# Generated by pormake.
# Topology eea, (3,6)-cn, num edge types: 1
# Building blocks:
#     Node 0, Type 0, BuildingBlock: MIDCAF_clean_linker_0, # of connection points: 3
#     Node 1, Type 0, BuildingBlock: MIDCAF_clean_linker_0, # of connection points: 3
#     Node 2, Type 0, BuildingBlock: MIDCAF_clean_linker_0, # of connection points: 3
#     Node 3, Type 0, BuildingBlock: MIDCAF_clean_linker_0, # of connection points: 3
#     Node 4, Type 0, BuildingBlock: MIDCAF_clean_linker_0, # of connection points: 3
#     Node 5, Type 0, BuildingBlock: MIDCAF_clean_linker_0, # of connection points: 3
#     Node 6, Type 0, BuildingBlock: MIDCAF_clean_linker_0, # of connection points: 3
#     Node 7, Type 0, BuildingBlock: MIDCAF_clean_linker_0, # of connection points: 3
#     Node 8, Type 0, BuildingBlock: MIDCAF_clean_linker_0, # of connection points: 3
#     Node 9, Type 0, BuildingBlock: MIDCAF_clean_linker_0, # of connection points: 3
#     Node 10, Type 0, BuildingBlock: MIDCAF_clean_linker_0, # of connection points: 3
#     Node 11, Type 0, BuildingBlock: MIDCAF_clean_linker_0, # of connection points: 3
#     Node 12, Type 0, BuildingBlock: MIDCAF_clean_linker_0, # of connection points: 3
#     Node 13, Type 0, BuildingBlock: MIDCAF_clean_linker_0, # of connection points: 3
#     Node 14, Type 0, BuildingBlock: MIDCAF_clean_linker_0, # of connection points: 3
#     Node 15, Type 0, BuildingBlock: MIDCAF_clean_linker_0, # of connection points: 3
#     Node 16, Type 0, BuildingBlock: MIDCAF_clean_linker_0, # of connection points: 3
#     Node 17, Type 0, BuildingBlock: MIDCAF_clean_linker_0, # of connection points: 3
#     Node 18, Type 1, BuildingBlock: CUKXOW_clean_sbu_0, # of connection points: 6
#     Node 19, Type 1, BuildingBlock: CUKXOW_clean_sbu_0, # of connection points: 6
#     Node 20, Type 1, BuildingBlock: CUKXOW_clean_sbu_0, # of connection points: 6
#     Node 21, Type 1, BuildingBlock: CUKXOW_clean_sbu_0, # of connection points: 6
#     Node 22, Type 1, BuildingBlock: CUKXOW_clean_sbu_0, # of connection points: 6
#     Node 23, Type 1, BuildingBlock: CUKXOW_clean_sbu_0, # of connection points: 6
#     Node 24, Type 1, BuildingBlock: CUKXOW_clean_sbu_0, # of connection points: 6
#     Node 25, Type 1, BuildingBlock: CUKXOW_clean_sbu_0, # of connection points: 6
#     Node 26, Type 1, BuildingBlock: CUKXOW_clean_sbu_0, # of connection points: 6
#     Edge 27, Type (0, 1), BuildingBlock: AJUNOK_clean_linker_0, # of connection points: 2
#     Edge 28, Type (0, 1), BuildingBlock: AJUNOK_clean_linker_0, # of connection points: 2
#     Edge 29, Type (0, 1), BuildingBlock: AJUNOK_clean_linker_0, # of connection points: 2
#     Edge 30, Type (0, 1), BuildingBlock: AJUNOK_clean_linker_0, # of connection points: 2
#     Edge 31, Type (0, 1), BuildingBlock: AJUNOK_clean_linker_0, # of connection points: 2
#     Edge 32, Type (0, 1), BuildingBlock: AJUNOK_clean_linker_0, # of connection points: 2
#     Edge 33, Type (0, 1), BuildingBlock: AJUNOK_clean_linker_0, # of connection points: 2
#     Edge 34, Type (0, 1), BuildingBlock: AJUNOK_clean_linker_0, # of connection points: 2
#     Edge 35, Type (0, 1), BuildingBlock: AJUNOK_clean_linker_0, # of connection points: 2
#     Edge 36, Type (0, 1), BuildingBlock: AJUNOK_clean_linker_0, # of connection points: 2
#     Edge 37, Type (0, 1), BuildingBlock: AJUNOK_clean_linker_0, # of connection points: 2
#     Edge 38, Type (0, 1), BuildingBlock: AJUNOK_clean_linker_0, # of connection points: 2
#     Edge 39, Type (0, 1), BuildingBlock: AJUNOK_clean_linker_0, # of connection points: 2
#     Edge 40, Type (0, 1), BuildingBlock: AJUNOK_clean_linker_0, # of connection points: 2
#     Edge 41, Type (0, 1), BuildingBlock: AJUNOK_clean_linker_0, # of connection points: 2
#     Edge 42, Type (0, 1), BuildingBlock: AJUNOK_clean_linker_0, # of connection points: 2
#     Edge 43, Type (0, 1), BuildingBlock: AJUNOK_clean_linker_0, # of connection points: 2
#     Edge 44, Type (0, 1), BuildingBlock: AJUNOK_clean_linker_0, # of connection points: 2
#     Edge 45, Type (0, 1), BuildingBlock: AJUNOK_clean_linker_0, # of connection points: 2
#     Edge 46, Type (0, 1), BuildingBlock: AJUNOK_clean_linker_0, # of connection points: 2
#     Edge 47, Type (0, 1), BuildingBlock: AJUNOK_clean_linker_0, # of connection points: 2
#     Edge 48, Type (0, 1), BuildingBlock: AJUNOK_clean_linker_0, # of connection points: 2
#     Edge 49, Type (0, 1), BuildingBlock: AJUNOK_clean_linker_0, # of connection points: 2
#     Edge 50, Type (0, 1), BuildingBlock: AJUNOK_clean_linker_0, # of connection points: 2
#     Edge 51, Type (0, 1), BuildingBlock: AJUNOK_clean_linker_0, # of connection points: 2
#     Edge 52, Type (0, 1), BuildingBlock: AJUNOK_clean_linker_0, # of connection points: 2
#     Edge 53, Type (0, 1), BuildingBlock: AJUNOK_clean_linker_0, # of connection points: 2
#     Edge 54, Type (0, 1), BuildingBlock: AJUNOK_clean_linker_0, # of connection points: 2
#     Edge 55, Type (0, 1), BuildingBlock: AJUNOK_clean_linker_0, # of connection points: 2
#     Edge 56, Type (0, 1), BuildingBlock: AJUNOK_clean_linker_0, # of connection points: 2
#     Edge 57, Type (0, 1), BuildingBlock: AJUNOK_clean_linker_0, # of connection points: 2
#     Edge 58, Type (0, 1), BuildingBlock: AJUNOK_clean_linker_0, # of connection points: 2
#     Edge 59, Type (0, 1), BuildingBlock: AJUNOK_clean_linker_0, # of connection points: 2
#     Edge 60, Type (0, 1), BuildingBlock: AJUNOK_clean_linker_0, # of connection points: 2
#     Edge 61, Type (0, 1), BuildingBlock: AJUNOK_clean_linker_0, # of connection points: 2
#     Edge 62, Type (0, 1), BuildingBlock: AJUNOK_clean_linker_0, # of connection points: 2
#     Edge 63, Type (0, 1), BuildingBlock: AJUNOK_clean_linker_0, # of connection points: 2
#     Edge 64, Type (0, 1), BuildingBlock: AJUNOK_clean_linker_0, # of connection points: 2
#     Edge 65, Type (0, 1), BuildingBlock: AJUNOK_clean_linker_0, # of connection points: 2
#     Edge 66, Type (0, 1), BuildingBlock: AJUNOK_clean_linker_0, # of connection points: 2
#     Edge 67, Type (0, 1), BuildingBlock: AJUNOK_clean_linker_0, # of connection points: 2
#     Edge 68, Type (0, 1), BuildingBlock: AJUNOK_clean_linker_0, # of connection points: 2
#     Edge 69, Type (0, 1), BuildingBlock: AJUNOK_clean_linker_0, # of connection points: 2
#     Edge 70, Type (0, 1), BuildingBlock: AJUNOK_clean_linker_0, # of connection points: 2
#     Edge 71, Type (0, 1), BuildingBlock: AJUNOK_clean_linker_0, # of connection points: 2
#     Edge 72, Type (0, 1), BuildingBlock: AJUNOK_clean_linker_0, # of connection points: 2
#     Edge 73, Type (0, 1), BuildingBlock: AJUNOK_clean_linker_0, # of connection points: 2
#     Edge 74, Type (0, 1), BuildingBlock: AJUNOK_clean_linker_0, # of connection points: 2
#     Edge 75, Type (0, 1), BuildingBlock: AJUNOK_clean_linker_0, # of connection points: 2
#     Edge 76, Type (0, 1), BuildingBlock: AJUNOK_clean_linker_0, # of connection points: 2
#     Edge 77, Type (0, 1), BuildingBlock: AJUNOK_clean_linker_0, # of connection points: 2
#     Edge 78, Type (0, 1), BuildingBlock: AJUNOK_clean_linker_0, # of connection points: 2
#     Edge 79, Type (0, 1), BuildingBlock: AJUNOK_clean_linker_0, # of connection points: 2
#     Edge 80, Type (0, 1), BuildingBlock: AJUNOK_clean_linker_0, # of connection points: 2
# Relax obj value: 0.018
# Max RMSD: 0.125
# Mean RMSD: 0.059
data_MOF--net-eea--node1-CUKXOW_clean_sbu_0--node2-MIDCAF_clean_linker_0--edge1-AJUNOK_clean_linker_0
_symmetry_space_group_name_H-M    P1
_symmetry_Int_Tables_number       1
_symmetry_cell_setting            triclinic
loop_
_symmetry_equiv_pos_as_xyz
'x, y, z'
_cell_length_a     53.311648
_cell_length_b     50.117403
_cell_length_c     56.754867
_cell_angle_alpha  93.143691
_cell_angle_beta   93.130072
_cell_angle_gamma 120.01635
loop_
_atom_site_label
_atom_site_type_symbol
_atom_site_fract_x
_atom_site_fract_y
_atom_site_fract_z
_atom_type_partial_charge
C0 C 0.22887 0.02654 0.41413 0.0
C1 C 0.21827 0.02021 0.39009 0.0
C2 C 0.21798 0.04363 0.37788 0.0
C3 C 0.22804 0.07293 0.38954 0.0
H4 H 0.2207 0.1478 0.38396 0.0
H5 H 0.208 0.18192 0.36441 0.0
H6 H 0.25421 0.25289 0.42238 0.0
H7 H 0.26726 0.21878 0.44225 0.0
H8 H 0.28106 0.19419 0.49256 0.0
H9 H 0.30174 0.20396 0.53385 0.0
H10 H 0.31179 0.12387 0.52491 0.0
H11 H 0.29152 0.11411 0.48385 0.0
H12 H 0.24709 0.05999 0.44435 0.0
H13 H 0.22938 0.00879 0.42387 0.0
H14 H 0.20959 0.03915 0.35939 0.0
H15 H 0.22736 0.09045 0.37962 0.0
N16 N 0.24363 0.1309 0.41551 0.0
N17 N 0.26512 0.16636 0.44932 0.0
N18 N 0.26202 0.11789 0.44847 0.0
C19 C 0.25174 0.15895 0.42685 0.0
C20 C 0.27043 0.14588 0.4602 0.0
C21 C 0.24863 0.11025 0.42612 0.0
C22 C 0.24502 0.18048 0.41479 0.0
C23 C 0.22841 0.17071 0.39262 0.0
C24 C 0.22102 0.19019 0.38135 0.0
C25 C 0.23025 0.21999 0.39183 0.0
C26 C 0.24718 0.2301 0.4138 0.0
C27 C 0.25447 0.21049 0.42522 0.0
C28 C 0.2844 0.15323 0.48486 0.0
C29 C 0.28786 0.17878 0.49933 0.0
C30 C 0.29954 0.18431 0.523 0.0
C31 C 0.30814 0.16452 0.53257 0.0
C32 C 0.30544 0.13955 0.51795 0.0
C33 C 0.29364 0.1339 0.49443 0.0
C34 C 0.23871 0.0794 0.41365 0.0
C35 C 0.23913 0.05589 0.42578 0.0
C36 C 0.97953 0.2164 0.4286 0.0
C37 C 0.97987 0.21255 0.40389 0.0
C38 C 0.95372 0.19211 0.39009 0.0
C39 C 0.92819 0.17458 0.40079 0.0
H40 H 0.86483 0.08228 0.39326 0.0
H41 H 0.8299 0.03337 0.37059 0.0
H42 H 0.76748 0.01743 0.42122 0.0
H43 H 0.80231 0.06632 0.4441 0.0
H44 H 0.85498 0.10338 0.5038 0.0
H45 H 0.84303 0.11276 0.54309 0.0
H46 H 0.86413 0.20482 0.52745 0.0
H47 H 0.87843 0.19604 0.48888 0.0
H48 H 0.95439 0.2017 0.45847 0.0
H49 H 0.99935 0.23211 0.43969 0.0
H50 H 0.95304 0.18941 0.37096 0.0
H51 H 0.90861 0.15851 0.38957 0.0
N52 N 0.88167 0.12875 0.42449 0.0
N53 N 0.85351 0.11485 0.45669 0.0
N54 N 0.89701 0.16293 0.45909 0.0
C55 C 0.85765 0.10802 0.43427 0.0
C56 C 0.87299 0.14224 0.46914 0.0
C57 C 0.90146 0.15614 0.43667 0.0
C58 C 0.83638 0.0783 0.42053 0.0
C59 C 0.84364 0.06848 0.39957 0.0
C60 C 0.82372 0.04047 0.38658 0.0
C61 C 0.79599 0.02191 0.39406 0.0
C62 C 0.78862 0.03163 0.41492 0.0
C63 C 0.80865 0.05949 0.42808 0.0
C64 C 0.86773 0.14904 0.49343 0.0
C65 C 0.85754 0.1258 0.50901 0.0
C66 C 0.8505 0.13115 0.53145 0.0
C67 C 0.85262 0.15961 0.53865 0.0
C68 C 0.86304 0.18297 0.52298 0.0
C69 C 0.87099 0.1779 0.50075 0.0
C70 C 0.92801 0.17738 0.42556 0.0
C71 C 0.9538 0.19902 0.43935 0.0
C72 C 0.78457 0.73406 0.41589 0.0
C73 C 0.79544 0.75874 0.40148 0.0
C74 C 0.82501 0.77358 0.39752 0.0
C75 C 0.84339 0.76434 0.408 0.0
H76 H 0.91491 0.7584 0.39525 0.0
H77 H 0.96125 0.77567 0.37905 0.0
H78 H 0.99168 0.7478 0.4397 0.0
H79 H 0.94515 0.73065 0.45636 0.0
H80 H 0.90149 0.70204 0.49753 0.0
H81 H 0.89193 0.68404 0.53695 0.0
H82 H 0.80438 0.6674 0.5259 0.0
H83 H 0.81361 0.68513 0.48643 0.0
H84 H 0.79413 0.70624 0.4379 0.0
H85 H 0.76172 0.72152 0.41874 0.0
H86 H 0.83413 0.79279 0.38665 0.0
H87 H 0.86614 0.77662 0.40478 0.0
N88 N 0.8786 0.73981 0.42613 0.0
N89 N 0.8912 0.71858 0.45723 0.0
N90 N 0.8461 0.71652 0.45466 0.0
C91 C 0.89792 0.73334 0.4371 0.0
C92 C 0.86522 0.70997 0.46609 0.0
C93 C 0.85271 0.73152 0.4347 0.0
C94 C 0.9262 0.74315 0.42722 0.0
C95 C 0.93137 0.7559 0.40528 0.0
C96 C 0.95792 0.76574 0.39588 0.0
C97 C 0.9801 0.76326 0.40816 0.0
C98 C 0.97506 0.75039 0.43002 0.0
C99 C 0.94834 0.74038 0.43946 0.0
C100 C 0.85849 0.69554 0.48884 0.0
C101 C 0.88004 0.69414 0.50328 0.0
C102 C 0.87462 0.68387 0.52588 0.0
C103 C 0.84752 0.67464 0.53452 0.0
C104 C 0.82544 0.6743 0.51964 0.0
C105 C 0.83087 0.68471 0.49709 0.0
C106 C 0.83272 0.74025 0.42294 0.0
C107 C 0.80309 0.72513 0.42673 0.0
C108 C 0.02527 0.24653 0.57894 0.0
C109 C 0.02079 0.23474 0.60121 0.0
C110 C 0.04371 0.23404 0.61399 0.0
C111 C 0.07035 0.24443 0.60462 0.0
H112 H 0.13817 0.22442 0.60196 0.0
H113 H 0.17205 0.21272 0.62267 0.0
H114 H 0.24429 0.29579 0.60122 0.0
H115 H 0.21005 0.30654 0.57912 0.0
H116 H 0.19 0.32838 0.52835 0.0
H117 H 0.20042 0.3487 0.48971 0.0
H118 H 0.10865 0.31036 0.47048 0.0
H119 H 0.098 0.29011 0.50917 0.0
H120 H 0.05482 0.26598 0.55232 0.0
H121 H 0.00796 0.2474 0.56872 0.0
H122 H 0.04124 0.22593 0.63148 0.0
H123 H 0.08746 0.24355 0.61513 0.0
N124 N 0.12386 0.26274 0.58433 0.0
N125 N 0.15678 0.28817 0.5565 0.0
N126 N 0.10998 0.28206 0.55262 0.0
C127 C 0.1504 0.27302 0.5764 0.0
C128 C 0.1366 0.29264 0.54441 0.0
C129 C 0.10359 0.26731 0.57276 0.0
C130 C 0.17147 0.26653 0.58905 0.0
C131 C 0.16129 0.24032 0.60174 0.0
C132 C 0.18075 0.23378 0.61387 0.0
C133 C 0.21094 0.25378 0.61422 0.0
C134 C 0.22116 0.27996 0.60137 0.0
C135 C 0.2016 0.28615 0.58875 0.0
C136 C 0.14313 0.30744 0.52186 0.0
C137 C 0.17202 0.32458 0.51604 0.0
C138 C 0.17805 0.33647 0.494 0.0
C139 C 0.15534 0.33124 0.47723 0.0
C140 C 0.12653 0.31479 0.48318 0.0
C141 C 0.12049 0.30325 0.50534 0.0
C142 C 0.07495 0.25614 0.58229 0.0
C143 C 0.05208 0.25713 0.56955 0.0
C144 C 0.76839 0.78269 0.59526 0.0
C145 C 0.78989 0.7957 0.61453 0.0
C146 C 0.80133 0.82688 0.62278 0.0
C147 C 0.79148 0.84477 0.61197 0.0
H148 H 0.80012 0.93085 0.61784 0.0
H149 H 0.81538 0.98279 0.63572 0.0
H150 H 0.74926 0.98516 0.59009 0.0
H151 H 0.73386 0.93326 0.57201 0.0
H152 H 0.69878 0.87816 0.52946 0.0
H153 H 0.67728 0.86696 0.4884 0.0
H154 H 0.71116 0.80616 0.47436 0.0
H155 H 0.73246 0.81686 0.5155 0.0
H156 H 0.74214 0.78993 0.56942 0.0
H157 H 0.75926 0.75866 0.58859 0.0
H158 H 0.81767 0.83733 0.63781 0.0
H159 H 0.80078 0.86874 0.61884 0.0
N160 N 0.76664 0.87908 0.59195 0.0
N161 N 0.74067 0.88633 0.56078 0.0
N162 N 0.74329 0.84092 0.5599 0.0
C163 C 0.7572 0.89684 0.58192 0.0
C164 C 0.73369 0.85848 0.54961 0.0
C165 C 0.75963 0.85101 0.58119 0.0
C166 C 0.7658 0.92788 0.59341 0.0
C167 C 0.78871 0.94233 0.61163 0.0
C168 C 0.79761 0.97212 0.62179 0.0
C169 C 0.78362 0.98794 0.6141 0.0
C170 C 0.76037 0.97337 0.59627 0.0
C171 C 0.75167 0.94372 0.58591 0.0
C172 C 0.71758 0.84862 0.52571 0.0
C173 C 0.70129 0.86201 0.51775 0.0
C174 C 0.68882 0.85549 0.49433 0.0
C175 C 0.69273 0.83583 0.47835 0.0
C176 C 0.70794 0.82143 0.48644 0.0
C177 C 0.72005 0.82755 0.50998 0.0
C178 C 0.77009 0.83191 0.59253 0.0
C179 C 0.75871 0.80065 0.58426 0.0
C180 C 0.22 0.9854 0.59313 0.0
C181 C 0.2175 0.99169 0.61701 0.0
C182 C 0.19706 0.96791 0.62925 0.0
C183 C 0.1785 0.93856 0.61749 0.0
H184 H 0.10291 0.85963 0.62364 0.0
H185 H 0.05795 0.82853 0.64145 0.0
H186 H 0.0169 0.77652 0.57371 0.0
H187 H 0.06233 0.80725 0.55577 0.0
H188 H 0.10375 0.82775 0.50934 0.0
H189 H 0.11342 0.81931 0.46887 0.0
H190 H 0.20555 0.87968 0.4881 0.0
H191 H 0.1959 0.88884 0.52812 0.0
H192 H 0.20378 0.95207 0.56285 0.0
H193 H 0.23592 0.00338 0.58345 0.0
H194 H 0.19487 0.97232 0.64772 0.0
H195 H 0.16244 0.92085 0.62725 0.0
N196 N 0.13419 0.88288 0.58973 0.0
N197 N 0.11823 0.84817 0.5554 0.0
N198 N 0.16367 0.89404 0.55848 0.0
C199 C 0.11362 0.85592 0.57748 0.0
C200 C 0.14346 0.8671 0.54591 0.0
C201 C 0.15917 0.90212 0.58037 0.0
C202 C 0.0863 0.83595 0.58821 0.0
C203 C 0.08441 0.84151 0.61245 0.0
C204 C 0.05859 0.82377 0.62271 0.0
C205 C 0.03396 0.80004 0.60903 0.0
C206 C 0.03574 0.7943 0.5848 0.0
C207 C 0.06172 0.81198 0.57451 0.0
C208 C 0.149 0.8593 0.52189 0.0
C209 C 0.12607 0.839 0.50493 0.0
C210 C 0.13164 0.83409 0.4817 0.0
C211 C 0.16025 0.84912 0.47503 0.0
C212 C 0.18318 0.86827 0.49239 0.0
C213 C 0.17763 0.87345 0.51542 0.0
C214 C 0.18036 0.93239 0.59334 0.0
C215 C 0.20171 0.95599 0.58142 0.0
C216 C 0.89647 0.36099 0.75421 0.0
C217 C 0.8844 0.35339 0.73053 0.0
C218 C 0.88282 0.37602 0.71807 0.0
C219 C 0.89255 0.40557 0.72928 0.0
H220 H 0.87738 0.47909 0.72722 0.0
H221 H 0.86386 0.51383 0.70924 0.0
H222 H 0.91944 0.58684 0.7636 0.0
H223 H 0.93319 0.55238 0.78169 0.0
H224 H 0.94583 0.52677 0.8317 0.0
H225 H 0.96886 0.53786 0.87225 0.0
H226 H 0.99165 0.46743 0.85936 0.0
H227 H 0.96854 0.45596 0.81882 0.0
H228 H 0.91552 0.39556 0.78368 0.0
H229 H 0.89831 0.34405 0.76408 0.0
H230 H 0.87364 0.37068 0.69976 0.0
H231 H 0.89077 0.42241 0.71925 0.0
N232 N 0.90683 0.46377 0.75538 0.0
N233 N 0.93095 0.50053 0.78818 0.0
N234 N 0.93024 0.4533 0.78663 0.0
C235 C 0.91508 0.49195 0.76671 0.0
C236 C 0.93871 0.48137 0.79822 0.0
C237 C 0.9143 0.4443 0.76522 0.0
C238 C 0.90655 0.51292 0.75588 0.0
C239 C 0.88681 0.50255 0.73538 0.0
C240 C 0.87893 0.52235 0.7251 0.0
C241 C 0.89082 0.55304 0.73492 0.0
C242 C 0.91029 0.5634 0.75549 0.0
C243 C 0.91804 0.54356 0.76589 0.0
C244 C 0.95508 0.49026 0.82203 0.0
C245 C 0.95609 0.51391 0.83733 0.0
C246 C 0.96921 0.52028 0.86054 0.0
C247 C 0.982 0.50353 0.86878 0.0
C248 C 0.98217 0.48086 0.85327 0.0
C249 C 0.96872 0.47417 0.83016 0.0
C250 C 0.90446 0.41319 0.75309 0.0
C251 C 0.90649 0.39058 0.76535 0.0
C252 C 0.6542 0.55443 0.76805 0.0
C253 C 0.65944 0.5443 0.74622 0.0
C254 C 0.63895 0.51487 0.73536 0.0
C255 C 0.61345 0.49623 0.74568 0.0
H256 H 0.53875 0.41803 0.7294 0.0
H257 H 0.50346 0.36968 0.70639 0.0
H258 H 0.44116 0.35378 0.75715 0.0
H259 H 0.47619 0.40228 0.78023 0.0
H260 H 0.4935 0.46318 0.81829 0.0
H261 H 0.47947 0.47002 0.85716 0.0
H262 H 0.56893 0.51212 0.88659 0.0
H263 H 0.58325 0.50636 0.84711 0.0
H264 H 0.62488 0.54429 0.79509 0.0
H265 H 0.66992 0.57685 0.77704 0.0
H266 H 0.64232 0.50647 0.71851 0.0
H267 H 0.5981 0.47385 0.73645 0.0
N268 N 0.55875 0.4609 0.7637 0.0
N269 N 0.52648 0.4508 0.79265 0.0
N270 N 0.57343 0.49468 0.79848 0.0
C271 C 0.53231 0.4427 0.77135 0.0
C272 C 0.54681 0.47661 0.80634 0.0
C273 C 0.57941 0.4869 0.77694 0.0
C274 C 0.51043 0.41401 0.75682 0.0
C275 C 0.51752 0.40438 0.73569 0.0
C276 C 0.4974 0.37663 0.72252 0.0
C277 C 0.46979 0.35796 0.73017 0.0
C278 C 0.46234 0.36786 0.75089 0.0
C279 C 0.48248 0.39556 0.76414 0.0
C280 C 0.53947 0.48409 0.82966 0.0
C281 C 0.51029 0.47425 0.83297 0.0
C282 C 0.50221 0.47805 0.85529 0.0
C283 C 0.523 0.49141 0.87504 0.0
C284 C 0.55242 0.50216 0.87168 0.0
C285 C 0.56062 0.49877 0.84911 0.0
C286 C 0.60766 0.50649 0.76721 0.0
C287 C 0.62853 0.5357 0.77847 0.0
C288 C 0.45721 0.08153 0.7581 0.0
C289 C 0.46194 0.09261 0.7356 0.0
C290 C 0.48324 0.09114 0.72303 0.0
C291 C 0.50039 0.08019 0.73315 0.0
H292 H 0.57585 0.08238 0.72515 0.0
H293 H 0.62232 0.10096 0.70877 0.0
H294 H 0.65763 0.08423 0.77279 0.0
H295 H 0.61094 0.06567 0.78955 0.0
H296 H 0.56772 0.03577 0.83066 0.0
H297 H 0.55829 0.01655 0.86974 0.0
H298 H 0.46834 0.99136 0.85675 0.0
H299 H 0.4775 0.01064 0.81767 0.0
H300 H 0.47062 0.06274 0.78584 0.0
H301 H 0.44084 0.0823 0.76814 0.0
H302 H 0.48678 0.09863 0.70536 0.0
H303 H 0.51695 0.07993 0.72306 0.0
N304 N 0.54191 0.06885 0.75816 0.0
N305 N 0.5554 0.04826 0.78919 0.0
N306 N 0.51048 0.04659 0.78757 0.0
C307 C 0.56152 0.06261 0.76888 0.0
C308 C 0.52976 0.0399 0.79853 0.0
C309 C 0.51644 0.06105 0.76734 0.0
C310 C 0.58961 0.07258 0.75875 0.0
C311 C 0.59342 0.08259 0.73585 0.0
C312 C 0.62002 0.09317 0.72637 0.0
C313 C 0.64356 0.09423 0.73958 0.0
C314 C 0.63987 0.08402 0.76238 0.0
C315 C 0.61309 0.07317 0.77187 0.0
C316 C 0.52346 0.02517 0.82111 0.0
C317 C 0.5458 0.02572 0.83591 0.0
C318 C 0.54046 0.01471 0.85827 0.0
C319 C 0.51264 0.00261 0.86616 0.0
C320 C 0.48993 1.00043 0.85095 0.0
C321 C 0.4953 0.01174 0.82868 0.0
C322 C 0.49643 0.07009 0.756 0.0
C323 C 0.47427 0.07034 0.76821 0.0
C324 C 0.68517 0.57824 0.91071 0.0
C325 C 0.683 0.57099 0.93437 0.0
C326 C 0.70607 0.56996 0.94654 0.0
C327 C 0.73078 0.57594 0.93536 0.0
H328 H 0.78884 0.53909 0.92995 0.0
H329 H 0.82239 0.52535 0.94919 0.0
H330 H 0.89375 0.59926 0.918 0.0
H331 H 0.85993 0.61154 0.89759 0.0
H332 H 0.80562 0.58264 0.83108 0.0
H333 H 0.82063 0.60527 0.79385 0.0
H334 H 0.80348 0.67805 0.81615 0.0
H335 H 0.78634 0.65377 0.8527 0.0
H336 H 0.7111 0.58981 0.88122 0.0
H337 H 0.66759 0.57906 0.90092 0.0
H338 H 0.70475 0.56383 0.96463 0.0
H339 H 0.74798 0.57468 0.94537 0.0
N340 N 0.77761 0.58013 0.9104 0.0
N341 N 0.80668 0.596 0.87884 0.0
N342 N 0.76467 0.60022 0.87852 0.0
C343 C 0.80146 0.58417 0.90011 0.0
C344 C 0.78842 0.60398 0.86792 0.0
C345 C 0.75911 0.58812 0.89984 0.0
C346 C 0.82175 0.57613 0.91207 0.0
C347 C 0.81169 0.5522 0.9271 0.0
C348 C 0.83092 0.54444 0.93819 0.0
C349 C 0.86072 0.56082 0.93483 0.0
C350 C 0.87082 0.58536 0.92029 0.0
C351 C 0.85148 0.5926 0.90875 0.0
C352 C 0.79476 0.61644 0.84465 0.0
C353 C 0.80456 0.60315 0.82776 0.0
C354 C 0.81336 0.61629 0.80652 0.0
C355 C 0.81335 0.64357 0.80187 0.0
C356 C 0.80308 0.65662 0.81872 0.0
C357 C 0.79345 0.64288 0.83976 0.0
C358 C 0.73311 0.58314 0.91166 0.0
C359 C 0.71011 0.58448 0.8995 0.0
C360 C 0.43288 0.11225 0.92861 0.0
C361 C 0.43817 0.11527 0.95339 0.0
C362 C 0.43337 0.13619 0.96701 0.0
C363 C 0.42456 0.1548 0.95595 0.0
H364 H 0.43454 0.24189 0.96731 0.0
H365 H 0.45269 0.29355 0.9872 0.0
H366 H 0.43667 0.32448 0.9216 0.0
H367 H 0.41854 0.273 0.90152 0.0
H368 H 0.36589 0.21244 0.86385 0.0
H369 H 0.34683 0.20339 0.82228 0.0
H370 H 0.3753 0.1375 0.8096 0.0
H371 H 0.39416 0.14612 0.85138 0.0
H372 H 0.4203 0.12812 0.89837 0.0
H373 H 0.43644 0.09616 0.91782 0.0
H374 H 0.43741 0.13887 0.98615 0.0
H375 H 0.42174 0.17133 0.96689 0.0
N376 N 0.42016 0.20156 0.93107 0.0
N377 N 0.40248 0.2149 0.89776 0.0
N378 N 0.4006 0.16704 0.89658 0.0
C379 C 0.41519 0.22227 0.92037 0.0
C380 C 0.39498 0.18732 0.88578 0.0
C381 C 0.41293 0.17393 0.91936 0.0
C382 C 0.42499 0.25319 0.93279 0.0
C383 C 0.43474 0.25961 0.95709 0.0
C384 C 0.44506 0.28914 0.96854 0.0
C385 C 0.446 0.31288 0.95591 0.0
C386 C 0.43627 0.30655 0.93168 0.0
C387 C 0.42572 0.277 0.92026 0.0
C388 C 0.38173 0.18015 0.86092 0.0
C389 C 0.36792 0.19583 0.8523 0.0
C390 C 0.35683 0.19053 0.82856 0.0
C391 C 0.3597 0.16984 0.81283 0.0
C392 C 0.37293 0.15364 0.82144 0.0
C393 C 0.38363 0.15855 0.84532 0.0
C394 C 0.41994 0.15244 0.93107 0.0
C395 C 0.42359 0.13048 0.91754 0.0
C396 C 0.87274 0.31142 0.92148 0.0
C397 C 0.87168 0.31695 0.94581 0.0
C398 C 0.85208 0.29268 0.95818 0.0
C399 C 0.83317 0.26353 0.94624 0.0
H400 H 0.76135 0.18129 0.95386 0.0
H401 H 0.71764 0.15071 0.97326 0.0
H402 H 0.67129 0.10186 0.90585 0.0
H403 H 0.71561 0.13228 0.88615 0.0
H404 H 0.75808 0.15703 0.83631 0.0
H405 H 0.76914 0.1499 0.79595 0.0
H406 H 0.86106 0.20276 0.81895 0.0
H407 H 0.85004 0.21085 0.85868 0.0
H408 H 0.85523 0.27877 0.89074 0.0
H409 H 0.888 0.32976 0.91167 0.0
H410 H 0.85101 0.29647 0.97699 0.0
H411 H 0.81795 0.24538 0.9562 0.0
N412 N 0.78857 0.20764 0.91871 0.0
N413 N 0.7726 0.17276 0.88443 0.0
N414 N 0.81712 0.21975 0.88685 0.0
C415 C 0.76834 0.18026 0.90676 0.0
C416 C 0.79729 0.19242 0.87454 0.0
C417 C 0.81287 0.22758 0.90889 0.0
C418 C 0.74193 0.15956 0.91833 0.0
C419 C 0.74192 0.16406 0.94303 0.0
C420 C 0.7168 0.14664 0.95421 0.0
C421 C 0.69086 0.12446 0.94101 0.0
C422 C 0.69099 0.11898 0.91644 0.0
C423 C 0.71633 0.13636 0.90518 0.0
C424 C 0.80317 0.18482 0.8506 0.0
C425 C 0.7806 0.16684 0.83269 0.0
C426 C 0.78699 0.16271 0.80955 0.0
C427 C 0.81606 0.17608 0.80399 0.0
C428 C 0.83844 0.19276 0.82232 0.0
C429 C 0.83211 0.19729 0.8452 0.0
C430 C 0.83386 0.25801 0.92177 0.0
C431 C 0.85412 0.28219 0.90958 0.0
C432 C 0.55553 0.68727 0.0873 0.0
C433 C 0.54557 0.67967 0.06312 0.0
C434 C 0.54631 0.70258 0.04955 0.0
C435 C 0.55623 0.73245 0.06011 0.0
H436 H 0.54361 0.80555 0.05375 0.0
H437 H 0.53011 0.83855 0.03324 0.0
H438 H 0.58461 0.91493 0.08558 0.0
H439 H 0.59835 0.88194 0.10641 0.0
H440 H 0.6329 0.86696 0.15254 0.0
H441 H 0.65533 0.87939 0.19369 0.0
H442 H 0.61651 0.78199 0.20202 0.0
H443 H 0.5946 0.76942 0.16126 0.0
H444 H 0.57304 0.72217 0.11656 0.0
H445 H 0.55559 0.67008 0.09804 0.0
H446 H 0.53879 0.69723 0.03085 0.0
H447 H 0.55627 0.74953 0.0492 0.0
N448 N 0.57097 0.79165 0.08419 0.0
N449 N 0.59321 0.82896 0.11695 0.0
N450 N 0.58937 0.78029 0.1181 0.0
C451 C 0.57941 0.82033 0.09458 0.0
C452 C 0.59821 0.80891 0.12882 0.0
C453 C 0.57593 0.77154 0.09576 0.0
C454 C 0.57216 0.84105 0.0818 0.0
C455 C 0.55297 0.82941 0.06092 0.0
C456 C 0.54508 0.84823 0.04915 0.0
C457 C 0.55643 0.87924 0.05776 0.0
C458 C 0.57585 0.89114 0.07843 0.0
C459 C 0.58357 0.8722 0.0904 0.0
C460 C 0.61199 0.8172 0.15357 0.0
C461 C 0.62922 0.84824 0.16316 0.0
C462 C 0.64216 0.85538 0.18659 0.0
C463 C 0.63759 0.83158 0.20085 0.0
C464 C 0.62031 0.8007 0.19132 0.0
C465 C 0.60785 0.79358 0.16794 0.0
C466 C 0.56596 0.74007 0.08441 0.0
C467 C 0.5657 0.71717 0.09783 0.0
C468 C 0.30943 0.87791 0.09453 0.0
C469 C 0.31021 0.87447 0.06982 0.0
C470 C 0.28462 0.8526 0.05596 0.0
C471 C 0.259 0.8345 0.06646 0.0
H472 H 0.18486 0.74811 0.054 0.0
H473 H 0.14968 0.69683 0.03432 0.0
H474 H 0.09992 0.67628 0.09497 0.0
H475 H 0.13468 0.72707 0.11473 0.0
H476 H 0.1488 0.78136 0.15189 0.0
H477 H 0.13843 0.78885 0.19188 0.0
H478 H 0.22915 0.85574 0.21096 0.0
H479 H 0.23986 0.84841 0.1703 0.0
H480 H 0.28381 0.86303 0.12411 0.0
H481 H 0.3289 0.89398 0.10583 0.0
H482 H 0.28435 0.84953 0.03689 0.0
H483 H 0.23979 0.81787 0.05512 0.0
N484 N 0.21003 0.79089 0.0896 0.0
N485 N 0.18084 0.7799 0.12098 0.0
N486 N 0.2265 0.82534 0.12428 0.0
C487 C 0.18498 0.77179 0.09901 0.0
C488 C 0.2012 0.8065 0.13376 0.0
C489 C 0.23089 0.8177 0.10202 0.0
C490 C 0.16285 0.74171 0.08609 0.0
C491 C 0.16634 0.73277 0.06311 0.0
C492 C 0.14621 0.70349 0.05178 0.0
C493 C 0.12241 0.68259 0.06331 0.0
C494 C 0.11839 0.69184 0.08589 0.0
C495 C 0.13832 0.72104 0.09714 0.0
C496 C 0.19534 0.81378 0.1579 0.0
C497 C 0.16675 0.79763 0.1645 0.0
C498 C 0.16075 0.80176 0.18756 0.0
C499 C 0.18316 0.82187 0.20489 0.0
C500 C 0.21155 0.83947 0.19812 0.0
C501 C 0.21765 0.83537 0.17482 0.0
C502 C 0.25813 0.83791 0.09113 0.0
C503 C 0.28361 0.86002 0.10505 0.0
C504 C 0.11291 0.40078 0.09009 0.0
C505 C 0.11601 0.41028 0.06706 0.0
C506 C 0.13771 0.40989 0.05435 0.0
C507 C 0.15634 0.40084 0.0646 0.0
H508 H 0.23282 0.4053 0.05545 0.0
H509 H 0.27813 0.42205 0.03746 0.0
H510 H 0.31634 0.40893 0.10162 0.0
H511 H 0.27072 0.39139 0.11961 0.0
H512 H 0.23109 0.36643 0.16337 0.0
H513 H 0.22404 0.35048 0.20363 0.0
H514 H 0.13347 0.32334 0.1928 0.0
H515 H 0.14013 0.3393 0.15262 0.0
H516 H 0.12888 0.38497 0.11829 0.0
H517 H 0.09676 0.40144 0.10049 0.0
H518 H 0.14045 0.41689 0.03651 0.0
H519 H 0.17306 0.40124 0.05436 0.0
N520 N 0.19992 0.39213 0.08925 0.0
N521 N 0.21599 0.37501 0.1212 0.0
N522 N 0.1706 0.37214 0.12029 0.0
C523 C 0.22054 0.38742 0.10003 0.0
C524 C 0.19091 0.36706 0.13134 0.0
C525 C 0.17496 0.38466 0.09923 0.0
C526 C 0.24802 0.39685 0.08901 0.0
C527 C 0.25078 0.40581 0.06577 0.0
C528 C 0.27678 0.41554 0.05543 0.0
C529 C 0.30068 0.41658 0.06804 0.0
C530 C 0.29806 0.40774 0.09128 0.0
C531 C 0.27195 0.39782 0.10162 0.0
C532 C 0.18625 0.35447 0.15479 0.0
C533 C 0.20954 0.35662 0.16936 0.0
C534 C 0.20559 0.34748 0.19237 0.0
C535 C 0.17824 0.33565 0.20105 0.0
C536 C 0.15467 0.33213 0.18627 0.0
C537 C 0.15862 0.34153 0.16337 0.0
C538 C 0.15367 0.39189 0.08781 0.0
C539 C 0.13145 0.39151 0.10032 0.0
C540 C 0.36385 0.92113 0.2492 0.0
C541 C 0.35935 0.90909 0.27135 0.0
C542 C 0.38217 0.90819 0.28409 0.0
C543 C 0.40889 0.91878 0.2748 0.0
H544 H 0.49204 0.93367 0.29076 0.0
H545 H 0.52465 0.91855 0.3096 0.0
H546 H 0.56212 0.92215 0.24342 0.0
H547 H 0.53044 0.93859 0.22484 0.0
H548 H 0.52499 0.99464 0.19343 0.0
H549 H 0.53324 0.01244 0.15384 0.0
H550 H 0.44184 0.98067 0.13971 0.0
H551 H 0.43332 0.96298 0.17933 0.0
H552 H 0.3934 0.94089 0.22272 0.0
H553 H 0.34672 0.92255 0.2392 0.0
H554 H 0.37923 0.89896 0.3012 0.0
H555 H 0.4259 0.91752 0.28512 0.0
N556 N 0.46211 0.93637 0.25377 0.0
N557 N 0.49293 0.95816 0.22387 0.0
N558 N 0.44723 0.95458 0.22186 0.0
C559 C 0.48768 0.9447 0.24455 0.0
C560 C 0.4729 0.96339 0.21249 0.0
C561 C 0.44174 0.94115 0.24258 0.0
C562 C 0.50871 0.93743 0.25631 0.0
C563 C 0.50748 0.93159 0.28029 0.0
C564 C 0.52608 0.92281 0.29108 0.0
C565 C 0.54614 0.91938 0.27808 0.0
C566 C 0.54749 0.92541 0.25413 0.0
C567 C 0.52919 0.93465 0.24342 0.0
C568 C 0.47842 0.97702 0.18948 0.0
C569 C 0.50666 0.99176 0.18204 0.0
C570 C 0.51148 0.00221 0.15948 0.0
C571 C 0.48815 0.9978 0.14385 0.0
C572 C 0.46014 0.98425 0.15153 0.0
C573 C 0.45533 0.97413 0.17419 0.0
C574 C 0.41348 0.93069 0.25255 0.0
C575 C 0.39066 0.93186 0.23988 0.0
C576 C 0.10061 0.44731 0.26241 0.0
C577 C 0.11426 0.45637 0.28568 0.0
C578 C 0.12123 0.4853 0.29656 0.0
C579 C 0.11508 0.50506 0.2844 0.0
H580 H 0.1363 0.59405 0.29006 0.0
H581 H 0.15046 0.64393 0.31141 0.0
H582 H 0.10097 0.6605 0.2575 0.0
H583 H 0.08681 0.61072 0.23585 0.0
H584 H 0.09762 0.57676 0.18152 0.0
H585 H 0.07606 0.56956 0.1412 0.0
H586 H 0.0211 0.47183 0.14743 0.0
H587 H 0.04373 0.47889 0.1879 0.0
H588 H 0.08448 0.4599 0.23205 0.0
H589 H 0.09535 0.42519 0.25355 0.0
H590 H 0.13165 0.49275 0.31451 0.0
H591 H 0.1211 0.52732 0.29346 0.0
N592 N 0.10497 0.54673 0.25941 0.0
N593 N 0.0912 0.56187 0.22521 0.0
N594 N 0.0862 0.51246 0.22476 0.0
C595 C 0.10193 0.56827 0.24828 0.0
C596 C 0.08333 0.53415 0.21329 0.0
C597 C 0.09722 0.51883 0.24796 0.0
C598 C 0.11046 0.59844 0.26121 0.0
C599 C 0.12837 0.60825 0.28272 0.0
C600 C 0.13659 0.63678 0.29492 0.0
C601 C 0.12678 0.65582 0.28598 0.0
C602 C 0.10867 0.64601 0.26468 0.0
C603 C 0.10074 0.61765 0.25229 0.0
C604 C 0.07202 0.52845 0.18802 0.0
C605 C 0.08105 0.55365 0.17429 0.0
C606 C 0.06856 0.54957 0.15121 0.0
C607 C 0.04621 0.52031 0.14138 0.0
C608 C 0.03814 0.49472 0.15461 0.0
C609 C 0.05105 0.49874 0.17774 0.0
C610 C 0.10199 0.49652 0.26089 0.0
C611 C 0.09456 0.46725 0.25009 0.0
C612 C 0.55129 0.64346 0.26206 0.0
C613 C 0.54956 0.64982 0.28612 0.0
C614 C 0.52907 0.62628 0.29851 0.0
C615 C 0.51011 0.59695 0.28687 0.0
H616 H 0.42018 0.53451 0.27942 0.0
H617 H 0.37396 0.50492 0.2959 0.0
H618 H 0.35882 0.4221 0.25498 0.0
H619 H 0.40474 0.45216 0.23752 0.0
H620 H 0.43901 0.47334 0.18498 0.0
H621 H 0.44788 0.46175 0.14492 0.0
H622 H 0.53516 0.54022 0.15564 0.0
H623 H 0.5267 0.55172 0.19568 0.0
H624 H 0.53428 0.60988 0.23185 0.0
H625 H 0.56701 0.66136 0.25221 0.0
H626 H 0.52728 0.6308 0.31705 0.0
H627 H 0.49419 0.57936 0.2968 0.0
N628 N 0.46476 0.5418 0.25895 0.0
N629 N 0.45024 0.50483 0.22624 0.0
N630 N 0.49584 0.55047 0.22909 0.0
C631 C 0.44452 0.51427 0.24723 0.0
C632 C 0.47599 0.52288 0.21707 0.0
C633 C 0.49044 0.55999 0.25008 0.0
C634 C 0.41619 0.49572 0.25708 0.0
C635 C 0.40702 0.50999 0.27382 0.0
C636 C 0.38051 0.493 0.28338 0.0
C637 C 0.36252 0.46117 0.27668 0.0
C638 C 0.37177 0.44675 0.26009 0.0
C639 C 0.39819 0.46391 0.2502 0.0
C640 C 0.48197 0.51374 0.19356 0.0
C641 C 0.46022 0.48794 0.17896 0.0
C642 C 0.46524 0.48133 0.15597 0.0
C643 C 0.4921 0.50032 0.14708 0.0
C644 C 0.51428 0.52514 0.16203 0.0
C645 C 0.50928 0.53182 0.18495 0.0
C646 C 0.51158 0.59054 0.26269 0.0
C647 C 0.53266 0.614 0.25049 0.0
Tb648 Tb 0.53268 0.02498 0.00401 0.0
C649 C 0.51777 0.95702 0.01478 0.0
Tb650 Tb 0.46852 0.97451 0.00616 0.0
O651 O 0.53567 0.0453 0.04023 0.0
O652 O 0.50632 0.99919 0.02996 0.0
O653 O 0.53693 0.98406 0.00759 0.0
C654 C 0.41674 0.94444 0.02365 0.0
O655 O 0.49049 0.94969 0.01767 0.0
C656 C 0.48765 0.97903 0.96382 0.0
C657 C 0.48374 0.04252 0.99459 0.0
O658 O 0.42586 0.93268 0.00755 0.0
O659 O 0.4366 0.9731 0.02947 0.0
O660 O 0.46526 0.95415 0.96986 0.0
O661 O 0.49492 1.00013 0.98018 0.0
O662 O 0.46433 0.01561 1.00193 0.0
O663 O 0.51084 0.04937 0.99171 0.0
C664 C 0.58517 0.05634 0.98804 0.0
O665 O 0.57454 0.06768 1.00303 0.0
O666 O 0.5664 0.02726 0.98242 0.0
C667 C 0.51347 0.02031 0.04626 0.0
Tb668 Tb 0.97509 0.51153 1.00308 0.0
C669 C 0.04004 0.55773 0.02129 0.0
Tb670 Tb 0.01841 0.48746 0.01066 0.0
O671 O 0.97934 0.52665 0.04081 0.0
O672 O 0.98741 0.49161 0.03004 0.0
O673 O 0.01779 0.55379 0.00677 0.0
C674 C 0.04773 0.46085 0.02713 0.0
O675 O 0.04205 0.53405 0.02836 0.0
C676 C 0.01517 0.50629 0.9684 0.0
C677 C 0.95276 0.43928 0.99194 0.0
O678 O 0.05869 0.48609 0.01661 0.0
O679 O 0.02021 0.45049 0.02822 0.0
O680 O 0.03738 0.50466 0.97704 0.0
O681 O 0.99594 0.49412 0.98227 0.0
O682 O 0.97905 0.44372 0.99849 0.0
O683 O 0.94654 0.462 0.99226 0.0
C684 C 0.94018 0.52889 0.98262 0.0
O685 O 0.93426 0.51216 1.00049 0.0
O686 O 0.96585 0.53615 0.97661 0.0
C687 C 0.9891 0.50896 0.04774 0.0
Tb688 Tb 0.46216 0.48364 0.00961 0.0
C689 C 0.4845 0.43762 0.99663 0.0
Tb690 Tb 0.52959 0.50987 0.00446 0.0
O691 O 0.45263 0.47252 0.97101 0.0
O692 O 0.49318 0.50781 0.98561 0.0
O693 O 0.46455 0.44162 0.00661 0.0
C694 C 0.57851 0.53085 0.98304 0.0
O695 O 0.51014 0.46088 0.99216 0.0
C696 C 0.51539 0.49552 0.04816 0.0
C697 C 0.50809 0.55525 0.02181 0.0
O698 O 0.55337 0.5074 0.975 0.0
O699 O 0.57622 0.54223 1.00343 0.0
O700 O 0.54171 0.50642 0.04191 0.0
O701 O 0.49983 0.49201 0.02956 0.0
O702 O 0.52773 0.55219 0.01025 0.0
O703 O 0.48234 0.5314 0.02552 0.0
C704 C 0.40959 0.46062 0.02514 0.0
O705 O 0.42212 0.48516 0.01365 0.0
O706 O 0.42682 0.44955 0.02796 0.0
C707 C 0.47899 0.49219 0.96661 0.0
Tb708 Tb 0.20272 0.36429 0.33871 0.0
C709 C 0.19007 0.29728 0.35079 0.0
Tb710 Tb 0.13938 0.31219 0.34234 0.0
O711 O 0.20553 0.38555 0.37453 0.0
O712 O 0.17763 0.3386 0.36519 0.0
O713 O 0.20841 0.32426 0.343 0.0
C714 C 0.08792 0.28036 0.35973 0.0
O715 O 0.16281 0.28928 0.35435 0.0
C716 C 0.15759 0.31668 0.29977 0.0
C717 C 0.15231 0.3798 0.33102 0.0
O718 O 0.09715 0.26984 0.34287 0.0
O719 O 0.10753 0.30886 0.36649 0.0
O720 O 0.13664 0.29116 0.30645 0.0
O721 O 0.16425 0.33797 0.31583 0.0
O722 O 0.13346 0.352 0.3374 0.0
O723 O 0.18016 0.38889 0.32904 0.0
C724 C 0.25327 0.39439 0.31963 0.0
O725 O 0.24791 0.40269 0.34 0.0
O726 O 0.23035 0.36923 0.31032 0.0
C727 C 0.18433 0.36008 0.3811 0.0
Tb728 Tb 0.64594 0.84606 0.33675 0.0
C729 C 0.71283 0.89921 0.34906 0.0
Tb730 Tb 0.69346 0.82853 0.34064 0.0
O731 O 0.63279 0.83145 0.37203 0.0
O732 O 0.67504 0.84688 0.36383 0.0
O733 O 0.68574 0.89183 0.3419 0.0
C734 C 0.72406 0.80429 0.3587 0.0
O735 O 0.72031 0.87784 0.35181 0.0
C736 C 0.68161 0.84085 0.2984 0.0
C737 C 0.62696 0.77563 0.32776 0.0
O738 O 0.7289 0.8182 0.33935 0.0
O739 O 0.702 0.8039 0.36753 0.0
O740 O 0.70661 0.84372 0.30534 0.0
O741 O 0.66449 0.82801 0.31379 0.0
O742 O 0.65363 0.78277 0.33606 0.0
O743 O 0.62009 0.79719 0.32367 0.0
C744 C 0.61543 0.87084 0.3197 0.0
O745 O 0.60771 0.85177 0.33607 0.0
O746 O 0.64013 0.87573 0.313 0.0
C747 C 0.65774 0.83445 0.37926 0.0
Tb748 Tb 0.13758 0.82323 0.34391 0.0
C749 C 0.15869 0.77713 0.32939 0.0
Tb750 Tb 0.20147 0.85031 0.33405 0.0
O751 O 0.12374 0.80859 0.30615 0.0
O752 O 0.16401 0.84743 0.31705 0.0
O753 O 0.13926 0.78073 0.34073 0.0
C754 C 0.25048 0.86698 0.31359 0.0
O755 O 0.18345 0.80092 0.32402 0.0
C756 C 0.1909 0.8438 0.37857 0.0
C757 C 0.18054 0.8964 0.34828 0.0
O758 O 0.22449 0.85289 0.30268 0.0
O759 O 0.24885 0.87165 0.33602 0.0
O760 O 0.21533 0.86491 0.3718 0.0
O761 O 0.17508 0.82594 0.3608 0.0
O762 O 0.19933 0.89247 0.33629 0.0
O763 O 0.15606 0.87277 0.35431 0.0
C764 C 0.08866 0.80607 0.36486 0.0
O765 O 0.09022 0.80278 0.34224 0.0
O766 O 0.11466 0.81921 0.37562 0.0
C767 C 0.14824 0.82948 0.2993 0.0
Tb768 Tb 0.87551 0.69891 0.67132 0.0
C769 C 0.85851 0.63551 0.69115 0.0
Tb770 Tb 0.81047 0.65334 0.67708 0.0
O771 O 0.88693 0.70521 0.70979 0.0
O772 O 0.84544 0.69341 0.69599 0.0
O773 O 0.87755 0.65827 0.67963 0.0
C774 C 0.76052 0.61892 0.696 0.0
O775 O 0.83229 0.63128 0.69421 0.0
C776 C 0.82413 0.65557 0.63313 0.0
C777 C 0.82745 0.71773 0.65887 0.0
O778 O 0.77389 0.60817 0.68363 0.0
O779 O 0.77505 0.64887 0.6973 0.0
O780 O 0.79762 0.64446 0.63877 0.0
O781 O 0.84029 0.65952 0.65169 0.0
O782 O 0.80773 0.69378 0.66911 0.0
O783 O 0.8541 0.72271 0.6565 0.0
C784 C 0.92712 0.73048 0.65411 0.0
O785 O 0.91569 0.74257 0.6676 0.0
O786 O 0.90934 0.70092 0.65026 0.0
C787 C 0.86067 0.69689 0.71488 0.0
Tb788 Tb 0.31587 0.18713 0.67262 0.0
C789 C 0.38349 0.23611 0.68578 0.0
Tb790 Tb 0.36126 0.16401 0.67554 0.0
O791 O 0.30161 0.17025 0.70723 0.0
O792 O 0.343 0.18267 0.69878 0.0
O793 O 0.35676 0.23118 0.68033 0.0
C794 C 0.39333 0.14168 0.69363 0.0
O795 O 0.38952 0.21336 0.68629 0.0
C796 C 0.3477 0.16993 0.63119 0.0
C797 C 0.29477 0.11656 0.66073 0.0
O798 O 0.40248 0.16462 0.68045 0.0
O799 O 0.36605 0.13122 0.69649 0.0
O800 O 0.36643 0.16145 0.63712 0.0
O801 O 0.33883 0.17463 0.65013 0.0
O802 O 0.31928 0.12102 0.67199 0.0
O803 O 0.29031 0.1397 0.65629 0.0
C804 C 0.28632 0.21458 0.65882 0.0
O805 O 0.27845 0.19399 0.674 0.0
O806 O 0.31084 0.21972 0.6515 0.0
C807 C 0.32538 0.17033 0.71396 0.0
Tb808 Tb 0.80064 0.15831 0.67444 0.0
C809 C 0.8185 0.11227 0.65408 0.0
Tb810 Tb 0.86471 0.18345 0.66533 0.0
O811 O 0.78676 0.15027 0.63634 0.0
O812 O 0.82859 0.18436 0.64908 0.0
O813 O 0.80165 0.11563 0.6689 0.0
C814 C 0.91423 0.19906 0.64592 0.0
O815 O 0.84201 0.13645 0.64746 0.0
C816 C 0.85238 0.17281 0.70922 0.0
C817 C 0.84701 0.23056 0.6857 0.0
O818 O 0.9023 0.17769 0.66027 0.0
O819 O 0.89855 0.21191 0.64293 0.0
O820 O 0.87774 0.19349 0.70352 0.0
O821 O 0.83666 0.15735 0.69061 0.0
O822 O 0.86698 0.22729 0.67494 0.0
O823 O 0.82049 0.20706 0.6879 0.0
C824 C 0.75178 0.1402 0.69556 0.0
O825 O 0.75312 0.13276 0.6736 0.0
O826 O 0.77795 0.15814 0.70553 0.0
C827 C 0.81232 0.16997 0.63043 0.0
C828 C 0.34574 0.87849 0.04083 0.0
C829 C 0.33759 0.893 0.05834 0.0
C830 C 0.37114 0.89533 0.02949 0.0
C831 C 0.38947 0.92734 0.03522 0.0
H832 H 0.33253 0.85379 0.036 0.0
H833 H 0.37657 0.88307 0.01629 0.0
S834 S 0.37781 0.97672 0.07923 0.0
N835 N 0.34967 0.94165 0.08026 0.0
N836 N 0.39767 0.97308 0.05938 0.0
C837 C 0.38165 0.94221 0.05263 0.0
C838 C 0.35571 0.9251 0.06411 0.0
C839 C 0.11108 0.45025 0.04611 0.0
C840 C 0.09779 0.42218 0.05666 0.0
C841 C 0.09463 0.46241 0.03646 0.0
C842 C 0.06428 0.447 0.03701 0.0
H843 H 0.13448 0.4632 0.04562 0.0
H844 H 0.10586 0.48422 0.0287 0.0
S845 S 0.01875 0.37208 0.06159 0.0
N846 N 0.05232 0.37871 0.06627 0.0
N847 N 0.02139 0.40184 0.04842 0.0
C848 C 0.05063 0.4188 0.04732 0.0
C849 C 0.06739 0.40635 0.0571 0.0
C850 C 0.54679 0.64296 0.03216 0.0
C851 C 0.53457 0.64787 0.05209 0.0
C852 C 0.53775 0.61293 0.02223 0.0
C853 C 0.51584 0.58674 0.03165 0.0
H854 H 0.56397 0.66246 0.02455 0.0
H855 H 0.54818 0.61026 0.00714 0.0
S856 S 0.47603 0.58755 0.08317 0.0
N857 N 0.49889 0.62444 0.08044 0.0
N858 N 0.48167 0.56801 0.0618 0.0
C859 C 0.50293 0.59149 0.05124 0.0
C860 C 0.51239 0.62205 0.06147 0.0
C861 C 0.91042 0.35214 0.97769 0.0
C862 C 0.89097 0.34809 0.95824 0.0
C863 C 0.93 0.38173 0.98887 0.0
C864 C 0.93031 0.40815 0.98129 0.0
H865 H 0.91102 0.33238 0.98388 0.0
H866 H 0.94515 0.38395 1.00342 0.0
S867 S 0.8829 0.40957 0.93156 0.0
N868 N 0.87264 0.37261 0.93216 0.0
N869 N 0.9091 0.4282 0.9533 0.0
C870 C 0.91038 0.40424 0.96223 0.0
C871 C 0.89082 0.37421 0.95064 0.0
C872 C 0.62893 0.53988 0.93557 0.0
C873 C 0.65631 0.5631 0.94624 0.0
C874 C 0.60383 0.52981 0.94755 0.0
C875 C 0.60519 0.54275 0.97057 0.0
H876 H 0.62703 0.52872 0.91813 0.0
H877 H 0.58327 0.51151 0.9388 0.0
S878 S 0.67118 0.60632 0.00533 0.0
N879 N 0.68298 0.60025 0.98043 0.0
N880 N 0.63584 0.58137 1.00294 0.0
C881 C 0.63223 0.56677 0.98107 0.0
C882 C 0.65779 0.57691 0.96892 0.0
C883 C 0.43476 0.07575 0.98027 0.0
C884 C 0.45056 0.09808 0.96485 0.0
C885 C 0.44595 0.05841 0.99035 0.0
C886 C 0.47357 0.06322 0.98569 0.0
H887 H 0.41333 0.07115 0.98408 0.0
H888 H 0.43267 0.04086 1.00163 0.0
S889 S 0.52432 0.12134 0.94784 0.0
N890 N 0.49543 0.12542 0.94625 0.0
N891 N 0.51701 0.09371 0.96546 0.0
C892 C 0.48997 0.08654 0.97095 0.0
C893 C 0.47832 0.10371 0.96045 0.0
C894 C 0.64666 0.07507 0.94924 0.0
C895 C 0.66378 0.10751 0.953 0.0
C896 C 0.6215 0.05868 0.96096 0.0
C897 C 0.61254 0.07413 0.97685 0.0
H898 H 0.65295 0.06222 0.93738 0.0
H899 H 0.60895 0.03371 0.95749 0.0
S900 S 0.64856 0.15905 0.99155 0.0
N901 N 0.66908 0.1546 0.97278 0.0
N902 N 0.6221 0.12378 0.995 0.0
C903 C 0.62925 0.10656 0.98057 0.0
C904 C 0.65478 0.12324 0.9686 0.0
C905 C 0.87898 0.54554 0.97043 0.0
C906 C 0.88117 0.5525 0.94664 0.0
C907 C 0.89805 0.53773 0.98195 0.0
C908 C 0.92032 0.53714 0.97024 0.0
H909 H 0.86259 0.54645 0.98036 0.0
H910 H 0.89559 0.53256 1.00026 0.0
S911 S 0.93417 0.55099 0.90753 0.0
N912 N 0.90621 0.5559 0.91133 0.0
N913 N 0.94288 0.5428 0.9334 0.0
C914 C 0.92274 0.54384 0.9465 0.0
C915 C 0.90298 0.55115 0.9346 0.0
C916 C 0.47918 0.37024 0.95837 0.0
C917 C 0.45711 0.34431 0.96783 0.0
C918 C 0.48891 0.40034 0.96853 0.0
C919 C 0.47661 0.40561 0.98831 0.0
H920 H 0.48877 0.36724 0.94283 0.0
H921 H 0.50539 0.41962 0.96022 0.0
S922 S 0.41877 0.34529 0.02016 0.0
N923 N 0.42379 0.32564 0.99843 0.0
N924 N 0.4419 0.38215 0.01753 0.0
C925 C 0.45497 0.37977 0.99826 0.0
C926 C 0.44528 0.34913 0.98804 0.0
C927 C 0.08743 0.64552 0.02983 0.0
C928 C 0.10232 0.65068 0.05235 0.0
C929 C 0.06735 0.61536 0.01979 0.0
C930 C 0.06195 0.58936 0.03173 0.0
H931 H 0.0909 0.66494 0.02015 0.0
H932 H 0.05604 0.61241 1.00254 0.0
S933 S 0.09615 0.59075 0.09097 0.0
N934 N 0.11079 0.62754 0.08612 0.0
N935 N 0.07348 0.57101 0.06732 0.0
C936 C 0.07716 0.59434 0.05412 0.0
C937 C 0.09722 0.62496 0.06441 0.0
C938 C 0.34036 0.45446 0.04531 0.0
C939 C 0.3283 0.42716 0.05691 0.0
C940 C 0.36648 0.46497 0.03473 0.0
C941 C 0.38143 0.44853 0.03538 0.0
H942 H 0.32973 0.46806 0.04469 0.0
H943 H 0.37518 0.48631 0.02628 0.0
S944 S 0.35821 0.37475 0.06229 0.0
N945 N 0.33265 0.38317 0.0674 0.0
N946 N 0.38187 0.40308 0.04787 0.0
C947 C 0.36945 0.421 0.04665 0.0
C948 C 0.34287 0.4103 0.05736 0.0
C949 C 0.51746 0.88871 0.04109 0.0
C950 C 0.54721 0.89876 0.0455 0.0
C951 C 0.50815 0.90726 0.03044 0.0
C952 C 0.52824 0.93649 0.02352 0.0
H953 H 0.50123 0.86664 0.04648 0.0
H954 H 0.485 0.89876 0.02803 0.0
S955 S 0.60879 0.97211 0.02954 0.0
N956 N 0.59672 0.93876 0.04106 0.0
N957 N 0.57955 0.97372 0.02086 0.0
C958 C 0.55814 0.94627 0.02711 0.0
C959 C 0.56754 0.92744 0.03819 0.0
C960 C 0.02622 0.26134 0.39832 0.0
C961 C 0.00745 0.22937 0.39249 0.0
C962 C 0.05211 0.27764 0.3875 0.0
C963 C 0.06019 0.26261 0.37044 0.0
H964 H 0.02069 0.27393 0.41114 0.0
H965 H 0.06587 0.30225 0.39253 0.0
S966 S 0.01971 0.17882 0.35011 0.0
N967 N 0.99962 0.18299 0.36946 0.0
N968 N 0.04794 0.21377 0.34884 0.0
C969 C 0.04181 0.23064 0.36461 0.0
C970 C 0.01554 0.214 0.3757 0.0
C971 C 0.77804 0.7765 0.36695 0.0
C972 C 0.77629 0.76943 0.39072 0.0
C973 C 0.76105 0.78774 0.35666 0.0
C974 C 0.74144 0.79197 0.36966 0.0
H975 H 0.79264 0.77327 0.35617 0.0
H976 H 0.76321 0.79301 0.33836 0.0
S977 S 0.72939 0.77834 0.43272 0.0
N978 N 0.75422 0.76893 0.42723 0.0
N979 N 0.72147 0.78878 0.4076 0.0
C980 C 0.73929 0.78485 0.39335 0.0
C981 C 0.75688 0.77386 0.40395 0.0
C982 C 0.18618 0.96285 0.38773 0.0
C983 C 0.20738 0.98903 0.37793 0.0
C984 C 0.1766 0.93298 0.37728 0.0
C985 C 0.18818 0.9282 0.35683 0.0
H986 H 0.17715 0.9655 0.40375 0.0
H987 H 0.16083 0.9135 0.38588 0.0
S988 S 0.24352 0.98938 0.32388 0.0
N989 N 0.23908 0.00855 0.34632 0.0
N990 N 0.2212 0.95235 0.32662 0.0
C991 C 0.20891 0.95428 0.34652 0.0
C992 C 0.21846 0.98472 0.35708 0.0
C993 C 0.56745 0.70643 0.28897 0.0
C994 C 0.56846 0.6814 0.29796 0.0
C995 C 0.58565 0.73672 0.29939 0.0
C996 C 0.6059 0.74311 0.31894 0.0
H997 H 0.55254 0.70255 0.27368 0.0
H998 H 0.58449 0.75533 0.29154 0.0
S999 S 0.61645 0.68532 0.34942 0.0
N1000 N 0.59052 0.66459 0.32783 0.0
N1001 N 0.62525 0.72167 0.34727 0.0
C1002 C 0.60681 0.71815 0.32829 0.0
C1003 C 0.58793 0.68724 0.31787 0.0
C1004 C 0.3307 0.90851 0.30492 0.0
C1005 C 0.33115 0.898 0.28154 0.0
C1006 C 0.30445 0.89818 0.31515 0.0
C1007 C 0.27771 0.87706 0.30234 0.0
H1008 H 0.35081 0.92506 0.31533 0.0
H1009 H 0.30514 0.90704 0.33316 0.0
S1010 S 0.26718 0.84055 0.24125 0.0
N1011 N 0.30272 0.86393 0.24635 0.0
N1012 N 0.25323 0.84484 0.26547 0.0
C1013 C 0.2778 0.8661 0.27904 0.0
C1014 C 0.30457 0.87652 0.26865 0.0
C1015 C 0.15178 0.44902 0.30782 0.0
C1016 C 0.12278 0.43662 0.29836 0.0
C1017 C 0.16083 0.43075 0.3192 0.0
C1018 C 0.14115 0.39944 0.32184 0.0
H1019 H 0.16781 0.47286 0.30586 0.0
H1020 H 0.18359 0.44117 0.32559 0.0
S1021 S 0.06221 0.35658 0.30138 0.0
N1022 N 0.07408 0.39174 0.29323 0.0
N1023 N 0.09084 0.3572 0.3147 0.0
C1024 C 0.11179 0.38704 0.31311 0.0
C1025 C 0.10269 0.40565 0.30128 0.0
C1026 C 0.33295 0.44837 0.31174 0.0
C1027 C 0.33438 0.44336 0.28727 0.0
C1028 C 0.30662 0.43261 0.32209 0.0
C1029 C 0.28079 0.41094 0.30843 0.0
H1030 H 0.35239 0.46449 0.32307 0.0
H1031 H 0.30658 0.43721 0.34095 0.0
S1032 S 0.27214 0.39047 0.24351 0.0
N1033 N 0.30703 0.41627 0.24952 0.0
N1034 N 0.25793 0.38574 0.26914 0.0
C1035 C 0.28181 0.40561 0.284 0.0
C1036 C 0.3085 0.42201 0.27339 0.0
C1037 C 0.55234 0.88306 0.3032 0.0
C1038 C 0.56466 0.90823 0.28926 0.0
C1039 C 0.56903 0.87141 0.31334 0.0
C1040 C 0.59857 0.8843 0.30972 0.0
H1041 H 0.52944 0.87184 0.30593 0.0
H1042 H 0.55856 0.85178 0.32368 0.0
S1043 S 0.64194 0.952 0.27643 0.0
N1044 N 0.60883 0.94701 0.27386 0.0
N1045 N 0.63994 0.92448 0.29231 0.0
C1046 C 0.61134 0.90975 0.2962 0.0
C1047 C 0.59444 0.92185 0.2861 0.0
C1048 C 0.11437 0.69259 0.30609 0.0
C1049 C 0.13562 0.68611 0.2987 0.0
C1050 C 0.12221 0.7217 0.31717 0.0
C1051 C 0.15154 0.7455 0.32085 0.0
H1052 H 0.09152 0.67511 0.30304 0.0
H1053 H 0.10501 0.72589 0.32199 0.0
S1054 S 0.21539 0.73956 0.30508 0.0
N1055 N 0.18706 0.7051 0.29626 0.0
N1056 N 0.20198 0.76008 0.31684 0.0
C1057 C 0.17303 0.73898 0.31392 0.0
C1058 C 0.16502 0.7092 0.30291 0.0
C1059 C 0.78332 0.96959 0.37601 0.0
C1060 C 0.77514 0.99187 0.38058 0.0
C1061 C 0.76332 0.94011 0.36494 0.0
C1062 C 0.7344 0.93185 0.3578 0.0
H1063 H 0.8051 0.97463 0.38176 0.0
H1064 H 0.77049 0.92347 0.36253 0.0
S1065 S 0.70327 0.98353 0.36363 0.0
N1066 N 0.73713 0.00487 0.37572 0.0
N1067 N 0.6994 0.94965 0.3547 0.0
C1068 C 0.7264 0.9546 0.36131 0.0
C1069 C 0.74677 0.98452 0.37281 0.0
C1070 C 0.00843 0.76455 0.37405 0.0
C1071 C 0.00824 0.77394 0.39784 0.0
C1072 C 0.03457 0.77516 0.36354 0.0
C1073 C 0.0615 0.79546 0.37644 0.0
H1074 H 0.98818 0.74877 0.36348 0.0
H1075 H 0.03364 0.76723 0.34519 0.0
S1076 S 0.0728 0.82881 0.43869 0.0
N1077 N 0.0372 0.80601 0.4336 0.0
N1078 N 0.08643 0.82554 0.41397 0.0
C1079 C 0.06168 0.80516 0.4002 0.0
C1080 C 0.03503 0.79447 0.41088 0.0
C1081 C 0.19125 0.22821 0.37365 0.0
C1082 C 0.22095 0.2398 0.38024 0.0
C1083 C 0.18162 0.24671 0.36347 0.0
C1084 C 0.20134 0.27743 0.35924 0.0
H1085 H 0.17524 0.20487 0.37692 0.0
H1086 H 0.15845 0.23692 0.3592 0.0
S1087 S 0.28177 0.31793 0.372 0.0
N1088 N 0.2702 0.28317 0.38092 0.0
N1089 N 0.25232 0.31815 0.3617 0.0
C1090 C 0.23128 0.28897 0.3651 0.0
C1091 C 0.24101 0.27014 0.37569 0.0
C1092 C 0.70216 0.55189 0.72488 0.0
C1093 C 0.68579 0.56426 0.73425 0.0
C1094 C 0.72606 0.56959 0.71222 0.0
C1095 C 0.73452 0.60034 0.70851 0.0
H1096 H 0.69647 0.52831 0.7274 0.0
H1097 H 0.73817 0.55921 0.70553 0.0
S1098 S 0.69792 0.64304 0.72799 0.0
N1099 N 0.67905 0.60877 0.73801 0.0
N1100 N 0.72406 0.64208 0.71432 0.0
C1101 C 0.71829 0.61296 0.71761 0.0
C1102 C 0.69394 0.59494 0.7305 0.0
C1103 C 0.41441 0.09003 0.72515 0.0
C1104 C 0.4449 0.10591 0.72527 0.0
C1105 C 0.39789 0.10185 0.71494 0.0
C1106 C 0.41127 0.1299 0.70441 0.0
H1107 H 0.4032 0.06806 0.73269 0.0
H1108 H 0.37445 0.08874 0.71508 0.0
S1109 S 0.49055 0.18189 0.70209 0.0
N1110 N 0.48793 0.15229 0.71549 0.0
N1111 N 0.45682 0.17417 0.69592 0.0
C1112 C 0.44173 0.14632 0.70481 0.0
C1113 C 0.45856 0.13441 0.71532 0.0
C1114 C 0.88449 0.31801 0.69766 0.0
C1115 C 0.87364 0.32191 0.71882 0.0
C1116 C 0.87559 0.28837 0.68688 0.0
C1117 C 0.85504 0.26162 0.69661 0.0
H1118 H 0.90048 0.33803 0.68969 0.0
H1119 H 0.88487 0.28639 0.67082 0.0
S1120 S 0.81965 0.25944 0.75161 0.0
N1121 N 0.8411 0.29669 0.74898 0.0
N1122 N 0.82403 0.24102 0.72862 0.0
C1123 C 0.84364 0.26527 0.71755 0.0
C1124 C 0.85305 0.2954 0.72869 0.0
C1125 C 0.25419 0.0289 0.64935 0.0
C1126 C 0.23564 0.02336 0.62886 0.0
C1127 C 0.27274 0.0591 0.65995 0.0
C1128 C 0.27296 0.08471 0.65067 0.0
H1129 H 0.25495 0.00985 0.65683 0.0
H1130 H 0.28725 0.06239 0.67537 0.0
S1131 S 0.22676 0.08178 0.59799 0.0
N1132 N 0.21747 0.04534 0.60021 0.0
N1133 N 0.25188 0.10201 0.62017 0.0
C1134 C 0.25363 0.07917 0.63062 0.0
C1135 C 0.23511 0.04852 0.61968 0.0
C1136 C 0.98005 0.24304 0.61193 0.0
C1137 C 0.99272 0.22425 0.61164 0.0
C1138 C 0.95457 0.2346 0.62299 0.0
C1139 C 0.94089 0.20713 0.63425 0.0
H1140 H 0.99028 0.26481 0.60404 0.0
H1141 H 0.9458 0.24998 0.62305 0.0
S1142 S 0.96355 0.14833 0.63644 0.0
N1143 N 0.98834 0.17572 0.62201 0.0
N1144 N 0.94074 0.16019 0.64317 0.0
C1145 C 0.95288 0.18776 0.63363 0.0
C1146 C 0.97871 0.19623 0.62223 0.0
C1147 C 0.78001 0.74865 0.63461 0.0
C1148 C 0.80014 0.77665 0.62617 0.0
C1149 C 0.78915 0.73021 0.64567 0.0
C1150 C 0.81878 0.73887 0.64848 0.0
H1151 H 0.757 0.74101 0.63275 0.0
H1152 H 0.7727 0.70873 0.65168 0.0
S1153 S 0.88007 0.81014 0.62889 0.0
N1154 N 0.85085 0.81223 0.62108 0.0
N1155 N 0.86824 0.77772 0.64173 0.0
C1156 C 0.83915 0.76698 0.64008 0.0
C1157 C 0.82978 0.78583 0.62899 0.0
C1158 C 0.99606 0.79689 0.63486 0.0
C1159 C 0.00651 0.78172 0.6202 0.0
C1160 C 0.97051 0.78016 0.64599 0.0
C1161 C 0.95452 0.74767 0.6429 0.0
H1162 H 0.00758 0.82193 0.63758 0.0
H1163 H 0.96314 0.7928 0.65693 0.0
S1164 S 0.97304 0.69683 0.60701 0.0
N1165 N 0.99929 0.73229 0.6038 0.0
N1166 N 0.95109 0.70085 0.62441 0.0
C1167 C 0.96475 0.73219 0.62837 0.0
C1168 C 0.99076 0.74921 0.61707 0.0
C1169 C 0.25582 0.24926 0.61636 0.0
C1170 C 0.23154 0.24647 0.62712 0.0
C1171 C 0.27414 0.24004 0.62725 0.0
C1172 C 0.26856 0.22718 0.64909 0.0
H1173 H 0.26021 0.25765 0.59902 0.0
H1174 H 0.29215 0.24194 0.61804 0.0
S1175 S 0.21038 0.21871 0.6862 0.0
N1176 N 0.2051 0.23331 0.66231 0.0
N1177 N 0.23874 0.21459 0.68212 0.0
C1178 C 0.24514 0.22534 0.6605 0.0
C1179 C 0.2268 0.23529 0.64967 0.0
C1180 C 0.77318 0.02623 0.63462 0.0
C1181 C 0.79323 0.01965 0.62459 0.0
C1182 C 0.7817 0.05613 0.64448 0.0
C1183 C 0.8105 0.08068 0.64433 0.0
H1184 H 0.75076 0.00805 0.63496 0.0
H1185 H 0.76542 0.06008 0.65191 0.0
S1186 S 0.87122 0.07535 0.61981 0.0
N1187 N 0.84301 0.03985 0.61495 0.0
N1188 N 0.85912 0.09617 0.63325 0.0
C1189 C 0.83076 0.07434 0.63427 0.0
C1190 C 0.82211 0.04379 0.62449 0.0
C1191 C 0.4203 0.32043 0.71037 0.0
C1192 C 0.44894 0.3277 0.71702 0.0
C1193 C 0.39965 0.2912 0.69933 0.0
C1194 C 0.40677 0.26796 0.69475 0.0
H1195 H 0.41372 0.33739 0.71399 0.0
H1196 H 0.37773 0.28663 0.69504 0.0
S1197 S 0.47941 0.27602 0.70835 0.0
N1198 N 0.48377 0.30991 0.71792 0.0
N1199 N 0.44519 0.25497 0.69708 0.0
C1200 C 0.4357 0.27535 0.70079 0.0
C1201 C 0.45671 0.3052 0.71195 0.0
C1202 C 0.67232 0.09379 0.70641 0.0
C1203 C 0.67172 0.10579 0.72922 0.0
C1204 C 0.69836 0.10513 0.69569 0.0
C1205 C 0.72476 0.12888 0.7074 0.0
H1206 H 0.65246 0.07543 0.69676 0.0
H1207 H 0.69777 0.09513 0.67811 0.0
S1208 S 0.73466 0.16952 0.76675 0.0
N1209 N 0.69957 0.14362 0.76279 0.0
N1210 N 0.7487 0.16473 0.74276 0.0
C1211 C 0.72454 0.14115 0.73021 0.0
C1212 C 0.69797 0.12963 0.74111 0.0
C1213 C 0.85371 0.56577 0.71878 0.0
C1214 C 0.88306 0.57427 0.72358 0.0
C1215 C 0.84597 0.58569 0.70831 0.0
C1216 C 0.86728 0.61466 0.70187 0.0
H1217 H 0.83662 0.54371 0.72345 0.0
H1218 H 0.82307 0.57819 0.70513 0.0
S1219 S 0.94732 0.64738 0.71038 0.0
N1220 N 0.93351 0.61326 0.72091 0.0
N1221 N 0.91918 0.65071 0.70121 0.0
C1222 C 0.89676 0.62327 0.70645 0.0
C1223 C 0.90458 0.6031 0.71732 0.0
C1224 C 0.51259 0.03372 0.11276 0.0
C1225 C 0.49257 0.00403 0.11879 0.0
C1226 C 0.51853 0.03906 0.08909 0.0
C1227 C 0.5051 0.01475 0.07079 0.0
H1228 H 0.52388 0.05282 0.12645 0.0
H1229 H 0.53426 0.06222 0.08521 0.0
S1230 S 0.45191 0.93243 0.0779 0.0
N1231 N 0.45952 0.95011 0.1049 0.0
N1232 N 0.47134 0.95965 0.06077 0.0
C1233 C 0.485 0.98497 0.07677 0.0
C1234 C 0.4786 0.97973 0.1007 0.0
C1235 C 0.02557 0.4932 0.10039 0.0
C1236 C 0.03076 0.51698 0.11777 0.0
C1237 C 0.01178 0.49048 0.07784 0.0
C1238 C 0.00271 0.51141 0.07184 0.0
H1239 H 0.03262 0.47687 0.10411 0.0
H1240 H 0.00822 0.47187 0.06505 0.0
S1241 S 0.00958 0.57664 0.11141 0.0
N1242 N 0.02417 0.56077 0.1278 0.0
N1243 N 0.99908 0.55612 0.08537 0.0
C1244 C 0.00729 0.53491 0.08919 0.0
C1245 C 0.02114 0.53761 0.11213 0.0
C1246 C 0.52129 0.4957 0.1153 0.0
C1247 C 0.49633 0.49609 0.12173 0.0
C1248 C 0.52669 0.4945 0.09139 0.0
C1249 C 0.50744 0.49376 0.073 0.0
H1250 H 0.53692 0.49673 0.12887 0.0
H1251 H 0.5464 0.49469 0.08731 0.0
S1252 S 0.44005 0.49654 0.0808 0.0
N1253 N 0.45281 0.49676 0.10797 0.0
N1254 N 0.46304 0.4948 0.0633 0.0
C1255 C 0.4824 0.49403 0.0793 0.0
C1256 C 0.47684 0.49512 0.10358 0.0
C1257 C 0.97199 0.50016 0.91109 0.0
C1258 C 0.99212 0.50718 0.89418 0.0
C1259 C 0.97997 0.50065 0.93507 0.0
C1260 C 0.00855 0.50872 0.94318 0.0
H1261 H 0.94958 0.49313 0.9056 0.0
H1262 H 0.96325 0.49362 0.94718 0.0
S1263 S 0.06973 0.53025 0.90593 0.0
N1264 N 0.04192 0.52295 0.88697 0.0
N1265 N 0.05727 0.52471 0.93232 0.0
C1266 C 0.02912 0.51652 0.92649 0.0
C1267 C 0.02081 0.51553 0.90192 0.0
C1268 C 0.48843 0.46606 0.90561 0.0
C1269 C 0.51324 0.49233 0.89903 0.0
C1270 C 0.47754 0.46637 0.92745 0.0
C1271 C 0.49117 0.49282 0.94375 0.0
H1272 H 0.47728 0.44497 0.89375 0.0
H1273 H 0.45842 0.44557 0.93168 0.0
S1274 S 0.55643 0.56782 0.93536 0.0
N1275 N 0.55093 0.54574 0.9107 0.0
N1276 N 0.53054 0.54611 0.95196 0.0
C1277 C 0.51612 0.51918 0.93765 0.0
C1278 C 0.5272 0.51895 0.91529 0.0
C1279 C 0.48674 0.96657 0.8969 0.0
C1280 C 0.50806 0.99587 0.89115 0.0
C1281 C 0.48094 0.96096 0.92057 0.0
C1282 C 0.49579 0.98467 0.93919 0.0
H1283 H 0.47436 0.94798 0.88299 0.0
H1284 H 0.46421 0.93813 0.92422 0.0
S1285 S 0.55296 0.0658 0.93291 0.0
N1286 N 0.54397 0.04872 0.90565 0.0
N1287 N 0.53238 0.03882 0.94978 0.0
C1288 C 0.51715 0.01405 0.93347 0.0
C1289 C 0.52344 0.0195 0.90953 0.0
C1290 C 0.14815 0.31737 0.43356 0.0
C1291 C 0.16148 0.34022 0.4528 0.0
C1292 C 0.15536 0.32431 0.41046 0.0
C1293 C 0.17581 0.3545 0.40557 0.0
H1294 H 0.13276 0.29366 0.43649 0.0
H1295 H 0.1453 0.30558 0.39642 0.0
S1296 S 0.21547 0.42309 0.44966 0.0
N1297 N 0.19527 0.39446 0.46552 0.0
N1298 N 0.2084 0.40775 0.42189 0.0
C1299 C 0.18865 0.37781 0.42457 0.0
C1300 C 0.1816 0.37061 0.44823 0.0
C1301 C 0.65436 0.82129 0.44467 0.0
C1302 C 0.68372 0.83317 0.45281 0.0
C1303 C 0.64604 0.821 0.42068 0.0
C1304 C 0.66685 0.83309 0.40414 0.0
H1305 H 0.63781 0.81242 0.45698 0.0
H1306 H 0.6232 0.81177 0.41515 0.0
S1307 S 0.74686 0.86858 0.41721 0.0
N1308 N 0.73364 0.85777 0.44285 0.0
N1309 N 0.71838 0.85834 0.39812 0.0
C1310 C 0.69633 0.84513 0.41224 0.0
C1311 C 0.70467 0.84491 0.43649 0.0
C1312 C 0.18733 0.87341 0.44026 0.0
C1313 C 0.16657 0.84665 0.44994 0.0
C1314 C 0.19496 0.8721 0.41721 0.0
C1315 C 0.18181 0.84409 0.40265 0.0
H1316 H 0.19783 0.89573 0.45057 0.0
H1317 H 0.21114 0.89333 0.41066 0.0
S1318 S 0.126 0.76734 0.41886 0.0
N1319 N 0.13303 0.79106 0.44285 0.0
N1320 N 0.14686 0.78897 0.39913 0.0
C1321 C 0.16061 0.81722 0.41172 0.0
C1322 C 0.15304 0.81842 0.43541 0.0
C1323 C 0.631 0.82689 0.24379 0.0
C1324 C 0.64991 0.83824 0.22591 0.0
C1325 C 0.64169 0.82915 0.26734 0.0
C1326 C 0.6717 0.84236 0.27386 0.0
H1327 H 0.60767 0.81549 0.23942 0.0
H1328 H 0.62612 0.81945 0.28034 0.0
S1329 S 0.73036 0.87718 0.23378 0.0
N1330 N 0.70005 0.86468 0.21631 0.0
N1331 N 0.72028 0.86855 0.26066 0.0
C1332 C 0.69094 0.85483 0.25628 0.0
C1333 C 0.68 0.85286 0.23227 0.0
C1334 C 0.18633 0.85256 0.24288 0.0
C1335 C 0.17643 0.82374 0.22989 0.0
C1336 C 0.17762 0.85436 0.26562 0.0
C1337 C 0.15847 0.82745 0.27594 0.0
H1338 H 0.20016 0.87384 0.23516 0.0
H1339 H 0.18527 0.87694 0.2749 0.0
S1340 S 0.13048 0.74649 0.25123 0.0
N1341 N 0.14975 0.76775 0.23066 0.0
N1342 N 0.13248 0.77126 0.27268 0.0
C1343 C 0.1495 0.79859 0.26363 0.0
C1344 C 0.15875 0.79671 0.2408 0.0
C1345 C 0.16021 0.30093 0.23384 0.0
C1346 C 0.17502 0.33085 0.22638 0.0
C1347 C 0.15529 0.29651 0.25779 0.0
C1348 C 0.16473 0.32188 0.27491 0.0
H1349 H 0.15213 0.28089 0.22106 0.0
H1350 H 0.14361 0.27309 0.26285 0.0
S1351 S 0.20321 0.40489 0.26353 0.0
N1352 N 0.19858 0.38602 0.23742 0.0
N1353 N 0.18882 0.37805 0.28211 0.0
C1354 C 0.17955 0.35192 0.26742 0.0
C1355 C 0.1848 0.35631 0.2432 0.0
C1356 C 0.85102 0.66032 0.77275 0.0
C1357 C 0.82549 0.65879 0.78005 0.0
C1358 C 0.86261 0.6734 0.75196 0.0
C1359 C 0.84919 0.68553 0.73761 0.0
H1360 H 0.86224 0.65131 0.78317 0.0
H1361 H 0.88188 0.67335 0.74684 0.0
S1362 S 0.78394 0.69041 0.74965 0.0
N1363 N 0.78799 0.67204 0.7715 0.0
N1364 N 0.81077 0.69794 0.73301 0.0
C1365 C 0.8244 0.68532 0.74501 0.0
C1366 C 0.81236 0.67172 0.7661 0.0
C1367 C 0.32183 0.15854 0.77953 0.0
C1368 C 0.35058 0.16693 0.78723 0.0
C1369 C 0.31357 0.15851 0.75559 0.0
C1370 C 0.33389 0.16738 0.73859 0.0
H1371 H 0.30574 0.15238 0.79219 0.0
H1372 H 0.29129 0.1523 0.75051 0.0
S1373 S 0.41218 0.19219 0.75005 0.0
N1374 N 0.39934 0.18422 0.77615 0.0
N1375 N 0.38422 0.18514 0.73142 0.0
C1376 C 0.36266 0.17551 0.74612 0.0
C1377 C 0.37091 0.17506 0.77038 0.0
C1378 C 0.84691 0.20073 0.771 0.0
C1379 C 0.82366 0.17435 0.77918 0.0
C1380 C 0.85605 0.19982 0.74846 0.0
C1381 C 0.84198 0.1727 0.73287 0.0
H1382 H 0.85825 0.22246 0.78211 0.0
H1383 H 0.87409 0.22074 0.74312 0.0
S1384 S 0.77951 0.09743 0.74479 0.0
N1385 N 0.78664 0.12015 0.76942 0.0
N1386 N 0.80329 0.11896 0.72664 0.0
C1387 C 0.81826 0.14634 0.74036 0.0
C1388 C 0.80915 0.14707 0.76355 0.0
C1389 C 0.34487 0.16886 0.56429 0.0
C1390 C 0.31905 0.16894 0.55793 0.0
C1391 C 0.35421 0.17012 0.58811 0.0
C1392 C 0.3381 0.17145 0.60652 0.0
H1393 H 0.35776 0.16739 0.55071 0.0
H1394 H 0.37402 0.16953 0.59209 0.0
S1395 S 0.26836 0.17119 0.59905 0.0
N1396 N 0.27727 0.17002 0.57178 0.0
N1397 N 0.29474 0.17229 0.6165 0.0
C1398 C 0.31243 0.17196 0.60037 0.0
C1399 C 0.30294 0.17075 0.57609 0.0
C1400 C 0.81705 0.13919 0.56942 0.0
C1401 C 0.84247 0.16382 0.5619 0.0
C1402 C 0.80719 0.14175 0.59134 0.0
C1403 C 0.8222 0.16908 0.60668 0.0
H1404 H 0.80451 0.11762 0.55826 0.0
H1405 H 0.78792 0.12186 0.59648 0.0
S1406 S 0.88812 0.2415 0.59493 0.0
N1407 N 0.88185 0.21707 0.5716 0.0
N1408 N 0.86203 0.22227 0.61214 0.0
C1409 C 0.84689 0.19433 0.59917 0.0
C1410 C 0.85729 0.19165 0.57694 0.0
C1411 C 0.81893 0.64174 0.56605 0.0
C1412 C 0.84324 0.66864 0.55976 0.0
C1413 C 0.81358 0.63736 0.58994 0.0
C1414 C 0.83237 0.65959 0.60841 0.0
H1415 H 0.80375 0.62419 0.55239 0.0
H1416 H 0.79433 0.61655 0.59397 0.0
S1417 S 0.8967 0.73586 0.60078 0.0
N1418 N 0.88484 0.7188 0.57362 0.0
N1419 N 0.87478 0.71065 0.61819 0.0
C1420 C 0.85657 0.68663 0.6022 0.0
C1421 C 0.86199 0.69112 0.57796 0.0
loop_
_geom_bond_atom_site_label_1
_geom_bond_atom_site_label_2
_geom_bond_distance
_geom_bond_site_symmetry_2
_ccdc_geom_bond_type
C0 C1 1.384 . S
C0 H13 0.947 . S
C0 C35 1.382 . S
C1 C0 1.384 . S
C1 C2 1.378 . S
C2 C1 1.378 . S
C2 C3 1.378 . S
C2 H14 0.952 . S
C3 C2 1.378 . S
C3 H15 0.950 . S
C3 C34 1.383 . S
H4 C23 0.947 . S
H5 C24 0.946 . S
H6 C26 0.953 . S
H7 C27 0.945 . S
H8 C29 0.952 . S
H9 C30 0.949 . S
H10 C32 0.950 . S
H11 C33 0.948 . S
H12 C35 0.951 . S
H13 C0 0.947 . S
H14 C2 0.952 . S
H15 C3 0.950 . S
N16 C19 1.382 . S
N16 C21 1.363 . S
N17 C19 1.371 . S
N17 C20 1.372 . S
N18 C20 1.361 . S
N18 C21 1.377 . S
C19 N16 1.382 . S
C19 N17 1.371 . S
C19 C22 1.480 . S
C20 N17 1.372 . S
C20 N18 1.361 . S
C20 C28 1.457 . S
C21 N16 1.363 . S
C21 N18 1.377 . S
C21 C34 1.479 . S
C22 C19 1.480 . S
C22 C23 1.383 . S
C22 C27 1.385 . S
C23 H4 0.947 . S
C23 C22 1.383 . S
C23 C24 1.388 . S
C24 H5 0.946 . S
C24 C23 1.388 . S
C24 C25 1.384 . S
C25 C24 1.384 . S
C25 C26 1.377 . S
C26 H6 0.953 . S
C26 C25 1.377 . S
C26 C27 1.369 . S
C27 H7 0.945 . S
C27 C22 1.385 . S
C27 C26 1.369 . S
C28 C20 1.457 . S
C28 C29 1.372 . S
C28 C33 1.364 . S
C29 H8 0.952 . S
C29 C28 1.372 . S
C29 C30 1.389 . S
C30 H9 0.949 . S
C30 C29 1.389 . S
C30 C31 1.387 . S
C31 C30 1.387 . S
C31 C32 1.372 . S
C32 H10 0.950 . S
C32 C31 1.372 . S
C32 C33 1.379 . S
C33 H11 0.948 . S
C33 C28 1.364 . S
C33 C32 1.379 . S
C34 C3 1.383 . S
C34 C21 1.479 . S
C34 C35 1.398 . S
C35 C0 1.382 . S
C35 H12 0.951 . S
C35 C34 1.398 . S
C36 C37 1.384 . S
C36 H49 0.947 . S
C36 C71 1.382 . S
C37 C36 1.384 . S
C37 C38 1.378 . S
C38 C37 1.378 . S
C38 C39 1.378 . S
C38 H50 0.952 . S
C39 C38 1.378 . S
C39 H51 0.950 . S
C39 C70 1.383 . S
H40 C59 0.947 . S
H41 C60 0.946 . S
H42 C62 0.953 . S
H43 C63 0.945 . S
H44 C65 0.952 . S
H45 C66 0.949 . S
H46 C68 0.950 . S
H47 C69 0.948 . S
H48 C71 0.951 . S
H49 C36 0.947 . S
H50 C38 0.952 . S
H51 C39 0.950 . S
N52 C55 1.382 . S
N52 C57 1.363 . S
N53 C55 1.371 . S
N53 C56 1.372 . S
N54 C56 1.361 . S
N54 C57 1.377 . S
C55 N52 1.382 . S
C55 N53 1.371 . S
C55 C58 1.480 . S
C56 N53 1.372 . S
C56 N54 1.361 . S
C56 C64 1.457 . S
C57 N52 1.363 . S
C57 N54 1.377 . S
C57 C70 1.479 . S
C58 C55 1.480 . S
C58 C59 1.383 . S
C58 C63 1.385 . S
C59 H40 0.947 . S
C59 C58 1.383 . S
C59 C60 1.388 . S
C60 H41 0.946 . S
C60 C59 1.388 . S
C60 C61 1.384 . S
C61 C60 1.384 . S
C61 C62 1.377 . S
C62 H42 0.953 . S
C62 C61 1.377 . S
C62 C63 1.369 . S
C63 H43 0.945 . S
C63 C58 1.385 . S
C63 C62 1.369 . S
C64 C56 1.457 . S
C64 C65 1.372 . S
C64 C69 1.364 . S
C65 H44 0.952 . S
C65 C64 1.372 . S
C65 C66 1.389 . S
C66 H45 0.949 . S
C66 C65 1.389 . S
C66 C67 1.387 . S
C67 C66 1.387 . S
C67 C68 1.372 . S
C68 H46 0.950 . S
C68 C67 1.372 . S
C68 C69 1.379 . S
C69 H47 0.948 . S
C69 C64 1.364 . S
C69 C68 1.379 . S
C70 C39 1.383 . S
C70 C57 1.479 . S
C70 C71 1.398 . S
C71 C36 1.382 . S
C71 H48 0.951 . S
C71 C70 1.398 . S
C72 C73 1.384 . S
C72 H85 0.947 . S
C72 C107 1.382 . S
C73 C72 1.384 . S
C73 C74 1.378 . S
C74 C73 1.378 . S
C74 C75 1.378 . S
C74 H86 0.952 . S
C75 C74 1.378 . S
C75 H87 0.950 . S
C75 C106 1.383 . S
H76 C95 0.947 . S
H77 C96 0.946 . S
H78 C98 0.953 . S
H79 C99 0.945 . S
H80 C101 0.952 . S
H81 C102 0.949 . S
H82 C104 0.950 . S
H83 C105 0.948 . S
H84 C107 0.951 . S
H85 C72 0.947 . S
H86 C74 0.952 . S
H87 C75 0.950 . S
N88 C91 1.382 . S
N88 C93 1.363 . S
N89 C91 1.371 . S
N89 C92 1.372 . S
N90 C92 1.361 . S
N90 C93 1.377 . S
C91 N88 1.382 . S
C91 N89 1.371 . S
C91 C94 1.480 . S
C92 N89 1.372 . S
C92 N90 1.361 . S
C92 C100 1.457 . S
C93 N88 1.363 . S
C93 N90 1.377 . S
C93 C106 1.479 . S
C94 C91 1.480 . S
C94 C95 1.383 . S
C94 C99 1.385 . S
C95 H76 0.947 . S
C95 C94 1.383 . S
C95 C96 1.388 . S
C96 H77 0.946 . S
C96 C95 1.388 . S
C96 C97 1.384 . S
C97 C96 1.384 . S
C97 C98 1.377 . S
C98 H78 0.953 . S
C98 C97 1.377 . S
C98 C99 1.369 . S
C99 H79 0.945 . S
C99 C94 1.385 . S
C99 C98 1.369 . S
C100 C92 1.457 . S
C100 C101 1.372 . S
C100 C105 1.364 . S
C101 H80 0.952 . S
C101 C100 1.372 . S
C101 C102 1.389 . S
C102 H81 0.949 . S
C102 C101 1.389 . S
C102 C103 1.387 . S
C103 C102 1.387 . S
C103 C104 1.372 . S
C104 H82 0.950 . S
C104 C103 1.372 . S
C104 C105 1.379 . S
C105 H83 0.948 . S
C105 C100 1.364 . S
C105 C104 1.379 . S
C106 C75 1.383 . S
C106 C93 1.479 . S
C106 C107 1.398 . S
C107 C72 1.382 . S
C107 H84 0.951 . S
C107 C106 1.398 . S
C108 C109 1.384 . S
C108 H121 0.947 . S
C108 C143 1.382 . S
C109 C108 1.384 . S
C109 C110 1.378 . S
C110 C109 1.378 . S
C110 C111 1.378 . S
C110 H122 0.952 . S
C111 C110 1.378 . S
C111 H123 0.950 . S
C111 C142 1.383 . S
H112 C131 0.947 . S
H113 C132 0.946 . S
H114 C134 0.953 . S
H115 C135 0.945 . S
H116 C137 0.952 . S
H117 C138 0.949 . S
H118 C140 0.950 . S
H119 C141 0.948 . S
H120 C143 0.951 . S
H121 C108 0.947 . S
H122 C110 0.952 . S
H123 C111 0.950 . S
N124 C127 1.382 . S
N124 C129 1.363 . S
N125 C127 1.371 . S
N125 C128 1.372 . S
N126 C128 1.361 . S
N126 C129 1.377 . S
C127 N124 1.382 . S
C127 N125 1.371 . S
C127 C130 1.480 . S
C128 N125 1.372 . S
C128 N126 1.361 . S
C128 C136 1.457 . S
C129 N124 1.363 . S
C129 N126 1.377 . S
C129 C142 1.479 . S
C130 C127 1.480 . S
C130 C131 1.383 . S
C130 C135 1.385 . S
C131 H112 0.947 . S
C131 C130 1.383 . S
C131 C132 1.388 . S
C132 H113 0.946 . S
C132 C131 1.388 . S
C132 C133 1.384 . S
C133 C132 1.384 . S
C133 C134 1.377 . S
C134 H114 0.953 . S
C134 C133 1.377 . S
C134 C135 1.369 . S
C135 H115 0.945 . S
C135 C130 1.385 . S
C135 C134 1.369 . S
C136 C128 1.457 . S
C136 C137 1.372 . S
C136 C141 1.364 . S
C137 H116 0.952 . S
C137 C136 1.372 . S
C137 C138 1.389 . S
C138 H117 0.949 . S
C138 C137 1.389 . S
C138 C139 1.387 . S
C139 C138 1.387 . S
C139 C140 1.372 . S
C140 H118 0.950 . S
C140 C139 1.372 . S
C140 C141 1.379 . S
C141 H119 0.948 . S
C141 C136 1.364 . S
C141 C140 1.379 . S
C142 C111 1.383 . S
C142 C129 1.479 . S
C142 C143 1.398 . S
C143 C108 1.382 . S
C143 H120 0.951 . S
C143 C142 1.398 . S
C144 C145 1.384 . S
C144 H157 0.947 . S
C144 C179 1.382 . S
C145 C144 1.384 . S
C145 C146 1.378 . S
C146 C145 1.378 . S
C146 C147 1.378 . S
C146 H158 0.952 . S
C147 C146 1.378 . S
C147 H159 0.950 . S
C147 C178 1.383 . S
H148 C167 0.947 . S
H149 C168 0.946 . S
H150 C170 0.953 . S
H151 C171 0.945 . S
H152 C173 0.952 . S
H153 C174 0.949 . S
H154 C176 0.950 . S
H155 C177 0.948 . S
H156 C179 0.951 . S
H157 C144 0.947 . S
H158 C146 0.952 . S
H159 C147 0.950 . S
N160 C163 1.382 . S
N160 C165 1.363 . S
N161 C163 1.371 . S
N161 C164 1.372 . S
N162 C164 1.361 . S
N162 C165 1.377 . S
C163 N160 1.382 . S
C163 N161 1.371 . S
C163 C166 1.480 . S
C164 N161 1.372 . S
C164 N162 1.361 . S
C164 C172 1.457 . S
C165 N160 1.363 . S
C165 N162 1.377 . S
C165 C178 1.479 . S
C166 C163 1.480 . S
C166 C167 1.383 . S
C166 C171 1.385 . S
C167 H148 0.947 . S
C167 C166 1.383 . S
C167 C168 1.388 . S
C168 H149 0.946 . S
C168 C167 1.388 . S
C168 C169 1.384 . S
C169 C168 1.384 . S
C169 C170 1.377 . S
C170 H150 0.953 . S
C170 C169 1.377 . S
C170 C171 1.369 . S
C171 H151 0.945 . S
C171 C166 1.385 . S
C171 C170 1.369 . S
C172 C164 1.457 . S
C172 C173 1.372 . S
C172 C177 1.364 . S
C173 H152 0.952 . S
C173 C172 1.372 . S
C173 C174 1.389 . S
C174 H153 0.949 . S
C174 C173 1.389 . S
C174 C175 1.387 . S
C175 C174 1.387 . S
C175 C176 1.372 . S
C176 H154 0.950 . S
C176 C175 1.372 . S
C176 C177 1.379 . S
C177 H155 0.948 . S
C177 C172 1.364 . S
C177 C176 1.379 . S
C178 C147 1.383 . S
C178 C165 1.479 . S
C178 C179 1.398 . S
C179 C144 1.382 . S
C179 H156 0.951 . S
C179 C178 1.398 . S
C180 C181 1.384 . S
C180 H193 0.947 . S
C180 C215 1.382 . S
C181 C180 1.384 . S
C181 C182 1.378 . S
C182 C181 1.378 . S
C182 C183 1.378 . S
C182 H194 0.952 . S
C183 C182 1.378 . S
C183 H195 0.950 . S
C183 C214 1.383 . S
H184 C203 0.947 . S
H185 C204 0.946 . S
H186 C206 0.953 . S
H187 C207 0.945 . S
H188 C209 0.952 . S
H189 C210 0.949 . S
H190 C212 0.950 . S
H191 C213 0.948 . S
H192 C215 0.951 . S
H193 C180 0.947 . S
H194 C182 0.952 . S
H195 C183 0.950 . S
N196 C199 1.382 . S
N196 C201 1.363 . S
N197 C199 1.371 . S
N197 C200 1.372 . S
N198 C200 1.361 . S
N198 C201 1.377 . S
C199 N196 1.382 . S
C199 N197 1.371 . S
C199 C202 1.480 . S
C200 N197 1.372 . S
C200 N198 1.361 . S
C200 C208 1.457 . S
C201 N196 1.363 . S
C201 N198 1.377 . S
C201 C214 1.479 . S
C202 C199 1.480 . S
C202 C203 1.383 . S
C202 C207 1.385 . S
C203 H184 0.947 . S
C203 C202 1.383 . S
C203 C204 1.388 . S
C204 H185 0.946 . S
C204 C203 1.388 . S
C204 C205 1.384 . S
C205 C204 1.384 . S
C205 C206 1.377 . S
C206 H186 0.953 . S
C206 C205 1.377 . S
C206 C207 1.369 . S
C207 H187 0.945 . S
C207 C202 1.385 . S
C207 C206 1.369 . S
C208 C200 1.457 . S
C208 C209 1.372 . S
C208 C213 1.364 . S
C209 H188 0.952 . S
C209 C208 1.372 . S
C209 C210 1.389 . S
C210 H189 0.949 . S
C210 C209 1.389 . S
C210 C211 1.387 . S
C211 C210 1.387 . S
C211 C212 1.372 . S
C212 H190 0.950 . S
C212 C211 1.372 . S
C212 C213 1.379 . S
C213 H191 0.948 . S
C213 C208 1.364 . S
C213 C212 1.379 . S
C214 C183 1.383 . S
C214 C201 1.479 . S
C214 C215 1.398 . S
C215 C180 1.382 . S
C215 H192 0.951 . S
C215 C214 1.398 . S
C216 C217 1.384 . S
C216 H229 0.947 . S
C216 C251 1.382 . S
C217 C216 1.384 . S
C217 C218 1.378 . S
C218 C217 1.378 . S
C218 C219 1.378 . S
C218 H230 0.952 . S
C219 C218 1.378 . S
C219 H231 0.950 . S
C219 C250 1.383 . S
H220 C239 0.947 . S
H221 C240 0.946 . S
H222 C242 0.953 . S
H223 C243 0.945 . S
H224 C245 0.952 . S
H225 C246 0.949 . S
H226 C248 0.950 . S
H227 C249 0.948 . S
H228 C251 0.951 . S
H229 C216 0.947 . S
H230 C218 0.952 . S
H231 C219 0.950 . S
N232 C235 1.382 . S
N232 C237 1.363 . S
N233 C235 1.371 . S
N233 C236 1.372 . S
N234 C236 1.361 . S
N234 C237 1.377 . S
C235 N232 1.382 . S
C235 N233 1.371 . S
C235 C238 1.480 . S
C236 N233 1.372 . S
C236 N234 1.361 . S
C236 C244 1.457 . S
C237 N232 1.363 . S
C237 N234 1.377 . S
C237 C250 1.479 . S
C238 C235 1.480 . S
C238 C239 1.383 . S
C238 C243 1.385 . S
C239 H220 0.947 . S
C239 C238 1.383 . S
C239 C240 1.388 . S
C240 H221 0.946 . S
C240 C239 1.388 . S
C240 C241 1.384 . S
C241 C240 1.384 . S
C241 C242 1.377 . S
C242 H222 0.953 . S
C242 C241 1.377 . S
C242 C243 1.369 . S
C243 H223 0.945 . S
C243 C238 1.385 . S
C243 C242 1.369 . S
C244 C236 1.457 . S
C244 C245 1.372 . S
C244 C249 1.364 . S
C245 H224 0.952 . S
C245 C244 1.372 . S
C245 C246 1.389 . S
C246 H225 0.949 . S
C246 C245 1.389 . S
C246 C247 1.387 . S
C247 C246 1.387 . S
C247 C248 1.372 . S
C248 H226 0.950 . S
C248 C247 1.372 . S
C248 C249 1.379 . S
C249 H227 0.948 . S
C249 C244 1.364 . S
C249 C248 1.379 . S
C250 C219 1.383 . S
C250 C237 1.479 . S
C250 C251 1.398 . S
C251 C216 1.382 . S
C251 H228 0.951 . S
C251 C250 1.398 . S
C252 C253 1.384 . S
C252 H265 0.947 . S
C252 C287 1.382 . S
C253 C252 1.384 . S
C253 C254 1.378 . S
C254 C253 1.378 . S
C254 C255 1.378 . S
C254 H266 0.952 . S
C255 C254 1.378 . S
C255 H267 0.950 . S
C255 C286 1.383 . S
H256 C275 0.947 . S
H257 C276 0.946 . S
H258 C278 0.953 . S
H259 C279 0.945 . S
H260 C281 0.952 . S
H261 C282 0.949 . S
H262 C284 0.950 . S
H263 C285 0.948 . S
H264 C287 0.951 . S
H265 C252 0.947 . S
H266 C254 0.952 . S
H267 C255 0.950 . S
N268 C271 1.382 . S
N268 C273 1.363 . S
N269 C271 1.371 . S
N269 C272 1.372 . S
N270 C272 1.361 . S
N270 C273 1.377 . S
C271 N268 1.382 . S
C271 N269 1.371 . S
C271 C274 1.480 . S
C272 N269 1.372 . S
C272 N270 1.361 . S
C272 C280 1.457 . S
C273 N268 1.363 . S
C273 N270 1.377 . S
C273 C286 1.479 . S
C274 C271 1.480 . S
C274 C275 1.383 . S
C274 C279 1.385 . S
C275 H256 0.947 . S
C275 C274 1.383 . S
C275 C276 1.388 . S
C276 H257 0.946 . S
C276 C275 1.388 . S
C276 C277 1.384 . S
C277 C276 1.384 . S
C277 C278 1.377 . S
C278 H258 0.953 . S
C278 C277 1.377 . S
C278 C279 1.369 . S
C279 H259 0.945 . S
C279 C274 1.385 . S
C279 C278 1.369 . S
C280 C272 1.457 . S
C280 C281 1.372 . S
C280 C285 1.364 . S
C281 H260 0.952 . S
C281 C280 1.372 . S
C281 C282 1.389 . S
C282 H261 0.949 . S
C282 C281 1.389 . S
C282 C283 1.387 . S
C283 C282 1.387 . S
C283 C284 1.372 . S
C284 H262 0.950 . S
C284 C283 1.372 . S
C284 C285 1.379 . S
C285 H263 0.948 . S
C285 C280 1.364 . S
C285 C284 1.379 . S
C286 C255 1.383 . S
C286 C273 1.479 . S
C286 C287 1.398 . S
C287 C252 1.382 . S
C287 H264 0.951 . S
C287 C286 1.398 . S
C288 C289 1.384 . S
C288 H301 0.947 . S
C288 C323 1.382 . S
C289 C288 1.384 . S
C289 C290 1.378 . S
C290 C289 1.378 . S
C290 C291 1.378 . S
C290 H302 0.952 . S
C291 C290 1.378 . S
C291 H303 0.950 . S
C291 C322 1.383 . S
H292 C311 0.947 . S
H293 C312 0.946 . S
H294 C314 0.953 . S
H295 C315 0.945 . S
H296 C317 0.952 . S
H297 C318 0.949 . S
H298 C320 0.950 . S
H299 C321 0.948 . S
H300 C323 0.951 . S
H301 C288 0.947 . S
H302 C290 0.952 . S
H303 C291 0.950 . S
N304 C307 1.382 . S
N304 C309 1.363 . S
N305 C307 1.371 . S
N305 C308 1.372 . S
N306 C308 1.361 . S
N306 C309 1.377 . S
C307 N304 1.382 . S
C307 N305 1.371 . S
C307 C310 1.480 . S
C308 N305 1.372 . S
C308 N306 1.361 . S
C308 C316 1.457 . S
C309 N304 1.363 . S
C309 N306 1.377 . S
C309 C322 1.479 . S
C310 C307 1.480 . S
C310 C311 1.383 . S
C310 C315 1.385 . S
C311 H292 0.947 . S
C311 C310 1.383 . S
C311 C312 1.388 . S
C312 H293 0.946 . S
C312 C311 1.388 . S
C312 C313 1.384 . S
C313 C312 1.384 . S
C313 C314 1.377 . S
C314 H294 0.953 . S
C314 C313 1.377 . S
C314 C315 1.369 . S
C315 H295 0.945 . S
C315 C310 1.385 . S
C315 C314 1.369 . S
C316 C308 1.457 . S
C316 C317 1.372 . S
C316 C321 1.364 . S
C317 H296 0.952 . S
C317 C316 1.372 . S
C317 C318 1.389 . S
C318 H297 0.949 . S
C318 C317 1.389 . S
C318 C319 1.387 . S
C319 C318 1.387 . S
C319 C320 1.372 . S
C320 H298 0.950 . S
C320 C319 1.372 . S
C320 C321 1.379 . S
C321 H299 0.948 . S
C321 C316 1.364 . S
C321 C320 1.379 . S
C322 C291 1.383 . S
C322 C309 1.479 . S
C322 C323 1.398 . S
C323 C288 1.382 . S
C323 H300 0.951 . S
C323 C322 1.398 . S
C324 C325 1.384 . S
C324 H337 0.947 . S
C324 C359 1.382 . S
C325 C324 1.384 . S
C325 C326 1.378 . S
C326 C325 1.378 . S
C326 C327 1.378 . S
C326 H338 0.952 . S
C327 C326 1.378 . S
C327 H339 0.950 . S
C327 C358 1.383 . S
H328 C347 0.947 . S
H329 C348 0.946 . S
H330 C350 0.953 . S
H331 C351 0.945 . S
H332 C353 0.952 . S
H333 C354 0.949 . S
H334 C356 0.950 . S
H335 C357 0.948 . S
H336 C359 0.951 . S
H337 C324 0.947 . S
H338 C326 0.952 . S
H339 C327 0.950 . S
N340 C343 1.382 . S
N340 C345 1.363 . S
N341 C343 1.371 . S
N341 C344 1.372 . S
N342 C344 1.361 . S
N342 C345 1.377 . S
C343 N340 1.382 . S
C343 N341 1.371 . S
C343 C346 1.480 . S
C344 N341 1.372 . S
C344 N342 1.361 . S
C344 C352 1.457 . S
C345 N340 1.363 . S
C345 N342 1.377 . S
C345 C358 1.479 . S
C346 C343 1.480 . S
C346 C347 1.383 . S
C346 C351 1.385 . S
C347 H328 0.947 . S
C347 C346 1.383 . S
C347 C348 1.388 . S
C348 H329 0.946 . S
C348 C347 1.388 . S
C348 C349 1.384 . S
C349 C348 1.384 . S
C349 C350 1.377 . S
C350 H330 0.953 . S
C350 C349 1.377 . S
C350 C351 1.369 . S
C351 H331 0.945 . S
C351 C346 1.385 . S
C351 C350 1.369 . S
C352 C344 1.457 . S
C352 C353 1.372 . S
C352 C357 1.364 . S
C353 H332 0.952 . S
C353 C352 1.372 . S
C353 C354 1.389 . S
C354 H333 0.949 . S
C354 C353 1.389 . S
C354 C355 1.387 . S
C355 C354 1.387 . S
C355 C356 1.372 . S
C356 H334 0.950 . S
C356 C355 1.372 . S
C356 C357 1.379 . S
C357 H335 0.948 . S
C357 C352 1.364 . S
C357 C356 1.379 . S
C358 C327 1.383 . S
C358 C345 1.479 . S
C358 C359 1.398 . S
C359 C324 1.382 . S
C359 H336 0.951 . S
C359 C358 1.398 . S
C360 C361 1.384 . S
C360 H373 0.947 . S
C360 C395 1.382 . S
C361 C360 1.384 . S
C361 C362 1.378 . S
C362 C361 1.378 . S
C362 C363 1.378 . S
C362 H374 0.952 . S
C363 C362 1.378 . S
C363 H375 0.950 . S
C363 C394 1.383 . S
H364 C383 0.947 . S
H365 C384 0.946 . S
H366 C386 0.953 . S
H367 C387 0.945 . S
H368 C389 0.952 . S
H369 C390 0.949 . S
H370 C392 0.950 . S
H371 C393 0.948 . S
H372 C395 0.951 . S
H373 C360 0.947 . S
H374 C362 0.952 . S
H375 C363 0.950 . S
N376 C379 1.382 . S
N376 C381 1.363 . S
N377 C379 1.371 . S
N377 C380 1.372 . S
N378 C380 1.361 . S
N378 C381 1.377 . S
C379 N376 1.382 . S
C379 N377 1.371 . S
C379 C382 1.480 . S
C380 N377 1.372 . S
C380 N378 1.361 . S
C380 C388 1.457 . S
C381 N376 1.363 . S
C381 N378 1.377 . S
C381 C394 1.479 . S
C382 C379 1.480 . S
C382 C383 1.383 . S
C382 C387 1.385 . S
C383 H364 0.947 . S
C383 C382 1.383 . S
C383 C384 1.388 . S
C384 H365 0.946 . S
C384 C383 1.388 . S
C384 C385 1.384 . S
C385 C384 1.384 . S
C385 C386 1.377 . S
C386 H366 0.953 . S
C386 C385 1.377 . S
C386 C387 1.369 . S
C387 H367 0.945 . S
C387 C382 1.385 . S
C387 C386 1.369 . S
C388 C380 1.457 . S
C388 C389 1.372 . S
C388 C393 1.364 . S
C389 H368 0.952 . S
C389 C388 1.372 . S
C389 C390 1.389 . S
C390 H369 0.949 . S
C390 C389 1.389 . S
C390 C391 1.387 . S
C391 C390 1.387 . S
C391 C392 1.372 . S
C392 H370 0.950 . S
C392 C391 1.372 . S
C392 C393 1.379 . S
C393 H371 0.948 . S
C393 C388 1.364 . S
C393 C392 1.379 . S
C394 C363 1.383 . S
C394 C381 1.479 . S
C394 C395 1.398 . S
C395 C360 1.382 . S
C395 H372 0.951 . S
C395 C394 1.398 . S
C396 C397 1.384 . S
C396 H409 0.947 . S
C396 C431 1.382 . S
C397 C396 1.384 . S
C397 C398 1.378 . S
C398 C397 1.378 . S
C398 C399 1.378 . S
C398 H410 0.952 . S
C399 C398 1.378 . S
C399 H411 0.950 . S
C399 C430 1.383 . S
H400 C419 0.947 . S
H401 C420 0.946 . S
H402 C422 0.953 . S
H403 C423 0.945 . S
H404 C425 0.952 . S
H405 C426 0.949 . S
H406 C428 0.950 . S
H407 C429 0.948 . S
H408 C431 0.951 . S
H409 C396 0.947 . S
H410 C398 0.952 . S
H411 C399 0.950 . S
N412 C415 1.382 . S
N412 C417 1.363 . S
N413 C415 1.371 . S
N413 C416 1.372 . S
N414 C416 1.361 . S
N414 C417 1.377 . S
C415 N412 1.382 . S
C415 N413 1.371 . S
C415 C418 1.480 . S
C416 N413 1.372 . S
C416 N414 1.361 . S
C416 C424 1.457 . S
C417 N412 1.363 . S
C417 N414 1.377 . S
C417 C430 1.479 . S
C418 C415 1.480 . S
C418 C419 1.383 . S
C418 C423 1.385 . S
C419 H400 0.947 . S
C419 C418 1.383 . S
C419 C420 1.388 . S
C420 H401 0.946 . S
C420 C419 1.388 . S
C420 C421 1.384 . S
C421 C420 1.384 . S
C421 C422 1.377 . S
C422 H402 0.953 . S
C422 C421 1.377 . S
C422 C423 1.369 . S
C423 H403 0.945 . S
C423 C418 1.385 . S
C423 C422 1.369 . S
C424 C416 1.457 . S
C424 C425 1.372 . S
C424 C429 1.364 . S
C425 H404 0.952 . S
C425 C424 1.372 . S
C425 C426 1.389 . S
C426 H405 0.949 . S
C426 C425 1.389 . S
C426 C427 1.387 . S
C427 C426 1.387 . S
C427 C428 1.372 . S
C428 H406 0.950 . S
C428 C427 1.372 . S
C428 C429 1.379 . S
C429 H407 0.948 . S
C429 C424 1.364 . S
C429 C428 1.379 . S
C430 C399 1.383 . S
C430 C417 1.479 . S
C430 C431 1.398 . S
C431 C396 1.382 . S
C431 H408 0.951 . S
C431 C430 1.398 . S
C432 C433 1.384 . S
C432 H445 0.947 . S
C432 C467 1.382 . S
C433 C432 1.384 . S
C433 C434 1.378 . S
C434 C433 1.378 . S
C434 C435 1.378 . S
C434 H446 0.952 . S
C435 C434 1.378 . S
C435 H447 0.950 . S
C435 C466 1.383 . S
H436 C455 0.947 . S
H437 C456 0.946 . S
H438 C458 0.953 . S
H439 C459 0.945 . S
H440 C461 0.952 . S
H441 C462 0.949 . S
H442 C464 0.950 . S
H443 C465 0.948 . S
H444 C467 0.951 . S
H445 C432 0.947 . S
H446 C434 0.952 . S
H447 C435 0.950 . S
N448 C451 1.382 . S
N448 C453 1.363 . S
N449 C451 1.371 . S
N449 C452 1.372 . S
N450 C452 1.361 . S
N450 C453 1.377 . S
C451 N448 1.382 . S
C451 N449 1.371 . S
C451 C454 1.480 . S
C452 N449 1.372 . S
C452 N450 1.361 . S
C452 C460 1.457 . S
C453 N448 1.363 . S
C453 N450 1.377 . S
C453 C466 1.479 . S
C454 C451 1.480 . S
C454 C455 1.383 . S
C454 C459 1.385 . S
C455 H436 0.947 . S
C455 C454 1.383 . S
C455 C456 1.388 . S
C456 H437 0.946 . S
C456 C455 1.388 . S
C456 C457 1.384 . S
C457 C456 1.384 . S
C457 C458 1.377 . S
C458 H438 0.953 . S
C458 C457 1.377 . S
C458 C459 1.369 . S
C459 H439 0.945 . S
C459 C454 1.385 . S
C459 C458 1.369 . S
C460 C452 1.457 . S
C460 C461 1.372 . S
C460 C465 1.364 . S
C461 H440 0.952 . S
C461 C460 1.372 . S
C461 C462 1.389 . S
C462 H441 0.949 . S
C462 C461 1.389 . S
C462 C463 1.387 . S
C463 C462 1.387 . S
C463 C464 1.372 . S
C464 H442 0.950 . S
C464 C463 1.372 . S
C464 C465 1.379 . S
C465 H443 0.948 . S
C465 C460 1.364 . S
C465 C464 1.379 . S
C466 C435 1.383 . S
C466 C453 1.479 . S
C466 C467 1.398 . S
C467 C432 1.382 . S
C467 H444 0.951 . S
C467 C466 1.398 . S
C468 C469 1.384 . S
C468 H481 0.947 . S
C468 C503 1.382 . S
C469 C468 1.384 . S
C469 C470 1.378 . S
C470 C469 1.378 . S
C470 C471 1.378 . S
C470 H482 0.952 . S
C471 C470 1.378 . S
C471 H483 0.950 . S
C471 C502 1.383 . S
H472 C491 0.947 . S
H473 C492 0.946 . S
H474 C494 0.953 . S
H475 C495 0.945 . S
H476 C497 0.952 . S
H477 C498 0.949 . S
H478 C500 0.950 . S
H479 C501 0.948 . S
H480 C503 0.951 . S
H481 C468 0.947 . S
H482 C470 0.952 . S
H483 C471 0.950 . S
N484 C487 1.382 . S
N484 C489 1.363 . S
N485 C487 1.371 . S
N485 C488 1.372 . S
N486 C488 1.361 . S
N486 C489 1.377 . S
C487 N484 1.382 . S
C487 N485 1.371 . S
C487 C490 1.480 . S
C488 N485 1.372 . S
C488 N486 1.361 . S
C488 C496 1.457 . S
C489 N484 1.363 . S
C489 N486 1.377 . S
C489 C502 1.479 . S
C490 C487 1.480 . S
C490 C491 1.383 . S
C490 C495 1.385 . S
C491 H472 0.947 . S
C491 C490 1.383 . S
C491 C492 1.388 . S
C492 H473 0.946 . S
C492 C491 1.388 . S
C492 C493 1.384 . S
C493 C492 1.384 . S
C493 C494 1.377 . S
C494 H474 0.953 . S
C494 C493 1.377 . S
C494 C495 1.369 . S
C495 H475 0.945 . S
C495 C490 1.385 . S
C495 C494 1.369 . S
C496 C488 1.457 . S
C496 C497 1.372 . S
C496 C501 1.364 . S
C497 H476 0.952 . S
C497 C496 1.372 . S
C497 C498 1.389 . S
C498 H477 0.949 . S
C498 C497 1.389 . S
C498 C499 1.387 . S
C499 C498 1.387 . S
C499 C500 1.372 . S
C500 H478 0.950 . S
C500 C499 1.372 . S
C500 C501 1.379 . S
C501 H479 0.948 . S
C501 C496 1.364 . S
C501 C500 1.379 . S
C502 C471 1.383 . S
C502 C489 1.479 . S
C502 C503 1.398 . S
C503 C468 1.382 . S
C503 H480 0.951 . S
C503 C502 1.398 . S
C504 C505 1.384 . S
C504 H517 0.947 . S
C504 C539 1.382 . S
C505 C504 1.384 . S
C505 C506 1.378 . S
C506 C505 1.378 . S
C506 C507 1.378 . S
C506 H518 0.952 . S
C507 C506 1.378 . S
C507 H519 0.950 . S
C507 C538 1.383 . S
H508 C527 0.947 . S
H509 C528 0.946 . S
H510 C530 0.953 . S
H511 C531 0.945 . S
H512 C533 0.952 . S
H513 C534 0.949 . S
H514 C536 0.950 . S
H515 C537 0.948 . S
H516 C539 0.951 . S
H517 C504 0.947 . S
H518 C506 0.952 . S
H519 C507 0.950 . S
N520 C523 1.382 . S
N520 C525 1.363 . S
N521 C523 1.371 . S
N521 C524 1.372 . S
N522 C524 1.361 . S
N522 C525 1.377 . S
C523 N520 1.382 . S
C523 N521 1.371 . S
C523 C526 1.480 . S
C524 N521 1.372 . S
C524 N522 1.361 . S
C524 C532 1.457 . S
C525 N520 1.363 . S
C525 N522 1.377 . S
C525 C538 1.479 . S
C526 C523 1.480 . S
C526 C527 1.383 . S
C526 C531 1.385 . S
C527 H508 0.947 . S
C527 C526 1.383 . S
C527 C528 1.388 . S
C528 H509 0.946 . S
C528 C527 1.388 . S
C528 C529 1.384 . S
C529 C528 1.384 . S
C529 C530 1.377 . S
C530 H510 0.953 . S
C530 C529 1.377 . S
C530 C531 1.369 . S
C531 H511 0.945 . S
C531 C526 1.385 . S
C531 C530 1.369 . S
C532 C524 1.457 . S
C532 C533 1.372 . S
C532 C537 1.364 . S
C533 H512 0.952 . S
C533 C532 1.372 . S
C533 C534 1.389 . S
C534 H513 0.949 . S
C534 C533 1.389 . S
C534 C535 1.387 . S
C535 C534 1.387 . S
C535 C536 1.372 . S
C536 H514 0.950 . S
C536 C535 1.372 . S
C536 C537 1.379 . S
C537 H515 0.948 . S
C537 C532 1.364 . S
C537 C536 1.379 . S
C538 C507 1.383 . S
C538 C525 1.479 . S
C538 C539 1.398 . S
C539 C504 1.382 . S
C539 H516 0.951 . S
C539 C538 1.398 . S
C540 C541 1.384 . S
C540 H553 0.947 . S
C540 C575 1.382 . S
C541 C540 1.384 . S
C541 C542 1.378 . S
C542 C541 1.378 . S
C542 C543 1.378 . S
C542 H554 0.952 . S
C543 C542 1.378 . S
C543 H555 0.950 . S
C543 C574 1.383 . S
H544 C563 0.947 . S
H545 C564 0.946 . S
H546 C566 0.953 . S
H547 C567 0.945 . S
H548 C569 0.952 . S
H549 C570 0.949 . S
H550 C572 0.950 . S
H551 C573 0.948 . S
H552 C575 0.951 . S
H553 C540 0.947 . S
H554 C542 0.952 . S
H555 C543 0.950 . S
N556 C559 1.382 . S
N556 C561 1.363 . S
N557 C559 1.371 . S
N557 C560 1.372 . S
N558 C560 1.361 . S
N558 C561 1.377 . S
C559 N556 1.382 . S
C559 N557 1.371 . S
C559 C562 1.480 . S
C560 N557 1.372 . S
C560 N558 1.361 . S
C560 C568 1.457 . S
C561 N556 1.363 . S
C561 N558 1.377 . S
C561 C574 1.479 . S
C562 C559 1.480 . S
C562 C563 1.383 . S
C562 C567 1.385 . S
C563 H544 0.947 . S
C563 C562 1.383 . S
C563 C564 1.388 . S
C564 H545 0.946 . S
C564 C563 1.388 . S
C564 C565 1.384 . S
C565 C564 1.384 . S
C565 C566 1.377 . S
C566 H546 0.953 . S
C566 C565 1.377 . S
C566 C567 1.369 . S
C567 H547 0.945 . S
C567 C562 1.385 . S
C567 C566 1.369 . S
C568 C560 1.457 . S
C568 C569 1.372 . S
C568 C573 1.364 . S
C569 H548 0.952 . S
C569 C568 1.372 . S
C569 C570 1.389 . S
C570 H549 0.949 . S
C570 C569 1.389 . S
C570 C571 1.387 . S
C571 C570 1.387 . S
C571 C572 1.372 . S
C572 H550 0.950 . S
C572 C571 1.372 . S
C572 C573 1.379 . S
C573 H551 0.948 . S
C573 C568 1.364 . S
C573 C572 1.379 . S
C574 C543 1.383 . S
C574 C561 1.479 . S
C574 C575 1.398 . S
C575 C540 1.382 . S
C575 H552 0.951 . S
C575 C574 1.398 . S
C576 C577 1.384 . S
C576 H589 0.947 . S
C576 C611 1.382 . S
C577 C576 1.384 . S
C577 C578 1.378 . S
C578 C577 1.378 . S
C578 C579 1.378 . S
C578 H590 0.952 . S
C579 C578 1.378 . S
C579 H591 0.950 . S
C579 C610 1.383 . S
H580 C599 0.947 . S
H581 C600 0.946 . S
H582 C602 0.953 . S
H583 C603 0.945 . S
H584 C605 0.952 . S
H585 C606 0.949 . S
H586 C608 0.950 . S
H587 C609 0.948 . S
H588 C611 0.951 . S
H589 C576 0.947 . S
H590 C578 0.952 . S
H591 C579 0.950 . S
N592 C595 1.382 . S
N592 C597 1.363 . S
N593 C595 1.371 . S
N593 C596 1.372 . S
N594 C596 1.361 . S
N594 C597 1.377 . S
C595 N592 1.382 . S
C595 N593 1.371 . S
C595 C598 1.480 . S
C596 N593 1.372 . S
C596 N594 1.361 . S
C596 C604 1.457 . S
C597 N592 1.363 . S
C597 N594 1.377 . S
C597 C610 1.479 . S
C598 C595 1.480 . S
C598 C599 1.383 . S
C598 C603 1.385 . S
C599 H580 0.947 . S
C599 C598 1.383 . S
C599 C600 1.388 . S
C600 H581 0.946 . S
C600 C599 1.388 . S
C600 C601 1.384 . S
C601 C600 1.384 . S
C601 C602 1.377 . S
C602 H582 0.953 . S
C602 C601 1.377 . S
C602 C603 1.369 . S
C603 H583 0.945 . S
C603 C598 1.385 . S
C603 C602 1.369 . S
C604 C596 1.457 . S
C604 C605 1.372 . S
C604 C609 1.364 . S
C605 H584 0.952 . S
C605 C604 1.372 . S
C605 C606 1.389 . S
C606 H585 0.949 . S
C606 C605 1.389 . S
C606 C607 1.387 . S
C607 C606 1.387 . S
C607 C608 1.372 . S
C608 H586 0.950 . S
C608 C607 1.372 . S
C608 C609 1.379 . S
C609 H587 0.948 . S
C609 C604 1.364 . S
C609 C608 1.379 . S
C610 C579 1.383 . S
C610 C597 1.479 . S
C610 C611 1.398 . S
C611 C576 1.382 . S
C611 H588 0.951 . S
C611 C610 1.398 . S
C612 C613 1.384 . S
C612 H625 0.947 . S
C612 C647 1.382 . S
C613 C612 1.384 . S
C613 C614 1.378 . S
C614 C613 1.378 . S
C614 C615 1.378 . S
C614 H626 0.952 . S
C615 C614 1.378 . S
C615 H627 0.950 . S
C615 C646 1.383 . S
H616 C635 0.947 . S
H617 C636 0.946 . S
H618 C638 0.953 . S
H619 C639 0.945 . S
H620 C641 0.952 . S
H621 C642 0.949 . S
H622 C644 0.950 . S
H623 C645 0.948 . S
H624 C647 0.951 . S
H625 C612 0.947 . S
H626 C614 0.952 . S
H627 C615 0.950 . S
N628 C631 1.382 . S
N628 C633 1.363 . S
N629 C631 1.371 . S
N629 C632 1.372 . S
N630 C632 1.361 . S
N630 C633 1.377 . S
C631 N628 1.382 . S
C631 N629 1.371 . S
C631 C634 1.480 . S
C632 N629 1.372 . S
C632 N630 1.361 . S
C632 C640 1.457 . S
C633 N628 1.363 . S
C633 N630 1.377 . S
C633 C646 1.479 . S
C634 C631 1.480 . S
C634 C635 1.383 . S
C634 C639 1.385 . S
C635 H616 0.947 . S
C635 C634 1.383 . S
C635 C636 1.388 . S
C636 H617 0.946 . S
C636 C635 1.388 . S
C636 C637 1.384 . S
C637 C636 1.384 . S
C637 C638 1.377 . S
C638 H618 0.953 . S
C638 C637 1.377 . S
C638 C639 1.369 . S
C639 H619 0.945 . S
C639 C634 1.385 . S
C639 C638 1.369 . S
C640 C632 1.457 . S
C640 C641 1.372 . S
C640 C645 1.364 . S
C641 H620 0.952 . S
C641 C640 1.372 . S
C641 C642 1.389 . S
C642 H621 0.949 . S
C642 C641 1.389 . S
C642 C643 1.387 . S
C643 C642 1.387 . S
C643 C644 1.372 . S
C644 H622 0.950 . S
C644 C643 1.372 . S
C644 C645 1.379 . S
C645 H623 0.948 . S
C645 C640 1.364 . S
C645 C644 1.379 . S
C646 C615 1.383 . S
C646 C633 1.479 . S
C646 C647 1.398 . S
C647 C612 1.382 . S
C647 H624 0.951 . S
C647 C646 1.398 . S
Tb648 O651 2.453 . S
Tb648 O652 2.596 1_545 S
Tb648 O653 2.374 1_545 S
Tb648 O661 2.343 1_554 S
Tb648 O663 2.353 . S
Tb648 O665 2.427 1_554 S
Tb648 O666 2.513 1_554 S
C649 O653 1.251 . S
C649 O655 1.240 1_554 S
Tb650 O652 2.343 1_556 S
Tb650 O655 2.363 . S
Tb650 O658 2.427 1_556 S
Tb650 O659 2.513 1_556 S
Tb650 O660 2.453 . S
Tb650 O661 2.596 1_565 S
Tb650 O662 2.374 1_565 S
O651 Tb648 2.453 . S
O651 C667 1.245 . S
O652 Tb648 2.596 1_565 S
O652 Tb650 2.343 1_554 S
O652 C667 1.259 1_565 S
O653 Tb648 2.374 1_565 S
O653 C649 1.251 . S
C654 O658 1.275 . S
C654 O659 1.246 . S
O655 C649 1.240 1_556 S
O655 Tb650 2.363 . S
C656 O660 1.245 . S
C656 O661 1.259 1_565 S
C657 O662 1.250 . S
C657 O663 1.263 1_556 S
O658 Tb650 2.427 1_554 S
O658 C654 1.275 . S
O659 Tb650 2.513 1_554 S
O659 C654 1.246 . S
O660 Tb650 2.453 . S
O660 C656 1.245 . S
O661 Tb648 2.343 1_556 S
O661 Tb650 2.596 1_545 S
O661 C656 1.259 1_545 S
O662 Tb650 2.374 1_545 S
O662 C657 1.250 . S
O663 Tb648 2.353 . S
O663 C657 1.263 1_554 S
C664 O665 1.275 . S
C664 O666 1.246 . S
O665 Tb648 2.427 1_556 S
O665 C664 1.275 . S
O666 Tb648 2.513 1_556 S
O666 C664 1.246 . S
C667 O651 1.245 . S
C667 O652 1.259 1_545 S
Tb668 O671 2.453 . S
Tb668 O672 2.596 1_655 S
Tb668 O673 2.374 1_655 S
Tb668 O681 2.343 1_554 S
Tb668 O683 2.353 . S
Tb668 O685 2.427 1_554 S
Tb668 O686 2.513 1_554 S
C669 O673 1.251 . S
C669 O675 1.263 . S
Tb670 O672 2.343 1_556 S
Tb670 O675 2.353 1_556 S
Tb670 O678 2.427 1_556 S
Tb670 O679 2.513 1_556 S
Tb670 O680 2.453 . S
Tb670 O681 2.596 1_455 S
Tb670 O682 2.374 1_455 S
O671 Tb668 2.453 . S
O671 C687 1.245 1_655 S
O672 Tb668 2.596 1_455 S
O672 Tb670 2.343 1_554 S
O672 C687 1.259 . S
O673 Tb668 2.374 1_455 S
O673 C669 1.251 . S
C674 O678 1.275 . S
C674 O679 1.246 . S
O675 C669 1.263 . S
O675 Tb670 2.353 1_554 S
C676 O680 1.211 1_655 S
C676 O681 1.272 . S
C677 O682 1.250 . S
C677 O683 1.265 1_556 S
O678 Tb670 2.427 1_554 S
O678 C674 1.275 . S
O679 Tb670 2.513 1_554 S
O679 C674 1.246 . S
O680 Tb670 2.453 . S
O680 C676 1.211 1_455 S
O681 Tb668 2.343 1_556 S
O681 Tb670 2.596 1_655 S
O681 C676 1.272 . S
O682 Tb670 2.374 1_655 S
O682 C677 1.250 . S
O683 Tb668 2.353 . S
O683 C677 1.265 1_554 S
C684 O685 1.275 . S
C684 O686 1.246 . S
O685 Tb668 2.427 1_556 S
O685 C684 1.275 . S
O686 Tb668 2.513 1_556 S
O686 C684 1.246 . S
C687 O671 1.245 1_455 S
C687 O672 1.259 . S
Tb688 O691 2.453 . S
Tb688 O692 2.596 . S
Tb688 O693 2.374 . S
Tb688 O701 2.343 1_556 S
Tb688 O703 2.353 1_556 S
Tb688 O705 2.427 1_556 S
Tb688 O706 2.513 1_556 S
C689 O693 1.251 . S
C689 O695 1.263 1_556 S
Tb690 O692 2.343 1_554 S
Tb690 O695 2.353 . S
Tb690 O698 2.427 1_554 S
Tb690 O699 2.513 1_554 S
Tb690 O700 2.453 . S
Tb690 O701 2.596 . S
Tb690 O702 2.374 . S
O691 Tb688 2.453 . S
O691 C707 1.245 . S
O692 Tb688 2.596 . S
O692 Tb690 2.343 1_556 S
O692 C707 1.259 . S
O693 Tb688 2.374 . S
O693 C689 1.251 . S
C694 O698 1.275 . S
C694 O699 1.246 . S
O695 C689 1.263 1_554 S
O695 Tb690 2.353 . S
C696 O700 1.245 . S
C696 O701 1.259 . S
C697 O702 1.250 . S
C697 O703 1.263 . S
O698 Tb690 2.427 1_556 S
O698 C694 1.275 . S
O699 Tb690 2.513 1_556 S
O699 C694 1.246 . S
O700 Tb690 2.453 . S
O700 C696 1.245 . S
O701 Tb688 2.343 1_554 S
O701 Tb690 2.596 . S
O701 C696 1.259 . S
O702 Tb690 2.374 . S
O702 C697 1.250 . S
O703 Tb688 2.353 1_554 S
O703 C697 1.263 . S
C704 O705 1.275 . S
C704 O706 1.246 . S
O705 Tb688 2.427 1_554 S
O705 C704 1.275 . S
O706 Tb688 2.513 1_554 S
O706 C704 1.246 . S
C707 O691 1.245 . S
C707 O692 1.259 . S
Tb708 O711 2.453 . S
Tb708 O712 2.596 . S
Tb708 O713 2.374 . S
Tb708 O721 2.343 . S
Tb708 O723 2.353 . S
Tb708 O725 2.427 . S
Tb708 O726 2.513 . S
C709 O713 1.251 . S
C709 O715 1.263 . S
Tb710 O712 2.343 . S
Tb710 O715 2.353 . S
Tb710 O718 2.427 . S
Tb710 O719 2.513 . S
Tb710 O720 2.453 . S
Tb710 O721 2.596 . S
Tb710 O722 2.374 . S
O711 Tb708 2.453 . S
O711 C727 1.245 . S
O712 Tb708 2.596 . S
O712 Tb710 2.343 . S
O712 C727 1.259 . S
O713 Tb708 2.374 . S
O713 C709 1.251 . S
C714 O718 1.275 . S
C714 O719 1.246 . S
O715 C709 1.263 . S
O715 Tb710 2.353 . S
C716 O720 1.245 . S
C716 O721 1.259 . S
C717 O722 1.250 . S
C717 O723 1.263 . S
O718 Tb710 2.427 . S
O718 C714 1.275 . S
O719 Tb710 2.513 . S
O719 C714 1.246 . S
O720 Tb710 2.453 . S
O720 C716 1.245 . S
O721 Tb708 2.343 . S
O721 Tb710 2.596 . S
O721 C716 1.259 . S
O722 Tb710 2.374 . S
O722 C717 1.250 . S
O723 Tb708 2.353 . S
O723 C717 1.263 . S
C724 O725 1.275 . S
C724 O726 1.246 . S
O725 Tb708 2.427 . S
O725 C724 1.275 . S
O726 Tb708 2.513 . S
O726 C724 1.246 . S
C727 O711 1.245 . S
C727 O712 1.259 . S
Tb728 O731 2.453 . S
Tb728 O732 2.596 . S
Tb728 O733 2.374 . S
Tb728 O741 2.343 . S
Tb728 O743 2.353 . S
Tb728 O745 2.427 . S
Tb728 O746 2.513 . S
C729 O733 1.251 . S
C729 O735 1.263 . S
Tb730 O732 2.343 . S
Tb730 O735 2.353 . S
Tb730 O738 2.427 . S
Tb730 O739 2.513 . S
Tb730 O740 2.453 . S
Tb730 O741 2.596 . S
Tb730 O742 2.374 . S
O731 Tb728 2.453 . S
O731 C747 1.245 . S
O732 Tb728 2.596 . S
O732 Tb730 2.343 . S
O732 C747 1.259 . S
O733 Tb728 2.374 . S
O733 C729 1.251 . S
C734 O738 1.275 . S
C734 O739 1.246 . S
O735 C729 1.263 . S
O735 Tb730 2.353 . S
C736 O740 1.245 . S
C736 O741 1.259 . S
C737 O742 1.250 . S
C737 O743 1.263 . S
O738 Tb730 2.427 . S
O738 C734 1.275 . S
O739 Tb730 2.513 . S
O739 C734 1.246 . S
O740 Tb730 2.453 . S
O740 C736 1.245 . S
O741 Tb728 2.343 . S
O741 Tb730 2.596 . S
O741 C736 1.259 . S
O742 Tb730 2.374 . S
O742 C737 1.250 . S
O743 Tb728 2.353 . S
O743 C737 1.263 . S
C744 O745 1.275 . S
C744 O746 1.246 . S
O745 Tb728 2.427 . S
O745 C744 1.275 . S
O746 Tb728 2.513 . S
O746 C744 1.246 . S
C747 O731 1.245 . S
C747 O732 1.259 . S
Tb748 O751 2.453 . S
Tb748 O752 2.596 . S
Tb748 O753 2.374 . S
Tb748 O761 2.343 . S
Tb748 O763 2.353 . S
Tb748 O765 2.427 . S
Tb748 O766 2.513 . S
C749 O753 1.251 . S
C749 O755 1.263 . S
Tb750 O752 2.343 . S
Tb750 O755 2.353 . S
Tb750 O758 2.427 . S
Tb750 O759 2.513 . S
Tb750 O760 2.453 . S
Tb750 O761 2.596 . S
Tb750 O762 2.374 . S
O751 Tb748 2.453 . S
O751 C767 1.245 . S
O752 Tb748 2.596 . S
O752 Tb750 2.343 . S
O752 C767 1.259 . S
O753 Tb748 2.374 . S
O753 C749 1.251 . S
C754 O758 1.275 . S
C754 O759 1.246 . S
O755 C749 1.263 . S
O755 Tb750 2.353 . S
C756 O760 1.245 . S
C756 O761 1.259 . S
C757 O762 1.250 . S
C757 O763 1.263 . S
O758 Tb750 2.427 . S
O758 C754 1.275 . S
O759 Tb750 2.513 . S
O759 C754 1.246 . S
O760 Tb750 2.453 . S
O760 C756 1.245 . S
O761 Tb748 2.343 . S
O761 Tb750 2.596 . S
O761 C756 1.259 . S
O762 Tb750 2.374 . S
O762 C757 1.250 . S
O763 Tb748 2.353 . S
O763 C757 1.263 . S
C764 O765 1.275 . S
C764 O766 1.246 . S
O765 Tb748 2.427 . S
O765 C764 1.275 . S
O766 Tb748 2.513 . S
O766 C764 1.246 . S
C767 O751 1.245 . S
C767 O752 1.259 . S
Tb768 O771 2.453 . S
Tb768 O772 2.596 . S
Tb768 O773 2.374 . S
Tb768 O781 2.343 . S
Tb768 O783 2.353 . S
Tb768 O785 2.427 . S
Tb768 O786 2.513 . S
C769 O773 1.251 . S
C769 O775 1.263 . S
Tb770 O772 2.343 . S
Tb770 O775 2.353 . S
Tb770 O778 2.427 . S
Tb770 O779 2.513 . S
Tb770 O780 2.453 . S
Tb770 O781 2.596 . S
Tb770 O782 2.374 . S
O771 Tb768 2.453 . S
O771 C787 1.245 . S
O772 Tb768 2.596 . S
O772 Tb770 2.343 . S
O772 C787 1.259 . S
O773 Tb768 2.374 . S
O773 C769 1.251 . S
C774 O778 1.275 . S
C774 O779 1.246 . S
O775 C769 1.263 . S
O775 Tb770 2.353 . S
C776 O780 1.245 . S
C776 O781 1.259 . S
C777 O782 1.250 . S
C777 O783 1.263 . S
O778 Tb770 2.427 . S
O778 C774 1.275 . S
O779 Tb770 2.513 . S
O779 C774 1.246 . S
O780 Tb770 2.453 . S
O780 C776 1.245 . S
O781 Tb768 2.343 . S
O781 Tb770 2.596 . S
O781 C776 1.259 . S
O782 Tb770 2.374 . S
O782 C777 1.250 . S
O783 Tb768 2.353 . S
O783 C777 1.263 . S
C784 O785 1.275 . S
C784 O786 1.246 . S
O785 Tb768 2.427 . S
O785 C784 1.275 . S
O786 Tb768 2.513 . S
O786 C784 1.246 . S
C787 O771 1.245 . S
C787 O772 1.259 . S
Tb788 O791 2.453 . S
Tb788 O792 2.596 . S
Tb788 O793 2.374 . S
Tb788 O801 2.343 . S
Tb788 O803 2.353 . S
Tb788 O805 2.427 . S
Tb788 O806 2.513 . S
C789 O793 1.251 . S
C789 O795 1.263 . S
Tb790 O792 2.343 . S
Tb790 O795 2.353 . S
Tb790 O798 2.427 . S
Tb790 O799 2.513 . S
Tb790 O800 2.453 . S
Tb790 O801 2.596 . S
Tb790 O802 2.374 . S
O791 Tb788 2.453 . S
O791 C807 1.245 . S
O792 Tb788 2.596 . S
O792 Tb790 2.343 . S
O792 C807 1.259 . S
O793 Tb788 2.374 . S
O793 C789 1.251 . S
C794 O798 1.275 . S
C794 O799 1.246 . S
O795 C789 1.263 . S
O795 Tb790 2.353 . S
C796 O800 1.245 . S
C796 O801 1.259 . S
C797 O802 1.250 . S
C797 O803 1.263 . S
O798 Tb790 2.427 . S
O798 C794 1.275 . S
O799 Tb790 2.513 . S
O799 C794 1.246 . S
O800 Tb790 2.453 . S
O800 C796 1.245 . S
O801 Tb788 2.343 . S
O801 Tb790 2.596 . S
O801 C796 1.259 . S
O802 Tb790 2.374 . S
O802 C797 1.250 . S
O803 Tb788 2.353 . S
O803 C797 1.263 . S
C804 O805 1.275 . S
C804 O806 1.246 . S
O805 Tb788 2.427 . S
O805 C804 1.275 . S
O806 Tb788 2.513 . S
O806 C804 1.246 . S
C807 O791 1.245 . S
C807 O792 1.259 . S
Tb808 O811 2.453 . S
Tb808 O812 2.596 . S
Tb808 O813 2.374 . S
Tb808 O821 2.343 . S
Tb808 O823 2.353 . S
Tb808 O825 2.427 . S
Tb808 O826 2.513 . S
C809 O813 1.251 . S
C809 O815 1.263 . S
Tb810 O812 2.343 . S
Tb810 O815 2.353 . S
Tb810 O818 2.427 . S
Tb810 O819 2.513 . S
Tb810 O820 2.453 . S
Tb810 O821 2.596 . S
Tb810 O822 2.374 . S
O811 Tb808 2.453 . S
O811 C827 1.245 . S
O812 Tb808 2.596 . S
O812 Tb810 2.343 . S
O812 C827 1.259 . S
O813 Tb808 2.374 . S
O813 C809 1.251 . S
C814 O818 1.275 . S
C814 O819 1.246 . S
O815 C809 1.263 . S
O815 Tb810 2.353 . S
C816 O820 1.245 . S
C816 O821 1.259 . S
C817 O822 1.250 . S
C817 O823 1.263 . S
O818 Tb810 2.427 . S
O818 C814 1.275 . S
O819 Tb810 2.513 . S
O819 C814 1.246 . S
O820 Tb810 2.453 . S
O820 C816 1.245 . S
O821 Tb808 2.343 . S
O821 Tb810 2.596 . S
O821 C816 1.259 . S
O822 Tb810 2.374 . S
O822 C817 1.250 . S
O823 Tb808 2.353 . S
O823 C817 1.263 . S
C824 O825 1.275 . S
C824 O826 1.246 . S
O825 Tb808 2.427 . S
O825 C824 1.275 . S
O826 Tb808 2.513 . S
O826 C824 1.246 . S
C827 O811 1.245 . S
C827 O812 1.259 . S
C828 C829 1.369 . S
C828 C830 1.419 . S
C828 H832 0.930 . S
C829 C828 1.369 . S
C829 C838 1.429 . S
C830 C828 1.419 . S
C830 C831 1.363 . S
C830 H833 0.929 . S
C831 C830 1.363 . S
C831 C837 1.428 . S
H832 C828 0.930 . S
H833 C830 0.929 . S
S834 N835 1.613 . S
S834 N836 1.610 . S
N835 S834 1.613 . S
N835 C838 1.350 . S
N836 S834 1.610 . S
N836 C837 1.351 . S
C837 C831 1.428 . S
C837 N836 1.351 . S
C837 C838 1.434 . S
C838 C829 1.429 . S
C838 N835 1.350 . S
C838 C837 1.434 . S
C839 C840 1.369 . S
C839 C841 1.419 . S
C839 H843 0.930 . S
C840 C839 1.369 . S
C840 C849 1.429 . S
C841 C839 1.419 . S
C841 C842 1.363 . S
C841 H844 0.929 . S
C842 C841 1.363 . S
C842 C848 1.428 . S
H843 C839 0.930 . S
H844 C841 0.929 . S
S845 N846 1.613 . S
S845 N847 1.610 . S
N846 S845 1.613 . S
N846 C849 1.350 . S
N847 S845 1.610 . S
N847 C848 1.351 . S
C848 C842 1.428 . S
C848 N847 1.351 . S
C848 C849 1.434 . S
C849 C840 1.429 . S
C849 N846 1.350 . S
C849 C848 1.434 . S
C850 C851 1.369 . S
C850 C852 1.419 . S
C850 H854 0.930 1_554 S
C851 C850 1.369 . S
C851 C860 1.429 . S
C852 C850 1.419 . S
C852 C853 1.363 . S
C852 H855 0.929 1_554 S
C853 C852 1.363 . S
C853 C859 1.428 . S
H854 C850 0.930 1_556 S
H855 C852 0.929 1_556 S
S856 N857 1.613 . S
S856 N858 1.610 . S
N857 S856 1.613 . S
N857 C860 1.350 . S
N858 S856 1.610 . S
N858 C859 1.351 . S
C859 C853 1.428 . S
C859 N858 1.351 . S
C859 C860 1.434 . S
C860 C851 1.429 . S
C860 N857 1.350 . S
C860 C859 1.434 . S
C861 C862 1.369 . S
C861 C863 1.419 . S
C861 H865 0.930 . S
C862 C861 1.369 . S
C862 C871 1.429 . S
C863 C861 1.419 . S
C863 C864 1.363 . S
C863 H866 0.929 1_556 S
C864 C863 1.363 . S
C864 C870 1.428 . S
H865 C861 0.930 . S
H866 C863 0.929 1_554 S
S867 N868 1.613 . S
S867 N869 1.610 . S
N868 S867 1.613 . S
N868 C871 1.350 . S
N869 S867 1.610 . S
N869 C870 1.351 . S
C870 C864 1.428 . S
C870 N869 1.351 . S
C870 C871 1.434 . S
C871 C862 1.429 . S
C871 N868 1.350 . S
C871 C870 1.434 . S
C872 C873 1.369 . S
C872 C874 1.419 . S
C872 H876 0.930 . S
C873 C872 1.369 . S
C873 C882 1.429 . S
C874 C872 1.419 . S
C874 C875 1.363 . S
C874 H877 0.929 . S
C875 C874 1.363 . S
C875 C881 1.428 . S
H876 C872 0.930 . S
H877 C874 0.929 . S
S878 N879 1.613 . S
S878 N880 1.610 . S
N879 S878 1.613 . S
N879 C882 1.350 . S
N880 S878 1.610 . S
N880 C881 1.351 . S
C881 C875 1.428 . S
C881 N880 1.351 . S
C881 C882 1.434 . S
C882 C873 1.429 . S
C882 N879 1.350 . S
C882 C881 1.434 . S
C883 C884 1.369 . S
C883 C885 1.419 . S
C883 H887 0.930 . S
C884 C883 1.369 . S
C884 C893 1.429 . S
C885 C883 1.419 . S
C885 C886 1.363 . S
C885 H888 0.929 1_556 S
C886 C885 1.363 . S
C886 C892 1.428 . S
H887 C883 0.930 . S
H888 C885 0.929 1_554 S
S889 N890 1.613 . S
S889 N891 1.610 . S
N890 S889 1.613 . S
N890 C893 1.350 . S
N891 S889 1.610 . S
N891 C892 1.351 . S
C892 C886 1.428 . S
C892 N891 1.351 . S
C892 C893 1.434 . S
C893 C884 1.429 . S
C893 N890 1.350 . S
C893 C892 1.434 . S
C894 C895 1.369 . S
C894 C896 1.419 . S
C894 H898 0.930 . S
C895 C894 1.369 . S
C895 C904 1.429 . S
C896 C894 1.419 . S
C896 C897 1.363 . S
C896 H899 0.929 . S
C897 C896 1.363 . S
C897 C903 1.428 . S
H898 C894 0.930 . S
H899 C896 0.929 . S
S900 N901 1.613 . S
S900 N902 1.610 . S
N901 S900 1.613 . S
N901 C904 1.350 . S
N902 S900 1.610 . S
N902 C903 1.351 . S
C903 C897 1.428 . S
C903 N902 1.351 . S
C903 C904 1.434 . S
C904 C895 1.429 . S
C904 N901 1.350 . S
C904 C903 1.434 . S
C905 C906 1.369 . S
C905 C907 1.419 . S
C905 H909 0.930 . S
C906 C905 1.369 . S
C906 C915 1.429 . S
C907 C905 1.419 . S
C907 C908 1.363 . S
C907 H910 0.929 . S
C908 C907 1.363 . S
C908 C914 1.428 . S
H909 C905 0.930 . S
H910 C907 0.929 . S
S911 N912 1.613 . S
S911 N913 1.610 . S
N912 S911 1.613 . S
N912 C915 1.350 . S
N913 S911 1.610 . S
N913 C914 1.351 . S
C914 C908 1.428 . S
C914 N913 1.351 . S
C914 C915 1.434 . S
C915 C906 1.429 . S
C915 N912 1.350 . S
C915 C914 1.434 . S
C916 C917 1.369 . S
C916 C918 1.419 . S
C916 H920 0.930 . S
C917 C916 1.369 . S
C917 C926 1.429 . S
C918 C916 1.419 . S
C918 C919 1.363 . S
C918 H921 0.929 . S
C919 C918 1.363 . S
C919 C925 1.428 . S
H920 C916 0.930 . S
H921 C918 0.929 . S
S922 N923 1.613 . S
S922 N924 1.610 . S
N923 S922 1.613 . S
N923 C926 1.350 1_554 S
N924 S922 1.610 . S
N924 C925 1.351 1_554 S
C925 C919 1.428 . S
C925 N924 1.351 1_556 S
C925 C926 1.434 . S
C926 C917 1.429 . S
C926 N923 1.350 1_556 S
C926 C925 1.434 . S
C927 C928 1.369 . S
C927 C929 1.419 . S
C927 H931 0.930 . S
C928 C927 1.369 . S
C928 C937 1.429 . S
C929 C927 1.419 . S
C929 C930 1.363 . S
C929 H932 0.929 1_554 S
C930 C929 1.363 . S
C930 C936 1.428 . S
H931 C927 0.930 . S
H932 C929 0.929 1_556 S
S933 N934 1.613 . S
S933 N935 1.610 . S
N934 S933 1.613 . S
N934 C937 1.350 . S
N935 S933 1.610 . S
N935 C936 1.351 . S
C936 C930 1.428 . S
C936 N935 1.351 . S
C936 C937 1.434 . S
C937 C928 1.429 . S
C937 N934 1.350 . S
C937 C936 1.434 . S
C938 C939 1.369 . S
C938 C940 1.419 . S
C938 H942 0.930 . S
C939 C938 1.369 . S
C939 C948 1.429 . S
C940 C938 1.419 . S
C940 C941 1.363 . S
C940 H943 0.929 . S
C941 C940 1.363 . S
C941 C947 1.428 . S
H942 C938 0.930 . S
H943 C940 0.929 . S
S944 N945 1.613 . S
S944 N946 1.610 . S
N945 S944 1.613 . S
N945 C948 1.350 . S
N946 S944 1.610 . S
N946 C947 1.351 . S
C947 C941 1.428 . S
C947 N946 1.351 . S
C947 C948 1.434 . S
C948 C939 1.429 . S
C948 N945 1.350 . S
C948 C947 1.434 . S
C949 C950 1.369 . S
C949 C951 1.419 . S
C949 H953 0.930 . S
C950 C949 1.369 . S
C950 C959 1.429 . S
C951 C949 1.419 . S
C951 C952 1.363 . S
C951 H954 0.929 . S
C952 C951 1.363 . S
C952 C958 1.428 . S
H953 C949 0.930 . S
H954 C951 0.929 . S
S955 N956 1.613 . S
S955 N957 1.610 . S
N956 S955 1.613 . S
N956 C959 1.350 . S
N957 S955 1.610 . S
N957 C958 1.351 . S
C958 C952 1.428 . S
C958 N957 1.351 . S
C958 C959 1.434 . S
C959 C950 1.429 . S
C959 N956 1.350 . S
C959 C958 1.434 . S
C960 C961 1.370 . S
C960 C962 1.419 . S
C960 H964 0.930 . S
C961 C960 1.370 . S
C961 C970 1.433 . S
C962 C960 1.419 . S
C962 C963 1.363 . S
C962 H965 0.929 . S
C963 C962 1.363 . S
C963 C969 1.428 . S
H964 C960 0.930 . S
H965 C962 0.929 . S
S966 N967 1.613 . S
S966 N968 1.610 . S
N967 S966 1.613 . S
N967 C970 1.350 . S
N968 S966 1.610 . S
N968 C969 1.351 . S
C969 C963 1.428 . S
C969 N968 1.351 . S
C969 C970 1.434 . S
C970 C961 1.433 . S
C970 N967 1.350 . S
C970 C969 1.434 . S
C971 C972 1.369 . S
C971 C973 1.419 . S
C971 H975 0.930 . S
C972 C971 1.369 . S
C972 C981 1.429 . S
C973 C971 1.419 . S
C973 C974 1.363 . S
C973 H976 0.929 . S
C974 C973 1.363 . S
C974 C980 1.428 . S
H975 C971 0.930 . S
H976 C973 0.929 . S
S977 N978 1.613 . S
S977 N979 1.610 . S
N978 S977 1.613 . S
N978 C981 1.350 . S
N979 S977 1.610 . S
N979 C980 1.351 . S
C980 C974 1.428 . S
C980 N979 1.351 . S
C980 C981 1.434 . S
C981 C972 1.429 . S
C981 N978 1.350 . S
C981 C980 1.434 . S
C982 C983 1.369 . S
C982 C984 1.419 . S
C982 H986 0.930 . S
C983 C982 1.369 . S
C983 C992 1.429 . S
C984 C982 1.419 . S
C984 C985 1.363 . S
C984 H987 0.929 . S
C985 C984 1.363 . S
C985 C991 1.428 . S
H986 C982 0.930 . S
H987 C984 0.929 . S
S988 N989 1.613 . S
S988 N990 1.610 . S
N989 S988 1.613 . S
N989 C992 1.350 . S
N990 S988 1.610 . S
N990 C991 1.351 . S
C991 C985 1.428 . S
C991 N990 1.351 . S
C991 C992 1.434 . S
C992 C983 1.429 . S
C992 N989 1.350 . S
C992 C991 1.434 . S
C993 C994 1.369 . S
C993 C995 1.419 . S
C993 H997 0.930 . S
C994 C993 1.369 . S
C994 C1003 1.429 . S
C995 C993 1.419 . S
C995 C996 1.363 . S
C995 H998 0.929 . S
C996 C995 1.363 . S
C996 C1002 1.428 . S
H997 C993 0.930 . S
H998 C995 0.929 . S
S999 N1000 1.613 . S
S999 N1001 1.610 . S
N1000 S999 1.613 . S
N1000 C1003 1.350 . S
N1001 S999 1.610 . S
N1001 C1002 1.351 . S
C1002 C996 1.428 . S
C1002 N1001 1.351 . S
C1002 C1003 1.434 . S
C1003 C994 1.429 . S
C1003 N1000 1.350 . S
C1003 C1002 1.434 . S
C1004 C1005 1.369 . S
C1004 C1006 1.419 . S
C1004 H1008 0.930 . S
C1005 C1004 1.369 . S
C1005 C1014 1.429 . S
C1006 C1004 1.419 . S
C1006 C1007 1.363 . S
C1006 H1009 0.929 . S
C1007 C1006 1.363 . S
C1007 C1013 1.428 . S
H1008 C1004 0.930 . S
H1009 C1006 0.929 . S
S1010 N1011 1.613 . S
S1010 N1012 1.610 . S
N1011 S1010 1.613 . S
N1011 C1014 1.350 . S
N1012 S1010 1.610 . S
N1012 C1013 1.351 . S
C1013 C1007 1.428 . S
C1013 N1012 1.351 . S
C1013 C1014 1.434 . S
C1014 C1005 1.429 . S
C1014 N1011 1.350 . S
C1014 C1013 1.434 . S
C1015 C1016 1.369 . S
C1015 C1017 1.419 . S
C1015 H1019 0.930 . S
C1016 C1015 1.369 . S
C1016 C1025 1.429 . S
C1017 C1015 1.419 . S
C1017 C1018 1.363 . S
C1017 H1020 0.929 . S
C1018 C1017 1.363 . S
C1018 C1024 1.428 . S
H1019 C1015 0.930 . S
H1020 C1017 0.929 . S
S1021 N1022 1.613 . S
S1021 N1023 1.610 . S
N1022 S1021 1.613 . S
N1022 C1025 1.350 . S
N1023 S1021 1.610 . S
N1023 C1024 1.351 . S
C1024 C1018 1.428 . S
C1024 N1023 1.351 . S
C1024 C1025 1.434 . S
C1025 C1016 1.429 . S
C1025 N1022 1.350 . S
C1025 C1024 1.434 . S
C1026 C1027 1.369 . S
C1026 C1028 1.419 . S
C1026 H1030 0.930 . S
C1027 C1026 1.369 . S
C1027 C1036 1.429 . S
C1028 C1026 1.419 . S
C1028 C1029 1.363 . S
C1028 H1031 0.929 . S
C1029 C1028 1.363 . S
C1029 C1035 1.428 . S
H1030 C1026 0.930 . S
H1031 C1028 0.929 . S
S1032 N1033 1.613 . S
S1032 N1034 1.610 . S
N1033 S1032 1.613 . S
N1033 C1036 1.350 . S
N1034 S1032 1.610 . S
N1034 C1035 1.351 . S
C1035 C1029 1.428 . S
C1035 N1034 1.351 . S
C1035 C1036 1.434 . S
C1036 C1027 1.429 . S
C1036 N1033 1.350 . S
C1036 C1035 1.434 . S
C1037 C1038 1.369 . S
C1037 C1039 1.419 . S
C1037 H1041 0.930 . S
C1038 C1037 1.369 . S
C1038 C1047 1.429 . S
C1039 C1037 1.419 . S
C1039 C1040 1.363 . S
C1039 H1042 0.929 . S
C1040 C1039 1.363 . S
C1040 C1046 1.428 . S
H1041 C1037 0.930 . S
H1042 C1039 0.929 . S
S1043 N1044 1.613 . S
S1043 N1045 1.610 . S
N1044 S1043 1.613 . S
N1044 C1047 1.350 . S
N1045 S1043 1.610 . S
N1045 C1046 1.351 . S
C1046 C1040 1.428 . S
C1046 N1045 1.351 . S
C1046 C1047 1.434 . S
C1047 C1038 1.429 . S
C1047 N1044 1.350 . S
C1047 C1046 1.434 . S
C1048 C1049 1.369 . S
C1048 C1050 1.419 . S
C1048 H1052 0.930 . S
C1049 C1048 1.369 . S
C1049 C1058 1.429 . S
C1050 C1048 1.419 . S
C1050 C1051 1.363 . S
C1050 H1053 0.929 . S
C1051 C1050 1.363 . S
C1051 C1057 1.428 . S
H1052 C1048 0.930 . S
H1053 C1050 0.929 . S
S1054 N1055 1.613 . S
S1054 N1056 1.610 . S
N1055 S1054 1.613 . S
N1055 C1058 1.350 . S
N1056 S1054 1.610 . S
N1056 C1057 1.351 . S
C1057 C1051 1.428 . S
C1057 N1056 1.351 . S
C1057 C1058 1.434 . S
C1058 C1049 1.429 . S
C1058 N1055 1.350 . S
C1058 C1057 1.434 . S
C1059 C1060 1.369 . S
C1059 C1061 1.419 . S
C1059 H1063 0.930 . S
C1060 C1059 1.369 . S
C1060 C1069 1.429 . S
C1061 C1059 1.419 . S
C1061 C1062 1.363 . S
C1061 H1064 0.929 . S
C1062 C1061 1.363 . S
C1062 C1068 1.428 . S
H1063 C1059 0.930 . S
H1064 C1061 0.929 . S
S1065 N1066 1.613 . S
S1065 N1067 1.610 . S
N1066 S1065 1.613 . S
N1066 C1069 1.350 . S
N1067 S1065 1.610 . S
N1067 C1068 1.351 . S
C1068 C1062 1.428 . S
C1068 N1067 1.351 . S
C1068 C1069 1.434 . S
C1069 C1060 1.429 . S
C1069 N1066 1.350 . S
C1069 C1068 1.434 . S
C1070 C1071 1.369 . S
C1070 C1072 1.419 . S
C1070 H1074 0.930 1_455 S
C1071 C1070 1.369 . S
C1071 C1080 1.429 . S
C1072 C1070 1.419 . S
C1072 C1073 1.363 . S
C1072 H1075 0.929 . S
C1073 C1072 1.363 . S
C1073 C1079 1.428 . S
H1074 C1070 0.930 1_655 S
H1075 C1072 0.929 . S
S1076 N1077 1.613 . S
S1076 N1078 1.610 . S
N1077 S1076 1.613 . S
N1077 C1080 1.350 . S
N1078 S1076 1.610 . S
N1078 C1079 1.351 . S
C1079 C1073 1.428 . S
C1079 N1078 1.351 . S
C1079 C1080 1.434 . S
C1080 C1071 1.429 . S
C1080 N1077 1.350 . S
C1080 C1079 1.434 . S
C1081 C1082 1.369 . S
C1081 C1083 1.419 . S
C1081 H1085 0.930 . S
C1082 C1081 1.369 . S
C1082 C1091 1.429 . S
C1083 C1081 1.419 . S
C1083 C1084 1.363 . S
C1083 H1086 0.929 . S
C1084 C1083 1.363 . S
C1084 C1090 1.428 . S
H1085 C1081 0.930 . S
H1086 C1083 0.929 . S
S1087 N1088 1.613 . S
S1087 N1089 1.610 . S
N1088 S1087 1.613 . S
N1088 C1091 1.350 . S
N1089 S1087 1.610 . S
N1089 C1090 1.351 . S
C1090 C1084 1.428 . S
C1090 N1089 1.351 . S
C1090 C1091 1.434 . S
C1091 C1082 1.429 . S
C1091 N1088 1.350 . S
C1091 C1090 1.434 . S
C1092 C1093 1.369 . S
C1092 C1094 1.419 . S
C1092 H1096 0.930 . S
C1093 C1092 1.369 . S
C1093 C1102 1.429 . S
C1094 C1092 1.419 . S
C1094 C1095 1.363 . S
C1094 H1097 0.929 . S
C1095 C1094 1.363 . S
C1095 C1101 1.428 . S
H1096 C1092 0.930 . S
H1097 C1094 0.929 . S
S1098 N1099 1.613 . S
S1098 N1100 1.610 . S
N1099 S1098 1.613 . S
N1099 C1102 1.350 . S
N1100 S1098 1.610 . S
N1100 C1101 1.351 . S
C1101 C1095 1.428 . S
C1101 N1100 1.351 . S
C1101 C1102 1.434 . S
C1102 C1093 1.429 . S
C1102 N1099 1.350 . S
C1102 C1101 1.434 . S
C1103 C1104 1.369 . S
C1103 C1105 1.419 . S
C1103 H1107 0.930 . S
C1104 C1103 1.369 . S
C1104 C1113 1.429 . S
C1105 C1103 1.419 . S
C1105 C1106 1.363 . S
C1105 H1108 0.929 . S
C1106 C1105 1.363 . S
C1106 C1112 1.428 . S
H1107 C1103 0.930 . S
H1108 C1105 0.929 . S
S1109 N1110 1.613 . S
S1109 N1111 1.610 . S
N1110 S1109 1.613 . S
N1110 C1113 1.350 . S
N1111 S1109 1.610 . S
N1111 C1112 1.351 . S
C1112 C1106 1.428 . S
C1112 N1111 1.351 . S
C1112 C1113 1.434 . S
C1113 C1104 1.429 . S
C1113 N1110 1.350 . S
C1113 C1112 1.434 . S
C1114 C1115 1.369 . S
C1114 C1116 1.419 . S
C1114 H1118 0.930 . S
C1115 C1114 1.369 . S
C1115 C1124 1.429 . S
C1116 C1114 1.419 . S
C1116 C1117 1.363 . S
C1116 H1119 0.929 . S
C1117 C1116 1.363 . S
C1117 C1123 1.428 . S
H1118 C1114 0.930 . S
H1119 C1116 0.929 . S
S1120 N1121 1.613 . S
S1120 N1122 1.610 . S
N1121 S1120 1.613 . S
N1121 C1124 1.350 . S
N1122 S1120 1.610 . S
N1122 C1123 1.351 . S
C1123 C1117 1.428 . S
C1123 N1122 1.351 . S
C1123 C1124 1.434 . S
C1124 C1115 1.429 . S
C1124 N1121 1.350 . S
C1124 C1123 1.434 . S
C1125 C1126 1.369 . S
C1125 C1127 1.419 . S
C1125 H1129 0.930 . S
C1126 C1125 1.369 . S
C1126 C1135 1.429 . S
C1127 C1125 1.419 . S
C1127 C1128 1.363 . S
C1127 H1130 0.929 . S
C1128 C1127 1.363 . S
C1128 C1134 1.428 . S
H1129 C1125 0.930 . S
H1130 C1127 0.929 . S
S1131 N1132 1.613 . S
S1131 N1133 1.610 . S
N1132 S1131 1.613 . S
N1132 C1135 1.350 . S
N1133 S1131 1.610 . S
N1133 C1134 1.351 . S
C1134 C1128 1.428 . S
C1134 N1133 1.351 . S
C1134 C1135 1.434 . S
C1135 C1126 1.429 . S
C1135 N1132 1.350 . S
C1135 C1134 1.434 . S
C1136 C1137 1.369 . S
C1136 C1138 1.419 . S
C1136 H1140 0.930 . S
C1137 C1136 1.369 . S
C1137 C1146 1.429 . S
C1138 C1136 1.419 . S
C1138 C1139 1.363 . S
C1138 H1141 0.929 . S
C1139 C1138 1.363 . S
C1139 C1145 1.428 . S
H1140 C1136 0.930 . S
H1141 C1138 0.929 . S
S1142 N1143 1.613 . S
S1142 N1144 1.610 . S
N1143 S1142 1.613 . S
N1143 C1146 1.350 . S
N1144 S1142 1.610 . S
N1144 C1145 1.351 . S
C1145 C1139 1.428 . S
C1145 N1144 1.351 . S
C1145 C1146 1.434 . S
C1146 C1137 1.429 . S
C1146 N1143 1.350 . S
C1146 C1145 1.434 . S
C1147 C1148 1.369 . S
C1147 C1149 1.419 . S
C1147 H1151 0.930 . S
C1148 C1147 1.369 . S
C1148 C1157 1.429 . S
C1149 C1147 1.419 . S
C1149 C1150 1.363 . S
C1149 H1152 0.929 . S
C1150 C1149 1.363 . S
C1150 C1156 1.428 . S
H1151 C1147 0.930 . S
H1152 C1149 0.929 . S
S1153 N1154 1.613 . S
S1153 N1155 1.610 . S
N1154 S1153 1.613 . S
N1154 C1157 1.350 . S
N1155 S1153 1.610 . S
N1155 C1156 1.351 . S
C1156 C1150 1.428 . S
C1156 N1155 1.351 . S
C1156 C1157 1.434 . S
C1157 C1148 1.429 . S
C1157 N1154 1.350 . S
C1157 C1156 1.434 . S
C1158 C1159 1.369 1_655 S
C1158 C1160 1.419 . S
C1158 H1162 0.930 . S
C1159 C1158 1.369 1_455 S
C1159 C1168 1.429 1_455 S
C1160 C1158 1.419 . S
C1160 C1161 1.363 . S
C1160 H1163 0.929 . S
C1161 C1160 1.363 . S
C1161 C1167 1.428 . S
H1162 C1158 0.930 . S
H1163 C1160 0.929 . S
S1164 N1165 1.613 . S
S1164 N1166 1.610 . S
N1165 S1164 1.613 . S
N1165 C1168 1.350 . S
N1166 S1164 1.610 . S
N1166 C1167 1.351 . S
C1167 C1161 1.428 . S
C1167 N1166 1.351 . S
C1167 C1168 1.434 . S
C1168 C1159 1.429 1_655 S
C1168 N1165 1.350 . S
C1168 C1167 1.434 . S
C1169 C1170 1.369 . S
C1169 C1171 1.419 . S
C1169 H1173 0.930 . S
C1170 C1169 1.369 . S
C1170 C1179 1.429 . S
C1171 C1169 1.419 . S
C1171 C1172 1.363 . S
C1171 H1174 0.929 . S
C1172 C1171 1.363 . S
C1172 C1178 1.428 . S
H1173 C1169 0.930 . S
H1174 C1171 0.929 . S
S1175 N1176 1.613 . S
S1175 N1177 1.610 . S
N1176 S1175 1.613 . S
N1176 C1179 1.350 . S
N1177 S1175 1.610 . S
N1177 C1178 1.351 . S
C1178 C1172 1.428 . S
C1178 N1177 1.351 . S
C1178 C1179 1.434 . S
C1179 C1170 1.429 . S
C1179 N1176 1.350 . S
C1179 C1178 1.434 . S
C1180 C1181 1.369 . S
C1180 C1182 1.419 . S
C1180 H1184 0.930 . S
C1181 C1180 1.369 . S
C1181 C1190 1.429 . S
C1182 C1180 1.419 . S
C1182 C1183 1.363 . S
C1182 H1185 0.929 . S
C1183 C1182 1.363 . S
C1183 C1189 1.428 . S
H1184 C1180 0.930 . S
H1185 C1182 0.929 . S
S1186 N1187 1.613 . S
S1186 N1188 1.610 . S
N1187 S1186 1.613 . S
N1187 C1190 1.350 . S
N1188 S1186 1.610 . S
N1188 C1189 1.351 . S
C1189 C1183 1.428 . S
C1189 N1188 1.351 . S
C1189 C1190 1.434 . S
C1190 C1181 1.429 . S
C1190 N1187 1.350 . S
C1190 C1189 1.434 . S
C1191 C1192 1.369 . S
C1191 C1193 1.419 . S
C1191 H1195 0.930 . S
C1192 C1191 1.369 . S
C1192 C1201 1.429 . S
C1193 C1191 1.419 . S
C1193 C1194 1.363 . S
C1193 H1196 0.929 . S
C1194 C1193 1.363 . S
C1194 C1200 1.428 . S
H1195 C1191 0.930 . S
H1196 C1193 0.929 . S
S1197 N1198 1.613 . S
S1197 N1199 1.610 . S
N1198 S1197 1.613 . S
N1198 C1201 1.350 . S
N1199 S1197 1.610 . S
N1199 C1200 1.351 . S
C1200 C1194 1.428 . S
C1200 N1199 1.351 . S
C1200 C1201 1.434 . S
C1201 C1192 1.429 . S
C1201 N1198 1.350 . S
C1201 C1200 1.434 . S
C1202 C1203 1.369 . S
C1202 C1204 1.419 . S
C1202 H1206 0.930 . S
C1203 C1202 1.369 . S
C1203 C1212 1.429 . S
C1204 C1202 1.419 . S
C1204 C1205 1.363 . S
C1204 H1207 0.929 . S
C1205 C1204 1.363 . S
C1205 C1211 1.428 . S
H1206 C1202 0.930 . S
H1207 C1204 0.929 . S
S1208 N1209 1.613 . S
S1208 N1210 1.610 . S
N1209 S1208 1.613 . S
N1209 C1212 1.350 . S
N1210 S1208 1.610 . S
N1210 C1211 1.351 . S
C1211 C1205 1.428 . S
C1211 N1210 1.351 . S
C1211 C1212 1.434 . S
C1212 C1203 1.429 . S
C1212 N1209 1.350 . S
C1212 C1211 1.434 . S
C1213 C1214 1.369 . S
C1213 C1215 1.419 . S
C1213 H1217 0.930 . S
C1214 C1213 1.369 . S
C1214 C1223 1.429 . S
C1215 C1213 1.419 . S
C1215 C1216 1.363 . S
C1215 H1218 0.929 . S
C1216 C1215 1.363 . S
C1216 C1222 1.428 . S
H1217 C1213 0.930 . S
H1218 C1215 0.929 . S
S1219 N1220 1.613 . S
S1219 N1221 1.610 . S
N1220 S1219 1.613 . S
N1220 C1223 1.350 . S
N1221 S1219 1.610 . S
N1221 C1222 1.351 . S
C1222 C1216 1.428 . S
C1222 N1221 1.351 . S
C1222 C1223 1.434 . S
C1223 C1214 1.429 . S
C1223 N1220 1.350 . S
C1223 C1222 1.434 . S
C1224 C1225 1.369 1_545 S
C1224 C1226 1.419 . S
C1224 H1228 0.930 . S
C1225 C1224 1.369 1_565 S
C1225 C1234 1.429 . S
C1226 C1224 1.419 . S
C1226 C1227 1.363 1_545 S
C1226 H1229 0.929 . S
C1227 C1226 1.363 1_565 S
C1227 C1233 1.428 . S
H1228 C1224 0.930 . S
H1229 C1226 0.929 . S
S1230 N1231 1.613 . S
S1230 N1232 1.610 . S
N1231 S1230 1.613 . S
N1231 C1234 1.350 . S
N1232 S1230 1.610 . S
N1232 C1233 1.351 . S
C1233 C1227 1.428 . S
C1233 N1232 1.351 . S
C1233 C1234 1.434 . S
C1234 C1225 1.429 . S
C1234 N1231 1.350 . S
C1234 C1233 1.434 . S
C1235 C1236 1.369 . S
C1235 C1237 1.419 . S
C1235 H1239 0.930 . S
C1236 C1235 1.369 . S
C1236 C1245 1.429 . S
C1237 C1235 1.419 . S
C1237 C1238 1.363 . S
C1237 H1240 0.929 . S
C1238 C1237 1.363 . S
C1238 C1244 1.428 . S
H1239 C1235 0.930 . S
H1240 C1237 0.929 . S
S1241 N1242 1.613 . S
S1241 N1243 1.610 . S
N1242 S1241 1.613 . S
N1242 C1245 1.350 . S
N1243 S1241 1.610 . S
N1243 C1244 1.351 . S
C1244 C1238 1.428 . S
C1244 N1243 1.351 . S
C1244 C1245 1.434 . S
C1245 C1236 1.429 . S
C1245 N1242 1.350 . S
C1245 C1244 1.434 . S
C1246 C1247 1.369 . S
C1246 C1248 1.419 . S
C1246 H1250 0.930 . S
C1247 C1246 1.369 . S
C1247 C1256 1.429 . S
C1248 C1246 1.419 . S
C1248 C1249 1.363 . S
C1248 H1251 0.929 . S
C1249 C1248 1.363 . S
C1249 C1255 1.428 . S
H1250 C1246 0.930 . S
H1251 C1248 0.929 . S
S1252 N1253 1.613 . S
S1252 N1254 1.610 . S
N1253 S1252 1.613 . S
N1253 C1256 1.350 . S
N1254 S1252 1.610 . S
N1254 C1255 1.351 . S
C1255 C1249 1.428 . S
C1255 N1254 1.351 . S
C1255 C1256 1.434 . S
C1256 C1247 1.429 . S
C1256 N1253 1.350 . S
C1256 C1255 1.434 . S
C1257 C1258 1.369 . S
C1257 C1259 1.419 . S
C1257 H1261 0.930 . S
C1258 C1257 1.369 . S
C1258 C1267 1.429 1_655 S
C1259 C1257 1.419 . S
C1259 C1260 1.363 . S
C1259 H1262 0.929 . S
C1260 C1259 1.363 . S
C1260 C1266 1.428 1_655 S
H1261 C1257 0.930 . S
H1262 C1259 0.929 . S
S1263 N1264 1.613 . S
S1263 N1265 1.610 . S
N1264 S1263 1.613 . S
N1264 C1267 1.350 . S
N1265 S1263 1.610 . S
N1265 C1266 1.351 . S
C1266 C1260 1.428 1_455 S
C1266 N1265 1.351 . S
C1266 C1267 1.434 . S
C1267 C1258 1.429 1_455 S
C1267 N1264 1.350 . S
C1267 C1266 1.434 . S
C1268 C1269 1.369 . S
C1268 C1270 1.419 . S
C1268 H1272 0.930 . S
C1269 C1268 1.369 . S
C1269 C1278 1.429 . S
C1270 C1268 1.419 . S
C1270 C1271 1.363 . S
C1270 H1273 0.929 . S
C1271 C1270 1.363 . S
C1271 C1277 1.428 . S
H1272 C1268 0.930 . S
H1273 C1270 0.929 . S
S1274 N1275 1.613 . S
S1274 N1276 1.610 . S
N1275 S1274 1.613 . S
N1275 C1278 1.350 . S
N1276 S1274 1.610 . S
N1276 C1277 1.351 . S
C1277 C1271 1.428 . S
C1277 N1276 1.351 . S
C1277 C1278 1.434 . S
C1278 C1269 1.429 . S
C1278 N1275 1.350 . S
C1278 C1277 1.434 . S
C1279 C1280 1.373 . S
C1279 C1281 1.418 1_545 S
C1279 H1283 0.927 1_545 S
C1280 C1279 1.373 . S
C1280 C1289 1.429 . S
C1281 C1279 1.418 1_565 S
C1281 C1282 1.363 1_565 S
C1281 H1284 0.929 . S
C1282 C1281 1.363 1_545 S
C1282 C1288 1.428 . S
H1283 C1279 0.927 1_565 S
H1284 C1281 0.929 . S
S1285 N1286 1.613 . S
S1285 N1287 1.610 . S
N1286 S1285 1.613 . S
N1286 C1289 1.350 . S
N1287 S1285 1.610 . S
N1287 C1288 1.351 . S
C1288 C1282 1.428 . S
C1288 N1287 1.351 . S
C1288 C1289 1.434 . S
C1289 C1280 1.429 . S
C1289 N1286 1.350 . S
C1289 C1288 1.434 . S
C1290 C1291 1.369 . S
C1290 C1292 1.419 . S
C1290 H1294 0.930 . S
C1291 C1290 1.369 . S
C1291 C1300 1.429 . S
C1292 C1290 1.419 . S
C1292 C1293 1.363 . S
C1292 H1295 0.929 . S
C1293 C1292 1.363 . S
C1293 C1299 1.428 . S
H1294 C1290 0.930 . S
H1295 C1292 0.929 . S
S1296 N1297 1.613 . S
S1296 N1298 1.610 . S
N1297 S1296 1.613 . S
N1297 C1300 1.350 . S
N1298 S1296 1.610 . S
N1298 C1299 1.351 . S
C1299 C1293 1.428 . S
C1299 N1298 1.351 . S
C1299 C1300 1.434 . S
C1300 C1291 1.429 . S
C1300 N1297 1.350 . S
C1300 C1299 1.434 . S
C1301 C1302 1.369 . S
C1301 C1303 1.419 . S
C1301 H1305 0.930 . S
C1302 C1301 1.369 . S
C1302 C1311 1.429 . S
C1303 C1301 1.419 . S
C1303 C1304 1.363 . S
C1303 H1306 0.929 . S
C1304 C1303 1.363 . S
C1304 C1310 1.428 . S
H1305 C1301 0.930 . S
H1306 C1303 0.929 . S
S1307 N1308 1.613 . S
S1307 N1309 1.610 . S
N1308 S1307 1.613 . S
N1308 C1311 1.350 . S
N1309 S1307 1.610 . S
N1309 C1310 1.351 . S
C1310 C1304 1.428 . S
C1310 N1309 1.351 . S
C1310 C1311 1.434 . S
C1311 C1302 1.429 . S
C1311 N1308 1.350 . S
C1311 C1310 1.434 . S
C1312 C1313 1.369 . S
C1312 C1314 1.419 . S
C1312 H1316 0.930 . S
C1313 C1312 1.369 . S
C1313 C1322 1.429 . S
C1314 C1312 1.419 . S
C1314 C1315 1.363 . S
C1314 H1317 0.929 . S
C1315 C1314 1.363 . S
C1315 C1321 1.428 . S
H1316 C1312 0.930 . S
H1317 C1314 0.929 . S
S1318 N1319 1.613 . S
S1318 N1320 1.610 . S
N1319 S1318 1.613 . S
N1319 C1322 1.350 . S
N1320 S1318 1.610 . S
N1320 C1321 1.351 . S
C1321 C1315 1.428 . S
C1321 N1320 1.351 . S
C1321 C1322 1.434 . S
C1322 C1313 1.429 . S
C1322 N1319 1.350 . S
C1322 C1321 1.434 . S
C1323 C1324 1.369 . S
C1323 C1325 1.419 . S
C1323 H1327 0.930 . S
C1324 C1323 1.369 . S
C1324 C1333 1.429 . S
C1325 C1323 1.419 . S
C1325 C1326 1.363 . S
C1325 H1328 0.929 . S
C1326 C1325 1.363 . S
C1326 C1332 1.428 . S
H1327 C1323 0.930 . S
H1328 C1325 0.929 . S
S1329 N1330 1.613 . S
S1329 N1331 1.610 . S
N1330 S1329 1.613 . S
N1330 C1333 1.350 . S
N1331 S1329 1.610 . S
N1331 C1332 1.351 . S
C1332 C1326 1.428 . S
C1332 N1331 1.351 . S
C1332 C1333 1.434 . S
C1333 C1324 1.429 . S
C1333 N1330 1.350 . S
C1333 C1332 1.434 . S
C1334 C1335 1.369 . S
C1334 C1336 1.419 . S
C1334 H1338 0.930 . S
C1335 C1334 1.369 . S
C1335 C1344 1.429 . S
C1336 C1334 1.419 . S
C1336 C1337 1.363 . S
C1336 H1339 0.929 . S
C1337 C1336 1.363 . S
C1337 C1343 1.428 . S
H1338 C1334 0.930 . S
H1339 C1336 0.929 . S
S1340 N1341 1.613 . S
S1340 N1342 1.610 . S
N1341 S1340 1.613 . S
N1341 C1344 1.350 . S
N1342 S1340 1.610 . S
N1342 C1343 1.351 . S
C1343 C1337 1.428 . S
C1343 N1342 1.351 . S
C1343 C1344 1.434 . S
C1344 C1335 1.429 . S
C1344 N1341 1.350 . S
C1344 C1343 1.434 . S
C1345 C1346 1.369 . S
C1345 C1347 1.419 . S
C1345 H1349 0.930 . S
C1346 C1345 1.369 . S
C1346 C1355 1.429 . S
C1347 C1345 1.419 . S
C1347 C1348 1.363 . S
C1347 H1350 0.929 . S
C1348 C1347 1.363 . S
C1348 C1354 1.428 . S
H1349 C1345 0.930 . S
H1350 C1347 0.929 . S
S1351 N1352 1.613 . S
S1351 N1353 1.610 . S
N1352 S1351 1.613 . S
N1352 C1355 1.350 . S
N1353 S1351 1.610 . S
N1353 C1354 1.351 . S
C1354 C1348 1.428 . S
C1354 N1353 1.351 . S
C1354 C1355 1.434 . S
C1355 C1346 1.429 . S
C1355 N1352 1.350 . S
C1355 C1354 1.434 . S
C1356 C1357 1.369 . S
C1356 C1358 1.419 . S
C1356 H1360 0.930 . S
C1357 C1356 1.369 . S
C1357 C1366 1.429 . S
C1358 C1356 1.419 . S
C1358 C1359 1.363 . S
C1358 H1361 0.929 . S
C1359 C1358 1.363 . S
C1359 C1365 1.428 . S
H1360 C1356 0.930 . S
H1361 C1358 0.929 . S
S1362 N1363 1.613 . S
S1362 N1364 1.610 . S
N1363 S1362 1.613 . S
N1363 C1366 1.350 . S
N1364 S1362 1.610 . S
N1364 C1365 1.351 . S
C1365 C1359 1.428 . S
C1365 N1364 1.351 . S
C1365 C1366 1.434 . S
C1366 C1357 1.429 . S
C1366 N1363 1.350 . S
C1366 C1365 1.434 . S
C1367 C1368 1.369 . S
C1367 C1369 1.419 . S
C1367 H1371 0.930 . S
C1368 C1367 1.369 . S
C1368 C1377 1.429 . S
C1369 C1367 1.419 . S
C1369 C1370 1.363 . S
C1369 H1372 0.929 . S
C1370 C1369 1.363 . S
C1370 C1376 1.428 . S
H1371 C1367 0.930 . S
H1372 C1369 0.929 . S
S1373 N1374 1.613 . S
S1373 N1375 1.610 . S
N1374 S1373 1.613 . S
N1374 C1377 1.350 . S
N1375 S1373 1.610 . S
N1375 C1376 1.351 . S
C1376 C1370 1.428 . S
C1376 N1375 1.351 . S
C1376 C1377 1.434 . S
C1377 C1368 1.429 . S
C1377 N1374 1.350 . S
C1377 C1376 1.434 . S
C1378 C1379 1.369 . S
C1378 C1380 1.419 . S
C1378 H1382 0.930 . S
C1379 C1378 1.369 . S
C1379 C1388 1.429 . S
C1380 C1378 1.419 . S
C1380 C1381 1.363 . S
C1380 H1383 0.929 . S
C1381 C1380 1.363 . S
C1381 C1387 1.428 . S
H1382 C1378 0.930 . S
H1383 C1380 0.929 . S
S1384 N1385 1.613 . S
S1384 N1386 1.610 . S
N1385 S1384 1.613 . S
N1385 C1388 1.350 . S
N1386 S1384 1.610 . S
N1386 C1387 1.351 . S
C1387 C1381 1.428 . S
C1387 N1386 1.351 . S
C1387 C1388 1.434 . S
C1388 C1379 1.429 . S
C1388 N1385 1.350 . S
C1388 C1387 1.434 . S
C1389 C1390 1.369 . S
C1389 C1391 1.419 . S
C1389 H1393 0.930 . S
C1390 C1389 1.369 . S
C1390 C1399 1.429 . S
C1391 C1389 1.419 . S
C1391 C1392 1.363 . S
C1391 H1394 0.929 . S
C1392 C1391 1.363 . S
C1392 C1398 1.428 . S
H1393 C1389 0.930 . S
H1394 C1391 0.929 . S
S1395 N1396 1.613 . S
S1395 N1397 1.610 . S
N1396 S1395 1.613 . S
N1396 C1399 1.350 . S
N1397 S1395 1.610 . S
N1397 C1398 1.351 . S
C1398 C1392 1.428 . S
C1398 N1397 1.351 . S
C1398 C1399 1.434 . S
C1399 C1390 1.429 . S
C1399 N1396 1.350 . S
C1399 C1398 1.434 . S
C1400 C1401 1.369 . S
C1400 C1402 1.419 . S
C1400 H1404 0.930 . S
C1401 C1400 1.369 . S
C1401 C1410 1.429 . S
C1402 C1400 1.419 . S
C1402 C1403 1.363 . S
C1402 H1405 0.929 . S
C1403 C1402 1.363 . S
C1403 C1409 1.428 . S
H1404 C1400 0.930 . S
H1405 C1402 0.929 . S
S1406 N1407 1.613 . S
S1406 N1408 1.610 . S
N1407 S1406 1.613 . S
N1407 C1410 1.350 . S
N1408 S1406 1.610 . S
N1408 C1409 1.351 . S
C1409 C1403 1.428 . S
C1409 N1408 1.351 . S
C1409 C1410 1.434 . S
C1410 C1401 1.429 . S
C1410 N1407 1.350 . S
C1410 C1409 1.434 . S
C1411 C1412 1.369 . S
C1411 C1413 1.419 . S
C1411 H1415 0.930 . S
C1412 C1411 1.369 . S
C1412 C1421 1.429 . S
C1413 C1411 1.419 . S
C1413 C1414 1.363 . S
C1413 H1416 0.929 . S
C1414 C1413 1.363 . S
C1414 C1420 1.428 . S
H1415 C1411 0.930 . S
H1416 C1413 0.929 . S
S1417 N1418 1.613 . S
S1417 N1419 1.610 . S
N1418 S1417 1.613 . S
N1418 C1421 1.350 . S
N1419 S1417 1.610 . S
N1419 C1420 1.351 . S
C1420 C1414 1.428 . S
C1420 N1419 1.351 . S
C1420 C1421 1.434 . S
C1421 C1412 1.429 . S
C1421 N1418 1.350 . S
C1421 C1420 1.434 . S
C829 C469 1.606 . S
C831 C654 1.569 . S
C840 C505 1.529 . S
C842 C674 1.483 . S
C851 C433 1.593 . S
C853 C697 1.572 . S
C862 C397 1.510 . S
C864 C677 1.494 . S
C875 C694 1.465 . S
C873 C325 1.486 . S
C884 C361 1.537 . S
C886 C657 1.520 . S
C897 C664 1.574 . S
C895 C421 1.611 . S
C908 C684 1.487 . S
C906 C349 1.525 . S
C917 C385 1.591 . S
C919 C689 1.570 . S
C928 C493 1.507 . S
C930 C669 1.495 . S
C939 C529 1.497 . S
C941 C704 1.465 . S
C952 C649 1.517 . S
C950 C457 1.545 . S
C963 C714 1.575 . S
C961 C37 1.597 1_455 S
C972 C73 1.527 . S
C974 C734 1.487 . S
C983 C1 1.596 1_565 S
C985 C757 1.568 . S
C994 C613 1.513 . S
C996 C737 1.489 . S
C1005 C541 1.486 . S
C1007 C754 1.471 . S
C1016 C577 1.540 . S
C1018 C717 1.516 . S
C1027 C637 1.611 . S
C1029 C724 1.575 . S
C1038 C565 1.527 . S
C1040 C744 1.482 . S
C1051 C749 1.571 . S
C1049 C601 1.590 . S
C1060 C61 1.509 1_565 S
C1062 C729 1.491 . S
C1073 C764 1.470 . S
C1071 C97 1.496 1_455 S
C1082 C25 1.544 . S
C1084 C709 1.518 . S
C1095 C774 1.570 . S
C1093 C253 1.606 . S
C1104 C289 1.526 . S
C1106 C794 1.485 . S
C1117 C817 1.573 . S
C1115 C217 1.592 . S
C1128 C797 1.494 . S
C1126 C181 1.510 1_545 S
C1139 C814 1.470 . S
C1137 C109 1.483 1_655 S
C1148 C145 1.535 . S
C1150 C777 1.521 . S
C1159 C205 1.614 . S
C1161 C784 1.571 . S
C1170 C133 1.528 . S
C1172 C804 1.481 . S
C1183 C809 1.570 . S
C1181 C169 1.590 1_545 S
C1192 C277 1.510 . S
C1194 C789 1.493 . S
C1203 C313 1.495 . S
C1205 C824 1.471 . S
C1214 C241 1.543 . S
C1216 C769 1.519 . S
C1225 C571 1.339 . S
C1227 C667 1.303 1_565 S
C1238 C687 1.590 . S
C1236 C607 1.675 . S
C1247 C643 1.527 . S
C1249 C696 1.476 . S
C1258 C247 1.671 . S
C1260 C676 1.598 . S
C1269 C283 1.534 . S
C1271 C707 1.473 . S
C1282 C656 1.303 1_545 S
C1280 C319 1.334 . S
C1291 C139 1.341 . S
C1293 C727 1.299 . S
C1302 C175 1.673 . S
C1304 C747 1.594 . S
C1313 C211 1.529 . S
C1315 C756 1.471 . S
C1324 C463 1.672 . S
C1326 C736 1.588 . S
C1337 C767 1.476 . S
C1335 C499 1.531 . S
C1346 C535 1.334 . S
C1348 C716 1.303 . S
C1357 C355 1.340 . S
C1359 C787 1.304 . S
C1368 C391 1.673 . S
C1370 C807 1.596 . S
C1381 C816 1.469 . S
C1379 C427 1.529 . S
C1390 C31 1.670 . S
C1392 C796 1.594 . S
C1401 C67 1.533 . S
C1403 C827 1.475 . S
C1412 C103 1.336 . S
C1414 C776 1.304 . S
