# Generated by pormake.
# Topology pth, (4,4)-cn, num edge types: 1
# Building blocks:
#     Node 0, Type 0, BuildingBlock: QUQFOY_clean_sbu_3, # of connection points: 4
#     Node 1, Type 0, BuildingBlock: QUQFOY_clean_sbu_3, # of connection points: 4
#     Node 2, Type 0, BuildingBlock: QUQFOY_clean_sbu_3, # of connection points: 4
#     Node 3, Type 1, BuildingBlock: NAWXER_clean_linker_0, # of connection points: 4
#     Node 4, Type 1, BuildingBlock: NAWXER_clean_linker_0, # of connection points: 4
#     Node 5, Type 1, BuildingBlock: NAWXER_clean_linker_0, # of connection points: 4
#     Edge 6, Type (0, 1), BuildingBlock: MIFKUJ_clean_linker_0, # of connection points: 2
#     Edge 7, Type (0, 1), BuildingBlock: MIFKUJ_clean_linker_0, # of connection points: 2
#     Edge 8, Type (0, 1), BuildingBlock: MIFKUJ_clean_linker_0, # of connection points: 2
#     Edge 9, Type (0, 1), BuildingBlock: MIFKUJ_clean_linker_0, # of connection points: 2
#     Edge 10, Type (0, 1), BuildingBlock: MIFKUJ_clean_linker_0, # of connection points: 2
#     Edge 11, Type (0, 1), BuildingBlock: MIFKUJ_clean_linker_0, # of connection points: 2
#     Edge 12, Type (0, 1), BuildingBlock: MIFKUJ_clean_linker_0, # of connection points: 2
#     Edge 13, Type (0, 1), BuildingBlock: MIFKUJ_clean_linker_0, # of connection points: 2
#     Edge 14, Type (0, 1), BuildingBlock: MIFKUJ_clean_linker_0, # of connection points: 2
#     Edge 15, Type (0, 1), BuildingBlock: MIFKUJ_clean_linker_0, # of connection points: 2
#     Edge 16, Type (0, 1), BuildingBlock: MIFKUJ_clean_linker_0, # of connection points: 2
#     Edge 17, Type (0, 1), BuildingBlock: MIFKUJ_clean_linker_0, # of connection points: 2
# Relax obj value: 0.008
# Max RMSD: 0.058
# Mean RMSD: 0.041
data_MOF--net-pth--node1-QUQFOY_clean_sbu_3--node2-NAWXER_clean_linker_0--edge1-MIFKUJ_clean_linker_0
_symmetry_space_group_name_H-M    P1
_symmetry_Int_Tables_number       1
_symmetry_cell_setting            triclinic
loop_
_symmetry_equiv_pos_as_xyz
'x, y, z'
_cell_length_a     36.261402
_cell_length_b     36.0511
_cell_length_c     84.050905
_cell_angle_alpha  90.029826
_cell_angle_beta   90.722594
_cell_angle_gamma 120.65489
loop_
_atom_site_label
_atom_site_type_symbol
_atom_site_fract_x
_atom_site_fract_y
_atom_site_fract_z
_atom_type_partial_charge
C0 C 0.98365 0.11448 0.07475 0.0
O1 O 0.96029 0.11045 0.06273 0.0
Cd2 Cd 0.95625 0.07014 0.03933 0.0
O3 O 0.00484 0.09515 0.07518 0.0
Cd4 Cd 0.01716 0.04497 0.05917 0.0
C5 C 0.06389 0.12084 0.03061 0.0
O6 O 0.94532 0.00176 0.04761 0.0
O7 O 0.99423 0.99108 0.03807 0.0
O8 O 0.0089 0.00487 0.08334 0.0
C9 C 0.95523 0.98096 0.0381 0.0
O10 O 0.02635 0.11345 0.02728 0.0
C11 C 0.045 0.00723 0.08275 0.0
O12 O 0.07033 0.10161 0.04209 0.0
O13 O 0.06879 0.02766 0.07111 0.0
C14 C 0.11116 0.08851 0.4104 0.0
O15 O 0.13234 0.11962 0.40099 0.0
Cd16 Cd 0.10112 0.12886 0.37715 0.0
O17 O 0.07092 0.0635 0.40834 0.0
Cd18 Cd 0.01119 0.05536 0.39102 0.0
C19 C 0.05368 0.02441 0.36222 0.0
O20 O 0.03838 0.13055 0.38412 0.0
O21 O 0.98632 0.08278 0.36953 0.0
O22 O 0.97431 0.05084 0.41543 0.0
C23 C 0.0117 0.12226 0.37281 0.0
O24 O 0.08276 0.06411 0.36159 0.0
C25 C 0.9392 0.01724 0.41156 0.0
O26 O 0.02368 0.01119 0.37231 0.0
O27 O 0.93749 0.00047 0.39806 0.0
C28 C 0.95748 0.07075 0.69701 0.0
O29 O 0.96377 0.09798 0.70786 0.0
Cd30 Cd 0.00354 0.10549 0.73193 0.0
O31 O 0.97533 0.04816 0.69784 0.0
Cd32 Cd 0.02732 0.04017 0.71474 0.0
C33 C 0.95339 -0.00122 0.74368 0.0
O34 O 0.07077 0.11472 0.7242 0.0
O35 O 0.08209 0.06775 0.73561 0.0
O36 O 0.06076 0.03998 0.68985 0.0
C37 C 0.09182 0.10672 0.73441 0.0
O38 O 0.96119 0.03714 0.74586 0.0
C39 C 0.06417 0.00749 0.69315 0.0
O40 O 0.97157 0.9901 0.7326 0.0
O41 O 0.04967 0.9895 0.70645 0.0
C42 C 0.03816 0.4463 0.25218 0.0
C43 C 0.07035 0.45368 0.26342 0.0
C44 C 0.04328 0.47907 0.24196 0.0
C45 C 0.08068 0.51983 0.24276 0.0
C46 C 0.10797 0.49452 0.26404 0.0
C47 C 0.11286 0.52738 0.25391 0.0
C48 C 0.08503 0.55547 0.23279 0.0
C49 C 0.09289 0.46157 0.19984 0.0
C50 C 0.05901 0.44249 0.18863 0.0
C51 C 0.09977 0.4972 0.20885 0.0
C52 C 0.07277 0.51424 0.20685 0.0
C53 C 0.03226 0.45983 0.18661 0.0
C54 C 0.03926 0.49553 0.19556 0.0
C55 C 0.07986 0.55232 0.21606 0.0
C56 C 0.12744 0.73321 0.19858 0.0
C57 C 0.09505 0.72494 0.18737 0.0
C58 C 0.1251 0.69975 0.20773 0.0
C59 C 0.09041 0.65746 0.20576 0.0
C60 C 0.06062 0.68249 0.18529 0.0
C61 C 0.05855 0.64896 0.19431 0.0
C62 C 0.08757 0.62199 0.21548 0.0
C63 C 0.0547 0.69703 0.24905 0.0
C64 C 0.08754 0.7221 0.26016 0.0
C65 C 0.05663 0.66605 0.23974 0.0
C66 C 0.0912 0.65916 0.24142 0.0
C67 C 0.12238 0.71527 0.26168 0.0
C68 C 0.12389 0.68369 0.25253 0.0
C69 C 0.0916 0.62458 0.2322 0.0
H70 H 0.00842 0.41559 0.25157 0.0
H71 H 0.01756 0.4729 0.23369 0.0
H72 H 0.1337 0.50119 0.27236 0.0
H73 H 0.14185 0.55874 0.25476 0.0
H74 H 0.11398 0.44885 0.20167 0.0
H75 H 0.12643 0.5117 0.21724 0.0
H76 H 0.00635 0.44628 0.17788 0.0
H77 H 0.0183 0.50841 0.19373 0.0
H78 H 0.15426 0.76564 0.20044 0.0
H79 H 0.15047 0.70689 0.2163 0.0
H80 H 0.0355 0.6752 0.17658 0.0
H81 H 0.03172 0.6165 0.19253 0.0
H82 H 0.02685 0.70047 0.24778 0.0
H83 H 0.03054 0.6467 0.23147 0.0
H84 H 0.14861 0.73434 0.26991 0.0
H85 H 0.15072 0.67861 0.25402 0.0
N86 N 0.09063 0.59147 0.24024 0.0
N87 N 0.08137 0.58577 0.20802 0.0
C88 C 0.60727 0.98553 0.52229 0.0
C89 C 0.59672 0.94968 0.51248 0.0
C90 C 0.57655 0.98565 0.53213 0.0
C91 C 0.53475 0.94995 0.53235 0.0
C92 C 0.55456 0.91416 0.51266 0.0
C93 C 0.52379 0.91449 0.52241 0.0
C94 C 0.502 0.94977 0.54263 0.0
C95 C 0.60168 0.94552 0.57385 0.0
C96 C 0.62039 0.97937 0.58511 0.0
C97 C 0.5641 0.93628 0.56561 0.0
C98 C 0.54503 0.96124 0.56827 0.0
C99 C 0.60022 0.00313 0.58811 0.0
C100 C 0.56308 0.9942 0.57978 0.0
C101 C 0.5063 0.95385 0.55936 0.0
C102 C 0.33139 0.92446 0.57712 0.0
C103 C 0.34377 0.9494 0.59112 0.0
C104 C 0.36226 0.92465 0.56729 0.0
C105 C 0.40619 0.95091 0.57101 0.0
C106 C 0.38751 0.97456 0.59513 0.0
C107 C 0.41842 0.9754 0.58514 0.0
C108 C 0.43954 0.95179 0.56066 0.0
C109 C 0.37698 0.00504 0.52946 0.0
C110 C 0.35272 0.97822 0.51668 0.0
C111 C 0.40355 0.99552 0.53851 0.0
C112 C 0.40634 0.95896 0.53497 0.0
C113 C 0.35512 0.94135 0.51323 0.0
C114 C 0.38215 0.93207 0.52221 0.0
C115 C 0.43699 0.95097 0.54386 0.0
H116 H 0.63909 0.01382 0.52221 0.0
H117 H 0.58535 0.0137 0.5395 0.0
H118 H 0.54538 0.88582 0.50542 0.0
H119 H 0.49157 0.88675 0.52238 0.0
H120 H 0.61629 0.92649 0.57127 0.0
H121 H 0.5501 0.90973 0.55717 0.0
H122 H 0.61292 0.02857 0.59701 0.0
H123 H 0.54871 0.01357 0.58222 0.0
H124 H 0.29778 0.90425 0.57394 0.0
H125 H 0.35163 0.90389 0.55687 0.0
H126 H 0.39781 0.99415 0.60586 0.0
H127 H 0.45197 0.99558 0.58841 0.0
H128 H 0.37559 0.03357 0.53239 0.0
H129 H 0.42267 0.01727 0.54808 0.0
H130 H 0.33706 0.92043 0.50332 0.0
H131 H 0.38432 0.90404 0.51917 0.0
N132 N 0.46773 0.94891 0.53549 0.0
N133 N 0.47457 0.9541 0.56771 0.0
C134 C 0.40342 0.40128 0.86204 0.0
C135 C 0.38537 0.41295 0.84949 0.0
C136 C 0.4365 0.43287 0.87153 0.0
C137 C 0.45145 0.47678 0.86895 0.0
C138 C 0.401 0.45699 0.84679 0.0
C139 C 0.43361 0.48847 0.85641 0.0
C140 C 0.48734 0.51096 0.8785 0.0
C141 C 0.38284 0.43387 0.91349 0.0
C142 C 0.39459 0.4165 0.92624 0.0
C143 C 0.41388 0.46408 0.90336 0.0
C144 C 0.45722 0.47665 0.90547 0.0
C145 C 0.43815 0.42983 0.92847 0.0
C146 C 0.46905 0.45953 0.9182 0.0
C147 C 0.4909 0.50984 0.89527 0.0
C148 C 0.63527 0.68591 0.91212 0.0
C149 C 0.65716 0.67584 0.92365 0.0
C150 C 0.60378 0.65357 0.90239 0.0
C151 C 0.59367 0.61063 0.90402 0.0
C152 C 0.64732 0.63292 0.92512 0.0
C153 C 0.61556 0.60054 0.91548 0.0
C154 C 0.55821 0.57573 0.89465 0.0
C155 C 0.66212 0.65205 0.85955 0.0
C156 C 0.65136 0.67463 0.84863 0.0
C157 C 0.63078 0.62057 0.86925 0.0
C158 C 0.58815 0.61106 0.86811 0.0
C159 C 0.60866 0.66498 0.8475 0.0
C160 C 0.57724 0.63314 0.85706 0.0
C161 C 0.55453 0.57701 0.87798 0.0
H162 H 0.39209 0.36773 0.86454 0.0
H163 H 0.45062 0.42292 0.88077 0.0
H164 H 0.38873 0.46733 0.83701 0.0
H165 H 0.44506 0.52213 0.854 0.0
H166 H 0.34963 0.42417 0.91129 0.0
H167 H 0.40395 0.4779 0.89401 0.0
H168 H 0.44861 0.41799 0.93834 0.0
H169 H 0.50237 0.46931 0.92025 0.0
H170 H 0.64232 0.71875 0.91072 0.0
H171 H 0.58661 0.66195 0.89387 0.0
H172 H 0.6633 0.62419 0.93405 0.0
H173 H 0.60788 0.56753 0.91704 0.0
H174 H 0.69483 0.65895 0.86067 0.0
H175 H 0.63974 0.60331 0.87749 0.0
H176 H 0.59944 0.68157 0.83904 0.0
H177 H 0.54444 0.62596 0.85591 0.0
N178 N 0.51922 0.54472 0.87055 0.0
N179 N 0.52639 0.54217 0.90263 0.0
H180 H 0.95351 0.17023 0.07605 0.0
H181 H 0.96646 0.22261 0.09705 0.0
H182 H 0.03709 0.17744 0.12439 0.0
H183 H 0.0243 0.12486 0.10347 0.0
H184 H 0.98358 0.19309 0.14306 0.0
H185 H 0.09172 0.26487 0.10369 0.0
H186 H 0.11879 0.28782 0.07655 0.0
H187 H 0.05051 0.35595 0.07289 0.0
H188 H 0.02251 0.33286 0.09994 0.0
H189 H 0.11944 0.43219 0.17346 0.0
H190 H 0.10767 0.37265 0.156 0.0
H191 H 0.97147 0.31027 0.16358 0.0
H192 H 0.98309 0.36925 0.18131 0.0
H193 H 0.063 0.34775 0.12831 0.0
H194 H 0.92902 0.20064 0.16164 0.0
H195 H 0.90628 0.17775 0.1892 0.0
H196 H 0.03532 0.26128 0.20609 0.0
H197 H 0.05894 0.2842 0.17862 0.0
C198 C 0.97142 0.17107 0.08659 0.0
C199 C 0.98818 0.14359 0.08802 0.0
C200 C 0.97886 0.2011 0.09856 0.0
C201 C 0.0031 0.20413 0.11217 0.0
C202 C 0.01836 0.1756 0.11395 0.0
C203 C 0.01115 0.14571 0.10195 0.0
C204 C 0.0143 0.2385 0.12414 0.0
C205 C 0.00088 0.22692 0.13987 0.0
C206 C 0.03769 0.2826 0.12 0.0
C207 C 0.05471 0.2968 0.10378 0.0
C208 C 0.08222 0.28447 0.09705 0.0
C209 C 0.09777 0.29755 0.08169 0.0
C210 C 0.0863 0.32325 0.07299 0.0
C211 C 0.05933 0.33601 0.07964 0.0
C212 C 0.04364 0.32296 0.09499 0.0
C213 C 0.08707 0.40544 0.17161 0.0
C214 C 0.05217 0.40537 0.17874 0.0
C215 C 0.08038 0.37164 0.16155 0.0
C216 C 0.03875 0.337 0.15856 0.0
C217 C 0.0039 0.33649 0.16586 0.0
C218 C 0.01055 0.37035 0.17587 0.0
C219 C 0.03154 0.30241 0.14721 0.0
C220 C 0.0457 0.31395 0.13156 0.0
C221 C 0.00942 0.25837 0.15151 0.0
C222 C 0.99563 0.24444 0.16807 0.0
C223 C 0.95257 0.21399 0.17123 0.0
C224 C 0.93952 0.20103 0.18684 0.0
C225 C 0.96931 0.21816 0.1994 0.0
C226 C 0.01224 0.24817 0.19636 0.0
C227 C 0.02546 0.26121 0.18077 0.0
H228 H 0.95914 0.2081 0.21147 0.0
H229 H 0.09837 0.33334 0.0611 0.0
H230 H 0.9383 0.03785 0.44266 0.0
H231 H 0.87591 0.0151 0.45939 0.0
H232 H 0.79279 0.9361 0.42099 0.0
H233 H 0.85536 0.9586 0.40412 0.0
H234 H 0.76893 0.99167 0.4342 0.0
H235 H 0.80393 0.88751 0.45229 0.0
H236 H 0.85102 0.8619 0.46252 0.0
H237 H 0.87765 0.93931 0.50468 0.0
H238 H 0.8312 0.96589 0.49461 0.0
H239 H 0.58561 0.91685 0.48216 0.0
H240 H 0.63967 0.9178 0.46491 0.0
H241 H 0.73639 0.98507 0.50136 0.0
H242 H 0.68207 0.98199 0.51905 0.0
H243 H 0.74878 0.92693 0.48778 0.0
H244 H 0.72277 0.03781 0.46903 0.0
H245 H 0.67896 0.0676 0.4591 0.0
H246 H 0.63922 0.98247 0.4186 0.0
H247 H 0.6824 0.95177 0.42841 0.0
C248 C 0.90681 0.0152 0.43782 0.0
C249 C 0.90169 9e-05 0.42206 0.0
C250 C 0.8712 0.00209 0.44743 0.0
C251 C 0.82979 0.97376 0.44145 0.0
C252 C 0.82455 0.9579 0.42582 0.0
C253 C 0.86028 0.97066 0.41623 0.0
C254 C 0.79206 0.96339 0.45123 0.0
C255 C 0.76391 0.97664 0.44578 0.0
C256 C 0.7864 0.94495 0.4665 0.0
C257 C 0.8143 0.92894 0.47263 0.0
C258 C 0.82009 0.89935 0.46368 0.0
C259 C 0.84662 0.8846 0.46947 0.0
C260 C 0.86738 0.89903 0.48422 0.0
C261 C 0.86157 0.92817 0.49325 0.0
C262 C 0.8351 0.94305 0.48752 0.0
C263 C 0.61822 0.93123 0.48664 0.0
C264 C 0.62946 0.94959 0.502 0.0
C265 C 0.64923 0.93217 0.47667 0.0
C266 C 0.69226 0.95214 0.48173 0.0
C267 C 0.70343 0.96964 0.49716 0.0
C268 C 0.67238 0.96833 0.5072 0.0
C269 C 0.72592 0.95579 0.47086 0.0
C270 C 0.75338 0.94138 0.47612 0.0
C271 C 0.73134 0.97371 0.45547 0.0
C272 C 0.7054 0.99215 0.44955 0.0
C273 C 0.70442 0.02521 0.45807 0.0
C274 C 0.67975 0.0423 0.45246 0.0
C275 C 0.65622 0.02684 0.43825 0.0
C276 C 0.6574 0.99435 0.42962 0.0
C277 C 0.68198 0.9771 0.43519 0.0
H278 H 0.63715 0.04013 0.43392 0.0
H279 H 0.88791 0.88757 0.48868 0.0
H280 H 0.90148 0.00355 0.76583 0.0
H281 H 0.85252 0.94721 0.78373 0.0
H282 H 0.88803 0.85957 0.76391 0.0
H283 H 0.93654 0.91563 0.74561 0.0
H284 H 0.80406 0.81981 0.76772 0.0
H285 H 0.92692 0.90782 0.80034 0.0
H286 H 0.98479 0.97543 0.81228 0.0
H287 H 0.89158 0.99682 0.83485 0.0
H288 H 0.83309 0.92966 0.82284 0.0
H289 H 0.7103 0.66809 0.83087 0.0
H290 H 0.76381 0.72246 0.81318 0.0
H291 H 0.72044 0.81008 0.82537 0.0
H292 H 0.66683 0.75582 0.84304 0.0
H293 H 0.81123 0.8479 0.82582 0.0
H294 H 0.68868 0.75995 0.79167 0.0
H295 H 0.63221 0.69154 0.77972 0.0
H296 H 0.72804 0.66878 0.76038 0.0
H297 H 0.78511 0.73682 0.77242 0.0
C298 C 0.89896 0.97232 0.76524 0.0
C299 C 0.92313 0.96418 0.75433 0.0
C300 C 0.87106 0.94018 0.77556 0.0
C301 C 0.86718 0.89941 0.77536 0.0
C302 C 0.89068 0.89088 0.76431 0.0
C303 C 0.91842 0.92297 0.75388 0.0
C304 C 0.83818 0.86567 0.7866 0.0
C305 C 0.80612 0.82573 0.78045 0.0
C306 C 0.84049 0.87359 0.8032 0.0
C307 C 0.87559 0.91385 0.81057 0.0
C308 C 0.91874 0.92708 0.80776 0.0
C309 C 0.95166 0.96531 0.81455 0.0
C310 C 0.94187 0.99045 0.82429 0.0
C311 C 0.89912 0.97734 0.82729 0.0
C312 C 0.86606 0.93917 0.8205 0.0
C313 C 0.71244 0.69908 0.82985 0.0
C314 C 0.68443 0.7078 0.83827 0.0
C315 C 0.7428 0.72995 0.81971 0.0
C316 C 0.74583 0.7701 0.81794 0.0
C317 C 0.71851 0.77922 0.82658 0.0
C318 C 0.6878 0.74819 0.83657 0.0
C319 C 0.77706 0.80245 0.80688 0.0
C320 C 0.8095 0.84204 0.81309 0.0
C321 C 0.77541 0.79406 0.79037 0.0
C322 C 0.74114 0.75322 0.7831 0.0
C323 C 0.6977 0.74016 0.78499 0.0
C324 C 0.66559 0.7015 0.77818 0.0
C325 C 0.67653 0.67576 0.76934 0.0
C326 C 0.71961 0.68871 0.76725 0.0
C327 C 0.75185 0.72733 0.77406 0.0
H328 H 0.65162 0.64584 0.76406 0.0
H329 H 0.9674 0.02005 0.82953 0.0
H330 H 0.12146 0.00931 0.08554 0.0
H331 H 0.14052 0.97076 0.10487 0.0
H332 H 0.01622 0.91793 0.12623 0.0
H333 H -0.00258 0.95702 0.10728 0.0
H334 H 0.07618 0.9403 0.14866 0.0
H335 H 0.03865 0.86039 0.09888 0.0
H336 H 0.04538 0.85096 0.0702 0.0
H337 H 0.17626 0.88462 0.07764 0.0
H338 H 0.17043 0.89476 0.10635 0.0
H339 H 0.03109 0.74231 0.18221 0.0
H340 H 0.0335 0.79982 0.16598 0.0
H341 H 0.16557 0.84513 0.15489 0.0
H342 H 0.16332 0.78748 0.17115 0.0
H343 H 0.11419 0.8351 0.12821 0.0
H344 H 0.14709 0.904 0.17899 0.0
H345 H 0.13818 0.91044 0.2077 0.0
H346 H 0.01447 0.8954 0.19861 0.0
H347 H 0.02234 0.88821 0.16984 0.0
C348 C 0.09835 0.98972 0.09444 0.0
C349 C 0.05782 0.98595 0.09482 0.0
C350 C 0.10924 0.96764 0.10545 0.0
C351 C 0.07958 0.94103 0.11688 0.0
C352 C 0.03963 0.9383 0.11754 0.0
C353 C 0.02886 0.96053 0.10664 0.0
C354 C 0.089 0.91436 0.12774 0.0
C355 C 0.08432 0.91718 0.14419 0.0
C356 C 0.10078 0.88499 0.12195 0.0
C357 C 0.10427 0.87884 0.10471 0.0
C358 C 0.06896 0.8661 0.09437 0.0
C359 C 0.07259 0.86057 0.07812 0.0
C360 C 0.11127 0.86733 0.07209 0.0
C361 C 0.14636 0.8795 0.08232 0.0
C362 C 0.1429 0.88512 0.09858 0.0
C363 C 0.06062 0.76456 0.17631 0.0
C364 C 0.09699 0.76046 0.17788 0.0
C365 C 0.06208 0.79755 0.16717 0.0
C366 C 0.09983 0.82688 0.15937 0.0
C367 C 0.13623 0.82291 0.1609 0.0
C368 C 0.13494 0.79015 0.17021 0.0
C369 C 0.10032 0.86035 0.14904 0.0
C370 C 0.10682 0.85878 0.13271 0.0
C371 C 0.09 0.89065 0.15494 0.0
C372 C 0.0852 0.89525 0.17224 0.0
C373 C 0.11783 0.90173 0.18311 0.0
C374 C 0.113 0.90558 0.1994 0.0
C375 C 0.07575 0.90325 0.20498 0.0
C376 C 0.04331 0.89718 0.19427 0.0
C377 C 0.04796 0.89327 0.17796 0.0
H378 H 0.07206 0.90621 0.21759 0.0
H379 H 0.11401 0.86303 0.05951 0.0
H380 H 0.19436 0.1395 0.42052 0.0
H381 H 0.23347 0.12168 0.43994 0.0
H382 H 0.11911 -0.00088 0.44838 0.0
H383 H 0.07942 0.01715 0.42927 0.0
H384 H 0.16163 0.03204 0.47554 0.0
H385 H 0.19693 0.00713 0.42348 0.0
H386 H 0.22139 0.02509 0.39582 0.0
H387 H 0.34402 0.12725 0.41249 0.0
H388 H 0.32006 0.11028 0.44027 0.0
H389 H 0.26933 0.92632 0.50697 0.0
H390 H 0.22635 0.94615 0.49009 0.0
H391 H 0.33415 0.0758 0.48673 0.0
H392 H 0.37709 0.05626 0.50359 0.0
H393 H 0.29419 0.03811 0.45725 0.0
H394 H 0.25698 0.06002 0.50982 0.0
H395 H 0.23111 0.03864 0.53717 0.0
H396 H 0.11007 0.93721 0.51896 0.0
H397 H 0.13547 0.95758 0.49147 0.0
C398 C 0.17739 0.10892 0.42661 0.0
C399 C 0.13386 0.07957 0.42322 0.0
C400 C 0.19984 0.09871 0.43766 0.0
C401 C 0.17943 0.05869 0.44536 0.0
C402 C 0.13555 0.0301 0.44252 0.0
C403 C 0.11294 0.04046 0.43157 0.0
C404 C 0.20425 0.046 0.45587 0.0
C405 C 0.19032 0.03288 0.47147 0.0
C406 C 0.24196 0.0475 0.45063 0.0
C407 C 0.25655 0.0577 0.43395 0.0
C408 C 0.229 0.03363 0.42124 0.0
C409 C 0.24279 0.0436 0.40554 0.0
C410 C 0.2842 0.07736 0.4024 0.0
C411 C 0.31193 0.10115 0.41495 0.0
C412 C 0.29828 0.09135 0.43067 0.0
C413 C 0.28375 0.959 0.5026 0.0
C414 C 0.32641 0.98982 0.5066 0.0
C415 C 0.25919 0.97032 0.49306 0.0
C416 C 0.2771 0.01248 0.48727 0.0
C417 C 0.31979 0.04315 0.49114 0.0
C418 C 0.34414 0.03202 0.50082 0.0
C419 C 0.25172 0.02453 0.47688 0.0
C420 C 0.26551 0.03736 0.46129 0.0
C421 C 0.21368 0.02224 0.48208 0.0
C422 C 0.1983 0.01003 0.49859 0.0
C423 C 0.22499 0.0329 0.51164 0.0
C424 C 0.21038 0.02102 0.52717 0.0
C425 C 0.16902 0.98651 0.5298 0.0
C426 C 0.14213 0.96389 0.5169 0.0
C427 C 0.15661 0.97561 0.50135 0.0
H428 H 0.15776 0.97737 0.54183 0.0
H429 H 0.29482 0.08503 0.39024 0.0
H430 H 0.14854 0.10113 0.75429 0.0
H431 H 0.19582 0.15363 0.77425 0.0
H432 H 0.15009 0.23878 0.76062 0.0
H433 H 0.10358 0.18676 0.74022 0.0
H434 H 0.2328 0.28368 0.76559 0.0
H435 H 0.11473 0.17686 0.79468 0.0
H436 H 0.06138 0.10367 0.80345 0.0
H437 H 0.16213 0.08636 0.82233 0.0
H438 H 0.21617 0.15925 0.81346 0.0
H439 H 0.31592 0.41286 0.83602 0.0
H440 H 0.26377 0.36095 0.8169 0.0
H441 H 0.32435 0.2848 0.82022 0.0
H442 H 0.37786 0.33737 0.83879 0.0
H443 H 0.23076 0.23674 0.82125 0.0
H444 H 0.34833 0.3455 0.79028 0.0
H445 H 0.39863 0.42027 0.78214 0.0
H446 H 0.29294 0.43523 0.76773 0.0
H447 H 0.24196 0.3607 0.77602 0.0
C448 C 0.14871 0.13113 0.75549 0.0
C449 C 0.12222 0.13977 0.74576 0.0
C450 C 0.17553 0.161 0.76698 0.0
C451 C 0.17581 0.19974 0.76919 0.0
C452 C 0.15023 0.20898 0.75919 0.0
C453 C 0.1237 0.17927 0.74754 0.0
C454 C 0.20294 0.23053 0.78191 0.0
C455 C 0.2318 0.27349 0.7778 0.0
C456 C 0.20194 0.21725 0.79785 0.0
C457 C 0.16954 0.17341 0.80327 0.0
C458 C 0.12554 0.15734 0.80059 0.0
C459 C 0.09517 0.11592 0.8056 0.0
C460 C 0.10836 0.09035 0.81341 0.0
C461 C 0.15196 0.10619 0.81626 0.0
C462 C 0.18248 0.14758 0.81127 0.0
C463 C 0.31845 0.38528 0.83262 0.0
C464 C 0.35145 0.37961 0.83888 0.0
C465 C 0.28839 0.3555 0.82179 0.0
C466 C 0.29047 0.31929 0.81713 0.0
C467 C 0.32222 0.31255 0.82375 0.0
C468 C 0.35265 0.34258 0.83443 0.0
C469 C 0.26068 0.28938 0.80482 0.0
C470 C 0.23138 0.24672 0.80904 0.0
C471 C 0.26071 0.30308 0.78906 0.0
C472 C 0.29134 0.34771 0.78393 0.0
C473 C 0.33581 0.36486 0.7855 0.0
C474 C 0.36445 0.40717 0.78084 0.0
C475 C 0.34899 0.43253 0.77446 0.0
C476 C 0.30486 0.41558 0.77269 0.0
C477 C 0.27609 0.3733 0.77736 0.0
H478 H 0.37121 0.46528 0.77086 0.0
H479 H 0.08479 0.05829 0.81727 0.0
H480 H 0.91598 0.00037 0.67747 0.0
H481 H 0.86357 0.98726 0.65646 0.0
H482 H 0.88109 0.11352 0.66475 0.0
H483 H 0.93207 0.12592 0.68631 0.0
H484 H 0.80141 0.05992 0.66239 0.0
H485 H 0.92019 0.08605 0.63064 0.0
H486 H 0.97996 0.07761 0.62161 0.0
H487 H 0.89168 0.94479 0.60986 0.0
H488 H 0.8314 0.95226 0.61902 0.0
H489 H 0.68754 0.05916 0.59332 0.0
H490 H 0.74925 0.07605 0.61036 0.0
H491 H 0.70693 0.94082 0.61352 0.0
H492 H 0.64398 0.92326 0.59694 0.0
H493 H 0.80035 0.00067 0.60897 0.0
H494 H 0.68225 0.97776 0.64234 0.0
H495 H 0.62456 0.99074 0.65036 0.0
H496 H 0.71665 0.12505 0.65776 0.0
H497 H 0.77483 0.11296 0.64954 0.0
C498 C 0.90895 0.02549 0.67471 0.0
C499 C 0.92809 0.06416 0.68355 0.0
C500 C 0.87914 0.01807 0.66262 0.0
C501 C 0.86872 0.04963 0.65882 0.0
C502 C 0.88851 0.08863 0.66745 0.0
C503 C 0.9177 0.09573 0.67975 0.0
C504 C 0.83536 0.04097 0.64654 0.0
C505 C 0.80177 0.04769 0.65063 0.0
C506 C 0.83516 0.02424 0.63124 0.0
C507 C 0.87131 0.01963 0.62566 0.0
C508 C 0.91355 0.05495 0.62624 0.0
C509 C 0.94752 0.05036 0.62108 0.0
C510 C 0.93964 0.01067 0.61521 0.0
C511 C 0.89774 0.97551 0.61443 0.0
C512 C 0.86365 0.97992 0.61959 0.0
C513 C 0.69117 0.0329 0.59765 0.0
C514 C 0.66035 0.98976 0.59396 0.0
C515 C 0.72668 0.0427 0.60726 0.0
C516 C 0.73234 0.00964 0.61324 0.0
C517 C 0.70304 0.96673 0.60894 0.0
C518 C 0.66717 0.95681 0.59944 0.0
C519 C 0.76703 0.01977 0.62494 0.0
C520 C 0.80056 0.0132 0.62073 0.0
C521 C 0.7677 0.03736 0.64004 0.0
C522 C 0.7328 0.04453 0.64517 0.0
C523 C 0.69014 0.01012 0.64555 0.0
C524 C 0.65737 0.01731 0.65015 0.0
C525 C 0.66692 0.05871 0.65453 0.0
C526 C 0.70929 0.093 0.65435 0.0
C527 C 0.74218 0.086 0.64973 0.0
H528 H 0.6415 0.06421 0.65808 0.0
H529 H 0.96598 0.00717 0.61122 0.0
H530 H 0.87367 0.96315 0.0317 0.0
H531 H 0.82295 0.91227 0.01197 0.0
H532 H 0.91478 0.87538 -0.00087 0.0
H533 H 0.96602 0.92699 0.01853 0.0
H534 H 0.88018 0.88669 0.97333 0.0
H535 H 0.82637 0.81017 0.02218 0.0
H536 H 0.8004 0.79934 0.04973 0.0
H537 H 0.69611 0.81605 0.03482 0.0
H538 H 0.7218 0.82755 0.0072 0.0
H539 H 0.73667 0.69095 0.93214 0.0
H540 H 0.78749 0.7447 0.95123 0.0
H541 H 0.69982 0.79028 0.95897 0.0
H542 H 0.64877 0.73643 0.93999 0.0
H543 H 0.73149 0.77523 0.98704 0.0
H544 H 0.7855 0.84964 0.93776 0.0
H545 H 0.81163 0.85851 0.91029 0.0
H546 H 0.91605 0.84324 0.92625 0.0
H547 H 0.89018 0.83365 0.9538 0.0
C548 C 0.88295 0.94403 0.02473 0.0
C549 C 0.92377 0.94898 0.02668 0.0
C550 C 0.85389 0.91486 0.01349 0.0
C551 C 0.86489 0.88966 0.00418 0.0
C552 C 0.90561 0.89451 0.00616 0.0
C553 C 0.9348 0.92391 0.01729 0.0
C554 C 0.8343 0.85876 0.99217 0.0
C555 C 0.84786 0.86196 0.97639 0.0
C556 C 0.7918 0.82708 0.99606 0.0
C557 C 0.77627 0.82016 0.01266 0.0
C558 C 0.7981 0.81188 0.0248 0.0
C559 C 0.78339 0.80556 0.04042 0.0
C560 C 0.7467 0.80713 0.04403 0.0
C561 C 0.72457 0.81491 0.03201 0.0
C562 C 0.73916 0.82129 0.01637 0.0
C563 C 0.72833 0.7125 0.93791 0.0
C564 C 0.68886 0.70962 0.93458 0.0
C565 C 0.75742 0.74329 0.94871 0.0
C566 C 0.74742 0.77154 0.95642 0.0
C567 C 0.7081 0.7688 0.95311 0.0
C568 C 0.67917 0.73828 0.9422 0.0
C569 C 0.77751 0.80314 0.9683 0.0
C570 C 0.76383 0.80005 0.98403 0.0
C571 C 0.81997 0.83466 0.96438 0.0
C572 C 0.83564 0.8405 0.94783 0.0
C573 C 0.81382 0.84779 0.9354 0.0
C574 C 0.82863 0.85302 0.91981 0.0
C575 C 0.86542 0.85133 0.91652 0.0
C576 C 0.88753 0.84449 0.92882 0.0
C577 C 0.87283 0.83919 0.94442 0.0
H578 H 0.87684 0.8554 0.90445 0.0
H579 H 0.73536 0.80221 0.05613 0.0
H580 H 0.98937 0.94305 0.3539 0.0
H581 H 0.99391 0.89213 0.33593 0.0
H582 H 0.12779 0.98434 0.32846 0.0
H583 H 0.12299 0.03583 0.34582 0.0
H584 H 0.09368 0.94873 0.30171 0.0
H585 H 0.09176 0.89528 0.35426 0.0
H586 H 0.06323 0.86975 0.38107 0.0
H587 H 0.94763 0.7654 0.36051 0.0
H588 H 0.97528 0.79064 0.33357 0.0
H589 H 0.11353 0.74352 0.29134 0.0
H590 H 0.10874 0.79618 0.30799 0.0
H591 H 0.04669 0.82345 0.2694 0.0
H592 H 0.05465 0.77365 0.25225 0.0
H593 H 0.04555 0.79965 0.31921 0.0
H594 H 0.0652 0.92394 0.27158 0.0
H595 H 0.10063 0.95088 0.24579 0.0
H596 H 0.19546 0.91821 0.25877 0.0
H597 H 0.1609 0.89155 0.28469 0.0
C598 C 0.01972 0.95243 0.3484 0.0
C599 C 0.05584 0.99339 0.35131 0.0
C600 C 0.02234 0.92326 0.33817 0.0
C601 C 0.06137 0.93413 0.331 0.0
C602 C 0.0973 0.97519 0.33381 0.0
C603 C 0.09452 0.00458 0.34378 0.0
C604 C 0.06518 0.90283 0.32068 0.0
C605 C 0.08313 0.91613 0.30555 0.0
C606 C 0.05202 0.86044 0.32573 0.0
C607 C 0.03542 0.84509 0.34191 0.0
C608 C 0.06014 0.86706 0.35546 0.0
C609 C 0.04415 0.85261 0.37068 0.0
C610 C 0.0036 0.81604 0.37249 0.0
C611 C 0.979 0.79376 0.35909 0.0
C612 C 0.99483 0.80809 0.34384 0.0
C613 C 0.09979 0.76141 0.28623 0.0
C614 C 0.08477 0.75438 0.27036 0.0
C615 C 0.09651 0.79113 0.29587 0.0
C616 C 0.07774 0.81417 0.28993 0.0
C617 C 0.06207 0.80674 0.27419 0.0
C618 C 0.06609 0.77767 0.26444 0.0
C619 C 0.07426 0.84562 0.30029 0.0
C620 C 0.05613 0.83226 0.31538 0.0
C621 C 0.08846 0.88837 0.29539 0.0
C622 C 0.1102 0.90539 0.28001 0.0
C623 C 0.09375 0.92273 0.26896 0.0
C624 C 0.11363 0.93788 0.25431 0.0
C625 C 0.15017 0.9361 0.25062 0.0
C626 C 0.16706 0.91941 0.26161 0.0
C627 C 0.14731 0.90425 0.27628 0.0
H628 H 0.16543 0.94772 0.23925 0.0
H629 H 0.99126 0.80492 0.38428 0.0
H630 H 0.07943 0.02483 0.66156 0.0
H631 H 0.12143 0.00614 0.64422 0.0
H632 H 0.14199 0.94033 0.68306 0.0
H633 H 0.09917 0.95805 0.70042 0.0
H634 H 0.21859 0.0071 0.66666 0.0
H635 H 0.08124 0.87991 0.65609 0.0
H636 H 0.00463 0.84061 0.64845 0.0
H637 H 0.03515 0.90224 0.60288 0.0
H638 H 0.11194 0.94242 0.61034 0.0
H639 H 0.33486 0.93483 0.62301 0.0
H640 H 0.2824 0.93706 0.6404 0.0
H641 H 0.22806 0.96785 0.60011 0.0
H642 H 0.2794 0.96374 0.58261 0.0
H643 H 0.16645 0.91544 0.61803 0.0
H644 H 0.29965 0.04598 0.62769 0.0
H645 H 0.37662 0.09121 0.63435 0.0
H646 H 0.35517 0.03176 0.6802 0.0
H647 H 0.27811 0.98572 0.67373 0.0
C648 C 0.09242 0.00588 0.66635 0.0
C649 C 0.08615 0.99295 0.68234 0.0
C650 C 0.11625 0.99516 0.65642 0.0
C651 C 0.13466 0.97187 0.6624 0.0
C652 C 0.12787 0.95826 0.67827 0.0
C653 C 0.10335 0.96828 0.68813 0.0
C654 C 0.16337 0.96435 0.65233 0.0
C655 C 0.20722 0.98644 0.65618 0.0
C656 C 0.14847 0.93872 0.63837 0.0
C657 C 0.10232 0.91449 0.63384 0.0
C658 C 0.07159 0.8854 0.6445 0.0
C659 C 0.02813 0.86289 0.64018 0.0
C660 C 0.01502 0.86901 0.6252 0.0
C661 C 0.04535 0.89757 0.61449 0.0
C662 C 0.08886 0.92018 0.61875 0.0
C663 C 0.31158 0.94194 0.61791 0.0
C664 C 0.31122 0.9494 0.60153 0.0
C665 C 0.28173 0.94337 0.62784 0.0
C666 C 0.25177 0.95351 0.62164 0.0
C667 C 0.25084 0.96002 0.60519 0.0
C668 C 0.28018 0.95776 0.59521 0.0
C669 C 0.22205 0.95822 0.63233 0.0
C670 C 0.17799 0.93583 0.62857 0.0
C671 C 0.23688 0.98443 0.64621 0.0
C672 C 0.2832 0.01208 0.65015 0.0
C673 C 0.3114 0.04232 0.63915 0.0
C674 C 0.35503 0.06813 0.64289 0.0
C675 C 0.37079 0.06427 0.65767 0.0
C676 C 0.34292 0.03465 0.66875 0.0
C677 C 0.29926 0.00871 0.66505 0.0
H678 H 0.40458 0.0843 0.66055 0.0
H679 H 0.98136 0.85154 0.62189 0.0
H680 H 0.14325 0.12968 0.0279 0.0
H681 H 0.20143 0.17917 0.0106 0.0
H682 H 0.12489 0.2326 0.99437 0.0
H683 H 0.06626 0.1823 0.01112 0.0
H684 H 0.15944 0.21966 0.97018 0.0
H685 H 0.21201 0.28628 0.02132 0.0
H686 H 0.23297 0.29022 0.04957 0.0
H687 H 0.32841 0.25893 0.037 0.0
H688 H 0.30762 0.25425 0.00867 0.0
H689 H 0.32313 0.41568 0.93714 0.0
H690 H 0.2688 0.36381 0.95502 0.0
H691 H 0.33789 0.29609 0.95913 0.0
H692 H 0.39154 0.34657 0.94065 0.0
H693 H 0.30946 0.31455 0.98908 0.0
H694 H 0.25606 0.25134 0.93717 0.0
H695 H 0.2352 0.25184 0.90917 0.0
H696 H 0.14055 0.2821 0.92396 0.0
H697 H 0.16131 0.28243 0.95205 0.0
C698 C 0.13897 0.15216 0.0207 0.0
C699 C 0.10015 0.15203 0.02085 0.0
C700 C 0.17231 0.18056 0.01086 0.0
C701 C 0.16774 0.20994 0.00127 0.0
C702 C 0.12915 0.21014 0.00159 0.0
C703 C 0.09567 0.1814 0.01122 0.0
C704 C 0.20245 0.23971 0.9905 0.0
C705 C 0.19209 0.24072 0.97441 0.0
C706 C 0.24535 0.26664 0.99588 0.0
C707 C 0.25793 0.26945 0.0129 0.0
C708 C 0.23723 0.2799 0.02459 0.0
C709 C 0.24913 0.28233 0.04062 0.0
C710 C 0.28192 0.27471 0.04508 0.0
C711 C 0.30297 0.26476 0.03352 0.0
C712 C 0.29116 0.26224 0.01748 0.0
C713 C 0.32658 0.38943 0.94161 0.0
C714 C 0.36173 0.38528 0.93733 0.0
C715 C 0.29565 0.36005 0.95195 0.0
C716 C 0.29943 0.32621 0.95833 0.0
C717 C 0.33465 0.32221 0.95435 0.0
C718 C 0.36535 0.35124 0.94384 0.0
C719 C 0.26605 0.29462 0.96897 0.0
C720 C 0.27674 0.29327 0.98496 0.0
C721 C 0.22331 0.26785 0.96359 0.0
C722 C 0.21053 0.26731 0.94671 0.0
C723 C 0.23105 0.25846 0.93445 0.0
C724 C 0.2192 0.25853 0.91856 0.0
C725 C 0.18664 0.2671 0.91479 0.0
C726 C 0.16579 0.27551 0.9269 0.0
C727 C 0.17757 0.27554 0.94281 0.0
H728 H 0.17751 0.26713 0.90248 0.0
H729 H 0.29108 0.27661 0.05749 0.0
H730 H 0.9712 0.1125 0.34423 0.0
H731 H 0.97987 0.16923 0.32605 0.0
H732 H 0.06668 0.26606 0.35958 0.0
H733 H 0.05855 0.20941 0.37783 0.0
H734 H 0.00347 0.28225 0.34527 0.0
H735 H 0.10909 0.24518 0.33046 0.0
H736 H 0.13301 0.19479 0.32285 0.0
H737 H 0.05065 0.15577 0.28148 0.0
H738 H 0.02572 0.20547 0.28898 0.0
H739 H 0.0944 0.46279 0.29489 0.0
H740 H 0.08357 0.40649 0.31353 0.0
H741 H 0.01907 0.31024 0.27671 0.0
H742 H 0.03214 0.3667 0.25769 0.0
H743 H 0.06974 0.29272 0.2929 0.0
H744 H 0.96352 0.32762 0.30659 0.0
H745 H 0.93529 0.37465 0.31386 0.0
H746 H 0.01254 0.41383 0.35657 0.0
H747 H 0.0417 0.36746 0.34945 0.0
C748 C 0.99189 0.14585 0.34781 0.0
C749 C 0.01442 0.15655 0.36242 0.0
C750 C -0.00315 0.17817 0.33739 0.0
C751 C 0.02417 0.22169 0.34145 0.0
C752 C 0.04551 0.23257 0.35626 0.0
C753 C 0.04092 0.20023 0.36663 0.0
C754 C 0.03158 0.25577 0.32997 0.0
C755 C 0.01845 0.28502 0.33389 0.0
C756 C 0.04994 0.2583 0.31498 0.0
C757 C 0.06523 0.22873 0.31037 0.0
C758 C 0.09581 0.22559 0.31981 0.0
C759 C 0.1096 0.1972 0.31551 0.0
C760 C 0.09328 0.17201 0.30171 0.0
C761 C 0.06322 0.17526 0.29217 0.0
C762 C 0.04928 0.20356 0.29644 0.0
C763 C 0.07851 0.42975 0.29065 0.0
C764 C 0.0641 0.41935 0.27476 0.0
C765 C 0.07177 0.39748 0.30141 0.0
C766 C 0.04978 0.35403 0.29661 0.0
C767 C 0.03587 0.34353 0.28072 0.0
C768 C 0.04302 0.37584 0.26989 0.0
C769 C 0.04169 0.31959 0.30813 0.0
C770 C 0.0547 0.29014 0.30424 0.0
C771 C 0.02263 0.31652 0.32306 0.0
C772 C 0.00511 0.34438 0.32741 0.0
C773 C 0.97474 0.34652 0.31747 0.0
C774 C 0.95853 0.37301 0.32158 0.0
C775 C 0.97219 0.3973 0.33565 0.0
C776 C 0.00203 0.39504 0.34567 0.0
C777 C 0.01838 0.36863 0.34161 0.0
H778 H 0.9596 0.41778 0.3388 0.0
H779 H 0.10398 0.15004 0.2984 0.0
loop_
_geom_bond_atom_site_label_1
_geom_bond_atom_site_label_2
_geom_bond_distance
_geom_bond_site_symmetry_2
_ccdc_geom_bond_type
C0 O1 1.306 . S
C0 O3 1.160 . S
O1 C0 1.306 . S
O1 Cd2 2.228 1_455 S
Cd2 O1 2.228 1_655 S
Cd2 O6 2.273 . S
Cd2 O10 2.277 1_655 S
O3 C0 1.160 . S
O3 Cd4 2.203 . S
Cd4 O3 2.203 . S
Cd4 O6 2.411 1_455 S
Cd4 O7 2.333 1_545 S
Cd4 O8 2.352 1_545 S
Cd4 O12 2.277 . S
Cd4 O13 2.356 1_545 S
C5 O10 1.209 . S
C5 O12 1.226 . S
O6 Cd2 2.273 . S
O6 Cd4 2.411 1_655 S
O6 C9 1.320 1_545 S
O7 Cd4 2.333 1_565 S
O7 C9 1.214 1_455 S
O8 Cd4 2.352 1_565 S
O8 C11 1.258 . S
C9 O6 1.320 1_565 S
C9 O7 1.214 1_655 S
O10 Cd2 2.277 1_455 S
O10 C5 1.209 . S
C11 O8 1.258 . S
C11 O13 1.282 . S
O12 Cd4 2.277 . S
O12 C5 1.226 . S
O13 Cd4 2.356 1_565 S
O13 C11 1.282 . S
C14 O15 1.306 . S
C14 O17 1.160 . S
O15 C14 1.306 . S
O15 Cd16 2.228 . S
Cd16 O15 2.228 . S
Cd16 O20 2.273 . S
Cd16 O24 2.277 . S
O17 C14 1.160 . S
O17 Cd18 2.203 . S
Cd18 O17 2.203 . S
Cd18 O20 2.411 . S
Cd18 O21 2.333 1_455 S
Cd18 O22 2.352 1_455 S
Cd18 O26 2.277 1_445 S
Cd18 O27 2.356 1_445 S
C19 O24 1.209 1_565 S
C19 O26 1.226 1_455 S
O20 Cd16 2.273 . S
O20 Cd18 2.411 . S
O20 C23 1.320 . S
O21 Cd18 2.333 1_655 S
O21 C23 1.214 1_655 S
O22 Cd18 2.352 1_655 S
O22 C25 1.258 . S
C23 O20 1.320 . S
C23 O21 1.214 1_455 S
O24 Cd16 2.277 . S
O24 C19 1.209 1_545 S
C25 O22 1.258 . S
C25 O27 1.282 1_545 S
O26 Cd18 2.277 1_665 S
O26 C19 1.226 1_655 S
O27 Cd18 2.356 1_665 S
O27 C25 1.282 1_565 S
C28 O29 1.306 . S
C28 O31 1.160 . S
O29 C28 1.306 . S
O29 Cd30 2.228 . S
Cd30 O29 2.228 . S
Cd30 O34 2.273 1_655 S
Cd30 O38 2.277 . S
O31 C28 1.160 . S
O31 Cd32 2.203 1_655 S
Cd32 O31 2.203 1_455 S
Cd32 O34 2.411 . S
Cd32 O35 2.333 . S
Cd32 O36 2.352 . S
Cd32 O40 2.277 1_445 S
Cd32 O41 2.356 . S
C33 O38 1.209 1_565 S
C33 O40 1.226 . S
O34 Cd30 2.273 1_455 S
O34 Cd32 2.411 . S
O34 C37 1.320 . S
O35 Cd32 2.333 . S
O35 C37 1.214 . S
O36 Cd32 2.352 . S
O36 C39 1.258 . S
C37 O34 1.320 . S
C37 O35 1.214 . S
O38 Cd30 2.277 . S
O38 C33 1.209 1_545 S
C39 O36 1.258 . S
C39 O41 1.282 . S
O40 Cd32 2.277 1_665 S
O40 C33 1.226 . S
O41 Cd32 2.356 . S
O41 C39 1.282 . S
C42 C43 1.384 . S
C42 C44 1.384 . S
C42 H70 0.931 1_455 S
C43 C42 1.384 . S
C43 C46 1.382 . S
C44 C42 1.384 . S
C44 C45 1.381 . S
C44 H71 0.930 1_455 S
C45 C44 1.381 . S
C45 C47 1.381 . S
C45 C48 1.487 . S
C46 C43 1.382 . S
C46 C47 1.387 . S
C46 H72 0.930 . S
C47 C45 1.381 . S
C47 C46 1.387 . S
C47 H73 0.931 . S
C48 C45 1.487 . S
C48 C55 1.399 . S
C48 N86 1.343 . S
C49 C50 1.384 . S
C49 C51 1.384 . S
C49 H74 0.931 . S
C50 C49 1.384 . S
C50 C53 1.382 . S
C51 C49 1.384 . S
C51 C52 1.381 . S
C51 H75 0.930 . S
C52 C51 1.381 . S
C52 C54 1.381 . S
C52 C55 1.487 . S
C53 C50 1.382 . S
C53 C54 1.387 . S
C53 H76 0.930 1_455 S
C54 C52 1.381 . S
C54 C53 1.387 . S
C54 H77 0.931 1_455 S
C55 C48 1.399 . S
C55 C52 1.487 . S
C55 N87 1.343 . S
C56 C57 1.384 . S
C56 C58 1.384 . S
C56 H78 0.931 . S
C57 C56 1.384 . S
C57 C60 1.382 . S
C58 C56 1.384 . S
C58 C59 1.381 . S
C58 H79 0.930 . S
C59 C58 1.381 . S
C59 C61 1.381 . S
C59 C62 1.487 . S
C60 C57 1.382 . S
C60 C61 1.387 . S
C60 H80 0.930 1_455 S
C61 C59 1.381 . S
C61 C60 1.387 . S
C61 H81 0.931 1_455 S
C62 C59 1.487 . S
C62 C69 1.399 . S
C62 N87 1.343 . S
C63 C64 1.384 . S
C63 C65 1.384 . S
C63 H82 0.931 1_455 S
C64 C63 1.384 . S
C64 C67 1.382 . S
C65 C63 1.384 . S
C65 C66 1.381 . S
C65 H83 0.930 1_455 S
C66 C65 1.381 . S
C66 C68 1.381 . S
C66 C69 1.487 . S
C67 C64 1.382 . S
C67 C68 1.387 . S
C67 H84 0.930 . S
C68 C66 1.381 . S
C68 C67 1.387 . S
C68 H85 0.931 . S
C69 C62 1.399 . S
C69 C66 1.487 . S
C69 N86 1.343 . S
H70 C42 0.931 1_655 S
H71 C44 0.930 1_655 S
H72 C46 0.930 . S
H73 C47 0.931 . S
H74 C49 0.931 . S
H75 C51 0.930 . S
H76 C53 0.930 1_655 S
H77 C54 0.931 1_655 S
H78 C56 0.931 . S
H79 C58 0.930 . S
H80 C60 0.930 1_655 S
H81 C61 0.931 1_655 S
H82 C63 0.931 1_655 S
H83 C65 0.930 1_655 S
H84 C67 0.930 . S
H85 C68 0.931 . S
N86 C48 1.343 . S
N86 C69 1.343 . S
N87 C55 1.343 . S
N87 C62 1.343 . S
C88 C89 1.384 . S
C88 C90 1.384 . S
C88 H116 0.931 . S
C89 C88 1.384 . S
C89 C92 1.382 . S
C90 C88 1.384 . S
C90 C91 1.381 . S
C90 H117 0.930 . S
C91 C90 1.381 . S
C91 C93 1.381 . S
C91 C94 1.487 . S
C92 C89 1.382 . S
C92 C93 1.387 . S
C92 H118 0.930 1_545 S
C93 C91 1.381 . S
C93 C92 1.387 . S
C93 H119 0.931 1_545 S
C94 C91 1.487 . S
C94 C101 1.399 . S
C94 N132 1.343 . S
C95 C96 1.384 . S
C95 C97 1.384 . S
C95 H120 0.931 1_545 S
C96 C95 1.384 . S
C96 C99 1.382 . S
C97 C95 1.384 . S
C97 C98 1.381 . S
C97 H121 0.930 1_545 S
C98 C97 1.381 . S
C98 C100 1.381 . S
C98 C101 1.487 . S
C99 C96 1.382 . S
C99 C100 1.387 . S
C99 H122 0.930 . S
C100 C98 1.381 . S
C100 C99 1.387 . S
C100 H123 0.931 . S
C101 C94 1.399 . S
C101 C98 1.487 . S
C101 N133 1.343 . S
C102 C103 1.384 . S
C102 C104 1.384 . S
C102 H124 0.931 1_545 S
C103 C102 1.384 . S
C103 C106 1.382 . S
C104 C102 1.384 . S
C104 C105 1.381 . S
C104 H125 0.930 1_545 S
C105 C104 1.381 . S
C105 C107 1.381 . S
C105 C108 1.487 . S
C106 C103 1.382 . S
C106 C107 1.387 . S
C106 H126 0.930 . S
C107 C105 1.381 . S
C107 C106 1.387 . S
C107 H127 0.931 . S
C108 C105 1.487 . S
C108 C115 1.399 . S
C108 N133 1.343 . S
C109 C110 1.384 . S
C109 C111 1.384 . S
C109 H128 0.931 . S
C110 C109 1.384 . S
C110 C113 1.382 . S
C111 C109 1.384 . S
C111 C112 1.381 . S
C111 H129 0.930 . S
C112 C111 1.381 . S
C112 C114 1.381 . S
C112 C115 1.487 . S
C113 C110 1.382 . S
C113 C114 1.387 . S
C113 H130 0.930 1_545 S
C114 C112 1.381 . S
C114 C113 1.387 . S
C114 H131 0.931 1_545 S
C115 C108 1.399 . S
C115 C112 1.487 . S
C115 N132 1.343 . S
H116 C88 0.931 . S
H117 C90 0.930 . S
H118 C92 0.930 1_565 S
H119 C93 0.931 1_565 S
H120 C95 0.931 1_565 S
H121 C97 0.930 1_565 S
H122 C99 0.930 . S
H123 C100 0.931 . S
H124 C102 0.931 1_565 S
H125 C104 0.930 1_565 S
H126 C106 0.930 . S
H127 C107 0.931 . S
H128 C109 0.931 . S
H129 C111 0.930 . S
H130 C113 0.930 1_565 S
H131 C114 0.931 1_565 S
N132 C94 1.343 . S
N132 C115 1.343 . S
N133 C101 1.343 . S
N133 C108 1.343 . S
C134 C135 1.384 . S
C134 C136 1.384 . S
C134 H162 0.931 . S
C135 C134 1.384 . S
C135 C138 1.382 . S
C136 C134 1.384 . S
C136 C137 1.381 . S
C136 H163 0.930 . S
C137 C136 1.381 . S
C137 C139 1.381 . S
C137 C140 1.487 . S
C138 C135 1.382 . S
C138 C139 1.387 . S
C138 H164 0.930 . S
C139 C137 1.381 . S
C139 C138 1.387 . S
C139 H165 0.931 . S
C140 C137 1.487 . S
C140 C147 1.399 . S
C140 N178 1.343 . S
C141 C142 1.384 . S
C141 C143 1.384 . S
C141 H166 0.931 . S
C142 C141 1.384 . S
C142 C145 1.382 . S
C143 C141 1.384 . S
C143 C144 1.381 . S
C143 H167 0.930 . S
C144 C143 1.381 . S
C144 C146 1.381 . S
C144 C147 1.487 . S
C145 C142 1.382 . S
C145 C146 1.387 . S
C145 H168 0.930 . S
C146 C144 1.381 . S
C146 C145 1.387 . S
C146 H169 0.931 . S
C147 C140 1.399 . S
C147 C144 1.487 . S
C147 N179 1.343 . S
C148 C149 1.384 . S
C148 C150 1.384 . S
C148 H170 0.931 . S
C149 C148 1.384 . S
C149 C152 1.382 . S
C150 C148 1.384 . S
C150 C151 1.381 . S
C150 H171 0.930 . S
C151 C150 1.381 . S
C151 C153 1.381 . S
C151 C154 1.487 . S
C152 C149 1.382 . S
C152 C153 1.387 . S
C152 H172 0.930 . S
C153 C151 1.381 . S
C153 C152 1.387 . S
C153 H173 0.931 . S
C154 C151 1.487 . S
C154 C161 1.399 . S
C154 N179 1.343 . S
C155 C156 1.384 . S
C155 C157 1.384 . S
C155 H174 0.931 . S
C156 C155 1.384 . S
C156 C159 1.382 . S
C157 C155 1.384 . S
C157 C158 1.381 . S
C157 H175 0.930 . S
C158 C157 1.381 . S
C158 C160 1.381 . S
C158 C161 1.487 . S
C159 C156 1.382 . S
C159 C160 1.387 . S
C159 H176 0.930 . S
C160 C158 1.381 . S
C160 C159 1.387 . S
C160 H177 0.931 . S
C161 C154 1.399 . S
C161 C158 1.487 . S
C161 N178 1.343 . S
H162 C134 0.931 . S
H163 C136 0.930 . S
H164 C138 0.930 . S
H165 C139 0.931 . S
H166 C141 0.931 . S
H167 C143 0.930 . S
H168 C145 0.930 . S
H169 C146 0.931 . S
H170 C148 0.931 . S
H171 C150 0.930 . S
H172 C152 0.930 . S
H173 C153 0.931 . S
H174 C155 0.931 . S
H175 C157 0.930 . S
H176 C159 0.930 . S
H177 C160 0.931 . S
N178 C140 1.343 . S
N178 C161 1.343 . S
N179 C147 1.343 . S
N179 C154 1.343 . S
H180 C198 0.951 1_655 S
H181 C200 0.951 1_655 S
H182 C202 0.950 . S
H183 C203 0.950 . S
H184 C205 0.950 . S
H185 C208 0.950 . S
H186 C209 0.950 . S
H187 C211 0.950 1_655 S
H188 C212 0.950 1_655 S
H189 C213 0.951 . S
H190 C215 0.951 . S
H191 C217 0.950 1_655 S
H192 C218 0.950 1_655 S
H193 C220 0.950 . S
H194 C223 0.950 1_655 S
H195 C224 0.950 . S
H196 C226 0.950 . S
H197 C227 0.950 . S
C198 H180 0.951 1_455 S
C198 C199 1.366 . S
C198 C200 1.388 . S
C199 C198 1.366 . S
C199 C203 1.385 . S
C200 H181 0.951 1_455 S
C200 C198 1.388 . S
C200 C201 1.366 . S
C201 C200 1.366 . S
C201 C202 1.414 . S
C201 C204 1.499 . S
C202 H182 0.950 . S
C202 C201 1.414 . S
C202 C203 1.374 . S
C203 H183 0.950 . S
C203 C199 1.385 . S
C203 C202 1.374 . S
C204 C201 1.499 . S
C204 C205 1.373 . S
C204 C206 1.389 . S
C205 H184 0.950 . S
C205 C204 1.373 . S
C205 C221 1.377 . S
C206 C204 1.389 . S
C206 C207 1.524 . S
C206 C220 1.377 . S
C207 C206 1.524 . S
C207 C208 1.397 . S
C207 C212 1.363 . S
C208 H185 0.950 . S
C208 C207 1.397 . S
C208 C209 1.334 . S
C209 H186 0.950 . S
C209 C208 1.334 . S
C209 C210 1.287 . S
C210 C209 1.287 . S
C210 C211 1.524 . S
C210 H229 0.913 . S
C211 H187 0.950 1_455 S
C211 C210 1.524 . S
C211 C212 1.415 . S
C212 H188 0.950 1_455 S
C212 C207 1.363 . S
C212 C211 1.415 . S
C213 H189 0.951 . S
C213 C214 1.366 . S
C213 C215 1.388 . S
C214 C213 1.366 . S
C214 C218 1.385 . S
C215 H190 0.951 . S
C215 C213 1.388 . S
C215 C216 1.366 . S
C216 C215 1.366 . S
C216 C217 1.414 . S
C216 C219 1.499 . S
C217 H191 0.950 1_455 S
C217 C216 1.414 . S
C217 C218 1.374 . S
C218 H192 0.950 1_455 S
C218 C214 1.385 . S
C218 C217 1.374 . S
C219 C216 1.499 . S
C219 C220 1.373 . S
C219 C221 1.389 . S
C220 H193 0.950 . S
C220 C206 1.377 . S
C220 C219 1.373 . S
C221 C205 1.377 . S
C221 C219 1.389 . S
C221 C222 1.524 . S
C222 C221 1.524 . S
C222 C223 1.397 . S
C222 C227 1.363 . S
C223 H194 0.950 1_455 S
C223 C222 1.397 . S
C223 C224 1.334 1_455 S
C224 H195 0.950 . S
C224 C223 1.334 1_655 S
C224 C225 1.287 1_655 S
C225 C224 1.287 1_455 S
C225 C226 1.524 . S
C225 H228 0.999 . S
C226 H196 0.950 . S
C226 C225 1.524 . S
C226 C227 1.415 . S
C227 H197 0.950 . S
C227 C222 1.363 . S
C227 C226 1.415 . S
H228 C225 0.999 . S
H229 C210 0.913 . S
H230 C248 0.951 . S
H231 C250 0.951 . S
H232 C252 0.950 1_565 S
H233 C253 0.950 1_565 S
H234 C255 0.950 . S
H235 C258 0.950 . S
H236 C259 0.950 . S
H237 C261 0.950 . S
H238 C262 0.950 . S
H239 C263 0.951 1_565 S
H240 C265 0.951 1_565 S
H241 C267 0.950 . S
H242 C268 0.950 . S
H243 C270 0.950 . S
H244 C273 0.950 . S
H245 C274 0.950 . S
H246 C276 0.950 . S
H247 C277 0.927 1_565 S
C248 H230 0.951 . S
C248 C249 1.366 . S
C248 C250 1.388 . S
C249 C248 1.366 . S
C249 C253 1.385 . S
C250 H231 0.951 . S
C250 C248 1.388 . S
C250 C251 1.366 . S
C251 C250 1.366 . S
C251 C252 1.414 . S
C251 C254 1.499 . S
C252 H232 0.950 1_545 S
C252 C251 1.414 . S
C252 C253 1.374 . S
C253 H233 0.950 1_545 S
C253 C249 1.385 . S
C253 C252 1.374 . S
C254 C251 1.499 . S
C254 C255 1.373 . S
C254 C256 1.389 . S
C255 H234 0.950 . S
C255 C254 1.373 . S
C255 C271 1.377 . S
C256 C254 1.389 . S
C256 C257 1.524 . S
C256 C270 1.377 . S
C257 C256 1.524 . S
C257 C258 1.397 1_545 S
C257 C262 1.363 . S
C258 H235 0.950 . S
C258 C257 1.397 1_565 S
C258 C259 1.334 . S
C259 H236 0.950 . S
C259 C258 1.334 . S
C259 C260 1.287 . S
C260 C259 1.287 . S
C260 C261 1.524 1_565 S
C260 H279 0.913 . S
C261 H237 0.950 . S
C261 C260 1.524 1_545 S
C261 C262 1.415 . S
C262 H238 0.950 . S
C262 C257 1.363 . S
C262 C261 1.415 . S
C263 H239 0.951 1_545 S
C263 C264 1.366 . S
C263 C265 1.388 . S
C264 C263 1.366 . S
C264 C268 1.385 . S
C265 H240 0.951 1_545 S
C265 C263 1.388 . S
C265 C266 1.366 . S
C266 C265 1.366 . S
C266 C267 1.414 . S
C266 C269 1.499 . S
C267 H241 0.950 . S
C267 C266 1.414 . S
C267 C268 1.374 . S
C268 H242 0.950 . S
C268 C264 1.385 . S
C268 C267 1.374 . S
C269 C266 1.499 . S
C269 C270 1.373 . S
C269 C271 1.389 . S
C270 H243 0.950 . S
C270 C256 1.377 . S
C270 C269 1.373 . S
C271 C255 1.377 . S
C271 C269 1.389 . S
C271 C272 1.524 . S
C272 C271 1.524 . S
C272 C273 1.397 . S
C272 C277 1.363 . S
C273 H244 0.950 . S
C273 C272 1.397 . S
C273 C274 1.334 . S
C274 H245 0.950 . S
C274 C273 1.334 . S
C274 C275 1.287 . S
C275 C274 1.287 . S
C275 C276 1.524 . S
C275 H278 0.999 . S
C276 H246 0.950 . S
C276 C275 1.524 . S
C276 C277 1.415 . S
C277 H247 0.927 1_545 S
C277 C272 1.363 . S
C277 C276 1.415 . S
H278 C275 0.999 . S
H279 C260 0.913 . S
H280 C298 0.951 . S
H281 C300 0.951 . S
H282 C302 0.950 . S
H283 C303 0.950 . S
H284 C305 0.950 . S
H285 C308 0.950 . S
H286 C309 0.950 1_545 S
H287 C311 0.950 1_545 S
H288 C312 0.950 . S
H289 C313 0.951 . S
H290 C315 0.951 . S
H291 C317 0.950 . S
H292 C318 0.950 . S
H293 C320 0.950 . S
H294 C323 0.950 . S
H295 C324 0.950 . S
H296 C326 0.950 . S
H297 C327 0.950 . S
C298 H280 0.951 . S
C298 C299 1.366 . S
C298 C300 1.388 . S
C299 C298 1.366 . S
C299 C303 1.385 . S
C300 H281 0.951 . S
C300 C298 1.388 . S
C300 C301 1.366 . S
C301 C300 1.366 . S
C301 C302 1.414 . S
C301 C304 1.499 . S
C302 H282 0.950 . S
C302 C301 1.414 . S
C302 C303 1.374 . S
C303 H283 0.950 . S
C303 C299 1.385 . S
C303 C302 1.374 . S
C304 C301 1.499 . S
C304 C305 1.373 . S
C304 C306 1.389 . S
C305 H284 0.950 . S
C305 C304 1.373 . S
C305 C321 1.377 . S
C306 C304 1.389 . S
C306 C307 1.524 . S
C306 C320 1.377 . S
C307 C306 1.524 . S
C307 C308 1.397 . S
C307 C312 1.363 . S
C308 H285 0.950 . S
C308 C307 1.397 . S
C308 C309 1.334 . S
C309 H286 0.950 1_565 S
C309 C308 1.334 . S
C309 C310 1.287 1_565 S
C310 C309 1.287 1_545 S
C310 C311 1.524 1_545 S
C310 H329 0.913 . S
C311 H287 0.950 1_565 S
C311 C310 1.524 1_565 S
C311 C312 1.415 . S
C312 H288 0.950 . S
C312 C307 1.363 . S
C312 C311 1.415 . S
C313 H289 0.951 . S
C313 C314 1.366 . S
C313 C315 1.388 . S
C314 C313 1.366 . S
C314 C318 1.385 . S
C315 H290 0.951 . S
C315 C313 1.388 . S
C315 C316 1.366 . S
C316 C315 1.366 . S
C316 C317 1.414 . S
C316 C319 1.499 . S
C317 H291 0.950 . S
C317 C316 1.414 . S
C317 C318 1.374 . S
C318 H292 0.950 . S
C318 C314 1.385 . S
C318 C317 1.374 . S
C319 C316 1.499 . S
C319 C320 1.373 . S
C319 C321 1.389 . S
C320 H293 0.950 . S
C320 C306 1.377 . S
C320 C319 1.373 . S
C321 C305 1.377 . S
C321 C319 1.389 . S
C321 C322 1.524 . S
C322 C321 1.524 . S
C322 C323 1.397 . S
C322 C327 1.363 . S
C323 H294 0.950 . S
C323 C322 1.397 . S
C323 C324 1.334 . S
C324 H295 0.950 . S
C324 C323 1.334 . S
C324 C325 1.287 . S
C325 C324 1.287 . S
C325 C326 1.524 . S
C325 H328 0.999 . S
C326 H296 0.950 . S
C326 C325 1.524 . S
C326 C327 1.415 . S
C327 H297 0.950 . S
C327 C322 1.363 . S
C327 C326 1.415 . S
H328 C325 0.999 . S
H329 C310 0.913 . S
H330 C348 0.951 . S
H331 C350 0.951 . S
H332 C352 0.950 1_655 S
H333 C353 0.950 1_655 S
H334 C355 0.950 1_655 S
H335 C358 0.950 . S
H336 C359 0.950 . S
H337 C361 0.950 . S
H338 C362 0.950 . S
H339 C363 0.951 1_655 S
H340 C365 0.951 1_655 S
H341 C367 0.950 . S
H342 C368 0.950 . S
H343 C370 0.950 . S
H344 C373 0.950 1_455 S
H345 C374 0.950 . S
H346 C376 0.950 . S
H347 C377 0.950 . S
C348 H330 0.951 . S
C348 C349 1.366 . S
C348 C350 1.388 . S
C349 C348 1.366 . S
C349 C353 1.385 . S
C350 H331 0.951 . S
C350 C348 1.388 . S
C350 C351 1.366 . S
C351 C350 1.366 . S
C351 C352 1.414 . S
C351 C354 1.499 . S
C352 H332 0.950 1_455 S
C352 C351 1.414 . S
C352 C353 1.374 . S
C353 H333 0.950 1_455 S
C353 C349 1.385 . S
C353 C352 1.374 . S
C354 C351 1.499 . S
C354 C355 1.373 . S
C354 C356 1.389 . S
C355 H334 0.950 1_455 S
C355 C354 1.373 . S
C355 C371 1.377 . S
C356 C354 1.389 . S
C356 C357 1.524 . S
C356 C370 1.377 . S
C357 C356 1.524 . S
C357 C358 1.397 . S
C357 C362 1.363 . S
C358 H335 0.950 . S
C358 C357 1.397 . S
C358 C359 1.334 . S
C359 H336 0.950 . S
C359 C358 1.334 . S
C359 C360 1.287 . S
C360 C359 1.287 . S
C360 C361 1.524 . S
C360 H379 0.913 . S
C361 H337 0.950 . S
C361 C360 1.524 . S
C361 C362 1.415 . S
C362 H338 0.950 . S
C362 C357 1.363 . S
C362 C361 1.415 . S
C363 H339 0.951 1_455 S
C363 C364 1.366 . S
C363 C365 1.388 . S
C364 C363 1.366 . S
C364 C368 1.385 . S
C365 H340 0.951 1_455 S
C365 C363 1.388 . S
C365 C366 1.366 . S
C366 C365 1.366 . S
C366 C367 1.414 . S
C366 C369 1.499 . S
C367 H341 0.950 . S
C367 C366 1.414 . S
C367 C368 1.374 . S
C368 H342 0.950 . S
C368 C364 1.385 . S
C368 C367 1.374 . S
C369 C366 1.499 . S
C369 C370 1.373 . S
C369 C371 1.389 . S
C370 H343 0.950 . S
C370 C356 1.377 . S
C370 C369 1.373 . S
C371 C355 1.377 . S
C371 C369 1.389 . S
C371 C372 1.524 1_455 S
C372 C371 1.524 1_655 S
C372 C373 1.397 . S
C372 C377 1.363 . S
C373 H344 0.950 1_655 S
C373 C372 1.397 . S
C373 C374 1.334 . S
C374 H345 0.950 . S
C374 C373 1.334 . S
C374 C375 1.287 . S
C375 C374 1.287 . S
C375 C376 1.524 . S
C375 H378 0.999 . S
C376 H346 0.950 . S
C376 C375 1.524 . S
C376 C377 1.415 . S
C377 H347 0.950 . S
C377 C372 1.363 . S
C377 C376 1.415 . S
H378 C375 0.999 . S
H379 C360 0.913 . S
H380 C398 0.951 . S
H381 C400 0.951 . S
H382 C402 0.950 1_565 S
H383 C403 0.950 1_565 S
H384 C405 0.950 . S
H385 C408 0.950 . S
H386 C409 0.950 . S
H387 C411 0.950 . S
H388 C412 0.950 . S
H389 C413 0.951 1_565 S
H390 C415 0.951 1_565 S
H391 C417 0.950 . S
H392 C418 0.950 . S
H393 C420 0.950 . S
H394 C423 0.950 . S
H395 C424 0.950 . S
H396 C426 0.950 . S
H397 C427 0.950 . S
C398 H380 0.951 . S
C398 C399 1.366 . S
C398 C400 1.388 . S
C399 C398 1.366 . S
C399 C403 1.385 . S
C400 H381 0.951 . S
C400 C398 1.388 . S
C400 C401 1.366 . S
C401 C400 1.366 . S
C401 C402 1.414 . S
C401 C404 1.499 . S
C402 H382 0.950 1_545 S
C402 C401 1.414 . S
C402 C403 1.374 . S
C403 H383 0.950 1_545 S
C403 C399 1.385 . S
C403 C402 1.374 . S
C404 C401 1.499 . S
C404 C405 1.373 . S
C404 C406 1.389 . S
C405 H384 0.950 . S
C405 C404 1.373 . S
C405 C421 1.377 . S
C406 C404 1.389 . S
C406 C407 1.524 . S
C406 C420 1.377 . S
C407 C406 1.524 . S
C407 C408 1.397 1_545 S
C407 C412 1.363 . S
C408 H385 0.950 . S
C408 C407 1.397 1_565 S
C408 C409 1.334 . S
C409 H386 0.950 . S
C409 C408 1.334 . S
C409 C410 1.287 . S
C410 C409 1.287 . S
C410 C411 1.524 1_565 S
C410 H429 0.913 . S
C411 H387 0.950 . S
C411 C410 1.524 1_545 S
C411 C412 1.415 . S
C412 H388 0.950 . S
C412 C407 1.363 . S
C412 C411 1.415 . S
C413 H389 0.951 1_545 S
C413 C414 1.366 . S
C413 C415 1.388 . S
C414 C413 1.366 . S
C414 C418 1.385 . S
C415 H390 0.951 1_545 S
C415 C413 1.388 . S
C415 C416 1.366 . S
C416 C415 1.366 . S
C416 C417 1.414 . S
C416 C419 1.499 . S
C417 H391 0.950 . S
C417 C416 1.414 . S
C417 C418 1.374 . S
C418 H392 0.950 . S
C418 C414 1.385 . S
C418 C417 1.374 . S
C419 C416 1.499 . S
C419 C420 1.373 . S
C419 C421 1.389 . S
C420 H393 0.950 . S
C420 C406 1.377 . S
C420 C419 1.373 . S
C421 C405 1.377 . S
C421 C419 1.389 . S
C421 C422 1.524 . S
C422 C421 1.524 . S
C422 C423 1.397 . S
C422 C427 1.363 . S
C423 H394 0.950 . S
C423 C422 1.397 . S
C423 C424 1.334 . S
C424 H395 0.950 . S
C424 C423 1.334 . S
C424 C425 1.287 . S
C425 C424 1.287 . S
C425 C426 1.524 . S
C425 H428 0.999 . S
C426 H396 0.950 . S
C426 C425 1.524 . S
C426 C427 1.415 . S
C427 H397 0.950 . S
C427 C422 1.363 . S
C427 C426 1.415 . S
H428 C425 0.999 . S
H429 C410 0.913 . S
H430 C448 0.951 . S
H431 C450 0.951 . S
H432 C452 0.950 . S
H433 C453 0.950 . S
H434 C455 0.950 . S
H435 C458 0.950 . S
H436 C459 0.950 . S
H437 C461 0.950 . S
H438 C462 0.950 . S
H439 C463 0.951 . S
H440 C465 0.951 . S
H441 C467 0.950 . S
H442 C468 0.950 . S
H443 C470 0.950 . S
H444 C473 0.950 . S
H445 C474 0.950 . S
H446 C476 0.950 . S
H447 C477 0.950 . S
C448 H430 0.951 . S
C448 C449 1.366 . S
C448 C450 1.388 . S
C449 C448 1.366 . S
C449 C453 1.385 . S
C450 H431 0.951 . S
C450 C448 1.388 . S
C450 C451 1.366 . S
C451 C450 1.366 . S
C451 C452 1.414 . S
C451 C454 1.499 . S
C452 H432 0.950 . S
C452 C451 1.414 . S
C452 C453 1.374 . S
C453 H433 0.950 . S
C453 C449 1.385 . S
C453 C452 1.374 . S
C454 C451 1.499 . S
C454 C455 1.373 . S
C454 C456 1.389 . S
C455 H434 0.950 . S
C455 C454 1.373 . S
C455 C471 1.377 . S
C456 C454 1.389 . S
C456 C457 1.524 . S
C456 C470 1.377 . S
C457 C456 1.524 . S
C457 C458 1.397 . S
C457 C462 1.363 . S
C458 H435 0.950 . S
C458 C457 1.397 . S
C458 C459 1.334 . S
C459 H436 0.950 . S
C459 C458 1.334 . S
C459 C460 1.287 . S
C460 C459 1.287 . S
C460 C461 1.524 . S
C460 H479 0.913 . S
C461 H437 0.950 . S
C461 C460 1.524 . S
C461 C462 1.415 . S
C462 H438 0.950 . S
C462 C457 1.363 . S
C462 C461 1.415 . S
C463 H439 0.951 . S
C463 C464 1.366 . S
C463 C465 1.388 . S
C464 C463 1.366 . S
C464 C468 1.385 . S
C465 H440 0.951 . S
C465 C463 1.388 . S
C465 C466 1.366 . S
C466 C465 1.366 . S
C466 C467 1.414 . S
C466 C469 1.499 . S
C467 H441 0.950 . S
C467 C466 1.414 . S
C467 C468 1.374 . S
C468 H442 0.950 . S
C468 C464 1.385 . S
C468 C467 1.374 . S
C469 C466 1.499 . S
C469 C470 1.373 . S
C469 C471 1.389 . S
C470 H443 0.950 . S
C470 C456 1.377 . S
C470 C469 1.373 . S
C471 C455 1.377 . S
C471 C469 1.389 . S
C471 C472 1.524 . S
C472 C471 1.524 . S
C472 C473 1.397 . S
C472 C477 1.363 . S
C473 H444 0.950 . S
C473 C472 1.397 . S
C473 C474 1.334 . S
C474 H445 0.950 . S
C474 C473 1.334 . S
C474 C475 1.287 . S
C475 C474 1.287 . S
C475 C476 1.524 . S
C475 H478 0.999 . S
C476 H446 0.950 . S
C476 C475 1.524 . S
C476 C477 1.415 . S
C477 H447 0.950 . S
C477 C472 1.363 . S
C477 C476 1.415 . S
H478 C475 0.999 . S
H479 C460 0.913 . S
H480 C498 0.951 1_565 S
H481 C500 0.951 1_565 S
H482 C502 0.950 . S
H483 C503 0.950 . S
H484 C505 0.950 . S
H485 C508 0.950 . S
H486 C509 0.950 . S
H487 C511 0.950 . S
H488 C512 0.950 . S
H489 C513 0.951 . S
H490 C515 0.951 . S
H491 C517 0.950 1_565 S
H492 C518 0.950 1_565 S
H493 C520 0.950 . S
H494 C523 0.950 . S
H495 C524 0.950 . S
H496 C526 0.950 . S
H497 C527 0.950 . S
C498 H480 0.951 1_545 S
C498 C499 1.366 . S
C498 C500 1.388 . S
C499 C498 1.366 . S
C499 C503 1.385 . S
C500 H481 0.951 1_545 S
C500 C498 1.388 . S
C500 C501 1.366 . S
C501 C500 1.366 . S
C501 C502 1.414 . S
C501 C504 1.499 . S
C502 H482 0.950 . S
C502 C501 1.414 . S
C502 C503 1.374 . S
C503 H483 0.950 . S
C503 C499 1.385 . S
C503 C502 1.374 . S
C504 C501 1.499 . S
C504 C505 1.373 . S
C504 C506 1.389 . S
C505 H484 0.950 . S
C505 C504 1.373 . S
C505 C521 1.377 . S
C506 C504 1.389 . S
C506 C507 1.524 . S
C506 C520 1.377 . S
C507 C506 1.524 . S
C507 C508 1.397 . S
C507 C512 1.363 1_545 S
C508 H485 0.950 . S
C508 C507 1.397 . S
C508 C509 1.334 . S
C509 H486 0.950 . S
C509 C508 1.334 . S
C509 C510 1.287 . S
C510 C509 1.287 . S
C510 C511 1.524 1_545 S
C510 H529 0.913 . S
C511 H487 0.950 . S
C511 C510 1.524 1_565 S
C511 C512 1.415 . S
C512 H488 0.950 . S
C512 C507 1.363 1_565 S
C512 C511 1.415 . S
C513 H489 0.951 . S
C513 C514 1.366 . S
C513 C515 1.388 . S
C514 C513 1.366 . S
C514 C518 1.385 . S
C515 H490 0.951 . S
C515 C513 1.388 . S
C515 C516 1.366 . S
C516 C515 1.366 . S
C516 C517 1.414 . S
C516 C519 1.499 . S
C517 H491 0.950 1_545 S
C517 C516 1.414 . S
C517 C518 1.374 . S
C518 H492 0.950 1_545 S
C518 C514 1.385 . S
C518 C517 1.374 . S
C519 C516 1.499 . S
C519 C520 1.373 . S
C519 C521 1.389 . S
C520 H493 0.950 . S
C520 C506 1.377 . S
C520 C519 1.373 . S
C521 C505 1.377 . S
C521 C519 1.389 . S
C521 C522 1.524 . S
C522 C521 1.524 . S
C522 C523 1.397 . S
C522 C527 1.363 . S
C523 H494 0.950 . S
C523 C522 1.397 . S
C523 C524 1.334 . S
C524 H495 0.950 . S
C524 C523 1.334 . S
C524 C525 1.287 . S
C525 C524 1.287 . S
C525 C526 1.524 . S
C525 H528 0.999 . S
C526 H496 0.950 . S
C526 C525 1.524 . S
C526 C527 1.415 . S
C527 H497 0.950 . S
C527 C522 1.363 . S
C527 C526 1.415 . S
H528 C525 0.999 . S
H529 C510 0.913 . S
H530 C548 0.951 . S
H531 C550 0.951 . S
H532 C552 0.950 . S
H533 C553 0.950 . S
H534 C555 0.950 . S
H535 C558 0.950 . S
H536 C559 0.950 . S
H537 C561 0.950 . S
H538 C562 0.950 . S
H539 C563 0.951 . S
H540 C565 0.951 . S
H541 C567 0.950 . S
H542 C568 0.950 . S
H543 C570 0.950 . S
H544 C573 0.950 . S
H545 C574 0.950 . S
H546 C576 0.950 . S
H547 C577 0.950 . S
C548 H530 0.951 . S
C548 C549 1.366 . S
C548 C550 1.388 . S
C549 C548 1.366 . S
C549 C553 1.385 . S
C550 H531 0.951 . S
C550 C548 1.388 . S
C550 C551 1.366 . S
C551 C550 1.366 . S
C551 C552 1.414 . S
C551 C554 1.499 1_554 S
C552 H532 0.950 . S
C552 C551 1.414 . S
C552 C553 1.374 . S
C553 H533 0.950 . S
C553 C549 1.385 . S
C553 C552 1.374 . S
C554 C551 1.499 1_556 S
C554 C555 1.373 . S
C554 C556 1.389 . S
C555 H534 0.950 . S
C555 C554 1.373 . S
C555 C571 1.377 . S
C556 C554 1.389 . S
C556 C557 1.524 1_556 S
C556 C570 1.377 . S
C557 C556 1.524 1_554 S
C557 C558 1.397 . S
C557 C562 1.363 . S
C558 H535 0.950 . S
C558 C557 1.397 . S
C558 C559 1.334 . S
C559 H536 0.950 . S
C559 C558 1.334 . S
C559 C560 1.287 . S
C560 C559 1.287 . S
C560 C561 1.524 . S
C560 H579 0.913 . S
C561 H537 0.950 . S
C561 C560 1.524 . S
C561 C562 1.415 . S
C562 H538 0.950 . S
C562 C557 1.363 . S
C562 C561 1.415 . S
C563 H539 0.951 . S
C563 C564 1.366 . S
C563 C565 1.388 . S
C564 C563 1.366 . S
C564 C568 1.385 . S
C565 H540 0.951 . S
C565 C563 1.388 . S
C565 C566 1.366 . S
C566 C565 1.366 . S
C566 C567 1.414 . S
C566 C569 1.499 . S
C567 H541 0.950 . S
C567 C566 1.414 . S
C567 C568 1.374 . S
C568 H542 0.950 . S
C568 C564 1.385 . S
C568 C567 1.374 . S
C569 C566 1.499 . S
C569 C570 1.373 . S
C569 C571 1.389 . S
C570 H543 0.950 . S
C570 C556 1.377 . S
C570 C569 1.373 . S
C571 C555 1.377 . S
C571 C569 1.389 . S
C571 C572 1.524 . S
C572 C571 1.524 . S
C572 C573 1.397 . S
C572 C577 1.363 . S
C573 H544 0.950 . S
C573 C572 1.397 . S
C573 C574 1.334 . S
C574 H545 0.950 . S
C574 C573 1.334 . S
C574 C575 1.287 . S
C575 C574 1.287 . S
C575 C576 1.524 . S
C575 H578 0.999 . S
C576 H546 0.950 . S
C576 C575 1.524 . S
C576 C577 1.415 . S
C577 H547 0.950 . S
C577 C572 1.363 . S
C577 C576 1.415 . S
H578 C575 0.999 . S
H579 C560 0.913 . S
H580 C598 0.951 . S
H581 C600 0.951 . S
H582 C602 0.950 . S
H583 C603 0.950 . S
H584 C605 0.950 . S
H585 C608 0.950 . S
H586 C609 0.950 . S
H587 C611 0.950 . S
H588 C612 0.950 . S
H589 C613 0.951 . S
H590 C615 0.951 . S
H591 C617 0.950 1_655 S
H592 C618 0.950 1_655 S
H593 C620 0.950 . S
H594 C623 0.950 . S
H595 C624 0.950 . S
H596 C626 0.950 . S
H597 C627 0.950 . S
C598 H580 0.951 . S
C598 C599 1.366 1_655 S
C598 C600 1.388 . S
C599 C598 1.366 1_455 S
C599 C603 1.385 . S
C600 H581 0.951 . S
C600 C598 1.388 . S
C600 C601 1.366 1_655 S
C601 C600 1.366 1_455 S
C601 C602 1.414 . S
C601 C604 1.499 . S
C602 H582 0.950 . S
C602 C601 1.414 . S
C602 C603 1.374 . S
C603 H583 0.950 . S
C603 C599 1.385 . S
C603 C602 1.374 . S
C604 C601 1.499 . S
C604 C605 1.373 . S
C604 C606 1.389 1_455 S
C605 H584 0.950 . S
C605 C604 1.373 . S
C605 C621 1.377 . S
C606 C604 1.389 1_655 S
C606 C607 1.524 . S
C606 C620 1.377 . S
C607 C606 1.524 . S
C607 C608 1.397 . S
C607 C612 1.363 . S
C608 H585 0.950 . S
C608 C607 1.397 . S
C608 C609 1.334 . S
C609 H586 0.950 . S
C609 C608 1.334 . S
C609 C610 1.287 . S
C610 C609 1.287 . S
C610 C611 1.524 . S
C610 H629 0.913 . S
C611 H587 0.950 . S
C611 C610 1.524 . S
C611 C612 1.415 . S
C612 H588 0.950 . S
C612 C607 1.363 . S
C612 C611 1.415 . S
C613 H589 0.951 . S
C613 C614 1.366 . S
C613 C615 1.388 . S
C614 C613 1.366 . S
C614 C618 1.385 . S
C615 H590 0.951 . S
C615 C613 1.388 . S
C615 C616 1.366 . S
C616 C615 1.366 . S
C616 C617 1.414 . S
C616 C619 1.499 . S
C617 H591 0.950 1_455 S
C617 C616 1.414 . S
C617 C618 1.374 . S
C618 H592 0.950 1_455 S
C618 C614 1.385 . S
C618 C617 1.374 . S
C619 C616 1.499 . S
C619 C620 1.373 1_455 S
C619 C621 1.389 . S
C620 H593 0.950 . S
C620 C606 1.377 . S
C620 C619 1.373 1_655 S
C621 C605 1.377 . S
C621 C619 1.389 . S
C621 C622 1.524 . S
C622 C621 1.524 . S
C622 C623 1.397 . S
C622 C627 1.363 . S
C623 H594 0.950 . S
C623 C622 1.397 . S
C623 C624 1.334 . S
C624 H595 0.950 . S
C624 C623 1.334 . S
C624 C625 1.287 . S
C625 C624 1.287 . S
C625 C626 1.524 . S
C625 H628 0.999 . S
C626 H596 0.950 . S
C626 C625 1.524 . S
C626 C627 1.415 . S
C627 H597 0.950 . S
C627 C622 1.363 . S
C627 C626 1.415 . S
H628 C625 0.999 . S
H629 C610 0.913 . S
H630 C648 0.951 . S
H631 C650 0.951 . S
H632 C652 0.950 . S
H633 C653 0.950 . S
H634 C655 0.950 . S
H635 C658 0.950 . S
H636 C659 0.950 . S
H637 C661 0.950 . S
H638 C662 0.950 . S
H639 C663 0.951 . S
H640 C665 0.951 . S
H641 C667 0.950 . S
H642 C668 0.950 . S
H643 C670 0.950 1_565 S
H644 C673 0.950 . S
H645 C674 0.950 . S
H646 C676 0.950 . S
H647 C677 0.950 . S
C648 H630 0.951 . S
C648 C649 1.366 . S
C648 C650 1.388 . S
C649 C648 1.366 . S
C649 C653 1.385 . S
C650 H631 0.951 . S
C650 C648 1.388 . S
C650 C651 1.366 . S
C651 C650 1.366 . S
C651 C652 1.414 . S
C651 C654 1.499 . S
C652 H632 0.950 . S
C652 C651 1.414 . S
C652 C653 1.374 . S
C653 H633 0.950 . S
C653 C649 1.385 . S
C653 C652 1.374 . S
C654 C651 1.499 . S
C654 C655 1.373 . S
C654 C656 1.390 1_545 S
C655 H634 0.950 . S
C655 C654 1.373 . S
C655 C671 1.377 . S
C656 C654 1.390 1_565 S
C656 C657 1.524 . S
C656 C670 1.376 1_565 S
C657 C656 1.524 . S
C657 C658 1.397 . S
C657 C662 1.363 . S
C658 H635 0.950 . S
C658 C657 1.397 . S
C658 C659 1.334 . S
C659 H636 0.950 . S
C659 C658 1.334 . S
C659 C660 1.287 . S
C660 C659 1.287 . S
C660 C661 1.524 . S
C660 H679 0.913 . S
C661 H637 0.950 . S
C661 C660 1.524 . S
C661 C662 1.415 . S
C662 H638 0.950 . S
C662 C657 1.363 . S
C662 C661 1.415 . S
C663 H639 0.951 . S
C663 C664 1.366 . S
C663 C665 1.388 . S
C664 C663 1.366 . S
C664 C668 1.385 . S
C665 H640 0.951 . S
C665 C663 1.388 . S
C665 C666 1.366 . S
C666 C665 1.366 . S
C666 C667 1.414 . S
C666 C669 1.499 . S
C667 H641 0.950 . S
C667 C666 1.414 . S
C667 C668 1.374 . S
C668 H642 0.950 . S
C668 C664 1.385 . S
C668 C667 1.374 . S
C669 C666 1.499 . S
C669 C670 1.373 . S
C669 C671 1.389 . S
C670 H643 0.950 1_545 S
C670 C656 1.376 1_545 S
C670 C669 1.373 . S
C671 C655 1.377 . S
C671 C669 1.389 . S
C671 C672 1.524 . S
C672 C671 1.524 . S
C672 C673 1.397 . S
C672 C677 1.363 . S
C673 H644 0.950 . S
C673 C672 1.397 . S
C673 C674 1.334 . S
C674 H645 0.950 . S
C674 C673 1.334 . S
C674 C675 1.287 . S
C675 C674 1.287 . S
C675 C676 1.524 . S
C675 H678 0.999 . S
C676 H646 0.950 . S
C676 C675 1.524 . S
C676 C677 1.415 . S
C677 H647 0.950 . S
C677 C672 1.363 . S
C677 C676 1.415 . S
H678 C675 0.999 . S
H679 C660 0.913 . S
H680 C698 0.951 . S
H681 C700 0.951 . S
H682 C702 0.950 1_556 S
H683 C703 0.950 . S
H684 C705 0.950 . S
H685 C708 0.950 . S
H686 C709 0.950 . S
H687 C711 0.950 . S
H688 C712 0.950 . S
H689 C713 0.951 . S
H690 C715 0.951 . S
H691 C717 0.950 . S
H692 C718 0.950 . S
H693 C720 0.950 . S
H694 C723 0.950 . S
H695 C724 0.950 . S
H696 C726 0.950 . S
H697 C727 0.950 . S
C698 H680 0.951 . S
C698 C699 1.366 . S
C698 C700 1.388 . S
C699 C698 1.366 . S
C699 C703 1.385 . S
C700 H681 0.951 . S
C700 C698 1.388 . S
C700 C701 1.366 . S
C701 C700 1.366 . S
C701 C702 1.414 . S
C701 C704 1.499 1_554 S
C702 H682 0.950 1_554 S
C702 C701 1.414 . S
C702 C703 1.374 . S
C703 H683 0.950 . S
C703 C699 1.385 . S
C703 C702 1.374 . S
C704 C701 1.499 1_556 S
C704 C705 1.373 . S
C704 C706 1.409 . S
C705 H684 0.950 . S
C705 C704 1.373 . S
C705 C721 1.377 . S
C706 C704 1.409 . S
C706 C707 1.462 1_556 S
C706 C720 1.420 . S
C707 C706 1.462 1_554 S
C707 C708 1.397 . S
C707 C712 1.363 . S
C708 H685 0.950 . S
C708 C707 1.397 . S
C708 C709 1.334 . S
C709 H686 0.950 . S
C709 C708 1.334 . S
C709 C710 1.287 . S
C710 C709 1.287 . S
C710 C711 1.524 . S
C710 H729 0.913 . S
C711 H687 0.950 . S
C711 C710 1.524 . S
C711 C712 1.415 . S
C712 H688 0.950 . S
C712 C707 1.363 . S
C712 C711 1.415 . S
C713 H689 0.951 . S
C713 C714 1.366 . S
C713 C715 1.388 . S
C714 C713 1.366 . S
C714 C718 1.385 . S
C715 H690 0.951 . S
C715 C713 1.388 . S
C715 C716 1.366 . S
C716 C715 1.366 . S
C716 C717 1.414 . S
C716 C719 1.499 . S
C717 H691 0.950 . S
C717 C716 1.414 . S
C717 C718 1.374 . S
C718 H692 0.950 . S
C718 C714 1.385 . S
C718 C717 1.374 . S
C719 C716 1.499 . S
C719 C720 1.373 . S
C719 C721 1.389 . S
C720 H693 0.950 . S
C720 C706 1.420 . S
C720 C719 1.373 . S
C721 C705 1.377 . S
C721 C719 1.389 . S
C721 C722 1.524 . S
C722 C721 1.524 . S
C722 C723 1.397 . S
C722 C727 1.363 . S
C723 H694 0.950 . S
C723 C722 1.397 . S
C723 C724 1.334 . S
C724 H695 0.950 . S
C724 C723 1.334 . S
C724 C725 1.287 . S
C725 C724 1.287 . S
C725 C726 1.524 . S
C725 H728 0.999 . S
C726 H696 0.950 . S
C726 C725 1.524 . S
C726 C727 1.415 . S
C727 H697 0.950 . S
C727 C722 1.363 . S
C727 C726 1.415 . S
H728 C725 0.999 . S
H729 C710 0.913 . S
H730 C748 0.951 1_655 S
H731 C750 0.951 1_655 S
H732 C752 0.950 . S
H733 C753 0.950 . S
H734 C755 0.950 . S
H735 C758 0.950 . S
H736 C759 0.950 . S
H737 C761 0.950 . S
H738 C762 0.950 . S
H739 C763 0.951 . S
H740 C765 0.951 . S
H741 C767 0.950 1_655 S
H742 C768 0.955 . S
H743 C770 0.950 . S
H744 C773 0.950 . S
H745 C774 0.950 . S
H746 C776 0.950 . S
H747 C777 0.950 . S
C748 H730 0.951 1_455 S
C748 C749 1.366 . S
C748 C750 1.388 . S
C749 C748 1.366 . S
C749 C753 1.385 . S
C750 H731 0.951 1_455 S
C750 C748 1.388 . S
C750 C751 1.366 . S
C751 C750 1.366 . S
C751 C752 1.414 . S
C751 C754 1.499 . S
C752 H732 0.950 . S
C752 C751 1.414 . S
C752 C753 1.374 . S
C753 H733 0.950 . S
C753 C749 1.385 . S
C753 C752 1.374 . S
C754 C751 1.499 . S
C754 C755 1.373 . S
C754 C756 1.389 . S
C755 H734 0.950 . S
C755 C754 1.373 . S
C755 C771 1.377 . S
C756 C754 1.389 . S
C756 C757 1.524 . S
C756 C770 1.377 . S
C757 C756 1.524 . S
C757 C758 1.397 . S
C757 C762 1.363 . S
C758 H735 0.950 . S
C758 C757 1.397 . S
C758 C759 1.334 . S
C759 H736 0.950 . S
C759 C758 1.334 . S
C759 C760 1.287 . S
C760 C759 1.287 . S
C760 C761 1.524 . S
C760 H779 0.913 . S
C761 H737 0.950 . S
C761 C760 1.524 . S
C761 C762 1.415 . S
C762 H738 0.950 . S
C762 C757 1.363 . S
C762 C761 1.415 . S
C763 H739 0.951 . S
C763 C764 1.366 . S
C763 C765 1.388 . S
C764 C763 1.366 . S
C764 C768 1.385 . S
C765 H740 0.951 . S
C765 C763 1.388 . S
C765 C766 1.366 . S
C766 C765 1.366 . S
C766 C767 1.414 . S
C766 C769 1.499 . S
C767 H741 0.950 1_455 S
C767 C766 1.414 . S
C767 C768 1.374 . S
C768 H742 0.955 . S
C768 C764 1.385 . S
C768 C767 1.374 . S
C769 C766 1.499 . S
C769 C770 1.373 . S
C769 C771 1.389 . S
C770 H743 0.950 . S
C770 C756 1.377 . S
C770 C769 1.373 . S
C771 C755 1.377 . S
C771 C769 1.389 . S
C771 C772 1.524 . S
C772 C771 1.524 . S
C772 C773 1.397 1_455 S
C772 C777 1.363 . S
C773 H744 0.950 . S
C773 C772 1.397 1_655 S
C773 C774 1.334 . S
C774 H745 0.950 . S
C774 C773 1.334 . S
C774 C775 1.287 . S
C775 C774 1.287 . S
C775 C776 1.524 1_655 S
C775 H778 0.999 . S
C776 H746 0.950 . S
C776 C775 1.524 1_455 S
C776 C777 1.415 . S
C777 H747 0.950 . S
C777 C772 1.363 . S
C777 C776 1.415 . S
H778 C775 0.999 . S
H779 C760 0.913 . S
C214 C50 1.443 . S
C199 C0 1.438 . S
C249 C25 1.487 . S
C264 C89 1.488 . S
C299 C33 1.511 . S
C314 C156 1.513 . S
C349 C11 1.436 . S
C364 C57 1.436 . S
C414 C110 1.482 . S
C399 C14 1.476 . S
C449 C37 1.509 . S
C464 C135 1.516 . S
C514 C96 1.480 . S
C499 C28 1.474 . S
C549 C9 1.508 . S
C564 C149 1.513 . S
C614 C64 1.547 . S
C599 C19 1.545 . S
C664 C103 1.487 . S
C649 C39 1.486 . S
C714 C142 1.509 . S
C699 C5 1.510 . S
C749 C23 1.553 . S
C764 C43 1.561 . S
