# Generated by pormake.
# Topology zzz, (3,6)-cn, num edge types: 1
# Building blocks:
#     Node 0, Type 0, BuildingBlock: ESEHIV_clean_linker_0, # of connection points: 3
#     Node 1, Type 0, BuildingBlock: ESEHIV_clean_linker_0, # of connection points: 3
#     Node 2, Type 0, BuildingBlock: ESEHIV_clean_linker_0, # of connection points: 3
#     Node 3, Type 0, BuildingBlock: ESEHIV_clean_linker_0, # of connection points: 3
#     Node 4, Type 0, BuildingBlock: ESEHIV_clean_linker_0, # of connection points: 3
#     Node 5, Type 0, BuildingBlock: ESEHIV_clean_linker_0, # of connection points: 3
#     Node 6, Type 0, BuildingBlock: ESEHIV_clean_linker_0, # of connection points: 3
#     Node 7, Type 0, BuildingBlock: ESEHIV_clean_linker_0, # of connection points: 3
#     Node 8, Type 1, BuildingBlock: BETGAK_clean_sbu_0, # of connection points: 6
#     Node 9, Type 1, BuildingBlock: BETGAK_clean_sbu_0, # of connection points: 6
#     Node 10, Type 1, BuildingBlock: BETGAK_clean_sbu_0, # of connection points: 6
#     Node 11, Type 1, BuildingBlock: BETGAK_clean_sbu_0, # of connection points: 6
#     Edge 12, Type (0, 1), BuildingBlock: UVAHIK_clean_linker_0, # of connection points: 2
#     Edge 13, Type (0, 1), BuildingBlock: UVAHIK_clean_linker_0, # of connection points: 2
#     Edge 14, Type (0, 1), BuildingBlock: UVAHIK_clean_linker_0, # of connection points: 2
#     Edge 15, Type (0, 1), BuildingBlock: UVAHIK_clean_linker_0, # of connection points: 2
#     Edge 16, Type (0, 1), BuildingBlock: UVAHIK_clean_linker_0, # of connection points: 2
#     Edge 17, Type (0, 1), BuildingBlock: UVAHIK_clean_linker_0, # of connection points: 2
#     Edge 18, Type (0, 1), BuildingBlock: UVAHIK_clean_linker_0, # of connection points: 2
#     Edge 19, Type (0, 1), BuildingBlock: UVAHIK_clean_linker_0, # of connection points: 2
#     Edge 20, Type (0, 1), BuildingBlock: UVAHIK_clean_linker_0, # of connection points: 2
#     Edge 21, Type (0, 1), BuildingBlock: UVAHIK_clean_linker_0, # of connection points: 2
#     Edge 22, Type (0, 1), BuildingBlock: UVAHIK_clean_linker_0, # of connection points: 2
#     Edge 23, Type (0, 1), BuildingBlock: UVAHIK_clean_linker_0, # of connection points: 2
#     Edge 24, Type (0, 1), BuildingBlock: UVAHIK_clean_linker_0, # of connection points: 2
#     Edge 25, Type (0, 1), BuildingBlock: UVAHIK_clean_linker_0, # of connection points: 2
#     Edge 26, Type (0, 1), BuildingBlock: UVAHIK_clean_linker_0, # of connection points: 2
#     Edge 27, Type (0, 1), BuildingBlock: UVAHIK_clean_linker_0, # of connection points: 2
#     Edge 28, Type (0, 1), BuildingBlock: UVAHIK_clean_linker_0, # of connection points: 2
#     Edge 29, Type (0, 1), BuildingBlock: UVAHIK_clean_linker_0, # of connection points: 2
#     Edge 30, Type (0, 1), BuildingBlock: UVAHIK_clean_linker_0, # of connection points: 2
#     Edge 31, Type (0, 1), BuildingBlock: UVAHIK_clean_linker_0, # of connection points: 2
#     Edge 32, Type (0, 1), BuildingBlock: UVAHIK_clean_linker_0, # of connection points: 2
#     Edge 33, Type (0, 1), BuildingBlock: UVAHIK_clean_linker_0, # of connection points: 2
#     Edge 34, Type (0, 1), BuildingBlock: UVAHIK_clean_linker_0, # of connection points: 2
#     Edge 35, Type (0, 1), BuildingBlock: UVAHIK_clean_linker_0, # of connection points: 2
# Relax obj value: 0.451
# Max RMSD: 0.268
# Mean RMSD: 0.253
data_MOF--net-zzz--node1-BETGAK_clean_sbu_0--node2-ESEHIV_clean_linker_0--edge1-UVAHIK_clean_linker_0
_symmetry_space_group_name_H-M    P1
_symmetry_Int_Tables_number       1
_symmetry_cell_setting            triclinic
loop_
_symmetry_equiv_pos_as_xyz
'x, y, z'
_cell_length_a     60.382325
_cell_length_b     60.374419
_cell_length_c     18.530874
_cell_angle_alpha  89.97968
_cell_angle_beta   89.9046
_cell_angle_gamma 89.933103
loop_
_atom_site_label
_atom_site_type_symbol
_atom_site_fract_x
_atom_site_fract_y
_atom_site_fract_z
_atom_type_partial_charge
H0 H 0.78355 0.48859 0.23262 0.0
H1 H 0.71979 0.49286 0.13268 0.0
H2 H 0.72664 0.50752 0.35952 0.0
C3 C 0.76598 0.49217 0.23655 0.0
C4 C 0.75687 0.49821 0.30348 0.0
C5 C 0.75272 0.49024 0.17505 0.0
C6 C 0.73005 0.4943 0.18049 0.0
C7 C 0.72042 0.50057 0.24635 0.0
C8 C 0.73393 0.50288 0.30827 0.0
H9 H 0.05902 0.77484 0.29085 0.0
H10 H 0.05545 0.71285 0.17779 0.0
H11 H 0.00834 0.72775 0.34567 0.0
C12 C 0.05178 0.75856 0.284 0.0
C13 C 0.03367 0.75261 0.32755 0.0
C14 C 0.05972 0.74456 0.2293 0.0
C15 C 0.04944 0.72401 0.21928 0.0
C16 C 0.03085 0.71792 0.26021 0.0
C17 C 0.02275 0.73234 0.31418 0.0
H18 H 0.73246 0.02601 0.23559 0.0
H19 H 0.79654 0.0218 0.13714 0.0
H20 H 0.789 1.00722 0.36392 0.0
C21 C 0.75003 0.02245 0.23993 0.0
C22 C 0.75893 0.01645 0.30709 0.0
C23 C 0.76348 0.02438 0.17873 0.0
C24 C 0.78614 0.02036 0.18472 0.0
C25 C 0.79556 0.01413 0.25085 0.0
C26 C 0.78186 0.01183 0.31246 0.0
H27 H 0.45019 0.74267 0.29982 0.0
H28 H 0.50402 0.7876 0.34445 0.0
H29 H 0.46025 0.79924 0.16465 0.0
C30 C 0.45904 0.75795 0.28897 0.0
C31 C 0.45289 0.77059 0.22902 0.0
C32 C 0.4775 0.76366 0.33119 0.0
C33 C 0.48965 0.78294 0.31306 0.0
C34 C 0.48306 0.79611 0.25367 0.0
C35 C 0.46487 0.78962 0.21178 0.0
H36 H 0.24297 0.56708 0.12567 0.0
H37 H 0.29934 0.55669 0.26116 0.0
H38 H 0.28822 0.5135 0.07954 0.0
C39 C 0.25829 0.55826 0.13632 0.0
C40 C 0.26417 0.53994 0.09348 0.0
C41 C 0.27079 0.56423 0.1967 0.0
C42 C 0.28984 0.55223 0.21368 0.0
C43 C 0.29647 0.5342 0.17113 0.0
C44 C 0.28346 0.52779 0.11134 0.0
H45 H 0.96562 0.24136 0.14189 0.0
H46 H 0.97536 0.30136 0.26081 0.0
H47 H 0.01671 0.28707 0.07657 0.0
C48 C 0.974 0.25714 0.14779 0.0
C49 C 0.99145 0.2626 0.1008 0.0
C50 C 0.96825 0.2709 0.20559 0.0
C51 C 0.97971 0.29072 0.21575 0.0
C52 C 0.99695 0.29684 0.16904 0.0
C53 C 1.00311 0.28261 0.11186 0.0
H54 H 0.27088 0.95208 0.12367 0.0
H55 H 0.21391 0.96228 0.25725 0.0
H56 H 0.22565 1.00551 0.0759 0.0
C57 C 0.2555 0.96085 0.13383 0.0
C58 C 0.24973 0.97915 0.09077 0.0
C59 C 0.24276 0.95484 0.19379 0.0
C60 C 0.22359 0.96677 0.21008 0.0
C61 C 0.21709 0.98477 0.16723 0.0
C62 C 0.23033 0.99123 0.10792 0.0
H63 H 0.56005 0.27824 0.13038 0.0
H64 H 0.51213 0.22796 0.07751 0.0
H65 H 0.55737 0.21884 0.25567 0.0
C66 C 0.55308 0.2619 0.13931 0.0
C67 C 0.56088 0.24917 0.19685 0.0
C68 C 0.53551 0.25461 0.09595 0.0
C69 C 0.52571 0.23379 0.11052 0.0
C70 C 0.53413 0.22033 0.16691 0.0
C71 C 0.55141 0.2285 0.2103 0.0
La72 La 0.0261 0.99953 0.78418 0.0
La73 La 0.99413 0.01097 0.67479 0.0
C74 C 0.0484 0.98182 0.88371 0.0
C75 C 0.06183 0.96152 0.88873 0.0
C76 C 0.08218 0.96196 0.92506 0.0
C77 C 0.09532 0.94289 0.92888 0.0
C78 C 0.08831 0.92308 0.89617 0.0
C79 C 0.06802 0.92286 0.85898 0.0
C80 C 0.05496 0.94188 0.85522 0.0
C81 C 0.04419 0.01353 0.66192 0.0
C82 C 0.0081 0.962 0.67607 0.0
C83 C 0.97191 0.02964 0.57732 0.0
C84 C 0.9612 0.05159 0.57204 0.0
C85 C 0.938 0.05326 0.57388 0.0
C86 C 0.92765 0.07396 0.571 0.0
C87 C 0.9403 0.09343 0.56557 0.0
C88 C 0.96354 0.09168 0.56381 0.0
C89 C 0.97387 0.07104 0.5672 0.0
C90 C 0.97621 0.99674 0.79717 0.0
C91 C 0.0122 0.0486 0.78018 0.0
O92 O 0.05617 0.997 0.84046 0.0
O93 O 0.027 0.97924 0.87622 0.0
O94 O 0.0514 0.01818 0.72566 0.0
O95 O 0.02785 1.00074 0.668 0.0
O96 O 0.01663 0.96666 0.74024 0.0
O97 O 1.0009 0.97803 0.63382 0.0
O98 O 0.96338 0.0161 0.62472 0.0
O99 O 0.99359 0.02923 0.57842 0.0
O100 O 0.9692 0.99186 0.73329 0.0
O101 O 0.99241 0.00976 0.79118 0.0
O102 O 1.00432 0.04376 0.71554 0.0
O103 O 0.01861 0.03261 0.82405 0.0
H104 H 0.08789 0.97705 0.95059 0.0
H105 H 0.11091 0.94362 0.95762 0.0
H106 H 0.06184 0.9078 0.83452 0.0
H107 H 0.03939 0.9411 0.82672 0.0
H108 H 0.92784 0.03852 0.57785 0.0
H109 H 0.90974 0.07469 0.57301 0.0
H110 H 0.97385 0.10624 0.55794 0.0
H111 H 0.99179 0.07038 0.56566 0.0
La112 La 0.50853 0.02169 0.75492 0.0
La113 La 0.49869 0.99084 0.64212 0.0
C114 C 0.52665 0.04363 0.85345 0.0
C115 C 0.5471 0.05656 0.8484 0.0
C116 C 0.55471 0.06363 0.78048 0.0
C117 C 0.57592 0.07244 0.77283 0.0
C118 C 0.58992 0.07421 0.83294 0.0
C119 C 0.58176 0.06817 0.90152 0.0
C120 C 0.56051 0.05937 0.9091 0.0
C121 C 0.4948 0.04108 0.63437 0.0
C122 C 0.54719 1.00662 0.64806 0.0
C123 C 0.48303 0.96921 0.53752 0.0
C124 C 0.46439 0.95409 0.52607 0.0
C125 C 0.4648 0.93967 0.46697 0.0
C126 C 0.44678 0.92588 0.45306 0.0
C127 C 0.42796 0.92639 0.49795 0.0
C128 C 0.42804 0.94023 0.55902 0.0
C129 C 0.44615 0.95394 0.57307 0.0
C130 C 0.5124 0.97165 0.76347 0.0
C131 C 0.46009 1.00628 0.74983 0.0
O132 O 0.51009 0.05107 0.81517 0.0
O133 O 0.52936 0.02227 0.84556 0.0
O134 O 0.48967 0.04726 0.69892 0.0
O135 O 0.50791 0.02489 0.63867 0.0
O136 O 0.54194 0.01341 0.71369 0.0
O137 O 0.53144 1.00019 0.60353 0.0
O138 O 0.49867 0.96185 0.57964 0.0
O139 O 0.47802 0.98987 0.55124 0.0
O140 O 0.51765 0.96533 0.69916 0.0
O141 O 0.49919 0.98768 0.75822 0.0
O142 O 0.46528 0.99899 0.68445 0.0
O143 O 0.4758 0.01297 0.79413 0.0
H144 H 0.54463 0.06138 0.7327 0.0
H145 H 0.58166 0.07705 0.7195 0.0
H146 H 0.59226 0.06893 0.94878 0.0
H147 H 0.55498 0.05374 0.96165 0.0
H148 H 0.47892 0.93938 0.43078 0.0
H149 H 0.44735 0.91517 0.40621 0.0
H150 H 0.41373 0.94121 0.5942 0.0
H151 H 0.44566 0.96477 0.61957 0.0
La152 La 0.48844 0.51551 0.78703 0.0
La153 La 0.51975 0.50545 0.67407 0.0
C154 C 0.46683 0.53103 0.89212 0.0
C155 C 0.45149 0.54953 0.90367 0.0
C156 C 0.43712 0.54904 0.96297 0.0
C157 C 0.42306 0.56692 0.97678 0.0
C158 C 0.42325 0.58565 0.93159 0.0
C159 C 0.43707 0.58565 0.87037 0.0
C160 C 0.45104 0.56768 0.85641 0.0
C161 C 0.46958 0.50222 0.66508 0.0
C162 C 0.50435 0.55417 0.68023 0.0
C163 C 0.54166 0.48849 0.57238 0.0
C164 C 0.5545 0.46778 0.56474 0.0
C165 C 0.57769 0.46864 0.5596 0.0
C166 C 0.59011 0.44918 0.55359 0.0
C167 C 0.57955 0.42844 0.55191 0.0
C168 C 0.55631 0.42765 0.55731 0.0
C169 C 0.54393 0.44707 0.56389 0.0
C170 C 0.53843 0.5191 0.79597 0.0
C171 C 0.50394 0.46684 0.77934 0.0
O172 O 0.45958 0.51526 0.8503 0.0
O173 O 0.48741 0.53624 0.87789 0.0
O174 O 0.46277 0.49719 0.72906 0.0
O175 O 0.48583 0.5151 0.67093 0.0
O176 O 0.49656 0.54899 0.74505 0.0
O177 O 0.51147 0.53848 0.63636 0.0
O178 O 0.54975 0.50305 0.61721 0.0
O179 O 0.52014 0.48665 0.57884 0.0
O180 O 0.54501 0.52433 0.73185 0.0
O181 O 0.52237 0.50594 0.79033 0.0
O182 O 0.51096 0.47204 0.71384 0.0
O183 O 0.49771 0.48259 0.82434 0.0
H184 H 0.43705 0.53498 0.99935 0.0
H185 H 0.41239 0.5663 0.02379 0.0
H186 H 0.43782 0.5999 0.83496 0.0
H187 H 0.46183 0.56822 0.80976 0.0
H188 H 0.58624 0.48441 0.56035 0.0
H189 H 0.60797 0.4504 0.55014 0.0
H190 H 0.54753 0.41205 0.55451 0.0
H191 H 0.52608 0.44578 0.56777 0.0
La192 La 1.00697 0.49459 0.75177 0.0
La193 La 0.01564 0.52728 0.64321 0.0
C194 C 0.98971 0.47062 0.84713 0.0
C195 C 0.96937 0.45751 0.84143 0.0
C196 C 0.96169 0.45098 0.77314 0.0
C197 C 0.9405 0.44213 0.76534 0.0
C198 C 0.92658 0.43983 0.82564 0.0
C199 C 0.93485 0.44531 0.89449 0.0
C200 C 0.95608 0.45412 0.90223 0.0
C201 C 0.02166 0.47757 0.6288 0.0
C202 C 0.96774 0.50975 0.64732 0.0
C203 C 0.03046 0.55072 0.54122 0.0
C204 C 0.04892 0.56611 0.53024 0.0
C205 C 0.04835 0.58073 0.47167 0.0
C206 C 0.06632 0.59462 0.45766 0.0
C207 C 0.08522 0.59399 0.50194 0.0
C208 C 0.08528 0.57998 0.56262 0.0
C209 C 0.06723 0.56617 0.57676 0.0
C210 C 1.00124 0.54426 0.76726 0.0
C211 C 0.05478 0.51187 0.74878 0.0
O212 O 1.00609 0.46411 0.80616 0.0
O213 O 0.9867 0.49205 0.84363 0.0
O214 O 0.02732 0.47091 0.69235 0.0
O215 O 1.00771 0.49297 0.63536 0.0
O216 O 0.97325 0.50217 0.7118 0.0
O217 O 0.98321 0.51744 0.60375 0.0
O218 O 0.01514 0.5573 0.58604 0.0
O219 O 0.03572 0.52991 0.55106 0.0
O220 O 0.99567 0.55122 0.70396 0.0
O221 O 0.01504 0.52884 0.7595 0.0
O222 O 0.04935 0.51983 0.68445 0.0
O223 O 0.03931 0.504 0.79213 0.0
H224 H 0.97166 0.45369 0.72527 0.0
H225 H 0.9347 0.43795 0.71178 0.0
H226 H 0.92443 0.44416 0.94197 0.0
H227 H 0.96166 0.45934 0.9551 0.0
H228 H 0.03419 0.58108 0.43583 0.0
H229 H 0.06566 0.60545 0.4111 0.0
H230 H 0.09966 0.57891 0.59731 0.0
H231 H 0.06783 0.55516 0.6228 0.0
C232 C 0.19756 0.01173 0.24642 0.0
C233 C 0.19672 0.99668 0.18882 0.0
C234 C 0.17819 0.01781 0.28312 0.0
C235 C 0.12385 0.99376 0.32673 0.0
H236 H 0.1142 0.04984 0.42355 0.0
C237 C 0.07783 0.02789 0.59871 0.0
C238 C 0.05794 0.01587 0.59603 0.0
C239 C 0.09213 0.0284 0.53927 0.0
C240 C 0.11668 0.03404 0.39714 0.0
H241 H 0.17508 0.97685 0.1223 0.0
H242 H 0.14106 0.98789 0.1849 0.0
H243 H 0.14385 0.04646 0.33445 0.0
H244 H 0.03695 0.99574 0.52785 0.0
H245 H 0.06184 0.99678 0.42343 0.0
H246 H 0.09723 0.9811 0.39088 0.0
C247 C 0.15665 0.99491 0.20231 0.0
C248 C 0.13368 0.03211 0.3459 0.0
C249 C 0.17605 0.98885 0.16564 0.0
C250 C 0.05222 1.00506 0.53159 0.0
C251 C 0.06657 1.00555 0.47196 0.0
C252 C 0.10689 0.99567 0.37797 0.0
C253 C 0.15757 0.00878 0.26336 0.0
C254 C 0.13778 0.01182 0.31097 0.0
C255 C 0.08692 0.01692 0.47544 0.0
C256 C 0.10334 0.01571 0.41501 0.0
H257 H 0.21339 0.0175 0.2664 0.0
H258 H 0.17965 0.02832 0.33021 0.0
H259 H 0.12669 0.97776 0.30203 0.0
H260 H 0.08268 0.03641 0.64762 0.0
H261 H 0.10772 0.03711 0.54453 0.0
C262 C 0.54031 0.18062 0.19889 0.0
C263 C 0.52534 0.19784 0.1838 0.0
C264 C 0.53318 0.16097 0.23101 0.0
C265 C 0.48687 0.1399 0.34457 0.0
H266 H 0.52279 0.08672 0.3387 0.0
C267 C 0.48711 0.0784 0.58175 0.0
C268 C 0.49339 0.05622 0.57149 0.0
C269 C 0.48759 0.09347 0.52448 0.0
C270 C 0.51218 0.10116 0.34061 0.0
H271 H 0.49071 0.20709 0.18468 0.0
H272 H 0.47789 0.17219 0.23775 0.0
H273 H 0.52871 0.1155 0.25002 0.0
H274 H 0.50412 0.03215 0.49235 0.0
H275 H 0.50387 0.05812 0.39103 0.0
H276 H 0.46962 0.12511 0.43298 0.0
C277 C 0.49541 0.17423 0.22737 0.0
C278 C 0.51589 0.11802 0.29007 0.0
C279 C 0.50266 0.19414 0.19577 0.0
C280 C 0.49933 0.04921 0.50189 0.0
C281 C 0.49937 0.06422 0.44395 0.0
C282 C 0.4828 0.12281 0.39404 0.0
C283 C 0.5107 0.15766 0.24804 0.0
C284 C 0.50392 0.13807 0.29299 0.0
C285 C 0.49389 0.08675 0.45455 0.0
C286 C 0.49596 0.10349 0.39481 0.0
H287 H 0.55789 0.18286 0.18957 0.0
H288 H 0.54568 0.14902 0.24631 0.0
H289 H 0.47722 0.15494 0.34932 0.0
H290 H 0.48256 0.08438 0.63485 0.0
H291 H 0.48374 0.1106 0.53618 0.0
C292 C 0.31549 0.50713 0.25116 0.0
C293 C 0.31668 0.52218 0.19357 0.0
C294 C 0.33467 0.50087 0.28842 0.0
C295 C 0.38925 0.52421 0.33321 0.0
H296 H 0.39803 0.46786 0.42933 0.0
C297 C 0.43536 0.48869 0.60335 0.0
C298 C 0.45544 0.50037 0.60002 0.0
C299 C 0.42081 0.48862 0.54461 0.0
C300 C 0.39578 0.48375 0.40317 0.0
H301 H 0.33874 0.54186 0.12778 0.0
H302 H 0.37243 0.5305 0.19135 0.0
H303 H 0.36848 0.4718 0.34044 0.0
H304 H 0.47648 0.5204 0.53139 0.0
H305 H 0.4512 0.52012 0.42828 0.0
H306 H 0.41605 0.53638 0.39727 0.0
C307 C 0.35671 0.52362 0.20833 0.0
C308 C 0.37884 0.48599 0.35203 0.0
C309 C 0.3375 0.52986 0.17108 0.0
C310 C 0.46106 0.51133 0.53566 0.0
C311 C 0.44649 0.51128 0.47678 0.0
C312 C 0.40616 0.52197 0.38433 0.0
C313 C 0.35545 0.50972 0.26928 0.0
C314 C 0.37508 0.50637 0.31723 0.0
C315 C 0.42597 0.50023 0.48087 0.0
C316 C 0.40942 0.50184 0.42106 0.0
H317 H 0.29954 0.50147 0.27062 0.0
H318 H 0.33295 0.49034 0.33541 0.0
H319 H 0.38668 0.54028 0.30864 0.0
H320 H 0.43057 0.48007 0.65221 0.0
H321 H 0.40511 0.48015 0.55035 0.0
C322 C 0.02414 0.31912 0.23865 0.0
C323 C 0.00819 0.31809 0.18378 0.0
C324 C 0.02968 0.33945 0.27022 0.0
C325 C 1.00294 0.39288 0.30789 0.0
H326 H 0.05966 0.40759 0.39277 0.0
C327 C 0.03782 0.44461 0.56659 0.0
C328 C 0.02423 0.46349 0.56382 0.0
C329 C 0.03855 0.42972 0.50884 0.0
C330 C 0.04367 0.4037 0.36966 0.0
H331 H 0.98622 0.33738 0.11652 0.0
H332 H 0.99625 0.37304 0.17013 0.0
H333 H 0.05692 0.37638 0.30945 0.0
H334 H 1.00152 0.48216 0.49693 0.0
H335 H 1.00294 0.45626 0.39529 0.0
H336 H 0.98948 0.41959 0.36988 0.0
C337 C 1.00441 0.35819 0.18932 0.0
C338 C 0.04212 0.38581 0.32172 0.0
C339 C 0.99892 0.33785 0.15776 0.0
C340 C 0.01208 0.46769 0.5007 0.0
C341 C 0.01279 0.45275 0.44272 0.0
C342 C 1.00447 0.41071 0.35589 0.0
C343 C 0.01918 0.35915 0.248 0.0
C344 C 0.02164 0.37988 0.29129 0.0
C345 C 0.02573 0.43333 0.44658 0.0
C346 C 0.02476 0.41609 0.38871 0.0
H347 H 0.03106 0.30402 0.26084 0.0
H348 H 0.04093 0.33944 0.31566 0.0
H349 H 0.9868 0.38863 0.28661 0.0
H350 H 0.04741 0.44094 0.61449 0.0
H351 H 0.04849 0.41488 0.51444 0.0
C352 C 0.83362 0.02823 0.23082 0.0
C353 C 0.81986 0.01058 0.25131 0.0
C354 C 0.85482 0.02429 0.2033 0.0
C355 C 0.88426 0.97948 0.10558 0.0
H356 H 0.92948 0.02473 0.09048 0.0
C357 C 0.94117 0.98489 0.85754 0.0
C358 C 0.96232 0.99437 0.86282 0.0
C359 C 0.92699 0.98428 0.91722 0.0
C360 C 0.91732 0.01164 0.09468 0.0
H361 H 0.81818 0.97509 0.26529 0.0
H362 H 0.85577 0.96809 0.22098 0.0
H363 H 0.9007 0.02812 0.18147 0.0
H364 H 0.98561 0.00983 0.93575 0.0
H365 H 0.96114 1.00815 0.04112 0.0
H366 H 0.90115 0.96271 0.02012 0.0
C367 C 0.84996 0.98504 0.22379 0.0
C368 C 0.9005 0.01376 0.14652 0.0
C369 C 0.82856 0.98902 0.25074 0.0
C370 C 0.96933 1.00252 0.93 0.0
C371 C 0.95519 1.0017 0.99024 0.0
C372 C 0.90126 0.97717 0.05462 0.0
C373 C 0.86294 1.00252 0.19594 0.0
C374 C 0.88322 0.99815 0.15102 0.0
C375 C 0.93364 0.99286 0.98449 0.0
C376 C 0.91759 0.99363 0.0464 0.0
H377 H 0.82716 0.04499 0.22965 0.0
H378 H 0.86396 0.03828 0.1822 0.0
H379 H 0.87134 0.96708 0.10642 0.0
H380 H 0.93523 0.97851 0.80648 0.0
H381 H 0.91048 0.97776 0.90954 0.0
C382 C 0.50972 0.81545 0.17282 0.0
C383 C 0.49489 0.81643 0.23115 0.0
C384 C 0.51562 0.83474 0.13538 0.0
C385 C 0.49157 0.88926 0.09216 0.0
H386 H 0.54755 0.89883 0.99444 0.0
C387 C 0.52626 0.93713 0.82319 0.0
C388 C 0.51434 0.95708 0.82767 0.0
C389 C 0.52649 0.92221 0.88106 0.0
C390 C 0.53175 0.89636 0.02099 0.0
H391 H 0.47523 0.83826 0.29791 0.0
H392 H 0.48596 0.87212 0.23404 0.0
H393 H 0.54414 0.86891 0.08245 0.0
H394 H 0.49401 0.97747 0.89751 0.0
H395 H 0.49458 0.95156 0.99914 0.0
H396 H 0.47895 0.9162 0.02938 0.0
C397 C 0.49295 0.85648 0.21665 0.0
C398 C 0.52982 0.8792 0.07166 0.0
C399 C 0.48708 0.83717 0.25408 0.0
C400 C 0.50327 0.96217 0.89233 0.0
C401 C 0.50349 0.94723 0.95037 0.0
C402 C 0.49349 0.90637 0.04147 0.0
C403 C 0.50662 0.85542 0.15503 0.0
C404 C 0.5096 0.87518 0.10715 0.0
C405 C 0.51481 0.92686 0.94513 0.0
C406 C 0.51349 0.90995 1.00419 0.0
H407 H 0.51546 0.79957 0.15294 0.0
H408 H 0.52598 0.83317 0.0879 0.0
H409 H 0.47561 0.88649 0.11725 0.0
H410 H 0.53497 0.93273 0.77407 0.0
H411 H 0.53517 0.90665 0.87438 0.0
C412 C 0.6824 0.48648 0.22552 0.0
C413 C 0.69611 0.50414 0.24617 0.0
C414 C 0.66125 0.49042 0.19768 0.0
C415 C 0.63179 0.53522 0.09991 0.0
H416 H 0.58647 0.49006 0.08594 0.0
C417 C 0.57388 0.53054 0.8544 0.0
C418 C 0.55271 0.52114 0.86071 0.0
C419 C 0.58836 0.53089 0.91322 0.0
C420 C 0.59867 0.50312 0.08981 0.0
H421 H 0.69777 0.53964 0.25986 0.0
H422 H 0.66028 0.54662 0.21498 0.0
H423 H 0.6154 0.48655 0.17604 0.0
H424 H 0.52974 0.50551 0.93458 0.0
H425 H 0.55472 0.50675 0.03844 0.0
H426 H 0.61477 0.55209 0.01506 0.0
C427 C 0.66608 0.52968 0.21795 0.0
C428 C 0.61557 0.50093 0.14114 0.0
C429 C 0.68742 0.5257 0.24524 0.0
C430 C 0.54602 0.51276 0.92803 0.0
C431 C 0.56045 0.51334 0.98741 0.0
C432 C 0.61471 0.53759 0.04945 0.0
C433 C 0.65314 0.51218 0.19012 0.0
C434 C 0.63287 0.51654 0.14533 0.0
C435 C 0.58201 0.52213 0.98064 0.0
C436 C 0.59831 0.52119 0.0417 0.0
H437 H 0.68886 0.46973 0.22458 0.0
H438 H 0.65216 0.47642 0.1766 0.0
H439 H 0.64473 0.54761 0.1005 0.0
H440 H 0.57959 0.53707 0.80319 0.0
H441 H 0.60486 0.53738 0.90473 0.0
C442 C 1.00264 0.69705 0.18999 0.0
C443 C 0.01981 0.69687 0.2409 0.0
C444 C 0.99692 0.67765 0.15289 0.0
C445 C 0.02373 0.62547 0.09516 0.0
H446 H 0.96608 0.61277 0.01349 0.0
C447 C 0.98625 0.57738 0.83246 0.0
C448 C 0.99926 0.55807 0.83312 0.0
C449 C 0.98616 0.59181 0.89163 0.0
C450 C 0.98231 0.61612 0.0357 0.0
H451 H 0.04368 0.67624 0.29596 0.0
H452 H 0.03312 0.64212 0.2339 0.0
H453 H 0.96985 0.64215 0.10329 0.0
H454 H 0.02162 0.53821 0.89765 0.0
H455 H 0.02143 0.56332 1.00124 0.0
H456 H 0.0363 0.59984 0.02668 0.0
C457 C 0.0243 0.65725 0.22121 0.0
C458 C 0.98448 0.63299 0.08726 0.0
C459 C 0.03011 0.67668 0.2578 0.0
C460 C 0.01151 0.55303 0.8954 0.0
C461 C 0.01149 0.5675 0.95457 0.0
C462 C 0.02155 0.60859 0.04392 0.0
C463 C 0.00831 0.65765 0.16589 0.0
C464 C 1.0053 0.63815 0.11695 0.0
C465 C 0.99914 0.58731 0.95295 0.0
C466 C 1.00089 0.60391 0.01255 0.0
H467 H 0.99487 0.71254 0.17474 0.0
H468 H 0.98469 0.67877 0.11038 0.0
H469 H 0.04013 0.62916 0.11534 0.0
H470 H 0.9766 0.5817 0.78525 0.0
H471 H 0.97662 0.60696 0.88801 0.0
C472 C 0.95834 0.261 0.33203 0.0
C473 C 0.95202 0.263 0.25951 0.0
C474 C 0.94565 0.24835 0.37968 0.0
C475 C 0.91707 0.21925 0.47415 0.0
H476 H 0.90697 0.16427 0.37166 0.0
C477 C 0.93921 0.13454 0.58578 0.0
C478 C 0.92953 0.11541 0.55638 0.0
C479 C 0.93192 0.15553 0.56493 0.0
C480 C 0.90896 0.17952 0.40169 0.0
H481 H 0.9263 0.25589 0.18175 0.0
H482 H 0.90366 0.23433 0.26552 0.0
H483 H 0.91187 0.19797 0.30446 0.0
H484 H 0.90288 0.10339 0.48838 0.0
H485 H 0.88965 0.13995 0.45431 0.0
H486 H 0.91565 0.20012 0.5715 0.0
C487 C 0.91875 0.24189 0.28522 0.0
C488 C 0.91178 0.19904 0.36278 0.0
C489 C 0.93162 0.25426 0.23731 0.0
C490 C 0.91084 0.11773 0.51185 0.0
C491 C 0.90336 0.13874 0.49173 0.0
C492 C 0.91424 0.19961 0.51327 0.0
C493 C 0.92632 0.23764 0.35567 0.0
C494 C 0.91703 0.21893 0.39822 0.0
C495 C 0.9146 0.15785 0.51481 0.0
C496 C 0.9113 0.17934 0.47713 0.0
H497 H 0.97406 0.26755 0.35033 0.0
H498 H 0.95214 0.24537 0.43325 0.0
H499 H 0.92062 0.23439 0.50318 0.0
H500 H 0.95323 0.13334 0.62197 0.0
H501 H 0.94103 0.16982 0.58392 0.0
C502 C 0.25735 0.91698 0.22092 0.0
C503 C 0.25157 0.93826 0.24469 0.0
C504 C 0.27059 0.90331 0.26389 0.0
C505 C 0.30324 0.90359 0.43831 0.0
H506 H 0.34895 0.8808 0.31161 0.0
C507 C 0.39374 0.90441 0.52864 0.0
C508 C 0.40749 0.91449 0.47683 0.0
C509 C 0.37292 0.8962 0.50913 0.0
C510 C 0.33634 0.88701 0.34803 0.0
H511 H 0.25343 0.96143 0.33336 0.0
H512 H 0.2774 0.93853 0.40638 0.0
H513 H 0.31237 0.88736 0.2644 0.0
H514 H 0.41049 0.92305 0.36357 0.0
H515 H 0.37453 0.90928 0.32996 0.0
H516 H 0.3282 0.90585 0.51939 0.0
C517 C 0.27133 0.93164 0.35631 0.0
C518 C 0.31506 0.89047 0.32119 0.0
C519 C 0.25763 0.945 0.31419 0.0
C520 C 0.40052 0.91507 0.40467 0.0
C521 C 0.37978 0.90701 0.38531 0.0
C522 C 0.32474 0.90072 0.46459 0.0
C523 C 0.27898 0.91106 0.33019 0.0
C524 C 0.2986 0.90031 0.36462 0.0
C525 C 0.36541 0.89803 0.43752 0.0
C526 C 0.34187 0.89387 0.41815 0.0
H527 H 0.25261 0.91143 0.16754 0.0
H528 H 0.27541 0.8873 0.24284 0.0
H529 H 0.29077 0.91017 0.47449 0.0
H530 H 0.39882 0.90345 0.58458 0.0
H531 H 0.36241 0.88913 0.55056 0.0
C532 C 0.57248 0.2604 0.32053 0.0
C533 C 0.57738 0.25875 0.24671 0.0
C534 C 0.58503 0.27422 0.36489 0.0
C535 C 0.61322 0.30573 0.45191 0.0
H536 H 0.61532 0.36135 0.34786 0.0
C537 C 0.58562 0.38771 0.57111 0.0
C538 C 0.59235 0.40774 0.53925 0.0
C539 C 0.59453 0.3676 0.54786 0.0
C540 C 0.6156 0.34601 0.37811 0.0
H541 H 0.60069 0.26783 0.16294 0.0
H542 H 0.62303 0.29158 0.24077 0.0
H543 H 0.61211 0.32727 0.2817 0.0
H544 H 0.61563 0.42246 0.46381 0.0
H545 H 0.63176 0.3875 0.42551 0.0
H546 H 0.61525 0.32496 0.54883 0.0
C547 C 0.60914 0.28277 0.26411 0.0
C548 C 0.61374 0.32627 0.3398 0.0
C549 C 0.59642 0.26917 0.21958 0.0
C550 C 0.60991 0.40738 0.48934 0.0
C551 C 0.61904 0.38727 0.4668 0.0
C552 C 0.61513 0.32557 0.49042 0.0
C553 C 0.60279 0.28649 0.33618 0.0
C554 C 0.61133 0.306 0.37626 0.0
C555 C 0.61058 0.36709 0.49279 0.0
C556 C 0.61513 0.34601 0.45395 0.0
H557 H 0.55783 0.25256 0.34266 0.0
H558 H 0.5795 0.27675 0.41989 0.0
H559 H 0.61186 0.29032 0.48154 0.0
H560 H 0.57259 0.38744 0.61134 0.0
H561 H 0.58753 0.35245 0.56925 0.0
C562 C 0.25561 0.57421 0.31673 0.0
C563 C 0.26182 0.58086 0.24722 0.0
C564 C 0.24184 0.58762 0.35853 0.0
C565 C 0.19827 0.62892 0.32288 0.0
H566 H 0.18501 0.61398 0.52153 0.0
C567 C 0.11255 0.60528 0.40796 0.0
C568 C 0.10569 0.60586 0.4803 0.0
C569 C 0.13333 0.61318 0.38812 0.0
C570 C 0.18851 0.61899 0.46659 0.0
H571 H 0.26095 0.60761 0.16966 0.0
H572 H 0.238 0.63183 0.24436 0.0
H573 H 0.2224 0.60932 0.47637 0.0
H574 H 0.11456 0.61678 0.58786 0.0
H575 H 0.15101 0.63088 0.553 0.0
H576 H 0.16446 0.63884 0.31345 0.0
C577 C 0.24277 0.61583 0.26569 0.0
C578 C 0.20998 0.61592 0.44016 0.0
C579 C 0.2561 0.60211 0.22306 0.0
C580 C 0.11956 0.61583 0.53179 0.0
C581 C 0.14042 0.6239 0.51179 0.0
C582 C 0.17701 0.63258 0.34986 0.0
C583 C 0.23426 0.60818 0.33206 0.0
C584 C 0.21466 0.61905 0.36638 0.0
C585 C 0.14784 0.62201 0.44002 0.0
C586 C 0.17143 0.6259 0.4202 0.0
H587 H 0.25976 0.55779 0.33621 0.0
H588 H 0.23566 0.5808 0.40865 0.0
H589 H 0.201 0.63191 0.26601 0.0
H590 H 0.10247 0.59739 0.36709 0.0
H591 H 0.13849 0.61088 0.33266 0.0
C592 C 0.09344 0.76748 0.2015 0.0
C593 C 0.07699 0.75267 0.17815 0.0
C594 C 0.10579 0.77963 0.15161 0.0
C595 C 0.09581 0.801 0.96922 0.0
H596 H 0.14608 0.83761 0.02026 0.0
C597 C 0.10199 0.88647 0.84964 0.0
C598 C 0.10089 0.90214 0.90569 0.0
C599 C 0.10931 0.86492 0.86336 0.0
C600 C 0.13224 0.8273 1.00448 0.0
H601 H 0.06314 0.73662 0.08344 0.0
H602 H 0.08577 0.75649 0.99718 0.0
H603 H 0.1407 0.80204 0.08063 0.0
H604 H 0.10878 0.90811 0.01818 0.0
H605 H 0.12152 0.87067 0.04199 0.0
H606 H 0.08683 0.82653 0.89546 0.0
C607 C 0.08823 0.75975 0.05405 0.0
C608 C 0.12903 0.80699 0.03938 0.0
C609 C 0.07542 0.74803 0.10392 0.0
C610 C 0.10945 0.89649 0.97372 0.0
C611 C 0.11686 0.87498 0.98734 0.0
C612 C 0.09922 0.82104 0.93372 0.0
C613 C 0.10239 0.77684 0.07701 0.0
C614 C 0.10996 0.79427 0.02548 0.0
C615 C 0.11576 0.8587 0.93329 0.0
C616 C 0.1167 0.835 0.954 0.0
H617 H 0.09577 0.77084 0.25838 0.0
H618 H 0.11657 0.79247 0.17209 0.0
H619 H 0.08082 0.79197 0.95683 0.0
H620 H 0.09604 0.8905 0.79611 0.0
H621 H 0.10858 0.85276 0.82045 0.0
C622 C 0.73447 0.0206 0.08406 0.0
C623 C 0.75379 0.03095 0.10873 0.0
C624 C 0.72421 0.02787 0.02114 0.0
C625 C 0.71539 0.07847 0.9222 0.0
H626 H 0.67956 0.03853 0.80797 0.0
C627 C 0.62595 0.0694 0.76765 0.0
C628 C 0.61375 0.07941 0.82362 0.0
C629 C 0.64907 0.06937 0.76939 0.0
C630 C 0.6898 0.05018 0.8372 0.0
H631 H 0.77812 0.05638 0.0858 0.0
H632 H 0.75991 0.06935 0.97544 0.0
H633 H 0.71107 0.02419 0.87378 0.0
H634 H 0.61611 0.09987 0.91927 0.0
H635 H 0.65617 0.09907 0.92432 0.0
H636 H 0.69347 0.10431 0.88829 0.0
C637 C 0.75281 0.05556 1.00481 0.0
C638 C 0.70776 0.04182 0.87573 0.0
C639 C 0.76322 0.04812 0.0677 0.0
C640 C 0.62508 0.09154 0.87647 0.0
C641 C 0.64816 0.09135 0.87857 0.0
C642 C 0.6975 0.0869 0.88309 0.0
C643 C 0.73298 0.04573 0.98162 0.0
C644 C 0.71966 0.05559 0.92272 0.0
C645 C 0.66038 0.0791 0.82755 0.0
C646 C 0.68351 0.07252 0.84465 0.0
H647 H 0.72703 1.00717 0.11435 0.0
H648 H 0.70873 0.02019 1.00555 0.0
H649 H 0.72442 0.08956 0.95741 0.0
H650 H 0.61774 0.05998 0.72581 0.0
H651 H 0.65799 0.0602 0.72834 0.0
C652 C 0.44236 0.75559 0.10946 0.0
C653 C 0.43601 0.76186 0.1792 0.0
C654 C 0.42868 0.74199 0.06828 0.0
C655 C 0.38722 0.69885 0.10633 0.0
H656 H 0.40188 0.68504 0.90787 0.0
C657 C 0.41163 0.61316 0.02456 0.0
C658 C 0.41108 0.60603 0.95254 0.0
C659 C 0.40342 0.6339 0.04359 0.0
C660 C 0.39694 0.68869 0.96277 0.0
H661 H 0.40951 0.76132 0.2578 0.0
H662 H 0.38481 0.7387 0.18418 0.0
H663 H 0.40653 0.72255 0.9516 0.0
H664 H 0.39985 0.61435 0.8448 0.0
H665 H 0.38526 0.65076 0.87825 0.0
H666 H 0.37739 0.66506 0.11716 0.0
C667 C 0.40078 0.74327 0.16219 0.0
C668 C 0.40001 0.71024 0.98838 0.0
C669 C 0.41478 0.75641 0.20422 0.0
C670 C 0.40081 0.61957 0.90062 0.0
C671 C 0.39244 0.6404 0.91981 0.0
C672 C 0.38354 0.67752 0.08017 0.0
C673 C 0.40814 0.73465 0.09562 0.0
C674 C 0.39704 0.7151 0.0621 0.0
C675 C 0.39431 0.64811 0.99119 0.0
C676 C 0.39018 0.67173 0.00995 0.0
H677 H 0.45875 0.75954 0.08933 0.0
H678 H 0.43528 0.73573 0.01794 0.0
H679 H 0.38432 0.70172 0.16317 0.0
H680 H 0.41973 0.60334 0.06574 0.0
H681 H 0.40571 0.6393 0.09877 0.0
C682 C 0.75325 0.46654 0.06393 0.0
C683 C 0.76263 0.48364 0.10529 0.0
C684 C 0.76379 0.45914 1.00115 0.0
C685 C 0.80908 0.473 0.87264 0.0
H686 H 0.82288 0.41036 0.88273 0.0
C687 C 0.89136 0.42244 0.86894 0.0
C688 C 0.90271 0.43479 0.8165 0.0
C689 C 0.86829 0.42284 0.87177 0.0
C690 C 0.81899 0.42783 0.87826 0.0
H691 H 0.78948 0.50729 0.11165 0.0
H692 H 0.80802 0.49431 1.00306 0.0
H693 H 0.79209 0.42511 0.95291 0.0
H694 H 0.89871 0.45475 0.71984 0.0
H695 H 0.85848 0.45485 0.72349 0.0
H696 H 0.83725 0.47631 0.80449 0.0
C697 C 0.79248 0.48667 0.01831 0.0
C698 C 0.80119 0.43625 0.91797 0.0
C699 C 0.78207 0.49391 0.08112 0.0
C700 C 0.8905 0.44518 0.7614 0.0
C701 C 0.86739 0.4454 0.76381 0.0
C702 C 0.82695 0.46464 0.83352 0.0
C703 C 0.78372 0.46891 0.97839 0.0
C704 C 0.79708 0.45916 0.91929 0.0
C705 C 0.85609 0.43549 0.82181 0.0
C706 C 0.83306 0.44222 0.84 0.0
H707 H 0.73825 0.45834 0.08165 0.0
H708 H 0.7567 0.44543 0.97146 0.0
H709 H 0.80589 0.49066 0.87129 0.0
H710 H 0.90032 0.4138 0.91102 0.0
H711 H 0.86029 0.41495 0.91733 0.0
C712 C 0.01935 0.23772 0.03967 0.0
C713 C 0.99768 0.2461 0.04438 0.0
C714 C 0.0238 0.21849 0.99939 0.0
C715 C 0.99807 0.17818 0.86846 0.0
H716 H 0.03754 0.13631 0.96093 0.0
C717 C 0.00999 0.08948 0.75469 0.0
C718 C 0.01291 0.0721 0.80434 0.0
C719 C 0.0105 0.11162 0.77741 0.0
C720 C 0.02627 0.14767 0.93458 0.0
H721 H 0.96409 0.24193 1.00604 0.0
H722 H 0.97155 0.20854 0.93767 0.0
H723 H 0.03428 0.17364 0.00851 0.0
H724 H 0.01849 0.06446 0.91713 0.0
H725 H 0.01855 0.10283 0.95723 0.0
H726 H 0.98897 0.15186 0.79741 0.0
C727 C 0.98532 0.21664 0.96401 0.0
C728 C 0.02471 0.16936 0.96121 0.0
C729 C 0.98095 0.23582 1.00372 0.0
C730 C 0.01634 0.07742 0.87729 0.0
C731 C 0.01655 0.09954 0.90021 0.0
C732 C 0.99941 0.15644 0.84242 0.0
C733 C 1.00665 0.2072 0.96303 0.0
C734 C 0.0103 0.18488 0.92934 0.0
C735 C 0.01364 0.11704 0.85068 0.0
C736 C 0.01328 0.1407 0.87571 0.0
H737 H 0.03257 0.2452 0.07068 0.0
H738 H 0.04054 0.21207 0.99878 0.0
H739 H 0.98708 0.18965 0.84134 0.0
H740 H 1.00747 0.08601 0.69794 0.0
H741 H 0.00858 0.12447 0.73715 0.0
C742 C 0.27545 0.96976 0.98893 0.0
C743 C 0.2655 0.98599 0.03278 0.0
C744 C 0.29405 0.9747 0.94694 0.0
C745 C 0.34063 0.01486 0.94146 0.0
H746 H 0.35711 0.98045 0.77322 0.0
C747 C 0.43173 0.00852 0.84881 0.0
C748 C 0.43669 1.00585 0.77517 0.0
C749 C 0.4098 1.00805 0.87336 0.0
C750 C 0.35279 0.99051 0.81948 0.0
H751 H 0.26631 0.02068 0.06214 0.0
H752 H 0.29828 0.02966 0.98626 0.0
H753 H 0.31981 0.97763 0.82139 0.0
H754 H 0.42229 1.00087 0.66939 0.0
H755 H 0.38399 1.00074 0.71166 0.0
H756 H 0.37337 0.02827 0.93827 0.0
C757 C 0.29214 0.01283 0.98622 0.0
C758 C 0.33134 0.98864 0.84794 0.0
C759 C 0.27353 1.0078 0.02887 0.0
C760 C 0.41909 1.00284 0.72656 0.0
C761 C 0.39707 1.00266 0.75102 0.0
C762 C 0.36197 0.01695 0.91244 0.0
C763 C 0.30319 0.99614 0.94669 0.0
C764 C 0.32506 1.00037 0.91048 0.0
C765 C 0.39206 1.00521 0.82494 0.0
C766 C 0.3686 1.00441 0.85201 0.0
H767 H 0.26957 0.95282 0.99026 0.0
H768 H 0.30197 0.96126 0.91812 0.0
H769 H 0.33668 0.02407 0.98992 0.0
H770 H 0.44485 0.01067 0.88797 0.0
H771 H 0.40686 0.00953 0.93079 0.0
C772 C 0.5434 0.27951 0.9917 0.0
C773 C 0.52768 0.26999 0.03848 0.0
C774 C 0.53855 0.29889 0.95362 0.0
C775 C 0.49726 0.33717 0.88413 0.0
H776 H 0.5379 0.38313 0.94624 0.0
C777 C 0.50573 0.42578 0.75479 0.0
C778 C 0.50463 0.44342 0.80434 0.0
C779 C 0.50662 0.40374 0.77903 0.0
C780 C 0.52644 0.37049 0.92834 0.0
H781 H 0.4939 0.27229 0.07696 0.0
H782 H 0.48511 0.30602 0.00781 0.0
H783 H 0.54243 0.34529 0.99093 0.0
H784 H 0.5037 0.45166 0.91822 0.0
H785 H 0.506 0.41335 0.96019 0.0
H786 H 0.4816 0.36249 0.82011 0.0
C787 C 0.50127 0.29846 1.00159 0.0
C788 C 0.52908 0.34883 0.95365 0.0
C789 C 0.50623 0.27908 0.04068 0.0
C790 C 0.50446 0.4385 0.87854 0.0
C791 C 0.50583 0.41656 0.90267 0.0
C792 C 0.49492 0.35885 0.85736 0.0
C793 C 0.51776 0.30908 0.9604 0.0
C794 C 0.51451 0.33193 0.93208 0.0
C795 C 0.50693 0.39894 0.85327 0.0
C796 C 0.50942 0.37576 0.87967 0.0
H797 H 0.56006 0.27288 0.98894 0.0
H798 H 0.55149 0.30658 0.92173 0.0
H799 H 0.48583 0.32445 0.86669 0.0
H800 H 0.50585 0.42898 0.69727 0.0
H801 H 0.50762 0.39049 0.73978 0.0
C802 C 0.23874 0.54945 0.99117 0.0
C803 C 0.24861 0.53316 0.03493 0.0
C804 C 0.22028 0.54454 0.94866 0.0
C805 C 0.17398 0.50401 0.94083 0.0
H806 H 0.15751 0.5392 0.77439 0.0
C807 C 0.08303 0.50964 0.84769 0.0
C808 C 0.07813 0.51273 0.77424 0.0
C809 C 0.10491 0.51033 0.87242 0.0
C810 C 0.16182 0.52891 0.82011 0.0
H811 H 0.24786 0.4984 0.06336 0.0
H812 H 0.21622 0.48945 0.98644 0.0
H813 H 0.19468 0.54209 0.82307 0.0
H814 H 0.09256 0.51879 0.66897 0.0
H815 H 0.13081 0.51927 0.71147 0.0
H816 H 0.1414 0.49027 0.93643 0.0
C817 C 0.22226 0.50632 0.987 0.0
C818 C 0.1832 0.53083 0.84892 0.0
C819 C 0.2407 0.51133 0.03025 0.0
C820 C 0.09573 0.51646 0.72599 0.0
C821 C 0.11771 0.51685 0.7506 0.0
C822 C 0.15272 0.50186 0.91141 0.0
C823 C 0.21123 0.52306 0.94766 0.0
C824 C 0.18948 0.51882 0.9109 0.0
C825 C 0.12267 0.5138 0.82434 0.0
C826 C 0.14608 0.51468 0.85165 0.0
H827 H 0.24455 0.56642 0.99296 0.0
H828 H 0.21239 0.55803 0.92002 0.0
H829 H 0.1779 0.49457 0.98882 0.0
H830 H 0.06989 0.50694 0.88659 0.0
H831 H 0.10777 0.50849 0.92975 0.0
C832 C 1.00471 0.77696 0.38616 0.0
C833 C 0.02643 0.76863 0.38415 0.0
C834 C 0.99955 0.79558 0.42865 0.0
C835 C 0.02285 0.83352 0.57148 0.0
H836 H 0.98526 0.87714 0.47937 0.0
C837 C 0.00948 0.92074 0.69704 0.0
C838 C 1.00777 0.93876 0.64932 0.0
C839 C 0.00921 0.89889 0.67112 0.0
C840 C 0.99598 0.86527 0.50575 0.0
H841 H 0.05933 0.77226 0.42888 0.0
H842 H 0.05064 0.80456 0.5012 0.0
H843 H 0.9892 0.84062 0.42587 0.0
H844 H 1.00455 0.94786 0.53666 0.0
H845 H 1.00482 0.91011 0.49136 0.0
H846 H 0.03072 0.85856 0.64884 0.0
C847 C 0.03736 0.79688 0.47112 0.0
C848 C 0.99793 0.84405 0.4756 0.0
C849 C 0.04244 0.77834 0.42914 0.0
C850 C 1.00574 0.9344 0.57511 0.0
C851 C 1.00572 0.91262 0.54911 0.0
C852 C 0.02111 0.8548 0.60116 0.0
C853 C 0.01601 0.80625 0.47002 0.0
C854 C 0.01173 0.82794 0.50718 0.0
C855 C 1.00743 0.89446 0.59661 0.0
C856 C 1.00795 0.87118 0.56807 0.0
H857 H 0.99205 0.76991 0.35182 0.0
H858 H 0.9828 0.80199 0.42733 0.0
H859 H 0.03331 0.82154 0.59846 0.0
H860 H 0.01072 0.92347 0.75461 0.0
H861 H 0.01018 0.88548 0.70978 0.0
C862 C 0.7362 0.99609 0.39971 0.0
C863 C 0.7435 0.01618 0.3697 0.0
C864 C 0.71694 0.99546 0.4426 0.0
C865 C 0.66429 0.02518 0.45478 0.0
H866 H 0.65306 0.99095 0.62804 0.0
C867 C 0.57576 1.00392 0.54966 0.0
C868 C 0.57062 1.00755 0.62276 0.0
C869 C 0.59766 1.00516 0.52503 0.0
C870 C 0.656 1.00067 0.57983 0.0
H871 H 0.7373 0.05144 0.36455 0.0
H872 H 0.70404 0.05043 0.43957 0.0
H873 H 0.6908 0.99285 0.5782 0.0
H874 H 0.58473 0.0152 0.72745 0.0
H875 H 0.62312 0.01696 0.68435 0.0
H876 H 0.62961 0.03265 0.45507 0.0
C877 C 0.71295 0.03514 0.4298 0.0
C878 C 0.67756 1.00164 0.55111 0.0
C879 C 0.73214 0.03576 0.38754 0.0
C880 C 0.58806 0.01224 0.67081 0.0
C881 C 0.61008 0.01317 0.64624 0.0
C882 C 0.64279 0.02391 0.48266 0.0
C883 C 0.70458 0.01489 0.45545 0.0
C884 C 0.68196 0.01397 0.48824 0.0
C885 C 0.61511 0.00982 0.57288 0.0
C886 C 0.63831 0.01159 0.54535 0.0
H887 H 0.7444 0.98071 0.38567 0.0
H888 H 0.7109 0.97959 0.46138 0.0
H889 H 0.66701 0.03461 0.40582 0.0
H890 H 0.56283 1.00029 0.51102 0.0
H891 H 0.60098 1.00232 0.46832 0.0
C892 C 0.46806 0.73834 0.43407 0.0
C893 C 0.48432 0.748 0.3896 0.0
C894 C 0.4729 0.71984 0.47663 0.0
C895 C 0.51302 0.67301 0.48435 0.0
H896 H 0.47818 0.65729 0.65252 0.0
C897 C 0.50689 0.58228 0.58068 0.0
C898 C 0.50387 0.57754 0.65434 0.0
C899 C 0.50639 0.60412 0.55533 0.0
C900 C 0.48837 0.66139 0.6063 0.0
H901 H 0.51896 0.74675 0.35981 0.0
H902 H 0.5278 0.715 0.43675 0.0
H903 H 0.47544 0.69437 0.60267 0.0
H904 H 0.49815 0.59228 0.75931 0.0
H905 H 0.49798 0.63047 0.71571 0.0
H906 H 0.52651 0.64029 0.48938 0.0
C907 C 0.511 0.72127 0.43677 0.0
C908 C 0.48653 0.68272 0.57681 0.0
C909 C 0.50606 0.73977 0.39349 0.0
C910 C 0.50043 0.5953 0.70216 0.0
C911 C 0.50022 0.61726 0.6769 0.0
C912 C 0.51508 0.65179 0.51442 0.0
C913 C 0.49428 0.7105 0.477 0.0
C914 C 0.49841 0.68874 0.51424 0.0
C915 C 0.50316 0.62204 0.60294 0.0
C916 C 0.50239 0.64541 0.57485 0.0
H917 H 0.45116 0.74438 0.43285 0.0
H918 H 0.45942 0.71216 0.50591 0.0
H919 H 0.52236 0.67671 0.43594 0.0
H920 H 0.50936 0.56905 0.54203 0.0
H921 H 0.50814 0.60684 0.49788 0.0
C922 C 0.78362 0.47899 0.38415 0.0
C923 C 0.77214 0.49851 0.36643 0.0
C924 C 0.80269 0.4797 0.42679 0.0
C925 C 0.83744 0.51312 0.54971 0.0
H926 H 0.88598 0.48307 0.45311 0.0
C927 C 0.92696 0.50303 0.66968 0.0
C928 C 0.94435 0.50841 0.622 0.0
C929 C 0.90498 0.50186 0.64502 0.0
C930 C 0.87263 0.49153 0.48089 0.0
H931 H 0.77088 0.53393 0.38312 0.0
H932 H 0.80415 0.53519 0.45957 0.0
H933 H 0.84871 0.48087 0.40324 0.0
H934 H 0.95209 0.51659 0.5108 0.0
H935 H 0.91403 0.5141 0.46792 0.0
H936 H 0.86164 0.52375 0.62749 0.0
C937 C 0.7983 0.51931 0.44032 0.0
C938 C 0.8512 0.49013 0.45262 0.0
C939 C 0.77917 0.5186 0.39702 0.0
C940 C 0.93919 0.51245 0.54917 0.0
C941 C 0.91735 0.51093 0.52442 0.0
C942 C 0.85892 0.5142 0.57883 0.0
C943 C 0.8108 0.49996 0.45303 0.0
C944 C 0.83333 0.50101 0.48625 0.0
C945 C 0.89995 0.50563 0.5719 0.0
C946 C 0.87682 0.50363 0.54415 0.0
H947 H 0.77868 0.46331 0.36077 0.0
H948 H 0.81171 0.46446 0.43641 0.0
H949 H 0.82404 0.52165 0.57694 0.0
H950 H 0.9303 0.49976 0.7261 0.0
H951 H 0.89197 0.49758 0.68283 0.0
loop_
_geom_bond_atom_site_label_1
_geom_bond_atom_site_label_2
_geom_bond_distance
_geom_bond_site_symmetry_2
_ccdc_geom_bond_type
H0 C3 0.931 . S
H1 C6 0.928 . S
H2 C8 0.930 . S
C3 H0 0.931 . S
C3 C4 1.413 . S
C3 C5 1.360 . S
C4 C3 1.413 . S
C4 C8 1.429 . S
C5 C3 1.360 . S
C5 C6 1.372 . S
C6 H1 0.928 . S
C6 C5 1.372 . S
C6 C7 1.404 . S
C7 C6 1.404 . S
C7 C8 1.391 . S
C8 H2 0.930 . S
C8 C4 1.429 . S
C8 C7 1.391 . S
H9 C12 0.931 . S
H10 C15 0.928 . S
H11 C17 0.930 . S
C12 H9 0.931 . S
C12 C13 1.413 . S
C12 C14 1.360 . S
C13 C12 1.413 . S
C13 C17 1.429 1_655 S
C14 C12 1.360 . S
C14 C15 1.372 . S
C15 H10 0.928 . S
C15 C14 1.372 . S
C15 C16 1.404 . S
C16 C15 1.404 . S
C16 C17 1.390 1_655 S
C17 H11 0.930 . S
C17 C13 1.429 1_455 S
C17 C16 1.390 1_455 S
H18 C21 0.931 . S
H19 C24 0.928 . S
H20 C26 0.930 . S
C21 H18 0.931 . S
C21 C22 1.413 . S
C21 C23 1.360 . S
C22 C21 1.413 . S
C22 C26 1.429 1_565 S
C23 C21 1.360 . S
C23 C24 1.372 . S
C24 H19 0.928 . S
C24 C23 1.372 . S
C24 C25 1.404 . S
C25 C24 1.404 . S
C25 C26 1.390 1_565 S
C26 H20 0.930 . S
C26 C22 1.429 1_545 S
C26 C25 1.390 1_545 S
H27 C30 0.931 . S
H28 C33 0.928 . S
H29 C35 0.930 . S
C30 H27 0.931 . S
C30 C31 1.413 . S
C30 C32 1.360 . S
C31 C30 1.413 . S
C31 C35 1.429 . S
C32 C30 1.360 . S
C32 C33 1.372 . S
C33 H28 0.928 . S
C33 C32 1.372 . S
C33 C34 1.404 . S
C34 C33 1.404 . S
C34 C35 1.391 . S
C35 H29 0.930 . S
C35 C31 1.429 . S
C35 C34 1.391 . S
H36 C39 0.931 . S
H37 C42 0.928 . S
H38 C44 0.930 . S
C39 H36 0.931 . S
C39 C40 1.413 1_554 S
C39 C41 1.360 . S
C40 C39 1.413 1_556 S
C40 C44 1.429 . S
C41 C39 1.360 . S
C41 C42 1.372 . S
C42 H37 0.928 . S
C42 C41 1.372 . S
C42 C43 1.404 . S
C43 C42 1.404 . S
C43 C44 1.391 1_554 S
C44 H38 0.930 . S
C44 C40 1.429 . S
C44 C43 1.391 1_556 S
H45 C48 0.931 . S
H46 C51 0.928 . S
H47 C53 0.930 . S
C48 H45 0.931 . S
C48 C49 1.413 1_554 S
C48 C50 1.360 . S
C49 C48 1.413 1_556 S
C49 C53 1.429 1_655 S
C50 C48 1.360 . S
C50 C51 1.372 . S
C51 H46 0.928 . S
C51 C50 1.372 . S
C51 C52 1.404 . S
C52 C51 1.404 . S
C52 C53 1.391 1_654 S
C53 H47 0.930 . S
C53 C49 1.429 1_455 S
C53 C52 1.391 1_456 S
H54 C57 0.931 . S
H55 C60 0.928 . S
H56 C62 0.930 . S
C57 H54 0.931 . S
C57 C58 1.413 1_554 S
C57 C59 1.360 . S
C58 C57 1.413 1_556 S
C58 C62 1.429 1_565 S
C59 C57 1.360 . S
C59 C60 1.372 . S
C60 H55 0.928 . S
C60 C59 1.372 . S
C60 C61 1.404 . S
C61 C60 1.404 . S
C61 C62 1.391 1_564 S
C62 H56 0.930 . S
C62 C58 1.429 1_545 S
C62 C61 1.391 1_546 S
H63 C66 0.931 . S
H64 C69 0.928 . S
H65 C71 0.930 . S
C66 H63 0.931 . S
C66 C67 1.413 . S
C66 C68 1.360 1_554 S
C67 C66 1.413 . S
C67 C71 1.429 . S
C68 C66 1.360 1_556 S
C68 C69 1.372 . S
C69 H64 0.928 . S
C69 C68 1.372 . S
C69 C70 1.404 1_556 S
C70 C69 1.404 1_554 S
C70 C71 1.391 . S
C71 H65 0.930 . S
C71 C67 1.429 . S
C71 C70 1.391 . S
La72 C74 2.928 . S
La72 O92 2.521 . S
La72 O93 2.628 . S
La72 O94 2.554 . S
La72 O95 2.757 1_565 S
La72 O96 2.470 . S
La72 O101 2.482 1_455 S
La72 O103 2.503 1_565 S
La73 C83 2.928 . S
La73 O95 2.482 1_655 S
La73 O97 2.503 1_545 S
La73 O98 2.521 . S
La73 O99 2.628 . S
La73 O100 2.554 . S
La73 O101 2.757 1_545 S
La73 O102 2.470 . S
C74 La72 2.928 . S
C74 C75 1.503 . S
C74 O92 1.261 . S
C74 O93 1.243 . S
C75 C74 1.503 . S
C75 C76 1.394 . S
C75 C80 1.373 . S
C76 C75 1.394 . S
C76 C77 1.380 . S
C76 H104 0.930 . S
C77 C76 1.380 . S
C77 C78 1.376 . S
C77 H105 0.930 . S
C78 C77 1.376 . S
C78 C79 1.370 . S
C79 C78 1.370 . S
C79 C80 1.396 . S
C79 H106 0.925 . S
C80 C75 1.373 . S
C80 C79 1.396 . S
C80 H107 0.929 1_455 S
C81 O94 1.269 . S
C81 O95 1.272 1_565 S
C82 O96 1.258 1_655 S
C82 O97 1.256 . S
C83 La73 2.928 . S
C83 C84 1.503 . S
C83 O98 1.261 . S
C83 O99 1.243 . S
C84 C83 1.503 . S
C84 C85 1.394 . S
C84 C89 1.373 . S
C85 C84 1.394 . S
C85 C86 1.380 . S
C85 H108 0.930 . S
C86 C85 1.380 . S
C86 C87 1.376 . S
C86 H109 0.930 . S
C87 C86 1.376 . S
C87 C88 1.370 . S
C88 C87 1.370 . S
C88 C89 1.396 . S
C88 H110 0.925 1_655 S
C89 C84 1.373 . S
C89 C88 1.396 . S
C89 H111 0.929 1_655 S
C90 O100 1.240 . S
C90 O101 1.289 1_545 S
C91 O102 1.258 1_455 S
C91 O103 1.256 . S
O92 La72 2.521 . S
O92 C74 1.261 . S
O93 La72 2.628 . S
O93 C74 1.243 . S
O94 La72 2.554 . S
O94 C81 1.269 . S
O95 La72 2.757 1_545 S
O95 La73 2.482 1_455 S
O95 C81 1.272 1_545 S
O96 La72 2.470 . S
O96 C82 1.258 1_455 S
O97 La73 2.503 1_565 S
O97 C82 1.256 . S
O98 La73 2.521 . S
O98 C83 1.261 . S
O99 La73 2.628 . S
O99 C83 1.243 . S
O100 La73 2.554 . S
O100 C90 1.240 . S
O101 La72 2.482 1_655 S
O101 La73 2.757 1_565 S
O101 C90 1.289 1_565 S
O102 La73 2.470 . S
O102 C91 1.258 1_655 S
O103 La72 2.503 1_545 S
O103 C91 1.256 . S
H104 C76 0.930 . S
H105 C77 0.930 . S
H106 C79 0.925 . S
H107 C80 0.929 1_655 S
H108 C85 0.930 . S
H109 C86 0.930 . S
H110 C88 0.925 1_455 S
H111 C89 0.929 1_455 S
La112 C114 2.928 . S
La112 O132 2.521 . S
La112 O133 2.628 . S
La112 O134 2.554 . S
La112 O135 2.757 . S
La112 O136 2.470 . S
La112 O141 2.482 1_545 S
La112 O143 2.503 . S
La113 C123 2.928 . S
La113 O135 2.482 1_565 S
La113 O137 2.503 . S
La113 O138 2.521 . S
La113 O139 2.628 . S
La113 O140 2.554 . S
La113 O141 2.757 . S
La113 O142 2.470 . S
C114 La112 2.928 . S
C114 C115 1.503 . S
C114 O132 1.261 . S
C114 O133 1.243 . S
C115 C114 1.503 . S
C115 C116 1.394 . S
C115 C120 1.373 . S
C116 C115 1.394 . S
C116 C117 1.380 . S
C116 H144 0.930 . S
C117 C116 1.380 . S
C117 C118 1.376 . S
C117 H145 0.930 . S
C118 C117 1.376 . S
C118 C119 1.370 . S
C119 C118 1.370 . S
C119 C120 1.396 . S
C119 H146 0.914 1_545 S
C120 C115 1.373 . S
C120 C119 1.396 . S
C120 H147 0.929 1_545 S
C121 O134 1.240 . S
C121 O135 1.289 . S
C122 O136 1.258 1_565 S
C122 O137 1.256 . S
C123 La113 2.928 . S
C123 C124 1.503 . S
C123 O138 1.261 . S
C123 O139 1.243 . S
C124 C123 1.503 . S
C124 C125 1.394 . S
C124 C129 1.373 . S
C125 C124 1.394 . S
C125 C126 1.380 . S
C125 H148 0.930 . S
C126 C125 1.380 . S
C126 C127 1.376 . S
C126 H149 0.930 . S
C127 C126 1.376 . S
C127 C128 1.370 . S
C128 C127 1.370 . S
C128 C129 1.396 . S
C128 H150 0.904 1_565 S
C129 C124 1.373 . S
C129 C128 1.396 . S
C129 H151 0.929 1_565 S
C130 O140 1.240 . S
C130 O141 1.289 . S
C131 O142 1.258 1_545 S
C131 O143 1.256 . S
O132 La112 2.521 . S
O132 C114 1.261 . S
O133 La112 2.628 . S
O133 C114 1.243 . S
O134 La112 2.554 . S
O134 C121 1.240 . S
O135 La112 2.757 . S
O135 La113 2.482 1_545 S
O135 C121 1.289 . S
O136 La112 2.470 . S
O136 C122 1.258 1_545 S
O137 La113 2.503 . S
O137 C122 1.256 . S
O138 La113 2.521 . S
O138 C123 1.261 . S
O139 La113 2.628 . S
O139 C123 1.243 . S
O140 La113 2.554 . S
O140 C130 1.240 . S
O141 La112 2.482 1_565 S
O141 La113 2.757 . S
O141 C130 1.289 . S
O142 La113 2.470 . S
O142 C131 1.258 1_565 S
O143 La112 2.503 . S
O143 C131 1.256 . S
H144 C116 0.930 . S
H145 C117 0.930 . S
H146 C119 0.914 1_565 S
H147 C120 0.929 1_565 S
H148 C125 0.930 . S
H149 C126 0.930 . S
H150 C128 0.904 1_545 S
H151 C129 0.929 1_545 S
La152 C154 2.928 . S
La152 O172 2.521 . S
La152 O173 2.628 . S
La152 O174 2.554 . S
La152 O175 2.757 . S
La152 O176 2.470 . S
La152 O181 2.482 . S
La152 O183 2.503 . S
La153 C163 2.928 . S
La153 O175 2.482 . S
La153 O177 2.503 . S
La153 O178 2.521 . S
La153 O179 2.628 . S
La153 O180 2.554 . S
La153 O181 2.757 . S
La153 O182 2.470 . S
C154 La152 2.928 . S
C154 C155 1.503 . S
C154 O172 1.261 . S
C154 O173 1.243 . S
C155 C154 1.503 . S
C155 C156 1.394 . S
C155 C160 1.373 . S
C156 C155 1.394 . S
C156 C157 1.380 . S
C156 H184 0.930 . S
C157 C156 1.380 . S
C157 C158 1.376 . S
C157 H185 0.930 . S
C158 C157 1.376 . S
C158 C159 1.370 . S
C159 C158 1.370 . S
C159 C160 1.396 . S
C159 H186 0.929 . S
C160 C155 1.373 . S
C160 C159 1.396 . S
C160 H187 0.929 . S
C161 O174 1.240 . S
C161 O175 1.289 . S
C162 O176 1.258 . S
C162 O177 1.256 . S
C163 La153 2.928 . S
C163 C164 1.503 . S
C163 O178 1.261 . S
C163 O179 1.243 . S
C164 C163 1.503 . S
C164 C165 1.394 . S
C164 C169 1.373 . S
C165 C164 1.394 . S
C165 C166 1.380 . S
C165 H188 0.930 . S
C166 C165 1.380 . S
C166 C167 1.376 . S
C166 H189 0.930 . S
C167 C166 1.376 . S
C167 C168 1.370 . S
C168 C167 1.370 . S
C168 C169 1.396 . S
C168 H190 0.929 . S
C169 C164 1.373 . S
C169 C168 1.396 . S
C169 H191 0.929 . S
C170 O180 1.240 . S
C170 O181 1.289 . S
C171 O182 1.258 . S
C171 O183 1.256 . S
O172 La152 2.521 . S
O172 C154 1.261 . S
O173 La152 2.628 . S
O173 C154 1.243 . S
O174 La152 2.554 . S
O174 C161 1.240 . S
O175 La152 2.757 . S
O175 La153 2.482 . S
O175 C161 1.289 . S
O176 La152 2.470 . S
O176 C162 1.258 . S
O177 La153 2.503 . S
O177 C162 1.256 . S
O178 La153 2.521 . S
O178 C163 1.261 . S
O179 La153 2.628 . S
O179 C163 1.243 . S
O180 La153 2.554 . S
O180 C170 1.240 . S
O181 La152 2.482 . S
O181 La153 2.757 . S
O181 C170 1.289 . S
O182 La153 2.470 . S
O182 C171 1.258 . S
O183 La152 2.503 . S
O183 C171 1.256 . S
H184 C156 0.930 . S
H185 C157 0.930 . S
H186 C159 0.929 . S
H187 C160 0.929 . S
H188 C165 0.930 . S
H189 C166 0.930 . S
H190 C168 0.929 . S
H191 C169 0.929 . S
La192 C194 2.928 . S
La192 O212 2.521 . S
La192 O213 2.628 . S
La192 O214 2.554 . S
La192 O215 2.757 1_655 S
La192 O216 2.470 . S
La192 O221 2.482 . S
La192 O223 2.503 1_655 S
La193 C203 2.928 . S
La193 O215 2.482 . S
La193 O217 2.503 1_455 S
La193 O218 2.521 . S
La193 O219 2.628 . S
La193 O220 2.554 . S
La193 O221 2.757 1_455 S
La193 O222 2.470 . S
C194 La192 2.928 . S
C194 C195 1.503 . S
C194 O212 1.261 . S
C194 O213 1.243 . S
C195 C194 1.503 . S
C195 C196 1.394 . S
C195 C200 1.373 . S
C196 C195 1.394 . S
C196 C197 1.380 . S
C196 H224 0.930 . S
C197 C196 1.380 . S
C197 C198 1.376 . S
C197 H225 0.930 . S
C198 C197 1.376 . S
C198 C199 1.370 . S
C199 C198 1.370 . S
C199 C200 1.396 . S
C199 H226 0.929 . S
C200 C195 1.373 . S
C200 C199 1.396 . S
C200 H227 0.929 . S
C201 O214 1.258 . S
C201 O215 1.279 1_655 S
C202 O216 1.258 . S
C202 O217 1.256 . S
C203 La193 2.928 . S
C203 C204 1.503 . S
C203 O218 1.261 . S
C203 O219 1.243 . S
C204 C203 1.503 . S
C204 C205 1.394 . S
C204 C209 1.373 . S
C205 C204 1.394 . S
C205 C206 1.380 . S
C205 H228 0.930 . S
C206 C205 1.380 . S
C206 C207 1.376 . S
C206 H229 0.930 . S
C207 C206 1.376 . S
C207 C208 1.370 . S
C208 C207 1.370 . S
C208 C209 1.396 . S
C208 H230 0.929 . S
C209 C204 1.373 . S
C209 C208 1.396 . S
C209 H231 0.929 . S
C210 O220 1.264 . S
C210 O221 1.275 1_455 S
C211 O222 1.258 . S
C211 O223 1.256 . S
O212 La192 2.521 . S
O212 C194 1.261 . S
O213 La192 2.628 . S
O213 C194 1.243 . S
O214 La192 2.554 . S
O214 C201 1.258 . S
O215 La192 2.757 1_455 S
O215 La193 2.482 . S
O215 C201 1.279 1_455 S
O216 La192 2.470 . S
O216 C202 1.258 . S
O217 La193 2.503 1_655 S
O217 C202 1.256 . S
O218 La193 2.521 . S
O218 C203 1.261 . S
O219 La193 2.628 . S
O219 C203 1.243 . S
O220 La193 2.554 . S
O220 C210 1.264 . S
O221 La192 2.482 . S
O221 La193 2.757 1_655 S
O221 C210 1.275 1_655 S
O222 La193 2.470 . S
O222 C211 1.258 . S
O223 La192 2.503 1_455 S
O223 C211 1.256 . S
H224 C196 0.930 . S
H225 C197 0.930 . S
H226 C199 0.929 . S
H227 C200 0.929 . S
H228 C205 0.930 . S
H229 C206 0.930 . S
H230 C208 0.929 . S
H231 C209 0.929 . S
C232 C233 1.353 . S
C232 C234 1.327 . S
C232 H257 0.950 . S
C233 C232 1.353 . S
C233 C249 1.345 1_545 S
C234 C232 1.327 . S
C234 C253 1.444 . S
C234 H258 0.950 . S
C235 C252 1.574 . S
C235 C254 1.345 1_565 S
C235 H259 0.949 . S
H236 C240 0.949 . S
C237 C238 1.349 1_565 S
C237 C239 1.327 . S
C237 H260 0.950 . S
C238 C237 1.349 1_545 S
C238 C250 1.349 . S
C239 C237 1.327 . S
C239 C255 1.429 1_565 S
C239 H261 0.950 . S
C240 H236 0.949 . S
C240 C248 1.574 . S
C240 C256 1.404 . S
H241 C249 0.950 . S
H242 C247 0.950 . S
H243 C248 0.949 . S
H244 C250 0.950 . S
H245 C251 0.950 . S
H246 C252 0.949 . S
C247 H242 0.950 . S
C247 C249 1.327 . S
C247 C253 1.413 1_565 S
C248 C240 1.574 . S
C248 H243 0.949 . S
C248 C254 1.392 . S
C249 C233 1.345 1_565 S
C249 H241 0.950 . S
C249 C247 1.327 . S
C250 C238 1.349 . S
C250 H244 0.950 . S
C250 C251 1.327 . S
C251 H245 0.950 . S
C251 C250 1.327 . S
C251 C255 1.429 . S
C252 C235 1.574 . S
C252 H246 0.949 . S
C252 C256 1.333 1_565 S
C253 C234 1.444 . S
C253 C247 1.413 1_545 S
C253 C254 1.523 . S
C254 C235 1.345 1_545 S
C254 C248 1.392 . S
C254 C253 1.523 . S
C255 C239 1.429 1_545 S
C255 C251 1.429 . S
C255 C256 1.524 . S
C256 C240 1.404 . S
C256 C252 1.333 1_545 S
C256 C255 1.524 . S
H257 C232 0.950 . S
H258 C234 0.950 . S
H259 C235 0.949 . S
H260 C237 0.950 . S
H261 C239 0.950 . S
C262 C263 1.349 . S
C262 C264 1.327 . S
C262 H287 0.950 . S
C263 C262 1.349 . S
C263 C279 1.349 . S
C264 C262 1.327 . S
C264 C283 1.429 . S
C264 H288 0.950 . S
C265 C282 1.574 . S
C265 C284 1.368 . S
C265 H289 0.949 . S
H266 C270 0.949 . S
C267 C268 1.349 . S
C267 C269 1.327 . S
C267 H290 0.950 . S
C268 C267 1.349 . S
C268 C280 1.349 . S
C269 C267 1.327 . S
C269 C285 1.429 . S
C269 H291 0.950 . S
C270 H266 0.949 . S
C270 C278 1.574 . S
C270 C286 1.368 . S
H271 C279 0.950 . S
H272 C277 0.950 . S
H273 C278 0.949 . S
H274 C280 0.950 . S
H275 C281 0.950 . S
H276 C282 0.949 . S
C277 H272 0.950 . S
C277 C279 1.327 . S
C277 C283 1.429 . S
C278 C270 1.574 . S
C278 H273 0.949 . S
C278 C284 1.368 . S
C279 C263 1.349 . S
C279 H271 0.950 . S
C279 C277 1.327 . S
C280 C268 1.349 . S
C280 H274 0.950 . S
C280 C281 1.327 . S
C281 H275 0.950 . S
C281 C280 1.327 . S
C281 C285 1.429 . S
C282 C265 1.574 . S
C282 H276 0.949 . S
C282 C286 1.368 . S
C283 C264 1.429 . S
C283 C277 1.429 . S
C283 C284 1.523 . S
C284 C265 1.368 . S
C284 C278 1.368 . S
C284 C283 1.523 . S
C285 C269 1.429 . S
C285 C281 1.429 . S
C285 C286 1.523 . S
C286 C270 1.368 . S
C286 C282 1.368 . S
C286 C285 1.523 . S
H287 C262 0.950 . S
H288 C264 0.950 . S
H289 C265 0.949 . S
H290 C267 0.950 . S
H291 C269 0.950 . S
C292 C293 1.349 . S
C292 C294 1.327 . S
C292 H317 0.950 . S
C293 C292 1.349 . S
C293 C309 1.349 . S
C294 C292 1.327 . S
C294 C313 1.429 . S
C294 H318 0.950 . S
C295 C312 1.574 . S
C295 C314 1.368 . S
C295 H319 0.949 . S
H296 C300 0.949 . S
C297 C298 1.349 . S
C297 C299 1.327 . S
C297 H320 0.950 . S
C298 C297 1.349 . S
C298 C310 1.349 . S
C299 C297 1.327 . S
C299 C315 1.429 . S
C299 H321 0.950 . S
C300 H296 0.949 . S
C300 C308 1.574 . S
C300 C316 1.368 . S
H301 C309 0.950 . S
H302 C307 0.950 . S
H303 C308 0.949 . S
H304 C310 0.950 . S
H305 C311 0.950 . S
H306 C312 0.949 . S
C307 H302 0.950 . S
C307 C309 1.327 . S
C307 C313 1.429 . S
C308 C300 1.574 . S
C308 H303 0.949 . S
C308 C314 1.368 . S
C309 C293 1.349 . S
C309 H301 0.950 . S
C309 C307 1.327 . S
C310 C298 1.349 . S
C310 H304 0.950 . S
C310 C311 1.327 . S
C311 H305 0.950 . S
C311 C310 1.327 . S
C311 C315 1.429 . S
C312 C295 1.574 . S
C312 H306 0.949 . S
C312 C316 1.368 . S
C313 C294 1.429 . S
C313 C307 1.429 . S
C313 C314 1.523 . S
C314 C295 1.368 . S
C314 C308 1.368 . S
C314 C313 1.523 . S
C315 C299 1.429 . S
C315 C311 1.429 . S
C315 C316 1.523 . S
C316 C300 1.368 . S
C316 C312 1.368 . S
C316 C315 1.523 . S
H317 C292 0.950 . S
H318 C294 0.950 . S
H319 C295 0.949 . S
H320 C297 0.950 . S
H321 C299 0.950 . S
C322 C323 1.349 . S
C322 C324 1.327 . S
C322 H347 0.950 . S
C323 C322 1.349 . S
C323 C339 1.347 1_455 S
C324 C322 1.327 . S
C324 C343 1.430 . S
C324 H348 0.950 . S
C325 C342 1.574 . S
C325 C344 1.366 1_655 S
C325 H349 0.951 . S
H326 C330 0.949 . S
C327 C328 1.350 . S
C327 C329 1.327 . S
C327 H350 0.949 1_455 S
C328 C327 1.350 . S
C328 C340 1.349 . S
C329 C327 1.327 . S
C329 C345 1.429 . S
C329 H351 0.948 1_455 S
C330 H326 0.949 . S
C330 C338 1.574 . S
C330 C346 1.368 . S
H331 C339 0.954 . S
H332 C337 0.952 . S
H333 C338 0.949 . S
H334 C340 0.950 . S
H335 C341 0.950 . S
H336 C342 0.948 . S
C337 H332 0.952 . S
C337 C339 1.327 . S
C337 C343 1.426 1_655 S
C338 C330 1.574 . S
C338 H333 0.949 . S
C338 C344 1.371 . S
C339 C323 1.347 1_655 S
C339 H331 0.954 . S
C339 C337 1.327 . S
C340 C328 1.349 . S
C340 H334 0.950 . S
C340 C341 1.327 . S
C341 H335 0.950 . S
C341 C340 1.327 . S
C341 C345 1.429 . S
C342 C325 1.574 . S
C342 H336 0.948 . S
C342 C346 1.368 1_655 S
C343 C324 1.430 . S
C343 C337 1.426 1_455 S
C343 C344 1.523 . S
C344 C325 1.366 1_455 S
C344 C338 1.371 . S
C344 C343 1.523 . S
C345 C329 1.429 . S
C345 C341 1.429 . S
C345 C346 1.523 . S
C346 C330 1.368 . S
C346 C342 1.368 1_455 S
C346 C345 1.523 . S
H347 C322 0.950 . S
H348 C324 0.950 . S
H349 C325 0.951 . S
H350 C327 0.949 1_655 S
H351 C329 0.948 1_655 S
C352 C353 1.353 1_545 S
C352 C354 1.327 . S
C352 H377 0.950 . S
C353 C352 1.353 1_565 S
C353 C369 1.345 . S
C354 C352 1.327 . S
C354 C373 1.421 1_545 S
C354 H378 0.950 . S
C355 C372 1.574 . S
C355 C374 1.383 . S
C355 H379 0.949 . S
H356 C360 0.949 . S
C357 C358 1.349 . S
C357 C359 1.327 . S
C357 H380 0.950 . S
C358 C357 1.349 . S
C358 C370 1.349 1_565 S
C359 C357 1.327 . S
C359 C375 1.460 . S
C359 H381 0.950 . S
C360 H356 0.949 . S
C360 C368 1.574 . S
C360 C376 1.342 1_545 S
H361 C369 0.950 . S
H362 C367 0.950 . S
H363 C368 0.949 . S
H364 C370 0.950 . S
H365 C371 0.950 . S
H366 C372 0.949 1_556 S
C367 H362 0.950 . S
C367 C369 1.327 . S
C367 C373 1.436 . S
C368 C360 1.574 . S
C368 H363 0.949 . S
C368 C374 1.354 1_545 S
C369 C353 1.345 . S
C369 H361 0.950 . S
C369 C367 1.327 . S
C370 C358 1.349 1_545 S
C370 H364 0.950 . S
C370 C371 1.327 . S
C371 H365 0.950 . S
C371 C370 1.327 . S
C371 C375 1.399 1_545 S
C372 C355 1.574 . S
C372 H366 0.949 1_554 S
C372 C376 1.395 . S
C373 C354 1.421 1_565 S
C373 C367 1.436 . S
C373 C374 1.523 . S
C374 C355 1.383 . S
C374 C368 1.354 1_565 S
C374 C373 1.523 . S
C375 C359 1.460 . S
C375 C371 1.399 1_565 S
C375 C376 1.523 1_556 S
C376 C360 1.342 1_565 S
C376 C372 1.395 . S
C376 C375 1.523 1_554 S
H377 C352 0.950 . S
H378 C354 0.950 . S
H379 C355 0.949 . S
H380 C357 0.950 . S
H381 C359 0.950 . S
C382 C383 1.349 . S
C382 C384 1.327 . S
C382 H407 0.950 . S
C383 C382 1.349 . S
C383 C399 1.349 . S
C384 C382 1.327 . S
C384 C403 1.429 . S
C384 H408 0.950 . S
C385 C402 1.574 1_554 S
C385 C404 1.368 . S
C385 H409 0.949 . S
H386 C390 0.949 . S
C387 C388 1.349 . S
C387 C389 1.327 . S
C387 H410 0.950 . S
C388 C387 1.349 . S
C388 C400 1.349 . S
C389 C387 1.327 . S
C389 C405 1.429 . S
C389 H411 0.950 . S
C390 H386 0.949 . S
C390 C398 1.574 . S
C390 C406 1.368 . S
H391 C399 0.950 . S
H392 C397 0.950 . S
H393 C398 0.949 . S
H394 C400 0.950 . S
H395 C401 0.950 . S
H396 C402 0.949 . S
C397 H392 0.950 . S
C397 C399 1.327 . S
C397 C403 1.429 . S
C398 C390 1.574 . S
C398 H393 0.949 . S
C398 C404 1.368 . S
C399 C383 1.349 . S
C399 H391 0.950 . S
C399 C397 1.327 . S
C400 C388 1.349 . S
C400 H394 0.950 . S
C400 C401 1.327 . S
C401 H395 0.950 . S
C401 C400 1.327 . S
C401 C405 1.429 . S
C402 C385 1.574 1_556 S
C402 H396 0.949 . S
C402 C406 1.368 1_556 S
C403 C384 1.429 . S
C403 C397 1.429 . S
C403 C404 1.523 . S
C404 C385 1.368 . S
C404 C398 1.368 . S
C404 C403 1.523 . S
C405 C389 1.429 . S
C405 C401 1.429 . S
C405 C406 1.523 1_556 S
C406 C390 1.368 . S
C406 C402 1.368 1_554 S
C406 C405 1.523 1_554 S
H407 C382 0.950 . S
H408 C384 0.950 . S
H409 C385 0.949 . S
H410 C387 0.950 . S
H411 C389 0.950 . S
C412 C413 1.349 . S
C412 C414 1.327 . S
C412 H437 0.950 . S
C413 C412 1.349 . S
C413 C429 1.349 . S
C414 C412 1.327 . S
C414 C433 1.429 . S
C414 H438 0.950 . S
C415 C432 1.574 . S
C415 C434 1.368 . S
C415 H439 0.949 . S
H416 C420 0.949 . S
C417 C418 1.349 . S
C417 C419 1.327 . S
C417 H440 0.950 . S
C418 C417 1.349 . S
C418 C430 1.349 . S
C419 C417 1.327 . S
C419 C435 1.429 . S
C419 H441 0.950 . S
C420 H416 0.949 . S
C420 C428 1.574 . S
C420 C436 1.368 . S
H421 C429 0.950 . S
H422 C427 0.950 . S
H423 C428 0.949 . S
H424 C430 0.950 . S
H425 C431 0.950 . S
H426 C432 0.949 1_556 S
C427 H422 0.950 . S
C427 C429 1.327 . S
C427 C433 1.429 . S
C428 C420 1.574 . S
C428 H423 0.949 . S
C428 C434 1.368 . S
C429 C413 1.349 . S
C429 H421 0.950 . S
C429 C427 1.327 . S
C430 C418 1.349 . S
C430 H424 0.950 . S
C430 C431 1.327 . S
C431 H425 0.950 . S
C431 C430 1.327 . S
C431 C435 1.429 . S
C432 C415 1.574 . S
C432 H426 0.949 1_554 S
C432 C436 1.368 . S
C433 C414 1.429 . S
C433 C427 1.429 . S
C433 C434 1.523 . S
C434 C415 1.368 . S
C434 C428 1.368 . S
C434 C433 1.523 . S
C435 C419 1.429 . S
C435 C431 1.429 . S
C435 C436 1.523 1_556 S
C436 C420 1.368 . S
C436 C432 1.368 . S
C436 C435 1.523 1_554 S
H437 C412 0.950 . S
H438 C414 0.950 . S
H439 C415 0.949 . S
H440 C417 0.950 . S
H441 C419 0.950 . S
C442 C443 1.351 . S
C442 C444 1.327 . S
C442 H467 0.950 . S
C443 C442 1.351 . S
C443 C459 1.346 1_655 S
C444 C442 1.327 . S
C444 C463 1.438 . S
C444 H468 0.950 . S
C445 C462 1.574 1_554 S
C445 C464 1.355 1_455 S
C445 H469 0.949 . S
H446 C450 0.949 . S
C447 C448 1.349 1_455 S
C447 C449 1.327 . S
C447 H470 0.950 . S
C448 C447 1.349 1_655 S
C448 C460 1.349 . S
C449 C447 1.327 . S
C449 C465 1.429 1_455 S
C449 H471 0.950 . S
C450 H446 0.949 . S
C450 C458 1.574 . S
C450 C466 1.368 . S
H451 C459 0.950 . S
H452 C457 0.950 . S
H453 C458 0.949 . S
H454 C460 0.950 . S
H455 C461 0.950 . S
H456 C462 0.949 . S
C457 H452 0.950 . S
C457 C459 1.327 . S
C457 C463 1.420 1_455 S
C458 C450 1.574 . S
C458 H453 0.949 . S
C458 C464 1.383 . S
C459 C443 1.346 1_455 S
C459 H451 0.950 . S
C459 C457 1.327 . S
C460 C448 1.349 . S
C460 H454 0.950 . S
C460 C461 1.327 . S
C461 H455 0.950 . S
C461 C460 1.327 . S
C461 C465 1.429 . S
C462 C445 1.574 1_556 S
C462 H456 0.949 . S
C462 C466 1.368 1_456 S
C463 C444 1.438 . S
C463 C457 1.420 1_655 S
C463 C464 1.523 . S
C464 C445 1.355 1_655 S
C464 C458 1.383 . S
C464 C463 1.523 . S
C465 C449 1.429 1_655 S
C465 C461 1.429 . S
C465 C466 1.523 1_556 S
C466 C450 1.368 . S
C466 C462 1.368 1_654 S
C466 C465 1.523 1_554 S
H467 C442 0.950 . S
H468 C444 0.950 . S
H469 C445 0.949 . S
H470 C447 0.950 . S
H471 C449 0.950 . S
C472 C473 1.349 . S
C472 C474 1.327 . S
C472 H497 0.950 . S
C473 C472 1.349 . S
C473 C489 1.349 1_455 S
C474 C472 1.327 . S
C474 C493 1.429 1_455 S
C474 H498 0.950 . S
C475 C492 1.574 . S
C475 C494 1.368 . S
C475 H499 0.949 . S
H476 C480 0.949 1_455 S
C477 C478 1.349 . S
C477 C479 1.327 . S
C477 H500 0.950 . S
C478 C477 1.349 . S
C478 C490 1.349 . S
C479 C477 1.327 . S
C479 C495 1.429 . S
C479 H501 0.950 . S
C480 H476 0.949 1_655 S
C480 C488 1.574 1_655 S
C480 C496 1.368 . S
H481 C489 0.950 . S
H482 C487 0.950 . S
H483 C488 0.949 . S
H484 C490 0.950 . S
H485 C491 0.950 . S
H486 C492 0.949 . S
C487 H482 0.950 . S
C487 C489 1.327 . S
C487 C493 1.429 . S
C488 C480 1.574 1_455 S
C488 H483 0.949 . S
C488 C494 1.368 1_455 S
C489 C473 1.349 1_655 S
C489 H481 0.950 . S
C489 C487 1.327 . S
C490 C478 1.349 . S
C490 H484 0.950 . S
C490 C491 1.327 . S
C491 H485 0.950 . S
C491 C490 1.327 . S
C491 C495 1.429 . S
C492 C475 1.574 . S
C492 H486 0.949 . S
C492 C496 1.368 . S
C493 C474 1.429 1_655 S
C493 C487 1.429 . S
C493 C494 1.523 . S
C494 C475 1.368 . S
C494 C488 1.368 1_655 S
C494 C493 1.523 . S
C495 C479 1.429 . S
C495 C491 1.429 . S
C495 C496 1.523 . S
C496 C480 1.368 . S
C496 C492 1.368 . S
C496 C495 1.523 . S
H497 C472 0.950 . S
H498 C474 0.950 . S
H499 C475 0.949 . S
H500 C477 0.950 . S
H501 C479 0.950 . S
C502 C503 1.349 1_565 S
C502 C504 1.327 . S
C502 H527 0.950 . S
C503 C502 1.349 1_545 S
C503 C519 1.349 . S
C504 C502 1.327 . S
C504 C523 1.429 . S
C504 H528 0.950 . S
C505 C522 1.574 . S
C505 C524 1.368 . S
C505 H529 0.949 1_565 S
H506 C510 0.949 . S
C507 C508 1.349 . S
C507 C509 1.327 . S
C507 H530 0.950 . S
C508 C507 1.349 . S
C508 C520 1.349 . S
C509 C507 1.327 . S
C509 C525 1.429 . S
C509 H531 0.950 . S
C510 H506 0.949 . S
C510 C518 1.574 . S
C510 C526 1.368 . S
H511 C519 0.950 . S
H512 C517 0.950 . S
H513 C518 0.949 . S
H514 C520 0.950 . S
H515 C521 0.950 . S
H516 C522 0.949 . S
C517 H512 0.950 . S
C517 C519 1.327 . S
C517 C523 1.429 1_545 S
C518 C510 1.574 . S
C518 H513 0.949 . S
C518 C524 1.368 . S
C519 C503 1.349 . S
C519 H511 0.950 . S
C519 C517 1.327 . S
C520 C508 1.349 . S
C520 H514 0.950 . S
C520 C521 1.327 . S
C521 H515 0.950 . S
C521 C520 1.327 . S
C521 C525 1.429 . S
C522 C505 1.574 . S
C522 H516 0.949 . S
C522 C526 1.368 . S
C523 C504 1.429 . S
C523 C517 1.429 1_565 S
C523 C524 1.523 . S
C524 C505 1.368 . S
C524 C518 1.368 . S
C524 C523 1.523 . S
C525 C509 1.429 . S
C525 C521 1.429 . S
C525 C526 1.523 . S
C526 C510 1.368 . S
C526 C522 1.368 . S
C526 C525 1.523 . S
H527 C502 0.950 . S
H528 C504 0.950 . S
H529 C505 0.949 1_545 S
H530 C507 0.950 . S
H531 C509 0.950 . S
C532 C533 1.349 . S
C532 C534 1.327 . S
C532 H557 0.950 . S
C533 C532 1.349 . S
C533 C549 1.349 . S
C534 C532 1.327 . S
C534 C553 1.429 . S
C534 H558 0.950 . S
C535 C552 1.574 . S
C535 C554 1.368 . S
C535 H559 0.949 . S
H536 C540 0.949 . S
C537 C538 1.349 . S
C537 C539 1.327 . S
C537 H560 0.950 . S
C538 C537 1.349 . S
C538 C550 1.349 . S
C539 C537 1.327 . S
C539 C555 1.429 . S
C539 H561 0.950 . S
C540 H536 0.949 . S
C540 C548 1.574 . S
C540 C556 1.368 . S
H541 C549 0.950 . S
H542 C547 0.950 . S
H543 C548 0.949 . S
H544 C550 0.950 . S
H545 C551 0.950 . S
H546 C552 0.949 . S
C547 H542 0.950 . S
C547 C549 1.327 . S
C547 C553 1.429 . S
C548 C540 1.574 . S
C548 H543 0.949 . S
C548 C554 1.368 . S
C549 C533 1.349 . S
C549 H541 0.950 . S
C549 C547 1.327 . S
C550 C538 1.349 . S
C550 H544 0.950 . S
C550 C551 1.327 . S
C551 H545 0.950 . S
C551 C550 1.327 . S
C551 C555 1.429 . S
C552 C535 1.574 . S
C552 H546 0.949 . S
C552 C556 1.368 . S
C553 C534 1.429 . S
C553 C547 1.429 . S
C553 C554 1.523 . S
C554 C535 1.368 . S
C554 C548 1.368 . S
C554 C553 1.523 . S
C555 C539 1.429 . S
C555 C551 1.429 . S
C555 C556 1.523 . S
C556 C540 1.368 . S
C556 C552 1.368 . S
C556 C555 1.523 . S
H557 C532 0.950 . S
H558 C534 0.950 . S
H559 C535 0.949 . S
H560 C537 0.950 . S
H561 C539 0.950 . S
C562 C563 1.349 . S
C562 C564 1.327 . S
C562 H587 0.950 . S
C563 C562 1.349 . S
C563 C579 1.349 . S
C564 C562 1.327 . S
C564 C583 1.429 . S
C564 H588 0.950 . S
C565 C582 1.574 . S
C565 C584 1.368 . S
C565 H589 0.949 . S
H566 C570 0.949 . S
C567 C568 1.349 . S
C567 C569 1.327 . S
C567 H590 0.950 . S
C568 C567 1.349 . S
C568 C580 1.349 . S
C569 C567 1.327 . S
C569 C585 1.429 . S
C569 H591 0.950 . S
C570 H566 0.949 . S
C570 C578 1.574 . S
C570 C586 1.368 . S
H571 C579 0.950 . S
H572 C577 0.950 . S
H573 C578 0.949 . S
H574 C580 0.950 . S
H575 C581 0.950 . S
H576 C582 0.949 . S
C577 H572 0.950 . S
C577 C579 1.327 . S
C577 C583 1.429 . S
C578 C570 1.574 . S
C578 H573 0.949 . S
C578 C584 1.368 . S
C579 C563 1.349 . S
C579 H571 0.950 . S
C579 C577 1.327 . S
C580 C568 1.349 . S
C580 H574 0.950 . S
C580 C581 1.327 . S
C581 H575 0.950 . S
C581 C580 1.327 . S
C581 C585 1.429 . S
C582 C565 1.574 . S
C582 H576 0.949 . S
C582 C586 1.368 . S
C583 C564 1.429 . S
C583 C577 1.429 . S
C583 C584 1.523 . S
C584 C565 1.368 . S
C584 C578 1.368 . S
C584 C583 1.523 . S
C585 C569 1.429 . S
C585 C581 1.429 . S
C585 C586 1.523 . S
C586 C570 1.368 . S
C586 C582 1.368 . S
C586 C585 1.523 . S
H587 C562 0.950 . S
H588 C564 0.950 . S
H589 C565 0.949 . S
H590 C567 0.950 . S
H591 C569 0.950 . S
C592 C593 1.349 1_455 S
C592 C594 1.327 . S
C592 H617 0.950 . S
C593 C592 1.349 1_655 S
C593 C609 1.349 . S
C594 C592 1.327 . S
C594 C613 1.429 . S
C594 H618 0.950 . S
C595 C612 1.570 1_655 S
C595 C614 1.357 1_655 S
C595 H619 0.964 . S
H596 C600 0.949 . S
C597 C598 1.349 . S
C597 C599 1.327 . S
C597 H620 0.950 . S
C598 C597 1.349 . S
C598 C610 1.349 1_556 S
C599 C597 1.327 . S
C599 C615 1.429 1_556 S
C599 H621 0.950 . S
C600 H596 0.949 . S
C600 C608 1.574 . S
C600 C616 1.368 . S
H601 C609 0.950 . S
H602 C607 0.950 . S
H603 C608 0.949 . S
H604 C610 0.950 . S
H605 C611 0.950 . S
H606 C612 0.949 1_655 S
C607 H602 0.950 . S
C607 C609 1.327 . S
C607 C613 1.429 1_655 S
C608 C600 1.574 . S
C608 H603 0.949 . S
C608 C614 1.368 . S
C609 C593 1.349 . S
C609 H601 0.950 . S
C609 C607 1.327 . S
C610 C598 1.349 1_554 S
C610 H604 0.950 . S
C610 C611 1.327 . S
C611 H605 0.950 . S
C611 C610 1.327 . S
C611 C615 1.429 . S
C612 C595 1.570 1_455 S
C612 H606 0.949 1_455 S
C612 C616 1.368 . S
C613 C594 1.429 . S
C613 C607 1.429 1_455 S
C613 C614 1.523 . S
C614 C595 1.357 1_455 S
C614 C608 1.368 . S
C614 C613 1.523 . S
C615 C599 1.429 1_554 S
C615 C611 1.429 . S
C615 C616 1.523 . S
C616 C600 1.368 . S
C616 C612 1.368 . S
C616 C615 1.523 . S
H617 C592 0.950 . S
H618 C594 0.950 . S
H619 C595 0.964 . S
H620 C597 0.950 . S
H621 C599 0.950 . S
C622 C623 1.349 . S
C622 C624 1.327 . S
C622 H647 0.950 . S
C623 C622 1.349 . S
C623 C639 1.349 1_565 S
C624 C622 1.327 . S
C624 C643 1.429 1_565 S
C624 H648 0.950 . S
C625 C642 1.574 . S
C625 C644 1.368 . S
C625 H649 0.949 . S
H626 C630 0.951 1_565 S
C627 C628 1.349 . S
C627 C629 1.327 1_556 S
C627 H650 0.950 . S
C628 C627 1.349 . S
C628 C640 1.349 . S
C629 C627 1.327 1_554 S
C629 C645 1.429 . S
C629 H651 0.950 . S
C630 H626 0.951 1_545 S
C630 C638 1.574 1_545 S
C630 C646 1.366 . S
H631 C639 0.950 . S
H632 C637 0.950 . S
H633 C638 0.949 . S
H634 C640 0.950 . S
H635 C641 0.950 1_565 S
H636 C642 0.949 . S
C637 H632 0.950 . S
C637 C639 1.327 . S
C637 C643 1.429 . S
C638 C630 1.574 1_565 S
C638 H633 0.949 . S
C638 C644 1.368 1_565 S
C639 C623 1.349 1_545 S
C639 H631 0.950 . S
C639 C637 1.327 . S
C640 C628 1.349 . S
C640 H634 0.950 . S
C640 C641 1.327 1_556 S
C641 H635 0.950 1_545 S
C641 C640 1.327 1_554 S
C641 C645 1.429 . S
C642 C625 1.574 . S
C642 H636 0.949 . S
C642 C646 1.368 . S
C643 C624 1.429 1_545 S
C643 C637 1.429 . S
C643 C644 1.523 . S
C644 C625 1.368 . S
C644 C638 1.368 1_545 S
C644 C643 1.523 . S
C645 C629 1.429 . S
C645 C641 1.429 . S
C645 C646 1.523 . S
C646 C630 1.366 . S
C646 C642 1.368 . S
C646 C645 1.523 . S
H647 C622 0.950 . S
H648 C624 0.950 . S
H649 C625 0.949 . S
H650 C627 0.950 . S
H651 C629 0.950 . S
C652 C653 1.349 . S
C652 C654 1.327 . S
C652 H677 0.950 . S
C653 C652 1.349 . S
C653 C669 1.349 . S
C654 C652 1.327 . S
C654 C673 1.429 . S
C654 H678 0.950 . S
C655 C672 1.574 . S
C655 C674 1.368 . S
C655 H679 0.949 . S
H656 C660 0.937 1_556 S
C657 C658 1.349 1_554 S
C657 C659 1.327 . S
C657 H680 0.950 . S
C658 C657 1.349 1_556 S
C658 C670 1.349 . S
C659 C657 1.327 . S
C659 C675 1.429 . S
C659 H681 0.950 . S
C660 H656 0.937 1_554 S
C660 C668 1.574 . S
C660 C676 1.368 . S
H661 C669 0.950 . S
H662 C667 0.950 . S
H663 C668 0.949 . S
H664 C670 0.950 . S
H665 C671 0.950 . S
H666 C672 0.949 . S
C667 H662 0.950 . S
C667 C669 1.327 . S
C667 C673 1.429 . S
C668 C660 1.574 . S
C668 H663 0.949 . S
C668 C674 1.368 . S
C669 C653 1.349 . S
C669 H661 0.950 . S
C669 C667 1.327 . S
C670 C658 1.349 . S
C670 H664 0.950 . S
C670 C671 1.327 . S
C671 H665 0.950 . S
C671 C670 1.327 . S
C671 C675 1.429 1_556 S
C672 C655 1.574 . S
C672 H666 0.949 . S
C672 C676 1.368 . S
C673 C654 1.429 . S
C673 C667 1.429 . S
C673 C674 1.523 . S
C674 C655 1.368 . S
C674 C668 1.368 . S
C674 C673 1.523 . S
C675 C659 1.429 . S
C675 C671 1.429 1_554 S
C675 C676 1.523 . S
C676 C660 1.368 . S
C676 C672 1.368 . S
C676 C675 1.523 . S
H677 C652 0.950 . S
H678 C654 0.950 . S
H679 C655 0.949 . S
H680 C657 0.950 . S
H681 C659 0.950 . S
C682 C683 1.349 . S
C682 C684 1.327 . S
C682 H707 0.950 . S
C683 C682 1.349 . S
C683 C699 1.349 . S
C684 C682 1.327 . S
C684 C703 1.429 . S
C684 H708 0.950 . S
C685 C702 1.574 . S
C685 C704 1.368 . S
C685 H709 0.949 . S
H686 C690 0.949 . S
C687 C688 1.349 . S
C687 C689 1.327 1_556 S
C687 H710 0.950 . S
C688 C687 1.349 . S
C688 C700 1.349 . S
C689 C687 1.327 1_554 S
C689 C705 1.429 . S
C689 H711 0.950 . S
C690 H686 0.949 . S
C690 C698 1.574 . S
C690 C706 1.368 . S
H691 C699 0.950 . S
H692 C697 0.950 . S
H693 C698 0.949 . S
H694 C700 0.950 . S
H695 C701 0.950 . S
H696 C702 0.949 . S
C697 H692 0.950 . S
C697 C699 1.327 . S
C697 C703 1.429 . S
C698 C690 1.574 . S
C698 H693 0.949 . S
C698 C704 1.368 . S
C699 C683 1.349 . S
C699 H691 0.950 . S
C699 C697 1.327 . S
C700 C688 1.349 . S
C700 H694 0.950 . S
C700 C701 1.327 1_556 S
C701 H695 0.950 . S
C701 C700 1.327 1_554 S
C701 C705 1.429 . S
C702 C685 1.574 . S
C702 H696 0.949 . S
C702 C706 1.368 . S
C703 C684 1.429 . S
C703 C697 1.429 . S
C703 C704 1.523 . S
C704 C685 1.368 . S
C704 C698 1.368 . S
C704 C703 1.523 . S
C705 C689 1.429 . S
C705 C701 1.429 . S
C705 C706 1.523 . S
C706 C690 1.368 . S
C706 C702 1.368 . S
C706 C705 1.523 . S
H707 C682 0.950 . S
H708 C684 0.950 . S
H709 C685 0.949 . S
H710 C687 0.950 . S
H711 C689 0.950 . S
C712 C713 1.349 . S
C712 C714 1.327 . S
C712 H737 0.950 . S
C713 C712 1.349 . S
C713 C729 1.349 1_455 S
C714 C712 1.327 . S
C714 C733 1.429 . S
C714 H738 0.950 . S
C715 C732 1.574 . S
C715 C734 1.368 1_655 S
C715 H739 0.949 . S
H716 C720 0.949 . S
C717 C718 1.349 1_655 S
C717 C719 1.327 . S
C717 H740 0.950 . S
C718 C717 1.349 1_455 S
C718 C730 1.349 . S
C719 C717 1.327 . S
C719 C735 1.429 1_655 S
C719 H741 0.950 . S
C720 H716 0.949 . S
C720 C728 1.574 . S
C720 C736 1.368 . S
H721 C729 0.950 . S
H722 C727 0.950 . S
H723 C728 0.949 . S
H724 C730 0.950 . S
H725 C731 0.950 . S
H726 C732 0.949 . S
C727 H722 0.950 . S
C727 C729 1.327 . S
C727 C733 1.429 1_655 S
C728 C720 1.574 . S
C728 H723 0.949 . S
C728 C734 1.368 . S
C729 C713 1.349 1_655 S
C729 H721 0.950 . S
C729 C727 1.327 . S
C730 C718 1.349 . S
C730 H724 0.950 . S
C730 C731 1.327 . S
C731 H725 0.950 . S
C731 C730 1.327 . S
C731 C735 1.429 . S
C732 C715 1.574 . S
C732 H726 0.949 . S
C732 C736 1.368 1_655 S
C733 C714 1.429 . S
C733 C727 1.429 1_455 S
C733 C734 1.523 . S
C734 C715 1.368 1_455 S
C734 C728 1.368 . S
C734 C733 1.523 . S
C735 C719 1.429 1_455 S
C735 C731 1.429 . S
C735 C736 1.523 . S
C736 C720 1.368 . S
C736 C732 1.368 1_455 S
C736 C735 1.523 . S
H737 C712 0.950 . S
H738 C714 0.950 . S
H739 C715 0.949 . S
H740 C717 0.950 . S
H741 C719 0.950 . S
C742 C743 1.349 1_565 S
C742 C744 1.327 . S
C742 H767 0.950 . S
C743 C742 1.349 1_545 S
C743 C759 1.349 . S
C744 C742 1.327 . S
C744 C763 1.429 1_565 S
C744 H768 0.950 . S
C745 C762 1.574 . S
C745 C764 1.368 . S
C745 H769 0.949 . S
H746 C750 0.949 . S
C747 C748 1.349 . S
C747 C749 1.327 . S
C747 H770 0.950 . S
C748 C747 1.349 . S
C748 C760 1.349 1_545 S
C749 C747 1.327 . S
C749 C765 1.429 . S
C749 H771 0.950 . S
C750 H746 0.949 . S
C750 C758 1.574 . S
C750 C766 1.368 1_565 S
H751 C759 0.950 . S
H752 C757 0.950 . S
H753 C758 0.949 . S
H754 C760 0.950 . S
H755 C761 0.950 . S
H756 C762 0.949 . S
C757 H752 0.950 . S
C757 C759 1.327 . S
C757 C763 1.429 . S
C758 C750 1.574 . S
C758 H753 0.949 . S
C758 C764 1.368 1_565 S
C759 C743 1.349 . S
C759 H751 0.950 . S
C759 C757 1.327 . S
C760 C748 1.349 1_565 S
C760 H754 0.950 . S
C760 C761 1.327 . S
C761 H755 0.950 . S
C761 C760 1.327 . S
C761 C765 1.429 1_565 S
C762 C745 1.574 . S
C762 H756 0.949 . S
C762 C766 1.368 . S
C763 C744 1.429 1_545 S
C763 C757 1.429 . S
C763 C764 1.523 . S
C764 C745 1.368 . S
C764 C758 1.368 1_545 S
C764 C763 1.523 . S
C765 C749 1.429 . S
C765 C761 1.429 1_545 S
C765 C766 1.523 . S
C766 C750 1.368 1_545 S
C766 C762 1.368 . S
C766 C765 1.523 . S
H767 C742 0.950 . S
H768 C744 0.950 . S
H769 C745 0.949 . S
H770 C747 0.950 . S
H771 C749 0.950 . S
C772 C773 1.349 . S
C772 C774 1.327 . S
C772 H797 0.950 1_556 S
C773 C772 1.349 . S
C773 C789 1.349 . S
C774 C772 1.327 . S
C774 C793 1.429 . S
C774 H798 0.950 . S
C775 C792 1.574 . S
C775 C794 1.368 . S
C775 H799 0.949 . S
H776 C780 0.949 . S
C777 C778 1.349 . S
C777 C779 1.327 . S
C777 H800 0.950 . S
C778 C777 1.349 . S
C778 C790 1.349 . S
C779 C777 1.327 . S
C779 C795 1.429 . S
C779 H801 0.950 . S
C780 H776 0.949 . S
C780 C788 1.574 . S
C780 C796 1.368 . S
H781 C789 0.950 . S
H782 C787 0.950 . S
H783 C788 0.949 . S
H784 C790 0.950 . S
H785 C791 0.950 . S
H786 C792 0.949 . S
C787 H782 0.950 . S
C787 C789 1.327 . S
C787 C793 1.429 . S
C788 C780 1.574 . S
C788 H783 0.949 . S
C788 C794 1.368 . S
C789 C773 1.349 . S
C789 H781 0.950 . S
C789 C787 1.327 . S
C790 C778 1.349 . S
C790 H784 0.950 . S
C790 C791 1.327 . S
C791 H785 0.950 . S
C791 C790 1.327 . S
C791 C795 1.429 . S
C792 C775 1.574 . S
C792 H786 0.949 . S
C792 C796 1.368 . S
C793 C774 1.429 . S
C793 C787 1.429 . S
C793 C794 1.523 . S
C794 C775 1.368 . S
C794 C788 1.368 . S
C794 C793 1.523 . S
C795 C779 1.429 . S
C795 C791 1.429 . S
C795 C796 1.523 . S
C796 C780 1.368 . S
C796 C792 1.368 . S
C796 C795 1.523 . S
H797 C772 0.950 1_554 S
H798 C774 0.950 . S
H799 C775 0.949 . S
H800 C777 0.950 . S
H801 C779 0.950 . S
C802 C803 1.349 . S
C802 C804 1.327 . S
C802 H827 0.950 . S
C803 C802 1.349 . S
C803 C819 1.349 . S
C804 C802 1.327 . S
C804 C823 1.429 . S
C804 H828 0.950 . S
C805 C822 1.574 . S
C805 C824 1.368 . S
C805 H829 0.949 . S
H806 C810 0.949 . S
C807 C808 1.349 . S
C807 C809 1.327 . S
C807 H830 0.950 . S
C808 C807 1.349 . S
C808 C820 1.349 . S
C809 C807 1.327 . S
C809 C825 1.429 . S
C809 H831 0.950 . S
C810 H806 0.949 . S
C810 C818 1.574 . S
C810 C826 1.368 . S
H811 C819 0.950 . S
H812 C817 0.950 . S
H813 C818 0.949 . S
H814 C820 0.950 . S
H815 C821 0.950 . S
H816 C822 0.949 . S
C817 H812 0.950 . S
C817 C819 1.327 . S
C817 C823 1.429 . S
C818 C810 1.574 . S
C818 H813 0.949 . S
C818 C824 1.368 . S
C819 C803 1.349 . S
C819 H811 0.950 . S
C819 C817 1.327 . S
C820 C808 1.349 . S
C820 H814 0.950 . S
C820 C821 1.327 . S
C821 H815 0.950 . S
C821 C820 1.327 . S
C821 C825 1.429 . S
C822 C805 1.574 . S
C822 H816 0.949 . S
C822 C826 1.368 . S
C823 C804 1.429 . S
C823 C817 1.429 . S
C823 C824 1.523 . S
C824 C805 1.368 . S
C824 C818 1.368 . S
C824 C823 1.523 . S
C825 C809 1.429 . S
C825 C821 1.429 . S
C825 C826 1.523 . S
C826 C810 1.368 . S
C826 C822 1.368 . S
C826 C825 1.523 . S
H827 C802 0.950 . S
H828 C804 0.950 . S
H829 C805 0.949 . S
H830 C807 0.950 . S
H831 C809 0.950 . S
C832 C833 1.349 . S
C832 C834 1.327 . S
C832 H857 0.950 . S
C833 C832 1.349 . S
C833 C849 1.349 1_655 S
C834 C832 1.327 . S
C834 C853 1.429 . S
C834 H858 0.950 . S
C835 C852 1.574 . S
C835 C854 1.368 1_455 S
C835 H859 0.949 . S
H836 C840 0.949 . S
C837 C838 1.349 1_455 S
C837 C839 1.327 . S
C837 H860 0.950 . S
C838 C837 1.349 1_655 S
C838 C850 1.349 . S
C839 C837 1.327 . S
C839 C855 1.429 1_455 S
C839 H861 0.950 . S
C840 H836 0.949 . S
C840 C848 1.574 . S
C840 C856 1.368 . S
H841 C849 0.950 . S
H842 C847 0.950 . S
H843 C848 0.949 . S
H844 C850 0.950 . S
H845 C851 0.950 . S
H846 C852 0.949 . S
C847 H842 0.950 . S
C847 C849 1.327 . S
C847 C853 1.429 1_455 S
C848 C840 1.574 . S
C848 H843 0.949 . S
C848 C854 1.368 . S
C849 C833 1.349 1_455 S
C849 H841 0.950 . S
C849 C847 1.327 . S
C850 C838 1.349 . S
C850 H844 0.950 . S
C850 C851 1.327 . S
C851 H845 0.950 . S
C851 C850 1.327 . S
C851 C855 1.429 . S
C852 C835 1.574 . S
C852 H846 0.949 . S
C852 C856 1.368 1_455 S
C853 C834 1.429 . S
C853 C847 1.429 1_655 S
C853 C854 1.523 . S
C854 C835 1.368 1_655 S
C854 C848 1.368 . S
C854 C853 1.523 . S
C855 C839 1.429 1_655 S
C855 C851 1.429 . S
C855 C856 1.523 . S
C856 C840 1.368 . S
C856 C852 1.368 1_655 S
C856 C855 1.523 . S
H857 C832 0.950 . S
H858 C834 0.950 . S
H859 C835 0.949 . S
H860 C837 0.950 . S
H861 C839 0.950 . S
C862 C863 1.349 . S
C862 C864 1.327 . S
C862 H887 0.950 . S
C863 C862 1.349 . S
C863 C879 1.349 1_565 S
C864 C862 1.327 . S
C864 C883 1.429 . S
C864 H888 0.950 . S
C865 C882 1.574 . S
C865 C884 1.368 1_545 S
C865 H889 0.949 . S
H866 C870 0.949 . S
C867 C868 1.349 1_545 S
C867 C869 1.327 . S
C867 H890 0.950 . S
C868 C867 1.349 1_565 S
C868 C880 1.349 . S
C869 C867 1.327 . S
C869 C885 1.429 1_545 S
C869 H891 0.950 . S
C870 H866 0.949 . S
C870 C878 1.574 . S
C870 C886 1.368 . S
H871 C879 0.950 . S
H872 C877 0.950 . S
H873 C878 0.949 . S
H874 C880 0.950 . S
H875 C881 0.950 . S
H876 C882 0.949 . S
C877 H872 0.950 . S
C877 C879 1.327 . S
C877 C883 1.429 1_545 S
C878 C870 1.574 . S
C878 H873 0.949 . S
C878 C884 1.368 . S
C879 C863 1.349 1_545 S
C879 H871 0.950 . S
C879 C877 1.327 . S
C880 C868 1.349 . S
C880 H874 0.950 . S
C880 C881 1.327 . S
C881 H875 0.950 . S
C881 C880 1.327 . S
C881 C885 1.429 . S
C882 C865 1.574 . S
C882 H876 0.949 . S
C882 C886 1.368 1_545 S
C883 C864 1.429 . S
C883 C877 1.429 1_565 S
C883 C884 1.523 . S
C884 C865 1.368 1_565 S
C884 C878 1.368 . S
C884 C883 1.523 . S
C885 C869 1.429 1_565 S
C885 C881 1.429 . S
C885 C886 1.523 . S
C886 C870 1.368 . S
C886 C882 1.368 1_565 S
C886 C885 1.523 . S
H887 C862 0.950 . S
H888 C864 0.950 . S
H889 C865 0.949 . S
H890 C867 0.950 . S
H891 C869 0.950 . S
C892 C893 1.349 . S
C892 C894 1.327 . S
C892 H917 0.950 . S
C893 C892 1.349 . S
C893 C909 1.349 . S
C894 C892 1.327 . S
C894 C913 1.429 . S
C894 H918 0.950 . S
C895 C912 1.574 . S
C895 C914 1.368 . S
C895 H919 0.949 . S
H896 C900 0.949 . S
C897 C898 1.349 . S
C897 C899 1.327 . S
C897 H920 0.950 . S
C898 C897 1.349 . S
C898 C910 1.349 . S
C899 C897 1.327 . S
C899 C915 1.429 . S
C899 H921 0.950 . S
C900 H896 0.949 . S
C900 C908 1.574 . S
C900 C916 1.368 . S
H901 C909 0.950 . S
H902 C907 0.950 . S
H903 C908 0.949 . S
H904 C910 0.950 . S
H905 C911 0.950 . S
H906 C912 0.949 . S
C907 H902 0.950 . S
C907 C909 1.327 . S
C907 C913 1.429 . S
C908 C900 1.574 . S
C908 H903 0.949 . S
C908 C914 1.368 . S
C909 C893 1.349 . S
C909 H901 0.950 . S
C909 C907 1.327 . S
C910 C898 1.349 . S
C910 H904 0.950 . S
C910 C911 1.327 . S
C911 H905 0.950 . S
C911 C910 1.327 . S
C911 C915 1.429 . S
C912 C895 1.574 . S
C912 H906 0.949 . S
C912 C916 1.368 . S
C913 C894 1.429 . S
C913 C907 1.429 . S
C913 C914 1.523 . S
C914 C895 1.368 . S
C914 C908 1.368 . S
C914 C913 1.523 . S
C915 C899 1.429 . S
C915 C911 1.429 . S
C915 C916 1.523 . S
C916 C900 1.368 . S
C916 C912 1.368 . S
C916 C915 1.523 . S
H917 C892 0.950 . S
H918 C894 0.950 . S
H919 C895 0.949 . S
H920 C897 0.950 . S
H921 C899 0.950 . S
C922 C923 1.349 . S
C922 C924 1.327 . S
C922 H947 0.950 . S
C923 C922 1.349 . S
C923 C939 1.349 . S
C924 C922 1.327 . S
C924 C943 1.429 . S
C924 H948 0.950 . S
C925 C942 1.574 . S
C925 C944 1.368 . S
C925 H949 0.949 . S
H926 C930 0.949 . S
C927 C928 1.349 . S
C927 C929 1.327 . S
C927 H950 0.950 . S
C928 C927 1.349 . S
C928 C940 1.349 . S
C929 C927 1.327 . S
C929 C945 1.429 . S
C929 H951 0.950 . S
C930 H926 0.949 . S
C930 C938 1.574 . S
C930 C946 1.368 . S
H931 C939 0.950 . S
H932 C937 0.950 . S
H933 C938 0.949 . S
H934 C940 0.950 . S
H935 C941 0.950 . S
H936 C942 0.949 . S
C937 H932 0.950 . S
C937 C939 1.327 . S
C937 C943 1.429 . S
C938 C930 1.574 . S
C938 H933 0.949 . S
C938 C944 1.368 . S
C939 C923 1.349 . S
C939 H931 0.950 . S
C939 C937 1.327 . S
C940 C928 1.349 . S
C940 H934 0.950 . S
C940 C941 1.327 . S
C941 H935 0.950 . S
C941 C940 1.327 . S
C941 C945 1.429 . S
C942 C925 1.574 . S
C942 H936 0.949 . S
C942 C946 1.368 . S
C943 C924 1.429 . S
C943 C937 1.429 . S
C943 C944 1.523 . S
C944 C925 1.368 . S
C944 C938 1.368 . S
C944 C943 1.523 . S
C945 C929 1.429 . S
C945 C941 1.429 . S
C945 C946 1.523 . S
C946 C930 1.368 . S
C946 C942 1.368 . S
C946 C945 1.523 . S
H947 C922 0.950 . S
H948 C924 0.950 . S
H949 C925 0.949 . S
H950 C927 0.950 . S
H951 C929 0.950 . S
C233 C61 1.654 1_545 S
C238 C81 1.733 1_545 S
C268 C121 1.745 . S
C263 C70 1.664 . S
C298 C161 1.749 . S
C293 C43 1.665 . S
C328 C201 1.744 1_455 S
C323 C52 1.662 1_455 S
C358 C90 1.740 1_565 S
C353 C25 1.659 . S
C383 C34 1.671 . S
C388 C130 1.749 . S
C413 C7 1.664 . S
C418 C170 1.748 . S
C443 C16 1.661 . S
C448 C210 1.744 1_655 S
C478 C87 0.320 . S
C473 C50 0.258 1_455 S
C508 C127 0.320 . S
C503 C59 0.263 1_545 S
C538 C167 0.319 . S
C533 C67 0.250 . S
C563 C41 0.262 . S
C568 C207 0.317 . S
C593 C14 0.253 . S
C598 C78 0.314 . S
C628 C118 0.320 . S
C623 C23 0.252 . S
C658 C158 0.319 . S
C653 C31 0.259 . S
C683 C5 0.245 . S
C688 C198 0.323 . S
C713 C49 1.816 1_455 S
C718 C91 1.978 . S
C743 C58 1.796 1_545 S
C748 C131 1.962 . S
C778 C171 1.955 . S
C773 C68 1.786 . S
C808 C211 1.972 . S
C803 C40 1.800 . S
C833 C13 1.815 . S
C838 C82 1.991 . S
C868 C122 1.963 . S
C863 C22 1.796 . S
C898 C162 1.955 . S
C893 C32 1.788 . S
C923 C4 1.803 . S
C928 C202 1.976 . S
