# Generated by pormake.
# Topology zzz, (3,6)-cn, num edge types: 1
# Building blocks:
#     Node 0, Type 0, BuildingBlock: BETDIP_clean_linker_0, # of connection points: 3
#     Node 1, Type 0, BuildingBlock: BETDIP_clean_linker_0, # of connection points: 3
#     Node 2, Type 0, BuildingBlock: BETDIP_clean_linker_0, # of connection points: 3
#     Node 3, Type 0, BuildingBlock: BETDIP_clean_linker_0, # of connection points: 3
#     Node 4, Type 0, BuildingBlock: BETDIP_clean_linker_0, # of connection points: 3
#     Node 5, Type 0, BuildingBlock: BETDIP_clean_linker_0, # of connection points: 3
#     Node 6, Type 0, BuildingBlock: BETDIP_clean_linker_0, # of connection points: 3
#     Node 7, Type 0, BuildingBlock: BETDIP_clean_linker_0, # of connection points: 3
#     Node 8, Type 1, BuildingBlock: HISSIN_clean_sbu_0, # of connection points: 6
#     Node 9, Type 1, BuildingBlock: HISSIN_clean_sbu_0, # of connection points: 6
#     Node 10, Type 1, BuildingBlock: HISSIN_clean_sbu_0, # of connection points: 6
#     Node 11, Type 1, BuildingBlock: HISSIN_clean_sbu_0, # of connection points: 6
#     Edge 12, Type (0, 1), BuildingBlock: CIFDUS_clean_linker_0, # of connection points: 2
#     Edge 13, Type (0, 1), BuildingBlock: CIFDUS_clean_linker_0, # of connection points: 2
#     Edge 14, Type (0, 1), BuildingBlock: CIFDUS_clean_linker_0, # of connection points: 2
#     Edge 15, Type (0, 1), BuildingBlock: CIFDUS_clean_linker_0, # of connection points: 2
#     Edge 16, Type (0, 1), BuildingBlock: CIFDUS_clean_linker_0, # of connection points: 2
#     Edge 17, Type (0, 1), BuildingBlock: CIFDUS_clean_linker_0, # of connection points: 2
#     Edge 18, Type (0, 1), BuildingBlock: CIFDUS_clean_linker_0, # of connection points: 2
#     Edge 19, Type (0, 1), BuildingBlock: CIFDUS_clean_linker_0, # of connection points: 2
#     Edge 20, Type (0, 1), BuildingBlock: CIFDUS_clean_linker_0, # of connection points: 2
#     Edge 21, Type (0, 1), BuildingBlock: CIFDUS_clean_linker_0, # of connection points: 2
#     Edge 22, Type (0, 1), BuildingBlock: CIFDUS_clean_linker_0, # of connection points: 2
#     Edge 23, Type (0, 1), BuildingBlock: CIFDUS_clean_linker_0, # of connection points: 2
#     Edge 24, Type (0, 1), BuildingBlock: CIFDUS_clean_linker_0, # of connection points: 2
#     Edge 25, Type (0, 1), BuildingBlock: CIFDUS_clean_linker_0, # of connection points: 2
#     Edge 26, Type (0, 1), BuildingBlock: CIFDUS_clean_linker_0, # of connection points: 2
#     Edge 27, Type (0, 1), BuildingBlock: CIFDUS_clean_linker_0, # of connection points: 2
#     Edge 28, Type (0, 1), BuildingBlock: CIFDUS_clean_linker_0, # of connection points: 2
#     Edge 29, Type (0, 1), BuildingBlock: CIFDUS_clean_linker_0, # of connection points: 2
#     Edge 30, Type (0, 1), BuildingBlock: CIFDUS_clean_linker_0, # of connection points: 2
#     Edge 31, Type (0, 1), BuildingBlock: CIFDUS_clean_linker_0, # of connection points: 2
#     Edge 32, Type (0, 1), BuildingBlock: CIFDUS_clean_linker_0, # of connection points: 2
#     Edge 33, Type (0, 1), BuildingBlock: CIFDUS_clean_linker_0, # of connection points: 2
#     Edge 34, Type (0, 1), BuildingBlock: CIFDUS_clean_linker_0, # of connection points: 2
#     Edge 35, Type (0, 1), BuildingBlock: CIFDUS_clean_linker_0, # of connection points: 2
# Relax obj value: 0.303
# Max RMSD: 0.196
# Mean RMSD: 0.098
data_MOF--net-zzz--node1-HISSIN_clean_sbu_0--node2-BETDIP_clean_linker_0--edge1-CIFDUS_clean_linker_0
_symmetry_space_group_name_H-M    P1
_symmetry_Int_Tables_number       1
_symmetry_cell_setting            triclinic
loop_
_symmetry_equiv_pos_as_xyz
'x, y, z'
_cell_length_a     43.882986
_cell_length_b     43.805081
_cell_length_c     14.260805
_cell_angle_alpha  89.948851
_cell_angle_beta   90.850953
_cell_angle_gamma 90.29271
loop_
_atom_site_label
_atom_site_type_symbol
_atom_site_fract_x
_atom_site_fract_y
_atom_site_fract_z
_atom_type_partial_charge
H0 H 0.78723 0.54181 0.40398 0.0
H1 H 0.7695 0.47921 0.1763 0.0
H2 H 0.84907 0.4682 0.35083 0.0
H3 H 0.76282 0.53407 0.11211 0.0
C4 C 0.74346 0.53469 0.15884 0.0
C5 C 0.79317 0.5215 0.3652 0.0
C6 C 0.81972 0.50491 0.3903 0.0
C7 C 0.77499 0.51229 0.28716 0.0
C8 C 0.78335 0.48634 0.23597 0.0
C9 C 0.80998 0.47031 0.25821 0.0
C10 C 0.82757 0.47947 0.33622 0.0
N11 N 0.74913 0.52956 0.25662 0.0
H12 H 0.04105 0.75785 0.40828 0.0
H13 H 0.96934 0.72818 0.21906 0.0
H14 H 0.96151 0.81284 0.36766 0.0
H15 H 0.98563 0.67824 0.30298 0.0
C16 C 1.0073 0.68299 0.26985 0.0
C17 C 1.01852 0.761 0.37792 0.0
C18 C 1.00219 0.78829 0.39605 0.0
C19 C 1.00571 0.73817 0.31755 0.0
C20 C 0.97779 0.74415 0.27129 0.0
C21 C 0.96286 0.77217 0.28239 0.0
C22 C 0.97349 0.79188 0.35349 0.0
N23 N 0.02236 0.71129 0.29256 0.0
H24 H 0.76314 0.99072 0.34368 0.0
H25 H 0.79317 0.07233 0.20163 0.0
H26 H 0.71366 0.07443 0.37308 0.0
H27 H 0.79499 0.03342 0.08047 0.0
C28 C 0.81191 0.02076 0.12094 0.0
C29 C 0.76066 1.01482 0.32877 0.0
C30 C 0.73679 0.03167 0.3715 0.0
C31 C 0.78096 0.02943 0.26501 0.0
C32 C 0.7773 0.06082 0.24725 0.0
C33 C 0.75295 0.07727 0.28431 0.0
C34 C 0.73333 0.06247 0.34691 0.0
N35 N 0.80438 1.01305 0.21616 0.0
H36 H 0.52754 0.78381 0.44472 0.0
H37 H 0.60344 0.80612 0.26799 0.0
H38 H 0.60119 0.72106 0.41862 0.0
H39 H 0.58936 0.85736 0.33433 0.0
C40 C 0.56715 0.85379 0.30121 0.0
C41 C 0.54987 0.77848 0.4181 0.0
C42 C 0.56376 0.75027 0.4417 0.0
C43 C 0.56484 0.79946 0.35763 0.0
C44 C 0.59294 0.79115 0.31871 0.0
C45 C 0.60578 0.76235 0.33609 0.0
C46 C 0.59192 0.74337 0.40296 0.0
N47 N 0.55022 0.82699 0.3265 0.0
H48 H 0.28585 0.5084 0.07883 0.0
H49 H 0.2968 0.58097 0.28132 0.0
H50 H 0.21924 0.57989 0.09676 0.0
H51 H 0.34631 0.57335 0.25554 0.0
C52 C 0.34705 0.54864 0.26151 0.0
C53 C 0.27837 0.52977 0.1086 0.0
C54 C 0.25081 0.54325 0.07611 0.0
C55 C 0.29622 0.54415 0.17985 0.0
C56 C 0.285 0.57088 0.22175 0.0
C57 C 0.2575 0.58393 0.19176 0.0
C58 C 0.24119 0.57053 0.1173 0.0
N59 N 0.32416 0.53085 0.21365 0.0
H60 H 0.06033 0.25934 0.07048 0.0
H61 H 0.9862 0.29297 0.23589 0.0
H62 H 0.97542 0.21007 0.07841 0.0
H63 H 1.01123 0.34143 0.15764 0.0
C64 C 0.03026 0.33491 0.203 0.0
C65 C 0.03696 0.25754 0.09327 0.0
C66 C 1.01835 0.23275 0.06155 0.0
C67 C 0.02489 0.28027 0.15372 0.0
C68 C 0.99496 0.27681 0.18566 0.0
C69 C 0.97726 0.25127 0.16104 0.0
C70 C 0.98868 0.23028 0.09609 0.0
N71 N 0.04308 0.30517 0.18941 0.0
H72 H 0.27086 0.01968 0.03144 0.0
H73 H 0.24492 0.07704 0.26255 0.0
H74 H 0.33338 0.08672 0.14438 0.0
H75 H 0.23761 1.01768 0.30534 0.0
C76 C 0.21857 0.02156 0.25718 0.0
C77 C 0.27568 0.03868 0.0779 0.0
C78 C 0.30488 0.05342 0.07581 0.0
C79 C 0.25372 0.04736 0.14633 0.0
C80 C 0.26098 0.07108 0.20856 0.0
C81 C 0.2903 0.08339 0.21336 0.0
C82 C 0.31083 0.07654 0.14193 0.0
N83 N 0.22606 0.0305 0.1629 0.0
H84 H 0.50629 0.28161 0.09871 0.0
H85 H 0.58269 0.24974 0.26408 0.0
H86 H 0.58804 0.33533 0.11604 0.0
H87 H 0.55672 0.20077 0.19371 0.0
C88 C 0.53839 0.20803 0.23897 0.0
C89 C 0.52948 0.28457 0.12423 0.0
C90 C 0.54676 0.31034 0.09561 0.0
C91 C 0.54263 0.26241 0.18535 0.0
C92 C 0.57283 0.26654 0.21718 0.0
C93 C 0.58943 0.29305 0.19537 0.0
C94 C 0.57616 0.31437 0.13312 0.0
N95 N 0.52514 0.23738 0.22158 0.0
Eu96 Eu 0.99542 0.03037 0.59189 0.0
Eu97 Eu 0.03056 1.00499 0.77633 0.0
C98 C 1.02048 0.07918 0.75166 0.0
C99 C 0.94 0.0691 0.41862 0.0
C100 C 0.92607 0.08747 0.48591 0.0
C101 C 0.91575 0.0984 0.295 0.0
C102 C 0.90797 0.1121 0.45746 0.0
C103 C 0.93352 0.07373 0.32353 0.0
C104 C 0.90418 0.119 0.36141 0.0
C105 C 0.96319 0.04669 0.44513 0.0
O106 O 0.9797 0.99678 0.79933 0.0
O107 O 0.96214 0.03589 0.71053 0.0
C108 C 0.95819 1.01657 0.77959 0.0
O109 O 0.99377 0.97882 0.57629 0.0
O110 O 0.03253 1.00567 0.9295 0.0
O111 O 0.06074 0.97406 0.85396 0.0
O112 O 0.03029 0.96325 0.6813 0.0
C113 C 1.01205 0.95762 0.60965 0.0
O114 O 0.04419 0.02431 0.54204 0.0
O115 O 0.07005 1.01894 0.6828 0.0
O116 O 0.0323 0.05651 0.80093 0.0
O117 O 0.99036 0.05753 0.46451 0.0
O118 O 0.95483 0.02542 0.50349 0.0
O119 O 1.00628 0.07435 0.67061 0.0
C120 C 0.02921 0.9546 0.97204 0.0
C121 C 1.01172 0.93645 0.91013 0.0
C122 C 1.00363 0.93056 0.10283 0.0
C123 C 0.99046 0.9157 0.9437 0.0
C124 C 0.0249 0.95169 0.06879 0.0
C125 C 0.98619 0.91236 0.04033 0.0
C126 C 0.04715 0.97988 0.9328 0.0
C127 C 0.06995 0.02224 0.59042 0.0
H128 H 0.93054 0.08379 0.56 0.0
H129 H 0.91372 0.10278 0.22046 0.0
H130 H 0.89891 0.12704 0.51057 0.0
H131 H 0.94386 0.05944 0.27086 0.0
H132 H 1.01376 0.93889 0.83508 0.0
H133 H 1.0011 0.92824 0.17789 0.0
H134 H 0.97716 0.90241 0.89367 0.0
H135 H 0.0375 0.96608 0.11763 0.0
Eu136 Eu 0.54414 0.06094 0.84936 0.0
Eu137 Eu 0.51929 1.00756 0.71434 0.0
C138 C 0.5463 0.98919 0.92073 0.0
C139 C 0.59003 0.12793 0.9446 0.0
C140 C 0.61426 0.12085 0.88601 0.0
C141 C 0.62092 0.1675 0.01809 0.0
C142 C 0.64246 0.13503 0.89925 0.0
C143 C 0.5928 0.15261 1.00641 0.0
C144 C 0.64695 0.15682 0.97131 0.0
C145 C 0.56428 0.10663 0.95152 0.0
O146 O 0.47756 0.03279 0.7721 0.0
O147 O 0.49866 0.04745 0.91014 0.0
C148 C 0.4743 0.04025 0.8606 0.0
O149 O 0.52476 0.08603 0.72124 0.0
O150 O 0.4866 0.97012 0.69415 0.0
O151 O 0.51192 0.98678 0.57605 0.0
O152 O 0.53073 0.04712 0.61868 0.0
C153 C 0.52739 0.07633 0.63471 0.0
O154 O 0.58418 0.04966 0.75515 0.0
O155 O 0.57061 1.00304 0.69199 0.0
O156 O 0.53199 0.98014 0.84387 0.0
O157 O 0.54253 0.10927 0.88903 0.0
O158 O 0.57194 0.07825 0.96502 0.0
O159 O 0.55466 1.01791 0.93321 0.0
C160 C 0.45877 0.98804 0.56665 0.0
C161 C 0.45743 0.02 0.57021 0.0
C162 C 0.40463 0.98689 0.53022 0.0
C163 C 0.43018 0.03522 0.5581 0.0
C164 C 0.43213 0.97139 0.54692 0.0
C165 C 0.40339 1.0191 0.53662 0.0
C166 C 0.4867 0.97388 0.60353 0.0
C167 C 0.59093 0.0251 0.70569 0.0
H168 H 0.61225 0.10226 0.83623 0.0
H169 H 0.62266 0.18543 0.07002 0.0
H170 H 0.66118 0.12606 0.85953 0.0
H171 H 0.57395 0.15893 0.05051 0.0
H172 H 0.47733 0.03346 0.58741 0.0
H173 H 0.38449 0.97366 0.51224 0.0
H174 H 0.43028 0.05976 0.56697 0.0
H175 H 0.43247 0.94668 0.54616 0.0
Eu176 Eu 0.52157 0.54292 0.83238 0.0
Eu177 Eu 0.55147 0.51072 0.65406 0.0
C178 C 0.59319 0.53076 0.83016 0.0
C179 C 0.53437 0.59119 0.0286 0.0
C180 C 0.56055 0.59789 0.97655 0.0
C181 C 0.55783 0.61616 0.16315 0.0
C182 C 0.58471 0.61423 0.01611 0.0
C183 C 0.53334 0.59988 0.12292 0.0
C184 C 0.58342 0.62386 0.10929 0.0
C185 C 0.51007 0.57298 0.98346 0.0
O186 O 0.54707 0.47323 0.76519 0.0
O187 O 0.50766 0.49332 0.84775 0.0
C188 C 0.52533 0.47009 0.82749 0.0
O189 O 0.48116 0.54032 0.73214 0.0
O190 O 0.58807 0.51139 0.55178 0.0
O191 O 0.55454 0.47476 0.5498 0.0
O192 O 0.50134 0.51165 0.61231 0.0
C193 C 0.47847 0.52638 0.6503 0.0
O194 O 0.54232 0.58103 0.74361 0.0
O195 O 0.53771 0.5576 0.60241 0.0
O196 O 0.59115 0.5305 0.73841 0.0
O197 O 0.50146 0.58256 0.90052 0.0
O198 O 0.51512 0.54372 0.9841 0.0
O199 O 0.56856 0.52875 0.87971 0.0
C200 C 0.60506 0.46249 0.50617 0.0
C201 C 0.60183 0.43263 0.53974 0.0
C202 C 0.65223 0.44785 0.4312 0.0
C203 C 0.62244 0.41019 0.51428 0.0
C204 C 0.63115 0.47028 0.45547 0.0
C205 C 0.6471 0.41703 0.45499 0.0
C206 C 0.58039 0.48487 0.51722 0.0
C207 C 0.53999 0.58279 0.65181 0.0
H208 H 0.56235 0.59063 0.9046 0.0
H209 H 0.55631 0.62377 0.23507 0.0
H210 H 0.60415 0.61991 0.97334 0.0
H211 H 0.51367 0.59436 0.16483 0.0
H212 H 0.58231 0.42601 0.58088 0.0
H213 H 0.67137 0.45444 0.38854 0.0
H214 H 0.61702 0.38705 0.53482 0.0
H215 H 0.63446 0.49343 0.43057 0.0
Eu216 Eu 0.03987 0.54157 0.66179 0.0
Eu217 Eu 0.03365 0.48215 0.79642 0.0
C218 C 0.09956 0.51548 0.77561 0.0
C219 C 0.07201 0.61054 0.53831 0.0
C220 C 0.09213 0.61778 0.61252 0.0
C221 C 0.10775 0.63181 0.42826 0.0
C222 C 0.12056 0.63079 0.59404 0.0
C223 C 0.07919 0.61938 0.44704 0.0
C224 C 0.12962 0.63576 0.50088 0.0
C225 C 0.04716 0.58855 0.55154 0.0
O226 O 1.01598 0.52271 0.88027 0.0
O227 O 0.04354 0.56031 0.80965 0.0
C228 C 0.0277 0.55055 0.88112 0.0
O229 O 0.98879 0.53625 0.67395 0.0
O230 O 0.03301 0.46012 0.93394 0.0
O231 O 0.02705 0.433 0.80846 0.0
O232 O 0.98723 0.48662 0.72531 0.0
C233 C 0.97367 0.51079 0.68916 0.0
O234 O 0.03096 0.50012 0.56849 0.0
O235 O 0.05371 0.46457 0.66102 0.0
O236 O 0.0819 0.49792 0.82646 0.0
O237 O 0.05388 0.56062 0.52828 0.0
O238 O 0.03253 0.58985 0.63042 0.0
O239 O 0.08891 0.53041 0.70185 0.0
C240 C 0.99884 0.41833 0.94146 0.0
C241 C 0.97578 0.40489 0.88528 0.0
C242 C 0.96833 0.40899 0.07899 0.0
C243 C 0.94877 0.3946 0.92554 0.0
C244 C 0.99529 0.41924 0.03885 0.0
C245 C 0.94442 0.39749 0.02246 0.0
C246 C 0.02548 0.43349 0.89956 0.0
C247 C 0.04287 0.47277 0.57867 0.0
H248 H 0.08694 0.61118 0.6838 0.0
H249 H 0.11354 0.63511 0.35544 0.0
H250 H 0.13636 0.63438 0.65205 0.0
H251 H 0.06388 0.61397 0.38897 0.0
H252 H 0.97791 0.40362 0.80982 0.0
H253 H 0.96536 0.41225 0.15358 0.0
H254 H 0.93066 0.3859 0.88039 0.0
H255 H 1.01274 0.42946 0.08349 0.0
H256 H 0.20596 1.01573 0.44049 0.0
H257 H 0.16108 0.03051 0.17382 0.0
H258 H 0.11148 0.03229 0.25255 0.0
H259 H 0.08066 0.0293 0.39924 0.0
H260 H 0.12744 1.01551 0.66444 0.0
H261 H 0.17606 1.01388 0.58455 0.0
C262 C 0.18533 1.01931 0.39917 0.0
C263 C 0.18746 0.02281 0.30083 0.0
C264 C 0.15702 0.02059 0.4452 0.0
C265 C 0.16036 0.02765 0.24917 0.0
C266 C 0.13192 0.02869 0.29454 0.0
C267 C 0.10147 0.02604 0.43983 0.0
C268 C 0.09989 0.02254 0.53889 0.0
C269 C 0.1299 0.02517 0.39282 0.0
C270 C 0.12744 1.01834 0.589 0.0
C271 C 0.15547 1.01734 0.54307 0.0
H272 H 0.55188 0.14848 0.2565 0.0
H273 H 0.50786 0.22142 0.40348 0.0
H274 H 0.50054 0.18768 0.53959 0.0
H275 H 0.5086 0.1371 0.61967 0.0
H276 H 0.55089 0.06458 0.46403 0.0
H277 H 0.55679 0.0982 0.33015 0.0
C278 C 0.54036 0.15695 0.31798 0.0
C279 C 0.53041 0.18748 0.31936 0.0
C280 C 0.53607 0.13736 0.3954 0.0
C281 C 0.51555 0.19801 0.39981 0.0
C282 C 0.51154 0.17869 0.47805 0.0
C283 C 0.519 0.12866 0.55637 0.0
C284 C 0.52934 0.09807 0.55317 0.0
C285 C 0.52201 0.14829 0.47727 0.0
C286 C 0.54255 0.08773 0.46959 0.0
C287 C 0.54605 0.10705 0.3924 0.0
H288 H 0.36356 0.57458 0.4242 0.0
H289 H 0.38069 0.49539 0.25489 0.0
H290 H 0.42245 0.48043 0.36259 0.0
H291 H 0.45659 0.49253 0.49975 0.0
H292 H 0.43592 0.57059 0.6719 0.0
H293 H 0.39297 0.58304 0.56935 0.0
C294 C 0.37616 0.55376 0.4117 0.0
C295 C 0.36919 0.53617 0.33164 0.0
C296 C 0.39964 0.54519 0.4745 0.0
C297 C 0.38552 0.50919 0.31637 0.0
C298 C 0.40951 0.5008 0.37771 0.0
C299 C 0.44243 0.51201 0.51553 0.0
C300 C 0.44982 0.53066 0.59375 0.0
C301 C 0.41718 0.51896 0.45629 0.0
C302 C 0.43094 0.55569 0.61301 0.0
C303 C 0.40636 0.56299 0.55388 0.0
H304 H 1.01414 0.3936 0.21486 0.0
H305 H 0.066 0.32586 0.36456 0.0
H306 H 0.07523 0.36243 0.49332 0.0
H307 H 0.06628 0.41379 0.56644 0.0
H308 H 1.01496 0.48085 0.4087 0.0
H309 H 1.00799 0.44475 0.28074 0.0
C310 C 0.02777 0.38693 0.27502 0.0
C311 C 0.03936 0.35701 0.27927 0.0
C312 C 0.03296 0.40811 0.34809 0.0
C313 C 0.05694 0.34873 0.3585 0.0
C314 C 0.06206 0.36969 0.43249 0.0
C315 C 0.05378 0.42061 0.50381 0.0
C316 C 0.04112 0.45036 0.49848 0.0
C317 C 0.04989 0.39947 0.42867 0.0
C318 C 0.02505 0.45845 0.41598 0.0
C319 C 1.02095 0.43769 0.34226 0.0
H320 H 0.82714 0.03958 0.94899 0.0
H321 H 0.86424 0.98956 0.1839 0.0
H322 H 0.91228 0.98259 0.09876 0.0
H323 H 0.94437 0.9919 0.95563 0.0
H324 H 0.90536 0.04389 0.72637 0.0
H325 H 0.85794 0.04868 0.81057 0.0
C326 C 0.84567 0.02702 0.98191 0.0
C327 C 0.8418 1.01506 0.073 0.0
C328 C 0.87317 0.02345 0.93292 0.0
C329 C 0.86631 0.99901 0.11409 0.0
C330 C 0.89387 0.99506 0.0651 0.0
C331 C 0.92542 1.0041 0.92389 0.0
C332 C 0.92885 1.01748 0.83367 0.0
C333 C 0.89769 1.00728 0.97415 0.0
C334 C 0.90386 0.03339 0.79497 0.0
C335 C 0.87651 0.03618 0.84333 0.0
H336 H 0.59228 0.90889 0.26623 0.0
H337 H 0.52036 0.84906 0.16879 0.0
H338 H 0.50807 0.885 0.04144 0.0
H339 H 0.5186 0.93351 0.95536 0.0
H340 H 0.5895 0.99369 0.05973 0.0
H341 H 0.60127 0.95775 0.18571 0.0
C342 C 0.57373 0.90379 0.21752 0.0
C343 C 0.55726 0.87625 0.22747 0.0
C344 C 0.56673 0.92468 0.1449 0.0
C345 C 0.53331 0.87008 0.16356 0.0
C346 C 0.52639 0.89064 0.09028 0.0
C347 C 0.53672 0.93871 1.00542 0.0
C348 C 0.55327 0.96642 0.99687 0.0
C349 C 0.5431 0.91797 0.07966 0.0
C350 C 0.57634 0.97275 0.06376 0.0
C351 C 0.58313 0.95213 0.13618 0.0
H352 H 0.73039 0.53715 0.97456 0.0
H353 H 0.68698 0.53435 0.24356 0.0
H354 H 0.63671 0.53376 0.16537 0.0
H355 H 0.60522 0.53254 0.01959 0.0
H356 H 0.64956 0.5341 0.75121 0.0
H357 H 0.69924 0.53668 0.83011 0.0
C358 C 0.7099 0.53657 0.01618 0.0
C359 C 0.71246 0.53583 0.11477 0.0
C360 C 0.68122 0.53585 0.97067 0.0
C361 C 0.68571 0.53498 0.16769 0.0
C362 C 0.65696 0.53457 0.12285 0.0
C363 C 0.62573 0.53344 0.97816 0.0
C364 C 0.62347 0.53296 0.87905 0.0
C365 C 0.65443 0.53474 0.02424 0.0
C366 C 0.65042 0.53434 0.82715 0.0
C367 C 0.67892 0.53582 0.87234 0.0
H368 H 0.98452 0.62661 0.23536 0.0
H369 H 0.05281 0.68958 0.13785 0.0
H370 H 0.0653 0.6543 1.01025 0.0
H371 H 0.05526 0.60602 0.92211 0.0
H372 H 0.98755 0.54294 0.02456 0.0
H373 H 0.97655 0.57757 0.15359 0.0
C374 C 1.00237 0.63253 0.18667 0.0
C375 C 1.01767 0.66084 0.19656 0.0
C376 C 1.00941 0.61206 0.11356 0.0
C377 C 0.04072 0.66802 0.13265 0.0
C378 C 0.04776 0.64782 0.05922 0.0
C379 C 0.03813 0.59976 0.97272 0.0
C380 C 0.02214 0.57169 0.96233 0.0
C381 C 0.03201 0.61987 0.04818 0.0
C382 C 1.00025 0.56415 0.02978 0.0
C383 C 0.99388 0.58406 0.10393 0.0
H384 H 0.92338 0.22511 0.10237 0.0
H385 H 0.97154 0.2565 0.35055 0.0
H386 H 0.94188 0.22229 0.4468 0.0
H387 H 0.91776 0.17243 0.44976 0.0
H388 H 0.8727 0.13712 0.20135 0.0
H389 H 0.88513 0.18393 0.11693 0.0
C390 C 0.92656 0.22521 0.17796 0.0
C391 C 0.95064 0.24228 0.21837 0.0
C392 C 0.91065 0.20399 0.23277 0.0
C393 C 0.95363 0.24324 0.31675 0.0
C394 C 0.93688 0.22327 0.37218 0.0
C395 C 0.90917 0.17533 0.37869 0.0
C396 C 0.89609 0.15044 0.3301 0.0
C397 C 0.91754 0.20169 0.32961 0.0
C398 C 0.88429 0.15536 0.23897 0.0
C399 C 0.89153 0.18209 0.19041 0.0
H400 H 0.27749 0.0579 0.38181 0.0
H401 H 0.33299 0.12815 0.2569 0.0
H402 H 0.37433 0.11638 0.36706 0.0
H403 H 0.39869 0.0749 0.4529 0.0
H404 H 0.34408 1.00257 0.57221 0.0
H405 H 0.29823 0.02581 0.50548 0.0
C406 C 0.298 0.0718 0.38101 0.0
C407 C 0.30318 0.09225 0.30639 0.0
C408 C 0.32231 0.06322 0.43938 0.0
C409 C 0.32911 0.11118 0.31078 0.0
C410 C 0.35298 0.104 0.37254 0.0
C411 C 0.37681 0.06468 0.46837 0.0
C412 C 0.37507 0.03626 0.51475 0.0
C413 C 0.35067 0.0781 0.43004 0.0
C414 C 0.34626 0.02364 0.53304 0.0
C415 C 0.31999 0.03715 0.49605 0.0
H416 H 0.63775 0.32876 0.13942 0.0
H417 H 0.60644 0.27609 0.37616 0.0
H418 H 0.63813 0.30617 0.48053 0.0
H419 H 0.65736 0.35758 0.51052 0.0
H420 H 0.67141 0.41829 0.27623 0.0
H421 H 0.66623 0.37595 0.16874 0.0
C422 C 0.63788 0.32368 0.21382 0.0
C423 C 0.61775 0.30149 0.24951 0.0
C424 C 0.65314 0.34355 0.27573 0.0
C425 C 0.62062 0.29352 0.34518 0.0
C426 C 0.63863 0.31113 0.40606 0.0
C427 C 0.65958 0.36158 0.43589 0.0
C428 C 0.6618 0.3917 0.40185 0.0
C429 C 0.6522 0.33799 0.37317 0.0
C430 C 0.66804 0.39581 0.30583 0.0
C431 C 0.66456 0.37149 0.24328 0.0
H432 H 0.25241 0.58517 0.38002 0.0
H433 H 0.2282 0.63553 0.13013 0.0
H434 H 0.19024 0.66415 0.21747 0.0
H435 H 0.15646 0.66529 0.35307 0.0
H436 H 0.17763 0.60883 0.59398 0.0
H437 H 0.2253 0.59423 0.52492 0.0
C438 C 0.23978 0.6033 0.34547 0.0
C439 C 0.2426 0.60781 0.24842 0.0
C440 C 0.21717 0.61861 0.39494 0.0
C441 C 0.22595 0.6313 0.20458 0.0
C442 C 0.2042 0.64758 0.25443 0.0
C443 C 0.17174 0.65022 0.39128 0.0
C444 C 0.16256 0.63731 0.47695 0.0
C445 C 0.19829 0.63991 0.34798 0.0
C446 C 0.1835 0.61908 0.52753 0.0
C447 C 0.21079 0.61019 0.4873 0.0
H448 H 0.91834 0.81729 0.28621 0.0
H449 H 0.96382 0.75835 0.09173 0.0
H450 H 0.96917 0.8002 0.98298 0.0
H451 H 0.98008 0.85485 0.97381 0.0
H452 H 0.94583 0.91555 0.18543 0.0
H453 H 0.91999 0.87264 0.261 0.0
C454 C 0.92916 0.81352 0.21935 0.0
C455 C 0.94441 0.78574 0.20338 0.0
C456 C 0.93643 0.83881 0.1634 0.0
C457 C 0.95417 0.78006 0.11121 0.0
C458 C 0.95799 0.80434 0.04901 0.0
C459 C 0.96609 0.85899 0.03452 0.0
C460 C 0.96548 0.88819 0.07536 0.0
C461 C 0.95246 0.83416 0.07951 0.0
C462 C 0.94735 0.89306 0.15434 0.0
C463 C 0.93235 0.8686 0.19699 0.0
H464 H 0.76215 0.10007 0.10696 0.0
H465 H 0.72504 0.12511 0.37511 0.0
H466 H 0.69156 0.16171 0.29779 0.0
H467 H 0.66322 0.17252 0.15335 0.0
H468 H 0.70363 0.15243 0.88594 0.0
H469 H 0.74686 0.12904 0.96624 0.0
C470 C 0.74795 0.11437 0.14998 0.0
C471 C 0.74442 0.10794 0.24622 0.0
C472 C 0.72897 0.13577 0.10537 0.0
C473 C 0.72663 0.12791 0.29989 0.0
C474 C 0.70757 0.14908 0.25583 0.0
C475 C 0.68177 0.16435 0.1112 0.0
C476 C 0.67829 0.16115 1.01303 0.0
C477 C 0.70675 0.15107 0.15779 0.0
C478 C 0.70412 0.15249 0.96183 0.0
C479 C 0.72907 0.13919 1.00769 0.0
H480 H 0.64887 0.71712 0.36518 0.0
H481 H 0.61263 0.77463 0.1458 0.0
H482 H 0.61134 0.73183 0.03904 0.0
H483 H 0.59858 0.67735 0.03159 0.0
H484 H 0.61853 0.61949 0.26889 0.0
H485 H 0.64543 0.66172 0.34727 0.0
C486 C 0.64115 0.72034 0.29323 0.0
C487 C 0.62703 0.74803 0.26766 0.0
C488 C 0.63531 0.69457 0.23748 0.0
C489 C 0.6212 0.75301 0.17135 0.0
C490 C 0.6197 0.7282 0.11006 0.0
C491 C 0.60987 0.67376 0.09891 0.0
C492 C 0.6063 0.64576 0.14559 0.0
C493 C 0.62304 0.69861 0.14611 0.0
C494 C 0.62072 0.64116 0.23286 0.0
C495 C 0.63611 0.66525 0.27731 0.0
H496 H 0.84009 0.41741 0.29878 0.0
H497 H 0.80931 0.4733 0.06678 0.0
H498 H 0.84422 0.44757 0.96318 0.0
H499 H 0.89238 0.42059 0.95043 0.0
H500 H 0.92789 0.36971 0.18649 0.0
H501 H 0.8825 0.38195 0.27629 0.0
C502 C 0.84057 0.42344 0.22501 0.0
C503 C 0.82279 0.4479 0.19152 0.0
C504 C 0.86216 0.40991 0.16691 0.0
C505 C 0.82282 0.45474 0.09509 0.0
C506 C 0.84314 0.44027 0.03572 0.0
C507 C 0.8896 0.41103 0.02 0.0
C508 C 0.91363 0.39483 0.06265 0.0
C509 C 0.86429 0.41945 0.07249 0.0
C510 C 0.9098 0.38269 0.15299 0.0
C511 C 0.88396 0.38984 0.20442 0.0
H512 H 0.99442 0.21426 0.89335 0.0
H513 H 0.06432 0.19159 0.0961 0.0
H514 H 0.07217 0.14236 0.01766 0.0
H515 H 0.05539 0.10331 0.89925 0.0
H516 H 0.98605 0.12778 0.69514 0.0
H517 H 0.98193 0.17815 0.76558 0.0
C518 C 1.01205 0.19893 0.91876 0.0
C519 C 0.02904 0.20702 1.00017 0.0
C520 C 1.01616 0.17046 0.8737 0.0
C521 C 0.05136 0.18647 0.03275 0.0
C522 C 0.05553 0.15803 0.98844 0.0
C523 C 0.03961 0.11974 0.86941 0.0
C524 C 1.02092 0.11117 0.79155 0.0
C525 C 0.03749 0.14934 0.91013 0.0
C526 C 1.00082 0.13323 0.75439 0.0
C527 C 0.99835 0.16226 0.79498 0.0
H528 H 0.36197 0.03933 0.13743 0.0
H529 H 0.30944 0.04689 0.88124 0.0
H530 H 0.35657 0.04209 0.79001 0.0
H531 H 0.41437 0.04037 0.78438 0.0
H532 H 0.46458 0.03749 0.04719 0.0
H533 H 0.4173 0.03656 0.13282 0.0
C534 C 0.36059 0.03965 0.0614 0.0
C535 C 0.33178 0.04359 0.01698 0.0
C536 C 0.38787 0.0384 1.00997 0.0
C537 C 0.33092 0.0436 0.91814 0.0
C538 C 0.3581 0.04128 0.86587 0.0
C539 C 0.41495 0.03948 0.86034 0.0
C540 C 0.44365 0.03932 0.9085 0.0
C541 C 0.38698 0.03948 0.91102 0.0
C542 C 0.44341 0.03806 1.00723 0.0
C543 C 0.41615 0.03735 0.05687 0.0
H544 H 0.51509 0.36306 0.12906 0.0
H545 H 0.55782 0.3123 0.90933 0.0
H546 H 0.55463 0.35668 0.80508 0.0
H547 H 0.54433 0.41192 0.78123 0.0
H548 H 0.50002 0.46222 0.99993 0.0
H549 H 0.49909 0.41658 0.0983 0.0
C550 C 0.52258 0.36139 0.05714 0.0
C551 C 0.53594 0.33394 0.02645 0.0
C552 C 0.52102 0.38736 0.99757 0.0
C553 C 0.54662 0.3327 0.934 0.0
C554 C 0.54521 0.35832 0.8747 0.0
C555 C 0.53416 0.41285 0.84998 0.0
C556 C 0.52245 0.44087 0.88271 0.0
C557 C 0.53321 0.3861 0.9064 0.0
C558 C 0.50918 0.44124 0.9721 0.0
C559 C 0.50869 0.41502 0.02889 0.0
H560 H 0.22733 0.56703 0.91434 0.0
H561 H 0.22373 0.48714 0.09005 0.0
H562 H 0.17731 0.46996 1.0075 0.0
H563 H 0.13393 0.48146 0.89986 0.0
H564 H 0.13811 0.56162 0.72402 0.0
H565 H 0.18789 0.57472 0.79145 0.0
C566 C 0.21692 0.54534 0.93242 0.0
C567 C 0.22914 0.52831 1.00814 0.0
C568 C 0.18985 0.53598 0.88581 0.0
C569 C 0.21517 0.50043 0.03132 0.0
C570 C 0.18832 0.49086 0.98491 0.0
C571 C 0.1459 0.50157 0.87522 0.0
C572 C 0.13186 0.52067 0.80739 0.0
C573 C 0.17481 0.50902 0.91438 0.0
C574 C 0.14807 0.54645 0.77598 0.0
C575 C 0.17662 0.55406 0.81486 0.0
H576 H 1.00626 0.84572 0.32875 0.0
H577 H 0.02392 0.79388 0.58013 0.0
H578 H 0.03062 0.84178 0.66919 0.0
H579 H 0.02574 0.89919 0.67786 0.0
H580 H 1.00143 0.9482 0.42495 0.0
H581 H 1.00218 0.90097 0.33582 0.0
C582 C 1.01213 0.84478 0.40292 0.0
C583 C 1.01465 0.81597 0.44726 0.0
C584 C 1.01389 0.87222 0.45427 0.0
C585 C 0.02224 0.81547 0.54346 0.0
C586 C 0.02555 0.84299 0.5947 0.0
C587 C 1.02078 0.89949 0.60318 0.0
C588 C 1.01331 0.92757 0.55874 0.0
C589 C 1.02049 0.87162 0.55146 0.0
C590 C 1.00685 0.92723 0.46179 0.0
C591 C 1.00749 0.90014 0.41024 0.0
H592 H 0.72293 0.05168 0.54597 0.0
H593 H 0.69526 0.98477 0.34073 0.0
H594 H 0.64831 0.97483 0.42833 0.0
H595 H 0.61195 0.98985 0.55542 0.0
H596 H 0.64099 0.05845 0.75534 0.0
H597 H 0.68978 0.06292 0.6784 0.0
C598 C 0.70708 0.0342 0.52175 0.0
C599 C 0.71313 1.01873 0.43699 0.0
C600 C 0.67969 0.02936 0.57103 0.0
C601 C 0.69184 0.99658 0.40638 0.0
C602 C 0.66462 0.99126 0.45603 0.0
C603 C 0.62912 1.00541 0.58312 0.0
C604 C 0.62214 0.02398 0.66161 0.0
C605 C 0.65776 1.00819 0.53726 0.0
C606 C 0.64503 0.04405 0.69515 0.0
C607 C 0.67324 0.04663 0.65105 0.0
H608 H 0.54286 0.69641 0.37482 0.0
H609 H 0.556 0.74598 0.63256 0.0
H610 H 0.54898 0.69855 0.72244 0.0
H611 H 0.54479 0.64147 0.72614 0.0
H612 H 0.53424 0.593 0.46387 0.0
H613 H 0.53459 0.64107 0.37869 0.0
C614 C 0.54298 0.69704 0.4509 0.0
C615 C 0.54916 0.72502 0.49675 0.0
C616 C 0.54035 0.66946 0.5016 0.0
C617 C 0.55036 0.72512 0.59536 0.0
C618 C 0.54694 0.69778 0.64668 0.0
C619 C 0.5425 0.6414 0.65035 0.0
C620 C 0.53984 0.61317 0.60211 0.0
C621 C 0.54292 0.66955 0.60044 0.0
C622 C 0.53666 0.61394 0.50368 0.0
C623 C 0.53679 0.64158 0.45439 0.0
H624 H 0.84426 0.47073 0.53102 0.0
H625 H 0.84738 0.56089 0.41079 0.0
H626 H 0.89437 0.57201 0.50006 0.0
H627 H 0.9384 0.55326 0.59491 0.0
H628 H 0.9352 0.46205 0.70989 0.0
H629 H 0.88477 0.45428 0.64025 0.0
C630 C 0.85478 0.49313 0.52639 0.0
C631 C 0.84224 0.51494 0.46413 0.0
C632 C 0.8823 0.49895 0.57553 0.0
C633 C 0.85623 0.54382 0.45884 0.0
C634 C 0.88341 0.55 0.50894 0.0
C635 C 0.92652 0.53184 0.60607 0.0
C636 C 0.94108 0.50815 0.65698 0.0
C637 C 0.8973 0.52731 0.56479 0.0
C638 C 0.925 0.48065 0.67062 0.0
C639 C 0.896 0.47613 0.63068 0.0
loop_
_geom_bond_atom_site_label_1
_geom_bond_atom_site_label_2
_geom_bond_distance
_geom_bond_site_symmetry_2
_ccdc_geom_bond_type
H0 C5 0.930 . S
H1 C8 0.930 . S
H2 C10 0.930 . S
H3 C4 1.016 . S
C4 H3 1.016 . S
C4 N11 1.286 . S
C5 H0 0.930 . S
C5 C6 1.397 . S
C5 C7 1.361 . S
C6 C5 1.397 . S
C6 C10 1.390 . S
C7 C5 1.361 . S
C7 C8 1.393 . S
C7 N11 1.413 . S
C8 H1 0.930 . S
C8 C7 1.393 . S
C8 C9 1.399 . S
C9 C8 1.399 . S
C9 C10 1.381 . S
C10 H2 0.930 . S
C10 C6 1.390 . S
C10 C9 1.381 . S
N11 C4 1.286 . S
N11 C7 1.413 . S
H12 C17 0.930 . S
H13 C20 0.930 . S
H14 C22 0.930 . S
H15 C16 1.016 . S
C16 H15 1.016 . S
C16 N23 1.286 . S
C17 H12 0.930 . S
C17 C18 1.397 . S
C17 C19 1.361 . S
C18 C17 1.397 . S
C18 C22 1.390 . S
C19 C17 1.361 . S
C19 C20 1.393 . S
C19 N23 1.413 . S
C20 H13 0.930 . S
C20 C19 1.393 . S
C20 C21 1.399 . S
C21 C20 1.399 . S
C21 C22 1.381 . S
C22 H14 0.930 . S
C22 C18 1.390 . S
C22 C21 1.381 . S
N23 C16 1.286 . S
N23 C19 1.413 . S
H24 C29 0.930 . S
H25 C32 0.930 . S
H26 C34 0.930 . S
H27 C28 1.016 . S
C28 H27 1.016 . S
C28 N35 1.286 . S
C29 H24 0.930 . S
C29 C30 1.397 . S
C29 C31 1.361 . S
C30 C29 1.397 . S
C30 C34 1.390 . S
C31 C29 1.361 . S
C31 C32 1.393 . S
C31 N35 1.413 . S
C32 H25 0.930 . S
C32 C31 1.393 . S
C32 C33 1.399 . S
C33 C32 1.399 . S
C33 C34 1.381 . S
C34 H26 0.930 . S
C34 C30 1.390 . S
C34 C33 1.381 . S
N35 C28 1.286 . S
N35 C31 1.413 . S
H36 C41 0.930 . S
H37 C44 0.930 . S
H38 C46 0.930 . S
H39 C40 1.016 . S
C40 H39 1.016 . S
C40 N47 1.286 . S
C41 H36 0.930 . S
C41 C42 1.397 . S
C41 C43 1.361 . S
C42 C41 1.397 . S
C42 C46 1.390 . S
C43 C41 1.361 . S
C43 C44 1.393 . S
C43 N47 1.413 . S
C44 H37 0.930 . S
C44 C43 1.393 . S
C44 C45 1.399 . S
C45 C44 1.399 . S
C45 C46 1.381 . S
C46 H38 0.930 . S
C46 C42 1.390 . S
C46 C45 1.381 . S
N47 C40 1.286 . S
N47 C43 1.413 . S
H48 C53 0.930 1_556 S
H49 C56 0.930 . S
H50 C58 0.930 . S
H51 C52 1.016 . S
C52 H51 1.016 . S
C52 N59 1.286 . S
C53 H48 0.930 1_554 S
C53 C54 1.397 1_554 S
C53 C55 1.361 . S
C54 C53 1.397 1_556 S
C54 C58 1.390 1_556 S
C55 C53 1.361 . S
C55 C56 1.393 . S
C55 N59 1.413 . S
C56 H49 0.930 . S
C56 C55 1.393 . S
C56 C57 1.399 . S
C57 C56 1.399 . S
C57 C58 1.381 . S
C58 H50 0.930 . S
C58 C54 1.390 1_554 S
C58 C57 1.381 . S
N59 C52 1.286 . S
N59 C55 1.413 . S
H60 C65 0.930 . S
H61 C68 0.930 . S
H62 C70 0.930 . S
H63 C64 1.016 . S
C64 H63 1.016 . S
C64 N71 1.286 . S
C65 H60 0.930 . S
C65 C66 1.397 . S
C65 C67 1.361 1_556 S
C66 C65 1.397 . S
C66 C70 1.390 1_556 S
C67 C65 1.361 1_554 S
C67 C68 1.393 . S
C67 N71 1.413 . S
C68 H61 0.930 . S
C68 C67 1.393 . S
C68 C69 1.399 . S
C69 C68 1.399 . S
C69 C70 1.381 . S
C70 H62 0.930 . S
C70 C66 1.390 1_554 S
C70 C69 1.381 . S
N71 C64 1.286 . S
N71 C67 1.413 . S
H72 C77 0.930 . S
H73 C80 0.930 . S
H74 C82 0.932 . S
H75 C76 1.016 . S
C76 H75 1.016 . S
C76 N83 1.286 . S
C77 H72 0.930 . S
C77 C78 1.397 . S
C77 C79 1.361 1_556 S
C78 C77 1.397 . S
C78 C82 1.396 . S
C79 C77 1.361 1_554 S
C79 C80 1.393 . S
C79 N83 1.413 . S
C80 H73 0.930 . S
C80 C79 1.393 . S
C80 C81 1.399 . S
C81 C80 1.399 . S
C81 C82 1.374 1_554 S
C82 H74 0.932 . S
C82 C78 1.396 . S
C82 C81 1.374 1_556 S
N83 C76 1.286 . S
N83 C79 1.413 . S
H84 C89 0.930 . S
H85 C92 0.930 . S
H86 C94 0.930 . S
H87 C88 1.016 . S
C88 H87 1.016 . S
C88 N95 1.286 . S
C89 H84 0.930 . S
C89 C90 1.397 . S
C89 C91 1.361 1_556 S
C90 C89 1.397 . S
C90 C94 1.390 1_556 S
C91 C89 1.361 1_554 S
C91 C92 1.393 . S
C91 N95 1.413 . S
C92 H85 0.930 . S
C92 C91 1.393 . S
C92 C93 1.399 . S
C93 C92 1.399 . S
C93 C94 1.381 . S
C94 H86 0.930 . S
C94 C90 1.390 1_554 S
C94 C93 1.381 . S
N95 C88 1.286 . S
N95 C91 1.413 . S
Eu96 C105 2.828 . S
Eu96 O107 2.392 . S
Eu96 O109 2.418 1_545 S
Eu96 O114 2.373 1_655 S
Eu96 O117 2.488 . S
Eu96 O118 2.471 . S
Eu96 O119 2.349 1_655 S
Eu97 O106 2.373 1_455 S
Eu97 O110 2.488 . S
Eu97 O111 2.471 . S
Eu97 O112 2.349 . S
Eu97 O115 2.392 1_565 S
Eu97 O116 2.418 1_565 S
Eu97 C126 2.828 . S
C98 O116 1.244 . S
C98 O119 1.265 . S
C99 C100 1.379 1_655 S
C99 C103 1.373 . S
C99 C105 1.505 . S
C100 C99 1.379 1_455 S
C100 C102 1.369 . S
C100 H128 0.930 . S
C101 C103 1.383 . S
C101 C104 1.382 1_655 S
C101 H129 0.930 . S
C102 C100 1.369 . S
C102 C104 1.392 . S
C102 H130 0.930 . S
C103 C99 1.373 . S
C103 C101 1.383 . S
C103 H131 0.931 . S
C104 C101 1.382 1_455 S
C104 C102 1.392 . S
C105 Eu96 2.828 . S
C105 C99 1.505 . S
C105 O117 1.249 . S
C105 O118 1.244 . S
O106 Eu97 2.373 1_655 S
O106 C108 1.251 1_565 S
O107 Eu96 2.392 . S
O107 C108 1.254 . S
C108 O106 1.251 1_545 S
C108 O107 1.254 . S
O109 Eu96 2.418 1_565 S
O109 C113 1.244 . S
O110 Eu97 2.488 . S
O110 C126 1.249 . S
O111 Eu97 2.471 . S
O111 C126 1.244 . S
O112 Eu97 2.349 . S
O112 C113 1.265 1_455 S
C113 O109 1.244 . S
C113 O112 1.265 1_655 S
O114 Eu96 2.373 1_455 S
O114 C127 1.258 . S
O115 Eu97 2.392 1_545 S
O115 C127 1.242 . S
O116 Eu97 2.418 1_545 S
O116 C98 1.244 . S
O117 Eu96 2.488 . S
O117 C105 1.249 . S
O118 Eu96 2.471 . S
O118 C105 1.244 . S
O119 Eu96 2.349 1_455 S
O119 C98 1.265 . S
C120 C121 1.379 . S
C120 C124 1.373 . S
C120 C126 1.505 1_554 S
C121 C120 1.379 . S
C121 C123 1.369 . S
C121 H132 0.930 1_454 S
C122 C124 1.383 . S
C122 C125 1.382 . S
C122 H133 0.930 . S
C123 C121 1.369 . S
C123 C125 1.392 . S
C123 H134 0.930 1_455 S
C124 C120 1.373 . S
C124 C122 1.383 . S
C124 H135 0.931 . S
C125 C122 1.382 . S
C125 C123 1.392 . S
C126 Eu97 2.828 . S
C126 O110 1.249 . S
C126 O111 1.244 . S
C126 C120 1.505 1_556 S
C127 O114 1.258 . S
C127 O115 1.242 . S
H128 C100 0.930 . S
H129 C101 0.930 . S
H130 C102 0.930 . S
H131 C103 0.931 . S
H132 C121 0.930 1_656 S
H133 C122 0.930 . S
H134 C123 0.930 1_655 S
H135 C124 0.931 . S
Eu136 C145 2.828 . S
Eu136 O147 2.392 . S
Eu136 O149 2.418 . S
Eu136 O154 2.373 . S
Eu136 O157 2.488 . S
Eu136 O158 2.471 . S
Eu136 O159 2.349 1_545 S
Eu137 O146 2.373 1_565 S
Eu137 O150 2.488 . S
Eu137 O151 2.471 1_565 S
Eu137 O152 2.349 1_565 S
Eu137 O155 2.392 . S
Eu137 O156 2.418 . S
Eu137 C166 2.828 . S
C138 O156 1.244 . S
C138 O159 1.265 . S
C139 C140 1.379 1_556 S
C139 C143 1.373 . S
C139 C145 1.505 . S
C140 C139 1.379 1_554 S
C140 C142 1.369 . S
C140 H168 0.930 1_544 S
C141 C143 1.383 1_554 S
C141 C144 1.382 . S
C141 H169 0.930 . S
C142 C140 1.369 . S
C142 C144 1.392 . S
C142 H170 0.930 1_545 S
C143 C139 1.373 . S
C143 C141 1.383 1_556 S
C143 H171 0.931 . S
C144 C141 1.382 . S
C144 C142 1.392 . S
C145 Eu136 2.828 . S
C145 C139 1.505 . S
C145 O157 1.249 . S
C145 O158 1.244 . S
O146 Eu137 2.373 1_545 S
O146 C148 1.258 . S
O147 Eu136 2.392 . S
O147 C148 1.242 . S
C148 O146 1.258 . S
C148 O147 1.242 . S
O149 Eu136 2.418 . S
O149 C153 1.244 . S
O150 Eu137 2.488 . S
O150 C166 1.249 . S
O151 Eu137 2.471 1_545 S
O151 C166 1.244 1_545 S
O152 Eu137 2.349 1_545 S
O152 C153 1.265 . S
C153 O149 1.244 . S
C153 O152 1.265 . S
O154 Eu136 2.373 . S
O154 C167 1.258 1_545 S
O155 Eu137 2.392 . S
O155 C167 1.242 . S
O156 Eu137 2.418 . S
O156 C138 1.244 . S
O157 Eu136 2.488 . S
O157 C145 1.249 . S
O158 Eu136 2.471 . S
O158 C145 1.244 . S
O159 Eu136 2.349 1_565 S
O159 C138 1.265 . S
C160 C161 1.379 1_565 S
C160 C164 1.373 . S
C160 C166 1.505 . S
C161 C160 1.379 1_545 S
C161 C163 1.369 . S
C161 H172 0.930 . S
C162 C164 1.383 . S
C162 C165 1.382 . S
C162 H173 0.930 . S
C163 C161 1.369 . S
C163 C165 1.392 1_545 S
C163 H174 0.930 . S
C164 C160 1.373 . S
C164 C162 1.383 . S
C164 H175 0.931 . S
C165 C162 1.382 . S
C165 C163 1.392 1_565 S
C166 Eu137 2.828 . S
C166 O150 1.249 . S
C166 O151 1.244 1_565 S
C166 C160 1.505 . S
C167 O154 1.258 1_565 S
C167 O155 1.242 . S
H168 C140 0.930 1_566 S
H169 C141 0.930 . S
H170 C142 0.930 1_565 S
H171 C143 0.931 . S
H172 C161 0.930 . S
H173 C162 0.930 . S
H174 C163 0.930 . S
H175 C164 0.931 . S
Eu176 C185 2.828 . S
Eu176 O187 2.392 . S
Eu176 O189 2.418 . S
Eu176 O194 2.373 . S
Eu176 O197 2.488 . S
Eu176 O198 2.471 . S
Eu176 O199 2.349 . S
Eu177 O186 2.373 . S
Eu177 O190 2.488 . S
Eu177 O191 2.471 . S
Eu177 O192 2.349 . S
Eu177 O195 2.392 . S
Eu177 O196 2.418 . S
Eu177 C206 2.828 . S
C178 O196 1.244 . S
C178 O199 1.265 . S
C179 C180 1.379 . S
C179 C183 1.373 . S
C179 C185 1.505 . S
C180 C179 1.379 . S
C180 C182 1.369 1_556 S
C180 H208 0.930 . S
C181 C183 1.383 1_554 S
C181 C184 1.382 . S
C181 H209 0.930 . S
C182 C180 1.369 1_554 S
C182 C184 1.392 . S
C182 H210 0.930 . S
C183 C179 1.373 . S
C183 C181 1.383 1_556 S
C183 H211 0.931 . S
C184 C181 1.382 . S
C184 C182 1.392 . S
C185 Eu176 2.828 . S
C185 C179 1.505 . S
C185 O197 1.249 . S
C185 O198 1.244 . S
O186 Eu177 2.373 . S
O186 C188 1.258 . S
O187 Eu176 2.392 . S
O187 C188 1.242 . S
C188 O186 1.258 . S
C188 O187 1.242 . S
O189 Eu176 2.418 . S
O189 C193 1.244 . S
O190 Eu177 2.488 . S
O190 C206 1.249 . S
O191 Eu177 2.471 . S
O191 C206 1.244 . S
O192 Eu177 2.349 . S
O192 C193 1.265 . S
C193 O189 1.244 . S
C193 O192 1.265 . S
O194 Eu176 2.373 . S
O194 C207 1.258 . S
O195 Eu177 2.392 . S
O195 C207 1.242 . S
O196 Eu177 2.418 . S
O196 C178 1.244 . S
O197 Eu176 2.488 . S
O197 C185 1.249 . S
O198 Eu176 2.471 . S
O198 C185 1.244 . S
O199 Eu176 2.349 . S
O199 C178 1.265 . S
C200 C201 1.379 . S
C200 C204 1.373 . S
C200 C206 1.505 . S
C201 C200 1.379 . S
C201 C203 1.369 . S
C201 H212 0.930 . S
C202 C204 1.383 . S
C202 C205 1.382 . S
C202 H213 0.930 . S
C203 C201 1.369 . S
C203 C205 1.392 . S
C203 H214 0.930 . S
C204 C200 1.373 . S
C204 C202 1.383 . S
C204 H215 0.931 . S
C205 C202 1.382 . S
C205 C203 1.392 . S
C206 Eu177 2.828 . S
C206 O190 1.249 . S
C206 O191 1.244 . S
C206 C200 1.505 . S
C207 O194 1.258 . S
C207 O195 1.242 . S
H208 C180 0.930 . S
H209 C181 0.930 . S
H210 C182 0.930 . S
H211 C183 0.931 . S
H212 C201 0.930 . S
H213 C202 0.930 . S
H214 C203 0.930 . S
H215 C204 0.931 . S
Eu216 C225 2.828 . S
Eu216 O227 2.392 . S
Eu216 O229 2.418 1_455 S
Eu216 O234 2.373 . S
Eu216 O237 2.488 . S
Eu216 O238 2.471 . S
Eu216 O239 2.349 . S
Eu217 O226 2.373 . S
Eu217 O230 2.488 . S
Eu217 O231 2.471 . S
Eu217 O232 2.349 . S
Eu217 O235 2.392 1_655 S
Eu217 O236 2.418 1_655 S
Eu217 C246 2.828 . S
C218 O236 1.244 . S
C218 O239 1.265 . S
C219 C220 1.379 . S
C219 C223 1.373 . S
C219 C225 1.505 . S
C220 C219 1.379 . S
C220 C222 1.369 . S
C220 H248 0.930 . S
C221 C223 1.383 . S
C221 C224 1.382 . S
C221 H249 0.930 . S
C222 C220 1.369 . S
C222 C224 1.392 . S
C222 H250 0.930 . S
C223 C219 1.373 . S
C223 C221 1.383 . S
C223 H251 0.931 . S
C224 C221 1.382 . S
C224 C222 1.392 . S
C225 Eu216 2.828 . S
C225 C219 1.505 . S
C225 O237 1.249 . S
C225 O238 1.244 . S
O226 Eu217 2.373 . S
O226 C228 1.260 . S
O227 Eu216 2.392 . S
O227 C228 1.237 1_455 S
C228 O226 1.260 . S
C228 O227 1.237 1_655 S
O229 Eu216 2.418 1_655 S
O229 C233 1.244 . S
O230 Eu217 2.488 . S
O230 C246 1.249 . S
O231 Eu217 2.471 . S
O231 C246 1.244 . S
O232 Eu217 2.349 . S
O232 C233 1.265 . S
C233 O229 1.244 . S
C233 O232 1.265 . S
O234 Eu216 2.373 . S
O234 C247 1.258 . S
O235 Eu217 2.392 1_455 S
O235 C247 1.242 . S
O236 Eu217 2.418 1_455 S
O236 C218 1.244 . S
O237 Eu216 2.488 . S
O237 C225 1.249 . S
O238 Eu216 2.471 . S
O238 C225 1.244 . S
O239 Eu216 2.349 . S
O239 C218 1.265 . S
C240 C241 1.379 . S
C240 C244 1.373 . S
C240 C246 1.505 1_554 S
C241 C240 1.379 . S
C241 C243 1.369 . S
C241 H252 0.930 1_554 S
C242 C244 1.383 . S
C242 C245 1.382 . S
C242 H253 0.930 . S
C243 C241 1.369 . S
C243 C245 1.392 . S
C243 H254 0.930 . S
C244 C240 1.373 . S
C244 C242 1.383 . S
C244 H255 0.931 . S
C245 C242 1.382 . S
C245 C243 1.392 . S
C246 Eu217 2.828 . S
C246 O230 1.249 . S
C246 O231 1.244 . S
C246 C240 1.505 1_556 S
C247 O234 1.258 . S
C247 O235 1.242 . S
H248 C220 0.930 . S
H249 C221 0.930 . S
H250 C222 0.930 . S
H251 C223 0.931 . S
H252 C241 0.930 1_556 S
H253 C242 0.930 . S
H254 C243 0.930 . S
H255 C244 0.931 . S
H256 C262 0.930 . S
H257 C265 0.930 . S
H258 C266 0.930 . S
H259 C267 0.930 . S
H260 C270 0.930 . S
H261 C271 0.930 . S
C262 H256 0.930 . S
C262 C263 1.355 . S
C262 C264 1.415 . S
C263 C262 1.355 . S
C263 C265 1.419 . S
C264 C262 1.415 . S
C264 C269 1.425 . S
C264 C271 1.409 . S
C265 H257 0.930 . S
C265 C263 1.419 . S
C265 C266 1.362 . S
C266 H258 0.930 . S
C266 C265 1.362 . S
C266 C269 1.409 . S
C267 H259 0.930 . S
C267 C268 1.355 . S
C267 C269 1.415 . S
C268 C267 1.355 . S
C268 C270 1.419 . S
C269 C264 1.425 . S
C269 C266 1.409 . S
C269 C267 1.415 . S
C270 H260 0.930 . S
C270 C268 1.419 . S
C270 C271 1.362 . S
C271 H261 0.930 . S
C271 C264 1.409 . S
C271 C270 1.362 . S
H272 C278 0.930 . S
H273 C281 0.930 . S
H274 C282 0.930 . S
H275 C283 0.930 . S
H276 C286 0.930 . S
H277 C287 0.930 . S
C278 H272 0.930 . S
C278 C279 1.355 . S
C278 C280 1.415 . S
C279 C278 1.355 . S
C279 C281 1.419 . S
C280 C278 1.415 . S
C280 C285 1.425 . S
C280 C287 1.409 . S
C281 H273 0.930 . S
C281 C279 1.419 . S
C281 C282 1.362 . S
C282 H274 0.930 . S
C282 C281 1.362 . S
C282 C285 1.409 . S
C283 H275 0.930 . S
C283 C284 1.355 . S
C283 C285 1.415 . S
C284 C283 1.355 . S
C284 C286 1.419 . S
C285 C280 1.425 . S
C285 C282 1.409 . S
C285 C283 1.415 . S
C286 H276 0.930 . S
C286 C284 1.419 . S
C286 C287 1.362 . S
C287 H277 0.930 . S
C287 C280 1.409 . S
C287 C286 1.362 . S
H288 C294 0.930 . S
H289 C297 0.930 . S
H290 C298 0.930 . S
H291 C299 0.930 . S
H292 C302 0.930 . S
H293 C303 0.930 . S
C294 H288 0.930 . S
C294 C295 1.355 . S
C294 C296 1.415 . S
C295 C294 1.355 . S
C295 C297 1.419 . S
C296 C294 1.415 . S
C296 C301 1.425 . S
C296 C303 1.409 . S
C297 H289 0.930 . S
C297 C295 1.419 . S
C297 C298 1.362 . S
C298 H290 0.930 . S
C298 C297 1.362 . S
C298 C301 1.409 . S
C299 H291 0.930 . S
C299 C300 1.355 . S
C299 C301 1.415 . S
C300 C299 1.355 . S
C300 C302 1.419 . S
C301 C296 1.425 . S
C301 C298 1.409 . S
C301 C299 1.415 . S
C302 H292 0.930 . S
C302 C300 1.419 . S
C302 C303 1.362 . S
C303 H293 0.930 . S
C303 C296 1.409 . S
C303 C302 1.362 . S
H304 C310 0.930 . S
H305 C313 0.930 . S
H306 C314 0.930 . S
H307 C315 0.930 . S
H308 C318 0.930 . S
H309 C319 0.930 . S
C310 H304 0.930 . S
C310 C311 1.355 . S
C310 C312 1.415 . S
C311 C310 1.355 . S
C311 C313 1.419 . S
C312 C310 1.415 . S
C312 C317 1.425 . S
C312 C319 1.409 . S
C313 H305 0.930 . S
C313 C311 1.419 . S
C313 C314 1.362 . S
C314 H306 0.930 . S
C314 C313 1.362 . S
C314 C317 1.409 . S
C315 H307 0.930 . S
C315 C316 1.355 . S
C315 C317 1.415 . S
C316 C315 1.355 . S
C316 C318 1.419 . S
C317 C312 1.425 . S
C317 C314 1.409 . S
C317 C315 1.415 . S
C318 H308 0.930 . S
C318 C316 1.419 . S
C318 C319 1.362 . S
C319 H309 0.930 . S
C319 C312 1.409 . S
C319 C318 1.362 . S
H320 C326 0.930 . S
H321 C329 0.930 . S
H322 C330 0.930 . S
H323 C331 0.930 . S
H324 C334 0.930 . S
H325 C335 0.930 . S
C326 H320 0.930 . S
C326 C327 1.355 . S
C326 C328 1.415 . S
C327 C326 1.355 . S
C327 C329 1.419 . S
C328 C326 1.415 . S
C328 C333 1.425 . S
C328 C335 1.409 1_565 S
C329 H321 0.930 . S
C329 C327 1.419 . S
C329 C330 1.362 . S
C330 H322 0.930 . S
C330 C329 1.362 . S
C330 C333 1.409 . S
C331 H323 0.930 . S
C331 C332 1.355 1_554 S
C331 C333 1.415 . S
C332 C331 1.355 1_556 S
C332 C334 1.419 1_565 S
C333 C328 1.425 . S
C333 C330 1.409 . S
C333 C331 1.415 . S
C334 H324 0.930 . S
C334 C332 1.419 1_545 S
C334 C335 1.362 1_556 S
C335 H325 0.930 . S
C335 C328 1.409 1_545 S
C335 C334 1.362 1_554 S
H336 C342 0.930 . S
H337 C345 0.930 . S
H338 C346 0.930 . S
H339 C347 0.930 . S
H340 C350 0.930 . S
H341 C351 0.930 . S
C342 H336 0.930 . S
C342 C343 1.355 . S
C342 C344 1.415 . S
C343 C342 1.355 . S
C343 C345 1.419 . S
C344 C342 1.415 . S
C344 C349 1.425 . S
C344 C351 1.409 . S
C345 H337 0.930 . S
C345 C343 1.419 . S
C345 C346 1.362 . S
C346 H338 0.930 . S
C346 C345 1.362 . S
C346 C349 1.409 . S
C347 H339 0.930 . S
C347 C348 1.355 . S
C347 C349 1.415 1_556 S
C348 C347 1.355 . S
C348 C350 1.419 . S
C349 C344 1.425 . S
C349 C346 1.409 . S
C349 C347 1.415 1_554 S
C350 H340 0.930 . S
C350 C348 1.419 . S
C350 C351 1.362 1_556 S
C351 H341 0.930 . S
C351 C344 1.409 . S
C351 C350 1.362 1_554 S
H352 C358 0.930 . S
H353 C361 0.930 . S
H354 C362 0.930 . S
H355 C363 0.930 . S
H356 C366 0.930 . S
H357 C367 0.930 . S
C358 H352 0.930 . S
C358 C359 1.355 . S
C358 C360 1.415 . S
C359 C358 1.355 . S
C359 C361 1.419 . S
C360 C358 1.415 . S
C360 C365 1.425 . S
C360 C367 1.409 1_554 S
C361 H353 0.930 . S
C361 C359 1.419 . S
C361 C362 1.362 . S
C362 H354 0.930 . S
C362 C361 1.362 . S
C362 C365 1.409 . S
C363 H355 0.930 . S
C363 C364 1.355 . S
C363 C365 1.415 1_556 S
C364 C363 1.355 . S
C364 C366 1.419 . S
C365 C360 1.425 . S
C365 C362 1.409 . S
C365 C363 1.415 1_554 S
C366 H356 0.930 . S
C366 C364 1.419 . S
C366 C367 1.362 . S
C367 H357 0.930 . S
C367 C360 1.409 1_556 S
C367 C366 1.362 . S
H368 C374 0.930 . S
H369 C377 0.930 . S
H370 C378 0.930 . S
H371 C379 0.930 . S
H372 C382 0.930 . S
H373 C383 0.930 1_556 S
C374 H368 0.930 . S
C374 C375 1.355 . S
C374 C376 1.415 . S
C375 C374 1.355 . S
C375 C377 1.419 1_655 S
C376 C374 1.415 . S
C376 C381 1.425 . S
C376 C383 1.409 . S
C377 H369 0.930 . S
C377 C375 1.419 1_455 S
C377 C378 1.362 . S
C378 H370 0.930 . S
C378 C377 1.362 . S
C378 C381 1.409 1_455 S
C379 H371 0.930 . S
C379 C380 1.355 1_454 S
C379 C381 1.415 1_455 S
C380 C379 1.355 1_656 S
C380 C382 1.419 . S
C381 C376 1.425 . S
C381 C378 1.409 1_655 S
C381 C379 1.415 1_655 S
C382 H372 0.930 . S
C382 C380 1.419 . S
C382 C383 1.362 1_556 S
C383 H373 0.930 1_554 S
C383 C376 1.409 . S
C383 C382 1.362 1_554 S
H384 C390 0.930 . S
H385 C393 0.930 . S
H386 C394 0.930 . S
H387 C395 0.930 . S
H388 C398 0.930 . S
H389 C399 0.930 . S
C390 H384 0.930 . S
C390 C391 1.355 . S
C390 C392 1.415 . S
C391 C390 1.355 . S
C391 C393 1.419 . S
C392 C390 1.415 . S
C392 C397 1.425 . S
C392 C399 1.409 1_455 S
C393 H385 0.930 . S
C393 C391 1.419 . S
C393 C394 1.362 . S
C394 H386 0.930 . S
C394 C393 1.362 . S
C394 C397 1.409 . S
C395 H387 0.930 . S
C395 C396 1.355 . S
C395 C397 1.415 . S
C396 C395 1.355 . S
C396 C398 1.419 1_455 S
C397 C392 1.425 . S
C397 C394 1.409 . S
C397 C395 1.415 . S
C398 H388 0.930 . S
C398 C396 1.419 1_655 S
C398 C399 1.362 . S
C399 H389 0.930 . S
C399 C392 1.409 1_655 S
C399 C398 1.362 . S
H400 C406 0.930 . S
H401 C409 0.930 . S
H402 C410 0.930 . S
H403 C411 0.930 . S
H404 C414 0.930 . S
H405 C415 0.930 . S
C406 H400 0.930 . S
C406 C407 1.355 . S
C406 C408 1.415 . S
C407 C406 1.355 . S
C407 C409 1.419 . S
C408 C406 1.415 . S
C408 C413 1.425 . S
C408 C415 1.409 1_545 S
C409 H401 0.930 . S
C409 C407 1.419 . S
C409 C410 1.362 . S
C410 H402 0.930 . S
C410 C409 1.362 . S
C410 C413 1.409 . S
C411 H403 0.930 . S
C411 C412 1.355 1_545 S
C411 C413 1.415 . S
C412 C411 1.355 1_565 S
C412 C414 1.419 . S
C413 C408 1.425 . S
C413 C410 1.409 . S
C413 C411 1.415 . S
C414 H404 0.930 . S
C414 C412 1.419 . S
C414 C415 1.362 . S
C415 H405 0.930 . S
C415 C408 1.409 1_565 S
C415 C414 1.362 . S
H416 C422 0.930 . S
H417 C425 0.930 . S
H418 C426 0.930 . S
H419 C427 0.930 . S
H420 C430 0.930 . S
H421 C431 0.930 . S
C422 H416 0.930 . S
C422 C423 1.355 . S
C422 C424 1.415 . S
C423 C422 1.355 . S
C423 C425 1.419 . S
C424 C422 1.415 . S
C424 C429 1.425 . S
C424 C431 1.409 . S
C425 H417 0.930 . S
C425 C423 1.419 . S
C425 C426 1.362 . S
C426 H418 0.930 . S
C426 C425 1.362 . S
C426 C429 1.409 . S
C427 H419 0.930 . S
C427 C428 1.355 . S
C427 C429 1.415 . S
C428 C427 1.355 . S
C428 C430 1.419 . S
C429 C424 1.425 . S
C429 C426 1.409 . S
C429 C427 1.415 . S
C430 H420 0.930 . S
C430 C428 1.419 . S
C430 C431 1.362 . S
C431 H421 0.930 . S
C431 C424 1.409 . S
C431 C430 1.362 . S
H432 C438 0.930 . S
H433 C441 0.930 . S
H434 C442 0.930 . S
H435 C443 0.930 . S
H436 C446 0.930 . S
H437 C447 0.930 . S
C438 H432 0.930 . S
C438 C439 1.355 . S
C438 C440 1.415 . S
C439 C438 1.355 . S
C439 C441 1.419 . S
C440 C438 1.415 . S
C440 C445 1.425 . S
C440 C447 1.409 . S
C441 H433 0.930 . S
C441 C439 1.419 . S
C441 C442 1.362 . S
C442 H434 0.930 . S
C442 C441 1.362 . S
C442 C445 1.409 . S
C443 H435 0.930 . S
C443 C444 1.355 . S
C443 C445 1.415 . S
C444 C443 1.355 . S
C444 C446 1.419 . S
C445 C440 1.425 . S
C445 C442 1.409 . S
C445 C443 1.415 . S
C446 H436 0.930 . S
C446 C444 1.419 . S
C446 C447 1.362 . S
C447 H437 0.930 . S
C447 C440 1.409 . S
C447 C446 1.362 . S
H448 C454 0.930 . S
H449 C457 0.930 . S
H450 C458 0.930 . S
H451 C459 0.930 . S
H452 C462 0.930 . S
H453 C463 0.930 . S
C454 H448 0.930 . S
C454 C455 1.355 . S
C454 C456 1.415 . S
C455 C454 1.355 . S
C455 C457 1.419 1_655 S
C456 C454 1.415 . S
C456 C461 1.425 1_655 S
C456 C463 1.409 . S
C457 H449 0.930 . S
C457 C455 1.419 1_455 S
C457 C458 1.362 . S
C458 H450 0.930 . S
C458 C457 1.362 . S
C458 C461 1.409 . S
C459 H451 0.930 . S
C459 C460 1.355 . S
C459 C461 1.415 . S
C460 C459 1.355 . S
C460 C462 1.419 1_455 S
C461 C456 1.425 1_455 S
C461 C458 1.409 . S
C461 C459 1.415 . S
C462 H452 0.930 . S
C462 C460 1.419 1_655 S
C462 C463 1.362 . S
C463 H453 0.930 . S
C463 C456 1.409 . S
C463 C462 1.362 . S
H464 C470 0.930 . S
H465 C473 0.930 . S
H466 C474 0.930 . S
H467 C475 0.930 . S
H468 C478 0.930 1_556 S
H469 C479 0.930 . S
C470 H464 0.930 . S
C470 C471 1.355 . S
C470 C472 1.415 . S
C471 C470 1.355 . S
C471 C473 1.419 1_565 S
C472 C470 1.415 . S
C472 C477 1.425 1_565 S
C472 C479 1.409 . S
C473 H465 0.930 . S
C473 C471 1.419 1_545 S
C473 C474 1.362 . S
C474 H466 0.930 . S
C474 C473 1.362 . S
C474 C477 1.409 . S
C475 H467 0.930 . S
C475 C476 1.355 . S
C475 C477 1.415 . S
C476 C475 1.355 . S
C476 C478 1.419 . S
C477 C472 1.425 1_545 S
C477 C474 1.409 . S
C477 C475 1.415 . S
C478 H468 0.930 1_554 S
C478 C476 1.419 . S
C478 C479 1.362 1_545 S
C479 H469 0.930 . S
C479 C472 1.409 . S
C479 C478 1.362 1_565 S
H480 C486 0.930 . S
H481 C489 0.930 . S
H482 C490 0.930 . S
H483 C491 0.930 . S
H484 C494 0.930 . S
H485 C495 0.930 . S
C486 H480 0.930 . S
C486 C487 1.355 . S
C486 C488 1.415 . S
C487 C486 1.355 . S
C487 C489 1.419 . S
C488 C486 1.415 . S
C488 C493 1.425 . S
C488 C495 1.409 . S
C489 H481 0.930 . S
C489 C487 1.419 . S
C489 C490 1.362 . S
C490 H482 0.930 . S
C490 C489 1.362 . S
C490 C493 1.409 . S
C491 H483 0.930 . S
C491 C492 1.355 . S
C491 C493 1.415 . S
C492 C491 1.355 . S
C492 C494 1.419 . S
C493 C488 1.425 . S
C493 C490 1.409 . S
C493 C491 1.415 . S
C494 H484 0.930 . S
C494 C492 1.419 . S
C494 C495 1.362 . S
C495 H485 0.930 . S
C495 C488 1.409 . S
C495 C494 1.362 . S
H496 C502 0.930 . S
H497 C505 0.930 . S
H498 C506 0.930 . S
H499 C507 0.930 . S
H500 C510 0.930 . S
H501 C511 0.930 . S
C502 H496 0.930 . S
C502 C503 1.355 . S
C502 C504 1.415 . S
C503 C502 1.355 . S
C503 C505 1.419 . S
C504 C502 1.415 . S
C504 C509 1.425 . S
C504 C511 1.409 . S
C505 H497 0.930 . S
C505 C503 1.419 . S
C505 C506 1.362 . S
C506 H498 0.930 . S
C506 C505 1.362 . S
C506 C509 1.409 . S
C507 H499 0.930 . S
C507 C508 1.355 . S
C507 C509 1.415 . S
C508 C507 1.355 . S
C508 C510 1.419 . S
C509 C504 1.425 . S
C509 C506 1.409 . S
C509 C507 1.415 . S
C510 H500 0.930 . S
C510 C508 1.419 . S
C510 C511 1.362 . S
C511 H501 0.930 . S
C511 C504 1.409 . S
C511 C510 1.362 . S
H512 C518 0.930 . S
H513 C521 0.930 1_554 S
H514 C522 0.930 1_554 S
H515 C523 0.930 . S
H516 C526 0.948 . S
H517 C527 0.951 . S
C518 H512 0.930 . S
C518 C519 1.355 . S
C518 C520 1.415 . S
C519 C518 1.355 . S
C519 C521 1.419 . S
C520 C518 1.415 . S
C520 C525 1.425 . S
C520 C527 1.409 . S
C521 H513 0.930 1_556 S
C521 C519 1.419 . S
C521 C522 1.362 . S
C522 H514 0.930 1_556 S
C522 C521 1.362 . S
C522 C525 1.409 . S
C523 H515 0.930 . S
C523 C524 1.355 . S
C523 C525 1.415 . S
C524 C523 1.355 . S
C524 C526 1.419 . S
C525 C520 1.425 . S
C525 C522 1.409 . S
C525 C523 1.415 . S
C526 H516 0.948 . S
C526 C524 1.419 . S
C526 C527 1.362 . S
C527 H517 0.951 . S
C527 C520 1.409 . S
C527 C526 1.362 . S
H528 C534 0.930 . S
H529 C537 0.930 . S
H530 C538 0.930 . S
H531 C539 0.930 . S
H532 C542 0.930 . S
H533 C543 0.945 . S
C534 H528 0.930 . S
C534 C535 1.355 . S
C534 C536 1.415 . S
C535 C534 1.355 . S
C535 C537 1.419 . S
C536 C534 1.415 . S
C536 C541 1.425 . S
C536 C543 1.409 . S
C537 H529 0.930 . S
C537 C535 1.419 . S
C537 C538 1.362 . S
C538 H530 0.930 . S
C538 C537 1.362 . S
C538 C541 1.409 . S
C539 H531 0.930 . S
C539 C540 1.355 . S
C539 C541 1.415 . S
C540 C539 1.355 . S
C540 C542 1.419 . S
C541 C536 1.425 . S
C541 C538 1.409 . S
C541 C539 1.415 . S
C542 H532 0.930 . S
C542 C540 1.419 . S
C542 C543 1.362 . S
C543 H533 0.945 . S
C543 C536 1.409 . S
C543 C542 1.362 . S
H544 C550 0.930 . S
H545 C553 0.930 1_554 S
H546 C554 0.930 . S
H547 C555 0.930 . S
H548 C558 0.930 . S
H549 C559 0.930 . S
C550 H544 0.930 . S
C550 C551 1.355 . S
C550 C552 1.415 . S
C551 C550 1.355 . S
C551 C553 1.419 . S
C552 C550 1.415 . S
C552 C557 1.425 . S
C552 C559 1.409 . S
C553 H545 0.930 1_556 S
C553 C551 1.419 . S
C553 C554 1.362 . S
C554 H546 0.930 . S
C554 C553 1.362 . S
C554 C557 1.409 . S
C555 H547 0.930 . S
C555 C556 1.355 . S
C555 C557 1.415 . S
C556 C555 1.355 . S
C556 C558 1.419 . S
C557 C552 1.425 . S
C557 C554 1.409 . S
C557 C555 1.415 . S
C558 H548 0.930 . S
C558 C556 1.419 . S
C558 C559 1.362 . S
C559 H549 0.930 . S
C559 C552 1.409 . S
C559 C558 1.362 . S
H560 C566 0.930 . S
H561 C569 0.930 . S
H562 C570 0.930 . S
H563 C571 0.930 . S
H564 C574 0.930 . S
H565 C575 0.930 . S
C566 H560 0.930 . S
C566 C567 1.355 . S
C566 C568 1.415 . S
C567 C566 1.355 . S
C567 C569 1.419 1_556 S
C568 C566 1.415 . S
C568 C573 1.425 . S
C568 C575 1.409 . S
C569 H561 0.930 . S
C569 C567 1.419 1_554 S
C569 C570 1.362 . S
C570 H562 0.930 . S
C570 C569 1.362 . S
C570 C573 1.409 1_554 S
C571 H563 0.930 . S
C571 C572 1.355 . S
C571 C573 1.415 . S
C572 C571 1.355 . S
C572 C574 1.419 . S
C573 C568 1.425 . S
C573 C570 1.409 1_556 S
C573 C571 1.415 . S
C574 H564 0.930 . S
C574 C572 1.419 . S
C574 C575 1.362 . S
C575 H565 0.930 . S
C575 C568 1.409 . S
C575 C574 1.362 . S
H576 C582 0.930 1_455 S
H577 C585 0.930 . S
H578 C586 0.930 . S
H579 C587 0.930 . S
H580 C590 0.930 . S
H581 C591 0.930 . S
C582 H576 0.930 1_655 S
C582 C583 1.355 . S
C582 C584 1.415 . S
C583 C582 1.355 . S
C583 C585 1.419 . S
C584 C582 1.415 . S
C584 C589 1.425 . S
C584 C591 1.409 1_655 S
C585 H577 0.930 . S
C585 C583 1.419 . S
C585 C586 1.362 . S
C586 H578 0.930 . S
C586 C585 1.362 . S
C586 C589 1.409 . S
C587 H579 0.930 . S
C587 C588 1.355 . S
C587 C589 1.415 . S
C588 C587 1.355 . S
C588 C590 1.419 1_655 S
C589 C584 1.425 . S
C589 C586 1.409 . S
C589 C587 1.415 . S
C590 H580 0.930 . S
C590 C588 1.419 1_455 S
C590 C591 1.362 . S
C591 H581 0.930 . S
C591 C584 1.409 1_455 S
C591 C590 1.362 . S
H592 C598 0.930 . S
H593 C601 0.930 . S
H594 C602 0.930 . S
H595 C603 0.930 . S
H596 C606 0.930 . S
H597 C607 0.930 . S
C598 H592 0.930 . S
C598 C599 1.355 1_545 S
C598 C600 1.415 1_545 S
C599 C598 1.355 1_565 S
C599 C601 1.419 . S
C600 C598 1.415 1_565 S
C600 C605 1.425 . S
C600 C607 1.409 1_565 S
C601 H593 0.930 . S
C601 C599 1.419 . S
C601 C602 1.362 . S
C602 H594 0.930 . S
C602 C601 1.362 . S
C602 C605 1.409 . S
C603 H595 0.930 . S
C603 C604 1.355 . S
C603 C605 1.415 . S
C604 C603 1.355 . S
C604 C606 1.419 1_565 S
C605 C600 1.425 . S
C605 C602 1.409 . S
C605 C603 1.415 . S
C606 H596 0.930 . S
C606 C604 1.419 1_545 S
C606 C607 1.362 . S
C607 H597 0.930 . S
C607 C600 1.409 1_545 S
C607 C606 1.362 . S
H608 C614 0.930 . S
H609 C617 0.930 . S
H610 C618 0.930 . S
H611 C619 0.930 . S
H612 C622 0.930 . S
H613 C623 0.930 . S
C614 H608 0.930 . S
C614 C615 1.355 . S
C614 C616 1.415 . S
C615 C614 1.355 . S
C615 C617 1.419 . S
C616 C614 1.415 . S
C616 C621 1.425 . S
C616 C623 1.409 . S
C617 H609 0.930 . S
C617 C615 1.419 . S
C617 C618 1.362 . S
C618 H610 0.930 . S
C618 C617 1.362 . S
C618 C621 1.409 . S
C619 H611 0.930 . S
C619 C620 1.355 . S
C619 C621 1.415 . S
C620 C619 1.355 . S
C620 C622 1.419 . S
C621 C616 1.425 . S
C621 C618 1.409 . S
C621 C619 1.415 . S
C622 H612 0.930 . S
C622 C620 1.419 . S
C622 C623 1.362 . S
C623 H613 0.930 . S
C623 C616 1.409 . S
C623 C622 1.362 . S
H624 C630 0.930 . S
H625 C633 0.930 . S
H626 C634 0.930 . S
H627 C635 0.930 . S
H628 C638 0.930 . S
H629 C639 0.930 . S
C630 H624 0.930 . S
C630 C631 1.355 . S
C630 C632 1.415 . S
C631 C630 1.355 . S
C631 C633 1.419 . S
C632 C630 1.415 . S
C632 C637 1.425 . S
C632 C639 1.409 . S
C633 H625 0.930 . S
C633 C631 1.419 . S
C633 C634 1.362 . S
C634 H626 0.930 . S
C634 C633 1.362 . S
C634 C637 1.409 . S
C635 H627 0.930 . S
C635 C636 1.355 . S
C635 C637 1.415 . S
C636 C635 1.355 . S
C636 C638 1.419 . S
C637 C632 1.425 . S
C637 C634 1.409 . S
C637 C635 1.415 . S
C638 H628 0.930 . S
C638 C636 1.419 . S
C638 C639 1.362 . S
C639 H629 0.930 . S
C639 C632 1.409 . S
C639 C638 1.362 . S
C263 C76 2.183 . S
C268 C127 2.397 . S
C284 C153 2.000 . S
C279 C88 1.767 . S
C300 C193 2.047 . S
C295 C52 1.803 . S
C316 C247 2.390 . S
C311 C64 2.173 . S
C332 C108 2.389 1_565 S
C327 C28 2.187 . S
C343 C40 1.781 . S
C348 C138 2.024 . S
C359 C4 1.889 . S
C364 C178 2.050 . S
C375 C16 2.230 . S
C380 C228 2.415 . S
C396 C104 0.674 . S
C391 C69 0.698 . S
C412 C165 0.819 . S
C407 C81 0.781 . S
C428 C205 0.626 . S
C423 C93 0.657 . S
C439 C57 0.652 . S
C444 C224 0.635 . S
C455 C21 0.664 . S
C460 C125 0.674 . S
C476 C144 0.734 . S
C471 C33 0.687 . S
C492 C184 0.561 . S
C487 C45 0.630 . S
C503 C9 0.579 . S
C508 C245 0.528 . S
C519 C66 1.939 . S
C524 C98 2.239 . S
C535 C78 2.424 . S
C540 C148 2.638 . S
C556 C188 2.454 . S
C551 C90 2.213 . S
C572 C218 2.016 . S
C567 C54 1.742 . S
C583 C18 2.011 . S
C588 C113 2.245 . S
C604 C167 2.635 . S
C599 C30 2.408 . S
C620 C207 2.451 . S
C615 C42 2.273 . S
C631 C6 1.799 . S
C636 C233 2.027 . S
