# Generated by pormake.
# Topology eea, (3,6)-cn, num edge types: 1
# Building blocks:
#     Node 0, Type 0, BuildingBlock: KAKCAD_clean_linker_0, # of connection points: 3
#     Node 1, Type 0, BuildingBlock: KAKCAD_clean_linker_0, # of connection points: 3
#     Node 2, Type 0, BuildingBlock: KAKCAD_clean_linker_0, # of connection points: 3
#     Node 3, Type 0, BuildingBlock: KAKCAD_clean_linker_0, # of connection points: 3
#     Node 4, Type 0, BuildingBlock: KAKCAD_clean_linker_0, # of connection points: 3
#     Node 5, Type 0, BuildingBlock: KAKCAD_clean_linker_0, # of connection points: 3
#     Node 6, Type 0, BuildingBlock: KAKCAD_clean_linker_0, # of connection points: 3
#     Node 7, Type 0, BuildingBlock: KAKCAD_clean_linker_0, # of connection points: 3
#     Node 8, Type 0, BuildingBlock: KAKCAD_clean_linker_0, # of connection points: 3
#     Node 9, Type 0, BuildingBlock: KAKCAD_clean_linker_0, # of connection points: 3
#     Node 10, Type 0, BuildingBlock: KAKCAD_clean_linker_0, # of connection points: 3
#     Node 11, Type 0, BuildingBlock: KAKCAD_clean_linker_0, # of connection points: 3
#     Node 12, Type 0, BuildingBlock: KAKCAD_clean_linker_0, # of connection points: 3
#     Node 13, Type 0, BuildingBlock: KAKCAD_clean_linker_0, # of connection points: 3
#     Node 14, Type 0, BuildingBlock: KAKCAD_clean_linker_0, # of connection points: 3
#     Node 15, Type 0, BuildingBlock: KAKCAD_clean_linker_0, # of connection points: 3
#     Node 16, Type 0, BuildingBlock: KAKCAD_clean_linker_0, # of connection points: 3
#     Node 17, Type 0, BuildingBlock: KAKCAD_clean_linker_0, # of connection points: 3
#     Node 18, Type 1, BuildingBlock: HISSIN_clean_sbu_0, # of connection points: 6
#     Node 19, Type 1, BuildingBlock: HISSIN_clean_sbu_0, # of connection points: 6
#     Node 20, Type 1, BuildingBlock: HISSIN_clean_sbu_0, # of connection points: 6
#     Node 21, Type 1, BuildingBlock: HISSIN_clean_sbu_0, # of connection points: 6
#     Node 22, Type 1, BuildingBlock: HISSIN_clean_sbu_0, # of connection points: 6
#     Node 23, Type 1, BuildingBlock: HISSIN_clean_sbu_0, # of connection points: 6
#     Node 24, Type 1, BuildingBlock: HISSIN_clean_sbu_0, # of connection points: 6
#     Node 25, Type 1, BuildingBlock: HISSIN_clean_sbu_0, # of connection points: 6
#     Node 26, Type 1, BuildingBlock: HISSIN_clean_sbu_0, # of connection points: 6
#     Edge 27, Type (0, 1), BuildingBlock: EZIPEK_clean_linker_0, # of connection points: 2
#     Edge 28, Type (0, 1), BuildingBlock: EZIPEK_clean_linker_0, # of connection points: 2
#     Edge 29, Type (0, 1), BuildingBlock: EZIPEK_clean_linker_0, # of connection points: 2
#     Edge 30, Type (0, 1), BuildingBlock: EZIPEK_clean_linker_0, # of connection points: 2
#     Edge 31, Type (0, 1), BuildingBlock: EZIPEK_clean_linker_0, # of connection points: 2
#     Edge 32, Type (0, 1), BuildingBlock: EZIPEK_clean_linker_0, # of connection points: 2
#     Edge 33, Type (0, 1), BuildingBlock: EZIPEK_clean_linker_0, # of connection points: 2
#     Edge 34, Type (0, 1), BuildingBlock: EZIPEK_clean_linker_0, # of connection points: 2
#     Edge 35, Type (0, 1), BuildingBlock: EZIPEK_clean_linker_0, # of connection points: 2
#     Edge 36, Type (0, 1), BuildingBlock: EZIPEK_clean_linker_0, # of connection points: 2
#     Edge 37, Type (0, 1), BuildingBlock: EZIPEK_clean_linker_0, # of connection points: 2
#     Edge 38, Type (0, 1), BuildingBlock: EZIPEK_clean_linker_0, # of connection points: 2
#     Edge 39, Type (0, 1), BuildingBlock: EZIPEK_clean_linker_0, # of connection points: 2
#     Edge 40, Type (0, 1), BuildingBlock: EZIPEK_clean_linker_0, # of connection points: 2
#     Edge 41, Type (0, 1), BuildingBlock: EZIPEK_clean_linker_0, # of connection points: 2
#     Edge 42, Type (0, 1), BuildingBlock: EZIPEK_clean_linker_0, # of connection points: 2
#     Edge 43, Type (0, 1), BuildingBlock: EZIPEK_clean_linker_0, # of connection points: 2
#     Edge 44, Type (0, 1), BuildingBlock: EZIPEK_clean_linker_0, # of connection points: 2
#     Edge 45, Type (0, 1), BuildingBlock: EZIPEK_clean_linker_0, # of connection points: 2
#     Edge 46, Type (0, 1), BuildingBlock: EZIPEK_clean_linker_0, # of connection points: 2
#     Edge 47, Type (0, 1), BuildingBlock: EZIPEK_clean_linker_0, # of connection points: 2
#     Edge 48, Type (0, 1), BuildingBlock: EZIPEK_clean_linker_0, # of connection points: 2
#     Edge 49, Type (0, 1), BuildingBlock: EZIPEK_clean_linker_0, # of connection points: 2
#     Edge 50, Type (0, 1), BuildingBlock: EZIPEK_clean_linker_0, # of connection points: 2
#     Edge 51, Type (0, 1), BuildingBlock: EZIPEK_clean_linker_0, # of connection points: 2
#     Edge 52, Type (0, 1), BuildingBlock: EZIPEK_clean_linker_0, # of connection points: 2
#     Edge 53, Type (0, 1), BuildingBlock: EZIPEK_clean_linker_0, # of connection points: 2
#     Edge 54, Type (0, 1), BuildingBlock: EZIPEK_clean_linker_0, # of connection points: 2
#     Edge 55, Type (0, 1), BuildingBlock: EZIPEK_clean_linker_0, # of connection points: 2
#     Edge 56, Type (0, 1), BuildingBlock: EZIPEK_clean_linker_0, # of connection points: 2
#     Edge 57, Type (0, 1), BuildingBlock: EZIPEK_clean_linker_0, # of connection points: 2
#     Edge 58, Type (0, 1), BuildingBlock: EZIPEK_clean_linker_0, # of connection points: 2
#     Edge 59, Type (0, 1), BuildingBlock: EZIPEK_clean_linker_0, # of connection points: 2
#     Edge 60, Type (0, 1), BuildingBlock: EZIPEK_clean_linker_0, # of connection points: 2
#     Edge 61, Type (0, 1), BuildingBlock: EZIPEK_clean_linker_0, # of connection points: 2
#     Edge 62, Type (0, 1), BuildingBlock: EZIPEK_clean_linker_0, # of connection points: 2
#     Edge 63, Type (0, 1), BuildingBlock: EZIPEK_clean_linker_0, # of connection points: 2
#     Edge 64, Type (0, 1), BuildingBlock: EZIPEK_clean_linker_0, # of connection points: 2
#     Edge 65, Type (0, 1), BuildingBlock: EZIPEK_clean_linker_0, # of connection points: 2
#     Edge 66, Type (0, 1), BuildingBlock: EZIPEK_clean_linker_0, # of connection points: 2
#     Edge 67, Type (0, 1), BuildingBlock: EZIPEK_clean_linker_0, # of connection points: 2
#     Edge 68, Type (0, 1), BuildingBlock: EZIPEK_clean_linker_0, # of connection points: 2
#     Edge 69, Type (0, 1), BuildingBlock: EZIPEK_clean_linker_0, # of connection points: 2
#     Edge 70, Type (0, 1), BuildingBlock: EZIPEK_clean_linker_0, # of connection points: 2
#     Edge 71, Type (0, 1), BuildingBlock: EZIPEK_clean_linker_0, # of connection points: 2
#     Edge 72, Type (0, 1), BuildingBlock: EZIPEK_clean_linker_0, # of connection points: 2
#     Edge 73, Type (0, 1), BuildingBlock: EZIPEK_clean_linker_0, # of connection points: 2
#     Edge 74, Type (0, 1), BuildingBlock: EZIPEK_clean_linker_0, # of connection points: 2
#     Edge 75, Type (0, 1), BuildingBlock: EZIPEK_clean_linker_0, # of connection points: 2
#     Edge 76, Type (0, 1), BuildingBlock: EZIPEK_clean_linker_0, # of connection points: 2
#     Edge 77, Type (0, 1), BuildingBlock: EZIPEK_clean_linker_0, # of connection points: 2
#     Edge 78, Type (0, 1), BuildingBlock: EZIPEK_clean_linker_0, # of connection points: 2
#     Edge 79, Type (0, 1), BuildingBlock: EZIPEK_clean_linker_0, # of connection points: 2
#     Edge 80, Type (0, 1), BuildingBlock: EZIPEK_clean_linker_0, # of connection points: 2
# Relax obj value: 0.034
# Max RMSD: 0.132
# Mean RMSD: 0.087
data_MOF--net-eea--node1-HISSIN_clean_sbu_0--node2-KAKCAD_clean_linker_0--edge1-EZIPEK_clean_linker_0
_symmetry_space_group_name_H-M    P1
_symmetry_Int_Tables_number       1
_symmetry_cell_setting            triclinic
loop_
_symmetry_equiv_pos_as_xyz
'x, y, z'
_cell_length_a     48.71991
_cell_length_b     48.830607
_cell_length_c     74.030375
_cell_angle_alpha  93.605474
_cell_angle_beta   93.124016
_cell_angle_gamma 119.96611
loop_
_atom_site_label
_atom_site_type_symbol
_atom_site_fract_x
_atom_site_fract_y
_atom_site_fract_z
_atom_type_partial_charge
C0 C 0.29211 0.18848 0.49027 0.0
C1 C 0.31355 0.18127 0.49907 0.0
C2 C 0.28343 0.18022 0.47161 0.0
C3 C 0.29645 0.16501 0.46134 0.0
C4 C 0.31842 0.15836 0.47023 0.0
C5 C 0.3268 0.16631 0.48897 0.0
C6 C 0.28648 0.15553 0.44154 0.0
C7 C 0.28053 0.175 0.43072 0.0
C8 C 0.26893 0.16526 0.41229 0.0
C9 C 0.26463 0.13631 0.40447 0.0
C10 C 0.27071 0.1167 0.41501 0.0
C11 C 0.28142 0.12629 0.43353 0.0
C12 C 0.26354 0.08515 0.40687 0.0
C13 C 0.24377 0.05777 0.41516 0.0
C14 C 0.27483 0.08206 0.39024 0.0
C15 C 0.26597 0.052 0.38186 0.0
C16 C 0.24533 0.02471 0.38988 0.0
C17 C 0.2591 0.18417 0.4016 0.0
C18 C 0.24212 0.19734 0.4095 0.0
C19 C 0.26549 0.18824 0.38334 0.0
C20 C 0.25511 0.20518 0.37323 0.0
C21 C 0.23818 0.21818 0.38125 0.0
C22 C 0.23182 0.21425 0.39942 0.0
C23 C 0.23456 0.02772 0.40665 0.0
H24 H 0.28169 0.20002 0.49793 0.0
H25 H 0.26602 0.18519 0.46532 0.0
H26 H 0.32926 0.14712 0.46272 0.0
H27 H 0.34356 0.16079 0.4956 0.0
H28 H 0.28477 0.1978 0.43666 0.0
H29 H 0.28515 0.11061 0.44174 0.0
H30 H 0.25491 0.12815 0.39038 0.0
H31 H 0.23453 0.05957 0.42789 0.0
H32 H 0.29019 0.10289 0.38365 0.0
H33 H 0.27443 0.04994 0.36889 0.0
H34 H 0.23629 0.19413 0.42341 0.0
H35 H 0.2787 0.17854 0.37693 0.0
H36 H 0.21855 0.00678 0.41294 0.0
H37 H 0.21878 0.22424 0.40576 0.0
H38 H 0.26035 0.20829 0.35922 0.0
C39 C 0.88936 0.18814 0.48863 0.0
C40 C 0.87764 0.16547 0.50118 0.0
C41 C 0.89524 0.18008 0.47133 0.0
C42 C 0.88945 0.14921 0.46635 0.0
C43 C 0.87869 0.12699 0.47927 0.0
C44 C 0.87274 0.13502 0.49646 0.0
C45 C 0.89306 0.13942 0.44755 0.0
C46 C 0.91902 0.15961 0.4382 0.0
C47 C 0.92231 0.1497 0.42054 0.0
C48 C 0.89948 0.11916 0.41249 0.0
C49 C 0.87297 0.09905 0.42135 0.0
C50 C 0.86996 0.10947 0.43884 0.0
C51 C 0.8484 0.06728 0.41223 0.0
C52 C 0.83979 0.06311 0.39337 0.0
C53 C 0.83346 0.04085 0.42223 0.0
C54 C 0.8106 0.01106 0.41357 0.0
C55 C 0.80258 0.00704 0.39472 0.0
C56 C 0.94937 0.17081 0.41028 0.0
C57 C 0.98029 0.19024 0.41908 0.0
C58 C 0.94451 0.17087 0.39133 0.0
C59 C 0.96994 0.1892 0.3814 0.0
C60 C 1.00067 0.20828 0.39023 0.0
C61 C 0.0057 0.20889 0.40913 0.0
C62 C 0.81731 0.03325 0.38469 0.0
H63 H 0.8932 0.21176 0.49208 0.0
H64 H 0.90329 0.19767 0.46168 0.0
H65 H 0.87455 0.1032 0.47601 0.0
H66 H 0.86384 0.1173 0.50603 0.0
H67 H 0.93659 0.18295 0.44466 0.0
H68 H 0.84914 0.09449 0.44559 0.0
H69 H 0.90266 0.11074 0.39932 0.0
H70 H 0.85025 0.08297 0.38527 0.0
H71 H 0.83977 0.04302 0.43672 0.0
H72 H 0.79946 0.99102 0.42151 0.0
H73 H 0.98502 0.19055 0.43358 0.0
H74 H 0.92097 0.15677 0.38412 0.0
H75 H 0.81129 0.03058 0.37014 0.0
H76 H 0.02936 0.22356 0.41614 0.0
H77 H 0.96563 0.18868 0.36684 0.0
C78 C 0.89932 0.74094 0.49658 0.0
C79 C 0.86996 0.71398 0.49876 0.0
C80 C 0.9058 0.75253 0.47952 0.0
C81 C 0.88282 0.73765 0.46442 0.0
C82 C 0.85372 0.71032 0.4666 0.0
C83 C 0.84744 0.69851 0.48356 0.0
C84 C 0.88821 0.75163 0.44674 0.0
C85 C 0.91672 0.76078 0.43864 0.0
C86 C 0.92151 0.77406 0.42189 0.0
C87 C 0.89798 0.77937 0.41383 0.0
C88 C 0.86948 0.77009 0.42162 0.0
C89 C 0.86452 0.75593 0.43791 0.0
C90 C 0.84476 0.77491 0.41241 0.0
C91 C 0.85103 0.80573 0.41002 0.0
C92 C 0.81543 0.7487 0.40519 0.0
C93 C 0.79291 0.75324 0.39536 0.0
C94 C 0.79912 0.78409 0.393 0.0
C95 C 0.95026 0.78151 0.41227 0.0
C96 C 0.98071 0.79502 0.4218 0.0
C97 C 0.94731 0.77552 0.39318 0.0
C98 C 0.97402 0.78343 0.38384 0.0
C99 C 0.00432 0.79716 0.39334 0.0
C100 C 0.00751 0.80274 0.4124 0.0
C101 C 0.82823 0.8103 0.40058 0.0
H102 H 0.91698 0.75329 0.50814 0.0
H103 H 0.92831 0.77375 0.47828 0.0
H104 H 0.83566 0.69821 0.4552 0.0
H105 H 0.8247 0.67764 0.48492 0.0
H106 H 0.93457 0.75652 0.44508 0.0
H107 H 0.84251 0.74907 0.44397 0.0
H108 H 0.90155 0.7904 0.40125 0.0
H109 H 0.87357 0.82623 0.41547 0.0
H110 H 0.8103 0.72473 0.40677 0.0
H111 H 0.77065 0.73272 0.38957 0.0
H112 H 0.98393 0.80015 0.43645 0.0
H113 H 0.92423 0.76447 0.38538 0.0
H114 H 0.83344 0.83428 0.39895 0.0
H115 H 0.03075 0.81322 0.41997 0.0
H116 H 0.97103 0.77869 0.36916 0.0
C117 C 0.14798 0.26108 0.521 0.0
C118 C 0.14406 0.28684 0.51734 0.0
C119 C 0.14172 0.24887 0.53786 0.0
C120 C 0.13131 0.26209 0.55143 0.0
C121 C 0.12672 0.28746 0.54755 0.0
C122 C 0.13315 0.2998 0.53068 0.0
C123 C 0.12626 0.24997 0.56969 0.0
C124 C 0.14831 0.24306 0.57825 0.0
C125 C 0.14388 0.23114 0.59532 0.0
C126 C 0.11682 0.226 0.60378 0.0
C127 C 0.09437 0.23254 0.59552 0.0
C128 C 0.09945 0.24492 0.57855 0.0
C129 C 0.06549 0.22579 0.6047 0.0
C130 C 0.04821 0.19695 0.61236 0.0
C131 C 0.05551 0.24828 0.60639 0.0
C132 C 0.02916 0.24221 0.61581 0.0
C133 C 0.01214 0.21342 0.62348 0.0
C134 C 0.16732 0.22388 0.60432 0.0
C135 C 0.20028 0.24412 0.60375 0.0
C136 C 0.15688 0.1967 0.61372 0.0
C137 C 0.17878 0.19003 0.62238 0.0
C138 C 0.21153 0.21028 0.62175 0.0
C139 C 0.22217 0.23732 0.61236 0.0
C140 C 0.02173 0.19078 0.62159 0.0
H141 H 0.15624 0.25067 0.51086 0.0
H142 H 0.14504 0.22902 0.54026 0.0
H143 H 0.11895 0.29833 0.55772 0.0
H144 H 0.13004 0.31972 0.52812 0.0
H145 H 0.169 0.24691 0.57156 0.0
H146 H 0.082 0.24959 0.57197 0.0
H147 H 0.11347 0.21743 0.6171 0.0
H148 H 0.0551 0.17902 0.61113 0.0
H149 H 0.06846 0.27077 0.60074 0.0
H150 H 0.02194 0.25988 0.61707 0.0
H151 H 0.2092 0.26545 0.59686 0.0
H152 H 0.13172 0.18032 0.61421 0.0
H153 H 0.00874 0.16836 0.6273 0.0
H154 H 0.24742 0.25318 0.61175 0.0
H155 H 0.1702 0.16892 0.62947 0.0
C156 C 0.68181 0.80852 0.53016 0.0
C157 C 0.69629 0.83172 0.51816 0.0
C158 C 0.69335 0.81512 0.54856 0.0
C159 C 0.7194 0.84508 0.55517 0.0
C160 C 0.73424 0.86793 0.54295 0.0
C161 C 0.72276 0.86129 0.5246 0.0
C162 C 0.73037 0.85303 0.57486 0.0
C163 C 0.73427 0.83155 0.58494 0.0
C164 C 0.74531 0.83956 0.6035 0.0
C165 C 0.75155 0.86886 0.61201 0.0
C166 C 0.74817 0.89073 0.60213 0.0
C167 C 0.73745 0.88257 0.58355 0.0
C168 C 0.75704 0.92248 0.61114 0.0
C169 C 0.78389 0.93866 0.62402 0.0
C170 C 0.73925 0.93711 0.60681 0.0
C171 C 0.74841 0.96741 0.61498 0.0
C172 C 0.77526 0.98334 0.62775 0.0
C173 C 0.75141 0.81815 0.61418 0.0
C174 C 0.72989 0.7854 0.61268 0.0
C175 C 0.77916 0.83069 0.62613 0.0
C176 C 0.78421 0.81137 0.63726 0.0
C177 C 0.76104 0.77894 0.63752 0.0
C178 C 0.73501 0.76598 0.62384 0.0
C179 C 0.79275 0.96869 0.63233 0.0
H180 H 0.66128 0.78559 0.52534 0.0
H181 H 0.68135 0.79717 0.55769 0.0
H182 H 0.75466 0.89103 0.54761 0.0
H183 H 0.73421 0.87937 0.51545 0.0
H184 H 0.72981 0.80915 0.5782 0.0
H185 H 0.73488 0.89935 0.57576 0.0
H186 H 0.75899 0.87457 0.62647 0.0
H187 H 0.79851 0.92844 0.62743 0.0
H188 H 0.71822 0.92514 0.59714 0.0
H189 H 0.73472 0.97851 0.6113 0.0
H190 H 0.70887 0.77477 0.603 0.0
H191 H 0.79725 0.85558 0.62678 0.0
H192 H 0.81368 0.98084 0.64209 0.0
H193 H 0.71848 0.74087 0.62113 0.0
H194 H 0.80688 0.82233 0.64539 0.0
C195 C 0.08617 0.812 0.51699 0.0
C196 C 0.11587 0.8203 0.5109 0.0
C197 C 0.08404 0.82062 0.53501 0.0
C198 C 0.11154 0.83734 0.54742 0.0
C199 C 0.14118 0.84482 0.5413 0.0
C200 C 0.14332 0.83657 0.5232 0.0
C201 C 0.10951 0.84792 0.56643 0.0
C202 C 0.0832 0.82904 0.57596 0.0
C203 C 0.0809 0.83957 0.59368 0.0
C204 C 0.10513 0.86933 0.60183 0.0
C205 C 0.13146 0.88823 0.59258 0.0
C206 C 0.13365 0.87751 0.57502 0.0
C207 C 0.15647 0.91965 0.60117 0.0
C208 C 0.14947 0.94392 0.6048 0.0
C209 C 0.18731 0.9254 0.60591 0.0
C210 C 0.21076 0.95497 0.61452 0.0
C211 C 0.20382 0.97933 0.6181 0.0
C212 C 0.05302 0.81968 0.60359 0.0
C213 C 0.02212 0.80605 0.59502 0.0
C214 C 0.05692 0.81543 0.62191 0.0
C215 C 0.03054 0.7961 0.63102 0.0
C216 C 0.99936 0.77899 0.62192 0.0
C217 C 0.9958 0.78712 0.60422 0.0
C218 C 0.17309 0.9737 0.61302 0.0
H219 H 0.06471 0.79935 0.50767 0.0
H220 H 0.06088 0.81482 0.53907 0.0
H221 H 0.16281 0.85706 0.55048 0.0
H222 H 0.16641 0.84291 0.51878 0.0
H223 H 0.06472 0.80586 0.56977 0.0
H224 H 0.15376 0.89288 0.56787 0.0
H225 H 0.10344 0.87798 0.61534 0.0
H226 H 0.12578 0.93986 0.60116 0.0
H227 H 0.19304 0.90685 0.60322 0.0
H228 H 0.23431 0.95888 0.6184 0.0
H229 H 0.01821 0.81078 0.5813 0.0
H230 H 0.08044 0.82695 0.62923 0.0
H231 H 0.16734 0.99224 0.61566 0.0
H232 H 0.97299 0.78009 0.5972 0.0
H233 H 0.03509 0.79531 0.64536 0.0
C234 C 0.96345 0.52696 0.81934 0.0
C235 C 0.98494 0.52012 0.82845 0.0
C236 C 0.95552 0.51891 0.80062 0.0
C237 C 0.96929 0.50425 0.79057 0.0
C238 C 0.9914 0.49807 0.79976 0.0
C239 C 0.99906 0.50585 0.81857 0.0
C240 C 0.95939 0.49418 0.77078 0.0
C241 C 0.95232 0.51273 0.75971 0.0
C242 C 0.93943 0.50161 0.74155 0.0
C243 C 0.93482 0.4723 0.73426 0.0
C244 C 0.94168 0.45351 0.74502 0.0
C245 C 0.95427 0.46463 0.7632 0.0
C246 C 0.93284 0.42109 0.73754 0.0
C247 C 0.90239 0.40098 0.72839 0.0
C248 C 0.95449 0.41011 0.73925 0.0
C249 C 0.94591 0.37963 0.73161 0.0
C250 C 0.9155 0.35981 0.72243 0.0
C251 C 0.92773 0.51885 0.7307 0.0
C252 C 0.89757 0.50199 0.72069 0.0
C253 C 0.94565 0.55207 0.73083 0.0
C254 C 0.93331 0.56813 0.72144 0.0
C255 C 0.90291 0.55116 0.71189 0.0
C256 C 0.88528 0.51803 0.71137 0.0
C257 C 0.89377 0.37055 0.72094 0.0
H258 H 0.95231 0.53793 0.82682 0.0
H259 H 0.93791 0.52343 0.79415 0.0
H260 H 1.00272 0.48716 0.79243 0.0
H261 H 0.01584 0.50058 0.82543 0.0
H262 H 0.95567 0.5353 0.76541 0.0
H263 H 0.95824 0.44939 0.77168 0.0
H264 H 0.92514 0.4637 0.7202 0.0
H265 H 0.88513 0.40874 0.72711 0.0
H266 H 0.97809 0.42525 0.74621 0.0
H267 H 0.96283 0.37145 0.73288 0.0
H268 H 0.88297 0.47644 0.72057 0.0
H269 H 0.969 0.5656 0.73834 0.0
H270 H 0.87016 0.35535 0.71396 0.0
H271 H 0.86162 0.50473 0.7042 0.0
H272 H 0.94704 0.59381 0.72202 0.0
C273 C 0.55413 0.52372 0.82123 0.0
C274 C 0.5431 0.50068 0.83357 0.0
C275 C 0.55999 0.51636 0.80378 0.0
C276 C 0.55486 0.48584 0.79848 0.0
C277 C 0.5449 0.46331 0.81121 0.0
C278 C 0.53897 0.47063 0.82856 0.0
C279 C 0.55826 0.47673 0.77953 0.0
C280 C 0.58393 0.49745 0.77021 0.0
C281 C 0.58713 0.48819 0.7524 0.0
C282 C 0.56434 0.45781 0.74407 0.0
C283 C 0.53827 0.43709 0.75302 0.0
C284 C 0.53539 0.44686 0.77069 0.0
C285 C 0.51422 0.40513 0.74399 0.0
C286 C 0.50412 0.40093 0.72533 0.0
C287 C 0.50131 0.37851 0.75394 0.0
C288 C 0.47897 0.34844 0.74542 0.0
C289 C 0.46932 0.34439 0.72679 0.0
C290 C 0.61437 0.50971 0.74243 0.0
C291 C 0.64521 0.52857 0.75145 0.0
C292 C 0.60984 0.5107 0.72356 0.0
C293 C 0.63557 0.52932 0.7139 0.0
C294 C 0.66623 0.54769 0.72293 0.0
C295 C 0.6709 0.54749 0.74178 0.0
C296 C 0.48195 0.37079 0.71679 0.0
H297 H 0.55735 0.54703 0.82493 0.0
H298 H 0.56743 0.53416 0.79427 0.0
H299 H 0.5413 0.43979 0.80768 0.0
H300 H 0.53059 0.45266 0.83798 0.0
H301 H 0.60141 0.52068 0.77686 0.0
H302 H 0.51486 0.43134 0.7775 0.0
H303 H 0.56733 0.4499 0.7307 0.0
H304 H 0.51319 0.42096 0.71732 0.0
H305 H 0.50888 0.38079 0.76825 0.0
H306 H 0.4695 0.32823 0.7533 0.0
H307 H 0.64968 0.52813 0.76588 0.0
H308 H 0.58638 0.49701 0.71622 0.0
H309 H 0.47469 0.36801 0.70239 0.0
H310 H 0.69452 0.56155 0.74892 0.0
H311 H 0.63159 0.5294 0.69937 0.0
C312 C 0.57053 0.06785 0.82906 0.0
C313 C 0.53947 0.04474 0.83202 0.0
C314 C 0.57706 0.0797 0.81208 0.0
C315 C 0.55262 0.06863 0.79774 0.0
C316 C 0.52171 0.04485 0.80071 0.0
C317 C 0.51522 0.03311 0.81766 0.0
C318 C 0.55885 0.08273 0.78003 0.0
C319 C 0.58704 0.09036 0.7719 0.0
C320 C 0.59275 0.10384 0.75522 0.0
C321 C 0.57023 0.1104 0.747 0.0
C322 C 0.54202 0.10268 0.7548 0.0
C323 C 0.53639 0.08879 0.77119 0.0
C324 C 0.51818 0.1088 0.74562 0.0
C325 C 0.5258 0.13997 0.74305 0.0
C326 C 0.48788 0.08339 0.73907 0.0
C327 C 0.46567 0.08902 0.72981 0.0
C328 C 0.47316 0.12022 0.72734 0.0
C329 C 0.6217 0.1106 0.74603 0.0
C330 C 0.65181 0.12408 0.75596 0.0
C331 C 0.61943 0.10415 0.72701 0.0
C332 C 0.64652 0.11151 0.71813 0.0
C333 C 0.6765 0.12538 0.72805 0.0
C334 C 0.67898 0.13145 0.74704 0.0
C335 C 0.50331 0.14567 0.73419 0.0
H336 H 0.58957 0.07708 0.84 0.0
H337 H 0.60104 0.09816 0.81036 0.0
H338 H 0.50242 0.03533 0.78992 0.0
H339 H 0.49115 0.01514 0.81965 0.0
H340 H 0.60405 0.0849 0.77827 0.0
H341 H 0.51474 0.08349 0.77727 0.0
H342 H 0.57444 0.12132 0.73437 0.0
H343 H 0.54905 0.15988 0.74804 0.0
H344 H 0.48164 0.05916 0.74085 0.0
H345 H 0.4426 0.06907 0.72459 0.0
H346 H 0.65448 0.12956 0.77058 0.0
H347 H 0.5966 0.09325 0.71894 0.0
H348 H 0.50953 0.16991 0.73248 0.0
H349 H 0.70198 0.14212 0.7549 0.0
H350 H 0.64413 0.10644 0.70348 0.0
C351 C 0.81317 0.59507 0.85365 0.0
C352 C 0.80782 0.61983 0.84966 0.0
C353 C 0.80656 0.58261 0.87042 0.0
C354 C 0.79439 0.59458 0.88362 0.0
C355 C 0.78845 0.619 0.87941 0.0
C356 C 0.7952 0.63156 0.86262 0.0
C357 C 0.78879 0.58208 0.9018 0.0
C358 C 0.81108 0.57583 0.91072 0.0
C359 C 0.80611 0.56336 0.92763 0.0
C360 C 0.77824 0.55697 0.93558 0.0
C361 C 0.75577 0.56329 0.92711 0.0
C362 C 0.76134 0.57613 0.91027 0.0
C363 C 0.72656 0.55613 0.93606 0.0
C364 C 0.70927 0.52716 0.94361 0.0
C365 C 0.7166 0.57861 0.93793 0.0
C366 C 0.69038 0.5725 0.9475 0.0
C367 C 0.67349 0.54369 0.95517 0.0
C368 C 0.82984 0.55687 0.93705 0.0
C369 C 0.84549 0.5441 0.92716 0.0
C370 C 0.83661 0.56286 0.95611 0.0
C371 C 0.85798 0.55577 0.96504 0.0
C372 C 0.87333 0.54288 0.95513 0.0
C373 C 0.86709 0.53727 0.93612 0.0
C374 C 0.68295 0.52097 0.953 0.0
H375 H 0.82277 0.5856 0.84381 0.0
H376 H 0.81096 0.56349 0.87305 0.0
H377 H 0.77934 0.62895 0.88928 0.0
H378 H 0.79095 0.65071 0.8598 0.0
H379 H 0.83278 0.58141 0.90464 0.0
H380 H 0.74382 0.58051 0.90351 0.0
H381 H 0.77394 0.54698 0.94849 0.0
H382 H 0.71612 0.50923 0.94223 0.0
H383 H 0.72956 0.6012 0.93239 0.0
H384 H 0.68326 0.59022 0.94896 0.0
H385 H 0.84061 0.5388 0.91253 0.0
H386 H 0.82551 0.57319 0.96416 0.0
H387 H 0.67003 0.49851 0.95869 0.0
H388 H 0.87869 0.52727 0.92824 0.0
H389 H 0.86259 0.56036 0.97972 0.0
C390 C 0.34653 0.13508 0.86368 0.0
C391 C 0.35843 0.15791 0.85124 0.0
C392 C 0.35948 0.14311 0.88187 0.0
C393 C 0.38431 0.17412 0.88782 0.0
C394 C 0.39647 0.19663 0.87515 0.0
C395 C 0.38362 0.18859 0.85703 0.0
C396 C 0.39726 0.18358 0.9072 0.0
C397 C 0.40477 0.16418 0.91717 0.0
C398 C 0.41928 0.1747 0.93507 0.0
C399 C 0.42564 0.20433 0.94306 0.0
C400 C 0.4174 0.22353 0.93354 0.0
C401 C 0.40315 0.2129 0.91561 0.0
C402 C 0.42462 0.25495 0.94227 0.0
C403 C 0.42171 0.25898 0.96093 0.0
C404 C 0.43576 0.28146 0.93226 0.0
C405 C 0.44444 0.31137 0.94081 0.0
C406 C 0.44257 0.31535 0.95954 0.0
C407 C 0.42848 0.15549 0.94578 0.0
C408 C 0.40642 0.12399 0.94817 0.0
C409 C 0.45915 0.16956 0.95477 0.0
C410 C 0.46676 0.15352 0.96718 0.0
C411 C 0.44342 0.12351 0.97187 0.0
C412 C 0.41404 0.10795 0.96074 0.0
C413 C 0.43092 0.28896 0.96951 0.0
H414 H 0.327 0.11129 0.85935 0.0
H415 H 0.34958 0.12537 0.89136 0.0
H416 H 0.41594 0.22055 0.87927 0.0
H417 H 0.39309 0.2064 0.84754 0.0
H418 H 0.40053 0.14162 0.91082 0.0
H419 H 0.39631 0.22734 0.90817 0.0
H420 H 0.43729 0.21251 0.95679 0.0
H421 H 0.41256 0.23901 0.96898 0.0
H422 H 0.4387 0.27933 0.91794 0.0
H423 H 0.45343 0.33159 0.93294 0.0
H424 H 0.38296 0.11206 0.94076 0.0
H425 H 0.47725 0.19328 0.95234 0.0
H426 H 0.42919 0.29165 0.98397 0.0
H427 H 0.39656 0.08334 0.96143 0.0
H428 H 0.49126 0.16518 0.97287 0.0
C429 C 0.75822 0.14081 0.85138 0.0
C430 C 0.78797 0.15029 0.845 0.0
C431 C 0.75627 0.15094 0.86912 0.0
C432 C 0.78404 0.1703 0.881 0.0
C433 C 0.81377 0.17876 0.87466 0.0
C434 C 0.8157 0.16909 0.85682 0.0
C435 C 0.7821 0.18267 0.8996 0.0
C436 C 0.75651 0.16429 0.90975 0.0
C437 C 0.75394 0.17657 0.92693 0.0
C438 C 0.7774 0.20757 0.93391 0.0
C439 C 0.80332 0.22583 0.92421 0.0
C440 C 0.80556 0.21342 0.90714 0.0
C441 C 0.82817 0.25799 0.93206 0.0
C442 C 0.8204 0.28165 0.93597 0.0
C443 C 0.85953 0.26479 0.93629 0.0
C444 C 0.88263 0.29461 0.9448 0.0
C445 C 0.87484 0.31826 0.94882 0.0
C446 C 0.72681 0.15734 0.93762 0.0
C447 C 0.69569 0.1384 0.929 0.0
C448 C 0.73171 0.15848 0.95666 0.0
C449 C 0.70612 0.14155 0.96683 0.0
C450 C 0.67516 0.12295 0.95816 0.0
C451 C 0.67012 0.12136 0.93919 0.0
C452 C 0.84366 0.31171 0.94409 0.0
H453 H 0.73654 0.12619 0.84245 0.0
H454 H 0.73298 0.14425 0.87331 0.0
H455 H 0.83567 0.19295 0.88346 0.0
H456 H 0.83886 0.17636 0.85219 0.0
H457 H 0.73886 0.14019 0.90446 0.0
H458 H 0.82522 0.2283 0.89957 0.0
H459 H 0.77563 0.21766 0.94696 0.0
H460 H 0.79632 0.27682 0.93277 0.0
H461 H 0.86589 0.24674 0.93344 0.0
H462 H 0.90651 0.2992 0.94841 0.0
H463 H 0.69097 0.13727 0.91443 0.0
H464 H 0.75539 0.1724 0.96373 0.0
H465 H 0.83723 0.32967 0.94706 0.0
H466 H 0.64632 0.10714 0.93229 0.0
H467 H 0.71043 0.14295 0.98146 0.0
C468 C 0.62648 0.8552 0.15299 0.0
C469 C 0.6466 0.84637 0.16182 0.0
C470 C 0.61849 0.84804 0.13424 0.0
C471 C 0.63082 0.83223 0.12389 0.0
C472 C 0.65144 0.82386 0.13281 0.0
C473 C 0.65918 0.8308 0.15165 0.0
C474 C 0.62113 0.8236 0.104 0.0
C475 C 0.61644 0.84415 0.09343 0.0
C476 C 0.6042 0.83491 0.07507 0.0
C477 C 0.59735 0.80508 0.06714 0.0
C478 C 0.60239 0.78452 0.07736 0.0
C479 C 0.61445 0.79391 0.09572 0.0
C480 C 0.59299 0.75238 0.06909 0.0
C481 C 0.56225 0.73273 0.06021 0.0
C482 C 0.6145 0.74117 0.06999 0.0
C483 C 0.60544 0.71082 0.06196 0.0
C484 C 0.57461 0.69119 0.05326 0.0
C485 C 0.59642 0.85535 0.06448 0.0
C486 C 0.58099 0.87022 0.0724 0.0
C487 C 0.60296 0.85898 0.04622 0.0
C488 C 0.59397 0.87691 0.03605 0.0
C489 C 0.57824 0.8913 0.04402 0.0
C490 C 0.57201 0.88806 0.06225 0.0
C491 C 0.55305 0.70225 0.05246 0.0
H492 H 0.61653 0.86719 0.1607 0.0
H493 H 0.60205 0.85427 0.12794 0.0
H494 H 0.66163 0.81201 0.12524 0.0
H495 H 0.67489 0.82398 0.1583 0.0
H496 H 0.62213 0.86737 0.09953 0.0
H497 H 0.61701 0.77735 0.10374 0.0
H498 H 0.58727 0.79741 0.05308 0.0
H499 H 0.5452 0.74081 0.05949 0.0
H500 H 0.63834 0.75602 0.07672 0.0
H501 H 0.62228 0.70247 0.06267 0.0
H502 H 0.57518 0.86746 0.08634 0.0
H503 H 0.61506 0.84801 0.03981 0.0
H504 H 0.52915 0.68726 0.04582 0.0
H505 H 0.55994 0.89916 0.06856 0.0
H506 H 0.59914 0.87948 0.02201 0.0
C507 C 0.21998 0.86667 0.15232 0.0
C508 C 0.20792 0.84355 0.16462 0.0
C509 C 0.2262 0.85913 0.13498 0.0
C510 C 0.22012 0.82827 0.12968 0.0
C511 C 0.20884 0.80555 0.14229 0.0
C512 C 0.20281 0.81311 0.15955 0.0
C513 C 0.22422 0.81889 0.11094 0.0
C514 C 0.25185 0.83785 0.10252 0.0
C515 C 0.25648 0.82703 0.08551 0.0
C516 C 0.2332 0.79692 0.07707 0.0
C517 C 0.20475 0.77802 0.0849 0.0
C518 C 0.20047 0.78979 0.10172 0.0
C519 C 0.1799 0.74593 0.07581 0.0
C520 C 0.17699 0.73863 0.0568 0.0
C521 C 0.15895 0.72198 0.0861 0.0
C522 C 0.13572 0.69219 0.07768 0.0
C523 C 0.13381 0.68481 0.05887 0.0
C524 C 0.2856 0.84685 0.07643 0.0
C525 C 0.29643 0.87923 0.07512 0.0
C526 C 0.30201 0.83317 0.06831 0.0
C527 C 0.32842 0.85134 0.05896 0.0
C528 C 0.33881 0.88347 0.05747 0.0
C529 C 0.32276 0.89736 0.06566 0.0
C530 C 0.15477 0.70827 0.04852 0.0
H531 H 0.22399 0.89029 0.15603 0.0
H532 H 0.2348 0.87707 0.12554 0.0
H533 H 0.20442 0.78173 0.13873 0.0
H534 H 0.19362 0.79502 0.16889 0.0
H535 H 0.27022 0.86044 0.10948 0.0
H536 H 0.17846 0.77649 0.10782 0.0
H537 H 0.23752 0.78841 0.06431 0.0
H538 H 0.19166 0.75625 0.04812 0.0
H539 H 0.16059 0.72571 0.10075 0.0
H540 H 0.1198 0.67446 0.08596 0.0
H541 H 0.28413 0.89036 0.08109 0.0
H542 H 0.29449 0.80839 0.06925 0.0
H543 H 0.15367 0.70317 0.03396 0.0
H544 H 0.33065 0.92222 0.06472 0.0
H545 H 0.34077 0.84036 0.05288 0.0
C546 C 0.23158 0.39701 0.16187 0.0
C547 C 0.19996 0.37632 0.16521 0.0
C548 C 0.23846 0.40967 0.14511 0.0
C549 C 0.21384 0.40177 0.13131 0.0
C550 C 0.18223 0.38063 0.1347 0.0
C551 C 0.17539 0.36817 0.15146 0.0
C552 C 0.22085 0.41574 0.11353 0.0
C553 C 0.24787 0.42028 0.10505 0.0
C554 C 0.25412 0.43298 0.08817 0.0
C555 C 0.2328 0.441 0.07985 0.0
C556 C 0.20571 0.43675 0.08797 0.0
C557 C 0.20018 0.42439 0.1049 0.0
C558 C 0.18314 0.44484 0.0785 0.0
C559 C 0.19441 0.47054 0.06779 0.0
C560 C 0.15005 0.42633 0.07951 0.0
C561 C 0.12894 0.4332 0.06999 0.0
C562 C 0.14035 0.45832 0.05899 0.0
C563 C 0.2828 0.43822 0.07904 0.0
C564 C 0.31242 0.44918 0.08912 0.0
C565 C 0.2811 0.43391 0.05992 0.0
C566 C 0.30835 0.44186 0.05112 0.0
C567 C 0.33794 0.45351 0.06117 0.0
C568 C 0.33967 0.45651 0.08027 0.0
C569 C 0.17326 0.47689 0.05798 0.0
H570 H 0.25089 0.40358 0.17231 0.0
H571 H 0.26302 0.42609 0.14312 0.0
H572 H 0.16267 0.37346 0.12434 0.0
H573 H 0.15086 0.3521 0.15372 0.0
H574 H 0.26356 0.4131 0.11133 0.0
H575 H 0.18001 0.42207 0.1116 0.0
H576 H 0.23732 0.45062 0.06686 0.0
H577 H 0.21965 0.48592 0.06697 0.0
H578 H 0.14031 0.4061 0.08735 0.0
H579 H 0.10361 0.41861 0.07099 0.0
H580 H 0.3148 0.45301 0.10382 0.0
H581 H 0.25868 0.42461 0.05163 0.0
H582 H 0.18259 0.49654 0.04967 0.0
H583 H 0.36227 0.46527 0.08829 0.0
H584 H 0.30638 0.43902 0.03639 0.0
C585 C 0.47728 0.92431 0.18669 0.0
C586 C 0.46815 0.94615 0.18188 0.0
C587 C 0.47034 0.91136 0.20329 0.0
C588 C 0.45449 0.92029 0.21565 0.0
C589 C 0.44481 0.94177 0.2106 0.0
C590 C 0.45144 0.95443 0.19384 0.0
C591 C 0.44904 0.90789 0.23387 0.0
C592 C 0.47224 0.90343 0.24322 0.0
C593 C 0.4675 0.89107 0.26014 0.0
C594 C 0.43935 0.88394 0.26799 0.0
C595 C 0.41594 0.88863 0.25915 0.0
C596 C 0.42096 0.90049 0.24202 0.0
C597 C 0.38648 0.88123 0.26802 0.0
C598 C 0.37201 0.85487 0.27813 0.0
C599 C 0.37326 0.90107 0.26708 0.0
C600 C 0.3467 0.89501 0.27627 0.0
C601 C 0.33294 0.86913 0.28668 0.0
C602 C 0.49171 0.88515 0.2695 0.0
C603 C 0.50822 0.87361 0.25943 0.0
C604 C 0.498 0.89024 0.28858 0.0
C605 C 0.51963 0.88332 0.29736 0.0
C606 C 0.53581 0.87163 0.28724 0.0
C607 C 0.53019 0.86712 0.26821 0.0
C608 C 0.34571 0.84904 0.28745 0.0
H609 H 0.49 0.91744 0.1776 0.0
H610 H 0.47752 0.89435 0.20644 0.0
H611 H 0.43283 0.94946 0.21977 0.0
H612 H 0.44413 0.97122 0.19036 0.0
H613 H 0.49445 0.91022 0.23746 0.0
H614 H 0.40263 0.90318 0.23483 0.0
H615 H 0.43562 0.87463 0.28108 0.0
H616 H 0.381 0.83864 0.27888 0.0
H617 H 0.3839 0.92176 0.25962 0.0
H618 H 0.33712 0.91075 0.27548 0.0
H619 H 0.50371 0.86891 0.24476 0.0
H620 H 0.48629 0.89967 0.2968 0.0
H621 H 0.3353 0.82882 0.2953 0.0
H622 H 0.54242 0.85805 0.26018 0.0
H623 H 0.52375 0.88705 0.31206 0.0
C624 C 0.01634 0.47656 0.19705 0.0
C625 C 0.02891 0.50133 0.18586 0.0
C626 C 0.02617 0.48262 0.21568 0.0
C627 C 0.04857 0.51359 0.22338 0.0
C628 C 0.06157 0.53819 0.212 0.0
C629 C 0.05182 0.53209 0.19339 0.0
C630 C 0.05738 0.52048 0.24332 0.0
C631 C 0.06465 0.5007 0.25302 0.0
C632 C 0.07252 0.50684 0.27203 0.0
C633 C 0.07247 0.53301 0.2811 0.0
C634 C 0.06731 0.55411 0.27147 0.0
C635 C 0.05916 0.54734 0.25262 0.0
C636 C 0.07352 0.58469 0.28085 0.0
C637 C 0.10046 0.60225 0.29355 0.0
C638 C 0.05425 0.59767 0.27637 0.0
C639 C 0.06237 0.62799 0.28402 0.0
C640 C 0.08979 0.64561 0.29624 0.0
C641 C 0.08251 0.4873 0.2823 0.0
C642 C 0.07177 0.45535 0.27608 0.0
C643 C 0.10376 0.50079 0.2983 0.0
C644 C 0.11346 0.48288 0.30785 0.0
C645 C 0.1036 0.45154 0.30119 0.0
C646 C 0.08269 0.43791 0.28522 0.0
C647 C 0.10847 0.63241 0.3012 0.0
H648 H 0.99859 0.45269 0.1914 0.0
H649 H 0.01561 0.46328 0.22415 0.0
H650 H 0.0792 0.56218 0.2175 0.0
H651 H 0.0618 0.55141 0.18488 0.0
H652 H 0.06525 0.48128 0.24553 0.0
H653 H 0.05481 0.56335 0.2451 0.0
H654 H 0.077 0.53757 0.29576 0.0
H655 H 0.11613 0.59322 0.29706 0.0
H656 H 0.03321 0.5846 0.26677 0.0
H657 H 0.04777 0.63803 0.28012 0.0
H658 H 0.05487 0.4436 0.26417 0.0
H659 H 0.11366 0.52546 0.3034 0.0
H660 H 0.1298 0.6459 0.31055 0.0
H661 H 0.07462 0.41363 0.27992 0.0
H662 H 0.12953 0.49382 0.32017 0.0
C663 C 0.42361 0.46654 0.1861 0.0
C664 C 0.45336 0.47741 0.17944 0.0
C665 C 0.42162 0.47595 0.20399 0.0
C666 C 0.44939 0.4959 0.21575 0.0
C667 C 0.47918 0.50571 0.20913 0.0
C668 C 0.48112 0.49682 0.19113 0.0
C669 C 0.44731 0.50749 0.23452 0.0
C670 C 0.42205 0.48828 0.24466 0.0
C671 C 0.41911 0.49991 0.26193 0.0
C672 C 0.44202 0.53099 0.2691 0.0
C673 C 0.4676 0.55 0.25942 0.0
C674 C 0.47015 0.53838 0.24221 0.0
C675 C 0.49164 0.58227 0.26738 0.0
C676 C 0.484 0.60641 0.26881 0.0
C677 C 0.5219 0.58866 0.27423 0.0
C678 C 0.54411 0.61877 0.28279 0.0
C679 C 0.53649 0.64297 0.28428 0.0
C680 C 0.39185 0.48015 0.27239 0.0
C681 C 0.36094 0.46109 0.26352 0.0
C682 C 0.39629 0.48128 0.29145 0.0
C683 C 0.37038 0.46446 0.30142 0.0
C684 C 0.3396 0.44592 0.29251 0.0
C685 C 0.33509 0.4441 0.2735 0.0
C686 C 0.50642 0.6367 0.27704 0.0
H687 H 0.4019 0.45143 0.17728 0.0
H688 H 0.39825 0.46824 0.20839 0.0
H689 H 0.50113 0.52038 0.21781 0.0
H690 H 0.50431 0.50516 0.18628 0.0
H691 H 0.40486 0.4641 0.23925 0.0
H692 H 0.48952 0.55394 0.23468 0.0
H693 H 0.43994 0.54066 0.2822 0.0
H694 H 0.46069 0.60176 0.2636 0.0
H695 H 0.52804 0.57017 0.2733 0.0
H696 H 0.56717 0.62319 0.28834 0.0
H697 H 0.35657 0.45998 0.24892 0.0
H698 H 0.4198 0.49529 0.2987 0.0
H699 H 0.50018 0.65511 0.27806 0.0
H700 H 0.31142 0.42995 0.26642 0.0
H701 H 0.37427 0.46606 0.31609 0.0
Eu702 Eu 0.49286 0.98698 0.98744 0.0
Eu703 Eu 0.52154 0.02291 0.02995 0.0
C704 C 0.48787 0.04871 1.0029 0.0
C705 C 0.48428 0.9733 0.93574 0.0
C706 C 0.4627 0.97409 0.92269 0.0
C707 C 0.52542 0.9957 0.91489 0.0
C708 C 0.47241 0.98575 0.90597 0.0
C709 C 0.5158 0.98423 0.93166 0.0
C710 C 0.50383 0.99663 0.90197 0.0
C711 C 0.47382 0.96183 0.95361 0.0
O712 O 0.46881 0.99107 0.0303 0.0
O713 O 0.45779 0.95419 0.00595 0.0
C714 C 0.45052 0.96296 0.02132 0.0
O715 O 0.52833 0.97369 0.99824 0.0
O716 O 0.52164 0.05001 0.05453 0.0
O717 O 0.55295 0.03056 0.05442 0.0
O718 O 0.51812 0.97533 0.02779 0.0
C719 C 0.52913 0.96565 0.01471 0.0
O720 O 0.53759 0.03193 0.98376 0.0
O721 O 0.5633 0.04649 0.01294 0.0
O722 O 0.50819 0.05532 0.01713 0.0
O723 O 0.49317 0.95734 0.96419 0.0
O724 O 0.46075 0.97533 0.96266 0.0
O725 O 0.47678 0.02278 0.99155 0.0
C726 C 0.52872 0.02938 0.08148 0.0
C727 C 0.4963 0.01512 0.08441 0.0
C728 C 0.53962 0.01578 0.11106 0.0
C729 C 0.48577 0.00171 0.1006 0.0
C730 C 0.55023 0.02953 0.09495 0.0
C731 C 0.50733 0.00188 0.11404 0.0
C732 C 0.54022 0.04343 0.06436 0.0
C733 C 0.56313 0.04867 0.99524 0.0
H734 H 0.43835 0.96591 0.92549 0.0
H735 H 0.54978 0.00407 0.91204 0.0
H736 H 0.45544 0.98635 0.89616 0.0
H737 H 0.53312 0.98416 0.94143 0.0
H738 H 0.47902 0.01424 0.07418 0.0
H739 H 0.55662 0.01609 0.12125 0.0
H740 H 0.46076 0.99104 0.10261 0.0
H741 H 0.57525 0.04017 0.09297 0.0
Eu742 Eu 0.02698 0.51058 0.98737 0.0
Eu743 Eu 0.98713 0.48711 0.02339 0.0
C744 C 0.96787 0.44083 0.98687 0.0
C745 C 0.04376 0.52828 0.93916 0.0
C746 C 0.01177 0.50816 0.93268 0.0
C747 C 0.0528 0.55225 0.91079 0.0
C748 C 1.00024 0.51057 0.91554 0.0
C749 C 0.06439 0.54972 0.92793 0.0
C750 C 0.01983 0.5346 0.90473 0.0
C751 C 0.05534 0.52774 0.95779 0.0
O752 O 0.03554 0.49375 0.03116 0.0
O753 O 0.04791 0.48543 1.00263 0.0
C754 C 0.05193 0.48641 0.02041 0.0
O755 O 0.05638 0.54929 0.00998 0.0
O756 O 0.96766 0.45182 0.04274 0.0
O757 O 0.95997 0.49184 0.04464 0.0
O758 O 0.01737 0.54046 0.02887 0.0
C759 C 0.04564 0.55861 0.02352 0.0
O760 O 0.99119 0.52707 0.98591 0.0
O761 O 0.95383 0.49171 1.00303 0.0
O762 O 0.97431 0.44348 1.00452 0.0
O763 O 0.05424 0.54753 0.97 0.0
O764 O 0.04519 0.4997 0.96335 0.0
O765 O 0.98084 0.46577 0.97779 0.0
C766 C 0.96708 0.47288 0.0719 0.0
C767 C 0.9988 0.49463 0.07853 0.0
C768 C 0.95466 0.45985 0.1026 0.0
C769 C 0.00841 0.49899 0.09711 0.0
C770 C 0.94505 0.45555 0.084 0.0
C771 C 0.98641 0.48154 0.10922 0.0
C772 C 0.95725 0.46741 0.05233 0.0
C773 C 0.96225 0.51249 0.99102 0.0
H774 H 0.99559 0.49046 0.94089 0.0
H775 H 0.07029 0.56788 0.90239 0.0
H776 H 0.97597 0.4928 0.91099 0.0
H777 H 0.08952 0.56461 0.93242 0.0
H778 H 0.0161 0.508 0.06931 0.0
H779 H 0.93745 0.44622 0.11181 0.0
H780 H 0.03299 0.51581 0.10205 0.0
H781 H 0.92053 0.43856 0.07904 0.0
Eu782 Eu 0.5207 0.49579 0.02776 0.0
Eu783 Eu 0.49308 0.50919 0.98902 0.0
C784 C 0.52995 0.56334 0.02148 0.0
C785 C 0.52154 0.48162 0.07675 0.0
C786 C 0.50037 0.49265 0.07943 0.0
C787 C 0.50945 0.45836 0.10536 0.0
C788 C 0.48355 0.48621 0.09475 0.0
C789 C 0.5265 0.46503 0.09002 0.0
C790 C 0.48567 0.46672 0.1075 0.0
C791 C 0.53785 0.48711 0.06001 0.0
O792 O 0.54523 0.52699 0.98705 0.0
O793 O 0.55604 0.49965 0.00794 0.0
C794 C 0.56305 0.51613 0.99374 0.0
O795 O 0.48941 0.44761 0.0125 0.0
O796 O 0.49895 0.54234 0.96907 0.0
O797 O 0.45946 0.49384 0.96476 0.0
O798 O 0.49099 0.46225 0.98351 0.0
C799 C 0.48521 0.44078 0.99481 0.0
O800 O 0.47495 0.49432 0.03362 0.0
O801 O 0.4503 0.48865 1.005 0.0
O802 O 0.50427 0.54962 0.00997 0.0
O803 O 0.52359 0.46445 0.04672 0.0
O804 O 0.54806 0.51502 0.05435 0.0
O805 O 0.54489 0.54845 0.02617 0.0
C806 C 0.48469 0.51777 0.93909 0.0
C807 C 0.49271 0.49471 0.93378 0.0
C808 C 0.49669 0.53819 0.90969 0.0
C809 C 0.50266 0.49342 0.91656 0.0
C810 C 0.48676 0.53949 0.92695 0.0
C811 C 0.50474 0.51517 0.90443 0.0
C812 C 0.47604 0.52045 0.95759 0.0
C813 C 0.44976 0.48773 0.02269 0.0
H814 H 0.4969 0.50655 0.0697 0.0
H815 H 0.51588 0.44725 0.1156 0.0
H816 H 0.46967 0.49761 0.09643 0.0
H817 H 0.5437 0.45733 0.08858 0.0
H818 H 0.49145 0.47781 0.94297 0.0
H819 H 0.49819 0.55512 0.90045 0.0
H820 H 0.50879 0.47552 0.91269 0.0
H821 H 0.48095 0.55761 0.93087 0.0
Eu822 Eu 0.15566 0.31243 0.31976 0.0
Eu823 Eu 0.18228 0.35117 0.36261 0.0
C824 C 0.14935 0.37455 0.33228 0.0
C825 C 0.1485 0.29844 0.26806 0.0
C826 C 0.13101 0.30997 0.25873 0.0
C827 C 0.18307 0.31169 0.24346 0.0
C828 C 0.13962 0.32241 0.24205 0.0
C829 C 0.17444 0.29916 0.26009 0.0
C830 C 0.1658 0.32351 0.23434 0.0
C831 C 0.14018 0.28614 0.28608 0.0
O832 O 0.13157 0.31424 0.36451 0.0
O833 O 0.11636 0.28242 0.33704 0.0
C834 C 0.11113 0.28897 0.35365 0.0
O835 O 0.18784 0.29728 0.33326 0.0
O836 O 0.17885 0.37698 0.38678 0.0
O837 O 0.21671 0.36604 0.38653 0.0
O838 O 0.17892 0.30371 0.36282 0.0
C839 C 0.18852 0.29137 0.35023 0.0
O840 O 0.20008 0.35776 0.31646 0.0
O841 O 0.22455 0.3728 0.34587 0.0
O842 O 0.16463 0.37974 0.34846 0.0
O843 O 0.16309 0.28744 0.29675 0.0
O844 O 0.12233 0.29389 0.29507 0.0
O845 O 0.14311 0.35081 0.3202 0.0
C846 C 0.19356 0.36324 0.41411 0.0
C847 C 0.17677 0.33023 0.41508 0.0
C848 C 0.1936 0.37162 0.44686 0.0
C849 C 0.16861 0.31802 0.43184 0.0
C850 C 0.20187 0.38383 0.4301 0.0
C851 C 0.17693 0.33863 0.44786 0.0
C852 C 0.2016 0.37621 0.39643 0.0
C853 C 0.22522 0.37446 0.32817 0.0
H854 H 0.11079 0.30961 0.26436 0.0
H855 H 0.20329 0.31224 0.2377 0.0
H856 H 0.12593 0.33133 0.23519 0.0
H857 H 0.18829 0.29026 0.26679 0.0
H858 H 0.16991 0.31392 0.40286 0.0
H859 H 0.20021 0.38788 0.45907 0.0
H860 H 0.15575 0.29252 0.43233 0.0
H861 H 0.21464 0.40933 0.42962 0.0
Eu862 Eu 0.6871 0.8356 0.32077 0.0
Eu863 Eu 0.64731 0.81646 0.35681 0.0
C864 C 0.62674 0.76714 0.32134 0.0
C865 C 0.70444 0.85141 0.27244 0.0
C866 C 0.67225 0.83247 0.26604 0.0
C867 C 0.71452 0.87506 0.24397 0.0
C868 C 0.66116 0.83538 0.24889 0.0
C869 C 0.72566 0.87202 0.26111 0.0
C870 C 0.68152 0.85882 0.23802 0.0
C871 C 0.71563 0.85066 0.29112 0.0
O872 O 0.69356 0.81886 0.36483 0.0
O873 O 0.7043 0.80764 0.33642 0.0
C874 C 0.70854 0.8093 0.35425 0.0
O875 O 0.72 0.87238 0.34337 0.0
O876 O 0.62457 0.78247 0.37645 0.0
O877 O 0.62349 0.82635 0.37825 0.0
O878 O 0.68175 0.86957 0.36117 0.0
C879 C 0.71105 0.88436 0.35656 0.0
O880 O 0.65329 0.85482 0.31908 0.0
O881 O 0.61463 0.82022 0.33574 0.0
O882 O 0.6322 0.77096 0.33912 0.0
O883 O 0.71573 0.87142 0.30315 0.0
O884 O 0.70413 0.82263 0.2969 0.0
O885 O 0.64063 0.79115 0.31164 0.0
C886 C 0.62844 0.80628 0.40553 0.0
C887 C 0.66099 0.82493 0.4115 0.0
C888 C 0.61676 0.795 0.43651 0.0
C889 C 0.67137 0.82861 0.42991 0.0
C890 C 0.60637 0.79137 0.41809 0.0
C891 C 0.64931 0.81356 0.44248 0.0
C892 C 0.61771 0.80107 0.38612 0.0
C893 C 0.62392 0.84068 0.3236 0.0
H894 H 0.65555 0.81538 0.27433 0.0
H895 H 0.73234 0.88998 0.2355 0.0
H896 H 0.6366 0.81847 0.2444 0.0
H897 H 0.75089 0.88594 0.26554 0.0
H898 H 0.67833 0.83637 0.4019 0.0
H899 H 0.59951 0.78325 0.4461 0.0
H900 H 0.69656 0.84299 0.43436 0.0
H901 H 0.58121 0.77672 0.41362 0.0
Eu902 Eu 0.18125 0.82766 0.35894 0.0
Eu903 Eu 0.15749 0.84652 0.32096 0.0
C904 C 0.19541 0.8978 0.35496 0.0
C905 C 0.18157 0.81306 0.40775 0.0
C906 C 0.16659 0.83072 0.411 0.0
C907 C 0.16634 0.79105 0.43646 0.0
C908 C 0.15092 0.82794 0.42663 0.0
C909 C 0.18218 0.79394 0.42083 0.0
C910 C 0.14781 0.80577 0.43901 0.0
C911 C 0.19465 0.81316 0.39026 0.0
O912 O 0.19807 0.83923 0.31428 0.0
O913 O 0.2241 0.84783 0.34283 0.0
C914 C 0.22356 0.84604 0.32497 0.0
O915 O 0.16688 0.78696 0.33755 0.0
O916 O 0.16496 0.88159 0.30197 0.0
O917 O 0.12566 0.83359 0.29602 0.0
O918 O 0.13018 0.79331 0.32041 0.0
C919 C 0.14202 0.77582 0.32553 0.0
O920 O 0.12961 0.81248 0.3601 0.0
O921 O 0.12388 0.84546 0.34125 0.0
O922 O 0.19379 0.89212 0.33731 0.0
O923 O 0.17425 0.79213 0.37743 0.0
O924 O 0.21188 0.84093 0.38441 0.0
O925 O 0.18485 0.87491 0.36557 0.0
C926 C 0.15249 0.85987 0.27139 0.0
C927 C 0.16919 0.84407 0.26729 0.0
C928 C 0.15542 0.87454 0.24048 0.0
C929 C 0.1786 0.84319 0.24986 0.0
C930 C 0.14581 0.87524 0.25792 0.0
C931 C 0.17171 0.85833 0.23631 0.0
C932 C 0.14271 0.86093 0.28978 0.0
C933 C 0.11435 0.82658 0.35433 0.0
H934 H 0.16679 0.84662 0.40136 0.0
H935 H 0.16931 0.77742 0.4465 0.0
H936 H 0.14187 0.84387 0.42876 0.0
H937 H 0.1947 0.78101 0.41892 0.0
H938 H 0.17492 0.83241 0.27757 0.0
H939 H 0.14995 0.88639 0.23019 0.0
H940 H 0.19119 0.83062 0.2469 0.0
H941 H 0.13317 0.88774 0.26088 0.0
Eu942 Eu 0.82107 0.64846 0.65313 0.0
Eu943 Eu 0.84769 0.68715 0.69547 0.0
C944 C 0.8113 0.70638 0.66603 0.0
C945 C 0.8149 0.63803 0.6016 0.0
C946 C 0.8277 0.67076 0.60056 0.0
C947 C 0.82148 0.63151 0.56956 0.0
C948 C 0.83745 0.6838 0.58417 0.0
C949 C 0.81192 0.61852 0.586 0.0
C950 C 0.83436 0.66426 0.56852 0.0
C951 C 0.80563 0.62439 0.61902 0.0
O952 O 0.80242 0.64165 0.69826 0.0
O953 O 0.77791 0.62667 0.66881 0.0
C954 C 0.7773 0.6249 0.68645 0.0
O955 O 0.82911 0.61557 0.66971 0.0
O956 O 0.84109 0.71049 0.71964 0.0
O957 O 0.88219 0.7047 0.71959 0.0
O958 O 0.86573 0.65307 0.69212 0.0
C959 C 0.85147 0.62461 0.68321 0.0
O960 O 0.87382 0.6813 0.65446 0.0
O961 O 0.88256 0.72021 0.67701 0.0
O962 O 0.81512 0.70243 0.68312 0.0
O963 O 0.8281 0.62441 0.62943 0.0
O964 O 0.78874 0.63317 0.62823 0.0
O965 O 0.81964 0.69372 0.65286 0.0
C966 C 0.85784 0.69877 0.74703 0.0
C967 C 0.84365 0.66583 0.74789 0.0
C968 C 0.8557 0.70592 0.77966 0.0
C969 C 0.83562 0.65305 0.76453 0.0
C970 C 0.86381 0.7187 0.76302 0.0
C971 C 0.84147 0.67299 0.78054 0.0
C972 C 0.86505 0.71224 0.72942 0.0
C973 C 0.89089 0.71035 0.66247 0.0
H974 H 0.83013 0.68619 0.61244 0.0
H975 H 0.81889 0.61605 0.55763 0.0
H976 H 0.84731 0.7091 0.58365 0.0
H977 H 0.80226 0.59325 0.58654 0.0
H978 H 0.83857 0.65 0.73568 0.0
H979 H 0.86038 0.72168 0.79185 0.0
H980 H 0.82468 0.6276 0.76492 0.0
H981 H 0.87451 0.74413 0.76262 0.0
Eu982 Eu 0.36041 0.1696 0.65513 0.0
Eu983 Eu 0.31857 0.14987 0.69033 0.0
C984 C 0.29905 0.10196 0.65483 0.0
C985 C 0.37875 0.1849 0.60717 0.0
C986 C 0.34732 0.16366 0.60004 0.0
C987 C 0.38683 0.21296 0.58031 0.0
C988 C 0.33545 0.16776 0.58349 0.0
C989 C 0.39872 0.20891 0.59693 0.0
C990 C 0.35407 0.19425 0.57395 0.0
C991 C 0.38989 0.18371 0.6258 0.0
O992 O 0.36558 0.15457 0.69956 0.0
O993 O 0.37722 0.14237 0.67169 0.0
C994 C 0.38129 0.14509 0.68956 0.0
O995 O 0.39103 0.20801 0.67756 0.0
O996 O 0.29421 0.11435 0.70894 0.0
O997 O 0.29283 0.15804 0.71126 0.0
O998 O 0.35207 0.20279 0.69564 0.0
C999 C 0.38097 0.21911 0.69063 0.0
O1000 O 0.32845 0.1906 0.65273 0.0
O1001 O 0.28829 0.15652 0.66885 0.0
O1002 O 0.30544 0.10516 0.67249 0.0
O1003 O 0.39097 0.20497 0.63783 0.0
O1004 O 0.37755 0.15566 0.63165 0.0
O1005 O 0.31296 0.12645 0.64553 0.0
C1006 C 0.29529 0.13589 0.7382 0.0
C1007 C 0.32724 0.15527 0.74527 0.0
C1008 C 0.28088 0.12097 0.76839 0.0
C1009 C 0.33595 0.15753 0.76382 0.0
C1010 C 0.27215 0.11879 0.74982 0.0
C1011 C 0.31283 0.14032 0.77545 0.0
C1012 C 0.28638 0.13214 0.71862 0.0
C1013 C 0.29905 0.17765 0.65704 0.0
H1014 H 0.33168 0.14403 0.60736 0.0
H1015 H 0.40397 0.23069 0.57265 0.0
H1016 H 0.31157 0.14958 0.57838 0.0
H1017 H 0.4235 0.22483 0.60189 0.0
H1018 H 0.34542 0.16836 0.7364 0.0
H1019 H 0.26283 0.10752 0.77723 0.0
H1020 H 0.36071 0.17252 0.7691 0.0
H1021 H 0.24745 0.10352 0.7445 0.0
Eu1022 Eu 0.85763 0.16313 0.69456 0.0
Eu1023 Eu 0.83092 0.17934 0.65663 0.0
C1024 C 0.86811 0.2321 0.68995 0.0
C1025 C 0.85697 0.14682 0.74309 0.0
C1026 C 0.83921 0.1617 0.74613 0.0
C1027 C 0.84187 0.12304 0.77138 0.0
C1028 C 0.8224 0.15678 0.76141 0.0
C1029 C 0.85882 0.12806 0.75604 0.0
C1030 C 0.82108 0.13522 0.77376 0.0
C1031 C 0.87235 0.15006 0.72611 0.0
O1032 O 0.88301 0.19658 0.65465 0.0
O1033 O 0.89266 0.16711 0.67454 0.0
C1034 C 0.9003 0.18477 0.66085 0.0
O1035 O 0.82294 0.11658 0.67837 0.0
O1036 O 0.83696 0.21273 0.63676 0.0
O1037 O 0.79654 0.16479 0.63278 0.0
O1038 O 0.8302 0.13358 0.65003 0.0
C1039 C 0.82107 0.11085 0.6607 0.0
O1040 O 0.81493 0.16659 0.70122 0.0
O1041 O 0.78822 0.15543 0.67275 0.0
O1042 O 0.84316 0.21967 0.67789 0.0
O1043 O 0.85502 0.12844 0.71274 0.0
O1044 O 0.88667 0.17844 0.72073 0.0
O1045 O 0.88187 0.21623 0.69497 0.0
C1046 C 0.82161 0.18765 0.60683 0.0
C1047 C 0.8287 0.16387 0.60158 0.0
C1048 C 0.83346 0.20716 0.57717 0.0
C1049 C 0.83813 0.16179 0.5843 0.0
C1050 C 0.82406 0.20927 0.5945 0.0
C1051 C 0.84062 0.18344 0.57199 0.0
C1052 C 0.81355 0.19109 0.62543 0.0
C1053 C 0.7888 0.15735 0.69059 0.0
H1054 H 0.83835 0.17733 0.73667 0.0
H1055 H 0.84604 0.11007 0.78138 0.0
H1056 H 0.81117 0.17081 0.7634 0.0
H1057 H 0.87341 0.11728 0.75432 0.0
H1058 H 0.82715 0.14703 0.61089 0.0
H1059 H 0.83529 0.22405 0.56781 0.0
H1060 H 0.84358 0.14336 0.58052 0.0
H1061 H 0.81897 0.22794 0.59835 0.0
C1062 C 0.39798 0.91746 0.05746 0.0
C1063 C 0.36729 0.90285 0.04783 0.0
C1064 C 0.39086 0.92736 0.02045 0.0
C1065 C 0.42173 0.94025 0.02975 0.0
N1066 N 0.45473 0.94184 0.05585 0.0
N1067 N 0.33427 0.88943 0.01955 0.0
C1068 C 0.42529 0.93369 0.04792 0.0
C1069 C 0.36367 0.9064 0.02911 0.0
N1070 N 0.40104 0.91646 0.07585 0.0
N1071 N 0.38736 0.93642 1.00378 0.0
H1072 H 0.31375 0.87457 0.02556 0.0
H1073 H 0.33055 0.88819 1.00547 0.0
H1074 H 0.40657 0.95174 0.997 0.0
H1075 H 0.36543 0.93081 0.99727 0.0
H1076 H 0.42251 0.92998 0.08398 0.0
H1077 H 0.38165 0.90404 0.08328 0.0
H1078 H 0.45847 0.93479 0.06829 0.0
H1079 H 0.47529 0.953 0.04922 0.0
C1080 C 0.11985 0.49523 0.0524 0.0
C1081 C 0.11798 0.46547 0.04857 0.0
C1082 C 0.07221 0.44888 0.02599 0.0
C1083 C 0.07598 0.47963 0.02882 0.0
N1084 N 0.10934 0.53453 0.04069 0.0
N1085 N 0.09692 0.41665 0.02878 0.0
C1086 C 0.10157 0.50355 0.04086 0.0
C1087 C 0.09545 0.44301 0.03449 0.0
N1088 N 0.13811 0.51513 0.06743 0.0
N1089 N 0.04592 0.42496 0.01575 0.0
H1090 H 0.11403 0.41188 0.03434 0.0
H1091 H 0.08317 0.40117 0.01737 0.0
H1092 H 0.02845 0.42831 0.00925 0.0
H1093 H 0.04017 0.40127 0.01492 0.0
H1094 H 0.13774 0.53567 0.07175 0.0
H1095 H 0.15109 0.50953 0.07663 0.0
H1096 H 0.1296 0.55337 0.04801 0.0
H1097 H 0.09747 0.54158 0.03165 0.0
C1098 C 0.56405 0.65268 0.02613 0.0
C1099 C 0.56447 0.65865 0.04518 0.0
C1100 C 0.5413 0.60195 0.04858 0.0
C1101 C 0.54218 0.59617 0.02964 0.0
N1102 N 0.55902 0.61584 1.00083 0.0
N1103 N 0.55736 0.64043 0.07504 0.0
C1104 C 0.55474 0.62148 0.0185 0.0
C1105 C 0.55433 0.6337 0.05657 0.0
N1106 N 0.57221 0.67681 0.01533 0.0
N1107 N 0.52673 0.57693 0.05876 0.0
H1108 H 0.56517 0.66313 0.08138 0.0
H1109 H 0.5541 0.62405 0.08424 0.0
H1110 H 0.51724 0.55336 0.05346 0.0
H1111 H 0.52182 0.5791 0.07211 0.0
H1112 H 0.56871 0.67337 1.00119 0.0
H1113 H 0.58088 0.70035 0.02051 0.0
H1114 H 0.57116 0.63368 0.99249 0.0
H1115 H 0.55266 0.59329 0.99482 0.0
C1116 C 0.89405 0.35887 0.97609 0.0
C1117 C 0.899 0.34956 0.95859 0.0
C1118 C 0.9512 0.39819 0.96082 0.0
C1119 C 0.94431 0.40933 0.97718 0.0
N1120 N 0.90507 0.40295 0.9978 0.0
N1121 N 0.92958 0.36353 0.93266 0.0
C1122 C 0.9146 0.39043 0.98414 0.0
C1123 C 0.92682 0.37015 0.95045 0.0
N1124 N 0.87036 0.33737 0.98533 0.0
N1125 N 0.98134 0.41346 0.95557 0.0
H1126 H 0.91193 0.34359 0.92447 0.0
H1127 H 0.94794 0.37942 0.92558 0.0
H1128 H 1.00032 0.4331 0.96325 0.0
H1129 H 0.98823 0.40453 0.94467 0.0
H1130 H 0.86787 0.34223 0.99886 0.0
H1131 H 0.85533 0.31368 0.98018 0.0
H1132 H 0.88227 0.39096 1.00203 0.0
H1133 H 0.91841 0.4265 1.00349 0.0
C1134 C 0.61479 0.52258 0.95549 0.0
C1135 C 0.6454 0.53684 0.9652 0.0
C1136 C 0.62247 0.53887 0.99371 0.0
C1137 C 0.59149 0.52218 0.98423 0.0
N1138 N 0.55775 0.49304 0.95659 0.0
N1139 N 0.67838 0.55494 0.99375 0.0
C1140 C 0.58756 0.51272 0.96523 0.0
C1141 C 0.64921 0.54383 0.9844 0.0
N1142 N 0.61176 0.51886 0.93688 0.0
N1143 N 0.62659 0.55153 0.01133 0.0
H1144 H 0.69872 0.56007 0.98735 0.0
H1145 H 0.682 0.55697 0.00788 0.0
H1146 H 0.60777 0.54897 0.01852 0.0
H1147 H 0.64882 0.56689 0.01835 0.0
H1148 H 0.59066 0.51231 0.92896 0.0
H1149 H 0.63097 0.5247 0.92924 0.0
H1150 H 0.55348 0.48239 0.94332 0.0
H1151 H 0.53716 0.48475 0.96319 0.0
C1152 C 0.42935 0.07646 0.99075 0.0
C1153 C 0.45116 0.10751 0.9867 0.0
C1154 C 0.49505 0.1037 1.00116 0.0
C1155 C 0.47484 0.07007 1.00008 0.0
N1156 N 0.42089 0.02555 0.99848 0.0
N1157 N 0.49518 0.15323 1.00395 0.0
C1158 C 0.44129 0.05673 0.99637 0.0
C1159 C 0.4815 0.1224 0.99665 0.0
N1160 N 0.39839 0.06806 0.99221 0.0
N1161 N 0.52713 0.11809 1.00564 0.0
H1162 H 0.48314 0.16585 1.00295 0.0
H1163 H 0.51601 0.16439 0.01281 0.0
H1164 H 0.53891 0.10617 0.00932 0.0
H1165 H 0.54244 0.14216 1.00449 0.0
H1166 H 0.38162 0.04672 0.99666 0.0
H1167 H 0.39085 0.0846 0.9913 0.0
H1168 H 0.39688 0.0136 0.9936 0.0
H1169 H 0.42814 0.01155 1.00499 0.0
C1170 C 0.64314 0.07721 0.97628 0.0
C1171 C 0.64779 0.10523 0.96896 0.0
C1172 C 0.59692 0.09618 0.97882 0.0
C1173 C 0.59327 0.06942 0.98733 0.0
N1174 N 0.61396 0.03563 0.99554 0.0
N1175 N 0.63275 0.14504 0.96639 0.0
C1176 C 0.61692 0.06053 0.98665 0.0
C1177 C 0.62575 0.11581 0.97118 0.0
N1178 N 0.66279 0.06557 0.97246 0.0
N1179 N 0.57244 0.10229 0.97747 0.0
H1180 H 0.65368 0.16012 0.96079 0.0
H1181 H 0.6193 0.15558 0.96949 0.0
H1182 H 0.55098 0.08861 0.9829 0.0
H1183 H 0.57231 0.11923 0.96965 0.0
H1184 H 0.65866 0.04341 0.97555 0.0
H1185 H 0.68216 0.07703 0.96488 0.0
H1186 H 0.63214 0.03048 0.99758 0.0
H1187 H 0.59377 0.02092 1.00178 0.0
C1188 C 0.92538 0.55956 0.97338 0.0
C1189 C 0.8957 0.5349 0.96473 0.0
C1190 C 0.90995 0.49526 0.97275 0.0
C1191 C 0.93843 0.51974 0.98272 0.0
N1192 N 0.96934 0.57409 0.99613 0.0
N1193 N 0.85681 0.47893 0.95943 0.0
C1194 C 0.94505 0.55162 0.98406 0.0
C1195 C 0.88711 0.50261 0.96538 0.0
N1196 N 0.93529 0.59053 0.97095 0.0
N1197 N 0.90528 0.46528 0.96957 0.0
H1198 H 0.83931 0.48334 0.95408 0.0
H1199 H 0.84821 0.45516 0.96137 0.0
H1200 H 0.92151 0.4589 0.97448 0.0
H1201 H 0.88669 0.44745 0.9607 0.0
H1202 H 0.95814 0.60919 0.97534 0.0
H1203 H 0.92172 0.59732 0.96307 0.0
H1204 H 0.97347 0.59709 0.99893 0.0
H1205 H 0.98318 0.56874 1.00483 0.0
C1206 C 0.48675 0.37052 0.97063 0.0
C1207 C 0.45382 0.34739 0.96894 0.0
C1208 C 0.44333 0.38336 0.98788 0.0
C1209 C 0.47518 0.40801 0.98724 0.0
N1210 N 0.52753 0.4258 0.97769 0.0
N1211 N 0.39982 0.33339 0.97342 0.0
C1212 C 0.49697 0.40184 0.97843 0.0
C1213 C 0.43181 0.35422 0.97689 0.0
N1214 N 0.5084 0.36215 0.96562 0.0
N1215 N 0.4243 0.38744 0.9993 0.0
H1216 H 0.39038 0.31201 0.96511 0.0
H1217 H 0.38265 0.33871 0.97733 0.0
H1218 H 0.43251 0.40795 0.00816 0.0
H1219 H 0.40175 0.36925 1.0015 0.0
H1220 H 0.53293 0.37704 0.96828 0.0
H1221 H 0.50195 0.33924 0.96025 0.0
H1222 H 0.54325 0.42394 0.96941 0.0
H1223 H 0.53678 0.44817 0.98481 0.0
C1224 C 0.10995 0.62527 0.05638 0.0
C1225 C 0.11024 0.65231 0.05009 0.0
C1226 C 0.06895 0.61772 0.02557 0.0
C1227 C 0.06645 0.59071 0.03315 0.0
N1228 N 0.07865 0.56884 0.05864 0.0
N1229 N 0.0838 0.67293 0.03148 0.0
C1230 C 0.08497 0.59449 0.04952 0.0
C1231 C 0.08793 0.6482 0.03545 0.0
N1232 N 0.13441 0.62875 0.06809 0.0
N1233 N 0.05354 0.6144 0.00889 0.0
H1234 H 0.09604 0.6952 0.03899 0.0
H1235 H 0.0658 0.67035 0.02203 0.0
H1236 H 0.03921 0.5924 1.00133 0.0
H1237 H 0.05714 0.63368 1.00197 0.0
H1238 H 0.13659 0.60956 0.07167 0.0
H1239 H 0.15435 0.65078 0.07258 0.0
H1240 H 0.08957 0.57089 0.07155 0.0
H1241 H 0.06054 0.54587 0.05398 0.0
C1242 C 0.39168 0.49507 0.05262 0.0
C1243 C 0.36694 0.46275 0.05144 0.0
C1244 C 0.39304 0.44909 0.02799 0.0
C1245 C 0.41994 0.4802 0.03108 0.0
N1246 N 0.44557 0.53307 0.04676 0.0
N1247 N 0.34736 0.40792 0.04057 0.0
C1248 C 0.41953 0.50321 0.04364 0.0
C1249 C 0.36855 0.43945 0.03983 0.0
N1250 N 0.38787 0.5182 0.06147 0.0
N1251 N 0.39032 0.42886 0.01352 0.0
H1252 H 0.32964 0.39981 0.04946 0.0
H1253 H 0.34945 0.3898 0.03378 0.0
H1254 H 0.40692 0.43544 1.00403 0.0
H1255 H 0.36983 0.40693 0.00973 0.0
H1256 H 0.40352 0.54241 0.06118 0.0
H1257 H 0.36755 0.51338 0.0678 0.0
H1258 H 0.44858 0.54951 0.05748 0.0
H1259 H 0.46483 0.54102 0.03897 0.0
C1260 C 0.5394 0.89519 0.02213 0.0
C1261 C 0.5685 0.9104 0.03354 0.0
C1262 C 0.57373 0.96233 0.03063 0.0
C1263 C 0.54456 0.9472 0.01925 0.0
N1264 N 0.50269 0.90064 1.00118 0.0
N1265 N 0.61716 0.95812 0.04511 0.0
C1266 C 0.52852 0.91406 0.0139 0.0
C1267 C 0.58691 0.94394 0.03662 0.0
N1268 N 0.52144 0.86273 0.01996 0.0
N1269 N 0.58829 0.99411 0.0362 0.0
H1270 H 0.62744 0.94519 0.04969 0.0
H1271 H 0.63308 0.9825 0.04617 0.0
H1272 H 0.58028 0.00876 0.03143 0.0
H1273 H 0.60725 0.00571 0.04632 0.0
H1274 H 0.49829 0.85013 0.01362 0.0
H1275 H 0.529 0.84819 0.02546 0.0
H1276 H 0.49185 0.87722 0.99533 0.0
H1277 H 0.49341 0.9136 0.99539 0.0
C1278 C 0.04799 0.21654 0.37413 0.0
C1279 C 0.02767 0.22789 0.37963 0.0
C1280 C 0.0608 0.27828 0.36702 0.0
C1281 C 0.08093 0.26682 0.36112 0.0
N1282 N 0.09299 0.22455 0.35783 0.0
N1283 N 0.01127 0.26694 0.3791 0.0
C1284 C 0.07411 0.23564 0.36417 0.0
C1285 C 0.03303 0.25796 0.37536 0.0
N1286 N 0.04274 0.18783 0.37897 0.0
N1287 N 0.06878 0.30902 0.36518 0.0
H1288 H 0.99148 0.25349 0.38602 0.0
H1289 H 0.01145 0.2866 0.3743 0.0
H1290 H 0.08785 0.32433 0.35835 0.0
H1291 H 0.05775 0.32021 0.37132 0.0
H1292 H 0.05833 0.17936 0.37731 0.0
H1293 H 0.02312 0.17269 0.38555 0.0
H1294 H 0.08756 0.20105 0.35765 0.0
H1295 H 0.11385 0.2386 0.35195 0.0
C1296 C 0.78323 0.80448 0.36627 0.0
C1297 C 0.77532 0.78907 0.38241 0.0
C1298 C 0.72161 0.78115 0.37746 0.0
C1299 C 0.7311 0.8008 0.36301 0.0
N1300 N 0.77386 0.83683 0.34628 0.0
N1301 N 0.73867 0.76833 0.40536 0.0
C1302 C 0.76268 0.81394 0.35802 0.0
C1303 C 0.74493 0.7789 0.38858 0.0
N1304 N 0.80996 0.80943 0.35853 0.0
N1305 N 0.69014 0.76369 0.38021 0.0
H1306 H 0.75539 0.76719 0.4142 0.0
H1307 H 0.71801 0.76378 0.41121 0.0
H1308 H 0.67208 0.76328 0.37174 0.0
H1309 H 0.68174 0.7469 0.38955 0.0
H1310 H 0.81511 0.81779 0.34582 0.0
H1311 H 0.82521 0.80211 0.36388 0.0
H1312 H 0.79769 0.84939 0.34376 0.0
H1313 H 0.76033 0.84577 0.34055 0.0
C1314 C 0.2073 0.98013 0.36677 0.0
C1315 C 0.23358 0.99278 0.38028 0.0
C1316 C 0.23717 0.94463 0.3754 0.0
C1317 C 0.20914 0.93087 0.36314 0.0
N1318 N 0.1652 0.93356 0.34843 0.0
N1319 N 0.27219 0.9869 0.39882 0.0
C1320 C 0.19369 0.94817 0.35903 0.0
C1321 C 0.24816 0.97497 0.38499 0.0
N1322 N 0.19547 0.99879 0.36128 0.0
N1323 N 0.25397 0.92922 0.3773 0.0
H1324 H 0.2819 0.00967 0.40556 0.0
H1325 H 0.28123 0.97364 0.40441 0.0
H1326 H 0.2468 0.90708 0.37036 0.0
H1327 H 0.27635 0.93937 0.38451 0.0
H1328 H 0.17904 0.9924 0.34998 0.0
H1329 H 0.20363 0.02177 0.36728 0.0
H1330 H 0.15077 0.94349 0.34678 0.0
H1331 H 0.15455 0.91032 0.34228 0.0
C1332 C 0.55267 0.68552 0.3102 0.0
C1333 C 0.55977 0.67474 0.29383 0.0
C1334 C 0.61252 0.72268 0.29698 0.0
C1335 C 0.60382 0.73519 0.31202 0.0
N1336 N 0.56242 0.73113 0.33022 0.0
N1337 N 0.59399 0.68601 0.26962 0.0
C1338 C 0.57301 0.71735 0.31792 0.0
C1339 C 0.58901 0.69418 0.28661 0.0
N1340 N 0.52708 0.66514 0.31873 0.0
N1341 N 0.64349 0.73712 0.29307 0.0
H1342 H 0.57709 0.66562 0.26142 0.0
H1343 H 0.61357 0.70103 0.26298 0.0
H1344 H 0.66179 0.75715 0.30087 0.0
H1345 H 0.65157 0.72723 0.28332 0.0
H1346 H 0.5228 0.671 0.33164 0.0
H1347 H 0.51197 0.64137 0.31377 0.0
H1348 H 0.53898 0.72002 0.33351 0.0
H1349 H 0.57588 0.75482 0.33566 0.0
C1350 C 0.27503 0.8355 0.29163 0.0
C1351 C 0.30517 0.86303 0.29688 0.0
C1352 C 0.2817 0.88023 0.32039 0.0
C1353 C 0.25236 0.85124 0.31625 0.0
N1354 N 0.22356 0.79808 0.30084 0.0
N1355 N 0.33876 0.90826 0.31874 0.0
C1356 C 0.24973 0.82793 0.30269 0.0
C1357 C 0.30899 0.88443 0.31202 0.0
N1358 N 0.27021 0.81712 0.27576 0.0
N1359 N 0.28327 0.90444 0.33158 0.0
H1360 H 0.35936 0.91194 0.31311 0.0
H1361 H 0.34324 0.92247 0.33088 0.0
H1362 H 0.26374 0.90276 0.33763 0.0
H1363 H 0.30316 0.92722 0.33349 0.0
H1364 H 0.24783 0.79874 0.27032 0.0
H1365 H 0.28799 0.82211 0.26712 0.0
H1366 H 0.22164 0.77927 0.29232 0.0
H1367 H 0.20528 0.7912 0.3093 0.0
C1368 C 0.09333 0.40359 0.31693 0.0
C1369 C 0.11536 0.43302 0.31087 0.0
C1370 C 0.15928 0.42789 0.32451 0.0
C1371 C 0.13747 0.39591 0.32718 0.0
N1372 N 0.08311 0.35204 0.32426 0.0
N1373 N 0.16984 0.47013 0.30578 0.0
C1374 C 0.10427 0.38334 0.32289 0.0
C1375 C 0.14855 0.44454 0.31392 0.0
N1376 N 0.06221 0.39544 0.31759 0.0
N1377 N 0.19017 0.44249 0.33193 0.0
H1378 H 0.16301 0.48196 0.29696 0.0
H1379 H 0.19395 0.47734 0.30619 0.0
H1380 H 0.19923 0.43129 0.33977 0.0
H1381 H 0.20601 0.4667 0.33167 0.0
H1382 H 0.04584 0.37561 0.32351 0.0
H1383 H 0.05358 0.4103 0.31405 0.0
H1384 H 0.05916 0.34102 0.31932 0.0
H1385 H 0.0898 0.33646 0.32912 0.0
C1386 C 0.30645 0.40145 0.31118 0.0
C1387 C 0.31175 0.42906 0.30308 0.0
C1388 C 0.26028 0.42074 0.31127 0.0
C1389 C 0.25591 0.39451 0.3206 0.0
N1390 N 0.27589 0.36117 0.33086 0.0
N1391 N 0.29741 0.46903 0.29887 0.0
C1392 C 0.27954 0.3855 0.32117 0.0
C1393 C 0.28977 0.43993 0.30419 0.0
N1394 N 0.32612 0.38944 0.30844 0.0
N1395 N 0.2359 0.42674 0.30856 0.0
H1396 H 0.31893 0.4839 0.29374 0.0
H1397 H 0.28384 0.47973 0.30116 0.0
H1398 H 0.21387 0.41322 0.31342 0.0
H1399 H 0.2365 0.44329 0.30013 0.0
H1400 H 0.32159 0.36746 0.31214 0.0
H1401 H 0.34595 0.40034 0.30114 0.0
H1402 H 0.29394 0.35609 0.33375 0.0
H1403 H 0.25527 0.3469 0.3369 0.0
C1404 C 0.58679 0.88786 0.30652 0.0
C1405 C 0.55821 0.86351 0.29665 0.0
C1406 C 0.57342 0.82411 0.30363 0.0
C1407 C 0.6006 0.84811 0.31478 0.0
N1408 N 0.62781 0.9006 0.33084 0.0
N1409 N 0.52098 0.80747 0.28906 0.0
C1410 C 0.60585 0.87942 0.31734 0.0
C1411 C 0.55055 0.8313 0.29611 0.0
N1412 N 0.5962 0.91907 0.30524 0.0
N1413 N 0.56986 0.79472 0.29974 0.0
H1414 H 0.50334 0.81169 0.28371 0.0
H1415 H 0.51291 0.7835 0.29006 0.0
H1416 H 0.58586 0.78838 0.30507 0.0
H1417 H 0.55248 0.77749 0.29005 0.0
H1418 H 0.6184 0.93771 0.31074 0.0
H1419 H 0.58314 0.92626 0.29723 0.0
H1420 H 0.63086 0.92301 0.33438 0.0
H1421 H 0.64006 0.8941 0.33997 0.0
C1422 C 0.09438 0.68557 0.32086 0.0
C1423 C 0.10044 0.67881 0.30311 0.0
C1424 C 0.1297 0.73556 0.29918 0.0
C1425 C 0.12666 0.74245 0.31762 0.0
N1426 N 0.10742 0.72495 0.34649 0.0
N1427 N 0.12625 0.6966 0.27583 0.0
C1428 C 0.10933 0.71769 0.32862 0.0
C1429 C 0.11854 0.70359 0.29232 0.0
N1430 N 0.07378 0.66122 0.33008 0.0
N1431 N 0.14319 0.75954 0.28822 0.0
H1432 H 0.11795 0.67342 0.27011 0.0
H1433 H 0.14263 0.7137 0.26833 0.0
H1434 H 0.15307 0.78345 0.29293 0.0
H1435 H 0.14274 0.75575 0.27419 0.0
H1436 H 0.06575 0.6645 0.34232 0.0
H1437 H 0.06263 0.63742 0.32477 0.0
H1438 H 0.09843 0.70821 0.35581 0.0
H1439 H 0.11636 0.74816 0.35236 0.0
C1440 C 0.78618 0.9505 0.38408 0.0
C1441 C 0.77891 0.97528 0.38534 0.0
C1442 C 0.72948 0.94169 0.36566 0.0
C1443 C 0.73467 0.91569 0.36633 0.0
N1444 N 0.76585 0.89396 0.37856 0.0
N1445 N 0.74069 0.99242 0.38024 0.0
C1446 C 0.76246 0.91968 0.37621 0.0
C1447 C 0.74962 0.97025 0.37702 0.0
N1448 N 0.81609 0.95666 0.38972 0.0
N1449 N 0.70655 0.93981 0.35336 0.0
H1450 H 0.75459 0.01348 0.38874 0.0
H1451 H 0.71818 0.98848 0.37589 0.0
H1452 H 0.69335 0.92016 0.34379 0.0
H1453 H 0.70347 0.95902 0.35116 0.0
H1454 H 0.82368 0.94036 0.38732 0.0
H1455 H 0.83433 0.97905 0.39529 0.0
H1456 H 0.78393 0.89496 0.38727 0.0
H1457 H 0.74902 0.87101 0.37307 0.0
C1458 C 0.03578 0.78031 0.37446 0.0
C1459 C 0.03252 0.80514 0.38315 0.0
C1460 C 0.08333 0.84465 0.37296 0.0
C1461 C 0.08507 0.81988 0.36294 0.0
N1462 N 0.05965 0.76469 0.35109 0.0
N1463 N 0.04996 0.86103 0.38783 0.0
C1464 C 0.06028 0.78784 0.36279 0.0
C1465 C 0.05536 0.83738 0.38156 0.0
N1466 N 0.01617 0.74959 0.37786 0.0
N1467 N 0.10897 0.87483 0.3751 0.0
H1468 H 0.0298 0.85668 0.39421 0.0
H1469 H 0.06405 0.88463 0.3853 0.0
H1470 H 0.13007 0.88103 0.36932 0.0
H1471 H 0.11037 0.89308 0.38391 0.0
H1472 H 0.0196 0.73093 0.37347 0.0
H1473 H 0.99819 0.74313 0.38652 0.0
H1474 H 0.04059 0.74142 0.34909 0.0
H1475 H 0.07672 0.76945 0.34198 0.0
C1476 C 0.24581 0.27048 0.37382 0.0
C1477 C 0.22769 0.23688 0.37095 0.0
C1478 C 0.18753 0.23962 0.35094 0.0
C1479 C 0.20339 0.2729 0.3559 0.0
N1480 N 0.24719 0.32051 0.37228 0.0
N1481 N 0.18074 0.18874 0.35776 0.0
C1482 C 0.23252 0.28851 0.36733 0.0
C1483 C 0.19854 0.22121 0.35959 0.0
N1484 N 0.27597 0.28506 0.38248 0.0
N1485 N 0.16195 0.22567 0.33804 0.0
H1486 H 0.18845 0.1745 0.36354 0.0
H1487 H 0.15755 0.17588 0.3515 0.0
H1488 H 0.15269 0.23826 0.33179 0.0
H1489 H 0.15134 0.2021 0.33249 0.0
H1490 H 0.29177 0.30944 0.38337 0.0
H1491 H 0.28634 0.27247 0.38748 0.0
H1492 H 0.26603 0.33258 0.38243 0.0
H1493 H 0.23955 0.335 0.36683 0.0
C1494 C 0.7129 0.55429 0.70684 0.0
C1495 C 0.69363 0.56683 0.71253 0.0
C1496 C 0.72782 0.61659 0.69959 0.0
C1497 C 0.74681 0.60387 0.69372 0.0
N1498 N 0.75485 0.55935 0.68858 0.0
N1499 N 0.67946 0.60758 0.71238 0.0
C1500 C 0.73854 0.57228 0.69639 0.0
C1501 C 0.70008 0.5973 0.70826 0.0
N1502 N 0.70702 0.52545 0.71178 0.0
N1503 N 0.73689 0.64746 0.69727 0.0
H1504 H 0.65973 0.59475 0.71947 0.0
H1505 H 0.68064 0.62787 0.70789 0.0
H1506 H 0.75592 0.66162 0.69002 0.0
H1507 H 0.72661 0.65964 0.70313 0.0
H1508 H 0.72225 0.51655 0.71 0.0
H1509 H 0.68761 0.51095 0.7187 0.0
H1510 H 0.74835 0.53555 0.68848 0.0
H1511 H 0.77368 0.57197 0.68083 0.0
C1512 C 0.41986 0.11724 0.72443 0.0
C1513 C 0.44946 0.12624 0.71748 0.0
C1514 C 0.43575 0.1506 0.69324 0.0
C1515 C 0.40457 0.13795 0.6988 0.0
N1516 N 0.36488 0.10243 0.71726 0.0
N1517 N 0.48233 0.14506 0.6927 0.0
C1518 C 0.396 0.11932 0.71373 0.0
C1519 C 0.45646 0.141 0.7011 0.0
N1520 N 0.41482 0.10776 0.74151 0.0
N1521 N 0.44639 0.17307 0.68123 0.0
H1522 H 0.49761 0.13752 0.6977 0.0
H1523 H 0.48665 0.15287 0.67982 0.0
H1524 H 0.43284 0.18226 0.67587 0.0
H1525 H 0.46998 0.18519 0.67821 0.0
H1526 H 0.39484 0.10405 0.74788 0.0
H1527 H 0.43202 0.1068 0.75004 0.0
H1528 H 0.35713 0.08632 0.72701 0.0
H1529 H 0.34632 0.10164 0.70911 0.0
C1530 C 0.90892 0.32212 0.69578 0.0
C1531 C 0.9058 0.3274 0.71443 0.0
C1532 C 0.87662 0.27015 0.71672 0.0
C1533 C 0.88109 0.26489 0.69833 0.0
N1534 N 0.90546 0.28515 0.67104 0.0
N1535 N 0.89138 0.30765 0.74352 0.0
C1536 C 0.89835 0.29069 0.68802 0.0
C1537 C 0.89115 0.30174 0.72519 0.0
N1538 N 0.92133 0.3471 0.68544 0.0
N1539 N 0.85729 0.24497 0.72583 0.0
H1540 H 0.90102 0.33051 0.75012 0.0
H1541 H 0.88428 0.2902 0.75245 0.0
H1542 H 0.84616 0.22151 0.72002 0.0
H1543 H 0.85015 0.24727 0.73856 0.0
H1544 H 0.92077 0.34446 0.67134 0.0
H1545 H 0.93063 0.37063 0.69086 0.0
H1546 H 0.92086 0.30305 0.66357 0.0
H1547 H 0.89781 0.26237 0.66486 0.0
C1548 C 0.2565 0.03022 0.61924 0.0
C1549 C 0.22852 0.01063 0.62755 0.0
C1550 C 0.24505 0.05268 0.65249 0.0
C1551 C 0.27487 0.07051 0.64543 0.0
N1552 N 0.31148 0.07248 0.62406 0.0
N1553 N 0.19982 0.00044 0.65424 0.0
C1554 C 0.28135 0.05828 0.62932 0.0
C1555 C 0.22387 0.02101 0.64484 0.0
N1556 N 0.259 0.02265 0.60155 0.0
N1557 N 0.23607 0.06635 0.66583 0.0
H1558 H 0.18427 0.97671 0.64935 0.0
H1559 H 0.19744 0.00607 0.66766 0.0
H1560 H 0.24989 0.0901 0.67112 0.0
H1561 H 0.2133 0.05513 0.67014 0.0
H1562 H 0.27753 0.03786 0.59433 0.0
H1563 H 0.24101 0.00266 0.59355 0.0
H1564 H 0.31797 0.06272 0.61335 0.0
H1565 H 0.33079 0.09204 0.63158 0.0
C1566 C 0.98674 0.21239 0.6524 0.0
C1567 C 0.98369 0.20646 0.63316 0.0
C1568 C 0.92582 0.18318 0.63242 0.0
C1569 C 0.92905 0.19139 0.65153 0.0
N1570 N 0.96318 0.21888 0.67921 0.0
N1571 N 0.95128 0.19035 0.60446 0.0
C1572 C 0.95967 0.20722 0.66143 0.0
C1573 C 0.95349 0.19314 0.62306 0.0
N1574 N 0.0155 0.22274 0.66207 0.0
N1575 N 0.89624 0.16457 0.62328 0.0
H1576 H 0.97076 0.19611 0.59707 0.0
H1577 H 0.93065 0.18459 0.59631 0.0
H1578 H 0.87534 0.15644 0.62954 0.0
H1579 H 0.89231 0.15468 0.60985 0.0
H1580 H 0.0185 0.22389 0.67619 0.0
H1581 H 0.03613 0.22815 0.65591 0.0
H1582 H 0.9852 0.23365 0.6866 0.0
H1583 H 0.94413 0.2162 0.68621 0.0
C1584 C 0.74869 0.72521 0.64823 0.0
C1585 C 0.76667 0.7588 0.65041 0.0
C1586 C 0.80911 0.75662 0.66822 0.0
C1587 C 0.79521 0.72416 0.66148 0.0
N1588 N 0.74948 0.67609 0.64661 0.0
N1589 N 0.79888 0.79969 0.67464 0.0
C1590 C 0.76425 0.70792 0.65195 0.0
C1591 C 0.7926 0.77286 0.66415 0.0
N1592 N 0.71628 0.71017 0.6461 0.0
N1593 N 0.83857 0.77242 0.67772 0.0
H1594 H 0.78432 0.80962 0.67313 0.0
H1595 H 0.81566 0.80945 0.68598 0.0
H1596 H 0.85177 0.76153 0.68077 0.0
H1597 H 0.85083 0.79692 0.68127 0.0
H1598 H 0.70168 0.68567 0.64606 0.0
H1599 H 0.70439 0.72294 0.64727 0.0
H1600 H 0.7284 0.66419 0.63796 0.0
H1601 H 0.75903 0.66198 0.65006 0.0
C1602 C 0.93917 0.74393 0.62398 0.0
C1603 C 0.97091 0.75604 0.63159 0.0
C1604 C 0.94983 0.73687 0.66066 0.0
C1605 C 0.91974 0.73174 0.65377 0.0
N1606 N 0.88748 0.73557 0.62933 0.0
N1607 N 0.99917 0.741 0.65274 0.0
C1608 C 0.91516 0.73731 0.63565 0.0
C1609 C 0.97471 0.74649 0.64894 0.0
N1610 N 0.93051 0.73203 0.60614 0.0
N1611 N 0.95455 0.73223 0.67828 0.0
H1612 H 0.01401 0.74175 0.64289 0.0
H1613 H 1.00182 0.7313 0.66438 0.0
H1614 H 0.9366 0.72465 0.68702 0.0
H1615 H 0.97686 0.73854 0.68458 0.0
H1616 H 0.90693 0.72052 0.60039 0.0
H1617 H 0.94604 0.72902 0.59818 0.0
H1618 H 0.88417 0.74136 0.61636 0.0
H1619 H 0.8696 0.73165 0.63771 0.0
C1620 C 0.24461 0.1841 0.62059 0.0
C1621 C 0.23467 0.20271 0.63069 0.0
C1622 C 0.26609 0.20406 0.65821 0.0
C1623 C 0.27717 0.18661 0.64793 0.0
N1624 N 0.28005 0.16279 0.61904 0.0
N1625 N 0.2384 0.23393 0.6582 0.0
C1626 C 0.26741 0.17756 0.629 0.0
C1627 C 0.24608 0.21365 0.64927 0.0
N1628 N 0.23147 0.17192 0.6031 0.0
N1629 N 0.27462 0.21133 0.67655 0.0
H1630 H 0.22326 0.24085 0.65219 0.0
H1631 H 0.24852 0.24566 0.67111 0.0
H1632 H 0.29084 0.20659 0.68338 0.0
H1633 H 0.26455 0.22061 0.68526 0.0
H1634 H 0.23466 0.15517 0.59557 0.0
H1635 H 0.21548 0.17701 0.59631 0.0
H1636 H 0.27692 0.15879 0.60492 0.0
H1637 H 0.29533 0.15591 0.62478 0.0
C1638 C 0.8152 0.04146 0.63131 0.0
C1639 C 0.78612 0.01604 0.63586 0.0
C1640 C 0.77833 0.05336 0.65549 0.0
C1641 C 0.80915 0.07804 0.65255 0.0
N1642 N 0.85987 0.09377 0.64107 0.0
N1643 N 0.74244 0.99661 0.65462 0.0
C1644 C 0.82843 0.07164 0.64137 0.0
C1645 C 0.7683 0.02162 0.64862 0.0
N1646 N 0.82981 0.03699 0.6171 0.0
N1647 N 0.75818 0.06034 0.66417 0.0
H1648 H 0.73442 0.97298 0.64995 0.0
H1649 H 0.73064 -0.00085 0.66535 0.0
H1650 H 0.76434 0.0834 0.66904 0.0
H1651 H 0.73434 0.0437 0.66504 0.0
H1652 H 0.84934 0.05557 0.61208 0.0
H1653 H 0.82057 0.01526 0.60918 0.0
H1654 H 0.8757 0.08919 0.63445 0.0
H1655 H 0.87095 0.11552 0.6491 0.0
C1656 C 0.45622 0.28942 0.71516 0.0
C1657 C 0.44648 0.31223 0.71763 0.0
C1658 C 0.39464 0.27486 0.70098 0.0
C1659 C 0.40321 0.25099 0.70021 0.0
N1660 N 0.43972 0.23372 0.71004 0.0
N1661 N 0.4046 0.32501 0.71591 0.0
C1662 C 0.43336 0.25774 0.70825 0.0
C1663 C 0.41511 0.30447 0.71143 0.0
N1664 N 0.48751 0.29822 0.71886 0.0
N1665 N 0.36774 0.26988 0.69105 0.0
H1666 H 0.41888 0.34689 0.72361 0.0
H1667 H 0.38094 0.31913 0.71341 0.0
H1668 H 0.35259 0.24892 0.68275 0.0
H1669 H 0.36211 0.28765 0.68964 0.0
H1670 H 0.4965 0.2834 0.71544 0.0
H1671 H 0.50511 0.32131 0.72379 0.0
H1672 H 0.46006 0.23684 0.71744 0.0
H1673 H 0.42321 0.21 0.70577 0.0
C1674 C 0.71915 0.16134 0.70915 0.0
C1675 C 0.70528 0.13355 0.71839 0.0
C1676 C 0.74637 0.12163 0.70957 0.0
C1677 C 0.7591 0.14834 0.69935 0.0
N1678 N 0.75626 0.19209 0.68786 0.0
N1679 N 0.70247 0.0848 0.72548 0.0
C1680 C 0.74495 0.16764 0.6986 0.0
C1681 C 0.71809 0.11307 0.71813 0.0
N1682 N 0.70841 0.18234 0.71107 0.0
N1683 N 0.76148 0.10452 0.71122 0.0
H1684 H 0.68196 0.0779 0.73208 0.0
H1685 H 0.70831 0.06705 0.72393 0.0
H1686 H 0.78067 0.10823 0.70404 0.0
H1687 H 0.75616 0.08772 0.72043 0.0
H1688 H 0.71954 0.20471 0.70641 0.0
H1689 H 0.68953 0.17845 0.71861 0.0
H1690 H 0.74482 0.20471 0.68498 0.0
H1691 H 0.77626 0.19871 0.68083 0.0
C1692 C 0.86847 0.57533 0.71416 0.0
C1693 C 0.88818 0.56824 0.70379 0.0
C1694 C 0.88179 0.5961 0.67896 0.0
C1695 C 0.86116 0.60215 0.6891 0.0
N1696 N 0.82926 0.59192 0.7143 0.0
N1697 N 0.90963 0.56674 0.67542 0.0
C1698 C 0.85281 0.59004 0.7061 0.0
C1699 C 0.89358 0.577 0.68586 0.0
N1700 N 0.86553 0.56889 0.7319 0.0
N1701 N 0.89114 0.60972 0.66317 0.0
H1702 H 0.91921 0.55335 0.68025 0.0
H1703 H 0.91151 0.56945 0.66163 0.0
H1704 H 0.88235 0.62318 0.6575 0.0
H1705 H 0.909 0.60936 0.65624 0.0
H1706 H 0.85468 0.57699 0.7408 0.0
H1707 H 0.87605 0.55745 0.73824 0.0
H1708 H 0.81972 0.58071 0.72577 0.0
H1709 H 0.81704 0.60221 0.70862 0.0
C1710 C 0.46334 0.94158 0.1476 0.0
C1711 C 0.47687 0.96079 0.16445 0.0
C1712 C 0.50654 0.00759 0.14805 0.0
C1713 C 0.4962 0.98771 0.13136 0.0
N1714 N 0.4688 0.93482 0.11554 0.0
N1715 N 0.51579 0.01121 0.1808 0.0
C1716 C 0.47561 0.9544 0.13119 0.0
C1717 C 0.49966 0.99361 0.16471 0.0
N1718 N 0.43817 0.91132 0.14722 0.0
N1719 N 0.52213 0.03988 0.14799 0.0
H1720 H 0.51192 0.00185 0.1933 0.0
H1721 H 0.53506 0.03431 0.18157 0.0
H1722 H 0.52716 0.05105 0.13605 0.0
H1723 H 0.52728 0.05545 0.15961 0.0
H1724 H 0.42523 0.89734 0.13522 0.0
H1725 H 0.42826 0.90128 0.15893 0.0
H1726 H 0.45662 0.91013 0.11505 0.0
H1727 H 0.47783 0.94319 0.10333 0.0
C1728 C 0.99637 0.50581 0.16007 0.0
C1729 C 0.01736 0.49539 0.16628 0.0
C1730 C 0.01512 0.47278 0.13537 0.0
C1731 C 0.99673 0.48597 0.12892 0.0
N1732 N 0.97376 0.51913 0.13447 0.0
N1733 N 0.0505 0.47301 0.15979 0.0
C1734 C 0.98838 0.5036 0.14109 0.0
C1735 C 0.02776 0.47992 0.15392 0.0
N1736 N 0.98337 0.51699 0.17235 0.0
N1737 N 0.01971 0.45271 0.12388 0.0
H1738 H 0.06016 0.47769 0.17331 0.0
H1739 H 0.06164 0.46498 0.15107 0.0
H1740 H 0.01088 0.44699 0.11018 0.0
H1741 H 0.02995 0.43965 0.1282 0.0
H1742 H 0.9653 0.5217 0.16874 0.0
H1743 H 0.98867 0.51898 0.18638 0.0
H1744 H 0.9703 0.53524 0.14248 0.0
H1745 H 0.9674 0.51798 0.12064 0.0
C1746 C 0.44495 0.4806 0.14592 0.0
C1747 C 0.45545 0.46874 0.16013 0.0
C1748 C 0.46939 0.44039 0.13722 0.0
C1749 C 0.46648 0.45881 0.12398 0.0
N1750 N 0.4255 0.47002 0.11421 0.0
N1751 N 0.47422 0.43373 0.16917 0.0
C1752 C 0.44659 0.4715 0.12766 0.0
C1753 C 0.46643 0.4473 0.15574 0.0
N1754 N 0.43449 0.50137 0.14967 0.0
N1755 N 0.46988 0.41348 0.13169 0.0
H1756 H 0.47033 0.43644 0.18272 0.0
H1757 H 0.48587 0.42101 0.16692 0.0
H1758 H 0.46672 0.40541 0.11791 0.0
H1759 H 0.46904 0.3973 0.14049 0.0
H1760 H 0.42929 0.51247 0.13953 0.0
H1761 H 0.43357 0.50949 0.16286 0.0
H1762 H 0.40847 0.47647 0.1166 0.0
H1763 H 0.42232 0.45806 0.10138 0.0
C1764 C 0.96867 0.50913 0.85999 0.0
C1765 C 0.99207 0.52755 0.84847 0.0
C1766 C 0.02689 0.56177 0.87528 0.0
C1767 C 0.00701 0.53855 0.88642 0.0
N1768 N 0.95079 0.51072 0.8895 0.0
N1769 N 0.04284 0.5738 0.84504 0.0
C1770 C 0.97515 0.51776 0.879 0.0
C1771 C 0.02098 0.55478 0.85606 0.0
N1772 N 0.94062 0.48298 0.85297 0.0
N1773 N 0.04784 0.5919 0.88293 0.0
H1774 H 0.03873 0.57039 0.83089 0.0
H1775 H 0.06569 0.59184 0.85003 0.0
H1776 H 0.04858 0.59862 0.89671 0.0
H1777 H 0.06097 0.61077 0.87538 0.0
H1778 H 0.92431 0.46744 0.86121 0.0
H1779 H 0.93489 0.47551 0.83908 0.0
H1780 H 0.9269 0.49789 0.8843 0.0
H1781 H 0.95494 0.52179 0.90271 0.0
C1782 C 0.50189 0.49832 0.85321 0.0
C1783 C 0.53406 0.50711 0.8515 0.0
C1784 C 0.54775 0.52519 0.8841 0.0
C1785 C 0.51502 0.51345 0.88609 0.0
N1786 N 0.46022 0.48534 0.87322 0.0
N1787 N 0.58734 0.52625 0.86514 0.0
C1788 C 0.49188 0.49922 0.8708 0.0
C1789 C 0.55699 0.51994 0.8669 0.0
N1790 N 0.48101 0.48947 0.83795 0.0
N1791 N 0.56999 0.54194 0.89859 0.0
H1792 H 0.59518 0.52372 0.85264 0.0
H1793 H 0.60424 0.53209 0.87612 0.0
H1794 H 0.56402 0.54601 0.9114 0.0
H1795 H 0.59443 0.55388 0.89766 0.0
H1796 H 0.45821 0.48617 0.8381 0.0
H1797 H 0.4873 0.48785 0.82485 0.0
H1798 H 0.44204 0.47135 0.86298 0.0
H1799 H 0.45192 0.48571 0.88587 0.0
C1800 C 0.52557 0.0019 0.85297 0.0
C1801 C 0.53196 0.033 0.85026 0.0
C1802 C 0.52365 0.04145 0.88211 0.0
C1803 C 0.51418 0.00933 0.88425 0.0
N1804 N 0.50243 0.95763 0.87134 0.0
N1805 N 0.53293 0.08104 0.86134 0.0
C1806 C 0.51417 0.98917 0.86957 0.0
C1807 C 0.53001 0.05249 0.86462 0.0
N1808 N 0.53131 0.9849 0.83986 0.0
N1809 N 0.52717 0.06157 0.89691 0.0
H1810 H 0.53767 0.09003 0.84875 0.0
H1811 H 0.52819 0.0947 0.87061 0.0
H1812 H 0.52217 0.05419 0.90985 0.0
H1813 H 0.53743 0.08603 0.89671 0.0
H1814 H 0.53037 0.9635 0.84172 0.0
H1815 H 0.53969 0.99349 0.82757 0.0
H1816 H 0.49831 0.94091 0.86053 0.0
H1817 H 0.49453 0.94762 0.8834 0.0
C1818 C 0.1848 0.31847 0.49624 0.0
C1819 C 0.15236 0.30074 0.49967 0.0
C1820 C 0.13625 0.31064 0.46986 0.0
C1821 C 0.16842 0.32563 0.46575 0.0
N1822 N 0.22268 0.33912 0.47376 0.0
N1823 N 0.09675 0.27566 0.48877 0.0
C1824 C 0.19255 0.32828 0.47861 0.0
C1825 C 0.12792 0.29567 0.48621 0.0
N1826 N 0.20829 0.32681 0.51001 0.0
N1827 N 0.11381 0.31155 0.45841 0.0
H1828 H 0.08972 0.26434 0.50055 0.0
H1829 H 0.07804 0.2682 0.47865 0.0
H1830 H 0.11899 0.3223 0.44634 0.0
H1831 H 0.09071 0.3041 0.46158 0.0
H1832 H 0.23227 0.34259 0.5089 0.0
H1833 H 0.20361 0.32024 0.52313 0.0
H1834 H 0.2404 0.33826 0.48181 0.0
H1835 H 0.2293 0.34641 0.46097 0.0
C1836 C 0.66493 0.83967 0.49327 0.0
C1837 C 0.68302 0.8257 0.49891 0.0
C1838 C 0.67565 0.80068 0.46794 0.0
C1839 C 0.66041 0.81729 0.46198 0.0
N1840 N 0.64449 0.85617 0.46822 0.0
N1841 N 0.70933 0.79631 0.49157 0.0
C1842 C 0.65605 0.83773 0.47445 0.0
C1843 C 0.68936 0.80704 0.48624 0.0
N1844 N 0.65559 0.8541 0.50596 0.0
N1845 N 0.67627 0.77825 0.45621 0.0
H1846 H 0.71949 0.80018 0.50493 0.0
H1847 H 0.71776 0.78568 0.48254 0.0
H1848 H 0.66657 0.77305 0.44268 0.0
H1849 H 0.684 0.76296 0.46022 0.0
H1850 H 0.63952 0.86169 0.50285 0.0
H1851 H 0.66172 0.85607 0.5199 0.0
H1852 H 0.64415 0.87414 0.47638 0.0
H1853 H 0.6376 0.85535 0.45451 0.0
C1854 C 0.1123 0.8277 0.47765 0.0
C1855 C 0.11818 0.81202 0.49157 0.0
C1856 C 0.12649 0.77965 0.46824 0.0
C1857 C 0.12873 0.80094 0.45543 0.0
N1858 N 0.09571 0.8221 0.44575 0.0
N1859 N 0.12783 0.77027 0.49992 0.0
C1860 C 0.11353 0.81866 0.45928 0.0
C1861 C 0.12419 0.78697 0.48681 0.0
N1862 N 0.10646 0.85183 0.48183 0.0
N1863 N 0.12124 0.75029 0.46222 0.0
H1864 H 0.1244 0.77355 0.51349 0.0
H1865 H 0.13586 0.75434 0.49739 0.0
H1866 H 0.11722 0.74254 0.44835 0.0
H1867 H 0.11645 0.73249 0.47069 0.0
H1868 H 0.10492 0.8656 0.47205 0.0
H1869 H 0.10575 0.85967 0.49514 0.0
H1870 H 0.0818 0.83242 0.44814 0.0
H1871 H 0.09137 0.81037 0.43271 0.0
C1872 C 0.63035 0.83561 0.19337 0.0
C1873 C 0.65407 0.85329 0.18183 0.0
C1874 C 0.68984 0.88634 0.20864 0.0
C1875 C 0.66926 0.86356 0.21977 0.0
N1876 N 0.61314 0.83812 0.22297 0.0
N1877 N 0.70597 0.89792 0.1784 0.0
C1878 C 0.63715 0.844 0.21239 0.0
C1879 C 0.68368 0.87958 0.18943 0.0
N1880 N 0.60162 0.81042 0.18634 0.0
N1881 N 0.71189 0.9161 0.21634 0.0
H1882 H 0.7018 0.89469 0.16425 0.0
H1883 H 0.72918 0.91513 0.18338 0.0
H1884 H 0.71301 0.92291 0.23015 0.0
H1885 H 0.72567 0.93478 0.20882 0.0
H1886 H 0.58491 0.7953 0.19456 0.0
H1887 H 0.59559 0.80321 0.17243 0.0
H1888 H 0.58923 0.82629 0.21783 0.0
H1889 H 0.61781 0.84928 0.23619 0.0
C1890 C 0.22281 0.86809 0.19723 0.0
C1891 C 0.199 0.85026 0.18259 0.0
C1892 C 0.15734 0.83721 0.2032 0.0
C1893 C 0.18104 0.85657 0.21763 0.0
N1894 N 0.23576 0.89533 0.22772 0.0
N1895 N 0.14379 0.82357 0.17064 0.0
C1896 C 0.21366 0.87351 0.21444 0.0
C1897 C 0.16629 0.83661 0.18529 0.0
N1898 N 0.25408 0.87877 0.1949 0.0
N1899 N 0.12648 0.81824 0.20674 0.0
H1900 H 0.14948 0.82281 0.1573 0.0
H1901 H 0.11986 0.81623 0.17151 0.0
H1902 H 0.11892 0.81774 0.21968 0.0
H1903 H 0.10887 0.80097 0.19717 0.0
H1904 H 0.27218 0.88867 0.20556 0.0
H1905 H 0.26173 0.87563 0.18245 0.0
H1906 H 0.25939 0.91077 0.22563 0.0
H1907 H 0.22988 0.89998 0.24044 0.0
C1908 C 0.18096 0.33024 0.18422 0.0
C1909 C 0.19235 0.36307 0.1831 0.0
C1910 C 0.18985 0.37052 0.216 0.0
C1911 C 0.17524 0.33717 0.2167 0.0
N1912 N 0.15232 0.28459 0.20096 0.0
N1913 N 0.20297 0.41369 0.19733 0.0
C1914 C 0.16957 0.31682 0.20065 0.0
C1915 C 0.19559 0.38304 0.19885 0.0
N1916 N 0.18194 0.31207 0.16972 0.0
N1917 N 0.19911 0.39032 0.23179 0.0
H1918 H 0.20722 0.42373 0.18503 0.0
H1919 H 0.20221 0.42831 0.20792 0.0
H1920 H 0.19537 0.38207 0.2446 0.0
H1921 H 0.21297 0.41496 0.23232 0.0
H1922 H 0.17718 0.28887 0.17033 0.0
H1923 H 0.19036 0.3211 0.15752 0.0
H1924 H 0.14439 0.26855 0.18929 0.0
H1925 H 0.14352 0.27384 0.2127 0.0
C1926 C 0.84879 0.65352 0.82917 0.0
C1927 C 0.81627 0.63392 0.83204 0.0
C1928 C 0.80024 0.64232 0.80176 0.0
C1929 C 0.83273 0.65941 0.79828 0.0
N1930 N 0.8877 0.67682 0.80745 0.0
N1931 N 0.76099 0.60554 0.82012 0.0
C1932 C 0.85696 0.6638 0.81167 0.0
C1933 C 0.79195 0.6272 0.81806 0.0
N1934 N 0.87186 0.66313 0.84337 0.0
N1935 N 0.77739 0.64137 0.78973 0.0
H1936 H 0.75398 0.59411 0.83188 0.0
H1937 H 0.74261 0.59693 0.80968 0.0
H1938 H 0.78251 0.6521 0.77766 0.0
H1939 H 0.75379 0.63229 0.7924 0.0
H1940 H 0.89562 0.68017 0.84268 0.0
H1941 H 0.86684 0.6562 0.85639 0.0
H1942 H 0.90583 0.67742 0.81591 0.0
H1943 H 0.89464 0.68458 0.79479 0.0
C1944 C 0.32408 0.16234 0.82662 0.0
C1945 C 0.34407 0.15037 0.83213 0.0
C1946 C 0.33896 0.12728 0.80093 0.0
C1947 C 0.3223 0.14261 0.7951 0.0
N1948 N 0.30219 0.17796 0.80181 0.0
N1949 N 0.37354 0.12432 0.82458 0.0
C1950 C 0.31553 0.16089 0.8078 0.0
C1951 C 0.35221 0.13343 0.81932 0.0
N1952 N 0.31286 0.1746 0.83944 0.0
N1953 N 0.3415 0.10635 0.78896 0.0
H1954 H 0.38335 0.12795 0.838 0.0
H1955 H 0.38328 0.11521 0.81549 0.0
H1956 H 0.33211 0.10132 0.77536 0.0
H1957 H 0.35048 0.09196 0.7928 0.0
H1958 H 0.29559 0.18069 0.8364 0.0
H1959 H 0.31869 0.17607 0.85338 0.0
H1960 H 0.30004 0.19456 0.81022 0.0
H1961 H 0.2955 0.17748 0.78812 0.0
C1962 C 0.79936 0.11782 0.82193 0.0
C1963 C 0.79011 0.14079 0.82584 0.0
C1964 C 0.78327 0.14374 0.79319 0.0
C1965 C 0.80153 0.12897 0.79006 0.0
N1966 N 0.80004 0.08153 0.79841 0.0
N1967 N 0.77245 0.17555 0.81461 0.0
C1968 C 0.8022 0.1099 0.80356 0.0
C1969 C 0.78137 0.15343 0.8113 0.0
N1970 N 0.80552 0.10365 0.83566 0.0
N1971 N 0.76397 0.14407 0.77927 0.0
H1972 H 0.77133 0.184 0.82768 0.0
H1973 H 0.76873 0.18729 0.8043 0.0
H1974 H 0.76109 0.13227 0.76642 0.0
H1975 H 0.74795 0.15202 0.78117 0.0
H1976 H 0.81586 0.08959 0.83372 0.0
H1977 H 0.80169 0.10719 0.84912 0.0
H1978 H 0.79749 0.06508 0.80745 0.0
H1979 H 0.79616 0.07276 0.78471 0.0
C1980 C 0.35168 0.21587 0.526 0.0
C1981 C 0.32188 0.18922 0.51897 0.0
C1982 C 0.30767 0.1797 0.55 0.0
C1983 C 0.34016 0.1996 0.55651 0.0
N1984 N 0.38069 0.25285 0.55258 0.0
N1985 N 0.27023 0.14611 0.52455 0.0
C1986 C 0.35925 0.22274 0.54513 0.0
C1987 C 0.29923 0.17148 0.53103 0.0
N1988 N 0.37276 0.23451 0.51452 0.0
N1989 N 0.28479 0.17242 0.56164 0.0
H1990 H 0.26308 0.13894 0.51071 0.0
H1991 H 0.25437 0.13083 0.53307 0.0
H1992 H 0.29068 0.18234 0.57519 0.0
H1993 H 0.26051 0.16031 0.55734 0.0
H1994 H 0.39608 0.25206 0.51904 0.0
H1995 H 0.36745 0.23128 0.50043 0.0
H1996 H 0.39335 0.27161 0.54486 0.0
H1997 H 0.38208 0.25972 0.5664 0.0
C1998 C 0.89202 0.18578 0.5344 0.0
C1999 C 0.86897 0.17282 0.51905 0.0
C2000 C 0.8273 0.16669 0.53839 0.0
C2001 C 0.85058 0.18098 0.55361 0.0
N2002 N 0.90565 0.20887 0.5659 0.0
N2003 N 0.81607 0.1559 0.50556 0.0
C2004 C 0.88316 0.19195 0.55154 0.0
C2005 C 0.83702 0.16485 0.52079 0.0
N2006 N 0.92213 0.19131 0.53266 0.0
N2007 N 0.79574 0.15365 0.54088 0.0
H2008 H 0.82216 0.15364 0.49248 0.0
H2009 H 0.79347 0.15314 0.50568 0.0
H2010 H 0.78767 0.15478 0.55351 0.0
H2011 H 0.77735 0.13964 0.53074 0.0
H2012 H 0.93902 0.19718 0.54365 0.0
H2013 H 0.92971 0.18808 0.52021 0.0
H2014 H 0.93006 0.22031 0.56488 0.0
H2015 H 0.89996 0.2136 0.57867 0.0
C2016 C 0.83753 0.7047 0.52547 0.0
C2017 C 0.86202 0.70256 0.51707 0.0
C2018 C 0.87137 0.67959 0.5437 0.0
C2019 C 0.84429 0.67804 0.55095 0.0
N2020 N 0.79836 0.68445 0.54725 0.0
N2021 N 0.89919 0.68354 0.51694 0.0
C2022 C 0.82649 0.68937 0.54144 0.0
C2023 C 0.8782 0.68886 0.52587 0.0
N2024 N 0.82551 0.72228 0.51854 0.0
N2025 N 0.89113 0.67313 0.55406 0.0
H2026 H 0.90461 0.68969 0.50383 0.0
H2027 H 0.9091 0.67056 0.52188 0.0
H2028 H 0.88708 0.66659 0.56723 0.0
H2029 H 0.913 0.6771 0.55028 0.0
H2030 H 0.81003 0.72743 0.52515 0.0
H2031 H 0.83339 0.73439 0.50709 0.0
H2032 H 0.78267 0.68906 0.53974 0.0
H2033 H 0.78925 0.67307 0.55877 0.0
loop_
_geom_bond_atom_site_label_1
_geom_bond_atom_site_label_2
_geom_bond_distance
_geom_bond_site_symmetry_2
_ccdc_geom_bond_type
C0 C1 1.386 . S
C0 C2 1.397 . S
C0 H24 0.931 . S
C1 C0 1.386 . S
C1 C5 1.397 . S
C2 C0 1.397 . S
C2 C3 1.384 . S
C2 H25 0.930 . S
C3 C2 1.384 . S
C3 C4 1.377 . S
C3 C6 1.481 . S
C4 C3 1.377 . S
C4 C5 1.389 . S
C4 H26 0.929 . S
C5 C1 1.397 . S
C5 C4 1.389 . S
C5 H27 0.931 . S
C6 C3 1.481 . S
C6 C7 1.387 . S
C6 C11 1.390 . S
C7 C6 1.387 . S
C7 C8 1.401 . S
C7 H28 0.930 . S
C8 C7 1.401 . S
C8 C9 1.376 . S
C8 C17 1.511 . S
C9 C8 1.376 . S
C9 C10 1.392 . S
C9 H30 0.931 . S
C10 C9 1.392 . S
C10 C11 1.361 . S
C10 C12 1.500 . S
C11 C6 1.390 . S
C11 C10 1.361 . S
C11 H29 0.931 . S
C12 C10 1.500 . S
C12 C13 1.371 . S
C12 C14 1.365 . S
C13 C12 1.371 . S
C13 C23 1.386 . S
C13 H31 0.931 . S
C14 C12 1.365 . S
C14 C15 1.409 . S
C14 H32 0.929 . S
C15 C14 1.409 . S
C15 C16 1.380 . S
C15 H33 0.930 . S
C16 C15 1.380 . S
C16 C23 1.357 . S
C17 C8 1.511 . S
C17 C18 1.341 . S
C17 C19 1.371 . S
C18 C17 1.341 . S
C18 C22 1.394 . S
C18 H34 0.930 . S
C19 C17 1.371 . S
C19 C20 1.392 . S
C19 H35 0.931 . S
C20 C19 1.392 . S
C20 C21 1.331 . S
C20 H38 0.932 . S
C21 C20 1.331 . S
C21 C22 1.336 . S
C22 C18 1.394 . S
C22 C21 1.336 . S
C22 H37 0.929 . S
C23 C13 1.386 . S
C23 C16 1.357 . S
C23 H36 0.928 . S
H24 C0 0.931 . S
H25 C2 0.930 . S
H26 C4 0.929 . S
H27 C5 0.931 . S
H28 C7 0.930 . S
H29 C11 0.931 . S
H30 C9 0.931 . S
H31 C13 0.931 . S
H32 C14 0.929 . S
H33 C15 0.930 . S
H34 C18 0.930 . S
H35 C19 0.931 . S
H36 C23 0.928 . S
H37 C22 0.929 . S
H38 C20 0.932 . S
C39 C40 1.386 . S
C39 C41 1.397 . S
C39 H63 0.931 . S
C40 C39 1.386 . S
C40 C44 1.397 . S
C41 C39 1.397 . S
C41 C42 1.384 . S
C41 H64 0.930 . S
C42 C41 1.384 . S
C42 C43 1.377 . S
C42 C45 1.481 . S
C43 C42 1.377 . S
C43 C44 1.389 . S
C43 H65 0.929 . S
C44 C40 1.397 . S
C44 C43 1.389 . S
C44 H66 0.931 . S
C45 C42 1.481 . S
C45 C46 1.387 . S
C45 C50 1.390 . S
C46 C45 1.387 . S
C46 C47 1.401 . S
C46 H67 0.930 . S
C47 C46 1.401 . S
C47 C48 1.376 . S
C47 C56 1.511 . S
C48 C47 1.376 . S
C48 C49 1.392 . S
C48 H69 0.931 . S
C49 C48 1.392 . S
C49 C50 1.361 . S
C49 C51 1.500 . S
C50 C45 1.390 . S
C50 C49 1.361 . S
C50 H68 0.931 . S
C51 C49 1.500 . S
C51 C52 1.371 . S
C51 C53 1.365 . S
C52 C51 1.371 . S
C52 C62 1.386 . S
C52 H70 0.931 . S
C53 C51 1.365 . S
C53 C54 1.409 . S
C53 H71 0.929 . S
C54 C53 1.409 . S
C54 C55 1.380 . S
C54 H72 0.930 . S
C55 C54 1.380 . S
C55 C62 1.357 . S
C56 C47 1.511 . S
C56 C57 1.341 . S
C56 C58 1.371 . S
C57 C56 1.341 . S
C57 C61 1.394 . S
C57 H73 0.930 . S
C58 C56 1.371 . S
C58 C59 1.392 . S
C58 H74 0.931 . S
C59 C58 1.392 . S
C59 C60 1.331 . S
C59 H77 0.932 . S
C60 C59 1.331 . S
C60 C61 1.336 . S
C61 C57 1.394 . S
C61 C60 1.336 . S
C61 H76 0.929 . S
C62 C52 1.386 . S
C62 C55 1.357 . S
C62 H75 0.928 . S
H63 C39 0.931 . S
H64 C41 0.930 . S
H65 C43 0.929 . S
H66 C44 0.931 . S
H67 C46 0.930 . S
H68 C50 0.931 . S
H69 C48 0.931 . S
H70 C52 0.931 . S
H71 C53 0.929 . S
H72 C54 0.930 . S
H73 C57 0.930 . S
H74 C58 0.931 . S
H75 C62 0.928 . S
H76 C61 0.929 . S
H77 C59 0.932 . S
C78 C79 1.386 . S
C78 C80 1.397 . S
C78 H102 0.931 . S
C79 C78 1.386 . S
C79 C83 1.397 . S
C80 C78 1.397 . S
C80 C81 1.384 . S
C80 H103 0.930 . S
C81 C80 1.384 . S
C81 C82 1.377 . S
C81 C84 1.481 . S
C82 C81 1.377 . S
C82 C83 1.389 . S
C82 H104 0.929 . S
C83 C79 1.397 . S
C83 C82 1.389 . S
C83 H105 0.931 . S
C84 C81 1.481 . S
C84 C85 1.387 . S
C84 C89 1.390 . S
C85 C84 1.387 . S
C85 C86 1.401 . S
C85 H106 0.930 . S
C86 C85 1.401 . S
C86 C87 1.376 . S
C86 C95 1.511 . S
C87 C86 1.376 . S
C87 C88 1.392 . S
C87 H108 0.931 . S
C88 C87 1.392 . S
C88 C89 1.361 . S
C88 C90 1.500 . S
C89 C84 1.390 . S
C89 C88 1.361 . S
C89 H107 0.931 . S
C90 C88 1.500 . S
C90 C91 1.371 . S
C90 C92 1.365 . S
C91 C90 1.371 . S
C91 C101 1.386 . S
C91 H109 0.931 . S
C92 C90 1.365 . S
C92 C93 1.409 . S
C92 H110 0.929 . S
C93 C92 1.409 . S
C93 C94 1.380 . S
C93 H111 0.930 . S
C94 C93 1.380 . S
C94 C101 1.357 . S
C95 C86 1.511 . S
C95 C96 1.341 . S
C95 C97 1.371 . S
C96 C95 1.341 . S
C96 C100 1.394 . S
C96 H112 0.930 . S
C97 C95 1.371 . S
C97 C98 1.392 . S
C97 H113 0.931 . S
C98 C97 1.392 . S
C98 C99 1.331 . S
C98 H116 0.932 . S
C99 C98 1.331 . S
C99 C100 1.336 . S
C100 C96 1.394 . S
C100 C99 1.336 . S
C100 H115 0.929 1_655 S
C101 C91 1.386 . S
C101 C94 1.357 . S
C101 H114 0.928 . S
H102 C78 0.931 . S
H103 C80 0.930 . S
H104 C82 0.929 . S
H105 C83 0.931 . S
H106 C85 0.930 . S
H107 C89 0.931 . S
H108 C87 0.931 . S
H109 C91 0.931 . S
H110 C92 0.929 . S
H111 C93 0.930 . S
H112 C96 0.930 . S
H113 C97 0.931 . S
H114 C101 0.928 . S
H115 C100 0.929 1_455 S
H116 C98 0.932 . S
C117 C118 1.386 . S
C117 C119 1.397 . S
C117 H141 0.931 . S
C118 C117 1.386 . S
C118 C122 1.397 . S
C119 C117 1.397 . S
C119 C120 1.384 . S
C119 H142 0.930 . S
C120 C119 1.384 . S
C120 C121 1.377 . S
C120 C123 1.481 . S
C121 C120 1.377 . S
C121 C122 1.389 . S
C121 H143 0.929 . S
C122 C118 1.397 . S
C122 C121 1.389 . S
C122 H144 0.931 . S
C123 C120 1.481 . S
C123 C124 1.387 . S
C123 C128 1.390 . S
C124 C123 1.387 . S
C124 C125 1.401 . S
C124 H145 0.930 . S
C125 C124 1.401 . S
C125 C126 1.376 . S
C125 C134 1.511 . S
C126 C125 1.376 . S
C126 C127 1.392 . S
C126 H147 0.931 . S
C127 C126 1.392 . S
C127 C128 1.361 . S
C127 C129 1.500 . S
C128 C123 1.390 . S
C128 C127 1.361 . S
C128 H146 0.931 . S
C129 C127 1.500 . S
C129 C130 1.371 . S
C129 C131 1.365 . S
C130 C129 1.371 . S
C130 C140 1.386 . S
C130 H148 0.931 . S
C131 C129 1.365 . S
C131 C132 1.409 . S
C131 H149 0.929 . S
C132 C131 1.409 . S
C132 C133 1.380 . S
C132 H150 0.930 . S
C133 C132 1.380 . S
C133 C140 1.357 . S
C134 C125 1.511 . S
C134 C135 1.341 . S
C134 C136 1.371 . S
C135 C134 1.341 . S
C135 C139 1.394 . S
C135 H151 0.930 . S
C136 C134 1.371 . S
C136 C137 1.392 . S
C136 H152 0.931 . S
C137 C136 1.392 . S
C137 C138 1.331 . S
C137 H155 0.932 . S
C138 C137 1.331 . S
C138 C139 1.336 . S
C139 C135 1.394 . S
C139 C138 1.336 . S
C139 H154 0.929 . S
C140 C130 1.386 . S
C140 C133 1.357 . S
C140 H153 0.928 . S
H141 C117 0.931 . S
H142 C119 0.930 . S
H143 C121 0.929 . S
H144 C122 0.931 . S
H145 C124 0.930 . S
H146 C128 0.931 . S
H147 C126 0.931 . S
H148 C130 0.931 . S
H149 C131 0.929 . S
H150 C132 0.930 . S
H151 C135 0.930 . S
H152 C136 0.931 . S
H153 C140 0.928 . S
H154 C139 0.929 . S
H155 C137 0.932 . S
C156 C157 1.386 . S
C156 C158 1.397 . S
C156 H180 0.931 . S
C157 C156 1.386 . S
C157 C161 1.397 . S
C158 C156 1.397 . S
C158 C159 1.384 . S
C158 H181 0.930 . S
C159 C158 1.384 . S
C159 C160 1.377 . S
C159 C162 1.481 . S
C160 C159 1.377 . S
C160 C161 1.389 . S
C160 H182 0.929 . S
C161 C157 1.397 . S
C161 C160 1.389 . S
C161 H183 0.931 . S
C162 C159 1.481 . S
C162 C163 1.387 . S
C162 C167 1.390 . S
C163 C162 1.387 . S
C163 C164 1.401 . S
C163 H184 0.930 . S
C164 C163 1.401 . S
C164 C165 1.376 . S
C164 C173 1.511 . S
C165 C164 1.376 . S
C165 C166 1.392 . S
C165 H186 0.931 . S
C166 C165 1.392 . S
C166 C167 1.361 . S
C166 C168 1.500 . S
C167 C162 1.390 . S
C167 C166 1.361 . S
C167 H185 0.931 . S
C168 C166 1.500 . S
C168 C169 1.371 . S
C168 C170 1.365 . S
C169 C168 1.371 . S
C169 C179 1.386 . S
C169 H187 0.931 . S
C170 C168 1.365 . S
C170 C171 1.409 . S
C170 H188 0.929 . S
C171 C170 1.409 . S
C171 C172 1.380 . S
C171 H189 0.930 . S
C172 C171 1.380 . S
C172 C179 1.357 . S
C173 C164 1.511 . S
C173 C174 1.341 . S
C173 C175 1.371 . S
C174 C173 1.341 . S
C174 C178 1.394 . S
C174 H190 0.930 . S
C175 C173 1.371 . S
C175 C176 1.392 . S
C175 H191 0.931 . S
C176 C175 1.392 . S
C176 C177 1.331 . S
C176 H194 0.932 . S
C177 C176 1.331 . S
C177 C178 1.336 . S
C178 C174 1.394 . S
C178 C177 1.336 . S
C178 H193 0.929 . S
C179 C169 1.386 . S
C179 C172 1.357 . S
C179 H192 0.928 . S
H180 C156 0.931 . S
H181 C158 0.930 . S
H182 C160 0.929 . S
H183 C161 0.931 . S
H184 C163 0.930 . S
H185 C167 0.931 . S
H186 C165 0.931 . S
H187 C169 0.931 . S
H188 C170 0.929 . S
H189 C171 0.930 . S
H190 C174 0.930 . S
H191 C175 0.931 . S
H192 C179 0.928 . S
H193 C178 0.929 . S
H194 C176 0.932 . S
C195 C196 1.386 . S
C195 C197 1.397 . S
C195 H219 0.931 . S
C196 C195 1.386 . S
C196 C200 1.397 . S
C197 C195 1.397 . S
C197 C198 1.384 . S
C197 H220 0.930 . S
C198 C197 1.384 . S
C198 C199 1.377 . S
C198 C201 1.481 . S
C199 C198 1.377 . S
C199 C200 1.389 . S
C199 H221 0.929 . S
C200 C196 1.397 . S
C200 C199 1.389 . S
C200 H222 0.931 . S
C201 C198 1.481 . S
C201 C202 1.387 . S
C201 C206 1.390 . S
C202 C201 1.387 . S
C202 C203 1.401 . S
C202 H223 0.930 . S
C203 C202 1.401 . S
C203 C204 1.376 . S
C203 C212 1.511 . S
C204 C203 1.376 . S
C204 C205 1.392 . S
C204 H225 0.931 . S
C205 C204 1.392 . S
C205 C206 1.361 . S
C205 C207 1.500 . S
C206 C201 1.390 . S
C206 C205 1.361 . S
C206 H224 0.931 . S
C207 C205 1.500 . S
C207 C208 1.371 . S
C207 C209 1.365 . S
C208 C207 1.371 . S
C208 C218 1.386 . S
C208 H226 0.931 . S
C209 C207 1.365 . S
C209 C210 1.409 . S
C209 H227 0.929 . S
C210 C209 1.409 . S
C210 C211 1.380 . S
C210 H228 0.930 . S
C211 C210 1.380 . S
C211 C218 1.357 . S
C212 C203 1.511 . S
C212 C213 1.341 . S
C212 C214 1.371 . S
C213 C212 1.341 . S
C213 C217 1.394 . S
C213 H229 0.930 . S
C214 C212 1.371 . S
C214 C215 1.392 . S
C214 H230 0.931 . S
C215 C214 1.392 . S
C215 C216 1.331 . S
C215 H233 0.932 . S
C216 C215 1.331 . S
C216 C217 1.336 . S
C217 C213 1.394 . S
C217 C216 1.336 . S
C217 H232 0.929 . S
C218 C208 1.386 . S
C218 C211 1.357 . S
C218 H231 0.928 . S
H219 C195 0.931 . S
H220 C197 0.930 . S
H221 C199 0.929 . S
H222 C200 0.931 . S
H223 C202 0.930 . S
H224 C206 0.931 . S
H225 C204 0.931 . S
H226 C208 0.931 . S
H227 C209 0.929 . S
H228 C210 0.930 . S
H229 C213 0.930 . S
H230 C214 0.931 . S
H231 C218 0.928 . S
H232 C217 0.929 . S
H233 C215 0.932 . S
C234 C235 1.386 . S
C234 C236 1.397 . S
C234 H258 0.931 . S
C235 C234 1.386 . S
C235 C239 1.397 1_655 S
C236 C234 1.397 . S
C236 C237 1.384 . S
C236 H259 0.930 . S
C237 C236 1.384 . S
C237 C238 1.377 1_655 S
C237 C240 1.481 . S
C238 C237 1.377 1_455 S
C238 C239 1.389 . S
C238 H260 0.929 . S
C239 C235 1.397 1_455 S
C239 C238 1.389 . S
C239 H261 0.931 . S
C240 C237 1.481 . S
C240 C241 1.387 . S
C240 C245 1.390 . S
C241 C240 1.387 . S
C241 C242 1.401 . S
C241 H262 0.930 . S
C242 C241 1.401 . S
C242 C243 1.376 . S
C242 C251 1.511 . S
C243 C242 1.376 . S
C243 C244 1.392 . S
C243 H264 0.931 . S
C244 C243 1.392 . S
C244 C245 1.361 . S
C244 C246 1.500 . S
C245 C240 1.390 . S
C245 C244 1.361 . S
C245 H263 0.931 . S
C246 C244 1.500 . S
C246 C247 1.371 . S
C246 C248 1.365 . S
C247 C246 1.371 . S
C247 C257 1.386 . S
C247 H265 0.931 . S
C248 C246 1.365 . S
C248 C249 1.409 . S
C248 H266 0.929 . S
C249 C248 1.409 . S
C249 C250 1.380 . S
C249 H267 0.930 . S
C250 C249 1.380 . S
C250 C257 1.357 . S
C251 C242 1.511 . S
C251 C252 1.341 . S
C251 C253 1.371 . S
C252 C251 1.341 . S
C252 C256 1.394 . S
C252 H268 0.930 . S
C253 C251 1.371 . S
C253 C254 1.392 . S
C253 H269 0.931 . S
C254 C253 1.392 . S
C254 C255 1.331 . S
C254 H272 0.932 . S
C255 C254 1.331 . S
C255 C256 1.336 . S
C256 C252 1.394 . S
C256 C255 1.336 . S
C256 H271 0.929 . S
C257 C247 1.386 . S
C257 C250 1.357 . S
C257 H270 0.928 . S
H258 C234 0.931 . S
H259 C236 0.930 . S
H260 C238 0.929 . S
H261 C239 0.931 . S
H262 C241 0.930 . S
H263 C245 0.931 . S
H264 C243 0.931 . S
H265 C247 0.931 . S
H266 C248 0.929 . S
H267 C249 0.930 . S
H268 C252 0.930 . S
H269 C253 0.931 . S
H270 C257 0.928 . S
H271 C256 0.929 . S
H272 C254 0.932 . S
C273 C274 1.386 . S
C273 C275 1.397 . S
C273 H297 0.931 . S
C274 C273 1.386 . S
C274 C278 1.397 . S
C275 C273 1.397 . S
C275 C276 1.384 . S
C275 H298 0.930 . S
C276 C275 1.384 . S
C276 C277 1.377 . S
C276 C279 1.481 . S
C277 C276 1.377 . S
C277 C278 1.389 . S
C277 H299 0.929 . S
C278 C274 1.397 . S
C278 C277 1.389 . S
C278 H300 0.931 . S
C279 C276 1.481 . S
C279 C280 1.387 . S
C279 C284 1.390 . S
C280 C279 1.387 . S
C280 C281 1.401 . S
C280 H301 0.930 . S
C281 C280 1.401 . S
C281 C282 1.376 . S
C281 C290 1.511 . S
C282 C281 1.376 . S
C282 C283 1.392 . S
C282 H303 0.931 . S
C283 C282 1.392 . S
C283 C284 1.361 . S
C283 C285 1.500 . S
C284 C279 1.390 . S
C284 C283 1.361 . S
C284 H302 0.931 . S
C285 C283 1.500 . S
C285 C286 1.371 . S
C285 C287 1.365 . S
C286 C285 1.371 . S
C286 C296 1.386 . S
C286 H304 0.931 . S
C287 C285 1.365 . S
C287 C288 1.409 . S
C287 H305 0.929 . S
C288 C287 1.409 . S
C288 C289 1.380 . S
C288 H306 0.930 . S
C289 C288 1.380 . S
C289 C296 1.357 . S
C290 C281 1.511 . S
C290 C291 1.341 . S
C290 C292 1.371 . S
C291 C290 1.341 . S
C291 C295 1.394 . S
C291 H307 0.930 . S
C292 C290 1.371 . S
C292 C293 1.392 . S
C292 H308 0.931 . S
C293 C292 1.392 . S
C293 C294 1.331 . S
C293 H311 0.932 . S
C294 C293 1.331 . S
C294 C295 1.336 . S
C295 C291 1.394 . S
C295 C294 1.336 . S
C295 H310 0.929 . S
C296 C286 1.386 . S
C296 C289 1.357 . S
C296 H309 0.928 . S
H297 C273 0.931 . S
H298 C275 0.930 . S
H299 C277 0.929 . S
H300 C278 0.931 . S
H301 C280 0.930 . S
H302 C284 0.931 . S
H303 C282 0.931 . S
H304 C286 0.931 . S
H305 C287 0.929 . S
H306 C288 0.930 . S
H307 C291 0.930 . S
H308 C292 0.931 . S
H309 C296 0.928 . S
H310 C295 0.929 . S
H311 C293 0.932 . S
C312 C313 1.386 . S
C312 C314 1.397 . S
C312 H336 0.931 . S
C313 C312 1.386 . S
C313 C317 1.397 . S
C314 C312 1.397 . S
C314 C315 1.384 . S
C314 H337 0.930 . S
C315 C314 1.384 . S
C315 C316 1.377 . S
C315 C318 1.481 . S
C316 C315 1.377 . S
C316 C317 1.389 . S
C316 H338 0.929 . S
C317 C313 1.397 . S
C317 C316 1.389 . S
C317 H339 0.931 . S
C318 C315 1.481 . S
C318 C319 1.387 . S
C318 C323 1.390 . S
C319 C318 1.387 . S
C319 C320 1.401 . S
C319 H340 0.930 . S
C320 C319 1.401 . S
C320 C321 1.376 . S
C320 C329 1.511 . S
C321 C320 1.376 . S
C321 C322 1.392 . S
C321 H342 0.931 . S
C322 C321 1.392 . S
C322 C323 1.361 . S
C322 C324 1.500 . S
C323 C318 1.390 . S
C323 C322 1.361 . S
C323 H341 0.931 . S
C324 C322 1.500 . S
C324 C325 1.371 . S
C324 C326 1.365 . S
C325 C324 1.371 . S
C325 C335 1.386 . S
C325 H343 0.931 . S
C326 C324 1.365 . S
C326 C327 1.409 . S
C326 H344 0.929 . S
C327 C326 1.409 . S
C327 C328 1.380 . S
C327 H345 0.930 . S
C328 C327 1.380 . S
C328 C335 1.357 . S
C329 C320 1.511 . S
C329 C330 1.341 . S
C329 C331 1.371 . S
C330 C329 1.341 . S
C330 C334 1.394 . S
C330 H346 0.930 . S
C331 C329 1.371 . S
C331 C332 1.392 . S
C331 H347 0.931 . S
C332 C331 1.392 . S
C332 C333 1.331 . S
C332 H350 0.932 . S
C333 C332 1.331 . S
C333 C334 1.336 . S
C334 C330 1.394 . S
C334 C333 1.336 . S
C334 H349 0.929 . S
C335 C325 1.386 . S
C335 C328 1.357 . S
C335 H348 0.928 . S
H336 C312 0.931 . S
H337 C314 0.930 . S
H338 C316 0.929 . S
H339 C317 0.931 . S
H340 C319 0.930 . S
H341 C323 0.931 . S
H342 C321 0.931 . S
H343 C325 0.931 . S
H344 C326 0.929 . S
H345 C327 0.930 . S
H346 C330 0.930 . S
H347 C331 0.931 . S
H348 C335 0.928 . S
H349 C334 0.929 . S
H350 C332 0.932 . S
C351 C352 1.386 . S
C351 C353 1.397 . S
C351 H375 0.931 . S
C352 C351 1.386 . S
C352 C356 1.397 . S
C353 C351 1.397 . S
C353 C354 1.384 . S
C353 H376 0.930 . S
C354 C353 1.384 . S
C354 C355 1.377 . S
C354 C357 1.481 . S
C355 C354 1.377 . S
C355 C356 1.389 . S
C355 H377 0.929 . S
C356 C352 1.397 . S
C356 C355 1.389 . S
C356 H378 0.931 . S
C357 C354 1.481 . S
C357 C358 1.387 . S
C357 C362 1.390 . S
C358 C357 1.387 . S
C358 C359 1.401 . S
C358 H379 0.930 . S
C359 C358 1.401 . S
C359 C360 1.376 . S
C359 C368 1.511 . S
C360 C359 1.376 . S
C360 C361 1.392 . S
C360 H381 0.931 . S
C361 C360 1.392 . S
C361 C362 1.361 . S
C361 C363 1.500 . S
C362 C357 1.390 . S
C362 C361 1.361 . S
C362 H380 0.931 . S
C363 C361 1.500 . S
C363 C364 1.371 . S
C363 C365 1.365 . S
C364 C363 1.371 . S
C364 C374 1.386 . S
C364 H382 0.931 . S
C365 C363 1.365 . S
C365 C366 1.409 . S
C365 H383 0.929 . S
C366 C365 1.409 . S
C366 C367 1.380 . S
C366 H384 0.930 . S
C367 C366 1.380 . S
C367 C374 1.357 . S
C368 C359 1.511 . S
C368 C369 1.341 . S
C368 C370 1.371 . S
C369 C368 1.341 . S
C369 C373 1.394 . S
C369 H385 0.930 . S
C370 C368 1.371 . S
C370 C371 1.392 . S
C370 H386 0.931 . S
C371 C370 1.392 . S
C371 C372 1.331 . S
C371 H389 0.932 . S
C372 C371 1.331 . S
C372 C373 1.336 . S
C373 C369 1.394 . S
C373 C372 1.336 . S
C373 H388 0.929 . S
C374 C364 1.386 . S
C374 C367 1.357 . S
C374 H387 0.928 . S
H375 C351 0.931 . S
H376 C353 0.930 . S
H377 C355 0.929 . S
H378 C356 0.931 . S
H379 C358 0.930 . S
H380 C362 0.931 . S
H381 C360 0.931 . S
H382 C364 0.931 . S
H383 C365 0.929 . S
H384 C366 0.930 . S
H385 C369 0.930 . S
H386 C370 0.931 . S
H387 C374 0.928 . S
H388 C373 0.929 . S
H389 C371 0.932 . S
C390 C391 1.386 . S
C390 C392 1.397 . S
C390 H414 0.931 . S
C391 C390 1.386 . S
C391 C395 1.397 . S
C392 C390 1.397 . S
C392 C393 1.384 . S
C392 H415 0.930 . S
C393 C392 1.384 . S
C393 C394 1.377 . S
C393 C396 1.481 . S
C394 C393 1.377 . S
C394 C395 1.389 . S
C394 H416 0.929 . S
C395 C391 1.397 . S
C395 C394 1.389 . S
C395 H417 0.931 . S
C396 C393 1.481 . S
C396 C397 1.387 . S
C396 C401 1.390 . S
C397 C396 1.387 . S
C397 C398 1.401 . S
C397 H418 0.930 . S
C398 C397 1.401 . S
C398 C399 1.376 . S
C398 C407 1.511 . S
C399 C398 1.376 . S
C399 C400 1.392 . S
C399 H420 0.931 . S
C400 C399 1.392 . S
C400 C401 1.361 . S
C400 C402 1.500 . S
C401 C396 1.390 . S
C401 C400 1.361 . S
C401 H419 0.931 . S
C402 C400 1.500 . S
C402 C403 1.371 . S
C402 C404 1.365 . S
C403 C402 1.371 . S
C403 C413 1.386 . S
C403 H421 0.931 . S
C404 C402 1.365 . S
C404 C405 1.409 . S
C404 H422 0.929 . S
C405 C404 1.409 . S
C405 C406 1.380 . S
C405 H423 0.930 . S
C406 C405 1.380 . S
C406 C413 1.357 . S
C407 C398 1.511 . S
C407 C408 1.341 . S
C407 C409 1.371 . S
C408 C407 1.341 . S
C408 C412 1.394 . S
C408 H424 0.930 . S
C409 C407 1.371 . S
C409 C410 1.392 . S
C409 H425 0.931 . S
C410 C409 1.392 . S
C410 C411 1.331 . S
C410 H428 0.932 . S
C411 C410 1.331 . S
C411 C412 1.336 . S
C412 C408 1.394 . S
C412 C411 1.336 . S
C412 H427 0.929 . S
C413 C403 1.386 . S
C413 C406 1.357 . S
C413 H426 0.874 1_556 S
H414 C390 0.931 . S
H415 C392 0.930 . S
H416 C394 0.929 . S
H417 C395 0.931 . S
H418 C397 0.930 . S
H419 C401 0.931 . S
H420 C399 0.931 . S
H421 C403 0.931 . S
H422 C404 0.929 . S
H423 C405 0.930 . S
H424 C408 0.930 . S
H425 C409 0.931 . S
H426 C413 0.874 1_554 S
H427 C412 0.929 . S
H428 C410 0.932 . S
C429 C430 1.386 . S
C429 C431 1.397 . S
C429 H453 0.931 . S
C430 C429 1.386 . S
C430 C434 1.397 . S
C431 C429 1.397 . S
C431 C432 1.384 . S
C431 H454 0.930 . S
C432 C431 1.384 . S
C432 C433 1.377 . S
C432 C435 1.481 . S
C433 C432 1.377 . S
C433 C434 1.389 . S
C433 H455 0.929 . S
C434 C430 1.397 . S
C434 C433 1.389 . S
C434 H456 0.931 . S
C435 C432 1.481 . S
C435 C436 1.387 . S
C435 C440 1.390 . S
C436 C435 1.387 . S
C436 C437 1.401 . S
C436 H457 0.930 . S
C437 C436 1.401 . S
C437 C438 1.376 . S
C437 C446 1.511 . S
C438 C437 1.376 . S
C438 C439 1.392 . S
C438 H459 0.931 . S
C439 C438 1.392 . S
C439 C440 1.361 . S
C439 C441 1.500 . S
C440 C435 1.390 . S
C440 C439 1.361 . S
C440 H458 0.931 . S
C441 C439 1.500 . S
C441 C442 1.371 . S
C441 C443 1.365 . S
C442 C441 1.371 . S
C442 C452 1.386 . S
C442 H460 0.931 . S
C443 C441 1.365 . S
C443 C444 1.409 . S
C443 H461 0.929 . S
C444 C443 1.409 . S
C444 C445 1.380 . S
C444 H462 0.930 . S
C445 C444 1.380 . S
C445 C452 1.357 . S
C446 C437 1.511 . S
C446 C447 1.341 . S
C446 C448 1.371 . S
C447 C446 1.341 . S
C447 C451 1.394 . S
C447 H463 0.930 . S
C448 C446 1.371 . S
C448 C449 1.392 . S
C448 H464 0.931 . S
C449 C448 1.392 . S
C449 C450 1.331 . S
C449 H467 0.932 . S
C450 C449 1.331 . S
C450 C451 1.336 . S
C451 C447 1.394 . S
C451 C450 1.336 . S
C451 H466 0.929 . S
C452 C442 1.386 . S
C452 C445 1.357 . S
C452 H465 0.928 . S
H453 C429 0.931 . S
H454 C431 0.930 . S
H455 C433 0.929 . S
H456 C434 0.931 . S
H457 C436 0.930 . S
H458 C440 0.931 . S
H459 C438 0.931 . S
H460 C442 0.931 . S
H461 C443 0.929 . S
H462 C444 0.930 . S
H463 C447 0.930 . S
H464 C448 0.931 . S
H465 C452 0.928 . S
H466 C451 0.929 . S
H467 C449 0.932 . S
C468 C469 1.386 . S
C468 C470 1.397 . S
C468 H492 0.931 . S
C469 C468 1.386 . S
C469 C473 1.397 . S
C470 C468 1.397 . S
C470 C471 1.384 . S
C470 H493 0.930 . S
C471 C470 1.384 . S
C471 C472 1.377 . S
C471 C474 1.481 . S
C472 C471 1.377 . S
C472 C473 1.389 . S
C472 H494 0.929 . S
C473 C469 1.397 . S
C473 C472 1.389 . S
C473 H495 0.931 . S
C474 C471 1.481 . S
C474 C475 1.387 . S
C474 C479 1.390 . S
C475 C474 1.387 . S
C475 C476 1.401 . S
C475 H496 0.930 . S
C476 C475 1.401 . S
C476 C477 1.376 . S
C476 C485 1.511 . S
C477 C476 1.376 . S
C477 C478 1.392 . S
C477 H498 0.931 . S
C478 C477 1.392 . S
C478 C479 1.361 . S
C478 C480 1.500 . S
C479 C474 1.390 . S
C479 C478 1.361 . S
C479 H497 0.931 . S
C480 C478 1.500 . S
C480 C481 1.371 . S
C480 C482 1.365 . S
C481 C480 1.371 . S
C481 C491 1.386 . S
C481 H499 0.931 . S
C482 C480 1.365 . S
C482 C483 1.409 . S
C482 H500 0.929 . S
C483 C482 1.409 . S
C483 C484 1.380 . S
C483 H501 0.930 . S
C484 C483 1.380 . S
C484 C491 1.357 . S
C485 C476 1.511 . S
C485 C486 1.341 . S
C485 C487 1.371 . S
C486 C485 1.341 . S
C486 C490 1.394 . S
C486 H502 0.930 . S
C487 C485 1.371 . S
C487 C488 1.392 . S
C487 H503 0.931 . S
C488 C487 1.392 . S
C488 C489 1.331 . S
C488 H506 0.932 . S
C489 C488 1.331 . S
C489 C490 1.336 . S
C490 C486 1.394 . S
C490 C489 1.336 . S
C490 H505 0.929 . S
C491 C481 1.386 . S
C491 C484 1.357 . S
C491 H504 0.928 . S
H492 C468 0.931 . S
H493 C470 0.930 . S
H494 C472 0.929 . S
H495 C473 0.931 . S
H496 C475 0.930 . S
H497 C479 0.931 . S
H498 C477 0.931 . S
H499 C481 0.931 . S
H500 C482 0.929 . S
H501 C483 0.930 . S
H502 C486 0.930 . S
H503 C487 0.931 . S
H504 C491 0.928 . S
H505 C490 0.929 . S
H506 C488 0.932 . S
C507 C508 1.386 . S
C507 C509 1.397 . S
C507 H531 0.931 . S
C508 C507 1.386 . S
C508 C512 1.397 . S
C509 C507 1.397 . S
C509 C510 1.384 . S
C509 H532 0.930 . S
C510 C509 1.384 . S
C510 C511 1.377 . S
C510 C513 1.481 . S
C511 C510 1.377 . S
C511 C512 1.389 . S
C511 H533 0.929 . S
C512 C508 1.397 . S
C512 C511 1.389 . S
C512 H534 0.931 . S
C513 C510 1.481 . S
C513 C514 1.387 . S
C513 C518 1.390 . S
C514 C513 1.387 . S
C514 C515 1.401 . S
C514 H535 0.930 . S
C515 C514 1.401 . S
C515 C516 1.376 . S
C515 C524 1.511 . S
C516 C515 1.376 . S
C516 C517 1.392 . S
C516 H537 0.931 . S
C517 C516 1.392 . S
C517 C518 1.361 . S
C517 C519 1.500 . S
C518 C513 1.390 . S
C518 C517 1.361 . S
C518 H536 0.931 . S
C519 C517 1.500 . S
C519 C520 1.371 . S
C519 C521 1.365 . S
C520 C519 1.371 . S
C520 C530 1.386 . S
C520 H538 0.931 . S
C521 C519 1.365 . S
C521 C522 1.409 . S
C521 H539 0.929 . S
C522 C521 1.409 . S
C522 C523 1.380 . S
C522 H540 0.930 . S
C523 C522 1.380 . S
C523 C530 1.357 . S
C524 C515 1.511 . S
C524 C525 1.341 . S
C524 C526 1.371 . S
C525 C524 1.341 . S
C525 C529 1.394 . S
C525 H541 0.930 . S
C526 C524 1.371 . S
C526 C527 1.392 . S
C526 H542 0.931 . S
C527 C526 1.392 . S
C527 C528 1.331 . S
C527 H545 0.932 . S
C528 C527 1.331 . S
C528 C529 1.336 . S
C529 C525 1.394 . S
C529 C528 1.336 . S
C529 H544 0.929 . S
C530 C520 1.386 . S
C530 C523 1.357 . S
C530 H543 0.928 . S
H531 C507 0.931 . S
H532 C509 0.930 . S
H533 C511 0.929 . S
H534 C512 0.931 . S
H535 C514 0.930 . S
H536 C518 0.931 . S
H537 C516 0.931 . S
H538 C520 0.931 . S
H539 C521 0.929 . S
H540 C522 0.930 . S
H541 C525 0.930 . S
H542 C526 0.931 . S
H543 C530 0.928 . S
H544 C529 0.929 . S
H545 C527 0.932 . S
C546 C547 1.386 . S
C546 C548 1.397 . S
C546 H570 0.931 . S
C547 C546 1.386 . S
C547 C551 1.397 . S
C548 C546 1.397 . S
C548 C549 1.384 . S
C548 H571 0.930 . S
C549 C548 1.384 . S
C549 C550 1.377 . S
C549 C552 1.481 . S
C550 C549 1.377 . S
C550 C551 1.389 . S
C550 H572 0.929 . S
C551 C547 1.397 . S
C551 C550 1.389 . S
C551 H573 0.931 . S
C552 C549 1.481 . S
C552 C553 1.387 . S
C552 C557 1.390 . S
C553 C552 1.387 . S
C553 C554 1.401 . S
C553 H574 0.930 . S
C554 C553 1.401 . S
C554 C555 1.376 . S
C554 C563 1.511 . S
C555 C554 1.376 . S
C555 C556 1.392 . S
C555 H576 0.931 . S
C556 C555 1.392 . S
C556 C557 1.361 . S
C556 C558 1.500 . S
C557 C552 1.390 . S
C557 C556 1.361 . S
C557 H575 0.931 . S
C558 C556 1.500 . S
C558 C559 1.371 . S
C558 C560 1.365 . S
C559 C558 1.371 . S
C559 C569 1.386 . S
C559 H577 0.931 . S
C560 C558 1.365 . S
C560 C561 1.409 . S
C560 H578 0.929 . S
C561 C560 1.409 . S
C561 C562 1.380 . S
C561 H579 0.930 . S
C562 C561 1.380 . S
C562 C569 1.357 . S
C563 C554 1.511 . S
C563 C564 1.341 . S
C563 C565 1.371 . S
C564 C563 1.341 . S
C564 C568 1.394 . S
C564 H580 0.930 . S
C565 C563 1.371 . S
C565 C566 1.392 . S
C565 H581 0.931 . S
C566 C565 1.392 . S
C566 C567 1.331 . S
C566 H584 0.932 . S
C567 C566 1.331 . S
C567 C568 1.336 . S
C568 C564 1.394 . S
C568 C567 1.336 . S
C568 H583 0.929 . S
C569 C559 1.386 . S
C569 C562 1.357 . S
C569 H582 0.928 . S
H570 C546 0.931 . S
H571 C548 0.930 . S
H572 C550 0.929 . S
H573 C551 0.931 . S
H574 C553 0.930 . S
H575 C557 0.931 . S
H576 C555 0.931 . S
H577 C559 0.931 . S
H578 C560 0.929 . S
H579 C561 0.930 . S
H580 C564 0.930 . S
H581 C565 0.931 . S
H582 C569 0.928 . S
H583 C568 0.929 . S
H584 C566 0.932 . S
C585 C586 1.386 . S
C585 C587 1.397 . S
C585 H609 0.931 . S
C586 C585 1.386 . S
C586 C590 1.397 . S
C587 C585 1.397 . S
C587 C588 1.384 . S
C587 H610 0.930 . S
C588 C587 1.384 . S
C588 C589 1.377 . S
C588 C591 1.481 . S
C589 C588 1.377 . S
C589 C590 1.389 . S
C589 H611 0.929 . S
C590 C586 1.397 . S
C590 C589 1.389 . S
C590 H612 0.931 . S
C591 C588 1.481 . S
C591 C592 1.387 . S
C591 C596 1.390 . S
C592 C591 1.387 . S
C592 C593 1.401 . S
C592 H613 0.930 . S
C593 C592 1.401 . S
C593 C594 1.376 . S
C593 C602 1.511 . S
C594 C593 1.376 . S
C594 C595 1.392 . S
C594 H615 0.931 . S
C595 C594 1.392 . S
C595 C596 1.361 . S
C595 C597 1.500 . S
C596 C591 1.390 . S
C596 C595 1.361 . S
C596 H614 0.931 . S
C597 C595 1.500 . S
C597 C598 1.371 . S
C597 C599 1.365 . S
C598 C597 1.371 . S
C598 C608 1.386 . S
C598 H616 0.931 . S
C599 C597 1.365 . S
C599 C600 1.409 . S
C599 H617 0.929 . S
C600 C599 1.409 . S
C600 C601 1.380 . S
C600 H618 0.930 . S
C601 C600 1.380 . S
C601 C608 1.357 . S
C602 C593 1.511 . S
C602 C603 1.341 . S
C602 C604 1.371 . S
C603 C602 1.341 . S
C603 C607 1.394 . S
C603 H619 0.930 . S
C604 C602 1.371 . S
C604 C605 1.392 . S
C604 H620 0.931 . S
C605 C604 1.392 . S
C605 C606 1.331 . S
C605 H623 0.932 . S
C606 C605 1.331 . S
C606 C607 1.336 . S
C607 C603 1.394 . S
C607 C606 1.336 . S
C607 H622 0.929 . S
C608 C598 1.386 . S
C608 C601 1.357 . S
C608 H621 0.928 . S
H609 C585 0.931 . S
H610 C587 0.930 . S
H611 C589 0.929 . S
H612 C590 0.931 . S
H613 C592 0.930 . S
H614 C596 0.931 . S
H615 C594 0.931 . S
H616 C598 0.931 . S
H617 C599 0.929 . S
H618 C600 0.930 . S
H619 C603 0.930 . S
H620 C604 0.931 . S
H621 C608 0.928 . S
H622 C607 0.929 . S
H623 C605 0.932 . S
C624 C625 1.386 1_655 S
C624 C626 1.397 . S
C624 H648 0.931 . S
C625 C624 1.386 1_455 S
C625 C629 1.397 . S
C626 C624 1.397 . S
C626 C627 1.384 1_655 S
C626 H649 0.930 . S
C627 C626 1.384 1_455 S
C627 C628 1.377 . S
C627 C630 1.481 . S
C628 C627 1.377 . S
C628 C629 1.389 . S
C628 H650 0.929 . S
C629 C625 1.397 . S
C629 C628 1.389 . S
C629 H651 0.931 . S
C630 C627 1.481 . S
C630 C631 1.387 . S
C630 C635 1.390 . S
C631 C630 1.387 . S
C631 C632 1.401 . S
C631 H652 0.930 . S
C632 C631 1.401 . S
C632 C633 1.376 . S
C632 C641 1.511 . S
C633 C632 1.376 . S
C633 C634 1.392 . S
C633 H654 0.931 . S
C634 C633 1.392 . S
C634 C635 1.361 . S
C634 C636 1.500 . S
C635 C630 1.390 . S
C635 C634 1.361 . S
C635 H653 0.931 . S
C636 C634 1.500 . S
C636 C637 1.371 . S
C636 C638 1.365 . S
C637 C636 1.371 . S
C637 C647 1.386 . S
C637 H655 0.931 . S
C638 C636 1.365 . S
C638 C639 1.409 . S
C638 H656 0.929 . S
C639 C638 1.409 . S
C639 C640 1.380 . S
C639 H657 0.930 . S
C640 C639 1.380 . S
C640 C647 1.357 . S
C641 C632 1.511 . S
C641 C642 1.341 . S
C641 C643 1.371 . S
C642 C641 1.341 . S
C642 C646 1.394 . S
C642 H658 0.930 . S
C643 C641 1.371 . S
C643 C644 1.392 . S
C643 H659 0.931 . S
C644 C643 1.392 . S
C644 C645 1.331 . S
C644 H662 0.932 . S
C645 C644 1.331 . S
C645 C646 1.336 . S
C646 C642 1.394 . S
C646 C645 1.336 . S
C646 H661 0.929 . S
C647 C637 1.386 . S
C647 C640 1.357 . S
C647 H660 0.928 . S
H648 C624 0.931 . S
H649 C626 0.930 . S
H650 C628 0.929 . S
H651 C629 0.931 . S
H652 C631 0.930 . S
H653 C635 0.931 . S
H654 C633 0.931 . S
H655 C637 0.931 . S
H656 C638 0.929 . S
H657 C639 0.930 . S
H658 C642 0.930 . S
H659 C643 0.931 . S
H660 C647 0.928 . S
H661 C646 0.929 . S
H662 C644 0.932 . S
C663 C664 1.386 . S
C663 C665 1.397 . S
C663 H687 0.931 . S
C664 C663 1.386 . S
C664 C668 1.397 . S
C665 C663 1.397 . S
C665 C666 1.384 . S
C665 H688 0.930 . S
C666 C665 1.384 . S
C666 C667 1.377 . S
C666 C669 1.481 . S
C667 C666 1.377 . S
C667 C668 1.389 . S
C667 H689 0.929 . S
C668 C664 1.397 . S
C668 C667 1.389 . S
C668 H690 0.931 . S
C669 C666 1.481 . S
C669 C670 1.387 . S
C669 C674 1.390 . S
C670 C669 1.387 . S
C670 C671 1.401 . S
C670 H691 0.930 . S
C671 C670 1.401 . S
C671 C672 1.376 . S
C671 C680 1.511 . S
C672 C671 1.376 . S
C672 C673 1.392 . S
C672 H693 0.931 . S
C673 C672 1.392 . S
C673 C674 1.361 . S
C673 C675 1.500 . S
C674 C669 1.390 . S
C674 C673 1.361 . S
C674 H692 0.931 . S
C675 C673 1.500 . S
C675 C676 1.371 . S
C675 C677 1.365 . S
C676 C675 1.371 . S
C676 C686 1.386 . S
C676 H694 0.931 . S
C677 C675 1.365 . S
C677 C678 1.409 . S
C677 H695 0.929 . S
C678 C677 1.409 . S
C678 C679 1.380 . S
C678 H696 0.930 . S
C679 C678 1.380 . S
C679 C686 1.357 . S
C680 C671 1.511 . S
C680 C681 1.341 . S
C680 C682 1.371 . S
C681 C680 1.341 . S
C681 C685 1.394 . S
C681 H697 0.930 . S
C682 C680 1.371 . S
C682 C683 1.392 . S
C682 H698 0.931 . S
C683 C682 1.392 . S
C683 C684 1.331 . S
C683 H701 0.932 . S
C684 C683 1.331 . S
C684 C685 1.336 . S
C685 C681 1.394 . S
C685 C684 1.336 . S
C685 H700 0.929 . S
C686 C676 1.386 . S
C686 C679 1.357 . S
C686 H699 0.928 . S
H687 C663 0.931 . S
H688 C665 0.930 . S
H689 C667 0.929 . S
H690 C668 0.931 . S
H691 C670 0.930 . S
H692 C674 0.931 . S
H693 C672 0.931 . S
H694 C676 0.931 . S
H695 C677 0.929 . S
H696 C678 0.930 . S
H697 C681 0.930 . S
H698 C682 0.931 . S
H699 C686 0.928 . S
H700 C685 0.929 . S
H701 C683 0.932 . S
Eu702 C711 2.828 . S
Eu702 O713 2.392 . S
Eu702 O715 2.418 . S
Eu702 O720 2.373 1_565 S
Eu702 O723 2.488 . S
Eu702 O724 2.463 1_565 S
Eu702 O725 2.349 1_565 S
Eu703 O712 2.373 1_545 S
Eu703 O716 2.488 . S
Eu703 O717 2.476 . S
Eu703 O718 2.349 1_545 S
Eu703 O721 2.392 . S
Eu703 O722 2.418 . S
Eu703 C732 2.828 . S
C704 O722 1.244 1_556 S
C704 O725 1.265 . S
C705 C706 1.379 1_565 S
C705 C709 1.373 . S
C705 C711 1.505 . S
C706 C705 1.379 1_545 S
C706 C708 1.369 . S
C706 H734 0.930 . S
C707 C709 1.383 . S
C707 C710 1.382 1_565 S
C707 H735 0.930 . S
C708 C706 1.369 . S
C708 C710 1.392 . S
C708 H736 0.930 . S
C709 C705 1.373 . S
C709 C707 1.383 . S
C709 H737 0.931 . S
C710 C707 1.382 1_545 S
C710 C708 1.392 . S
C711 Eu702 2.828 . S
C711 C705 1.505 . S
C711 O723 1.249 . S
C711 O724 1.232 1_565 S
O712 Eu703 2.373 1_565 S
O712 C714 1.258 . S
O713 Eu702 2.392 . S
O713 C714 1.242 1_556 S
C714 O712 1.258 . S
C714 O713 1.242 1_554 S
O715 Eu702 2.418 . S
O715 C719 1.244 1_556 S
O716 Eu703 2.488 . S
O716 C732 1.249 . S
O717 Eu703 2.476 . S
O717 C732 1.252 . S
O718 Eu703 2.349 1_565 S
O718 C719 1.265 . S
C719 O715 1.244 1_554 S
C719 O718 1.265 . S
O720 Eu702 2.373 1_545 S
O720 C733 1.258 . S
O721 Eu703 2.392 . S
O721 C733 1.242 1_554 S
O722 Eu703 2.418 . S
O722 C704 1.244 1_554 S
O723 Eu702 2.488 . S
O723 C711 1.249 . S
O724 Eu702 2.463 1_545 S
O724 C711 1.232 1_545 S
O725 Eu702 2.349 1_545 S
O725 C704 1.265 . S
C726 C727 1.379 1_545 S
C726 C730 1.373 . S
C726 C732 1.505 . S
C727 C726 1.379 1_565 S
C727 C729 1.369 . S
C727 H738 0.930 . S
C728 C730 1.383 . S
C728 C731 1.382 1_545 S
C728 H739 0.930 . S
C729 C727 1.369 . S
C729 C731 1.392 . S
C729 H740 0.930 . S
C730 C726 1.373 . S
C730 C728 1.383 . S
C730 H741 0.931 . S
C731 C728 1.382 1_565 S
C731 C729 1.392 . S
C732 Eu703 2.828 . S
C732 O716 1.249 . S
C732 O717 1.252 . S
C732 C726 1.505 . S
C733 O720 1.258 . S
C733 O721 1.242 1_556 S
H734 C706 0.930 . S
H735 C707 0.930 . S
H736 C708 0.930 . S
H737 C709 0.931 . S
H738 C727 0.930 . S
H739 C728 0.930 . S
H740 C729 0.930 . S
H741 C730 0.931 . S
Eu742 C751 2.828 . S
Eu742 O753 2.392 1_556 S
Eu742 O755 2.418 . S
Eu742 O760 2.373 1_455 S
Eu742 O763 2.488 . S
Eu742 O764 2.471 1_455 S
Eu742 O765 2.349 1_455 S
Eu743 O752 2.373 1_655 S
Eu743 O756 2.488 . S
Eu743 O757 2.471 1_655 S
Eu743 O758 2.349 1_655 S
Eu743 O761 2.392 1_554 S
Eu743 O762 2.418 . S
Eu743 C772 2.828 . S
C744 O762 1.244 1_556 S
C744 O765 1.265 . S
C745 C746 1.379 1_455 S
C745 C749 1.373 . S
C745 C751 1.505 . S
C746 C745 1.379 1_655 S
C746 C748 1.369 . S
C746 H774 0.930 . S
C747 C749 1.383 . S
C747 C750 1.382 1_455 S
C747 H775 0.930 . S
C748 C746 1.369 . S
C748 C750 1.392 . S
C748 H776 0.930 . S
C749 C745 1.373 . S
C749 C747 1.383 . S
C749 H777 0.931 . S
C750 C747 1.382 1_655 S
C750 C748 1.392 . S
C751 Eu742 2.828 . S
C751 C745 1.505 . S
C751 O763 1.249 . S
C751 O764 1.244 1_455 S
O752 Eu743 2.373 1_455 S
O752 C754 1.258 . S
O753 Eu742 2.392 1_554 S
O753 C754 1.242 . S
C754 O752 1.258 . S
C754 O753 1.242 . S
O755 Eu742 2.418 . S
O755 C759 1.244 1_556 S
O756 Eu743 2.488 . S
O756 C772 1.249 . S
O757 Eu743 2.471 1_455 S
O757 C772 1.244 1_455 S
O758 Eu743 2.349 1_455 S
O758 C759 1.265 . S
C759 O755 1.244 1_554 S
C759 O758 1.265 . S
O760 Eu742 2.373 1_655 S
O760 C773 1.258 . S
O761 Eu743 2.392 1_556 S
O761 C773 1.242 . S
O762 Eu743 2.418 . S
O762 C744 1.244 1_554 S
O763 Eu742 2.488 . S
O763 C751 1.249 . S
O764 Eu742 2.471 1_655 S
O764 C751 1.244 1_655 S
O765 Eu742 2.349 1_655 S
O765 C744 1.265 . S
C766 C767 1.379 1_655 S
C766 C770 1.373 . S
C766 C772 1.505 . S
C767 C766 1.379 1_455 S
C767 C769 1.369 . S
C767 H778 0.930 . S
C768 C770 1.383 . S
C768 C771 1.382 1_655 S
C768 H779 0.930 . S
C769 C767 1.369 . S
C769 C771 1.392 . S
C769 H780 0.930 . S
C770 C766 1.373 . S
C770 C768 1.383 . S
C770 H781 0.931 . S
C771 C768 1.382 1_455 S
C771 C769 1.392 . S
C772 Eu743 2.828 . S
C772 O756 1.249 . S
C772 O757 1.244 1_655 S
C772 C766 1.505 . S
C773 O760 1.258 . S
C773 O761 1.242 . S
H774 C746 0.930 . S
H775 C747 0.930 . S
H776 C748 0.930 . S
H777 C749 0.931 . S
H778 C767 0.930 . S
H779 C768 0.930 . S
H780 C769 0.930 . S
H781 C770 0.931 . S
Eu782 C791 2.828 . S
Eu782 O793 2.426 . S
Eu782 O795 2.418 . S
Eu782 O800 2.373 . S
Eu782 O803 2.488 . S
Eu782 O804 2.471 . S
Eu782 O805 2.349 . S
Eu783 O792 2.373 . S
Eu783 O796 2.488 . S
Eu783 O797 2.471 . S
Eu783 O798 2.349 . S
Eu783 O801 2.392 1_556 S
Eu783 O802 2.418 . S
Eu783 C812 2.828 . S
C784 O802 1.244 1_554 S
C784 O805 1.265 . S
C785 C786 1.379 . S
C785 C789 1.373 . S
C785 C791 1.505 . S
C786 C785 1.379 . S
C786 C788 1.369 . S
C786 H814 0.930 . S
C787 C789 1.383 . S
C787 C790 1.382 . S
C787 H815 0.930 . S
C788 C786 1.369 . S
C788 C790 1.392 . S
C788 H816 0.930 . S
C789 C785 1.373 . S
C789 C787 1.383 . S
C789 H817 0.931 . S
C790 C787 1.382 . S
C790 C788 1.392 . S
C791 Eu782 2.828 . S
C791 C785 1.505 . S
C791 O803 1.249 . S
C791 O804 1.244 . S
O792 Eu783 2.373 . S
O792 C794 1.258 . S
O793 Eu782 2.426 . S
O793 C794 1.203 1_554 S
C794 O792 1.258 . S
C794 O793 1.203 1_556 S
O795 Eu782 2.418 . S
O795 C799 1.244 1_554 S
O796 Eu783 2.488 . S
O796 C812 1.249 . S
O797 Eu783 2.471 . S
O797 C812 1.244 . S
O798 Eu783 2.349 . S
O798 C799 1.265 . S
C799 O795 1.244 1_556 S
C799 O798 1.265 . S
O800 Eu782 2.373 . S
O800 C813 1.258 . S
O801 Eu783 2.392 1_554 S
O801 C813 1.242 . S
O802 Eu783 2.418 . S
O802 C784 1.244 1_556 S
O803 Eu782 2.488 . S
O803 C791 1.249 . S
O804 Eu782 2.471 . S
O804 C791 1.244 . S
O805 Eu782 2.349 . S
O805 C784 1.265 . S
C806 C807 1.379 . S
C806 C810 1.373 . S
C806 C812 1.505 . S
C807 C806 1.379 . S
C807 C809 1.369 . S
C807 H818 0.930 . S
C808 C810 1.383 . S
C808 C811 1.382 . S
C808 H819 0.930 . S
C809 C807 1.369 . S
C809 C811 1.392 . S
C809 H820 0.930 . S
C810 C806 1.373 . S
C810 C808 1.383 . S
C810 H821 0.931 . S
C811 C808 1.382 . S
C811 C809 1.392 . S
C812 Eu783 2.828 . S
C812 O796 1.249 . S
C812 O797 1.244 . S
C812 C806 1.505 . S
C813 O800 1.258 . S
C813 O801 1.242 . S
H814 C786 0.930 . S
H815 C787 0.930 . S
H816 C788 0.930 . S
H817 C789 0.931 . S
H818 C807 0.930 . S
H819 C808 0.930 . S
H820 C809 0.930 . S
H821 C810 0.931 . S
Eu822 C831 2.828 . S
Eu822 O833 2.392 . S
Eu822 O835 2.418 . S
Eu822 O840 2.373 . S
Eu822 O843 2.488 . S
Eu822 O844 2.471 . S
Eu822 O845 2.349 . S
Eu823 O832 2.373 . S
Eu823 O836 2.488 . S
Eu823 O837 2.471 . S
Eu823 O838 2.349 . S
Eu823 O841 2.392 . S
Eu823 O842 2.418 . S
Eu823 C852 2.828 . S
C824 O842 1.244 . S
C824 O845 1.265 . S
C825 C826 1.379 . S
C825 C829 1.373 . S
C825 C831 1.505 . S
C826 C825 1.379 . S
C826 C828 1.369 . S
C826 H854 0.930 . S
C827 C829 1.383 . S
C827 C830 1.382 . S
C827 H855 0.930 . S
C828 C826 1.369 . S
C828 C830 1.392 . S
C828 H856 0.930 . S
C829 C825 1.373 . S
C829 C827 1.383 . S
C829 H857 0.931 . S
C830 C827 1.382 . S
C830 C828 1.392 . S
C831 Eu822 2.828 . S
C831 C825 1.505 . S
C831 O843 1.249 . S
C831 O844 1.244 . S
O832 Eu823 2.373 . S
O832 C834 1.258 . S
O833 Eu822 2.392 . S
O833 C834 1.242 . S
C834 O832 1.258 . S
C834 O833 1.242 . S
O835 Eu822 2.418 . S
O835 C839 1.244 . S
O836 Eu823 2.488 . S
O836 C852 1.249 . S
O837 Eu823 2.471 . S
O837 C852 1.244 . S
O838 Eu823 2.349 . S
O838 C839 1.265 . S
C839 O835 1.244 . S
C839 O838 1.265 . S
O840 Eu822 2.373 . S
O840 C853 1.258 . S
O841 Eu823 2.392 . S
O841 C853 1.242 . S
O842 Eu823 2.418 . S
O842 C824 1.244 . S
O843 Eu822 2.488 . S
O843 C831 1.249 . S
O844 Eu822 2.471 . S
O844 C831 1.244 . S
O845 Eu822 2.349 . S
O845 C824 1.265 . S
C846 C847 1.379 . S
C846 C850 1.373 . S
C846 C852 1.505 . S
C847 C846 1.379 . S
C847 C849 1.369 . S
C847 H858 0.930 . S
C848 C850 1.383 . S
C848 C851 1.382 . S
C848 H859 0.930 . S
C849 C847 1.369 . S
C849 C851 1.392 . S
C849 H860 0.930 . S
C850 C846 1.373 . S
C850 C848 1.383 . S
C850 H861 0.931 . S
C851 C848 1.382 . S
C851 C849 1.392 . S
C852 Eu823 2.828 . S
C852 O836 1.249 . S
C852 O837 1.244 . S
C852 C846 1.505 . S
C853 O840 1.258 . S
C853 O841 1.242 . S
H854 C826 0.930 . S
H855 C827 0.930 . S
H856 C828 0.930 . S
H857 C829 0.931 . S
H858 C847 0.930 . S
H859 C848 0.930 . S
H860 C849 0.930 . S
H861 C850 0.931 . S
Eu862 C871 2.828 . S
Eu862 O873 2.392 . S
Eu862 O875 2.418 . S
Eu862 O880 2.373 . S
Eu862 O883 2.488 . S
Eu862 O884 2.471 . S
Eu862 O885 2.349 . S
Eu863 O872 2.373 . S
Eu863 O876 2.488 . S
Eu863 O877 2.471 . S
Eu863 O878 2.349 . S
Eu863 O881 2.392 . S
Eu863 O882 2.418 . S
Eu863 C892 2.828 . S
C864 O882 1.244 . S
C864 O885 1.265 . S
C865 C866 1.379 . S
C865 C869 1.373 . S
C865 C871 1.505 . S
C866 C865 1.379 . S
C866 C868 1.369 . S
C866 H894 0.930 . S
C867 C869 1.383 . S
C867 C870 1.382 . S
C867 H895 0.930 . S
C868 C866 1.369 . S
C868 C870 1.392 . S
C868 H896 0.930 . S
C869 C865 1.373 . S
C869 C867 1.383 . S
C869 H897 0.931 . S
C870 C867 1.382 . S
C870 C868 1.392 . S
C871 Eu862 2.828 . S
C871 C865 1.505 . S
C871 O883 1.249 . S
C871 O884 1.244 . S
O872 Eu863 2.373 . S
O872 C874 1.258 . S
O873 Eu862 2.392 . S
O873 C874 1.242 . S
C874 O872 1.258 . S
C874 O873 1.242 . S
O875 Eu862 2.418 . S
O875 C879 1.244 . S
O876 Eu863 2.488 . S
O876 C892 1.249 . S
O877 Eu863 2.471 . S
O877 C892 1.244 . S
O878 Eu863 2.349 . S
O878 C879 1.265 . S
C879 O875 1.244 . S
C879 O878 1.265 . S
O880 Eu862 2.373 . S
O880 C893 1.258 . S
O881 Eu863 2.392 . S
O881 C893 1.242 . S
O882 Eu863 2.418 . S
O882 C864 1.244 . S
O883 Eu862 2.488 . S
O883 C871 1.249 . S
O884 Eu862 2.471 . S
O884 C871 1.244 . S
O885 Eu862 2.349 . S
O885 C864 1.265 . S
C886 C887 1.379 . S
C886 C890 1.373 . S
C886 C892 1.505 . S
C887 C886 1.379 . S
C887 C889 1.369 . S
C887 H898 0.930 . S
C888 C890 1.383 . S
C888 C891 1.382 . S
C888 H899 0.930 . S
C889 C887 1.369 . S
C889 C891 1.392 . S
C889 H900 0.930 . S
C890 C886 1.373 . S
C890 C888 1.383 . S
C890 H901 0.931 . S
C891 C888 1.382 . S
C891 C889 1.392 . S
C892 Eu863 2.828 . S
C892 O876 1.249 . S
C892 O877 1.244 . S
C892 C886 1.505 . S
C893 O880 1.258 . S
C893 O881 1.242 . S
H894 C866 0.930 . S
H895 C867 0.930 . S
H896 C868 0.930 . S
H897 C869 0.931 . S
H898 C887 0.930 . S
H899 C888 0.930 . S
H900 C889 0.930 . S
H901 C890 0.931 . S
Eu902 C911 2.828 . S
Eu902 O913 2.392 . S
Eu902 O915 2.418 . S
Eu902 O920 2.373 . S
Eu902 O923 2.488 . S
Eu902 O924 2.471 . S
Eu902 O925 2.349 . S
Eu903 O912 2.373 . S
Eu903 O916 2.488 . S
Eu903 O917 2.471 . S
Eu903 O918 2.349 . S
Eu903 O921 2.392 . S
Eu903 O922 2.418 . S
Eu903 C932 2.828 . S
C904 O922 1.244 . S
C904 O925 1.265 . S
C905 C906 1.379 . S
C905 C909 1.373 . S
C905 C911 1.505 . S
C906 C905 1.379 . S
C906 C908 1.369 . S
C906 H934 0.930 . S
C907 C909 1.383 . S
C907 C910 1.382 . S
C907 H935 0.930 . S
C908 C906 1.369 . S
C908 C910 1.392 . S
C908 H936 0.930 . S
C909 C905 1.373 . S
C909 C907 1.383 . S
C909 H937 0.931 . S
C910 C907 1.382 . S
C910 C908 1.392 . S
C911 Eu902 2.828 . S
C911 C905 1.505 . S
C911 O923 1.249 . S
C911 O924 1.244 . S
O912 Eu903 2.373 . S
O912 C914 1.258 . S
O913 Eu902 2.392 . S
O913 C914 1.242 . S
C914 O912 1.258 . S
C914 O913 1.242 . S
O915 Eu902 2.418 . S
O915 C919 1.244 . S
O916 Eu903 2.488 . S
O916 C932 1.249 . S
O917 Eu903 2.471 . S
O917 C932 1.244 . S
O918 Eu903 2.349 . S
O918 C919 1.265 . S
C919 O915 1.244 . S
C919 O918 1.265 . S
O920 Eu902 2.373 . S
O920 C933 1.258 . S
O921 Eu903 2.392 . S
O921 C933 1.242 . S
O922 Eu903 2.418 . S
O922 C904 1.244 . S
O923 Eu902 2.488 . S
O923 C911 1.249 . S
O924 Eu902 2.471 . S
O924 C911 1.244 . S
O925 Eu902 2.349 . S
O925 C904 1.265 . S
C926 C927 1.379 . S
C926 C930 1.373 . S
C926 C932 1.505 . S
C927 C926 1.379 . S
C927 C929 1.369 . S
C927 H938 0.930 . S
C928 C930 1.383 . S
C928 C931 1.382 . S
C928 H939 0.930 . S
C929 C927 1.369 . S
C929 C931 1.392 . S
C929 H940 0.930 . S
C930 C926 1.373 . S
C930 C928 1.383 . S
C930 H941 0.931 . S
C931 C928 1.382 . S
C931 C929 1.392 . S
C932 Eu903 2.828 . S
C932 O916 1.249 . S
C932 O917 1.244 . S
C932 C926 1.505 . S
C933 O920 1.258 . S
C933 O921 1.242 . S
H934 C906 0.930 . S
H935 C907 0.930 . S
H936 C908 0.930 . S
H937 C909 0.931 . S
H938 C927 0.930 . S
H939 C928 0.930 . S
H940 C929 0.930 . S
H941 C930 0.931 . S
Eu942 C951 2.828 . S
Eu942 O953 2.392 . S
Eu942 O955 2.418 . S
Eu942 O960 2.373 . S
Eu942 O963 2.488 . S
Eu942 O964 2.471 . S
Eu942 O965 2.349 . S
Eu943 O952 2.373 . S
Eu943 O956 2.488 . S
Eu943 O957 2.471 . S
Eu943 O958 2.349 . S
Eu943 O961 2.392 . S
Eu943 O962 2.418 . S
Eu943 C972 2.828 . S
C944 O962 1.244 . S
C944 O965 1.265 . S
C945 C946 1.379 . S
C945 C949 1.373 . S
C945 C951 1.505 . S
C946 C945 1.379 . S
C946 C948 1.369 . S
C946 H974 0.930 . S
C947 C949 1.383 . S
C947 C950 1.382 . S
C947 H975 0.930 . S
C948 C946 1.369 . S
C948 C950 1.392 . S
C948 H976 0.930 . S
C949 C945 1.373 . S
C949 C947 1.383 . S
C949 H977 0.931 . S
C950 C947 1.382 . S
C950 C948 1.392 . S
C951 Eu942 2.828 . S
C951 C945 1.505 . S
C951 O963 1.249 . S
C951 O964 1.244 . S
O952 Eu943 2.373 . S
O952 C954 1.258 . S
O953 Eu942 2.392 . S
O953 C954 1.242 . S
C954 O952 1.258 . S
C954 O953 1.242 . S
O955 Eu942 2.418 . S
O955 C959 1.244 . S
O956 Eu943 2.488 . S
O956 C972 1.249 . S
O957 Eu943 2.471 . S
O957 C972 1.244 . S
O958 Eu943 2.349 . S
O958 C959 1.265 . S
C959 O955 1.244 . S
C959 O958 1.265 . S
O960 Eu942 2.373 . S
O960 C973 1.258 . S
O961 Eu943 2.392 . S
O961 C973 1.242 . S
O962 Eu943 2.418 . S
O962 C944 1.244 . S
O963 Eu942 2.488 . S
O963 C951 1.249 . S
O964 Eu942 2.471 . S
O964 C951 1.244 . S
O965 Eu942 2.349 . S
O965 C944 1.265 . S
C966 C967 1.379 . S
C966 C970 1.373 . S
C966 C972 1.505 . S
C967 C966 1.379 . S
C967 C969 1.369 . S
C967 H978 0.930 . S
C968 C970 1.383 . S
C968 C971 1.382 . S
C968 H979 0.930 . S
C969 C967 1.369 . S
C969 C971 1.392 . S
C969 H980 0.930 . S
C970 C966 1.373 . S
C970 C968 1.383 . S
C970 H981 0.931 . S
C971 C968 1.382 . S
C971 C969 1.392 . S
C972 Eu943 2.828 . S
C972 O956 1.249 . S
C972 O957 1.244 . S
C972 C966 1.505 . S
C973 O960 1.258 . S
C973 O961 1.242 . S
H974 C946 0.930 . S
H975 C947 0.930 . S
H976 C948 0.930 . S
H977 C949 0.931 . S
H978 C967 0.930 . S
H979 C968 0.930 . S
H980 C969 0.930 . S
H981 C970 0.931 . S
Eu982 C991 2.828 . S
Eu982 O993 2.392 . S
Eu982 O995 2.418 . S
Eu982 O1000 2.373 . S
Eu982 O1003 2.488 . S
Eu982 O1004 2.471 . S
Eu982 O1005 2.349 . S
Eu983 O992 2.373 . S
Eu983 O996 2.488 . S
Eu983 O997 2.471 . S
Eu983 O998 2.349 . S
Eu983 O1001 2.392 . S
Eu983 O1002 2.418 . S
Eu983 C1012 2.828 . S
C984 O1002 1.244 . S
C984 O1005 1.265 . S
C985 C986 1.379 . S
C985 C989 1.373 . S
C985 C991 1.505 . S
C986 C985 1.379 . S
C986 C988 1.369 . S
C986 H1014 0.930 . S
C987 C989 1.383 . S
C987 C990 1.382 . S
C987 H1015 0.930 . S
C988 C986 1.369 . S
C988 C990 1.392 . S
C988 H1016 0.930 . S
C989 C985 1.373 . S
C989 C987 1.383 . S
C989 H1017 0.931 . S
C990 C987 1.382 . S
C990 C988 1.392 . S
C991 Eu982 2.828 . S
C991 C985 1.505 . S
C991 O1003 1.249 . S
C991 O1004 1.244 . S
O992 Eu983 2.373 . S
O992 C994 1.258 . S
O993 Eu982 2.392 . S
O993 C994 1.242 . S
C994 O992 1.258 . S
C994 O993 1.242 . S
O995 Eu982 2.418 . S
O995 C999 1.244 . S
O996 Eu983 2.488 . S
O996 C1012 1.249 . S
O997 Eu983 2.471 . S
O997 C1012 1.244 . S
O998 Eu983 2.349 . S
O998 C999 1.265 . S
C999 O995 1.244 . S
C999 O998 1.265 . S
O1000 Eu982 2.373 . S
O1000 C1013 1.258 . S
O1001 Eu983 2.392 . S
O1001 C1013 1.242 . S
O1002 Eu983 2.418 . S
O1002 C984 1.244 . S
O1003 Eu982 2.488 . S
O1003 C991 1.249 . S
O1004 Eu982 2.471 . S
O1004 C991 1.244 . S
O1005 Eu982 2.349 . S
O1005 C984 1.265 . S
C1006 C1007 1.379 . S
C1006 C1010 1.373 . S
C1006 C1012 1.505 . S
C1007 C1006 1.379 . S
C1007 C1009 1.369 . S
C1007 H1018 0.930 . S
C1008 C1010 1.383 . S
C1008 C1011 1.382 . S
C1008 H1019 0.930 . S
C1009 C1007 1.369 . S
C1009 C1011 1.392 . S
C1009 H1020 0.930 . S
C1010 C1006 1.373 . S
C1010 C1008 1.383 . S
C1010 H1021 0.931 . S
C1011 C1008 1.382 . S
C1011 C1009 1.392 . S
C1012 Eu983 2.828 . S
C1012 O996 1.249 . S
C1012 O997 1.244 . S
C1012 C1006 1.505 . S
C1013 O1000 1.258 . S
C1013 O1001 1.242 . S
H1014 C986 0.930 . S
H1015 C987 0.930 . S
H1016 C988 0.930 . S
H1017 C989 0.931 . S
H1018 C1007 0.930 . S
H1019 C1008 0.930 . S
H1020 C1009 0.930 . S
H1021 C1010 0.931 . S
Eu1022 C1031 2.828 . S
Eu1022 O1033 2.392 . S
Eu1022 O1035 2.418 . S
Eu1022 O1040 2.373 . S
Eu1022 O1043 2.488 . S
Eu1022 O1044 2.471 . S
Eu1022 O1045 2.349 . S
Eu1023 O1032 2.373 . S
Eu1023 O1036 2.488 . S
Eu1023 O1037 2.471 . S
Eu1023 O1038 2.349 . S
Eu1023 O1041 2.392 . S
Eu1023 O1042 2.418 . S
Eu1023 C1052 2.828 . S
C1024 O1042 1.244 . S
C1024 O1045 1.265 . S
C1025 C1026 1.379 . S
C1025 C1029 1.373 . S
C1025 C1031 1.505 . S
C1026 C1025 1.379 . S
C1026 C1028 1.369 . S
C1026 H1054 0.930 . S
C1027 C1029 1.383 . S
C1027 C1030 1.382 . S
C1027 H1055 0.930 . S
C1028 C1026 1.369 . S
C1028 C1030 1.392 . S
C1028 H1056 0.930 . S
C1029 C1025 1.373 . S
C1029 C1027 1.383 . S
C1029 H1057 0.931 . S
C1030 C1027 1.382 . S
C1030 C1028 1.392 . S
C1031 Eu1022 2.828 . S
C1031 C1025 1.505 . S
C1031 O1043 1.249 . S
C1031 O1044 1.244 . S
O1032 Eu1023 2.373 . S
O1032 C1034 1.258 . S
O1033 Eu1022 2.392 . S
O1033 C1034 1.242 . S
C1034 O1032 1.258 . S
C1034 O1033 1.242 . S
O1035 Eu1022 2.418 . S
O1035 C1039 1.244 . S
O1036 Eu1023 2.488 . S
O1036 C1052 1.249 . S
O1037 Eu1023 2.471 . S
O1037 C1052 1.244 . S
O1038 Eu1023 2.349 . S
O1038 C1039 1.265 . S
C1039 O1035 1.244 . S
C1039 O1038 1.265 . S
O1040 Eu1022 2.373 . S
O1040 C1053 1.258 . S
O1041 Eu1023 2.392 . S
O1041 C1053 1.242 . S
O1042 Eu1023 2.418 . S
O1042 C1024 1.244 . S
O1043 Eu1022 2.488 . S
O1043 C1031 1.249 . S
O1044 Eu1022 2.471 . S
O1044 C1031 1.244 . S
O1045 Eu1022 2.349 . S
O1045 C1024 1.265 . S
C1046 C1047 1.379 . S
C1046 C1050 1.373 . S
C1046 C1052 1.505 . S
C1047 C1046 1.379 . S
C1047 C1049 1.369 . S
C1047 H1058 0.930 . S
C1048 C1050 1.383 . S
C1048 C1051 1.382 . S
C1048 H1059 0.930 . S
C1049 C1047 1.369 . S
C1049 C1051 1.392 . S
C1049 H1060 0.930 . S
C1050 C1046 1.373 . S
C1050 C1048 1.383 . S
C1050 H1061 0.931 . S
C1051 C1048 1.382 . S
C1051 C1049 1.392 . S
C1052 Eu1023 2.828 . S
C1052 O1036 1.249 . S
C1052 O1037 1.244 . S
C1052 C1046 1.505 . S
C1053 O1040 1.258 . S
C1053 O1041 1.242 . S
H1054 C1026 0.930 . S
H1055 C1027 0.930 . S
H1056 C1028 0.930 . S
H1057 C1029 0.931 . S
H1058 C1047 0.930 . S
H1059 C1048 0.930 . S
H1060 C1049 0.930 . S
H1061 C1050 0.931 . S
C1062 C1063 1.363 . S
C1062 C1068 1.379 . S
C1062 N1070 1.356 . S
C1063 C1062 1.363 . S
C1063 C1069 1.363 . S
C1064 C1065 1.363 . S
C1064 C1069 1.379 . S
C1064 N1071 1.356 1_554 S
C1065 C1064 1.363 . S
C1065 C1068 1.363 . S
N1066 C1068 1.356 . S
N1066 H1078 0.984 . S
N1066 H1079 0.985 . S
N1067 C1069 1.356 . S
N1067 H1072 0.984 . S
N1067 H1073 0.985 1_554 S
C1068 C1062 1.379 . S
C1068 C1065 1.363 . S
C1068 N1066 1.356 . S
C1069 C1063 1.363 . S
C1069 C1064 1.379 . S
C1069 N1067 1.356 . S
N1070 C1062 1.356 . S
N1070 H1076 0.984 . S
N1070 H1077 0.984 . S
N1071 C1064 1.356 1_556 S
N1071 H1074 0.984 . S
N1071 H1075 0.985 . S
H1072 N1067 0.984 . S
H1073 N1067 0.985 1_556 S
H1074 N1071 0.984 . S
H1075 N1071 0.985 . S
H1076 N1070 0.984 . S
H1077 N1070 0.984 . S
H1078 N1066 0.984 . S
H1079 N1066 0.985 . S
C1080 C1081 1.363 . S
C1080 C1086 1.379 . S
C1080 N1088 1.356 . S
C1081 C1080 1.363 . S
C1081 C1087 1.363 . S
C1082 C1083 1.363 . S
C1082 C1087 1.379 . S
C1082 N1089 1.359 1_554 S
C1083 C1082 1.363 . S
C1083 C1086 1.363 . S
N1084 C1086 1.356 . S
N1084 H1096 0.984 . S
N1084 H1097 0.985 . S
N1085 C1087 1.356 . S
N1085 H1090 0.984 . S
N1085 H1091 0.985 1_554 S
C1086 C1080 1.379 . S
C1086 C1083 1.363 . S
C1086 N1084 1.356 . S
C1087 C1081 1.363 . S
C1087 C1082 1.379 . S
C1087 N1085 1.356 . S
N1088 C1080 1.356 . S
N1088 H1094 0.984 . S
N1088 H1095 0.984 . S
N1089 C1082 1.359 1_556 S
N1089 H1092 0.983 1_556 S
N1089 H1093 0.981 . S
H1090 N1085 0.984 . S
H1091 N1085 0.985 1_556 S
H1092 N1089 0.983 1_554 S
H1093 N1089 0.981 . S
H1094 N1088 0.984 . S
H1095 N1088 0.984 . S
H1096 N1084 0.984 . S
H1097 N1084 0.985 . S
C1098 C1099 1.363 . S
C1098 C1104 1.379 . S
C1098 N1106 1.356 1_554 S
C1099 C1098 1.363 . S
C1099 C1105 1.363 . S
C1100 C1101 1.363 . S
C1100 C1105 1.379 . S
C1100 N1107 1.356 . S
C1101 C1100 1.363 . S
C1101 C1104 1.363 . S
N1102 C1104 1.356 1_556 S
N1102 H1114 0.984 . S
N1102 H1115 0.985 . S
N1103 C1105 1.356 . S
N1103 H1108 0.984 . S
N1103 H1109 0.985 . S
C1104 C1098 1.379 . S
C1104 C1101 1.363 . S
C1104 N1102 1.356 1_554 S
C1105 C1099 1.363 . S
C1105 C1100 1.379 . S
C1105 N1103 1.356 . S
N1106 C1098 1.356 1_556 S
N1106 H1112 0.984 . S
N1106 H1113 0.984 . S
N1107 C1100 1.356 . S
N1107 H1110 0.984 . S
N1107 H1111 0.985 . S
H1108 N1103 0.984 . S
H1109 N1103 0.985 . S
H1110 N1107 0.984 . S
H1111 N1107 0.985 . S
H1112 N1106 0.984 . S
H1113 N1106 0.984 . S
H1114 N1102 0.984 . S
H1115 N1102 0.985 . S
C1116 C1117 1.363 . S
C1116 C1122 1.379 . S
C1116 N1124 1.356 1_556 S
C1117 C1116 1.363 . S
C1117 C1123 1.363 . S
C1118 C1119 1.363 . S
C1118 C1123 1.379 . S
C1118 N1125 1.356 . S
C1119 C1118 1.363 . S
C1119 C1122 1.363 . S
N1120 C1122 1.356 1_554 S
N1120 H1132 0.984 . S
N1120 H1133 0.985 . S
N1121 C1123 1.356 . S
N1121 H1126 0.984 . S
N1121 H1127 0.985 . S
C1122 C1116 1.379 . S
C1122 C1119 1.363 . S
C1122 N1120 1.356 1_556 S
C1123 C1117 1.363 . S
C1123 C1118 1.379 . S
C1123 N1121 1.356 . S
N1124 C1116 1.356 1_554 S
N1124 H1130 0.984 . S
N1124 H1131 0.984 1_554 S
N1125 C1118 1.356 . S
N1125 H1128 0.984 . S
N1125 H1129 0.985 . S
H1126 N1121 0.984 . S
H1127 N1121 0.985 . S
H1128 N1125 0.984 . S
H1129 N1125 0.985 . S
H1130 N1124 0.984 . S
H1131 N1124 0.984 1_556 S
H1132 N1120 0.984 . S
H1133 N1120 0.985 . S
C1134 C1135 1.363 . S
C1134 C1140 1.379 . S
C1134 N1142 1.356 . S
C1135 C1134 1.363 . S
C1135 C1141 1.363 . S
C1136 C1137 1.363 . S
C1136 C1141 1.379 . S
C1136 N1143 1.356 1_556 S
C1137 C1136 1.363 . S
C1137 C1140 1.363 . S
N1138 C1140 1.356 . S
N1138 H1150 0.984 . S
N1138 H1151 0.985 . S
N1139 C1141 1.356 . S
N1139 H1144 0.984 . S
N1139 H1145 0.985 . S
C1140 C1134 1.379 . S
C1140 C1137 1.363 . S
C1140 N1138 1.356 . S
C1141 C1135 1.363 . S
C1141 C1136 1.379 . S
C1141 N1139 1.356 . S
N1142 C1134 1.356 . S
N1142 H1148 0.984 . S
N1142 H1149 0.984 . S
N1143 C1136 1.356 1_554 S
N1143 H1146 0.984 . S
N1143 H1147 0.985 . S
H1144 N1139 0.984 . S
H1145 N1139 0.985 . S
H1146 N1143 0.984 . S
H1147 N1143 0.985 . S
H1148 N1142 0.984 . S
H1149 N1142 0.984 . S
H1150 N1138 0.984 . S
H1151 N1138 0.985 . S
C1152 C1153 1.363 . S
C1152 C1158 1.379 . S
C1152 N1160 1.356 . S
C1153 C1152 1.363 . S
C1153 C1159 1.363 . S
C1154 C1155 1.363 . S
C1154 C1159 1.379 . S
C1154 N1161 1.356 1_556 S
C1155 C1154 1.363 . S
C1155 C1158 1.363 . S
N1156 C1158 1.356 . S
N1156 H1168 0.984 1_545 S
N1156 H1169 0.985 . S
N1157 C1159 1.343 1_554 S
N1157 H1162 0.970 1_554 S
N1157 H1163 1.015 . S
C1158 C1152 1.379 . S
C1158 C1155 1.363 . S
C1158 N1156 1.356 . S
C1159 C1153 1.363 . S
C1159 C1154 1.379 . S
C1159 N1157 1.343 1_556 S
N1160 C1152 1.356 . S
N1160 H1166 0.984 . S
N1160 H1167 0.984 . S
N1161 C1154 1.356 1_554 S
N1161 H1164 0.984 . S
N1161 H1165 0.985 . S
H1162 N1157 0.970 1_556 S
H1163 N1157 1.015 . S
H1164 N1161 0.984 . S
H1165 N1161 0.985 . S
H1166 N1160 0.984 . S
H1167 N1160 0.984 . S
H1168 N1156 0.984 1_565 S
H1169 N1156 0.985 . S
C1170 C1171 1.363 . S
C1170 C1176 1.379 . S
C1170 N1178 1.356 . S
C1171 C1170 1.363 . S
C1171 C1177 1.363 . S
C1172 C1173 1.363 . S
C1172 C1177 1.379 . S
C1172 N1179 1.356 . S
C1173 C1172 1.363 . S
C1173 C1176 1.363 . S
N1174 C1176 1.356 . S
N1174 H1186 0.984 1_545 S
N1174 H1187 0.985 . S
N1175 C1177 1.356 . S
N1175 H1180 0.984 . S
N1175 H1181 0.985 . S
C1176 C1170 1.379 . S
C1176 C1173 1.363 . S
C1176 N1174 1.356 . S
C1177 C1171 1.363 . S
C1177 C1172 1.379 . S
C1177 N1175 1.356 . S
N1178 C1170 1.356 . S
N1178 H1184 0.984 . S
N1178 H1185 0.984 . S
N1179 C1172 1.356 . S
N1179 H1182 0.984 . S
N1179 H1183 0.985 . S
H1180 N1175 0.984 . S
H1181 N1175 0.985 . S
H1182 N1179 0.984 . S
H1183 N1179 0.985 . S
H1184 N1178 0.984 . S
H1185 N1178 0.984 . S
H1186 N1174 0.984 1_565 S
H1187 N1174 0.985 . S
C1188 C1189 1.363 . S
C1188 C1194 1.379 . S
C1188 N1196 1.356 . S
C1189 C1188 1.363 . S
C1189 C1195 1.363 . S
C1190 C1191 1.363 . S
C1190 C1195 1.379 . S
C1190 N1197 1.356 . S
C1191 C1190 1.363 . S
C1191 C1194 1.363 . S
N1192 C1194 1.356 . S
N1192 H1204 0.984 1_556 S
N1192 H1205 0.985 . S
N1193 C1195 1.356 . S
N1193 H1198 0.984 . S
N1193 H1199 0.985 . S
C1194 C1188 1.379 . S
C1194 C1191 1.363 . S
C1194 N1192 1.356 . S
C1195 C1189 1.363 . S
C1195 C1190 1.379 . S
C1195 N1193 1.356 . S
N1196 C1188 1.356 . S
N1196 H1202 0.984 . S
N1196 H1203 0.984 . S
N1197 C1190 1.356 . S
N1197 H1200 0.984 . S
N1197 H1201 0.985 . S
H1198 N1193 0.984 . S
H1199 N1193 0.985 . S
H1200 N1197 0.984 . S
H1201 N1197 0.985 . S
H1202 N1196 0.984 . S
H1203 N1196 0.984 . S
H1204 N1192 0.984 1_554 S
H1205 N1192 0.985 . S
C1206 C1207 1.363 . S
C1206 C1212 1.379 . S
C1206 N1214 1.356 . S
C1207 C1206 1.363 . S
C1207 C1213 1.363 . S
C1208 C1209 1.321 1_554 S
C1208 C1213 1.384 1_554 S
C1208 N1215 1.386 . S
C1209 C1208 1.321 1_556 S
C1209 C1212 1.363 . S
N1210 C1212 1.356 . S
N1210 H1222 0.984 . S
N1210 H1223 0.985 . S
N1211 C1213 1.356 1_554 S
N1211 H1216 0.984 . S
N1211 H1217 0.985 . S
C1212 C1206 1.379 . S
C1212 C1209 1.363 . S
C1212 N1210 1.356 . S
C1213 C1207 1.363 . S
C1213 C1208 1.384 1_556 S
C1213 N1211 1.356 1_556 S
N1214 C1206 1.356 . S
N1214 H1220 0.984 . S
N1214 H1221 0.984 . S
N1215 C1208 1.386 . S
N1215 H1218 0.984 . S
N1215 H1219 0.985 . S
H1216 N1211 0.984 . S
H1217 N1211 0.985 . S
H1218 N1215 0.984 . S
H1219 N1215 0.985 . S
H1220 N1214 0.984 . S
H1221 N1214 0.984 . S
H1222 N1210 0.984 . S
H1223 N1210 0.985 . S
C1224 C1225 1.363 . S
C1224 C1230 1.379 . S
C1224 N1232 1.356 . S
C1225 C1224 1.363 . S
C1225 C1231 1.363 . S
C1226 C1227 1.363 . S
C1226 C1231 1.379 . S
C1226 N1233 1.356 1_554 S
C1227 C1226 1.363 . S
C1227 C1230 1.363 . S
N1228 C1230 1.356 . S
N1228 H1240 0.984 . S
N1228 H1241 0.985 . S
N1229 C1231 1.356 1_556 S
N1229 H1234 0.984 1_556 S
N1229 H1235 0.985 . S
C1230 C1224 1.379 . S
C1230 C1227 1.363 . S
C1230 N1228 1.356 . S
C1231 C1225 1.363 . S
C1231 C1226 1.379 . S
C1231 N1229 1.356 1_554 S
N1232 C1224 1.356 . S
N1232 H1238 0.984 . S
N1232 H1239 0.984 . S
N1233 C1226 1.356 1_556 S
N1233 H1236 0.984 . S
N1233 H1237 0.985 . S
H1234 N1229 0.984 1_554 S
H1235 N1229 0.985 . S
H1236 N1233 0.984 . S
H1237 N1233 0.985 . S
H1238 N1232 0.984 . S
H1239 N1232 0.984 . S
H1240 N1228 0.984 . S
H1241 N1228 0.985 . S
C1242 C1243 1.363 . S
C1242 C1248 1.379 . S
C1242 N1250 1.356 . S
C1243 C1242 1.363 . S
C1243 C1249 1.363 . S
C1244 C1245 1.363 . S
C1244 C1249 1.379 . S
C1244 N1251 1.356 . S
C1245 C1244 1.363 . S
C1245 C1248 1.363 . S
N1246 C1248 1.356 . S
N1246 H1258 0.984 . S
N1246 H1259 0.985 . S
N1247 C1249 1.356 . S
N1247 H1252 0.984 . S
N1247 H1253 0.985 . S
C1248 C1242 1.379 . S
C1248 C1245 1.363 . S
C1248 N1246 1.356 . S
C1249 C1243 1.363 . S
C1249 C1244 1.379 . S
C1249 N1247 1.356 . S
N1250 C1242 1.356 . S
N1250 H1256 0.984 . S
N1250 H1257 0.984 . S
N1251 C1244 1.356 . S
N1251 H1254 0.984 . S
N1251 H1255 0.985 . S
H1252 N1247 0.984 . S
H1253 N1247 0.985 . S
H1254 N1251 0.984 . S
H1255 N1251 0.985 . S
H1256 N1250 0.984 . S
H1257 N1250 0.984 . S
H1258 N1246 0.984 . S
H1259 N1246 0.985 . S
C1260 C1261 1.363 . S
C1260 C1266 1.379 . S
C1260 N1268 1.356 1_554 S
C1261 C1260 1.363 . S
C1261 C1267 1.363 . S
C1262 C1263 1.363 . S
C1262 C1267 1.379 . S
C1262 N1269 1.356 . S
C1263 C1262 1.363 . S
C1263 C1266 1.363 . S
N1264 C1266 1.356 1_556 S
N1264 H1276 0.984 . S
N1264 H1277 0.985 . S
N1265 C1267 1.356 . S
N1265 H1270 0.984 . S
N1265 H1271 0.985 . S
C1266 C1260 1.379 . S
C1266 C1263 1.363 . S
C1266 N1264 1.356 1_554 S
C1267 C1261 1.363 . S
C1267 C1262 1.379 . S
C1267 N1265 1.356 . S
N1268 C1260 1.356 1_556 S
N1268 H1274 0.984 . S
N1268 H1275 0.984 1_556 S
N1269 C1262 1.356 . S
N1269 H1272 0.984 . S
N1269 H1273 0.985 1_565 S
H1270 N1265 0.984 . S
H1271 N1265 0.985 . S
H1272 N1269 0.984 . S
H1273 N1269 0.985 1_545 S
H1274 N1268 0.984 . S
H1275 N1268 0.984 1_554 S
H1276 N1264 0.984 . S
H1277 N1264 0.985 . S
C1278 C1279 1.363 . S
C1278 C1284 1.379 . S
C1278 N1286 1.356 1_455 S
C1279 C1278 1.363 . S
C1279 C1285 1.363 . S
C1280 C1281 1.363 . S
C1280 C1285 1.379 . S
C1280 N1287 1.356 . S
C1281 C1280 1.363 . S
C1281 C1284 1.363 . S
N1282 C1284 1.356 . S
N1282 H1294 0.984 . S
N1282 H1295 0.985 . S
N1283 C1285 1.356 . S
N1283 H1288 0.984 1_455 S
N1283 H1289 0.985 . S
C1284 C1278 1.379 . S
C1284 C1281 1.363 . S
C1284 N1282 1.356 . S
C1285 C1279 1.363 . S
C1285 C1280 1.379 . S
C1285 N1283 1.356 . S
N1286 C1278 1.356 1_655 S
N1286 H1292 0.984 . S
N1286 H1293 0.984 . S
N1287 C1280 1.356 . S
N1287 H1290 0.984 . S
N1287 H1291 0.985 . S
H1288 N1283 0.984 1_655 S
H1289 N1283 0.985 . S
H1290 N1287 0.984 . S
H1291 N1287 0.985 . S
H1292 N1286 0.984 . S
H1293 N1286 0.984 . S
H1294 N1282 0.984 . S
H1295 N1282 0.985 . S
C1296 C1297 1.363 . S
C1296 C1302 1.379 . S
C1296 N1304 1.356 . S
C1297 C1296 1.363 . S
C1297 C1303 1.363 . S
C1298 C1299 1.363 . S
C1298 C1303 1.379 . S
C1298 N1305 1.356 . S
C1299 C1298 1.363 . S
C1299 C1302 1.363 . S
N1300 C1302 1.356 . S
N1300 H1312 0.984 . S
N1300 H1313 0.985 . S
N1301 C1303 1.356 . S
N1301 H1306 0.984 . S
N1301 H1307 0.985 . S
C1302 C1296 1.379 . S
C1302 C1299 1.363 . S
C1302 N1300 1.356 . S
C1303 C1297 1.363 . S
C1303 C1298 1.379 . S
C1303 N1301 1.356 . S
N1304 C1296 1.356 . S
N1304 H1310 0.984 . S
N1304 H1311 0.984 . S
N1305 C1298 1.356 . S
N1305 H1308 0.984 . S
N1305 H1309 0.985 . S
H1306 N1301 0.984 . S
H1307 N1301 0.985 . S
H1308 N1305 0.984 . S
H1309 N1305 0.985 . S
H1310 N1304 0.984 . S
H1311 N1304 0.984 . S
H1312 N1300 0.984 . S
H1313 N1300 0.985 . S
C1314 C1315 1.363 1_565 S
C1314 C1320 1.379 . S
C1314 N1322 1.356 1_565 S
C1315 C1314 1.363 1_545 S
C1315 C1321 1.363 1_545 S
C1316 C1317 1.363 . S
C1316 C1321 1.379 . S
C1316 N1323 1.356 . S
C1317 C1316 1.363 . S
C1317 C1320 1.363 . S
N1318 C1320 1.356 . S
N1318 H1330 0.984 . S
N1318 H1331 0.985 . S
N1319 C1321 1.356 1_545 S
N1319 H1324 0.984 . S
N1319 H1325 0.985 . S
C1320 C1314 1.379 . S
C1320 C1317 1.363 . S
C1320 N1318 1.356 . S
C1321 C1315 1.363 1_565 S
C1321 C1316 1.379 . S
C1321 N1319 1.356 1_565 S
N1322 C1314 1.356 1_545 S
N1322 H1328 0.984 . S
N1322 H1329 0.984 . S
N1323 C1316 1.356 . S
N1323 H1326 0.984 . S
N1323 H1327 0.985 . S
H1324 N1319 0.984 . S
H1325 N1319 0.985 . S
H1326 N1323 0.984 . S
H1327 N1323 0.985 . S
H1328 N1322 0.984 . S
H1329 N1322 0.984 . S
H1330 N1318 0.984 . S
H1331 N1318 0.985 . S
C1332 C1333 1.363 . S
C1332 C1338 1.379 . S
C1332 N1340 1.356 . S
C1333 C1332 1.363 . S
C1333 C1339 1.363 . S
C1334 C1335 1.363 . S
C1334 C1339 1.379 . S
C1334 N1341 1.356 . S
C1335 C1334 1.363 . S
C1335 C1338 1.363 . S
N1336 C1338 1.356 . S
N1336 H1348 0.984 . S
N1336 H1349 0.985 . S
N1337 C1339 1.356 . S
N1337 H1342 0.984 . S
N1337 H1343 0.985 . S
C1338 C1332 1.379 . S
C1338 C1335 1.363 . S
C1338 N1336 1.356 . S
C1339 C1333 1.363 . S
C1339 C1334 1.379 . S
C1339 N1337 1.356 . S
N1340 C1332 1.356 . S
N1340 H1346 0.984 . S
N1340 H1347 0.984 . S
N1341 C1334 1.356 . S
N1341 H1344 0.984 . S
N1341 H1345 0.985 . S
H1342 N1337 0.984 . S
H1343 N1337 0.985 . S
H1344 N1341 0.984 . S
H1345 N1341 0.985 . S
H1346 N1340 0.984 . S
H1347 N1340 0.984 . S
H1348 N1336 0.984 . S
H1349 N1336 0.985 . S
C1350 C1351 1.363 . S
C1350 C1356 1.379 . S
C1350 N1358 1.356 . S
C1351 C1350 1.363 . S
C1351 C1357 1.363 . S
C1352 C1353 1.363 . S
C1352 C1357 1.379 . S
C1352 N1359 1.356 . S
C1353 C1352 1.363 . S
C1353 C1356 1.363 . S
N1354 C1356 1.356 . S
N1354 H1366 0.984 . S
N1354 H1367 0.985 . S
N1355 C1357 1.356 . S
N1355 H1360 0.984 . S
N1355 H1361 0.985 . S
C1356 C1350 1.379 . S
C1356 C1353 1.363 . S
C1356 N1354 1.356 . S
C1357 C1351 1.363 . S
C1357 C1352 1.379 . S
C1357 N1355 1.356 . S
N1358 C1350 1.356 . S
N1358 H1364 0.984 . S
N1358 H1365 0.984 . S
N1359 C1352 1.356 . S
N1359 H1362 0.984 . S
N1359 H1363 0.985 . S
H1360 N1355 0.984 . S
H1361 N1355 0.985 . S
H1362 N1359 0.984 . S
H1363 N1359 0.985 . S
H1364 N1358 0.984 . S
H1365 N1358 0.984 . S
H1366 N1354 0.984 . S
H1367 N1354 0.985 . S
C1368 C1369 1.363 . S
C1368 C1374 1.379 . S
C1368 N1376 1.356 . S
C1369 C1368 1.363 . S
C1369 C1375 1.363 . S
C1370 C1371 1.363 . S
C1370 C1375 1.379 . S
C1370 N1377 1.356 . S
C1371 C1370 1.363 . S
C1371 C1374 1.363 . S
N1372 C1374 1.356 . S
N1372 H1384 0.984 . S
N1372 H1385 0.985 . S
N1373 C1375 1.356 . S
N1373 H1378 0.984 . S
N1373 H1379 0.985 . S
C1374 C1368 1.379 . S
C1374 C1371 1.363 . S
C1374 N1372 1.356 . S
C1375 C1369 1.363 . S
C1375 C1370 1.379 . S
C1375 N1373 1.356 . S
N1376 C1368 1.356 . S
N1376 H1382 0.984 . S
N1376 H1383 0.984 . S
N1377 C1370 1.356 . S
N1377 H1380 0.984 . S
N1377 H1381 0.985 . S
H1378 N1373 0.984 . S
H1379 N1373 0.985 . S
H1380 N1377 0.984 . S
H1381 N1377 0.985 . S
H1382 N1376 0.984 . S
H1383 N1376 0.984 . S
H1384 N1372 0.984 . S
H1385 N1372 0.985 . S
C1386 C1387 1.363 . S
C1386 C1392 1.379 . S
C1386 N1394 1.356 . S
C1387 C1386 1.363 . S
C1387 C1393 1.363 . S
C1388 C1389 1.363 . S
C1388 C1393 1.379 . S
C1388 N1395 1.356 . S
C1389 C1388 1.363 . S
C1389 C1392 1.363 . S
N1390 C1392 1.356 . S
N1390 H1402 0.984 . S
N1390 H1403 0.985 . S
N1391 C1393 1.356 . S
N1391 H1396 0.984 . S
N1391 H1397 0.985 . S
C1392 C1386 1.379 . S
C1392 C1389 1.363 . S
C1392 N1390 1.356 . S
C1393 C1387 1.363 . S
C1393 C1388 1.379 . S
C1393 N1391 1.356 . S
N1394 C1386 1.356 . S
N1394 H1400 0.984 . S
N1394 H1401 0.984 . S
N1395 C1388 1.356 . S
N1395 H1398 0.984 . S
N1395 H1399 0.985 . S
H1396 N1391 0.984 . S
H1397 N1391 0.985 . S
H1398 N1395 0.984 . S
H1399 N1395 0.985 . S
H1400 N1394 0.984 . S
H1401 N1394 0.984 . S
H1402 N1390 0.984 . S
H1403 N1390 0.985 . S
C1404 C1405 1.363 . S
C1404 C1410 1.379 . S
C1404 N1412 1.356 . S
C1405 C1404 1.363 . S
C1405 C1411 1.363 . S
C1406 C1407 1.363 . S
C1406 C1411 1.379 . S
C1406 N1413 1.356 . S
C1407 C1406 1.363 . S
C1407 C1410 1.363 . S
N1408 C1410 1.356 . S
N1408 H1420 0.984 . S
N1408 H1421 0.985 . S
N1409 C1411 1.356 . S
N1409 H1414 0.984 . S
N1409 H1415 0.985 . S
C1410 C1404 1.379 . S
C1410 C1407 1.363 . S
C1410 N1408 1.356 . S
C1411 C1405 1.363 . S
C1411 C1406 1.379 . S
C1411 N1409 1.356 . S
N1412 C1404 1.356 . S
N1412 H1418 0.984 . S
N1412 H1419 0.984 . S
N1413 C1406 1.356 . S
N1413 H1416 0.984 . S
N1413 H1417 0.985 . S
H1414 N1409 0.984 . S
H1415 N1409 0.985 . S
H1416 N1413 0.984 . S
H1417 N1413 0.985 . S
H1418 N1412 0.984 . S
H1419 N1412 0.984 . S
H1420 N1408 0.984 . S
H1421 N1408 0.985 . S
C1422 C1423 1.363 . S
C1422 C1428 1.379 . S
C1422 N1430 1.356 . S
C1423 C1422 1.363 . S
C1423 C1429 1.363 . S
C1424 C1425 1.363 . S
C1424 C1429 1.379 . S
C1424 N1431 1.356 . S
C1425 C1424 1.363 . S
C1425 C1428 1.363 . S
N1426 C1428 1.356 . S
N1426 H1438 0.984 . S
N1426 H1439 0.985 . S
N1427 C1429 1.356 . S
N1427 H1432 0.984 . S
N1427 H1433 0.985 . S
C1428 C1422 1.379 . S
C1428 C1425 1.363 . S
C1428 N1426 1.356 . S
C1429 C1423 1.363 . S
C1429 C1424 1.379 . S
C1429 N1427 1.356 . S
N1430 C1422 1.356 . S
N1430 H1436 0.984 . S
N1430 H1437 0.984 . S
N1431 C1424 1.356 . S
N1431 H1434 0.984 . S
N1431 H1435 0.985 . S
H1432 N1427 0.984 . S
H1433 N1427 0.985 . S
H1434 N1431 0.984 . S
H1435 N1431 0.985 . S
H1436 N1430 0.984 . S
H1437 N1430 0.984 . S
H1438 N1426 0.984 . S
H1439 N1426 0.985 . S
C1440 C1441 1.363 . S
C1440 C1446 1.379 . S
C1440 N1448 1.356 1_565 S
C1441 C1440 1.363 . S
C1441 C1447 1.363 . S
C1442 C1443 1.363 . S
C1442 C1447 1.379 . S
C1442 N1449 1.356 . S
C1443 C1442 1.363 . S
C1443 C1446 1.363 . S
N1444 C1446 1.356 . S
N1444 H1456 0.984 . S
N1444 H1457 0.985 . S
N1445 C1447 1.356 1_545 S
N1445 H1450 0.984 . S
N1445 H1451 0.985 1_545 S
C1446 C1440 1.379 . S
C1446 C1443 1.363 . S
C1446 N1444 1.356 . S
C1447 C1441 1.363 . S
C1447 C1442 1.379 . S
C1447 N1445 1.356 1_565 S
N1448 C1440 1.356 1_545 S
N1448 H1454 0.984 . S
N1448 H1455 0.984 . S
N1449 C1442 1.356 . S
N1449 H1452 0.984 . S
N1449 H1453 0.985 . S
H1450 N1445 0.984 . S
H1451 N1445 0.985 1_565 S
H1452 N1449 0.984 . S
H1453 N1449 0.985 . S
H1454 N1448 0.984 . S
H1455 N1448 0.984 . S
H1456 N1444 0.984 . S
H1457 N1444 0.985 . S
C1458 C1459 1.363 . S
C1458 C1464 1.379 . S
C1458 N1466 1.356 . S
C1459 C1458 1.363 . S
C1459 C1465 1.363 . S
C1460 C1461 1.363 . S
C1460 C1465 1.379 . S
C1460 N1467 1.356 . S
C1461 C1460 1.363 . S
C1461 C1464 1.363 . S
N1462 C1464 1.356 . S
N1462 H1474 0.984 . S
N1462 H1475 0.985 . S
N1463 C1465 1.356 . S
N1463 H1468 0.994 . S
N1463 H1469 0.985 . S
C1464 C1458 1.379 . S
C1464 C1461 1.363 . S
C1464 N1462 1.356 . S
C1465 C1459 1.363 . S
C1465 C1460 1.379 . S
C1465 N1463 1.356 . S
N1466 C1458 1.356 . S
N1466 H1472 0.984 . S
N1466 H1473 0.984 1_455 S
N1467 C1460 1.356 . S
N1467 H1470 0.984 . S
N1467 H1471 0.985 . S
H1468 N1463 0.994 . S
H1469 N1463 0.985 . S
H1470 N1467 0.984 . S
H1471 N1467 0.985 . S
H1472 N1466 0.984 . S
H1473 N1466 0.984 1_655 S
H1474 N1462 0.984 . S
H1475 N1462 0.985 . S
C1476 C1477 1.363 . S
C1476 C1482 1.379 . S
C1476 N1484 1.356 . S
C1477 C1476 1.363 . S
C1477 C1483 1.363 . S
C1478 C1479 1.363 . S
C1478 C1483 1.379 . S
C1478 N1485 1.356 . S
C1479 C1478 1.363 . S
C1479 C1482 1.363 . S
N1480 C1482 1.356 . S
N1480 H1492 0.984 . S
N1480 H1493 0.985 . S
N1481 C1483 1.356 . S
N1481 H1486 0.984 . S
N1481 H1487 0.985 . S
C1482 C1476 1.379 . S
C1482 C1479 1.363 . S
C1482 N1480 1.356 . S
C1483 C1477 1.363 . S
C1483 C1478 1.379 . S
C1483 N1481 1.356 . S
N1484 C1476 1.356 . S
N1484 H1490 0.984 . S
N1484 H1491 0.984 . S
N1485 C1478 1.356 . S
N1485 H1488 0.984 . S
N1485 H1489 0.985 . S
H1486 N1481 0.984 . S
H1487 N1481 0.985 . S
H1488 N1485 0.984 . S
H1489 N1485 0.985 . S
H1490 N1484 0.984 . S
H1491 N1484 0.984 . S
H1492 N1480 0.984 . S
H1493 N1480 0.985 . S
C1494 C1495 1.363 . S
C1494 C1500 1.379 . S
C1494 N1502 1.356 . S
C1495 C1494 1.363 . S
C1495 C1501 1.363 . S
C1496 C1497 1.363 . S
C1496 C1501 1.379 . S
C1496 N1503 1.356 . S
C1497 C1496 1.363 . S
C1497 C1500 1.363 . S
N1498 C1500 1.356 . S
N1498 H1510 0.984 . S
N1498 H1511 0.985 . S
N1499 C1501 1.356 . S
N1499 H1504 0.984 . S
N1499 H1505 0.985 . S
C1500 C1494 1.379 . S
C1500 C1497 1.363 . S
C1500 N1498 1.356 . S
C1501 C1495 1.363 . S
C1501 C1496 1.379 . S
C1501 N1499 1.356 . S
N1502 C1494 1.356 . S
N1502 H1508 0.984 . S
N1502 H1509 0.984 . S
N1503 C1496 1.356 . S
N1503 H1506 0.984 . S
N1503 H1507 0.985 . S
H1504 N1499 0.984 . S
H1505 N1499 0.985 . S
H1506 N1503 0.984 . S
H1507 N1503 0.985 . S
H1508 N1502 0.984 . S
H1509 N1502 0.984 . S
H1510 N1498 0.984 . S
H1511 N1498 0.985 . S
C1512 C1513 1.363 . S
C1512 C1518 1.379 . S
C1512 N1520 1.356 . S
C1513 C1512 1.363 . S
C1513 C1519 1.363 . S
C1514 C1515 1.363 . S
C1514 C1519 1.379 . S
C1514 N1521 1.356 . S
C1515 C1514 1.363 . S
C1515 C1518 1.363 . S
N1516 C1518 1.356 . S
N1516 H1528 0.984 . S
N1516 H1529 0.985 . S
N1517 C1519 1.356 . S
N1517 H1522 0.984 . S
N1517 H1523 0.985 . S
C1518 C1512 1.379 . S
C1518 C1515 1.363 . S
C1518 N1516 1.356 . S
C1519 C1513 1.363 . S
C1519 C1514 1.379 . S
C1519 N1517 1.356 . S
N1520 C1512 1.356 . S
N1520 H1526 0.984 . S
N1520 H1527 0.984 . S
N1521 C1514 1.356 . S
N1521 H1524 0.984 . S
N1521 H1525 0.985 . S
H1522 N1517 0.984 . S
H1523 N1517 0.985 . S
H1524 N1521 0.984 . S
H1525 N1521 0.985 . S
H1526 N1520 0.984 . S
H1527 N1520 0.984 . S
H1528 N1516 0.984 . S
H1529 N1516 0.985 . S
C1530 C1531 1.363 . S
C1530 C1536 1.379 . S
C1530 N1538 1.356 . S
C1531 C1530 1.363 . S
C1531 C1537 1.363 . S
C1532 C1533 1.363 . S
C1532 C1537 1.379 . S
C1532 N1539 1.356 . S
C1533 C1532 1.363 . S
C1533 C1536 1.363 . S
N1534 C1536 1.356 . S
N1534 H1546 0.984 . S
N1534 H1547 0.985 . S
N1535 C1537 1.356 . S
N1535 H1540 0.984 . S
N1535 H1541 0.985 . S
C1536 C1530 1.379 . S
C1536 C1533 1.363 . S
C1536 N1534 1.356 . S
C1537 C1531 1.363 . S
C1537 C1532 1.379 . S
C1537 N1535 1.356 . S
N1538 C1530 1.356 . S
N1538 H1544 0.984 . S
N1538 H1545 0.984 . S
N1539 C1532 1.356 . S
N1539 H1542 0.984 . S
N1539 H1543 0.985 . S
H1540 N1535 0.984 . S
H1541 N1535 0.985 . S
H1542 N1539 0.984 . S
H1543 N1539 0.985 . S
H1544 N1538 0.984 . S
H1545 N1538 0.984 . S
H1546 N1534 0.984 . S
H1547 N1534 0.985 . S
C1548 C1549 1.363 . S
C1548 C1554 1.379 . S
C1548 N1556 1.329 1_545 S
C1549 C1548 1.363 . S
C1549 C1555 1.363 . S
C1550 C1551 1.363 . S
C1550 C1555 1.379 . S
C1550 N1557 1.356 . S
C1551 C1550 1.363 . S
C1551 C1554 1.363 . S
N1552 C1554 1.356 . S
N1552 H1564 0.984 . S
N1552 H1565 0.985 . S
N1553 C1555 1.356 1_565 S
N1553 H1558 0.984 . S
N1553 H1559 0.985 . S
C1554 C1548 1.379 . S
C1554 C1551 1.363 . S
C1554 N1552 1.356 . S
C1555 C1549 1.363 . S
C1555 C1550 1.379 . S
C1555 N1553 1.356 1_545 S
N1556 C1548 1.329 1_565 S
N1556 H1562 0.983 1_565 S
N1556 H1563 1.014 . S
N1557 C1550 1.356 . S
N1557 H1560 0.984 . S
N1557 H1561 0.985 . S
H1558 N1553 0.984 . S
H1559 N1553 0.985 . S
H1560 N1557 0.984 . S
H1561 N1557 0.985 . S
H1562 N1556 0.983 1_545 S
H1563 N1556 1.014 . S
H1564 N1552 0.984 . S
H1565 N1552 0.985 . S
C1566 C1567 1.363 . S
C1566 C1572 1.379 . S
C1566 N1574 1.356 1_655 S
C1567 C1566 1.363 . S
C1567 C1573 1.363 . S
C1568 C1569 1.363 . S
C1568 C1573 1.379 . S
C1568 N1575 1.356 . S
C1569 C1568 1.363 . S
C1569 C1572 1.363 . S
N1570 C1572 1.356 . S
N1570 H1582 0.984 . S
N1570 H1583 0.985 . S
N1571 C1573 1.356 . S
N1571 H1576 0.984 . S
N1571 H1577 0.985 . S
C1572 C1566 1.379 . S
C1572 C1569 1.363 . S
C1572 N1570 1.356 . S
C1573 C1567 1.363 . S
C1573 C1568 1.379 . S
C1573 N1571 1.356 . S
N1574 C1566 1.356 1_455 S
N1574 H1580 0.984 . S
N1574 H1581 0.984 . S
N1575 C1568 1.356 . S
N1575 H1578 0.984 . S
N1575 H1579 0.985 . S
H1576 N1571 0.984 . S
H1577 N1571 0.985 . S
H1578 N1575 0.984 . S
H1579 N1575 0.985 . S
H1580 N1574 0.984 . S
H1581 N1574 0.984 . S
H1582 N1570 0.984 . S
H1583 N1570 0.985 . S
C1584 C1585 1.363 . S
C1584 C1590 1.379 . S
C1584 N1592 1.356 . S
C1585 C1584 1.363 . S
C1585 C1591 1.363 . S
C1586 C1587 1.363 . S
C1586 C1591 1.379 . S
C1586 N1593 1.356 . S
C1587 C1586 1.363 . S
C1587 C1590 1.363 . S
N1588 C1590 1.356 . S
N1588 H1600 0.984 . S
N1588 H1601 0.985 . S
N1589 C1591 1.356 . S
N1589 H1594 0.984 . S
N1589 H1595 0.985 . S
C1590 C1584 1.379 . S
C1590 C1587 1.363 . S
C1590 N1588 1.356 . S
C1591 C1585 1.363 . S
C1591 C1586 1.379 . S
C1591 N1589 1.356 . S
N1592 C1584 1.356 . S
N1592 H1598 0.984 . S
N1592 H1599 0.984 . S
N1593 C1586 1.356 . S
N1593 H1596 0.984 . S
N1593 H1597 0.985 . S
H1594 N1589 0.984 . S
H1595 N1589 0.985 . S
H1596 N1593 0.984 . S
H1597 N1593 0.985 . S
H1598 N1592 0.984 . S
H1599 N1592 0.984 . S
H1600 N1588 0.984 . S
H1601 N1588 0.985 . S
C1602 C1603 1.363 . S
C1602 C1608 1.379 . S
C1602 N1610 1.356 . S
C1603 C1602 1.363 . S
C1603 C1609 1.363 . S
C1604 C1605 1.363 . S
C1604 C1609 1.379 . S
C1604 N1611 1.356 . S
C1605 C1604 1.363 . S
C1605 C1608 1.363 . S
N1606 C1608 1.356 . S
N1606 H1618 0.984 . S
N1606 H1619 0.985 . S
N1607 C1609 1.356 1_455 S
N1607 H1612 0.984 . S
N1607 H1613 0.985 . S
C1608 C1602 1.379 . S
C1608 C1605 1.363 . S
C1608 N1606 1.356 . S
C1609 C1603 1.363 . S
C1609 C1604 1.379 . S
C1609 N1607 1.356 1_655 S
N1610 C1602 1.356 . S
N1610 H1616 0.984 . S
N1610 H1617 0.983 1_655 S
N1611 C1604 1.356 . S
N1611 H1614 0.984 . S
N1611 H1615 0.985 . S
H1612 N1607 0.984 . S
H1613 N1607 0.985 . S
H1614 N1611 0.984 . S
H1615 N1611 0.985 . S
H1616 N1610 0.984 . S
H1617 N1610 0.983 1_455 S
H1618 N1606 0.984 . S
H1619 N1606 0.985 . S
C1620 C1621 1.363 . S
C1620 C1626 1.379 . S
C1620 N1628 1.356 . S
C1621 C1620 1.363 . S
C1621 C1627 1.363 . S
C1622 C1623 1.363 . S
C1622 C1627 1.379 . S
C1622 N1629 1.356 . S
C1623 C1622 1.363 . S
C1623 C1626 1.363 . S
N1624 C1626 1.356 . S
N1624 H1636 0.984 . S
N1624 H1637 0.985 . S
N1625 C1627 1.356 . S
N1625 H1630 0.984 . S
N1625 H1631 0.985 . S
C1626 C1620 1.379 . S
C1626 C1623 1.363 . S
C1626 N1624 1.356 . S
C1627 C1621 1.363 . S
C1627 C1622 1.379 . S
C1627 N1625 1.356 . S
N1628 C1620 1.356 . S
N1628 H1634 0.984 . S
N1628 H1635 0.984 . S
N1629 C1622 1.356 . S
N1629 H1632 0.984 . S
N1629 H1633 0.985 . S
H1630 N1625 0.984 . S
H1631 N1625 0.985 . S
H1632 N1629 0.984 . S
H1633 N1629 0.985 . S
H1634 N1628 0.984 . S
H1635 N1628 0.984 . S
H1636 N1624 0.984 . S
H1637 N1624 0.985 . S
C1638 C1639 1.363 1_545 S
C1638 C1644 1.379 . S
C1638 N1646 1.356 1_545 S
C1639 C1638 1.363 1_565 S
C1639 C1645 1.363 1_565 S
C1640 C1641 1.363 . S
C1640 C1645 1.379 . S
C1640 N1647 1.356 . S
C1641 C1640 1.363 . S
C1641 C1644 1.363 . S
N1642 C1644 1.356 . S
N1642 H1654 0.984 . S
N1642 H1655 0.985 . S
N1643 C1645 1.356 1_565 S
N1643 H1648 0.984 . S
N1643 H1649 0.985 1_565 S
C1644 C1638 1.379 . S
C1644 C1641 1.363 . S
C1644 N1642 1.356 . S
C1645 C1639 1.363 1_545 S
C1645 C1640 1.379 . S
C1645 N1643 1.356 1_545 S
N1646 C1638 1.356 1_565 S
N1646 H1652 0.984 . S
N1646 H1653 0.984 . S
N1647 C1640 1.356 . S
N1647 H1650 0.984 . S
N1647 H1651 0.985 . S
H1648 N1643 0.984 . S
H1649 N1643 0.985 1_545 S
H1650 N1647 0.984 . S
H1651 N1647 0.985 . S
H1652 N1646 0.984 . S
H1653 N1646 0.984 . S
H1654 N1642 0.984 . S
H1655 N1642 0.985 . S
C1656 C1657 1.363 . S
C1656 C1662 1.379 . S
C1656 N1664 1.356 . S
C1657 C1656 1.363 . S
C1657 C1663 1.363 . S
C1658 C1659 1.363 . S
C1658 C1663 1.379 . S
C1658 N1665 1.356 . S
C1659 C1658 1.363 . S
C1659 C1662 1.363 . S
N1660 C1662 1.356 . S
N1660 H1672 0.984 . S
N1660 H1673 0.985 . S
N1661 C1663 1.356 . S
N1661 H1666 0.984 . S
N1661 H1667 0.985 . S
C1662 C1656 1.379 . S
C1662 C1659 1.363 . S
C1662 N1660 1.356 . S
C1663 C1657 1.363 . S
C1663 C1658 1.379 . S
C1663 N1661 1.356 . S
N1664 C1656 1.356 . S
N1664 H1670 0.984 . S
N1664 H1671 0.984 . S
N1665 C1658 1.356 . S
N1665 H1668 0.984 . S
N1665 H1669 0.985 . S
H1666 N1661 0.984 . S
H1667 N1661 0.985 . S
H1668 N1665 0.984 . S
H1669 N1665 0.985 . S
H1670 N1664 0.984 . S
H1671 N1664 0.984 . S
H1672 N1660 0.984 . S
H1673 N1660 0.985 . S
C1674 C1675 1.363 . S
C1674 C1680 1.379 . S
C1674 N1682 1.356 . S
C1675 C1674 1.363 . S
C1675 C1681 1.363 . S
C1676 C1677 1.363 . S
C1676 C1681 1.379 . S
C1676 N1683 1.356 . S
C1677 C1676 1.363 . S
C1677 C1680 1.363 . S
N1678 C1680 1.356 . S
N1678 H1690 0.984 . S
N1678 H1691 0.985 . S
N1679 C1681 1.356 . S
N1679 H1684 0.984 . S
N1679 H1685 0.985 . S
C1680 C1674 1.379 . S
C1680 C1677 1.363 . S
C1680 N1678 1.356 . S
C1681 C1675 1.363 . S
C1681 C1676 1.379 . S
C1681 N1679 1.356 . S
N1682 C1674 1.356 . S
N1682 H1688 0.984 . S
N1682 H1689 0.984 . S
N1683 C1676 1.356 . S
N1683 H1686 0.984 . S
N1683 H1687 0.985 . S
H1684 N1679 0.984 . S
H1685 N1679 0.985 . S
H1686 N1683 0.984 . S
H1687 N1683 0.985 . S
H1688 N1682 0.984 . S
H1689 N1682 0.984 . S
H1690 N1678 0.984 . S
H1691 N1678 0.985 . S
C1692 C1693 1.363 . S
C1692 C1698 1.379 . S
C1692 N1700 1.356 . S
C1693 C1692 1.363 . S
C1693 C1699 1.363 . S
C1694 C1695 1.363 . S
C1694 C1699 1.379 . S
C1694 N1701 1.356 . S
C1695 C1694 1.363 . S
C1695 C1698 1.363 . S
N1696 C1698 1.356 . S
N1696 H1708 0.984 . S
N1696 H1709 0.985 . S
N1697 C1699 1.356 . S
N1697 H1702 0.984 . S
N1697 H1703 0.985 . S
C1698 C1692 1.379 . S
C1698 C1695 1.363 . S
C1698 N1696 1.356 . S
C1699 C1693 1.363 . S
C1699 C1694 1.379 . S
C1699 N1697 1.356 . S
N1700 C1692 1.356 . S
N1700 H1706 0.984 . S
N1700 H1707 0.984 . S
N1701 C1694 1.356 . S
N1701 H1704 0.984 . S
N1701 H1705 0.985 . S
H1702 N1697 0.984 . S
H1703 N1697 0.985 . S
H1704 N1701 0.984 . S
H1705 N1701 0.985 . S
H1706 N1700 0.984 . S
H1707 N1700 0.984 . S
H1708 N1696 0.984 . S
H1709 N1696 0.985 . S
C1710 C1711 1.363 . S
C1710 C1716 1.379 . S
C1710 N1718 1.356 . S
C1711 C1710 1.363 . S
C1711 C1717 1.363 . S
C1712 C1713 1.363 1_545 S
C1712 C1717 1.379 1_545 S
C1712 N1719 1.356 . S
C1713 C1712 1.363 1_565 S
C1713 C1716 1.363 . S
N1714 C1716 1.356 . S
N1714 H1726 0.984 . S
N1714 H1727 0.985 . S
N1715 C1717 1.356 1_545 S
N1715 H1720 0.984 1_545 S
N1715 H1721 0.985 . S
C1716 C1710 1.379 . S
C1716 C1713 1.363 . S
C1716 N1714 1.356 . S
C1717 C1711 1.363 . S
C1717 C1712 1.379 1_565 S
C1717 N1715 1.356 1_565 S
N1718 C1710 1.356 . S
N1718 H1724 0.984 . S
N1718 H1725 0.984 . S
N1719 C1712 1.356 . S
N1719 H1722 0.984 . S
N1719 H1723 0.985 . S
H1720 N1715 0.984 1_565 S
H1721 N1715 0.985 . S
H1722 N1719 0.984 . S
H1723 N1719 0.985 . S
H1724 N1718 0.984 . S
H1725 N1718 0.984 . S
H1726 N1714 0.984 . S
H1727 N1714 0.985 . S
C1728 C1729 1.363 . S
C1728 C1734 1.379 . S
C1728 N1736 1.356 1_455 S
C1729 C1728 1.363 . S
C1729 C1735 1.363 . S
C1730 C1731 1.363 . S
C1730 C1735 1.379 . S
C1730 N1737 1.356 . S
C1731 C1730 1.363 . S
C1731 C1734 1.363 . S
N1732 C1734 1.356 . S
N1732 H1744 0.984 . S
N1732 H1745 0.985 . S
N1733 C1735 1.356 . S
N1733 H1738 0.984 . S
N1733 H1739 0.985 . S
C1734 C1728 1.379 . S
C1734 C1731 1.363 . S
C1734 N1732 1.356 . S
C1735 C1729 1.363 . S
C1735 C1730 1.379 . S
C1735 N1733 1.356 . S
N1736 C1728 1.356 1_655 S
N1736 H1742 0.984 . S
N1736 H1743 0.984 . S
N1737 C1730 1.356 . S
N1737 H1740 0.984 . S
N1737 H1741 0.985 . S
H1738 N1733 0.984 . S
H1739 N1733 0.985 . S
H1740 N1737 0.984 . S
H1741 N1737 0.985 . S
H1742 N1736 0.984 . S
H1743 N1736 0.984 . S
H1744 N1732 0.984 . S
H1745 N1732 0.985 . S
C1746 C1747 1.363 . S
C1746 C1752 1.379 . S
C1746 N1754 1.356 . S
C1747 C1746 1.363 . S
C1747 C1753 1.363 . S
C1748 C1749 1.363 . S
C1748 C1753 1.379 . S
C1748 N1755 1.356 . S
C1749 C1748 1.363 . S
C1749 C1752 1.363 . S
N1750 C1752 1.356 . S
N1750 H1762 0.984 . S
N1750 H1763 0.985 . S
N1751 C1753 1.356 . S
N1751 H1756 0.984 . S
N1751 H1757 0.985 . S
C1752 C1746 1.379 . S
C1752 C1749 1.363 . S
C1752 N1750 1.356 . S
C1753 C1747 1.363 . S
C1753 C1748 1.379 . S
C1753 N1751 1.356 . S
N1754 C1746 1.356 . S
N1754 H1760 0.984 . S
N1754 H1761 0.984 . S
N1755 C1748 1.356 . S
N1755 H1758 0.984 . S
N1755 H1759 0.985 . S
H1756 N1751 0.984 . S
H1757 N1751 0.985 . S
H1758 N1755 0.984 . S
H1759 N1755 0.985 . S
H1760 N1754 0.984 . S
H1761 N1754 0.984 . S
H1762 N1750 0.984 . S
H1763 N1750 0.985 . S
C1764 C1765 1.363 . S
C1764 C1770 1.379 . S
C1764 N1772 1.356 . S
C1765 C1764 1.363 . S
C1765 C1771 1.363 1_655 S
C1766 C1767 1.363 1_455 S
C1766 C1771 1.379 . S
C1766 N1773 1.356 . S
C1767 C1766 1.363 1_655 S
C1767 C1770 1.363 . S
N1768 C1770 1.356 . S
N1768 H1780 0.984 . S
N1768 H1781 0.985 . S
N1769 C1771 1.356 . S
N1769 H1774 0.984 . S
N1769 H1775 0.985 . S
C1770 C1764 1.379 . S
C1770 C1767 1.363 . S
C1770 N1768 1.356 . S
C1771 C1765 1.363 1_455 S
C1771 C1766 1.379 . S
C1771 N1769 1.356 . S
N1772 C1764 1.356 . S
N1772 H1778 0.984 . S
N1772 H1779 0.984 . S
N1773 C1766 1.356 . S
N1773 H1776 0.984 . S
N1773 H1777 0.985 . S
H1774 N1769 0.984 . S
H1775 N1769 0.985 . S
H1776 N1773 0.984 . S
H1777 N1773 0.985 . S
H1778 N1772 0.984 . S
H1779 N1772 0.984 . S
H1780 N1768 0.984 . S
H1781 N1768 0.985 . S
C1782 C1783 1.363 . S
C1782 C1788 1.379 . S
C1782 N1790 1.356 . S
C1783 C1782 1.363 . S
C1783 C1789 1.363 . S
C1784 C1785 1.363 . S
C1784 C1789 1.379 . S
C1784 N1791 1.356 . S
C1785 C1784 1.363 . S
C1785 C1788 1.363 . S
N1786 C1788 1.356 . S
N1786 H1798 0.984 . S
N1786 H1799 0.985 . S
N1787 C1789 1.356 . S
N1787 H1792 0.984 . S
N1787 H1793 0.985 . S
C1788 C1782 1.379 . S
C1788 C1785 1.363 . S
C1788 N1786 1.356 . S
C1789 C1783 1.363 . S
C1789 C1784 1.379 . S
C1789 N1787 1.356 . S
N1790 C1782 1.356 . S
N1790 H1796 0.984 . S
N1790 H1797 0.984 . S
N1791 C1784 1.356 . S
N1791 H1794 0.984 . S
N1791 H1795 0.985 . S
H1792 N1787 0.984 . S
H1793 N1787 0.985 . S
H1794 N1791 0.984 . S
H1795 N1791 0.985 . S
H1796 N1790 0.984 . S
H1797 N1790 0.984 . S
H1798 N1786 0.984 . S
H1799 N1786 0.985 . S
C1800 C1801 1.363 . S
C1800 C1806 1.379 1_545 S
C1800 N1808 1.356 1_545 S
C1801 C1800 1.363 . S
C1801 C1807 1.363 . S
C1802 C1803 1.363 . S
C1802 C1807 1.379 . S
C1802 N1809 1.356 . S
C1803 C1802 1.363 . S
C1803 C1806 1.363 1_545 S
N1804 C1806 1.356 . S
N1804 H1816 0.984 . S
N1804 H1817 0.985 . S
N1805 C1807 1.356 . S
N1805 H1810 0.984 . S
N1805 H1811 0.985 . S
C1806 C1800 1.379 1_565 S
C1806 C1803 1.363 1_565 S
C1806 N1804 1.356 . S
C1807 C1801 1.363 . S
C1807 C1802 1.379 . S
C1807 N1805 1.356 . S
N1808 C1800 1.356 1_565 S
N1808 H1814 0.984 . S
N1808 H1815 0.967 1_565 S
N1809 C1802 1.356 . S
N1809 H1812 0.984 . S
N1809 H1813 0.985 . S
H1810 N1805 0.984 . S
H1811 N1805 0.985 . S
H1812 N1809 0.984 . S
H1813 N1809 0.985 . S
H1814 N1808 0.984 . S
H1815 N1808 0.967 1_545 S
H1816 N1804 0.984 . S
H1817 N1804 0.985 . S
C1818 C1819 1.363 . S
C1818 C1824 1.379 . S
C1818 N1826 1.356 . S
C1819 C1818 1.363 . S
C1819 C1825 1.363 . S
C1820 C1821 1.363 . S
C1820 C1825 1.379 . S
C1820 N1827 1.356 . S
C1821 C1820 1.363 . S
C1821 C1824 1.363 . S
N1822 C1824 1.356 . S
N1822 H1834 0.984 . S
N1822 H1835 0.985 . S
N1823 C1825 1.356 . S
N1823 H1828 0.984 . S
N1823 H1829 0.985 . S
C1824 C1818 1.379 . S
C1824 C1821 1.363 . S
C1824 N1822 1.356 . S
C1825 C1819 1.363 . S
C1825 C1820 1.379 . S
C1825 N1823 1.356 . S
N1826 C1818 1.356 . S
N1826 H1832 0.984 . S
N1826 H1833 0.984 . S
N1827 C1820 1.356 . S
N1827 H1830 0.984 . S
N1827 H1831 0.985 . S
H1828 N1823 0.984 . S
H1829 N1823 0.985 . S
H1830 N1827 0.984 . S
H1831 N1827 0.985 . S
H1832 N1826 0.984 . S
H1833 N1826 0.984 . S
H1834 N1822 0.984 . S
H1835 N1822 0.985 . S
C1836 C1837 1.363 . S
C1836 C1842 1.379 . S
C1836 N1844 1.356 . S
C1837 C1836 1.363 . S
C1837 C1843 1.363 . S
C1838 C1839 1.363 . S
C1838 C1843 1.379 . S
C1838 N1845 1.356 . S
C1839 C1838 1.363 . S
C1839 C1842 1.363 . S
N1840 C1842 1.356 . S
N1840 H1852 0.984 . S
N1840 H1853 0.985 . S
N1841 C1843 1.356 . S
N1841 H1846 0.984 . S
N1841 H1847 0.985 . S
C1842 C1836 1.379 . S
C1842 C1839 1.363 . S
C1842 N1840 1.356 . S
C1843 C1837 1.363 . S
C1843 C1838 1.379 . S
C1843 N1841 1.356 . S
N1844 C1836 1.356 . S
N1844 H1850 0.984 . S
N1844 H1851 0.984 . S
N1845 C1838 1.356 . S
N1845 H1848 0.984 . S
N1845 H1849 0.985 . S
H1846 N1841 0.984 . S
H1847 N1841 0.985 . S
H1848 N1845 0.984 . S
H1849 N1845 0.985 . S
H1850 N1844 0.984 . S
H1851 N1844 0.984 . S
H1852 N1840 0.984 . S
H1853 N1840 0.985 . S
C1854 C1855 1.363 . S
C1854 C1860 1.379 . S
C1854 N1862 1.356 . S
C1855 C1854 1.363 . S
C1855 C1861 1.363 . S
C1856 C1857 1.363 . S
C1856 C1861 1.379 . S
C1856 N1863 1.356 . S
C1857 C1856 1.363 . S
C1857 C1860 1.363 . S
N1858 C1860 1.356 . S
N1858 H1870 0.984 . S
N1858 H1871 0.985 . S
N1859 C1861 1.356 . S
N1859 H1864 0.984 . S
N1859 H1865 0.985 . S
C1860 C1854 1.379 . S
C1860 C1857 1.363 . S
C1860 N1858 1.356 . S
C1861 C1855 1.363 . S
C1861 C1856 1.379 . S
C1861 N1859 1.356 . S
N1862 C1854 1.356 . S
N1862 H1868 0.984 . S
N1862 H1869 0.984 . S
N1863 C1856 1.356 . S
N1863 H1866 0.984 . S
N1863 H1867 0.985 . S
H1864 N1859 0.984 . S
H1865 N1859 0.985 . S
H1866 N1863 0.984 . S
H1867 N1863 0.985 . S
H1868 N1862 0.984 . S
H1869 N1862 0.984 . S
H1870 N1858 0.984 . S
H1871 N1858 0.985 . S
C1872 C1873 1.363 . S
C1872 C1878 1.379 . S
C1872 N1880 1.356 . S
C1873 C1872 1.363 . S
C1873 C1879 1.363 . S
C1874 C1875 1.363 . S
C1874 C1879 1.379 . S
C1874 N1881 1.356 . S
C1875 C1874 1.363 . S
C1875 C1878 1.363 . S
N1876 C1878 1.356 . S
N1876 H1888 0.984 . S
N1876 H1889 0.985 . S
N1877 C1879 1.356 . S
N1877 H1882 0.984 . S
N1877 H1883 0.985 . S
C1878 C1872 1.379 . S
C1878 C1875 1.363 . S
C1878 N1876 1.356 . S
C1879 C1873 1.363 . S
C1879 C1874 1.379 . S
C1879 N1877 1.356 . S
N1880 C1872 1.356 . S
N1880 H1886 0.984 . S
N1880 H1887 0.984 . S
N1881 C1874 1.356 . S
N1881 H1884 0.984 . S
N1881 H1885 0.985 . S
H1882 N1877 0.984 . S
H1883 N1877 0.985 . S
H1884 N1881 0.984 . S
H1885 N1881 0.985 . S
H1886 N1880 0.984 . S
H1887 N1880 0.984 . S
H1888 N1876 0.984 . S
H1889 N1876 0.985 . S
C1890 C1891 1.363 . S
C1890 C1896 1.379 . S
C1890 N1898 1.356 . S
C1891 C1890 1.363 . S
C1891 C1897 1.363 . S
C1892 C1893 1.363 . S
C1892 C1897 1.379 . S
C1892 N1899 1.356 . S
C1893 C1892 1.363 . S
C1893 C1896 1.363 . S
N1894 C1896 1.356 . S
N1894 H1906 0.984 . S
N1894 H1907 0.985 . S
N1895 C1897 1.356 . S
N1895 H1900 0.984 . S
N1895 H1901 0.985 . S
C1896 C1890 1.379 . S
C1896 C1893 1.363 . S
C1896 N1894 1.356 . S
C1897 C1891 1.363 . S
C1897 C1892 1.379 . S
C1897 N1895 1.356 . S
N1898 C1890 1.356 . S
N1898 H1904 0.984 . S
N1898 H1905 0.984 . S
N1899 C1892 1.356 . S
N1899 H1902 0.984 . S
N1899 H1903 0.985 . S
H1900 N1895 0.984 . S
H1901 N1895 0.985 . S
H1902 N1899 0.984 . S
H1903 N1899 0.985 . S
H1904 N1898 0.984 . S
H1905 N1898 0.984 . S
H1906 N1894 0.984 . S
H1907 N1894 0.985 . S
C1908 C1909 1.363 . S
C1908 C1914 1.379 . S
C1908 N1916 1.356 . S
C1909 C1908 1.363 . S
C1909 C1915 1.363 . S
C1910 C1911 1.363 . S
C1910 C1915 1.379 . S
C1910 N1917 1.356 . S
C1911 C1910 1.363 . S
C1911 C1914 1.363 . S
N1912 C1914 1.356 . S
N1912 H1924 0.984 . S
N1912 H1925 0.985 . S
N1913 C1915 1.356 . S
N1913 H1918 0.984 . S
N1913 H1919 0.985 . S
C1914 C1908 1.379 . S
C1914 C1911 1.363 . S
C1914 N1912 1.356 . S
C1915 C1909 1.363 . S
C1915 C1910 1.379 . S
C1915 N1913 1.356 . S
N1916 C1908 1.356 . S
N1916 H1922 0.984 . S
N1916 H1923 0.984 . S
N1917 C1910 1.356 . S
N1917 H1920 0.984 . S
N1917 H1921 0.985 . S
H1918 N1913 0.984 . S
H1919 N1913 0.985 . S
H1920 N1917 0.984 . S
H1921 N1917 0.985 . S
H1922 N1916 0.984 . S
H1923 N1916 0.984 . S
H1924 N1912 0.984 . S
H1925 N1912 0.985 . S
C1926 C1927 1.363 . S
C1926 C1932 1.379 . S
C1926 N1934 1.356 . S
C1927 C1926 1.363 . S
C1927 C1933 1.363 . S
C1928 C1929 1.363 . S
C1928 C1933 1.379 . S
C1928 N1935 1.356 . S
C1929 C1928 1.363 . S
C1929 C1932 1.363 . S
N1930 C1932 1.356 . S
N1930 H1942 0.984 . S
N1930 H1943 0.985 . S
N1931 C1933 1.356 . S
N1931 H1936 0.984 . S
N1931 H1937 0.985 . S
C1932 C1926 1.379 . S
C1932 C1929 1.363 . S
C1932 N1930 1.356 . S
C1933 C1927 1.363 . S
C1933 C1928 1.379 . S
C1933 N1931 1.356 . S
N1934 C1926 1.356 . S
N1934 H1940 0.984 . S
N1934 H1941 0.984 . S
N1935 C1928 1.356 . S
N1935 H1938 0.984 . S
N1935 H1939 0.985 . S
H1936 N1931 0.984 . S
H1937 N1931 0.985 . S
H1938 N1935 0.984 . S
H1939 N1935 0.985 . S
H1940 N1934 0.984 . S
H1941 N1934 0.984 . S
H1942 N1930 0.984 . S
H1943 N1930 0.985 . S
C1944 C1945 1.363 . S
C1944 C1950 1.379 . S
C1944 N1952 1.356 . S
C1945 C1944 1.363 . S
C1945 C1951 1.363 . S
C1946 C1947 1.363 . S
C1946 C1951 1.379 . S
C1946 N1953 1.356 . S
C1947 C1946 1.363 . S
C1947 C1950 1.363 . S
N1948 C1950 1.356 . S
N1948 H1960 0.984 . S
N1948 H1961 0.985 . S
N1949 C1951 1.356 . S
N1949 H1954 0.984 . S
N1949 H1955 0.985 . S
C1950 C1944 1.379 . S
C1950 C1947 1.363 . S
C1950 N1948 1.356 . S
C1951 C1945 1.363 . S
C1951 C1946 1.379 . S
C1951 N1949 1.356 . S
N1952 C1944 1.356 . S
N1952 H1958 0.984 . S
N1952 H1959 0.984 . S
N1953 C1946 1.356 . S
N1953 H1956 0.984 . S
N1953 H1957 0.985 . S
H1954 N1949 0.984 . S
H1955 N1949 0.985 . S
H1956 N1953 0.984 . S
H1957 N1953 0.985 . S
H1958 N1952 0.984 . S
H1959 N1952 0.984 . S
H1960 N1948 0.984 . S
H1961 N1948 0.985 . S
C1962 C1963 1.363 . S
C1962 C1968 1.379 . S
C1962 N1970 1.356 . S
C1963 C1962 1.363 . S
C1963 C1969 1.363 . S
C1964 C1965 1.363 . S
C1964 C1969 1.379 . S
C1964 N1971 1.356 . S
C1965 C1964 1.363 . S
C1965 C1968 1.363 . S
N1966 C1968 1.356 . S
N1966 H1978 0.984 . S
N1966 H1979 0.985 . S
N1967 C1969 1.356 . S
N1967 H1972 0.984 . S
N1967 H1973 0.985 . S
C1968 C1962 1.379 . S
C1968 C1965 1.363 . S
C1968 N1966 1.356 . S
C1969 C1963 1.363 . S
C1969 C1964 1.379 . S
C1969 N1967 1.356 . S
N1970 C1962 1.356 . S
N1970 H1976 0.984 . S
N1970 H1977 0.984 . S
N1971 C1964 1.356 . S
N1971 H1974 0.984 . S
N1971 H1975 0.985 . S
H1972 N1967 0.984 . S
H1973 N1967 0.985 . S
H1974 N1971 0.984 . S
H1975 N1971 0.985 . S
H1976 N1970 0.984 . S
H1977 N1970 0.984 . S
H1978 N1966 0.984 . S
H1979 N1966 0.985 . S
C1980 C1981 1.363 . S
C1980 C1986 1.379 . S
C1980 N1988 1.356 . S
C1981 C1980 1.363 . S
C1981 C1987 1.363 . S
C1982 C1983 1.363 . S
C1982 C1987 1.379 . S
C1982 N1989 1.356 . S
C1983 C1982 1.363 . S
C1983 C1986 1.363 . S
N1984 C1986 1.356 . S
N1984 H1996 0.984 . S
N1984 H1997 0.985 . S
N1985 C1987 1.356 . S
N1985 H1990 0.984 . S
N1985 H1991 0.985 . S
C1986 C1980 1.379 . S
C1986 C1983 1.363 . S
C1986 N1984 1.356 . S
C1987 C1981 1.363 . S
C1987 C1982 1.379 . S
C1987 N1985 1.356 . S
N1988 C1980 1.356 . S
N1988 H1994 0.984 . S
N1988 H1995 0.984 . S
N1989 C1982 1.356 . S
N1989 H1992 0.984 . S
N1989 H1993 0.985 . S
H1990 N1985 0.984 . S
H1991 N1985 0.985 . S
H1992 N1989 0.984 . S
H1993 N1989 0.985 . S
H1994 N1988 0.984 . S
H1995 N1988 0.984 . S
H1996 N1984 0.984 . S
H1997 N1984 0.985 . S
C1998 C1999 1.363 . S
C1998 C2004 1.379 . S
C1998 N2006 1.356 . S
C1999 C1998 1.363 . S
C1999 C2005 1.363 . S
C2000 C2001 1.363 . S
C2000 C2005 1.379 . S
C2000 N2007 1.356 . S
C2001 C2000 1.363 . S
C2001 C2004 1.363 . S
N2002 C2004 1.356 . S
N2002 H2014 0.984 . S
N2002 H2015 0.985 . S
N2003 C2005 1.356 . S
N2003 H2008 0.984 . S
N2003 H2009 0.985 . S
C2004 C1998 1.379 . S
C2004 C2001 1.363 . S
C2004 N2002 1.356 . S
C2005 C1999 1.363 . S
C2005 C2000 1.379 . S
C2005 N2003 1.356 . S
N2006 C1998 1.356 . S
N2006 H2012 0.984 . S
N2006 H2013 0.984 . S
N2007 C2000 1.356 . S
N2007 H2010 0.984 . S
N2007 H2011 0.985 . S
H2008 N2003 0.984 . S
H2009 N2003 0.985 . S
H2010 N2007 0.984 . S
H2011 N2007 0.985 . S
H2012 N2006 0.984 . S
H2013 N2006 0.984 . S
H2014 N2002 0.984 . S
H2015 N2002 0.985 . S
C2016 C2017 1.363 . S
C2016 C2022 1.379 . S
C2016 N2024 1.356 . S
C2017 C2016 1.363 . S
C2017 C2023 1.363 . S
C2018 C2019 1.363 . S
C2018 C2023 1.379 . S
C2018 N2025 1.356 . S
C2019 C2018 1.363 . S
C2019 C2022 1.363 . S
N2020 C2022 1.356 . S
N2020 H2032 0.984 . S
N2020 H2033 0.985 . S
N2021 C2023 1.356 . S
N2021 H2026 0.984 . S
N2021 H2027 0.985 . S
C2022 C2016 1.379 . S
C2022 C2019 1.363 . S
C2022 N2020 1.356 . S
C2023 C2017 1.363 . S
C2023 C2018 1.379 . S
C2023 N2021 1.356 . S
N2024 C2016 1.356 . S
N2024 H2030 0.984 . S
N2024 H2031 0.984 . S
N2025 C2018 1.356 . S
N2025 H2028 0.984 . S
N2025 H2029 0.985 . S
H2026 N2021 0.984 . S
H2027 N2021 0.985 . S
H2028 N2025 0.984 . S
H2029 N2025 0.985 . S
H2030 N2024 0.984 . S
H2031 N2024 0.984 . S
H2032 N2020 0.984 . S
H2033 N2020 0.985 . S
C1063 C528 1.718 . S
C1065 C714 1.743 . S
C1081 C562 1.794 . S
C1083 C754 1.802 . S
C1099 C484 1.793 . S
C1101 C784 1.823 . S
C1117 C445 1.627 . S
C1119 C744 1.637 . S
C1137 C794 1.555 . S
C1135 C367 1.537 . S
C1153 C411 1.532 . S
C1155 C704 1.575 . S
C1173 C733 1.759 . S
C1171 C450 1.714 . S
C1191 C773 1.786 . S
C1189 C372 1.771 . S
C1207 C406 1.788 . S
C1209 C799 1.824 . S
C1225 C523 1.622 . S
C1227 C759 1.638 . S
C1243 C567 1.510 . S
C1245 C813 1.537 . S
C1263 C719 1.592 . S
C1261 C489 1.526 . S
C1281 C834 1.743 . S
C1279 C60 1.718 1_455 S
C1297 C94 1.795 . S
C1299 C874 1.802 . S
C1315 C16 1.793 . S
C1317 C904 1.823 . S
C1333 C679 1.627 . S
C1335 C864 1.637 . S
C1351 C601 1.538 . S
C1353 C914 1.555 . S
C1369 C645 1.532 . S
C1371 C824 1.575 . S
C1387 C684 1.713 . S
C1389 C853 1.759 . S
C1405 C606 1.771 . S
C1407 C893 1.786 . S
C1425 C919 1.824 . S
C1423 C640 1.788 . S
C1441 C55 1.622 1_565 S
C1443 C879 1.638 . S
C1461 C933 1.537 . S
C1459 C99 1.511 1_455 S
C1477 C21 1.526 . S
C1479 C839 1.593 . S
C1497 C954 1.742 . S
C1495 C294 1.718 . S
C1513 C328 1.795 . S
C1515 C994 1.802 . S
C1533 C1024 1.823 . S
C1531 C250 1.793 . S
C1551 C984 1.637 . S
C1549 C211 1.627 1_545 S
C1569 C1034 1.555 . S
C1567 C133 1.537 1_655 S
C1585 C177 1.532 . S
C1587 C944 1.575 . S
C1603 C216 1.714 1_655 S
C1605 C973 1.759 . S
C1621 C138 1.771 . S
C1623 C1013 1.786 . S
C1641 C1039 1.825 . S
C1639 C172 1.788 . S
C1657 C289 1.622 . S
C1659 C999 1.638 . S
C1675 C333 1.511 . S
C1677 C1053 1.537 . S
C1693 C255 1.526 . S
C1695 C959 1.592 . S
C1711 C586 1.410 . S
C1713 C731 1.393 . S
C1731 C771 1.811 . S
C1729 C625 1.828 . S
C1747 C664 1.572 . S
C1749 C790 1.577 . S
C1765 C235 1.829 . S
C1767 C750 1.820 . S
C1783 C274 1.564 . S
C1785 C811 1.565 . S
C1803 C710 1.391 . S
C1801 C313 1.408 . S
C1819 C118 1.410 . S
C1821 C851 1.393 . S
C1837 C157 1.828 . S
C1839 C891 1.811 . S
C1855 C196 1.572 . S
C1857 C910 1.577 . S
C1873 C469 1.829 . S
C1875 C870 1.820 . S
C1893 C931 1.565 . S
C1891 C508 1.564 . S
C1909 C547 1.408 . S
C1911 C830 1.391 . S
C1927 C352 1.410 . S
C1929 C971 1.393 . S
C1945 C391 1.828 . S
C1947 C1011 1.811 . S
C1965 C1030 1.577 . S
C1963 C430 1.572 . S
C1981 C1 1.829 . S
C1983 C990 1.820 . S
C1999 C40 1.564 . S
C2001 C1051 1.565 . S
C2017 C79 1.408 . S
C2019 C950 1.391 . S
