# Generated by pormake.
# Topology ana-f, (3,3)-cn, num edge types: 1
# Building blocks:
#     Node 0, Type 0, BuildingBlock: WUSLED_clean_sbu_0, # of connection points: 3
#     Node 1, Type 0, BuildingBlock: WUSLED_clean_sbu_0, # of connection points: 3
#     Node 2, Type 0, BuildingBlock: WUSLED_clean_sbu_0, # of connection points: 3
#     Node 3, Type 0, BuildingBlock: WUSLED_clean_sbu_0, # of connection points: 3
#     Node 4, Type 0, BuildingBlock: WUSLED_clean_sbu_0, # of connection points: 3
#     Node 5, Type 0, BuildingBlock: WUSLED_clean_sbu_0, # of connection points: 3
#     Node 6, Type 0, BuildingBlock: WUSLED_clean_sbu_0, # of connection points: 3
#     Node 7, Type 0, BuildingBlock: WUSLED_clean_sbu_0, # of connection points: 3
#     Node 8, Type 0, BuildingBlock: WUSLED_clean_sbu_0, # of connection points: 3
#     Node 9, Type 0, BuildingBlock: WUSLED_clean_sbu_0, # of connection points: 3
#     Node 10, Type 0, BuildingBlock: WUSLED_clean_sbu_0, # of connection points: 3
#     Node 11, Type 0, BuildingBlock: WUSLED_clean_sbu_0, # of connection points: 3
#     Node 12, Type 0, BuildingBlock: WUSLED_clean_sbu_0, # of connection points: 3
#     Node 13, Type 0, BuildingBlock: WUSLED_clean_sbu_0, # of connection points: 3
#     Node 14, Type 0, BuildingBlock: WUSLED_clean_sbu_0, # of connection points: 3
#     Node 15, Type 0, BuildingBlock: WUSLED_clean_sbu_0, # of connection points: 3
#     Node 16, Type 0, BuildingBlock: WUSLED_clean_sbu_0, # of connection points: 3
#     Node 17, Type 0, BuildingBlock: WUSLED_clean_sbu_0, # of connection points: 3
#     Node 18, Type 0, BuildingBlock: WUSLED_clean_sbu_0, # of connection points: 3
#     Node 19, Type 0, BuildingBlock: WUSLED_clean_sbu_0, # of connection points: 3
#     Node 20, Type 0, BuildingBlock: WUSLED_clean_sbu_0, # of connection points: 3
#     Node 21, Type 0, BuildingBlock: WUSLED_clean_sbu_0, # of connection points: 3
#     Node 22, Type 0, BuildingBlock: WUSLED_clean_sbu_0, # of connection points: 3
#     Node 23, Type 0, BuildingBlock: WUSLED_clean_sbu_0, # of connection points: 3
#     Node 24, Type 0, BuildingBlock: WUSLED_clean_sbu_0, # of connection points: 3
#     Node 25, Type 0, BuildingBlock: WUSLED_clean_sbu_0, # of connection points: 3
#     Node 26, Type 0, BuildingBlock: WUSLED_clean_sbu_0, # of connection points: 3
#     Node 27, Type 0, BuildingBlock: WUSLED_clean_sbu_0, # of connection points: 3
#     Node 28, Type 0, BuildingBlock: WUSLED_clean_sbu_0, # of connection points: 3
#     Node 29, Type 0, BuildingBlock: WUSLED_clean_sbu_0, # of connection points: 3
#     Node 30, Type 0, BuildingBlock: WUSLED_clean_sbu_0, # of connection points: 3
#     Node 31, Type 0, BuildingBlock: WUSLED_clean_sbu_0, # of connection points: 3
#     Node 32, Type 0, BuildingBlock: WUSLED_clean_sbu_0, # of connection points: 3
#     Node 33, Type 0, BuildingBlock: WUSLED_clean_sbu_0, # of connection points: 3
#     Node 34, Type 0, BuildingBlock: WUSLED_clean_sbu_0, # of connection points: 3
#     Node 35, Type 0, BuildingBlock: WUSLED_clean_sbu_0, # of connection points: 3
#     Node 36, Type 0, BuildingBlock: WUSLED_clean_sbu_0, # of connection points: 3
#     Node 37, Type 0, BuildingBlock: WUSLED_clean_sbu_0, # of connection points: 3
#     Node 38, Type 0, BuildingBlock: WUSLED_clean_sbu_0, # of connection points: 3
#     Node 39, Type 0, BuildingBlock: WUSLED_clean_sbu_0, # of connection points: 3
#     Node 40, Type 0, BuildingBlock: WUSLED_clean_sbu_0, # of connection points: 3
#     Node 41, Type 0, BuildingBlock: WUSLED_clean_sbu_0, # of connection points: 3
#     Node 42, Type 0, BuildingBlock: WUSLED_clean_sbu_0, # of connection points: 3
#     Node 43, Type 0, BuildingBlock: WUSLED_clean_sbu_0, # of connection points: 3
#     Node 44, Type 0, BuildingBlock: WUSLED_clean_sbu_0, # of connection points: 3
#     Node 45, Type 0, BuildingBlock: WUSLED_clean_sbu_0, # of connection points: 3
#     Node 46, Type 0, BuildingBlock: WUSLED_clean_sbu_0, # of connection points: 3
#     Node 47, Type 0, BuildingBlock: WUSLED_clean_sbu_0, # of connection points: 3
#     Node 48, Type 0, BuildingBlock: WUSLED_clean_sbu_0, # of connection points: 3
#     Node 49, Type 0, BuildingBlock: WUSLED_clean_sbu_0, # of connection points: 3
#     Node 50, Type 0, BuildingBlock: WUSLED_clean_sbu_0, # of connection points: 3
#     Node 51, Type 0, BuildingBlock: WUSLED_clean_sbu_0, # of connection points: 3
#     Node 52, Type 0, BuildingBlock: WUSLED_clean_sbu_0, # of connection points: 3
#     Node 53, Type 0, BuildingBlock: WUSLED_clean_sbu_0, # of connection points: 3
#     Node 54, Type 0, BuildingBlock: WUSLED_clean_sbu_0, # of connection points: 3
#     Node 55, Type 0, BuildingBlock: WUSLED_clean_sbu_0, # of connection points: 3
#     Node 56, Type 0, BuildingBlock: WUSLED_clean_sbu_0, # of connection points: 3
#     Node 57, Type 0, BuildingBlock: WUSLED_clean_sbu_0, # of connection points: 3
#     Node 58, Type 0, BuildingBlock: WUSLED_clean_sbu_0, # of connection points: 3
#     Node 59, Type 0, BuildingBlock: WUSLED_clean_sbu_0, # of connection points: 3
#     Node 60, Type 0, BuildingBlock: WUSLED_clean_sbu_0, # of connection points: 3
#     Node 61, Type 0, BuildingBlock: WUSLED_clean_sbu_0, # of connection points: 3
#     Node 62, Type 0, BuildingBlock: WUSLED_clean_sbu_0, # of connection points: 3
#     Node 63, Type 0, BuildingBlock: WUSLED_clean_sbu_0, # of connection points: 3
#     Node 64, Type 0, BuildingBlock: WUSLED_clean_sbu_0, # of connection points: 3
#     Node 65, Type 0, BuildingBlock: WUSLED_clean_sbu_0, # of connection points: 3
#     Node 66, Type 0, BuildingBlock: WUSLED_clean_sbu_0, # of connection points: 3
#     Node 67, Type 0, BuildingBlock: WUSLED_clean_sbu_0, # of connection points: 3
#     Node 68, Type 0, BuildingBlock: WUSLED_clean_sbu_0, # of connection points: 3
#     Node 69, Type 0, BuildingBlock: WUSLED_clean_sbu_0, # of connection points: 3
#     Node 70, Type 0, BuildingBlock: WUSLED_clean_sbu_0, # of connection points: 3
#     Node 71, Type 0, BuildingBlock: WUSLED_clean_sbu_0, # of connection points: 3
#     Node 72, Type 0, BuildingBlock: WUSLED_clean_sbu_0, # of connection points: 3
#     Node 73, Type 0, BuildingBlock: WUSLED_clean_sbu_0, # of connection points: 3
#     Node 74, Type 0, BuildingBlock: WUSLED_clean_sbu_0, # of connection points: 3
#     Node 75, Type 0, BuildingBlock: WUSLED_clean_sbu_0, # of connection points: 3
#     Node 76, Type 0, BuildingBlock: WUSLED_clean_sbu_0, # of connection points: 3
#     Node 77, Type 0, BuildingBlock: WUSLED_clean_sbu_0, # of connection points: 3
#     Node 78, Type 0, BuildingBlock: WUSLED_clean_sbu_0, # of connection points: 3
#     Node 79, Type 0, BuildingBlock: WUSLED_clean_sbu_0, # of connection points: 3
#     Node 80, Type 0, BuildingBlock: WUSLED_clean_sbu_0, # of connection points: 3
#     Node 81, Type 0, BuildingBlock: WUSLED_clean_sbu_0, # of connection points: 3
#     Node 82, Type 0, BuildingBlock: WUSLED_clean_sbu_0, # of connection points: 3
#     Node 83, Type 0, BuildingBlock: WUSLED_clean_sbu_0, # of connection points: 3
#     Node 84, Type 0, BuildingBlock: WUSLED_clean_sbu_0, # of connection points: 3
#     Node 85, Type 0, BuildingBlock: WUSLED_clean_sbu_0, # of connection points: 3
#     Node 86, Type 0, BuildingBlock: WUSLED_clean_sbu_0, # of connection points: 3
#     Node 87, Type 0, BuildingBlock: WUSLED_clean_sbu_0, # of connection points: 3
#     Node 88, Type 0, BuildingBlock: WUSLED_clean_sbu_0, # of connection points: 3
#     Node 89, Type 0, BuildingBlock: WUSLED_clean_sbu_0, # of connection points: 3
#     Node 90, Type 0, BuildingBlock: WUSLED_clean_sbu_0, # of connection points: 3
#     Node 91, Type 0, BuildingBlock: WUSLED_clean_sbu_0, # of connection points: 3
#     Node 92, Type 0, BuildingBlock: WUSLED_clean_sbu_0, # of connection points: 3
#     Node 93, Type 0, BuildingBlock: WUSLED_clean_sbu_0, # of connection points: 3
#     Node 94, Type 0, BuildingBlock: WUSLED_clean_sbu_0, # of connection points: 3
#     Node 95, Type 0, BuildingBlock: WUSLED_clean_sbu_0, # of connection points: 3
#     Node 96, Type 1, BuildingBlock: BETDAH_clean_linker_0, # of connection points: 3
#     Node 97, Type 1, BuildingBlock: BETDAH_clean_linker_0, # of connection points: 3
#     Node 98, Type 1, BuildingBlock: BETDAH_clean_linker_0, # of connection points: 3
#     Node 99, Type 1, BuildingBlock: BETDAH_clean_linker_0, # of connection points: 3
#     Node 100, Type 1, BuildingBlock: BETDAH_clean_linker_0, # of connection points: 3
#     Node 101, Type 1, BuildingBlock: BETDAH_clean_linker_0, # of connection points: 3
#     Node 102, Type 1, BuildingBlock: BETDAH_clean_linker_0, # of connection points: 3
#     Node 103, Type 1, BuildingBlock: BETDAH_clean_linker_0, # of connection points: 3
#     Node 104, Type 1, BuildingBlock: BETDAH_clean_linker_0, # of connection points: 3
#     Node 105, Type 1, BuildingBlock: BETDAH_clean_linker_0, # of connection points: 3
#     Node 106, Type 1, BuildingBlock: BETDAH_clean_linker_0, # of connection points: 3
#     Node 107, Type 1, BuildingBlock: BETDAH_clean_linker_0, # of connection points: 3
#     Node 108, Type 1, BuildingBlock: BETDAH_clean_linker_0, # of connection points: 3
#     Node 109, Type 1, BuildingBlock: BETDAH_clean_linker_0, # of connection points: 3
#     Node 110, Type 1, BuildingBlock: BETDAH_clean_linker_0, # of connection points: 3
#     Node 111, Type 1, BuildingBlock: BETDAH_clean_linker_0, # of connection points: 3
#     Node 112, Type 1, BuildingBlock: BETDAH_clean_linker_0, # of connection points: 3
#     Node 113, Type 1, BuildingBlock: BETDAH_clean_linker_0, # of connection points: 3
#     Node 114, Type 1, BuildingBlock: BETDAH_clean_linker_0, # of connection points: 3
#     Node 115, Type 1, BuildingBlock: BETDAH_clean_linker_0, # of connection points: 3
#     Node 116, Type 1, BuildingBlock: BETDAH_clean_linker_0, # of connection points: 3
#     Node 117, Type 1, BuildingBlock: BETDAH_clean_linker_0, # of connection points: 3
#     Node 118, Type 1, BuildingBlock: BETDAH_clean_linker_0, # of connection points: 3
#     Node 119, Type 1, BuildingBlock: BETDAH_clean_linker_0, # of connection points: 3
#     Node 120, Type 1, BuildingBlock: BETDAH_clean_linker_0, # of connection points: 3
#     Node 121, Type 1, BuildingBlock: BETDAH_clean_linker_0, # of connection points: 3
#     Node 122, Type 1, BuildingBlock: BETDAH_clean_linker_0, # of connection points: 3
#     Node 123, Type 1, BuildingBlock: BETDAH_clean_linker_0, # of connection points: 3
#     Node 124, Type 1, BuildingBlock: BETDAH_clean_linker_0, # of connection points: 3
#     Node 125, Type 1, BuildingBlock: BETDAH_clean_linker_0, # of connection points: 3
#     Node 126, Type 1, BuildingBlock: BETDAH_clean_linker_0, # of connection points: 3
#     Node 127, Type 1, BuildingBlock: BETDAH_clean_linker_0, # of connection points: 3
#     Node 128, Type 1, BuildingBlock: BETDAH_clean_linker_0, # of connection points: 3
#     Node 129, Type 1, BuildingBlock: BETDAH_clean_linker_0, # of connection points: 3
#     Node 130, Type 1, BuildingBlock: BETDAH_clean_linker_0, # of connection points: 3
#     Node 131, Type 1, BuildingBlock: BETDAH_clean_linker_0, # of connection points: 3
#     Node 132, Type 1, BuildingBlock: BETDAH_clean_linker_0, # of connection points: 3
#     Node 133, Type 1, BuildingBlock: BETDAH_clean_linker_0, # of connection points: 3
#     Node 134, Type 1, BuildingBlock: BETDAH_clean_linker_0, # of connection points: 3
#     Node 135, Type 1, BuildingBlock: BETDAH_clean_linker_0, # of connection points: 3
#     Node 136, Type 1, BuildingBlock: BETDAH_clean_linker_0, # of connection points: 3
#     Node 137, Type 1, BuildingBlock: BETDAH_clean_linker_0, # of connection points: 3
#     Node 138, Type 1, BuildingBlock: BETDAH_clean_linker_0, # of connection points: 3
#     Node 139, Type 1, BuildingBlock: BETDAH_clean_linker_0, # of connection points: 3
#     Node 140, Type 1, BuildingBlock: BETDAH_clean_linker_0, # of connection points: 3
#     Node 141, Type 1, BuildingBlock: BETDAH_clean_linker_0, # of connection points: 3
#     Node 142, Type 1, BuildingBlock: BETDAH_clean_linker_0, # of connection points: 3
#     Node 143, Type 1, BuildingBlock: BETDAH_clean_linker_0, # of connection points: 3
#     Node 144, Type 1, BuildingBlock: BETDAH_clean_linker_0, # of connection points: 3
#     Node 145, Type 1, BuildingBlock: BETDAH_clean_linker_0, # of connection points: 3
#     Node 146, Type 1, BuildingBlock: BETDAH_clean_linker_0, # of connection points: 3
#     Node 147, Type 1, BuildingBlock: BETDAH_clean_linker_0, # of connection points: 3
#     Node 148, Type 1, BuildingBlock: BETDAH_clean_linker_0, # of connection points: 3
#     Node 149, Type 1, BuildingBlock: BETDAH_clean_linker_0, # of connection points: 3
#     Node 150, Type 1, BuildingBlock: BETDAH_clean_linker_0, # of connection points: 3
#     Node 151, Type 1, BuildingBlock: BETDAH_clean_linker_0, # of connection points: 3
#     Node 152, Type 1, BuildingBlock: BETDAH_clean_linker_0, # of connection points: 3
#     Node 153, Type 1, BuildingBlock: BETDAH_clean_linker_0, # of connection points: 3
#     Node 154, Type 1, BuildingBlock: BETDAH_clean_linker_0, # of connection points: 3
#     Node 155, Type 1, BuildingBlock: BETDAH_clean_linker_0, # of connection points: 3
#     Node 156, Type 1, BuildingBlock: BETDAH_clean_linker_0, # of connection points: 3
#     Node 157, Type 1, BuildingBlock: BETDAH_clean_linker_0, # of connection points: 3
#     Node 158, Type 1, BuildingBlock: BETDAH_clean_linker_0, # of connection points: 3
#     Node 159, Type 1, BuildingBlock: BETDAH_clean_linker_0, # of connection points: 3
#     Node 160, Type 1, BuildingBlock: BETDAH_clean_linker_0, # of connection points: 3
#     Node 161, Type 1, BuildingBlock: BETDAH_clean_linker_0, # of connection points: 3
#     Node 162, Type 1, BuildingBlock: BETDAH_clean_linker_0, # of connection points: 3
#     Node 163, Type 1, BuildingBlock: BETDAH_clean_linker_0, # of connection points: 3
#     Node 164, Type 1, BuildingBlock: BETDAH_clean_linker_0, # of connection points: 3
#     Node 165, Type 1, BuildingBlock: BETDAH_clean_linker_0, # of connection points: 3
#     Node 166, Type 1, BuildingBlock: BETDAH_clean_linker_0, # of connection points: 3
#     Node 167, Type 1, BuildingBlock: BETDAH_clean_linker_0, # of connection points: 3
#     Node 168, Type 1, BuildingBlock: BETDAH_clean_linker_0, # of connection points: 3
#     Node 169, Type 1, BuildingBlock: BETDAH_clean_linker_0, # of connection points: 3
#     Node 170, Type 1, BuildingBlock: BETDAH_clean_linker_0, # of connection points: 3
#     Node 171, Type 1, BuildingBlock: BETDAH_clean_linker_0, # of connection points: 3
#     Node 172, Type 1, BuildingBlock: BETDAH_clean_linker_0, # of connection points: 3
#     Node 173, Type 1, BuildingBlock: BETDAH_clean_linker_0, # of connection points: 3
#     Node 174, Type 1, BuildingBlock: BETDAH_clean_linker_0, # of connection points: 3
#     Node 175, Type 1, BuildingBlock: BETDAH_clean_linker_0, # of connection points: 3
#     Node 176, Type 1, BuildingBlock: BETDAH_clean_linker_0, # of connection points: 3
#     Node 177, Type 1, BuildingBlock: BETDAH_clean_linker_0, # of connection points: 3
#     Node 178, Type 1, BuildingBlock: BETDAH_clean_linker_0, # of connection points: 3
#     Node 179, Type 1, BuildingBlock: BETDAH_clean_linker_0, # of connection points: 3
#     Node 180, Type 1, BuildingBlock: BETDAH_clean_linker_0, # of connection points: 3
#     Node 181, Type 1, BuildingBlock: BETDAH_clean_linker_0, # of connection points: 3
#     Node 182, Type 1, BuildingBlock: BETDAH_clean_linker_0, # of connection points: 3
#     Node 183, Type 1, BuildingBlock: BETDAH_clean_linker_0, # of connection points: 3
#     Node 184, Type 1, BuildingBlock: BETDAH_clean_linker_0, # of connection points: 3
#     Node 185, Type 1, BuildingBlock: BETDAH_clean_linker_0, # of connection points: 3
#     Node 186, Type 1, BuildingBlock: BETDAH_clean_linker_0, # of connection points: 3
#     Node 187, Type 1, BuildingBlock: BETDAH_clean_linker_0, # of connection points: 3
#     Node 188, Type 1, BuildingBlock: BETDAH_clean_linker_0, # of connection points: 3
#     Node 189, Type 1, BuildingBlock: BETDAH_clean_linker_0, # of connection points: 3
#     Node 190, Type 1, BuildingBlock: BETDAH_clean_linker_0, # of connection points: 3
#     Node 191, Type 1, BuildingBlock: BETDAH_clean_linker_0, # of connection points: 3
#     Edge 192, Type (0, 1), BuildingBlock: KIFKEQ_clean_linker_1, # of connection points: 2
#     Edge 193, Type (0, 1), BuildingBlock: KIFKEQ_clean_linker_1, # of connection points: 2
#     Edge 194, Type (0, 1), BuildingBlock: KIFKEQ_clean_linker_1, # of connection points: 2
#     Edge 195, Type (0, 1), BuildingBlock: KIFKEQ_clean_linker_1, # of connection points: 2
#     Edge 196, Type (0, 1), BuildingBlock: KIFKEQ_clean_linker_1, # of connection points: 2
#     Edge 197, Type (0, 1), BuildingBlock: KIFKEQ_clean_linker_1, # of connection points: 2
#     Edge 198, Type (0, 1), BuildingBlock: KIFKEQ_clean_linker_1, # of connection points: 2
#     Edge 199, Type (0, 1), BuildingBlock: KIFKEQ_clean_linker_1, # of connection points: 2
#     Edge 200, Type (0, 1), BuildingBlock: KIFKEQ_clean_linker_1, # of connection points: 2
#     Edge 201, Type (0, 1), BuildingBlock: KIFKEQ_clean_linker_1, # of connection points: 2
#     Edge 202, Type (0, 1), BuildingBlock: KIFKEQ_clean_linker_1, # of connection points: 2
#     Edge 203, Type (0, 1), BuildingBlock: KIFKEQ_clean_linker_1, # of connection points: 2
#     Edge 204, Type (0, 1), BuildingBlock: KIFKEQ_clean_linker_1, # of connection points: 2
#     Edge 205, Type (0, 1), BuildingBlock: KIFKEQ_clean_linker_1, # of connection points: 2
#     Edge 206, Type (0, 1), BuildingBlock: KIFKEQ_clean_linker_1, # of connection points: 2
#     Edge 207, Type (0, 1), BuildingBlock: KIFKEQ_clean_linker_1, # of connection points: 2
#     Edge 208, Type (0, 1), BuildingBlock: KIFKEQ_clean_linker_1, # of connection points: 2
#     Edge 209, Type (0, 1), BuildingBlock: KIFKEQ_clean_linker_1, # of connection points: 2
#     Edge 210, Type (0, 1), BuildingBlock: KIFKEQ_clean_linker_1, # of connection points: 2
#     Edge 211, Type (0, 1), BuildingBlock: KIFKEQ_clean_linker_1, # of connection points: 2
#     Edge 212, Type (0, 1), BuildingBlock: KIFKEQ_clean_linker_1, # of connection points: 2
#     Edge 213, Type (0, 1), BuildingBlock: KIFKEQ_clean_linker_1, # of connection points: 2
#     Edge 214, Type (0, 1), BuildingBlock: KIFKEQ_clean_linker_1, # of connection points: 2
#     Edge 215, Type (0, 1), BuildingBlock: KIFKEQ_clean_linker_1, # of connection points: 2
#     Edge 216, Type (0, 1), BuildingBlock: KIFKEQ_clean_linker_1, # of connection points: 2
#     Edge 217, Type (0, 1), BuildingBlock: KIFKEQ_clean_linker_1, # of connection points: 2
#     Edge 218, Type (0, 1), BuildingBlock: KIFKEQ_clean_linker_1, # of connection points: 2
#     Edge 219, Type (0, 1), BuildingBlock: KIFKEQ_clean_linker_1, # of connection points: 2
#     Edge 220, Type (0, 1), BuildingBlock: KIFKEQ_clean_linker_1, # of connection points: 2
#     Edge 221, Type (0, 1), BuildingBlock: KIFKEQ_clean_linker_1, # of connection points: 2
#     Edge 222, Type (0, 1), BuildingBlock: KIFKEQ_clean_linker_1, # of connection points: 2
#     Edge 223, Type (0, 1), BuildingBlock: KIFKEQ_clean_linker_1, # of connection points: 2
#     Edge 224, Type (0, 1), BuildingBlock: KIFKEQ_clean_linker_1, # of connection points: 2
#     Edge 225, Type (0, 1), BuildingBlock: KIFKEQ_clean_linker_1, # of connection points: 2
#     Edge 226, Type (0, 1), BuildingBlock: KIFKEQ_clean_linker_1, # of connection points: 2
#     Edge 227, Type (0, 1), BuildingBlock: KIFKEQ_clean_linker_1, # of connection points: 2
#     Edge 228, Type (0, 1), BuildingBlock: KIFKEQ_clean_linker_1, # of connection points: 2
#     Edge 229, Type (0, 1), BuildingBlock: KIFKEQ_clean_linker_1, # of connection points: 2
#     Edge 230, Type (0, 1), BuildingBlock: KIFKEQ_clean_linker_1, # of connection points: 2
#     Edge 231, Type (0, 1), BuildingBlock: KIFKEQ_clean_linker_1, # of connection points: 2
#     Edge 232, Type (0, 1), BuildingBlock: KIFKEQ_clean_linker_1, # of connection points: 2
#     Edge 233, Type (0, 1), BuildingBlock: KIFKEQ_clean_linker_1, # of connection points: 2
#     Edge 234, Type (0, 1), BuildingBlock: KIFKEQ_clean_linker_1, # of connection points: 2
#     Edge 235, Type (0, 1), BuildingBlock: KIFKEQ_clean_linker_1, # of connection points: 2
#     Edge 236, Type (0, 1), BuildingBlock: KIFKEQ_clean_linker_1, # of connection points: 2
#     Edge 237, Type (0, 1), BuildingBlock: KIFKEQ_clean_linker_1, # of connection points: 2
#     Edge 238, Type (0, 1), BuildingBlock: KIFKEQ_clean_linker_1, # of connection points: 2
#     Edge 239, Type (0, 1), BuildingBlock: KIFKEQ_clean_linker_1, # of connection points: 2
#     Edge 240, Type (0, 1), BuildingBlock: KIFKEQ_clean_linker_1, # of connection points: 2
#     Edge 241, Type (0, 1), BuildingBlock: KIFKEQ_clean_linker_1, # of connection points: 2
#     Edge 242, Type (0, 1), BuildingBlock: KIFKEQ_clean_linker_1, # of connection points: 2
#     Edge 243, Type (0, 1), BuildingBlock: KIFKEQ_clean_linker_1, # of connection points: 2
#     Edge 244, Type (0, 1), BuildingBlock: KIFKEQ_clean_linker_1, # of connection points: 2
#     Edge 245, Type (0, 1), BuildingBlock: KIFKEQ_clean_linker_1, # of connection points: 2
#     Edge 246, Type (0, 1), BuildingBlock: KIFKEQ_clean_linker_1, # of connection points: 2
#     Edge 247, Type (0, 1), BuildingBlock: KIFKEQ_clean_linker_1, # of connection points: 2
#     Edge 248, Type (0, 1), BuildingBlock: KIFKEQ_clean_linker_1, # of connection points: 2
#     Edge 249, Type (0, 1), BuildingBlock: KIFKEQ_clean_linker_1, # of connection points: 2
#     Edge 250, Type (0, 1), BuildingBlock: KIFKEQ_clean_linker_1, # of connection points: 2
#     Edge 251, Type (0, 1), BuildingBlock: KIFKEQ_clean_linker_1, # of connection points: 2
#     Edge 252, Type (0, 1), BuildingBlock: KIFKEQ_clean_linker_1, # of connection points: 2
#     Edge 253, Type (0, 1), BuildingBlock: KIFKEQ_clean_linker_1, # of connection points: 2
#     Edge 254, Type (0, 1), BuildingBlock: KIFKEQ_clean_linker_1, # of connection points: 2
#     Edge 255, Type (0, 1), BuildingBlock: KIFKEQ_clean_linker_1, # of connection points: 2
#     Edge 256, Type (0, 1), BuildingBlock: KIFKEQ_clean_linker_1, # of connection points: 2
#     Edge 257, Type (0, 1), BuildingBlock: KIFKEQ_clean_linker_1, # of connection points: 2
#     Edge 258, Type (0, 1), BuildingBlock: KIFKEQ_clean_linker_1, # of connection points: 2
#     Edge 259, Type (0, 1), BuildingBlock: KIFKEQ_clean_linker_1, # of connection points: 2
#     Edge 260, Type (0, 1), BuildingBlock: KIFKEQ_clean_linker_1, # of connection points: 2
#     Edge 261, Type (0, 1), BuildingBlock: KIFKEQ_clean_linker_1, # of connection points: 2
#     Edge 262, Type (0, 1), BuildingBlock: KIFKEQ_clean_linker_1, # of connection points: 2
#     Edge 263, Type (0, 1), BuildingBlock: KIFKEQ_clean_linker_1, # of connection points: 2
#     Edge 264, Type (0, 1), BuildingBlock: KIFKEQ_clean_linker_1, # of connection points: 2
#     Edge 265, Type (0, 1), BuildingBlock: KIFKEQ_clean_linker_1, # of connection points: 2
#     Edge 266, Type (0, 1), BuildingBlock: KIFKEQ_clean_linker_1, # of connection points: 2
#     Edge 267, Type (0, 1), BuildingBlock: KIFKEQ_clean_linker_1, # of connection points: 2
#     Edge 268, Type (0, 1), BuildingBlock: KIFKEQ_clean_linker_1, # of connection points: 2
#     Edge 269, Type (0, 1), BuildingBlock: KIFKEQ_clean_linker_1, # of connection points: 2
#     Edge 270, Type (0, 1), BuildingBlock: KIFKEQ_clean_linker_1, # of connection points: 2
#     Edge 271, Type (0, 1), BuildingBlock: KIFKEQ_clean_linker_1, # of connection points: 2
#     Edge 272, Type (0, 1), BuildingBlock: KIFKEQ_clean_linker_1, # of connection points: 2
#     Edge 273, Type (0, 1), BuildingBlock: KIFKEQ_clean_linker_1, # of connection points: 2
#     Edge 274, Type (0, 1), BuildingBlock: KIFKEQ_clean_linker_1, # of connection points: 2
#     Edge 275, Type (0, 1), BuildingBlock: KIFKEQ_clean_linker_1, # of connection points: 2
#     Edge 276, Type (0, 1), BuildingBlock: KIFKEQ_clean_linker_1, # of connection points: 2
#     Edge 277, Type (0, 1), BuildingBlock: KIFKEQ_clean_linker_1, # of connection points: 2
#     Edge 278, Type (0, 1), BuildingBlock: KIFKEQ_clean_linker_1, # of connection points: 2
#     Edge 279, Type (0, 1), BuildingBlock: KIFKEQ_clean_linker_1, # of connection points: 2
#     Edge 280, Type (0, 1), BuildingBlock: KIFKEQ_clean_linker_1, # of connection points: 2
#     Edge 281, Type (0, 1), BuildingBlock: KIFKEQ_clean_linker_1, # of connection points: 2
#     Edge 282, Type (0, 1), BuildingBlock: KIFKEQ_clean_linker_1, # of connection points: 2
#     Edge 283, Type (0, 1), BuildingBlock: KIFKEQ_clean_linker_1, # of connection points: 2
#     Edge 284, Type (0, 1), BuildingBlock: KIFKEQ_clean_linker_1, # of connection points: 2
#     Edge 285, Type (0, 1), BuildingBlock: KIFKEQ_clean_linker_1, # of connection points: 2
#     Edge 286, Type (0, 1), BuildingBlock: KIFKEQ_clean_linker_1, # of connection points: 2
#     Edge 287, Type (0, 1), BuildingBlock: KIFKEQ_clean_linker_1, # of connection points: 2
#     Edge 288, Type (0, 1), BuildingBlock: KIFKEQ_clean_linker_1, # of connection points: 2
#     Edge 289, Type (0, 1), BuildingBlock: KIFKEQ_clean_linker_1, # of connection points: 2
#     Edge 290, Type (0, 1), BuildingBlock: KIFKEQ_clean_linker_1, # of connection points: 2
#     Edge 291, Type (0, 1), BuildingBlock: KIFKEQ_clean_linker_1, # of connection points: 2
#     Edge 292, Type (0, 1), BuildingBlock: KIFKEQ_clean_linker_1, # of connection points: 2
#     Edge 293, Type (0, 1), BuildingBlock: KIFKEQ_clean_linker_1, # of connection points: 2
#     Edge 294, Type (0, 1), BuildingBlock: KIFKEQ_clean_linker_1, # of connection points: 2
#     Edge 295, Type (0, 1), BuildingBlock: KIFKEQ_clean_linker_1, # of connection points: 2
#     Edge 296, Type (0, 1), BuildingBlock: KIFKEQ_clean_linker_1, # of connection points: 2
#     Edge 297, Type (0, 1), BuildingBlock: KIFKEQ_clean_linker_1, # of connection points: 2
#     Edge 298, Type (0, 1), BuildingBlock: KIFKEQ_clean_linker_1, # of connection points: 2
#     Edge 299, Type (0, 1), BuildingBlock: KIFKEQ_clean_linker_1, # of connection points: 2
#     Edge 300, Type (0, 1), BuildingBlock: KIFKEQ_clean_linker_1, # of connection points: 2
#     Edge 301, Type (0, 1), BuildingBlock: KIFKEQ_clean_linker_1, # of connection points: 2
#     Edge 302, Type (0, 1), BuildingBlock: KIFKEQ_clean_linker_1, # of connection points: 2
#     Edge 303, Type (0, 1), BuildingBlock: KIFKEQ_clean_linker_1, # of connection points: 2
#     Edge 304, Type (0, 1), BuildingBlock: KIFKEQ_clean_linker_1, # of connection points: 2
#     Edge 305, Type (0, 1), BuildingBlock: KIFKEQ_clean_linker_1, # of connection points: 2
#     Edge 306, Type (0, 1), BuildingBlock: KIFKEQ_clean_linker_1, # of connection points: 2
#     Edge 307, Type (0, 1), BuildingBlock: KIFKEQ_clean_linker_1, # of connection points: 2
#     Edge 308, Type (0, 1), BuildingBlock: KIFKEQ_clean_linker_1, # of connection points: 2
#     Edge 309, Type (0, 1), BuildingBlock: KIFKEQ_clean_linker_1, # of connection points: 2
#     Edge 310, Type (0, 1), BuildingBlock: KIFKEQ_clean_linker_1, # of connection points: 2
#     Edge 311, Type (0, 1), BuildingBlock: KIFKEQ_clean_linker_1, # of connection points: 2
#     Edge 312, Type (0, 1), BuildingBlock: KIFKEQ_clean_linker_1, # of connection points: 2
#     Edge 313, Type (0, 1), BuildingBlock: KIFKEQ_clean_linker_1, # of connection points: 2
#     Edge 314, Type (0, 1), BuildingBlock: KIFKEQ_clean_linker_1, # of connection points: 2
#     Edge 315, Type (0, 1), BuildingBlock: KIFKEQ_clean_linker_1, # of connection points: 2
#     Edge 316, Type (0, 1), BuildingBlock: KIFKEQ_clean_linker_1, # of connection points: 2
#     Edge 317, Type (0, 1), BuildingBlock: KIFKEQ_clean_linker_1, # of connection points: 2
#     Edge 318, Type (0, 1), BuildingBlock: KIFKEQ_clean_linker_1, # of connection points: 2
#     Edge 319, Type (0, 1), BuildingBlock: KIFKEQ_clean_linker_1, # of connection points: 2
#     Edge 320, Type (0, 1), BuildingBlock: KIFKEQ_clean_linker_1, # of connection points: 2
#     Edge 321, Type (0, 1), BuildingBlock: KIFKEQ_clean_linker_1, # of connection points: 2
#     Edge 322, Type (0, 1), BuildingBlock: KIFKEQ_clean_linker_1, # of connection points: 2
#     Edge 323, Type (0, 1), BuildingBlock: KIFKEQ_clean_linker_1, # of connection points: 2
#     Edge 324, Type (0, 1), BuildingBlock: KIFKEQ_clean_linker_1, # of connection points: 2
#     Edge 325, Type (0, 1), BuildingBlock: KIFKEQ_clean_linker_1, # of connection points: 2
#     Edge 326, Type (0, 1), BuildingBlock: KIFKEQ_clean_linker_1, # of connection points: 2
#     Edge 327, Type (0, 1), BuildingBlock: KIFKEQ_clean_linker_1, # of connection points: 2
#     Edge 328, Type (0, 1), BuildingBlock: KIFKEQ_clean_linker_1, # of connection points: 2
#     Edge 329, Type (0, 1), BuildingBlock: KIFKEQ_clean_linker_1, # of connection points: 2
#     Edge 330, Type (0, 1), BuildingBlock: KIFKEQ_clean_linker_1, # of connection points: 2
#     Edge 331, Type (0, 1), BuildingBlock: KIFKEQ_clean_linker_1, # of connection points: 2
#     Edge 332, Type (0, 1), BuildingBlock: KIFKEQ_clean_linker_1, # of connection points: 2
#     Edge 333, Type (0, 1), BuildingBlock: KIFKEQ_clean_linker_1, # of connection points: 2
#     Edge 334, Type (0, 1), BuildingBlock: KIFKEQ_clean_linker_1, # of connection points: 2
#     Edge 335, Type (0, 1), BuildingBlock: KIFKEQ_clean_linker_1, # of connection points: 2
#     Edge 336, Type (0, 1), BuildingBlock: KIFKEQ_clean_linker_1, # of connection points: 2
#     Edge 337, Type (0, 1), BuildingBlock: KIFKEQ_clean_linker_1, # of connection points: 2
#     Edge 338, Type (0, 1), BuildingBlock: KIFKEQ_clean_linker_1, # of connection points: 2
#     Edge 339, Type (0, 1), BuildingBlock: KIFKEQ_clean_linker_1, # of connection points: 2
#     Edge 340, Type (0, 1), BuildingBlock: KIFKEQ_clean_linker_1, # of connection points: 2
#     Edge 341, Type (0, 1), BuildingBlock: KIFKEQ_clean_linker_1, # of connection points: 2
#     Edge 342, Type (0, 1), BuildingBlock: KIFKEQ_clean_linker_1, # of connection points: 2
#     Edge 343, Type (0, 1), BuildingBlock: KIFKEQ_clean_linker_1, # of connection points: 2
#     Edge 344, Type (0, 1), BuildingBlock: KIFKEQ_clean_linker_1, # of connection points: 2
#     Edge 345, Type (0, 1), BuildingBlock: KIFKEQ_clean_linker_1, # of connection points: 2
#     Edge 346, Type (0, 1), BuildingBlock: KIFKEQ_clean_linker_1, # of connection points: 2
#     Edge 347, Type (0, 1), BuildingBlock: KIFKEQ_clean_linker_1, # of connection points: 2
#     Edge 348, Type (0, 1), BuildingBlock: KIFKEQ_clean_linker_1, # of connection points: 2
#     Edge 349, Type (0, 1), BuildingBlock: KIFKEQ_clean_linker_1, # of connection points: 2
#     Edge 350, Type (0, 1), BuildingBlock: KIFKEQ_clean_linker_1, # of connection points: 2
#     Edge 351, Type (0, 1), BuildingBlock: KIFKEQ_clean_linker_1, # of connection points: 2
#     Edge 352, Type (0, 1), BuildingBlock: KIFKEQ_clean_linker_1, # of connection points: 2
#     Edge 353, Type (0, 1), BuildingBlock: KIFKEQ_clean_linker_1, # of connection points: 2
#     Edge 354, Type (0, 1), BuildingBlock: KIFKEQ_clean_linker_1, # of connection points: 2
#     Edge 355, Type (0, 1), BuildingBlock: KIFKEQ_clean_linker_1, # of connection points: 2
#     Edge 356, Type (0, 1), BuildingBlock: KIFKEQ_clean_linker_1, # of connection points: 2
#     Edge 357, Type (0, 1), BuildingBlock: KIFKEQ_clean_linker_1, # of connection points: 2
#     Edge 358, Type (0, 1), BuildingBlock: KIFKEQ_clean_linker_1, # of connection points: 2
#     Edge 359, Type (0, 1), BuildingBlock: KIFKEQ_clean_linker_1, # of connection points: 2
#     Edge 360, Type (0, 1), BuildingBlock: KIFKEQ_clean_linker_1, # of connection points: 2
#     Edge 361, Type (0, 1), BuildingBlock: KIFKEQ_clean_linker_1, # of connection points: 2
#     Edge 362, Type (0, 1), BuildingBlock: KIFKEQ_clean_linker_1, # of connection points: 2
#     Edge 363, Type (0, 1), BuildingBlock: KIFKEQ_clean_linker_1, # of connection points: 2
#     Edge 364, Type (0, 1), BuildingBlock: KIFKEQ_clean_linker_1, # of connection points: 2
#     Edge 365, Type (0, 1), BuildingBlock: KIFKEQ_clean_linker_1, # of connection points: 2
#     Edge 366, Type (0, 1), BuildingBlock: KIFKEQ_clean_linker_1, # of connection points: 2
#     Edge 367, Type (0, 1), BuildingBlock: KIFKEQ_clean_linker_1, # of connection points: 2
#     Edge 368, Type (0, 1), BuildingBlock: KIFKEQ_clean_linker_1, # of connection points: 2
#     Edge 369, Type (0, 1), BuildingBlock: KIFKEQ_clean_linker_1, # of connection points: 2
#     Edge 370, Type (0, 1), BuildingBlock: KIFKEQ_clean_linker_1, # of connection points: 2
#     Edge 371, Type (0, 1), BuildingBlock: KIFKEQ_clean_linker_1, # of connection points: 2
#     Edge 372, Type (0, 1), BuildingBlock: KIFKEQ_clean_linker_1, # of connection points: 2
#     Edge 373, Type (0, 1), BuildingBlock: KIFKEQ_clean_linker_1, # of connection points: 2
#     Edge 374, Type (0, 1), BuildingBlock: KIFKEQ_clean_linker_1, # of connection points: 2
#     Edge 375, Type (0, 1), BuildingBlock: KIFKEQ_clean_linker_1, # of connection points: 2
#     Edge 376, Type (0, 1), BuildingBlock: KIFKEQ_clean_linker_1, # of connection points: 2
#     Edge 377, Type (0, 1), BuildingBlock: KIFKEQ_clean_linker_1, # of connection points: 2
#     Edge 378, Type (0, 1), BuildingBlock: KIFKEQ_clean_linker_1, # of connection points: 2
#     Edge 379, Type (0, 1), BuildingBlock: KIFKEQ_clean_linker_1, # of connection points: 2
#     Edge 380, Type (0, 1), BuildingBlock: KIFKEQ_clean_linker_1, # of connection points: 2
#     Edge 381, Type (0, 1), BuildingBlock: KIFKEQ_clean_linker_1, # of connection points: 2
#     Edge 382, Type (0, 1), BuildingBlock: KIFKEQ_clean_linker_1, # of connection points: 2
#     Edge 383, Type (0, 1), BuildingBlock: KIFKEQ_clean_linker_1, # of connection points: 2
#     Edge 384, Type (0, 1), BuildingBlock: KIFKEQ_clean_linker_1, # of connection points: 2
#     Edge 385, Type (0, 1), BuildingBlock: KIFKEQ_clean_linker_1, # of connection points: 2
#     Edge 386, Type (0, 1), BuildingBlock: KIFKEQ_clean_linker_1, # of connection points: 2
#     Edge 387, Type (0, 1), BuildingBlock: KIFKEQ_clean_linker_1, # of connection points: 2
#     Edge 388, Type (0, 1), BuildingBlock: KIFKEQ_clean_linker_1, # of connection points: 2
#     Edge 389, Type (0, 1), BuildingBlock: KIFKEQ_clean_linker_1, # of connection points: 2
#     Edge 390, Type (0, 1), BuildingBlock: KIFKEQ_clean_linker_1, # of connection points: 2
#     Edge 391, Type (0, 1), BuildingBlock: KIFKEQ_clean_linker_1, # of connection points: 2
#     Edge 392, Type (0, 1), BuildingBlock: KIFKEQ_clean_linker_1, # of connection points: 2
#     Edge 393, Type (0, 1), BuildingBlock: KIFKEQ_clean_linker_1, # of connection points: 2
#     Edge 394, Type (0, 1), BuildingBlock: KIFKEQ_clean_linker_1, # of connection points: 2
#     Edge 395, Type (0, 1), BuildingBlock: KIFKEQ_clean_linker_1, # of connection points: 2
#     Edge 396, Type (0, 1), BuildingBlock: KIFKEQ_clean_linker_1, # of connection points: 2
#     Edge 397, Type (0, 1), BuildingBlock: KIFKEQ_clean_linker_1, # of connection points: 2
#     Edge 398, Type (0, 1), BuildingBlock: KIFKEQ_clean_linker_1, # of connection points: 2
#     Edge 399, Type (0, 1), BuildingBlock: KIFKEQ_clean_linker_1, # of connection points: 2
#     Edge 400, Type (0, 1), BuildingBlock: KIFKEQ_clean_linker_1, # of connection points: 2
#     Edge 401, Type (0, 1), BuildingBlock: KIFKEQ_clean_linker_1, # of connection points: 2
#     Edge 402, Type (0, 1), BuildingBlock: KIFKEQ_clean_linker_1, # of connection points: 2
#     Edge 403, Type (0, 1), BuildingBlock: KIFKEQ_clean_linker_1, # of connection points: 2
#     Edge 404, Type (0, 1), BuildingBlock: KIFKEQ_clean_linker_1, # of connection points: 2
#     Edge 405, Type (0, 1), BuildingBlock: KIFKEQ_clean_linker_1, # of connection points: 2
#     Edge 406, Type (0, 1), BuildingBlock: KIFKEQ_clean_linker_1, # of connection points: 2
#     Edge 407, Type (0, 1), BuildingBlock: KIFKEQ_clean_linker_1, # of connection points: 2
#     Edge 408, Type (0, 1), BuildingBlock: KIFKEQ_clean_linker_1, # of connection points: 2
#     Edge 409, Type (0, 1), BuildingBlock: KIFKEQ_clean_linker_1, # of connection points: 2
#     Edge 410, Type (0, 1), BuildingBlock: KIFKEQ_clean_linker_1, # of connection points: 2
#     Edge 411, Type (0, 1), BuildingBlock: KIFKEQ_clean_linker_1, # of connection points: 2
#     Edge 412, Type (0, 1), BuildingBlock: KIFKEQ_clean_linker_1, # of connection points: 2
#     Edge 413, Type (0, 1), BuildingBlock: KIFKEQ_clean_linker_1, # of connection points: 2
#     Edge 414, Type (0, 1), BuildingBlock: KIFKEQ_clean_linker_1, # of connection points: 2
#     Edge 415, Type (0, 1), BuildingBlock: KIFKEQ_clean_linker_1, # of connection points: 2
#     Edge 416, Type (0, 1), BuildingBlock: KIFKEQ_clean_linker_1, # of connection points: 2
#     Edge 417, Type (0, 1), BuildingBlock: KIFKEQ_clean_linker_1, # of connection points: 2
#     Edge 418, Type (0, 1), BuildingBlock: KIFKEQ_clean_linker_1, # of connection points: 2
#     Edge 419, Type (0, 1), BuildingBlock: KIFKEQ_clean_linker_1, # of connection points: 2
#     Edge 420, Type (0, 1), BuildingBlock: KIFKEQ_clean_linker_1, # of connection points: 2
#     Edge 421, Type (0, 1), BuildingBlock: KIFKEQ_clean_linker_1, # of connection points: 2
#     Edge 422, Type (0, 1), BuildingBlock: KIFKEQ_clean_linker_1, # of connection points: 2
#     Edge 423, Type (0, 1), BuildingBlock: KIFKEQ_clean_linker_1, # of connection points: 2
#     Edge 424, Type (0, 1), BuildingBlock: KIFKEQ_clean_linker_1, # of connection points: 2
#     Edge 425, Type (0, 1), BuildingBlock: KIFKEQ_clean_linker_1, # of connection points: 2
#     Edge 426, Type (0, 1), BuildingBlock: KIFKEQ_clean_linker_1, # of connection points: 2
#     Edge 427, Type (0, 1), BuildingBlock: KIFKEQ_clean_linker_1, # of connection points: 2
#     Edge 428, Type (0, 1), BuildingBlock: KIFKEQ_clean_linker_1, # of connection points: 2
#     Edge 429, Type (0, 1), BuildingBlock: KIFKEQ_clean_linker_1, # of connection points: 2
#     Edge 430, Type (0, 1), BuildingBlock: KIFKEQ_clean_linker_1, # of connection points: 2
#     Edge 431, Type (0, 1), BuildingBlock: KIFKEQ_clean_linker_1, # of connection points: 2
#     Edge 432, Type (0, 1), BuildingBlock: KIFKEQ_clean_linker_1, # of connection points: 2
#     Edge 433, Type (0, 1), BuildingBlock: KIFKEQ_clean_linker_1, # of connection points: 2
#     Edge 434, Type (0, 1), BuildingBlock: KIFKEQ_clean_linker_1, # of connection points: 2
#     Edge 435, Type (0, 1), BuildingBlock: KIFKEQ_clean_linker_1, # of connection points: 2
#     Edge 436, Type (0, 1), BuildingBlock: KIFKEQ_clean_linker_1, # of connection points: 2
#     Edge 437, Type (0, 1), BuildingBlock: KIFKEQ_clean_linker_1, # of connection points: 2
#     Edge 438, Type (0, 1), BuildingBlock: KIFKEQ_clean_linker_1, # of connection points: 2
#     Edge 439, Type (0, 1), BuildingBlock: KIFKEQ_clean_linker_1, # of connection points: 2
#     Edge 440, Type (0, 1), BuildingBlock: KIFKEQ_clean_linker_1, # of connection points: 2
#     Edge 441, Type (0, 1), BuildingBlock: KIFKEQ_clean_linker_1, # of connection points: 2
#     Edge 442, Type (0, 1), BuildingBlock: KIFKEQ_clean_linker_1, # of connection points: 2
#     Edge 443, Type (0, 1), BuildingBlock: KIFKEQ_clean_linker_1, # of connection points: 2
#     Edge 444, Type (0, 1), BuildingBlock: KIFKEQ_clean_linker_1, # of connection points: 2
#     Edge 445, Type (0, 1), BuildingBlock: KIFKEQ_clean_linker_1, # of connection points: 2
#     Edge 446, Type (0, 1), BuildingBlock: KIFKEQ_clean_linker_1, # of connection points: 2
#     Edge 447, Type (0, 1), BuildingBlock: KIFKEQ_clean_linker_1, # of connection points: 2
#     Edge 448, Type (0, 1), BuildingBlock: KIFKEQ_clean_linker_1, # of connection points: 2
#     Edge 449, Type (0, 1), BuildingBlock: KIFKEQ_clean_linker_1, # of connection points: 2
#     Edge 450, Type (0, 1), BuildingBlock: KIFKEQ_clean_linker_1, # of connection points: 2
#     Edge 451, Type (0, 1), BuildingBlock: KIFKEQ_clean_linker_1, # of connection points: 2
#     Edge 452, Type (0, 1), BuildingBlock: KIFKEQ_clean_linker_1, # of connection points: 2
#     Edge 453, Type (0, 1), BuildingBlock: KIFKEQ_clean_linker_1, # of connection points: 2
#     Edge 454, Type (0, 1), BuildingBlock: KIFKEQ_clean_linker_1, # of connection points: 2
#     Edge 455, Type (0, 1), BuildingBlock: KIFKEQ_clean_linker_1, # of connection points: 2
#     Edge 456, Type (0, 1), BuildingBlock: KIFKEQ_clean_linker_1, # of connection points: 2
#     Edge 457, Type (0, 1), BuildingBlock: KIFKEQ_clean_linker_1, # of connection points: 2
#     Edge 458, Type (0, 1), BuildingBlock: KIFKEQ_clean_linker_1, # of connection points: 2
#     Edge 459, Type (0, 1), BuildingBlock: KIFKEQ_clean_linker_1, # of connection points: 2
#     Edge 460, Type (0, 1), BuildingBlock: KIFKEQ_clean_linker_1, # of connection points: 2
#     Edge 461, Type (0, 1), BuildingBlock: KIFKEQ_clean_linker_1, # of connection points: 2
#     Edge 462, Type (0, 1), BuildingBlock: KIFKEQ_clean_linker_1, # of connection points: 2
#     Edge 463, Type (0, 1), BuildingBlock: KIFKEQ_clean_linker_1, # of connection points: 2
#     Edge 464, Type (0, 1), BuildingBlock: KIFKEQ_clean_linker_1, # of connection points: 2
#     Edge 465, Type (0, 1), BuildingBlock: KIFKEQ_clean_linker_1, # of connection points: 2
#     Edge 466, Type (0, 1), BuildingBlock: KIFKEQ_clean_linker_1, # of connection points: 2
#     Edge 467, Type (0, 1), BuildingBlock: KIFKEQ_clean_linker_1, # of connection points: 2
#     Edge 468, Type (0, 1), BuildingBlock: KIFKEQ_clean_linker_1, # of connection points: 2
#     Edge 469, Type (0, 1), BuildingBlock: KIFKEQ_clean_linker_1, # of connection points: 2
#     Edge 470, Type (0, 1), BuildingBlock: KIFKEQ_clean_linker_1, # of connection points: 2
#     Edge 471, Type (0, 1), BuildingBlock: KIFKEQ_clean_linker_1, # of connection points: 2
#     Edge 472, Type (0, 1), BuildingBlock: KIFKEQ_clean_linker_1, # of connection points: 2
#     Edge 473, Type (0, 1), BuildingBlock: KIFKEQ_clean_linker_1, # of connection points: 2
#     Edge 474, Type (0, 1), BuildingBlock: KIFKEQ_clean_linker_1, # of connection points: 2
#     Edge 475, Type (0, 1), BuildingBlock: KIFKEQ_clean_linker_1, # of connection points: 2
#     Edge 476, Type (0, 1), BuildingBlock: KIFKEQ_clean_linker_1, # of connection points: 2
#     Edge 477, Type (0, 1), BuildingBlock: KIFKEQ_clean_linker_1, # of connection points: 2
#     Edge 478, Type (0, 1), BuildingBlock: KIFKEQ_clean_linker_1, # of connection points: 2
#     Edge 479, Type (0, 1), BuildingBlock: KIFKEQ_clean_linker_1, # of connection points: 2
# Relax obj value: 0.036
# Max RMSD: 0.056
# Mean RMSD: 0.033
data_MOF--net-ana-f--node1-WUSLED_clean_sbu_0--node2-BETDAH_clean_linker_0--edge1-KIFKEQ_clean_linker_1
_symmetry_space_group_name_H-M    P1
_symmetry_Int_Tables_number       1
_symmetry_cell_setting            triclinic
loop_
_symmetry_equiv_pos_as_xyz
'x, y, z'
_cell_length_a     190.14327
_cell_length_b     190.08662
_cell_length_c     190.10543
_cell_angle_alpha  89.995971
_cell_angle_beta   90.011858
_cell_angle_gamma 89.990991
loop_
_atom_site_label
_atom_site_type_symbol
_atom_site_fract_x
_atom_site_fract_y
_atom_site_fract_z
_atom_type_partial_charge
C0 C 0.076 0.14881 0.43241 0.0
C1 C 0.08272 0.15184 0.43189 0.0
C2 C 0.08738 0.14312 0.44009 0.0
C3 C 0.08836 0.14902 0.43571 0.0
C4 C 0.08061 0.14017 0.4406 0.0
C5 C 0.07499 0.14299 0.4368 0.0
U6 U 0.0678 0.16138 0.41892 0.0
O7 O 0.06004 0.15928 0.41062 0.0
O8 O 0.05755 0.1668 0.41905 0.0
C9 C 0.05536 0.16359 0.41333 0.0
C10 C 0.06997 0.15154 0.42838 0.0
C11 C 0.04796 0.1613 0.41313 0.0
C12 C 0.03856 0.15288 0.41532 0.0
C13 C 0.04558 0.15502 0.41622 0.0
C14 C 0.03628 0.16333 0.4084 0.0
C15 C 0.03387 0.15696 0.41127 0.0
C16 C 0.04323 0.16547 0.40933 0.0
C17 C 0.08066 0.17479 0.41019 0.0
C18 C 0.0794 0.18171 0.3995 0.0
C19 C 0.08976 0.18303 0.4068 0.0
C20 C 0.0871 0.17809 0.4115 0.0
C21 C 0.08602 0.1848 0.40068 0.0
C22 C 0.07673 0.17669 0.40422 0.0
C23 C 0.07855 0.16906 0.41494 0.0
O24 O 0.06791 0.15794 0.42998 0.0
O25 O 0.07015 0.15036 0.42157 0.0
O26 O 0.07687 0.16304 0.41198 0.0
O27 O 0.07449 0.17074 0.42027 0.0
H28 H 0.08359 0.15634 0.42851 0.0
H29 H 0.09351 0.15138 0.43515 0.0
H30 H 0.07963 0.1357 0.44399 0.0
H31 H 0.06984 0.1406 0.43727 0.0
H32 H 0.03686 0.14793 0.41758 0.0
H33 H 0.04917 0.15173 0.41918 0.0
H34 H 0.03279 0.16666 0.40537 0.0
H35 H 0.04496 0.17034 0.40692 0.0
H36 H 0.07643 0.18298 0.3948 0.0
H37 H 0.09483 0.18539 0.40789 0.0
H38 H 0.09018 0.1767 0.41609 0.0
H39 H 0.07174 0.17418 0.40312 0.0
C40 C 0.10886 0.82617 0.68259 0.0
C41 C 0.10731 0.83311 0.6806 0.0
C42 C 0.11448 0.83761 0.69026 0.0
C43 C 0.11011 0.83878 0.68439 0.0
C44 C 0.1159 0.83063 0.69228 0.0
C45 C 0.11314 0.82498 0.68847 0.0
U46 U 0.09677 0.81795 0.66874 0.0
O47 O 0.09912 0.81011 0.66058 0.0
O48 O 0.09121 0.80776 0.66869 0.0
C49 C 0.09468 0.80548 0.66316 0.0
C50 C 0.10625 0.8201 0.67855 0.0
C51 C 0.09697 0.79807 0.66322 0.0
C52 C 0.10592 0.78896 0.66425 0.0
C53 C 0.10381 0.796 0.66509 0.0
C54 C 0.09432 0.78602 0.65989 0.0
C55 C 0.10123 0.78392 0.66148 0.0
C56 C 0.09223 0.793 0.66075 0.0
C57 C 0.08394 0.83096 0.65941 0.0
C58 C 0.07503 0.82862 0.65052 0.0
C59 C 0.07769 0.84062 0.65393 0.0
C60 C 0.08266 0.83817 0.65871 0.0
C61 C 0.07387 0.8359 0.64972 0.0
C62 C 0.08008 0.82616 0.65533 0.0
C63 C 0.0894 0.82878 0.66441 0.0
O64 O 0.09977 0.81811 0.67994 0.0
O65 O 0.1077 0.82015 0.6718 0.0
O66 O 0.09551 0.82704 0.66171 0.0
O67 O 0.08743 0.82472 0.66964 0.0
H68 H 0.10401 0.83414 0.67606 0.0
H69 H 0.10895 0.84407 0.68261 0.0
H70 H 0.11911 0.82949 0.69685 0.0
H71 H 0.11437 0.81966 0.6901 0.0
H72 H 0.11129 0.78752 0.6655 0.0
H73 H 0.10757 0.79983 0.667 0.0
H74 H 0.09053 0.78227 0.65788 0.0
H75 H 0.08692 0.79449 0.65929 0.0
H76 H 0.07217 0.82487 0.64733 0.0
H77 H 0.07682 0.84624 0.65355 0.0
H78 H 0.08557 0.84194 0.66185 0.0
H79 H 0.081 0.82056 0.65581 0.0
C80 C 0.43256 0.85925 0.93224 0.0
C81 C 0.42568 0.85682 0.93118 0.0
C82 C 0.42137 0.86484 0.94022 0.0
C83 C 0.42012 0.85959 0.93514 0.0
C84 C 0.42829 0.86724 0.94125 0.0
C85 C 0.43383 0.86445 0.9373 0.0
U86 U 0.44041 0.84668 0.91857 0.0
O87 O 0.44812 0.84872 0.91021 0.0
O88 O 0.45058 0.84112 0.91857 0.0
C89 C 0.4528 0.8444 0.91291 0.0
C90 C 0.4385 0.8565 0.9281 0.0
C91 C 0.46015 0.84684 0.91294 0.0
C92 C 0.46917 0.8556 0.91531 0.0
C93 C 0.46218 0.8533 0.9159 0.0
C94 C 0.47213 0.84495 0.90897 0.0
C95 C 0.47422 0.85147 0.91177 0.0
C96 C 0.46518 0.84268 0.90956 0.0
C97 C 0.42746 0.83339 0.90989 0.0
C98 C 0.42859 0.82667 0.89905 0.0
C99 C 0.41851 0.82491 0.90665 0.0
C100 C 0.42117 0.82986 0.91135 0.0
C101 C 0.42211 0.82336 0.90038 0.0
C102 C 0.43125 0.8317 0.90377 0.0
C103 C 0.42956 0.8391 0.91465 0.0
O104 O 0.44052 0.85007 0.92964 0.0
O105 O 0.43822 0.85771 0.9213 0.0
O106 O 0.43125 0.84513 0.91171 0.0
O107 O 0.43363 0.83739 0.91997 0.0
H108 H 0.4246 0.85281 0.92727 0.0
H109 H 0.41484 0.85769 0.93417 0.0
H110 H 0.42943 0.87121 0.94518 0.0
H111 H 0.43912 0.86637 0.9382 0.0
H112 H 0.47062 0.86061 0.9176 0.0
H113 H 0.45835 0.85659 0.91855 0.0
H114 H 0.47582 0.84169 0.90611 0.0
H115 H 0.4637 0.8377 0.90721 0.0
H116 H 0.43145 0.82558 0.89424 0.0
H117 H 0.41356 0.82237 0.90786 0.0
H118 H 0.41819 0.83109 0.91605 0.0
H119 H 0.43612 0.83438 0.90256 0.0
C120 C 0.39836 0.18186 0.18202 0.0
C121 C 0.40132 0.17512 0.1814 0.0
C122 C 0.39271 0.17048 0.18974 0.0
C123 C 0.39853 0.16948 0.18524 0.0
C124 C 0.38982 0.17727 0.19032 0.0
C125 C 0.39264 0.18289 0.18652 0.0
U126 U 0.41085 0.1899 0.16842 0.0
O127 O 0.40879 0.19771 0.16015 0.0
O128 O 0.41644 0.20006 0.1685 0.0
C129 C 0.41313 0.20235 0.16288 0.0
C130 C 0.40108 0.18787 0.17796 0.0
C131 C 0.41073 0.20972 0.16298 0.0
C132 C 0.40188 0.21875 0.16502 0.0
C133 C 0.40413 0.21173 0.16561 0.0
C134 C 0.41285 0.22177 0.1593 0.0
C135 C 0.40619 0.22385 0.16177 0.0
C136 C 0.41508 0.21481 0.15992 0.0
C137 C 0.42407 0.17683 0.15971 0.0
C138 C 0.43227 0.17881 0.1501 0.0
C139 C 0.43195 0.16752 0.15602 0.0
C140 C 0.42663 0.16998 0.16041 0.0
C141 C 0.43486 0.1719 0.15082 0.0
C142 C 0.42691 0.18127 0.15454 0.0
C143 C 0.41835 0.17901 0.16442 0.0
O144 O 0.40752 0.18987 0.1795 0.0
O145 O 0.39983 0.18769 0.17117 0.0
O146 O 0.41238 0.18081 0.16143 0.0
O147 O 0.42009 0.18305 0.16975 0.0
H148 H 0.40576 0.17423 0.17795 0.0
H149 H 0.40097 0.16436 0.18473 0.0
H150 H 0.38528 0.17825 0.19361 0.0
H151 H 0.39028 0.18806 0.18704 0.0
H152 H 0.39676 0.22016 0.16707 0.0
H153 H 0.40068 0.20787 0.168 0.0
H154 H 0.41628 0.22547 0.15665 0.0
H155 H 0.42018 0.21334 0.15782 0.0
H156 H 0.43443 0.18232 0.14616 0.0
H157 H 0.4337 0.16213 0.15663 0.0
H158 H 0.42446 0.16647 0.16435 0.0
H159 H 0.42497 0.1866 0.15392 0.0
C160 C 0.07592 0.86022 0.0758 0.0
C161 C 0.08289 0.85824 0.07723 0.0
C162 C 0.08712 0.86607 0.06796 0.0
C163 C 0.08844 0.86115 0.07336 0.0
C164 C 0.0801 0.86795 0.06653 0.0
C165 C 0.07458 0.86506 0.07042 0.0
U166 U 0.06811 0.84753 0.08938 0.0
O167 O 0.0604 0.84944 0.09779 0.0
O168 O 0.05797 0.84193 0.08935 0.0
C169 C 0.05576 0.84509 0.09508 0.0
C170 C 0.06998 0.85741 0.0799 0.0
C171 C 0.04836 0.84738 0.09524 0.0
C172 C 0.03856 0.85461 0.09128 0.0
C173 C 0.04564 0.85254 0.09071 0.0
C174 C 0.03694 0.84638 0.10086 0.0
C175 C 0.03412 0.85156 0.0964 0.0
C176 C 0.04395 0.84431 0.10027 0.0
C177 C 0.08139 0.83441 0.09793 0.0
C178 C 0.07934 0.82545 0.10683 0.0
C179 C 0.09104 0.82721 0.1021 0.0
C180 C 0.0885 0.83256 0.09779 0.0
C181 C 0.0865 0.82354 0.10663 0.0
C182 C 0.07679 0.83086 0.10249 0.0
C183 C 0.07909 0.8401 0.09324 0.0
O184 O 0.06801 0.85097 0.07832 0.0
O185 O 0.07019 0.85859 0.0867 0.0
O186 O 0.0773 0.84606 0.09625 0.0
O187 O 0.07499 0.83833 0.08796 0.0
H188 H 0.08403 0.8545 0.08138 0.0
H189 H 0.09377 0.85963 0.07467 0.0
H190 H 0.07885 0.8716 0.06234 0.0
H191 H 0.06923 0.86663 0.06922 0.0
H192 H 0.03657 0.85857 0.0877 0.0
H193 H 0.04897 0.85497 0.08678 0.0
H194 H 0.0338 0.84402 0.10498 0.0
H195 H 0.04597 0.84035 0.10384 0.0
H196 H 0.07571 0.82271 0.11026 0.0
H197 H 0.0966 0.82599 0.10191 0.0
H198 H 0.09213 0.83529 0.09434 0.0
H199 H 0.07126 0.83225 0.10266 0.0
C200 C 0.3982 0.82618 0.32561 0.0
C201 C 0.40129 0.83285 0.32621 0.0
C202 C 0.39261 0.83771 0.31807 0.0
C203 C 0.39853 0.83857 0.32245 0.0
C204 C 0.38957 0.83098 0.31752 0.0
C205 C 0.39236 0.82528 0.32123 0.0
U206 U 0.41081 0.81758 0.33881 0.0
O207 O 0.40871 0.80979 0.34709 0.0
O208 O 0.41598 0.80721 0.33846 0.0
C209 C 0.41291 0.80507 0.34427 0.0
C210 C 0.40088 0.82007 0.32955 0.0
C211 C 0.41062 0.79769 0.34463 0.0
C212 C 0.40286 0.78796 0.34164 0.0
C213 C 0.40497 0.79499 0.34071 0.0
C214 C 0.41211 0.78634 0.35025 0.0
C215 C 0.40635 0.7836 0.34653 0.0
C216 C 0.41421 0.79329 0.34931 0.0
C217 C 0.42489 0.82936 0.34779 0.0
C218 C 0.4293 0.83251 0.35941 0.0
C219 C 0.43687 0.83357 0.34923 0.0
C220 C 0.43147 0.83107 0.34494 0.0
C221 C 0.43578 0.83458 0.35649 0.0
C222 C 0.42392 0.82991 0.35511 0.0
C223 C 0.41894 0.82793 0.34298 0.0
O224 O 0.40721 0.81789 0.32782 0.0
O225 O 0.39982 0.82022 0.33638 0.0
O226 O 0.41281 0.82653 0.34585 0.0
O227 O 0.4203 0.82407 0.3374 0.0
H228 H 0.40583 0.83364 0.32957 0.0
H229 H 0.40108 0.84364 0.32294 0.0
H230 H 0.38494 0.8301 0.31433 0.0
H231 H 0.38989 0.82017 0.32073 0.0
H232 H 0.39839 0.78599 0.3387 0.0
H233 H 0.40214 0.79833 0.33706 0.0
H234 H 0.415 0.7831 0.35395 0.0
H235 H 0.41861 0.79528 0.35235 0.0
H236 H 0.42822 0.83326 0.36495 0.0
H237 H 0.44184 0.83491 0.3468 0.0
H238 H 0.43238 0.83071 0.33932 0.0
H239 H 0.41889 0.82867 0.35749 0.0
C240 C 0.43178 0.14836 0.57583 0.0
C241 C 0.42508 0.15147 0.57607 0.0
C242 C 0.42051 0.14239 0.5682 0.0
C243 C 0.41949 0.14851 0.57227 0.0
C244 C 0.42725 0.13936 0.56798 0.0
C245 C 0.43282 0.14232 0.57175 0.0
U246 U 0.43997 0.16128 0.58905 0.0
O247 O 0.44782 0.15936 0.59731 0.0
O248 O 0.4502 0.16673 0.58872 0.0
C249 C 0.45246 0.16362 0.59446 0.0
C250 C 0.43777 0.15125 0.5798 0.0
C251 C 0.45986 0.16133 0.59459 0.0
C252 C 0.46915 0.1527 0.59274 0.0
C253 C 0.46212 0.15484 0.59187 0.0
C254 C 0.47167 0.16358 0.59888 0.0
C255 C 0.47396 0.157 0.5964 0.0
C256 C 0.46471 0.1657 0.59798 0.0
C257 C 0.4273 0.17491 0.59768 0.0
C258 C 0.42807 0.18138 0.60871 0.0
C259 C 0.4187 0.18391 0.60044 0.0
C260 C 0.42138 0.17888 0.59584 0.0
C261 C 0.42191 0.18511 0.60699 0.0
C262 C 0.43074 0.17627 0.60409 0.0
C263 C 0.42928 0.16906 0.59302 0.0
O264 O 0.43978 0.15763 0.57807 0.0
O265 O 0.43762 0.15021 0.58664 0.0
O266 O 0.43098 0.16309 0.59607 0.0
O267 O 0.43323 0.1706 0.58757 0.0
H268 H 0.42417 0.15613 0.57921 0.0
H269 H 0.41434 0.15094 0.57261 0.0
H270 H 0.42826 0.13473 0.56483 0.0
H271 H 0.43796 0.13987 0.57149 0.0
H272 H 0.47075 0.1476 0.59078 0.0
H273 H 0.45843 0.15138 0.58923 0.0
H274 H 0.47525 0.16707 0.60161 0.0
H275 H 0.46307 0.17073 0.6001 0.0
H276 H 0.43062 0.18219 0.61374 0.0
H277 H 0.414 0.18677 0.59895 0.0
H278 H 0.41866 0.17792 0.59092 0.0
H279 H 0.43533 0.17325 0.6056 0.0
C280 C 0.10959 0.18222 0.82518 0.0
C281 C 0.10634 0.1756 0.82559 0.0
C282 C 0.11495 0.17078 0.81739 0.0
C283 C 0.10899 0.16993 0.82171 0.0
C284 C 0.11815 0.17744 0.81701 0.0
C285 C 0.11548 0.1831 0.82087 0.0
U286 U 0.09717 0.19017 0.83879 0.0
O287 O 0.09917 0.1978 0.84724 0.0
O288 O 0.09159 0.20033 0.83887 0.0
C289 C 0.09478 0.20246 0.84463 0.0
C290 C 0.10696 0.18826 0.82925 0.0
C291 C 0.09696 0.20987 0.84497 0.0
C292 C 0.10495 0.21955 0.84243 0.0
C293 C 0.10288 0.21252 0.84142 0.0
C294 C 0.09512 0.22129 0.85034 0.0
C295 C 0.10116 0.22397 0.84704 0.0
C296 C 0.09306 0.21434 0.84932 0.0
C297 C 0.08397 0.17709 0.84735 0.0
C298 C 0.07587 0.17916 0.85703 0.0
C299 C 0.07609 0.16784 0.85116 0.0
C300 C 0.08138 0.17024 0.84671 0.0
C301 C 0.07325 0.17225 0.85637 0.0
C302 C 0.0812 0.18157 0.85253 0.0
C303 C 0.08968 0.17923 0.84261 0.0
O304 O 0.10055 0.19034 0.82773 0.0
O305 O 0.1082 0.18802 0.83605 0.0
O306 O 0.09567 0.18095 0.8456 0.0
O307 O 0.08794 0.18334 0.83734 0.0
H308 H 0.10178 0.17482 0.82892 0.0
H309 H 0.10645 0.16485 0.82217 0.0
H310 H 0.12268 0.1783 0.81366 0.0
H311 H 0.11804 0.18818 0.82048 0.0
H312 H 0.10965 0.22145 0.83982 0.0
H313 H 0.10595 0.20913 0.83803 0.0
H314 H 0.09199 0.22457 0.85379 0.0
H315 H 0.08846 0.21239 0.85207 0.0
H316 H 0.07377 0.18269 0.86097 0.0
H317 H 0.07433 0.16245 0.8506 0.0
H318 H 0.0835 0.16671 0.84277 0.0
H319 H 0.08317 0.18689 0.8531 0.0
C320 C 0.43188 0.07626 0.14848 0.0
C321 C 0.43113 0.08302 0.15134 0.0
C322 C 0.43954 0.08766 0.1428 0.0
C323 C 0.43495 0.08867 0.14854 0.0
C324 C 0.44024 0.08084 0.13999 0.0
C325 C 0.43647 0.07521 0.14282 0.0
U326 U 0.41849 0.06804 0.16109 0.0
O327 O 0.41029 0.06015 0.15909 0.0
O328 O 0.41877 0.05784 0.16661 0.0
C329 C 0.41315 0.05549 0.16333 0.0
C330 C 0.42789 0.07022 0.15122 0.0
C331 C 0.41335 0.04816 0.16082 0.0
C332 C 0.41439 0.03939 0.15155 0.0
C333 C 0.41501 0.04638 0.15385 0.0
C334 C 0.41063 0.0359 0.16321 0.0
C335 C 0.41206 0.03407 0.15618 0.0
C336 C 0.41129 0.04285 0.16549 0.0
C337 C 0.40975 0.08074 0.17458 0.0
C338 C 0.39929 0.07913 0.18176 0.0
C339 C 0.40667 0.08939 0.18344 0.0
C340 C 0.41116 0.08702 0.17816 0.0
C341 C 0.40066 0.0855 0.1853 0.0
C342 C 0.40381 0.07676 0.17643 0.0
C343 C 0.41444 0.07878 0.16876 0.0
O344 O 0.42952 0.06819 0.15762 0.0
O345 O 0.42108 0.07037 0.15006 0.0
O346 O 0.41142 0.07703 0.1628 0.0
O347 O 0.41987 0.07483 0.17037 0.0
H348 H 0.42762 0.08392 0.15573 0.0
H349 H 0.43434 0.09381 0.15092 0.0
H350 H 0.4436 0.07986 0.13551 0.0
H351 H 0.43708 0.07003 0.14053 0.0
H352 H 0.41565 0.03818 0.14613 0.0
H353 H 0.41664 0.05041 0.15016 0.0
H354 H 0.40871 0.03202 0.16691 0.0
H355 H 0.40994 0.04412 0.17088 0.0
H356 H 0.39474 0.07598 0.18311 0.0
H357 H 0.40782 0.09438 0.18592 0.0
H358 H 0.41569 0.09018 0.17676 0.0
H359 H 0.40264 0.07189 0.17372 0.0
C360 C 0.18203 0.18276 0.39914 0.0
C361 C 0.1751 0.18115 0.40111 0.0
C362 C 0.17065 0.19042 0.3934 0.0
C363 C 0.16946 0.18495 0.39828 0.0
C364 C 0.17763 0.19202 0.39153 0.0
C365 C 0.18325 0.18824 0.39439 0.0
U366 U 0.18997 0.16901 0.41147 0.0
O367 O 0.19769 0.16068 0.40932 0.0
O368 O 0.20011 0.1689 0.4171 0.0
C369 C 0.20234 0.16328 0.41373 0.0
C370 C 0.18804 0.17869 0.40183 0.0
C371 C 0.20974 0.16322 0.41145 0.0
C372 C 0.2189 0.16441 0.40258 0.0
C373 C 0.21188 0.16536 0.40471 0.0
C374 C 0.22166 0.15943 0.41398 0.0
C375 C 0.22383 0.16127 0.40716 0.0
C376 C 0.21471 0.16039 0.41609 0.0
C377 C 0.17673 0.16013 0.4244 0.0
C378 C 0.17858 0.15039 0.43249 0.0
C379 C 0.16704 0.15571 0.43138 0.0
C380 C 0.16968 0.16043 0.42645 0.0
C381 C 0.17142 0.15056 0.43438 0.0
C382 C 0.18122 0.15514 0.42748 0.0
C383 C 0.17902 0.16498 0.41884 0.0
O384 O 0.19002 0.18015 0.40829 0.0
O385 O 0.18789 0.17191 0.40048 0.0
O386 O 0.18078 0.16213 0.4128 0.0
O387 O 0.18314 0.1702 0.42074 0.0
H388 H 0.17406 0.17694 0.40481 0.0
H389 H 0.16418 0.18363 0.39995 0.0
H390 H 0.17878 0.19609 0.38772 0.0
H391 H 0.18856 0.18954 0.3928 0.0
H392 H 0.22039 0.16586 0.39728 0.0
H393 H 0.20811 0.16755 0.40105 0.0
H394 H 0.22533 0.15714 0.41769 0.0
H395 H 0.21316 0.15873 0.42132 0.0
H396 H 0.18206 0.14646 0.43471 0.0
H397 H 0.16154 0.15605 0.43282 0.0
H398 H 0.16615 0.16427 0.42414 0.0
H399 H 0.1867 0.15485 0.42594 0.0
C400 C 0.0753 0.9319 0.64869 0.0
C401 C 0.07566 0.92528 0.65195 0.0
C402 C 0.06764 0.92042 0.64319 0.0
C403 C 0.07184 0.91959 0.64924 0.0
C404 C 0.06731 0.92707 0.63996 0.0
C405 C 0.0711 0.93274 0.64269 0.0
U406 U 0.08882 0.94015 0.66112 0.0
O407 O 0.09706 0.94796 0.65901 0.0
O408 O 0.08871 0.95035 0.66665 0.0
C409 C 0.09436 0.9526 0.66337 0.0
C410 C 0.07929 0.93797 0.65136 0.0
C411 C 0.09445 0.96002 0.66113 0.0
C412 C 0.09348 0.96924 0.65228 0.0
C413 C 0.09247 0.96221 0.65435 0.0
C414 C 0.09822 0.97193 0.6638 0.0
C415 C 0.09654 0.97414 0.65695 0.0
C416 C 0.09719 0.96496 0.66585 0.0
C417 C 0.09765 0.92715 0.67436 0.0
C418 C 0.10777 0.92883 0.68201 0.0
C419 C 0.10157 0.91769 0.68195 0.0
C420 C 0.09689 0.92031 0.67697 0.0
C421 C 0.10714 0.92186 0.68443 0.0
C422 C 0.10306 0.93146 0.67695 0.0
C423 C 0.09288 0.92933 0.66869 0.0
O424 O 0.07774 0.94002 0.65778 0.0
O425 O 0.08608 0.93785 0.65012 0.0
O426 O 0.09582 0.93108 0.66268 0.0
O427 O 0.08756 0.93338 0.67045 0.0
H428 H 0.07891 0.92452 0.65658 0.0
H429 H 0.07226 0.91452 0.6518 0.0
H430 H 0.06406 0.92791 0.63536 0.0
H431 H 0.07075 0.93781 0.64011 0.0
H432 H 0.09215 0.97077 0.64696 0.0
H433 H 0.09034 0.95847 0.65062 0.0
H434 H 0.10044 0.97557 0.66758 0.0
H435 H 0.09874 0.96338 0.6711 0.0
H436 H 0.11203 0.93215 0.68383 0.0
H437 H 0.10089 0.91235 0.6838 0.0
H438 H 0.09273 0.91693 0.67504 0.0
H439 H 0.10372 0.93676 0.67497 0.0
C440 C 0.32544 0.82579 0.89894 0.0
C441 C 0.33225 0.82672 0.90164 0.0
C442 C 0.33679 0.81797 0.89341 0.0
C443 C 0.33788 0.82283 0.8989 0.0
C444 C 0.32994 0.81707 0.89076 0.0
C445 C 0.32433 0.82093 0.89351 0.0
U446 U 0.31729 0.8393 0.91148 0.0
O447 O 0.30951 0.84759 0.9094 0.0
O448 O 0.30705 0.83915 0.91692 0.0
C449 C 0.30485 0.84486 0.91371 0.0
C450 C 0.31943 0.82985 0.90164 0.0
C451 C 0.29746 0.845 0.9114 0.0
C452 C 0.28817 0.84297 0.90283 0.0
C453 C 0.29519 0.8421 0.90499 0.0
C454 C 0.2857 0.84947 0.91351 0.0
C455 C 0.28339 0.8468 0.90701 0.0
C456 C 0.29265 0.84857 0.91566 0.0
C457 C 0.32974 0.84814 0.92511 0.0
C458 C 0.33017 0.85979 0.9304 0.0
C459 C 0.33707 0.85029 0.93533 0.0
C460 C 0.33441 0.84571 0.93026 0.0
C461 C 0.33513 0.85742 0.93536 0.0
C462 C 0.3275 0.85519 0.92529 0.0
C463 C 0.32793 0.84334 0.91928 0.0
O464 O 0.31735 0.82824 0.90803 0.0
O465 O 0.31965 0.83666 0.90047 0.0
O466 O 0.32635 0.84624 0.9132 0.0
O467 O 0.32397 0.8379 0.92086 0.0
H468 H 0.33321 0.83047 0.90582 0.0
H469 H 0.3431 0.82371 0.901 0.0
H470 H 0.32891 0.8133 0.88661 0.0
H471 H 0.3191 0.82014 0.89139 0.0
H472 H 0.28654 0.84087 0.89778 0.0
H473 H 0.29885 0.83933 0.90162 0.0
H474 H 0.28214 0.85233 0.91691 0.0
H475 H 0.29431 0.85083 0.92063 0.0
H476 H 0.3286 0.86527 0.93027 0.0
H477 H 0.34079 0.84827 0.93915 0.0
H478 H 0.3362 0.84029 0.93022 0.0
H479 H 0.32389 0.85719 0.92136 0.0
C480 C 0.43214 0.93251 0.36004 0.0
C481 C 0.4322 0.92579 0.35694 0.0
C482 C 0.43986 0.92149 0.3663 0.0
C483 C 0.43606 0.92032 0.36005 0.0
C484 C 0.4398 0.92824 0.36932 0.0
C485 C 0.43598 0.93368 0.36621 0.0
U486 U 0.41862 0.9401 0.3471 0.0
O487 O 0.4101 0.94769 0.34895 0.0
O488 O 0.41862 0.95028 0.34157 0.0
C489 C 0.41281 0.95239 0.34467 0.0
C490 C 0.42804 0.93835 0.35705 0.0
C491 C 0.41242 0.95977 0.34697 0.0
C492 C 0.41613 0.96976 0.3541 0.0
C493 C 0.41706 0.96275 0.3519 0.0
C494 C 0.40607 0.97082 0.34635 0.0
C495 C 0.41052 0.97382 0.35143 0.0
C496 C 0.40701 0.96389 0.34417 0.0
C497 C 0.41002 0.92681 0.33407 0.0
C498 C 0.40132 0.92898 0.32494 0.0
C499 C 0.40544 0.91712 0.32717 0.0
C500 C 0.4098 0.91963 0.33249 0.0
C501 C 0.40119 0.92175 0.32328 0.0
C502 C 0.40573 0.9315 0.3303 0.0
C503 C 0.41478 0.92908 0.33971 0.0
O504 O 0.42966 0.94022 0.35059 0.0
O505 O 0.42123 0.93811 0.3582 0.0
O506 O 0.41182 0.93085 0.3457 0.0
O507 O 0.42002 0.93321 0.3379 0.0
H508 H 0.42924 0.92478 0.35218 0.0
H509 H 0.43597 0.91516 0.35763 0.0
H510 H 0.44274 0.92933 0.37407 0.0
H511 H 0.436 0.93883 0.36865 0.0
H512 H 0.41963 0.97192 0.35804 0.0
H513 H 0.42128 0.95964 0.35412 0.0
H514 H 0.4018 0.97382 0.34407 0.0
H515 H 0.40341 0.9617 0.34033 0.0
H516 H 0.39811 0.93267 0.32202 0.0
H517 H 0.40536 0.91151 0.32615 0.0
H518 H 0.41304 0.91593 0.33539 0.0
H519 H 0.40582 0.93707 0.33148 0.0
C520 C 0.32579 0.18205 0.60967 0.0
C521 C 0.33223 0.18253 0.60609 0.0
C522 C 0.33693 0.19001 0.6154 0.0
C523 C 0.33776 0.18651 0.60893 0.0
C524 C 0.33045 0.1895 0.61893 0.0
C525 C 0.32494 0.18558 0.61608 0.0
U526 U 0.31791 0.16843 0.59704 0.0
O527 O 0.31015 0.16009 0.59901 0.0
O528 O 0.30774 0.16852 0.59148 0.0
C529 C 0.30551 0.16281 0.59468 0.0
C530 C 0.31986 0.17792 0.60688 0.0
C531 C 0.29813 0.16273 0.597 0.0
C532 C 0.28859 0.16626 0.60477 0.0
C533 C 0.29564 0.16682 0.60262 0.0
C534 C 0.28653 0.15758 0.59567 0.0
C535 C 0.28394 0.16159 0.60133 0.0
C536 C 0.29351 0.15817 0.59354 0.0
C537 C 0.33075 0.15983 0.58362 0.0
C538 C 0.3295 0.14918 0.5766 0.0
C539 C 0.33908 0.15727 0.57432 0.0
C540 C 0.33673 0.16161 0.57972 0.0
C541 C 0.33551 0.15101 0.57269 0.0
C542 C 0.3271 0.1536 0.58202 0.0
C543 C 0.32874 0.16449 0.58945 0.0
O544 O 0.31784 0.17948 0.60045 0.0
O545 O 0.32012 0.17112 0.60808 0.0
O546 O 0.32699 0.16147 0.59542 0.0
O547 O 0.32475 0.1699 0.58782 0.0
H548 H 0.33299 0.17982 0.60114 0.0
H549 H 0.34271 0.18675 0.60612 0.0
H550 H 0.32962 0.1922 0.62388 0.0
H551 H 0.32 0.18528 0.6189 0.0
H552 H 0.28678 0.16948 0.6091 0.0
H553 H 0.29914 0.17038 0.60537 0.0
H554 H 0.28321 0.15381 0.59299 0.0
H555 H 0.29536 0.15494 0.58922 0.0
H556 H 0.32664 0.14439 0.57544 0.0
H557 H 0.34379 0.15875 0.57148 0.0
H558 H 0.33964 0.16637 0.58092 0.0
H559 H 0.32246 0.15213 0.58499 0.0
C560 C 0.0757 0.07596 0.85883 0.0
C561 C 0.07668 0.08275 0.85609 0.0
C562 C 0.06825 0.08749 0.86456 0.0
C563 C 0.07297 0.08846 0.85892 0.0
C564 C 0.06729 0.08064 0.86722 0.0
C565 C 0.07096 0.07495 0.86437 0.0
U566 U 0.08918 0.06771 0.84637 0.0
O567 O 0.09738 0.05985 0.84847 0.0
O568 O 0.08902 0.05752 0.84082 0.0
C569 C 0.09465 0.05523 0.84412 0.0
C570 C 0.07965 0.06988 0.85612 0.0
C571 C 0.09464 0.04782 0.84641 0.0
C572 C 0.0937 0.03871 0.85536 0.0
C573 C 0.09277 0.04573 0.85325 0.0
C574 C 0.09811 0.03582 0.84377 0.0
C575 C 0.09655 0.03371 0.85068 0.0
C576 C 0.09717 0.04279 0.84167 0.0
C577 C 0.09815 0.0806 0.83317 0.0
C578 C 0.1085 0.07888 0.82585 0.0
C579 C 0.10207 0.08988 0.82537 0.0
C580 C 0.0973 0.08732 0.8303 0.0
C581 C 0.10779 0.08575 0.82319 0.0
C582 C 0.10371 0.07632 0.83086 0.0
C583 C 0.09333 0.0785 0.83883 0.0
O584 O 0.07809 0.06789 0.84969 0.0
O585 O 0.08645 0.06996 0.85738 0.0
O586 O 0.09622 0.07674 0.84485 0.0
O587 O 0.08798 0.0745 0.83705 0.0
H588 H 0.08032 0.08363 0.8518 0.0
H589 H 0.07377 0.09362 0.85664 0.0
H590 H 0.06383 0.07967 0.87163 0.0
H591 H 0.07016 0.06975 0.86656 0.0
H592 H 0.09246 0.03726 0.86073 0.0
H593 H 0.09081 0.04956 0.857 0.0
H594 H 0.10017 0.0321 0.83998 0.0
H595 H 0.09863 0.0443 0.83637 0.0
H596 H 0.11289 0.0756 0.82426 0.0
H597 H 0.10133 0.09515 0.82333 0.0
H598 H 0.09302 0.09067 0.83201 0.0
H599 H 0.10444 0.0711 0.83304 0.0
C600 C 0.18174 0.8258 0.10974 0.0
C601 C 0.17505 0.82631 0.10665 0.0
C602 C 0.1703 0.8182 0.1154 0.0
C603 C 0.16937 0.82253 0.10945 0.0
C604 C 0.17704 0.81769 0.11841 0.0
C605 C 0.18269 0.82146 0.11561 0.0
U606 U 0.19002 0.83915 0.09711 0.0
O607 O 0.19784 0.84744 0.09908 0.0
O608 O 0.20024 0.83891 0.09164 0.0
C609 C 0.20246 0.84467 0.09476 0.0
C610 C 0.18781 0.82978 0.10701 0.0
C611 C 0.20989 0.84494 0.09694 0.0
C612 C 0.21953 0.84242 0.10499 0.0
C613 C 0.21248 0.84148 0.10294 0.0
C614 C 0.22138 0.85012 0.095 0.0
C615 C 0.22401 0.84688 0.1011 0.0
C616 C 0.21442 0.84915 0.09295 0.0
C617 C 0.17719 0.84779 0.0836 0.0
C618 C 0.1776 0.85887 0.07718 0.0
C619 C 0.16861 0.85025 0.07451 0.0
C620 C 0.17138 0.84575 0.07958 0.0
C621 C 0.17156 0.85693 0.07337 0.0
C622 C 0.1804 0.85433 0.0823 0.0
C623 C 0.17928 0.84315 0.08942 0.0
O624 O 0.18988 0.82813 0.10063 0.0
O625 O 0.18767 0.8366 0.10815 0.0
O626 O 0.18101 0.84618 0.09539 0.0
O627 O 0.18325 0.83773 0.08781 0.0
H628 H 0.17422 0.82966 0.10211 0.0
H629 H 0.16424 0.8231 0.10704 0.0
H630 H 0.17797 0.81433 0.12291 0.0
H631 H 0.18782 0.82099 0.11805 0.0
H632 H 0.2214 0.83987 0.10973 0.0
H633 H 0.20904 0.83821 0.10608 0.0
H634 H 0.22471 0.85347 0.09182 0.0
H635 H 0.21251 0.85183 0.08829 0.0
H636 H 0.17999 0.86399 0.07641 0.0
H637 H 0.16406 0.84852 0.07155 0.0
H638 H 0.16885 0.84072 0.08049 0.0
H639 H 0.1849 0.85599 0.08536 0.0
C640 C 0.14819 0.43207 0.07605 0.0
C641 C 0.15147 0.43179 0.08267 0.0
C642 C 0.14266 0.4398 0.08745 0.0
C643 C 0.14873 0.43564 0.08832 0.0
C644 C 0.13941 0.44003 0.08081 0.0
C645 C 0.14217 0.43621 0.07517 0.0
U646 U 0.16082 0.41861 0.06812 0.0
O647 O 0.15895 0.41028 0.06033 0.0
O648 O 0.16652 0.41872 0.05802 0.0
C649 C 0.16335 0.413 0.05575 0.0
C650 C 0.15093 0.42806 0.07003 0.0
C651 C 0.16118 0.41287 0.04832 0.0
C652 C 0.15274 0.41482 0.03889 0.0
C653 C 0.15478 0.41569 0.04595 0.0
C654 C 0.16355 0.40849 0.03658 0.0
C655 C 0.15706 0.41107 0.03418 0.0
C656 C 0.16558 0.40939 0.04356 0.0
C657 C 0.17404 0.41002 0.08115 0.0
C658 C 0.18203 0.40025 0.07912 0.0
C659 C 0.18218 0.40643 0.09027 0.0
C660 C 0.17685 0.41085 0.0879 0.0
C661 C 0.18486 0.40108 0.08593 0.0
C662 C 0.17665 0.40471 0.07674 0.0
C663 C 0.16828 0.41471 0.07906 0.0
O664 O 0.15735 0.42965 0.06803 0.0
O665 O 0.14974 0.42125 0.07021 0.0
O666 O 0.16233 0.41169 0.07725 0.0
O667 O 0.16997 0.42008 0.07505 0.0
H668 H 0.15612 0.42859 0.08345 0.0
H669 H 0.15131 0.43529 0.09339 0.0
H670 H 0.13479 0.44324 0.07995 0.0
H671 H 0.13958 0.43649 0.0701 0.0
H672 H 0.14769 0.41685 0.0372 0.0
H673 H 0.15131 0.4184 0.04957 0.0
H674 H 0.16705 0.40569 0.03306 0.0
H675 H 0.17055 0.40719 0.0453 0.0
H676 H 0.18401 0.3962 0.07564 0.0
H677 H 0.18411 0.40713 0.09558 0.0
H678 H 0.17485 0.4149 0.09138 0.0
H679 H 0.17452 0.404 0.0715 0.0
C680 C 0.64857 0.07565 0.93153 0.0
C681 C 0.65177 0.07588 0.92487 0.0
C682 C 0.64272 0.06809 0.92016 0.0
C683 C 0.64887 0.07211 0.91923 0.0
C684 C 0.63959 0.06787 0.92686 0.0
C685 C 0.64249 0.07161 0.93247 0.0
U686 U 0.66122 0.08908 0.93971 0.0
O687 O 0.65918 0.09727 0.9476 0.0
O688 O 0.6668 0.08887 0.94988 0.0
C689 C 0.66353 0.0945 0.95221 0.0
C690 C 0.65139 0.07962 0.93756 0.0
C691 C 0.66126 0.09448 0.95962 0.0
C692 C 0.65233 0.09347 0.96875 0.0
C693 C 0.65442 0.09261 0.96171 0.0
C694 C 0.66393 0.09787 0.97164 0.0
C695 C 0.65703 0.09627 0.97376 0.0
C696 C 0.66601 0.09698 0.96466 0.0
C697 C 0.67441 0.09799 0.92674 0.0
C698 C 0.68206 0.10809 0.92851 0.0
C699 C 0.68196 0.10202 0.9173 0.0
C700 C 0.677 0.0973 0.91989 0.0
C701 C 0.68446 0.10754 0.92153 0.0
C702 C 0.67702 0.10335 0.9311 0.0
C703 C 0.66874 0.09321 0.92889 0.0
O704 O 0.65783 0.07801 0.93951 0.0
O705 O 0.65018 0.08642 0.93748 0.0
O706 O 0.66275 0.09614 0.93069 0.0
O707 O 0.6705 0.08785 0.93288 0.0
H708 H 0.65646 0.079 0.92404 0.0
H709 H 0.65137 0.07245 0.91412 0.0
H710 H 0.63492 0.06474 0.92779 0.0
H711 H 0.63997 0.07136 0.93758 0.0
H712 H 0.64697 0.09221 0.97021 0.0
H713 H 0.65066 0.09067 0.95789 0.0
H714 H 0.66772 0.09991 0.97537 0.0
H715 H 0.6713 0.09844 0.96315 0.0
H716 H 0.6839 0.11231 0.93187 0.0
H717 H 0.68379 0.1014 0.91194 0.0
H718 H 0.67505 0.09318 0.91646 0.0
H719 H 0.67506 0.10395 0.93642 0.0
C720 C 0.18209 0.3985 0.18178 0.0
C721 C 0.18212 0.40199 0.17527 0.0
C722 C 0.1897 0.39288 0.17031 0.0
C723 C 0.18591 0.39922 0.16959 0.0
C724 C 0.18961 0.38943 0.17687 0.0
C725 C 0.18586 0.39223 0.18253 0.0
U726 U 0.16848 0.41091 0.18995 0.0
O727 O 0.16036 0.40882 0.1979 0.0
O728 O 0.16864 0.4166 0.20007 0.0
C729 C 0.16307 0.41327 0.20244 0.0
C730 C 0.17811 0.40124 0.18784 0.0
C731 C 0.1631 0.41111 0.20989 0.0
C732 C 0.16426 0.40236 0.21918 0.0
C733 C 0.16517 0.40437 0.21212 0.0
C734 C 0.15947 0.41387 0.22181 0.0
C735 C 0.16122 0.40705 0.22407 0.0
C736 C 0.16039 0.41586 0.21482 0.0
C737 C 0.15941 0.42387 0.17687 0.0
C738 C 0.15047 0.43275 0.17913 0.0
C739 C 0.155 0.43109 0.16733 0.0
C740 C 0.15938 0.42575 0.16976 0.0
C741 C 0.15053 0.4347 0.17198 0.0
C742 C 0.15491 0.42737 0.18158 0.0
C743 C 0.16422 0.41825 0.17906 0.0
O744 O 0.1796 0.40771 0.18978 0.0
O745 O 0.17133 0.3999 0.18781 0.0
O746 O 0.16134 0.41226 0.18095 0.0
O747 O 0.16957 0.4201 0.18301 0.0
H748 H 0.17922 0.40685 0.17459 0.0
H749 H 0.18592 0.40207 0.16466 0.0
H750 H 0.19233 0.38448 0.17761 0.0
H751 H 0.18586 0.38945 0.18751 0.0
H752 H 0.16565 0.39706 0.22074 0.0
H753 H 0.16728 0.40062 0.20839 0.0
H754 H 0.15725 0.41766 0.22545 0.0
H755 H 0.15878 0.42109 0.2132 0.0
H756 H 0.1471 0.43546 0.18284 0.0
H757 H 0.15507 0.43234 0.16177 0.0
H758 H 0.16279 0.42307 0.16605 0.0
H759 H 0.15487 0.42597 0.1871 0.0
C760 C 0.85919 0.93265 0.4325 0.0
C761 C 0.85645 0.93177 0.42569 0.0
C762 C 0.86472 0.94048 0.42117 0.0
C763 C 0.85919 0.93567 0.42007 0.0
C764 C 0.86741 0.94133 0.42801 0.0
C765 C 0.86466 0.93745 0.43361 0.0
U766 U 0.84672 0.91897 0.4403 0.0
O767 O 0.84871 0.91059 0.448 0.0
O768 O 0.841 0.91888 0.45038 0.0
C769 C 0.84429 0.91323 0.45262 0.0
C770 C 0.85648 0.92856 0.43848 0.0
C771 C 0.84654 0.91317 0.46003 0.0
C772 C 0.85543 0.91412 0.46918 0.0
C773 C 0.85337 0.91502 0.46214 0.0
C774 C 0.84381 0.90974 0.47201 0.0
C775 C 0.85071 0.91132 0.47416 0.0
C776 C 0.84177 0.91065 0.46503 0.0
C777 C 0.83369 0.9102 0.42722 0.0
C778 C 0.82651 0.89974 0.42888 0.0
C779 C 0.82584 0.90632 0.41798 0.0
C780 C 0.83074 0.91111 0.42055 0.0
C781 C 0.82377 0.90051 0.42205 0.0
C782 C 0.83149 0.90455 0.43145 0.0
C783 C 0.83932 0.91503 0.42934 0.0
O784 O 0.85002 0.93006 0.44045 0.0
O785 O 0.85775 0.92177 0.43827 0.0
O786 O 0.84534 0.91214 0.43109 0.0
O787 O 0.8375 0.92032 0.43341 0.0
H788 H 0.85223 0.92806 0.42473 0.0
H789 H 0.85705 0.93485 0.41486 0.0
H790 H 0.8716 0.94505 0.42904 0.0
H791 H 0.86682 0.93819 0.43884 0.0
H792 H 0.86079 0.91537 0.47066 0.0
H793 H 0.85714 0.91697 0.45834 0.0
H794 H 0.84001 0.9077 0.47573 0.0
H795 H 0.83647 0.90921 0.46349 0.0
H796 H 0.82501 0.89529 0.43211 0.0
H797 H 0.82374 0.9071 0.41274 0.0
H798 H 0.83237 0.91545 0.41723 0.0
H799 H 0.83373 0.90378 0.43664 0.0
C800 C 0.82601 0.1099 0.18207 0.0
C801 C 0.82656 0.107 0.1753 0.0
C802 C 0.81815 0.11562 0.17081 0.0
C803 C 0.82265 0.10982 0.16973 0.0
C804 C 0.81763 0.11846 0.17763 0.0
C805 C 0.82151 0.11561 0.18319 0.0
U806 U 0.83952 0.09722 0.18999 0.0
O807 O 0.84792 0.09913 0.19772 0.0
O808 O 0.83942 0.09169 0.20018 0.0
C809 C 0.84519 0.09481 0.20237 0.0
C810 C 0.83012 0.10714 0.18802 0.0
C811 C 0.84541 0.09708 0.20977 0.0
C812 C 0.84167 0.1044 0.21959 0.0
C813 C 0.84106 0.10239 0.21249 0.0
C814 C 0.85093 0.0958 0.2212 0.0
C815 C 0.84664 0.10112 0.22403 0.0
C816 C 0.8503 0.0938 0.21418 0.0
C817 C 0.84794 0.0837 0.1771 0.0
C818 C 0.85834 0.07635 0.17851 0.0
C819 C 0.85057 0.07462 0.16855 0.0
C820 C 0.84628 0.08006 0.17093 0.0
C821 C 0.85664 0.0727 0.1723 0.0
C822 C 0.85398 0.08181 0.18093 0.0
C823 C 0.84334 0.08956 0.17915 0.0
O824 O 0.8285 0.10074 0.19008 0.0
O825 O 0.83693 0.10827 0.18775 0.0
O826 O 0.84642 0.0955 0.18088 0.0
O827 O 0.83795 0.08798 0.18318 0.0
H828 H 0.83001 0.10256 0.17434 0.0
H829 H 0.82312 0.10741 0.16459 0.0
H830 H 0.81435 0.12299 0.17868 0.0
H831 H 0.82103 0.11793 0.18838 0.0
H832 H 0.83823 0.10847 0.22158 0.0
H833 H 0.83724 0.10498 0.20915 0.0
H834 H 0.85493 0.09326 0.22437 0.0
H835 H 0.85372 0.08972 0.21216 0.0
H836 H 0.86298 0.07496 0.1815 0.0
H837 H 0.84919 0.07197 0.1637 0.0
H838 H 0.84167 0.08148 0.16789 0.0
H839 H 0.85535 0.08458 0.18572 0.0
C840 C 0.35949 0.57596 0.57605 0.0
C841 C 0.35548 0.57454 0.58209 0.0
C842 C 0.36536 0.56819 0.58729 0.0
C843 C 0.35838 0.57067 0.58765 0.0
C844 C 0.36934 0.56968 0.58123 0.0
C845 C 0.36642 0.57351 0.57568 0.0
U846 U 0.34666 0.58929 0.56794 0.0
O847 O 0.34861 0.59759 0.56014 0.0
O848 O 0.34119 0.58905 0.55771 0.0
C849 C 0.34431 0.59481 0.55549 0.0
C850 C 0.35662 0.57996 0.57007 0.0
C851 C 0.34657 0.59503 0.54809 0.0
C852 C 0.35503 0.59304 0.53868 0.0
C853 C 0.35289 0.59204 0.54569 0.0
C854 C 0.34447 0.59981 0.53645 0.0
C855 C 0.3509 0.59709 0.53403 0.0
C856 C 0.34235 0.5988 0.54338 0.0
C857 C 0.33309 0.5981 0.58042 0.0
C858 C 0.32681 0.60919 0.5793 0.0
C859 C 0.32353 0.60089 0.58839 0.0
C860 C 0.32874 0.59628 0.58606 0.0
C861 C 0.32253 0.60744 0.5851 0.0
C862 C 0.33206 0.60456 0.57698 0.0
C863 C 0.33892 0.59332 0.57863 0.0
O864 O 0.35022 0.57828 0.56804 0.0
O865 O 0.35773 0.58678 0.57022 0.0
O866 O 0.34495 0.59627 0.57697 0.0
O867 O 0.33735 0.58786 0.57469 0.0
H868 H 0.35011 0.57641 0.58249 0.0
H869 H 0.35513 0.56957 0.5922 0.0
H870 H 0.37476 0.56799 0.58081 0.0
H871 H 0.36961 0.57459 0.57108 0.0
H872 H 0.36002 0.59089 0.53698 0.0
H873 H 0.35622 0.5891 0.54926 0.0
H874 H 0.34109 0.60283 0.53299 0.0
H875 H 0.33744 0.60112 0.54513 0.0
H876 H 0.32613 0.61416 0.57659 0.0
H877 H 0.32046 0.59939 0.59295 0.0
H878 H 0.32949 0.59134 0.58881 0.0
H879 H 0.33537 0.60606 0.57259 0.0
C880 C 0.18171 0.61016 0.3256 0.0
C881 C 0.1815 0.60698 0.33227 0.0
C882 C 0.18971 0.61575 0.33679 0.0
C883 C 0.18549 0.60975 0.33781 0.0
C884 C 0.18988 0.61889 0.3301 0.0
C885 C 0.18592 0.61611 0.32456 0.0
U886 U 0.16818 0.59745 0.31772 0.0
O887 O 0.15983 0.59934 0.30994 0.0
O888 O 0.16831 0.59184 0.30757 0.0
C889 C 0.16257 0.59497 0.30533 0.0
C890 C 0.17759 0.60738 0.31965 0.0
C891 C 0.16238 0.59717 0.29791 0.0
C892 C 0.1648 0.60539 0.28839 0.0
C893 C 0.16563 0.60333 0.29545 0.0
C894 C 0.1576 0.5951 0.28625 0.0
C895 C 0.16065 0.60135 0.28375 0.0
C896 C 0.15846 0.59304 0.29324 0.0
C897 C 0.15972 0.58396 0.33061 0.0
C898 C 0.1491 0.5769 0.32948 0.0
C899 C 0.15733 0.57461 0.33894 0.0
C900 C 0.16161 0.58004 0.33655 0.0
C901 C 0.15103 0.57297 0.33546 0.0
C902 C 0.15345 0.58235 0.32704 0.0
C903 C 0.16432 0.58984 0.32857 0.0
O904 O 0.1792 0.60097 0.31762 0.0
O905 O 0.17078 0.60852 0.31993 0.0
O906 O 0.16124 0.59577 0.32681 0.0
O907 O 0.16974 0.58826 0.32459 0.0
H908 H 0.17825 0.60239 0.33317 0.0
H909 H 0.1852 0.60725 0.34293 0.0
H910 H 0.19314 0.62346 0.32912 0.0
H911 H 0.18616 0.61861 0.31944 0.0
H912 H 0.16719 0.61025 0.28662 0.0
H913 H 0.16868 0.60659 0.29899 0.0
H914 H 0.15449 0.5918 0.28281 0.0
H915 H 0.15593 0.58826 0.29504 0.0
H916 H 0.14427 0.57572 0.32669 0.0
H917 H 0.1589 0.57175 0.34362 0.0
H918 H 0.1664 0.58125 0.3394 0.0
H919 H 0.15189 0.58533 0.32244 0.0
C920 C 0.32556 0.39826 0.82636 0.0
C921 C 0.3257 0.40159 0.83295 0.0
C922 C 0.31792 0.39256 0.83778 0.0
C923 C 0.32189 0.39877 0.83861 0.0
C924 C 0.31783 0.38928 0.83114 0.0
C925 C 0.32159 0.39212 0.8255 0.0
U926 U 0.33896 0.41089 0.81819 0.0
O927 O 0.34717 0.40892 0.81029 0.0
O928 O 0.33872 0.4165 0.80803 0.0
C929 C 0.34439 0.41328 0.8057 0.0
C930 C 0.32954 0.40103 0.82032 0.0
C931 C 0.34443 0.41107 0.79827 0.0
C932 C 0.34349 0.40225 0.78903 0.0
C933 C 0.34252 0.40428 0.79607 0.0
C934 C 0.34803 0.41384 0.78634 0.0
C935 C 0.34643 0.40697 0.78412 0.0
C936 C 0.34705 0.41585 0.79332 0.0
C937 C 0.34771 0.42425 0.83104 0.0
C938 C 0.35777 0.43193 0.82915 0.0
C939 C 0.3511 0.43268 0.83999 0.0
C940 C 0.34665 0.42736 0.83762 0.0
C941 C 0.35672 0.43504 0.8358 0.0
C942 C 0.35328 0.42657 0.82677 0.0
C943 C 0.34302 0.41846 0.829 0.0
O944 O 0.32792 0.40745 0.81832 0.0
O945 O 0.33634 0.39984 0.82043 0.0
O946 O 0.34603 0.41251 0.82719 0.0
O947 O 0.3376 0.42012 0.82505 0.0
H948 H 0.32874 0.40635 0.83371 0.0
H949 H 0.32202 0.40151 0.8436 0.0
H950 H 0.31497 0.38444 0.8303 0.0
H951 H 0.32145 0.38947 0.82046 0.0
H952 H 0.34221 0.39691 0.7875 0.0
H953 H 0.34049 0.4005 0.79983 0.0
H954 H 0.35016 0.41766 0.78268 0.0
H955 H 0.34854 0.42112 0.79491 0.0
H956 H 0.36202 0.43367 0.82578 0.0
H957 H 0.35022 0.43482 0.84519 0.0
H958 H 0.34241 0.4256 0.84099 0.0
H959 H 0.35418 0.42421 0.82166 0.0
C960 C 0.93236 0.85748 0.57364 0.0
C961 C 0.92554 0.85487 0.57469 0.0
C962 C 0.92094 0.86319 0.56604 0.0
C963 C 0.91988 0.85769 0.57091 0.0
C964 C 0.92783 0.86567 0.56496 0.0
C965 C 0.93347 0.86283 0.56871 0.0
U966 U 0.94033 0.845 0.58723 0.0
O967 O 0.95075 0.83992 0.5875 0.0
O968 O 0.94757 0.84711 0.59599 0.0
C969 C 0.95252 0.84304 0.59341 0.0
C970 C 0.93835 0.85488 0.57779 0.0
C971 C 0.9598 0.84559 0.59413 0.0
C972 C 0.96999 0.85241 0.59042 0.0
C973 C 0.96307 0.85006 0.58923 0.0
C974 C 0.97037 0.84573 0.60126 0.0
C975 C 0.97367 0.85035 0.59653 0.0
C976 C 0.96353 0.84342 0.60009 0.0
C977 C 0.92756 0.83138 0.59555 0.0
C978 C 0.92924 0.8243 0.60607 0.0
C979 C 0.91874 0.82285 0.599 0.0
C980 C 0.92115 0.82799 0.59436 0.0
C981 C 0.92273 0.82095 0.60493 0.0
C982 C 0.93165 0.82949 0.6014 0.0
C983 C 0.92956 0.83711 0.59077 0.0
O984 O 0.93796 0.856 0.58459 0.0
O985 O 0.94059 0.84853 0.5762 0.0
O986 O 0.93388 0.8355 0.58562 0.0
O987 O 0.93096 0.8432 0.59373 0.0
H988 H 0.92459 0.85071 0.57847 0.0
H989 H 0.91468 0.85554 0.57179 0.0
H990 H 0.92887 0.86996 0.56136 0.0
H991 H 0.93871 0.86492 0.56786 0.0
H992 H 0.97238 0.85598 0.58668 0.0
H993 H 0.96027 0.85178 0.58458 0.0
H994 H 0.97308 0.8439 0.60593 0.0
H995 H 0.96111 0.83993 0.60389 0.0
H996 H 0.93247 0.82292 0.61055 0.0
H997 H 0.91364 0.82052 0.59802 0.0
H998 H 0.9179 0.82944 0.5899 0.0
H999 H 0.93663 0.83207 0.6024 0.0
C1000 C 0.90041 0.18263 0.3238 0.0
C1001 C 0.90407 0.17621 0.32364 0.0
C1002 C 0.89479 0.17098 0.31646 0.0
C1003 C 0.9013 0.17045 0.31998 0.0
C1004 C 0.89118 0.17745 0.31665 0.0
C1005 C 0.89398 0.1832 0.32027 0.0
U1006 U 0.91286 0.19072 0.3373 0.0
O1007 O 0.91825 0.20099 0.33745 0.0
O1008 O 0.91075 0.19824 0.34582 0.0
C1009 C 0.91504 0.203 0.34324 0.0
C1010 C 0.90308 0.18871 0.32777 0.0
C1011 C 0.91272 0.21037 0.34368 0.0
C1012 C 0.90468 0.22 0.34105 0.0
C1013 C 0.90694 0.21304 0.33992 0.0
C1014 C 0.91407 0.22164 0.34951 0.0
C1015 C 0.90815 0.22433 0.34599 0.0
C1016 C 0.9163 0.21476 0.34838 0.0
C1017 C 0.92588 0.17748 0.34604 0.0
C1018 C 0.93419 0.17942 0.35558 0.0
C1019 C 0.93238 0.16769 0.35094 0.0
C1020 C 0.92754 0.17032 0.34613 0.0
C1021 C 0.93568 0.17217 0.35579 0.0
C1022 C 0.92927 0.18207 0.35074 0.0
C1023 C 0.92036 0.17979 0.34117 0.0
O1024 O 0.90183 0.18856 0.33457 0.0
O1025 O 0.9095 0.19077 0.32622 0.0
O1026 O 0.92223 0.18402 0.33603 0.0
O1027 O 0.91428 0.18144 0.34402 0.0
H1028 H 0.90904 0.17566 0.32636 0.0
H1029 H 0.90428 0.1656 0.31988 0.0
H1030 H 0.88611 0.17804 0.31412 0.0
H1031 H 0.89106 0.1881 0.32038 0.0
H1032 H 0.90009 0.2219 0.33827 0.0
H1033 H 0.9041 0.20971 0.33627 0.0
H1034 H 0.91696 0.22485 0.35322 0.0
H1035 H 0.92079 0.2128 0.3513 0.0
H1036 H 0.93666 0.18299 0.35927 0.0
H1037 H 0.93351 0.1621 0.35089 0.0
H1038 H 0.92498 0.16672 0.34252 0.0
H1039 H 0.92803 0.18764 0.35074 0.0
C1040 C 0.57567 0.15 0.07413 0.0
C1041 C 0.58212 0.15359 0.07394 0.0
C1042 C 0.58719 0.14428 0.06668 0.0
C1043 C 0.58782 0.15077 0.07022 0.0
C1044 C 0.58069 0.14075 0.06691 0.0
C1045 C 0.575 0.14359 0.07058 0.0
U1046 U 0.56754 0.16269 0.08745 0.0
O1047 O 0.55727 0.16809 0.08738 0.0
O1048 O 0.55991 0.16073 0.09591 0.0
C1049 C 0.55518 0.16498 0.09319 0.0
C1050 C 0.56962 0.15274 0.07811 0.0
C1051 C 0.5478 0.16267 0.09357 0.0
C1052 C 0.53832 0.15434 0.09135 0.0
C1053 C 0.5453 0.15654 0.09027 0.0
C1054 C 0.53632 0.16445 0.09885 0.0
C1055 C 0.5338 0.15821 0.09578 0.0
C1056 C 0.54323 0.16663 0.09775 0.0
C1057 C 0.58031 0.17621 0.09596 0.0
C1058 C 0.57866 0.18337 0.10643 0.0
C1059 C 0.58908 0.18486 0.09924 0.0
C1060 C 0.58668 0.17966 0.09468 0.0
C1061 C 0.58513 0.18678 0.1052 0.0
C1062 C 0.57626 0.17811 0.10183 0.0
C1063 C 0.57833 0.17041 0.09125 0.0
O1064 O 0.56982 0.15163 0.08493 0.0
O1065 O 0.56752 0.15911 0.07644 0.0
O1066 O 0.57424 0.17202 0.08592 0.0
O1067 O 0.5767 0.16441 0.09427 0.0
H1068 H 0.58274 0.15856 0.07666 0.0
H1069 H 0.5927 0.1537 0.07009 0.0
H1070 H 0.58001 0.13569 0.06438 0.0
H1071 H 0.57007 0.14073 0.07071 0.0
H1072 H 0.53654 0.1495 0.08893 0.0
H1073 H 0.54878 0.1534 0.08702 0.0
H1074 H 0.53296 0.16762 0.10218 0.0
H1075 H 0.54505 0.17139 0.10031 0.0
H1076 H 0.57546 0.18475 0.11093 0.0
H1077 H 0.59414 0.18725 0.09819 0.0
H1078 H 0.58989 0.17821 0.0902 0.0
H1079 H 0.57132 0.17548 0.1029 0.0
C1080 C 0.60793 0.82531 0.82384 0.0
C1081 C 0.60437 0.83179 0.82369 0.0
C1082 C 0.61354 0.83673 0.8162 0.0
C1083 C 0.60715 0.83745 0.81987 0.0
C1084 C 0.61704 0.83022 0.81637 0.0
C1085 C 0.61425 0.82457 0.82015 0.0
U1086 U 0.59556 0.81752 0.83761 0.0
O1087 O 0.58993 0.80738 0.83782 0.0
O1088 O 0.59764 0.80993 0.84607 0.0
C1089 C 0.59321 0.80527 0.84353 0.0
C1090 C 0.60523 0.81931 0.82793 0.0
C1091 C 0.59543 0.79786 0.84383 0.0
C1092 C 0.60358 0.78829 0.84137 0.0
C1093 C 0.60144 0.7953 0.84037 0.0
C1094 C 0.59367 0.78639 0.84915 0.0
C1095 C 0.59979 0.78381 0.84591 0.0
C1096 C 0.59153 0.79333 0.84812 0.0
C1097 C 0.58274 0.83092 0.84636 0.0
C1098 C 0.57348 0.82886 0.85494 0.0
C1099 C 0.57615 0.84073 0.85113 0.0
C1100 C 0.58141 0.83815 0.84674 0.0
C1101 C 0.57207 0.83613 0.85523 0.0
C1102 C 0.57879 0.82626 0.85051 0.0
C1103 C 0.58828 0.82857 0.84153 0.0
O1104 O 0.60658 0.81951 0.8347 0.0
O1105 O 0.59876 0.81734 0.82649 0.0
O1106 O 0.58635 0.82441 0.83635 0.0
O1107 O 0.59431 0.8268 0.84439 0.0
H1108 H 0.5995 0.83247 0.82656 0.0
H1109 H 0.60437 0.84242 0.81991 0.0
H1110 H 0.62192 0.82946 0.81353 0.0
H1111 H 0.61706 0.81961 0.82021 0.0
H1112 H 0.60833 0.78645 0.83882 0.0
H1113 H 0.60452 0.79874 0.83704 0.0
H1114 H 0.59055 0.78306 0.85256 0.0
H1115 H 0.58687 0.7952 0.85081 0.0
H1116 H 0.57041 0.82519 0.85802 0.0
H1117 H 0.57532 0.84636 0.85133 0.0
H1118 H 0.58445 0.84182 0.84361 0.0
H1119 H 0.57977 0.82065 0.85028 0.0
C1120 C 0.93038 0.15062 0.93514 0.0
C1121 C 0.92373 0.15375 0.93457 0.0
C1122 C 0.91884 0.14477 0.94235 0.0
C1123 C 0.91799 0.15086 0.93819 0.0
C1124 C 0.92555 0.14171 0.94285 0.0
C1125 C 0.93125 0.14463 0.93931 0.0
U1126 U 0.94062 0.16219 0.92169 0.0
O1127 O 0.95148 0.16603 0.92308 0.0
O1128 O 0.949 0.15824 0.91466 0.0
C1129 C 0.95379 0.16194 0.91799 0.0
C1130 C 0.93656 0.15325 0.93138 0.0
C1131 C 0.96126 0.16177 0.91604 0.0
C1132 C 0.97331 0.15874 0.91903 0.0
C1133 C 0.96639 0.1602 0.92109 0.0
C1134 C 0.97012 0.16094 0.9069 0.0
C1135 C 0.97527 0.15897 0.91187 0.0
C1136 C 0.96318 0.1622 0.90895 0.0
C1137 C 0.92868 0.17547 0.91063 0.0
C1138 C 0.93 0.18615 0.9037 0.0
C1139 C 0.91866 0.18039 0.90446 0.0
C1140 C 0.92158 0.1752 0.90872 0.0
C1141 C 0.92279 0.18599 0.90199 0.0
C1142 C 0.93293 0.18093 0.90805 0.0
C1143 C 0.9311 0.17019 0.91574 0.0
O1144 O 0.93692 0.15166 0.92467 0.0
O1145 O 0.9386 0.1597 0.9328 0.0
O1146 O 0.93491 0.17226 0.92114 0.0
O1147 O 0.93266 0.16387 0.91342 0.0
H1148 H 0.92299 0.15839 0.93135 0.0
H1149 H 0.91292 0.15341 0.93774 0.0
H1150 H 0.92641 0.13694 0.94585 0.0
H1151 H 0.93635 0.14212 0.93976 0.0
H1152 H 0.97701 0.15714 0.92305 0.0
H1153 H 0.96497 0.15972 0.92659 0.0
H1154 H 0.97139 0.16142 0.90137 0.0
H1155 H 0.95927 0.16337 0.90497 0.0
H1156 H 0.93329 0.19042 0.90187 0.0
H1157 H 0.91312 0.18004 0.90315 0.0
H1158 H 0.91821 0.17103 0.91067 0.0
H1159 H 0.93843 0.18124 0.9095 0.0
C1160 C 0.60785 0.18243 0.68385 0.0
C1161 C 0.60377 0.17637 0.68492 0.0
C1162 C 0.61341 0.17089 0.69142 0.0
C1163 C 0.60651 0.17066 0.6887 0.0
C1164 C 0.61745 0.17699 0.69028 0.0
C1165 C 0.61469 0.18269 0.68655 0.0
U1166 U 0.5955 0.19056 0.67021 0.0
O1167 O 0.58992 0.20074 0.6702 0.0
O1168 O 0.59764 0.19833 0.66193 0.0
C1169 C 0.59328 0.20299 0.66459 0.0
C1170 C 0.60516 0.1885 0.67986 0.0
C1171 C 0.59568 0.21036 0.66464 0.0
C1172 C 0.60461 0.21936 0.66642 0.0
C1173 C 0.60232 0.21237 0.66718 0.0
C1174 C 0.59362 0.22235 0.66074 0.0
C1175 C 0.60033 0.22442 0.66308 0.0
C1176 C 0.59133 0.21542 0.66153 0.0
C1177 C 0.58262 0.17727 0.66125 0.0
C1178 C 0.5731 0.17934 0.65296 0.0
C1179 C 0.57625 0.16743 0.65626 0.0
C1180 C 0.58152 0.17003 0.66062 0.0
C1181 C 0.57192 0.17204 0.65243 0.0
C1182 C 0.57841 0.18195 0.65737 0.0
C1183 C 0.58816 0.17962 0.66609 0.0
O1184 O 0.60651 0.18843 0.67308 0.0
O1185 O 0.5987 0.1905 0.68133 0.0
O1186 O 0.58625 0.1837 0.67132 0.0
O1187 O 0.59419 0.18143 0.66323 0.0
H1188 H 0.59847 0.17605 0.68284 0.0
H1189 H 0.6032 0.16611 0.68954 0.0
H1190 H 0.62282 0.17732 0.69216 0.0
H1191 H 0.61794 0.1873 0.68573 0.0
H1192 H 0.60977 0.22076 0.66839 0.0
H1193 H 0.60576 0.20853 0.66961 0.0
H1194 H 0.5902 0.22601 0.65802 0.0
H1195 H 0.58621 0.21396 0.6595 0.0
H1196 H 0.56983 0.18301 0.65008 0.0
H1197 H 0.57559 0.16179 0.65586 0.0
H1198 H 0.58475 0.16635 0.66354 0.0
H1199 H 0.57921 0.18758 0.6578 0.0
C1200 C 0.57517 0.85861 0.4338 0.0
C1201 C 0.58164 0.85504 0.43391 0.0
C1202 C 0.58662 0.86417 0.44143 0.0
C1203 C 0.58732 0.85779 0.43772 0.0
C1204 C 0.58011 0.86768 0.44131 0.0
C1205 C 0.57445 0.86491 0.43753 0.0
U1206 U 0.56717 0.84595 0.42039 0.0
O1207 O 0.55693 0.84054 0.42036 0.0
O1208 O 0.55963 0.84786 0.41182 0.0
C1209 C 0.55489 0.8436 0.4145 0.0
C1210 C 0.56915 0.85592 0.42974 0.0
C1211 C 0.54751 0.84587 0.41401 0.0
C1212 C 0.53743 0.85288 0.41767 0.0
C1213 C 0.5445 0.85089 0.41853 0.0
C1214 C 0.53639 0.84485 0.40783 0.0
C1215 C 0.53328 0.84987 0.41229 0.0
C1216 C 0.54339 0.84288 0.4087 0.0
C1217 C 0.58002 0.83239 0.41209 0.0
C1218 C 0.57873 0.82541 0.40143 0.0
C1219 C 0.58848 0.82324 0.40937 0.0
C1220 C 0.58608 0.82858 0.41378 0.0
C1221 C 0.58486 0.82161 0.40314 0.0
C1222 C 0.5763 0.83076 0.40591 0.0
C1223 C 0.57801 0.83822 0.41673 0.0
O1224 O 0.56943 0.85702 0.42292 0.0
O1225 O 0.567 0.84955 0.43138 0.0
O1226 O 0.57388 0.83665 0.42205 0.0
O1227 O 0.5764 0.84421 0.41367 0.0
H1228 H 0.58231 0.85017 0.43102 0.0
H1229 H 0.59228 0.855 0.43766 0.0
H1230 H 0.57938 0.87255 0.44417 0.0
H1231 H 0.56949 0.86772 0.43751 0.0
H1232 H 0.53521 0.85673 0.42122 0.0
H1233 H 0.54762 0.85326 0.42267 0.0
H1234 H 0.53346 0.84253 0.40353 0.0
H1235 H 0.54563 0.83902 0.40515 0.0
H1236 H 0.57584 0.82424 0.39667 0.0
H1237 H 0.59327 0.82049 0.41077 0.0
H1238 H 0.58904 0.82981 0.4185 0.0
H1239 H 0.5716 0.83366 0.40451 0.0
C1240 C 0.9001 0.82557 0.18385 0.0
C1241 C 0.90388 0.83189 0.18451 0.0
C1242 C 0.89423 0.83704 0.19121 0.0
C1243 C 0.90097 0.83758 0.18819 0.0
C1244 C 0.89052 0.83068 0.19056 0.0
C1245 C 0.89344 0.825 0.18692 0.0
U1246 U 0.91247 0.81757 0.17013 0.0
O1247 O 0.91811 0.80743 0.17006 0.0
O1248 O 0.9103 0.8098 0.16187 0.0
C1249 C 0.91471 0.80516 0.16448 0.0
C1250 C 0.90289 0.81954 0.17987 0.0
C1251 C 0.91234 0.79779 0.16453 0.0
C1252 C 0.90359 0.78871 0.16675 0.0
C1253 C 0.90588 0.7957 0.16745 0.0
C1254 C 0.91423 0.78587 0.16035 0.0
C1255 C 0.9077 0.78372 0.16308 0.0
C1256 C 0.91652 0.79281 0.16109 0.0
C1257 C 0.92513 0.83086 0.16092 0.0
C1258 C 0.93503 0.82876 0.15309 0.0
C1259 C 0.93102 0.84066 0.15531 0.0
C1260 C 0.92577 0.83808 0.15971 0.0
C1261 C 0.93577 0.83606 0.15202 0.0
C1262 C 0.92974 0.82617 0.15755 0.0
C1263 C 0.91967 0.82855 0.16587 0.0
O1264 O 0.90147 0.81956 0.1731 0.0
O1265 O 0.9094 0.81767 0.18129 0.0
O1266 O 0.92169 0.8245 0.1711 0.0
O1267 O 0.9136 0.82672 0.16314 0.0
H1268 H 0.90902 0.83244 0.18213 0.0
H1269 H 0.90393 0.84243 0.18855 0.0
H1270 H 0.88536 0.83007 0.19289 0.0
H1271 H 0.89045 0.82017 0.18646 0.0
H1272 H 0.89859 0.78724 0.16902 0.0
H1273 H 0.90258 0.79948 0.17014 0.0
H1274 H 0.9175 0.78228 0.15738 0.0
H1275 H 0.92149 0.79434 0.15877 0.0
H1276 H 0.93863 0.8251 0.15062 0.0
H1277 H 0.93136 0.84629 0.15449 0.0
H1278 H 0.92223 0.84177 0.16224 0.0
H1279 H 0.9293 0.82055 0.15842 0.0
C1280 C 0.57396 0.93187 0.85774 0.0
C1281 C 0.57646 0.92497 0.85686 0.0
C1282 C 0.56644 0.92037 0.86344 0.0
C1283 C 0.57275 0.91928 0.85971 0.0
C1284 C 0.5639 0.9273 0.86415 0.0
C1285 C 0.56764 0.93297 0.86134 0.0
U1286 U 0.58741 0.9403 0.84537 0.0
O1287 O 0.58732 0.95063 0.84008 0.0
O1288 O 0.59576 0.94799 0.84754 0.0
C1289 C 0.59309 0.95272 0.84327 0.0
C1290 C 0.57794 0.93799 0.85514 0.0
C1291 C 0.59346 0.9601 0.84555 0.0
C1292 C 0.5914 0.96959 0.85391 0.0
C1293 C 0.59026 0.96261 0.85173 0.0
C1294 C 0.59871 0.97158 0.84367 0.0
C1295 C 0.59578 0.9741 0.84997 0.0
C1296 C 0.59757 0.96467 0.84151 0.0
C1297 C 0.59631 0.92797 0.83175 0.0
C1298 C 0.60738 0.92938 0.82551 0.0
C1299 C 0.59944 0.91993 0.82236 0.0
C1300 C 0.59472 0.92218 0.8275 0.0
C1301 C 0.60587 0.92344 0.82134 0.0
C1302 C 0.60263 0.93164 0.83068 0.0
C1303 C 0.59145 0.92969 0.83752 0.0
O1304 O 0.58475 0.93788 0.85635 0.0
O1305 O 0.57633 0.94016 0.84878 0.0
O1306 O 0.58607 0.93372 0.83592 0.0
O1307 O 0.59432 0.93122 0.84362 0.0
H1308 H 0.58134 0.924 0.85407 0.0
H1309 H 0.57493 0.91405 0.85912 0.0
H1310 H 0.55899 0.92835 0.86684 0.0
H1311 H 0.5656 0.93825 0.86204 0.0
H1312 H 0.58908 0.97136 0.8588 0.0
H1313 H 0.58707 0.95914 0.85492 0.0
H1314 H 0.60198 0.97493 0.84043 0.0
H1315 H 0.60005 0.96284 0.83672 0.0
H1316 H 0.61225 0.93225 0.82481 0.0
H1317 H 0.59814 0.91526 0.81936 0.0
H1318 H 0.58989 0.91927 0.82828 0.0
H1319 H 0.60395 0.93614 0.83392 0.0
C1320 C 0.82536 0.82403 0.60773 0.0
C1321 C 0.83176 0.82375 0.60405 0.0
C1322 C 0.83694 0.81667 0.61344 0.0
C1323 C 0.83749 0.82008 0.60687 0.0
C1324 C 0.83049 0.81698 0.61706 0.0
C1325 C 0.82477 0.82061 0.61422 0.0
U1326 U 0.81709 0.83714 0.59491 0.0
O1327 O 0.80665 0.83712 0.58987 0.0
O1328 O 0.80972 0.84583 0.59685 0.0
C1329 C 0.80481 0.8431 0.59283 0.0
C1330 C 0.81929 0.828 0.60502 0.0
C1331 C 0.79751 0.84382 0.59531 0.0
C1332 C 0.78751 0.8406 0.60265 0.0
C1333 C 0.79444 0.83936 0.60034 0.0
C1334 C 0.78673 0.85061 0.59481 0.0
C1335 C 0.78363 0.84634 0.59999 0.0
C1336 C 0.79357 0.84938 0.59253 0.0
C1337 C 0.82972 0.84538 0.58107 0.0
C1338 C 0.8291 0.85659 0.57491 0.0
C1339 C 0.83836 0.84828 0.57216 0.0
C1340 C 0.83562 0.84357 0.57706 0.0
C1341 C 0.83525 0.85491 0.57116 0.0
C1342 C 0.82636 0.85186 0.57987 0.0
C1343 C 0.82774 0.84069 0.58689 0.0
O1344 O 0.81957 0.83484 0.60597 0.0
O1345 O 0.81706 0.82621 0.59872 0.0
O1346 O 0.82351 0.83543 0.58539 0.0
O1347 O 0.82635 0.84373 0.59293 0.0
H1348 H 0.83231 0.82638 0.59903 0.0
H1349 H 0.84234 0.81987 0.60389 0.0
H1350 H 0.82989 0.81456 0.62217 0.0
H1351 H 0.81989 0.82082 0.61715 0.0
H1352 H 0.78529 0.83722 0.60666 0.0
H1353 H 0.79741 0.83502 0.60254 0.0
H1354 H 0.78386 0.85497 0.59251 0.0
H1355 H 0.79583 0.85284 0.58861 0.0
H1356 H 0.82661 0.86168 0.57426 0.0
H1357 H 0.84306 0.84681 0.56928 0.0
H1358 H 0.83828 0.8386 0.57791 0.0
H1359 H 0.82179 0.85335 0.58294 0.0
C1360 C 0.93362 0.07591 0.35747 0.0
C1361 C 0.93143 0.08284 0.35613 0.0
C1362 C 0.94123 0.08741 0.36307 0.0
C1363 C 0.93517 0.08853 0.35893 0.0
C1364 C 0.94346 0.08044 0.36424 0.0
C1365 C 0.93968 0.07477 0.36149 0.0
U1366 U 0.92003 0.06759 0.34519 0.0
O1367 O 0.92002 0.05729 0.33985 0.0
O1368 O 0.91165 0.05994 0.34739 0.0
C1369 C 0.91427 0.05521 0.34308 0.0
C1370 C 0.92959 0.06981 0.3549 0.0
C1371 C 0.91389 0.04782 0.34534 0.0
C1372 C 0.91608 0.03828 0.35359 0.0
C1373 C 0.91717 0.04527 0.35145 0.0
C1374 C 0.90857 0.03637 0.34347 0.0
C1375 C 0.91164 0.0338 0.34969 0.0
C1376 C 0.90969 0.04329 0.34134 0.0
C1377 C 0.91114 0.08003 0.33167 0.0
C1378 C 0.90017 0.07852 0.32528 0.0
C1379 C 0.90793 0.08822 0.32243 0.0
C1380 C 0.91264 0.08595 0.32757 0.0
C1381 C 0.90161 0.08457 0.32124 0.0
C1382 C 0.90491 0.07626 0.33046 0.0
C1383 C 0.91601 0.07826 0.33741 0.0
O1384 O 0.92279 0.06997 0.35616 0.0
O1385 O 0.93113 0.06765 0.34852 0.0
O1386 O 0.92136 0.0742 0.33576 0.0
O1387 O 0.91315 0.07671 0.34351 0.0
H1388 H 0.92676 0.08383 0.35302 0.0
H1389 H 0.93322 0.09379 0.35797 0.0
H1390 H 0.94817 0.07934 0.36725 0.0
H1391 H 0.94148 0.06946 0.36254 0.0
H1392 H 0.9185 0.03645 0.35842 0.0
H1393 H 0.92043 0.04872 0.35461 0.0
H1394 H 0.90523 0.03303 0.34028 0.0
H1395 H 0.90713 0.04515 0.3366 0.0
H1396 H 0.89538 0.07555 0.32445 0.0
H1397 H 0.90917 0.09297 0.31955 0.0
H1398 H 0.91741 0.08895 0.32847 0.0
H1399 H 0.90367 0.07165 0.33357 0.0
C1400 C 0.68204 0.18377 0.10771 0.0
C1401 C 0.67525 0.18087 0.10762 0.0
C1402 C 0.67066 0.19118 0.11368 0.0
C1403 C 0.66961 0.18453 0.11062 0.0
C1404 C 0.67741 0.19418 0.11353 0.0
C1405 C 0.68306 0.19048 0.11059 0.0
U1406 U 0.69022 0.17029 0.09529 0.0
O1407 O 0.70052 0.17013 0.08998 0.0
O1408 O 0.69768 0.16169 0.09736 0.0
C1409 C 0.70249 0.16431 0.09314 0.0
C1410 C 0.68816 0.17979 0.10508 0.0
C1411 C 0.70983 0.16385 0.09557 0.0
C1412 C 0.71983 0.16778 0.10253 0.0
C1413 C 0.7128 0.1686 0.10039 0.0
C1414 C 0.72089 0.1575 0.09509 0.0
C1415 C 0.72397 0.1622 0.09989 0.0
C1416 C 0.71393 0.15833 0.09295 0.0
C1417 C 0.67718 0.16187 0.08192 0.0
C1418 C 0.67909 0.15204 0.07396 0.0
C1419 C 0.66788 0.15811 0.07405 0.0
C1420 C 0.67035 0.16261 0.07927 0.0
C1421 C 0.6722 0.15276 0.07132 0.0
C1422 C 0.68157 0.15657 0.07923 0.0
C1423 C 0.67935 0.16659 0.08762 0.0
O1424 O 0.68805 0.17298 0.1063 0.0
O1425 O 0.69031 0.18138 0.09871 0.0
O1426 O 0.68358 0.17178 0.08591 0.0
O1427 O 0.68094 0.16361 0.09365 0.0
H1428 H 0.67432 0.17573 0.10535 0.0
H1429 H 0.66444 0.18214 0.11058 0.0
H1430 H 0.67837 0.19928 0.11587 0.0
H1431 H 0.68826 0.19282 0.11069 0.0
H1432 H 0.72204 0.17153 0.1062 0.0
H1433 H 0.7097 0.1729 0.10247 0.0
H1434 H 0.72381 0.15305 0.09306 0.0
H1435 H 0.71171 0.15459 0.08927 0.0
H1436 H 0.68256 0.148 0.07194 0.0
H1437 H 0.66251 0.15873 0.07227 0.0
H1438 H 0.66688 0.16663 0.08133 0.0
H1439 H 0.68687 0.15593 0.08124 0.0
C1440 C 0.57409 0.07584 0.64999 0.0
C1441 C 0.57335 0.08209 0.65385 0.0
C1442 C 0.56665 0.08736 0.64424 0.0
C1443 C 0.56964 0.08779 0.65101 0.0
C1444 C 0.56744 0.08106 0.64042 0.0
C1445 C 0.5711 0.07537 0.64328 0.0
U1446 U 0.58732 0.06754 0.66272 0.0
O1447 O 0.58719 0.05719 0.66796 0.0
O1448 O 0.59578 0.05992 0.66071 0.0
C1449 C 0.59304 0.05516 0.6649 0.0
C1450 C 0.57804 0.06978 0.65274 0.0
C1451 C 0.59353 0.04778 0.66258 0.0
C1452 C 0.591 0.03812 0.65456 0.0
C1453 C 0.58984 0.04509 0.65678 0.0
C1454 C 0.59936 0.03653 0.66405 0.0
C1455 C 0.59591 0.03382 0.6581 0.0
C1456 C 0.59819 0.04342 0.66624 0.0
C1457 C 0.59604 0.0799 0.67641 0.0
C1458 C 0.60709 0.07853 0.6827 0.0
C1459 C 0.59912 0.08798 0.68579 0.0
C1460 C 0.59442 0.0857 0.68065 0.0
C1461 C 0.60555 0.08448 0.68685 0.0
C1462 C 0.60237 0.07625 0.67752 0.0
C1463 C 0.59123 0.07818 0.67061 0.0
O1464 O 0.58487 0.06995 0.65167 0.0
O1465 O 0.57633 0.06765 0.6591 0.0
O1466 O 0.58584 0.07413 0.67215 0.0
O1467 O 0.59416 0.07666 0.66454 0.0
H1468 H 0.57564 0.08255 0.65905 0.0
H1469 H 0.56907 0.09251 0.65415 0.0
H1470 H 0.56535 0.08056 0.63514 0.0
H1471 H 0.57166 0.07061 0.6402 0.0
H1472 H 0.58827 0.03619 0.64995 0.0
H1473 H 0.58621 0.04839 0.65389 0.0
H1474 H 0.60305 0.03334 0.667 0.0
H1475 H 0.60106 0.0454 0.67075 0.0
H1476 H 0.61196 0.07567 0.68343 0.0
H1477 H 0.5978 0.09265 0.68877 0.0
H1478 H 0.58958 0.08861 0.67983 0.0
H1479 H 0.60371 0.07175 0.6743 0.0
C1480 C 0.68034 0.82324 0.39995 0.0
C1481 C 0.67377 0.823 0.40332 0.0
C1482 C 0.66911 0.81589 0.3937 0.0
C1483 C 0.66818 0.81932 0.40021 0.0
C1484 C 0.67573 0.81611 0.39045 0.0
C1485 C 0.68127 0.81975 0.39355 0.0
U1486 U 0.69044 0.83658 0.41194 0.0
O1487 O 0.7013 0.83503 0.41578 0.0
O1488 O 0.69887 0.84359 0.40814 0.0
C1489 C 0.70366 0.84014 0.41173 0.0
C1490 C 0.6864 0.82705 0.40282 0.0
C1491 C 0.71112 0.84215 0.41161 0.0
C1492 C 0.72318 0.8391 0.4087 0.0
C1493 C 0.71625 0.83708 0.41009 0.0
C1494 C 0.72003 0.85125 0.41084 0.0
C1495 C 0.72517 0.84624 0.40894 0.0
C1496 C 0.71306 0.84924 0.41204 0.0
C1497 C 0.67862 0.84742 0.42547 0.0
C1498 C 0.68043 0.85528 0.43541 0.0
C1499 C 0.66864 0.85291 0.43121 0.0
C1500 C 0.67137 0.84856 0.426 0.0
C1501 C 0.67311 0.85626 0.43604 0.0
C1502 C 0.68318 0.85084 0.43017 0.0
C1503 C 0.68096 0.84241 0.42008 0.0
O1504 O 0.68674 0.83378 0.40135 0.0
O1505 O 0.68837 0.82551 0.40927 0.0
O1506 O 0.68473 0.83694 0.42202 0.0
O1507 O 0.68255 0.84486 0.41381 0.0
H1508 H 0.67297 0.82569 0.40828 0.0
H1509 H 0.66312 0.81927 0.40281 0.0
H1510 H 0.67666 0.81343 0.38551 0.0
H1511 H 0.68633 0.81985 0.39091 0.0
H1512 H 0.72688 0.83506 0.40714 0.0
H1513 H 0.71481 0.83159 0.40961 0.0
H1514 H 0.72134 0.85677 0.4113 0.0
H1515 H 0.70916 0.85324 0.41317 0.0
H1516 H 0.684 0.8578 0.43908 0.0
H1517 H 0.663 0.85365 0.43146 0.0
H1518 H 0.66777 0.84598 0.42241 0.0
H1519 H 0.68881 0.85001 0.42984 0.0
C1520 C 0.93336 0.93234 0.1495 0.0
C1521 C 0.9336 0.92592 0.15314 0.0
C1522 C 0.94087 0.9208 0.14385 0.0
C1523 C 0.93735 0.92021 0.15036 0.0
C1524 C 0.94061 0.92728 0.14027 0.0
C1525 C 0.93691 0.93298 0.14308 0.0
U1526 U 0.92008 0.94045 0.16224 0.0
O1527 O 0.92003 0.9508 0.16744 0.0
O1528 O 0.91141 0.94787 0.1603 0.0
C1529 C 0.91412 0.95273 0.16441 0.0
C1530 C 0.92934 0.93838 0.1522 0.0
C1531 C 0.91353 0.96006 0.16198 0.0
C1532 C 0.91776 0.97045 0.15579 0.0
C1533 C 0.91864 0.96338 0.15781 0.0
C1534 C 0.90669 0.97085 0.16207 0.0
C1535 C 0.91177 0.97428 0.15793 0.0
C1536 C 0.90758 0.96385 0.16407 0.0
C1537 C 0.91189 0.92758 0.17591 0.0
C1538 C 0.90168 0.92929 0.1834 0.0
C1539 C 0.90847 0.91854 0.18421 0.0
C1540 C 0.913 0.92101 0.17901 0.0
C1541 C 0.90273 0.92262 0.18647 0.0
C1542 C 0.90623 0.93176 0.17815 0.0
C1543 C 0.91654 0.92966 0.1701 0.0
O1544 O 0.92251 0.93808 0.15118 0.0
O1545 O 0.93105 0.94058 0.15853 0.0
O1546 O 0.92178 0.9339 0.17165 0.0
O1547 O 0.91346 0.93117 0.1641 0.0
H1548 H 0.93089 0.92532 0.15811 0.0
H1549 H 0.93752 0.91536 0.15334 0.0
H1550 H 0.94312 0.92793 0.13521 0.0
H1551 H 0.93675 0.93789 0.14019 0.0
H1552 H 0.9218 0.97293 0.15263 0.0
H1553 H 0.92329 0.96054 0.15614 0.0
H1554 H 0.90194 0.97353 0.16369 0.0
H1555 H 0.90356 0.96137 0.16727 0.0
H1556 H 0.89734 0.93259 0.18506 0.0
H1557 H 0.90938 0.91332 0.18633 0.0
H1558 H 0.91731 0.91769 0.17729 0.0
H1559 H 0.9053 0.93686 0.17579 0.0
C1560 C 0.82542 0.18419 0.89983 0.0
C1561 C 0.83223 0.18131 0.89994 0.0
C1562 C 0.83678 0.19159 0.89379 0.0
C1563 C 0.83785 0.18496 0.8969 0.0
C1564 C 0.83001 0.19456 0.89392 0.0
C1565 C 0.82438 0.19087 0.89689 0.0
U1566 U 0.81744 0.17051 0.91212 0.0
O1567 O 0.80723 0.17018 0.91758 0.0
O1568 O 0.81002 0.1619 0.90999 0.0
C1569 C 0.80526 0.1644 0.91433 0.0
C1570 C 0.81932 0.18019 0.90248 0.0
C1571 C 0.79788 0.16391 0.91202 0.0
C1572 C 0.7876 0.16805 0.90561 0.0
C1573 C 0.79467 0.16889 0.90761 0.0
C1574 C 0.78699 0.15728 0.91238 0.0
C1575 C 0.78366 0.16222 0.908 0.0
C1576 C 0.79398 0.15813 0.91437 0.0
C1577 C 0.83079 0.16176 0.92498 0.0
C1578 C 0.82866 0.15378 0.93475 0.0
C1579 C 0.84059 0.1563 0.93103 0.0
C1580 C 0.83802 0.16071 0.92578 0.0
C1581 C 0.83595 0.15283 0.93563 0.0
C1582 C 0.82608 0.15823 0.92945 0.0
C1583 C 0.82847 0.16665 0.91948 0.0
O1584 O 0.81938 0.17341 0.90112 0.0
O1585 O 0.81731 0.18166 0.90893 0.0
O1586 O 0.82422 0.17175 0.92141 0.0
O1587 O 0.82681 0.16384 0.91339 0.0
H1588 H 0.83317 0.17618 0.90225 0.0
H1589 H 0.84303 0.18259 0.89696 0.0
H1590 H 0.82904 0.19964 0.89154 0.0
H1591 H 0.81917 0.19319 0.89677 0.0
H1592 H 0.78521 0.17198 0.90225 0.0
H1593 H 0.79761 0.1734 0.90573 0.0
H1594 H 0.78422 0.15264 0.9142 0.0
H1595 H 0.79639 0.15421 0.91775 0.0
H1596 H 0.82497 0.15119 0.93823 0.0
H1597 H 0.84622 0.15558 0.93146 0.0
H1598 H 0.84172 0.16336 0.92234 0.0
H1599 H 0.82046 0.15898 0.92889 0.0
C1600 C 0.85836 0.574 0.93239 0.0
C1601 C 0.85444 0.57276 0.92624 0.0
C1602 C 0.86438 0.56649 0.92108 0.0
C1603 C 0.85742 0.56899 0.92064 0.0
C1604 C 0.86824 0.56775 0.92725 0.0
C1605 C 0.86526 0.57146 0.93284 0.0
U1606 U 0.84543 0.58732 0.94025 0.0
O1607 O 0.84008 0.58736 0.95054 0.0
O1608 O 0.84729 0.59595 0.94771 0.0
C1609 C 0.8431 0.59326 0.95251 0.0
C1610 C 0.85547 0.57804 0.93834 0.0
C1611 C 0.84544 0.59384 0.95987 0.0
C1612 C 0.85279 0.59057 0.96985 0.0
C1613 C 0.85059 0.58946 0.96286 0.0
C1614 C 0.84464 0.60031 0.97084 0.0
C1615 C 0.8499 0.5961 0.97387 0.0
C1616 C 0.84245 0.59919 0.96393 0.0
C1617 C 0.83202 0.59569 0.92728 0.0
C1618 C 0.82424 0.60564 0.9293 0.0
C1619 C 0.82403 0.59953 0.91812 0.0
C1620 C 0.82923 0.59496 0.92052 0.0
C1621 C 0.82147 0.60494 0.92246 0.0
C1622 C 0.82949 0.60104 0.9317 0.0
C1623 C 0.83777 0.59096 0.92936 0.0
O1624 O 0.85653 0.58486 0.93809 0.0
O1625 O 0.84909 0.57634 0.94039 0.0
O1626 O 0.83612 0.58571 0.93354 0.0
O1627 O 0.84377 0.59399 0.93097 0.0
H1628 H 0.84911 0.57472 0.92577 0.0
H1629 H 0.85433 0.56816 0.91592 0.0
H1630 H 0.87358 0.56583 0.92778 0.0
H1631 H 0.86836 0.57237 0.93754 0.0
H1632 H 0.85687 0.58724 0.97203 0.0
H1633 H 0.85296 0.58529 0.95979 0.0
H1634 H 0.8422 0.60452 0.97381 0.0
H1635 H 0.83845 0.6026 0.96173 0.0
H1636 H 0.82235 0.60971 0.9328 0.0
H1637 H 0.82215 0.59892 0.91278 0.0
H1638 H 0.83117 0.59089 0.91702 0.0
H1639 H 0.83161 0.60168 0.93695 0.0
C1640 C 0.35783 0.93397 0.07596 0.0
C1641 C 0.35663 0.93169 0.08289 0.0
C1642 C 0.36356 0.94152 0.08744 0.0
C1643 C 0.35949 0.93542 0.08857 0.0
C1644 C 0.36459 0.94383 0.08048 0.0
C1645 C 0.36177 0.94008 0.07482 0.0
U1646 U 0.34541 0.92053 0.06752 0.0
O1647 O 0.34011 0.92064 0.0572 0.0
O1648 O 0.34758 0.9122 0.0598 0.0
C1649 C 0.3433 0.91488 0.05508 0.0
C1650 C 0.35521 0.92997 0.06986 0.0
C1651 C 0.34554 0.91452 0.04767 0.0
C1652 C 0.35413 0.91593 0.03828 0.0
C1653 C 0.35204 0.91709 0.04528 0.0
C1654 C 0.3432 0.90978 0.03604 0.0
C1655 C 0.34978 0.91211 0.03363 0.0
C1656 C 0.34111 0.91098 0.04297 0.0
C1657 C 0.33172 0.91175 0.07992 0.0
C1658 C 0.32535 0.90073 0.07865 0.0
C1659 C 0.32238 0.90877 0.08808 0.0
C1660 C 0.32754 0.91342 0.08574 0.0
C1661 C 0.32125 0.90232 0.08462 0.0
C1662 C 0.33055 0.90541 0.07631 0.0
C1663 C 0.33753 0.91654 0.07813 0.0
O1664 O 0.35639 0.92316 0.06999 0.0
O1665 O 0.34886 0.9316 0.06767 0.0
O1666 O 0.33597 0.92192 0.0741 0.0
O1667 O 0.34359 0.9136 0.07659 0.0
H1668 H 0.35359 0.92698 0.08389 0.0
H1669 H 0.35864 0.93341 0.09383 0.0
H1670 H 0.36754 0.94858 0.07939 0.0
H1671 H 0.36272 0.94194 0.06951 0.0
H1672 H 0.35925 0.91777 0.03658 0.0
H1673 H 0.35554 0.91982 0.04885 0.0
H1674 H 0.33967 0.90695 0.03258 0.0
H1675 H 0.33607 0.90897 0.04471 0.0
H1676 H 0.32457 0.89585 0.07581 0.0
H1677 H 0.31944 0.91013 0.09276 0.0
H1678 H 0.3284 0.91827 0.08861 0.0
H1679 H 0.33373 0.90403 0.07179 0.0
C1680 C 0.82285 0.60714 0.82779 0.0
C1681 C 0.82261 0.60352 0.83423 0.0
C1682 C 0.81576 0.61311 0.83931 0.0
C1683 C 0.81904 0.60649 0.83997 0.0
C1684 C 0.81598 0.61661 0.83282 0.0
C1685 C 0.8195 0.61365 0.82713 0.0
U1686 U 0.83624 0.5958 0.81705 0.0
O1687 O 0.83465 0.59207 0.80617 0.0
O1688 O 0.84288 0.60008 0.80852 0.0
C1689 C 0.83977 0.59609 0.80382 0.0
C1690 C 0.82654 0.60447 0.82159 0.0
C1691 C 0.841 0.59702 0.79626 0.0
C1692 C 0.83833 0.60242 0.78501 0.0
C1693 C 0.83647 0.60099 0.79199 0.0
C1694 C 0.84905 0.59567 0.78643 0.0
C1695 C 0.8447 0.59988 0.7822 0.0
C1696 C 0.84722 0.5943 0.79341 0.0
C1697 C 0.84771 0.58239 0.82867 0.0
C1698 C 0.85468 0.57171 0.82751 0.0
C1699 C 0.85374 0.57753 0.83881 0.0
C1700 C 0.84951 0.58269 0.8358 0.0
C1701 C 0.85628 0.57191 0.83475 0.0
C1702 C 0.85036 0.5769 0.82449 0.0
C1703 C 0.84261 0.58765 0.82616 0.0
O1704 O 0.8332 0.60619 0.82105 0.0
O1705 O 0.82515 0.59801 0.81954 0.0
O1706 O 0.83714 0.58559 0.82247 0.0
O1707 O 0.84483 0.59402 0.82465 0.0
H1708 H 0.8252 0.59848 0.83482 0.0
H1709 H 0.81897 0.6037 0.84494 0.0
H1710 H 0.81341 0.62164 0.83212 0.0
H1711 H 0.81961 0.61648 0.82219 0.0
H1712 H 0.83485 0.60562 0.78182 0.0
H1713 H 0.83164 0.60315 0.79411 0.0
H1714 H 0.85401 0.59369 0.78444 0.0
H1715 H 0.85078 0.59126 0.79667 0.0
H1716 H 0.85656 0.56742 0.82426 0.0
H1717 H 0.85496 0.5779 0.84436 0.0
H1718 H 0.84751 0.58687 0.83912 0.0
H1719 H 0.84898 0.57656 0.81897 0.0
C1720 C 0.15017 0.07406 0.57529 0.0
C1721 C 0.15367 0.07396 0.58179 0.0
C1722 C 0.14442 0.06656 0.58673 0.0
C1723 C 0.15082 0.07022 0.58747 0.0
C1724 C 0.14098 0.06667 0.58019 0.0
C1725 C 0.14384 0.07039 0.57452 0.0
U1726 U 0.1628 0.08752 0.56732 0.0
O1727 O 0.1683 0.08759 0.55712 0.0
O1728 O 0.16081 0.096 0.55973 0.0
C1729 C 0.16509 0.09334 0.555 0.0
C1730 C 0.15293 0.07807 0.56927 0.0
C1731 C 0.16268 0.09354 0.54765 0.0
C1732 C 0.15439 0.09071 0.53832 0.0
C1733 C 0.15668 0.08993 0.54531 0.0
C1734 C 0.16411 0.09861 0.53602 0.0
C1735 C 0.15805 0.09513 0.5336 0.0
C1736 C 0.1664 0.0978 0.54295 0.0
C1737 C 0.17595 0.09615 0.58046 0.0
C1738 C 0.1834 0.10642 0.57883 0.0
C1739 C 0.18339 0.10021 0.58997 0.0
C1740 C 0.17853 0.09542 0.58731 0.0
C1741 C 0.18578 0.10584 0.58582 0.0
C1742 C 0.17847 0.10161 0.57616 0.0
C1743 C 0.17032 0.09135 0.57825 0.0
O1744 O 0.15175 0.08488 0.56945 0.0
O1745 O 0.15935 0.07648 0.56725 0.0
O1746 O 0.17211 0.08613 0.57409 0.0
O1747 O 0.1643 0.09429 0.57656 0.0
H1748 H 0.15855 0.07681 0.58249 0.0
H1749 H 0.15356 0.07029 0.59246 0.0
H1750 H 0.1361 0.06384 0.57942 0.0
H1751 H 0.14108 0.07041 0.56954 0.0
H1752 H 0.14975 0.08787 0.53663 0.0
H1753 H 0.15374 0.08661 0.54888 0.0
H1754 H 0.167 0.10218 0.53265 0.0
H1755 H 0.17101 0.10066 0.54468 0.0
H1756 H 0.18515 0.11073 0.57553 0.0
H1757 H 0.18521 0.09957 0.59533 0.0
H1758 H 0.17665 0.09123 0.59068 0.0
H1759 H 0.1765 0.10224 0.57085 0.0
C1760 C 0.18346 0.90013 0.82544 0.0
C1761 C 0.18437 0.90415 0.83157 0.0
C1762 C 0.19094 0.89453 0.83699 0.0
C1763 C 0.18811 0.90138 0.83729 0.0
C1764 C 0.18998 0.89056 0.83082 0.0
C1765 C 0.18628 0.89334 0.82511 0.0
U1766 U 0.17016 0.91281 0.8173 0.0
O1767 O 0.1702 0.91819 0.80703 0.0
O1768 O 0.16167 0.91085 0.80971 0.0
C1769 C 0.16437 0.91509 0.80496 0.0
C1770 C 0.17948 0.90284 0.81938 0.0
C1771 C 0.16399 0.91275 0.7976 0.0
C1772 C 0.16641 0.9045 0.78811 0.0
C1773 C 0.16744 0.90671 0.79509 0.0
C1774 C 0.15864 0.9144 0.78613 0.0
C1775 C 0.16187 0.90826 0.7836 0.0
C1776 C 0.15969 0.9166 0.79304 0.0
C1777 C 0.16161 0.92638 0.82993 0.0
C1778 C 0.15061 0.93278 0.82873 0.0
C1779 C 0.15866 0.93563 0.83819 0.0
C1780 C 0.1633 0.93049 0.83579 0.0
C1781 C 0.15222 0.9368 0.83474 0.0
C1782 C 0.15528 0.9276 0.82633 0.0
C1783 C 0.16638 0.92058 0.82806 0.0
O1784 O 0.17266 0.90174 0.81959 0.0
O1785 O 0.18115 0.9092 0.81724 0.0
O1786 O 0.17172 0.92216 0.82397 0.0
O1787 O 0.1634 0.91454 0.82649 0.0
H1788 H 0.1822 0.9094 0.83193 0.0
H1789 H 0.18883 0.90463 0.84191 0.0
H1790 H 0.19195 0.88523 0.83043 0.0
H1791 H 0.18558 0.89016 0.82044 0.0
H1792 H 0.16897 0.89973 0.78631 0.0
H1793 H 0.17079 0.90366 0.79855 0.0
H1794 H 0.15522 0.91749 0.78278 0.0
H1795 H 0.157 0.92129 0.79488 0.0
H1796 H 0.14573 0.93359 0.82591 0.0
H1797 H 0.16002 0.93852 0.84291 0.0
H1798 H 0.16814 0.92958 0.83866 0.0
H1799 H 0.15389 0.92447 0.82177 0.0
C1800 C 0.64993 0.43404 0.43238 0.0
C1801 C 0.65354 0.43443 0.42594 0.0
C1802 C 0.64405 0.44148 0.42095 0.0
C1803 C 0.65063 0.43815 0.42028 0.0
C1804 C 0.64051 0.4411 0.42743 0.0
C1805 C 0.64342 0.43742 0.43308 0.0
U1806 U 0.66234 0.42033 0.44035 0.0
O1807 O 0.66793 0.42024 0.45052 0.0
O1808 O 0.66017 0.41202 0.44809 0.0
C1809 C 0.66456 0.41463 0.45275 0.0
C1810 C 0.65271 0.43002 0.43839 0.0
C1811 C 0.66218 0.41462 0.46013 0.0
C1812 C 0.65349 0.41681 0.46926 0.0
C1813 C 0.65576 0.41756 0.46226 0.0
C1814 C 0.66409 0.41031 0.472 0.0
C1815 C 0.65759 0.41308 0.47421 0.0
C1816 C 0.66635 0.4111 0.46507 0.0
C1817 C 0.67511 0.41129 0.42703 0.0
C1818 C 0.685 0.40342 0.42906 0.0
C1819 C 0.68111 0.40589 0.41717 0.0
C1820 C 0.67584 0.41024 0.41979 0.0
C1821 C 0.68582 0.4025 0.42175 0.0
C1822 C 0.67968 0.40782 0.4317 0.0
C1823 C 0.66961 0.41618 0.42938 0.0
O1824 O 0.65133 0.42325 0.43831 0.0
O1825 O 0.6592 0.43147 0.4403 0.0
O1826 O 0.67158 0.42139 0.43348 0.0
O1827 O 0.66356 0.41338 0.43118 0.0
H1828 H 0.65856 0.4318 0.42529 0.0
H1829 H 0.65346 0.43829 0.41533 0.0
H1830 H 0.63549 0.44369 0.42816 0.0
H1831 H 0.64057 0.43718 0.43801 0.0
H1832 H 0.6485 0.41912 0.47076 0.0
H1833 H 0.65246 0.4203 0.45851 0.0
H1834 H 0.66735 0.40729 0.47556 0.0
H1835 H 0.6713 0.40875 0.4635 0.0
H1836 H 0.68856 0.40088 0.43271 0.0
H1837 H 0.6815 0.40519 0.41153 0.0
H1838 H 0.67233 0.41284 0.41612 0.0
H1839 H 0.67918 0.40858 0.43732 0.0
C1840 C 0.82412 0.39954 0.68235 0.0
C1841 C 0.82317 0.40322 0.67601 0.0
C1842 C 0.81654 0.39334 0.67118 0.0
C1843 C 0.81937 0.40015 0.67047 0.0
C1844 C 0.8175 0.38973 0.67756 0.0
C1845 C 0.82124 0.3928 0.68307 0.0
U1846 U 0.8374 0.41258 0.69024 0.0
O1847 O 0.8373 0.41801 0.70049 0.0
O1848 O 0.84588 0.41071 0.69787 0.0
C1849 C 0.84314 0.41496 0.70259 0.0
C1850 C 0.82815 0.40251 0.68826 0.0
C1851 C 0.84354 0.41268 0.70998 0.0
C1852 C 0.84156 0.40428 0.71945 0.0
C1853 C 0.84046 0.40644 0.71246 0.0
C1854 C 0.84868 0.41464 0.72151 0.0
C1855 C 0.84582 0.4083 0.72401 0.0
C1856 C 0.84755 0.41679 0.71459 0.0
C1857 C 0.84588 0.42613 0.6775 0.0
C1858 C 0.85664 0.43291 0.67889 0.0
C1859 C 0.84893 0.43513 0.66899 0.0
C1860 C 0.84434 0.42994 0.6714 0.0
C1861 C 0.85517 0.43665 0.67266 0.0
C1862 C 0.85202 0.42768 0.6813 0.0
C1863 C 0.84117 0.4203 0.67943 0.0
O1864 O 0.83498 0.40148 0.68804 0.0
O1865 O 0.82642 0.40891 0.69025 0.0
O1866 O 0.83581 0.42188 0.6835 0.0
O1867 O 0.8442 0.41431 0.68107 0.0
H1868 H 0.82538 0.40843 0.67533 0.0
H1869 H 0.81878 0.40304 0.6656 0.0
H1870 H 0.8153 0.38452 0.67831 0.0
H1871 H 0.82192 0.38989 0.68793 0.0
H1872 H 0.8393 0.39935 0.72121 0.0
H1873 H 0.83735 0.40318 0.70896 0.0
H1874 H 0.85187 0.41792 0.7249 0.0
H1875 H 0.84995 0.42163 0.71278 0.0
H1876 H 0.86136 0.43399 0.68189 0.0
H1877 H 0.84768 0.43778 0.66411 0.0
H1878 H 0.83965 0.42878 0.66838 0.0
H1879 H 0.8533 0.42478 0.68604 0.0
C1880 C 0.6846 0.60797 0.18273 0.0
C1881 C 0.68485 0.60428 0.17634 0.0
C1882 C 0.69199 0.6136 0.17116 0.0
C1883 C 0.68855 0.60706 0.1706 0.0
C1884 C 0.69173 0.61723 0.1776 0.0
C1885 C 0.68807 0.61444 0.18332 0.0
U1886 U 0.67115 0.59541 0.19068 0.0
O1887 O 0.67089 0.59002 0.20095 0.0
O1888 O 0.66247 0.5974 0.19804 0.0
C1889 C 0.66501 0.59314 0.20284 0.0
C1890 C 0.68059 0.60529 0.18879 0.0
C1891 C 0.66436 0.59542 0.2102 0.0
C1892 C 0.66704 0.60315 0.22006 0.0
C1893 C 0.66832 0.60095 0.21311 0.0
C1894 C 0.65804 0.59421 0.22121 0.0
C1895 C 0.66177 0.59989 0.22414 0.0
C1896 C 0.65931 0.59204 0.21434 0.0
C1897 C 0.66269 0.58229 0.17745 0.0
C1898 C 0.6528 0.5744 0.1793 0.0
C1899 C 0.65806 0.57549 0.16773 0.0
C1900 C 0.66291 0.58028 0.17038 0.0
C1901 C 0.65287 0.57259 0.17212 0.0
C1902 C 0.65767 0.57927 0.18195 0.0
C1903 C 0.66752 0.58786 0.17972 0.0
O1904 O 0.67378 0.60647 0.18856 0.0
O1905 O 0.68218 0.59889 0.1909 0.0
O1906 O 0.67262 0.58604 0.18401 0.0
O1907 O 0.66461 0.59392 0.18129 0.0
H1908 H 0.68215 0.59929 0.17577 0.0
H1909 H 0.68859 0.60417 0.16569 0.0
H1910 H 0.6944 0.62222 0.17823 0.0
H1911 H 0.68791 0.61735 0.18821 0.0
H1912 H 0.67 0.60755 0.22215 0.0
H1913 H 0.67225 0.60363 0.20998 0.0
H1914 H 0.65406 0.59147 0.22423 0.0
H1915 H 0.65624 0.58774 0.21219 0.0
H1916 H 0.64884 0.57224 0.18278 0.0
H1917 H 0.65832 0.57411 0.16221 0.0
H1918 H 0.66676 0.58256 0.16684 0.0
H1919 H 0.65743 0.5808 0.18744 0.0
C1920 C 0.57592 0.64894 0.93244 0.0
C1921 C 0.58248 0.65234 0.93234 0.0
C1922 C 0.58733 0.6434 0.94018 0.0
C1923 C 0.58814 0.6496 0.9362 0.0
C1924 C 0.58075 0.64004 0.94024 0.0
C1925 C 0.57511 0.64279 0.93641 0.0
U1926 U 0.56778 0.66133 0.91879 0.0
O1927 O 0.56 0.65917 0.91053 0.0
O1928 O 0.5576 0.66688 0.91881 0.0
C1929 C 0.55536 0.66356 0.91317 0.0
C1930 C 0.56988 0.65163 0.92841 0.0
C1931 C 0.54794 0.66133 0.91306 0.0
C1932 C 0.53865 0.65267 0.91466 0.0
C1933 C 0.54568 0.65475 0.91556 0.0
C1934 C 0.53611 0.66376 0.90891 0.0
C1935 C 0.53382 0.6571 0.91117 0.0
C1936 C 0.54308 0.66583 0.90985 0.0
C1937 C 0.58078 0.67442 0.90981 0.0
C1938 C 0.57885 0.68216 0.89981 0.0
C1939 C 0.59024 0.68178 0.90551 0.0
C1940 C 0.5877 0.67684 0.91028 0.0
C1941 C 0.58589 0.68441 0.90015 0.0
C1942 C 0.5763 0.67715 0.9046 0.0
C1943 C 0.57862 0.66881 0.91467 0.0
O1944 O 0.56787 0.65808 0.9299 0.0
O1945 O 0.57001 0.65033 0.92162 0.0
O1946 O 0.57688 0.66277 0.91182 0.0
O1947 O 0.57457 0.67064 0.91996 0.0
H1948 H 0.58322 0.65708 0.92927 0.0
H1949 H 0.59316 0.65228 0.93598 0.0
H1950 H 0.57992 0.63532 0.94332 0.0
H1951 H 0.57008 0.6401 0.93656 0.0
H1952 H 0.53705 0.6475 0.91644 0.0
H1953 H 0.54937 0.65119 0.91805 0.0
H1954 H 0.53252 0.66735 0.90634 0.0
H1955 H 0.54472 0.67093 0.9079 0.0
H1956 H 0.57539 0.6841 0.89571 0.0
H1957 H 0.59565 0.68349 0.90598 0.0
H1958 H 0.59121 0.6748 0.91429 0.0
H1959 H 0.57092 0.67532 0.90417 0.0
C1960 C 0.60993 0.32618 0.18216 0.0
C1961 C 0.60853 0.33317 0.18025 0.0
C1962 C 0.6158 0.33739 0.18997 0.0
C1963 C 0.61146 0.33873 0.1841 0.0
C1964 C 0.61709 0.33036 0.19189 0.0
C1965 C 0.61419 0.32482 0.18801 0.0
U1966 U 0.59725 0.31823 0.16863 0.0
O1967 O 0.59919 0.3104 0.16035 0.0
O1968 O 0.5916 0.3081 0.16877 0.0
C1969 C 0.59479 0.30581 0.16308 0.0
C1970 C 0.60712 0.32021 0.1781 0.0
C1971 C 0.59694 0.29837 0.16294 0.0
C1972 C 0.60552 0.28897 0.16443 0.0
C1973 C 0.6035 0.29602 0.16541 0.0
C1974 C 0.59437 0.28659 0.15873 0.0
C1975 C 0.60103 0.28422 0.16092 0.0
C1976 C 0.59237 0.29358 0.15973 0.0
C1977 C 0.58398 0.33119 0.15993 0.0
C1978 C 0.57577 0.329 0.15036 0.0
C1979 C 0.57599 0.34037 0.15612 0.0
C1980 C 0.58134 0.33803 0.16055 0.0
C1981 C 0.57311 0.3359 0.15099 0.0
C1982 C 0.58117 0.32665 0.15482 0.0
C1983 C 0.58974 0.32911 0.16465 0.0
O1984 O 0.60069 0.31824 0.1797 0.0
O1985 O 0.6083 0.32037 0.17129 0.0
O1986 O 0.5957 0.32731 0.16164 0.0
O1987 O 0.58805 0.32511 0.17002 0.0
H1988 H 0.60525 0.33433 0.17574 0.0
H1989 H 0.61041 0.34407 0.18241 0.0
H1990 H 0.62027 0.32911 0.19644 0.0
H1991 H 0.6153 0.31946 0.18959 0.0
H1992 H 0.61068 0.28732 0.16616 0.0
H1993 H 0.6071 0.29966 0.16791 0.0
H1994 H 0.59073 0.28307 0.15615 0.0
H1995 H 0.58729 0.29529 0.1578 0.0
H1996 H 0.57364 0.32541 0.14649 0.0
H1997 H 0.5742 0.34575 0.15666 0.0
H1998 H 0.58348 0.34161 0.16443 0.0
H1999 H 0.58316 0.32134 0.15428 0.0
C2000 C 0.93192 0.35947 0.43246 0.0
C2001 C 0.92524 0.35636 0.432 0.0
C2002 C 0.92051 0.3651 0.44014 0.0
C2003 C 0.91959 0.35913 0.43583 0.0
C2004 C 0.92724 0.36815 0.44057 0.0
C2005 C 0.93288 0.36535 0.43678 0.0
U2006 U 0.93981 0.34699 0.41884 0.0
O2007 O 0.94748 0.34898 0.41043 0.0
O2008 O 0.94997 0.3414 0.41881 0.0
C2009 C 0.95213 0.34461 0.41308 0.0
C2010 C 0.93793 0.35676 0.42841 0.0
C2011 C 0.95954 0.34685 0.41283 0.0
C2012 C 0.9692 0.35472 0.41582 0.0
C2013 C 0.96218 0.35254 0.41675 0.0
C2014 C 0.97091 0.34548 0.40722 0.0
C2015 C 0.97357 0.35129 0.41092 0.0
C2016 C 0.96398 0.34329 0.40818 0.0
C2017 C 0.92648 0.334 0.41017 0.0
C2018 C 0.92852 0.32503 0.40127 0.0
C2019 C 0.91678 0.32696 0.40586 0.0
C2020 C 0.91934 0.33226 0.41021 0.0
C2021 C 0.92133 0.32322 0.40138 0.0
C2022 C 0.93109 0.3304 0.40566 0.0
C2023 C 0.92881 0.33963 0.41492 0.0
O2024 O 0.93991 0.35031 0.42993 0.0
O2025 O 0.93774 0.35803 0.42162 0.0
O2026 O 0.93061 0.34561 0.41197 0.0
O2027 O 0.93292 0.33778 0.42016 0.0
H2028 H 0.92441 0.3518 0.42869 0.0
H2029 H 0.91452 0.35657 0.43544 0.0
H2030 H 0.92814 0.37281 0.44372 0.0
H2031 H 0.93799 0.36784 0.43717 0.0
H2032 H 0.97112 0.35923 0.41873 0.0
H2033 H 0.95881 0.35536 0.42037 0.0
H2034 H 0.97417 0.34267 0.40349 0.0
H2035 H 0.96204 0.33888 0.40513 0.0
H2036 H 0.93215 0.32224 0.3979 0.0
H2037 H 0.9112 0.32583 0.40597 0.0
H2038 H 0.91571 0.33503 0.41362 0.0
H2039 H 0.93663 0.3317 0.40556 0.0
C2040 C 0.89902 0.68251 0.68204 0.0
C2041 C 0.9022 0.67585 0.68162 0.0
C2042 C 0.89353 0.67111 0.6898 0.0
C2043 C 0.89948 0.6702 0.68548 0.0
C2044 C 0.8904 0.6778 0.6902 0.0
C2045 C 0.89313 0.68344 0.68635 0.0
U2046 U 0.91144 0.69034 0.66835 0.0
O2047 O 0.90937 0.69795 0.65989 0.0
O2048 O 0.91703 0.70049 0.66818 0.0
C2049 C 0.91375 0.70263 0.66248 0.0
C2050 C 0.90169 0.68851 0.67795 0.0
C2051 C 0.91141 0.71001 0.66234 0.0
C2052 C 0.90364 0.71957 0.6658 0.0
C2053 C 0.90576 0.71251 0.66638 0.0
C2054 C 0.91281 0.72161 0.6572 0.0
C2055 C 0.90713 0.7242 0.66117 0.0
C2056 C 0.91492 0.71461 0.6578 0.0
C2057 C 0.9244 0.67699 0.65971 0.0
C2058 C 0.93259 0.67877 0.65004 0.0
C2059 C 0.9313 0.66723 0.65531 0.0
C2060 C 0.92636 0.66991 0.66 0.0
C2061 C 0.93439 0.67159 0.6502 0.0
C2062 C 0.92758 0.68147 0.65476 0.0
C2063 C 0.91883 0.67934 0.66451 0.0
O2064 O 0.90814 0.69053 0.67944 0.0
O2065 O 0.90041 0.68828 0.67117 0.0
O2066 O 0.91281 0.68107 0.6616 0.0
O2067 O 0.9207 0.68352 0.66969 0.0
H2068 H 0.90674 0.67503 0.67828 0.0
H2069 H 0.90197 0.6651 0.685 0.0
H2070 H 0.88588 0.6787 0.69354 0.0
H2071 H 0.89062 0.68854 0.68674 0.0
H2072 H 0.89928 0.72139 0.66899 0.0
H2073 H 0.90299 0.70901 0.66992 0.0
H2074 H 0.91553 0.72493 0.65346 0.0
H2075 H 0.91927 0.71276 0.65461 0.0
H2076 H 0.93488 0.68224 0.64614 0.0
H2077 H 0.93267 0.66171 0.65565 0.0
H2078 H 0.92398 0.6664 0.66381 0.0
H2079 H 0.92611 0.68696 0.65447 0.0
C2080 C 0.57583 0.35928 0.57563 0.0
C2081 C 0.58262 0.35656 0.57659 0.0
C2082 C 0.58731 0.36498 0.5681 0.0
C2083 C 0.58831 0.35937 0.57285 0.0
C2084 C 0.58046 0.36765 0.56717 0.0
C2085 C 0.57479 0.36481 0.57088 0.0
U2086 U 0.56762 0.34672 0.58904 0.0
O2087 O 0.55977 0.34874 0.59727 0.0
O2088 O 0.55744 0.34117 0.58885 0.0
C2089 C 0.55512 0.34447 0.59446 0.0
C2090 C 0.56977 0.35655 0.57958 0.0
C2091 C 0.54777 0.34694 0.5943 0.0
C2092 C 0.53894 0.3561 0.59294 0.0
C2093 C 0.54593 0.35381 0.59231 0.0
C2094 C 0.5356 0.34465 0.5974 0.0
C2095 C 0.5337 0.35158 0.59561 0.0
C2096 C 0.54254 0.34237 0.59673 0.0
C2097 C 0.58065 0.3335 0.59782 0.0
C2098 C 0.57914 0.32604 0.60811 0.0
C2099 C 0.59006 0.32576 0.60154 0.0
C2100 C 0.58739 0.33072 0.59687 0.0
C2101 C 0.58603 0.32346 0.60728 0.0
C2102 C 0.57647 0.33108 0.60341 0.0
C2103 C 0.57845 0.33919 0.59309 0.0
O2104 O 0.56777 0.35013 0.57798 0.0
O2105 O 0.56986 0.35775 0.58639 0.0
O2106 O 0.57666 0.34517 0.59606 0.0
O2107 O 0.57443 0.33743 0.58775 0.0
H2108 H 0.58352 0.35227 0.58024 0.0
H2109 H 0.59348 0.3571 0.57363 0.0
H2110 H 0.57947 0.37204 0.56368 0.0
H2111 H 0.56959 0.36699 0.5701 0.0
H2112 H 0.53767 0.36144 0.59141 0.0
H2113 H 0.5499 0.35742 0.5904 0.0
H2114 H 0.53178 0.34103 0.59959 0.0
H2115 H 0.54387 0.33706 0.59833 0.0
H2116 H 0.57593 0.32435 0.61251 0.0
H2117 H 0.59534 0.32378 0.60071 0.0
H2118 H 0.59068 0.33252 0.59257 0.0
H2119 H 0.57124 0.33319 0.60422 0.0
C2120 C 0.89882 0.32632 0.82544 0.0
C2121 C 0.89743 0.33278 0.82876 0.0
C2122 C 0.89249 0.33744 0.81787 0.0
C2123 C 0.89426 0.33828 0.82501 0.0
C2124 C 0.8941 0.33105 0.81453 0.0
C2125 C 0.89721 0.32554 0.81828 0.0
U2126 U 0.91117 0.31795 0.83905 0.0
O2127 O 0.90897 0.31007 0.8472 0.0
O2128 O 0.9167 0.30774 0.83892 0.0
C2129 C 0.91327 0.30541 0.84445 0.0
C2130 C 0.90158 0.32021 0.82938 0.0
C2131 C 0.91077 0.29807 0.84422 0.0
C2132 C 0.90144 0.28934 0.8436 0.0
C2133 C 0.90373 0.29632 0.84286 0.0
C2134 C 0.91323 0.2858 0.84684 0.0
C2135 C 0.90614 0.28401 0.84573 0.0
C2136 C 0.91551 0.29274 0.84607 0.0
C2137 C 0.92406 0.33094 0.84836 0.0
C2138 C 0.93249 0.32872 0.85774 0.0
C2139 C 0.93067 0.34058 0.85343 0.0
C2140 C 0.92575 0.33809 0.84862 0.0
C2141 C 0.93403 0.33596 0.85811 0.0
C2142 C 0.92749 0.32621 0.8529 0.0
C2143 C 0.91856 0.32876 0.8434 0.0
O2144 O 0.90804 0.31827 0.82787 0.0
O2145 O 0.9002 0.32007 0.83616 0.0
O2146 O 0.91249 0.32697 0.84615 0.0
O2147 O 0.9205 0.32475 0.83812 0.0
H2148 H 0.89867 0.33355 0.83426 0.0
H2149 H 0.8932 0.34318 0.82771 0.0
H2150 H 0.89276 0.33022 0.80905 0.0
H2151 H 0.89824 0.32061 0.81562 0.0
H2152 H 0.89596 0.28814 0.84259 0.0
H2153 H 0.89998 0.30035 0.84141 0.0
H2154 H 0.917 0.28191 0.84859 0.0
H2155 H 0.92096 0.29399 0.84719 0.0
H2156 H 0.93499 0.32504 0.8613 0.0
H2157 H 0.93183 0.34616 0.85349 0.0
H2158 H 0.92317 0.34179 0.84513 0.0
H2159 H 0.92624 0.32066 0.85276 0.0
C2160 C 0.93143 0.64891 0.07555 0.0
C2161 C 0.92487 0.64787 0.07882 0.0
C2162 C 0.92007 0.64306 0.06795 0.0
C2163 C 0.91927 0.64494 0.07506 0.0
C2164 C 0.92656 0.64432 0.06464 0.0
C2165 C 0.93219 0.64719 0.06842 0.0
U2166 U 0.93982 0.66119 0.0891 0.0
O2167 O 0.9475 0.65905 0.09748 0.0
O2168 O 0.95009 0.66657 0.08908 0.0
C2169 C 0.9522 0.66337 0.09484 0.0
C2170 C 0.93758 0.65152 0.07951 0.0
C2171 C 0.9596 0.66113 0.09524 0.0
C2172 C 0.96948 0.6536 0.09208 0.0
C2173 C 0.96246 0.65574 0.09106 0.0
C2174 C 0.97076 0.66231 0.10129 0.0
C2175 C 0.97366 0.65678 0.09733 0.0
C2176 C 0.96383 0.66443 0.10027 0.0
C2177 C 0.92678 0.67437 0.09793 0.0
C2178 C 0.92895 0.68301 0.10712 0.0
C2179 C 0.91728 0.68175 0.10214 0.0
C2180 C 0.91973 0.67645 0.09773 0.0
C2181 C 0.92185 0.68514 0.10686 0.0
C2182 C 0.93141 0.67765 0.10266 0.0
C2183 C 0.92898 0.66873 0.09314 0.0
O2184 O 0.9397 0.65792 0.07797 0.0
O2185 O 0.93763 0.6502 0.08631 0.0
O2186 O 0.9307 0.6627 0.09605 0.0
O2187 O 0.93309 0.67053 0.08789 0.0
H2188 H 0.92411 0.64923 0.0843 0.0
H2189 H 0.91429 0.64414 0.07772 0.0
H2190 H 0.92736 0.64289 0.05918 0.0
H2191 H 0.93718 0.64796 0.06579 0.0
H2192 H 0.97155 0.64932 0.08895 0.0
H2193 H 0.95926 0.65313 0.08714 0.0
H2194 H 0.97385 0.66498 0.10527 0.0
H2195 H 0.96172 0.66862 0.10351 0.0
H2196 H 0.9326 0.68554 0.11069 0.0
H2197 H 0.91176 0.68315 0.1019 0.0
H2198 H 0.91608 0.67393 0.09414 0.0
H2199 H 0.93688 0.67609 0.10289 0.0
C2200 C 0.60919 0.68156 0.32572 0.0
C2201 C 0.60559 0.67513 0.32523 0.0
C2202 C 0.61501 0.67032 0.31796 0.0
C2203 C 0.60846 0.66956 0.32135 0.0
C2204 C 0.61855 0.67679 0.31847 0.0
C2205 C 0.61567 0.68235 0.32231 0.0
U2206 U 0.59676 0.68947 0.33949 0.0
O2207 O 0.59888 0.69734 0.34769 0.0
O2208 O 0.59106 0.69957 0.33946 0.0
C2209 C 0.59444 0.70192 0.34502 0.0
C2210 C 0.60639 0.68752 0.3298 0.0
C2211 C 0.59674 0.70932 0.34487 0.0
C2212 C 0.60553 0.71844 0.34304 0.0
C2213 C 0.6034 0.71139 0.34245 0.0
C2214 C 0.59432 0.72137 0.34835 0.0
C2215 C 0.60104 0.72351 0.34609 0.0
C2216 C 0.59221 0.71437 0.34771 0.0
C2217 C 0.58383 0.6764 0.34855 0.0
C2218 C 0.57499 0.67875 0.35749 0.0
C2219 C 0.57659 0.66692 0.35303 0.0
C2220 C 0.58193 0.6693 0.34862 0.0
C2221 C 0.57301 0.67161 0.35748 0.0
C2222 C 0.58037 0.68115 0.35302 0.0
C2223 C 0.58944 0.67855 0.3437 0.0
O2224 O 0.5999 0.68941 0.32836 0.0
O2225 O 0.60776 0.6874 0.33657 0.0
O2226 O 0.59546 0.68041 0.34656 0.0
O2227 O 0.58757 0.68253 0.33838 0.0
H2228 H 0.60059 0.67441 0.32788 0.0
H2229 H 0.60564 0.66461 0.32111 0.0
H2230 H 0.62355 0.67757 0.31586 0.0
H2231 H 0.61851 0.68728 0.32262 0.0
H2232 H 0.6107 0.7199 0.34116 0.0
H2233 H 0.60698 0.70755 0.34023 0.0
H2234 H 0.59076 0.72503 0.35085 0.0
H2235 H 0.58706 0.71286 0.34965 0.0
H2236 H 0.57231 0.68249 0.36085 0.0
H2237 H 0.57531 0.66137 0.35299 0.0
H2238 H 0.58459 0.66556 0.34523 0.0
H2239 H 0.58179 0.68667 0.35304 0.0
C2240 C 0.93247 0.57575 0.64861 0.0
C2241 C 0.93155 0.58253 0.65139 0.0
C2242 C 0.94006 0.58721 0.643 0.0
C2243 C 0.93532 0.58822 0.64861 0.0
C2244 C 0.94098 0.58038 0.6403 0.0
C2245 C 0.93722 0.57472 0.64308 0.0
U2246 U 0.91893 0.56773 0.66108 0.0
O2247 O 0.91058 0.56001 0.65906 0.0
O2248 O 0.91891 0.5576 0.66672 0.0
C2249 C 0.91323 0.55538 0.66346 0.0
C2250 C 0.92847 0.5697 0.65131 0.0
C2251 C 0.91311 0.54797 0.66123 0.0
C2252 C 0.91461 0.5387 0.65253 0.0
C2253 C 0.91553 0.54574 0.65462 0.0
C2254 C 0.90907 0.53612 0.66371 0.0
C2255 C 0.91123 0.53386 0.65701 0.0
C2256 C 0.91001 0.54309 0.66578 0.0
C2257 C 0.91013 0.58079 0.67413 0.0
C2258 C 0.89993 0.57895 0.68163 0.0
C2259 C 0.90597 0.59018 0.68165 0.0
C2260 C 0.91077 0.58763 0.67675 0.0
C2261 C 0.90043 0.58593 0.68405 0.0
C2262 C 0.90475 0.57639 0.67665 0.0
C2263 C 0.91496 0.57866 0.66851 0.0
O2264 O 0.93001 0.5677 0.65774 0.0
O2265 O 0.92168 0.56984 0.65004 0.0
O2266 O 0.91206 0.57691 0.66249 0.0
O2267 O 0.92024 0.57458 0.67032 0.0
H2268 H 0.92788 0.58342 0.65566 0.0
H2269 H 0.93444 0.59342 0.65076 0.0
H2270 H 0.94466 0.57939 0.63606 0.0
H2271 H 0.938 0.56951 0.64089 0.0
H2272 H 0.91632 0.53712 0.64733 0.0
H2273 H 0.91793 0.54944 0.65102 0.0
H2274 H 0.90657 0.53251 0.66734 0.0
H2275 H 0.90813 0.54472 0.67091 0.0
H2276 H 0.89569 0.57558 0.68339 0.0
H2277 H 0.90655 0.59554 0.68351 0.0
H2278 H 0.9149 0.59107 0.67487 0.0
H2279 H 0.90419 0.57108 0.67466 0.0
C2280 C 0.68165 0.68255 0.89898 0.0
C2281 C 0.67507 0.68244 0.90234 0.0
C2282 C 0.67032 0.69037 0.89344 0.0
C2283 C 0.66945 0.68634 0.89959 0.0
C2284 C 0.67693 0.69044 0.89012 0.0
C2285 C 0.68253 0.68657 0.89287 0.0
U2286 U 0.68949 0.66879 0.91138 0.0
O2287 O 0.69714 0.66039 0.90926 0.0
O2288 O 0.69961 0.66863 0.917 0.0
C2289 C 0.70179 0.66297 0.91368 0.0
C2290 C 0.68763 0.67845 0.90168 0.0
C2291 C 0.70917 0.66287 0.91139 0.0
C2292 C 0.71868 0.66615 0.90349 0.0
C2293 C 0.71161 0.6667 0.90557 0.0
C2294 C 0.72084 0.658 0.91304 0.0
C2295 C 0.72338 0.66176 0.9072 0.0
C2296 C 0.71384 0.65857 0.91511 0.0
C2297 C 0.67643 0.65987 0.92432 0.0
C2298 C 0.67872 0.65035 0.93257 0.0
C2299 C 0.6669 0.65492 0.93116 0.0
C2300 C 0.66933 0.65974 0.92622 0.0
C2301 C 0.67153 0.6501 0.93432 0.0
C2302 C 0.68116 0.6552 0.92755 0.0
C2303 C 0.67855 0.66479 0.91877 0.0
O2304 O 0.68961 0.67991 0.90815 0.0
O2305 O 0.68742 0.67167 0.90036 0.0
O2306 O 0.68025 0.66198 0.9127 0.0
O2307 O 0.68267 0.67002 0.92065 0.0
H2308 H 0.67428 0.67932 0.90704 0.0
H2309 H 0.66441 0.68611 0.90223 0.0
H2310 H 0.6778 0.69356 0.88543 0.0
H2311 H 0.68757 0.68671 0.89023 0.0
H2312 H 0.72046 0.66917 0.899 0.0
H2313 H 0.70806 0.67006 0.90263 0.0
H2314 H 0.72422 0.65444 0.91594 0.0
H2315 H 0.71202 0.65554 0.91959 0.0
H2316 H 0.6824 0.64669 0.93492 0.0
H2317 H 0.66136 0.65493 0.93249 0.0
H2318 H 0.66562 0.66332 0.92379 0.0
H2319 H 0.68668 0.65524 0.92613 0.0
C2320 C 0.57538 0.42955 0.14858 0.0
C2321 C 0.57619 0.42283 0.15152 0.0
C2322 C 0.56793 0.4181 0.14292 0.0
C2323 C 0.57246 0.41712 0.1487 0.0
C2324 C 0.56711 0.42488 0.14011 0.0
C2325 C 0.57081 0.43053 0.14291 0.0
U2326 U 0.58812 0.44041 0.16055 0.0
O2327 O 0.59502 0.449 0.15683 0.0
O2328 O 0.58597 0.45129 0.16394 0.0
C2329 C 0.59125 0.45372 0.16018 0.0
C2330 C 0.57913 0.43575 0.15119 0.0
C2331 C 0.5928 0.46127 0.15987 0.0
C2332 C 0.5897 0.47297 0.15583 0.0
C2333 C 0.58785 0.46597 0.1571 0.0
C2334 C 0.60133 0.47073 0.16052 0.0
C2335 C 0.5965 0.47546 0.15746 0.0
C2336 C 0.59953 0.46369 0.1616 0.0
C2337 C 0.59828 0.42992 0.17559 0.0
C2338 C 0.6099 0.42867 0.18086 0.0
C2339 C 0.59996 0.42242 0.18578 0.0
C2340 C 0.59556 0.42542 0.18076 0.0
C2341 C 0.60721 0.42383 0.18577 0.0
C2342 C 0.60547 0.43167 0.17576 0.0
C2343 C 0.59365 0.43159 0.1696 0.0
O2344 O 0.57725 0.43812 0.1574 0.0
O2345 O 0.58595 0.43598 0.15008 0.0
O2346 O 0.59653 0.43302 0.16347 0.0
O2347 O 0.58779 0.43505 0.17083 0.0
H2348 H 0.57971 0.42201 0.15593 0.0
H2349 H 0.57321 0.41194 0.15095 0.0
H2350 H 0.56356 0.42584 0.13575 0.0
H2351 H 0.57009 0.43571 0.14062 0.0
H2352 H 0.58585 0.47633 0.15332 0.0
H2353 H 0.58266 0.46414 0.1556 0.0
H2354 H 0.60655 0.47242 0.16204 0.0
H2355 H 0.60343 0.4601 0.16371 0.0
H2356 H 0.61548 0.42985 0.18074 0.0
H2357 H 0.59771 0.41879 0.18956 0.0
H2358 H 0.59006 0.42395 0.1807 0.0
H2359 H 0.60771 0.43508 0.17178 0.0
C2360 C 0.82604 0.32558 0.39868 0.0
C2361 C 0.83283 0.32641 0.40144 0.0
C2362 C 0.83745 0.31799 0.39289 0.0
C2363 C 0.83848 0.32263 0.39859 0.0
C2364 C 0.83059 0.31719 0.3902 0.0
C2365 C 0.82496 0.32092 0.39308 0.0
U2366 U 0.81795 0.3391 0.41123 0.0
O2367 O 0.81027 0.34749 0.40914 0.0
O2368 O 0.80772 0.3391 0.41668 0.0
C2369 C 0.80557 0.34482 0.41345 0.0
C2370 C 0.82002 0.32961 0.40141 0.0
C2371 C 0.79819 0.34499 0.41109 0.0
C2372 C 0.7887 0.34182 0.40311 0.0
C2373 C 0.79574 0.34118 0.40526 0.0
C2374 C 0.78656 0.35003 0.41262 0.0
C2375 C 0.78402 0.3463 0.40676 0.0
C2376 C 0.79354 0.34935 0.41476 0.0
C2377 C 0.83098 0.34779 0.42449 0.0
C2378 C 0.82907 0.35761 0.43247 0.0
C2379 C 0.84054 0.35208 0.43174 0.0
C2380 C 0.83796 0.34737 0.42676 0.0
C2381 C 0.83617 0.35732 0.43457 0.0
C2382 C 0.82649 0.35288 0.42742 0.0
C2383 C 0.82879 0.34301 0.41883 0.0
O2384 O 0.81797 0.32803 0.40782 0.0
O2385 O 0.8202 0.33641 0.40021 0.0
O2386 O 0.82711 0.34595 0.41281 0.0
O2387 O 0.82465 0.33776 0.42059 0.0
H2388 H 0.83376 0.32999 0.40578 0.0
H2389 H 0.84365 0.32332 0.40089 0.0
H2390 H 0.82957 0.31379 0.38574 0.0
H2391 H 0.81976 0.32024 0.39086 0.0
H2392 H 0.78692 0.33881 0.39862 0.0
H2393 H 0.79927 0.33777 0.40236 0.0
H2394 H 0.78322 0.35364 0.41548 0.0
H2395 H 0.79536 0.35237 0.41925 0.0
H2396 H 0.82561 0.36162 0.43457 0.0
H2397 H 0.84599 0.35166 0.43333 0.0
H2398 H 0.84149 0.34346 0.42457 0.0
H2399 H 0.82107 0.35327 0.4257 0.0
C2400 C 0.9318 0.43194 0.85944 0.0
C2401 C 0.93087 0.42514 0.8567 0.0
C2402 C 0.93965 0.42057 0.86487 0.0
C2403 C 0.93478 0.4195 0.85939 0.0
C2404 C 0.94056 0.4274 0.86755 0.0
C2405 C 0.93667 0.43303 0.86485 0.0
U2406 U 0.91821 0.44004 0.84698 0.0
O2407 O 0.90995 0.44787 0.849 0.0
O2408 O 0.91835 0.4502 0.84141 0.0
C2409 C 0.9127 0.45249 0.84466 0.0
C2410 C 0.92772 0.43796 0.85678 0.0
C2411 C 0.91275 0.45987 0.84702 0.0
C2412 C 0.91524 0.46904 0.85558 0.0
C2413 C 0.91581 0.46201 0.85338 0.0
C2414 C 0.90864 0.4718 0.84504 0.0
C2415 C 0.91158 0.47402 0.85146 0.0
C2416 C 0.90925 0.46483 0.84285 0.0
C2417 C 0.90963 0.42717 0.83352 0.0
C2418 C 0.89929 0.42862 0.82611 0.0
C2419 C 0.907 0.4186 0.82446 0.0
C2420 C 0.91127 0.42096 0.82991 0.0
C2421 C 0.90097 0.42239 0.82248 0.0
C2422 C 0.90362 0.43102 0.83159 0.0
C2423 C 0.91425 0.42923 0.83936 0.0
O2424 O 0.92928 0.44004 0.85037 0.0
O2425 O 0.92092 0.43775 0.858 0.0
O2426 O 0.9112 0.431 0.84531 0.0
O2427 O 0.91966 0.43321 0.83775 0.0
H2428 H 0.92712 0.42421 0.85251 0.0
H2429 H 0.93392 0.41429 0.85725 0.0
H2430 H 0.94432 0.42841 0.87171 0.0
H2431 H 0.93747 0.43824 0.867 0.0
H2432 H 0.91765 0.47057 0.86051 0.0
H2433 H 0.91855 0.45825 0.85667 0.0
H2434 H 0.90566 0.47539 0.84178 0.0
H2435 H 0.90681 0.46325 0.83794 0.0
H2436 H 0.89467 0.43163 0.82467 0.0
H2437 H 0.90837 0.41373 0.82183 0.0
H2438 H 0.91585 0.4179 0.83137 0.0
H2439 H 0.90228 0.43584 0.83433 0.0
C2440 C 0.82632 0.68195 0.10944 0.0
C2441 C 0.83285 0.68193 0.10599 0.0
C2442 C 0.83777 0.68958 0.11507 0.0
C2443 C 0.83852 0.68573 0.10877 0.0
C2444 C 0.8312 0.68955 0.11847 0.0
C2445 C 0.82554 0.68579 0.11567 0.0
U2446 U 0.81798 0.66864 0.0968 0.0
O2447 O 0.81005 0.66047 0.0988 0.0
O2448 O 0.80778 0.66898 0.0913 0.0
C2449 C 0.80543 0.66333 0.09452 0.0
C2450 C 0.82025 0.67801 0.10669 0.0
C2451 C 0.79806 0.66344 0.09692 0.0
C2452 C 0.78906 0.66517 0.10585 0.0
C2453 C 0.79608 0.66582 0.10362 0.0
C2454 C 0.786 0.65988 0.09468 0.0
C2455 C 0.78395 0.66208 0.10144 0.0
C2456 C 0.79296 0.66058 0.09245 0.0
C2457 C 0.83054 0.65982 0.08325 0.0
C2458 C 0.82889 0.64926 0.07622 0.0
C2459 C 0.83898 0.65678 0.07419 0.0
C2460 C 0.83668 0.66129 0.07949 0.0
C2461 C 0.83514 0.65069 0.07249 0.0
C2462 C 0.8266 0.6538 0.08156 0.0
C2463 C 0.82867 0.66453 0.08909 0.0
O2464 O 0.81821 0.67967 0.10029 0.0
O2465 O 0.82035 0.67119 0.10784 0.0
O2466 O 0.82692 0.66152 0.09506 0.0
O2467 O 0.82476 0.67 0.08751 0.0
H2468 H 0.83355 0.67899 0.10115 0.0
H2469 H 0.84347 0.6857 0.10594 0.0
H2470 H 0.83043 0.69232 0.12338 0.0
H2471 H 0.82055 0.68583 0.11842 0.0
H2472 H 0.78767 0.66701 0.11106 0.0
H2473 H 0.79995 0.66805 0.10715 0.0
H2474 H 0.7823 0.65736 0.09116 0.0
H2475 H 0.7944 0.65867 0.08728 0.0
H2476 H 0.82578 0.64464 0.075 0.0
H2477 H 0.84388 0.65798 0.07156 0.0
H2478 H 0.83981 0.66588 0.08075 0.0
H2479 H 0.82182 0.65258 0.08442 0.0
C2480 C 0.57542 0.57587 0.35933 0.0
C2481 C 0.57638 0.58267 0.35661 0.0
C2482 C 0.56781 0.58731 0.36495 0.0
C2483 C 0.57259 0.58834 0.35939 0.0
C2484 C 0.56687 0.58048 0.36762 0.0
C2485 C 0.57063 0.57482 0.36483 0.0
U2486 U 0.58894 0.56789 0.3468 0.0
O2487 O 0.59731 0.56016 0.3488 0.0
O2488 O 0.58894 0.55775 0.34118 0.0
C2489 C 0.59463 0.55552 0.34443 0.0
C2490 C 0.57942 0.56983 0.35661 0.0
C2491 C 0.59469 0.54814 0.34675 0.0
C2492 C 0.59184 0.53879 0.35501 0.0
C2493 C 0.59121 0.54583 0.35283 0.0
C2494 C 0.59935 0.53639 0.34501 0.0
C2495 C 0.59599 0.53399 0.35115 0.0
C2496 C 0.59868 0.54336 0.34284 0.0
C2497 C 0.59769 0.58111 0.33378 0.0
C2498 C 0.60745 0.57924 0.32572 0.0
C2499 C 0.60206 0.59076 0.3267 0.0
C2500 C 0.59735 0.58814 0.33165 0.0
C2501 C 0.60724 0.58638 0.32376 0.0
C2502 C 0.60271 0.57662 0.33074 0.0
C2503 C 0.59289 0.57885 0.33938 0.0
O2504 O 0.57787 0.56786 0.35017 0.0
O2505 O 0.58622 0.56998 0.35784 0.0
O2506 O 0.59581 0.57707 0.34539 0.0
O2507 O 0.58764 0.57475 0.33755 0.0
H2508 H 0.58008 0.58358 0.35237 0.0
H2509 H 0.57348 0.59355 0.35726 0.0
H2510 H 0.56316 0.57949 0.37184 0.0
H2511 H 0.56982 0.5696 0.36698 0.0
H2512 H 0.58911 0.53713 0.35972 0.0
H2513 H 0.58809 0.54946 0.35592 0.0
H2514 H 0.60271 0.53294 0.34196 0.0
H2515 H 0.60144 0.54507 0.33815 0.0
H2516 H 0.6114 0.57577 0.32354 0.0
H2517 H 0.60169 0.59625 0.32521 0.0
H2518 H 0.59349 0.59167 0.33393 0.0
H2519 H 0.60304 0.57116 0.33234 0.0
C2520 C 0.68169 0.32596 0.60948 0.0
C2521 C 0.67473 0.32821 0.60849 0.0
C2522 C 0.67038 0.31802 0.615 0.0
C2523 C 0.66913 0.3243 0.61125 0.0
C2524 C 0.67738 0.31575 0.61584 0.0
C2525 C 0.68296 0.31969 0.61313 0.0
U2526 U 0.68972 0.33969 0.59715 0.0
O2527 O 0.69739 0.3481 0.59927 0.0
O2528 O 0.69992 0.33978 0.59165 0.0
C2529 C 0.70207 0.34549 0.59491 0.0
C2530 C 0.68771 0.33009 0.60687 0.0
C2531 C 0.70947 0.34569 0.5972 0.0
C2532 C 0.71911 0.34238 0.60495 0.0
C2533 C 0.71204 0.34173 0.60288 0.0
C2534 C 0.72103 0.3509 0.59567 0.0
C2535 C 0.72369 0.34701 0.60137 0.0
C2536 C 0.71402 0.35022 0.59361 0.0
C2537 C 0.67668 0.34824 0.58383 0.0
C2538 C 0.67859 0.358 0.57578 0.0
C2539 C 0.66744 0.35182 0.5758 0.0
C2540 C 0.66989 0.34741 0.58111 0.0
C2541 C 0.67175 0.35716 0.57304 0.0
C2542 C 0.68105 0.35355 0.58114 0.0
C2543 C 0.67885 0.34354 0.58956 0.0
O2544 O 0.68984 0.32859 0.60047 0.0
O2545 O 0.68748 0.33689 0.60814 0.0
O2546 O 0.68054 0.34653 0.59555 0.0
O2547 O 0.68298 0.33827 0.58784 0.0
H2548 H 0.67363 0.33304 0.60566 0.0
H2549 H 0.66384 0.32629 0.61056 0.0
H2550 H 0.67857 0.31088 0.61855 0.0
H2551 H 0.6883 0.31784 0.61391 0.0
H2552 H 0.72098 0.33925 0.60932 0.0
H2553 H 0.70859 0.3382 0.60572 0.0
H2554 H 0.7243 0.35462 0.59287 0.0
H2555 H 0.71212 0.35335 0.58924 0.0
H2556 H 0.68204 0.36204 0.57374 0.0
H2557 H 0.6621 0.35111 0.57394 0.0
H2558 H 0.66644 0.34337 0.58317 0.0
H2559 H 0.68631 0.35426 0.58319 0.0
C2560 C 0.64839 0.93234 0.57616 0.0
C2561 C 0.65154 0.93192 0.58283 0.0
C2562 C 0.6429 0.94018 0.5875 0.0
C2563 C 0.64882 0.93583 0.58846 0.0
C2564 C 0.6398 0.94057 0.5808 0.0
C2565 C 0.64253 0.93669 0.57519 0.0
U2566 U 0.6609 0.91882 0.56796 0.0
O2567 O 0.65881 0.91057 0.56013 0.0
O2568 O 0.66638 0.91899 0.55774 0.0
C2569 C 0.66315 0.9133 0.55549 0.0
C2570 C 0.65109 0.92829 0.57014 0.0
C2571 C 0.6609 0.91319 0.54808 0.0
C2572 C 0.65234 0.91505 0.53875 0.0
C2573 C 0.65443 0.91592 0.54579 0.0
C2574 C 0.66322 0.9089 0.53629 0.0
C2575 C 0.65666 0.91139 0.53396 0.0
C2576 C 0.6653 0.90979 0.54326 0.0
C2577 C 0.67446 0.90996 0.58044 0.0
C2578 C 0.68086 0.89895 0.5792 0.0
C2579 C 0.68393 0.90711 0.58849 0.0
C2580 C 0.67871 0.91171 0.58618 0.0
C2581 C 0.68505 0.90064 0.58508 0.0
C2582 C 0.67559 0.90358 0.57689 0.0
C2583 C 0.66864 0.91474 0.57864 0.0
O2584 O 0.65749 0.92987 0.56806 0.0
O2585 O 0.64989 0.92148 0.57033 0.0
O2586 O 0.66261 0.9118 0.57699 0.0
O2587 O 0.67023 0.92018 0.57469 0.0
H2588 H 0.65606 0.92856 0.58368 0.0
H2589 H 0.65128 0.93537 0.59358 0.0
H2590 H 0.63529 0.94393 0.57988 0.0
H2591 H 0.64006 0.93709 0.57007 0.0
H2592 H 0.64724 0.91701 0.53711 0.0
H2593 H 0.65096 0.91856 0.54945 0.0
H2594 H 0.66673 0.90617 0.53272 0.0
H2595 H 0.67032 0.90767 0.54493 0.0
H2596 H 0.68162 0.89405 0.5764 0.0
H2597 H 0.68694 0.90855 0.59311 0.0
H2598 H 0.67788 0.91659 0.589 0.0
H2599 H 0.67236 0.90213 0.57243 0.0
C2600 C 0.14789 0.57583 0.43185 0.0
C2601 C 0.1503 0.57694 0.42496 0.0
C2602 C 0.14203 0.56815 0.42055 0.0
C2603 C 0.14739 0.57314 0.41935 0.0
C2604 C 0.13972 0.56703 0.42749 0.0
C2605 C 0.14261 0.57084 0.43307 0.0
U2606 U 0.16058 0.58922 0.44007 0.0
O2607 O 0.15861 0.59734 0.44805 0.0
O2608 O 0.16618 0.58886 0.45022 0.0
C2609 C 0.16298 0.59451 0.4526 0.0
C2610 C 0.15071 0.57982 0.43786 0.0
C2611 C 0.1608 0.59451 0.46004 0.0
C2612 C 0.15199 0.59361 0.46929 0.0
C2613 C 0.15399 0.59265 0.46223 0.0
C2614 C 0.16364 0.59802 0.47197 0.0
C2615 C 0.15675 0.59649 0.47419 0.0
C2616 C 0.16562 0.59704 0.46499 0.0
C2617 C 0.17405 0.59814 0.42743 0.0
C2618 C 0.18025 0.60934 0.42791 0.0
C2619 C 0.18344 0.60062 0.41918 0.0
C2620 C 0.17835 0.59608 0.42183 0.0
C2621 C 0.18434 0.60738 0.42205 0.0
C2622 C 0.17511 0.60475 0.43058 0.0
C2623 C 0.16822 0.59343 0.42938 0.0
O2624 O 0.15713 0.57817 0.43983 0.0
O2625 O 0.14955 0.58663 0.43776 0.0
O2626 O 0.16224 0.5964 0.43116 0.0
O2627 O 0.16984 0.58792 0.43322 0.0
H2628 H 0.15438 0.58078 0.42392 0.0
H2629 H 0.14925 0.57419 0.41407 0.0
H2630 H 0.13571 0.56315 0.42865 0.0
H2631 H 0.14071 0.56989 0.43836 0.0
H2632 H 0.14664 0.5924 0.47082 0.0
H2633 H 0.15019 0.59068 0.45848 0.0
H2634 H 0.16748 0.6001 0.47563 0.0
H2635 H 0.1709 0.59849 0.46339 0.0
H2636 H 0.18083 0.61451 0.43024 0.0
H2637 H 0.18661 0.59887 0.41478 0.0
H2638 H 0.17763 0.59099 0.41935 0.0
H2639 H 0.17185 0.60643 0.43494 0.0
C2640 C 0.68217 0.89882 0.68193 0.0
C2641 C 0.681 0.90128 0.67507 0.0
C2642 C 0.68985 0.89313 0.67054 0.0
C2643 C 0.68482 0.89848 0.66942 0.0
C2644 C 0.69101 0.89076 0.67746 0.0
C2645 C 0.68723 0.89359 0.68308 0.0
U2646 U 0.66862 0.9113 0.69007 0.0
O2647 O 0.66025 0.90919 0.69775 0.0
O2648 O 0.66869 0.91668 0.70034 0.0
C2649 C 0.66293 0.91349 0.70246 0.0
C2650 C 0.67811 0.90149 0.68794 0.0
C2651 C 0.66261 0.91122 0.70984 0.0
C2652 C 0.66512 0.90308 0.71941 0.0
C2653 C 0.66613 0.90525 0.71241 0.0
C2654 C 0.65726 0.91293 0.72129 0.0
C2655 C 0.66053 0.90683 0.72388 0.0
C2656 C 0.65828 0.91508 0.71437 0.0
C2657 C 0.6598 0.92485 0.67762 0.0
C2658 C 0.64878 0.93121 0.67899 0.0
C2659 C 0.65681 0.93431 0.6696 0.0
C2660 C 0.66146 0.92911 0.67185 0.0
C2661 C 0.65039 0.93541 0.6731 0.0
C2662 C 0.65346 0.92597 0.68124 0.0
C2663 C 0.66462 0.91907 0.67938 0.0
O2664 O 0.67969 0.90789 0.69004 0.0
O2665 O 0.6713 0.9003 0.68772 0.0
O2666 O 0.66172 0.913 0.68096 0.0
O2667 O 0.67001 0.92068 0.6834 0.0
H2668 H 0.67713 0.90534 0.67408 0.0
H2669 H 0.68385 0.90053 0.6642 0.0
H2670 H 0.69473 0.88658 0.67854 0.0
H2671 H 0.68818 0.89162 0.68834 0.0
H2672 H 0.66771 0.89835 0.72125 0.0
H2673 H 0.66951 0.9022 0.70898 0.0
H2674 H 0.65381 0.91602 0.72461 0.0
H2675 H 0.65554 0.91971 0.71249 0.0
H2676 H 0.64392 0.93197 0.68186 0.0
H2677 H 0.65818 0.93732 0.66496 0.0
H2678 H 0.6663 0.92829 0.66897 0.0
H2679 H 0.65208 0.92273 0.68573 0.0
C2680 C 0.35933 0.43215 0.93181 0.0
C2681 C 0.35631 0.43156 0.9251 0.0
C2682 C 0.36499 0.43978 0.92038 0.0
C2683 C 0.3591 0.43536 0.91943 0.0
C2684 C 0.36795 0.44032 0.92714 0.0
C2685 C 0.36513 0.43656 0.93279 0.0
U2686 U 0.34692 0.41852 0.93992 0.0
O2687 O 0.34902 0.41034 0.94781 0.0
O2688 O 0.3413 0.41865 0.95008 0.0
C2689 C 0.34471 0.41311 0.95245 0.0
C2690 C 0.35661 0.42814 0.93785 0.0
C2691 C 0.34718 0.41338 0.9598 0.0
C2692 C 0.35648 0.41406 0.96857 0.0
C2693 C 0.35424 0.41468 0.96156 0.0
C2694 C 0.34463 0.41104 0.9721 0.0
C2695 C 0.35172 0.4121 0.97392 0.0
C2696 C 0.3424 0.41169 0.96513 0.0
C2697 C 0.3339 0.40959 0.92675 0.0
C2698 C 0.32472 0.40095 0.9289 0.0
C2699 C 0.32694 0.40513 0.91706 0.0
C2700 C 0.33229 0.40944 0.91958 0.0
C2701 C 0.32304 0.40087 0.92168 0.0
C2702 C 0.33013 0.40531 0.93143 0.0
C2703 C 0.33953 0.41436 0.92903 0.0
O2704 O 0.35015 0.42963 0.9398 0.0
O2705 O 0.35792 0.42135 0.93775 0.0
O2706 O 0.34552 0.41144 0.93088 0.0
O2707 O 0.33769 0.41967 0.93305 0.0
H2708 H 0.35181 0.42817 0.92425 0.0
H2709 H 0.3566 0.43488 0.91434 0.0
H2710 H 0.37255 0.44355 0.92808 0.0
H2711 H 0.36754 0.43705 0.93793 0.0
H2712 H 0.36196 0.41503 0.96978 0.0
H2713 H 0.35803 0.41601 0.95752 0.0
H2714 H 0.34081 0.40941 0.976 0.0
H2715 H 0.33694 0.41063 0.96387 0.0
H2716 H 0.32179 0.39775 0.93259 0.0
H2717 H 0.32589 0.40509 0.91146 0.0
H2718 H 0.33519 0.41268 0.91589 0.0
H2719 H 0.33132 0.40537 0.93701 0.0
C2720 C 0.3259 0.60936 0.68187 0.0
C2721 C 0.32716 0.60698 0.67499 0.0
C2722 C 0.3181 0.61491 0.6705 0.0
C2723 C 0.32328 0.60973 0.66936 0.0
C2724 C 0.31686 0.6172 0.67743 0.0
C2725 C 0.32071 0.61443 0.68305 0.0
U2726 U 0.33952 0.59693 0.68996 0.0
O2727 O 0.34772 0.59895 0.69784 0.0
O2728 O 0.33935 0.59129 0.7001 0.0
C2729 C 0.34499 0.59455 0.70242 0.0
C2730 C 0.32997 0.60668 0.68788 0.0
C2731 C 0.34499 0.59677 0.70984 0.0
C2732 C 0.34329 0.60542 0.71912 0.0
C2733 C 0.34249 0.60336 0.71207 0.0
C2734 C 0.3489 0.59428 0.72174 0.0
C2735 C 0.34665 0.60095 0.72399 0.0
C2736 C 0.34807 0.59222 0.71475 0.0
C2737 C 0.34827 0.58347 0.67727 0.0
C2738 C 0.35906 0.57667 0.67846 0.0
C2739 C 0.3507 0.57385 0.66927 0.0
C2740 C 0.34634 0.57929 0.67153 0.0
C2741 C 0.3571 0.57248 0.67269 0.0
C2742 C 0.35464 0.58212 0.68078 0.0
C2743 C 0.34359 0.58932 0.67919 0.0
O2744 O 0.32843 0.60026 0.68993 0.0
O2745 O 0.33677 0.60793 0.6877 0.0
O2746 O 0.34658 0.5953 0.68096 0.0
O2747 O 0.33813 0.58771 0.68309 0.0
H2748 H 0.33113 0.60302 0.67399 0.0
H2749 H 0.32431 0.60774 0.66412 0.0
H2750 H 0.31302 0.62126 0.67853 0.0
H2751 H 0.31968 0.61633 0.68832 0.0
H2752 H 0.34153 0.61061 0.7207 0.0
H2753 H 0.34011 0.60695 0.70834 0.0
H2754 H 0.35138 0.59066 0.72537 0.0
H2755 H 0.35001 0.58711 0.71313 0.0
H2756 H 0.36396 0.57571 0.6812 0.0
H2757 H 0.3491 0.57078 0.66473 0.0
H2758 H 0.34148 0.58028 0.66874 0.0
H2759 H 0.35622 0.5853 0.68524 0.0
C2760 C 0.85958 0.07606 0.07603 0.0
C2761 C 0.85658 0.07633 0.08277 0.0
C2762 C 0.8656 0.06834 0.0872 0.0
C2763 C 0.85956 0.07249 0.08831 0.0
C2764 C 0.86854 0.0681 0.08041 0.0
C2765 C 0.86554 0.07191 0.07489 0.0
U2766 U 0.84663 0.08939 0.06819 0.0
O2767 O 0.84838 0.09761 0.06027 0.0
O2768 O 0.8409 0.08905 0.05811 0.0
C2769 C 0.84409 0.09469 0.05569 0.0
C2770 C 0.85663 0.08007 0.07011 0.0
C2771 C 0.84651 0.09444 0.04835 0.0
C2772 C 0.85567 0.09323 0.03951 0.0
C2773 C 0.85344 0.09267 0.04652 0.0
C2774 C 0.84403 0.09714 0.03613 0.0
C2775 C 0.85101 0.09559 0.03424 0.0
C2776 C 0.84181 0.09655 0.04309 0.0
C2777 C 0.83321 0.09803 0.08101 0.0
C2778 C 0.82726 0.10938 0.08119 0.0
C2779 C 0.82337 0.09999 0.08887 0.0
C2780 C 0.82854 0.09558 0.08613 0.0
C2781 C 0.82279 0.107 0.08659 0.0
C2782 C 0.83246 0.10493 0.07842 0.0
C2783 C 0.83909 0.09341 0.07901 0.0
O2784 O 0.8502 0.07839 0.06823 0.0
O2785 O 0.85773 0.08689 0.07028 0.0
O2786 O 0.84502 0.09645 0.07719 0.0
O2787 O 0.83751 0.08789 0.07516 0.0
H2788 H 0.85195 0.07951 0.08374 0.0
H2789 H 0.85708 0.07272 0.09343 0.0
H2790 H 0.87326 0.06508 0.07937 0.0
H2791 H 0.86793 0.07166 0.06973 0.0
H2792 H 0.86106 0.09188 0.03824 0.0
H2793 H 0.85715 0.09101 0.05052 0.0
H2794 H 0.84031 0.09909 0.03227 0.0
H2795 H 0.83646 0.09798 0.04442 0.0
H2796 H 0.82694 0.11475 0.07932 0.0
H2797 H 0.81991 0.09792 0.09289 0.0
H2798 H 0.82901 0.09028 0.08818 0.0
H2799 H 0.83601 0.10693 0.07444 0.0
C2800 C 0.68213 0.10939 0.82582 0.0
C2801 C 0.68131 0.1066 0.83261 0.0
C2802 C 0.68991 0.11497 0.8372 0.0
C2803 C 0.68518 0.10935 0.83824 0.0
C2804 C 0.69071 0.11769 0.83036 0.0
C2805 C 0.68687 0.11491 0.82474 0.0
U2806 U 0.66838 0.09703 0.81793 0.0
O2807 O 0.66001 0.09911 0.81022 0.0
O2808 O 0.66829 0.09143 0.80778 0.0
C2809 C 0.66262 0.09471 0.80558 0.0
C2810 C 0.67803 0.10672 0.81982 0.0
C2811 C 0.66251 0.09701 0.79818 0.0
C2812 C 0.66606 0.1047 0.78858 0.0
C2813 C 0.66665 0.10258 0.79564 0.0
C2814 C 0.65728 0.09568 0.78661 0.0
C2815 C 0.66133 0.10129 0.78398 0.0
C2816 C 0.65789 0.09357 0.79361 0.0
C2817 C 0.65969 0.08401 0.83122 0.0
C2818 C 0.65051 0.07532 0.82923 0.0
C2819 C 0.65563 0.07669 0.84083 0.0
C2820 C 0.65999 0.08199 0.83828 0.0
C2821 C 0.65087 0.07325 0.83635 0.0
C2822 C 0.65492 0.08067 0.82667 0.0
C2823 C 0.66444 0.08964 0.82891 0.0
O2824 O 0.67949 0.10027 0.81782 0.0
O2825 O 0.67125 0.10803 0.82003 0.0
O2826 O 0.6615 0.09563 0.82712 0.0
O2827 O 0.66968 0.0878 0.82479 0.0
H2828 H 0.67767 0.10231 0.83354 0.0
H2829 H 0.6845 0.10704 0.8434 0.0
H2830 H 0.69419 0.12208 0.82934 0.0
H2831 H 0.68755 0.11714 0.81954 0.0
H2832 H 0.66932 0.10899 0.78673 0.0
H2833 H 0.67025 0.1053 0.79911 0.0
H2834 H 0.65346 0.09302 0.78333 0.0
H2835 H 0.65463 0.08929 0.79549 0.0
H2836 H 0.64691 0.07275 0.82565 0.0
H2837 H 0.65594 0.07535 0.84636 0.0
H2838 H 0.66361 0.08455 0.84187 0.0
H2839 H 0.65462 0.08218 0.82119 0.0
C2840 C 0.82581 0.89919 0.32565 0.0
C2841 C 0.82664 0.90201 0.33243 0.0
C2842 C 0.81804 0.89366 0.33702 0.0
C2843 C 0.82276 0.89927 0.33807 0.0
C2844 C 0.81724 0.89089 0.33021 0.0
C2845 C 0.82109 0.89364 0.32458 0.0
U2846 U 0.83932 0.91172 0.31751 0.0
O2847 O 0.84756 0.90968 0.30968 0.0
O2848 O 0.83915 0.91727 0.30733 0.0
C2849 C 0.84479 0.914 0.30504 0.0
C2850 C 0.82985 0.9019 0.31963 0.0
C2851 C 0.84477 0.91168 0.29766 0.0
C2852 C 0.84375 0.90269 0.28859 0.0
C2853 C 0.84292 0.90482 0.29562 0.0
C2854 C 0.84807 0.91431 0.28561 0.0
C2855 C 0.84649 0.90739 0.28355 0.0
C2856 C 0.84721 0.91642 0.29258 0.0
C2857 C 0.84817 0.92522 0.3301 0.0
C2858 C 0.85955 0.93106 0.32974 0.0
C2859 C 0.85072 0.93479 0.33814 0.0
C2860 C 0.84608 0.92976 0.33551 0.0
C2861 C 0.85755 0.93539 0.3354 0.0
C2862 C 0.85489 0.92598 0.32711 0.0
C2863 C 0.8434 0.91942 0.32822 0.0
O2864 O 0.82826 0.90831 0.31759 0.0
O2865 O 0.83665 0.9007 0.31981 0.0
O2866 O 0.84632 0.91338 0.32655 0.0
O2867 O 0.83796 0.92104 0.32428 0.0
H2868 H 0.83028 0.90629 0.33335 0.0
H2869 H 0.82355 0.90146 0.34327 0.0
H2870 H 0.81358 0.88664 0.3292 0.0
H2871 H 0.82038 0.89143 0.31938 0.0
H2872 H 0.84251 0.89732 0.28717 0.0
H2873 H 0.84102 0.90108 0.29948 0.0
H2874 H 0.85006 0.91809 0.28184 0.0
H2875 H 0.84865 0.92174 0.29405 0.0
H2876 H 0.8648 0.9314 0.32755 0.0
H2877 H 0.84901 0.93811 0.34244 0.0
H2878 H 0.84092 0.92926 0.33787 0.0
H2879 H 0.8566 0.92252 0.32292 0.0
C2880 C 0.43188 0.3584 0.07383 0.0
C2881 C 0.425 0.35592 0.07485 0.0
C2882 C 0.4206 0.36436 0.06622 0.0
C2883 C 0.41941 0.35888 0.07107 0.0
C2884 C 0.42754 0.36672 0.06518 0.0
C2885 C 0.43311 0.36378 0.06896 0.0
U2886 U 0.43961 0.34575 0.08743 0.0
O2887 O 0.44971 0.34007 0.08749 0.0
O2888 O 0.44727 0.34767 0.09587 0.0
C2889 C 0.45188 0.34325 0.09324 0.0
C2890 C 0.43784 0.35557 0.07789 0.0
C2891 C 0.4593 0.34542 0.09352 0.0
C2892 C 0.46895 0.35344 0.09091 0.0
C2893 C 0.46192 0.35135 0.08995 0.0
C2894 C 0.47076 0.34362 0.09884 0.0
C2895 C 0.47339 0.34966 0.09549 0.0
C2896 C 0.4638 0.34154 0.09785 0.0
C2897 C 0.4263 0.33283 0.09612 0.0
C2898 C 0.42847 0.32381 0.10493 0.0
C2899 C 0.41664 0.32587 0.10065 0.0
C2900 C 0.41914 0.33116 0.09625 0.0
C2901 C 0.42126 0.32208 0.105 0.0
C2902 C 0.43098 0.32916 0.1005 0.0
C2903 C 0.42857 0.33844 0.09133 0.0
O2904 O 0.43765 0.35681 0.08469 0.0
O2905 O 0.43974 0.34911 0.07635 0.0
O2906 O 0.43266 0.33659 0.08608 0.0
O2907 O 0.43038 0.34443 0.09427 0.0
H2908 H 0.42396 0.35177 0.07861 0.0
H2909 H 0.41413 0.35698 0.07208 0.0
H2910 H 0.42869 0.37082 0.06139 0.0
H2911 H 0.43839 0.36573 0.0681 0.0
H2912 H 0.47083 0.35812 0.08827 0.0
H2913 H 0.4585 0.35442 0.08658 0.0
H2914 H 0.47407 0.34052 0.10229 0.0
H2915 H 0.46189 0.33694 0.10063 0.0
H2916 H 0.43216 0.32096 0.10821 0.0
H2917 H 0.41105 0.32479 0.10067 0.0
H2918 H 0.41545 0.33398 0.09294 0.0
H2919 H 0.43654 0.3304 0.10046 0.0
C2920 C 0.40007 0.68251 0.82393 0.0
C2921 C 0.4026 0.6757 0.82523 0.0
C2922 C 0.39439 0.67089 0.81659 0.0
C2923 C 0.3998 0.66994 0.82158 0.0
C2924 C 0.39196 0.67777 0.81529 0.0
C2925 C 0.3948 0.68351 0.8189 0.0
U2926 U 0.41251 0.69087 0.83734 0.0
O2927 O 0.41793 0.70113 0.83721 0.0
O2928 O 0.41041 0.69863 0.84564 0.0
C2929 C 0.41472 0.70331 0.84293 0.0
C2930 C 0.40271 0.68863 0.82787 0.0
C2931 C 0.41244 0.71071 0.84316 0.0
C2932 C 0.40368 0.71996 0.84184 0.0
C2933 C 0.40584 0.71297 0.84073 0.0
C2934 C 0.41477 0.72245 0.84759 0.0
C2935 C 0.40808 0.72473 0.84544 0.0
C2936 C 0.41692 0.71553 0.84645 0.0
C2937 C 0.42597 0.67808 0.84606 0.0
C2938 C 0.4322 0.67851 0.85724 0.0
C2939 C 0.43504 0.66952 0.84866 0.0
C2940 C 0.43005 0.67229 0.84408 0.0
C2941 C 0.43605 0.67246 0.85537 0.0
C2942 C 0.42716 0.68129 0.85262 0.0
C2943 C 0.42021 0.68015 0.84135 0.0
O2944 O 0.40151 0.68853 0.83468 0.0
O2945 O 0.4091 0.69073 0.82627 0.0
O2946 O 0.42186 0.68416 0.83597 0.0
O2947 O 0.41419 0.68183 0.84432 0.0
H2948 H 0.40671 0.67483 0.82909 0.0
H2949 H 0.40191 0.66476 0.82265 0.0
H2950 H 0.38773 0.67874 0.8116 0.0
H2951 H 0.39277 0.68873 0.81784 0.0
H2952 H 0.39849 0.72155 0.84013 0.0
H2953 H 0.40229 0.7093 0.83819 0.0
H2954 H 0.41833 0.72601 0.85026 0.0
H2955 H 0.42204 0.71389 0.84835 0.0
H2956 H 0.43288 0.68089 0.86237 0.0
H2957 H 0.43803 0.66497 0.84698 0.0
H2958 H 0.42922 0.66976 0.83904 0.0
H2959 H 0.42406 0.68579 0.85423 0.0
C2960 C 0.07515 0.64992 0.57401 0.0
C2961 C 0.08182 0.65309 0.57431 0.0
C2962 C 0.08651 0.64413 0.56641 0.0
C2963 C 0.08746 0.65022 0.57053 0.0
C2964 C 0.07979 0.64106 0.56609 0.0
C2965 C 0.07418 0.64393 0.56985 0.0
U2966 U 0.06717 0.66254 0.5875 0.0
O2967 O 0.05697 0.66804 0.58748 0.0
O2968 O 0.05952 0.66057 0.59593 0.0
C2969 C 0.05482 0.66486 0.59324 0.0
C2970 C 0.06916 0.65267 0.57806 0.0
C2971 C 0.04746 0.6625 0.59343 0.0
C2972 C 0.03808 0.65425 0.59064 0.0
C2973 C 0.04509 0.65647 0.58988 0.0
C2974 C 0.03582 0.6641 0.5984 0.0
C2975 C 0.03337 0.65801 0.59497 0.0
C2976 C 0.04276 0.66631 0.59761 0.0
C2977 C 0.08006 0.67598 0.59604 0.0
C2978 C 0.08017 0.68188 0.60741 0.0
C2979 C 0.08823 0.68551 0.59823 0.0
C2980 C 0.08542 0.68047 0.59373 0.0
C2981 C 0.08579 0.68615 0.60518 0.0
C2982 C 0.07733 0.6768 0.60286 0.0
C2983 C 0.07799 0.67019 0.59135 0.0
O2984 O 0.06939 0.6515 0.58487 0.0
O2985 O 0.06711 0.65908 0.57646 0.0
O2986 O 0.07394 0.67183 0.58599 0.0
O2987 O 0.07633 0.66418 0.59434 0.0
H2988 H 0.08266 0.65772 0.57752 0.0
H2989 H 0.09258 0.65268 0.57095 0.0
H2990 H 0.07885 0.63644 0.56288 0.0
H2991 H 0.06907 0.64143 0.56954 0.0
H2992 H 0.03638 0.64959 0.58785 0.0
H2993 H 0.04866 0.65345 0.58663 0.0
H2994 H 0.03244 0.66706 0.6019 0.0
H2995 H 0.04451 0.67095 0.60042 0.0
H2996 H 0.07818 0.68225 0.61273 0.0
H2997 H 0.09243 0.68884 0.59628 0.0
H2998 H 0.08758 0.67994 0.58848 0.0
H2999 H 0.07317 0.67339 0.60473 0.0
C3000 C 0.10758 0.32546 0.3237 0.0
C3001 C 0.10391 0.33186 0.32332 0.0
C3002 C 0.11331 0.33693 0.31622 0.0
C3003 C 0.10674 0.33755 0.31958 0.0
C3004 C 0.11693 0.33049 0.31661 0.0
C3005 C 0.11409 0.32482 0.32031 0.0
U3006 U 0.09497 0.31744 0.33716 0.0
O3007 O 0.08958 0.30717 0.33727 0.0
O3008 O 0.09701 0.30992 0.3457 0.0
C3009 C 0.09273 0.30516 0.34309 0.0
C3010 C 0.10484 0.31943 0.32771 0.0
C3011 C 0.09501 0.29778 0.34357 0.0
C3012 C 0.10298 0.28808 0.34098 0.0
C3013 C 0.10081 0.29507 0.33986 0.0
C3014 C 0.09352 0.28651 0.34937 0.0
C3015 C 0.09943 0.28378 0.34587 0.0
C3016 C 0.09136 0.29342 0.34823 0.0
C3017 C 0.08179 0.33059 0.34577 0.0
C3018 C 0.07407 0.32884 0.35582 0.0
C3019 C 0.07469 0.34023 0.35012 0.0
C3020 C 0.07953 0.33757 0.34531 0.0
C3021 C 0.07201 0.33595 0.35551 0.0
C3022 C 0.07898 0.32618 0.35099 0.0
C3023 C 0.0874 0.32834 0.34096 0.0
O3024 O 0.10602 0.31962 0.33452 0.0
O3025 O 0.09843 0.31737 0.32612 0.0
O3026 O 0.08561 0.32413 0.33578 0.0
O3027 O 0.09344 0.32671 0.34388 0.0
H3028 H 0.09889 0.33247 0.32595 0.0
H3029 H 0.10386 0.34246 0.31944 0.0
H3030 H 0.12195 0.32981 0.314 0.0
H3031 H 0.11699 0.31992 0.32055 0.0
H3032 H 0.10756 0.28613 0.33822 0.0
H3033 H 0.1037 0.29838 0.33623 0.0
H3034 H 0.09059 0.28332 0.35306 0.0
H3035 H 0.08686 0.29541 0.35112 0.0
H3036 H 0.07209 0.32544 0.35994 0.0
H3037 H 0.07312 0.34569 0.34968 0.0
H3038 H 0.08164 0.34104 0.34131 0.0
H3039 H 0.0807 0.32076 0.35142 0.0
C3040 C 0.43249 0.65004 0.434 0.0
C3041 C 0.42623 0.65389 0.43471 0.0
C3042 C 0.42098 0.64429 0.44144 0.0
C3043 C 0.42054 0.65105 0.43843 0.0
C3044 C 0.42729 0.64049 0.44068 0.0
C3045 C 0.43298 0.64335 0.43702 0.0
U3046 U 0.44046 0.66266 0.42053 0.0
O3047 O 0.45071 0.66804 0.42035 0.0
O3048 O 0.44792 0.66062 0.41193 0.0
C3049 C 0.45271 0.66486 0.41454 0.0
C3050 C 0.43852 0.65279 0.42998 0.0
C3051 C 0.46005 0.66243 0.41416 0.0
C3052 C 0.4698 0.65495 0.41774 0.0
C3053 C 0.46279 0.65715 0.41854 0.0
C3054 C 0.47131 0.66327 0.40821 0.0
C3055 C 0.47415 0.65798 0.41254 0.0
C3056 C 0.46436 0.66547 0.40904 0.0
C3057 C 0.42727 0.67582 0.41199 0.0
C3058 C 0.42912 0.68374 0.40211 0.0
C3059 C 0.4176 0.68278 0.4075 0.0
C3060 C 0.42024 0.67792 0.41229 0.0
C3061 C 0.42197 0.68566 0.40227 0.0
C3062 C 0.43176 0.67881 0.40694 0.0
C3063 C 0.42953 0.67023 0.4168 0.0
O3064 O 0.4383 0.6516 0.42317 0.0
O3065 O 0.44059 0.65919 0.43157 0.0
O3066 O 0.43378 0.67202 0.42195 0.0
O3067 O 0.43114 0.66418 0.41388 0.0
H3068 H 0.42575 0.65908 0.43239 0.0
H3069 H 0.4158 0.65417 0.43897 0.0
H3070 H 0.42781 0.63522 0.4428 0.0
H3071 H 0.43775 0.64028 0.43647 0.0
H3072 H 0.47182 0.6509 0.4212 0.0
H3073 H 0.45952 0.65474 0.42253 0.0
H3074 H 0.47439 0.66563 0.40405 0.0
H3075 H 0.46232 0.66951 0.40557 0.0
H3076 H 0.43259 0.68587 0.39813 0.0
H3077 H 0.4121 0.68424 0.40782 0.0
H3078 H 0.41671 0.67568 0.41617 0.0
H3079 H 0.43722 0.67722 0.40663 0.0
C3080 C 0.10781 0.68244 0.18401 0.0
C3081 C 0.10685 0.67552 0.18162 0.0
C3082 C 0.11366 0.67103 0.19155 0.0
C3083 C 0.10978 0.66987 0.18533 0.0
C3084 C 0.11445 0.67798 0.19397 0.0
C3085 C 0.11157 0.68361 0.19023 0.0
U3086 U 0.09521 0.69073 0.17066 0.0
O3087 O 0.08996 0.70106 0.17068 0.0
O3088 O 0.09727 0.69829 0.16216 0.0
C3089 C 0.09309 0.70309 0.16486 0.0
C3090 C 0.10513 0.68852 0.18001 0.0
C3091 C 0.09555 0.71043 0.16452 0.0
C3092 C 0.10337 0.72001 0.16782 0.0
C3093 C 0.10112 0.71301 0.16862 0.0
C3094 C 0.09449 0.72183 0.15887 0.0
C3095 C 0.1001 0.7245 0.16289 0.0
C3096 C 0.09225 0.7149 0.15969 0.0
C3097 C 0.08162 0.67788 0.1622 0.0
C3098 C 0.07465 0.67915 0.15155 0.0
C3099 C 0.07354 0.66867 0.15872 0.0
C3100 C 0.07844 0.67137 0.16344 0.0
C3101 C 0.0717 0.67245 0.15264 0.0
C3102 C 0.07963 0.68185 0.15629 0.0
C3103 C 0.08737 0.67999 0.16691 0.0
O3104 O 0.10623 0.68835 0.17319 0.0
O3105 O 0.09878 0.6907 0.18169 0.0
O3106 O 0.08576 0.68418 0.17217 0.0
O3107 O 0.0934 0.68154 0.1639 0.0
H3108 H 0.10395 0.67449 0.17682 0.0
H3109 H 0.10911 0.66461 0.18325 0.0
H3110 H 0.11727 0.67908 0.1988 0.0
H3111 H 0.11232 0.68892 0.19218 0.0
H3112 H 0.10766 0.7219 0.17105 0.0
H3113 H 0.10374 0.70962 0.17238 0.0
H3114 H 0.09193 0.72502 0.15491 0.0
H3115 H 0.08797 0.71298 0.15645 0.0
H3116 H 0.07333 0.68215 0.14688 0.0
H3117 H 0.07129 0.66353 0.15974 0.0
H3118 H 0.07991 0.66824 0.16798 0.0
H3119 H 0.08205 0.6869 0.15525 0.0
C3120 C 0.07537 0.3578 0.93409 0.0
C3121 C 0.08197 0.35453 0.93369 0.0
C3122 C 0.08695 0.36342 0.94152 0.0
C3123 C 0.08771 0.3573 0.9374 0.0
C3124 C 0.08028 0.36661 0.94191 0.0
C3125 C 0.07455 0.36382 0.93825 0.0
U3126 U 0.06735 0.34529 0.92061 0.0
O3127 O 0.05698 0.3401 0.92039 0.0
O3128 O 0.06004 0.34732 0.91188 0.0
C3129 C 0.05514 0.34319 0.91448 0.0
C3130 C 0.06931 0.35517 0.93004 0.0
C3131 C 0.04783 0.34565 0.91377 0.0
C3132 C 0.03756 0.35235 0.9175 0.0
C3133 C 0.0445 0.35005 0.91869 0.0
C3134 C 0.03728 0.34576 0.9066 0.0
C3135 C 0.03392 0.35032 0.91136 0.0
C3136 C 0.04414 0.34349 0.90779 0.0
C3137 C 0.08053 0.33198 0.91226 0.0
C3138 C 0.07851 0.32341 0.90299 0.0
C3139 C 0.09016 0.32487 0.90793 0.0
C3140 C 0.08762 0.33006 0.91242 0.0
C3141 C 0.08565 0.32145 0.90318 0.0
C3142 C 0.07595 0.32865 0.90752 0.0
C3143 C 0.07825 0.33763 0.91701 0.0
O3144 O 0.0696 0.35633 0.92323 0.0
O3145 O 0.06715 0.3488 0.93164 0.0
O3146 O 0.07393 0.33588 0.92212 0.0
O3147 O 0.07671 0.34367 0.91404 0.0
H3148 H 0.08269 0.34987 0.93049 0.0
H3149 H 0.09272 0.35462 0.93705 0.0
H3150 H 0.07949 0.37139 0.94491 0.0
H3151 H 0.0695 0.36643 0.93858 0.0
H3152 H 0.03512 0.35588 0.92126 0.0
H3153 H 0.04727 0.35177 0.92337 0.0
H3154 H 0.03461 0.34395 0.90191 0.0
H3155 H 0.0466 0.34005 0.90397 0.0
H3156 H 0.0749 0.32085 0.8994 0.0
H3157 H 0.09572 0.32361 0.90812 0.0
H3158 H 0.09123 0.33263 0.91601 0.0
H3159 H 0.07044 0.33011 0.90731 0.0
C3160 C 0.40024 0.32599 0.68393 0.0
C3161 C 0.40013 0.33271 0.68086 0.0
C3162 C 0.39429 0.33747 0.69122 0.0
C3163 C 0.39714 0.3384 0.68446 0.0
C3164 C 0.39464 0.33079 0.69438 0.0
C3165 C 0.39758 0.3251 0.69075 0.0
U3166 U 0.41262 0.31755 0.67055 0.0
O3167 O 0.41801 0.30728 0.67061 0.0
O3168 O 0.41052 0.30986 0.66218 0.0
C3169 C 0.4148 0.30514 0.66487 0.0
C3170 C 0.40286 0.31981 0.68004 0.0
C3171 C 0.41241 0.29777 0.66465 0.0
C3172 C 0.40405 0.28843 0.66723 0.0
C3173 C 0.40632 0.29542 0.66808 0.0
C3174 C 0.41399 0.28615 0.6596 0.0
C3175 C 0.40783 0.28372 0.6629 0.0
C3176 C 0.41625 0.29307 0.66049 0.0
C3177 C 0.42599 0.33041 0.66184 0.0
C3178 C 0.43338 0.32871 0.65154 0.0
C3179 C 0.43441 0.33936 0.65847 0.0
C3180 C 0.4292 0.33692 0.663 0.0
C3181 C 0.43657 0.33531 0.65267 0.0
C3182 C 0.42812 0.32627 0.65611 0.0
C3183 C 0.42026 0.32834 0.66658 0.0
O3184 O 0.40161 0.31978 0.67323 0.0
O3185 O 0.40925 0.31769 0.68165 0.0
O3186 O 0.42196 0.32426 0.6719 0.0
O3187 O 0.41425 0.32666 0.66362 0.0
H3188 H 0.40224 0.33355 0.67563 0.0
H3189 H 0.39704 0.34351 0.68194 0.0
H3190 H 0.39246 0.32992 0.69956 0.0
H3191 H 0.39763 0.31997 0.69321 0.0
H3192 H 0.39933 0.28674 0.66992 0.0
H3193 H 0.40328 0.29899 0.67132 0.0
H3194 H 0.41697 0.28279 0.65611 0.0
H3195 H 0.42094 0.29481 0.65776 0.0
H3196 H 0.43496 0.32544 0.64715 0.0
H3197 H 0.43662 0.34452 0.65943 0.0
H3198 H 0.42758 0.3402 0.66737 0.0
H3199 H 0.42568 0.32121 0.65514 0.0
C3200 C 0.07378 0.43232 0.35772 0.0
C3201 C 0.07456 0.42558 0.3548 0.0
C3202 C 0.06622 0.4208 0.36334 0.0
C3203 C 0.07079 0.41988 0.35757 0.0
C3204 C 0.06544 0.42761 0.36616 0.0
C3205 C 0.06916 0.43329 0.36336 0.0
U3206 U 0.08734 0.44056 0.34532 0.0
O3207 O 0.08747 0.451 0.34026 0.0
O3208 O 0.09594 0.44797 0.34754 0.0
C3209 C 0.09334 0.45286 0.34341 0.0
C3210 C 0.07787 0.43836 0.35513 0.0
C3211 C 0.09399 0.46019 0.34584 0.0
C3212 C 0.09044 0.4703 0.35289 0.0
C3213 C 0.08935 0.46331 0.35068 0.0
C3214 C 0.10069 0.47105 0.34537 0.0
C3215 C 0.0962 0.4742 0.35032 0.0
C3216 C 0.0996 0.46414 0.34318 0.0
C3217 C 0.09593 0.42807 0.33161 0.0
C3218 C 0.10686 0.4295 0.32511 0.0
C3219 C 0.09915 0.41968 0.32256 0.0
C3220 C 0.09446 0.42203 0.32767 0.0
C3221 C 0.10544 0.42334 0.32124 0.0
C3222 C 0.10213 0.43186 0.33027 0.0
C3223 C 0.09111 0.42992 0.33736 0.0
O3224 O 0.08468 0.43805 0.35629 0.0
O3225 O 0.07629 0.44061 0.34879 0.0
O3226 O 0.08586 0.43414 0.33578 0.0
O3227 O 0.09402 0.43133 0.34347 0.0
H3228 H 0.0781 0.42473 0.35042 0.0
H3229 H 0.07146 0.41476 0.35516 0.0
H3230 H 0.06208 0.42854 0.37066 0.0
H3231 H 0.06852 0.43845 0.3657 0.0
H3232 H 0.0869 0.47257 0.35672 0.0
H3233 H 0.08497 0.46034 0.35279 0.0
H3234 H 0.10509 0.47392 0.34316 0.0
H3235 H 0.1032 0.46184 0.3394 0.0
H3236 H 0.11162 0.43249 0.32418 0.0
H3237 H 0.09794 0.41484 0.31981 0.0
H3238 H 0.08972 0.41902 0.32868 0.0
H3239 H 0.10336 0.43654 0.33327 0.0
C3240 C 0.32576 0.32398 0.10835 0.0
C3241 C 0.33264 0.32546 0.10611 0.0
C3242 C 0.33726 0.31644 0.11401 0.0
C3243 C 0.33834 0.32174 0.10893 0.0
C3244 C 0.33033 0.31492 0.11611 0.0
C3245 C 0.32465 0.31867 0.11332 0.0
U3246 U 0.31745 0.33737 0.09583 0.0
O3247 O 0.3072 0.3372 0.09041 0.0
O3248 O 0.30967 0.34568 0.09786 0.0
C3249 C 0.30498 0.34292 0.0936 0.0
C3250 C 0.31968 0.32796 0.10569 0.0
C3251 C 0.29762 0.34302 0.09599 0.0
C3252 C 0.28845 0.34083 0.10464 0.0
C3253 C 0.29544 0.34004 0.10238 0.0
C3254 C 0.2858 0.34748 0.0941 0.0
C3255 C 0.28355 0.34466 0.10056 0.0
C3256 C 0.29273 0.34665 0.09185 0.0
C3257 C 0.33022 0.34597 0.08225 0.0
C3258 C 0.33033 0.3573 0.07628 0.0
C3259 C 0.33839 0.34811 0.07271 0.0
C3260 C 0.33558 0.34364 0.07779 0.0
C3261 C 0.33595 0.35505 0.07201 0.0
C3262 C 0.32748 0.35279 0.08138 0.0
C3263 C 0.32816 0.34133 0.08808 0.0
O3264 O 0.31983 0.33478 0.10684 0.0
O3265 O 0.31756 0.32633 0.09931 0.0
O3266 O 0.32416 0.33592 0.08649 0.0
O3267 O 0.32649 0.34434 0.09408 0.0
H3268 H 0.33359 0.32955 0.10226 0.0
H3269 H 0.3436 0.32312 0.10723 0.0
H3270 H 0.32925 0.31079 0.11988 0.0
H3271 H 0.31938 0.31742 0.11508 0.0
H3272 H 0.2869 0.3385 0.1096 0.0
H3273 H 0.29915 0.33721 0.10565 0.0
H3274 H 0.28229 0.35058 0.09087 0.0
H3275 H 0.29434 0.34903 0.08692 0.0
H3276 H 0.32833 0.36262 0.07587 0.0
H3277 H 0.34259 0.34613 0.0694 0.0
H3278 H 0.33775 0.3384 0.07836 0.0
H3279 H 0.32333 0.35469 0.08478 0.0
C3280 C 0.43369 0.57547 0.85818 0.0
C3281 C 0.43466 0.58168 0.8543 0.0
C3282 C 0.44122 0.58686 0.86406 0.0
C3283 C 0.43842 0.58732 0.85721 0.0
C3284 C 0.44021 0.58061 0.86789 0.0
C3285 C 0.4365 0.57498 0.86497 0.0
U3286 U 0.42016 0.56754 0.84553 0.0
O3287 O 0.42014 0.55737 0.83995 0.0
O3288 O 0.41176 0.55986 0.84752 0.0
C3289 C 0.41443 0.55519 0.84318 0.0
C3290 C 0.42968 0.56947 0.85535 0.0
C3291 C 0.41427 0.5478 0.84552 0.0
C3292 C 0.41716 0.53839 0.85371 0.0
C3293 C 0.41792 0.5454 0.85147 0.0
C3294 C 0.40919 0.53618 0.84402 0.0
C3295 C 0.41271 0.5337 0.85004 0.0
C3296 C 0.40999 0.54312 0.84179 0.0
C3297 C 0.41144 0.58088 0.83255 0.0
C3298 C 0.40261 0.57885 0.82352 0.0
C3299 C 0.40688 0.59066 0.82577 0.0
C3300 C 0.41129 0.58806 0.83101 0.0
C3301 C 0.40252 0.5861 0.82192 0.0
C3302 C 0.40707 0.57625 0.8288 0.0
C3303 C 0.41621 0.57853 0.83816 0.0
O3304 O 0.42288 0.5696 0.85659 0.0
O3305 O 0.43123 0.56752 0.84889 0.0
O3306 O 0.42144 0.57442 0.8363 0.0
O3307 O 0.41328 0.57674 0.84415 0.0
H3308 H 0.43251 0.58217 0.84905 0.0
H3309 H 0.43916 0.59201 0.85406 0.0
H3310 H 0.44215 0.58009 0.87321 0.0
H3311 H 0.43576 0.57024 0.86805 0.0
H3312 H 0.42003 0.53667 0.85832 0.0
H3313 H 0.42127 0.54895 0.85442 0.0
H3314 H 0.4056 0.53283 0.84114 0.0
H3315 H 0.40709 0.5449 0.83721 0.0
H3316 H 0.39932 0.57521 0.82062 0.0
H3317 H 0.40683 0.59627 0.8248 0.0
H3318 H 0.41459 0.59171 0.83389 0.0
H3319 H 0.40712 0.57067 0.82995 0.0
C3320 C 0.18219 0.68408 0.60817 0.0
C3321 C 0.17525 0.6825 0.60621 0.0
C3322 C 0.17084 0.69168 0.61405 0.0
C3323 C 0.16962 0.68626 0.60914 0.0
C3324 C 0.17783 0.6933 0.61587 0.0
C3325 C 0.18343 0.68953 0.61297 0.0
U3326 U 0.19031 0.67068 0.59549 0.0
O3327 O 0.20064 0.67064 0.59024 0.0
O3328 O 0.1978 0.6621 0.59752 0.0
C3329 C 0.20262 0.66478 0.59334 0.0
C3330 C 0.18821 0.68002 0.60545 0.0
C3331 C 0.20997 0.66428 0.59572 0.0
C3332 C 0.21994 0.66788 0.60291 0.0
C3333 C 0.21289 0.66875 0.60082 0.0
C3334 C 0.22112 0.65812 0.59481 0.0
C3335 C 0.22414 0.66254 0.59992 0.0
C3336 C 0.21414 0.659 0.59274 0.0
C3337 C 0.17738 0.66234 0.58191 0.0
C3338 C 0.17857 0.65168 0.57493 0.0
C3339 C 0.1681 0.65888 0.57388 0.0
C3340 C 0.17085 0.6636 0.57877 0.0
C3341 C 0.17184 0.65279 0.57203 0.0
C3342 C 0.18131 0.65642 0.57989 0.0
C3343 C 0.17954 0.66703 0.58766 0.0
O3344 O 0.18794 0.6732 0.60652 0.0
O3345 O 0.19037 0.6817 0.5991 0.0
O3346 O 0.18376 0.67226 0.58604 0.0
O3347 O 0.18107 0.66401 0.59368 0.0
H3348 H 0.17419 0.6783 0.60251 0.0
H3349 H 0.16432 0.6848 0.60766 0.0
H3350 H 0.179 0.69753 0.6195 0.0
H3351 H 0.18876 0.69084 0.61451 0.0
H3352 H 0.2221 0.67141 0.60683 0.0
H3353 H 0.20974 0.67286 0.60319 0.0
H3354 H 0.22409 0.65385 0.59249 0.0
H3355 H 0.21197 0.65548 0.58882 0.0
H3356 H 0.18154 0.647 0.57359 0.0
H3357 H 0.16296 0.65993 0.57167 0.0
H3358 H 0.16775 0.66815 0.58026 0.0
H3359 H 0.18637 0.65536 0.58228 0.0
C3360 C 0.07375 0.57542 0.15016 0.0
C3361 C 0.07364 0.5819 0.15372 0.0
C3362 C 0.06622 0.58693 0.14451 0.0
C3363 C 0.06988 0.58759 0.15093 0.0
C3364 C 0.06636 0.5804 0.14102 0.0
C3365 C 0.07007 0.57472 0.14383 0.0
U3366 U 0.08732 0.56725 0.16261 0.0
O3367 O 0.08729 0.55701 0.16805 0.0
O3368 O 0.09565 0.55954 0.16048 0.0
C3369 C 0.09298 0.55483 0.16477 0.0
C3370 C 0.07777 0.56938 0.15285 0.0
C3371 C 0.09307 0.54748 0.16234 0.0
C3372 C 0.0908 0.53836 0.15366 0.0
C3373 C 0.09003 0.54534 0.15597 0.0
C3374 C 0.09754 0.53566 0.16413 0.0
C3375 C 0.09466 0.53344 0.15769 0.0
C3376 C 0.09673 0.54257 0.16643 0.0
C3377 C 0.09612 0.58015 0.17591 0.0
C3378 C 0.10707 0.57924 0.18247 0.0
C3379 C 0.09919 0.58907 0.18446 0.0
C3380 C 0.09453 0.58635 0.17952 0.0
C3381 C 0.1056 0.58566 0.18588 0.0
C3382 C 0.10236 0.57651 0.17748 0.0
C3383 C 0.09134 0.57803 0.17022 0.0
O3384 O 0.08457 0.56953 0.1516 0.0
O3385 O 0.07623 0.56732 0.15927 0.0
O3386 O 0.08602 0.57398 0.17195 0.0
O3387 O 0.09425 0.57634 0.16418 0.0
H3388 H 0.07646 0.58254 0.15863 0.0
H3389 H 0.06982 0.5925 0.15382 0.0
H3390 H 0.06373 0.5797 0.13601 0.0
H3391 H 0.07014 0.56977 0.141 0.0
H3392 H 0.08842 0.53684 0.14872 0.0
H3393 H 0.08717 0.54907 0.15274 0.0
H3394 H 0.10066 0.53212 0.16732 0.0
H3395 H 0.09916 0.54415 0.17134 0.0
H3396 H 0.11196 0.5765 0.18347 0.0
H3397 H 0.09781 0.59392 0.1871 0.0
H3398 H 0.08972 0.58921 0.17839 0.0
H3399 H 0.10366 0.57169 0.17473 0.0
C3400 C 0.18219 0.3237 0.90033 0.0
C3401 C 0.17572 0.3235 0.90389 0.0
C3402 C 0.17064 0.31641 0.89445 0.0
C3403 C 0.17001 0.31986 0.90099 0.0
C3404 C 0.17717 0.31664 0.89096 0.0
C3405 C 0.18287 0.32023 0.89388 0.0
U3406 U 0.1902 0.33722 0.91288 0.0
O3407 O 0.20045 0.33737 0.91832 0.0
O3408 O 0.19775 0.34571 0.91077 0.0
C3409 C 0.20249 0.34313 0.91509 0.0
C3410 C 0.18823 0.32768 0.90311 0.0
C3411 C 0.20988 0.34353 0.91279 0.0
C3412 C 0.2194 0.34123 0.90454 0.0
C3413 C 0.21244 0.34009 0.90678 0.0
C3414 C 0.22126 0.34907 0.91441 0.0
C3415 C 0.22384 0.34588 0.90826 0.0
C3416 C 0.21437 0.34792 0.91663 0.0
C3417 C 0.17697 0.3461 0.92581 0.0
C3418 C 0.1791 0.35513 0.93462 0.0
C3419 C 0.16718 0.35156 0.93185 0.0
C3420 C 0.16974 0.34673 0.92698 0.0
C3421 C 0.1718 0.35589 0.93565 0.0
C3422 C 0.18168 0.35027 0.92968 0.0
C3423 C 0.17926 0.34117 0.92032 0.0
O3424 O 0.18811 0.33447 0.90185 0.0
O3425 O 0.19021 0.32613 0.90955 0.0
O3426 O 0.18347 0.33603 0.92223 0.0
O3427 O 0.18092 0.34397 0.91423 0.0
H3428 H 0.17509 0.32618 0.90888 0.0
H3429 H 0.16511 0.31972 0.9039 0.0
H3430 H 0.17785 0.31419 0.88586 0.0
H3431 H 0.18781 0.32038 0.89104 0.0
H3432 H 0.22122 0.3387 0.89977 0.0
H3433 H 0.20903 0.33668 0.90374 0.0
H3434 H 0.22455 0.35255 0.9175 0.0
H3435 H 0.21249 0.3506 0.9213 0.0
H3436 H 0.18278 0.35842 0.93747 0.0
H3437 H 0.16155 0.35192 0.93261 0.0
H3438 H 0.16605 0.34353 0.92405 0.0
H3439 H 0.1873 0.34985 0.92882 0.0
C3440 C 0.43369 0.43216 0.6499 0.0
C3441 C 0.43185 0.42524 0.65171 0.0
C3442 C 0.44125 0.42067 0.64424 0.0
C3443 C 0.43558 0.41954 0.64889 0.0
C3444 C 0.44314 0.42764 0.6426 0.0
C3445 C 0.43938 0.43331 0.64538 0.0
U3446 U 0.42017 0.44038 0.66232 0.0
O3447 O 0.42015 0.45065 0.66772 0.0
O3448 O 0.41176 0.44802 0.6602 0.0
C3449 C 0.4144 0.45275 0.66449 0.0
C3450 C 0.42965 0.43824 0.65252 0.0
C3451 C 0.41409 0.46015 0.66218 0.0
C3452 C 0.41579 0.46947 0.65356 0.0
C3453 C 0.41684 0.46247 0.65573 0.0
C3454 C 0.40942 0.47184 0.66433 0.0
C3455 C 0.41192 0.47419 0.65778 0.0
C3456 C 0.41049 0.46491 0.66648 0.0
C3457 C 0.41166 0.42747 0.67579 0.0
C3458 C 0.40165 0.42932 0.68354 0.0
C3459 C 0.40815 0.41836 0.68399 0.0
C3460 C 0.41263 0.4208 0.67874 0.0
C3461 C 0.40259 0.42257 0.68647 0.0
C3462 C 0.40616 0.43176 0.67823 0.0
C3463 C 0.41635 0.42958 0.67003 0.0
O3464 O 0.42285 0.43804 0.65132 0.0
O3465 O 0.43124 0.44039 0.6589 0.0
O3466 O 0.42163 0.43371 0.67168 0.0
O3467 O 0.41333 0.43121 0.66403 0.0
H3468 H 0.42747 0.42424 0.65522 0.0
H3469 H 0.43391 0.41427 0.65023 0.0
H3470 H 0.44755 0.42875 0.63918 0.0
H3471 H 0.44089 0.43862 0.64396 0.0
H3472 H 0.41777 0.4711 0.64847 0.0
H3473 H 0.41964 0.45886 0.65232 0.0
H3474 H 0.40655 0.47535 0.66778 0.0
H3475 H 0.40835 0.46321 0.67149 0.0
H3476 H 0.39745 0.43271 0.68536 0.0
H3477 H 0.40896 0.41309 0.68599 0.0
H3478 H 0.41682 0.41741 0.67688 0.0
H3479 H 0.40533 0.43694 0.676 0.0
C3480 C 0.32569 0.68386 0.40044 0.0
C3481 C 0.33258 0.68133 0.40131 0.0
C3482 C 0.33722 0.69144 0.39489 0.0
C3483 C 0.33828 0.68507 0.39853 0.0
C3484 C 0.33031 0.69401 0.39421 0.0
C3485 C 0.32462 0.69025 0.39694 0.0
U3486 U 0.31729 0.6704 0.41277 0.0
O3487 O 0.30693 0.67036 0.41798 0.0
O3488 O 0.30975 0.6619 0.4106 0.0
C3489 C 0.30494 0.66454 0.41481 0.0
C3490 C 0.31956 0.67985 0.40297 0.0
C3491 C 0.29758 0.66404 0.41246 0.0
C3492 C 0.28803 0.6663 0.40422 0.0
C3493 C 0.29499 0.66748 0.40645 0.0
C3494 C 0.28623 0.65842 0.41406 0.0
C3495 C 0.28362 0.66162 0.40793 0.0
C3496 C 0.29312 0.65961 0.41628 0.0
C3497 C 0.32998 0.66193 0.42644 0.0
C3498 C 0.32839 0.65143 0.43357 0.0
C3499 C 0.33876 0.65868 0.4351 0.0
C3500 C 0.33633 0.66325 0.4299 0.0
C3501 C 0.33485 0.65269 0.43699 0.0
C3502 C 0.32597 0.65602 0.42832 0.0
C3503 C 0.32799 0.66664 0.42065 0.0
O3504 O 0.31973 0.67303 0.40179 0.0
O3505 O 0.31729 0.68146 0.4093 0.0
O3506 O 0.3238 0.67191 0.42223 0.0
O3507 O 0.32647 0.66364 0.41461 0.0
H3508 H 0.33353 0.67642 0.40403 0.0
H3509 H 0.3435 0.68286 0.3991 0.0
H3510 H 0.32927 0.69897 0.3916 0.0
H3511 H 0.31935 0.6923 0.39626 0.0
H3512 H 0.28619 0.66884 0.39946 0.0
H3513 H 0.29837 0.67093 0.40343 0.0
H3514 H 0.28297 0.65492 0.41714 0.0
H3515 H 0.29501 0.65693 0.42094 0.0
H3516 H 0.32522 0.6469 0.43494 0.0
H3517 H 0.34382 0.65976 0.43749 0.0
H3518 H 0.33952 0.66775 0.42847 0.0
H3519 H 0.32104 0.65492 0.42569 0.0
C3520 C 0.35799 0.07408 0.43233 0.0
C3521 C 0.35429 0.07372 0.42594 0.0
C3522 C 0.3636 0.0665 0.42085 0.0
C3523 C 0.35706 0.06994 0.42025 0.0
C3524 C 0.36724 0.06687 0.42728 0.0
C3525 C 0.36445 0.07061 0.43295 0.0
U3526 U 0.34566 0.08782 0.44034 0.0
O3527 O 0.34025 0.08805 0.45059 0.0
O3528 O 0.34786 0.09632 0.44788 0.0
C3529 C 0.34352 0.09379 0.45263 0.0
C3530 C 0.35532 0.07815 0.43836 0.0
C3531 C 0.34582 0.09419 0.46002 0.0
C3532 C 0.35278 0.09034 0.47007 0.0
C3533 C 0.35074 0.08954 0.463 0.0
C3534 C 0.34501 0.10038 0.47117 0.0
C3535 C 0.34994 0.09579 0.47424 0.0
C3536 C 0.34298 0.09956 0.46417 0.0
C3537 C 0.33271 0.09661 0.427 0.0
C3538 C 0.32297 0.10467 0.42899 0.0
C3539 C 0.32662 0.10184 0.4171 0.0
C3540 C 0.33188 0.09748 0.41975 0.0
C3541 C 0.32205 0.10543 0.42167 0.0
C3542 C 0.32827 0.10026 0.43165 0.0
C3543 C 0.33823 0.09176 0.42939 0.0
O3544 O 0.35665 0.08493 0.43818 0.0
O3545 O 0.34887 0.0767 0.44041 0.0
O3546 O 0.33632 0.08663 0.43361 0.0
O3547 O 0.3443 0.09459 0.43106 0.0
H3548 H 0.3493 0.07641 0.42534 0.0
H3549 H 0.35416 0.06982 0.41535 0.0
H3550 H 0.37223 0.06421 0.42795 0.0
H3551 H 0.36738 0.07083 0.43784 0.0
H3552 H 0.35654 0.08667 0.47226 0.0
H3553 H 0.35299 0.08535 0.45987 0.0
H3554 H 0.34282 0.10473 0.47411 0.0
H3555 H 0.33921 0.10322 0.46195 0.0
H3556 H 0.31952 0.10736 0.43263 0.0
H3557 H 0.32616 0.10241 0.41145 0.0
H3558 H 0.33529 0.09474 0.4161 0.0
H3559 H 0.32887 0.09965 0.43728 0.0
C3560 C 0.85799 0.43369 0.57553 0.0
C3561 C 0.85506 0.43302 0.58227 0.0
C3562 C 0.86373 0.44125 0.58694 0.0
C3563 C 0.8579 0.43678 0.58794 0.0
C3564 C 0.86656 0.44195 0.58014 0.0
C3565 C 0.86372 0.4382 0.5745 0.0
U3566 U 0.84538 0.42024 0.56752 0.0
O3567 O 0.83981 0.42035 0.55735 0.0
O3568 O 0.84732 0.41189 0.55977 0.0
C3569 C 0.84303 0.41466 0.5551 0.0
C3570 C 0.85525 0.42968 0.56951 0.0
C3571 C 0.84546 0.41465 0.54775 0.0
C3572 C 0.85431 0.41668 0.53873 0.0
C3573 C 0.85199 0.41742 0.54571 0.0
C3574 C 0.84354 0.41053 0.53582 0.0
C3575 C 0.85015 0.41311 0.53372 0.0
C3576 C 0.84123 0.41131 0.54274 0.0
C3577 C 0.83203 0.41168 0.58047 0.0
C3578 C 0.8248 0.4012 0.57909 0.0
C3579 C 0.82312 0.40887 0.58914 0.0
C3580 C 0.82846 0.41325 0.58671 0.0
C3581 C 0.82123 0.4028 0.58538 0.0
C3582 C 0.83016 0.40565 0.57662 0.0
C3583 C 0.83782 0.41634 0.57839 0.0
O3584 O 0.85643 0.42287 0.5697 0.0
O3585 O 0.84884 0.43128 0.56749 0.0
O3586 O 0.83617 0.42171 0.57437 0.0
O3587 O 0.84378 0.4133 0.57663 0.0
H3588 H 0.85063 0.42955 0.58316 0.0
H3589 H 0.85564 0.43607 0.59311 0.0
H3590 H 0.87095 0.44543 0.57915 0.0
H3591 H 0.86602 0.43879 0.56932 0.0
H3592 H 0.85938 0.41883 0.5373 0.0
H3593 H 0.85533 0.42003 0.54952 0.0
H3594 H 0.84023 0.40764 0.5322 0.0
H3595 H 0.83619 0.4091 0.54423 0.0
H3596 H 0.82343 0.39655 0.57609 0.0
H3597 H 0.82054 0.41017 0.59405 0.0
H3598 H 0.82987 0.41785 0.58977 0.0
H3599 H 0.83287 0.40435 0.57178 0.0
C3600 C 0.32395 0.10817 0.32566 0.0
C3601 C 0.32402 0.10478 0.33221 0.0
C3602 C 0.31646 0.11394 0.33714 0.0
C3603 C 0.32028 0.10762 0.3379 0.0
C3604 C 0.31641 0.11726 0.33052 0.0
C3605 C 0.32009 0.11439 0.32485 0.0
U3606 U 0.33728 0.09545 0.3176 0.0
O3607 O 0.33738 0.09037 0.30718 0.0
O3608 O 0.34603 0.0974 0.31031 0.0
C3609 C 0.34334 0.09338 0.30536 0.0
C3610 C 0.328 0.10546 0.31965 0.0
C3611 C 0.34408 0.09593 0.29808 0.0
C3612 C 0.34005 0.10211 0.2876 0.0
C3613 C 0.33887 0.09981 0.29454 0.0
C3614 C 0.35151 0.09657 0.28774 0.0
C3615 C 0.34645 0.1006 0.28417 0.0
C3616 C 0.35035 0.0943 0.2946 0.0
C3617 C 0.3456 0.08182 0.33038 0.0
C3618 C 0.35584 0.07441 0.32848 0.0
C3619 C 0.34928 0.07357 0.33937 0.0
C3620 C 0.34466 0.07874 0.33698 0.0
C3621 C 0.35494 0.07134 0.33517 0.0
C3622 C 0.35119 0.07962 0.32609 0.0
C3623 C 0.34085 0.08757 0.32837 0.0
O3624 O 0.33482 0.1065 0.31997 0.0
O3625 O 0.3263 0.09912 0.31746 0.0
O3626 O 0.33565 0.08598 0.3241 0.0
O3627 O 0.34385 0.09363 0.32692 0.0
H3628 H 0.32697 0.09996 0.33294 0.0
H3629 H 0.32037 0.10484 0.34287 0.0
H3630 H 0.31366 0.12218 0.32973 0.0
H3631 H 0.32002 0.1171 0.31983 0.0
H3632 H 0.33604 0.10522 0.285 0.0
H3633 H 0.33397 0.1011 0.29714 0.0
H3634 H 0.35643 0.09517 0.28522 0.0
H3635 H 0.3544 0.09126 0.29721 0.0
H3636 H 0.36012 0.07277 0.3251 0.0
H3637 H 0.3485 0.07146 0.3446 0.0
H3638 H 0.34041 0.08043 0.34038 0.0
H3639 H 0.352 0.08198 0.32096 0.0
C3640 C 0.65028 0.57413 0.0755 0.0
C3641 C 0.6517 0.57628 0.08242 0.0
C3642 C 0.64461 0.56659 0.08698 0.0
C3643 C 0.64886 0.57256 0.08811 0.0
C3644 C 0.64337 0.5644 0.08001 0.0
C3645 C 0.64616 0.56815 0.07434 0.0
U3646 U 0.66273 0.5876 0.06734 0.0
O3647 O 0.66803 0.58767 0.05702 0.0
O3648 O 0.66065 0.59614 0.05983 0.0
C3649 C 0.66488 0.5935 0.05504 0.0
C3650 C 0.6529 0.57815 0.06942 0.0
C3651 C 0.66251 0.59397 0.04769 0.0
C3652 C 0.65444 0.59136 0.0381 0.0
C3653 C 0.65672 0.59022 0.04505 0.0
C3654 C 0.66382 0.59982 0.03643 0.0
C3655 C 0.65789 0.5963 0.03377 0.0
C3656 C 0.66608 0.59868 0.0433 0.0
C3657 C 0.67627 0.59624 0.0799 0.0
C3658 C 0.68274 0.60718 0.07843 0.0
C3659 C 0.68541 0.59944 0.0882 0.0
C3660 C 0.68028 0.59475 0.08589 0.0
C3661 C 0.68667 0.60575 0.08454 0.0
C3662 C 0.67757 0.60245 0.07611 0.0
C3663 C 0.67053 0.59141 0.07807 0.0
O3664 O 0.65172 0.58497 0.06963 0.0
O3665 O 0.65926 0.57654 0.06726 0.0
O3666 O 0.67214 0.58612 0.07394 0.0
O3667 O 0.66444 0.59433 0.07657 0.0
H3668 H 0.65489 0.58089 0.08342 0.0
H3669 H 0.64987 0.57448 0.09337 0.0
H3670 H 0.64026 0.55975 0.07892 0.0
H3671 H 0.64506 0.56639 0.06903 0.0
H3672 H 0.64984 0.58858 0.03621 0.0
H3673 H 0.6539 0.58656 0.04838 0.0
H3674 H 0.66669 0.60354 0.03322 0.0
H3675 H 0.67058 0.60159 0.04525 0.0
H3676 H 0.68363 0.61196 0.07545 0.0
H3677 H 0.68822 0.59822 0.093 0.0
H3678 H 0.67931 0.59 0.08889 0.0
H3679 H 0.67452 0.60369 0.07146 0.0
C3680 C 0.68355 0.39983 0.32579 0.0
C3681 C 0.68409 0.40359 0.33212 0.0
C3682 C 0.691 0.39406 0.3373 0.0
C3683 C 0.68781 0.40074 0.33782 0.0
C3684 C 0.69041 0.39036 0.33091 0.0
C3685 C 0.68675 0.39322 0.32523 0.0
U3686 U 0.6703 0.41256 0.31751 0.0
O3687 O 0.67049 0.41794 0.30723 0.0
O3688 O 0.66196 0.41056 0.30977 0.0
C3689 C 0.66476 0.41475 0.30503 0.0
C3690 C 0.6796 0.4026 0.31973 0.0
C3691 C 0.66467 0.41226 0.29769 0.0
C3692 C 0.66591 0.40315 0.28878 0.0
C3693 C 0.66679 0.40546 0.29575 0.0
C3694 C 0.66093 0.41444 0.28566 0.0
C3695 C 0.66286 0.40758 0.28367 0.0
C3696 C 0.66184 0.41674 0.29258 0.0
C3697 C 0.66171 0.42617 0.33018 0.0
C3698 C 0.65105 0.43308 0.32872 0.0
C3699 C 0.6586 0.43504 0.3388 0.0
C3700 C 0.66318 0.42985 0.33637 0.0
C3701 C 0.65245 0.43669 0.33505 0.0
C3702 C 0.65565 0.42785 0.3263 0.0
C3703 C 0.66641 0.42035 0.32823 0.0
O3704 O 0.67278 0.40151 0.31988 0.0
O3705 O 0.6813 0.40897 0.31764 0.0
O3706 O 0.67179 0.42192 0.32419 0.0
O3707 O 0.66338 0.41436 0.32658 0.0
H3708 H 0.68165 0.40871 0.33266 0.0
H3709 H 0.68823 0.4038 0.34261 0.0
H3710 H 0.69266 0.38516 0.33033 0.0
H3711 H 0.68635 0.39023 0.3204 0.0
H3712 H 0.66757 0.39787 0.28743 0.0
H3713 H 0.66899 0.40191 0.29963 0.0
H3714 H 0.65845 0.41798 0.28196 0.0
H3715 H 0.66012 0.42199 0.29398 0.0
H3716 H 0.64639 0.43427 0.32567 0.0
H3717 H 0.65979 0.43758 0.34375 0.0
H3718 H 0.6678 0.42858 0.33946 0.0
H3719 H 0.65443 0.42505 0.32149 0.0
C3720 C 0.15008 0.93378 0.9322 0.0
C3721 C 0.15203 0.93209 0.92528 0.0
C3722 C 0.14437 0.94137 0.92077 0.0
C3723 C 0.14918 0.93585 0.91961 0.0
C3724 C 0.14259 0.94311 0.92774 0.0
C3725 C 0.1454 0.93933 0.93338 0.0
U3726 U 0.16251 0.92024 0.94043 0.0
O3727 O 0.16777 0.9202 0.95077 0.0
O3728 O 0.16034 0.91177 0.94799 0.0
C3729 C 0.16458 0.9144 0.95278 0.0
C3730 C 0.1527 0.92971 0.93825 0.0
C3731 C 0.16224 0.91396 0.96015 0.0
C3732 C 0.15392 0.91616 0.96964 0.0
C3733 C 0.15614 0.91728 0.96267 0.0
C3734 C 0.16397 0.90857 0.97159 0.0
C3735 C 0.15776 0.91166 0.97414 0.0
C3736 C 0.16617 0.9097 0.96469 0.0
C3737 C 0.17615 0.91164 0.92787 0.0
C3738 C 0.18292 0.9009 0.92945 0.0
C3739 C 0.18511 0.90842 0.91939 0.0
C3740 C 0.17993 0.91305 0.92173 0.0
C3741 C 0.18665 0.90225 0.92319 0.0
C3742 C 0.1777 0.90557 0.93178 0.0
C3743 C 0.17037 0.91642 0.92974 0.0
O3744 O 0.15153 0.9229 0.93801 0.0
O3745 O 0.15906 0.93131 0.94044 0.0
O3746 O 0.17195 0.92172 0.93388 0.0
O3747 O 0.1643 0.91346 0.93125 0.0
H3748 H 0.15565 0.92782 0.92426 0.0
H3749 H 0.15063 0.9343 0.91432 0.0
H3750 H 0.13903 0.94741 0.92887 0.0
H3751 H 0.14387 0.94072 0.9387 0.0
H3752 H 0.1491 0.9186 0.97143 0.0
H3753 H 0.15303 0.92059 0.95922 0.0
H3754 H 0.16714 0.90521 0.97493 0.0
H3755 H 0.1709 0.90712 0.96285 0.0
H3756 H 0.18401 0.89624 0.93253 0.0
H3757 H 0.18775 0.90958 0.91448 0.0
H3758 H 0.17877 0.91769 0.91862 0.0
H3759 H 0.17481 0.90439 0.93655 0.0
C3760 C 0.32395 0.90027 0.18266 0.0
C3761 C 0.32365 0.90392 0.17625 0.0
C3762 C 0.31651 0.89455 0.17115 0.0
C3763 C 0.31994 0.9011 0.17055 0.0
C3764 C 0.31684 0.89096 0.17761 0.0
C3765 C 0.32051 0.8938 0.1833 0.0
U3766 U 0.33769 0.9126 0.19058 0.0
O3767 O 0.33778 0.91829 0.20069 0.0
O3768 O 0.34598 0.91048 0.19834 0.0
C3769 C 0.34334 0.91488 0.20298 0.0
C3770 C 0.32795 0.903 0.1887 0.0
C3771 C 0.3432 0.91244 0.21034 0.0
C3772 C 0.34167 0.90333 0.21919 0.0
C3773 C 0.34094 0.90567 0.21223 0.0
C3774 C 0.3467 0.91457 0.22244 0.0
C3775 C 0.34469 0.90772 0.22437 0.0
C3776 C 0.34594 0.9169 0.21551 0.0
C3777 C 0.34677 0.9252 0.17715 0.0
C3778 C 0.3548 0.93497 0.17911 0.0
C3779 C 0.35203 0.93123 0.16724 0.0
C3780 C 0.34768 0.92598 0.16989 0.0
C3781 C 0.35557 0.93585 0.17179 0.0
C3782 C 0.35039 0.92967 0.18178 0.0
C3783 C 0.34187 0.91974 0.17954 0.0
O3784 O 0.33472 0.90159 0.18863 0.0
O3785 O 0.32655 0.90951 0.19058 0.0
O3786 O 0.33666 0.92177 0.18361 0.0
O3787 O 0.34466 0.9137 0.18141 0.0
H3788 H 0.3263 0.90893 0.17565 0.0
H3789 H 0.31972 0.90407 0.16569 0.0
H3790 H 0.31439 0.88585 0.17825 0.0
H3791 H 0.32073 0.89089 0.1882 0.0
H3792 H 0.33995 0.89806 0.2205 0.0
H3793 H 0.33879 0.90214 0.2083 0.0
H3794 H 0.34915 0.91808 0.2262 0.0
H3795 H 0.34775 0.92213 0.21414 0.0
H3796 H 0.35745 0.93847 0.18274 0.0
H3797 H 0.35263 0.93166 0.16159 0.0
H3798 H 0.34496 0.92254 0.16625 0.0
H3799 H 0.34975 0.92912 0.18742 0.0
C3800 C 0.18365 0.108 0.68223 0.0
C3801 C 0.18483 0.1039 0.6762 0.0
C3802 C 0.19135 0.11357 0.6708 0.0
C3803 C 0.18868 0.10665 0.67055 0.0
C3804 C 0.1901 0.11763 0.67686 0.0
C3805 C 0.18631 0.11486 0.68251 0.0
U3806 U 0.17025 0.09534 0.69029 0.0
O3807 O 0.17021 0.09003 0.7006 0.0
O3808 O 0.16167 0.09732 0.69779 0.0
C3809 C 0.16434 0.09311 0.70258 0.0
C3810 C 0.17959 0.10529 0.68825 0.0
C3811 C 0.16382 0.09545 0.70993 0.0
C3812 C 0.16694 0.103 0.7198 0.0
C3813 C 0.16802 0.10081 0.71281 0.0
C3814 C 0.15759 0.09443 0.72102 0.0
C3815 C 0.16161 0.09991 0.72393 0.0
C3816 C 0.15868 0.09225 0.71411 0.0
C3817 C 0.16173 0.08179 0.67763 0.0
C3818 C 0.15099 0.07502 0.67922 0.0
C3819 C 0.15843 0.07292 0.66909 0.0
C3820 C 0.16309 0.07806 0.67144 0.0
C3821 C 0.15229 0.07135 0.67291 0.0
C3822 C 0.15568 0.08021 0.68157 0.0
C3823 C 0.16651 0.08756 0.67952 0.0
O3824 O 0.17278 0.1064 0.68798 0.0
O3825 O 0.18124 0.09893 0.69042 0.0
O3826 O 0.17181 0.08596 0.68366 0.0
O3827 O 0.16354 0.09361 0.68105 0.0
H3828 H 0.1828 0.09859 0.67587 0.0
H3829 H 0.18961 0.10333 0.66602 0.0
H3830 H 0.19195 0.123 0.67721 0.0
H3831 H 0.1854 0.11811 0.68711 0.0
H3832 H 0.17011 0.10725 0.72189 0.0
H3833 H 0.17202 0.10334 0.70964 0.0
H3834 H 0.15355 0.09184 0.72408 0.0
H3835 H 0.15542 0.08808 0.71199 0.0
H3836 H 0.14635 0.0739 0.68233 0.0
H3837 H 0.15954 0.07032 0.66414 0.0
H3838 H 0.1677 0.07925 0.6683 0.0
H3839 H 0.15455 0.08305 0.68638 0.0
H3840 H 0.12262 0.20763 0.37646 0.0
H3841 H 0.11129 0.22503 0.36731 0.0
H3842 H 0.13397 0.22518 0.36808 0.0
C3843 C 0.12261 0.21266 0.37376 0.0
C3844 C 0.12901 0.21599 0.37243 0.0
C3845 C 0.1162 0.21585 0.37197 0.0
C3846 C 0.11622 0.22252 0.3687 0.0
C3847 C 0.1227 0.22585 0.36719 0.0
C3848 C 0.12901 0.22258 0.36916 0.0
N3849 N 0.12328 0.23244 0.36373 0.0
C3850 C 0.11791 0.23675 0.36126 0.0
H3851 H 0.04944 0.87112 0.62783 0.0
H3852 H 0.03295 0.86102 0.61616 0.0
H3853 H 0.0338 0.88362 0.61727 0.0
C3854 C 0.04468 0.87155 0.62471 0.0
C3855 C 0.04193 0.8782 0.62309 0.0
C3856 C 0.04145 0.86539 0.62232 0.0
C3857 C 0.03538 0.86579 0.61811 0.0
C3858 C 0.03272 0.87243 0.61617 0.0
C3859 C 0.03601 0.87856 0.61869 0.0
N3860 N 0.02705 0.87329 0.61139 0.0
C3861 C 0.02159 0.86857 0.61018 0.0
H3862 H 0.38579 0.80073 0.87673 0.0
H3863 H 0.39636 0.78308 0.8673 0.0
H3864 H 0.37381 0.78304 0.86943 0.0
C3865 C 0.38554 0.79559 0.87428 0.0
C3866 C 0.37901 0.79228 0.87347 0.0
C3867 C 0.3918 0.79232 0.87215 0.0
C3868 C 0.39154 0.78565 0.86893 0.0
C3869 C 0.38496 0.7824 0.86778 0.0
C3870 C 0.37879 0.78572 0.87011 0.0
N3871 N 0.38415 0.77578 0.86442 0.0
C3872 C 0.38936 0.77141 0.86174 0.0
H3873 H 0.45789 0.13601 0.12692 0.0
H3874 H 0.47559 0.14656 0.1175 0.0
H3875 H 0.47427 0.12392 0.11718 0.0
C3876 C 0.46278 0.13577 0.12398 0.0
C3877 C 0.46563 0.12922 0.12224 0.0
C3878 C 0.46632 0.14202 0.12232 0.0
C3879 C 0.47282 0.14174 0.11876 0.0
C3880 C 0.47563 0.13515 0.1168 0.0
C3881 C 0.47204 0.12897 0.11863 0.0
N3882 N 0.48202 0.13433 0.11301 0.0
C3883 C 0.48666 0.13955 0.11082 0.0
H3884 H 0.12226 0.7991 0.12946 0.0
H3885 H 0.11115 0.78309 0.14106 0.0
H3886 H 0.13377 0.78449 0.14222 0.0
C3887 C 0.12231 0.79463 0.13301 0.0
C3888 C 0.12872 0.7921 0.13553 0.0
C3889 C 0.11598 0.79142 0.13496 0.0
C3890 C 0.11605 0.78554 0.13949 0.0
C3891 C 0.12252 0.78307 0.14217 0.0
C3892 C 0.1288 0.78639 0.14016 0.0
N3893 N 0.123 0.77759 0.14723 0.0
C3894 C 0.11829 0.77208 0.14822 0.0
H3895 H 0.4565 0.8749 0.38411 0.0
H3896 H 0.47499 0.8622 0.38767 0.0
H3897 H 0.47566 0.88461 0.39071 0.0
C3898 C 0.46193 0.87439 0.38578 0.0
C3899 C 0.46567 0.88048 0.38738 0.0
C3900 C 0.46529 0.86781 0.3854 0.0
C3901 C 0.47227 0.8672 0.38791 0.0
C3902 C 0.47593 0.8733 0.39011 0.0
C3903 C 0.47267 0.87989 0.38954 0.0
N3904 N 0.48314 0.8733 0.39202 0.0
C3905 C 0.48695 0.8679 0.39515 0.0
H3906 H 0.3849 0.20802 0.63066 0.0
H3907 H 0.39628 0.22483 0.64079 0.0
H3908 H 0.37359 0.22475 0.64064 0.0
C3909 C 0.38492 0.21288 0.63365 0.0
C3910 C 0.37853 0.21602 0.63539 0.0
C3911 C 0.39134 0.21597 0.63556 0.0
C3912 C 0.39135 0.22243 0.63923 0.0
C3913 C 0.38488 0.22556 0.64114 0.0
C3914 C 0.37854 0.22234 0.63914 0.0
N3915 N 0.38435 0.23167 0.64541 0.0
C3916 C 0.38949 0.23669 0.64676 0.0
H3917 H 0.05069 0.13605 0.88038 0.0
H3918 H 0.0338 0.1469 0.89086 0.0
H3919 H 0.03512 0.12427 0.89171 0.0
C3920 C 0.046 0.1359 0.88364 0.0
C3921 C 0.04328 0.12942 0.88577 0.0
C3922 C 0.04261 0.14219 0.88542 0.0
C3923 C 0.0364 0.14203 0.88944 0.0
C3924 C 0.03376 0.13551 0.89182 0.0
C3925 C 0.03719 0.12927 0.88991 0.0
N3926 N 0.0279 0.13494 0.89641 0.0
C3927 C 0.02262 0.13989 0.89739 0.0
H3928 H 0.37715 0.12222 0.20803 0.0
H3929 H 0.36642 0.11137 0.22477 0.0
H3930 H 0.36588 0.13401 0.22361 0.0
C3931 C 0.37389 0.12237 0.21272 0.0
C3932 C 0.37181 0.12886 0.21545 0.0
C3933 C 0.372 0.11606 0.21602 0.0
C3934 C 0.36797 0.11623 0.22225 0.0
C3935 C 0.36567 0.12277 0.22493 0.0
C3936 C 0.36766 0.12901 0.22154 0.0
N3937 N 0.36095 0.12338 0.23069 0.0
C3938 C 0.35996 0.11859 0.23613 0.0
H3939 H 0.13529 0.12759 0.45828 0.0
H3940 H 0.14642 0.11684 0.47488 0.0
H3941 H 0.12373 0.11714 0.47456 0.0
C3942 C 0.13524 0.12449 0.46308 0.0
C3943 C 0.12882 0.12269 0.46612 0.0
C3944 C 0.1416 0.12245 0.46621 0.0
C3945 C 0.14152 0.11852 0.47251 0.0
C3946 C 0.13501 0.11651 0.47547 0.0
C3947 C 0.12872 0.11867 0.47227 0.0
N3948 N 0.13442 0.11197 0.48138 0.0
C3949 C 0.13946 0.11066 0.48651 0.0
H3950 H 0.12911 0.88576 0.7091 0.0
H3951 H 0.14149 0.89685 0.72452 0.0
H3952 H 0.14121 0.87415 0.72417 0.0
C3953 C 0.13263 0.88569 0.7136 0.0
C3954 C 0.13477 0.87925 0.71639 0.0
C3955 C 0.13509 0.89204 0.71642 0.0
C3956 C 0.13956 0.89195 0.72234 0.0
C3957 C 0.14178 0.88544 0.72515 0.0
C3958 C 0.13945 0.87915 0.72206 0.0
N3959 N 0.14664 0.88485 0.73079 0.0
C3960 C 0.14819 0.88989 0.73585 0.0
H3961 H 0.37242 0.88156 0.9572 0.0
H3962 H 0.3615 0.89051 0.97489 0.0
H3963 H 0.38406 0.88857 0.97521 0.0
C3964 C 0.37256 0.88393 0.96238 0.0
C3965 C 0.37903 0.8847 0.9658 0.0
C3966 C 0.36622 0.88591 0.96559 0.0
C3967 C 0.36637 0.88901 0.97233 0.0
C3968 C 0.37289 0.89014 0.9757 0.0
C3969 C 0.37913 0.88792 0.97243 0.0
N3970 N 0.37357 0.89333 0.98243 0.0
C3971 C 0.36829 0.89596 0.98676 0.0
H3972 H 0.37767 0.88635 0.29962 0.0
H3973 H 0.36705 0.89696 0.28265 0.0
H3974 H 0.36596 0.87438 0.28447 0.0
C3975 C 0.37433 0.88613 0.29498 0.0
C3976 C 0.37207 0.87962 0.29245 0.0
C3977 C 0.37258 0.89237 0.29148 0.0
C3978 C 0.36844 0.89213 0.28534 0.0
C3979 C 0.36597 0.88559 0.28286 0.0
C3980 C 0.36784 0.8794 0.28641 0.0
N3981 N 0.36136 0.8849 0.27702 0.0
C3982 C 0.36015 0.88982 0.27174 0.0
H3983 H 0.37331 0.12843 0.54893 0.0
H3984 H 0.36142 0.11769 0.53284 0.0
H3985 H 0.38394 0.11514 0.53421 0.0
C3986 C 0.37309 0.12489 0.54445 0.0
C3987 C 0.37931 0.12197 0.54194 0.0
C3988 C 0.36663 0.12348 0.54118 0.0
C3989 C 0.36639 0.11885 0.53537 0.0
C3990 C 0.3727 0.11579 0.53287 0.0
C3991 C 0.3791 0.11742 0.53617 0.0
N3992 N 0.37297 0.11095 0.52719 0.0
C3993 C 0.36787 0.10966 0.52209 0.0
H3994 H 0.13078 0.1216 0.79989 0.0
H3995 H 0.14129 0.11114 0.78282 0.0
H3996 H 0.13946 0.13373 0.78292 0.0
C3997 C 0.13354 0.1219 0.79491 0.0
C3998 C 0.13468 0.12845 0.79176 0.0
C3999 C 0.13586 0.11566 0.79173 0.0
C4000 C 0.1395 0.11595 0.78529 0.0
C4001 C 0.14093 0.12255 0.7822 0.0
C4002 C 0.13849 0.12871 0.78545 0.0
N4003 N 0.14486 0.12339 0.77591 0.0
C4004 C 0.14711 0.11816 0.77132 0.0
H4005 H 0.13424 0.8784 0.04754 0.0
H4006 H 0.14677 0.89106 0.0335 0.0
H4007 H 0.12429 0.89394 0.03463 0.0
C4008 C 0.13464 0.88243 0.04352 0.0
C4009 C 0.12854 0.88583 0.0413 0.0
C4010 C 0.14124 0.88428 0.0408 0.0
C4011 C 0.14169 0.88958 0.03562 0.0
C4012 C 0.13553 0.89303 0.03334 0.0
C4013 C 0.12901 0.89123 0.03632 0.0
N4014 N 0.13565 0.89862 0.02838 0.0
C4015 C 0.14008 0.89909 0.02257 0.0
H4016 H 0.20807 0.37757 0.12169 0.0
H4017 H 0.22508 0.36698 0.11116 0.0
H4018 H 0.22347 0.3663 0.13377 0.0
C4019 C 0.21274 0.37431 0.12195 0.0
C4020 C 0.21536 0.37221 0.1285 0.0
C4021 C 0.21619 0.37245 0.11571 0.0
C4022 C 0.22242 0.36845 0.11598 0.0
C4023 C 0.22501 0.36616 0.12256 0.0
C4024 C 0.22146 0.36809 0.12874 0.0
N4025 N 0.23091 0.36164 0.12329 0.0
C4026 C 0.23619 0.36038 0.11839 0.0
H4027 H 0.70773 0.13131 0.88549 0.0
H4028 H 0.72534 0.14043 0.89644 0.0
H4029 H 0.72501 0.13981 0.87377 0.0
C4030 C 0.71275 0.13402 0.88536 0.0
C4031 C 0.71593 0.13539 0.87888 0.0
C4032 C 0.71608 0.1358 0.8917 0.0
C4033 C 0.72274 0.13907 0.89156 0.0
C4034 C 0.72593 0.14059 0.88502 0.0
C4035 C 0.72252 0.13867 0.87876 0.0
N4036 N 0.73253 0.14402 0.88434 0.0
C4037 C 0.73686 0.14653 0.88966 0.0
H4038 H 0.12735 0.45808 0.13683 0.0
H4039 H 0.11714 0.4757 0.14667 0.0
H4040 H 0.11779 0.47414 0.12409 0.0
C4041 C 0.12446 0.46298 0.13633 0.0
C4042 C 0.12295 0.46569 0.12965 0.0
C4043 C 0.12245 0.46656 0.14245 0.0
C4044 C 0.11866 0.4729 0.14194 0.0
C4045 C 0.11682 0.47552 0.13524 0.0
C4046 C 0.11902 0.47192 0.12919 0.0
N4047 N 0.11284 0.48175 0.1342 0.0
C4048 C 0.11054 0.48652 0.13925 0.0
H4049 H 0.80094 0.87699 0.38605 0.0
H4050 H 0.78349 0.86734 0.39667 0.0
H4051 H 0.7834 0.86924 0.37409 0.0
C4052 C 0.79584 0.87446 0.38579 0.0
C4053 C 0.79255 0.87355 0.37927 0.0
C4054 C 0.79261 0.87231 0.39206 0.0
C4055 C 0.786 0.86899 0.39183 0.0
C4056 C 0.78278 0.86771 0.38526 0.0
C4057 C 0.78606 0.87004 0.37907 0.0
N4058 N 0.77627 0.86413 0.38454 0.0
C4059 C 0.7718 0.86199 0.38992 0.0
H4060 H 0.87989 0.04942 0.13474 0.0
H4061 H 0.8897 0.03258 0.14635 0.0
H4062 H 0.89271 0.03439 0.12392 0.0
C4063 C 0.88327 0.04481 0.13488 0.0
C4064 C 0.88617 0.04234 0.12862 0.0
C4065 C 0.88438 0.0413 0.14126 0.0
C4066 C 0.88878 0.03531 0.14143 0.0
C4067 C 0.89183 0.03283 0.13511 0.0
C4068 C 0.89043 0.03634 0.12877 0.0
N4069 N 0.89636 0.02691 0.13475 0.0
C4070 C 0.89776 0.02196 0.13995 0.0
H4071 H 0.3002 0.63138 0.62243 0.0
H4072 H 0.28248 0.64022 0.61137 0.0
H4073 H 0.28274 0.63962 0.63403 0.0
C4074 C 0.29516 0.63406 0.6225 0.0
C4075 C 0.29192 0.63538 0.62896 0.0
C4076 C 0.29183 0.63575 0.61614 0.0
C4077 C 0.28511 0.63894 0.61625 0.0
C4078 C 0.28187 0.64042 0.62278 0.0
C4079 C 0.28528 0.63855 0.62905 0.0
N4080 N 0.27518 0.64368 0.62344 0.0
C4081 C 0.27089 0.64633 0.61813 0.0
H4082 H 0.12945 0.54793 0.37342 0.0
H4083 H 0.11712 0.5335 0.36098 0.0
H4084 H 0.11408 0.5349 0.38343 0.0
C4085 C 0.12548 0.54385 0.37304 0.0
C4086 C 0.12207 0.54166 0.37914 0.0
C4087 C 0.12375 0.54099 0.36646 0.0
C4088 C 0.11852 0.53573 0.36603 0.0
C4089 C 0.11504 0.53349 0.37221 0.0
C4090 C 0.11677 0.53658 0.3787 0.0
N4091 N 0.10951 0.52847 0.37216 0.0
C4092 C 0.10873 0.52283 0.36756 0.0
H4093 H 0.3805 0.458 0.87193 0.0
H4094 H 0.39064 0.4752 0.86121 0.0
H4095 H 0.39123 0.47387 0.88385 0.0
C4096 C 0.38363 0.46277 0.87212 0.0
C4097 C 0.38561 0.46553 0.87863 0.0
C4098 C 0.3854 0.4662 0.86584 0.0
C4099 C 0.38923 0.47255 0.86606 0.0
C4100 C 0.39143 0.47526 0.87261 0.0
C4101 C 0.38955 0.47175 0.87883 0.0
N4102 N 0.39581 0.48128 0.87332 0.0
C4103 C 0.39711 0.48648 0.86834 0.0
H4104 H 0.88602 0.79965 0.62946 0.0
H4105 H 0.89651 0.78275 0.6403 0.0
H4106 H 0.8739 0.78424 0.64065 0.0
C4107 C 0.88575 0.79502 0.63279 0.0
C4108 C 0.87919 0.79237 0.63479 0.0
C4109 C 0.89199 0.79163 0.63477 0.0
C4110 C 0.8917 0.78541 0.63879 0.0
C4111 C 0.8851 0.78279 0.64097 0.0
C4112 C 0.87894 0.78629 0.63894 0.0
N4113 N 0.88427 0.77677 0.64532 0.0
C4114 C 0.88936 0.7719 0.64726 0.0
H4115 H 0.95969 0.13602 0.37799 0.0
H4116 H 0.97459 0.14674 0.39128 0.0
H4117 H 0.97369 0.12407 0.39104 0.0
C4118 C 0.96398 0.13583 0.38176 0.0
C4119 C 0.96646 0.12933 0.38409 0.0
C4120 C 0.96681 0.14211 0.38438 0.0
C4121 C 0.97242 0.14189 0.38922 0.0
C4122 C 0.97492 0.13533 0.39162 0.0
C4123 C 0.97181 0.12911 0.38913 0.0
N4124 N 0.98019 0.13466 0.39686 0.0
C4125 C 0.98559 0.1394 0.39827 0.0
H4126 H 0.62185 0.20889 0.12905 0.0
H4127 H 0.61115 0.22503 0.14071 0.0
H4128 H 0.63369 0.22322 0.14195 0.0
C4129 C 0.62209 0.21327 0.13271 0.0
C4130 C 0.6286 0.21562 0.1352 0.0
C4131 C 0.61581 0.21653 0.13474 0.0
C4132 C 0.616 0.22249 0.13913 0.0
C4133 C 0.62253 0.2249 0.14173 0.0
C4134 C 0.62874 0.2214 0.13979 0.0
N4135 N 0.62314 0.23052 0.14661 0.0
C4136 C 0.61836 0.23596 0.14762 0.0
H4137 H 0.54719 0.87182 0.8773 0.0
H4138 H 0.53331 0.86086 0.89142 0.0
H4139 H 0.53502 0.88345 0.89236 0.0
C4140 C 0.54331 0.87195 0.88148 0.0
C4141 C 0.54133 0.8784 0.8844 0.0
C4142 C 0.54051 0.86564 0.88402 0.0
C4143 C 0.53547 0.86575 0.88943 0.0
C4144 C 0.53346 0.87223 0.89242 0.0
C4145 C 0.53653 0.87849 0.88999 0.0
N4146 N 0.5288 0.87266 0.89822 0.0
C4147 C 0.52281 0.86857 0.89921 0.0
H4148 H 0.88555 0.21 0.88004 0.0
H4149 H 0.89664 0.22532 0.86766 0.0
H4150 H 0.87425 0.22284 0.86523 0.0
C4151 C 0.88546 0.21407 0.87603 0.0
C4152 C 0.87909 0.21599 0.87289 0.0
C4153 C 0.89178 0.21735 0.87415 0.0
C4154 C 0.89175 0.22279 0.86914 0.0
C4155 C 0.88536 0.22482 0.86597 0.0
C4156 C 0.87911 0.22135 0.86781 0.0
N4157 N 0.88496 0.23004 0.86064 0.0
C4158 C 0.88947 0.23574 0.85983 0.0
H4159 H 0.54861 0.13635 0.62921 0.0
H4160 H 0.53251 0.14676 0.61718 0.0
H4161 H 0.53484 0.12424 0.616 0.0
C4162 C 0.54431 0.13606 0.62546 0.0
C4163 C 0.54214 0.12952 0.62289 0.0
C4164 C 0.54089 0.14226 0.62343 0.0
C4165 C 0.53514 0.14196 0.61877 0.0
C4166 C 0.53298 0.13539 0.61607 0.0
C4167 C 0.53651 0.12925 0.61814 0.0
N4168 N 0.52752 0.13464 0.61103 0.0
C4169 C 0.52214 0.13939 0.6096 0.0
H4170 H 0.62253 0.79781 0.37923 0.0
H4171 H 0.60957 0.78355 0.36725 0.0
H4172 H 0.63192 0.78467 0.36356 0.0
C4173 C 0.62197 0.79375 0.37526 0.0
C4174 C 0.62793 0.79147 0.37168 0.0
C4175 C 0.61534 0.79088 0.37381 0.0
C4176 C 0.61469 0.7857 0.36853 0.0
C4177 C 0.62072 0.78346 0.36481 0.0
C4178 C 0.6273 0.78637 0.36643 0.0
N4179 N 0.62033 0.7788 0.35901 0.0
C4180 C 0.61639 0.77264 0.35875 0.0
H4181 H 0.95934 0.87143 0.12929 0.0
H4182 H 0.97539 0.86136 0.11698 0.0
H4183 H 0.97335 0.88391 0.11663 0.0
C4184 C 0.96377 0.87187 0.12572 0.0
C4185 C 0.96601 0.8785 0.12343 0.0
C4186 C 0.96714 0.86572 0.12348 0.0
C4187 C 0.97281 0.86612 0.11875 0.0
C4188 C 0.97495 0.87274 0.11619 0.0
C4189 C 0.97153 0.87886 0.11853 0.0
N4190 N 0.98029 0.87353 0.11102 0.0
C4191 C 0.98596 0.86906 0.1099 0.0
H4192 H 0.62913 0.88611 0.79945 0.0
H4193 H 0.64131 0.89681 0.78368 0.0
H4194 H 0.6405 0.87418 0.78398 0.0
C4195 C 0.63249 0.88589 0.79485 0.0
C4196 C 0.63429 0.87935 0.79198 0.0
C4197 C 0.63496 0.89218 0.79191 0.0
C4198 C 0.63934 0.89197 0.78594 0.0
C4199 C 0.64145 0.8854 0.78319 0.0
C4200 C 0.63893 0.87918 0.78624 0.0
N4201 N 0.64648 0.88475 0.77771 0.0
C4202 C 0.64749 0.88943 0.77218 0.0
H4203 H 0.87265 0.87964 0.54966 0.0
H4204 H 0.86114 0.89118 0.53387 0.0
H4205 H 0.88382 0.89116 0.53386 0.0
C4206 C 0.87258 0.88304 0.54507 0.0
C4207 C 0.87894 0.8851 0.54207 0.0
C4208 C 0.86613 0.88519 0.5422 0.0
C4209 C 0.86608 0.88941 0.53608 0.0
C4210 C 0.87253 0.89162 0.53312 0.0
C4211 C 0.87888 0.88941 0.53612 0.0
N4212 N 0.87301 0.89652 0.52751 0.0
C4213 C 0.86807 0.89782 0.52229 0.0
H4214 H 0.87816 0.12162 0.29979 0.0
H4215 H 0.86719 0.11144 0.2828 0.0
H4216 H 0.86867 0.13404 0.2835 0.0
C4217 C 0.87516 0.12198 0.29495 0.0
C4218 C 0.87382 0.12859 0.29201 0.0
C4219 C 0.87281 0.1158 0.2917 0.0
C4220 C 0.86897 0.11621 0.28537 0.0
C4221 C 0.86735 0.12287 0.2825 0.0
C4222 C 0.86978 0.12897 0.28585 0.0
N4223 N 0.86326 0.12381 0.27632 0.0
C4224 C 0.86101 0.11868 0.27162 0.0
H4225 H 0.63612 0.12852 0.04918 0.0
H4226 H 0.64656 0.11744 0.03242 0.0
H4227 H 0.62398 0.11678 0.03419 0.0
C4228 C 0.63584 0.1251 0.04462 0.0
C4229 C 0.62928 0.12293 0.0421 0.0
C4230 C 0.64206 0.12315 0.04119 0.0
C4231 C 0.64176 0.11896 0.03508 0.0
C4232 C 0.63517 0.1166 0.0326 0.0
C4233 C 0.62901 0.11862 0.03613 0.0
N4234 N 0.63436 0.11199 0.02679 0.0
C4235 C 0.63929 0.11036 0.02163 0.0
H4236 H 0.62858 0.12179 0.70893 0.0
H4237 H 0.64113 0.11113 0.72447 0.0
H4238 H 0.64052 0.13377 0.7239 0.0
C4239 C 0.63209 0.12202 0.71343 0.0
C4240 C 0.63405 0.12856 0.71617 0.0
C4241 C 0.63461 0.11574 0.71634 0.0
C4242 C 0.63912 0.11597 0.72222 0.0
C4243 C 0.64134 0.12254 0.72487 0.0
C4244 C 0.63883 0.12876 0.72179 0.0
N4245 N 0.64648 0.1232 0.73024 0.0
C4246 C 0.64755 0.11861 0.73584 0.0
H4247 H 0.63648 0.87866 0.45912 0.0
H4248 H 0.64664 0.89078 0.47527 0.0
H4249 H 0.62407 0.89093 0.47354 0.0
C4250 C 0.63607 0.88217 0.4636 0.0
C4251 C 0.62944 0.88436 0.46597 0.0
C4252 C 0.64224 0.8844 0.46694 0.0
C4253 C 0.64186 0.88904 0.4727 0.0
C4254 C 0.63524 0.89149 0.47497 0.0
C4255 C 0.62912 0.88914 0.47159 0.0
N4256 N 0.6344 0.89648 0.48046 0.0
C4257 C 0.63916 0.89805 0.48578 0.0
H4258 H 0.87827 0.88583 0.20804 0.0
H4259 H 0.86752 0.89649 0.22493 0.0
H4260 H 0.86737 0.87384 0.22372 0.0
C4261 C 0.87501 0.88564 0.21273 0.0
C4262 C 0.87308 0.87912 0.21551 0.0
C4263 C 0.87308 0.89191 0.21609 0.0
C4264 C 0.86905 0.89166 0.22232 0.0
C4265 C 0.86688 0.88508 0.225 0.0
C4266 C 0.86898 0.87889 0.2216 0.0
N4267 N 0.86242 0.88429 0.23093 0.0
C4268 C 0.86061 0.88934 0.23589 0.0
H4269 H 0.87075 0.12875 0.95957 0.0
H4270 H 0.85967 0.11649 0.97505 0.0
H4271 H 0.88219 0.11474 0.97309 0.0
C4272 C 0.87081 0.12488 0.96377 0.0
C4273 C 0.8772 0.12201 0.96598 0.0
C4274 C 0.86451 0.12295 0.96703 0.0
C4275 C 0.86455 0.11805 0.97257 0.0
C4276 C 0.87099 0.11504 0.97473 0.0
C4277 C 0.87726 0.11707 0.97142 0.0
N4278 N 0.87141 0.10966 0.97987 0.0
C4279 C 0.867 0.1089 0.98563 0.0
H4280 H 0.79887 0.62987 0.88724 0.0
H4281 H 0.78259 0.64142 0.898 0.0
H4282 H 0.78388 0.64179 0.87535 0.0
C4283 C 0.79435 0.63335 0.88708 0.0
C4284 C 0.79171 0.63554 0.8806 0.0
C4285 C 0.79109 0.6354 0.89336 0.0
C4286 C 0.78509 0.63978 0.89315 0.0
C4287 C 0.78257 0.64218 0.88659 0.0
C4288 C 0.78587 0.63998 0.88038 0.0
N4289 N 0.777 0.64708 0.88585 0.0
C4290 C 0.77175 0.64862 0.89068 0.0
H4291 H 0.29974 0.87849 0.12219 0.0
H4292 H 0.28311 0.86753 0.1114 0.0
H4293 H 0.28408 0.8674 0.13405 0.0
C4294 C 0.2951 0.87517 0.12237 0.0
C4295 C 0.29232 0.87321 0.12888 0.0
C4296 C 0.29188 0.87312 0.11606 0.0
C4297 C 0.28563 0.86912 0.11626 0.0
C4298 C 0.28286 0.86701 0.12282 0.0
C4299 C 0.28623 0.86908 0.12904 0.0
N4300 N 0.27686 0.86262 0.12355 0.0
C4301 C 0.27199 0.86077 0.11842 0.0
H4302 H 0.87833 0.54839 0.87247 0.0
H4303 H 0.89057 0.53286 0.86137 0.0
H4304 H 0.8923 0.53484 0.8839 0.0
C4305 C 0.88217 0.54416 0.87252 0.0
C4306 C 0.88505 0.54197 0.87892 0.0
C4307 C 0.88409 0.54089 0.86621 0.0
C4308 C 0.88902 0.53535 0.86626 0.0
C4309 C 0.892 0.53317 0.8727 0.0
C4310 C 0.88997 0.5365 0.87897 0.0
N4311 N 0.89735 0.528 0.87317 0.0
C4312 C 0.89848 0.52239 0.86861 0.0
H4313 H 0.2092 0.12866 0.62192 0.0
H4314 H 0.22436 0.1416 0.61122 0.0
H4315 H 0.22408 0.14075 0.63387 0.0
C4316 C 0.21367 0.1322 0.62214 0.0
C4317 C 0.21642 0.13418 0.62867 0.0
C4318 C 0.21647 0.13484 0.61586 0.0
C4319 C 0.22224 0.13947 0.61606 0.0
C4320 C 0.22493 0.14166 0.62262 0.0
C4321 C 0.22196 0.13905 0.62886 0.0
N4322 N 0.23019 0.14691 0.62326 0.0
C4323 C 0.23582 0.14796 0.61872 0.0
H4324 H 0.12925 0.95929 0.87259 0.0
H4325 H 0.11652 0.97422 0.86122 0.0
H4326 H 0.11607 0.97365 0.8839 0.0
C4327 C 0.12549 0.96359 0.87256 0.0
C4328 C 0.12304 0.96624 0.87894 0.0
C4329 C 0.12309 0.96634 0.86616 0.0
C4330 C 0.11839 0.97207 0.86615 0.0
C4331 C 0.11581 0.97469 0.87261 0.0
C4332 C 0.11808 0.97166 0.87894 0.0
N4333 N 0.11061 0.98004 0.87302 0.0
C4334 C 0.10963 0.9855 0.86825 0.0
H4335 H 0.7093 0.37926 0.38621 0.0
H4336 H 0.72561 0.36752 0.39664 0.0
H4337 H 0.72318 0.36614 0.37414 0.0
C4338 C 0.71364 0.37556 0.38594 0.0
C4339 C 0.71581 0.37296 0.37941 0.0
C4340 C 0.71713 0.37363 0.39213 0.0
C4341 C 0.72292 0.36902 0.39185 0.0
C4342 C 0.72508 0.36629 0.38529 0.0
C4343 C 0.7215 0.36828 0.37915 0.0
N4344 N 0.73063 0.36136 0.38453 0.0
C4345 C 0.73594 0.35985 0.38934 0.0
H4346 H 0.87904 0.45866 0.63529 0.0
H4347 H 0.89055 0.47475 0.64643 0.0
H4348 H 0.89079 0.47402 0.62375 0.0
C4349 C 0.88247 0.46323 0.63526 0.0
C4350 C 0.88462 0.46604 0.62885 0.0
C4351 C 0.88458 0.46631 0.64162 0.0
C4352 C 0.88887 0.47237 0.64153 0.0
C4353 C 0.89121 0.47509 0.63502 0.0
C4354 C 0.88903 0.4719 0.62875 0.0
N4355 N 0.89602 0.48076 0.63441 0.0
C4356 C 0.89755 0.48588 0.63939 0.0
H4357 H 0.6299 0.54906 0.13563 0.0
H4358 H 0.61634 0.53493 0.147 0.0
H4359 H 0.61592 0.5354 0.12433 0.0
C4360 C 0.62596 0.54492 0.13563 0.0
C4361 C 0.62335 0.54241 0.12924 0.0
C4362 C 0.6234 0.54232 0.14202 0.0
C4363 C 0.61836 0.53692 0.14205 0.0
C4364 C 0.61564 0.53442 0.13562 0.0
C4365 C 0.61806 0.53729 0.12926 0.0
N4366 N 0.61017 0.52937 0.13531 0.0
C4367 C 0.60946 0.5237 0.13987 0.0
H4368 H 0.62139 0.70814 0.87742 0.0
H4369 H 0.61104 0.72508 0.86656 0.0
H4370 H 0.63363 0.7248 0.86831 0.0
C4371 C 0.62172 0.71306 0.87455 0.0
C4372 C 0.62829 0.71612 0.87331 0.0
C4373 C 0.61551 0.71624 0.87218 0.0
C4374 C 0.61583 0.72261 0.8684 0.0
C4375 C 0.62246 0.72561 0.86689 0.0
C4376 C 0.6286 0.72235 0.86936 0.0
N4377 N 0.62334 0.73182 0.86283 0.0
C4378 C 0.61816 0.73647 0.86058 0.0
H4379 H 0.54914 0.37077 0.12708 0.0
H4380 H 0.53232 0.35998 0.11635 0.0
H4381 H 0.53346 0.38266 0.11611 0.0
C4382 C 0.54443 0.37091 0.12385 0.0
C4383 C 0.54165 0.37738 0.12184 0.0
C4384 C 0.5411 0.36463 0.12193 0.0
C4385 C 0.53489 0.36483 0.11786 0.0
C4386 C 0.53219 0.3714 0.11565 0.0
C4387 C 0.53558 0.37761 0.11773 0.0
N4388 N 0.52625 0.37216 0.1112 0.0
C4389 C 0.52133 0.36707 0.10938 0.0
H4390 H 0.88576 0.29949 0.37777 0.0
H4391 H 0.89659 0.2829 0.3668 0.0
H4392 H 0.87402 0.28468 0.36541 0.0
C4393 C 0.88561 0.29495 0.37431 0.0
C4394 C 0.87915 0.29247 0.37185 0.0
C4395 C 0.89188 0.29152 0.37256 0.0
C4396 C 0.89173 0.28552 0.36821 0.0
C4397 C 0.88524 0.28309 0.36555 0.0
C4398 C 0.87901 0.28657 0.36744 0.0
N4399 N 0.88467 0.27743 0.3607 0.0
C4400 C 0.88951 0.27204 0.35967 0.0
H4401 H 0.95778 0.63529 0.62674 0.0
H4402 H 0.97541 0.64627 0.6176 0.0
H4403 H 0.97527 0.6236 0.61872 0.0
C4404 C 0.96284 0.6352 0.6241 0.0
C4405 C 0.96613 0.62876 0.6229 0.0
C4406 C 0.96615 0.64154 0.62227 0.0
C4407 C 0.97282 0.64139 0.61901 0.0
C4408 C 0.97606 0.63485 0.6176 0.0
C4409 C 0.97272 0.62861 0.61967 0.0
N4410 N 0.9827 0.63415 0.61425 0.0
C4411 C 0.98691 0.63941 0.61143 0.0
H4412 H 0.62237 0.29872 0.62913 0.0
H4413 H 0.61111 0.28368 0.6418 0.0
H4414 H 0.6338 0.28387 0.64171 0.0
C4415 C 0.6224 0.29428 0.63273 0.0
C4416 C 0.62881 0.2915 0.63498 0.0
C4417 C 0.61602 0.29157 0.63522 0.0
C4418 C 0.61603 0.28575 0.63982 0.0
C4419 C 0.62251 0.28297 0.64217 0.0
C4420 C 0.62884 0.28596 0.63983 0.0
N4421 N 0.62295 0.27754 0.64728 0.0
C4422 C 0.61817 0.27208 0.64826 0.0
H4423 H 0.95765 0.37133 0.88082 0.0
H4424 H 0.97469 0.36125 0.89169 0.0
H4425 H 0.97398 0.38383 0.89026 0.0
C4426 C 0.96256 0.37177 0.88367 0.0
C4427 C 0.96547 0.37841 0.88499 0.0
C4428 C 0.96588 0.3656 0.88595 0.0
C4429 C 0.97217 0.36602 0.88983 0.0
C4430 C 0.97496 0.37267 0.89154 0.0
C4431 C 0.97163 0.37878 0.88907 0.0
N4432 N 0.98087 0.37358 0.89602 0.0
C4433 C 0.98619 0.36874 0.89735 0.0
H4434 H 0.88639 0.70829 0.13048 0.0
H4435 H 0.89659 0.72583 0.14051 0.0
H4436 H 0.87401 0.72399 0.14097 0.0
C4437 C 0.88604 0.71305 0.1336 0.0
C4438 C 0.87944 0.71567 0.13551 0.0
C4439 C 0.89221 0.71666 0.13538 0.0
C4440 C 0.89183 0.72302 0.13917 0.0
C4441 C 0.88519 0.72562 0.14125 0.0
C4442 C 0.87908 0.72194 0.13937 0.0
N4443 N 0.88426 0.73185 0.14527 0.0
C4444 C 0.88934 0.73665 0.14741 0.0
H4445 H 0.54988 0.6367 0.38121 0.0
H4446 H 0.53174 0.64646 0.39048 0.0
H4447 H 0.53322 0.62389 0.38958 0.0
C4448 C 0.54484 0.63617 0.38381 0.0
C4449 C 0.542 0.62948 0.38501 0.0
C4450 C 0.54115 0.64227 0.38565 0.0
C4451 C 0.53462 0.64174 0.38911 0.0
C4452 C 0.53189 0.63503 0.39073 0.0
C4453 C 0.53556 0.62899 0.38859 0.0
N4454 N 0.52543 0.63399 0.39433 0.0
C4455 C 0.52083 0.6391 0.39682 0.0
H4456 H 0.87719 0.62194 0.70693 0.0
H4457 H 0.86747 0.61144 0.72444 0.0
H4458 H 0.86938 0.63402 0.72435 0.0
C4459 C 0.87462 0.62222 0.71201 0.0
C4460 C 0.87367 0.62876 0.71525 0.0
C4461 C 0.87245 0.61598 0.71528 0.0
C4462 C 0.86911 0.61626 0.72188 0.0
C4463 C 0.86786 0.62284 0.72506 0.0
C4464 C 0.87017 0.62901 0.72174 0.0
N4465 N 0.86439 0.62362 0.73162 0.0
C4466 C 0.86182 0.6183 0.73593 0.0
H4467 H 0.63638 0.62775 0.95833 0.0
H4468 H 0.64656 0.61606 0.97478 0.0
H4469 H 0.62396 0.61737 0.97413 0.0
C4470 C 0.63598 0.62463 0.96309 0.0
C4471 C 0.62937 0.62308 0.96592 0.0
C4472 C 0.64216 0.62218 0.96626 0.0
C4473 C 0.64179 0.61802 0.97237 0.0
C4474 C 0.63515 0.61618 0.97511 0.0
C4475 C 0.62902 0.61872 0.97187 0.0
N4476 N 0.6343 0.6115 0.98088 0.0
C4477 C 0.63916 0.6102 0.98619 0.0
H4478 H 0.62821 0.38476 0.21044 0.0
H4479 H 0.64103 0.39699 0.22458 0.0
H4480 H 0.64353 0.37446 0.22337 0.0
C4481 C 0.63224 0.38505 0.21447 0.0
C4482 C 0.63553 0.37887 0.21667 0.0
C4483 C 0.6342 0.3916 0.21722 0.0
C4484 C 0.63948 0.39195 0.22242 0.0
C4485 C 0.64281 0.38571 0.2247 0.0
C4486 C 0.64092 0.37924 0.22167 0.0
N4487 N 0.64836 0.38572 0.2297 0.0
C4488 C 0.64891 0.39015 0.23551 0.0
H4489 H 0.87199 0.38069 0.45811 0.0
H4490 H 0.86118 0.39108 0.47508 0.0
H4491 H 0.88384 0.39109 0.47425 0.0
C4492 C 0.87217 0.38377 0.46291 0.0
C4493 C 0.87867 0.3856 0.4658 0.0
C4494 C 0.86586 0.3857 0.4662 0.0
C4495 C 0.86604 0.38951 0.47256 0.0
C4496 C 0.87259 0.39152 0.47543 0.0
C4497 C 0.87883 0.38951 0.47204 0.0
N4498 N 0.87328 0.39587 0.48146 0.0
C4499 C 0.86823 0.39722 0.48658 0.0
H4500 H 0.87824 0.38496 0.79884 0.0
H4501 H 0.86786 0.39648 0.78233 0.0
H4502 H 0.86444 0.37417 0.78464 0.0
C4503 C 0.87465 0.38506 0.7944 0.0
C4504 C 0.87149 0.37881 0.7922 0.0
C4505 C 0.87345 0.39143 0.79088 0.0
C4506 C 0.86885 0.39158 0.78506 0.0
C4507 C 0.8656 0.38529 0.7828 0.0
C4508 C 0.86697 0.37897 0.78639 0.0
N4509 N 0.86078 0.38496 0.7771 0.0
C4510 C 0.8597 0.38991 0.77182 0.0
H4511 H 0.87156 0.6275 0.04955 0.0
H4512 H 0.86101 0.61689 0.0326 0.0
H4513 H 0.88362 0.61642 0.03398 0.0
C4514 C 0.87184 0.62422 0.04489 0.0
C4515 C 0.8784 0.62219 0.04224 0.0
C4516 C 0.86558 0.62226 0.04154 0.0
C4517 C 0.86584 0.61837 0.03523 0.0
C4518 C 0.87242 0.61626 0.03252 0.0
C4519 C 0.87861 0.61816 0.03606 0.0
N4520 N 0.87319 0.61207 0.02638 0.0
C4521 C 0.86802 0.61023 0.02153 0.0
H4522 H 0.63066 0.62223 0.30006 0.0
H4523 H 0.64123 0.61121 0.28332 0.0
H4524 H 0.64114 0.6339 0.28386 0.0
C4525 C 0.63376 0.62234 0.29527 0.0
C4526 C 0.63559 0.62879 0.29231 0.0
C4527 C 0.63572 0.61599 0.29207 0.0
C4528 C 0.63961 0.6161 0.28575 0.0
C4529 C 0.64165 0.62263 0.28284 0.0
C4530 C 0.63956 0.6289 0.28611 0.0
N4531 N 0.64616 0.62323 0.27691 0.0
C4532 C 0.64734 0.61822 0.27172 0.0
H4533 H 0.63581 0.38112 0.55008 0.0
H4534 H 0.64633 0.39025 0.5322 0.0
H4535 H 0.6237 0.3903 0.5334 0.0
C4536 C 0.63557 0.38396 0.54513 0.0
C4537 C 0.62902 0.38554 0.5422 0.0
C4538 C 0.64181 0.3856 0.54157 0.0
C4539 C 0.64152 0.38902 0.53499 0.0
C4540 C 0.63492 0.39082 0.5321 0.0
C4541 C 0.62875 0.38899 0.5357 0.0
N4542 N 0.63407 0.39436 0.52557 0.0
C4543 C 0.63925 0.39684 0.52104 0.0
H4544 H 0.70757 0.8771 0.62242 0.0
H4545 H 0.72424 0.86655 0.61125 0.0
H4546 H 0.72364 0.86628 0.63393 0.0
C4547 C 0.71231 0.87393 0.62246 0.0
C4548 C 0.71525 0.87197 0.62889 0.0
C4549 C 0.71549 0.87202 0.61608 0.0
C4550 C 0.7218 0.86811 0.61616 0.0
C4551 C 0.72469 0.86594 0.62265 0.0
C4552 C 0.72141 0.86795 0.62895 0.0
N4553 N 0.73056 0.86135 0.6232 0.0
C4554 C 0.73585 0.86031 0.61825 0.0
H4555 H 0.20851 0.62971 0.38591 0.0
H4556 H 0.22489 0.64097 0.39661 0.0
H4557 H 0.22345 0.64183 0.37401 0.0
C4558 C 0.21313 0.63304 0.38564 0.0
C4559 C 0.21566 0.6353 0.3791 0.0
C4560 C 0.21649 0.63491 0.39192 0.0
C4561 C 0.22232 0.63947 0.39176 0.0
C4562 C 0.22473 0.64208 0.38524 0.0
C4563 C 0.22139 0.63996 0.37898 0.0
N4564 N 0.23037 0.64695 0.38465 0.0
C4565 C 0.23581 0.64794 0.38945 0.0
H4566 H 0.6274 0.95817 0.63642 0.0
H4567 H 0.61596 0.97457 0.64697 0.0
H4568 H 0.61703 0.97422 0.62435 0.0
C4569 C 0.62428 0.96294 0.63614 0.0
C4570 C 0.62273 0.9659 0.62959 0.0
C4571 C 0.62192 0.96601 0.6424 0.0
C4572 C 0.61784 0.9722 0.64215 0.0
C4573 C 0.61594 0.97505 0.63556 0.0
C4574 C 0.6184 0.97188 0.62936 0.0
N4575 N 0.61128 0.98084 0.63482 0.0
C4576 C 0.61002 0.98611 0.63974 0.0
H4577 H 0.29916 0.37765 0.88625 0.0
H4578 H 0.28236 0.36681 0.89685 0.0
H4579 H 0.28429 0.36557 0.87428 0.0
C4580 C 0.29459 0.37424 0.88602 0.0
C4581 C 0.29214 0.37187 0.87951 0.0
C4582 C 0.2911 0.37246 0.89225 0.0
C4583 C 0.28503 0.36822 0.89202 0.0
C4584 C 0.28261 0.36567 0.88548 0.0
C4585 C 0.28617 0.36754 0.87929 0.0
N4586 N 0.27684 0.36097 0.88482 0.0
C4587 C 0.27148 0.35986 0.88968 0.0
H4588 H 0.37902 0.54871 0.63536 0.0
H4589 H 0.39034 0.53256 0.64649 0.0
H4590 H 0.393 0.53504 0.6241 0.0
C4591 C 0.38275 0.54439 0.63532 0.0
C4592 C 0.38581 0.54233 0.62897 0.0
C4593 C 0.3843 0.54091 0.64163 0.0
C4594 C 0.38908 0.53524 0.64162 0.0
C4595 C 0.39219 0.5331 0.63522 0.0
C4596 C 0.39054 0.53667 0.62897 0.0
N4597 N 0.39723 0.52759 0.63477 0.0
C4598 C 0.39832 0.52214 0.63953 0.0
H4599 H 0.79877 0.13002 0.12296 0.0
H4600 H 0.78193 0.14037 0.11189 0.0
H4601 H 0.78377 0.14234 0.13443 0.0
C4602 C 0.79418 0.13342 0.12302 0.0
C4603 C 0.79173 0.13604 0.12942 0.0
C4604 C 0.79067 0.13488 0.11671 0.0
C4605 C 0.78466 0.13922 0.11676 0.0
C4606 C 0.78218 0.14195 0.12321 0.0
C4607 C 0.78572 0.14028 0.12948 0.0
N4608 N 0.77622 0.14642 0.12378 0.0
C4609 C 0.77132 0.14805 0.1186 0.0
H4610 H 0.62757 0.04948 0.8723 0.0
H4611 H 0.61669 0.03289 0.86131 0.0
H4612 H 0.61586 0.03414 0.88396 0.0
C4613 C 0.62423 0.04484 0.87239 0.0
C4614 C 0.62199 0.04214 0.87883 0.0
C4615 C 0.62239 0.04153 0.86608 0.0
C4616 C 0.61817 0.03543 0.8662 0.0
C4617 C 0.61571 0.03281 0.8727 0.0
C4618 C 0.61769 0.03618 0.87896 0.0
N4619 N 0.61097 0.02706 0.87327 0.0
C4620 C 0.60985 0.02178 0.86833 0.0
H4621 H 0.88125 0.95759 0.37216 0.0
H4622 H 0.89092 0.97504 0.36148 0.0
H4623 H 0.88889 0.9752 0.38404 0.0
C4624 C 0.88379 0.96269 0.37238 0.0
C4625 C 0.88467 0.96601 0.37889 0.0
C4626 C 0.88596 0.96588 0.36609 0.0
C4627 C 0.88926 0.97252 0.36631 0.0
C4628 C 0.89048 0.97578 0.37288 0.0
C4629 C 0.88814 0.97251 0.37907 0.0
N4630 N 0.89398 0.98233 0.37365 0.0
C4631 C 0.89644 0.98676 0.36837 0.0
H4632 H 0.38566 0.29708 0.12741 0.0
H4633 H 0.39695 0.28318 0.14129 0.0
H4634 H 0.37438 0.28485 0.14266 0.0
C4635 C 0.38564 0.29319 0.13159 0.0
C4636 C 0.37928 0.29119 0.13465 0.0
C4637 C 0.39202 0.29041 0.13401 0.0
C4638 C 0.39202 0.28531 0.13938 0.0
C4639 C 0.38561 0.28326 0.14248 0.0
C4640 C 0.3793 0.28634 0.14019 0.0
N4641 N 0.38529 0.27857 0.14827 0.0
C4642 C 0.38939 0.27258 0.14918 0.0
H4643 H 0.45953 0.63539 0.87817 0.0
H4644 H 0.47504 0.64669 0.8902 0.0
H4645 H 0.47277 0.62425 0.89266 0.0
C4646 C 0.46371 0.6354 0.88206 0.0
C4647 C 0.46575 0.62906 0.88517 0.0
C4648 C 0.46703 0.64175 0.88379 0.0
C4649 C 0.47251 0.64179 0.88878 0.0
C4650 C 0.4746 0.63541 0.89196 0.0
C4651 C 0.47119 0.62912 0.89014 0.0
N4652 N 0.47981 0.63505 0.89729 0.0
C4653 C 0.48544 0.63962 0.89827 0.0
H4654 H 0.12317 0.71135 0.62707 0.0
H4655 H 0.11088 0.72442 0.64094 0.0
H4656 H 0.13339 0.72307 0.64339 0.0
C4657 C 0.12286 0.71508 0.63138 0.0
C4658 C 0.12902 0.71703 0.63485 0.0
C4659 C 0.11629 0.71765 0.63355 0.0
C4660 C 0.11593 0.72243 0.6392 0.0
C4661 C 0.12214 0.72446 0.6427 0.0
C4662 C 0.12863 0.7216 0.64061 0.0
N4663 N 0.12204 0.72891 0.64869 0.0
C4664 C 0.11813 0.73507 0.64933 0.0
H4665 H 0.04936 0.37219 0.37963 0.0
H4666 H 0.03339 0.36113 0.39129 0.0
H4667 H 0.03404 0.38381 0.39144 0.0
C4668 C 0.04479 0.37229 0.38306 0.0
C4669 C 0.04201 0.37874 0.38518 0.0
C4670 C 0.04173 0.36593 0.3852 0.0
C4671 C 0.0357 0.36603 0.38951 0.0
C4672 C 0.03296 0.37254 0.39183 0.0
C4673 C 0.03612 0.37883 0.3896 0.0
N4674 N 0.02749 0.37306 0.39688 0.0
C4675 C 0.02191 0.36843 0.39777 0.0
H4676 H 0.38593 0.70951 0.37981 0.0
H4677 H 0.39668 0.72416 0.36628 0.0
H4678 H 0.37402 0.72348 0.36667 0.0
C4679 C 0.38575 0.71377 0.376 0.0
C4680 C 0.37925 0.71628 0.37369 0.0
C4681 C 0.39203 0.71651 0.3733 0.0
C4682 C 0.39183 0.72206 0.3684 0.0
C4683 C 0.38527 0.72457 0.366 0.0
C4684 C 0.37904 0.72157 0.36857 0.0
N4685 N 0.38463 0.72977 0.36068 0.0
C4686 C 0.38938 0.73513 0.35924 0.0
H4687 H 0.04942 0.6357 0.12856 0.0
H4688 H 0.03363 0.64683 0.11672 0.0
H4689 H 0.03425 0.62416 0.11646 0.0
C4690 C 0.04491 0.63561 0.12505 0.0
C4691 C 0.04217 0.62916 0.12285 0.0
C4692 C 0.04192 0.64198 0.12286 0.0
C4693 C 0.03591 0.64192 0.11852 0.0
C4694 C 0.03317 0.63543 0.11617 0.0
C4695 C 0.03632 0.62912 0.11836 0.0
N4696 N 0.02769 0.63493 0.11112 0.0
C4697 C 0.02212 0.63959 0.11025 0.0
H4698 H 0.1217 0.29922 0.87883 0.0
H4699 H 0.11101 0.28315 0.86701 0.0
H4700 H 0.13355 0.28513 0.86573 0.0
C4701 C 0.1219 0.29487 0.87514 0.0
C4702 C 0.1284 0.29255 0.87258 0.0
C4703 C 0.11565 0.29152 0.87317 0.0
C4704 C 0.11585 0.28571 0.86858 0.0
C4705 C 0.12236 0.28345 0.86583 0.0
C4706 C 0.12857 0.28688 0.86787 0.0
N4707 N 0.12295 0.27804 0.86072 0.0
C4708 C 0.11836 0.27242 0.85981 0.0
H4709 H 0.45969 0.37219 0.62975 0.0
H4710 H 0.47443 0.36109 0.6166 0.0
H4711 H 0.47322 0.38373 0.61585 0.0
C4712 C 0.46386 0.37226 0.62585 0.0
C4713 C 0.46623 0.37869 0.6232 0.0
C4714 C 0.46671 0.36591 0.62343 0.0
C4715 C 0.47223 0.36599 0.61849 0.0
C4716 C 0.47457 0.37247 0.61572 0.0
C4717 C 0.47145 0.37876 0.61801 0.0
N4718 N 0.47968 0.37291 0.61031 0.0
C4719 C 0.48539 0.36843 0.60942 0.0
H4720 H 0.12914 0.3863 0.29946 0.0
H4721 H 0.14109 0.3969 0.28345 0.0
H4722 H 0.14045 0.37426 0.28405 0.0
C4723 C 0.13249 0.38604 0.29485 0.0
C4724 C 0.13431 0.37949 0.29204 0.0
C4725 C 0.13488 0.39231 0.29181 0.0
C4726 C 0.13921 0.39206 0.2858 0.0
C4727 C 0.14134 0.38548 0.28311 0.0
C4728 C 0.13889 0.37927 0.28627 0.0
N4729 N 0.1462 0.38477 0.27748 0.0
C4730 C 0.14747 0.38964 0.27217 0.0
H4731 H 0.37316 0.37737 0.04674 0.0
H4732 H 0.36063 0.39094 0.03357 0.0
H4733 H 0.38311 0.39371 0.03483 0.0
C4734 C 0.37277 0.38166 0.04299 0.0
C4735 C 0.37886 0.3852 0.04098 0.0
C4736 C 0.36617 0.3837 0.04041 0.0
C4737 C 0.36571 0.3893 0.03557 0.0
C4738 C 0.37188 0.39287 0.03348 0.0
C4739 C 0.37839 0.39089 0.03635 0.0
N4740 N 0.37171 0.39876 0.02892 0.0
C4741 C 0.36764 0.39929 0.02286 0.0
H4742 H 0.37844 0.62205 0.79933 0.0
H4743 H 0.36725 0.61147 0.7827 0.0
H4744 H 0.36652 0.63408 0.78442 0.0
C4745 C 0.37498 0.62227 0.79479 0.0
C4746 C 0.37274 0.62879 0.79226 0.0
C4747 C 0.37307 0.61603 0.79136 0.0
C4748 C 0.36875 0.61629 0.78534 0.0
C4749 C 0.36629 0.62286 0.7829 0.0
C4750 C 0.36836 0.62904 0.78635 0.0
N4751 N 0.36156 0.62362 0.77718 0.0
C4752 C 0.35995 0.61867 0.77204 0.0
H4753 H 0.13474 0.62847 0.54965 0.0
H4754 H 0.14636 0.61705 0.53385 0.0
H4755 H 0.12367 0.61701 0.53374 0.0
C4756 C 0.13485 0.62512 0.54502 0.0
C4757 C 0.12852 0.62307 0.54196 0.0
C4758 C 0.1413 0.62301 0.54215 0.0
C4759 C 0.14139 0.61878 0.53604 0.0
C4760 C 0.13497 0.61653 0.53306 0.0
C4761 C 0.1286 0.61874 0.53603 0.0
N4762 N 0.13456 0.61166 0.52741 0.0
C4763 C 0.13958 0.61051 0.52222 0.0
H4764 H 0.12703 0.62291 0.21079 0.0
H4765 H 0.14085 0.61107 0.2243 0.0
H4766 H 0.14271 0.63364 0.22292 0.0
C4767 C 0.13123 0.62275 0.21465 0.0
C4768 C 0.13445 0.62903 0.21667 0.0
C4769 C 0.13348 0.61625 0.21733 0.0
C4770 C 0.13904 0.61606 0.22223 0.0
C4771 C 0.14234 0.62239 0.22429 0.0
C4772 C 0.14012 0.6288 0.22137 0.0
N4773 N 0.14819 0.62251 0.22892 0.0
C4774 C 0.14904 0.61829 0.23484 0.0
H4775 H 0.13603 0.37963 0.95847 0.0
H4776 H 0.1465 0.39055 0.97533 0.0
H4777 H 0.12386 0.39039 0.97415 0.0
C4778 C 0.13575 0.38287 0.96317 0.0
C4779 C 0.12919 0.38472 0.96591 0.0
C4780 C 0.14198 0.38492 0.96652 0.0
C4781 C 0.14168 0.38893 0.97275 0.0
C4782 C 0.13507 0.39096 0.97546 0.0
C4783 C 0.12891 0.38881 0.97203 0.0
N4784 N 0.13424 0.39532 0.98146 0.0
C4785 C 0.13933 0.39724 0.98634 0.0
H4786 H 0.37883 0.38631 0.70902 0.0
H4787 H 0.36712 0.39689 0.72518 0.0
H4788 H 0.3658 0.37437 0.72313 0.0
C4789 C 0.37515 0.38604 0.71336 0.0
C4790 C 0.37261 0.37951 0.71563 0.0
C4791 C 0.37313 0.39229 0.71668 0.0
C4792 C 0.36868 0.39206 0.7226 0.0
C4793 C 0.36604 0.38552 0.72492 0.0
C4794 C 0.36798 0.37933 0.72138 0.0
N4795 N 0.36116 0.38486 0.73053 0.0
C4796 C 0.36005 0.38965 0.73595 0.0
H4797 H 0.37199 0.62871 0.4586 0.0
H4798 H 0.36129 0.61721 0.47488 0.0
H4799 H 0.38387 0.61634 0.47331 0.0
C4800 C 0.3722 0.62516 0.46307 0.0
C4801 C 0.37871 0.62284 0.46557 0.0
C4802 C 0.36592 0.62314 0.46635 0.0
C4803 C 0.36613 0.61881 0.47236 0.0
C4804 C 0.37267 0.61631 0.47483 0.0
C4805 C 0.37888 0.61834 0.47141 0.0
N4806 N 0.3733 0.61142 0.48044 0.0
C4807 C 0.36854 0.6104 0.4859 0.0
H4808 H 0.29868 0.12902 0.3859 0.0
H4809 H 0.28257 0.14071 0.39668 0.0
H4810 H 0.28465 0.14227 0.37415 0.0
C4811 C 0.29434 0.13272 0.38574 0.0
C4812 C 0.29206 0.13538 0.37927 0.0
C4813 C 0.29094 0.1346 0.39199 0.0
C4814 C 0.28517 0.13923 0.39183 0.0
C4815 C 0.28293 0.14204 0.38534 0.0
C4816 C 0.28639 0.14009 0.37912 0.0
N4817 N 0.27745 0.14708 0.38476 0.0
C4818 C 0.27197 0.1481 0.3895 0.0
H4819 H 0.79833 0.3794 0.62363 0.0
H4820 H 0.78305 0.36792 0.61138 0.0
H4821 H 0.78464 0.36471 0.63379 0.0
C4822 C 0.79408 0.37561 0.62329 0.0
C4823 C 0.79178 0.37231 0.62942 0.0
C4824 C 0.79091 0.37418 0.61678 0.0
C4825 C 0.78545 0.36916 0.6164 0.0
C4826 C 0.7832 0.36571 0.62259 0.0
C4827 C 0.78637 0.36736 0.62905 0.0
N4828 N 0.77815 0.36022 0.62258 0.0
C4829 C 0.77243 0.35947 0.61808 0.0
H4830 H 0.3788 0.04916 0.37135 0.0
H4831 H 0.39129 0.03348 0.3609 0.0
H4832 H 0.39106 0.03454 0.38352 0.0
C4833 C 0.38233 0.04468 0.37167 0.0
C4834 C 0.3844 0.04211 0.37826 0.0
C4835 C 0.38473 0.0416 0.36544 0.0
C4836 C 0.38936 0.03583 0.36572 0.0
C4837 C 0.39176 0.0334 0.3723 0.0
C4838 C 0.38927 0.03656 0.3785 0.0
N4839 N 0.39703 0.02815 0.37298 0.0
C4840 C 0.398 0.02241 0.36855 0.0
H4841 H 0.70852 0.62925 0.12159 0.0
H4842 H 0.72453 0.64121 0.11099 0.0
H4843 H 0.724 0.64049 0.13362 0.0
C4844 C 0.71315 0.63258 0.12185 0.0
C4845 C 0.71599 0.63437 0.1284 0.0
C4846 C 0.71618 0.63499 0.11558 0.0
C4847 C 0.7222 0.6393 0.11582 0.0
C4848 C 0.72491 0.6414 0.1224 0.0
C4849 C 0.72178 0.63894 0.12861 0.0
N4850 N 0.7305 0.64631 0.1231 0.0
C4851 C 0.73594 0.64745 0.11834 0.0
H4852 H 0.62829 0.4584 0.37245 0.0
H4853 H 0.61724 0.47481 0.36136 0.0
H4854 H 0.61689 0.47402 0.38402 0.0
C4855 C 0.62497 0.46304 0.3725 0.0
C4856 C 0.6229 0.46589 0.37894 0.0
C4857 C 0.623 0.46623 0.36615 0.0
C4858 C 0.61885 0.47238 0.36625 0.0
C4859 C 0.61653 0.47512 0.37275 0.0
C4860 C 0.61865 0.47188 0.37903 0.0
N4861 N 0.6117 0.48078 0.37331 0.0
C4862 C 0.61061 0.48616 0.36848 0.0
H4863 H 0.20831 0.87887 0.88624 0.0
H4864 H 0.22455 0.86687 0.89647 0.0
H4865 H 0.2235 0.86767 0.87385 0.0
C4866 C 0.21291 0.87551 0.88589 0.0
C4867 C 0.21559 0.87371 0.87928 0.0
C4868 C 0.21607 0.87307 0.89208 0.0
C4869 C 0.22209 0.86876 0.89169 0.0
C4870 C 0.22467 0.86671 0.88504 0.0
C4871 C 0.22139 0.86918 0.87892 0.0
N4872 N 0.23039 0.86199 0.88415 0.0
C4873 C 0.23548 0.86021 0.88909 0.0
H4874 H 0.3773 0.96095 0.13585 0.0
H4875 H 0.39118 0.97496 0.14695 0.0
H4876 H 0.3924 0.97322 0.12437 0.0
C4877 C 0.38147 0.96485 0.13576 0.0
C4878 C 0.38446 0.96683 0.12935 0.0
C4879 C 0.38391 0.96768 0.1421 0.0
C4880 C 0.38928 0.97276 0.14205 0.0
C4881 C 0.39233 0.9748 0.1356 0.0
C4882 C 0.39 0.97169 0.12931 0.0
N4883 N 0.39798 0.97965 0.13522 0.0
C4884 C 0.39883 0.98552 0.13951 0.0
H4885 H 0.12836 0.04975 0.63611 0.0
H4886 H 0.11691 0.03326 0.64653 0.0
H4887 H 0.1176 0.03407 0.62391 0.0
C4888 C 0.12515 0.04504 0.6358 0.0
C4889 C 0.12346 0.04222 0.62922 0.0
C4890 C 0.12286 0.04186 0.64204 0.0
C4891 C 0.11871 0.03573 0.64172 0.0
C4892 C 0.11666 0.03304 0.63511 0.0
C4893 C 0.11905 0.03631 0.62894 0.0
N4894 N 0.11202 0.02724 0.63433 0.0
C4895 C 0.11066 0.02202 0.63927 0.0
H4896 H 0.02419 0.15111 0.4203 0.0
H4897 H 0.02708 0.15731 0.39865 0.0
H4898 H 0.01215 0.14751 0.41763 0.0
H4899 H 0.0152 0.15357 0.39592 0.0
H4900 H 0.99182 0.15136 0.39339 0.0
H4901 H 1.00325 0.15606 0.39705 0.0
H4902 H 0.00542 0.13896 0.41193 0.0
H4903 H 0.99391 0.13455 0.40844 0.0
C4904 C 0.02227 0.15164 0.41496 0.0
C4905 C 0.02658 0.15454 0.40971 0.0
C4906 C 0.01536 0.14958 0.41342 0.0
C4907 C 0.01262 0.15028 0.40655 0.0
C4908 C 0.017 0.15311 0.40131 0.0
C4909 C 0.02386 0.15523 0.40287 0.0
C4910 C 0.99473 0.14871 0.39751 0.0
C4911 C 0.99204 0.14264 0.40067 0.0
C4912 C 1.00131 0.15134 0.39957 0.0
C4913 C 0.00535 0.14787 0.40477 0.0
C4914 C 1.00248 0.14186 0.408 0.0
C4915 C 0.9959 0.13929 0.40598 0.0
H4916 H 0.10956 0.77524 0.66951 0.0
H4917 H 0.09816 0.77601 0.64989 0.0
H4918 H 0.11327 0.76324 0.66686 0.0
H4919 H 0.10195 0.76413 0.64716 0.0
H4920 H 0.10514 0.74044 0.64647 0.0
H4921 H 0.10074 0.75209 0.64985 0.0
H4922 H 0.1208 0.75677 0.65951 0.0
H4923 H 0.12501 0.74508 0.65632 0.0
C4924 C 0.10788 0.77286 0.66461 0.0
C4925 C 0.10354 0.77659 0.65993 0.0
C4926 C 0.11002 0.76598 0.66307 0.0
C4927 C 0.10791 0.76266 0.65678 0.0
C4928 C 0.10356 0.76641 0.65212 0.0
C4929 C 0.1014 0.77326 0.65368 0.0
C4930 C 0.10856 0.74399 0.64932 0.0
C4931 C 0.1154 0.74194 0.65112 0.0
C4932 C 0.10608 0.75068 0.65124 0.0
C4933 C 0.11041 0.75542 0.65496 0.0
C4934 C 0.11726 0.75326 0.65676 0.0
C4935 C 0.1197 0.74659 0.65487 0.0
H4936 H 0.47855 0.86479 0.90843 0.0
H4937 H 0.4865 0.8439 0.91249 0.0
H4938 H 0.49036 0.86875 0.9056 0.0
H4939 H 0.49837 0.84787 0.90977 0.0
H4940 H 0.51742 0.85547 0.89685 0.0
H4941 H 0.50572 0.85128 0.90034 0.0
H4942 H 0.50148 0.87145 0.90999 0.0
H4943 H 0.513 0.87561 0.90626 0.0
C4944 C 0.48284 0.86107 0.90885 0.0
C4945 C 0.48155 0.85402 0.91067 0.0
C4946 C 0.48964 0.86334 0.90722 0.0
C4947 C 0.49537 0.85863 0.90741 0.0
C4948 C 0.4941 0.85162 0.90941 0.0
C4949 C 0.48728 0.84935 0.911 0.0
C4950 C 0.51393 0.85897 0.8997 0.0
C4951 C 0.51602 0.86586 0.90126 0.0
C4952 C 0.50726 0.85657 0.90176 0.0
C4953 C 0.50259 0.86103 0.90543 0.0
C4954 C 0.50482 0.8679 0.90705 0.0
C4955 C 0.51145 0.87028 0.90496 0.0
H4956 H 0.41387 0.23611 0.16239 0.0
H4957 H 0.39287 0.22835 0.15845 0.0
H4958 H 0.41001 0.24799 0.15956 0.0
H4959 H 0.38902 0.24022 0.15569 0.0
H4960 H 0.38261 0.26309 0.1569 0.0
H4961 H 0.38673 0.25151 0.16057 0.0
H4962 H 0.40637 0.2551 0.14968 0.0
H4963 H 0.40222 0.26684 0.14617 0.0
C4964 C 0.40843 0.23692 0.16091 0.0
C4965 C 0.4037 0.23122 0.16063 0.0
C4966 C 0.40622 0.24375 0.15927 0.0
C4967 C 0.39921 0.24508 0.15735 0.0
C4968 C 0.39444 0.23942 0.15724 0.0
C4969 C 0.39665 0.23259 0.15885 0.0
C4970 C 0.38782 0.26138 0.15531 0.0
C4971 C 0.3921 0.26578 0.15124 0.0
C4972 C 0.39017 0.25474 0.15738 0.0
C4973 C 0.39687 0.25232 0.15538 0.0
C4974 C 0.40121 0.25681 0.15137 0.0
C4975 C 0.39883 0.2635 0.1493 0.0
H4976 H 0.02868 0.86491 0.09505 0.0
H4977 H 0.02261 0.84355 0.09995 0.0
H4978 H 0.01681 0.86886 0.09771 0.0
H4979 H 0.0109 0.84758 0.10308 0.0
H4980 H 0.98848 0.85648 0.10352 0.0
H4981 H 0.99991 0.85215 0.09934 0.0
H4982 H 0.0099 0.87078 0.10778 0.0
H4983 H 0.99849 0.87508 0.11172 0.0
C4984 C 0.02482 0.86103 0.09664 0.0
C4985 C 0.02668 0.85391 0.09736 0.0
C4986 C 0.01801 0.86332 0.09828 0.0
C4987 C 0.01289 0.85857 0.10075 0.0
C4988 C 0.01467 0.8514 0.10118 0.0
C4989 C 0.02145 0.84911 0.09948 0.0
C4990 C 0.99316 0.85957 0.10452 0.0
C4991 C 0.99268 0.86604 0.10801 0.0
C4992 C 0.99971 0.85712 0.10213 0.0
C4993 C 0.00587 0.86113 0.10318 0.0
C4994 C 0.00529 0.8676 0.10674 0.0
C4995 C 0.99877 0.87002 0.1091 0.0
H4996 H 0.40478 0.77744 0.35934 0.0
H4997 H 0.40246 0.77329 0.33714 0.0
H4998 H 0.40125 0.76549 0.36201 0.0
H4999 H 0.39909 0.76116 0.33979 0.0
H5000 H 0.38581 0.74252 0.34787 0.0
H5001 H 0.39008 0.75412 0.34444 0.0
H5002 H 0.40477 0.75372 0.36183 0.0
H5003 H 0.40019 0.74221 0.36538 0.0
C5004 C 0.40359 0.77393 0.35501 0.0
C5005 C 0.40394 0.77631 0.34802 0.0
C5006 C 0.40161 0.76703 0.35655 0.0
C5007 C 0.39996 0.76227 0.35113 0.0
C5008 C 0.40025 0.76468 0.34411 0.0
C5009 C 0.40218 0.77163 0.34258 0.0
C5010 C 0.39002 0.74491 0.35089 0.0
C5011 C 0.39271 0.74153 0.35686 0.0
C5012 C 0.3925 0.75154 0.34891 0.0
C5013 C 0.39776 0.75493 0.35287 0.0
C5014 C 0.40062 0.75136 0.35873 0.0
C5015 C 0.39808 0.74474 0.36073 0.0
H5016 H 0.48102 0.15814 0.60881 0.0
H5017 H 0.48336 0.15041 0.58759 0.0
H5018 H 0.49289 0.15438 0.61156 0.0
H5019 H 0.4954 0.14678 0.59027 0.0
H5020 H 0.51348 0.13403 0.6 0.0
H5021 H 0.50201 0.13847 0.59644 0.0
H5022 H 0.50488 0.15651 0.61004 0.0
H5023 H 0.51628 0.1518 0.61379 0.0
C5024 C 0.48412 0.15572 0.60469 0.0
C5025 C 0.48125 0.1546 0.59797 0.0
C5026 C 0.49097 0.15359 0.60626 0.0
C5027 C 0.49519 0.15031 0.60114 0.0
C5028 C 0.4923 0.1492 0.59439 0.0
C5029 C 0.4854 0.15129 0.59284 0.0
C5030 C 0.51165 0.13898 0.60217 0.0
C5031 C 0.5157 0.14259 0.60716 0.0
C5032 C 0.50509 0.14156 0.6001 0.0
C5033 C 0.50244 0.14785 0.60296 0.0
C5034 C 0.50666 0.15158 0.60782 0.0
C5035 C 0.51322 0.14894 0.60993 0.0
H5036 H 0.10145 0.23022 0.85991 0.0
H5037 H 0.1064 0.23412 0.83809 0.0
H5038 H 0.10495 0.2421 0.86289 0.0
H5039 H 0.11025 0.24604 0.84114 0.0
H5040 H 0.11044 0.26923 0.84842 0.0
H5041 H 0.10615 0.25751 0.84507 0.0
H5042 H 0.1153 0.24889 0.86403 0.0
H5043 H 0.11934 0.26059 0.86739 0.0
C5044 C 0.10328 0.23363 0.85573 0.0
C5045 C 0.1036 0.23122 0.84875 0.0
C5046 C 0.10538 0.24044 0.85746 0.0
C5047 C 0.10792 0.24505 0.85228 0.0
C5048 C 0.10825 0.24266 0.84527 0.0
C5049 C 0.10613 0.2358 0.84352 0.0
C5050 C 0.11136 0.26482 0.85191 0.0
C5051 C 0.11504 0.26578 0.85823 0.0
C5052 C 0.10901 0.2581 0.84996 0.0
C5053 C 0.11035 0.25224 0.85428 0.0
C5054 C 0.11403 0.25328 0.86063 0.0
C5055 C 0.11635 0.25998 0.86258 0.0
H5056 H 0.41423 0.02163 0.16328 0.0
H5057 H 0.40683 0.02984 0.14341 0.0
H5058 H 0.41087 0.00982 0.15965 0.0
H5059 H 0.4039 0.01799 0.13962 0.0
H5060 H 0.39175 0.99762 0.13778 0.0
H5061 H 0.39526 0.0093 0.14185 0.0
H5062 H 0.41348 1.00022 0.152 0.0
H5063 H 0.40979 0.98852 0.14804 0.0
C5064 C 0.41193 0.02093 0.15811 0.0
C5065 C 0.41074 0.02674 0.15367 0.0
C5066 C 0.41008 0.01412 0.156 0.0
C5067 C 0.40703 0.01293 0.14936 0.0
C5068 C 0.40609 0.01871 0.14483 0.0
C5069 C 0.40789 0.02552 0.14696 0.0
C5070 C 0.39643 0.99814 0.141 0.0
C5071 C 0.40045 0.99222 0.14271 0.0
C5072 C 0.39851 0.00483 0.14325 0.0
C5073 C 0.4047 0.00574 0.14721 0.0
C5074 C 0.40865 0.99973 0.14903 0.0
C5075 C 0.40655 0.99303 0.14678 0.0
H5076 H 0.23116 0.14922 0.40974 0.0
H5077 H 0.23291 0.16927 0.39918 0.0
H5078 H 0.24303 0.14623 0.40614 0.0
H5079 H 0.24479 0.16613 0.3953 0.0
H5080 H 0.26834 0.16071 0.39488 0.0
H5081 H 0.25674 0.16415 0.39935 0.0
H5082 H 0.24924 0.14297 0.39578 0.0
H5083 H 0.26087 0.13958 0.3915 0.0
C5084 C 0.2341 0.15302 0.40666 0.0
C5085 C 0.23109 0.15951 0.40478 0.0
C5086 C 0.24089 0.15125 0.40452 0.0
C5087 C 0.24488 0.15591 0.4004 0.0
C5088 C 0.24189 0.16244 0.39853 0.0
C5089 C 0.23506 0.16421 0.40068 0.0
C5090 C 0.26422 0.15678 0.39522 0.0
C5091 C 0.26548 0.14986 0.39302 0.0
C5092 C 0.25756 0.15876 0.39768 0.0
C5093 C 0.25204 0.15384 0.39794 0.0
C5094 C 0.25338 0.14688 0.39579 0.0
C5095 C 0.26004 0.14491 0.39334 0.0
H5096 H 0.08881 0.98331 0.64879 0.0
H5097 H 0.10855 0.9814 0.65987 0.0
H5098 H 0.09214 0.99516 0.64498 0.0
H5099 H 0.11173 0.99324 0.65635 0.0
H5100 H 0.11898 0.01089 0.64177 0.0
H5101 H 0.11534 0.99936 0.64611 0.0
H5102 H 0.09415 0.00713 0.64891 0.0
H5103 H 0.09784 0.01863 0.64437 0.0
C5104 C 0.09384 0.98542 0.65043 0.0
C5105 C 0.0984 0.9814 0.65465 0.0
C5106 C 0.09572 0.99224 0.64831 0.0
C5107 C 0.10222 0.99517 0.65034 0.0
C5108 C 0.10673 0.99115 0.6546 0.0
C5109 C 0.10486 0.98437 0.6567 0.0
C5110 C 0.11358 0.01015 0.64346 0.0
C5111 C 0.10871 0.01563 0.6429 0.0
C5112 C 0.11148 1.00355 0.64594 0.0
C5113 C 0.10444 1.0023 0.64789 0.0
C5114 C 0.09959 0.00787 0.6474 0.0
C5115 C 0.10171 0.01448 0.6449 0.0
H5116 H 0.27651 0.85934 0.90766 0.0
H5117 H 0.27387 0.83785 0.90082 0.0
H5118 H 0.26466 0.86208 0.90387 0.0
H5119 H 0.26183 0.84052 0.89718 0.0
H5120 H 0.24379 0.85009 0.88416 0.0
H5121 H 0.2552 0.84645 0.88869 0.0
H5122 H 0.2527 0.86077 0.90621 0.0
H5123 H 0.24137 0.8646 0.90139 0.0
C5124 C 0.27334 0.85516 0.90543 0.0
C5125 C 0.27613 0.84837 0.90457 0.0
C5126 C 0.2665 0.85673 0.90328 0.0
C5127 C 0.2622 0.85152 0.90027 0.0
C5128 C 0.26499 0.8447 0.8994 0.0
C5129 C 0.27189 0.84315 0.90149 0.0
C5130 C 0.24567 0.85238 0.88902 0.0
C5131 C 0.24176 0.8576 0.89245 0.0
C5132 C 0.2522 0.85027 0.89166 0.0
C5133 C 0.25495 0.85333 0.89781 0.0
C5134 C 0.25084 0.8584 0.90138 0.0
C5135 C 0.24432 0.86055 0.89869 0.0
H5136 H 0.41975 0.98475 0.35396 0.0
H5137 H 0.39775 0.97919 0.35489 0.0
H5138 H 0.41685 0.99669 0.35794 0.0
H5139 H 0.39484 0.99104 0.35855 0.0
H5140 H 0.39239 0.01013 0.3724 0.0
H5141 H 0.39588 0.99842 0.36854 0.0
H5142 H 0.41099 0.00762 0.35425 0.0
H5143 H 0.40756 0.01941 0.35835 0.0
C5144 C 0.41431 0.98607 0.35503 0.0
C5145 C 0.40898 0.98103 0.35408 0.0
C5146 C 0.41264 0.99293 0.35722 0.0
C5147 C 0.4056 0.99484 0.35858 0.0
C5148 C 0.40032 0.98976 0.35766 0.0
C5149 C 0.40198 0.98296 0.35548 0.0
C5150 C 0.39638 0.00963 0.36835 0.0
C5151 C 0.3996 0.01562 0.36553 0.0
C5152 C 0.39839 1.00293 0.36614 0.0
C5153 C 0.40368 1.00205 0.36102 0.0
C5154 C 0.40693 0.00809 0.35822 0.0
C5155 C 0.40491 0.01483 0.36048 0.0
H5156 H 0.27886 0.1617 0.61487 0.0
H5157 H 0.27217 0.15918 0.59329 0.0
H5158 H 0.26701 0.15895 0.61883 0.0
H5159 H 0.26046 0.15597 0.59727 0.0
H5160 H 0.23825 0.15546 0.60677 0.0
H5161 H 0.24971 0.15962 0.60254 0.0
H5162 H 0.25987 0.14884 0.61982 0.0
H5163 H 0.24842 0.1449 0.62405 0.0
C5164 C 0.27486 0.16062 0.61095 0.0
C5165 C 0.27653 0.16059 0.60375 0.0
C5166 C 0.26807 0.15892 0.61324 0.0
C5167 C 0.26278 0.15709 0.60839 0.0
C5168 C 0.26437 0.15735 0.60117 0.0
C5169 C 0.27114 0.15911 0.59889 0.0
C5170 C 0.24297 0.15393 0.60957 0.0
C5171 C 0.24253 0.14978 0.61565 0.0
C5172 C 0.24953 0.15631 0.60718 0.0
C5173 C 0.25575 0.15461 0.61086 0.0
C5174 C 0.25522 0.15038 0.61692 0.0
C5175 C 0.24868 0.14802 0.61929 0.0
H5176 H 0.10833 0.02614 0.84756 0.0
H5177 H 0.0888 0.02481 0.85909 0.0
H5178 H 0.11129 0.01425 0.85112 0.0
H5179 H 0.09192 0.01292 0.86292 0.0
H5180 H 0.09689 0.98932 0.86341 0.0
H5181 H 0.09348 1.00093 0.85892 0.0
H5182 H 0.11495 0.00803 0.86133 0.0
H5183 H 0.1183 0.99638 0.86564 0.0
C5184 C 0.10464 0.0233 0.85084 0.0
C5185 C 0.0983 0.02643 0.85301 0.0
C5186 C 0.10639 0.01649 0.85296 0.0
C5187 C 0.10187 0.01261 0.85734 0.0
C5188 C 0.0955 0.01572 0.85949 0.0
C5189 C 0.09374 0.02257 0.85736 0.0
C5190 C 0.10088 0.99335 0.86281 0.0
C5191 C 0.10787 0.99198 0.8647 0.0
C5192 C 0.09892 1.00002 0.86034 0.0
C5193 C 0.10393 0.00543 0.85976 0.0
C5194 C 0.11097 1.00396 0.86159 0.0
C5195 C 0.11291 0.9973 0.86404 0.0
H5196 H 0.23417 0.83775 0.10589 0.0
H5197 H 0.23029 0.85971 0.1017 0.0
H5198 H 0.24626 0.84055 0.10928 0.0
H5199 H 0.24218 0.86257 0.10525 0.0
H5200 H 0.26534 0.86606 0.1069 0.0
H5201 H 0.254 0.86215 0.10219 0.0
H5202 H 0.25319 0.84577 0.11798 0.0
H5203 H 0.26462 0.84953 0.12238 0.0
C5204 C 0.23589 0.84318 0.10575 0.0
C5205 C 0.23129 0.8485 0.10347 0.0
C5206 C 0.24282 0.8448 0.1077 0.0
C5207 C 0.24528 0.8518 0.10748 0.0
C5208 C 0.2406 0.8571 0.1053 0.0
C5209 C 0.23373 0.85547 0.1033 0.0
C5210 C 0.26277 0.86153 0.10922 0.0
C5211 C 0.26581 0.85805 0.11494 0.0
C5212 C 0.25624 0.85933 0.1066 0.0
C5213 C 0.25258 0.85367 0.10974 0.0
C5214 C 0.25583 0.85007 0.11534 0.0
C5215 C 0.26237 0.85224 0.11789 0.0
H5216 H 0.158 0.39856 0.02727 0.0
H5217 H 0.15086 0.41995 0.02458 0.0
H5218 H 0.15433 0.39577 0.01539 0.0
H5219 H 0.14734 0.41724 0.01252 0.0
H5220 H 0.13442 0.40746 0.99452 0.0
H5221 H 0.13897 0.41124 0.00588 0.0
H5222 H 0.15659 0.39703 1.00343 0.0
H5223 H 0.15174 0.39305 0.99216 0.0
C5224 C 0.15573 0.40271 0.02408 0.0
C5225 C 0.15474 0.40949 0.02687 0.0
C5226 C 0.15366 0.40112 0.01722 0.0
C5227 C 0.15058 0.40628 0.0129 0.0
C5228 C 0.14961 0.41309 0.01569 0.0
C5229 C 0.15163 0.41466 0.02261 0.0
C5230 C 0.13932 0.40523 0.9964 0.0
C5231 C 0.14276 0.4 0.99253 0.0
C5232 C 0.14196 0.40742 1.0029 0.0
C5233 C 0.14814 0.40443 0.00566 0.0
C5234 C 0.15173 0.39936 1.00157 0.0
C5235 C 0.14903 0.39712 0.99508 0.0
H5236 H 0.64891 0.08823 0.98262 0.0
H5237 H 0.65994 0.10805 0.98142 0.0
H5238 H 0.64523 0.09103 0.9946 0.0
H5239 H 0.65614 0.11095 0.99325 0.0
H5240 H 0.65251 0.11288 0.0166 0.0
H5241 H 0.65727 0.10882 0.0053 0.0
H5242 H 0.6376 0.09822 1.00094 0.0
H5243 H 0.63309 0.10204 0.01229 0.0
C5244 C 0.65051 0.0932 0.9849 0.0
C5245 C 0.65474 0.0979 0.98107 0.0
C5246 C 0.6484 0.09483 0.99178 0.0
C5247 C 0.65039 0.10123 0.99496 0.0
C5248 C 0.65463 0.1059 0.99109 0.0
C5249 C 0.65678 0.10425 0.98427 0.0
C5250 C 0.64929 0.10961 0.01322 0.0
C5251 C 0.64247 0.10775 0.01525 0.0
C5252 C 0.65196 0.10732 0.00673 0.0
C5253 C 0.64782 0.1032 1.00213 0.0
C5254 C 0.64102 0.10126 0.00432 0.0
C5255 C 0.6384 0.1035 0.01081 0.0
H5256 H 0.16909 0.39904 0.23326 0.0
H5257 H 0.14923 0.40991 0.23138 0.0
H5258 H 0.16586 0.39528 0.24516 0.0
H5259 H 0.14615 0.40644 0.24326 0.0
H5260 H 0.13911 0.39191 0.26102 0.0
H5261 H 0.14267 0.39617 0.24944 0.0
H5262 H 0.16385 0.39929 0.25713 0.0
H5263 H 0.16023 0.39483 0.26869 0.0
C5264 C 0.16405 0.40064 0.23539 0.0
C5265 C 0.15943 0.40479 0.23136 0.0
C5266 C 0.16223 0.39856 0.24223 0.0
C5267 C 0.15572 0.40054 0.24518 0.0
C5268 C 0.15116 0.40473 0.24115 0.0
C5269 C 0.15297 0.4068 0.23435 0.0
C5270 C 0.14448 0.39366 0.26025 0.0
C5271 C 0.14937 0.39321 0.26573 0.0
C5272 C 0.14654 0.39609 0.25362 0.0
C5273 C 0.15356 0.39811 0.25233 0.0
C5274 C 0.15843 0.39773 0.2579 0.0
C5275 C 0.15635 0.39528 0.26454 0.0
H5276 H 0.84775 0.89958 0.48185 0.0
H5277 H 0.8588 0.91939 0.483 0.0
H5278 H 0.85148 0.89675 0.49373 0.0
H5279 H 0.86242 0.91665 0.495 0.0
H5280 H 0.87446 0.90573 0.51276 0.0
H5281 H 0.87005 0.90936 0.50131 0.0
H5282 H 0.85022 0.89913 0.5058 0.0
H5283 H 0.85486 0.89527 0.51722 0.0
C5284 C 0.85089 0.90339 0.48469 0.0
C5285 C 0.85296 0.90972 0.48148 0.0
C5286 C 0.85301 0.90178 0.49154 0.0
C5287 C 0.85724 0.90647 0.49539 0.0
C5288 C 0.85926 0.91284 0.49218 0.0
C5289 C 0.85718 0.91443 0.4853 0.0
C5290 C 0.86914 0.90431 0.51128 0.0
C5291 C 0.86498 0.90023 0.51579 0.0
C5292 C 0.86658 0.90643 0.50474 0.0
C5293 C 0.85976 0.90455 0.50257 0.0
C5294 C 0.85554 0.90058 0.50722 0.0
C5295 C 0.85814 0.89841 0.51378 0.0
H5296 H 0.84964 0.0928 0.23546 0.0
H5297 H 0.84586 0.11444 0.22963 0.0
H5298 H 0.85251 0.0965 0.24738 0.0
H5299 H 0.8486 0.11811 0.24159 0.0
H5300 H 0.84922 0.12233 0.26494 0.0
H5301 H 0.84486 0.11774 0.25376 0.0
H5302 H 0.86197 0.10278 0.25331 0.0
H5303 H 0.86626 0.10738 0.26459 0.0
C5304 C 0.84942 0.09835 0.2367 0.0
C5305 C 0.8476 0.10333 0.23152 0.0
C5306 C 0.85105 0.10047 0.24356 0.0
C5307 C 0.85085 0.1076 0.24544 0.0
C5308 C 0.84875 0.11256 0.24035 0.0
C5309 C 0.84715 0.11045 0.23347 0.0
C5310 C 0.85195 0.11796 0.2625 0.0
C5311 C 0.85801 0.11514 0.26561 0.0
C5312 C 0.8495 0.11538 0.25607 0.0
C5313 C 0.85308 0.10992 0.2526 0.0
C5314 C 0.85904 0.10694 0.25587 0.0
C5315 C 0.8615 0.10955 0.26231 0.0
H5316 H 0.35725 0.58848 0.52423 0.0
H5317 H 0.35015 0.60981 0.5275 0.0
H5318 H 0.36117 0.59166 0.51237 0.0
H5319 H 0.35377 0.61289 0.51567 0.0
H5320 H 0.36843 0.61829 0.49757 0.0
H5321 H 0.36425 0.61482 0.5092 0.0
H5322 H 0.35704 0.595 0.50069 0.0
H5323 H 0.36144 0.59848 0.48906 0.0
C5324 C 0.35653 0.59383 0.52242 0.0
C5325 C 0.35337 0.59888 0.52681 0.0
C5326 C 0.35869 0.59564 0.5156 0.0
C5327 C 0.3578 0.60254 0.51305 0.0
C5328 C 0.35463 0.60755 0.51746 0.0
C5329 C 0.35248 0.60576 0.52424 0.0
C5330 C 0.36582 0.61326 0.49818 0.0
C5331 C 0.36509 0.60871 0.49245 0.0
C5332 C 0.36344 0.61125 0.50484 0.0
C5333 C 0.36027 0.60463 0.5059 0.0
C5334 C 0.3595 0.6001 0.50009 0.0
C5335 C 0.36192 0.60212 0.49342 0.0
H5336 H 0.1699 0.6068 0.27408 0.0
H5337 H 0.14808 0.60121 0.27685 0.0
H5338 H 0.16744 0.61033 0.26197 0.0
H5339 H 0.14555 0.60489 0.2649 0.0
H5340 H 0.14351 0.60676 0.24133 0.0
H5341 H 0.14674 0.60224 0.25297 0.0
H5342 H 0.16202 0.61897 0.25513 0.0
H5343 H 0.15895 0.62321 0.24343 0.0
C5344 C 0.16457 0.60639 0.27212 0.0
C5345 C 0.1592 0.60369 0.27642 0.0
C5346 C 0.16314 0.60842 0.26517 0.0
C5347 C 0.15628 0.60788 0.26239 0.0
C5348 C 0.15092 0.60523 0.26675 0.0
C5349 C 0.15237 0.60315 0.27364 0.0
C5350 C 0.1476 0.60939 0.24431 0.0
C5351 C 0.151 0.61531 0.24155 0.0
C5352 C 0.14943 0.60686 0.251 0.0
C5353 C 0.15463 0.61026 0.25507 0.0
C5354 C 0.15808 0.61613 0.25217 0.0
C5355 C 0.15628 0.61861 0.24548 0.0
H5356 H 0.3387 0.39873 0.77502 0.0
H5357 H 0.3583 0.4101 0.7767 0.0
H5358 H 0.34193 0.39499 0.76313 0.0
H5359 H 0.36137 0.40664 0.76481 0.0
H5360 H 0.36854 0.39218 0.74697 0.0
H5361 H 0.36504 0.39645 0.75858 0.0
H5362 H 0.3437 0.39903 0.75116 0.0
H5363 H 0.34726 0.39457 0.73959 0.0
C5364 C 0.34368 0.40045 0.77285 0.0
C5365 C 0.34823 0.40472 0.77682 0.0
C5366 C 0.3455 0.39838 0.766 0.0
C5367 C 0.35193 0.4005 0.76299 0.0
C5368 C 0.35643 0.40482 0.76697 0.0
C5369 C 0.35462 0.40688 0.77377 0.0
C5370 C 0.36315 0.39381 0.74781 0.0
C5371 C 0.35819 0.3932 0.74241 0.0
C5372 C 0.36112 0.39624 0.75445 0.0
C5373 C 0.35408 0.39811 0.75583 0.0
C5374 C 0.34914 0.39758 0.75033 0.0
C5375 C 0.35119 0.39513 0.74368 0.0
H5376 H 0.97845 0.8547 0.6093 0.0
H5377 H 0.98504 0.85233 0.58769 0.0
H5378 H 0.99014 0.85852 0.61252 0.0
H5379 H 0.99681 0.85656 0.59087 0.0
H5380 H 0.01909 0.85794 0.6009 0.0
H5381 H 0.00749 0.85352 0.59724 0.0
H5382 H 0.99757 0.86829 0.61142 0.0
H5383 H 0.00908 0.87242 0.61517 0.0
C5384 C 0.98241 0.855 0.60521 0.0
C5385 C 0.9808 0.85314 0.59824 0.0
C5386 C 0.98912 0.85729 0.60705 0.0
C5387 C 0.99445 0.8579 0.60196 0.0
C5388 C 0.99286 0.85609 0.59495 0.0
C5389 C 0.98609 0.85376 0.5931 0.0
C5390 C 0.01439 0.8601 0.6033 0.0
C5391 C 0.01492 0.86537 0.60844 0.0
C5392 C 0.00776 0.85766 0.60114 0.0
C5393 C 1.00156 0.8605 0.60406 0.0
C5394 C 1.00219 0.86584 0.60916 0.0
C5395 C 0.00879 0.86822 0.61133 0.0
H5396 H 0.90309 0.23469 0.33715 0.0
H5397 H 0.90717 0.23015 0.35903 0.0
H5398 H 0.89888 0.24643 0.34042 0.0
H5399 H 0.90334 0.24186 0.36224 0.0
H5400 H 0.88856 0.25997 0.36682 0.0
H5401 H 0.89293 0.24846 0.36323 0.0
H5402 H 0.90247 0.25784 0.34483 0.0
H5403 H 0.89784 0.26937 0.34841 0.0
C5404 C 0.90309 0.23619 0.34264 0.0
C5405 C 0.90549 0.23147 0.34782 0.0
C5406 C 0.90076 0.24295 0.34452 0.0
C5407 C 0.90075 0.24511 0.35161 0.0
C5408 C 0.90316 0.24037 0.35674 0.0
C5409 C 0.90546 0.23366 0.35489 0.0
C5410 C 0.89171 0.25957 0.36209 0.0
C5411 C 0.89302 0.26552 0.35797 0.0
C5412 C 0.89421 0.25298 0.36 0.0
C5413 C 0.89811 0.2522 0.35375 0.0
C5414 C 0.89945 0.25822 0.34965 0.0
C5415 C 0.8969 0.26483 0.35174 0.0
H5416 H 0.52764 0.15788 0.1087 0.0
H5417 H 0.5237 0.15279 0.08693 0.0
H5418 H 0.51592 0.15399 0.11181 0.0
H5419 H 0.51178 0.14904 0.08999 0.0
H5420 H 0.49408 0.13549 0.09964 0.0
H5421 H 0.50528 0.14023 0.09559 0.0
H5422 H 0.50396 0.15655 0.1114 0.0
H5423 H 0.49287 0.15152 0.11561 0.0
C5424 C 0.52422 0.15601 0.10455 0.0
C5425 C 0.5266 0.15568 0.09756 0.0
C5426 C 0.51744 0.15382 0.10632 0.0
C5427 C 0.5128 0.15126 0.10116 0.0
C5428 C 0.5152 0.1509 0.09414 0.0
C5429 C 0.52204 0.15305 0.09237 0.0
C5430 C 0.49616 0.14017 0.10216 0.0
C5431 C 0.49265 0.14319 0.10789 0.0
C5432 C 0.50258 0.14291 0.09983 0.0
C5433 C 0.50562 0.14876 0.10319 0.0
C5434 C 0.50189 0.15195 0.10877 0.0
C5435 C 0.49549 0.14915 0.11114 0.0
H5436 H 0.60483 0.77364 0.83691 0.0
H5437 H 0.60043 0.77767 0.85882 0.0
H5438 H 0.6085 0.76167 0.83988 0.0
H5439 H 0.60424 0.76589 0.86182 0.0
H5440 H 0.60637 0.74283 0.86557 0.0
H5441 H 0.6014 0.75398 0.86145 0.0
H5442 H 0.61738 0.75504 0.84528 0.0
H5443 H 0.62206 0.74378 0.84925 0.0
C5444 C 0.6047 0.77198 0.84236 0.0
C5445 C 0.60228 0.77659 0.84762 0.0
C5446 C 0.60681 0.76512 0.84408 0.0
C5447 C 0.60661 0.76273 0.8511 0.0
C5448 C 0.60428 0.76741 0.85634 0.0
C5449 C 0.60213 0.77421 0.85462 0.0
C5450 C 0.60868 0.7454 0.86104 0.0
C5451 C 0.61453 0.74247 0.85767 0.0
C5452 C 0.60591 0.75183 0.85872 0.0
C5453 C 0.60903 0.75551 0.85307 0.0
C5454 C 0.61476 0.75238 0.84958 0.0
C5455 C 0.61747 0.74593 0.85186 0.0
H5456 H 0.98789 0.16003 0.91912 0.0
H5457 H 0.97917 0.1528 0.89936 0.0
H5458 H 0.99934 0.15559 0.91563 0.0
H5459 H 0.99068 0.14915 0.89561 0.0
H5460 H 0.00989 0.13552 0.89363 0.0
H5461 H 0.99861 0.14026 0.89729 0.0
H5462 H 0.00931 0.15692 0.90854 0.0
H5463 H 0.02066 0.15182 0.90509 0.0
C5464 C 0.98837 0.15755 0.91402 0.0
C5465 C 0.98248 0.15678 0.90957 0.0
C5466 C 0.99501 0.15511 0.91196 0.0
C5467 C 0.99599 0.15195 0.90533 0.0
C5468 C 0.99016 0.15139 0.90082 0.0
C5469 C 0.98351 0.15366 0.90293 0.0
C5470 C 0.0098 0.14025 0.8968 0.0
C5471 C 0.01608 0.14341 0.89897 0.0
C5472 C 1.00333 0.14301 0.8989 0.0
C5473 C 1.00298 0.14906 0.90316 0.0
C5474 C 0.00934 0.15223 0.90531 0.0
C5475 C 0.01584 0.14939 0.90326 0.0
H5476 H 0.59284 0.23683 0.66322 0.0
H5477 H 0.61371 0.22859 0.65957 0.0
H5478 H 0.59676 0.24843 0.65949 0.0
H5479 H 0.61772 0.24026 0.65628 0.0
H5480 H 0.62097 0.25947 0.64266 0.0
H5481 H 0.61661 0.24807 0.64663 0.0
H5482 H 0.60382 0.25847 0.6623 0.0
H5483 H 0.60813 0.26991 0.65814 0.0
C5484 C 0.59828 0.23748 0.66167 0.0
C5485 C 0.60292 0.2317 0.66163 0.0
C5486 C 0.60055 0.24418 0.65961 0.0
C5487 C 0.60755 0.24529 0.65749 0.0
C5488 C 0.61226 0.23958 0.65773 0.0
C5489 C 0.60997 0.23288 0.65974 0.0
C5490 C 0.61712 0.2593 0.64686 0.0
C5491 C 0.61477 0.26552 0.65002 0.0
C5492 C 0.61469 0.25277 0.64922 0.0
C5493 C 0.6099 0.25231 0.65485 0.0
C5494 C 0.60745 0.2586 0.65791 0.0
C5495 C 0.60989 0.26515 0.65553 0.0
H5496 H 0.52211 0.84158 0.40843 0.0
H5497 H 0.52753 0.86311 0.41333 0.0
H5498 H 0.51033 0.8453 0.40507 0.0
H5499 H 0.51572 0.86681 0.41002 0.0
H5500 H 0.49258 0.87123 0.4076 0.0
H5501 H 0.50337 0.86646 0.41274 0.0
H5502 H 0.50494 0.8517 0.39552 0.0
H5503 H 0.49407 0.85645 0.39049 0.0
C5504 C 0.5208 0.84712 0.4088 0.0
C5505 C 0.52584 0.85205 0.41107 0.0
C5506 C 0.51403 0.84924 0.40687 0.0
C5507 C 0.51207 0.85636 0.40719 0.0
C5508 C 0.517 0.86127 0.40976 0.0
C5509 C 0.5238 0.85914 0.41167 0.0
C5510 C 0.49515 0.86683 0.40504 0.0
C5511 C 0.49248 0.8641 0.39873 0.0
C5512 C 0.50138 0.86416 0.40793 0.0
C5513 C 0.50507 0.85872 0.40454 0.0
C5514 C 0.5022 0.85582 0.39834 0.0
C5515 C 0.49597 0.85852 0.39544 0.0
H5516 H 0.91534 0.77141 0.1626 0.0
H5517 H 0.89417 0.7794 0.16043 0.0
H5518 H 0.91127 0.75972 0.15929 0.0
H5519 H 0.8901 0.76771 0.15727 0.0
H5520 H 0.88363 0.74493 0.15711 0.0
H5521 H 0.88822 0.75602 0.16168 0.0
H5522 H 0.90688 0.75348 0.14894 0.0
H5523 H 0.90224 0.74227 0.14445 0.0
C5524 C 0.90982 0.7707 0.16142 0.0
C5525 C 0.90511 0.77641 0.16175 0.0
C5526 C 0.90749 0.76398 0.15952 0.0
C5527 C 0.90037 0.76276 0.15797 0.0
C5528 C 0.89561 0.76842 0.15851 0.0
C5529 C 0.89795 0.77515 0.16036 0.0
C5530 C 0.88876 0.74672 0.15537 0.0
C5531 C 0.89262 0.74279 0.15047 0.0
C5532 C 0.89136 0.75309 0.15794 0.0
C5533 C 0.89789 0.75569 0.15564 0.0
C5534 C 0.90186 0.75161 0.15087 0.0
C5535 C 0.89922 0.74521 0.14828 0.0
H5536 H 0.60868 0.9803 0.84964 0.0
H5537 H 0.58724 0.98413 0.85607 0.0
H5538 H 0.61196 0.99204 0.85335 0.0
H5539 H 0.59061 0.99589 0.86014 0.0
H5540 H 0.59799 0.01899 0.86096 0.0
H5541 H 0.59433 0.00749 0.85634 0.0
H5542 H 0.61382 0.99845 0.8638 0.0
H5543 H 0.61747 0.00994 0.86817 0.0
C5544 C 0.60465 0.98366 0.85184 0.0
C5545 C 0.59768 0.98127 0.85251 0.0
C5546 C 0.60655 0.99039 0.85406 0.0
C5547 C 0.60157 0.99493 0.85709 0.0
C5548 C 0.59458 0.99257 0.85776 0.0
C5549 C 0.59266 0.9858 0.85552 0.0
C5550 C 0.60152 0.01454 0.86143 0.0
C5551 C 0.60807 0.01533 0.86473 0.0
C5552 C 0.5994 0.00795 0.85889 0.0
C5553 C 0.60378 1.00202 0.85966 0.0
C5554 C 0.61036 1.00289 0.86296 0.0
C5555 C 0.61248 0.00948 0.86546 0.0
H5556 H 0.77858 0.8594 0.60298 0.0
H5557 H 0.77255 0.83749 0.60318 0.0
H5558 H 0.76689 0.86272 0.60672 0.0
H5559 H 0.76081 0.84083 0.60735 0.0
H5560 H 0.73832 0.85017 0.60847 0.0
H5561 H 0.74988 0.84649 0.604 0.0
H5562 H 0.75975 0.86255 0.61674 0.0
H5563 H 0.74824 0.8663 0.62092 0.0
C5564 C 0.77475 0.85527 0.60383 0.0
C5565 C 0.77651 0.84817 0.60271 0.0
C5566 C 0.76804 0.85718 0.60608 0.0
C5567 C 0.76287 0.85206 0.60738 0.0
C5568 C 0.76462 0.84493 0.60632 0.0
C5569 C 0.77138 0.84301 0.60403 0.0
C5570 C 0.74298 0.85298 0.61015 0.0
C5571 C 0.74244 0.85863 0.61487 0.0
C5572 C 0.7496 0.85082 0.60769 0.0
C5573 C 0.75578 0.85424 0.60996 0.0
C5574 C 0.75514 0.85988 0.61472 0.0
C5575 C 0.74855 0.86205 0.61712 0.0
H5576 H 0.92048 0.02365 0.35502 0.0
H5577 H 0.89871 0.02765 0.34999 0.0
H5578 H 0.91741 0.01171 0.35871 0.0
H5579 H 0.89559 0.01591 0.35383 0.0
H5580 H 0.8917 0.99291 0.35636 0.0
H5581 H 0.89595 1.00396 0.35127 0.0
H5582 H 0.91184 0.00522 0.36752 0.0
H5583 H 0.90775 0.99406 0.37231 0.0
C5584 C 0.91504 0.02199 0.35475 0.0
C5585 C 0.90986 0.02658 0.35216 0.0
C5586 C 0.91326 0.01515 0.35687 0.0
C5587 C 0.90624 0.01277 0.35652 0.0
C5588 C 0.90108 0.01742 0.354 0.0
C5589 C 0.90286 0.02421 0.35183 0.0
C5590 C 0.89621 0.9955 0.35869 0.0
C5591 C 0.89947 0.99265 0.36465 0.0
C5592 C 0.8986 1.00188 0.35586 0.0
C5593 C 0.90421 0.00558 0.35902 0.0
C5594 C 0.90759 1.00253 0.36486 0.0
C5595 C 0.90524 0.99614 0.36763 0.0
H5596 H 0.73519 0.15771 0.09198 0.0
H5597 H 0.72963 0.16409 0.11308 0.0
H5598 H 0.74697 0.15472 0.09598 0.0
H5599 H 0.74146 0.16119 0.11705 0.0
H5600 H 0.76484 0.1602 0.12122 0.0
H5601 H 0.7537 0.16435 0.11634 0.0
H5602 H 0.7527 0.14585 0.10315 0.0
H5603 H 0.76394 0.1418 0.10802 0.0
C5604 C 0.73646 0.15847 0.09748 0.0
C5605 C 0.73139 0.16107 0.10222 0.0
C5606 C 0.74324 0.15676 0.09977 0.0
C5607 C 0.74517 0.15765 0.10685 0.0
C5608 C 0.74019 0.16049 0.11154 0.0
C5609 C 0.73339 0.16218 0.10926 0.0
C5610 C 0.76228 0.1571 0.11718 0.0
C5611 C 0.76523 0.15074 0.11492 0.0
C5612 C 0.75587 0.15943 0.11444 0.0
C5613 C 0.75226 0.15542 0.10938 0.0
C5614 C 0.75536 0.14912 0.10698 0.0
C5615 C 0.76179 0.14678 0.10975 0.0
H5616 H 0.60898 0.02804 0.65726 0.0
H5617 H 0.58716 0.02339 0.65302 0.0
H5618 H 0.61228 0.01633 0.65353 0.0
H5619 H 0.59052 0.01164 0.6489 0.0
H5620 H 0.59866 0.98873 0.64798 0.0
H5621 H 0.59497 1.00024 0.65256 0.0
H5622 H 0.61338 0.00972 0.64314 0.0
H5623 H 0.61709 0.99823 0.63884 0.0
C5624 C 0.60487 0.02451 0.65554 0.0
C5625 C 0.5978 0.02666 0.6555 0.0
C5626 C 0.60678 0.01779 0.6533 0.0
C5627 C 0.60169 0.01301 0.65086 0.0
C5628 C 0.59459 0.01515 0.65081 0.0
C5629 C 0.59266 0.02191 0.65308 0.0
C5630 C 0.60197 0.99328 0.64706 0.0
C5631 C 0.60824 0.99262 0.64324 0.0
C5632 C 0.59981 0.99988 0.64958 0.0
C5633 C 0.60389 0.00593 0.64826 0.0
C5634 C 0.61018 0.00518 0.64442 0.0
C5635 C 0.61232 0.9986 0.64195 0.0
H5636 H 0.73771 0.83898 0.41046 0.0
H5637 H 0.72925 0.8586 0.40259 0.0
H5638 H 0.74939 0.84253 0.40658 0.0
H5639 H 0.74093 0.8622 0.39905 0.0
H5640 H 0.76339 0.86957 0.39847 0.0
H5641 H 0.75235 0.86561 0.40382 0.0
H5642 H 0.75589 0.84473 0.39555 0.0
H5643 H 0.76697 0.84872 0.39033 0.0
C5644 C 0.73829 0.84403 0.40791 0.0
C5645 C 0.73244 0.84849 0.4069 0.0
C5646 C 0.74502 0.84608 0.40571 0.0
C5647 C 0.74611 0.85268 0.40256 0.0
C5648 C 0.74031 0.85715 0.40161 0.0
C5649 C 0.73358 0.85507 0.40369 0.0
C5650 C 0.76187 0.8641 0.39797 0.0
C5651 C 0.76601 0.85941 0.39411 0.0
C5652 C 0.75552 0.86184 0.40095 0.0
C5653 C 0.75321 0.85486 0.40006 0.0
C5654 C 0.75754 0.85011 0.3964 0.0
C5655 C 0.76388 0.85238 0.39342 0.0
H5656 H 0.90618 0.985 0.16582 0.0
H5657 H 0.91474 0.98056 0.14524 0.0
H5658 H 0.90321 0.99686 0.16205 0.0
H5659 H 0.91182 0.99247 0.14149 0.0
H5660 H 0.91031 0.01598 0.13814 0.0
H5661 H 0.9144 0.00476 0.1429 0.0
H5662 H 0.89489 1.00264 0.15439 0.0
H5663 H 0.8909 0.01396 0.14965 0.0
C5664 C 0.90743 0.98654 0.16048 0.0
C5665 C 0.91063 0.98176 0.15581 0.0
C5666 C 0.90572 0.99336 0.15832 0.0
C5667 C 0.9072 0.99563 0.15144 0.0
C5668 C 0.91065 0.99094 0.14685 0.0
C5669 C 0.91234 0.9841 0.149 0.0
C5670 C 0.90697 0.01316 0.1418 0.0
C5671 C 0.90035 0.01582 0.14362 0.0
C5672 C 0.90927 0.00669 0.14446 0.0
C5673 C 0.90497 1.00275 0.149 0.0
C5674 C 0.89838 0.00556 0.15097 0.0
C5675 C 0.89608 0.01204 0.14828 0.0
H5676 H 0.77281 0.15717 0.91603 0.0
H5677 H 0.77755 0.16467 0.89511 0.0
H5678 H 0.761 0.15403 0.91225 0.0
H5679 H 0.76569 0.16157 0.89134 0.0
H5680 H 0.74235 0.15931 0.88747 0.0
H5681 H 0.75329 0.164 0.89236 0.0
H5682 H 0.75561 0.14519 0.90493 0.0
H5683 H 0.74459 0.14061 0.90008 0.0
C5684 C 0.77134 0.15815 0.91061 0.0
C5685 C 0.7762 0.16109 0.90585 0.0
C5686 C 0.76455 0.15635 0.90845 0.0
C5687 C 0.7624 0.15746 0.90147 0.0
C5688 C 0.76714 0.16069 0.89678 0.0
C5689 C 0.77395 0.16248 0.89894 0.0
C5690 C 0.74513 0.15628 0.89141 0.0
C5691 C 0.74262 0.14967 0.8935 0.0
C5692 C 0.75144 0.15892 0.89415 0.0
C5693 C 0.75537 0.15497 0.89902 0.0
C5694 C 0.75268 0.14843 0.90127 0.0
C5695 C 0.74638 0.14579 0.89851 0.0
H5696 H 0.85283 0.58697 0.98475 0.0
H5697 H 0.85281 0.60902 0.97931 0.0
H5698 H 0.85644 0.58997 0.99674 0.0
H5699 H 0.85652 0.61201 0.99112 0.0
H5700 H 0.85769 0.61671 0.0141 0.0
H5701 H 0.85283 0.61284 1.00282 0.0
H5702 H 0.86582 0.59417 1.00369 0.0
H5703 H 0.87039 0.59797 0.01507 0.0
C5704 C 0.85366 0.59245 0.9861 0.0
C5705 C 0.85246 0.59776 0.98109 0.0
C5706 C 0.85572 0.59418 0.99297 0.0
C5707 C 0.85669 0.60126 0.99498 0.0
C5708 C 0.85563 0.60652 0.98989 0.0
C5709 C 0.85353 0.6048 0.98307 0.0
C5710 C 0.85935 0.61171 0.01192 0.0
C5711 C 0.86433 0.60759 0.01543 0.0
C5712 C 0.85665 0.60952 0.00542 0.0
C5713 C 0.85898 0.60321 1.00225 0.0
C5714 C 0.86382 0.599 0.00595 0.0
C5715 C 0.86646 0.60118 0.01247 0.0
H5716 H 0.34856 0.89941 0.0271 0.0
H5717 H 0.35639 0.92046 0.02382 0.0
H5718 H 0.35239 0.89608 0.01541 0.0
H5719 H 0.36005 0.91722 0.01194 0.0
H5720 H 0.37307 0.90659 0.99454 0.0
H5721 H 0.36833 0.91089 0.00562 0.0
H5722 H 0.3506 0.89679 1.00338 0.0
H5723 H 0.35564 0.89228 0.99242 0.0
C5724 C 0.35101 0.90337 0.02382 0.0
C5725 C 0.35215 0.91021 0.0264 0.0
C5726 C 0.35318 0.90147 0.01706 0.0
C5727 C 0.3565 0.90637 0.01262 0.0
C5728 C 0.35761 0.91325 0.0152 0.0
C5729 C 0.3555 0.91512 0.02202 0.0
C5730 C 0.3681 0.90451 0.99639 0.0
C5731 C 0.36468 0.89915 0.99265 0.0
C5732 C 0.36534 0.90699 1.00274 0.0
C5733 C 0.35907 0.90419 0.0055 0.0
C5734 C 0.35551 0.89899 1.00154 0.0
C5735 C 0.35833 0.89646 0.9952 0.0
H5736 H 0.84996 0.59158 0.7716 0.0
H5737 H 0.84468 0.61305 0.77673 0.0
H5738 H 0.8535 0.59528 0.75978 0.0
H5739 H 0.84837 0.61679 0.76509 0.0
H5740 H 0.84978 0.62154 0.74231 0.0
H5741 H 0.84515 0.6165 0.75315 0.0
H5742 H 0.86242 0.60168 0.75357 0.0
H5743 H 0.8669 0.60669 0.74255 0.0
C5744 C 0.84959 0.59709 0.7702 0.0
C5745 C 0.84697 0.60202 0.77505 0.0
C5746 C 0.85163 0.59922 0.76344 0.0
C5747 C 0.85116 0.60633 0.76143 0.0
C5748 C 0.84863 0.61124 0.76635 0.0
C5749 C 0.84654 0.60911 0.77305 0.0
C5750 C 0.85247 0.61709 0.74465 0.0
C5751 C 0.85863 0.61444 0.74163 0.0
C5752 C 0.84989 0.61425 0.75091 0.0
C5753 C 0.85346 0.60874 0.75432 0.0
C5754 C 0.85949 0.60588 0.75108 0.0
C5755 C 0.86207 0.60873 0.74478 0.0
H5756 H 0.14437 0.09621 0.52908 0.0
H5757 H 0.16579 0.09712 0.52153 0.0
H5758 H 0.14015 0.09947 0.51746 0.0
H5759 H 0.16158 0.10084 0.51003 0.0
H5760 H 0.15096 0.10227 0.48822 0.0
H5761 H 0.15549 0.09772 0.49944 0.0
H5762 H 0.13974 0.10981 0.51056 0.0
H5763 H 0.13522 0.11415 0.49938 0.0
C5764 C 0.14819 0.09703 0.52494 0.0
C5765 C 0.15543 0.09646 0.52631 0.0
C5766 C 0.14577 0.09902 0.51828 0.0
C5767 C 0.15052 0.10056 0.51281 0.0
C5768 C 0.15775 0.0997 0.51409 0.0
C5769 C 0.16017 0.09765 0.52074 0.0
C5770 C 0.14858 0.10401 0.4931 0.0
C5771 C 0.14284 0.10864 0.49301 0.0
C5772 C 0.15114 0.1014 0.49952 0.0
C5773 C 0.14795 0.10335 0.50593 0.0
C5774 C 0.14226 0.10807 0.50575 0.0
C5775 C 0.13973 0.11066 0.49936 0.0
H5776 H 0.17093 0.90309 0.77357 0.0
H5777 H 0.14902 0.90769 0.77731 0.0
H5778 H 0.16808 0.89935 0.7616 0.0
H5779 H 0.14612 0.90381 0.76551 0.0
H5780 H 0.14285 0.90155 0.74225 0.0
H5781 H 0.14664 0.90647 0.75355 0.0
H5782 H 0.16273 0.89044 0.75503 0.0
H5783 H 0.15909 0.88581 0.74365 0.0
C5784 C 0.1655 0.90324 0.77185 0.0
C5785 C 0.16022 0.90573 0.77637 0.0
C5786 C 0.16385 0.90109 0.76499 0.0
C5787 C 0.15686 0.90132 0.76251 0.0
C5788 C 0.15159 0.90373 0.76711 0.0
C5789 C 0.15325 0.90593 0.77391 0.0
C5790 C 0.14727 0.89921 0.74497 0.0
C5791 C 0.15073 0.89337 0.74212 0.0
C5792 C 0.14941 0.90195 0.75148 0.0
C5793 C 0.15498 0.89883 0.75529 0.0
C5794 C 0.15851 0.89307 0.75226 0.0
C5795 C 0.15641 0.89039 0.74575 0.0
H5796 H 0.64404 0.41058 0.4786 0.0
H5797 H 0.6653 0.41241 0.48647 0.0
H5798 H 0.64002 0.40736 0.49029 0.0
H5799 H 0.66126 0.40903 0.49815 0.0
H5800 H 0.65212 0.39391 0.51536 0.0
H5801 H 0.65676 0.39859 0.50424 0.0
H5802 H 0.6383 0.41169 0.5021 0.0
H5803 H 0.63371 0.40694 0.51311 0.0
C5804 C 0.64785 0.41042 0.48283 0.0
C5805 C 0.65502 0.41173 0.48152 0.0
C5806 C 0.64554 0.40854 0.48956 0.0
C5807 C 0.65032 0.40788 0.49517 0.0
C5808 C 0.65745 0.40935 0.49392 0.0
C5809 C 0.65976 0.41129 0.4872 0.0
C5810 C 0.64915 0.39788 0.51254 0.0
C5811 C 0.6426 0.40012 0.51505 0.0
C5812 C 0.65179 0.40057 0.50619 0.0
C5813 C 0.64787 0.40548 0.50223 0.0
C5814 C 0.64141 0.40784 0.50493 0.0
C5815 C 0.63881 0.40518 0.51126 0.0
H5816 H 0.83703 0.40248 0.73392 0.0
H5817 H 0.85863 0.40854 0.73046 0.0
H5818 H 0.84001 0.39872 0.74583 0.0
H5819 H 0.86168 0.40461 0.74221 0.0
H5820 H 0.86485 0.40179 0.76556 0.0
H5821 H 0.86106 0.40672 0.75425 0.0
H5822 H 0.84571 0.39003 0.75223 0.0
H5823 H 0.84932 0.38541 0.7636 0.0
C5824 C 0.84243 0.40295 0.73568 0.0
C5825 C 0.84758 0.40584 0.73124 0.0
C5826 C 0.84416 0.40079 0.74252 0.0
C5827 C 0.85111 0.40136 0.74506 0.0
C5828 C 0.85624 0.40422 0.74057 0.0
C5829 C 0.8545 0.40645 0.73378 0.0
C5830 C 0.8606 0.39928 0.7627 0.0
C5831 C 0.85734 0.39327 0.76541 0.0
C5832 C 0.85847 0.40204 0.75619 0.0
C5833 C 0.85308 0.39877 0.75224 0.0
C5834 C 0.84977 0.3928 0.7551 0.0
C5835 C 0.85187 0.3901 0.76161 0.0
H5836 H 0.67049 0.60426 0.2349 0.0
H5837 H 0.6486 0.60145 0.22952 0.0
H5838 H 0.66702 0.60837 0.24662 0.0
H5839 H 0.64519 0.60516 0.2412 0.0
H5840 H 0.64069 0.61971 0.25946 0.0
H5841 H 0.64449 0.61543 0.248 0.0
H5842 H 0.66204 0.60479 0.2578 0.0
H5843 H 0.65828 0.60936 0.26929 0.0
C5844 C 0.66495 0.60451 0.23621 0.0
C5845 C 0.65983 0.6025 0.23127 0.0
C5846 C 0.66297 0.60678 0.24296 0.0
C5847 C 0.65581 0.60711 0.24488 0.0
C5848 C 0.65073 0.60508 0.23991 0.0
C5849 C 0.6527 0.60286 0.23321 0.0
C5850 C 0.64528 0.61634 0.25916 0.0
C5851 C 0.6491 0.6147 0.26522 0.0
C5852 C 0.64747 0.61388 0.25259 0.0
C5853 C 0.65356 0.6097 0.25195 0.0
C5854 C 0.65737 0.60803 0.25808 0.0
C5855 C 0.65517 0.61054 0.26467 0.0
H5856 H 0.52453 0.65015 0.9198 0.0
H5857 H 0.52659 0.65874 0.89889 0.0
H5858 H 0.51251 0.64651 0.91709 0.0
H5859 H 0.51473 0.65496 0.89609 0.0
H5860 H 0.49122 0.65212 0.89415 0.0
H5861 H 0.5027 0.65678 0.89776 0.0
H5862 H 0.50602 0.63833 0.91068 0.0
H5863 H 0.49449 0.63393 0.90727 0.0
C5864 C 0.52243 0.65121 0.91461 0.0
C5865 C 0.52651 0.65476 0.90958 0.0
C5866 C 0.51554 0.64912 0.91304 0.0
C5867 C 0.51259 0.65044 0.90636 0.0
C5868 C 0.51671 0.65398 0.90134 0.0
C5869 C 0.52356 0.65613 0.90294 0.0
C5870 C 0.49442 0.64914 0.89781 0.0
C5871 C 0.49204 0.64269 0.90045 0.0
C5872 C 0.50101 0.65176 0.89985 0.0
C5873 C 0.50536 0.64793 0.90451 0.0
C5874 C 0.50283 0.64151 0.9072 0.0
C5875 C 0.49625 0.63894 0.9052 0.0
H5876 H 0.59898 0.27721 0.14858 0.0
H5877 H 0.6083 0.27475 0.16915 0.0
H5878 H 0.60244 0.26532 0.14553 0.0
H5879 H 0.61207 0.26284 0.16597 0.0
H5880 H 0.61235 0.2394 0.16001 0.0
H5881 H 0.60792 0.25102 0.16348 0.0
H5882 H 0.61278 0.25893 0.14271 0.0
H5883 H 0.61701 0.24729 0.13928 0.0
C5884 C 0.60175 0.27411 0.15248 0.0
C5885 C 0.60332 0.27694 0.15914 0.0
C5886 C 0.60382 0.2673 0.15069 0.0
C5887 C 0.60757 0.26311 0.15548 0.0
C5888 C 0.60913 0.2659 0.16217 0.0
C5889 C 0.60704 0.27275 0.16397 0.0
C5890 C 0.6123 0.24362 0.15617 0.0
C5891 C 0.61485 0.24248 0.14935 0.0
C5892 C 0.60987 0.25029 0.15818 0.0
C5893 C 0.60998 0.25593 0.15338 0.0
C5894 C 0.61248 0.2547 0.14651 0.0
C5895 C 0.6149 0.24804 0.14453 0.0
H5896 H 0.97898 0.35373 0.39797 0.0
H5897 H 0.98433 0.35472 0.42001 0.0
H5898 H 0.9908 0.35743 0.39487 0.0
H5899 H 0.99627 0.3586 0.4169 0.0
H5900 H 0.01903 0.35854 0.40768 0.0
H5901 H 0.00729 0.35441 0.41123 0.0
H5902 H 0.99795 0.36782 0.39542 0.0
H5903 H 0.00962 0.37175 0.39184 0.0
C5904 C 0.9827 0.35476 0.40216 0.0
C5905 C 0.98074 0.35391 0.40924 0.0
C5906 C 0.98947 0.35693 0.40039 0.0
C5907 C 0.99449 0.35834 0.40563 0.0
C5908 C 0.99254 0.35751 0.41273 0.0
C5909 C 0.9857 0.35536 0.41452 0.0
C5910 C 0.01444 0.36046 0.4049 0.0
C5911 C 0.01518 0.36529 0.39937 0.0
C5912 C 0.00773 0.35819 0.40699 0.0
C5913 C 1.00167 0.36076 0.40358 0.0
C5914 C 1.00249 0.36563 0.39806 0.0
C5915 C 0.00917 0.36786 0.39599 0.0
H5916 H 0.91531 0.73592 0.65903 0.0
H5917 H 0.89364 0.7294 0.66109 0.0
H5918 H 0.91148 0.74781 0.65623 0.0
H5919 H 0.88982 0.74132 0.6584 0.0
H5920 H 0.88502 0.76456 0.65836 0.0
H5921 H 0.88959 0.75332 0.66258 0.0
H5922 H 0.90571 0.75394 0.64656 0.0
H5923 H 0.90113 0.76529 0.64243 0.0
C5924 C 0.90973 0.737 0.65889 0.0
C5925 C 0.90479 0.73164 0.66022 0.0
C5926 C 0.90753 0.74384 0.65728 0.0
C5927 C 0.90035 0.74552 0.65703 0.0
C5928 C 0.89541 0.74024 0.65862 0.0
C5929 C 0.8976 0.73338 0.66018 0.0
C5930 C 0.88962 0.76233 0.65584 0.0
C5931 C 0.89278 0.76576 0.65013 0.0
C5932 C 0.89219 0.75586 0.6582 0.0
C5933 C 0.89798 0.75269 0.65488 0.0
C5934 C 0.90129 0.75627 0.64929 0.0
C5935 C 0.89868 0.76275 0.64691 0.0
H5936 H 0.52127 0.34429 0.59409 0.0
H5937 H 0.52946 0.3646 0.60022 0.0
H5938 H 0.50952 0.34799 0.59755 0.0
H5939 H 0.51765 0.36843 0.60325 0.0
H5940 H 0.49768 0.37061 0.61598 0.0
H5941 H 0.50928 0.36652 0.61227 0.0
H5942 H 0.49973 0.35539 0.59488 0.0
H5943 H 0.48811 0.35939 0.59878 0.0
C5944 C 0.52057 0.34956 0.59613 0.0
C5945 C 0.52637 0.35411 0.59694 0.0
C5946 C 0.5138 0.35172 0.59804 0.0
C5947 C 0.51262 0.35849 0.60077 0.0
C5948 C 0.51837 0.36312 0.60131 0.0
C5949 C 0.52515 0.36096 0.59945 0.0
C5950 C 0.49809 0.36717 0.61145 0.0
C5951 C 0.49206 0.36519 0.60773 0.0
C5952 C 0.50473 0.36492 0.60925 0.0
C5953 C 0.50548 0.36067 0.60322 0.0
C5954 C 0.49937 0.35858 0.59958 0.0
C5955 C 0.49272 0.36085 0.60181 0.0
H5956 H 0.89365 0.27993 0.8517 0.0
H5957 H 0.91299 0.27149 0.84326 0.0
H5958 H 0.88992 0.26814 0.85491 0.0
H5959 H 0.90943 0.25973 0.84686 0.0
H5960 H 0.89744 0.23862 0.84846 0.0
H5961 H 0.90143 0.25026 0.84461 0.0
H5962 H 0.8926 0.25941 0.86347 0.0
H5963 H 0.8885 0.2478 0.86715 0.0
C5964 C 0.89709 0.27557 0.85047 0.0
C5965 C 0.90365 0.27671 0.84724 0.0
C5966 C 0.895 0.2688 0.85243 0.0
C5967 C 0.89941 0.26297 0.85125 0.0
C5968 C 0.90588 0.26407 0.84784 0.0
C5969 C 0.90796 0.27085 0.84584 0.0
C5970 C 0.8965 0.24313 0.85181 0.0
C5971 C 0.89279 0.24236 0.85813 0.0
C5972 C 0.89876 0.24979 0.84962 0.0
C5973 C 0.8973 0.25581 0.8537 0.0
C5974 C 0.89371 0.25494 0.86012 0.0
C5975 C 0.89145 0.24828 0.8623 0.0
H5976 H 0.98433 0.65303 0.08822 0.0
H5977 H 0.97931 0.65474 0.1103 0.0
H5978 H 0.99625 0.64913 0.09129 0.0
H5979 H 0.99116 0.65119 0.11334 0.0
H5980 H 0.00998 0.63709 0.11686 0.0
H5981 H 0.99829 0.64104 0.11338 0.0
H5982 H 0.0074 0.65302 0.09633 0.0
H5983 H 0.01914 0.64882 0.09977 0.0
C5984 C 0.98577 0.65257 0.09371 0.0
C5985 C 0.98087 0.65423 0.09901 0.0
C5986 C 0.99261 0.65042 0.09548 0.0
C5987 C 0.99468 0.64983 0.10257 0.0
C5988 C 0.98976 0.65147 0.10783 0.0
C5989 C 0.98296 0.6536 0.10608 0.0
C5990 C 0.00947 0.64068 0.11245 0.0
C5991 C 0.01542 0.64281 0.10868 0.0
C5992 C 1.00278 0.64294 0.11043 0.0
C5993 C 1.00188 0.64741 0.10459 0.0
C5994 C 0.00788 0.64955 0.10082 0.0
C5995 C 0.0146 0.64725 0.10284 0.0
H5996 H 0.61421 0.72828 0.34969 0.0
H5997 H 0.59317 0.73562 0.3452 0.0
H5998 H 0.61776 0.74024 0.35248 0.0
H5999 H 0.59659 0.74747 0.34848 0.0
H6000 H 0.60666 0.76936 0.349 0.0
H6001 H 0.6031 0.75754 0.34534 0.0
H6002 H 0.61641 0.74863 0.36151 0.0
H6003 H 0.62008 0.76047 0.36494 0.0
C6004 C 0.61034 0.73243 0.34925 0.0
C6005 C 0.60338 0.73092 0.34726 0.0
C6006 C 0.61235 0.7393 0.35097 0.0
C6007 C 0.60744 0.74485 0.35083 0.0
C6008 C 0.60054 0.74337 0.34863 0.0
C6009 C 0.59854 0.73653 0.34684 0.0
C6010 C 0.6087 0.76485 0.35182 0.0
C6011 C 0.61352 0.76576 0.35732 0.0
C6012 C 0.60668 0.75808 0.34973 0.0
C6013 C 0.60948 0.75209 0.35311 0.0
C6014 C 0.61423 0.75308 0.3587 0.0
C6015 C 0.61626 0.75986 0.36076 0.0
H6016 H 0.89897 0.52666 0.65879 0.0
H6017 H 0.91978 0.52459 0.64995 0.0
H6018 H 0.89613 0.5148 0.65504 0.0
H6019 H 0.91703 0.51257 0.64635 0.0
H6020 H 0.9068 0.4947 0.63376 0.0
H6021 H 0.91048 0.50611 0.63823 0.0
H6022 H 0.89786 0.50278 0.65688 0.0
H6023 H 0.89395 0.49143 0.65214 0.0
C6024 C 0.90299 0.52362 0.65613 0.0
C6025 C 0.90961 0.52657 0.65469 0.0
C6026 C 0.90137 0.51678 0.65401 0.0
C6027 C 0.90635 0.51265 0.65042 0.0
C6028 C 0.91301 0.5156 0.649 0.0
C6029 C 0.91461 0.52249 0.65108 0.0
C6030 C 0.90488 0.49641 0.63885 0.0
C6031 C 0.90011 0.49225 0.64263 0.0
C6032 C 0.90702 0.50294 0.64145 0.0
C6033 C 0.90447 0.50544 0.64793 0.0
C6034 C 0.89984 0.50111 0.65181 0.0
C6035 C 0.89764 0.49458 0.64916 0.0
H6036 H 0.73508 0.66035 0.91552 0.0
H6037 H 0.72859 0.66101 0.89375 0.0
H6038 H 0.74705 0.65763 0.91189 0.0
H6039 H 0.74059 0.65839 0.89012 0.0
H6040 H 0.76389 0.65895 0.88551 0.0
H6041 H 0.75242 0.66291 0.88968 0.0
H6042 H 0.75351 0.64788 0.90672 0.0
H6043 H 0.76511 0.64402 0.90254 0.0
C6044 C 0.7362 0.65991 0.90996 0.0
C6045 C 0.73083 0.66083 0.90493 0.0
C6046 C 0.74307 0.65835 0.90788 0.0
C6047 C 0.74478 0.65773 0.90072 0.0
C6048 C 0.73948 0.6589 0.89568 0.0
C6049 C 0.73259 0.66043 0.89776 0.0
C6050 C 0.7617 0.65657 0.89021 0.0
C6051 C 0.76533 0.65123 0.89375 0.0
C6052 C 0.75511 0.65879 0.89256 0.0
C6053 C 0.75201 0.65569 0.89851 0.0
C6054 C 0.75578 0.65044 0.90217 0.0
C6055 C 0.76239 0.6482 0.89978 0.0
H6056 H 0.5882 0.48741 0.15692 0.0
H6057 H 0.60963 0.48038 0.1538 0.0
H6058 H 0.59147 0.49905 0.15291 0.0
H6059 H 0.61301 0.49217 0.15058 0.0
H6060 H 0.61545 0.51139 0.1367 0.0
H6061 H 0.61229 0.49985 0.14125 0.0
H6062 H 0.59726 0.50957 0.15533 0.0
H6063 H 0.60027 0.52111 0.15043 0.0
C6064 C 0.59362 0.48831 0.15543 0.0
C6065 C 0.59861 0.48283 0.15565 0.0
C6066 C 0.59553 0.49507 0.15325 0.0
C6067 C 0.60252 0.49661 0.15137 0.0
C6068 C 0.60755 0.4912 0.15183 0.0
C6069 C 0.60561 0.48441 0.15384 0.0
C6070 C 0.61155 0.51103 0.14085 0.0
C6071 C 0.60818 0.51707 0.14333 0.0
C6072 C 0.60974 0.50442 0.14349 0.0
C6073 C 0.60454 0.50372 0.14872 0.0
C6074 C 0.60123 0.50986 0.15125 0.0
C6075 C 0.60301 0.51648 0.14854 0.0
H6076 H 0.77222 0.34814 0.41491 0.0
H6077 H 0.77894 0.34689 0.39323 0.0
H6078 H 0.76035 0.351 0.41108 0.0
H6079 H 0.76704 0.34964 0.38941 0.0
H6080 H 0.7438 0.34937 0.38445 0.0
H6081 H 0.75517 0.34534 0.38887 0.0
H6082 H 0.75399 0.36067 0.40563 0.0
H6083 H 0.74251 0.36459 0.4012 0.0
C6084 C 0.77119 0.34848 0.40932 0.0
C6085 C 0.7766 0.34734 0.40439 0.0
C6086 C 0.76436 0.35013 0.40713 0.0
C6087 C 0.76273 0.35061 0.39994 0.0
C6088 C 0.76807 0.34924 0.395 0.0
C6089 C 0.77491 0.34763 0.39719 0.0
C6090 C 0.74596 0.3518 0.38914 0.0
C6091 C 0.74233 0.35725 0.39252 0.0
C6092 C 0.75249 0.34955 0.39164 0.0
C6093 C 0.75554 0.35271 0.39758 0.0
C6094 C 0.75177 0.35807 0.40108 0.0
C6095 C 0.74522 0.36034 0.39855 0.0
H6096 H 0.90922 0.47868 0.86493 0.0
H6097 H 0.91137 0.48615 0.84356 0.0
H6098 H 0.90647 0.49056 0.86878 0.0
H6099 H 0.90851 0.49803 0.84742 0.0
H6100 H 0.89483 0.51642 0.85605 0.0
H6101 H 0.89857 0.50481 0.85175 0.0
H6102 H 0.91128 0.50207 0.87041 0.0
H6103 H 0.90742 0.51354 0.87468 0.0
C6104 C 0.90922 0.48286 0.86106 0.0
C6105 C 0.91048 0.4814 0.85392 0.0
C6106 C 0.90762 0.48969 0.86327 0.0
C6107 C 0.90722 0.49526 0.85841 0.0
C6108 C 0.90864 0.49385 0.85129 0.0
C6109 C 0.91028 0.48702 0.84908 0.0
C6110 C 0.89844 0.51331 0.85917 0.0
C6111 C 0.90083 0.51579 0.86568 0.0
C6112 C 0.90062 0.5067 0.85671 0.0
C6113 C 0.9052 0.50247 0.86076 0.0
C6114 C 0.90767 0.5051 0.86721 0.0
C6115 C 0.9055 0.51168 0.86964 0.0
H6116 H 0.77161 0.66276 0.09386 0.0
H6117 H 0.77959 0.65831 0.11469 0.0
H6118 H 0.75991 0.65915 0.09757 0.0
H6119 H 0.76781 0.65514 0.1185 0.0
H6120 H 0.74844 0.64162 0.12105 0.0
H6121 H 0.75992 0.64562 0.11695 0.0
H6122 H 0.74982 0.66187 0.10464 0.0
H6123 H 0.7383 0.65769 0.10868 0.0
C6124 C 0.77088 0.66106 0.09925 0.0
C6125 C 0.77661 0.66075 0.10394 0.0
C6126 C 0.76413 0.65907 0.1014 0.0
C6127 C 0.7629 0.65675 0.10832 0.0
C6128 C 0.76857 0.65674 0.11309 0.0
C6129 C 0.77533 0.65868 0.11092 0.0
C6130 C 0.7487 0.64596 0.11735 0.0
C6131 C 0.74254 0.64927 0.11506 0.0
C6132 C 0.75527 0.64833 0.11509 0.0
C6133 C 0.75583 0.65413 0.11051 0.0
C6134 C 0.7496 0.65736 0.1081 0.0
C6135 C 0.74301 0.65496 0.11039 0.0
H6136 H 0.59729 0.52197 0.34319 0.0
H6137 H 0.5974 0.52925 0.36473 0.0
H6138 H 0.60079 0.51031 0.3471 0.0
H6139 H 0.60045 0.51747 0.36866 0.0
H6140 H 0.61474 0.49885 0.37278 0.0
H6141 H 0.61059 0.51024 0.36858 0.0
H6142 H 0.59755 0.49976 0.35316 0.0
H6143 H 0.6019 0.48833 0.35734 0.0
C6144 C 0.598 0.52109 0.34877 0.0
C6145 C 0.59717 0.52663 0.35362 0.0
C6146 C 0.59992 0.51435 0.35102 0.0
C6147 C 0.60101 0.51294 0.35819 0.0
C6148 C 0.59982 0.51839 0.36308 0.0
C6149 C 0.59796 0.52514 0.36082 0.0
C6150 C 0.61108 0.49902 0.3684 0.0
C6151 C 0.60874 0.49278 0.36527 0.0
C6152 C 0.6086 0.50553 0.36607 0.0
C6153 C 0.60367 0.50595 0.36057 0.0
C6154 C 0.6014 0.49965 0.35736 0.0
C6155 C 0.60389 0.49311 0.35972 0.0
H6156 H 0.73535 0.34918 0.59308 0.0
H6157 H 0.729 0.34723 0.61483 0.0
H6158 H 0.74728 0.35193 0.5968 0.0
H6159 H 0.74096 0.34989 0.61853 0.0
H6160 H 0.76432 0.3492 0.623 0.0
H6161 H 0.75277 0.34555 0.61877 0.0
H6162 H 0.75388 0.3613 0.60239 0.0
H6163 H 0.76557 0.36483 0.60663 0.0
C6164 C 0.73647 0.34935 0.59866 0.0
C6165 C 0.73115 0.34804 0.60365 0.0
C6166 C 0.74334 0.35093 0.60079 0.0
C6167 C 0.7451 0.35119 0.60797 0.0
C6168 C 0.73983 0.34966 0.61295 0.0
C6169 C 0.73295 0.34811 0.61082 0.0
C6170 C 0.7621 0.35183 0.61846 0.0
C6171 C 0.76578 0.35727 0.61512 0.0
C6172 C 0.75546 0.34978 0.61606 0.0
C6173 C 0.75234 0.35316 0.61027 0.0
C6174 C 0.75614 0.35854 0.60683 0.0
C6175 C 0.76281 0.36059 0.60926 0.0
H6176 H 0.6501 0.92019 0.52453 0.0
H6177 H 0.65786 0.89898 0.52689 0.0
H6178 H 0.64651 0.91751 0.51248 0.0
H6179 H 0.65414 0.89623 0.51501 0.0
H6180 H 0.65159 0.89395 0.49164 0.0
H6181 H 0.65629 0.89776 0.50303 0.0
H6182 H 0.63822 0.91131 0.50586 0.0
H6183 H 0.63379 0.9077 0.49439 0.0
C6184 C 0.65099 0.91495 0.52249 0.0
C6185 C 0.6543 0.90982 0.52666 0.0
C6186 C 0.64893 0.91339 0.51558 0.0
C6187 C 0.65006 0.90664 0.5127 0.0
C6188 C 0.65334 0.90153 0.51692 0.0
C6189 C 0.65544 0.9031 0.52378 0.0
C6190 C 0.64873 0.89782 0.49469 0.0
C6191 C 0.64237 0.90056 0.4922 0.0
C6192 C 0.65136 0.89996 0.50124 0.0
C6193 C 0.64762 0.90482 0.50545 0.0
C6194 C 0.64132 0.90766 0.50278 0.0
C6195 C 0.63875 0.90555 0.49623 0.0
H6196 H 0.14853 0.58883 0.48335 0.0
H6197 H 0.15991 0.60841 0.48149 0.0
H6198 H 0.14486 0.59215 0.49525 0.0
H6199 H 0.15652 0.61157 0.49337 0.0
H6200 H 0.14209 0.6189 0.51114 0.0
H6201 H 0.1463 0.61528 0.49956 0.0
H6202 H 0.14902 0.59403 0.50721 0.0
H6203 H 0.14461 0.5977 0.51876 0.0
C6204 C 0.15026 0.59382 0.48549 0.0
C6205 C 0.15453 0.59834 0.48147 0.0
C6206 C 0.14823 0.5957 0.49233 0.0
C6207 C 0.15039 0.60215 0.49528 0.0
C6208 C 0.15468 0.60661 0.49126 0.0
C6209 C 0.1567 0.60475 0.48446 0.0
C6210 C 0.14375 0.6135 0.51036 0.0
C6211 C 0.1432 0.60861 0.51583 0.0
C6212 C 0.14615 0.61141 0.50373 0.0
C6213 C 0.14803 0.60435 0.50243 0.0
C6214 C 0.14756 0.59948 0.50799 0.0
C6215 C 0.14514 0.60159 0.51463 0.0
H6216 H 0.64762 0.90633 0.73 0.0
H6217 H 0.66946 0.90159 0.73406 0.0
H6218 H 0.64458 0.90273 0.74184 0.0
H6219 H 0.66635 0.89767 0.74595 0.0
H6220 H 0.65881 0.89752 0.7691 0.0
H6221 H 0.66224 0.9018 0.7574 0.0
H6222 H 0.64354 0.89232 0.74859 0.0
H6223 H 0.6401 0.88827 0.76027 0.0
C6224 C 0.65179 0.90452 0.73343 0.0
C6225 C 0.6588 0.9043 0.73108 0.0
C6226 C 0.65003 0.90237 0.74022 0.0
C6227 C 0.6552 0.89988 0.74487 0.0
C6228 C 0.66223 0.89963 0.74253 0.0
C6229 C 0.66401 0.90179 0.7357 0.0
C6230 C 0.65539 0.89652 0.76465 0.0
C6231 C 0.64911 0.89275 0.76555 0.0
C6232 C 0.6574 0.89886 0.75795 0.0
C6233 C 0.65316 0.89743 0.75204 0.0
C6234 C 0.64687 0.89365 0.75302 0.0
C6235 C 0.64487 0.89134 0.7597 0.0
H6236 H 0.36415 0.40616 0.97826 0.0
H6237 H 0.34478 0.41492 0.98631 0.0
H6238 H 0.36778 0.40327 0.99017 0.0
H6239 H 0.34822 0.41162 0.99818 0.0
H6240 H 0.35975 0.41055 0.01946 0.0
H6241 H 0.356 0.41408 0.00765 0.0
H6242 H 0.36515 0.39505 0.99917 0.0
H6243 H 0.36904 0.3917 0.01097 0.0
C6244 C 0.36067 0.40752 0.98256 0.0
C6245 C 0.35415 0.41076 0.98127 0.0
C6246 C 0.36271 0.40575 0.98941 0.0
C6247 C 0.35826 0.4071 0.99516 0.0
C6248 C 0.35181 0.41051 0.9939 0.0
C6249 C 0.34979 0.41233 0.98706 0.0
C6250 C 0.36083 0.40709 0.01505 0.0
C6251 C 0.36457 0.40082 0.01607 0.0
C6252 C 0.3587 0.4091 0.00829 0.0
C6253 C 0.3603 0.40488 1.00242 0.0
C6254 C 0.36393 0.39851 1.00353 0.0
C6255 C 0.36607 0.39652 0.01029 0.0
H6256 H 0.35885 0.59927 0.73131 0.0
H6257 H 0.33794 0.60789 0.73322 0.0
H6258 H 0.36155 0.60301 0.7432 0.0
H6259 H 0.34055 0.61149 0.74527 0.0
H6260 H 0.35059 0.62418 0.76323 0.0
H6261 H 0.34695 0.61965 0.75182 0.0
H6262 H 0.35979 0.60114 0.75519 0.0
H6263 H 0.36364 0.60594 0.76653 0.0
C6264 C 0.35478 0.60188 0.73432 0.0
C6265 C 0.34817 0.60326 0.73132 0.0
C6266 C 0.35632 0.60399 0.74118 0.0
C6267 C 0.35127 0.60752 0.74528 0.0
C6268 C 0.34462 0.60888 0.74227 0.0
C6269 C 0.34311 0.60681 0.73536 0.0
C6270 C 0.35256 0.6191 0.76153 0.0
C6271 C 0.35738 0.61539 0.76569 0.0
C6272 C 0.35045 0.61647 0.75501 0.0
C6273 C 0.35308 0.61002 0.75251 0.0
C6274 C 0.35775 0.60619 0.75685 0.0
C6275 C 0.35991 0.60888 0.76337 0.0
H6276 H 0.86374 0.10077 0.02987 0.0
H6277 H 0.84379 0.09333 0.02191 0.0
H6278 H 0.86737 0.10372 0.01798 0.0
H6279 H 0.84726 0.0967 0.01007 0.0
H6280 H 0.85861 0.09787 0.98866 0.0
H6281 H 0.85485 0.0941 1.00039 0.0
H6282 H 0.86485 0.11245 0.00939 0.0
H6283 H 0.86872 0.11604 0.99768 0.0
C6284 C 0.86014 0.0997 0.02559 0.0
C6285 C 0.85345 0.09684 0.02689 0.0
C6286 C 0.86218 0.10151 0.01877 0.0
C6287 C 0.85757 0.10056 0.01306 0.0
C6288 C 0.85096 0.09749 0.01432 0.0
C6289 C 0.84894 0.09563 0.02114 0.0
C6290 C 0.85986 0.10113 0.99316 0.0
C6291 C 0.86382 0.10729 0.99233 0.0
C6292 C 0.85773 0.09898 0.99988 0.0
C6293 C 0.85958 0.10294 0.00586 0.0
C6294 C 0.86344 0.10919 0.00493 0.0
C6295 C 0.86556 0.11132 0.99823 0.0
H6296 H 0.66157 0.1148 0.77881 0.0
H6297 H 0.65873 0.09322 0.77225 0.0
H6298 H 0.6588 0.11874 0.76696 0.0
H6299 H 0.65549 0.09719 0.76054 0.0
H6300 H 0.6549 0.10657 0.73827 0.0
H6301 H 0.65911 0.10235 0.74973 0.0
H6302 H 0.64868 0.11985 0.75987 0.0
H6303 H 0.6447 0.12407 0.74844 0.0
C6304 C 0.66042 0.11088 0.77485 0.0
C6305 C 0.6603 0.10369 0.77656 0.0
C6306 C 0.65871 0.11315 0.76805 0.0
C6307 C 0.65678 0.1083 0.76279 0.0
C6308 C 0.65696 0.10109 0.76442 0.0
C6309 C 0.65872 0.09882 0.7712 0.0
C6310 C 0.65346 0.10942 0.74299 0.0
C6311 C 0.6494 0.11555 0.74255 0.0
C6312 C 0.65587 0.10703 0.74955 0.0
C6313 C 0.65428 0.11078 0.75576 0.0
C6314 C 0.65014 0.11689 0.75523 0.0
C6315 C 0.64775 0.11926 0.74869 0.0
H6316 H 0.85823 0.91024 0.27584 0.0
H6317 H 0.83841 0.89923 0.27476 0.0
H6318 H 0.86108 0.9064 0.26402 0.0
H6319 H 0.84115 0.89551 0.26278 0.0
H6320 H 0.85222 0.88322 0.24521 0.0
H6321 H 0.84835 0.88783 0.2565 0.0
H6322 H 0.85886 0.9075 0.25198 0.0
H6323 H 0.86298 0.90266 0.24074 0.0
C6324 C 0.85442 0.90708 0.27302 0.0
C6325 C 0.84808 0.90506 0.27625 0.0
C6326 C 0.85604 0.9049 0.2662 0.0
C6327 C 0.85135 0.90066 0.26237 0.0
C6328 C 0.84496 0.89868 0.26558 0.0
C6329 C 0.84337 0.90082 0.27245 0.0
C6330 C 0.85364 0.88856 0.24663 0.0
C6331 C 0.85788 0.8926 0.24218 0.0
C6332 C 0.85138 0.89123 0.25308 0.0
C6333 C 0.85329 0.89805 0.25522 0.0
C6334 C 0.85739 0.90218 0.25059 0.0
C6335 C 0.8597 0.89946 0.24413 0.0
H6336 H 0.4796 0.35045 0.10835 0.0
H6337 H 0.48358 0.35439 0.08635 0.0
H6338 H 0.49148 0.35407 0.11123 0.0
H6339 H 0.49564 0.35786 0.08919 0.0
H6340 H 0.51394 0.37108 0.09817 0.0
H6341 H 0.50249 0.36669 0.09442 0.0
H6342 H 0.50331 0.3509 0.11079 0.0
H6343 H 0.51466 0.35558 0.11469 0.0
C6344 C 0.48306 0.35201 0.10411 0.0
C6345 C 0.48066 0.35208 0.09712 0.0
C6346 C 0.48992 0.35405 0.10575 0.0
C6347 C 0.49461 0.35618 0.10045 0.0
C6348 C 0.49218 0.35632 0.09344 0.0
C6349 C 0.48527 0.35432 0.0918 0.0
C6350 C 0.51169 0.36659 0.10088 0.0
C6351 C 0.51513 0.36362 0.10668 0.0
C6352 C 0.50514 0.36405 0.09872 0.0
C6353 C 0.5019 0.35846 0.10232 0.0
C6354 C 0.50555 0.35531 0.10798 0.0
C6355 C 0.51209 0.35791 0.11017 0.0
H6356 H 0.40953 0.73135 0.85805 0.0
H6357 H 0.4011 0.73435 0.83718 0.0
H6358 H 0.4056 0.74301 0.86139 0.0
H6359 H 0.39733 0.7462 0.84043 0.0
H6360 H 0.38432 0.76345 0.85137 0.0
H6361 H 0.3891 0.7524 0.847 0.0
H6362 H 0.40727 0.75506 0.86046 0.0
H6363 H 0.4022 0.76598 0.86505 0.0
C6364 C 0.40692 0.73456 0.85413 0.0
C6365 C 0.40565 0.73192 0.84734 0.0
C6366 C 0.4047 0.7413 0.85603 0.0
C6367 C 0.40118 0.74565 0.85118 0.0
C6368 C 0.39994 0.74301 0.84436 0.0
C6369 C 0.4021 0.73621 0.84247 0.0
C6370 C 0.38939 0.7617 0.85329 0.0
C6371 C 0.39293 0.76553 0.8585 0.0
C6372 C 0.39216 0.75537 0.85077 0.0
C6373 C 0.39858 0.75275 0.85338 0.0
C6374 C 0.40225 0.7568 0.85841 0.0
C6375 C 0.39942 0.76311 0.86099 0.0
H6376 H 0.02139 0.66595 0.5967 0.0
H6377 H 0.02863 0.6444 0.59617 0.0
H6378 H 0.00969 0.66194 0.60002 0.0
H6379 H 0.0169 0.64041 0.59934 0.0
H6380 H 0.99395 0.63474 0.60025 0.0
H6381 H 0.00483 0.63949 0.59536 0.0
H6382 H 0.00398 0.65663 0.61028 0.0
H6383 H 0.99301 0.65184 0.61511 0.0
C6384 C 0.02051 0.66036 0.59729 0.0
C6385 C 0.02602 0.65552 0.59623 0.0
C6386 C 0.01378 0.65806 0.59918 0.0
C6387 C 0.01235 0.65086 0.59999 0.0
C6388 C 0.01778 0.646 0.59868 0.0
C6389 C 0.02453 0.64829 0.59684 0.0
C6390 C 0.99603 0.63961 0.60237 0.0
C6391 C 0.99266 0.64299 0.60798 0.0
C6392 C 1.00229 0.64229 0.59962 0.0
C6393 C 0.00533 0.64841 0.60246 0.0
C6394 C 1.00176 0.65194 0.60792 0.0
C6395 C 0.99549 0.64922 0.61069 0.0
H6396 H 0.10392 0.2733 0.33693 0.0
H6397 H 0.10071 0.27801 0.3589 0.0
H6398 H 0.10756 0.26135 0.34006 0.0
H6399 H 0.10447 0.26625 0.36205 0.0
H6400 H 0.10635 0.24334 0.36643 0.0
H6401 H 0.10134 0.2544 0.36213 0.0
H6402 H 0.11659 0.25467 0.34525 0.0
H6403 H 0.12131 0.24349 0.34942 0.0
C6404 C 0.10405 0.2718 0.34242 0.0
C6405 C 0.10196 0.27658 0.34766 0.0
C6406 C 0.10613 0.26494 0.34423 0.0
C6407 C 0.10623 0.26275 0.35132 0.0
C6408 C 0.10426 0.26762 0.35653 0.0
C6409 C 0.10213 0.27441 0.35472 0.0
C6410 C 0.10847 0.24571 0.3617 0.0
C6411 C 0.11413 0.24258 0.35819 0.0
C6412 C 0.10569 0.25209 0.35928 0.0
C6413 C 0.10861 0.25553 0.35338 0.0
C6414 C 0.11413 0.25219 0.34974 0.0
C6415 C 0.11685 0.24578 0.35213 0.0
H6416 H 0.48568 0.66593 0.40903 0.0
H6417 H 0.47939 0.64451 0.41333 0.0
H6418 H 0.49738 0.66186 0.40583 0.0
H6419 H 0.49114 0.64046 0.41022 0.0
H6420 H 0.51434 0.63555 0.40876 0.0
H6421 H 0.5034 0.64043 0.41343 0.0
H6422 H 0.50288 0.65541 0.39633 0.0
H6423 H 0.51391 0.65054 0.39176 0.0
C6424 C 0.48678 0.66035 0.40929 0.0
C6425 C 0.48153 0.65555 0.41136 0.0
C6426 C 0.49351 0.65802 0.40746 0.0
C6427 C 0.4952 0.65083 0.40769 0.0
C6428 C 0.49005 0.64605 0.41004 0.0
C6429 C 0.4833 0.64838 0.41184 0.0
C6430 C 0.51194 0.63999 0.4061 0.0
C6431 C 0.51496 0.64275 0.39997 0.0
C6432 C 0.50563 0.64273 0.40872 0.0
C6433 C 0.50221 0.64829 0.40524 0.0
C6434 C 0.5054 0.65119 0.3992 0.0
C6435 C 0.51171 0.64841 0.39657 0.0
H6436 H 0.09223 0.73627 0.1599 0.0
H6437 H 0.11369 0.72945 0.16303 0.0
H6438 H 0.09639 0.74783 0.15638 0.0
H6439 H 0.11782 0.74116 0.15994 0.0
H6440 H 0.12349 0.75934 0.14552 0.0
H6441 H 0.11906 0.74803 0.14965 0.0
H6442 H 0.10172 0.75863 0.15987 0.0
H6443 H 0.10616 0.76996 0.15553 0.0
C6444 C 0.09784 0.73724 0.15989 0.0
C6445 C 0.10262 0.73185 0.16165 0.0
C6446 C 0.10023 0.74393 0.15796 0.0
C6447 C 0.10746 0.74544 0.15778 0.0
C6448 C 0.11222 0.74016 0.15986 0.0
C6449 C 0.10984 0.73345 0.16174 0.0
C6450 C 0.11867 0.75921 0.14855 0.0
C6451 C 0.11508 0.76545 0.1501 0.0
C6452 C 0.11618 0.75275 0.15102 0.0
C6453 C 0.11005 0.75239 0.15515 0.0
C6454 C 0.10641 0.75869 0.15664 0.0
C6455 C 0.10893 0.76517 0.15415 0.0
H6456 H 0.0293 0.35489 0.89862 0.0
H6457 H 0.02243 0.35205 0.92009 0.0
H6458 H 0.01763 0.35875 0.89533 0.0
H6459 H 0.01068 0.3563 0.91683 0.0
H6460 H 0.98853 0.35783 0.90639 0.0
H6461 H 1.00007 0.35334 0.91016 0.0
H6462 H 0.01022 0.36855 0.89663 0.0
H6463 H 0.99877 0.37277 0.89277 0.0
C6464 C 0.02528 0.3551 0.90266 0.0
C6465 C 0.0268 0.3531 0.90961 0.0
C6466 C 0.01859 0.35741 0.90078 0.0
C6467 C 0.01319 0.35789 0.9058 0.0
C6468 C 0.01469 0.35594 0.9128 0.0
C6469 C 0.02144 0.35359 0.91469 0.0
C6470 C 0.99327 0.36008 0.90415 0.0
C6471 C 0.99283 0.3655 0.89917 0.0
C6472 C 0.99987 0.35759 0.90638 0.0
C6473 C 0.00611 0.36054 0.90366 0.0
C6474 C 0.00557 0.36602 0.89872 0.0
C6475 C 0.99901 0.36845 0.89649 0.0
H6476 H 0.4156 0.27164 0.66097 0.0
H6477 H 0.39416 0.27919 0.66151 0.0
H6478 H 0.41148 0.26018 0.65706 0.0
H6479 H 0.39002 0.26759 0.65808 0.0
H6480 H 0.38531 0.24959 0.64325 0.0
H6481 H 0.38977 0.26074 0.64772 0.0
H6482 H 0.40537 0.24956 0.65994 0.0
H6483 H 0.4009 0.23836 0.65528 0.0
C6484 C 0.41 0.27086 0.66031 0.0
C6485 C 0.40524 0.27643 0.66146 0.0
C6486 C 0.40763 0.26423 0.65816 0.0
C6487 C 0.40042 0.26295 0.65715 0.0
C6488 C 0.39563 0.26841 0.65863 0.0
C6489 C 0.39801 0.27506 0.66072 0.0
C6490 C 0.38978 0.24955 0.6468 0.0
C6491 C 0.39287 0.24318 0.64883 0.0
C6492 C 0.39227 0.25593 0.64946 0.0
C6493 C 0.3979 0.25609 0.65426 0.0
C6494 C 0.40107 0.24966 0.65621 0.0
C6495 C 0.39855 0.24325 0.65353 0.0
H6496 H 0.10898 0.47973 0.35378 0.0
H6497 H 0.08697 0.48515 0.35257 0.0
H6498 H 0.11177 0.49162 0.35742 0.0
H6499 H 0.08977 0.49719 0.35609 0.0
H6500 H 0.09667 0.51599 0.36972 0.0
H6501 H 0.09338 0.50434 0.36546 0.0
H6502 H 0.11283 0.50328 0.35369 0.0
H6503 H 0.11618 0.51486 0.35826 0.0
C6504 C 0.10473 0.48349 0.35422 0.0
C6505 C 0.09775 0.48148 0.35283 0.0
C6506 C 0.10634 0.49036 0.35627 0.0
C6507 C 0.10103 0.49546 0.35698 0.0
C6508 C 0.09401 0.49342 0.35568 0.0
C6509 C 0.09239 0.48651 0.35365 0.0
C6510 C 0.10019 0.51326 0.36616 0.0
C6511 C 0.10665 0.51628 0.36428 0.0
C6512 C 0.0983 0.5066 0.36368 0.0
C6513 C 0.10284 0.50279 0.35924 0.0
C6514 C 0.10925 0.50596 0.35721 0.0
C6515 C 0.11115 0.51262 0.35975 0.0
H6516 H 0.27918 0.34712 0.11412 0.0
H6517 H 0.27131 0.34552 0.09285 0.0
H6518 H 0.26754 0.3505 0.11815 0.0
H6519 H 0.25978 0.34936 0.09683 0.0
H6520 H 0.23808 0.35108 0.10768 0.0
H6521 H 0.2494 0.34657 0.10338 0.0
H6522 H 0.26026 0.36057 0.11764 0.0
H6523 H 0.24899 0.36488 0.12197 0.0
C6524 C 0.27497 0.34742 0.1103 0.0
C6525 C 0.27626 0.3461 0.10314 0.0
C6526 C 0.26829 0.34948 0.1126 0.0
C6527 C 0.26272 0.35035 0.1078 0.0
C6528 C 0.26392 0.34876 0.10068 0.0
C6529 C 0.27059 0.34664 0.09839 0.0
C6530 C 0.24292 0.35325 0.10977 0.0
C6531 C 0.24272 0.3584 0.11505 0.0
C6532 C 0.2494 0.35066 0.10734 0.0
C6533 C 0.25578 0.35316 0.1102 0.0
C6534 C 0.25549 0.35841 0.11541 0.0
C6535 C 0.24904 0.36098 0.11781 0.0
H6536 H 0.41059 0.52169 0.84223 0.0
H6537 H 0.41178 0.52905 0.86371 0.0
H6538 H 0.40686 0.51018 0.84638 0.0
H6539 H 0.40851 0.51741 0.86786 0.0
H6540 H 0.39381 0.49933 0.87281 0.0
H6541 H 0.39818 0.51053 0.86837 0.0
H6542 H 0.40994 0.49952 0.85231 0.0
H6543 H 0.40537 0.48828 0.85676 0.0
C6544 C 0.41012 0.52086 0.84785 0.0
C6545 C 0.41139 0.52639 0.85262 0.0
C6546 C 0.40806 0.5142 0.85023 0.0
C6547 C 0.40728 0.51286 0.85746 0.0
C6548 C 0.4089 0.51828 0.86224 0.0
C6549 C 0.41089 0.52496 0.85986 0.0
C6550 C 0.39724 0.49934 0.86825 0.0
C6551 C 0.39916 0.49301 0.86503 0.0
C6552 C 0.39984 0.50574 0.86577 0.0
C6553 C 0.40448 0.50596 0.86001 0.0
C6554 C 0.40633 0.49957 0.85671 0.0
C6555 C 0.40371 0.49314 0.85923 0.0
H6556 H 0.23542 0.6587 0.59175 0.0
H6557 H 0.22976 0.66359 0.61322 0.0
H6558 H 0.24719 0.65543 0.59558 0.0
H6559 H 0.24157 0.6604 0.61703 0.0
H6560 H 0.26482 0.65856 0.62147 0.0
H6561 H 0.25388 0.66337 0.61671 0.0
H6562 H 0.25272 0.646 0.60208 0.0
H6563 H 0.26374 0.64129 0.60684 0.0
C6564 C 0.23667 0.65908 0.5973 0.0
C6565 C 0.23157 0.66133 0.60218 0.0
C6566 C 0.24344 0.65721 0.59949 0.0
C6567 C 0.24533 0.65758 0.60662 0.0
C6568 C 0.24034 0.66011 0.61148 0.0
C6569 C 0.23354 0.66195 0.60929 0.0
C6570 C 0.26229 0.65588 0.61712 0.0
C6571 C 0.26512 0.64963 0.61443 0.0
C6572 C 0.25598 0.65858 0.61445 0.0
C6573 C 0.25237 0.65506 0.60904 0.0
C6574 C 0.25539 0.64891 0.60619 0.0
C6575 C 0.2617 0.6462 0.60889 0.0
H6576 H 0.09703 0.52909 0.14411 0.0
H6577 H 0.09545 0.52119 0.16537 0.0
H6578 H 0.10024 0.51741 0.14003 0.0
H6579 H 0.0988 0.50952 0.16129 0.0
H6580 H 0.11369 0.49225 0.15204 0.0
H6581 H 0.10915 0.50343 0.1567 0.0
H6582 H 0.09592 0.50563 0.13833 0.0
H6583 H 0.10054 0.49458 0.13372 0.0
C6584 C 0.09724 0.52486 0.14791 0.0
C6585 C 0.09601 0.52615 0.15509 0.0
C6586 C 0.09911 0.51814 0.14557 0.0
C6587 C 0.09983 0.51252 0.15034 0.0
C6588 C 0.09843 0.51375 0.15749 0.0
C6589 C 0.09651 0.52046 0.15983 0.0
C6590 C 0.10974 0.49511 0.14909 0.0
C6591 C 0.10742 0.4926 0.14256 0.0
C6592 C 0.10712 0.50149 0.15174 0.0
C6593 C 0.1022 0.50546 0.14786 0.0
C6594 C 0.09978 0.50278 0.14141 0.0
C6595 C 0.10237 0.49643 0.13879 0.0
H6596 H 0.22984 0.35888 0.90797 0.0
H6597 H 0.23402 0.33721 0.9026 0.0
H6598 H 0.24154 0.36215 0.90416 0.0
H6599 H 0.24575 0.34056 0.89843 0.0
H6600 H 0.26876 0.34826 0.8975 0.0
H6601 H 0.25726 0.34462 0.90213 0.0
H6602 H 0.24802 0.36362 0.8937 0.0
H6603 H 0.25951 0.36726 0.88932 0.0
C6604 C 0.23327 0.35479 0.90598 0.0
C6605 C 0.23098 0.34776 0.90564 0.0
C6606 C 0.23998 0.35669 0.9037 0.0
C6607 C 0.24461 0.35164 0.90094 0.0
C6608 C 0.24235 0.34459 0.90059 0.0
C6609 C 0.2356 0.34267 0.9029 0.0
C6610 C 0.26427 0.35169 0.89681 0.0
C6611 C 0.26499 0.35811 0.89323 0.0
C6612 C 0.25767 0.34958 0.89935 0.0
C6613 C 0.25169 0.35383 0.89832 0.0
C6614 C 0.2525 0.36027 0.89474 0.0
C6615 C 0.25908 0.36238 0.89223 0.0
H6616 H 0.42049 0.48363 0.65092 0.0
H6617 H 0.39945 0.4812 0.6591 0.0
H6618 H 0.41759 0.49554 0.64708 0.0
H6619 H 0.3965 0.49298 0.65517 0.0
H6620 H 0.39423 0.51648 0.6521 0.0
H6621 H 0.39799 0.50511 0.65695 0.0
H6622 H 0.4111 0.50175 0.63866 0.0
H6623 H 0.40752 0.51316 0.63405 0.0
C6624 C 0.41523 0.48562 0.65185 0.0
C6625 C 0.41022 0.48145 0.65535 0.0
C6626 C 0.41355 0.49245 0.64965 0.0
C6627 C 0.40679 0.49528 0.65082 0.0
C6628 C 0.4018 0.49109 0.65431 0.0
C6629 C 0.40349 0.48429 0.65655 0.0
C6630 C 0.39797 0.5133 0.6492 0.0
C6631 C 0.40061 0.51563 0.64274 0.0
C6632 C 0.40009 0.50677 0.65193 0.0
C6633 C 0.40485 0.50245 0.6482 0.0
C6634 C 0.40754 0.50493 0.64176 0.0
C6635 C 0.40545 0.51144 0.63908 0.0
H6636 H 0.27756 0.64863 0.40769 0.0
H6637 H 0.27344 0.6703 0.40228 0.0
H6638 H 0.26583 0.64539 0.40392 0.0
H6639 H 0.26169 0.66699 0.39816 0.0
H6640 H 0.23867 0.65951 0.39725 0.0
H6641 H 0.25019 0.66303 0.40189 0.0
H6642 H 0.25925 0.64391 0.39353 0.0
H6643 H 0.24772 0.64039 0.38913 0.0
C6644 C 0.27414 0.65272 0.40571 0.0
C6645 C 0.27645 0.65974 0.40534 0.0
C6646 C 0.26741 0.65085 0.40345 0.0
C6647 C 0.26278 0.65591 0.4007 0.0
C6648 C 0.26508 0.66295 0.40032 0.0
C6649 C 0.27185 0.66484 0.4026 0.0
C6650 C 0.24312 0.65602 0.39657 0.0
C6651 C 0.24233 0.64961 0.393 0.0
C6652 C 0.24974 0.65807 0.39912 0.0
C6653 C 0.25568 0.65376 0.39811 0.0
C6654 C 0.25479 0.64731 0.39455 0.0
C6655 C 0.24819 0.64527 0.39203 0.0
H6656 H 0.36312 0.09414 0.48 0.0
H6657 H 0.34187 0.10006 0.48546 0.0
H6658 H 0.36694 0.09703 0.49188 0.0
H6659 H 0.34571 0.10305 0.49729 0.0
H6660 H 0.3573 0.1159 0.51463 0.0
H6661 H 0.35264 0.11196 0.50325 0.0
H6662 H 0.36622 0.09373 0.50407 0.0
H6663 H 0.37088 0.09776 0.51534 0.0
C6664 C 0.35923 0.09595 0.48375 0.0
C6665 C 0.35219 0.09692 0.4817 0.0
C6666 C 0.36143 0.09763 0.49058 0.0
C6667 C 0.35665 0.10035 0.49555 0.0
C6668 C 0.34957 0.10112 0.49357 0.0
C6669 C 0.34737 0.0994 0.48676 0.0
C6670 C 0.35917 0.11101 0.5124 0.0
C6671 C 0.36438 0.10709 0.51583 0.0
C6672 C 0.35652 0.10873 0.50589 0.0
C6673 C 0.35908 0.10253 0.5027 0.0
C6674 C 0.36419 0.09857 0.50629 0.0
C6675 C 0.36681 0.10083 0.51278 0.0
H6676 H 0.86365 0.41006 0.52958 0.0
H6677 H 0.84264 0.41282 0.52133 0.0
H6678 H 0.86773 0.40663 0.51797 0.0
H6679 H 0.84666 0.40895 0.50981 0.0
H6680 H 0.85799 0.40705 0.48833 0.0
H6681 H 0.85364 0.4116 0.49961 0.0
H6682 H 0.86677 0.39662 0.5106 0.0
H6683 H 0.87115 0.39225 0.49936 0.0
C6684 C 0.8599 0.41001 0.52529 0.0
C6685 C 0.85279 0.41167 0.52645 0.0
C6686 C 0.86223 0.40792 0.51863 0.0
C6687 C 0.8575 0.40737 0.51296 0.0
C6688 C 0.85045 0.40931 0.51404 0.0
C6689 C 0.84813 0.41145 0.52069 0.0
C6690 C 0.85981 0.40468 0.49318 0.0
C6691 C 0.86479 0.39923 0.49304 0.0
C6692 C 0.85735 0.40728 0.49964 0.0
C6693 C 0.85989 0.40453 0.50604 0.0
C6694 C 0.86479 0.39897 0.5058 0.0
C6695 C 0.86722 0.39638 0.49937 0.0
H6696 H 0.35881 0.1062 0.27969 0.0
H6697 H 0.33787 0.10124 0.27245 0.0
H6698 H 0.36204 0.10998 0.26798 0.0
H6699 H 0.34102 0.1054 0.26064 0.0
H6700 H 0.35183 0.10704 0.23868 0.0
H6701 H 0.34816 0.10267 0.25031 0.0
H6702 H 0.36009 0.11934 0.26017 0.0
H6703 H 0.36388 0.12344 0.24865 0.0
C6704 C 0.35487 0.10593 0.27558 0.0
C6705 C 0.34809 0.10335 0.27701 0.0
C6706 C 0.3567 0.10819 0.26885 0.0
C6707 C 0.35179 0.10804 0.26333 0.0
C6708 C 0.34496 0.10553 0.26474 0.0
C6709 C 0.34312 0.10323 0.27153 0.0
C6710 C 0.35375 0.10964 0.24338 0.0
C6711 C 0.35827 0.11544 0.24284 0.0
C6712 C 0.35157 0.10722 0.25002 0.0
C6713 C 0.35387 0.11061 0.2562 0.0
C6714 C 0.35835 0.11647 0.25556 0.0
C6715 C 0.36053 0.11884 0.24897 0.0
H6716 H 0.65289 0.58748 0.02338 0.0
H6717 H 0.65678 0.60937 0.02805 0.0
H6718 H 0.64865 0.59079 0.01165 0.0
H6719 H 0.65291 0.61262 0.01636 0.0
H6720 H 0.63805 0.61717 0.99833 0.0
H6721 H 0.64243 0.61351 0.00981 0.0
H6722 H 0.65227 0.59535 1.00026 0.0
H6723 H 0.64762 0.599 0.98876 0.0
C6724 C 0.65284 0.59299 0.02191 0.0
C6725 C 0.6552 0.59816 0.02665 0.0
C6726 C 0.6505 0.59488 0.01516 0.0
C6727 C 0.65042 0.60198 0.01304 0.0
C6728 C 0.65279 0.60711 0.01781 0.0
C6729 C 0.6551 0.60523 0.02451 0.0
C6730 C 0.64126 0.61247 0.99869 0.0
C6731 C 0.64266 0.60844 0.9927 0.0
C6732 C 0.64377 0.61035 0.00526 0.0
C6733 C 0.64776 0.60415 0.00598 0.0
C6734 C 0.64918 0.60013 0.99992 0.0
C6735 C 0.64662 0.60225 0.99333 0.0
H6736 H 0.66364 0.41496 0.27122 0.0
H6737 H 0.65856 0.39442 0.27953 0.0
H6738 H 0.65999 0.41116 0.25957 0.0
H6739 H 0.65533 0.39049 0.26779 0.0
H6740 H 0.64256 0.38762 0.24789 0.0
H6741 H 0.64616 0.39191 0.25947 0.0
H6742 H 0.66285 0.40392 0.24976 0.0
H6743 H 0.65906 0.39973 0.23818 0.0
C6744 C 0.66178 0.40962 0.27057 0.0
C6745 C 0.66134 0.40503 0.27638 0.0
C6746 C 0.65977 0.4074 0.26384 0.0
C6747 C 0.65729 0.40052 0.26271 0.0
C6748 C 0.65707 0.39587 0.26847 0.0
C6749 C 0.65904 0.3981 0.27521 0.0
C6750 C 0.6469 0.3913 0.24826 0.0
C6751 C 0.65046 0.39346 0.24218 0.0
C6752 C 0.64905 0.39367 0.25489 0.0
C6753 C 0.65485 0.39823 0.25559 0.0
C6754 C 0.65832 0.40049 0.24944 0.0
C6755 C 0.65615 0.39811 0.2428 0.0
H6756 H 0.15786 0.8988 0.98052 0.0
H6757 H 0.15191 0.92044 0.9841 0.0
H6758 H 0.1542 0.89578 0.99236 0.0
H6759 H 0.14792 0.91733 0.99594 0.0
H6760 H 0.14757 0.91063 0.01914 0.0
H6761 H 0.15197 0.91383 0.00745 0.0
H6762 H 0.14389 0.89424 0.99918 0.0
H6763 H 0.13969 0.89104 0.01091 0.0
C6764 C 0.15577 0.90293 0.98385 0.0
C6765 C 0.15523 0.90988 0.98135 0.0
C6766 C 0.15359 0.90117 0.99063 0.0
C6767 C 0.15074 0.90629 0.99514 0.0
C6768 C 0.15017 0.91326 0.99265 0.0
C6769 C 0.15237 0.91503 0.98583 0.0
C6770 C 0.14689 0.90697 0.01482 0.0
C6771 C 0.14344 0.90054 0.0159 0.0
C6772 C 0.14931 0.90884 0.00811 0.0
C6773 C 0.1483 0.9043 1.00234 0.0
C6774 C 0.14489 0.89782 1.0035 0.0
C6775 C 0.14248 0.89597 0.01021 0.0
H6776 H 0.34387 0.91494 0.2369 0.0
H6777 H 0.34897 0.89451 0.22832 0.0
H6778 H 0.34769 0.91101 0.24849 0.0
H6779 H 0.35238 0.89048 0.23995 0.0
H6780 H 0.36611 0.88786 0.25916 0.0
H6781 H 0.36194 0.89222 0.24783 0.0
H6782 H 0.3452 0.90345 0.25836 0.0
H6783 H 0.34955 0.89914 0.26973 0.0
C6784 C 0.34575 0.90959 0.23748 0.0
C6785 C 0.34618 0.90508 0.23162 0.0
C6786 C 0.34787 0.90732 0.24416 0.0
C6787 C 0.35044 0.90045 0.24516 0.0
C6788 C 0.35058 0.89585 0.23936 0.0
C6789 C 0.34851 0.89814 0.23268 0.0
C6790 C 0.36163 0.89139 0.25903 0.0
C6791 C 0.35822 0.8933 0.26527 0.0
C6792 C 0.35916 0.8938 0.25254 0.0
C6793 C 0.35318 0.89814 0.25215 0.0
C6794 C 0.34985 0.90017 0.25846 0.0
C6795 C 0.35234 0.89774 0.26496 0.0
H6796 H 0.17075 0.10326 0.73467 0.0
H6797 H 0.14867 0.10239 0.72947 0.0
H6798 H 0.16775 0.10686 0.74667 0.0
H6799 H 0.14567 0.1061 0.74128 0.0
H6800 H 0.14111 0.10736 0.7642 0.0
H6801 H 0.14514 0.10243 0.75301 0.0
H6802 H 0.16324 0.1162 0.75354 0.0
H6803 H 0.1593 0.12084 0.76484 0.0
C6804 C 0.16527 0.1039 0.73607 0.0
C6805 C 0.15995 0.10247 0.73114 0.0
C6806 C 0.16353 0.10596 0.74295 0.0
C6807 C 0.15645 0.10668 0.74502 0.0
C6808 C 0.15117 0.10539 0.74 0.0
C6809 C 0.1529 0.1033 0.73318 0.0
C6810 C 0.14603 0.10916 0.76198 0.0
C6811 C 0.14995 0.11439 0.76536 0.0
C6812 C 0.14831 0.10643 0.75552 0.0
C6813 C 0.15449 0.10898 0.75228 0.0
C6814 C 0.15852 0.11404 0.75587 0.0
C6815 C 0.15626 0.11672 0.76234 0.0
H6816 H 0.09797 0.14995 0.44712 0.0
H6817 H 0.09031 0.12915 0.44207 0.0
H6818 H 0.10774 0.14473 0.45364 0.0
H6819 H 0.09994 0.12397 0.44875 0.0
H6820 H 0.12304 0.11798 0.45397 0.0
H6821 H 0.11282 0.12282 0.44778 0.0
H6822 H 0.10989 0.13791 0.46453 0.0
H6823 H 0.12011 0.13301 0.47069 0.0
C6824 C 0.09837 0.14427 0.44738 0.0
C6825 C 0.09335 0.13998 0.44406 0.0
C6826 C 0.10392 0.14128 0.45119 0.0
C6827 C 0.10459 0.13394 0.45173 0.0
C6828 C 0.09959 0.12964 0.4484 0.0
C6829 C 0.09403 0.13262 0.44462 0.0
C6830 C 0.12011 0.12226 0.45634 0.0
C6831 C 0.12225 0.12511 0.4628 0.0
C6832 C 0.11428 0.12503 0.45282 0.0
C6833 C 0.11056 0.13076 0.45566 0.0
C6834 C 0.11268 0.13354 0.46218 0.0
C6835 C 0.11847 0.1307 0.46574 0.0
H6836 H 0.12753 0.83845 0.69644 0.0
H6837 H 0.10849 0.85044 0.6932 0.0
H6838 H 0.13242 0.84804 0.70329 0.0
H6839 H 0.1136 0.86025 0.69953 0.0
H6840 H 0.12134 0.87464 0.71649 0.0
H6841 H 0.11652 0.86435 0.71056 0.0
H6842 H 0.13729 0.85923 0.70277 0.0
H6843 H 0.14209 0.86933 0.70911 0.0
C6844 C 0.12437 0.84313 0.69718 0.0
C6845 C 0.11758 0.84362 0.69427 0.0
C6846 C 0.12724 0.8487 0.70103 0.0
C6847 C 0.12343 0.85497 0.70201 0.0
C6848 C 0.11667 0.85548 0.69903 0.0
C6849 C 0.11377 0.84987 0.69527 0.0
C6850 C 0.12485 0.87122 0.71359 0.0
C6851 C 0.13206 0.8727 0.71327 0.0
C6852 C 0.1221 0.86537 0.71011 0.0
C6853 C 0.12648 0.86096 0.70608 0.0
C6854 C 0.13375 0.86241 0.70588 0.0
C6855 C 0.13652 0.86821 0.70949 0.0
H6856 H 0.41892 0.87864 0.94365 0.0
H6857 H 0.41057 0.85771 0.94642 0.0
H6858 H 0.409 0.88349 0.95016 0.0
H6859 H 0.40083 0.86246 0.95316 0.0
H6860 H 0.38034 0.87275 0.95786 0.0
H6861 H 0.39053 0.8684 0.95179 0.0
H6862 H 0.40309 0.88509 0.96079 0.0
H6863 H 0.39259 0.88995 0.96632 0.0
C6864 C 0.415 0.87507 0.94574 0.0
C6865 C 0.41548 0.8678 0.94444 0.0
C6866 C 0.40932 0.87784 0.94951 0.0
C6867 C 0.40402 0.8734 0.95215 0.0
C6868 C 0.40466 0.8661 0.95103 0.0
C6869 C 0.41027 0.86335 0.94718 0.0
C6870 C 0.38521 0.87564 0.95845 0.0
C6871 C 0.38555 0.88182 0.9625 0.0
C6872 C 0.39115 0.87302 0.95506 0.0
C6873 C 0.39771 0.87633 0.95581 0.0
C6874 C 0.39812 0.88243 0.96 0.0
C6875 C 0.39211 0.88517 0.96328 0.0
H6876 H 0.39126 0.15676 0.18545 0.0
H6877 H 0.38699 0.17054 0.20303 0.0
H6878 H 0.38612 0.14701 0.19185 0.0
H6879 H 0.38131 0.16091 0.2092 0.0
H6880 H 0.3781 0.14033 0.22137 0.0
H6881 H 0.38315 0.15044 0.2153 0.0
H6882 H 0.3755 0.14227 0.19548 0.0
H6883 H 0.37077 0.13206 0.20155 0.0
C6884 C 0.38923 0.15773 0.19068 0.0
C6885 C 0.38957 0.16447 0.1937 0.0
C6886 C 0.38615 0.15214 0.19432 0.0
C6887 C 0.38321 0.15314 0.20104 0.0
C6888 C 0.38356 0.15989 0.20407 0.0
C6889 C 0.38674 0.16546 0.20047 0.0
C6890 C 0.37744 0.14077 0.21572 0.0
C6891 C 0.37409 0.13541 0.21192 0.0
C6892 C 0.38032 0.14657 0.21223 0.0
C6893 C 0.37983 0.14717 0.20486 0.0
C6894 C 0.37619 0.14192 0.20112 0.0
C6895 C 0.37341 0.13609 0.2046 0.0
H6896 H 0.09928 0.85969 0.06352 0.0
H6897 H 0.08832 0.87961 0.06299 0.0
H6898 H 0.1089 0.86482 0.05689 0.0
H6899 H 0.09774 0.88461 0.05592 0.0
H6900 H 0.11966 0.89322 0.04983 0.0
H6901 H 0.10948 0.88861 0.05622 0.0
H6902 H 0.11204 0.86861 0.04567 0.0
H6903 H 0.12237 0.87317 0.03962 0.0
C6904 C 0.09891 0.86517 0.06199 0.0
C6905 C 0.093 0.86922 0.06382 0.0
C6906 C 0.10439 0.86809 0.05807 0.0
C6907 C 0.1041 0.87513 0.05578 0.0
C6908 C 0.09819 0.87919 0.05762 0.0
C6909 C 0.09273 0.87628 0.06161 0.0
C6910 C 0.11793 0.88789 0.04883 0.0
C6911 C 0.12173 0.88354 0.04425 0.0
C6912 C 0.11211 0.88523 0.05248 0.0
C6913 C 0.10996 0.87819 0.05155 0.0
C6914 C 0.11362 0.87398 0.04668 0.0
C6915 C 0.11948 0.87661 0.04314 0.0
H6916 H 0.39156 0.85148 0.32234 0.0
H6917 H 0.38659 0.83775 0.30491 0.0
H6918 H 0.38652 0.86133 0.31601 0.0
H6919 H 0.38099 0.84747 0.29884 0.0
H6920 H 0.37794 0.86793 0.28656 0.0
H6921 H 0.3829 0.85778 0.29263 0.0
H6922 H 0.37604 0.86643 0.31254 0.0
H6923 H 0.37141 0.87668 0.30645 0.0
C6924 C 0.3894 0.85054 0.31716 0.0
C6925 C 0.38951 0.84378 0.31416 0.0
C6926 C 0.38636 0.85619 0.31356 0.0
C6927 C 0.38326 0.85524 0.30691 0.0
C6928 C 0.38338 0.84847 0.30391 0.0
C6929 C 0.38651 0.84284 0.30746 0.0
C6930 C 0.37744 0.86759 0.29223 0.0
C6931 C 0.37433 0.87309 0.29605 0.0
C6932 C 0.38027 0.86177 0.29573 0.0
C6933 C 0.37996 0.86127 0.30312 0.0
C6934 C 0.37658 0.86668 0.30688 0.0
C6935 C 0.37385 0.87254 0.30339 0.0
H6936 H 0.41738 0.12839 0.56689 0.0
H6937 H 0.41028 0.14901 0.56049 0.0
H6938 H 0.40788 0.12302 0.56014 0.0
H6939 H 0.40067 0.14363 0.55388 0.0
H6940 H 0.38873 0.13143 0.53701 0.0
H6941 H 0.39894 0.13623 0.54324 0.0
H6942 H 0.39484 0.12223 0.56067 0.0
H6943 H 0.38462 0.11749 0.5544 0.0
C6944 C 0.41381 0.13178 0.56402 0.0
C6945 C 0.4146 0.13914 0.56422 0.0
C6946 C 0.40833 0.1287 0.56021 0.0
C6947 C 0.40354 0.1329 0.55646 0.0
C6948 C 0.40433 0.14025 0.55665 0.0
C6949 C 0.40978 0.14334 0.5605 0.0
C6950 C 0.39013 0.12931 0.54211 0.0
C6951 C 0.38601 0.12405 0.54522 0.0
C6952 C 0.3959 0.1321 0.54571 0.0
C6953 C 0.39767 0.12964 0.55246 0.0
C6954 C 0.39365 0.12419 0.55545 0.0
C6955 C 0.38782 0.12147 0.55188 0.0
H6956 H 0.1077 0.16084 0.80993 0.0
H6957 H 0.12876 0.16715 0.81559 0.0
H6958 H 0.11242 0.151 0.80327 0.0
H6959 H 0.13351 0.15718 0.80913 0.0
H6960 H 0.14058 0.14167 0.79251 0.0
H6961 H 0.13574 0.15211 0.79815 0.0
H6962 H 0.11754 0.1401 0.80461 0.0
H6963 H 0.12205 0.12993 0.79847 0.0
C6964 C 0.11334 0.16008 0.80981 0.0
C6965 C 0.11785 0.16477 0.81331 0.0
C6966 C 0.11606 0.15441 0.806 0.0
C6967 C 0.12337 0.15323 0.80567 0.0
C6968 C 0.12788 0.15796 0.80914 0.0
C6969 C 0.12515 0.16368 0.81289 0.0
C6970 C 0.13549 0.1413 0.79502 0.0
C6971 C 0.13175 0.13492 0.79507 0.0
C6972 C 0.13275 0.14727 0.79836 0.0
C6973 C 0.12624 0.14698 0.80189 0.0
C6974 C 0.1225 0.1406 0.80187 0.0
C6975 C 0.12517 0.1347 0.79845 0.0
H6976 H 0.45292 0.08764 0.13734 0.0
H6977 H 0.43516 0.10133 0.14111 0.0
H6978 H 0.45915 0.09727 0.13173 0.0
H6979 H 0.44161 0.11109 0.13603 0.0
H6980 H 0.45173 0.12602 0.12084 0.0
H6981 H 0.44553 0.11583 0.12548 0.0
H6982 H 0.46512 0.10775 0.13378 0.0
H6983 H 0.47132 0.11783 0.12886 0.0
C6984 C 0.45034 0.0927 0.13699 0.0
C6985 C 0.4435 0.09367 0.13967 0.0
C6986 C 0.45397 0.09827 0.13386 0.0
C6987 C 0.45091 0.10499 0.13339 0.0
C6988 C 0.44411 0.10598 0.13615 0.0
C6989 C 0.44044 0.10038 0.1392 0.0
C6990 C 0.4547 0.12202 0.12361 0.0
C6991 C 0.462 0.12271 0.12451 0.0
C6992 C 0.45115 0.1162 0.12633 0.0
C6993 C 0.45479 0.11097 0.1301 0.0
C6994 C 0.46213 0.1116 0.13083 0.0
C6995 C 0.4657 0.11738 0.12802 0.0
H6996 H 0.15769 0.18532 0.38957 0.0
H6997 H 0.17001 0.20443 0.38985 0.0
H6998 H 0.14794 0.19169 0.38439 0.0
H6999 H 0.16048 0.21067 0.3841 0.0
H7000 H 0.13932 0.2216 0.38064 0.0
H7001 H 0.14944 0.21554 0.38566 0.0
H7002 H 0.14377 0.19672 0.37418 0.0
H7003 H 0.13347 0.20272 0.36952 0.0
C7004 C 0.15834 0.19088 0.38853 0.0
C7005 C 0.16467 0.19434 0.39017 0.0
C7006 C 0.15277 0.19453 0.38541 0.0
C7007 C 0.1534 0.20172 0.38374 0.0
C7008 C 0.15974 0.20517 0.38537 0.0
C7009 C 0.16527 0.20155 0.38858 0.0
C7010 C 0.14032 0.21619 0.37915 0.0
C7011 C 0.13562 0.21261 0.37473 0.0
C7012 C 0.14613 0.21271 0.38201 0.0
C7013 C 0.14743 0.20558 0.38041 0.0
C7014 C 0.14286 0.20212 0.37572 0.0
C7015 C 0.13699 0.20558 0.37297 0.0
H7016 H 0.05996 0.91055 0.6503 0.0
H7017 H 0.06618 0.91669 0.62935 0.0
H7018 H 0.05331 0.90076 0.64548 0.0
H7019 H 0.05977 0.90675 0.62449 0.0
H7020 H 0.04337 0.8913 0.61696 0.0
H7021 H 0.04902 0.90167 0.62186 0.0
H7022 H 0.05434 0.88985 0.64057 0.0
H7023 H 0.0481 0.87981 0.63601 0.0
C7024 C 0.05998 0.90975 0.64466 0.0
C7025 C 0.06362 0.91439 0.64022 0.0
C7026 C 0.05618 0.90411 0.64188 0.0
C7027 C 0.05601 0.90288 0.63457 0.0
C7028 C 0.05964 0.90756 0.63013 0.0
C7029 C 0.06336 0.91326 0.63292 0.0
C7030 C 0.04561 0.89096 0.62218 0.0
C7031 C 0.0453 0.88465 0.62604 0.0
C7032 C 0.04898 0.89689 0.62496 0.0
C7033 C 0.05221 0.89665 0.63163 0.0
C7034 C 0.05185 0.89035 0.63548 0.0
C7035 C 0.04837 0.88449 0.63278 0.0
H7036 H 0.33958 0.81508 0.87957 0.0
H7037 H 0.34742 0.81149 0.90058 0.0
H7038 H 0.34951 0.80861 0.87473 0.0
H7039 H 0.35719 0.8048 0.89581 0.0
H7040 H 0.3778 0.79994 0.8856 0.0
H7041 H 0.36767 0.8061 0.89005 0.0
H7042 H 0.3551 0.79783 0.87298 0.0
H7043 H 0.36552 0.79219 0.86809 0.0
C7044 C 0.34338 0.81282 0.88316 0.0
C7045 C 0.34274 0.81385 0.89046 0.0
C7046 C 0.34907 0.80907 0.88039 0.0
C7047 C 0.35423 0.80619 0.88485 0.0
C7048 C 0.35347 0.80709 0.89217 0.0
C7049 C 0.34784 0.81092 0.89492 0.0
C7050 C 0.37293 0.79953 0.88268 0.0
C7051 C 0.37255 0.79564 0.87639 0.0
C7052 C 0.36703 0.80297 0.88534 0.0
C7053 C 0.36049 0.80246 0.88193 0.0
C7054 C 0.36005 0.79844 0.87571 0.0
C7055 C 0.36602 0.7951 0.87296 0.0
H7056 H 0.44842 0.91168 0.36013 0.0
H7057 H 0.44026 0.91824 0.38029 0.0
H7058 H 0.45503 0.90227 0.3659 0.0
H7059 H 0.44695 0.90892 0.38606 0.0
H7060 H 0.45286 0.88558 0.39135 0.0
H7061 H 0.44676 0.8958 0.38648 0.0
H7062 H 0.46517 0.90092 0.3742 0.0
H7063 H 0.47124 0.89066 0.37903 0.0
C7064 C 0.44803 0.9111 0.36579 0.0
C7065 C 0.44382 0.9157 0.36976 0.0
C7066 C 0.45187 0.90577 0.36909 0.0
C7067 C 0.45154 0.90489 0.37643 0.0
C7068 C 0.44729 0.90946 0.38039 0.0
C7069 C 0.4435 0.91482 0.3771 0.0
C7070 C 0.45564 0.88899 0.38773 0.0
C7071 C 0.46252 0.88737 0.3856 0.0
C7072 C 0.45216 0.89483 0.38494 0.0
C7073 C 0.45547 0.89912 0.37991 0.0
C7074 C 0.46246 0.89766 0.378 0.0
C7075 C 0.46597 0.89186 0.38085 0.0
H7076 H 0.34134 0.18989 0.62907 0.0
H7077 H 0.34577 0.19934 0.60889 0.0
H7078 H 0.35097 0.19657 0.63432 0.0
H7079 H 0.35546 0.20599 0.61416 0.0
H7080 H 0.36768 0.22182 0.62799 0.0
H7081 H 0.35731 0.21574 0.62329 0.0
H7082 H 0.36421 0.19644 0.63307 0.0
H7083 H 0.37455 0.20249 0.63772 0.0
C7084 C 0.34435 0.19343 0.62577 0.0
C7085 C 0.3428 0.19409 0.61856 0.0
C7086 C 0.34988 0.19721 0.62877 0.0
C7087 C 0.35394 0.2018 0.62465 0.0
C7088 C 0.35236 0.20254 0.61747 0.0
C7089 C 0.34687 0.19868 0.61444 0.0
C7090 C 0.3669 0.2163 0.62921 0.0
C7091 C 0.37189 0.21261 0.6332 0.0
C7092 C 0.36102 0.21282 0.62647 0.0
C7093 C 0.35998 0.20562 0.6278 0.0
C7094 C 0.36485 0.202 0.632 0.0
C7095 C 0.37077 0.20545 0.63464 0.0
H7096 H 0.05483 0.08778 0.86995 0.0
H7097 H 0.07299 0.10101 0.86647 0.0
H7098 H 0.04887 0.09746 0.87573 0.0
H7099 H 0.0668 0.11086 0.87167 0.0
H7100 H 0.05712 0.12597 0.8869 0.0
H7101 H 0.06304 0.11567 0.88213 0.0
H7102 H 0.04315 0.10805 0.8741 0.0
H7103 H 0.03724 0.11819 0.87924 0.0
C7104 C 0.05756 0.09276 0.87039 0.0
C7105 C 0.06443 0.09356 0.86775 0.0
C7106 C 0.05408 0.09837 0.87362 0.0
C7107 C 0.05733 0.10499 0.87421 0.0
C7108 C 0.06416 0.10583 0.87147 0.0
C7109 C 0.06768 0.10018 0.86834 0.0
C7110 C 0.05403 0.12203 0.88418 0.0
C7111 C 0.04674 0.12285 0.88343 0.0
C7112 C 0.05742 0.11616 0.88137 0.0
C7113 C 0.05362 0.11102 0.87761 0.0
C7114 C 0.04627 0.1118 0.87702 0.0
C7115 C 0.04286 0.11762 0.87995 0.0
H7116 H 0.15967 0.81126 0.10851 0.0
H7117 H 0.16729 0.81617 0.12935 0.0
H7118 H 0.14985 0.8048 0.11364 0.0
H7119 H 0.15764 0.80949 0.13447 0.0
H7120 H 0.13476 0.80395 0.14067 0.0
H7121 H 0.14496 0.81021 0.1359 0.0
H7122 H 0.14741 0.79403 0.12011 0.0
H7123 H 0.13716 0.78787 0.12489 0.0
C7124 C 0.15925 0.81097 0.11418 0.0
C7125 C 0.16428 0.81424 0.1185 0.0
C7126 C 0.15367 0.80719 0.11713 0.0
C7127 C 0.15297 0.8066 0.12447 0.0
C7128 C 0.15799 0.80988 0.12879 0.0
C7129 C 0.16357 0.81365 0.12585 0.0
C7130 C 0.13758 0.80172 0.13625 0.0
C7131 C 0.13529 0.79543 0.13317 0.0
C7132 C 0.14341 0.80528 0.13352 0.0
C7133 C 0.14699 0.80264 0.1276 0.0
C7134 C 0.14472 0.79626 0.12461 0.0
C7135 C 0.13892 0.79269 0.12737 0.0
H7136 H 0.12883 0.44122 0.09122 0.0
H7137 H 0.14978 0.4476 0.0972 0.0
H7138 H 0.124 0.44763 0.10119 0.0
H7139 H 0.14499 0.45422 0.10702 0.0
H7140 H 0.13565 0.4591 0.1281 0.0
H7141 H 0.1401 0.45284 0.118 0.0
H7142 H 0.12148 0.45854 0.10623 0.0
H7143 H 0.1167 0.46429 0.11663 0.0
C7144 C 0.1324 0.44407 0.09462 0.0
C7145 C 0.1397 0.44386 0.09344 0.0
C7146 C 0.12963 0.44778 0.10033 0.0
C7147 C 0.13408 0.45144 0.10498 0.0
C7148 C 0.14138 0.45133 0.10369 0.0
C7149 C 0.14415 0.44755 0.09803 0.0
C7150 C 0.13241 0.45892 0.12342 0.0
C7151 C 0.12575 0.46214 0.12325 0.0
C7152 C 0.13504 0.45543 0.11754 0.0
C7153 C 0.13119 0.45519 0.11123 0.0
C7154 C 0.12457 0.45851 0.11101 0.0
C7155 C 0.12187 0.46191 0.11696 0.0
H7156 H 0.6494 0.06041 0.90993 0.0
H7157 H 0.62875 0.06687 0.91688 0.0
H7158 H 0.64407 0.05394 0.90019 0.0
H7159 H 0.62344 0.06025 0.90726 0.0
H7160 H 0.61789 0.05477 0.88406 0.0
H7161 H 0.62278 0.06096 0.89425 0.0
H7162 H 0.63661 0.04336 0.89825 0.0
H7163 H 0.63165 0.0372 0.88806 0.0
C7164 C 0.64373 0.06046 0.90937 0.0
C7165 C 0.63951 0.06416 0.91419 0.0
C7166 C 0.64068 0.05669 0.90385 0.0
C7167 C 0.63333 0.05656 0.90298 0.0
C7168 C 0.62911 0.06028 0.90777 0.0
C7169 C 0.63216 0.06402 0.91331 0.0
C7170 C 0.6219 0.05221 0.88721 0.0
C7171 C 0.62438 0.04552 0.88538 0.0
C7172 C 0.62469 0.05573 0.89303 0.0
C7173 C 0.6301 0.05266 0.89704 0.0
C7174 C 0.6325 0.04589 0.89523 0.0
C7175 C 0.62963 0.04234 0.88946 0.0
H7176 H 0.18601 0.39286 0.15634 0.0
H7177 H 0.20234 0.38585 0.17054 0.0
H7178 H 0.19237 0.38775 0.14652 0.0
H7179 H 0.20844 0.3803 0.16078 0.0
H7180 H 0.22125 0.37755 0.14048 0.0
H7181 H 0.21519 0.38251 0.15064 0.0
H7182 H 0.19518 0.37691 0.14137 0.0
H7183 H 0.20126 0.37214 0.13118 0.0
C7184 C 0.19096 0.39024 0.15739 0.0
C7185 C 0.19364 0.38979 0.16427 0.0
C7186 C 0.19456 0.38719 0.15175 0.0
C7187 C 0.20091 0.38354 0.15284 0.0
C7188 C 0.20361 0.38311 0.15971 0.0
C7189 C 0.20004 0.38623 0.16534 0.0
C7190 C 0.21556 0.37731 0.14068 0.0
C7191 C 0.21173 0.37451 0.13501 0.0
C7192 C 0.21207 0.38015 0.1465 0.0
C7193 C 0.20467 0.3802 0.14682 0.0
C7194 C 0.20087 0.37715 0.14125 0.0
C7195 C 0.20435 0.37437 0.13541 0.0
H7196 H 0.85755 0.94713 0.41065 0.0
H7197 H 0.87857 0.94321 0.41829 0.0
H7198 H 0.86231 0.95381 0.40087 0.0
H7199 H 0.88341 0.94966 0.40835 0.0
H7200 H 0.89016 0.96601 0.39234 0.0
H7201 H 0.88526 0.96043 0.40279 0.0
H7202 H 0.86796 0.95247 0.39034 0.0
H7203 H 0.87242 0.95858 0.38019 0.0
C7204 C 0.8632 0.94763 0.41019 0.0
C7205 C 0.86767 0.9446 0.41522 0.0
C7206 C 0.86596 0.95145 0.40455 0.0
C7207 C 0.87328 0.95224 0.40373 0.0
C7208 C 0.87775 0.94928 0.40883 0.0
C7209 C 0.87497 0.94554 0.41453 0.0
C7210 C 0.88523 0.96318 0.39187 0.0
C7211 C 0.88174 0.96271 0.38537 0.0
C7212 C 0.88248 0.95988 0.39786 0.0
C7213 C 0.8762 0.95596 0.39746 0.0
C7214 C 0.87273 0.95552 0.39095 0.0
C7215 C 0.87539 0.95893 0.38504 0.0
H7216 H 0.82224 0.11714 0.15704 0.0
H7217 H 0.80486 0.12135 0.17107 0.0
H7218 H 0.81569 0.12227 0.14739 0.0
H7219 H 0.79854 0.12704 0.16155 0.0
H7220 H 0.78601 0.13008 0.14115 0.0
H7221 H 0.79227 0.12521 0.15124 0.0
H7222 H 0.81192 0.13276 0.14259 0.0
H7223 H 0.80565 0.13727 0.13238 0.0
C7224 C 0.81702 0.11916 0.15809 0.0
C7225 C 0.81411 0.11879 0.16487 0.0
C7226 C 0.8133 0.12224 0.15256 0.0
C7227 C 0.80658 0.12516 0.15366 0.0
C7228 C 0.80366 0.1248 0.16045 0.0
C7229 C 0.80735 0.12162 0.16596 0.0
C7230 C 0.79166 0.13076 0.14149 0.0
C7231 C 0.79536 0.13401 0.136 0.0
C7232 C 0.79526 0.12799 0.14727 0.0
C7233 C 0.80265 0.1285 0.14773 0.0
C7234 C 0.80628 0.13206 0.14235 0.0
C7235 C 0.80269 0.13473 0.13653 0.0
H7236 H 0.36352 0.57034 0.60144 0.0
H7237 H 0.37446 0.55697 0.58665 0.0
H7238 H 0.36883 0.56393 0.61114 0.0
H7239 H 0.38009 0.55082 0.59638 0.0
H7240 H 0.38252 0.53663 0.61613 0.0
H7241 H 0.37778 0.54275 0.60587 0.0
H7242 H 0.37995 0.5626 0.61676 0.0
H7243 H 0.38461 0.55648 0.62698 0.0
C7244 C 0.36704 0.56602 0.60024 0.0
C7245 C 0.36855 0.56419 0.59324 0.0
C7246 C 0.37018 0.56241 0.60582 0.0
C7247 C 0.37495 0.5569 0.60455 0.0
C7248 C 0.37642 0.55501 0.59756 0.0
C7249 C 0.37325 0.5586 0.59197 0.0
C7250 C 0.38209 0.54231 0.61627 0.0
C7251 C 0.38385 0.54606 0.62239 0.0
C7252 C 0.37936 0.54582 0.6104 0.0
C7253 C 0.37836 0.55316 0.61053 0.0
C7254 C 0.38045 0.55692 0.61654 0.0
C7255 C 0.38316 0.55342 0.62239 0.0
H7256 H 0.19121 0.62958 0.34054 0.0
H7257 H 0.19785 0.60864 0.34623 0.0
H7258 H 0.19778 0.63439 0.35041 0.0
H7259 H 0.20473 0.6134 0.35586 0.0
H7260 H 0.21008 0.6222 0.37689 0.0
H7261 H 0.20385 0.61789 0.3668 0.0
H7262 H 0.20831 0.63726 0.35571 0.0
H7263 H 0.21388 0.64195 0.36625 0.0
C7264 C 0.19416 0.62601 0.34386 0.0
C7265 C 0.19394 0.61872 0.34266 0.0
C7266 C 0.19798 0.62878 0.34951 0.0
C7267 C 0.20178 0.62432 0.35405 0.0
C7268 C 0.20172 0.61703 0.35267 0.0
C7269 C 0.19779 0.61427 0.34711 0.0
C7270 C 0.20961 0.62566 0.37239 0.0
C7271 C 0.21238 0.63252 0.37251 0.0
C7272 C 0.20615 0.62309 0.36647 0.0
C7273 C 0.20556 0.62717 0.36033 0.0
C7274 C 0.20853 0.63397 0.36035 0.0
C7275 C 0.21184 0.63664 0.36638 0.0
H7276 H 0.30514 0.38579 0.83755 0.0
H7277 H 0.32173 0.39219 0.85172 0.0
H7278 H 0.29902 0.38016 0.84724 0.0
H7279 H 0.31534 0.38707 0.8615 0.0
H7280 H 0.30622 0.37171 0.87686 0.0
H7281 H 0.31234 0.3764 0.86666 0.0
H7282 H 0.29237 0.38213 0.85737 0.0
H7283 H 0.28628 0.37717 0.8675 0.0
C7284 C 0.30749 0.38601 0.84273 0.0
C7285 C 0.31397 0.38943 0.8438 0.0
C7286 C 0.30391 0.38287 0.84833 0.0
C7287 C 0.30667 0.38311 0.85519 0.0
C7288 C 0.3131 0.38662 0.85628 0.0
C7289 C 0.31672 0.38969 0.85067 0.0
C7290 C 0.30315 0.37393 0.8726 0.0
C7291 C 0.29578 0.37411 0.87298 0.0
C7292 C 0.30665 0.37668 0.86677 0.0
C7293 C 0.30288 0.37977 0.86119 0.0
C7294 C 0.29547 0.37974 0.8615 0.0
C7295 C 0.29196 0.37691 0.86731 0.0
H7296 H 0.92051 0.86825 0.55249 0.0
H7297 H 0.90765 0.86565 0.57106 0.0
H7298 H 0.91084 0.87423 0.54664 0.0
H7299 H 0.89784 0.87106 0.56503 0.0
H7300 H 0.8831 0.88666 0.55562 0.0
H7301 H 0.89352 0.88176 0.56122 0.0
H7302 H 0.89992 0.87277 0.54131 0.0
H7303 H 0.88965 0.87806 0.53568 0.0
C7304 C 0.91562 0.86893 0.55533 0.0
C7305 C 0.9149 0.86648 0.56228 0.0
C7306 C 0.91003 0.87228 0.55193 0.0
C7307 C 0.90353 0.87319 0.55535 0.0
C7308 C 0.90279 0.87062 0.56225 0.0
C7309 C 0.9084 0.86737 0.56569 0.0
C7310 C 0.88681 0.88371 0.55245 0.0
C7311 C 0.88561 0.8827 0.54525 0.0
C7312 C 0.89274 0.88082 0.55566 0.0
C7313 C 0.89753 0.87674 0.55177 0.0
C7314 C 0.89641 0.87593 0.54448 0.0
C7315 C 0.89052 0.87894 0.54125 0.0
H7316 H 0.88726 0.17087 0.3041 0.0
H7317 H 0.89523 0.15709 0.32035 0.0
H7318 H 0.88203 0.1608 0.29815 0.0
H7319 H 0.8901 0.14704 0.31432 0.0
H7320 H 0.88689 0.13012 0.29775 0.0
H7321 H 0.89181 0.14035 0.30358 0.0
H7322 H 0.8727 0.15194 0.29946 0.0
H7323 H 0.8677 0.14161 0.29367 0.0
C7324 C 0.88786 0.16571 0.30644 0.0
C7325 C 0.8917 0.16482 0.31272 0.0
C7326 C 0.88486 0.15994 0.30301 0.0
C7327 C 0.88566 0.15312 0.30574 0.0
C7328 C 0.88949 0.15221 0.31201 0.0
C7329 C 0.89245 0.15798 0.31546 0.0
C7330 C 0.88368 0.13481 0.29815 0.0
C7331 C 0.87685 0.135 0.29531 0.0
C7332 C 0.88652 0.14069 0.30149 0.0
C7333 C 0.88263 0.14694 0.30204 0.0
C7334 C 0.87586 0.14721 0.29907 0.0
C7335 C 0.87299 0.1413 0.29575 0.0
H7336 H 0.58711 0.13671 0.05436 0.0
H7337 H 0.60113 0.14461 0.07041 0.0
H7338 H 0.59695 0.131 0.04856 0.0
H7339 H 0.61104 0.13935 0.06433 0.0
H7340 H 0.6266 0.12351 0.0562 0.0
H7341 H 0.61634 0.12845 0.06203 0.0
H7342 H 0.60707 0.13305 0.04177 0.0
H7343 H 0.61729 0.12794 0.03596 0.0
C7344 C 0.59229 0.13725 0.05666 0.0
C7345 C 0.59329 0.14111 0.0629 0.0
C7346 C 0.59797 0.13405 0.05326 0.0
C7347 C 0.60482 0.13467 0.05597 0.0
C7348 C 0.60583 0.13863 0.06215 0.0
C7349 C 0.60015 0.14177 0.06558 0.0
C7350 C 0.62235 0.12557 0.053 0.0
C7351 C 0.62276 0.12538 0.04562 0.0
C7352 C 0.61648 0.12844 0.05634 0.0
C7353 C 0.61089 0.13125 0.05239 0.0
C7354 C 0.61123 0.13087 0.045 0.0
C7355 C 0.61709 0.12794 0.04166 0.0
H7356 H 0.62728 0.84096 0.81589 0.0
H7357 H 0.60676 0.8461 0.80764 0.0
H7358 H 0.6323 0.85097 0.80972 0.0
H7359 H 0.61178 0.85598 0.80125 0.0
H7360 H 0.62099 0.87739 0.79706 0.0
H7361 H 0.61621 0.86714 0.80283 0.0
H7362 H 0.6356 0.85589 0.79898 0.0
H7363 H 0.64064 0.86644 0.79374 0.0
C7364 C 0.62386 0.84418 0.81267 0.0
C7365 C 0.61661 0.84276 0.81228 0.0
C7366 C 0.62674 0.84992 0.8091 0.0
C7367 C 0.62247 0.85434 0.80498 0.0
C7368 C 0.61524 0.85282 0.8045 0.0
C7369 C 0.61234 0.84713 0.80814 0.0
C7370 C 0.6243 0.87278 0.79753 0.0
C7371 C 0.63125 0.8728 0.79501 0.0
C7372 C 0.62149 0.86682 0.80075 0.0
C7373 C 0.62548 0.86063 0.80139 0.0
C7374 C 0.63239 0.86058 0.7987 0.0
C7375 C 0.63525 0.86661 0.79558 0.0
H7376 H 0.90517 0.14372 0.93783 0.0
H7377 H 0.91875 0.13827 0.95525 0.0
H7378 H 0.89539 0.13803 0.94371 0.0
H7379 H 0.90916 0.132 0.9608 0.0
H7380 H 0.88862 0.12764 0.97245 0.0
H7381 H 0.89873 0.13321 0.96688 0.0
H7382 H 0.8907 0.12716 0.94644 0.0
H7383 H 0.88042 0.12199 0.95207 0.0
C7384 C 0.90609 0.14131 0.94291 0.0
C7385 C 0.91278 0.14146 0.94604 0.0
C7386 C 0.90049 0.13791 0.94623 0.0
C7387 C 0.90147 0.13445 0.95271 0.0
C7388 C 0.90816 0.13465 0.95586 0.0
C7389 C 0.91371 0.13817 0.9526 0.0
C7390 C 0.8891 0.12745 0.96678 0.0
C7391 C 0.88378 0.12443 0.96267 0.0
C7392 C 0.8949 0.13062 0.96356 0.0
C7393 C 0.89552 0.13072 0.95618 0.0
C7394 C 0.89031 0.12738 0.95212 0.0
C7395 C 0.88447 0.12434 0.95533 0.0
H7396 H 0.61143 0.15684 0.68882 0.0
H7397 H 0.62229 0.17108 0.70284 0.0
H7398 H 0.61644 0.14688 0.69508 0.0
H7399 H 0.62739 0.16108 0.70903 0.0
H7400 H 0.64074 0.14106 0.71329 0.0
H7401 H 0.63578 0.15143 0.70751 0.0
H7402 H 0.61558 0.1411 0.70636 0.0
H7403 H 0.62048 0.13082 0.71214 0.0
C7404 C 0.61482 0.15786 0.69328 0.0
C7405 C 0.61642 0.16479 0.69532 0.0
C7406 C 0.61771 0.15214 0.69687 0.0
C7407 C 0.6223 0.15318 0.70257 0.0
C7408 C 0.62394 0.16009 0.7046 0.0
C7409 C 0.62102 0.16583 0.70103 0.0
C7410 C 0.63522 0.14105 0.71188 0.0
C7411 C 0.63103 0.13508 0.7131 0.0
C7412 C 0.63238 0.14698 0.70856 0.0
C7413 C 0.6253 0.14705 0.7064 0.0
C7414 C 0.62109 0.14116 0.7078 0.0
C7415 C 0.62391 0.13526 0.71112 0.0
H7416 H 0.59095 0.87789 0.44174 0.0
H7417 H 0.59593 0.85734 0.45 0.0
H7418 H 0.60105 0.88283 0.44784 0.0
H7419 H 0.60587 0.86227 0.45635 0.0
H7420 H 0.62728 0.87109 0.4608 0.0
H7421 H 0.61704 0.8665 0.45488 0.0
H7422 H 0.60618 0.88618 0.45838 0.0
H7423 H 0.61674 0.89104 0.4637 0.0
C7424 C 0.59416 0.87444 0.44495 0.0
C7425 C 0.59267 0.86721 0.44535 0.0
C7426 C 0.59995 0.87728 0.44849 0.0
C7427 C 0.60435 0.87297 0.45259 0.0
C7428 C 0.60274 0.86575 0.4531 0.0
C7429 C 0.59701 0.86291 0.44948 0.0
C7430 C 0.62278 0.87452 0.46019 0.0
C7431 C 0.62293 0.88149 0.46266 0.0
C7432 C 0.6168 0.87181 0.45691 0.0
C7433 C 0.6107 0.87592 0.45615 0.0
C7434 C 0.61079 0.88287 0.45875 0.0
C7435 C 0.61683 0.88563 0.46192 0.0
H7436 H 0.88072 0.84178 0.19009 0.0
H7437 H 0.90037 0.84601 0.20067 0.0
H7438 H 0.87528 0.85167 0.19619 0.0
H7439 H 0.89493 0.85599 0.20672 0.0
H7440 H 0.88029 0.86839 0.22164 0.0
H7441 H 0.88533 0.85803 0.21587 0.0
H7442 H 0.87668 0.86491 0.19602 0.0
H7443 H 0.87169 0.87528 0.20179 0.0
C7444 C 0.88387 0.8448 0.19374 0.0
C7445 C 0.89097 0.84311 0.19491 0.0
C7446 C 0.88077 0.85049 0.1972 0.0
C7447 C 0.88468 0.85458 0.20193 0.0
C7448 C 0.89178 0.85288 0.20314 0.0
C7449 C 0.8949 0.84722 0.19963 0.0
C7450 C 0.87941 0.86762 0.21606 0.0
C7451 C 0.87561 0.87259 0.21214 0.0
C7452 C 0.88234 0.86175 0.21275 0.0
C7453 C 0.88141 0.86069 0.2055 0.0
C7454 C 0.87744 0.86558 0.20162 0.0
C7455 C 0.87461 0.87151 0.20491 0.0
H7456 H 0.56484 0.90702 0.85819 0.0
H7457 H 0.5592 0.92003 0.87596 0.0
H7458 H 0.55876 0.89714 0.86349 0.0
H7459 H 0.55263 0.91029 0.881 0.0
H7460 H 0.54764 0.88915 0.89162 0.0
H7461 H 0.55365 0.89938 0.88668 0.0
H7462 H 0.54763 0.89271 0.86577 0.0
H7463 H 0.54193 0.8824 0.87073 0.0
C7464 C 0.5623 0.90779 0.86322 0.0
C7465 C 0.56254 0.91435 0.86663 0.0
C7466 C 0.55869 0.90214 0.86622 0.0
C7467 C 0.55513 0.9029 0.87267 0.0
C7468 C 0.55536 0.90946 0.87608 0.0
C7469 C 0.55904 0.9151 0.87311 0.0
C7470 C 0.54757 0.88994 0.88598 0.0
C7471 C 0.54438 0.88498 0.88154 0.0
C7472 C 0.551 0.8958 0.88313 0.0
C7473 C 0.55122 0.89686 0.87579 0.0
C7474 C 0.54777 0.89199 0.87142 0.0
C7475 C 0.54444 0.8861 0.87425 0.0
H7476 H 0.85088 0.8204 0.61293 0.0
H7477 H 0.83693 0.80445 0.62117 0.0
H7478 H 0.86084 0.8144 0.6182 0.0
H7479 H 0.84684 0.79872 0.62685 0.0
H7480 H 0.86725 0.78616 0.62971 0.0
H7481 H 0.857 0.79191 0.62462 0.0
H7482 H 0.86613 0.81223 0.62922 0.0
H7483 H 0.87641 0.80646 0.63421 0.0
C7484 C 0.84992 0.81561 0.61585 0.0
C7485 C 0.84307 0.81293 0.6166 0.0
C7486 C 0.85564 0.81222 0.61899 0.0
C7487 C 0.85466 0.80609 0.62302 0.0
C7488 C 0.84782 0.80339 0.62374 0.0
C7489 C 0.84211 0.80674 0.62055 0.0
C7490 C 0.86702 0.79186 0.62972 0.0
C7491 C 0.87266 0.79586 0.63231 0.0
C7492 C 0.86114 0.79516 0.6268 0.0
C7493 C 0.86075 0.80255 0.62643 0.0
C7494 C 0.86631 0.80654 0.62924 0.0
C7495 C 0.8722 0.80323 0.63213 0.0
H7496 H 0.94798 0.088 0.37586 0.0
H7497 H 0.9434 0.10057 0.35747 0.0
H7498 H 0.9546 0.09769 0.38085 0.0
H7499 H 0.94942 0.11047 0.36274 0.0
H7500 H 0.96584 0.12547 0.3704 0.0
H7501 H 0.96018 0.11516 0.36538 0.0
H7502 H 0.95393 0.10852 0.38625 0.0
H7503 H 0.96004 0.11866 0.39124 0.0
C7504 C 0.94837 0.09283 0.37286 0.0
C7505 C 0.94515 0.09345 0.36622 0.0
C7506 C 0.95208 0.09846 0.3758 0.0
C7507 C 0.95259 0.10492 0.37223 0.0
C7508 C 0.9493 0.10556 0.36562 0.0
C7509 C 0.9457 0.09989 0.36263 0.0
C7510 C 0.96331 0.12174 0.37389 0.0
C7511 C 0.96337 0.12282 0.38119 0.0
C7512 C 0.95998 0.11586 0.37102 0.0
C7513 C 0.95648 0.11099 0.37537 0.0
C7514 C 0.95665 0.11206 0.38272 0.0
C7515 C 0.96012 0.11788 0.38559 0.0
H7516 H 0.66145 0.18576 0.1232 0.0
H7517 H 0.66666 0.20493 0.11223 0.0
H7518 H 0.65185 0.19172 0.12915 0.0
H7519 H 0.65679 0.21087 0.11786 0.0
H7520 H 0.6415 0.22154 0.13237 0.0
H7521 H 0.65196 0.21572 0.12786 0.0
H7522 H 0.64077 0.1959 0.12764 0.0
H7523 H 0.63066 0.20156 0.13281 0.0
C7524 C 0.66047 0.19124 0.12199 0.0
C7525 C 0.66477 0.19487 0.11722 0.0
C7526 C 0.65493 0.19467 0.12538 0.0
C7527 C 0.65344 0.2018 0.12397 0.0
C7528 C 0.65781 0.20543 0.1192 0.0
C7529 C 0.66344 0.20202 0.11592 0.0
C7530 C 0.64134 0.21591 0.13153 0.0
C7531 C 0.63518 0.21205 0.13289 0.0
C7532 C 0.64732 0.21258 0.12881 0.0
C7533 C 0.64725 0.20532 0.12728 0.0
C7534 C 0.64113 0.20146 0.12881 0.0
C7535 C 0.63523 0.20475 0.13166 0.0
H7536 H 0.55496 0.08717 0.63573 0.0
H7537 H 0.56974 0.10141 0.64552 0.0
H7538 H 0.5492 0.09707 0.63003 0.0
H7539 H 0.56368 0.11133 0.64024 0.0
H7540 H 0.55624 0.12725 0.62443 0.0
H7541 H 0.56205 0.11699 0.62937 0.0
H7542 H 0.54186 0.10686 0.63202 0.0
H7543 H 0.53608 0.11711 0.62693 0.0
C7544 C 0.55698 0.09241 0.63669 0.0
C7545 C 0.56286 0.09346 0.64107 0.0
C7546 C 0.55361 0.09811 0.63349 0.0
C7547 C 0.55597 0.10502 0.63464 0.0
C7548 C 0.56177 0.10608 0.63911 0.0
C7549 C 0.56519 0.10038 0.64225 0.0
C7550 C 0.55305 0.12283 0.62606 0.0
C7551 C 0.5457 0.12301 0.62533 0.0
C7552 C 0.55637 0.11695 0.62893 0.0
C7553 C 0.55243 0.11111 0.6312 0.0
C7554 C 0.54508 0.11122 0.63028 0.0
C7555 C 0.54176 0.11709 0.62735 0.0
H7556 H 0.65943 0.807 0.39959 0.0
H7557 H 0.66555 0.81637 0.37982 0.0
H7558 H 0.64992 0.8007 0.39363 0.0
H7559 H 0.65619 0.80996 0.37385 0.0
H7560 H 0.63285 0.80445 0.36858 0.0
H7561 H 0.64315 0.81024 0.37369 0.0
H7562 H 0.64836 0.79108 0.38477 0.0
H7563 H 0.63803 0.78533 0.37961 0.0
C7564 C 0.65873 0.80772 0.39399 0.0
C7565 C 0.66323 0.81217 0.39018 0.0
C7566 C 0.65336 0.80406 0.39056 0.0
C7567 C 0.65235 0.80481 0.38326 0.0
C7568 C 0.65682 0.80929 0.37947 0.0
C7569 C 0.66221 0.81292 0.38289 0.0
C7570 C 0.63633 0.80146 0.37196 0.0
C7571 C 0.63478 0.79445 0.37365 0.0
C7572 C 0.64219 0.80475 0.3749 0.0
C7573 C 0.64652 0.80111 0.37966 0.0
C7574 C 0.64506 0.79402 0.38117 0.0
C7575 C 0.63924 0.79071 0.37816 0.0
H7576 H 0.93733 0.90681 0.14451 0.0
H7577 H 0.9531 0.92087 0.13606 0.0
H7578 H 0.94358 0.89683 0.13949 0.0
H7579 H 0.95918 0.91086 0.13084 0.0
H7580 H 0.96323 0.89107 0.11668 0.0
H7581 H 0.95735 0.90144 0.12151 0.0
H7582 H 0.95513 0.89088 0.14149 0.0
H7583 H 0.96122 0.88069 0.13683 0.0
C7584 C 0.94215 0.90779 0.14164 0.0
C7585 C 0.9447 0.91468 0.14075 0.0
C7586 C 0.94571 0.90206 0.13872 0.0
C7587 C 0.95187 0.90307 0.13477 0.0
C7588 C 0.9544 0.90993 0.13379 0.0
C7589 C 0.95088 0.91567 0.13678 0.0
C7590 C 0.96159 0.89099 0.12213 0.0
C7591 C 0.96264 0.88497 0.12632 0.0
C7592 C 0.95819 0.89693 0.12489 0.0
C7593 C 0.9557 0.89693 0.13185 0.0
C7594 C 0.95685 0.89098 0.13606 0.0
C7595 C 0.96032 0.88511 0.13335 0.0
H7596 H 0.84066 0.20539 0.89508 0.0
H7597 H 0.84609 0.18612 0.88439 0.0
H7598 H 0.85056 0.21131 0.88948 0.0
H7599 H 0.85577 0.19205 0.87852 0.0
H7600 H 0.87718 0.20202 0.87569 0.0
H7601 H 0.86688 0.19634 0.88053 0.0
H7602 H 0.85545 0.21598 0.87924 0.0
H7603 H 0.86601 0.22179 0.87491 0.0
C7604 C 0.84393 0.20245 0.89146 0.0
C7605 C 0.84266 0.19528 0.89023 0.0
C7606 C 0.84959 0.20585 0.8882 0.0
C7607 C 0.85403 0.20218 0.88355 0.0
C7608 C 0.8526 0.19503 0.88219 0.0
C7609 C 0.84703 0.19162 0.88554 0.0
C7610 C 0.87249 0.20515 0.8765 0.0
C7611 C 0.87247 0.21239 0.87501 0.0
C7612 C 0.86651 0.20186 0.87918 0.0
C7613 C 0.86028 0.20568 0.88033 0.0
C7614 C 0.86017 0.21287 0.87857 0.0
C7615 C 0.8662 0.2162 0.87597 0.0
H7616 H 0.87752 0.56844 0.91564 0.0
H7617 H 0.8587 0.556 0.913 0.0
H7618 H 0.88299 0.56226 0.90579 0.0
H7619 H 0.86418 0.54984 0.9031 0.0
H7620 H 0.87948 0.53568 0.89052 0.0
H7621 H 0.87465 0.54146 0.901 0.0
H7622 H 0.88063 0.56169 0.89256 0.0
H7623 H 0.88536 0.55591 0.88207 0.0
C7624 C 0.87457 0.56436 0.91298 0.0
C7625 C 0.86768 0.56271 0.91509 0.0
C7626 C 0.87769 0.56086 0.90732 0.0
C7627 C 0.87401 0.55557 0.9037 0.0
C7628 C 0.86715 0.55386 0.90585 0.0
C7629 C 0.864 0.55742 0.91146 0.0
C7630 C 0.87982 0.54135 0.89097 0.0
C7631 C 0.88277 0.54537 0.88552 0.0
C7632 C 0.87702 0.54465 0.89692 0.0
C7633 C 0.87725 0.55202 0.89757 0.0
C7634 C 0.88042 0.556 0.89221 0.0
C7635 C 0.8831 0.55271 0.88622 0.0
H7636 H 0.35803 0.94371 0.10061 0.0
H7637 H 0.37638 0.9482 0.08797 0.0
H7638 H 0.36332 0.94982 0.11046 0.0
H7639 H 0.38143 0.95482 0.09766 0.0
H7640 H 0.3917 0.96009 0.1189 0.0
H7641 H 0.38678 0.95399 0.1087 0.0
H7642 H 0.36595 0.96089 0.11475 0.0
H7643 H 0.37088 0.96664 0.12505 0.0
C7644 C 0.36319 0.94601 0.09991 0.0
C7645 C 0.36675 0.94543 0.09346 0.0
C7646 C 0.36619 0.94964 0.10555 0.0
C7647 C 0.37281 0.9529 0.10488 0.0
C7648 C 0.37637 0.95234 0.09843 0.0
C7649 C 0.37341 0.94862 0.09281 0.0
C7650 C 0.38608 0.96033 0.11797 0.0
C7651 C 0.38166 0.96378 0.12276 0.0
C7652 C 0.38325 0.95686 0.11213 0.0
C7653 C 0.37593 0.95686 0.1109 0.0
C7654 C 0.37157 0.96058 0.11559 0.0
C7655 C 0.37439 0.96394 0.12147 0.0
H7656 H 0.80662 0.60716 0.8487 0.0
H7657 H 0.81688 0.62675 0.84348 0.0
H7658 H 0.80053 0.61299 0.85845 0.0
H7659 H 0.81074 0.63257 0.85312 0.0
H7660 H 0.80531 0.63704 0.8766 0.0
H7661 H 0.81106 0.63171 0.86639 0.0
H7662 H 0.79125 0.62265 0.85995 0.0
H7663 H 0.78549 0.62806 0.87015 0.0
C7664 C 0.80759 0.61269 0.84966 0.0
C7665 C 0.81222 0.6165 0.84535 0.0
C7666 C 0.80406 0.61604 0.85517 0.0
C7667 C 0.80516 0.62323 0.85649 0.0
C7668 C 0.80983 0.62702 0.85222 0.0
C7669 C 0.8133 0.62369 0.84669 0.0
C7670 C 0.8022 0.63398 0.87293 0.0
C7671 C 0.79499 0.63295 0.87409 0.0
C7672 C 0.80546 0.63095 0.86711 0.0
C7673 C 0.80159 0.62675 0.86243 0.0
C7674 C 0.79435 0.62582 0.86353 0.0
C7675 C 0.79105 0.62895 0.8693 0.0
H7676 H 0.13063 0.06624 0.59082 0.0
H7677 H 0.15112 0.05811 0.59626 0.0
H7678 H 0.12551 0.06012 0.60082 0.0
H7679 H 0.14601 0.0518 0.60614 0.0
H7680 H 0.13664 0.04765 0.62744 0.0
H7681 H 0.14144 0.05351 0.61724 0.0
H7682 H 0.12225 0.04933 0.60577 0.0
H7683 H 0.11718 0.04397 0.61626 0.0
C7684 C 0.13403 0.06306 0.59411 0.0
C7685 C 0.14129 0.06269 0.59276 0.0
C7686 C 0.13109 0.05952 0.59984 0.0
C7687 C 0.13533 0.05546 0.60434 0.0
C7688 C 0.14258 0.055 0.60291 0.0
C7689 C 0.14553 0.05861 0.59722 0.0
C7690 C 0.13337 0.04808 0.62279 0.0
C7691 C 0.12647 0.04541 0.62273 0.0
C7692 C 0.13619 0.05133 0.61686 0.0
C7693 C 0.13227 0.05189 0.61062 0.0
C7694 C 0.1254 0.0491 0.6105 0.0
C7695 C 0.12253 0.04592 0.61649 0.0
H7696 H 0.20253 0.88588 0.83687 0.0
H7697 H 0.188 0.89618 0.85101 0.0
H7698 H 0.20863 0.88073 0.8469 0.0
H7699 H 0.19415 0.89111 0.86101 0.0
H7700 H 0.21109 0.88717 0.87728 0.0
H7701 H 0.20529 0.89211 0.86702 0.0
H7702 H 0.20707 0.87212 0.85635 0.0
H7703 H 0.21287 0.86713 0.86669 0.0
C7704 C 0.2006 0.88702 0.84211 0.0
C7705 C 0.19477 0.89148 0.84311 0.0
C7706 C 0.2041 0.88406 0.84786 0.0
C7707 C 0.20189 0.88552 0.85475 0.0
C7708 C 0.19607 0.88997 0.85576 0.0
C7709 C 0.19255 0.8929 0.85002 0.0
C7710 C 0.21019 0.8838 0.87277 0.0
C7711 C 0.21237 0.87673 0.87284 0.0
C7712 C 0.20687 0.88664 0.86689 0.0
C7713 C 0.20565 0.8825 0.8609 0.0
C7714 C 0.20798 0.87547 0.86087 0.0
C7715 C 0.2113 0.87261 0.86679 0.0
H7716 H 0.63034 0.441 0.41669 0.0
H7717 H 0.65036 0.45042 0.41156 0.0
H7718 H 0.62489 0.4472 0.40687 0.0
H7719 H 0.64491 0.45655 0.40164 0.0
H7720 H 0.63073 0.47192 0.38926 0.0
H7721 H 0.6358 0.46615 0.39962 0.0
H7722 H 0.62575 0.44667 0.39364 0.0
H7723 H 0.62077 0.45244 0.38326 0.0
C7724 C 0.63357 0.44443 0.41349 0.0
C7725 C 0.64078 0.44523 0.41492 0.0
C7726 C 0.63046 0.44793 0.40783 0.0
C7727 C 0.63447 0.45236 0.4035 0.0
C7728 C 0.64168 0.45321 0.40494 0.0
C7729 C 0.64481 0.44965 0.41057 0.0
C7730 C 0.62956 0.46644 0.39024 0.0
C7731 C 0.62536 0.46261 0.38553 0.0
C7732 C 0.6325 0.46312 0.39611 0.0
C7733 C 0.63118 0.45596 0.39742 0.0
C7734 C 0.62681 0.4522 0.39279 0.0
C7735 C 0.62397 0.45549 0.38686 0.0
H7736 H 0.80671 0.3992 0.66239 0.0
H7737 H 0.81766 0.37974 0.66663 0.0
H7738 H 0.80043 0.39353 0.6527 0.0
H7739 H 0.8113 0.37406 0.65704 0.0
H7740 H 0.80532 0.37034 0.63344 0.0
H7741 H 0.81113 0.37514 0.64388 0.0
H7742 H 0.79137 0.38397 0.65079 0.0
H7743 H 0.78557 0.37907 0.64035 0.0
C7744 C 0.80778 0.39372 0.66125 0.0
C7745 C 0.81268 0.38993 0.66528 0.0
C7746 C 0.80413 0.39046 0.65576 0.0
C7747 C 0.80536 0.38335 0.65414 0.0
C7748 C 0.81027 0.37956 0.65815 0.0
C7749 C 0.81386 0.3828 0.66368 0.0
C7750 C 0.80222 0.37319 0.63729 0.0
C7751 C 0.79501 0.3743 0.63618 0.0
C7752 C 0.80553 0.37593 0.64324 0.0
C7753 C 0.80171 0.37996 0.64813 0.0
C7754 C 0.79445 0.38093 0.64708 0.0
C7755 C 0.79112 0.37808 0.64117 0.0
H7756 H 0.69189 0.62728 0.16668 0.0
H7757 H 0.70068 0.6069 0.16184 0.0
H7758 H 0.69793 0.63232 0.1566 0.0
H7759 H 0.70691 0.61195 0.15187 0.0
H7760 H 0.71095 0.62106 0.13037 0.0
H7761 H 0.70517 0.61626 0.14062 0.0
H7762 H 0.70874 0.63576 0.15178 0.0
H7763 H 0.71404 0.64079 0.14124 0.0
C7764 C 0.69519 0.62389 0.16351 0.0
C7765 C 0.69578 0.61668 0.16505 0.0
C7766 C 0.69869 0.62679 0.15773 0.0
C7767 C 0.70293 0.62256 0.15338 0.0
C7768 C 0.70359 0.61536 0.15499 0.0
C7769 C 0.70003 0.61245 0.16073 0.0
C7770 C 0.71041 0.62438 0.13496 0.0
C7771 C 0.71289 0.63136 0.13492 0.0
C7772 C 0.7072 0.62157 0.14092 0.0
C7773 C 0.70648 0.62559 0.14708 0.0
C7774 C 0.7091 0.63253 0.1471 0.0
C7775 C 0.71224 0.63539 0.14109 0.0
H7776 H 0.59693 0.65044 0.94827 0.0
H7777 H 0.59125 0.62959 0.94129 0.0
H7778 H 0.60667 0.64556 0.95496 0.0
H7779 H 0.60113 0.62469 0.94777 0.0
H7780 H 0.61632 0.61694 0.96434 0.0
H7781 H 0.60596 0.62189 0.95868 0.0
H7782 H 0.6177 0.64077 0.95384 0.0
H7783 H 0.62775 0.63611 0.96003 0.0
C7784 C 0.59782 0.64481 0.9481 0.0
C7785 C 0.59333 0.64041 0.94423 0.0
C7786 C 0.60343 0.64199 0.95193 0.0
C7787 C 0.60476 0.6347 0.95191 0.0
C7788 C 0.60023 0.6303 0.94805 0.0
C7789 C 0.59457 0.63312 0.94429 0.0
C7790 C 0.61664 0.6222 0.9622 0.0
C7791 C 0.62292 0.62608 0.96262 0.0
C7792 C 0.61072 0.62501 0.95883 0.0
C7793 C 0.61095 0.63175 0.95573 0.0
C7794 C 0.61723 0.63563 0.95623 0.0
C7795 C 0.62308 0.63288 0.95969 0.0
H7796 H 0.60987 0.35014 0.19321 0.0
H7797 H 0.62889 0.33804 0.19613 0.0
H7798 H 0.61498 0.35977 0.19982 0.0
H7799 H 0.63383 0.3475 0.20319 0.0
H7800 H 0.64316 0.36921 0.20922 0.0
H7801 H 0.63858 0.359 0.20282 0.0
H7802 H 0.61785 0.36316 0.21123 0.0
H7803 H 0.6224 0.37348 0.21728 0.0
C7804 C 0.61515 0.34952 0.19526 0.0
C7805 C 0.61895 0.34329 0.19411 0.0
C7806 C 0.61805 0.35502 0.19917 0.0
C7807 C 0.62481 0.35442 0.20214 0.0
C7808 C 0.62864 0.34819 0.20097 0.0
C7809 C 0.62575 0.34271 0.19698 0.0
C7810 C 0.63765 0.36783 0.20975 0.0
C7811 C 0.63311 0.3721 0.2137 0.0
C7812 C 0.63502 0.362 0.2061 0.0
C7813 C 0.6278 0.36029 0.2064 0.0
C7814 C 0.62338 0.36441 0.21067 0.0
C7815 C 0.62599 0.37027 0.21422 0.0
H7816 H 0.90675 0.36621 0.43593 0.0
H7817 H 0.92057 0.37108 0.45331 0.0
H7818 H 0.89694 0.37128 0.44231 0.0
H7819 H 0.91085 0.37664 0.45948 0.0
H7820 H 0.89019 0.37937 0.4717 0.0
H7821 H 0.90039 0.37448 0.46564 0.0
H7822 H 0.89214 0.382 0.44582 0.0
H7823 H 0.88188 0.38665 0.45188 0.0
C7824 C 0.90771 0.36835 0.44111 0.0
C7825 C 0.91448 0.36821 0.44409 0.0
C7826 C 0.90209 0.37139 0.44474 0.0
C7827 C 0.90308 0.37445 0.45141 0.0
C7828 C 0.90985 0.37429 0.45439 0.0
C7829 C 0.91546 0.37118 0.4508 0.0
C7830 C 0.89062 0.38004 0.46606 0.0
C7831 C 0.88523 0.38333 0.46225 0.0
C7832 C 0.89647 0.37724 0.46258 0.0
C7833 C 0.89707 0.37775 0.45521 0.0
C7834 C 0.89178 0.38132 0.45146 0.0
C7835 C 0.88591 0.38404 0.45493 0.0
H7836 H 0.87968 0.66762 0.69164 0.0
H7837 H 0.9007 0.66107 0.6972 0.0
H7838 H 0.87485 0.65765 0.69806 0.0
H7839 H 0.89591 0.65121 0.70378 0.0
H7840 H 0.88612 0.63016 0.70823 0.0
H7841 H 0.89064 0.64036 0.70216 0.0
H7842 H 0.8727 0.65249 0.7091 0.0
H7843 H 0.86786 0.64203 0.71474 0.0
C7844 C 0.88327 0.66409 0.69431 0.0
C7845 C 0.89058 0.66511 0.69387 0.0
C7846 C 0.8805 0.65838 0.69802 0.0
C7847 C 0.88498 0.65357 0.70143 0.0
C7848 C 0.89229 0.65469 0.70109 0.0
C7849 C 0.89505 0.66036 0.69732 0.0
C7850 C 0.88306 0.63496 0.70838 0.0
C7851 C 0.87656 0.63522 0.71191 0.0
C7852 C 0.88573 0.64088 0.70499 0.0
C7853 C 0.88207 0.6473 0.70514 0.0
C7854 C 0.87563 0.64762 0.70878 0.0
C7855 C 0.8729 0.64164 0.71211 0.0
H7856 H 0.60086 0.36699 0.57271 0.0
H7857 H 0.58748 0.37015 0.55459 0.0
H7858 H 0.61067 0.37205 0.56633 0.0
H7859 H 0.59714 0.37576 0.54843 0.0
H7860 H 0.6178 0.37863 0.53653 0.0
H7861 H 0.60771 0.37372 0.54269 0.0
H7862 H 0.61543 0.38251 0.56222 0.0
H7863 H 0.62565 0.38714 0.55605 0.0
C7864 C 0.59999 0.36876 0.56737 0.0
C7865 C 0.59335 0.36813 0.56419 0.0
C7866 C 0.60561 0.3718 0.56374 0.0
C7867 C 0.60473 0.37439 0.55685 0.0
C7868 C 0.59808 0.37376 0.55368 0.0
C7869 C 0.59248 0.37063 0.55727 0.0
C7870 C 0.61727 0.37958 0.54212 0.0
C7871 C 0.62251 0.38324 0.54582 0.0
C7872 C 0.61148 0.37677 0.54567 0.0
C7873 C 0.61074 0.37765 0.553 0.0
C7874 C 0.61589 0.38154 0.55663 0.0
C7875 C 0.62172 0.38426 0.55309 0.0
H7876 H 0.89511 0.34216 0.80452 0.0
H7877 H 0.88155 0.34558 0.8224 0.0
H7878 H 0.88925 0.35167 0.79824 0.0
H7879 H 0.87553 0.35493 0.81608 0.0
H7880 H 0.87241 0.37663 0.80634 0.0
H7881 H 0.87715 0.36645 0.81237 0.0
H7882 H 0.87901 0.35554 0.79249 0.0
H7883 H 0.87465 0.36599 0.78641 0.0
C7884 C 0.89082 0.34489 0.80707 0.0
C7885 C 0.88884 0.34316 0.81398 0.0
C7886 C 0.88742 0.35032 0.80346 0.0
C7887 C 0.8819 0.35411 0.80663 0.0
C7888 C 0.87984 0.35226 0.8135 0.0
C7889 C 0.88329 0.34688 0.81714 0.0
C7890 C 0.87382 0.37205 0.80326 0.0
C7891 C 0.87324 0.37215 0.79589 0.0
C7892 C 0.87647 0.36616 0.80673 0.0
C7893 C 0.87853 0.36015 0.80293 0.0
C7894 C 0.87761 0.36012 0.79558 0.0
C7895 C 0.87501 0.36606 0.79209 0.0
H7896 H 0.91155 0.63244 0.07246 0.0
H7897 H 0.91544 0.64591 0.05461 0.0
H7898 H 0.90202 0.62674 0.06613 0.0
H7899 H 0.9057 0.64044 0.04833 0.0
H7900 H 0.89102 0.62621 0.03643 0.0
H7901 H 0.90139 0.63063 0.04249 0.0
H7902 H 0.89067 0.62828 0.06242 0.0
H7903 H 0.88064 0.62328 0.05644 0.0
C7904 C 0.9103 0.63424 0.0672 0.0
C7905 C 0.91422 0.63965 0.06405 0.0
C7906 C 0.90481 0.63099 0.06356 0.0
C7907 C 0.90301 0.63313 0.0567 0.0
C7908 C 0.90698 0.63853 0.05354 0.0
C7909 C 0.91255 0.64171 0.05715 0.0
C7910 C 0.89095 0.62648 0.04212 0.0
C7911 C 0.88494 0.62444 0.04592 0.0
C7912 C 0.89686 0.62914 0.0456 0.0
C7913 C 0.89689 0.62991 0.05297 0.0
C7914 C 0.89094 0.62771 0.05676 0.0
C7915 C 0.88509 0.62494 0.0533 0.0
H7916 H 0.62864 0.66587 0.31839 0.0
H7917 H 0.60863 0.66142 0.30859 0.0
H7918 H 0.634 0.6562 0.31185 0.0
H7919 H 0.61401 0.65169 0.30208 0.0
H7920 H 0.62826 0.63963 0.28644 0.0
H7921 H 0.62336 0.64993 0.29248 0.0
H7922 H 0.6327 0.64291 0.31196 0.0
H7923 H 0.63753 0.63262 0.30594 0.0
C7924 C 0.6254 0.66285 0.31481 0.0
C7925 C 0.61821 0.6644 0.314 0.0
C7926 C 0.62846 0.65729 0.3111 0.0
C7927 C 0.62442 0.65321 0.30645 0.0
C7928 C 0.61725 0.65479 0.30559 0.0
C7929 C 0.61417 0.66031 0.30936 0.0
C7930 C 0.62933 0.64037 0.29199 0.0
C7931 C 0.63326 0.63537 0.29574 0.0
C7932 C 0.62648 0.64621 0.29545 0.0
C7933 C 0.62764 0.64719 0.30269 0.0
C7934 C 0.63177 0.6423 0.30637 0.0
C7935 C 0.63451 0.63642 0.30294 0.0
H7936 H 0.94629 0.59823 0.64991 0.0
H7937 H 0.94275 0.58982 0.62909 0.0
H7938 H 0.95277 0.60808 0.64481 0.0
H7939 H 0.9494 0.59954 0.62403 0.0
H7940 H 0.95431 0.62265 0.61773 0.0
H7941 H 0.94808 0.61242 0.62249 0.0
H7942 H 0.96402 0.61026 0.63856 0.0
H7943 H 0.97023 0.62047 0.63373 0.0
C7944 C 0.94688 0.59848 0.64425 0.0
C7945 C 0.944 0.59323 0.63992 0.0
C7946 C 0.95066 0.60408 0.64133 0.0
C7947 C 0.95161 0.60457 0.63402 0.0
C7948 C 0.94871 0.59934 0.62968 0.0
C7949 C 0.94497 0.59373 0.63259 0.0
C7950 C 0.9565 0.6199 0.62222 0.0
C7951 C 0.96274 0.62225 0.62536 0.0
C7952 C 0.95296 0.61406 0.62494 0.0
C7953 C 0.95555 0.61055 0.63092 0.0
C7954 C 0.96186 0.61289 0.634 0.0
C7955 C 0.96545 0.61867 0.63121 0.0
H7956 H 0.66071 0.6984 0.90051 0.0
H7957 H 0.6665 0.69167 0.87961 0.0
H7958 H 0.65096 0.70511 0.89567 0.0
H7959 H 0.65662 0.69819 0.87474 0.0
H7960 H 0.64141 0.71495 0.86727 0.0
H7961 H 0.6518 0.70926 0.87217 0.0
H7962 H 0.63993 0.7037 0.89076 0.0
H7963 H 0.62981 0.70985 0.88614 0.0
C7964 C 0.65985 0.6983 0.89488 0.0
C7965 C 0.66437 0.69448 0.89046 0.0
C7966 C 0.65424 0.70213 0.89209 0.0
C7967 C 0.65294 0.70218 0.88479 0.0
C7968 C 0.65751 0.6984 0.88036 0.0
C7969 C 0.66316 0.69462 0.88316 0.0
C7970 C 0.64107 0.71263 0.87246 0.0
C7971 C 0.63474 0.71282 0.87628 0.0
C7972 C 0.647 0.70926 0.87523 0.0
C7973 C 0.64673 0.70598 0.88187 0.0
C7974 C 0.64041 0.70625 0.88569 0.0
C7975 C 0.63454 0.70968 0.88297 0.0
H7976 H 0.5661 0.41537 0.12895 0.0
H7977 H 0.56101 0.40737 0.14961 0.0
H7978 H 0.55934 0.4059 0.12359 0.0
H7979 H 0.55439 0.39775 0.14421 0.0
H7980 H 0.53709 0.38607 0.13214 0.0
H7981 H 0.5434 0.39609 0.13725 0.0
H7982 H 0.56026 0.39298 0.12232 0.0
H7983 H 0.55392 0.38296 0.11728 0.0
C7984 C 0.56353 0.41159 0.13235 0.0
C7985 C 0.56407 0.41213 0.13971 0.0
C7986 C 0.55971 0.40614 0.12927 0.0
C7987 C 0.55633 0.40111 0.13348 0.0
C7988 C 0.55688 0.40161 0.14084 0.0
C7989 C 0.56074 0.40706 0.14393 0.0
C7990 C 0.54209 0.38764 0.12992 0.0
C7991 C 0.54504 0.38386 0.12432 0.0
C7992 C 0.54573 0.3933 0.13286 0.0
C7993 C 0.55233 0.39529 0.1302 0.0
C7994 C 0.55516 0.3916 0.12444 0.0
C7995 C 0.55156 0.38589 0.12156 0.0
H7996 H 0.85108 0.32248 0.39112 0.0
H7997 H 0.83752 0.30464 0.38728 0.0
H7998 H 0.86084 0.31617 0.38593 0.0
H7999 H 0.84712 0.29857 0.3815 0.0
H8000 H 0.86766 0.28654 0.37802 0.0
H8001 H 0.85754 0.29259 0.38308 0.0
H8002 H 0.86574 0.31245 0.37553 0.0
H8003 H 0.876 0.30638 0.37087 0.0
C8004 C 0.85015 0.31721 0.38917 0.0
C8005 C 0.84347 0.3141 0.38966 0.0
C8006 C 0.85575 0.31362 0.38604 0.0
C8007 C 0.85481 0.30685 0.38319 0.0
C8008 C 0.84812 0.30373 0.38368 0.0
C8009 C 0.84255 0.30728 0.38692 0.0
C8010 C 0.86722 0.29219 0.3774 0.0
C8011 C 0.8726 0.29601 0.37409 0.0
C8012 C 0.86142 0.29568 0.38028 0.0
C8013 C 0.86081 0.30305 0.37981 0.0
C8014 C 0.86608 0.3068 0.37621 0.0
C8015 C 0.87194 0.30333 0.37345 0.0
H8016 H 0.94626 0.41001 0.85771 0.0
H8017 H 0.94233 0.41766 0.87871 0.0
H8018 H 0.95297 0.40026 0.86249 0.0
H8019 H 0.94874 0.40772 0.88358 0.0
H8020 H 0.96487 0.39182 0.89063 0.0
H8021 H 0.95928 0.40218 0.88566 0.0
H8022 H 0.95209 0.38974 0.86801 0.0
H8023 H 0.95836 0.37972 0.8725 0.0
C8024 C 0.94676 0.40955 0.86336 0.0
C8025 C 0.94374 0.41459 0.86782 0.0
C8026 C 0.95059 0.40392 0.86613 0.0
C8027 C 0.95139 0.4031 0.87346 0.0
C8028 C 0.94838 0.4082 0.87792 0.0
C8029 C 0.94465 0.41389 0.87513 0.0
C8030 C 0.96224 0.39133 0.88561 0.0
C8031 C 0.96206 0.38485 0.88203 0.0
C8032 C 0.9589 0.39727 0.88281 0.0
C8033 C 0.95517 0.39686 0.87641 0.0
C8034 C 0.955 0.39038 0.87286 0.0
C8035 C 0.95849 0.38452 0.87556 0.0
H8036 H 0.83752 0.70231 0.12193 0.0
H8037 H 0.85173 0.68588 0.11522 0.0
H8038 H 0.84725 0.70849 0.12743 0.0
H8039 H 0.86154 0.69231 0.12027 0.0
H8040 H 0.87684 0.70154 0.13577 0.0
H8041 H 0.86669 0.69534 0.13106 0.0
H8042 H 0.85736 0.71521 0.12508 0.0
H8043 H 0.86747 0.7214 0.12994 0.0
C8044 C 0.84272 0.7 0.12161 0.0
C8045 C 0.8438 0.69355 0.11814 0.0
C8046 C 0.84833 0.70362 0.12469 0.0
C8047 C 0.85521 0.70091 0.12433 0.0
C8048 C 0.85631 0.69451 0.12078 0.0
C8049 C 0.85068 0.69086 0.11776 0.0
C8050 C 0.87261 0.70458 0.13346 0.0
C8051 C 0.87297 0.71196 0.13319 0.0
C8052 C 0.8668 0.70102 0.13072 0.0
C8053 C 0.86122 0.70475 0.1276 0.0
C8054 C 0.8615 0.71215 0.12751 0.0
C8055 C 0.8673 0.71571 0.1303 0.0
H8056 H 0.56126 0.59796 0.35788 0.0
H8057 H 0.56528 0.5902 0.37884 0.0
H8058 H 0.55471 0.60778 0.36274 0.0
H8059 H 0.55898 0.60019 0.38378 0.0
H8060 H 0.54259 0.61609 0.39069 0.0
H8061 H 0.54832 0.60575 0.3858 0.0
H8062 H 0.55592 0.61828 0.36839 0.0
H8063 H 0.54959 0.6283 0.37281 0.0
C8064 C 0.56081 0.59841 0.36354 0.0
C8065 C 0.56381 0.59332 0.36796 0.0
C8066 C 0.55708 0.60407 0.36636 0.0
C8067 C 0.55634 0.60487 0.37369 0.0
C8068 C 0.55931 0.59973 0.37811 0.0
C8069 C 0.56296 0.594 0.37528 0.0
C8070 C 0.54537 0.61661 0.38574 0.0
C8071 C 0.54563 0.6231 0.3822 0.0
C8072 C 0.54877 0.61069 0.38299 0.0
C8073 C 0.55262 0.61112 0.37667 0.0
C8074 C 0.55291 0.61764 0.37318 0.0
C8075 C 0.54939 0.62349 0.37583 0.0
H8076 H 0.65715 0.31606 0.60952 0.0
H8077 H 0.67008 0.31053 0.62739 0.0
H8078 H 0.64742 0.30958 0.61456 0.0
H8079 H 0.66053 0.30351 0.63214 0.0
H8080 H 0.63955 0.29747 0.64242 0.0
H8081 H 0.64968 0.30382 0.63771 0.0
H8082 H 0.64305 0.2985 0.61658 0.0
H8083 H 0.63277 0.29256 0.62135 0.0
C8084 C 0.65795 0.31345 0.61452 0.0
C8085 C 0.66444 0.31386 0.61803 0.0
C8086 C 0.65237 0.3096 0.61737 0.0
C8087 C 0.65316 0.30593 0.62375 0.0
C8088 C 0.65967 0.30631 0.62726 0.0
C8089 C 0.66521 0.31026 0.62446 0.0
C8090 C 0.64034 0.29762 0.63678 0.0
C8091 C 0.63541 0.29456 0.63224 0.0
C8092 C 0.64615 0.30124 0.63406 0.0
C8093 C 0.64719 0.30177 0.62673 0.0
C8094 C 0.64236 0.29841 0.62223 0.0
C8095 C 0.6365 0.29493 0.62495 0.0
H8096 H 0.62907 0.94176 0.59113 0.0
H8097 H 0.65003 0.94794 0.59727 0.0
H8098 H 0.62421 0.94829 0.601 0.0
H8099 H 0.64521 0.95476 0.60694 0.0
H8100 H 0.63574 0.96001 0.6279 0.0
H8101 H 0.64034 0.95385 0.61783 0.0
H8102 H 0.62155 0.95901 0.60607 0.0
H8103 H 0.61661 0.96458 0.61648 0.0
C8104 C 0.63263 0.9446 0.59455 0.0
C8105 C 0.63994 0.94429 0.59345 0.0
C8106 C 0.62984 0.9484 0.6002 0.0
C8107 C 0.63429 0.95207 0.60485 0.0
C8108 C 0.6416 0.95186 0.60363 0.0
C8109 C 0.64438 0.94798 0.59805 0.0
C8110 C 0.6325 0.95973 0.62322 0.0
C8111 C 0.62573 0.9627 0.62308 0.0
C8112 C 0.63523 0.9563 0.61734 0.0
C8113 C 0.63136 0.9559 0.61106 0.0
C8114 C 0.62466 0.95907 0.61083 0.0
C8115 C 0.62186 0.96239 0.61679 0.0
H8116 H 0.14862 0.56278 0.40888 0.0
H8117 H 0.12821 0.56433 0.41876 0.0
H8118 H 0.14343 0.55621 0.39922 0.0
H8119 H 0.1231 0.55737 0.40932 0.0
H8120 H 0.11516 0.55133 0.38713 0.0
H8121 H 0.11983 0.55773 0.39729 0.0
H8122 H 0.13876 0.54513 0.39638 0.0
H8123 H 0.13415 0.53902 0.38607 0.0
C8124 C 0.14302 0.56172 0.409 0.0
C8125 C 0.13885 0.5641 0.41462 0.0
C8126 C 0.14006 0.55784 0.40351 0.0
C8127 C 0.13284 0.55618 0.4035 0.0
C8128 C 0.12866 0.55859 0.4091 0.0
C8129 C 0.13162 0.56251 0.41458 0.0
C8130 C 0.12025 0.54988 0.38922 0.0
C8131 C 0.12429 0.54468 0.38592 0.0
C8132 C 0.12295 0.55353 0.39503 0.0
C8133 C 0.12972 0.552 0.39763 0.0
C8134 C 0.13361 0.54657 0.39444 0.0
C8135 C 0.13095 0.543 0.3886 0.0
H8136 H 0.70356 0.8885 0.67024 0.0
H8137 H 0.68505 0.89045 0.65718 0.0
H8138 H 0.70971 0.88272 0.66067 0.0
H8139 H 0.69138 0.88525 0.64743 0.0
H8140 H 0.70163 0.87007 0.63273 0.0
H8141 H 0.69565 0.87481 0.643 0.0
H8142 H 0.71516 0.8843 0.64989 0.0
H8143 H 0.72116 0.87918 0.63977 0.0
C8144 C 0.70079 0.88772 0.66533 0.0
C8145 C 0.69377 0.88993 0.66453 0.0
C8146 C 0.70437 0.88449 0.65978 0.0
C8147 C 0.70107 0.88347 0.65323 0.0
C8148 C 0.69408 0.88579 0.65241 0.0
C8149 C 0.69047 0.88892 0.65799 0.0
C8150 C 0.70463 0.8731 0.63651 0.0
C8151 C 0.71184 0.87427 0.63549 0.0
C8152 C 0.7012 0.87589 0.64236 0.0
C8153 C 0.70487 0.88006 0.64727 0.0
C8154 C 0.71215 0.88106 0.64631 0.0
C8155 C 0.71561 0.87815 0.6405 0.0
H8156 H 0.36626 0.4355 0.90664 0.0
H8157 H 0.37086 0.453 0.92041 0.0
H8158 H 0.37135 0.44188 0.89684 0.0
H8159 H 0.37648 0.45915 0.91073 0.0
H8160 H 0.37941 0.47138 0.89018 0.0
H8161 H 0.37447 0.46528 0.90032 0.0
H8162 H 0.38195 0.44547 0.89198 0.0
H8163 H 0.38662 0.45158 0.88175 0.0
C8164 C 0.36835 0.44071 0.9076 0.0
C8165 C 0.36812 0.44371 0.91435 0.0
C8166 C 0.37141 0.44433 0.90198 0.0
C8167 C 0.37441 0.45103 0.90297 0.0
C8168 C 0.37416 0.45404 0.90972 0.0
C8169 C 0.37102 0.45045 0.91532 0.0
C8170 C 0.38006 0.46574 0.89059 0.0
C8171 C 0.38335 0.46195 0.88517 0.0
C8172 C 0.37724 0.46222 0.8964 0.0
C8173 C 0.37773 0.45485 0.89697 0.0
C8174 C 0.38128 0.45112 0.89165 0.0
C8175 C 0.38402 0.45462 0.88581 0.0
H8176 H 0.32283 0.61789 0.65719 0.0
H8177 H 0.30423 0.61904 0.67021 0.0
H8178 H 0.31632 0.62294 0.64745 0.0
H8179 H 0.29788 0.62462 0.66065 0.0
H8180 H 0.28637 0.62766 0.63969 0.0
H8181 H 0.29256 0.62275 0.64979 0.0
H8182 H 0.3116 0.63331 0.64316 0.0
H8183 H 0.30543 0.63792 0.63293 0.0
C8184 C 0.31735 0.61922 0.65799 0.0
C8185 C 0.31408 0.61802 0.66452 0.0
C8186 C 0.31364 0.62225 0.65242 0.0
C8187 C 0.30656 0.62427 0.65324 0.0
C8188 C 0.30328 0.62308 0.65977 0.0
C8189 C 0.30698 0.61996 0.66531 0.0
C8190 C 0.29185 0.62898 0.64047 0.0
C8191 C 0.29544 0.63313 0.63553 0.0
C8192 C 0.29542 0.62618 0.64627 0.0
C8193 C 0.30263 0.62755 0.64729 0.0
C8194 C 0.30611 0.63196 0.64246 0.0
C8195 C 0.30257 0.63467 0.63663 0.0
H8196 H 0.86688 0.07233 0.10101 0.0
H8197 H 0.87189 0.05532 0.08677 0.0
H8198 H 0.87224 0.06587 0.11061 0.0
H8199 H 0.87776 0.04909 0.09627 0.0
H8200 H 0.88065 0.03648 0.11676 0.0
H8201 H 0.87587 0.04266 0.10657 0.0
H8202 H 0.88298 0.06244 0.11531 0.0
H8203 H 0.88743 0.05624 0.1256 0.0
C8204 C 0.86913 0.06721 0.09991 0.0
C8205 C 0.86892 0.06436 0.09309 0.0
C8206 C 0.87233 0.06354 0.10541 0.0
C8207 C 0.87552 0.05696 0.10423 0.0
C8208 C 0.87532 0.05411 0.09741 0.0
C8209 C 0.87203 0.05774 0.09193 0.0
C8210 C 0.88128 0.04214 0.11641 0.0
C8211 C 0.88437 0.0459 0.12195 0.0
C8212 C 0.87854 0.04569 0.11058 0.0
C8213 C 0.87893 0.05309 0.11014 0.0
C8214 C 0.88238 0.05678 0.11554 0.0
C8215 C 0.88501 0.05324 0.12141 0.0
H8216 H 0.68545 0.11696 0.85078 0.0
H8217 H 0.70345 0.12006 0.83725 0.0
H8218 H 0.69192 0.12201 0.86054 0.0
H8219 H 0.70974 0.12561 0.84689 0.0
H8220 H 0.72164 0.12832 0.86774 0.0
H8221 H 0.71549 0.12346 0.85758 0.0
H8222 H 0.69606 0.13266 0.86503 0.0
H8223 H 0.7022 0.13729 0.87525 0.0
C8224 C 0.69079 0.11871 0.84987 0.0
C8225 C 0.69391 0.11807 0.8432 0.0
C8226 C 0.69448 0.12174 0.85546 0.0
C8227 C 0.70136 0.1243 0.85452 0.0
C8228 C 0.70449 0.12365 0.84785 0.0
C8229 C 0.70082 0.12055 0.84228 0.0
C8230 C 0.71608 0.12937 0.86713 0.0
C8231 C 0.71239 0.13313 0.8723 0.0
C8232 C 0.71254 0.12659 0.86131 0.0
C8233 C 0.70524 0.12758 0.8605 0.0
C8234 C 0.70163 0.13161 0.86556 0.0
C8235 C 0.70515 0.13431 0.8714 0.0
H8236 H 0.81548 0.87979 0.33998 0.0
H8237 H 0.8113 0.9008 0.34751 0.0
H8238 H 0.80904 0.87491 0.34991 0.0
H8239 H 0.80465 0.89599 0.35729 0.0
H8240 H 0.79989 0.88585 0.37799 0.0
H8241 H 0.806 0.89036 0.36785 0.0
H8242 H 0.79824 0.87298 0.35539 0.0
H8243 H 0.79265 0.86805 0.36582 0.0
C8244 C 0.8131 0.88337 0.34372 0.0
C8245 C 0.81395 0.89068 0.34299 0.0
C8246 C 0.80937 0.88058 0.34941 0.0
C8247 C 0.80633 0.88503 0.35448 0.0
C8248 C 0.80706 0.89236 0.35363 0.0
C8249 C 0.81086 0.89514 0.348 0.0
C8250 C 0.79958 0.88288 0.37314 0.0
C8251 C 0.79585 0.8765 0.3728 0.0
C8252 C 0.80299 0.88557 0.36725 0.0
C8253 C 0.80261 0.88209 0.36074 0.0
C8254 C 0.79874 0.87578 0.36033 0.0
C8255 C 0.79543 0.873 0.36629 0.0
H8256 H 0.41883 0.37826 0.06271 0.0
H8257 H 0.40889 0.3579 0.06077 0.0
H8258 H 0.40932 0.38356 0.05601 0.0
H8259 H 0.39914 0.36327 0.05451 0.0
H8260 H 0.38552 0.37302 0.03802 0.0
H8261 H 0.39593 0.36819 0.04375 0.0
H8262 H 0.39743 0.38692 0.05661 0.0
H8263 H 0.38719 0.39183 0.05055 0.0
C8264 C 0.41462 0.3749 0.06085 0.0
C8265 C 0.41467 0.36763 0.06227 0.0
C8266 C 0.4091 0.37797 0.05709 0.0
C8267 C 0.40344 0.37386 0.05468 0.0
C8268 C 0.40346 0.3666 0.05615 0.0
C8269 C 0.40902 0.36352 0.05986 0.0
C8270 C 0.3882 0.37613 0.04198 0.0
C8271 C 0.38566 0.3828 0.04382 0.0
C8272 C 0.3941 0.37335 0.04533 0.0
C8273 C 0.3975 0.37711 0.05073 0.0
C8274 C 0.39502 0.38389 0.05243 0.0
C8275 C 0.38917 0.38672 0.04898 0.0
H8276 H 0.39199 0.65759 0.82173 0.0
H8277 H 0.38939 0.67025 0.80302 0.0
H8278 H 0.38675 0.64765 0.81573 0.0
H8279 H 0.38352 0.66053 0.79724 0.0
H8280 H 0.37962 0.6397 0.78611 0.0
H8281 H 0.3849 0.64984 0.79188 0.0
H8282 H 0.37647 0.64278 0.81183 0.0
H8283 H 0.37162 0.63243 0.80604 0.0
C8284 C 0.3903 0.65828 0.81633 0.0
C8285 C 0.39116 0.66477 0.81288 0.0
C8286 C 0.38714 0.65259 0.81292 0.0
C8287 C 0.38462 0.65324 0.80598 0.0
C8288 C 0.38546 0.65974 0.80254 0.0
C8289 C 0.38874 0.66539 0.80591 0.0
C8290 C 0.37887 0.64038 0.79172 0.0
C8291 C 0.37524 0.63531 0.79565 0.0
C8292 C 0.38187 0.64621 0.79505 0.0
C8293 C 0.38119 0.64717 0.80237 0.0
C8294 C 0.37731 0.64217 0.80623 0.0
C8295 C 0.37445 0.63627 0.80292 0.0
H8296 H 0.09699 0.65075 0.55902 0.0
H8297 H 0.08962 0.63013 0.56511 0.0
H8298 H 0.10687 0.64536 0.55283 0.0
H8299 H 0.09936 0.62476 0.55876 0.0
H8300 H 0.12262 0.61893 0.55425 0.0
H8301 H 0.11223 0.62391 0.55999 0.0
H8302 H 0.10929 0.63798 0.54237 0.0
H8303 H 0.1197 0.63294 0.53666 0.0
C8304 C 0.09748 0.64508 0.55904 0.0
C8305 C 0.09251 0.64088 0.56256 0.0
C8306 C 0.10309 0.64199 0.55543 0.0
C8307 C 0.10388 0.63463 0.55529 0.0
C8308 C 0.09892 0.63044 0.55881 0.0
C8309 C 0.0933 0.63352 0.56239 0.0
C8310 C 0.11966 0.62301 0.55159 0.0
C8311 C 0.12186 0.62554 0.54503 0.0
C8312 C 0.11373 0.62586 0.55485 0.0
C8313 C 0.10995 0.63135 0.55164 0.0
C8314 C 0.11213 0.6338 0.545 0.0
C8315 C 0.11802 0.63088 0.54171 0.0
H8316 H 0.12699 0.3414 0.3164 0.0
H8317 H 0.10673 0.34612 0.30731 0.0
H8318 H 0.1321 0.35141 0.31027 0.0
H8319 H 0.11184 0.35601 0.301 0.0
H8320 H 0.12095 0.37751 0.2969 0.0
H8321 H 0.1161 0.36728 0.30268 0.0
H8322 H 0.13568 0.35616 0.29947 0.0
H8323 H 0.14074 0.36667 0.29415 0.0
C8324 C 0.12364 0.34453 0.31301 0.0
C8325 C 0.11644 0.34298 0.31237 0.0
C8326 C 0.12658 0.35026 0.30947 0.0
C8327 C 0.1224 0.35457 0.30513 0.0
C8328 C 0.11521 0.35293 0.30441 0.0
C8329 C 0.11226 0.34725 0.30801 0.0
C8330 C 0.12427 0.37293 0.29751 0.0
C8331 C 0.13128 0.37297 0.29513 0.0
C8332 C 0.12143 0.36699 0.30073 0.0
C8333 C 0.12546 0.36084 0.30155 0.0
C8334 C 0.13243 0.36082 0.29903 0.0
C8335 C 0.13531 0.36682 0.29588 0.0
H8336 H 0.42113 0.63589 0.45321 0.0
H8337 H 0.40697 0.64544 0.43819 0.0
H8338 H 0.41122 0.63018 0.45893 0.0
H8339 H 0.39703 0.6401 0.44419 0.0
H8340 H 0.38132 0.62398 0.45148 0.0
H8341 H 0.39161 0.629 0.4458 0.0
H8342 H 0.40122 0.63233 0.46614 0.0
H8343 H 0.39092 0.62722 0.47182 0.0
C8344 C 0.41591 0.63679 0.45112 0.0
C8345 C 0.41488 0.64111 0.4452 0.0
C8346 C 0.4102 0.63358 0.45447 0.0
C8347 C 0.40331 0.63464 0.45201 0.0
C8348 C 0.40227 0.63905 0.44616 0.0
C8349 C 0.40798 0.64222 0.44278 0.0
C8350 C 0.38564 0.62579 0.45474 0.0
C8351 C 0.38528 0.62526 0.46211 0.0
C8352 C 0.39153 0.6287 0.45148 0.0
C8353 C 0.39722 0.63117 0.4555 0.0
C8354 C 0.39697 0.63043 0.46287 0.0
C8355 C 0.39106 0.62749 0.46613 0.0
H8356 H 0.10832 0.65776 0.19352 0.0
H8357 H 0.12637 0.67067 0.19846 0.0
H8358 H 0.11365 0.64796 0.19968 0.0
H8359 H 0.13148 0.66099 0.20509 0.0
H8360 H 0.14181 0.63954 0.2101 0.0
H8361 H 0.13695 0.64985 0.2041 0.0
H8362 H 0.1161 0.6439 0.21099 0.0
H8363 H 0.12096 0.63354 0.21669 0.0
C8364 C 0.11342 0.65853 0.19592 0.0
C8365 C 0.11689 0.66504 0.19546 0.0
C8366 C 0.11645 0.65292 0.19958 0.0
C8367 C 0.12299 0.65367 0.20297 0.0
C8368 C 0.12647 0.66018 0.20251 0.0
C8369 C 0.12348 0.66578 0.19878 0.0
C8370 C 0.13621 0.64052 0.21038 0.0
C8371 C 0.13175 0.63574 0.2138 0.0
C8372 C 0.13341 0.64642 0.20695 0.0
C8373 C 0.1261 0.64767 0.20696 0.0
C8374 C 0.12172 0.64302 0.21068 0.0
C8375 C 0.1245 0.63711 0.21401 0.0
H8376 H 0.08716 0.36997 0.95441 0.0
H8377 H 0.10069 0.36407 0.93712 0.0
H8378 H 0.09702 0.37567 0.96019 0.0
H8379 H 0.11065 0.36926 0.94316 0.0
H8380 H 0.12605 0.38489 0.95191 0.0
H8381 H 0.11574 0.37999 0.94612 0.0
H8382 H 0.10744 0.37369 0.96635 0.0
H8383 H 0.11767 0.37882 0.97211 0.0
C8384 C 0.09223 0.36987 0.95184 0.0
C8385 C 0.09308 0.36657 0.94526 0.0
C8386 C 0.09793 0.37306 0.95521 0.0
C8387 C 0.10466 0.37296 0.95215 0.0
C8388 C 0.10553 0.36957 0.94563 0.0
C8389 C 0.09982 0.36646 0.94221 0.0
C8390 C 0.122 0.38247 0.95511 0.0
C8391 C 0.12267 0.3822 0.96246 0.0
C8392 C 0.1161 0.37962 0.95179 0.0
C8393 C 0.11076 0.37635 0.95574 0.0
C8394 C 0.11138 0.37623 0.96312 0.0
C8395 C 0.11725 0.37916 0.96644 0.0
H8396 H 0.39572 0.34154 0.70497 0.0
H8397 H 0.3848 0.34672 0.68575 0.0
H8398 H 0.39005 0.3514 0.71087 0.0
H8399 H 0.37885 0.35634 0.69167 0.0
H8400 H 0.37518 0.37755 0.70158 0.0
H8401 H 0.38038 0.36745 0.69591 0.0
H8402 H 0.37991 0.35612 0.71565 0.0
H8403 H 0.37535 0.36655 0.72148 0.0
C8404 C 0.39203 0.34475 0.70203 0.0
C8405 C 0.39076 0.3434 0.69488 0.0
C8406 C 0.38873 0.35038 0.70542 0.0
C8407 C 0.38397 0.35474 0.70177 0.0
C8408 C 0.3826 0.35326 0.69464 0.0
C8409 C 0.386 0.34771 0.69123 0.0
C8410 C 0.37627 0.37295 0.70475 0.0
C8411 C 0.37495 0.37295 0.71203 0.0
C8412 C 0.37915 0.36707 0.70146 0.0
C8413 C 0.38062 0.36091 0.70529 0.0
C8414 C 0.37901 0.3608 0.71252 0.0
C8415 C 0.37626 0.36675 0.71586 0.0
H8416 H 0.05295 0.42052 0.36913 0.0
H8417 H 0.07091 0.40722 0.36489 0.0
H8418 H 0.04714 0.41079 0.37501 0.0
H8419 H 0.06486 0.39736 0.37021 0.0
H8420 H 0.05584 0.3823 0.38586 0.0
H8421 H 0.06153 0.39262 0.38088 0.0
H8422 H 0.04134 0.40015 0.37353 0.0
H8423 H 0.03566 0.38994 0.37885 0.0
C8424 C 0.05567 0.41552 0.36942 0.0
C8425 C 0.06245 0.41471 0.36655 0.0
C8426 C 0.05227 0.40988 0.37271 0.0
C8427 C 0.05551 0.40325 0.37314 0.0
C8428 C 0.06223 0.40241 0.37014 0.0
C8429 C 0.06567 0.40806 0.36695 0.0
C8430 C 0.05263 0.38622 0.38323 0.0
C8431 C 0.04532 0.38534 0.38271 0.0
C8432 C 0.05589 0.39211 0.38031 0.0
C8433 C 0.05194 0.39721 0.37668 0.0
C8434 C 0.04458 0.3964 0.37634 0.0
C8435 C 0.0413 0.39055 0.37937 0.0
H8436 H 0.34951 0.31224 0.10758 0.0
H8437 H 0.33878 0.3118 0.12762 0.0
H8438 H 0.35943 0.30615 0.11278 0.0
H8439 H 0.34844 0.30518 0.13267 0.0
H8440 H 0.37011 0.29971 0.14162 0.0
H8441 H 0.35993 0.30584 0.13672 0.0
H8442 H 0.36339 0.2954 0.11677 0.0
H8443 H 0.37378 0.28968 0.12163 0.0
C8444 C 0.34924 0.31083 0.1131 0.0
C8445 C 0.34331 0.31255 0.11716 0.0
C8446 C 0.35491 0.30721 0.11607 0.0
C8447 C 0.35477 0.30509 0.12316 0.0
C8448 C 0.34882 0.30678 0.12722 0.0
C8449 C 0.34319 0.31049 0.12427 0.0
C8450 C 0.36861 0.29872 0.13621 0.0
C8451 C 0.37267 0.29425 0.13198 0.0
C8452 C 0.36277 0.3022 0.13339 0.0
C8453 C 0.36082 0.30118 0.1263 0.0
C8454 C 0.3648 0.29649 0.12218 0.0
C8455 C 0.3707 0.29313 0.12497 0.0
H8456 H 0.4527 0.58654 0.87287 0.0
H8457 H 0.4384 0.60095 0.86263 0.0
H8458 H 0.45849 0.59638 0.87864 0.0
H8459 H 0.44448 0.6108 0.868 0.0
H8460 H 0.45168 0.62676 0.88373 0.0
H8461 H 0.44587 0.61643 0.87893 0.0
H8462 H 0.46603 0.60613 0.87673 0.0
H8463 H 0.47182 0.61647 0.88171 0.0
C8464 C 0.45079 0.5918 0.87183 0.0
C8465 C 0.44504 0.59291 0.86729 0.0
C8466 C 0.45418 0.59746 0.87507 0.0
C8467 C 0.45194 0.6044 0.87383 0.0
C8468 C 0.44627 0.60552 0.86921 0.0
C8469 C 0.44285 0.59986 0.86601 0.0
C8470 C 0.45486 0.62227 0.88226 0.0
C8471 C 0.46221 0.62244 0.88304 0.0
C8472 C 0.45154 0.61636 0.87946 0.0
C8473 C 0.45548 0.61047 0.87732 0.0
C8474 C 0.46282 0.61054 0.87836 0.0
C8475 C 0.46614 0.61646 0.88122 0.0
H8476 H 0.1584 0.69571 0.6079 0.0
H8477 H 0.16971 0.6966 0.62761 0.0
H8478 H 0.14863 0.70194 0.61324 0.0
H8479 H 0.16015 0.70331 0.6328 0.0
H8480 H 0.13838 0.70878 0.64198 0.0
H8481 H 0.14861 0.70268 0.63709 0.0
H8482 H 0.14504 0.71295 0.61709 0.0
H8483 H 0.13468 0.71869 0.62192 0.0
C8484 C 0.15882 0.69724 0.61337 0.0
C8485 C 0.16487 0.69563 0.6173 0.0
C8486 C 0.15325 0.70094 0.61642 0.0
C8487 C 0.15359 0.70322 0.62346 0.0
C8488 C 0.15964 0.7016 0.62739 0.0
C8489 C 0.16519 0.69783 0.62437 0.0
C8490 C 0.13989 0.70978 0.63657 0.0
C8491 C 0.13579 0.71419 0.63231 0.0
C8492 C 0.14574 0.7063 0.63376 0.0
C8493 C 0.14764 0.70723 0.62664 0.0
C8494 C 0.14366 0.71192 0.62251 0.0
C8495 C 0.13777 0.71529 0.6253 0.0
H8496 H 0.07006 0.60084 0.14465 0.0
H8497 H 0.05375 0.58688 0.13715 0.0
H8498 H 0.06402 0.61074 0.13931 0.0
H8499 H 0.04798 0.59672 0.13138 0.0
H8500 H 0.03574 0.61737 0.12802 0.0
H8501 H 0.04136 0.60707 0.13326 0.0
H8502 H 0.06178 0.61575 0.12826 0.0
H8503 H 0.05615 0.62606 0.12321 0.0
C8504 C 0.06518 0.59987 0.14188 0.0
C8505 C 0.06242 0.59303 0.14135 0.0
C8506 C 0.06177 0.60555 0.1387 0.0
C8507 C 0.05554 0.60455 0.13483 0.0
C8508 C 0.05273 0.59772 0.13435 0.0
C8509 C 0.05611 0.59205 0.13759 0.0
C8510 C 0.04142 0.61701 0.12797 0.0
C8511 C 0.04551 0.62254 0.12528 0.0
C8512 C 0.04465 0.61111 0.13097 0.0
C8513 C 0.05204 0.61061 0.13129 0.0
C8514 C 0.05609 0.61603 0.12831 0.0
C8515 C 0.05287 0.62193 0.12537 0.0
H8516 H 0.15671 0.32019 0.89486 0.0
H8517 H 0.17067 0.30426 0.88659 0.0
H8518 H 0.14678 0.31429 0.88945 0.0
H8519 H 0.16081 0.29867 0.88071 0.0
H8520 H 0.14046 0.28624 0.87716 0.0
H8521 H 0.15072 0.29187 0.88241 0.0
H8522 H 0.14139 0.31228 0.87863 0.0
H8523 H 0.13107 0.30661 0.87362 0.0
C8524 C 0.15768 0.31543 0.8919 0.0
C8525 C 0.16453 0.31273 0.89119 0.0
C8526 C 0.15198 0.3121 0.88867 0.0
C8527 C 0.15297 0.30602 0.88456 0.0
C8528 C 0.15981 0.30329 0.88388 0.0
C8529 C 0.1655 0.30658 0.88718 0.0
C8530 C 0.14066 0.29193 0.87738 0.0
C8531 C 0.13495 0.29598 0.87504 0.0
C8532 C 0.14655 0.29517 0.88039 0.0
C8533 C 0.14688 0.30255 0.88104 0.0
C8534 C 0.14126 0.30659 0.87842 0.0
C8535 C 0.13536 0.30335 0.87549 0.0
H8536 H 0.44452 0.40795 0.65029 0.0
H8537 H 0.44682 0.41966 0.63094 0.0
H8538 H 0.45054 0.39803 0.645 0.0
H8539 H 0.45338 0.40997 0.62585 0.0
H8540 H 0.45861 0.38857 0.61614 0.0
H8541 H 0.45256 0.39875 0.62115 0.0
H8542 H 0.46134 0.39379 0.64157 0.0
H8543 H 0.46696 0.38342 0.63658 0.0
C8544 C 0.44632 0.40843 0.64491 0.0
C8545 C 0.44514 0.41464 0.64106 0.0
C8546 C 0.44991 0.40276 0.6419 0.0
C8547 C 0.45253 0.40317 0.63498 0.0
C8548 C 0.45139 0.40939 0.63115 0.0
C8549 C 0.44771 0.41502 0.63412 0.0
C8550 C 0.45925 0.38973 0.62168 0.0
C8551 C 0.46322 0.38526 0.626 0.0
C8552 C 0.45582 0.39558 0.62457 0.0
C8553 C 0.45639 0.39711 0.63181 0.0
C8554 C 0.46059 0.39271 0.63603 0.0
C8555 C 0.46389 0.38681 0.63317 0.0
H8556 H 0.35066 0.69279 0.40006 0.0
H8557 H 0.33755 0.69896 0.38253 0.0
H8558 H 0.36056 0.69878 0.39475 0.0
H8559 H 0.3473 0.70549 0.37752 0.0
H8560 H 0.36817 0.71049 0.36661 0.0
H8561 H 0.35796 0.70453 0.37165 0.0
H8562 H 0.36542 0.70965 0.39255 0.0
H8563 H 0.37574 0.71522 0.38746 0.0
C8564 C 0.34986 0.69544 0.39508 0.0
C8565 C 0.34326 0.69535 0.39174 0.0
C8566 C 0.35554 0.69901 0.39207 0.0
C8567 C 0.35477 0.7027 0.3857 0.0
C8568 C 0.34816 0.70265 0.38238 0.0
C8569 C 0.3425 0.69899 0.38533 0.0
C8570 C 0.36755 0.71036 0.37227 0.0
C8571 C 0.37272 0.71327 0.37666 0.0
C8572 C 0.3617 0.70697 0.37518 0.0
C8573 C 0.36085 0.70653 0.38254 0.0
C8574 C 0.36595 0.70969 0.38688 0.0
C8575 C 0.37184 0.71295 0.38397 0.0
H8576 H 0.37726 0.06661 0.41633 0.0
H8577 H 0.35693 0.05761 0.41169 0.0
H8578 H 0.3823 0.06046 0.40631 0.0
H8579 H 0.36199 0.05125 0.40181 0.0
H8580 H 0.37097 0.04681 0.38036 0.0
H8581 H 0.36617 0.05266 0.39055 0.0
H8582 H 0.3859 0.0498 0.40151 0.0
H8583 H 0.39093 0.04448 0.391 0.0
C8584 C 0.37388 0.06323 0.41322 0.0
C8585 C 0.36668 0.06263 0.41479 0.0
C8586 C 0.37678 0.05967 0.40748 0.0
C8587 C 0.37258 0.05534 0.40319 0.0
C8588 C 0.36539 0.05465 0.40486 0.0
C8589 C 0.36247 0.05829 0.41055 0.0
C8590 C 0.37435 0.04752 0.38489 0.0
C8591 C 0.38139 0.04524 0.38478 0.0
C8592 C 0.37153 0.05078 0.39082 0.0
C8593 C 0.37561 0.05172 0.39692 0.0
C8594 C 0.38261 0.04928 0.39689 0.0
C8595 C 0.38548 0.04612 0.39089 0.0
H8596 H 0.87771 0.44347 0.58959 0.0
H8597 H 0.85701 0.44777 0.59792 0.0
H8598 H 0.88298 0.44988 0.59934 0.0
H8599 H 0.8623 0.45393 0.60784 0.0
H8600 H 0.87365 0.47043 0.62095 0.0
H8601 H 0.86867 0.46465 0.61057 0.0
H8602 H 0.88473 0.44859 0.61191 0.0
H8603 H 0.8897 0.45448 0.62224 0.0
C8604 C 0.87427 0.4458 0.59348 0.0
C8605 C 0.86693 0.44511 0.59295 0.0
C8606 C 0.87731 0.44941 0.59912 0.0
C8607 C 0.87306 0.45241 0.60437 0.0
C8608 C 0.86572 0.45174 0.60384 0.0
C8609 C 0.86268 0.44814 0.5982 0.0
C8610 C 0.87613 0.46572 0.61893 0.0
C8611 C 0.88205 0.46289 0.62228 0.0
C8612 C 0.87326 0.46237 0.61305 0.0
C8613 C 0.87629 0.45614 0.61043 0.0
C8614 C 0.88233 0.45342 0.61374 0.0
C8615 C 0.88516 0.45676 0.61965 0.0
H8616 H 0.32046 0.11408 0.35102 0.0
H8617 H 0.30393 0.12117 0.33711 0.0
H8618 H 0.31441 0.11938 0.3609 0.0
H8619 H 0.29818 0.127 0.3469 0.0
H8620 H 0.28585 0.13048 0.3673 0.0
H8621 H 0.2916 0.12533 0.35707 0.0
H8622 H 0.31191 0.13006 0.3662 0.0
H8623 H 0.30611 0.1349 0.37652 0.0
C8624 C 0.31553 0.11676 0.35005 0.0
C8625 C 0.3127 0.11716 0.34323 0.0
C8626 C 0.31211 0.11994 0.35572 0.0
C8627 C 0.30582 0.12371 0.35473 0.0
C8628 C 0.30297 0.1241 0.34791 0.0
C8629 C 0.30634 0.12083 0.34225 0.0
C8630 C 0.29154 0.13048 0.36706 0.0
C8631 C 0.29554 0.13304 0.37271 0.0
C8632 C 0.29486 0.12754 0.36118 0.0
C8633 C 0.30225 0.12718 0.3608 0.0
C8634 C 0.30622 0.13003 0.36637 0.0
C8635 C 0.3029 0.13287 0.37227 0.0
H8636 H 0.65032 0.56413 0.10002 0.0
H8637 H 0.63163 0.56026 0.08766 0.0
H8638 H 0.64497 0.55823 0.10995 0.0
H8639 H 0.62651 0.5538 0.09741 0.0
H8640 H 0.61627 0.54913 0.11873 0.0
H8641 H 0.62133 0.5549 0.10841 0.0
H8642 H 0.64196 0.54743 0.1145 0.0
H8643 H 0.6369 0.5421 0.12497 0.0
C8644 C 0.64507 0.562 0.09939 0.0
C8645 C 0.64142 0.56272 0.09301 0.0
C8646 C 0.64203 0.55849 0.10508 0.0
C8647 C 0.6353 0.55546 0.10452 0.0
C8648 C 0.63166 0.55612 0.0981 0.0
C8649 C 0.63466 0.55974 0.09245 0.0
C8650 C 0.62187 0.54871 0.11778 0.0
C8651 C 0.62622 0.54522 0.12261 0.0
C8652 C 0.62479 0.55198 0.11187 0.0
C8653 C 0.63209 0.55171 0.11061 0.0
C8654 C 0.63636 0.54795 0.11536 0.0
C8655 C 0.63346 0.54482 0.12132 0.0
H8656 H 0.68774 0.39503 0.35133 0.0
H8657 H 0.70291 0.38585 0.33711 0.0
H8658 H 0.69386 0.38979 0.36123 0.0
H8659 H 0.70872 0.38016 0.34697 0.0
H8660 H 0.7218 0.37713 0.36702 0.0
H8661 H 0.71593 0.38215 0.35679 0.0
H8662 H 0.69578 0.37902 0.36687 0.0
H8663 H 0.70169 0.37419 0.37713 0.0
C8664 C 0.69238 0.3919 0.3503 0.0
C8665 C 0.69481 0.39089 0.34339 0.0
C8666 C 0.69583 0.38878 0.35599 0.0
C8667 C 0.70176 0.38448 0.35492 0.0
C8668 C 0.70421 0.38348 0.34802 0.0
C8669 C 0.70081 0.38668 0.34233 0.0
C8670 C 0.71611 0.37744 0.367 0.0
C8671 C 0.71221 0.37532 0.3729 0.0
C8672 C 0.71273 0.38031 0.36113 0.0
C8673 C 0.70537 0.38108 0.36101 0.0
C8674 C 0.70147 0.3787 0.36683 0.0
C8675 C 0.70485 0.37589 0.37271 0.0
H8676 H 0.15048 0.94511 0.90821 0.0
H8677 H 0.13089 0.94644 0.91966 0.0
H8678 H 0.14512 0.95117 0.89835 0.0
H8679 H 0.12569 0.95301 0.91002 0.0
H8680 H 0.11616 0.95808 0.88847 0.0
H8681 H 0.12125 0.95206 0.89864 0.0
H8682 H 0.14128 0.96202 0.89437 0.0
H8683 H 0.13621 0.96764 0.88402 0.0
C8684 C 0.14504 0.94671 0.90865 0.0
C8685 C 0.14114 0.94526 0.91476 0.0
C8686 C 0.14198 0.95031 0.90301 0.0
C8687 C 0.13496 0.95265 0.90337 0.0
C8688 C 0.13107 0.95123 0.9095 0.0
C8689 C 0.13411 0.94755 0.91509 0.0
C8690 C 0.12163 0.959 0.8898 0.0
C8691 C 0.12582 0.96331 0.88555 0.0
C8692 C 0.12456 0.95558 0.89563 0.0
C8693 C 0.13172 0.9565 0.89734 0.0
C8694 C 0.13581 0.96103 0.89315 0.0
C8695 C 0.13291 0.96433 0.88727 0.0
H8696 H 0.32026 0.89497 0.15722 0.0
H8697 H 0.30424 0.88691 0.17121 0.0
H8698 H 0.31424 0.88967 0.14728 0.0
H8699 H 0.29847 0.88121 0.16131 0.0
H8700 H 0.28602 0.87841 0.14073 0.0
H8701 H 0.29172 0.88348 0.15103 0.0
H8702 H 0.31207 0.87854 0.14216 0.0
H8703 H 0.30636 0.87357 0.13186 0.0
C8704 C 0.31544 0.89208 0.15819 0.0
C8705 C 0.31275 0.89138 0.16504 0.0
C8706 C 0.31204 0.88894 0.15249 0.0
C8707 C 0.30589 0.88494 0.15349 0.0
C8708 C 0.30317 0.88428 0.16033 0.0
C8709 C 0.30654 0.88748 0.16602 0.0
C8710 C 0.29171 0.87832 0.14104 0.0
C8711 C 0.29574 0.87565 0.13545 0.0
C8712 C 0.29498 0.88123 0.14694 0.0
C8713 C 0.30237 0.88151 0.1474 0.0
C8714 C 0.30638 0.8786 0.14191 0.0
C8715 C 0.30311 0.87572 0.13601 0.0
H8716 H 0.18896 0.11155 0.65672 0.0
H8717 H 0.20273 0.1225 0.67112 0.0
H8718 H 0.19534 0.11654 0.64684 0.0
H8719 H 0.20905 0.12758 0.6612 0.0
H8720 H 0.21344 0.14089 0.64113 0.0
H8721 H 0.20761 0.13594 0.65148 0.0
H8722 H 0.20673 0.11567 0.64124 0.0
H8723 H 0.21255 0.12058 0.63099 0.0
C8724 C 0.19339 0.11495 0.6578 0.0
C8725 C 0.19532 0.11659 0.66475 0.0
C8726 C 0.19705 0.11784 0.65212 0.0
C8727 C 0.20273 0.12244 0.65323 0.0
C8728 C 0.20465 0.12412 0.66016 0.0
C8729 C 0.20101 0.12121 0.66585 0.0
C8730 C 0.21208 0.13536 0.64114 0.0
C8731 C 0.21339 0.13115 0.63521 0.0
C8732 C 0.20873 0.13253 0.64706 0.0
C8733 C 0.20662 0.12543 0.64714 0.0
C8734 C 0.20813 0.12119 0.64128 0.0
C8735 C 0.21148 0.12401 0.63541 0.0
H8736 H 0.08033 0.19634 0.39405 0.0
H8737 H 0.09923 0.18382 0.39546 0.0
H8738 H 0.08629 0.20433 0.38577 0.0
H8739 H 0.10512 0.19172 0.38732 0.0
H8740 H 0.11258 0.20255 0.36846 0.0
H8741 H 0.10414 0.19509 0.37457 0.0
H8742 H 0.09694 0.21301 0.38651 0.0
H8743 H 0.10547 0.22051 0.38036 0.0
C8744 C 0.08572 0.19527 0.39254 0.0
C8745 C 0.08934 0.18949 0.39541 0.0
C8746 C 0.08913 0.19985 0.38785 0.0
C8747 C 0.09614 0.19861 0.38587 0.0
C8748 C 0.09968 0.19276 0.38867 0.0
C8749 C 0.09633 0.18827 0.39338 0.0
C8750 C 0.10902 0.20494 0.37221 0.0
C8751 C 0.10968 0.21209 0.37396 0.0
C8752 C 0.10424 0.20067 0.37575 0.0
C8753 C 0.09998 0.20345 0.3811 0.0
C8754 C 0.10015 0.21074 0.3824 0.0
C8755 C 0.10499 0.21503 0.37885 0.0
H8756 H 0.06041 0.83141 0.6469 0.0
H8757 H 0.07594 0.84679 0.64071 0.0
H8758 H 0.05186 0.8369 0.63894 0.0
H8759 H 0.06744 0.85236 0.63301 0.0
H8760 H 0.05319 0.85971 0.61674 0.0
H8761 H 0.06082 0.85106 0.62237 0.0
H8762 H 0.04524 0.848 0.63864 0.0
H8763 H 0.03757 0.85656 0.63284 0.0
C8764 C 0.06201 0.8359 0.64378 0.0
C8765 C 0.06882 0.83871 0.64447 0.0
C8766 C 0.05711 0.83907 0.63927 0.0
C8767 C 0.05897 0.84506 0.63532 0.0
C8768 C 0.06585 0.84769 0.63587 0.0
C8769 C 0.07071 0.84455 0.64036 0.0
C8770 C 0.05129 0.85693 0.62133 0.0
C8771 C 0.04477 0.85867 0.62431 0.0
C8772 C 0.05569 0.85206 0.62463 0.0
C8773 C 0.05369 0.84893 0.63103 0.0
C8774 C 0.04692 0.85027 0.6337 0.0
C8775 C 0.0425 0.85514 0.63037 0.0
H8776 H 0.4087 0.82393 0.89561 0.0
H8777 H 0.42799 0.81217 0.89335 0.0
H8778 H 0.40287 0.81602 0.88743 0.0
H8779 H 0.42208 0.80414 0.88507 0.0
H8780 H 0.40271 0.78761 0.88025 0.0
H8781 H 0.41135 0.79512 0.88624 0.0
H8782 H 0.40403 0.813 0.8743 0.0
H8783 H 0.39551 0.80552 0.8683 0.0
C8784 C 0.4117 0.81965 0.89334 0.0
C8785 C 0.41879 0.81864 0.89514 0.0
C8786 C 0.40838 0.81515 0.88861 0.0
C8787 C 0.41205 0.8095 0.88558 0.0
C8788 C 0.41915 0.80847 0.88734 0.0
C8789 C 0.42253 0.81306 0.89203 0.0
C8790 C 0.4032 0.79307 0.87868 0.0
C8791 C 0.39845 0.796 0.87383 0.0
C8792 C 0.4081 0.79737 0.88213 0.0
C8793 C 0.40825 0.80465 0.88081 0.0
C8794 C 0.40395 0.80742 0.87548 0.0
C8795 C 0.39913 0.80313 0.87201 0.0
H8796 H 0.43643 0.1738 0.13658 0.0
H8797 H 0.44602 0.16362 0.15449 0.0
H8798 H 0.44507 0.16826 0.12884 0.0
H8799 H 0.45441 0.15788 0.14677 0.0
H8800 H 0.47128 0.15068 0.13253 0.0
H8801 H 0.4644 0.1594 0.13906 0.0
H8802 H 0.44702 0.15633 0.12472 0.0
H8803 H 0.45396 0.14774 0.1182 0.0
C8804 C 0.44043 0.17047 0.13888 0.0
C8805 C 0.44049 0.16911 0.14615 0.0
C8806 C 0.44534 0.16724 0.13444 0.0
C8807 C 0.45044 0.16262 0.13718 0.0
C8808 C 0.45064 0.16148 0.14448 0.0
C8809 C 0.44575 0.1647 0.1489 0.0
C8810 C 0.4661 0.15212 0.13063 0.0
C8811 C 0.46317 0.14865 0.12483 0.0
C8812 C 0.46212 0.15702 0.13442 0.0
C8813 C 0.45513 0.15851 0.13246 0.0
C8814 C 0.4524 0.15538 0.12634 0.0
C8815 C 0.45637 0.15047 0.12258 0.0
H8816 H 0.09595 0.81344 0.10286 0.0
H8817 H 0.08354 0.82061 0.12049 0.0
H8818 H 0.10167 0.80483 0.11033 0.0
H8819 H 0.08909 0.81171 0.12796 0.0
H8820 H 0.10905 0.80288 0.13974 0.0
H8821 H 0.10063 0.80997 0.13312 0.0
H8822 H 0.10027 0.79414 0.1168 0.0
H8823 H 0.10882 0.78717 0.12342 0.0
C8824 C 0.09439 0.81313 0.10833 0.0
C8825 C 0.08935 0.81778 0.11109 0.0
C8826 C 0.09761 0.80811 0.1126 0.0
C8827 C 0.09583 0.80755 0.11976 0.0
C8828 C 0.09061 0.81204 0.12248 0.0
C8829 C 0.08739 0.81709 0.11819 0.0
C8830 C 0.10693 0.80082 0.13487 0.0
C8831 C 0.10945 0.79445 0.13212 0.0
C8832 C 0.10213 0.80487 0.13106 0.0
C8833 C 0.09982 0.80266 0.12438 0.0
C8834 C 0.10202 0.79604 0.12187 0.0
C8835 C 0.10682 0.79199 0.12569 0.0
H8836 H 0.43928 0.8327 0.37051 0.0
H8837 H 0.44431 0.84534 0.35228 0.0
H8838 H 0.44698 0.8401 0.37769 0.0
H8839 H 0.45239 0.85216 0.3592 0.0
H8840 H 0.45748 0.86944 0.37356 0.0
H8841 H 0.4507 0.86094 0.36731 0.0
H8842 H 0.45873 0.84443 0.38074 0.0
H8843 H 0.46512 0.85332 0.38769 0.0
C8844 C 0.44208 0.83697 0.368 0.0
C8845 C 0.4411 0.83842 0.3608 0.0
C8846 C 0.44658 0.84114 0.3721 0.0
C8847 C 0.45022 0.84682 0.36906 0.0
C8848 C 0.44953 0.84798 0.36179 0.0
C8849 C 0.44496 0.84394 0.35776 0.0
C8850 C 0.45772 0.86405 0.37538 0.0
C8851 C 0.46171 0.86214 0.38132 0.0
C8852 C 0.45392 0.8591 0.37163 0.0
C8853 C 0.45423 0.85195 0.37341 0.0
C8854 C 0.45835 0.84992 0.37925 0.0
C8855 C 0.46207 0.85498 0.38317 0.0
H8856 H 0.42778 0.19587 0.61469 0.0
H8857 H 0.40823 0.18498 0.61086 0.0
H8858 H 0.42167 0.20387 0.62288 0.0
H8859 H 0.40221 0.19285 0.61896 0.0
H8860 H 0.39466 0.20249 0.63861 0.0
H8861 H 0.40312 0.19513 0.63243 0.0
H8862 H 0.411 0.21335 0.62144 0.0
H8863 H 0.40238 0.22078 0.6276 0.0
C8864 C 0.42221 0.19517 0.61564 0.0
C8865 C 0.41846 0.18984 0.61213 0.0
C8866 C 0.41872 0.19974 0.62027 0.0
C8867 C 0.41149 0.19893 0.62157 0.0
C8868 C 0.4078 0.19355 0.61811 0.0
C8869 C 0.41123 0.18908 0.61344 0.0
C8870 C 0.39835 0.20497 0.63505 0.0
C8871 C 0.39784 0.21219 0.63354 0.0
C8872 C 0.40316 0.20075 0.63148 0.0
C8873 C 0.40763 0.20367 0.62639 0.0
C8874 C 0.40761 0.21099 0.62536 0.0
C8875 C 0.40272 0.21524 0.62891 0.0
H8876 H 0.07191 0.17421 0.87061 0.0
H8877 H 0.06203 0.16402 0.85287 0.0
H8878 H 0.06343 0.16864 0.8785 0.0
H8879 H 0.0538 0.15824 0.86073 0.0
H8880 H 0.03737 0.15078 0.8753 0.0
H8881 H 0.04398 0.15963 0.86867 0.0
H8882 H 0.06173 0.15665 0.88257 0.0
H8883 H 0.05505 0.14793 0.88919 0.0
C8884 C 0.06787 0.17087 0.86839 0.0
C8885 C 0.06769 0.16951 0.86112 0.0
C8886 C 0.06305 0.16763 0.87291 0.0
C8887 C 0.05794 0.16298 0.87025 0.0
C8888 C 0.0576 0.16186 0.86296 0.0
C8889 C 0.06239 0.1651 0.85845 0.0
C8890 C 0.04257 0.15226 0.87707 0.0
C8891 C 0.04569 0.14878 0.88277 0.0
C8892 C 0.0464 0.15723 0.87324 0.0
C8893 C 0.05341 0.15879 0.87505 0.0
C8894 C 0.05633 0.15565 0.88108 0.0
C8895 C 0.05251 0.15066 0.88488 0.0
H8896 H 0.38622 0.08516 0.18537 0.0
H8897 H 0.40404 0.09223 0.19758 0.0
H8898 H 0.37829 0.09079 0.19373 0.0
H8899 H 0.39617 0.09818 0.20567 0.0
H8900 H 0.38106 0.10632 0.22138 0.0
H8901 H 0.38742 0.09736 0.21463 0.0
H8902 H 0.37514 0.10264 0.19622 0.0
H8903 H 0.36874 0.11137 0.20302 0.0
C8904 C 0.38845 0.08783 0.18988 0.0
C8905 C 0.39578 0.08829 0.19075 0.0
C8906 C 0.3839 0.09113 0.19463 0.0
C8907 C 0.38658 0.09498 0.20036 0.0
C8908 C 0.39389 0.09519 0.20138 0.0
C8909 C 0.39843 0.09187 0.19666 0.0
C8910 C 0.37956 0.10533 0.21597 0.0
C8911 C 0.37439 0.10946 0.21272 0.0
C8912 C 0.38326 0.10029 0.21207 0.0
C8913 C 0.38186 0.09933 0.20485 0.0
C8914 C 0.37633 0.10315 0.20177 0.0
C8915 C 0.37265 0.10816 0.20566 0.0
H8916 H 0.15931 0.14327 0.43255 0.0
H8917 H 0.1765 0.14599 0.44714 0.0
H8918 H 0.15352 0.1354 0.44075 0.0
H8919 H 0.17073 0.13788 0.45539 0.0
H8920 H 0.15142 0.13196 0.47053 0.0
H8921 H 0.15992 0.13797 0.46291 0.0
H8922 H 0.15458 0.12382 0.44594 0.0
H8923 H 0.14604 0.11798 0.45351 0.0
C8924 C 0.16188 0.14213 0.43751 0.0
C8925 C 0.16833 0.14529 0.43923 0.0
C8926 C 0.1586 0.13755 0.44218 0.0
C8927 C 0.16169 0.13597 0.44871 0.0
C8928 C 0.16822 0.13901 0.45041 0.0
C8929 C 0.17154 0.1436 0.44567 0.0
C8930 C 0.15231 0.12998 0.46526 0.0
C8931 C 0.14815 0.12451 0.4626 0.0
C8932 C 0.15714 0.13343 0.46088 0.0
C8933 C 0.15783 0.13145 0.45378 0.0
C8934 C 0.15408 0.12556 0.45134 0.0
C8935 C 0.14926 0.12216 0.45569 0.0
H8936 H 0.11247 0.9273 0.69674 0.0
H8937 H 0.11361 0.90925 0.68301 0.0
H8938 H 0.12055 0.92148 0.705 0.0
H8939 H 0.1215 0.90345 0.6912 0.0
H8940 H 0.13931 0.89598 0.7035 0.0
H8941 H 0.13349 0.90446 0.69583 0.0
H8942 H 0.12004 0.91077 0.71302 0.0
H8943 H 0.12599 0.90228 0.72073 0.0
C8944 C 0.11451 0.92214 0.69546 0.0
C8945 C 0.11239 0.91871 0.68926 0.0
C8946 C 0.11908 0.9188 0.7002 0.0
C8947 C 0.12169 0.91203 0.69873 0.0
C8948 C 0.11968 0.9087 0.69244 0.0
C8949 C 0.11509 0.912 0.68778 0.0
C8950 C 0.1353 0.89939 0.7057 0.0
C8951 C 0.13312 0.89855 0.7127 0.0
C8952 C 0.13191 0.90418 0.7013 0.0
C8953 C 0.12623 0.90819 0.70379 0.0
C8954 C 0.12443 0.90777 0.71096 0.0
C8955 C 0.12784 0.90295 0.71539 0.0
H8956 H 0.3491 0.85814 0.93828 0.0
H8957 H 0.32925 0.86801 0.9433 0.0
H8958 H 0.35515 0.86633 0.94608 0.0
H8959 H 0.33541 0.87625 0.95118 0.0
H8960 H 0.35489 0.87863 0.97069 0.0
H8961 H 0.34608 0.87242 0.96354 0.0
H8962 H 0.35431 0.88226 0.94485 0.0
H8963 H 0.3629 0.88864 0.95195 0.0
C8964 C 0.34602 0.86201 0.94111 0.0
C8965 C 0.33869 0.8624 0.94021 0.0
C8966 C 0.34949 0.86671 0.94553 0.0
C8967 C 0.34571 0.87187 0.9492 0.0
C8968 C 0.33839 0.87228 0.9484 0.0
C8969 C 0.3349 0.8676 0.94388 0.0
C8970 C 0.35458 0.87973 0.96511 0.0
C8971 C 0.3596 0.88407 0.96187 0.0
C8972 C 0.34958 0.87615 0.96103 0.0
C8973 C 0.3496 0.87686 0.95368 0.0
C8974 C 0.35422 0.88165 0.95052 0.0
C8975 C 0.35911 0.88529 0.95458 0.0
H8976 H 0.40474 0.91193 0.31347 0.0
H8977 H 0.38749 0.92513 0.32011 0.0
H8978 H 0.39719 0.90631 0.30487 0.0
H8979 H 0.37992 0.91963 0.31125 0.0
H8980 H 0.36781 0.89954 0.30281 0.0
H8981 H 0.37452 0.90801 0.30978 0.0
H8982 H 0.39085 0.90796 0.29398 0.0
H8983 H 0.38413 0.89941 0.2871 0.0
C8984 C 0.39934 0.91368 0.31305 0.0
C8985 C 0.3967 0.91893 0.31753 0.0
C8986 C 0.39502 0.91052 0.30803 0.0
C8987 C 0.38795 0.91254 0.30734 0.0
C8988 C 0.38534 0.91794 0.31168 0.0
C8989 C 0.38969 0.92113 0.31671 0.0
C8990 C 0.3727 0.9016 0.30071 0.0
C8991 C 0.37542 0.89897 0.29438 0.0
C8992 C 0.37656 0.90641 0.30471 0.0
C8993 C 0.38326 0.9086 0.30247 0.0
C8994 C 0.38575 0.90631 0.29589 0.0
C8995 C 0.38187 0.90151 0.29189 0.0
H8996 H 0.33933 0.15499 0.55953 0.0
H8997 H 0.33787 0.13678 0.57299 0.0
H8998 H 0.34528 0.14801 0.55064 0.0
H8999 H 0.34413 0.12978 0.56421 0.0
H9000 H 0.35426 0.11793 0.54622 0.0
H9001 H 0.34525 0.12425 0.553 0.0
H9002 H 0.35657 0.1437 0.54959 0.0
H9003 H 0.36519 0.13748 0.54264 0.0
C9004 C 0.34027 0.14947 0.56056 0.0
C9005 C 0.33823 0.14645 0.56698 0.0
C9006 C 0.34372 0.14546 0.55549 0.0
C9007 C 0.34535 0.13835 0.55675 0.0
C9008 C 0.34294 0.13522 0.56302 0.0
C9009 C 0.33937 0.13923 0.56807 0.0
C9010 C 0.35462 0.12359 0.54674 0.0
C9011 C 0.36037 0.12723 0.54389 0.0
C9012 C 0.34954 0.1272 0.55071 0.0
C9013 C 0.35016 0.1345 0.55188 0.0
C9014 C 0.35578 0.13813 0.54872 0.0
C9015 C 0.36077 0.13455 0.54474 0.0
H9016 H 0.11405 0.09847 0.82453 0.0
H9017 H 0.11354 0.08012 0.81116 0.0
H9018 H 0.12215 0.10417 0.81648 0.0
H9019 H 0.12181 0.08587 0.80303 0.0
H9020 H 0.12719 0.10516 0.78722 0.0
H9021 H 0.12129 0.09657 0.79483 0.0
H9022 H 0.13439 0.10305 0.81221 0.0
H9023 H 0.14019 0.11162 0.80464 0.0
C9024 C 0.11572 0.09564 0.81987 0.0
C9025 C 0.11314 0.08887 0.81845 0.0
C9026 C 0.12042 0.09888 0.81529 0.0
C9027 C 0.12267 0.09544 0.80915 0.0
C9028 C 0.12016 0.08862 0.80773 0.0
C9029 C 0.11548 0.08533 0.81239 0.0
C9030 C 0.129 0.10449 0.79258 0.0
C9031 C 0.13414 0.10901 0.79536 0.0
C9032 C 0.12561 0.09962 0.79695 0.0
C9033 C 0.1273 0.09924 0.80414 0.0
C9034 C 0.1329 0.10331 0.80672 0.0
C9035 C 0.13628 0.10815 0.80237 0.0
H9036 H 0.15755 0.85942 0.07223 0.0
H9037 H 0.17756 0.86568 0.06344 0.0
H9038 H 0.15147 0.8664 0.06342 0.0
H9039 H 0.17135 0.87288 0.05463 0.0
H9040 H 0.15303 0.89012 0.04675 0.0
H9041 H 0.16148 0.884 0.05444 0.0
H9042 H 0.1515 0.86421 0.04953 0.0
H9043 H 0.14324 0.87024 0.04182 0.0
C9044 C 0.16066 0.8623 0.06841 0.0
C9045 C 0.16804 0.86186 0.06843 0.0
C9046 C 0.15717 0.86631 0.0634 0.0
C9047 C 0.16096 0.87007 0.0583 0.0
C9048 C 0.16834 0.87 0.05851 0.0
C9049 C 0.17187 0.8659 0.06354 0.0
C9050 C 0.15285 0.88444 0.04711 0.0
C9051 C 0.14748 0.88065 0.04373 0.0
C9052 C 0.15764 0.88095 0.05153 0.0
C9053 C 0.15703 0.87367 0.05263 0.0
C9054 C 0.15201 0.86985 0.04881 0.0
C9055 C 0.14732 0.87329 0.04438 0.0
H9056 H 0.18614 0.38679 0.0842 0.0
H9057 H 0.19629 0.40469 0.09384 0.0
H9058 H 0.19478 0.37899 0.08964 0.0
H9059 H 0.20467 0.39691 0.09953 0.0
H9060 H 0.22125 0.38253 0.10694 0.0
H9061 H 0.21443 0.38904 0.09816 0.0
H9062 H 0.19689 0.37495 0.10146 0.0
H9063 H 0.20379 0.36843 0.11007 0.0
C9064 C 0.19026 0.38907 0.0874 0.0
C9065 C 0.19048 0.39636 0.08863 0.0
C9066 C 0.19518 0.38459 0.09058 0.0
C9067 C 0.20041 0.38731 0.09504 0.0
C9068 C 0.20078 0.39463 0.09605 0.0
C9069 C 0.1959 0.39909 0.09287 0.0
C9070 C 0.21605 0.38067 0.10553 0.0
C9071 C 0.21306 0.37495 0.10907 0.0
C9072 C 0.2121 0.38445 0.1006 0.0
C9073 C 0.20508 0.38257 0.09917 0.0
C9074 C 0.20229 0.37651 0.10236 0.0
C9075 C 0.20624 0.37275 0.10728 0.0
H9076 H 0.68292 0.1142 0.90903 0.0
H9077 H 0.69681 0.11279 0.92694 0.0
H9078 H 0.69104 0.1222 0.90329 0.0
H9079 H 0.70501 0.12098 0.92117 0.0
H9080 H 0.72052 0.1267 0.90188 0.0
H9081 H 0.71293 0.12068 0.9104 0.0
H9082 H 0.69566 0.1342 0.90445 0.0
H9083 H 0.70321 0.1401 0.89594 0.0
C9084 C 0.68771 0.11565 0.91176 0.0
C9085 C 0.68926 0.11284 0.91841 0.0
C9086 C 0.69233 0.1203 0.9085 0.0
C9087 C 0.69864 0.12227 0.9118 0.0
C9088 C 0.70018 0.11955 0.91851 0.0
C9089 C 0.69549 0.11491 0.92182 0.0
C9090 C 0.71519 0.12855 0.90263 0.0
C9091 C 0.71244 0.13385 0.89828 0.0
C9092 C 0.71083 0.12509 0.90747 0.0
C9093 C 0.70366 0.12688 0.90799 0.0
C9094 C 0.70112 0.13262 0.90408 0.0
C9095 C 0.70546 0.13605 0.89927 0.0
H9096 H 0.13664 0.43735 0.17497 0.0
H9097 H 0.15418 0.44502 0.16275 0.0
H9098 H 0.12902 0.44622 0.16953 0.0
H9099 H 0.14659 0.45366 0.15719 0.0
H9100 H 0.13326 0.47125 0.15042 0.0
H9101 H 0.13977 0.46431 0.1591 0.0
H9102 H 0.12414 0.44788 0.15763 0.0
H9103 H 0.11765 0.45488 0.14902 0.0
C9104 C 0.13889 0.44099 0.1712 0.0
C9105 C 0.146 0.44045 0.16925 0.0
C9106 C 0.13452 0.44602 0.16805 0.0
C9107 C 0.1372 0.45066 0.16294 0.0
C9108 C 0.14437 0.45026 0.16119 0.0
C9109 C 0.14871 0.44524 0.1643 0.0
C9110 C 0.13107 0.4663 0.15223 0.0
C9111 C 0.1249 0.46363 0.14919 0.0
C9112 C 0.13484 0.46228 0.15709 0.0
C9113 C 0.13251 0.45551 0.15899 0.0
C9114 C 0.12604 0.45309 0.15634 0.0
C9115 C 0.1223 0.4571 0.15145 0.0
H9116 H 0.8251 0.89444 0.40925 0.0
H9117 H 0.8119 0.89452 0.42772 0.0
H9118 H 0.81715 0.88625 0.40353 0.0
H9119 H 0.80387 0.88616 0.42196 0.0
H9120 H 0.78803 0.88081 0.40266 0.0
H9121 H 0.79559 0.8867 0.4113 0.0
H9122 H 0.81312 0.87389 0.40463 0.0
H9123 H 0.8056 0.86808 0.39602 0.0
C9124 C 0.8205 0.89266 0.4121 0.0
C9125 C 0.81909 0.89514 0.41891 0.0
C9126 C 0.81598 0.8879 0.40886 0.0
C9127 C 0.80992 0.88551 0.41233 0.0
C9128 C 0.80851 0.88792 0.41918 0.0
C9129 C 0.81311 0.89265 0.42248 0.0
C9130 C 0.79342 0.87905 0.40329 0.0
C9131 C 0.79626 0.87401 0.3987 0.0
C9132 C 0.79775 0.88244 0.40819 0.0
C9133 C 0.80497 0.88084 0.40853 0.0
C9134 C 0.8076 0.87531 0.4044 0.0
C9135 C 0.80329 0.87194 0.39953 0.0
H9136 H 0.87094 0.07263 0.1705 0.0
H9137 H 0.85242 0.05978 0.1679 0.0
H9138 H 0.87792 0.06383 0.16423 0.0
H9139 H 0.85937 0.05087 0.16195 0.0
H9140 H 0.8704 0.04307 0.14228 0.0
H9141 H 0.86407 0.04997 0.15085 0.0
H9142 H 0.88318 0.05254 0.16294 0.0
H9143 H 0.88964 0.04584 0.15396 0.0
C9144 C 0.86841 0.06784 0.16874 0.0
C9145 C 0.86113 0.06693 0.16957 0.0
C9146 C 0.87241 0.06277 0.16517 0.0
C9147 C 0.8692 0.05667 0.16245 0.0
C9148 C 0.862 0.05559 0.16376 0.0
C9149 C 0.85801 0.06068 0.16721 0.0
C9150 C 0.87322 0.04498 0.14685 0.0
C9151 C 0.8805 0.04392 0.14747 0.0
C9152 C 0.86958 0.04892 0.15181 0.0
C9153 C 0.87309 0.05184 0.15764 0.0
C9154 C 0.88033 0.05045 0.15848 0.0
C9155 C 0.88401 0.04652 0.15342 0.0
H9156 H 0.3236 0.6218 0.58626 0.0
H9157 H 0.30948 0.6045 0.59047 0.0
H9158 H 0.31543 0.62985 0.59195 0.0
H9159 H 0.30157 0.61242 0.59658 0.0
H9160 H 0.28656 0.62781 0.60536 0.0
H9161 H 0.29341 0.62178 0.59629 0.0
H9162 H 0.31219 0.63234 0.60358 0.0
H9163 H 0.30529 0.63855 0.61233 0.0
C9164 C 0.31872 0.61972 0.58832 0.0
C9165 C 0.31724 0.61248 0.58795 0.0
C9166 C 0.31406 0.62432 0.59167 0.0
C9167 C 0.30785 0.6218 0.5948 0.0
C9168 C 0.30625 0.6146 0.59418 0.0
C9169 C 0.31086 0.61002 0.59076 0.0
C9170 C 0.29209 0.62903 0.60481 0.0
C9171 C 0.2954 0.63362 0.60954 0.0
C9172 C 0.29605 0.62549 0.5997 0.0
C9173 C 0.30339 0.62646 0.59926 0.0
C9174 C 0.30656 0.63148 0.60368 0.0
C9175 C 0.30261 0.63503 0.60873 0.0
H9176 H 0.1551 0.5598 0.33921 0.0
H9177 H 0.13683 0.5732 0.33799 0.0
H9178 H 0.14821 0.55084 0.34513 0.0
H9179 H 0.12993 0.56435 0.34425 0.0
H9180 H 0.11815 0.54632 0.35424 0.0
H9181 H 0.12441 0.55321 0.3453 0.0
H9182 H 0.14396 0.54944 0.35635 0.0
H9183 H 0.13779 0.54232 0.36487 0.0
C9184 C 0.14959 0.56081 0.3402 0.0
C9185 C 0.14652 0.56723 0.33822 0.0
C9186 C 0.14563 0.55569 0.34364 0.0
C9187 C 0.13852 0.5569 0.34534 0.0
C9188 C 0.13536 0.56319 0.34301 0.0
C9189 C 0.13932 0.56828 0.33944 0.0
C9190 C 0.12382 0.54678 0.35456 0.0
C9191 C 0.1275 0.54378 0.36022 0.0
C9192 C 0.1274 0.55082 0.34952 0.0
C9193 C 0.13471 0.55195 0.35009 0.0
C9194 C 0.13837 0.54863 0.3556 0.0
C9195 C 0.13483 0.54456 0.36054 0.0
H9196 H 0.3711 0.43584 0.83461 0.0
H9197 H 0.35318 0.44682 0.84326 0.0
H9198 H 0.37895 0.44437 0.84012 0.0
H9199 H 0.361 0.45508 0.84904 0.0
H9200 H 0.37571 0.47137 0.85665 0.0
H9201 H 0.36925 0.46455 0.84784 0.0
H9202 H 0.38263 0.44663 0.85199 0.0
H9203 H 0.38911 0.45352 0.86062 0.0
C9204 C 0.36883 0.44012 0.8376 0.0
C9205 C 0.36151 0.4406 0.83854 0.0
C9206 C 0.37333 0.44497 0.84083 0.0
C9207 C 0.37062 0.4504 0.84506 0.0
C9208 C 0.36329 0.45103 0.84576 0.0
C9209 C 0.3588 0.44622 0.84252 0.0
C9210 C 0.37743 0.46607 0.85543 0.0
C9211 C 0.38294 0.46297 0.85922 0.0
C9212 C 0.37367 0.46212 0.85048 0.0
C9213 C 0.37536 0.45501 0.84926 0.0
C9214 C 0.38122 0.4521 0.85272 0.0
C9215 C 0.38495 0.45604 0.85766 0.0
H9216 H 0.92346 0.82113 0.61936 0.0
H9217 H 0.91552 0.80885 0.60196 0.0
H9218 H 0.91779 0.81309 0.62759 0.0
H9219 H 0.90955 0.80108 0.61014 0.0
H9220 H 0.90146 0.78585 0.62571 0.0
H9221 H 0.91047 0.79223 0.61906 0.0
H9222 H 0.90589 0.81101 0.63105 0.0
H9223 H 0.89709 0.80456 0.63774 0.0
C9224 C 0.92059 0.81667 0.61728 0.0
C9225 C 0.9199 0.81568 0.60999 0.0
C9226 C 0.91728 0.8121 0.62201 0.0
C9227 C 0.91318 0.80645 0.61954 0.0
C9228 C 0.91273 0.80531 0.61225 0.0
C9229 C 0.91607 0.80984 0.60754 0.0
C9230 C 0.90262 0.79125 0.62709 0.0
C9231 C 0.89866 0.79471 0.63225 0.0
C9232 C 0.90768 0.79495 0.62322 0.0
C9233 C 0.90885 0.80216 0.62446 0.0
C9234 C 0.90521 0.80545 0.62999 0.0
C9235 C 0.90017 0.80177 0.63384 0.0
H9236 H 0.94875 0.17681 0.35992 0.0
H9237 H 0.93334 0.16058 0.36377 0.0
H9238 H 0.95685 0.17102 0.36815 0.0
H9239 H 0.9414 0.15474 0.37175 0.0
H9240 H 0.95441 0.14714 0.389 0.0
H9241 H 0.94701 0.15579 0.38307 0.0
H9242 H 0.96378 0.15997 0.36831 0.0
H9243 H 0.97122 0.15138 0.37441 0.0
C9244 C 0.94707 0.17206 0.36258 0.0
C9245 C 0.94044 0.16911 0.36117 0.0
C9246 C 0.95171 0.16872 0.36724 0.0
C9247 C 0.94976 0.16244 0.37063 0.0
C9248 C 0.94304 0.15963 0.36934 0.0
C9249 C 0.93845 0.16293 0.36469 0.0
C9250 C 0.9566 0.15014 0.38467 0.0
C9251 C 0.96339 0.14871 0.3822 0.0
C9252 C 0.95234 0.15502 0.38121 0.0
C9253 C 0.95477 0.15848 0.37515 0.0
C9254 C 0.96177 0.15743 0.373 0.0
C9255 C 0.96605 0.15254 0.37649 0.0
H9256 H 0.58452 0.18671 0.11963 0.0
H9257 H 0.59221 0.19892 0.10206 0.0
H9258 H 0.59019 0.19486 0.12774 0.0
H9259 H 0.5982 0.20679 0.11012 0.0
H9260 H 0.60637 0.22218 0.12554 0.0
H9261 H 0.59739 0.21569 0.11894 0.0
H9262 H 0.60205 0.19705 0.13112 0.0
H9263 H 0.6108 0.2036 0.13776 0.0
C9264 C 0.58733 0.19118 0.11749 0.0
C9265 C 0.58795 0.19211 0.11018 0.0
C9266 C 0.59066 0.19581 0.12214 0.0
C9267 C 0.59469 0.20147 0.1196 0.0
C9268 C 0.59507 0.20255 0.11229 0.0
C9269 C 0.59172 0.19796 0.10765 0.0
C9270 C 0.60523 0.21678 0.12696 0.0
C9271 C 0.60919 0.21339 0.13218 0.0
C9272 C 0.60019 0.21303 0.12313 0.0
C9273 C 0.59905 0.20582 0.12444 0.0
C9274 C 0.6027 0.2026 0.13001 0.0
C9275 C 0.60772 0.20634 0.13382 0.0
H9276 H 0.5627 0.84639 0.85177 0.0
H9277 H 0.56854 0.8325 0.86879 0.0
H9278 H 0.55417 0.85211 0.85931 0.0
H9279 H 0.55969 0.83806 0.87632 0.0
H9280 H 0.55121 0.85769 0.88901 0.0
H9281 H 0.55816 0.84928 0.88222 0.0
H9282 H 0.54321 0.85084 0.86515 0.0
H9283 H 0.53645 0.85943 0.8719 0.0
C9284 C 0.56211 0.84451 0.85712 0.0
C9285 C 0.56636 0.83904 0.8597 0.0
C9286 C 0.55713 0.84773 0.86142 0.0
C9287 C 0.5562 0.84553 0.86842 0.0
C9288 C 0.5603 0.83991 0.87096 0.0
C9289 C 0.56532 0.83668 0.86663 0.0
C9290 C 0.54929 0.85599 0.88392 0.0
C9291 C 0.54326 0.85907 0.881 0.0
C9292 C 0.55328 0.8512 0.88001 0.0
C9293 C 0.5513 0.84945 0.87309 0.0
C9294 C 0.54496 0.85217 0.87041 0.0
C9295 C 0.54101 0.85699 0.8743 0.0
H9296 H 0.91051 0.19261 0.90501 0.0
H9297 H 0.9273 0.19221 0.88973 0.0
H9298 H 0.90422 0.20117 0.89796 0.0
H9299 H 0.92104 0.20104 0.88268 0.0
H9300 H 0.90168 0.20859 0.86869 0.0
H9301 H 0.91025 0.20171 0.87544 0.0
H9302 H 0.90455 0.21321 0.89421 0.0
H9303 H 0.89591 0.21989 0.88747 0.0
C9304 C 0.91288 0.19441 0.90015 0.0
C9305 C 0.91938 0.1917 0.8979 0.0
C9306 C 0.90931 0.19939 0.89614 0.0
C9307 C 0.91215 0.20185 0.88977 0.0
C9308 C 0.91871 0.19924 0.88755 0.0
C9309 C 0.92232 0.19424 0.89161 0.0
C9310 C 0.90249 0.2098 0.8742 0.0
C9311 C 0.89826 0.21482 0.87757 0.0
C9312 C 0.90736 0.20585 0.87808 0.0
C9313 C 0.90802 0.20685 0.88539 0.0
C9314 C 0.90409 0.21223 0.88862 0.0
C9315 C 0.89923 0.21613 0.88475 0.0
H9316 H 0.5681 0.17592 0.63903 0.0
H9317 H 0.56287 0.16146 0.65576 0.0
H9318 H 0.55934 0.17027 0.63145 0.0
H9319 H 0.55437 0.15571 0.64818 0.0
H9320 H 0.53659 0.14842 0.63547 0.0
H9321 H 0.54321 0.15703 0.64236 0.0
H9322 H 0.55829 0.15888 0.62544 0.0
H9323 H 0.55154 0.15036 0.61856 0.0
C9324 C 0.56503 0.1716 0.64111 0.0
C9325 C 0.56621 0.1691 0.64797 0.0
C9326 C 0.56006 0.16833 0.63676 0.0
C9327 C 0.55614 0.16255 0.63921 0.0
C9328 C 0.5572 0.16021 0.64614 0.0
C9329 C 0.56215 0.16346 0.65047 0.0
C9330 C 0.54115 0.15093 0.63313 0.0
C9331 C 0.5435 0.14888 0.62646 0.0
C9332 C 0.54501 0.15576 0.6371 0.0
C9333 C 0.55133 0.15858 0.63448 0.0
C9334 C 0.55341 0.15688 0.62759 0.0
C9335 C 0.54954 0.15203 0.62363 0.0
H9336 H 0.5893 0.80854 0.40684 0.0
H9337 H 0.58675 0.82217 0.38887 0.0
H9338 H 0.59519 0.7999 0.39952 0.0
H9339 H 0.59295 0.81365 0.38152 0.0
H9340 H 0.60273 0.79604 0.36894 0.0
H9341 H 0.59398 0.80262 0.37579 0.0
H9342 H 0.6062 0.79893 0.39464 0.0
H9343 H 0.61453 0.79209 0.38792 0.0
C9344 C 0.59 0.80967 0.4013 0.0
C9345 C 0.58765 0.81605 0.39844 0.0
C9346 C 0.59342 0.80473 0.39709 0.0
C9347 C 0.5947 0.8061 0.38993 0.0
C9348 C 0.59202 0.81236 0.38699 0.0
C9349 C 0.58849 0.81727 0.3912 0.0
C9350 C 0.60336 0.79645 0.37459 0.0
C9351 C 0.60929 0.79356 0.37791 0.0
C9352 C 0.59843 0.80032 0.3785 0.0
C9353 C 0.59938 0.80136 0.38579 0.0
C9354 C 0.60517 0.79816 0.38909 0.0
C9355 C 0.61 0.79427 0.38523 0.0
H9356 H 0.94422 0.84714 0.15514 0.0
H9357 H 0.94024 0.83168 0.13899 0.0
H9358 H 0.95287 0.8528 0.14766 0.0
H9359 H 0.94911 0.8373 0.13147 0.0
H9360 H 0.95682 0.85734 0.11829 0.0
H9361 H 0.94998 0.84879 0.12508 0.0
H9362 H 0.96447 0.85111 0.14244 0.0
H9363 H 0.97119 0.8597 0.13565 0.0
C9364 C 0.94525 0.84491 0.15 0.0
C9365 C 0.94151 0.839 0.14763 0.0
C9366 C 0.95027 0.84811 0.14574 0.0
C9367 C 0.95172 0.84547 0.13899 0.0
C9368 C 0.9481 0.83945 0.13665 0.0
C9369 C 0.94307 0.83621 0.14096 0.0
C9370 C 0.95869 0.85575 0.12343 0.0
C9371 C 0.96459 0.85903 0.12642 0.0
C9372 C 0.95477 0.8509 0.12734 0.0
C9373 C 0.95665 0.84934 0.13432 0.0
C9374 C 0.96285 0.85226 0.1371 0.0
C9375 C 0.96676 0.85709 0.13319 0.0
H9376 H 0.60327 0.91788 0.80831 0.0
H9377 H 0.62021 0.9226 0.82271 0.0
H9378 H 0.61147 0.91177 0.80065 0.0
H9379 H 0.6285 0.91684 0.81483 0.0
H9380 H 0.63718 0.89597 0.80542 0.0
H9381 H 0.63086 0.90492 0.81199 0.0
H9382 H 0.6212 0.91219 0.79271 0.0
H9383 H 0.62743 0.90298 0.78619 0.0
C9384 C 0.60877 0.9177 0.8098 0.0
C9385 C 0.61105 0.92065 0.81619 0.0
C9386 C 0.6135 0.91429 0.80534 0.0
C9387 C 0.62066 0.91378 0.80712 0.0
C9388 C 0.62301 0.91705 0.81333 0.0
C9389 C 0.61826 0.92043 0.81782 0.0
C9390 C 0.63387 0.89963 0.80257 0.0
C9391 C 0.63278 0.89881 0.79531 0.0
C9392 C 0.63024 0.90478 0.80633 0.0
C9393 C 0.62545 0.90925 0.8029 0.0
C9394 C 0.62477 0.90876 0.79553 0.0
C9395 C 0.62841 0.90358 0.79177 0.0
H9396 H 0.84904 0.8584 0.57139 0.0
H9397 H 0.82953 0.86334 0.56086 0.0
H9398 H 0.85519 0.86688 0.56406 0.0
H9399 H 0.83577 0.87192 0.55343 0.0
H9400 H 0.85492 0.87783 0.53686 0.0
H9401 H 0.84628 0.87118 0.54383 0.0
H9402 H 0.85455 0.88042 0.56284 0.0
H9403 H 0.86304 0.88708 0.55593 0.0
C9404 C 0.84607 0.86129 0.56748 0.0
C9405 C 0.83882 0.86019 0.56667 0.0
C9406 C 0.84958 0.86619 0.56332 0.0
C9407 C 0.84593 0.87008 0.55822 0.0
C9408 C 0.83868 0.86898 0.55734 0.0
C9409 C 0.83513 0.86411 0.5616 0.0
C9410 C 0.85467 0.87864 0.54249 0.0
C9411 C 0.85966 0.88291 0.54587 0.0
C9412 C 0.84977 0.87482 0.54647 0.0
C9413 C 0.84986 0.87521 0.55386 0.0
C9414 C 0.85444 0.87996 0.55716 0.0
C9415 C 0.85926 0.8838 0.5532 0.0
H9416 H 0.90433 0.09041 0.30837 0.0
H9417 H 0.88722 0.08504 0.32232 0.0
H9418 H 0.89617 0.09643 0.30063 0.0
H9419 H 0.87895 0.09072 0.31434 0.0
H9420 H 0.87004 0.11158 0.305 0.0
H9421 H 0.8763 0.10258 0.31157 0.0
H9422 H 0.88669 0.09591 0.29247 0.0
H9423 H 0.88055 0.10517 0.28596 0.0
C9424 C 0.89881 0.09043 0.30974 0.0
C9425 C 0.89646 0.08732 0.31603 0.0
C9426 C 0.89409 0.09379 0.30523 0.0
C9427 C 0.88688 0.09409 0.30685 0.0
C9428 C 0.88448 0.09067 0.31296 0.0
C9429 C 0.88921 0.08734 0.31751 0.0
C9430 C 0.87349 0.10802 0.30218 0.0
C9431 C 0.87483 0.10905 0.29499 0.0
C9432 C 0.87708 0.10285 0.30594 0.0
C9433 C 0.88208 0.09856 0.30258 0.0
C9434 C 0.88297 0.09921 0.29525 0.0
C9435 C 0.87938 0.10442 0.29148 0.0
H9436 H 0.67408 0.13848 0.07021 0.0
H9437 H 0.66385 0.15608 0.06009 0.0
H9438 H 0.66849 0.13047 0.06187 0.0
H9439 H 0.65803 0.14809 0.05202 0.0
H9440 H 0.65054 0.13328 0.03579 0.0
H9441 H 0.65933 0.14007 0.04232 0.0
H9442 H 0.65664 0.12623 0.06017 0.0
H9443 H 0.64799 0.11945 0.05356 0.0
C9444 C 0.67072 0.14065 0.06616 0.0
C9445 C 0.66937 0.14792 0.06586 0.0
C9446 C 0.66746 0.13605 0.06142 0.0
C9447 C 0.66279 0.13862 0.05628 0.0
C9448 C 0.66166 0.14592 0.05584 0.0
C9449 C 0.66492 0.1505 0.06055 0.0
C9450 C 0.65208 0.13155 0.04099 0.0
C9451 C 0.64871 0.12581 0.04415 0.0
C9452 C 0.65701 0.13548 0.04478 0.0
C9453 C 0.65863 0.13374 0.0518 0.0
C9454 C 0.65559 0.12768 0.05476 0.0
C9455 C 0.65066 0.12378 0.05098 0.0
H9456 H 0.6029 0.09012 0.69984 0.0
H9457 H 0.6199 0.0853 0.68555 0.0
H9458 H 0.61107 0.09623 0.70752 0.0
H9459 H 0.62816 0.09106 0.69346 0.0
H9460 H 0.6369 0.11189 0.70287 0.0
H9461 H 0.63057 0.10295 0.69629 0.0
H9462 H 0.62073 0.09582 0.71552 0.0
H9463 H 0.62697 0.10501 0.72206 0.0
C9464 C 0.6084 0.09027 0.69838 0.0
C9465 C 0.61071 0.0873 0.69202 0.0
C9466 C 0.61312 0.09369 0.70286 0.0
C9467 C 0.62029 0.09417 0.70111 0.0
C9468 C 0.62266 0.09087 0.69493 0.0
C9469 C 0.61793 0.0875 0.69042 0.0
C9470 C 0.63355 0.10825 0.70571 0.0
C9471 C 0.63241 0.1091 0.71296 0.0
C9472 C 0.62992 0.10311 0.70195 0.0
C9473 C 0.62507 0.09869 0.70535 0.0
C9474 C 0.62434 0.09921 0.71272 0.0
C9475 C 0.62798 0.10439 0.71649 0.0
H9476 H 0.66203 0.85284 0.44437 0.0
H9477 H 0.67701 0.86946 0.4405 0.0
H9478 H 0.65595 0.86022 0.45282 0.0
H9479 H 0.67096 0.87689 0.44917 0.0
H9480 H 0.65056 0.88962 0.45657 0.0
H9481 H 0.65932 0.88296 0.44985 0.0
H9482 H 0.65714 0.8656 0.46436 0.0
H9483 H 0.64834 0.87225 0.47096 0.0
C9484 C 0.66407 0.85807 0.44539 0.0
C9485 C 0.66997 0.86059 0.44173 0.0
C9486 C 0.66062 0.86228 0.4503 0.0
C9487 C 0.66299 0.86914 0.45171 0.0
C9488 C 0.669 0.87163 0.44818 0.0
C9489 C 0.67249 0.86737 0.44327 0.0
C9490 C 0.65221 0.8845 0.45846 0.0
C9491 C 0.64893 0.88147 0.46434 0.0
C9492 C 0.65718 0.88067 0.45461 0.0
C9493 C 0.65887 0.87372 0.45653 0.0
C9494 C 0.65589 0.8709 0.46269 0.0
C9495 C 0.65095 0.87474 0.46654 0.0
H9496 H 0.88833 0.92371 0.1868 0.0
H9497 H 0.90592 0.91492 0.19821 0.0
H9498 H 0.88023 0.91797 0.19493 0.0
H9499 H 0.89785 0.90891 0.20607 0.0
H9500 H 0.88253 0.90104 0.22172 0.0
H9501 H 0.88923 0.90996 0.21527 0.0
H9502 H 0.87659 0.90599 0.19679 0.0
H9503 H 0.86988 0.89723 0.2033 0.0
C9504 C 0.89048 0.92064 0.19109 0.0
C9505 C 0.89779 0.91973 0.19181 0.0
C9506 C 0.88583 0.91729 0.19571 0.0
C9507 C 0.88838 0.91295 0.20114 0.0
C9508 C 0.89569 0.91227 0.20201 0.0
C9509 C 0.90033 0.91564 0.19742 0.0
C9510 C 0.88103 0.90231 0.21637 0.0
C9511 C 0.87566 0.89854 0.21301 0.0
C9512 C 0.88492 0.90733 0.21264 0.0
C9513 C 0.8835 0.90864 0.20549 0.0
C9514 C 0.87779 0.90519 0.2023 0.0
C9515 C 0.87393 0.90017 0.20602 0.0
H9516 H 0.83135 0.13985 0.94 0.0
H9517 H 0.84714 0.15565 0.9441 0.0
H9518 H 0.83674 0.1322 0.94885 0.0
H9519 H 0.85265 0.14798 0.95267 0.0
H9520 H 0.85938 0.13559 0.97087 0.0
H9521 H 0.85117 0.1428 0.96411 0.0
H9522 H 0.84766 0.12538 0.94992 0.0
H9523 H 0.85578 0.11817 0.95683 0.0
C9524 C 0.83592 0.14171 0.94284 0.0
C9525 C 0.83884 0.14833 0.94132 0.0
C9526 C 0.83904 0.13731 0.94786 0.0
C9527 C 0.84511 0.13948 0.95149 0.0
C9528 C 0.84791 0.14618 0.95007 0.0
C9529 C 0.84481 0.15055 0.94508 0.0
C9530 C 0.85658 0.13324 0.9665 0.0
C9531 C 0.85804 0.12631 0.96444 0.0
C9532 C 0.85199 0.13738 0.96255 0.0
C9533 C 0.84883 0.13469 0.95642 0.0
C9534 C 0.84994 0.12759 0.95465 0.0
C9535 C 0.85454 0.12344 0.95862 0.0
H9536 H 0.8206 0.61922 0.92445 0.0
H9537 H 0.81011 0.60188 0.91418 0.0
H9538 H 0.81227 0.6274 0.91912 0.0
H9539 H 0.80205 0.61005 0.90858 0.0
H9540 H 0.78578 0.62512 0.9017 0.0
H9541 H 0.79246 0.61808 0.91016 0.0
H9542 H 0.81029 0.63193 0.90748 0.0
H9543 H 0.80352 0.63898 0.89918 0.0
C9544 C 0.81647 0.61714 0.92113 0.0
C9545 C 0.81606 0.60989 0.91971 0.0
C9546 C 0.81174 0.62184 0.91801 0.0
C9547 C 0.80649 0.61939 0.91341 0.0
C9548 C 0.80595 0.61212 0.91217 0.0
C9549 C 0.81066 0.60744 0.9153 0.0
C9550 C 0.79101 0.62681 0.9032 0.0
C9551 C 0.79411 0.63264 0.89994 0.0
C9552 C 0.79489 0.62272 0.90793 0.0
C9553 C 0.80195 0.62439 0.90945 0.0
C9554 C 0.80486 0.63053 0.90652 0.0
C9555 C 0.80098 0.6346 0.90179 0.0
H9556 H 0.30835 0.90508 0.09046 0.0
H9557 H 0.32241 0.88795 0.08539 0.0
H9558 H 0.30069 0.89697 0.09666 0.0
H9559 H 0.3145 0.87975 0.09121 0.0
H9560 H 0.30528 0.87079 0.11195 0.0
H9561 H 0.3118 0.87722 0.10305 0.0
H9562 H 0.29259 0.88742 0.09639 0.0
H9563 H 0.28612 0.88109 0.10556 0.0
C9564 C 0.30977 0.89956 0.09058 0.0
C9565 C 0.31607 0.8972 0.0875 0.0
C9566 C 0.3053 0.89488 0.09405 0.0
C9567 C 0.30698 0.88769 0.09447 0.0
C9568 C 0.31309 0.88526 0.09108 0.0
C9569 C 0.31759 0.88997 0.08765 0.0
C9570 C 0.30243 0.87426 0.10844 0.0
C9571 C 0.29521 0.87546 0.10943 0.0
C9572 C 0.30616 0.87794 0.10331 0.0
C9573 C 0.30275 0.88291 0.09902 0.0
C9574 C 0.29541 0.88372 0.09968 0.0
C9575 C 0.29167 0.88003 0.10484 0.0
H9576 H 0.85319 0.56536 0.84705 0.0
H9577 H 0.86861 0.56571 0.8304 0.0
H9578 H 0.86023 0.5569 0.85349 0.0
H9579 H 0.87566 0.55698 0.8368 0.0
H9580 H 0.88955 0.54966 0.8563 0.0
H9581 H 0.88281 0.55645 0.84764 0.0
H9582 H 0.86408 0.5449 0.85332 0.0
H9583 H 0.8708 0.53831 0.86204 0.0
C9584 C 0.85808 0.56357 0.84474 0.0
C9585 C 0.86037 0.56624 0.83824 0.0
C9586 C 0.86209 0.55865 0.84839 0.0
C9587 C 0.8685 0.55621 0.84564 0.0
C9588 C 0.87076 0.55877 0.83907 0.0
C9589 C 0.8667 0.56371 0.83538 0.0
C9590 C 0.88405 0.54842 0.85547 0.0
C9591 C 0.88069 0.54341 0.85972 0.0
C9592 C 0.88018 0.55232 0.85055 0.0
C9593 C 0.87288 0.55128 0.84985 0.0
C9594 C 0.86966 0.54592 0.8538 0.0
C9595 C 0.87351 0.54207 0.85872 0.0
H9596 H 0.19795 0.11154 0.58047 0.0
H9597 H 0.18405 0.11226 0.59841 0.0
H9598 H 0.20586 0.11995 0.58632 0.0
H9599 H 0.19189 0.12047 0.60424 0.0
H9600 H 0.20348 0.1387 0.61176 0.0
H9601 H 0.1961 0.13263 0.6032 0.0
H9602 H 0.21379 0.11976 0.59709 0.0
H9603 H 0.22121 0.12596 0.60565 0.0
C9604 C 0.19656 0.11355 0.58562 0.0
C9605 C 0.19042 0.11123 0.58901 0.0
C9606 C 0.20109 0.11831 0.58898 0.0
C9607 C 0.19947 0.1209 0.59571 0.0
C9608 C 0.19324 0.11867 0.599 0.0
C9609 C 0.18878 0.1139 0.5957 0.0
C9610 C 0.20585 0.13478 0.60837 0.0
C9611 C 0.2129 0.13282 0.60928 0.0
C9612 C 0.20161 0.13124 0.60354 0.0
C9613 C 0.20434 0.12564 0.59957 0.0
C9614 C 0.21156 0.12408 0.60005 0.0
C9615 C 0.21581 0.12764 0.60491 0.0
H9616 H 0.155 0.9497 0.84054 0.0
H9617 H 0.13787 0.93557 0.83566 0.0
H9618 H 0.14692 0.95737 0.84679 0.0
H9619 H 0.1297 0.94347 0.84158 0.0
H9620 H 0.12112 0.95278 0.8625 0.0
H9621 H 0.12749 0.94618 0.8536 0.0
H9622 H 0.13721 0.96544 0.84636 0.0
H9623 H 0.13089 0.972 0.8555 0.0
C9624 C 0.14949 0.94827 0.84072 0.0
C9625 C 0.14711 0.94196 0.83767 0.0
C9626 C 0.14483 0.95274 0.84421 0.0
C9627 C 0.13765 0.95104 0.84471 0.0
C9628 C 0.13521 0.9449 0.84137 0.0
C9629 C 0.13989 0.94041 0.8379 0.0
C9630 C 0.12446 0.95561 0.85886 0.0
C9631 C 0.12552 0.96288 0.85964 0.0
C9632 C 0.12811 0.95184 0.85374 0.0
C9633 C 0.13292 0.95526 0.84929 0.0
C9634 C 0.13362 0.96263 0.84978 0.0
C9635 C 0.12994 0.96641 0.85492 0.0
H9636 H 0.69426 0.40566 0.41065 0.0
H9637 H 0.69033 0.38946 0.42608 0.0
H9638 H 0.70286 0.39819 0.40493 0.0
H9639 H 0.69919 0.38198 0.42043 0.0
H9640 H 0.70694 0.36858 0.40074 0.0
H9641 H 0.70013 0.3755 0.40919 0.0
H9642 H 0.71437 0.39297 0.40626 0.0
H9643 H 0.72105 0.38606 0.39773 0.0
C9644 C 0.69529 0.40051 0.41286 0.0
C9645 C 0.69157 0.39812 0.41878 0.0
C9646 C 0.7003 0.39625 0.40963 0.0
C9647 C 0.70176 0.38949 0.41224 0.0
C9648 C 0.69817 0.38715 0.41828 0.0
C9649 C 0.69314 0.39145 0.42154 0.0
C9650 C 0.70876 0.37379 0.40216 0.0
C9651 C 0.71458 0.37677 0.39873 0.0
C9652 C 0.70485 0.37777 0.40697 0.0
C9653 C 0.70666 0.38482 0.40834 0.0
C9654 C 0.71278 0.38759 0.40525 0.0
C9655 C 0.71668 0.38362 0.40046 0.0
H9656 H 0.86959 0.43598 0.67248 0.0
H9657 H 0.85219 0.44919 0.66619 0.0
H9658 H 0.87774 0.444 0.66669 0.0
H9659 H 0.86027 0.45695 0.66007 0.0
H9660 H 0.87606 0.47198 0.65169 0.0
H9661 H 0.86956 0.46544 0.66071 0.0
H9662 H 0.88056 0.44644 0.65474 0.0
H9663 H 0.8871 0.45302 0.64595 0.0
C9664 C 0.8675 0.44064 0.66995 0.0
C9665 C 0.86022 0.44189 0.66976 0.0
C9666 C 0.87217 0.4452 0.66656 0.0
C9667 C 0.86967 0.4511 0.66286 0.0
C9668 C 0.86241 0.45251 0.66292 0.0
C9669 C 0.85775 0.44798 0.66635 0.0
C9670 C 0.87725 0.46647 0.65253 0.0
C9671 C 0.88209 0.463 0.64819 0.0
C9672 C 0.87347 0.46269 0.65761 0.0
C9673 C 0.87447 0.45539 0.65841 0.0
C9674 C 0.87968 0.45206 0.65436 0.0
C9675 C 0.88344 0.45582 0.6493 0.0
H9676 H 0.64537 0.57505 0.16027 0.0
H9677 H 0.64809 0.55981 0.17689 0.0
H9678 H 0.63717 0.56726 0.15438 0.0
H9679 H 0.63965 0.55197 0.17102 0.0
H9680 H 0.63321 0.53763 0.15134 0.0
H9681 H 0.63951 0.54489 0.15995 0.0
H9682 H 0.62551 0.56223 0.15546 0.0
H9683 H 0.61938 0.55501 0.1468 0.0
C9684 C 0.64415 0.57004 0.16269 0.0
C9685 C 0.64741 0.56801 0.169 0.0
C9686 C 0.63938 0.5656 0.15936 0.0
C9687 C 0.63772 0.55901 0.16226 0.0
C9688 C 0.64085 0.55701 0.16866 0.0
C9689 C 0.64563 0.56151 0.17204 0.0
C9690 C 0.63135 0.54291 0.15243 0.0
C9691 C 0.62581 0.54578 0.14851 0.0
C9692 C 0.63495 0.54707 0.15732 0.0
C9693 C 0.63306 0.55416 0.1583 0.0
C9694 C 0.62716 0.55682 0.15474 0.0
C9695 C 0.62359 0.55268 0.14985 0.0
H9696 H 0.59822 0.68285 0.89316 0.0
H9697 H 0.58045 0.69685 0.89514 0.0
H9698 H 0.60384 0.69104 0.88515 0.0
H9699 H 0.58609 0.70511 0.88693 0.0
H9700 H 0.60535 0.72062 0.88129 0.0
H9701 H 0.59683 0.71294 0.8872 0.0
H9702 H 0.60263 0.69592 0.87331 0.0
H9703 H 0.61116 0.70356 0.86753 0.0
C9704 C 0.59549 0.68767 0.89183 0.0
C9705 C 0.58892 0.68924 0.89482 0.0
C9706 C 0.59868 0.69234 0.88718 0.0
C9707 C 0.59538 0.6987 0.88536 0.0
C9708 C 0.58875 0.70024 0.88824 0.0
C9709 C 0.58551 0.69551 0.89289 0.0
C9710 C 0.60454 0.71533 0.87932 0.0
C9711 C 0.60884 0.71267 0.87394 0.0
C9712 C 0.59971 0.71092 0.88271 0.0
C9713 C 0.59916 0.70379 0.88079 0.0
C9714 C 0.60302 0.70135 0.87498 0.0
C9715 C 0.60783 0.70574 0.87161 0.0
H9716 H 0.57146 0.33364 0.1368 0.0
H9717 H 0.56195 0.34423 0.15452 0.0
H9718 H 0.56268 0.33886 0.129 0.0
H9719 H 0.55344 0.34969 0.14672 0.0
H9720 H 0.53636 0.35636 0.13253 0.0
H9721 H 0.54341 0.34795 0.13927 0.0
H9722 H 0.56045 0.35048 0.12442 0.0
H9723 H 0.55331 0.35874 0.11769 0.0
C9724 C 0.56745 0.33701 0.13905 0.0
C9725 C 0.56745 0.33855 0.14628 0.0
C9726 C 0.56246 0.34006 0.13457 0.0
C9727 C 0.55735 0.3447 0.13722 0.0
C9728 C 0.55722 0.34606 0.14449 0.0
C9729 C 0.56218 0.34301 0.14896 0.0
C9730 C 0.54148 0.35484 0.13056 0.0
C9731 C 0.54426 0.35805 0.12454 0.0
C9732 C 0.54558 0.35013 0.13447 0.0
C9733 C 0.55254 0.3486 0.13243 0.0
C9734 C 0.5551 0.35146 0.12611 0.0
C9735 C 0.55101 0.35617 0.12223 0.0
H9736 H 0.91155 0.31336 0.40499 0.0
H9737 H 0.92455 0.32011 0.38762 0.0
H9738 H 0.90583 0.30483 0.39745 0.0
H9739 H 0.91903 0.31125 0.38009 0.0
H9740 H 0.89934 0.30265 0.36778 0.0
H9741 H 0.90773 0.30962 0.37457 0.0
H9742 H 0.90705 0.29409 0.39118 0.0
H9743 H 0.89852 0.28726 0.38439 0.0
C9744 C 0.91324 0.31298 0.39956 0.0
C9745 C 0.91845 0.31749 0.39689 0.0
C9746 C 0.91003 0.30799 0.39525 0.0
C9747 C 0.91198 0.30732 0.38815 0.0
C9748 C 0.91737 0.31167 0.38552 0.0
C9749 C 0.92058 0.31669 0.38985 0.0
C9750 C 0.90123 0.30062 0.37276 0.0
C9751 C 0.89843 0.29438 0.37553 0.0
C9752 C 0.90601 0.30461 0.37667 0.0
C9753 C 0.90801 0.30246 0.38347 0.0
C9754 C 0.90554 0.29596 0.38602 0.0
C9755 C 0.90076 0.29198 0.3821 0.0
H9756 H 0.9325 0.6595 0.64288 0.0
H9757 H 0.94722 0.67656 0.64571 0.0
H9758 H 0.94068 0.65366 0.63503 0.0
H9759 H 0.95544 0.67075 0.63761 0.0
H9760 H 0.9705 0.65144 0.63167 0.0
H9761 H 0.96289 0.65998 0.63764 0.0
H9762 H 0.94592 0.65462 0.62351 0.0
H9763 H 0.95346 0.64603 0.61772 0.0
C9764 C 0.93748 0.66203 0.64177 0.0
C9765 C 0.93924 0.66846 0.64495 0.0
C9766 C 0.94215 0.65872 0.6372 0.0
C9767 C 0.9487 0.66177 0.63564 0.0
C9768 C 0.95044 0.66827 0.63872 0.0
C9769 C 0.94572 0.67162 0.6433 0.0
C9770 C 0.96523 0.65233 0.62969 0.0
C9771 C 0.96255 0.64813 0.62424 0.0
C9772 C 0.96086 0.65718 0.63312 0.0
C9773 C 0.95376 0.65787 0.63113 0.0
C9774 C 0.95131 0.6541 0.62526 0.0
C9775 C 0.95565 0.64926 0.62188 0.0
H9776 H 0.59884 0.32479 0.61336 0.0
H9777 H 0.58055 0.31133 0.61297 0.0
H9778 H 0.60472 0.31665 0.62125 0.0
H9779 H 0.58646 0.30313 0.62105 0.0
H9780 H 0.60561 0.28723 0.62632 0.0
H9781 H 0.5971 0.29495 0.62039 0.0
H9782 H 0.60385 0.3123 0.63341 0.0
H9783 H 0.61234 0.30463 0.63921 0.0
C9784 C 0.59606 0.32009 0.61501 0.0
C9785 C 0.58926 0.31867 0.61252 0.0
C9786 C 0.5994 0.31546 0.61959 0.0
C9787 C 0.59603 0.30927 0.62181 0.0
C9788 C 0.58918 0.30786 0.61941 0.0
C9789 C 0.58579 0.31256 0.61484 0.0
C9790 C 0.60503 0.29262 0.62808 0.0
C9791 C 0.60956 0.29536 0.63323 0.0
C9792 C 0.60021 0.29704 0.62468 0.0
C9793 C 0.5999 0.30425 0.62636 0.0
C9794 C 0.60405 0.3068 0.63192 0.0
C9795 C 0.60884 0.30241 0.6353 0.0
H9796 H 0.94712 0.33109 0.8619 0.0
H9797 H 0.93197 0.34741 0.86637 0.0
H9798 H 0.95545 0.33665 0.87005 0.0
H9799 H 0.94026 0.35302 0.87426 0.0
H9800 H 0.95369 0.36049 0.8911 0.0
H9801 H 0.94613 0.35183 0.8854 0.0
H9802 H 0.96252 0.34756 0.87024 0.0
H9803 H 0.97013 0.35614 0.87612 0.0
C9804 C 0.94555 0.33581 0.86468 0.0
C9805 C 0.93892 0.33885 0.86346 0.0
C9806 C 0.95033 0.33901 0.8693 0.0
C9807 C 0.94852 0.34526 0.87283 0.0
C9808 C 0.9418 0.34815 0.87174 0.0
C9809 C 0.93707 0.34499 0.86714 0.0
C9810 C 0.95577 0.35745 0.88675 0.0
C9811 C 0.9625 0.35888 0.88408 0.0
C9812 C 0.95142 0.35257 0.88341 0.0
C9813 C 0.95368 0.34911 0.87728 0.0
C9814 C 0.96064 0.35011 0.87497 0.0
C9815 C 0.96502 0.35498 0.87835 0.0
H9816 H 0.91286 0.69571 0.10323 0.0
H9817 H 0.92455 0.68743 0.12087 0.0
H9818 H 0.90723 0.70422 0.1109 0.0
H9819 H 0.91907 0.69619 0.12856 0.0
H9820 H 0.89864 0.70479 0.13987 0.0
H9821 H 0.90723 0.69787 0.13328 0.0
H9822 H 0.9089 0.71464 0.11801 0.0
H9823 H 0.90022 0.72148 0.12462 0.0
C9824 C 0.91429 0.69576 0.10875 0.0
C9825 C 0.9191 0.69084 0.11145 0.0
C9826 C 0.91112 0.70071 0.11313 0.0
C9827 C 0.91271 0.70091 0.12035 0.0
C9828 C 0.91771 0.69615 0.12303 0.0
C9829 C 0.92089 0.69117 0.11862 0.0
C9830 C 0.90109 0.70709 0.13527 0.0
C9831 C 0.89889 0.71369 0.13279 0.0
C9832 C 0.90598 0.70313 0.13147 0.0
C9833 C 0.9087 0.70567 0.12508 0.0
C9834 C 0.90684 0.7125 0.12288 0.0
C9835 C 0.90197 0.71647 0.1267 0.0
H9836 H 0.5704 0.67469 0.37136 0.0
H9837 H 0.56263 0.66242 0.35389 0.0
H9838 H 0.56154 0.66933 0.37902 0.0
H9839 H 0.55398 0.65696 0.36152 0.0
H9840 H 0.53641 0.65034 0.37494 0.0
H9841 H 0.54334 0.659 0.36841 0.0
H9842 H 0.55988 0.65739 0.38392 0.0
H9843 H 0.55289 0.64879 0.39042 0.0
C9844 C 0.56674 0.67093 0.36914 0.0
C9845 C 0.56725 0.66894 0.36203 0.0
C9846 C 0.56171 0.66783 0.37353 0.0
C9847 C 0.55704 0.66273 0.37088 0.0
C9848 C 0.55741 0.66094 0.36372 0.0
C9849 C 0.56244 0.66401 0.35936 0.0
C9850 C 0.54138 0.65211 0.3771 0.0
C9851 C 0.54409 0.64902 0.38323 0.0
C9852 C 0.5454 0.65697 0.37332 0.0
C9853 C 0.5522 0.65882 0.3756 0.0
C9854 C 0.55465 0.65614 0.38205 0.0
C9855 C 0.55064 0.65125 0.3858 0.0
H9856 H 0.89503 0.58048 0.6963 0.0
H9857 H 0.89374 0.59838 0.68238 0.0
H9858 H 0.88671 0.58621 0.70438 0.0
H9859 H 0.88562 0.6041 0.6904 0.0
H9860 H 0.86795 0.61176 0.70249 0.0
H9861 H 0.87364 0.60306 0.69498 0.0
H9862 H 0.88706 0.59693 0.71226 0.0
H9863 H 0.88123 0.60561 0.71981 0.0
C9864 C 0.8929 0.58559 0.69494 0.0
C9865 C 0.89504 0.58901 0.68875 0.0
C9866 C 0.88819 0.58888 0.69957 0.0
C9867 C 0.88548 0.59558 0.698 0.0
C9868 C 0.88751 0.59889 0.69171 0.0
C9869 C 0.89223 0.59564 0.68715 0.0
C9870 C 0.87191 0.60834 0.70475 0.0
C9871 C 0.87416 0.60931 0.71171 0.0
C9872 C 0.87522 0.60342 0.70044 0.0
C9873 C 0.88089 0.59942 0.703 0.0
C9874 C 0.88269 0.59992 0.71016 0.0
C9875 C 0.87934 0.60486 0.71449 0.0
H9876 H 0.67663 0.64612 0.94726 0.0
H9877 H 0.65996 0.642 0.93239 0.0
H9878 H 0.67115 0.63793 0.95562 0.0
H9879 H 0.65445 0.63404 0.94069 0.0
H9880 H 0.64718 0.61707 0.95403 0.0
H9881 H 0.6558 0.62277 0.94643 0.0
H9882 H 0.66022 0.63786 0.96284 0.0
H9883 H 0.65167 0.63199 0.97048 0.0
C9884 C 0.67186 0.6434 0.94575 0.0
C9885 C 0.66869 0.64473 0.9392 0.0
C9886 C 0.6687 0.63876 0.95054 0.0
C9887 C 0.66239 0.63531 0.94881 0.0
C9888 C 0.65937 0.6365 0.94217 0.0
C9889 C 0.66249 0.64114 0.93743 0.0
C9890 C 0.65024 0.6214 0.9561 0.0
C9891 C 0.64886 0.62406 0.96284 0.0
C9892 C 0.6551 0.62473 0.95173 0.0
C9893 C 0.6586 0.63085 0.95399 0.0
C9894 C 0.65765 0.63314 0.96096 0.0
C9895 C 0.65279 0.62977 0.96536 0.0
H9896 H 0.61804 0.42867 0.19413 0.0
H9897 H 0.60701 0.40977 0.18804 0.0
H9898 H 0.62501 0.4218 0.20261 0.0
H9899 H 0.61389 0.403 0.19638 0.0
H9900 H 0.62022 0.39402 0.21672 0.0
H9901 H 0.61413 0.40253 0.20935 0.0
H9902 H 0.63403 0.4117 0.20339 0.0
H9903 H 0.64017 0.4031 0.21087 0.0
C9904 C 0.61715 0.42306 0.19456 0.0
C9905 C 0.61188 0.41977 0.19053 0.0
C9906 C 0.62113 0.41914 0.1994 0.0
C9907 C 0.61988 0.4119 0.20027 0.0
C9908 C 0.61483 0.4086 0.196 0.0
C9909 C 0.61089 0.41248 0.1912 0.0
C9910 C 0.62329 0.39798 0.21399 0.0
C9911 C 0.63066 0.39791 0.21434 0.0
C9912 C 0.61981 0.4028 0.20972 0.0
C9913 C 0.62362 0.40767 0.20567 0.0
C9914 C 0.63097 0.40799 0.20644 0.0
C9915 C 0.63448 0.40312 0.21075 0.0
H9916 H 0.83097 0.362 0.44724 0.0
H9917 H 0.84833 0.36453 0.43283 0.0
H9918 H 0.83668 0.37017 0.45549 0.0
H9919 H 0.85403 0.37249 0.44101 0.0
H9920 H 0.86122 0.39018 0.45358 0.0
H9921 H 0.8527 0.38423 0.44606 0.0
H9922 H 0.84762 0.37005 0.46307 0.0
H9923 H 0.85612 0.37614 0.47064 0.0
C9924 C 0.83595 0.36436 0.44581 0.0
C9925 C 0.83923 0.36261 0.43942 0.0
C9926 C 0.83924 0.36898 0.45054 0.0
C9927 C 0.84578 0.37201 0.44888 0.0
C9928 C 0.84894 0.37036 0.44241 0.0
C9929 C 0.84571 0.36573 0.43774 0.0
C9930 C 0.85806 0.38598 0.45578 0.0
C9931 C 0.85926 0.38363 0.46268 0.0
C9932 C 0.85326 0.38251 0.45146 0.0
C9933 C 0.84959 0.37659 0.45393 0.0
C9934 C 0.85034 0.37462 0.46103 0.0
C9935 C 0.85517 0.37811 0.46538 0.0
H9936 H 0.88667 0.42059 0.8223 0.0
H9937 H 0.90529 0.41804 0.80959 0.0
H9938 H 0.87976 0.41435 0.81342 0.0
H9939 H 0.89842 0.41215 0.80059 0.0
H9940 H 0.88745 0.39255 0.79253 0.0
H9941 H 0.89373 0.4011 0.7995 0.0
H9942 H 0.87456 0.41307 0.80215 0.0
H9943 H 0.86814 0.40409 0.79542 0.0
C9944 C 0.88923 0.41885 0.81752 0.0
C9945 C 0.89652 0.41969 0.81668 0.0
C9946 C 0.88528 0.4153 0.81241 0.0
C9947 C 0.88854 0.41261 0.80632 0.0
C9948 C 0.89575 0.41393 0.8053 0.0
C9949 C 0.89969 0.41735 0.81044 0.0
C9950 C 0.88461 0.3971 0.79446 0.0
C9951 C 0.87732 0.39768 0.79343 0.0
C9952 C 0.88822 0.40205 0.79845 0.0
C9953 C 0.88468 0.40783 0.80142 0.0
C9954 C 0.87744 0.40865 0.80003 0.0
C9955 C 0.87378 0.40359 0.79607 0.0
H9956 H 0.84153 0.65404 0.06003 0.0
H9957 H 0.83496 0.63623 0.07254 0.0
H9958 H 0.84741 0.64617 0.05189 0.0
H9959 H 0.84048 0.6283 0.06412 0.0
H9960 H 0.86095 0.61888 0.05453 0.0
H9961 H 0.85222 0.62519 0.0614 0.0
H9962 H 0.84666 0.6374 0.04302 0.0
H9963 H 0.85565 0.63116 0.03622 0.0
C9964 C 0.84126 0.64843 0.061 0.0
C9965 C 0.83786 0.64579 0.06701 0.0
C9966 C 0.84454 0.6439 0.05625 0.0
C9967 C 0.84444 0.63658 0.05733 0.0
C9968 C 0.84074 0.63391 0.06316 0.0
C9969 C 0.8375 0.63846 0.06796 0.0
C9970 C 0.85768 0.62275 0.05191 0.0
C9971 C 0.85893 0.62453 0.04485 0.0
C9972 C 0.85267 0.62638 0.05584 0.0
C9973 C 0.84877 0.63188 0.0528 0.0
C9974 C 0.84965 0.63328 0.04557 0.0
C9975 C 0.85471 0.62964 0.04163 0.0
H9976 H 0.61187 0.58124 0.31105 0.0
H9977 H 0.61449 0.59853 0.32554 0.0
H9978 H 0.62005 0.58694 0.30282 0.0
H9979 H 0.62244 0.60425 0.31736 0.0
H9980 H 0.64011 0.61145 0.30476 0.0
H9981 H 0.63413 0.60298 0.31231 0.0
H9982 H 0.62002 0.59781 0.29525 0.0
H9983 H 0.62616 0.60625 0.28766 0.0
C9984 C 0.61425 0.58621 0.3125 0.0
C9985 C 0.61252 0.58946 0.31891 0.0
C9986 C 0.61888 0.58949 0.30778 0.0
C9987 C 0.62192 0.59602 0.30946 0.0
C9988 C 0.62029 0.59916 0.31595 0.0
C9989 C 0.61566 0.59593 0.3206 0.0
C9990 C 0.63592 0.60828 0.30256 0.0
C9991 C 0.63361 0.60943 0.29564 0.0
C9992 C 0.63243 0.60351 0.30689 0.0
C9993 C 0.62652 0.59983 0.30441 0.0
C9994 C 0.62458 0.60054 0.2973 0.0
C9995 C 0.62811 0.60533 0.29294 0.0
H9996 H 0.6637 0.3535 0.56171 0.0
H9997 H 0.67342 0.37145 0.5717 0.0
H9998 H 0.65795 0.36123 0.55334 0.0
H9999 H 0.66788 0.37921 0.56308 0.0
H10000 H 0.64735 0.38966 0.55404 0.0
H10001 H 0.65595 0.38318 0.561 0.0
H10002 H 0.65943 0.3691 0.54349 0.0
H10003 H 0.6507 0.37559 0.53659 0.0
C10004 C 0.66468 0.3591 0.56207 0.0
C10005 C 0.66896 0.36186 0.56743 0.0
C10006 C 0.66145 0.36353 0.55719 0.0
C10007 C 0.66246 0.37085 0.55751 0.0
C10008 C 0.66696 0.3736 0.56271 0.0
C10009 C 0.67018 0.36915 0.56762 0.0
C10010 C 0.65017 0.38535 0.55161 0.0
C10011 C 0.64845 0.38315 0.54477 0.0
C10012 C 0.65509 0.38161 0.55559 0.0
C10013 C 0.65833 0.37557 0.55283 0.0
C10014 C 0.65695 0.37368 0.5458 0.0
C10015 C 0.65205 0.37745 0.5418 0.0
H10016 H 0.69802 0.90362 0.59064 0.0
H10017 H 0.68411 0.88625 0.58598 0.0
H10018 H 0.70591 0.89567 0.59675 0.0
H10019 H 0.69227 0.87821 0.59168 0.0
H10020 H 0.70206 0.86943 0.61221 0.0
H10021 H 0.69527 0.87573 0.60342 0.0
H10022 H 0.71416 0.88631 0.59644 0.0
H10023 H 0.72091 0.88013 0.60551 0.0
C10024 C 0.69668 0.89809 0.59084 0.0
C10025 C 0.69036 0.89561 0.5879 0.0
C10026 C 0.70129 0.89349 0.59425 0.0
C10027 C 0.69974 0.88628 0.59475 0.0
C10028 C 0.69359 0.88374 0.59149 0.0
C10029 C 0.68895 0.88835 0.58813 0.0
C10030 C 0.70479 0.87296 0.60865 0.0
C10031 C 0.712 0.87431 0.60952 0.0
C10032 C 0.7009 0.87657 0.60359 0.0
C10033 C 0.70413 0.8816 0.59924 0.0
C10034 C 0.71147 0.88256 0.59978 0.0
C10035 C 0.71537 0.87895 0.60489 0.0
H10036 H 0.18606 0.60956 0.40805 0.0
H10037 H 0.19373 0.61657 0.42827 0.0
H10038 H 0.19487 0.61674 0.4022 0.0
H10039 H 0.20251 0.62398 0.42229 0.0
H10040 H 0.2097 0.64115 0.40301 0.0
H10041 H 0.20211 0.635 0.41156 0.0
H10042 H 0.2092 0.61506 0.40338 0.0
H10043 H 0.21677 0.62114 0.39501 0.0
C10044 C 0.18963 0.61264 0.41125 0.0
C10045 C 0.1893 0.61237 0.41863 0.0
C10046 C 0.19464 0.61677 0.40789 0.0
C10047 C 0.1994 0.62082 0.41181 0.0
C10048 C 0.19889 0.62088 0.41918 0.0
C10049 C 0.19387 0.61666 0.42258 0.0
C10050 C 0.20986 0.63547 0.40331 0.0
C10051 C 0.21385 0.6316 0.39843 0.0
C10052 C 0.20551 0.63196 0.40814 0.0
C10053 C 0.20506 0.62458 0.40804 0.0
C10054 C 0.20945 0.62075 0.40353 0.0
C10055 C 0.21382 0.62422 0.39879 0.0
H10056 H 0.636 0.93445 0.67234 0.0
H10057 H 0.65329 0.94841 0.66759 0.0
H10058 H 0.62788 0.94266 0.66679 0.0
H10059 H 0.64528 0.95635 0.66164 0.0
H10060 H 0.62984 0.9714 0.65309 0.0
H10061 H 0.63595 0.96459 0.66216 0.0
H10062 H 0.62525 0.94579 0.6551 0.0
H10063 H 0.61903 0.95266 0.64632 0.0
C10064 C 0.63806 0.9393 0.67019 0.0
C10065 C 0.64532 0.94072 0.67036 0.0
C10066 C 0.63341 0.94398 0.66693 0.0
C10067 C 0.63591 0.95016 0.6637 0.0
C10068 C 0.64313 0.95171 0.66413 0.0
C10069 C 0.64776 0.94707 0.66745 0.0
C10070 C 0.6286 0.96588 0.65372 0.0
C10071 C 0.62396 0.96255 0.64906 0.0
C10072 C 0.63218 0.96194 0.65882 0.0
C10073 C 0.63118 0.9546 0.65931 0.0
C10074 C 0.62612 0.95142 0.65496 0.0
C10075 C 0.62254 0.95535 0.64991 0.0
H10076 H 0.31977 0.38719 0.92503 0.0
H10077 H 0.31325 0.40454 0.91188 0.0
H10078 H 0.31085 0.37971 0.91952 0.0
H10079 H 0.3046 0.39706 0.90622 0.0
H10080 H 0.2868 0.38412 0.89918 0.0
H10081 H 0.2937 0.39082 0.90774 0.0
H10082 H 0.30932 0.37429 0.90797 0.0
H10083 H 0.30232 0.36761 0.89952 0.0
C10084 C 0.31638 0.38943 0.92103 0.0
C10085 C 0.31725 0.39644 0.91885 0.0
C10086 C 0.31132 0.38513 0.91783 0.0
C10087 C 0.307 0.38778 0.91243 0.0
C10088 C 0.30774 0.39486 0.91044 0.0
C10089 C 0.31278 0.39913 0.91361 0.0
C10090 C 0.29155 0.38181 0.90133 0.0
C10091 C 0.29398 0.37531 0.89885 0.0
C10092 C 0.29557 0.38568 0.90612 0.0
C10093 C 0.30211 0.38313 0.90848 0.0
C10094 C 0.30428 0.37638 0.90634 0.0
C10095 C 0.30027 0.37253 0.90153 0.0
H10096 H 0.3712 0.573 0.66978 0.0
H10097 H 0.35328 0.55908 0.66956 0.0
H10098 H 0.37816 0.56413 0.66362 0.0
H10099 H 0.36026 0.5501 0.66372 0.0
H10100 H 0.37033 0.54165 0.64367 0.0
H10101 H 0.36419 0.54861 0.65236 0.0
H10102 H 0.38394 0.5531 0.66274 0.0
H10103 H 0.39014 0.54632 0.65366 0.0
C10104 C 0.36882 0.56797 0.66857 0.0
C10105 C 0.36168 0.56676 0.67004 0.0
C10106 C 0.37281 0.56286 0.66507 0.0
C10107 C 0.36975 0.55642 0.66304 0.0
C10108 C 0.36274 0.55507 0.66499 0.0
C10109 C 0.35874 0.56019 0.66838 0.0
C10110 C 0.37333 0.54396 0.64793 0.0
C10111 C 0.38069 0.54342 0.64804 0.0
C10112 C 0.36982 0.54796 0.65295 0.0
C10113 C 0.37355 0.55145 0.6583 0.0
C10114 C 0.3809 0.55056 0.65866 0.0
C10115 C 0.38445 0.54658 0.65355 0.0
H10116 H 0.82013 0.10786 0.1006 0.0
H10117 H 0.81416 0.11712 0.08071 0.0
H10118 H 0.81135 0.11492 0.10656 0.0
H10119 H 0.80538 0.12441 0.08682 0.0
H10120 H 0.79753 0.14075 0.10549 0.0
H10121 H 0.80506 0.13433 0.09713 0.0
H10122 H 0.79776 0.11466 0.1058 0.0
H10123 H 0.7903 0.12103 0.11404 0.0
C10124 C 0.81691 0.11137 0.09748 0.0
C10125 C 0.81774 0.1118 0.09015 0.0
C10126 C 0.8119 0.11544 0.10091 0.0
C10127 C 0.80761 0.1201 0.09712 0.0
C10128 C 0.80861 0.12081 0.08984 0.0
C10129 C 0.81364 0.11666 0.08636 0.0
C10130 C 0.79732 0.13506 0.10536 0.0
C10131 C 0.7933 0.13136 0.11033 0.0
C10132 C 0.80165 0.1314 0.10063 0.0
C10133 C 0.80204 0.12401 0.10091 0.0
C10134 C 0.7976 0.12035 0.10553 0.0
C10135 C 0.79328 0.12398 0.11018 0.0
H10136 H 0.65461 0.06283 0.84547 0.0
H10137 H 0.63686 0.07082 0.83375 0.0
H10138 H 0.64703 0.05434 0.85124 0.0
H10139 H 0.62927 0.06206 0.83934 0.0
H10140 H 0.61789 0.05337 0.85961 0.0
H10141 H 0.6245 0.06036 0.8511 0.0
H10142 H 0.64009 0.04386 0.84976 0.0
H10143 H 0.63347 0.03695 0.85838 0.0
C10144 C 0.64909 0.06272 0.84407 0.0
C10145 C 0.64633 0.06756 0.8392 0.0
C10146 C 0.64475 0.05777 0.84731 0.0
C10147 C 0.63754 0.05749 0.84574 0.0
C10148 C 0.6348 0.06217 0.8407 0.0
C10149 C 0.63916 0.06714 0.83745 0.0
C10150 C 0.62259 0.05115 0.85726 0.0
C10151 C 0.62513 0.0446 0.85952 0.0
C10152 C 0.62639 0.05515 0.85241 0.0
C10153 C 0.63286 0.0527 0.8498 0.0
C10154 C 0.63517 0.04593 0.85174 0.0
C10155 C 0.63134 0.04193 0.85658 0.0
H10156 H 0.86656 0.94492 0.32926 0.0
H10157 H 0.86012 0.93653 0.34937 0.0
H10158 H 0.87485 0.95286 0.33529 0.0
H10159 H 0.86837 0.94434 0.3553 0.0
H10160 H 0.88916 0.95243 0.36267 0.0
H10161 H 0.88297 0.94515 0.35411 0.0
H10162 H 0.87234 0.96353 0.34611 0.0
H10163 H 0.87843 0.97085 0.35487 0.0
C10164 C 0.86694 0.94475 0.33494 0.0
C10165 C 0.86267 0.94014 0.33886 0.0
C10166 C 0.87164 0.9493 0.33837 0.0
C10167 C 0.87223 0.94915 0.34573 0.0
C10168 C 0.86802 0.9445 0.34961 0.0
C10169 C 0.86328 0.94007 0.34622 0.0
C10170 C 0.8857 0.95496 0.35892 0.0
C10171 C 0.88423 0.96219 0.35945 0.0
C10172 C 0.88214 0.95079 0.35405 0.0
C10173 C 0.87716 0.95379 0.34953 0.0
C10174 C 0.87621 0.96112 0.34954 0.0
C10175 C 0.87972 0.96531 0.3545 0.0
H10176 H 0.42463 0.31899 0.11873 0.0
H10177 H 0.41147 0.31223 0.10149 0.0
H10178 H 0.41915 0.31015 0.12633 0.0
H10179 H 0.4058 0.30373 0.10909 0.0
H10180 H 0.3985 0.28623 0.12207 0.0
H10181 H 0.40705 0.29302 0.11529 0.0
H10182 H 0.40792 0.30845 0.13198 0.0
H10183 H 0.39956 0.30147 0.1388 0.0
C10184 C 0.42063 0.31557 0.11655 0.0
C10185 C 0.41844 0.31635 0.10952 0.0
C10186 C 0.41744 0.31056 0.12091 0.0
C10187 C 0.41203 0.30622 0.11833 0.0
C10188 C 0.41002 0.30688 0.11125 0.0
C10189 C 0.4132 0.31185 0.1069 0.0
C10190 C 0.40078 0.29091 0.12438 0.0
C10191 C 0.39853 0.29328 0.13098 0.0
C10192 C 0.40558 0.29487 0.12047 0.0
C10193 C 0.4081 0.30135 0.12304 0.0
C10194 C 0.40616 0.30347 0.12986 0.0
C10195 C 0.4014 0.29947 0.13379 0.0
H10196 H 0.43715 0.65844 0.85782 0.0
H10197 H 0.44573 0.67844 0.8644 0.0
H10198 H 0.4457 0.65234 0.86509 0.0
H10199 H 0.45427 0.67221 0.87192 0.0
H10200 H 0.46095 0.6535 0.88952 0.0
H10201 H 0.4537 0.66212 0.88309 0.0
H10202 H 0.45982 0.6525 0.86347 0.0
H10203 H 0.46705 0.64404 0.86982 0.0
C10204 C 0.44087 0.66154 0.86082 0.0
C10205 C 0.44087 0.66892 0.86041 0.0
C10206 C 0.44573 0.65804 0.86501 0.0
C10207 C 0.45068 0.66182 0.86896 0.0
C10208 C 0.4505 0.66921 0.86889 0.0
C10209 C 0.44562 0.67275 0.86461 0.0
C10210 C 0.46097 0.65347 0.88383 0.0
C10211 C 0.46455 0.64815 0.88014 0.0
C10212 C 0.4568 0.65835 0.88016 0.0
C10213 C 0.45616 0.65789 0.87281 0.0
C10214 C 0.4602 0.65292 0.86914 0.0
C10215 C 0.46437 0.64812 0.87276 0.0
H10216 H 0.07999 0.69497 0.61517 0.0
H10217 H 0.09987 0.68825 0.60642 0.0
H10218 H 0.08624 0.70352 0.62261 0.0
H10219 H 0.10597 0.69682 0.61363 0.0
H10220 H 0.11375 0.71791 0.61958 0.0
H10221 H 0.10545 0.71055 0.61318 0.0
H10222 H 0.09651 0.70346 0.63279 0.0
H10223 H 0.10495 0.71085 0.63927 0.0
C10224 C 0.08567 0.69528 0.61487 0.0
C10225 C 0.08942 0.69103 0.61009 0.0
C10226 C 0.08922 0.70017 0.61911 0.0
C10227 C 0.09655 0.7009 0.61857 0.0
C10228 C 0.1003 0.69647 0.61401 0.0
C10229 C 0.09679 0.69158 0.60986 0.0
C10230 C 0.10987 0.71495 0.62252 0.0
C10231 C 0.10999 0.71492 0.6299 0.0
C10232 C 0.10516 0.71071 0.61887 0.0
C10233 C 0.10044 0.70637 0.62251 0.0
C10234 C 0.10011 0.70678 0.62988 0.0
C10235 C 0.10489 0.71102 0.63357 0.0
H10236 H 0.05951 0.33089 0.36077 0.0
H10237 H 0.0741 0.3482 0.36247 0.0
H10238 H 0.05167 0.33673 0.36925 0.0
H10239 H 0.06632 0.35403 0.37072 0.0
H10240 H 0.05464 0.36144 0.38893 0.0
H10241 H 0.06186 0.3529 0.38266 0.0
H10242 H 0.04411 0.34762 0.36948 0.0
H10243 H 0.03685 0.35613 0.37592 0.0
C10244 C 0.06106 0.3359 0.36301 0.0
C10245 C 0.06739 0.33912 0.36094 0.0
C10246 C 0.05657 0.33925 0.36781 0.0
C10247 C 0.0584 0.34582 0.37069 0.0
C10248 C 0.0648 0.34893 0.36871 0.0
C10249 C 0.06923 0.34562 0.36391 0.0
C10250 C 0.05222 0.35824 0.38488 0.0
C10251 C 0.0452 0.35938 0.38292 0.0
C10252 C 0.05637 0.35342 0.38123 0.0
C10253 C 0.05359 0.34968 0.37549 0.0
C10254 C 0.04639 0.3504 0.3739 0.0
C10255 C 0.04222 0.35523 0.37759 0.0
H10256 H 0.42696 0.69834 0.39744 0.0
H10257 H 0.40992 0.68354 0.39497 0.0
H10258 H 0.42118 0.70634 0.38909 0.0
H10259 H 0.40412 0.69149 0.38684 0.0
H10260 H 0.39668 0.70384 0.36906 0.0
H10261 H 0.40527 0.69646 0.37511 0.0
H10262 H 0.41021 0.71371 0.38906 0.0
H10263 H 0.40165 0.72112 0.38287 0.0
C10264 C 0.42203 0.69678 0.39505 0.0
C10265 C 0.41886 0.69035 0.39688 0.0
C10266 C 0.41871 0.70136 0.39033 0.0
C10267 C 0.41222 0.69953 0.38728 0.0
C10268 C 0.40917 0.69302 0.38899 0.0
C10269 C 0.41245 0.68849 0.39372 0.0
C10270 C 0.39983 0.70612 0.37323 0.0
C10271 C 0.39861 0.71304 0.37547 0.0
C10272 C 0.40467 0.70189 0.37675 0.0
C10273 C 0.40833 0.70447 0.38264 0.0
C10274 C 0.40751 0.71158 0.38452 0.0
C10275 C 0.40265 0.71584 0.38097 0.0
H10276 H 0.06008 0.67792 0.14595 0.0
H10277 H 0.07307 0.65934 0.14728 0.0
H10278 H 0.05238 0.67187 0.13747 0.0
H10279 H 0.06545 0.65335 0.13895 0.0
H10280 H 0.05521 0.64585 0.11984 0.0
H10281 H 0.06232 0.65439 0.12622 0.0
H10282 H 0.04396 0.66105 0.13781 0.0
H10283 H 0.0368 0.65245 0.13133 0.0
C10284 C 0.06131 0.67258 0.14439 0.0
C10285 C 0.06714 0.66908 0.14729 0.0
C10286 C 0.0569 0.66912 0.13959 0.0
C10287 C 0.05835 0.66217 0.13752 0.0
C10288 C 0.06425 0.65874 0.14036 0.0
C10289 C 0.06858 0.66215 0.14519 0.0
C10290 C 0.05265 0.64933 0.12356 0.0
C10291 C 0.04547 0.64852 0.1251 0.0
C10292 C 0.05673 0.65416 0.12726 0.0
C10293 C 0.05372 0.65829 0.13259 0.0
C10294 C 0.04641 0.65794 0.13371 0.0
C10295 C 0.0423 0.65306 0.12999 0.0
H10296 H 0.09511 0.31116 0.90642 0.0
H10297 H 0.08278 0.31933 0.88917 0.0
H10298 H 0.10094 0.30306 0.89847 0.0
H10299 H 0.08843 0.31095 0.8812 0.0
H10300 H 0.10871 0.30326 0.86915 0.0
H10301 H 0.10011 0.30976 0.87613 0.0
H10302 H 0.09964 0.29277 0.89124 0.0
H10303 H 0.10835 0.28637 0.88425 0.0
C10304 C 0.09359 0.31117 0.90093 0.0
C10305 C 0.08853 0.31595 0.89842 0.0
C10306 C 0.09686 0.30645 0.89638 0.0
C10307 C 0.09514 0.30633 0.88919 0.0
C10308 C 0.0899 0.31094 0.88671 0.0
C10309 C 0.08662 0.31569 0.89128 0.0
C10310 C 0.10653 0.30082 0.87382 0.0
C10311 C 0.10906 0.29428 0.87613 0.0
C10312 C 0.10163 0.30454 0.87784 0.0
C10313 C 0.09924 0.30182 0.88429 0.0
C10314 C 0.10145 0.29506 0.88634 0.0
C10315 C 0.10634 0.29133 0.88231 0.0
H10316 H 0.44847 0.34266 0.656 0.0
H10317 H 0.43688 0.33445 0.63826 0.0
H10318 H 0.45644 0.34867 0.64804 0.0
H10319 H 0.44512 0.34017 0.63025 0.0
H10320 H 0.45387 0.36085 0.6202 0.0
H10321 H 0.44722 0.35209 0.62677 0.0
H10322 H 0.46559 0.34776 0.63948 0.0
H10323 H 0.47216 0.35671 0.63294 0.0
C10324 C 0.44767 0.34206 0.65039 0.0
C10325 C 0.44197 0.33815 0.64777 0.0
C10326 C 0.45232 0.34542 0.64581 0.0
C10327 C 0.45143 0.34491 0.63849 0.0
C10328 C 0.44592 0.34073 0.63586 0.0
C10329 C 0.44123 0.33739 0.64045 0.0
C10330 C 0.45653 0.35783 0.62424 0.0
C10331 C 0.46352 0.35935 0.62604 0.0
C10332 C 0.45273 0.35281 0.62802 0.0
C10333 C 0.45585 0.34925 0.6337 0.0
C10334 C 0.463 0.35048 0.63519 0.0
C10335 C 0.46681 0.35551 0.6314 0.0
H10336 H 0.11985 0.42305 0.32222 0.0
H10337 H 0.10269 0.41711 0.30854 0.0
H10338 H 0.12813 0.41733 0.31428 0.0
H10339 H 0.11089 0.41105 0.30086 0.0
H10340 H 0.12672 0.40262 0.28608 0.0
H10341 H 0.12031 0.41171 0.29258 0.0
H10342 H 0.13096 0.40544 0.31168 0.0
H10343 H 0.13744 0.39658 0.30512 0.0
C10344 C 0.11784 0.42061 0.31748 0.0
C10345 C 0.11059 0.42049 0.31606 0.0
C10346 C 0.12259 0.41726 0.31296 0.0
C10347 C 0.12019 0.41368 0.30694 0.0
C10348 C 0.11296 0.41382 0.30539 0.0
C10349 C 0.10823 0.4172 0.30987 0.0
C10350 C 0.12788 0.40342 0.2916 0.0
C10351 C 0.13259 0.39897 0.2951 0.0
C10352 C 0.12413 0.40853 0.29536 0.0
C10353 C 0.12504 0.40925 0.30268 0.0
C10354 C 0.13016 0.40511 0.30605 0.0
C10355 C 0.13389 0.40003 0.3023 0.0
H10356 H 0.33012 0.3651 0.06326 0.0
H10357 H 0.35002 0.35617 0.06971 0.0
H10358 H 0.33632 0.37255 0.05469 0.0
H10359 H 0.35606 0.36339 0.0611 0.0
H10360 H 0.36379 0.36971 0.0401 0.0
H10361 H 0.35557 0.36317 0.04745 0.0
H10362 H 0.34647 0.38266 0.05471 0.0
H10363 H 0.35481 0.38926 0.04732 0.0
C10364 C 0.33579 0.36475 0.06289 0.0
C10365 C 0.33956 0.35993 0.06707 0.0
C10366 C 0.33931 0.36899 0.05798 0.0
C10367 C 0.34663 0.36842 0.05716 0.0
C10368 C 0.35039 0.3638 0.06151 0.0
C10369 C 0.34692 0.35965 0.06642 0.0
C10370 C 0.35989 0.37259 0.04309 0.0
C10371 C 0.35993 0.37997 0.04316 0.0
C10372 C 0.35523 0.36886 0.04733 0.0
C10373 C 0.35048 0.37243 0.05171 0.0
C10374 C 0.35009 0.37981 0.05136 0.0
C10375 C 0.35481 0.38357 0.04711 0.0
H10376 H 0.38874 0.5828 0.81903 0.0
H10377 H 0.40586 0.59606 0.81217 0.0
H10378 H 0.38096 0.58848 0.81048 0.0
H10379 H 0.39809 0.60188 0.80389 0.0
H10380 H 0.38453 0.6091 0.78659 0.0
H10381 H 0.39145 0.60046 0.79315 0.0
H10382 H 0.37556 0.60015 0.8094 0.0
H10383 H 0.36865 0.60872 0.80275 0.0
C10384 C 0.39087 0.58685 0.81564 0.0
C10385 C 0.3979 0.58902 0.81632 0.0
C10386 C 0.3864 0.59015 0.81079 0.0
C10387 C 0.3889 0.59563 0.80649 0.0
C10388 C 0.396 0.59761 0.80703 0.0
C10389 C 0.40044 0.59434 0.81186 0.0
C10390 C 0.3824 0.60693 0.79141 0.0
C10391 C 0.37602 0.60943 0.79412 0.0
C10392 C 0.3864 0.60208 0.79523 0.0
C10393 C 0.38409 0.59967 0.80184 0.0
C10394 C 0.37745 0.60183 0.8043 0.0
C10395 C 0.37348 0.60671 0.80049 0.0
H10396 H 0.15868 0.64756 0.57341 0.0
H10397 H 0.17725 0.64599 0.56044 0.0
H10398 H 0.15262 0.63927 0.56583 0.0
H10399 H 0.17114 0.63752 0.55279 0.0
H10400 H 0.15198 0.63124 0.53712 0.0
H10401 H 0.16054 0.63773 0.54432 0.0
H10402 H 0.15332 0.62663 0.56278 0.0
H10403 H 0.14482 0.62026 0.55562 0.0
C10404 C 0.16147 0.64542 0.56893 0.0
C10405 C 0.16842 0.64745 0.56749 0.0
C10406 C 0.15803 0.6406 0.56462 0.0
C10407 C 0.16143 0.63769 0.55874 0.0
C10408 C 0.1684 0.63969 0.55729 0.0
C10409 C 0.1719 0.64448 0.56167 0.0
C10410 C 0.15245 0.63002 0.54266 0.0
C10411 C 0.14776 0.62529 0.54584 0.0
C10412 C 0.15731 0.63374 0.54679 0.0
C10413 C 0.1575 0.63277 0.55413 0.0
C10414 C 0.15321 0.62758 0.55716 0.0
C10415 C 0.14839 0.62389 0.55306 0.0
H10416 H 0.11363 0.57957 0.19632 0.0
H10417 H 0.10924 0.59946 0.18621 0.0
H10418 H 0.12117 0.58569 0.20492 0.0
H10419 H 0.11653 0.60547 0.19484 0.0
H10420 H 0.11954 0.61358 0.21712 0.0
H10421 H 0.11349 0.60506 0.20969 0.0
H10422 H 0.13342 0.59607 0.20363 0.0
H10423 H 0.13955 0.60478 0.21102 0.0
C10424 C 0.11435 0.5852 0.19588 0.0
C10425 C 0.11074 0.58905 0.19068 0.0
C10426 C 0.11864 0.58868 0.20078 0.0
C10427 C 0.11933 0.59602 0.20054 0.0
C10428 C 0.116 0.5998 0.19516 0.0
C10429 C 0.11179 0.59636 0.19026 0.0
C10430 C 0.12262 0.60965 0.21438 0.0
C10431 C 0.13 0.60984 0.21461 0.0
C10432 C 0.11917 0.6048 0.21013 0.0
C10433 C 0.12302 0.59997 0.2061 0.0
C10434 C 0.13037 0.59973 0.20676 0.0
C10435 C 0.13386 0.60467 0.211 0.0
H10436 H 0.176 0.3592 0.9491 0.0
H10437 H 0.16093 0.36477 0.93305 0.0
H10438 H 0.17038 0.36751 0.95722 0.0
H10439 H 0.15521 0.37279 0.94113 0.0
H10440 H 0.14769 0.38974 0.95445 0.0
H10441 H 0.15638 0.38367 0.94722 0.0
H10442 H 0.15929 0.36828 0.9637 0.0
H10443 H 0.15072 0.37454 0.971 0.0
C10444 C 0.17155 0.36225 0.94729 0.0
C10445 C 0.16887 0.3613 0.94046 0.0
C10446 C 0.16829 0.36696 0.95195 0.0
C10447 C 0.16235 0.37084 0.94983 0.0
C10448 C 0.15984 0.37 0.94292 0.0
C10449 C 0.16306 0.36532 0.93831 0.0
C10450 C 0.15043 0.38523 0.95663 0.0
C10451 C 0.14865 0.38264 0.96329 0.0
C10452 C 0.15532 0.38169 0.95246 0.0
C10453 C 0.15843 0.37541 0.95483 0.0
C10454 C 0.15703 0.37312 0.96173 0.0
C10455 C 0.15216 0.37672 0.96593 0.0
H10456 H 0.40596 0.41463 0.69799 0.0
H10457 H 0.38824 0.42405 0.68731 0.0
H10458 H 0.39801 0.40875 0.70605 0.0
H10459 H 0.38027 0.41844 0.69566 0.0
H10460 H 0.36954 0.39801 0.70421 0.0
H10461 H 0.37626 0.40667 0.69757 0.0
H10462 H 0.38986 0.40979 0.71554 0.0
H10463 H 0.38315 0.40094 0.72209 0.0
C10464 C 0.40036 0.41552 0.69741 0.0
C10465 C 0.39775 0.41975 0.69193 0.0
C10466 C 0.3958 0.41222 0.70211 0.0
C10467 C 0.38849 0.41311 0.70152 0.0
C10468 C 0.38587 0.41758 0.69622 0.0
C10469 C 0.39045 0.42086 0.69148 0.0
C10470 C 0.3738 0.40076 0.70681 0.0
C10471 C 0.37579 0.39892 0.71367 0.0
C10472 C 0.37767 0.40571 0.70301 0.0
C10473 C 0.38365 0.40889 0.70599 0.0
C10474 C 0.38534 0.40737 0.71305 0.0
C10475 C 0.38145 0.4024 0.71685 0.0
H10476 H 0.34195 0.65581 0.44913 0.0
H10477 H 0.33433 0.63826 0.43684 0.0
H10478 H 0.34805 0.64773 0.45691 0.0
H10479 H 0.34012 0.63013 0.4449 0.0
H10480 H 0.36092 0.62027 0.45338 0.0
H10481 H 0.35206 0.62689 0.44694 0.0
H10482 H 0.34737 0.6388 0.46575 0.0
H10483 H 0.35644 0.63221 0.47212 0.0
C10484 C 0.3415 0.65021 0.44814 0.0
C10485 C 0.33772 0.6477 0.44229 0.0
C10486 C 0.34492 0.64557 0.45268 0.0
C10487 C 0.3446 0.63827 0.45153 0.0
C10488 C 0.34054 0.63573 0.44589 0.0
C10489 C 0.33716 0.64039 0.44131 0.0
C10490 C 0.35781 0.62414 0.45618 0.0
C10491 C 0.35929 0.62571 0.46324 0.0
C10492 C 0.35273 0.62794 0.4525 0.0
C10493 C 0.34903 0.63343 0.4558 0.0
C10494 C 0.3502 0.63467 0.46302 0.0
C10495 C 0.3553 0.63084 0.46671 0.0
H10496 H 0.31781 0.11862 0.42582 0.0
H10497 H 0.31344 0.10224 0.41069 0.0
H10498 H 0.30904 0.12617 0.42013 0.0
H10499 H 0.30494 0.10979 0.40491 0.0
H10500 H 0.28694 0.12222 0.39765 0.0
H10501 H 0.29358 0.11525 0.40617 0.0
H10502 H 0.30813 0.13251 0.40887 0.0
H10503 H 0.30135 0.13948 0.40043 0.0
C10504 C 0.31492 0.11661 0.42134 0.0
C10505 C 0.31635 0.10986 0.41868 0.0
C10506 C 0.30995 0.12094 0.41805 0.0
C10507 C 0.30628 0.11858 0.41208 0.0
C10508 C 0.30758 0.11175 0.40956 0.0
C10509 C 0.31253 0.10745 0.41283 0.0
C10510 C 0.29138 0.1246 0.40032 0.0
C10511 C 0.29357 0.1314 0.39854 0.0
C10512 C 0.29525 0.12059 0.4051 0.0
C10513 C 0.30143 0.12329 0.40814 0.0
C10514 C 0.30335 0.1303 0.40669 0.0
C10515 C 0.29947 0.1343 0.40189 0.0
H10516 H 0.8083 0.40669 0.58999 0.0
H10517 H 0.82157 0.3885 0.58717 0.0
H10518 H 0.79966 0.39952 0.59606 0.0
H10519 H 0.81307 0.3813 0.59358 0.0
H10520 H 0.79558 0.36908 0.60407 0.0
H10521 H 0.80199 0.37573 0.59503 0.0
H10522 H 0.79898 0.39477 0.60715 0.0
H10523 H 0.79233 0.38825 0.61577 0.0
C10524 C 0.80934 0.40113 0.59066 0.0
C10525 C 0.81563 0.39817 0.58819 0.0
C10526 C 0.80441 0.39701 0.59418 0.0
C10527 C 0.80571 0.38983 0.59548 0.0
C10528 C 0.81184 0.38678 0.59265 0.0
C10529 C 0.81674 0.39091 0.589 0.0
C10530 C 0.79611 0.37473 0.60462 0.0
C10531 C 0.79347 0.37816 0.6106 0.0
C10532 C 0.79987 0.37853 0.59952 0.0
C10533 C 0.80105 0.38581 0.60034 0.0
C10534 C 0.79809 0.38922 0.6062 0.0
C10535 C 0.79431 0.38547 0.6112 0.0
H10536 H 0.35188 0.05956 0.34282 0.0
H10537 H 0.36933 0.07104 0.33386 0.0
H10538 H 0.36003 0.05166 0.34865 0.0
H10539 H 0.37752 0.06287 0.33944 0.0
H10540 H 0.38806 0.05432 0.36007 0.0
H10541 H 0.38135 0.06088 0.35134 0.0
H10542 H 0.36858 0.04248 0.34743 0.0
H10543 H 0.37527 0.03599 0.35633 0.0
C10544 C 0.35746 0.06035 0.34202 0.0
C10545 C 0.35994 0.066 0.33794 0.0
C10546 C 0.36215 0.05574 0.34528 0.0
C10547 C 0.36945 0.05662 0.34451 0.0
C10548 C 0.37193 0.06209 0.34019 0.0
C10549 C 0.36723 0.06673 0.33694 0.0
C10550 C 0.384 0.05162 0.35713 0.0
C10551 C 0.38222 0.04465 0.35877 0.0
C10552 C 0.38013 0.05537 0.35214 0.0
C10553 C 0.37437 0.05223 0.34873 0.0
C10554 C 0.37292 0.04508 0.35003 0.0
C10555 C 0.37681 0.04132 0.35503 0.0
H10556 H 0.69947 0.60302 0.09056 0.0
H10557 H 0.6856 0.62014 0.08496 0.0
H10558 H 0.70718 0.61122 0.09659 0.0
H10559 H 0.69355 0.62842 0.09066 0.0
H10560 H 0.70281 0.63749 0.11147 0.0
H10561 H 0.69623 0.63109 0.10258 0.0
H10562 H 0.71536 0.62073 0.09594 0.0
H10563 H 0.72189 0.62706 0.10508 0.0
C10564 C 0.69811 0.60855 0.09053 0.0
C10565 C 0.69186 0.6109 0.08735 0.0
C10566 C 0.7026 0.61328 0.0939 0.0
C10567 C 0.70099 0.6205 0.09413 0.0
C10568 C 0.69491 0.62289 0.09065 0.0
C10569 C 0.69039 0.61815 0.08731 0.0
C10570 C 0.70563 0.63402 0.10795 0.0
C10571 C 0.71284 0.63277 0.10892 0.0
C10572 C 0.70187 0.63034 0.10284 0.0
C10573 C 0.70525 0.62533 0.09858 0.0
C10574 C 0.71258 0.62448 0.09921 0.0
C10575 C 0.71635 0.62817 0.10435 0.0
H10576 H 0.63802 0.43617 0.33502 0.0
H10577 H 0.65547 0.44909 0.34174 0.0
H10578 H 0.62988 0.44416 0.34085 0.0
H10579 H 0.64738 0.45684 0.34789 0.0
H10580 H 0.63163 0.47192 0.35621 0.0
H10581 H 0.63815 0.46543 0.34718 0.0
H10582 H 0.62698 0.44645 0.35285 0.0
H10583 H 0.62042 0.45298 0.36168 0.0
C10584 C 0.64012 0.44076 0.33765 0.0
C10585 C 0.64741 0.44194 0.33795 0.0
C10586 C 0.63545 0.44531 0.34106 0.0
C10587 C 0.63797 0.45113 0.34488 0.0
C10588 C 0.64524 0.45246 0.34494 0.0
C10589 C 0.64989 0.44795 0.3415 0.0
C10590 C 0.63041 0.46643 0.3553 0.0
C10591 C 0.62551 0.46294 0.35958 0.0
C10592 C 0.6342 0.46268 0.35022 0.0
C10593 C 0.63315 0.4554 0.34934 0.0
C10594 C 0.62789 0.45206 0.35331 0.0
C10595 C 0.62412 0.45579 0.35838 0.0
H10596 H 0.18602 0.88782 0.92324 0.0
H10597 H 0.19917 0.90517 0.91671 0.0
H10598 H 0.19404 0.87961 0.91754 0.0
H10599 H 0.20693 0.89703 0.91067 0.0
H10600 H 0.22187 0.88143 0.90218 0.0
H10601 H 0.21543 0.88781 0.91134 0.0
H10602 H 0.19645 0.87665 0.90563 0.0
H10603 H 0.20295 0.87021 0.89669 0.0
C10604 C 0.19067 0.88989 0.92068 0.0
C10605 C 0.1919 0.89717 0.92038 0.0
C10606 C 0.19523 0.88518 0.91734 0.0
C10607 C 0.20112 0.88765 0.9136 0.0
C10608 C 0.20251 0.89491 0.91357 0.0
C10609 C 0.19798 0.89961 0.91694 0.0
C10610 C 0.2164 0.88016 0.90312 0.0
C10611 C 0.2129 0.87531 0.8988 0.0
C10612 C 0.21267 0.88388 0.90827 0.0
C10613 C 0.20539 0.88281 0.90916 0.0
C10614 C 0.20205 0.87756 0.90517 0.0
C10615 C 0.20577 0.87386 0.90004 0.0
H10616 H 0.36871 0.94031 0.17591 0.0
H10617 H 0.35221 0.94438 0.16083 0.0
H10618 H 0.37605 0.94926 0.17023 0.0
H10619 H 0.35956 0.95302 0.15504 0.0
H10620 H 0.37135 0.97123 0.14766 0.0
H10621 H 0.36463 0.96443 0.15624 0.0
H10622 H 0.38243 0.95057 0.15911 0.0
H10623 H 0.38917 0.95757 0.15068 0.0
C10624 C 0.36663 0.94316 0.17143 0.0
C10625 C 0.3599 0.94161 0.16878 0.0
C10626 C 0.37085 0.94823 0.16815 0.0
C10627 C 0.36839 0.95188 0.16219 0.0
C10628 C 0.36159 0.95042 0.15968 0.0
C10629 C 0.3574 0.94538 0.16294 0.0
C10630 C 0.37389 0.96691 0.15037 0.0
C10631 C 0.38078 0.96497 0.14864 0.0
C10632 C 0.37003 0.96295 0.15519 0.0
C10633 C 0.37295 0.95688 0.15827 0.0
C10634 C 0.38004 0.95524 0.15689 0.0
C10635 C 0.38391 0.95925 0.15209 0.0
H10636 H 0.15515 0.05887 0.66633 0.0
H10637 H 0.13787 0.07201 0.67305 0.0
H10638 H 0.14697 0.05112 0.66035 0.0
H10639 H 0.12961 0.064 0.66738 0.0
H10640 H 0.12004 0.05502 0.6466 0.0
H10641 H 0.12655 0.06157 0.65546 0.0
H10642 H 0.13774 0.04261 0.66118 0.0
H10643 H 0.13129 0.03612 0.6521 0.0
C10644 C 0.14959 0.06006 0.66661 0.0
C10645 C 0.14719 0.06612 0.6701 0.0
C10646 C 0.14487 0.05554 0.66327 0.0
C10647 C 0.13761 0.05693 0.66337 0.0
C10648 C 0.13517 0.06281 0.66713 0.0
C10649 C 0.13991 0.06737 0.67045 0.0
C10650 C 0.12372 0.05222 0.64994 0.0
C10651 C 0.12515 0.04508 0.64872 0.0
C10652 C 0.12746 0.05596 0.65502 0.0
C10653 C 0.13274 0.05264 0.65899 0.0
C10654 C 0.13379 0.04535 0.65813 0.0
C10655 C 0.13003 0.0416 0.65302 0.0
loop_
_geom_bond_atom_site_label_1
_geom_bond_atom_site_label_2
_geom_bond_distance
_geom_bond_site_symmetry_2
_ccdc_geom_bond_type
C0 C1 1.264 . S
C0 C5 1.479 . S
C0 C10 1.465 . S
C1 C0 1.264 . S
C1 C3 1.339 . S
C1 H28 0.931 . S
C2 C3 1.395 . S
C2 C4 1.320 . S
C3 C1 1.339 . S
C3 C2 1.395 . S
C3 H29 0.929 . S
C4 C2 1.320 . S
C4 C5 1.405 . S
C4 H30 0.930 . S
C5 C0 1.479 . S
C5 C4 1.405 . S
C5 H31 0.931 . S
U6 O7 2.454 . S
U6 O8 2.458 . S
U6 C9 2.984 . S
U6 C10 2.847 . S
U6 C23 2.882 . S
U6 O24 2.441 . S
U6 O25 2.420 . S
U6 O26 2.455 . S
U6 O27 2.449 . S
O7 U6 2.454 . S
O7 C9 1.353 . S
O8 U6 2.458 . S
O8 C9 1.286 . S
C9 U6 2.984 . S
C9 O7 1.353 . S
C9 O8 1.286 . S
C9 C11 1.363 . S
C10 C0 1.465 . S
C10 U6 2.847 . S
C10 O24 1.249 . S
C10 O25 1.202 . S
C11 C9 1.363 . S
C11 C13 1.408 . S
C11 C16 1.342 . S
C12 C13 1.310 . S
C12 C15 1.461 . S
C12 H32 0.932 . S
C13 C11 1.408 . S
C13 C12 1.310 . S
C13 H33 0.930 . S
C14 C15 1.474 . S
C14 C16 1.285 . S
C14 H34 0.929 . S
C15 C12 1.461 . S
C15 C14 1.474 . S
C16 C11 1.342 . S
C16 C14 1.285 . S
C16 H35 0.930 . S
C17 C20 1.424 . S
C17 C22 1.245 . S
C17 C23 1.428 . S
C18 C21 1.260 . S
C18 C22 1.477 . S
C18 H36 0.932 . S
C19 C20 1.384 . S
C19 C21 1.479 . S
C19 H37 0.929 . S
C20 C17 1.424 . S
C20 C19 1.384 . S
C20 H38 0.928 . S
C21 C18 1.260 . S
C21 C19 1.479 . S
C22 C17 1.245 . S
C22 C18 1.477 . S
C22 H39 0.932 . S
C23 U6 2.882 . S
C23 C17 1.428 . S
C23 O26 1.301 . S
C23 O27 1.282 . S
O24 U6 2.441 . S
O24 C10 1.249 . S
O25 U6 2.420 . S
O25 C10 1.202 . S
O26 U6 2.455 . S
O26 C23 1.301 . S
O27 U6 2.449 . S
O27 C23 1.282 . S
H28 C1 0.931 . S
H29 C3 0.929 . S
H30 C4 0.930 . S
H31 C5 0.931 . S
H32 C12 0.932 . S
H33 C13 0.930 . S
H34 C14 0.929 . S
H35 C16 0.930 . S
H36 C18 0.932 . S
H37 C19 0.929 . S
H38 C20 0.928 . S
H39 C22 0.932 . S
C40 C41 1.264 . S
C40 C45 1.479 . S
C40 C50 1.465 . S
C41 C40 1.264 . S
C41 C43 1.339 . S
C41 H68 0.931 . S
C42 C43 1.395 . S
C42 C44 1.320 . S
C43 C41 1.339 . S
C43 C42 1.395 . S
C43 H69 0.929 . S
C44 C42 1.320 . S
C44 C45 1.405 . S
C44 H70 0.930 . S
C45 C40 1.479 . S
C45 C44 1.405 . S
C45 H71 0.931 . S
U46 O47 2.454 . S
U46 O48 2.458 . S
U46 C49 2.984 . S
U46 C50 2.847 . S
U46 C63 2.882 . S
U46 O64 2.441 . S
U46 O65 2.420 . S
U46 O66 2.455 . S
U46 O67 2.449 . S
O47 U46 2.454 . S
O47 C49 1.353 . S
O48 U46 2.458 . S
O48 C49 1.286 . S
C49 U46 2.984 . S
C49 O47 1.353 . S
C49 O48 1.286 . S
C49 C51 1.363 . S
C50 C40 1.465 . S
C50 U46 2.847 . S
C50 O64 1.249 . S
C50 O65 1.202 . S
C51 C49 1.363 . S
C51 C53 1.408 . S
C51 C56 1.342 . S
C52 C53 1.310 . S
C52 C55 1.461 . S
C52 H72 0.932 . S
C53 C51 1.408 . S
C53 C52 1.310 . S
C53 H73 0.930 . S
C54 C55 1.474 . S
C54 C56 1.285 . S
C54 H74 0.929 . S
C55 C52 1.461 . S
C55 C54 1.474 . S
C56 C51 1.342 . S
C56 C54 1.285 . S
C56 H75 0.930 . S
C57 C60 1.424 . S
C57 C62 1.245 . S
C57 C63 1.428 . S
C58 C61 1.260 . S
C58 C62 1.477 . S
C58 H76 0.932 . S
C59 C60 1.384 . S
C59 C61 1.479 . S
C59 H77 0.929 . S
C60 C57 1.424 . S
C60 C59 1.384 . S
C60 H78 0.928 . S
C61 C58 1.260 . S
C61 C59 1.479 . S
C62 C57 1.245 . S
C62 C58 1.477 . S
C62 H79 0.932 . S
C63 U46 2.882 . S
C63 C57 1.428 . S
C63 O66 1.301 . S
C63 O67 1.282 . S
O64 U46 2.441 . S
O64 C50 1.249 . S
O65 U46 2.420 . S
O65 C50 1.202 . S
O66 U46 2.455 . S
O66 C63 1.301 . S
O67 U46 2.449 . S
O67 C63 1.282 . S
H68 C41 0.931 . S
H69 C43 0.929 . S
H70 C44 0.930 . S
H71 C45 0.931 . S
H72 C52 0.932 . S
H73 C53 0.930 . S
H74 C54 0.929 . S
H75 C56 0.930 . S
H76 C58 0.932 . S
H77 C59 0.929 . S
H78 C60 0.928 . S
H79 C62 0.932 . S
C80 C81 1.264 . S
C80 C85 1.479 . S
C80 C90 1.465 . S
C81 C80 1.264 . S
C81 C83 1.339 . S
C81 H108 0.931 . S
C82 C83 1.395 . S
C82 C84 1.320 . S
C83 C81 1.339 . S
C83 C82 1.395 . S
C83 H109 0.929 . S
C84 C82 1.320 . S
C84 C85 1.405 . S
C84 H110 0.930 . S
C85 C80 1.479 . S
C85 C84 1.405 . S
C85 H111 0.931 . S
U86 O87 2.454 . S
U86 O88 2.458 . S
U86 C89 2.984 . S
U86 C90 2.847 . S
U86 C103 2.882 . S
U86 O104 2.441 . S
U86 O105 2.420 . S
U86 O106 2.455 . S
U86 O107 2.449 . S
O87 U86 2.454 . S
O87 C89 1.353 . S
O88 U86 2.458 . S
O88 C89 1.286 . S
C89 U86 2.984 . S
C89 O87 1.353 . S
C89 O88 1.286 . S
C89 C91 1.363 . S
C90 C80 1.465 . S
C90 U86 2.847 . S
C90 O104 1.249 . S
C90 O105 1.202 . S
C91 C89 1.363 . S
C91 C93 1.408 . S
C91 C96 1.342 . S
C92 C93 1.310 . S
C92 C95 1.461 . S
C92 H112 0.932 . S
C93 C91 1.408 . S
C93 C92 1.310 . S
C93 H113 0.930 . S
C94 C95 1.474 . S
C94 C96 1.285 . S
C94 H114 0.929 . S
C95 C92 1.461 . S
C95 C94 1.474 . S
C96 C91 1.342 . S
C96 C94 1.285 . S
C96 H115 0.930 . S
C97 C100 1.424 . S
C97 C102 1.245 . S
C97 C103 1.428 . S
C98 C101 1.260 . S
C98 C102 1.477 . S
C98 H116 0.932 . S
C99 C100 1.384 . S
C99 C101 1.479 . S
C99 H117 0.929 . S
C100 C97 1.424 . S
C100 C99 1.384 . S
C100 H118 0.928 . S
C101 C98 1.260 . S
C101 C99 1.479 . S
C102 C97 1.245 . S
C102 C98 1.477 . S
C102 H119 0.932 . S
C103 U86 2.882 . S
C103 C97 1.428 . S
C103 O106 1.301 . S
C103 O107 1.282 . S
O104 U86 2.441 . S
O104 C90 1.249 . S
O105 U86 2.420 . S
O105 C90 1.202 . S
O106 U86 2.455 . S
O106 C103 1.301 . S
O107 U86 2.449 . S
O107 C103 1.282 . S
H108 C81 0.931 . S
H109 C83 0.929 . S
H110 C84 0.930 . S
H111 C85 0.931 . S
H112 C92 0.932 . S
H113 C93 0.930 . S
H114 C94 0.929 . S
H115 C96 0.930 . S
H116 C98 0.932 . S
H117 C99 0.929 . S
H118 C100 0.928 . S
H119 C102 0.932 . S
C120 C121 1.264 . S
C120 C125 1.479 . S
C120 C130 1.465 . S
C121 C120 1.264 . S
C121 C123 1.339 . S
C121 H148 0.931 . S
C122 C123 1.395 . S
C122 C124 1.320 . S
C123 C121 1.339 . S
C123 C122 1.395 . S
C123 H149 0.929 . S
C124 C122 1.320 . S
C124 C125 1.405 . S
C124 H150 0.930 . S
C125 C120 1.479 . S
C125 C124 1.405 . S
C125 H151 0.931 . S
U126 O127 2.454 . S
U126 O128 2.458 . S
U126 C129 2.984 . S
U126 C130 2.847 . S
U126 C143 2.882 . S
U126 O144 2.441 . S
U126 O145 2.420 . S
U126 O146 2.455 . S
U126 O147 2.449 . S
O127 U126 2.454 . S
O127 C129 1.353 . S
O128 U126 2.458 . S
O128 C129 1.286 . S
C129 U126 2.984 . S
C129 O127 1.353 . S
C129 O128 1.286 . S
C129 C131 1.363 . S
C130 C120 1.465 . S
C130 U126 2.847 . S
C130 O144 1.249 . S
C130 O145 1.202 . S
C131 C129 1.363 . S
C131 C133 1.408 . S
C131 C136 1.342 . S
C132 C133 1.310 . S
C132 C135 1.461 . S
C132 H152 0.932 . S
C133 C131 1.408 . S
C133 C132 1.310 . S
C133 H153 0.930 . S
C134 C135 1.474 . S
C134 C136 1.285 . S
C134 H154 0.929 . S
C135 C132 1.461 . S
C135 C134 1.474 . S
C136 C131 1.342 . S
C136 C134 1.285 . S
C136 H155 0.930 . S
C137 C140 1.424 . S
C137 C142 1.245 . S
C137 C143 1.428 . S
C138 C141 1.260 . S
C138 C142 1.477 . S
C138 H156 0.932 . S
C139 C140 1.384 . S
C139 C141 1.479 . S
C139 H157 0.929 . S
C140 C137 1.424 . S
C140 C139 1.384 . S
C140 H158 0.928 . S
C141 C138 1.260 . S
C141 C139 1.479 . S
C142 C137 1.245 . S
C142 C138 1.477 . S
C142 H159 0.932 . S
C143 U126 2.882 . S
C143 C137 1.428 . S
C143 O146 1.301 . S
C143 O147 1.282 . S
O144 U126 2.441 . S
O144 C130 1.249 . S
O145 U126 2.420 . S
O145 C130 1.202 . S
O146 U126 2.455 . S
O146 C143 1.301 . S
O147 U126 2.449 . S
O147 C143 1.282 . S
H148 C121 0.931 . S
H149 C123 0.929 . S
H150 C124 0.930 . S
H151 C125 0.931 . S
H152 C132 0.932 . S
H153 C133 0.930 . S
H154 C134 0.929 . S
H155 C136 0.930 . S
H156 C138 0.932 . S
H157 C139 0.929 . S
H158 C140 0.928 . S
H159 C142 0.932 . S
C160 C161 1.264 . S
C160 C165 1.479 . S
C160 C170 1.465 . S
C161 C160 1.264 . S
C161 C163 1.339 . S
C161 H188 0.931 . S
C162 C163 1.395 . S
C162 C164 1.320 . S
C163 C161 1.339 . S
C163 C162 1.395 . S
C163 H189 0.929 . S
C164 C162 1.320 . S
C164 C165 1.405 . S
C164 H190 0.930 . S
C165 C160 1.479 . S
C165 C164 1.405 . S
C165 H191 0.931 . S
U166 O167 2.454 . S
U166 O168 2.458 . S
U166 C169 2.984 . S
U166 C170 2.847 . S
U166 C183 2.882 . S
U166 O184 2.441 . S
U166 O185 2.420 . S
U166 O186 2.455 . S
U166 O187 2.449 . S
O167 U166 2.454 . S
O167 C169 1.353 . S
O168 U166 2.458 . S
O168 C169 1.286 . S
C169 U166 2.984 . S
C169 O167 1.353 . S
C169 O168 1.286 . S
C169 C171 1.363 . S
C170 C160 1.465 . S
C170 U166 2.847 . S
C170 O184 1.249 . S
C170 O185 1.202 . S
C171 C169 1.363 . S
C171 C173 1.408 . S
C171 C176 1.342 . S
C172 C173 1.310 . S
C172 C175 1.461 . S
C172 H192 0.932 . S
C173 C171 1.408 . S
C173 C172 1.310 . S
C173 H193 0.930 . S
C174 C175 1.474 . S
C174 C176 1.285 . S
C174 H194 0.929 . S
C175 C172 1.461 . S
C175 C174 1.474 . S
C176 C171 1.342 . S
C176 C174 1.285 . S
C176 H195 0.930 . S
C177 C180 1.424 . S
C177 C182 1.245 . S
C177 C183 1.428 . S
C178 C181 1.260 . S
C178 C182 1.477 . S
C178 H196 0.932 . S
C179 C180 1.384 . S
C179 C181 1.479 . S
C179 H197 0.929 . S
C180 C177 1.424 . S
C180 C179 1.384 . S
C180 H198 0.928 . S
C181 C178 1.260 . S
C181 C179 1.479 . S
C182 C177 1.245 . S
C182 C178 1.477 . S
C182 H199 0.932 . S
C183 U166 2.882 . S
C183 C177 1.428 . S
C183 O186 1.301 . S
C183 O187 1.282 . S
O184 U166 2.441 . S
O184 C170 1.249 . S
O185 U166 2.420 . S
O185 C170 1.202 . S
O186 U166 2.455 . S
O186 C183 1.301 . S
O187 U166 2.449 . S
O187 C183 1.282 . S
H188 C161 0.931 . S
H189 C163 0.929 . S
H190 C164 0.930 . S
H191 C165 0.931 . S
H192 C172 0.932 . S
H193 C173 0.930 . S
H194 C174 0.929 . S
H195 C176 0.930 . S
H196 C178 0.932 . S
H197 C179 0.929 . S
H198 C180 0.928 . S
H199 C182 0.932 . S
C200 C201 1.264 . S
C200 C205 1.479 . S
C200 C210 1.465 . S
C201 C200 1.264 . S
C201 C203 1.339 . S
C201 H228 0.931 . S
C202 C203 1.395 . S
C202 C204 1.320 . S
C203 C201 1.339 . S
C203 C202 1.395 . S
C203 H229 0.929 . S
C204 C202 1.320 . S
C204 C205 1.405 . S
C204 H230 0.930 . S
C205 C200 1.479 . S
C205 C204 1.405 . S
C205 H231 0.931 . S
U206 O207 2.454 . S
U206 O208 2.458 . S
U206 C209 2.984 . S
U206 C210 2.847 . S
U206 C223 2.882 . S
U206 O224 2.441 . S
U206 O225 2.420 . S
U206 O226 2.455 . S
U206 O227 2.449 . S
O207 U206 2.454 . S
O207 C209 1.353 . S
O208 U206 2.458 . S
O208 C209 1.286 . S
C209 U206 2.984 . S
C209 O207 1.353 . S
C209 O208 1.286 . S
C209 C211 1.363 . S
C210 C200 1.465 . S
C210 U206 2.847 . S
C210 O224 1.249 . S
C210 O225 1.202 . S
C211 C209 1.363 . S
C211 C213 1.408 . S
C211 C216 1.342 . S
C212 C213 1.310 . S
C212 C215 1.461 . S
C212 H232 0.932 . S
C213 C211 1.408 . S
C213 C212 1.310 . S
C213 H233 0.930 . S
C214 C215 1.474 . S
C214 C216 1.285 . S
C214 H234 0.929 . S
C215 C212 1.461 . S
C215 C214 1.474 . S
C216 C211 1.342 . S
C216 C214 1.285 . S
C216 H235 0.930 . S
C217 C220 1.424 . S
C217 C222 1.245 . S
C217 C223 1.428 . S
C218 C221 1.260 . S
C218 C222 1.477 . S
C218 H236 0.932 . S
C219 C220 1.384 . S
C219 C221 1.479 . S
C219 H237 0.929 . S
C220 C217 1.424 . S
C220 C219 1.384 . S
C220 H238 0.928 . S
C221 C218 1.260 . S
C221 C219 1.479 . S
C222 C217 1.245 . S
C222 C218 1.477 . S
C222 H239 0.932 . S
C223 U206 2.882 . S
C223 C217 1.428 . S
C223 O226 1.301 . S
C223 O227 1.282 . S
O224 U206 2.441 . S
O224 C210 1.249 . S
O225 U206 2.420 . S
O225 C210 1.202 . S
O226 U206 2.455 . S
O226 C223 1.301 . S
O227 U206 2.449 . S
O227 C223 1.282 . S
H228 C201 0.931 . S
H229 C203 0.929 . S
H230 C204 0.930 . S
H231 C205 0.931 . S
H232 C212 0.932 . S
H233 C213 0.930 . S
H234 C214 0.929 . S
H235 C216 0.930 . S
H236 C218 0.932 . S
H237 C219 0.929 . S
H238 C220 0.928 . S
H239 C222 0.932 . S
C240 C241 1.264 . S
C240 C245 1.479 . S
C240 C250 1.465 . S
C241 C240 1.264 . S
C241 C243 1.339 . S
C241 H268 0.931 . S
C242 C243 1.395 . S
C242 C244 1.320 . S
C243 C241 1.339 . S
C243 C242 1.395 . S
C243 H269 0.929 . S
C244 C242 1.320 . S
C244 C245 1.405 . S
C244 H270 0.930 . S
C245 C240 1.479 . S
C245 C244 1.405 . S
C245 H271 0.931 . S
U246 O247 2.454 . S
U246 O248 2.458 . S
U246 C249 2.984 . S
U246 C250 2.847 . S
U246 C263 2.882 . S
U246 O264 2.441 . S
U246 O265 2.420 . S
U246 O266 2.455 . S
U246 O267 2.449 . S
O247 U246 2.454 . S
O247 C249 1.353 . S
O248 U246 2.458 . S
O248 C249 1.286 . S
C249 U246 2.984 . S
C249 O247 1.353 . S
C249 O248 1.286 . S
C249 C251 1.363 . S
C250 C240 1.465 . S
C250 U246 2.847 . S
C250 O264 1.249 . S
C250 O265 1.202 . S
C251 C249 1.363 . S
C251 C253 1.408 . S
C251 C256 1.342 . S
C252 C253 1.310 . S
C252 C255 1.461 . S
C252 H272 0.932 . S
C253 C251 1.408 . S
C253 C252 1.310 . S
C253 H273 0.930 . S
C254 C255 1.474 . S
C254 C256 1.285 . S
C254 H274 0.929 . S
C255 C252 1.461 . S
C255 C254 1.474 . S
C256 C251 1.342 . S
C256 C254 1.285 . S
C256 H275 0.930 . S
C257 C260 1.424 . S
C257 C262 1.245 . S
C257 C263 1.428 . S
C258 C261 1.260 . S
C258 C262 1.477 . S
C258 H276 0.932 . S
C259 C260 1.384 . S
C259 C261 1.479 . S
C259 H277 0.929 . S
C260 C257 1.424 . S
C260 C259 1.384 . S
C260 H278 0.928 . S
C261 C258 1.260 . S
C261 C259 1.479 . S
C262 C257 1.245 . S
C262 C258 1.477 . S
C262 H279 0.932 . S
C263 U246 2.882 . S
C263 C257 1.428 . S
C263 O266 1.301 . S
C263 O267 1.282 . S
O264 U246 2.441 . S
O264 C250 1.249 . S
O265 U246 2.420 . S
O265 C250 1.202 . S
O266 U246 2.455 . S
O266 C263 1.301 . S
O267 U246 2.449 . S
O267 C263 1.282 . S
H268 C241 0.931 . S
H269 C243 0.929 . S
H270 C244 0.930 . S
H271 C245 0.931 . S
H272 C252 0.932 . S
H273 C253 0.930 . S
H274 C254 0.929 . S
H275 C256 0.930 . S
H276 C258 0.932 . S
H277 C259 0.929 . S
H278 C260 0.928 . S
H279 C262 0.932 . S
C280 C281 1.264 . S
C280 C285 1.479 . S
C280 C290 1.465 . S
C281 C280 1.264 . S
C281 C283 1.339 . S
C281 H308 0.931 . S
C282 C283 1.395 . S
C282 C284 1.320 . S
C283 C281 1.339 . S
C283 C282 1.395 . S
C283 H309 0.929 . S
C284 C282 1.320 . S
C284 C285 1.405 . S
C284 H310 0.930 . S
C285 C280 1.479 . S
C285 C284 1.405 . S
C285 H311 0.931 . S
U286 O287 2.454 . S
U286 O288 2.458 . S
U286 C289 2.984 . S
U286 C290 2.847 . S
U286 C303 2.882 . S
U286 O304 2.441 . S
U286 O305 2.420 . S
U286 O306 2.455 . S
U286 O307 2.449 . S
O287 U286 2.454 . S
O287 C289 1.353 . S
O288 U286 2.458 . S
O288 C289 1.286 . S
C289 U286 2.984 . S
C289 O287 1.353 . S
C289 O288 1.286 . S
C289 C291 1.363 . S
C290 C280 1.465 . S
C290 U286 2.847 . S
C290 O304 1.249 . S
C290 O305 1.202 . S
C291 C289 1.363 . S
C291 C293 1.408 . S
C291 C296 1.342 . S
C292 C293 1.310 . S
C292 C295 1.461 . S
C292 H312 0.932 . S
C293 C291 1.408 . S
C293 C292 1.310 . S
C293 H313 0.930 . S
C294 C295 1.474 . S
C294 C296 1.285 . S
C294 H314 0.929 . S
C295 C292 1.461 . S
C295 C294 1.474 . S
C296 C291 1.342 . S
C296 C294 1.285 . S
C296 H315 0.930 . S
C297 C300 1.424 . S
C297 C302 1.245 . S
C297 C303 1.428 . S
C298 C301 1.260 . S
C298 C302 1.477 . S
C298 H316 0.932 . S
C299 C300 1.384 . S
C299 C301 1.479 . S
C299 H317 0.929 . S
C300 C297 1.424 . S
C300 C299 1.384 . S
C300 H318 0.928 . S
C301 C298 1.260 . S
C301 C299 1.479 . S
C302 C297 1.245 . S
C302 C298 1.477 . S
C302 H319 0.932 . S
C303 U286 2.882 . S
C303 C297 1.428 . S
C303 O306 1.301 . S
C303 O307 1.282 . S
O304 U286 2.441 . S
O304 C290 1.249 . S
O305 U286 2.420 . S
O305 C290 1.202 . S
O306 U286 2.455 . S
O306 C303 1.301 . S
O307 U286 2.449 . S
O307 C303 1.282 . S
H308 C281 0.931 . S
H309 C283 0.929 . S
H310 C284 0.930 . S
H311 C285 0.931 . S
H312 C292 0.932 . S
H313 C293 0.930 . S
H314 C294 0.929 . S
H315 C296 0.930 . S
H316 C298 0.932 . S
H317 C299 0.929 . S
H318 C300 0.928 . S
H319 C302 0.932 . S
C320 C321 1.264 . S
C320 C325 1.479 . S
C320 C330 1.465 . S
C321 C320 1.264 . S
C321 C323 1.339 . S
C321 H348 0.931 . S
C322 C323 1.395 . S
C322 C324 1.320 . S
C323 C321 1.339 . S
C323 C322 1.395 . S
C323 H349 0.929 . S
C324 C322 1.320 . S
C324 C325 1.405 . S
C324 H350 0.930 . S
C325 C320 1.479 . S
C325 C324 1.405 . S
C325 H351 0.931 . S
U326 O327 2.454 . S
U326 O328 2.458 . S
U326 C329 2.984 . S
U326 C330 2.847 . S
U326 C343 2.882 . S
U326 O344 2.441 . S
U326 O345 2.420 . S
U326 O346 2.455 . S
U326 O347 2.449 . S
O327 U326 2.454 . S
O327 C329 1.353 . S
O328 U326 2.458 . S
O328 C329 1.286 . S
C329 U326 2.984 . S
C329 O327 1.353 . S
C329 O328 1.286 . S
C329 C331 1.363 . S
C330 C320 1.465 . S
C330 U326 2.847 . S
C330 O344 1.249 . S
C330 O345 1.202 . S
C331 C329 1.363 . S
C331 C333 1.408 . S
C331 C336 1.342 . S
C332 C333 1.310 . S
C332 C335 1.461 . S
C332 H352 0.932 . S
C333 C331 1.408 . S
C333 C332 1.310 . S
C333 H353 0.930 . S
C334 C335 1.474 . S
C334 C336 1.285 . S
C334 H354 0.929 . S
C335 C332 1.461 . S
C335 C334 1.474 . S
C336 C331 1.342 . S
C336 C334 1.285 . S
C336 H355 0.930 . S
C337 C340 1.424 . S
C337 C342 1.245 . S
C337 C343 1.428 . S
C338 C341 1.260 . S
C338 C342 1.477 . S
C338 H356 0.932 . S
C339 C340 1.384 . S
C339 C341 1.479 . S
C339 H357 0.929 . S
C340 C337 1.424 . S
C340 C339 1.384 . S
C340 H358 0.928 . S
C341 C338 1.260 . S
C341 C339 1.479 . S
C342 C337 1.245 . S
C342 C338 1.477 . S
C342 H359 0.932 . S
C343 U326 2.882 . S
C343 C337 1.428 . S
C343 O346 1.301 . S
C343 O347 1.282 . S
O344 U326 2.441 . S
O344 C330 1.249 . S
O345 U326 2.420 . S
O345 C330 1.202 . S
O346 U326 2.455 . S
O346 C343 1.301 . S
O347 U326 2.449 . S
O347 C343 1.282 . S
H348 C321 0.931 . S
H349 C323 0.929 . S
H350 C324 0.930 . S
H351 C325 0.931 . S
H352 C332 0.932 . S
H353 C333 0.930 . S
H354 C334 0.929 . S
H355 C336 0.930 . S
H356 C338 0.932 . S
H357 C339 0.929 . S
H358 C340 0.928 . S
H359 C342 0.932 . S
C360 C361 1.264 . S
C360 C365 1.479 . S
C360 C370 1.465 . S
C361 C360 1.264 . S
C361 C363 1.339 . S
C361 H388 0.931 . S
C362 C363 1.395 . S
C362 C364 1.320 . S
C363 C361 1.339 . S
C363 C362 1.395 . S
C363 H389 0.929 . S
C364 C362 1.320 . S
C364 C365 1.405 . S
C364 H390 0.930 . S
C365 C360 1.479 . S
C365 C364 1.405 . S
C365 H391 0.931 . S
U366 O367 2.454 . S
U366 O368 2.458 . S
U366 C369 2.984 . S
U366 C370 2.847 . S
U366 C383 2.882 . S
U366 O384 2.441 . S
U366 O385 2.420 . S
U366 O386 2.455 . S
U366 O387 2.449 . S
O367 U366 2.454 . S
O367 C369 1.353 . S
O368 U366 2.458 . S
O368 C369 1.286 . S
C369 U366 2.984 . S
C369 O367 1.353 . S
C369 O368 1.286 . S
C369 C371 1.363 . S
C370 C360 1.465 . S
C370 U366 2.847 . S
C370 O384 1.249 . S
C370 O385 1.202 . S
C371 C369 1.363 . S
C371 C373 1.408 . S
C371 C376 1.342 . S
C372 C373 1.310 . S
C372 C375 1.461 . S
C372 H392 0.932 . S
C373 C371 1.408 . S
C373 C372 1.310 . S
C373 H393 0.930 . S
C374 C375 1.474 . S
C374 C376 1.285 . S
C374 H394 0.929 . S
C375 C372 1.461 . S
C375 C374 1.474 . S
C376 C371 1.342 . S
C376 C374 1.285 . S
C376 H395 0.930 . S
C377 C380 1.424 . S
C377 C382 1.245 . S
C377 C383 1.428 . S
C378 C381 1.260 . S
C378 C382 1.477 . S
C378 H396 0.932 . S
C379 C380 1.384 . S
C379 C381 1.479 . S
C379 H397 0.929 . S
C380 C377 1.424 . S
C380 C379 1.384 . S
C380 H398 0.928 . S
C381 C378 1.260 . S
C381 C379 1.479 . S
C382 C377 1.245 . S
C382 C378 1.477 . S
C382 H399 0.932 . S
C383 U366 2.882 . S
C383 C377 1.428 . S
C383 O386 1.301 . S
C383 O387 1.282 . S
O384 U366 2.441 . S
O384 C370 1.249 . S
O385 U366 2.420 . S
O385 C370 1.202 . S
O386 U366 2.455 . S
O386 C383 1.301 . S
O387 U366 2.449 . S
O387 C383 1.282 . S
H388 C361 0.931 . S
H389 C363 0.929 . S
H390 C364 0.930 . S
H391 C365 0.931 . S
H392 C372 0.932 . S
H393 C373 0.930 . S
H394 C374 0.929 . S
H395 C376 0.930 . S
H396 C378 0.932 . S
H397 C379 0.929 . S
H398 C380 0.928 . S
H399 C382 0.932 . S
C400 C401 1.264 . S
C400 C405 1.479 . S
C400 C410 1.465 . S
C401 C400 1.264 . S
C401 C403 1.339 . S
C401 H428 0.931 . S
C402 C403 1.395 . S
C402 C404 1.320 . S
C403 C401 1.339 . S
C403 C402 1.395 . S
C403 H429 0.929 . S
C404 C402 1.320 . S
C404 C405 1.405 . S
C404 H430 0.930 . S
C405 C400 1.479 . S
C405 C404 1.405 . S
C405 H431 0.931 . S
U406 O407 2.454 . S
U406 O408 2.458 . S
U406 C409 2.984 . S
U406 C410 2.847 . S
U406 C423 2.882 . S
U406 O424 2.441 . S
U406 O425 2.420 . S
U406 O426 2.455 . S
U406 O427 2.449 . S
O407 U406 2.454 . S
O407 C409 1.353 . S
O408 U406 2.458 . S
O408 C409 1.286 . S
C409 U406 2.984 . S
C409 O407 1.353 . S
C409 O408 1.286 . S
C409 C411 1.363 . S
C410 C400 1.465 . S
C410 U406 2.847 . S
C410 O424 1.249 . S
C410 O425 1.202 . S
C411 C409 1.363 . S
C411 C413 1.408 . S
C411 C416 1.342 . S
C412 C413 1.310 . S
C412 C415 1.461 . S
C412 H432 0.932 . S
C413 C411 1.408 . S
C413 C412 1.310 . S
C413 H433 0.930 . S
C414 C415 1.474 . S
C414 C416 1.285 . S
C414 H434 0.929 . S
C415 C412 1.461 . S
C415 C414 1.474 . S
C416 C411 1.342 . S
C416 C414 1.285 . S
C416 H435 0.930 . S
C417 C420 1.424 . S
C417 C422 1.245 . S
C417 C423 1.428 . S
C418 C421 1.260 . S
C418 C422 1.477 . S
C418 H436 0.932 . S
C419 C420 1.384 . S
C419 C421 1.479 . S
C419 H437 0.929 . S
C420 C417 1.424 . S
C420 C419 1.384 . S
C420 H438 0.928 . S
C421 C418 1.260 . S
C421 C419 1.479 . S
C422 C417 1.245 . S
C422 C418 1.477 . S
C422 H439 0.932 . S
C423 U406 2.882 . S
C423 C417 1.428 . S
C423 O426 1.301 . S
C423 O427 1.282 . S
O424 U406 2.441 . S
O424 C410 1.249 . S
O425 U406 2.420 . S
O425 C410 1.202 . S
O426 U406 2.455 . S
O426 C423 1.301 . S
O427 U406 2.449 . S
O427 C423 1.282 . S
H428 C401 0.931 . S
H429 C403 0.929 . S
H430 C404 0.930 . S
H431 C405 0.931 . S
H432 C412 0.932 . S
H433 C413 0.930 . S
H434 C414 0.929 . S
H435 C416 0.930 . S
H436 C418 0.932 . S
H437 C419 0.929 . S
H438 C420 0.928 . S
H439 C422 0.932 . S
C440 C441 1.264 . S
C440 C445 1.479 . S
C440 C450 1.465 . S
C441 C440 1.264 . S
C441 C443 1.339 . S
C441 H468 0.931 . S
C442 C443 1.395 . S
C442 C444 1.320 . S
C443 C441 1.339 . S
C443 C442 1.395 . S
C443 H469 0.929 . S
C444 C442 1.320 . S
C444 C445 1.405 . S
C444 H470 0.930 . S
C445 C440 1.479 . S
C445 C444 1.405 . S
C445 H471 0.931 . S
U446 O447 2.454 . S
U446 O448 2.458 . S
U446 C449 2.984 . S
U446 C450 2.847 . S
U446 C463 2.882 . S
U446 O464 2.441 . S
U446 O465 2.420 . S
U446 O466 2.455 . S
U446 O467 2.449 . S
O447 U446 2.454 . S
O447 C449 1.353 . S
O448 U446 2.458 . S
O448 C449 1.286 . S
C449 U446 2.984 . S
C449 O447 1.353 . S
C449 O448 1.286 . S
C449 C451 1.363 . S
C450 C440 1.465 . S
C450 U446 2.847 . S
C450 O464 1.249 . S
C450 O465 1.202 . S
C451 C449 1.363 . S
C451 C453 1.408 . S
C451 C456 1.342 . S
C452 C453 1.310 . S
C452 C455 1.461 . S
C452 H472 0.932 . S
C453 C451 1.408 . S
C453 C452 1.310 . S
C453 H473 0.930 . S
C454 C455 1.474 . S
C454 C456 1.285 . S
C454 H474 0.929 . S
C455 C452 1.461 . S
C455 C454 1.474 . S
C456 C451 1.342 . S
C456 C454 1.285 . S
C456 H475 0.930 . S
C457 C460 1.424 . S
C457 C462 1.245 . S
C457 C463 1.428 . S
C458 C461 1.260 . S
C458 C462 1.477 . S
C458 H476 0.932 . S
C459 C460 1.384 . S
C459 C461 1.479 . S
C459 H477 0.929 . S
C460 C457 1.424 . S
C460 C459 1.384 . S
C460 H478 0.928 . S
C461 C458 1.260 . S
C461 C459 1.479 . S
C462 C457 1.245 . S
C462 C458 1.477 . S
C462 H479 0.932 . S
C463 U446 2.882 . S
C463 C457 1.428 . S
C463 O466 1.301 . S
C463 O467 1.282 . S
O464 U446 2.441 . S
O464 C450 1.249 . S
O465 U446 2.420 . S
O465 C450 1.202 . S
O466 U446 2.455 . S
O466 C463 1.301 . S
O467 U446 2.449 . S
O467 C463 1.282 . S
H468 C441 0.931 . S
H469 C443 0.929 . S
H470 C444 0.930 . S
H471 C445 0.931 . S
H472 C452 0.932 . S
H473 C453 0.930 . S
H474 C454 0.929 . S
H475 C456 0.930 . S
H476 C458 0.932 . S
H477 C459 0.929 . S
H478 C460 0.928 . S
H479 C462 0.932 . S
C480 C481 1.264 . S
C480 C485 1.479 . S
C480 C490 1.465 . S
C481 C480 1.264 . S
C481 C483 1.339 . S
C481 H508 0.931 . S
C482 C483 1.395 . S
C482 C484 1.320 . S
C483 C481 1.339 . S
C483 C482 1.395 . S
C483 H509 0.929 . S
C484 C482 1.320 . S
C484 C485 1.405 . S
C484 H510 0.930 . S
C485 C480 1.479 . S
C485 C484 1.405 . S
C485 H511 0.931 . S
U486 O487 2.454 . S
U486 O488 2.458 . S
U486 C489 2.984 . S
U486 C490 2.847 . S
U486 C503 2.882 . S
U486 O504 2.441 . S
U486 O505 2.420 . S
U486 O506 2.455 . S
U486 O507 2.449 . S
O487 U486 2.454 . S
O487 C489 1.353 . S
O488 U486 2.458 . S
O488 C489 1.286 . S
C489 U486 2.984 . S
C489 O487 1.353 . S
C489 O488 1.286 . S
C489 C491 1.363 . S
C490 C480 1.465 . S
C490 U486 2.847 . S
C490 O504 1.249 . S
C490 O505 1.202 . S
C491 C489 1.363 . S
C491 C493 1.408 . S
C491 C496 1.342 . S
C492 C493 1.310 . S
C492 C495 1.461 . S
C492 H512 0.932 . S
C493 C491 1.408 . S
C493 C492 1.310 . S
C493 H513 0.930 . S
C494 C495 1.474 . S
C494 C496 1.285 . S
C494 H514 0.929 . S
C495 C492 1.461 . S
C495 C494 1.474 . S
C496 C491 1.342 . S
C496 C494 1.285 . S
C496 H515 0.930 . S
C497 C500 1.424 . S
C497 C502 1.245 . S
C497 C503 1.428 . S
C498 C501 1.260 . S
C498 C502 1.477 . S
C498 H516 0.932 . S
C499 C500 1.384 . S
C499 C501 1.479 . S
C499 H517 0.929 . S
C500 C497 1.424 . S
C500 C499 1.384 . S
C500 H518 0.928 . S
C501 C498 1.260 . S
C501 C499 1.479 . S
C502 C497 1.245 . S
C502 C498 1.477 . S
C502 H519 0.932 . S
C503 U486 2.882 . S
C503 C497 1.428 . S
C503 O506 1.301 . S
C503 O507 1.282 . S
O504 U486 2.441 . S
O504 C490 1.249 . S
O505 U486 2.420 . S
O505 C490 1.202 . S
O506 U486 2.455 . S
O506 C503 1.301 . S
O507 U486 2.449 . S
O507 C503 1.282 . S
H508 C481 0.931 . S
H509 C483 0.929 . S
H510 C484 0.930 . S
H511 C485 0.931 . S
H512 C492 0.932 . S
H513 C493 0.930 . S
H514 C494 0.929 . S
H515 C496 0.930 . S
H516 C498 0.932 . S
H517 C499 0.929 . S
H518 C500 0.928 . S
H519 C502 0.932 . S
C520 C521 1.264 . S
C520 C525 1.479 . S
C520 C530 1.465 . S
C521 C520 1.264 . S
C521 C523 1.339 . S
C521 H548 0.931 . S
C522 C523 1.395 . S
C522 C524 1.320 . S
C523 C521 1.339 . S
C523 C522 1.395 . S
C523 H549 0.929 . S
C524 C522 1.320 . S
C524 C525 1.405 . S
C524 H550 0.930 . S
C525 C520 1.479 . S
C525 C524 1.405 . S
C525 H551 0.931 . S
U526 O527 2.454 . S
U526 O528 2.458 . S
U526 C529 2.984 . S
U526 C530 2.847 . S
U526 C543 2.882 . S
U526 O544 2.441 . S
U526 O545 2.420 . S
U526 O546 2.455 . S
U526 O547 2.449 . S
O527 U526 2.454 . S
O527 C529 1.353 . S
O528 U526 2.458 . S
O528 C529 1.286 . S
C529 U526 2.984 . S
C529 O527 1.353 . S
C529 O528 1.286 . S
C529 C531 1.363 . S
C530 C520 1.465 . S
C530 U526 2.847 . S
C530 O544 1.249 . S
C530 O545 1.202 . S
C531 C529 1.363 . S
C531 C533 1.408 . S
C531 C536 1.342 . S
C532 C533 1.310 . S
C532 C535 1.461 . S
C532 H552 0.932 . S
C533 C531 1.408 . S
C533 C532 1.310 . S
C533 H553 0.930 . S
C534 C535 1.474 . S
C534 C536 1.285 . S
C534 H554 0.929 . S
C535 C532 1.461 . S
C535 C534 1.474 . S
C536 C531 1.342 . S
C536 C534 1.285 . S
C536 H555 0.930 . S
C537 C540 1.424 . S
C537 C542 1.245 . S
C537 C543 1.428 . S
C538 C541 1.260 . S
C538 C542 1.477 . S
C538 H556 0.932 . S
C539 C540 1.384 . S
C539 C541 1.479 . S
C539 H557 0.929 . S
C540 C537 1.424 . S
C540 C539 1.384 . S
C540 H558 0.928 . S
C541 C538 1.260 . S
C541 C539 1.479 . S
C542 C537 1.245 . S
C542 C538 1.477 . S
C542 H559 0.932 . S
C543 U526 2.882 . S
C543 C537 1.428 . S
C543 O546 1.301 . S
C543 O547 1.282 . S
O544 U526 2.441 . S
O544 C530 1.249 . S
O545 U526 2.420 . S
O545 C530 1.202 . S
O546 U526 2.455 . S
O546 C543 1.301 . S
O547 U526 2.449 . S
O547 C543 1.282 . S
H548 C521 0.931 . S
H549 C523 0.929 . S
H550 C524 0.930 . S
H551 C525 0.931 . S
H552 C532 0.932 . S
H553 C533 0.930 . S
H554 C534 0.929 . S
H555 C536 0.930 . S
H556 C538 0.932 . S
H557 C539 0.929 . S
H558 C540 0.928 . S
H559 C542 0.932 . S
C560 C561 1.264 . S
C560 C565 1.479 . S
C560 C570 1.465 . S
C561 C560 1.264 . S
C561 C563 1.339 . S
C561 H588 0.931 . S
C562 C563 1.395 . S
C562 C564 1.320 . S
C563 C561 1.339 . S
C563 C562 1.395 . S
C563 H589 0.929 . S
C564 C562 1.320 . S
C564 C565 1.405 . S
C564 H590 0.930 . S
C565 C560 1.479 . S
C565 C564 1.405 . S
C565 H591 0.931 . S
U566 O567 2.454 . S
U566 O568 2.458 . S
U566 C569 2.984 . S
U566 C570 2.847 . S
U566 C583 2.882 . S
U566 O584 2.441 . S
U566 O585 2.420 . S
U566 O586 2.455 . S
U566 O587 2.449 . S
O567 U566 2.454 . S
O567 C569 1.353 . S
O568 U566 2.458 . S
O568 C569 1.286 . S
C569 U566 2.984 . S
C569 O567 1.353 . S
C569 O568 1.286 . S
C569 C571 1.363 . S
C570 C560 1.465 . S
C570 U566 2.847 . S
C570 O584 1.249 . S
C570 O585 1.202 . S
C571 C569 1.363 . S
C571 C573 1.408 . S
C571 C576 1.342 . S
C572 C573 1.310 . S
C572 C575 1.461 . S
C572 H592 0.932 . S
C573 C571 1.408 . S
C573 C572 1.310 . S
C573 H593 0.930 . S
C574 C575 1.474 . S
C574 C576 1.285 . S
C574 H594 0.929 . S
C575 C572 1.461 . S
C575 C574 1.474 . S
C576 C571 1.342 . S
C576 C574 1.285 . S
C576 H595 0.930 . S
C577 C580 1.424 . S
C577 C582 1.245 . S
C577 C583 1.428 . S
C578 C581 1.260 . S
C578 C582 1.477 . S
C578 H596 0.932 . S
C579 C580 1.384 . S
C579 C581 1.479 . S
C579 H597 0.929 . S
C580 C577 1.424 . S
C580 C579 1.384 . S
C580 H598 0.928 . S
C581 C578 1.260 . S
C581 C579 1.479 . S
C582 C577 1.245 . S
C582 C578 1.477 . S
C582 H599 0.932 . S
C583 U566 2.882 . S
C583 C577 1.428 . S
C583 O586 1.301 . S
C583 O587 1.282 . S
O584 U566 2.441 . S
O584 C570 1.249 . S
O585 U566 2.420 . S
O585 C570 1.202 . S
O586 U566 2.455 . S
O586 C583 1.301 . S
O587 U566 2.449 . S
O587 C583 1.282 . S
H588 C561 0.931 . S
H589 C563 0.929 . S
H590 C564 0.930 . S
H591 C565 0.931 . S
H592 C572 0.932 . S
H593 C573 0.930 . S
H594 C574 0.929 . S
H595 C576 0.930 . S
H596 C578 0.932 . S
H597 C579 0.929 . S
H598 C580 0.928 . S
H599 C582 0.932 . S
C600 C601 1.264 . S
C600 C605 1.479 . S
C600 C610 1.465 . S
C601 C600 1.264 . S
C601 C603 1.339 . S
C601 H628 0.931 . S
C602 C603 1.395 . S
C602 C604 1.320 . S
C603 C601 1.339 . S
C603 C602 1.395 . S
C603 H629 0.929 . S
C604 C602 1.320 . S
C604 C605 1.405 . S
C604 H630 0.930 . S
C605 C600 1.479 . S
C605 C604 1.405 . S
C605 H631 0.931 . S
U606 O607 2.454 . S
U606 O608 2.458 . S
U606 C609 2.984 . S
U606 C610 2.847 . S
U606 C623 2.882 . S
U606 O624 2.441 . S
U606 O625 2.420 . S
U606 O626 2.455 . S
U606 O627 2.449 . S
O607 U606 2.454 . S
O607 C609 1.353 . S
O608 U606 2.458 . S
O608 C609 1.286 . S
C609 U606 2.984 . S
C609 O607 1.353 . S
C609 O608 1.286 . S
C609 C611 1.363 . S
C610 C600 1.465 . S
C610 U606 2.847 . S
C610 O624 1.249 . S
C610 O625 1.202 . S
C611 C609 1.363 . S
C611 C613 1.408 . S
C611 C616 1.342 . S
C612 C613 1.310 . S
C612 C615 1.461 . S
C612 H632 0.932 . S
C613 C611 1.408 . S
C613 C612 1.310 . S
C613 H633 0.930 . S
C614 C615 1.474 . S
C614 C616 1.285 . S
C614 H634 0.929 . S
C615 C612 1.461 . S
C615 C614 1.474 . S
C616 C611 1.342 . S
C616 C614 1.285 . S
C616 H635 0.930 . S
C617 C620 1.424 . S
C617 C622 1.245 . S
C617 C623 1.428 . S
C618 C621 1.260 . S
C618 C622 1.477 . S
C618 H636 0.932 . S
C619 C620 1.384 . S
C619 C621 1.479 . S
C619 H637 0.929 . S
C620 C617 1.424 . S
C620 C619 1.384 . S
C620 H638 0.928 . S
C621 C618 1.260 . S
C621 C619 1.479 . S
C622 C617 1.245 . S
C622 C618 1.477 . S
C622 H639 0.932 . S
C623 U606 2.882 . S
C623 C617 1.428 . S
C623 O626 1.301 . S
C623 O627 1.282 . S
O624 U606 2.441 . S
O624 C610 1.249 . S
O625 U606 2.420 . S
O625 C610 1.202 . S
O626 U606 2.455 . S
O626 C623 1.301 . S
O627 U606 2.449 . S
O627 C623 1.282 . S
H628 C601 0.931 . S
H629 C603 0.929 . S
H630 C604 0.930 . S
H631 C605 0.931 . S
H632 C612 0.932 . S
H633 C613 0.930 . S
H634 C614 0.929 . S
H635 C616 0.930 . S
H636 C618 0.932 . S
H637 C619 0.929 . S
H638 C620 0.928 . S
H639 C622 0.932 . S
C640 C641 1.264 . S
C640 C645 1.479 . S
C640 C650 1.465 . S
C641 C640 1.264 . S
C641 C643 1.339 . S
C641 H668 0.931 . S
C642 C643 1.395 . S
C642 C644 1.320 . S
C643 C641 1.339 . S
C643 C642 1.395 . S
C643 H669 0.929 . S
C644 C642 1.320 . S
C644 C645 1.405 . S
C644 H670 0.930 . S
C645 C640 1.479 . S
C645 C644 1.405 . S
C645 H671 0.931 . S
U646 O647 2.454 . S
U646 O648 2.458 . S
U646 C649 2.984 . S
U646 C650 2.847 . S
U646 C663 2.882 . S
U646 O664 2.441 . S
U646 O665 2.420 . S
U646 O666 2.455 . S
U646 O667 2.449 . S
O647 U646 2.454 . S
O647 C649 1.353 . S
O648 U646 2.458 . S
O648 C649 1.286 . S
C649 U646 2.984 . S
C649 O647 1.353 . S
C649 O648 1.286 . S
C649 C651 1.363 . S
C650 C640 1.465 . S
C650 U646 2.847 . S
C650 O664 1.249 . S
C650 O665 1.202 . S
C651 C649 1.363 . S
C651 C653 1.408 . S
C651 C656 1.342 . S
C652 C653 1.310 . S
C652 C655 1.461 . S
C652 H672 0.932 . S
C653 C651 1.408 . S
C653 C652 1.310 . S
C653 H673 0.930 . S
C654 C655 1.474 . S
C654 C656 1.285 . S
C654 H674 0.929 . S
C655 C652 1.461 . S
C655 C654 1.474 . S
C656 C651 1.342 . S
C656 C654 1.285 . S
C656 H675 0.930 . S
C657 C660 1.424 . S
C657 C662 1.245 . S
C657 C663 1.428 . S
C658 C661 1.260 . S
C658 C662 1.477 . S
C658 H676 0.932 . S
C659 C660 1.384 . S
C659 C661 1.479 . S
C659 H677 0.929 . S
C660 C657 1.424 . S
C660 C659 1.384 . S
C660 H678 0.928 . S
C661 C658 1.260 . S
C661 C659 1.479 . S
C662 C657 1.245 . S
C662 C658 1.477 . S
C662 H679 0.932 . S
C663 U646 2.882 . S
C663 C657 1.428 . S
C663 O666 1.301 . S
C663 O667 1.282 . S
O664 U646 2.441 . S
O664 C650 1.249 . S
O665 U646 2.420 . S
O665 C650 1.202 . S
O666 U646 2.455 . S
O666 C663 1.301 . S
O667 U646 2.449 . S
O667 C663 1.282 . S
H668 C641 0.931 . S
H669 C643 0.929 . S
H670 C644 0.930 . S
H671 C645 0.931 . S
H672 C652 0.932 . S
H673 C653 0.930 . S
H674 C654 0.929 . S
H675 C656 0.930 . S
H676 C658 0.932 . S
H677 C659 0.929 . S
H678 C660 0.928 . S
H679 C662 0.932 . S
C680 C681 1.264 . S
C680 C685 1.479 . S
C680 C690 1.465 . S
C681 C680 1.264 . S
C681 C683 1.339 . S
C681 H708 0.931 . S
C682 C683 1.395 . S
C682 C684 1.320 . S
C683 C681 1.339 . S
C683 C682 1.395 . S
C683 H709 0.929 . S
C684 C682 1.320 . S
C684 C685 1.405 . S
C684 H710 0.930 . S
C685 C680 1.479 . S
C685 C684 1.405 . S
C685 H711 0.931 . S
U686 O687 2.454 . S
U686 O688 2.458 . S
U686 C689 2.984 . S
U686 C690 2.847 . S
U686 C703 2.882 . S
U686 O704 2.441 . S
U686 O705 2.420 . S
U686 O706 2.455 . S
U686 O707 2.449 . S
O687 U686 2.454 . S
O687 C689 1.353 . S
O688 U686 2.458 . S
O688 C689 1.286 . S
C689 U686 2.984 . S
C689 O687 1.353 . S
C689 O688 1.286 . S
C689 C691 1.363 . S
C690 C680 1.465 . S
C690 U686 2.847 . S
C690 O704 1.249 . S
C690 O705 1.202 . S
C691 C689 1.363 . S
C691 C693 1.408 . S
C691 C696 1.342 . S
C692 C693 1.310 . S
C692 C695 1.461 . S
C692 H712 0.932 . S
C693 C691 1.408 . S
C693 C692 1.310 . S
C693 H713 0.930 . S
C694 C695 1.474 . S
C694 C696 1.285 . S
C694 H714 0.929 . S
C695 C692 1.461 . S
C695 C694 1.474 . S
C696 C691 1.342 . S
C696 C694 1.285 . S
C696 H715 0.930 . S
C697 C700 1.424 . S
C697 C702 1.245 . S
C697 C703 1.428 . S
C698 C701 1.260 . S
C698 C702 1.477 . S
C698 H716 0.932 . S
C699 C700 1.384 . S
C699 C701 1.479 . S
C699 H717 0.929 . S
C700 C697 1.424 . S
C700 C699 1.384 . S
C700 H718 0.928 . S
C701 C698 1.260 . S
C701 C699 1.479 . S
C702 C697 1.245 . S
C702 C698 1.477 . S
C702 H719 0.932 . S
C703 U686 2.882 . S
C703 C697 1.428 . S
C703 O706 1.301 . S
C703 O707 1.282 . S
O704 U686 2.441 . S
O704 C690 1.249 . S
O705 U686 2.420 . S
O705 C690 1.202 . S
O706 U686 2.455 . S
O706 C703 1.301 . S
O707 U686 2.449 . S
O707 C703 1.282 . S
H708 C681 0.931 . S
H709 C683 0.929 . S
H710 C684 0.930 . S
H711 C685 0.931 . S
H712 C692 0.932 . S
H713 C693 0.930 . S
H714 C694 0.929 . S
H715 C696 0.930 . S
H716 C698 0.932 . S
H717 C699 0.929 . S
H718 C700 0.928 . S
H719 C702 0.932 . S
C720 C721 1.264 . S
C720 C725 1.479 . S
C720 C730 1.465 . S
C721 C720 1.264 . S
C721 C723 1.339 . S
C721 H748 0.931 . S
C722 C723 1.395 . S
C722 C724 1.320 . S
C723 C721 1.339 . S
C723 C722 1.395 . S
C723 H749 0.929 . S
C724 C722 1.320 . S
C724 C725 1.405 . S
C724 H750 0.930 . S
C725 C720 1.479 . S
C725 C724 1.405 . S
C725 H751 0.931 . S
U726 O727 2.454 . S
U726 O728 2.458 . S
U726 C729 2.984 . S
U726 C730 2.847 . S
U726 C743 2.882 . S
U726 O744 2.441 . S
U726 O745 2.420 . S
U726 O746 2.455 . S
U726 O747 2.449 . S
O727 U726 2.454 . S
O727 C729 1.353 . S
O728 U726 2.458 . S
O728 C729 1.286 . S
C729 U726 2.984 . S
C729 O727 1.353 . S
C729 O728 1.286 . S
C729 C731 1.363 . S
C730 C720 1.465 . S
C730 U726 2.847 . S
C730 O744 1.249 . S
C730 O745 1.202 . S
C731 C729 1.363 . S
C731 C733 1.408 . S
C731 C736 1.342 . S
C732 C733 1.310 . S
C732 C735 1.461 . S
C732 H752 0.932 . S
C733 C731 1.408 . S
C733 C732 1.310 . S
C733 H753 0.930 . S
C734 C735 1.474 . S
C734 C736 1.285 . S
C734 H754 0.929 . S
C735 C732 1.461 . S
C735 C734 1.474 . S
C736 C731 1.342 . S
C736 C734 1.285 . S
C736 H755 0.930 . S
C737 C740 1.424 . S
C737 C742 1.245 . S
C737 C743 1.428 . S
C738 C741 1.260 . S
C738 C742 1.477 . S
C738 H756 0.932 . S
C739 C740 1.384 . S
C739 C741 1.479 . S
C739 H757 0.929 . S
C740 C737 1.424 . S
C740 C739 1.384 . S
C740 H758 0.928 . S
C741 C738 1.260 . S
C741 C739 1.479 . S
C742 C737 1.245 . S
C742 C738 1.477 . S
C742 H759 0.932 . S
C743 U726 2.882 . S
C743 C737 1.428 . S
C743 O746 1.301 . S
C743 O747 1.282 . S
O744 U726 2.441 . S
O744 C730 1.249 . S
O745 U726 2.420 . S
O745 C730 1.202 . S
O746 U726 2.455 . S
O746 C743 1.301 . S
O747 U726 2.449 . S
O747 C743 1.282 . S
H748 C721 0.931 . S
H749 C723 0.929 . S
H750 C724 0.930 . S
H751 C725 0.931 . S
H752 C732 0.932 . S
H753 C733 0.930 . S
H754 C734 0.929 . S
H755 C736 0.930 . S
H756 C738 0.932 . S
H757 C739 0.929 . S
H758 C740 0.928 . S
H759 C742 0.932 . S
C760 C761 1.264 . S
C760 C765 1.479 . S
C760 C770 1.465 . S
C761 C760 1.264 . S
C761 C763 1.339 . S
C761 H788 0.931 . S
C762 C763 1.395 . S
C762 C764 1.320 . S
C763 C761 1.339 . S
C763 C762 1.395 . S
C763 H789 0.929 . S
C764 C762 1.320 . S
C764 C765 1.405 . S
C764 H790 0.930 . S
C765 C760 1.479 . S
C765 C764 1.405 . S
C765 H791 0.931 . S
U766 O767 2.454 . S
U766 O768 2.458 . S
U766 C769 2.984 . S
U766 C770 2.847 . S
U766 C783 2.882 . S
U766 O784 2.441 . S
U766 O785 2.420 . S
U766 O786 2.455 . S
U766 O787 2.449 . S
O767 U766 2.454 . S
O767 C769 1.353 . S
O768 U766 2.458 . S
O768 C769 1.286 . S
C769 U766 2.984 . S
C769 O767 1.353 . S
C769 O768 1.286 . S
C769 C771 1.363 . S
C770 C760 1.465 . S
C770 U766 2.847 . S
C770 O784 1.249 . S
C770 O785 1.202 . S
C771 C769 1.363 . S
C771 C773 1.408 . S
C771 C776 1.342 . S
C772 C773 1.310 . S
C772 C775 1.461 . S
C772 H792 0.932 . S
C773 C771 1.408 . S
C773 C772 1.310 . S
C773 H793 0.930 . S
C774 C775 1.474 . S
C774 C776 1.285 . S
C774 H794 0.929 . S
C775 C772 1.461 . S
C775 C774 1.474 . S
C776 C771 1.342 . S
C776 C774 1.285 . S
C776 H795 0.930 . S
C777 C780 1.424 . S
C777 C782 1.245 . S
C777 C783 1.428 . S
C778 C781 1.260 . S
C778 C782 1.477 . S
C778 H796 0.932 . S
C779 C780 1.384 . S
C779 C781 1.479 . S
C779 H797 0.929 . S
C780 C777 1.424 . S
C780 C779 1.384 . S
C780 H798 0.928 . S
C781 C778 1.260 . S
C781 C779 1.479 . S
C782 C777 1.245 . S
C782 C778 1.477 . S
C782 H799 0.932 . S
C783 U766 2.882 . S
C783 C777 1.428 . S
C783 O786 1.301 . S
C783 O787 1.282 . S
O784 U766 2.441 . S
O784 C770 1.249 . S
O785 U766 2.420 . S
O785 C770 1.202 . S
O786 U766 2.455 . S
O786 C783 1.301 . S
O787 U766 2.449 . S
O787 C783 1.282 . S
H788 C761 0.931 . S
H789 C763 0.929 . S
H790 C764 0.930 . S
H791 C765 0.931 . S
H792 C772 0.932 . S
H793 C773 0.930 . S
H794 C774 0.929 . S
H795 C776 0.930 . S
H796 C778 0.932 . S
H797 C779 0.929 . S
H798 C780 0.928 . S
H799 C782 0.932 . S
C800 C801 1.264 . S
C800 C805 1.479 . S
C800 C810 1.465 . S
C801 C800 1.264 . S
C801 C803 1.339 . S
C801 H828 0.931 . S
C802 C803 1.395 . S
C802 C804 1.320 . S
C803 C801 1.339 . S
C803 C802 1.395 . S
C803 H829 0.929 . S
C804 C802 1.320 . S
C804 C805 1.405 . S
C804 H830 0.930 . S
C805 C800 1.479 . S
C805 C804 1.405 . S
C805 H831 0.931 . S
U806 O807 2.454 . S
U806 O808 2.458 . S
U806 C809 2.984 . S
U806 C810 2.847 . S
U806 C823 2.882 . S
U806 O824 2.441 . S
U806 O825 2.420 . S
U806 O826 2.455 . S
U806 O827 2.449 . S
O807 U806 2.454 . S
O807 C809 1.353 . S
O808 U806 2.458 . S
O808 C809 1.286 . S
C809 U806 2.984 . S
C809 O807 1.353 . S
C809 O808 1.286 . S
C809 C811 1.363 . S
C810 C800 1.465 . S
C810 U806 2.847 . S
C810 O824 1.249 . S
C810 O825 1.202 . S
C811 C809 1.363 . S
C811 C813 1.408 . S
C811 C816 1.342 . S
C812 C813 1.310 . S
C812 C815 1.461 . S
C812 H832 0.932 . S
C813 C811 1.408 . S
C813 C812 1.310 . S
C813 H833 0.930 . S
C814 C815 1.474 . S
C814 C816 1.285 . S
C814 H834 0.929 . S
C815 C812 1.461 . S
C815 C814 1.474 . S
C816 C811 1.342 . S
C816 C814 1.285 . S
C816 H835 0.930 . S
C817 C820 1.424 . S
C817 C822 1.245 . S
C817 C823 1.428 . S
C818 C821 1.260 . S
C818 C822 1.477 . S
C818 H836 0.932 . S
C819 C820 1.384 . S
C819 C821 1.479 . S
C819 H837 0.929 . S
C820 C817 1.424 . S
C820 C819 1.384 . S
C820 H838 0.928 . S
C821 C818 1.260 . S
C821 C819 1.479 . S
C822 C817 1.245 . S
C822 C818 1.477 . S
C822 H839 0.932 . S
C823 U806 2.882 . S
C823 C817 1.428 . S
C823 O826 1.301 . S
C823 O827 1.282 . S
O824 U806 2.441 . S
O824 C810 1.249 . S
O825 U806 2.420 . S
O825 C810 1.202 . S
O826 U806 2.455 . S
O826 C823 1.301 . S
O827 U806 2.449 . S
O827 C823 1.282 . S
H828 C801 0.931 . S
H829 C803 0.929 . S
H830 C804 0.930 . S
H831 C805 0.931 . S
H832 C812 0.932 . S
H833 C813 0.930 . S
H834 C814 0.929 . S
H835 C816 0.930 . S
H836 C818 0.932 . S
H837 C819 0.929 . S
H838 C820 0.928 . S
H839 C822 0.932 . S
C840 C841 1.264 . S
C840 C845 1.479 . S
C840 C850 1.465 . S
C841 C840 1.264 . S
C841 C843 1.339 . S
C841 H868 0.931 . S
C842 C843 1.395 . S
C842 C844 1.320 . S
C843 C841 1.339 . S
C843 C842 1.395 . S
C843 H869 0.929 . S
C844 C842 1.320 . S
C844 C845 1.405 . S
C844 H870 0.930 . S
C845 C840 1.479 . S
C845 C844 1.405 . S
C845 H871 0.931 . S
U846 O847 2.454 . S
U846 O848 2.458 . S
U846 C849 2.984 . S
U846 C850 2.847 . S
U846 C863 2.882 . S
U846 O864 2.441 . S
U846 O865 2.420 . S
U846 O866 2.455 . S
U846 O867 2.449 . S
O847 U846 2.454 . S
O847 C849 1.353 . S
O848 U846 2.458 . S
O848 C849 1.286 . S
C849 U846 2.984 . S
C849 O847 1.353 . S
C849 O848 1.286 . S
C849 C851 1.363 . S
C850 C840 1.465 . S
C850 U846 2.847 . S
C850 O864 1.249 . S
C850 O865 1.202 . S
C851 C849 1.363 . S
C851 C853 1.408 . S
C851 C856 1.342 . S
C852 C853 1.310 . S
C852 C855 1.461 . S
C852 H872 0.932 . S
C853 C851 1.408 . S
C853 C852 1.310 . S
C853 H873 0.930 . S
C854 C855 1.474 . S
C854 C856 1.285 . S
C854 H874 0.929 . S
C855 C852 1.461 . S
C855 C854 1.474 . S
C856 C851 1.342 . S
C856 C854 1.285 . S
C856 H875 0.930 . S
C857 C860 1.424 . S
C857 C862 1.245 . S
C857 C863 1.428 . S
C858 C861 1.260 . S
C858 C862 1.477 . S
C858 H876 0.932 . S
C859 C860 1.384 . S
C859 C861 1.479 . S
C859 H877 0.929 . S
C860 C857 1.424 . S
C860 C859 1.384 . S
C860 H878 0.928 . S
C861 C858 1.260 . S
C861 C859 1.479 . S
C862 C857 1.245 . S
C862 C858 1.477 . S
C862 H879 0.932 . S
C863 U846 2.882 . S
C863 C857 1.428 . S
C863 O866 1.301 . S
C863 O867 1.282 . S
O864 U846 2.441 . S
O864 C850 1.249 . S
O865 U846 2.420 . S
O865 C850 1.202 . S
O866 U846 2.455 . S
O866 C863 1.301 . S
O867 U846 2.449 . S
O867 C863 1.282 . S
H868 C841 0.931 . S
H869 C843 0.929 . S
H870 C844 0.930 . S
H871 C845 0.931 . S
H872 C852 0.932 . S
H873 C853 0.930 . S
H874 C854 0.929 . S
H875 C856 0.930 . S
H876 C858 0.932 . S
H877 C859 0.929 . S
H878 C860 0.928 . S
H879 C862 0.932 . S
C880 C881 1.264 . S
C880 C885 1.479 . S
C880 C890 1.465 . S
C881 C880 1.264 . S
C881 C883 1.339 . S
C881 H908 0.931 . S
C882 C883 1.395 . S
C882 C884 1.320 . S
C883 C881 1.339 . S
C883 C882 1.395 . S
C883 H909 0.929 . S
C884 C882 1.320 . S
C884 C885 1.405 . S
C884 H910 0.930 . S
C885 C880 1.479 . S
C885 C884 1.405 . S
C885 H911 0.931 . S
U886 O887 2.454 . S
U886 O888 2.458 . S
U886 C889 2.984 . S
U886 C890 2.847 . S
U886 C903 2.882 . S
U886 O904 2.441 . S
U886 O905 2.420 . S
U886 O906 2.455 . S
U886 O907 2.449 . S
O887 U886 2.454 . S
O887 C889 1.353 . S
O888 U886 2.458 . S
O888 C889 1.286 . S
C889 U886 2.984 . S
C889 O887 1.353 . S
C889 O888 1.286 . S
C889 C891 1.363 . S
C890 C880 1.465 . S
C890 U886 2.847 . S
C890 O904 1.249 . S
C890 O905 1.202 . S
C891 C889 1.363 . S
C891 C893 1.408 . S
C891 C896 1.342 . S
C892 C893 1.310 . S
C892 C895 1.461 . S
C892 H912 0.932 . S
C893 C891 1.408 . S
C893 C892 1.310 . S
C893 H913 0.930 . S
C894 C895 1.474 . S
C894 C896 1.285 . S
C894 H914 0.929 . S
C895 C892 1.461 . S
C895 C894 1.474 . S
C896 C891 1.342 . S
C896 C894 1.285 . S
C896 H915 0.930 . S
C897 C900 1.424 . S
C897 C902 1.245 . S
C897 C903 1.428 . S
C898 C901 1.260 . S
C898 C902 1.477 . S
C898 H916 0.932 . S
C899 C900 1.384 . S
C899 C901 1.479 . S
C899 H917 0.929 . S
C900 C897 1.424 . S
C900 C899 1.384 . S
C900 H918 0.928 . S
C901 C898 1.260 . S
C901 C899 1.479 . S
C902 C897 1.245 . S
C902 C898 1.477 . S
C902 H919 0.932 . S
C903 U886 2.882 . S
C903 C897 1.428 . S
C903 O906 1.301 . S
C903 O907 1.282 . S
O904 U886 2.441 . S
O904 C890 1.249 . S
O905 U886 2.420 . S
O905 C890 1.202 . S
O906 U886 2.455 . S
O906 C903 1.301 . S
O907 U886 2.449 . S
O907 C903 1.282 . S
H908 C881 0.931 . S
H909 C883 0.929 . S
H910 C884 0.930 . S
H911 C885 0.931 . S
H912 C892 0.932 . S
H913 C893 0.930 . S
H914 C894 0.929 . S
H915 C896 0.930 . S
H916 C898 0.932 . S
H917 C899 0.929 . S
H918 C900 0.928 . S
H919 C902 0.932 . S
C920 C921 1.264 . S
C920 C925 1.479 . S
C920 C930 1.465 . S
C921 C920 1.264 . S
C921 C923 1.339 . S
C921 H948 0.931 . S
C922 C923 1.395 . S
C922 C924 1.320 . S
C923 C921 1.339 . S
C923 C922 1.395 . S
C923 H949 0.929 . S
C924 C922 1.320 . S
C924 C925 1.405 . S
C924 H950 0.930 . S
C925 C920 1.479 . S
C925 C924 1.405 . S
C925 H951 0.931 . S
U926 O927 2.454 . S
U926 O928 2.458 . S
U926 C929 2.984 . S
U926 C930 2.847 . S
U926 C943 2.882 . S
U926 O944 2.441 . S
U926 O945 2.420 . S
U926 O946 2.455 . S
U926 O947 2.449 . S
O927 U926 2.454 . S
O927 C929 1.353 . S
O928 U926 2.458 . S
O928 C929 1.286 . S
C929 U926 2.984 . S
C929 O927 1.353 . S
C929 O928 1.286 . S
C929 C931 1.363 . S
C930 C920 1.465 . S
C930 U926 2.847 . S
C930 O944 1.249 . S
C930 O945 1.202 . S
C931 C929 1.363 . S
C931 C933 1.408 . S
C931 C936 1.342 . S
C932 C933 1.310 . S
C932 C935 1.461 . S
C932 H952 0.932 . S
C933 C931 1.408 . S
C933 C932 1.310 . S
C933 H953 0.930 . S
C934 C935 1.474 . S
C934 C936 1.285 . S
C934 H954 0.929 . S
C935 C932 1.461 . S
C935 C934 1.474 . S
C936 C931 1.342 . S
C936 C934 1.285 . S
C936 H955 0.930 . S
C937 C940 1.424 . S
C937 C942 1.245 . S
C937 C943 1.428 . S
C938 C941 1.260 . S
C938 C942 1.477 . S
C938 H956 0.932 . S
C939 C940 1.384 . S
C939 C941 1.479 . S
C939 H957 0.929 . S
C940 C937 1.424 . S
C940 C939 1.384 . S
C940 H958 0.928 . S
C941 C938 1.260 . S
C941 C939 1.479 . S
C942 C937 1.245 . S
C942 C938 1.477 . S
C942 H959 0.932 . S
C943 U926 2.882 . S
C943 C937 1.428 . S
C943 O946 1.301 . S
C943 O947 1.282 . S
O944 U926 2.441 . S
O944 C930 1.249 . S
O945 U926 2.420 . S
O945 C930 1.202 . S
O946 U926 2.455 . S
O946 C943 1.301 . S
O947 U926 2.449 . S
O947 C943 1.282 . S
H948 C921 0.931 . S
H949 C923 0.929 . S
H950 C924 0.930 . S
H951 C925 0.931 . S
H952 C932 0.932 . S
H953 C933 0.930 . S
H954 C934 0.929 . S
H955 C936 0.930 . S
H956 C938 0.932 . S
H957 C939 0.929 . S
H958 C940 0.928 . S
H959 C942 0.932 . S
C960 C961 1.264 . S
C960 C965 1.479 . S
C960 C970 1.465 . S
C961 C960 1.264 . S
C961 C963 1.339 . S
C961 H988 0.931 . S
C962 C963 1.395 . S
C962 C964 1.320 . S
C963 C961 1.339 . S
C963 C962 1.395 . S
C963 H989 0.929 . S
C964 C962 1.320 . S
C964 C965 1.405 . S
C964 H990 0.930 . S
C965 C960 1.479 . S
C965 C964 1.405 . S
C965 H991 0.931 . S
U966 O967 2.454 . S
U966 O968 2.458 . S
U966 C969 2.984 . S
U966 C970 2.847 . S
U966 C983 2.882 . S
U966 O984 2.441 . S
U966 O985 2.420 . S
U966 O986 2.455 . S
U966 O987 2.449 . S
O967 U966 2.454 . S
O967 C969 1.353 . S
O968 U966 2.458 . S
O968 C969 1.286 . S
C969 U966 2.984 . S
C969 O967 1.353 . S
C969 O968 1.286 . S
C969 C971 1.363 . S
C970 C960 1.465 . S
C970 U966 2.847 . S
C970 O984 1.249 . S
C970 O985 1.202 . S
C971 C969 1.363 . S
C971 C973 1.408 . S
C971 C976 1.342 . S
C972 C973 1.310 . S
C972 C975 1.461 . S
C972 H992 0.932 . S
C973 C971 1.408 . S
C973 C972 1.310 . S
C973 H993 0.930 . S
C974 C975 1.474 . S
C974 C976 1.285 . S
C974 H994 0.929 . S
C975 C972 1.461 . S
C975 C974 1.474 . S
C976 C971 1.342 . S
C976 C974 1.285 . S
C976 H995 0.930 . S
C977 C980 1.424 . S
C977 C982 1.245 . S
C977 C983 1.428 . S
C978 C981 1.260 . S
C978 C982 1.477 . S
C978 H996 0.932 . S
C979 C980 1.384 . S
C979 C981 1.479 . S
C979 H997 0.929 . S
C980 C977 1.424 . S
C980 C979 1.384 . S
C980 H998 0.928 . S
C981 C978 1.260 . S
C981 C979 1.479 . S
C982 C977 1.245 . S
C982 C978 1.477 . S
C982 H999 0.932 . S
C983 U966 2.882 . S
C983 C977 1.428 . S
C983 O986 1.301 . S
C983 O987 1.282 . S
O984 U966 2.441 . S
O984 C970 1.249 . S
O985 U966 2.420 . S
O985 C970 1.202 . S
O986 U966 2.455 . S
O986 C983 1.301 . S
O987 U966 2.449 . S
O987 C983 1.282 . S
H988 C961 0.931 . S
H989 C963 0.929 . S
H990 C964 0.930 . S
H991 C965 0.931 . S
H992 C972 0.932 . S
H993 C973 0.930 . S
H994 C974 0.929 . S
H995 C976 0.930 . S
H996 C978 0.932 . S
H997 C979 0.929 . S
H998 C980 0.928 . S
H999 C982 0.932 . S
C1000 C1001 1.264 . S
C1000 C1005 1.479 . S
C1000 C1010 1.465 . S
C1001 C1000 1.264 . S
C1001 C1003 1.339 . S
C1001 H1028 0.931 . S
C1002 C1003 1.395 . S
C1002 C1004 1.320 . S
C1003 C1001 1.339 . S
C1003 C1002 1.395 . S
C1003 H1029 0.929 . S
C1004 C1002 1.320 . S
C1004 C1005 1.405 . S
C1004 H1030 0.930 . S
C1005 C1000 1.479 . S
C1005 C1004 1.405 . S
C1005 H1031 0.931 . S
U1006 O1007 2.454 . S
U1006 O1008 2.458 . S
U1006 C1009 2.984 . S
U1006 C1010 2.847 . S
U1006 C1023 2.882 . S
U1006 O1024 2.441 . S
U1006 O1025 2.420 . S
U1006 O1026 2.455 . S
U1006 O1027 2.449 . S
O1007 U1006 2.454 . S
O1007 C1009 1.353 . S
O1008 U1006 2.458 . S
O1008 C1009 1.286 . S
C1009 U1006 2.984 . S
C1009 O1007 1.353 . S
C1009 O1008 1.286 . S
C1009 C1011 1.363 . S
C1010 C1000 1.465 . S
C1010 U1006 2.847 . S
C1010 O1024 1.249 . S
C1010 O1025 1.202 . S
C1011 C1009 1.363 . S
C1011 C1013 1.408 . S
C1011 C1016 1.342 . S
C1012 C1013 1.310 . S
C1012 C1015 1.461 . S
C1012 H1032 0.932 . S
C1013 C1011 1.408 . S
C1013 C1012 1.310 . S
C1013 H1033 0.930 . S
C1014 C1015 1.474 . S
C1014 C1016 1.285 . S
C1014 H1034 0.929 . S
C1015 C1012 1.461 . S
C1015 C1014 1.474 . S
C1016 C1011 1.342 . S
C1016 C1014 1.285 . S
C1016 H1035 0.930 . S
C1017 C1020 1.424 . S
C1017 C1022 1.245 . S
C1017 C1023 1.428 . S
C1018 C1021 1.260 . S
C1018 C1022 1.477 . S
C1018 H1036 0.932 . S
C1019 C1020 1.384 . S
C1019 C1021 1.479 . S
C1019 H1037 0.929 . S
C1020 C1017 1.424 . S
C1020 C1019 1.384 . S
C1020 H1038 0.928 . S
C1021 C1018 1.260 . S
C1021 C1019 1.479 . S
C1022 C1017 1.245 . S
C1022 C1018 1.477 . S
C1022 H1039 0.932 . S
C1023 U1006 2.882 . S
C1023 C1017 1.428 . S
C1023 O1026 1.301 . S
C1023 O1027 1.282 . S
O1024 U1006 2.441 . S
O1024 C1010 1.249 . S
O1025 U1006 2.420 . S
O1025 C1010 1.202 . S
O1026 U1006 2.455 . S
O1026 C1023 1.301 . S
O1027 U1006 2.449 . S
O1027 C1023 1.282 . S
H1028 C1001 0.931 . S
H1029 C1003 0.929 . S
H1030 C1004 0.930 . S
H1031 C1005 0.931 . S
H1032 C1012 0.932 . S
H1033 C1013 0.930 . S
H1034 C1014 0.929 . S
H1035 C1016 0.930 . S
H1036 C1018 0.932 . S
H1037 C1019 0.929 . S
H1038 C1020 0.928 . S
H1039 C1022 0.932 . S
C1040 C1041 1.264 . S
C1040 C1045 1.479 . S
C1040 C1050 1.465 . S
C1041 C1040 1.264 . S
C1041 C1043 1.339 . S
C1041 H1068 0.931 . S
C1042 C1043 1.395 . S
C1042 C1044 1.320 . S
C1043 C1041 1.339 . S
C1043 C1042 1.395 . S
C1043 H1069 0.929 . S
C1044 C1042 1.320 . S
C1044 C1045 1.405 . S
C1044 H1070 0.930 . S
C1045 C1040 1.479 . S
C1045 C1044 1.405 . S
C1045 H1071 0.931 . S
U1046 O1047 2.454 . S
U1046 O1048 2.458 . S
U1046 C1049 2.984 . S
U1046 C1050 2.847 . S
U1046 C1063 2.882 . S
U1046 O1064 2.441 . S
U1046 O1065 2.420 . S
U1046 O1066 2.455 . S
U1046 O1067 2.449 . S
O1047 U1046 2.454 . S
O1047 C1049 1.353 . S
O1048 U1046 2.458 . S
O1048 C1049 1.286 . S
C1049 U1046 2.984 . S
C1049 O1047 1.353 . S
C1049 O1048 1.286 . S
C1049 C1051 1.363 . S
C1050 C1040 1.465 . S
C1050 U1046 2.847 . S
C1050 O1064 1.249 . S
C1050 O1065 1.202 . S
C1051 C1049 1.363 . S
C1051 C1053 1.408 . S
C1051 C1056 1.342 . S
C1052 C1053 1.310 . S
C1052 C1055 1.461 . S
C1052 H1072 0.932 . S
C1053 C1051 1.408 . S
C1053 C1052 1.310 . S
C1053 H1073 0.930 . S
C1054 C1055 1.474 . S
C1054 C1056 1.285 . S
C1054 H1074 0.929 . S
C1055 C1052 1.461 . S
C1055 C1054 1.474 . S
C1056 C1051 1.342 . S
C1056 C1054 1.285 . S
C1056 H1075 0.930 . S
C1057 C1060 1.424 . S
C1057 C1062 1.245 . S
C1057 C1063 1.428 . S
C1058 C1061 1.260 . S
C1058 C1062 1.477 . S
C1058 H1076 0.932 . S
C1059 C1060 1.384 . S
C1059 C1061 1.479 . S
C1059 H1077 0.929 . S
C1060 C1057 1.424 . S
C1060 C1059 1.384 . S
C1060 H1078 0.928 . S
C1061 C1058 1.260 . S
C1061 C1059 1.479 . S
C1062 C1057 1.245 . S
C1062 C1058 1.477 . S
C1062 H1079 0.932 . S
C1063 U1046 2.882 . S
C1063 C1057 1.428 . S
C1063 O1066 1.301 . S
C1063 O1067 1.282 . S
O1064 U1046 2.441 . S
O1064 C1050 1.249 . S
O1065 U1046 2.420 . S
O1065 C1050 1.202 . S
O1066 U1046 2.455 . S
O1066 C1063 1.301 . S
O1067 U1046 2.449 . S
O1067 C1063 1.282 . S
H1068 C1041 0.931 . S
H1069 C1043 0.929 . S
H1070 C1044 0.930 . S
H1071 C1045 0.931 . S
H1072 C1052 0.932 . S
H1073 C1053 0.930 . S
H1074 C1054 0.929 . S
H1075 C1056 0.930 . S
H1076 C1058 0.932 . S
H1077 C1059 0.929 . S
H1078 C1060 0.928 . S
H1079 C1062 0.932 . S
C1080 C1081 1.264 . S
C1080 C1085 1.479 . S
C1080 C1090 1.465 . S
C1081 C1080 1.264 . S
C1081 C1083 1.339 . S
C1081 H1108 0.931 . S
C1082 C1083 1.395 . S
C1082 C1084 1.320 . S
C1083 C1081 1.339 . S
C1083 C1082 1.395 . S
C1083 H1109 0.929 . S
C1084 C1082 1.320 . S
C1084 C1085 1.405 . S
C1084 H1110 0.930 . S
C1085 C1080 1.479 . S
C1085 C1084 1.405 . S
C1085 H1111 0.931 . S
U1086 O1087 2.454 . S
U1086 O1088 2.458 . S
U1086 C1089 2.984 . S
U1086 C1090 2.847 . S
U1086 C1103 2.882 . S
U1086 O1104 2.441 . S
U1086 O1105 2.420 . S
U1086 O1106 2.455 . S
U1086 O1107 2.449 . S
O1087 U1086 2.454 . S
O1087 C1089 1.353 . S
O1088 U1086 2.458 . S
O1088 C1089 1.286 . S
C1089 U1086 2.984 . S
C1089 O1087 1.353 . S
C1089 O1088 1.286 . S
C1089 C1091 1.363 . S
C1090 C1080 1.465 . S
C1090 U1086 2.847 . S
C1090 O1104 1.249 . S
C1090 O1105 1.202 . S
C1091 C1089 1.363 . S
C1091 C1093 1.408 . S
C1091 C1096 1.342 . S
C1092 C1093 1.310 . S
C1092 C1095 1.461 . S
C1092 H1112 0.932 . S
C1093 C1091 1.408 . S
C1093 C1092 1.310 . S
C1093 H1113 0.930 . S
C1094 C1095 1.474 . S
C1094 C1096 1.285 . S
C1094 H1114 0.929 . S
C1095 C1092 1.461 . S
C1095 C1094 1.474 . S
C1096 C1091 1.342 . S
C1096 C1094 1.285 . S
C1096 H1115 0.930 . S
C1097 C1100 1.424 . S
C1097 C1102 1.245 . S
C1097 C1103 1.428 . S
C1098 C1101 1.260 . S
C1098 C1102 1.477 . S
C1098 H1116 0.932 . S
C1099 C1100 1.384 . S
C1099 C1101 1.479 . S
C1099 H1117 0.929 . S
C1100 C1097 1.424 . S
C1100 C1099 1.384 . S
C1100 H1118 0.928 . S
C1101 C1098 1.260 . S
C1101 C1099 1.479 . S
C1102 C1097 1.245 . S
C1102 C1098 1.477 . S
C1102 H1119 0.932 . S
C1103 U1086 2.882 . S
C1103 C1097 1.428 . S
C1103 O1106 1.301 . S
C1103 O1107 1.282 . S
O1104 U1086 2.441 . S
O1104 C1090 1.249 . S
O1105 U1086 2.420 . S
O1105 C1090 1.202 . S
O1106 U1086 2.455 . S
O1106 C1103 1.301 . S
O1107 U1086 2.449 . S
O1107 C1103 1.282 . S
H1108 C1081 0.931 . S
H1109 C1083 0.929 . S
H1110 C1084 0.930 . S
H1111 C1085 0.931 . S
H1112 C1092 0.932 . S
H1113 C1093 0.930 . S
H1114 C1094 0.929 . S
H1115 C1096 0.930 . S
H1116 C1098 0.932 . S
H1117 C1099 0.929 . S
H1118 C1100 0.928 . S
H1119 C1102 0.932 . S
C1120 C1121 1.264 . S
C1120 C1125 1.479 . S
C1120 C1130 1.465 . S
C1121 C1120 1.264 . S
C1121 C1123 1.339 . S
C1121 H1148 0.931 . S
C1122 C1123 1.395 . S
C1122 C1124 1.320 . S
C1123 C1121 1.339 . S
C1123 C1122 1.395 . S
C1123 H1149 0.929 . S
C1124 C1122 1.320 . S
C1124 C1125 1.405 . S
C1124 H1150 0.930 . S
C1125 C1120 1.479 . S
C1125 C1124 1.405 . S
C1125 H1151 0.931 . S
U1126 O1127 2.454 . S
U1126 O1128 2.458 . S
U1126 C1129 2.984 . S
U1126 C1130 2.847 . S
U1126 C1143 2.882 . S
U1126 O1144 2.441 . S
U1126 O1145 2.420 . S
U1126 O1146 2.455 . S
U1126 O1147 2.449 . S
O1127 U1126 2.454 . S
O1127 C1129 1.353 . S
O1128 U1126 2.458 . S
O1128 C1129 1.286 . S
C1129 U1126 2.984 . S
C1129 O1127 1.353 . S
C1129 O1128 1.286 . S
C1129 C1131 1.363 . S
C1130 C1120 1.465 . S
C1130 U1126 2.847 . S
C1130 O1144 1.249 . S
C1130 O1145 1.202 . S
C1131 C1129 1.363 . S
C1131 C1133 1.408 . S
C1131 C1136 1.342 . S
C1132 C1133 1.310 . S
C1132 C1135 1.461 . S
C1132 H1152 0.932 . S
C1133 C1131 1.408 . S
C1133 C1132 1.310 . S
C1133 H1153 0.930 . S
C1134 C1135 1.474 . S
C1134 C1136 1.285 . S
C1134 H1154 0.929 . S
C1135 C1132 1.461 . S
C1135 C1134 1.474 . S
C1136 C1131 1.342 . S
C1136 C1134 1.285 . S
C1136 H1155 0.930 . S
C1137 C1140 1.424 . S
C1137 C1142 1.245 . S
C1137 C1143 1.428 . S
C1138 C1141 1.260 . S
C1138 C1142 1.477 . S
C1138 H1156 0.932 . S
C1139 C1140 1.384 . S
C1139 C1141 1.479 . S
C1139 H1157 0.929 . S
C1140 C1137 1.424 . S
C1140 C1139 1.384 . S
C1140 H1158 0.928 . S
C1141 C1138 1.260 . S
C1141 C1139 1.479 . S
C1142 C1137 1.245 . S
C1142 C1138 1.477 . S
C1142 H1159 0.932 . S
C1143 U1126 2.882 . S
C1143 C1137 1.428 . S
C1143 O1146 1.301 . S
C1143 O1147 1.282 . S
O1144 U1126 2.441 . S
O1144 C1130 1.249 . S
O1145 U1126 2.420 . S
O1145 C1130 1.202 . S
O1146 U1126 2.455 . S
O1146 C1143 1.301 . S
O1147 U1126 2.449 . S
O1147 C1143 1.282 . S
H1148 C1121 0.931 . S
H1149 C1123 0.929 . S
H1150 C1124 0.930 . S
H1151 C1125 0.931 . S
H1152 C1132 0.932 . S
H1153 C1133 0.930 . S
H1154 C1134 0.929 . S
H1155 C1136 0.930 . S
H1156 C1138 0.932 . S
H1157 C1139 0.929 . S
H1158 C1140 0.928 . S
H1159 C1142 0.932 . S
C1160 C1161 1.264 . S
C1160 C1165 1.479 . S
C1160 C1170 1.465 . S
C1161 C1160 1.264 . S
C1161 C1163 1.339 . S
C1161 H1188 0.931 . S
C1162 C1163 1.395 . S
C1162 C1164 1.320 . S
C1163 C1161 1.339 . S
C1163 C1162 1.395 . S
C1163 H1189 0.929 . S
C1164 C1162 1.320 . S
C1164 C1165 1.405 . S
C1164 H1190 0.930 . S
C1165 C1160 1.479 . S
C1165 C1164 1.405 . S
C1165 H1191 0.931 . S
U1166 O1167 2.454 . S
U1166 O1168 2.458 . S
U1166 C1169 2.984 . S
U1166 C1170 2.847 . S
U1166 C1183 2.882 . S
U1166 O1184 2.441 . S
U1166 O1185 2.420 . S
U1166 O1186 2.455 . S
U1166 O1187 2.449 . S
O1167 U1166 2.454 . S
O1167 C1169 1.353 . S
O1168 U1166 2.458 . S
O1168 C1169 1.286 . S
C1169 U1166 2.984 . S
C1169 O1167 1.353 . S
C1169 O1168 1.286 . S
C1169 C1171 1.363 . S
C1170 C1160 1.465 . S
C1170 U1166 2.847 . S
C1170 O1184 1.249 . S
C1170 O1185 1.202 . S
C1171 C1169 1.363 . S
C1171 C1173 1.408 . S
C1171 C1176 1.342 . S
C1172 C1173 1.310 . S
C1172 C1175 1.461 . S
C1172 H1192 0.932 . S
C1173 C1171 1.408 . S
C1173 C1172 1.310 . S
C1173 H1193 0.930 . S
C1174 C1175 1.474 . S
C1174 C1176 1.285 . S
C1174 H1194 0.929 . S
C1175 C1172 1.461 . S
C1175 C1174 1.474 . S
C1176 C1171 1.342 . S
C1176 C1174 1.285 . S
C1176 H1195 0.930 . S
C1177 C1180 1.424 . S
C1177 C1182 1.245 . S
C1177 C1183 1.428 . S
C1178 C1181 1.260 . S
C1178 C1182 1.477 . S
C1178 H1196 0.932 . S
C1179 C1180 1.384 . S
C1179 C1181 1.479 . S
C1179 H1197 0.929 . S
C1180 C1177 1.424 . S
C1180 C1179 1.384 . S
C1180 H1198 0.928 . S
C1181 C1178 1.260 . S
C1181 C1179 1.479 . S
C1182 C1177 1.245 . S
C1182 C1178 1.477 . S
C1182 H1199 0.932 . S
C1183 U1166 2.882 . S
C1183 C1177 1.428 . S
C1183 O1186 1.301 . S
C1183 O1187 1.282 . S
O1184 U1166 2.441 . S
O1184 C1170 1.249 . S
O1185 U1166 2.420 . S
O1185 C1170 1.202 . S
O1186 U1166 2.455 . S
O1186 C1183 1.301 . S
O1187 U1166 2.449 . S
O1187 C1183 1.282 . S
H1188 C1161 0.931 . S
H1189 C1163 0.929 . S
H1190 C1164 0.930 . S
H1191 C1165 0.931 . S
H1192 C1172 0.932 . S
H1193 C1173 0.930 . S
H1194 C1174 0.929 . S
H1195 C1176 0.930 . S
H1196 C1178 0.932 . S
H1197 C1179 0.929 . S
H1198 C1180 0.928 . S
H1199 C1182 0.932 . S
C1200 C1201 1.264 . S
C1200 C1205 1.479 . S
C1200 C1210 1.465 . S
C1201 C1200 1.264 . S
C1201 C1203 1.339 . S
C1201 H1228 0.931 . S
C1202 C1203 1.395 . S
C1202 C1204 1.320 . S
C1203 C1201 1.339 . S
C1203 C1202 1.395 . S
C1203 H1229 0.929 . S
C1204 C1202 1.320 . S
C1204 C1205 1.405 . S
C1204 H1230 0.930 . S
C1205 C1200 1.479 . S
C1205 C1204 1.405 . S
C1205 H1231 0.931 . S
U1206 O1207 2.454 . S
U1206 O1208 2.458 . S
U1206 C1209 2.984 . S
U1206 C1210 2.847 . S
U1206 C1223 2.882 . S
U1206 O1224 2.441 . S
U1206 O1225 2.420 . S
U1206 O1226 2.455 . S
U1206 O1227 2.449 . S
O1207 U1206 2.454 . S
O1207 C1209 1.353 . S
O1208 U1206 2.458 . S
O1208 C1209 1.286 . S
C1209 U1206 2.984 . S
C1209 O1207 1.353 . S
C1209 O1208 1.286 . S
C1209 C1211 1.363 . S
C1210 C1200 1.465 . S
C1210 U1206 2.847 . S
C1210 O1224 1.249 . S
C1210 O1225 1.202 . S
C1211 C1209 1.363 . S
C1211 C1213 1.408 . S
C1211 C1216 1.342 . S
C1212 C1213 1.310 . S
C1212 C1215 1.461 . S
C1212 H1232 0.932 . S
C1213 C1211 1.408 . S
C1213 C1212 1.310 . S
C1213 H1233 0.930 . S
C1214 C1215 1.474 . S
C1214 C1216 1.285 . S
C1214 H1234 0.929 . S
C1215 C1212 1.461 . S
C1215 C1214 1.474 . S
C1216 C1211 1.342 . S
C1216 C1214 1.285 . S
C1216 H1235 0.930 . S
C1217 C1220 1.424 . S
C1217 C1222 1.245 . S
C1217 C1223 1.428 . S
C1218 C1221 1.260 . S
C1218 C1222 1.477 . S
C1218 H1236 0.932 . S
C1219 C1220 1.384 . S
C1219 C1221 1.479 . S
C1219 H1237 0.929 . S
C1220 C1217 1.424 . S
C1220 C1219 1.384 . S
C1220 H1238 0.928 . S
C1221 C1218 1.260 . S
C1221 C1219 1.479 . S
C1222 C1217 1.245 . S
C1222 C1218 1.477 . S
C1222 H1239 0.932 . S
C1223 U1206 2.882 . S
C1223 C1217 1.428 . S
C1223 O1226 1.301 . S
C1223 O1227 1.282 . S
O1224 U1206 2.441 . S
O1224 C1210 1.249 . S
O1225 U1206 2.420 . S
O1225 C1210 1.202 . S
O1226 U1206 2.455 . S
O1226 C1223 1.301 . S
O1227 U1206 2.449 . S
O1227 C1223 1.282 . S
H1228 C1201 0.931 . S
H1229 C1203 0.929 . S
H1230 C1204 0.930 . S
H1231 C1205 0.931 . S
H1232 C1212 0.932 . S
H1233 C1213 0.930 . S
H1234 C1214 0.929 . S
H1235 C1216 0.930 . S
H1236 C1218 0.932 . S
H1237 C1219 0.929 . S
H1238 C1220 0.928 . S
H1239 C1222 0.932 . S
C1240 C1241 1.264 . S
C1240 C1245 1.479 . S
C1240 C1250 1.465 . S
C1241 C1240 1.264 . S
C1241 C1243 1.339 . S
C1241 H1268 0.931 . S
C1242 C1243 1.395 . S
C1242 C1244 1.320 . S
C1243 C1241 1.339 . S
C1243 C1242 1.395 . S
C1243 H1269 0.929 . S
C1244 C1242 1.320 . S
C1244 C1245 1.405 . S
C1244 H1270 0.930 . S
C1245 C1240 1.479 . S
C1245 C1244 1.405 . S
C1245 H1271 0.931 . S
U1246 O1247 2.454 . S
U1246 O1248 2.458 . S
U1246 C1249 2.984 . S
U1246 C1250 2.847 . S
U1246 C1263 2.882 . S
U1246 O1264 2.441 . S
U1246 O1265 2.420 . S
U1246 O1266 2.455 . S
U1246 O1267 2.449 . S
O1247 U1246 2.454 . S
O1247 C1249 1.353 . S
O1248 U1246 2.458 . S
O1248 C1249 1.286 . S
C1249 U1246 2.984 . S
C1249 O1247 1.353 . S
C1249 O1248 1.286 . S
C1249 C1251 1.363 . S
C1250 C1240 1.465 . S
C1250 U1246 2.847 . S
C1250 O1264 1.249 . S
C1250 O1265 1.202 . S
C1251 C1249 1.363 . S
C1251 C1253 1.408 . S
C1251 C1256 1.342 . S
C1252 C1253 1.310 . S
C1252 C1255 1.461 . S
C1252 H1272 0.932 . S
C1253 C1251 1.408 . S
C1253 C1252 1.310 . S
C1253 H1273 0.930 . S
C1254 C1255 1.474 . S
C1254 C1256 1.285 . S
C1254 H1274 0.929 . S
C1255 C1252 1.461 . S
C1255 C1254 1.474 . S
C1256 C1251 1.342 . S
C1256 C1254 1.285 . S
C1256 H1275 0.930 . S
C1257 C1260 1.424 . S
C1257 C1262 1.245 . S
C1257 C1263 1.428 . S
C1258 C1261 1.260 . S
C1258 C1262 1.477 . S
C1258 H1276 0.932 . S
C1259 C1260 1.384 . S
C1259 C1261 1.479 . S
C1259 H1277 0.929 . S
C1260 C1257 1.424 . S
C1260 C1259 1.384 . S
C1260 H1278 0.928 . S
C1261 C1258 1.260 . S
C1261 C1259 1.479 . S
C1262 C1257 1.245 . S
C1262 C1258 1.477 . S
C1262 H1279 0.932 . S
C1263 U1246 2.882 . S
C1263 C1257 1.428 . S
C1263 O1266 1.301 . S
C1263 O1267 1.282 . S
O1264 U1246 2.441 . S
O1264 C1250 1.249 . S
O1265 U1246 2.420 . S
O1265 C1250 1.202 . S
O1266 U1246 2.455 . S
O1266 C1263 1.301 . S
O1267 U1246 2.449 . S
O1267 C1263 1.282 . S
H1268 C1241 0.931 . S
H1269 C1243 0.929 . S
H1270 C1244 0.930 . S
H1271 C1245 0.931 . S
H1272 C1252 0.932 . S
H1273 C1253 0.930 . S
H1274 C1254 0.929 . S
H1275 C1256 0.930 . S
H1276 C1258 0.932 . S
H1277 C1259 0.929 . S
H1278 C1260 0.928 . S
H1279 C1262 0.932 . S
C1280 C1281 1.264 . S
C1280 C1285 1.479 . S
C1280 C1290 1.465 . S
C1281 C1280 1.264 . S
C1281 C1283 1.339 . S
C1281 H1308 0.931 . S
C1282 C1283 1.395 . S
C1282 C1284 1.320 . S
C1283 C1281 1.339 . S
C1283 C1282 1.395 . S
C1283 H1309 0.929 . S
C1284 C1282 1.320 . S
C1284 C1285 1.405 . S
C1284 H1310 0.930 . S
C1285 C1280 1.479 . S
C1285 C1284 1.405 . S
C1285 H1311 0.931 . S
U1286 O1287 2.454 . S
U1286 O1288 2.458 . S
U1286 C1289 2.984 . S
U1286 C1290 2.847 . S
U1286 C1303 2.882 . S
U1286 O1304 2.441 . S
U1286 O1305 2.420 . S
U1286 O1306 2.455 . S
U1286 O1307 2.449 . S
O1287 U1286 2.454 . S
O1287 C1289 1.353 . S
O1288 U1286 2.458 . S
O1288 C1289 1.286 . S
C1289 U1286 2.984 . S
C1289 O1287 1.353 . S
C1289 O1288 1.286 . S
C1289 C1291 1.363 . S
C1290 C1280 1.465 . S
C1290 U1286 2.847 . S
C1290 O1304 1.249 . S
C1290 O1305 1.202 . S
C1291 C1289 1.363 . S
C1291 C1293 1.408 . S
C1291 C1296 1.342 . S
C1292 C1293 1.310 . S
C1292 C1295 1.461 . S
C1292 H1312 0.932 . S
C1293 C1291 1.408 . S
C1293 C1292 1.310 . S
C1293 H1313 0.930 . S
C1294 C1295 1.474 . S
C1294 C1296 1.285 . S
C1294 H1314 0.929 . S
C1295 C1292 1.461 . S
C1295 C1294 1.474 . S
C1296 C1291 1.342 . S
C1296 C1294 1.285 . S
C1296 H1315 0.930 . S
C1297 C1300 1.424 . S
C1297 C1302 1.245 . S
C1297 C1303 1.428 . S
C1298 C1301 1.260 . S
C1298 C1302 1.477 . S
C1298 H1316 0.932 . S
C1299 C1300 1.384 . S
C1299 C1301 1.479 . S
C1299 H1317 0.929 . S
C1300 C1297 1.424 . S
C1300 C1299 1.384 . S
C1300 H1318 0.928 . S
C1301 C1298 1.260 . S
C1301 C1299 1.479 . S
C1302 C1297 1.245 . S
C1302 C1298 1.477 . S
C1302 H1319 0.932 . S
C1303 U1286 2.882 . S
C1303 C1297 1.428 . S
C1303 O1306 1.301 . S
C1303 O1307 1.282 . S
O1304 U1286 2.441 . S
O1304 C1290 1.249 . S
O1305 U1286 2.420 . S
O1305 C1290 1.202 . S
O1306 U1286 2.455 . S
O1306 C1303 1.301 . S
O1307 U1286 2.449 . S
O1307 C1303 1.282 . S
H1308 C1281 0.931 . S
H1309 C1283 0.929 . S
H1310 C1284 0.930 . S
H1311 C1285 0.931 . S
H1312 C1292 0.932 . S
H1313 C1293 0.930 . S
H1314 C1294 0.929 . S
H1315 C1296 0.930 . S
H1316 C1298 0.932 . S
H1317 C1299 0.929 . S
H1318 C1300 0.928 . S
H1319 C1302 0.932 . S
C1320 C1321 1.264 . S
C1320 C1325 1.479 . S
C1320 C1330 1.465 . S
C1321 C1320 1.264 . S
C1321 C1323 1.339 . S
C1321 H1348 0.931 . S
C1322 C1323 1.395 . S
C1322 C1324 1.320 . S
C1323 C1321 1.339 . S
C1323 C1322 1.395 . S
C1323 H1349 0.929 . S
C1324 C1322 1.320 . S
C1324 C1325 1.405 . S
C1324 H1350 0.930 . S
C1325 C1320 1.479 . S
C1325 C1324 1.405 . S
C1325 H1351 0.931 . S
U1326 O1327 2.454 . S
U1326 O1328 2.458 . S
U1326 C1329 2.984 . S
U1326 C1330 2.847 . S
U1326 C1343 2.882 . S
U1326 O1344 2.441 . S
U1326 O1345 2.420 . S
U1326 O1346 2.455 . S
U1326 O1347 2.449 . S
O1327 U1326 2.454 . S
O1327 C1329 1.353 . S
O1328 U1326 2.458 . S
O1328 C1329 1.286 . S
C1329 U1326 2.984 . S
C1329 O1327 1.353 . S
C1329 O1328 1.286 . S
C1329 C1331 1.363 . S
C1330 C1320 1.465 . S
C1330 U1326 2.847 . S
C1330 O1344 1.249 . S
C1330 O1345 1.202 . S
C1331 C1329 1.363 . S
C1331 C1333 1.408 . S
C1331 C1336 1.342 . S
C1332 C1333 1.310 . S
C1332 C1335 1.461 . S
C1332 H1352 0.932 . S
C1333 C1331 1.408 . S
C1333 C1332 1.310 . S
C1333 H1353 0.930 . S
C1334 C1335 1.474 . S
C1334 C1336 1.285 . S
C1334 H1354 0.929 . S
C1335 C1332 1.461 . S
C1335 C1334 1.474 . S
C1336 C1331 1.342 . S
C1336 C1334 1.285 . S
C1336 H1355 0.930 . S
C1337 C1340 1.424 . S
C1337 C1342 1.245 . S
C1337 C1343 1.428 . S
C1338 C1341 1.260 . S
C1338 C1342 1.477 . S
C1338 H1356 0.932 . S
C1339 C1340 1.384 . S
C1339 C1341 1.479 . S
C1339 H1357 0.929 . S
C1340 C1337 1.424 . S
C1340 C1339 1.384 . S
C1340 H1358 0.928 . S
C1341 C1338 1.260 . S
C1341 C1339 1.479 . S
C1342 C1337 1.245 . S
C1342 C1338 1.477 . S
C1342 H1359 0.932 . S
C1343 U1326 2.882 . S
C1343 C1337 1.428 . S
C1343 O1346 1.301 . S
C1343 O1347 1.282 . S
O1344 U1326 2.441 . S
O1344 C1330 1.249 . S
O1345 U1326 2.420 . S
O1345 C1330 1.202 . S
O1346 U1326 2.455 . S
O1346 C1343 1.301 . S
O1347 U1326 2.449 . S
O1347 C1343 1.282 . S
H1348 C1321 0.931 . S
H1349 C1323 0.929 . S
H1350 C1324 0.930 . S
H1351 C1325 0.931 . S
H1352 C1332 0.932 . S
H1353 C1333 0.930 . S
H1354 C1334 0.929 . S
H1355 C1336 0.930 . S
H1356 C1338 0.932 . S
H1357 C1339 0.929 . S
H1358 C1340 0.928 . S
H1359 C1342 0.932 . S
C1360 C1361 1.264 . S
C1360 C1365 1.479 . S
C1360 C1370 1.465 . S
C1361 C1360 1.264 . S
C1361 C1363 1.339 . S
C1361 H1388 0.931 . S
C1362 C1363 1.395 . S
C1362 C1364 1.320 . S
C1363 C1361 1.339 . S
C1363 C1362 1.395 . S
C1363 H1389 0.929 . S
C1364 C1362 1.320 . S
C1364 C1365 1.405 . S
C1364 H1390 0.930 . S
C1365 C1360 1.479 . S
C1365 C1364 1.405 . S
C1365 H1391 0.931 . S
U1366 O1367 2.454 . S
U1366 O1368 2.458 . S
U1366 C1369 2.984 . S
U1366 C1370 2.847 . S
U1366 C1383 2.882 . S
U1366 O1384 2.441 . S
U1366 O1385 2.420 . S
U1366 O1386 2.455 . S
U1366 O1387 2.449 . S
O1367 U1366 2.454 . S
O1367 C1369 1.353 . S
O1368 U1366 2.458 . S
O1368 C1369 1.286 . S
C1369 U1366 2.984 . S
C1369 O1367 1.353 . S
C1369 O1368 1.286 . S
C1369 C1371 1.363 . S
C1370 C1360 1.465 . S
C1370 U1366 2.847 . S
C1370 O1384 1.249 . S
C1370 O1385 1.202 . S
C1371 C1369 1.363 . S
C1371 C1373 1.408 . S
C1371 C1376 1.342 . S
C1372 C1373 1.310 . S
C1372 C1375 1.461 . S
C1372 H1392 0.932 . S
C1373 C1371 1.408 . S
C1373 C1372 1.310 . S
C1373 H1393 0.930 . S
C1374 C1375 1.474 . S
C1374 C1376 1.285 . S
C1374 H1394 0.929 . S
C1375 C1372 1.461 . S
C1375 C1374 1.474 . S
C1376 C1371 1.342 . S
C1376 C1374 1.285 . S
C1376 H1395 0.930 . S
C1377 C1380 1.424 . S
C1377 C1382 1.245 . S
C1377 C1383 1.428 . S
C1378 C1381 1.260 . S
C1378 C1382 1.477 . S
C1378 H1396 0.932 . S
C1379 C1380 1.384 . S
C1379 C1381 1.479 . S
C1379 H1397 0.929 . S
C1380 C1377 1.424 . S
C1380 C1379 1.384 . S
C1380 H1398 0.928 . S
C1381 C1378 1.260 . S
C1381 C1379 1.479 . S
C1382 C1377 1.245 . S
C1382 C1378 1.477 . S
C1382 H1399 0.932 . S
C1383 U1366 2.882 . S
C1383 C1377 1.428 . S
C1383 O1386 1.301 . S
C1383 O1387 1.282 . S
O1384 U1366 2.441 . S
O1384 C1370 1.249 . S
O1385 U1366 2.420 . S
O1385 C1370 1.202 . S
O1386 U1366 2.455 . S
O1386 C1383 1.301 . S
O1387 U1366 2.449 . S
O1387 C1383 1.282 . S
H1388 C1361 0.931 . S
H1389 C1363 0.929 . S
H1390 C1364 0.930 . S
H1391 C1365 0.931 . S
H1392 C1372 0.932 . S
H1393 C1373 0.930 . S
H1394 C1374 0.929 . S
H1395 C1376 0.930 . S
H1396 C1378 0.932 . S
H1397 C1379 0.929 . S
H1398 C1380 0.928 . S
H1399 C1382 0.932 . S
C1400 C1401 1.264 . S
C1400 C1405 1.479 . S
C1400 C1410 1.465 . S
C1401 C1400 1.264 . S
C1401 C1403 1.339 . S
C1401 H1428 0.931 . S
C1402 C1403 1.395 . S
C1402 C1404 1.320 . S
C1403 C1401 1.339 . S
C1403 C1402 1.395 . S
C1403 H1429 0.929 . S
C1404 C1402 1.320 . S
C1404 C1405 1.405 . S
C1404 H1430 0.930 . S
C1405 C1400 1.479 . S
C1405 C1404 1.405 . S
C1405 H1431 0.931 . S
U1406 O1407 2.454 . S
U1406 O1408 2.458 . S
U1406 C1409 2.984 . S
U1406 C1410 2.847 . S
U1406 C1423 2.882 . S
U1406 O1424 2.441 . S
U1406 O1425 2.420 . S
U1406 O1426 2.455 . S
U1406 O1427 2.449 . S
O1407 U1406 2.454 . S
O1407 C1409 1.353 . S
O1408 U1406 2.458 . S
O1408 C1409 1.286 . S
C1409 U1406 2.984 . S
C1409 O1407 1.353 . S
C1409 O1408 1.286 . S
C1409 C1411 1.363 . S
C1410 C1400 1.465 . S
C1410 U1406 2.847 . S
C1410 O1424 1.249 . S
C1410 O1425 1.202 . S
C1411 C1409 1.363 . S
C1411 C1413 1.408 . S
C1411 C1416 1.342 . S
C1412 C1413 1.310 . S
C1412 C1415 1.461 . S
C1412 H1432 0.932 . S
C1413 C1411 1.408 . S
C1413 C1412 1.310 . S
C1413 H1433 0.930 . S
C1414 C1415 1.474 . S
C1414 C1416 1.285 . S
C1414 H1434 0.929 . S
C1415 C1412 1.461 . S
C1415 C1414 1.474 . S
C1416 C1411 1.342 . S
C1416 C1414 1.285 . S
C1416 H1435 0.930 . S
C1417 C1420 1.424 . S
C1417 C1422 1.245 . S
C1417 C1423 1.428 . S
C1418 C1421 1.260 . S
C1418 C1422 1.477 . S
C1418 H1436 0.932 . S
C1419 C1420 1.384 . S
C1419 C1421 1.479 . S
C1419 H1437 0.929 . S
C1420 C1417 1.424 . S
C1420 C1419 1.384 . S
C1420 H1438 0.928 . S
C1421 C1418 1.260 . S
C1421 C1419 1.479 . S
C1422 C1417 1.245 . S
C1422 C1418 1.477 . S
C1422 H1439 0.932 . S
C1423 U1406 2.882 . S
C1423 C1417 1.428 . S
C1423 O1426 1.301 . S
C1423 O1427 1.282 . S
O1424 U1406 2.441 . S
O1424 C1410 1.249 . S
O1425 U1406 2.420 . S
O1425 C1410 1.202 . S
O1426 U1406 2.455 . S
O1426 C1423 1.301 . S
O1427 U1406 2.449 . S
O1427 C1423 1.282 . S
H1428 C1401 0.931 . S
H1429 C1403 0.929 . S
H1430 C1404 0.930 . S
H1431 C1405 0.931 . S
H1432 C1412 0.932 . S
H1433 C1413 0.930 . S
H1434 C1414 0.929 . S
H1435 C1416 0.930 . S
H1436 C1418 0.932 . S
H1437 C1419 0.929 . S
H1438 C1420 0.928 . S
H1439 C1422 0.932 . S
C1440 C1441 1.264 . S
C1440 C1445 1.479 . S
C1440 C1450 1.465 . S
C1441 C1440 1.264 . S
C1441 C1443 1.339 . S
C1441 H1468 0.931 . S
C1442 C1443 1.395 . S
C1442 C1444 1.320 . S
C1443 C1441 1.339 . S
C1443 C1442 1.395 . S
C1443 H1469 0.929 . S
C1444 C1442 1.320 . S
C1444 C1445 1.405 . S
C1444 H1470 0.930 . S
C1445 C1440 1.479 . S
C1445 C1444 1.405 . S
C1445 H1471 0.931 . S
U1446 O1447 2.454 . S
U1446 O1448 2.458 . S
U1446 C1449 2.984 . S
U1446 C1450 2.847 . S
U1446 C1463 2.882 . S
U1446 O1464 2.441 . S
U1446 O1465 2.420 . S
U1446 O1466 2.455 . S
U1446 O1467 2.449 . S
O1447 U1446 2.454 . S
O1447 C1449 1.353 . S
O1448 U1446 2.458 . S
O1448 C1449 1.286 . S
C1449 U1446 2.984 . S
C1449 O1447 1.353 . S
C1449 O1448 1.286 . S
C1449 C1451 1.363 . S
C1450 C1440 1.465 . S
C1450 U1446 2.847 . S
C1450 O1464 1.249 . S
C1450 O1465 1.202 . S
C1451 C1449 1.363 . S
C1451 C1453 1.408 . S
C1451 C1456 1.342 . S
C1452 C1453 1.310 . S
C1452 C1455 1.461 . S
C1452 H1472 0.932 . S
C1453 C1451 1.408 . S
C1453 C1452 1.310 . S
C1453 H1473 0.930 . S
C1454 C1455 1.474 . S
C1454 C1456 1.285 . S
C1454 H1474 0.929 . S
C1455 C1452 1.461 . S
C1455 C1454 1.474 . S
C1456 C1451 1.342 . S
C1456 C1454 1.285 . S
C1456 H1475 0.930 . S
C1457 C1460 1.424 . S
C1457 C1462 1.245 . S
C1457 C1463 1.428 . S
C1458 C1461 1.260 . S
C1458 C1462 1.477 . S
C1458 H1476 0.932 . S
C1459 C1460 1.384 . S
C1459 C1461 1.479 . S
C1459 H1477 0.929 . S
C1460 C1457 1.424 . S
C1460 C1459 1.384 . S
C1460 H1478 0.928 . S
C1461 C1458 1.260 . S
C1461 C1459 1.479 . S
C1462 C1457 1.245 . S
C1462 C1458 1.477 . S
C1462 H1479 0.932 . S
C1463 U1446 2.882 . S
C1463 C1457 1.428 . S
C1463 O1466 1.301 . S
C1463 O1467 1.282 . S
O1464 U1446 2.441 . S
O1464 C1450 1.249 . S
O1465 U1446 2.420 . S
O1465 C1450 1.202 . S
O1466 U1446 2.455 . S
O1466 C1463 1.301 . S
O1467 U1446 2.449 . S
O1467 C1463 1.282 . S
H1468 C1441 0.931 . S
H1469 C1443 0.929 . S
H1470 C1444 0.930 . S
H1471 C1445 0.931 . S
H1472 C1452 0.932 . S
H1473 C1453 0.930 . S
H1474 C1454 0.929 . S
H1475 C1456 0.930 . S
H1476 C1458 0.932 . S
H1477 C1459 0.929 . S
H1478 C1460 0.928 . S
H1479 C1462 0.932 . S
C1480 C1481 1.264 . S
C1480 C1485 1.479 . S
C1480 C1490 1.465 . S
C1481 C1480 1.264 . S
C1481 C1483 1.339 . S
C1481 H1508 0.931 . S
C1482 C1483 1.395 . S
C1482 C1484 1.320 . S
C1483 C1481 1.339 . S
C1483 C1482 1.395 . S
C1483 H1509 0.929 . S
C1484 C1482 1.320 . S
C1484 C1485 1.405 . S
C1484 H1510 0.930 . S
C1485 C1480 1.479 . S
C1485 C1484 1.405 . S
C1485 H1511 0.931 . S
U1486 O1487 2.454 . S
U1486 O1488 2.458 . S
U1486 C1489 2.984 . S
U1486 C1490 2.847 . S
U1486 C1503 2.882 . S
U1486 O1504 2.441 . S
U1486 O1505 2.420 . S
U1486 O1506 2.455 . S
U1486 O1507 2.449 . S
O1487 U1486 2.454 . S
O1487 C1489 1.353 . S
O1488 U1486 2.458 . S
O1488 C1489 1.286 . S
C1489 U1486 2.984 . S
C1489 O1487 1.353 . S
C1489 O1488 1.286 . S
C1489 C1491 1.363 . S
C1490 C1480 1.465 . S
C1490 U1486 2.847 . S
C1490 O1504 1.249 . S
C1490 O1505 1.202 . S
C1491 C1489 1.363 . S
C1491 C1493 1.408 . S
C1491 C1496 1.342 . S
C1492 C1493 1.310 . S
C1492 C1495 1.461 . S
C1492 H1512 0.932 . S
C1493 C1491 1.408 . S
C1493 C1492 1.310 . S
C1493 H1513 0.930 . S
C1494 C1495 1.474 . S
C1494 C1496 1.285 . S
C1494 H1514 0.929 . S
C1495 C1492 1.461 . S
C1495 C1494 1.474 . S
C1496 C1491 1.342 . S
C1496 C1494 1.285 . S
C1496 H1515 0.930 . S
C1497 C1500 1.424 . S
C1497 C1502 1.245 . S
C1497 C1503 1.428 . S
C1498 C1501 1.260 . S
C1498 C1502 1.477 . S
C1498 H1516 0.932 . S
C1499 C1500 1.384 . S
C1499 C1501 1.479 . S
C1499 H1517 0.929 . S
C1500 C1497 1.424 . S
C1500 C1499 1.384 . S
C1500 H1518 0.928 . S
C1501 C1498 1.260 . S
C1501 C1499 1.479 . S
C1502 C1497 1.245 . S
C1502 C1498 1.477 . S
C1502 H1519 0.932 . S
C1503 U1486 2.882 . S
C1503 C1497 1.428 . S
C1503 O1506 1.301 . S
C1503 O1507 1.282 . S
O1504 U1486 2.441 . S
O1504 C1490 1.249 . S
O1505 U1486 2.420 . S
O1505 C1490 1.202 . S
O1506 U1486 2.455 . S
O1506 C1503 1.301 . S
O1507 U1486 2.449 . S
O1507 C1503 1.282 . S
H1508 C1481 0.931 . S
H1509 C1483 0.929 . S
H1510 C1484 0.930 . S
H1511 C1485 0.931 . S
H1512 C1492 0.932 . S
H1513 C1493 0.930 . S
H1514 C1494 0.929 . S
H1515 C1496 0.930 . S
H1516 C1498 0.932 . S
H1517 C1499 0.929 . S
H1518 C1500 0.928 . S
H1519 C1502 0.932 . S
C1520 C1521 1.264 . S
C1520 C1525 1.479 . S
C1520 C1530 1.465 . S
C1521 C1520 1.264 . S
C1521 C1523 1.339 . S
C1521 H1548 0.931 . S
C1522 C1523 1.395 . S
C1522 C1524 1.320 . S
C1523 C1521 1.339 . S
C1523 C1522 1.395 . S
C1523 H1549 0.929 . S
C1524 C1522 1.320 . S
C1524 C1525 1.405 . S
C1524 H1550 0.930 . S
C1525 C1520 1.479 . S
C1525 C1524 1.405 . S
C1525 H1551 0.931 . S
U1526 O1527 2.454 . S
U1526 O1528 2.458 . S
U1526 C1529 2.984 . S
U1526 C1530 2.847 . S
U1526 C1543 2.882 . S
U1526 O1544 2.441 . S
U1526 O1545 2.420 . S
U1526 O1546 2.455 . S
U1526 O1547 2.449 . S
O1527 U1526 2.454 . S
O1527 C1529 1.353 . S
O1528 U1526 2.458 . S
O1528 C1529 1.286 . S
C1529 U1526 2.984 . S
C1529 O1527 1.353 . S
C1529 O1528 1.286 . S
C1529 C1531 1.363 . S
C1530 C1520 1.465 . S
C1530 U1526 2.847 . S
C1530 O1544 1.249 . S
C1530 O1545 1.202 . S
C1531 C1529 1.363 . S
C1531 C1533 1.408 . S
C1531 C1536 1.342 . S
C1532 C1533 1.310 . S
C1532 C1535 1.461 . S
C1532 H1552 0.932 . S
C1533 C1531 1.408 . S
C1533 C1532 1.310 . S
C1533 H1553 0.930 . S
C1534 C1535 1.474 . S
C1534 C1536 1.285 . S
C1534 H1554 0.929 . S
C1535 C1532 1.461 . S
C1535 C1534 1.474 . S
C1536 C1531 1.342 . S
C1536 C1534 1.285 . S
C1536 H1555 0.930 . S
C1537 C1540 1.424 . S
C1537 C1542 1.245 . S
C1537 C1543 1.428 . S
C1538 C1541 1.260 . S
C1538 C1542 1.477 . S
C1538 H1556 0.932 . S
C1539 C1540 1.384 . S
C1539 C1541 1.479 . S
C1539 H1557 0.929 . S
C1540 C1537 1.424 . S
C1540 C1539 1.384 . S
C1540 H1558 0.928 . S
C1541 C1538 1.260 . S
C1541 C1539 1.479 . S
C1542 C1537 1.245 . S
C1542 C1538 1.477 . S
C1542 H1559 0.932 . S
C1543 U1526 2.882 . S
C1543 C1537 1.428 . S
C1543 O1546 1.301 . S
C1543 O1547 1.282 . S
O1544 U1526 2.441 . S
O1544 C1530 1.249 . S
O1545 U1526 2.420 . S
O1545 C1530 1.202 . S
O1546 U1526 2.455 . S
O1546 C1543 1.301 . S
O1547 U1526 2.449 . S
O1547 C1543 1.282 . S
H1548 C1521 0.931 . S
H1549 C1523 0.929 . S
H1550 C1524 0.930 . S
H1551 C1525 0.931 . S
H1552 C1532 0.932 . S
H1553 C1533 0.930 . S
H1554 C1534 0.929 . S
H1555 C1536 0.930 . S
H1556 C1538 0.932 . S
H1557 C1539 0.929 . S
H1558 C1540 0.928 . S
H1559 C1542 0.932 . S
C1560 C1561 1.264 . S
C1560 C1565 1.479 . S
C1560 C1570 1.465 . S
C1561 C1560 1.264 . S
C1561 C1563 1.339 . S
C1561 H1588 0.931 . S
C1562 C1563 1.395 . S
C1562 C1564 1.320 . S
C1563 C1561 1.339 . S
C1563 C1562 1.395 . S
C1563 H1589 0.929 . S
C1564 C1562 1.320 . S
C1564 C1565 1.405 . S
C1564 H1590 0.930 . S
C1565 C1560 1.479 . S
C1565 C1564 1.405 . S
C1565 H1591 0.931 . S
U1566 O1567 2.454 . S
U1566 O1568 2.458 . S
U1566 C1569 2.984 . S
U1566 C1570 2.847 . S
U1566 C1583 2.882 . S
U1566 O1584 2.441 . S
U1566 O1585 2.420 . S
U1566 O1586 2.455 . S
U1566 O1587 2.449 . S
O1567 U1566 2.454 . S
O1567 C1569 1.353 . S
O1568 U1566 2.458 . S
O1568 C1569 1.286 . S
C1569 U1566 2.984 . S
C1569 O1567 1.353 . S
C1569 O1568 1.286 . S
C1569 C1571 1.363 . S
C1570 C1560 1.465 . S
C1570 U1566 2.847 . S
C1570 O1584 1.249 . S
C1570 O1585 1.202 . S
C1571 C1569 1.363 . S
C1571 C1573 1.408 . S
C1571 C1576 1.342 . S
C1572 C1573 1.310 . S
C1572 C1575 1.461 . S
C1572 H1592 0.932 . S
C1573 C1571 1.408 . S
C1573 C1572 1.310 . S
C1573 H1593 0.930 . S
C1574 C1575 1.474 . S
C1574 C1576 1.285 . S
C1574 H1594 0.929 . S
C1575 C1572 1.461 . S
C1575 C1574 1.474 . S
C1576 C1571 1.342 . S
C1576 C1574 1.285 . S
C1576 H1595 0.930 . S
C1577 C1580 1.424 . S
C1577 C1582 1.245 . S
C1577 C1583 1.428 . S
C1578 C1581 1.260 . S
C1578 C1582 1.477 . S
C1578 H1596 0.932 . S
C1579 C1580 1.384 . S
C1579 C1581 1.479 . S
C1579 H1597 0.929 . S
C1580 C1577 1.424 . S
C1580 C1579 1.384 . S
C1580 H1598 0.928 . S
C1581 C1578 1.260 . S
C1581 C1579 1.479 . S
C1582 C1577 1.245 . S
C1582 C1578 1.477 . S
C1582 H1599 0.932 . S
C1583 U1566 2.882 . S
C1583 C1577 1.428 . S
C1583 O1586 1.301 . S
C1583 O1587 1.282 . S
O1584 U1566 2.441 . S
O1584 C1570 1.249 . S
O1585 U1566 2.420 . S
O1585 C1570 1.202 . S
O1586 U1566 2.455 . S
O1586 C1583 1.301 . S
O1587 U1566 2.449 . S
O1587 C1583 1.282 . S
H1588 C1561 0.931 . S
H1589 C1563 0.929 . S
H1590 C1564 0.930 . S
H1591 C1565 0.931 . S
H1592 C1572 0.932 . S
H1593 C1573 0.930 . S
H1594 C1574 0.929 . S
H1595 C1576 0.930 . S
H1596 C1578 0.932 . S
H1597 C1579 0.929 . S
H1598 C1580 0.928 . S
H1599 C1582 0.932 . S
C1600 C1601 1.264 . S
C1600 C1605 1.479 . S
C1600 C1610 1.465 . S
C1601 C1600 1.264 . S
C1601 C1603 1.339 . S
C1601 H1628 0.931 . S
C1602 C1603 1.395 . S
C1602 C1604 1.320 . S
C1603 C1601 1.339 . S
C1603 C1602 1.395 . S
C1603 H1629 0.929 . S
C1604 C1602 1.320 . S
C1604 C1605 1.405 . S
C1604 H1630 0.930 . S
C1605 C1600 1.479 . S
C1605 C1604 1.405 . S
C1605 H1631 0.931 . S
U1606 O1607 2.454 . S
U1606 O1608 2.458 . S
U1606 C1609 2.984 . S
U1606 C1610 2.847 . S
U1606 C1623 2.882 . S
U1606 O1624 2.441 . S
U1606 O1625 2.420 . S
U1606 O1626 2.455 . S
U1606 O1627 2.449 . S
O1607 U1606 2.454 . S
O1607 C1609 1.353 . S
O1608 U1606 2.458 . S
O1608 C1609 1.286 . S
C1609 U1606 2.984 . S
C1609 O1607 1.353 . S
C1609 O1608 1.286 . S
C1609 C1611 1.363 . S
C1610 C1600 1.465 . S
C1610 U1606 2.847 . S
C1610 O1624 1.249 . S
C1610 O1625 1.202 . S
C1611 C1609 1.363 . S
C1611 C1613 1.408 . S
C1611 C1616 1.342 . S
C1612 C1613 1.310 . S
C1612 C1615 1.461 . S
C1612 H1632 0.932 . S
C1613 C1611 1.408 . S
C1613 C1612 1.310 . S
C1613 H1633 0.930 . S
C1614 C1615 1.474 . S
C1614 C1616 1.285 . S
C1614 H1634 0.929 . S
C1615 C1612 1.461 . S
C1615 C1614 1.474 . S
C1616 C1611 1.342 . S
C1616 C1614 1.285 . S
C1616 H1635 0.930 . S
C1617 C1620 1.424 . S
C1617 C1622 1.245 . S
C1617 C1623 1.428 . S
C1618 C1621 1.260 . S
C1618 C1622 1.477 . S
C1618 H1636 0.932 . S
C1619 C1620 1.384 . S
C1619 C1621 1.479 . S
C1619 H1637 0.929 . S
C1620 C1617 1.424 . S
C1620 C1619 1.384 . S
C1620 H1638 0.928 . S
C1621 C1618 1.260 . S
C1621 C1619 1.479 . S
C1622 C1617 1.245 . S
C1622 C1618 1.477 . S
C1622 H1639 0.932 . S
C1623 U1606 2.882 . S
C1623 C1617 1.428 . S
C1623 O1626 1.301 . S
C1623 O1627 1.282 . S
O1624 U1606 2.441 . S
O1624 C1610 1.249 . S
O1625 U1606 2.420 . S
O1625 C1610 1.202 . S
O1626 U1606 2.455 . S
O1626 C1623 1.301 . S
O1627 U1606 2.449 . S
O1627 C1623 1.282 . S
H1628 C1601 0.931 . S
H1629 C1603 0.929 . S
H1630 C1604 0.930 . S
H1631 C1605 0.931 . S
H1632 C1612 0.932 . S
H1633 C1613 0.930 . S
H1634 C1614 0.929 . S
H1635 C1616 0.930 . S
H1636 C1618 0.932 . S
H1637 C1619 0.929 . S
H1638 C1620 0.928 . S
H1639 C1622 0.932 . S
C1640 C1641 1.264 . S
C1640 C1645 1.479 . S
C1640 C1650 1.465 . S
C1641 C1640 1.264 . S
C1641 C1643 1.339 . S
C1641 H1668 0.931 . S
C1642 C1643 1.395 . S
C1642 C1644 1.320 . S
C1643 C1641 1.339 . S
C1643 C1642 1.395 . S
C1643 H1669 0.929 . S
C1644 C1642 1.320 . S
C1644 C1645 1.405 . S
C1644 H1670 0.930 . S
C1645 C1640 1.479 . S
C1645 C1644 1.405 . S
C1645 H1671 0.931 . S
U1646 O1647 2.454 . S
U1646 O1648 2.458 . S
U1646 C1649 2.984 . S
U1646 C1650 2.847 . S
U1646 C1663 2.882 . S
U1646 O1664 2.441 . S
U1646 O1665 2.420 . S
U1646 O1666 2.455 . S
U1646 O1667 2.449 . S
O1647 U1646 2.454 . S
O1647 C1649 1.353 . S
O1648 U1646 2.458 . S
O1648 C1649 1.286 . S
C1649 U1646 2.984 . S
C1649 O1647 1.353 . S
C1649 O1648 1.286 . S
C1649 C1651 1.363 . S
C1650 C1640 1.465 . S
C1650 U1646 2.847 . S
C1650 O1664 1.249 . S
C1650 O1665 1.202 . S
C1651 C1649 1.363 . S
C1651 C1653 1.408 . S
C1651 C1656 1.342 . S
C1652 C1653 1.310 . S
C1652 C1655 1.461 . S
C1652 H1672 0.932 . S
C1653 C1651 1.408 . S
C1653 C1652 1.310 . S
C1653 H1673 0.930 . S
C1654 C1655 1.474 . S
C1654 C1656 1.285 . S
C1654 H1674 0.929 . S
C1655 C1652 1.461 . S
C1655 C1654 1.474 . S
C1656 C1651 1.342 . S
C1656 C1654 1.285 . S
C1656 H1675 0.930 . S
C1657 C1660 1.424 . S
C1657 C1662 1.245 . S
C1657 C1663 1.428 . S
C1658 C1661 1.260 . S
C1658 C1662 1.477 . S
C1658 H1676 0.932 . S
C1659 C1660 1.384 . S
C1659 C1661 1.479 . S
C1659 H1677 0.929 . S
C1660 C1657 1.424 . S
C1660 C1659 1.384 . S
C1660 H1678 0.928 . S
C1661 C1658 1.260 . S
C1661 C1659 1.479 . S
C1662 C1657 1.245 . S
C1662 C1658 1.477 . S
C1662 H1679 0.932 . S
C1663 U1646 2.882 . S
C1663 C1657 1.428 . S
C1663 O1666 1.301 . S
C1663 O1667 1.282 . S
O1664 U1646 2.441 . S
O1664 C1650 1.249 . S
O1665 U1646 2.420 . S
O1665 C1650 1.202 . S
O1666 U1646 2.455 . S
O1666 C1663 1.301 . S
O1667 U1646 2.449 . S
O1667 C1663 1.282 . S
H1668 C1641 0.931 . S
H1669 C1643 0.929 . S
H1670 C1644 0.930 . S
H1671 C1645 0.931 . S
H1672 C1652 0.932 . S
H1673 C1653 0.930 . S
H1674 C1654 0.929 . S
H1675 C1656 0.930 . S
H1676 C1658 0.932 . S
H1677 C1659 0.929 . S
H1678 C1660 0.928 . S
H1679 C1662 0.932 . S
C1680 C1681 1.264 . S
C1680 C1685 1.479 . S
C1680 C1690 1.465 . S
C1681 C1680 1.264 . S
C1681 C1683 1.339 . S
C1681 H1708 0.931 . S
C1682 C1683 1.395 . S
C1682 C1684 1.320 . S
C1683 C1681 1.339 . S
C1683 C1682 1.395 . S
C1683 H1709 0.929 . S
C1684 C1682 1.320 . S
C1684 C1685 1.405 . S
C1684 H1710 0.930 . S
C1685 C1680 1.479 . S
C1685 C1684 1.405 . S
C1685 H1711 0.931 . S
U1686 O1687 2.454 . S
U1686 O1688 2.458 . S
U1686 C1689 2.984 . S
U1686 C1690 2.847 . S
U1686 C1703 2.882 . S
U1686 O1704 2.441 . S
U1686 O1705 2.420 . S
U1686 O1706 2.455 . S
U1686 O1707 2.449 . S
O1687 U1686 2.454 . S
O1687 C1689 1.353 . S
O1688 U1686 2.458 . S
O1688 C1689 1.286 . S
C1689 U1686 2.984 . S
C1689 O1687 1.353 . S
C1689 O1688 1.286 . S
C1689 C1691 1.363 . S
C1690 C1680 1.465 . S
C1690 U1686 2.847 . S
C1690 O1704 1.249 . S
C1690 O1705 1.202 . S
C1691 C1689 1.363 . S
C1691 C1693 1.408 . S
C1691 C1696 1.342 . S
C1692 C1693 1.310 . S
C1692 C1695 1.461 . S
C1692 H1712 0.932 . S
C1693 C1691 1.408 . S
C1693 C1692 1.310 . S
C1693 H1713 0.930 . S
C1694 C1695 1.474 . S
C1694 C1696 1.285 . S
C1694 H1714 0.929 . S
C1695 C1692 1.461 . S
C1695 C1694 1.474 . S
C1696 C1691 1.342 . S
C1696 C1694 1.285 . S
C1696 H1715 0.930 . S
C1697 C1700 1.424 . S
C1697 C1702 1.245 . S
C1697 C1703 1.428 . S
C1698 C1701 1.260 . S
C1698 C1702 1.477 . S
C1698 H1716 0.932 . S
C1699 C1700 1.384 . S
C1699 C1701 1.479 . S
C1699 H1717 0.929 . S
C1700 C1697 1.424 . S
C1700 C1699 1.384 . S
C1700 H1718 0.928 . S
C1701 C1698 1.260 . S
C1701 C1699 1.479 . S
C1702 C1697 1.245 . S
C1702 C1698 1.477 . S
C1702 H1719 0.932 . S
C1703 U1686 2.882 . S
C1703 C1697 1.428 . S
C1703 O1706 1.301 . S
C1703 O1707 1.282 . S
O1704 U1686 2.441 . S
O1704 C1690 1.249 . S
O1705 U1686 2.420 . S
O1705 C1690 1.202 . S
O1706 U1686 2.455 . S
O1706 C1703 1.301 . S
O1707 U1686 2.449 . S
O1707 C1703 1.282 . S
H1708 C1681 0.931 . S
H1709 C1683 0.929 . S
H1710 C1684 0.930 . S
H1711 C1685 0.931 . S
H1712 C1692 0.932 . S
H1713 C1693 0.930 . S
H1714 C1694 0.929 . S
H1715 C1696 0.930 . S
H1716 C1698 0.932 . S
H1717 C1699 0.929 . S
H1718 C1700 0.928 . S
H1719 C1702 0.932 . S
C1720 C1721 1.264 . S
C1720 C1725 1.479 . S
C1720 C1730 1.465 . S
C1721 C1720 1.264 . S
C1721 C1723 1.339 . S
C1721 H1748 0.931 . S
C1722 C1723 1.395 . S
C1722 C1724 1.320 . S
C1723 C1721 1.339 . S
C1723 C1722 1.395 . S
C1723 H1749 0.929 . S
C1724 C1722 1.320 . S
C1724 C1725 1.405 . S
C1724 H1750 0.930 . S
C1725 C1720 1.479 . S
C1725 C1724 1.405 . S
C1725 H1751 0.931 . S
U1726 O1727 2.454 . S
U1726 O1728 2.458 . S
U1726 C1729 2.984 . S
U1726 C1730 2.847 . S
U1726 C1743 2.882 . S
U1726 O1744 2.441 . S
U1726 O1745 2.420 . S
U1726 O1746 2.455 . S
U1726 O1747 2.449 . S
O1727 U1726 2.454 . S
O1727 C1729 1.353 . S
O1728 U1726 2.458 . S
O1728 C1729 1.286 . S
C1729 U1726 2.984 . S
C1729 O1727 1.353 . S
C1729 O1728 1.286 . S
C1729 C1731 1.363 . S
C1730 C1720 1.465 . S
C1730 U1726 2.847 . S
C1730 O1744 1.249 . S
C1730 O1745 1.202 . S
C1731 C1729 1.363 . S
C1731 C1733 1.408 . S
C1731 C1736 1.342 . S
C1732 C1733 1.310 . S
C1732 C1735 1.461 . S
C1732 H1752 0.932 . S
C1733 C1731 1.408 . S
C1733 C1732 1.310 . S
C1733 H1753 0.930 . S
C1734 C1735 1.474 . S
C1734 C1736 1.285 . S
C1734 H1754 0.929 . S
C1735 C1732 1.461 . S
C1735 C1734 1.474 . S
C1736 C1731 1.342 . S
C1736 C1734 1.285 . S
C1736 H1755 0.930 . S
C1737 C1740 1.424 . S
C1737 C1742 1.245 . S
C1737 C1743 1.428 . S
C1738 C1741 1.260 . S
C1738 C1742 1.477 . S
C1738 H1756 0.932 . S
C1739 C1740 1.384 . S
C1739 C1741 1.479 . S
C1739 H1757 0.929 . S
C1740 C1737 1.424 . S
C1740 C1739 1.384 . S
C1740 H1758 0.928 . S
C1741 C1738 1.260 . S
C1741 C1739 1.479 . S
C1742 C1737 1.245 . S
C1742 C1738 1.477 . S
C1742 H1759 0.932 . S
C1743 U1726 2.882 . S
C1743 C1737 1.428 . S
C1743 O1746 1.301 . S
C1743 O1747 1.282 . S
O1744 U1726 2.441 . S
O1744 C1730 1.249 . S
O1745 U1726 2.420 . S
O1745 C1730 1.202 . S
O1746 U1726 2.455 . S
O1746 C1743 1.301 . S
O1747 U1726 2.449 . S
O1747 C1743 1.282 . S
H1748 C1721 0.931 . S
H1749 C1723 0.929 . S
H1750 C1724 0.930 . S
H1751 C1725 0.931 . S
H1752 C1732 0.932 . S
H1753 C1733 0.930 . S
H1754 C1734 0.929 . S
H1755 C1736 0.930 . S
H1756 C1738 0.932 . S
H1757 C1739 0.929 . S
H1758 C1740 0.928 . S
H1759 C1742 0.932 . S
C1760 C1761 1.264 . S
C1760 C1765 1.479 . S
C1760 C1770 1.465 . S
C1761 C1760 1.264 . S
C1761 C1763 1.339 . S
C1761 H1788 0.931 . S
C1762 C1763 1.395 . S
C1762 C1764 1.320 . S
C1763 C1761 1.339 . S
C1763 C1762 1.395 . S
C1763 H1789 0.929 . S
C1764 C1762 1.320 . S
C1764 C1765 1.405 . S
C1764 H1790 0.930 . S
C1765 C1760 1.479 . S
C1765 C1764 1.405 . S
C1765 H1791 0.931 . S
U1766 O1767 2.454 . S
U1766 O1768 2.458 . S
U1766 C1769 2.984 . S
U1766 C1770 2.847 . S
U1766 C1783 2.882 . S
U1766 O1784 2.441 . S
U1766 O1785 2.420 . S
U1766 O1786 2.455 . S
U1766 O1787 2.449 . S
O1767 U1766 2.454 . S
O1767 C1769 1.353 . S
O1768 U1766 2.458 . S
O1768 C1769 1.286 . S
C1769 U1766 2.984 . S
C1769 O1767 1.353 . S
C1769 O1768 1.286 . S
C1769 C1771 1.363 . S
C1770 C1760 1.465 . S
C1770 U1766 2.847 . S
C1770 O1784 1.249 . S
C1770 O1785 1.202 . S
C1771 C1769 1.363 . S
C1771 C1773 1.408 . S
C1771 C1776 1.342 . S
C1772 C1773 1.310 . S
C1772 C1775 1.461 . S
C1772 H1792 0.932 . S
C1773 C1771 1.408 . S
C1773 C1772 1.310 . S
C1773 H1793 0.930 . S
C1774 C1775 1.474 . S
C1774 C1776 1.285 . S
C1774 H1794 0.929 . S
C1775 C1772 1.461 . S
C1775 C1774 1.474 . S
C1776 C1771 1.342 . S
C1776 C1774 1.285 . S
C1776 H1795 0.930 . S
C1777 C1780 1.424 . S
C1777 C1782 1.245 . S
C1777 C1783 1.428 . S
C1778 C1781 1.260 . S
C1778 C1782 1.477 . S
C1778 H1796 0.932 . S
C1779 C1780 1.384 . S
C1779 C1781 1.479 . S
C1779 H1797 0.929 . S
C1780 C1777 1.424 . S
C1780 C1779 1.384 . S
C1780 H1798 0.928 . S
C1781 C1778 1.260 . S
C1781 C1779 1.479 . S
C1782 C1777 1.245 . S
C1782 C1778 1.477 . S
C1782 H1799 0.932 . S
C1783 U1766 2.882 . S
C1783 C1777 1.428 . S
C1783 O1786 1.301 . S
C1783 O1787 1.282 . S
O1784 U1766 2.441 . S
O1784 C1770 1.249 . S
O1785 U1766 2.420 . S
O1785 C1770 1.202 . S
O1786 U1766 2.455 . S
O1786 C1783 1.301 . S
O1787 U1766 2.449 . S
O1787 C1783 1.282 . S
H1788 C1761 0.931 . S
H1789 C1763 0.929 . S
H1790 C1764 0.930 . S
H1791 C1765 0.931 . S
H1792 C1772 0.932 . S
H1793 C1773 0.930 . S
H1794 C1774 0.929 . S
H1795 C1776 0.930 . S
H1796 C1778 0.932 . S
H1797 C1779 0.929 . S
H1798 C1780 0.928 . S
H1799 C1782 0.932 . S
C1800 C1801 1.264 . S
C1800 C1805 1.479 . S
C1800 C1810 1.465 . S
C1801 C1800 1.264 . S
C1801 C1803 1.339 . S
C1801 H1828 0.931 . S
C1802 C1803 1.395 . S
C1802 C1804 1.320 . S
C1803 C1801 1.339 . S
C1803 C1802 1.395 . S
C1803 H1829 0.929 . S
C1804 C1802 1.320 . S
C1804 C1805 1.405 . S
C1804 H1830 0.930 . S
C1805 C1800 1.479 . S
C1805 C1804 1.405 . S
C1805 H1831 0.931 . S
U1806 O1807 2.454 . S
U1806 O1808 2.458 . S
U1806 C1809 2.984 . S
U1806 C1810 2.847 . S
U1806 C1823 2.882 . S
U1806 O1824 2.441 . S
U1806 O1825 2.420 . S
U1806 O1826 2.455 . S
U1806 O1827 2.449 . S
O1807 U1806 2.454 . S
O1807 C1809 1.353 . S
O1808 U1806 2.458 . S
O1808 C1809 1.286 . S
C1809 U1806 2.984 . S
C1809 O1807 1.353 . S
C1809 O1808 1.286 . S
C1809 C1811 1.363 . S
C1810 C1800 1.465 . S
C1810 U1806 2.847 . S
C1810 O1824 1.249 . S
C1810 O1825 1.202 . S
C1811 C1809 1.363 . S
C1811 C1813 1.408 . S
C1811 C1816 1.342 . S
C1812 C1813 1.310 . S
C1812 C1815 1.461 . S
C1812 H1832 0.932 . S
C1813 C1811 1.408 . S
C1813 C1812 1.310 . S
C1813 H1833 0.930 . S
C1814 C1815 1.474 . S
C1814 C1816 1.285 . S
C1814 H1834 0.929 . S
C1815 C1812 1.461 . S
C1815 C1814 1.474 . S
C1816 C1811 1.342 . S
C1816 C1814 1.285 . S
C1816 H1835 0.930 . S
C1817 C1820 1.424 . S
C1817 C1822 1.245 . S
C1817 C1823 1.428 . S
C1818 C1821 1.260 . S
C1818 C1822 1.477 . S
C1818 H1836 0.932 . S
C1819 C1820 1.384 . S
C1819 C1821 1.479 . S
C1819 H1837 0.929 . S
C1820 C1817 1.424 . S
C1820 C1819 1.384 . S
C1820 H1838 0.928 . S
C1821 C1818 1.260 . S
C1821 C1819 1.479 . S
C1822 C1817 1.245 . S
C1822 C1818 1.477 . S
C1822 H1839 0.932 . S
C1823 U1806 2.882 . S
C1823 C1817 1.428 . S
C1823 O1826 1.301 . S
C1823 O1827 1.282 . S
O1824 U1806 2.441 . S
O1824 C1810 1.249 . S
O1825 U1806 2.420 . S
O1825 C1810 1.202 . S
O1826 U1806 2.455 . S
O1826 C1823 1.301 . S
O1827 U1806 2.449 . S
O1827 C1823 1.282 . S
H1828 C1801 0.931 . S
H1829 C1803 0.929 . S
H1830 C1804 0.930 . S
H1831 C1805 0.931 . S
H1832 C1812 0.932 . S
H1833 C1813 0.930 . S
H1834 C1814 0.929 . S
H1835 C1816 0.930 . S
H1836 C1818 0.932 . S
H1837 C1819 0.929 . S
H1838 C1820 0.928 . S
H1839 C1822 0.932 . S
C1840 C1841 1.264 . S
C1840 C1845 1.479 . S
C1840 C1850 1.465 . S
C1841 C1840 1.264 . S
C1841 C1843 1.339 . S
C1841 H1868 0.931 . S
C1842 C1843 1.395 . S
C1842 C1844 1.320 . S
C1843 C1841 1.339 . S
C1843 C1842 1.395 . S
C1843 H1869 0.929 . S
C1844 C1842 1.320 . S
C1844 C1845 1.405 . S
C1844 H1870 0.930 . S
C1845 C1840 1.479 . S
C1845 C1844 1.405 . S
C1845 H1871 0.931 . S
U1846 O1847 2.454 . S
U1846 O1848 2.458 . S
U1846 C1849 2.984 . S
U1846 C1850 2.847 . S
U1846 C1863 2.882 . S
U1846 O1864 2.441 . S
U1846 O1865 2.420 . S
U1846 O1866 2.455 . S
U1846 O1867 2.449 . S
O1847 U1846 2.454 . S
O1847 C1849 1.353 . S
O1848 U1846 2.458 . S
O1848 C1849 1.286 . S
C1849 U1846 2.984 . S
C1849 O1847 1.353 . S
C1849 O1848 1.286 . S
C1849 C1851 1.363 . S
C1850 C1840 1.465 . S
C1850 U1846 2.847 . S
C1850 O1864 1.249 . S
C1850 O1865 1.202 . S
C1851 C1849 1.363 . S
C1851 C1853 1.408 . S
C1851 C1856 1.342 . S
C1852 C1853 1.310 . S
C1852 C1855 1.461 . S
C1852 H1872 0.932 . S
C1853 C1851 1.408 . S
C1853 C1852 1.310 . S
C1853 H1873 0.930 . S
C1854 C1855 1.474 . S
C1854 C1856 1.285 . S
C1854 H1874 0.929 . S
C1855 C1852 1.461 . S
C1855 C1854 1.474 . S
C1856 C1851 1.342 . S
C1856 C1854 1.285 . S
C1856 H1875 0.930 . S
C1857 C1860 1.424 . S
C1857 C1862 1.245 . S
C1857 C1863 1.428 . S
C1858 C1861 1.260 . S
C1858 C1862 1.477 . S
C1858 H1876 0.932 . S
C1859 C1860 1.384 . S
C1859 C1861 1.479 . S
C1859 H1877 0.929 . S
C1860 C1857 1.424 . S
C1860 C1859 1.384 . S
C1860 H1878 0.928 . S
C1861 C1858 1.260 . S
C1861 C1859 1.479 . S
C1862 C1857 1.245 . S
C1862 C1858 1.477 . S
C1862 H1879 0.932 . S
C1863 U1846 2.882 . S
C1863 C1857 1.428 . S
C1863 O1866 1.301 . S
C1863 O1867 1.282 . S
O1864 U1846 2.441 . S
O1864 C1850 1.249 . S
O1865 U1846 2.420 . S
O1865 C1850 1.202 . S
O1866 U1846 2.455 . S
O1866 C1863 1.301 . S
O1867 U1846 2.449 . S
O1867 C1863 1.282 . S
H1868 C1841 0.931 . S
H1869 C1843 0.929 . S
H1870 C1844 0.930 . S
H1871 C1845 0.931 . S
H1872 C1852 0.932 . S
H1873 C1853 0.930 . S
H1874 C1854 0.929 . S
H1875 C1856 0.930 . S
H1876 C1858 0.932 . S
H1877 C1859 0.929 . S
H1878 C1860 0.928 . S
H1879 C1862 0.932 . S
C1880 C1881 1.264 . S
C1880 C1885 1.479 . S
C1880 C1890 1.465 . S
C1881 C1880 1.264 . S
C1881 C1883 1.339 . S
C1881 H1908 0.931 . S
C1882 C1883 1.395 . S
C1882 C1884 1.320 . S
C1883 C1881 1.339 . S
C1883 C1882 1.395 . S
C1883 H1909 0.929 . S
C1884 C1882 1.320 . S
C1884 C1885 1.405 . S
C1884 H1910 0.930 . S
C1885 C1880 1.479 . S
C1885 C1884 1.405 . S
C1885 H1911 0.931 . S
U1886 O1887 2.454 . S
U1886 O1888 2.458 . S
U1886 C1889 2.984 . S
U1886 C1890 2.847 . S
U1886 C1903 2.882 . S
U1886 O1904 2.441 . S
U1886 O1905 2.420 . S
U1886 O1906 2.455 . S
U1886 O1907 2.449 . S
O1887 U1886 2.454 . S
O1887 C1889 1.353 . S
O1888 U1886 2.458 . S
O1888 C1889 1.286 . S
C1889 U1886 2.984 . S
C1889 O1887 1.353 . S
C1889 O1888 1.286 . S
C1889 C1891 1.363 . S
C1890 C1880 1.465 . S
C1890 U1886 2.847 . S
C1890 O1904 1.249 . S
C1890 O1905 1.202 . S
C1891 C1889 1.363 . S
C1891 C1893 1.408 . S
C1891 C1896 1.342 . S
C1892 C1893 1.310 . S
C1892 C1895 1.461 . S
C1892 H1912 0.932 . S
C1893 C1891 1.408 . S
C1893 C1892 1.310 . S
C1893 H1913 0.930 . S
C1894 C1895 1.474 . S
C1894 C1896 1.285 . S
C1894 H1914 0.929 . S
C1895 C1892 1.461 . S
C1895 C1894 1.474 . S
C1896 C1891 1.342 . S
C1896 C1894 1.285 . S
C1896 H1915 0.930 . S
C1897 C1900 1.424 . S
C1897 C1902 1.245 . S
C1897 C1903 1.428 . S
C1898 C1901 1.260 . S
C1898 C1902 1.477 . S
C1898 H1916 0.932 . S
C1899 C1900 1.384 . S
C1899 C1901 1.479 . S
C1899 H1917 0.929 . S
C1900 C1897 1.424 . S
C1900 C1899 1.384 . S
C1900 H1918 0.928 . S
C1901 C1898 1.260 . S
C1901 C1899 1.479 . S
C1902 C1897 1.245 . S
C1902 C1898 1.477 . S
C1902 H1919 0.932 . S
C1903 U1886 2.882 . S
C1903 C1897 1.428 . S
C1903 O1906 1.301 . S
C1903 O1907 1.282 . S
O1904 U1886 2.441 . S
O1904 C1890 1.249 . S
O1905 U1886 2.420 . S
O1905 C1890 1.202 . S
O1906 U1886 2.455 . S
O1906 C1903 1.301 . S
O1907 U1886 2.449 . S
O1907 C1903 1.282 . S
H1908 C1881 0.931 . S
H1909 C1883 0.929 . S
H1910 C1884 0.930 . S
H1911 C1885 0.931 . S
H1912 C1892 0.932 . S
H1913 C1893 0.930 . S
H1914 C1894 0.929 . S
H1915 C1896 0.930 . S
H1916 C1898 0.932 . S
H1917 C1899 0.929 . S
H1918 C1900 0.928 . S
H1919 C1902 0.932 . S
C1920 C1921 1.264 . S
C1920 C1925 1.479 . S
C1920 C1930 1.465 . S
C1921 C1920 1.264 . S
C1921 C1923 1.339 . S
C1921 H1948 0.931 . S
C1922 C1923 1.395 . S
C1922 C1924 1.320 . S
C1923 C1921 1.339 . S
C1923 C1922 1.395 . S
C1923 H1949 0.929 . S
C1924 C1922 1.320 . S
C1924 C1925 1.405 . S
C1924 H1950 0.930 . S
C1925 C1920 1.479 . S
C1925 C1924 1.405 . S
C1925 H1951 0.931 . S
U1926 O1927 2.454 . S
U1926 O1928 2.458 . S
U1926 C1929 2.984 . S
U1926 C1930 2.847 . S
U1926 C1943 2.882 . S
U1926 O1944 2.441 . S
U1926 O1945 2.420 . S
U1926 O1946 2.455 . S
U1926 O1947 2.449 . S
O1927 U1926 2.454 . S
O1927 C1929 1.353 . S
O1928 U1926 2.458 . S
O1928 C1929 1.286 . S
C1929 U1926 2.984 . S
C1929 O1927 1.353 . S
C1929 O1928 1.286 . S
C1929 C1931 1.363 . S
C1930 C1920 1.465 . S
C1930 U1926 2.847 . S
C1930 O1944 1.249 . S
C1930 O1945 1.202 . S
C1931 C1929 1.363 . S
C1931 C1933 1.408 . S
C1931 C1936 1.342 . S
C1932 C1933 1.310 . S
C1932 C1935 1.461 . S
C1932 H1952 0.932 . S
C1933 C1931 1.408 . S
C1933 C1932 1.310 . S
C1933 H1953 0.930 . S
C1934 C1935 1.474 . S
C1934 C1936 1.285 . S
C1934 H1954 0.929 . S
C1935 C1932 1.461 . S
C1935 C1934 1.474 . S
C1936 C1931 1.342 . S
C1936 C1934 1.285 . S
C1936 H1955 0.930 . S
C1937 C1940 1.424 . S
C1937 C1942 1.245 . S
C1937 C1943 1.428 . S
C1938 C1941 1.260 . S
C1938 C1942 1.477 . S
C1938 H1956 0.932 . S
C1939 C1940 1.384 . S
C1939 C1941 1.479 . S
C1939 H1957 0.929 . S
C1940 C1937 1.424 . S
C1940 C1939 1.384 . S
C1940 H1958 0.928 . S
C1941 C1938 1.260 . S
C1941 C1939 1.479 . S
C1942 C1937 1.245 . S
C1942 C1938 1.477 . S
C1942 H1959 0.932 . S
C1943 U1926 2.882 . S
C1943 C1937 1.428 . S
C1943 O1946 1.301 . S
C1943 O1947 1.282 . S
O1944 U1926 2.441 . S
O1944 C1930 1.249 . S
O1945 U1926 2.420 . S
O1945 C1930 1.202 . S
O1946 U1926 2.455 . S
O1946 C1943 1.301 . S
O1947 U1926 2.449 . S
O1947 C1943 1.282 . S
H1948 C1921 0.931 . S
H1949 C1923 0.929 . S
H1950 C1924 0.930 . S
H1951 C1925 0.931 . S
H1952 C1932 0.932 . S
H1953 C1933 0.930 . S
H1954 C1934 0.929 . S
H1955 C1936 0.930 . S
H1956 C1938 0.932 . S
H1957 C1939 0.929 . S
H1958 C1940 0.928 . S
H1959 C1942 0.932 . S
C1960 C1961 1.264 . S
C1960 C1965 1.479 . S
C1960 C1970 1.465 . S
C1961 C1960 1.264 . S
C1961 C1963 1.339 . S
C1961 H1988 0.931 . S
C1962 C1963 1.395 . S
C1962 C1964 1.320 . S
C1963 C1961 1.339 . S
C1963 C1962 1.395 . S
C1963 H1989 0.929 . S
C1964 C1962 1.320 . S
C1964 C1965 1.405 . S
C1964 H1990 0.930 . S
C1965 C1960 1.479 . S
C1965 C1964 1.405 . S
C1965 H1991 0.931 . S
U1966 O1967 2.454 . S
U1966 O1968 2.458 . S
U1966 C1969 2.984 . S
U1966 C1970 2.847 . S
U1966 C1983 2.882 . S
U1966 O1984 2.441 . S
U1966 O1985 2.420 . S
U1966 O1986 2.455 . S
U1966 O1987 2.449 . S
O1967 U1966 2.454 . S
O1967 C1969 1.353 . S
O1968 U1966 2.458 . S
O1968 C1969 1.286 . S
C1969 U1966 2.984 . S
C1969 O1967 1.353 . S
C1969 O1968 1.286 . S
C1969 C1971 1.363 . S
C1970 C1960 1.465 . S
C1970 U1966 2.847 . S
C1970 O1984 1.249 . S
C1970 O1985 1.202 . S
C1971 C1969 1.363 . S
C1971 C1973 1.408 . S
C1971 C1976 1.342 . S
C1972 C1973 1.310 . S
C1972 C1975 1.461 . S
C1972 H1992 0.932 . S
C1973 C1971 1.408 . S
C1973 C1972 1.310 . S
C1973 H1993 0.930 . S
C1974 C1975 1.474 . S
C1974 C1976 1.285 . S
C1974 H1994 0.929 . S
C1975 C1972 1.461 . S
C1975 C1974 1.474 . S
C1976 C1971 1.342 . S
C1976 C1974 1.285 . S
C1976 H1995 0.930 . S
C1977 C1980 1.424 . S
C1977 C1982 1.245 . S
C1977 C1983 1.428 . S
C1978 C1981 1.260 . S
C1978 C1982 1.477 . S
C1978 H1996 0.932 . S
C1979 C1980 1.384 . S
C1979 C1981 1.479 . S
C1979 H1997 0.929 . S
C1980 C1977 1.424 . S
C1980 C1979 1.384 . S
C1980 H1998 0.928 . S
C1981 C1978 1.260 . S
C1981 C1979 1.479 . S
C1982 C1977 1.245 . S
C1982 C1978 1.477 . S
C1982 H1999 0.932 . S
C1983 U1966 2.882 . S
C1983 C1977 1.428 . S
C1983 O1986 1.301 . S
C1983 O1987 1.282 . S
O1984 U1966 2.441 . S
O1984 C1970 1.249 . S
O1985 U1966 2.420 . S
O1985 C1970 1.202 . S
O1986 U1966 2.455 . S
O1986 C1983 1.301 . S
O1987 U1966 2.449 . S
O1987 C1983 1.282 . S
H1988 C1961 0.931 . S
H1989 C1963 0.929 . S
H1990 C1964 0.930 . S
H1991 C1965 0.931 . S
H1992 C1972 0.932 . S
H1993 C1973 0.930 . S
H1994 C1974 0.929 . S
H1995 C1976 0.930 . S
H1996 C1978 0.932 . S
H1997 C1979 0.929 . S
H1998 C1980 0.928 . S
H1999 C1982 0.932 . S
C2000 C2001 1.264 . S
C2000 C2005 1.479 . S
C2000 C2010 1.465 . S
C2001 C2000 1.264 . S
C2001 C2003 1.339 . S
C2001 H2028 0.931 . S
C2002 C2003 1.395 . S
C2002 C2004 1.320 . S
C2003 C2001 1.339 . S
C2003 C2002 1.395 . S
C2003 H2029 0.929 . S
C2004 C2002 1.320 . S
C2004 C2005 1.405 . S
C2004 H2030 0.930 . S
C2005 C2000 1.479 . S
C2005 C2004 1.405 . S
C2005 H2031 0.931 . S
U2006 O2007 2.454 . S
U2006 O2008 2.458 . S
U2006 C2009 2.984 . S
U2006 C2010 2.847 . S
U2006 C2023 2.882 . S
U2006 O2024 2.441 . S
U2006 O2025 2.420 . S
U2006 O2026 2.455 . S
U2006 O2027 2.449 . S
O2007 U2006 2.454 . S
O2007 C2009 1.353 . S
O2008 U2006 2.458 . S
O2008 C2009 1.286 . S
C2009 U2006 2.984 . S
C2009 O2007 1.353 . S
C2009 O2008 1.286 . S
C2009 C2011 1.363 . S
C2010 C2000 1.465 . S
C2010 U2006 2.847 . S
C2010 O2024 1.249 . S
C2010 O2025 1.202 . S
C2011 C2009 1.363 . S
C2011 C2013 1.408 . S
C2011 C2016 1.342 . S
C2012 C2013 1.310 . S
C2012 C2015 1.461 . S
C2012 H2032 0.932 . S
C2013 C2011 1.408 . S
C2013 C2012 1.310 . S
C2013 H2033 0.930 . S
C2014 C2015 1.474 . S
C2014 C2016 1.285 . S
C2014 H2034 0.929 . S
C2015 C2012 1.461 . S
C2015 C2014 1.474 . S
C2016 C2011 1.342 . S
C2016 C2014 1.285 . S
C2016 H2035 0.930 . S
C2017 C2020 1.424 . S
C2017 C2022 1.245 . S
C2017 C2023 1.428 . S
C2018 C2021 1.260 . S
C2018 C2022 1.477 . S
C2018 H2036 0.932 . S
C2019 C2020 1.384 . S
C2019 C2021 1.479 . S
C2019 H2037 0.929 . S
C2020 C2017 1.424 . S
C2020 C2019 1.384 . S
C2020 H2038 0.928 . S
C2021 C2018 1.260 . S
C2021 C2019 1.479 . S
C2022 C2017 1.245 . S
C2022 C2018 1.477 . S
C2022 H2039 0.932 . S
C2023 U2006 2.882 . S
C2023 C2017 1.428 . S
C2023 O2026 1.301 . S
C2023 O2027 1.282 . S
O2024 U2006 2.441 . S
O2024 C2010 1.249 . S
O2025 U2006 2.420 . S
O2025 C2010 1.202 . S
O2026 U2006 2.455 . S
O2026 C2023 1.301 . S
O2027 U2006 2.449 . S
O2027 C2023 1.282 . S
H2028 C2001 0.931 . S
H2029 C2003 0.929 . S
H2030 C2004 0.930 . S
H2031 C2005 0.931 . S
H2032 C2012 0.932 . S
H2033 C2013 0.930 . S
H2034 C2014 0.929 . S
H2035 C2016 0.930 . S
H2036 C2018 0.932 . S
H2037 C2019 0.929 . S
H2038 C2020 0.928 . S
H2039 C2022 0.932 . S
C2040 C2041 1.264 . S
C2040 C2045 1.479 . S
C2040 C2050 1.465 . S
C2041 C2040 1.264 . S
C2041 C2043 1.339 . S
C2041 H2068 0.931 . S
C2042 C2043 1.395 . S
C2042 C2044 1.320 . S
C2043 C2041 1.339 . S
C2043 C2042 1.395 . S
C2043 H2069 0.929 . S
C2044 C2042 1.320 . S
C2044 C2045 1.405 . S
C2044 H2070 0.930 . S
C2045 C2040 1.479 . S
C2045 C2044 1.405 . S
C2045 H2071 0.931 . S
U2046 O2047 2.454 . S
U2046 O2048 2.458 . S
U2046 C2049 2.984 . S
U2046 C2050 2.847 . S
U2046 C2063 2.882 . S
U2046 O2064 2.441 . S
U2046 O2065 2.420 . S
U2046 O2066 2.455 . S
U2046 O2067 2.449 . S
O2047 U2046 2.454 . S
O2047 C2049 1.353 . S
O2048 U2046 2.458 . S
O2048 C2049 1.286 . S
C2049 U2046 2.984 . S
C2049 O2047 1.353 . S
C2049 O2048 1.286 . S
C2049 C2051 1.363 . S
C2050 C2040 1.465 . S
C2050 U2046 2.847 . S
C2050 O2064 1.249 . S
C2050 O2065 1.202 . S
C2051 C2049 1.363 . S
C2051 C2053 1.408 . S
C2051 C2056 1.342 . S
C2052 C2053 1.310 . S
C2052 C2055 1.461 . S
C2052 H2072 0.932 . S
C2053 C2051 1.408 . S
C2053 C2052 1.310 . S
C2053 H2073 0.930 . S
C2054 C2055 1.474 . S
C2054 C2056 1.285 . S
C2054 H2074 0.929 . S
C2055 C2052 1.461 . S
C2055 C2054 1.474 . S
C2056 C2051 1.342 . S
C2056 C2054 1.285 . S
C2056 H2075 0.930 . S
C2057 C2060 1.424 . S
C2057 C2062 1.245 . S
C2057 C2063 1.428 . S
C2058 C2061 1.260 . S
C2058 C2062 1.477 . S
C2058 H2076 0.932 . S
C2059 C2060 1.384 . S
C2059 C2061 1.479 . S
C2059 H2077 0.929 . S
C2060 C2057 1.424 . S
C2060 C2059 1.384 . S
C2060 H2078 0.928 . S
C2061 C2058 1.260 . S
C2061 C2059 1.479 . S
C2062 C2057 1.245 . S
C2062 C2058 1.477 . S
C2062 H2079 0.932 . S
C2063 U2046 2.882 . S
C2063 C2057 1.428 . S
C2063 O2066 1.301 . S
C2063 O2067 1.282 . S
O2064 U2046 2.441 . S
O2064 C2050 1.249 . S
O2065 U2046 2.420 . S
O2065 C2050 1.202 . S
O2066 U2046 2.455 . S
O2066 C2063 1.301 . S
O2067 U2046 2.449 . S
O2067 C2063 1.282 . S
H2068 C2041 0.931 . S
H2069 C2043 0.929 . S
H2070 C2044 0.930 . S
H2071 C2045 0.931 . S
H2072 C2052 0.932 . S
H2073 C2053 0.930 . S
H2074 C2054 0.929 . S
H2075 C2056 0.930 . S
H2076 C2058 0.932 . S
H2077 C2059 0.929 . S
H2078 C2060 0.928 . S
H2079 C2062 0.932 . S
C2080 C2081 1.264 . S
C2080 C2085 1.479 . S
C2080 C2090 1.465 . S
C2081 C2080 1.264 . S
C2081 C2083 1.339 . S
C2081 H2108 0.931 . S
C2082 C2083 1.395 . S
C2082 C2084 1.320 . S
C2083 C2081 1.339 . S
C2083 C2082 1.395 . S
C2083 H2109 0.929 . S
C2084 C2082 1.320 . S
C2084 C2085 1.405 . S
C2084 H2110 0.930 . S
C2085 C2080 1.479 . S
C2085 C2084 1.405 . S
C2085 H2111 0.931 . S
U2086 O2087 2.454 . S
U2086 O2088 2.458 . S
U2086 C2089 2.984 . S
U2086 C2090 2.847 . S
U2086 C2103 2.882 . S
U2086 O2104 2.441 . S
U2086 O2105 2.420 . S
U2086 O2106 2.455 . S
U2086 O2107 2.449 . S
O2087 U2086 2.454 . S
O2087 C2089 1.353 . S
O2088 U2086 2.458 . S
O2088 C2089 1.286 . S
C2089 U2086 2.984 . S
C2089 O2087 1.353 . S
C2089 O2088 1.286 . S
C2089 C2091 1.363 . S
C2090 C2080 1.465 . S
C2090 U2086 2.847 . S
C2090 O2104 1.249 . S
C2090 O2105 1.202 . S
C2091 C2089 1.363 . S
C2091 C2093 1.408 . S
C2091 C2096 1.342 . S
C2092 C2093 1.310 . S
C2092 C2095 1.461 . S
C2092 H2112 0.932 . S
C2093 C2091 1.408 . S
C2093 C2092 1.310 . S
C2093 H2113 0.930 . S
C2094 C2095 1.474 . S
C2094 C2096 1.285 . S
C2094 H2114 0.929 . S
C2095 C2092 1.461 . S
C2095 C2094 1.474 . S
C2096 C2091 1.342 . S
C2096 C2094 1.285 . S
C2096 H2115 0.930 . S
C2097 C2100 1.424 . S
C2097 C2102 1.245 . S
C2097 C2103 1.428 . S
C2098 C2101 1.260 . S
C2098 C2102 1.477 . S
C2098 H2116 0.932 . S
C2099 C2100 1.384 . S
C2099 C2101 1.479 . S
C2099 H2117 0.929 . S
C2100 C2097 1.424 . S
C2100 C2099 1.384 . S
C2100 H2118 0.928 . S
C2101 C2098 1.260 . S
C2101 C2099 1.479 . S
C2102 C2097 1.245 . S
C2102 C2098 1.477 . S
C2102 H2119 0.932 . S
C2103 U2086 2.882 . S
C2103 C2097 1.428 . S
C2103 O2106 1.301 . S
C2103 O2107 1.282 . S
O2104 U2086 2.441 . S
O2104 C2090 1.249 . S
O2105 U2086 2.420 . S
O2105 C2090 1.202 . S
O2106 U2086 2.455 . S
O2106 C2103 1.301 . S
O2107 U2086 2.449 . S
O2107 C2103 1.282 . S
H2108 C2081 0.931 . S
H2109 C2083 0.929 . S
H2110 C2084 0.930 . S
H2111 C2085 0.931 . S
H2112 C2092 0.932 . S
H2113 C2093 0.930 . S
H2114 C2094 0.929 . S
H2115 C2096 0.930 . S
H2116 C2098 0.932 . S
H2117 C2099 0.929 . S
H2118 C2100 0.928 . S
H2119 C2102 0.932 . S
C2120 C2121 1.264 . S
C2120 C2125 1.479 . S
C2120 C2130 1.465 . S
C2121 C2120 1.264 . S
C2121 C2123 1.339 . S
C2121 H2148 0.931 . S
C2122 C2123 1.395 . S
C2122 C2124 1.320 . S
C2123 C2121 1.339 . S
C2123 C2122 1.395 . S
C2123 H2149 0.929 . S
C2124 C2122 1.320 . S
C2124 C2125 1.405 . S
C2124 H2150 0.930 . S
C2125 C2120 1.479 . S
C2125 C2124 1.405 . S
C2125 H2151 0.931 . S
U2126 O2127 2.454 . S
U2126 O2128 2.458 . S
U2126 C2129 2.984 . S
U2126 C2130 2.847 . S
U2126 C2143 2.882 . S
U2126 O2144 2.441 . S
U2126 O2145 2.420 . S
U2126 O2146 2.455 . S
U2126 O2147 2.449 . S
O2127 U2126 2.454 . S
O2127 C2129 1.353 . S
O2128 U2126 2.458 . S
O2128 C2129 1.286 . S
C2129 U2126 2.984 . S
C2129 O2127 1.353 . S
C2129 O2128 1.286 . S
C2129 C2131 1.363 . S
C2130 C2120 1.465 . S
C2130 U2126 2.847 . S
C2130 O2144 1.249 . S
C2130 O2145 1.202 . S
C2131 C2129 1.363 . S
C2131 C2133 1.408 . S
C2131 C2136 1.342 . S
C2132 C2133 1.310 . S
C2132 C2135 1.461 . S
C2132 H2152 0.932 . S
C2133 C2131 1.408 . S
C2133 C2132 1.310 . S
C2133 H2153 0.930 . S
C2134 C2135 1.474 . S
C2134 C2136 1.285 . S
C2134 H2154 0.929 . S
C2135 C2132 1.461 . S
C2135 C2134 1.474 . S
C2136 C2131 1.342 . S
C2136 C2134 1.285 . S
C2136 H2155 0.930 . S
C2137 C2140 1.424 . S
C2137 C2142 1.245 . S
C2137 C2143 1.428 . S
C2138 C2141 1.260 . S
C2138 C2142 1.477 . S
C2138 H2156 0.932 . S
C2139 C2140 1.384 . S
C2139 C2141 1.479 . S
C2139 H2157 0.929 . S
C2140 C2137 1.424 . S
C2140 C2139 1.384 . S
C2140 H2158 0.928 . S
C2141 C2138 1.260 . S
C2141 C2139 1.479 . S
C2142 C2137 1.245 . S
C2142 C2138 1.477 . S
C2142 H2159 0.932 . S
C2143 U2126 2.882 . S
C2143 C2137 1.428 . S
C2143 O2146 1.301 . S
C2143 O2147 1.282 . S
O2144 U2126 2.441 . S
O2144 C2130 1.249 . S
O2145 U2126 2.420 . S
O2145 C2130 1.202 . S
O2146 U2126 2.455 . S
O2146 C2143 1.301 . S
O2147 U2126 2.449 . S
O2147 C2143 1.282 . S
H2148 C2121 0.931 . S
H2149 C2123 0.929 . S
H2150 C2124 0.930 . S
H2151 C2125 0.931 . S
H2152 C2132 0.932 . S
H2153 C2133 0.930 . S
H2154 C2134 0.929 . S
H2155 C2136 0.930 . S
H2156 C2138 0.932 . S
H2157 C2139 0.929 . S
H2158 C2140 0.928 . S
H2159 C2142 0.932 . S
C2160 C2161 1.264 . S
C2160 C2165 1.479 . S
C2160 C2170 1.465 . S
C2161 C2160 1.264 . S
C2161 C2163 1.339 . S
C2161 H2188 0.931 . S
C2162 C2163 1.395 . S
C2162 C2164 1.320 . S
C2163 C2161 1.339 . S
C2163 C2162 1.395 . S
C2163 H2189 0.929 . S
C2164 C2162 1.320 . S
C2164 C2165 1.405 . S
C2164 H2190 0.930 . S
C2165 C2160 1.479 . S
C2165 C2164 1.405 . S
C2165 H2191 0.931 . S
U2166 O2167 2.454 . S
U2166 O2168 2.458 . S
U2166 C2169 2.984 . S
U2166 C2170 2.847 . S
U2166 C2183 2.882 . S
U2166 O2184 2.441 . S
U2166 O2185 2.420 . S
U2166 O2186 2.455 . S
U2166 O2187 2.449 . S
O2167 U2166 2.454 . S
O2167 C2169 1.353 . S
O2168 U2166 2.458 . S
O2168 C2169 1.286 . S
C2169 U2166 2.984 . S
C2169 O2167 1.353 . S
C2169 O2168 1.286 . S
C2169 C2171 1.363 . S
C2170 C2160 1.465 . S
C2170 U2166 2.847 . S
C2170 O2184 1.249 . S
C2170 O2185 1.202 . S
C2171 C2169 1.363 . S
C2171 C2173 1.408 . S
C2171 C2176 1.342 . S
C2172 C2173 1.310 . S
C2172 C2175 1.461 . S
C2172 H2192 0.932 . S
C2173 C2171 1.408 . S
C2173 C2172 1.310 . S
C2173 H2193 0.930 . S
C2174 C2175 1.474 . S
C2174 C2176 1.285 . S
C2174 H2194 0.929 . S
C2175 C2172 1.461 . S
C2175 C2174 1.474 . S
C2176 C2171 1.342 . S
C2176 C2174 1.285 . S
C2176 H2195 0.930 . S
C2177 C2180 1.424 . S
C2177 C2182 1.245 . S
C2177 C2183 1.428 . S
C2178 C2181 1.260 . S
C2178 C2182 1.477 . S
C2178 H2196 0.932 . S
C2179 C2180 1.384 . S
C2179 C2181 1.479 . S
C2179 H2197 0.929 . S
C2180 C2177 1.424 . S
C2180 C2179 1.384 . S
C2180 H2198 0.928 . S
C2181 C2178 1.260 . S
C2181 C2179 1.479 . S
C2182 C2177 1.245 . S
C2182 C2178 1.477 . S
C2182 H2199 0.932 . S
C2183 U2166 2.882 . S
C2183 C2177 1.428 . S
C2183 O2186 1.301 . S
C2183 O2187 1.282 . S
O2184 U2166 2.441 . S
O2184 C2170 1.249 . S
O2185 U2166 2.420 . S
O2185 C2170 1.202 . S
O2186 U2166 2.455 . S
O2186 C2183 1.301 . S
O2187 U2166 2.449 . S
O2187 C2183 1.282 . S
H2188 C2161 0.931 . S
H2189 C2163 0.929 . S
H2190 C2164 0.930 . S
H2191 C2165 0.931 . S
H2192 C2172 0.932 . S
H2193 C2173 0.930 . S
H2194 C2174 0.929 . S
H2195 C2176 0.930 . S
H2196 C2178 0.932 . S
H2197 C2179 0.929 . S
H2198 C2180 0.928 . S
H2199 C2182 0.932 . S
C2200 C2201 1.264 . S
C2200 C2205 1.479 . S
C2200 C2210 1.465 . S
C2201 C2200 1.264 . S
C2201 C2203 1.339 . S
C2201 H2228 0.931 . S
C2202 C2203 1.395 . S
C2202 C2204 1.320 . S
C2203 C2201 1.339 . S
C2203 C2202 1.395 . S
C2203 H2229 0.929 . S
C2204 C2202 1.320 . S
C2204 C2205 1.405 . S
C2204 H2230 0.930 . S
C2205 C2200 1.479 . S
C2205 C2204 1.405 . S
C2205 H2231 0.931 . S
U2206 O2207 2.454 . S
U2206 O2208 2.458 . S
U2206 C2209 2.984 . S
U2206 C2210 2.847 . S
U2206 C2223 2.882 . S
U2206 O2224 2.441 . S
U2206 O2225 2.420 . S
U2206 O2226 2.455 . S
U2206 O2227 2.449 . S
O2207 U2206 2.454 . S
O2207 C2209 1.353 . S
O2208 U2206 2.458 . S
O2208 C2209 1.286 . S
C2209 U2206 2.984 . S
C2209 O2207 1.353 . S
C2209 O2208 1.286 . S
C2209 C2211 1.363 . S
C2210 C2200 1.465 . S
C2210 U2206 2.847 . S
C2210 O2224 1.249 . S
C2210 O2225 1.202 . S
C2211 C2209 1.363 . S
C2211 C2213 1.408 . S
C2211 C2216 1.342 . S
C2212 C2213 1.310 . S
C2212 C2215 1.461 . S
C2212 H2232 0.932 . S
C2213 C2211 1.408 . S
C2213 C2212 1.310 . S
C2213 H2233 0.930 . S
C2214 C2215 1.474 . S
C2214 C2216 1.285 . S
C2214 H2234 0.929 . S
C2215 C2212 1.461 . S
C2215 C2214 1.474 . S
C2216 C2211 1.342 . S
C2216 C2214 1.285 . S
C2216 H2235 0.930 . S
C2217 C2220 1.424 . S
C2217 C2222 1.245 . S
C2217 C2223 1.428 . S
C2218 C2221 1.260 . S
C2218 C2222 1.477 . S
C2218 H2236 0.932 . S
C2219 C2220 1.384 . S
C2219 C2221 1.479 . S
C2219 H2237 0.929 . S
C2220 C2217 1.424 . S
C2220 C2219 1.384 . S
C2220 H2238 0.928 . S
C2221 C2218 1.260 . S
C2221 C2219 1.479 . S
C2222 C2217 1.245 . S
C2222 C2218 1.477 . S
C2222 H2239 0.932 . S
C2223 U2206 2.882 . S
C2223 C2217 1.428 . S
C2223 O2226 1.301 . S
C2223 O2227 1.282 . S
O2224 U2206 2.441 . S
O2224 C2210 1.249 . S
O2225 U2206 2.420 . S
O2225 C2210 1.202 . S
O2226 U2206 2.455 . S
O2226 C2223 1.301 . S
O2227 U2206 2.449 . S
O2227 C2223 1.282 . S
H2228 C2201 0.931 . S
H2229 C2203 0.929 . S
H2230 C2204 0.930 . S
H2231 C2205 0.931 . S
H2232 C2212 0.932 . S
H2233 C2213 0.930 . S
H2234 C2214 0.929 . S
H2235 C2216 0.930 . S
H2236 C2218 0.932 . S
H2237 C2219 0.929 . S
H2238 C2220 0.928 . S
H2239 C2222 0.932 . S
C2240 C2241 1.264 . S
C2240 C2245 1.479 . S
C2240 C2250 1.465 . S
C2241 C2240 1.264 . S
C2241 C2243 1.339 . S
C2241 H2268 0.931 . S
C2242 C2243 1.395 . S
C2242 C2244 1.320 . S
C2243 C2241 1.339 . S
C2243 C2242 1.395 . S
C2243 H2269 0.929 . S
C2244 C2242 1.320 . S
C2244 C2245 1.405 . S
C2244 H2270 0.930 . S
C2245 C2240 1.479 . S
C2245 C2244 1.405 . S
C2245 H2271 0.931 . S
U2246 O2247 2.454 . S
U2246 O2248 2.458 . S
U2246 C2249 2.984 . S
U2246 C2250 2.847 . S
U2246 C2263 2.882 . S
U2246 O2264 2.441 . S
U2246 O2265 2.420 . S
U2246 O2266 2.455 . S
U2246 O2267 2.449 . S
O2247 U2246 2.454 . S
O2247 C2249 1.353 . S
O2248 U2246 2.458 . S
O2248 C2249 1.286 . S
C2249 U2246 2.984 . S
C2249 O2247 1.353 . S
C2249 O2248 1.286 . S
C2249 C2251 1.363 . S
C2250 C2240 1.465 . S
C2250 U2246 2.847 . S
C2250 O2264 1.249 . S
C2250 O2265 1.202 . S
C2251 C2249 1.363 . S
C2251 C2253 1.408 . S
C2251 C2256 1.342 . S
C2252 C2253 1.310 . S
C2252 C2255 1.461 . S
C2252 H2272 0.932 . S
C2253 C2251 1.408 . S
C2253 C2252 1.310 . S
C2253 H2273 0.930 . S
C2254 C2255 1.474 . S
C2254 C2256 1.285 . S
C2254 H2274 0.929 . S
C2255 C2252 1.461 . S
C2255 C2254 1.474 . S
C2256 C2251 1.342 . S
C2256 C2254 1.285 . S
C2256 H2275 0.930 . S
C2257 C2260 1.424 . S
C2257 C2262 1.245 . S
C2257 C2263 1.428 . S
C2258 C2261 1.260 . S
C2258 C2262 1.477 . S
C2258 H2276 0.932 . S
C2259 C2260 1.384 . S
C2259 C2261 1.479 . S
C2259 H2277 0.929 . S
C2260 C2257 1.424 . S
C2260 C2259 1.384 . S
C2260 H2278 0.928 . S
C2261 C2258 1.260 . S
C2261 C2259 1.479 . S
C2262 C2257 1.245 . S
C2262 C2258 1.477 . S
C2262 H2279 0.932 . S
C2263 U2246 2.882 . S
C2263 C2257 1.428 . S
C2263 O2266 1.301 . S
C2263 O2267 1.282 . S
O2264 U2246 2.441 . S
O2264 C2250 1.249 . S
O2265 U2246 2.420 . S
O2265 C2250 1.202 . S
O2266 U2246 2.455 . S
O2266 C2263 1.301 . S
O2267 U2246 2.449 . S
O2267 C2263 1.282 . S
H2268 C2241 0.931 . S
H2269 C2243 0.929 . S
H2270 C2244 0.930 . S
H2271 C2245 0.931 . S
H2272 C2252 0.932 . S
H2273 C2253 0.930 . S
H2274 C2254 0.929 . S
H2275 C2256 0.930 . S
H2276 C2258 0.932 . S
H2277 C2259 0.929 . S
H2278 C2260 0.928 . S
H2279 C2262 0.932 . S
C2280 C2281 1.264 . S
C2280 C2285 1.479 . S
C2280 C2290 1.465 . S
C2281 C2280 1.264 . S
C2281 C2283 1.339 . S
C2281 H2308 0.931 . S
C2282 C2283 1.395 . S
C2282 C2284 1.320 . S
C2283 C2281 1.339 . S
C2283 C2282 1.395 . S
C2283 H2309 0.929 . S
C2284 C2282 1.320 . S
C2284 C2285 1.405 . S
C2284 H2310 0.930 . S
C2285 C2280 1.479 . S
C2285 C2284 1.405 . S
C2285 H2311 0.931 . S
U2286 O2287 2.454 . S
U2286 O2288 2.458 . S
U2286 C2289 2.984 . S
U2286 C2290 2.847 . S
U2286 C2303 2.882 . S
U2286 O2304 2.441 . S
U2286 O2305 2.420 . S
U2286 O2306 2.455 . S
U2286 O2307 2.449 . S
O2287 U2286 2.454 . S
O2287 C2289 1.353 . S
O2288 U2286 2.458 . S
O2288 C2289 1.286 . S
C2289 U2286 2.984 . S
C2289 O2287 1.353 . S
C2289 O2288 1.286 . S
C2289 C2291 1.363 . S
C2290 C2280 1.465 . S
C2290 U2286 2.847 . S
C2290 O2304 1.249 . S
C2290 O2305 1.202 . S
C2291 C2289 1.363 . S
C2291 C2293 1.408 . S
C2291 C2296 1.342 . S
C2292 C2293 1.310 . S
C2292 C2295 1.461 . S
C2292 H2312 0.932 . S
C2293 C2291 1.408 . S
C2293 C2292 1.310 . S
C2293 H2313 0.930 . S
C2294 C2295 1.474 . S
C2294 C2296 1.285 . S
C2294 H2314 0.929 . S
C2295 C2292 1.461 . S
C2295 C2294 1.474 . S
C2296 C2291 1.342 . S
C2296 C2294 1.285 . S
C2296 H2315 0.930 . S
C2297 C2300 1.424 . S
C2297 C2302 1.245 . S
C2297 C2303 1.428 . S
C2298 C2301 1.260 . S
C2298 C2302 1.477 . S
C2298 H2316 0.932 . S
C2299 C2300 1.384 . S
C2299 C2301 1.479 . S
C2299 H2317 0.929 . S
C2300 C2297 1.424 . S
C2300 C2299 1.384 . S
C2300 H2318 0.928 . S
C2301 C2298 1.260 . S
C2301 C2299 1.479 . S
C2302 C2297 1.245 . S
C2302 C2298 1.477 . S
C2302 H2319 0.932 . S
C2303 U2286 2.882 . S
C2303 C2297 1.428 . S
C2303 O2306 1.301 . S
C2303 O2307 1.282 . S
O2304 U2286 2.441 . S
O2304 C2290 1.249 . S
O2305 U2286 2.420 . S
O2305 C2290 1.202 . S
O2306 U2286 2.455 . S
O2306 C2303 1.301 . S
O2307 U2286 2.449 . S
O2307 C2303 1.282 . S
H2308 C2281 0.931 . S
H2309 C2283 0.929 . S
H2310 C2284 0.930 . S
H2311 C2285 0.931 . S
H2312 C2292 0.932 . S
H2313 C2293 0.930 . S
H2314 C2294 0.929 . S
H2315 C2296 0.930 . S
H2316 C2298 0.932 . S
H2317 C2299 0.929 . S
H2318 C2300 0.928 . S
H2319 C2302 0.932 . S
C2320 C2321 1.264 . S
C2320 C2325 1.479 . S
C2320 C2330 1.465 . S
C2321 C2320 1.264 . S
C2321 C2323 1.339 . S
C2321 H2348 0.931 . S
C2322 C2323 1.395 . S
C2322 C2324 1.320 . S
C2323 C2321 1.339 . S
C2323 C2322 1.395 . S
C2323 H2349 0.929 . S
C2324 C2322 1.320 . S
C2324 C2325 1.405 . S
C2324 H2350 0.930 . S
C2325 C2320 1.479 . S
C2325 C2324 1.405 . S
C2325 H2351 0.931 . S
U2326 O2327 2.454 . S
U2326 O2328 2.458 . S
U2326 C2329 2.984 . S
U2326 C2330 2.847 . S
U2326 C2343 2.882 . S
U2326 O2344 2.441 . S
U2326 O2345 2.420 . S
U2326 O2346 2.455 . S
U2326 O2347 2.449 . S
O2327 U2326 2.454 . S
O2327 C2329 1.353 . S
O2328 U2326 2.458 . S
O2328 C2329 1.286 . S
C2329 U2326 2.984 . S
C2329 O2327 1.353 . S
C2329 O2328 1.286 . S
C2329 C2331 1.363 . S
C2330 C2320 1.465 . S
C2330 U2326 2.847 . S
C2330 O2344 1.249 . S
C2330 O2345 1.202 . S
C2331 C2329 1.363 . S
C2331 C2333 1.408 . S
C2331 C2336 1.342 . S
C2332 C2333 1.310 . S
C2332 C2335 1.461 . S
C2332 H2352 0.932 . S
C2333 C2331 1.408 . S
C2333 C2332 1.310 . S
C2333 H2353 0.930 . S
C2334 C2335 1.474 . S
C2334 C2336 1.285 . S
C2334 H2354 0.929 . S
C2335 C2332 1.461 . S
C2335 C2334 1.474 . S
C2336 C2331 1.342 . S
C2336 C2334 1.285 . S
C2336 H2355 0.930 . S
C2337 C2340 1.424 . S
C2337 C2342 1.245 . S
C2337 C2343 1.428 . S
C2338 C2341 1.260 . S
C2338 C2342 1.477 . S
C2338 H2356 0.932 . S
C2339 C2340 1.384 . S
C2339 C2341 1.479 . S
C2339 H2357 0.929 . S
C2340 C2337 1.424 . S
C2340 C2339 1.384 . S
C2340 H2358 0.928 . S
C2341 C2338 1.260 . S
C2341 C2339 1.479 . S
C2342 C2337 1.245 . S
C2342 C2338 1.477 . S
C2342 H2359 0.932 . S
C2343 U2326 2.882 . S
C2343 C2337 1.428 . S
C2343 O2346 1.301 . S
C2343 O2347 1.282 . S
O2344 U2326 2.441 . S
O2344 C2330 1.249 . S
O2345 U2326 2.420 . S
O2345 C2330 1.202 . S
O2346 U2326 2.455 . S
O2346 C2343 1.301 . S
O2347 U2326 2.449 . S
O2347 C2343 1.282 . S
H2348 C2321 0.931 . S
H2349 C2323 0.929 . S
H2350 C2324 0.930 . S
H2351 C2325 0.931 . S
H2352 C2332 0.932 . S
H2353 C2333 0.930 . S
H2354 C2334 0.929 . S
H2355 C2336 0.930 . S
H2356 C2338 0.932 . S
H2357 C2339 0.929 . S
H2358 C2340 0.928 . S
H2359 C2342 0.932 . S
C2360 C2361 1.264 . S
C2360 C2365 1.479 . S
C2360 C2370 1.465 . S
C2361 C2360 1.264 . S
C2361 C2363 1.339 . S
C2361 H2388 0.931 . S
C2362 C2363 1.395 . S
C2362 C2364 1.320 . S
C2363 C2361 1.339 . S
C2363 C2362 1.395 . S
C2363 H2389 0.929 . S
C2364 C2362 1.320 . S
C2364 C2365 1.405 . S
C2364 H2390 0.930 . S
C2365 C2360 1.479 . S
C2365 C2364 1.405 . S
C2365 H2391 0.931 . S
U2366 O2367 2.454 . S
U2366 O2368 2.458 . S
U2366 C2369 2.984 . S
U2366 C2370 2.847 . S
U2366 C2383 2.882 . S
U2366 O2384 2.441 . S
U2366 O2385 2.420 . S
U2366 O2386 2.455 . S
U2366 O2387 2.449 . S
O2367 U2366 2.454 . S
O2367 C2369 1.353 . S
O2368 U2366 2.458 . S
O2368 C2369 1.286 . S
C2369 U2366 2.984 . S
C2369 O2367 1.353 . S
C2369 O2368 1.286 . S
C2369 C2371 1.363 . S
C2370 C2360 1.465 . S
C2370 U2366 2.847 . S
C2370 O2384 1.249 . S
C2370 O2385 1.202 . S
C2371 C2369 1.363 . S
C2371 C2373 1.408 . S
C2371 C2376 1.342 . S
C2372 C2373 1.310 . S
C2372 C2375 1.461 . S
C2372 H2392 0.932 . S
C2373 C2371 1.408 . S
C2373 C2372 1.310 . S
C2373 H2393 0.930 . S
C2374 C2375 1.474 . S
C2374 C2376 1.285 . S
C2374 H2394 0.929 . S
C2375 C2372 1.461 . S
C2375 C2374 1.474 . S
C2376 C2371 1.342 . S
C2376 C2374 1.285 . S
C2376 H2395 0.930 . S
C2377 C2380 1.424 . S
C2377 C2382 1.245 . S
C2377 C2383 1.428 . S
C2378 C2381 1.260 . S
C2378 C2382 1.477 . S
C2378 H2396 0.932 . S
C2379 C2380 1.384 . S
C2379 C2381 1.479 . S
C2379 H2397 0.929 . S
C2380 C2377 1.424 . S
C2380 C2379 1.384 . S
C2380 H2398 0.928 . S
C2381 C2378 1.260 . S
C2381 C2379 1.479 . S
C2382 C2377 1.245 . S
C2382 C2378 1.477 . S
C2382 H2399 0.932 . S
C2383 U2366 2.882 . S
C2383 C2377 1.428 . S
C2383 O2386 1.301 . S
C2383 O2387 1.282 . S
O2384 U2366 2.441 . S
O2384 C2370 1.249 . S
O2385 U2366 2.420 . S
O2385 C2370 1.202 . S
O2386 U2366 2.455 . S
O2386 C2383 1.301 . S
O2387 U2366 2.449 . S
O2387 C2383 1.282 . S
H2388 C2361 0.931 . S
H2389 C2363 0.929 . S
H2390 C2364 0.930 . S
H2391 C2365 0.931 . S
H2392 C2372 0.932 . S
H2393 C2373 0.930 . S
H2394 C2374 0.929 . S
H2395 C2376 0.930 . S
H2396 C2378 0.932 . S
H2397 C2379 0.929 . S
H2398 C2380 0.928 . S
H2399 C2382 0.932 . S
C2400 C2401 1.264 . S
C2400 C2405 1.479 . S
C2400 C2410 1.465 . S
C2401 C2400 1.264 . S
C2401 C2403 1.339 . S
C2401 H2428 0.931 . S
C2402 C2403 1.395 . S
C2402 C2404 1.320 . S
C2403 C2401 1.339 . S
C2403 C2402 1.395 . S
C2403 H2429 0.929 . S
C2404 C2402 1.320 . S
C2404 C2405 1.405 . S
C2404 H2430 0.930 . S
C2405 C2400 1.479 . S
C2405 C2404 1.405 . S
C2405 H2431 0.931 . S
U2406 O2407 2.454 . S
U2406 O2408 2.458 . S
U2406 C2409 2.984 . S
U2406 C2410 2.847 . S
U2406 C2423 2.882 . S
U2406 O2424 2.441 . S
U2406 O2425 2.420 . S
U2406 O2426 2.455 . S
U2406 O2427 2.449 . S
O2407 U2406 2.454 . S
O2407 C2409 1.353 . S
O2408 U2406 2.458 . S
O2408 C2409 1.286 . S
C2409 U2406 2.984 . S
C2409 O2407 1.353 . S
C2409 O2408 1.286 . S
C2409 C2411 1.363 . S
C2410 C2400 1.465 . S
C2410 U2406 2.847 . S
C2410 O2424 1.249 . S
C2410 O2425 1.202 . S
C2411 C2409 1.363 . S
C2411 C2413 1.408 . S
C2411 C2416 1.342 . S
C2412 C2413 1.310 . S
C2412 C2415 1.461 . S
C2412 H2432 0.932 . S
C2413 C2411 1.408 . S
C2413 C2412 1.310 . S
C2413 H2433 0.930 . S
C2414 C2415 1.474 . S
C2414 C2416 1.285 . S
C2414 H2434 0.929 . S
C2415 C2412 1.461 . S
C2415 C2414 1.474 . S
C2416 C2411 1.342 . S
C2416 C2414 1.285 . S
C2416 H2435 0.930 . S
C2417 C2420 1.424 . S
C2417 C2422 1.245 . S
C2417 C2423 1.428 . S
C2418 C2421 1.260 . S
C2418 C2422 1.477 . S
C2418 H2436 0.932 . S
C2419 C2420 1.384 . S
C2419 C2421 1.479 . S
C2419 H2437 0.929 . S
C2420 C2417 1.424 . S
C2420 C2419 1.384 . S
C2420 H2438 0.928 . S
C2421 C2418 1.260 . S
C2421 C2419 1.479 . S
C2422 C2417 1.245 . S
C2422 C2418 1.477 . S
C2422 H2439 0.932 . S
C2423 U2406 2.882 . S
C2423 C2417 1.428 . S
C2423 O2426 1.301 . S
C2423 O2427 1.282 . S
O2424 U2406 2.441 . S
O2424 C2410 1.249 . S
O2425 U2406 2.420 . S
O2425 C2410 1.202 . S
O2426 U2406 2.455 . S
O2426 C2423 1.301 . S
O2427 U2406 2.449 . S
O2427 C2423 1.282 . S
H2428 C2401 0.931 . S
H2429 C2403 0.929 . S
H2430 C2404 0.930 . S
H2431 C2405 0.931 . S
H2432 C2412 0.932 . S
H2433 C2413 0.930 . S
H2434 C2414 0.929 . S
H2435 C2416 0.930 . S
H2436 C2418 0.932 . S
H2437 C2419 0.929 . S
H2438 C2420 0.928 . S
H2439 C2422 0.932 . S
C2440 C2441 1.264 . S
C2440 C2445 1.479 . S
C2440 C2450 1.465 . S
C2441 C2440 1.264 . S
C2441 C2443 1.339 . S
C2441 H2468 0.931 . S
C2442 C2443 1.395 . S
C2442 C2444 1.320 . S
C2443 C2441 1.339 . S
C2443 C2442 1.395 . S
C2443 H2469 0.929 . S
C2444 C2442 1.320 . S
C2444 C2445 1.405 . S
C2444 H2470 0.930 . S
C2445 C2440 1.479 . S
C2445 C2444 1.405 . S
C2445 H2471 0.931 . S
U2446 O2447 2.454 . S
U2446 O2448 2.458 . S
U2446 C2449 2.984 . S
U2446 C2450 2.847 . S
U2446 C2463 2.882 . S
U2446 O2464 2.441 . S
U2446 O2465 2.420 . S
U2446 O2466 2.455 . S
U2446 O2467 2.449 . S
O2447 U2446 2.454 . S
O2447 C2449 1.353 . S
O2448 U2446 2.458 . S
O2448 C2449 1.286 . S
C2449 U2446 2.984 . S
C2449 O2447 1.353 . S
C2449 O2448 1.286 . S
C2449 C2451 1.363 . S
C2450 C2440 1.465 . S
C2450 U2446 2.847 . S
C2450 O2464 1.249 . S
C2450 O2465 1.202 . S
C2451 C2449 1.363 . S
C2451 C2453 1.408 . S
C2451 C2456 1.342 . S
C2452 C2453 1.310 . S
C2452 C2455 1.461 . S
C2452 H2472 0.932 . S
C2453 C2451 1.408 . S
C2453 C2452 1.310 . S
C2453 H2473 0.930 . S
C2454 C2455 1.474 . S
C2454 C2456 1.285 . S
C2454 H2474 0.929 . S
C2455 C2452 1.461 . S
C2455 C2454 1.474 . S
C2456 C2451 1.342 . S
C2456 C2454 1.285 . S
C2456 H2475 0.930 . S
C2457 C2460 1.424 . S
C2457 C2462 1.245 . S
C2457 C2463 1.428 . S
C2458 C2461 1.260 . S
C2458 C2462 1.477 . S
C2458 H2476 0.932 . S
C2459 C2460 1.384 . S
C2459 C2461 1.479 . S
C2459 H2477 0.929 . S
C2460 C2457 1.424 . S
C2460 C2459 1.384 . S
C2460 H2478 0.928 . S
C2461 C2458 1.260 . S
C2461 C2459 1.479 . S
C2462 C2457 1.245 . S
C2462 C2458 1.477 . S
C2462 H2479 0.932 . S
C2463 U2446 2.882 . S
C2463 C2457 1.428 . S
C2463 O2466 1.301 . S
C2463 O2467 1.282 . S
O2464 U2446 2.441 . S
O2464 C2450 1.249 . S
O2465 U2446 2.420 . S
O2465 C2450 1.202 . S
O2466 U2446 2.455 . S
O2466 C2463 1.301 . S
O2467 U2446 2.449 . S
O2467 C2463 1.282 . S
H2468 C2441 0.931 . S
H2469 C2443 0.929 . S
H2470 C2444 0.930 . S
H2471 C2445 0.931 . S
H2472 C2452 0.932 . S
H2473 C2453 0.930 . S
H2474 C2454 0.929 . S
H2475 C2456 0.930 . S
H2476 C2458 0.932 . S
H2477 C2459 0.929 . S
H2478 C2460 0.928 . S
H2479 C2462 0.932 . S
C2480 C2481 1.264 . S
C2480 C2485 1.479 . S
C2480 C2490 1.465 . S
C2481 C2480 1.264 . S
C2481 C2483 1.339 . S
C2481 H2508 0.931 . S
C2482 C2483 1.395 . S
C2482 C2484 1.320 . S
C2483 C2481 1.339 . S
C2483 C2482 1.395 . S
C2483 H2509 0.929 . S
C2484 C2482 1.320 . S
C2484 C2485 1.405 . S
C2484 H2510 0.930 . S
C2485 C2480 1.479 . S
C2485 C2484 1.405 . S
C2485 H2511 0.931 . S
U2486 O2487 2.454 . S
U2486 O2488 2.458 . S
U2486 C2489 2.984 . S
U2486 C2490 2.847 . S
U2486 C2503 2.882 . S
U2486 O2504 2.441 . S
U2486 O2505 2.420 . S
U2486 O2506 2.455 . S
U2486 O2507 2.449 . S
O2487 U2486 2.454 . S
O2487 C2489 1.353 . S
O2488 U2486 2.458 . S
O2488 C2489 1.286 . S
C2489 U2486 2.984 . S
C2489 O2487 1.353 . S
C2489 O2488 1.286 . S
C2489 C2491 1.363 . S
C2490 C2480 1.465 . S
C2490 U2486 2.847 . S
C2490 O2504 1.249 . S
C2490 O2505 1.202 . S
C2491 C2489 1.363 . S
C2491 C2493 1.408 . S
C2491 C2496 1.342 . S
C2492 C2493 1.310 . S
C2492 C2495 1.461 . S
C2492 H2512 0.932 . S
C2493 C2491 1.408 . S
C2493 C2492 1.310 . S
C2493 H2513 0.930 . S
C2494 C2495 1.474 . S
C2494 C2496 1.285 . S
C2494 H2514 0.929 . S
C2495 C2492 1.461 . S
C2495 C2494 1.474 . S
C2496 C2491 1.342 . S
C2496 C2494 1.285 . S
C2496 H2515 0.930 . S
C2497 C2500 1.424 . S
C2497 C2502 1.245 . S
C2497 C2503 1.428 . S
C2498 C2501 1.260 . S
C2498 C2502 1.477 . S
C2498 H2516 0.932 . S
C2499 C2500 1.384 . S
C2499 C2501 1.479 . S
C2499 H2517 0.929 . S
C2500 C2497 1.424 . S
C2500 C2499 1.384 . S
C2500 H2518 0.928 . S
C2501 C2498 1.260 . S
C2501 C2499 1.479 . S
C2502 C2497 1.245 . S
C2502 C2498 1.477 . S
C2502 H2519 0.932 . S
C2503 U2486 2.882 . S
C2503 C2497 1.428 . S
C2503 O2506 1.301 . S
C2503 O2507 1.282 . S
O2504 U2486 2.441 . S
O2504 C2490 1.249 . S
O2505 U2486 2.420 . S
O2505 C2490 1.202 . S
O2506 U2486 2.455 . S
O2506 C2503 1.301 . S
O2507 U2486 2.449 . S
O2507 C2503 1.282 . S
H2508 C2481 0.931 . S
H2509 C2483 0.929 . S
H2510 C2484 0.930 . S
H2511 C2485 0.931 . S
H2512 C2492 0.932 . S
H2513 C2493 0.930 . S
H2514 C2494 0.929 . S
H2515 C2496 0.930 . S
H2516 C2498 0.932 . S
H2517 C2499 0.929 . S
H2518 C2500 0.928 . S
H2519 C2502 0.932 . S
C2520 C2521 1.264 . S
C2520 C2525 1.479 . S
C2520 C2530 1.465 . S
C2521 C2520 1.264 . S
C2521 C2523 1.339 . S
C2521 H2548 0.931 . S
C2522 C2523 1.395 . S
C2522 C2524 1.320 . S
C2523 C2521 1.339 . S
C2523 C2522 1.395 . S
C2523 H2549 0.929 . S
C2524 C2522 1.320 . S
C2524 C2525 1.405 . S
C2524 H2550 0.930 . S
C2525 C2520 1.479 . S
C2525 C2524 1.405 . S
C2525 H2551 0.931 . S
U2526 O2527 2.454 . S
U2526 O2528 2.458 . S
U2526 C2529 2.984 . S
U2526 C2530 2.847 . S
U2526 C2543 2.882 . S
U2526 O2544 2.441 . S
U2526 O2545 2.420 . S
U2526 O2546 2.455 . S
U2526 O2547 2.449 . S
O2527 U2526 2.454 . S
O2527 C2529 1.353 . S
O2528 U2526 2.458 . S
O2528 C2529 1.286 . S
C2529 U2526 2.984 . S
C2529 O2527 1.353 . S
C2529 O2528 1.286 . S
C2529 C2531 1.363 . S
C2530 C2520 1.465 . S
C2530 U2526 2.847 . S
C2530 O2544 1.249 . S
C2530 O2545 1.202 . S
C2531 C2529 1.363 . S
C2531 C2533 1.408 . S
C2531 C2536 1.342 . S
C2532 C2533 1.310 . S
C2532 C2535 1.461 . S
C2532 H2552 0.932 . S
C2533 C2531 1.408 . S
C2533 C2532 1.310 . S
C2533 H2553 0.930 . S
C2534 C2535 1.474 . S
C2534 C2536 1.285 . S
C2534 H2554 0.929 . S
C2535 C2532 1.461 . S
C2535 C2534 1.474 . S
C2536 C2531 1.342 . S
C2536 C2534 1.285 . S
C2536 H2555 0.930 . S
C2537 C2540 1.424 . S
C2537 C2542 1.245 . S
C2537 C2543 1.428 . S
C2538 C2541 1.260 . S
C2538 C2542 1.477 . S
C2538 H2556 0.932 . S
C2539 C2540 1.384 . S
C2539 C2541 1.479 . S
C2539 H2557 0.929 . S
C2540 C2537 1.424 . S
C2540 C2539 1.384 . S
C2540 H2558 0.928 . S
C2541 C2538 1.260 . S
C2541 C2539 1.479 . S
C2542 C2537 1.245 . S
C2542 C2538 1.477 . S
C2542 H2559 0.932 . S
C2543 U2526 2.882 . S
C2543 C2537 1.428 . S
C2543 O2546 1.301 . S
C2543 O2547 1.282 . S
O2544 U2526 2.441 . S
O2544 C2530 1.249 . S
O2545 U2526 2.420 . S
O2545 C2530 1.202 . S
O2546 U2526 2.455 . S
O2546 C2543 1.301 . S
O2547 U2526 2.449 . S
O2547 C2543 1.282 . S
H2548 C2521 0.931 . S
H2549 C2523 0.929 . S
H2550 C2524 0.930 . S
H2551 C2525 0.931 . S
H2552 C2532 0.932 . S
H2553 C2533 0.930 . S
H2554 C2534 0.929 . S
H2555 C2536 0.930 . S
H2556 C2538 0.932 . S
H2557 C2539 0.929 . S
H2558 C2540 0.928 . S
H2559 C2542 0.932 . S
C2560 C2561 1.264 . S
C2560 C2565 1.479 . S
C2560 C2570 1.465 . S
C2561 C2560 1.264 . S
C2561 C2563 1.339 . S
C2561 H2588 0.931 . S
C2562 C2563 1.395 . S
C2562 C2564 1.320 . S
C2563 C2561 1.339 . S
C2563 C2562 1.395 . S
C2563 H2589 0.929 . S
C2564 C2562 1.320 . S
C2564 C2565 1.405 . S
C2564 H2590 0.930 . S
C2565 C2560 1.479 . S
C2565 C2564 1.405 . S
C2565 H2591 0.931 . S
U2566 O2567 2.454 . S
U2566 O2568 2.458 . S
U2566 C2569 2.984 . S
U2566 C2570 2.847 . S
U2566 C2583 2.882 . S
U2566 O2584 2.441 . S
U2566 O2585 2.420 . S
U2566 O2586 2.455 . S
U2566 O2587 2.449 . S
O2567 U2566 2.454 . S
O2567 C2569 1.353 . S
O2568 U2566 2.458 . S
O2568 C2569 1.286 . S
C2569 U2566 2.984 . S
C2569 O2567 1.353 . S
C2569 O2568 1.286 . S
C2569 C2571 1.363 . S
C2570 C2560 1.465 . S
C2570 U2566 2.847 . S
C2570 O2584 1.249 . S
C2570 O2585 1.202 . S
C2571 C2569 1.363 . S
C2571 C2573 1.408 . S
C2571 C2576 1.342 . S
C2572 C2573 1.310 . S
C2572 C2575 1.461 . S
C2572 H2592 0.932 . S
C2573 C2571 1.408 . S
C2573 C2572 1.310 . S
C2573 H2593 0.930 . S
C2574 C2575 1.474 . S
C2574 C2576 1.285 . S
C2574 H2594 0.929 . S
C2575 C2572 1.461 . S
C2575 C2574 1.474 . S
C2576 C2571 1.342 . S
C2576 C2574 1.285 . S
C2576 H2595 0.930 . S
C2577 C2580 1.424 . S
C2577 C2582 1.245 . S
C2577 C2583 1.428 . S
C2578 C2581 1.260 . S
C2578 C2582 1.477 . S
C2578 H2596 0.932 . S
C2579 C2580 1.384 . S
C2579 C2581 1.479 . S
C2579 H2597 0.929 . S
C2580 C2577 1.424 . S
C2580 C2579 1.384 . S
C2580 H2598 0.928 . S
C2581 C2578 1.260 . S
C2581 C2579 1.479 . S
C2582 C2577 1.245 . S
C2582 C2578 1.477 . S
C2582 H2599 0.932 . S
C2583 U2566 2.882 . S
C2583 C2577 1.428 . S
C2583 O2586 1.301 . S
C2583 O2587 1.282 . S
O2584 U2566 2.441 . S
O2584 C2570 1.249 . S
O2585 U2566 2.420 . S
O2585 C2570 1.202 . S
O2586 U2566 2.455 . S
O2586 C2583 1.301 . S
O2587 U2566 2.449 . S
O2587 C2583 1.282 . S
H2588 C2561 0.931 . S
H2589 C2563 0.929 . S
H2590 C2564 0.930 . S
H2591 C2565 0.931 . S
H2592 C2572 0.932 . S
H2593 C2573 0.930 . S
H2594 C2574 0.929 . S
H2595 C2576 0.930 . S
H2596 C2578 0.932 . S
H2597 C2579 0.929 . S
H2598 C2580 0.928 . S
H2599 C2582 0.932 . S
C2600 C2601 1.264 . S
C2600 C2605 1.479 . S
C2600 C2610 1.465 . S
C2601 C2600 1.264 . S
C2601 C2603 1.339 . S
C2601 H2628 0.931 . S
C2602 C2603 1.395 . S
C2602 C2604 1.320 . S
C2603 C2601 1.339 . S
C2603 C2602 1.395 . S
C2603 H2629 0.929 . S
C2604 C2602 1.320 . S
C2604 C2605 1.405 . S
C2604 H2630 0.930 . S
C2605 C2600 1.479 . S
C2605 C2604 1.405 . S
C2605 H2631 0.931 . S
U2606 O2607 2.454 . S
U2606 O2608 2.458 . S
U2606 C2609 2.984 . S
U2606 C2610 2.847 . S
U2606 C2623 2.882 . S
U2606 O2624 2.441 . S
U2606 O2625 2.420 . S
U2606 O2626 2.455 . S
U2606 O2627 2.449 . S
O2607 U2606 2.454 . S
O2607 C2609 1.353 . S
O2608 U2606 2.458 . S
O2608 C2609 1.286 . S
C2609 U2606 2.984 . S
C2609 O2607 1.353 . S
C2609 O2608 1.286 . S
C2609 C2611 1.363 . S
C2610 C2600 1.465 . S
C2610 U2606 2.847 . S
C2610 O2624 1.249 . S
C2610 O2625 1.202 . S
C2611 C2609 1.363 . S
C2611 C2613 1.408 . S
C2611 C2616 1.342 . S
C2612 C2613 1.310 . S
C2612 C2615 1.461 . S
C2612 H2632 0.932 . S
C2613 C2611 1.408 . S
C2613 C2612 1.310 . S
C2613 H2633 0.930 . S
C2614 C2615 1.474 . S
C2614 C2616 1.285 . S
C2614 H2634 0.929 . S
C2615 C2612 1.461 . S
C2615 C2614 1.474 . S
C2616 C2611 1.342 . S
C2616 C2614 1.285 . S
C2616 H2635 0.930 . S
C2617 C2620 1.424 . S
C2617 C2622 1.245 . S
C2617 C2623 1.428 . S
C2618 C2621 1.260 . S
C2618 C2622 1.477 . S
C2618 H2636 0.932 . S
C2619 C2620 1.384 . S
C2619 C2621 1.479 . S
C2619 H2637 0.929 . S
C2620 C2617 1.424 . S
C2620 C2619 1.384 . S
C2620 H2638 0.928 . S
C2621 C2618 1.260 . S
C2621 C2619 1.479 . S
C2622 C2617 1.245 . S
C2622 C2618 1.477 . S
C2622 H2639 0.932 . S
C2623 U2606 2.882 . S
C2623 C2617 1.428 . S
C2623 O2626 1.301 . S
C2623 O2627 1.282 . S
O2624 U2606 2.441 . S
O2624 C2610 1.249 . S
O2625 U2606 2.420 . S
O2625 C2610 1.202 . S
O2626 U2606 2.455 . S
O2626 C2623 1.301 . S
O2627 U2606 2.449 . S
O2627 C2623 1.282 . S
H2628 C2601 0.931 . S
H2629 C2603 0.929 . S
H2630 C2604 0.930 . S
H2631 C2605 0.931 . S
H2632 C2612 0.932 . S
H2633 C2613 0.930 . S
H2634 C2614 0.929 . S
H2635 C2616 0.930 . S
H2636 C2618 0.932 . S
H2637 C2619 0.929 . S
H2638 C2620 0.928 . S
H2639 C2622 0.932 . S
C2640 C2641 1.264 . S
C2640 C2645 1.479 . S
C2640 C2650 1.465 . S
C2641 C2640 1.264 . S
C2641 C2643 1.339 . S
C2641 H2668 0.931 . S
C2642 C2643 1.395 . S
C2642 C2644 1.320 . S
C2643 C2641 1.339 . S
C2643 C2642 1.395 . S
C2643 H2669 0.929 . S
C2644 C2642 1.320 . S
C2644 C2645 1.405 . S
C2644 H2670 0.930 . S
C2645 C2640 1.479 . S
C2645 C2644 1.405 . S
C2645 H2671 0.931 . S
U2646 O2647 2.454 . S
U2646 O2648 2.458 . S
U2646 C2649 2.984 . S
U2646 C2650 2.847 . S
U2646 C2663 2.882 . S
U2646 O2664 2.441 . S
U2646 O2665 2.420 . S
U2646 O2666 2.455 . S
U2646 O2667 2.449 . S
O2647 U2646 2.454 . S
O2647 C2649 1.353 . S
O2648 U2646 2.458 . S
O2648 C2649 1.286 . S
C2649 U2646 2.984 . S
C2649 O2647 1.353 . S
C2649 O2648 1.286 . S
C2649 C2651 1.363 . S
C2650 C2640 1.465 . S
C2650 U2646 2.847 . S
C2650 O2664 1.249 . S
C2650 O2665 1.202 . S
C2651 C2649 1.363 . S
C2651 C2653 1.408 . S
C2651 C2656 1.342 . S
C2652 C2653 1.310 . S
C2652 C2655 1.461 . S
C2652 H2672 0.932 . S
C2653 C2651 1.408 . S
C2653 C2652 1.310 . S
C2653 H2673 0.930 . S
C2654 C2655 1.474 . S
C2654 C2656 1.285 . S
C2654 H2674 0.929 . S
C2655 C2652 1.461 . S
C2655 C2654 1.474 . S
C2656 C2651 1.342 . S
C2656 C2654 1.285 . S
C2656 H2675 0.930 . S
C2657 C2660 1.424 . S
C2657 C2662 1.245 . S
C2657 C2663 1.428 . S
C2658 C2661 1.260 . S
C2658 C2662 1.477 . S
C2658 H2676 0.932 . S
C2659 C2660 1.384 . S
C2659 C2661 1.479 . S
C2659 H2677 0.929 . S
C2660 C2657 1.424 . S
C2660 C2659 1.384 . S
C2660 H2678 0.928 . S
C2661 C2658 1.260 . S
C2661 C2659 1.479 . S
C2662 C2657 1.245 . S
C2662 C2658 1.477 . S
C2662 H2679 0.932 . S
C2663 U2646 2.882 . S
C2663 C2657 1.428 . S
C2663 O2666 1.301 . S
C2663 O2667 1.282 . S
O2664 U2646 2.441 . S
O2664 C2650 1.249 . S
O2665 U2646 2.420 . S
O2665 C2650 1.202 . S
O2666 U2646 2.455 . S
O2666 C2663 1.301 . S
O2667 U2646 2.449 . S
O2667 C2663 1.282 . S
H2668 C2641 0.931 . S
H2669 C2643 0.929 . S
H2670 C2644 0.930 . S
H2671 C2645 0.931 . S
H2672 C2652 0.932 . S
H2673 C2653 0.930 . S
H2674 C2654 0.929 . S
H2675 C2656 0.930 . S
H2676 C2658 0.932 . S
H2677 C2659 0.929 . S
H2678 C2660 0.928 . S
H2679 C2662 0.932 . S
C2680 C2681 1.264 . S
C2680 C2685 1.479 . S
C2680 C2690 1.465 . S
C2681 C2680 1.264 . S
C2681 C2683 1.339 . S
C2681 H2708 0.931 . S
C2682 C2683 1.395 . S
C2682 C2684 1.320 . S
C2683 C2681 1.339 . S
C2683 C2682 1.395 . S
C2683 H2709 0.929 . S
C2684 C2682 1.320 . S
C2684 C2685 1.405 . S
C2684 H2710 0.930 . S
C2685 C2680 1.479 . S
C2685 C2684 1.405 . S
C2685 H2711 0.931 . S
U2686 O2687 2.454 . S
U2686 O2688 2.458 . S
U2686 C2689 2.984 . S
U2686 C2690 2.847 . S
U2686 C2703 2.882 . S
U2686 O2704 2.441 . S
U2686 O2705 2.420 . S
U2686 O2706 2.455 . S
U2686 O2707 2.449 . S
O2687 U2686 2.454 . S
O2687 C2689 1.353 . S
O2688 U2686 2.458 . S
O2688 C2689 1.286 . S
C2689 U2686 2.984 . S
C2689 O2687 1.353 . S
C2689 O2688 1.286 . S
C2689 C2691 1.363 . S
C2690 C2680 1.465 . S
C2690 U2686 2.847 . S
C2690 O2704 1.249 . S
C2690 O2705 1.202 . S
C2691 C2689 1.363 . S
C2691 C2693 1.408 . S
C2691 C2696 1.342 . S
C2692 C2693 1.310 . S
C2692 C2695 1.461 . S
C2692 H2712 0.932 . S
C2693 C2691 1.408 . S
C2693 C2692 1.310 . S
C2693 H2713 0.930 . S
C2694 C2695 1.474 . S
C2694 C2696 1.285 . S
C2694 H2714 0.929 . S
C2695 C2692 1.461 . S
C2695 C2694 1.474 . S
C2696 C2691 1.342 . S
C2696 C2694 1.285 . S
C2696 H2715 0.930 . S
C2697 C2700 1.424 . S
C2697 C2702 1.245 . S
C2697 C2703 1.428 . S
C2698 C2701 1.260 . S
C2698 C2702 1.477 . S
C2698 H2716 0.932 . S
C2699 C2700 1.384 . S
C2699 C2701 1.479 . S
C2699 H2717 0.929 . S
C2700 C2697 1.424 . S
C2700 C2699 1.384 . S
C2700 H2718 0.928 . S
C2701 C2698 1.260 . S
C2701 C2699 1.479 . S
C2702 C2697 1.245 . S
C2702 C2698 1.477 . S
C2702 H2719 0.932 . S
C2703 U2686 2.882 . S
C2703 C2697 1.428 . S
C2703 O2706 1.301 . S
C2703 O2707 1.282 . S
O2704 U2686 2.441 . S
O2704 C2690 1.249 . S
O2705 U2686 2.420 . S
O2705 C2690 1.202 . S
O2706 U2686 2.455 . S
O2706 C2703 1.301 . S
O2707 U2686 2.449 . S
O2707 C2703 1.282 . S
H2708 C2681 0.931 . S
H2709 C2683 0.929 . S
H2710 C2684 0.930 . S
H2711 C2685 0.931 . S
H2712 C2692 0.932 . S
H2713 C2693 0.930 . S
H2714 C2694 0.929 . S
H2715 C2696 0.930 . S
H2716 C2698 0.932 . S
H2717 C2699 0.929 . S
H2718 C2700 0.928 . S
H2719 C2702 0.932 . S
C2720 C2721 1.264 . S
C2720 C2725 1.479 . S
C2720 C2730 1.465 . S
C2721 C2720 1.264 . S
C2721 C2723 1.339 . S
C2721 H2748 0.931 . S
C2722 C2723 1.395 . S
C2722 C2724 1.320 . S
C2723 C2721 1.339 . S
C2723 C2722 1.395 . S
C2723 H2749 0.929 . S
C2724 C2722 1.320 . S
C2724 C2725 1.405 . S
C2724 H2750 0.930 . S
C2725 C2720 1.479 . S
C2725 C2724 1.405 . S
C2725 H2751 0.931 . S
U2726 O2727 2.454 . S
U2726 O2728 2.458 . S
U2726 C2729 2.984 . S
U2726 C2730 2.847 . S
U2726 C2743 2.882 . S
U2726 O2744 2.441 . S
U2726 O2745 2.420 . S
U2726 O2746 2.455 . S
U2726 O2747 2.449 . S
O2727 U2726 2.454 . S
O2727 C2729 1.353 . S
O2728 U2726 2.458 . S
O2728 C2729 1.286 . S
C2729 U2726 2.984 . S
C2729 O2727 1.353 . S
C2729 O2728 1.286 . S
C2729 C2731 1.363 . S
C2730 C2720 1.465 . S
C2730 U2726 2.847 . S
C2730 O2744 1.249 . S
C2730 O2745 1.202 . S
C2731 C2729 1.363 . S
C2731 C2733 1.408 . S
C2731 C2736 1.342 . S
C2732 C2733 1.310 . S
C2732 C2735 1.461 . S
C2732 H2752 0.932 . S
C2733 C2731 1.408 . S
C2733 C2732 1.310 . S
C2733 H2753 0.930 . S
C2734 C2735 1.474 . S
C2734 C2736 1.285 . S
C2734 H2754 0.929 . S
C2735 C2732 1.461 . S
C2735 C2734 1.474 . S
C2736 C2731 1.342 . S
C2736 C2734 1.285 . S
C2736 H2755 0.930 . S
C2737 C2740 1.424 . S
C2737 C2742 1.245 . S
C2737 C2743 1.428 . S
C2738 C2741 1.260 . S
C2738 C2742 1.477 . S
C2738 H2756 0.932 . S
C2739 C2740 1.384 . S
C2739 C2741 1.479 . S
C2739 H2757 0.929 . S
C2740 C2737 1.424 . S
C2740 C2739 1.384 . S
C2740 H2758 0.928 . S
C2741 C2738 1.260 . S
C2741 C2739 1.479 . S
C2742 C2737 1.245 . S
C2742 C2738 1.477 . S
C2742 H2759 0.932 . S
C2743 U2726 2.882 . S
C2743 C2737 1.428 . S
C2743 O2746 1.301 . S
C2743 O2747 1.282 . S
O2744 U2726 2.441 . S
O2744 C2730 1.249 . S
O2745 U2726 2.420 . S
O2745 C2730 1.202 . S
O2746 U2726 2.455 . S
O2746 C2743 1.301 . S
O2747 U2726 2.449 . S
O2747 C2743 1.282 . S
H2748 C2721 0.931 . S
H2749 C2723 0.929 . S
H2750 C2724 0.930 . S
H2751 C2725 0.931 . S
H2752 C2732 0.932 . S
H2753 C2733 0.930 . S
H2754 C2734 0.929 . S
H2755 C2736 0.930 . S
H2756 C2738 0.932 . S
H2757 C2739 0.929 . S
H2758 C2740 0.928 . S
H2759 C2742 0.932 . S
C2760 C2761 1.264 . S
C2760 C2765 1.479 . S
C2760 C2770 1.465 . S
C2761 C2760 1.264 . S
C2761 C2763 1.339 . S
C2761 H2788 0.931 . S
C2762 C2763 1.395 . S
C2762 C2764 1.320 . S
C2763 C2761 1.339 . S
C2763 C2762 1.395 . S
C2763 H2789 0.929 . S
C2764 C2762 1.320 . S
C2764 C2765 1.405 . S
C2764 H2790 0.930 . S
C2765 C2760 1.479 . S
C2765 C2764 1.405 . S
C2765 H2791 0.931 . S
U2766 O2767 2.454 . S
U2766 O2768 2.458 . S
U2766 C2769 2.984 . S
U2766 C2770 2.847 . S
U2766 C2783 2.882 . S
U2766 O2784 2.441 . S
U2766 O2785 2.420 . S
U2766 O2786 2.455 . S
U2766 O2787 2.449 . S
O2767 U2766 2.454 . S
O2767 C2769 1.353 . S
O2768 U2766 2.458 . S
O2768 C2769 1.286 . S
C2769 U2766 2.984 . S
C2769 O2767 1.353 . S
C2769 O2768 1.286 . S
C2769 C2771 1.363 . S
C2770 C2760 1.465 . S
C2770 U2766 2.847 . S
C2770 O2784 1.249 . S
C2770 O2785 1.202 . S
C2771 C2769 1.363 . S
C2771 C2773 1.408 . S
C2771 C2776 1.342 . S
C2772 C2773 1.310 . S
C2772 C2775 1.461 . S
C2772 H2792 0.932 . S
C2773 C2771 1.408 . S
C2773 C2772 1.310 . S
C2773 H2793 0.930 . S
C2774 C2775 1.474 . S
C2774 C2776 1.285 . S
C2774 H2794 0.929 . S
C2775 C2772 1.461 . S
C2775 C2774 1.474 . S
C2776 C2771 1.342 . S
C2776 C2774 1.285 . S
C2776 H2795 0.930 . S
C2777 C2780 1.424 . S
C2777 C2782 1.245 . S
C2777 C2783 1.428 . S
C2778 C2781 1.260 . S
C2778 C2782 1.477 . S
C2778 H2796 0.932 . S
C2779 C2780 1.384 . S
C2779 C2781 1.479 . S
C2779 H2797 0.929 . S
C2780 C2777 1.424 . S
C2780 C2779 1.384 . S
C2780 H2798 0.928 . S
C2781 C2778 1.260 . S
C2781 C2779 1.479 . S
C2782 C2777 1.245 . S
C2782 C2778 1.477 . S
C2782 H2799 0.932 . S
C2783 U2766 2.882 . S
C2783 C2777 1.428 . S
C2783 O2786 1.301 . S
C2783 O2787 1.282 . S
O2784 U2766 2.441 . S
O2784 C2770 1.249 . S
O2785 U2766 2.420 . S
O2785 C2770 1.202 . S
O2786 U2766 2.455 . S
O2786 C2783 1.301 . S
O2787 U2766 2.449 . S
O2787 C2783 1.282 . S
H2788 C2761 0.931 . S
H2789 C2763 0.929 . S
H2790 C2764 0.930 . S
H2791 C2765 0.931 . S
H2792 C2772 0.932 . S
H2793 C2773 0.930 . S
H2794 C2774 0.929 . S
H2795 C2776 0.930 . S
H2796 C2778 0.932 . S
H2797 C2779 0.929 . S
H2798 C2780 0.928 . S
H2799 C2782 0.932 . S
C2800 C2801 1.264 . S
C2800 C2805 1.479 . S
C2800 C2810 1.465 . S
C2801 C2800 1.264 . S
C2801 C2803 1.339 . S
C2801 H2828 0.931 . S
C2802 C2803 1.395 . S
C2802 C2804 1.320 . S
C2803 C2801 1.339 . S
C2803 C2802 1.395 . S
C2803 H2829 0.929 . S
C2804 C2802 1.320 . S
C2804 C2805 1.405 . S
C2804 H2830 0.930 . S
C2805 C2800 1.479 . S
C2805 C2804 1.405 . S
C2805 H2831 0.931 . S
U2806 O2807 2.454 . S
U2806 O2808 2.458 . S
U2806 C2809 2.984 . S
U2806 C2810 2.847 . S
U2806 C2823 2.882 . S
U2806 O2824 2.441 . S
U2806 O2825 2.420 . S
U2806 O2826 2.455 . S
U2806 O2827 2.449 . S
O2807 U2806 2.454 . S
O2807 C2809 1.353 . S
O2808 U2806 2.458 . S
O2808 C2809 1.286 . S
C2809 U2806 2.984 . S
C2809 O2807 1.353 . S
C2809 O2808 1.286 . S
C2809 C2811 1.363 . S
C2810 C2800 1.465 . S
C2810 U2806 2.847 . S
C2810 O2824 1.249 . S
C2810 O2825 1.202 . S
C2811 C2809 1.363 . S
C2811 C2813 1.408 . S
C2811 C2816 1.342 . S
C2812 C2813 1.310 . S
C2812 C2815 1.461 . S
C2812 H2832 0.932 . S
C2813 C2811 1.408 . S
C2813 C2812 1.310 . S
C2813 H2833 0.930 . S
C2814 C2815 1.474 . S
C2814 C2816 1.285 . S
C2814 H2834 0.929 . S
C2815 C2812 1.461 . S
C2815 C2814 1.474 . S
C2816 C2811 1.342 . S
C2816 C2814 1.285 . S
C2816 H2835 0.930 . S
C2817 C2820 1.424 . S
C2817 C2822 1.245 . S
C2817 C2823 1.428 . S
C2818 C2821 1.260 . S
C2818 C2822 1.477 . S
C2818 H2836 0.932 . S
C2819 C2820 1.384 . S
C2819 C2821 1.479 . S
C2819 H2837 0.929 . S
C2820 C2817 1.424 . S
C2820 C2819 1.384 . S
C2820 H2838 0.928 . S
C2821 C2818 1.260 . S
C2821 C2819 1.479 . S
C2822 C2817 1.245 . S
C2822 C2818 1.477 . S
C2822 H2839 0.932 . S
C2823 U2806 2.882 . S
C2823 C2817 1.428 . S
C2823 O2826 1.301 . S
C2823 O2827 1.282 . S
O2824 U2806 2.441 . S
O2824 C2810 1.249 . S
O2825 U2806 2.420 . S
O2825 C2810 1.202 . S
O2826 U2806 2.455 . S
O2826 C2823 1.301 . S
O2827 U2806 2.449 . S
O2827 C2823 1.282 . S
H2828 C2801 0.931 . S
H2829 C2803 0.929 . S
H2830 C2804 0.930 . S
H2831 C2805 0.931 . S
H2832 C2812 0.932 . S
H2833 C2813 0.930 . S
H2834 C2814 0.929 . S
H2835 C2816 0.930 . S
H2836 C2818 0.932 . S
H2837 C2819 0.929 . S
H2838 C2820 0.928 . S
H2839 C2822 0.932 . S
C2840 C2841 1.264 . S
C2840 C2845 1.479 . S
C2840 C2850 1.465 . S
C2841 C2840 1.264 . S
C2841 C2843 1.339 . S
C2841 H2868 0.931 . S
C2842 C2843 1.395 . S
C2842 C2844 1.320 . S
C2843 C2841 1.339 . S
C2843 C2842 1.395 . S
C2843 H2869 0.929 . S
C2844 C2842 1.320 . S
C2844 C2845 1.405 . S
C2844 H2870 0.930 . S
C2845 C2840 1.479 . S
C2845 C2844 1.405 . S
C2845 H2871 0.931 . S
U2846 O2847 2.454 . S
U2846 O2848 2.458 . S
U2846 C2849 2.984 . S
U2846 C2850 2.847 . S
U2846 C2863 2.882 . S
U2846 O2864 2.441 . S
U2846 O2865 2.420 . S
U2846 O2866 2.455 . S
U2846 O2867 2.449 . S
O2847 U2846 2.454 . S
O2847 C2849 1.353 . S
O2848 U2846 2.458 . S
O2848 C2849 1.286 . S
C2849 U2846 2.984 . S
C2849 O2847 1.353 . S
C2849 O2848 1.286 . S
C2849 C2851 1.363 . S
C2850 C2840 1.465 . S
C2850 U2846 2.847 . S
C2850 O2864 1.249 . S
C2850 O2865 1.202 . S
C2851 C2849 1.363 . S
C2851 C2853 1.408 . S
C2851 C2856 1.342 . S
C2852 C2853 1.310 . S
C2852 C2855 1.461 . S
C2852 H2872 0.932 . S
C2853 C2851 1.408 . S
C2853 C2852 1.310 . S
C2853 H2873 0.930 . S
C2854 C2855 1.474 . S
C2854 C2856 1.285 . S
C2854 H2874 0.929 . S
C2855 C2852 1.461 . S
C2855 C2854 1.474 . S
C2856 C2851 1.342 . S
C2856 C2854 1.285 . S
C2856 H2875 0.930 . S
C2857 C2860 1.424 . S
C2857 C2862 1.245 . S
C2857 C2863 1.428 . S
C2858 C2861 1.260 . S
C2858 C2862 1.477 . S
C2858 H2876 0.932 . S
C2859 C2860 1.384 . S
C2859 C2861 1.479 . S
C2859 H2877 0.929 . S
C2860 C2857 1.424 . S
C2860 C2859 1.384 . S
C2860 H2878 0.928 . S
C2861 C2858 1.260 . S
C2861 C2859 1.479 . S
C2862 C2857 1.245 . S
C2862 C2858 1.477 . S
C2862 H2879 0.932 . S
C2863 U2846 2.882 . S
C2863 C2857 1.428 . S
C2863 O2866 1.301 . S
C2863 O2867 1.282 . S
O2864 U2846 2.441 . S
O2864 C2850 1.249 . S
O2865 U2846 2.420 . S
O2865 C2850 1.202 . S
O2866 U2846 2.455 . S
O2866 C2863 1.301 . S
O2867 U2846 2.449 . S
O2867 C2863 1.282 . S
H2868 C2841 0.931 . S
H2869 C2843 0.929 . S
H2870 C2844 0.930 . S
H2871 C2845 0.931 . S
H2872 C2852 0.932 . S
H2873 C2853 0.930 . S
H2874 C2854 0.929 . S
H2875 C2856 0.930 . S
H2876 C2858 0.932 . S
H2877 C2859 0.929 . S
H2878 C2860 0.928 . S
H2879 C2862 0.932 . S
C2880 C2881 1.264 . S
C2880 C2885 1.479 . S
C2880 C2890 1.465 . S
C2881 C2880 1.264 . S
C2881 C2883 1.339 . S
C2881 H2908 0.931 . S
C2882 C2883 1.395 . S
C2882 C2884 1.320 . S
C2883 C2881 1.339 . S
C2883 C2882 1.395 . S
C2883 H2909 0.929 . S
C2884 C2882 1.320 . S
C2884 C2885 1.405 . S
C2884 H2910 0.930 . S
C2885 C2880 1.479 . S
C2885 C2884 1.405 . S
C2885 H2911 0.931 . S
U2886 O2887 2.454 . S
U2886 O2888 2.458 . S
U2886 C2889 2.984 . S
U2886 C2890 2.847 . S
U2886 C2903 2.882 . S
U2886 O2904 2.441 . S
U2886 O2905 2.420 . S
U2886 O2906 2.455 . S
U2886 O2907 2.449 . S
O2887 U2886 2.454 . S
O2887 C2889 1.353 . S
O2888 U2886 2.458 . S
O2888 C2889 1.286 . S
C2889 U2886 2.984 . S
C2889 O2887 1.353 . S
C2889 O2888 1.286 . S
C2889 C2891 1.363 . S
C2890 C2880 1.465 . S
C2890 U2886 2.847 . S
C2890 O2904 1.249 . S
C2890 O2905 1.202 . S
C2891 C2889 1.363 . S
C2891 C2893 1.408 . S
C2891 C2896 1.342 . S
C2892 C2893 1.310 . S
C2892 C2895 1.461 . S
C2892 H2912 0.932 . S
C2893 C2891 1.408 . S
C2893 C2892 1.310 . S
C2893 H2913 0.930 . S
C2894 C2895 1.474 . S
C2894 C2896 1.285 . S
C2894 H2914 0.929 . S
C2895 C2892 1.461 . S
C2895 C2894 1.474 . S
C2896 C2891 1.342 . S
C2896 C2894 1.285 . S
C2896 H2915 0.930 . S
C2897 C2900 1.424 . S
C2897 C2902 1.245 . S
C2897 C2903 1.428 . S
C2898 C2901 1.260 . S
C2898 C2902 1.477 . S
C2898 H2916 0.932 . S
C2899 C2900 1.384 . S
C2899 C2901 1.479 . S
C2899 H2917 0.929 . S
C2900 C2897 1.424 . S
C2900 C2899 1.384 . S
C2900 H2918 0.928 . S
C2901 C2898 1.260 . S
C2901 C2899 1.479 . S
C2902 C2897 1.245 . S
C2902 C2898 1.477 . S
C2902 H2919 0.932 . S
C2903 U2886 2.882 . S
C2903 C2897 1.428 . S
C2903 O2906 1.301 . S
C2903 O2907 1.282 . S
O2904 U2886 2.441 . S
O2904 C2890 1.249 . S
O2905 U2886 2.420 . S
O2905 C2890 1.202 . S
O2906 U2886 2.455 . S
O2906 C2903 1.301 . S
O2907 U2886 2.449 . S
O2907 C2903 1.282 . S
H2908 C2881 0.931 . S
H2909 C2883 0.929 . S
H2910 C2884 0.930 . S
H2911 C2885 0.931 . S
H2912 C2892 0.932 . S
H2913 C2893 0.930 . S
H2914 C2894 0.929 . S
H2915 C2896 0.930 . S
H2916 C2898 0.932 . S
H2917 C2899 0.929 . S
H2918 C2900 0.928 . S
H2919 C2902 0.932 . S
C2920 C2921 1.264 . S
C2920 C2925 1.479 . S
C2920 C2930 1.465 . S
C2921 C2920 1.264 . S
C2921 C2923 1.339 . S
C2921 H2948 0.931 . S
C2922 C2923 1.395 . S
C2922 C2924 1.320 . S
C2923 C2921 1.339 . S
C2923 C2922 1.395 . S
C2923 H2949 0.929 . S
C2924 C2922 1.320 . S
C2924 C2925 1.405 . S
C2924 H2950 0.930 . S
C2925 C2920 1.479 . S
C2925 C2924 1.405 . S
C2925 H2951 0.931 . S
U2926 O2927 2.454 . S
U2926 O2928 2.458 . S
U2926 C2929 2.984 . S
U2926 C2930 2.847 . S
U2926 C2943 2.882 . S
U2926 O2944 2.441 . S
U2926 O2945 2.420 . S
U2926 O2946 2.455 . S
U2926 O2947 2.449 . S
O2927 U2926 2.454 . S
O2927 C2929 1.353 . S
O2928 U2926 2.458 . S
O2928 C2929 1.286 . S
C2929 U2926 2.984 . S
C2929 O2927 1.353 . S
C2929 O2928 1.286 . S
C2929 C2931 1.363 . S
C2930 C2920 1.465 . S
C2930 U2926 2.847 . S
C2930 O2944 1.249 . S
C2930 O2945 1.202 . S
C2931 C2929 1.363 . S
C2931 C2933 1.408 . S
C2931 C2936 1.342 . S
C2932 C2933 1.310 . S
C2932 C2935 1.461 . S
C2932 H2952 0.932 . S
C2933 C2931 1.408 . S
C2933 C2932 1.310 . S
C2933 H2953 0.930 . S
C2934 C2935 1.474 . S
C2934 C2936 1.285 . S
C2934 H2954 0.929 . S
C2935 C2932 1.461 . S
C2935 C2934 1.474 . S
C2936 C2931 1.342 . S
C2936 C2934 1.285 . S
C2936 H2955 0.930 . S
C2937 C2940 1.424 . S
C2937 C2942 1.245 . S
C2937 C2943 1.428 . S
C2938 C2941 1.260 . S
C2938 C2942 1.477 . S
C2938 H2956 0.932 . S
C2939 C2940 1.384 . S
C2939 C2941 1.479 . S
C2939 H2957 0.929 . S
C2940 C2937 1.424 . S
C2940 C2939 1.384 . S
C2940 H2958 0.928 . S
C2941 C2938 1.260 . S
C2941 C2939 1.479 . S
C2942 C2937 1.245 . S
C2942 C2938 1.477 . S
C2942 H2959 0.932 . S
C2943 U2926 2.882 . S
C2943 C2937 1.428 . S
C2943 O2946 1.301 . S
C2943 O2947 1.282 . S
O2944 U2926 2.441 . S
O2944 C2930 1.249 . S
O2945 U2926 2.420 . S
O2945 C2930 1.202 . S
O2946 U2926 2.455 . S
O2946 C2943 1.301 . S
O2947 U2926 2.449 . S
O2947 C2943 1.282 . S
H2948 C2921 0.931 . S
H2949 C2923 0.929 . S
H2950 C2924 0.930 . S
H2951 C2925 0.931 . S
H2952 C2932 0.932 . S
H2953 C2933 0.930 . S
H2954 C2934 0.929 . S
H2955 C2936 0.930 . S
H2956 C2938 0.932 . S
H2957 C2939 0.929 . S
H2958 C2940 0.928 . S
H2959 C2942 0.932 . S
C2960 C2961 1.264 . S
C2960 C2965 1.479 . S
C2960 C2970 1.465 . S
C2961 C2960 1.264 . S
C2961 C2963 1.339 . S
C2961 H2988 0.931 . S
C2962 C2963 1.395 . S
C2962 C2964 1.320 . S
C2963 C2961 1.339 . S
C2963 C2962 1.395 . S
C2963 H2989 0.929 . S
C2964 C2962 1.320 . S
C2964 C2965 1.405 . S
C2964 H2990 0.930 . S
C2965 C2960 1.479 . S
C2965 C2964 1.405 . S
C2965 H2991 0.931 . S
U2966 O2967 2.454 . S
U2966 O2968 2.458 . S
U2966 C2969 2.984 . S
U2966 C2970 2.847 . S
U2966 C2983 2.882 . S
U2966 O2984 2.441 . S
U2966 O2985 2.420 . S
U2966 O2986 2.455 . S
U2966 O2987 2.449 . S
O2967 U2966 2.454 . S
O2967 C2969 1.353 . S
O2968 U2966 2.458 . S
O2968 C2969 1.286 . S
C2969 U2966 2.984 . S
C2969 O2967 1.353 . S
C2969 O2968 1.286 . S
C2969 C2971 1.363 . S
C2970 C2960 1.465 . S
C2970 U2966 2.847 . S
C2970 O2984 1.249 . S
C2970 O2985 1.202 . S
C2971 C2969 1.363 . S
C2971 C2973 1.408 . S
C2971 C2976 1.342 . S
C2972 C2973 1.310 . S
C2972 C2975 1.461 . S
C2972 H2992 0.932 . S
C2973 C2971 1.408 . S
C2973 C2972 1.310 . S
C2973 H2993 0.930 . S
C2974 C2975 1.474 . S
C2974 C2976 1.285 . S
C2974 H2994 0.929 . S
C2975 C2972 1.461 . S
C2975 C2974 1.474 . S
C2976 C2971 1.342 . S
C2976 C2974 1.285 . S
C2976 H2995 0.930 . S
C2977 C2980 1.424 . S
C2977 C2982 1.245 . S
C2977 C2983 1.428 . S
C2978 C2981 1.260 . S
C2978 C2982 1.477 . S
C2978 H2996 0.932 . S
C2979 C2980 1.384 . S
C2979 C2981 1.479 . S
C2979 H2997 0.929 . S
C2980 C2977 1.424 . S
C2980 C2979 1.384 . S
C2980 H2998 0.928 . S
C2981 C2978 1.260 . S
C2981 C2979 1.479 . S
C2982 C2977 1.245 . S
C2982 C2978 1.477 . S
C2982 H2999 0.932 . S
C2983 U2966 2.882 . S
C2983 C2977 1.428 . S
C2983 O2986 1.301 . S
C2983 O2987 1.282 . S
O2984 U2966 2.441 . S
O2984 C2970 1.249 . S
O2985 U2966 2.420 . S
O2985 C2970 1.202 . S
O2986 U2966 2.455 . S
O2986 C2983 1.301 . S
O2987 U2966 2.449 . S
O2987 C2983 1.282 . S
H2988 C2961 0.931 . S
H2989 C2963 0.929 . S
H2990 C2964 0.930 . S
H2991 C2965 0.931 . S
H2992 C2972 0.932 . S
H2993 C2973 0.930 . S
H2994 C2974 0.929 . S
H2995 C2976 0.930 . S
H2996 C2978 0.932 . S
H2997 C2979 0.929 . S
H2998 C2980 0.928 . S
H2999 C2982 0.932 . S
C3000 C3001 1.264 . S
C3000 C3005 1.479 . S
C3000 C3010 1.465 . S
C3001 C3000 1.264 . S
C3001 C3003 1.339 . S
C3001 H3028 0.931 . S
C3002 C3003 1.395 . S
C3002 C3004 1.320 . S
C3003 C3001 1.339 . S
C3003 C3002 1.395 . S
C3003 H3029 0.929 . S
C3004 C3002 1.320 . S
C3004 C3005 1.405 . S
C3004 H3030 0.930 . S
C3005 C3000 1.479 . S
C3005 C3004 1.405 . S
C3005 H3031 0.931 . S
U3006 O3007 2.454 . S
U3006 O3008 2.458 . S
U3006 C3009 2.984 . S
U3006 C3010 2.847 . S
U3006 C3023 2.882 . S
U3006 O3024 2.441 . S
U3006 O3025 2.420 . S
U3006 O3026 2.455 . S
U3006 O3027 2.449 . S
O3007 U3006 2.454 . S
O3007 C3009 1.353 . S
O3008 U3006 2.458 . S
O3008 C3009 1.286 . S
C3009 U3006 2.984 . S
C3009 O3007 1.353 . S
C3009 O3008 1.286 . S
C3009 C3011 1.363 . S
C3010 C3000 1.465 . S
C3010 U3006 2.847 . S
C3010 O3024 1.249 . S
C3010 O3025 1.202 . S
C3011 C3009 1.363 . S
C3011 C3013 1.408 . S
C3011 C3016 1.342 . S
C3012 C3013 1.310 . S
C3012 C3015 1.461 . S
C3012 H3032 0.932 . S
C3013 C3011 1.408 . S
C3013 C3012 1.310 . S
C3013 H3033 0.930 . S
C3014 C3015 1.474 . S
C3014 C3016 1.285 . S
C3014 H3034 0.929 . S
C3015 C3012 1.461 . S
C3015 C3014 1.474 . S
C3016 C3011 1.342 . S
C3016 C3014 1.285 . S
C3016 H3035 0.930 . S
C3017 C3020 1.424 . S
C3017 C3022 1.245 . S
C3017 C3023 1.428 . S
C3018 C3021 1.260 . S
C3018 C3022 1.477 . S
C3018 H3036 0.932 . S
C3019 C3020 1.384 . S
C3019 C3021 1.479 . S
C3019 H3037 0.929 . S
C3020 C3017 1.424 . S
C3020 C3019 1.384 . S
C3020 H3038 0.928 . S
C3021 C3018 1.260 . S
C3021 C3019 1.479 . S
C3022 C3017 1.245 . S
C3022 C3018 1.477 . S
C3022 H3039 0.932 . S
C3023 U3006 2.882 . S
C3023 C3017 1.428 . S
C3023 O3026 1.301 . S
C3023 O3027 1.282 . S
O3024 U3006 2.441 . S
O3024 C3010 1.249 . S
O3025 U3006 2.420 . S
O3025 C3010 1.202 . S
O3026 U3006 2.455 . S
O3026 C3023 1.301 . S
O3027 U3006 2.449 . S
O3027 C3023 1.282 . S
H3028 C3001 0.931 . S
H3029 C3003 0.929 . S
H3030 C3004 0.930 . S
H3031 C3005 0.931 . S
H3032 C3012 0.932 . S
H3033 C3013 0.930 . S
H3034 C3014 0.929 . S
H3035 C3016 0.930 . S
H3036 C3018 0.932 . S
H3037 C3019 0.929 . S
H3038 C3020 0.928 . S
H3039 C3022 0.932 . S
C3040 C3041 1.264 . S
C3040 C3045 1.479 . S
C3040 C3050 1.465 . S
C3041 C3040 1.264 . S
C3041 C3043 1.339 . S
C3041 H3068 0.931 . S
C3042 C3043 1.395 . S
C3042 C3044 1.320 . S
C3043 C3041 1.339 . S
C3043 C3042 1.395 . S
C3043 H3069 0.929 . S
C3044 C3042 1.320 . S
C3044 C3045 1.405 . S
C3044 H3070 0.930 . S
C3045 C3040 1.479 . S
C3045 C3044 1.405 . S
C3045 H3071 0.931 . S
U3046 O3047 2.454 . S
U3046 O3048 2.458 . S
U3046 C3049 2.984 . S
U3046 C3050 2.847 . S
U3046 C3063 2.882 . S
U3046 O3064 2.441 . S
U3046 O3065 2.420 . S
U3046 O3066 2.455 . S
U3046 O3067 2.449 . S
O3047 U3046 2.454 . S
O3047 C3049 1.353 . S
O3048 U3046 2.458 . S
O3048 C3049 1.286 . S
C3049 U3046 2.984 . S
C3049 O3047 1.353 . S
C3049 O3048 1.286 . S
C3049 C3051 1.363 . S
C3050 C3040 1.465 . S
C3050 U3046 2.847 . S
C3050 O3064 1.249 . S
C3050 O3065 1.202 . S
C3051 C3049 1.363 . S
C3051 C3053 1.408 . S
C3051 C3056 1.342 . S
C3052 C3053 1.310 . S
C3052 C3055 1.461 . S
C3052 H3072 0.932 . S
C3053 C3051 1.408 . S
C3053 C3052 1.310 . S
C3053 H3073 0.930 . S
C3054 C3055 1.474 . S
C3054 C3056 1.285 . S
C3054 H3074 0.929 . S
C3055 C3052 1.461 . S
C3055 C3054 1.474 . S
C3056 C3051 1.342 . S
C3056 C3054 1.285 . S
C3056 H3075 0.930 . S
C3057 C3060 1.424 . S
C3057 C3062 1.245 . S
C3057 C3063 1.428 . S
C3058 C3061 1.260 . S
C3058 C3062 1.477 . S
C3058 H3076 0.932 . S
C3059 C3060 1.384 . S
C3059 C3061 1.479 . S
C3059 H3077 0.929 . S
C3060 C3057 1.424 . S
C3060 C3059 1.384 . S
C3060 H3078 0.928 . S
C3061 C3058 1.260 . S
C3061 C3059 1.479 . S
C3062 C3057 1.245 . S
C3062 C3058 1.477 . S
C3062 H3079 0.932 . S
C3063 U3046 2.882 . S
C3063 C3057 1.428 . S
C3063 O3066 1.301 . S
C3063 O3067 1.282 . S
O3064 U3046 2.441 . S
O3064 C3050 1.249 . S
O3065 U3046 2.420 . S
O3065 C3050 1.202 . S
O3066 U3046 2.455 . S
O3066 C3063 1.301 . S
O3067 U3046 2.449 . S
O3067 C3063 1.282 . S
H3068 C3041 0.931 . S
H3069 C3043 0.929 . S
H3070 C3044 0.930 . S
H3071 C3045 0.931 . S
H3072 C3052 0.932 . S
H3073 C3053 0.930 . S
H3074 C3054 0.929 . S
H3075 C3056 0.930 . S
H3076 C3058 0.932 . S
H3077 C3059 0.929 . S
H3078 C3060 0.928 . S
H3079 C3062 0.932 . S
C3080 C3081 1.264 . S
C3080 C3085 1.479 . S
C3080 C3090 1.465 . S
C3081 C3080 1.264 . S
C3081 C3083 1.339 . S
C3081 H3108 0.931 . S
C3082 C3083 1.395 . S
C3082 C3084 1.320 . S
C3083 C3081 1.339 . S
C3083 C3082 1.395 . S
C3083 H3109 0.929 . S
C3084 C3082 1.320 . S
C3084 C3085 1.405 . S
C3084 H3110 0.930 . S
C3085 C3080 1.479 . S
C3085 C3084 1.405 . S
C3085 H3111 0.931 . S
U3086 O3087 2.454 . S
U3086 O3088 2.458 . S
U3086 C3089 2.984 . S
U3086 C3090 2.847 . S
U3086 C3103 2.882 . S
U3086 O3104 2.441 . S
U3086 O3105 2.420 . S
U3086 O3106 2.455 . S
U3086 O3107 2.449 . S
O3087 U3086 2.454 . S
O3087 C3089 1.353 . S
O3088 U3086 2.458 . S
O3088 C3089 1.286 . S
C3089 U3086 2.984 . S
C3089 O3087 1.353 . S
C3089 O3088 1.286 . S
C3089 C3091 1.363 . S
C3090 C3080 1.465 . S
C3090 U3086 2.847 . S
C3090 O3104 1.249 . S
C3090 O3105 1.202 . S
C3091 C3089 1.363 . S
C3091 C3093 1.408 . S
C3091 C3096 1.342 . S
C3092 C3093 1.310 . S
C3092 C3095 1.461 . S
C3092 H3112 0.932 . S
C3093 C3091 1.408 . S
C3093 C3092 1.310 . S
C3093 H3113 0.930 . S
C3094 C3095 1.474 . S
C3094 C3096 1.285 . S
C3094 H3114 0.929 . S
C3095 C3092 1.461 . S
C3095 C3094 1.474 . S
C3096 C3091 1.342 . S
C3096 C3094 1.285 . S
C3096 H3115 0.930 . S
C3097 C3100 1.424 . S
C3097 C3102 1.245 . S
C3097 C3103 1.428 . S
C3098 C3101 1.260 . S
C3098 C3102 1.477 . S
C3098 H3116 0.932 . S
C3099 C3100 1.384 . S
C3099 C3101 1.479 . S
C3099 H3117 0.929 . S
C3100 C3097 1.424 . S
C3100 C3099 1.384 . S
C3100 H3118 0.928 . S
C3101 C3098 1.260 . S
C3101 C3099 1.479 . S
C3102 C3097 1.245 . S
C3102 C3098 1.477 . S
C3102 H3119 0.932 . S
C3103 U3086 2.882 . S
C3103 C3097 1.428 . S
C3103 O3106 1.301 . S
C3103 O3107 1.282 . S
O3104 U3086 2.441 . S
O3104 C3090 1.249 . S
O3105 U3086 2.420 . S
O3105 C3090 1.202 . S
O3106 U3086 2.455 . S
O3106 C3103 1.301 . S
O3107 U3086 2.449 . S
O3107 C3103 1.282 . S
H3108 C3081 0.931 . S
H3109 C3083 0.929 . S
H3110 C3084 0.930 . S
H3111 C3085 0.931 . S
H3112 C3092 0.932 . S
H3113 C3093 0.930 . S
H3114 C3094 0.929 . S
H3115 C3096 0.930 . S
H3116 C3098 0.932 . S
H3117 C3099 0.929 . S
H3118 C3100 0.928 . S
H3119 C3102 0.932 . S
C3120 C3121 1.264 . S
C3120 C3125 1.479 . S
C3120 C3130 1.465 . S
C3121 C3120 1.264 . S
C3121 C3123 1.339 . S
C3121 H3148 0.931 . S
C3122 C3123 1.395 . S
C3122 C3124 1.320 . S
C3123 C3121 1.339 . S
C3123 C3122 1.395 . S
C3123 H3149 0.929 . S
C3124 C3122 1.320 . S
C3124 C3125 1.405 . S
C3124 H3150 0.930 . S
C3125 C3120 1.479 . S
C3125 C3124 1.405 . S
C3125 H3151 0.931 . S
U3126 O3127 2.454 . S
U3126 O3128 2.458 . S
U3126 C3129 2.984 . S
U3126 C3130 2.847 . S
U3126 C3143 2.882 . S
U3126 O3144 2.441 . S
U3126 O3145 2.420 . S
U3126 O3146 2.455 . S
U3126 O3147 2.449 . S
O3127 U3126 2.454 . S
O3127 C3129 1.353 . S
O3128 U3126 2.458 . S
O3128 C3129 1.286 . S
C3129 U3126 2.984 . S
C3129 O3127 1.353 . S
C3129 O3128 1.286 . S
C3129 C3131 1.363 . S
C3130 C3120 1.465 . S
C3130 U3126 2.847 . S
C3130 O3144 1.249 . S
C3130 O3145 1.202 . S
C3131 C3129 1.363 . S
C3131 C3133 1.408 . S
C3131 C3136 1.342 . S
C3132 C3133 1.310 . S
C3132 C3135 1.461 . S
C3132 H3152 0.932 . S
C3133 C3131 1.408 . S
C3133 C3132 1.310 . S
C3133 H3153 0.930 . S
C3134 C3135 1.474 . S
C3134 C3136 1.285 . S
C3134 H3154 0.929 . S
C3135 C3132 1.461 . S
C3135 C3134 1.474 . S
C3136 C3131 1.342 . S
C3136 C3134 1.285 . S
C3136 H3155 0.930 . S
C3137 C3140 1.424 . S
C3137 C3142 1.245 . S
C3137 C3143 1.428 . S
C3138 C3141 1.260 . S
C3138 C3142 1.477 . S
C3138 H3156 0.932 . S
C3139 C3140 1.384 . S
C3139 C3141 1.479 . S
C3139 H3157 0.929 . S
C3140 C3137 1.424 . S
C3140 C3139 1.384 . S
C3140 H3158 0.928 . S
C3141 C3138 1.260 . S
C3141 C3139 1.479 . S
C3142 C3137 1.245 . S
C3142 C3138 1.477 . S
C3142 H3159 0.932 . S
C3143 U3126 2.882 . S
C3143 C3137 1.428 . S
C3143 O3146 1.301 . S
C3143 O3147 1.282 . S
O3144 U3126 2.441 . S
O3144 C3130 1.249 . S
O3145 U3126 2.420 . S
O3145 C3130 1.202 . S
O3146 U3126 2.455 . S
O3146 C3143 1.301 . S
O3147 U3126 2.449 . S
O3147 C3143 1.282 . S
H3148 C3121 0.931 . S
H3149 C3123 0.929 . S
H3150 C3124 0.930 . S
H3151 C3125 0.931 . S
H3152 C3132 0.932 . S
H3153 C3133 0.930 . S
H3154 C3134 0.929 . S
H3155 C3136 0.930 . S
H3156 C3138 0.932 . S
H3157 C3139 0.929 . S
H3158 C3140 0.928 . S
H3159 C3142 0.932 . S
C3160 C3161 1.264 . S
C3160 C3165 1.479 . S
C3160 C3170 1.465 . S
C3161 C3160 1.264 . S
C3161 C3163 1.339 . S
C3161 H3188 0.931 . S
C3162 C3163 1.395 . S
C3162 C3164 1.320 . S
C3163 C3161 1.339 . S
C3163 C3162 1.395 . S
C3163 H3189 0.929 . S
C3164 C3162 1.320 . S
C3164 C3165 1.405 . S
C3164 H3190 0.930 . S
C3165 C3160 1.479 . S
C3165 C3164 1.405 . S
C3165 H3191 0.931 . S
U3166 O3167 2.454 . S
U3166 O3168 2.458 . S
U3166 C3169 2.984 . S
U3166 C3170 2.847 . S
U3166 C3183 2.882 . S
U3166 O3184 2.441 . S
U3166 O3185 2.420 . S
U3166 O3186 2.455 . S
U3166 O3187 2.449 . S
O3167 U3166 2.454 . S
O3167 C3169 1.353 . S
O3168 U3166 2.458 . S
O3168 C3169 1.286 . S
C3169 U3166 2.984 . S
C3169 O3167 1.353 . S
C3169 O3168 1.286 . S
C3169 C3171 1.363 . S
C3170 C3160 1.465 . S
C3170 U3166 2.847 . S
C3170 O3184 1.249 . S
C3170 O3185 1.202 . S
C3171 C3169 1.363 . S
C3171 C3173 1.408 . S
C3171 C3176 1.342 . S
C3172 C3173 1.310 . S
C3172 C3175 1.461 . S
C3172 H3192 0.932 . S
C3173 C3171 1.408 . S
C3173 C3172 1.310 . S
C3173 H3193 0.930 . S
C3174 C3175 1.474 . S
C3174 C3176 1.285 . S
C3174 H3194 0.929 . S
C3175 C3172 1.461 . S
C3175 C3174 1.474 . S
C3176 C3171 1.342 . S
C3176 C3174 1.285 . S
C3176 H3195 0.930 . S
C3177 C3180 1.424 . S
C3177 C3182 1.245 . S
C3177 C3183 1.428 . S
C3178 C3181 1.260 . S
C3178 C3182 1.477 . S
C3178 H3196 0.932 . S
C3179 C3180 1.384 . S
C3179 C3181 1.479 . S
C3179 H3197 0.929 . S
C3180 C3177 1.424 . S
C3180 C3179 1.384 . S
C3180 H3198 0.928 . S
C3181 C3178 1.260 . S
C3181 C3179 1.479 . S
C3182 C3177 1.245 . S
C3182 C3178 1.477 . S
C3182 H3199 0.932 . S
C3183 U3166 2.882 . S
C3183 C3177 1.428 . S
C3183 O3186 1.301 . S
C3183 O3187 1.282 . S
O3184 U3166 2.441 . S
O3184 C3170 1.249 . S
O3185 U3166 2.420 . S
O3185 C3170 1.202 . S
O3186 U3166 2.455 . S
O3186 C3183 1.301 . S
O3187 U3166 2.449 . S
O3187 C3183 1.282 . S
H3188 C3161 0.931 . S
H3189 C3163 0.929 . S
H3190 C3164 0.930 . S
H3191 C3165 0.931 . S
H3192 C3172 0.932 . S
H3193 C3173 0.930 . S
H3194 C3174 0.929 . S
H3195 C3176 0.930 . S
H3196 C3178 0.932 . S
H3197 C3179 0.929 . S
H3198 C3180 0.928 . S
H3199 C3182 0.932 . S
C3200 C3201 1.264 . S
C3200 C3205 1.479 . S
C3200 C3210 1.465 . S
C3201 C3200 1.264 . S
C3201 C3203 1.339 . S
C3201 H3228 0.931 . S
C3202 C3203 1.395 . S
C3202 C3204 1.320 . S
C3203 C3201 1.339 . S
C3203 C3202 1.395 . S
C3203 H3229 0.929 . S
C3204 C3202 1.320 . S
C3204 C3205 1.405 . S
C3204 H3230 0.930 . S
C3205 C3200 1.479 . S
C3205 C3204 1.405 . S
C3205 H3231 0.931 . S
U3206 O3207 2.454 . S
U3206 O3208 2.458 . S
U3206 C3209 2.984 . S
U3206 C3210 2.847 . S
U3206 C3223 2.882 . S
U3206 O3224 2.441 . S
U3206 O3225 2.420 . S
U3206 O3226 2.455 . S
U3206 O3227 2.449 . S
O3207 U3206 2.454 . S
O3207 C3209 1.353 . S
O3208 U3206 2.458 . S
O3208 C3209 1.286 . S
C3209 U3206 2.984 . S
C3209 O3207 1.353 . S
C3209 O3208 1.286 . S
C3209 C3211 1.363 . S
C3210 C3200 1.465 . S
C3210 U3206 2.847 . S
C3210 O3224 1.249 . S
C3210 O3225 1.202 . S
C3211 C3209 1.363 . S
C3211 C3213 1.408 . S
C3211 C3216 1.342 . S
C3212 C3213 1.310 . S
C3212 C3215 1.461 . S
C3212 H3232 0.932 . S
C3213 C3211 1.408 . S
C3213 C3212 1.310 . S
C3213 H3233 0.930 . S
C3214 C3215 1.474 . S
C3214 C3216 1.285 . S
C3214 H3234 0.929 . S
C3215 C3212 1.461 . S
C3215 C3214 1.474 . S
C3216 C3211 1.342 . S
C3216 C3214 1.285 . S
C3216 H3235 0.930 . S
C3217 C3220 1.424 . S
C3217 C3222 1.245 . S
C3217 C3223 1.428 . S
C3218 C3221 1.260 . S
C3218 C3222 1.477 . S
C3218 H3236 0.932 . S
C3219 C3220 1.384 . S
C3219 C3221 1.479 . S
C3219 H3237 0.929 . S
C3220 C3217 1.424 . S
C3220 C3219 1.384 . S
C3220 H3238 0.928 . S
C3221 C3218 1.260 . S
C3221 C3219 1.479 . S
C3222 C3217 1.245 . S
C3222 C3218 1.477 . S
C3222 H3239 0.932 . S
C3223 U3206 2.882 . S
C3223 C3217 1.428 . S
C3223 O3226 1.301 . S
C3223 O3227 1.282 . S
O3224 U3206 2.441 . S
O3224 C3210 1.249 . S
O3225 U3206 2.420 . S
O3225 C3210 1.202 . S
O3226 U3206 2.455 . S
O3226 C3223 1.301 . S
O3227 U3206 2.449 . S
O3227 C3223 1.282 . S
H3228 C3201 0.931 . S
H3229 C3203 0.929 . S
H3230 C3204 0.930 . S
H3231 C3205 0.931 . S
H3232 C3212 0.932 . S
H3233 C3213 0.930 . S
H3234 C3214 0.929 . S
H3235 C3216 0.930 . S
H3236 C3218 0.932 . S
H3237 C3219 0.929 . S
H3238 C3220 0.928 . S
H3239 C3222 0.932 . S
C3240 C3241 1.264 . S
C3240 C3245 1.479 . S
C3240 C3250 1.465 . S
C3241 C3240 1.264 . S
C3241 C3243 1.339 . S
C3241 H3268 0.931 . S
C3242 C3243 1.395 . S
C3242 C3244 1.320 . S
C3243 C3241 1.339 . S
C3243 C3242 1.395 . S
C3243 H3269 0.929 . S
C3244 C3242 1.320 . S
C3244 C3245 1.405 . S
C3244 H3270 0.930 . S
C3245 C3240 1.479 . S
C3245 C3244 1.405 . S
C3245 H3271 0.931 . S
U3246 O3247 2.454 . S
U3246 O3248 2.458 . S
U3246 C3249 2.984 . S
U3246 C3250 2.847 . S
U3246 C3263 2.882 . S
U3246 O3264 2.441 . S
U3246 O3265 2.420 . S
U3246 O3266 2.455 . S
U3246 O3267 2.449 . S
O3247 U3246 2.454 . S
O3247 C3249 1.353 . S
O3248 U3246 2.458 . S
O3248 C3249 1.286 . S
C3249 U3246 2.984 . S
C3249 O3247 1.353 . S
C3249 O3248 1.286 . S
C3249 C3251 1.363 . S
C3250 C3240 1.465 . S
C3250 U3246 2.847 . S
C3250 O3264 1.249 . S
C3250 O3265 1.202 . S
C3251 C3249 1.363 . S
C3251 C3253 1.408 . S
C3251 C3256 1.342 . S
C3252 C3253 1.310 . S
C3252 C3255 1.461 . S
C3252 H3272 0.932 . S
C3253 C3251 1.408 . S
C3253 C3252 1.310 . S
C3253 H3273 0.930 . S
C3254 C3255 1.474 . S
C3254 C3256 1.285 . S
C3254 H3274 0.929 . S
C3255 C3252 1.461 . S
C3255 C3254 1.474 . S
C3256 C3251 1.342 . S
C3256 C3254 1.285 . S
C3256 H3275 0.930 . S
C3257 C3260 1.424 . S
C3257 C3262 1.245 . S
C3257 C3263 1.428 . S
C3258 C3261 1.260 . S
C3258 C3262 1.477 . S
C3258 H3276 0.932 . S
C3259 C3260 1.384 . S
C3259 C3261 1.479 . S
C3259 H3277 0.929 . S
C3260 C3257 1.424 . S
C3260 C3259 1.384 . S
C3260 H3278 0.928 . S
C3261 C3258 1.260 . S
C3261 C3259 1.479 . S
C3262 C3257 1.245 . S
C3262 C3258 1.477 . S
C3262 H3279 0.932 . S
C3263 U3246 2.882 . S
C3263 C3257 1.428 . S
C3263 O3266 1.301 . S
C3263 O3267 1.282 . S
O3264 U3246 2.441 . S
O3264 C3250 1.249 . S
O3265 U3246 2.420 . S
O3265 C3250 1.202 . S
O3266 U3246 2.455 . S
O3266 C3263 1.301 . S
O3267 U3246 2.449 . S
O3267 C3263 1.282 . S
H3268 C3241 0.931 . S
H3269 C3243 0.929 . S
H3270 C3244 0.930 . S
H3271 C3245 0.931 . S
H3272 C3252 0.932 . S
H3273 C3253 0.930 . S
H3274 C3254 0.929 . S
H3275 C3256 0.930 . S
H3276 C3258 0.932 . S
H3277 C3259 0.929 . S
H3278 C3260 0.928 . S
H3279 C3262 0.932 . S
C3280 C3281 1.264 . S
C3280 C3285 1.479 . S
C3280 C3290 1.465 . S
C3281 C3280 1.264 . S
C3281 C3283 1.339 . S
C3281 H3308 0.931 . S
C3282 C3283 1.395 . S
C3282 C3284 1.320 . S
C3283 C3281 1.339 . S
C3283 C3282 1.395 . S
C3283 H3309 0.929 . S
C3284 C3282 1.320 . S
C3284 C3285 1.405 . S
C3284 H3310 0.930 . S
C3285 C3280 1.479 . S
C3285 C3284 1.405 . S
C3285 H3311 0.931 . S
U3286 O3287 2.454 . S
U3286 O3288 2.458 . S
U3286 C3289 2.984 . S
U3286 C3290 2.847 . S
U3286 C3303 2.882 . S
U3286 O3304 2.441 . S
U3286 O3305 2.420 . S
U3286 O3306 2.455 . S
U3286 O3307 2.449 . S
O3287 U3286 2.454 . S
O3287 C3289 1.353 . S
O3288 U3286 2.458 . S
O3288 C3289 1.286 . S
C3289 U3286 2.984 . S
C3289 O3287 1.353 . S
C3289 O3288 1.286 . S
C3289 C3291 1.363 . S
C3290 C3280 1.465 . S
C3290 U3286 2.847 . S
C3290 O3304 1.249 . S
C3290 O3305 1.202 . S
C3291 C3289 1.363 . S
C3291 C3293 1.408 . S
C3291 C3296 1.342 . S
C3292 C3293 1.310 . S
C3292 C3295 1.461 . S
C3292 H3312 0.932 . S
C3293 C3291 1.408 . S
C3293 C3292 1.310 . S
C3293 H3313 0.930 . S
C3294 C3295 1.474 . S
C3294 C3296 1.285 . S
C3294 H3314 0.929 . S
C3295 C3292 1.461 . S
C3295 C3294 1.474 . S
C3296 C3291 1.342 . S
C3296 C3294 1.285 . S
C3296 H3315 0.930 . S
C3297 C3300 1.424 . S
C3297 C3302 1.245 . S
C3297 C3303 1.428 . S
C3298 C3301 1.260 . S
C3298 C3302 1.477 . S
C3298 H3316 0.932 . S
C3299 C3300 1.384 . S
C3299 C3301 1.479 . S
C3299 H3317 0.929 . S
C3300 C3297 1.424 . S
C3300 C3299 1.384 . S
C3300 H3318 0.928 . S
C3301 C3298 1.260 . S
C3301 C3299 1.479 . S
C3302 C3297 1.245 . S
C3302 C3298 1.477 . S
C3302 H3319 0.932 . S
C3303 U3286 2.882 . S
C3303 C3297 1.428 . S
C3303 O3306 1.301 . S
C3303 O3307 1.282 . S
O3304 U3286 2.441 . S
O3304 C3290 1.249 . S
O3305 U3286 2.420 . S
O3305 C3290 1.202 . S
O3306 U3286 2.455 . S
O3306 C3303 1.301 . S
O3307 U3286 2.449 . S
O3307 C3303 1.282 . S
H3308 C3281 0.931 . S
H3309 C3283 0.929 . S
H3310 C3284 0.930 . S
H3311 C3285 0.931 . S
H3312 C3292 0.932 . S
H3313 C3293 0.930 . S
H3314 C3294 0.929 . S
H3315 C3296 0.930 . S
H3316 C3298 0.932 . S
H3317 C3299 0.929 . S
H3318 C3300 0.928 . S
H3319 C3302 0.932 . S
C3320 C3321 1.264 . S
C3320 C3325 1.479 . S
C3320 C3330 1.465 . S
C3321 C3320 1.264 . S
C3321 C3323 1.339 . S
C3321 H3348 0.931 . S
C3322 C3323 1.395 . S
C3322 C3324 1.320 . S
C3323 C3321 1.339 . S
C3323 C3322 1.395 . S
C3323 H3349 0.929 . S
C3324 C3322 1.320 . S
C3324 C3325 1.405 . S
C3324 H3350 0.930 . S
C3325 C3320 1.479 . S
C3325 C3324 1.405 . S
C3325 H3351 0.931 . S
U3326 O3327 2.454 . S
U3326 O3328 2.458 . S
U3326 C3329 2.984 . S
U3326 C3330 2.847 . S
U3326 C3343 2.882 . S
U3326 O3344 2.441 . S
U3326 O3345 2.420 . S
U3326 O3346 2.455 . S
U3326 O3347 2.449 . S
O3327 U3326 2.454 . S
O3327 C3329 1.353 . S
O3328 U3326 2.458 . S
O3328 C3329 1.286 . S
C3329 U3326 2.984 . S
C3329 O3327 1.353 . S
C3329 O3328 1.286 . S
C3329 C3331 1.363 . S
C3330 C3320 1.465 . S
C3330 U3326 2.847 . S
C3330 O3344 1.249 . S
C3330 O3345 1.202 . S
C3331 C3329 1.363 . S
C3331 C3333 1.408 . S
C3331 C3336 1.342 . S
C3332 C3333 1.310 . S
C3332 C3335 1.461 . S
C3332 H3352 0.932 . S
C3333 C3331 1.408 . S
C3333 C3332 1.310 . S
C3333 H3353 0.930 . S
C3334 C3335 1.474 . S
C3334 C3336 1.285 . S
C3334 H3354 0.929 . S
C3335 C3332 1.461 . S
C3335 C3334 1.474 . S
C3336 C3331 1.342 . S
C3336 C3334 1.285 . S
C3336 H3355 0.930 . S
C3337 C3340 1.424 . S
C3337 C3342 1.245 . S
C3337 C3343 1.428 . S
C3338 C3341 1.260 . S
C3338 C3342 1.477 . S
C3338 H3356 0.932 . S
C3339 C3340 1.384 . S
C3339 C3341 1.479 . S
C3339 H3357 0.929 . S
C3340 C3337 1.424 . S
C3340 C3339 1.384 . S
C3340 H3358 0.928 . S
C3341 C3338 1.260 . S
C3341 C3339 1.479 . S
C3342 C3337 1.245 . S
C3342 C3338 1.477 . S
C3342 H3359 0.932 . S
C3343 U3326 2.882 . S
C3343 C3337 1.428 . S
C3343 O3346 1.301 . S
C3343 O3347 1.282 . S
O3344 U3326 2.441 . S
O3344 C3330 1.249 . S
O3345 U3326 2.420 . S
O3345 C3330 1.202 . S
O3346 U3326 2.455 . S
O3346 C3343 1.301 . S
O3347 U3326 2.449 . S
O3347 C3343 1.282 . S
H3348 C3321 0.931 . S
H3349 C3323 0.929 . S
H3350 C3324 0.930 . S
H3351 C3325 0.931 . S
H3352 C3332 0.932 . S
H3353 C3333 0.930 . S
H3354 C3334 0.929 . S
H3355 C3336 0.930 . S
H3356 C3338 0.932 . S
H3357 C3339 0.929 . S
H3358 C3340 0.928 . S
H3359 C3342 0.932 . S
C3360 C3361 1.264 . S
C3360 C3365 1.479 . S
C3360 C3370 1.465 . S
C3361 C3360 1.264 . S
C3361 C3363 1.339 . S
C3361 H3388 0.931 . S
C3362 C3363 1.395 . S
C3362 C3364 1.320 . S
C3363 C3361 1.339 . S
C3363 C3362 1.395 . S
C3363 H3389 0.929 . S
C3364 C3362 1.320 . S
C3364 C3365 1.405 . S
C3364 H3390 0.930 . S
C3365 C3360 1.479 . S
C3365 C3364 1.405 . S
C3365 H3391 0.931 . S
U3366 O3367 2.454 . S
U3366 O3368 2.458 . S
U3366 C3369 2.984 . S
U3366 C3370 2.847 . S
U3366 C3383 2.882 . S
U3366 O3384 2.441 . S
U3366 O3385 2.420 . S
U3366 O3386 2.455 . S
U3366 O3387 2.449 . S
O3367 U3366 2.454 . S
O3367 C3369 1.353 . S
O3368 U3366 2.458 . S
O3368 C3369 1.286 . S
C3369 U3366 2.984 . S
C3369 O3367 1.353 . S
C3369 O3368 1.286 . S
C3369 C3371 1.363 . S
C3370 C3360 1.465 . S
C3370 U3366 2.847 . S
C3370 O3384 1.249 . S
C3370 O3385 1.202 . S
C3371 C3369 1.363 . S
C3371 C3373 1.408 . S
C3371 C3376 1.342 . S
C3372 C3373 1.310 . S
C3372 C3375 1.461 . S
C3372 H3392 0.932 . S
C3373 C3371 1.408 . S
C3373 C3372 1.310 . S
C3373 H3393 0.930 . S
C3374 C3375 1.474 . S
C3374 C3376 1.285 . S
C3374 H3394 0.929 . S
C3375 C3372 1.461 . S
C3375 C3374 1.474 . S
C3376 C3371 1.342 . S
C3376 C3374 1.285 . S
C3376 H3395 0.930 . S
C3377 C3380 1.424 . S
C3377 C3382 1.245 . S
C3377 C3383 1.428 . S
C3378 C3381 1.260 . S
C3378 C3382 1.477 . S
C3378 H3396 0.932 . S
C3379 C3380 1.384 . S
C3379 C3381 1.479 . S
C3379 H3397 0.929 . S
C3380 C3377 1.424 . S
C3380 C3379 1.384 . S
C3380 H3398 0.928 . S
C3381 C3378 1.260 . S
C3381 C3379 1.479 . S
C3382 C3377 1.245 . S
C3382 C3378 1.477 . S
C3382 H3399 0.932 . S
C3383 U3366 2.882 . S
C3383 C3377 1.428 . S
C3383 O3386 1.301 . S
C3383 O3387 1.282 . S
O3384 U3366 2.441 . S
O3384 C3370 1.249 . S
O3385 U3366 2.420 . S
O3385 C3370 1.202 . S
O3386 U3366 2.455 . S
O3386 C3383 1.301 . S
O3387 U3366 2.449 . S
O3387 C3383 1.282 . S
H3388 C3361 0.931 . S
H3389 C3363 0.929 . S
H3390 C3364 0.930 . S
H3391 C3365 0.931 . S
H3392 C3372 0.932 . S
H3393 C3373 0.930 . S
H3394 C3374 0.929 . S
H3395 C3376 0.930 . S
H3396 C3378 0.932 . S
H3397 C3379 0.929 . S
H3398 C3380 0.928 . S
H3399 C3382 0.932 . S
C3400 C3401 1.264 . S
C3400 C3405 1.479 . S
C3400 C3410 1.465 . S
C3401 C3400 1.264 . S
C3401 C3403 1.339 . S
C3401 H3428 0.931 . S
C3402 C3403 1.395 . S
C3402 C3404 1.320 . S
C3403 C3401 1.339 . S
C3403 C3402 1.395 . S
C3403 H3429 0.929 . S
C3404 C3402 1.320 . S
C3404 C3405 1.405 . S
C3404 H3430 0.930 . S
C3405 C3400 1.479 . S
C3405 C3404 1.405 . S
C3405 H3431 0.931 . S
U3406 O3407 2.454 . S
U3406 O3408 2.458 . S
U3406 C3409 2.984 . S
U3406 C3410 2.847 . S
U3406 C3423 2.882 . S
U3406 O3424 2.441 . S
U3406 O3425 2.420 . S
U3406 O3426 2.455 . S
U3406 O3427 2.449 . S
O3407 U3406 2.454 . S
O3407 C3409 1.353 . S
O3408 U3406 2.458 . S
O3408 C3409 1.286 . S
C3409 U3406 2.984 . S
C3409 O3407 1.353 . S
C3409 O3408 1.286 . S
C3409 C3411 1.363 . S
C3410 C3400 1.465 . S
C3410 U3406 2.847 . S
C3410 O3424 1.249 . S
C3410 O3425 1.202 . S
C3411 C3409 1.363 . S
C3411 C3413 1.408 . S
C3411 C3416 1.342 . S
C3412 C3413 1.310 . S
C3412 C3415 1.461 . S
C3412 H3432 0.932 . S
C3413 C3411 1.408 . S
C3413 C3412 1.310 . S
C3413 H3433 0.930 . S
C3414 C3415 1.474 . S
C3414 C3416 1.285 . S
C3414 H3434 0.929 . S
C3415 C3412 1.461 . S
C3415 C3414 1.474 . S
C3416 C3411 1.342 . S
C3416 C3414 1.285 . S
C3416 H3435 0.930 . S
C3417 C3420 1.424 . S
C3417 C3422 1.245 . S
C3417 C3423 1.428 . S
C3418 C3421 1.260 . S
C3418 C3422 1.477 . S
C3418 H3436 0.932 . S
C3419 C3420 1.384 . S
C3419 C3421 1.479 . S
C3419 H3437 0.929 . S
C3420 C3417 1.424 . S
C3420 C3419 1.384 . S
C3420 H3438 0.928 . S
C3421 C3418 1.260 . S
C3421 C3419 1.479 . S
C3422 C3417 1.245 . S
C3422 C3418 1.477 . S
C3422 H3439 0.932 . S
C3423 U3406 2.882 . S
C3423 C3417 1.428 . S
C3423 O3426 1.301 . S
C3423 O3427 1.282 . S
O3424 U3406 2.441 . S
O3424 C3410 1.249 . S
O3425 U3406 2.420 . S
O3425 C3410 1.202 . S
O3426 U3406 2.455 . S
O3426 C3423 1.301 . S
O3427 U3406 2.449 . S
O3427 C3423 1.282 . S
H3428 C3401 0.931 . S
H3429 C3403 0.929 . S
H3430 C3404 0.930 . S
H3431 C3405 0.931 . S
H3432 C3412 0.932 . S
H3433 C3413 0.930 . S
H3434 C3414 0.929 . S
H3435 C3416 0.930 . S
H3436 C3418 0.932 . S
H3437 C3419 0.929 . S
H3438 C3420 0.928 . S
H3439 C3422 0.932 . S
C3440 C3441 1.264 . S
C3440 C3445 1.479 . S
C3440 C3450 1.465 . S
C3441 C3440 1.264 . S
C3441 C3443 1.339 . S
C3441 H3468 0.931 . S
C3442 C3443 1.395 . S
C3442 C3444 1.320 . S
C3443 C3441 1.339 . S
C3443 C3442 1.395 . S
C3443 H3469 0.929 . S
C3444 C3442 1.320 . S
C3444 C3445 1.405 . S
C3444 H3470 0.930 . S
C3445 C3440 1.479 . S
C3445 C3444 1.405 . S
C3445 H3471 0.931 . S
U3446 O3447 2.454 . S
U3446 O3448 2.458 . S
U3446 C3449 2.984 . S
U3446 C3450 2.847 . S
U3446 C3463 2.882 . S
U3446 O3464 2.441 . S
U3446 O3465 2.420 . S
U3446 O3466 2.455 . S
U3446 O3467 2.449 . S
O3447 U3446 2.454 . S
O3447 C3449 1.353 . S
O3448 U3446 2.458 . S
O3448 C3449 1.286 . S
C3449 U3446 2.984 . S
C3449 O3447 1.353 . S
C3449 O3448 1.286 . S
C3449 C3451 1.363 . S
C3450 C3440 1.465 . S
C3450 U3446 2.847 . S
C3450 O3464 1.249 . S
C3450 O3465 1.202 . S
C3451 C3449 1.363 . S
C3451 C3453 1.408 . S
C3451 C3456 1.342 . S
C3452 C3453 1.310 . S
C3452 C3455 1.461 . S
C3452 H3472 0.932 . S
C3453 C3451 1.408 . S
C3453 C3452 1.310 . S
C3453 H3473 0.930 . S
C3454 C3455 1.474 . S
C3454 C3456 1.285 . S
C3454 H3474 0.929 . S
C3455 C3452 1.461 . S
C3455 C3454 1.474 . S
C3456 C3451 1.342 . S
C3456 C3454 1.285 . S
C3456 H3475 0.930 . S
C3457 C3460 1.424 . S
C3457 C3462 1.245 . S
C3457 C3463 1.428 . S
C3458 C3461 1.260 . S
C3458 C3462 1.477 . S
C3458 H3476 0.932 . S
C3459 C3460 1.384 . S
C3459 C3461 1.479 . S
C3459 H3477 0.929 . S
C3460 C3457 1.424 . S
C3460 C3459 1.384 . S
C3460 H3478 0.928 . S
C3461 C3458 1.260 . S
C3461 C3459 1.479 . S
C3462 C3457 1.245 . S
C3462 C3458 1.477 . S
C3462 H3479 0.932 . S
C3463 U3446 2.882 . S
C3463 C3457 1.428 . S
C3463 O3466 1.301 . S
C3463 O3467 1.282 . S
O3464 U3446 2.441 . S
O3464 C3450 1.249 . S
O3465 U3446 2.420 . S
O3465 C3450 1.202 . S
O3466 U3446 2.455 . S
O3466 C3463 1.301 . S
O3467 U3446 2.449 . S
O3467 C3463 1.282 . S
H3468 C3441 0.931 . S
H3469 C3443 0.929 . S
H3470 C3444 0.930 . S
H3471 C3445 0.931 . S
H3472 C3452 0.932 . S
H3473 C3453 0.930 . S
H3474 C3454 0.929 . S
H3475 C3456 0.930 . S
H3476 C3458 0.932 . S
H3477 C3459 0.929 . S
H3478 C3460 0.928 . S
H3479 C3462 0.932 . S
C3480 C3481 1.264 . S
C3480 C3485 1.479 . S
C3480 C3490 1.465 . S
C3481 C3480 1.264 . S
C3481 C3483 1.339 . S
C3481 H3508 0.931 . S
C3482 C3483 1.395 . S
C3482 C3484 1.320 . S
C3483 C3481 1.339 . S
C3483 C3482 1.395 . S
C3483 H3509 0.929 . S
C3484 C3482 1.320 . S
C3484 C3485 1.405 . S
C3484 H3510 0.930 . S
C3485 C3480 1.479 . S
C3485 C3484 1.405 . S
C3485 H3511 0.931 . S
U3486 O3487 2.454 . S
U3486 O3488 2.458 . S
U3486 C3489 2.984 . S
U3486 C3490 2.847 . S
U3486 C3503 2.882 . S
U3486 O3504 2.441 . S
U3486 O3505 2.420 . S
U3486 O3506 2.455 . S
U3486 O3507 2.449 . S
O3487 U3486 2.454 . S
O3487 C3489 1.353 . S
O3488 U3486 2.458 . S
O3488 C3489 1.286 . S
C3489 U3486 2.984 . S
C3489 O3487 1.353 . S
C3489 O3488 1.286 . S
C3489 C3491 1.363 . S
C3490 C3480 1.465 . S
C3490 U3486 2.847 . S
C3490 O3504 1.249 . S
C3490 O3505 1.202 . S
C3491 C3489 1.363 . S
C3491 C3493 1.408 . S
C3491 C3496 1.342 . S
C3492 C3493 1.310 . S
C3492 C3495 1.461 . S
C3492 H3512 0.932 . S
C3493 C3491 1.408 . S
C3493 C3492 1.310 . S
C3493 H3513 0.930 . S
C3494 C3495 1.474 . S
C3494 C3496 1.285 . S
C3494 H3514 0.929 . S
C3495 C3492 1.461 . S
C3495 C3494 1.474 . S
C3496 C3491 1.342 . S
C3496 C3494 1.285 . S
C3496 H3515 0.930 . S
C3497 C3500 1.424 . S
C3497 C3502 1.245 . S
C3497 C3503 1.428 . S
C3498 C3501 1.260 . S
C3498 C3502 1.477 . S
C3498 H3516 0.932 . S
C3499 C3500 1.384 . S
C3499 C3501 1.479 . S
C3499 H3517 0.929 . S
C3500 C3497 1.424 . S
C3500 C3499 1.384 . S
C3500 H3518 0.928 . S
C3501 C3498 1.260 . S
C3501 C3499 1.479 . S
C3502 C3497 1.245 . S
C3502 C3498 1.477 . S
C3502 H3519 0.932 . S
C3503 U3486 2.882 . S
C3503 C3497 1.428 . S
C3503 O3506 1.301 . S
C3503 O3507 1.282 . S
O3504 U3486 2.441 . S
O3504 C3490 1.249 . S
O3505 U3486 2.420 . S
O3505 C3490 1.202 . S
O3506 U3486 2.455 . S
O3506 C3503 1.301 . S
O3507 U3486 2.449 . S
O3507 C3503 1.282 . S
H3508 C3481 0.931 . S
H3509 C3483 0.929 . S
H3510 C3484 0.930 . S
H3511 C3485 0.931 . S
H3512 C3492 0.932 . S
H3513 C3493 0.930 . S
H3514 C3494 0.929 . S
H3515 C3496 0.930 . S
H3516 C3498 0.932 . S
H3517 C3499 0.929 . S
H3518 C3500 0.928 . S
H3519 C3502 0.932 . S
C3520 C3521 1.264 . S
C3520 C3525 1.479 . S
C3520 C3530 1.465 . S
C3521 C3520 1.264 . S
C3521 C3523 1.339 . S
C3521 H3548 0.931 . S
C3522 C3523 1.395 . S
C3522 C3524 1.320 . S
C3523 C3521 1.339 . S
C3523 C3522 1.395 . S
C3523 H3549 0.929 . S
C3524 C3522 1.320 . S
C3524 C3525 1.405 . S
C3524 H3550 0.930 . S
C3525 C3520 1.479 . S
C3525 C3524 1.405 . S
C3525 H3551 0.931 . S
U3526 O3527 2.454 . S
U3526 O3528 2.458 . S
U3526 C3529 2.984 . S
U3526 C3530 2.847 . S
U3526 C3543 2.882 . S
U3526 O3544 2.441 . S
U3526 O3545 2.420 . S
U3526 O3546 2.455 . S
U3526 O3547 2.449 . S
O3527 U3526 2.454 . S
O3527 C3529 1.353 . S
O3528 U3526 2.458 . S
O3528 C3529 1.286 . S
C3529 U3526 2.984 . S
C3529 O3527 1.353 . S
C3529 O3528 1.286 . S
C3529 C3531 1.363 . S
C3530 C3520 1.465 . S
C3530 U3526 2.847 . S
C3530 O3544 1.249 . S
C3530 O3545 1.202 . S
C3531 C3529 1.363 . S
C3531 C3533 1.408 . S
C3531 C3536 1.342 . S
C3532 C3533 1.310 . S
C3532 C3535 1.461 . S
C3532 H3552 0.932 . S
C3533 C3531 1.408 . S
C3533 C3532 1.310 . S
C3533 H3553 0.930 . S
C3534 C3535 1.474 . S
C3534 C3536 1.285 . S
C3534 H3554 0.929 . S
C3535 C3532 1.461 . S
C3535 C3534 1.474 . S
C3536 C3531 1.342 . S
C3536 C3534 1.285 . S
C3536 H3555 0.930 . S
C3537 C3540 1.424 . S
C3537 C3542 1.245 . S
C3537 C3543 1.428 . S
C3538 C3541 1.260 . S
C3538 C3542 1.477 . S
C3538 H3556 0.932 . S
C3539 C3540 1.384 . S
C3539 C3541 1.479 . S
C3539 H3557 0.929 . S
C3540 C3537 1.424 . S
C3540 C3539 1.384 . S
C3540 H3558 0.928 . S
C3541 C3538 1.260 . S
C3541 C3539 1.479 . S
C3542 C3537 1.245 . S
C3542 C3538 1.477 . S
C3542 H3559 0.932 . S
C3543 U3526 2.882 . S
C3543 C3537 1.428 . S
C3543 O3546 1.301 . S
C3543 O3547 1.282 . S
O3544 U3526 2.441 . S
O3544 C3530 1.249 . S
O3545 U3526 2.420 . S
O3545 C3530 1.202 . S
O3546 U3526 2.455 . S
O3546 C3543 1.301 . S
O3547 U3526 2.449 . S
O3547 C3543 1.282 . S
H3548 C3521 0.931 . S
H3549 C3523 0.929 . S
H3550 C3524 0.930 . S
H3551 C3525 0.931 . S
H3552 C3532 0.932 . S
H3553 C3533 0.930 . S
H3554 C3534 0.929 . S
H3555 C3536 0.930 . S
H3556 C3538 0.932 . S
H3557 C3539 0.929 . S
H3558 C3540 0.928 . S
H3559 C3542 0.932 . S
C3560 C3561 1.264 . S
C3560 C3565 1.479 . S
C3560 C3570 1.465 . S
C3561 C3560 1.264 . S
C3561 C3563 1.339 . S
C3561 H3588 0.931 . S
C3562 C3563 1.395 . S
C3562 C3564 1.320 . S
C3563 C3561 1.339 . S
C3563 C3562 1.395 . S
C3563 H3589 0.929 . S
C3564 C3562 1.320 . S
C3564 C3565 1.405 . S
C3564 H3590 0.930 . S
C3565 C3560 1.479 . S
C3565 C3564 1.405 . S
C3565 H3591 0.931 . S
U3566 O3567 2.454 . S
U3566 O3568 2.458 . S
U3566 C3569 2.984 . S
U3566 C3570 2.847 . S
U3566 C3583 2.882 . S
U3566 O3584 2.441 . S
U3566 O3585 2.420 . S
U3566 O3586 2.455 . S
U3566 O3587 2.449 . S
O3567 U3566 2.454 . S
O3567 C3569 1.353 . S
O3568 U3566 2.458 . S
O3568 C3569 1.286 . S
C3569 U3566 2.984 . S
C3569 O3567 1.353 . S
C3569 O3568 1.286 . S
C3569 C3571 1.363 . S
C3570 C3560 1.465 . S
C3570 U3566 2.847 . S
C3570 O3584 1.249 . S
C3570 O3585 1.202 . S
C3571 C3569 1.363 . S
C3571 C3573 1.408 . S
C3571 C3576 1.342 . S
C3572 C3573 1.310 . S
C3572 C3575 1.461 . S
C3572 H3592 0.932 . S
C3573 C3571 1.408 . S
C3573 C3572 1.310 . S
C3573 H3593 0.930 . S
C3574 C3575 1.474 . S
C3574 C3576 1.285 . S
C3574 H3594 0.929 . S
C3575 C3572 1.461 . S
C3575 C3574 1.474 . S
C3576 C3571 1.342 . S
C3576 C3574 1.285 . S
C3576 H3595 0.930 . S
C3577 C3580 1.424 . S
C3577 C3582 1.245 . S
C3577 C3583 1.428 . S
C3578 C3581 1.260 . S
C3578 C3582 1.477 . S
C3578 H3596 0.932 . S
C3579 C3580 1.384 . S
C3579 C3581 1.479 . S
C3579 H3597 0.929 . S
C3580 C3577 1.424 . S
C3580 C3579 1.384 . S
C3580 H3598 0.928 . S
C3581 C3578 1.260 . S
C3581 C3579 1.479 . S
C3582 C3577 1.245 . S
C3582 C3578 1.477 . S
C3582 H3599 0.932 . S
C3583 U3566 2.882 . S
C3583 C3577 1.428 . S
C3583 O3586 1.301 . S
C3583 O3587 1.282 . S
O3584 U3566 2.441 . S
O3584 C3570 1.249 . S
O3585 U3566 2.420 . S
O3585 C3570 1.202 . S
O3586 U3566 2.455 . S
O3586 C3583 1.301 . S
O3587 U3566 2.449 . S
O3587 C3583 1.282 . S
H3588 C3561 0.931 . S
H3589 C3563 0.929 . S
H3590 C3564 0.930 . S
H3591 C3565 0.931 . S
H3592 C3572 0.932 . S
H3593 C3573 0.930 . S
H3594 C3574 0.929 . S
H3595 C3576 0.930 . S
H3596 C3578 0.932 . S
H3597 C3579 0.929 . S
H3598 C3580 0.928 . S
H3599 C3582 0.932 . S
C3600 C3601 1.264 . S
C3600 C3605 1.479 . S
C3600 C3610 1.465 . S
C3601 C3600 1.264 . S
C3601 C3603 1.339 . S
C3601 H3628 0.931 . S
C3602 C3603 1.395 . S
C3602 C3604 1.320 . S
C3603 C3601 1.339 . S
C3603 C3602 1.395 . S
C3603 H3629 0.929 . S
C3604 C3602 1.320 . S
C3604 C3605 1.405 . S
C3604 H3630 0.930 . S
C3605 C3600 1.479 . S
C3605 C3604 1.405 . S
C3605 H3631 0.931 . S
U3606 O3607 2.454 . S
U3606 O3608 2.458 . S
U3606 C3609 2.984 . S
U3606 C3610 2.847 . S
U3606 C3623 2.882 . S
U3606 O3624 2.441 . S
U3606 O3625 2.420 . S
U3606 O3626 2.455 . S
U3606 O3627 2.449 . S
O3607 U3606 2.454 . S
O3607 C3609 1.353 . S
O3608 U3606 2.458 . S
O3608 C3609 1.286 . S
C3609 U3606 2.984 . S
C3609 O3607 1.353 . S
C3609 O3608 1.286 . S
C3609 C3611 1.363 . S
C3610 C3600 1.465 . S
C3610 U3606 2.847 . S
C3610 O3624 1.249 . S
C3610 O3625 1.202 . S
C3611 C3609 1.363 . S
C3611 C3613 1.408 . S
C3611 C3616 1.342 . S
C3612 C3613 1.310 . S
C3612 C3615 1.461 . S
C3612 H3632 0.932 . S
C3613 C3611 1.408 . S
C3613 C3612 1.310 . S
C3613 H3633 0.930 . S
C3614 C3615 1.474 . S
C3614 C3616 1.285 . S
C3614 H3634 0.929 . S
C3615 C3612 1.461 . S
C3615 C3614 1.474 . S
C3616 C3611 1.342 . S
C3616 C3614 1.285 . S
C3616 H3635 0.930 . S
C3617 C3620 1.424 . S
C3617 C3622 1.245 . S
C3617 C3623 1.428 . S
C3618 C3621 1.260 . S
C3618 C3622 1.477 . S
C3618 H3636 0.932 . S
C3619 C3620 1.384 . S
C3619 C3621 1.479 . S
C3619 H3637 0.929 . S
C3620 C3617 1.424 . S
C3620 C3619 1.384 . S
C3620 H3638 0.928 . S
C3621 C3618 1.260 . S
C3621 C3619 1.479 . S
C3622 C3617 1.245 . S
C3622 C3618 1.477 . S
C3622 H3639 0.932 . S
C3623 U3606 2.882 . S
C3623 C3617 1.428 . S
C3623 O3626 1.301 . S
C3623 O3627 1.282 . S
O3624 U3606 2.441 . S
O3624 C3610 1.249 . S
O3625 U3606 2.420 . S
O3625 C3610 1.202 . S
O3626 U3606 2.455 . S
O3626 C3623 1.301 . S
O3627 U3606 2.449 . S
O3627 C3623 1.282 . S
H3628 C3601 0.931 . S
H3629 C3603 0.929 . S
H3630 C3604 0.930 . S
H3631 C3605 0.931 . S
H3632 C3612 0.932 . S
H3633 C3613 0.930 . S
H3634 C3614 0.929 . S
H3635 C3616 0.930 . S
H3636 C3618 0.932 . S
H3637 C3619 0.929 . S
H3638 C3620 0.928 . S
H3639 C3622 0.932 . S
C3640 C3641 1.264 . S
C3640 C3645 1.479 . S
C3640 C3650 1.465 . S
C3641 C3640 1.264 . S
C3641 C3643 1.339 . S
C3641 H3668 0.931 . S
C3642 C3643 1.395 . S
C3642 C3644 1.320 . S
C3643 C3641 1.339 . S
C3643 C3642 1.395 . S
C3643 H3669 0.929 . S
C3644 C3642 1.320 . S
C3644 C3645 1.405 . S
C3644 H3670 0.930 . S
C3645 C3640 1.479 . S
C3645 C3644 1.405 . S
C3645 H3671 0.931 . S
U3646 O3647 2.454 . S
U3646 O3648 2.458 . S
U3646 C3649 2.984 . S
U3646 C3650 2.847 . S
U3646 C3663 2.882 . S
U3646 O3664 2.441 . S
U3646 O3665 2.420 . S
U3646 O3666 2.455 . S
U3646 O3667 2.449 . S
O3647 U3646 2.454 . S
O3647 C3649 1.353 . S
O3648 U3646 2.458 . S
O3648 C3649 1.286 . S
C3649 U3646 2.984 . S
C3649 O3647 1.353 . S
C3649 O3648 1.286 . S
C3649 C3651 1.363 . S
C3650 C3640 1.465 . S
C3650 U3646 2.847 . S
C3650 O3664 1.249 . S
C3650 O3665 1.202 . S
C3651 C3649 1.363 . S
C3651 C3653 1.408 . S
C3651 C3656 1.342 . S
C3652 C3653 1.310 . S
C3652 C3655 1.461 . S
C3652 H3672 0.932 . S
C3653 C3651 1.408 . S
C3653 C3652 1.310 . S
C3653 H3673 0.930 . S
C3654 C3655 1.474 . S
C3654 C3656 1.285 . S
C3654 H3674 0.929 . S
C3655 C3652 1.461 . S
C3655 C3654 1.474 . S
C3656 C3651 1.342 . S
C3656 C3654 1.285 . S
C3656 H3675 0.930 . S
C3657 C3660 1.424 . S
C3657 C3662 1.245 . S
C3657 C3663 1.428 . S
C3658 C3661 1.260 . S
C3658 C3662 1.477 . S
C3658 H3676 0.932 . S
C3659 C3660 1.384 . S
C3659 C3661 1.479 . S
C3659 H3677 0.929 . S
C3660 C3657 1.424 . S
C3660 C3659 1.384 . S
C3660 H3678 0.928 . S
C3661 C3658 1.260 . S
C3661 C3659 1.479 . S
C3662 C3657 1.245 . S
C3662 C3658 1.477 . S
C3662 H3679 0.932 . S
C3663 U3646 2.882 . S
C3663 C3657 1.428 . S
C3663 O3666 1.301 . S
C3663 O3667 1.282 . S
O3664 U3646 2.441 . S
O3664 C3650 1.249 . S
O3665 U3646 2.420 . S
O3665 C3650 1.202 . S
O3666 U3646 2.455 . S
O3666 C3663 1.301 . S
O3667 U3646 2.449 . S
O3667 C3663 1.282 . S
H3668 C3641 0.931 . S
H3669 C3643 0.929 . S
H3670 C3644 0.930 . S
H3671 C3645 0.931 . S
H3672 C3652 0.932 . S
H3673 C3653 0.930 . S
H3674 C3654 0.929 . S
H3675 C3656 0.930 . S
H3676 C3658 0.932 . S
H3677 C3659 0.929 . S
H3678 C3660 0.928 . S
H3679 C3662 0.932 . S
C3680 C3681 1.264 . S
C3680 C3685 1.479 . S
C3680 C3690 1.465 . S
C3681 C3680 1.264 . S
C3681 C3683 1.339 . S
C3681 H3708 0.931 . S
C3682 C3683 1.395 . S
C3682 C3684 1.320 . S
C3683 C3681 1.339 . S
C3683 C3682 1.395 . S
C3683 H3709 0.929 . S
C3684 C3682 1.320 . S
C3684 C3685 1.405 . S
C3684 H3710 0.930 . S
C3685 C3680 1.479 . S
C3685 C3684 1.405 . S
C3685 H3711 0.931 . S
U3686 O3687 2.454 . S
U3686 O3688 2.458 . S
U3686 C3689 2.984 . S
U3686 C3690 2.847 . S
U3686 C3703 2.882 . S
U3686 O3704 2.441 . S
U3686 O3705 2.420 . S
U3686 O3706 2.455 . S
U3686 O3707 2.449 . S
O3687 U3686 2.454 . S
O3687 C3689 1.353 . S
O3688 U3686 2.458 . S
O3688 C3689 1.286 . S
C3689 U3686 2.984 . S
C3689 O3687 1.353 . S
C3689 O3688 1.286 . S
C3689 C3691 1.363 . S
C3690 C3680 1.465 . S
C3690 U3686 2.847 . S
C3690 O3704 1.249 . S
C3690 O3705 1.202 . S
C3691 C3689 1.363 . S
C3691 C3693 1.408 . S
C3691 C3696 1.342 . S
C3692 C3693 1.310 . S
C3692 C3695 1.461 . S
C3692 H3712 0.932 . S
C3693 C3691 1.408 . S
C3693 C3692 1.310 . S
C3693 H3713 0.930 . S
C3694 C3695 1.474 . S
C3694 C3696 1.285 . S
C3694 H3714 0.929 . S
C3695 C3692 1.461 . S
C3695 C3694 1.474 . S
C3696 C3691 1.342 . S
C3696 C3694 1.285 . S
C3696 H3715 0.930 . S
C3697 C3700 1.424 . S
C3697 C3702 1.245 . S
C3697 C3703 1.428 . S
C3698 C3701 1.260 . S
C3698 C3702 1.477 . S
C3698 H3716 0.932 . S
C3699 C3700 1.384 . S
C3699 C3701 1.479 . S
C3699 H3717 0.929 . S
C3700 C3697 1.424 . S
C3700 C3699 1.384 . S
C3700 H3718 0.928 . S
C3701 C3698 1.260 . S
C3701 C3699 1.479 . S
C3702 C3697 1.245 . S
C3702 C3698 1.477 . S
C3702 H3719 0.932 . S
C3703 U3686 2.882 . S
C3703 C3697 1.428 . S
C3703 O3706 1.301 . S
C3703 O3707 1.282 . S
O3704 U3686 2.441 . S
O3704 C3690 1.249 . S
O3705 U3686 2.420 . S
O3705 C3690 1.202 . S
O3706 U3686 2.455 . S
O3706 C3703 1.301 . S
O3707 U3686 2.449 . S
O3707 C3703 1.282 . S
H3708 C3681 0.931 . S
H3709 C3683 0.929 . S
H3710 C3684 0.930 . S
H3711 C3685 0.931 . S
H3712 C3692 0.932 . S
H3713 C3693 0.930 . S
H3714 C3694 0.929 . S
H3715 C3696 0.930 . S
H3716 C3698 0.932 . S
H3717 C3699 0.929 . S
H3718 C3700 0.928 . S
H3719 C3702 0.932 . S
C3720 C3721 1.264 . S
C3720 C3725 1.479 . S
C3720 C3730 1.465 . S
C3721 C3720 1.264 . S
C3721 C3723 1.339 . S
C3721 H3748 0.931 . S
C3722 C3723 1.395 . S
C3722 C3724 1.320 . S
C3723 C3721 1.339 . S
C3723 C3722 1.395 . S
C3723 H3749 0.929 . S
C3724 C3722 1.320 . S
C3724 C3725 1.405 . S
C3724 H3750 0.930 . S
C3725 C3720 1.479 . S
C3725 C3724 1.405 . S
C3725 H3751 0.931 . S
U3726 O3727 2.454 . S
U3726 O3728 2.458 . S
U3726 C3729 2.984 . S
U3726 C3730 2.847 . S
U3726 C3743 2.882 . S
U3726 O3744 2.441 . S
U3726 O3745 2.420 . S
U3726 O3746 2.455 . S
U3726 O3747 2.449 . S
O3727 U3726 2.454 . S
O3727 C3729 1.353 . S
O3728 U3726 2.458 . S
O3728 C3729 1.286 . S
C3729 U3726 2.984 . S
C3729 O3727 1.353 . S
C3729 O3728 1.286 . S
C3729 C3731 1.363 . S
C3730 C3720 1.465 . S
C3730 U3726 2.847 . S
C3730 O3744 1.249 . S
C3730 O3745 1.202 . S
C3731 C3729 1.363 . S
C3731 C3733 1.408 . S
C3731 C3736 1.342 . S
C3732 C3733 1.310 . S
C3732 C3735 1.461 . S
C3732 H3752 0.932 . S
C3733 C3731 1.408 . S
C3733 C3732 1.310 . S
C3733 H3753 0.930 . S
C3734 C3735 1.474 . S
C3734 C3736 1.285 . S
C3734 H3754 0.929 . S
C3735 C3732 1.461 . S
C3735 C3734 1.474 . S
C3736 C3731 1.342 . S
C3736 C3734 1.285 . S
C3736 H3755 0.930 . S
C3737 C3740 1.424 . S
C3737 C3742 1.245 . S
C3737 C3743 1.428 . S
C3738 C3741 1.260 . S
C3738 C3742 1.477 . S
C3738 H3756 0.932 . S
C3739 C3740 1.384 . S
C3739 C3741 1.479 . S
C3739 H3757 0.929 . S
C3740 C3737 1.424 . S
C3740 C3739 1.384 . S
C3740 H3758 0.928 . S
C3741 C3738 1.260 . S
C3741 C3739 1.479 . S
C3742 C3737 1.245 . S
C3742 C3738 1.477 . S
C3742 H3759 0.932 . S
C3743 U3726 2.882 . S
C3743 C3737 1.428 . S
C3743 O3746 1.301 . S
C3743 O3747 1.282 . S
O3744 U3726 2.441 . S
O3744 C3730 1.249 . S
O3745 U3726 2.420 . S
O3745 C3730 1.202 . S
O3746 U3726 2.455 . S
O3746 C3743 1.301 . S
O3747 U3726 2.449 . S
O3747 C3743 1.282 . S
H3748 C3721 0.931 . S
H3749 C3723 0.929 . S
H3750 C3724 0.930 . S
H3751 C3725 0.931 . S
H3752 C3732 0.932 . S
H3753 C3733 0.930 . S
H3754 C3734 0.929 . S
H3755 C3736 0.930 . S
H3756 C3738 0.932 . S
H3757 C3739 0.929 . S
H3758 C3740 0.928 . S
H3759 C3742 0.932 . S
C3760 C3761 1.264 . S
C3760 C3765 1.479 . S
C3760 C3770 1.465 . S
C3761 C3760 1.264 . S
C3761 C3763 1.339 . S
C3761 H3788 0.931 . S
C3762 C3763 1.395 . S
C3762 C3764 1.320 . S
C3763 C3761 1.339 . S
C3763 C3762 1.395 . S
C3763 H3789 0.929 . S
C3764 C3762 1.320 . S
C3764 C3765 1.405 . S
C3764 H3790 0.930 . S
C3765 C3760 1.479 . S
C3765 C3764 1.405 . S
C3765 H3791 0.931 . S
U3766 O3767 2.454 . S
U3766 O3768 2.458 . S
U3766 C3769 2.984 . S
U3766 C3770 2.847 . S
U3766 C3783 2.882 . S
U3766 O3784 2.441 . S
U3766 O3785 2.420 . S
U3766 O3786 2.455 . S
U3766 O3787 2.449 . S
O3767 U3766 2.454 . S
O3767 C3769 1.353 . S
O3768 U3766 2.458 . S
O3768 C3769 1.286 . S
C3769 U3766 2.984 . S
C3769 O3767 1.353 . S
C3769 O3768 1.286 . S
C3769 C3771 1.363 . S
C3770 C3760 1.465 . S
C3770 U3766 2.847 . S
C3770 O3784 1.249 . S
C3770 O3785 1.202 . S
C3771 C3769 1.363 . S
C3771 C3773 1.408 . S
C3771 C3776 1.342 . S
C3772 C3773 1.310 . S
C3772 C3775 1.461 . S
C3772 H3792 0.932 . S
C3773 C3771 1.408 . S
C3773 C3772 1.310 . S
C3773 H3793 0.930 . S
C3774 C3775 1.474 . S
C3774 C3776 1.285 . S
C3774 H3794 0.929 . S
C3775 C3772 1.461 . S
C3775 C3774 1.474 . S
C3776 C3771 1.342 . S
C3776 C3774 1.285 . S
C3776 H3795 0.930 . S
C3777 C3780 1.424 . S
C3777 C3782 1.245 . S
C3777 C3783 1.428 . S
C3778 C3781 1.260 . S
C3778 C3782 1.477 . S
C3778 H3796 0.932 . S
C3779 C3780 1.384 . S
C3779 C3781 1.479 . S
C3779 H3797 0.929 . S
C3780 C3777 1.424 . S
C3780 C3779 1.384 . S
C3780 H3798 0.928 . S
C3781 C3778 1.260 . S
C3781 C3779 1.479 . S
C3782 C3777 1.245 . S
C3782 C3778 1.477 . S
C3782 H3799 0.932 . S
C3783 U3766 2.882 . S
C3783 C3777 1.428 . S
C3783 O3786 1.301 . S
C3783 O3787 1.282 . S
O3784 U3766 2.441 . S
O3784 C3770 1.249 . S
O3785 U3766 2.420 . S
O3785 C3770 1.202 . S
O3786 U3766 2.455 . S
O3786 C3783 1.301 . S
O3787 U3766 2.449 . S
O3787 C3783 1.282 . S
H3788 C3761 0.931 . S
H3789 C3763 0.929 . S
H3790 C3764 0.930 . S
H3791 C3765 0.931 . S
H3792 C3772 0.932 . S
H3793 C3773 0.930 . S
H3794 C3774 0.929 . S
H3795 C3776 0.930 . S
H3796 C3778 0.932 . S
H3797 C3779 0.929 . S
H3798 C3780 0.928 . S
H3799 C3782 0.932 . S
C3800 C3801 1.264 . S
C3800 C3805 1.479 . S
C3800 C3810 1.465 . S
C3801 C3800 1.264 . S
C3801 C3803 1.339 . S
C3801 H3828 0.931 . S
C3802 C3803 1.395 . S
C3802 C3804 1.320 . S
C3803 C3801 1.339 . S
C3803 C3802 1.395 . S
C3803 H3829 0.929 . S
C3804 C3802 1.320 . S
C3804 C3805 1.405 . S
C3804 H3830 0.930 . S
C3805 C3800 1.479 . S
C3805 C3804 1.405 . S
C3805 H3831 0.931 . S
U3806 O3807 2.454 . S
U3806 O3808 2.458 . S
U3806 C3809 2.984 . S
U3806 C3810 2.847 . S
U3806 C3823 2.882 . S
U3806 O3824 2.441 . S
U3806 O3825 2.420 . S
U3806 O3826 2.455 . S
U3806 O3827 2.449 . S
O3807 U3806 2.454 . S
O3807 C3809 1.353 . S
O3808 U3806 2.458 . S
O3808 C3809 1.286 . S
C3809 U3806 2.984 . S
C3809 O3807 1.353 . S
C3809 O3808 1.286 . S
C3809 C3811 1.363 . S
C3810 C3800 1.465 . S
C3810 U3806 2.847 . S
C3810 O3824 1.249 . S
C3810 O3825 1.202 . S
C3811 C3809 1.363 . S
C3811 C3813 1.408 . S
C3811 C3816 1.342 . S
C3812 C3813 1.310 . S
C3812 C3815 1.461 . S
C3812 H3832 0.932 . S
C3813 C3811 1.408 . S
C3813 C3812 1.310 . S
C3813 H3833 0.930 . S
C3814 C3815 1.474 . S
C3814 C3816 1.285 . S
C3814 H3834 0.929 . S
C3815 C3812 1.461 . S
C3815 C3814 1.474 . S
C3816 C3811 1.342 . S
C3816 C3814 1.285 . S
C3816 H3835 0.930 . S
C3817 C3820 1.424 . S
C3817 C3822 1.245 . S
C3817 C3823 1.428 . S
C3818 C3821 1.260 . S
C3818 C3822 1.477 . S
C3818 H3836 0.932 . S
C3819 C3820 1.384 . S
C3819 C3821 1.479 . S
C3819 H3837 0.929 . S
C3820 C3817 1.424 . S
C3820 C3819 1.384 . S
C3820 H3838 0.928 . S
C3821 C3818 1.260 . S
C3821 C3819 1.479 . S
C3822 C3817 1.245 . S
C3822 C3818 1.477 . S
C3822 H3839 0.932 . S
C3823 U3806 2.882 . S
C3823 C3817 1.428 . S
C3823 O3826 1.301 . S
C3823 O3827 1.282 . S
O3824 U3806 2.441 . S
O3824 C3810 1.249 . S
O3825 U3806 2.420 . S
O3825 C3810 1.202 . S
O3826 U3806 2.455 . S
O3826 C3823 1.301 . S
O3827 U3806 2.449 . S
O3827 C3823 1.282 . S
H3828 C3801 0.931 . S
H3829 C3803 0.929 . S
H3830 C3804 0.930 . S
H3831 C3805 0.931 . S
H3832 C3812 0.932 . S
H3833 C3813 0.930 . S
H3834 C3814 0.929 . S
H3835 C3816 0.930 . S
H3836 C3818 0.932 . S
H3837 C3819 0.929 . S
H3838 C3820 0.928 . S
H3839 C3822 0.932 . S
H3840 C3843 0.929 . S
H3841 C3846 0.929 . S
H3842 C3848 0.930 . S
C3843 H3840 0.929 . S
C3843 C3844 1.398 . S
C3843 C3845 1.396 . S
C3844 C3843 1.398 . S
C3844 C3848 1.407 . S
C3845 C3843 1.396 . S
C3845 C3846 1.394 . S
C3846 H3841 0.929 . S
C3846 C3845 1.394 . S
C3846 C3847 1.382 . S
C3847 C3846 1.382 . S
C3847 C3848 1.392 . S
C3847 N3849 1.420 . S
C3848 H3842 0.930 . S
C3848 C3844 1.407 . S
C3848 C3847 1.392 . S
N3849 C3847 1.420 . S
N3849 C3850 1.244 . S
C3850 N3849 1.244 . S
H3851 C3854 0.929 . S
H3852 C3857 0.929 . S
H3853 C3859 0.930 . S
C3854 H3851 0.929 . S
C3854 C3855 1.398 . S
C3854 C3856 1.396 . S
C3855 C3854 1.398 . S
C3855 C3859 1.407 . S
C3856 C3854 1.396 . S
C3856 C3857 1.394 . S
C3857 H3852 0.929 . S
C3857 C3856 1.394 . S
C3857 C3858 1.382 . S
C3858 C3857 1.382 . S
C3858 C3859 1.392 . S
C3858 N3860 1.420 . S
C3859 H3853 0.930 . S
C3859 C3855 1.407 . S
C3859 C3858 1.392 . S
N3860 C3858 1.420 . S
N3860 C3861 1.244 . S
C3861 N3860 1.244 . S
H3862 C3865 0.929 . S
H3863 C3868 0.929 . S
H3864 C3870 0.930 . S
C3865 H3862 0.929 . S
C3865 C3866 1.398 . S
C3865 C3867 1.396 . S
C3866 C3865 1.398 . S
C3866 C3870 1.407 . S
C3867 C3865 1.396 . S
C3867 C3868 1.394 . S
C3868 H3863 0.929 . S
C3868 C3867 1.394 . S
C3868 C3869 1.382 . S
C3869 C3868 1.382 . S
C3869 C3870 1.392 . S
C3869 N3871 1.420 . S
C3870 H3864 0.930 . S
C3870 C3866 1.407 . S
C3870 C3869 1.392 . S
N3871 C3869 1.420 . S
N3871 C3872 1.244 . S
C3872 N3871 1.244 . S
H3873 C3876 0.929 . S
H3874 C3879 0.929 . S
H3875 C3881 0.930 . S
C3876 H3873 0.929 . S
C3876 C3877 1.398 . S
C3876 C3878 1.396 . S
C3877 C3876 1.398 . S
C3877 C3881 1.407 . S
C3878 C3876 1.396 . S
C3878 C3879 1.394 . S
C3879 H3874 0.929 . S
C3879 C3878 1.394 . S
C3879 C3880 1.382 . S
C3880 C3879 1.382 . S
C3880 C3881 1.392 . S
C3880 N3882 1.420 . S
C3881 H3875 0.930 . S
C3881 C3877 1.407 . S
C3881 C3880 1.392 . S
N3882 C3880 1.420 . S
N3882 C3883 1.244 . S
C3883 N3882 1.244 . S
H3884 C3887 0.929 . S
H3885 C3890 0.929 . S
H3886 C3892 0.930 . S
C3887 H3884 0.929 . S
C3887 C3888 1.398 . S
C3887 C3889 1.396 . S
C3888 C3887 1.398 . S
C3888 C3892 1.407 . S
C3889 C3887 1.396 . S
C3889 C3890 1.394 . S
C3890 H3885 0.929 . S
C3890 C3889 1.394 . S
C3890 C3891 1.382 . S
C3891 C3890 1.382 . S
C3891 C3892 1.392 . S
C3891 N3893 1.420 . S
C3892 H3886 0.930 . S
C3892 C3888 1.407 . S
C3892 C3891 1.392 . S
N3893 C3891 1.420 . S
N3893 C3894 1.244 . S
C3894 N3893 1.244 . S
H3895 C3898 0.929 . S
H3896 C3901 0.929 . S
H3897 C3903 0.930 . S
C3898 H3895 0.929 . S
C3898 C3899 1.398 . S
C3898 C3900 1.396 . S
C3899 C3898 1.398 . S
C3899 C3903 1.407 . S
C3900 C3898 1.396 . S
C3900 C3901 1.394 . S
C3901 H3896 0.929 . S
C3901 C3900 1.394 . S
C3901 C3902 1.382 . S
C3902 C3901 1.382 . S
C3902 C3903 1.392 . S
C3902 N3904 1.420 . S
C3903 H3897 0.930 . S
C3903 C3899 1.407 . S
C3903 C3902 1.392 . S
N3904 C3902 1.420 . S
N3904 C3905 1.244 . S
C3905 N3904 1.244 . S
H3906 C3909 0.929 . S
H3907 C3912 0.929 . S
H3908 C3914 0.930 . S
C3909 H3906 0.929 . S
C3909 C3910 1.398 . S
C3909 C3911 1.396 . S
C3910 C3909 1.398 . S
C3910 C3914 1.407 . S
C3911 C3909 1.396 . S
C3911 C3912 1.394 . S
C3912 H3907 0.929 . S
C3912 C3911 1.394 . S
C3912 C3913 1.382 . S
C3913 C3912 1.382 . S
C3913 C3914 1.392 . S
C3913 N3915 1.420 . S
C3914 H3908 0.930 . S
C3914 C3910 1.407 . S
C3914 C3913 1.392 . S
N3915 C3913 1.420 . S
N3915 C3916 1.244 . S
C3916 N3915 1.244 . S
H3917 C3920 0.929 . S
H3918 C3923 0.929 . S
H3919 C3925 0.930 . S
C3920 H3917 0.929 . S
C3920 C3921 1.398 . S
C3920 C3922 1.396 . S
C3921 C3920 1.398 . S
C3921 C3925 1.407 . S
C3922 C3920 1.396 . S
C3922 C3923 1.394 . S
C3923 H3918 0.929 . S
C3923 C3922 1.394 . S
C3923 C3924 1.382 . S
C3924 C3923 1.382 . S
C3924 C3925 1.392 . S
C3924 N3926 1.420 . S
C3925 H3919 0.930 . S
C3925 C3921 1.407 . S
C3925 C3924 1.392 . S
N3926 C3924 1.420 . S
N3926 C3927 1.244 . S
C3927 N3926 1.244 . S
H3928 C3931 0.929 . S
H3929 C3934 0.929 . S
H3930 C3936 0.930 . S
C3931 H3928 0.929 . S
C3931 C3932 1.398 . S
C3931 C3933 1.396 . S
C3932 C3931 1.398 . S
C3932 C3936 1.407 . S
C3933 C3931 1.396 . S
C3933 C3934 1.394 . S
C3934 H3929 0.929 . S
C3934 C3933 1.394 . S
C3934 C3935 1.382 . S
C3935 C3934 1.382 . S
C3935 C3936 1.392 . S
C3935 N3937 1.420 . S
C3936 H3930 0.930 . S
C3936 C3932 1.407 . S
C3936 C3935 1.392 . S
N3937 C3935 1.420 . S
N3937 C3938 1.244 . S
C3938 N3937 1.244 . S
H3939 C3942 0.929 . S
H3940 C3945 0.929 . S
H3941 C3947 0.930 . S
C3942 H3939 0.929 . S
C3942 C3943 1.398 . S
C3942 C3944 1.396 . S
C3943 C3942 1.398 . S
C3943 C3947 1.407 . S
C3944 C3942 1.396 . S
C3944 C3945 1.394 . S
C3945 H3940 0.929 . S
C3945 C3944 1.394 . S
C3945 C3946 1.382 . S
C3946 C3945 1.382 . S
C3946 C3947 1.392 . S
C3946 N3948 1.420 . S
C3947 H3941 0.930 . S
C3947 C3943 1.407 . S
C3947 C3946 1.392 . S
N3948 C3946 1.420 . S
N3948 C3949 1.244 . S
C3949 N3948 1.244 . S
H3950 C3953 0.929 . S
H3951 C3956 0.929 . S
H3952 C3958 0.930 . S
C3953 H3950 0.929 . S
C3953 C3954 1.398 . S
C3953 C3955 1.396 . S
C3954 C3953 1.398 . S
C3954 C3958 1.407 . S
C3955 C3953 1.396 . S
C3955 C3956 1.394 . S
C3956 H3951 0.929 . S
C3956 C3955 1.394 . S
C3956 C3957 1.382 . S
C3957 C3956 1.382 . S
C3957 C3958 1.392 . S
C3957 N3959 1.420 . S
C3958 H3952 0.930 . S
C3958 C3954 1.407 . S
C3958 C3957 1.392 . S
N3959 C3957 1.420 . S
N3959 C3960 1.244 . S
C3960 N3959 1.244 . S
H3961 C3964 0.929 . S
H3962 C3967 0.929 . S
H3963 C3969 0.930 . S
C3964 H3961 0.929 . S
C3964 C3965 1.398 . S
C3964 C3966 1.396 . S
C3965 C3964 1.398 . S
C3965 C3969 1.407 . S
C3966 C3964 1.396 . S
C3966 C3967 1.394 . S
C3967 H3962 0.929 . S
C3967 C3966 1.394 . S
C3967 C3968 1.382 . S
C3968 C3967 1.382 . S
C3968 C3969 1.392 . S
C3968 N3970 1.420 . S
C3969 H3963 0.930 . S
C3969 C3965 1.407 . S
C3969 C3968 1.392 . S
N3970 C3968 1.420 . S
N3970 C3971 1.244 . S
C3971 N3970 1.244 . S
H3972 C3975 0.929 . S
H3973 C3978 0.929 . S
H3974 C3980 0.930 . S
C3975 H3972 0.929 . S
C3975 C3976 1.398 . S
C3975 C3977 1.396 . S
C3976 C3975 1.398 . S
C3976 C3980 1.407 . S
C3977 C3975 1.396 . S
C3977 C3978 1.394 . S
C3978 H3973 0.929 . S
C3978 C3977 1.394 . S
C3978 C3979 1.382 . S
C3979 C3978 1.382 . S
C3979 C3980 1.392 . S
C3979 N3981 1.420 . S
C3980 H3974 0.930 . S
C3980 C3976 1.407 . S
C3980 C3979 1.392 . S
N3981 C3979 1.420 . S
N3981 C3982 1.244 . S
C3982 N3981 1.244 . S
H3983 C3986 0.929 . S
H3984 C3989 0.929 . S
H3985 C3991 0.930 . S
C3986 H3983 0.929 . S
C3986 C3987 1.398 . S
C3986 C3988 1.396 . S
C3987 C3986 1.398 . S
C3987 C3991 1.407 . S
C3988 C3986 1.396 . S
C3988 C3989 1.394 . S
C3989 H3984 0.929 . S
C3989 C3988 1.394 . S
C3989 C3990 1.382 . S
C3990 C3989 1.382 . S
C3990 C3991 1.392 . S
C3990 N3992 1.420 . S
C3991 H3985 0.930 . S
C3991 C3987 1.407 . S
C3991 C3990 1.392 . S
N3992 C3990 1.420 . S
N3992 C3993 1.244 . S
C3993 N3992 1.244 . S
H3994 C3997 0.929 . S
H3995 C4000 0.929 . S
H3996 C4002 0.930 . S
C3997 H3994 0.929 . S
C3997 C3998 1.398 . S
C3997 C3999 1.396 . S
C3998 C3997 1.398 . S
C3998 C4002 1.407 . S
C3999 C3997 1.396 . S
C3999 C4000 1.394 . S
C4000 H3995 0.929 . S
C4000 C3999 1.394 . S
C4000 C4001 1.382 . S
C4001 C4000 1.382 . S
C4001 C4002 1.392 . S
C4001 N4003 1.420 . S
C4002 H3996 0.930 . S
C4002 C3998 1.407 . S
C4002 C4001 1.392 . S
N4003 C4001 1.420 . S
N4003 C4004 1.244 . S
C4004 N4003 1.244 . S
H4005 C4008 0.929 . S
H4006 C4011 0.929 . S
H4007 C4013 0.930 . S
C4008 H4005 0.929 . S
C4008 C4009 1.398 . S
C4008 C4010 1.396 . S
C4009 C4008 1.398 . S
C4009 C4013 1.407 . S
C4010 C4008 1.396 . S
C4010 C4011 1.394 . S
C4011 H4006 0.929 . S
C4011 C4010 1.394 . S
C4011 C4012 1.382 . S
C4012 C4011 1.382 . S
C4012 C4013 1.392 . S
C4012 N4014 1.420 . S
C4013 H4007 0.930 . S
C4013 C4009 1.407 . S
C4013 C4012 1.392 . S
N4014 C4012 1.420 . S
N4014 C4015 1.244 . S
C4015 N4014 1.244 . S
H4016 C4019 0.929 . S
H4017 C4022 0.929 . S
H4018 C4024 0.930 . S
C4019 H4016 0.929 . S
C4019 C4020 1.398 . S
C4019 C4021 1.396 . S
C4020 C4019 1.398 . S
C4020 C4024 1.407 . S
C4021 C4019 1.396 . S
C4021 C4022 1.394 . S
C4022 H4017 0.929 . S
C4022 C4021 1.394 . S
C4022 C4023 1.382 . S
C4023 C4022 1.382 . S
C4023 C4024 1.392 . S
C4023 N4025 1.420 . S
C4024 H4018 0.930 . S
C4024 C4020 1.407 . S
C4024 C4023 1.392 . S
N4025 C4023 1.420 . S
N4025 C4026 1.244 . S
C4026 N4025 1.244 . S
H4027 C4030 0.929 . S
H4028 C4033 0.929 . S
H4029 C4035 0.930 . S
C4030 H4027 0.929 . S
C4030 C4031 1.398 . S
C4030 C4032 1.396 . S
C4031 C4030 1.398 . S
C4031 C4035 1.407 . S
C4032 C4030 1.396 . S
C4032 C4033 1.394 . S
C4033 H4028 0.929 . S
C4033 C4032 1.394 . S
C4033 C4034 1.382 . S
C4034 C4033 1.382 . S
C4034 C4035 1.392 . S
C4034 N4036 1.420 . S
C4035 H4029 0.930 . S
C4035 C4031 1.407 . S
C4035 C4034 1.392 . S
N4036 C4034 1.420 . S
N4036 C4037 1.244 . S
C4037 N4036 1.244 . S
H4038 C4041 0.929 . S
H4039 C4044 0.929 . S
H4040 C4046 0.930 . S
C4041 H4038 0.929 . S
C4041 C4042 1.398 . S
C4041 C4043 1.396 . S
C4042 C4041 1.398 . S
C4042 C4046 1.407 . S
C4043 C4041 1.396 . S
C4043 C4044 1.394 . S
C4044 H4039 0.929 . S
C4044 C4043 1.394 . S
C4044 C4045 1.382 . S
C4045 C4044 1.382 . S
C4045 C4046 1.392 . S
C4045 N4047 1.420 . S
C4046 H4040 0.930 . S
C4046 C4042 1.407 . S
C4046 C4045 1.392 . S
N4047 C4045 1.420 . S
N4047 C4048 1.244 . S
C4048 N4047 1.244 . S
H4049 C4052 0.929 . S
H4050 C4055 0.929 . S
H4051 C4057 0.930 . S
C4052 H4049 0.929 . S
C4052 C4053 1.398 . S
C4052 C4054 1.396 . S
C4053 C4052 1.398 . S
C4053 C4057 1.407 . S
C4054 C4052 1.396 . S
C4054 C4055 1.394 . S
C4055 H4050 0.929 . S
C4055 C4054 1.394 . S
C4055 C4056 1.382 . S
C4056 C4055 1.382 . S
C4056 C4057 1.392 . S
C4056 N4058 1.420 . S
C4057 H4051 0.930 . S
C4057 C4053 1.407 . S
C4057 C4056 1.392 . S
N4058 C4056 1.420 . S
N4058 C4059 1.244 . S
C4059 N4058 1.244 . S
H4060 C4063 0.929 . S
H4061 C4066 0.929 . S
H4062 C4068 0.930 . S
C4063 H4060 0.929 . S
C4063 C4064 1.398 . S
C4063 C4065 1.396 . S
C4064 C4063 1.398 . S
C4064 C4068 1.407 . S
C4065 C4063 1.396 . S
C4065 C4066 1.394 . S
C4066 H4061 0.929 . S
C4066 C4065 1.394 . S
C4066 C4067 1.382 . S
C4067 C4066 1.382 . S
C4067 C4068 1.392 . S
C4067 N4069 1.420 . S
C4068 H4062 0.930 . S
C4068 C4064 1.407 . S
C4068 C4067 1.392 . S
N4069 C4067 1.420 . S
N4069 C4070 1.244 . S
C4070 N4069 1.244 . S
H4071 C4074 0.929 . S
H4072 C4077 0.929 . S
H4073 C4079 0.930 . S
C4074 H4071 0.929 . S
C4074 C4075 1.398 . S
C4074 C4076 1.396 . S
C4075 C4074 1.398 . S
C4075 C4079 1.407 . S
C4076 C4074 1.396 . S
C4076 C4077 1.394 . S
C4077 H4072 0.929 . S
C4077 C4076 1.394 . S
C4077 C4078 1.382 . S
C4078 C4077 1.382 . S
C4078 C4079 1.392 . S
C4078 N4080 1.420 . S
C4079 H4073 0.930 . S
C4079 C4075 1.407 . S
C4079 C4078 1.392 . S
N4080 C4078 1.420 . S
N4080 C4081 1.244 . S
C4081 N4080 1.244 . S
H4082 C4085 0.929 . S
H4083 C4088 0.929 . S
H4084 C4090 0.930 . S
C4085 H4082 0.929 . S
C4085 C4086 1.398 . S
C4085 C4087 1.396 . S
C4086 C4085 1.398 . S
C4086 C4090 1.407 . S
C4087 C4085 1.396 . S
C4087 C4088 1.394 . S
C4088 H4083 0.929 . S
C4088 C4087 1.394 . S
C4088 C4089 1.382 . S
C4089 C4088 1.382 . S
C4089 C4090 1.392 . S
C4089 N4091 1.420 . S
C4090 H4084 0.930 . S
C4090 C4086 1.407 . S
C4090 C4089 1.392 . S
N4091 C4089 1.420 . S
N4091 C4092 1.244 . S
C4092 N4091 1.244 . S
H4093 C4096 0.929 . S
H4094 C4099 0.929 . S
H4095 C4101 0.930 . S
C4096 H4093 0.929 . S
C4096 C4097 1.398 . S
C4096 C4098 1.396 . S
C4097 C4096 1.398 . S
C4097 C4101 1.407 . S
C4098 C4096 1.396 . S
C4098 C4099 1.394 . S
C4099 H4094 0.929 . S
C4099 C4098 1.394 . S
C4099 C4100 1.382 . S
C4100 C4099 1.382 . S
C4100 C4101 1.392 . S
C4100 N4102 1.420 . S
C4101 H4095 0.930 . S
C4101 C4097 1.407 . S
C4101 C4100 1.392 . S
N4102 C4100 1.420 . S
N4102 C4103 1.244 . S
C4103 N4102 1.244 . S
H4104 C4107 0.929 . S
H4105 C4110 0.929 . S
H4106 C4112 0.930 . S
C4107 H4104 0.929 . S
C4107 C4108 1.398 . S
C4107 C4109 1.396 . S
C4108 C4107 1.398 . S
C4108 C4112 1.407 . S
C4109 C4107 1.396 . S
C4109 C4110 1.394 . S
C4110 H4105 0.929 . S
C4110 C4109 1.394 . S
C4110 C4111 1.382 . S
C4111 C4110 1.382 . S
C4111 C4112 1.392 . S
C4111 N4113 1.420 . S
C4112 H4106 0.930 . S
C4112 C4108 1.407 . S
C4112 C4111 1.392 . S
N4113 C4111 1.420 . S
N4113 C4114 1.244 . S
C4114 N4113 1.244 . S
H4115 C4118 0.929 . S
H4116 C4121 0.929 . S
H4117 C4123 0.930 . S
C4118 H4115 0.929 . S
C4118 C4119 1.398 . S
C4118 C4120 1.396 . S
C4119 C4118 1.398 . S
C4119 C4123 1.407 . S
C4120 C4118 1.396 . S
C4120 C4121 1.394 . S
C4121 H4116 0.929 . S
C4121 C4120 1.394 . S
C4121 C4122 1.382 . S
C4122 C4121 1.382 . S
C4122 C4123 1.392 . S
C4122 N4124 1.420 . S
C4123 H4117 0.930 . S
C4123 C4119 1.407 . S
C4123 C4122 1.392 . S
N4124 C4122 1.420 . S
N4124 C4125 1.244 . S
C4125 N4124 1.244 . S
H4126 C4129 0.929 . S
H4127 C4132 0.929 . S
H4128 C4134 0.930 . S
C4129 H4126 0.929 . S
C4129 C4130 1.398 . S
C4129 C4131 1.396 . S
C4130 C4129 1.398 . S
C4130 C4134 1.407 . S
C4131 C4129 1.396 . S
C4131 C4132 1.394 . S
C4132 H4127 0.929 . S
C4132 C4131 1.394 . S
C4132 C4133 1.382 . S
C4133 C4132 1.382 . S
C4133 C4134 1.392 . S
C4133 N4135 1.420 . S
C4134 H4128 0.930 . S
C4134 C4130 1.407 . S
C4134 C4133 1.392 . S
N4135 C4133 1.420 . S
N4135 C4136 1.244 . S
C4136 N4135 1.244 . S
H4137 C4140 0.929 . S
H4138 C4143 0.929 . S
H4139 C4145 0.930 . S
C4140 H4137 0.929 . S
C4140 C4141 1.398 . S
C4140 C4142 1.396 . S
C4141 C4140 1.398 . S
C4141 C4145 1.407 . S
C4142 C4140 1.396 . S
C4142 C4143 1.394 . S
C4143 H4138 0.929 . S
C4143 C4142 1.394 . S
C4143 C4144 1.382 . S
C4144 C4143 1.382 . S
C4144 C4145 1.392 . S
C4144 N4146 1.420 . S
C4145 H4139 0.930 . S
C4145 C4141 1.407 . S
C4145 C4144 1.392 . S
N4146 C4144 1.420 . S
N4146 C4147 1.244 . S
C4147 N4146 1.244 . S
H4148 C4151 0.929 . S
H4149 C4154 0.929 . S
H4150 C4156 0.930 . S
C4151 H4148 0.929 . S
C4151 C4152 1.398 . S
C4151 C4153 1.396 . S
C4152 C4151 1.398 . S
C4152 C4156 1.407 . S
C4153 C4151 1.396 . S
C4153 C4154 1.394 . S
C4154 H4149 0.929 . S
C4154 C4153 1.394 . S
C4154 C4155 1.382 . S
C4155 C4154 1.382 . S
C4155 C4156 1.392 . S
C4155 N4157 1.420 . S
C4156 H4150 0.930 . S
C4156 C4152 1.407 . S
C4156 C4155 1.392 . S
N4157 C4155 1.420 . S
N4157 C4158 1.244 . S
C4158 N4157 1.244 . S
H4159 C4162 0.929 . S
H4160 C4165 0.929 . S
H4161 C4167 0.930 . S
C4162 H4159 0.929 . S
C4162 C4163 1.398 . S
C4162 C4164 1.396 . S
C4163 C4162 1.398 . S
C4163 C4167 1.407 . S
C4164 C4162 1.396 . S
C4164 C4165 1.394 . S
C4165 H4160 0.929 . S
C4165 C4164 1.394 . S
C4165 C4166 1.382 . S
C4166 C4165 1.382 . S
C4166 C4167 1.392 . S
C4166 N4168 1.420 . S
C4167 H4161 0.930 . S
C4167 C4163 1.407 . S
C4167 C4166 1.392 . S
N4168 C4166 1.420 . S
N4168 C4169 1.244 . S
C4169 N4168 1.244 . S
H4170 C4173 0.929 . S
H4171 C4176 0.929 . S
H4172 C4178 0.930 . S
C4173 H4170 0.929 . S
C4173 C4174 1.398 . S
C4173 C4175 1.396 . S
C4174 C4173 1.398 . S
C4174 C4178 1.407 . S
C4175 C4173 1.396 . S
C4175 C4176 1.394 . S
C4176 H4171 0.929 . S
C4176 C4175 1.394 . S
C4176 C4177 1.382 . S
C4177 C4176 1.382 . S
C4177 C4178 1.392 . S
C4177 N4179 1.420 . S
C4178 H4172 0.930 . S
C4178 C4174 1.407 . S
C4178 C4177 1.392 . S
N4179 C4177 1.420 . S
N4179 C4180 1.244 . S
C4180 N4179 1.244 . S
H4181 C4184 0.929 . S
H4182 C4187 0.929 . S
H4183 C4189 0.930 . S
C4184 H4181 0.929 . S
C4184 C4185 1.398 . S
C4184 C4186 1.396 . S
C4185 C4184 1.398 . S
C4185 C4189 1.407 . S
C4186 C4184 1.396 . S
C4186 C4187 1.394 . S
C4187 H4182 0.929 . S
C4187 C4186 1.394 . S
C4187 C4188 1.382 . S
C4188 C4187 1.382 . S
C4188 C4189 1.392 . S
C4188 N4190 1.420 . S
C4189 H4183 0.930 . S
C4189 C4185 1.407 . S
C4189 C4188 1.392 . S
N4190 C4188 1.420 . S
N4190 C4191 1.244 . S
C4191 N4190 1.244 . S
H4192 C4195 0.929 . S
H4193 C4198 0.929 . S
H4194 C4200 0.930 . S
C4195 H4192 0.929 . S
C4195 C4196 1.398 . S
C4195 C4197 1.396 . S
C4196 C4195 1.398 . S
C4196 C4200 1.407 . S
C4197 C4195 1.396 . S
C4197 C4198 1.394 . S
C4198 H4193 0.929 . S
C4198 C4197 1.394 . S
C4198 C4199 1.382 . S
C4199 C4198 1.382 . S
C4199 C4200 1.392 . S
C4199 N4201 1.420 . S
C4200 H4194 0.930 . S
C4200 C4196 1.407 . S
C4200 C4199 1.392 . S
N4201 C4199 1.420 . S
N4201 C4202 1.244 . S
C4202 N4201 1.244 . S
H4203 C4206 0.929 . S
H4204 C4209 0.929 . S
H4205 C4211 0.930 . S
C4206 H4203 0.929 . S
C4206 C4207 1.398 . S
C4206 C4208 1.396 . S
C4207 C4206 1.398 . S
C4207 C4211 1.407 . S
C4208 C4206 1.396 . S
C4208 C4209 1.394 . S
C4209 H4204 0.929 . S
C4209 C4208 1.394 . S
C4209 C4210 1.382 . S
C4210 C4209 1.382 . S
C4210 C4211 1.392 . S
C4210 N4212 1.420 . S
C4211 H4205 0.930 . S
C4211 C4207 1.407 . S
C4211 C4210 1.392 . S
N4212 C4210 1.420 . S
N4212 C4213 1.244 . S
C4213 N4212 1.244 . S
H4214 C4217 0.929 . S
H4215 C4220 0.929 . S
H4216 C4222 0.930 . S
C4217 H4214 0.929 . S
C4217 C4218 1.398 . S
C4217 C4219 1.396 . S
C4218 C4217 1.398 . S
C4218 C4222 1.407 . S
C4219 C4217 1.396 . S
C4219 C4220 1.394 . S
C4220 H4215 0.929 . S
C4220 C4219 1.394 . S
C4220 C4221 1.382 . S
C4221 C4220 1.382 . S
C4221 C4222 1.392 . S
C4221 N4223 1.420 . S
C4222 H4216 0.930 . S
C4222 C4218 1.407 . S
C4222 C4221 1.392 . S
N4223 C4221 1.420 . S
N4223 C4224 1.244 . S
C4224 N4223 1.244 . S
H4225 C4228 0.929 . S
H4226 C4231 0.929 . S
H4227 C4233 0.930 . S
C4228 H4225 0.929 . S
C4228 C4229 1.398 . S
C4228 C4230 1.396 . S
C4229 C4228 1.398 . S
C4229 C4233 1.407 . S
C4230 C4228 1.396 . S
C4230 C4231 1.394 . S
C4231 H4226 0.929 . S
C4231 C4230 1.394 . S
C4231 C4232 1.382 . S
C4232 C4231 1.382 . S
C4232 C4233 1.392 . S
C4232 N4234 1.420 . S
C4233 H4227 0.930 . S
C4233 C4229 1.407 . S
C4233 C4232 1.392 . S
N4234 C4232 1.420 . S
N4234 C4235 1.244 . S
C4235 N4234 1.244 . S
H4236 C4239 0.929 . S
H4237 C4242 0.929 . S
H4238 C4244 0.930 . S
C4239 H4236 0.929 . S
C4239 C4240 1.398 . S
C4239 C4241 1.396 . S
C4240 C4239 1.398 . S
C4240 C4244 1.407 . S
C4241 C4239 1.396 . S
C4241 C4242 1.394 . S
C4242 H4237 0.929 . S
C4242 C4241 1.394 . S
C4242 C4243 1.382 . S
C4243 C4242 1.382 . S
C4243 C4244 1.392 . S
C4243 N4245 1.420 . S
C4244 H4238 0.930 . S
C4244 C4240 1.407 . S
C4244 C4243 1.392 . S
N4245 C4243 1.420 . S
N4245 C4246 1.244 . S
C4246 N4245 1.244 . S
H4247 C4250 0.929 . S
H4248 C4253 0.929 . S
H4249 C4255 0.930 . S
C4250 H4247 0.929 . S
C4250 C4251 1.398 . S
C4250 C4252 1.396 . S
C4251 C4250 1.398 . S
C4251 C4255 1.407 . S
C4252 C4250 1.396 . S
C4252 C4253 1.394 . S
C4253 H4248 0.929 . S
C4253 C4252 1.394 . S
C4253 C4254 1.382 . S
C4254 C4253 1.382 . S
C4254 C4255 1.392 . S
C4254 N4256 1.420 . S
C4255 H4249 0.930 . S
C4255 C4251 1.407 . S
C4255 C4254 1.392 . S
N4256 C4254 1.420 . S
N4256 C4257 1.244 . S
C4257 N4256 1.244 . S
H4258 C4261 0.929 . S
H4259 C4264 0.929 . S
H4260 C4266 0.930 . S
C4261 H4258 0.929 . S
C4261 C4262 1.398 . S
C4261 C4263 1.396 . S
C4262 C4261 1.398 . S
C4262 C4266 1.407 . S
C4263 C4261 1.396 . S
C4263 C4264 1.394 . S
C4264 H4259 0.929 . S
C4264 C4263 1.394 . S
C4264 C4265 1.382 . S
C4265 C4264 1.382 . S
C4265 C4266 1.392 . S
C4265 N4267 1.420 . S
C4266 H4260 0.930 . S
C4266 C4262 1.407 . S
C4266 C4265 1.392 . S
N4267 C4265 1.420 . S
N4267 C4268 1.244 . S
C4268 N4267 1.244 . S
H4269 C4272 0.929 . S
H4270 C4275 0.929 . S
H4271 C4277 0.930 . S
C4272 H4269 0.929 . S
C4272 C4273 1.398 . S
C4272 C4274 1.396 . S
C4273 C4272 1.398 . S
C4273 C4277 1.407 . S
C4274 C4272 1.396 . S
C4274 C4275 1.394 . S
C4275 H4270 0.929 . S
C4275 C4274 1.394 . S
C4275 C4276 1.382 . S
C4276 C4275 1.382 . S
C4276 C4277 1.392 . S
C4276 N4278 1.420 . S
C4277 H4271 0.930 . S
C4277 C4273 1.407 . S
C4277 C4276 1.392 . S
N4278 C4276 1.420 . S
N4278 C4279 1.244 . S
C4279 N4278 1.244 . S
H4280 C4283 0.929 . S
H4281 C4286 0.929 . S
H4282 C4288 0.930 . S
C4283 H4280 0.929 . S
C4283 C4284 1.398 . S
C4283 C4285 1.396 . S
C4284 C4283 1.398 . S
C4284 C4288 1.407 . S
C4285 C4283 1.396 . S
C4285 C4286 1.394 . S
C4286 H4281 0.929 . S
C4286 C4285 1.394 . S
C4286 C4287 1.382 . S
C4287 C4286 1.382 . S
C4287 C4288 1.392 . S
C4287 N4289 1.420 . S
C4288 H4282 0.930 . S
C4288 C4284 1.407 . S
C4288 C4287 1.392 . S
N4289 C4287 1.420 . S
N4289 C4290 1.244 . S
C4290 N4289 1.244 . S
H4291 C4294 0.929 . S
H4292 C4297 0.929 . S
H4293 C4299 0.930 . S
C4294 H4291 0.929 . S
C4294 C4295 1.398 . S
C4294 C4296 1.396 . S
C4295 C4294 1.398 . S
C4295 C4299 1.407 . S
C4296 C4294 1.396 . S
C4296 C4297 1.394 . S
C4297 H4292 0.929 . S
C4297 C4296 1.394 . S
C4297 C4298 1.382 . S
C4298 C4297 1.382 . S
C4298 C4299 1.392 . S
C4298 N4300 1.420 . S
C4299 H4293 0.930 . S
C4299 C4295 1.407 . S
C4299 C4298 1.392 . S
N4300 C4298 1.420 . S
N4300 C4301 1.244 . S
C4301 N4300 1.244 . S
H4302 C4305 0.929 . S
H4303 C4308 0.929 . S
H4304 C4310 0.930 . S
C4305 H4302 0.929 . S
C4305 C4306 1.398 . S
C4305 C4307 1.396 . S
C4306 C4305 1.398 . S
C4306 C4310 1.407 . S
C4307 C4305 1.396 . S
C4307 C4308 1.394 . S
C4308 H4303 0.929 . S
C4308 C4307 1.394 . S
C4308 C4309 1.382 . S
C4309 C4308 1.382 . S
C4309 C4310 1.392 . S
C4309 N4311 1.420 . S
C4310 H4304 0.930 . S
C4310 C4306 1.407 . S
C4310 C4309 1.392 . S
N4311 C4309 1.420 . S
N4311 C4312 1.244 . S
C4312 N4311 1.244 . S
H4313 C4316 0.929 . S
H4314 C4319 0.929 . S
H4315 C4321 0.930 . S
C4316 H4313 0.929 . S
C4316 C4317 1.398 . S
C4316 C4318 1.396 . S
C4317 C4316 1.398 . S
C4317 C4321 1.407 . S
C4318 C4316 1.396 . S
C4318 C4319 1.394 . S
C4319 H4314 0.929 . S
C4319 C4318 1.394 . S
C4319 C4320 1.382 . S
C4320 C4319 1.382 . S
C4320 C4321 1.392 . S
C4320 N4322 1.420 . S
C4321 H4315 0.930 . S
C4321 C4317 1.407 . S
C4321 C4320 1.392 . S
N4322 C4320 1.420 . S
N4322 C4323 1.244 . S
C4323 N4322 1.244 . S
H4324 C4327 0.929 . S
H4325 C4330 0.929 . S
H4326 C4332 0.930 . S
C4327 H4324 0.929 . S
C4327 C4328 1.398 . S
C4327 C4329 1.396 . S
C4328 C4327 1.398 . S
C4328 C4332 1.407 . S
C4329 C4327 1.396 . S
C4329 C4330 1.394 . S
C4330 H4325 0.929 . S
C4330 C4329 1.394 . S
C4330 C4331 1.382 . S
C4331 C4330 1.382 . S
C4331 C4332 1.392 . S
C4331 N4333 1.420 . S
C4332 H4326 0.930 . S
C4332 C4328 1.407 . S
C4332 C4331 1.392 . S
N4333 C4331 1.420 . S
N4333 C4334 1.244 . S
C4334 N4333 1.244 . S
H4335 C4338 0.929 . S
H4336 C4341 0.929 . S
H4337 C4343 0.930 . S
C4338 H4335 0.929 . S
C4338 C4339 1.398 . S
C4338 C4340 1.396 . S
C4339 C4338 1.398 . S
C4339 C4343 1.407 . S
C4340 C4338 1.396 . S
C4340 C4341 1.394 . S
C4341 H4336 0.929 . S
C4341 C4340 1.394 . S
C4341 C4342 1.382 . S
C4342 C4341 1.382 . S
C4342 C4343 1.392 . S
C4342 N4344 1.420 . S
C4343 H4337 0.930 . S
C4343 C4339 1.407 . S
C4343 C4342 1.392 . S
N4344 C4342 1.420 . S
N4344 C4345 1.244 . S
C4345 N4344 1.244 . S
H4346 C4349 0.929 . S
H4347 C4352 0.929 . S
H4348 C4354 0.930 . S
C4349 H4346 0.929 . S
C4349 C4350 1.398 . S
C4349 C4351 1.396 . S
C4350 C4349 1.398 . S
C4350 C4354 1.407 . S
C4351 C4349 1.396 . S
C4351 C4352 1.394 . S
C4352 H4347 0.929 . S
C4352 C4351 1.394 . S
C4352 C4353 1.382 . S
C4353 C4352 1.382 . S
C4353 C4354 1.392 . S
C4353 N4355 1.420 . S
C4354 H4348 0.930 . S
C4354 C4350 1.407 . S
C4354 C4353 1.392 . S
N4355 C4353 1.420 . S
N4355 C4356 1.244 . S
C4356 N4355 1.244 . S
H4357 C4360 0.929 . S
H4358 C4363 0.929 . S
H4359 C4365 0.930 . S
C4360 H4357 0.929 . S
C4360 C4361 1.398 . S
C4360 C4362 1.396 . S
C4361 C4360 1.398 . S
C4361 C4365 1.407 . S
C4362 C4360 1.396 . S
C4362 C4363 1.394 . S
C4363 H4358 0.929 . S
C4363 C4362 1.394 . S
C4363 C4364 1.382 . S
C4364 C4363 1.382 . S
C4364 C4365 1.392 . S
C4364 N4366 1.420 . S
C4365 H4359 0.930 . S
C4365 C4361 1.407 . S
C4365 C4364 1.392 . S
N4366 C4364 1.420 . S
N4366 C4367 1.244 . S
C4367 N4366 1.244 . S
H4368 C4371 0.929 . S
H4369 C4374 0.929 . S
H4370 C4376 0.930 . S
C4371 H4368 0.929 . S
C4371 C4372 1.398 . S
C4371 C4373 1.396 . S
C4372 C4371 1.398 . S
C4372 C4376 1.407 . S
C4373 C4371 1.396 . S
C4373 C4374 1.394 . S
C4374 H4369 0.929 . S
C4374 C4373 1.394 . S
C4374 C4375 1.382 . S
C4375 C4374 1.382 . S
C4375 C4376 1.392 . S
C4375 N4377 1.420 . S
C4376 H4370 0.930 . S
C4376 C4372 1.407 . S
C4376 C4375 1.392 . S
N4377 C4375 1.420 . S
N4377 C4378 1.244 . S
C4378 N4377 1.244 . S
H4379 C4382 0.929 . S
H4380 C4385 0.929 . S
H4381 C4387 0.930 . S
C4382 H4379 0.929 . S
C4382 C4383 1.398 . S
C4382 C4384 1.396 . S
C4383 C4382 1.398 . S
C4383 C4387 1.407 . S
C4384 C4382 1.396 . S
C4384 C4385 1.394 . S
C4385 H4380 0.929 . S
C4385 C4384 1.394 . S
C4385 C4386 1.382 . S
C4386 C4385 1.382 . S
C4386 C4387 1.392 . S
C4386 N4388 1.420 . S
C4387 H4381 0.930 . S
C4387 C4383 1.407 . S
C4387 C4386 1.392 . S
N4388 C4386 1.420 . S
N4388 C4389 1.244 . S
C4389 N4388 1.244 . S
H4390 C4393 0.929 . S
H4391 C4396 0.929 . S
H4392 C4398 0.930 . S
C4393 H4390 0.929 . S
C4393 C4394 1.398 . S
C4393 C4395 1.396 . S
C4394 C4393 1.398 . S
C4394 C4398 1.407 . S
C4395 C4393 1.396 . S
C4395 C4396 1.394 . S
C4396 H4391 0.929 . S
C4396 C4395 1.394 . S
C4396 C4397 1.382 . S
C4397 C4396 1.382 . S
C4397 C4398 1.392 . S
C4397 N4399 1.420 . S
C4398 H4392 0.930 . S
C4398 C4394 1.407 . S
C4398 C4397 1.392 . S
N4399 C4397 1.420 . S
N4399 C4400 1.244 . S
C4400 N4399 1.244 . S
H4401 C4404 0.929 . S
H4402 C4407 0.929 . S
H4403 C4409 0.930 . S
C4404 H4401 0.929 . S
C4404 C4405 1.398 . S
C4404 C4406 1.396 . S
C4405 C4404 1.398 . S
C4405 C4409 1.407 . S
C4406 C4404 1.396 . S
C4406 C4407 1.394 . S
C4407 H4402 0.929 . S
C4407 C4406 1.394 . S
C4407 C4408 1.382 . S
C4408 C4407 1.382 . S
C4408 C4409 1.392 . S
C4408 N4410 1.420 . S
C4409 H4403 0.930 . S
C4409 C4405 1.407 . S
C4409 C4408 1.392 . S
N4410 C4408 1.420 . S
N4410 C4411 1.244 . S
C4411 N4410 1.244 . S
H4412 C4415 0.929 . S
H4413 C4418 0.929 . S
H4414 C4420 0.930 . S
C4415 H4412 0.929 . S
C4415 C4416 1.398 . S
C4415 C4417 1.396 . S
C4416 C4415 1.398 . S
C4416 C4420 1.407 . S
C4417 C4415 1.396 . S
C4417 C4418 1.394 . S
C4418 H4413 0.929 . S
C4418 C4417 1.394 . S
C4418 C4419 1.382 . S
C4419 C4418 1.382 . S
C4419 C4420 1.392 . S
C4419 N4421 1.420 . S
C4420 H4414 0.930 . S
C4420 C4416 1.407 . S
C4420 C4419 1.392 . S
N4421 C4419 1.420 . S
N4421 C4422 1.244 . S
C4422 N4421 1.244 . S
H4423 C4426 0.929 . S
H4424 C4429 0.929 . S
H4425 C4431 0.930 . S
C4426 H4423 0.929 . S
C4426 C4427 1.398 . S
C4426 C4428 1.396 . S
C4427 C4426 1.398 . S
C4427 C4431 1.407 . S
C4428 C4426 1.396 . S
C4428 C4429 1.394 . S
C4429 H4424 0.929 . S
C4429 C4428 1.394 . S
C4429 C4430 1.382 . S
C4430 C4429 1.382 . S
C4430 C4431 1.392 . S
C4430 N4432 1.420 . S
C4431 H4425 0.930 . S
C4431 C4427 1.407 . S
C4431 C4430 1.392 . S
N4432 C4430 1.420 . S
N4432 C4433 1.244 . S
C4433 N4432 1.244 . S
H4434 C4437 0.929 . S
H4435 C4440 0.929 . S
H4436 C4442 0.930 . S
C4437 H4434 0.929 . S
C4437 C4438 1.398 . S
C4437 C4439 1.396 . S
C4438 C4437 1.398 . S
C4438 C4442 1.407 . S
C4439 C4437 1.396 . S
C4439 C4440 1.394 . S
C4440 H4435 0.929 . S
C4440 C4439 1.394 . S
C4440 C4441 1.382 . S
C4441 C4440 1.382 . S
C4441 C4442 1.392 . S
C4441 N4443 1.420 . S
C4442 H4436 0.930 . S
C4442 C4438 1.407 . S
C4442 C4441 1.392 . S
N4443 C4441 1.420 . S
N4443 C4444 1.244 . S
C4444 N4443 1.244 . S
H4445 C4448 0.929 . S
H4446 C4451 0.929 . S
H4447 C4453 0.930 . S
C4448 H4445 0.929 . S
C4448 C4449 1.398 . S
C4448 C4450 1.396 . S
C4449 C4448 1.398 . S
C4449 C4453 1.407 . S
C4450 C4448 1.396 . S
C4450 C4451 1.394 . S
C4451 H4446 0.929 . S
C4451 C4450 1.394 . S
C4451 C4452 1.382 . S
C4452 C4451 1.382 . S
C4452 C4453 1.392 . S
C4452 N4454 1.420 . S
C4453 H4447 0.930 . S
C4453 C4449 1.407 . S
C4453 C4452 1.392 . S
N4454 C4452 1.420 . S
N4454 C4455 1.244 . S
C4455 N4454 1.244 . S
H4456 C4459 0.929 . S
H4457 C4462 0.929 . S
H4458 C4464 0.930 . S
C4459 H4456 0.929 . S
C4459 C4460 1.398 . S
C4459 C4461 1.396 . S
C4460 C4459 1.398 . S
C4460 C4464 1.407 . S
C4461 C4459 1.396 . S
C4461 C4462 1.394 . S
C4462 H4457 0.929 . S
C4462 C4461 1.394 . S
C4462 C4463 1.382 . S
C4463 C4462 1.382 . S
C4463 C4464 1.392 . S
C4463 N4465 1.420 . S
C4464 H4458 0.930 . S
C4464 C4460 1.407 . S
C4464 C4463 1.392 . S
N4465 C4463 1.420 . S
N4465 C4466 1.244 . S
C4466 N4465 1.244 . S
H4467 C4470 0.929 . S
H4468 C4473 0.929 . S
H4469 C4475 0.930 . S
C4470 H4467 0.929 . S
C4470 C4471 1.398 . S
C4470 C4472 1.396 . S
C4471 C4470 1.398 . S
C4471 C4475 1.407 . S
C4472 C4470 1.396 . S
C4472 C4473 1.394 . S
C4473 H4468 0.929 . S
C4473 C4472 1.394 . S
C4473 C4474 1.382 . S
C4474 C4473 1.382 . S
C4474 C4475 1.392 . S
C4474 N4476 1.420 . S
C4475 H4469 0.930 . S
C4475 C4471 1.407 . S
C4475 C4474 1.392 . S
N4476 C4474 1.420 . S
N4476 C4477 1.244 . S
C4477 N4476 1.244 . S
H4478 C4481 0.929 . S
H4479 C4484 0.929 . S
H4480 C4486 0.930 . S
C4481 H4478 0.929 . S
C4481 C4482 1.398 . S
C4481 C4483 1.396 . S
C4482 C4481 1.398 . S
C4482 C4486 1.407 . S
C4483 C4481 1.396 . S
C4483 C4484 1.394 . S
C4484 H4479 0.929 . S
C4484 C4483 1.394 . S
C4484 C4485 1.382 . S
C4485 C4484 1.382 . S
C4485 C4486 1.392 . S
C4485 N4487 1.420 . S
C4486 H4480 0.930 . S
C4486 C4482 1.407 . S
C4486 C4485 1.392 . S
N4487 C4485 1.420 . S
N4487 C4488 1.244 . S
C4488 N4487 1.244 . S
H4489 C4492 0.929 . S
H4490 C4495 0.929 . S
H4491 C4497 0.930 . S
C4492 H4489 0.929 . S
C4492 C4493 1.398 . S
C4492 C4494 1.396 . S
C4493 C4492 1.398 . S
C4493 C4497 1.407 . S
C4494 C4492 1.396 . S
C4494 C4495 1.394 . S
C4495 H4490 0.929 . S
C4495 C4494 1.394 . S
C4495 C4496 1.382 . S
C4496 C4495 1.382 . S
C4496 C4497 1.392 . S
C4496 N4498 1.420 . S
C4497 H4491 0.930 . S
C4497 C4493 1.407 . S
C4497 C4496 1.392 . S
N4498 C4496 1.420 . S
N4498 C4499 1.244 . S
C4499 N4498 1.244 . S
H4500 C4503 0.929 . S
H4501 C4506 0.929 . S
H4502 C4508 0.930 . S
C4503 H4500 0.929 . S
C4503 C4504 1.398 . S
C4503 C4505 1.396 . S
C4504 C4503 1.398 . S
C4504 C4508 1.407 . S
C4505 C4503 1.396 . S
C4505 C4506 1.394 . S
C4506 H4501 0.929 . S
C4506 C4505 1.394 . S
C4506 C4507 1.382 . S
C4507 C4506 1.382 . S
C4507 C4508 1.392 . S
C4507 N4509 1.420 . S
C4508 H4502 0.930 . S
C4508 C4504 1.407 . S
C4508 C4507 1.392 . S
N4509 C4507 1.420 . S
N4509 C4510 1.244 . S
C4510 N4509 1.244 . S
H4511 C4514 0.929 . S
H4512 C4517 0.929 . S
H4513 C4519 0.930 . S
C4514 H4511 0.929 . S
C4514 C4515 1.398 . S
C4514 C4516 1.396 . S
C4515 C4514 1.398 . S
C4515 C4519 1.407 . S
C4516 C4514 1.396 . S
C4516 C4517 1.394 . S
C4517 H4512 0.929 . S
C4517 C4516 1.394 . S
C4517 C4518 1.382 . S
C4518 C4517 1.382 . S
C4518 C4519 1.392 . S
C4518 N4520 1.420 . S
C4519 H4513 0.930 . S
C4519 C4515 1.407 . S
C4519 C4518 1.392 . S
N4520 C4518 1.420 . S
N4520 C4521 1.244 . S
C4521 N4520 1.244 . S
H4522 C4525 0.929 . S
H4523 C4528 0.929 . S
H4524 C4530 0.930 . S
C4525 H4522 0.929 . S
C4525 C4526 1.398 . S
C4525 C4527 1.396 . S
C4526 C4525 1.398 . S
C4526 C4530 1.407 . S
C4527 C4525 1.396 . S
C4527 C4528 1.394 . S
C4528 H4523 0.929 . S
C4528 C4527 1.394 . S
C4528 C4529 1.382 . S
C4529 C4528 1.382 . S
C4529 C4530 1.392 . S
C4529 N4531 1.420 . S
C4530 H4524 0.930 . S
C4530 C4526 1.407 . S
C4530 C4529 1.392 . S
N4531 C4529 1.420 . S
N4531 C4532 1.244 . S
C4532 N4531 1.244 . S
H4533 C4536 0.929 . S
H4534 C4539 0.929 . S
H4535 C4541 0.930 . S
C4536 H4533 0.929 . S
C4536 C4537 1.398 . S
C4536 C4538 1.396 . S
C4537 C4536 1.398 . S
C4537 C4541 1.407 . S
C4538 C4536 1.396 . S
C4538 C4539 1.394 . S
C4539 H4534 0.929 . S
C4539 C4538 1.394 . S
C4539 C4540 1.382 . S
C4540 C4539 1.382 . S
C4540 C4541 1.392 . S
C4540 N4542 1.420 . S
C4541 H4535 0.930 . S
C4541 C4537 1.407 . S
C4541 C4540 1.392 . S
N4542 C4540 1.420 . S
N4542 C4543 1.244 . S
C4543 N4542 1.244 . S
H4544 C4547 0.929 . S
H4545 C4550 0.929 . S
H4546 C4552 0.930 . S
C4547 H4544 0.929 . S
C4547 C4548 1.398 . S
C4547 C4549 1.396 . S
C4548 C4547 1.398 . S
C4548 C4552 1.407 . S
C4549 C4547 1.396 . S
C4549 C4550 1.394 . S
C4550 H4545 0.929 . S
C4550 C4549 1.394 . S
C4550 C4551 1.382 . S
C4551 C4550 1.382 . S
C4551 C4552 1.392 . S
C4551 N4553 1.420 . S
C4552 H4546 0.930 . S
C4552 C4548 1.407 . S
C4552 C4551 1.392 . S
N4553 C4551 1.420 . S
N4553 C4554 1.244 . S
C4554 N4553 1.244 . S
H4555 C4558 0.929 . S
H4556 C4561 0.929 . S
H4557 C4563 0.930 . S
C4558 H4555 0.929 . S
C4558 C4559 1.398 . S
C4558 C4560 1.396 . S
C4559 C4558 1.398 . S
C4559 C4563 1.407 . S
C4560 C4558 1.396 . S
C4560 C4561 1.394 . S
C4561 H4556 0.929 . S
C4561 C4560 1.394 . S
C4561 C4562 1.382 . S
C4562 C4561 1.382 . S
C4562 C4563 1.392 . S
C4562 N4564 1.420 . S
C4563 H4557 0.930 . S
C4563 C4559 1.407 . S
C4563 C4562 1.392 . S
N4564 C4562 1.420 . S
N4564 C4565 1.244 . S
C4565 N4564 1.244 . S
H4566 C4569 0.929 . S
H4567 C4572 0.929 . S
H4568 C4574 0.930 . S
C4569 H4566 0.929 . S
C4569 C4570 1.398 . S
C4569 C4571 1.396 . S
C4570 C4569 1.398 . S
C4570 C4574 1.407 . S
C4571 C4569 1.396 . S
C4571 C4572 1.394 . S
C4572 H4567 0.929 . S
C4572 C4571 1.394 . S
C4572 C4573 1.382 . S
C4573 C4572 1.382 . S
C4573 C4574 1.392 . S
C4573 N4575 1.420 . S
C4574 H4568 0.930 . S
C4574 C4570 1.407 . S
C4574 C4573 1.392 . S
N4575 C4573 1.420 . S
N4575 C4576 1.244 . S
C4576 N4575 1.244 . S
H4577 C4580 0.929 . S
H4578 C4583 0.929 . S
H4579 C4585 0.930 . S
C4580 H4577 0.929 . S
C4580 C4581 1.398 . S
C4580 C4582 1.396 . S
C4581 C4580 1.398 . S
C4581 C4585 1.407 . S
C4582 C4580 1.396 . S
C4582 C4583 1.394 . S
C4583 H4578 0.929 . S
C4583 C4582 1.394 . S
C4583 C4584 1.382 . S
C4584 C4583 1.382 . S
C4584 C4585 1.392 . S
C4584 N4586 1.420 . S
C4585 H4579 0.930 . S
C4585 C4581 1.407 . S
C4585 C4584 1.392 . S
N4586 C4584 1.420 . S
N4586 C4587 1.244 . S
C4587 N4586 1.244 . S
H4588 C4591 0.929 . S
H4589 C4594 0.929 . S
H4590 C4596 0.930 . S
C4591 H4588 0.929 . S
C4591 C4592 1.398 . S
C4591 C4593 1.396 . S
C4592 C4591 1.398 . S
C4592 C4596 1.407 . S
C4593 C4591 1.396 . S
C4593 C4594 1.394 . S
C4594 H4589 0.929 . S
C4594 C4593 1.394 . S
C4594 C4595 1.382 . S
C4595 C4594 1.382 . S
C4595 C4596 1.392 . S
C4595 N4597 1.420 . S
C4596 H4590 0.930 . S
C4596 C4592 1.407 . S
C4596 C4595 1.392 . S
N4597 C4595 1.420 . S
N4597 C4598 1.244 . S
C4598 N4597 1.244 . S
H4599 C4602 0.929 . S
H4600 C4605 0.929 . S
H4601 C4607 0.930 . S
C4602 H4599 0.929 . S
C4602 C4603 1.398 . S
C4602 C4604 1.396 . S
C4603 C4602 1.398 . S
C4603 C4607 1.407 . S
C4604 C4602 1.396 . S
C4604 C4605 1.394 . S
C4605 H4600 0.929 . S
C4605 C4604 1.394 . S
C4605 C4606 1.382 . S
C4606 C4605 1.382 . S
C4606 C4607 1.392 . S
C4606 N4608 1.420 . S
C4607 H4601 0.930 . S
C4607 C4603 1.407 . S
C4607 C4606 1.392 . S
N4608 C4606 1.420 . S
N4608 C4609 1.244 . S
C4609 N4608 1.244 . S
H4610 C4613 0.929 . S
H4611 C4616 0.929 . S
H4612 C4618 0.930 . S
C4613 H4610 0.929 . S
C4613 C4614 1.398 . S
C4613 C4615 1.396 . S
C4614 C4613 1.398 . S
C4614 C4618 1.407 . S
C4615 C4613 1.396 . S
C4615 C4616 1.394 . S
C4616 H4611 0.929 . S
C4616 C4615 1.394 . S
C4616 C4617 1.382 . S
C4617 C4616 1.382 . S
C4617 C4618 1.392 . S
C4617 N4619 1.420 . S
C4618 H4612 0.930 . S
C4618 C4614 1.407 . S
C4618 C4617 1.392 . S
N4619 C4617 1.420 . S
N4619 C4620 1.244 . S
C4620 N4619 1.244 . S
H4621 C4624 0.929 . S
H4622 C4627 0.929 . S
H4623 C4629 0.930 . S
C4624 H4621 0.929 . S
C4624 C4625 1.398 . S
C4624 C4626 1.396 . S
C4625 C4624 1.398 . S
C4625 C4629 1.407 . S
C4626 C4624 1.396 . S
C4626 C4627 1.394 . S
C4627 H4622 0.929 . S
C4627 C4626 1.394 . S
C4627 C4628 1.382 . S
C4628 C4627 1.382 . S
C4628 C4629 1.392 . S
C4628 N4630 1.420 . S
C4629 H4623 0.930 . S
C4629 C4625 1.407 . S
C4629 C4628 1.392 . S
N4630 C4628 1.420 . S
N4630 C4631 1.244 . S
C4631 N4630 1.244 . S
H4632 C4635 0.929 . S
H4633 C4638 0.929 . S
H4634 C4640 0.930 . S
C4635 H4632 0.929 . S
C4635 C4636 1.398 . S
C4635 C4637 1.396 . S
C4636 C4635 1.398 . S
C4636 C4640 1.407 . S
C4637 C4635 1.396 . S
C4637 C4638 1.394 . S
C4638 H4633 0.929 . S
C4638 C4637 1.394 . S
C4638 C4639 1.382 . S
C4639 C4638 1.382 . S
C4639 C4640 1.392 . S
C4639 N4641 1.420 . S
C4640 H4634 0.930 . S
C4640 C4636 1.407 . S
C4640 C4639 1.392 . S
N4641 C4639 1.420 . S
N4641 C4642 1.244 . S
C4642 N4641 1.244 . S
H4643 C4646 0.929 . S
H4644 C4649 0.929 . S
H4645 C4651 0.930 . S
C4646 H4643 0.929 . S
C4646 C4647 1.398 . S
C4646 C4648 1.396 . S
C4647 C4646 1.398 . S
C4647 C4651 1.407 . S
C4648 C4646 1.396 . S
C4648 C4649 1.394 . S
C4649 H4644 0.929 . S
C4649 C4648 1.394 . S
C4649 C4650 1.382 . S
C4650 C4649 1.382 . S
C4650 C4651 1.392 . S
C4650 N4652 1.420 . S
C4651 H4645 0.930 . S
C4651 C4647 1.407 . S
C4651 C4650 1.392 . S
N4652 C4650 1.420 . S
N4652 C4653 1.244 . S
C4653 N4652 1.244 . S
H4654 C4657 0.929 . S
H4655 C4660 0.929 . S
H4656 C4662 0.930 . S
C4657 H4654 0.929 . S
C4657 C4658 1.398 . S
C4657 C4659 1.396 . S
C4658 C4657 1.398 . S
C4658 C4662 1.407 . S
C4659 C4657 1.396 . S
C4659 C4660 1.394 . S
C4660 H4655 0.929 . S
C4660 C4659 1.394 . S
C4660 C4661 1.382 . S
C4661 C4660 1.382 . S
C4661 C4662 1.392 . S
C4661 N4663 1.420 . S
C4662 H4656 0.930 . S
C4662 C4658 1.407 . S
C4662 C4661 1.392 . S
N4663 C4661 1.420 . S
N4663 C4664 1.244 . S
C4664 N4663 1.244 . S
H4665 C4668 0.929 . S
H4666 C4671 0.929 . S
H4667 C4673 0.930 . S
C4668 H4665 0.929 . S
C4668 C4669 1.398 . S
C4668 C4670 1.396 . S
C4669 C4668 1.398 . S
C4669 C4673 1.407 . S
C4670 C4668 1.396 . S
C4670 C4671 1.394 . S
C4671 H4666 0.929 . S
C4671 C4670 1.394 . S
C4671 C4672 1.382 . S
C4672 C4671 1.382 . S
C4672 C4673 1.392 . S
C4672 N4674 1.420 . S
C4673 H4667 0.930 . S
C4673 C4669 1.407 . S
C4673 C4672 1.392 . S
N4674 C4672 1.420 . S
N4674 C4675 1.244 . S
C4675 N4674 1.244 . S
H4676 C4679 0.929 . S
H4677 C4682 0.929 . S
H4678 C4684 0.930 . S
C4679 H4676 0.929 . S
C4679 C4680 1.398 . S
C4679 C4681 1.396 . S
C4680 C4679 1.398 . S
C4680 C4684 1.407 . S
C4681 C4679 1.396 . S
C4681 C4682 1.394 . S
C4682 H4677 0.929 . S
C4682 C4681 1.394 . S
C4682 C4683 1.382 . S
C4683 C4682 1.382 . S
C4683 C4684 1.392 . S
C4683 N4685 1.420 . S
C4684 H4678 0.930 . S
C4684 C4680 1.407 . S
C4684 C4683 1.392 . S
N4685 C4683 1.420 . S
N4685 C4686 1.244 . S
C4686 N4685 1.244 . S
H4687 C4690 0.929 . S
H4688 C4693 0.929 . S
H4689 C4695 0.930 . S
C4690 H4687 0.929 . S
C4690 C4691 1.398 . S
C4690 C4692 1.396 . S
C4691 C4690 1.398 . S
C4691 C4695 1.407 . S
C4692 C4690 1.396 . S
C4692 C4693 1.394 . S
C4693 H4688 0.929 . S
C4693 C4692 1.394 . S
C4693 C4694 1.382 . S
C4694 C4693 1.382 . S
C4694 C4695 1.392 . S
C4694 N4696 1.420 . S
C4695 H4689 0.930 . S
C4695 C4691 1.407 . S
C4695 C4694 1.392 . S
N4696 C4694 1.420 . S
N4696 C4697 1.244 . S
C4697 N4696 1.244 . S
H4698 C4701 0.929 . S
H4699 C4704 0.929 . S
H4700 C4706 0.930 . S
C4701 H4698 0.929 . S
C4701 C4702 1.398 . S
C4701 C4703 1.396 . S
C4702 C4701 1.398 . S
C4702 C4706 1.407 . S
C4703 C4701 1.396 . S
C4703 C4704 1.394 . S
C4704 H4699 0.929 . S
C4704 C4703 1.394 . S
C4704 C4705 1.382 . S
C4705 C4704 1.382 . S
C4705 C4706 1.392 . S
C4705 N4707 1.420 . S
C4706 H4700 0.930 . S
C4706 C4702 1.407 . S
C4706 C4705 1.392 . S
N4707 C4705 1.420 . S
N4707 C4708 1.244 . S
C4708 N4707 1.244 . S
H4709 C4712 0.929 . S
H4710 C4715 0.929 . S
H4711 C4717 0.930 . S
C4712 H4709 0.929 . S
C4712 C4713 1.398 . S
C4712 C4714 1.396 . S
C4713 C4712 1.398 . S
C4713 C4717 1.407 . S
C4714 C4712 1.396 . S
C4714 C4715 1.394 . S
C4715 H4710 0.929 . S
C4715 C4714 1.394 . S
C4715 C4716 1.382 . S
C4716 C4715 1.382 . S
C4716 C4717 1.392 . S
C4716 N4718 1.420 . S
C4717 H4711 0.930 . S
C4717 C4713 1.407 . S
C4717 C4716 1.392 . S
N4718 C4716 1.420 . S
N4718 C4719 1.244 . S
C4719 N4718 1.244 . S
H4720 C4723 0.929 . S
H4721 C4726 0.929 . S
H4722 C4728 0.930 . S
C4723 H4720 0.929 . S
C4723 C4724 1.398 . S
C4723 C4725 1.396 . S
C4724 C4723 1.398 . S
C4724 C4728 1.407 . S
C4725 C4723 1.396 . S
C4725 C4726 1.394 . S
C4726 H4721 0.929 . S
C4726 C4725 1.394 . S
C4726 C4727 1.382 . S
C4727 C4726 1.382 . S
C4727 C4728 1.392 . S
C4727 N4729 1.420 . S
C4728 H4722 0.930 . S
C4728 C4724 1.407 . S
C4728 C4727 1.392 . S
N4729 C4727 1.420 . S
N4729 C4730 1.244 . S
C4730 N4729 1.244 . S
H4731 C4734 0.929 . S
H4732 C4737 0.929 . S
H4733 C4739 0.930 . S
C4734 H4731 0.929 . S
C4734 C4735 1.398 . S
C4734 C4736 1.396 . S
C4735 C4734 1.398 . S
C4735 C4739 1.407 . S
C4736 C4734 1.396 . S
C4736 C4737 1.394 . S
C4737 H4732 0.929 . S
C4737 C4736 1.394 . S
C4737 C4738 1.382 . S
C4738 C4737 1.382 . S
C4738 C4739 1.392 . S
C4738 N4740 1.420 . S
C4739 H4733 0.930 . S
C4739 C4735 1.407 . S
C4739 C4738 1.392 . S
N4740 C4738 1.420 . S
N4740 C4741 1.244 . S
C4741 N4740 1.244 . S
H4742 C4745 0.929 . S
H4743 C4748 0.929 . S
H4744 C4750 0.930 . S
C4745 H4742 0.929 . S
C4745 C4746 1.398 . S
C4745 C4747 1.396 . S
C4746 C4745 1.398 . S
C4746 C4750 1.407 . S
C4747 C4745 1.396 . S
C4747 C4748 1.394 . S
C4748 H4743 0.929 . S
C4748 C4747 1.394 . S
C4748 C4749 1.382 . S
C4749 C4748 1.382 . S
C4749 C4750 1.392 . S
C4749 N4751 1.420 . S
C4750 H4744 0.930 . S
C4750 C4746 1.407 . S
C4750 C4749 1.392 . S
N4751 C4749 1.420 . S
N4751 C4752 1.244 . S
C4752 N4751 1.244 . S
H4753 C4756 0.929 . S
H4754 C4759 0.929 . S
H4755 C4761 0.930 . S
C4756 H4753 0.929 . S
C4756 C4757 1.398 . S
C4756 C4758 1.396 . S
C4757 C4756 1.398 . S
C4757 C4761 1.407 . S
C4758 C4756 1.396 . S
C4758 C4759 1.394 . S
C4759 H4754 0.929 . S
C4759 C4758 1.394 . S
C4759 C4760 1.382 . S
C4760 C4759 1.382 . S
C4760 C4761 1.392 . S
C4760 N4762 1.420 . S
C4761 H4755 0.930 . S
C4761 C4757 1.407 . S
C4761 C4760 1.392 . S
N4762 C4760 1.420 . S
N4762 C4763 1.244 . S
C4763 N4762 1.244 . S
H4764 C4767 0.929 . S
H4765 C4770 0.929 . S
H4766 C4772 0.930 . S
C4767 H4764 0.929 . S
C4767 C4768 1.398 . S
C4767 C4769 1.396 . S
C4768 C4767 1.398 . S
C4768 C4772 1.407 . S
C4769 C4767 1.396 . S
C4769 C4770 1.394 . S
C4770 H4765 0.929 . S
C4770 C4769 1.394 . S
C4770 C4771 1.382 . S
C4771 C4770 1.382 . S
C4771 C4772 1.392 . S
C4771 N4773 1.420 . S
C4772 H4766 0.930 . S
C4772 C4768 1.407 . S
C4772 C4771 1.392 . S
N4773 C4771 1.420 . S
N4773 C4774 1.244 . S
C4774 N4773 1.244 . S
H4775 C4778 0.929 . S
H4776 C4781 0.929 . S
H4777 C4783 0.930 . S
C4778 H4775 0.929 . S
C4778 C4779 1.398 . S
C4778 C4780 1.396 . S
C4779 C4778 1.398 . S
C4779 C4783 1.407 . S
C4780 C4778 1.396 . S
C4780 C4781 1.394 . S
C4781 H4776 0.929 . S
C4781 C4780 1.394 . S
C4781 C4782 1.382 . S
C4782 C4781 1.382 . S
C4782 C4783 1.392 . S
C4782 N4784 1.420 . S
C4783 H4777 0.930 . S
C4783 C4779 1.407 . S
C4783 C4782 1.392 . S
N4784 C4782 1.420 . S
N4784 C4785 1.244 . S
C4785 N4784 1.244 . S
H4786 C4789 0.929 . S
H4787 C4792 0.929 . S
H4788 C4794 0.930 . S
C4789 H4786 0.929 . S
C4789 C4790 1.398 . S
C4789 C4791 1.396 . S
C4790 C4789 1.398 . S
C4790 C4794 1.407 . S
C4791 C4789 1.396 . S
C4791 C4792 1.394 . S
C4792 H4787 0.929 . S
C4792 C4791 1.394 . S
C4792 C4793 1.382 . S
C4793 C4792 1.382 . S
C4793 C4794 1.392 . S
C4793 N4795 1.420 . S
C4794 H4788 0.930 . S
C4794 C4790 1.407 . S
C4794 C4793 1.392 . S
N4795 C4793 1.420 . S
N4795 C4796 1.244 . S
C4796 N4795 1.244 . S
H4797 C4800 0.929 . S
H4798 C4803 0.929 . S
H4799 C4805 0.930 . S
C4800 H4797 0.929 . S
C4800 C4801 1.398 . S
C4800 C4802 1.396 . S
C4801 C4800 1.398 . S
C4801 C4805 1.407 . S
C4802 C4800 1.396 . S
C4802 C4803 1.394 . S
C4803 H4798 0.929 . S
C4803 C4802 1.394 . S
C4803 C4804 1.382 . S
C4804 C4803 1.382 . S
C4804 C4805 1.392 . S
C4804 N4806 1.420 . S
C4805 H4799 0.930 . S
C4805 C4801 1.407 . S
C4805 C4804 1.392 . S
N4806 C4804 1.420 . S
N4806 C4807 1.244 . S
C4807 N4806 1.244 . S
H4808 C4811 0.929 . S
H4809 C4814 0.929 . S
H4810 C4816 0.930 . S
C4811 H4808 0.929 . S
C4811 C4812 1.398 . S
C4811 C4813 1.396 . S
C4812 C4811 1.398 . S
C4812 C4816 1.407 . S
C4813 C4811 1.396 . S
C4813 C4814 1.394 . S
C4814 H4809 0.929 . S
C4814 C4813 1.394 . S
C4814 C4815 1.382 . S
C4815 C4814 1.382 . S
C4815 C4816 1.392 . S
C4815 N4817 1.420 . S
C4816 H4810 0.930 . S
C4816 C4812 1.407 . S
C4816 C4815 1.392 . S
N4817 C4815 1.420 . S
N4817 C4818 1.244 . S
C4818 N4817 1.244 . S
H4819 C4822 0.929 . S
H4820 C4825 0.929 . S
H4821 C4827 0.930 . S
C4822 H4819 0.929 . S
C4822 C4823 1.398 . S
C4822 C4824 1.396 . S
C4823 C4822 1.398 . S
C4823 C4827 1.407 . S
C4824 C4822 1.396 . S
C4824 C4825 1.394 . S
C4825 H4820 0.929 . S
C4825 C4824 1.394 . S
C4825 C4826 1.382 . S
C4826 C4825 1.382 . S
C4826 C4827 1.392 . S
C4826 N4828 1.420 . S
C4827 H4821 0.930 . S
C4827 C4823 1.407 . S
C4827 C4826 1.392 . S
N4828 C4826 1.420 . S
N4828 C4829 1.244 . S
C4829 N4828 1.244 . S
H4830 C4833 0.929 . S
H4831 C4836 0.929 . S
H4832 C4838 0.930 . S
C4833 H4830 0.929 . S
C4833 C4834 1.398 . S
C4833 C4835 1.396 . S
C4834 C4833 1.398 . S
C4834 C4838 1.407 . S
C4835 C4833 1.396 . S
C4835 C4836 1.394 . S
C4836 H4831 0.929 . S
C4836 C4835 1.394 . S
C4836 C4837 1.382 . S
C4837 C4836 1.382 . S
C4837 C4838 1.392 . S
C4837 N4839 1.420 . S
C4838 H4832 0.930 . S
C4838 C4834 1.407 . S
C4838 C4837 1.392 . S
N4839 C4837 1.420 . S
N4839 C4840 1.244 . S
C4840 N4839 1.244 . S
H4841 C4844 0.929 . S
H4842 C4847 0.929 . S
H4843 C4849 0.930 . S
C4844 H4841 0.929 . S
C4844 C4845 1.398 . S
C4844 C4846 1.396 . S
C4845 C4844 1.398 . S
C4845 C4849 1.407 . S
C4846 C4844 1.396 . S
C4846 C4847 1.394 . S
C4847 H4842 0.929 . S
C4847 C4846 1.394 . S
C4847 C4848 1.382 . S
C4848 C4847 1.382 . S
C4848 C4849 1.392 . S
C4848 N4850 1.420 . S
C4849 H4843 0.930 . S
C4849 C4845 1.407 . S
C4849 C4848 1.392 . S
N4850 C4848 1.420 . S
N4850 C4851 1.244 . S
C4851 N4850 1.244 . S
H4852 C4855 0.929 . S
H4853 C4858 0.929 . S
H4854 C4860 0.930 . S
C4855 H4852 0.929 . S
C4855 C4856 1.398 . S
C4855 C4857 1.396 . S
C4856 C4855 1.398 . S
C4856 C4860 1.407 . S
C4857 C4855 1.396 . S
C4857 C4858 1.394 . S
C4858 H4853 0.929 . S
C4858 C4857 1.394 . S
C4858 C4859 1.382 . S
C4859 C4858 1.382 . S
C4859 C4860 1.392 . S
C4859 N4861 1.420 . S
C4860 H4854 0.930 . S
C4860 C4856 1.407 . S
C4860 C4859 1.392 . S
N4861 C4859 1.420 . S
N4861 C4862 1.244 . S
C4862 N4861 1.244 . S
H4863 C4866 0.929 . S
H4864 C4869 0.929 . S
H4865 C4871 0.930 . S
C4866 H4863 0.929 . S
C4866 C4867 1.398 . S
C4866 C4868 1.396 . S
C4867 C4866 1.398 . S
C4867 C4871 1.407 . S
C4868 C4866 1.396 . S
C4868 C4869 1.394 . S
C4869 H4864 0.929 . S
C4869 C4868 1.394 . S
C4869 C4870 1.382 . S
C4870 C4869 1.382 . S
C4870 C4871 1.392 . S
C4870 N4872 1.420 . S
C4871 H4865 0.930 . S
C4871 C4867 1.407 . S
C4871 C4870 1.392 . S
N4872 C4870 1.420 . S
N4872 C4873 1.244 . S
C4873 N4872 1.244 . S
H4874 C4877 0.929 . S
H4875 C4880 0.929 . S
H4876 C4882 0.930 . S
C4877 H4874 0.929 . S
C4877 C4878 1.398 . S
C4877 C4879 1.396 . S
C4878 C4877 1.398 . S
C4878 C4882 1.407 . S
C4879 C4877 1.396 . S
C4879 C4880 1.394 . S
C4880 H4875 0.929 . S
C4880 C4879 1.394 . S
C4880 C4881 1.382 . S
C4881 C4880 1.382 . S
C4881 C4882 1.392 . S
C4881 N4883 1.420 . S
C4882 H4876 0.930 . S
C4882 C4878 1.407 . S
C4882 C4881 1.392 . S
N4883 C4881 1.420 . S
N4883 C4884 1.244 . S
C4884 N4883 1.244 . S
H4885 C4888 0.929 . S
H4886 C4891 0.929 . S
H4887 C4893 0.930 . S
C4888 H4885 0.929 . S
C4888 C4889 1.398 . S
C4888 C4890 1.396 . S
C4889 C4888 1.398 . S
C4889 C4893 1.407 . S
C4890 C4888 1.396 . S
C4890 C4891 1.394 . S
C4891 H4886 0.929 . S
C4891 C4890 1.394 . S
C4891 C4892 1.382 . S
C4892 C4891 1.382 . S
C4892 C4893 1.392 . S
C4892 N4894 1.420 . S
C4893 H4887 0.930 . S
C4893 C4889 1.407 . S
C4893 C4892 1.392 . S
N4894 C4892 1.420 . S
N4894 C4895 1.244 . S
C4895 N4894 1.244 . S
H4896 C4904 0.950 . S
H4897 C4909 0.950 . S
H4898 C4906 0.950 . S
H4899 C4908 0.950 . S
H4900 C4910 0.950 . S
H4901 C4912 0.944 1_455 S
H4902 C4914 0.950 . S
H4903 C4915 0.950 . S
C4904 H4896 0.950 . S
C4904 C4905 1.386 . S
C4904 C4906 1.391 . S
C4905 C4904 1.386 . S
C4905 C4909 1.393 . S
C4906 H4898 0.950 . S
C4906 C4904 1.391 . S
C4906 C4907 1.400 . S
C4907 C4906 1.400 . S
C4907 C4908 1.398 . S
C4907 C4913 1.585 . S
C4908 H4899 0.950 . S
C4908 C4907 1.398 . S
C4908 C4909 1.391 . S
C4909 H4897 0.950 . S
C4909 C4905 1.393 . S
C4909 C4908 1.391 . S
C4910 H4900 0.950 . S
C4910 C4911 1.386 . S
C4910 C4912 1.391 . S
C4911 C4910 1.386 . S
C4911 C4915 1.393 . S
C4912 H4901 0.944 1_655 S
C4912 C4910 1.391 . S
C4912 C4913 1.361 1_655 S
C4913 C4907 1.585 . S
C4913 C4912 1.361 1_455 S
C4913 C4914 1.347 1_455 S
C4914 H4902 0.950 . S
C4914 C4913 1.347 1_655 S
C4914 C4915 1.391 . S
C4915 H4903 0.950 . S
C4915 C4911 1.393 . S
C4915 C4914 1.391 . S
H4916 C4924 0.950 . S
H4917 C4929 0.950 . S
H4918 C4926 0.950 . S
H4919 C4928 0.950 . S
H4920 C4930 0.950 . S
H4921 C4932 0.950 . S
H4922 C4934 0.950 . S
H4923 C4935 0.950 . S
C4924 H4916 0.950 . S
C4924 C4925 1.386 . S
C4924 C4926 1.391 . S
C4925 C4924 1.386 . S
C4925 C4929 1.393 . S
C4926 H4918 0.950 . S
C4926 C4924 1.391 . S
C4926 C4927 1.400 . S
C4927 C4926 1.400 . S
C4927 C4928 1.398 . S
C4927 C4933 1.491 . S
C4928 H4919 0.950 . S
C4928 C4927 1.398 . S
C4928 C4929 1.391 . S
C4929 H4917 0.950 . S
C4929 C4925 1.393 . S
C4929 C4928 1.391 . S
C4930 H4920 0.950 . S
C4930 C4931 1.386 . S
C4930 C4932 1.391 . S
C4931 C4930 1.386 . S
C4931 C4935 1.393 . S
C4932 H4921 0.950 . S
C4932 C4930 1.391 . S
C4932 C4933 1.400 . S
C4933 C4927 1.491 . S
C4933 C4932 1.400 . S
C4933 C4934 1.398 . S
C4934 H4922 0.950 . S
C4934 C4933 1.398 . S
C4934 C4935 1.391 . S
C4935 H4923 0.950 . S
C4935 C4931 1.393 . S
C4935 C4934 1.391 . S
H4936 C4944 0.950 . S
H4937 C4949 0.950 . S
H4938 C4946 0.950 . S
H4939 C4948 0.950 . S
H4940 C4950 0.950 . S
H4941 C4952 0.950 . S
H4942 C4954 0.950 . S
H4943 C4955 0.950 . S
C4944 H4936 0.950 . S
C4944 C4945 1.386 . S
C4944 C4946 1.391 . S
C4945 C4944 1.386 . S
C4945 C4949 1.393 . S
C4946 H4938 0.950 . S
C4946 C4944 1.391 . S
C4946 C4947 1.400 . S
C4947 C4946 1.400 . S
C4947 C4948 1.398 . S
C4947 C4953 1.491 . S
C4948 H4939 0.950 . S
C4948 C4947 1.398 . S
C4948 C4949 1.391 . S
C4949 H4937 0.950 . S
C4949 C4945 1.393 . S
C4949 C4948 1.391 . S
C4950 H4940 0.950 . S
C4950 C4951 1.386 . S
C4950 C4952 1.391 . S
C4951 C4950 1.386 . S
C4951 C4955 1.393 . S
C4952 H4941 0.950 . S
C4952 C4950 1.391 . S
C4952 C4953 1.400 . S
C4953 C4947 1.491 . S
C4953 C4952 1.400 . S
C4953 C4954 1.398 . S
C4954 H4942 0.950 . S
C4954 C4953 1.398 . S
C4954 C4955 1.391 . S
C4955 H4943 0.950 . S
C4955 C4951 1.393 . S
C4955 C4954 1.391 . S
H4956 C4964 0.950 . S
H4957 C4969 0.950 . S
H4958 C4966 0.950 . S
H4959 C4968 0.950 . S
H4960 C4970 0.950 . S
H4961 C4972 0.950 . S
H4962 C4974 0.950 . S
H4963 C4975 0.950 . S
C4964 H4956 0.950 . S
C4964 C4965 1.386 . S
C4964 C4966 1.391 . S
C4965 C4964 1.386 . S
C4965 C4969 1.393 . S
C4966 H4958 0.950 . S
C4966 C4964 1.391 . S
C4966 C4967 1.400 . S
C4967 C4966 1.400 . S
C4967 C4968 1.398 . S
C4967 C4973 1.491 . S
C4968 H4959 0.950 . S
C4968 C4967 1.398 . S
C4968 C4969 1.391 . S
C4969 H4957 0.950 . S
C4969 C4965 1.393 . S
C4969 C4968 1.391 . S
C4970 H4960 0.950 . S
C4970 C4971 1.386 . S
C4970 C4972 1.391 . S
C4971 C4970 1.386 . S
C4971 C4975 1.393 . S
C4972 H4961 0.950 . S
C4972 C4970 1.391 . S
C4972 C4973 1.400 . S
C4973 C4967 1.491 . S
C4973 C4972 1.400 . S
C4973 C4974 1.398 . S
C4974 H4962 0.950 . S
C4974 C4973 1.398 . S
C4974 C4975 1.391 . S
C4975 H4963 0.950 . S
C4975 C4971 1.393 . S
C4975 C4974 1.391 . S
H4976 C4984 0.950 . S
H4977 C4989 0.950 . S
H4978 C4986 0.950 . S
H4979 C4988 0.950 . S
H4980 C4990 0.950 . S
H4981 C4992 0.950 . S
H4982 C4994 0.850 1_455 S
H4983 C4995 0.950 . S
C4984 H4976 0.950 . S
C4984 C4985 1.386 . S
C4984 C4986 1.391 . S
C4985 C4984 1.386 . S
C4985 C4989 1.393 . S
C4986 H4978 0.950 . S
C4986 C4984 1.391 . S
C4986 C4987 1.400 . S
C4987 C4986 1.400 . S
C4987 C4988 1.398 . S
C4987 C4993 1.583 . S
C4988 H4979 0.950 . S
C4988 C4987 1.398 . S
C4988 C4989 1.391 . S
C4989 H4977 0.950 . S
C4989 C4985 1.393 . S
C4989 C4988 1.391 . S
C4990 H4980 0.950 . S
C4990 C4991 1.386 . S
C4990 C4992 1.391 . S
C4991 C4990 1.386 . S
C4991 C4995 1.393 . S
C4992 H4981 0.950 . S
C4992 C4990 1.391 . S
C4992 C4993 1.328 1_655 S
C4993 C4987 1.583 . S
C4993 C4992 1.328 1_455 S
C4993 C4994 1.368 1_455 S
C4994 H4982 0.850 1_655 S
C4994 C4993 1.368 1_655 S
C4994 C4995 1.527 . S
C4995 H4983 0.950 . S
C4995 C4991 1.393 . S
C4995 C4994 1.527 . S
H4996 C5004 0.950 . S
H4997 C5009 0.950 . S
H4998 C5006 0.950 . S
H4999 C5008 0.950 . S
H5000 C5010 0.950 . S
H5001 C5012 0.950 . S
H5002 C5014 0.950 . S
H5003 C5015 0.950 . S
C5004 H4996 0.950 . S
C5004 C5005 1.386 . S
C5004 C5006 1.391 . S
C5005 C5004 1.386 . S
C5005 C5009 1.393 . S
C5006 H4998 0.950 . S
C5006 C5004 1.391 . S
C5006 C5007 1.400 . S
C5007 C5006 1.400 . S
C5007 C5008 1.398 . S
C5007 C5013 1.491 . S
C5008 H4999 0.950 . S
C5008 C5007 1.398 . S
C5008 C5009 1.391 . S
C5009 H4997 0.950 . S
C5009 C5005 1.393 . S
C5009 C5008 1.391 . S
C5010 H5000 0.950 . S
C5010 C5011 1.386 . S
C5010 C5012 1.391 . S
C5011 C5010 1.386 . S
C5011 C5015 1.393 . S
C5012 H5001 0.950 . S
C5012 C5010 1.391 . S
C5012 C5013 1.400 . S
C5013 C5007 1.491 . S
C5013 C5012 1.400 . S
C5013 C5014 1.398 . S
C5014 H5002 0.950 . S
C5014 C5013 1.398 . S
C5014 C5015 1.391 . S
C5015 H5003 0.950 . S
C5015 C5011 1.393 . S
C5015 C5014 1.391 . S
H5016 C5024 0.950 . S
H5017 C5029 0.950 . S
H5018 C5026 0.950 . S
H5019 C5028 0.950 . S
H5020 C5030 0.950 . S
H5021 C5032 0.950 . S
H5022 C5034 0.950 . S
H5023 C5035 0.950 . S
C5024 H5016 0.950 . S
C5024 C5025 1.386 . S
C5024 C5026 1.391 . S
C5025 C5024 1.386 . S
C5025 C5029 1.393 . S
C5026 H5018 0.950 . S
C5026 C5024 1.391 . S
C5026 C5027 1.400 . S
C5027 C5026 1.400 . S
C5027 C5028 1.398 . S
C5027 C5033 1.491 . S
C5028 H5019 0.950 . S
C5028 C5027 1.398 . S
C5028 C5029 1.391 . S
C5029 H5017 0.950 . S
C5029 C5025 1.393 . S
C5029 C5028 1.391 . S
C5030 H5020 0.950 . S
C5030 C5031 1.386 . S
C5030 C5032 1.391 . S
C5031 C5030 1.386 . S
C5031 C5035 1.393 . S
C5032 H5021 0.950 . S
C5032 C5030 1.391 . S
C5032 C5033 1.400 . S
C5033 C5027 1.491 . S
C5033 C5032 1.400 . S
C5033 C5034 1.398 . S
C5034 H5022 0.950 . S
C5034 C5033 1.398 . S
C5034 C5035 1.391 . S
C5035 H5023 0.950 . S
C5035 C5031 1.393 . S
C5035 C5034 1.391 . S
H5036 C5044 0.950 . S
H5037 C5049 0.950 . S
H5038 C5046 0.950 . S
H5039 C5048 0.950 . S
H5040 C5050 0.950 . S
H5041 C5052 0.950 . S
H5042 C5054 0.950 . S
H5043 C5055 0.950 . S
C5044 H5036 0.950 . S
C5044 C5045 1.386 . S
C5044 C5046 1.391 . S
C5045 C5044 1.386 . S
C5045 C5049 1.393 . S
C5046 H5038 0.950 . S
C5046 C5044 1.391 . S
C5046 C5047 1.400 . S
C5047 C5046 1.400 . S
C5047 C5048 1.398 . S
C5047 C5053 1.491 . S
C5048 H5039 0.950 . S
C5048 C5047 1.398 . S
C5048 C5049 1.391 . S
C5049 H5037 0.950 . S
C5049 C5045 1.393 . S
C5049 C5048 1.391 . S
C5050 H5040 0.950 . S
C5050 C5051 1.386 . S
C5050 C5052 1.391 . S
C5051 C5050 1.386 . S
C5051 C5055 1.393 . S
C5052 H5041 0.950 . S
C5052 C5050 1.391 . S
C5052 C5053 1.400 . S
C5053 C5047 1.491 . S
C5053 C5052 1.400 . S
C5053 C5054 1.398 . S
C5054 H5042 0.950 . S
C5054 C5053 1.398 . S
C5054 C5055 1.391 . S
C5055 H5043 0.950 . S
C5055 C5051 1.393 . S
C5055 C5054 1.391 . S
H5056 C5064 0.950 . S
H5057 C5069 0.950 . S
H5058 C5066 0.950 . S
H5059 C5068 0.950 . S
H5060 C5070 0.950 . S
H5061 C5072 0.928 1_545 S
H5062 C5074 0.950 . S
H5063 C5075 0.950 . S
C5064 H5056 0.950 . S
C5064 C5065 1.386 . S
C5064 C5066 1.391 . S
C5065 C5064 1.386 . S
C5065 C5069 1.393 . S
C5066 H5058 0.950 . S
C5066 C5064 1.391 . S
C5066 C5067 1.400 . S
C5067 C5066 1.400 . S
C5067 C5068 1.398 . S
C5067 C5073 1.576 . S
C5068 H5059 0.950 . S
C5068 C5067 1.398 . S
C5068 C5069 1.391 . S
C5069 H5057 0.950 . S
C5069 C5065 1.393 . S
C5069 C5068 1.391 . S
C5070 H5060 0.950 . S
C5070 C5071 1.386 . S
C5070 C5072 1.416 . S
C5071 C5070 1.386 . S
C5071 C5075 1.393 . S
C5072 H5061 0.928 1_565 S
C5072 C5070 1.416 . S
C5072 C5073 1.392 1_565 S
C5073 C5067 1.576 . S
C5073 C5072 1.392 1_545 S
C5073 C5074 1.322 1_545 S
C5074 H5062 0.950 . S
C5074 C5073 1.322 1_565 S
C5074 C5075 1.391 . S
C5075 H5063 0.950 . S
C5075 C5071 1.393 . S
C5075 C5074 1.391 . S
H5076 C5084 0.950 . S
H5077 C5089 0.950 . S
H5078 C5086 0.950 . S
H5079 C5088 0.950 . S
H5080 C5090 0.950 . S
H5081 C5092 0.950 . S
H5082 C5094 0.950 . S
H5083 C5095 0.950 . S
C5084 H5076 0.950 . S
C5084 C5085 1.386 . S
C5084 C5086 1.391 . S
C5085 C5084 1.386 . S
C5085 C5089 1.393 . S
C5086 H5078 0.950 . S
C5086 C5084 1.391 . S
C5086 C5087 1.400 . S
C5087 C5086 1.400 . S
C5087 C5088 1.398 . S
C5087 C5093 1.491 . S
C5088 H5079 0.950 . S
C5088 C5087 1.398 . S
C5088 C5089 1.391 . S
C5089 H5077 0.950 . S
C5089 C5085 1.393 . S
C5089 C5088 1.391 . S
C5090 H5080 0.950 . S
C5090 C5091 1.386 . S
C5090 C5092 1.391 . S
C5091 C5090 1.386 . S
C5091 C5095 1.393 . S
C5092 H5081 0.950 . S
C5092 C5090 1.391 . S
C5092 C5093 1.400 . S
C5093 C5087 1.491 . S
C5093 C5092 1.400 . S
C5093 C5094 1.398 . S
C5094 H5082 0.950 . S
C5094 C5093 1.398 . S
C5094 C5095 1.391 . S
C5095 H5083 0.950 . S
C5095 C5091 1.393 . S
C5095 C5094 1.391 . S
H5096 C5104 0.950 . S
H5097 C5109 0.950 . S
H5098 C5106 0.950 . S
H5099 C5108 0.950 . S
H5100 C5110 0.950 . S
H5101 C5112 0.950 1_565 S
H5102 C5114 0.950 . S
H5103 C5115 0.950 . S
C5104 H5096 0.950 . S
C5104 C5105 1.386 . S
C5104 C5106 1.391 . S
C5105 C5104 1.386 . S
C5105 C5109 1.393 . S
C5106 H5098 0.950 . S
C5106 C5104 1.391 . S
C5106 C5107 1.400 . S
C5107 C5106 1.400 . S
C5107 C5108 1.398 . S
C5107 C5113 1.583 . S
C5108 H5099 0.950 . S
C5108 C5107 1.398 . S
C5108 C5109 1.391 . S
C5109 H5097 0.950 . S
C5109 C5105 1.393 . S
C5109 C5108 1.391 . S
C5110 H5100 0.950 . S
C5110 C5111 1.386 . S
C5110 C5112 1.391 . S
C5111 C5110 1.386 . S
C5111 C5115 1.393 . S
C5112 H5101 0.950 1_545 S
C5112 C5110 1.391 . S
C5112 C5113 1.377 1_545 S
C5113 C5107 1.583 . S
C5113 C5112 1.377 1_565 S
C5113 C5114 1.332 1_565 S
C5114 H5102 0.950 . S
C5114 C5113 1.332 1_545 S
C5114 C5115 1.391 . S
C5115 H5103 0.950 . S
C5115 C5111 1.393 . S
C5115 C5114 1.391 . S
H5116 C5124 0.950 . S
H5117 C5129 0.950 . S
H5118 C5126 0.950 . S
H5119 C5128 0.950 . S
H5120 C5130 0.950 . S
H5121 C5132 0.950 . S
H5122 C5134 0.950 . S
H5123 C5135 0.950 . S
C5124 H5116 0.950 . S
C5124 C5125 1.386 . S
C5124 C5126 1.391 . S
C5125 C5124 1.386 . S
C5125 C5129 1.393 . S
C5126 H5118 0.950 . S
C5126 C5124 1.391 . S
C5126 C5127 1.400 . S
C5127 C5126 1.400 . S
C5127 C5128 1.398 . S
C5127 C5133 1.491 . S
C5128 H5119 0.950 . S
C5128 C5127 1.398 . S
C5128 C5129 1.391 . S
C5129 H5117 0.950 . S
C5129 C5125 1.393 . S
C5129 C5128 1.391 . S
C5130 H5120 0.950 . S
C5130 C5131 1.386 . S
C5130 C5132 1.391 . S
C5131 C5130 1.386 . S
C5131 C5135 1.393 . S
C5132 H5121 0.950 . S
C5132 C5130 1.391 . S
C5132 C5133 1.400 . S
C5133 C5127 1.491 . S
C5133 C5132 1.400 . S
C5133 C5134 1.398 . S
C5134 H5122 0.950 . S
C5134 C5133 1.398 . S
C5134 C5135 1.391 . S
C5135 H5123 0.950 . S
C5135 C5131 1.393 . S
C5135 C5134 1.391 . S
H5136 C5144 0.950 . S
H5137 C5149 0.950 . S
H5138 C5146 0.950 . S
H5139 C5148 0.950 . S
H5140 C5150 0.950 . S
H5141 C5152 0.921 1_565 S
H5142 C5154 0.950 . S
H5143 C5155 0.950 . S
C5144 H5136 0.950 . S
C5144 C5145 1.386 . S
C5144 C5146 1.391 . S
C5145 C5144 1.386 . S
C5145 C5149 1.393 . S
C5146 H5138 0.950 . S
C5146 C5144 1.391 . S
C5146 C5147 1.400 . S
C5147 C5146 1.400 . S
C5147 C5148 1.398 . S
C5147 C5153 1.578 . S
C5148 H5139 0.950 . S
C5148 C5147 1.398 . S
C5148 C5149 1.391 . S
C5149 H5137 0.950 . S
C5149 C5145 1.393 . S
C5149 C5148 1.391 . S
C5150 H5140 0.950 . S
C5150 C5151 1.386 . S
C5150 C5152 1.424 . S
C5151 C5150 1.386 . S
C5151 C5155 1.393 . S
C5152 H5141 0.921 1_545 S
C5152 C5150 1.424 . S
C5152 C5153 1.390 1_545 S
C5153 C5147 1.578 . S
C5153 C5152 1.390 1_565 S
C5153 C5154 1.321 1_565 S
C5154 H5142 0.950 . S
C5154 C5153 1.321 1_545 S
C5154 C5155 1.391 . S
C5155 H5143 0.950 . S
C5155 C5151 1.393 . S
C5155 C5154 1.391 . S
H5156 C5164 0.950 . S
H5157 C5169 0.950 . S
H5158 C5166 0.950 . S
H5159 C5168 0.950 . S
H5160 C5170 0.950 . S
H5161 C5172 0.950 . S
H5162 C5174 0.950 . S
H5163 C5175 0.950 . S
C5164 H5156 0.950 . S
C5164 C5165 1.386 . S
C5164 C5166 1.391 . S
C5165 C5164 1.386 . S
C5165 C5169 1.393 . S
C5166 H5158 0.950 . S
C5166 C5164 1.391 . S
C5166 C5167 1.400 . S
C5167 C5166 1.400 . S
C5167 C5168 1.398 . S
C5167 C5173 1.491 . S
C5168 H5159 0.950 . S
C5168 C5167 1.398 . S
C5168 C5169 1.391 . S
C5169 H5157 0.950 . S
C5169 C5165 1.393 . S
C5169 C5168 1.391 . S
C5170 H5160 0.950 . S
C5170 C5171 1.386 . S
C5170 C5172 1.391 . S
C5171 C5170 1.386 . S
C5171 C5175 1.393 . S
C5172 H5161 0.950 . S
C5172 C5170 1.391 . S
C5172 C5173 1.400 . S
C5173 C5167 1.491 . S
C5173 C5172 1.400 . S
C5173 C5174 1.398 . S
C5174 H5162 0.950 . S
C5174 C5173 1.398 . S
C5174 C5175 1.391 . S
C5175 H5163 0.950 . S
C5175 C5171 1.393 . S
C5175 C5174 1.391 . S
H5176 C5184 0.950 . S
H5177 C5189 0.950 . S
H5178 C5186 0.950 . S
H5179 C5188 0.950 . S
H5180 C5190 0.950 . S
H5181 C5192 0.950 . S
H5182 C5194 0.950 1_545 S
H5183 C5195 0.950 . S
C5184 H5176 0.950 . S
C5184 C5185 1.386 . S
C5184 C5186 1.391 . S
C5185 C5184 1.386 . S
C5185 C5189 1.393 . S
C5186 H5178 0.950 . S
C5186 C5184 1.391 . S
C5186 C5187 1.400 . S
C5187 C5186 1.400 . S
C5187 C5188 1.398 . S
C5187 C5193 1.570 . S
C5188 H5179 0.950 . S
C5188 C5187 1.398 . S
C5188 C5189 1.391 . S
C5189 H5177 0.950 . S
C5189 C5185 1.393 . S
C5189 C5188 1.391 . S
C5190 H5180 0.950 . S
C5190 C5191 1.386 . S
C5190 C5192 1.391 . S
C5191 C5190 1.386 . S
C5191 C5195 1.393 . S
C5192 H5181 0.950 . S
C5192 C5190 1.391 . S
C5192 C5193 1.345 1_565 S
C5193 C5187 1.570 . S
C5193 C5192 1.345 1_545 S
C5193 C5194 1.375 1_545 S
C5194 H5182 0.950 1_565 S
C5194 C5193 1.375 1_565 S
C5194 C5195 1.391 . S
C5195 H5183 0.950 . S
C5195 C5191 1.393 . S
C5195 C5194 1.391 . S
H5196 C5204 0.950 . S
H5197 C5209 0.950 . S
H5198 C5206 0.950 . S
H5199 C5208 0.950 . S
H5200 C5210 0.950 . S
H5201 C5212 0.950 . S
H5202 C5214 0.950 . S
H5203 C5215 0.950 . S
C5204 H5196 0.950 . S
C5204 C5205 1.386 . S
C5204 C5206 1.391 . S
C5205 C5204 1.386 . S
C5205 C5209 1.393 . S
C5206 H5198 0.950 . S
C5206 C5204 1.391 . S
C5206 C5207 1.400 . S
C5207 C5206 1.400 . S
C5207 C5208 1.398 . S
C5207 C5213 1.491 . S
C5208 H5199 0.950 . S
C5208 C5207 1.398 . S
C5208 C5209 1.391 . S
C5209 H5197 0.950 . S
C5209 C5205 1.393 . S
C5209 C5208 1.391 . S
C5210 H5200 0.950 . S
C5210 C5211 1.386 . S
C5210 C5212 1.391 . S
C5211 C5210 1.386 . S
C5211 C5215 1.393 . S
C5212 H5201 0.950 . S
C5212 C5210 1.391 . S
C5212 C5213 1.400 . S
C5213 C5207 1.491 . S
C5213 C5212 1.400 . S
C5213 C5214 1.398 . S
C5214 H5202 0.950 . S
C5214 C5213 1.398 . S
C5214 C5215 1.391 . S
C5215 H5203 0.950 . S
C5215 C5211 1.393 . S
C5215 C5214 1.391 . S
H5216 C5224 0.950 . S
H5217 C5229 0.950 . S
H5218 C5226 0.950 . S
H5219 C5228 0.950 . S
H5220 C5230 0.950 . S
H5221 C5232 0.950 . S
H5222 C5234 0.961 . S
H5223 C5235 0.950 . S
C5224 H5216 0.950 . S
C5224 C5225 1.386 . S
C5224 C5226 1.391 . S
C5225 C5224 1.386 . S
C5225 C5229 1.393 . S
C5226 H5218 0.950 . S
C5226 C5224 1.391 . S
C5226 C5227 1.400 . S
C5227 C5226 1.400 . S
C5227 C5228 1.398 . S
C5227 C5233 1.568 . S
C5228 H5219 0.950 . S
C5228 C5227 1.398 . S
C5228 C5229 1.391 . S
C5229 H5217 0.950 . S
C5229 C5225 1.393 . S
C5229 C5228 1.391 . S
C5230 H5220 0.950 . S
C5230 C5231 1.386 . S
C5230 C5232 1.391 . S
C5231 C5230 1.386 . S
C5231 C5235 1.393 . S
C5232 H5221 0.950 . S
C5232 C5230 1.391 . S
C5232 C5233 1.358 1_556 S
C5233 C5227 1.568 . S
C5233 C5232 1.358 1_554 S
C5233 C5234 1.364 1_554 S
C5234 H5222 0.961 . S
C5234 C5233 1.364 1_556 S
C5234 C5235 1.391 . S
C5235 H5223 0.950 . S
C5235 C5231 1.393 . S
C5235 C5234 1.391 . S
H5236 C5244 0.950 . S
H5237 C5249 0.950 . S
H5238 C5246 0.950 . S
H5239 C5248 0.950 . S
H5240 C5250 0.950 . S
H5241 C5252 0.950 . S
H5242 C5254 0.918 1_556 S
H5243 C5255 0.950 . S
C5244 H5236 0.950 . S
C5244 C5245 1.386 . S
C5244 C5246 1.391 . S
C5245 C5244 1.386 . S
C5245 C5249 1.393 . S
C5246 H5238 0.950 . S
C5246 C5244 1.391 . S
C5246 C5247 1.400 . S
C5247 C5246 1.400 . S
C5247 C5248 1.398 . S
C5247 C5253 1.585 . S
C5248 H5239 0.950 . S
C5248 C5247 1.398 . S
C5248 C5249 1.391 . S
C5249 H5237 0.950 . S
C5249 C5245 1.393 . S
C5249 C5248 1.391 . S
C5250 H5240 0.950 . S
C5250 C5251 1.386 . S
C5250 C5252 1.391 . S
C5251 C5250 1.386 . S
C5251 C5255 1.393 . S
C5252 H5241 0.950 . S
C5252 C5250 1.391 . S
C5252 C5253 1.347 1_554 S
C5253 C5247 1.585 . S
C5253 C5252 1.347 1_556 S
C5253 C5254 1.361 1_556 S
C5254 H5242 0.918 1_554 S
C5254 C5253 1.361 1_554 S
C5254 C5255 1.391 . S
C5255 H5243 0.950 . S
C5255 C5251 1.393 . S
C5255 C5254 1.391 . S
H5256 C5264 0.950 . S
H5257 C5269 0.950 . S
H5258 C5266 0.950 . S
H5259 C5268 0.950 . S
H5260 C5270 0.950 . S
H5261 C5272 0.950 . S
H5262 C5274 0.950 . S
H5263 C5275 0.950 . S
C5264 H5256 0.950 . S
C5264 C5265 1.386 . S
C5264 C5266 1.391 . S
C5265 C5264 1.386 . S
C5265 C5269 1.393 . S
C5266 H5258 0.950 . S
C5266 C5264 1.391 . S
C5266 C5267 1.400 . S
C5267 C5266 1.400 . S
C5267 C5268 1.398 . S
C5267 C5273 1.491 . S
C5268 H5259 0.950 . S
C5268 C5267 1.398 . S
C5268 C5269 1.391 . S
C5269 H5257 0.950 . S
C5269 C5265 1.393 . S
C5269 C5268 1.391 . S
C5270 H5260 0.950 . S
C5270 C5271 1.386 . S
C5270 C5272 1.391 . S
C5271 C5270 1.386 . S
C5271 C5275 1.393 . S
C5272 H5261 0.950 . S
C5272 C5270 1.391 . S
C5272 C5273 1.400 . S
C5273 C5267 1.491 . S
C5273 C5272 1.400 . S
C5273 C5274 1.398 . S
C5274 H5262 0.950 . S
C5274 C5273 1.398 . S
C5274 C5275 1.391 . S
C5275 H5263 0.950 . S
C5275 C5271 1.393 . S
C5275 C5274 1.391 . S
H5276 C5284 0.950 . S
H5277 C5289 0.950 . S
H5278 C5286 0.950 . S
H5279 C5288 0.950 . S
H5280 C5290 0.950 . S
H5281 C5292 0.950 . S
H5282 C5294 0.950 . S
H5283 C5295 0.950 . S
C5284 H5276 0.950 . S
C5284 C5285 1.386 . S
C5284 C5286 1.391 . S
C5285 C5284 1.386 . S
C5285 C5289 1.393 . S
C5286 H5278 0.950 . S
C5286 C5284 1.391 . S
C5286 C5287 1.400 . S
C5287 C5286 1.400 . S
C5287 C5288 1.398 . S
C5287 C5293 1.491 . S
C5288 H5279 0.950 . S
C5288 C5287 1.398 . S
C5288 C5289 1.391 . S
C5289 H5277 0.950 . S
C5289 C5285 1.393 . S
C5289 C5288 1.391 . S
C5290 H5280 0.950 . S
C5290 C5291 1.386 . S
C5290 C5292 1.391 . S
C5291 C5290 1.386 . S
C5291 C5295 1.393 . S
C5292 H5281 0.950 . S
C5292 C5290 1.391 . S
C5292 C5293 1.400 . S
C5293 C5287 1.491 . S
C5293 C5292 1.400 . S
C5293 C5294 1.398 . S
C5294 H5282 0.950 . S
C5294 C5293 1.398 . S
C5294 C5295 1.391 . S
C5295 H5283 0.950 . S
C5295 C5291 1.393 . S
C5295 C5294 1.391 . S
H5296 C5304 0.950 . S
H5297 C5309 0.950 . S
H5298 C5306 0.950 . S
H5299 C5308 0.950 . S
H5300 C5310 0.950 . S
H5301 C5312 0.950 . S
H5302 C5314 0.950 . S
H5303 C5315 0.950 . S
C5304 H5296 0.950 . S
C5304 C5305 1.386 . S
C5304 C5306 1.391 . S
C5305 C5304 1.386 . S
C5305 C5309 1.393 . S
C5306 H5298 0.950 . S
C5306 C5304 1.391 . S
C5306 C5307 1.400 . S
C5307 C5306 1.400 . S
C5307 C5308 1.398 . S
C5307 C5313 1.491 . S
C5308 H5299 0.950 . S
C5308 C5307 1.398 . S
C5308 C5309 1.391 . S
C5309 H5297 0.950 . S
C5309 C5305 1.393 . S
C5309 C5308 1.391 . S
C5310 H5300 0.950 . S
C5310 C5311 1.386 . S
C5310 C5312 1.391 . S
C5311 C5310 1.386 . S
C5311 C5315 1.393 . S
C5312 H5301 0.950 . S
C5312 C5310 1.391 . S
C5312 C5313 1.400 . S
C5313 C5307 1.491 . S
C5313 C5312 1.400 . S
C5313 C5314 1.398 . S
C5314 H5302 0.950 . S
C5314 C5313 1.398 . S
C5314 C5315 1.391 . S
C5315 H5303 0.950 . S
C5315 C5311 1.393 . S
C5315 C5314 1.391 . S
H5316 C5324 0.950 . S
H5317 C5329 0.950 . S
H5318 C5326 0.950 . S
H5319 C5328 0.950 . S
H5320 C5330 0.950 . S
H5321 C5332 0.950 . S
H5322 C5334 0.950 . S
H5323 C5335 0.950 . S
C5324 H5316 0.950 . S
C5324 C5325 1.386 . S
C5324 C5326 1.391 . S
C5325 C5324 1.386 . S
C5325 C5329 1.393 . S
C5326 H5318 0.950 . S
C5326 C5324 1.391 . S
C5326 C5327 1.400 . S
C5327 C5326 1.400 . S
C5327 C5328 1.398 . S
C5327 C5333 1.491 . S
C5328 H5319 0.950 . S
C5328 C5327 1.398 . S
C5328 C5329 1.391 . S
C5329 H5317 0.950 . S
C5329 C5325 1.393 . S
C5329 C5328 1.391 . S
C5330 H5320 0.950 . S
C5330 C5331 1.386 . S
C5330 C5332 1.391 . S
C5331 C5330 1.386 . S
C5331 C5335 1.393 . S
C5332 H5321 0.950 . S
C5332 C5330 1.391 . S
C5332 C5333 1.400 . S
C5333 C5327 1.491 . S
C5333 C5332 1.400 . S
C5333 C5334 1.398 . S
C5334 H5322 0.950 . S
C5334 C5333 1.398 . S
C5334 C5335 1.391 . S
C5335 H5323 0.950 . S
C5335 C5331 1.393 . S
C5335 C5334 1.391 . S
H5336 C5344 0.950 . S
H5337 C5349 0.950 . S
H5338 C5346 0.950 . S
H5339 C5348 0.950 . S
H5340 C5350 0.950 . S
H5341 C5352 0.950 . S
H5342 C5354 0.950 . S
H5343 C5355 0.950 . S
C5344 H5336 0.950 . S
C5344 C5345 1.386 . S
C5344 C5346 1.391 . S
C5345 C5344 1.386 . S
C5345 C5349 1.393 . S
C5346 H5338 0.950 . S
C5346 C5344 1.391 . S
C5346 C5347 1.400 . S
C5347 C5346 1.400 . S
C5347 C5348 1.398 . S
C5347 C5353 1.491 . S
C5348 H5339 0.950 . S
C5348 C5347 1.398 . S
C5348 C5349 1.391 . S
C5349 H5337 0.950 . S
C5349 C5345 1.393 . S
C5349 C5348 1.391 . S
C5350 H5340 0.950 . S
C5350 C5351 1.386 . S
C5350 C5352 1.391 . S
C5351 C5350 1.386 . S
C5351 C5355 1.393 . S
C5352 H5341 0.950 . S
C5352 C5350 1.391 . S
C5352 C5353 1.400 . S
C5353 C5347 1.491 . S
C5353 C5352 1.400 . S
C5353 C5354 1.398 . S
C5354 H5342 0.950 . S
C5354 C5353 1.398 . S
C5354 C5355 1.391 . S
C5355 H5343 0.950 . S
C5355 C5351 1.393 . S
C5355 C5354 1.391 . S
H5356 C5364 0.950 . S
H5357 C5369 0.950 . S
H5358 C5366 0.950 . S
H5359 C5368 0.950 . S
H5360 C5370 0.950 . S
H5361 C5372 0.950 . S
H5362 C5374 0.950 . S
H5363 C5375 0.950 . S
C5364 H5356 0.950 . S
C5364 C5365 1.386 . S
C5364 C5366 1.391 . S
C5365 C5364 1.386 . S
C5365 C5369 1.393 . S
C5366 H5358 0.950 . S
C5366 C5364 1.391 . S
C5366 C5367 1.400 . S
C5367 C5366 1.400 . S
C5367 C5368 1.398 . S
C5367 C5373 1.491 . S
C5368 H5359 0.950 . S
C5368 C5367 1.398 . S
C5368 C5369 1.391 . S
C5369 H5357 0.950 . S
C5369 C5365 1.393 . S
C5369 C5368 1.391 . S
C5370 H5360 0.950 . S
C5370 C5371 1.386 . S
C5370 C5372 1.391 . S
C5371 C5370 1.386 . S
C5371 C5375 1.393 . S
C5372 H5361 0.950 . S
C5372 C5370 1.391 . S
C5372 C5373 1.400 . S
C5373 C5367 1.491 . S
C5373 C5372 1.400 . S
C5373 C5374 1.398 . S
C5374 H5362 0.950 . S
C5374 C5373 1.398 . S
C5374 C5375 1.391 . S
C5375 H5363 0.950 . S
C5375 C5371 1.393 . S
C5375 C5374 1.391 . S
H5376 C5384 0.950 . S
H5377 C5389 0.950 . S
H5378 C5386 0.950 . S
H5379 C5388 0.950 . S
H5380 C5390 0.950 . S
H5381 C5392 0.950 . S
H5382 C5394 0.927 1_655 S
H5383 C5395 0.950 . S
C5384 H5376 0.950 . S
C5384 C5385 1.386 . S
C5384 C5386 1.391 . S
C5385 C5384 1.386 . S
C5385 C5389 1.393 . S
C5386 H5378 0.950 . S
C5386 C5384 1.391 . S
C5386 C5387 1.400 . S
C5387 C5386 1.400 . S
C5387 C5388 1.398 . S
C5387 C5393 1.580 . S
C5388 H5379 0.950 . S
C5388 C5387 1.398 . S
C5388 C5389 1.391 . S
C5389 H5377 0.950 . S
C5389 C5385 1.393 . S
C5389 C5388 1.391 . S
C5390 H5380 0.950 . S
C5390 C5391 1.386 . S
C5390 C5392 1.391 . S
C5391 C5390 1.386 . S
C5391 C5395 1.393 . S
C5392 H5381 0.950 . S
C5392 C5390 1.391 . S
C5392 C5393 1.321 1_455 S
C5393 C5387 1.580 . S
C5393 C5392 1.321 1_655 S
C5393 C5394 1.389 1_655 S
C5394 H5382 0.927 1_455 S
C5394 C5393 1.389 1_455 S
C5394 C5395 1.417 . S
C5395 H5383 0.950 . S
C5395 C5391 1.393 . S
C5395 C5394 1.417 . S
H5396 C5404 0.950 . S
H5397 C5409 0.950 . S
H5398 C5406 0.950 . S
H5399 C5408 0.950 . S
H5400 C5410 0.950 . S
H5401 C5412 0.950 . S
H5402 C5414 0.950 . S
H5403 C5415 0.950 . S
C5404 H5396 0.950 . S
C5404 C5405 1.386 . S
C5404 C5406 1.391 . S
C5405 C5404 1.386 . S
C5405 C5409 1.393 . S
C5406 H5398 0.950 . S
C5406 C5404 1.391 . S
C5406 C5407 1.400 . S
C5407 C5406 1.400 . S
C5407 C5408 1.398 . S
C5407 C5413 1.491 . S
C5408 H5399 0.950 . S
C5408 C5407 1.398 . S
C5408 C5409 1.391 . S
C5409 H5397 0.950 . S
C5409 C5405 1.393 . S
C5409 C5408 1.391 . S
C5410 H5400 0.950 . S
C5410 C5411 1.386 . S
C5410 C5412 1.391 . S
C5411 C5410 1.386 . S
C5411 C5415 1.393 . S
C5412 H5401 0.950 . S
C5412 C5410 1.391 . S
C5412 C5413 1.400 . S
C5413 C5407 1.491 . S
C5413 C5412 1.400 . S
C5413 C5414 1.398 . S
C5414 H5402 0.950 . S
C5414 C5413 1.398 . S
C5414 C5415 1.391 . S
C5415 H5403 0.950 . S
C5415 C5411 1.393 . S
C5415 C5414 1.391 . S
H5416 C5424 0.950 . S
H5417 C5429 0.950 . S
H5418 C5426 0.950 . S
H5419 C5428 0.950 . S
H5420 C5430 0.950 . S
H5421 C5432 0.950 . S
H5422 C5434 0.950 . S
H5423 C5435 0.950 . S
C5424 H5416 0.950 . S
C5424 C5425 1.386 . S
C5424 C5426 1.391 . S
C5425 C5424 1.386 . S
C5425 C5429 1.393 . S
C5426 H5418 0.950 . S
C5426 C5424 1.391 . S
C5426 C5427 1.400 . S
C5427 C5426 1.400 . S
C5427 C5428 1.398 . S
C5427 C5433 1.491 . S
C5428 H5419 0.950 . S
C5428 C5427 1.398 . S
C5428 C5429 1.391 . S
C5429 H5417 0.950 . S
C5429 C5425 1.393 . S
C5429 C5428 1.391 . S
C5430 H5420 0.950 . S
C5430 C5431 1.386 . S
C5430 C5432 1.391 . S
C5431 C5430 1.386 . S
C5431 C5435 1.393 . S
C5432 H5421 0.950 . S
C5432 C5430 1.391 . S
C5432 C5433 1.400 . S
C5433 C5427 1.491 . S
C5433 C5432 1.400 . S
C5433 C5434 1.398 . S
C5434 H5422 0.950 . S
C5434 C5433 1.398 . S
C5434 C5435 1.391 . S
C5435 H5423 0.950 . S
C5435 C5431 1.393 . S
C5435 C5434 1.391 . S
H5436 C5444 0.950 . S
H5437 C5449 0.950 . S
H5438 C5446 0.950 . S
H5439 C5448 0.950 . S
H5440 C5450 0.950 . S
H5441 C5452 0.950 . S
H5442 C5454 0.950 . S
H5443 C5455 0.950 . S
C5444 H5436 0.950 . S
C5444 C5445 1.386 . S
C5444 C5446 1.391 . S
C5445 C5444 1.386 . S
C5445 C5449 1.393 . S
C5446 H5438 0.950 . S
C5446 C5444 1.391 . S
C5446 C5447 1.400 . S
C5447 C5446 1.400 . S
C5447 C5448 1.398 . S
C5447 C5453 1.491 . S
C5448 H5439 0.950 . S
C5448 C5447 1.398 . S
C5448 C5449 1.391 . S
C5449 H5437 0.950 . S
C5449 C5445 1.393 . S
C5449 C5448 1.391 . S
C5450 H5440 0.950 . S
C5450 C5451 1.386 . S
C5450 C5452 1.391 . S
C5451 C5450 1.386 . S
C5451 C5455 1.393 . S
C5452 H5441 0.950 . S
C5452 C5450 1.391 . S
C5452 C5453 1.400 . S
C5453 C5447 1.491 . S
C5453 C5452 1.400 . S
C5453 C5454 1.398 . S
C5454 H5442 0.950 . S
C5454 C5453 1.398 . S
C5454 C5455 1.391 . S
C5455 H5443 0.950 . S
C5455 C5451 1.393 . S
C5455 C5454 1.391 . S
H5456 C5464 0.950 . S
H5457 C5469 0.950 . S
H5458 C5466 0.950 . S
H5459 C5468 0.950 . S
H5460 C5470 0.950 . S
H5461 C5472 0.913 1_655 S
H5462 C5474 0.950 . S
H5463 C5475 0.950 . S
C5464 H5456 0.950 . S
C5464 C5465 1.386 . S
C5464 C5466 1.391 . S
C5465 C5464 1.386 . S
C5465 C5469 1.393 . S
C5466 H5458 0.950 . S
C5466 C5464 1.391 . S
C5466 C5467 1.400 . S
C5467 C5466 1.400 . S
C5467 C5468 1.398 . S
C5467 C5473 1.574 . S
C5468 H5459 0.950 . S
C5468 C5467 1.398 . S
C5468 C5469 1.391 . S
C5469 H5457 0.950 . S
C5469 C5465 1.393 . S
C5469 C5468 1.391 . S
C5470 H5460 0.950 . S
C5470 C5471 1.386 . S
C5470 C5472 1.434 . S
C5471 C5470 1.386 . S
C5471 C5475 1.393 . S
C5472 H5461 0.913 1_455 S
C5472 C5470 1.434 . S
C5472 C5473 1.390 1_455 S
C5473 C5467 1.574 . S
C5473 C5472 1.390 1_655 S
C5473 C5474 1.325 1_655 S
C5474 H5462 0.950 . S
C5474 C5473 1.325 1_455 S
C5474 C5475 1.391 . S
C5475 H5463 0.950 . S
C5475 C5471 1.393 . S
C5475 C5474 1.391 . S
H5476 C5484 0.950 . S
H5477 C5489 0.950 . S
H5478 C5486 0.950 . S
H5479 C5488 0.950 . S
H5480 C5490 0.950 . S
H5481 C5492 0.950 . S
H5482 C5494 0.950 . S
H5483 C5495 0.950 . S
C5484 H5476 0.950 . S
C5484 C5485 1.386 . S
C5484 C5486 1.391 . S
C5485 C5484 1.386 . S
C5485 C5489 1.393 . S
C5486 H5478 0.950 . S
C5486 C5484 1.391 . S
C5486 C5487 1.400 . S
C5487 C5486 1.400 . S
C5487 C5488 1.398 . S
C5487 C5493 1.491 . S
C5488 H5479 0.950 . S
C5488 C5487 1.398 . S
C5488 C5489 1.391 . S
C5489 H5477 0.950 . S
C5489 C5485 1.393 . S
C5489 C5488 1.391 . S
C5490 H5480 0.950 . S
C5490 C5491 1.386 . S
C5490 C5492 1.391 . S
C5491 C5490 1.386 . S
C5491 C5495 1.393 . S
C5492 H5481 0.950 . S
C5492 C5490 1.391 . S
C5492 C5493 1.400 . S
C5493 C5487 1.491 . S
C5493 C5492 1.400 . S
C5493 C5494 1.398 . S
C5494 H5482 0.950 . S
C5494 C5493 1.398 . S
C5494 C5495 1.391 . S
C5495 H5483 0.950 . S
C5495 C5491 1.393 . S
C5495 C5494 1.391 . S
H5496 C5504 0.950 . S
H5497 C5509 0.950 . S
H5498 C5506 0.950 . S
H5499 C5508 0.950 . S
H5500 C5510 0.950 . S
H5501 C5512 0.950 . S
H5502 C5514 0.950 . S
H5503 C5515 0.950 . S
C5504 H5496 0.950 . S
C5504 C5505 1.386 . S
C5504 C5506 1.391 . S
C5505 C5504 1.386 . S
C5505 C5509 1.393 . S
C5506 H5498 0.950 . S
C5506 C5504 1.391 . S
C5506 C5507 1.400 . S
C5507 C5506 1.400 . S
C5507 C5508 1.398 . S
C5507 C5513 1.491 . S
C5508 H5499 0.950 . S
C5508 C5507 1.398 . S
C5508 C5509 1.391 . S
C5509 H5497 0.950 . S
C5509 C5505 1.393 . S
C5509 C5508 1.391 . S
C5510 H5500 0.950 . S
C5510 C5511 1.386 . S
C5510 C5512 1.391 . S
C5511 C5510 1.386 . S
C5511 C5515 1.393 . S
C5512 H5501 0.950 . S
C5512 C5510 1.391 . S
C5512 C5513 1.400 . S
C5513 C5507 1.491 . S
C5513 C5512 1.400 . S
C5513 C5514 1.398 . S
C5514 H5502 0.950 . S
C5514 C5513 1.398 . S
C5514 C5515 1.391 . S
C5515 H5503 0.950 . S
C5515 C5511 1.393 . S
C5515 C5514 1.391 . S
H5516 C5524 0.950 . S
H5517 C5529 0.950 . S
H5518 C5526 0.950 . S
H5519 C5528 0.950 . S
H5520 C5530 0.950 . S
H5521 C5532 0.950 . S
H5522 C5534 0.950 . S
H5523 C5535 0.950 . S
C5524 H5516 0.950 . S
C5524 C5525 1.386 . S
C5524 C5526 1.391 . S
C5525 C5524 1.386 . S
C5525 C5529 1.393 . S
C5526 H5518 0.950 . S
C5526 C5524 1.391 . S
C5526 C5527 1.400 . S
C5527 C5526 1.400 . S
C5527 C5528 1.398 . S
C5527 C5533 1.491 . S
C5528 H5519 0.950 . S
C5528 C5527 1.398 . S
C5528 C5529 1.391 . S
C5529 H5517 0.950 . S
C5529 C5525 1.393 . S
C5529 C5528 1.391 . S
C5530 H5520 0.950 . S
C5530 C5531 1.386 . S
C5530 C5532 1.391 . S
C5531 C5530 1.386 . S
C5531 C5535 1.393 . S
C5532 H5521 0.950 . S
C5532 C5530 1.391 . S
C5532 C5533 1.400 . S
C5533 C5527 1.491 . S
C5533 C5532 1.400 . S
C5533 C5534 1.398 . S
C5534 H5522 0.950 . S
C5534 C5533 1.398 . S
C5534 C5535 1.391 . S
C5535 H5523 0.950 . S
C5535 C5531 1.393 . S
C5535 C5534 1.391 . S
H5536 C5544 0.950 . S
H5537 C5549 0.950 . S
H5538 C5546 0.950 . S
H5539 C5548 0.950 . S
H5540 C5550 0.950 . S
H5541 C5552 0.950 . S
H5542 C5554 0.851 1_565 S
H5543 C5555 0.950 . S
C5544 H5536 0.950 . S
C5544 C5545 1.386 . S
C5544 C5546 1.391 . S
C5545 C5544 1.386 . S
C5545 C5549 1.393 . S
C5546 H5538 0.950 . S
C5546 C5544 1.391 . S
C5546 C5547 1.400 . S
C5547 C5546 1.400 . S
C5547 C5548 1.398 . S
C5547 C5553 1.583 . S
C5548 H5539 0.950 . S
C5548 C5547 1.398 . S
C5548 C5549 1.391 . S
C5549 H5537 0.950 . S
C5549 C5545 1.393 . S
C5549 C5548 1.391 . S
C5550 H5540 0.950 . S
C5550 C5551 1.386 . S
C5550 C5552 1.391 . S
C5551 C5550 1.386 . S
C5551 C5555 1.393 . S
C5552 H5541 0.950 . S
C5552 C5550 1.391 . S
C5552 C5553 1.328 1_545 S
C5553 C5547 1.583 . S
C5553 C5552 1.328 1_565 S
C5553 C5554 1.369 1_565 S
C5554 H5542 0.851 1_545 S
C5554 C5553 1.369 1_545 S
C5554 C5555 1.524 . S
C5555 H5543 0.950 . S
C5555 C5551 1.393 . S
C5555 C5554 1.524 . S
H5556 C5564 0.950 . S
H5557 C5569 0.950 . S
H5558 C5566 0.950 . S
H5559 C5568 0.950 . S
H5560 C5570 0.950 . S
H5561 C5572 0.950 . S
H5562 C5574 0.950 . S
H5563 C5575 0.950 . S
C5564 H5556 0.950 . S
C5564 C5565 1.386 . S
C5564 C5566 1.391 . S
C5565 C5564 1.386 . S
C5565 C5569 1.393 . S
C5566 H5558 0.950 . S
C5566 C5564 1.391 . S
C5566 C5567 1.400 . S
C5567 C5566 1.400 . S
C5567 C5568 1.398 . S
C5567 C5573 1.491 . S
C5568 H5559 0.950 . S
C5568 C5567 1.398 . S
C5568 C5569 1.391 . S
C5569 H5557 0.950 . S
C5569 C5565 1.393 . S
C5569 C5568 1.391 . S
C5570 H5560 0.950 . S
C5570 C5571 1.386 . S
C5570 C5572 1.391 . S
C5571 C5570 1.386 . S
C5571 C5575 1.393 . S
C5572 H5561 0.950 . S
C5572 C5570 1.391 . S
C5572 C5573 1.400 . S
C5573 C5567 1.491 . S
C5573 C5572 1.400 . S
C5573 C5574 1.398 . S
C5574 H5562 0.950 . S
C5574 C5573 1.398 . S
C5574 C5575 1.391 . S
C5575 H5563 0.950 . S
C5575 C5571 1.393 . S
C5575 C5574 1.391 . S
H5576 C5584 0.950 . S
H5577 C5589 0.950 . S
H5578 C5586 0.950 . S
H5579 C5588 0.950 . S
H5580 C5590 0.950 . S
H5581 C5592 0.931 1_545 S
H5582 C5594 0.950 . S
H5583 C5595 0.950 . S
C5584 H5576 0.950 . S
C5584 C5585 1.386 . S
C5584 C5586 1.391 . S
C5585 C5584 1.386 . S
C5585 C5589 1.393 . S
C5586 H5578 0.950 . S
C5586 C5584 1.391 . S
C5586 C5587 1.400 . S
C5587 C5586 1.400 . S
C5587 C5588 1.398 . S
C5587 C5593 1.568 . S
C5588 H5579 0.950 . S
C5588 C5587 1.398 . S
C5588 C5589 1.391 . S
C5589 H5577 0.950 . S
C5589 C5585 1.393 . S
C5589 C5588 1.391 . S
C5590 H5580 0.950 . S
C5590 C5591 1.386 . S
C5590 C5592 1.391 . S
C5591 C5590 1.386 . S
C5591 C5595 1.393 . S
C5592 H5581 0.931 1_565 S
C5592 C5590 1.391 . S
C5592 C5593 1.369 1_565 S
C5593 C5587 1.568 . S
C5593 C5592 1.369 1_545 S
C5593 C5594 1.353 1_545 S
C5594 H5582 0.950 . S
C5594 C5593 1.353 1_565 S
C5594 C5595 1.391 . S
C5595 H5583 0.950 . S
C5595 C5591 1.393 . S
C5595 C5594 1.391 . S
H5596 C5604 0.950 . S
H5597 C5609 0.950 . S
H5598 C5606 0.950 . S
H5599 C5608 0.950 . S
H5600 C5610 0.950 . S
H5601 C5612 0.950 . S
H5602 C5614 0.950 . S
H5603 C5615 0.950 . S
C5604 H5596 0.950 . S
C5604 C5605 1.386 . S
C5604 C5606 1.391 . S
C5605 C5604 1.386 . S
C5605 C5609 1.393 . S
C5606 H5598 0.950 . S
C5606 C5604 1.391 . S
C5606 C5607 1.400 . S
C5607 C5606 1.400 . S
C5607 C5608 1.398 . S
C5607 C5613 1.491 . S
C5608 H5599 0.950 . S
C5608 C5607 1.398 . S
C5608 C5609 1.391 . S
C5609 H5597 0.950 . S
C5609 C5605 1.393 . S
C5609 C5608 1.391 . S
C5610 H5600 0.950 . S
C5610 C5611 1.386 . S
C5610 C5612 1.391 . S
C5611 C5610 1.386 . S
C5611 C5615 1.393 . S
C5612 H5601 0.950 . S
C5612 C5610 1.391 . S
C5612 C5613 1.400 . S
C5613 C5607 1.491 . S
C5613 C5612 1.400 . S
C5613 C5614 1.398 . S
C5614 H5602 0.950 . S
C5614 C5613 1.398 . S
C5614 C5615 1.391 . S
C5615 H5603 0.950 . S
C5615 C5611 1.393 . S
C5615 C5614 1.391 . S
H5616 C5624 0.950 . S
H5617 C5629 0.950 . S
H5618 C5626 0.950 . S
H5619 C5628 0.950 . S
H5620 C5630 0.950 . S
H5621 C5632 0.950 . S
H5622 C5634 0.876 1_545 S
H5623 C5635 0.950 . S
C5624 H5616 0.950 . S
C5624 C5625 1.386 . S
C5624 C5626 1.391 . S
C5625 C5624 1.386 . S
C5625 C5629 1.393 . S
C5626 H5618 0.950 . S
C5626 C5624 1.391 . S
C5626 C5627 1.400 . S
C5627 C5626 1.400 . S
C5627 C5628 1.398 . S
C5627 C5633 1.582 . S
C5628 H5619 0.950 . S
C5628 C5627 1.398 . S
C5628 C5629 1.391 . S
C5629 H5617 0.950 . S
C5629 C5625 1.393 . S
C5629 C5628 1.391 . S
C5630 H5620 0.950 . S
C5630 C5631 1.386 . S
C5630 C5632 1.391 . S
C5631 C5630 1.386 . S
C5631 C5635 1.393 . S
C5632 H5621 0.950 . S
C5632 C5630 1.391 . S
C5632 C5633 1.325 1_565 S
C5633 C5627 1.582 . S
C5633 C5632 1.325 1_545 S
C5633 C5634 1.378 1_545 S
C5634 H5622 0.876 1_565 S
C5634 C5633 1.378 1_565 S
C5634 C5635 1.484 . S
C5635 H5623 0.950 . S
C5635 C5631 1.393 . S
C5635 C5634 1.484 . S
H5636 C5644 0.950 . S
H5637 C5649 0.950 . S
H5638 C5646 0.950 . S
H5639 C5648 0.950 . S
H5640 C5650 0.950 . S
H5641 C5652 0.950 . S
H5642 C5654 0.950 . S
H5643 C5655 0.950 . S
C5644 H5636 0.950 . S
C5644 C5645 1.386 . S
C5644 C5646 1.391 . S
C5645 C5644 1.386 . S
C5645 C5649 1.393 . S
C5646 H5638 0.950 . S
C5646 C5644 1.391 . S
C5646 C5647 1.400 . S
C5647 C5646 1.400 . S
C5647 C5648 1.398 . S
C5647 C5653 1.491 . S
C5648 H5639 0.950 . S
C5648 C5647 1.398 . S
C5648 C5649 1.391 . S
C5649 H5637 0.950 . S
C5649 C5645 1.393 . S
C5649 C5648 1.391 . S
C5650 H5640 0.950 . S
C5650 C5651 1.386 . S
C5650 C5652 1.391 . S
C5651 C5650 1.386 . S
C5651 C5655 1.393 . S
C5652 H5641 0.950 . S
C5652 C5650 1.391 . S
C5652 C5653 1.400 . S
C5653 C5647 1.491 . S
C5653 C5652 1.400 . S
C5653 C5654 1.398 . S
C5654 H5642 0.950 . S
C5654 C5653 1.398 . S
C5654 C5655 1.391 . S
C5655 H5643 0.950 . S
C5655 C5651 1.393 . S
C5655 C5654 1.391 . S
H5656 C5664 0.950 . S
H5657 C5669 0.950 . S
H5658 C5666 0.950 . S
H5659 C5668 0.950 . S
H5660 C5670 0.950 . S
H5661 C5672 0.943 1_565 S
H5662 C5674 0.950 . S
H5663 C5675 0.950 . S
C5664 H5656 0.950 . S
C5664 C5665 1.386 . S
C5664 C5666 1.391 . S
C5665 C5664 1.386 . S
C5665 C5669 1.393 . S
C5666 H5658 0.950 . S
C5666 C5664 1.391 . S
C5666 C5667 1.400 . S
C5667 C5666 1.400 . S
C5667 C5668 1.398 . S
C5667 C5673 1.585 . S
C5668 H5659 0.950 . S
C5668 C5667 1.398 . S
C5668 C5669 1.391 . S
C5669 H5657 0.950 . S
C5669 C5665 1.393 . S
C5669 C5668 1.391 . S
C5670 H5660 0.950 . S
C5670 C5671 1.386 . S
C5670 C5672 1.391 . S
C5671 C5670 1.386 . S
C5671 C5675 1.393 . S
C5672 H5661 0.943 1_545 S
C5672 C5670 1.391 . S
C5672 C5673 1.361 1_545 S
C5673 C5667 1.585 . S
C5673 C5672 1.361 1_565 S
C5673 C5674 1.347 1_565 S
C5674 H5662 0.950 . S
C5674 C5673 1.347 1_545 S
C5674 C5675 1.391 . S
C5675 H5663 0.950 . S
C5675 C5671 1.393 . S
C5675 C5674 1.391 . S
H5676 C5684 0.950 . S
H5677 C5689 0.950 . S
H5678 C5686 0.950 . S
H5679 C5688 0.950 . S
H5680 C5690 0.950 . S
H5681 C5692 0.950 . S
H5682 C5694 0.950 . S
H5683 C5695 0.950 . S
C5684 H5676 0.950 . S
C5684 C5685 1.386 . S
C5684 C5686 1.391 . S
C5685 C5684 1.386 . S
C5685 C5689 1.393 . S
C5686 H5678 0.950 . S
C5686 C5684 1.391 . S
C5686 C5687 1.400 . S
C5687 C5686 1.400 . S
C5687 C5688 1.398 . S
C5687 C5693 1.491 . S
C5688 H5679 0.950 . S
C5688 C5687 1.398 . S
C5688 C5689 1.391 . S
C5689 H5677 0.950 . S
C5689 C5685 1.393 . S
C5689 C5688 1.391 . S
C5690 H5680 0.950 . S
C5690 C5691 1.386 . S
C5690 C5692 1.391 . S
C5691 C5690 1.386 . S
C5691 C5695 1.393 . S
C5692 H5681 0.950 . S
C5692 C5690 1.391 . S
C5692 C5693 1.400 . S
C5693 C5687 1.491 . S
C5693 C5692 1.400 . S
C5693 C5694 1.398 . S
C5694 H5682 0.950 . S
C5694 C5693 1.398 . S
C5694 C5695 1.391 . S
C5695 H5683 0.950 . S
C5695 C5691 1.393 . S
C5695 C5694 1.391 . S
H5696 C5704 0.950 . S
H5697 C5709 0.950 . S
H5698 C5706 0.950 . S
H5699 C5708 0.950 . S
H5700 C5710 0.950 . S
H5701 C5712 0.950 1_556 S
H5702 C5714 0.950 . S
H5703 C5715 0.950 . S
C5704 H5696 0.950 . S
C5704 C5705 1.386 . S
C5704 C5706 1.391 . S
C5705 C5704 1.386 . S
C5705 C5709 1.393 . S
C5706 H5698 0.950 . S
C5706 C5704 1.391 . S
C5706 C5707 1.400 . S
C5707 C5706 1.400 . S
C5707 C5708 1.398 . S
C5707 C5713 1.569 . S
C5708 H5699 0.950 . S
C5708 C5707 1.398 . S
C5708 C5709 1.391 . S
C5709 H5697 0.950 . S
C5709 C5705 1.393 . S
C5709 C5708 1.391 . S
C5710 H5700 0.950 . S
C5710 C5711 1.386 . S
C5710 C5712 1.391 . S
C5711 C5710 1.386 . S
C5711 C5715 1.393 . S
C5712 H5701 0.950 1_554 S
C5712 C5710 1.391 . S
C5712 C5713 1.375 1_554 S
C5713 C5707 1.569 . S
C5713 C5712 1.375 1_556 S
C5713 C5714 1.346 1_556 S
C5714 H5702 0.950 . S
C5714 C5713 1.346 1_554 S
C5714 C5715 1.391 . S
C5715 H5703 0.950 . S
C5715 C5711 1.393 . S
C5715 C5714 1.391 . S
H5716 C5724 0.950 . S
H5717 C5729 0.950 . S
H5718 C5726 0.950 . S
H5719 C5728 0.950 . S
H5720 C5730 0.950 . S
H5721 C5732 1.019 . S
H5722 C5734 0.950 . S
H5723 C5735 0.950 . S
C5724 H5716 0.950 . S
C5724 C5725 1.386 . S
C5724 C5726 1.391 . S
C5725 C5724 1.386 . S
C5725 C5729 1.393 . S
C5726 H5718 0.950 . S
C5726 C5724 1.391 . S
C5726 C5727 1.400 . S
C5727 C5726 1.400 . S
C5727 C5728 1.398 . S
C5727 C5733 1.585 . S
C5728 H5719 0.950 . S
C5728 C5727 1.398 . S
C5728 C5729 1.391 . S
C5729 H5717 0.950 . S
C5729 C5725 1.393 . S
C5729 C5728 1.391 . S
C5730 H5720 0.950 . S
C5730 C5731 1.386 . S
C5730 C5732 1.391 . S
C5731 C5730 1.386 . S
C5731 C5735 1.393 . S
C5732 H5721 1.019 . S
C5732 C5730 1.391 . S
C5732 C5733 1.352 1_556 S
C5733 C5727 1.585 . S
C5733 C5732 1.352 1_554 S
C5733 C5734 1.356 1_554 S
C5734 H5722 0.950 . S
C5734 C5733 1.356 1_556 S
C5734 C5735 1.391 . S
C5735 H5723 0.950 . S
C5735 C5731 1.393 . S
C5735 C5734 1.391 . S
H5736 C5744 0.950 . S
H5737 C5749 0.950 . S
H5738 C5746 0.950 . S
H5739 C5748 0.950 . S
H5740 C5750 0.950 . S
H5741 C5752 0.950 . S
H5742 C5754 0.950 . S
H5743 C5755 0.950 . S
C5744 H5736 0.950 . S
C5744 C5745 1.386 . S
C5744 C5746 1.391 . S
C5745 C5744 1.386 . S
C5745 C5749 1.393 . S
C5746 H5738 0.950 . S
C5746 C5744 1.391 . S
C5746 C5747 1.400 . S
C5747 C5746 1.400 . S
C5747 C5748 1.398 . S
C5747 C5753 1.491 . S
C5748 H5739 0.950 . S
C5748 C5747 1.398 . S
C5748 C5749 1.391 . S
C5749 H5737 0.950 . S
C5749 C5745 1.393 . S
C5749 C5748 1.391 . S
C5750 H5740 0.950 . S
C5750 C5751 1.386 . S
C5750 C5752 1.391 . S
C5751 C5750 1.386 . S
C5751 C5755 1.393 . S
C5752 H5741 0.950 . S
C5752 C5750 1.391 . S
C5752 C5753 1.400 . S
C5753 C5747 1.491 . S
C5753 C5752 1.400 . S
C5753 C5754 1.398 . S
C5754 H5742 0.950 . S
C5754 C5753 1.398 . S
C5754 C5755 1.391 . S
C5755 H5743 0.950 . S
C5755 C5751 1.393 . S
C5755 C5754 1.391 . S
H5756 C5764 0.950 . S
H5757 C5769 0.950 . S
H5758 C5766 0.950 . S
H5759 C5768 0.950 . S
H5760 C5770 0.950 . S
H5761 C5772 0.950 . S
H5762 C5774 0.950 . S
H5763 C5775 0.950 . S
C5764 H5756 0.950 . S
C5764 C5765 1.386 . S
C5764 C5766 1.391 . S
C5765 C5764 1.386 . S
C5765 C5769 1.393 . S
C5766 H5758 0.950 . S
C5766 C5764 1.391 . S
C5766 C5767 1.400 . S
C5767 C5766 1.400 . S
C5767 C5768 1.398 . S
C5767 C5773 1.491 . S
C5768 H5759 0.950 . S
C5768 C5767 1.398 . S
C5768 C5769 1.391 . S
C5769 H5757 0.950 . S
C5769 C5765 1.393 . S
C5769 C5768 1.391 . S
C5770 H5760 0.950 . S
C5770 C5771 1.386 . S
C5770 C5772 1.391 . S
C5771 C5770 1.386 . S
C5771 C5775 1.393 . S
C5772 H5761 0.950 . S
C5772 C5770 1.391 . S
C5772 C5773 1.400 . S
C5773 C5767 1.491 . S
C5773 C5772 1.400 . S
C5773 C5774 1.398 . S
C5774 H5762 0.950 . S
C5774 C5773 1.398 . S
C5774 C5775 1.391 . S
C5775 H5763 0.950 . S
C5775 C5771 1.393 . S
C5775 C5774 1.391 . S
H5776 C5784 0.950 . S
H5777 C5789 0.950 . S
H5778 C5786 0.950 . S
H5779 C5788 0.950 . S
H5780 C5790 0.950 . S
H5781 C5792 0.950 . S
H5782 C5794 0.950 . S
H5783 C5795 0.950 . S
C5784 H5776 0.950 . S
C5784 C5785 1.386 . S
C5784 C5786 1.391 . S
C5785 C5784 1.386 . S
C5785 C5789 1.393 . S
C5786 H5778 0.950 . S
C5786 C5784 1.391 . S
C5786 C5787 1.400 . S
C5787 C5786 1.400 . S
C5787 C5788 1.398 . S
C5787 C5793 1.491 . S
C5788 H5779 0.950 . S
C5788 C5787 1.398 . S
C5788 C5789 1.391 . S
C5789 H5777 0.950 . S
C5789 C5785 1.393 . S
C5789 C5788 1.391 . S
C5790 H5780 0.950 . S
C5790 C5791 1.386 . S
C5790 C5792 1.391 . S
C5791 C5790 1.386 . S
C5791 C5795 1.393 . S
C5792 H5781 0.950 . S
C5792 C5790 1.391 . S
C5792 C5793 1.400 . S
C5793 C5787 1.491 . S
C5793 C5792 1.400 . S
C5793 C5794 1.398 . S
C5794 H5782 0.950 . S
C5794 C5793 1.398 . S
C5794 C5795 1.391 . S
C5795 H5783 0.950 . S
C5795 C5791 1.393 . S
C5795 C5794 1.391 . S
H5796 C5804 0.950 . S
H5797 C5809 0.950 . S
H5798 C5806 0.950 . S
H5799 C5808 0.950 . S
H5800 C5810 0.950 . S
H5801 C5812 0.950 . S
H5802 C5814 0.950 . S
H5803 C5815 0.950 . S
C5804 H5796 0.950 . S
C5804 C5805 1.386 . S
C5804 C5806 1.391 . S
C5805 C5804 1.386 . S
C5805 C5809 1.393 . S
C5806 H5798 0.950 . S
C5806 C5804 1.391 . S
C5806 C5807 1.400 . S
C5807 C5806 1.400 . S
C5807 C5808 1.398 . S
C5807 C5813 1.491 . S
C5808 H5799 0.950 . S
C5808 C5807 1.398 . S
C5808 C5809 1.391 . S
C5809 H5797 0.950 . S
C5809 C5805 1.393 . S
C5809 C5808 1.391 . S
C5810 H5800 0.950 . S
C5810 C5811 1.386 . S
C5810 C5812 1.391 . S
C5811 C5810 1.386 . S
C5811 C5815 1.393 . S
C5812 H5801 0.950 . S
C5812 C5810 1.391 . S
C5812 C5813 1.400 . S
C5813 C5807 1.491 . S
C5813 C5812 1.400 . S
C5813 C5814 1.398 . S
C5814 H5802 0.950 . S
C5814 C5813 1.398 . S
C5814 C5815 1.391 . S
C5815 H5803 0.950 . S
C5815 C5811 1.393 . S
C5815 C5814 1.391 . S
H5816 C5824 0.950 . S
H5817 C5829 0.950 . S
H5818 C5826 0.950 . S
H5819 C5828 0.950 . S
H5820 C5830 0.950 . S
H5821 C5832 0.950 . S
H5822 C5834 0.950 . S
H5823 C5835 0.950 . S
C5824 H5816 0.950 . S
C5824 C5825 1.386 . S
C5824 C5826 1.391 . S
C5825 C5824 1.386 . S
C5825 C5829 1.393 . S
C5826 H5818 0.950 . S
C5826 C5824 1.391 . S
C5826 C5827 1.400 . S
C5827 C5826 1.400 . S
C5827 C5828 1.398 . S
C5827 C5833 1.491 . S
C5828 H5819 0.950 . S
C5828 C5827 1.398 . S
C5828 C5829 1.391 . S
C5829 H5817 0.950 . S
C5829 C5825 1.393 . S
C5829 C5828 1.391 . S
C5830 H5820 0.950 . S
C5830 C5831 1.386 . S
C5830 C5832 1.391 . S
C5831 C5830 1.386 . S
C5831 C5835 1.393 . S
C5832 H5821 0.950 . S
C5832 C5830 1.391 . S
C5832 C5833 1.400 . S
C5833 C5827 1.491 . S
C5833 C5832 1.400 . S
C5833 C5834 1.398 . S
C5834 H5822 0.950 . S
C5834 C5833 1.398 . S
C5834 C5835 1.391 . S
C5835 H5823 0.950 . S
C5835 C5831 1.393 . S
C5835 C5834 1.391 . S
H5836 C5844 0.950 . S
H5837 C5849 0.950 . S
H5838 C5846 0.950 . S
H5839 C5848 0.950 . S
H5840 C5850 0.950 . S
H5841 C5852 0.950 . S
H5842 C5854 0.950 . S
H5843 C5855 0.950 . S
C5844 H5836 0.950 . S
C5844 C5845 1.386 . S
C5844 C5846 1.391 . S
C5845 C5844 1.386 . S
C5845 C5849 1.393 . S
C5846 H5838 0.950 . S
C5846 C5844 1.391 . S
C5846 C5847 1.400 . S
C5847 C5846 1.400 . S
C5847 C5848 1.398 . S
C5847 C5853 1.491 . S
C5848 H5839 0.950 . S
C5848 C5847 1.398 . S
C5848 C5849 1.391 . S
C5849 H5837 0.950 . S
C5849 C5845 1.393 . S
C5849 C5848 1.391 . S
C5850 H5840 0.950 . S
C5850 C5851 1.386 . S
C5850 C5852 1.391 . S
C5851 C5850 1.386 . S
C5851 C5855 1.393 . S
C5852 H5841 0.950 . S
C5852 C5850 1.391 . S
C5852 C5853 1.400 . S
C5853 C5847 1.491 . S
C5853 C5852 1.400 . S
C5853 C5854 1.398 . S
C5854 H5842 0.950 . S
C5854 C5853 1.398 . S
C5854 C5855 1.391 . S
C5855 H5843 0.950 . S
C5855 C5851 1.393 . S
C5855 C5854 1.391 . S
H5856 C5864 0.950 . S
H5857 C5869 0.950 . S
H5858 C5866 0.950 . S
H5859 C5868 0.950 . S
H5860 C5870 0.950 . S
H5861 C5872 0.950 . S
H5862 C5874 0.950 . S
H5863 C5875 0.950 . S
C5864 H5856 0.950 . S
C5864 C5865 1.386 . S
C5864 C5866 1.391 . S
C5865 C5864 1.386 . S
C5865 C5869 1.393 . S
C5866 H5858 0.950 . S
C5866 C5864 1.391 . S
C5866 C5867 1.400 . S
C5867 C5866 1.400 . S
C5867 C5868 1.398 . S
C5867 C5873 1.491 . S
C5868 H5859 0.950 . S
C5868 C5867 1.398 . S
C5868 C5869 1.391 . S
C5869 H5857 0.950 . S
C5869 C5865 1.393 . S
C5869 C5868 1.391 . S
C5870 H5860 0.950 . S
C5870 C5871 1.386 . S
C5870 C5872 1.391 . S
C5871 C5870 1.386 . S
C5871 C5875 1.393 . S
C5872 H5861 0.950 . S
C5872 C5870 1.391 . S
C5872 C5873 1.400 . S
C5873 C5867 1.491 . S
C5873 C5872 1.400 . S
C5873 C5874 1.398 . S
C5874 H5862 0.950 . S
C5874 C5873 1.398 . S
C5874 C5875 1.391 . S
C5875 H5863 0.950 . S
C5875 C5871 1.393 . S
C5875 C5874 1.391 . S
H5876 C5884 0.950 . S
H5877 C5889 0.950 . S
H5878 C5886 0.950 . S
H5879 C5888 0.950 . S
H5880 C5890 0.950 . S
H5881 C5892 0.950 . S
H5882 C5894 0.950 . S
H5883 C5895 0.950 . S
C5884 H5876 0.950 . S
C5884 C5885 1.386 . S
C5884 C5886 1.391 . S
C5885 C5884 1.386 . S
C5885 C5889 1.393 . S
C5886 H5878 0.950 . S
C5886 C5884 1.391 . S
C5886 C5887 1.400 . S
C5887 C5886 1.400 . S
C5887 C5888 1.398 . S
C5887 C5893 1.491 . S
C5888 H5879 0.950 . S
C5888 C5887 1.398 . S
C5888 C5889 1.391 . S
C5889 H5877 0.950 . S
C5889 C5885 1.393 . S
C5889 C5888 1.391 . S
C5890 H5880 0.950 . S
C5890 C5891 1.386 . S
C5890 C5892 1.391 . S
C5891 C5890 1.386 . S
C5891 C5895 1.393 . S
C5892 H5881 0.950 . S
C5892 C5890 1.391 . S
C5892 C5893 1.400 . S
C5893 C5887 1.491 . S
C5893 C5892 1.400 . S
C5893 C5894 1.398 . S
C5894 H5882 0.950 . S
C5894 C5893 1.398 . S
C5894 C5895 1.391 . S
C5895 H5883 0.950 . S
C5895 C5891 1.393 . S
C5895 C5894 1.391 . S
H5896 C5904 0.950 . S
H5897 C5909 0.950 . S
H5898 C5906 0.950 . S
H5899 C5908 0.950 . S
H5900 C5910 0.950 . S
H5901 C5912 0.950 . S
H5902 C5914 0.909 1_655 S
H5903 C5915 0.950 . S
C5904 H5896 0.950 . S
C5904 C5905 1.386 . S
C5904 C5906 1.391 . S
C5905 C5904 1.386 . S
C5905 C5909 1.393 . S
C5906 H5898 0.950 . S
C5906 C5904 1.391 . S
C5906 C5907 1.400 . S
C5907 C5906 1.400 . S
C5907 C5908 1.398 . S
C5907 C5913 1.575 . S
C5908 H5899 0.950 . S
C5908 C5907 1.398 . S
C5908 C5909 1.391 . S
C5909 H5897 0.950 . S
C5909 C5905 1.393 . S
C5909 C5908 1.391 . S
C5910 H5900 0.950 . S
C5910 C5911 1.386 . S
C5910 C5912 1.391 . S
C5911 C5910 1.386 . S
C5911 C5915 1.393 . S
C5912 H5901 0.950 . S
C5912 C5910 1.391 . S
C5912 C5913 1.326 1_455 S
C5913 C5907 1.575 . S
C5913 C5912 1.326 1_655 S
C5913 C5914 1.387 1_655 S
C5914 H5902 0.909 1_455 S
C5914 C5913 1.387 1_455 S
C5914 C5915 1.438 . S
C5915 H5903 0.950 . S
C5915 C5911 1.393 . S
C5915 C5914 1.438 . S
H5916 C5924 0.950 . S
H5917 C5929 0.950 . S
H5918 C5926 0.950 . S
H5919 C5928 0.950 . S
H5920 C5930 0.950 . S
H5921 C5932 0.950 . S
H5922 C5934 0.950 . S
H5923 C5935 0.950 . S
C5924 H5916 0.950 . S
C5924 C5925 1.386 . S
C5924 C5926 1.391 . S
C5925 C5924 1.386 . S
C5925 C5929 1.393 . S
C5926 H5918 0.950 . S
C5926 C5924 1.391 . S
C5926 C5927 1.400 . S
C5927 C5926 1.400 . S
C5927 C5928 1.398 . S
C5927 C5933 1.491 . S
C5928 H5919 0.950 . S
C5928 C5927 1.398 . S
C5928 C5929 1.391 . S
C5929 H5917 0.950 . S
C5929 C5925 1.393 . S
C5929 C5928 1.391 . S
C5930 H5920 0.950 . S
C5930 C5931 1.386 . S
C5930 C5932 1.391 . S
C5931 C5930 1.386 . S
C5931 C5935 1.393 . S
C5932 H5921 0.950 . S
C5932 C5930 1.391 . S
C5932 C5933 1.400 . S
C5933 C5927 1.491 . S
C5933 C5932 1.400 . S
C5933 C5934 1.398 . S
C5934 H5922 0.950 . S
C5934 C5933 1.398 . S
C5934 C5935 1.391 . S
C5935 H5923 0.950 . S
C5935 C5931 1.393 . S
C5935 C5934 1.391 . S
H5936 C5944 0.950 . S
H5937 C5949 0.950 . S
H5938 C5946 0.950 . S
H5939 C5948 0.950 . S
H5940 C5950 0.950 . S
H5941 C5952 0.950 . S
H5942 C5954 0.950 . S
H5943 C5955 0.950 . S
C5944 H5936 0.950 . S
C5944 C5945 1.386 . S
C5944 C5946 1.391 . S
C5945 C5944 1.386 . S
C5945 C5949 1.393 . S
C5946 H5938 0.950 . S
C5946 C5944 1.391 . S
C5946 C5947 1.400 . S
C5947 C5946 1.400 . S
C5947 C5948 1.398 . S
C5947 C5953 1.491 . S
C5948 H5939 0.950 . S
C5948 C5947 1.398 . S
C5948 C5949 1.391 . S
C5949 H5937 0.950 . S
C5949 C5945 1.393 . S
C5949 C5948 1.391 . S
C5950 H5940 0.950 . S
C5950 C5951 1.386 . S
C5950 C5952 1.391 . S
C5951 C5950 1.386 . S
C5951 C5955 1.393 . S
C5952 H5941 0.950 . S
C5952 C5950 1.391 . S
C5952 C5953 1.400 . S
C5953 C5947 1.491 . S
C5953 C5952 1.400 . S
C5953 C5954 1.398 . S
C5954 H5942 0.950 . S
C5954 C5953 1.398 . S
C5954 C5955 1.391 . S
C5955 H5943 0.950 . S
C5955 C5951 1.393 . S
C5955 C5954 1.391 . S
H5956 C5964 0.950 . S
H5957 C5969 0.950 . S
H5958 C5966 0.950 . S
H5959 C5968 0.950 . S
H5960 C5970 0.950 . S
H5961 C5972 0.950 . S
H5962 C5974 0.950 . S
H5963 C5975 0.950 . S
C5964 H5956 0.950 . S
C5964 C5965 1.386 . S
C5964 C5966 1.391 . S
C5965 C5964 1.386 . S
C5965 C5969 1.393 . S
C5966 H5958 0.950 . S
C5966 C5964 1.391 . S
C5966 C5967 1.400 . S
C5967 C5966 1.400 . S
C5967 C5968 1.398 . S
C5967 C5973 1.491 . S
C5968 H5959 0.950 . S
C5968 C5967 1.398 . S
C5968 C5969 1.391 . S
C5969 H5957 0.950 . S
C5969 C5965 1.393 . S
C5969 C5968 1.391 . S
C5970 H5960 0.950 . S
C5970 C5971 1.386 . S
C5970 C5972 1.391 . S
C5971 C5970 1.386 . S
C5971 C5975 1.393 . S
C5972 H5961 0.950 . S
C5972 C5970 1.391 . S
C5972 C5973 1.400 . S
C5973 C5967 1.491 . S
C5973 C5972 1.400 . S
C5973 C5974 1.398 . S
C5974 H5962 0.950 . S
C5974 C5973 1.398 . S
C5974 C5975 1.391 . S
C5975 H5963 0.950 . S
C5975 C5971 1.393 . S
C5975 C5974 1.391 . S
H5976 C5984 0.950 . S
H5977 C5989 0.950 . S
H5978 C5986 0.950 . S
H5979 C5988 0.950 . S
H5980 C5990 0.950 . S
H5981 C5992 0.905 1_655 S
H5982 C5994 0.950 . S
H5983 C5995 0.950 . S
C5984 H5976 0.950 . S
C5984 C5985 1.386 . S
C5984 C5986 1.391 . S
C5985 C5984 1.386 . S
C5985 C5989 1.393 . S
C5986 H5978 0.950 . S
C5986 C5984 1.391 . S
C5986 C5987 1.400 . S
C5987 C5986 1.400 . S
C5987 C5988 1.398 . S
C5987 C5993 1.579 . S
C5988 H5979 0.950 . S
C5988 C5987 1.398 . S
C5988 C5989 1.391 . S
C5989 H5977 0.950 . S
C5989 C5985 1.393 . S
C5989 C5988 1.391 . S
C5990 H5980 0.950 . S
C5990 C5991 1.386 . S
C5990 C5992 1.444 . S
C5991 C5990 1.386 . S
C5991 C5995 1.393 . S
C5992 H5981 0.905 1_455 S
C5992 C5990 1.444 . S
C5992 C5993 1.387 1_455 S
C5993 C5987 1.579 . S
C5993 C5992 1.387 1_655 S
C5993 C5994 1.322 1_655 S
C5994 H5982 0.950 . S
C5994 C5993 1.322 1_455 S
C5994 C5995 1.391 . S
C5995 H5983 0.950 . S
C5995 C5991 1.393 . S
C5995 C5994 1.391 . S
H5996 C6004 0.950 . S
H5997 C6009 0.950 . S
H5998 C6006 0.950 . S
H5999 C6008 0.950 . S
H6000 C6010 0.950 . S
H6001 C6012 0.950 . S
H6002 C6014 0.950 . S
H6003 C6015 0.950 . S
C6004 H5996 0.950 . S
C6004 C6005 1.386 . S
C6004 C6006 1.391 . S
C6005 C6004 1.386 . S
C6005 C6009 1.393 . S
C6006 H5998 0.950 . S
C6006 C6004 1.391 . S
C6006 C6007 1.400 . S
C6007 C6006 1.400 . S
C6007 C6008 1.398 . S
C6007 C6013 1.491 . S
C6008 H5999 0.950 . S
C6008 C6007 1.398 . S
C6008 C6009 1.391 . S
C6009 H5997 0.950 . S
C6009 C6005 1.393 . S
C6009 C6008 1.391 . S
C6010 H6000 0.950 . S
C6010 C6011 1.386 . S
C6010 C6012 1.391 . S
C6011 C6010 1.386 . S
C6011 C6015 1.393 . S
C6012 H6001 0.950 . S
C6012 C6010 1.391 . S
C6012 C6013 1.400 . S
C6013 C6007 1.491 . S
C6013 C6012 1.400 . S
C6013 C6014 1.398 . S
C6014 H6002 0.950 . S
C6014 C6013 1.398 . S
C6014 C6015 1.391 . S
C6015 H6003 0.950 . S
C6015 C6011 1.393 . S
C6015 C6014 1.391 . S
H6016 C6024 0.950 . S
H6017 C6029 0.950 . S
H6018 C6026 0.950 . S
H6019 C6028 0.950 . S
H6020 C6030 0.950 . S
H6021 C6032 0.950 . S
H6022 C6034 0.950 . S
H6023 C6035 0.950 . S
C6024 H6016 0.950 . S
C6024 C6025 1.386 . S
C6024 C6026 1.391 . S
C6025 C6024 1.386 . S
C6025 C6029 1.393 . S
C6026 H6018 0.950 . S
C6026 C6024 1.391 . S
C6026 C6027 1.400 . S
C6027 C6026 1.400 . S
C6027 C6028 1.398 . S
C6027 C6033 1.491 . S
C6028 H6019 0.950 . S
C6028 C6027 1.398 . S
C6028 C6029 1.391 . S
C6029 H6017 0.950 . S
C6029 C6025 1.393 . S
C6029 C6028 1.391 . S
C6030 H6020 0.950 . S
C6030 C6031 1.386 . S
C6030 C6032 1.391 . S
C6031 C6030 1.386 . S
C6031 C6035 1.393 . S
C6032 H6021 0.950 . S
C6032 C6030 1.391 . S
C6032 C6033 1.400 . S
C6033 C6027 1.491 . S
C6033 C6032 1.400 . S
C6033 C6034 1.398 . S
C6034 H6022 0.950 . S
C6034 C6033 1.398 . S
C6034 C6035 1.391 . S
C6035 H6023 0.950 . S
C6035 C6031 1.393 . S
C6035 C6034 1.391 . S
H6036 C6044 0.950 . S
H6037 C6049 0.950 . S
H6038 C6046 0.950 . S
H6039 C6048 0.950 . S
H6040 C6050 0.950 . S
H6041 C6052 0.950 . S
H6042 C6054 0.950 . S
H6043 C6055 0.950 . S
C6044 H6036 0.950 . S
C6044 C6045 1.386 . S
C6044 C6046 1.391 . S
C6045 C6044 1.386 . S
C6045 C6049 1.393 . S
C6046 H6038 0.950 . S
C6046 C6044 1.391 . S
C6046 C6047 1.400 . S
C6047 C6046 1.400 . S
C6047 C6048 1.398 . S
C6047 C6053 1.491 . S
C6048 H6039 0.950 . S
C6048 C6047 1.398 . S
C6048 C6049 1.391 . S
C6049 H6037 0.950 . S
C6049 C6045 1.393 . S
C6049 C6048 1.391 . S
C6050 H6040 0.950 . S
C6050 C6051 1.386 . S
C6050 C6052 1.391 . S
C6051 C6050 1.386 . S
C6051 C6055 1.393 . S
C6052 H6041 0.950 . S
C6052 C6050 1.391 . S
C6052 C6053 1.400 . S
C6053 C6047 1.491 . S
C6053 C6052 1.400 . S
C6053 C6054 1.398 . S
C6054 H6042 0.950 . S
C6054 C6053 1.398 . S
C6054 C6055 1.391 . S
C6055 H6043 0.950 . S
C6055 C6051 1.393 . S
C6055 C6054 1.391 . S
H6056 C6064 0.950 . S
H6057 C6069 0.950 . S
H6058 C6066 0.950 . S
H6059 C6068 0.950 . S
H6060 C6070 0.950 . S
H6061 C6072 0.950 . S
H6062 C6074 0.950 . S
H6063 C6075 0.950 . S
C6064 H6056 0.950 . S
C6064 C6065 1.386 . S
C6064 C6066 1.391 . S
C6065 C6064 1.386 . S
C6065 C6069 1.393 . S
C6066 H6058 0.950 . S
C6066 C6064 1.391 . S
C6066 C6067 1.400 . S
C6067 C6066 1.400 . S
C6067 C6068 1.398 . S
C6067 C6073 1.491 . S
C6068 H6059 0.950 . S
C6068 C6067 1.398 . S
C6068 C6069 1.391 . S
C6069 H6057 0.950 . S
C6069 C6065 1.393 . S
C6069 C6068 1.391 . S
C6070 H6060 0.950 . S
C6070 C6071 1.386 . S
C6070 C6072 1.391 . S
C6071 C6070 1.386 . S
C6071 C6075 1.393 . S
C6072 H6061 0.950 . S
C6072 C6070 1.391 . S
C6072 C6073 1.400 . S
C6073 C6067 1.491 . S
C6073 C6072 1.400 . S
C6073 C6074 1.398 . S
C6074 H6062 0.950 . S
C6074 C6073 1.398 . S
C6074 C6075 1.391 . S
C6075 H6063 0.950 . S
C6075 C6071 1.393 . S
C6075 C6074 1.391 . S
H6076 C6084 0.950 . S
H6077 C6089 0.950 . S
H6078 C6086 0.950 . S
H6079 C6088 0.950 . S
H6080 C6090 0.950 . S
H6081 C6092 0.950 . S
H6082 C6094 0.950 . S
H6083 C6095 0.950 . S
C6084 H6076 0.950 . S
C6084 C6085 1.386 . S
C6084 C6086 1.391 . S
C6085 C6084 1.386 . S
C6085 C6089 1.393 . S
C6086 H6078 0.950 . S
C6086 C6084 1.391 . S
C6086 C6087 1.400 . S
C6087 C6086 1.400 . S
C6087 C6088 1.398 . S
C6087 C6093 1.491 . S
C6088 H6079 0.950 . S
C6088 C6087 1.398 . S
C6088 C6089 1.391 . S
C6089 H6077 0.950 . S
C6089 C6085 1.393 . S
C6089 C6088 1.391 . S
C6090 H6080 0.950 . S
C6090 C6091 1.386 . S
C6090 C6092 1.391 . S
C6091 C6090 1.386 . S
C6091 C6095 1.393 . S
C6092 H6081 0.950 . S
C6092 C6090 1.391 . S
C6092 C6093 1.400 . S
C6093 C6087 1.491 . S
C6093 C6092 1.400 . S
C6093 C6094 1.398 . S
C6094 H6082 0.950 . S
C6094 C6093 1.398 . S
C6094 C6095 1.391 . S
C6095 H6083 0.950 . S
C6095 C6091 1.393 . S
C6095 C6094 1.391 . S
H6096 C6104 0.950 . S
H6097 C6109 0.950 . S
H6098 C6106 0.950 . S
H6099 C6108 0.950 . S
H6100 C6110 0.950 . S
H6101 C6112 0.950 . S
H6102 C6114 0.950 . S
H6103 C6115 0.950 . S
C6104 H6096 0.950 . S
C6104 C6105 1.386 . S
C6104 C6106 1.391 . S
C6105 C6104 1.386 . S
C6105 C6109 1.393 . S
C6106 H6098 0.950 . S
C6106 C6104 1.391 . S
C6106 C6107 1.400 . S
C6107 C6106 1.400 . S
C6107 C6108 1.398 . S
C6107 C6113 1.491 . S
C6108 H6099 0.950 . S
C6108 C6107 1.398 . S
C6108 C6109 1.391 . S
C6109 H6097 0.950 . S
C6109 C6105 1.393 . S
C6109 C6108 1.391 . S
C6110 H6100 0.950 . S
C6110 C6111 1.386 . S
C6110 C6112 1.391 . S
C6111 C6110 1.386 . S
C6111 C6115 1.393 . S
C6112 H6101 0.950 . S
C6112 C6110 1.391 . S
C6112 C6113 1.400 . S
C6113 C6107 1.491 . S
C6113 C6112 1.400 . S
C6113 C6114 1.398 . S
C6114 H6102 0.950 . S
C6114 C6113 1.398 . S
C6114 C6115 1.391 . S
C6115 H6103 0.950 . S
C6115 C6111 1.393 . S
C6115 C6114 1.391 . S
H6116 C6124 0.950 . S
H6117 C6129 0.950 . S
H6118 C6126 0.950 . S
H6119 C6128 0.950 . S
H6120 C6130 0.950 . S
H6121 C6132 0.950 . S
H6122 C6134 0.950 . S
H6123 C6135 0.950 . S
C6124 H6116 0.950 . S
C6124 C6125 1.386 . S
C6124 C6126 1.391 . S
C6125 C6124 1.386 . S
C6125 C6129 1.393 . S
C6126 H6118 0.950 . S
C6126 C6124 1.391 . S
C6126 C6127 1.400 . S
C6127 C6126 1.400 . S
C6127 C6128 1.398 . S
C6127 C6133 1.491 . S
C6128 H6119 0.950 . S
C6128 C6127 1.398 . S
C6128 C6129 1.391 . S
C6129 H6117 0.950 . S
C6129 C6125 1.393 . S
C6129 C6128 1.391 . S
C6130 H6120 0.950 . S
C6130 C6131 1.386 . S
C6130 C6132 1.391 . S
C6131 C6130 1.386 . S
C6131 C6135 1.393 . S
C6132 H6121 0.950 . S
C6132 C6130 1.391 . S
C6132 C6133 1.400 . S
C6133 C6127 1.491 . S
C6133 C6132 1.400 . S
C6133 C6134 1.398 . S
C6134 H6122 0.950 . S
C6134 C6133 1.398 . S
C6134 C6135 1.391 . S
C6135 H6123 0.950 . S
C6135 C6131 1.393 . S
C6135 C6134 1.391 . S
H6136 C6144 0.950 . S
H6137 C6149 0.950 . S
H6138 C6146 0.950 . S
H6139 C6148 0.950 . S
H6140 C6150 0.950 . S
H6141 C6152 0.950 . S
H6142 C6154 0.950 . S
H6143 C6155 0.950 . S
C6144 H6136 0.950 . S
C6144 C6145 1.386 . S
C6144 C6146 1.391 . S
C6145 C6144 1.386 . S
C6145 C6149 1.393 . S
C6146 H6138 0.950 . S
C6146 C6144 1.391 . S
C6146 C6147 1.400 . S
C6147 C6146 1.400 . S
C6147 C6148 1.398 . S
C6147 C6153 1.491 . S
C6148 H6139 0.950 . S
C6148 C6147 1.398 . S
C6148 C6149 1.391 . S
C6149 H6137 0.950 . S
C6149 C6145 1.393 . S
C6149 C6148 1.391 . S
C6150 H6140 0.950 . S
C6150 C6151 1.386 . S
C6150 C6152 1.391 . S
C6151 C6150 1.386 . S
C6151 C6155 1.393 . S
C6152 H6141 0.950 . S
C6152 C6150 1.391 . S
C6152 C6153 1.400 . S
C6153 C6147 1.491 . S
C6153 C6152 1.400 . S
C6153 C6154 1.398 . S
C6154 H6142 0.950 . S
C6154 C6153 1.398 . S
C6154 C6155 1.391 . S
C6155 H6143 0.950 . S
C6155 C6151 1.393 . S
C6155 C6154 1.391 . S
H6156 C6164 0.950 . S
H6157 C6169 0.950 . S
H6158 C6166 0.950 . S
H6159 C6168 0.950 . S
H6160 C6170 0.950 . S
H6161 C6172 0.950 . S
H6162 C6174 0.950 . S
H6163 C6175 0.950 . S
C6164 H6156 0.950 . S
C6164 C6165 1.386 . S
C6164 C6166 1.391 . S
C6165 C6164 1.386 . S
C6165 C6169 1.393 . S
C6166 H6158 0.950 . S
C6166 C6164 1.391 . S
C6166 C6167 1.400 . S
C6167 C6166 1.400 . S
C6167 C6168 1.398 . S
C6167 C6173 1.491 . S
C6168 H6159 0.950 . S
C6168 C6167 1.398 . S
C6168 C6169 1.391 . S
C6169 H6157 0.950 . S
C6169 C6165 1.393 . S
C6169 C6168 1.391 . S
C6170 H6160 0.950 . S
C6170 C6171 1.386 . S
C6170 C6172 1.391 . S
C6171 C6170 1.386 . S
C6171 C6175 1.393 . S
C6172 H6161 0.950 . S
C6172 C6170 1.391 . S
C6172 C6173 1.400 . S
C6173 C6167 1.491 . S
C6173 C6172 1.400 . S
C6173 C6174 1.398 . S
C6174 H6162 0.950 . S
C6174 C6173 1.398 . S
C6174 C6175 1.391 . S
C6175 H6163 0.950 . S
C6175 C6171 1.393 . S
C6175 C6174 1.391 . S
H6176 C6184 0.950 . S
H6177 C6189 0.950 . S
H6178 C6186 0.950 . S
H6179 C6188 0.950 . S
H6180 C6190 0.950 . S
H6181 C6192 0.950 . S
H6182 C6194 0.950 . S
H6183 C6195 0.950 . S
C6184 H6176 0.950 . S
C6184 C6185 1.386 . S
C6184 C6186 1.391 . S
C6185 C6184 1.386 . S
C6185 C6189 1.393 . S
C6186 H6178 0.950 . S
C6186 C6184 1.391 . S
C6186 C6187 1.400 . S
C6187 C6186 1.400 . S
C6187 C6188 1.398 . S
C6187 C6193 1.491 . S
C6188 H6179 0.950 . S
C6188 C6187 1.398 . S
C6188 C6189 1.391 . S
C6189 H6177 0.950 . S
C6189 C6185 1.393 . S
C6189 C6188 1.391 . S
C6190 H6180 0.950 . S
C6190 C6191 1.386 . S
C6190 C6192 1.391 . S
C6191 C6190 1.386 . S
C6191 C6195 1.393 . S
C6192 H6181 0.950 . S
C6192 C6190 1.391 . S
C6192 C6193 1.400 . S
C6193 C6187 1.491 . S
C6193 C6192 1.400 . S
C6193 C6194 1.398 . S
C6194 H6182 0.950 . S
C6194 C6193 1.398 . S
C6194 C6195 1.391 . S
C6195 H6183 0.950 . S
C6195 C6191 1.393 . S
C6195 C6194 1.391 . S
H6196 C6204 0.950 . S
H6197 C6209 0.950 . S
H6198 C6206 0.950 . S
H6199 C6208 0.950 . S
H6200 C6210 0.950 . S
H6201 C6212 0.950 . S
H6202 C6214 0.950 . S
H6203 C6215 0.950 . S
C6204 H6196 0.950 . S
C6204 C6205 1.386 . S
C6204 C6206 1.391 . S
C6205 C6204 1.386 . S
C6205 C6209 1.393 . S
C6206 H6198 0.950 . S
C6206 C6204 1.391 . S
C6206 C6207 1.400 . S
C6207 C6206 1.400 . S
C6207 C6208 1.398 . S
C6207 C6213 1.491 . S
C6208 H6199 0.950 . S
C6208 C6207 1.398 . S
C6208 C6209 1.391 . S
C6209 H6197 0.950 . S
C6209 C6205 1.393 . S
C6209 C6208 1.391 . S
C6210 H6200 0.950 . S
C6210 C6211 1.386 . S
C6210 C6212 1.391 . S
C6211 C6210 1.386 . S
C6211 C6215 1.393 . S
C6212 H6201 0.950 . S
C6212 C6210 1.391 . S
C6212 C6213 1.400 . S
C6213 C6207 1.491 . S
C6213 C6212 1.400 . S
C6213 C6214 1.398 . S
C6214 H6202 0.950 . S
C6214 C6213 1.398 . S
C6214 C6215 1.391 . S
C6215 H6203 0.950 . S
C6215 C6211 1.393 . S
C6215 C6214 1.391 . S
H6216 C6224 0.950 . S
H6217 C6229 0.950 . S
H6218 C6226 0.950 . S
H6219 C6228 0.950 . S
H6220 C6230 0.950 . S
H6221 C6232 0.950 . S
H6222 C6234 0.950 . S
H6223 C6235 0.950 . S
C6224 H6216 0.950 . S
C6224 C6225 1.386 . S
C6224 C6226 1.391 . S
C6225 C6224 1.386 . S
C6225 C6229 1.393 . S
C6226 H6218 0.950 . S
C6226 C6224 1.391 . S
C6226 C6227 1.400 . S
C6227 C6226 1.400 . S
C6227 C6228 1.398 . S
C6227 C6233 1.491 . S
C6228 H6219 0.950 . S
C6228 C6227 1.398 . S
C6228 C6229 1.391 . S
C6229 H6217 0.950 . S
C6229 C6225 1.393 . S
C6229 C6228 1.391 . S
C6230 H6220 0.950 . S
C6230 C6231 1.386 . S
C6230 C6232 1.391 . S
C6231 C6230 1.386 . S
C6231 C6235 1.393 . S
C6232 H6221 0.950 . S
C6232 C6230 1.391 . S
C6232 C6233 1.400 . S
C6233 C6227 1.491 . S
C6233 C6232 1.400 . S
C6233 C6234 1.398 . S
C6234 H6222 0.950 . S
C6234 C6233 1.398 . S
C6234 C6235 1.391 . S
C6235 H6223 0.950 . S
C6235 C6231 1.393 . S
C6235 C6234 1.391 . S
H6236 C6244 0.950 . S
H6237 C6249 0.950 . S
H6238 C6246 0.950 . S
H6239 C6248 0.950 . S
H6240 C6250 0.950 . S
H6241 C6252 0.950 . S
H6242 C6254 0.925 1_556 S
H6243 C6255 0.950 . S
C6244 H6236 0.950 . S
C6244 C6245 1.386 . S
C6244 C6246 1.391 . S
C6245 C6244 1.386 . S
C6245 C6249 1.393 . S
C6246 H6238 0.950 . S
C6246 C6244 1.391 . S
C6246 C6247 1.400 . S
C6247 C6246 1.400 . S
C6247 C6248 1.398 . S
C6247 C6253 1.576 . S
C6248 H6239 0.950 . S
C6248 C6247 1.398 . S
C6248 C6249 1.391 . S
C6249 H6237 0.950 . S
C6249 C6245 1.393 . S
C6249 C6248 1.391 . S
C6250 H6240 0.950 . S
C6250 C6251 1.386 . S
C6250 C6252 1.391 . S
C6251 C6250 1.386 . S
C6251 C6255 1.393 . S
C6252 H6241 0.950 . S
C6252 C6250 1.391 . S
C6252 C6253 1.324 1_554 S
C6253 C6247 1.576 . S
C6253 C6252 1.324 1_556 S
C6253 C6254 1.389 1_556 S
C6254 H6242 0.925 1_554 S
C6254 C6253 1.389 1_554 S
C6254 C6255 1.419 . S
C6255 H6243 0.950 . S
C6255 C6251 1.393 . S
C6255 C6254 1.419 . S
H6256 C6264 0.950 . S
H6257 C6269 0.950 . S
H6258 C6266 0.950 . S
H6259 C6268 0.950 . S
H6260 C6270 0.950 . S
H6261 C6272 0.950 . S
H6262 C6274 0.950 . S
H6263 C6275 0.950 . S
C6264 H6256 0.950 . S
C6264 C6265 1.386 . S
C6264 C6266 1.391 . S
C6265 C6264 1.386 . S
C6265 C6269 1.393 . S
C6266 H6258 0.950 . S
C6266 C6264 1.391 . S
C6266 C6267 1.400 . S
C6267 C6266 1.400 . S
C6267 C6268 1.398 . S
C6267 C6273 1.491 . S
C6268 H6259 0.950 . S
C6268 C6267 1.398 . S
C6268 C6269 1.391 . S
C6269 H6257 0.950 . S
C6269 C6265 1.393 . S
C6269 C6268 1.391 . S
C6270 H6260 0.950 . S
C6270 C6271 1.386 . S
C6270 C6272 1.391 . S
C6271 C6270 1.386 . S
C6271 C6275 1.393 . S
C6272 H6261 0.950 . S
C6272 C6270 1.391 . S
C6272 C6273 1.400 . S
C6273 C6267 1.491 . S
C6273 C6272 1.400 . S
C6273 C6274 1.398 . S
C6274 H6262 0.950 . S
C6274 C6273 1.398 . S
C6274 C6275 1.391 . S
C6275 H6263 0.950 . S
C6275 C6271 1.393 . S
C6275 C6274 1.391 . S
H6276 C6284 0.950 . S
H6277 C6289 0.950 . S
H6278 C6286 0.950 . S
H6279 C6288 0.950 . S
H6280 C6290 0.950 . S
H6281 C6292 0.950 . S
H6282 C6294 0.933 1_554 S
H6283 C6295 0.950 . S
C6284 H6276 0.950 . S
C6284 C6285 1.386 . S
C6284 C6286 1.391 . S
C6285 C6284 1.386 . S
C6285 C6289 1.393 . S
C6286 H6278 0.950 . S
C6286 C6284 1.391 . S
C6286 C6287 1.400 . S
C6287 C6286 1.400 . S
C6287 C6288 1.398 . S
C6287 C6293 1.577 . S
C6288 H6279 0.950 . S
C6288 C6287 1.398 . S
C6288 C6289 1.391 . S
C6289 H6277 0.950 . S
C6289 C6285 1.393 . S
C6289 C6288 1.391 . S
C6290 H6280 0.950 . S
C6290 C6291 1.386 . S
C6290 C6292 1.391 . S
C6291 C6290 1.386 . S
C6291 C6295 1.393 . S
C6292 H6281 0.950 . S
C6292 C6290 1.391 . S
C6292 C6293 1.322 1_556 S
C6293 C6287 1.577 . S
C6293 C6292 1.322 1_554 S
C6293 C6294 1.390 1_554 S
C6294 H6282 0.933 1_556 S
C6294 C6293 1.390 1_556 S
C6294 C6295 1.409 . S
C6295 H6283 0.950 . S
C6295 C6291 1.393 . S
C6295 C6294 1.409 . S
H6296 C6304 0.950 . S
H6297 C6309 0.950 . S
H6298 C6306 0.950 . S
H6299 C6308 0.950 . S
H6300 C6310 0.950 . S
H6301 C6312 0.950 . S
H6302 C6314 0.950 . S
H6303 C6315 0.950 . S
C6304 H6296 0.950 . S
C6304 C6305 1.386 . S
C6304 C6306 1.391 . S
C6305 C6304 1.386 . S
C6305 C6309 1.393 . S
C6306 H6298 0.950 . S
C6306 C6304 1.391 . S
C6306 C6307 1.400 . S
C6307 C6306 1.400 . S
C6307 C6308 1.398 . S
C6307 C6313 1.491 . S
C6308 H6299 0.950 . S
C6308 C6307 1.398 . S
C6308 C6309 1.391 . S
C6309 H6297 0.950 . S
C6309 C6305 1.393 . S
C6309 C6308 1.391 . S
C6310 H6300 0.950 . S
C6310 C6311 1.386 . S
C6310 C6312 1.391 . S
C6311 C6310 1.386 . S
C6311 C6315 1.393 . S
C6312 H6301 0.950 . S
C6312 C6310 1.391 . S
C6312 C6313 1.400 . S
C6313 C6307 1.491 . S
C6313 C6312 1.400 . S
C6313 C6314 1.398 . S
C6314 H6302 0.950 . S
C6314 C6313 1.398 . S
C6314 C6315 1.391 . S
C6315 H6303 0.950 . S
C6315 C6311 1.393 . S
C6315 C6314 1.391 . S
H6316 C6324 0.950 . S
H6317 C6329 0.950 . S
H6318 C6326 0.950 . S
H6319 C6328 0.950 . S
H6320 C6330 0.950 . S
H6321 C6332 0.950 . S
H6322 C6334 0.950 . S
H6323 C6335 0.950 . S
C6324 H6316 0.950 . S
C6324 C6325 1.386 . S
C6324 C6326 1.391 . S
C6325 C6324 1.386 . S
C6325 C6329 1.393 . S
C6326 H6318 0.950 . S
C6326 C6324 1.391 . S
C6326 C6327 1.400 . S
C6327 C6326 1.400 . S
C6327 C6328 1.398 . S
C6327 C6333 1.491 . S
C6328 H6319 0.950 . S
C6328 C6327 1.398 . S
C6328 C6329 1.391 . S
C6329 H6317 0.950 . S
C6329 C6325 1.393 . S
C6329 C6328 1.391 . S
C6330 H6320 0.950 . S
C6330 C6331 1.386 . S
C6330 C6332 1.391 . S
C6331 C6330 1.386 . S
C6331 C6335 1.393 . S
C6332 H6321 0.950 . S
C6332 C6330 1.391 . S
C6332 C6333 1.400 . S
C6333 C6327 1.491 . S
C6333 C6332 1.400 . S
C6333 C6334 1.398 . S
C6334 H6322 0.950 . S
C6334 C6333 1.398 . S
C6334 C6335 1.391 . S
C6335 H6323 0.950 . S
C6335 C6331 1.393 . S
C6335 C6334 1.391 . S
H6336 C6344 0.950 . S
H6337 C6349 0.950 . S
H6338 C6346 0.950 . S
H6339 C6348 0.950 . S
H6340 C6350 0.950 . S
H6341 C6352 0.950 . S
H6342 C6354 0.950 . S
H6343 C6355 0.950 . S
C6344 H6336 0.950 . S
C6344 C6345 1.386 . S
C6344 C6346 1.391 . S
C6345 C6344 1.386 . S
C6345 C6349 1.393 . S
C6346 H6338 0.950 . S
C6346 C6344 1.391 . S
C6346 C6347 1.400 . S
C6347 C6346 1.400 . S
C6347 C6348 1.398 . S
C6347 C6353 1.491 . S
C6348 H6339 0.950 . S
C6348 C6347 1.398 . S
C6348 C6349 1.391 . S
C6349 H6337 0.950 . S
C6349 C6345 1.393 . S
C6349 C6348 1.391 . S
C6350 H6340 0.950 . S
C6350 C6351 1.386 . S
C6350 C6352 1.391 . S
C6351 C6350 1.386 . S
C6351 C6355 1.393 . S
C6352 H6341 0.950 . S
C6352 C6350 1.391 . S
C6352 C6353 1.400 . S
C6353 C6347 1.491 . S
C6353 C6352 1.400 . S
C6353 C6354 1.398 . S
C6354 H6342 0.950 . S
C6354 C6353 1.398 . S
C6354 C6355 1.391 . S
C6355 H6343 0.950 . S
C6355 C6351 1.393 . S
C6355 C6354 1.391 . S
H6356 C6364 0.950 . S
H6357 C6369 0.950 . S
H6358 C6366 0.950 . S
H6359 C6368 0.950 . S
H6360 C6370 0.950 . S
H6361 C6372 0.950 . S
H6362 C6374 0.950 . S
H6363 C6375 0.950 . S
C6364 H6356 0.950 . S
C6364 C6365 1.386 . S
C6364 C6366 1.391 . S
C6365 C6364 1.386 . S
C6365 C6369 1.393 . S
C6366 H6358 0.950 . S
C6366 C6364 1.391 . S
C6366 C6367 1.400 . S
C6367 C6366 1.400 . S
C6367 C6368 1.398 . S
C6367 C6373 1.491 . S
C6368 H6359 0.950 . S
C6368 C6367 1.398 . S
C6368 C6369 1.391 . S
C6369 H6357 0.950 . S
C6369 C6365 1.393 . S
C6369 C6368 1.391 . S
C6370 H6360 0.950 . S
C6370 C6371 1.386 . S
C6370 C6372 1.391 . S
C6371 C6370 1.386 . S
C6371 C6375 1.393 . S
C6372 H6361 0.950 . S
C6372 C6370 1.391 . S
C6372 C6373 1.400 . S
C6373 C6367 1.491 . S
C6373 C6372 1.400 . S
C6373 C6374 1.398 . S
C6374 H6362 0.950 . S
C6374 C6373 1.398 . S
C6374 C6375 1.391 . S
C6375 H6363 0.950 . S
C6375 C6371 1.393 . S
C6375 C6374 1.391 . S
H6376 C6384 0.950 . S
H6377 C6389 0.950 . S
H6378 C6386 0.950 . S
H6379 C6388 0.950 . S
H6380 C6390 0.950 . S
H6381 C6392 0.950 1_455 S
H6382 C6394 0.950 . S
H6383 C6395 0.950 . S
C6384 H6376 0.950 . S
C6384 C6385 1.386 . S
C6384 C6386 1.391 . S
C6385 C6384 1.386 . S
C6385 C6389 1.393 . S
C6386 H6378 0.950 . S
C6386 C6384 1.391 . S
C6386 C6387 1.400 . S
C6387 C6386 1.400 . S
C6387 C6388 1.398 . S
C6387 C6393 1.583 . S
C6388 H6379 0.950 . S
C6388 C6387 1.398 . S
C6388 C6389 1.391 . S
C6389 H6377 0.950 . S
C6389 C6385 1.393 . S
C6389 C6388 1.391 . S
C6390 H6380 0.950 . S
C6390 C6391 1.386 . S
C6390 C6392 1.391 . S
C6391 C6390 1.386 . S
C6391 C6395 1.393 . S
C6392 H6381 0.950 1_655 S
C6392 C6390 1.391 . S
C6392 C6393 1.378 1_655 S
C6393 C6387 1.583 . S
C6393 C6392 1.378 1_455 S
C6393 C6394 1.331 1_455 S
C6394 H6382 0.950 . S
C6394 C6393 1.331 1_655 S
C6394 C6395 1.391 . S
C6395 H6383 0.950 . S
C6395 C6391 1.393 . S
C6395 C6394 1.391 . S
H6396 C6404 0.950 . S
H6397 C6409 0.950 . S
H6398 C6406 0.950 . S
H6399 C6408 0.950 . S
H6400 C6410 0.950 . S
H6401 C6412 0.950 . S
H6402 C6414 0.950 . S
H6403 C6415 0.950 . S
C6404 H6396 0.950 . S
C6404 C6405 1.386 . S
C6404 C6406 1.391 . S
C6405 C6404 1.386 . S
C6405 C6409 1.393 . S
C6406 H6398 0.950 . S
C6406 C6404 1.391 . S
C6406 C6407 1.400 . S
C6407 C6406 1.400 . S
C6407 C6408 1.398 . S
C6407 C6413 1.491 . S
C6408 H6399 0.950 . S
C6408 C6407 1.398 . S
C6408 C6409 1.391 . S
C6409 H6397 0.950 . S
C6409 C6405 1.393 . S
C6409 C6408 1.391 . S
C6410 H6400 0.950 . S
C6410 C6411 1.386 . S
C6410 C6412 1.391 . S
C6411 C6410 1.386 . S
C6411 C6415 1.393 . S
C6412 H6401 0.950 . S
C6412 C6410 1.391 . S
C6412 C6413 1.400 . S
C6413 C6407 1.491 . S
C6413 C6412 1.400 . S
C6413 C6414 1.398 . S
C6414 H6402 0.950 . S
C6414 C6413 1.398 . S
C6414 C6415 1.391 . S
C6415 H6403 0.950 . S
C6415 C6411 1.393 . S
C6415 C6414 1.391 . S
H6416 C6424 0.950 . S
H6417 C6429 0.950 . S
H6418 C6426 0.950 . S
H6419 C6428 0.950 . S
H6420 C6430 0.950 . S
H6421 C6432 0.950 . S
H6422 C6434 0.950 . S
H6423 C6435 0.950 . S
C6424 H6416 0.950 . S
C6424 C6425 1.386 . S
C6424 C6426 1.391 . S
C6425 C6424 1.386 . S
C6425 C6429 1.393 . S
C6426 H6418 0.950 . S
C6426 C6424 1.391 . S
C6426 C6427 1.400 . S
C6427 C6426 1.400 . S
C6427 C6428 1.398 . S
C6427 C6433 1.491 . S
C6428 H6419 0.950 . S
C6428 C6427 1.398 . S
C6428 C6429 1.391 . S
C6429 H6417 0.950 . S
C6429 C6425 1.393 . S
C6429 C6428 1.391 . S
C6430 H6420 0.950 . S
C6430 C6431 1.386 . S
C6430 C6432 1.391 . S
C6431 C6430 1.386 . S
C6431 C6435 1.393 . S
C6432 H6421 0.950 . S
C6432 C6430 1.391 . S
C6432 C6433 1.400 . S
C6433 C6427 1.491 . S
C6433 C6432 1.400 . S
C6433 C6434 1.398 . S
C6434 H6422 0.950 . S
C6434 C6433 1.398 . S
C6434 C6435 1.391 . S
C6435 H6423 0.950 . S
C6435 C6431 1.393 . S
C6435 C6434 1.391 . S
H6436 C6444 0.950 . S
H6437 C6449 0.950 . S
H6438 C6446 0.950 . S
H6439 C6448 0.950 . S
H6440 C6450 0.950 . S
H6441 C6452 0.950 . S
H6442 C6454 0.950 . S
H6443 C6455 0.950 . S
C6444 H6436 0.950 . S
C6444 C6445 1.386 . S
C6444 C6446 1.391 . S
C6445 C6444 1.386 . S
C6445 C6449 1.393 . S
C6446 H6438 0.950 . S
C6446 C6444 1.391 . S
C6446 C6447 1.400 . S
C6447 C6446 1.400 . S
C6447 C6448 1.398 . S
C6447 C6453 1.491 . S
C6448 H6439 0.950 . S
C6448 C6447 1.398 . S
C6448 C6449 1.391 . S
C6449 H6437 0.950 . S
C6449 C6445 1.393 . S
C6449 C6448 1.391 . S
C6450 H6440 0.950 . S
C6450 C6451 1.386 . S
C6450 C6452 1.391 . S
C6451 C6450 1.386 . S
C6451 C6455 1.393 . S
C6452 H6441 0.950 . S
C6452 C6450 1.391 . S
C6452 C6453 1.400 . S
C6453 C6447 1.491 . S
C6453 C6452 1.400 . S
C6453 C6454 1.398 . S
C6454 H6442 0.950 . S
C6454 C6453 1.398 . S
C6454 C6455 1.391 . S
C6455 H6443 0.950 . S
C6455 C6451 1.393 . S
C6455 C6454 1.391 . S
H6456 C6464 0.950 . S
H6457 C6469 0.950 . S
H6458 C6466 0.950 . S
H6459 C6468 0.950 . S
H6460 C6470 0.950 . S
H6461 C6472 0.950 . S
H6462 C6474 0.931 1_455 S
H6463 C6475 0.950 . S
C6464 H6456 0.950 . S
C6464 C6465 1.386 . S
C6464 C6466 1.391 . S
C6465 C6464 1.386 . S
C6465 C6469 1.393 . S
C6466 H6458 0.950 . S
C6466 C6464 1.391 . S
C6466 C6467 1.400 . S
C6467 C6466 1.400 . S
C6467 C6468 1.398 . S
C6467 C6473 1.579 . S
C6468 H6459 0.950 . S
C6468 C6467 1.398 . S
C6468 C6469 1.391 . S
C6469 H6457 0.950 . S
C6469 C6465 1.393 . S
C6469 C6468 1.391 . S
C6470 H6460 0.950 . S
C6470 C6471 1.386 . S
C6470 C6472 1.391 . S
C6471 C6470 1.386 . S
C6471 C6475 1.393 . S
C6472 H6461 0.950 . S
C6472 C6470 1.391 . S
C6472 C6473 1.321 1_655 S
C6473 C6467 1.579 . S
C6473 C6472 1.321 1_455 S
C6473 C6474 1.390 1_455 S
C6474 H6462 0.931 1_655 S
C6474 C6473 1.390 1_655 S
C6474 C6475 1.412 . S
C6475 H6463 0.950 . S
C6475 C6471 1.393 . S
C6475 C6474 1.412 . S
H6476 C6484 0.950 . S
H6477 C6489 0.950 . S
H6478 C6486 0.950 . S
H6479 C6488 0.950 . S
H6480 C6490 0.950 . S
H6481 C6492 0.950 . S
H6482 C6494 0.950 . S
H6483 C6495 0.950 . S
C6484 H6476 0.950 . S
C6484 C6485 1.386 . S
C6484 C6486 1.391 . S
C6485 C6484 1.386 . S
C6485 C6489 1.393 . S
C6486 H6478 0.950 . S
C6486 C6484 1.391 . S
C6486 C6487 1.400 . S
C6487 C6486 1.400 . S
C6487 C6488 1.398 . S
C6487 C6493 1.491 . S
C6488 H6479 0.950 . S
C6488 C6487 1.398 . S
C6488 C6489 1.391 . S
C6489 H6477 0.950 . S
C6489 C6485 1.393 . S
C6489 C6488 1.391 . S
C6490 H6480 0.950 . S
C6490 C6491 1.386 . S
C6490 C6492 1.391 . S
C6491 C6490 1.386 . S
C6491 C6495 1.393 . S
C6492 H6481 0.950 . S
C6492 C6490 1.391 . S
C6492 C6493 1.400 . S
C6493 C6487 1.491 . S
C6493 C6492 1.400 . S
C6493 C6494 1.398 . S
C6494 H6482 0.950 . S
C6494 C6493 1.398 . S
C6494 C6495 1.391 . S
C6495 H6483 0.950 . S
C6495 C6491 1.393 . S
C6495 C6494 1.391 . S
H6496 C6504 0.950 . S
H6497 C6509 0.950 . S
H6498 C6506 0.950 . S
H6499 C6508 0.950 . S
H6500 C6510 0.950 . S
H6501 C6512 0.950 . S
H6502 C6514 0.950 . S
H6503 C6515 0.950 . S
C6504 H6496 0.950 . S
C6504 C6505 1.386 . S
C6504 C6506 1.391 . S
C6505 C6504 1.386 . S
C6505 C6509 1.393 . S
C6506 H6498 0.950 . S
C6506 C6504 1.391 . S
C6506 C6507 1.400 . S
C6507 C6506 1.400 . S
C6507 C6508 1.398 . S
C6507 C6513 1.491 . S
C6508 H6499 0.950 . S
C6508 C6507 1.398 . S
C6508 C6509 1.391 . S
C6509 H6497 0.950 . S
C6509 C6505 1.393 . S
C6509 C6508 1.391 . S
C6510 H6500 0.950 . S
C6510 C6511 1.386 . S
C6510 C6512 1.391 . S
C6511 C6510 1.386 . S
C6511 C6515 1.393 . S
C6512 H6501 0.950 . S
C6512 C6510 1.391 . S
C6512 C6513 1.400 . S
C6513 C6507 1.491 . S
C6513 C6512 1.400 . S
C6513 C6514 1.398 . S
C6514 H6502 0.950 . S
C6514 C6513 1.398 . S
C6514 C6515 1.391 . S
C6515 H6503 0.950 . S
C6515 C6511 1.393 . S
C6515 C6514 1.391 . S
H6516 C6524 0.950 . S
H6517 C6529 0.950 . S
H6518 C6526 0.950 . S
H6519 C6528 0.950 . S
H6520 C6530 0.950 . S
H6521 C6532 0.950 . S
H6522 C6534 0.950 . S
H6523 C6535 0.950 . S
C6524 H6516 0.950 . S
C6524 C6525 1.386 . S
C6524 C6526 1.391 . S
C6525 C6524 1.386 . S
C6525 C6529 1.393 . S
C6526 H6518 0.950 . S
C6526 C6524 1.391 . S
C6526 C6527 1.400 . S
C6527 C6526 1.400 . S
C6527 C6528 1.398 . S
C6527 C6533 1.491 . S
C6528 H6519 0.950 . S
C6528 C6527 1.398 . S
C6528 C6529 1.391 . S
C6529 H6517 0.950 . S
C6529 C6525 1.393 . S
C6529 C6528 1.391 . S
C6530 H6520 0.950 . S
C6530 C6531 1.386 . S
C6530 C6532 1.391 . S
C6531 C6530 1.386 . S
C6531 C6535 1.393 . S
C6532 H6521 0.950 . S
C6532 C6530 1.391 . S
C6532 C6533 1.400 . S
C6533 C6527 1.491 . S
C6533 C6532 1.400 . S
C6533 C6534 1.398 . S
C6534 H6522 0.950 . S
C6534 C6533 1.398 . S
C6534 C6535 1.391 . S
C6535 H6523 0.950 . S
C6535 C6531 1.393 . S
C6535 C6534 1.391 . S
H6536 C6544 0.950 . S
H6537 C6549 0.950 . S
H6538 C6546 0.950 . S
H6539 C6548 0.950 . S
H6540 C6550 0.950 . S
H6541 C6552 0.950 . S
H6542 C6554 0.950 . S
H6543 C6555 0.950 . S
C6544 H6536 0.950 . S
C6544 C6545 1.386 . S
C6544 C6546 1.391 . S
C6545 C6544 1.386 . S
C6545 C6549 1.393 . S
C6546 H6538 0.950 . S
C6546 C6544 1.391 . S
C6546 C6547 1.400 . S
C6547 C6546 1.400 . S
C6547 C6548 1.398 . S
C6547 C6553 1.491 . S
C6548 H6539 0.950 . S
C6548 C6547 1.398 . S
C6548 C6549 1.391 . S
C6549 H6537 0.950 . S
C6549 C6545 1.393 . S
C6549 C6548 1.391 . S
C6550 H6540 0.950 . S
C6550 C6551 1.386 . S
C6550 C6552 1.391 . S
C6551 C6550 1.386 . S
C6551 C6555 1.393 . S
C6552 H6541 0.950 . S
C6552 C6550 1.391 . S
C6552 C6553 1.400 . S
C6553 C6547 1.491 . S
C6553 C6552 1.400 . S
C6553 C6554 1.398 . S
C6554 H6542 0.950 . S
C6554 C6553 1.398 . S
C6554 C6555 1.391 . S
C6555 H6543 0.950 . S
C6555 C6551 1.393 . S
C6555 C6554 1.391 . S
H6556 C6564 0.950 . S
H6557 C6569 0.950 . S
H6558 C6566 0.950 . S
H6559 C6568 0.950 . S
H6560 C6570 0.950 . S
H6561 C6572 0.950 . S
H6562 C6574 0.950 . S
H6563 C6575 0.950 . S
C6564 H6556 0.950 . S
C6564 C6565 1.386 . S
C6564 C6566 1.391 . S
C6565 C6564 1.386 . S
C6565 C6569 1.393 . S
C6566 H6558 0.950 . S
C6566 C6564 1.391 . S
C6566 C6567 1.400 . S
C6567 C6566 1.400 . S
C6567 C6568 1.398 . S
C6567 C6573 1.491 . S
C6568 H6559 0.950 . S
C6568 C6567 1.398 . S
C6568 C6569 1.391 . S
C6569 H6557 0.950 . S
C6569 C6565 1.393 . S
C6569 C6568 1.391 . S
C6570 H6560 0.950 . S
C6570 C6571 1.386 . S
C6570 C6572 1.391 . S
C6571 C6570 1.386 . S
C6571 C6575 1.393 . S
C6572 H6561 0.950 . S
C6572 C6570 1.391 . S
C6572 C6573 1.400 . S
C6573 C6567 1.491 . S
C6573 C6572 1.400 . S
C6573 C6574 1.398 . S
C6574 H6562 0.950 . S
C6574 C6573 1.398 . S
C6574 C6575 1.391 . S
C6575 H6563 0.950 . S
C6575 C6571 1.393 . S
C6575 C6574 1.391 . S
H6576 C6584 0.950 . S
H6577 C6589 0.950 . S
H6578 C6586 0.950 . S
H6579 C6588 0.950 . S
H6580 C6590 0.950 . S
H6581 C6592 0.950 . S
H6582 C6594 0.950 . S
H6583 C6595 0.950 . S
C6584 H6576 0.950 . S
C6584 C6585 1.386 . S
C6584 C6586 1.391 . S
C6585 C6584 1.386 . S
C6585 C6589 1.393 . S
C6586 H6578 0.950 . S
C6586 C6584 1.391 . S
C6586 C6587 1.400 . S
C6587 C6586 1.400 . S
C6587 C6588 1.398 . S
C6587 C6593 1.491 . S
C6588 H6579 0.950 . S
C6588 C6587 1.398 . S
C6588 C6589 1.391 . S
C6589 H6577 0.950 . S
C6589 C6585 1.393 . S
C6589 C6588 1.391 . S
C6590 H6580 0.950 . S
C6590 C6591 1.386 . S
C6590 C6592 1.391 . S
C6591 C6590 1.386 . S
C6591 C6595 1.393 . S
C6592 H6581 0.950 . S
C6592 C6590 1.391 . S
C6592 C6593 1.400 . S
C6593 C6587 1.491 . S
C6593 C6592 1.400 . S
C6593 C6594 1.398 . S
C6594 H6582 0.950 . S
C6594 C6593 1.398 . S
C6594 C6595 1.391 . S
C6595 H6583 0.950 . S
C6595 C6591 1.393 . S
C6595 C6594 1.391 . S
H6596 C6604 0.950 . S
H6597 C6609 0.950 . S
H6598 C6606 0.950 . S
H6599 C6608 0.950 . S
H6600 C6610 0.950 . S
H6601 C6612 0.950 . S
H6602 C6614 0.950 . S
H6603 C6615 0.950 . S
C6604 H6596 0.950 . S
C6604 C6605 1.386 . S
C6604 C6606 1.391 . S
C6605 C6604 1.386 . S
C6605 C6609 1.393 . S
C6606 H6598 0.950 . S
C6606 C6604 1.391 . S
C6606 C6607 1.400 . S
C6607 C6606 1.400 . S
C6607 C6608 1.398 . S
C6607 C6613 1.491 . S
C6608 H6599 0.950 . S
C6608 C6607 1.398 . S
C6608 C6609 1.391 . S
C6609 H6597 0.950 . S
C6609 C6605 1.393 . S
C6609 C6608 1.391 . S
C6610 H6600 0.950 . S
C6610 C6611 1.386 . S
C6610 C6612 1.391 . S
C6611 C6610 1.386 . S
C6611 C6615 1.393 . S
C6612 H6601 0.950 . S
C6612 C6610 1.391 . S
C6612 C6613 1.400 . S
C6613 C6607 1.491 . S
C6613 C6612 1.400 . S
C6613 C6614 1.398 . S
C6614 H6602 0.950 . S
C6614 C6613 1.398 . S
C6614 C6615 1.391 . S
C6615 H6603 0.950 . S
C6615 C6611 1.393 . S
C6615 C6614 1.391 . S
H6616 C6624 0.950 . S
H6617 C6629 0.950 . S
H6618 C6626 0.950 . S
H6619 C6628 0.950 . S
H6620 C6630 0.950 . S
H6621 C6632 0.950 . S
H6622 C6634 0.950 . S
H6623 C6635 0.950 . S
C6624 H6616 0.950 . S
C6624 C6625 1.386 . S
C6624 C6626 1.391 . S
C6625 C6624 1.386 . S
C6625 C6629 1.393 . S
C6626 H6618 0.950 . S
C6626 C6624 1.391 . S
C6626 C6627 1.400 . S
C6627 C6626 1.400 . S
C6627 C6628 1.398 . S
C6627 C6633 1.491 . S
C6628 H6619 0.950 . S
C6628 C6627 1.398 . S
C6628 C6629 1.391 . S
C6629 H6617 0.950 . S
C6629 C6625 1.393 . S
C6629 C6628 1.391 . S
C6630 H6620 0.950 . S
C6630 C6631 1.386 . S
C6630 C6632 1.391 . S
C6631 C6630 1.386 . S
C6631 C6635 1.393 . S
C6632 H6621 0.950 . S
C6632 C6630 1.391 . S
C6632 C6633 1.400 . S
C6633 C6627 1.491 . S
C6633 C6632 1.400 . S
C6633 C6634 1.398 . S
C6634 H6622 0.950 . S
C6634 C6633 1.398 . S
C6634 C6635 1.391 . S
C6635 H6623 0.950 . S
C6635 C6631 1.393 . S
C6635 C6634 1.391 . S
H6636 C6644 0.950 . S
H6637 C6649 0.950 . S
H6638 C6646 0.950 . S
H6639 C6648 0.950 . S
H6640 C6650 0.950 . S
H6641 C6652 0.950 . S
H6642 C6654 0.950 . S
H6643 C6655 0.950 . S
C6644 H6636 0.950 . S
C6644 C6645 1.386 . S
C6644 C6646 1.391 . S
C6645 C6644 1.386 . S
C6645 C6649 1.393 . S
C6646 H6638 0.950 . S
C6646 C6644 1.391 . S
C6646 C6647 1.400 . S
C6647 C6646 1.400 . S
C6647 C6648 1.398 . S
C6647 C6653 1.491 . S
C6648 H6639 0.950 . S
C6648 C6647 1.398 . S
C6648 C6649 1.391 . S
C6649 H6637 0.950 . S
C6649 C6645 1.393 . S
C6649 C6648 1.391 . S
C6650 H6640 0.950 . S
C6650 C6651 1.386 . S
C6650 C6652 1.391 . S
C6651 C6650 1.386 . S
C6651 C6655 1.393 . S
C6652 H6641 0.950 . S
C6652 C6650 1.391 . S
C6652 C6653 1.400 . S
C6653 C6647 1.491 . S
C6653 C6652 1.400 . S
C6653 C6654 1.398 . S
C6654 H6642 0.950 . S
C6654 C6653 1.398 . S
C6654 C6655 1.391 . S
C6655 H6643 0.950 . S
C6655 C6651 1.393 . S
C6655 C6654 1.391 . S
H6656 C6664 0.950 . S
H6657 C6669 0.950 . S
H6658 C6666 0.950 . S
H6659 C6668 0.950 . S
H6660 C6670 0.950 . S
H6661 C6672 0.950 . S
H6662 C6674 0.950 . S
H6663 C6675 0.950 . S
C6664 H6656 0.950 . S
C6664 C6665 1.386 . S
C6664 C6666 1.391 . S
C6665 C6664 1.386 . S
C6665 C6669 1.393 . S
C6666 H6658 0.950 . S
C6666 C6664 1.391 . S
C6666 C6667 1.400 . S
C6667 C6666 1.400 . S
C6667 C6668 1.398 . S
C6667 C6673 1.491 . S
C6668 H6659 0.950 . S
C6668 C6667 1.398 . S
C6668 C6669 1.391 . S
C6669 H6657 0.950 . S
C6669 C6665 1.393 . S
C6669 C6668 1.391 . S
C6670 H6660 0.950 . S
C6670 C6671 1.386 . S
C6670 C6672 1.391 . S
C6671 C6670 1.386 . S
C6671 C6675 1.393 . S
C6672 H6661 0.950 . S
C6672 C6670 1.391 . S
C6672 C6673 1.400 . S
C6673 C6667 1.491 . S
C6673 C6672 1.400 . S
C6673 C6674 1.398 . S
C6674 H6662 0.950 . S
C6674 C6673 1.398 . S
C6674 C6675 1.391 . S
C6675 H6663 0.950 . S
C6675 C6671 1.393 . S
C6675 C6674 1.391 . S
H6676 C6684 0.950 . S
H6677 C6689 0.950 . S
H6678 C6686 0.950 . S
H6679 C6688 0.950 . S
H6680 C6690 0.950 . S
H6681 C6692 0.950 . S
H6682 C6694 0.950 . S
H6683 C6695 0.950 . S
C6684 H6676 0.950 . S
C6684 C6685 1.386 . S
C6684 C6686 1.391 . S
C6685 C6684 1.386 . S
C6685 C6689 1.393 . S
C6686 H6678 0.950 . S
C6686 C6684 1.391 . S
C6686 C6687 1.400 . S
C6687 C6686 1.400 . S
C6687 C6688 1.398 . S
C6687 C6693 1.491 . S
C6688 H6679 0.950 . S
C6688 C6687 1.398 . S
C6688 C6689 1.391 . S
C6689 H6677 0.950 . S
C6689 C6685 1.393 . S
C6689 C6688 1.391 . S
C6690 H6680 0.950 . S
C6690 C6691 1.386 . S
C6690 C6692 1.391 . S
C6691 C6690 1.386 . S
C6691 C6695 1.393 . S
C6692 H6681 0.950 . S
C6692 C6690 1.391 . S
C6692 C6693 1.400 . S
C6693 C6687 1.491 . S
C6693 C6692 1.400 . S
C6693 C6694 1.398 . S
C6694 H6682 0.950 . S
C6694 C6693 1.398 . S
C6694 C6695 1.391 . S
C6695 H6683 0.950 . S
C6695 C6691 1.393 . S
C6695 C6694 1.391 . S
H6696 C6704 0.950 . S
H6697 C6709 0.950 . S
H6698 C6706 0.950 . S
H6699 C6708 0.950 . S
H6700 C6710 0.950 . S
H6701 C6712 0.950 . S
H6702 C6714 0.950 . S
H6703 C6715 0.950 . S
C6704 H6696 0.950 . S
C6704 C6705 1.386 . S
C6704 C6706 1.391 . S
C6705 C6704 1.386 . S
C6705 C6709 1.393 . S
C6706 H6698 0.950 . S
C6706 C6704 1.391 . S
C6706 C6707 1.400 . S
C6707 C6706 1.400 . S
C6707 C6708 1.398 . S
C6707 C6713 1.491 . S
C6708 H6699 0.950 . S
C6708 C6707 1.398 . S
C6708 C6709 1.391 . S
C6709 H6697 0.950 . S
C6709 C6705 1.393 . S
C6709 C6708 1.391 . S
C6710 H6700 0.950 . S
C6710 C6711 1.386 . S
C6710 C6712 1.391 . S
C6711 C6710 1.386 . S
C6711 C6715 1.393 . S
C6712 H6701 0.950 . S
C6712 C6710 1.391 . S
C6712 C6713 1.400 . S
C6713 C6707 1.491 . S
C6713 C6712 1.400 . S
C6713 C6714 1.398 . S
C6714 H6702 0.950 . S
C6714 C6713 1.398 . S
C6714 C6715 1.391 . S
C6715 H6703 0.950 . S
C6715 C6711 1.393 . S
C6715 C6714 1.391 . S
H6716 C6724 0.950 . S
H6717 C6729 0.950 . S
H6718 C6726 0.950 . S
H6719 C6728 0.950 . S
H6720 C6730 0.950 . S
H6721 C6732 0.864 1_554 S
H6722 C6734 0.950 . S
H6723 C6735 0.950 . S
C6724 H6716 0.950 . S
C6724 C6725 1.386 . S
C6724 C6726 1.391 . S
C6725 C6724 1.386 . S
C6725 C6729 1.393 . S
C6726 H6718 0.950 . S
C6726 C6724 1.391 . S
C6726 C6727 1.400 . S
C6727 C6726 1.400 . S
C6727 C6728 1.398 . S
C6727 C6733 1.571 . S
C6728 H6719 0.950 . S
C6728 C6727 1.398 . S
C6728 C6729 1.391 . S
C6729 H6717 0.950 . S
C6729 C6725 1.393 . S
C6729 C6728 1.391 . S
C6730 H6720 0.950 . S
C6730 C6731 1.386 . S
C6730 C6732 1.501 . S
C6731 C6730 1.386 . S
C6731 C6735 1.393 . S
C6732 H6721 0.864 1_556 S
C6732 C6730 1.501 . S
C6732 C6733 1.379 1_556 S
C6733 C6727 1.571 . S
C6733 C6732 1.379 1_554 S
C6733 C6734 1.331 1_554 S
C6734 H6722 0.950 . S
C6734 C6733 1.331 1_556 S
C6734 C6735 1.391 . S
C6735 H6723 0.950 . S
C6735 C6731 1.393 . S
C6735 C6734 1.391 . S
H6736 C6744 0.950 . S
H6737 C6749 0.950 . S
H6738 C6746 0.950 . S
H6739 C6748 0.950 . S
H6740 C6750 0.950 . S
H6741 C6752 0.950 . S
H6742 C6754 0.950 . S
H6743 C6755 0.950 . S
C6744 H6736 0.950 . S
C6744 C6745 1.386 . S
C6744 C6746 1.391 . S
C6745 C6744 1.386 . S
C6745 C6749 1.393 . S
C6746 H6738 0.950 . S
C6746 C6744 1.391 . S
C6746 C6747 1.400 . S
C6747 C6746 1.400 . S
C6747 C6748 1.398 . S
C6747 C6753 1.491 . S
C6748 H6739 0.950 . S
C6748 C6747 1.398 . S
C6748 C6749 1.391 . S
C6749 H6737 0.950 . S
C6749 C6745 1.393 . S
C6749 C6748 1.391 . S
C6750 H6740 0.950 . S
C6750 C6751 1.386 . S
C6750 C6752 1.391 . S
C6751 C6750 1.386 . S
C6751 C6755 1.393 . S
C6752 H6741 0.950 . S
C6752 C6750 1.391 . S
C6752 C6753 1.400 . S
C6753 C6747 1.491 . S
C6753 C6752 1.400 . S
C6753 C6754 1.398 . S
C6754 H6742 0.950 . S
C6754 C6753 1.398 . S
C6754 C6755 1.391 . S
C6755 H6743 0.950 . S
C6755 C6751 1.393 . S
C6755 C6754 1.391 . S
H6756 C6764 0.950 . S
H6757 C6769 0.950 . S
H6758 C6766 0.950 . S
H6759 C6768 0.950 . S
H6760 C6770 0.950 . S
H6761 C6772 0.950 . S
H6762 C6774 0.854 1_556 S
H6763 C6775 0.950 . S
C6764 H6756 0.950 . S
C6764 C6765 1.386 . S
C6764 C6766 1.391 . S
C6765 C6764 1.386 . S
C6765 C6769 1.393 . S
C6766 H6758 0.950 . S
C6766 C6764 1.391 . S
C6766 C6767 1.400 . S
C6767 C6766 1.400 . S
C6767 C6768 1.398 . S
C6767 C6773 1.583 . S
C6768 H6759 0.950 . S
C6768 C6767 1.398 . S
C6768 C6769 1.391 . S
C6769 H6757 0.950 . S
C6769 C6765 1.393 . S
C6769 C6768 1.391 . S
C6770 H6760 0.950 . S
C6770 C6771 1.386 . S
C6770 C6772 1.391 . S
C6771 C6770 1.386 . S
C6771 C6775 1.393 . S
C6772 H6761 0.950 . S
C6772 C6770 1.391 . S
C6772 C6773 1.327 1_554 S
C6773 C6767 1.583 . S
C6773 C6772 1.327 1_556 S
C6773 C6774 1.370 1_556 S
C6774 H6762 0.854 1_554 S
C6774 C6773 1.370 1_554 S
C6774 C6775 1.520 . S
C6775 H6763 0.950 . S
C6775 C6771 1.393 . S
C6775 C6774 1.520 . S
H6776 C6784 0.950 . S
H6777 C6789 0.950 . S
H6778 C6786 0.950 . S
H6779 C6788 0.950 . S
H6780 C6790 0.950 . S
H6781 C6792 0.950 . S
H6782 C6794 0.950 . S
H6783 C6795 0.950 . S
C6784 H6776 0.950 . S
C6784 C6785 1.386 . S
C6784 C6786 1.391 . S
C6785 C6784 1.386 . S
C6785 C6789 1.393 . S
C6786 H6778 0.950 . S
C6786 C6784 1.391 . S
C6786 C6787 1.400 . S
C6787 C6786 1.400 . S
C6787 C6788 1.398 . S
C6787 C6793 1.491 . S
C6788 H6779 0.950 . S
C6788 C6787 1.398 . S
C6788 C6789 1.391 . S
C6789 H6777 0.950 . S
C6789 C6785 1.393 . S
C6789 C6788 1.391 . S
C6790 H6780 0.950 . S
C6790 C6791 1.386 . S
C6790 C6792 1.391 . S
C6791 C6790 1.386 . S
C6791 C6795 1.393 . S
C6792 H6781 0.950 . S
C6792 C6790 1.391 . S
C6792 C6793 1.400 . S
C6793 C6787 1.491 . S
C6793 C6792 1.400 . S
C6793 C6794 1.398 . S
C6794 H6782 0.950 . S
C6794 C6793 1.398 . S
C6794 C6795 1.391 . S
C6795 H6783 0.950 . S
C6795 C6791 1.393 . S
C6795 C6794 1.391 . S
H6796 C6804 0.950 . S
H6797 C6809 0.950 . S
H6798 C6806 0.950 . S
H6799 C6808 0.950 . S
H6800 C6810 0.950 . S
H6801 C6812 0.950 . S
H6802 C6814 0.950 . S
H6803 C6815 0.950 . S
C6804 H6796 0.950 . S
C6804 C6805 1.386 . S
C6804 C6806 1.391 . S
C6805 C6804 1.386 . S
C6805 C6809 1.393 . S
C6806 H6798 0.950 . S
C6806 C6804 1.391 . S
C6806 C6807 1.400 . S
C6807 C6806 1.400 . S
C6807 C6808 1.398 . S
C6807 C6813 1.491 . S
C6808 H6799 0.950 . S
C6808 C6807 1.398 . S
C6808 C6809 1.391 . S
C6809 H6797 0.950 . S
C6809 C6805 1.393 . S
C6809 C6808 1.391 . S
C6810 H6800 0.950 . S
C6810 C6811 1.386 . S
C6810 C6812 1.391 . S
C6811 C6810 1.386 . S
C6811 C6815 1.393 . S
C6812 H6801 0.950 . S
C6812 C6810 1.391 . S
C6812 C6813 1.400 . S
C6813 C6807 1.491 . S
C6813 C6812 1.400 . S
C6813 C6814 1.398 . S
C6814 H6802 0.950 . S
C6814 C6813 1.398 . S
C6814 C6815 1.391 . S
C6815 H6803 0.950 . S
C6815 C6811 1.393 . S
C6815 C6814 1.391 . S
H6816 C6824 0.950 . S
H6817 C6829 0.950 . S
H6818 C6826 0.950 . S
H6819 C6828 0.950 . S
H6820 C6830 0.950 . S
H6821 C6832 0.950 . S
H6822 C6834 0.950 . S
H6823 C6835 0.950 . S
C6824 H6816 0.950 . S
C6824 C6825 1.386 . S
C6824 C6826 1.391 . S
C6825 C6824 1.386 . S
C6825 C6829 1.393 . S
C6826 H6818 0.950 . S
C6826 C6824 1.391 . S
C6826 C6827 1.400 . S
C6827 C6826 1.400 . S
C6827 C6828 1.398 . S
C6827 C6833 1.491 . S
C6828 H6819 0.950 . S
C6828 C6827 1.398 . S
C6828 C6829 1.391 . S
C6829 H6817 0.950 . S
C6829 C6825 1.393 . S
C6829 C6828 1.391 . S
C6830 H6820 0.950 . S
C6830 C6831 1.386 . S
C6830 C6832 1.391 . S
C6831 C6830 1.386 . S
C6831 C6835 1.393 . S
C6832 H6821 0.950 . S
C6832 C6830 1.391 . S
C6832 C6833 1.400 . S
C6833 C6827 1.491 . S
C6833 C6832 1.400 . S
C6833 C6834 1.398 . S
C6834 H6822 0.950 . S
C6834 C6833 1.398 . S
C6834 C6835 1.391 . S
C6835 H6823 0.950 . S
C6835 C6831 1.393 . S
C6835 C6834 1.391 . S
H6836 C6844 0.950 . S
H6837 C6849 0.950 . S
H6838 C6846 0.950 . S
H6839 C6848 0.950 . S
H6840 C6850 0.950 . S
H6841 C6852 0.950 . S
H6842 C6854 0.950 . S
H6843 C6855 0.950 . S
C6844 H6836 0.950 . S
C6844 C6845 1.386 . S
C6844 C6846 1.391 . S
C6845 C6844 1.386 . S
C6845 C6849 1.393 . S
C6846 H6838 0.950 . S
C6846 C6844 1.391 . S
C6846 C6847 1.400 . S
C6847 C6846 1.400 . S
C6847 C6848 1.398 . S
C6847 C6853 1.491 . S
C6848 H6839 0.950 . S
C6848 C6847 1.398 . S
C6848 C6849 1.391 . S
C6849 H6837 0.950 . S
C6849 C6845 1.393 . S
C6849 C6848 1.391 . S
C6850 H6840 0.950 . S
C6850 C6851 1.386 . S
C6850 C6852 1.391 . S
C6851 C6850 1.386 . S
C6851 C6855 1.393 . S
C6852 H6841 0.950 . S
C6852 C6850 1.391 . S
C6852 C6853 1.400 . S
C6853 C6847 1.491 . S
C6853 C6852 1.400 . S
C6853 C6854 1.398 . S
C6854 H6842 0.950 . S
C6854 C6853 1.398 . S
C6854 C6855 1.391 . S
C6855 H6843 0.950 . S
C6855 C6851 1.393 . S
C6855 C6854 1.391 . S
H6856 C6864 0.950 . S
H6857 C6869 0.950 . S
H6858 C6866 0.950 . S
H6859 C6868 0.950 . S
H6860 C6870 0.950 . S
H6861 C6872 0.950 . S
H6862 C6874 0.950 . S
H6863 C6875 0.950 . S
C6864 H6856 0.950 . S
C6864 C6865 1.386 . S
C6864 C6866 1.391 . S
C6865 C6864 1.386 . S
C6865 C6869 1.393 . S
C6866 H6858 0.950 . S
C6866 C6864 1.391 . S
C6866 C6867 1.400 . S
C6867 C6866 1.400 . S
C6867 C6868 1.398 . S
C6867 C6873 1.491 . S
C6868 H6859 0.950 . S
C6868 C6867 1.398 . S
C6868 C6869 1.391 . S
C6869 H6857 0.950 . S
C6869 C6865 1.393 . S
C6869 C6868 1.391 . S
C6870 H6860 0.950 . S
C6870 C6871 1.386 . S
C6870 C6872 1.391 . S
C6871 C6870 1.386 . S
C6871 C6875 1.393 . S
C6872 H6861 0.950 . S
C6872 C6870 1.391 . S
C6872 C6873 1.400 . S
C6873 C6867 1.491 . S
C6873 C6872 1.400 . S
C6873 C6874 1.398 . S
C6874 H6862 0.950 . S
C6874 C6873 1.398 . S
C6874 C6875 1.391 . S
C6875 H6863 0.950 . S
C6875 C6871 1.393 . S
C6875 C6874 1.391 . S
H6876 C6884 0.950 . S
H6877 C6889 0.950 . S
H6878 C6886 0.950 . S
H6879 C6888 0.950 . S
H6880 C6890 0.950 . S
H6881 C6892 0.950 . S
H6882 C6894 0.950 . S
H6883 C6895 0.950 . S
C6884 H6876 0.950 . S
C6884 C6885 1.386 . S
C6884 C6886 1.391 . S
C6885 C6884 1.386 . S
C6885 C6889 1.393 . S
C6886 H6878 0.950 . S
C6886 C6884 1.391 . S
C6886 C6887 1.400 . S
C6887 C6886 1.400 . S
C6887 C6888 1.398 . S
C6887 C6893 1.491 . S
C6888 H6879 0.950 . S
C6888 C6887 1.398 . S
C6888 C6889 1.391 . S
C6889 H6877 0.950 . S
C6889 C6885 1.393 . S
C6889 C6888 1.391 . S
C6890 H6880 0.950 . S
C6890 C6891 1.386 . S
C6890 C6892 1.391 . S
C6891 C6890 1.386 . S
C6891 C6895 1.393 . S
C6892 H6881 0.950 . S
C6892 C6890 1.391 . S
C6892 C6893 1.400 . S
C6893 C6887 1.491 . S
C6893 C6892 1.400 . S
C6893 C6894 1.398 . S
C6894 H6882 0.950 . S
C6894 C6893 1.398 . S
C6894 C6895 1.391 . S
C6895 H6883 0.950 . S
C6895 C6891 1.393 . S
C6895 C6894 1.391 . S
H6896 C6904 0.950 . S
H6897 C6909 0.950 . S
H6898 C6906 0.950 . S
H6899 C6908 0.950 . S
H6900 C6910 0.950 . S
H6901 C6912 0.950 . S
H6902 C6914 0.950 . S
H6903 C6915 0.950 . S
C6904 H6896 0.950 . S
C6904 C6905 1.386 . S
C6904 C6906 1.391 . S
C6905 C6904 1.386 . S
C6905 C6909 1.393 . S
C6906 H6898 0.950 . S
C6906 C6904 1.391 . S
C6906 C6907 1.400 . S
C6907 C6906 1.400 . S
C6907 C6908 1.398 . S
C6907 C6913 1.491 . S
C6908 H6899 0.950 . S
C6908 C6907 1.398 . S
C6908 C6909 1.391 . S
C6909 H6897 0.950 . S
C6909 C6905 1.393 . S
C6909 C6908 1.391 . S
C6910 H6900 0.950 . S
C6910 C6911 1.386 . S
C6910 C6912 1.391 . S
C6911 C6910 1.386 . S
C6911 C6915 1.393 . S
C6912 H6901 0.950 . S
C6912 C6910 1.391 . S
C6912 C6913 1.400 . S
C6913 C6907 1.491 . S
C6913 C6912 1.400 . S
C6913 C6914 1.398 . S
C6914 H6902 0.950 . S
C6914 C6913 1.398 . S
C6914 C6915 1.391 . S
C6915 H6903 0.950 . S
C6915 C6911 1.393 . S
C6915 C6914 1.391 . S
H6916 C6924 0.950 . S
H6917 C6929 0.950 . S
H6918 C6926 0.950 . S
H6919 C6928 0.950 . S
H6920 C6930 0.950 . S
H6921 C6932 0.950 . S
H6922 C6934 0.950 . S
H6923 C6935 0.950 . S
C6924 H6916 0.950 . S
C6924 C6925 1.386 . S
C6924 C6926 1.391 . S
C6925 C6924 1.386 . S
C6925 C6929 1.393 . S
C6926 H6918 0.950 . S
C6926 C6924 1.391 . S
C6926 C6927 1.400 . S
C6927 C6926 1.400 . S
C6927 C6928 1.398 . S
C6927 C6933 1.491 . S
C6928 H6919 0.950 . S
C6928 C6927 1.398 . S
C6928 C6929 1.391 . S
C6929 H6917 0.950 . S
C6929 C6925 1.393 . S
C6929 C6928 1.391 . S
C6930 H6920 0.950 . S
C6930 C6931 1.386 . S
C6930 C6932 1.391 . S
C6931 C6930 1.386 . S
C6931 C6935 1.393 . S
C6932 H6921 0.950 . S
C6932 C6930 1.391 . S
C6932 C6933 1.400 . S
C6933 C6927 1.491 . S
C6933 C6932 1.400 . S
C6933 C6934 1.398 . S
C6934 H6922 0.950 . S
C6934 C6933 1.398 . S
C6934 C6935 1.391 . S
C6935 H6923 0.950 . S
C6935 C6931 1.393 . S
C6935 C6934 1.391 . S
H6936 C6944 0.950 . S
H6937 C6949 0.950 . S
H6938 C6946 0.950 . S
H6939 C6948 0.950 . S
H6940 C6950 0.950 . S
H6941 C6952 0.950 . S
H6942 C6954 0.950 . S
H6943 C6955 0.950 . S
C6944 H6936 0.950 . S
C6944 C6945 1.386 . S
C6944 C6946 1.391 . S
C6945 C6944 1.386 . S
C6945 C6949 1.393 . S
C6946 H6938 0.950 . S
C6946 C6944 1.391 . S
C6946 C6947 1.400 . S
C6947 C6946 1.400 . S
C6947 C6948 1.398 . S
C6947 C6953 1.491 . S
C6948 H6939 0.950 . S
C6948 C6947 1.398 . S
C6948 C6949 1.391 . S
C6949 H6937 0.950 . S
C6949 C6945 1.393 . S
C6949 C6948 1.391 . S
C6950 H6940 0.950 . S
C6950 C6951 1.386 . S
C6950 C6952 1.391 . S
C6951 C6950 1.386 . S
C6951 C6955 1.393 . S
C6952 H6941 0.950 . S
C6952 C6950 1.391 . S
C6952 C6953 1.400 . S
C6953 C6947 1.491 . S
C6953 C6952 1.400 . S
C6953 C6954 1.398 . S
C6954 H6942 0.950 . S
C6954 C6953 1.398 . S
C6954 C6955 1.391 . S
C6955 H6943 0.950 . S
C6955 C6951 1.393 . S
C6955 C6954 1.391 . S
H6956 C6964 0.950 . S
H6957 C6969 0.950 . S
H6958 C6966 0.950 . S
H6959 C6968 0.950 . S
H6960 C6970 0.950 . S
H6961 C6972 0.950 . S
H6962 C6974 0.950 . S
H6963 C6975 0.950 . S
C6964 H6956 0.950 . S
C6964 C6965 1.386 . S
C6964 C6966 1.391 . S
C6965 C6964 1.386 . S
C6965 C6969 1.393 . S
C6966 H6958 0.950 . S
C6966 C6964 1.391 . S
C6966 C6967 1.400 . S
C6967 C6966 1.400 . S
C6967 C6968 1.398 . S
C6967 C6973 1.491 . S
C6968 H6959 0.950 . S
C6968 C6967 1.398 . S
C6968 C6969 1.391 . S
C6969 H6957 0.950 . S
C6969 C6965 1.393 . S
C6969 C6968 1.391 . S
C6970 H6960 0.950 . S
C6970 C6971 1.386 . S
C6970 C6972 1.391 . S
C6971 C6970 1.386 . S
C6971 C6975 1.393 . S
C6972 H6961 0.950 . S
C6972 C6970 1.391 . S
C6972 C6973 1.400 . S
C6973 C6967 1.491 . S
C6973 C6972 1.400 . S
C6973 C6974 1.398 . S
C6974 H6962 0.950 . S
C6974 C6973 1.398 . S
C6974 C6975 1.391 . S
C6975 H6963 0.950 . S
C6975 C6971 1.393 . S
C6975 C6974 1.391 . S
H6976 C6984 0.950 . S
H6977 C6989 0.950 . S
H6978 C6986 0.950 . S
H6979 C6988 0.950 . S
H6980 C6990 0.950 . S
H6981 C6992 0.950 . S
H6982 C6994 0.950 . S
H6983 C6995 0.950 . S
C6984 H6976 0.950 . S
C6984 C6985 1.386 . S
C6984 C6986 1.391 . S
C6985 C6984 1.386 . S
C6985 C6989 1.393 . S
C6986 H6978 0.950 . S
C6986 C6984 1.391 . S
C6986 C6987 1.400 . S
C6987 C6986 1.400 . S
C6987 C6988 1.398 . S
C6987 C6993 1.491 . S
C6988 H6979 0.950 . S
C6988 C6987 1.398 . S
C6988 C6989 1.391 . S
C6989 H6977 0.950 . S
C6989 C6985 1.393 . S
C6989 C6988 1.391 . S
C6990 H6980 0.950 . S
C6990 C6991 1.386 . S
C6990 C6992 1.391 . S
C6991 C6990 1.386 . S
C6991 C6995 1.393 . S
C6992 H6981 0.950 . S
C6992 C6990 1.391 . S
C6992 C6993 1.400 . S
C6993 C6987 1.491 . S
C6993 C6992 1.400 . S
C6993 C6994 1.398 . S
C6994 H6982 0.950 . S
C6994 C6993 1.398 . S
C6994 C6995 1.391 . S
C6995 H6983 0.950 . S
C6995 C6991 1.393 . S
C6995 C6994 1.391 . S
H6996 C7004 0.950 . S
H6997 C7009 0.950 . S
H6998 C7006 0.950 . S
H6999 C7008 0.950 . S
H7000 C7010 0.950 . S
H7001 C7012 0.950 . S
H7002 C7014 0.950 . S
H7003 C7015 0.950 . S
C7004 H6996 0.950 . S
C7004 C7005 1.386 . S
C7004 C7006 1.391 . S
C7005 C7004 1.386 . S
C7005 C7009 1.393 . S
C7006 H6998 0.950 . S
C7006 C7004 1.391 . S
C7006 C7007 1.400 . S
C7007 C7006 1.400 . S
C7007 C7008 1.398 . S
C7007 C7013 1.491 . S
C7008 H6999 0.950 . S
C7008 C7007 1.398 . S
C7008 C7009 1.391 . S
C7009 H6997 0.950 . S
C7009 C7005 1.393 . S
C7009 C7008 1.391 . S
C7010 H7000 0.950 . S
C7010 C7011 1.386 . S
C7010 C7012 1.391 . S
C7011 C7010 1.386 . S
C7011 C7015 1.393 . S
C7012 H7001 0.950 . S
C7012 C7010 1.391 . S
C7012 C7013 1.400 . S
C7013 C7007 1.491 . S
C7013 C7012 1.400 . S
C7013 C7014 1.398 . S
C7014 H7002 0.950 . S
C7014 C7013 1.398 . S
C7014 C7015 1.391 . S
C7015 H7003 0.950 . S
C7015 C7011 1.393 . S
C7015 C7014 1.391 . S
H7016 C7024 0.950 . S
H7017 C7029 0.950 . S
H7018 C7026 0.950 . S
H7019 C7028 0.950 . S
H7020 C7030 0.950 . S
H7021 C7032 0.950 . S
H7022 C7034 0.950 . S
H7023 C7035 0.950 . S
C7024 H7016 0.950 . S
C7024 C7025 1.386 . S
C7024 C7026 1.391 . S
C7025 C7024 1.386 . S
C7025 C7029 1.393 . S
C7026 H7018 0.950 . S
C7026 C7024 1.391 . S
C7026 C7027 1.400 . S
C7027 C7026 1.400 . S
C7027 C7028 1.398 . S
C7027 C7033 1.491 . S
C7028 H7019 0.950 . S
C7028 C7027 1.398 . S
C7028 C7029 1.391 . S
C7029 H7017 0.950 . S
C7029 C7025 1.393 . S
C7029 C7028 1.391 . S
C7030 H7020 0.950 . S
C7030 C7031 1.386 . S
C7030 C7032 1.391 . S
C7031 C7030 1.386 . S
C7031 C7035 1.393 . S
C7032 H7021 0.950 . S
C7032 C7030 1.391 . S
C7032 C7033 1.400 . S
C7033 C7027 1.491 . S
C7033 C7032 1.400 . S
C7033 C7034 1.398 . S
C7034 H7022 0.950 . S
C7034 C7033 1.398 . S
C7034 C7035 1.391 . S
C7035 H7023 0.950 . S
C7035 C7031 1.393 . S
C7035 C7034 1.391 . S
H7036 C7044 0.950 . S
H7037 C7049 0.950 . S
H7038 C7046 0.950 . S
H7039 C7048 0.950 . S
H7040 C7050 0.950 . S
H7041 C7052 0.950 . S
H7042 C7054 0.950 . S
H7043 C7055 0.950 . S
C7044 H7036 0.950 . S
C7044 C7045 1.386 . S
C7044 C7046 1.391 . S
C7045 C7044 1.386 . S
C7045 C7049 1.393 . S
C7046 H7038 0.950 . S
C7046 C7044 1.391 . S
C7046 C7047 1.400 . S
C7047 C7046 1.400 . S
C7047 C7048 1.398 . S
C7047 C7053 1.491 . S
C7048 H7039 0.950 . S
C7048 C7047 1.398 . S
C7048 C7049 1.391 . S
C7049 H7037 0.950 . S
C7049 C7045 1.393 . S
C7049 C7048 1.391 . S
C7050 H7040 0.950 . S
C7050 C7051 1.386 . S
C7050 C7052 1.391 . S
C7051 C7050 1.386 . S
C7051 C7055 1.393 . S
C7052 H7041 0.950 . S
C7052 C7050 1.391 . S
C7052 C7053 1.400 . S
C7053 C7047 1.491 . S
C7053 C7052 1.400 . S
C7053 C7054 1.398 . S
C7054 H7042 0.950 . S
C7054 C7053 1.398 . S
C7054 C7055 1.391 . S
C7055 H7043 0.950 . S
C7055 C7051 1.393 . S
C7055 C7054 1.391 . S
H7056 C7064 0.950 . S
H7057 C7069 0.950 . S
H7058 C7066 0.950 . S
H7059 C7068 0.950 . S
H7060 C7070 0.950 . S
H7061 C7072 0.950 . S
H7062 C7074 0.950 . S
H7063 C7075 0.950 . S
C7064 H7056 0.950 . S
C7064 C7065 1.386 . S
C7064 C7066 1.391 . S
C7065 C7064 1.386 . S
C7065 C7069 1.393 . S
C7066 H7058 0.950 . S
C7066 C7064 1.391 . S
C7066 C7067 1.400 . S
C7067 C7066 1.400 . S
C7067 C7068 1.398 . S
C7067 C7073 1.491 . S
C7068 H7059 0.950 . S
C7068 C7067 1.398 . S
C7068 C7069 1.391 . S
C7069 H7057 0.950 . S
C7069 C7065 1.393 . S
C7069 C7068 1.391 . S
C7070 H7060 0.950 . S
C7070 C7071 1.386 . S
C7070 C7072 1.391 . S
C7071 C7070 1.386 . S
C7071 C7075 1.393 . S
C7072 H7061 0.950 . S
C7072 C7070 1.391 . S
C7072 C7073 1.400 . S
C7073 C7067 1.491 . S
C7073 C7072 1.400 . S
C7073 C7074 1.398 . S
C7074 H7062 0.950 . S
C7074 C7073 1.398 . S
C7074 C7075 1.391 . S
C7075 H7063 0.950 . S
C7075 C7071 1.393 . S
C7075 C7074 1.391 . S
H7076 C7084 0.950 . S
H7077 C7089 0.950 . S
H7078 C7086 0.950 . S
H7079 C7088 0.950 . S
H7080 C7090 0.950 . S
H7081 C7092 0.950 . S
H7082 C7094 0.950 . S
H7083 C7095 0.950 . S
C7084 H7076 0.950 . S
C7084 C7085 1.386 . S
C7084 C7086 1.391 . S
C7085 C7084 1.386 . S
C7085 C7089 1.393 . S
C7086 H7078 0.950 . S
C7086 C7084 1.391 . S
C7086 C7087 1.400 . S
C7087 C7086 1.400 . S
C7087 C7088 1.398 . S
C7087 C7093 1.491 . S
C7088 H7079 0.950 . S
C7088 C7087 1.398 . S
C7088 C7089 1.391 . S
C7089 H7077 0.950 . S
C7089 C7085 1.393 . S
C7089 C7088 1.391 . S
C7090 H7080 0.950 . S
C7090 C7091 1.386 . S
C7090 C7092 1.391 . S
C7091 C7090 1.386 . S
C7091 C7095 1.393 . S
C7092 H7081 0.950 . S
C7092 C7090 1.391 . S
C7092 C7093 1.400 . S
C7093 C7087 1.491 . S
C7093 C7092 1.400 . S
C7093 C7094 1.398 . S
C7094 H7082 0.950 . S
C7094 C7093 1.398 . S
C7094 C7095 1.391 . S
C7095 H7083 0.950 . S
C7095 C7091 1.393 . S
C7095 C7094 1.391 . S
H7096 C7104 0.950 . S
H7097 C7109 0.950 . S
H7098 C7106 0.950 . S
H7099 C7108 0.950 . S
H7100 C7110 0.950 . S
H7101 C7112 0.950 . S
H7102 C7114 0.950 . S
H7103 C7115 0.950 . S
C7104 H7096 0.950 . S
C7104 C7105 1.386 . S
C7104 C7106 1.391 . S
C7105 C7104 1.386 . S
C7105 C7109 1.393 . S
C7106 H7098 0.950 . S
C7106 C7104 1.391 . S
C7106 C7107 1.400 . S
C7107 C7106 1.400 . S
C7107 C7108 1.398 . S
C7107 C7113 1.491 . S
C7108 H7099 0.950 . S
C7108 C7107 1.398 . S
C7108 C7109 1.391 . S
C7109 H7097 0.950 . S
C7109 C7105 1.393 . S
C7109 C7108 1.391 . S
C7110 H7100 0.950 . S
C7110 C7111 1.386 . S
C7110 C7112 1.391 . S
C7111 C7110 1.386 . S
C7111 C7115 1.393 . S
C7112 H7101 0.950 . S
C7112 C7110 1.391 . S
C7112 C7113 1.400 . S
C7113 C7107 1.491 . S
C7113 C7112 1.400 . S
C7113 C7114 1.398 . S
C7114 H7102 0.950 . S
C7114 C7113 1.398 . S
C7114 C7115 1.391 . S
C7115 H7103 0.950 . S
C7115 C7111 1.393 . S
C7115 C7114 1.391 . S
H7116 C7124 0.950 . S
H7117 C7129 0.950 . S
H7118 C7126 0.950 . S
H7119 C7128 0.950 . S
H7120 C7130 0.950 . S
H7121 C7132 0.950 . S
H7122 C7134 0.950 . S
H7123 C7135 0.950 . S
C7124 H7116 0.950 . S
C7124 C7125 1.386 . S
C7124 C7126 1.391 . S
C7125 C7124 1.386 . S
C7125 C7129 1.393 . S
C7126 H7118 0.950 . S
C7126 C7124 1.391 . S
C7126 C7127 1.400 . S
C7127 C7126 1.400 . S
C7127 C7128 1.398 . S
C7127 C7133 1.491 . S
C7128 H7119 0.950 . S
C7128 C7127 1.398 . S
C7128 C7129 1.391 . S
C7129 H7117 0.950 . S
C7129 C7125 1.393 . S
C7129 C7128 1.391 . S
C7130 H7120 0.950 . S
C7130 C7131 1.386 . S
C7130 C7132 1.391 . S
C7131 C7130 1.386 . S
C7131 C7135 1.393 . S
C7132 H7121 0.950 . S
C7132 C7130 1.391 . S
C7132 C7133 1.400 . S
C7133 C7127 1.491 . S
C7133 C7132 1.400 . S
C7133 C7134 1.398 . S
C7134 H7122 0.950 . S
C7134 C7133 1.398 . S
C7134 C7135 1.391 . S
C7135 H7123 0.950 . S
C7135 C7131 1.393 . S
C7135 C7134 1.391 . S
H7136 C7144 0.950 . S
H7137 C7149 0.950 . S
H7138 C7146 0.950 . S
H7139 C7148 0.950 . S
H7140 C7150 0.950 . S
H7141 C7152 0.950 . S
H7142 C7154 0.950 . S
H7143 C7155 0.950 . S
C7144 H7136 0.950 . S
C7144 C7145 1.386 . S
C7144 C7146 1.391 . S
C7145 C7144 1.386 . S
C7145 C7149 1.393 . S
C7146 H7138 0.950 . S
C7146 C7144 1.391 . S
C7146 C7147 1.400 . S
C7147 C7146 1.400 . S
C7147 C7148 1.398 . S
C7147 C7153 1.491 . S
C7148 H7139 0.950 . S
C7148 C7147 1.398 . S
C7148 C7149 1.391 . S
C7149 H7137 0.950 . S
C7149 C7145 1.393 . S
C7149 C7148 1.391 . S
C7150 H7140 0.950 . S
C7150 C7151 1.386 . S
C7150 C7152 1.391 . S
C7151 C7150 1.386 . S
C7151 C7155 1.393 . S
C7152 H7141 0.950 . S
C7152 C7150 1.391 . S
C7152 C7153 1.400 . S
C7153 C7147 1.491 . S
C7153 C7152 1.400 . S
C7153 C7154 1.398 . S
C7154 H7142 0.950 . S
C7154 C7153 1.398 . S
C7154 C7155 1.391 . S
C7155 H7143 0.950 . S
C7155 C7151 1.393 . S
C7155 C7154 1.391 . S
H7156 C7164 0.950 . S
H7157 C7169 0.950 . S
H7158 C7166 0.950 . S
H7159 C7168 0.950 . S
H7160 C7170 0.950 . S
H7161 C7172 0.950 . S
H7162 C7174 0.950 . S
H7163 C7175 0.950 . S
C7164 H7156 0.950 . S
C7164 C7165 1.386 . S
C7164 C7166 1.391 . S
C7165 C7164 1.386 . S
C7165 C7169 1.393 . S
C7166 H7158 0.950 . S
C7166 C7164 1.391 . S
C7166 C7167 1.400 . S
C7167 C7166 1.400 . S
C7167 C7168 1.398 . S
C7167 C7173 1.491 . S
C7168 H7159 0.950 . S
C7168 C7167 1.398 . S
C7168 C7169 1.391 . S
C7169 H7157 0.950 . S
C7169 C7165 1.393 . S
C7169 C7168 1.391 . S
C7170 H7160 0.950 . S
C7170 C7171 1.386 . S
C7170 C7172 1.391 . S
C7171 C7170 1.386 . S
C7171 C7175 1.393 . S
C7172 H7161 0.950 . S
C7172 C7170 1.391 . S
C7172 C7173 1.400 . S
C7173 C7167 1.491 . S
C7173 C7172 1.400 . S
C7173 C7174 1.398 . S
C7174 H7162 0.950 . S
C7174 C7173 1.398 . S
C7174 C7175 1.391 . S
C7175 H7163 0.950 . S
C7175 C7171 1.393 . S
C7175 C7174 1.391 . S
H7176 C7184 0.950 . S
H7177 C7189 0.950 . S
H7178 C7186 0.950 . S
H7179 C7188 0.950 . S
H7180 C7190 0.950 . S
H7181 C7192 0.950 . S
H7182 C7194 0.950 . S
H7183 C7195 0.950 . S
C7184 H7176 0.950 . S
C7184 C7185 1.386 . S
C7184 C7186 1.391 . S
C7185 C7184 1.386 . S
C7185 C7189 1.393 . S
C7186 H7178 0.950 . S
C7186 C7184 1.391 . S
C7186 C7187 1.400 . S
C7187 C7186 1.400 . S
C7187 C7188 1.398 . S
C7187 C7193 1.491 . S
C7188 H7179 0.950 . S
C7188 C7187 1.398 . S
C7188 C7189 1.391 . S
C7189 H7177 0.950 . S
C7189 C7185 1.393 . S
C7189 C7188 1.391 . S
C7190 H7180 0.950 . S
C7190 C7191 1.386 . S
C7190 C7192 1.391 . S
C7191 C7190 1.386 . S
C7191 C7195 1.393 . S
C7192 H7181 0.950 . S
C7192 C7190 1.391 . S
C7192 C7193 1.400 . S
C7193 C7187 1.491 . S
C7193 C7192 1.400 . S
C7193 C7194 1.398 . S
C7194 H7182 0.950 . S
C7194 C7193 1.398 . S
C7194 C7195 1.391 . S
C7195 H7183 0.950 . S
C7195 C7191 1.393 . S
C7195 C7194 1.391 . S
H7196 C7204 0.950 . S
H7197 C7209 0.950 . S
H7198 C7206 0.950 . S
H7199 C7208 0.950 . S
H7200 C7210 0.950 . S
H7201 C7212 0.950 . S
H7202 C7214 0.950 . S
H7203 C7215 0.950 . S
C7204 H7196 0.950 . S
C7204 C7205 1.386 . S
C7204 C7206 1.391 . S
C7205 C7204 1.386 . S
C7205 C7209 1.393 . S
C7206 H7198 0.950 . S
C7206 C7204 1.391 . S
C7206 C7207 1.400 . S
C7207 C7206 1.400 . S
C7207 C7208 1.398 . S
C7207 C7213 1.491 . S
C7208 H7199 0.950 . S
C7208 C7207 1.398 . S
C7208 C7209 1.391 . S
C7209 H7197 0.950 . S
C7209 C7205 1.393 . S
C7209 C7208 1.391 . S
C7210 H7200 0.950 . S
C7210 C7211 1.386 . S
C7210 C7212 1.391 . S
C7211 C7210 1.386 . S
C7211 C7215 1.393 . S
C7212 H7201 0.950 . S
C7212 C7210 1.391 . S
C7212 C7213 1.400 . S
C7213 C7207 1.491 . S
C7213 C7212 1.400 . S
C7213 C7214 1.398 . S
C7214 H7202 0.950 . S
C7214 C7213 1.398 . S
C7214 C7215 1.391 . S
C7215 H7203 0.950 . S
C7215 C7211 1.393 . S
C7215 C7214 1.391 . S
H7216 C7224 0.950 . S
H7217 C7229 0.950 . S
H7218 C7226 0.950 . S
H7219 C7228 0.950 . S
H7220 C7230 0.950 . S
H7221 C7232 0.950 . S
H7222 C7234 0.950 . S
H7223 C7235 0.950 . S
C7224 H7216 0.950 . S
C7224 C7225 1.386 . S
C7224 C7226 1.391 . S
C7225 C7224 1.386 . S
C7225 C7229 1.393 . S
C7226 H7218 0.950 . S
C7226 C7224 1.391 . S
C7226 C7227 1.400 . S
C7227 C7226 1.400 . S
C7227 C7228 1.398 . S
C7227 C7233 1.491 . S
C7228 H7219 0.950 . S
C7228 C7227 1.398 . S
C7228 C7229 1.391 . S
C7229 H7217 0.950 . S
C7229 C7225 1.393 . S
C7229 C7228 1.391 . S
C7230 H7220 0.950 . S
C7230 C7231 1.386 . S
C7230 C7232 1.391 . S
C7231 C7230 1.386 . S
C7231 C7235 1.393 . S
C7232 H7221 0.950 . S
C7232 C7230 1.391 . S
C7232 C7233 1.400 . S
C7233 C7227 1.491 . S
C7233 C7232 1.400 . S
C7233 C7234 1.398 . S
C7234 H7222 0.950 . S
C7234 C7233 1.398 . S
C7234 C7235 1.391 . S
C7235 H7223 0.950 . S
C7235 C7231 1.393 . S
C7235 C7234 1.391 . S
H7236 C7244 0.950 . S
H7237 C7249 0.950 . S
H7238 C7246 0.950 . S
H7239 C7248 0.950 . S
H7240 C7250 0.950 . S
H7241 C7252 0.950 . S
H7242 C7254 0.950 . S
H7243 C7255 0.950 . S
C7244 H7236 0.950 . S
C7244 C7245 1.386 . S
C7244 C7246 1.391 . S
C7245 C7244 1.386 . S
C7245 C7249 1.393 . S
C7246 H7238 0.950 . S
C7246 C7244 1.391 . S
C7246 C7247 1.400 . S
C7247 C7246 1.400 . S
C7247 C7248 1.398 . S
C7247 C7253 1.491 . S
C7248 H7239 0.950 . S
C7248 C7247 1.398 . S
C7248 C7249 1.391 . S
C7249 H7237 0.950 . S
C7249 C7245 1.393 . S
C7249 C7248 1.391 . S
C7250 H7240 0.950 . S
C7250 C7251 1.386 . S
C7250 C7252 1.391 . S
C7251 C7250 1.386 . S
C7251 C7255 1.393 . S
C7252 H7241 0.950 . S
C7252 C7250 1.391 . S
C7252 C7253 1.400 . S
C7253 C7247 1.491 . S
C7253 C7252 1.400 . S
C7253 C7254 1.398 . S
C7254 H7242 0.950 . S
C7254 C7253 1.398 . S
C7254 C7255 1.391 . S
C7255 H7243 0.950 . S
C7255 C7251 1.393 . S
C7255 C7254 1.391 . S
H7256 C7264 0.950 . S
H7257 C7269 0.950 . S
H7258 C7266 0.950 . S
H7259 C7268 0.950 . S
H7260 C7270 0.950 . S
H7261 C7272 0.950 . S
H7262 C7274 0.950 . S
H7263 C7275 0.950 . S
C7264 H7256 0.950 . S
C7264 C7265 1.386 . S
C7264 C7266 1.391 . S
C7265 C7264 1.386 . S
C7265 C7269 1.393 . S
C7266 H7258 0.950 . S
C7266 C7264 1.391 . S
C7266 C7267 1.400 . S
C7267 C7266 1.400 . S
C7267 C7268 1.398 . S
C7267 C7273 1.491 . S
C7268 H7259 0.950 . S
C7268 C7267 1.398 . S
C7268 C7269 1.391 . S
C7269 H7257 0.950 . S
C7269 C7265 1.393 . S
C7269 C7268 1.391 . S
C7270 H7260 0.950 . S
C7270 C7271 1.386 . S
C7270 C7272 1.391 . S
C7271 C7270 1.386 . S
C7271 C7275 1.393 . S
C7272 H7261 0.950 . S
C7272 C7270 1.391 . S
C7272 C7273 1.400 . S
C7273 C7267 1.491 . S
C7273 C7272 1.400 . S
C7273 C7274 1.398 . S
C7274 H7262 0.950 . S
C7274 C7273 1.398 . S
C7274 C7275 1.391 . S
C7275 H7263 0.950 . S
C7275 C7271 1.393 . S
C7275 C7274 1.391 . S
H7276 C7284 0.950 . S
H7277 C7289 0.950 . S
H7278 C7286 0.950 . S
H7279 C7288 0.950 . S
H7280 C7290 0.950 . S
H7281 C7292 0.950 . S
H7282 C7294 0.950 . S
H7283 C7295 0.950 . S
C7284 H7276 0.950 . S
C7284 C7285 1.386 . S
C7284 C7286 1.391 . S
C7285 C7284 1.386 . S
C7285 C7289 1.393 . S
C7286 H7278 0.950 . S
C7286 C7284 1.391 . S
C7286 C7287 1.400 . S
C7287 C7286 1.400 . S
C7287 C7288 1.398 . S
C7287 C7293 1.491 . S
C7288 H7279 0.950 . S
C7288 C7287 1.398 . S
C7288 C7289 1.391 . S
C7289 H7277 0.950 . S
C7289 C7285 1.393 . S
C7289 C7288 1.391 . S
C7290 H7280 0.950 . S
C7290 C7291 1.386 . S
C7290 C7292 1.391 . S
C7291 C7290 1.386 . S
C7291 C7295 1.393 . S
C7292 H7281 0.950 . S
C7292 C7290 1.391 . S
C7292 C7293 1.400 . S
C7293 C7287 1.491 . S
C7293 C7292 1.400 . S
C7293 C7294 1.398 . S
C7294 H7282 0.950 . S
C7294 C7293 1.398 . S
C7294 C7295 1.391 . S
C7295 H7283 0.950 . S
C7295 C7291 1.393 . S
C7295 C7294 1.391 . S
H7296 C7304 0.950 . S
H7297 C7309 0.950 . S
H7298 C7306 0.950 . S
H7299 C7308 0.950 . S
H7300 C7310 0.950 . S
H7301 C7312 0.950 . S
H7302 C7314 0.950 . S
H7303 C7315 0.950 . S
C7304 H7296 0.950 . S
C7304 C7305 1.386 . S
C7304 C7306 1.391 . S
C7305 C7304 1.386 . S
C7305 C7309 1.393 . S
C7306 H7298 0.950 . S
C7306 C7304 1.391 . S
C7306 C7307 1.400 . S
C7307 C7306 1.400 . S
C7307 C7308 1.398 . S
C7307 C7313 1.491 . S
C7308 H7299 0.950 . S
C7308 C7307 1.398 . S
C7308 C7309 1.391 . S
C7309 H7297 0.950 . S
C7309 C7305 1.393 . S
C7309 C7308 1.391 . S
C7310 H7300 0.950 . S
C7310 C7311 1.386 . S
C7310 C7312 1.391 . S
C7311 C7310 1.386 . S
C7311 C7315 1.393 . S
C7312 H7301 0.950 . S
C7312 C7310 1.391 . S
C7312 C7313 1.400 . S
C7313 C7307 1.491 . S
C7313 C7312 1.400 . S
C7313 C7314 1.398 . S
C7314 H7302 0.950 . S
C7314 C7313 1.398 . S
C7314 C7315 1.391 . S
C7315 H7303 0.950 . S
C7315 C7311 1.393 . S
C7315 C7314 1.391 . S
H7316 C7324 0.950 . S
H7317 C7329 0.950 . S
H7318 C7326 0.950 . S
H7319 C7328 0.950 . S
H7320 C7330 0.950 . S
H7321 C7332 0.950 . S
H7322 C7334 0.950 . S
H7323 C7335 0.950 . S
C7324 H7316 0.950 . S
C7324 C7325 1.386 . S
C7324 C7326 1.391 . S
C7325 C7324 1.386 . S
C7325 C7329 1.393 . S
C7326 H7318 0.950 . S
C7326 C7324 1.391 . S
C7326 C7327 1.400 . S
C7327 C7326 1.400 . S
C7327 C7328 1.398 . S
C7327 C7333 1.491 . S
C7328 H7319 0.950 . S
C7328 C7327 1.398 . S
C7328 C7329 1.391 . S
C7329 H7317 0.950 . S
C7329 C7325 1.393 . S
C7329 C7328 1.391 . S
C7330 H7320 0.950 . S
C7330 C7331 1.386 . S
C7330 C7332 1.391 . S
C7331 C7330 1.386 . S
C7331 C7335 1.393 . S
C7332 H7321 0.950 . S
C7332 C7330 1.391 . S
C7332 C7333 1.400 . S
C7333 C7327 1.491 . S
C7333 C7332 1.400 . S
C7333 C7334 1.398 . S
C7334 H7322 0.950 . S
C7334 C7333 1.398 . S
C7334 C7335 1.391 . S
C7335 H7323 0.950 . S
C7335 C7331 1.393 . S
C7335 C7334 1.391 . S
H7336 C7344 0.950 . S
H7337 C7349 0.950 . S
H7338 C7346 0.950 . S
H7339 C7348 0.950 . S
H7340 C7350 0.950 . S
H7341 C7352 0.950 . S
H7342 C7354 0.950 . S
H7343 C7355 0.950 . S
C7344 H7336 0.950 . S
C7344 C7345 1.386 . S
C7344 C7346 1.391 . S
C7345 C7344 1.386 . S
C7345 C7349 1.393 . S
C7346 H7338 0.950 . S
C7346 C7344 1.391 . S
C7346 C7347 1.400 . S
C7347 C7346 1.400 . S
C7347 C7348 1.398 . S
C7347 C7353 1.491 . S
C7348 H7339 0.950 . S
C7348 C7347 1.398 . S
C7348 C7349 1.391 . S
C7349 H7337 0.950 . S
C7349 C7345 1.393 . S
C7349 C7348 1.391 . S
C7350 H7340 0.950 . S
C7350 C7351 1.386 . S
C7350 C7352 1.391 . S
C7351 C7350 1.386 . S
C7351 C7355 1.393 . S
C7352 H7341 0.950 . S
C7352 C7350 1.391 . S
C7352 C7353 1.400 . S
C7353 C7347 1.491 . S
C7353 C7352 1.400 . S
C7353 C7354 1.398 . S
C7354 H7342 0.950 . S
C7354 C7353 1.398 . S
C7354 C7355 1.391 . S
C7355 H7343 0.950 . S
C7355 C7351 1.393 . S
C7355 C7354 1.391 . S
H7356 C7364 0.950 . S
H7357 C7369 0.950 . S
H7358 C7366 0.950 . S
H7359 C7368 0.950 . S
H7360 C7370 0.950 . S
H7361 C7372 0.950 . S
H7362 C7374 0.950 . S
H7363 C7375 0.950 . S
C7364 H7356 0.950 . S
C7364 C7365 1.386 . S
C7364 C7366 1.391 . S
C7365 C7364 1.386 . S
C7365 C7369 1.393 . S
C7366 H7358 0.950 . S
C7366 C7364 1.391 . S
C7366 C7367 1.400 . S
C7367 C7366 1.400 . S
C7367 C7368 1.398 . S
C7367 C7373 1.491 . S
C7368 H7359 0.950 . S
C7368 C7367 1.398 . S
C7368 C7369 1.391 . S
C7369 H7357 0.950 . S
C7369 C7365 1.393 . S
C7369 C7368 1.391 . S
C7370 H7360 0.950 . S
C7370 C7371 1.386 . S
C7370 C7372 1.391 . S
C7371 C7370 1.386 . S
C7371 C7375 1.393 . S
C7372 H7361 0.950 . S
C7372 C7370 1.391 . S
C7372 C7373 1.400 . S
C7373 C7367 1.491 . S
C7373 C7372 1.400 . S
C7373 C7374 1.398 . S
C7374 H7362 0.950 . S
C7374 C7373 1.398 . S
C7374 C7375 1.391 . S
C7375 H7363 0.950 . S
C7375 C7371 1.393 . S
C7375 C7374 1.391 . S
H7376 C7384 0.950 . S
H7377 C7389 0.950 . S
H7378 C7386 0.950 . S
H7379 C7388 0.950 . S
H7380 C7390 0.950 . S
H7381 C7392 0.950 . S
H7382 C7394 0.950 . S
H7383 C7395 0.950 . S
C7384 H7376 0.950 . S
C7384 C7385 1.386 . S
C7384 C7386 1.391 . S
C7385 C7384 1.386 . S
C7385 C7389 1.393 . S
C7386 H7378 0.950 . S
C7386 C7384 1.391 . S
C7386 C7387 1.400 . S
C7387 C7386 1.400 . S
C7387 C7388 1.398 . S
C7387 C7393 1.491 . S
C7388 H7379 0.950 . S
C7388 C7387 1.398 . S
C7388 C7389 1.391 . S
C7389 H7377 0.950 . S
C7389 C7385 1.393 . S
C7389 C7388 1.391 . S
C7390 H7380 0.950 . S
C7390 C7391 1.386 . S
C7390 C7392 1.391 . S
C7391 C7390 1.386 . S
C7391 C7395 1.393 . S
C7392 H7381 0.950 . S
C7392 C7390 1.391 . S
C7392 C7393 1.400 . S
C7393 C7387 1.491 . S
C7393 C7392 1.400 . S
C7393 C7394 1.398 . S
C7394 H7382 0.950 . S
C7394 C7393 1.398 . S
C7394 C7395 1.391 . S
C7395 H7383 0.950 . S
C7395 C7391 1.393 . S
C7395 C7394 1.391 . S
H7396 C7404 0.950 . S
H7397 C7409 0.950 . S
H7398 C7406 0.950 . S
H7399 C7408 0.950 . S
H7400 C7410 0.950 . S
H7401 C7412 0.950 . S
H7402 C7414 0.950 . S
H7403 C7415 0.950 . S
C7404 H7396 0.950 . S
C7404 C7405 1.386 . S
C7404 C7406 1.391 . S
C7405 C7404 1.386 . S
C7405 C7409 1.393 . S
C7406 H7398 0.950 . S
C7406 C7404 1.391 . S
C7406 C7407 1.400 . S
C7407 C7406 1.400 . S
C7407 C7408 1.398 . S
C7407 C7413 1.491 . S
C7408 H7399 0.950 . S
C7408 C7407 1.398 . S
C7408 C7409 1.391 . S
C7409 H7397 0.950 . S
C7409 C7405 1.393 . S
C7409 C7408 1.391 . S
C7410 H7400 0.950 . S
C7410 C7411 1.386 . S
C7410 C7412 1.391 . S
C7411 C7410 1.386 . S
C7411 C7415 1.393 . S
C7412 H7401 0.950 . S
C7412 C7410 1.391 . S
C7412 C7413 1.400 . S
C7413 C7407 1.491 . S
C7413 C7412 1.400 . S
C7413 C7414 1.398 . S
C7414 H7402 0.950 . S
C7414 C7413 1.398 . S
C7414 C7415 1.391 . S
C7415 H7403 0.950 . S
C7415 C7411 1.393 . S
C7415 C7414 1.391 . S
H7416 C7424 0.950 . S
H7417 C7429 0.950 . S
H7418 C7426 0.950 . S
H7419 C7428 0.950 . S
H7420 C7430 0.950 . S
H7421 C7432 0.950 . S
H7422 C7434 0.950 . S
H7423 C7435 0.950 . S
C7424 H7416 0.950 . S
C7424 C7425 1.386 . S
C7424 C7426 1.391 . S
C7425 C7424 1.386 . S
C7425 C7429 1.393 . S
C7426 H7418 0.950 . S
C7426 C7424 1.391 . S
C7426 C7427 1.400 . S
C7427 C7426 1.400 . S
C7427 C7428 1.398 . S
C7427 C7433 1.491 . S
C7428 H7419 0.950 . S
C7428 C7427 1.398 . S
C7428 C7429 1.391 . S
C7429 H7417 0.950 . S
C7429 C7425 1.393 . S
C7429 C7428 1.391 . S
C7430 H7420 0.950 . S
C7430 C7431 1.386 . S
C7430 C7432 1.391 . S
C7431 C7430 1.386 . S
C7431 C7435 1.393 . S
C7432 H7421 0.950 . S
C7432 C7430 1.391 . S
C7432 C7433 1.400 . S
C7433 C7427 1.491 . S
C7433 C7432 1.400 . S
C7433 C7434 1.398 . S
C7434 H7422 0.950 . S
C7434 C7433 1.398 . S
C7434 C7435 1.391 . S
C7435 H7423 0.950 . S
C7435 C7431 1.393 . S
C7435 C7434 1.391 . S
H7436 C7444 0.950 . S
H7437 C7449 0.950 . S
H7438 C7446 0.950 . S
H7439 C7448 0.950 . S
H7440 C7450 0.950 . S
H7441 C7452 0.950 . S
H7442 C7454 0.950 . S
H7443 C7455 0.950 . S
C7444 H7436 0.950 . S
C7444 C7445 1.386 . S
C7444 C7446 1.391 . S
C7445 C7444 1.386 . S
C7445 C7449 1.393 . S
C7446 H7438 0.950 . S
C7446 C7444 1.391 . S
C7446 C7447 1.400 . S
C7447 C7446 1.400 . S
C7447 C7448 1.398 . S
C7447 C7453 1.491 . S
C7448 H7439 0.950 . S
C7448 C7447 1.398 . S
C7448 C7449 1.391 . S
C7449 H7437 0.950 . S
C7449 C7445 1.393 . S
C7449 C7448 1.391 . S
C7450 H7440 0.950 . S
C7450 C7451 1.386 . S
C7450 C7452 1.391 . S
C7451 C7450 1.386 . S
C7451 C7455 1.393 . S
C7452 H7441 0.950 . S
C7452 C7450 1.391 . S
C7452 C7453 1.400 . S
C7453 C7447 1.491 . S
C7453 C7452 1.400 . S
C7453 C7454 1.398 . S
C7454 H7442 0.950 . S
C7454 C7453 1.398 . S
C7454 C7455 1.391 . S
C7455 H7443 0.950 . S
C7455 C7451 1.393 . S
C7455 C7454 1.391 . S
H7456 C7464 0.950 . S
H7457 C7469 0.950 . S
H7458 C7466 0.950 . S
H7459 C7468 0.950 . S
H7460 C7470 0.950 . S
H7461 C7472 0.950 . S
H7462 C7474 0.950 . S
H7463 C7475 0.950 . S
C7464 H7456 0.950 . S
C7464 C7465 1.386 . S
C7464 C7466 1.391 . S
C7465 C7464 1.386 . S
C7465 C7469 1.393 . S
C7466 H7458 0.950 . S
C7466 C7464 1.391 . S
C7466 C7467 1.400 . S
C7467 C7466 1.400 . S
C7467 C7468 1.398 . S
C7467 C7473 1.491 . S
C7468 H7459 0.950 . S
C7468 C7467 1.398 . S
C7468 C7469 1.391 . S
C7469 H7457 0.950 . S
C7469 C7465 1.393 . S
C7469 C7468 1.391 . S
C7470 H7460 0.950 . S
C7470 C7471 1.386 . S
C7470 C7472 1.391 . S
C7471 C7470 1.386 . S
C7471 C7475 1.393 . S
C7472 H7461 0.950 . S
C7472 C7470 1.391 . S
C7472 C7473 1.400 . S
C7473 C7467 1.491 . S
C7473 C7472 1.400 . S
C7473 C7474 1.398 . S
C7474 H7462 0.950 . S
C7474 C7473 1.398 . S
C7474 C7475 1.391 . S
C7475 H7463 0.950 . S
C7475 C7471 1.393 . S
C7475 C7474 1.391 . S
H7476 C7484 0.950 . S
H7477 C7489 0.950 . S
H7478 C7486 0.950 . S
H7479 C7488 0.950 . S
H7480 C7490 0.950 . S
H7481 C7492 0.950 . S
H7482 C7494 0.950 . S
H7483 C7495 0.950 . S
C7484 H7476 0.950 . S
C7484 C7485 1.386 . S
C7484 C7486 1.391 . S
C7485 C7484 1.386 . S
C7485 C7489 1.393 . S
C7486 H7478 0.950 . S
C7486 C7484 1.391 . S
C7486 C7487 1.400 . S
C7487 C7486 1.400 . S
C7487 C7488 1.398 . S
C7487 C7493 1.491 . S
C7488 H7479 0.950 . S
C7488 C7487 1.398 . S
C7488 C7489 1.391 . S
C7489 H7477 0.950 . S
C7489 C7485 1.393 . S
C7489 C7488 1.391 . S
C7490 H7480 0.950 . S
C7490 C7491 1.386 . S
C7490 C7492 1.391 . S
C7491 C7490 1.386 . S
C7491 C7495 1.393 . S
C7492 H7481 0.950 . S
C7492 C7490 1.391 . S
C7492 C7493 1.400 . S
C7493 C7487 1.491 . S
C7493 C7492 1.400 . S
C7493 C7494 1.398 . S
C7494 H7482 0.950 . S
C7494 C7493 1.398 . S
C7494 C7495 1.391 . S
C7495 H7483 0.950 . S
C7495 C7491 1.393 . S
C7495 C7494 1.391 . S
H7496 C7504 0.950 . S
H7497 C7509 0.950 . S
H7498 C7506 0.950 . S
H7499 C7508 0.950 . S
H7500 C7510 0.950 . S
H7501 C7512 0.950 . S
H7502 C7514 0.950 . S
H7503 C7515 0.950 . S
C7504 H7496 0.950 . S
C7504 C7505 1.386 . S
C7504 C7506 1.391 . S
C7505 C7504 1.386 . S
C7505 C7509 1.393 . S
C7506 H7498 0.950 . S
C7506 C7504 1.391 . S
C7506 C7507 1.400 . S
C7507 C7506 1.400 . S
C7507 C7508 1.398 . S
C7507 C7513 1.491 . S
C7508 H7499 0.950 . S
C7508 C7507 1.398 . S
C7508 C7509 1.391 . S
C7509 H7497 0.950 . S
C7509 C7505 1.393 . S
C7509 C7508 1.391 . S
C7510 H7500 0.950 . S
C7510 C7511 1.386 . S
C7510 C7512 1.391 . S
C7511 C7510 1.386 . S
C7511 C7515 1.393 . S
C7512 H7501 0.950 . S
C7512 C7510 1.391 . S
C7512 C7513 1.400 . S
C7513 C7507 1.491 . S
C7513 C7512 1.400 . S
C7513 C7514 1.398 . S
C7514 H7502 0.950 . S
C7514 C7513 1.398 . S
C7514 C7515 1.391 . S
C7515 H7503 0.950 . S
C7515 C7511 1.393 . S
C7515 C7514 1.391 . S
H7516 C7524 0.950 . S
H7517 C7529 0.950 . S
H7518 C7526 0.950 . S
H7519 C7528 0.950 . S
H7520 C7530 0.950 . S
H7521 C7532 0.950 . S
H7522 C7534 0.950 . S
H7523 C7535 0.950 . S
C7524 H7516 0.950 . S
C7524 C7525 1.386 . S
C7524 C7526 1.391 . S
C7525 C7524 1.386 . S
C7525 C7529 1.393 . S
C7526 H7518 0.950 . S
C7526 C7524 1.391 . S
C7526 C7527 1.400 . S
C7527 C7526 1.400 . S
C7527 C7528 1.398 . S
C7527 C7533 1.491 . S
C7528 H7519 0.950 . S
C7528 C7527 1.398 . S
C7528 C7529 1.391 . S
C7529 H7517 0.950 . S
C7529 C7525 1.393 . S
C7529 C7528 1.391 . S
C7530 H7520 0.950 . S
C7530 C7531 1.386 . S
C7530 C7532 1.391 . S
C7531 C7530 1.386 . S
C7531 C7535 1.393 . S
C7532 H7521 0.950 . S
C7532 C7530 1.391 . S
C7532 C7533 1.400 . S
C7533 C7527 1.491 . S
C7533 C7532 1.400 . S
C7533 C7534 1.398 . S
C7534 H7522 0.950 . S
C7534 C7533 1.398 . S
C7534 C7535 1.391 . S
C7535 H7523 0.950 . S
C7535 C7531 1.393 . S
C7535 C7534 1.391 . S
H7536 C7544 0.950 . S
H7537 C7549 0.950 . S
H7538 C7546 0.950 . S
H7539 C7548 0.950 . S
H7540 C7550 0.950 . S
H7541 C7552 0.950 . S
H7542 C7554 0.950 . S
H7543 C7555 0.950 . S
C7544 H7536 0.950 . S
C7544 C7545 1.386 . S
C7544 C7546 1.391 . S
C7545 C7544 1.386 . S
C7545 C7549 1.393 . S
C7546 H7538 0.950 . S
C7546 C7544 1.391 . S
C7546 C7547 1.400 . S
C7547 C7546 1.400 . S
C7547 C7548 1.398 . S
C7547 C7553 1.491 . S
C7548 H7539 0.950 . S
C7548 C7547 1.398 . S
C7548 C7549 1.391 . S
C7549 H7537 0.950 . S
C7549 C7545 1.393 . S
C7549 C7548 1.391 . S
C7550 H7540 0.950 . S
C7550 C7551 1.386 . S
C7550 C7552 1.391 . S
C7551 C7550 1.386 . S
C7551 C7555 1.393 . S
C7552 H7541 0.950 . S
C7552 C7550 1.391 . S
C7552 C7553 1.400 . S
C7553 C7547 1.491 . S
C7553 C7552 1.400 . S
C7553 C7554 1.398 . S
C7554 H7542 0.950 . S
C7554 C7553 1.398 . S
C7554 C7555 1.391 . S
C7555 H7543 0.950 . S
C7555 C7551 1.393 . S
C7555 C7554 1.391 . S
H7556 C7564 0.950 . S
H7557 C7569 0.950 . S
H7558 C7566 0.950 . S
H7559 C7568 0.950 . S
H7560 C7570 0.950 . S
H7561 C7572 0.950 . S
H7562 C7574 0.950 . S
H7563 C7575 0.950 . S
C7564 H7556 0.950 . S
C7564 C7565 1.386 . S
C7564 C7566 1.391 . S
C7565 C7564 1.386 . S
C7565 C7569 1.393 . S
C7566 H7558 0.950 . S
C7566 C7564 1.391 . S
C7566 C7567 1.400 . S
C7567 C7566 1.400 . S
C7567 C7568 1.398 . S
C7567 C7573 1.491 . S
C7568 H7559 0.950 . S
C7568 C7567 1.398 . S
C7568 C7569 1.391 . S
C7569 H7557 0.950 . S
C7569 C7565 1.393 . S
C7569 C7568 1.391 . S
C7570 H7560 0.950 . S
C7570 C7571 1.386 . S
C7570 C7572 1.391 . S
C7571 C7570 1.386 . S
C7571 C7575 1.393 . S
C7572 H7561 0.950 . S
C7572 C7570 1.391 . S
C7572 C7573 1.400 . S
C7573 C7567 1.491 . S
C7573 C7572 1.400 . S
C7573 C7574 1.398 . S
C7574 H7562 0.950 . S
C7574 C7573 1.398 . S
C7574 C7575 1.391 . S
C7575 H7563 0.950 . S
C7575 C7571 1.393 . S
C7575 C7574 1.391 . S
H7576 C7584 0.950 . S
H7577 C7589 0.950 . S
H7578 C7586 0.950 . S
H7579 C7588 0.950 . S
H7580 C7590 0.950 . S
H7581 C7592 0.950 . S
H7582 C7594 0.950 . S
H7583 C7595 0.950 . S
C7584 H7576 0.950 . S
C7584 C7585 1.386 . S
C7584 C7586 1.391 . S
C7585 C7584 1.386 . S
C7585 C7589 1.393 . S
C7586 H7578 0.950 . S
C7586 C7584 1.391 . S
C7586 C7587 1.400 . S
C7587 C7586 1.400 . S
C7587 C7588 1.398 . S
C7587 C7593 1.491 . S
C7588 H7579 0.950 . S
C7588 C7587 1.398 . S
C7588 C7589 1.391 . S
C7589 H7577 0.950 . S
C7589 C7585 1.393 . S
C7589 C7588 1.391 . S
C7590 H7580 0.950 . S
C7590 C7591 1.386 . S
C7590 C7592 1.391 . S
C7591 C7590 1.386 . S
C7591 C7595 1.393 . S
C7592 H7581 0.950 . S
C7592 C7590 1.391 . S
C7592 C7593 1.400 . S
C7593 C7587 1.491 . S
C7593 C7592 1.400 . S
C7593 C7594 1.398 . S
C7594 H7582 0.950 . S
C7594 C7593 1.398 . S
C7594 C7595 1.391 . S
C7595 H7583 0.950 . S
C7595 C7591 1.393 . S
C7595 C7594 1.391 . S
H7596 C7604 0.950 . S
H7597 C7609 0.950 . S
H7598 C7606 0.950 . S
H7599 C7608 0.950 . S
H7600 C7610 0.950 . S
H7601 C7612 0.950 . S
H7602 C7614 0.950 . S
H7603 C7615 0.950 . S
C7604 H7596 0.950 . S
C7604 C7605 1.386 . S
C7604 C7606 1.391 . S
C7605 C7604 1.386 . S
C7605 C7609 1.393 . S
C7606 H7598 0.950 . S
C7606 C7604 1.391 . S
C7606 C7607 1.400 . S
C7607 C7606 1.400 . S
C7607 C7608 1.398 . S
C7607 C7613 1.491 . S
C7608 H7599 0.950 . S
C7608 C7607 1.398 . S
C7608 C7609 1.391 . S
C7609 H7597 0.950 . S
C7609 C7605 1.393 . S
C7609 C7608 1.391 . S
C7610 H7600 0.950 . S
C7610 C7611 1.386 . S
C7610 C7612 1.391 . S
C7611 C7610 1.386 . S
C7611 C7615 1.393 . S
C7612 H7601 0.950 . S
C7612 C7610 1.391 . S
C7612 C7613 1.400 . S
C7613 C7607 1.491 . S
C7613 C7612 1.400 . S
C7613 C7614 1.398 . S
C7614 H7602 0.950 . S
C7614 C7613 1.398 . S
C7614 C7615 1.391 . S
C7615 H7603 0.950 . S
C7615 C7611 1.393 . S
C7615 C7614 1.391 . S
H7616 C7624 0.950 . S
H7617 C7629 0.950 . S
H7618 C7626 0.950 . S
H7619 C7628 0.950 . S
H7620 C7630 0.950 . S
H7621 C7632 0.950 . S
H7622 C7634 0.950 . S
H7623 C7635 0.950 . S
C7624 H7616 0.950 . S
C7624 C7625 1.386 . S
C7624 C7626 1.391 . S
C7625 C7624 1.386 . S
C7625 C7629 1.393 . S
C7626 H7618 0.950 . S
C7626 C7624 1.391 . S
C7626 C7627 1.400 . S
C7627 C7626 1.400 . S
C7627 C7628 1.398 . S
C7627 C7633 1.491 . S
C7628 H7619 0.950 . S
C7628 C7627 1.398 . S
C7628 C7629 1.391 . S
C7629 H7617 0.950 . S
C7629 C7625 1.393 . S
C7629 C7628 1.391 . S
C7630 H7620 0.950 . S
C7630 C7631 1.386 . S
C7630 C7632 1.391 . S
C7631 C7630 1.386 . S
C7631 C7635 1.393 . S
C7632 H7621 0.950 . S
C7632 C7630 1.391 . S
C7632 C7633 1.400 . S
C7633 C7627 1.491 . S
C7633 C7632 1.400 . S
C7633 C7634 1.398 . S
C7634 H7622 0.950 . S
C7634 C7633 1.398 . S
C7634 C7635 1.391 . S
C7635 H7623 0.950 . S
C7635 C7631 1.393 . S
C7635 C7634 1.391 . S
H7636 C7644 0.950 . S
H7637 C7649 0.950 . S
H7638 C7646 0.950 . S
H7639 C7648 0.950 . S
H7640 C7650 0.950 . S
H7641 C7652 0.950 . S
H7642 C7654 0.950 . S
H7643 C7655 0.950 . S
C7644 H7636 0.950 . S
C7644 C7645 1.386 . S
C7644 C7646 1.391 . S
C7645 C7644 1.386 . S
C7645 C7649 1.393 . S
C7646 H7638 0.950 . S
C7646 C7644 1.391 . S
C7646 C7647 1.400 . S
C7647 C7646 1.400 . S
C7647 C7648 1.398 . S
C7647 C7653 1.491 . S
C7648 H7639 0.950 . S
C7648 C7647 1.398 . S
C7648 C7649 1.391 . S
C7649 H7637 0.950 . S
C7649 C7645 1.393 . S
C7649 C7648 1.391 . S
C7650 H7640 0.950 . S
C7650 C7651 1.386 . S
C7650 C7652 1.391 . S
C7651 C7650 1.386 . S
C7651 C7655 1.393 . S
C7652 H7641 0.950 . S
C7652 C7650 1.391 . S
C7652 C7653 1.400 . S
C7653 C7647 1.491 . S
C7653 C7652 1.400 . S
C7653 C7654 1.398 . S
C7654 H7642 0.950 . S
C7654 C7653 1.398 . S
C7654 C7655 1.391 . S
C7655 H7643 0.950 . S
C7655 C7651 1.393 . S
C7655 C7654 1.391 . S
H7656 C7664 0.950 . S
H7657 C7669 0.950 . S
H7658 C7666 0.950 . S
H7659 C7668 0.950 . S
H7660 C7670 0.950 . S
H7661 C7672 0.950 . S
H7662 C7674 0.950 . S
H7663 C7675 0.950 . S
C7664 H7656 0.950 . S
C7664 C7665 1.386 . S
C7664 C7666 1.391 . S
C7665 C7664 1.386 . S
C7665 C7669 1.393 . S
C7666 H7658 0.950 . S
C7666 C7664 1.391 . S
C7666 C7667 1.400 . S
C7667 C7666 1.400 . S
C7667 C7668 1.398 . S
C7667 C7673 1.491 . S
C7668 H7659 0.950 . S
C7668 C7667 1.398 . S
C7668 C7669 1.391 . S
C7669 H7657 0.950 . S
C7669 C7665 1.393 . S
C7669 C7668 1.391 . S
C7670 H7660 0.950 . S
C7670 C7671 1.386 . S
C7670 C7672 1.391 . S
C7671 C7670 1.386 . S
C7671 C7675 1.393 . S
C7672 H7661 0.950 . S
C7672 C7670 1.391 . S
C7672 C7673 1.400 . S
C7673 C7667 1.491 . S
C7673 C7672 1.400 . S
C7673 C7674 1.398 . S
C7674 H7662 0.950 . S
C7674 C7673 1.398 . S
C7674 C7675 1.391 . S
C7675 H7663 0.950 . S
C7675 C7671 1.393 . S
C7675 C7674 1.391 . S
H7676 C7684 0.950 . S
H7677 C7689 0.950 . S
H7678 C7686 0.950 . S
H7679 C7688 0.950 . S
H7680 C7690 0.950 . S
H7681 C7692 0.950 . S
H7682 C7694 0.950 . S
H7683 C7695 0.950 . S
C7684 H7676 0.950 . S
C7684 C7685 1.386 . S
C7684 C7686 1.391 . S
C7685 C7684 1.386 . S
C7685 C7689 1.393 . S
C7686 H7678 0.950 . S
C7686 C7684 1.391 . S
C7686 C7687 1.400 . S
C7687 C7686 1.400 . S
C7687 C7688 1.398 . S
C7687 C7693 1.491 . S
C7688 H7679 0.950 . S
C7688 C7687 1.398 . S
C7688 C7689 1.391 . S
C7689 H7677 0.950 . S
C7689 C7685 1.393 . S
C7689 C7688 1.391 . S
C7690 H7680 0.950 . S
C7690 C7691 1.386 . S
C7690 C7692 1.391 . S
C7691 C7690 1.386 . S
C7691 C7695 1.393 . S
C7692 H7681 0.950 . S
C7692 C7690 1.391 . S
C7692 C7693 1.400 . S
C7693 C7687 1.491 . S
C7693 C7692 1.400 . S
C7693 C7694 1.398 . S
C7694 H7682 0.950 . S
C7694 C7693 1.398 . S
C7694 C7695 1.391 . S
C7695 H7683 0.950 . S
C7695 C7691 1.393 . S
C7695 C7694 1.391 . S
H7696 C7704 0.950 . S
H7697 C7709 0.950 . S
H7698 C7706 0.950 . S
H7699 C7708 0.950 . S
H7700 C7710 0.950 . S
H7701 C7712 0.950 . S
H7702 C7714 0.950 . S
H7703 C7715 0.950 . S
C7704 H7696 0.950 . S
C7704 C7705 1.386 . S
C7704 C7706 1.391 . S
C7705 C7704 1.386 . S
C7705 C7709 1.393 . S
C7706 H7698 0.950 . S
C7706 C7704 1.391 . S
C7706 C7707 1.400 . S
C7707 C7706 1.400 . S
C7707 C7708 1.398 . S
C7707 C7713 1.491 . S
C7708 H7699 0.950 . S
C7708 C7707 1.398 . S
C7708 C7709 1.391 . S
C7709 H7697 0.950 . S
C7709 C7705 1.393 . S
C7709 C7708 1.391 . S
C7710 H7700 0.950 . S
C7710 C7711 1.386 . S
C7710 C7712 1.391 . S
C7711 C7710 1.386 . S
C7711 C7715 1.393 . S
C7712 H7701 0.950 . S
C7712 C7710 1.391 . S
C7712 C7713 1.400 . S
C7713 C7707 1.491 . S
C7713 C7712 1.400 . S
C7713 C7714 1.398 . S
C7714 H7702 0.950 . S
C7714 C7713 1.398 . S
C7714 C7715 1.391 . S
C7715 H7703 0.950 . S
C7715 C7711 1.393 . S
C7715 C7714 1.391 . S
H7716 C7724 0.950 . S
H7717 C7729 0.950 . S
H7718 C7726 0.950 . S
H7719 C7728 0.950 . S
H7720 C7730 0.950 . S
H7721 C7732 0.950 . S
H7722 C7734 0.950 . S
H7723 C7735 0.950 . S
C7724 H7716 0.950 . S
C7724 C7725 1.386 . S
C7724 C7726 1.391 . S
C7725 C7724 1.386 . S
C7725 C7729 1.393 . S
C7726 H7718 0.950 . S
C7726 C7724 1.391 . S
C7726 C7727 1.400 . S
C7727 C7726 1.400 . S
C7727 C7728 1.398 . S
C7727 C7733 1.491 . S
C7728 H7719 0.950 . S
C7728 C7727 1.398 . S
C7728 C7729 1.391 . S
C7729 H7717 0.950 . S
C7729 C7725 1.393 . S
C7729 C7728 1.391 . S
C7730 H7720 0.950 . S
C7730 C7731 1.386 . S
C7730 C7732 1.391 . S
C7731 C7730 1.386 . S
C7731 C7735 1.393 . S
C7732 H7721 0.950 . S
C7732 C7730 1.391 . S
C7732 C7733 1.400 . S
C7733 C7727 1.491 . S
C7733 C7732 1.400 . S
C7733 C7734 1.398 . S
C7734 H7722 0.950 . S
C7734 C7733 1.398 . S
C7734 C7735 1.391 . S
C7735 H7723 0.950 . S
C7735 C7731 1.393 . S
C7735 C7734 1.391 . S
H7736 C7744 0.950 . S
H7737 C7749 0.950 . S
H7738 C7746 0.950 . S
H7739 C7748 0.950 . S
H7740 C7750 0.950 . S
H7741 C7752 0.950 . S
H7742 C7754 0.950 . S
H7743 C7755 0.950 . S
C7744 H7736 0.950 . S
C7744 C7745 1.386 . S
C7744 C7746 1.391 . S
C7745 C7744 1.386 . S
C7745 C7749 1.393 . S
C7746 H7738 0.950 . S
C7746 C7744 1.391 . S
C7746 C7747 1.400 . S
C7747 C7746 1.400 . S
C7747 C7748 1.398 . S
C7747 C7753 1.491 . S
C7748 H7739 0.950 . S
C7748 C7747 1.398 . S
C7748 C7749 1.391 . S
C7749 H7737 0.950 . S
C7749 C7745 1.393 . S
C7749 C7748 1.391 . S
C7750 H7740 0.950 . S
C7750 C7751 1.386 . S
C7750 C7752 1.391 . S
C7751 C7750 1.386 . S
C7751 C7755 1.393 . S
C7752 H7741 0.950 . S
C7752 C7750 1.391 . S
C7752 C7753 1.400 . S
C7753 C7747 1.491 . S
C7753 C7752 1.400 . S
C7753 C7754 1.398 . S
C7754 H7742 0.950 . S
C7754 C7753 1.398 . S
C7754 C7755 1.391 . S
C7755 H7743 0.950 . S
C7755 C7751 1.393 . S
C7755 C7754 1.391 . S
H7756 C7764 0.950 . S
H7757 C7769 0.950 . S
H7758 C7766 0.950 . S
H7759 C7768 0.950 . S
H7760 C7770 0.950 . S
H7761 C7772 0.950 . S
H7762 C7774 0.950 . S
H7763 C7775 0.950 . S
C7764 H7756 0.950 . S
C7764 C7765 1.386 . S
C7764 C7766 1.391 . S
C7765 C7764 1.386 . S
C7765 C7769 1.393 . S
C7766 H7758 0.950 . S
C7766 C7764 1.391 . S
C7766 C7767 1.400 . S
C7767 C7766 1.400 . S
C7767 C7768 1.398 . S
C7767 C7773 1.491 . S
C7768 H7759 0.950 . S
C7768 C7767 1.398 . S
C7768 C7769 1.391 . S
C7769 H7757 0.950 . S
C7769 C7765 1.393 . S
C7769 C7768 1.391 . S
C7770 H7760 0.950 . S
C7770 C7771 1.386 . S
C7770 C7772 1.391 . S
C7771 C7770 1.386 . S
C7771 C7775 1.393 . S
C7772 H7761 0.950 . S
C7772 C7770 1.391 . S
C7772 C7773 1.400 . S
C7773 C7767 1.491 . S
C7773 C7772 1.400 . S
C7773 C7774 1.398 . S
C7774 H7762 0.950 . S
C7774 C7773 1.398 . S
C7774 C7775 1.391 . S
C7775 H7763 0.950 . S
C7775 C7771 1.393 . S
C7775 C7774 1.391 . S
H7776 C7784 0.950 . S
H7777 C7789 0.950 . S
H7778 C7786 0.950 . S
H7779 C7788 0.950 . S
H7780 C7790 0.950 . S
H7781 C7792 0.950 . S
H7782 C7794 0.950 . S
H7783 C7795 0.950 . S
C7784 H7776 0.950 . S
C7784 C7785 1.386 . S
C7784 C7786 1.391 . S
C7785 C7784 1.386 . S
C7785 C7789 1.393 . S
C7786 H7778 0.950 . S
C7786 C7784 1.391 . S
C7786 C7787 1.400 . S
C7787 C7786 1.400 . S
C7787 C7788 1.398 . S
C7787 C7793 1.491 . S
C7788 H7779 0.950 . S
C7788 C7787 1.398 . S
C7788 C7789 1.391 . S
C7789 H7777 0.950 . S
C7789 C7785 1.393 . S
C7789 C7788 1.391 . S
C7790 H7780 0.950 . S
C7790 C7791 1.386 . S
C7790 C7792 1.391 . S
C7791 C7790 1.386 . S
C7791 C7795 1.393 . S
C7792 H7781 0.950 . S
C7792 C7790 1.391 . S
C7792 C7793 1.400 . S
C7793 C7787 1.491 . S
C7793 C7792 1.400 . S
C7793 C7794 1.398 . S
C7794 H7782 0.950 . S
C7794 C7793 1.398 . S
C7794 C7795 1.391 . S
C7795 H7783 0.950 . S
C7795 C7791 1.393 . S
C7795 C7794 1.391 . S
H7796 C7804 0.950 . S
H7797 C7809 0.950 . S
H7798 C7806 0.950 . S
H7799 C7808 0.950 . S
H7800 C7810 0.950 . S
H7801 C7812 0.950 . S
H7802 C7814 0.950 . S
H7803 C7815 0.950 . S
C7804 H7796 0.950 . S
C7804 C7805 1.386 . S
C7804 C7806 1.391 . S
C7805 C7804 1.386 . S
C7805 C7809 1.393 . S
C7806 H7798 0.950 . S
C7806 C7804 1.391 . S
C7806 C7807 1.400 . S
C7807 C7806 1.400 . S
C7807 C7808 1.398 . S
C7807 C7813 1.491 . S
C7808 H7799 0.950 . S
C7808 C7807 1.398 . S
C7808 C7809 1.391 . S
C7809 H7797 0.950 . S
C7809 C7805 1.393 . S
C7809 C7808 1.391 . S
C7810 H7800 0.950 . S
C7810 C7811 1.386 . S
C7810 C7812 1.391 . S
C7811 C7810 1.386 . S
C7811 C7815 1.393 . S
C7812 H7801 0.950 . S
C7812 C7810 1.391 . S
C7812 C7813 1.400 . S
C7813 C7807 1.491 . S
C7813 C7812 1.400 . S
C7813 C7814 1.398 . S
C7814 H7802 0.950 . S
C7814 C7813 1.398 . S
C7814 C7815 1.391 . S
C7815 H7803 0.950 . S
C7815 C7811 1.393 . S
C7815 C7814 1.391 . S
H7816 C7824 0.950 . S
H7817 C7829 0.950 . S
H7818 C7826 0.950 . S
H7819 C7828 0.950 . S
H7820 C7830 0.950 . S
H7821 C7832 0.950 . S
H7822 C7834 0.950 . S
H7823 C7835 0.950 . S
C7824 H7816 0.950 . S
C7824 C7825 1.386 . S
C7824 C7826 1.391 . S
C7825 C7824 1.386 . S
C7825 C7829 1.393 . S
C7826 H7818 0.950 . S
C7826 C7824 1.391 . S
C7826 C7827 1.400 . S
C7827 C7826 1.400 . S
C7827 C7828 1.398 . S
C7827 C7833 1.491 . S
C7828 H7819 0.950 . S
C7828 C7827 1.398 . S
C7828 C7829 1.391 . S
C7829 H7817 0.950 . S
C7829 C7825 1.393 . S
C7829 C7828 1.391 . S
C7830 H7820 0.950 . S
C7830 C7831 1.386 . S
C7830 C7832 1.391 . S
C7831 C7830 1.386 . S
C7831 C7835 1.393 . S
C7832 H7821 0.950 . S
C7832 C7830 1.391 . S
C7832 C7833 1.400 . S
C7833 C7827 1.491 . S
C7833 C7832 1.400 . S
C7833 C7834 1.398 . S
C7834 H7822 0.950 . S
C7834 C7833 1.398 . S
C7834 C7835 1.391 . S
C7835 H7823 0.950 . S
C7835 C7831 1.393 . S
C7835 C7834 1.391 . S
H7836 C7844 0.950 . S
H7837 C7849 0.950 . S
H7838 C7846 0.950 . S
H7839 C7848 0.950 . S
H7840 C7850 0.950 . S
H7841 C7852 0.950 . S
H7842 C7854 0.950 . S
H7843 C7855 0.950 . S
C7844 H7836 0.950 . S
C7844 C7845 1.386 . S
C7844 C7846 1.391 . S
C7845 C7844 1.386 . S
C7845 C7849 1.393 . S
C7846 H7838 0.950 . S
C7846 C7844 1.391 . S
C7846 C7847 1.400 . S
C7847 C7846 1.400 . S
C7847 C7848 1.398 . S
C7847 C7853 1.491 . S
C7848 H7839 0.950 . S
C7848 C7847 1.398 . S
C7848 C7849 1.391 . S
C7849 H7837 0.950 . S
C7849 C7845 1.393 . S
C7849 C7848 1.391 . S
C7850 H7840 0.950 . S
C7850 C7851 1.386 . S
C7850 C7852 1.391 . S
C7851 C7850 1.386 . S
C7851 C7855 1.393 . S
C7852 H7841 0.950 . S
C7852 C7850 1.391 . S
C7852 C7853 1.400 . S
C7853 C7847 1.491 . S
C7853 C7852 1.400 . S
C7853 C7854 1.398 . S
C7854 H7842 0.950 . S
C7854 C7853 1.398 . S
C7854 C7855 1.391 . S
C7855 H7843 0.950 . S
C7855 C7851 1.393 . S
C7855 C7854 1.391 . S
H7856 C7864 0.950 . S
H7857 C7869 0.950 . S
H7858 C7866 0.950 . S
H7859 C7868 0.950 . S
H7860 C7870 0.950 . S
H7861 C7872 0.950 . S
H7862 C7874 0.950 . S
H7863 C7875 0.950 . S
C7864 H7856 0.950 . S
C7864 C7865 1.386 . S
C7864 C7866 1.391 . S
C7865 C7864 1.386 . S
C7865 C7869 1.393 . S
C7866 H7858 0.950 . S
C7866 C7864 1.391 . S
C7866 C7867 1.400 . S
C7867 C7866 1.400 . S
C7867 C7868 1.398 . S
C7867 C7873 1.491 . S
C7868 H7859 0.950 . S
C7868 C7867 1.398 . S
C7868 C7869 1.391 . S
C7869 H7857 0.950 . S
C7869 C7865 1.393 . S
C7869 C7868 1.391 . S
C7870 H7860 0.950 . S
C7870 C7871 1.386 . S
C7870 C7872 1.391 . S
C7871 C7870 1.386 . S
C7871 C7875 1.393 . S
C7872 H7861 0.950 . S
C7872 C7870 1.391 . S
C7872 C7873 1.400 . S
C7873 C7867 1.491 . S
C7873 C7872 1.400 . S
C7873 C7874 1.398 . S
C7874 H7862 0.950 . S
C7874 C7873 1.398 . S
C7874 C7875 1.391 . S
C7875 H7863 0.950 . S
C7875 C7871 1.393 . S
C7875 C7874 1.391 . S
H7876 C7884 0.950 . S
H7877 C7889 0.950 . S
H7878 C7886 0.950 . S
H7879 C7888 0.950 . S
H7880 C7890 0.950 . S
H7881 C7892 0.950 . S
H7882 C7894 0.950 . S
H7883 C7895 0.950 . S
C7884 H7876 0.950 . S
C7884 C7885 1.386 . S
C7884 C7886 1.391 . S
C7885 C7884 1.386 . S
C7885 C7889 1.393 . S
C7886 H7878 0.950 . S
C7886 C7884 1.391 . S
C7886 C7887 1.400 . S
C7887 C7886 1.400 . S
C7887 C7888 1.398 . S
C7887 C7893 1.491 . S
C7888 H7879 0.950 . S
C7888 C7887 1.398 . S
C7888 C7889 1.391 . S
C7889 H7877 0.950 . S
C7889 C7885 1.393 . S
C7889 C7888 1.391 . S
C7890 H7880 0.950 . S
C7890 C7891 1.386 . S
C7890 C7892 1.391 . S
C7891 C7890 1.386 . S
C7891 C7895 1.393 . S
C7892 H7881 0.950 . S
C7892 C7890 1.391 . S
C7892 C7893 1.400 . S
C7893 C7887 1.491 . S
C7893 C7892 1.400 . S
C7893 C7894 1.398 . S
C7894 H7882 0.950 . S
C7894 C7893 1.398 . S
C7894 C7895 1.391 . S
C7895 H7883 0.950 . S
C7895 C7891 1.393 . S
C7895 C7894 1.391 . S
H7896 C7904 0.950 . S
H7897 C7909 0.950 . S
H7898 C7906 0.950 . S
H7899 C7908 0.950 . S
H7900 C7910 0.950 . S
H7901 C7912 0.950 . S
H7902 C7914 0.950 . S
H7903 C7915 0.950 . S
C7904 H7896 0.950 . S
C7904 C7905 1.386 . S
C7904 C7906 1.391 . S
C7905 C7904 1.386 . S
C7905 C7909 1.393 . S
C7906 H7898 0.950 . S
C7906 C7904 1.391 . S
C7906 C7907 1.400 . S
C7907 C7906 1.400 . S
C7907 C7908 1.398 . S
C7907 C7913 1.491 . S
C7908 H7899 0.950 . S
C7908 C7907 1.398 . S
C7908 C7909 1.391 . S
C7909 H7897 0.950 . S
C7909 C7905 1.393 . S
C7909 C7908 1.391 . S
C7910 H7900 0.950 . S
C7910 C7911 1.386 . S
C7910 C7912 1.391 . S
C7911 C7910 1.386 . S
C7911 C7915 1.393 . S
C7912 H7901 0.950 . S
C7912 C7910 1.391 . S
C7912 C7913 1.400 . S
C7913 C7907 1.491 . S
C7913 C7912 1.400 . S
C7913 C7914 1.398 . S
C7914 H7902 0.950 . S
C7914 C7913 1.398 . S
C7914 C7915 1.391 . S
C7915 H7903 0.950 . S
C7915 C7911 1.393 . S
C7915 C7914 1.391 . S
H7916 C7924 0.950 . S
H7917 C7929 0.950 . S
H7918 C7926 0.950 . S
H7919 C7928 0.950 . S
H7920 C7930 0.950 . S
H7921 C7932 0.950 . S
H7922 C7934 0.950 . S
H7923 C7935 0.950 . S
C7924 H7916 0.950 . S
C7924 C7925 1.386 . S
C7924 C7926 1.391 . S
C7925 C7924 1.386 . S
C7925 C7929 1.393 . S
C7926 H7918 0.950 . S
C7926 C7924 1.391 . S
C7926 C7927 1.400 . S
C7927 C7926 1.400 . S
C7927 C7928 1.398 . S
C7927 C7933 1.491 . S
C7928 H7919 0.950 . S
C7928 C7927 1.398 . S
C7928 C7929 1.391 . S
C7929 H7917 0.950 . S
C7929 C7925 1.393 . S
C7929 C7928 1.391 . S
C7930 H7920 0.950 . S
C7930 C7931 1.386 . S
C7930 C7932 1.391 . S
C7931 C7930 1.386 . S
C7931 C7935 1.393 . S
C7932 H7921 0.950 . S
C7932 C7930 1.391 . S
C7932 C7933 1.400 . S
C7933 C7927 1.491 . S
C7933 C7932 1.400 . S
C7933 C7934 1.398 . S
C7934 H7922 0.950 . S
C7934 C7933 1.398 . S
C7934 C7935 1.391 . S
C7935 H7923 0.950 . S
C7935 C7931 1.393 . S
C7935 C7934 1.391 . S
H7936 C7944 0.950 . S
H7937 C7949 0.950 . S
H7938 C7946 0.950 . S
H7939 C7948 0.950 . S
H7940 C7950 0.950 . S
H7941 C7952 0.950 . S
H7942 C7954 0.950 . S
H7943 C7955 0.950 . S
C7944 H7936 0.950 . S
C7944 C7945 1.386 . S
C7944 C7946 1.391 . S
C7945 C7944 1.386 . S
C7945 C7949 1.393 . S
C7946 H7938 0.950 . S
C7946 C7944 1.391 . S
C7946 C7947 1.400 . S
C7947 C7946 1.400 . S
C7947 C7948 1.398 . S
C7947 C7953 1.491 . S
C7948 H7939 0.950 . S
C7948 C7947 1.398 . S
C7948 C7949 1.391 . S
C7949 H7937 0.950 . S
C7949 C7945 1.393 . S
C7949 C7948 1.391 . S
C7950 H7940 0.950 . S
C7950 C7951 1.386 . S
C7950 C7952 1.391 . S
C7951 C7950 1.386 . S
C7951 C7955 1.393 . S
C7952 H7941 0.950 . S
C7952 C7950 1.391 . S
C7952 C7953 1.400 . S
C7953 C7947 1.491 . S
C7953 C7952 1.400 . S
C7953 C7954 1.398 . S
C7954 H7942 0.950 . S
C7954 C7953 1.398 . S
C7954 C7955 1.391 . S
C7955 H7943 0.950 . S
C7955 C7951 1.393 . S
C7955 C7954 1.391 . S
H7956 C7964 0.950 . S
H7957 C7969 0.950 . S
H7958 C7966 0.950 . S
H7959 C7968 0.950 . S
H7960 C7970 0.950 . S
H7961 C7972 0.950 . S
H7962 C7974 0.950 . S
H7963 C7975 0.950 . S
C7964 H7956 0.950 . S
C7964 C7965 1.386 . S
C7964 C7966 1.391 . S
C7965 C7964 1.386 . S
C7965 C7969 1.393 . S
C7966 H7958 0.950 . S
C7966 C7964 1.391 . S
C7966 C7967 1.400 . S
C7967 C7966 1.400 . S
C7967 C7968 1.398 . S
C7967 C7973 1.491 . S
C7968 H7959 0.950 . S
C7968 C7967 1.398 . S
C7968 C7969 1.391 . S
C7969 H7957 0.950 . S
C7969 C7965 1.393 . S
C7969 C7968 1.391 . S
C7970 H7960 0.950 . S
C7970 C7971 1.386 . S
C7970 C7972 1.391 . S
C7971 C7970 1.386 . S
C7971 C7975 1.393 . S
C7972 H7961 0.950 . S
C7972 C7970 1.391 . S
C7972 C7973 1.400 . S
C7973 C7967 1.491 . S
C7973 C7972 1.400 . S
C7973 C7974 1.398 . S
C7974 H7962 0.950 . S
C7974 C7973 1.398 . S
C7974 C7975 1.391 . S
C7975 H7963 0.950 . S
C7975 C7971 1.393 . S
C7975 C7974 1.391 . S
H7976 C7984 0.950 . S
H7977 C7989 0.950 . S
H7978 C7986 0.950 . S
H7979 C7988 0.950 . S
H7980 C7990 0.950 . S
H7981 C7992 0.950 . S
H7982 C7994 0.950 . S
H7983 C7995 0.950 . S
C7984 H7976 0.950 . S
C7984 C7985 1.386 . S
C7984 C7986 1.391 . S
C7985 C7984 1.386 . S
C7985 C7989 1.393 . S
C7986 H7978 0.950 . S
C7986 C7984 1.391 . S
C7986 C7987 1.400 . S
C7987 C7986 1.400 . S
C7987 C7988 1.398 . S
C7987 C7993 1.491 . S
C7988 H7979 0.950 . S
C7988 C7987 1.398 . S
C7988 C7989 1.391 . S
C7989 H7977 0.950 . S
C7989 C7985 1.393 . S
C7989 C7988 1.391 . S
C7990 H7980 0.950 . S
C7990 C7991 1.386 . S
C7990 C7992 1.391 . S
C7991 C7990 1.386 . S
C7991 C7995 1.393 . S
C7992 H7981 0.950 . S
C7992 C7990 1.391 . S
C7992 C7993 1.400 . S
C7993 C7987 1.491 . S
C7993 C7992 1.400 . S
C7993 C7994 1.398 . S
C7994 H7982 0.950 . S
C7994 C7993 1.398 . S
C7994 C7995 1.391 . S
C7995 H7983 0.950 . S
C7995 C7991 1.393 . S
C7995 C7994 1.391 . S
H7996 C8004 0.950 . S
H7997 C8009 0.950 . S
H7998 C8006 0.950 . S
H7999 C8008 0.950 . S
H8000 C8010 0.950 . S
H8001 C8012 0.950 . S
H8002 C8014 0.950 . S
H8003 C8015 0.950 . S
C8004 H7996 0.950 . S
C8004 C8005 1.386 . S
C8004 C8006 1.391 . S
C8005 C8004 1.386 . S
C8005 C8009 1.393 . S
C8006 H7998 0.950 . S
C8006 C8004 1.391 . S
C8006 C8007 1.400 . S
C8007 C8006 1.400 . S
C8007 C8008 1.398 . S
C8007 C8013 1.491 . S
C8008 H7999 0.950 . S
C8008 C8007 1.398 . S
C8008 C8009 1.391 . S
C8009 H7997 0.950 . S
C8009 C8005 1.393 . S
C8009 C8008 1.391 . S
C8010 H8000 0.950 . S
C8010 C8011 1.386 . S
C8010 C8012 1.391 . S
C8011 C8010 1.386 . S
C8011 C8015 1.393 . S
C8012 H8001 0.950 . S
C8012 C8010 1.391 . S
C8012 C8013 1.400 . S
C8013 C8007 1.491 . S
C8013 C8012 1.400 . S
C8013 C8014 1.398 . S
C8014 H8002 0.950 . S
C8014 C8013 1.398 . S
C8014 C8015 1.391 . S
C8015 H8003 0.950 . S
C8015 C8011 1.393 . S
C8015 C8014 1.391 . S
H8016 C8024 0.950 . S
H8017 C8029 0.950 . S
H8018 C8026 0.950 . S
H8019 C8028 0.950 . S
H8020 C8030 0.950 . S
H8021 C8032 0.950 . S
H8022 C8034 0.950 . S
H8023 C8035 0.950 . S
C8024 H8016 0.950 . S
C8024 C8025 1.386 . S
C8024 C8026 1.391 . S
C8025 C8024 1.386 . S
C8025 C8029 1.393 . S
C8026 H8018 0.950 . S
C8026 C8024 1.391 . S
C8026 C8027 1.400 . S
C8027 C8026 1.400 . S
C8027 C8028 1.398 . S
C8027 C8033 1.491 . S
C8028 H8019 0.950 . S
C8028 C8027 1.398 . S
C8028 C8029 1.391 . S
C8029 H8017 0.950 . S
C8029 C8025 1.393 . S
C8029 C8028 1.391 . S
C8030 H8020 0.950 . S
C8030 C8031 1.386 . S
C8030 C8032 1.391 . S
C8031 C8030 1.386 . S
C8031 C8035 1.393 . S
C8032 H8021 0.950 . S
C8032 C8030 1.391 . S
C8032 C8033 1.400 . S
C8033 C8027 1.491 . S
C8033 C8032 1.400 . S
C8033 C8034 1.398 . S
C8034 H8022 0.950 . S
C8034 C8033 1.398 . S
C8034 C8035 1.391 . S
C8035 H8023 0.950 . S
C8035 C8031 1.393 . S
C8035 C8034 1.391 . S
H8036 C8044 0.950 . S
H8037 C8049 0.950 . S
H8038 C8046 0.950 . S
H8039 C8048 0.950 . S
H8040 C8050 0.950 . S
H8041 C8052 0.950 . S
H8042 C8054 0.950 . S
H8043 C8055 0.950 . S
C8044 H8036 0.950 . S
C8044 C8045 1.386 . S
C8044 C8046 1.391 . S
C8045 C8044 1.386 . S
C8045 C8049 1.393 . S
C8046 H8038 0.950 . S
C8046 C8044 1.391 . S
C8046 C8047 1.400 . S
C8047 C8046 1.400 . S
C8047 C8048 1.398 . S
C8047 C8053 1.491 . S
C8048 H8039 0.950 . S
C8048 C8047 1.398 . S
C8048 C8049 1.391 . S
C8049 H8037 0.950 . S
C8049 C8045 1.393 . S
C8049 C8048 1.391 . S
C8050 H8040 0.950 . S
C8050 C8051 1.386 . S
C8050 C8052 1.391 . S
C8051 C8050 1.386 . S
C8051 C8055 1.393 . S
C8052 H8041 0.950 . S
C8052 C8050 1.391 . S
C8052 C8053 1.400 . S
C8053 C8047 1.491 . S
C8053 C8052 1.400 . S
C8053 C8054 1.398 . S
C8054 H8042 0.950 . S
C8054 C8053 1.398 . S
C8054 C8055 1.391 . S
C8055 H8043 0.950 . S
C8055 C8051 1.393 . S
C8055 C8054 1.391 . S
H8056 C8064 0.950 . S
H8057 C8069 0.950 . S
H8058 C8066 0.950 . S
H8059 C8068 0.950 . S
H8060 C8070 0.950 . S
H8061 C8072 0.950 . S
H8062 C8074 0.950 . S
H8063 C8075 0.950 . S
C8064 H8056 0.950 . S
C8064 C8065 1.386 . S
C8064 C8066 1.391 . S
C8065 C8064 1.386 . S
C8065 C8069 1.393 . S
C8066 H8058 0.950 . S
C8066 C8064 1.391 . S
C8066 C8067 1.400 . S
C8067 C8066 1.400 . S
C8067 C8068 1.398 . S
C8067 C8073 1.491 . S
C8068 H8059 0.950 . S
C8068 C8067 1.398 . S
C8068 C8069 1.391 . S
C8069 H8057 0.950 . S
C8069 C8065 1.393 . S
C8069 C8068 1.391 . S
C8070 H8060 0.950 . S
C8070 C8071 1.386 . S
C8070 C8072 1.391 . S
C8071 C8070 1.386 . S
C8071 C8075 1.393 . S
C8072 H8061 0.950 . S
C8072 C8070 1.391 . S
C8072 C8073 1.400 . S
C8073 C8067 1.491 . S
C8073 C8072 1.400 . S
C8073 C8074 1.398 . S
C8074 H8062 0.950 . S
C8074 C8073 1.398 . S
C8074 C8075 1.391 . S
C8075 H8063 0.950 . S
C8075 C8071 1.393 . S
C8075 C8074 1.391 . S
H8076 C8084 0.950 . S
H8077 C8089 0.950 . S
H8078 C8086 0.950 . S
H8079 C8088 0.950 . S
H8080 C8090 0.950 . S
H8081 C8092 0.950 . S
H8082 C8094 0.950 . S
H8083 C8095 0.950 . S
C8084 H8076 0.950 . S
C8084 C8085 1.386 . S
C8084 C8086 1.391 . S
C8085 C8084 1.386 . S
C8085 C8089 1.393 . S
C8086 H8078 0.950 . S
C8086 C8084 1.391 . S
C8086 C8087 1.400 . S
C8087 C8086 1.400 . S
C8087 C8088 1.398 . S
C8087 C8093 1.491 . S
C8088 H8079 0.950 . S
C8088 C8087 1.398 . S
C8088 C8089 1.391 . S
C8089 H8077 0.950 . S
C8089 C8085 1.393 . S
C8089 C8088 1.391 . S
C8090 H8080 0.950 . S
C8090 C8091 1.386 . S
C8090 C8092 1.391 . S
C8091 C8090 1.386 . S
C8091 C8095 1.393 . S
C8092 H8081 0.950 . S
C8092 C8090 1.391 . S
C8092 C8093 1.400 . S
C8093 C8087 1.491 . S
C8093 C8092 1.400 . S
C8093 C8094 1.398 . S
C8094 H8082 0.950 . S
C8094 C8093 1.398 . S
C8094 C8095 1.391 . S
C8095 H8083 0.950 . S
C8095 C8091 1.393 . S
C8095 C8094 1.391 . S
H8096 C8104 0.950 . S
H8097 C8109 0.950 . S
H8098 C8106 0.950 . S
H8099 C8108 0.950 . S
H8100 C8110 0.950 . S
H8101 C8112 0.950 . S
H8102 C8114 0.950 . S
H8103 C8115 0.950 . S
C8104 H8096 0.950 . S
C8104 C8105 1.386 . S
C8104 C8106 1.391 . S
C8105 C8104 1.386 . S
C8105 C8109 1.393 . S
C8106 H8098 0.950 . S
C8106 C8104 1.391 . S
C8106 C8107 1.400 . S
C8107 C8106 1.400 . S
C8107 C8108 1.398 . S
C8107 C8113 1.491 . S
C8108 H8099 0.950 . S
C8108 C8107 1.398 . S
C8108 C8109 1.391 . S
C8109 H8097 0.950 . S
C8109 C8105 1.393 . S
C8109 C8108 1.391 . S
C8110 H8100 0.950 . S
C8110 C8111 1.386 . S
C8110 C8112 1.391 . S
C8111 C8110 1.386 . S
C8111 C8115 1.393 . S
C8112 H8101 0.950 . S
C8112 C8110 1.391 . S
C8112 C8113 1.400 . S
C8113 C8107 1.491 . S
C8113 C8112 1.400 . S
C8113 C8114 1.398 . S
C8114 H8102 0.950 . S
C8114 C8113 1.398 . S
C8114 C8115 1.391 . S
C8115 H8103 0.950 . S
C8115 C8111 1.393 . S
C8115 C8114 1.391 . S
H8116 C8124 0.950 . S
H8117 C8129 0.950 . S
H8118 C8126 0.950 . S
H8119 C8128 0.950 . S
H8120 C8130 0.950 . S
H8121 C8132 0.950 . S
H8122 C8134 0.950 . S
H8123 C8135 0.950 . S
C8124 H8116 0.950 . S
C8124 C8125 1.386 . S
C8124 C8126 1.391 . S
C8125 C8124 1.386 . S
C8125 C8129 1.393 . S
C8126 H8118 0.950 . S
C8126 C8124 1.391 . S
C8126 C8127 1.400 . S
C8127 C8126 1.400 . S
C8127 C8128 1.398 . S
C8127 C8133 1.491 . S
C8128 H8119 0.950 . S
C8128 C8127 1.398 . S
C8128 C8129 1.391 . S
C8129 H8117 0.950 . S
C8129 C8125 1.393 . S
C8129 C8128 1.391 . S
C8130 H8120 0.950 . S
C8130 C8131 1.386 . S
C8130 C8132 1.391 . S
C8131 C8130 1.386 . S
C8131 C8135 1.393 . S
C8132 H8121 0.950 . S
C8132 C8130 1.391 . S
C8132 C8133 1.400 . S
C8133 C8127 1.491 . S
C8133 C8132 1.400 . S
C8133 C8134 1.398 . S
C8134 H8122 0.950 . S
C8134 C8133 1.398 . S
C8134 C8135 1.391 . S
C8135 H8123 0.950 . S
C8135 C8131 1.393 . S
C8135 C8134 1.391 . S
H8136 C8144 0.950 . S
H8137 C8149 0.950 . S
H8138 C8146 0.950 . S
H8139 C8148 0.950 . S
H8140 C8150 0.950 . S
H8141 C8152 0.950 . S
H8142 C8154 0.950 . S
H8143 C8155 0.950 . S
C8144 H8136 0.950 . S
C8144 C8145 1.386 . S
C8144 C8146 1.391 . S
C8145 C8144 1.386 . S
C8145 C8149 1.393 . S
C8146 H8138 0.950 . S
C8146 C8144 1.391 . S
C8146 C8147 1.400 . S
C8147 C8146 1.400 . S
C8147 C8148 1.398 . S
C8147 C8153 1.491 . S
C8148 H8139 0.950 . S
C8148 C8147 1.398 . S
C8148 C8149 1.391 . S
C8149 H8137 0.950 . S
C8149 C8145 1.393 . S
C8149 C8148 1.391 . S
C8150 H8140 0.950 . S
C8150 C8151 1.386 . S
C8150 C8152 1.391 . S
C8151 C8150 1.386 . S
C8151 C8155 1.393 . S
C8152 H8141 0.950 . S
C8152 C8150 1.391 . S
C8152 C8153 1.400 . S
C8153 C8147 1.491 . S
C8153 C8152 1.400 . S
C8153 C8154 1.398 . S
C8154 H8142 0.950 . S
C8154 C8153 1.398 . S
C8154 C8155 1.391 . S
C8155 H8143 0.950 . S
C8155 C8151 1.393 . S
C8155 C8154 1.391 . S
H8156 C8164 0.950 . S
H8157 C8169 0.950 . S
H8158 C8166 0.950 . S
H8159 C8168 0.950 . S
H8160 C8170 0.950 . S
H8161 C8172 0.950 . S
H8162 C8174 0.950 . S
H8163 C8175 0.950 . S
C8164 H8156 0.950 . S
C8164 C8165 1.386 . S
C8164 C8166 1.391 . S
C8165 C8164 1.386 . S
C8165 C8169 1.393 . S
C8166 H8158 0.950 . S
C8166 C8164 1.391 . S
C8166 C8167 1.400 . S
C8167 C8166 1.400 . S
C8167 C8168 1.398 . S
C8167 C8173 1.491 . S
C8168 H8159 0.950 . S
C8168 C8167 1.398 . S
C8168 C8169 1.391 . S
C8169 H8157 0.950 . S
C8169 C8165 1.393 . S
C8169 C8168 1.391 . S
C8170 H8160 0.950 . S
C8170 C8171 1.386 . S
C8170 C8172 1.391 . S
C8171 C8170 1.386 . S
C8171 C8175 1.393 . S
C8172 H8161 0.950 . S
C8172 C8170 1.391 . S
C8172 C8173 1.400 . S
C8173 C8167 1.491 . S
C8173 C8172 1.400 . S
C8173 C8174 1.398 . S
C8174 H8162 0.950 . S
C8174 C8173 1.398 . S
C8174 C8175 1.391 . S
C8175 H8163 0.950 . S
C8175 C8171 1.393 . S
C8175 C8174 1.391 . S
H8176 C8184 0.950 . S
H8177 C8189 0.950 . S
H8178 C8186 0.950 . S
H8179 C8188 0.950 . S
H8180 C8190 0.950 . S
H8181 C8192 0.950 . S
H8182 C8194 0.950 . S
H8183 C8195 0.950 . S
C8184 H8176 0.950 . S
C8184 C8185 1.386 . S
C8184 C8186 1.391 . S
C8185 C8184 1.386 . S
C8185 C8189 1.393 . S
C8186 H8178 0.950 . S
C8186 C8184 1.391 . S
C8186 C8187 1.400 . S
C8187 C8186 1.400 . S
C8187 C8188 1.398 . S
C8187 C8193 1.491 . S
C8188 H8179 0.950 . S
C8188 C8187 1.398 . S
C8188 C8189 1.391 . S
C8189 H8177 0.950 . S
C8189 C8185 1.393 . S
C8189 C8188 1.391 . S
C8190 H8180 0.950 . S
C8190 C8191 1.386 . S
C8190 C8192 1.391 . S
C8191 C8190 1.386 . S
C8191 C8195 1.393 . S
C8192 H8181 0.950 . S
C8192 C8190 1.391 . S
C8192 C8193 1.400 . S
C8193 C8187 1.491 . S
C8193 C8192 1.400 . S
C8193 C8194 1.398 . S
C8194 H8182 0.950 . S
C8194 C8193 1.398 . S
C8194 C8195 1.391 . S
C8195 H8183 0.950 . S
C8195 C8191 1.393 . S
C8195 C8194 1.391 . S
H8196 C8204 0.950 . S
H8197 C8209 0.950 . S
H8198 C8206 0.950 . S
H8199 C8208 0.950 . S
H8200 C8210 0.950 . S
H8201 C8212 0.950 . S
H8202 C8214 0.950 . S
H8203 C8215 0.950 . S
C8204 H8196 0.950 . S
C8204 C8205 1.386 . S
C8204 C8206 1.391 . S
C8205 C8204 1.386 . S
C8205 C8209 1.393 . S
C8206 H8198 0.950 . S
C8206 C8204 1.391 . S
C8206 C8207 1.400 . S
C8207 C8206 1.400 . S
C8207 C8208 1.398 . S
C8207 C8213 1.491 . S
C8208 H8199 0.950 . S
C8208 C8207 1.398 . S
C8208 C8209 1.391 . S
C8209 H8197 0.950 . S
C8209 C8205 1.393 . S
C8209 C8208 1.391 . S
C8210 H8200 0.950 . S
C8210 C8211 1.386 . S
C8210 C8212 1.391 . S
C8211 C8210 1.386 . S
C8211 C8215 1.393 . S
C8212 H8201 0.950 . S
C8212 C8210 1.391 . S
C8212 C8213 1.400 . S
C8213 C8207 1.491 . S
C8213 C8212 1.400 . S
C8213 C8214 1.398 . S
C8214 H8202 0.950 . S
C8214 C8213 1.398 . S
C8214 C8215 1.391 . S
C8215 H8203 0.950 . S
C8215 C8211 1.393 . S
C8215 C8214 1.391 . S
H8216 C8224 0.950 . S
H8217 C8229 0.950 . S
H8218 C8226 0.950 . S
H8219 C8228 0.950 . S
H8220 C8230 0.950 . S
H8221 C8232 0.950 . S
H8222 C8234 0.950 . S
H8223 C8235 0.950 . S
C8224 H8216 0.950 . S
C8224 C8225 1.386 . S
C8224 C8226 1.391 . S
C8225 C8224 1.386 . S
C8225 C8229 1.393 . S
C8226 H8218 0.950 . S
C8226 C8224 1.391 . S
C8226 C8227 1.400 . S
C8227 C8226 1.400 . S
C8227 C8228 1.398 . S
C8227 C8233 1.491 . S
C8228 H8219 0.950 . S
C8228 C8227 1.398 . S
C8228 C8229 1.391 . S
C8229 H8217 0.950 . S
C8229 C8225 1.393 . S
C8229 C8228 1.391 . S
C8230 H8220 0.950 . S
C8230 C8231 1.386 . S
C8230 C8232 1.391 . S
C8231 C8230 1.386 . S
C8231 C8235 1.393 . S
C8232 H8221 0.950 . S
C8232 C8230 1.391 . S
C8232 C8233 1.400 . S
C8233 C8227 1.491 . S
C8233 C8232 1.400 . S
C8233 C8234 1.398 . S
C8234 H8222 0.950 . S
C8234 C8233 1.398 . S
C8234 C8235 1.391 . S
C8235 H8223 0.950 . S
C8235 C8231 1.393 . S
C8235 C8234 1.391 . S
H8236 C8244 0.950 . S
H8237 C8249 0.950 . S
H8238 C8246 0.950 . S
H8239 C8248 0.950 . S
H8240 C8250 0.950 . S
H8241 C8252 0.950 . S
H8242 C8254 0.950 . S
H8243 C8255 0.950 . S
C8244 H8236 0.950 . S
C8244 C8245 1.386 . S
C8244 C8246 1.391 . S
C8245 C8244 1.386 . S
C8245 C8249 1.393 . S
C8246 H8238 0.950 . S
C8246 C8244 1.391 . S
C8246 C8247 1.400 . S
C8247 C8246 1.400 . S
C8247 C8248 1.398 . S
C8247 C8253 1.491 . S
C8248 H8239 0.950 . S
C8248 C8247 1.398 . S
C8248 C8249 1.391 . S
C8249 H8237 0.950 . S
C8249 C8245 1.393 . S
C8249 C8248 1.391 . S
C8250 H8240 0.950 . S
C8250 C8251 1.386 . S
C8250 C8252 1.391 . S
C8251 C8250 1.386 . S
C8251 C8255 1.393 . S
C8252 H8241 0.950 . S
C8252 C8250 1.391 . S
C8252 C8253 1.400 . S
C8253 C8247 1.491 . S
C8253 C8252 1.400 . S
C8253 C8254 1.398 . S
C8254 H8242 0.950 . S
C8254 C8253 1.398 . S
C8254 C8255 1.391 . S
C8255 H8243 0.950 . S
C8255 C8251 1.393 . S
C8255 C8254 1.391 . S
H8256 C8264 0.950 . S
H8257 C8269 0.950 . S
H8258 C8266 0.950 . S
H8259 C8268 0.950 . S
H8260 C8270 0.950 . S
H8261 C8272 0.950 . S
H8262 C8274 0.950 . S
H8263 C8275 0.950 . S
C8264 H8256 0.950 . S
C8264 C8265 1.386 . S
C8264 C8266 1.391 . S
C8265 C8264 1.386 . S
C8265 C8269 1.393 . S
C8266 H8258 0.950 . S
C8266 C8264 1.391 . S
C8266 C8267 1.400 . S
C8267 C8266 1.400 . S
C8267 C8268 1.398 . S
C8267 C8273 1.491 . S
C8268 H8259 0.950 . S
C8268 C8267 1.398 . S
C8268 C8269 1.391 . S
C8269 H8257 0.950 . S
C8269 C8265 1.393 . S
C8269 C8268 1.391 . S
C8270 H8260 0.950 . S
C8270 C8271 1.386 . S
C8270 C8272 1.391 . S
C8271 C8270 1.386 . S
C8271 C8275 1.393 . S
C8272 H8261 0.950 . S
C8272 C8270 1.391 . S
C8272 C8273 1.400 . S
C8273 C8267 1.491 . S
C8273 C8272 1.400 . S
C8273 C8274 1.398 . S
C8274 H8262 0.950 . S
C8274 C8273 1.398 . S
C8274 C8275 1.391 . S
C8275 H8263 0.950 . S
C8275 C8271 1.393 . S
C8275 C8274 1.391 . S
H8276 C8284 0.950 . S
H8277 C8289 0.950 . S
H8278 C8286 0.950 . S
H8279 C8288 0.950 . S
H8280 C8290 0.950 . S
H8281 C8292 0.950 . S
H8282 C8294 0.950 . S
H8283 C8295 0.950 . S
C8284 H8276 0.950 . S
C8284 C8285 1.386 . S
C8284 C8286 1.391 . S
C8285 C8284 1.386 . S
C8285 C8289 1.393 . S
C8286 H8278 0.950 . S
C8286 C8284 1.391 . S
C8286 C8287 1.400 . S
C8287 C8286 1.400 . S
C8287 C8288 1.398 . S
C8287 C8293 1.491 . S
C8288 H8279 0.950 . S
C8288 C8287 1.398 . S
C8288 C8289 1.391 . S
C8289 H8277 0.950 . S
C8289 C8285 1.393 . S
C8289 C8288 1.391 . S
C8290 H8280 0.950 . S
C8290 C8291 1.386 . S
C8290 C8292 1.391 . S
C8291 C8290 1.386 . S
C8291 C8295 1.393 . S
C8292 H8281 0.950 . S
C8292 C8290 1.391 . S
C8292 C8293 1.400 . S
C8293 C8287 1.491 . S
C8293 C8292 1.400 . S
C8293 C8294 1.398 . S
C8294 H8282 0.950 . S
C8294 C8293 1.398 . S
C8294 C8295 1.391 . S
C8295 H8283 0.950 . S
C8295 C8291 1.393 . S
C8295 C8294 1.391 . S
H8296 C8304 0.950 . S
H8297 C8309 0.950 . S
H8298 C8306 0.950 . S
H8299 C8308 0.950 . S
H8300 C8310 0.950 . S
H8301 C8312 0.950 . S
H8302 C8314 0.950 . S
H8303 C8315 0.950 . S
C8304 H8296 0.950 . S
C8304 C8305 1.386 . S
C8304 C8306 1.391 . S
C8305 C8304 1.386 . S
C8305 C8309 1.393 . S
C8306 H8298 0.950 . S
C8306 C8304 1.391 . S
C8306 C8307 1.400 . S
C8307 C8306 1.400 . S
C8307 C8308 1.398 . S
C8307 C8313 1.491 . S
C8308 H8299 0.950 . S
C8308 C8307 1.398 . S
C8308 C8309 1.391 . S
C8309 H8297 0.950 . S
C8309 C8305 1.393 . S
C8309 C8308 1.391 . S
C8310 H8300 0.950 . S
C8310 C8311 1.386 . S
C8310 C8312 1.391 . S
C8311 C8310 1.386 . S
C8311 C8315 1.393 . S
C8312 H8301 0.950 . S
C8312 C8310 1.391 . S
C8312 C8313 1.400 . S
C8313 C8307 1.491 . S
C8313 C8312 1.400 . S
C8313 C8314 1.398 . S
C8314 H8302 0.950 . S
C8314 C8313 1.398 . S
C8314 C8315 1.391 . S
C8315 H8303 0.950 . S
C8315 C8311 1.393 . S
C8315 C8314 1.391 . S
H8316 C8324 0.950 . S
H8317 C8329 0.950 . S
H8318 C8326 0.950 . S
H8319 C8328 0.950 . S
H8320 C8330 0.950 . S
H8321 C8332 0.950 . S
H8322 C8334 0.950 . S
H8323 C8335 0.950 . S
C8324 H8316 0.950 . S
C8324 C8325 1.386 . S
C8324 C8326 1.391 . S
C8325 C8324 1.386 . S
C8325 C8329 1.393 . S
C8326 H8318 0.950 . S
C8326 C8324 1.391 . S
C8326 C8327 1.400 . S
C8327 C8326 1.400 . S
C8327 C8328 1.398 . S
C8327 C8333 1.491 . S
C8328 H8319 0.950 . S
C8328 C8327 1.398 . S
C8328 C8329 1.391 . S
C8329 H8317 0.950 . S
C8329 C8325 1.393 . S
C8329 C8328 1.391 . S
C8330 H8320 0.950 . S
C8330 C8331 1.386 . S
C8330 C8332 1.391 . S
C8331 C8330 1.386 . S
C8331 C8335 1.393 . S
C8332 H8321 0.950 . S
C8332 C8330 1.391 . S
C8332 C8333 1.400 . S
C8333 C8327 1.491 . S
C8333 C8332 1.400 . S
C8333 C8334 1.398 . S
C8334 H8322 0.950 . S
C8334 C8333 1.398 . S
C8334 C8335 1.391 . S
C8335 H8323 0.950 . S
C8335 C8331 1.393 . S
C8335 C8334 1.391 . S
H8336 C8344 0.950 . S
H8337 C8349 0.950 . S
H8338 C8346 0.950 . S
H8339 C8348 0.950 . S
H8340 C8350 0.950 . S
H8341 C8352 0.950 . S
H8342 C8354 0.950 . S
H8343 C8355 0.950 . S
C8344 H8336 0.950 . S
C8344 C8345 1.386 . S
C8344 C8346 1.391 . S
C8345 C8344 1.386 . S
C8345 C8349 1.393 . S
C8346 H8338 0.950 . S
C8346 C8344 1.391 . S
C8346 C8347 1.400 . S
C8347 C8346 1.400 . S
C8347 C8348 1.398 . S
C8347 C8353 1.491 . S
C8348 H8339 0.950 . S
C8348 C8347 1.398 . S
C8348 C8349 1.391 . S
C8349 H8337 0.950 . S
C8349 C8345 1.393 . S
C8349 C8348 1.391 . S
C8350 H8340 0.950 . S
C8350 C8351 1.386 . S
C8350 C8352 1.391 . S
C8351 C8350 1.386 . S
C8351 C8355 1.393 . S
C8352 H8341 0.950 . S
C8352 C8350 1.391 . S
C8352 C8353 1.400 . S
C8353 C8347 1.491 . S
C8353 C8352 1.400 . S
C8353 C8354 1.398 . S
C8354 H8342 0.950 . S
C8354 C8353 1.398 . S
C8354 C8355 1.391 . S
C8355 H8343 0.950 . S
C8355 C8351 1.393 . S
C8355 C8354 1.391 . S
H8356 C8364 0.950 . S
H8357 C8369 0.950 . S
H8358 C8366 0.950 . S
H8359 C8368 0.950 . S
H8360 C8370 0.950 . S
H8361 C8372 0.950 . S
H8362 C8374 0.950 . S
H8363 C8375 0.950 . S
C8364 H8356 0.950 . S
C8364 C8365 1.386 . S
C8364 C8366 1.391 . S
C8365 C8364 1.386 . S
C8365 C8369 1.393 . S
C8366 H8358 0.950 . S
C8366 C8364 1.391 . S
C8366 C8367 1.400 . S
C8367 C8366 1.400 . S
C8367 C8368 1.398 . S
C8367 C8373 1.491 . S
C8368 H8359 0.950 . S
C8368 C8367 1.398 . S
C8368 C8369 1.391 . S
C8369 H8357 0.950 . S
C8369 C8365 1.393 . S
C8369 C8368 1.391 . S
C8370 H8360 0.950 . S
C8370 C8371 1.386 . S
C8370 C8372 1.391 . S
C8371 C8370 1.386 . S
C8371 C8375 1.393 . S
C8372 H8361 0.950 . S
C8372 C8370 1.391 . S
C8372 C8373 1.400 . S
C8373 C8367 1.491 . S
C8373 C8372 1.400 . S
C8373 C8374 1.398 . S
C8374 H8362 0.950 . S
C8374 C8373 1.398 . S
C8374 C8375 1.391 . S
C8375 H8363 0.950 . S
C8375 C8371 1.393 . S
C8375 C8374 1.391 . S
H8376 C8384 0.950 . S
H8377 C8389 0.950 . S
H8378 C8386 0.950 . S
H8379 C8388 0.950 . S
H8380 C8390 0.950 . S
H8381 C8392 0.950 . S
H8382 C8394 0.950 . S
H8383 C8395 0.950 . S
C8384 H8376 0.950 . S
C8384 C8385 1.386 . S
C8384 C8386 1.391 . S
C8385 C8384 1.386 . S
C8385 C8389 1.393 . S
C8386 H8378 0.950 . S
C8386 C8384 1.391 . S
C8386 C8387 1.400 . S
C8387 C8386 1.400 . S
C8387 C8388 1.398 . S
C8387 C8393 1.491 . S
C8388 H8379 0.950 . S
C8388 C8387 1.398 . S
C8388 C8389 1.391 . S
C8389 H8377 0.950 . S
C8389 C8385 1.393 . S
C8389 C8388 1.391 . S
C8390 H8380 0.950 . S
C8390 C8391 1.386 . S
C8390 C8392 1.391 . S
C8391 C8390 1.386 . S
C8391 C8395 1.393 . S
C8392 H8381 0.950 . S
C8392 C8390 1.391 . S
C8392 C8393 1.400 . S
C8393 C8387 1.491 . S
C8393 C8392 1.400 . S
C8393 C8394 1.398 . S
C8394 H8382 0.950 . S
C8394 C8393 1.398 . S
C8394 C8395 1.391 . S
C8395 H8383 0.950 . S
C8395 C8391 1.393 . S
C8395 C8394 1.391 . S
H8396 C8404 0.950 . S
H8397 C8409 0.950 . S
H8398 C8406 0.950 . S
H8399 C8408 0.950 . S
H8400 C8410 0.950 . S
H8401 C8412 0.950 . S
H8402 C8414 0.950 . S
H8403 C8415 0.950 . S
C8404 H8396 0.950 . S
C8404 C8405 1.386 . S
C8404 C8406 1.391 . S
C8405 C8404 1.386 . S
C8405 C8409 1.393 . S
C8406 H8398 0.950 . S
C8406 C8404 1.391 . S
C8406 C8407 1.400 . S
C8407 C8406 1.400 . S
C8407 C8408 1.398 . S
C8407 C8413 1.491 . S
C8408 H8399 0.950 . S
C8408 C8407 1.398 . S
C8408 C8409 1.391 . S
C8409 H8397 0.950 . S
C8409 C8405 1.393 . S
C8409 C8408 1.391 . S
C8410 H8400 0.950 . S
C8410 C8411 1.386 . S
C8410 C8412 1.391 . S
C8411 C8410 1.386 . S
C8411 C8415 1.393 . S
C8412 H8401 0.950 . S
C8412 C8410 1.391 . S
C8412 C8413 1.400 . S
C8413 C8407 1.491 . S
C8413 C8412 1.400 . S
C8413 C8414 1.398 . S
C8414 H8402 0.950 . S
C8414 C8413 1.398 . S
C8414 C8415 1.391 . S
C8415 H8403 0.950 . S
C8415 C8411 1.393 . S
C8415 C8414 1.391 . S
H8416 C8424 0.950 . S
H8417 C8429 0.950 . S
H8418 C8426 0.950 . S
H8419 C8428 0.950 . S
H8420 C8430 0.950 . S
H8421 C8432 0.950 . S
H8422 C8434 0.950 . S
H8423 C8435 0.950 . S
C8424 H8416 0.950 . S
C8424 C8425 1.386 . S
C8424 C8426 1.391 . S
C8425 C8424 1.386 . S
C8425 C8429 1.393 . S
C8426 H8418 0.950 . S
C8426 C8424 1.391 . S
C8426 C8427 1.400 . S
C8427 C8426 1.400 . S
C8427 C8428 1.398 . S
C8427 C8433 1.491 . S
C8428 H8419 0.950 . S
C8428 C8427 1.398 . S
C8428 C8429 1.391 . S
C8429 H8417 0.950 . S
C8429 C8425 1.393 . S
C8429 C8428 1.391 . S
C8430 H8420 0.950 . S
C8430 C8431 1.386 . S
C8430 C8432 1.391 . S
C8431 C8430 1.386 . S
C8431 C8435 1.393 . S
C8432 H8421 0.950 . S
C8432 C8430 1.391 . S
C8432 C8433 1.400 . S
C8433 C8427 1.491 . S
C8433 C8432 1.400 . S
C8433 C8434 1.398 . S
C8434 H8422 0.950 . S
C8434 C8433 1.398 . S
C8434 C8435 1.391 . S
C8435 H8423 0.950 . S
C8435 C8431 1.393 . S
C8435 C8434 1.391 . S
H8436 C8444 0.950 . S
H8437 C8449 0.950 . S
H8438 C8446 0.950 . S
H8439 C8448 0.950 . S
H8440 C8450 0.950 . S
H8441 C8452 0.950 . S
H8442 C8454 0.950 . S
H8443 C8455 0.950 . S
C8444 H8436 0.950 . S
C8444 C8445 1.386 . S
C8444 C8446 1.391 . S
C8445 C8444 1.386 . S
C8445 C8449 1.393 . S
C8446 H8438 0.950 . S
C8446 C8444 1.391 . S
C8446 C8447 1.400 . S
C8447 C8446 1.400 . S
C8447 C8448 1.398 . S
C8447 C8453 1.491 . S
C8448 H8439 0.950 . S
C8448 C8447 1.398 . S
C8448 C8449 1.391 . S
C8449 H8437 0.950 . S
C8449 C8445 1.393 . S
C8449 C8448 1.391 . S
C8450 H8440 0.950 . S
C8450 C8451 1.386 . S
C8450 C8452 1.391 . S
C8451 C8450 1.386 . S
C8451 C8455 1.393 . S
C8452 H8441 0.950 . S
C8452 C8450 1.391 . S
C8452 C8453 1.400 . S
C8453 C8447 1.491 . S
C8453 C8452 1.400 . S
C8453 C8454 1.398 . S
C8454 H8442 0.950 . S
C8454 C8453 1.398 . S
C8454 C8455 1.391 . S
C8455 H8443 0.950 . S
C8455 C8451 1.393 . S
C8455 C8454 1.391 . S
H8456 C8464 0.950 . S
H8457 C8469 0.950 . S
H8458 C8466 0.950 . S
H8459 C8468 0.950 . S
H8460 C8470 0.950 . S
H8461 C8472 0.950 . S
H8462 C8474 0.950 . S
H8463 C8475 0.950 . S
C8464 H8456 0.950 . S
C8464 C8465 1.386 . S
C8464 C8466 1.391 . S
C8465 C8464 1.386 . S
C8465 C8469 1.393 . S
C8466 H8458 0.950 . S
C8466 C8464 1.391 . S
C8466 C8467 1.400 . S
C8467 C8466 1.400 . S
C8467 C8468 1.398 . S
C8467 C8473 1.491 . S
C8468 H8459 0.950 . S
C8468 C8467 1.398 . S
C8468 C8469 1.391 . S
C8469 H8457 0.950 . S
C8469 C8465 1.393 . S
C8469 C8468 1.391 . S
C8470 H8460 0.950 . S
C8470 C8471 1.386 . S
C8470 C8472 1.391 . S
C8471 C8470 1.386 . S
C8471 C8475 1.393 . S
C8472 H8461 0.950 . S
C8472 C8470 1.391 . S
C8472 C8473 1.400 . S
C8473 C8467 1.491 . S
C8473 C8472 1.400 . S
C8473 C8474 1.398 . S
C8474 H8462 0.950 . S
C8474 C8473 1.398 . S
C8474 C8475 1.391 . S
C8475 H8463 0.950 . S
C8475 C8471 1.393 . S
C8475 C8474 1.391 . S
H8476 C8484 0.950 . S
H8477 C8489 0.950 . S
H8478 C8486 0.950 . S
H8479 C8488 0.950 . S
H8480 C8490 0.950 . S
H8481 C8492 0.950 . S
H8482 C8494 0.950 . S
H8483 C8495 0.950 . S
C8484 H8476 0.950 . S
C8484 C8485 1.386 . S
C8484 C8486 1.391 . S
C8485 C8484 1.386 . S
C8485 C8489 1.393 . S
C8486 H8478 0.950 . S
C8486 C8484 1.391 . S
C8486 C8487 1.400 . S
C8487 C8486 1.400 . S
C8487 C8488 1.398 . S
C8487 C8493 1.491 . S
C8488 H8479 0.950 . S
C8488 C8487 1.398 . S
C8488 C8489 1.391 . S
C8489 H8477 0.950 . S
C8489 C8485 1.393 . S
C8489 C8488 1.391 . S
C8490 H8480 0.950 . S
C8490 C8491 1.386 . S
C8490 C8492 1.391 . S
C8491 C8490 1.386 . S
C8491 C8495 1.393 . S
C8492 H8481 0.950 . S
C8492 C8490 1.391 . S
C8492 C8493 1.400 . S
C8493 C8487 1.491 . S
C8493 C8492 1.400 . S
C8493 C8494 1.398 . S
C8494 H8482 0.950 . S
C8494 C8493 1.398 . S
C8494 C8495 1.391 . S
C8495 H8483 0.950 . S
C8495 C8491 1.393 . S
C8495 C8494 1.391 . S
H8496 C8504 0.950 . S
H8497 C8509 0.950 . S
H8498 C8506 0.950 . S
H8499 C8508 0.950 . S
H8500 C8510 0.950 . S
H8501 C8512 0.950 . S
H8502 C8514 0.950 . S
H8503 C8515 0.950 . S
C8504 H8496 0.950 . S
C8504 C8505 1.386 . S
C8504 C8506 1.391 . S
C8505 C8504 1.386 . S
C8505 C8509 1.393 . S
C8506 H8498 0.950 . S
C8506 C8504 1.391 . S
C8506 C8507 1.400 . S
C8507 C8506 1.400 . S
C8507 C8508 1.398 . S
C8507 C8513 1.491 . S
C8508 H8499 0.950 . S
C8508 C8507 1.398 . S
C8508 C8509 1.391 . S
C8509 H8497 0.950 . S
C8509 C8505 1.393 . S
C8509 C8508 1.391 . S
C8510 H8500 0.950 . S
C8510 C8511 1.386 . S
C8510 C8512 1.391 . S
C8511 C8510 1.386 . S
C8511 C8515 1.393 . S
C8512 H8501 0.950 . S
C8512 C8510 1.391 . S
C8512 C8513 1.400 . S
C8513 C8507 1.491 . S
C8513 C8512 1.400 . S
C8513 C8514 1.398 . S
C8514 H8502 0.950 . S
C8514 C8513 1.398 . S
C8514 C8515 1.391 . S
C8515 H8503 0.950 . S
C8515 C8511 1.393 . S
C8515 C8514 1.391 . S
H8516 C8524 0.950 . S
H8517 C8529 0.950 . S
H8518 C8526 0.950 . S
H8519 C8528 0.950 . S
H8520 C8530 0.950 . S
H8521 C8532 0.950 . S
H8522 C8534 0.950 . S
H8523 C8535 0.950 . S
C8524 H8516 0.950 . S
C8524 C8525 1.386 . S
C8524 C8526 1.391 . S
C8525 C8524 1.386 . S
C8525 C8529 1.393 . S
C8526 H8518 0.950 . S
C8526 C8524 1.391 . S
C8526 C8527 1.400 . S
C8527 C8526 1.400 . S
C8527 C8528 1.398 . S
C8527 C8533 1.491 . S
C8528 H8519 0.950 . S
C8528 C8527 1.398 . S
C8528 C8529 1.391 . S
C8529 H8517 0.950 . S
C8529 C8525 1.393 . S
C8529 C8528 1.391 . S
C8530 H8520 0.950 . S
C8530 C8531 1.386 . S
C8530 C8532 1.391 . S
C8531 C8530 1.386 . S
C8531 C8535 1.393 . S
C8532 H8521 0.950 . S
C8532 C8530 1.391 . S
C8532 C8533 1.400 . S
C8533 C8527 1.491 . S
C8533 C8532 1.400 . S
C8533 C8534 1.398 . S
C8534 H8522 0.950 . S
C8534 C8533 1.398 . S
C8534 C8535 1.391 . S
C8535 H8523 0.950 . S
C8535 C8531 1.393 . S
C8535 C8534 1.391 . S
H8536 C8544 0.950 . S
H8537 C8549 0.950 . S
H8538 C8546 0.950 . S
H8539 C8548 0.950 . S
H8540 C8550 0.950 . S
H8541 C8552 0.950 . S
H8542 C8554 0.950 . S
H8543 C8555 0.950 . S
C8544 H8536 0.950 . S
C8544 C8545 1.386 . S
C8544 C8546 1.391 . S
C8545 C8544 1.386 . S
C8545 C8549 1.393 . S
C8546 H8538 0.950 . S
C8546 C8544 1.391 . S
C8546 C8547 1.400 . S
C8547 C8546 1.400 . S
C8547 C8548 1.398 . S
C8547 C8553 1.491 . S
C8548 H8539 0.950 . S
C8548 C8547 1.398 . S
C8548 C8549 1.391 . S
C8549 H8537 0.950 . S
C8549 C8545 1.393 . S
C8549 C8548 1.391 . S
C8550 H8540 0.950 . S
C8550 C8551 1.386 . S
C8550 C8552 1.391 . S
C8551 C8550 1.386 . S
C8551 C8555 1.393 . S
C8552 H8541 0.950 . S
C8552 C8550 1.391 . S
C8552 C8553 1.400 . S
C8553 C8547 1.491 . S
C8553 C8552 1.400 . S
C8553 C8554 1.398 . S
C8554 H8542 0.950 . S
C8554 C8553 1.398 . S
C8554 C8555 1.391 . S
C8555 H8543 0.950 . S
C8555 C8551 1.393 . S
C8555 C8554 1.391 . S
H8556 C8564 0.950 . S
H8557 C8569 0.950 . S
H8558 C8566 0.950 . S
H8559 C8568 0.950 . S
H8560 C8570 0.950 . S
H8561 C8572 0.950 . S
H8562 C8574 0.950 . S
H8563 C8575 0.950 . S
C8564 H8556 0.950 . S
C8564 C8565 1.386 . S
C8564 C8566 1.391 . S
C8565 C8564 1.386 . S
C8565 C8569 1.393 . S
C8566 H8558 0.950 . S
C8566 C8564 1.391 . S
C8566 C8567 1.400 . S
C8567 C8566 1.400 . S
C8567 C8568 1.398 . S
C8567 C8573 1.491 . S
C8568 H8559 0.950 . S
C8568 C8567 1.398 . S
C8568 C8569 1.391 . S
C8569 H8557 0.950 . S
C8569 C8565 1.393 . S
C8569 C8568 1.391 . S
C8570 H8560 0.950 . S
C8570 C8571 1.386 . S
C8570 C8572 1.391 . S
C8571 C8570 1.386 . S
C8571 C8575 1.393 . S
C8572 H8561 0.950 . S
C8572 C8570 1.391 . S
C8572 C8573 1.400 . S
C8573 C8567 1.491 . S
C8573 C8572 1.400 . S
C8573 C8574 1.398 . S
C8574 H8562 0.950 . S
C8574 C8573 1.398 . S
C8574 C8575 1.391 . S
C8575 H8563 0.950 . S
C8575 C8571 1.393 . S
C8575 C8574 1.391 . S
H8576 C8584 0.950 . S
H8577 C8589 0.950 . S
H8578 C8586 0.950 . S
H8579 C8588 0.950 . S
H8580 C8590 0.950 . S
H8581 C8592 0.950 . S
H8582 C8594 0.950 . S
H8583 C8595 0.950 . S
C8584 H8576 0.950 . S
C8584 C8585 1.386 . S
C8584 C8586 1.391 . S
C8585 C8584 1.386 . S
C8585 C8589 1.393 . S
C8586 H8578 0.950 . S
C8586 C8584 1.391 . S
C8586 C8587 1.400 . S
C8587 C8586 1.400 . S
C8587 C8588 1.398 . S
C8587 C8593 1.491 . S
C8588 H8579 0.950 . S
C8588 C8587 1.398 . S
C8588 C8589 1.391 . S
C8589 H8577 0.950 . S
C8589 C8585 1.393 . S
C8589 C8588 1.391 . S
C8590 H8580 0.950 . S
C8590 C8591 1.386 . S
C8590 C8592 1.391 . S
C8591 C8590 1.386 . S
C8591 C8595 1.393 . S
C8592 H8581 0.950 . S
C8592 C8590 1.391 . S
C8592 C8593 1.400 . S
C8593 C8587 1.491 . S
C8593 C8592 1.400 . S
C8593 C8594 1.398 . S
C8594 H8582 0.950 . S
C8594 C8593 1.398 . S
C8594 C8595 1.391 . S
C8595 H8583 0.950 . S
C8595 C8591 1.393 . S
C8595 C8594 1.391 . S
H8596 C8604 0.950 . S
H8597 C8609 0.950 . S
H8598 C8606 0.950 . S
H8599 C8608 0.950 . S
H8600 C8610 0.950 . S
H8601 C8612 0.950 . S
H8602 C8614 0.950 . S
H8603 C8615 0.950 . S
C8604 H8596 0.950 . S
C8604 C8605 1.386 . S
C8604 C8606 1.391 . S
C8605 C8604 1.386 . S
C8605 C8609 1.393 . S
C8606 H8598 0.950 . S
C8606 C8604 1.391 . S
C8606 C8607 1.400 . S
C8607 C8606 1.400 . S
C8607 C8608 1.398 . S
C8607 C8613 1.491 . S
C8608 H8599 0.950 . S
C8608 C8607 1.398 . S
C8608 C8609 1.391 . S
C8609 H8597 0.950 . S
C8609 C8605 1.393 . S
C8609 C8608 1.391 . S
C8610 H8600 0.950 . S
C8610 C8611 1.386 . S
C8610 C8612 1.391 . S
C8611 C8610 1.386 . S
C8611 C8615 1.393 . S
C8612 H8601 0.950 . S
C8612 C8610 1.391 . S
C8612 C8613 1.400 . S
C8613 C8607 1.491 . S
C8613 C8612 1.400 . S
C8613 C8614 1.398 . S
C8614 H8602 0.950 . S
C8614 C8613 1.398 . S
C8614 C8615 1.391 . S
C8615 H8603 0.950 . S
C8615 C8611 1.393 . S
C8615 C8614 1.391 . S
H8616 C8624 0.950 . S
H8617 C8629 0.950 . S
H8618 C8626 0.950 . S
H8619 C8628 0.950 . S
H8620 C8630 0.950 . S
H8621 C8632 0.950 . S
H8622 C8634 0.950 . S
H8623 C8635 0.950 . S
C8624 H8616 0.950 . S
C8624 C8625 1.386 . S
C8624 C8626 1.391 . S
C8625 C8624 1.386 . S
C8625 C8629 1.393 . S
C8626 H8618 0.950 . S
C8626 C8624 1.391 . S
C8626 C8627 1.400 . S
C8627 C8626 1.400 . S
C8627 C8628 1.398 . S
C8627 C8633 1.491 . S
C8628 H8619 0.950 . S
C8628 C8627 1.398 . S
C8628 C8629 1.391 . S
C8629 H8617 0.950 . S
C8629 C8625 1.393 . S
C8629 C8628 1.391 . S
C8630 H8620 0.950 . S
C8630 C8631 1.386 . S
C8630 C8632 1.391 . S
C8631 C8630 1.386 . S
C8631 C8635 1.393 . S
C8632 H8621 0.950 . S
C8632 C8630 1.391 . S
C8632 C8633 1.400 . S
C8633 C8627 1.491 . S
C8633 C8632 1.400 . S
C8633 C8634 1.398 . S
C8634 H8622 0.950 . S
C8634 C8633 1.398 . S
C8634 C8635 1.391 . S
C8635 H8623 0.950 . S
C8635 C8631 1.393 . S
C8635 C8634 1.391 . S
H8636 C8644 0.950 . S
H8637 C8649 0.950 . S
H8638 C8646 0.950 . S
H8639 C8648 0.950 . S
H8640 C8650 0.950 . S
H8641 C8652 0.950 . S
H8642 C8654 0.950 . S
H8643 C8655 0.950 . S
C8644 H8636 0.950 . S
C8644 C8645 1.386 . S
C8644 C8646 1.391 . S
C8645 C8644 1.386 . S
C8645 C8649 1.393 . S
C8646 H8638 0.950 . S
C8646 C8644 1.391 . S
C8646 C8647 1.400 . S
C8647 C8646 1.400 . S
C8647 C8648 1.398 . S
C8647 C8653 1.491 . S
C8648 H8639 0.950 . S
C8648 C8647 1.398 . S
C8648 C8649 1.391 . S
C8649 H8637 0.950 . S
C8649 C8645 1.393 . S
C8649 C8648 1.391 . S
C8650 H8640 0.950 . S
C8650 C8651 1.386 . S
C8650 C8652 1.391 . S
C8651 C8650 1.386 . S
C8651 C8655 1.393 . S
C8652 H8641 0.950 . S
C8652 C8650 1.391 . S
C8652 C8653 1.400 . S
C8653 C8647 1.491 . S
C8653 C8652 1.400 . S
C8653 C8654 1.398 . S
C8654 H8642 0.950 . S
C8654 C8653 1.398 . S
C8654 C8655 1.391 . S
C8655 H8643 0.950 . S
C8655 C8651 1.393 . S
C8655 C8654 1.391 . S
H8656 C8664 0.950 . S
H8657 C8669 0.950 . S
H8658 C8666 0.950 . S
H8659 C8668 0.950 . S
H8660 C8670 0.950 . S
H8661 C8672 0.950 . S
H8662 C8674 0.950 . S
H8663 C8675 0.950 . S
C8664 H8656 0.950 . S
C8664 C8665 1.386 . S
C8664 C8666 1.391 . S
C8665 C8664 1.386 . S
C8665 C8669 1.393 . S
C8666 H8658 0.950 . S
C8666 C8664 1.391 . S
C8666 C8667 1.400 . S
C8667 C8666 1.400 . S
C8667 C8668 1.398 . S
C8667 C8673 1.491 . S
C8668 H8659 0.950 . S
C8668 C8667 1.398 . S
C8668 C8669 1.391 . S
C8669 H8657 0.950 . S
C8669 C8665 1.393 . S
C8669 C8668 1.391 . S
C8670 H8660 0.950 . S
C8670 C8671 1.386 . S
C8670 C8672 1.391 . S
C8671 C8670 1.386 . S
C8671 C8675 1.393 . S
C8672 H8661 0.950 . S
C8672 C8670 1.391 . S
C8672 C8673 1.400 . S
C8673 C8667 1.491 . S
C8673 C8672 1.400 . S
C8673 C8674 1.398 . S
C8674 H8662 0.950 . S
C8674 C8673 1.398 . S
C8674 C8675 1.391 . S
C8675 H8663 0.950 . S
C8675 C8671 1.393 . S
C8675 C8674 1.391 . S
H8676 C8684 0.950 . S
H8677 C8689 0.950 . S
H8678 C8686 0.950 . S
H8679 C8688 0.950 . S
H8680 C8690 0.950 . S
H8681 C8692 0.950 . S
H8682 C8694 0.950 . S
H8683 C8695 0.950 . S
C8684 H8676 0.950 . S
C8684 C8685 1.386 . S
C8684 C8686 1.391 . S
C8685 C8684 1.386 . S
C8685 C8689 1.393 . S
C8686 H8678 0.950 . S
C8686 C8684 1.391 . S
C8686 C8687 1.400 . S
C8687 C8686 1.400 . S
C8687 C8688 1.398 . S
C8687 C8693 1.491 . S
C8688 H8679 0.950 . S
C8688 C8687 1.398 . S
C8688 C8689 1.391 . S
C8689 H8677 0.950 . S
C8689 C8685 1.393 . S
C8689 C8688 1.391 . S
C8690 H8680 0.950 . S
C8690 C8691 1.386 . S
C8690 C8692 1.391 . S
C8691 C8690 1.386 . S
C8691 C8695 1.393 . S
C8692 H8681 0.950 . S
C8692 C8690 1.391 . S
C8692 C8693 1.400 . S
C8693 C8687 1.491 . S
C8693 C8692 1.400 . S
C8693 C8694 1.398 . S
C8694 H8682 0.950 . S
C8694 C8693 1.398 . S
C8694 C8695 1.391 . S
C8695 H8683 0.950 . S
C8695 C8691 1.393 . S
C8695 C8694 1.391 . S
H8696 C8704 0.950 . S
H8697 C8709 0.950 . S
H8698 C8706 0.950 . S
H8699 C8708 0.950 . S
H8700 C8710 0.950 . S
H8701 C8712 0.950 . S
H8702 C8714 0.950 . S
H8703 C8715 0.950 . S
C8704 H8696 0.950 . S
C8704 C8705 1.386 . S
C8704 C8706 1.391 . S
C8705 C8704 1.386 . S
C8705 C8709 1.393 . S
C8706 H8698 0.950 . S
C8706 C8704 1.391 . S
C8706 C8707 1.400 . S
C8707 C8706 1.400 . S
C8707 C8708 1.398 . S
C8707 C8713 1.491 . S
C8708 H8699 0.950 . S
C8708 C8707 1.398 . S
C8708 C8709 1.391 . S
C8709 H8697 0.950 . S
C8709 C8705 1.393 . S
C8709 C8708 1.391 . S
C8710 H8700 0.950 . S
C8710 C8711 1.386 . S
C8710 C8712 1.391 . S
C8711 C8710 1.386 . S
C8711 C8715 1.393 . S
C8712 H8701 0.950 . S
C8712 C8710 1.391 . S
C8712 C8713 1.400 . S
C8713 C8707 1.491 . S
C8713 C8712 1.400 . S
C8713 C8714 1.398 . S
C8714 H8702 0.950 . S
C8714 C8713 1.398 . S
C8714 C8715 1.391 . S
C8715 H8703 0.950 . S
C8715 C8711 1.393 . S
C8715 C8714 1.391 . S
H8716 C8724 0.950 . S
H8717 C8729 0.950 . S
H8718 C8726 0.950 . S
H8719 C8728 0.950 . S
H8720 C8730 0.950 . S
H8721 C8732 0.950 . S
H8722 C8734 0.950 . S
H8723 C8735 0.950 . S
C8724 H8716 0.950 . S
C8724 C8725 1.386 . S
C8724 C8726 1.391 . S
C8725 C8724 1.386 . S
C8725 C8729 1.393 . S
C8726 H8718 0.950 . S
C8726 C8724 1.391 . S
C8726 C8727 1.400 . S
C8727 C8726 1.400 . S
C8727 C8728 1.398 . S
C8727 C8733 1.491 . S
C8728 H8719 0.950 . S
C8728 C8727 1.398 . S
C8728 C8729 1.391 . S
C8729 H8717 0.950 . S
C8729 C8725 1.393 . S
C8729 C8728 1.391 . S
C8730 H8720 0.950 . S
C8730 C8731 1.386 . S
C8730 C8732 1.391 . S
C8731 C8730 1.386 . S
C8731 C8735 1.393 . S
C8732 H8721 0.950 . S
C8732 C8730 1.391 . S
C8732 C8733 1.400 . S
C8733 C8727 1.491 . S
C8733 C8732 1.400 . S
C8733 C8734 1.398 . S
C8734 H8722 0.950 . S
C8734 C8733 1.398 . S
C8734 C8735 1.391 . S
C8735 H8723 0.950 . S
C8735 C8731 1.393 . S
C8735 C8734 1.391 . S
H8736 C8744 0.950 . S
H8737 C8749 0.950 . S
H8738 C8746 0.950 . S
H8739 C8748 0.950 . S
H8740 C8750 0.950 . S
H8741 C8752 0.950 . S
H8742 C8754 0.950 . S
H8743 C8755 0.950 . S
C8744 H8736 0.950 . S
C8744 C8745 1.386 . S
C8744 C8746 1.391 . S
C8745 C8744 1.386 . S
C8745 C8749 1.393 . S
C8746 H8738 0.950 . S
C8746 C8744 1.391 . S
C8746 C8747 1.400 . S
C8747 C8746 1.400 . S
C8747 C8748 1.398 . S
C8747 C8753 1.491 . S
C8748 H8739 0.950 . S
C8748 C8747 1.398 . S
C8748 C8749 1.391 . S
C8749 H8737 0.950 . S
C8749 C8745 1.393 . S
C8749 C8748 1.391 . S
C8750 H8740 0.950 . S
C8750 C8751 1.386 . S
C8750 C8752 1.391 . S
C8751 C8750 1.386 . S
C8751 C8755 1.393 . S
C8752 H8741 0.950 . S
C8752 C8750 1.391 . S
C8752 C8753 1.400 . S
C8753 C8747 1.491 . S
C8753 C8752 1.400 . S
C8753 C8754 1.398 . S
C8754 H8742 0.950 . S
C8754 C8753 1.398 . S
C8754 C8755 1.391 . S
C8755 H8743 0.950 . S
C8755 C8751 1.393 . S
C8755 C8754 1.391 . S
H8756 C8764 0.950 . S
H8757 C8769 0.950 . S
H8758 C8766 0.950 . S
H8759 C8768 0.950 . S
H8760 C8770 0.950 . S
H8761 C8772 0.950 . S
H8762 C8774 0.950 . S
H8763 C8775 0.950 . S
C8764 H8756 0.950 . S
C8764 C8765 1.386 . S
C8764 C8766 1.391 . S
C8765 C8764 1.386 . S
C8765 C8769 1.393 . S
C8766 H8758 0.950 . S
C8766 C8764 1.391 . S
C8766 C8767 1.400 . S
C8767 C8766 1.400 . S
C8767 C8768 1.398 . S
C8767 C8773 1.491 . S
C8768 H8759 0.950 . S
C8768 C8767 1.398 . S
C8768 C8769 1.391 . S
C8769 H8757 0.950 . S
C8769 C8765 1.393 . S
C8769 C8768 1.391 . S
C8770 H8760 0.950 . S
C8770 C8771 1.386 . S
C8770 C8772 1.391 . S
C8771 C8770 1.386 . S
C8771 C8775 1.393 . S
C8772 H8761 0.950 . S
C8772 C8770 1.391 . S
C8772 C8773 1.400 . S
C8773 C8767 1.491 . S
C8773 C8772 1.400 . S
C8773 C8774 1.398 . S
C8774 H8762 0.950 . S
C8774 C8773 1.398 . S
C8774 C8775 1.391 . S
C8775 H8763 0.950 . S
C8775 C8771 1.393 . S
C8775 C8774 1.391 . S
H8776 C8784 0.950 . S
H8777 C8789 0.950 . S
H8778 C8786 0.950 . S
H8779 C8788 0.950 . S
H8780 C8790 0.950 . S
H8781 C8792 0.950 . S
H8782 C8794 0.950 . S
H8783 C8795 0.950 . S
C8784 H8776 0.950 . S
C8784 C8785 1.386 . S
C8784 C8786 1.391 . S
C8785 C8784 1.386 . S
C8785 C8789 1.393 . S
C8786 H8778 0.950 . S
C8786 C8784 1.391 . S
C8786 C8787 1.400 . S
C8787 C8786 1.400 . S
C8787 C8788 1.398 . S
C8787 C8793 1.491 . S
C8788 H8779 0.950 . S
C8788 C8787 1.398 . S
C8788 C8789 1.391 . S
C8789 H8777 0.950 . S
C8789 C8785 1.393 . S
C8789 C8788 1.391 . S
C8790 H8780 0.950 . S
C8790 C8791 1.386 . S
C8790 C8792 1.391 . S
C8791 C8790 1.386 . S
C8791 C8795 1.393 . S
C8792 H8781 0.950 . S
C8792 C8790 1.391 . S
C8792 C8793 1.400 . S
C8793 C8787 1.491 . S
C8793 C8792 1.400 . S
C8793 C8794 1.398 . S
C8794 H8782 0.950 . S
C8794 C8793 1.398 . S
C8794 C8795 1.391 . S
C8795 H8783 0.950 . S
C8795 C8791 1.393 . S
C8795 C8794 1.391 . S
H8796 C8804 0.950 . S
H8797 C8809 0.950 . S
H8798 C8806 0.950 . S
H8799 C8808 0.950 . S
H8800 C8810 0.950 . S
H8801 C8812 0.950 . S
H8802 C8814 0.950 . S
H8803 C8815 0.950 . S
C8804 H8796 0.950 . S
C8804 C8805 1.386 . S
C8804 C8806 1.391 . S
C8805 C8804 1.386 . S
C8805 C8809 1.393 . S
C8806 H8798 0.950 . S
C8806 C8804 1.391 . S
C8806 C8807 1.400 . S
C8807 C8806 1.400 . S
C8807 C8808 1.398 . S
C8807 C8813 1.491 . S
C8808 H8799 0.950 . S
C8808 C8807 1.398 . S
C8808 C8809 1.391 . S
C8809 H8797 0.950 . S
C8809 C8805 1.393 . S
C8809 C8808 1.391 . S
C8810 H8800 0.950 . S
C8810 C8811 1.386 . S
C8810 C8812 1.391 . S
C8811 C8810 1.386 . S
C8811 C8815 1.393 . S
C8812 H8801 0.950 . S
C8812 C8810 1.391 . S
C8812 C8813 1.400 . S
C8813 C8807 1.491 . S
C8813 C8812 1.400 . S
C8813 C8814 1.398 . S
C8814 H8802 0.950 . S
C8814 C8813 1.398 . S
C8814 C8815 1.391 . S
C8815 H8803 0.950 . S
C8815 C8811 1.393 . S
C8815 C8814 1.391 . S
H8816 C8824 0.950 . S
H8817 C8829 0.950 . S
H8818 C8826 0.950 . S
H8819 C8828 0.950 . S
H8820 C8830 0.950 . S
H8821 C8832 0.950 . S
H8822 C8834 0.950 . S
H8823 C8835 0.950 . S
C8824 H8816 0.950 . S
C8824 C8825 1.386 . S
C8824 C8826 1.391 . S
C8825 C8824 1.386 . S
C8825 C8829 1.393 . S
C8826 H8818 0.950 . S
C8826 C8824 1.391 . S
C8826 C8827 1.400 . S
C8827 C8826 1.400 . S
C8827 C8828 1.398 . S
C8827 C8833 1.491 . S
C8828 H8819 0.950 . S
C8828 C8827 1.398 . S
C8828 C8829 1.391 . S
C8829 H8817 0.950 . S
C8829 C8825 1.393 . S
C8829 C8828 1.391 . S
C8830 H8820 0.950 . S
C8830 C8831 1.386 . S
C8830 C8832 1.391 . S
C8831 C8830 1.386 . S
C8831 C8835 1.393 . S
C8832 H8821 0.950 . S
C8832 C8830 1.391 . S
C8832 C8833 1.400 . S
C8833 C8827 1.491 . S
C8833 C8832 1.400 . S
C8833 C8834 1.398 . S
C8834 H8822 0.950 . S
C8834 C8833 1.398 . S
C8834 C8835 1.391 . S
C8835 H8823 0.950 . S
C8835 C8831 1.393 . S
C8835 C8834 1.391 . S
H8836 C8844 0.950 . S
H8837 C8849 0.950 . S
H8838 C8846 0.950 . S
H8839 C8848 0.950 . S
H8840 C8850 0.950 . S
H8841 C8852 0.950 . S
H8842 C8854 0.950 . S
H8843 C8855 0.950 . S
C8844 H8836 0.950 . S
C8844 C8845 1.386 . S
C8844 C8846 1.391 . S
C8845 C8844 1.386 . S
C8845 C8849 1.393 . S
C8846 H8838 0.950 . S
C8846 C8844 1.391 . S
C8846 C8847 1.400 . S
C8847 C8846 1.400 . S
C8847 C8848 1.398 . S
C8847 C8853 1.491 . S
C8848 H8839 0.950 . S
C8848 C8847 1.398 . S
C8848 C8849 1.391 . S
C8849 H8837 0.950 . S
C8849 C8845 1.393 . S
C8849 C8848 1.391 . S
C8850 H8840 0.950 . S
C8850 C8851 1.386 . S
C8850 C8852 1.391 . S
C8851 C8850 1.386 . S
C8851 C8855 1.393 . S
C8852 H8841 0.950 . S
C8852 C8850 1.391 . S
C8852 C8853 1.400 . S
C8853 C8847 1.491 . S
C8853 C8852 1.400 . S
C8853 C8854 1.398 . S
C8854 H8842 0.950 . S
C8854 C8853 1.398 . S
C8854 C8855 1.391 . S
C8855 H8843 0.950 . S
C8855 C8851 1.393 . S
C8855 C8854 1.391 . S
H8856 C8864 0.950 . S
H8857 C8869 0.950 . S
H8858 C8866 0.950 . S
H8859 C8868 0.950 . S
H8860 C8870 0.950 . S
H8861 C8872 0.950 . S
H8862 C8874 0.950 . S
H8863 C8875 0.950 . S
C8864 H8856 0.950 . S
C8864 C8865 1.386 . S
C8864 C8866 1.391 . S
C8865 C8864 1.386 . S
C8865 C8869 1.393 . S
C8866 H8858 0.950 . S
C8866 C8864 1.391 . S
C8866 C8867 1.400 . S
C8867 C8866 1.400 . S
C8867 C8868 1.398 . S
C8867 C8873 1.491 . S
C8868 H8859 0.950 . S
C8868 C8867 1.398 . S
C8868 C8869 1.391 . S
C8869 H8857 0.950 . S
C8869 C8865 1.393 . S
C8869 C8868 1.391 . S
C8870 H8860 0.950 . S
C8870 C8871 1.386 . S
C8870 C8872 1.391 . S
C8871 C8870 1.386 . S
C8871 C8875 1.393 . S
C8872 H8861 0.950 . S
C8872 C8870 1.391 . S
C8872 C8873 1.400 . S
C8873 C8867 1.491 . S
C8873 C8872 1.400 . S
C8873 C8874 1.398 . S
C8874 H8862 0.950 . S
C8874 C8873 1.398 . S
C8874 C8875 1.391 . S
C8875 H8863 0.950 . S
C8875 C8871 1.393 . S
C8875 C8874 1.391 . S
H8876 C8884 0.950 . S
H8877 C8889 0.950 . S
H8878 C8886 0.950 . S
H8879 C8888 0.950 . S
H8880 C8890 0.950 . S
H8881 C8892 0.950 . S
H8882 C8894 0.950 . S
H8883 C8895 0.950 . S
C8884 H8876 0.950 . S
C8884 C8885 1.386 . S
C8884 C8886 1.391 . S
C8885 C8884 1.386 . S
C8885 C8889 1.393 . S
C8886 H8878 0.950 . S
C8886 C8884 1.391 . S
C8886 C8887 1.400 . S
C8887 C8886 1.400 . S
C8887 C8888 1.398 . S
C8887 C8893 1.491 . S
C8888 H8879 0.950 . S
C8888 C8887 1.398 . S
C8888 C8889 1.391 . S
C8889 H8877 0.950 . S
C8889 C8885 1.393 . S
C8889 C8888 1.391 . S
C8890 H8880 0.950 . S
C8890 C8891 1.386 . S
C8890 C8892 1.391 . S
C8891 C8890 1.386 . S
C8891 C8895 1.393 . S
C8892 H8881 0.950 . S
C8892 C8890 1.391 . S
C8892 C8893 1.400 . S
C8893 C8887 1.491 . S
C8893 C8892 1.400 . S
C8893 C8894 1.398 . S
C8894 H8882 0.950 . S
C8894 C8893 1.398 . S
C8894 C8895 1.391 . S
C8895 H8883 0.950 . S
C8895 C8891 1.393 . S
C8895 C8894 1.391 . S
H8896 C8904 0.950 . S
H8897 C8909 0.950 . S
H8898 C8906 0.950 . S
H8899 C8908 0.950 . S
H8900 C8910 0.950 . S
H8901 C8912 0.950 . S
H8902 C8914 0.950 . S
H8903 C8915 0.950 . S
C8904 H8896 0.950 . S
C8904 C8905 1.386 . S
C8904 C8906 1.391 . S
C8905 C8904 1.386 . S
C8905 C8909 1.393 . S
C8906 H8898 0.950 . S
C8906 C8904 1.391 . S
C8906 C8907 1.400 . S
C8907 C8906 1.400 . S
C8907 C8908 1.398 . S
C8907 C8913 1.491 . S
C8908 H8899 0.950 . S
C8908 C8907 1.398 . S
C8908 C8909 1.391 . S
C8909 H8897 0.950 . S
C8909 C8905 1.393 . S
C8909 C8908 1.391 . S
C8910 H8900 0.950 . S
C8910 C8911 1.386 . S
C8910 C8912 1.391 . S
C8911 C8910 1.386 . S
C8911 C8915 1.393 . S
C8912 H8901 0.950 . S
C8912 C8910 1.391 . S
C8912 C8913 1.400 . S
C8913 C8907 1.491 . S
C8913 C8912 1.400 . S
C8913 C8914 1.398 . S
C8914 H8902 0.950 . S
C8914 C8913 1.398 . S
C8914 C8915 1.391 . S
C8915 H8903 0.950 . S
C8915 C8911 1.393 . S
C8915 C8914 1.391 . S
H8916 C8924 0.950 . S
H8917 C8929 0.950 . S
H8918 C8926 0.950 . S
H8919 C8928 0.950 . S
H8920 C8930 0.950 . S
H8921 C8932 0.950 . S
H8922 C8934 0.950 . S
H8923 C8935 0.950 . S
C8924 H8916 0.950 . S
C8924 C8925 1.386 . S
C8924 C8926 1.391 . S
C8925 C8924 1.386 . S
C8925 C8929 1.393 . S
C8926 H8918 0.950 . S
C8926 C8924 1.391 . S
C8926 C8927 1.400 . S
C8927 C8926 1.400 . S
C8927 C8928 1.398 . S
C8927 C8933 1.491 . S
C8928 H8919 0.950 . S
C8928 C8927 1.398 . S
C8928 C8929 1.391 . S
C8929 H8917 0.950 . S
C8929 C8925 1.393 . S
C8929 C8928 1.391 . S
C8930 H8920 0.950 . S
C8930 C8931 1.386 . S
C8930 C8932 1.391 . S
C8931 C8930 1.386 . S
C8931 C8935 1.393 . S
C8932 H8921 0.950 . S
C8932 C8930 1.391 . S
C8932 C8933 1.400 . S
C8933 C8927 1.491 . S
C8933 C8932 1.400 . S
C8933 C8934 1.398 . S
C8934 H8922 0.950 . S
C8934 C8933 1.398 . S
C8934 C8935 1.391 . S
C8935 H8923 0.950 . S
C8935 C8931 1.393 . S
C8935 C8934 1.391 . S
H8936 C8944 0.950 . S
H8937 C8949 0.950 . S
H8938 C8946 0.950 . S
H8939 C8948 0.950 . S
H8940 C8950 0.950 . S
H8941 C8952 0.950 . S
H8942 C8954 0.950 . S
H8943 C8955 0.950 . S
C8944 H8936 0.950 . S
C8944 C8945 1.386 . S
C8944 C8946 1.391 . S
C8945 C8944 1.386 . S
C8945 C8949 1.393 . S
C8946 H8938 0.950 . S
C8946 C8944 1.391 . S
C8946 C8947 1.400 . S
C8947 C8946 1.400 . S
C8947 C8948 1.398 . S
C8947 C8953 1.491 . S
C8948 H8939 0.950 . S
C8948 C8947 1.398 . S
C8948 C8949 1.391 . S
C8949 H8937 0.950 . S
C8949 C8945 1.393 . S
C8949 C8948 1.391 . S
C8950 H8940 0.950 . S
C8950 C8951 1.386 . S
C8950 C8952 1.391 . S
C8951 C8950 1.386 . S
C8951 C8955 1.393 . S
C8952 H8941 0.950 . S
C8952 C8950 1.391 . S
C8952 C8953 1.400 . S
C8953 C8947 1.491 . S
C8953 C8952 1.400 . S
C8953 C8954 1.398 . S
C8954 H8942 0.950 . S
C8954 C8953 1.398 . S
C8954 C8955 1.391 . S
C8955 H8943 0.950 . S
C8955 C8951 1.393 . S
C8955 C8954 1.391 . S
H8956 C8964 0.950 . S
H8957 C8969 0.950 . S
H8958 C8966 0.950 . S
H8959 C8968 0.950 . S
H8960 C8970 0.950 . S
H8961 C8972 0.950 . S
H8962 C8974 0.950 . S
H8963 C8975 0.950 . S
C8964 H8956 0.950 . S
C8964 C8965 1.386 . S
C8964 C8966 1.391 . S
C8965 C8964 1.386 . S
C8965 C8969 1.393 . S
C8966 H8958 0.950 . S
C8966 C8964 1.391 . S
C8966 C8967 1.400 . S
C8967 C8966 1.400 . S
C8967 C8968 1.398 . S
C8967 C8973 1.491 . S
C8968 H8959 0.950 . S
C8968 C8967 1.398 . S
C8968 C8969 1.391 . S
C8969 H8957 0.950 . S
C8969 C8965 1.393 . S
C8969 C8968 1.391 . S
C8970 H8960 0.950 . S
C8970 C8971 1.386 . S
C8970 C8972 1.391 . S
C8971 C8970 1.386 . S
C8971 C8975 1.393 . S
C8972 H8961 0.950 . S
C8972 C8970 1.391 . S
C8972 C8973 1.400 . S
C8973 C8967 1.491 . S
C8973 C8972 1.400 . S
C8973 C8974 1.398 . S
C8974 H8962 0.950 . S
C8974 C8973 1.398 . S
C8974 C8975 1.391 . S
C8975 H8963 0.950 . S
C8975 C8971 1.393 . S
C8975 C8974 1.391 . S
H8976 C8984 0.950 . S
H8977 C8989 0.950 . S
H8978 C8986 0.950 . S
H8979 C8988 0.950 . S
H8980 C8990 0.950 . S
H8981 C8992 0.950 . S
H8982 C8994 0.950 . S
H8983 C8995 0.950 . S
C8984 H8976 0.950 . S
C8984 C8985 1.386 . S
C8984 C8986 1.391 . S
C8985 C8984 1.386 . S
C8985 C8989 1.393 . S
C8986 H8978 0.950 . S
C8986 C8984 1.391 . S
C8986 C8987 1.400 . S
C8987 C8986 1.400 . S
C8987 C8988 1.398 . S
C8987 C8993 1.491 . S
C8988 H8979 0.950 . S
C8988 C8987 1.398 . S
C8988 C8989 1.391 . S
C8989 H8977 0.950 . S
C8989 C8985 1.393 . S
C8989 C8988 1.391 . S
C8990 H8980 0.950 . S
C8990 C8991 1.386 . S
C8990 C8992 1.391 . S
C8991 C8990 1.386 . S
C8991 C8995 1.393 . S
C8992 H8981 0.950 . S
C8992 C8990 1.391 . S
C8992 C8993 1.400 . S
C8993 C8987 1.491 . S
C8993 C8992 1.400 . S
C8993 C8994 1.398 . S
C8994 H8982 0.950 . S
C8994 C8993 1.398 . S
C8994 C8995 1.391 . S
C8995 H8983 0.950 . S
C8995 C8991 1.393 . S
C8995 C8994 1.391 . S
H8996 C9004 0.950 . S
H8997 C9009 0.950 . S
H8998 C9006 0.950 . S
H8999 C9008 0.950 . S
H9000 C9010 0.950 . S
H9001 C9012 0.950 . S
H9002 C9014 0.950 . S
H9003 C9015 0.950 . S
C9004 H8996 0.950 . S
C9004 C9005 1.386 . S
C9004 C9006 1.391 . S
C9005 C9004 1.386 . S
C9005 C9009 1.393 . S
C9006 H8998 0.950 . S
C9006 C9004 1.391 . S
C9006 C9007 1.400 . S
C9007 C9006 1.400 . S
C9007 C9008 1.398 . S
C9007 C9013 1.491 . S
C9008 H8999 0.950 . S
C9008 C9007 1.398 . S
C9008 C9009 1.391 . S
C9009 H8997 0.950 . S
C9009 C9005 1.393 . S
C9009 C9008 1.391 . S
C9010 H9000 0.950 . S
C9010 C9011 1.386 . S
C9010 C9012 1.391 . S
C9011 C9010 1.386 . S
C9011 C9015 1.393 . S
C9012 H9001 0.950 . S
C9012 C9010 1.391 . S
C9012 C9013 1.400 . S
C9013 C9007 1.491 . S
C9013 C9012 1.400 . S
C9013 C9014 1.398 . S
C9014 H9002 0.950 . S
C9014 C9013 1.398 . S
C9014 C9015 1.391 . S
C9015 H9003 0.950 . S
C9015 C9011 1.393 . S
C9015 C9014 1.391 . S
H9016 C9024 0.950 . S
H9017 C9029 0.950 . S
H9018 C9026 0.950 . S
H9019 C9028 0.950 . S
H9020 C9030 0.950 . S
H9021 C9032 0.950 . S
H9022 C9034 0.950 . S
H9023 C9035 0.950 . S
C9024 H9016 0.950 . S
C9024 C9025 1.386 . S
C9024 C9026 1.391 . S
C9025 C9024 1.386 . S
C9025 C9029 1.393 . S
C9026 H9018 0.950 . S
C9026 C9024 1.391 . S
C9026 C9027 1.400 . S
C9027 C9026 1.400 . S
C9027 C9028 1.398 . S
C9027 C9033 1.491 . S
C9028 H9019 0.950 . S
C9028 C9027 1.398 . S
C9028 C9029 1.391 . S
C9029 H9017 0.950 . S
C9029 C9025 1.393 . S
C9029 C9028 1.391 . S
C9030 H9020 0.950 . S
C9030 C9031 1.386 . S
C9030 C9032 1.391 . S
C9031 C9030 1.386 . S
C9031 C9035 1.393 . S
C9032 H9021 0.950 . S
C9032 C9030 1.391 . S
C9032 C9033 1.400 . S
C9033 C9027 1.491 . S
C9033 C9032 1.400 . S
C9033 C9034 1.398 . S
C9034 H9022 0.950 . S
C9034 C9033 1.398 . S
C9034 C9035 1.391 . S
C9035 H9023 0.950 . S
C9035 C9031 1.393 . S
C9035 C9034 1.391 . S
H9036 C9044 0.950 . S
H9037 C9049 0.950 . S
H9038 C9046 0.950 . S
H9039 C9048 0.950 . S
H9040 C9050 0.950 . S
H9041 C9052 0.950 . S
H9042 C9054 0.950 . S
H9043 C9055 0.950 . S
C9044 H9036 0.950 . S
C9044 C9045 1.386 . S
C9044 C9046 1.391 . S
C9045 C9044 1.386 . S
C9045 C9049 1.393 . S
C9046 H9038 0.950 . S
C9046 C9044 1.391 . S
C9046 C9047 1.400 . S
C9047 C9046 1.400 . S
C9047 C9048 1.398 . S
C9047 C9053 1.491 . S
C9048 H9039 0.950 . S
C9048 C9047 1.398 . S
C9048 C9049 1.391 . S
C9049 H9037 0.950 . S
C9049 C9045 1.393 . S
C9049 C9048 1.391 . S
C9050 H9040 0.950 . S
C9050 C9051 1.386 . S
C9050 C9052 1.391 . S
C9051 C9050 1.386 . S
C9051 C9055 1.393 . S
C9052 H9041 0.950 . S
C9052 C9050 1.391 . S
C9052 C9053 1.400 . S
C9053 C9047 1.491 . S
C9053 C9052 1.400 . S
C9053 C9054 1.398 . S
C9054 H9042 0.950 . S
C9054 C9053 1.398 . S
C9054 C9055 1.391 . S
C9055 H9043 0.950 . S
C9055 C9051 1.393 . S
C9055 C9054 1.391 . S
H9056 C9064 0.950 . S
H9057 C9069 0.950 . S
H9058 C9066 0.950 . S
H9059 C9068 0.950 . S
H9060 C9070 0.950 . S
H9061 C9072 0.950 . S
H9062 C9074 0.950 . S
H9063 C9075 0.950 . S
C9064 H9056 0.950 . S
C9064 C9065 1.386 . S
C9064 C9066 1.391 . S
C9065 C9064 1.386 . S
C9065 C9069 1.393 . S
C9066 H9058 0.950 . S
C9066 C9064 1.391 . S
C9066 C9067 1.400 . S
C9067 C9066 1.400 . S
C9067 C9068 1.398 . S
C9067 C9073 1.491 . S
C9068 H9059 0.950 . S
C9068 C9067 1.398 . S
C9068 C9069 1.391 . S
C9069 H9057 0.950 . S
C9069 C9065 1.393 . S
C9069 C9068 1.391 . S
C9070 H9060 0.950 . S
C9070 C9071 1.386 . S
C9070 C9072 1.391 . S
C9071 C9070 1.386 . S
C9071 C9075 1.393 . S
C9072 H9061 0.950 . S
C9072 C9070 1.391 . S
C9072 C9073 1.400 . S
C9073 C9067 1.491 . S
C9073 C9072 1.400 . S
C9073 C9074 1.398 . S
C9074 H9062 0.950 . S
C9074 C9073 1.398 . S
C9074 C9075 1.391 . S
C9075 H9063 0.950 . S
C9075 C9071 1.393 . S
C9075 C9074 1.391 . S
H9076 C9084 0.950 . S
H9077 C9089 0.950 . S
H9078 C9086 0.950 . S
H9079 C9088 0.950 . S
H9080 C9090 0.950 . S
H9081 C9092 0.950 . S
H9082 C9094 0.950 . S
H9083 C9095 0.950 . S
C9084 H9076 0.950 . S
C9084 C9085 1.386 . S
C9084 C9086 1.391 . S
C9085 C9084 1.386 . S
C9085 C9089 1.393 . S
C9086 H9078 0.950 . S
C9086 C9084 1.391 . S
C9086 C9087 1.400 . S
C9087 C9086 1.400 . S
C9087 C9088 1.398 . S
C9087 C9093 1.491 . S
C9088 H9079 0.950 . S
C9088 C9087 1.398 . S
C9088 C9089 1.391 . S
C9089 H9077 0.950 . S
C9089 C9085 1.393 . S
C9089 C9088 1.391 . S
C9090 H9080 0.950 . S
C9090 C9091 1.386 . S
C9090 C9092 1.391 . S
C9091 C9090 1.386 . S
C9091 C9095 1.393 . S
C9092 H9081 0.950 . S
C9092 C9090 1.391 . S
C9092 C9093 1.400 . S
C9093 C9087 1.491 . S
C9093 C9092 1.400 . S
C9093 C9094 1.398 . S
C9094 H9082 0.950 . S
C9094 C9093 1.398 . S
C9094 C9095 1.391 . S
C9095 H9083 0.950 . S
C9095 C9091 1.393 . S
C9095 C9094 1.391 . S
H9096 C9104 0.950 . S
H9097 C9109 0.950 . S
H9098 C9106 0.950 . S
H9099 C9108 0.950 . S
H9100 C9110 0.950 . S
H9101 C9112 0.950 . S
H9102 C9114 0.950 . S
H9103 C9115 0.950 . S
C9104 H9096 0.950 . S
C9104 C9105 1.386 . S
C9104 C9106 1.391 . S
C9105 C9104 1.386 . S
C9105 C9109 1.393 . S
C9106 H9098 0.950 . S
C9106 C9104 1.391 . S
C9106 C9107 1.400 . S
C9107 C9106 1.400 . S
C9107 C9108 1.398 . S
C9107 C9113 1.491 . S
C9108 H9099 0.950 . S
C9108 C9107 1.398 . S
C9108 C9109 1.391 . S
C9109 H9097 0.950 . S
C9109 C9105 1.393 . S
C9109 C9108 1.391 . S
C9110 H9100 0.950 . S
C9110 C9111 1.386 . S
C9110 C9112 1.391 . S
C9111 C9110 1.386 . S
C9111 C9115 1.393 . S
C9112 H9101 0.950 . S
C9112 C9110 1.391 . S
C9112 C9113 1.400 . S
C9113 C9107 1.491 . S
C9113 C9112 1.400 . S
C9113 C9114 1.398 . S
C9114 H9102 0.950 . S
C9114 C9113 1.398 . S
C9114 C9115 1.391 . S
C9115 H9103 0.950 . S
C9115 C9111 1.393 . S
C9115 C9114 1.391 . S
H9116 C9124 0.950 . S
H9117 C9129 0.950 . S
H9118 C9126 0.950 . S
H9119 C9128 0.950 . S
H9120 C9130 0.950 . S
H9121 C9132 0.950 . S
H9122 C9134 0.950 . S
H9123 C9135 0.950 . S
C9124 H9116 0.950 . S
C9124 C9125 1.386 . S
C9124 C9126 1.391 . S
C9125 C9124 1.386 . S
C9125 C9129 1.393 . S
C9126 H9118 0.950 . S
C9126 C9124 1.391 . S
C9126 C9127 1.400 . S
C9127 C9126 1.400 . S
C9127 C9128 1.398 . S
C9127 C9133 1.491 . S
C9128 H9119 0.950 . S
C9128 C9127 1.398 . S
C9128 C9129 1.391 . S
C9129 H9117 0.950 . S
C9129 C9125 1.393 . S
C9129 C9128 1.391 . S
C9130 H9120 0.950 . S
C9130 C9131 1.386 . S
C9130 C9132 1.391 . S
C9131 C9130 1.386 . S
C9131 C9135 1.393 . S
C9132 H9121 0.950 . S
C9132 C9130 1.391 . S
C9132 C9133 1.400 . S
C9133 C9127 1.491 . S
C9133 C9132 1.400 . S
C9133 C9134 1.398 . S
C9134 H9122 0.950 . S
C9134 C9133 1.398 . S
C9134 C9135 1.391 . S
C9135 H9123 0.950 . S
C9135 C9131 1.393 . S
C9135 C9134 1.391 . S
H9136 C9144 0.950 . S
H9137 C9149 0.950 . S
H9138 C9146 0.950 . S
H9139 C9148 0.950 . S
H9140 C9150 0.950 . S
H9141 C9152 0.950 . S
H9142 C9154 0.950 . S
H9143 C9155 0.950 . S
C9144 H9136 0.950 . S
C9144 C9145 1.386 . S
C9144 C9146 1.391 . S
C9145 C9144 1.386 . S
C9145 C9149 1.393 . S
C9146 H9138 0.950 . S
C9146 C9144 1.391 . S
C9146 C9147 1.400 . S
C9147 C9146 1.400 . S
C9147 C9148 1.398 . S
C9147 C9153 1.491 . S
C9148 H9139 0.950 . S
C9148 C9147 1.398 . S
C9148 C9149 1.391 . S
C9149 H9137 0.950 . S
C9149 C9145 1.393 . S
C9149 C9148 1.391 . S
C9150 H9140 0.950 . S
C9150 C9151 1.386 . S
C9150 C9152 1.391 . S
C9151 C9150 1.386 . S
C9151 C9155 1.393 . S
C9152 H9141 0.950 . S
C9152 C9150 1.391 . S
C9152 C9153 1.400 . S
C9153 C9147 1.491 . S
C9153 C9152 1.400 . S
C9153 C9154 1.398 . S
C9154 H9142 0.950 . S
C9154 C9153 1.398 . S
C9154 C9155 1.391 . S
C9155 H9143 0.950 . S
C9155 C9151 1.393 . S
C9155 C9154 1.391 . S
H9156 C9164 0.950 . S
H9157 C9169 0.950 . S
H9158 C9166 0.950 . S
H9159 C9168 0.950 . S
H9160 C9170 0.950 . S
H9161 C9172 0.950 . S
H9162 C9174 0.950 . S
H9163 C9175 0.950 . S
C9164 H9156 0.950 . S
C9164 C9165 1.386 . S
C9164 C9166 1.391 . S
C9165 C9164 1.386 . S
C9165 C9169 1.393 . S
C9166 H9158 0.950 . S
C9166 C9164 1.391 . S
C9166 C9167 1.400 . S
C9167 C9166 1.400 . S
C9167 C9168 1.398 . S
C9167 C9173 1.491 . S
C9168 H9159 0.950 . S
C9168 C9167 1.398 . S
C9168 C9169 1.391 . S
C9169 H9157 0.950 . S
C9169 C9165 1.393 . S
C9169 C9168 1.391 . S
C9170 H9160 0.950 . S
C9170 C9171 1.386 . S
C9170 C9172 1.391 . S
C9171 C9170 1.386 . S
C9171 C9175 1.393 . S
C9172 H9161 0.950 . S
C9172 C9170 1.391 . S
C9172 C9173 1.400 . S
C9173 C9167 1.491 . S
C9173 C9172 1.400 . S
C9173 C9174 1.398 . S
C9174 H9162 0.950 . S
C9174 C9173 1.398 . S
C9174 C9175 1.391 . S
C9175 H9163 0.950 . S
C9175 C9171 1.393 . S
C9175 C9174 1.391 . S
H9176 C9184 0.950 . S
H9177 C9189 0.950 . S
H9178 C9186 0.950 . S
H9179 C9188 0.950 . S
H9180 C9190 0.950 . S
H9181 C9192 0.950 . S
H9182 C9194 0.950 . S
H9183 C9195 0.950 . S
C9184 H9176 0.950 . S
C9184 C9185 1.386 . S
C9184 C9186 1.391 . S
C9185 C9184 1.386 . S
C9185 C9189 1.393 . S
C9186 H9178 0.950 . S
C9186 C9184 1.391 . S
C9186 C9187 1.400 . S
C9187 C9186 1.400 . S
C9187 C9188 1.398 . S
C9187 C9193 1.491 . S
C9188 H9179 0.950 . S
C9188 C9187 1.398 . S
C9188 C9189 1.391 . S
C9189 H9177 0.950 . S
C9189 C9185 1.393 . S
C9189 C9188 1.391 . S
C9190 H9180 0.950 . S
C9190 C9191 1.386 . S
C9190 C9192 1.391 . S
C9191 C9190 1.386 . S
C9191 C9195 1.393 . S
C9192 H9181 0.950 . S
C9192 C9190 1.391 . S
C9192 C9193 1.400 . S
C9193 C9187 1.491 . S
C9193 C9192 1.400 . S
C9193 C9194 1.398 . S
C9194 H9182 0.950 . S
C9194 C9193 1.398 . S
C9194 C9195 1.391 . S
C9195 H9183 0.950 . S
C9195 C9191 1.393 . S
C9195 C9194 1.391 . S
H9196 C9204 0.950 . S
H9197 C9209 0.950 . S
H9198 C9206 0.950 . S
H9199 C9208 0.950 . S
H9200 C9210 0.950 . S
H9201 C9212 0.950 . S
H9202 C9214 0.950 . S
H9203 C9215 0.950 . S
C9204 H9196 0.950 . S
C9204 C9205 1.386 . S
C9204 C9206 1.391 . S
C9205 C9204 1.386 . S
C9205 C9209 1.393 . S
C9206 H9198 0.950 . S
C9206 C9204 1.391 . S
C9206 C9207 1.400 . S
C9207 C9206 1.400 . S
C9207 C9208 1.398 . S
C9207 C9213 1.491 . S
C9208 H9199 0.950 . S
C9208 C9207 1.398 . S
C9208 C9209 1.391 . S
C9209 H9197 0.950 . S
C9209 C9205 1.393 . S
C9209 C9208 1.391 . S
C9210 H9200 0.950 . S
C9210 C9211 1.386 . S
C9210 C9212 1.391 . S
C9211 C9210 1.386 . S
C9211 C9215 1.393 . S
C9212 H9201 0.950 . S
C9212 C9210 1.391 . S
C9212 C9213 1.400 . S
C9213 C9207 1.491 . S
C9213 C9212 1.400 . S
C9213 C9214 1.398 . S
C9214 H9202 0.950 . S
C9214 C9213 1.398 . S
C9214 C9215 1.391 . S
C9215 H9203 0.950 . S
C9215 C9211 1.393 . S
C9215 C9214 1.391 . S
H9216 C9224 0.950 . S
H9217 C9229 0.950 . S
H9218 C9226 0.950 . S
H9219 C9228 0.950 . S
H9220 C9230 0.950 . S
H9221 C9232 0.950 . S
H9222 C9234 0.950 . S
H9223 C9235 0.950 . S
C9224 H9216 0.950 . S
C9224 C9225 1.386 . S
C9224 C9226 1.391 . S
C9225 C9224 1.386 . S
C9225 C9229 1.393 . S
C9226 H9218 0.950 . S
C9226 C9224 1.391 . S
C9226 C9227 1.400 . S
C9227 C9226 1.400 . S
C9227 C9228 1.398 . S
C9227 C9233 1.491 . S
C9228 H9219 0.950 . S
C9228 C9227 1.398 . S
C9228 C9229 1.391 . S
C9229 H9217 0.950 . S
C9229 C9225 1.393 . S
C9229 C9228 1.391 . S
C9230 H9220 0.950 . S
C9230 C9231 1.386 . S
C9230 C9232 1.391 . S
C9231 C9230 1.386 . S
C9231 C9235 1.393 . S
C9232 H9221 0.950 . S
C9232 C9230 1.391 . S
C9232 C9233 1.400 . S
C9233 C9227 1.491 . S
C9233 C9232 1.400 . S
C9233 C9234 1.398 . S
C9234 H9222 0.950 . S
C9234 C9233 1.398 . S
C9234 C9235 1.391 . S
C9235 H9223 0.950 . S
C9235 C9231 1.393 . S
C9235 C9234 1.391 . S
H9236 C9244 0.950 . S
H9237 C9249 0.950 . S
H9238 C9246 0.950 . S
H9239 C9248 0.950 . S
H9240 C9250 0.950 . S
H9241 C9252 0.950 . S
H9242 C9254 0.950 . S
H9243 C9255 0.950 . S
C9244 H9236 0.950 . S
C9244 C9245 1.386 . S
C9244 C9246 1.391 . S
C9245 C9244 1.386 . S
C9245 C9249 1.393 . S
C9246 H9238 0.950 . S
C9246 C9244 1.391 . S
C9246 C9247 1.400 . S
C9247 C9246 1.400 . S
C9247 C9248 1.398 . S
C9247 C9253 1.491 . S
C9248 H9239 0.950 . S
C9248 C9247 1.398 . S
C9248 C9249 1.391 . S
C9249 H9237 0.950 . S
C9249 C9245 1.393 . S
C9249 C9248 1.391 . S
C9250 H9240 0.950 . S
C9250 C9251 1.386 . S
C9250 C9252 1.391 . S
C9251 C9250 1.386 . S
C9251 C9255 1.393 . S
C9252 H9241 0.950 . S
C9252 C9250 1.391 . S
C9252 C9253 1.400 . S
C9253 C9247 1.491 . S
C9253 C9252 1.400 . S
C9253 C9254 1.398 . S
C9254 H9242 0.950 . S
C9254 C9253 1.398 . S
C9254 C9255 1.391 . S
C9255 H9243 0.950 . S
C9255 C9251 1.393 . S
C9255 C9254 1.391 . S
H9256 C9264 0.950 . S
H9257 C9269 0.950 . S
H9258 C9266 0.950 . S
H9259 C9268 0.950 . S
H9260 C9270 0.950 . S
H9261 C9272 0.950 . S
H9262 C9274 0.950 . S
H9263 C9275 0.950 . S
C9264 H9256 0.950 . S
C9264 C9265 1.386 . S
C9264 C9266 1.391 . S
C9265 C9264 1.386 . S
C9265 C9269 1.393 . S
C9266 H9258 0.950 . S
C9266 C9264 1.391 . S
C9266 C9267 1.400 . S
C9267 C9266 1.400 . S
C9267 C9268 1.398 . S
C9267 C9273 1.491 . S
C9268 H9259 0.950 . S
C9268 C9267 1.398 . S
C9268 C9269 1.391 . S
C9269 H9257 0.950 . S
C9269 C9265 1.393 . S
C9269 C9268 1.391 . S
C9270 H9260 0.950 . S
C9270 C9271 1.386 . S
C9270 C9272 1.391 . S
C9271 C9270 1.386 . S
C9271 C9275 1.393 . S
C9272 H9261 0.950 . S
C9272 C9270 1.391 . S
C9272 C9273 1.400 . S
C9273 C9267 1.491 . S
C9273 C9272 1.400 . S
C9273 C9274 1.398 . S
C9274 H9262 0.950 . S
C9274 C9273 1.398 . S
C9274 C9275 1.391 . S
C9275 H9263 0.950 . S
C9275 C9271 1.393 . S
C9275 C9274 1.391 . S
H9276 C9284 0.950 . S
H9277 C9289 0.950 . S
H9278 C9286 0.950 . S
H9279 C9288 0.950 . S
H9280 C9290 0.950 . S
H9281 C9292 0.950 . S
H9282 C9294 0.950 . S
H9283 C9295 0.950 . S
C9284 H9276 0.950 . S
C9284 C9285 1.386 . S
C9284 C9286 1.391 . S
C9285 C9284 1.386 . S
C9285 C9289 1.393 . S
C9286 H9278 0.950 . S
C9286 C9284 1.391 . S
C9286 C9287 1.400 . S
C9287 C9286 1.400 . S
C9287 C9288 1.398 . S
C9287 C9293 1.491 . S
C9288 H9279 0.950 . S
C9288 C9287 1.398 . S
C9288 C9289 1.391 . S
C9289 H9277 0.950 . S
C9289 C9285 1.393 . S
C9289 C9288 1.391 . S
C9290 H9280 0.950 . S
C9290 C9291 1.386 . S
C9290 C9292 1.391 . S
C9291 C9290 1.386 . S
C9291 C9295 1.393 . S
C9292 H9281 0.950 . S
C9292 C9290 1.391 . S
C9292 C9293 1.400 . S
C9293 C9287 1.491 . S
C9293 C9292 1.400 . S
C9293 C9294 1.398 . S
C9294 H9282 0.950 . S
C9294 C9293 1.398 . S
C9294 C9295 1.391 . S
C9295 H9283 0.950 . S
C9295 C9291 1.393 . S
C9295 C9294 1.391 . S
H9296 C9304 0.950 . S
H9297 C9309 0.950 . S
H9298 C9306 0.950 . S
H9299 C9308 0.950 . S
H9300 C9310 0.950 . S
H9301 C9312 0.950 . S
H9302 C9314 0.950 . S
H9303 C9315 0.950 . S
C9304 H9296 0.950 . S
C9304 C9305 1.386 . S
C9304 C9306 1.391 . S
C9305 C9304 1.386 . S
C9305 C9309 1.393 . S
C9306 H9298 0.950 . S
C9306 C9304 1.391 . S
C9306 C9307 1.400 . S
C9307 C9306 1.400 . S
C9307 C9308 1.398 . S
C9307 C9313 1.491 . S
C9308 H9299 0.950 . S
C9308 C9307 1.398 . S
C9308 C9309 1.391 . S
C9309 H9297 0.950 . S
C9309 C9305 1.393 . S
C9309 C9308 1.391 . S
C9310 H9300 0.950 . S
C9310 C9311 1.386 . S
C9310 C9312 1.391 . S
C9311 C9310 1.386 . S
C9311 C9315 1.393 . S
C9312 H9301 0.950 . S
C9312 C9310 1.391 . S
C9312 C9313 1.400 . S
C9313 C9307 1.491 . S
C9313 C9312 1.400 . S
C9313 C9314 1.398 . S
C9314 H9302 0.950 . S
C9314 C9313 1.398 . S
C9314 C9315 1.391 . S
C9315 H9303 0.950 . S
C9315 C9311 1.393 . S
C9315 C9314 1.391 . S
H9316 C9324 0.950 . S
H9317 C9329 0.950 . S
H9318 C9326 0.950 . S
H9319 C9328 0.950 . S
H9320 C9330 0.950 . S
H9321 C9332 0.950 . S
H9322 C9334 0.950 . S
H9323 C9335 0.950 . S
C9324 H9316 0.950 . S
C9324 C9325 1.386 . S
C9324 C9326 1.391 . S
C9325 C9324 1.386 . S
C9325 C9329 1.393 . S
C9326 H9318 0.950 . S
C9326 C9324 1.391 . S
C9326 C9327 1.400 . S
C9327 C9326 1.400 . S
C9327 C9328 1.398 . S
C9327 C9333 1.491 . S
C9328 H9319 0.950 . S
C9328 C9327 1.398 . S
C9328 C9329 1.391 . S
C9329 H9317 0.950 . S
C9329 C9325 1.393 . S
C9329 C9328 1.391 . S
C9330 H9320 0.950 . S
C9330 C9331 1.386 . S
C9330 C9332 1.391 . S
C9331 C9330 1.386 . S
C9331 C9335 1.393 . S
C9332 H9321 0.950 . S
C9332 C9330 1.391 . S
C9332 C9333 1.400 . S
C9333 C9327 1.491 . S
C9333 C9332 1.400 . S
C9333 C9334 1.398 . S
C9334 H9322 0.950 . S
C9334 C9333 1.398 . S
C9334 C9335 1.391 . S
C9335 H9323 0.950 . S
C9335 C9331 1.393 . S
C9335 C9334 1.391 . S
H9336 C9344 0.950 . S
H9337 C9349 0.950 . S
H9338 C9346 0.950 . S
H9339 C9348 0.950 . S
H9340 C9350 0.950 . S
H9341 C9352 0.950 . S
H9342 C9354 0.950 . S
H9343 C9355 0.950 . S
C9344 H9336 0.950 . S
C9344 C9345 1.386 . S
C9344 C9346 1.391 . S
C9345 C9344 1.386 . S
C9345 C9349 1.393 . S
C9346 H9338 0.950 . S
C9346 C9344 1.391 . S
C9346 C9347 1.400 . S
C9347 C9346 1.400 . S
C9347 C9348 1.398 . S
C9347 C9353 1.491 . S
C9348 H9339 0.950 . S
C9348 C9347 1.398 . S
C9348 C9349 1.391 . S
C9349 H9337 0.950 . S
C9349 C9345 1.393 . S
C9349 C9348 1.391 . S
C9350 H9340 0.950 . S
C9350 C9351 1.386 . S
C9350 C9352 1.391 . S
C9351 C9350 1.386 . S
C9351 C9355 1.393 . S
C9352 H9341 0.950 . S
C9352 C9350 1.391 . S
C9352 C9353 1.400 . S
C9353 C9347 1.491 . S
C9353 C9352 1.400 . S
C9353 C9354 1.398 . S
C9354 H9342 0.950 . S
C9354 C9353 1.398 . S
C9354 C9355 1.391 . S
C9355 H9343 0.950 . S
C9355 C9351 1.393 . S
C9355 C9354 1.391 . S
H9356 C9364 0.950 . S
H9357 C9369 0.950 . S
H9358 C9366 0.950 . S
H9359 C9368 0.950 . S
H9360 C9370 0.950 . S
H9361 C9372 0.950 . S
H9362 C9374 0.950 . S
H9363 C9375 0.950 . S
C9364 H9356 0.950 . S
C9364 C9365 1.386 . S
C9364 C9366 1.391 . S
C9365 C9364 1.386 . S
C9365 C9369 1.393 . S
C9366 H9358 0.950 . S
C9366 C9364 1.391 . S
C9366 C9367 1.400 . S
C9367 C9366 1.400 . S
C9367 C9368 1.398 . S
C9367 C9373 1.491 . S
C9368 H9359 0.950 . S
C9368 C9367 1.398 . S
C9368 C9369 1.391 . S
C9369 H9357 0.950 . S
C9369 C9365 1.393 . S
C9369 C9368 1.391 . S
C9370 H9360 0.950 . S
C9370 C9371 1.386 . S
C9370 C9372 1.391 . S
C9371 C9370 1.386 . S
C9371 C9375 1.393 . S
C9372 H9361 0.950 . S
C9372 C9370 1.391 . S
C9372 C9373 1.400 . S
C9373 C9367 1.491 . S
C9373 C9372 1.400 . S
C9373 C9374 1.398 . S
C9374 H9362 0.950 . S
C9374 C9373 1.398 . S
C9374 C9375 1.391 . S
C9375 H9363 0.950 . S
C9375 C9371 1.393 . S
C9375 C9374 1.391 . S
H9376 C9384 0.950 . S
H9377 C9389 0.950 . S
H9378 C9386 0.950 . S
H9379 C9388 0.950 . S
H9380 C9390 0.950 . S
H9381 C9392 0.950 . S
H9382 C9394 0.950 . S
H9383 C9395 0.950 . S
C9384 H9376 0.950 . S
C9384 C9385 1.386 . S
C9384 C9386 1.391 . S
C9385 C9384 1.386 . S
C9385 C9389 1.393 . S
C9386 H9378 0.950 . S
C9386 C9384 1.391 . S
C9386 C9387 1.400 . S
C9387 C9386 1.400 . S
C9387 C9388 1.398 . S
C9387 C9393 1.491 . S
C9388 H9379 0.950 . S
C9388 C9387 1.398 . S
C9388 C9389 1.391 . S
C9389 H9377 0.950 . S
C9389 C9385 1.393 . S
C9389 C9388 1.391 . S
C9390 H9380 0.950 . S
C9390 C9391 1.386 . S
C9390 C9392 1.391 . S
C9391 C9390 1.386 . S
C9391 C9395 1.393 . S
C9392 H9381 0.950 . S
C9392 C9390 1.391 . S
C9392 C9393 1.400 . S
C9393 C9387 1.491 . S
C9393 C9392 1.400 . S
C9393 C9394 1.398 . S
C9394 H9382 0.950 . S
C9394 C9393 1.398 . S
C9394 C9395 1.391 . S
C9395 H9383 0.950 . S
C9395 C9391 1.393 . S
C9395 C9394 1.391 . S
H9396 C9404 0.950 . S
H9397 C9409 0.950 . S
H9398 C9406 0.950 . S
H9399 C9408 0.950 . S
H9400 C9410 0.950 . S
H9401 C9412 0.950 . S
H9402 C9414 0.950 . S
H9403 C9415 0.950 . S
C9404 H9396 0.950 . S
C9404 C9405 1.386 . S
C9404 C9406 1.391 . S
C9405 C9404 1.386 . S
C9405 C9409 1.393 . S
C9406 H9398 0.950 . S
C9406 C9404 1.391 . S
C9406 C9407 1.400 . S
C9407 C9406 1.400 . S
C9407 C9408 1.398 . S
C9407 C9413 1.491 . S
C9408 H9399 0.950 . S
C9408 C9407 1.398 . S
C9408 C9409 1.391 . S
C9409 H9397 0.950 . S
C9409 C9405 1.393 . S
C9409 C9408 1.391 . S
C9410 H9400 0.950 . S
C9410 C9411 1.386 . S
C9410 C9412 1.391 . S
C9411 C9410 1.386 . S
C9411 C9415 1.393 . S
C9412 H9401 0.950 . S
C9412 C9410 1.391 . S
C9412 C9413 1.400 . S
C9413 C9407 1.491 . S
C9413 C9412 1.400 . S
C9413 C9414 1.398 . S
C9414 H9402 0.950 . S
C9414 C9413 1.398 . S
C9414 C9415 1.391 . S
C9415 H9403 0.950 . S
C9415 C9411 1.393 . S
C9415 C9414 1.391 . S
H9416 C9424 0.950 . S
H9417 C9429 0.950 . S
H9418 C9426 0.950 . S
H9419 C9428 0.950 . S
H9420 C9430 0.950 . S
H9421 C9432 0.950 . S
H9422 C9434 0.950 . S
H9423 C9435 0.950 . S
C9424 H9416 0.950 . S
C9424 C9425 1.386 . S
C9424 C9426 1.391 . S
C9425 C9424 1.386 . S
C9425 C9429 1.393 . S
C9426 H9418 0.950 . S
C9426 C9424 1.391 . S
C9426 C9427 1.400 . S
C9427 C9426 1.400 . S
C9427 C9428 1.398 . S
C9427 C9433 1.491 . S
C9428 H9419 0.950 . S
C9428 C9427 1.398 . S
C9428 C9429 1.391 . S
C9429 H9417 0.950 . S
C9429 C9425 1.393 . S
C9429 C9428 1.391 . S
C9430 H9420 0.950 . S
C9430 C9431 1.386 . S
C9430 C9432 1.391 . S
C9431 C9430 1.386 . S
C9431 C9435 1.393 . S
C9432 H9421 0.950 . S
C9432 C9430 1.391 . S
C9432 C9433 1.400 . S
C9433 C9427 1.491 . S
C9433 C9432 1.400 . S
C9433 C9434 1.398 . S
C9434 H9422 0.950 . S
C9434 C9433 1.398 . S
C9434 C9435 1.391 . S
C9435 H9423 0.950 . S
C9435 C9431 1.393 . S
C9435 C9434 1.391 . S
H9436 C9444 0.950 . S
H9437 C9449 0.950 . S
H9438 C9446 0.950 . S
H9439 C9448 0.950 . S
H9440 C9450 0.950 . S
H9441 C9452 0.950 . S
H9442 C9454 0.950 . S
H9443 C9455 0.950 . S
C9444 H9436 0.950 . S
C9444 C9445 1.386 . S
C9444 C9446 1.391 . S
C9445 C9444 1.386 . S
C9445 C9449 1.393 . S
C9446 H9438 0.950 . S
C9446 C9444 1.391 . S
C9446 C9447 1.400 . S
C9447 C9446 1.400 . S
C9447 C9448 1.398 . S
C9447 C9453 1.491 . S
C9448 H9439 0.950 . S
C9448 C9447 1.398 . S
C9448 C9449 1.391 . S
C9449 H9437 0.950 . S
C9449 C9445 1.393 . S
C9449 C9448 1.391 . S
C9450 H9440 0.950 . S
C9450 C9451 1.386 . S
C9450 C9452 1.391 . S
C9451 C9450 1.386 . S
C9451 C9455 1.393 . S
C9452 H9441 0.950 . S
C9452 C9450 1.391 . S
C9452 C9453 1.400 . S
C9453 C9447 1.491 . S
C9453 C9452 1.400 . S
C9453 C9454 1.398 . S
C9454 H9442 0.950 . S
C9454 C9453 1.398 . S
C9454 C9455 1.391 . S
C9455 H9443 0.950 . S
C9455 C9451 1.393 . S
C9455 C9454 1.391 . S
H9456 C9464 0.950 . S
H9457 C9469 0.950 . S
H9458 C9466 0.950 . S
H9459 C9468 0.950 . S
H9460 C9470 0.950 . S
H9461 C9472 0.950 . S
H9462 C9474 0.950 . S
H9463 C9475 0.950 . S
C9464 H9456 0.950 . S
C9464 C9465 1.386 . S
C9464 C9466 1.391 . S
C9465 C9464 1.386 . S
C9465 C9469 1.393 . S
C9466 H9458 0.950 . S
C9466 C9464 1.391 . S
C9466 C9467 1.400 . S
C9467 C9466 1.400 . S
C9467 C9468 1.398 . S
C9467 C9473 1.491 . S
C9468 H9459 0.950 . S
C9468 C9467 1.398 . S
C9468 C9469 1.391 . S
C9469 H9457 0.950 . S
C9469 C9465 1.393 . S
C9469 C9468 1.391 . S
C9470 H9460 0.950 . S
C9470 C9471 1.386 . S
C9470 C9472 1.391 . S
C9471 C9470 1.386 . S
C9471 C9475 1.393 . S
C9472 H9461 0.950 . S
C9472 C9470 1.391 . S
C9472 C9473 1.400 . S
C9473 C9467 1.491 . S
C9473 C9472 1.400 . S
C9473 C9474 1.398 . S
C9474 H9462 0.950 . S
C9474 C9473 1.398 . S
C9474 C9475 1.391 . S
C9475 H9463 0.950 . S
C9475 C9471 1.393 . S
C9475 C9474 1.391 . S
H9476 C9484 0.950 . S
H9477 C9489 0.950 . S
H9478 C9486 0.950 . S
H9479 C9488 0.950 . S
H9480 C9490 0.950 . S
H9481 C9492 0.950 . S
H9482 C9494 0.950 . S
H9483 C9495 0.950 . S
C9484 H9476 0.950 . S
C9484 C9485 1.386 . S
C9484 C9486 1.391 . S
C9485 C9484 1.386 . S
C9485 C9489 1.393 . S
C9486 H9478 0.950 . S
C9486 C9484 1.391 . S
C9486 C9487 1.400 . S
C9487 C9486 1.400 . S
C9487 C9488 1.398 . S
C9487 C9493 1.491 . S
C9488 H9479 0.950 . S
C9488 C9487 1.398 . S
C9488 C9489 1.391 . S
C9489 H9477 0.950 . S
C9489 C9485 1.393 . S
C9489 C9488 1.391 . S
C9490 H9480 0.950 . S
C9490 C9491 1.386 . S
C9490 C9492 1.391 . S
C9491 C9490 1.386 . S
C9491 C9495 1.393 . S
C9492 H9481 0.950 . S
C9492 C9490 1.391 . S
C9492 C9493 1.400 . S
C9493 C9487 1.491 . S
C9493 C9492 1.400 . S
C9493 C9494 1.398 . S
C9494 H9482 0.950 . S
C9494 C9493 1.398 . S
C9494 C9495 1.391 . S
C9495 H9483 0.950 . S
C9495 C9491 1.393 . S
C9495 C9494 1.391 . S
H9496 C9504 0.950 . S
H9497 C9509 0.950 . S
H9498 C9506 0.950 . S
H9499 C9508 0.950 . S
H9500 C9510 0.950 . S
H9501 C9512 0.950 . S
H9502 C9514 0.950 . S
H9503 C9515 0.950 . S
C9504 H9496 0.950 . S
C9504 C9505 1.386 . S
C9504 C9506 1.391 . S
C9505 C9504 1.386 . S
C9505 C9509 1.393 . S
C9506 H9498 0.950 . S
C9506 C9504 1.391 . S
C9506 C9507 1.400 . S
C9507 C9506 1.400 . S
C9507 C9508 1.398 . S
C9507 C9513 1.491 . S
C9508 H9499 0.950 . S
C9508 C9507 1.398 . S
C9508 C9509 1.391 . S
C9509 H9497 0.950 . S
C9509 C9505 1.393 . S
C9509 C9508 1.391 . S
C9510 H9500 0.950 . S
C9510 C9511 1.386 . S
C9510 C9512 1.391 . S
C9511 C9510 1.386 . S
C9511 C9515 1.393 . S
C9512 H9501 0.950 . S
C9512 C9510 1.391 . S
C9512 C9513 1.400 . S
C9513 C9507 1.491 . S
C9513 C9512 1.400 . S
C9513 C9514 1.398 . S
C9514 H9502 0.950 . S
C9514 C9513 1.398 . S
C9514 C9515 1.391 . S
C9515 H9503 0.950 . S
C9515 C9511 1.393 . S
C9515 C9514 1.391 . S
H9516 C9524 0.950 . S
H9517 C9529 0.950 . S
H9518 C9526 0.950 . S
H9519 C9528 0.950 . S
H9520 C9530 0.950 . S
H9521 C9532 0.950 . S
H9522 C9534 0.950 . S
H9523 C9535 0.950 . S
C9524 H9516 0.950 . S
C9524 C9525 1.386 . S
C9524 C9526 1.391 . S
C9525 C9524 1.386 . S
C9525 C9529 1.393 . S
C9526 H9518 0.950 . S
C9526 C9524 1.391 . S
C9526 C9527 1.400 . S
C9527 C9526 1.400 . S
C9527 C9528 1.398 . S
C9527 C9533 1.491 . S
C9528 H9519 0.950 . S
C9528 C9527 1.398 . S
C9528 C9529 1.391 . S
C9529 H9517 0.950 . S
C9529 C9525 1.393 . S
C9529 C9528 1.391 . S
C9530 H9520 0.950 . S
C9530 C9531 1.386 . S
C9530 C9532 1.391 . S
C9531 C9530 1.386 . S
C9531 C9535 1.393 . S
C9532 H9521 0.950 . S
C9532 C9530 1.391 . S
C9532 C9533 1.400 . S
C9533 C9527 1.491 . S
C9533 C9532 1.400 . S
C9533 C9534 1.398 . S
C9534 H9522 0.950 . S
C9534 C9533 1.398 . S
C9534 C9535 1.391 . S
C9535 H9523 0.950 . S
C9535 C9531 1.393 . S
C9535 C9534 1.391 . S
H9536 C9544 0.950 . S
H9537 C9549 0.950 . S
H9538 C9546 0.950 . S
H9539 C9548 0.950 . S
H9540 C9550 0.950 . S
H9541 C9552 0.950 . S
H9542 C9554 0.950 . S
H9543 C9555 0.950 . S
C9544 H9536 0.950 . S
C9544 C9545 1.386 . S
C9544 C9546 1.391 . S
C9545 C9544 1.386 . S
C9545 C9549 1.393 . S
C9546 H9538 0.950 . S
C9546 C9544 1.391 . S
C9546 C9547 1.400 . S
C9547 C9546 1.400 . S
C9547 C9548 1.398 . S
C9547 C9553 1.491 . S
C9548 H9539 0.950 . S
C9548 C9547 1.398 . S
C9548 C9549 1.391 . S
C9549 H9537 0.950 . S
C9549 C9545 1.393 . S
C9549 C9548 1.391 . S
C9550 H9540 0.950 . S
C9550 C9551 1.386 . S
C9550 C9552 1.391 . S
C9551 C9550 1.386 . S
C9551 C9555 1.393 . S
C9552 H9541 0.950 . S
C9552 C9550 1.391 . S
C9552 C9553 1.400 . S
C9553 C9547 1.491 . S
C9553 C9552 1.400 . S
C9553 C9554 1.398 . S
C9554 H9542 0.950 . S
C9554 C9553 1.398 . S
C9554 C9555 1.391 . S
C9555 H9543 0.950 . S
C9555 C9551 1.393 . S
C9555 C9554 1.391 . S
H9556 C9564 0.950 . S
H9557 C9569 0.950 . S
H9558 C9566 0.950 . S
H9559 C9568 0.950 . S
H9560 C9570 0.950 . S
H9561 C9572 0.950 . S
H9562 C9574 0.950 . S
H9563 C9575 0.950 . S
C9564 H9556 0.950 . S
C9564 C9565 1.386 . S
C9564 C9566 1.391 . S
C9565 C9564 1.386 . S
C9565 C9569 1.393 . S
C9566 H9558 0.950 . S
C9566 C9564 1.391 . S
C9566 C9567 1.400 . S
C9567 C9566 1.400 . S
C9567 C9568 1.398 . S
C9567 C9573 1.491 . S
C9568 H9559 0.950 . S
C9568 C9567 1.398 . S
C9568 C9569 1.391 . S
C9569 H9557 0.950 . S
C9569 C9565 1.393 . S
C9569 C9568 1.391 . S
C9570 H9560 0.950 . S
C9570 C9571 1.386 . S
C9570 C9572 1.391 . S
C9571 C9570 1.386 . S
C9571 C9575 1.393 . S
C9572 H9561 0.950 . S
C9572 C9570 1.391 . S
C9572 C9573 1.400 . S
C9573 C9567 1.491 . S
C9573 C9572 1.400 . S
C9573 C9574 1.398 . S
C9574 H9562 0.950 . S
C9574 C9573 1.398 . S
C9574 C9575 1.391 . S
C9575 H9563 0.950 . S
C9575 C9571 1.393 . S
C9575 C9574 1.391 . S
H9576 C9584 0.950 . S
H9577 C9589 0.950 . S
H9578 C9586 0.950 . S
H9579 C9588 0.950 . S
H9580 C9590 0.950 . S
H9581 C9592 0.950 . S
H9582 C9594 0.950 . S
H9583 C9595 0.950 . S
C9584 H9576 0.950 . S
C9584 C9585 1.386 . S
C9584 C9586 1.391 . S
C9585 C9584 1.386 . S
C9585 C9589 1.393 . S
C9586 H9578 0.950 . S
C9586 C9584 1.391 . S
C9586 C9587 1.400 . S
C9587 C9586 1.400 . S
C9587 C9588 1.398 . S
C9587 C9593 1.491 . S
C9588 H9579 0.950 . S
C9588 C9587 1.398 . S
C9588 C9589 1.391 . S
C9589 H9577 0.950 . S
C9589 C9585 1.393 . S
C9589 C9588 1.391 . S
C9590 H9580 0.950 . S
C9590 C9591 1.386 . S
C9590 C9592 1.391 . S
C9591 C9590 1.386 . S
C9591 C9595 1.393 . S
C9592 H9581 0.950 . S
C9592 C9590 1.391 . S
C9592 C9593 1.400 . S
C9593 C9587 1.491 . S
C9593 C9592 1.400 . S
C9593 C9594 1.398 . S
C9594 H9582 0.950 . S
C9594 C9593 1.398 . S
C9594 C9595 1.391 . S
C9595 H9583 0.950 . S
C9595 C9591 1.393 . S
C9595 C9594 1.391 . S
H9596 C9604 0.950 . S
H9597 C9609 0.950 . S
H9598 C9606 0.950 . S
H9599 C9608 0.950 . S
H9600 C9610 0.950 . S
H9601 C9612 0.950 . S
H9602 C9614 0.950 . S
H9603 C9615 0.950 . S
C9604 H9596 0.950 . S
C9604 C9605 1.386 . S
C9604 C9606 1.391 . S
C9605 C9604 1.386 . S
C9605 C9609 1.393 . S
C9606 H9598 0.950 . S
C9606 C9604 1.391 . S
C9606 C9607 1.400 . S
C9607 C9606 1.400 . S
C9607 C9608 1.398 . S
C9607 C9613 1.491 . S
C9608 H9599 0.950 . S
C9608 C9607 1.398 . S
C9608 C9609 1.391 . S
C9609 H9597 0.950 . S
C9609 C9605 1.393 . S
C9609 C9608 1.391 . S
C9610 H9600 0.950 . S
C9610 C9611 1.386 . S
C9610 C9612 1.391 . S
C9611 C9610 1.386 . S
C9611 C9615 1.393 . S
C9612 H9601 0.950 . S
C9612 C9610 1.391 . S
C9612 C9613 1.400 . S
C9613 C9607 1.491 . S
C9613 C9612 1.400 . S
C9613 C9614 1.398 . S
C9614 H9602 0.950 . S
C9614 C9613 1.398 . S
C9614 C9615 1.391 . S
C9615 H9603 0.950 . S
C9615 C9611 1.393 . S
C9615 C9614 1.391 . S
H9616 C9624 0.950 . S
H9617 C9629 0.950 . S
H9618 C9626 0.950 . S
H9619 C9628 0.950 . S
H9620 C9630 0.950 . S
H9621 C9632 0.950 . S
H9622 C9634 0.950 . S
H9623 C9635 0.950 . S
C9624 H9616 0.950 . S
C9624 C9625 1.386 . S
C9624 C9626 1.391 . S
C9625 C9624 1.386 . S
C9625 C9629 1.393 . S
C9626 H9618 0.950 . S
C9626 C9624 1.391 . S
C9626 C9627 1.400 . S
C9627 C9626 1.400 . S
C9627 C9628 1.398 . S
C9627 C9633 1.491 . S
C9628 H9619 0.950 . S
C9628 C9627 1.398 . S
C9628 C9629 1.391 . S
C9629 H9617 0.950 . S
C9629 C9625 1.393 . S
C9629 C9628 1.391 . S
C9630 H9620 0.950 . S
C9630 C9631 1.386 . S
C9630 C9632 1.391 . S
C9631 C9630 1.386 . S
C9631 C9635 1.393 . S
C9632 H9621 0.950 . S
C9632 C9630 1.391 . S
C9632 C9633 1.400 . S
C9633 C9627 1.491 . S
C9633 C9632 1.400 . S
C9633 C9634 1.398 . S
C9634 H9622 0.950 . S
C9634 C9633 1.398 . S
C9634 C9635 1.391 . S
C9635 H9623 0.950 . S
C9635 C9631 1.393 . S
C9635 C9634 1.391 . S
H9636 C9644 0.950 . S
H9637 C9649 0.950 . S
H9638 C9646 0.950 . S
H9639 C9648 0.950 . S
H9640 C9650 0.950 . S
H9641 C9652 0.950 . S
H9642 C9654 0.950 . S
H9643 C9655 0.950 . S
C9644 H9636 0.950 . S
C9644 C9645 1.386 . S
C9644 C9646 1.391 . S
C9645 C9644 1.386 . S
C9645 C9649 1.393 . S
C9646 H9638 0.950 . S
C9646 C9644 1.391 . S
C9646 C9647 1.400 . S
C9647 C9646 1.400 . S
C9647 C9648 1.398 . S
C9647 C9653 1.491 . S
C9648 H9639 0.950 . S
C9648 C9647 1.398 . S
C9648 C9649 1.391 . S
C9649 H9637 0.950 . S
C9649 C9645 1.393 . S
C9649 C9648 1.391 . S
C9650 H9640 0.950 . S
C9650 C9651 1.386 . S
C9650 C9652 1.391 . S
C9651 C9650 1.386 . S
C9651 C9655 1.393 . S
C9652 H9641 0.950 . S
C9652 C9650 1.391 . S
C9652 C9653 1.400 . S
C9653 C9647 1.491 . S
C9653 C9652 1.400 . S
C9653 C9654 1.398 . S
C9654 H9642 0.950 . S
C9654 C9653 1.398 . S
C9654 C9655 1.391 . S
C9655 H9643 0.950 . S
C9655 C9651 1.393 . S
C9655 C9654 1.391 . S
H9656 C9664 0.950 . S
H9657 C9669 0.950 . S
H9658 C9666 0.950 . S
H9659 C9668 0.950 . S
H9660 C9670 0.950 . S
H9661 C9672 0.950 . S
H9662 C9674 0.950 . S
H9663 C9675 0.950 . S
C9664 H9656 0.950 . S
C9664 C9665 1.386 . S
C9664 C9666 1.391 . S
C9665 C9664 1.386 . S
C9665 C9669 1.393 . S
C9666 H9658 0.950 . S
C9666 C9664 1.391 . S
C9666 C9667 1.400 . S
C9667 C9666 1.400 . S
C9667 C9668 1.398 . S
C9667 C9673 1.491 . S
C9668 H9659 0.950 . S
C9668 C9667 1.398 . S
C9668 C9669 1.391 . S
C9669 H9657 0.950 . S
C9669 C9665 1.393 . S
C9669 C9668 1.391 . S
C9670 H9660 0.950 . S
C9670 C9671 1.386 . S
C9670 C9672 1.391 . S
C9671 C9670 1.386 . S
C9671 C9675 1.393 . S
C9672 H9661 0.950 . S
C9672 C9670 1.391 . S
C9672 C9673 1.400 . S
C9673 C9667 1.491 . S
C9673 C9672 1.400 . S
C9673 C9674 1.398 . S
C9674 H9662 0.950 . S
C9674 C9673 1.398 . S
C9674 C9675 1.391 . S
C9675 H9663 0.950 . S
C9675 C9671 1.393 . S
C9675 C9674 1.391 . S
H9676 C9684 0.950 . S
H9677 C9689 0.950 . S
H9678 C9686 0.950 . S
H9679 C9688 0.950 . S
H9680 C9690 0.950 . S
H9681 C9692 0.950 . S
H9682 C9694 0.950 . S
H9683 C9695 0.950 . S
C9684 H9676 0.950 . S
C9684 C9685 1.386 . S
C9684 C9686 1.391 . S
C9685 C9684 1.386 . S
C9685 C9689 1.393 . S
C9686 H9678 0.950 . S
C9686 C9684 1.391 . S
C9686 C9687 1.400 . S
C9687 C9686 1.400 . S
C9687 C9688 1.398 . S
C9687 C9693 1.491 . S
C9688 H9679 0.950 . S
C9688 C9687 1.398 . S
C9688 C9689 1.391 . S
C9689 H9677 0.950 . S
C9689 C9685 1.393 . S
C9689 C9688 1.391 . S
C9690 H9680 0.950 . S
C9690 C9691 1.386 . S
C9690 C9692 1.391 . S
C9691 C9690 1.386 . S
C9691 C9695 1.393 . S
C9692 H9681 0.950 . S
C9692 C9690 1.391 . S
C9692 C9693 1.400 . S
C9693 C9687 1.491 . S
C9693 C9692 1.400 . S
C9693 C9694 1.398 . S
C9694 H9682 0.950 . S
C9694 C9693 1.398 . S
C9694 C9695 1.391 . S
C9695 H9683 0.950 . S
C9695 C9691 1.393 . S
C9695 C9694 1.391 . S
H9696 C9704 0.950 . S
H9697 C9709 0.950 . S
H9698 C9706 0.950 . S
H9699 C9708 0.950 . S
H9700 C9710 0.950 . S
H9701 C9712 0.950 . S
H9702 C9714 0.950 . S
H9703 C9715 0.950 . S
C9704 H9696 0.950 . S
C9704 C9705 1.386 . S
C9704 C9706 1.391 . S
C9705 C9704 1.386 . S
C9705 C9709 1.393 . S
C9706 H9698 0.950 . S
C9706 C9704 1.391 . S
C9706 C9707 1.400 . S
C9707 C9706 1.400 . S
C9707 C9708 1.398 . S
C9707 C9713 1.491 . S
C9708 H9699 0.950 . S
C9708 C9707 1.398 . S
C9708 C9709 1.391 . S
C9709 H9697 0.950 . S
C9709 C9705 1.393 . S
C9709 C9708 1.391 . S
C9710 H9700 0.950 . S
C9710 C9711 1.386 . S
C9710 C9712 1.391 . S
C9711 C9710 1.386 . S
C9711 C9715 1.393 . S
C9712 H9701 0.950 . S
C9712 C9710 1.391 . S
C9712 C9713 1.400 . S
C9713 C9707 1.491 . S
C9713 C9712 1.400 . S
C9713 C9714 1.398 . S
C9714 H9702 0.950 . S
C9714 C9713 1.398 . S
C9714 C9715 1.391 . S
C9715 H9703 0.950 . S
C9715 C9711 1.393 . S
C9715 C9714 1.391 . S
H9716 C9724 0.950 . S
H9717 C9729 0.950 . S
H9718 C9726 0.950 . S
H9719 C9728 0.950 . S
H9720 C9730 0.950 . S
H9721 C9732 0.950 . S
H9722 C9734 0.950 . S
H9723 C9735 0.950 . S
C9724 H9716 0.950 . S
C9724 C9725 1.386 . S
C9724 C9726 1.391 . S
C9725 C9724 1.386 . S
C9725 C9729 1.393 . S
C9726 H9718 0.950 . S
C9726 C9724 1.391 . S
C9726 C9727 1.400 . S
C9727 C9726 1.400 . S
C9727 C9728 1.398 . S
C9727 C9733 1.491 . S
C9728 H9719 0.950 . S
C9728 C9727 1.398 . S
C9728 C9729 1.391 . S
C9729 H9717 0.950 . S
C9729 C9725 1.393 . S
C9729 C9728 1.391 . S
C9730 H9720 0.950 . S
C9730 C9731 1.386 . S
C9730 C9732 1.391 . S
C9731 C9730 1.386 . S
C9731 C9735 1.393 . S
C9732 H9721 0.950 . S
C9732 C9730 1.391 . S
C9732 C9733 1.400 . S
C9733 C9727 1.491 . S
C9733 C9732 1.400 . S
C9733 C9734 1.398 . S
C9734 H9722 0.950 . S
C9734 C9733 1.398 . S
C9734 C9735 1.391 . S
C9735 H9723 0.950 . S
C9735 C9731 1.393 . S
C9735 C9734 1.391 . S
H9736 C9744 0.950 . S
H9737 C9749 0.950 . S
H9738 C9746 0.950 . S
H9739 C9748 0.950 . S
H9740 C9750 0.950 . S
H9741 C9752 0.950 . S
H9742 C9754 0.950 . S
H9743 C9755 0.950 . S
C9744 H9736 0.950 . S
C9744 C9745 1.386 . S
C9744 C9746 1.391 . S
C9745 C9744 1.386 . S
C9745 C9749 1.393 . S
C9746 H9738 0.950 . S
C9746 C9744 1.391 . S
C9746 C9747 1.400 . S
C9747 C9746 1.400 . S
C9747 C9748 1.398 . S
C9747 C9753 1.491 . S
C9748 H9739 0.950 . S
C9748 C9747 1.398 . S
C9748 C9749 1.391 . S
C9749 H9737 0.950 . S
C9749 C9745 1.393 . S
C9749 C9748 1.391 . S
C9750 H9740 0.950 . S
C9750 C9751 1.386 . S
C9750 C9752 1.391 . S
C9751 C9750 1.386 . S
C9751 C9755 1.393 . S
C9752 H9741 0.950 . S
C9752 C9750 1.391 . S
C9752 C9753 1.400 . S
C9753 C9747 1.491 . S
C9753 C9752 1.400 . S
C9753 C9754 1.398 . S
C9754 H9742 0.950 . S
C9754 C9753 1.398 . S
C9754 C9755 1.391 . S
C9755 H9743 0.950 . S
C9755 C9751 1.393 . S
C9755 C9754 1.391 . S
H9756 C9764 0.950 . S
H9757 C9769 0.950 . S
H9758 C9766 0.950 . S
H9759 C9768 0.950 . S
H9760 C9770 0.950 . S
H9761 C9772 0.950 . S
H9762 C9774 0.950 . S
H9763 C9775 0.950 . S
C9764 H9756 0.950 . S
C9764 C9765 1.386 . S
C9764 C9766 1.391 . S
C9765 C9764 1.386 . S
C9765 C9769 1.393 . S
C9766 H9758 0.950 . S
C9766 C9764 1.391 . S
C9766 C9767 1.400 . S
C9767 C9766 1.400 . S
C9767 C9768 1.398 . S
C9767 C9773 1.491 . S
C9768 H9759 0.950 . S
C9768 C9767 1.398 . S
C9768 C9769 1.391 . S
C9769 H9757 0.950 . S
C9769 C9765 1.393 . S
C9769 C9768 1.391 . S
C9770 H9760 0.950 . S
C9770 C9771 1.386 . S
C9770 C9772 1.391 . S
C9771 C9770 1.386 . S
C9771 C9775 1.393 . S
C9772 H9761 0.950 . S
C9772 C9770 1.391 . S
C9772 C9773 1.400 . S
C9773 C9767 1.491 . S
C9773 C9772 1.400 . S
C9773 C9774 1.398 . S
C9774 H9762 0.950 . S
C9774 C9773 1.398 . S
C9774 C9775 1.391 . S
C9775 H9763 0.950 . S
C9775 C9771 1.393 . S
C9775 C9774 1.391 . S
H9776 C9784 0.950 . S
H9777 C9789 0.950 . S
H9778 C9786 0.950 . S
H9779 C9788 0.950 . S
H9780 C9790 0.950 . S
H9781 C9792 0.950 . S
H9782 C9794 0.950 . S
H9783 C9795 0.950 . S
C9784 H9776 0.950 . S
C9784 C9785 1.386 . S
C9784 C9786 1.391 . S
C9785 C9784 1.386 . S
C9785 C9789 1.393 . S
C9786 H9778 0.950 . S
C9786 C9784 1.391 . S
C9786 C9787 1.400 . S
C9787 C9786 1.400 . S
C9787 C9788 1.398 . S
C9787 C9793 1.491 . S
C9788 H9779 0.950 . S
C9788 C9787 1.398 . S
C9788 C9789 1.391 . S
C9789 H9777 0.950 . S
C9789 C9785 1.393 . S
C9789 C9788 1.391 . S
C9790 H9780 0.950 . S
C9790 C9791 1.386 . S
C9790 C9792 1.391 . S
C9791 C9790 1.386 . S
C9791 C9795 1.393 . S
C9792 H9781 0.950 . S
C9792 C9790 1.391 . S
C9792 C9793 1.400 . S
C9793 C9787 1.491 . S
C9793 C9792 1.400 . S
C9793 C9794 1.398 . S
C9794 H9782 0.950 . S
C9794 C9793 1.398 . S
C9794 C9795 1.391 . S
C9795 H9783 0.950 . S
C9795 C9791 1.393 . S
C9795 C9794 1.391 . S
H9796 C9804 0.950 . S
H9797 C9809 0.950 . S
H9798 C9806 0.950 . S
H9799 C9808 0.950 . S
H9800 C9810 0.950 . S
H9801 C9812 0.950 . S
H9802 C9814 0.950 . S
H9803 C9815 0.950 . S
C9804 H9796 0.950 . S
C9804 C9805 1.386 . S
C9804 C9806 1.391 . S
C9805 C9804 1.386 . S
C9805 C9809 1.393 . S
C9806 H9798 0.950 . S
C9806 C9804 1.391 . S
C9806 C9807 1.400 . S
C9807 C9806 1.400 . S
C9807 C9808 1.398 . S
C9807 C9813 1.491 . S
C9808 H9799 0.950 . S
C9808 C9807 1.398 . S
C9808 C9809 1.391 . S
C9809 H9797 0.950 . S
C9809 C9805 1.393 . S
C9809 C9808 1.391 . S
C9810 H9800 0.950 . S
C9810 C9811 1.386 . S
C9810 C9812 1.391 . S
C9811 C9810 1.386 . S
C9811 C9815 1.393 . S
C9812 H9801 0.950 . S
C9812 C9810 1.391 . S
C9812 C9813 1.400 . S
C9813 C9807 1.491 . S
C9813 C9812 1.400 . S
C9813 C9814 1.398 . S
C9814 H9802 0.950 . S
C9814 C9813 1.398 . S
C9814 C9815 1.391 . S
C9815 H9803 0.950 . S
C9815 C9811 1.393 . S
C9815 C9814 1.391 . S
H9816 C9824 0.950 . S
H9817 C9829 0.950 . S
H9818 C9826 0.950 . S
H9819 C9828 0.950 . S
H9820 C9830 0.950 . S
H9821 C9832 0.950 . S
H9822 C9834 0.950 . S
H9823 C9835 0.950 . S
C9824 H9816 0.950 . S
C9824 C9825 1.386 . S
C9824 C9826 1.391 . S
C9825 C9824 1.386 . S
C9825 C9829 1.393 . S
C9826 H9818 0.950 . S
C9826 C9824 1.391 . S
C9826 C9827 1.400 . S
C9827 C9826 1.400 . S
C9827 C9828 1.398 . S
C9827 C9833 1.491 . S
C9828 H9819 0.950 . S
C9828 C9827 1.398 . S
C9828 C9829 1.391 . S
C9829 H9817 0.950 . S
C9829 C9825 1.393 . S
C9829 C9828 1.391 . S
C9830 H9820 0.950 . S
C9830 C9831 1.386 . S
C9830 C9832 1.391 . S
C9831 C9830 1.386 . S
C9831 C9835 1.393 . S
C9832 H9821 0.950 . S
C9832 C9830 1.391 . S
C9832 C9833 1.400 . S
C9833 C9827 1.491 . S
C9833 C9832 1.400 . S
C9833 C9834 1.398 . S
C9834 H9822 0.950 . S
C9834 C9833 1.398 . S
C9834 C9835 1.391 . S
C9835 H9823 0.950 . S
C9835 C9831 1.393 . S
C9835 C9834 1.391 . S
H9836 C9844 0.950 . S
H9837 C9849 0.950 . S
H9838 C9846 0.950 . S
H9839 C9848 0.950 . S
H9840 C9850 0.950 . S
H9841 C9852 0.950 . S
H9842 C9854 0.950 . S
H9843 C9855 0.950 . S
C9844 H9836 0.950 . S
C9844 C9845 1.386 . S
C9844 C9846 1.391 . S
C9845 C9844 1.386 . S
C9845 C9849 1.393 . S
C9846 H9838 0.950 . S
C9846 C9844 1.391 . S
C9846 C9847 1.400 . S
C9847 C9846 1.400 . S
C9847 C9848 1.398 . S
C9847 C9853 1.491 . S
C9848 H9839 0.950 . S
C9848 C9847 1.398 . S
C9848 C9849 1.391 . S
C9849 H9837 0.950 . S
C9849 C9845 1.393 . S
C9849 C9848 1.391 . S
C9850 H9840 0.950 . S
C9850 C9851 1.386 . S
C9850 C9852 1.391 . S
C9851 C9850 1.386 . S
C9851 C9855 1.393 . S
C9852 H9841 0.950 . S
C9852 C9850 1.391 . S
C9852 C9853 1.400 . S
C9853 C9847 1.491 . S
C9853 C9852 1.400 . S
C9853 C9854 1.398 . S
C9854 H9842 0.950 . S
C9854 C9853 1.398 . S
C9854 C9855 1.391 . S
C9855 H9843 0.950 . S
C9855 C9851 1.393 . S
C9855 C9854 1.391 . S
H9856 C9864 0.950 . S
H9857 C9869 0.950 . S
H9858 C9866 0.950 . S
H9859 C9868 0.950 . S
H9860 C9870 0.950 . S
H9861 C9872 0.950 . S
H9862 C9874 0.950 . S
H9863 C9875 0.950 . S
C9864 H9856 0.950 . S
C9864 C9865 1.386 . S
C9864 C9866 1.391 . S
C9865 C9864 1.386 . S
C9865 C9869 1.393 . S
C9866 H9858 0.950 . S
C9866 C9864 1.391 . S
C9866 C9867 1.400 . S
C9867 C9866 1.400 . S
C9867 C9868 1.398 . S
C9867 C9873 1.491 . S
C9868 H9859 0.950 . S
C9868 C9867 1.398 . S
C9868 C9869 1.391 . S
C9869 H9857 0.950 . S
C9869 C9865 1.393 . S
C9869 C9868 1.391 . S
C9870 H9860 0.950 . S
C9870 C9871 1.386 . S
C9870 C9872 1.391 . S
C9871 C9870 1.386 . S
C9871 C9875 1.393 . S
C9872 H9861 0.950 . S
C9872 C9870 1.391 . S
C9872 C9873 1.400 . S
C9873 C9867 1.491 . S
C9873 C9872 1.400 . S
C9873 C9874 1.398 . S
C9874 H9862 0.950 . S
C9874 C9873 1.398 . S
C9874 C9875 1.391 . S
C9875 H9863 0.950 . S
C9875 C9871 1.393 . S
C9875 C9874 1.391 . S
H9876 C9884 0.950 . S
H9877 C9889 0.950 . S
H9878 C9886 0.950 . S
H9879 C9888 0.950 . S
H9880 C9890 0.950 . S
H9881 C9892 0.950 . S
H9882 C9894 0.950 . S
H9883 C9895 0.950 . S
C9884 H9876 0.950 . S
C9884 C9885 1.386 . S
C9884 C9886 1.391 . S
C9885 C9884 1.386 . S
C9885 C9889 1.393 . S
C9886 H9878 0.950 . S
C9886 C9884 1.391 . S
C9886 C9887 1.400 . S
C9887 C9886 1.400 . S
C9887 C9888 1.398 . S
C9887 C9893 1.491 . S
C9888 H9879 0.950 . S
C9888 C9887 1.398 . S
C9888 C9889 1.391 . S
C9889 H9877 0.950 . S
C9889 C9885 1.393 . S
C9889 C9888 1.391 . S
C9890 H9880 0.950 . S
C9890 C9891 1.386 . S
C9890 C9892 1.391 . S
C9891 C9890 1.386 . S
C9891 C9895 1.393 . S
C9892 H9881 0.950 . S
C9892 C9890 1.391 . S
C9892 C9893 1.400 . S
C9893 C9887 1.491 . S
C9893 C9892 1.400 . S
C9893 C9894 1.398 . S
C9894 H9882 0.950 . S
C9894 C9893 1.398 . S
C9894 C9895 1.391 . S
C9895 H9883 0.950 . S
C9895 C9891 1.393 . S
C9895 C9894 1.391 . S
H9896 C9904 0.950 . S
H9897 C9909 0.950 . S
H9898 C9906 0.950 . S
H9899 C9908 0.950 . S
H9900 C9910 0.950 . S
H9901 C9912 0.950 . S
H9902 C9914 0.950 . S
H9903 C9915 0.950 . S
C9904 H9896 0.950 . S
C9904 C9905 1.386 . S
C9904 C9906 1.391 . S
C9905 C9904 1.386 . S
C9905 C9909 1.393 . S
C9906 H9898 0.950 . S
C9906 C9904 1.391 . S
C9906 C9907 1.400 . S
C9907 C9906 1.400 . S
C9907 C9908 1.398 . S
C9907 C9913 1.491 . S
C9908 H9899 0.950 . S
C9908 C9907 1.398 . S
C9908 C9909 1.391 . S
C9909 H9897 0.950 . S
C9909 C9905 1.393 . S
C9909 C9908 1.391 . S
C9910 H9900 0.950 . S
C9910 C9911 1.386 . S
C9910 C9912 1.391 . S
C9911 C9910 1.386 . S
C9911 C9915 1.393 . S
C9912 H9901 0.950 . S
C9912 C9910 1.391 . S
C9912 C9913 1.400 . S
C9913 C9907 1.491 . S
C9913 C9912 1.400 . S
C9913 C9914 1.398 . S
C9914 H9902 0.950 . S
C9914 C9913 1.398 . S
C9914 C9915 1.391 . S
C9915 H9903 0.950 . S
C9915 C9911 1.393 . S
C9915 C9914 1.391 . S
H9916 C9924 0.950 . S
H9917 C9929 0.950 . S
H9918 C9926 0.950 . S
H9919 C9928 0.950 . S
H9920 C9930 0.950 . S
H9921 C9932 0.950 . S
H9922 C9934 0.950 . S
H9923 C9935 0.950 . S
C9924 H9916 0.950 . S
C9924 C9925 1.386 . S
C9924 C9926 1.391 . S
C9925 C9924 1.386 . S
C9925 C9929 1.393 . S
C9926 H9918 0.950 . S
C9926 C9924 1.391 . S
C9926 C9927 1.400 . S
C9927 C9926 1.400 . S
C9927 C9928 1.398 . S
C9927 C9933 1.491 . S
C9928 H9919 0.950 . S
C9928 C9927 1.398 . S
C9928 C9929 1.391 . S
C9929 H9917 0.950 . S
C9929 C9925 1.393 . S
C9929 C9928 1.391 . S
C9930 H9920 0.950 . S
C9930 C9931 1.386 . S
C9930 C9932 1.391 . S
C9931 C9930 1.386 . S
C9931 C9935 1.393 . S
C9932 H9921 0.950 . S
C9932 C9930 1.391 . S
C9932 C9933 1.400 . S
C9933 C9927 1.491 . S
C9933 C9932 1.400 . S
C9933 C9934 1.398 . S
C9934 H9922 0.950 . S
C9934 C9933 1.398 . S
C9934 C9935 1.391 . S
C9935 H9923 0.950 . S
C9935 C9931 1.393 . S
C9935 C9934 1.391 . S
H9936 C9944 0.950 . S
H9937 C9949 0.950 . S
H9938 C9946 0.950 . S
H9939 C9948 0.950 . S
H9940 C9950 0.950 . S
H9941 C9952 0.950 . S
H9942 C9954 0.950 . S
H9943 C9955 0.950 . S
C9944 H9936 0.950 . S
C9944 C9945 1.386 . S
C9944 C9946 1.391 . S
C9945 C9944 1.386 . S
C9945 C9949 1.393 . S
C9946 H9938 0.950 . S
C9946 C9944 1.391 . S
C9946 C9947 1.400 . S
C9947 C9946 1.400 . S
C9947 C9948 1.398 . S
C9947 C9953 1.491 . S
C9948 H9939 0.950 . S
C9948 C9947 1.398 . S
C9948 C9949 1.391 . S
C9949 H9937 0.950 . S
C9949 C9945 1.393 . S
C9949 C9948 1.391 . S
C9950 H9940 0.950 . S
C9950 C9951 1.386 . S
C9950 C9952 1.391 . S
C9951 C9950 1.386 . S
C9951 C9955 1.393 . S
C9952 H9941 0.950 . S
C9952 C9950 1.391 . S
C9952 C9953 1.400 . S
C9953 C9947 1.491 . S
C9953 C9952 1.400 . S
C9953 C9954 1.398 . S
C9954 H9942 0.950 . S
C9954 C9953 1.398 . S
C9954 C9955 1.391 . S
C9955 H9943 0.950 . S
C9955 C9951 1.393 . S
C9955 C9954 1.391 . S
H9956 C9964 0.950 . S
H9957 C9969 0.950 . S
H9958 C9966 0.950 . S
H9959 C9968 0.950 . S
H9960 C9970 0.950 . S
H9961 C9972 0.950 . S
H9962 C9974 0.950 . S
H9963 C9975 0.950 . S
C9964 H9956 0.950 . S
C9964 C9965 1.386 . S
C9964 C9966 1.391 . S
C9965 C9964 1.386 . S
C9965 C9969 1.393 . S
C9966 H9958 0.950 . S
C9966 C9964 1.391 . S
C9966 C9967 1.400 . S
C9967 C9966 1.400 . S
C9967 C9968 1.398 . S
C9967 C9973 1.491 . S
C9968 H9959 0.950 . S
C9968 C9967 1.398 . S
C9968 C9969 1.391 . S
C9969 H9957 0.950 . S
C9969 C9965 1.393 . S
C9969 C9968 1.391 . S
C9970 H9960 0.950 . S
C9970 C9971 1.386 . S
C9970 C9972 1.391 . S
C9971 C9970 1.386 . S
C9971 C9975 1.393 . S
C9972 H9961 0.950 . S
C9972 C9970 1.391 . S
C9972 C9973 1.400 . S
C9973 C9967 1.491 . S
C9973 C9972 1.400 . S
C9973 C9974 1.398 . S
C9974 H9962 0.950 . S
C9974 C9973 1.398 . S
C9974 C9975 1.391 . S
C9975 H9963 0.950 . S
C9975 C9971 1.393 . S
C9975 C9974 1.391 . S
H9976 C9984 0.950 . S
H9977 C9989 0.950 . S
H9978 C9986 0.950 . S
H9979 C9988 0.950 . S
H9980 C9990 0.950 . S
H9981 C9992 0.950 . S
H9982 C9994 0.950 . S
H9983 C9995 0.950 . S
C9984 H9976 0.950 . S
C9984 C9985 1.386 . S
C9984 C9986 1.391 . S
C9985 C9984 1.386 . S
C9985 C9989 1.393 . S
C9986 H9978 0.950 . S
C9986 C9984 1.391 . S
C9986 C9987 1.400 . S
C9987 C9986 1.400 . S
C9987 C9988 1.398 . S
C9987 C9993 1.491 . S
C9988 H9979 0.950 . S
C9988 C9987 1.398 . S
C9988 C9989 1.391 . S
C9989 H9977 0.950 . S
C9989 C9985 1.393 . S
C9989 C9988 1.391 . S
C9990 H9980 0.950 . S
C9990 C9991 1.386 . S
C9990 C9992 1.391 . S
C9991 C9990 1.386 . S
C9991 C9995 1.393 . S
C9992 H9981 0.950 . S
C9992 C9990 1.391 . S
C9992 C9993 1.400 . S
C9993 C9987 1.491 . S
C9993 C9992 1.400 . S
C9993 C9994 1.398 . S
C9994 H9982 0.950 . S
C9994 C9993 1.398 . S
C9994 C9995 1.391 . S
C9995 H9983 0.950 . S
C9995 C9991 1.393 . S
C9995 C9994 1.391 . S
H9996 C10004 0.950 . S
H9997 C10009 0.950 . S
H9998 C10006 0.950 . S
H9999 C10008 0.950 . S
H10000 C10010 0.950 . S
H10001 C10012 0.950 . S
H10002 C10014 0.950 . S
H10003 C10015 0.950 . S
C10004 H9996 0.950 . S
C10004 C10005 1.386 . S
C10004 C10006 1.391 . S
C10005 C10004 1.386 . S
C10005 C10009 1.393 . S
C10006 H9998 0.950 . S
C10006 C10004 1.391 . S
C10006 C10007 1.400 . S
C10007 C10006 1.400 . S
C10007 C10008 1.398 . S
C10007 C10013 1.491 . S
C10008 H9999 0.950 . S
C10008 C10007 1.398 . S
C10008 C10009 1.391 . S
C10009 H9997 0.950 . S
C10009 C10005 1.393 . S
C10009 C10008 1.391 . S
C10010 H10000 0.950 . S
C10010 C10011 1.386 . S
C10010 C10012 1.391 . S
C10011 C10010 1.386 . S
C10011 C10015 1.393 . S
C10012 H10001 0.950 . S
C10012 C10010 1.391 . S
C10012 C10013 1.400 . S
C10013 C10007 1.491 . S
C10013 C10012 1.400 . S
C10013 C10014 1.398 . S
C10014 H10002 0.950 . S
C10014 C10013 1.398 . S
C10014 C10015 1.391 . S
C10015 H10003 0.950 . S
C10015 C10011 1.393 . S
C10015 C10014 1.391 . S
H10016 C10024 0.950 . S
H10017 C10029 0.950 . S
H10018 C10026 0.950 . S
H10019 C10028 0.950 . S
H10020 C10030 0.950 . S
H10021 C10032 0.950 . S
H10022 C10034 0.950 . S
H10023 C10035 0.950 . S
C10024 H10016 0.950 . S
C10024 C10025 1.386 . S
C10024 C10026 1.391 . S
C10025 C10024 1.386 . S
C10025 C10029 1.393 . S
C10026 H10018 0.950 . S
C10026 C10024 1.391 . S
C10026 C10027 1.400 . S
C10027 C10026 1.400 . S
C10027 C10028 1.398 . S
C10027 C10033 1.491 . S
C10028 H10019 0.950 . S
C10028 C10027 1.398 . S
C10028 C10029 1.391 . S
C10029 H10017 0.950 . S
C10029 C10025 1.393 . S
C10029 C10028 1.391 . S
C10030 H10020 0.950 . S
C10030 C10031 1.386 . S
C10030 C10032 1.391 . S
C10031 C10030 1.386 . S
C10031 C10035 1.393 . S
C10032 H10021 0.950 . S
C10032 C10030 1.391 . S
C10032 C10033 1.400 . S
C10033 C10027 1.491 . S
C10033 C10032 1.400 . S
C10033 C10034 1.398 . S
C10034 H10022 0.950 . S
C10034 C10033 1.398 . S
C10034 C10035 1.391 . S
C10035 H10023 0.950 . S
C10035 C10031 1.393 . S
C10035 C10034 1.391 . S
H10036 C10044 0.950 . S
H10037 C10049 0.950 . S
H10038 C10046 0.950 . S
H10039 C10048 0.950 . S
H10040 C10050 0.950 . S
H10041 C10052 0.950 . S
H10042 C10054 0.950 . S
H10043 C10055 0.950 . S
C10044 H10036 0.950 . S
C10044 C10045 1.386 . S
C10044 C10046 1.391 . S
C10045 C10044 1.386 . S
C10045 C10049 1.393 . S
C10046 H10038 0.950 . S
C10046 C10044 1.391 . S
C10046 C10047 1.400 . S
C10047 C10046 1.400 . S
C10047 C10048 1.398 . S
C10047 C10053 1.491 . S
C10048 H10039 0.950 . S
C10048 C10047 1.398 . S
C10048 C10049 1.391 . S
C10049 H10037 0.950 . S
C10049 C10045 1.393 . S
C10049 C10048 1.391 . S
C10050 H10040 0.950 . S
C10050 C10051 1.386 . S
C10050 C10052 1.391 . S
C10051 C10050 1.386 . S
C10051 C10055 1.393 . S
C10052 H10041 0.950 . S
C10052 C10050 1.391 . S
C10052 C10053 1.400 . S
C10053 C10047 1.491 . S
C10053 C10052 1.400 . S
C10053 C10054 1.398 . S
C10054 H10042 0.950 . S
C10054 C10053 1.398 . S
C10054 C10055 1.391 . S
C10055 H10043 0.950 . S
C10055 C10051 1.393 . S
C10055 C10054 1.391 . S
H10056 C10064 0.950 . S
H10057 C10069 0.950 . S
H10058 C10066 0.950 . S
H10059 C10068 0.950 . S
H10060 C10070 0.950 . S
H10061 C10072 0.950 . S
H10062 C10074 0.950 . S
H10063 C10075 0.950 . S
C10064 H10056 0.950 . S
C10064 C10065 1.386 . S
C10064 C10066 1.391 . S
C10065 C10064 1.386 . S
C10065 C10069 1.393 . S
C10066 H10058 0.950 . S
C10066 C10064 1.391 . S
C10066 C10067 1.400 . S
C10067 C10066 1.400 . S
C10067 C10068 1.398 . S
C10067 C10073 1.491 . S
C10068 H10059 0.950 . S
C10068 C10067 1.398 . S
C10068 C10069 1.391 . S
C10069 H10057 0.950 . S
C10069 C10065 1.393 . S
C10069 C10068 1.391 . S
C10070 H10060 0.950 . S
C10070 C10071 1.386 . S
C10070 C10072 1.391 . S
C10071 C10070 1.386 . S
C10071 C10075 1.393 . S
C10072 H10061 0.950 . S
C10072 C10070 1.391 . S
C10072 C10073 1.400 . S
C10073 C10067 1.491 . S
C10073 C10072 1.400 . S
C10073 C10074 1.398 . S
C10074 H10062 0.950 . S
C10074 C10073 1.398 . S
C10074 C10075 1.391 . S
C10075 H10063 0.950 . S
C10075 C10071 1.393 . S
C10075 C10074 1.391 . S
H10076 C10084 0.950 . S
H10077 C10089 0.950 . S
H10078 C10086 0.950 . S
H10079 C10088 0.950 . S
H10080 C10090 0.950 . S
H10081 C10092 0.950 . S
H10082 C10094 0.950 . S
H10083 C10095 0.950 . S
C10084 H10076 0.950 . S
C10084 C10085 1.386 . S
C10084 C10086 1.391 . S
C10085 C10084 1.386 . S
C10085 C10089 1.393 . S
C10086 H10078 0.950 . S
C10086 C10084 1.391 . S
C10086 C10087 1.400 . S
C10087 C10086 1.400 . S
C10087 C10088 1.398 . S
C10087 C10093 1.491 . S
C10088 H10079 0.950 . S
C10088 C10087 1.398 . S
C10088 C10089 1.391 . S
C10089 H10077 0.950 . S
C10089 C10085 1.393 . S
C10089 C10088 1.391 . S
C10090 H10080 0.950 . S
C10090 C10091 1.386 . S
C10090 C10092 1.391 . S
C10091 C10090 1.386 . S
C10091 C10095 1.393 . S
C10092 H10081 0.950 . S
C10092 C10090 1.391 . S
C10092 C10093 1.400 . S
C10093 C10087 1.491 . S
C10093 C10092 1.400 . S
C10093 C10094 1.398 . S
C10094 H10082 0.950 . S
C10094 C10093 1.398 . S
C10094 C10095 1.391 . S
C10095 H10083 0.950 . S
C10095 C10091 1.393 . S
C10095 C10094 1.391 . S
H10096 C10104 0.950 . S
H10097 C10109 0.950 . S
H10098 C10106 0.950 . S
H10099 C10108 0.950 . S
H10100 C10110 0.950 . S
H10101 C10112 0.950 . S
H10102 C10114 0.950 . S
H10103 C10115 0.950 . S
C10104 H10096 0.950 . S
C10104 C10105 1.386 . S
C10104 C10106 1.391 . S
C10105 C10104 1.386 . S
C10105 C10109 1.393 . S
C10106 H10098 0.950 . S
C10106 C10104 1.391 . S
C10106 C10107 1.400 . S
C10107 C10106 1.400 . S
C10107 C10108 1.398 . S
C10107 C10113 1.491 . S
C10108 H10099 0.950 . S
C10108 C10107 1.398 . S
C10108 C10109 1.391 . S
C10109 H10097 0.950 . S
C10109 C10105 1.393 . S
C10109 C10108 1.391 . S
C10110 H10100 0.950 . S
C10110 C10111 1.386 . S
C10110 C10112 1.391 . S
C10111 C10110 1.386 . S
C10111 C10115 1.393 . S
C10112 H10101 0.950 . S
C10112 C10110 1.391 . S
C10112 C10113 1.400 . S
C10113 C10107 1.491 . S
C10113 C10112 1.400 . S
C10113 C10114 1.398 . S
C10114 H10102 0.950 . S
C10114 C10113 1.398 . S
C10114 C10115 1.391 . S
C10115 H10103 0.950 . S
C10115 C10111 1.393 . S
C10115 C10114 1.391 . S
H10116 C10124 0.950 . S
H10117 C10129 0.950 . S
H10118 C10126 0.950 . S
H10119 C10128 0.950 . S
H10120 C10130 0.950 . S
H10121 C10132 0.950 . S
H10122 C10134 0.950 . S
H10123 C10135 0.950 . S
C10124 H10116 0.950 . S
C10124 C10125 1.386 . S
C10124 C10126 1.391 . S
C10125 C10124 1.386 . S
C10125 C10129 1.393 . S
C10126 H10118 0.950 . S
C10126 C10124 1.391 . S
C10126 C10127 1.400 . S
C10127 C10126 1.400 . S
C10127 C10128 1.398 . S
C10127 C10133 1.491 . S
C10128 H10119 0.950 . S
C10128 C10127 1.398 . S
C10128 C10129 1.391 . S
C10129 H10117 0.950 . S
C10129 C10125 1.393 . S
C10129 C10128 1.391 . S
C10130 H10120 0.950 . S
C10130 C10131 1.386 . S
C10130 C10132 1.391 . S
C10131 C10130 1.386 . S
C10131 C10135 1.393 . S
C10132 H10121 0.950 . S
C10132 C10130 1.391 . S
C10132 C10133 1.400 . S
C10133 C10127 1.491 . S
C10133 C10132 1.400 . S
C10133 C10134 1.398 . S
C10134 H10122 0.950 . S
C10134 C10133 1.398 . S
C10134 C10135 1.391 . S
C10135 H10123 0.950 . S
C10135 C10131 1.393 . S
C10135 C10134 1.391 . S
H10136 C10144 0.950 . S
H10137 C10149 0.950 . S
H10138 C10146 0.950 . S
H10139 C10148 0.950 . S
H10140 C10150 0.950 . S
H10141 C10152 0.950 . S
H10142 C10154 0.950 . S
H10143 C10155 0.950 . S
C10144 H10136 0.950 . S
C10144 C10145 1.386 . S
C10144 C10146 1.391 . S
C10145 C10144 1.386 . S
C10145 C10149 1.393 . S
C10146 H10138 0.950 . S
C10146 C10144 1.391 . S
C10146 C10147 1.400 . S
C10147 C10146 1.400 . S
C10147 C10148 1.398 . S
C10147 C10153 1.491 . S
C10148 H10139 0.950 . S
C10148 C10147 1.398 . S
C10148 C10149 1.391 . S
C10149 H10137 0.950 . S
C10149 C10145 1.393 . S
C10149 C10148 1.391 . S
C10150 H10140 0.950 . S
C10150 C10151 1.386 . S
C10150 C10152 1.391 . S
C10151 C10150 1.386 . S
C10151 C10155 1.393 . S
C10152 H10141 0.950 . S
C10152 C10150 1.391 . S
C10152 C10153 1.400 . S
C10153 C10147 1.491 . S
C10153 C10152 1.400 . S
C10153 C10154 1.398 . S
C10154 H10142 0.950 . S
C10154 C10153 1.398 . S
C10154 C10155 1.391 . S
C10155 H10143 0.950 . S
C10155 C10151 1.393 . S
C10155 C10154 1.391 . S
H10156 C10164 0.950 . S
H10157 C10169 0.950 . S
H10158 C10166 0.950 . S
H10159 C10168 0.950 . S
H10160 C10170 0.950 . S
H10161 C10172 0.950 . S
H10162 C10174 0.950 . S
H10163 C10175 0.950 . S
C10164 H10156 0.950 . S
C10164 C10165 1.386 . S
C10164 C10166 1.391 . S
C10165 C10164 1.386 . S
C10165 C10169 1.393 . S
C10166 H10158 0.950 . S
C10166 C10164 1.391 . S
C10166 C10167 1.400 . S
C10167 C10166 1.400 . S
C10167 C10168 1.398 . S
C10167 C10173 1.491 . S
C10168 H10159 0.950 . S
C10168 C10167 1.398 . S
C10168 C10169 1.391 . S
C10169 H10157 0.950 . S
C10169 C10165 1.393 . S
C10169 C10168 1.391 . S
C10170 H10160 0.950 . S
C10170 C10171 1.386 . S
C10170 C10172 1.391 . S
C10171 C10170 1.386 . S
C10171 C10175 1.393 . S
C10172 H10161 0.950 . S
C10172 C10170 1.391 . S
C10172 C10173 1.400 . S
C10173 C10167 1.491 . S
C10173 C10172 1.400 . S
C10173 C10174 1.398 . S
C10174 H10162 0.950 . S
C10174 C10173 1.398 . S
C10174 C10175 1.391 . S
C10175 H10163 0.950 . S
C10175 C10171 1.393 . S
C10175 C10174 1.391 . S
H10176 C10184 0.950 . S
H10177 C10189 0.950 . S
H10178 C10186 0.950 . S
H10179 C10188 0.950 . S
H10180 C10190 0.950 . S
H10181 C10192 0.950 . S
H10182 C10194 0.950 . S
H10183 C10195 0.950 . S
C10184 H10176 0.950 . S
C10184 C10185 1.386 . S
C10184 C10186 1.391 . S
C10185 C10184 1.386 . S
C10185 C10189 1.393 . S
C10186 H10178 0.950 . S
C10186 C10184 1.391 . S
C10186 C10187 1.400 . S
C10187 C10186 1.400 . S
C10187 C10188 1.398 . S
C10187 C10193 1.491 . S
C10188 H10179 0.950 . S
C10188 C10187 1.398 . S
C10188 C10189 1.391 . S
C10189 H10177 0.950 . S
C10189 C10185 1.393 . S
C10189 C10188 1.391 . S
C10190 H10180 0.950 . S
C10190 C10191 1.386 . S
C10190 C10192 1.391 . S
C10191 C10190 1.386 . S
C10191 C10195 1.393 . S
C10192 H10181 0.950 . S
C10192 C10190 1.391 . S
C10192 C10193 1.400 . S
C10193 C10187 1.491 . S
C10193 C10192 1.400 . S
C10193 C10194 1.398 . S
C10194 H10182 0.950 . S
C10194 C10193 1.398 . S
C10194 C10195 1.391 . S
C10195 H10183 0.950 . S
C10195 C10191 1.393 . S
C10195 C10194 1.391 . S
H10196 C10204 0.950 . S
H10197 C10209 0.950 . S
H10198 C10206 0.950 . S
H10199 C10208 0.950 . S
H10200 C10210 0.950 . S
H10201 C10212 0.950 . S
H10202 C10214 0.950 . S
H10203 C10215 0.950 . S
C10204 H10196 0.950 . S
C10204 C10205 1.386 . S
C10204 C10206 1.391 . S
C10205 C10204 1.386 . S
C10205 C10209 1.393 . S
C10206 H10198 0.950 . S
C10206 C10204 1.391 . S
C10206 C10207 1.400 . S
C10207 C10206 1.400 . S
C10207 C10208 1.398 . S
C10207 C10213 1.491 . S
C10208 H10199 0.950 . S
C10208 C10207 1.398 . S
C10208 C10209 1.391 . S
C10209 H10197 0.950 . S
C10209 C10205 1.393 . S
C10209 C10208 1.391 . S
C10210 H10200 0.950 . S
C10210 C10211 1.386 . S
C10210 C10212 1.391 . S
C10211 C10210 1.386 . S
C10211 C10215 1.393 . S
C10212 H10201 0.950 . S
C10212 C10210 1.391 . S
C10212 C10213 1.400 . S
C10213 C10207 1.491 . S
C10213 C10212 1.400 . S
C10213 C10214 1.398 . S
C10214 H10202 0.950 . S
C10214 C10213 1.398 . S
C10214 C10215 1.391 . S
C10215 H10203 0.950 . S
C10215 C10211 1.393 . S
C10215 C10214 1.391 . S
H10216 C10224 0.950 . S
H10217 C10229 0.950 . S
H10218 C10226 0.950 . S
H10219 C10228 0.950 . S
H10220 C10230 0.950 . S
H10221 C10232 0.950 . S
H10222 C10234 0.950 . S
H10223 C10235 0.950 . S
C10224 H10216 0.950 . S
C10224 C10225 1.386 . S
C10224 C10226 1.391 . S
C10225 C10224 1.386 . S
C10225 C10229 1.393 . S
C10226 H10218 0.950 . S
C10226 C10224 1.391 . S
C10226 C10227 1.400 . S
C10227 C10226 1.400 . S
C10227 C10228 1.398 . S
C10227 C10233 1.491 . S
C10228 H10219 0.950 . S
C10228 C10227 1.398 . S
C10228 C10229 1.391 . S
C10229 H10217 0.950 . S
C10229 C10225 1.393 . S
C10229 C10228 1.391 . S
C10230 H10220 0.950 . S
C10230 C10231 1.386 . S
C10230 C10232 1.391 . S
C10231 C10230 1.386 . S
C10231 C10235 1.393 . S
C10232 H10221 0.950 . S
C10232 C10230 1.391 . S
C10232 C10233 1.400 . S
C10233 C10227 1.491 . S
C10233 C10232 1.400 . S
C10233 C10234 1.398 . S
C10234 H10222 0.950 . S
C10234 C10233 1.398 . S
C10234 C10235 1.391 . S
C10235 H10223 0.950 . S
C10235 C10231 1.393 . S
C10235 C10234 1.391 . S
H10236 C10244 0.950 . S
H10237 C10249 0.950 . S
H10238 C10246 0.950 . S
H10239 C10248 0.950 . S
H10240 C10250 0.950 . S
H10241 C10252 0.950 . S
H10242 C10254 0.950 . S
H10243 C10255 0.950 . S
C10244 H10236 0.950 . S
C10244 C10245 1.386 . S
C10244 C10246 1.391 . S
C10245 C10244 1.386 . S
C10245 C10249 1.393 . S
C10246 H10238 0.950 . S
C10246 C10244 1.391 . S
C10246 C10247 1.400 . S
C10247 C10246 1.400 . S
C10247 C10248 1.398 . S
C10247 C10253 1.491 . S
C10248 H10239 0.950 . S
C10248 C10247 1.398 . S
C10248 C10249 1.391 . S
C10249 H10237 0.950 . S
C10249 C10245 1.393 . S
C10249 C10248 1.391 . S
C10250 H10240 0.950 . S
C10250 C10251 1.386 . S
C10250 C10252 1.391 . S
C10251 C10250 1.386 . S
C10251 C10255 1.393 . S
C10252 H10241 0.950 . S
C10252 C10250 1.391 . S
C10252 C10253 1.400 . S
C10253 C10247 1.491 . S
C10253 C10252 1.400 . S
C10253 C10254 1.398 . S
C10254 H10242 0.950 . S
C10254 C10253 1.398 . S
C10254 C10255 1.391 . S
C10255 H10243 0.950 . S
C10255 C10251 1.393 . S
C10255 C10254 1.391 . S
H10256 C10264 0.950 . S
H10257 C10269 0.950 . S
H10258 C10266 0.950 . S
H10259 C10268 0.950 . S
H10260 C10270 0.950 . S
H10261 C10272 0.950 . S
H10262 C10274 0.950 . S
H10263 C10275 0.950 . S
C10264 H10256 0.950 . S
C10264 C10265 1.386 . S
C10264 C10266 1.391 . S
C10265 C10264 1.386 . S
C10265 C10269 1.393 . S
C10266 H10258 0.950 . S
C10266 C10264 1.391 . S
C10266 C10267 1.400 . S
C10267 C10266 1.400 . S
C10267 C10268 1.398 . S
C10267 C10273 1.491 . S
C10268 H10259 0.950 . S
C10268 C10267 1.398 . S
C10268 C10269 1.391 . S
C10269 H10257 0.950 . S
C10269 C10265 1.393 . S
C10269 C10268 1.391 . S
C10270 H10260 0.950 . S
C10270 C10271 1.386 . S
C10270 C10272 1.391 . S
C10271 C10270 1.386 . S
C10271 C10275 1.393 . S
C10272 H10261 0.950 . S
C10272 C10270 1.391 . S
C10272 C10273 1.400 . S
C10273 C10267 1.491 . S
C10273 C10272 1.400 . S
C10273 C10274 1.398 . S
C10274 H10262 0.950 . S
C10274 C10273 1.398 . S
C10274 C10275 1.391 . S
C10275 H10263 0.950 . S
C10275 C10271 1.393 . S
C10275 C10274 1.391 . S
H10276 C10284 0.950 . S
H10277 C10289 0.950 . S
H10278 C10286 0.950 . S
H10279 C10288 0.950 . S
H10280 C10290 0.950 . S
H10281 C10292 0.950 . S
H10282 C10294 0.950 . S
H10283 C10295 0.950 . S
C10284 H10276 0.950 . S
C10284 C10285 1.386 . S
C10284 C10286 1.391 . S
C10285 C10284 1.386 . S
C10285 C10289 1.393 . S
C10286 H10278 0.950 . S
C10286 C10284 1.391 . S
C10286 C10287 1.400 . S
C10287 C10286 1.400 . S
C10287 C10288 1.398 . S
C10287 C10293 1.491 . S
C10288 H10279 0.950 . S
C10288 C10287 1.398 . S
C10288 C10289 1.391 . S
C10289 H10277 0.950 . S
C10289 C10285 1.393 . S
C10289 C10288 1.391 . S
C10290 H10280 0.950 . S
C10290 C10291 1.386 . S
C10290 C10292 1.391 . S
C10291 C10290 1.386 . S
C10291 C10295 1.393 . S
C10292 H10281 0.950 . S
C10292 C10290 1.391 . S
C10292 C10293 1.400 . S
C10293 C10287 1.491 . S
C10293 C10292 1.400 . S
C10293 C10294 1.398 . S
C10294 H10282 0.950 . S
C10294 C10293 1.398 . S
C10294 C10295 1.391 . S
C10295 H10283 0.950 . S
C10295 C10291 1.393 . S
C10295 C10294 1.391 . S
H10296 C10304 0.950 . S
H10297 C10309 0.950 . S
H10298 C10306 0.950 . S
H10299 C10308 0.950 . S
H10300 C10310 0.950 . S
H10301 C10312 0.950 . S
H10302 C10314 0.950 . S
H10303 C10315 0.950 . S
C10304 H10296 0.950 . S
C10304 C10305 1.386 . S
C10304 C10306 1.391 . S
C10305 C10304 1.386 . S
C10305 C10309 1.393 . S
C10306 H10298 0.950 . S
C10306 C10304 1.391 . S
C10306 C10307 1.400 . S
C10307 C10306 1.400 . S
C10307 C10308 1.398 . S
C10307 C10313 1.491 . S
C10308 H10299 0.950 . S
C10308 C10307 1.398 . S
C10308 C10309 1.391 . S
C10309 H10297 0.950 . S
C10309 C10305 1.393 . S
C10309 C10308 1.391 . S
C10310 H10300 0.950 . S
C10310 C10311 1.386 . S
C10310 C10312 1.391 . S
C10311 C10310 1.386 . S
C10311 C10315 1.393 . S
C10312 H10301 0.950 . S
C10312 C10310 1.391 . S
C10312 C10313 1.400 . S
C10313 C10307 1.491 . S
C10313 C10312 1.400 . S
C10313 C10314 1.398 . S
C10314 H10302 0.950 . S
C10314 C10313 1.398 . S
C10314 C10315 1.391 . S
C10315 H10303 0.950 . S
C10315 C10311 1.393 . S
C10315 C10314 1.391 . S
H10316 C10324 0.950 . S
H10317 C10329 0.950 . S
H10318 C10326 0.950 . S
H10319 C10328 0.950 . S
H10320 C10330 0.950 . S
H10321 C10332 0.950 . S
H10322 C10334 0.950 . S
H10323 C10335 0.950 . S
C10324 H10316 0.950 . S
C10324 C10325 1.386 . S
C10324 C10326 1.391 . S
C10325 C10324 1.386 . S
C10325 C10329 1.393 . S
C10326 H10318 0.950 . S
C10326 C10324 1.391 . S
C10326 C10327 1.400 . S
C10327 C10326 1.400 . S
C10327 C10328 1.398 . S
C10327 C10333 1.491 . S
C10328 H10319 0.950 . S
C10328 C10327 1.398 . S
C10328 C10329 1.391 . S
C10329 H10317 0.950 . S
C10329 C10325 1.393 . S
C10329 C10328 1.391 . S
C10330 H10320 0.950 . S
C10330 C10331 1.386 . S
C10330 C10332 1.391 . S
C10331 C10330 1.386 . S
C10331 C10335 1.393 . S
C10332 H10321 0.950 . S
C10332 C10330 1.391 . S
C10332 C10333 1.400 . S
C10333 C10327 1.491 . S
C10333 C10332 1.400 . S
C10333 C10334 1.398 . S
C10334 H10322 0.950 . S
C10334 C10333 1.398 . S
C10334 C10335 1.391 . S
C10335 H10323 0.950 . S
C10335 C10331 1.393 . S
C10335 C10334 1.391 . S
H10336 C10344 0.950 . S
H10337 C10349 0.950 . S
H10338 C10346 0.950 . S
H10339 C10348 0.950 . S
H10340 C10350 0.950 . S
H10341 C10352 0.950 . S
H10342 C10354 0.950 . S
H10343 C10355 0.950 . S
C10344 H10336 0.950 . S
C10344 C10345 1.386 . S
C10344 C10346 1.391 . S
C10345 C10344 1.386 . S
C10345 C10349 1.393 . S
C10346 H10338 0.950 . S
C10346 C10344 1.391 . S
C10346 C10347 1.400 . S
C10347 C10346 1.400 . S
C10347 C10348 1.398 . S
C10347 C10353 1.491 . S
C10348 H10339 0.950 . S
C10348 C10347 1.398 . S
C10348 C10349 1.391 . S
C10349 H10337 0.950 . S
C10349 C10345 1.393 . S
C10349 C10348 1.391 . S
C10350 H10340 0.950 . S
C10350 C10351 1.386 . S
C10350 C10352 1.391 . S
C10351 C10350 1.386 . S
C10351 C10355 1.393 . S
C10352 H10341 0.950 . S
C10352 C10350 1.391 . S
C10352 C10353 1.400 . S
C10353 C10347 1.491 . S
C10353 C10352 1.400 . S
C10353 C10354 1.398 . S
C10354 H10342 0.950 . S
C10354 C10353 1.398 . S
C10354 C10355 1.391 . S
C10355 H10343 0.950 . S
C10355 C10351 1.393 . S
C10355 C10354 1.391 . S
H10356 C10364 0.950 . S
H10357 C10369 0.950 . S
H10358 C10366 0.950 . S
H10359 C10368 0.950 . S
H10360 C10370 0.950 . S
H10361 C10372 0.950 . S
H10362 C10374 0.950 . S
H10363 C10375 0.950 . S
C10364 H10356 0.950 . S
C10364 C10365 1.386 . S
C10364 C10366 1.391 . S
C10365 C10364 1.386 . S
C10365 C10369 1.393 . S
C10366 H10358 0.950 . S
C10366 C10364 1.391 . S
C10366 C10367 1.400 . S
C10367 C10366 1.400 . S
C10367 C10368 1.398 . S
C10367 C10373 1.491 . S
C10368 H10359 0.950 . S
C10368 C10367 1.398 . S
C10368 C10369 1.391 . S
C10369 H10357 0.950 . S
C10369 C10365 1.393 . S
C10369 C10368 1.391 . S
C10370 H10360 0.950 . S
C10370 C10371 1.386 . S
C10370 C10372 1.391 . S
C10371 C10370 1.386 . S
C10371 C10375 1.393 . S
C10372 H10361 0.950 . S
C10372 C10370 1.391 . S
C10372 C10373 1.400 . S
C10373 C10367 1.491 . S
C10373 C10372 1.400 . S
C10373 C10374 1.398 . S
C10374 H10362 0.950 . S
C10374 C10373 1.398 . S
C10374 C10375 1.391 . S
C10375 H10363 0.950 . S
C10375 C10371 1.393 . S
C10375 C10374 1.391 . S
H10376 C10384 0.950 . S
H10377 C10389 0.950 . S
H10378 C10386 0.950 . S
H10379 C10388 0.950 . S
H10380 C10390 0.950 . S
H10381 C10392 0.950 . S
H10382 C10394 0.950 . S
H10383 C10395 0.950 . S
C10384 H10376 0.950 . S
C10384 C10385 1.386 . S
C10384 C10386 1.391 . S
C10385 C10384 1.386 . S
C10385 C10389 1.393 . S
C10386 H10378 0.950 . S
C10386 C10384 1.391 . S
C10386 C10387 1.400 . S
C10387 C10386 1.400 . S
C10387 C10388 1.398 . S
C10387 C10393 1.491 . S
C10388 H10379 0.950 . S
C10388 C10387 1.398 . S
C10388 C10389 1.391 . S
C10389 H10377 0.950 . S
C10389 C10385 1.393 . S
C10389 C10388 1.391 . S
C10390 H10380 0.950 . S
C10390 C10391 1.386 . S
C10390 C10392 1.391 . S
C10391 C10390 1.386 . S
C10391 C10395 1.393 . S
C10392 H10381 0.950 . S
C10392 C10390 1.391 . S
C10392 C10393 1.400 . S
C10393 C10387 1.491 . S
C10393 C10392 1.400 . S
C10393 C10394 1.398 . S
C10394 H10382 0.950 . S
C10394 C10393 1.398 . S
C10394 C10395 1.391 . S
C10395 H10383 0.950 . S
C10395 C10391 1.393 . S
C10395 C10394 1.391 . S
H10396 C10404 0.950 . S
H10397 C10409 0.950 . S
H10398 C10406 0.950 . S
H10399 C10408 0.950 . S
H10400 C10410 0.950 . S
H10401 C10412 0.950 . S
H10402 C10414 0.950 . S
H10403 C10415 0.950 . S
C10404 H10396 0.950 . S
C10404 C10405 1.386 . S
C10404 C10406 1.391 . S
C10405 C10404 1.386 . S
C10405 C10409 1.393 . S
C10406 H10398 0.950 . S
C10406 C10404 1.391 . S
C10406 C10407 1.400 . S
C10407 C10406 1.400 . S
C10407 C10408 1.398 . S
C10407 C10413 1.491 . S
C10408 H10399 0.950 . S
C10408 C10407 1.398 . S
C10408 C10409 1.391 . S
C10409 H10397 0.950 . S
C10409 C10405 1.393 . S
C10409 C10408 1.391 . S
C10410 H10400 0.950 . S
C10410 C10411 1.386 . S
C10410 C10412 1.391 . S
C10411 C10410 1.386 . S
C10411 C10415 1.393 . S
C10412 H10401 0.950 . S
C10412 C10410 1.391 . S
C10412 C10413 1.400 . S
C10413 C10407 1.491 . S
C10413 C10412 1.400 . S
C10413 C10414 1.398 . S
C10414 H10402 0.950 . S
C10414 C10413 1.398 . S
C10414 C10415 1.391 . S
C10415 H10403 0.950 . S
C10415 C10411 1.393 . S
C10415 C10414 1.391 . S
H10416 C10424 0.950 . S
H10417 C10429 0.950 . S
H10418 C10426 0.950 . S
H10419 C10428 0.950 . S
H10420 C10430 0.950 . S
H10421 C10432 0.950 . S
H10422 C10434 0.950 . S
H10423 C10435 0.950 . S
C10424 H10416 0.950 . S
C10424 C10425 1.386 . S
C10424 C10426 1.391 . S
C10425 C10424 1.386 . S
C10425 C10429 1.393 . S
C10426 H10418 0.950 . S
C10426 C10424 1.391 . S
C10426 C10427 1.400 . S
C10427 C10426 1.400 . S
C10427 C10428 1.398 . S
C10427 C10433 1.491 . S
C10428 H10419 0.950 . S
C10428 C10427 1.398 . S
C10428 C10429 1.391 . S
C10429 H10417 0.950 . S
C10429 C10425 1.393 . S
C10429 C10428 1.391 . S
C10430 H10420 0.950 . S
C10430 C10431 1.386 . S
C10430 C10432 1.391 . S
C10431 C10430 1.386 . S
C10431 C10435 1.393 . S
C10432 H10421 0.950 . S
C10432 C10430 1.391 . S
C10432 C10433 1.400 . S
C10433 C10427 1.491 . S
C10433 C10432 1.400 . S
C10433 C10434 1.398 . S
C10434 H10422 0.950 . S
C10434 C10433 1.398 . S
C10434 C10435 1.391 . S
C10435 H10423 0.950 . S
C10435 C10431 1.393 . S
C10435 C10434 1.391 . S
H10436 C10444 0.950 . S
H10437 C10449 0.950 . S
H10438 C10446 0.950 . S
H10439 C10448 0.950 . S
H10440 C10450 0.950 . S
H10441 C10452 0.950 . S
H10442 C10454 0.950 . S
H10443 C10455 0.950 . S
C10444 H10436 0.950 . S
C10444 C10445 1.386 . S
C10444 C10446 1.391 . S
C10445 C10444 1.386 . S
C10445 C10449 1.393 . S
C10446 H10438 0.950 . S
C10446 C10444 1.391 . S
C10446 C10447 1.400 . S
C10447 C10446 1.400 . S
C10447 C10448 1.398 . S
C10447 C10453 1.491 . S
C10448 H10439 0.950 . S
C10448 C10447 1.398 . S
C10448 C10449 1.391 . S
C10449 H10437 0.950 . S
C10449 C10445 1.393 . S
C10449 C10448 1.391 . S
C10450 H10440 0.950 . S
C10450 C10451 1.386 . S
C10450 C10452 1.391 . S
C10451 C10450 1.386 . S
C10451 C10455 1.393 . S
C10452 H10441 0.950 . S
C10452 C10450 1.391 . S
C10452 C10453 1.400 . S
C10453 C10447 1.491 . S
C10453 C10452 1.400 . S
C10453 C10454 1.398 . S
C10454 H10442 0.950 . S
C10454 C10453 1.398 . S
C10454 C10455 1.391 . S
C10455 H10443 0.950 . S
C10455 C10451 1.393 . S
C10455 C10454 1.391 . S
H10456 C10464 0.950 . S
H10457 C10469 0.950 . S
H10458 C10466 0.950 . S
H10459 C10468 0.950 . S
H10460 C10470 0.950 . S
H10461 C10472 0.950 . S
H10462 C10474 0.950 . S
H10463 C10475 0.950 . S
C10464 H10456 0.950 . S
C10464 C10465 1.386 . S
C10464 C10466 1.391 . S
C10465 C10464 1.386 . S
C10465 C10469 1.393 . S
C10466 H10458 0.950 . S
C10466 C10464 1.391 . S
C10466 C10467 1.400 . S
C10467 C10466 1.400 . S
C10467 C10468 1.398 . S
C10467 C10473 1.491 . S
C10468 H10459 0.950 . S
C10468 C10467 1.398 . S
C10468 C10469 1.391 . S
C10469 H10457 0.950 . S
C10469 C10465 1.393 . S
C10469 C10468 1.391 . S
C10470 H10460 0.950 . S
C10470 C10471 1.386 . S
C10470 C10472 1.391 . S
C10471 C10470 1.386 . S
C10471 C10475 1.393 . S
C10472 H10461 0.950 . S
C10472 C10470 1.391 . S
C10472 C10473 1.400 . S
C10473 C10467 1.491 . S
C10473 C10472 1.400 . S
C10473 C10474 1.398 . S
C10474 H10462 0.950 . S
C10474 C10473 1.398 . S
C10474 C10475 1.391 . S
C10475 H10463 0.950 . S
C10475 C10471 1.393 . S
C10475 C10474 1.391 . S
H10476 C10484 0.950 . S
H10477 C10489 0.950 . S
H10478 C10486 0.950 . S
H10479 C10488 0.950 . S
H10480 C10490 0.950 . S
H10481 C10492 0.950 . S
H10482 C10494 0.950 . S
H10483 C10495 0.950 . S
C10484 H10476 0.950 . S
C10484 C10485 1.386 . S
C10484 C10486 1.391 . S
C10485 C10484 1.386 . S
C10485 C10489 1.393 . S
C10486 H10478 0.950 . S
C10486 C10484 1.391 . S
C10486 C10487 1.400 . S
C10487 C10486 1.400 . S
C10487 C10488 1.398 . S
C10487 C10493 1.491 . S
C10488 H10479 0.950 . S
C10488 C10487 1.398 . S
C10488 C10489 1.391 . S
C10489 H10477 0.950 . S
C10489 C10485 1.393 . S
C10489 C10488 1.391 . S
C10490 H10480 0.950 . S
C10490 C10491 1.386 . S
C10490 C10492 1.391 . S
C10491 C10490 1.386 . S
C10491 C10495 1.393 . S
C10492 H10481 0.950 . S
C10492 C10490 1.391 . S
C10492 C10493 1.400 . S
C10493 C10487 1.491 . S
C10493 C10492 1.400 . S
C10493 C10494 1.398 . S
C10494 H10482 0.950 . S
C10494 C10493 1.398 . S
C10494 C10495 1.391 . S
C10495 H10483 0.950 . S
C10495 C10491 1.393 . S
C10495 C10494 1.391 . S
H10496 C10504 0.950 . S
H10497 C10509 0.950 . S
H10498 C10506 0.950 . S
H10499 C10508 0.950 . S
H10500 C10510 0.950 . S
H10501 C10512 0.950 . S
H10502 C10514 0.950 . S
H10503 C10515 0.950 . S
C10504 H10496 0.950 . S
C10504 C10505 1.386 . S
C10504 C10506 1.391 . S
C10505 C10504 1.386 . S
C10505 C10509 1.393 . S
C10506 H10498 0.950 . S
C10506 C10504 1.391 . S
C10506 C10507 1.400 . S
C10507 C10506 1.400 . S
C10507 C10508 1.398 . S
C10507 C10513 1.491 . S
C10508 H10499 0.950 . S
C10508 C10507 1.398 . S
C10508 C10509 1.391 . S
C10509 H10497 0.950 . S
C10509 C10505 1.393 . S
C10509 C10508 1.391 . S
C10510 H10500 0.950 . S
C10510 C10511 1.386 . S
C10510 C10512 1.391 . S
C10511 C10510 1.386 . S
C10511 C10515 1.393 . S
C10512 H10501 0.950 . S
C10512 C10510 1.391 . S
C10512 C10513 1.400 . S
C10513 C10507 1.491 . S
C10513 C10512 1.400 . S
C10513 C10514 1.398 . S
C10514 H10502 0.950 . S
C10514 C10513 1.398 . S
C10514 C10515 1.391 . S
C10515 H10503 0.950 . S
C10515 C10511 1.393 . S
C10515 C10514 1.391 . S
H10516 C10524 0.950 . S
H10517 C10529 0.950 . S
H10518 C10526 0.950 . S
H10519 C10528 0.950 . S
H10520 C10530 0.950 . S
H10521 C10532 0.950 . S
H10522 C10534 0.950 . S
H10523 C10535 0.950 . S
C10524 H10516 0.950 . S
C10524 C10525 1.386 . S
C10524 C10526 1.391 . S
C10525 C10524 1.386 . S
C10525 C10529 1.393 . S
C10526 H10518 0.950 . S
C10526 C10524 1.391 . S
C10526 C10527 1.400 . S
C10527 C10526 1.400 . S
C10527 C10528 1.398 . S
C10527 C10533 1.491 . S
C10528 H10519 0.950 . S
C10528 C10527 1.398 . S
C10528 C10529 1.391 . S
C10529 H10517 0.950 . S
C10529 C10525 1.393 . S
C10529 C10528 1.391 . S
C10530 H10520 0.950 . S
C10530 C10531 1.386 . S
C10530 C10532 1.391 . S
C10531 C10530 1.386 . S
C10531 C10535 1.393 . S
C10532 H10521 0.950 . S
C10532 C10530 1.391 . S
C10532 C10533 1.400 . S
C10533 C10527 1.491 . S
C10533 C10532 1.400 . S
C10533 C10534 1.398 . S
C10534 H10522 0.950 . S
C10534 C10533 1.398 . S
C10534 C10535 1.391 . S
C10535 H10523 0.950 . S
C10535 C10531 1.393 . S
C10535 C10534 1.391 . S
H10536 C10544 0.950 . S
H10537 C10549 0.950 . S
H10538 C10546 0.950 . S
H10539 C10548 0.950 . S
H10540 C10550 0.950 . S
H10541 C10552 0.950 . S
H10542 C10554 0.950 . S
H10543 C10555 0.950 . S
C10544 H10536 0.950 . S
C10544 C10545 1.386 . S
C10544 C10546 1.391 . S
C10545 C10544 1.386 . S
C10545 C10549 1.393 . S
C10546 H10538 0.950 . S
C10546 C10544 1.391 . S
C10546 C10547 1.400 . S
C10547 C10546 1.400 . S
C10547 C10548 1.398 . S
C10547 C10553 1.491 . S
C10548 H10539 0.950 . S
C10548 C10547 1.398 . S
C10548 C10549 1.391 . S
C10549 H10537 0.950 . S
C10549 C10545 1.393 . S
C10549 C10548 1.391 . S
C10550 H10540 0.950 . S
C10550 C10551 1.386 . S
C10550 C10552 1.391 . S
C10551 C10550 1.386 . S
C10551 C10555 1.393 . S
C10552 H10541 0.950 . S
C10552 C10550 1.391 . S
C10552 C10553 1.400 . S
C10553 C10547 1.491 . S
C10553 C10552 1.400 . S
C10553 C10554 1.398 . S
C10554 H10542 0.950 . S
C10554 C10553 1.398 . S
C10554 C10555 1.391 . S
C10555 H10543 0.950 . S
C10555 C10551 1.393 . S
C10555 C10554 1.391 . S
H10556 C10564 0.950 . S
H10557 C10569 0.950 . S
H10558 C10566 0.950 . S
H10559 C10568 0.950 . S
H10560 C10570 0.950 . S
H10561 C10572 0.950 . S
H10562 C10574 0.950 . S
H10563 C10575 0.950 . S
C10564 H10556 0.950 . S
C10564 C10565 1.386 . S
C10564 C10566 1.391 . S
C10565 C10564 1.386 . S
C10565 C10569 1.393 . S
C10566 H10558 0.950 . S
C10566 C10564 1.391 . S
C10566 C10567 1.400 . S
C10567 C10566 1.400 . S
C10567 C10568 1.398 . S
C10567 C10573 1.491 . S
C10568 H10559 0.950 . S
C10568 C10567 1.398 . S
C10568 C10569 1.391 . S
C10569 H10557 0.950 . S
C10569 C10565 1.393 . S
C10569 C10568 1.391 . S
C10570 H10560 0.950 . S
C10570 C10571 1.386 . S
C10570 C10572 1.391 . S
C10571 C10570 1.386 . S
C10571 C10575 1.393 . S
C10572 H10561 0.950 . S
C10572 C10570 1.391 . S
C10572 C10573 1.400 . S
C10573 C10567 1.491 . S
C10573 C10572 1.400 . S
C10573 C10574 1.398 . S
C10574 H10562 0.950 . S
C10574 C10573 1.398 . S
C10574 C10575 1.391 . S
C10575 H10563 0.950 . S
C10575 C10571 1.393 . S
C10575 C10574 1.391 . S
H10576 C10584 0.950 . S
H10577 C10589 0.950 . S
H10578 C10586 0.950 . S
H10579 C10588 0.950 . S
H10580 C10590 0.950 . S
H10581 C10592 0.950 . S
H10582 C10594 0.950 . S
H10583 C10595 0.950 . S
C10584 H10576 0.950 . S
C10584 C10585 1.386 . S
C10584 C10586 1.391 . S
C10585 C10584 1.386 . S
C10585 C10589 1.393 . S
C10586 H10578 0.950 . S
C10586 C10584 1.391 . S
C10586 C10587 1.400 . S
C10587 C10586 1.400 . S
C10587 C10588 1.398 . S
C10587 C10593 1.491 . S
C10588 H10579 0.950 . S
C10588 C10587 1.398 . S
C10588 C10589 1.391 . S
C10589 H10577 0.950 . S
C10589 C10585 1.393 . S
C10589 C10588 1.391 . S
C10590 H10580 0.950 . S
C10590 C10591 1.386 . S
C10590 C10592 1.391 . S
C10591 C10590 1.386 . S
C10591 C10595 1.393 . S
C10592 H10581 0.950 . S
C10592 C10590 1.391 . S
C10592 C10593 1.400 . S
C10593 C10587 1.491 . S
C10593 C10592 1.400 . S
C10593 C10594 1.398 . S
C10594 H10582 0.950 . S
C10594 C10593 1.398 . S
C10594 C10595 1.391 . S
C10595 H10583 0.950 . S
C10595 C10591 1.393 . S
C10595 C10594 1.391 . S
H10596 C10604 0.950 . S
H10597 C10609 0.950 . S
H10598 C10606 0.950 . S
H10599 C10608 0.950 . S
H10600 C10610 0.950 . S
H10601 C10612 0.950 . S
H10602 C10614 0.950 . S
H10603 C10615 0.950 . S
C10604 H10596 0.950 . S
C10604 C10605 1.386 . S
C10604 C10606 1.391 . S
C10605 C10604 1.386 . S
C10605 C10609 1.393 . S
C10606 H10598 0.950 . S
C10606 C10604 1.391 . S
C10606 C10607 1.400 . S
C10607 C10606 1.400 . S
C10607 C10608 1.398 . S
C10607 C10613 1.491 . S
C10608 H10599 0.950 . S
C10608 C10607 1.398 . S
C10608 C10609 1.391 . S
C10609 H10597 0.950 . S
C10609 C10605 1.393 . S
C10609 C10608 1.391 . S
C10610 H10600 0.950 . S
C10610 C10611 1.386 . S
C10610 C10612 1.391 . S
C10611 C10610 1.386 . S
C10611 C10615 1.393 . S
C10612 H10601 0.950 . S
C10612 C10610 1.391 . S
C10612 C10613 1.400 . S
C10613 C10607 1.491 . S
C10613 C10612 1.400 . S
C10613 C10614 1.398 . S
C10614 H10602 0.950 . S
C10614 C10613 1.398 . S
C10614 C10615 1.391 . S
C10615 H10603 0.950 . S
C10615 C10611 1.393 . S
C10615 C10614 1.391 . S
H10616 C10624 0.950 . S
H10617 C10629 0.950 . S
H10618 C10626 0.950 . S
H10619 C10628 0.950 . S
H10620 C10630 0.950 . S
H10621 C10632 0.950 . S
H10622 C10634 0.950 . S
H10623 C10635 0.950 . S
C10624 H10616 0.950 . S
C10624 C10625 1.386 . S
C10624 C10626 1.391 . S
C10625 C10624 1.386 . S
C10625 C10629 1.393 . S
C10626 H10618 0.950 . S
C10626 C10624 1.391 . S
C10626 C10627 1.400 . S
C10627 C10626 1.400 . S
C10627 C10628 1.398 . S
C10627 C10633 1.491 . S
C10628 H10619 0.950 . S
C10628 C10627 1.398 . S
C10628 C10629 1.391 . S
C10629 H10617 0.950 . S
C10629 C10625 1.393 . S
C10629 C10628 1.391 . S
C10630 H10620 0.950 . S
C10630 C10631 1.386 . S
C10630 C10632 1.391 . S
C10631 C10630 1.386 . S
C10631 C10635 1.393 . S
C10632 H10621 0.950 . S
C10632 C10630 1.391 . S
C10632 C10633 1.400 . S
C10633 C10627 1.491 . S
C10633 C10632 1.400 . S
C10633 C10634 1.398 . S
C10634 H10622 0.950 . S
C10634 C10633 1.398 . S
C10634 C10635 1.391 . S
C10635 H10623 0.950 . S
C10635 C10631 1.393 . S
C10635 C10634 1.391 . S
H10636 C10644 0.950 . S
H10637 C10649 0.950 . S
H10638 C10646 0.950 . S
H10639 C10648 0.950 . S
H10640 C10650 0.950 . S
H10641 C10652 0.950 . S
H10642 C10654 0.950 . S
H10643 C10655 0.950 . S
C10644 H10636 0.950 . S
C10644 C10645 1.386 . S
C10644 C10646 1.391 . S
C10645 C10644 1.386 . S
C10645 C10649 1.393 . S
C10646 H10638 0.950 . S
C10646 C10644 1.391 . S
C10646 C10647 1.400 . S
C10647 C10646 1.400 . S
C10647 C10648 1.398 . S
C10647 C10653 1.491 . S
C10648 H10639 0.950 . S
C10648 C10647 1.398 . S
C10648 C10649 1.391 . S
C10649 H10637 0.950 . S
C10649 C10645 1.393 . S
C10649 C10648 1.391 . S
C10650 H10640 0.950 . S
C10650 C10651 1.386 . S
C10650 C10652 1.391 . S
C10651 C10650 1.386 . S
C10651 C10655 1.393 . S
C10652 H10641 0.950 . S
C10652 C10650 1.391 . S
C10652 C10653 1.400 . S
C10653 C10647 1.491 . S
C10653 C10652 1.400 . S
C10653 C10654 1.398 . S
C10654 H10642 0.950 . S
C10654 C10653 1.398 . S
C10654 C10655 1.391 . S
C10655 H10643 0.950 . S
C10655 C10651 1.393 . S
C10655 C10654 1.391 . S
C4911 C4125 1.537 . S
C4905 C15 1.556 . S
C4931 C4664 1.534 . S
C4925 C55 1.557 . S
C4951 C4147 1.529 . S
C4945 C95 1.556 . S
C4971 C4642 1.538 . S
C4965 C135 1.546 . S
C4991 C4191 1.529 . S
C4985 C175 1.556 . S
C5005 C215 1.547 . S
C5011 C4686 1.529 . S
C5031 C4169 1.531 . S
C5025 C255 1.546 . S
C5051 C4708 1.525 . S
C5045 C295 1.549 . S
C5071 C4884 1.542 . S
C5065 C335 1.550 . S
C5085 C375 1.548 . S
C5091 C4818 1.527 . S
C5111 C4895 1.540 . S
C5105 C415 1.555 . S
C5125 C455 1.546 . S
C5131 C4873 1.530 . S
C5151 C4840 1.543 . S
C5145 C495 1.551 . S
C5171 C4323 1.528 . S
C5165 C535 1.555 . S
C5191 C4334 1.528 . S
C5185 C575 1.547 . S
C5205 C615 1.556 . S
C5211 C4301 1.538 . S
C5225 C655 1.546 . S
C5231 C4785 1.530 . S
C5251 C4235 1.534 . S
C5245 C695 1.557 . S
C5271 C4730 1.540 . S
C5265 C735 1.555 . S
C5291 C4213 1.533 . S
C5285 C775 1.546 . S
C5305 C815 1.546 . S
C5311 C4224 1.534 . S
C5331 C4807 1.542 . S
C5325 C855 1.553 . S
C5351 C4774 1.538 . S
C5345 C895 1.556 . S
C5365 C935 1.555 . S
C5371 C4796 1.540 . S
C5385 C975 1.556 . S
C5391 C3861 1.547 . S
C5405 C1015 1.552 . S
C5411 C4400 1.533 . S
C5431 C3883 1.542 . S
C5425 C1055 1.559 . S
C5445 C1095 1.550 . S
C5451 C4378 1.536 . S
C5471 C3927 1.532 . S
C5465 C1135 1.553 . S
C5485 C1175 1.555 . S
C5491 C4422 1.532 . S
C5511 C3905 1.539 . S
C5505 C1215 1.559 . S
C5531 C4444 1.535 . S
C5525 C1255 1.557 . S
C5545 C1295 1.558 . S
C5551 C4620 1.546 . S
C5571 C4554 1.547 . S
C5565 C1335 1.556 . S
C5585 C1375 1.550 . S
C5591 C4631 1.536 . S
C5611 C4609 1.539 . S
C5605 C1415 1.559 . S
C5631 C4576 1.546 . S
C5625 C1455 1.557 . S
C5645 C1495 1.551 . S
C5651 C4059 1.534 . S
C5665 C1535 1.559 . S
C5671 C4070 1.539 . S
C5691 C4037 1.540 . S
C5685 C1575 1.559 . S
C5705 C1615 1.551 . S
C5711 C4521 1.535 . S
C5731 C3971 1.541 . S
C5725 C1655 1.559 . S
C5745 C1695 1.558 . S
C5751 C4466 1.535 . S
C5771 C3949 1.546 . S
C5765 C1735 1.553 . S
C5785 C1775 1.550 . S
C5791 C3960 1.537 . S
C5811 C4543 1.544 . S
C5805 C1815 1.552 . S
C5831 C4510 1.538 . S
C5825 C1855 1.550 . S
C5851 C4532 1.532 . S
C5845 C1895 1.552 . S
C5865 C1935 1.556 . S
C5871 C4653 1.536 . S
C5891 C4136 1.526 . S
C5885 C1975 1.548 . S
C5911 C4675 1.525 . S
C5905 C2015 1.551 . S
C5931 C4114 1.535 . S
C5925 C2055 1.546 . S
C5945 C2095 1.550 . S
C5951 C4719 1.542 . S
C5971 C4158 1.525 . S
C5965 C2135 1.552 . S
C5991 C4697 1.542 . S
C5985 C2175 1.552 . S
C6011 C4180 1.526 . S
C6005 C2215 1.553 . S
C6025 C2255 1.546 . S
C6031 C4356 1.532 . S
C6051 C4290 1.536 . S
C6045 C2295 1.546 . S
C6071 C4367 1.542 . S
C6065 C2335 1.552 . S
C6085 C2375 1.546 . S
C6091 C4345 1.536 . S
C6105 C2415 1.556 . S
C6111 C4312 1.530 . S
C6125 C2455 1.549 . S
C6131 C4851 1.542 . S
C6145 C2495 1.548 . S
C6151 C4862 1.540 . S
C6171 C4829 1.535 . S
C6165 C2535 1.546 . S
C6185 C2575 1.556 . S
C6191 C4257 1.536 . S
C6211 C4763 1.540 . S
C6205 C2615 1.555 . S
C6231 C4202 1.525 . S
C6225 C2655 1.550 . S
C6251 C4741 1.525 . S
C6245 C2695 1.552 . S
C6265 C2735 1.546 . S
C6271 C4752 1.531 . S
C6285 C2775 1.552 . S
C6291 C4279 1.525 . S
C6311 C4246 1.529 . S
C6305 C2815 1.555 . S
C6325 C2855 1.546 . S
C6331 C4268 1.533 . S
C6345 C2895 1.559 . S
C6351 C4389 1.542 . S
C6371 C3872 1.541 . S
C6365 C2935 1.559 . S
C6391 C4411 1.536 . S
C6385 C2975 1.558 . S
C6405 C3015 1.550 . S
C6411 C3850 1.536 . S
C6431 C4455 1.538 . S
C6425 C3055 1.559 . S
C6451 C3894 1.533 . S
C6445 C3095 1.557 . S
C6465 C3135 1.556 . S
C6471 C4433 1.547 . S
C6485 C3175 1.556 . S
C6491 C3916 1.533 . S
C6511 C4092 1.544 . S
C6505 C3215 1.558 . S
C6525 C3255 1.554 . S
C6531 C4026 1.547 . S
C6551 C4103 1.533 . S
C6545 C3295 1.556 . S
C6571 C4081 1.537 . S
C6565 C3335 1.559 . S
C6585 C3375 1.552 . S
C6591 C4048 1.544 . S
C6605 C3415 1.558 . S
C6611 C4587 1.546 . S
C6631 C4598 1.539 . S
C6625 C3455 1.550 . S
C6645 C3495 1.557 . S
C6651 C4565 1.546 . S
C6671 C3993 1.541 . S
C6665 C3535 1.551 . S
C6691 C4499 1.547 . S
C6685 C3575 1.554 . S
C6705 C3615 1.555 . S
C6711 C3938 1.547 . S
C6725 C3655 1.552 . S
C6731 C4477 1.532 . S
C6745 C3695 1.554 . S
C6751 C4488 1.532 . S
C6765 C3735 1.558 . S
C6771 C4015 1.546 . S
C6785 C3775 1.555 . S
C6791 C3982 1.532 . S
C6811 C4004 1.535 . S
C6805 C3815 1.551 . S
C6831 C3943 1.531 . S
C6825 C2 1.533 . S
C6851 C3954 1.540 . S
C6845 C42 1.519 . S
C6865 C82 1.515 . S
C6871 C3965 1.531 . S
C6885 C122 1.536 . S
C6891 C3932 1.549 . S
C6905 C162 1.535 . S
C6911 C4009 1.533 . S
C6931 C3976 1.549 . S
C6925 C202 1.537 . S
C6951 C3987 1.544 . S
C6945 C242 1.524 . S
C6965 C282 1.540 . S
C6971 C3998 1.540 . S
C6985 C322 1.520 . S
C6991 C3877 1.526 . S
C7005 C362 1.531 . S
C7011 C3844 1.548 . S
C7025 C402 1.540 . S
C7031 C3855 1.540 . S
C7051 C3866 1.532 . S
C7045 C442 1.515 . S
C7065 C482 1.528 . S
C7071 C3899 1.528 . S
C7085 C522 1.528 . S
C7091 C3910 1.547 . S
C7105 C562 1.521 . S
C7111 C3921 1.526 . S
C7125 C602 1.532 . S
C7131 C3888 1.530 . S
C7151 C4042 1.536 . S
C7145 C642 1.517 . S
C7165 C682 1.532 . S
C7171 C4614 1.530 . S
C7191 C4020 1.548 . S
C7185 C722 1.539 . S
C7211 C4625 1.542 . S
C7205 C762 1.540 . S
C7225 C802 1.537 . S
C7231 C4603 1.549 . S
C7245 C842 1.540 . S
C7251 C4592 1.546 . S
C7271 C4559 1.534 . S
C7265 C882 1.516 . S
C7291 C4581 1.526 . S
C7285 C922 1.518 . S
C7311 C4207 1.564 . S
C7305 C962 1.586 . S
C7331 C4218 1.562 . S
C7325 C1002 1.588 . S
C7351 C4229 1.564 . S
C7345 C1042 1.587 . S
C7365 C1082 1.589 . S
C7371 C4196 1.557 . S
C7385 C1122 1.586 . S
C7391 C4273 1.545 . S
C7411 C4240 1.550 . S
C7405 C1162 1.584 . S
C7425 C1202 1.589 . S
C7431 C4251 1.557 . S
C7451 C4262 1.549 . S
C7445 C1242 1.588 . S
C7465 C1282 1.584 . S
C7471 C4141 1.551 . S
C7491 C4108 1.546 . S
C7485 C1322 1.585 . S
C7505 C1362 1.589 . S
C7511 C4119 1.557 . S
C7531 C4130 1.546 . S
C7525 C1402 1.587 . S
C7551 C4163 1.563 . S
C7545 C1442 1.588 . S
C7565 C1482 1.585 . S
C7571 C4174 1.561 . S
C7591 C4185 1.548 . S
C7585 C1522 1.584 . S
C7611 C4152 1.563 . S
C7605 C1562 1.586 . S
C7631 C4306 1.547 . S
C7625 C1602 1.587 . S
C7651 C4878 1.553 . S
C7645 C1642 1.584 . S
C7671 C4284 1.561 . S
C7665 C1682 1.585 . S
C7685 C1722 1.589 . S
C7691 C4889 1.557 . S
C7705 C1762 1.588 . S
C7711 C4867 1.560 . S
C7731 C4856 1.550 . S
C7725 C1802 1.588 . S
C7751 C4823 1.562 . S
C7745 C1842 1.585 . S
C7771 C4845 1.556 . S
C7765 C1882 1.589 . S
C7785 C1922 1.539 . S
C7791 C4471 1.538 . S
C7811 C4482 1.535 . S
C7805 C1962 1.537 . S
C7825 C2002 1.537 . S
C7831 C4493 1.549 . S
C7851 C4460 1.535 . S
C7845 C2042 1.516 . S
C7865 C2082 1.535 . S
C7871 C4537 1.549 . S
C7885 C2122 1.526 . S
C7891 C4504 1.527 . S
C7905 C2162 1.530 . S
C7911 C4515 1.548 . S
C7925 C2202 1.527 . S
C7931 C4526 1.547 . S
C7945 C2242 1.534 . S
C7951 C4405 1.532 . S
C7971 C4372 1.537 . S
C7965 C2282 1.539 . S
C7991 C4383 1.544 . S
C7985 C2322 1.523 . S
C8005 C2362 1.536 . S
C8011 C4394 1.549 . S
C8025 C2402 1.541 . S
C8031 C4427 1.544 . S
C8045 C2442 1.517 . S
C8051 C4438 1.527 . S
C8065 C2482 1.541 . S
C8071 C4449 1.543 . S
C8085 C2522 1.538 . S
C8091 C4416 1.537 . S
C8111 C4570 1.537 . S
C8105 C2562 1.517 . S
C8131 C4086 1.532 . S
C8125 C2602 1.534 . S
C8151 C4548 1.526 . S
C8145 C2642 1.522 . S
C8171 C4097 1.549 . S
C8165 C2682 1.536 . S
C8191 C4075 1.549 . S
C8185 C2722 1.533 . S
C8211 C4064 1.548 . S
C8205 C2762 1.538 . S
C8225 C2802 1.536 . S
C8231 C4031 1.549 . S
C8251 C4053 1.531 . S
C8245 C2842 1.515 . S
C8265 C2882 1.588 . S
C8271 C4735 1.552 . S
C8285 C2922 1.587 . S
C8291 C4746 1.546 . S
C8311 C4757 1.559 . S
C8305 C2962 1.584 . S
C8325 C3002 1.589 . S
C8331 C4724 1.554 . S
C8351 C4801 1.563 . S
C8345 C3042 1.588 . S
C8365 C3082 1.584 . S
C8371 C4768 1.551 . S
C8385 C3122 1.587 . S
C8391 C4779 1.564 . S
C8411 C4790 1.563 . S
C8405 C3162 1.586 . S
C8431 C4669 1.564 . S
C8425 C3202 1.586 . S
C8451 C4636 1.557 . S
C8445 C3242 1.584 . S
C8471 C4647 1.563 . S
C8465 C3282 1.588 . S
C8491 C4658 1.555 . S
C8485 C3322 1.584 . S
C8505 C3362 1.585 . S
C8511 C4691 1.546 . S
C8531 C4702 1.546 . S
C8525 C3402 1.585 . S
C8545 C3442 1.584 . S
C8551 C4713 1.555 . S
C8565 C3482 1.584 . S
C8571 C4680 1.552 . S
C8585 C3522 1.589 . S
C8591 C4834 1.556 . S
C8605 C3562 1.588 . S
C8611 C4350 1.551 . S
C8625 C3602 1.585 . S
C8631 C4812 1.546 . S
C8651 C4361 1.554 . S
C8645 C3642 1.584 . S
C8665 C3682 1.585 . S
C8671 C4339 1.547 . S
C8685 C3722 1.584 . S
C8691 C4328 1.556 . S
C8705 C3762 1.585 . S
C8711 C4295 1.546 . S
C8731 C4317 1.550 . S
C8725 C3802 1.584 . S
C8745 C21 1.632 . S
C8751 C3845 1.651 . S
C8765 C61 1.623 . S
C8771 C3856 1.651 . S
C8785 C101 1.618 . S
C8791 C3867 1.630 . S
C8811 C3878 1.639 . S
C8805 C141 1.637 . S
C8831 C3889 1.640 . S
C8825 C181 1.613 . S
C8845 C221 1.635 . S
C8851 C3900 1.650 . S
C8865 C261 1.633 . S
C8871 C3911 1.651 . S
C8885 C301 1.636 . S
C8891 C3922 1.638 . S
C8911 C3933 1.635 . S
C8905 C341 1.634 . S
C8931 C3944 1.630 . S
C8925 C381 1.623 . S
C8945 C421 1.629 . S
C8951 C3955 1.652 . S
C8971 C3966 1.631 . S
C8965 C461 1.615 . S
C8985 C501 1.613 . S
C8991 C3977 1.640 . S
C9005 C541 1.613 . S
C9011 C3988 1.637 . S
C9025 C581 1.620 . S
C9031 C3999 1.630 . S
C9045 C621 1.616 . S
C9051 C4010 1.631 . S
C9065 C661 1.636 . S
C9071 C4021 1.638 . S
C9085 C701 1.621 . S
C9091 C4032 1.629 . S
C9111 C4043 1.642 . S
C9105 C741 1.637 . S
C9131 C4054 1.630 . S
C9125 C781 1.619 . S
C9151 C4065 1.647 . S
C9145 C821 1.637 . S
C9171 C4076 1.631 . S
C9165 C861 1.629 . S
C9185 C901 1.613 . S
C9191 C4087 1.637 . S
C9211 C4098 1.637 . S
C9205 C941 1.635 . S
C9225 C981 1.688 . S
C9231 C4109 1.659 . S
C9245 C1021 1.694 . S
C9251 C4120 1.642 . S
C9265 C1061 1.688 . S
C9271 C4131 1.659 . S
C9291 C4142 1.651 . S
C9285 C1101 1.695 . S
C9305 C1141 1.694 . S
C9311 C4153 1.654 . S
C9331 C4164 1.653 . S
C9325 C1181 1.689 . S
C9345 C1221 1.695 . S
C9351 C4175 1.652 . S
C9365 C1261 1.694 . S
C9371 C4186 1.653 . S
C9391 C4197 1.642 . S
C9385 C1301 1.695 . S
C9405 C1341 1.693 . S
C9411 C4208 1.658 . S
C9431 C4219 1.642 . S
C9425 C1381 1.695 . S
C9445 C1421 1.688 . S
C9451 C4230 1.657 . S
C9471 C4241 1.642 . S
C9465 C1461 1.695 . S
C9491 C4252 1.652 . S
C9485 C1501 1.695 . S
C9511 C4263 1.658 . S
C9505 C1541 1.688 . S
C9525 C1581 1.689 . S
C9531 C4274 1.652 . S
C9545 C1621 1.688 . S
C9551 C4285 1.658 . S
C9565 C1661 1.695 . S
C9571 C4296 1.642 . S
C9585 C1701 1.694 . S
C9591 C4307 1.653 . S
C9605 C1741 1.692 . S
C9611 C4318 1.643 . S
C9625 C1781 1.695 . S
C9631 C4329 1.642 . S
C9651 C4340 1.653 . S
C9645 C1821 1.695 . S
C9665 C1861 1.688 . S
C9671 C4351 1.660 . S
C9691 C4362 1.662 . S
C9685 C1901 1.690 . S
C9705 C1941 1.622 . S
C9711 C4373 1.629 . S
C9731 C4384 1.638 . S
C9725 C1981 1.636 . S
C9751 C4395 1.639 . S
C9745 C2021 1.613 . S
C9771 C4406 1.630 . S
C9765 C2061 1.624 . S
C9785 C2101 1.621 . S
C9791 C4417 1.630 . S
C9805 C2141 1.626 . S
C9811 C4428 1.652 . S
C9831 C4439 1.641 . S
C9825 C2181 1.613 . S
C9851 C4450 1.643 . S
C9845 C2221 1.638 . S
C9865 C2261 1.629 . S
C9871 C4461 1.652 . S
C9885 C2301 1.626 . S
C9891 C4472 1.652 . S
C9905 C2341 1.635 . S
C9911 C4483 1.650 . S
C9925 C2381 1.628 . S
C9931 C4494 1.652 . S
C9945 C2421 1.637 . S
C9951 C4505 1.648 . S
C9971 C4516 1.647 . S
C9965 C2461 1.617 . S
C9991 C4527 1.652 . S
C9985 C2501 1.627 . S
C10011 C4538 1.643 . S
C10005 C2541 1.614 . S
C10031 C4549 1.649 . S
C10025 C2581 1.620 . S
C10045 C2621 1.615 . S
C10051 C4560 1.632 . S
C10065 C2661 1.630 . S
C10071 C4571 1.632 . S
C10091 C4582 1.642 . S
C10085 C2701 1.638 . S
C10105 C2741 1.638 . S
C10111 C4593 1.643 . S
C10131 C4604 1.633 . S
C10125 C2781 1.614 . S
C10151 C4615 1.641 . S
C10145 C2821 1.613 . S
C10171 C4626 1.650 . S
C10165 C2861 1.634 . S
C10185 C2901 1.688 . S
C10191 C4637 1.655 . S
C10205 C2941 1.693 . S
C10211 C4648 1.657 . S
C10225 C2981 1.690 . S
C10231 C4659 1.648 . S
C10245 C3021 1.693 . S
C10251 C4670 1.642 . S
C10271 C4681 1.642 . S
C10265 C3061 1.693 . S
C10291 C4692 1.644 . S
C10285 C3101 1.692 . S
C10311 C4703 1.648 . S
C10305 C3141 1.695 . S
C10325 C3181 1.695 . S
C10331 C4714 1.645 . S
C10345 C3221 1.689 . S
C10351 C4725 1.660 . S
C10371 C4736 1.650 . S
C10365 C3261 1.690 . S
C10391 C4747 1.654 . S
C10385 C3301 1.688 . S
C10411 C4758 1.661 . S
C10405 C3341 1.691 . S
C10431 C4769 1.646 . S
C10425 C3381 1.691 . S
C10451 C4780 1.642 . S
C10445 C3421 1.694 . S
C10471 C4791 1.646 . S
C10465 C3461 1.695 . S
C10491 C4802 1.644 . S
C10485 C3501 1.695 . S
C10511 C4813 1.652 . S
C10505 C3541 1.689 . S
C10531 C4824 1.653 . S
C10525 C3581 1.694 . S
C10551 C4835 1.646 . S
C10545 C3621 1.695 . S
C10565 C3661 1.695 . S
C10571 C4846 1.643 . S
C10591 C4857 1.660 . S
C10585 C3701 1.688 . S
C10605 C3741 1.688 . S
C10611 C4868 1.660 . S
C10631 C4879 1.652 . S
C10625 C3781 1.689 . S
C10651 C4890 1.644 . S
C10645 C3821 1.695 . S
