# Generated by pormake.
# Topology zzz, (3,6)-cn, num edge types: 1
# Building blocks:
#     Node 0, Type 0, BuildingBlock: ESEHIV_clean_linker_0, # of connection points: 3
#     Node 1, Type 0, BuildingBlock: ESEHIV_clean_linker_0, # of connection points: 3
#     Node 2, Type 0, BuildingBlock: ESEHIV_clean_linker_0, # of connection points: 3
#     Node 3, Type 0, BuildingBlock: ESEHIV_clean_linker_0, # of connection points: 3
#     Node 4, Type 0, BuildingBlock: ESEHIV_clean_linker_0, # of connection points: 3
#     Node 5, Type 0, BuildingBlock: ESEHIV_clean_linker_0, # of connection points: 3
#     Node 6, Type 0, BuildingBlock: ESEHIV_clean_linker_0, # of connection points: 3
#     Node 7, Type 0, BuildingBlock: ESEHIV_clean_linker_0, # of connection points: 3
#     Node 8, Type 1, BuildingBlock: VOLQOD_clean_sbu_1, # of connection points: 6
#     Node 9, Type 1, BuildingBlock: VOLQOD_clean_sbu_1, # of connection points: 6
#     Node 10, Type 1, BuildingBlock: VOLQOD_clean_sbu_1, # of connection points: 6
#     Node 11, Type 1, BuildingBlock: VOLQOD_clean_sbu_1, # of connection points: 6
#     Edge 12, Type (0, 1), BuildingBlock: EYOCIG_clean_linker_4, # of connection points: 2
#     Edge 13, Type (0, 1), BuildingBlock: EYOCIG_clean_linker_4, # of connection points: 2
#     Edge 14, Type (0, 1), BuildingBlock: EYOCIG_clean_linker_4, # of connection points: 2
#     Edge 15, Type (0, 1), BuildingBlock: EYOCIG_clean_linker_4, # of connection points: 2
#     Edge 16, Type (0, 1), BuildingBlock: EYOCIG_clean_linker_4, # of connection points: 2
#     Edge 17, Type (0, 1), BuildingBlock: EYOCIG_clean_linker_4, # of connection points: 2
#     Edge 18, Type (0, 1), BuildingBlock: EYOCIG_clean_linker_4, # of connection points: 2
#     Edge 19, Type (0, 1), BuildingBlock: EYOCIG_clean_linker_4, # of connection points: 2
#     Edge 20, Type (0, 1), BuildingBlock: EYOCIG_clean_linker_4, # of connection points: 2
#     Edge 21, Type (0, 1), BuildingBlock: EYOCIG_clean_linker_4, # of connection points: 2
#     Edge 22, Type (0, 1), BuildingBlock: EYOCIG_clean_linker_4, # of connection points: 2
#     Edge 23, Type (0, 1), BuildingBlock: EYOCIG_clean_linker_4, # of connection points: 2
#     Edge 24, Type (0, 1), BuildingBlock: EYOCIG_clean_linker_4, # of connection points: 2
#     Edge 25, Type (0, 1), BuildingBlock: EYOCIG_clean_linker_4, # of connection points: 2
#     Edge 26, Type (0, 1), BuildingBlock: EYOCIG_clean_linker_4, # of connection points: 2
#     Edge 27, Type (0, 1), BuildingBlock: EYOCIG_clean_linker_4, # of connection points: 2
#     Edge 28, Type (0, 1), BuildingBlock: EYOCIG_clean_linker_4, # of connection points: 2
#     Edge 29, Type (0, 1), BuildingBlock: EYOCIG_clean_linker_4, # of connection points: 2
#     Edge 30, Type (0, 1), BuildingBlock: EYOCIG_clean_linker_4, # of connection points: 2
#     Edge 31, Type (0, 1), BuildingBlock: EYOCIG_clean_linker_4, # of connection points: 2
#     Edge 32, Type (0, 1), BuildingBlock: EYOCIG_clean_linker_4, # of connection points: 2
#     Edge 33, Type (0, 1), BuildingBlock: EYOCIG_clean_linker_4, # of connection points: 2
#     Edge 34, Type (0, 1), BuildingBlock: EYOCIG_clean_linker_4, # of connection points: 2
#     Edge 35, Type (0, 1), BuildingBlock: EYOCIG_clean_linker_4, # of connection points: 2
# Relax obj value: 0.359
# Max RMSD: 0.258
# Mean RMSD: 0.208
data_MOF--net-zzz--node1-VOLQOD_clean_sbu_1--node2-ESEHIV_clean_linker_0--edge1-EYOCIG_clean_linker_4
_symmetry_space_group_name_H-M    P1
_symmetry_Int_Tables_number       1
_symmetry_cell_setting            triclinic
loop_
_symmetry_equiv_pos_as_xyz
'x, y, z'
_cell_length_a     36.259374
_cell_length_b     35.439197
_cell_length_c     13.860019
_cell_angle_alpha  90.143221
_cell_angle_beta   90.181699
_cell_angle_gamma 92.015455
loop_
_atom_site_label
_atom_site_type_symbol
_atom_site_fract_x
_atom_site_fract_y
_atom_site_fract_z
_atom_type_partial_charge
H0 H 0.83731 0.4737 0.12335 0.0
H1 H 0.74403 0.46047 0.93487 0.0
H2 H 0.72957 0.50318 0.22422 0.0
C3 C 0.80792 0.47638 0.11095 0.0
C4 C 0.7856 0.49001 0.18422 0.0
C5 C 0.79272 0.46519 0.02267 0.0
C6 C 0.75536 0.46886 0.00467 0.0
C7 C 0.7324 0.48249 0.07668 0.0
C8 C 0.74729 0.49297 0.16777 0.0
H9 H 0.00191 0.82475 0.18494 0.0
H10 H 0.00756 0.73681 0.97372 0.0
H11 H 0.93616 0.72189 0.2211 0.0
C12 C -0.00699 0.79681 0.15983 0.0
C13 C 0.96742 0.77529 0.21339 0.0
C14 C 0.00764 0.7828 0.07485 0.0
C15 C -0.00374 0.74723 0.04075 0.0
C16 C 0.97043 0.72502 0.09246 0.0
C17 C 0.95578 0.73899 0.17983 0.0
H18 H 0.67091 0.01043 0.16463 0.0
H19 H 0.75769 0.02528 0.95704 0.0
H20 H 0.77202 0.95169 0.20136 0.0
C21 C 0.6984 0.004 0.13994 0.0
C22 C 0.71974 0.97926 0.19287 0.0
C23 C 0.71216 0.02087 0.0561 0.0
C24 C 0.74728 0.01246 0.02306 0.0
C25 C 0.76893 0.98742 0.07489 0.0
C26 C 0.75523 0.97069 0.16038 0.0
H27 H 0.53433 0.64781 0.1418 0.0
H28 H 0.58846 0.75445 0.21477 0.0
H29 H 0.52486 0.74203 0.95177 0.0
C30 C 0.54189 0.67687 0.12373 0.0
C31 C 0.52739 0.69277 0.04073 0.0
C32 C 0.56387 0.69869 0.18703 0.0
C33 C 0.57252 0.73687 0.16467 0.0
C34 C 0.55857 0.75239 0.07857 0.0
C35 C 0.53649 0.72997 0.0166 0.0
H36 H 0.15905 0.5371 0.17252 0.0
H37 H 0.24129 0.55219 0.3937 0.0
H38 H 0.25939 0.47589 0.15623 0.0
C39 C 0.18623 0.53115 0.20071 0.0
C40 C 0.20796 0.50521 0.15326 0.0
C41 C 0.19821 0.54817 0.2865 0.0
C42 C 0.23259 0.53977 0.32532 0.0
C43 C 0.25488 0.51374 0.27874 0.0
C44 C 0.24263 0.49644 0.19187 0.0
H45 H 0.09042 0.14285 0.26052 0.0
H46 H 0.09027 0.23812 0.45153 0.0
H47 H 0.07649 0.25404 0.14514 0.0
C48 C 0.09071 0.17328 0.27058 0.0
C49 C 0.08548 0.19665 0.19116 0.0
C50 C 0.09216 0.18814 0.36384 0.0
C51 C 0.09087 0.22704 0.37845 0.0
C52 C 0.08504 0.25106 0.30003 0.0
C53 C 0.08255 0.23591 0.20558 0.0
H54 H 0.34771 0.98173 0.1876 0.0
H55 H 0.26021 0.97344 0.39365 0.0
H56 H 0.24153 0.02559 0.11661 0.0
C57 C 0.31929 0.98701 0.20666 0.0
C58 C 0.29657 0.00497 0.1412 0.0
C59 C 0.30593 0.9751 0.29572 0.0
C60 C 0.26997 0.98226 0.32294 0.0
C61 C 0.2465 0.00056 0.25924 0.0
C62 C 0.25959 0.01182 0.16688 0.0
H63 H 0.42526 0.3229 0.18794 0.0
H64 H 0.47188 0.21746 0.10698 0.0
H65 H 0.43135 0.23434 0.39572 0.0
C66 C 0.4305 0.29354 0.20394 0.0
C67 C 0.4256 0.28045 0.29776 0.0
C68 C 0.44667 0.27116 0.13411 0.0
C69 C 0.4573 0.23433 0.1587 0.0
C70 C 0.45077 0.22066 0.25342 0.0
C71 C 0.43367 0.24352 0.32116 0.0
O72 O 0.10206 0.00061 0.62718 0.0
Zn73 Zn 0.06519 -0.00428 0.73951 0.0
O74 O 0.01396 0.98872 0.6899 0.0
Zn75 Zn 0.98515 0.03177 0.73361 0.0
Zn76 Zn 0.015 0.98433 0.5488 0.0
Zn77 Zn -0.01139 0.94295 0.73598 0.0
O78 O 0.93823 0.01572 0.80279 0.0
O79 O 0.9437 0.95362 0.81558 0.0
O80 O 0.07088 0.04317 0.82568 0.0
O81 O 0.01443 0.06575 0.82501 0.0
O82 O 0.97491 0.06455 0.62058 0.0
O83 O 0.98803 0.02796 0.49789 0.0
O84 O -0.00751 0.93462 0.49694 0.0
O85 O 0.0776 0.94957 0.81936 0.0
O86 O 0.97345 0.90561 0.63031 0.0
O87 O 0.02385 0.91671 0.81789 0.0
C88 C 0.09793 -0.003 0.53601 0.0
C89 C 0.92673 0.98361 0.83339 0.0
C90 C -0.01049 0.06017 0.53846 0.0
C91 C 0.04789 0.06753 0.85273 0.0
C92 C 0.97723 0.90629 0.53916 0.0
C93 C 0.05735 0.92104 0.8437 0.0
O94 O 0.06653 0.98995 0.49795 0.0
O95 O 0.49292 0.07956 0.62099 0.0
Zn96 Zn 0.50161 0.04293 0.73267 0.0
O97 O 0.5159 -0.00717 0.68344 0.0
Zn98 Zn 0.48006 0.95415 0.72846 0.0
Zn99 Zn 0.5189 -0.00521 0.54252 0.0
Zn100 Zn 0.56397 0.97776 0.72814 0.0
O101 O 0.50286 0.91237 0.80666 0.0
O102 O 0.56157 0.93227 0.81452 0.0
O103 O 0.45336 0.03848 0.81116 0.0
O104 O 0.44003 0.97673 0.80961 0.0
O105 O 0.45237 0.93372 0.61526 0.0
O106 O 0.47691 0.96376 0.48835 0.0
O107 O 0.56788 0.97878 0.4888 0.0
O108 O 0.54398 0.06537 0.81468 0.0
O109 O 0.60015 0.96754 0.62132 0.0
O110 O 0.58511 0.02006 0.80368 0.0
C111 C 0.4986 0.07695 0.53045 0.0
C112 C 0.53573 0.90889 0.83717 0.0
C113 C 0.45281 0.94146 0.52593 0.0
C114 C 0.43245 0.01019 0.83417 0.0
C115 C 0.5975 0.96922 0.53003 0.0
C116 C 0.57556 0.05221 0.83296 0.0
O117 O 0.51007 0.04691 0.49248 0.0
O118 O 0.41108 0.48064 0.6185 0.0
Zn119 Zn 0.45268 0.48178 0.71866 0.0
O120 O 0.50123 0.48859 0.65509 0.0
Zn121 Zn 0.52918 0.44368 0.67678 0.0
Zn122 Zn 0.49348 0.49914 0.51904 0.0
Zn123 Zn 0.53119 0.53033 0.70256 0.0
O124 O 0.57908 0.45357 0.74123 0.0
O125 O 0.57123 0.51269 0.78918 0.0
O126 O 0.44935 0.43317 0.80134 0.0
O127 O 0.50359 0.4087 0.77028 0.0
O128 O 0.52651 0.41373 0.55568 0.0
O129 O 0.50529 0.45335 0.44544 0.0
O130 O 0.52177 0.54548 0.46899 0.0
O131 O 0.4449 0.52806 0.80136 0.0
O132 O 0.55198 0.56588 0.59954 0.0
O133 O 0.4985 0.56019 0.78127 0.0
C134 C 0.41038 0.49305 0.5322 0.0
C135 C 0.58837 0.4821 0.79323 0.0
C136 C 0.5109 0.42021 0.47538 0.0
C137 C 0.47263 0.40728 0.81263 0.0
C138 C 0.54417 0.5688 0.51038 0.0
C139 C 0.46612 0.557 0.8153 0.0
O140 O 0.43956 0.50443 0.48898 0.0
O141 O 0.9381 0.53443 0.52991 0.0
Zn142 Zn 0.98554 0.54245 0.61002 0.0
O143 O 0.00382 0.49337 0.65484 0.0
Zn144 Zn 0.00155 0.49266 0.79557 0.0
Zn145 Zn 0.9736 0.45208 0.5971 0.0
Zn146 Zn 0.05437 0.48447 0.61801 0.0
O147 O 0.04998 0.47798 0.8587 0.0
O148 O 0.08812 0.48103 0.73336 0.0
O149 O 0.97421 0.57759 0.72361 0.0
O150 O -0.01016 0.54369 0.85102 0.0
O151 O 0.9576 0.46005 0.83004 0.0
O152 O 0.94418 0.42587 0.69853 0.0
O153 O 0.00269 0.41378 0.52337 0.0
O154 O 0.02578 0.56877 0.52934 0.0
O155 O 0.06013 0.43697 0.53725 0.0
O156 O 0.07159 0.52839 0.5409 0.0
C157 C 0.9218 0.50479 0.49564 0.0
C158 C 0.08237 0.47714 0.82327 0.0
C159 C 0.93808 0.43509 0.78528 0.0
C160 C 0.97821 0.57394 0.81455 0.0
C161 C 0.037 0.41198 0.50599 0.0
C162 C 0.05862 0.55912 0.51118 0.0
O163 O 0.93377 0.47202 0.51096 0.0
C164 C 0.18211 0.00721 0.34316 0.0
C165 C 0.20953 0.00668 0.29355 0.0
C166 C 0.15337 0.00478 0.41255 0.0
C167 C 0.12917 0.00154 0.47227 0.0
C168 C 0.47454 0.15985 0.33962 0.0
C169 C 0.46549 0.18598 0.28968 0.0
C170 C 0.48346 0.1319 0.4084 0.0
C171 C 0.48995 0.10772 0.46708 0.0
C172 C 0.3168 0.49899 0.37138 0.0
C173 C 0.28919 0.50407 0.32454 0.0
C174 C 0.34843 0.49539 0.43075 0.0
C175 C 0.37591 0.49374 0.4801 0.0
C176 C 0.06962 0.32041 0.35454 0.0
C177 C 0.07633 0.28978 0.32128 0.0
C178 C 0.05964 0.35367 0.40406 0.0
C179 C 0.04994 0.3805 0.45067 0.0
C180 C 0.83433 0.978 0.99756 0.0
C181 C 0.80527 0.98018 0.039 0.0
C182 C 0.86693 0.97902 0.94186 0.0
C183 C 0.89422 0.98116 0.89234 0.0
C184 C 0.56027 0.82168 0.01305 0.0
C185 C 0.56283 0.79182 0.05393 0.0
C186 C 0.55217 0.85295 0.95422 0.0
C187 C 0.54411 0.87827 0.90075 0.0
C188 C 0.66613 0.48298 0.00358 0.0
C189 C 0.69401 0.4849 0.05137 0.0
C190 C 0.63862 0.47998 0.93116 0.0
C191 C 0.6161 0.47895 0.86678 0.0
C192 C 0.95946 0.65976 0.00308 0.0
C193 C 0.96102 0.68793 0.05309 0.0
C194 C 0.96343 0.62954 0.93637 0.0
C195 C 0.96989 0.60479 0.87881 0.0
C196 C 0.07184 0.13547 0.4838 0.0
C197 C 0.08304 0.16292 0.44117 0.0
C198 C 0.04712 0.1058 0.50882 0.0
C199 C 0.02116 0.08421 0.51972 0.0
C200 C 0.35561 0.94086 0.39578 0.0
C201 C 0.33024 0.9557 0.35785 0.0
C202 C 0.38979 0.93247 0.43554 0.0
C203 C 0.41868 0.93666 0.47659 0.0
C204 C 0.43712 0.33766 0.40735 0.0
C205 C 0.42781 0.30806 0.37218 0.0
C206 C 0.46072 0.36849 0.42887 0.0
C207 C 0.48329 0.39281 0.44797 0.0
C208 C 0.14618 0.58522 0.37271 0.0
C209 C 0.17227 0.56953 0.34011 0.0
C210 C 0.1114 0.59076 0.41395 0.0
C211 C 0.08308 0.58253 0.45489 0.0
C212 C 0.0542 0.82946 0.98683 0.0
C213 C 0.03342 0.8062 0.02187 0.0
C214 C 0.06983 0.86205 0.94379 0.0
C215 C 0.07147 0.89144 0.90091 0.0
C216 C 0.66514 0.06438 0.96975 0.0
C217 C 0.68888 0.04543 0.00315 0.0
C218 C 0.6318 0.07606 0.92954 0.0
C219 C 0.60247 0.0727 0.88935 0.0
C220 C 0.47871 0.64945 0.94952 0.0
C221 C 0.50048 0.6714 0.98603 0.0
C222 C 0.45965 0.61799 0.91027 0.0
C223 C 0.45484 0.58796 0.87171 0.0
C224 C 0.83978 0.4355 0.90508 0.0
C225 C 0.81589 0.44851 0.95279 0.0
C226 C 0.8724 0.42621 0.85885 0.0
C227 C 0.9017 0.42786 0.81952 0.0
C228 C 0.07387 0.15556 0.03381 0.0
C229 C 0.0787 0.1781 0.09904 0.0
C230 C 0.067 0.12521 0.96782 0.0
C231 C 0.05966 0.09845 0.9155 0.0
C232 C 0.33712 0.01819 0.98797 0.0
C233 C 0.31355 0.01503 0.04975 0.0
C234 C 0.36962 0.01806 0.93021 0.0
C235 C 0.39848 0.01582 0.88657 0.0
C236 C 0.45878 0.31381 0.98164 0.0
C237 C 0.45561 0.28983 0.04372 0.0
C238 C 0.46117 0.34635 0.92141 0.0
C239 C 0.46439 0.37484 0.87324 0.0
C240 C 0.1707 0.4784 0.00436 0.0
C241 C 0.19204 0.48715 0.06851 0.0
C242 C 0.14068 0.47438 0.93879 0.0
C243 C 0.11385 0.47562 0.88689 0.0
C244 C 0.95337 0.81494 0.36803 0.0
C245 C 0.95551 0.79215 0.303 0.0
C246 C 0.9582 0.84587 0.43326 0.0
C247 C 0.9666 0.87302 0.48328 0.0
C248 C 0.68376 0.95851 0.34874 0.0
C249 C 0.70419 0.9647 0.28154 0.0
C250 C 0.65538 0.95839 0.41866 0.0
C251 C 0.62965 0.96306 0.47209 0.0
C252 C 0.57422 0.65825 0.34226 0.0
C253 C 0.573 0.68119 0.27782 0.0
C254 C 0.56805 0.62774 0.40725 0.0
C255 C 0.55794 0.60138 0.45724 0.0
C256 C 0.82731 0.50458 0.33611 0.0
C257 C 0.80387 0.49965 0.27442 0.0
C258 C 0.85932 0.50747 0.39563 0.0
C259 C 0.88784 0.50779 0.44156 0.0
loop_
_geom_bond_atom_site_label_1
_geom_bond_atom_site_label_2
_geom_bond_distance
_geom_bond_site_symmetry_2
_ccdc_geom_bond_type
H0 C3 0.931 . S
H1 C6 0.928 . S
H2 C8 0.930 . S
C3 H0 0.931 . S
C3 C4 1.413 . S
C3 C5 1.360 1_554 S
C4 C3 1.413 . S
C4 C8 1.429 . S
C5 C3 1.360 1_556 S
C5 C6 1.372 . S
C6 H1 0.928 . S
C6 C5 1.372 . S
C6 C7 1.404 1_556 S
C7 C6 1.404 1_554 S
C7 C8 1.391 . S
C8 H2 0.930 . S
C8 C4 1.429 . S
C8 C7 1.391 . S
H9 C12 0.931 . S
H10 C15 0.928 1_556 S
H11 C17 0.930 . S
C12 H9 0.931 . S
C12 C13 1.413 . S
C12 C14 1.360 . S
C13 C12 1.413 . S
C13 C17 1.429 . S
C14 C12 1.360 . S
C14 C15 1.372 . S
C15 H10 0.928 1_554 S
C15 C14 1.372 . S
C15 C16 1.404 . S
C16 C15 1.404 . S
C16 C17 1.391 . S
C17 H11 0.930 . S
C17 C13 1.429 . S
C17 C16 1.391 . S
H18 C21 0.931 . S
H19 C24 0.928 . S
H20 C26 0.931 . S
C21 H18 0.931 . S
C21 C22 1.413 . S
C21 C23 1.360 1_554 S
C22 C21 1.413 . S
C22 C26 1.429 1_565 S
C23 C21 1.360 1_556 S
C23 C24 1.373 . S
C24 H19 0.928 . S
C24 C23 1.373 . S
C24 C25 1.404 1_556 S
C25 C24 1.404 1_554 S
C25 C26 1.390 1_565 S
C26 H20 0.931 . S
C26 C22 1.429 1_545 S
C26 C25 1.390 1_545 S
H27 C30 0.931 . S
H28 C33 0.928 . S
H29 C35 0.930 . S
C30 H27 0.931 . S
C30 C31 1.413 1_554 S
C30 C32 1.360 . S
C31 C30 1.413 1_556 S
C31 C35 1.429 . S
C32 C30 1.360 . S
C32 C33 1.372 . S
C33 H28 0.928 . S
C33 C32 1.372 . S
C33 C34 1.404 . S
C34 C33 1.404 . S
C34 C35 1.391 1_554 S
C35 H29 0.930 . S
C35 C31 1.429 . S
C35 C34 1.391 1_556 S
H36 C39 0.931 . S
H37 C42 0.928 . S
H38 C44 0.930 . S
C39 H36 0.931 . S
C39 C40 1.413 . S
C39 C41 1.360 . S
C40 C39 1.413 . S
C40 C44 1.429 . S
C41 C39 1.360 . S
C41 C42 1.372 . S
C42 H37 0.928 . S
C42 C41 1.372 . S
C42 C43 1.404 . S
C43 C42 1.404 . S
C43 C44 1.391 . S
C44 H38 0.930 . S
C44 C40 1.429 . S
C44 C43 1.391 . S
H45 C48 0.931 . S
H46 C51 0.928 . S
H47 C53 0.930 . S
C48 H45 0.931 . S
C48 C49 1.413 . S
C48 C50 1.360 . S
C49 C48 1.413 . S
C49 C53 1.429 . S
C50 C48 1.360 . S
C50 C51 1.372 . S
C51 H46 0.928 . S
C51 C50 1.372 . S
C51 C52 1.404 . S
C52 C51 1.404 . S
C52 C53 1.391 . S
C53 H47 0.930 . S
C53 C49 1.429 . S
C53 C52 1.391 . S
H54 C57 0.930 . S
H55 C60 0.928 . S
H56 C62 0.929 . S
C57 H54 0.930 . S
C57 C58 1.413 . S
C57 C59 1.360 . S
C58 C57 1.413 . S
C58 C62 1.429 1_565 S
C59 C57 1.360 . S
C59 C60 1.372 . S
C60 H55 0.928 . S
C60 C59 1.372 . S
C60 C61 1.405 . S
C61 C60 1.405 . S
C61 C62 1.391 1_565 S
C62 H56 0.929 . S
C62 C58 1.429 1_545 S
C62 C61 1.391 1_545 S
H63 C66 0.931 . S
H64 C69 0.928 . S
H65 C71 0.930 . S
C66 H63 0.931 . S
C66 C67 1.413 . S
C66 C68 1.360 . S
C67 C66 1.413 . S
C67 C71 1.429 . S
C68 C66 1.360 . S
C68 C69 1.372 . S
C69 H64 0.928 . S
C69 C68 1.372 . S
C69 C70 1.404 . S
C70 C69 1.404 . S
C70 C71 1.391 . S
C71 H65 0.930 . S
C71 C67 1.429 . S
C71 C70 1.391 . S
O72 Zn73 1.953 . S
O72 C88 1.225 . S
Zn73 O72 1.953 . S
Zn73 O74 1.950 . S
Zn73 O80 1.919 1_565 S
Zn73 O85 1.924 . S
O74 Zn73 1.950 . S
O74 Zn75 1.898 1_565 S
O74 Zn76 1.953 . S
O74 Zn77 1.965 1_455 S
Zn75 O74 1.898 1_545 S
Zn75 O78 1.933 1_455 S
Zn75 O81 1.941 . S
Zn75 O82 1.965 . S
Zn76 O74 1.953 . S
Zn76 O83 1.938 1_565 S
Zn76 O84 1.906 . S
Zn76 O94 1.953 . S
Zn77 O74 1.965 1_655 S
Zn77 O79 1.932 . S
Zn77 O86 1.977 . S
Zn77 O87 1.910 1_655 S
O78 Zn75 1.933 1_655 S
O78 C89 1.226 . S
O79 Zn77 1.932 . S
O79 C89 1.307 1_565 S
O80 Zn73 1.919 1_545 S
O80 C91 1.253 . S
O81 Zn75 1.941 . S
O81 C91 1.283 . S
O82 Zn75 1.965 . S
O82 C90 1.303 . S
O83 Zn76 1.938 1_545 S
O83 C90 1.247 . S
O84 Zn76 1.906 . S
O84 C92 1.304 1_455 S
O85 Zn73 1.924 . S
O85 C93 1.311 . S
O86 Zn77 1.977 . S
O86 C92 1.272 . S
O87 Zn77 1.910 1_455 S
O87 C93 1.231 . S
C88 O72 1.225 . S
C88 O94 1.298 . S
C89 O78 1.226 . S
C89 O79 1.307 1_545 S
C90 O82 1.303 . S
C90 O83 1.247 . S
C91 O80 1.253 . S
C91 O81 1.283 . S
C92 O84 1.304 1_655 S
C92 O86 1.272 . S
C93 O85 1.311 . S
C93 O87 1.231 . S
O94 Zn76 1.953 . S
O94 C88 1.298 . S
O95 Zn96 1.953 . S
O95 C111 1.225 . S
Zn96 O95 1.953 . S
Zn96 O97 1.949 . S
Zn96 O103 1.919 . S
Zn96 O108 1.924 . S
O97 Zn96 1.949 . S
O97 Zn98 1.923 1_545 S
O97 Zn99 1.950 . S
O97 Zn100 1.945 1_545 S
Zn98 O97 1.923 1_565 S
Zn98 O101 1.933 . S
Zn98 O104 1.941 . S
Zn98 O105 1.965 . S
Zn99 O97 1.950 . S
Zn99 O106 1.938 . S
Zn99 O107 1.906 1_545 S
Zn99 O117 1.953 . S
Zn100 O97 1.945 1_565 S
Zn100 O102 1.932 . S
Zn100 O109 1.977 . S
Zn100 O110 1.910 1_565 S
O101 Zn98 1.933 . S
O101 C112 1.226 . S
O102 Zn100 1.932 . S
O102 C112 1.307 . S
O103 Zn96 1.919 . S
O103 C114 1.253 . S
O104 Zn98 1.941 . S
O104 C114 1.283 1_565 S
O105 Zn98 1.965 . S
O105 C113 1.303 . S
O106 Zn99 1.938 . S
O106 C113 1.247 1_545 S
O107 Zn99 1.906 1_565 S
O107 C115 1.304 . S
O108 Zn96 1.924 . S
O108 C116 1.311 . S
O109 Zn100 1.977 . S
O109 C115 1.272 . S
O110 Zn100 1.910 1_545 S
O110 C116 1.231 . S
C111 O95 1.225 . S
C111 O117 1.298 . S
C112 O101 1.226 . S
C112 O102 1.307 . S
C113 O105 1.303 . S
C113 O106 1.247 1_565 S
C114 O103 1.253 . S
C114 O104 1.283 1_545 S
C115 O107 1.304 . S
C115 O109 1.272 . S
C116 O108 1.311 . S
C116 O110 1.231 . S
O117 Zn99 1.953 . S
O117 C111 1.298 . S
O118 Zn119 1.953 . S
O118 C134 1.225 . S
Zn119 O118 1.953 . S
Zn119 O120 1.949 . S
Zn119 O126 1.919 . S
Zn119 O131 1.924 . S
O120 Zn119 1.949 . S
O120 Zn121 1.923 . S
O120 Zn122 1.950 . S
O120 Zn123 1.945 . S
Zn121 O120 1.923 . S
Zn121 O124 1.933 . S
Zn121 O127 1.941 . S
Zn121 O128 1.965 . S
Zn122 O120 1.950 . S
Zn122 O129 1.938 . S
Zn122 O130 1.906 . S
Zn122 O140 1.953 . S
Zn123 O120 1.945 . S
Zn123 O125 1.932 . S
Zn123 O132 1.977 . S
Zn123 O133 1.910 . S
O124 Zn121 1.933 . S
O124 C135 1.226 . S
O125 Zn123 1.932 . S
O125 C135 1.307 . S
O126 Zn119 1.919 . S
O126 C137 1.253 . S
O127 Zn121 1.941 . S
O127 C137 1.283 . S
O128 Zn121 1.965 . S
O128 C136 1.303 . S
O129 Zn122 1.938 . S
O129 C136 1.247 . S
O130 Zn122 1.906 . S
O130 C138 1.304 . S
O131 Zn119 1.924 . S
O131 C139 1.311 . S
O132 Zn123 1.977 . S
O132 C138 1.272 . S
O133 Zn123 1.910 . S
O133 C139 1.231 . S
C134 O118 1.225 . S
C134 O140 1.298 . S
C135 O124 1.226 . S
C135 O125 1.307 . S
C136 O128 1.303 . S
C136 O129 1.247 . S
C137 O126 1.253 . S
C137 O127 1.283 . S
C138 O130 1.304 . S
C138 O132 1.272 . S
C139 O131 1.311 . S
C139 O133 1.231 . S
O140 Zn122 1.953 . S
O140 C134 1.298 . S
O141 Zn142 1.953 1_655 S
O141 C157 1.225 . S
Zn142 O141 1.953 1_455 S
Zn142 O143 1.949 . S
Zn142 O149 1.919 . S
Zn142 O154 1.924 . S
O143 Zn142 1.949 . S
O143 Zn144 1.923 . S
O143 Zn145 1.950 1_455 S
O143 Zn146 1.945 . S
Zn144 O143 1.923 . S
Zn144 O147 1.933 . S
Zn144 O150 1.941 1_455 S
Zn144 O151 1.965 1_455 S
Zn145 O143 1.950 1_655 S
Zn145 O152 1.938 . S
Zn145 O153 1.906 . S
Zn145 O163 1.953 . S
Zn146 O143 1.945 . S
Zn146 O148 1.932 . S
Zn146 O155 1.977 . S
Zn146 O156 1.910 . S
O147 Zn144 1.933 . S
O147 C158 1.226 . S
O148 Zn146 1.932 . S
O148 C158 1.307 . S
O149 Zn142 1.919 . S
O149 C160 1.253 . S
O150 Zn144 1.941 1_655 S
O150 C160 1.283 1_655 S
O151 Zn144 1.965 1_655 S
O151 C159 1.303 . S
O152 Zn145 1.938 . S
O152 C159 1.247 . S
O153 Zn145 1.906 . S
O153 C161 1.305 1_655 S
O154 Zn142 1.924 . S
O154 C162 1.311 . S
O155 Zn146 1.977 . S
O155 C161 1.272 . S
O156 Zn146 1.910 . S
O156 C162 1.231 . S
C157 O141 1.225 . S
C157 O163 1.298 . S
C158 O147 1.226 . S
C158 O148 1.307 . S
C159 O151 1.303 . S
C159 O152 1.247 . S
C160 O149 1.253 . S
C160 O150 1.283 1_455 S
C161 O153 1.305 1_455 S
C161 O155 1.272 . S
C162 O154 1.311 . S
C162 O156 1.231 . S
O163 Zn145 1.953 . S
O163 C157 1.298 . S
C164 C165 1.170 . S
C164 C166 1.380 . S
C165 C164 1.170 . S
C166 C164 1.380 . S
C166 C167 1.170 . S
C167 C166 1.170 . S
C168 C169 1.170 . S
C168 C170 1.380 . S
C169 C168 1.170 . S
C170 C168 1.380 . S
C170 C171 1.170 . S
C171 C170 1.170 . S
C172 C173 1.170 . S
C172 C174 1.380 . S
C173 C172 1.170 . S
C174 C172 1.380 . S
C174 C175 1.170 . S
C175 C174 1.170 . S
C176 C177 1.170 . S
C176 C178 1.380 . S
C177 C176 1.170 . S
C178 C176 1.380 . S
C178 C179 1.170 . S
C179 C178 1.170 . S
C180 C181 1.170 . S
C180 C182 1.380 . S
C181 C180 1.170 . S
C182 C180 1.380 . S
C182 C183 1.170 . S
C183 C182 1.170 . S
C184 C185 1.170 . S
C184 C186 1.380 . S
C185 C184 1.170 . S
C186 C184 1.380 . S
C186 C187 1.170 . S
C187 C186 1.170 . S
C188 C189 1.170 . S
C188 C190 1.380 . S
C189 C188 1.170 . S
C190 C188 1.380 . S
C190 C191 1.170 . S
C191 C190 1.170 . S
C192 C193 1.170 1_556 S
C192 C194 1.380 . S
C193 C192 1.170 1_554 S
C194 C192 1.380 . S
C194 C195 1.170 1_655 S
C195 C194 1.170 1_455 S
C196 C197 1.170 . S
C196 C198 1.380 . S
C197 C196 1.170 . S
C198 C196 1.380 . S
C198 C199 1.170 . S
C199 C198 1.170 . S
C200 C201 1.170 . S
C200 C202 1.380 . S
C201 C200 1.170 . S
C202 C200 1.380 . S
C202 C203 1.170 . S
C203 C202 1.170 . S
C204 C205 1.170 . S
C204 C206 1.380 . S
C205 C204 1.170 . S
C206 C204 1.380 . S
C206 C207 1.170 . S
C207 C206 1.170 . S
C208 C209 1.170 . S
C208 C210 1.380 . S
C209 C208 1.170 . S
C210 C208 1.380 . S
C210 C211 1.170 . S
C211 C210 1.170 . S
C212 C213 1.170 1_455 S
C212 C214 1.380 . S
C213 C212 1.170 1_655 S
C214 C212 1.380 . S
C214 C215 1.170 . S
C215 C214 1.170 . S
C216 C217 1.159 1_545 S
C216 C218 1.380 . S
C217 C216 1.159 1_565 S
C218 C216 1.380 . S
C218 C219 1.170 . S
C219 C218 1.170 . S
C220 C221 1.170 . S
C220 C222 1.380 . S
C221 C220 1.170 . S
C222 C220 1.380 . S
C222 C223 1.170 . S
C223 C222 1.170 . S
C224 C225 1.170 . S
C224 C226 1.380 . S
C225 C224 1.170 . S
C226 C224 1.380 . S
C226 C227 1.170 . S
C227 C226 1.170 . S
C228 C229 1.170 . S
C228 C230 1.380 . S
C229 C228 1.170 . S
C230 C228 1.380 . S
C230 C231 1.170 1_554 S
C231 C230 1.170 1_556 S
C232 C233 1.170 . S
C232 C234 1.381 1_554 S
C233 C232 1.170 . S
C234 C232 1.381 1_556 S
C234 C235 1.167 1_545 S
C235 C234 1.167 1_565 S
C236 C237 1.170 . S
C236 C238 1.380 1_554 S
C237 C236 1.170 . S
C238 C236 1.380 1_556 S
C238 C239 1.170 . S
C239 C238 1.170 . S
C240 C241 1.170 . S
C240 C242 1.380 1_554 S
C241 C240 1.170 . S
C242 C240 1.380 1_556 S
C242 C243 1.170 . S
C243 C242 1.170 . S
C244 C245 1.170 . S
C244 C246 1.380 . S
C245 C244 1.170 . S
C246 C244 1.380 . S
C246 C247 1.170 . S
C247 C246 1.170 . S
C248 C249 1.170 . S
C248 C250 1.380 . S
C249 C248 1.170 . S
C250 C248 1.380 . S
C250 C251 1.170 . S
C251 C250 1.170 . S
C252 C253 1.170 . S
C252 C254 1.380 . S
C253 C252 1.170 . S
C254 C252 1.380 . S
C254 C255 1.170 . S
C255 C254 1.170 . S
C256 C257 1.170 . S
C256 C258 1.380 . S
C257 C256 1.170 . S
C258 C256 1.380 . S
C258 C259 1.170 . S
C259 C258 1.170 . S
C165 C61 1.557 . S
C167 C88 1.608 . S
C171 C111 1.699 . S
C169 C70 1.654 . S
C175 C134 1.605 . S
C173 C43 1.618 . S
C179 C161 1.534 . S
C177 C52 1.582 . S
C183 C89 1.552 . S
C181 C25 1.515 1_546 S
C185 C34 1.507 1_556 S
C187 C112 1.540 . S
C189 C7 1.435 1_556 S
C191 C135 1.483 . S
C193 C16 1.543 . S
C195 C160 1.541 . S
C199 C90 0.536 . S
C197 C50 0.609 . S
C203 C113 0.425 . S
C201 C59 0.463 . S
C207 C136 0.559 . S
C205 C67 0.609 . S
C209 C41 0.668 . S
C211 C162 0.694 . S
C213 C14 0.814 1_556 S
C215 C93 0.866 . S
C219 C116 0.732 . S
C217 C23 0.841 . S
C223 C139 0.756 . S
C221 C31 0.835 . S
C225 C5 0.542 . S
C227 C159 0.553 . S
C229 C49 1.617 . S
C231 C91 1.622 . S
C233 C58 1.555 1_545 S
C235 C114 1.540 1_565 S
C239 C137 1.557 . S
C237 C68 1.541 . S
C243 C158 1.424 . S
C241 C40 1.400 . S
C245 C13 1.655 . S
C247 C92 1.625 . S
C251 C115 1.559 . S
C249 C22 1.586 . S
C255 C138 1.532 . S
C253 C32 1.579 . S
C257 C4 1.618 . S
C259 C157 1.699 . S
