# Generated by pormake.
# Topology ptr, (4,4)-cn, num edge types: 1
# Building blocks:
#     Node 0, Type 0, BuildingBlock: AZAVOO_clean_sbu_0, # of connection points: 4
#     Node 1, Type 0, BuildingBlock: AZAVOO_clean_sbu_0, # of connection points: 4
#     Node 2, Type 0, BuildingBlock: AZAVOO_clean_sbu_0, # of connection points: 4
#     Node 3, Type 0, BuildingBlock: AZAVOO_clean_sbu_0, # of connection points: 4
#     Node 4, Type 0, BuildingBlock: AZAVOO_clean_sbu_0, # of connection points: 4
#     Node 5, Type 0, BuildingBlock: AZAVOO_clean_sbu_0, # of connection points: 4
#     Node 6, Type 0, BuildingBlock: AZAVOO_clean_sbu_0, # of connection points: 4
#     Node 7, Type 0, BuildingBlock: AZAVOO_clean_sbu_0, # of connection points: 4
#     Node 8, Type 0, BuildingBlock: AZAVOO_clean_sbu_0, # of connection points: 4
#     Node 9, Type 0, BuildingBlock: AZAVOO_clean_sbu_0, # of connection points: 4
#     Node 10, Type 0, BuildingBlock: AZAVOO_clean_sbu_0, # of connection points: 4
#     Node 11, Type 0, BuildingBlock: AZAVOO_clean_sbu_0, # of connection points: 4
#     Node 12, Type 0, BuildingBlock: AZAVOO_clean_sbu_0, # of connection points: 4
#     Node 13, Type 0, BuildingBlock: AZAVOO_clean_sbu_0, # of connection points: 4
#     Node 14, Type 0, BuildingBlock: AZAVOO_clean_sbu_0, # of connection points: 4
#     Node 15, Type 0, BuildingBlock: AZAVOO_clean_sbu_0, # of connection points: 4
#     Node 16, Type 0, BuildingBlock: AZAVOO_clean_sbu_0, # of connection points: 4
#     Node 17, Type 0, BuildingBlock: AZAVOO_clean_sbu_0, # of connection points: 4
#     Node 18, Type 1, BuildingBlock: AZAVOO_clean_linker_0, # of connection points: 4
#     Node 19, Type 1, BuildingBlock: AZAVOO_clean_linker_0, # of connection points: 4
#     Node 20, Type 1, BuildingBlock: AZAVOO_clean_linker_0, # of connection points: 4
#     Node 21, Type 1, BuildingBlock: AZAVOO_clean_linker_0, # of connection points: 4
#     Node 22, Type 1, BuildingBlock: AZAVOO_clean_linker_0, # of connection points: 4
#     Node 23, Type 1, BuildingBlock: AZAVOO_clean_linker_0, # of connection points: 4
#     Node 24, Type 1, BuildingBlock: AZAVOO_clean_linker_0, # of connection points: 4
#     Node 25, Type 1, BuildingBlock: AZAVOO_clean_linker_0, # of connection points: 4
#     Node 26, Type 1, BuildingBlock: AZAVOO_clean_linker_0, # of connection points: 4
#     Node 27, Type 1, BuildingBlock: AZAVOO_clean_linker_0, # of connection points: 4
#     Node 28, Type 1, BuildingBlock: AZAVOO_clean_linker_0, # of connection points: 4
#     Node 29, Type 1, BuildingBlock: AZAVOO_clean_linker_0, # of connection points: 4
#     Node 30, Type 1, BuildingBlock: AZAVOO_clean_linker_0, # of connection points: 4
#     Node 31, Type 1, BuildingBlock: AZAVOO_clean_linker_0, # of connection points: 4
#     Node 32, Type 1, BuildingBlock: AZAVOO_clean_linker_0, # of connection points: 4
#     Node 33, Type 1, BuildingBlock: AZAVOO_clean_linker_0, # of connection points: 4
#     Node 34, Type 1, BuildingBlock: AZAVOO_clean_linker_0, # of connection points: 4
#     Node 35, Type 1, BuildingBlock: AZAVOO_clean_linker_0, # of connection points: 4
#     Edge 36, Type (0, 1), BuildingBlock: MIFKUJ_clean_linker_0, # of connection points: 2
#     Edge 37, Type (0, 1), BuildingBlock: MIFKUJ_clean_linker_0, # of connection points: 2
#     Edge 38, Type (0, 1), BuildingBlock: MIFKUJ_clean_linker_0, # of connection points: 2
#     Edge 39, Type (0, 1), BuildingBlock: MIFKUJ_clean_linker_0, # of connection points: 2
#     Edge 40, Type (0, 1), BuildingBlock: MIFKUJ_clean_linker_0, # of connection points: 2
#     Edge 41, Type (0, 1), BuildingBlock: MIFKUJ_clean_linker_0, # of connection points: 2
#     Edge 42, Type (0, 1), BuildingBlock: MIFKUJ_clean_linker_0, # of connection points: 2
#     Edge 43, Type (0, 1), BuildingBlock: MIFKUJ_clean_linker_0, # of connection points: 2
#     Edge 44, Type (0, 1), BuildingBlock: MIFKUJ_clean_linker_0, # of connection points: 2
#     Edge 45, Type (0, 1), BuildingBlock: MIFKUJ_clean_linker_0, # of connection points: 2
#     Edge 46, Type (0, 1), BuildingBlock: MIFKUJ_clean_linker_0, # of connection points: 2
#     Edge 47, Type (0, 1), BuildingBlock: MIFKUJ_clean_linker_0, # of connection points: 2
#     Edge 48, Type (0, 1), BuildingBlock: MIFKUJ_clean_linker_0, # of connection points: 2
#     Edge 49, Type (0, 1), BuildingBlock: MIFKUJ_clean_linker_0, # of connection points: 2
#     Edge 50, Type (0, 1), BuildingBlock: MIFKUJ_clean_linker_0, # of connection points: 2
#     Edge 51, Type (0, 1), BuildingBlock: MIFKUJ_clean_linker_0, # of connection points: 2
#     Edge 52, Type (0, 1), BuildingBlock: MIFKUJ_clean_linker_0, # of connection points: 2
#     Edge 53, Type (0, 1), BuildingBlock: MIFKUJ_clean_linker_0, # of connection points: 2
#     Edge 54, Type (0, 1), BuildingBlock: MIFKUJ_clean_linker_0, # of connection points: 2
#     Edge 55, Type (0, 1), BuildingBlock: MIFKUJ_clean_linker_0, # of connection points: 2
#     Edge 56, Type (0, 1), BuildingBlock: MIFKUJ_clean_linker_0, # of connection points: 2
#     Edge 57, Type (0, 1), BuildingBlock: MIFKUJ_clean_linker_0, # of connection points: 2
#     Edge 58, Type (0, 1), BuildingBlock: MIFKUJ_clean_linker_0, # of connection points: 2
#     Edge 59, Type (0, 1), BuildingBlock: MIFKUJ_clean_linker_0, # of connection points: 2
#     Edge 60, Type (0, 1), BuildingBlock: MIFKUJ_clean_linker_0, # of connection points: 2
#     Edge 61, Type (0, 1), BuildingBlock: MIFKUJ_clean_linker_0, # of connection points: 2
#     Edge 62, Type (0, 1), BuildingBlock: MIFKUJ_clean_linker_0, # of connection points: 2
#     Edge 63, Type (0, 1), BuildingBlock: MIFKUJ_clean_linker_0, # of connection points: 2
#     Edge 64, Type (0, 1), BuildingBlock: MIFKUJ_clean_linker_0, # of connection points: 2
#     Edge 65, Type (0, 1), BuildingBlock: MIFKUJ_clean_linker_0, # of connection points: 2
#     Edge 66, Type (0, 1), BuildingBlock: MIFKUJ_clean_linker_0, # of connection points: 2
#     Edge 67, Type (0, 1), BuildingBlock: MIFKUJ_clean_linker_0, # of connection points: 2
#     Edge 68, Type (0, 1), BuildingBlock: MIFKUJ_clean_linker_0, # of connection points: 2
#     Edge 69, Type (0, 1), BuildingBlock: MIFKUJ_clean_linker_0, # of connection points: 2
#     Edge 70, Type (0, 1), BuildingBlock: MIFKUJ_clean_linker_0, # of connection points: 2
#     Edge 71, Type (0, 1), BuildingBlock: MIFKUJ_clean_linker_0, # of connection points: 2
#     Edge 72, Type (0, 1), BuildingBlock: MIFKUJ_clean_linker_0, # of connection points: 2
#     Edge 73, Type (0, 1), BuildingBlock: MIFKUJ_clean_linker_0, # of connection points: 2
#     Edge 74, Type (0, 1), BuildingBlock: MIFKUJ_clean_linker_0, # of connection points: 2
#     Edge 75, Type (0, 1), BuildingBlock: MIFKUJ_clean_linker_0, # of connection points: 2
#     Edge 76, Type (0, 1), BuildingBlock: MIFKUJ_clean_linker_0, # of connection points: 2
#     Edge 77, Type (0, 1), BuildingBlock: MIFKUJ_clean_linker_0, # of connection points: 2
#     Edge 78, Type (0, 1), BuildingBlock: MIFKUJ_clean_linker_0, # of connection points: 2
#     Edge 79, Type (0, 1), BuildingBlock: MIFKUJ_clean_linker_0, # of connection points: 2
#     Edge 80, Type (0, 1), BuildingBlock: MIFKUJ_clean_linker_0, # of connection points: 2
#     Edge 81, Type (0, 1), BuildingBlock: MIFKUJ_clean_linker_0, # of connection points: 2
#     Edge 82, Type (0, 1), BuildingBlock: MIFKUJ_clean_linker_0, # of connection points: 2
#     Edge 83, Type (0, 1), BuildingBlock: MIFKUJ_clean_linker_0, # of connection points: 2
#     Edge 84, Type (0, 1), BuildingBlock: MIFKUJ_clean_linker_0, # of connection points: 2
#     Edge 85, Type (0, 1), BuildingBlock: MIFKUJ_clean_linker_0, # of connection points: 2
#     Edge 86, Type (0, 1), BuildingBlock: MIFKUJ_clean_linker_0, # of connection points: 2
#     Edge 87, Type (0, 1), BuildingBlock: MIFKUJ_clean_linker_0, # of connection points: 2
#     Edge 88, Type (0, 1), BuildingBlock: MIFKUJ_clean_linker_0, # of connection points: 2
#     Edge 89, Type (0, 1), BuildingBlock: MIFKUJ_clean_linker_0, # of connection points: 2
#     Edge 90, Type (0, 1), BuildingBlock: MIFKUJ_clean_linker_0, # of connection points: 2
#     Edge 91, Type (0, 1), BuildingBlock: MIFKUJ_clean_linker_0, # of connection points: 2
#     Edge 92, Type (0, 1), BuildingBlock: MIFKUJ_clean_linker_0, # of connection points: 2
#     Edge 93, Type (0, 1), BuildingBlock: MIFKUJ_clean_linker_0, # of connection points: 2
#     Edge 94, Type (0, 1), BuildingBlock: MIFKUJ_clean_linker_0, # of connection points: 2
#     Edge 95, Type (0, 1), BuildingBlock: MIFKUJ_clean_linker_0, # of connection points: 2
#     Edge 96, Type (0, 1), BuildingBlock: MIFKUJ_clean_linker_0, # of connection points: 2
#     Edge 97, Type (0, 1), BuildingBlock: MIFKUJ_clean_linker_0, # of connection points: 2
#     Edge 98, Type (0, 1), BuildingBlock: MIFKUJ_clean_linker_0, # of connection points: 2
#     Edge 99, Type (0, 1), BuildingBlock: MIFKUJ_clean_linker_0, # of connection points: 2
#     Edge 100, Type (0, 1), BuildingBlock: MIFKUJ_clean_linker_0, # of connection points: 2
#     Edge 101, Type (0, 1), BuildingBlock: MIFKUJ_clean_linker_0, # of connection points: 2
#     Edge 102, Type (0, 1), BuildingBlock: MIFKUJ_clean_linker_0, # of connection points: 2
#     Edge 103, Type (0, 1), BuildingBlock: MIFKUJ_clean_linker_0, # of connection points: 2
#     Edge 104, Type (0, 1), BuildingBlock: MIFKUJ_clean_linker_0, # of connection points: 2
#     Edge 105, Type (0, 1), BuildingBlock: MIFKUJ_clean_linker_0, # of connection points: 2
#     Edge 106, Type (0, 1), BuildingBlock: MIFKUJ_clean_linker_0, # of connection points: 2
#     Edge 107, Type (0, 1), BuildingBlock: MIFKUJ_clean_linker_0, # of connection points: 2
# Relax obj value: 0.119
# Max RMSD: 0.323
# Mean RMSD: 0.192
data_MOF--net-ptr--node1-AZAVOO_clean_sbu_0--node2-AZAVOO_clean_linker_0--edge1-MIFKUJ_clean_linker_0
_symmetry_space_group_name_H-M    P1
_symmetry_Int_Tables_number       1
_symmetry_cell_setting            triclinic
loop_
_symmetry_equiv_pos_as_xyz
'x, y, z'
_cell_length_a     103.10028
_cell_length_b     100.14825
_cell_length_c     83.709139
_cell_angle_alpha  93.221732
_cell_angle_beta   93.167297
_cell_angle_gamma 120.20942
loop_
_atom_site_label
_atom_site_type_symbol
_atom_site_fract_x
_atom_site_fract_y
_atom_site_fract_z
_atom_type_partial_charge
Mg0 Mg 0.01855 0.35953 0.99765 0.0
O1 O 0.00763 0.36715 0.01648 0.0
O2 O 0.98873 0.36861 0.00394 0.0
Mg3 Mg 0.98817 0.36277 0.97695 0.0
C4 C 0.9968 0.36989 0.0167 0.0
C5 C 0.04431 0.3596 0.01928 0.0
O6 O 0.05241 0.37027 0.00988 0.0
O7 O 0.99849 0.33472 0.9945 0.0
O8 O 0.98094 0.33746 0.9807 0.0
O9 O 0.03424 0.38458 0.9943 0.0
O10 O 0.0122 0.36969 0.98023 0.0
C11 C 0.98535 0.32897 0.98712 0.0
C12 C 0.02402 0.38321 0.98353 0.0
O13 O 0.03004 0.35322 0.01747 0.0
Mg14 Mg 0.64153 0.63548 0.08148 0.0
O15 O 0.62429 0.62956 0.05976 0.0
O16 O 0.60297 0.62595 0.06909 0.0
Mg17 Mg 0.60641 0.62904 0.0966 0.0
C18 C 0.61065 0.62643 0.05744 0.0
C19 C 0.6605 0.6364 0.053 0.0
O20 O 0.64871 0.62248 0.04907 0.0
O21 O 0.64476 0.65958 0.0857 0.0
O22 O 0.62375 0.65509 0.09646 0.0
O23 O 0.63379 0.61036 0.08289 0.0
O24 O 0.62404 0.62283 0.09533 0.0
C25 C 0.63674 0.66442 0.09209 0.0
C26 C 0.62375 0.61 0.09177 0.0
O27 O 0.66072 0.64441 0.06543 0.0
Mg28 Mg 0.36676 0.99034 0.00244 0.0
O29 O 0.38328 0.99699 0.02499 0.0
O30 O 0.40479 0.01816 0.02052 0.0
Mg31 Mg 0.40222 0.02449 0.99517 0.0
C32 C 0.39684 0.00769 0.02953 0.0
C33 C 0.33458 0.97464 0.01116 0.0
O34 O 0.33417 0.98118 0.9981 0.0
O35 O 0.36375 0.0107 0.00913 0.0
O36 O 0.38478 0.03111 0.00259 0.0
O37 O 0.37453 0.97499 0.99162 0.0
O38 O 0.38473 -3e-05 0.98853 0.0
C39 C 0.37172 0.02516 0.00767 0.0
C40 C 0.38491 0.98727 0.98597 0.0
O41 O 0.34687 0.97553 0.01621 0.0
Mg42 Mg 0.98859 0.6512 0.06736 0.0
O43 O 0.99935 0.64251 0.04925 0.0
O44 O 0.01528 0.6374 0.06309 0.0
Mg45 Mg 0.0163 0.64482 0.0896 0.0
C46 C 0.00862 0.63758 0.04987 0.0
C47 C 0.96777 0.6486 0.03707 0.0
O48 O 0.96202 0.63376 0.03874 0.0
O49 O 0.00976 0.67516 0.07092 0.0
O50 O 0.02597 0.67035 0.08461 0.0
O51 O 0.97131 0.6265 0.0702 0.0
O52 O 0.99301 0.63997 0.08526 0.0
C53 C 0.02277 0.6797 0.07805 0.0
C54 C 0.98078 0.6269 0.08132 0.0
O55 O 0.9788 0.65853 0.04681 0.0
Mg56 Mg 0.36416 0.37627 0.9836 0.0
O57 O 0.38201 0.38233 0.00469 0.0
O58 O 0.40278 0.38498 0.99484 0.0
Mg59 Mg 0.39825 0.38095 0.96743 0.0
C60 C 0.39556 0.38514 0.00668 0.0
C61 C 0.33498 0.37056 0.99824 0.0
O62 O 0.33445 0.37764 0.98568 0.0
O63 O 0.35993 0.35176 0.97965 0.0
O64 O 0.38061 0.35516 0.96888 0.0
O65 O 0.37279 0.40145 0.98192 0.0
O66 O 0.38105 0.38791 0.96868 0.0
C67 C 0.3676 0.34635 0.97353 0.0
C68 C 0.38214 0.40112 0.9724 0.0
O69 O 0.34605 0.36848 0.00088 0.0
Mg70 Mg 0.64106 0.01998 0.06546 0.0
O71 O 0.62431 0.01144 0.04273 0.0
O72 O 0.60369 0.98946 0.04733 0.0
Mg73 Mg 0.60698 0.98429 0.07299 0.0
C74 C 0.61113 -1e-05 0.03817 0.0
C75 C 0.65968 0.04261 0.03945 0.0
O76 O 0.64681 0.04153 0.0347 0.0
O77 O 0.64634 0.00088 0.06013 0.0
O78 O 0.62573 0.97956 0.06604 0.0
O79 O 0.63109 0.03364 0.07543 0.0
O80 O 0.62329 0.00924 0.07945 0.0
C81 C 0.63905 0.98635 0.06155 0.0
C82 C 0.62169 0.02113 0.08158 0.0
O83 O 0.6605 0.03582 0.05149 0.0
Mg84 Mg 0.68176 0.69623 0.33437 0.0
O85 O 0.66906 0.70286 0.35188 0.0
O86 O 0.65249 0.70652 0.33729 0.0
Mg87 Mg 0.65454 0.70221 0.31067 0.0
C88 C 0.65869 0.7063 0.35084 0.0
C89 C 0.70155 0.6857 0.35091 0.0
O90 O 0.70607 0.68824 0.33643 0.0
O91 O 0.66133 0.67193 0.32869 0.0
O92 O 0.64567 0.67632 0.31338 0.0
O93 O 0.69874 0.72138 0.3334 0.0
O94 O 0.67794 0.70807 0.31688 0.0
C95 C 0.6489 0.66706 0.32007 0.0
C96 C 0.68989 0.72115 0.32165 0.0
O97 O 0.69108 0.68815 0.35456 0.0
Mg98 Mg 0.30147 0.96359 0.41781 0.0
O99 O 0.28379 0.95817 0.39696 0.0
O100 O 0.2638 0.9574 0.40699 0.0
Mg101 Mg 0.26801 0.95991 0.43457 0.0
C102 C 0.27071 0.9566 0.3951 0.0
C103 C 0.32902 0.96621 0.40264 0.0
O104 O 0.32817 0.95818 0.41483 0.0
O105 O 0.3064 0.98844 0.42185 0.0
O106 O 0.28683 0.98548 0.43479 0.0
O107 O 0.29237 0.93835 0.41939 0.0
O108 O 0.28455 0.95219 0.43281 0.0
C109 C 0.29958 0.99406 0.42949 0.0
C110 C 0.28325 0.93888 0.4291 0.0
O111 O 0.31941 0.97047 0.40041 0.0
Mg112 Mg 0.04938 0.32537 0.34211 0.0
O113 O 0.06799 0.33662 0.36301 0.0
O114 O 0.08933 0.35382 0.3534 0.0
Mg115 Mg 0.08434 0.35333 0.32632 0.0
C116 C 0.082 0.34688 0.36503 0.0
C117 C 0.01873 0.30395 0.35432 0.0
O118 O 0.01718 0.2973 0.33981 0.0
O119 O 0.04816 0.34734 0.34197 0.0
O120 O 0.06903 0.36354 0.33092 0.0
O121 O 0.0552 0.30698 0.33637 0.0
O122 O 0.06516 0.32948 0.32601 0.0
C123 C 0.05669 0.3604 0.33671 0.0
C124 C 0.06459 0.31644 0.3271 0.0
O125 O 0.0313 0.31588 0.35945 0.0
Mg126 Mg 0.65303 0.97303 0.40064 0.0
O127 O 0.66625 0.96742 0.38278 0.0
O128 O 0.68415 0.96552 0.39703 0.0
Mg129 Mg 0.68243 0.9698 0.42368 0.0
C130 C 0.67732 0.96502 0.38361 0.0
C131 C 0.63632 0.97167 0.36709 0.0
O132 O 0.63701 0.95903 0.36409 0.0
O133 O 0.67252 0.99801 0.40571 0.0
O134 O 0.68961 0.9952 0.4204 0.0
O135 O 0.63734 0.94772 0.402 0.0
O136 O 0.65838 0.96197 0.41796 0.0
C137 C 0.68534 0.00373 0.41381 0.0
C138 C 0.64683 0.9485 0.41334 0.0
O139 O 0.64208 0.97972 0.38057 0.0
Mg140 Mg 0.03896 0.7144 0.32411 0.0
O141 O 0.05577 0.7209 0.34636 0.0
O142 O 0.07731 0.72421 0.33796 0.0
Mg143 Mg 0.07456 0.72096 0.31044 0.0
C144 C 0.06936 0.72399 0.34922 0.0
C145 C 0.00619 0.69792 0.33285 0.0
O146 O 0.00427 0.69576 0.31707 0.0
O147 O 0.03599 0.69035 0.32051 0.0
O148 O 0.05732 0.69484 0.31054 0.0
O149 O 0.04652 0.73933 0.32228 0.0
O150 O 0.05669 0.72701 0.31041 0.0
C151 C 0.0442 0.68551 0.31462 0.0
C152 C 0.05674 0.73978 0.31361 0.0
O153 O 0.01952 0.70551 0.33978 0.0
Mg154 Mg 0.29696 0.35504 0.39431 0.0
O155 O 0.27875 0.34269 0.37305 0.0
O156 O 0.25874 0.32252 0.38166 0.0
Mg157 Mg 0.26429 0.32196 0.40836 0.0
C158 C 0.26539 0.33097 0.37052 0.0
C159 C 0.32816 0.37264 0.3827 0.0
O160 O 0.33088 0.37088 0.39772 0.0
O161 O 0.3024 0.33579 0.39282 0.0
O162 O 0.28247 0.31602 0.40204 0.0
O163 O 0.28708 0.36972 0.4011 0.0
O164 O 0.28063 0.34714 0.4103 0.0
C165 C 0.29536 0.32187 0.39656 0.0
C166 C 0.27861 0.35879 0.40974 0.0
O167 O 0.31463 0.3678 0.37723 0.0
Mg168 Mg 0.35179 0.03337 0.66777 0.0
O169 O 0.33873 0.03958 0.68518 0.0
O170 O 0.3212 0.04155 0.67026 0.0
Mg171 Mg 0.32355 0.03762 0.64357 0.0
C172 C 0.32773 0.04208 0.68391 0.0
C173 C 0.37536 0.0288 0.68629 0.0
O174 O 0.3816 0.03482 0.67326 0.0
O175 O 0.33174 0.00856 0.66269 0.0
O176 O 0.31631 0.01211 0.64591 0.0
O177 O 0.36837 0.05864 0.66616 0.0
O178 O 0.34716 0.04485 0.65037 0.0
C179 C 0.31974 0.00325 0.65315 0.0
C180 C 0.35898 0.05811 0.65487 0.0
O181 O 0.36224 0.02648 0.68812 0.0
Mg182 Mg 0.9704 0.29529 0.74123 0.0
O183 O 0.95328 0.28785 0.71909 0.0
O184 O 0.93132 0.28293 0.72787 0.0
Mg185 Mg 0.9339 0.28503 0.75539 0.0
C186 C 0.93945 0.28403 0.71648 0.0
C187 C 0.00141 0.30491 0.72954 0.0
O188 O 0.00135 0.29745 0.74199 0.0
O189 O 0.97113 0.31835 0.74531 0.0
O190 O 0.9495 0.3114 0.75599 0.0
O191 O 0.96497 0.2708 0.74277 0.0
O192 O 0.95317 0.28126 0.75474 0.0
C193 C 0.96214 0.32179 0.75181 0.0
C194 C 0.95437 0.26922 0.75148 0.0
O195 O 0.98989 0.30596 0.72568 0.0
Mg196 Mg 0.71635 0.65419 0.67312 0.0
O197 O 0.73464 0.66638 0.69429 0.0
O198 O 0.75511 0.68548 0.68504 0.0
Mg199 Mg 0.75006 0.68502 0.65795 0.0
C200 C 0.74821 0.67774 0.6965 0.0
C201 C 0.68549 0.64158 0.68568 0.0
O202 O 0.68384 0.64632 0.67179 0.0
O203 O 0.71286 0.67474 0.67344 0.0
O204 O 0.73269 0.6927 0.66231 0.0
O205 O 0.72414 0.63752 0.66707 0.0
O206 O 0.73275 0.66019 0.65727 0.0
C207 C 0.72009 0.68803 0.66821 0.0
C208 C 0.73329 0.64768 0.65815 0.0
O209 O 0.69811 0.64289 0.69012 0.0
Mg210 Mg 0.3232 0.3101 0.72796 0.0
O211 O 0.33451 0.30243 0.70948 0.0
O212 O 0.35173 0.29896 0.72301 0.0
Mg213 Mg 0.3514 0.30414 0.74984 0.0
C214 C 0.34478 0.29882 0.70984 0.0
C215 C 0.3003 0.30833 0.70042 0.0
O216 O 0.29307 0.29386 0.70391 0.0
O217 O 0.34405 0.33441 0.7324 0.0
O218 O 0.3603 0.32982 0.74636 0.0
O219 O 0.30624 0.28513 0.73026 0.0
O220 O 0.32789 0.2986 0.74535 0.0
C221 C 0.35691 0.33912 0.74003 0.0
C222 C 0.31569 0.28552 0.74138 0.0
O223 O 0.31308 0.31776 0.70797 0.0
Mg224 Mg 0.70281 0.04289 0.64982 0.0
O225 O 0.7214 0.04975 0.67032 0.0
O226 O 0.74232 0.05365 0.6597 0.0
Mg227 Mg 0.7366 0.04796 0.63247 0.0
C228 C 0.73524 0.05346 0.67179 0.0
C229 C 0.67161 0.02779 0.66301 0.0
O230 O 0.66774 0.02342 0.64756 0.0
O231 O 0.69905 0.01853 0.64678 0.0
O232 O 0.71967 0.02226 0.63557 0.0
O233 O 0.71083 0.06781 0.64686 0.0
O234 O 0.71878 0.05392 0.63378 0.0
C235 C 0.70694 0.01334 0.64077 0.0
C236 C 0.71961 0.06709 0.63679 0.0
O237 O 0.6855 0.03603 0.668 0.0
Mg238 Mg 0.95591 0.6878 0.72561 0.0
O239 O 0.9385 0.67821 0.70342 0.0
O240 O 0.91592 0.66202 0.7116 0.0
Mg241 Mg 0.91916 0.66017 0.73837 0.0
C242 C 0.92427 0.66901 0.70062 0.0
C243 C 0.98765 0.69918 0.71602 0.0
O244 O 0.98855 0.69619 0.731 0.0
O245 O 0.95572 0.66512 0.72498 0.0
O246 O 0.93335 0.64872 0.73326 0.0
O247 O 0.95104 0.70684 0.73132 0.0
O248 O 0.93909 0.68376 0.74044 0.0
C249 C 0.94602 0.65167 0.72851 0.0
C250 C 0.94049 0.69721 0.73947 0.0
O251 O 0.97523 0.69721 0.70975 0.0
H252 H 0.14685 0.32123 0.04993 0.0
H253 H 0.25125 0.29174 0.17324 0.0
H254 H 0.15618 0.32668 0.14926 0.0
H255 H 0.1378 0.33276 0.13735 0.0
H256 H 0.11245 0.28646 0.11298 0.0
H257 H 0.13091 0.2804 0.12506 0.0
H258 H 0.16792 0.32728 0.11768 0.0
H259 H 0.1601 0.32923 0.09022 0.0
H260 H 0.14997 0.28241 0.07663 0.0
H261 H 0.1576 0.28054 0.10425 0.0
H262 H 0.19675 0.3295 0.12039 0.0
H263 H 0.2153 0.33584 0.10093 0.0
H264 H 0.20841 0.28952 0.10029 0.0
H265 H 0.18971 0.28324 0.11985 0.0
H266 H 0.2132 0.3267 0.15191 0.0
H267 H 0.23725 0.32814 0.1591 0.0
H268 H 0.21336 0.27895 0.16452 0.0
H269 H 0.18942 0.27766 0.15718 0.0
H270 H 0.1935 0.3261 0.18125 0.0
H271 H 0.20301 0.32854 0.20925 0.0
H272 H 0.17962 0.27849 0.20833 0.0
H273 H 0.16969 0.27625 0.18034 0.0
H274 H 0.16392 0.32309 0.17773 0.0
H275 H 0.14945 0.32085 0.20065 0.0
H276 H 0.12432 0.27095 0.19016 0.0
H277 H 0.13895 0.27336 0.16721 0.0
O278 O 0.14995 0.32023 0.06071 0.0
O279 O 0.14521 0.29624 0.05424 0.0
O280 O 0.25365 0.31674 0.16733 0.0
O281 O 0.24191 0.29149 0.17032 0.0
C282 C 0.15793 0.30106 0.14195 0.0
C283 C 0.16738 0.30231 0.12979 0.0
C284 C 0.181 0.30252 0.13367 0.0
C285 C 0.18506 0.30122 0.14965 0.0
C286 C 0.1756 0.29993 0.16175 0.0
C287 C 0.162 0.2997 0.15788 0.0
C288 C 0.14482 0.30307 0.13812 0.0
C289 C 0.14634 0.31764 0.14188 0.0
C290 C 0.13595 0.32116 0.13491 0.0
C291 C 0.12382 0.31013 0.12412 0.0
C292 C 0.12166 0.29514 0.12133 0.0
C293 C 0.13215 0.29165 0.12824 0.0
C294 C 0.16316 0.30371 0.11297 0.0
C295 C 0.16393 0.31743 0.10877 0.0
C296 C 0.1595 0.31853 0.09306 0.0
C297 C 0.15436 0.30596 0.08123 0.0
C298 C 0.15384 0.2923 0.08545 0.0
C299 C 0.15821 0.2912 0.1012 0.0
C300 C 0.19179 0.30588 0.12139 0.0
C301 C 0.19908 0.32065 0.11587 0.0
C302 C 0.20966 0.32424 0.10475 0.0
C303 C 0.21324 0.31314 0.09901 0.0
C304 C 0.20592 0.29832 0.10457 0.0
C305 C 0.19523 0.2947 0.11566 0.0
C306 C 0.19962 0.30207 0.15396 0.0
C307 C 0.21322 0.31625 0.15459 0.0
C308 C 0.22692 0.31704 0.15873 0.0
C309 C 0.22723 0.30365 0.16238 0.0
C310 C 0.21353 0.28947 0.16178 0.0
C311 C 0.19985 0.2887 0.1576 0.0
C312 C 0.181 0.30102 0.17882 0.0
C313 C 0.1904 0.31568 0.18715 0.0
C314 C 0.1959 0.31703 0.2031 0.0
C315 C 0.19222 0.30371 0.21102 0.0
C316 C 0.18258 0.28898 0.20265 0.0
C317 C 0.17697 0.28766 0.18666 0.0
C318 C 0.15229 0.2984 0.17074 0.0
C319 C 0.15511 0.31172 0.18023 0.0
C320 C 0.14686 0.3104 0.19331 0.0
C321 C 0.13574 0.29572 0.19716 0.0
C322 C 0.13289 0.28239 0.18752 0.0
C323 C 0.1411 0.28374 0.17436 0.0
C324 C 0.14956 0.30712 0.06457 0.0
C325 C 0.24175 0.30442 0.16682 0.0
H326 H 0.69684 0.84641 0.07551 0.0
H327 H 0.73648 0.98172 0.1972 0.0
H328 H 0.68554 0.84641 0.16312 0.0
H329 H 0.67718 0.81968 0.1534 0.0
H330 H 0.72174 0.82757 0.16713 0.0
H331 H 0.73013 0.85469 0.17647 0.0
H332 H 0.69106 0.86811 0.13959 0.0
H333 H 0.68925 0.85831 0.11164 0.0
H334 H 0.73419 0.8654 0.11965 0.0
H335 H 0.73589 0.87536 0.14754 0.0
H336 H 0.69191 0.89503 0.158 0.0
H337 H 0.68703 0.90593 0.13461 0.0
H338 H 0.73184 0.9208 0.12127 0.0
H339 H 0.73666 0.9096 0.14484 0.0
H340 H 0.69586 0.90436 0.19299 0.0
H341 H 0.69797 0.92959 0.19922 0.0
H342 H 0.74371 0.95249 0.18596 0.0
H343 H 0.74149 0.92718 0.17995 0.0
H344 H 0.69149 0.87654 0.21112 0.0
H345 H 0.68802 0.88626 0.23696 0.0
H346 H 0.73457 0.92335 0.24145 0.0
H347 H 0.73806 0.91321 0.21566 0.0
H348 H 0.68916 0.84934 0.19937 0.0
H349 H 0.6875 0.83185 0.21944 0.0
H350 H 0.73579 0.8595 0.23125 0.0
H351 H 0.7372 0.87717 0.21145 0.0
O352 O 0.69782 0.8504 0.08659 0.0
O353 O 0.72093 0.85421 0.09134 0.0
O354 O 0.71181 0.95925 0.20162 0.0
O355 O 0.73535 0.97159 0.19487 0.0
C356 C 0.71337 0.86896 0.17485 0.0
C357 C 0.71477 0.87849 0.16251 0.0
C358 C 0.71649 0.89323 0.16628 0.0
C359 C 0.71732 0.89867 0.18245 0.0
C360 C 0.71629 0.88925 0.19489 0.0
C361 C 0.71444 0.87443 0.19106 0.0
C362 C 0.70843 0.85244 0.17043 0.0
C363 C 0.69346 0.84232 0.16414 0.0
C364 C 0.68869 0.82702 0.1587 0.0
C365 C 0.69878 0.82146 0.15952 0.0
C366 C 0.71374 0.83156 0.16619 0.0
C367 C 0.71853 0.84697 0.17163 0.0
C368 C 0.71368 0.87262 0.1455 0.0
C369 C 0.70055 0.86768 0.13523 0.0
C370 C 0.69953 0.86201 0.1193 0.0
C371 C 0.71159 0.8611 0.11339 0.0
C372 C 0.7247 0.86598 0.12379 0.0
C373 C 0.72572 0.87168 0.13972 0.0
C374 C 0.71465 0.90162 0.15313 0.0
C375 C 0.70076 0.90082 0.15017 0.0
C376 C 0.69794 0.90687 0.13674 0.0
C377 C 0.709 0.91395 0.12608 0.0
C378 C 0.72315 0.9153 0.12932 0.0
C379 C 0.72591 0.90901 0.14274 0.0
C380 C 0.71859 0.91397 0.1862 0.0
C381 C 0.70636 0.91485 0.19156 0.0
C382 C 0.70758 0.92927 0.19505 0.0
C383 C 0.72104 0.94307 0.19313 0.0
C384 C 0.73321 0.9421 0.18761 0.0
C385 C 0.73198 0.92767 0.18416 0.0
C386 C 0.71506 0.89408 0.21157 0.0
C387 C 0.70105 0.88651 0.21787 0.0
C388 C 0.69904 0.89222 0.23253 0.0
C389 C 0.71098 0.90568 0.24116 0.0
C390 C 0.72519 0.9129 0.23513 0.0
C391 C 0.7272 0.90715 0.22042 0.0
C392 C 0.71331 0.86445 0.20395 0.0
C393 C 0.69934 0.85166 0.20641 0.0
C394 C 0.69845 0.84164 0.21781 0.0
C395 C 0.71154 0.84418 0.22688 0.0
C396 C 0.72547 0.85728 0.22462 0.0
C397 C 0.72633 0.86735 0.21327 0.0
C398 C 0.71046 0.85504 0.09646 0.0
C399 C 0.72239 0.95842 0.19681 0.0
H400 H 0.15127 0.86659 0.06143 0.0
H401 H 0.26905 0.98077 0.19002 0.0
H402 H 0.13962 0.87314 0.14409 0.0
H403 H 0.11969 0.84737 0.13252 0.0
H404 H 0.14142 0.82673 0.15863 0.0
H405 H 0.16167 0.85255 0.16938 0.0
H406 H 0.16559 0.89971 0.1256 0.0
H407 H 0.15872 0.88917 0.09735 0.0
H408 H 0.16764 0.85266 0.10819 0.0
H409 H 0.17466 0.86343 0.13635 0.0
H410 H 0.19523 0.9297 0.14041 0.0
H411 H 0.21394 0.94194 0.12092 0.0
H412 H 0.22359 0.9047 0.12193 0.0
H413 H 0.20509 0.89269 0.14127 0.0
H414 H 0.19403 0.93597 0.18206 0.0
H415 H 0.21666 0.96134 0.18966 0.0
H416 H 0.24444 0.94208 0.17697 0.0
H417 H 0.22174 0.91677 0.16961 0.0
H418 H 0.17128 0.90935 0.20663 0.0
H419 H 0.18062 0.91669 0.23517 0.0
H420 H 0.21897 0.91188 0.22565 0.0
H421 H 0.209 0.90355 0.19764 0.0
H422 H 0.14215 0.87987 0.18523 0.0
H423 H 0.12755 0.86482 0.20648 0.0
H424 H 0.1637 0.85684 0.22141 0.0
H425 H 0.17816 0.8719 0.20023 0.0
O426 O 0.15407 0.87058 0.07266 0.0
O427 O 0.15874 0.85201 0.07888 0.0
O428 O 0.24514 0.9802 0.19349 0.0
O429 O 0.25993 0.97088 0.1871 0.0
C430 C 0.16558 0.88039 0.16219 0.0
C431 C 0.17468 0.88875 0.15016 0.0
C432 C 0.18816 0.90303 0.15444 0.0
C433 C 0.19241 0.90922 0.17069 0.0
C434 C 0.18363 0.90069 0.18281 0.0
C435 C 0.17016 0.88629 0.17854 0.0
C436 C 0.15211 0.86475 0.15758 0.0
C437 C 0.13993 0.86301 0.14747 0.0
C438 C 0.12852 0.84826 0.14092 0.0
C439 C 0.12903 0.83495 0.14447 0.0
C440 C 0.14083 0.83672 0.15534 0.0
C441 C 0.1523 0.85147 0.16173 0.0
C442 C 0.1705 0.88226 0.13303 0.0
C443 C 0.16606 0.88944 0.12183 0.0
C444 C 0.16213 0.88339 0.10571 0.0
C445 C 0.16259 0.87005 0.10052 0.0
C446 C 0.16713 0.86293 0.11179 0.0
C447 C 0.17109 0.86902 0.12789 0.0
C448 C 0.19884 0.91033 0.14219 0.0
C449 C 0.20137 0.92421 0.13632 0.0
C450 C 0.21199 0.93113 0.12522 0.0
C451 C 0.22029 0.92432 0.12007 0.0
C452 C 0.21753 0.91032 0.12588 0.0
C453 C 0.20689 0.90339 0.1368 0.0
C454 C 0.20624 0.92459 0.17512 0.0
C455 C 0.20502 0.93728 0.18091 0.0
C456 C 0.21796 0.95174 0.18524 0.0
C457 C 0.23237 0.95375 0.18387 0.0
C458 C 0.23353 0.94096 0.17812 0.0
C459 C 0.22058 0.9265 0.17382 0.0
C460 C 0.1895 0.906 0.20001 0.0
C461 C 0.18167 0.90985 0.21079 0.0
C462 C 0.18709 0.91416 0.22707 0.0
C463 C 0.20054 0.91483 0.23281 0.0
C464 C 0.20842 0.91119 0.22183 0.0
C465 C 0.20288 0.90666 0.2057 0.0
C466 C 0.16123 0.87704 0.19127 0.0
C467 C 0.14688 0.87486 0.19312 0.0
C468 C 0.13858 0.86627 0.20524 0.0
C469 C 0.14454 0.85976 0.21571 0.0
C470 C 0.15893 0.86197 0.21376 0.0
C471 C 0.16717 0.87049 0.20163 0.0
C472 C 0.15837 0.86362 0.08339 0.0
C473 C 0.24615 0.96909 0.18846 0.0
H474 H 0.28585 0.15387 0.99033 0.0
H475 H 0.31227 0.0502 0.87343 0.0
H476 H 0.27666 0.15124 0.90603 0.0
H477 H 0.28354 0.17742 0.91698 0.0
H478 H 0.32637 0.1959 0.8969 0.0
H479 H 0.31982 0.16975 0.887 0.0
H480 H 0.27376 0.12216 0.92572 0.0
H481 H 0.2746 0.13196 0.95344 0.0
H482 H 0.31985 0.16995 0.95024 0.0
H483 H 0.31894 0.15991 0.92263 0.0
H484 H 0.27731 0.09188 0.91267 0.0
H485 H 0.28347 0.07975 0.93424 0.0
H486 H 0.32722 0.12135 0.94454 0.0
H487 H 0.32129 0.13291 0.92258 0.0
H488 H 0.27274 0.08635 0.87336 0.0
H489 H 0.27396 0.06284 0.8672 0.0
H490 H 0.32086 0.08745 0.88625 0.0
H491 H 0.31951 0.1109 0.89219 0.0
H492 H 0.27275 0.10693 0.84881 0.0
H493 H 0.275 0.09572 0.823 0.0
H494 H 0.32288 0.11627 0.83586 0.0
H495 H 0.32037 0.12688 0.86169 0.0
H496 H 0.27229 0.14134 0.86464 0.0
H497 H 0.27321 0.15787 0.84366 0.0
H498 H 0.31881 0.16927 0.837 0.0
H499 H 0.31786 0.15295 0.85809 0.0
O500 O 0.28578 0.15018 0.97936 0.0
O501 O 0.30899 0.16954 0.97706 0.0
O502 O 0.28734 0.04719 0.86611 0.0
O503 O 0.31145 0.05929 0.87585 0.0
C504 C 0.29527 0.14268 0.89229 0.0
C505 C 0.29557 0.13434 0.90529 0.0
C506 C 0.29585 0.12046 0.90238 0.0
C507 C 0.29532 0.11463 0.88645 0.0
C508 C 0.29493 0.12289 0.87346 0.0
C509 C 0.29482 0.13686 0.87634 0.0
C510 C 0.29773 0.15857 0.89572 0.0
C511 C 0.2874 0.16101 0.90377 0.0
C512 C 0.29135 0.17598 0.90999 0.0
C513 C 0.30563 0.18874 0.90808 0.0
C514 C 0.31544 0.18631 0.89896 0.0
C515 C 0.3116 0.17137 0.89299 0.0
C516 C 0.29621 0.14042 0.92212 0.0
C517 C 0.28384 0.1326 0.93104 0.0
C518 C 0.28435 0.13823 0.94686 0.0
C519 C 0.29727 0.15177 0.95404 0.0
C520 C 0.30971 0.15952 0.94507 0.0
C521 C 0.30919 0.15385 0.92927 0.0
C522 C 0.29885 0.11328 0.91609 0.0
C523 C 0.28819 0.09833 0.91965 0.0
C524 C 0.29169 0.09149 0.93204 0.0
C525 C 0.30589 0.09954 0.94104 0.0
C526 C 0.3163 0.1147 0.93767 0.0
C527 C 0.31287 0.12141 0.92524 0.0
C528 C 0.296 0.10027 0.8833 0.0
C529 C 0.28325 0.08661 0.87623 0.0
C530 C 0.28398 0.07321 0.87272 0.0
C531 C 0.29752 0.07327 0.87624 0.0
C532 C 0.31026 0.087 0.8834 0.0
C533 C 0.30951 0.10039 0.88687 0.0
C534 C 0.29639 0.11767 0.85707 0.0
C535 C 0.28372 0.10912 0.8459 0.0
C536 C 0.28505 0.10277 0.83117 0.0
C537 C 0.29911 0.10494 0.82741 0.0
C538 C 0.31184 0.11406 0.83848 0.0
C539 C 0.31047 0.12027 0.85318 0.0
C540 C 0.29496 0.14585 0.86278 0.0
C541 C 0.2824 0.14728 0.8585 0.0
C542 C 0.28293 0.15666 0.8465 0.0
C543 C 0.29609 0.16488 0.83872 0.0
C544 C 0.30856 0.16319 0.84288 0.0
C545 C 0.30798 0.15375 0.85479 0.0
C546 C 0.29776 0.15775 0.97083 0.0
C547 C 0.29839 0.05911 0.87241 0.0
H548 H 0.83733 0.14818 0.00281 0.0
H549 H 0.7438 0.02873 0.8636 0.0
H550 H 0.84323 0.15645 0.91773 0.0
H551 H 0.86504 0.18025 0.93058 0.0
H552 H 0.89362 0.16122 0.92111 0.0
H553 H 0.87153 0.13726 0.90817 0.0
H554 H 0.81844 0.13457 0.93382 0.0
H555 H 0.82335 0.14178 0.96285 0.0
H556 H 0.85521 0.12572 0.96526 0.0
H557 H 0.85006 0.11838 0.93623 0.0
H558 H 0.79302 0.1129 0.90782 0.0
H559 H 0.77235 0.1026 0.92488 0.0
H560 H 0.79151 0.07848 0.94895 0.0
H561 H 0.81248 0.08925 0.93192 0.0
H562 H 0.79263 0.10507 0.87264 0.0
H563 H 0.76846 0.08303 0.861 0.0
H564 H 0.77897 0.05181 0.88455 0.0
H565 H 0.8032 0.07395 0.89594 0.0
H566 H 0.82249 0.13004 0.85933 0.0
H567 H 0.81389 0.12209 0.83075 0.0
H568 H 0.8118 0.07844 0.83604 0.0
H569 H 0.821 0.0867 0.86457 0.0
H570 H 0.84743 0.15564 0.88314 0.0
H571 H 0.86374 0.17151 0.86361 0.0
H572 H 0.87199 0.13461 0.84874 0.0
H573 H 0.85612 0.11902 0.86899 0.0
O574 O 0.83549 0.14516 0.99136 0.0
O575 O 0.85182 0.13681 0.99193 0.0
O576 O 0.74848 0.0542 0.8561 0.0
O577 O 0.7533 0.03766 0.86804 0.0
C578 C 0.84214 0.1304 0.9052 0.0
C579 C 0.83093 0.12152 0.91531 0.0
C580 C 0.81695 0.10889 0.90858 0.0
C581 C 0.81449 0.10444 0.89189 0.0
C582 C 0.82581 0.11304 0.88176 0.0
C583 C 0.83958 0.12618 0.88841 0.0
C584 C 0.85577 0.14507 0.91218 0.0
C585 C 0.85419 0.15738 0.91848 0.0
C586 C 0.86665 0.17094 0.92588 0.0
C587 C 0.88102 0.17253 0.92708 0.0
C588 C 0.88268 0.16033 0.92036 0.0
C589 C 0.87012 0.14666 0.91299 0.0
C590 C 0.83377 0.12579 0.93297 0.0
C591 C 0.82636 0.13247 0.94067 0.0
C592 C 0.82924 0.13665 0.95724 0.0
C593 C 0.83965 0.1343 0.96639 0.0
C594 C 0.84711 0.12766 0.95858 0.0
C595 C 0.84419 0.12346 0.94201 0.0
C596 C 0.80416 0.10173 0.9186 0.0
C597 C 0.79266 0.10526 0.91668 0.0
C598 C 0.78083 0.0993 0.92639 0.0
C599 C 0.78021 0.08962 0.93822 0.0
C600 C 0.79173 0.08601 0.94005 0.0
C601 C 0.80364 0.09204 0.9303 0.0
C602 C 0.79971 0.09108 0.885 0.0
C603 C 0.78972 0.09345 0.87518 0.0
C604 C 0.77591 0.08085 0.8686 0.0
C605 C 0.7718 0.06564 0.87182 0.0
C606 C 0.78179 0.06335 0.8818 0.0
C607 C 0.79562 0.07597 0.88834 0.0
C608 C 0.82249 0.109 0.86405 0.0
C609 C 0.82065 0.11897 0.85424 0.0
C610 C 0.81567 0.1144 0.83794 0.0
C611 C 0.81214 0.09964 0.83125 0.0
C612 C 0.81438 0.08984 0.84096 0.0
C613 C 0.81966 0.09456 0.8572 0.0
C614 C 0.85068 0.13623 0.87758 0.0
C615 C 0.85304 0.15112 0.87595 0.0
C616 C 0.86218 0.16007 0.8646 0.0
C617 C 0.86898 0.15422 0.85445 0.0
C618 C 0.86697 0.13947 0.85643 0.0
C619 C 0.85789 0.13054 0.86793 0.0
C620 C 0.84273 0.1388 0.98399 0.0
C621 C 0.75715 0.05221 0.86482 0.0
H622 H 0.87149 0.70352 0.02125 0.0
H623 H 0.74401 0.69453 0.91302 0.0
H624 H 0.87521 0.72321 0.94243 0.0
H625 H 0.89473 0.71737 0.95077 0.0
H626 H 0.87205 0.67501 0.91872 0.0
H627 H 0.85214 0.68058 0.91115 0.0
H628 H 0.85054 0.72194 0.96483 0.0
H629 H 0.85985 0.71824 0.99078 0.0
H630 H 0.85014 0.67281 0.97155 0.0
H631 H 0.84071 0.6766 0.94575 0.0
H632 H 0.81897 0.72172 0.95185 0.0
H633 H 0.79863 0.71389 0.96941 0.0
H634 H 0.79175 0.66748 0.9663 0.0
H635 H 0.81152 0.67522 0.94813 0.0
H636 H 0.819 0.73006 0.91493 0.0
H637 H 0.7958 0.73113 0.91181 0.0
H638 H 0.7697 0.6821 0.91764 0.0
H639 H 0.79295 0.68115 0.9205 0.0
H640 H 0.84185 0.73107 0.88868 0.0
H641 H 0.83271 0.73157 0.86114 0.0
H642 H 0.79645 0.68416 0.8616 0.0
H643 H 0.80556 0.68386 0.88901 0.0
H644 H 0.87121 0.72933 0.90293 0.0
H645 H 0.8833 0.73213 0.87797 0.0
H646 H 0.84573 0.68766 0.85794 0.0
H647 H 0.8344 0.6846 0.88321 0.0
O648 O 0.86748 0.70462 0.011 0.0
O649 O 0.86158 0.68105 0.00078 0.0
O650 O 0.76724 0.71947 0.91062 0.0
O651 O 0.75334 0.69439 0.914 0.0
C652 C 0.84866 0.70392 0.92425 0.0
C653 C 0.8401 0.70223 0.93747 0.0
C654 C 0.82664 0.7027 0.93546 0.0
C655 C 0.82182 0.70509 0.9203 0.0
C656 C 0.83024 0.70662 0.9071 0.0
C657 C 0.84362 0.70593 0.90903 0.0
C658 C 0.86219 0.70227 0.92628 0.0
C659 C 0.87465 0.71284 0.93696 0.0
C660 C 0.88584 0.7095 0.94166 0.0
C661 C 0.88489 0.6956 0.93558 0.0
C662 C 0.87298 0.68565 0.92391 0.0
C663 C 0.8617 0.68892 0.91937 0.0
C664 C 0.84504 0.69959 0.95341 0.0
C665 C 0.85034 0.71116 0.9663 0.0
C666 C 0.8557 0.70903 0.98108 0.0
C667 C 0.8558 0.69525 0.98322 0.0
C668 C 0.85025 0.68357 0.97031 0.0
C669 C 0.84488 0.68571 0.95555 0.0
C670 C 0.81666 0.69902 0.94866 0.0
C671 C 0.81322 0.70994 0.95521 0.0
C672 C 0.80163 0.70545 0.96528 0.0
C673 C 0.79341 0.68999 0.96907 0.0
C674 C 0.79763 0.67938 0.96333 0.0
C675 C 0.80908 0.68384 0.95314 0.0
C676 C 0.80766 0.70556 0.91807 0.0
C677 C 0.80825 0.71956 0.91546 0.0
C678 C 0.79499 0.72014 0.91372 0.0
C679 C 0.78089 0.70671 0.91455 0.0
C680 C 0.78036 0.69266 0.91699 0.0
C681 C 0.79362 0.69209 0.91867 0.0
C682 C 0.82428 0.70748 0.89086 0.0
C683 C 0.83185 0.72088 0.88283 0.0
C684 C 0.82668 0.7211 0.8671 0.0
C685 C 0.81381 0.70792 0.85921 0.0
C686 C 0.80621 0.6946 0.86742 0.0
C687 C 0.81139 0.69439 0.88308 0.0
C688 C 0.85191 0.7068 0.89483 0.0
C689 C 0.86582 0.72008 0.89324 0.0
C690 C 0.87256 0.72174 0.87887 0.0
C691 C 0.86543 0.71021 0.86581 0.0
C692 C 0.85169 0.69671 0.86773 0.0
C693 C 0.84512 0.69496 0.88215 0.0
C694 C 0.86175 0.69315 0.99883 0.0
C695 C 0.76679 0.7073 0.91292 0.0
H696 H 0.82997 0.65892 0.3728 0.0
H697 H 0.91633 0.62377 0.49918 0.0
H698 H 0.82656 0.66197 0.4587 0.0
H699 H 0.80645 0.66551 0.44676 0.0
H700 H 0.77376 0.61793 0.45286 0.0
H701 H 0.79412 0.61428 0.46449 0.0
H702 H 0.85059 0.66232 0.44021 0.0
H703 H 0.84556 0.6653 0.41213 0.0
H704 H 0.80748 0.61836 0.40649 0.0
H705 H 0.81277 0.61547 0.43454 0.0
H706 H 0.87597 0.66244 0.4627 0.0
H707 H 0.89555 0.66739 0.44484 0.0
H708 H 0.86606 0.62286 0.41794 0.0
H709 H 0.84647 0.61793 0.43604 0.0
H710 H 0.87496 0.65791 0.49782 0.0
H711 H 0.89796 0.65817 0.50734 0.0
H712 H 0.88141 0.61358 0.4804 0.0
H713 H 0.85839 0.6134 0.47114 0.0
H714 H 0.84594 0.65626 0.51262 0.0
H715 H 0.85368 0.65789 0.54112 0.0
H716 H 0.85173 0.61389 0.53331 0.0
H717 H 0.84352 0.61209 0.50476 0.0
H718 H 0.81937 0.65424 0.49552 0.0
H719 H 0.80457 0.65172 0.51824 0.0
H720 H 0.79534 0.60482 0.52107 0.0
H721 H 0.81015 0.60744 0.49835 0.0
O722 O 0.83184 0.65744 0.38384 0.0
O723 O 0.81231 0.63329 0.38161 0.0
O724 O 0.9153 0.64683 0.50933 0.0
O725 O 0.90734 0.62396 0.49561 0.0
C726 C 0.8245 0.63551 0.46752 0.0
C727 C 0.83498 0.63692 0.45652 0.0
C728 C 0.84822 0.63691 0.46189 0.0
C729 C 0.85094 0.63537 0.47821 0.0
C730 C 0.84041 0.63378 0.48915 0.0
C731 C 0.82698 0.63341 0.4837 0.0
C732 C 0.81183 0.63781 0.46226 0.0
C733 C 0.81505 0.65232 0.45757 0.0
C734 C 0.80359 0.65433 0.45076 0.0
C735 C 0.78863 0.64195 0.44879 0.0
C736 C 0.78523 0.62764 0.4543 0.0
C737 C 0.7968 0.62555 0.46092 0.0
C738 C 0.83212 0.63864 0.43936 0.0
C739 C 0.84127 0.65264 0.43284 0.0
C740 C 0.83832 0.65434 0.41682 0.0
C741 C 0.82612 0.64206 0.40705 0.0
C742 C 0.81698 0.62804 0.41367 0.0
C743 C 0.81997 0.62635 0.42968 0.0
C744 C 0.85987 0.63978 0.45074 0.0
C745 C 0.87378 0.65371 0.45302 0.0
C746 C 0.88495 0.65649 0.44285 0.0
C747 C 0.88236 0.64546 0.43008 0.0
C748 C 0.86831 0.63159 0.42764 0.0
C749 C 0.85716 0.62875 0.43796 0.0
C750 C 0.86498 0.63559 0.48387 0.0
C751 C 0.8763 0.64818 0.49406 0.0
C752 C 0.88944 0.64831 0.49944 0.0
C753 C 0.89152 0.63588 0.49464 0.0
C754 C 0.88017 0.62333 0.48434 0.0
C755 C 0.86702 0.6232 0.47901 0.0
C756 C 0.84413 0.63404 0.50662 0.0
C757 C 0.84687 0.6468 0.51711 0.0
C758 C 0.85128 0.64773 0.53337 0.0
C759 C 0.8533 0.63602 0.53939 0.0
C760 C 0.85032 0.62311 0.52893 0.0
C761 C 0.84565 0.62206 0.51268 0.0
C762 C 0.81578 0.63101 0.49528 0.0
C763 C 0.81377 0.64327 0.50074 0.0
C764 C 0.80536 0.64182 0.51374 0.0
C765 C 0.79892 0.62811 0.52151 0.0
C766 C 0.80035 0.61558 0.51546 0.0
C767 C 0.80867 0.61701 0.50242 0.0
C768 C 0.82296 0.64394 0.39007 0.0
C769 C 0.90545 0.63595 0.50033 0.0
H770 H 0.36549 0.18296 0.39959 0.0
H771 H 0.39058 0.30815 0.52712 0.0
H772 H 0.35293 0.17602 0.48286 0.0
H773 H 0.34892 0.15059 0.47319 0.0
H774 H 0.39226 0.16274 0.49666 0.0
H775 H 0.39663 0.18868 0.5058 0.0
H776 H 0.35474 0.19874 0.46392 0.0
H777 H 0.35495 0.19112 0.43571 0.0
H778 H 0.40096 0.20172 0.44545 0.0
H779 H 0.40067 0.20951 0.47361 0.0
H780 H 0.35089 0.22159 0.48637 0.0
H781 H 0.34337 0.23282 0.4653 0.0
H782 H 0.38777 0.25287 0.44873 0.0
H783 H 0.39534 0.24158 0.47023 0.0
H784 H 0.35555 0.23075 0.52073 0.0
H785 H 0.35553 0.25469 0.52832 0.0
H786 H 0.40054 0.28152 0.51369 0.0
H787 H 0.40049 0.25748 0.50636 0.0
H788 H 0.35443 0.20431 0.538 0.0
H789 H 0.351 0.21375 0.56412 0.0
H790 H 0.39662 0.25262 0.56722 0.0
H791 H 0.40002 0.24295 0.54114 0.0
H792 H 0.35458 0.17589 0.52047 0.0
H793 H 0.35335 0.15879 0.5407 0.0
H794 H 0.3982 0.19358 0.56124 0.0
H795 H 0.39956 0.2103 0.54037 0.0
O796 O 0.36569 0.18611 0.41078 0.0
O797 O 0.38931 0.19166 0.41644 0.0
O798 O 0.36719 0.28417 0.53168 0.0
O799 O 0.3903 0.2985 0.52425 0.0
C800 C 0.37756 0.19991 0.49986 0.0
C801 C 0.37769 0.20944 0.48795 0.0
C802 C 0.37744 0.22311 0.49236 0.0
C803 C 0.3782 0.22789 0.50873 0.0
C804 C 0.37848 0.21862 0.52073 0.0
C805 C 0.37799 0.20451 0.5163 0.0
C806 C 0.37518 0.18431 0.4948 0.0
C807 C 0.36168 0.17333 0.48575 0.0
C808 C 0.35938 0.15885 0.48027 0.0
C809 C 0.37038 0.15494 0.48407 0.0
C810 C 0.38372 0.16567 0.49353 0.0
C811 C 0.38618 0.18037 0.49876 0.0
C812 C 0.37776 0.20487 0.47076 0.0
C813 C 0.36491 0.19958 0.4599 0.0
C814 C 0.36503 0.19515 0.44381 0.0
C815 C 0.37799 0.19585 0.43831 0.0
C816 C 0.39081 0.20107 0.44927 0.0
C817 C 0.39068 0.20553 0.46536 0.0
C818 C 0.37366 0.23085 0.47986 0.0
C819 C 0.35905 0.2285 0.47828 0.0
C820 C 0.35472 0.23476 0.46611 0.0
C821 C 0.36492 0.24351 0.45522 0.0
C822 C 0.3797 0.24613 0.45696 0.0
C823 C 0.38402 0.23973 0.46918 0.0
C824 C 0.37809 0.24241 0.51319 0.0
C825 C 0.36544 0.24182 0.5193 0.0
C826 C 0.36543 0.2555 0.52356 0.0
C827 C 0.37806 0.27003 0.52166 0.0
C828 C 0.39066 0.27054 0.51536 0.0
C829 C 0.39065 0.25684 0.51115 0.0
C830 C 0.37748 0.22293 0.5377 0.0
C831 C 0.36381 0.21464 0.54451 0.0
C832 C 0.36181 0.22014 0.55933 0.0
C833 C 0.37349 0.23401 0.56762 0.0
C834 C 0.38745 0.24185 0.56116 0.0
C835 C 0.38942 0.23636 0.54628 0.0
C836 C 0.37722 0.19427 0.52883 0.0
C837 C 0.36419 0.17975 0.52924 0.0
C838 C 0.36345 0.17007 0.54096 0.0
C839 C 0.37567 0.17481 0.55266 0.0
C840 C 0.38867 0.18946 0.55229 0.0
C841 C 0.38944 0.19909 0.54046 0.0
C842 C 0.37806 0.1911 0.42121 0.0
C843 C 0.37813 0.28461 0.52618 0.0
H844 H 0.81205 0.19565 0.38384 0.0
H845 H 0.94163 0.29637 0.50911 0.0
H846 H 0.80577 0.20037 0.46857 0.0
H847 H 0.78299 0.17537 0.45954 0.0
H848 H 0.80406 0.15145 0.47999 0.0
H849 H 0.82668 0.17636 0.48882 0.0
H850 H 0.8332 0.22696 0.44901 0.0
H851 H 0.82397 0.2176 0.42074 0.0
H852 H 0.82756 0.17699 0.42723 0.0
H853 H 0.83694 0.18658 0.45542 0.0
H854 H 0.8667 0.25561 0.46559 0.0
H855 H 0.88618 0.26794 0.44703 0.0
H856 H 0.88693 0.22535 0.43891 0.0
H857 H 0.86775 0.21327 0.45754 0.0
H858 H 0.86651 0.26022 0.50515 0.0
H859 H 0.89111 0.28364 0.51248 0.0
H860 H 0.91307 0.25911 0.49566 0.0
H861 H 0.88842 0.23572 0.48859 0.0
H862 H 0.84109 0.23476 0.52792 0.0
H863 H 0.85084 0.24215 0.55626 0.0
H864 H 0.88664 0.23302 0.5467 0.0
H865 H 0.87602 0.22445 0.51885 0.0
H866 H 0.81215 0.20939 0.50964 0.0
H867 H 0.79695 0.19467 0.53064 0.0
H868 H 0.82692 0.17677 0.53919 0.0
H869 H 0.84237 0.19219 0.51883 0.0
O870 O 0.81578 0.19917 0.39505 0.0
O871 O 0.81777 0.17848 0.39904 0.0
O872 O 0.91993 0.29932 0.51496 0.0
O873 O 0.93177 0.28727 0.50636 0.0
C874 C 0.83216 0.20514 0.4837 0.0
C875 C 0.84112 0.21314 0.47146 0.0
C876 C 0.85548 0.2265 0.47554 0.0
C877 C 0.86069 0.23214 0.49187 0.0
C878 C 0.85174 0.22413 0.50413 0.0
C879 C 0.83747 0.21066 0.50001 0.0
C880 C 0.81783 0.19018 0.47946 0.0
C881 C 0.80536 0.18971 0.47124 0.0
C882 C 0.79241 0.17545 0.46604 0.0
C883 C 0.79173 0.16144 0.46909 0.0
C884 C 0.80413 0.16201 0.47769 0.0
C885 C 0.81707 0.17624 0.48275 0.0
C886 C 0.83562 0.20739 0.45428 0.0
C887 C 0.832 0.21606 0.44429 0.0
C888 C 0.82672 0.21067 0.42815 0.0
C889 C 0.82498 0.19652 0.42173 0.0
C890 C 0.82872 0.18791 0.4318 0.0
C891 C 0.83403 0.19333 0.44791 0.0
C892 C 0.86579 0.23353 0.46287 0.0
C893 C 0.87096 0.24892 0.45962 0.0
C894 C 0.88209 0.25594 0.4491 0.0
C895 C 0.88805 0.24759 0.44153 0.0
C896 C 0.8824 0.232 0.44437 0.0
C897 C 0.87144 0.22508 0.455 0.0
C898 C 0.87568 0.24632 0.49623 0.0
C899 C 0.87665 0.25993 0.50307 0.0
C900 C 0.89071 0.27329 0.50723 0.0
C901 C 0.90406 0.27326 0.50461 0.0
C902 C 0.90302 0.25955 0.4978 0.0
C903 C 0.88896 0.24619 0.49369 0.0
C904 C 0.85786 0.22911 0.5213 0.0
C905 C 0.85095 0.23423 0.53204 0.0
C906 C 0.85666 0.23861 0.54821 0.0
C907 C 0.86958 0.23822 0.55389 0.0
C908 C 0.87652 0.2332 0.54296 0.0
C909 C 0.8706 0.22852 0.52692 0.0
C910 C 0.82834 0.20185 0.51281 0.0
C911 C 0.81543 0.20236 0.51619 0.0
C912 C 0.80673 0.19386 0.52812 0.0
C913 C 0.81068 0.1845 0.53668 0.0
C914 C 0.82368 0.18409 0.53316 0.0
C915 C 0.83248 0.19277 0.52142 0.0
C916 C 0.8193 0.19079 0.40461 0.0
C917 C 0.91903 0.28742 0.50898 0.0
H918 H 0.98307 0.51209 0.32013 0.0
H919 H 0.0003 0.39633 0.21178 0.0
H920 H 0.96272 0.49423 0.23597 0.0
H921 H 0.96522 0.51889 0.24626 0.0
H922 H 0.00844 0.54371 0.22715 0.0
H923 H 0.00584 0.51905 0.21695 0.0
H924 H 0.96686 0.47286 0.25942 0.0
H925 H 0.9697 0.48575 0.28619 0.0
H926 H 0.01335 0.5233 0.27679 0.0
H927 H 0.01047 0.51017 0.25018 0.0
H928 H 0.96694 0.44238 0.24548 0.0
H929 H 0.97239 0.42903 0.26614 0.0
H930 H 0.01848 0.46718 0.27358 0.0
H931 H 0.0128 0.48051 0.25322 0.0
H932 H 0.96284 0.43445 0.20573 0.0
H933 H 0.96328 0.41029 0.20173 0.0
H934 H 0.01009 0.43456 0.22105 0.0
H935 H 0.00955 0.45866 0.22475 0.0
H936 H 0.96215 0.45769 0.17959 0.0
H937 H 0.96268 0.4459 0.15339 0.0
H938 H 0.00807 0.45632 0.16762 0.0
H939 H 0.00776 0.46903 0.19307 0.0
H940 H 0.95887 0.4857 0.19708 0.0
H941 H 0.95669 0.50029 0.17562 0.0
H942 H 0.00188 0.51375 0.16455 0.0
H943 H 0.00404 0.49935 0.18626 0.0
O944 O 0.98229 0.50705 0.30961 0.0
O945 O 0.00452 0.5262 0.30402 0.0
O946 O 0.97581 0.39383 0.2031 0.0
O947 O -0.00017 0.40574 0.21314 0.0
C948 C 0.98426 0.49018 0.22292 0.0
C949 C 0.98635 0.4832 0.23629 0.0
C950 C 0.98685 0.46944 0.23389 0.0
C951 C 0.98573 0.46288 0.21811 0.0
C952 C 0.98435 0.47024 0.2047 0.0
C953 C 0.98331 0.48375 0.20711 0.0
C954 C 0.98412 0.50488 0.22576 0.0
C955 C 0.97252 0.50502 0.23364 0.0
C956 C 0.97402 0.51909 0.23961 0.0
C957 C 0.98709 0.53322 0.23766 0.0
C958 C 0.99817 0.53303 0.22873 0.0
C959 C 0.9967 0.51896 0.22285 0.0
C960 C 0.98843 0.49061 0.25286 0.0
C961 C 0.97708 0.48379 0.26324 0.0
C962 C 0.97871 0.49122 0.27849 0.0
C963 C 0.99173 0.50559 0.28361 0.0
C964 C 0.00317 0.51227 0.27322 0.0
C965 C 0.00155 0.5048 0.25802 0.0
C966 C 0.9895 0.46235 0.24785 0.0
C967 C 0.97812 0.44794 0.25183 0.0
C968 C 0.98128 0.44032 0.26355 0.0
C969 C 0.99591 0.44698 0.27143 0.0
C970 C 0.00706 0.4618 0.26793 0.0
C971 C 0.00387 0.46942 0.25625 0.0
C972 C 0.98612 0.44827 0.21563 0.0
C973 C 0.97318 0.43452 0.20905 0.0
C974 C 0.97346 0.42074 0.20681 0.0
C975 C 0.98672 0.42048 0.21112 0.0
C976 C 0.99969 0.43433 0.21764 0.0
C977 C 0.9994 0.44811 0.21983 0.0
C978 C 0.98488 0.46414 0.18828 0.0
C979 C 0.97229 0.45768 0.17686 0.0
C980 C 0.97257 0.45076 0.16197 0.0
C981 C 0.98538 0.44999 0.15832 0.0
C982 C 0.99808 0.45686 0.16975 0.0
C983 C 0.99788 0.464 0.18444 0.0
C984 C 0.9816 0.49148 0.19321 0.0
C985 C 0.96823 0.49168 0.1899 0.0
C986 C 0.96697 0.49994 0.17759 0.0
C987 C 0.97912 0.50818 0.1684 0.0
C988 C 0.99238 0.50763 0.17152 0.0
C989 C 0.99361 0.49933 0.18382 0.0
C990 C 0.99329 0.51361 0.29968 0.0
C991 C 0.98706 0.40586 0.20885 0.0
H992 H 0.49606 0.48168 0.33799 0.0
H993 H 0.41052 0.36082 0.19763 0.0
H994 H 0.5028 0.4926 0.25318 0.0
H995 H 0.52429 0.51699 0.26546 0.0
H996 H 0.55408 0.49964 0.2551 0.0
H997 H 0.53238 0.47526 0.24252 0.0
H998 H 0.47767 0.46813 0.2689 0.0
H999 H 0.48211 0.47497 0.298 0.0
H1000 H 0.51743 0.46361 0.30004 0.0
H1001 H 0.51273 0.45661 0.27095 0.0
H1002 H 0.45229 0.44372 0.24361 0.0
H1003 H 0.43254 0.43111 0.26148 0.0
H1004 H 0.45779 0.41256 0.28464 0.0
H1005 H 0.4777 0.42547 0.26667 0.0
H1006 H 0.45216 0.43814 0.20898 0.0
H1007 H 0.42912 0.41466 0.19735 0.0
H1008 H 0.44543 0.38654 0.2179 0.0
H1009 H 0.4685 0.41013 0.22929 0.0
H1010 H 0.479 0.46531 0.19635 0.0
H1011 H 0.46974 0.45796 0.16785 0.0
H1012 H 0.47642 0.41873 0.16877 0.0
H1013 H 0.48587 0.4263 0.19731 0.0
H1014 H 0.50601 0.49249 0.21853 0.0
H1015 H 0.52235 0.50978 0.19985 0.0
H1016 H 0.53317 0.47504 0.18377 0.0
H1017 H 0.51737 0.45813 0.20322 0.0
O1018 O 0.49447 0.47889 0.3265 0.0
O1019 O 0.51268 0.47312 0.32687 0.0
O1020 O 0.41168 0.38528 0.19172 0.0
O1021 O 0.41952 0.3703 0.20207 0.0
C1022 C 0.50273 0.46726 0.24004 0.0
C1023 C 0.49206 0.45754 0.25019 0.0
C1024 C 0.47863 0.44413 0.2435 0.0
C1025 C 0.47613 0.44006 0.22674 0.0
C1026 C 0.48678 0.44975 0.21656 0.0
C1027 C 0.50006 0.46341 0.2232 0.0
C1028 C 0.51604 0.48215 0.24706 0.0
C1029 C 0.51397 0.49406 0.2536 0.0
C1030 C 0.52626 0.50795 0.2607 0.0
C1031 C 0.54091 0.51022 0.26143 0.0
C1032 C 0.54297 0.4983 0.25465 0.0
C1033 C 0.53061 0.48437 0.2475 0.0
C1034 C 0.49478 0.46174 0.26786 0.0
C1035 C 0.48628 0.46702 0.27568 0.0
C1036 C 0.48888 0.47097 0.29229 0.0
C1037 C 0.50011 0.46981 0.30136 0.0
C1038 C 0.50868 0.46461 0.29343 0.0
C1039 C 0.50603 0.46061 0.27682 0.0
C1040 C 0.46635 0.43541 0.25379 0.0
C1041 C 0.45345 0.43673 0.25238 0.0
C1042 C 0.44216 0.42948 0.26258 0.0
C1043 C 0.44355 0.42075 0.27443 0.0
C1044 C 0.45645 0.41929 0.2757 0.0
C1045 C 0.46777 0.42657 0.26543 0.0
C1046 C 0.46205 0.42581 0.21983 0.0
C1047 C 0.45077 0.42689 0.21086 0.0
C1048 C 0.4376 0.41347 0.20428 0.0
C1049 C 0.43544 0.39871 0.20667 0.0
C1050 C 0.44674 0.39771 0.2158 0.0
C1051 C 0.45992 0.41115 0.22234 0.0
C1052 C 0.48312 0.44634 0.19886 0.0
C1053 C 0.47876 0.45532 0.19031 0.0
C1054 C 0.47334 0.45102 0.1741 0.0
C1055 C 0.47223 0.43769 0.16614 0.0
C1056 C 0.47724 0.4291 0.17457 0.0
C1057 C 0.4826 0.43338 0.19084 0.0
C1058 C 0.51063 0.47413 0.21236 0.0
C1059 C 0.51214 0.48874 0.2112 0.0
C1060 C 0.52132 0.49851 0.20033 0.0
C1061 C 0.52899 0.49375 0.19018 0.0
C1062 C 0.52756 0.47914 0.19151 0.0
C1063 C 0.51849 0.46943 0.20254 0.0
C1064 C 0.50285 0.47402 0.319 0.0
C1065 C 0.42149 0.3844 0.19968 0.0
H1066 H 0.51148 0.01013 0.35264 0.0
H1067 H 0.39024 0.98434 0.22232 0.0
H1068 H 0.52325 0.02686 0.26816 0.0
H1069 H 0.54505 0.02547 0.27888 0.0
H1070 H 0.52339 0.97759 0.25871 0.0
H1071 H 0.50205 0.97943 0.24747 0.0
H1072 H 0.49628 0.02383 0.28962 0.0
H1073 H 0.50346 0.02242 0.31757 0.0
H1074 H 0.49474 0.97595 0.305 0.0
H1075 H 0.48743 0.97747 0.27715 0.0
H1076 H 0.46703 0.0228 0.27203 0.0
H1077 H 0.44886 0.01952 0.29132 0.0
H1078 H 0.4384 0.97226 0.29477 0.0
H1079 H 0.45672 0.97575 0.27563 0.0
H1080 H 0.46539 0.02529 0.23442 0.0
H1081 H 0.44154 0.02392 0.22632 0.0
H1082 H 0.41729 0.97555 0.23528 0.0
H1083 H 0.44124 0.97704 0.24315 0.0
H1084 H 0.48999 0.02835 0.21435 0.0
H1085 H 0.4805 0.02903 0.1871 0.0
H1086 H 0.44877 0.97969 0.18462 0.0
H1087 H 0.45812 0.97926 0.21196 0.0
H1088 H 0.51915 0.03079 0.2325 0.0
H1089 H 0.53566 0.03527 0.21102 0.0
H1090 H 0.50699 0.98744 0.19141 0.0
H1091 H 0.49039 0.98325 0.21273 0.0
O1092 O 0.50852 0.01042 0.34155 0.0
O1093 O 0.50396 0.9866 0.33444 0.0
O1094 O 0.41284 0.01006 0.22089 0.0
O1095 O 0.39983 0.98521 0.22549 0.0
C1096 C 0.49705 0.00336 0.25257 0.0
C1097 C 0.48725 0.00179 0.26442 0.0
C1098 C 0.47355 0.00126 0.26014 0.0
C1099 C 0.46954 0.00209 0.24398 0.0
C1100 C 0.47931 0.00359 0.23213 0.0
C1101 C 0.49315 0.00444 0.23646 0.0
C1102 C 0.51111 0.00325 0.25707 0.0
C1103 C 0.52342 0.01621 0.26578 0.0
C1104 C 0.53578 0.01531 0.27204 0.0
C1105 C 0.53595 0.00134 0.26987 0.0
C1106 C 0.52381 0.98859 0.26049 0.0
C1107 C 0.51155 0.98958 0.25408 0.0
C1108 C 0.4914 0.00078 0.28139 0.0
C1109 C 0.49588 0.01335 0.29296 0.0
C1110 C 0.5 0.01251 0.3089 0.0
C1111 C 0.49971 0.99908 0.31352 0.0
C1112 C 0.49513 0.98647 0.30185 0.0
C1113 C 0.49098 0.98732 0.28594 0.0
C1114 C 0.46318 0.99953 0.27249 0.0
C1115 C 0.46086 0.01179 0.27705 0.0
C1116 C 0.45042 0.00985 0.28797 0.0
C1117 C 0.44215 0.99561 0.29453 0.0
C1118 C 0.44472 0.98343 0.29009 0.0
C1119 C 0.45514 0.98538 0.27916 0.0
C1120 C 0.45502 0.00127 0.23937 0.0
C1121 C 0.45491 0.01441 0.23459 0.0
C1122 C 0.44128 0.0136 0.22999 0.0
C1123 C 0.4275 0.99962 0.23015 0.0
C1124 C 0.42768 0.98649 0.23502 0.0
C1125 C 0.44133 0.98731 0.23957 0.0
C1126 C 0.47468 0.00377 0.21509 0.0
C1127 C 0.48111 0.01768 0.2078 0.0
C1128 C 0.4757 0.01802 0.19223 0.0
C1129 C 0.46378 0.00443 0.18372 0.0
C1130 C 0.45775 0.99042 0.19094 0.0
C1131 C 0.46314 0.99011 0.20649 0.0
C1132 C 0.50363 0.00671 0.22412 0.0
C1133 C 0.51654 0.02129 0.2236 0.0
C1134 C 0.52595 0.0238 0.21135 0.0
C1135 C 0.52261 0.01173 0.19944 0.0
C1136 C 0.50974 0.99706 0.20021 0.0
C1137 C 0.50032 0.99458 0.21244 0.0
C1138 C 0.50417 0.99826 0.33044 0.0
C1139 C 0.41299 0.99868 0.22523 0.0
H1140 H 0.51199 0.02028 0.71963 0.0
H1141 H 0.59442 0.97776 0.84604 0.0
H1142 H 0.5092 0.02356 0.80592 0.0
H1143 H 0.48917 0.02679 0.79315 0.0
H1144 H 0.45688 0.97865 0.79768 0.0
H1145 H 0.47709 0.97551 0.81049 0.0
H1146 H 0.53339 0.02273 0.78653 0.0
H1147 H 0.52815 0.02604 0.75862 0.0
H1148 H 0.48898 0.97979 0.7533 0.0
H1149 H 0.49447 0.97657 0.78116 0.0
H1150 H 0.5583 0.02078 0.80631 0.0
H1151 H 0.57626 0.02306 0.78722 0.0
H1152 H 0.54385 0.97729 0.76449 0.0
H1153 H 0.52586 0.97527 0.78353 0.0
H1154 H 0.55801 0.01707 0.84254 0.0
H1155 H 0.58006 0.01562 0.85223 0.0
H1156 H 0.56014 0.96967 0.82723 0.0
H1157 H 0.53806 0.9712 0.81781 0.0
H1158 H 0.53337 0.01687 0.85982 0.0
H1159 H 0.54248 0.01646 0.88723 0.0
H1160 H 0.52862 0.96804 0.87679 0.0
H1161 H 0.52017 0.96887 0.84916 0.0
H1162 H 0.50422 0.01709 0.84225 0.0
H1163 H 0.48763 0.01502 0.86298 0.0
H1164 H 0.47565 0.96729 0.86636 0.0
H1165 H 0.4917 0.9693 0.84514 0.0
O1166 O 0.51395 0.01867 0.73059 0.0
O1167 O 0.49378 0.99493 0.72858 0.0
O1168 O 0.59546 0.0022 0.85519 0.0
O1169 O 0.58587 0.97867 0.8423 0.0
C1170 C 0.50728 0.99695 0.81422 0.0
C1171 C 0.51727 0.99758 0.80293 0.0
C1172 C 0.53005 0.9966 0.80794 0.0
C1173 C 0.53283 0.99492 0.82418 0.0
C1174 C 0.52271 0.99396 0.83537 0.0
C1175 C 0.50983 0.99479 0.83038 0.0
C1176 C 0.49461 0.99928 0.80901 0.0
C1177 C 0.49775 0.01378 0.8044 0.0
C1178 C 0.48633 0.01557 0.79704 0.0
C1179 C 0.47151 0.00292 0.79424 0.0
C1180 C 0.46819 0.98861 0.79975 0.0
C1181 C 0.47969 0.9868 0.80705 0.0
C1182 C 0.51435 0.99939 0.78583 0.0
C1183 C 0.52377 0.01328 0.77927 0.0
C1184 C 0.52071 0.01516 0.76334 0.0
C1185 C 0.50813 0.00318 0.75373 0.0
C1186 C 0.49875 0.98925 0.76037 0.0
C1187 C 0.50186 0.98737 0.77627 0.0
C1188 C 0.54083 0.99786 0.79629 0.0
C1189 C 0.55513 0.01125 0.79722 0.0
C1190 C 0.56538 0.01248 0.78636 0.0
C1191 C 0.56151 0.00032 0.77437 0.0
C1192 C 0.54712 0.98692 0.77346 0.0
C1193 C 0.53686 0.98571 0.78434 0.0
C1194 C 0.54644 0.99421 0.82954 0.0
C1195 C 0.55843 0.00669 0.8392 0.0
C1196 C 0.57101 0.00584 0.8447 0.0
C1197 C 0.57185 0.9925 0.84053 0.0
C1198 C 0.55985 0.98009 0.83068 0.0
C1199 C 0.54725 0.98095 0.82524 0.0
C1200 C 0.52617 0.99292 0.85255 0.0
C1201 C 0.53212 0.00613 0.86357 0.0
C1202 C 0.53726 0.00583 0.87926 0.0
C1203 C 0.5364 0.99223 0.88426 0.0
C1204 C 0.52977 0.9788 0.8733 0.0
C1205 C 0.52479 0.97918 0.85755 0.0
C1206 C 0.49911 0.99334 0.84218 0.0
C1207 C 0.49781 0.00614 0.84731 0.0
C1208 C 0.48847 0.00497 0.85928 0.0
C1209 C 0.48038 0.99101 0.86642 0.0
C1210 C 0.48156 0.97814 0.86101 0.0
C1211 C 0.4908 0.97929 0.84896 0.0
C1212 C 0.50481 0.00528 0.73688 0.0
C1213 C 0.58513 0.99148 0.84647 0.0
H1214 H 0.98001 0.48597 0.74289 0.0
H1215 H 0.02449 0.62629 0.85983 0.0
H1216 H 0.98573 0.49096 0.8315 0.0
H1217 H 0.98178 0.46582 0.82113 0.0
H1218 H 0.0299 0.4841 0.82742 0.0
H1219 H 0.03373 0.50949 0.83745 0.0
H1220 H 0.98285 0.5115 0.80843 0.0
H1221 H 0.97724 0.49965 0.78068 0.0
H1222 H 0.02371 0.51146 0.77979 0.0
H1223 H 0.0292 0.52342 0.80749 0.0
H1224 H 0.98411 0.53984 0.82711 0.0
H1225 H 0.97571 0.55031 0.8059 0.0
H1226 H 0.0171 0.56438 0.7839 0.0
H1227 H 0.02557 0.5541 0.80552 0.0
H1228 H 0.99314 0.54986 0.86318 0.0
H1229 H 0.99321 0.57399 0.86996 0.0
H1230 H 0.03325 0.59905 0.84528 0.0
H1231 H 0.03316 0.57487 0.83878 0.0
H1232 H 0.99781 0.52656 0.88305 0.0
H1233 H 0.99976 0.53976 0.90936 0.0
H1234 H 0.04162 0.57929 0.89907 0.0
H1235 H 0.03988 0.56581 0.87296 0.0
H1236 H 0.99365 0.49848 0.86716 0.0
H1237 H 0.99693 0.48292 0.88669 0.0
H1238 H 0.04509 0.51489 0.89145 0.0
H1239 H 0.04157 0.53061 0.87214 0.0
O1240 O 0.9825 0.4908 0.75382 0.0
O1241 O 0.0065 0.4971 0.754 0.0
O1242 O 0.00371 0.60319 0.87002 0.0
O1243 O 0.0242 0.61659 0.85733 0.0
C1244 C 0.01218 0.51763 0.83921 0.0
C1245 C 0.0098 0.52539 0.82683 0.0
C1246 C 0.01008 0.53942 0.83061 0.0
C1247 C 0.01328 0.54602 0.84672 0.0
C1248 C 0.01609 0.53847 0.85913 0.0
C1249 C 0.01536 0.52416 0.85535 0.0
C1250 C 0.00999 0.50199 0.83518 0.0
C1251 C 0.99539 0.48945 0.83086 0.0
C1252 C 0.99317 0.47508 0.82501 0.0
C1253 C 0.00553 0.47295 0.82342 0.0
C1254 C 0.02016 0.48543 0.82833 0.0
C1255 C 0.02237 0.49986 0.8342 0.0
C1256 C 0.00645 0.51841 0.8099 0.0
C1257 C 0.99182 0.51162 0.80216 0.0
C1258 C 0.98864 0.50481 0.78634 0.0
C1259 C 4e-05 0.50462 0.77801 0.0
C1260 C 0.01469 0.51142 0.78585 0.0
C1261 C 0.01785 0.51826 0.80166 0.0
C1262 C 0.00547 0.54633 0.81789 0.0
C1263 C 0.9914 0.54528 0.81777 0.0
C1264 C 0.98655 0.55108 0.80553 0.0
C1265 C 0.99568 0.55802 0.79313 0.0
C1266 C 0.00985 0.55915 0.79332 0.0
C1267 C 0.0147 0.55329 0.80561 0.0
C1268 C 0.0132 0.56065 0.85059 0.0
C1269 C 0.00195 0.56059 0.85932 0.0
C1270 C 0.002 0.57438 0.86314 0.0
C1271 C 0.01326 0.58846 0.85818 0.0
C1272 C 0.02444 0.58842 0.8493 0.0
C1273 C 0.0244 0.57463 0.84554 0.0
C1274 C 0.01873 0.54519 0.8761 0.0
C1275 C 0.00768 0.53782 0.8867 0.0
C1276 C 0.00875 0.54541 0.90167 0.0
C1277 C 0.02077 0.56058 0.90614 0.0
C1278 C 0.03218 0.56765 0.89582 0.0
C1279 C 0.03124 0.55995 0.88099 0.0
C1280 C 0.01738 0.51561 0.86823 0.0
C1281 C 0.00488 0.50219 0.87256 0.0
C1282 C 0.0068 0.49327 0.88363 0.0
C1283 C 0.0213 0.49756 0.8905 0.0
C1284 C 0.03377 0.51133 0.88649 0.0
C1285 C 0.03181 0.52029 0.87544 0.0
C1286 C 0.9966 0.4973 0.76123 0.0
C1287 C 0.01338 0.60315 0.86223 0.0
H1288 H 0.48822 0.52213 0.72522 0.0
H1289 H 0.61336 0.62918 0.85348 0.0
H1290 H 0.47949 0.53171 0.8073 0.0
H1291 H 0.45822 0.50656 0.79603 0.0
H1292 H 0.47687 0.48339 0.8228 0.0
H1293 H 0.49844 0.50851 0.83321 0.0
H1294 H 0.50695 0.55687 0.78886 0.0
H1295 H 0.4988 0.546 0.76078 0.0
H1296 H 0.50311 0.50664 0.77178 0.0
H1297 H 0.51142 0.51775 0.79977 0.0
H1298 H 0.53872 0.58579 0.80475 0.0
H1299 H 0.55879 0.59736 0.78669 0.0
H1300 H 0.56266 0.55631 0.78546 0.0
H1301 H 0.54287 0.54501 0.80363 0.0
H1302 H 0.53819 0.59305 0.84396 0.0
H1303 H 0.56253 0.61676 0.85146 0.0
H1304 H 0.58531 0.59136 0.84125 0.0
H1305 H 0.5609 0.56772 0.83398 0.0
H1306 H 0.51404 0.57115 0.867 0.0
H1307 H 0.52445 0.58185 0.89486 0.0
H1308 H 0.55595 0.56556 0.89104 0.0
H1309 H 0.54572 0.55529 0.86323 0.0
H1310 H 0.4821 0.5387 0.84842 0.0
H1311 H 0.46638 0.52343 0.86894 0.0
H1312 H 0.50077 0.51309 0.88455 0.0
H1313 H 0.51609 0.52788 0.86375 0.0
O1314 O 0.49161 0.5263 0.73635 0.0
O1315 O 0.49397 0.50629 0.74265 0.0
O1316 O 0.59133 0.63248 0.85581 0.0
O1317 O 0.60359 0.61998 0.85062 0.0
C1318 C 0.50475 0.53702 0.82553 0.0
C1319 C 0.51428 0.54457 0.81345 0.0
C1320 C 0.52846 0.55808 0.81767 0.0
C1321 C 0.53297 0.56438 0.83387 0.0
C1322 C 0.5236 0.55678 0.84597 0.0
C1323 C 0.50952 0.54306 0.84183 0.0
C1324 C 0.49053 0.52197 0.82107 0.0
C1325 C 0.47884 0.52118 0.81089 0.0
C1326 C 0.46666 0.50679 0.80451 0.0
C1327 C 0.46591 0.49292 0.80834 0.0
C1328 C 0.47724 0.49382 0.8193 0.0
C1329 C 0.48947 0.50818 0.8255 0.0
C1330 C 0.50966 0.53804 0.79635 0.0
C1331 C 0.50618 0.54594 0.78515 0.0
C1332 C 0.5015 0.53968 0.76913 0.0
C1333 C 0.50024 0.52541 0.76404 0.0
C1334 C 0.50391 0.51762 0.7753 0.0
C1335 C 0.50862 0.52391 0.7913 0.0
C1336 C 0.53936 0.56457 0.80545 0.0
C1337 C 0.54381 0.57927 0.8004 0.0
C1338 C 0.55522 0.58582 0.79009 0.0
C1339 C 0.56235 0.57777 0.78479 0.0
C1340 C 0.55751 0.56287 0.78953 0.0
C1341 C 0.54612 0.55633 0.79976 0.0
C1342 C 0.5478 0.57873 0.83831 0.0
C1343 C 0.54846 0.59265 0.84336 0.0
C1344 C 0.56237 0.60617 0.84762 0.0
C1345 C 0.57588 0.60597 0.84691 0.0
C1346 C 0.57514 0.59194 0.8419 0.0
C1347 C 0.56122 0.57843 0.83768 0.0
C1348 C 0.52922 0.56257 0.8631 0.0
C1349 C 0.52316 0.56988 0.87226 0.0
C1350 C 0.52908 0.57593 0.88817 0.0
C1351 C 0.54115 0.5747 0.89515 0.0
C1352 C 0.54691 0.56703 0.88596 0.0
C1353 C 0.54103 0.56106 0.8701 0.0
C1354 C 0.50024 0.53445 0.85467 0.0
C1355 C 0.48621 0.53316 0.85633 0.0
C1356 C 0.47732 0.52454 0.86811 0.0
C1357 C 0.48233 0.51704 0.87835 0.0
C1358 C 0.49651 0.51857 0.87674 0.0
C1359 C 0.50534 0.52713 0.86497 0.0
C1360 C 0.4951 0.51871 0.74706 0.0
C1361 C 0.59069 0.6203 0.85139 0.0
H1362 H 0.63106 0.82511 0.66109 0.0
H1363 H 0.64462 0.71123 0.54592 0.0
H1364 H 0.61743 0.81799 0.57767 0.0
H1365 H 0.62502 0.84452 0.58797 0.0
H1366 H 0.66638 0.86165 0.56507 0.0
H1367 H 0.65918 0.83513 0.55588 0.0
H1368 H 0.61482 0.79005 0.59777 0.0
H1369 H 0.61745 0.80137 0.62529 0.0
H1370 H 0.66297 0.83725 0.61912 0.0
H1371 H 0.66025 0.8257 0.59171 0.0
H1372 H 0.61509 0.75855 0.58439 0.0
H1373 H 0.62106 0.74498 0.60443 0.0
H1374 H 0.66707 0.78333 0.61134 0.0
H1375 H 0.66095 0.79674 0.59156 0.0
H1376 H 0.60933 0.75174 0.54524 0.0
H1377 H 0.60864 0.72709 0.5399 0.0
H1378 H 0.65602 0.7497 0.55661 0.0
H1379 H 0.65658 0.77429 0.56171 0.0
H1380 H 0.6097 0.7724 0.52018 0.0
H1381 H 0.61043 0.76054 0.49402 0.0
H1382 H 0.65821 0.77872 0.50502 0.0
H1383 H 0.65717 0.78997 0.53119 0.0
H1384 H 0.61118 0.80755 0.53656 0.0
H1385 H 0.61143 0.8234 0.51518 0.0
H1386 H 0.65563 0.83226 0.50527 0.0
H1387 H 0.65541 0.8167 0.52687 0.0
O1388 O 0.63033 0.82073 0.65023 0.0
O1389 O 0.65362 0.83898 0.6464 0.0
O1390 O 0.62029 0.70979 0.5392 0.0
O1391 O 0.64458 0.72081 0.54789 0.0
C1392 C 0.63488 0.80854 0.56282 0.0
C1393 C 0.63545 0.8004 0.57589 0.0
C1394 C 0.63477 0.78603 0.57299 0.0
C1395 C 0.63331 0.77967 0.55706 0.0
C1396 C 0.63284 0.78782 0.54401 0.0
C1397 C 0.63348 0.80218 0.54685 0.0
C1398 C 0.63776 0.8246 0.56606 0.0
C1399 C 0.62801 0.82753 0.57469 0.0
C1400 C 0.63236 0.84271 0.58051 0.0
C1401 C 0.64644 0.85523 0.57759 0.0
C1402 C 0.65564 0.85228 0.56792 0.0
C1403 C 0.65141 0.83712 0.56238 0.0
C1404 C 0.63729 0.80713 0.59272 0.0
C1405 C 0.62536 0.80032 0.60242 0.0
C1406 C 0.62689 0.80683 0.61811 0.0
C1407 C 0.6404 0.82026 0.62438 0.0
C1408 C 0.6524 0.82694 0.61466 0.0
C1409 C 0.65087 0.82039 0.59899 0.0
C1410 C 0.63758 0.77862 0.58657 0.0
C1411 C 0.62636 0.76409 0.5905 0.0
C1412 C 0.62981 0.75636 0.60187 0.0
C1413 C 0.64455 0.76307 0.60947 0.0
C1414 C 0.65555 0.77794 0.60596 0.0
C1415 C 0.6521 0.78562 0.59461 0.0
C1416 C 0.63297 0.76474 0.55395 0.0
C1417 C 0.61954 0.75133 0.54773 0.0
C1418 C 0.61918 0.73728 0.5447 0.0
C1419 C 0.63228 0.73642 0.54787 0.0
C1420 C 0.64573 0.74994 0.55407 0.0
C1421 C 0.64608 0.76399 0.55704 0.0
C1422 C 0.63337 0.78198 0.52753 0.0
C1423 C 0.62031 0.7739 0.5168 0.0
C1424 C 0.62078 0.76718 0.50187 0.0
C1425 C 0.63436 0.76853 0.49747 0.0
C1426 C 0.6475 0.77713 0.50813 0.0
C1427 C 0.64698 0.7837 0.52303 0.0
C1428 C 0.63322 0.81088 0.53317 0.0
C1429 C 0.62084 0.8128 0.52965 0.0
C1430 C 0.62097 0.82179 0.5174 0.0
C1431 C 0.63355 0.82907 0.50854 0.0
C1432 C 0.64584 0.8269 0.51196 0.0
C1433 C 0.64567 0.8179 0.52418 0.0
C1434 C 0.64191 0.82726 0.64099 0.0
C1435 C 0.63196 0.72152 0.5447 0.0
H1436 H 0.1708 0.81214 0.68516 0.0
H1437 H 0.07482 0.69864 0.54387 0.0
H1438 H 0.17378 0.82609 0.60309 0.0
H1439 H 0.19646 0.84995 0.61462 0.0
H1440 H 0.22418 0.83418 0.59338 0.0
H1441 H 0.20136 0.80978 0.58252 0.0
H1442 H 0.14863 0.80216 0.61721 0.0
H1443 H 0.15474 0.80755 0.64636 0.0
H1444 H 0.18893 0.79487 0.64278 0.0
H1445 H 0.18256 0.78932 0.61365 0.0
H1446 H 0.12246 0.78117 0.59157 0.0
H1447 H 0.10212 0.76747 0.6085 0.0
H1448 H 0.12469 0.74433 0.62728 0.0
H1449 H 0.14526 0.7584 0.61032 0.0
H1450 H 0.12059 0.77548 0.55593 0.0
H1451 H 0.09649 0.75304 0.54475 0.0
H1452 H 0.11072 0.72239 0.56296 0.0
H1453 H 0.13484 0.74495 0.57392 0.0
H1454 H 0.14766 0.80117 0.54193 0.0
H1455 H 0.13861 0.79437 0.51333 0.0
H1456 H 0.14308 0.75375 0.51395 0.0
H1457 H 0.15232 0.76077 0.54254 0.0
H1458 H 0.17668 0.82801 0.56469 0.0
H1459 H 0.19248 0.84442 0.54493 0.0
H1460 H 0.19913 0.8073 0.52677 0.0
H1461 H 0.18367 0.79107 0.54688 0.0
O1462 O 0.16852 0.80988 0.67361 0.0
O1463 O 0.18604 0.80336 0.67111 0.0
O1464 O 0.07751 0.72398 0.53897 0.0
O1465 O 0.08427 0.70772 0.54814 0.0
C1466 C 0.1719 0.80157 0.58526 0.0
C1467 C 0.16138 0.79191 0.59562 0.0
C1468 C 0.14735 0.77916 0.58912 0.0
C1469 C 0.14416 0.77545 0.57232 0.0
C1470 C 0.15472 0.78485 0.56194 0.0
C1471 C 0.16854 0.79802 0.56837 0.0
C1472 C 0.18587 0.81605 0.59213 0.0
C1473 C 0.18472 0.82758 0.60119 0.0
C1474 C 0.19765 0.8412 0.60773 0.0
C1475 C 0.21199 0.84375 0.60498 0.0
C1476 C 0.21321 0.83238 0.5957 0.0
C1477 C 0.20023 0.81852 0.58948 0.0
C1478 C 0.16505 0.7952 0.61334 0.0
C1479 C 0.15733 0.80041 0.62277 0.0
C1480 C 0.1609 0.80356 0.6394 0.0
C1481 C 0.17231 0.80161 0.64691 0.0
C1482 C 0.18007 0.79646 0.63739 0.0
C1483 C 0.17646 0.79329 0.62076 0.0
C1484 C 0.13525 0.77069 0.59967 0.0
C1485 C 0.12298 0.77309 0.59929 0.0
C1486 C 0.11134 0.76518 0.60891 0.0
C1487 C 0.1117 0.75467 0.6191 0.0
C1488 C 0.12413 0.7524 0.6196 0.0
C1489 C 0.13583 0.76036 0.60992 0.0
C1490 C 0.12949 0.76182 0.56561 0.0
C1491 C 0.11851 0.76391 0.55739 0.0
C1492 C 0.10474 0.75107 0.55107 0.0
C1493 C 0.10169 0.73591 0.55294 0.0
C1494 C 0.11271 0.7339 0.56129 0.0
C1495 C 0.12649 0.74675 0.56757 0.0
C1496 C 0.15066 0.78147 0.54428 0.0
C1497 C 0.14691 0.79095 0.53581 0.0
C1498 C 0.14163 0.78697 0.51954 0.0
C1499 C 0.14005 0.77347 0.51144 0.0
C1500 C 0.14429 0.76428 0.51984 0.0
C1501 C 0.14951 0.76823 0.53615 0.0
C1502 C 0.17907 0.80836 0.55726 0.0
C1503 C 0.18179 0.82353 0.55666 0.0
C1504 C 0.19077 0.83286 0.54537 0.0
C1505 C 0.19694 0.82707 0.53431 0.0
C1506 C 0.19438 0.81196 0.53508 0.0
C1507 C 0.18562 0.80273 0.54655 0.0
C1508 C 0.17608 0.80499 0.66459 0.0
C1509 C 0.08708 0.72223 0.54625 0.0
H1510 H 0.20697 0.37496 0.69075 0.0
H1511 H 0.08028 0.367 0.57983 0.0
H1512 H 0.20887 0.388 0.61016 0.0
H1513 H 0.22762 0.38112 0.61863 0.0
H1514 H 0.20176 0.3371 0.58958 0.0
H1515 H 0.18266 0.34376 0.58195 0.0
H1516 H 0.18588 0.39077 0.63243 0.0
H1517 H 0.1956 0.38841 0.65881 0.0
H1518 H 0.18259 0.34102 0.64342 0.0
H1519 H 0.17274 0.34347 0.61717 0.0
H1520 H 0.15575 0.39263 0.61891 0.0
H1521 H 0.13765 0.38866 0.63861 0.0
H1522 H 0.12682 0.34107 0.63958 0.0
H1523 H 0.14468 0.34504 0.61981 0.0
H1524 H 0.15483 0.39793 0.58143 0.0
H1525 H 0.13257 0.40059 0.57746 0.0
H1526 H 0.10425 0.35277 0.58698 0.0
H1527 H 0.12658 0.35022 0.59073 0.0
H1528 H 0.17615 0.39607 0.55656 0.0
H1529 H 0.167 0.3965 0.52903 0.0
H1530 H 0.12945 0.34992 0.53049 0.0
H1531 H 0.13851 0.34979 0.55801 0.0
H1532 H 0.20393 0.39243 0.56989 0.0
H1533 H 0.21536 0.39245 0.54496 0.0
H1534 H 0.17728 0.34699 0.5289 0.0
H1535 H 0.16596 0.34714 0.55379 0.0
O1536 O 0.20274 0.37552 0.68037 0.0
O1537 O 0.19567 0.35116 0.67192 0.0
O1538 O 0.1043 0.39073 0.57631 0.0
O1539 O 0.08926 0.36625 0.58126 0.0
C1540 C 0.18148 0.36907 0.59326 0.0
C1541 C 0.1736 0.36913 0.60659 0.0
C1542 C 0.16075 0.37069 0.60439 0.0
C1543 C 0.15589 0.37242 0.58892 0.0
C1544 C 0.16371 0.37231 0.57566 0.0
C1545 C 0.17643 0.37052 0.57779 0.0
C1546 C 0.19435 0.36635 0.59553 0.0
C1547 C 0.20742 0.37699 0.60541 0.0
C1548 C 0.21817 0.37305 0.61016 0.0
C1549 C 0.21614 0.35845 0.60494 0.0
C1550 C 0.20354 0.34829 0.5941 0.0
C1551 C 0.19271 0.35217 0.58952 0.0
C1552 C 0.17869 0.36733 0.62287 0.0
C1553 C 0.18503 0.37985 0.63484 0.0
C1554 C 0.19062 0.37849 0.64987 0.0
C1555 C 0.18996 0.36455 0.6532 0.0
C1556 C 0.18333 0.35193 0.64124 0.0
C1557 C 0.17771 0.3533 0.62624 0.0
C1558 C 0.15153 0.36913 0.61795 0.0
C1559 C 0.14961 0.38143 0.62358 0.0
C1560 C 0.13925 0.37913 0.63474 0.0
C1561 C 0.13082 0.36455 0.64059 0.0
C1562 C 0.13329 0.35248 0.63545 0.0
C1563 C 0.1435 0.35473 0.62417 0.0
C1564 C 0.14231 0.37392 0.58645 0.0
C1565 C 0.1438 0.38804 0.58261 0.0
C1566 C 0.13107 0.38953 0.58037 0.0
C1567 C 0.11662 0.37689 0.58194 0.0
C1568 C 0.1152 0.36273 0.58572 0.0
C1569 C 0.12793 0.36125 0.5879 0.0
C1570 C 0.15792 0.37294 0.55926 0.0
C1571 C 0.16589 0.38604 0.55092 0.0
C1572 C 0.1607 0.38621 0.53518 0.0
C1573 C 0.14746 0.37325 0.52757 0.0
C1574 C 0.13951 0.3602 0.53608 0.0
C1575 C 0.14468 0.36007 0.55178 0.0
C1576 C 0.18413 0.3698 0.56359 0.0
C1577 C 0.1982 0.38241 0.56106 0.0
C1578 C 0.20467 0.3824 0.54682 0.0
C1579 C 0.19714 0.36978 0.5349 0.0
C1580 C 0.18322 0.357 0.53771 0.0
C1581 C 0.1768 0.357 0.55196 0.0
C1582 C 0.19625 0.36327 0.66903 0.0
C1583 C 0.10307 0.37844 0.57965 0.0
H1584 H 0.01754 0.38665 0.04215 0.0
H1585 H 0.01417 0.39893 0.06626 0.0
H1586 H 0.96695 0.37881 0.05031 0.0
H1587 H 0.97055 0.36727 0.02562 0.0
H1588 H 0.9765 0.40637 0.06093 0.0
H1589 H 0.9812 0.36611 0.08301 0.0
H1590 H 0.99227 0.34979 0.0884 0.0
H1591 H 0.03261 0.38966 0.1112 0.0
H1592 H 0.02187 0.40627 0.10575 0.0
H1593 H 0.96174 0.42369 0.14158 0.0
H1594 H 0.96232 0.40926 0.11734 0.0
H1595 H 0.00971 0.44197 0.11669 0.0
H1596 H 0.00915 0.45709 0.14026 0.0
H1597 H 0.99819 0.40654 0.11538 0.0
H1598 H 0.99211 0.44639 0.0909 0.0
H1599 H 0.97907 0.46101 0.08639 0.0
H1600 H 0.93826 0.41865 0.0693 0.0
H1601 H 0.95102 0.40375 0.07395 0.0
C1602 C 0.0064 0.38468 0.04388 0.0
C1603 C 0.99429 0.37593 0.03203 0.0
C1604 C 0.00445 0.39166 0.05774 0.0
C1605 C 0.99023 0.38962 0.06034 0.0
C1606 C 0.97804 0.3806 0.04863 0.0
C1607 C 0.98008 0.37394 0.03455 0.0
C1608 C 0.98829 0.39753 0.07486 0.0
C1609 C 0.98103 0.40613 0.07284 0.0
C1610 C 0.99427 0.39742 0.0905 0.0
C1611 C 0.00077 0.38746 0.09385 0.0
C1612 C 0.99247 0.37142 0.08908 0.0
C1613 C 0.99868 0.36211 0.09216 0.0
C1614 C 0.01314 0.36869 0.1001 0.0
C1615 C 0.02141 0.38458 0.10503 0.0
C1616 C 0.01526 0.39395 0.10197 0.0
C1617 C 0.97224 0.42808 0.13612 0.0
C1618 C 0.98543 0.44159 0.14303 0.0
C1619 C 0.97255 0.4197 0.12234 0.0
C1620 C 0.98608 0.42453 0.11536 0.0
C1621 C 0.9992 0.43802 0.12204 0.0
C1622 C 0.99885 0.44658 0.1356 0.0
C1623 C 0.98664 0.41536 0.10124 0.0
C1624 C 0.9936 0.40656 0.10341 0.0
C1625 C 0.9801 0.41498 0.08584 0.0
C1626 C 0.97246 0.42395 0.08296 0.0
C1627 C 0.98032 0.44018 0.08635 0.0
C1628 C 0.97299 0.44852 0.08373 0.0
C1629 C 0.95783 0.44076 0.07761 0.0
C1630 C 0.94999 0.42464 0.07406 0.0
C1631 C 0.95727 0.41625 0.07668 0.0
H1632 H 0.95217 0.44723 0.07559 0.0
H1633 H 0.01793 0.36146 0.10247 0.0
H1634 H 0.59525 0.60154 0.09872 0.0
H1635 H 0.57852 0.57964 0.11304 0.0
H1636 H 0.61071 0.56411 0.11415 0.0
H1637 H 0.62734 0.58587 0.09929 0.0
H1638 H 0.5828 0.53977 0.11071 0.0
H1639 H 0.6098 0.58632 0.14629 0.0
H1640 H 0.61933 0.61374 0.15569 0.0
H1641 H 0.57394 0.60417 0.15776 0.0
H1642 H 0.56413 0.57672 0.14814 0.0
H1643 H 0.55622 0.49879 0.1812 0.0
H1644 H 0.57164 0.51638 0.16199 0.0
H1645 H 0.53827 0.52965 0.15304 0.0
H1646 H 0.52258 0.51178 0.17175 0.0
H1647 H 0.56772 0.55473 0.16085 0.0
H1648 H 0.54124 0.50728 0.12536 0.0
H1649 H 0.53283 0.47993 0.11689 0.0
H1650 H 0.5789 0.49134 0.11631 0.0
H1651 H 0.58759 0.51873 0.12501 0.0
C1652 C 0.59872 0.59342 0.10188 0.0
C1653 C 0.61272 0.59557 0.0982 0.0
C1654 C 0.58914 0.58088 0.11006 0.0
C1655 C 0.59357 0.5705 0.11508 0.0
C1656 C 0.60712 0.57205 0.11051 0.0
C1657 C 0.61661 0.58447 0.10204 0.0
C1658 C 0.58452 0.55875 0.12601 0.0
C1659 C 0.57965 0.54306 0.12177 0.0
C1660 C 0.58037 0.56302 0.14043 0.0
C1661 C 0.58623 0.5795 0.14636 0.0
C1662 C 0.60185 0.59008 0.14865 0.0
C1663 C 0.6073 0.60563 0.15403 0.0
C1664 C 0.59725 0.6107 0.15728 0.0
C1665 C 0.58172 0.60023 0.15521 0.0
C1666 C 0.5762 0.58467 0.14981 0.0
C1667 C 0.55203 0.50524 0.17494 0.0
C1668 C 0.5382 0.50396 0.17813 0.0
C1669 C 0.56088 0.51531 0.16401 0.0
C1670 C 0.55606 0.52427 0.15612 0.0
C1671 C 0.5422 0.52286 0.15909 0.0
C1672 C 0.53331 0.51273 0.16988 0.0
C1673 C 0.56576 0.53576 0.1454 0.0
C1674 C 0.57086 0.55145 0.14978 0.0
C1675 C 0.57028 0.53148 0.13129 0.0
C1676 C 0.56507 0.51503 0.12601 0.0
C1677 C 0.54958 0.50393 0.12357 0.0
C1678 C 0.54477 0.48843 0.1187 0.0
C1679 C 0.55533 0.48389 0.11611 0.0
C1680 C 0.57073 0.49487 0.11835 0.0
C1681 C 0.57561 0.51038 0.12323 0.0
H1682 H 0.55158 0.47189 0.11234 0.0
H1683 H 0.60149 0.62274 0.16144 0.0
H1684 H 0.42647 0.02537 0.04147 0.0
H1685 H 0.43793 0.02507 0.06766 0.0
H1686 H 0.39447 0.99009 0.08021 0.0
H1687 H 0.38283 0.99027 0.054 0.0
H1688 H 0.41089 0.01398 0.10475 0.0
H1689 H 0.41836 0.97943 0.06929 0.0
H1690 H 0.4267 0.97197 0.04507 0.0
H1691 H 0.47228 0.00846 0.05908 0.0
H1692 H 0.46416 0.01629 0.08329 0.0
H1693 H 0.43402 0.98945 0.17225 0.0
H1694 H 0.42312 0.99037 0.14603 0.0
H1695 H 0.46759 0.02198 0.13281 0.0
H1696 H 0.47867 0.02059 0.15886 0.0
H1697 H 0.45105 0.00045 0.1085 0.0
H1698 H 0.44415 0.03499 0.14395 0.0
H1699 H 0.43619 0.043 0.16814 0.0
H1700 H 0.3902 0.00756 0.15417 0.0
H1701 H 0.39791 0.99918 0.13 0.0
C1702 C 0.4193 0.01763 0.04979 0.0
C1703 C 0.40371 0.00779 0.04559 0.0
C1704 C 0.4259 0.01744 0.06474 0.0
C1705 C 0.41706 0.00746 0.0758 0.0
C1706 C 0.40147 0.99785 0.07181 0.0
C1707 C 0.39486 0.99794 0.05681 0.0
C1708 C 0.42413 0.00697 0.09148 0.0
C1709 C 0.41954 0.01083 0.1056 0.0
C1710 C 0.4357 0.00329 0.09252 0.0
C1711 C 0.44062 0.99855 0.07802 0.0
C1712 C 0.43014 0.98595 0.06714 0.0
C1713 C 0.43483 0.98164 0.05343 0.0
C1714 C 0.45 0.98976 0.05052 0.0
C1715 C 0.46052 0.00219 0.06134 0.0
C1716 C 0.45588 0.00656 0.07507 0.0
C1717 C 0.44152 0.99644 0.16371 0.0
C1718 C 0.45723 0.00494 0.16766 0.0
C1719 C 0.43525 0.9971 0.14878 0.0
C1720 C 0.44452 0.00643 0.13755 0.0
C1721 C 0.46022 0.01477 0.14134 0.0
C1722 C 0.46652 0.01406 0.15627 0.0
C1723 C 0.43778 0.0074 0.12184 0.0
C1724 C 0.44244 0.00364 0.10769 0.0
C1725 C 0.42633 0.01128 0.12077 0.0
C1726 C 0.42163 0.01637 0.13523 0.0
C1727 C 0.43235 0.02883 0.14609 0.0
C1728 C 0.42789 0.03345 0.15979 0.0
C1729 C 0.41271 0.02577 0.16271 0.0
C1730 C 0.40196 0.01348 0.1519 0.0
C1731 C 0.40637 0.0088 0.13819 0.0
H1732 H 0.40927 0.02936 0.17333 0.0
H1733 H 0.45361 0.98641 0.03989 0.0
H1734 H 0.38254 0.96205 0.96884 0.0
H1735 H 0.39982 0.96181 0.9501 0.0
H1736 H 0.43027 0.0108 0.96314 0.0
H1737 H 0.41284 0.01116 0.9814 0.0
H1738 H 0.42571 0.00566 0.93237 0.0
H1739 H 0.43821 0.98192 0.9739 0.0
H1740 H 0.43331 0.96291 0.99362 0.0
H1741 H 0.41397 0.92584 0.95555 0.0
H1742 H 0.41856 0.9446 0.93561 0.0
H1743 H 0.48688 0.01296 0.89137 0.0
H1744 H 0.47132 0.01139 0.91296 0.0
H1745 H 0.43747 0.96502 0.89361 0.0
H1746 H 0.45277 0.96661 0.87167 0.0
H1747 H 0.44399 0.96842 0.92754 0.0
H1748 H 0.43141 0.99291 0.88633 0.0
H1749 H 0.43711 0.01244 0.86703 0.0
H1750 H 0.45775 0.04892 0.9057 0.0
H1751 H 0.45236 0.02961 0.92521 0.0
C1752 C 0.39304 0.97271 0.96789 0.0
C1753 C 0.39627 0.98667 0.97645 0.0
C1754 C 0.40294 0.97255 0.95721 0.0
C1755 C 0.41638 0.98629 0.95522 0.0
C1756 C 0.41991 8e-05 0.96436 0.0
C1757 C 0.40992 0.00028 0.97481 0.0
C1758 C 0.4262 0.98665 0.94273 0.0
C1759 C 0.42991 0.99767 0.93153 0.0
C1760 C 0.43136 0.97597 0.94131 0.0
C1761 C 0.42861 0.96466 0.95327 0.0
C1762 C 0.43281 0.9697 0.96974 0.0
C1763 C 0.4301 0.95897 0.98096 0.0
C1764 C 0.4233 0.94317 0.97585 0.0
C1765 C 0.41922 0.93807 0.9595 0.0
C1766 C 0.42189 0.94875 0.94823 0.0
C1767 C 0.47606 0.00248 0.89157 0.0
C1768 C 0.47102 0.98996 0.87969 0.0
C1769 C 0.46724 0.00157 0.904 0.0
C1770 C 0.45324 0.98812 0.9048 0.0
C1771 C 0.44829 0.97547 0.8932 0.0
C1772 C 0.45706 0.9764 0.8807 0.0
C1773 C 0.44355 0.98751 0.91745 0.0
C1774 C 0.43983 0.97643 0.92855 0.0
C1775 C 0.43847 0.99821 0.91891 0.0
C1776 C 0.44161 0.00983 0.90721 0.0
C1777 C 0.43727 0.00511 0.8907 0.0
C1778 C 0.44043 0.01614 0.87973 0.0
C1779 C 0.44782 0.03192 0.88513 0.0
C1780 C 0.45204 0.0367 0.90153 0.0
C1781 C 0.44893 0.02572 0.91255 0.0
H1782 H 0.45026 0.04044 0.87662 0.0
H1783 H 0.42121 0.93489 0.98455 0.0
H1784 H 0.00661 0.38252 0.95754 0.0
H1785 H 0.0093 0.40427 0.94344 0.0
H1786 H 0.04747 0.43604 0.9768 0.0
H1787 H 0.04485 0.41416 0.99112 0.0
H1788 H 0.02621 0.44594 0.96984 0.0
H1789 H 0.05494 0.4285 0.94188 0.0
H1790 H 0.05987 0.40925 0.92825 0.0
H1791 H 0.02304 0.39638 0.89247 0.0
H1792 H 0.01774 0.41539 0.90603 0.0
H1793 H 0.04049 0.50591 0.91812 0.0
H1794 H 0.04397 0.48871 0.93529 0.0
H1795 H 0.01007 0.44887 0.90442 0.0
H1796 H 0.007 0.46592 0.88693 0.0
H1797 H 0.03354 0.44575 0.91175 0.0
H1798 H 0.0028 0.46045 0.9411 0.0
H1799 H 0.99687 0.47892 0.95477 0.0
H1800 H 0.03656 0.49636 0.98777 0.0
H1801 H 0.04282 0.47811 0.97415 0.0
C1802 C 0.01553 0.39412 0.962 0.0
C1803 C 0.02553 0.39662 0.97546 0.0
C1804 C 0.01709 0.40654 0.95386 0.0
C1805 C 0.02867 0.42172 0.95899 0.0
C1806 C 0.03849 0.42437 0.97265 0.0
C1807 C 0.03701 0.41188 0.98076 0.0
C1808 C 0.03042 0.43466 0.94981 0.0
C1809 C 0.02813 0.44613 0.95722 0.0
C1810 C 0.03268 0.43471 0.9333 0.0
C1811 C 0.03588 0.42331 0.92505 0.0
C1812 C 0.04782 0.42148 0.93118 0.0
C1813 C 0.05069 0.41063 0.92345 0.0
C1814 C 0.04176 0.40158 0.90952 0.0
C1815 C 0.02995 0.4034 0.90327 0.0
C1816 C 0.02701 0.41422 0.91096 0.0
C1817 C 0.03386 0.49349 0.91494 0.0
C1818 C 0.02338 0.48729 0.90121 0.0
C1819 C 0.03577 0.48367 0.92484 0.0
C1820 C 0.02717 0.46749 0.92123 0.0
C1821 C 0.01681 0.46132 0.90747 0.0
C1822 C 0.01495 0.47109 0.89757 0.0
C1823 C 0.02887 0.45681 0.93162 0.0
C1824 C 0.03185 0.44576 0.92443 0.0
C1825 C 0.02715 0.45711 0.94828 0.0
C1826 C 0.02337 0.46805 0.95649 0.0
C1827 C 0.01033 0.46831 0.95118 0.0
C1828 C 0.00689 0.47872 0.95894 0.0
C1829 C 0.01636 0.48884 0.97209 0.0
C1830 C 0.02925 0.48854 0.97755 0.0
C1831 C 0.03275 0.47816 0.96983 0.0
H1832 H 0.01368 0.49689 0.97808 0.0
H1833 H 0.044 0.39318 0.90356 0.0
H1834 H 0.62344 0.62761 0.02929 0.0
H1835 H 0.61097 0.62031 0.00194 0.0
H1836 H 0.56883 0.60941 0.02034 0.0
H1837 H 0.58114 0.61659 0.04775 0.0
H1838 H 0.56556 0.58655 0.99846 0.0
H1839 H 0.58791 0.64183 0.00178 0.0
H1840 H 0.60849 0.66908 0.00705 0.0
H1841 H 0.63255 0.66165 0.97065 0.0
H1842 H 0.61221 0.63428 0.96531 0.0
H1843 H 0.52655 0.57464 0.92165 0.0
H1844 H 0.53772 0.58506 0.94926 0.0
H1845 H 0.58196 0.59992 0.93421 0.0
H1846 H 0.57097 0.59022 0.90652 0.0
H1847 H 0.58316 0.62146 0.95487 0.0
H1848 H 0.56203 0.56612 0.95268 0.0
H1849 H 0.54188 0.53867 0.9474 0.0
H1850 H 0.51607 0.54599 0.98171 0.0
H1851 H 0.53599 0.57355 0.98704 0.0
C1852 C 0.61154 0.62375 0.02755 0.0
C1853 C 0.60331 0.6227 0.04076 0.0
C1854 C 0.60444 0.61964 0.01188 0.0
C1855 C 0.58899 0.61442 0.0091 0.0
C1856 C 0.58076 0.61342 0.02222 0.0
C1857 C 0.58785 0.61758 0.03789 0.0
C1858 C 0.58133 0.60953 0.99253 0.0
C1859 C 0.56924 0.59426 0.98898 0.0
C1860 C 0.58635 0.61949 0.9801 0.0
C1861 C 0.59859 0.63596 0.98325 0.0
C1862 C 0.59764 0.64597 0.99499 0.0
C1863 C 0.60926 0.66145 0.99797 0.0
C1864 C 0.62183 0.66708 0.98922 0.0
C1865 C 0.62281 0.65726 0.97743 0.0
C1866 C 0.61123 0.64177 0.97441 0.0
C1867 C 0.53867 0.58032 0.92417 0.0
C1868 C 0.54785 0.58145 0.91188 0.0
C1869 C 0.54503 0.58614 0.94 0.0
C1870 C 0.56066 0.59305 0.94387 0.0
C1871 C 0.56987 0.59457 0.93155 0.0
C1872 C 0.56354 0.58885 0.91573 0.0
C1873 C 0.56747 0.59843 0.96076 0.0
C1874 C 0.5794 0.61378 0.96437 0.0
C1875 C 0.56237 0.58852 0.97325 0.0
C1876 C 0.55042 0.57193 0.97013 0.0
C1877 C 0.55201 0.5619 0.95901 0.0
C1878 C 0.54064 0.54632 0.95602 0.0
C1879 C 0.52769 0.5406 0.96418 0.0
C1880 C 0.5261 0.55044 0.97538 0.0
C1881 C 0.53743 0.56604 0.9784 0.0
H1882 H 0.5189 0.52853 0.96185 0.0
H1883 H 0.63081 0.67907 0.99154 0.0
H1884 H 0.00788 0.64588 0.01942 0.0
H1885 H 0.01133 0.63428 0.99468 0.0
H1886 H 0.0171 0.60191 0.02187 0.0
H1887 H 0.01472 0.6142 0.04664 0.0
H1888 H 0.03555 0.60995 0.00113 0.0
H1889 H 0.98263 0.59312 0.99784 0.0
H1890 H 0.96057 0.59659 0.99781 0.0
H1891 H 0.97435 0.6226 0.95675 0.0
H1892 H 0.99659 0.61948 0.95668 0.0
H1893 H 0.01678 0.55139 0.9365 0.0
H1894 H 0.01577 0.56574 0.9607 0.0
H1895 H 0.02326 0.60373 0.93318 0.0
H1896 H 0.02441 0.5895 0.909 0.0
H1897 H 0.99869 0.59366 0.95309 0.0
H1898 H 0.05124 0.60884 0.95644 0.0
H1899 H 0.07245 0.604 0.95669 0.0
H1900 H 0.05771 0.57881 0.99817 0.0
H1901 H 0.03627 0.58331 0.99803 0.0
C1902 C 0.00998 0.63635 0.02006 0.0
C1903 C 0.01102 0.63093 0.03491 0.0
C1904 C 0.01182 0.62962 0.00592 0.0
C1905 C 0.01414 0.61694 0.00628 0.0
C1906 C 0.01533 0.61166 0.02119 0.0
C1907 C 0.01394 0.61867 0.03536 0.0
C1908 C 0.01535 0.60912 0.99123 0.0
C1909 C 0.02734 0.60623 0.99074 0.0
C1910 C 0.00485 0.60449 0.97745 0.0
C1911 C 0.99136 0.6062 0.97736 0.0
C1912 C 0.981 0.59966 0.98886 0.0
C1913 C 0.96846 0.60156 0.98886 0.0
C1914 C 0.96608 0.60986 0.97732 0.0
C1915 C 0.97621 0.61621 0.96571 0.0
C1916 C 0.98878 0.61437 0.96568 0.0
C1917 C 0.01827 0.56283 0.93567 0.0
C1918 C 0.02079 0.5694 0.92095 0.0
C1919 C 0.01772 0.57101 0.94946 0.0
C1920 C 0.01949 0.5858 0.94869 0.0
C1921 C 0.0219 0.59234 0.93399 0.0
C1922 C 0.02267 0.58427 0.92026 0.0
C1923 C 0.01869 0.59439 0.96323 0.0
C1924 C 0.00683 0.59742 0.96356 0.0
C1925 C 0.02912 0.5989 0.97695 0.0
C1926 C 0.04207 0.59629 0.97713 0.0
C1927 C 0.05245 0.60216 0.96554 0.0
C1928 C 0.06452 0.5995 0.96567 0.0
C1929 C 0.0664 0.59107 0.97741 0.0
C1930 C 0.05623 0.58532 0.98907 0.0
C1931 C 0.04412 0.58794 0.98898 0.0
H1932 H 0.07576 0.58902 0.97749 0.0
H1933 H 0.95638 0.61134 0.97735 0.0
H1934 H 0.40396 0.40406 0.95343 0.0
H1935 H 0.4221 0.42712 0.94165 0.0
H1936 H 0.40444 0.45351 0.96443 0.0
H1937 H 0.38622 0.43037 0.97653 0.0
H1938 H 0.40711 0.45689 0.93167 0.0
H1939 H 0.43806 0.46121 0.97818 0.0
H1940 H 0.44949 0.45215 0.99829 0.0
H1941 H 0.47129 0.44142 0.96165 0.0
H1942 H 0.4598 0.45019 0.94125 0.0
H1943 H 0.4653 0.52308 0.89836 0.0
H1944 H 0.44917 0.50647 0.91784 0.0
H1945 H 0.46143 0.47227 0.90476 0.0
H1946 H 0.47743 0.48869 0.88531 0.0
H1947 H 0.46215 0.47675 0.93689 0.0
H1948 H 0.42798 0.46817 0.89017 0.0
H1949 H 0.41594 0.47615 0.86952 0.0
H1950 H 0.39989 0.49418 0.90633 0.0
H1951 H 0.41202 0.48649 0.92722 0.0
C1952 C 0.40404 0.41478 0.9562 0.0
C1953 C 0.3937 0.41538 0.96604 0.0
C1954 C 0.41445 0.42798 0.94944 0.0
C1955 C 0.41471 0.44204 0.95231 0.0
C1956 C 0.40445 0.44276 0.96215 0.0
C1957 C 0.39409 0.42955 0.96907 0.0
C1958 C 0.42523 0.45566 0.94422 0.0
C1959 C 0.41919 0.46152 0.93308 0.0
C1960 C 0.44094 0.46147 0.94591 0.0
C1961 C 0.44799 0.45628 0.95816 0.0
C1962 C 0.44521 0.45682 0.97438 0.0
C1963 C 0.45171 0.45174 0.98584 0.0
C1964 C 0.4611 0.44619 0.98125 0.0
C1965 C 0.46402 0.44573 0.96519 0.0
C1966 C 0.45753 0.45077 0.95367 0.0
C1967 C 0.46449 0.51199 0.8996 0.0
C1968 C 0.47266 0.5072 0.89032 0.0
C1969 C 0.45532 0.50254 0.91076 0.0
C1970 C 0.45408 0.48812 0.91271 0.0
C1971 C 0.46232 0.48341 0.90355 0.0
C1972 C 0.47148 0.49282 0.89245 0.0
C1973 C 0.44398 0.47764 0.92398 0.0
C1974 C 0.45011 0.47237 0.93573 0.0
C1975 C 0.42835 0.47232 0.92279 0.0
C1976 C 0.42107 0.47694 0.91025 0.0
C1977 C 0.422 0.47396 0.89386 0.0
C1978 C 0.41514 0.47841 0.88211 0.0
C1979 C 0.4072 0.48572 0.88661 0.0
C1980 C 0.40607 0.48856 0.90286 0.0
C1981 C 0.41293 0.48415 0.91466 0.0
H1982 H 0.40189 0.48914 0.8775 0.0
H1983 H 0.46612 0.44227 0.99014 0.0
H1984 H 0.62116 0.02203 0.01668 0.0
H1985 H 0.60847 0.02111 0.99079 0.0
H1986 H 0.57239 0.97498 0.99683 0.0
H1987 H 0.58481 0.97593 0.02288 0.0
H1988 H 0.60065 0.00372 0.96346 0.0
H1989 H 0.53917 0.96977 0.98107 0.0
H1990 H 0.52558 0.96655 0.00523 0.0
H1991 H 0.56087 0.01124 0.02648 0.0
H1992 H 0.57456 0.01482 0.00237 0.0
H1993 H 0.55156 0.97729 0.89265 0.0
H1994 H 0.56366 0.97845 0.91891 0.0
H1995 H 0.54977 0.00945 0.93878 0.0
H1996 H 0.53669 0.00748 0.91276 0.0
H1997 H 0.5472 0.99049 0.95961 0.0
H1998 H 0.58624 0.02269 0.92786 0.0
H1999 H 0.60063 0.0291 0.9041 0.0
H2000 H 0.61212 0.99418 0.91215 0.0
H2001 H 0.5976 0.98739 0.93584 0.0
C2002 C 0.61056 0.01166 0.01251 0.0
C2003 C 0.60397 0.99912 0.02197 0.0
C2004 C 0.60332 0.01114 0.99767 0.0
C2005 C 0.58936 0.99807 0.99197 0.0
C2006 C 0.583 0.98533 0.00113 0.0
C2007 C 0.59017 0.98587 0.01601 0.0
C2008 C 0.58135 0.99782 0.97655 0.0
C2009 C 0.58897 0.00082 0.96262 0.0
C2010 C 0.56621 0.99444 0.9755 0.0
C2011 C 0.55795 0.99248 0.98997 0.0
C2012 C 0.544 0.97893 0.99087 0.0
C2013 C 0.53628 0.97704 0.00456 0.0
C2014 C 0.54238 0.98866 0.0174 0.0
C2015 C 0.55618 0.00223 0.01655 0.0
C2016 C 0.56393 0.00418 0.00288 0.0
C2017 C 0.55075 0.98409 0.90265 0.0
C2018 C 0.54315 0.99234 0.9005 0.0
C2019 C 0.5579 0.98493 0.91764 0.0
C2020 C 0.55793 0.99431 0.93077 0.0
C2021 C 0.55001 0.00222 0.92881 0.0
C2022 C 0.54266 0.00121 0.91386 0.0
C2023 C 0.5664 0.99606 0.94645 0.0
C2024 C 0.55888 0.99337 0.96044 0.0
C2025 C 0.58178 0.00023 0.94764 0.0
C2026 C 0.59073 0.00444 0.93355 0.0
C2027 C 0.59177 0.01632 0.92452 0.0
C2028 C 0.59995 0.02002 0.91106 0.0
C2029 C 0.60725 0.01203 0.9066 0.0
C2030 C 0.60644 0.00035 0.91562 0.0
C2031 C 0.59825 0.99658 0.92907 0.0
H2032 H 0.61356 0.0149 0.89616 0.0
H2033 H 0.5364 0.98717 0.028 0.0
H2034 H 0.60005 0.99616 0.09483 0.0
H2035 H 0.5822 0.99561 0.11293 0.0
H2036 H 0.59909 0.04434 0.10927 0.0
H2037 H 0.61682 0.04488 0.09062 0.0
H2038 H 0.5887 0.01039 0.1416 0.0
H2039 H 0.57071 0.05201 0.11679 0.0
H2040 H 0.56694 0.06058 0.09076 0.0
H2041 H 0.55789 0.01741 0.06646 0.0
H2042 H 0.5614 0.0085 0.09236 0.0
H2043 H 0.55346 0.0286 0.20152 0.0
H2044 H 0.56971 0.03204 0.1801 0.0
H2045 H 0.53053 0.0039 0.1464 0.0
H2046 H 0.51417 0.001 0.1676 0.0
H2047 H 0.55179 0.0278 0.13245 0.0
H2048 H 0.54936 0.98814 0.16422 0.0
H2049 H 0.55152 0.97731 0.18931 0.0
H2050 H 0.59847 0.01211 0.19754 0.0
H2051 H 0.59654 0.02328 0.17259 0.0
C2052 C 0.59982 0.00672 0.09756 0.0
C2053 C 0.60986 0.02056 0.09123 0.0
C2054 C 0.58965 0.0064 0.10803 0.0
C2055 C 0.58931 0.01992 0.11248 0.0
C2056 C 0.59904 0.03371 0.10586 0.0
C2057 C 0.60918 0.03401 0.09524 0.0
C2058 C 0.5794 0.01964 0.12479 0.0
C2059 C 0.58066 0.01423 0.13958 0.0
C2060 C 0.56882 0.02453 0.12213 0.0
C2061 C 0.56649 0.02967 0.1065 0.0
C2062 C 0.56787 0.04433 0.1059 0.0
C2063 C 0.56578 0.04924 0.09116 0.0
C2064 C 0.56223 0.03957 0.07696 0.0
C2065 C 0.5607 0.02492 0.07746 0.0
C2066 C 0.56276 0.01994 0.09216 0.0
C2067 C 0.54828 0.02338 0.1895 0.0
C2068 C 0.53251 0.01439 0.18631 0.0
C2069 C 0.55759 0.02526 0.17729 0.0
C2070 C 0.55133 0.01804 0.16171 0.0
C2071 C 0.5356 0.00953 0.15835 0.0
C2072 C 0.52627 0.00772 0.17053 0.0
C2073 C 0.56114 0.01856 0.14919 0.0
C2074 C 0.55991 0.02405 0.13444 0.0
C2075 C 0.57154 0.01342 0.15171 0.0
C2076 C 0.57277 0.00663 0.16663 0.0
C2077 C 0.56012 0.99354 0.17144 0.0
C2078 C 0.5613 0.98734 0.18562 0.0
C2079 C 0.57511 0.99404 0.19504 0.0
C2080 C 0.58778 0.00694 0.19025 0.0
C2081 C 0.58665 0.01321 0.17608 0.0
H2082 H 0.57601 0.98923 0.20602 0.0
H2083 H 0.56063 0.0434 0.06556 0.0
H2084 H 0.99837 0.62482 0.1054 0.0
H2085 H 0.99559 0.6015 0.116 0.0
H2086 H 0.95479 0.57337 0.08455 0.0
H2087 H 0.95773 0.59683 0.07337 0.0
H2088 H 0.95393 0.56657 0.11869 0.0
H2089 H 0.98184 0.57121 0.07368 0.0
H2090 H 0.00183 0.58532 0.056 0.0
H2091 H 0.03565 0.59679 0.09502 0.0
H2092 H 0.01586 0.58295 0.11302 0.0
H2093 H 0.95553 0.50114 0.14609 0.0
H2094 H 0.9536 0.51829 0.12757 0.0
H2095 H 0.99865 0.55467 0.14508 0.0
H2096 H 0.00068 0.53761 0.16349 0.0
H2097 H 0.99433 0.55387 0.11327 0.0
H2098 H 0.96714 0.55325 0.15888 0.0
H2099 H 0.94772 0.54081 0.17763 0.0
H2100 H 0.91302 0.52294 0.13829 0.0
H2101 H 0.93228 0.53512 0.11927 0.0
C2102 C 0.98888 0.61372 0.10054 0.0
C2103 C 0.97843 0.61268 0.08829 0.0
C2104 C 0.98728 0.60039 0.1067 0.0
C2105 C 0.97511 0.58575 0.1009 0.0
C2106 C 0.96431 0.58461 0.08908 0.0
C2107 C 0.96602 0.59799 0.08273 0.0
C2108 C 0.97396 0.57178 0.10735 0.0
C2109 C 0.96251 0.56349 0.11721 0.0
C2110 C 0.98536 0.56805 0.10559 0.0
C2111 C 0.99735 0.57611 0.09474 0.0
C2112 C 0.99354 0.57682 0.07853 0.0
C2113 C 0.00484 0.58476 0.06844 0.0
C2114 C 0.02 0.59197 0.07439 0.0
C2115 C 0.0239 0.5912 0.09043 0.0
C2116 C 0.01264 0.58328 0.10058 0.0
C2117 C 0.96503 0.51278 0.14593 0.0
C2118 C 0.97824 0.51805 0.15629 0.0
C2119 C 0.96392 0.52256 0.13534 0.0
C2120 C 0.97592 0.53782 0.13506 0.0
C2121 C 0.98927 0.54292 0.14503 0.0
C2122 C 0.99042 0.53314 0.15554 0.0
C2123 C 0.97447 0.54883 0.12499 0.0
C2124 C 0.98549 0.55664 0.11447 0.0
C2125 C 0.96272 0.55218 0.12622 0.0
C2126 C 0.95115 0.54492 0.13765 0.0
C2127 C 0.95538 0.54656 0.15422 0.0
C2128 C 0.9444 0.53958 0.1649 0.0
C2129 C 0.92914 0.53105 0.15915 0.0
C2130 C 0.92484 0.52952 0.14272 0.0
C2131 C 0.93578 0.53647 0.13199 0.0
H2132 H 0.92066 0.52565 0.16743 0.0
H2133 H 0.02873 0.59814 0.06656 0.0
H2134 H 0.42283 0.38821 0.0164 0.0
H2135 H 0.43626 0.39661 0.04334 0.0
H2136 H 0.39964 0.40034 0.06115 0.0
H2137 H 0.38609 0.39193 0.03429 0.0
H2138 H 0.42781 0.42644 0.07026 0.0
H2139 H 0.4038 0.37083 0.07003 0.0
H2140 H 0.39744 0.34455 0.05944 0.0
H2141 H 0.44437 0.35852 0.06401 0.0
H2142 H 0.45103 0.38496 0.07443 0.0
H2143 H 0.44615 0.43541 0.15379 0.0
H2144 H 0.43395 0.42629 0.12642 0.0
H2145 H 0.46971 0.41855 0.11331 0.0
H2146 H 0.48188 0.42748 0.14088 0.0
H2147 H 0.44325 0.39497 0.10107 0.0
H2148 H 0.46769 0.45004 0.10176 0.0
H2149 H 0.47478 0.47664 0.11196 0.0
H2150 H 0.42838 0.46448 0.10576 0.0
H2151 H 0.42096 0.43773 0.09573 0.0
C2152 C 0.41757 0.39072 0.02606 0.0
C2153 C 0.40337 0.38939 0.02316 0.0
C2154 C 0.42525 0.39547 0.04146 0.0
C2155 C 0.41891 0.39904 0.05423 0.0
C2156 C 0.40472 0.39764 0.05143 0.0
C2157 C 0.39697 0.39277 0.03608 0.0
C2158 C 0.42726 0.40468 0.07045 0.0
C2159 C 0.43103 0.4195 0.0771 0.0
C2160 C 0.43191 0.39581 0.07908 0.0
C2161 C 0.42792 0.37992 0.07284 0.0
C2162 C 0.41278 0.36834 0.06864 0.0
C2163 C 0.40912 0.35341 0.0627 0.0
C2164 C 0.4205 0.34988 0.06101 0.0
C2165 C 0.43557 0.36127 0.0653 0.0
C2166 C 0.43929 0.37623 0.07124 0.0
C2167 C 0.4515 0.43192 0.14503 0.0
C2168 C 0.46505 0.43231 0.14941 0.0
C2169 C 0.44452 0.4267 0.12939 0.0
C2170 C 0.45104 0.42199 0.11772 0.0
C2171 C 0.46449 0.42217 0.1221 0.0
C2172 C 0.47143 0.42727 0.13783 0.0
C2173 C 0.44366 0.4167 0.10102 0.0
C2174 C 0.4401 0.40197 0.09423 0.0
C2175 C 0.43934 0.42572 0.09217 0.0
C2176 C 0.44376 0.44183 0.09811 0.0
C2177 C 0.45898 0.453 0.10268 0.0
C2178 C 0.46306 0.46812 0.10841 0.0
C2179 C 0.45203 0.47224 0.10954 0.0
C2180 C 0.4369 0.46127 0.10489 0.0
C2181 C 0.43276 0.44613 0.09916 0.0
H2182 H 0.45522 0.48395 0.11399 0.0
H2183 H 0.41765 0.33831 0.05641 0.0
H2184 H 0.63708 0.71437 0.35359 0.0
H2185 H 0.63059 0.72321 0.37802 0.0
H2186 H 0.66347 0.71757 0.40631 0.0
H2187 H 0.66991 0.7085 0.38196 0.0
H2188 H 0.63741 0.70703 0.42058 0.0
H2189 H 0.67122 0.75305 0.3956 0.0
H2190 H 0.6793 0.76983 0.37342 0.0
H2191 H 0.63895 0.77241 0.37297 0.0
H2192 H 0.6305 0.7554 0.39497 0.0
H2193 H 0.6501 0.75367 0.4922 0.0
H2194 H 0.65192 0.74184 0.46688 0.0
H2195 H 0.62102 0.75292 0.44258 0.0
H2196 H 0.61977 0.76561 0.46784 0.0
H2197 H 0.64364 0.7596 0.42541 0.0
H2198 H 0.61015 0.71526 0.45094 0.0
H2199 H 0.60124 0.69826 0.47287 0.0
H2200 H 0.63943 0.69195 0.47198 0.0
H2201 H 0.6487 0.7091 0.45018 0.0
C2202 C 0.64289 0.71491 0.365 0.0
C2203 C 0.65411 0.71081 0.36576 0.0
C2204 C 0.63919 0.72002 0.37896 0.0
C2205 C 0.64669 0.72126 0.39396 0.0
C2206 C 0.65756 0.71674 0.39484 0.0
C2207 C 0.66126 0.7116 0.38089 0.0
C2208 C 0.64353 0.72764 0.4087 0.0
C2209 C 0.6389 0.71858 0.42171 0.0
C2210 C 0.645 0.74251 0.40997 0.0
C2211 C 0.65015 0.75282 0.39681 0.0
C2212 C 0.66401 0.75709 0.39069 0.0
C2213 C 0.66867 0.76666 0.37815 0.0
C2214 C 0.65962 0.77216 0.37177 0.0
C2215 C 0.64593 0.76812 0.37791 0.0
C2216 C 0.6412 0.75852 0.39041 0.0
C2217 C 0.64379 0.75376 0.48146 0.0
C2218 C 0.63486 0.76071 0.48206 0.0
C2219 C 0.64467 0.74676 0.467 0.0
C2220 C 0.63643 0.74626 0.45284 0.0
C2221 C 0.62742 0.7531 0.45337 0.0
C2222 C 0.62662 0.76023 0.46785 0.0
C2223 C 0.6377 0.73908 0.43742 0.0
C2224 C 0.64199 0.74799 0.42427 0.0
C2225 C 0.63578 0.72401 0.43598 0.0
C2226 C 0.63018 0.71357 0.449 0.0
C2227 C 0.61671 0.71033 0.45549 0.0
C2228 C 0.61158 0.70066 0.46789 0.0
C2229 C 0.61978 0.69405 0.47384 0.0
C2230 C 0.6331 0.69708 0.46736 0.0
C2231 C 0.63828 0.70676 0.45497 0.0
H2232 H 0.6158 0.68657 0.48345 0.0
H2233 H 0.66322 0.77958 0.36208 0.0
H2234 H 0.28018 0.91009 0.42626 0.0
H2235 H 0.26392 0.88781 0.44061 0.0
H2236 H 0.24541 0.91372 0.46259 0.0
H2237 H 0.26165 0.93604 0.44846 0.0
H2238 H 0.26485 0.88776 0.47353 0.0
H2239 H 0.20864 0.88813 0.46839 0.0
H2240 H 0.19375 0.89378 0.44872 0.0
H2241 H 0.21378 0.88311 0.41008 0.0
H2242 H 0.22861 0.87717 0.42948 0.0
H2243 H 0.22009 0.85711 0.53804 0.0
H2244 H 0.23385 0.87313 0.51694 0.0
H2245 H 0.20689 0.83462 0.48106 0.0
H2246 H 0.19313 0.81851 0.50214 0.0
H2247 H 0.20932 0.86296 0.4735 0.0
H2248 H 0.24093 0.8429 0.4894 0.0
H2249 H 0.25575 0.83669 0.50852 0.0
H2250 H 0.28472 0.88516 0.52399 0.0
H2251 H 0.26993 0.89165 0.50513 0.0
C2252 C 0.27248 0.91097 0.43396 0.0
C2253 C 0.27221 0.92485 0.43622 0.0
C2254 C 0.26324 0.89824 0.44217 0.0
C2255 C 0.25344 0.89911 0.45259 0.0
C2256 C 0.25277 0.91276 0.45444 0.0
C2257 C 0.26209 0.92552 0.44636 0.0
C2258 C 0.24472 0.88627 0.46249 0.0
C2259 C 0.2527 0.88225 0.47344 0.0
C2260 C 0.22886 0.87897 0.46222 0.0
C2261 C 0.21983 0.88232 0.45042 0.0
C2262 C 0.20981 0.88691 0.45569 0.0
C2263 C 0.20139 0.89018 0.44459 0.0
C2264 C 0.20285 0.88884 0.42817 0.0
C2265 C 0.2127 0.88419 0.42281 0.0
C2266 C 0.22113 0.8809 0.43386 0.0
C2267 C 0.21714 0.85208 0.52565 0.0
C2268 C 0.20561 0.8366 0.52168 0.0
C2269 C 0.22502 0.86119 0.51365 0.0
C2270 C 0.2214 0.855 0.49749 0.0
C2271 C 0.20985 0.83956 0.49348 0.0
C2272 C 0.20209 0.83038 0.50551 0.0
C2273 C 0.22952 0.86484 0.48481 0.0
C2274 C 0.22145 0.86834 0.47342 0.0
C2275 C 0.24529 0.87158 0.48459 0.0
C2276 C 0.25425 0.86774 0.49593 0.0
C2277 C 0.25039 0.85222 0.49697 0.0
C2278 C 0.25879 0.84866 0.50775 0.0
C2279 C 0.27115 0.86052 0.51749 0.0
C2280 C 0.27514 0.87598 0.51645 0.0
C2281 C 0.26676 0.87961 0.5057 0.0
H2282 H 0.27765 0.85773 0.52582 0.0
H2283 H 0.19633 0.89139 0.4196 0.0
H2284 H 0.06966 0.33814 0.39343 0.0
H2285 H 0.08275 0.34514 0.42044 0.0
H2286 H 0.1254 0.37172 0.40092 0.0
H2287 H 0.11241 0.36477 0.37376 0.0
H2288 H 0.1261 0.35302 0.42402 0.0
H2289 H 0.11116 0.39073 0.41853 0.0
H2290 H 0.09356 0.39998 0.41211 0.0
H2291 H 0.06633 0.37457 0.44881 0.0
H2292 H 0.08365 0.36497 0.4553 0.0
H2293 H 0.16427 0.38466 0.50213 0.0
H2294 H 0.15506 0.38315 0.47415 0.0
H2295 H 0.10924 0.35936 0.48678 0.0
H2296 H 0.11837 0.36158 0.51485 0.0
H2297 H 0.11257 0.37948 0.46616 0.0
H2298 H 0.12607 0.33982 0.46984 0.0
H2299 H 0.14357 0.33047 0.47648 0.0
H2300 H 0.17338 0.35938 0.44331 0.0
H2301 H 0.15614 0.36905 0.43661 0.0
C2302 C 0.08183 0.34545 0.39483 0.0
C2303 C 0.08997 0.35094 0.38141 0.0
C2304 C 0.08929 0.34949 0.41029 0.0
C2305 C 0.10502 0.35906 0.41267 0.0
C2306 C 0.11324 0.36435 0.39932 0.0
C2307 C 0.10578 0.36041 0.38383 0.0
C2308 C 0.11281 0.36354 0.42914 0.0
C2309 C 0.12335 0.35904 0.43319 0.0
C2310 C 0.10905 0.37121 0.44111 0.0
C2311 C 0.09864 0.37703 0.43731 0.0
C2312 C 0.10136 0.38701 0.42515 0.0
C2313 C 0.09144 0.39234 0.42151 0.0
C2314 C 0.07882 0.38784 0.43002 0.0
C2315 C 0.07611 0.37804 0.44222 0.0
C2316 C 0.08598 0.37266 0.44589 0.0
C2317 C 0.15225 0.37937 0.499 0.0
C2318 C 0.14204 0.37312 0.51071 0.0
C2319 C 0.147 0.37836 0.48297 0.0
C2320 C 0.13145 0.37089 0.47831 0.0
C2321 C 0.12128 0.3651 0.49006 0.0
C2322 C 0.12652 0.36623 0.50609 0.0
C2323 C 0.12561 0.36864 0.46118 0.0
C2324 C 0.11544 0.37359 0.45698 0.0
C2325 C 0.12968 0.36133 0.4491 0.0
C2326 C 0.13989 0.35527 0.45284 0.0
C2327 C 0.1364 0.34424 0.46402 0.0
C2328 C 0.14626 0.33888 0.46779 0.0
C2329 C 0.15959 0.34436 0.46035 0.0
C2330 C 0.16306 0.35516 0.44907 0.0
C2331 C 0.15324 0.36058 0.44527 0.0
H2332 H 0.16722 0.3402 0.46329 0.0
H2333 H 0.07116 0.39198 0.42719 0.0
H2334 H 0.08271 0.33307 0.30473 0.0
H2335 H 0.09439 0.3246 0.28529 0.0
H2336 H 0.07851 0.28164 0.30689 0.0
H2337 H 0.06651 0.29 0.32656 0.0
H2338 H 0.11243 0.30086 0.29473 0.0
H2339 H 0.05874 0.27344 0.27916 0.0
H2340 H 0.03392 0.27148 0.2755 0.0
H2341 H 0.05098 0.30689 0.24294 0.0
H2342 H 0.07599 0.30924 0.24662 0.0
H2343 H 0.12933 0.27554 0.22027 0.0
H2344 H 0.11634 0.27432 0.24432 0.0
H2345 H 0.11058 0.31192 0.23012 0.0
H2346 H 0.12323 0.31298 0.20602 0.0
H2347 H 0.08507 0.28882 0.24037 0.0
H2348 H 0.13879 0.31819 0.25778 0.0
H2349 H 0.16415 0.32142 0.2614 0.0
H2350 H 0.14759 0.28314 0.29042 0.0
H2351 H 0.12206 0.27952 0.28675 0.0
C2352 C 0.08194 0.32196 0.30566 0.0
C2353 C 0.0736 0.31217 0.31716 0.0
C2354 C 0.08864 0.31715 0.29451 0.0
C2355 C 0.08723 0.30251 0.29467 0.0
C2356 C 0.07972 0.29301 0.30668 0.0
C2357 C 0.07286 0.29779 0.31784 0.0
C2358 C 0.09225 0.29681 0.28108 0.0
C2359 C 0.1063 0.29777 0.28289 0.0
C2360 C 0.08431 0.29307 0.26567 0.0
C2361 C 0.06926 0.29159 0.26327 0.0
C2362 C 0.05723 0.2809 0.27133 0.0
C2363 C 0.04312 0.2797 0.26923 0.0
C2364 C 0.04088 0.28908 0.25902 0.0
C2365 C 0.05274 0.29964 0.25086 0.0
C2366 C 0.06687 0.3009 0.25293 0.0
C2367 C 0.12511 0.2834 0.22221 0.0
C2368 C 0.12733 0.29441 0.21133 0.0
C2369 C 0.1178 0.28276 0.23598 0.0
C2370 C 0.11261 0.29311 0.23904 0.0
C2371 C 0.11451 0.30384 0.22798 0.0
C2372 C 0.12184 0.30451 0.21429 0.0
C2373 C 0.10546 0.29318 0.25386 0.0
C2374 C 0.09102 0.29133 0.25225 0.0
C2375 C 0.11308 0.2961 0.2694 0.0
C2376 C 0.12848 0.29846 0.27183 0.0
C2377 C 0.14054 0.31039 0.26484 0.0
C2378 C 0.15495 0.3123 0.26691 0.0
C2379 C 0.15747 0.30245 0.27609 0.0
C2380 C 0.14561 0.29073 0.28328 0.0
C2381 C 0.13117 0.28875 0.28121 0.0
H2382 H 0.16862 0.30392 0.27765 0.0
H2383 H 0.02995 0.28813 0.25741 0.0
H2384 H 0.71204 0.75129 0.33109 0.0
H2385 H 0.71813 0.77432 0.31699 0.0
H2386 H 0.68158 0.74583 0.2805 0.0
H2387 H 0.67546 0.72292 0.29438 0.0
H2388 H 0.70904 0.76516 0.26825 0.0
H2389 H 0.67804 0.76835 0.30876 0.0
H2390 H 0.67245 0.7706 0.33672 0.0
H2391 H 0.71452 0.81358 0.34661 0.0
H2392 H 0.72048 0.81144 0.31878 0.0
H2393 H 0.69425 0.81254 0.22246 0.0
H2394 H 0.69301 0.79382 0.24054 0.0
H2395 H 0.72625 0.83113 0.27446 0.0
H2396 H 0.72702 0.85008 0.25668 0.0
H2397 H 0.70496 0.80989 0.28998 0.0
H2398 H 0.73592 0.80929 0.25094 0.0
H2399 H 0.74427 0.80813 0.22414 0.0
H2400 H 0.70634 0.76204 0.21273 0.0
H2401 H 0.69758 0.76304 0.23935 0.0
C2402 C 0.70525 0.74998 0.32012 0.0
C2403 C 0.69324 0.7353 0.31387 0.0
C2404 C 0.70873 0.76313 0.31211 0.0
C2405 C 0.70029 0.76174 0.29772 0.0
C2406 C 0.68824 0.74713 0.29158 0.0
C2407 C 0.68471 0.73406 0.29959 0.0
C2408 C 0.70408 0.77531 0.28863 0.0
C2409 C 0.70803 0.7749 0.27293 0.0
C2410 C 0.7035 0.78834 0.29508 0.0
C2411 C 0.69978 0.78964 0.31174 0.0
C2412 C 0.68615 0.77821 0.31693 0.0
C2413 C 0.68291 0.77948 0.33276 0.0
C2414 C 0.69315 0.79221 0.34345 0.0
C2415 C 0.70662 0.80371 0.33833 0.0
C2416 C 0.70993 0.80248 0.32253 0.0
C2417 C 0.70114 0.81683 0.23386 0.0
C2418 C 0.71072 0.83284 0.23811 0.0
C2419 C 0.70057 0.80608 0.24411 0.0
C2420 C 0.70974 0.81105 0.25874 0.0
C2421 C 0.71915 0.82703 0.26318 0.0
C2422 C 0.71967 0.83783 0.25295 0.0
C2423 C 0.70932 0.79944 0.26931 0.0
C2424 C 0.70611 0.80025 0.2853 0.0
C2425 C 0.71093 0.78691 0.26327 0.0
C2426 C 0.71603 0.78629 0.24713 0.0
C2427 C 0.72927 0.79897 0.24266 0.0
C2428 C 0.73408 0.79833 0.2275 0.0
C2429 C 0.72583 0.78504 0.21672 0.0
C2430 C 0.71271 0.77235 0.22108 0.0
C2431 C 0.70782 0.77294 0.23621 0.0
H2432 H 0.72963 0.78456 0.20502 0.0
H2433 H 0.69065 0.79321 0.35569 0.0
H2434 H 0.27486 0.94208 0.36913 0.0
H2435 H 0.26223 0.93604 0.34202 0.0
H2436 H 0.23738 0.95811 0.35642 0.0
H2437 H 0.24942 0.96338 0.38391 0.0
H2438 H 0.21942 0.93375 0.33827 0.0
H2439 H 0.26905 0.97518 0.3331 0.0
H2440 H 0.29685 0.98958 0.33564 0.0
H2441 H 0.2966 0.95324 0.30561 0.0
H2442 H 0.26881 0.93842 0.30325 0.0
H2443 H 0.19968 0.93644 0.25395 0.0
H2444 H 0.21051 0.9443 0.28202 0.0
H2445 H 0.22609 0.91167 0.27873 0.0
H2446 H 0.2147 0.90314 0.25107 0.0
H2447 H 0.24866 0.94391 0.29079 0.0
H2448 H 0.1984 0.90212 0.29826 0.0
H2449 H 0.17064 0.88899 0.29524 0.0
H2450 H 0.17266 0.92877 0.32012 0.0
H2451 H 0.20046 0.94224 0.32307 0.0
C2452 C 0.26674 0.9457 0.3665 0.0
C2453 C 0.2632 0.95331 0.37861 0.0
C2454 C 0.25958 0.94233 0.35095 0.0
C2455 C 0.24909 0.94695 0.34698 0.0
C2456 C 0.24546 0.95447 0.35912 0.0
C2457 C 0.25237 0.95752 0.37481 0.0
C2458 C 0.2417 0.94359 0.33028 0.0
C2459 C 0.22589 0.93626 0.32793 0.0
C2460 C 0.25005 0.94672 0.31667 0.0
C2461 C 0.26681 0.95561 0.31812 0.0
C2462 C 0.27492 0.97018 0.32717 0.0
C2463 C 0.29068 0.97841 0.32859 0.0
C2464 C 0.29849 0.97229 0.32087 0.0
C2465 C 0.29055 0.95793 0.31168 0.0
C2466 C 0.27478 0.9496 0.3103 0.0
C2467 C 0.20515 0.93071 0.25926 0.0
C2468 C 0.20643 0.91924 0.25011 0.0
C2469 C 0.21142 0.9353 0.27527 0.0
C2470 C 0.21917 0.92862 0.28235 0.0
C2471 C 0.22027 0.91705 0.27339 0.0
C2472 C 0.21383 0.91228 0.25753 0.0
C2473 C 0.22655 0.93391 0.29896 0.0
C2474 C 0.24232 0.94162 0.30123 0.0
C2475 C 0.21822 0.93138 0.31244 0.0
C2476 C 0.20151 0.92326 0.31071 0.0
C2477 C 0.19293 0.90813 0.30294 0.0
C2478 C 0.17718 0.90061 0.30127 0.0
C2479 C 0.16989 0.90806 0.30743 0.0
C2480 C 0.17832 0.92303 0.31532 0.0
C2481 C 0.19408 0.93061 0.317 0.0
H2482 H 0.1577 0.90222 0.30614 0.0
H2483 H 0.3107 0.97868 0.32196 0.0
H2484 H 0.6628 0.95752 0.35319 0.0
H2485 H 0.66958 0.94853 0.32903 0.0
H2486 H 0.70907 0.95378 0.35584 0.0
H2487 H 0.70242 0.96278 0.38007 0.0
H2488 H 0.71471 0.96439 0.32543 0.0
H2489 H 0.6795 0.91903 0.34928 0.0
H2490 H 0.65572 0.90201 0.36076 0.0
H2491 H 0.63059 0.89729 0.31605 0.0
H2492 H 0.65423 0.91448 0.30437 0.0
H2493 H 0.72898 0.91761 0.26969 0.0
H2494 H 0.72424 0.92875 0.29393 0.0
H2495 H 0.68231 0.92048 0.27007 0.0
H2496 H 0.68697 0.90935 0.2459 0.0
H2497 H 0.67842 0.91148 0.29956 0.0
H2498 H 0.71374 0.95693 0.27565 0.0
H2499 H 0.73756 0.97406 0.26429 0.0
H2500 H 0.76256 0.97869 0.30906 0.0
H2501 H 0.73889 0.96139 0.32062 0.0
C2502 C 0.673 0.95691 0.35395 0.0
C2503 C 0.68199 0.96077 0.36863 0.0
C2504 C 0.67684 0.95173 0.34013 0.0
C2505 C 0.68974 0.95035 0.34071 0.0
C2506 C 0.69905 0.95475 0.35516 0.0
C2507 C 0.69518 0.95983 0.36901 0.0
C2508 C 0.69319 0.9437 0.32641 0.0
C2509 C 0.70687 0.95276 0.31985 0.0
C2510 C 0.68285 0.92861 0.31906 0.0
C2511 C 0.66862 0.91817 0.326 0.0
C2512 C 0.6689 0.91447 0.34194 0.0
C2513 C 0.65545 0.90477 0.34848 0.0
C2514 C 0.64165 0.8986 0.33916 0.0
C2515 C 0.64128 0.90209 0.32326 0.0
C2516 C 0.6547 0.9118 0.31667 0.0
C2517 C 0.71881 0.91827 0.2696 0.0
C2518 C 0.70831 0.91253 0.25592 0.0
C2519 C 0.71611 0.92464 0.28345 0.0
C2520 C 0.70296 0.92554 0.28378 0.0
C2521 C 0.6925 0.91983 0.27012 0.0
C2522 C 0.69515 0.91343 0.25633 0.0
C2523 C 0.6999 0.93222 0.29839 0.0
C2524 C 0.68628 0.92313 0.30508 0.0
C2525 C 0.71031 0.94727 0.30584 0.0
C2526 C 0.72455 0.95774 0.29894 0.0
C2527 C 0.72433 0.9615 0.28303 0.0
C2528 C 0.7378 0.97126 0.27657 0.0
C2529 C 0.75157 0.97743 0.28594 0.0
C2530 C 0.75189 0.97388 0.30181 0.0
C2531 C 0.73845 0.96411 0.30833 0.0
H2532 H 0.76199 0.98498 0.28091 0.0
H2533 H 0.63125 0.8911 0.34424 0.0
H2534 H 0.08297 0.74629 0.30096 0.0
H2535 H 0.09956 0.76909 0.28773 0.0
H2536 H 0.07133 0.78847 0.29726 0.0
H2537 H 0.05504 0.76592 0.31116 0.0
H2538 H 0.09367 0.77762 0.26178 0.0
H2539 H 0.09076 0.82762 0.29709 0.0
H2540 H 0.08899 0.83561 0.32492 0.0
H2541 H 0.10893 0.81008 0.34299 0.0
H2542 H 0.11101 0.80211 0.31528 0.0
H2543 H 0.1146 0.83768 0.21271 0.0
H2544 H 0.10054 0.81983 0.2323 0.0
H2545 H 0.14019 0.84172 0.26628 0.0
H2546 H 0.15426 0.85993 0.24687 0.0
H2547 H 0.11414 0.83293 0.28121 0.0
H2548 H 0.13345 0.81074 0.24453 0.0
H2549 H 0.13822 0.80367 0.21772 0.0
H2550 H 0.09061 0.77393 0.20513 0.0
H2551 H 0.08554 0.78108 0.23179 0.0
C2552 C 0.08042 0.7555 0.30051 0.0
C2553 C 0.06767 0.75427 0.30709 0.0
C2554 C 0.08991 0.76854 0.29288 0.0
C2555 C 0.08675 0.78056 0.29149 0.0
C2556 C 0.0742 0.77952 0.29841 0.0
C2557 C 0.06485 0.76658 0.3063 0.0
C2558 C 0.09589 0.79348 0.28173 0.0
C2559 C 0.09815 0.78969 0.26612 0.0
C2560 C 0.10196 0.8093 0.28737 0.0
C2561 C 0.1009 0.81415 0.30409 0.0
C2562 C 0.09482 0.82376 0.307 0.0
C2563 C 0.09375 0.82828 0.32275 0.0
C2564 C 0.0988 0.82332 0.33571 0.0
C2565 C 0.10497 0.81387 0.33294 0.0
C2566 C 0.10607 0.80933 0.31721 0.0
C2567 C 0.12024 0.83895 0.22448 0.0
C2568 C 0.13559 0.8501 0.22819 0.0
C2569 C 0.11221 0.82869 0.23563 0.0
C2570 C 0.11939 0.82935 0.25064 0.0
C2571 C 0.13446 0.84101 0.25474 0.0
C2572 C 0.14251 0.85128 0.24358 0.0
C2573 C 0.11161 0.81693 0.26135 0.0
C2574 C 0.10961 0.82082 0.27702 0.0
C2575 C 0.10616 0.80121 0.256 0.0
C2576 C 0.10912 0.79657 0.24009 0.0
C2577 C 0.124 0.80277 0.236 0.0
C2578 C 0.12675 0.79876 0.22084 0.0
C2579 C 0.11473 0.78842 0.20971 0.0
C2580 C 0.09991 0.78198 0.21375 0.0
C2581 C 0.09709 0.78601 0.22889 0.0
H2582 H 0.11692 0.78541 0.19797 0.0
H2583 H 0.09795 0.82682 0.34789 0.0
H2584 H 0.23719 0.30655 0.3601 0.0
H2585 H 0.22362 0.30081 0.33345 0.0
H2586 H 0.26144 0.34101 0.31741 0.0
H2587 H 0.27507 0.34695 0.34404 0.0
H2588 H 0.23504 0.33941 0.3084 0.0
H2589 H 0.25474 0.30491 0.30641 0.0
H2590 H 0.25905 0.2844 0.31567 0.0
H2591 H 0.21133 0.25216 0.31047 0.0
H2592 H 0.20672 0.27256 0.3014 0.0
H2593 H 0.22085 0.32454 0.2242 0.0
H2594 H 0.23144 0.32796 0.2519 0.0
H2595 H 0.18942 0.28969 0.26355 0.0
H2596 H 0.17848 0.28643 0.23583 0.0
H2597 H 0.21578 0.28917 0.27548 0.0
H2598 H 0.19629 0.32349 0.27597 0.0
H2599 H 0.19221 0.34402 0.26632 0.0
H2600 H 0.23978 0.37663 0.27408 0.0
H2601 H 0.24417 0.35623 0.28357 0.0
C2602 C 0.24267 0.31417 0.35091 0.0
C2603 C 0.25726 0.32722 0.35425 0.0
C2604 C 0.23489 0.31083 0.33566 0.0
C2605 C 0.24156 0.32042 0.32342 0.0
C2606 C 0.25608 0.33346 0.32669 0.0
C2607 C 0.26388 0.3368 0.34192 0.0
C2608 C 0.23333 0.31703 0.30724 0.0
C2609 C 0.23097 0.32849 0.30114 0.0
C2610 C 0.22763 0.3026 0.29796 0.0
C2611 C 0.23038 0.29031 0.3034 0.0
C2612 C 0.24516 0.29349 0.30738 0.0
C2613 C 0.24766 0.28187 0.31257 0.0
C2614 C 0.23547 0.267 0.3137 0.0
C2615 C 0.22076 0.2637 0.30962 0.0
C2616 C 0.21819 0.27528 0.30444 0.0
C2617 C 0.21376 0.31694 0.23265 0.0
C2618 C 0.19875 0.3053 0.2278 0.0
C2619 C 0.21987 0.31887 0.24847 0.0
C2620 C 0.21117 0.30916 0.25977 0.0
C2621 C 0.19631 0.29728 0.25496 0.0
C2622 C 0.19011 0.29541 0.23912 0.0
C2623 C 0.21772 0.31164 0.27661 0.0
C2624 C 0.21975 0.30003 0.28282 0.0
C2625 C 0.22315 0.32594 0.28599 0.0
C2626 C 0.22057 0.33828 0.28035 0.0
C2627 C 0.20589 0.335 0.27549 0.0
C2628 C 0.20352 0.34662 0.27007 0.0
C2629 C 0.21573 0.36161 0.26955 0.0
C2630 C 0.23033 0.36501 0.27448 0.0
C2631 C 0.23277 0.35343 0.2799 0.0
H2632 H 0.21387 0.37059 0.26535 0.0
H2633 H 0.23743 0.25802 0.31772 0.0
H2634 H 0.26349 0.34062 0.43291 0.0
H2635 H 0.2465 0.34333 0.45001 0.0
H2636 H 0.25068 0.38148 0.42467 0.0
H2637 H 0.26828 0.37916 0.40777 0.0
H2638 H 0.25347 0.38906 0.45494 0.0
H2639 H 0.21707 0.34504 0.421 0.0
H2640 H 0.20568 0.31927 0.40579 0.0
H2641 H 0.20258 0.29825 0.44981 0.0
H2642 H 0.21416 0.32392 0.46528 0.0
H2643 H 0.18269 0.36067 0.50443 0.0
H2644 H 0.19356 0.36019 0.47927 0.0
H2645 H 0.23723 0.37861 0.50558 0.0
H2646 H 0.22648 0.3791 0.53071 0.0
H2647 H 0.20635 0.34431 0.4698 0.0
H2648 H 0.2647 0.4016 0.48369 0.0
H2649 H 0.27481 0.4279 0.49723 0.0
H2650 H 0.23119 0.42341 0.4898 0.0
H2651 H 0.22087 0.39718 0.476 0.0
C2652 C 0.26065 0.34945 0.43078 0.0
C2653 C 0.2672 0.35966 0.41896 0.0
C2654 C 0.25083 0.35093 0.44053 0.0
C2655 C 0.24707 0.36244 0.43848 0.0
C2656 C 0.25337 0.37247 0.42644 0.0
C2657 C 0.26339 0.37112 0.41678 0.0
C2658 C 0.23749 0.36459 0.44975 0.0
C2659 C 0.24309 0.3793 0.45806 0.0
C2660 C 0.22369 0.35197 0.45354 0.0
C2661 C 0.21655 0.33644 0.4443 0.0
C2662 C 0.21403 0.33494 0.42744 0.0
C2663 C 0.20753 0.32034 0.41877 0.0
C2664 C 0.20342 0.30713 0.42683 0.0
C2665 C 0.20576 0.30849 0.44358 0.0
C2666 C 0.21227 0.32306 0.45231 0.0
C2667 C 0.19461 0.36459 0.50484 0.0
C2668 C 0.20374 0.36991 0.51956 0.0
C2669 C 0.2008 0.36436 0.49046 0.0
C2670 C 0.21623 0.36951 0.49052 0.0
C2671 C 0.22536 0.37488 0.5052 0.0
C2672 C 0.2192 0.37515 0.51956 0.0
C2673 C 0.22276 0.36858 0.47545 0.0
C2674 C 0.21658 0.35411 0.46644 0.0
C2675 C 0.2358 0.3815 0.47075 0.0
C2676 C 0.24199 0.39736 0.4789 0.0
C2677 C 0.25728 0.40625 0.48486 0.0
C2678 C 0.26305 0.42115 0.4926 0.0
C2679 C 0.25364 0.42731 0.4944 0.0
C2680 C 0.23845 0.4186 0.48844 0.0
C2681 C 0.23264 0.40371 0.48068 0.0
H2682 H 0.25812 0.43884 0.5004 0.0
H2683 H 0.1984 0.29584 0.42009 0.0
H2684 H 0.66568 0.94641 0.43605 0.0
H2685 H 0.6619 0.92344 0.44841 0.0
H2686 H 0.61914 0.89574 0.41997 0.0
H2687 H 0.62298 0.91875 0.40719 0.0
H2688 H 0.61823 0.89178 0.45334 0.0
H2689 H 0.64599 0.89036 0.41032 0.0
H2690 H 0.66665 0.9011 0.39274 0.0
H2691 H 0.69887 0.91163 0.43317 0.0
H2692 H 0.67843 0.90119 0.45106 0.0
H2693 H 0.61121 0.82421 0.48556 0.0
H2694 H 0.61205 0.84199 0.46615 0.0
H2695 H 0.65797 0.87518 0.48456 0.0
H2696 H 0.65723 0.85747 0.50386 0.0
H2697 H 0.65493 0.87354 0.45257 0.0
H2698 H 0.62806 0.87854 0.49587 0.0
H2699 H 0.60788 0.86898 0.51411 0.0
H2700 H 0.57445 0.85263 0.47364 0.0
H2701 H 0.59444 0.86191 0.45515 0.0
C2702 C 0.65557 0.93544 0.43218 0.0
C2703 C 0.64471 0.93442 0.42049 0.0
C2704 C 0.65342 0.9223 0.4393 0.0
C2705 C 0.64031 0.90788 0.43499 0.0
C2706 C 0.62937 0.90677 0.42339 0.0
C2707 C 0.6316 0.91991 0.41609 0.0
C2708 C 0.63794 0.8942 0.44316 0.0
C2709 C 0.62604 0.88752 0.45291 0.0
C2710 C 0.64833 0.88892 0.4428 0.0
C2711 C 0.66067 0.89508 0.43206 0.0
C2712 C 0.65749 0.89507 0.41549 0.0
C2713 C 0.66916 0.90109 0.40546 0.0
C2714 C 0.68406 0.90707 0.41184 0.0
C2715 C 0.68732 0.907 0.42825 0.0
C2716 C 0.67569 0.90101 0.43834 0.0
C2717 C 0.62148 0.83531 0.48545 0.0
C2718 C 0.63415 0.83946 0.49626 0.0
C2719 C 0.62195 0.84544 0.47435 0.0
C2720 C 0.63503 0.85998 0.474 0.0
C2721 C 0.64778 0.86399 0.48455 0.0
C2722 C 0.64734 0.85385 0.49557 0.0
C2723 C 0.6354 0.87131 0.46307 0.0
C2724 C 0.64695 0.87758 0.4528 0.0
C2725 C 0.62474 0.87629 0.46303 0.0
C2726 C 0.61272 0.87075 0.47413 0.0
C2727 C 0.61639 0.87279 0.49086 0.0
C2728 C 0.605 0.86744 0.50124 0.0
C2729 C 0.58989 0.86015 0.49503 0.0
C2730 C 0.58615 0.85824 0.47843 0.0
C2731 C 0.59751 0.86355 0.468 0.0
H2732 H 0.58108 0.85602 0.50309 0.0
H2733 H 0.69309 0.91173 0.40406 0.0
H2734 H 0.09583 0.72627 0.36083 0.0
H2735 H 0.1079 0.73424 0.38838 0.0
H2736 H 0.07103 0.7392 0.40323 0.0
H2737 H 0.05881 0.73117 0.37574 0.0
H2738 H 0.09957 0.76481 0.41377 0.0
H2739 H 0.07314 0.70911 0.41329 0.0
H2740 H 0.06596 0.68251 0.40295 0.0
H2741 H 0.11217 0.69417 0.41024 0.0
H2742 H 0.11967 0.72093 0.42041 0.0
H2743 H 0.11513 0.77308 0.49805 0.0
H2744 H 0.10366 0.76461 0.47035 0.0
H2745 H 0.13819 0.75435 0.4588 0.0
H2746 H 0.14964 0.76266 0.48665 0.0
H2747 H 0.11153 0.73167 0.4461 0.0
H2748 H 0.13841 0.78683 0.4467 0.0
H2749 H 0.14646 0.81379 0.45655 0.0
H2750 H 0.10086 0.80391 0.4483 0.0
H2751 H 0.0925 0.77681 0.43861 0.0
C2752 C 0.09023 0.72897 0.36996 0.0
C2753 C 0.07634 0.72807 0.36606 0.0
C2754 C 0.09713 0.73348 0.3857 0.0
C2755 C 0.09033 0.73726 0.39783 0.0
C2756 C 0.07646 0.73633 0.39403 0.0
C2757 C 0.06946 0.73167 0.37832 0.0
C2758 C 0.09785 0.74252 0.41443 0.0
C2759 C 0.10202 0.7575 0.42094 0.0
C2760 C 0.10148 0.73316 0.42353 0.0
C2761 C 0.09698 0.71707 0.41745 0.0
C2762 C 0.08179 0.70605 0.41255 0.0
C2763 C 0.07766 0.69093 0.40675 0.0
C2764 C 0.08861 0.68667 0.4059 0.0
C2765 C 0.10371 0.6975 0.41088 0.0
C2766 C 0.1079 0.71264 0.41668 0.0
C2767 C 0.12038 0.76919 0.48956 0.0
C2768 C 0.13335 0.76865 0.49448 0.0
C2769 C 0.11381 0.76434 0.47373 0.0
C2770 C 0.12018 0.75905 0.46241 0.0
C2771 C 0.13309 0.7584 0.46732 0.0
C2772 C 0.13961 0.76314 0.48321 0.0
C2773 C 0.11319 0.75396 0.44556 0.0
C2774 C 0.10914 0.73902 0.43896 0.0
C2775 C 0.10982 0.76344 0.43629 0.0
C2776 C 0.11481 0.77975 0.44206 0.0
C2777 C 0.13008 0.79037 0.4471 0.0
C2778 C 0.1347 0.80568 0.45264 0.0
C2779 C 0.12417 0.81055 0.45309 0.0
C2780 C 0.109 0.80012 0.44796 0.0
C2781 C 0.10432 0.78478 0.44243 0.0
H2782 H 0.12777 0.82241 0.45738 0.0
H2783 H 0.08539 0.67496 0.40141 0.0
H2784 H 0.3056 0.04947 0.68603 0.0
H2785 H 0.29883 0.05855 0.71009 0.0
H2786 H 0.33207 0.05415 0.73921 0.0
H2787 H 0.33885 0.04489 0.71524 0.0
H2788 H 0.30578 0.04362 0.75338 0.0
H2789 H 0.33979 0.08912 0.72832 0.0
H2790 H 0.34856 0.10563 0.70597 0.0
H2791 H 0.30797 0.10783 0.703 0.0
H2792 H 0.29887 0.09114 0.7252 0.0
H2793 H 0.3162 0.0914 0.8235 0.0
H2794 H 0.31917 0.0796 0.7988 0.0
H2795 H 0.28761 0.08859 0.77254 0.0
H2796 H 0.28515 0.10119 0.79718 0.0
H2797 H 0.31115 0.09582 0.75621 0.0
H2798 H 0.27768 0.05168 0.78236 0.0
H2799 H 0.26893 0.03537 0.80486 0.0
H2800 H 0.30798 0.03042 0.8058 0.0
H2801 H 0.31708 0.0469 0.78346 0.0
C2802 C 0.31142 0.05031 0.69755 0.0
C2803 C 0.32287 0.04654 0.69865 0.0
C2804 C 0.30756 0.05556 0.71129 0.0
C2805 C 0.31508 0.05723 0.72641 0.0
C2806 C 0.32614 0.05298 0.72765 0.0
C2807 C 0.33003 0.04773 0.71391 0.0
C2808 C 0.31177 0.06385 0.74086 0.0
C2809 C 0.30708 0.05509 0.75408 0.0
C2810 C 0.31308 0.07864 0.74158 0.0
C2811 C 0.31858 0.08874 0.7283 0.0
C2812 C 0.33269 0.09302 0.72282 0.0
C2813 C 0.33773 0.10243 0.71019 0.0
C2814 C 0.32881 0.10774 0.70304 0.0
C2815 C 0.31486 0.10368 0.70853 0.0
C2816 C 0.30975 0.09426 0.72114 0.0
C2817 C 0.31 0.09105 0.81246 0.0
C2818 C 0.30049 0.09734 0.81233 0.0
C2819 C 0.31155 0.08408 0.79836 0.0
C2820 C 0.30344 0.08297 0.78384 0.0
C2821 C 0.29392 0.08923 0.78363 0.0
C2822 C 0.29243 0.09632 0.79775 0.0
C2823 C 0.30526 0.07565 0.76884 0.0
C2824 C 0.30969 0.08429 0.7555 0.0
C2825 C 0.30366 0.06072 0.768 0.0
C2826 C 0.29812 0.05063 0.78131 0.0
C2827 C 0.28445 0.0472 0.78743 0.0
C2828 C 0.27942 0.03791 0.80015 0.0
C2829 C 0.28791 0.03189 0.80678 0.0
C2830 C 0.30142 0.0351 0.80066 0.0
C2831 C 0.30651 0.0444 0.78796 0.0
H2832 H 0.284 0.02471 0.81663 0.0
H2833 H 0.33273 0.11502 0.69326 0.0
H2834 H 0.95977 0.24561 0.7562 0.0
H2835 H 0.9454 0.22334 0.77146 0.0
H2836 H 0.91238 0.23726 0.77703 0.0
H2837 H 0.92682 0.25958 0.76226 0.0
H2838 H 0.92195 0.23346 0.805 0.0
H2839 H 0.90497 0.20416 0.75288 0.0
H2840 H 0.90803 0.19459 0.72638 0.0
H2841 H 0.93126 0.17418 0.74925 0.0
H2842 H 0.92851 0.18381 0.7759 0.0
H2843 H 0.86183 0.17083 0.8348 0.0
H2844 H 0.87706 0.18788 0.81531 0.0
H2845 H 0.91073 0.17512 0.82478 0.0
H2846 H 0.89567 0.15822 0.84477 0.0
H2847 H 0.90323 0.17762 0.79024 0.0
H2848 H 0.9191 0.20637 0.84246 0.0
H2849 H 0.91506 0.21542 0.8687 0.0
H2850 H 0.89319 0.23677 0.84496 0.0
H2851 H 0.89688 0.22762 0.81855 0.0
C2852 C 0.94929 0.24373 0.76042 0.0
C2853 C 0.94452 0.25447 0.75821 0.0
C2854 C 0.94108 0.23098 0.76911 0.0
C2855 C 0.92784 0.22867 0.77546 0.0
C2856 C 0.92265 0.2389 0.7724 0.0
C2857 C 0.93092 0.25169 0.76394 0.0
C2858 C 0.92004 0.21653 0.78648 0.0
C2859 C 0.91774 0.22124 0.80165 0.0
C2860 C 0.91503 0.20065 0.78238 0.0
C2861 C 0.91669 0.19486 0.76637 0.0
C2862 C 0.91085 0.19775 0.75225 0.0
C2863 C 0.91251 0.19229 0.73721 0.0
C2864 C 0.91988 0.18383 0.73613 0.0
C2865 C 0.92558 0.18077 0.7501 0.0
C2866 C 0.92397 0.18621 0.76518 0.0
C2867 C 0.87249 0.17166 0.83281 0.0
C2868 C 0.87769 0.16341 0.84157 0.0
C2869 C 0.88109 0.18128 0.82155 0.0
C2870 C 0.89503 0.18281 0.81874 0.0
C2871 C 0.89996 0.17402 0.8268 0.0
C2872 C 0.89136 0.16441 0.8382 0.0
C2873 C 0.90483 0.19461 0.80839 0.0
C2874 C 0.90758 0.18987 0.7935 0.0
C2875 C 0.91025 0.21052 0.81266 0.0
C2876 C 0.90816 0.2162 0.82853 0.0
C2877 C 0.91332 0.21289 0.84283 0.0
C2878 C 0.91111 0.21805 0.85774 0.0
C2879 C 0.90384 0.22664 0.8585 0.0
C2880 C 0.8988 0.23011 0.84435 0.0
C2881 C 0.90097 0.22495 0.82941 0.0
H2882 H 0.90214 0.23063 0.87005 0.0
H2883 H 0.92114 0.1796 0.72447 0.0
H2884 H 0.77845 0.69702 0.70531 0.0
H2885 H 0.79145 0.70441 0.73249 0.0
H2886 H 0.74913 0.67598 0.75192 0.0
H2887 H 0.73604 0.66846 0.72486 0.0
H2888 H 0.76612 0.70575 0.76787 0.0
H2889 H 0.77316 0.66366 0.74849 0.0
H2890 H 0.78179 0.64997 0.73054 0.0
H2891 H 0.82749 0.68755 0.74065 0.0
H2892 H 0.8191 0.70164 0.75839 0.0
H2893 H 0.78472 0.69558 0.84628 0.0
H2894 H 0.77567 0.6933 0.81819 0.0
H2895 H 0.82156 0.71814 0.80587 0.0
H2896 H 0.83072 0.71978 0.83395 0.0
H2897 H 0.80534 0.69343 0.78545 0.0
H2898 H 0.79951 0.73508 0.80568 0.0
H2899 H 0.79183 0.74937 0.82408 0.0
H2900 H 0.74534 0.71418 0.81253 0.0
H2901 H 0.75275 0.69954 0.79423 0.0
C2902 C 0.77189 0.69232 0.71536 0.0
C2903 C 0.75619 0.68214 0.7129 0.0
C2904 C 0.77936 0.69652 0.73087 0.0
C2905 C 0.77125 0.69069 0.74418 0.0
C2906 C 0.75558 0.6806 0.74178 0.0
C2907 C 0.74813 0.67628 0.7263 0.0
C2908 C 0.77896 0.69526 0.7607 0.0
C2909 C 0.77462 0.70296 0.77177 0.0
C2910 C 0.79047 0.69215 0.76556 0.0
C2911 C 0.79545 0.68383 0.75456 0.0
C2912 C 0.78502 0.66913 0.74669 0.0
C2913 C 0.78988 0.66127 0.73659 0.0
C2914 C 0.80517 0.66792 0.73438 0.0
C2915 C 0.81564 0.68245 0.74229 0.0
C2916 C 0.81083 0.69038 0.75235 0.0
C2917 C 0.7929 0.70054 0.8376 0.0
C2918 C 0.80844 0.70781 0.84235 0.0
C2919 C 0.78772 0.6994 0.82156 0.0
C2920 C 0.79794 0.70571 0.80993 0.0
C2921 C 0.81348 0.71322 0.81465 0.0
C2922 C 0.81869 0.71428 0.83072 0.0
C2923 C 0.79227 0.70364 0.79276 0.0
C2924 C 0.797 0.69643 0.78153 0.0
C2925 C 0.78125 0.70737 0.78769 0.0
C2926 C 0.77671 0.71615 0.79866 0.0
C2927 C 0.78766 0.73032 0.80715 0.0
C2928 C 0.78335 0.7385 0.81755 0.0
C2929 C 0.76811 0.73267 0.81949 0.0
C2930 C 0.75714 0.71867 0.81102 0.0
C2931 C 0.76139 0.71044 0.80061 0.0
H2932 H 0.7648 0.73902 0.82755 0.0
H2933 H 0.80891 0.66179 0.7266 0.0
H2934 H 0.75658 0.66819 0.64221 0.0
H2935 H 0.76932 0.66206 0.6219 0.0
H2936 H 0.74453 0.61382 0.63069 0.0
H2937 H 0.73175 0.61989 0.65123 0.0
H2938 H 0.78652 0.64727 0.61971 0.0
H2939 H 0.73147 0.59392 0.59257 0.0
H2940 H 0.70396 0.58259 0.59271 0.0
H2941 H 0.71012 0.62826 0.60053 0.0
H2942 H 0.73761 0.63983 0.60021 0.0
H2943 H 0.80275 0.61689 0.54926 0.0
H2944 H 0.79215 0.61715 0.57465 0.0
H2945 H 0.76868 0.63822 0.55323 0.0
H2946 H 0.77897 0.63769 0.5277 0.0
H2947 H 0.75104 0.6156 0.57203 0.0
H2948 H 0.80169 0.66032 0.57572 0.0
H2949 H 0.8292 0.67302 0.57466 0.0
H2950 H 0.83215 0.64717 0.61249 0.0
H2951 H 0.80459 0.63412 0.61361 0.0
C2952 C 0.75407 0.65634 0.64015 0.0
C2953 C 0.74302 0.6445 0.64822 0.0
C2954 C 0.76144 0.65287 0.62857 0.0
C2955 C 0.75775 0.63748 0.6247 0.0
C2956 C 0.74747 0.62577 0.63348 0.0
C2957 C 0.7402 0.62927 0.64521 0.0
C2958 C 0.76321 0.6336 0.61018 0.0
C2959 C 0.77877 0.64015 0.60936 0.0
C2960 C 0.75309 0.62449 0.59662 0.0
C2961 C 0.73658 0.6177 0.59657 0.0
C2962 C 0.72693 0.60152 0.59428 0.0
C2963 C 0.71135 0.59507 0.59439 0.0
C2964 C 0.7053 0.6047 0.59669 0.0
C2965 C 0.71481 0.62081 0.59881 0.0
C2966 C 0.73039 0.62732 0.59869 0.0
C2967 C 0.7951 0.62131 0.54988 0.0
C2968 C 0.79167 0.62728 0.53651 0.0
C2969 C 0.78916 0.62155 0.56442 0.0
C2970 C 0.77974 0.62781 0.56584 0.0
C2971 C 0.77593 0.63333 0.55237 0.0
C2972 C 0.78189 0.63313 0.53785 0.0
C2973 C 0.77436 0.62933 0.5815 0.0
C2974 C 0.75879 0.62236 0.5825 0.0
C2975 C 0.78449 0.63819 0.59514 0.0
C2976 C 0.80107 0.64616 0.59465 0.0
C2977 C 0.80819 0.65727 0.58374 0.0
C2978 C 0.82379 0.66453 0.58313 0.0
C2979 C 0.83241 0.66087 0.59348 0.0
C2980 C 0.82545 0.64996 0.60447 0.0
C2981 C 0.80984 0.64264 0.6051 0.0
H2982 H 0.84449 0.66655 0.59301 0.0
H2983 H 0.69324 0.59968 0.59679 0.0
H2984 H 0.33806 0.06551 0.64461 0.0
H2985 H 0.34198 0.08709 0.62939 0.0
H2986 H 0.38977 0.10395 0.63274 0.0
H2987 H 0.38587 0.08249 0.64849 0.0
H2988 H 0.38524 0.12768 0.63478 0.0
H2989 H 0.36619 0.08164 0.59881 0.0
H2990 H 0.34876 0.05428 0.58856 0.0
H2991 H 0.31236 0.06338 0.58286 0.0
H2992 H 0.32954 0.09076 0.59329 0.0
H2993 H 0.39808 0.16997 0.5649 0.0
H2994 H 0.39627 0.15203 0.58452 0.0
H2995 H 0.34955 0.13782 0.5878 0.0
H2996 H 0.35134 0.15602 0.56859 0.0
H2997 H 0.35444 0.11314 0.58224 0.0
H2998 H 0.37473 0.16003 0.61799 0.0
H2999 H 0.39309 0.18736 0.62744 0.0
H3000 H 0.42844 0.17662 0.63221 0.0
H3001 H 0.41033 0.14924 0.62257 0.0
C3002 C 0.34939 0.0738 0.64212 0.0
C3003 C 0.36161 0.07214 0.64739 0.0
C3004 C 0.35164 0.08617 0.63344 0.0
C3005 C 0.36612 0.0969 0.62949 0.0
C3006 C 0.37848 0.09575 0.63552 0.0
C3007 C 0.37625 0.08349 0.64449 0.0
C3008 C 0.36816 0.10878 0.61844 0.0
C3009 C 0.37864 0.12448 0.62321 0.0
C3010 C 0.35947 0.10464 0.60337 0.0
C3011 C 0.34913 0.08821 0.59696 0.0
C3012 C 0.35445 0.07778 0.59546 0.0
C3013 C 0.34462 0.06228 0.58961 0.0
C3014 C 0.32945 0.05709 0.5851 0.0
C3015 C 0.3241 0.06741 0.58638 0.0
C3016 C 0.33388 0.08293 0.59225 0.0
C3017 C 0.38749 0.16325 0.57001 0.0
C3018 C 0.37484 0.1644 0.56509 0.0
C3019 C 0.38647 0.15297 0.58118 0.0
C3020 C 0.37279 0.14364 0.58762 0.0
C3021 C 0.3602 0.14489 0.58291 0.0
C3022 C 0.36123 0.15523 0.57185 0.0
C3023 C 0.37133 0.13202 0.59868 0.0
C3024 C 0.36101 0.11633 0.59383 0.0
C3025 C 0.38031 0.13618 0.61353 0.0
C3026 C 0.3912 0.15261 0.6194 0.0
C3027 C 0.38644 0.16352 0.62092 0.0
C3028 C 0.3968 0.17902 0.62634 0.0
C3029 C 0.41193 0.18374 0.63038 0.0
C3030 C 0.41672 0.17295 0.62905 0.0
C3031 C 0.40641 0.15744 0.62363 0.0
H3032 H 0.41993 0.19574 0.63457 0.0
H3033 H 0.32186 0.04508 0.58057 0.0
H3034 H 0.91618 0.28734 0.70455 0.0
H3035 H 0.9042 0.28063 0.677 0.0
H3036 H 0.9344 0.26484 0.66331 0.0
H3037 H 0.94697 0.27241 0.69064 0.0
H3038 H 0.93127 0.27861 0.64057 0.0
H3039 H 0.89571 0.23952 0.67081 0.0
H3040 H 0.87923 0.22891 0.69259 0.0
H3041 H 0.85411 0.25021 0.67711 0.0
H3042 H 0.87057 0.26111 0.65535 0.0
H3043 H 0.88319 0.22619 0.57266 0.0
H3044 H 0.89495 0.23523 0.60019 0.0
H3045 H 0.8813 0.26943 0.60221 0.0
H3046 H 0.87031 0.26122 0.57427 0.0
H3047 H 0.87554 0.24686 0.63022 0.0
H3048 H 0.91281 0.28545 0.59898 0.0
H3049 H 0.9288 0.29296 0.57649 0.0
H3050 H 0.9502 0.2685 0.59377 0.0
H3051 H 0.93413 0.26063 0.61621 0.0
C3052 C 0.92028 0.28248 0.69563 0.0
C3053 C 0.93245 0.28033 0.69974 0.0
C3054 C 0.91336 0.27854 0.6799 0.0
C3055 C 0.91813 0.27187 0.66809 0.0
C3056 C 0.93046 0.26994 0.67216 0.0
C3057 C 0.93763 0.27425 0.68779 0.0
C3058 C 0.91033 0.26693 0.6515 0.0
C3059 C 0.91909 0.27156 0.63841 0.0
C3060 C 0.89439 0.2578 0.64849 0.0
C3061 C 0.88448 0.25127 0.66156 0.0
C3062 C 0.88674 0.24204 0.67213 0.0
C3063 C 0.8774 0.23596 0.68446 0.0
C3064 C 0.86566 0.23892 0.68626 0.0
C3065 C 0.86322 0.24794 0.67571 0.0
C3066 C 0.87255 0.25407 0.66337 0.0
C3067 C 0.88284 0.2358 0.57879 0.0
C3068 C 0.8759 0.24306 0.57106 0.0
C3069 C 0.88945 0.24082 0.59459 0.0
C3070 C 0.88899 0.25299 0.60312 0.0
C3071 C 0.88169 0.25997 0.59576 0.0
C3072 C 0.87533 0.25517 0.57981 0.0
C3073 C 0.89651 0.25861 0.61961 0.0
C3074 C 0.8877 0.25402 0.63258 0.0
C3075 C 0.91237 0.26742 0.62252 0.0
C3076 C 0.92216 0.27232 0.60916 0.0
C3077 C 0.92082 0.28155 0.59789 0.0
C3078 C 0.92992 0.28589 0.58517 0.0
C3079 C 0.94048 0.28117 0.58367 0.0
C3080 C 0.942 0.27213 0.59493 0.0
C3081 C 0.93291 0.26774 0.60765 0.0
H3082 H 0.94752 0.28455 0.57382 0.0
H3083 H 0.85843 0.23421 0.69581 0.0
H3084 H 0.36893 0.29527 0.70504 0.0
H3085 H 0.37408 0.28525 0.68042 0.0
H3086 H 0.33397 0.28044 0.65557 0.0
H3087 H 0.3287 0.2905 0.68018 0.0
H3088 H 0.33625 0.25393 0.65114 0.0
H3089 H 0.3672 0.30871 0.64756 0.0
H3090 H 0.38655 0.33565 0.65725 0.0
H3091 H 0.41991 0.32215 0.66264 0.0
H3092 H 0.40069 0.29506 0.65319 0.0
H3093 H 0.34909 0.23692 0.57254 0.0
H3094 H 0.34461 0.24852 0.59648 0.0
H3095 H 0.38721 0.25823 0.61992 0.0
H3096 H 0.39184 0.24676 0.59582 0.0
H3097 H 0.38365 0.28246 0.62511 0.0
H3098 H 0.35336 0.22798 0.62949 0.0
H3099 H 0.33435 0.20074 0.62043 0.0
H3100 H 0.30022 0.21313 0.61452 0.0
H3101 H 0.31907 0.2405 0.62332 0.0
C3102 C 0.36124 0.29219 0.69433 0.0
C3103 C 0.34838 0.29368 0.69461 0.0
C3104 C 0.36424 0.28651 0.68024 0.0
C3105 C 0.35445 0.28217 0.66616 0.0
C3106 C 0.34168 0.28375 0.66632 0.0
C3107 C 0.33872 0.28956 0.68038 0.0
C3108 C 0.35729 0.27545 0.65145 0.0
C3109 C 0.3465 0.26024 0.64528 0.0
C3110 C 0.37088 0.28353 0.64415 0.0
C3111 C 0.38247 0.29982 0.64981 0.0
C3112 C 0.37863 0.31145 0.65094 0.0
C3113 C 0.38958 0.32676 0.65637 0.0
C3114 C 0.40444 0.3306 0.6606 0.0
C3115 C 0.40839 0.31915 0.65938 0.0
C3116 C 0.39747 0.30382 0.65397 0.0
C3117 C 0.35742 0.24135 0.58287 0.0
C3118 C 0.37074 0.24078 0.58238 0.0
C3119 C 0.35486 0.24801 0.59654 0.0
C3120 C 0.36546 0.25404 0.61011 0.0
C3121 C 0.37886 0.25362 0.60961 0.0
C3122 C 0.38149 0.24707 0.59585 0.0
C3123 C 0.3626 0.26091 0.62473 0.0
C3124 C 0.37338 0.27614 0.63093 0.0
C3125 C 0.34905 0.25278 0.63215 0.0
C3126 C 0.33766 0.23632 0.62692 0.0
C3127 C 0.34182 0.22492 0.62614 0.0
C3128 C 0.33107 0.20945 0.62107 0.0
C3129 C 0.31609 0.20522 0.61686 0.0
C3130 C 0.31183 0.21643 0.61776 0.0
C3131 C 0.32254 0.23192 0.6228 0.0
H3132 H 0.30779 0.19324 0.61294 0.0
H3133 H 0.4129 0.34246 0.66479 0.0
H3134 H 0.73886 0.06859 0.61495 0.0
H3135 H 0.75442 0.09029 0.59983 0.0
H3136 H 0.73879 0.11792 0.62415 0.0
H3137 H 0.72339 0.09627 0.63971 0.0
H3138 H 0.74567 0.10355 0.57884 0.0
H3139 H 0.76666 0.15646 0.62566 0.0
H3140 H 0.77273 0.1631 0.65499 0.0
H3141 H 0.78294 0.12667 0.6583 0.0
H3142 H 0.77712 0.11995 0.62898 0.0
H3143 H 0.77979 0.16938 0.5361 0.0
H3144 H 0.76408 0.15199 0.55508 0.0
H3145 H 0.80386 0.15922 0.58312 0.0
H3146 H 0.81971 0.17763 0.56498 0.0
H3147 H 0.78413 0.1566 0.60247 0.0
H3148 H 0.78244 0.12735 0.55324 0.0
H3149 H 0.77775 0.12045 0.52388 0.0
H3150 H 0.73155 0.1083 0.52556 0.0
H3151 H 0.73602 0.11524 0.55487 0.0
C3152 C 0.73889 0.07934 0.61732 0.0
C3153 C 0.72993 0.08072 0.62862 0.0
C3154 C 0.74772 0.09171 0.60856 0.0
C3155 C 0.74778 0.10573 0.61085 0.0
C3156 C 0.73904 0.10726 0.62231 0.0
C3157 C 0.73023 0.09487 0.63117 0.0
C3158 C 0.75663 0.11844 0.6008 0.0
C3159 C 0.75406 0.11516 0.58402 0.0
C3160 C 0.7676 0.13357 0.60754 0.0
C3161 C 0.77128 0.1376 0.62516 0.0
C3162 C 0.77024 0.1499 0.63265 0.0
C3163 C 0.77364 0.15367 0.64927 0.0
C3164 C 0.77817 0.14528 0.65851 0.0
C3165 C 0.77937 0.13312 0.65114 0.0
C3166 C 0.776 0.12932 0.63453 0.0
C3167 C 0.78526 0.16762 0.54652 0.0
C3168 C 0.80107 0.17479 0.54884 0.0
C3169 C 0.77622 0.15749 0.55727 0.0
C3170 C 0.78277 0.15397 0.5703 0.0
C3171 C 0.79853 0.16164 0.57307 0.0
C3172 C 0.80759 0.17201 0.56253 0.0
C3173 C 0.77329 0.14166 0.58051 0.0
C3174 C 0.77568 0.14502 0.5973 0.0
C3175 C 0.76235 0.12648 0.5738 0.0
C3176 C 0.7596 0.12193 0.55622 0.0
C3177 C 0.7713 0.12324 0.54732 0.0
C3178 C 0.76867 0.11932 0.53069 0.0
C3179 C 0.75436 0.11396 0.52283 0.0
C3180 C 0.74263 0.11244 0.53162 0.0
C3181 C 0.7452 0.11635 0.54825 0.0
H3182 H 0.75236 0.11097 0.50995 0.0
H3183 H 0.78078 0.14821 0.67138 0.0
H3184 H 0.93558 0.66639 0.67274 0.0
H3185 H 0.92303 0.6602 0.64547 0.0
H3186 H 0.88464 0.65995 0.66405 0.0
H3187 H 0.89676 0.66499 0.6914 0.0
H3188 H 0.87437 0.6378 0.64299 0.0
H3189 H 0.91272 0.69089 0.64302 0.0
H3190 H 0.93839 0.71379 0.64689 0.0
H3191 H 0.95294 0.69248 0.6118 0.0
H3192 H 0.9274 0.66936 0.60787 0.0
H3193 H 0.84409 0.6442 0.56635 0.0
H3194 H 0.85575 0.64932 0.59404 0.0
H3195 H 0.88812 0.63753 0.57811 0.0
H3196 H 0.87655 0.6324 0.55043 0.0
H3197 H 0.90099 0.666 0.59746 0.0
H3198 H 0.86031 0.61262 0.59813 0.0
H3199 H 0.83355 0.59193 0.59395 0.0
H3200 H 0.82226 0.61732 0.62792 0.0
H3201 H 0.84894 0.63822 0.63219 0.0
C3202 C 0.92449 0.66507 0.67094 0.0
C3203 C 0.91713 0.6662 0.6841 0.0
C3204 C 0.91735 0.66163 0.65534 0.0
C3205 C 0.90296 0.65989 0.65258 0.0
C3206 C 0.8957 0.66119 0.6658 0.0
C3207 C 0.90265 0.66414 0.68142 0.0
C3208 C 0.89529 0.65629 0.63599 0.0
C3209 C 0.88019 0.64417 0.63313 0.0
C3210 C 0.9028 0.66443 0.62297 0.0
C3211 C 0.91818 0.67833 0.62527 0.0
C3212 C 0.92142 0.69104 0.63621 0.0
C3213 C 0.93595 0.70407 0.6384 0.0
C3214 C 0.9473 0.70457 0.62963 0.0
C3215 C 0.94414 0.69207 0.61861 0.0
C3216 C 0.92964 0.679 0.61638 0.0
C3217 C 0.85364 0.64261 0.5688 0.0
C3218 C 0.85942 0.63787 0.55629 0.0
C3219 C 0.86024 0.6455 0.58459 0.0
C3220 C 0.87276 0.64379 0.58807 0.0
C3221 C 0.87845 0.6389 0.57563 0.0
C3222 C 0.87177 0.63585 0.55988 0.0
C3223 C 0.88027 0.64758 0.60462 0.0
C3224 C 0.89528 0.65973 0.60742 0.0
C3225 C 0.87256 0.6398 0.61765 0.0
C3226 C 0.8566 0.62702 0.6154 0.0
C3227 C 0.85211 0.61381 0.60466 0.0
C3228 C 0.83696 0.60204 0.60228 0.0
C3229 C 0.82621 0.60332 0.61065 0.0
C3230 C 0.8306 0.61634 0.62146 0.0
C3231 C 0.84574 0.62813 0.62389 0.0
H3232 H 0.81449 0.59421 0.60876 0.0
H3233 H 0.95854 0.71466 0.63135 0.0
H3234 H 0.9432 0.7259 0.74377 0.0
H3235 H 0.92877 0.73338 0.76074 0.0
H3236 H 0.90138 0.68582 0.77104 0.0
H3237 H 0.91569 0.67836 0.75447 0.0
H3238 H 0.88466 0.70043 0.76689 0.0
H3239 H 0.932 0.71023 0.79565 0.0
H3240 H 0.95974 0.72306 0.7996 0.0
H3241 H 0.9633 0.76774 0.80186 0.0
H3242 H 0.93556 0.75514 0.79773 0.0
H3243 H 0.86521 0.68793 0.84504 0.0
H3244 H 0.87564 0.69105 0.81923 0.0
H3245 H 0.89194 0.74016 0.82539 0.0
H3246 H 0.88081 0.73707 0.85101 0.0
H3247 H 0.91386 0.73227 0.81756 0.0
H3248 H 0.86582 0.72151 0.79719 0.0
H3249 H 0.8381 0.70858 0.79345 0.0
H3250 H 0.83535 0.66621 0.77529 0.0
H3251 H 0.86305 0.67877 0.77915 0.0
C3252 C 0.93392 0.71701 0.74942 0.0
C3253 C 0.93065 0.70153 0.7478 0.0
C3254 C 0.92569 0.7213 0.75909 0.0
C3255 C 0.91405 0.71015 0.76717 0.0
C3256 C 0.91025 0.69459 0.76482 0.0
C3257 C 0.91852 0.69034 0.75535 0.0
C3258 C 0.90677 0.71458 0.77948 0.0
C3259 C 0.891 0.70747 0.77795 0.0
C3260 C 0.91514 0.72423 0.79364 0.0
C3261 C 0.93176 0.73177 0.79616 0.0
C3262 C 0.93872 0.72279 0.79686 0.0
C3263 C 0.95443 0.73001 0.79916 0.0
C3264 C 0.96328 0.74621 0.80092 0.0
C3265 C 0.95643 0.7552 0.80044 0.0
C3266 C 0.94072 0.74803 0.79813 0.0
C3267 C 0.87069 0.69936 0.84083 0.0
C3268 C 0.87209 0.71223 0.85016 0.0
C3269 C 0.87668 0.70112 0.82605 0.0
C3270 C 0.88436 0.71579 0.82033 0.0
C3271 C 0.88595 0.72872 0.82958 0.0
C3272 C 0.87973 0.72694 0.8443 0.0
C3273 C 0.89168 0.7175 0.80528 0.0
C3274 C 0.90748 0.72572 0.80631 0.0
C3275 C 0.88331 0.70888 0.79066 0.0
C3276 C 0.86657 0.7011 0.78855 0.0
C3277 C 0.85932 0.70939 0.79255 0.0
C3278 C 0.84359 0.70213 0.79038 0.0
C3279 C 0.83497 0.68658 0.78418 0.0
C3280 C 0.84205 0.67825 0.78011 0.0
C3281 C 0.85777 0.68545 0.78226 0.0
H3282 H 0.8228 0.68098 0.78249 0.0
H3283 H 0.97544 0.75178 0.8027 0.0
H3284 H 0.29183 0.25575 0.73459 0.0
H3285 H 0.28698 0.23285 0.74825 0.0
H3286 H 0.32816 0.26074 0.77928 0.0
H3287 H 0.33304 0.28352 0.76584 0.0
H3288 H 0.32494 0.23303 0.76815 0.0
H3289 H 0.29437 0.25165 0.79208 0.0
H3290 H 0.2747 0.2588 0.79138 0.0
H3291 H 0.24173 0.2127 0.77109 0.0
H3292 H 0.26127 0.20534 0.77148 0.0
H3293 H 0.31923 0.19428 0.83672 0.0
H3294 H 0.32101 0.21231 0.81736 0.0
H3295 H 0.27706 0.17816 0.79443 0.0
H3296 H 0.27514 0.16005 0.81401 0.0
H3297 H 0.27957 0.20588 0.79769 0.0
H3298 H 0.30929 0.18618 0.77678 0.0
H3299 H 0.32877 0.17878 0.77749 0.0
H3300 H 0.36306 0.22621 0.79133 0.0
H3301 H 0.34376 0.23388 0.79094 0.0
C3302 C 0.29988 0.25697 0.74427 0.0
C3303 C 0.31287 0.27146 0.74907 0.0
C3304 C 0.29707 0.24389 0.75208 0.0
C3305 C 0.30719 0.24512 0.76482 0.0
C3306 C 0.32025 0.25951 0.76942 0.0
C3307 C 0.32303 0.27254 0.76169 0.0
C3308 C 0.30418 0.23161 0.77374 0.0
C3309 C 0.31506 0.22712 0.77467 0.0
C3310 C 0.29104 0.22359 0.78181 0.0
C3311 C 0.27931 0.228 0.78163 0.0
C3312 C 0.28295 0.24308 0.78734 0.0
C3313 C 0.27182 0.24716 0.78703 0.0
C3314 C 0.25698 0.23623 0.78114 0.0
C3315 C 0.25323 0.22117 0.77561 0.0
C3316 C 0.26432 0.21703 0.77589 0.0
C3317 C 0.31001 0.19054 0.82745 0.0
C3318 C 0.2971 0.1757 0.82678 0.0
C3319 C 0.31104 0.20085 0.81637 0.0
C3320 C 0.29929 0.19649 0.80424 0.0
C3321 C 0.28629 0.18174 0.80365 0.0
C3322 C 0.2852 0.17143 0.81483 0.0
C3323 C 0.30056 0.20756 0.79247 0.0
C3324 C 0.28935 0.21158 0.79097 0.0
C3325 C 0.31336 0.21511 0.7838 0.0
C3326 C 0.32505 0.21058 0.78392 0.0
C3327 C 0.32097 0.19502 0.78008 0.0
C3328 C 0.33198 0.19078 0.78041 0.0
C3329 C 0.34714 0.20201 0.78448 0.0
C3330 C 0.35131 0.21752 0.78818 0.0
C3331 C 0.34034 0.22182 0.78788 0.0
H3332 H 0.35565 0.1987 0.78474 0.0
H3333 H 0.24838 0.23941 0.78091 0.0
H3334 H 0.72378 0.04241 0.69987 0.0
H3335 H 0.73725 0.04947 0.72672 0.0
H3336 H 0.77831 0.08204 0.70733 0.0
H3337 H 0.76504 0.07419 0.68031 0.0
H3338 H 0.78544 0.06923 0.72813 0.0
H3339 H 0.75493 0.09271 0.72919 0.0
H3340 H 0.73158 0.09383 0.72596 0.0
H3341 H 0.71249 0.06145 0.7613 0.0
H3342 H 0.73566 0.05999 0.7646 0.0
H3343 H 0.82189 0.11442 0.80417 0.0
H3344 H 0.80924 0.10583 0.77673 0.0
H3345 H 0.77369 0.0642 0.79337 0.0
H3346 H 0.78638 0.07262 0.82074 0.0
H3347 H 0.76415 0.08185 0.77442 0.0
H3348 H 0.79661 0.05997 0.77312 0.0
H3349 H 0.82112 0.06122 0.77641 0.0
H3350 H 0.83802 0.09416 0.74129 0.0
H3351 H 0.81366 0.09328 0.73796 0.0
C3352 C 0.73569 0.05106 0.70137 0.0
C3353 C 0.74336 0.05781 0.68804 0.0
C3354 C 0.74337 0.05519 0.71675 0.0
C3355 C 0.75877 0.06659 0.71921 0.0
C3356 C 0.76645 0.07324 0.70582 0.0
C3357 C 0.75886 0.06878 0.69038 0.0
C3358 C 0.7669 0.0715 0.73566 0.0
C3359 C 0.78083 0.07219 0.73816 0.0
C3360 C 0.7609 0.07522 0.74892 0.0
C3361 C 0.74697 0.07613 0.74702 0.0
C3362 C 0.74571 0.08575 0.7362 0.0
C3363 C 0.73251 0.08646 0.73437 0.0
C3364 C 0.72054 0.07768 0.74339 0.0
C3365 C 0.72176 0.06822 0.7543 0.0
C3366 C 0.73493 0.06746 0.75617 0.0
C3367 C 0.81144 0.10338 0.8019 0.0
C3368 C 0.80513 0.09412 0.81451 0.0
C3369 C 0.80426 0.09849 0.78627 0.0
C3370 C 0.79056 0.08438 0.78307 0.0
C3371 C 0.78427 0.07511 0.79563 0.0
C3372 C 0.79156 0.07987 0.81119 0.0
C3373 C 0.78253 0.07952 0.76672 0.0
C3374 C 0.76866 0.07888 0.76429 0.0
C3375 C 0.78875 0.07622 0.7535 0.0
C3376 C 0.80336 0.07667 0.75541 0.0
C3377 C 0.80559 0.06758 0.7662 0.0
C3378 C 0.81945 0.0682 0.76805 0.0
C3379 C 0.83113 0.07779 0.75909 0.0
C3380 C 0.82896 0.08675 0.74823 0.0
C3381 C 0.81513 0.08618 0.74635 0.0
H3382 H 0.84185 0.07826 0.76054 0.0
H3383 H 0.71033 0.07824 0.74195 0.0
H3384 H 0.07449 0.3712 0.02644 0.0
H3385 H 0.08659 0.36189 0.04498 0.0
H3386 H 0.04303 0.3269 0.05736 0.0
H3387 H 0.0308 0.33634 0.03901 0.0
H3388 H 0.0627 0.33965 0.08366 0.0
H3389 H 0.06203 0.31734 0.0316 0.0
H3390 H 0.06615 0.31688 0.00288 0.0
H3391 H 0.11383 0.34675 0.01483 0.0
H3392 H 0.10998 0.34758 0.04362 0.0
H3393 H 0.09297 0.29524 0.11862 0.0
H3394 H 0.07807 0.30291 0.10157 0.0
H3395 H 0.11906 0.34297 0.0905 0.0
H3396 H 0.13391 0.33543 0.10747 0.0
H3397 H 0.09896 0.3255 0.06338 0.0
H3398 H 0.09881 0.34821 0.11577 0.0
H3399 H 0.09411 0.34774 0.14435 0.0
H3400 H 0.047 0.3155 0.13141 0.0
H3401 H 0.05146 0.31561 0.10274 0.0
C3402 C 0.06746 0.36157 0.03315 0.0
C3403 C 0.05166 0.35445 0.03115 0.0
C3404 C 0.0744 0.35621 0.0437 0.0
C3405 C 0.06571 0.34352 0.05236 0.0
C3406 C 0.04996 0.33667 0.05075 0.0
C3407 C 0.04299 0.34206 0.04023 0.0
C3408 C 0.07311 0.33732 0.06288 0.0
C3409 C 0.07044 0.33633 0.07917 0.0
C3410 C 0.08332 0.33309 0.05706 0.0
C3411 C 0.0857 0.33264 0.03976 0.0
C3412 C 0.07339 0.32392 0.02809 0.0
C3413 C 0.07567 0.32357 0.01181 0.0
C3414 C 0.09024 0.33181 0.00703 0.0
C3415 C 0.10255 0.34039 0.01855 0.0
C3416 C 0.10032 0.34079 0.03485 0.0
C3417 C 0.09874 0.30571 0.1126 0.0
C3418 C 0.11456 0.31484 0.11448 0.0
C3419 C 0.09025 0.3101 0.10293 0.0
C3420 C 0.09749 0.32354 0.09485 0.0
C3421 C 0.11327 0.33259 0.09667 0.0
C3422 C 0.12172 0.32834 0.10646 0.0
C3423 C 0.08874 0.32811 0.08416 0.0
C3424 C 0.09113 0.32874 0.06782 0.0
C3425 C 0.07819 0.33184 0.08991 0.0
C3426 C 0.0755 0.33177 0.10713 0.0
C3427 C 0.08747 0.3409 0.11903 0.0
C3428 C 0.08485 0.34073 0.13524 0.0
C3429 C 0.07027 0.33156 0.1397 0.0
C3430 C 0.05828 0.32257 0.12794 0.0
C3431 C 0.06085 0.32269 0.11171 0.0
H3432 H 0.06826 0.33144 0.15226 0.0
H3433 H 0.09199 0.33153 0.99442 0.0
H3434 H 0.62357 0.67918 0.10651 0.0
H3435 H 0.63523 0.70666 0.11558 0.0
H3436 H 0.67619 0.71565 0.09546 0.0
H3437 H 0.66469 0.68805 0.08652 0.0
H3438 H 0.68201 0.72867 0.12575 0.0
H3439 H 0.6538 0.72806 0.07833 0.0
H3440 H 0.6314 0.71879 0.059 0.0
H3441 H 0.60868 0.7286 0.09527 0.0
H3442 H 0.63088 0.73772 0.11491 0.0
H3443 H 0.71412 0.8113 0.14152 0.0
H3444 H 0.70467 0.78513 0.12849 0.0
H3445 H 0.66234 0.76924 0.1488 0.0
H3446 H 0.6718 0.7952 0.16216 0.0
H3447 H 0.65878 0.76083 0.11604 0.0
H3448 H 0.6859 0.75919 0.16377 0.0
H3449 H 0.70808 0.76842 0.18334 0.0
H3450 H 0.73272 0.7628 0.1464 0.0
H3451 H 0.7107 0.75376 0.1265 0.0
C3452 C 0.63499 0.68699 0.10379 0.0
C3453 C 0.64319 0.68136 0.09583 0.0
C3454 C 0.64163 0.70274 0.10894 0.0
C3455 C 0.65656 0.71323 0.10611 0.0
C3456 C 0.66466 0.70775 0.09777 0.0
C3457 C 0.65803 0.69197 0.09262 0.0
C3458 C 0.66393 0.72971 0.11277 0.0
C3459 C 0.6771 0.73582 0.12336 0.0
C3460 C 0.65735 0.73891 0.10992 0.0
C3461 C 0.64398 0.73347 0.09813 0.0
C3462 C 0.64399 0.72813 0.08223 0.0
C3463 C 0.63133 0.72292 0.0712 0.0
C3464 C 0.61861 0.72308 0.07591 0.0
C3465 C 0.61854 0.72848 0.09165 0.0
C3466 C 0.63117 0.73369 0.10272 0.0
C3467 C 0.70291 0.80216 0.14347 0.0
C3468 C 0.69368 0.80535 0.15281 0.0
C3469 C 0.6975 0.78725 0.13593 0.0
C3470 C 0.68278 0.7753 0.13762 0.0
C3471 C 0.67368 0.77836 0.14722 0.0
C3472 C 0.6791 0.7932 0.15482 0.0
C3473 C 0.67667 0.75964 0.12915 0.0
C3474 C 0.66376 0.75372 0.11824 0.0
C3475 C 0.68348 0.75062 0.13169 0.0
C3476 C 0.69672 0.75598 0.14361 0.0
C3477 C 0.6961 0.76006 0.15978 0.0
C3478 C 0.70864 0.76523 0.17095 0.0
C3479 C 0.72184 0.76624 0.16613 0.0
C3480 C 0.7225 0.76204 0.15012 0.0
C3481 C 0.70999 0.75689 0.13889 0.0
H3482 H 0.73154 0.77025 0.17481 0.0
H3483 H 0.60882 0.71904 0.06736 0.0
H3484 H 0.30716 0.972 0.00408 0.0
H3485 H 0.28637 0.96325 0.02106 0.0
H3486 H 0.31169 0.95394 0.05697 0.0
H3487 H 0.33244 0.96244 0.03996 0.0
H3488 H 0.28241 0.93126 0.05296 0.0
H3489 H 0.31059 0.9874 0.0601 0.0
H3490 H 0.32199 0.01329 0.05014 0.0
H3491 H 0.27831 0.00354 0.0309 0.0
H3492 H 0.26666 0.97746 0.0405 0.0
H3493 H 0.24884 0.92945 0.12304 0.0
H3494 H 0.26714 0.93859 0.10313 0.0
H3495 H 0.23641 0.94476 0.07161 0.0
H3496 H 0.21799 0.93569 0.09168 0.0
H3497 H 0.26629 0.96827 0.07111 0.0
H3498 H 0.23788 0.91279 0.06527 0.0
H3499 H 0.22646 0.88665 0.07461 0.0
H3500 H 0.27039 0.89494 0.09073 0.0
H3501 H 0.28207 0.92124 0.08172 0.0
C3502 C 0.30825 0.96794 0.01552 0.0
C3503 C 0.32149 0.968 0.02073 0.0
C3504 C 0.29638 0.96301 0.02523 0.0
C3505 C 0.2976 0.95818 0.04037 0.0
C3506 C 0.31056 0.95767 0.04534 0.0
C3507 C 0.32241 0.96255 0.03561 0.0
C3508 C 0.28561 0.95408 0.05132 0.0
C3509 C 0.27897 0.93939 0.05704 0.0
C3510 C 0.28083 0.96457 0.05623 0.0
C3511 C 0.28776 0.98042 0.0509 0.0
C3512 C 0.30342 0.99075 0.05369 0.0
C3513 C 0.30993 0.00545 0.0481 0.0
C3514 C 0.30088 0.01005 0.03989 0.0
C3515 C 0.2853 -4e-05 0.03728 0.0
C3516 C 0.27873 0.98521 0.04279 0.0
C3517 C 0.24602 0.93286 0.11191 0.0
C3518 C 0.23193 0.93165 0.10877 0.0
C3519 C 0.25648 0.93809 0.10056 0.0
C3520 C 0.25299 0.94204 0.08577 0.0
C3521 C 0.23927 0.94169 0.08293 0.0
C3522 C 0.22879 0.93653 0.09438 0.0
C3523 C 0.26337 0.94557 0.07303 0.0
C3524 C 0.26965 0.96011 0.06694 0.0
C3525 C 0.26782 0.93494 0.0677 0.0
C3526 C 0.26085 0.91903 0.07292 0.0
C3527 C 0.2451 0.90908 0.0709 0.0
C3528 C 0.23858 0.89423 0.07613 0.0
C3529 C 0.24769 0.88915 0.08328 0.0
C3530 C 0.26335 0.8989 0.08519 0.0
C3531 C 0.26993 0.91377 0.08001 0.0
H3532 H 0.24262 0.87765 0.08733 0.0
H3533 H 0.30594 0.02143 0.03558 0.0
H3534 H 0.34622 0.01826 0.02243 0.0
H3535 H 0.33224 0.03202 0.02122 0.0
H3536 H 0.36707 0.06716 0.99614 0.0
H3537 H 0.38134 0.05393 0.99792 0.0
H3538 H 0.35527 0.07989 0.01397 0.0
H3539 H 0.33448 0.03178 0.97637 0.0
H3540 H 0.32296 0.00333 0.97171 0.0
H3541 H 0.28718 0.99695 0.00014 0.0
H3542 H 0.29858 0.02538 0.00504 0.0
H3543 H 0.33298 0.10124 0.94631 0.0
H3544 H 0.34073 0.08957 0.96658 0.0
H3545 H 0.29657 0.06853 0.98359 0.0
H3546 H 0.28871 0.08059 0.96335 0.0
H3547 H 0.30718 0.04802 0.9793 0.0
H3548 H 0.32432 0.09684 0.0076 0.0
H3549 H 0.33611 0.1253 0.01163 0.0
H3550 H 0.37871 0.13068 0.00122 0.0
H3551 H 0.36714 0.10226 0.99687 0.0
C3552 C 0.35107 0.02914 0.01702 0.0
C3553 C 0.36477 0.03486 0.00998 0.0
C3554 C 0.34304 0.03696 0.01631 0.0
C3555 C 0.34839 0.05039 0.00819 0.0
C3556 C 0.36265 0.05678 0.0024 0.0
C3557 C 0.3708 0.04914 0.00336 0.0
C3558 C 0.33866 0.05685 0.0037 0.0
C3559 C 0.34468 0.07292 0.00651 0.0
C3560 C 0.32449 0.04767 0.99456 0.0
C3561 C 0.31742 0.03064 0.99117 0.0
C3562 C 0.32416 0.02429 0.98161 0.0
C3563 C 0.31766 0.00818 0.97895 0.0
C3564 C 0.30436 0.99834 0.98565 0.0
C3565 C 0.29749 0.00459 0.99497 0.0
C3566 C 0.30395 0.02068 0.99768 0.0
C3567 C 0.32495 0.09439 0.95453 0.0
C3568 C 0.31028 0.09206 0.95336 0.0
C3569 C 0.3294 0.08769 0.96611 0.0
C3570 C 0.31933 0.07846 0.97681 0.0
C3571 C 0.30455 0.07576 0.97553 0.0
C3572 C 0.30007 0.08258 0.96392 0.0
C3573 C 0.32438 0.07118 0.98865 0.0
C3574 C 0.31744 0.05495 0.98728 0.0
C3575 C 0.33771 0.08023 0.99912 0.0
C3576 C 0.34483 0.09738 0.0019 0.0
C3577 C 0.33619 0.10409 0.00609 0.0
C3578 C 0.34284 0.12022 0.00844 0.0
C3579 C 0.35815 0.12979 0.00669 0.0
C3580 C 0.36685 0.12325 0.0026 0.0
C3581 C 0.36026 0.10712 0.00023 0.0
H3582 H 0.36328 0.14228 0.0085 0.0
H3583 H 0.29936 0.98588 0.98359 0.0
H3584 H 0.99223 0.30643 0.99325 0.0
H3585 H 0.97679 0.27855 0.98485 0.0
H3586 H 0.94055 0.28494 0.96658 0.0
H3587 H 0.95585 0.3127 0.97472 0.0
H3588 H 0.9491 0.25454 0.99075 0.0
H3589 H 0.92591 0.26436 0.93053 0.0
H3590 H 0.93383 0.28436 0.91145 0.0
H3591 H 0.98031 0.30106 0.92685 0.0
H3592 H 0.97268 0.28102 0.94583 0.0
H3593 H 0.88219 0.1884 0.95522 0.0
H3594 H 0.90268 0.21359 0.96719 0.0
H3595 H 0.93011 0.21449 0.92969 0.0
H3596 H 0.90938 0.18941 0.91733 0.0
H3597 H 0.93018 0.24073 0.93292 0.0
H3598 H 0.93884 0.2104 0.96868 0.0
H3599 H 0.93252 0.19026 0.98734 0.0
H3600 H 0.91819 0.21386 0.01991 0.0
H3601 H 0.92423 0.23404 0.00134 0.0
C3602 C 0.98089 0.30187 0.98767 0.0
C3603 C 0.97537 0.31186 0.98446 0.0
C3604 C 0.97208 0.28593 0.98288 0.0
C3605 C 0.95765 0.27975 0.9748 0.0
C3606 C 0.95178 0.28953 0.97251 0.0
C3607 C 0.96055 0.30541 0.97722 0.0
C3608 C 0.94897 0.2633 0.96788 0.0
C3609 C 0.94498 0.25147 0.97811 0.0
C3610 C 0.944 0.25932 0.95129 0.0
C3611 C 0.94871 0.27126 0.93969 0.0
C3612 C 0.93782 0.27224 0.92978 0.0
C3613 C 0.94226 0.2836 0.91899 0.0
C3614 C 0.95756 0.294 0.91797 0.0
C3615 C 0.96846 0.29303 0.92769 0.0
C3616 C 0.96409 0.28168 0.93847 0.0
C3617 C 0.89261 0.19393 0.94955 0.0
C3618 C 0.89412 0.18699 0.93524 0.0
C3619 C 0.90439 0.20825 0.95652 0.0
C3620 C 0.91799 0.2159 0.94942 0.0
C3621 C 0.91972 0.20878 0.9354 0.0
C3622 C 0.90791 0.19441 0.92841 0.0
C3623 C 0.9298 0.23189 0.95588 0.0
C3624 C 0.93439 0.2437 0.94554 0.0
C3625 C 0.93552 0.23578 0.9723 0.0
C3626 C 0.9319 0.22369 0.98355 0.0
C3627 C 0.93424 0.21124 0.97977 0.0
C3628 C 0.93072 0.19982 0.99034 0.0
C3629 C 0.92493 0.20076 0.00479 0.0
C3630 C 0.92268 0.21314 0.00871 0.0
C3631 C 0.92616 0.22459 0.99817 0.0
H3632 H 0.92222 0.19191 0.01296 0.0
H3633 H 0.96097 0.30279 0.90963 0.0
H3634 H 0.66446 0.62181 0.02667 0.0
H3635 H 0.68687 0.6314 0.01201 0.0
H3636 H 0.70883 0.67408 0.0433 0.0
H3637 H 0.68644 0.66469 0.05791 0.0
H3638 H 0.71378 0.67942 0.01212 0.0
H3639 H 0.71704 0.64608 0.0493 0.0
H3640 H 0.70802 0.62179 0.06223 0.0
H3641 H 0.70427 0.59728 0.01684 0.0
H3642 H 0.71307 0.62139 0.0036 0.0
H3643 H 0.78943 0.70518 0.99502 0.0
H3644 H 0.76657 0.69649 0.00883 0.0
H3645 H 0.74394 0.65408 0.97712 0.0
H3646 H 0.76653 0.66276 0.96308 0.0
H3647 H 0.73939 0.64877 0.00852 0.0
H3648 H 0.73638 0.68202 0.97133 0.0
H3649 H 0.74553 0.70625 0.95829 0.0
H3650 H 0.74886 0.73088 0.00343 0.0
H3651 H 0.73995 0.70682 0.0168 0.0
C3652 C 0.67402 0.63327 0.03039 0.0
C3653 C 0.6737 0.64243 0.04355 0.0
C3654 C 0.68683 0.63871 0.02202 0.0
C3655 C 0.69958 0.65336 0.02671 0.0
C3656 C 0.69912 0.66272 0.03952 0.0
C3657 C 0.68633 0.6573 0.04789 0.0
C3658 C 0.71354 0.65877 0.01856 0.0
C3659 C 0.71949 0.67282 0.0115 0.0
C3660 C 0.72081 0.65 0.01749 0.0
C3661 C 0.71556 0.6355 0.02544 0.0
C3662 C 0.71417 0.63548 0.04205 0.0
C3663 C 0.70912 0.62176 0.04944 0.0
C3664 C 0.70554 0.608 0.04035 0.0
C3665 C 0.70703 0.60795 0.02386 0.0
C3666 C 0.71206 0.62164 0.01641 0.0
C3667 C 0.77956 0.69404 0.99094 0.0
C3668 C 0.77985 0.68464 0.97799 0.0
C3669 C 0.76653 0.68909 0.99885 0.0
C3670 C 0.75355 0.67468 0.99392 0.0
C3671 C 0.75386 0.6652 0.98115 0.0
C3672 C 0.76683 0.67016 0.97321 0.0
C3673 C 0.73962 0.6694 0.00207 0.0
C3674 C 0.73368 0.65537 0.00914 0.0
C3675 C 0.73237 0.67818 0.00312 0.0
C3676 C 0.73765 0.69265 0.9951 0.0
C3677 C 0.73919 0.69263 0.97851 0.0
C3678 C 0.74431 0.70633 0.97105 0.0
C3679 C 0.74781 0.7201 0.98003 0.0
C3680 C 0.74616 0.7202 0.99649 0.0
C3681 C 0.74107 0.70654 0.00402 0.0
H3682 H 0.75177 0.7307 0.97424 0.0
H3683 H 0.70163 0.59738 0.0461 0.0
H3684 H 0.94199 0.63071 0.01698 0.0
H3685 H 0.93011 0.63937 0.99737 0.0
H3686 H 0.96644 0.68666 0.00884 0.0
H3687 H 0.97819 0.67812 0.02881 0.0
H3688 H 0.94052 0.68559 0.00807 0.0
H3689 H 0.96261 0.66503 0.97301 0.0
H3690 H 0.9683 0.64546 0.96178 0.0
H3691 H 0.92124 0.61415 0.94745 0.0
H3692 H 0.91523 0.63344 0.95884 0.0
H3693 H 0.91526 0.71391 0.94503 0.0
H3694 H 0.93143 0.70646 0.95979 0.0
H3695 H 0.8946 0.65914 0.95658 0.0
H3696 H 0.87824 0.6665 0.94231 0.0
H3697 H 0.92261 0.66159 0.95186 0.0
H3698 H 0.90062 0.68123 0.98916 0.0
H3699 H 0.89481 0.70069 0.00043 0.0
H3700 H 0.94209 0.73381 0.0104 0.0
H3701 H 0.9482 0.71461 0.99894 0.0
C3702 C 0.94752 0.64294 0.01526 0.0
C3703 C 0.96103 0.65373 0.02449 0.0
C3704 C 0.94075 0.64787 0.00396 0.0
C3705 C 0.94746 0.66366 0.00147 0.0
C3706 C 0.96105 0.67443 0.01053 0.0
C3707 C 0.96777 0.66952 0.02193 0.0
C3708 C 0.93991 0.66902 0.99 0.0
C3709 C 0.93689 0.68054 0.99569 0.0
C3710 C 0.93487 0.66222 0.97392 0.0
C3711 C 0.93846 0.65065 0.96689 0.0
C3712 C 0.95346 0.65393 0.96756 0.0
C3713 C 0.95674 0.64289 0.96116 0.0
C3714 C 0.94514 0.62856 0.95393 0.0
C3715 C 0.93022 0.62526 0.95306 0.0
C3716 C 0.92687 0.63624 0.95948 0.0
C3717 C 0.9106 0.7019 0.9474 0.0
C3718 C 0.89539 0.69085 0.94255 0.0
C3719 C 0.91989 0.69766 0.95575 0.0
C3720 C 0.91416 0.68227 0.95936 0.0
C3721 C 0.89925 0.67106 0.95383 0.0
C3722 C 0.88993 0.6753 0.9456 0.0
C3723 C 0.92326 0.67807 0.97 0.0
C3724 C 0.92648 0.66675 0.96418 0.0
C3725 C 0.92852 0.68505 0.98596 0.0
C3726 C 0.92487 0.69654 0.99302 0.0
C3727 C 0.90978 0.6927 0.99364 0.0
C3728 C 0.90643 0.70367 7e-05 0.0
C3729 C 0.91807 0.71849 0.00609 0.0
C3730 C 0.93309 0.72234 0.00571 0.0
C3731 C 0.9365 0.71141 0.99925 0.0
H3732 H 0.91545 0.72697 0.01107 0.0
H3733 H 0.94769 0.62003 0.94897 0.0
H3734 H 0.3377 0.32421 0.97154 0.0
H3735 H 0.32616 0.29667 0.96256 0.0
H3736 H 0.37031 0.30237 0.95965 0.0
H3737 H 0.3819 0.33006 0.968 0.0
H3738 H 0.35391 0.28773 0.93345 0.0
H3739 H 0.34602 0.28195 0.98912 0.0
H3740 H 0.33742 0.28556 0.01507 0.0
H3741 H 0.29175 0.26289 0.99346 0.0
H3742 H 0.3001 0.25932 0.96732 0.0
H3743 H 0.33353 0.20921 0.92314 0.0
H3744 H 0.3426 0.23524 0.93589 0.0
H3745 H 0.29855 0.22953 0.92568 0.0
H3746 H 0.2894 0.20347 0.91233 0.0
H3747 H 0.31355 0.24359 0.95821 0.0
H3748 H 0.32239 0.24947 0.90241 0.0
H3749 H 0.33165 0.24529 0.87716 0.0
H3750 H 0.37673 0.26758 0.90038 0.0
H3751 H 0.36769 0.27168 0.92585 0.0
C3752 C 0.34496 0.31955 0.96925 0.0
C3753 C 0.36072 0.32934 0.97039 0.0
C3754 C 0.33834 0.30376 0.96417 0.0
C3755 C 0.34735 0.29738 0.96049 0.0
C3756 C 0.36311 0.30702 0.96232 0.0
C3757 C 0.36973 0.32285 0.96714 0.0
C3758 C 0.34041 0.281 0.95352 0.0
C3759 C 0.34525 0.2781 0.93905 0.0
C3760 C 0.32877 0.2684 0.96051 0.0
C3761 C 0.32371 0.27051 0.97622 0.0
C3762 C 0.33416 0.27785 0.98987 0.0
C3763 C 0.32933 0.27986 0.00462 0.0
C3764 C 0.31406 0.2745 0.0059 0.0
C3765 C 0.30358 0.26706 0.99244 0.0
C3766 C 0.30835 0.26502 0.97766 0.0
C3767 C 0.32577 0.2135 0.92339 0.0
C3768 C 0.3108 0.20434 0.9164 0.0
C3769 C 0.33095 0.22833 0.93084 0.0
C3770 C 0.32127 0.2343 0.9316 0.0
C3771 C 0.30617 0.22506 0.92521 0.0
C3772 C 0.30098 0.2102 0.91759 0.0
C3773 C 0.32728 0.2505 0.93842 0.0
C3774 C 0.32222 0.25331 0.95273 0.0
C3775 C 0.33884 0.26305 0.93142 0.0
C3776 C 0.34434 0.26076 0.91607 0.0
C3777 C 0.33426 0.25337 0.90216 0.0
C3778 C 0.33947 0.25103 0.88781 0.0
C3779 C 0.35476 0.25613 0.88718 0.0
C3780 C 0.36488 0.26362 0.90089 0.0
C3781 C 0.35972 0.26597 0.91528 0.0
H3782 H 0.35878 0.25431 0.87605 0.0
H3783 H 0.31034 0.27607 0.01733 0.0
H3784 H 0.68878 0.05076 0.04823 0.0
H3785 H 0.70957 0.05982 0.03123 0.0
H3786 H 0.68075 0.05956 0.99171 0.0
H3787 H 0.65984 0.05053 0.00868 0.0
H3788 H 0.69557 0.04335 0.98409 0.0
H3789 H 0.7078 0.09321 0.00926 0.0
H3790 H 0.71309 0.11242 0.03213 0.0
H3791 H 0.75102 0.10895 0.05003 0.0
H3792 H 0.74583 0.08954 0.02738 0.0
H3793 H 0.75039 0.07912 0.92979 0.0
H3794 H 0.73035 0.07174 0.94747 0.0
H3795 H 0.76144 0.07875 0.98815 0.0
H3796 H 0.78182 0.08701 0.97061 0.0
H3797 H 0.74548 0.0915 0.99554 0.0
H3798 H 0.73383 0.04191 0.97156 0.0
H3799 H 0.72884 0.022 0.94957 0.0
H3800 H 0.69025 0.0238 0.93061 0.0
H3801 H 0.69513 0.04389 0.95237 0.0
C3802 C 0.68691 0.05284 0.03599 0.0
C3803 C 0.67266 0.0499 0.02978 0.0
C3804 C 0.69881 0.05805 0.02631 0.0
C3805 C 0.69667 0.06036 0.01024 0.0
C3806 C 0.68259 0.05783 0.0041 0.0
C3807 C 0.6707 0.05276 0.01383 0.0
C3808 C 0.70889 0.06452 0.99963 0.0
C3809 C 0.70642 0.05399 0.98641 0.0
C3810 C 0.72319 0.07811 0.00308 0.0
C3811 C 0.72634 0.0898 0.0167 0.0
C3812 C 0.71719 0.09644 0.01815 0.0
C3813 C 0.72019 0.10739 0.03105 0.0
C3814 C 0.73236 0.11188 0.04255 0.0
C3815 C 0.74158 0.10545 0.04113 0.0
C3816 C 0.73863 0.09449 0.02825 0.0
C3817 C 0.75301 0.07916 0.94251 0.0
C3818 C 0.76774 0.08373 0.94879 0.0
C3819 C 0.74148 0.07476 0.95259 0.0
C3820 C 0.74434 0.07453 0.96913 0.0
C3821 C 0.75897 0.07881 0.97542 0.0
C3822 C 0.77057 0.08337 0.96535 0.0
C3823 C 0.73217 0.07037 0.97989 0.0
C3824 C 0.73465 0.08085 0.99317 0.0
C3825 C 0.71793 0.05662 0.97662 0.0
C3826 C 0.71493 0.04451 0.96352 0.0
C3827 C 0.72435 0.03815 0.96263 0.0
C3828 C 0.72153 0.02682 0.95022 0.0
C3829 C 0.70926 0.02167 0.93868 0.0
C3830 C 0.69976 0.02782 0.93955 0.0
C3831 C 0.70254 0.03916 0.95193 0.0
H3832 H 0.7071 0.0129 0.92907 0.0
H3833 H 0.73466 0.12036 0.05253 0.0
H3834 H 0.66933 0.99775 0.06123 0.0
H3835 H 0.68247 0.9834 0.06442 0.0
H3836 H 0.63978 0.94046 0.06113 0.0
H3837 H 0.62653 0.95482 0.05846 0.0
H3838 H 0.65555 0.94356 0.08755 0.0
H3839 H 0.66611 0.9486 0.03279 0.0
H3840 H 0.6748 0.96203 0.00841 0.0
H3841 H 0.71953 0.9901 0.03218 0.0
H3842 H 0.71107 0.97699 0.0568 0.0
H3843 H 0.68552 0.89783 0.10325 0.0
H3844 H 0.6757 0.90875 0.08391 0.0
H3845 H 0.7142 0.95435 0.09767 0.0
H3846 H 0.72417 0.94338 0.11701 0.0
H3847 H 0.70042 0.9483 0.0634 0.0
H3848 H 0.68831 0.94603 0.11896 0.0
H3849 H 0.67994 0.93223 0.14321 0.0
H3850 H 0.63768 0.8988 0.11702 0.0
H3851 H 0.64594 0.91226 0.09251 0.0
C3852 C 0.66272 0.98521 0.06076 0.0
C3853 C 0.64687 0.97744 0.05987 0.0
C3854 C 0.67027 0.97699 0.06249 0.0
C3855 C 0.66213 0.96083 0.06304 0.0
C3856 C 0.6463 0.95294 0.06083 0.0
C3857 C 0.63874 0.96116 0.05932 0.0
C3858 C 0.66993 0.95258 0.0684 0.0
C3859 C 0.66512 0.94434 0.08196 0.0
C3860 C 0.68276 0.95397 0.0615 0.0
C3861 C 0.68791 0.96188 0.0467 0.0
C3862 C 0.67778 0.95772 0.03288 0.0
C3863 C 0.68267 0.96526 0.019 0.0
C3864 C 0.6977 0.97694 0.01876 0.0
C3865 C 0.70788 0.98106 0.03238 0.0
C3866 C 0.70305 0.97356 0.0463 0.0
C3867 C 0.69214 0.9101 0.10172 0.0
C3868 C 0.70543 0.91986 0.11174 0.0
C3869 C 0.68658 0.91629 0.09062 0.0
C3870 C 0.69415 0.93236 0.08955 0.0
C3871 C 0.70826 0.94191 0.0983 0.0
C3872 C 0.7139 0.93567 0.10938 0.0
C3873 C 0.68584 0.93933 0.08228 0.0
C3874 C 0.69065 0.94739 0.06864 0.0
C3875 C 0.67297 0.93785 0.08904 0.0
C3876 C 0.6678 0.93005 0.10388 0.0
C3877 C 0.67727 0.93568 0.11836 0.0
C3878 C 0.67255 0.92793 0.13214 0.0
C3879 C 0.6583 0.91463 0.13164 0.0
C3880 C 0.64872 0.90909 0.11738 0.0
C3881 C 0.65342 0.91678 0.10354 0.0
H3882 H 0.65467 0.90863 0.14232 0.0
H3883 H 0.70147 0.98276 0.008 0.0
H3884 H 0.01792 0.70416 0.07765 0.0
H3885 H 0.03616 0.73144 0.08623 0.0
H3886 H 0.07152 0.72045 0.09203 0.0
H3887 H 0.05324 0.69312 0.08406 0.0
H3888 H 0.07191 0.73572 0.11782 0.0
H3889 H 0.06937 0.74299 0.06194 0.0
H3890 H 0.05707 0.74121 0.03516 0.0
H3891 H 0.03879 0.76816 0.05455 0.0
H3892 H 0.05081 0.76993 0.08151 0.0
H3893 H 0.13413 0.81202 0.13311 0.0
H3894 H 0.11588 0.7864 0.11986 0.0
H3895 H 0.08041 0.79705 0.1231 0.0
H3896 H 0.09858 0.82268 0.13684 0.0
H3897 H 0.07972 0.78255 0.09261 0.0
H3898 H 0.08258 0.77477 0.14861 0.0
H3899 H 0.095 0.77609 0.17512 0.0
H3900 H 0.11338 0.74969 0.15453 0.0
H3901 H 0.10123 0.74841 0.12781 0.0
C3902 C 0.02965 0.70762 0.08042 0.0
C3903 C 0.03413 0.69648 0.08032 0.0
C3904 C 0.04009 0.72325 0.08529 0.0
C3905 C 0.05525 0.72805 0.08979 0.0
C3906 C 0.05987 0.71704 0.08874 0.0
C3907 C 0.04942 0.70141 0.08415 0.0
C3908 C 0.06599 0.74412 0.09711 0.0
C3909 C 0.07379 0.74593 0.11211 0.0
C3910 C 0.06811 0.7575 0.08998 0.0
C3911 C 0.06087 0.75646 0.07378 0.0
C3912 C 0.06262 0.74843 0.06053 0.0
C3913 C 0.05572 0.74744 0.04531 0.0
C3914 C 0.04712 0.75453 0.04316 0.0
C3915 C 0.04544 0.76266 0.05623 0.0
C3916 C 0.05231 0.76367 0.07148 0.0
C3917 C 0.12242 0.80889 0.13125 0.0
C3918 C 0.11781 0.81938 0.13626 0.0
C3919 C 0.11203 0.79427 0.12354 0.0
C3920 C 0.09679 0.78981 0.1206 0.0
C3921 C 0.09215 0.80031 0.12523 0.0
C3922 C 0.10255 0.81495 0.13306 0.0
C3923 C 0.08572 0.77399 0.11308 0.0
C3924 C 0.07783 0.77227 0.09817 0.0
C3925 C 0.08358 0.76063 0.12017 0.0
C3926 C 0.09111 0.76162 0.13619 0.0
C3927 C 0.0894 0.76939 0.1497 0.0
C3928 C 0.09637 0.77009 0.16478 0.0
C3929 C 0.10499 0.76298 0.16652 0.0
C3930 C 0.1067 0.75519 0.15316 0.0
C3931 C 0.09977 0.75447 0.13805 0.0
H3932 H 0.11031 0.76344 0.1782 0.0
H3933 H 0.04179 0.75375 0.03137 0.0
H3934 H 0.31026 0.37397 0.99663 0.0
H3935 H 0.28953 0.36353 0.01374 0.0
H3936 H 0.31086 0.34317 0.04081 0.0
H3937 H 0.33161 0.35348 0.02369 0.0
H3938 H 0.28078 0.32285 0.03316 0.0
H3939 H 0.31222 0.37531 0.05659 0.0
H3940 H 0.32696 0.40381 0.05684 0.0
H3941 H 0.28706 0.4042 0.04001 0.0
H3942 H 0.27211 0.37566 0.03944 0.0
H3943 H 0.23617 0.30684 0.09973 0.0
H3944 H 0.25652 0.31558 0.08208 0.0
H3945 H 0.23705 0.33775 0.05505 0.0
H3946 H 0.2167 0.32904 0.07263 0.0
H3947 H 0.26655 0.35702 0.06303 0.0
H3948 H 0.23507 0.30443 0.03959 0.0
H3949 H 0.22038 0.27595 0.03952 0.0
H3950 H 0.26033 0.27576 0.05657 0.0
H3951 H 0.27523 0.30428 0.05695 0.0
C3952 C 0.31058 0.36731 0.00625 0.0
C3953 C 0.3226 0.36459 0.00882 0.0
C3954 C 0.29873 0.36139 0.01604 0.0
C3955 C 0.29872 0.35268 0.02861 0.0
C3956 C 0.31066 0.34987 0.03117 0.0
C3957 C 0.32254 0.35582 0.02141 0.0
C3958 C 0.28618 0.34643 0.03902 0.0
C3959 C 0.27778 0.33032 0.03988 0.0
C3960 C 0.28211 0.35617 0.0475 0.0
C3961 C 0.29107 0.37333 0.04782 0.0
C3962 C 0.30661 0.38146 0.0528 0.0
C3963 C 0.315 0.39762 0.05303 0.0
C3964 C 0.30796 0.4058 0.0484 0.0
C3965 C 0.2925 0.39784 0.04357 0.0
C3966 C 0.28406 0.38167 0.0433 0.0
C3967 C 0.23609 0.31334 0.08985 0.0
C3968 C 0.22488 0.3173 0.08758 0.0
C3969 C 0.24773 0.31835 0.07979 0.0
C3970 C 0.24827 0.32728 0.06722 0.0
C3971 C 0.23689 0.33094 0.06473 0.0
C3972 C 0.2253 0.32598 0.0748 0.0
C3973 C 0.26103 0.33341 0.05708 0.0
C3974 C 0.26952 0.34952 0.05631 0.0
C3975 C 0.26516 0.32366 0.04871 0.0
C3976 C 0.25623 0.30651 0.04846 0.0
C3977 C 0.2407 0.29833 0.04345 0.0
C3978 C 0.23234 0.28218 0.04333 0.0
C3979 C 0.23941 0.27405 0.04808 0.0
C3980 C 0.25487 0.28207 0.05292 0.0
C3981 C 0.26328 0.29823 0.05307 0.0
H3982 H 0.23292 0.26155 0.04797 0.0
H3983 H 0.31447 0.41832 0.04859 0.0
H3984 H 0.69392 0.67744 0.38126 0.0
H3985 H 0.70527 0.66727 0.39989 0.0
H3986 H 0.7361 0.67071 0.36533 0.0
H3987 H 0.72472 0.68056 0.34665 0.0
H3988 H 0.72468 0.64369 0.37769 0.0
H3989 H 0.74682 0.6976 0.39835 0.0
H3990 H 0.74632 0.72074 0.40917 0.0
H3991 H 0.72337 0.69667 0.44879 0.0
H3992 H 0.72357 0.6733 0.43808 0.0
H3993 H 0.78952 0.65192 0.41929 0.0
H3994 H 0.77088 0.65617 0.40478 0.0
H3995 H 0.7428 0.64082 0.4439 0.0
H3996 H 0.76149 0.63633 0.45849 0.0
H3997 H 0.74834 0.67014 0.4321 0.0
H3998 H 0.73024 0.61746 0.41288 0.0
H3999 H 0.73231 0.59529 0.40199 0.0
H4000 H 0.74892 0.61789 0.35942 0.0
H4001 H 0.74717 0.64032 0.37016 0.0
C4002 C 0.70313 0.67603 0.37765 0.0
C4003 C 0.70843 0.67982 0.36247 0.0
C4004 C 0.70962 0.67025 0.38833 0.0
C4005 C 0.72158 0.66829 0.38403 0.0
C4006 C 0.72683 0.67205 0.36888 0.0
C4007 C 0.72035 0.67775 0.35823 0.0
C4008 C 0.7288 0.66237 0.39518 0.0
C4009 C 0.72988 0.64951 0.38958 0.0
C4010 C 0.73518 0.66963 0.41089 0.0
C4011 C 0.73502 0.68364 0.4173 0.0
C4012 C 0.74154 0.6972 0.40929 0.0
C4013 C 0.74134 0.71036 0.41542 0.0
C4014 C 0.73477 0.71015 0.42963 0.0
C4015 C 0.72842 0.69679 0.43777 0.0
C4016 C 0.72858 0.68359 0.43168 0.0
C4017 C 0.77935 0.64941 0.42478 0.0
C4018 C 0.77692 0.64385 0.44 0.0
C4019 C 0.76871 0.65178 0.41647 0.0
C4020 C 0.75547 0.64875 0.42326 0.0
C4021 C 0.75296 0.64319 0.43848 0.0
C4022 C 0.76356 0.64057 0.44673 0.0
C4023 C 0.74458 0.65182 0.41437 0.0
C4024 C 0.74283 0.66412 0.42037 0.0
C4025 C 0.73768 0.64414 0.39896 0.0
C4026 C 0.73865 0.63062 0.39238 0.0
C4027 C 0.73444 0.61776 0.40125 0.0
C4028 C 0.73554 0.60514 0.39509 0.0
C4029 C 0.74076 0.60519 0.38004 0.0
C4030 C 0.74487 0.61786 0.37109 0.0
C4031 C 0.7438 0.63053 0.37719 0.0
H4032 H 0.74161 0.59541 0.37529 0.0
H4033 H 0.73463 0.72036 0.43436 0.0
H4034 H 0.3191 0.01719 0.41224 0.0
H4035 H 0.33265 0.04519 0.42015 0.0
H4036 H 0.31186 0.03684 0.46476 0.0
H4037 H 0.2976 0.0091 0.45636 0.0
H4038 H 0.31249 0.06019 0.45557 0.0
H4039 H 0.35042 0.04566 0.46001 0.0
H4040 H 0.36544 0.03443 0.4505 0.0
H4041 H 0.38171 0.06676 0.41473 0.0
H4042 H 0.36664 0.07805 0.42391 0.0
H4043 H 0.36353 0.13076 0.50171 0.0
H4044 H 0.35366 0.10359 0.49132 0.0
H4045 H 0.36033 0.11715 0.44309 0.0
H4046 H 0.36985 0.14426 0.45344 0.0
H4047 H 0.36776 0.09225 0.45301 0.0
H4048 H 0.32883 0.10639 0.45032 0.0
H4049 H 0.31494 0.11785 0.46244 0.0
H4050 H 0.3016 0.08548 0.49823 0.0
H4051 H 0.31567 0.07402 0.48649 0.0
C4052 C 0.31736 0.02141 0.42365 0.0
C4053 C 0.30729 0.01101 0.43367 0.0
C4054 C 0.32521 0.0374 0.42826 0.0
C4055 C 0.32357 0.0432 0.44325 0.0
C4056 C 0.31335 0.03275 0.45313 0.0
C4057 C 0.30519 0.01686 0.44832 0.0
C4058 C 0.33234 0.06009 0.44875 0.0
C4059 C 0.3246 0.06706 0.45513 0.0
C4060 C 0.34815 0.0693 0.44801 0.0
C4061 C 0.35728 0.06259 0.44254 0.0
C4062 C 0.35713 0.0503 0.45005 0.0
C4063 C 0.36566 0.04394 0.44473 0.0
C4064 C 0.37449 0.04985 0.43199 0.0
C4065 C 0.37485 0.06217 0.42458 0.0
C4066 C 0.36632 0.06857 0.42984 0.0
C4067 C 0.36326 0.12793 0.48897 0.0
C4068 C 0.36746 0.13943 0.47832 0.0
C4069 C 0.35763 0.11249 0.48305 0.0
C4070 C 0.35629 0.10845 0.46646 0.0
C4071 C 0.3614 0.12011 0.45593 0.0
C4072 C 0.36679 0.13551 0.46181 0.0
C4073 C 0.34787 0.09195 0.45998 0.0
C4074 C 0.35566 0.0852 0.45338 0.0
C4075 C 0.33216 0.08282 0.46081 0.0
C4076 C 0.32342 0.08946 0.46763 0.0
C4077 C 0.32304 0.1018 0.46085 0.0
C4078 C 0.31512 0.10829 0.46764 0.0
C4079 C 0.30741 0.10242 0.48112 0.0
C4080 C 0.30758 0.09002 0.4878 0.0
C4081 C 0.31552 0.08353 0.48108 0.0
H4082 H 0.30129 0.10746 0.48636 0.0
H4083 H 0.38109 0.0449 0.42788 0.0
H4084 H 0.01686 0.31751 0.38275 0.0
H4085 H 0.99468 0.30917 0.39757 0.0
H4086 H 0.96894 0.26952 0.36259 0.0
H4087 H 0.99096 0.27796 0.34751 0.0
H4088 H 0.95332 0.28325 0.36897 0.0
H4089 H 0.98173 0.26611 0.40032 0.0
H4090 H 0.00407 0.26895 0.41602 0.0
H4091 H 0.00379 0.30263 0.44986 0.0
H4092 H 0.98155 0.30014 0.43424 0.0
H4093 H 0.89142 0.23631 0.41255 0.0
H4094 H 0.91372 0.24761 0.39766 0.0
H4095 H 0.93582 0.28736 0.43304 0.0
H4096 H 0.91363 0.27595 0.44818 0.0
H4097 H 0.95355 0.27517 0.42689 0.0
H4098 H 0.92401 0.29097 0.39607 0.0
H4099 H 0.90138 0.28751 0.38042 0.0
H4100 H 0.90351 0.25569 0.34558 0.0
H4101 H 0.92604 0.25879 0.36114 0.0
C4102 C 0.00651 0.30695 0.37828 0.0
C4103 C 0.00567 0.29839 0.36396 0.0
C4104 C 0.99385 0.30218 0.38678 0.0
C4105 C 0.98017 0.28866 0.38125 0.0
C4106 C 0.97937 0.28001 0.36706 0.0
C4107 C 0.99199 0.28482 0.35849 0.0
C4108 C 0.96659 0.28367 0.39002 0.0
C4109 C 0.95332 0.28131 0.38159 0.0
C4110 C 0.9667 0.28156 0.4066 0.0
C4111 C 0.98007 0.28307 0.41601 0.0
C4112 C 0.98651 0.27422 0.41104 0.0
C4113 C 0.99914 0.27575 0.41994 0.0
C4114 C 0.00538 0.286 0.4339 0.0
C4115 C 0.99897 0.29472 0.43903 0.0
C4116 C 0.98634 0.29324 0.43016 0.0
C4117 C 0.90099 0.24752 0.41708 0.0
C4118 C 0.9008 0.25525 0.43152 0.0
C4119 C 0.91368 0.254 0.40851 0.0
C4120 C 0.9264 0.26836 0.41421 0.0
C4121 C 0.92611 0.27628 0.42843 0.0
C4122 C 0.91338 0.26982 0.43698 0.0
C4123 C 0.94028 0.27461 0.40579 0.0
C4124 C 0.95359 0.27721 0.41429 0.0
C4125 C 0.94018 0.27687 0.38927 0.0
C4126 C 0.92665 0.27502 0.37985 0.0
C4127 C 0.91959 0.28314 0.38514 0.0
C4128 C 0.90679 0.28126 0.37627 0.0
C4129 C 0.90099 0.27136 0.36204 0.0
C4130 C 0.908 0.26335 0.35662 0.0
C4131 C 0.9208 0.26518 0.36545 0.0
H4132 H 0.89108 0.26992 0.35519 0.0
H4133 H 0.01515 0.28716 0.44078 0.0
H4134 H 0.02953 0.35659 0.34417 0.0
H4135 H 0.01899 0.37282 0.33732 0.0
H4136 H 0.06101 0.40572 0.32 0.0
H4137 H 0.07163 0.38953 0.3266 0.0
H4138 H 0.02547 0.40334 0.34335 0.0
H4139 H 0.05254 0.41388 0.28351 0.0
H4140 H 0.06268 0.40201 0.26513 0.0
H4141 H 0.03324 0.35723 0.28077 0.0
H4142 H 0.02279 0.3688 0.29905 0.0
H4143 H 0.01454 0.45737 0.29963 0.0
H4144 H 0.02395 0.44316 0.31459 0.0
H4145 H 0.99572 0.40197 0.28223 0.0
H4146 H 0.98678 0.4162 0.26687 0.0
H4147 H 0.02366 0.40803 0.28466 0.0
H4148 H 0.98844 0.40472 0.32148 0.0
H4149 H 0.97647 0.41469 0.33953 0.0
H4150 H 0.01838 0.44163 0.36917 0.0
H4151 H 0.03066 0.43199 0.35117 0.0
C4152 C 0.03667 0.36744 0.33922 0.0
C4153 C 0.05134 0.37159 0.33562 0.0
C4154 C 0.03063 0.37674 0.33539 0.0
C4155 C 0.03914 0.39031 0.3279 0.0
C4156 C 0.0542 0.39516 0.32558 0.0
C4157 C 0.06023 0.38586 0.32935 0.0
C4158 C 0.03175 0.39825 0.32069 0.0
C4159 C 0.02512 0.40447 0.33054 0.0
C4160 C 0.03101 0.39936 0.30393 0.0
C4161 C 0.03702 0.39224 0.29276 0.0
C4162 C 0.0482 0.40149 0.28297 0.0
C4163 C 0.054 0.39482 0.27257 0.0
C4164 C 0.04864 0.37889 0.27182 0.0
C4165 C 0.03742 0.36958 0.2814 0.0
C4166 C 0.03156 0.37619 0.29179 0.0
C4167 C 0.01026 0.44525 0.29578 0.0
C4168 C -4e-05 0.43795 0.282 0.0
C4169 C 0.01554 0.43711 0.30444 0.0
C4170 C 0.01051 0.4215 0.29954 0.0
C4171 C 0.99975 0.41402 0.28622 0.0
C4172 C 0.99453 0.42214 0.27754 0.0
C4173 C 0.01742 0.41331 0.30729 0.0
C4174 C 0.02403 0.40703 0.2975 0.0
C4175 C 0.01786 0.41193 0.32403 0.0
C4176 C 0.0105 0.41774 0.33488 0.0
C4177 C 0.99514 0.41287 0.33177 0.0
C4178 C 0.98829 0.41845 0.34201 0.0
C4179 C 0.99667 0.42882 0.35547 0.0
C4180 C 0.01191 0.43361 0.35873 0.0
C4181 C 0.01881 0.42808 0.34852 0.0
H4182 H 0.99135 0.43312 0.36339 0.0
H4183 H 0.05316 0.37375 0.26378 0.0
H4184 H 0.65368 0.64327 0.3269 0.0
H4185 H 0.6372 0.61558 0.31829 0.0
H4186 H 0.60373 0.6248 0.29717 0.0
H4187 H 0.62015 0.65242 0.30542 0.0
H4188 H 0.60935 0.59327 0.32348 0.0
H4189 H 0.58823 0.6032 0.26194 0.0
H4190 H 0.59743 0.62264 0.24223 0.0
H4191 H 0.6432 0.63715 0.25869 0.0
H4192 H 0.63429 0.61765 0.27833 0.0
H4193 H 0.54207 0.52704 0.28894 0.0
H4194 H 0.56252 0.55251 0.30022 0.0
H4195 H 0.58986 0.5523 0.2631 0.0
H4196 H 0.56912 0.52707 0.25128 0.0
H4197 H 0.59089 0.5787 0.26558 0.0
H4198 H 0.59783 0.54838 0.30288 0.0
H4199 H 0.59066 0.52863 0.32214 0.0
H4200 H 0.57697 0.55393 0.35321 0.0
H4201 H 0.58386 0.57373 0.33402 0.0
C4202 C 0.64274 0.63939 0.32057 0.0
C4203 C 0.63832 0.65011 0.31668 0.0
C4204 C 0.63334 0.62355 0.31567 0.0
C4205 C 0.61937 0.61818 0.30681 0.0
C4206 C 0.6146 0.62874 0.30369 0.0
C4207 C 0.624 0.64454 0.30847 0.0
C4208 C 0.60997 0.60167 0.30025 0.0
C4209 C 0.60532 0.59004 0.31082 0.0
C4210 C 0.60511 0.59744 0.28365 0.0
C4211 C 0.61058 0.60904 0.2717 0.0
C4212 C 0.60026 0.61048 0.2613 0.0
C4213 C 0.60542 0.62152 0.25015 0.0
C4214 C 0.62089 0.63115 0.24924 0.0
C4215 C 0.63123 0.62972 0.25944 0.0
C4216 C 0.62612 0.61869 0.27059 0.0
C4217 C 0.55242 0.53241 0.28314 0.0
C4218 C 0.5539 0.52506 0.26912 0.0
C4219 C 0.5642 0.5469 0.28975 0.0
C4220 C 0.57781 0.55428 0.28262 0.0
C4221 C 0.57948 0.54681 0.26884 0.0
C4222 C 0.56765 0.53233 0.26217 0.0
C4223 C 0.58982 0.57026 0.28888 0.0
C4224 C 0.59498 0.58183 0.27823 0.0
C4225 C 0.59541 0.57435 0.30533 0.0
C4226 C 0.59127 0.56249 0.31694 0.0
C4227 C 0.59319 0.54968 0.31376 0.0
C4228 C 0.58919 0.53848 0.32468 0.0
C4229 C 0.58334 0.54001 0.33888 0.0
C4230 C 0.5815 0.55276 0.3422 0.0
C4231 C 0.58547 0.56399 0.33132 0.0
H4232 H 0.58025 0.53133 0.34732 0.0
H4233 H 0.62486 0.6397 0.24062 0.0
H4234 H 0.33404 0.98275 0.37644 0.0
H4235 H 0.35349 0.98872 0.35807 0.0
H4236 H 0.37006 0.96415 0.38532 0.0
H4237 H 0.35082 0.95832 0.40387 0.0
H4238 H 0.39288 0.99126 0.37775 0.0
H4239 H 0.34843 0.94744 0.34975 0.0
H4240 H 0.32185 0.93297 0.33832 0.0
H4241 H 0.33059 0.96874 0.30732 0.0
H4242 H 0.35723 0.9835 0.31868 0.0
H4243 H 0.43672 0.98076 0.32197 0.0
H4244 H 0.41752 0.97663 0.34009 0.0
H4245 H 0.40275 0.00152 0.31086 0.0
H4246 H 0.42159 0.00523 0.29234 0.0
H4247 H 0.37912 0.97544 0.31921 0.0
H4248 H 0.42416 0.01862 0.34639 0.0
H4249 H 0.45068 0.03284 0.35801 0.0
H4250 H 0.44079 0.9982 0.39082 0.0
H4251 H 0.41425 0.98365 0.37924 0.0
C4252 C 0.34183 0.97863 0.37854 0.0
C4253 C 0.34085 0.97001 0.39158 0.0
C4254 C 0.3529 0.98201 0.368 0.0
C4255 C 0.36311 0.97674 0.37024 0.0
C4256 C 0.36229 0.96832 0.38337 0.0
C4257 C 0.35125 0.96497 0.39393 0.0
C4258 C 0.37464 0.97992 0.35889 0.0
C4259 C 0.38987 0.98765 0.36497 0.0
C4260 C 0.37072 0.97555 0.34217 0.0
C4261 C 0.35478 0.96663 0.33516 0.0
C4262 C 0.34466 0.95226 0.34056 0.0
C4263 C 0.3296 0.944 0.33408 0.0
C4264 C 0.32454 0.94995 0.32213 0.0
C4265 C 0.33454 0.96415 0.31659 0.0
C4266 C 0.34962 0.97246 0.32302 0.0
C4267 C 0.42932 0.98526 0.31933 0.0
C4268 C 0.43071 0.99337 0.30574 0.0
C4269 C 0.41844 0.98302 0.32977 0.0
C4270 C 0.40884 0.98894 0.32693 0.0
C4271 C 0.4101 0.99692 0.31331 0.0
C4272 C 0.42096 0.99915 0.30284 0.0
C4273 C 0.39737 0.98667 0.33809 0.0
C4274 C 0.38215 0.97912 0.33197 0.0
C4275 C 0.4013 0.99119 0.35479 0.0
C4276 C 0.41724 -3e-05 0.36185 0.0
C4277 C 0.42766 0.01397 0.35601 0.0
C4278 C 0.44269 0.0221 0.3626 0.0
C4279 C 0.44742 0.01641 0.37512 0.0
C4280 C 0.43711 0.00259 0.38111 0.0
C4281 C 0.42207 0.9944 0.37455 0.0
H4282 H 0.45906 0.02272 0.38021 0.0
H4283 H 0.31287 0.94351 0.31713 0.0
H4284 H 0.62976 0.99482 0.37126 0.0
H4285 H 0.61412 0.00038 0.35304 0.0
H4286 H 0.60808 0.96369 0.3184 0.0
H4287 H 0.62375 0.958 0.33661 0.0
H4288 H 0.61301 0.99097 0.30449 0.0
H4289 H 0.58103 0.9559 0.34074 0.0
H4290 H 0.57348 0.94672 0.36726 0.0
H4291 H 0.57194 0.98781 0.38104 0.0
H4292 H 0.57969 0.99735 0.35467 0.0
H4293 H 0.54894 0.98469 0.25911 0.0
H4294 H 0.56707 0.9801 0.27417 0.0
H4295 H 0.56923 0.01019 0.31448 0.0
H4296 H 0.5504 0.01398 0.29999 0.0
H4297 H 0.56627 0.98516 0.32471 0.0
H4298 H 0.59845 0.02058 0.28863 0.0
H4299 H 0.60606 0.02991 0.26217 0.0
H4300 H 0.60743 0.98879 0.24804 0.0
H4301 H 0.59964 0.97911 0.27436 0.0
C4302 C 0.62524 0.98801 0.35972 0.0
C4303 C 0.6279 0.97586 0.35546 0.0
C4304 C 0.61628 0.99119 0.34932 0.0
C4305 C 0.60982 0.98234 0.33445 0.0
C4306 C 0.61295 0.97064 0.32984 0.0
C4307 C 0.62185 0.96737 0.34029 0.0
C4308 C 0.59915 0.9848 0.3242 0.0
C4309 C 0.60269 0.98954 0.30879 0.0
C4310 C 0.58583 0.98314 0.32995 0.0
C4311 C 0.58108 0.9774 0.34579 0.0
C4312 C 0.5792 0.96304 0.34947 0.0
C4313 C 0.57487 0.95776 0.36447 0.0
C4314 C 0.57227 0.9667 0.37585 0.0
C4315 C 0.57397 0.98091 0.37223 0.0
C4316 C 0.57832 0.98625 0.35725 0.0
C4317 C 0.55322 0.99029 0.27121 0.0
C4318 C 0.54815 0.99971 0.27829 0.0
C4319 C 0.56376 0.98781 0.27974 0.0
C4320 C 0.56967 0.99492 0.29544 0.0
C4321 C 0.56487 0.00459 0.30239 0.0
C4322 C 0.55421 0.00691 0.29397 0.0
C4323 C 0.58022 0.9917 0.30502 0.0
C4324 C 0.5766 0.98668 0.32034 0.0
C4325 C 0.59348 0.99317 0.29917 0.0
C4326 C 0.59832 0.99905 0.28341 0.0
C4327 C 0.60028 0.01348 0.27984 0.0
C4328 C 0.60464 0.01884 0.26488 0.0
C4329 C 0.60718 0.00993 0.25342 0.0
C4330 C 0.60544 0.99567 0.25692 0.0
C4331 C 0.60107 0.99025 0.27187 0.0
H4332 H 0.61054 0.01409 0.24183 0.0
H4333 H 0.56891 0.96259 0.38745 0.0
H4334 H 0.05852 0.67051 0.30371 0.0
H4335 H 0.04694 0.64327 0.29336 0.0
H4336 H 0.00374 0.63487 0.30633 0.0
H4337 H 0.01517 0.66213 0.31667 0.0
H4338 H 0.03032 0.61465 0.30515 0.0
H4339 H 0.97784 0.61206 0.27445 0.0
H4340 H 0.96971 0.62979 0.2648 0.0
H4341 H 0.01527 0.66264 0.25649 0.0
H4342 H 0.02362 0.64502 0.26588 0.0
H4343 H 0.98226 0.53804 0.26863 0.0
H4344 H 0.98962 0.5628 0.28375 0.0
H4345 H 0.0064 0.58652 0.24153 0.0
H4346 H 0.99869 0.56172 0.22619 0.0
H4347 H 0.99192 0.59844 0.25851 0.0
H4348 H 0.03008 0.58455 0.26906 0.0
H4349 H 0.03868 0.56684 0.2775 0.0
H4350 H 0.02368 0.56779 0.32417 0.0
H4351 H 0.01478 0.58534 0.31592 0.0
C4352 C 0.0466 0.66284 0.30462 0.0
C4353 C 0.03775 0.66858 0.31083 0.0
C4354 C 0.04002 0.64725 0.29875 0.0
C4355 C 0.02446 0.63713 0.29888 0.0
C4356 C 0.01575 0.64256 0.30597 0.0
C4357 C 0.02233 0.65814 0.31191 0.0
C4358 C 0.01723 0.62135 0.2903 0.0
C4359 C 0.02183 0.61104 0.29505 0.0
C4360 C 0.00628 0.61673 0.277 0.0
C4361 C 0.00136 0.6273 0.27104 0.0
C4362 C 0.9861 0.62305 0.27051 0.0
C4363 C 0.98146 0.63308 0.26509 0.0
C4364 C 0.99197 0.64736 0.26009 0.0
C4365 C 0.00714 0.65161 0.26042 0.0
C4366 C 0.01184 0.64161 0.26581 0.0
C4367 C 0.98716 0.54848 0.26245 0.0
C4368 C 0.98993 0.54795 0.24621 0.0
C4369 C 0.99148 0.56263 0.27115 0.0
C4370 C 0.99872 0.5765 0.26381 0.0
C4371 C 0.00085 0.57594 0.24742 0.0
C4372 C 0.99654 0.56179 0.23871 0.0
C4373 C 0.00497 0.5917 0.27339 0.0
C4374 C 0.00022 0.60193 0.26879 0.0
C4375 C 0.0159 0.5963 0.2867 0.0
C4376 C 0.02166 0.58614 0.29183 0.0
C4377 C 0.02856 0.58093 0.2811 0.0
C4378 C 0.03348 0.57092 0.28585 0.0
C4379 C 0.03169 0.56616 0.30135 0.0
C4380 C 0.02504 0.57147 0.31216 0.0
C4381 C 0.02007 0.58146 0.30746 0.0
H4382 H 0.03548 0.55839 0.305 0.0
H4383 H 0.98836 0.65512 0.25592 0.0
H4384 H 0.32591 0.3742 0.3502 0.0
H4385 H 0.34602 0.38208 0.33235 0.0
H4386 H 0.3782 0.3923 0.37305 0.0
H4387 H 0.35821 0.38455 0.391 0.0
H4388 H 0.38936 0.41457 0.3519 0.0
H4389 H 0.36454 0.35905 0.35002 0.0
H4390 H 0.34273 0.33235 0.34647 0.0
H4391 H 0.333 0.33843 0.29777 0.0
H4392 H 0.35463 0.36526 0.30111 0.0
H4393 H 0.44762 0.42004 0.30692 0.0
H4394 H 0.42835 0.41088 0.32586 0.0
H4395 H 0.39385 0.39743 0.28668 0.0
H4396 H 0.41295 0.40594 0.26762 0.0
H4397 H 0.38433 0.37643 0.3079 0.0
H4398 H 0.40849 0.43216 0.30999 0.0
H4399 H 0.43021 0.45892 0.31344 0.0
H4400 H 0.44107 0.45252 0.36162 0.0
H4401 H 0.41951 0.42563 0.35837 0.0
C4402 C 0.33729 0.37827 0.35538 0.0
C4403 C 0.34045 0.37867 0.37201 0.0
C4404 C 0.34874 0.38269 0.34515 0.0
C4405 C 0.36354 0.38756 0.35137 0.0
C4406 C 0.36684 0.38852 0.36802 0.0
C4407 C 0.35539 0.38406 0.37824 0.0
C4408 C 0.37551 0.39129 0.34047 0.0
C4409 C 0.38837 0.40617 0.34241 0.0
C4410 C 0.37407 0.38039 0.32795 0.0
C4411 C 0.36112 0.36422 0.32587 0.0
C4412 C 0.35768 0.35474 0.33859 0.0
C4413 C 0.34537 0.33957 0.33661 0.0
C4414 C 0.33647 0.33371 0.32191 0.0
C4415 C 0.3399 0.34299 0.30915 0.0
C4416 C 0.35219 0.35818 0.31108 0.0
C4417 C 0.4359 0.41483 0.3023 0.0
C4418 C 0.43182 0.41385 0.28578 0.0
C4419 C 0.42492 0.40975 0.31316 0.0
C4420 C 0.4097 0.40376 0.30771 0.0
C4421 C 0.40553 0.40212 0.29116 0.0
C4422 C 0.41648 0.40711 0.2803 0.0
C4423 C 0.39815 0.39976 0.31922 0.0
C4424 C 0.38536 0.38481 0.31742 0.0
C4425 C 0.39964 0.41062 0.33184 0.0
C4426 C 0.41248 0.42684 0.33388 0.0
C4427 C 0.41556 0.43643 0.32129 0.0
C4428 C 0.42784 0.45162 0.32321 0.0
C4429 C 0.43704 0.4574 0.33773 0.0
C4430 C 0.43394 0.44802 0.35037 0.0
C4431 C 0.42169 0.43281 0.3485 0.0
H4432 H 0.44654 0.46916 0.33919 0.0
H4433 H 0.32693 0.32197 0.3204 0.0
H4434 H 0.2823 0.29033 0.39458 0.0
H4435 H 0.29503 0.27551 0.39785 0.0
H4436 H 0.33823 0.31786 0.40123 0.0
H4437 H 0.32557 0.33267 0.39722 0.0
H4438 H 0.34068 0.29483 0.38759 0.0
H4439 H 0.32067 0.30311 0.43508 0.0
H4440 H 0.30112 0.30246 0.45126 0.0
H4441 H 0.27525 0.25277 0.44241 0.0
H4442 H 0.29457 0.25314 0.42598 0.0
H4443 H 0.3797 0.27318 0.44641 0.0
H4444 H 0.36893 0.2851 0.42946 0.0
H4445 H 0.32803 0.24073 0.41887 0.0
H4446 H 0.33877 0.22875 0.43552 0.0
H4447 H 0.32443 0.26397 0.43443 0.0
H4448 H 0.34775 0.25677 0.38925 0.0
H4449 H 0.36891 0.25912 0.37485 0.0
H4450 H 0.39073 0.30882 0.38178 0.0
H4451 H 0.3698 0.30678 0.39645 0.0
C4452 C 0.29451 0.29644 0.3957 0.0
C4453 C 0.30294 0.31268 0.39595 0.0
C4454 C 0.30178 0.28797 0.39758 0.0
C4455 C 0.31758 0.29563 0.40024 0.0
C4456 C 0.32603 0.31171 0.3993 0.0
C4457 C 0.31877 0.32017 0.39707 0.0
C4458 C 0.32512 0.28719 0.4058 0.0
C4459 C 0.33719 0.28814 0.39788 0.0
C4460 C 0.32057 0.27844 0.41923 0.0
C4461 C 0.30897 0.27817 0.42916 0.0
C4462 C 0.31076 0.29205 0.4365 0.0
C4463 C 0.29973 0.29173 0.44572 0.0
C4464 C 0.28693 0.27759 0.44783 0.0
C4465 C 0.28516 0.26372 0.44075 0.0
C4466 C 0.29614 0.26398 0.43148 0.0
C4467 C 0.36862 0.26589 0.44002 0.0
C4468 C 0.35995 0.25011 0.44249 0.0
C4469 C 0.36249 0.2727 0.43034 0.0
C4470 C 0.34767 0.26379 0.42301 0.0
C4471 C 0.33947 0.2478 0.42448 0.0
C4472 C 0.34559 0.24101 0.43406 0.0
C4473 C 0.33983 0.2714 0.41611 0.0
C4474 C 0.32778 0.27045 0.42397 0.0
C4475 C 0.34465 0.28036 0.40291 0.0
C4476 C 0.35726 0.28162 0.3941 0.0
C4477 C 0.35712 0.26821 0.38785 0.0
C4478 C 0.36907 0.26948 0.3796 0.0
C4479 C 0.38118 0.28411 0.37744 0.0
C4480 C 0.38135 0.2975 0.38348 0.0
C4481 C 0.36944 0.29629 0.39175 0.0
H4482 H 0.39041 0.28507 0.37104 0.0
H4483 H 0.2784 0.27736 0.45498 0.0
H4484 H 0.67773 0.02611 0.41074 0.0
H4485 H 0.69399 0.05419 0.4176 0.0
H4486 H 0.73166 0.04795 0.42982 0.0
H4487 H 0.71553 0.01996 0.42318 0.0
H4488 H 0.70992 0.06905 0.448 0.0
H4489 H 0.76313 0.07942 0.41811 0.0
H4490 H 0.7696 0.06929 0.3942 0.0
H4491 H 0.7265 0.05565 0.36953 0.0
H4492 H 0.71985 0.0659 0.3932 0.0
H4493 H 0.77737 0.13493 0.48431 0.0
H4494 H 0.75729 0.10927 0.47273 0.0
H4495 H 0.75604 0.12787 0.42779 0.0
H4496 H 0.77645 0.15349 0.43916 0.0
H4497 H 0.75709 0.10183 0.42303 0.0
H4498 H 0.72784 0.11783 0.45249 0.0
H4499 H 0.72136 0.12796 0.47639 0.0
H4500 H 0.71567 0.08921 0.50113 0.0
H4501 H 0.72243 0.07903 0.47752 0.0
C4502 C 0.68952 0.03074 0.4147 0.0
C4503 C 0.69534 0.0208 0.41646 0.0
C4504 C 0.69875 0.04676 0.41869 0.0
C4505 C 0.714 0.05311 0.42417 0.0
C4506 C 0.71993 0.04328 0.42551 0.0
C4507 C 0.71069 0.02728 0.42175 0.0
C4508 C 0.72369 0.06993 0.42921 0.0
C4509 C 0.72019 0.07628 0.44249 0.0
C4510 C 0.73698 0.07933 0.42189 0.0
C4511 C 0.74095 0.07333 0.40749 0.0
C4512 C 0.75506 0.07433 0.40756 0.0
C4513 C 0.75875 0.06855 0.39405 0.0
C4514 C 0.74845 0.06179 0.38037 0.0
C4515 C 0.73445 0.06084 0.38016 0.0
C4516 C 0.7307 0.06661 0.39362 0.0
C4517 C 0.77278 0.13357 0.47197 0.0
C4518 C 0.77852 0.14623 0.46263 0.0
C4519 C 0.76122 0.11892 0.46541 0.0
C4520 C 0.75509 0.11667 0.44942 0.0
C4521 C 0.76058 0.12936 0.44016 0.0
C4522 C 0.77215 0.14402 0.44672 0.0
C4523 C 0.74354 0.10092 0.44211 0.0
C4524 C 0.74673 0.09471 0.42844 0.0
C4525 C 0.72995 0.09167 0.44907 0.0
C4526 C 0.72574 0.09772 0.46325 0.0
C4527 C 0.72532 0.11153 0.46307 0.0
C4528 C 0.7216 0.11729 0.47657 0.0
C4529 C 0.71815 0.10926 0.49029 0.0
C4530 C 0.71838 0.09544 0.49051 0.0
C4531 C 0.72215 0.08967 0.47707 0.0
H4532 H 0.71528 0.11374 0.50074 0.0
H4533 H 0.75133 0.05731 0.36993 0.0
H4534 H 0.97636 0.68304 0.32167 0.0
H4535 H 0.95463 0.67251 0.33741 0.0
H4536 H 0.9844 0.68767 0.3812 0.0
H4537 H 0.00623 0.69818 0.36556 0.0
H4538 H 0.96053 0.65798 0.38122 0.0
H4539 H 0.96849 0.70799 0.37007 0.0
H4540 H 0.97179 0.72853 0.35296 0.0
H4541 H 0.92804 0.69805 0.32792 0.0
H4542 H 0.92456 0.67723 0.34475 0.0
H4543 H 0.91223 0.6569 0.43873 0.0
H4544 H 0.93232 0.66374 0.42107 0.0
H4545 H 0.8997 0.64783 0.37956 0.0
H4546 H 0.87953 0.6412 0.39723 0.0
H4547 H 0.92401 0.67641 0.37711 0.0
H4548 H 0.91542 0.62684 0.3896 0.0
H4549 H 0.91213 0.60659 0.40712 0.0
H4550 H 0.95699 0.6363 0.42994 0.0
H4551 H 0.96049 0.65684 0.41271 0.0
C4552 C 0.9783 0.68414 0.33465 0.0
C4553 C 0.99303 0.69151 0.34237 0.0
C4554 C 0.96587 0.67814 0.34362 0.0
C4555 C 0.96792 0.67942 0.36046 0.0
C4556 C 0.98258 0.68657 0.3682 0.0
C4557 C 0.99504 0.69263 0.35925 0.0
C4558 C 0.95478 0.6734 0.37004 0.0
C4559 C 0.95262 0.66211 0.38046 0.0
C4560 C 0.94426 0.67852 0.3687 0.0
C4561 C 0.94634 0.691 0.35854 0.0
C4562 C 0.95963 0.70562 0.36081 0.0
C4563 C 0.96152 0.71732 0.35119 0.0
C4564 C 0.95015 0.71458 0.33933 0.0
C4565 C 0.93685 0.70014 0.33709 0.0
C4566 C 0.93491 0.68839 0.34668 0.0
C4567 C 0.90934 0.65484 0.42584 0.0
C4568 C 0.89433 0.64857 0.41934 0.0
C4569 C 0.9208 0.65863 0.41577 0.0
C4570 C 0.91748 0.65618 0.39901 0.0
C4571 C 0.90248 0.64975 0.39247 0.0
C4572 C 0.89097 0.64589 0.40256 0.0
C4573 C 0.92981 0.66105 0.38839 0.0
C4574 C 0.93183 0.67216 0.37778 0.0
C4575 C 0.94021 0.65578 0.38958 0.0
C4576 C 0.93817 0.64344 0.39995 0.0
C4577 C 0.92455 0.62911 0.39844 0.0
C4578 C 0.92265 0.61757 0.4083 0.0
C4579 C 0.93433 0.62017 0.41966 0.0
C4580 C 0.94795 0.63431 0.42115 0.0
C4581 C 0.9499 0.6459 0.41132 0.0
H4582 H 0.93284 0.61121 0.42729 0.0
H4583 H 0.95163 0.72366 0.3319 0.0
H4584 H 0.36594 0.01594 0.71462 0.0
H4585 H 0.37981 0.0094 0.73439 0.0
H4586 H 0.41718 0.02632 0.70523 0.0
H4587 H 0.40341 0.03265 0.68542 0.0
H4588 H 0.41112 0.99928 0.71544 0.0
H4589 H 0.41773 0.04769 0.73917 0.0
H4590 H 0.40919 0.06517 0.74973 0.0
H4591 H 0.38617 0.03395 0.78495 0.0
H4592 H 0.39442 0.01618 0.77444 0.0
H4593 H 0.4747 0.01617 0.76618 0.0
H4594 H 0.45577 0.01832 0.74953 0.0
H4595 H 0.42308 0.99493 0.78313 0.0
H4596 H 0.44215 0.99283 0.80005 0.0
H4597 H 0.42343 0.02171 0.77237 0.0
H4598 H 0.41972 0.97481 0.75014 0.0
H4599 H 0.42951 0.95838 0.73985 0.0
H4600 H 0.4479 0.98754 0.70175 0.0
H4601 H 0.43841 0.00429 0.71196 0.0
C4602 C 0.37711 0.01826 0.71244 0.0
C4603 C 0.38357 0.02484 0.69844 0.0
C4604 C 0.38504 0.01456 0.72377 0.0
C4605 C 0.39958 0.01745 0.72134 0.0
C4606 C 0.40597 0.02393 0.70735 0.0
C4607 C 0.39808 0.02761 0.69605 0.0
C4608 C 0.40828 0.01376 0.73324 0.0
C4609 C 0.41386 0.00425 0.72786 0.0
C4610 C 0.4115 0.01986 0.74958 0.0
C4611 C 0.40653 0.03052 0.75589 0.0
C4612 C 0.41073 0.04449 0.74907 0.0
C4613 C 0.40597 0.05446 0.75506 0.0
C4614 C 0.3971 0.05065 0.76796 0.0
C4615 C 0.39301 0.03687 0.77493 0.0
C4616 C 0.39773 0.02685 0.76897 0.0
C4617 C 0.46353 0.01163 0.77014 0.0
C4618 C 0.45992 0.0044 0.78446 0.0
C4619 C 0.4527 0.01276 0.76055 0.0
C4620 C 0.438 0.00668 0.76504 0.0
C4621 C 0.43437 0.99967 0.77946 0.0
C4622 C 0.44521 0.9984 0.78904 0.0
C4623 C 0.42655 0.0076 0.7544 0.0
C4624 C 0.42045 0.01654 0.76001 0.0
C4625 C 0.4229 0.00105 0.73823 0.0
C4626 C 0.42843 0.99087 0.73189 0.0
C4627 C 0.42593 0.97778 0.73963 0.0
C4628 C 0.43142 0.9684 0.7338 0.0
C4629 C 0.43934 0.97192 0.72017 0.0
C4630 C 0.44176 0.98482 0.71231 0.0
C4631 C 0.43631 0.99425 0.7181 0.0
H4632 H 0.44359 0.96465 0.71569 0.0
H4633 H 0.39343 0.05838 0.77259 0.0
H4634 H 0.9477 0.33336 0.76911 0.0
H4635 H 0.95661 0.36027 0.77822 0.0
H4636 H 0.9962 0.37487 0.75281 0.0
H4637 H 0.98754 0.34771 0.74397 0.0
H4638 H 0.00402 0.3891 0.78192 0.0
H4639 H 0.96773 0.38195 0.73985 0.0
H4640 H 0.94321 0.36903 0.72343 0.0
H4641 H 0.92169 0.37358 0.76416 0.0
H4642 H 0.94603 0.38633 0.7809 0.0
H4643 H 0.02205 0.46841 0.80146 0.0
H4644 H 0.01636 0.44382 0.78705 0.0
H4645 H 0.97749 0.41923 0.81328 0.0
H4646 H 0.98326 0.44364 0.828 0.0
H4647 H 0.9712 0.4121 0.77996 0.0
H4648 H 0.00791 0.41696 0.82225 0.0
H4649 H 0.03281 0.43025 0.83796 0.0
H4650 H 0.05405 0.43081 0.79509 0.0
H4651 H 0.02927 0.4177 0.77909 0.0
C4652 C 0.95822 0.34225 0.76524 0.0
C4653 C 0.9669 0.33833 0.75579 0.0
C4654 C 0.96327 0.3577 0.77041 0.0
C4655 C 0.97698 0.36965 0.76603 0.0
C4656 C 0.98556 0.36584 0.75631 0.0
C4657 C 0.98056 0.35032 0.75122 0.0
C4658 C 0.98265 0.38593 0.77252 0.0
C4659 C 0.99696 0.39426 0.78118 0.0
C4660 C 0.97341 0.39264 0.7717 0.0
C4661 C 0.95872 0.38502 0.76166 0.0
C4662 C 0.95775 0.3801 0.74534 0.0
C4663 C 0.94388 0.37282 0.73597 0.0
C4664 C 0.9309 0.37046 0.74275 0.0
C4665 C 0.93176 0.37541 0.75892 0.0
C4666 C 0.9456 0.38269 0.76835 0.0
C4667 C 0.01248 0.45773 0.80442 0.0
C4668 C 0.00306 0.45799 0.81584 0.0
C4669 C 0.0092 0.44372 0.7961 0.0
C4670 C 0.99647 0.42975 0.79907 0.0
C4671 C 0.98729 0.42992 0.81073 0.0
C4672 C 0.9906 0.44388 0.8191 0.0
C4673 C 0.9923 0.41495 0.78969 0.0
C4674 C 0.9783 0.40698 0.78046 0.0
C4675 C 0.00189 0.40867 0.78982 0.0
C4676 C 0.01676 0.41652 0.79945 0.0
C4677 C 0.0179 0.42005 0.81615 0.0
C4678 C 0.03199 0.42752 0.82511 0.0
C4679 C 0.04501 0.43142 0.81752 0.0
C4680 C 0.04396 0.42781 0.80096 0.0
C4681 C 0.0299 0.42035 0.79194 0.0
H4682 H 0.0559 0.4372 0.82448 0.0
H4683 H 0.92017 0.36482 0.73548 0.0
H4684 H 0.68402 0.62835 0.71381 0.0
H4685 H 0.66308 0.61787 0.73074 0.0
H4686 H 0.63774 0.62995 0.69791 0.0
H4687 H 0.65858 0.64049 0.68096 0.0
H4688 H 0.63666 0.63821 0.72945 0.0
H4689 H 0.62922 0.59318 0.69725 0.0
H4690 H 0.63655 0.575 0.68575 0.0
H4691 H 0.64504 0.56511 0.73317 0.0
H4692 H 0.63795 0.5834 0.74497 0.0
H4693 H 0.56463 0.59357 0.75844 0.0
H4694 H 0.58573 0.60496 0.74174 0.0
H4695 H 0.6101 0.58985 0.77214 0.0
H4696 H 0.58903 0.57836 0.78871 0.0
H4697 H 0.61168 0.58326 0.74162 0.0
H4698 H 0.61918 0.6281 0.77403 0.0
H4699 H 0.61202 0.64632 0.78579 0.0
H4700 H 0.60377 0.65681 0.73859 0.0
H4701 H 0.61069 0.63847 0.72652 0.0
C4702 C 0.67398 0.62877 0.71019 0.0
C4703 C 0.67293 0.63518 0.696 0.0
C4704 C 0.66203 0.62274 0.71985 0.0
C4705 C 0.64883 0.62304 0.71549 0.0
C4706 C 0.64783 0.62961 0.70146 0.0
C4707 C 0.65973 0.63556 0.69176 0.0
C4708 C 0.63601 0.61644 0.72553 0.0
C4709 C 0.63106 0.62615 0.73197 0.0
C4710 C 0.62896 0.6008 0.72906 0.0
C4711 C 0.63321 0.58978 0.72199 0.0
C4712 C 0.63277 0.58723 0.70523 0.0
C4713 C 0.63686 0.57689 0.69866 0.0
C4714 C 0.6413 0.56894 0.70872 0.0
C4715 C 0.64163 0.57129 0.72539 0.0
C4716 C 0.63756 0.58164 0.73203 0.0
C4717 C 0.57455 0.59281 0.7616 0.0
C4718 C 0.57518 0.58503 0.77482 0.0
C4719 C 0.58659 0.59932 0.75208 0.0
C4720 C 0.59955 0.59836 0.75577 0.0
C4721 C 0.6002 0.59067 0.76902 0.0
C4722 C 0.58815 0.58409 0.77846 0.0
C4723 C 0.61233 0.60505 0.74566 0.0
C4724 C 0.61727 0.59534 0.73915 0.0
C4725 C 0.61941 0.62071 0.74213 0.0
C4726 C 0.61531 0.63179 0.74936 0.0
C4727 C 0.61573 0.6342 0.76615 0.0
C4728 C 0.61173 0.64456 0.77287 0.0
C4729 C 0.60741 0.65268 0.76294 0.0
C4730 C 0.60711 0.65049 0.74626 0.0
C4731 C 0.61107 0.64012 0.73947 0.0
H4732 H 0.60432 0.6607 0.76817 0.0
H4733 H 0.64446 0.56094 0.70361 0.0
H4734 H 0.69274 0.68128 0.67819 0.0
H4735 H 0.67872 0.69433 0.6721 0.0
H4736 H 0.71658 0.7292 0.65018 0.0
H4737 H 0.73067 0.71613 0.65598 0.0
H4738 H 0.68177 0.72315 0.67769 0.0
H4739 H 0.70316 0.73444 0.61471 0.0
H4740 H 0.71331 0.72389 0.59481 0.0
H4741 H 0.68981 0.67932 0.61312 0.0
H4742 H 0.67936 0.68954 0.63295 0.0
H4743 H 0.6635 0.77354 0.63737 0.0
H4744 H 0.67433 0.76001 0.65115 0.0
H4745 H 0.64631 0.71877 0.61878 0.0
H4746 H 0.63594 0.73241 0.60452 0.0
H4747 H 0.67438 0.72611 0.61919 0.0
H4748 H 0.64121 0.7202 0.65915 0.0
H4749 H 0.62902 0.72842 0.67879 0.0
H4750 H 0.67186 0.75806 0.70597 0.0
H4751 H 0.68436 0.75018 0.68637 0.0
C4752 C 0.69823 0.69188 0.67233 0.0
C4753 C 0.71276 0.6975 0.6673 0.0
C4754 C 0.69019 0.69936 0.66893 0.0
C4755 C 0.69651 0.71255 0.66045 0.0
C4756 C 0.71143 0.71888 0.65654 0.0
C4757 C 0.71947 0.7114 0.65989 0.0
C4758 C 0.68702 0.71867 0.65416 0.0
C4759 C 0.68016 0.72388 0.66492 0.0
C4760 C 0.68458 0.71914 0.63746 0.0
C4761 C 0.69062 0.71281 0.62542 0.0
C4762 C 0.70012 0.72238 0.61444 0.0
C4763 C 0.70593 0.71646 0.60318 0.0
C4764 C 0.70225 0.70096 0.60274 0.0
C4765 C 0.6927 0.69133 0.61351 0.0
C4766 C 0.68684 0.69719 0.62477 0.0
C4767 C 0.65953 0.76153 0.6333 0.0
C4768 C 0.64897 0.75411 0.61974 0.0
C4769 C 0.66561 0.75376 0.6413 0.0
C4770 C 0.66113 0.73837 0.636 0.0
C4771 C 0.64995 0.73065 0.62306 0.0
C4772 C 0.64392 0.73844 0.61501 0.0
C4773 C 0.66926 0.73091 0.64271 0.0
C4774 C 0.67592 0.72543 0.63199 0.0
C4775 C 0.67121 0.72991 0.65939 0.0
C4776 C 0.66374 0.73469 0.6712 0.0
C4777 C 0.64806 0.72857 0.66924 0.0
C4778 C 0.64109 0.73315 0.68038 0.0
C4779 C 0.64967 0.74378 0.6936 0.0
C4780 C 0.66523 0.74983 0.69572 0.0
C4781 C 0.67226 0.7453 0.68461 0.0
H4782 H 0.64425 0.74731 0.70221 0.0
H4783 H 0.70677 0.69641 0.59402 0.0
H4784 H 0.31362 0.98021 0.67293 0.0
H4785 H 0.29648 0.9522 0.66637 0.0
H4786 H 0.28737 0.96027 0.61797 0.0
H4787 H 0.3036 0.9881 0.62481 0.0
H4788 H 0.26286 0.94089 0.62665 0.0
H4789 H 0.31122 0.94459 0.62974 0.0
H4790 H 0.33634 0.95158 0.64222 0.0
H4791 H 0.31594 0.92282 0.6801 0.0
H4792 H 0.2907 0.91581 0.66794 0.0
H4793 H 0.23347 0.86485 0.58792 0.0
H4794 H 0.25367 0.89124 0.59785 0.0
H4795 H 0.24104 0.88252 0.64608 0.0
H4796 H 0.22055 0.85627 0.63612 0.0
H4797 H 0.27619 0.90109 0.63879 0.0
H4798 H 0.22729 0.89881 0.63393 0.0
H4799 H 0.20306 0.89123 0.61863 0.0
H4800 H 0.22663 0.91762 0.58046 0.0
H4801 H 0.251 0.92512 0.59544 0.0
C4802 C 0.30792 0.97592 0.66092 0.0
C4803 C 0.30984 0.9863 0.64942 0.0
C4804 C 0.29821 0.95992 0.65712 0.0
C4805 C 0.2907 0.954 0.64158 0.0
C4806 C 0.29289 0.96445 0.63007 0.0
C4807 C 0.3022 0.98039 0.63399 0.0
C4808 C 0.28016 0.93706 0.63725 0.0
C4809 C 0.26595 0.93231 0.62923 0.0
C4810 C 0.28393 0.92564 0.64072 0.0
C4811 C 0.29908 0.92981 0.64803 0.0
C4812 C 0.3121 0.93985 0.64079 0.0
C4813 C 0.32636 0.9438 0.6478 0.0
C4814 C 0.32774 0.93769 0.66197 0.0
C4815 C 0.31486 0.92757 0.66914 0.0
C4816 C 0.30057 0.92359 0.66219 0.0
C4817 C 0.23525 0.86848 0.60067 0.0
C4818 C 0.22551 0.85864 0.61128 0.0
C4819 C 0.24675 0.8835 0.60632 0.0
C4820 C 0.24881 0.88873 0.62268 0.0
C4821 C 0.23966 0.8786 0.63344 0.0
C4822 C 0.22796 0.8637 0.62775 0.0
C4823 C 0.25927 0.90529 0.62814 0.0
C4824 C 0.2733 0.90986 0.63635 0.0
C4825 C 0.25555 0.91663 0.62455 0.0
C4826 C 0.24093 0.91238 0.61571 0.0
C4827 C 0.22729 0.90288 0.62221 0.0
C4828 C 0.21354 0.89861 0.61361 0.0
C4829 C 0.2133 0.9039 0.59856 0.0
C4830 C 0.22683 0.91351 0.5921 0.0
C4831 C 0.24061 0.91777 0.60065 0.0
H4832 H 0.20265 0.90059 0.59191 0.0
H4833 H 0.33879 0.94077 0.66737 0.0
H4834 H 0.00618 0.32319 0.70484 0.0
H4835 H 0.02861 0.33566 0.69024 0.0
H4836 H 0.0493 0.31566 0.71896 0.0
H4837 H 0.02707 0.30342 0.73381 0.0
H4838 H 0.069 0.3454 0.71597 0.0
H4839 H 0.03352 0.30054 0.68023 0.0
H4840 H 0.00931 0.28329 0.664 0.0
H4841 H 0.01604 0.32066 0.63623 0.0
H4842 H 0.04021 0.3382 0.65244 0.0
H4843 H 0.12489 0.34919 0.66763 0.0
H4844 H 0.10337 0.34176 0.68335 0.0
H4845 H 0.08791 0.36547 0.65313 0.0
H4846 H 0.10931 0.37271 0.63717 0.0
H4847 H 0.06558 0.33613 0.65664 0.0
H4848 H 0.10223 0.38041 0.6911 0.0
H4849 H 0.1266 0.39737 0.70714 0.0
H4850 H 0.11788 0.36094 0.73721 0.0
H4851 H 0.09354 0.34367 0.7212 0.0
C4852 C 0.01549 0.32142 0.70803 0.0
C4853 C 0.01482 0.31226 0.72045 0.0
C4854 C 0.02829 0.32853 0.69965 0.0
C4855 C 0.04058 0.32648 0.70341 0.0
C4856 C 0.03996 0.31742 0.71587 0.0
C4857 C 0.02721 0.31038 0.7243 0.0
C4858 C 0.0541 0.3337 0.69439 0.0
C4859 C 0.06827 0.34326 0.70302 0.0
C4860 C 0.0531 0.33126 0.67743 0.0
C4861 C 0.03858 0.32073 0.66766 0.0
C4862 C 0.02978 0.30511 0.67074 0.0
C4863 C 0.01607 0.29528 0.66153 0.0
C4864 C 0.01112 0.30089 0.64912 0.0
C4865 C 0.01988 0.31634 0.64587 0.0
C4866 C 0.03358 0.32623 0.65505 0.0
C4867 C 0.11697 0.35292 0.66443 0.0
C4868 C 0.11877 0.36152 0.65119 0.0
C4869 C 0.10474 0.34877 0.67347 0.0
C4870 C 0.0941 0.35315 0.66946 0.0
C4871 C 0.09603 0.36202 0.65645 0.0
C4872 C 0.10831 0.36625 0.64744 0.0
C4873 C 0.08049 0.34764 0.67826 0.0
C4874 C 0.0663 0.3384 0.66959 0.0
C4875 C 0.08148 0.35033 0.69517 0.0
C4876 C 0.09611 0.3607 0.70486 0.0
C4877 C 0.10556 0.37597 0.70105 0.0
C4878 C 0.11936 0.38565 0.71015 0.0
C4879 C 0.1238 0.38023 0.72317 0.0
C4880 C 0.11443 0.36512 0.72712 0.0
C4881 C 0.10062 0.35539 0.71805 0.0
H4882 H 0.13449 0.38774 0.7302 0.0
H4883 H 0.00051 0.29326 0.642 0.0
H4884 H 0.27248 0.29153 0.68362 0.0
H4885 H 0.26026 0.30077 0.66515 0.0
H4886 H 0.29983 0.34655 0.67159 0.0
H4887 H 0.31207 0.33745 0.69036 0.0
H4888 H 0.27501 0.34816 0.67398 0.0
H4889 H 0.29093 0.32284 0.63646 0.0
H4890 H 0.29375 0.30147 0.62454 0.0
H4891 H 0.24563 0.27253 0.61581 0.0
H4892 H 0.2425 0.29366 0.62788 0.0
H4893 H 0.2469 0.37575 0.61234 0.0
H4894 H 0.26304 0.36783 0.62637 0.0
H4895 H 0.22481 0.32175 0.6271 0.0
H4896 H 0.20854 0.32961 0.61356 0.0
H4897 H 0.25091 0.32173 0.61967 0.0
H4898 H 0.23503 0.346 0.65918 0.0
H4899 H 0.23185 0.36718 0.67097 0.0
H4900 H 0.27986 0.3979 0.67587 0.0
H4901 H 0.28331 0.37695 0.66386 0.0
C4902 C 0.27865 0.30354 0.68104 0.0
C4903 C 0.29326 0.31375 0.68849 0.0
C4904 C 0.27166 0.30879 0.67039 0.0
C4905 C 0.27918 0.32432 0.66683 0.0
C4906 C 0.29382 0.33451 0.67413 0.0
C4907 C 0.30081 0.32928 0.68483 0.0
C4908 C 0.27147 0.33003 0.65605 0.0
C4909 C 0.27001 0.34256 0.66198 0.0
C4910 C 0.26465 0.32253 0.64052 0.0
C4911 C 0.26648 0.3098 0.6332 0.0
C4912 C 0.28094 0.31188 0.63211 0.0
C4913 C 0.2826 0.29981 0.6253 0.0
C4914 C 0.26988 0.28564 0.61945 0.0
C4915 C 0.25547 0.28351 0.62036 0.0
C4916 C 0.25375 0.29554 0.62716 0.0
C4917 C 0.24192 0.36392 0.61546 0.0
C4918 C 0.22638 0.35335 0.61185 0.0
C4919 C 0.25117 0.3594 0.62341 0.0
C4920 C 0.24508 0.34423 0.62785 0.0
C4921 C 0.22974 0.33349 0.62369 0.0
C4922 C 0.22047 0.33801 0.61587 0.0
C4923 C 0.25443 0.33974 0.63766 0.0
C4924 C 0.25612 0.32742 0.63158 0.0
C4925 C 0.26146 0.3474 0.65306 0.0
C4926 C 0.25942 0.35996 0.66045 0.0
C4927 C 0.2449 0.35731 0.66265 0.0
C4928 C 0.24305 0.36926 0.66939 0.0
C4929 C 0.25564 0.38389 0.67412 0.0
C4930 C 0.27012 0.38657 0.67217 0.0
C4931 C 0.27203 0.37466 0.6654 0.0
H4932 H 0.25419 0.39313 0.67934 0.0
H4933 H 0.27118 0.27631 0.61419 0.0
H4934 H 0.72206 0.99773 0.63628 0.0
H4935 H 0.71117 0.97009 0.62816 0.0
H4936 H 0.66645 0.96303 0.63042 0.0
H4937 H 0.67729 0.99056 0.6392 0.0
H4938 H 0.66683 0.93865 0.63966 0.0
H4939 H 0.68314 0.96847 0.59452 0.0
H4940 H 0.70103 0.9892 0.57912 0.0
H4941 H 0.73007 0.97002 0.58078 0.0
H4942 H 0.71243 0.94929 0.59638 0.0
H4943 H 0.63045 0.87004 0.58294 0.0
H4944 H 0.64003 0.89621 0.59611 0.0
H4945 H 0.68462 0.90257 0.60282 0.0
H4946 H 0.67514 0.87638 0.5903 0.0
H4947 H 0.68342 0.92697 0.58887 0.0
H4948 H 0.66565 0.89634 0.63377 0.0
H4949 H 0.64661 0.87542 0.64806 0.0
H4950 H 0.61875 0.89592 0.64529 0.0
H4951 H 0.63752 0.91685 0.63073 0.0
C4952 C 0.70991 0.99025 0.6353 0.0
C4953 C 0.70053 0.99636 0.63818 0.0
C4954 C 0.7037 0.97446 0.63058 0.0
C4955 C 0.68798 0.96456 0.62822 0.0
C4956 C 0.67861 0.97045 0.63204 0.0
C4957 C 0.68483 0.98621 0.63705 0.0
C4958 C 0.68135 0.94837 0.6208 0.0
C4959 C 0.67034 0.93611 0.62847 0.0
C4960 C 0.68596 0.94502 0.60621 0.0
C4961 C 0.69654 0.95742 0.59674 0.0
C4962 C 0.69339 0.96873 0.59168 0.0
C4963 C 0.70347 0.98048 0.58292 0.0
C4964 C 0.71669 0.98095 0.57901 0.0
C4965 C 0.71983 0.96965 0.58383 0.0
C4966 C 0.70979 0.9579 0.59263 0.0
C4967 C 0.64225 0.87694 0.58737 0.0
C4968 C 0.65204 0.87113 0.58539 0.0
C4969 C 0.64771 0.89189 0.59486 0.0
C4970 C 0.66302 0.90127 0.60042 0.0
C4971 C 0.67278 0.89552 0.59851 0.0
C4972 C 0.66734 0.88058 0.59121 0.0
C4973 C 0.66909 0.9173 0.60782 0.0
C4974 C 0.67994 0.92953 0.60008 0.0
C4975 C 0.66417 0.92059 0.62216 0.0
C4976 C 0.65292 0.90807 0.631 0.0
C4977 C 0.6554 0.89631 0.63607 0.0
C4978 C 0.64467 0.88447 0.64425 0.0
C4979 C 0.63146 0.88432 0.64754 0.0
C4980 C 0.62898 0.89604 0.64271 0.0
C4981 C 0.63966 0.9079 0.6345 0.0
H4982 H 0.62317 0.87514 0.65388 0.0
H4983 H 0.72449 0.99005 0.57222 0.0
H4984 H 0.98889 0.7036 0.68403 0.0
H4985 H 0.01049 0.71127 0.66837 0.0
H4986 H 0.03757 0.71362 0.71079 0.0
H4987 H 0.01607 0.70604 0.72657 0.0
H4988 H 0.05246 0.73876 0.69386 0.0
H4989 H 0.02455 0.68341 0.68303 0.0
H4990 H 0.00201 0.65778 0.67491 0.0
H4991 H 0.99838 0.67181 0.62812 0.0
H4992 H 0.02079 0.69761 0.63603 0.0
H4993 H 0.11352 0.74902 0.6506 0.0
H4994 H 0.09287 0.73736 0.66781 0.0
H4995 H 0.0611 0.73054 0.62793 0.0
H4996 H 0.08153 0.74152 0.61055 0.0
H4997 H 0.04934 0.70639 0.64505 0.0
H4998 H 0.07559 0.76216 0.65638 0.0
H4999 H 0.09786 0.78807 0.66425 0.0
H5000 H 0.10424 0.7735 0.70984 0.0
H5001 H 0.0821 0.74742 0.70215 0.0
C5002 C 0.99944 0.70578 0.69004 0.0
C5003 C 0.00076 0.70419 0.70654 0.0
C5004 C 0.01175 0.71008 0.68106 0.0
C5005 C 0.02557 0.71284 0.6884 0.0
C5006 C 0.02698 0.7115 0.7049 0.0
C5007 C 0.01467 0.70714 0.71388 0.0
C5008 C 0.0386 0.71732 0.67887 0.0
C5009 C 0.05188 0.73157 0.68334 0.0
C5010 C 0.03772 0.70804 0.665 0.0
C5011 C 0.02428 0.6925 0.66018 0.0
C5012 C 0.01888 0.68108 0.67105 0.0
C5013 C 0.00614 0.66651 0.66648 0.0
C5014 C 0.99875 0.66318 0.65102 0.0
C5015 C 0.00411 0.67441 0.64009 0.0
C5016 C 0.01684 0.689 0.64461 0.0
C5017 C 0.10209 0.74475 0.64543 0.0
C5018 C 0.09918 0.74638 0.62927 0.0
C5019 C 0.09033 0.73823 0.65531 0.0
C5020 C 0.07548 0.73336 0.64923 0.0
C5021 C 0.07247 0.73431 0.63292 0.0
C5022 C 0.08419 0.74073 0.62304 0.0
C5023 C 0.06313 0.72794 0.6599 0.0
C5024 C 0.04997 0.71351 0.65566 0.0
C5025 C 0.06408 0.7371 0.67393 0.0
C5026 C 0.0773 0.7528 0.67862 0.0
C5027 C 0.08181 0.76445 0.66804 0.0
C5028 C 0.09439 0.77917 0.67247 0.0
C5029 C 0.10249 0.78241 0.68752 0.0
C5030 C 0.09797 0.77096 0.69818 0.0
C5031 C 0.08541 0.75621 0.6938 0.0
H5032 H 0.11223 0.79381 0.69092 0.0
H5033 H 0.98888 0.65189 0.64751 0.0
H5034 H 0.92714 0.62028 0.7278 0.0
H5035 H 0.93428 0.60077 0.73192 0.0
H5036 H 0.98129 0.63615 0.73414 0.0
H5037 H 0.97423 0.65557 0.72934 0.0
H5038 H 0.97759 0.60974 0.7211 0.0
H5039 H 0.96226 0.62585 0.76846 0.0
H5040 H 0.94491 0.6301 0.78421 0.0
H5041 H 0.91198 0.58144 0.77654 0.0
H5042 H 0.92909 0.57694 0.76057 0.0
H5043 H 0.01196 0.58583 0.78064 0.0
H5044 H 0.00231 0.59802 0.76278 0.0
H5045 H 0.95799 0.55718 0.75939 0.0
H5046 H 0.9676 0.54485 0.77709 0.0
H5047 H 0.95814 0.58324 0.77003 0.0
H5048 H 0.97685 0.56732 0.72648 0.0
H5049 H 0.99567 0.56431 0.71224 0.0
H5050 H 0.02399 0.61385 0.71443 0.0
H5051 H 0.00545 0.61717 0.7289 0.0
C5052 C 0.93899 0.62384 0.72886 0.0
C5053 C 0.95013 0.6395 0.72854 0.0
C5054 C 0.94306 0.61269 0.73123 0.0
C5055 C 0.95833 0.61708 0.73376 0.0
C5056 C 0.96944 0.6325 0.73229 0.0
C5057 C 0.96538 0.64361 0.72962 0.0
C5058 C 0.96278 0.60613 0.73966 0.0
C5059 C 0.97338 0.60396 0.73182 0.0
C5060 C 0.95713 0.59842 0.75352 0.0
C5061 C 0.94687 0.60109 0.76317 0.0
C5062 C 0.95128 0.61608 0.77005 0.0
C5063 C 0.94149 0.61853 0.77902 0.0
C5064 C 0.92733 0.60606 0.78133 0.0
C5065 C 0.92294 0.5911 0.77471 0.0
C5066 C 0.93267 0.58859 0.7657 0.0
C5067 C 0.00027 0.57928 0.77572 0.0
C5068 C 0.99048 0.56447 0.78043 0.0
C5069 C 0.99477 0.58625 0.76549 0.0
C5070 C 0.97943 0.57849 0.75976 0.0
C5071 C 0.96985 0.56337 0.76372 0.0
C5072 C 0.97533 0.55639 0.77391 0.0
C5073 C 0.97303 0.5869 0.75157 0.0
C5074 C 0.96213 0.58871 0.7591 0.0
C5075 C 0.97861 0.59443 0.73762 0.0
C5076 C 0.98979 0.59249 0.72889 0.0
C5077 C 0.98715 0.57758 0.72405 0.0
C5078 C 0.99776 0.57582 0.71591 0.0
C5079 C 0.01103 0.58888 0.71246 0.0
C5080 C 0.0137 0.60374 0.71712 0.0
C5081 C 0.00314 0.60557 0.72527 0.0
H5082 H 0.01923 0.58749 0.70616 0.0
H5083 H 0.91977 0.60798 0.78828 0.0
H5084 H 0.38737 0.3531 0.74618 0.0
H5085 H 0.40507 0.38025 0.75557 0.0
H5086 H 0.36905 0.39033 0.75092 0.0
H5087 H 0.3513 0.36315 0.74096 0.0
H5088 H 0.395 0.41453 0.74345 0.0
H5089 H 0.37947 0.38292 0.78713 0.0
H5090 H 0.37464 0.36064 0.80218 0.0
H5091 H 0.42169 0.37513 0.80505 0.0
H5092 H 0.42676 0.39738 0.7898 0.0
H5093 H 0.43586 0.48279 0.80054 0.0
H5094 H 0.41648 0.45759 0.78692 0.0
H5095 H 0.44945 0.4433 0.78435 0.0
H5096 H 0.4689 0.46846 0.79745 0.0
H5097 H 0.42319 0.42161 0.79625 0.0
H5098 H 0.43812 0.45329 0.75169 0.0
H5099 H 0.44228 0.47568 0.73721 0.0
H5100 H 0.3954 0.46134 0.73715 0.0
H5101 H 0.391 0.43897 0.75186 0.0
C5102 C 0.38325 0.36115 0.74689 0.0
C5103 C 0.36791 0.35596 0.74304 0.0
C5104 C 0.39337 0.37665 0.75231 0.0
C5105 C 0.3883 0.38723 0.75439 0.0
C5106 C 0.37319 0.38234 0.74954 0.0
C5107 C 0.36306 0.36682 0.74384 0.0
C5108 C 0.39858 0.40298 0.7627 0.0
C5109 C 0.40101 0.41609 0.75509 0.0
C5110 C 0.40645 0.40503 0.7779 0.0
C5111 C 0.40347 0.39175 0.78721 0.0
C5112 C 0.38877 0.3813 0.79088 0.0
C5113 C 0.38599 0.36868 0.79946 0.0
C5114 C 0.39784 0.36646 0.80454 0.0
C5115 C 0.41251 0.37687 0.80109 0.0
C5116 C 0.41535 0.38949 0.7925 0.0
C5117 C 0.43902 0.47435 0.79693 0.0
C5118 C 0.45394 0.47763 0.80024 0.0
C5119 C 0.42792 0.45995 0.78918 0.0
C5120 C 0.43156 0.44861 0.78462 0.0
C5121 C 0.4464 0.45187 0.78786 0.0
C5122 C 0.45748 0.46624 0.79548 0.0
C5123 C 0.41991 0.43313 0.77683 0.0
C5124 C 0.41714 0.42005 0.78463 0.0
C5125 C 0.41164 0.43116 0.76195 0.0
C5126 C 0.41427 0.44456 0.75304 0.0
C5127 C 0.42872 0.45498 0.74872 0.0
C5128 C 0.43112 0.46766 0.74044 0.0
C5129 C 0.41912 0.46996 0.7363 0.0
C5130 C 0.40469 0.45956 0.74039 0.0
C5131 C 0.40224 0.44688 0.74869 0.0
H5132 H 0.421 0.47978 0.72989 0.0
H5133 H 0.39567 0.35668 0.81117 0.0
H5134 H 0.67582 0.03433 0.6957 0.0
H5135 H 0.6565 0.02802 0.71428 0.0
H5136 H 0.62176 0.00541 0.67473 0.0
H5137 H 0.641 0.01178 0.65601 0.0
H5138 H 0.61718 0.02487 0.69433 0.0
H5139 H 0.6281 0.98407 0.7004 0.0
H5140 H 0.64437 0.97296 0.7054 0.0
H5141 H 0.65937 0.99767 0.7525 0.0
H5142 H 0.64333 0.0091 0.7477 0.0
H5143 H 0.55589 0.99145 0.742 0.0
H5144 H 0.57407 0.99443 0.72293 0.0
H5145 H 0.61007 0.0158 0.76135 0.0
H5146 H 0.59188 0.01228 0.7806 0.0
H5147 H 0.61346 0.99602 0.74179 0.0
H5148 H 0.60371 0.03766 0.73562 0.0
H5149 H 0.58788 0.04932 0.7309 0.0
H5150 H 0.57128 0.02374 0.68429 0.0
H5151 H 0.58687 0.01176 0.68883 0.0
C5152 C 0.66407 0.02795 0.69094 0.0
C5153 C 0.65994 0.02356 0.67437 0.0
C5154 C 0.65304 0.0243 0.7016 0.0
C5155 C 0.6377 0.01613 0.69589 0.0
C5156 C 0.63354 0.0117 0.67937 0.0
C5157 C 0.64456 0.01532 0.6687 0.0
C5158 C 0.62601 0.01263 0.70711 0.0
C5159 C 0.6162 0.01834 0.70456 0.0
C5160 C 0.625 0.00445 0.72068 0.0
C5161 C 0.63461 0.99755 0.72363 0.0
C5162 C 0.63496 0.98723 0.71178 0.0
C5163 C 0.64412 0.98086 0.71458 0.0
C5164 C 0.65293 0.98464 0.72924 0.0
C5165 C 0.65255 0.99476 0.74114 0.0
C5166 C 0.64342 0.00118 0.73839 0.0
C5167 C 0.56764 0.99659 0.74644 0.0
C5168 C 0.57245 0.00172 0.76281 0.0
C5169 C 0.57804 0.99842 0.7355 0.0
C5170 C 0.59346 0.00555 0.74069 0.0
C5171 C 0.59824 0.01034 0.75707 0.0
C5172 C 0.58785 0.00845 0.76803 0.0
C5173 C 0.60465 0.00829 0.72902 0.0
C5174 C 0.61439 0.00247 0.7315 0.0
C5175 C 0.60565 0.01644 0.71542 0.0
C5176 C 0.59633 0.02369 0.71263 0.0
C5177 C 0.5966 0.03443 0.72441 0.0
C5178 C 0.58768 0.04111 0.72176 0.0
C5179 C 0.57855 0.03724 0.70732 0.0
C5180 C 0.57834 0.02671 0.69548 0.0
C5181 C 0.58722 0.01998 0.69808 0.0
H5182 H 0.57165 0.04242 0.70529 0.0
H5183 H 0.66001 0.97969 0.73139 0.0
loop_
_geom_bond_atom_site_label_1
_geom_bond_atom_site_label_2
_geom_bond_distance
_geom_bond_site_symmetry_2
_ccdc_geom_bond_type
Mg0 O1 2.028 . S
Mg0 O7 1.986 1_455 S
Mg0 O9 2.114 . S
Mg0 O10 2.251 1_554 S
Mg0 O13 2.010 . S
O1 Mg0 2.028 . S
O1 C4 1.250 . S
O2 Mg3 2.028 . S
O2 C4 1.248 1_655 S
Mg3 O2 2.028 . S
Mg3 O8 2.032 . S
Mg3 O10 2.079 1_654 S
C4 O1 1.250 . S
C4 O2 1.248 1_455 S
C5 O6 1.264 . S
C5 O13 1.249 . S
O6 C5 1.264 . S
O7 Mg0 1.986 1_655 S
O7 C11 1.246 . S
O8 Mg3 2.032 . S
O8 C11 1.259 . S
O9 Mg0 2.114 . S
O9 C12 1.252 1_554 S
O10 Mg0 2.251 1_556 S
O10 Mg3 2.079 1_456 S
O10 C12 1.273 . S
C11 O7 1.246 . S
C11 O8 1.259 . S
C12 O9 1.252 1_556 S
C12 O10 1.273 . S
O13 Mg0 2.010 . S
O13 C5 1.249 . S
Mg14 O15 2.028 . S
Mg14 O21 1.986 . S
Mg14 O23 2.114 . S
Mg14 O24 2.251 . S
Mg14 O27 2.010 . S
O15 Mg14 2.028 . S
O15 C18 1.250 . S
O16 Mg17 2.028 . S
O16 C18 1.248 . S
Mg17 O16 2.028 . S
Mg17 O22 2.032 . S
Mg17 O24 2.079 . S
C18 O15 1.250 . S
C18 O16 1.248 . S
C19 O20 1.264 . S
C19 O27 1.249 . S
O20 C19 1.264 . S
O21 Mg14 1.986 . S
O21 C25 1.246 . S
O22 Mg17 2.032 . S
O22 C25 1.259 . S
O23 Mg14 2.114 . S
O23 C26 1.252 . S
O24 Mg14 2.251 . S
O24 Mg17 2.079 . S
O24 C26 1.273 . S
C25 O21 1.246 . S
C25 O22 1.259 . S
C26 O23 1.252 . S
C26 O24 1.273 . S
O27 Mg14 2.010 . S
O27 C19 1.249 . S
Mg28 O29 2.028 1_565 S
Mg28 O35 1.986 1_565 S
Mg28 O37 2.114 . S
Mg28 O38 2.255 1_565 S
Mg28 O41 2.010 . S
O29 Mg28 2.028 1_545 S
O29 C32 1.250 . S
O30 Mg31 2.028 . S
O30 C32 1.248 . S
Mg31 O30 2.028 . S
Mg31 O36 2.032 . S
Mg31 O38 2.080 . S
C32 O29 1.250 . S
C32 O30 1.248 . S
C33 O34 1.264 . S
C33 O41 1.249 . S
O34 C33 1.264 . S
O35 Mg28 1.986 1_545 S
O35 C39 1.246 . S
O36 Mg31 2.032 . S
O36 C39 1.259 . S
O37 Mg28 2.114 . S
O37 C40 1.252 1_554 S
O38 Mg28 2.255 1_545 S
O38 Mg31 2.080 . S
O38 C40 1.273 1_544 S
C39 O35 1.246 . S
C39 O36 1.259 . S
C40 O37 1.252 1_556 S
C40 O38 1.273 1_566 S
O41 Mg28 2.010 . S
O41 C33 1.249 . S
Mg42 O43 2.018 1_655 S
Mg42 O49 1.986 1_655 S
Mg42 O51 2.114 . S
Mg42 O52 2.251 1_655 S
Mg42 O55 2.010 . S
O43 Mg42 2.018 1_455 S
O43 C46 1.272 . S
O44 Mg45 2.028 . S
O44 C46 1.248 . S
Mg45 O44 2.028 . S
Mg45 O50 2.032 . S
Mg45 O52 2.079 . S
C46 O43 1.272 . S
C46 O44 1.248 . S
C47 O48 1.264 . S
C47 O55 1.249 . S
O48 C47 1.264 . S
O49 Mg42 1.986 1_455 S
O49 C53 1.246 . S
O50 Mg45 2.032 . S
O50 C53 1.259 . S
O51 Mg42 2.114 . S
O51 C54 1.252 . S
O52 Mg42 2.251 1_455 S
O52 Mg45 2.079 . S
O52 C54 1.273 1_455 S
C53 O49 1.246 . S
C53 O50 1.259 . S
C54 O51 1.252 . S
C54 O52 1.273 1_655 S
O55 Mg42 2.010 . S
O55 C47 1.249 . S
Mg56 O57 2.028 1_556 S
Mg56 O63 1.986 . S
Mg56 O65 2.114 . S
Mg56 O66 2.251 . S
Mg56 O69 2.010 1_556 S
O57 Mg56 2.028 1_554 S
O57 C60 1.250 . S
O58 Mg59 2.028 1_554 S
O58 C60 1.248 . S
Mg59 O58 2.028 1_556 S
Mg59 O64 2.032 . S
Mg59 O66 2.079 . S
C60 O57 1.250 . S
C60 O58 1.248 . S
C61 O62 1.264 . S
C61 O69 1.249 . S
O62 C61 1.264 . S
O63 Mg56 1.986 . S
O63 C67 1.246 . S
O64 Mg59 2.032 . S
O64 C67 1.259 . S
O65 Mg56 2.114 . S
O65 C68 1.252 . S
O66 Mg56 2.251 . S
O66 Mg59 2.079 . S
O66 C68 1.273 . S
C67 O63 1.246 . S
C67 O64 1.259 . S
C68 O65 1.252 . S
C68 O66 1.273 . S
O69 Mg56 2.010 1_554 S
O69 C61 1.249 . S
Mg70 O71 2.028 . S
Mg70 O77 2.053 . S
Mg70 O79 2.114 . S
Mg70 O80 2.251 . S
Mg70 O83 2.010 . S
O71 Mg70 2.028 . S
O71 C74 1.250 . S
O72 Mg73 2.028 . S
O72 C74 1.248 1_565 S
Mg73 O72 2.028 . S
Mg73 O78 2.032 . S
Mg73 O80 2.079 1_565 S
C74 O71 1.250 . S
C74 O72 1.248 1_545 S
C75 O76 1.264 . S
C75 O83 1.249 . S
O76 C75 1.264 . S
O77 Mg70 2.053 . S
O77 C81 1.197 1_545 S
O78 Mg73 2.032 . S
O78 C81 1.259 . S
O79 Mg70 2.114 . S
O79 C82 1.252 . S
O80 Mg70 2.251 . S
O80 Mg73 2.079 1_545 S
O80 C82 1.273 . S
C81 O77 1.197 1_565 S
C81 O78 1.259 . S
C82 O79 1.252 . S
C82 O80 1.273 . S
O83 Mg70 2.010 . S
O83 C75 1.249 . S
Mg84 O85 2.028 . S
Mg84 O91 1.986 . S
Mg84 O93 2.114 . S
Mg84 O94 2.251 . S
Mg84 O97 2.010 . S
O85 Mg84 2.028 . S
O85 C88 1.250 . S
O86 Mg87 2.028 . S
O86 C88 1.248 . S
Mg87 O86 2.028 . S
Mg87 O92 2.032 . S
Mg87 O94 2.079 . S
C88 O85 1.250 . S
C88 O86 1.248 . S
C89 O90 1.264 . S
C89 O97 1.249 . S
O90 C89 1.264 . S
O91 Mg84 1.986 . S
O91 C95 1.246 . S
O92 Mg87 2.032 . S
O92 C95 1.259 . S
O93 Mg84 2.114 . S
O93 C96 1.252 . S
O94 Mg84 2.251 . S
O94 Mg87 2.079 . S
O94 C96 1.273 . S
C95 O91 1.246 . S
C95 O92 1.259 . S
C96 O93 1.252 . S
C96 O94 1.273 . S
O97 Mg84 2.010 . S
O97 C89 1.249 . S
Mg98 O99 2.028 . S
Mg98 O105 1.986 . S
Mg98 O107 2.114 . S
Mg98 O108 2.251 . S
Mg98 O111 2.010 . S
O99 Mg98 2.028 . S
O99 C102 1.250 . S
O100 Mg101 2.028 . S
O100 C102 1.248 . S
Mg101 O100 2.028 . S
Mg101 O106 2.032 . S
Mg101 O108 2.079 . S
C102 O99 1.250 . S
C102 O100 1.248 . S
C103 O104 1.264 . S
C103 O111 1.249 . S
O104 C103 1.264 . S
O105 Mg98 1.986 . S
O105 C109 1.246 . S
O106 Mg101 2.032 . S
O106 C109 1.259 . S
O107 Mg98 2.114 . S
O107 C110 1.252 . S
O108 Mg98 2.251 . S
O108 Mg101 2.079 . S
O108 C110 1.273 . S
C109 O105 1.246 . S
C109 O106 1.259 . S
C110 O107 1.252 . S
C110 O108 1.273 . S
O111 Mg98 2.010 . S
O111 C103 1.249 . S
Mg112 O113 2.028 . S
Mg112 O119 1.986 . S
Mg112 O121 2.114 . S
Mg112 O122 2.251 . S
Mg112 O125 2.010 . S
O113 Mg112 2.028 . S
O113 C116 1.250 . S
O114 Mg115 2.028 . S
O114 C116 1.248 . S
Mg115 O114 2.028 . S
Mg115 O120 2.032 . S
Mg115 O122 2.079 . S
C116 O113 1.250 . S
C116 O114 1.248 . S
C117 O118 1.264 1_455 S
C117 O125 1.249 . S
O118 C117 1.264 1_655 S
O119 Mg112 1.986 . S
O119 C123 1.246 . S
O120 Mg115 2.032 . S
O120 C123 1.259 . S
O121 Mg112 2.114 . S
O121 C124 1.252 . S
O122 Mg112 2.251 . S
O122 Mg115 2.079 . S
O122 C124 1.273 . S
C123 O119 1.246 . S
C123 O120 1.259 . S
C124 O121 1.252 . S
C124 O122 1.273 . S
O125 Mg112 2.010 . S
O125 C117 1.249 . S
Mg126 O127 2.028 . S
Mg126 O133 1.986 . S
Mg126 O135 2.114 . S
Mg126 O136 2.251 . S
Mg126 O139 2.010 . S
O127 Mg126 2.028 . S
O127 C130 1.250 . S
O128 Mg129 2.028 . S
O128 C130 1.248 . S
Mg129 O128 2.028 . S
Mg129 O134 2.032 . S
Mg129 O136 2.079 . S
C130 O127 1.250 . S
C130 O128 1.248 . S
C131 O132 1.264 . S
C131 O139 1.249 . S
O132 C131 1.264 . S
O133 Mg126 1.986 . S
O133 C137 1.246 . S
O134 Mg129 2.032 . S
O134 C137 1.259 . S
O135 Mg126 2.114 . S
O135 C138 1.252 . S
O136 Mg126 2.251 . S
O136 Mg129 2.079 . S
O136 C138 1.273 . S
C137 O133 1.246 . S
C137 O134 1.259 . S
C138 O135 1.252 . S
C138 O136 1.273 . S
O139 Mg126 2.010 . S
O139 C131 1.249 . S
Mg140 O141 2.028 . S
Mg140 O147 1.986 . S
Mg140 O149 2.114 . S
Mg140 O150 2.251 . S
Mg140 O153 2.010 . S
O141 Mg140 2.028 . S
O141 C144 1.250 . S
O142 Mg143 2.028 . S
O142 C144 1.248 . S
Mg143 O142 2.028 . S
Mg143 O148 2.032 . S
Mg143 O150 2.079 . S
C144 O141 1.250 . S
C144 O142 1.248 . S
C145 O146 1.264 1_455 S
C145 O153 1.249 . S
O146 C145 1.264 1_655 S
O147 Mg140 1.986 . S
O147 C151 1.246 . S
O148 Mg143 2.032 . S
O148 C151 1.259 . S
O149 Mg140 2.114 . S
O149 C152 1.252 . S
O150 Mg140 2.251 . S
O150 Mg143 2.079 . S
O150 C152 1.273 . S
C151 O147 1.246 . S
C151 O148 1.259 . S
C152 O149 1.252 . S
C152 O150 1.273 . S
O153 Mg140 2.010 . S
O153 C145 1.249 . S
Mg154 O155 2.028 . S
Mg154 O161 1.986 . S
Mg154 O163 2.114 . S
Mg154 O164 2.251 . S
Mg154 O167 2.010 . S
O155 Mg154 2.028 . S
O155 C158 1.250 . S
O156 Mg157 2.028 . S
O156 C158 1.248 . S
Mg157 O156 2.028 . S
Mg157 O162 2.032 . S
Mg157 O164 2.079 . S
C158 O155 1.250 . S
C158 O156 1.248 . S
C159 O160 1.264 . S
C159 O167 1.249 . S
O160 C159 1.264 . S
O161 Mg154 1.986 . S
O161 C165 1.246 . S
O162 Mg157 2.032 . S
O162 C165 1.259 . S
O163 Mg154 2.114 . S
O163 C166 1.252 . S
O164 Mg154 2.251 . S
O164 Mg157 2.079 . S
O164 C166 1.273 . S
C165 O161 1.246 . S
C165 O162 1.259 . S
C166 O163 1.252 . S
C166 O164 1.273 . S
O167 Mg154 2.010 . S
O167 C159 1.249 . S
Mg168 O169 2.028 . S
Mg168 O175 1.986 . S
Mg168 O177 2.114 . S
Mg168 O178 2.251 . S
Mg168 O181 2.010 . S
O169 Mg168 2.028 . S
O169 C172 1.250 . S
O170 Mg171 2.028 . S
O170 C172 1.248 . S
Mg171 O170 2.028 . S
Mg171 O176 2.032 . S
Mg171 O178 2.079 . S
C172 O169 1.250 . S
C172 O170 1.248 . S
C173 O174 1.264 . S
C173 O181 1.249 . S
O174 C173 1.264 . S
O175 Mg168 1.986 . S
O175 C179 1.246 . S
O176 Mg171 2.032 . S
O176 C179 1.259 . S
O177 Mg168 2.114 . S
O177 C180 1.252 . S
O178 Mg168 2.251 . S
O178 Mg171 2.079 . S
O178 C180 1.273 . S
C179 O175 1.246 . S
C179 O176 1.259 . S
C180 O177 1.252 . S
C180 O178 1.273 . S
O181 Mg168 2.010 . S
O181 C173 1.249 . S
Mg182 O183 2.028 . S
Mg182 O189 1.986 . S
Mg182 O191 2.114 . S
Mg182 O192 2.251 . S
Mg182 O195 2.010 . S
O183 Mg182 2.028 . S
O183 C186 1.250 . S
O184 Mg185 2.028 . S
O184 C186 1.248 . S
Mg185 O184 2.028 . S
Mg185 O190 2.032 . S
Mg185 O192 2.079 . S
C186 O183 1.250 . S
C186 O184 1.248 . S
C187 O188 1.264 . S
C187 O195 1.249 1_455 S
O188 C187 1.264 . S
O189 Mg182 1.986 . S
O189 C193 1.246 . S
O190 Mg185 2.032 . S
O190 C193 1.259 . S
O191 Mg182 2.114 . S
O191 C194 1.252 . S
O192 Mg182 2.251 . S
O192 Mg185 2.079 . S
O192 C194 1.273 . S
C193 O189 1.246 . S
C193 O190 1.259 . S
C194 O191 1.252 . S
C194 O192 1.273 . S
O195 Mg182 2.010 . S
O195 C187 1.249 1_655 S
Mg196 O197 2.028 . S
Mg196 O203 1.986 . S
Mg196 O205 2.114 . S
Mg196 O206 2.251 . S
Mg196 O209 2.010 . S
O197 Mg196 2.028 . S
O197 C200 1.250 . S
O198 Mg199 2.028 . S
O198 C200 1.248 . S
Mg199 O198 2.028 . S
Mg199 O204 2.032 . S
Mg199 O206 2.079 . S
C200 O197 1.250 . S
C200 O198 1.248 . S
C201 O202 1.264 . S
C201 O209 1.249 . S
O202 C201 1.264 . S
O203 Mg196 1.986 . S
O203 C207 1.246 . S
O204 Mg199 2.032 . S
O204 C207 1.259 . S
O205 Mg196 2.114 . S
O205 C208 1.252 . S
O206 Mg196 2.251 . S
O206 Mg199 2.079 . S
O206 C208 1.273 . S
C207 O203 1.246 . S
C207 O204 1.259 . S
C208 O205 1.252 . S
C208 O206 1.273 . S
O209 Mg196 2.010 . S
O209 C201 1.249 . S
Mg210 O211 2.028 . S
Mg210 O217 1.986 . S
Mg210 O219 2.114 . S
Mg210 O220 2.251 . S
Mg210 O223 2.010 . S
O211 Mg210 2.028 . S
O211 C214 1.250 . S
O212 Mg213 2.028 . S
O212 C214 1.248 . S
Mg213 O212 2.028 . S
Mg213 O218 2.032 . S
Mg213 O220 2.079 . S
C214 O211 1.250 . S
C214 O212 1.248 . S
C215 O216 1.264 . S
C215 O223 1.249 . S
O216 C215 1.264 . S
O217 Mg210 1.986 . S
O217 C221 1.246 . S
O218 Mg213 2.032 . S
O218 C221 1.259 . S
O219 Mg210 2.114 . S
O219 C222 1.252 . S
O220 Mg210 2.251 . S
O220 Mg213 2.079 . S
O220 C222 1.273 . S
C221 O217 1.246 . S
C221 O218 1.259 . S
C222 O219 1.252 . S
C222 O220 1.273 . S
O223 Mg210 2.010 . S
O223 C215 1.249 . S
Mg224 O225 2.028 . S
Mg224 O231 1.986 . S
Mg224 O233 2.114 . S
Mg224 O234 2.251 . S
Mg224 O237 2.010 . S
O225 Mg224 2.028 . S
O225 C228 1.250 . S
O226 Mg227 2.028 . S
O226 C228 1.248 . S
Mg227 O226 2.028 . S
Mg227 O232 2.032 . S
Mg227 O234 2.079 . S
C228 O225 1.250 . S
C228 O226 1.248 . S
C229 O230 1.264 . S
C229 O237 1.249 . S
O230 C229 1.264 . S
O231 Mg224 1.986 . S
O231 C235 1.246 . S
O232 Mg227 2.032 . S
O232 C235 1.259 . S
O233 Mg224 2.114 . S
O233 C236 1.252 . S
O234 Mg224 2.251 . S
O234 Mg227 2.079 . S
O234 C236 1.273 . S
C235 O231 1.246 . S
C235 O232 1.259 . S
C236 O233 1.252 . S
C236 O234 1.273 . S
O237 Mg224 2.010 . S
O237 C229 1.249 . S
Mg238 O239 2.028 . S
Mg238 O245 1.986 . S
Mg238 O247 2.114 . S
Mg238 O248 2.251 . S
Mg238 O251 2.010 . S
O239 Mg238 2.028 . S
O239 C242 1.250 . S
O240 Mg241 2.028 . S
O240 C242 1.248 . S
Mg241 O240 2.028 . S
Mg241 O246 2.032 . S
Mg241 O248 2.079 . S
C242 O239 1.250 . S
C242 O240 1.248 . S
C243 O244 1.279 . S
C243 O251 1.237 1_455 S
O244 C243 1.279 . S
O245 Mg238 1.986 . S
O245 C249 1.246 . S
O246 Mg241 2.032 . S
O246 C249 1.259 . S
O247 Mg238 2.114 . S
O247 C250 1.252 . S
O248 Mg238 2.251 . S
O248 Mg241 2.079 . S
O248 C250 1.273 . S
C249 O245 1.246 . S
C249 O246 1.259 . S
C250 O247 1.252 . S
C250 O248 1.273 . S
O251 Mg238 2.010 . S
O251 C243 1.237 1_655 S
H252 O278 0.856 . S
H253 O281 0.854 . S
H254 C289 0.930 . S
H255 C290 0.930 . S
H256 C292 0.930 . S
H257 C293 0.930 . S
H258 C295 0.931 . S
H259 C296 0.930 . S
H260 C298 0.930 . S
H261 C299 0.929 . S
H262 C301 0.930 . S
H263 C302 0.931 . S
H264 C304 0.930 . S
H265 C305 0.929 . S
H266 C307 0.931 . S
H267 C308 0.930 . S
H268 C310 0.930 . S
H269 C311 0.932 . S
H270 C313 0.930 . S
H271 C314 0.929 . S
H272 C316 0.931 . S
H273 C317 0.930 . S
H274 C319 0.929 . S
H275 C320 0.931 . S
H276 C322 0.930 . S
H277 C323 0.929 . S
O278 H252 0.856 . S
O278 C324 1.300 . S
O279 C324 1.209 . S
O280 C325 1.199 . S
O281 H253 0.854 . S
O281 C325 1.297 . S
C282 C283 1.404 . S
C282 C287 1.397 . S
C282 C288 1.492 . S
C283 C282 1.404 . S
C283 C284 1.396 . S
C283 C294 1.492 . S
C284 C283 1.396 . S
C284 C285 1.397 . S
C284 C300 1.509 . S
C285 C284 1.397 . S
C285 C286 1.412 . S
C285 C306 1.485 . S
C286 C285 1.412 . S
C286 C287 1.388 . S
C286 C312 1.490 . S
C287 C282 1.397 . S
C287 C286 1.388 . S
C287 C318 1.519 . S
C288 C282 1.492 . S
C288 C289 1.363 . S
C288 C293 1.390 . S
C289 H254 0.930 . S
C289 C288 1.363 . S
C289 C290 1.372 . S
C290 H255 0.930 . S
C290 C289 1.372 . S
C290 C291 1.383 . S
C291 C290 1.383 . S
C291 C292 1.395 . S
C292 H256 0.930 . S
C292 C291 1.395 . S
C292 C293 1.362 . S
C293 H257 0.930 . S
C293 C288 1.390 . S
C293 C292 1.362 . S
C294 C283 1.492 . S
C294 C295 1.377 . S
C294 C299 1.397 . S
C295 H258 0.931 . S
C295 C294 1.377 . S
C295 C296 1.376 . S
C296 H259 0.930 . S
C296 C295 1.376 . S
C296 C297 1.376 . S
C297 C296 1.376 . S
C297 C298 1.378 . S
C297 C324 1.486 . S
C298 H260 0.930 . S
C298 C297 1.378 . S
C298 C299 1.376 . S
C299 H261 0.929 . S
C299 C294 1.397 . S
C299 C298 1.376 . S
C300 C284 1.509 . S
C300 C301 1.391 . S
C300 C305 1.386 . S
C301 H262 0.930 . S
C301 C300 1.391 . S
C301 C302 1.375 . S
C302 H263 0.931 . S
C302 C301 1.375 . S
C302 C303 1.375 . S
C303 C302 1.375 . S
C303 C304 1.361 . S
C304 H264 0.930 . S
C304 C303 1.361 . S
C304 C305 1.399 . S
C305 H265 0.929 . S
C305 C300 1.386 . S
C305 C304 1.399 . S
C306 C285 1.485 . S
C306 C307 1.394 . S
C306 C311 1.360 . S
C307 H266 0.931 . S
C307 C306 1.394 . S
C307 C308 1.372 . S
C308 H267 0.930 . S
C308 C307 1.372 . S
C308 C309 1.397 . S
C309 C308 1.397 . S
C309 C310 1.390 . S
C309 C325 1.476 . S
C310 H268 0.930 . S
C310 C309 1.390 . S
C310 C311 1.366 . S
C311 H269 0.932 . S
C311 C306 1.360 . S
C311 C310 1.366 . S
C312 C286 1.490 . S
C312 C313 1.380 . S
C312 C317 1.386 . S
C313 H270 0.930 . S
C313 C312 1.380 . S
C313 C314 1.381 . S
C314 H271 0.929 . S
C314 C313 1.381 . S
C314 C315 1.371 . S
C315 C314 1.371 . S
C315 C316 1.380 . S
C316 H272 0.931 . S
C316 C315 1.380 . S
C316 C317 1.387 . S
C317 H273 0.930 . S
C317 C312 1.386 . S
C317 C316 1.387 . S
C318 C287 1.519 . S
C318 C319 1.377 . S
C318 C323 1.361 . S
C319 H274 0.929 . S
C319 C318 1.377 . S
C319 C320 1.386 . S
C320 H275 0.931 . S
C320 C319 1.386 . S
C320 C321 1.363 . S
C321 C320 1.363 . S
C321 C322 1.385 . S
C322 H276 0.930 . S
C322 C321 1.385 . S
C322 C323 1.396 . S
C323 H277 0.929 . S
C323 C318 1.361 . S
C323 C322 1.396 . S
C324 O278 1.300 . S
C324 O279 1.209 . S
C324 C297 1.486 . S
C325 O280 1.199 . S
C325 O281 1.297 . S
C325 C309 1.476 . S
H326 O352 0.856 . S
H327 O355 0.854 . S
H328 C363 0.930 . S
H329 C364 0.930 . S
H330 C366 0.930 . S
H331 C367 0.930 . S
H332 C369 0.931 . S
H333 C370 0.930 . S
H334 C372 0.930 . S
H335 C373 0.929 . S
H336 C375 0.930 . S
H337 C376 0.931 . S
H338 C378 0.930 . S
H339 C379 0.929 . S
H340 C381 0.931 . S
H341 C382 0.930 . S
H342 C384 0.930 . S
H343 C385 0.932 . S
H344 C387 0.930 . S
H345 C388 0.929 . S
H346 C390 0.931 . S
H347 C391 0.930 . S
H348 C393 0.929 . S
H349 C394 0.931 . S
H350 C396 0.930 . S
H351 C397 0.929 . S
O352 H326 0.856 . S
O352 C398 1.300 . S
O353 C398 1.209 . S
O354 C399 1.199 . S
O355 H327 0.854 . S
O355 C399 1.297 . S
C356 C357 1.404 . S
C356 C361 1.397 . S
C356 C362 1.492 . S
C357 C356 1.404 . S
C357 C358 1.396 . S
C357 C368 1.492 . S
C358 C357 1.396 . S
C358 C359 1.397 . S
C358 C374 1.509 . S
C359 C358 1.397 . S
C359 C360 1.412 . S
C359 C380 1.485 . S
C360 C359 1.412 . S
C360 C361 1.388 . S
C360 C386 1.490 . S
C361 C356 1.397 . S
C361 C360 1.388 . S
C361 C392 1.519 . S
C362 C356 1.492 . S
C362 C363 1.363 . S
C362 C367 1.390 . S
C363 H328 0.930 . S
C363 C362 1.363 . S
C363 C364 1.372 . S
C364 H329 0.930 . S
C364 C363 1.372 . S
C364 C365 1.383 . S
C365 C364 1.383 . S
C365 C366 1.395 . S
C366 H330 0.930 . S
C366 C365 1.395 . S
C366 C367 1.362 . S
C367 H331 0.930 . S
C367 C362 1.390 . S
C367 C366 1.362 . S
C368 C357 1.492 . S
C368 C369 1.377 . S
C368 C373 1.397 . S
C369 H332 0.931 . S
C369 C368 1.377 . S
C369 C370 1.376 . S
C370 H333 0.930 . S
C370 C369 1.376 . S
C370 C371 1.376 . S
C371 C370 1.376 . S
C371 C372 1.378 . S
C371 C398 1.486 . S
C372 H334 0.930 . S
C372 C371 1.378 . S
C372 C373 1.376 . S
C373 H335 0.929 . S
C373 C368 1.397 . S
C373 C372 1.376 . S
C374 C358 1.509 . S
C374 C375 1.391 . S
C374 C379 1.386 . S
C375 H336 0.930 . S
C375 C374 1.391 . S
C375 C376 1.375 . S
C376 H337 0.931 . S
C376 C375 1.375 . S
C376 C377 1.375 . S
C377 C376 1.375 . S
C377 C378 1.361 . S
C378 H338 0.930 . S
C378 C377 1.361 . S
C378 C379 1.399 . S
C379 H339 0.929 . S
C379 C374 1.386 . S
C379 C378 1.399 . S
C380 C359 1.485 . S
C380 C381 1.394 . S
C380 C385 1.360 . S
C381 H340 0.931 . S
C381 C380 1.394 . S
C381 C382 1.372 . S
C382 H341 0.930 . S
C382 C381 1.372 . S
C382 C383 1.397 . S
C383 C382 1.397 . S
C383 C384 1.390 . S
C383 C399 1.476 . S
C384 H342 0.930 . S
C384 C383 1.390 . S
C384 C385 1.366 . S
C385 H343 0.932 . S
C385 C380 1.360 . S
C385 C384 1.366 . S
C386 C360 1.490 . S
C386 C387 1.380 . S
C386 C391 1.386 . S
C387 H344 0.930 . S
C387 C386 1.380 . S
C387 C388 1.381 . S
C388 H345 0.929 . S
C388 C387 1.381 . S
C388 C389 1.371 . S
C389 C388 1.371 . S
C389 C390 1.380 . S
C390 H346 0.931 . S
C390 C389 1.380 . S
C390 C391 1.387 . S
C391 H347 0.930 . S
C391 C386 1.386 . S
C391 C390 1.387 . S
C392 C361 1.519 . S
C392 C393 1.377 . S
C392 C397 1.361 . S
C393 H348 0.929 . S
C393 C392 1.377 . S
C393 C394 1.386 . S
C394 H349 0.931 . S
C394 C393 1.386 . S
C394 C395 1.363 . S
C395 C394 1.363 . S
C395 C396 1.385 . S
C396 H350 0.930 . S
C396 C395 1.385 . S
C396 C397 1.396 . S
C397 H351 0.929 . S
C397 C392 1.361 . S
C397 C396 1.396 . S
C398 O352 1.300 . S
C398 O353 1.209 . S
C398 C371 1.486 . S
C399 O354 1.199 . S
C399 O355 1.297 . S
C399 C383 1.476 . S
H400 O426 0.856 . S
H401 O429 0.854 . S
H402 C437 0.930 . S
H403 C438 0.930 . S
H404 C440 0.930 . S
H405 C441 0.930 . S
H406 C443 0.931 . S
H407 C444 0.930 . S
H408 C446 0.930 . S
H409 C447 0.929 . S
H410 C449 0.930 . S
H411 C450 0.931 . S
H412 C452 0.930 . S
H413 C453 0.929 . S
H414 C455 0.931 . S
H415 C456 0.930 . S
H416 C458 0.930 . S
H417 C459 0.932 . S
H418 C461 0.930 . S
H419 C462 0.929 . S
H420 C464 0.931 . S
H421 C465 0.930 . S
H422 C467 0.929 . S
H423 C468 0.931 . S
H424 C470 0.930 . S
H425 C471 0.929 . S
O426 H400 0.856 . S
O426 C472 1.300 . S
O427 C472 1.209 . S
O428 C473 1.199 . S
O429 H401 0.854 . S
O429 C473 1.297 . S
C430 C431 1.404 . S
C430 C435 1.397 . S
C430 C436 1.492 . S
C431 C430 1.404 . S
C431 C432 1.396 . S
C431 C442 1.492 . S
C432 C431 1.396 . S
C432 C433 1.397 . S
C432 C448 1.509 . S
C433 C432 1.397 . S
C433 C434 1.412 . S
C433 C454 1.485 . S
C434 C433 1.412 . S
C434 C435 1.388 . S
C434 C460 1.490 . S
C435 C430 1.397 . S
C435 C434 1.388 . S
C435 C466 1.519 . S
C436 C430 1.492 . S
C436 C437 1.363 . S
C436 C441 1.390 . S
C437 H402 0.930 . S
C437 C436 1.363 . S
C437 C438 1.372 . S
C438 H403 0.930 . S
C438 C437 1.372 . S
C438 C439 1.383 . S
C439 C438 1.383 . S
C439 C440 1.395 . S
C440 H404 0.930 . S
C440 C439 1.395 . S
C440 C441 1.362 . S
C441 H405 0.930 . S
C441 C436 1.390 . S
C441 C440 1.362 . S
C442 C431 1.492 . S
C442 C443 1.377 . S
C442 C447 1.397 . S
C443 H406 0.931 . S
C443 C442 1.377 . S
C443 C444 1.376 . S
C444 H407 0.930 . S
C444 C443 1.376 . S
C444 C445 1.376 . S
C445 C444 1.376 . S
C445 C446 1.378 . S
C445 C472 1.486 . S
C446 H408 0.930 . S
C446 C445 1.378 . S
C446 C447 1.376 . S
C447 H409 0.929 . S
C447 C442 1.397 . S
C447 C446 1.376 . S
C448 C432 1.509 . S
C448 C449 1.391 . S
C448 C453 1.386 . S
C449 H410 0.930 . S
C449 C448 1.391 . S
C449 C450 1.375 . S
C450 H411 0.931 . S
C450 C449 1.375 . S
C450 C451 1.375 . S
C451 C450 1.375 . S
C451 C452 1.361 . S
C452 H412 0.930 . S
C452 C451 1.361 . S
C452 C453 1.399 . S
C453 H413 0.929 . S
C453 C448 1.386 . S
C453 C452 1.399 . S
C454 C433 1.485 . S
C454 C455 1.394 . S
C454 C459 1.360 . S
C455 H414 0.931 . S
C455 C454 1.394 . S
C455 C456 1.372 . S
C456 H415 0.930 . S
C456 C455 1.372 . S
C456 C457 1.397 . S
C457 C456 1.397 . S
C457 C458 1.390 . S
C457 C473 1.476 . S
C458 H416 0.930 . S
C458 C457 1.390 . S
C458 C459 1.366 . S
C459 H417 0.932 . S
C459 C454 1.360 . S
C459 C458 1.366 . S
C460 C434 1.490 . S
C460 C461 1.380 . S
C460 C465 1.386 . S
C461 H418 0.930 . S
C461 C460 1.380 . S
C461 C462 1.381 . S
C462 H419 0.929 . S
C462 C461 1.381 . S
C462 C463 1.371 . S
C463 C462 1.371 . S
C463 C464 1.380 . S
C464 H420 0.931 . S
C464 C463 1.380 . S
C464 C465 1.387 . S
C465 H421 0.930 . S
C465 C460 1.386 . S
C465 C464 1.387 . S
C466 C435 1.519 . S
C466 C467 1.377 . S
C466 C471 1.361 . S
C467 H422 0.929 . S
C467 C466 1.377 . S
C467 C468 1.386 . S
C468 H423 0.931 . S
C468 C467 1.386 . S
C468 C469 1.363 . S
C469 C468 1.363 . S
C469 C470 1.385 . S
C470 H424 0.930 . S
C470 C469 1.385 . S
C470 C471 1.396 . S
C471 H425 0.929 . S
C471 C466 1.361 . S
C471 C470 1.396 . S
C472 O426 1.300 . S
C472 O427 1.209 . S
C472 C445 1.486 . S
C473 O428 1.199 . S
C473 O429 1.297 . S
C473 C457 1.476 . S
H474 O500 0.856 . S
H475 O503 0.854 . S
H476 C511 0.930 . S
H477 C512 0.930 . S
H478 C514 0.930 . S
H479 C515 0.930 . S
H480 C517 0.931 . S
H481 C518 0.930 . S
H482 C520 0.930 . S
H483 C521 0.929 . S
H484 C523 0.930 . S
H485 C524 0.931 . S
H486 C526 0.930 . S
H487 C527 0.929 . S
H488 C529 0.931 . S
H489 C530 0.930 . S
H490 C532 0.930 . S
H491 C533 0.932 . S
H492 C535 0.930 . S
H493 C536 0.929 . S
H494 C538 0.931 . S
H495 C539 0.930 . S
H496 C541 0.929 . S
H497 C542 0.931 . S
H498 C544 0.930 . S
H499 C545 0.929 . S
O500 H474 0.856 . S
O500 C546 1.300 . S
O501 C546 1.209 . S
O502 C547 1.199 . S
O503 H475 0.854 . S
O503 C547 1.297 . S
C504 C505 1.404 . S
C504 C509 1.397 . S
C504 C510 1.492 . S
C505 C504 1.404 . S
C505 C506 1.396 . S
C505 C516 1.492 . S
C506 C505 1.396 . S
C506 C507 1.397 . S
C506 C522 1.509 . S
C507 C506 1.397 . S
C507 C508 1.412 . S
C507 C528 1.485 . S
C508 C507 1.412 . S
C508 C509 1.388 . S
C508 C534 1.490 . S
C509 C504 1.397 . S
C509 C508 1.388 . S
C509 C540 1.519 . S
C510 C504 1.492 . S
C510 C511 1.363 . S
C510 C515 1.390 . S
C511 H476 0.930 . S
C511 C510 1.363 . S
C511 C512 1.372 . S
C512 H477 0.930 . S
C512 C511 1.372 . S
C512 C513 1.383 . S
C513 C512 1.383 . S
C513 C514 1.395 . S
C514 H478 0.930 . S
C514 C513 1.395 . S
C514 C515 1.362 . S
C515 H479 0.930 . S
C515 C510 1.390 . S
C515 C514 1.362 . S
C516 C505 1.492 . S
C516 C517 1.377 . S
C516 C521 1.397 . S
C517 H480 0.931 . S
C517 C516 1.377 . S
C517 C518 1.376 . S
C518 H481 0.930 . S
C518 C517 1.376 . S
C518 C519 1.376 . S
C519 C518 1.376 . S
C519 C520 1.378 . S
C519 C546 1.486 . S
C520 H482 0.930 . S
C520 C519 1.378 . S
C520 C521 1.376 . S
C521 H483 0.929 . S
C521 C516 1.397 . S
C521 C520 1.376 . S
C522 C506 1.509 . S
C522 C523 1.391 . S
C522 C527 1.386 . S
C523 H484 0.930 . S
C523 C522 1.391 . S
C523 C524 1.375 . S
C524 H485 0.931 . S
C524 C523 1.375 . S
C524 C525 1.375 . S
C525 C524 1.375 . S
C525 C526 1.361 . S
C526 H486 0.930 . S
C526 C525 1.361 . S
C526 C527 1.399 . S
C527 H487 0.929 . S
C527 C522 1.386 . S
C527 C526 1.399 . S
C528 C507 1.485 . S
C528 C529 1.394 . S
C528 C533 1.360 . S
C529 H488 0.931 . S
C529 C528 1.394 . S
C529 C530 1.372 . S
C530 H489 0.930 . S
C530 C529 1.372 . S
C530 C531 1.397 . S
C531 C530 1.397 . S
C531 C532 1.390 . S
C531 C547 1.476 . S
C532 H490 0.930 . S
C532 C531 1.390 . S
C532 C533 1.366 . S
C533 H491 0.932 . S
C533 C528 1.360 . S
C533 C532 1.366 . S
C534 C508 1.490 . S
C534 C535 1.380 . S
C534 C539 1.386 . S
C535 H492 0.930 . S
C535 C534 1.380 . S
C535 C536 1.381 . S
C536 H493 0.929 . S
C536 C535 1.381 . S
C536 C537 1.371 . S
C537 C536 1.371 . S
C537 C538 1.380 . S
C538 H494 0.931 . S
C538 C537 1.380 . S
C538 C539 1.387 . S
C539 H495 0.930 . S
C539 C534 1.386 . S
C539 C538 1.387 . S
C540 C509 1.519 . S
C540 C541 1.377 . S
C540 C545 1.361 . S
C541 H496 0.929 . S
C541 C540 1.377 . S
C541 C542 1.386 . S
C542 H497 0.931 . S
C542 C541 1.386 . S
C542 C543 1.363 . S
C543 C542 1.363 . S
C543 C544 1.385 . S
C544 H498 0.930 . S
C544 C543 1.385 . S
C544 C545 1.396 . S
C545 H499 0.929 . S
C545 C540 1.361 . S
C545 C544 1.396 . S
C546 O500 1.300 . S
C546 O501 1.209 . S
C546 C519 1.486 . S
C547 O502 1.199 . S
C547 O503 1.297 . S
C547 C531 1.476 . S
H548 O574 0.856 1_554 S
H549 O577 0.854 . S
H550 C585 0.930 . S
H551 C586 0.930 . S
H552 C588 0.930 . S
H553 C589 0.930 . S
H554 C591 0.931 . S
H555 C592 0.930 . S
H556 C594 0.930 . S
H557 C595 0.929 . S
H558 C597 0.930 . S
H559 C598 0.931 . S
H560 C600 0.930 . S
H561 C601 0.929 . S
H562 C603 0.931 . S
H563 C604 0.930 . S
H564 C606 0.930 . S
H565 C607 0.932 . S
H566 C609 0.930 . S
H567 C610 0.929 . S
H568 C612 0.931 . S
H569 C613 0.930 . S
H570 C615 0.929 . S
H571 C616 0.931 . S
H572 C618 0.930 . S
H573 C619 0.929 . S
O574 H548 0.856 1_556 S
O574 C620 1.300 . S
O575 C620 1.209 . S
O576 C621 1.199 . S
O577 H549 0.854 . S
O577 C621 1.297 . S
C578 C579 1.404 . S
C578 C583 1.397 . S
C578 C584 1.492 . S
C579 C578 1.404 . S
C579 C580 1.396 . S
C579 C590 1.492 . S
C580 C579 1.396 . S
C580 C581 1.397 . S
C580 C596 1.509 . S
C581 C580 1.397 . S
C581 C582 1.412 . S
C581 C602 1.485 . S
C582 C581 1.412 . S
C582 C583 1.388 . S
C582 C608 1.490 . S
C583 C578 1.397 . S
C583 C582 1.388 . S
C583 C614 1.519 . S
C584 C578 1.492 . S
C584 C585 1.363 . S
C584 C589 1.390 . S
C585 H550 0.930 . S
C585 C584 1.363 . S
C585 C586 1.372 . S
C586 H551 0.930 . S
C586 C585 1.372 . S
C586 C587 1.383 . S
C587 C586 1.383 . S
C587 C588 1.395 . S
C588 H552 0.930 . S
C588 C587 1.395 . S
C588 C589 1.362 . S
C589 H553 0.930 . S
C589 C584 1.390 . S
C589 C588 1.362 . S
C590 C579 1.492 . S
C590 C591 1.377 . S
C590 C595 1.397 . S
C591 H554 0.931 . S
C591 C590 1.377 . S
C591 C592 1.376 . S
C592 H555 0.930 . S
C592 C591 1.376 . S
C592 C593 1.376 . S
C593 C592 1.376 . S
C593 C594 1.378 . S
C593 C620 1.486 . S
C594 H556 0.930 . S
C594 C593 1.378 . S
C594 C595 1.376 . S
C595 H557 0.929 . S
C595 C590 1.397 . S
C595 C594 1.376 . S
C596 C580 1.509 . S
C596 C597 1.391 . S
C596 C601 1.386 . S
C597 H558 0.930 . S
C597 C596 1.391 . S
C597 C598 1.375 . S
C598 H559 0.931 . S
C598 C597 1.375 . S
C598 C599 1.375 . S
C599 C598 1.375 . S
C599 C600 1.361 . S
C600 H560 0.930 . S
C600 C599 1.361 . S
C600 C601 1.399 . S
C601 H561 0.929 . S
C601 C596 1.386 . S
C601 C600 1.399 . S
C602 C581 1.485 . S
C602 C603 1.394 . S
C602 C607 1.360 . S
C603 H562 0.931 . S
C603 C602 1.394 . S
C603 C604 1.372 . S
C604 H563 0.930 . S
C604 C603 1.372 . S
C604 C605 1.397 . S
C605 C604 1.397 . S
C605 C606 1.390 . S
C605 C621 1.476 . S
C606 H564 0.930 . S
C606 C605 1.390 . S
C606 C607 1.366 . S
C607 H565 0.932 . S
C607 C602 1.360 . S
C607 C606 1.366 . S
C608 C582 1.490 . S
C608 C609 1.380 . S
C608 C613 1.386 . S
C609 H566 0.930 . S
C609 C608 1.380 . S
C609 C610 1.381 . S
C610 H567 0.929 . S
C610 C609 1.381 . S
C610 C611 1.371 . S
C611 C610 1.371 . S
C611 C612 1.380 . S
C612 H568 0.931 . S
C612 C611 1.380 . S
C612 C613 1.387 . S
C613 H569 0.930 . S
C613 C608 1.386 . S
C613 C612 1.387 . S
C614 C583 1.519 . S
C614 C615 1.377 . S
C614 C619 1.361 . S
C615 H570 0.929 . S
C615 C614 1.377 . S
C615 C616 1.386 . S
C616 H571 0.931 . S
C616 C615 1.386 . S
C616 C617 1.363 . S
C617 C616 1.363 . S
C617 C618 1.385 . S
C618 H572 0.930 . S
C618 C617 1.385 . S
C618 C619 1.396 . S
C619 H573 0.929 . S
C619 C614 1.361 . S
C619 C618 1.396 . S
C620 O574 1.300 . S
C620 O575 1.209 . S
C620 C593 1.486 . S
C621 O576 1.199 . S
C621 O577 1.297 . S
C621 C605 1.476 . S
H622 O648 0.856 . S
H623 O651 0.854 . S
H624 C659 0.930 . S
H625 C660 0.930 . S
H626 C662 0.930 . S
H627 C663 0.930 . S
H628 C665 0.931 . S
H629 C666 0.930 . S
H630 C668 0.930 . S
H631 C669 0.929 . S
H632 C671 0.930 . S
H633 C672 0.931 . S
H634 C674 0.930 . S
H635 C675 0.929 . S
H636 C677 0.931 . S
H637 C678 0.930 . S
H638 C680 0.930 . S
H639 C681 0.932 . S
H640 C683 0.930 . S
H641 C684 0.929 . S
H642 C686 0.931 . S
H643 C687 0.930 . S
H644 C689 0.929 . S
H645 C690 0.931 . S
H646 C692 0.930 . S
H647 C693 0.929 . S
O648 H622 0.856 . S
O648 C694 1.300 1_554 S
O649 C694 1.209 . S
O650 C695 1.199 . S
O651 H623 0.854 . S
O651 C695 1.297 . S
C652 C653 1.404 . S
C652 C657 1.397 . S
C652 C658 1.492 . S
C653 C652 1.404 . S
C653 C654 1.396 . S
C653 C664 1.492 . S
C654 C653 1.396 . S
C654 C655 1.397 . S
C654 C670 1.509 . S
C655 C654 1.397 . S
C655 C656 1.412 . S
C655 C676 1.485 . S
C656 C655 1.412 . S
C656 C657 1.388 . S
C656 C682 1.490 . S
C657 C652 1.397 . S
C657 C656 1.388 . S
C657 C688 1.519 . S
C658 C652 1.492 . S
C658 C659 1.363 . S
C658 C663 1.390 . S
C659 H624 0.930 . S
C659 C658 1.363 . S
C659 C660 1.372 . S
C660 H625 0.930 . S
C660 C659 1.372 . S
C660 C661 1.383 . S
C661 C660 1.383 . S
C661 C662 1.395 . S
C662 H626 0.930 . S
C662 C661 1.395 . S
C662 C663 1.362 . S
C663 H627 0.930 . S
C663 C658 1.390 . S
C663 C662 1.362 . S
C664 C653 1.492 . S
C664 C665 1.377 . S
C664 C669 1.397 . S
C665 H628 0.931 . S
C665 C664 1.377 . S
C665 C666 1.376 . S
C666 H629 0.930 . S
C666 C665 1.376 . S
C666 C667 1.376 . S
C667 C666 1.376 . S
C667 C668 1.378 . S
C667 C694 1.486 . S
C668 H630 0.930 . S
C668 C667 1.378 . S
C668 C669 1.376 . S
C669 H631 0.929 . S
C669 C664 1.397 . S
C669 C668 1.376 . S
C670 C654 1.509 . S
C670 C671 1.391 . S
C670 C675 1.386 . S
C671 H632 0.930 . S
C671 C670 1.391 . S
C671 C672 1.375 . S
C672 H633 0.931 . S
C672 C671 1.375 . S
C672 C673 1.375 . S
C673 C672 1.375 . S
C673 C674 1.361 . S
C674 H634 0.930 . S
C674 C673 1.361 . S
C674 C675 1.399 . S
C675 H635 0.929 . S
C675 C670 1.386 . S
C675 C674 1.399 . S
C676 C655 1.485 . S
C676 C677 1.394 . S
C676 C681 1.360 . S
C677 H636 0.931 . S
C677 C676 1.394 . S
C677 C678 1.372 . S
C678 H637 0.930 . S
C678 C677 1.372 . S
C678 C679 1.397 . S
C679 C678 1.397 . S
C679 C680 1.390 . S
C679 C695 1.476 . S
C680 H638 0.930 . S
C680 C679 1.390 . S
C680 C681 1.366 . S
C681 H639 0.932 . S
C681 C676 1.360 . S
C681 C680 1.366 . S
C682 C656 1.490 . S
C682 C683 1.380 . S
C682 C687 1.386 . S
C683 H640 0.930 . S
C683 C682 1.380 . S
C683 C684 1.381 . S
C684 H641 0.929 . S
C684 C683 1.381 . S
C684 C685 1.371 . S
C685 C684 1.371 . S
C685 C686 1.380 . S
C686 H642 0.931 . S
C686 C685 1.380 . S
C686 C687 1.387 . S
C687 H643 0.930 . S
C687 C682 1.386 . S
C687 C686 1.387 . S
C688 C657 1.519 . S
C688 C689 1.377 . S
C688 C693 1.361 . S
C689 H644 0.929 . S
C689 C688 1.377 . S
C689 C690 1.386 . S
C690 H645 0.931 . S
C690 C689 1.386 . S
C690 C691 1.363 . S
C691 C690 1.363 . S
C691 C692 1.385 . S
C692 H646 0.930 . S
C692 C691 1.385 . S
C692 C693 1.396 . S
C693 H647 0.929 . S
C693 C688 1.361 . S
C693 C692 1.396 . S
C694 O648 1.300 1_556 S
C694 O649 1.209 . S
C694 C667 1.486 . S
C695 O650 1.199 . S
C695 O651 1.297 . S
C695 C679 1.476 . S
H696 O722 0.856 . S
H697 O725 0.854 . S
H698 C733 0.930 . S
H699 C734 0.930 . S
H700 C736 0.930 . S
H701 C737 0.930 . S
H702 C739 0.931 . S
H703 C740 0.930 . S
H704 C742 0.930 . S
H705 C743 0.929 . S
H706 C745 0.930 . S
H707 C746 0.931 . S
H708 C748 0.930 . S
H709 C749 0.929 . S
H710 C751 0.931 . S
H711 C752 0.930 . S
H712 C754 0.930 . S
H713 C755 0.932 . S
H714 C757 0.930 . S
H715 C758 0.929 . S
H716 C760 0.931 . S
H717 C761 0.930 . S
H718 C763 0.929 . S
H719 C764 0.931 . S
H720 C766 0.930 . S
H721 C767 0.929 . S
O722 H696 0.856 . S
O722 C768 1.300 . S
O723 C768 1.209 . S
O724 C769 1.199 . S
O725 H697 0.854 . S
O725 C769 1.297 . S
C726 C727 1.404 . S
C726 C731 1.397 . S
C726 C732 1.492 . S
C727 C726 1.404 . S
C727 C728 1.396 . S
C727 C738 1.492 . S
C728 C727 1.396 . S
C728 C729 1.397 . S
C728 C744 1.509 . S
C729 C728 1.397 . S
C729 C730 1.412 . S
C729 C750 1.485 . S
C730 C729 1.412 . S
C730 C731 1.388 . S
C730 C756 1.490 . S
C731 C726 1.397 . S
C731 C730 1.388 . S
C731 C762 1.519 . S
C732 C726 1.492 . S
C732 C733 1.363 . S
C732 C737 1.390 . S
C733 H698 0.930 . S
C733 C732 1.363 . S
C733 C734 1.372 . S
C734 H699 0.930 . S
C734 C733 1.372 . S
C734 C735 1.383 . S
C735 C734 1.383 . S
C735 C736 1.395 . S
C736 H700 0.930 . S
C736 C735 1.395 . S
C736 C737 1.362 . S
C737 H701 0.930 . S
C737 C732 1.390 . S
C737 C736 1.362 . S
C738 C727 1.492 . S
C738 C739 1.377 . S
C738 C743 1.397 . S
C739 H702 0.931 . S
C739 C738 1.377 . S
C739 C740 1.376 . S
C740 H703 0.930 . S
C740 C739 1.376 . S
C740 C741 1.376 . S
C741 C740 1.376 . S
C741 C742 1.378 . S
C741 C768 1.486 . S
C742 H704 0.930 . S
C742 C741 1.378 . S
C742 C743 1.376 . S
C743 H705 0.929 . S
C743 C738 1.397 . S
C743 C742 1.376 . S
C744 C728 1.509 . S
C744 C745 1.391 . S
C744 C749 1.386 . S
C745 H706 0.930 . S
C745 C744 1.391 . S
C745 C746 1.375 . S
C746 H707 0.931 . S
C746 C745 1.375 . S
C746 C747 1.375 . S
C747 C746 1.375 . S
C747 C748 1.361 . S
C748 H708 0.930 . S
C748 C747 1.361 . S
C748 C749 1.399 . S
C749 H709 0.929 . S
C749 C744 1.386 . S
C749 C748 1.399 . S
C750 C729 1.485 . S
C750 C751 1.394 . S
C750 C755 1.360 . S
C751 H710 0.931 . S
C751 C750 1.394 . S
C751 C752 1.372 . S
C752 H711 0.930 . S
C752 C751 1.372 . S
C752 C753 1.397 . S
C753 C752 1.397 . S
C753 C754 1.390 . S
C753 C769 1.476 . S
C754 H712 0.930 . S
C754 C753 1.390 . S
C754 C755 1.366 . S
C755 H713 0.932 . S
C755 C750 1.360 . S
C755 C754 1.366 . S
C756 C730 1.490 . S
C756 C757 1.380 . S
C756 C761 1.386 . S
C757 H714 0.930 . S
C757 C756 1.380 . S
C757 C758 1.381 . S
C758 H715 0.929 . S
C758 C757 1.381 . S
C758 C759 1.371 . S
C759 C758 1.371 . S
C759 C760 1.380 . S
C760 H716 0.931 . S
C760 C759 1.380 . S
C760 C761 1.387 . S
C761 H717 0.930 . S
C761 C756 1.386 . S
C761 C760 1.387 . S
C762 C731 1.519 . S
C762 C763 1.377 . S
C762 C767 1.361 . S
C763 H718 0.929 . S
C763 C762 1.377 . S
C763 C764 1.386 . S
C764 H719 0.931 . S
C764 C763 1.386 . S
C764 C765 1.363 . S
C765 C764 1.363 . S
C765 C766 1.385 . S
C766 H720 0.930 . S
C766 C765 1.385 . S
C766 C767 1.396 . S
C767 H721 0.929 . S
C767 C762 1.361 . S
C767 C766 1.396 . S
C768 O722 1.300 . S
C768 O723 1.209 . S
C768 C741 1.486 . S
C769 O724 1.199 . S
C769 O725 1.297 . S
C769 C753 1.476 . S
H770 O796 0.856 . S
H771 O799 0.854 . S
H772 C807 0.930 . S
H773 C808 0.930 . S
H774 C810 0.930 . S
H775 C811 0.930 . S
H776 C813 0.931 . S
H777 C814 0.930 . S
H778 C816 0.930 . S
H779 C817 0.929 . S
H780 C819 0.930 . S
H781 C820 0.931 . S
H782 C822 0.930 . S
H783 C823 0.929 . S
H784 C825 0.931 . S
H785 C826 0.930 . S
H786 C828 0.930 . S
H787 C829 0.932 . S
H788 C831 0.930 . S
H789 C832 0.929 . S
H790 C834 0.931 . S
H791 C835 0.930 . S
H792 C837 0.929 . S
H793 C838 0.931 . S
H794 C840 0.930 . S
H795 C841 0.929 . S
O796 H770 0.856 . S
O796 C842 1.300 . S
O797 C842 1.209 . S
O798 C843 1.199 . S
O799 H771 0.854 . S
O799 C843 1.297 . S
C800 C801 1.404 . S
C800 C805 1.397 . S
C800 C806 1.492 . S
C801 C800 1.404 . S
C801 C802 1.396 . S
C801 C812 1.492 . S
C802 C801 1.396 . S
C802 C803 1.397 . S
C802 C818 1.509 . S
C803 C802 1.397 . S
C803 C804 1.412 . S
C803 C824 1.485 . S
C804 C803 1.412 . S
C804 C805 1.388 . S
C804 C830 1.490 . S
C805 C800 1.397 . S
C805 C804 1.388 . S
C805 C836 1.519 . S
C806 C800 1.492 . S
C806 C807 1.363 . S
C806 C811 1.390 . S
C807 H772 0.930 . S
C807 C806 1.363 . S
C807 C808 1.372 . S
C808 H773 0.930 . S
C808 C807 1.372 . S
C808 C809 1.383 . S
C809 C808 1.383 . S
C809 C810 1.395 . S
C810 H774 0.930 . S
C810 C809 1.395 . S
C810 C811 1.362 . S
C811 H775 0.930 . S
C811 C806 1.390 . S
C811 C810 1.362 . S
C812 C801 1.492 . S
C812 C813 1.377 . S
C812 C817 1.397 . S
C813 H776 0.931 . S
C813 C812 1.377 . S
C813 C814 1.376 . S
C814 H777 0.930 . S
C814 C813 1.376 . S
C814 C815 1.376 . S
C815 C814 1.376 . S
C815 C816 1.378 . S
C815 C842 1.486 . S
C816 H778 0.930 . S
C816 C815 1.378 . S
C816 C817 1.376 . S
C817 H779 0.929 . S
C817 C812 1.397 . S
C817 C816 1.376 . S
C818 C802 1.509 . S
C818 C819 1.391 . S
C818 C823 1.386 . S
C819 H780 0.930 . S
C819 C818 1.391 . S
C819 C820 1.375 . S
C820 H781 0.931 . S
C820 C819 1.375 . S
C820 C821 1.375 . S
C821 C820 1.375 . S
C821 C822 1.361 . S
C822 H782 0.930 . S
C822 C821 1.361 . S
C822 C823 1.399 . S
C823 H783 0.929 . S
C823 C818 1.386 . S
C823 C822 1.399 . S
C824 C803 1.485 . S
C824 C825 1.394 . S
C824 C829 1.360 . S
C825 H784 0.931 . S
C825 C824 1.394 . S
C825 C826 1.372 . S
C826 H785 0.930 . S
C826 C825 1.372 . S
C826 C827 1.397 . S
C827 C826 1.397 . S
C827 C828 1.390 . S
C827 C843 1.476 . S
C828 H786 0.930 . S
C828 C827 1.390 . S
C828 C829 1.366 . S
C829 H787 0.932 . S
C829 C824 1.360 . S
C829 C828 1.366 . S
C830 C804 1.490 . S
C830 C831 1.380 . S
C830 C835 1.386 . S
C831 H788 0.930 . S
C831 C830 1.380 . S
C831 C832 1.381 . S
C832 H789 0.929 . S
C832 C831 1.381 . S
C832 C833 1.371 . S
C833 C832 1.371 . S
C833 C834 1.380 . S
C834 H790 0.931 . S
C834 C833 1.380 . S
C834 C835 1.387 . S
C835 H791 0.930 . S
C835 C830 1.386 . S
C835 C834 1.387 . S
C836 C805 1.519 . S
C836 C837 1.377 . S
C836 C841 1.361 . S
C837 H792 0.929 . S
C837 C836 1.377 . S
C837 C838 1.386 . S
C838 H793 0.931 . S
C838 C837 1.386 . S
C838 C839 1.363 . S
C839 C838 1.363 . S
C839 C840 1.385 . S
C840 H794 0.930 . S
C840 C839 1.385 . S
C840 C841 1.396 . S
C841 H795 0.929 . S
C841 C836 1.361 . S
C841 C840 1.396 . S
C842 O796 1.300 . S
C842 O797 1.209 . S
C842 C815 1.486 . S
C843 O798 1.199 . S
C843 O799 1.297 . S
C843 C827 1.476 . S
H844 O870 0.856 . S
H845 O873 0.854 . S
H846 C881 0.930 . S
H847 C882 0.930 . S
H848 C884 0.930 . S
H849 C885 0.930 . S
H850 C887 0.931 . S
H851 C888 0.930 . S
H852 C890 0.930 . S
H853 C891 0.929 . S
H854 C893 0.930 . S
H855 C894 0.931 . S
H856 C896 0.930 . S
H857 C897 0.929 . S
H858 C899 0.931 . S
H859 C900 0.930 . S
H860 C902 0.930 . S
H861 C903 0.932 . S
H862 C905 0.930 . S
H863 C906 0.929 . S
H864 C908 0.931 . S
H865 C909 0.930 . S
H866 C911 0.929 . S
H867 C912 0.931 . S
H868 C914 0.930 . S
H869 C915 0.929 . S
O870 H844 0.856 . S
O870 C916 1.300 . S
O871 C916 1.209 . S
O872 C917 1.199 . S
O873 H845 0.854 . S
O873 C917 1.297 . S
C874 C875 1.404 . S
C874 C879 1.397 . S
C874 C880 1.492 . S
C875 C874 1.404 . S
C875 C876 1.396 . S
C875 C886 1.492 . S
C876 C875 1.396 . S
C876 C877 1.397 . S
C876 C892 1.509 . S
C877 C876 1.397 . S
C877 C878 1.412 . S
C877 C898 1.485 . S
C878 C877 1.412 . S
C878 C879 1.388 . S
C878 C904 1.490 . S
C879 C874 1.397 . S
C879 C878 1.388 . S
C879 C910 1.519 . S
C880 C874 1.492 . S
C880 C881 1.363 . S
C880 C885 1.390 . S
C881 H846 0.930 . S
C881 C880 1.363 . S
C881 C882 1.372 . S
C882 H847 0.930 . S
C882 C881 1.372 . S
C882 C883 1.383 . S
C883 C882 1.383 . S
C883 C884 1.395 . S
C884 H848 0.930 . S
C884 C883 1.395 . S
C884 C885 1.362 . S
C885 H849 0.930 . S
C885 C880 1.390 . S
C885 C884 1.362 . S
C886 C875 1.492 . S
C886 C887 1.377 . S
C886 C891 1.397 . S
C887 H850 0.931 . S
C887 C886 1.377 . S
C887 C888 1.376 . S
C888 H851 0.930 . S
C888 C887 1.376 . S
C888 C889 1.376 . S
C889 C888 1.376 . S
C889 C890 1.378 . S
C889 C916 1.486 . S
C890 H852 0.930 . S
C890 C889 1.378 . S
C890 C891 1.376 . S
C891 H853 0.929 . S
C891 C886 1.397 . S
C891 C890 1.376 . S
C892 C876 1.509 . S
C892 C893 1.391 . S
C892 C897 1.386 . S
C893 H854 0.930 . S
C893 C892 1.391 . S
C893 C894 1.375 . S
C894 H855 0.931 . S
C894 C893 1.375 . S
C894 C895 1.375 . S
C895 C894 1.375 . S
C895 C896 1.361 . S
C896 H856 0.930 . S
C896 C895 1.361 . S
C896 C897 1.399 . S
C897 H857 0.929 . S
C897 C892 1.386 . S
C897 C896 1.399 . S
C898 C877 1.485 . S
C898 C899 1.394 . S
C898 C903 1.360 . S
C899 H858 0.931 . S
C899 C898 1.394 . S
C899 C900 1.372 . S
C900 H859 0.930 . S
C900 C899 1.372 . S
C900 C901 1.397 . S
C901 C900 1.397 . S
C901 C902 1.390 . S
C901 C917 1.476 . S
C902 H860 0.930 . S
C902 C901 1.390 . S
C902 C903 1.366 . S
C903 H861 0.932 . S
C903 C898 1.360 . S
C903 C902 1.366 . S
C904 C878 1.490 . S
C904 C905 1.380 . S
C904 C909 1.386 . S
C905 H862 0.930 . S
C905 C904 1.380 . S
C905 C906 1.381 . S
C906 H863 0.929 . S
C906 C905 1.381 . S
C906 C907 1.371 . S
C907 C906 1.371 . S
C907 C908 1.380 . S
C908 H864 0.931 . S
C908 C907 1.380 . S
C908 C909 1.387 . S
C909 H865 0.930 . S
C909 C904 1.386 . S
C909 C908 1.387 . S
C910 C879 1.519 . S
C910 C911 1.377 . S
C910 C915 1.361 . S
C911 H866 0.929 . S
C911 C910 1.377 . S
C911 C912 1.386 . S
C912 H867 0.931 . S
C912 C911 1.386 . S
C912 C913 1.363 . S
C913 C912 1.363 . S
C913 C914 1.385 . S
C914 H868 0.930 . S
C914 C913 1.385 . S
C914 C915 1.396 . S
C915 H869 0.929 . S
C915 C910 1.361 . S
C915 C914 1.396 . S
C916 O870 1.300 . S
C916 O871 1.209 . S
C916 C889 1.486 . S
C917 O872 1.199 . S
C917 O873 1.297 . S
C917 C901 1.476 . S
H918 O944 0.856 . S
H919 O947 0.854 . S
H920 C955 0.930 . S
H921 C956 0.930 . S
H922 C958 0.930 . S
H923 C959 0.930 . S
H924 C961 0.931 . S
H925 C962 0.943 . S
H926 C964 0.930 . S
H927 C965 0.929 . S
H928 C967 0.930 . S
H929 C968 0.941 . S
H930 C970 0.930 . S
H931 C971 0.929 . S
H932 C973 0.931 . S
H933 C974 0.930 . S
H934 C976 0.930 . S
H935 C977 0.932 . S
H936 C979 0.930 . S
H937 C980 0.929 . S
H938 C982 0.931 . S
H939 C983 0.930 . S
H940 C985 0.929 . S
H941 C986 0.931 . S
H942 C988 0.930 . S
H943 C989 0.929 . S
O944 H918 0.856 . S
O944 C990 1.300 . S
O945 C990 1.209 . S
O946 C991 1.199 1_655 S
O947 H919 0.854 . S
O947 C991 1.297 . S
C948 C949 1.404 . S
C948 C953 1.393 . S
C948 C954 1.492 . S
C949 C948 1.404 . S
C949 C950 1.396 . S
C949 C960 1.492 . S
C950 C949 1.396 . S
C950 C951 1.397 . S
C950 C966 1.509 . S
C951 C950 1.397 . S
C951 C952 1.428 . S
C951 C972 1.485 . S
C952 C951 1.428 . S
C952 C953 1.398 . S
C952 C978 1.491 1_455 S
C953 C948 1.393 . S
C953 C952 1.398 . S
C953 C984 1.499 1_455 S
C954 C948 1.492 . S
C954 C955 1.363 1_455 S
C954 C959 1.390 . S
C955 H920 0.930 . S
C955 C954 1.363 1_655 S
C955 C956 1.372 . S
C956 H921 0.930 . S
C956 C955 1.372 . S
C956 C957 1.383 . S
C957 C956 1.383 . S
C957 C958 1.395 1_655 S
C958 H922 0.930 . S
C958 C957 1.395 1_455 S
C958 C959 1.362 . S
C959 H923 0.930 . S
C959 C954 1.390 . S
C959 C958 1.362 . S
C960 C949 1.492 . S
C960 C961 1.377 1_455 S
C960 C965 1.397 . S
C961 H924 0.931 . S
C961 C960 1.377 1_655 S
C961 C962 1.373 . S
C962 H925 0.943 . S
C962 C961 1.373 . S
C962 C963 1.365 1_655 S
C963 C962 1.365 1_455 S
C963 C964 1.378 . S
C963 C990 1.486 . S
C964 H926 0.930 . S
C964 C963 1.378 . S
C964 C965 1.376 . S
C965 H927 0.929 . S
C965 C960 1.397 . S
C965 C964 1.376 . S
C966 C950 1.509 . S
C966 C967 1.391 1_455 S
C966 C971 1.386 . S
C967 H928 0.930 . S
C967 C966 1.391 1_655 S
C967 C968 1.387 . S
C968 H929 0.941 . S
C968 C967 1.387 . S
C968 C969 1.354 1_655 S
C969 C968 1.354 1_455 S
C969 C970 1.361 . S
C970 H930 0.930 . S
C970 C969 1.361 . S
C970 C971 1.399 . S
C971 H931 0.929 . S
C971 C966 1.386 . S
C971 C970 1.399 . S
C972 C951 1.485 . S
C972 C973 1.394 1_455 S
C972 C977 1.360 . S
C973 H932 0.931 . S
C973 C972 1.394 1_655 S
C973 C974 1.372 . S
C974 H933 0.930 . S
C974 C973 1.372 . S
C974 C975 1.397 1_655 S
C975 C974 1.397 1_455 S
C975 C976 1.390 . S
C975 C991 1.476 . S
C976 H934 0.930 . S
C976 C975 1.390 . S
C976 C977 1.366 . S
C977 H935 0.932 . S
C977 C972 1.360 . S
C977 C976 1.366 . S
C978 C952 1.491 1_655 S
C978 C979 1.380 . S
C978 C983 1.386 1_655 S
C979 H936 0.930 . S
C979 C978 1.380 . S
C979 C980 1.381 . S
C980 H937 0.929 . S
C980 C979 1.381 . S
C980 C981 1.371 . S
C981 C980 1.371 . S
C981 C982 1.380 1_655 S
C982 H938 0.931 . S
C982 C981 1.380 1_455 S
C982 C983 1.387 . S
C983 H939 0.930 . S
C983 C978 1.386 1_455 S
C983 C982 1.387 . S
C984 C953 1.499 1_655 S
C984 C985 1.384 . S
C984 C989 1.356 1_655 S
C985 H940 0.929 . S
C985 C984 1.384 . S
C985 C986 1.386 . S
C986 H941 0.931 . S
C986 C985 1.386 . S
C986 C987 1.349 1_655 S
C987 C986 1.349 1_455 S
C987 C988 1.407 . S
C988 H942 0.930 . S
C988 C987 1.407 . S
C988 C989 1.396 . S
C989 H943 0.929 . S
C989 C984 1.356 1_455 S
C989 C988 1.396 . S
C990 O944 1.300 . S
C990 O945 1.209 . S
C990 C963 1.486 . S
C991 O946 1.199 1_455 S
C991 O947 1.297 . S
C991 C975 1.476 . S
H992 O1018 0.856 . S
H993 O1021 0.854 . S
H994 C1029 0.930 . S
H995 C1030 0.930 . S
H996 C1032 0.930 . S
H997 C1033 0.930 . S
H998 C1035 0.931 . S
H999 C1036 0.930 . S
H1000 C1038 0.930 . S
H1001 C1039 0.929 . S
H1002 C1041 0.930 . S
H1003 C1042 0.931 . S
H1004 C1044 0.930 . S
H1005 C1045 0.929 . S
H1006 C1047 0.931 . S
H1007 C1048 0.930 . S
H1008 C1050 0.930 . S
H1009 C1051 0.932 . S
H1010 C1053 0.930 . S
H1011 C1054 0.929 . S
H1012 C1056 0.931 . S
H1013 C1057 0.930 . S
H1014 C1059 0.929 . S
H1015 C1060 0.931 . S
H1016 C1062 0.930 . S
H1017 C1063 0.929 . S
O1018 H992 0.856 . S
O1018 C1064 1.300 . S
O1019 C1064 1.209 . S
O1020 C1065 1.199 . S
O1021 H993 0.854 . S
O1021 C1065 1.297 . S
C1022 C1023 1.404 . S
C1022 C1027 1.397 . S
C1022 C1028 1.492 . S
C1023 C1022 1.404 . S
C1023 C1024 1.396 . S
C1023 C1034 1.492 . S
C1024 C1023 1.396 . S
C1024 C1025 1.397 . S
C1024 C1040 1.509 . S
C1025 C1024 1.397 . S
C1025 C1026 1.412 . S
C1025 C1046 1.485 . S
C1026 C1025 1.412 . S
C1026 C1027 1.388 . S
C1026 C1052 1.490 . S
C1027 C1022 1.397 . S
C1027 C1026 1.388 . S
C1027 C1058 1.519 . S
C1028 C1022 1.492 . S
C1028 C1029 1.363 . S
C1028 C1033 1.390 . S
C1029 H994 0.930 . S
C1029 C1028 1.363 . S
C1029 C1030 1.372 . S
C1030 H995 0.930 . S
C1030 C1029 1.372 . S
C1030 C1031 1.383 . S
C1031 C1030 1.383 . S
C1031 C1032 1.395 . S
C1032 H996 0.930 . S
C1032 C1031 1.395 . S
C1032 C1033 1.362 . S
C1033 H997 0.930 . S
C1033 C1028 1.390 . S
C1033 C1032 1.362 . S
C1034 C1023 1.492 . S
C1034 C1035 1.377 . S
C1034 C1039 1.397 . S
C1035 H998 0.931 . S
C1035 C1034 1.377 . S
C1035 C1036 1.376 . S
C1036 H999 0.930 . S
C1036 C1035 1.376 . S
C1036 C1037 1.376 . S
C1037 C1036 1.376 . S
C1037 C1038 1.378 . S
C1037 C1064 1.486 . S
C1038 H1000 0.930 . S
C1038 C1037 1.378 . S
C1038 C1039 1.376 . S
C1039 H1001 0.929 . S
C1039 C1034 1.397 . S
C1039 C1038 1.376 . S
C1040 C1024 1.509 . S
C1040 C1041 1.391 . S
C1040 C1045 1.386 . S
C1041 H1002 0.930 . S
C1041 C1040 1.391 . S
C1041 C1042 1.375 . S
C1042 H1003 0.931 . S
C1042 C1041 1.375 . S
C1042 C1043 1.375 . S
C1043 C1042 1.375 . S
C1043 C1044 1.361 . S
C1044 H1004 0.930 . S
C1044 C1043 1.361 . S
C1044 C1045 1.399 . S
C1045 H1005 0.929 . S
C1045 C1040 1.386 . S
C1045 C1044 1.399 . S
C1046 C1025 1.485 . S
C1046 C1047 1.394 . S
C1046 C1051 1.360 . S
C1047 H1006 0.931 . S
C1047 C1046 1.394 . S
C1047 C1048 1.372 . S
C1048 H1007 0.930 . S
C1048 C1047 1.372 . S
C1048 C1049 1.397 . S
C1049 C1048 1.397 . S
C1049 C1050 1.390 . S
C1049 C1065 1.476 . S
C1050 H1008 0.930 . S
C1050 C1049 1.390 . S
C1050 C1051 1.366 . S
C1051 H1009 0.932 . S
C1051 C1046 1.360 . S
C1051 C1050 1.366 . S
C1052 C1026 1.490 . S
C1052 C1053 1.380 . S
C1052 C1057 1.386 . S
C1053 H1010 0.930 . S
C1053 C1052 1.380 . S
C1053 C1054 1.381 . S
C1054 H1011 0.929 . S
C1054 C1053 1.381 . S
C1054 C1055 1.371 . S
C1055 C1054 1.371 . S
C1055 C1056 1.380 . S
C1056 H1012 0.931 . S
C1056 C1055 1.380 . S
C1056 C1057 1.387 . S
C1057 H1013 0.930 . S
C1057 C1052 1.386 . S
C1057 C1056 1.387 . S
C1058 C1027 1.519 . S
C1058 C1059 1.377 . S
C1058 C1063 1.361 . S
C1059 H1014 0.929 . S
C1059 C1058 1.377 . S
C1059 C1060 1.386 . S
C1060 H1015 0.931 . S
C1060 C1059 1.386 . S
C1060 C1061 1.363 . S
C1061 C1060 1.363 . S
C1061 C1062 1.385 . S
C1062 H1016 0.930 . S
C1062 C1061 1.385 . S
C1062 C1063 1.396 . S
C1063 H1017 0.929 . S
C1063 C1058 1.361 . S
C1063 C1062 1.396 . S
C1064 O1018 1.300 . S
C1064 O1019 1.209 . S
C1064 C1037 1.486 . S
C1065 O1020 1.199 . S
C1065 O1021 1.297 . S
C1065 C1049 1.476 . S
H1066 O1092 0.856 . S
H1067 O1095 0.854 . S
H1068 C1103 0.930 . S
H1069 C1104 0.930 . S
H1070 C1106 0.930 . S
H1071 C1107 0.930 . S
H1072 C1109 0.931 . S
H1073 C1110 0.938 . S
H1074 C1112 0.930 . S
H1075 C1113 0.929 . S
H1076 C1115 0.930 . S
H1077 C1116 0.958 . S
H1078 C1118 0.930 . S
H1079 C1119 0.929 . S
H1080 C1121 0.931 . S
H1081 C1122 0.930 . S
H1082 C1124 0.930 . S
H1083 C1125 0.932 . S
H1084 C1127 0.930 . S
H1085 C1128 0.929 . S
H1086 C1130 0.931 . S
H1087 C1131 0.930 . S
H1088 C1133 0.929 . S
H1089 C1134 0.931 . S
H1090 C1136 0.930 . S
H1091 C1137 0.929 . S
O1092 H1066 0.856 . S
O1092 C1138 1.300 . S
O1093 C1138 1.209 . S
O1094 C1139 1.199 1_545 S
O1095 H1067 0.854 . S
O1095 C1139 1.297 . S
C1096 C1097 1.404 . S
C1096 C1101 1.414 . S
C1096 C1102 1.492 . S
C1097 C1096 1.404 . S
C1097 C1098 1.396 . S
C1097 C1108 1.492 . S
C1098 C1097 1.396 . S
C1098 C1099 1.397 . S
C1098 C1114 1.509 . S
C1099 C1098 1.397 . S
C1099 C1100 1.408 . S
C1099 C1120 1.485 . S
C1100 C1099 1.408 . S
C1100 C1101 1.376 . S
C1100 C1126 1.481 1_565 S
C1101 C1096 1.414 . S
C1101 C1100 1.376 . S
C1101 C1132 1.536 1_565 S
C1102 C1096 1.492 . S
C1102 C1103 1.363 1_565 S
C1102 C1107 1.390 . S
C1103 H1068 0.930 . S
C1103 C1102 1.363 1_545 S
C1103 C1104 1.372 . S
C1104 H1069 0.930 . S
C1104 C1103 1.372 . S
C1104 C1105 1.383 . S
C1105 C1104 1.383 . S
C1105 C1106 1.395 1_545 S
C1106 H1070 0.930 . S
C1106 C1105 1.395 1_565 S
C1106 C1107 1.362 . S
C1107 H1071 0.930 . S
C1107 C1102 1.390 . S
C1107 C1106 1.362 . S
C1108 C1097 1.492 . S
C1108 C1109 1.377 1_565 S
C1108 C1113 1.397 . S
C1109 H1072 0.931 . S
C1109 C1108 1.377 1_545 S
C1109 C1110 1.380 . S
C1110 H1073 0.938 . S
C1110 C1109 1.380 . S
C1110 C1111 1.363 1_545 S
C1111 C1110 1.363 1_565 S
C1111 C1112 1.378 . S
C1111 C1138 1.486 . S
C1112 H1074 0.930 . S
C1112 C1111 1.378 . S
C1112 C1113 1.376 . S
C1113 H1075 0.929 . S
C1113 C1108 1.397 . S
C1113 C1112 1.376 . S
C1114 C1098 1.509 . S
C1114 C1115 1.391 1_565 S
C1114 C1119 1.386 . S
C1115 H1076 0.930 . S
C1115 C1114 1.391 1_545 S
C1115 C1116 1.371 . S
C1116 H1077 0.958 . S
C1116 C1115 1.371 . S
C1116 C1117 1.353 1_545 S
C1117 C1116 1.353 1_565 S
C1117 C1118 1.361 . S
C1118 H1078 0.930 . S
C1118 C1117 1.361 . S
C1118 C1119 1.399 . S
C1119 H1079 0.929 . S
C1119 C1114 1.386 . S
C1119 C1118 1.399 . S
C1120 C1099 1.485 . S
C1120 C1121 1.394 1_565 S
C1120 C1125 1.360 . S
C1121 H1080 0.931 . S
C1121 C1120 1.394 1_545 S
C1121 C1122 1.372 . S
C1122 H1081 0.930 . S
C1122 C1121 1.372 . S
C1122 C1123 1.397 1_545 S
C1123 C1122 1.397 1_565 S
C1123 C1124 1.390 . S
C1123 C1139 1.476 . S
C1124 H1082 0.930 . S
C1124 C1123 1.390 . S
C1124 C1125 1.366 . S
C1125 H1083 0.932 . S
C1125 C1120 1.360 . S
C1125 C1124 1.366 . S
C1126 C1100 1.481 1_545 S
C1126 C1127 1.380 . S
C1126 C1131 1.386 1_545 S
C1127 H1084 0.930 . S
C1127 C1126 1.380 . S
C1127 C1128 1.381 . S
C1128 H1085 0.929 . S
C1128 C1127 1.381 . S
C1128 C1129 1.371 . S
C1129 C1128 1.371 . S
C1129 C1130 1.380 1_545 S
C1130 H1086 0.931 . S
C1130 C1129 1.380 1_565 S
C1130 C1131 1.387 . S
C1131 H1087 0.930 . S
C1131 C1126 1.386 1_565 S
C1131 C1130 1.387 . S
C1132 C1101 1.536 1_545 S
C1132 C1133 1.379 . S
C1132 C1137 1.356 1_545 S
C1133 H1088 0.929 . S
C1133 C1132 1.379 . S
C1133 C1134 1.386 . S
C1134 H1089 0.931 . S
C1134 C1133 1.386 . S
C1134 C1135 1.346 1_545 S
C1135 C1134 1.346 1_565 S
C1135 C1136 1.394 . S
C1136 H1090 0.930 . S
C1136 C1135 1.394 . S
C1136 C1137 1.396 . S
C1137 H1091 0.929 . S
C1137 C1132 1.356 1_565 S
C1137 C1136 1.396 . S
C1138 O1092 1.300 . S
C1138 O1093 1.209 . S
C1138 C1111 1.486 . S
C1139 O1094 1.199 1_565 S
C1139 O1095 1.297 . S
C1139 C1123 1.476 . S
H1140 O1166 0.856 . S
H1141 O1169 0.854 . S
H1142 C1177 0.930 . S
H1143 C1178 0.930 . S
H1144 C1180 0.930 . S
H1145 C1181 0.930 . S
H1146 C1183 0.931 . S
H1147 C1184 0.930 . S
H1148 C1186 0.930 . S
H1149 C1187 0.929 . S
H1150 C1189 0.930 . S
H1151 C1190 0.931 . S
H1152 C1192 0.930 . S
H1153 C1193 0.929 . S
H1154 C1195 0.931 . S
H1155 C1196 0.930 . S
H1156 C1198 0.930 . S
H1157 C1199 0.932 . S
H1158 C1201 0.930 . S
H1159 C1202 0.929 . S
H1160 C1204 0.931 . S
H1161 C1205 0.930 . S
H1162 C1207 0.929 . S
H1163 C1208 0.931 . S
H1164 C1210 0.930 . S
H1165 C1211 0.929 . S
O1166 H1140 0.856 . S
O1166 C1212 1.300 . S
O1167 C1212 1.209 1_565 S
O1168 C1213 1.199 1_545 S
O1169 H1141 0.854 . S
O1169 C1213 1.297 . S
C1170 C1171 1.383 . S
C1170 C1175 1.381 1_545 S
C1170 C1176 1.537 . S
C1171 C1170 1.383 . S
C1171 C1172 1.418 . S
C1171 C1182 1.492 . S
C1172 C1171 1.418 . S
C1172 C1173 1.386 1_545 S
C1172 C1188 1.501 . S
C1173 C1172 1.386 1_565 S
C1173 C1174 1.414 . S
C1173 C1194 1.447 . S
C1174 C1173 1.414 . S
C1174 C1175 1.377 . S
C1174 C1200 1.494 . S
C1175 C1170 1.381 1_565 S
C1175 C1174 1.377 . S
C1175 C1206 1.520 . S
C1176 C1170 1.537 . S
C1176 C1177 1.363 . S
C1176 C1181 1.390 1_545 S
C1177 H1142 0.930 . S
C1177 C1176 1.363 . S
C1177 C1178 1.372 . S
C1178 H1143 0.930 . S
C1178 C1177 1.372 . S
C1178 C1179 1.383 . S
C1179 C1178 1.383 . S
C1179 C1180 1.395 1_545 S
C1180 H1144 0.930 . S
C1180 C1179 1.395 1_565 S
C1180 C1181 1.362 . S
C1181 H1145 0.930 . S
C1181 C1176 1.390 1_565 S
C1181 C1180 1.362 . S
C1182 C1171 1.492 . S
C1182 C1183 1.377 . S
C1182 C1187 1.397 1_545 S
C1183 H1146 0.931 . S
C1183 C1182 1.377 . S
C1183 C1184 1.376 . S
C1184 H1147 0.930 . S
C1184 C1183 1.376 . S
C1184 C1185 1.376 . S
C1185 C1184 1.376 . S
C1185 C1186 1.378 1_545 S
C1185 C1212 1.486 . S
C1186 H1148 0.930 . S
C1186 C1185 1.378 1_565 S
C1186 C1187 1.376 . S
C1187 H1149 0.929 . S
C1187 C1182 1.397 1_565 S
C1187 C1186 1.376 . S
C1188 C1172 1.501 . S
C1188 C1189 1.398 . S
C1188 C1193 1.374 1_545 S
C1189 H1150 0.930 . S
C1189 C1188 1.398 . S
C1189 C1190 1.375 . S
C1190 H1151 0.931 . S
C1190 C1189 1.375 . S
C1190 C1191 1.363 1_545 S
C1191 C1190 1.363 1_565 S
C1191 C1192 1.369 . S
C1192 H1152 0.930 . S
C1192 C1191 1.369 . S
C1192 C1193 1.399 . S
C1193 H1153 0.929 . S
C1193 C1188 1.374 1_565 S
C1193 C1192 1.399 . S
C1194 C1173 1.447 . S
C1194 C1195 1.363 1_565 S
C1194 C1199 1.441 . S
C1195 H1154 0.931 . S
C1195 C1194 1.363 1_545 S
C1195 C1196 1.372 . S
C1196 H1155 0.930 . S
C1196 C1195 1.372 . S
C1196 C1197 1.397 1_545 S
C1197 C1196 1.397 1_565 S
C1197 C1198 1.390 . S
C1197 C1213 1.476 . S
C1198 H1156 0.930 . S
C1198 C1197 1.390 . S
C1198 C1199 1.366 . S
C1199 H1157 0.932 . S
C1199 C1194 1.441 . S
C1199 C1198 1.366 . S
C1200 C1174 1.494 . S
C1200 C1201 1.381 1_565 S
C1200 C1205 1.385 . S
C1201 H1158 0.930 . S
C1201 C1200 1.381 1_545 S
C1201 C1202 1.381 . S
C1202 H1159 0.929 . S
C1202 C1201 1.381 . S
C1202 C1203 1.371 . S
C1203 C1202 1.371 . S
C1203 C1204 1.380 1_545 S
C1204 H1160 0.931 . S
C1204 C1203 1.380 1_565 S
C1204 C1205 1.387 . S
C1205 H1161 0.930 . S
C1205 C1200 1.385 . S
C1205 C1204 1.387 . S
C1206 C1175 1.520 . S
C1206 C1207 1.377 1_565 S
C1206 C1211 1.361 . S
C1207 H1162 0.929 . S
C1207 C1206 1.377 1_545 S
C1207 C1208 1.386 . S
C1208 H1163 0.931 . S
C1208 C1207 1.386 . S
C1208 C1209 1.363 1_545 S
C1209 C1208 1.363 1_565 S
C1209 C1210 1.385 . S
C1210 H1164 0.930 . S
C1210 C1209 1.385 . S
C1210 C1211 1.396 . S
C1211 H1165 0.929 . S
C1211 C1206 1.361 . S
C1211 C1210 1.396 . S
C1212 O1166 1.300 . S
C1212 O1167 1.209 1_545 S
C1212 C1185 1.486 . S
C1213 O1168 1.199 1_565 S
C1213 O1169 1.297 . S
C1213 C1197 1.476 . S
H1214 O1240 0.856 . S
H1215 O1243 0.854 . S
H1216 C1251 0.930 . S
H1217 C1252 0.930 . S
H1218 C1254 0.930 . S
H1219 C1255 0.930 . S
H1220 C1257 0.931 . S
H1221 C1258 0.930 . S
H1222 C1260 0.930 . S
H1223 C1261 0.929 . S
H1224 C1263 0.930 . S
H1225 C1264 0.931 . S
H1226 C1266 0.930 . S
H1227 C1267 0.929 . S
H1228 C1269 0.931 . S
H1229 C1270 0.930 . S
H1230 C1272 0.930 . S
H1231 C1273 0.932 . S
H1232 C1275 0.930 . S
H1233 C1276 0.929 . S
H1234 C1278 0.931 . S
H1235 C1279 0.930 . S
H1236 C1281 0.929 . S
H1237 C1282 0.931 . S
H1238 C1284 0.930 . S
H1239 C1285 0.929 . S
O1240 H1214 0.856 . S
O1240 C1286 1.300 . S
O1241 C1286 1.209 1_455 S
O1242 C1287 1.199 1_655 S
O1243 H1215 0.854 . S
O1243 C1287 1.297 . S
C1244 C1245 1.404 . S
C1244 C1249 1.398 . S
C1244 C1250 1.492 . S
C1245 C1244 1.404 . S
C1245 C1246 1.396 . S
C1245 C1256 1.492 . S
C1246 C1245 1.396 . S
C1246 C1247 1.397 . S
C1246 C1262 1.509 . S
C1247 C1246 1.397 . S
C1247 C1248 1.402 1_655 S
C1247 C1268 1.520 1_655 S
C1248 C1247 1.402 1_455 S
C1248 C1249 1.400 1_455 S
C1248 C1274 1.500 . S
C1249 C1244 1.398 . S
C1249 C1248 1.400 1_655 S
C1249 C1280 1.523 1_655 S
C1250 C1244 1.492 . S
C1250 C1251 1.363 . S
C1250 C1255 1.390 1_655 S
C1251 H1216 0.930 . S
C1251 C1250 1.363 . S
C1251 C1252 1.372 . S
C1252 H1217 0.930 . S
C1252 C1251 1.372 . S
C1252 C1253 1.383 . S
C1253 C1252 1.383 . S
C1253 C1254 1.395 1_655 S
C1254 H1218 0.930 . S
C1254 C1253 1.395 1_455 S
C1254 C1255 1.362 . S
C1255 H1219 0.930 . S
C1255 C1250 1.390 1_455 S
C1255 C1254 1.362 . S
C1256 C1245 1.492 . S
C1256 C1257 1.377 . S
C1256 C1261 1.397 1_655 S
C1257 H1220 0.931 . S
C1257 C1256 1.377 . S
C1257 C1258 1.376 . S
C1258 H1221 0.930 . S
C1258 C1257 1.376 . S
C1258 C1259 1.376 . S
C1259 C1258 1.376 . S
C1259 C1260 1.378 1_655 S
C1259 C1286 1.486 . S
C1260 H1222 0.930 . S
C1260 C1259 1.378 1_455 S
C1260 C1261 1.376 . S
C1261 H1223 0.929 . S
C1261 C1256 1.397 1_455 S
C1261 C1260 1.376 . S
C1262 C1246 1.509 . S
C1262 C1263 1.391 . S
C1262 C1267 1.386 1_655 S
C1263 H1224 0.930 . S
C1263 C1262 1.391 . S
C1263 C1264 1.375 . S
C1264 H1225 0.931 . S
C1264 C1263 1.375 . S
C1264 C1265 1.375 . S
C1265 C1264 1.375 . S
C1265 C1266 1.361 1_655 S
C1266 H1226 0.930 . S
C1266 C1265 1.361 1_455 S
C1266 C1267 1.399 . S
C1267 H1227 0.929 . S
C1267 C1262 1.386 1_455 S
C1267 C1266 1.399 . S
C1268 C1247 1.520 1_455 S
C1268 C1269 1.331 1_455 S
C1268 C1273 1.390 . S
C1269 H1228 0.931 . S
C1269 C1268 1.331 1_655 S
C1269 C1270 1.372 . S
C1270 H1229 0.930 . S
C1270 C1269 1.372 . S
C1270 C1271 1.397 1_655 S
C1271 C1270 1.397 1_455 S
C1271 C1272 1.390 . S
C1271 C1287 1.476 . S
C1272 H1230 0.930 . S
C1272 C1271 1.390 . S
C1272 C1273 1.366 . S
C1273 H1231 0.932 . S
C1273 C1268 1.390 . S
C1273 C1272 1.366 . S
C1274 C1248 1.500 . S
C1274 C1275 1.331 1_455 S
C1274 C1279 1.423 . S
C1275 H1232 0.930 . S
C1275 C1274 1.331 1_655 S
C1275 C1276 1.381 . S
C1276 H1233 0.929 . S
C1276 C1275 1.381 . S
C1276 C1277 1.340 1_655 S
C1277 C1276 1.340 1_455 S
C1277 C1278 1.430 . S
C1278 H1234 0.931 . S
C1278 C1277 1.430 . S
C1278 C1279 1.387 . S
C1279 H1235 0.930 . S
C1279 C1274 1.423 . S
C1279 C1278 1.387 . S
C1280 C1249 1.523 1_455 S
C1280 C1281 1.377 1_455 S
C1280 C1285 1.361 . S
C1281 H1236 0.929 . S
C1281 C1280 1.377 1_655 S
C1281 C1282 1.386 . S
C1282 H1237 0.931 . S
C1282 C1281 1.386 . S
C1282 C1283 1.363 1_655 S
C1283 C1282 1.363 1_455 S
C1283 C1284 1.385 . S
C1284 H1238 0.930 . S
C1284 C1283 1.385 . S
C1284 C1285 1.396 . S
C1285 H1239 0.929 . S
C1285 C1280 1.361 . S
C1285 C1284 1.396 . S
C1286 O1240 1.300 . S
C1286 O1241 1.209 1_655 S
C1286 C1259 1.486 . S
C1287 O1242 1.199 1_455 S
C1287 O1243 1.297 . S
C1287 C1271 1.476 . S
H1288 O1314 0.856 . S
H1289 O1317 0.854 . S
H1290 C1325 0.930 . S
H1291 C1326 0.930 . S
H1292 C1328 0.930 . S
H1293 C1329 0.930 . S
H1294 C1331 0.931 . S
H1295 C1332 0.930 . S
H1296 C1334 0.930 . S
H1297 C1335 0.929 . S
H1298 C1337 0.930 . S
H1299 C1338 0.931 . S
H1300 C1340 0.930 . S
H1301 C1341 0.929 . S
H1302 C1343 0.931 . S
H1303 C1344 0.930 . S
H1304 C1346 0.930 . S
H1305 C1347 0.932 . S
H1306 C1349 0.930 . S
H1307 C1350 0.929 . S
H1308 C1352 0.931 . S
H1309 C1353 0.930 . S
H1310 C1355 0.929 . S
H1311 C1356 0.931 . S
H1312 C1358 0.930 . S
H1313 C1359 0.929 . S
O1314 H1288 0.856 . S
O1314 C1360 1.300 . S
O1315 C1360 1.209 . S
O1316 C1361 1.199 . S
O1317 H1289 0.854 . S
O1317 C1361 1.297 . S
C1318 C1319 1.404 . S
C1318 C1323 1.397 . S
C1318 C1324 1.492 . S
C1319 C1318 1.404 . S
C1319 C1320 1.396 . S
C1319 C1330 1.492 . S
C1320 C1319 1.396 . S
C1320 C1321 1.397 . S
C1320 C1336 1.509 . S
C1321 C1320 1.397 . S
C1321 C1322 1.412 . S
C1321 C1342 1.485 . S
C1322 C1321 1.412 . S
C1322 C1323 1.388 . S
C1322 C1348 1.490 . S
C1323 C1318 1.397 . S
C1323 C1322 1.388 . S
C1323 C1354 1.519 . S
C1324 C1318 1.492 . S
C1324 C1325 1.363 . S
C1324 C1329 1.390 . S
C1325 H1290 0.930 . S
C1325 C1324 1.363 . S
C1325 C1326 1.372 . S
C1326 H1291 0.930 . S
C1326 C1325 1.372 . S
C1326 C1327 1.383 . S
C1327 C1326 1.383 . S
C1327 C1328 1.395 . S
C1328 H1292 0.930 . S
C1328 C1327 1.395 . S
C1328 C1329 1.362 . S
C1329 H1293 0.930 . S
C1329 C1324 1.390 . S
C1329 C1328 1.362 . S
C1330 C1319 1.492 . S
C1330 C1331 1.377 . S
C1330 C1335 1.397 . S
C1331 H1294 0.931 . S
C1331 C1330 1.377 . S
C1331 C1332 1.376 . S
C1332 H1295 0.930 . S
C1332 C1331 1.376 . S
C1332 C1333 1.376 . S
C1333 C1332 1.376 . S
C1333 C1334 1.378 . S
C1333 C1360 1.486 . S
C1334 H1296 0.930 . S
C1334 C1333 1.378 . S
C1334 C1335 1.376 . S
C1335 H1297 0.929 . S
C1335 C1330 1.397 . S
C1335 C1334 1.376 . S
C1336 C1320 1.509 . S
C1336 C1337 1.391 . S
C1336 C1341 1.386 . S
C1337 H1298 0.930 . S
C1337 C1336 1.391 . S
C1337 C1338 1.375 . S
C1338 H1299 0.931 . S
C1338 C1337 1.375 . S
C1338 C1339 1.375 . S
C1339 C1338 1.375 . S
C1339 C1340 1.361 . S
C1340 H1300 0.930 . S
C1340 C1339 1.361 . S
C1340 C1341 1.399 . S
C1341 H1301 0.929 . S
C1341 C1336 1.386 . S
C1341 C1340 1.399 . S
C1342 C1321 1.485 . S
C1342 C1343 1.394 . S
C1342 C1347 1.360 . S
C1343 H1302 0.931 . S
C1343 C1342 1.394 . S
C1343 C1344 1.372 . S
C1344 H1303 0.930 . S
C1344 C1343 1.372 . S
C1344 C1345 1.397 . S
C1345 C1344 1.397 . S
C1345 C1346 1.390 . S
C1345 C1361 1.476 . S
C1346 H1304 0.930 . S
C1346 C1345 1.390 . S
C1346 C1347 1.366 . S
C1347 H1305 0.932 . S
C1347 C1342 1.360 . S
C1347 C1346 1.366 . S
C1348 C1322 1.490 . S
C1348 C1349 1.380 . S
C1348 C1353 1.386 . S
C1349 H1306 0.930 . S
C1349 C1348 1.380 . S
C1349 C1350 1.381 . S
C1350 H1307 0.929 . S
C1350 C1349 1.381 . S
C1350 C1351 1.371 . S
C1351 C1350 1.371 . S
C1351 C1352 1.380 . S
C1352 H1308 0.931 . S
C1352 C1351 1.380 . S
C1352 C1353 1.387 . S
C1353 H1309 0.930 . S
C1353 C1348 1.386 . S
C1353 C1352 1.387 . S
C1354 C1323 1.519 . S
C1354 C1355 1.377 . S
C1354 C1359 1.361 . S
C1355 H1310 0.929 . S
C1355 C1354 1.377 . S
C1355 C1356 1.386 . S
C1356 H1311 0.931 . S
C1356 C1355 1.386 . S
C1356 C1357 1.363 . S
C1357 C1356 1.363 . S
C1357 C1358 1.385 . S
C1358 H1312 0.930 . S
C1358 C1357 1.385 . S
C1358 C1359 1.396 . S
C1359 H1313 0.929 . S
C1359 C1354 1.361 . S
C1359 C1358 1.396 . S
C1360 O1314 1.300 . S
C1360 O1315 1.209 . S
C1360 C1333 1.486 . S
C1361 O1316 1.199 . S
C1361 O1317 1.297 . S
C1361 C1345 1.476 . S
H1362 O1388 0.856 . S
H1363 O1391 0.854 . S
H1364 C1399 0.930 . S
H1365 C1400 0.930 . S
H1366 C1402 0.930 . S
H1367 C1403 0.930 . S
H1368 C1405 0.931 . S
H1369 C1406 0.930 . S
H1370 C1408 0.930 . S
H1371 C1409 0.929 . S
H1372 C1411 0.930 . S
H1373 C1412 0.931 . S
H1374 C1414 0.930 . S
H1375 C1415 0.929 . S
H1376 C1417 0.931 . S
H1377 C1418 0.930 . S
H1378 C1420 0.930 . S
H1379 C1421 0.932 . S
H1380 C1423 0.930 . S
H1381 C1424 0.929 . S
H1382 C1426 0.931 . S
H1383 C1427 0.930 . S
H1384 C1429 0.929 . S
H1385 C1430 0.931 . S
H1386 C1432 0.930 . S
H1387 C1433 0.929 . S
O1388 H1362 0.856 . S
O1388 C1434 1.300 . S
O1389 C1434 1.209 . S
O1390 C1435 1.199 . S
O1391 H1363 0.854 . S
O1391 C1435 1.297 . S
C1392 C1393 1.404 . S
C1392 C1397 1.397 . S
C1392 C1398 1.492 . S
C1393 C1392 1.404 . S
C1393 C1394 1.396 . S
C1393 C1404 1.492 . S
C1394 C1393 1.396 . S
C1394 C1395 1.397 . S
C1394 C1410 1.509 . S
C1395 C1394 1.397 . S
C1395 C1396 1.412 . S
C1395 C1416 1.485 . S
C1396 C1395 1.412 . S
C1396 C1397 1.388 . S
C1396 C1422 1.490 . S
C1397 C1392 1.397 . S
C1397 C1396 1.388 . S
C1397 C1428 1.519 . S
C1398 C1392 1.492 . S
C1398 C1399 1.363 . S
C1398 C1403 1.390 . S
C1399 H1364 0.930 . S
C1399 C1398 1.363 . S
C1399 C1400 1.372 . S
C1400 H1365 0.930 . S
C1400 C1399 1.372 . S
C1400 C1401 1.383 . S
C1401 C1400 1.383 . S
C1401 C1402 1.395 . S
C1402 H1366 0.930 . S
C1402 C1401 1.395 . S
C1402 C1403 1.362 . S
C1403 H1367 0.930 . S
C1403 C1398 1.390 . S
C1403 C1402 1.362 . S
C1404 C1393 1.492 . S
C1404 C1405 1.377 . S
C1404 C1409 1.397 . S
C1405 H1368 0.931 . S
C1405 C1404 1.377 . S
C1405 C1406 1.376 . S
C1406 H1369 0.930 . S
C1406 C1405 1.376 . S
C1406 C1407 1.376 . S
C1407 C1406 1.376 . S
C1407 C1408 1.378 . S
C1407 C1434 1.486 . S
C1408 H1370 0.930 . S
C1408 C1407 1.378 . S
C1408 C1409 1.376 . S
C1409 H1371 0.929 . S
C1409 C1404 1.397 . S
C1409 C1408 1.376 . S
C1410 C1394 1.509 . S
C1410 C1411 1.391 . S
C1410 C1415 1.386 . S
C1411 H1372 0.930 . S
C1411 C1410 1.391 . S
C1411 C1412 1.375 . S
C1412 H1373 0.931 . S
C1412 C1411 1.375 . S
C1412 C1413 1.375 . S
C1413 C1412 1.375 . S
C1413 C1414 1.361 . S
C1414 H1374 0.930 . S
C1414 C1413 1.361 . S
C1414 C1415 1.399 . S
C1415 H1375 0.929 . S
C1415 C1410 1.386 . S
C1415 C1414 1.399 . S
C1416 C1395 1.485 . S
C1416 C1417 1.394 . S
C1416 C1421 1.360 . S
C1417 H1376 0.931 . S
C1417 C1416 1.394 . S
C1417 C1418 1.372 . S
C1418 H1377 0.930 . S
C1418 C1417 1.372 . S
C1418 C1419 1.397 . S
C1419 C1418 1.397 . S
C1419 C1420 1.390 . S
C1419 C1435 1.476 . S
C1420 H1378 0.930 . S
C1420 C1419 1.390 . S
C1420 C1421 1.366 . S
C1421 H1379 0.932 . S
C1421 C1416 1.360 . S
C1421 C1420 1.366 . S
C1422 C1396 1.490 . S
C1422 C1423 1.380 . S
C1422 C1427 1.386 . S
C1423 H1380 0.930 . S
C1423 C1422 1.380 . S
C1423 C1424 1.381 . S
C1424 H1381 0.929 . S
C1424 C1423 1.381 . S
C1424 C1425 1.371 . S
C1425 C1424 1.371 . S
C1425 C1426 1.380 . S
C1426 H1382 0.931 . S
C1426 C1425 1.380 . S
C1426 C1427 1.387 . S
C1427 H1383 0.930 . S
C1427 C1422 1.386 . S
C1427 C1426 1.387 . S
C1428 C1397 1.519 . S
C1428 C1429 1.377 . S
C1428 C1433 1.361 . S
C1429 H1384 0.929 . S
C1429 C1428 1.377 . S
C1429 C1430 1.386 . S
C1430 H1385 0.931 . S
C1430 C1429 1.386 . S
C1430 C1431 1.363 . S
C1431 C1430 1.363 . S
C1431 C1432 1.385 . S
C1432 H1386 0.930 . S
C1432 C1431 1.385 . S
C1432 C1433 1.396 . S
C1433 H1387 0.929 . S
C1433 C1428 1.361 . S
C1433 C1432 1.396 . S
C1434 O1388 1.300 . S
C1434 O1389 1.209 . S
C1434 C1407 1.486 . S
C1435 O1390 1.199 . S
C1435 O1391 1.297 . S
C1435 C1419 1.476 . S
H1436 O1462 0.856 . S
H1437 O1465 0.854 . S
H1438 C1473 0.930 . S
H1439 C1474 0.930 . S
H1440 C1476 0.930 . S
H1441 C1477 0.930 . S
H1442 C1479 0.931 . S
H1443 C1480 0.930 . S
H1444 C1482 0.930 . S
H1445 C1483 0.929 . S
H1446 C1485 0.930 . S
H1447 C1486 0.931 . S
H1448 C1488 0.930 . S
H1449 C1489 0.929 . S
H1450 C1491 0.931 . S
H1451 C1492 0.930 . S
H1452 C1494 0.930 . S
H1453 C1495 0.932 . S
H1454 C1497 0.930 . S
H1455 C1498 0.929 . S
H1456 C1500 0.931 . S
H1457 C1501 0.930 . S
H1458 C1503 0.929 . S
H1459 C1504 0.931 . S
H1460 C1506 0.930 . S
H1461 C1507 0.929 . S
O1462 H1436 0.856 . S
O1462 C1508 1.300 . S
O1463 C1508 1.209 . S
O1464 C1509 1.199 . S
O1465 H1437 0.854 . S
O1465 C1509 1.297 . S
C1466 C1467 1.404 . S
C1466 C1471 1.397 . S
C1466 C1472 1.492 . S
C1467 C1466 1.404 . S
C1467 C1468 1.396 . S
C1467 C1478 1.492 . S
C1468 C1467 1.396 . S
C1468 C1469 1.397 . S
C1468 C1484 1.509 . S
C1469 C1468 1.397 . S
C1469 C1470 1.412 . S
C1469 C1490 1.485 . S
C1470 C1469 1.412 . S
C1470 C1471 1.388 . S
C1470 C1496 1.490 . S
C1471 C1466 1.397 . S
C1471 C1470 1.388 . S
C1471 C1502 1.519 . S
C1472 C1466 1.492 . S
C1472 C1473 1.363 . S
C1472 C1477 1.390 . S
C1473 H1438 0.930 . S
C1473 C1472 1.363 . S
C1473 C1474 1.372 . S
C1474 H1439 0.930 . S
C1474 C1473 1.372 . S
C1474 C1475 1.383 . S
C1475 C1474 1.383 . S
C1475 C1476 1.395 . S
C1476 H1440 0.930 . S
C1476 C1475 1.395 . S
C1476 C1477 1.362 . S
C1477 H1441 0.930 . S
C1477 C1472 1.390 . S
C1477 C1476 1.362 . S
C1478 C1467 1.492 . S
C1478 C1479 1.377 . S
C1478 C1483 1.397 . S
C1479 H1442 0.931 . S
C1479 C1478 1.377 . S
C1479 C1480 1.376 . S
C1480 H1443 0.930 . S
C1480 C1479 1.376 . S
C1480 C1481 1.376 . S
C1481 C1480 1.376 . S
C1481 C1482 1.378 . S
C1481 C1508 1.486 . S
C1482 H1444 0.930 . S
C1482 C1481 1.378 . S
C1482 C1483 1.376 . S
C1483 H1445 0.929 . S
C1483 C1478 1.397 . S
C1483 C1482 1.376 . S
C1484 C1468 1.509 . S
C1484 C1485 1.391 . S
C1484 C1489 1.386 . S
C1485 H1446 0.930 . S
C1485 C1484 1.391 . S
C1485 C1486 1.375 . S
C1486 H1447 0.931 . S
C1486 C1485 1.375 . S
C1486 C1487 1.375 . S
C1487 C1486 1.375 . S
C1487 C1488 1.361 . S
C1488 H1448 0.930 . S
C1488 C1487 1.361 . S
C1488 C1489 1.399 . S
C1489 H1449 0.929 . S
C1489 C1484 1.386 . S
C1489 C1488 1.399 . S
C1490 C1469 1.485 . S
C1490 C1491 1.394 . S
C1490 C1495 1.360 . S
C1491 H1450 0.931 . S
C1491 C1490 1.394 . S
C1491 C1492 1.372 . S
C1492 H1451 0.930 . S
C1492 C1491 1.372 . S
C1492 C1493 1.397 . S
C1493 C1492 1.397 . S
C1493 C1494 1.390 . S
C1493 C1509 1.476 . S
C1494 H1452 0.930 . S
C1494 C1493 1.390 . S
C1494 C1495 1.366 . S
C1495 H1453 0.932 . S
C1495 C1490 1.360 . S
C1495 C1494 1.366 . S
C1496 C1470 1.490 . S
C1496 C1497 1.380 . S
C1496 C1501 1.386 . S
C1497 H1454 0.930 . S
C1497 C1496 1.380 . S
C1497 C1498 1.381 . S
C1498 H1455 0.929 . S
C1498 C1497 1.381 . S
C1498 C1499 1.371 . S
C1499 C1498 1.371 . S
C1499 C1500 1.380 . S
C1500 H1456 0.931 . S
C1500 C1499 1.380 . S
C1500 C1501 1.387 . S
C1501 H1457 0.930 . S
C1501 C1496 1.386 . S
C1501 C1500 1.387 . S
C1502 C1471 1.519 . S
C1502 C1503 1.377 . S
C1502 C1507 1.361 . S
C1503 H1458 0.929 . S
C1503 C1502 1.377 . S
C1503 C1504 1.386 . S
C1504 H1459 0.931 . S
C1504 C1503 1.386 . S
C1504 C1505 1.363 . S
C1505 C1504 1.363 . S
C1505 C1506 1.385 . S
C1506 H1460 0.930 . S
C1506 C1505 1.385 . S
C1506 C1507 1.396 . S
C1507 H1461 0.929 . S
C1507 C1502 1.361 . S
C1507 C1506 1.396 . S
C1508 O1462 1.300 . S
C1508 O1463 1.209 . S
C1508 C1481 1.486 . S
C1509 O1464 1.199 . S
C1509 O1465 1.297 . S
C1509 C1493 1.476 . S
H1510 O1536 0.856 . S
H1511 O1539 0.854 . S
H1512 C1547 0.930 . S
H1513 C1548 0.930 . S
H1514 C1550 0.930 . S
H1515 C1551 0.930 . S
H1516 C1553 0.931 . S
H1517 C1554 0.930 . S
H1518 C1556 0.930 . S
H1519 C1557 0.929 . S
H1520 C1559 0.930 . S
H1521 C1560 0.931 . S
H1522 C1562 0.930 . S
H1523 C1563 0.929 . S
H1524 C1565 0.931 . S
H1525 C1566 0.930 . S
H1526 C1568 0.930 . S
H1527 C1569 0.932 . S
H1528 C1571 0.930 . S
H1529 C1572 0.929 . S
H1530 C1574 0.931 . S
H1531 C1575 0.930 . S
H1532 C1577 0.929 . S
H1533 C1578 0.931 . S
H1534 C1580 0.930 . S
H1535 C1581 0.929 . S
O1536 H1510 0.856 . S
O1536 C1582 1.300 . S
O1537 C1582 1.209 . S
O1538 C1583 1.199 . S
O1539 H1511 0.854 . S
O1539 C1583 1.297 . S
C1540 C1541 1.404 . S
C1540 C1545 1.397 . S
C1540 C1546 1.492 . S
C1541 C1540 1.404 . S
C1541 C1542 1.396 . S
C1541 C1552 1.492 . S
C1542 C1541 1.396 . S
C1542 C1543 1.397 . S
C1542 C1558 1.509 . S
C1543 C1542 1.397 . S
C1543 C1544 1.412 . S
C1543 C1564 1.485 . S
C1544 C1543 1.412 . S
C1544 C1545 1.388 . S
C1544 C1570 1.490 . S
C1545 C1540 1.397 . S
C1545 C1544 1.388 . S
C1545 C1576 1.519 . S
C1546 C1540 1.492 . S
C1546 C1547 1.363 . S
C1546 C1551 1.390 . S
C1547 H1512 0.930 . S
C1547 C1546 1.363 . S
C1547 C1548 1.372 . S
C1548 H1513 0.930 . S
C1548 C1547 1.372 . S
C1548 C1549 1.383 . S
C1549 C1548 1.383 . S
C1549 C1550 1.395 . S
C1550 H1514 0.930 . S
C1550 C1549 1.395 . S
C1550 C1551 1.362 . S
C1551 H1515 0.930 . S
C1551 C1546 1.390 . S
C1551 C1550 1.362 . S
C1552 C1541 1.492 . S
C1552 C1553 1.377 . S
C1552 C1557 1.397 . S
C1553 H1516 0.931 . S
C1553 C1552 1.377 . S
C1553 C1554 1.376 . S
C1554 H1517 0.930 . S
C1554 C1553 1.376 . S
C1554 C1555 1.376 . S
C1555 C1554 1.376 . S
C1555 C1556 1.378 . S
C1555 C1582 1.486 . S
C1556 H1518 0.930 . S
C1556 C1555 1.378 . S
C1556 C1557 1.376 . S
C1557 H1519 0.929 . S
C1557 C1552 1.397 . S
C1557 C1556 1.376 . S
C1558 C1542 1.509 . S
C1558 C1559 1.391 . S
C1558 C1563 1.386 . S
C1559 H1520 0.930 . S
C1559 C1558 1.391 . S
C1559 C1560 1.375 . S
C1560 H1521 0.931 . S
C1560 C1559 1.375 . S
C1560 C1561 1.375 . S
C1561 C1560 1.375 . S
C1561 C1562 1.361 . S
C1562 H1522 0.930 . S
C1562 C1561 1.361 . S
C1562 C1563 1.399 . S
C1563 H1523 0.929 . S
C1563 C1558 1.386 . S
C1563 C1562 1.399 . S
C1564 C1543 1.485 . S
C1564 C1565 1.394 . S
C1564 C1569 1.360 . S
C1565 H1524 0.931 . S
C1565 C1564 1.394 . S
C1565 C1566 1.372 . S
C1566 H1525 0.930 . S
C1566 C1565 1.372 . S
C1566 C1567 1.397 . S
C1567 C1566 1.397 . S
C1567 C1568 1.390 . S
C1567 C1583 1.476 . S
C1568 H1526 0.930 . S
C1568 C1567 1.390 . S
C1568 C1569 1.366 . S
C1569 H1527 0.932 . S
C1569 C1564 1.360 . S
C1569 C1568 1.366 . S
C1570 C1544 1.490 . S
C1570 C1571 1.380 . S
C1570 C1575 1.386 . S
C1571 H1528 0.930 . S
C1571 C1570 1.380 . S
C1571 C1572 1.381 . S
C1572 H1529 0.929 . S
C1572 C1571 1.381 . S
C1572 C1573 1.371 . S
C1573 C1572 1.371 . S
C1573 C1574 1.380 . S
C1574 H1530 0.931 . S
C1574 C1573 1.380 . S
C1574 C1575 1.387 . S
C1575 H1531 0.930 . S
C1575 C1570 1.386 . S
C1575 C1574 1.387 . S
C1576 C1545 1.519 . S
C1576 C1577 1.377 . S
C1576 C1581 1.361 . S
C1577 H1532 0.929 . S
C1577 C1576 1.377 . S
C1577 C1578 1.386 . S
C1578 H1533 0.931 . S
C1578 C1577 1.386 . S
C1578 C1579 1.363 . S
C1579 C1578 1.363 . S
C1579 C1580 1.385 . S
C1580 H1534 0.930 . S
C1580 C1579 1.385 . S
C1580 C1581 1.396 . S
C1581 H1535 0.929 . S
C1581 C1576 1.361 . S
C1581 C1580 1.396 . S
C1582 O1536 1.300 . S
C1582 O1537 1.209 . S
C1582 C1555 1.486 . S
C1583 O1538 1.199 . S
C1583 O1539 1.297 . S
C1583 C1567 1.476 . S
H1584 C1602 0.951 . S
H1585 C1604 0.951 . S
H1586 C1606 0.950 . S
H1587 C1607 0.950 . S
H1588 C1609 0.950 . S
H1589 C1612 0.950 . S
H1590 C1613 0.950 . S
H1591 C1615 0.950 . S
H1592 C1616 0.950 . S
H1593 C1617 0.951 . S
H1594 C1619 0.951 . S
H1595 C1621 0.950 . S
H1596 C1622 0.950 . S
H1597 C1624 0.950 . S
H1598 C1627 0.950 . S
H1599 C1628 0.950 . S
H1600 C1630 0.950 . S
H1601 C1631 0.950 . S
C1602 H1584 0.951 . S
C1602 C1603 1.366 . S
C1602 C1604 1.388 . S
C1603 C1602 1.366 . S
C1603 C1607 1.385 1_455 S
C1604 H1585 0.951 . S
C1604 C1602 1.388 . S
C1604 C1605 1.366 1_455 S
C1605 C1604 1.366 1_655 S
C1605 C1606 1.414 . S
C1605 C1608 1.499 . S
C1606 H1586 0.950 . S
C1606 C1605 1.414 . S
C1606 C1607 1.374 . S
C1607 H1587 0.950 . S
C1607 C1603 1.385 1_655 S
C1607 C1606 1.374 . S
C1608 C1605 1.499 . S
C1608 C1609 1.373 . S
C1608 C1610 1.389 1_655 S
C1609 H1588 0.950 . S
C1609 C1608 1.373 . S
C1609 C1625 1.377 . S
C1610 C1608 1.389 1_455 S
C1610 C1611 1.524 . S
C1610 C1624 1.377 . S
C1611 C1610 1.524 . S
C1611 C1612 1.397 . S
C1611 C1616 1.363 . S
C1612 H1589 0.950 . S
C1612 C1611 1.397 . S
C1612 C1613 1.334 . S
C1613 H1590 0.950 . S
C1613 C1612 1.334 . S
C1613 C1614 1.287 . S
C1614 C1613 1.287 . S
C1614 C1615 1.524 . S
C1614 H1633 0.913 . S
C1615 H1591 0.950 . S
C1615 C1614 1.524 . S
C1615 C1616 1.415 . S
C1616 H1592 0.950 . S
C1616 C1611 1.363 . S
C1616 C1615 1.415 . S
C1617 H1593 0.951 . S
C1617 C1618 1.366 . S
C1617 C1619 1.388 . S
C1618 C1617 1.366 . S
C1618 C1622 1.385 1_655 S
C1619 H1594 0.951 . S
C1619 C1617 1.388 . S
C1619 C1620 1.366 . S
C1620 C1619 1.366 . S
C1620 C1621 1.414 1_655 S
C1620 C1623 1.499 . S
C1621 H1595 0.950 . S
C1621 C1620 1.414 1_455 S
C1621 C1622 1.374 . S
C1622 H1596 0.950 . S
C1622 C1618 1.385 1_455 S
C1622 C1621 1.374 . S
C1623 C1620 1.499 . S
C1623 C1624 1.373 1_655 S
C1623 C1625 1.389 . S
C1624 H1597 0.950 . S
C1624 C1610 1.377 . S
C1624 C1623 1.373 1_455 S
C1625 C1609 1.377 . S
C1625 C1623 1.389 . S
C1625 C1626 1.524 . S
C1626 C1625 1.524 . S
C1626 C1627 1.397 . S
C1626 C1631 1.363 . S
C1627 H1598 0.950 . S
C1627 C1626 1.397 . S
C1627 C1628 1.334 . S
C1628 H1599 0.950 . S
C1628 C1627 1.334 . S
C1628 C1629 1.287 . S
C1629 C1628 1.287 . S
C1629 C1630 1.524 . S
C1629 H1632 0.999 . S
C1630 H1600 0.950 . S
C1630 C1629 1.524 . S
C1630 C1631 1.415 . S
C1631 H1601 0.950 . S
C1631 C1626 1.363 . S
C1631 C1630 1.415 . S
H1632 C1629 0.999 . S
H1633 C1614 0.913 . S
H1634 C1652 0.951 . S
H1635 C1654 0.951 . S
H1636 C1656 0.950 . S
H1637 C1657 0.950 . S
H1638 C1659 0.950 . S
H1639 C1662 0.950 . S
H1640 C1663 0.950 . S
H1641 C1665 0.950 . S
H1642 C1666 0.950 . S
H1643 C1667 0.951 . S
H1644 C1669 0.951 . S
H1645 C1671 0.950 . S
H1646 C1672 0.950 . S
H1647 C1674 0.950 . S
H1648 C1677 0.950 . S
H1649 C1678 0.950 . S
H1650 C1680 0.950 . S
H1651 C1681 0.950 . S
C1652 H1634 0.951 . S
C1652 C1653 1.366 . S
C1652 C1654 1.388 . S
C1653 C1652 1.366 . S
C1653 C1657 1.385 . S
C1654 H1635 0.951 . S
C1654 C1652 1.388 . S
C1654 C1655 1.366 . S
C1655 C1654 1.366 . S
C1655 C1656 1.414 . S
C1655 C1658 1.499 . S
C1656 H1636 0.950 . S
C1656 C1655 1.414 . S
C1656 C1657 1.374 . S
C1657 H1637 0.950 . S
C1657 C1653 1.385 . S
C1657 C1656 1.374 . S
C1658 C1655 1.499 . S
C1658 C1659 1.373 . S
C1658 C1660 1.389 . S
C1659 H1638 0.950 . S
C1659 C1658 1.373 . S
C1659 C1675 1.377 . S
C1660 C1658 1.389 . S
C1660 C1661 1.524 . S
C1660 C1674 1.377 . S
C1661 C1660 1.524 . S
C1661 C1662 1.397 . S
C1661 C1666 1.363 . S
C1662 H1639 0.950 . S
C1662 C1661 1.397 . S
C1662 C1663 1.334 . S
C1663 H1640 0.950 . S
C1663 C1662 1.334 . S
C1663 C1664 1.287 . S
C1664 C1663 1.287 . S
C1664 C1665 1.524 . S
C1664 H1683 0.913 . S
C1665 H1641 0.950 . S
C1665 C1664 1.524 . S
C1665 C1666 1.415 . S
C1666 H1642 0.950 . S
C1666 C1661 1.363 . S
C1666 C1665 1.415 . S
C1667 H1643 0.951 . S
C1667 C1668 1.366 . S
C1667 C1669 1.388 . S
C1668 C1667 1.366 . S
C1668 C1672 1.385 . S
C1669 H1644 0.951 . S
C1669 C1667 1.388 . S
C1669 C1670 1.366 . S
C1670 C1669 1.366 . S
C1670 C1671 1.414 . S
C1670 C1673 1.499 . S
C1671 H1645 0.950 . S
C1671 C1670 1.414 . S
C1671 C1672 1.374 . S
C1672 H1646 0.950 . S
C1672 C1668 1.385 . S
C1672 C1671 1.374 . S
C1673 C1670 1.499 . S
C1673 C1674 1.373 . S
C1673 C1675 1.389 . S
C1674 H1647 0.950 . S
C1674 C1660 1.377 . S
C1674 C1673 1.373 . S
C1675 C1659 1.377 . S
C1675 C1673 1.389 . S
C1675 C1676 1.524 . S
C1676 C1675 1.524 . S
C1676 C1677 1.397 . S
C1676 C1681 1.363 . S
C1677 H1648 0.950 . S
C1677 C1676 1.397 . S
C1677 C1678 1.334 . S
C1678 H1649 0.950 . S
C1678 C1677 1.334 . S
C1678 C1679 1.287 . S
C1679 C1678 1.287 . S
C1679 C1680 1.524 . S
C1679 H1682 0.999 . S
C1680 H1650 0.950 . S
C1680 C1679 1.524 . S
C1680 C1681 1.415 . S
C1681 H1651 0.950 . S
C1681 C1676 1.363 . S
C1681 C1680 1.415 . S
H1682 C1679 0.999 . S
H1683 C1664 0.913 . S
H1684 C1702 0.951 . S
H1685 C1704 0.951 . S
H1686 C1706 0.950 . S
H1687 C1707 0.950 . S
H1688 C1709 0.950 . S
H1689 C1712 0.950 . S
H1690 C1713 0.950 . S
H1691 C1715 0.950 . S
H1692 C1716 0.950 1_545 S
H1693 C1717 0.951 . S
H1694 C1719 0.951 . S
H1695 C1721 0.950 . S
H1696 C1722 0.950 . S
H1697 C1724 0.956 . S
H1698 C1727 0.950 . S
H1699 C1728 0.950 . S
H1700 C1730 0.950 . S
H1701 C1731 0.950 . S
C1702 H1684 0.951 . S
C1702 C1703 1.366 . S
C1702 C1704 1.388 . S
C1703 C1702 1.366 . S
C1703 C1707 1.385 . S
C1704 H1685 0.951 . S
C1704 C1702 1.388 . S
C1704 C1705 1.366 . S
C1705 C1704 1.366 . S
C1705 C1706 1.414 . S
C1705 C1708 1.499 . S
C1706 H1686 0.950 . S
C1706 C1705 1.414 . S
C1706 C1707 1.374 . S
C1707 H1687 0.950 . S
C1707 C1703 1.385 . S
C1707 C1706 1.374 . S
C1708 C1705 1.499 . S
C1708 C1709 1.373 . S
C1708 C1710 1.389 . S
C1709 H1688 0.950 . S
C1709 C1708 1.373 . S
C1709 C1725 1.377 . S
C1710 C1708 1.389 . S
C1710 C1711 1.524 1_545 S
C1710 C1724 1.377 . S
C1711 C1710 1.524 1_565 S
C1711 C1712 1.397 . S
C1711 C1716 1.363 . S
C1712 H1689 0.950 . S
C1712 C1711 1.397 . S
C1712 C1713 1.334 . S
C1713 H1690 0.950 . S
C1713 C1712 1.334 . S
C1713 C1714 1.287 . S
C1714 C1713 1.287 . S
C1714 C1715 1.524 . S
C1714 H1733 0.913 . S
C1715 H1691 0.950 . S
C1715 C1714 1.524 . S
C1715 C1716 1.415 . S
C1716 H1692 0.950 1_565 S
C1716 C1711 1.363 . S
C1716 C1715 1.415 . S
C1717 H1693 0.951 . S
C1717 C1718 1.366 . S
C1717 C1719 1.388 . S
C1718 C1717 1.366 . S
C1718 C1722 1.385 . S
C1719 H1694 0.951 . S
C1719 C1717 1.388 . S
C1719 C1720 1.366 . S
C1720 C1719 1.366 . S
C1720 C1721 1.414 . S
C1720 C1723 1.499 . S
C1721 H1695 0.950 . S
C1721 C1720 1.414 . S
C1721 C1722 1.374 . S
C1722 H1696 0.950 . S
C1722 C1718 1.385 . S
C1722 C1721 1.374 . S
C1723 C1720 1.499 . S
C1723 C1724 1.373 . S
C1723 C1725 1.389 . S
C1724 H1697 0.956 . S
C1724 C1710 1.377 . S
C1724 C1723 1.373 . S
C1725 C1709 1.377 . S
C1725 C1723 1.389 . S
C1725 C1726 1.524 . S
C1726 C1725 1.524 . S
C1726 C1727 1.397 . S
C1726 C1731 1.363 . S
C1727 H1698 0.950 . S
C1727 C1726 1.397 . S
C1727 C1728 1.334 . S
C1728 H1699 0.950 . S
C1728 C1727 1.334 . S
C1728 C1729 1.287 . S
C1729 C1728 1.287 . S
C1729 C1730 1.524 . S
C1729 H1732 0.999 . S
C1730 H1700 0.950 . S
C1730 C1729 1.524 . S
C1730 C1731 1.415 . S
C1731 H1701 0.950 . S
C1731 C1726 1.363 . S
C1731 C1730 1.415 . S
H1732 C1729 0.999 . S
H1733 C1714 0.913 . S
H1734 C1752 0.951 . S
H1735 C1754 0.951 . S
H1736 C1756 0.949 1_545 S
H1737 C1757 0.930 1_545 S
H1738 C1759 0.950 . S
H1739 C1762 0.950 . S
H1740 C1763 0.950 . S
H1741 C1765 0.950 . S
H1742 C1766 0.950 . S
H1743 C1767 0.951 . S
H1744 C1769 0.951 . S
H1745 C1771 0.950 . S
H1746 C1772 0.950 . S
H1747 C1774 0.950 . S
H1748 C1777 0.950 . S
H1749 C1778 0.950 . S
H1750 C1780 0.950 . S
H1751 C1781 0.950 . S
C1752 H1734 0.951 . S
C1752 C1753 1.366 . S
C1752 C1754 1.388 . S
C1753 C1752 1.366 . S
C1753 C1757 1.395 . S
C1754 H1735 0.951 . S
C1754 C1752 1.388 . S
C1754 C1755 1.366 . S
C1755 C1754 1.366 . S
C1755 C1756 1.416 . S
C1755 C1758 1.499 . S
C1756 H1736 0.949 1_565 S
C1756 C1755 1.416 . S
C1756 C1757 1.383 . S
C1757 H1737 0.930 1_565 S
C1757 C1753 1.395 . S
C1757 C1756 1.383 . S
C1758 C1755 1.499 . S
C1758 C1759 1.373 1_565 S
C1758 C1760 1.389 . S
C1759 H1738 0.950 . S
C1759 C1758 1.373 1_545 S
C1759 C1775 1.377 . S
C1760 C1758 1.389 . S
C1760 C1761 1.524 . S
C1760 C1774 1.377 . S
C1761 C1760 1.524 . S
C1761 C1762 1.397 . S
C1761 C1766 1.363 . S
C1762 H1739 0.950 . S
C1762 C1761 1.397 . S
C1762 C1763 1.334 . S
C1763 H1740 0.950 . S
C1763 C1762 1.334 . S
C1763 C1764 1.287 . S
C1764 C1763 1.287 . S
C1764 C1765 1.524 . S
C1764 H1783 0.913 . S
C1765 H1741 0.950 . S
C1765 C1764 1.524 . S
C1765 C1766 1.415 . S
C1766 H1742 0.950 . S
C1766 C1761 1.363 . S
C1766 C1765 1.415 . S
C1767 H1743 0.951 . S
C1767 C1768 1.366 1_545 S
C1767 C1769 1.388 . S
C1768 C1767 1.366 1_565 S
C1768 C1772 1.385 . S
C1769 H1744 0.951 . S
C1769 C1767 1.388 . S
C1769 C1770 1.366 1_545 S
C1770 C1769 1.366 1_565 S
C1770 C1771 1.414 . S
C1770 C1773 1.499 . S
C1771 H1745 0.950 . S
C1771 C1770 1.414 . S
C1771 C1772 1.374 . S
C1772 H1746 0.950 . S
C1772 C1768 1.385 . S
C1772 C1771 1.374 . S
C1773 C1770 1.499 . S
C1773 C1774 1.373 . S
C1773 C1775 1.389 1_565 S
C1774 H1747 0.950 . S
C1774 C1760 1.377 . S
C1774 C1773 1.373 . S
C1775 C1759 1.377 . S
C1775 C1773 1.389 1_545 S
C1775 C1776 1.524 . S
C1776 C1775 1.524 . S
C1776 C1777 1.397 . S
C1776 C1781 1.363 . S
C1777 H1748 0.950 . S
C1777 C1776 1.397 . S
C1777 C1778 1.334 . S
C1778 H1749 0.950 . S
C1778 C1777 1.334 . S
C1778 C1779 1.287 . S
C1779 C1778 1.287 . S
C1779 C1780 1.524 . S
C1779 H1782 0.999 . S
C1780 H1750 0.950 . S
C1780 C1779 1.524 . S
C1780 C1781 1.415 . S
C1781 H1751 0.950 . S
C1781 C1776 1.363 . S
C1781 C1780 1.415 . S
H1782 C1779 0.999 . S
H1783 C1764 0.913 . S
H1784 C1802 0.951 . S
H1785 C1804 0.951 . S
H1786 C1806 0.950 . S
H1787 C1807 0.950 . S
H1788 C1809 0.950 . S
H1789 C1812 0.950 . S
H1790 C1813 0.950 . S
H1791 C1815 0.950 . S
H1792 C1816 0.950 . S
H1793 C1817 0.951 . S
H1794 C1819 0.951 . S
H1795 C1821 0.950 1_655 S
H1796 C1822 0.950 1_655 S
H1797 C1824 0.950 . S
H1798 C1827 0.950 . S
H1799 C1828 0.950 . S
H1800 C1830 0.950 . S
H1801 C1831 0.950 . S
C1802 H1784 0.951 . S
C1802 C1803 1.366 . S
C1802 C1804 1.388 . S
C1803 C1802 1.366 . S
C1803 C1807 1.385 . S
C1804 H1785 0.951 . S
C1804 C1802 1.388 . S
C1804 C1805 1.366 . S
C1805 C1804 1.366 . S
C1805 C1806 1.414 . S
C1805 C1808 1.499 . S
C1806 H1786 0.950 . S
C1806 C1805 1.414 . S
C1806 C1807 1.374 . S
C1807 H1787 0.950 . S
C1807 C1803 1.385 . S
C1807 C1806 1.374 . S
C1808 C1805 1.499 . S
C1808 C1809 1.373 . S
C1808 C1810 1.389 . S
C1809 H1788 0.950 . S
C1809 C1808 1.373 . S
C1809 C1825 1.377 . S
C1810 C1808 1.389 . S
C1810 C1811 1.524 . S
C1810 C1824 1.377 . S
C1811 C1810 1.524 . S
C1811 C1812 1.397 . S
C1811 C1816 1.363 . S
C1812 H1789 0.950 . S
C1812 C1811 1.397 . S
C1812 C1813 1.334 . S
C1813 H1790 0.950 . S
C1813 C1812 1.334 . S
C1813 C1814 1.287 . S
C1814 C1813 1.287 . S
C1814 C1815 1.524 . S
C1814 H1833 0.913 . S
C1815 H1791 0.950 . S
C1815 C1814 1.524 . S
C1815 C1816 1.415 . S
C1816 H1792 0.950 . S
C1816 C1811 1.363 . S
C1816 C1815 1.415 . S
C1817 H1793 0.951 . S
C1817 C1818 1.366 . S
C1817 C1819 1.388 . S
C1818 C1817 1.366 . S
C1818 C1822 1.385 . S
C1819 H1794 0.951 . S
C1819 C1817 1.388 . S
C1819 C1820 1.366 . S
C1820 C1819 1.366 . S
C1820 C1821 1.414 . S
C1820 C1823 1.499 . S
C1821 H1795 0.950 1_455 S
C1821 C1820 1.414 . S
C1821 C1822 1.374 . S
C1822 H1796 0.950 1_455 S
C1822 C1818 1.385 . S
C1822 C1821 1.374 . S
C1823 C1820 1.499 . S
C1823 C1824 1.373 . S
C1823 C1825 1.389 . S
C1824 H1797 0.950 . S
C1824 C1810 1.377 . S
C1824 C1823 1.373 . S
C1825 C1809 1.377 . S
C1825 C1823 1.389 . S
C1825 C1826 1.524 . S
C1826 C1825 1.524 . S
C1826 C1827 1.397 1_455 S
C1826 C1831 1.363 . S
C1827 H1798 0.950 . S
C1827 C1826 1.397 1_655 S
C1827 C1828 1.334 . S
C1828 H1799 0.950 . S
C1828 C1827 1.334 . S
C1828 C1829 1.287 . S
C1829 C1828 1.287 . S
C1829 C1830 1.524 1_655 S
C1829 H1832 0.999 . S
C1830 H1800 0.950 . S
C1830 C1829 1.524 1_455 S
C1830 C1831 1.415 . S
C1831 H1801 0.950 . S
C1831 C1826 1.363 . S
C1831 C1830 1.415 . S
H1832 C1829 0.999 . S
H1833 C1814 0.913 . S
H1834 C1852 0.951 . S
H1835 C1854 0.951 . S
H1836 C1856 0.950 . S
H1837 C1857 0.950 . S
H1838 C1859 0.950 . S
H1839 C1862 0.950 . S
H1840 C1863 0.950 . S
H1841 C1865 0.950 . S
H1842 C1866 0.950 . S
H1843 C1867 0.951 . S
H1844 C1869 0.951 . S
H1845 C1871 0.950 . S
H1846 C1872 0.950 . S
H1847 C1874 0.950 . S
H1848 C1877 0.950 . S
H1849 C1878 0.950 . S
H1850 C1880 0.950 . S
H1851 C1881 0.950 . S
C1852 H1834 0.951 . S
C1852 C1853 1.366 . S
C1852 C1854 1.388 1_554 S
C1853 C1852 1.366 . S
C1853 C1857 1.385 . S
C1854 H1835 0.951 . S
C1854 C1852 1.388 1_556 S
C1854 C1855 1.366 . S
C1855 C1854 1.366 . S
C1855 C1856 1.414 1_556 S
C1855 C1858 1.499 . S
C1856 H1836 0.950 . S
C1856 C1855 1.414 1_554 S
C1856 C1857 1.374 . S
C1857 H1837 0.950 . S
C1857 C1853 1.385 . S
C1857 C1856 1.374 . S
C1858 C1855 1.499 . S
C1858 C1859 1.373 . S
C1858 C1860 1.389 . S
C1859 H1838 0.950 . S
C1859 C1858 1.373 . S
C1859 C1875 1.377 . S
C1860 C1858 1.389 . S
C1860 C1861 1.524 . S
C1860 C1874 1.377 . S
C1861 C1860 1.524 . S
C1861 C1862 1.397 . S
C1861 C1866 1.363 . S
C1862 H1839 0.950 . S
C1862 C1861 1.397 . S
C1862 C1863 1.334 . S
C1863 H1840 0.950 . S
C1863 C1862 1.334 . S
C1863 C1864 1.287 . S
C1864 C1863 1.287 . S
C1864 C1865 1.524 . S
C1864 H1883 0.913 . S
C1865 H1841 0.950 . S
C1865 C1864 1.524 . S
C1865 C1866 1.415 . S
C1866 H1842 0.950 . S
C1866 C1861 1.363 . S
C1866 C1865 1.415 . S
C1867 H1843 0.951 . S
C1867 C1868 1.366 . S
C1867 C1869 1.388 . S
C1868 C1867 1.366 . S
C1868 C1872 1.385 . S
C1869 H1844 0.951 . S
C1869 C1867 1.388 . S
C1869 C1870 1.366 . S
C1870 C1869 1.366 . S
C1870 C1871 1.414 . S
C1870 C1873 1.499 . S
C1871 H1845 0.950 . S
C1871 C1870 1.414 . S
C1871 C1872 1.374 . S
C1872 H1846 0.950 . S
C1872 C1868 1.385 . S
C1872 C1871 1.374 . S
C1873 C1870 1.499 . S
C1873 C1874 1.373 . S
C1873 C1875 1.389 . S
C1874 H1847 0.950 . S
C1874 C1860 1.377 . S
C1874 C1873 1.373 . S
C1875 C1859 1.377 . S
C1875 C1873 1.389 . S
C1875 C1876 1.524 . S
C1876 C1875 1.524 . S
C1876 C1877 1.397 . S
C1876 C1881 1.363 . S
C1877 H1848 0.950 . S
C1877 C1876 1.397 . S
C1877 C1878 1.334 . S
C1878 H1849 0.950 . S
C1878 C1877 1.334 . S
C1878 C1879 1.287 . S
C1879 C1878 1.287 . S
C1879 C1880 1.524 . S
C1879 H1882 0.999 . S
C1880 H1850 0.950 . S
C1880 C1879 1.524 . S
C1880 C1881 1.415 . S
C1881 H1851 0.950 . S
C1881 C1876 1.363 . S
C1881 C1880 1.415 . S
H1882 C1879 0.999 . S
H1883 C1864 0.913 . S
H1884 C1902 0.951 . S
H1885 C1904 0.951 . S
H1886 C1906 0.950 . S
H1887 C1907 0.950 . S
H1888 C1909 0.950 . S
H1889 C1912 0.950 . S
H1890 C1913 0.950 . S
H1891 C1915 0.950 . S
H1892 C1916 0.950 . S
H1893 C1917 0.951 . S
H1894 C1919 0.951 . S
H1895 C1921 0.950 . S
H1896 C1922 0.950 . S
H1897 C1924 0.950 . S
H1898 C1927 0.950 . S
H1899 C1928 0.950 . S
H1900 C1930 0.950 . S
H1901 C1931 0.950 . S
C1902 H1884 0.951 . S
C1902 C1903 1.366 1_556 S
C1902 C1904 1.388 . S
C1903 C1902 1.366 1_554 S
C1903 C1907 1.385 . S
C1904 H1885 0.951 . S
C1904 C1902 1.388 . S
C1904 C1905 1.366 . S
C1905 C1904 1.366 . S
C1905 C1906 1.414 1_556 S
C1905 C1908 1.499 . S
C1906 H1886 0.950 . S
C1906 C1905 1.414 1_554 S
C1906 C1907 1.374 . S
C1907 H1887 0.950 . S
C1907 C1903 1.385 . S
C1907 C1906 1.374 . S
C1908 C1905 1.499 . S
C1908 C1909 1.373 . S
C1908 C1910 1.389 1_455 S
C1909 H1888 0.950 . S
C1909 C1908 1.373 . S
C1909 C1925 1.377 . S
C1910 C1908 1.389 1_655 S
C1910 C1911 1.524 . S
C1910 C1924 1.377 . S
C1911 C1910 1.524 . S
C1911 C1912 1.397 . S
C1911 C1916 1.363 . S
C1912 H1889 0.950 . S
C1912 C1911 1.397 . S
C1912 C1913 1.334 . S
C1913 H1890 0.950 . S
C1913 C1912 1.334 . S
C1913 C1914 1.287 . S
C1914 C1913 1.287 . S
C1914 C1915 1.524 . S
C1914 H1933 0.913 . S
C1915 H1891 0.950 . S
C1915 C1914 1.524 . S
C1915 C1916 1.415 . S
C1916 H1892 0.950 . S
C1916 C1911 1.363 . S
C1916 C1915 1.415 . S
C1917 H1893 0.951 . S
C1917 C1918 1.368 1_655 S
C1917 C1919 1.388 1_655 S
C1918 C1917 1.368 1_455 S
C1918 C1922 1.362 . S
C1919 H1894 0.951 . S
C1919 C1917 1.388 1_455 S
C1919 C1920 1.366 . S
C1920 C1919 1.366 . S
C1920 C1921 1.414 . S
C1920 C1923 1.499 . S
C1921 H1895 0.950 . S
C1921 C1920 1.414 . S
C1921 C1922 1.374 . S
C1922 H1896 0.950 . S
C1922 C1918 1.362 . S
C1922 C1921 1.374 . S
C1923 C1920 1.499 . S
C1923 C1924 1.373 1_455 S
C1923 C1925 1.389 . S
C1924 H1897 0.950 . S
C1924 C1910 1.377 . S
C1924 C1923 1.373 1_655 S
C1925 C1909 1.377 . S
C1925 C1923 1.389 . S
C1925 C1926 1.524 . S
C1926 C1925 1.524 . S
C1926 C1927 1.397 . S
C1926 C1931 1.363 . S
C1927 H1898 0.950 . S
C1927 C1926 1.397 . S
C1927 C1928 1.334 . S
C1928 H1899 0.950 . S
C1928 C1927 1.334 . S
C1928 C1929 1.287 . S
C1929 C1928 1.287 . S
C1929 C1930 1.524 . S
C1929 H1932 0.999 . S
C1930 H1900 0.950 . S
C1930 C1929 1.524 . S
C1930 C1931 1.415 . S
C1931 H1901 0.950 . S
C1931 C1926 1.363 . S
C1931 C1930 1.415 . S
H1932 C1929 0.999 . S
H1933 C1914 0.913 . S
H1934 C1952 0.951 . S
H1935 C1954 0.951 . S
H1936 C1956 0.950 . S
H1937 C1957 0.950 . S
H1938 C1959 0.950 . S
H1939 C1962 0.950 . S
H1940 C1963 0.950 . S
H1941 C1965 0.950 . S
H1942 C1966 0.950 . S
H1943 C1967 0.951 . S
H1944 C1969 0.951 . S
H1945 C1971 0.950 . S
H1946 C1972 0.950 . S
H1947 C1974 0.950 . S
H1948 C1977 0.950 . S
H1949 C1978 0.950 . S
H1950 C1980 0.950 . S
H1951 C1981 0.950 . S
C1952 H1934 0.951 . S
C1952 C1953 1.366 . S
C1952 C1954 1.388 . S
C1953 C1952 1.366 . S
C1953 C1957 1.385 . S
C1954 H1935 0.951 . S
C1954 C1952 1.388 . S
C1954 C1955 1.366 . S
C1955 C1954 1.366 . S
C1955 C1956 1.414 . S
C1955 C1958 1.499 . S
C1956 H1936 0.950 . S
C1956 C1955 1.414 . S
C1956 C1957 1.374 . S
C1957 H1937 0.950 . S
C1957 C1953 1.385 . S
C1957 C1956 1.374 . S
C1958 C1955 1.499 . S
C1958 C1959 1.373 . S
C1958 C1960 1.389 . S
C1959 H1938 0.950 . S
C1959 C1958 1.373 . S
C1959 C1975 1.377 . S
C1960 C1958 1.389 . S
C1960 C1961 1.524 . S
C1960 C1974 1.377 . S
C1961 C1960 1.524 . S
C1961 C1962 1.397 . S
C1961 C1966 1.363 . S
C1962 H1939 0.950 . S
C1962 C1961 1.397 . S
C1962 C1963 1.334 . S
C1963 H1940 0.950 . S
C1963 C1962 1.334 . S
C1963 C1964 1.287 . S
C1964 C1963 1.287 . S
C1964 C1965 1.524 . S
C1964 H1983 0.913 1_556 S
C1965 H1941 0.950 . S
C1965 C1964 1.524 . S
C1965 C1966 1.415 . S
C1966 H1942 0.950 . S
C1966 C1961 1.363 . S
C1966 C1965 1.415 . S
C1967 H1943 0.951 . S
C1967 C1968 1.366 . S
C1967 C1969 1.388 . S
C1968 C1967 1.366 . S
C1968 C1972 1.385 . S
C1969 H1944 0.951 . S
C1969 C1967 1.388 . S
C1969 C1970 1.366 . S
C1970 C1969 1.366 . S
C1970 C1971 1.414 . S
C1970 C1973 1.499 . S
C1971 H1945 0.950 . S
C1971 C1970 1.414 . S
C1971 C1972 1.374 . S
C1972 H1946 0.950 . S
C1972 C1968 1.385 . S
C1972 C1971 1.374 . S
C1973 C1970 1.499 . S
C1973 C1974 1.373 . S
C1973 C1975 1.389 . S
C1974 H1947 0.950 . S
C1974 C1960 1.377 . S
C1974 C1973 1.373 . S
C1975 C1959 1.377 . S
C1975 C1973 1.389 . S
C1975 C1976 1.524 . S
C1976 C1975 1.524 . S
C1976 C1977 1.397 . S
C1976 C1981 1.363 . S
C1977 H1948 0.950 . S
C1977 C1976 1.397 . S
C1977 C1978 1.334 . S
C1978 H1949 0.950 . S
C1978 C1977 1.334 . S
C1978 C1979 1.287 . S
C1979 C1978 1.287 . S
C1979 C1980 1.524 . S
C1979 H1982 0.999 . S
C1980 H1950 0.950 . S
C1980 C1979 1.524 . S
C1980 C1981 1.415 . S
C1981 H1951 0.950 . S
C1981 C1976 1.363 . S
C1981 C1980 1.415 . S
H1982 C1979 0.999 . S
H1983 C1964 0.913 1_554 S
H1984 C2002 0.951 . S
H1985 C2004 0.951 . S
H1986 C2006 0.950 . S
H1987 C2007 0.950 . S
H1988 C2009 0.950 . S
H1989 C2012 0.969 . S
H1990 C2013 0.950 . S
H1991 C2015 0.950 . S
H1992 C2016 0.950 . S
H1993 C2017 0.951 . S
H1994 C2019 0.951 . S
H1995 C2021 0.950 . S
H1996 C2022 0.950 . S
H1997 C2024 0.950 . S
H1998 C2027 0.950 . S
H1999 C2028 0.950 . S
H2000 C2030 0.950 . S
H2001 C2031 0.950 . S
C2002 H1984 0.951 . S
C2002 C2003 1.366 . S
C2002 C2004 1.388 . S
C2003 C2002 1.366 . S
C2003 C2007 1.385 1_545 S
C2004 H1985 0.951 . S
C2004 C2002 1.388 . S
C2004 C2005 1.366 1_554 S
C2005 C2004 1.366 1_556 S
C2005 C2006 1.414 1_545 S
C2005 C2008 1.499 . S
C2006 H1986 0.950 . S
C2006 C2005 1.414 1_565 S
C2006 C2007 1.374 1_556 S
C2007 H1987 0.950 . S
C2007 C2003 1.385 1_565 S
C2007 C2006 1.374 1_554 S
C2008 C2005 1.499 . S
C2008 C2009 1.373 . S
C2008 C2010 1.389 . S
C2009 H1988 0.950 . S
C2009 C2008 1.373 . S
C2009 C2025 1.377 . S
C2010 C2008 1.389 . S
C2010 C2011 1.527 1_545 S
C2010 C2024 1.377 . S
C2011 C2010 1.527 1_565 S
C2011 C2012 1.455 . S
C2011 C2016 1.330 1_565 S
C2012 H1989 0.969 . S
C2012 C2011 1.455 . S
C2012 C2013 1.290 1_556 S
C2013 H1990 0.950 . S
C2013 C2012 1.290 1_554 S
C2013 C2014 1.287 . S
C2014 C2013 1.287 . S
C2014 C2015 1.524 1_565 S
C2014 H2033 0.913 . S
C2015 H1991 0.950 . S
C2015 C2014 1.524 1_545 S
C2015 C2016 1.415 1_554 S
C2016 H1992 0.950 . S
C2016 C2011 1.330 1_545 S
C2016 C2015 1.415 1_556 S
C2017 H1993 0.951 . S
C2017 C2018 1.366 1_565 S
C2017 C2019 1.388 . S
C2018 C2017 1.366 1_545 S
C2018 C2022 1.385 . S
C2019 H1994 0.951 . S
C2019 C2017 1.388 . S
C2019 C2020 1.366 1_565 S
C2020 C2019 1.366 1_545 S
C2020 C2021 1.414 . S
C2020 C2023 1.499 . S
C2021 H1995 0.950 . S
C2021 C2020 1.414 . S
C2021 C2022 1.374 . S
C2022 H1996 0.950 . S
C2022 C2018 1.385 . S
C2022 C2021 1.374 . S
C2023 C2020 1.499 . S
C2023 C2024 1.373 . S
C2023 C2025 1.389 . S
C2024 H1997 0.950 . S
C2024 C2010 1.377 . S
C2024 C2023 1.373 . S
C2025 C2009 1.377 . S
C2025 C2023 1.389 . S
C2025 C2026 1.524 . S
C2026 C2025 1.524 . S
C2026 C2027 1.397 . S
C2026 C2031 1.363 1_545 S
C2027 H1998 0.950 . S
C2027 C2026 1.397 . S
C2027 C2028 1.334 . S
C2028 H1999 0.950 . S
C2028 C2027 1.334 . S
C2028 C2029 1.287 . S
C2029 C2028 1.287 . S
C2029 C2030 1.524 1_545 S
C2029 H2032 0.999 . S
C2030 H2000 0.950 . S
C2030 C2029 1.524 1_565 S
C2030 C2031 1.415 . S
C2031 H2001 0.950 . S
C2031 C2026 1.363 1_565 S
C2031 C2030 1.415 . S
H2032 C2029 0.999 . S
H2033 C2014 0.913 . S
H2034 C2052 0.951 . S
H2035 C2054 0.951 . S
H2036 C2056 0.950 . S
H2037 C2057 0.950 . S
H2038 C2059 0.950 . S
H2039 C2062 0.950 . S
H2040 C2063 0.950 . S
H2041 C2065 0.950 . S
H2042 C2066 0.950 . S
H2043 C2067 0.951 . S
H2044 C2069 0.951 . S
H2045 C2071 0.950 . S
H2046 C2072 0.968 1_565 S
H2047 C2074 0.950 . S
H2048 C2077 0.950 . S
H2049 C2078 0.950 . S
H2050 C2080 0.950 . S
H2051 C2081 0.950 . S
C2052 H2034 0.951 . S
C2052 C2053 1.366 . S
C2052 C2054 1.388 . S
C2053 C2052 1.366 . S
C2053 C2057 1.385 . S
C2054 H2035 0.951 . S
C2054 C2052 1.388 . S
C2054 C2055 1.366 . S
C2055 C2054 1.366 . S
C2055 C2056 1.414 . S
C2055 C2058 1.499 . S
C2056 H2036 0.950 . S
C2056 C2055 1.414 . S
C2056 C2057 1.374 . S
C2057 H2037 0.950 . S
C2057 C2053 1.385 . S
C2057 C2056 1.374 . S
C2058 C2055 1.499 . S
C2058 C2059 1.373 . S
C2058 C2060 1.389 . S
C2059 H2038 0.950 . S
C2059 C2058 1.373 . S
C2059 C2075 1.377 . S
C2060 C2058 1.389 . S
C2060 C2061 1.524 . S
C2060 C2074 1.377 . S
C2061 C2060 1.524 . S
C2061 C2062 1.397 . S
C2061 C2066 1.363 . S
C2062 H2039 0.950 . S
C2062 C2061 1.397 . S
C2062 C2063 1.334 . S
C2063 H2040 0.950 . S
C2063 C2062 1.334 . S
C2063 C2064 1.287 . S
C2064 C2063 1.287 . S
C2064 C2065 1.524 . S
C2064 H2083 0.913 . S
C2065 H2041 0.950 . S
C2065 C2064 1.524 . S
C2065 C2066 1.415 . S
C2066 H2042 0.950 . S
C2066 C2061 1.363 . S
C2066 C2065 1.415 . S
C2067 H2043 0.951 . S
C2067 C2068 1.366 . S
C2067 C2069 1.388 . S
C2068 C2067 1.366 . S
C2068 C2072 1.376 . S
C2069 H2044 0.951 . S
C2069 C2067 1.388 . S
C2069 C2070 1.366 . S
C2070 C2069 1.366 . S
C2070 C2071 1.414 . S
C2070 C2073 1.499 . S
C2071 H2045 0.950 . S
C2071 C2070 1.414 . S
C2071 C2072 1.367 . S
C2072 H2046 0.968 1_545 S
C2072 C2068 1.376 . S
C2072 C2071 1.367 . S
C2073 C2070 1.499 . S
C2073 C2074 1.373 . S
C2073 C2075 1.389 . S
C2074 H2047 0.950 . S
C2074 C2060 1.377 . S
C2074 C2073 1.373 . S
C2075 C2059 1.377 . S
C2075 C2073 1.389 . S
C2075 C2076 1.524 1_545 S
C2076 C2075 1.524 1_565 S
C2076 C2077 1.397 . S
C2076 C2081 1.363 . S
C2077 H2048 0.950 . S
C2077 C2076 1.397 . S
C2077 C2078 1.334 . S
C2078 H2049 0.950 . S
C2078 C2077 1.334 . S
C2078 C2079 1.287 . S
C2079 C2078 1.287 . S
C2079 C2080 1.524 . S
C2079 H2082 0.999 . S
C2080 H2050 0.950 . S
C2080 C2079 1.524 . S
C2080 C2081 1.415 . S
C2081 H2051 0.950 . S
C2081 C2076 1.363 . S
C2081 C2080 1.415 . S
H2082 C2079 0.999 . S
H2083 C2064 0.913 . S
H2084 C2102 0.963 1_455 S
H2085 C2104 0.951 1_455 S
H2086 C2106 0.950 . S
H2087 C2107 0.950 . S
H2088 C2109 0.950 . S
H2089 C2112 0.950 . S
H2090 C2113 0.950 . S
H2091 C2115 0.950 . S
H2092 C2116 0.950 . S
H2093 C2117 0.951 . S
H2094 C2119 0.951 . S
H2095 C2121 0.950 . S
H2096 C2122 0.950 . S
H2097 C2124 0.950 . S
H2098 C2127 0.950 . S
H2099 C2128 0.950 . S
H2100 C2130 0.950 . S
H2101 C2131 0.950 . S
C2102 H2084 0.963 1_655 S
C2102 C2103 1.366 . S
C2102 C2104 1.388 . S
C2103 C2102 1.366 . S
C2103 C2107 1.385 . S
C2104 H2085 0.951 1_655 S
C2104 C2102 1.388 . S
C2104 C2105 1.366 . S
C2105 C2104 1.366 . S
C2105 C2106 1.414 . S
C2105 C2108 1.499 . S
C2106 H2086 0.950 . S
C2106 C2105 1.414 . S
C2106 C2107 1.374 . S
C2107 H2087 0.950 . S
C2107 C2103 1.385 . S
C2107 C2106 1.374 . S
C2108 C2105 1.499 . S
C2108 C2109 1.373 . S
C2108 C2110 1.389 1_655 S
C2109 H2088 0.950 . S
C2109 C2108 1.373 . S
C2109 C2125 1.377 . S
C2110 C2108 1.389 1_455 S
C2110 C2111 1.524 . S
C2110 C2124 1.377 . S
C2111 C2110 1.524 . S
C2111 C2112 1.397 . S
C2111 C2116 1.363 . S
C2112 H2089 0.950 . S
C2112 C2111 1.397 . S
C2112 C2113 1.334 . S
C2113 H2090 0.950 . S
C2113 C2112 1.334 . S
C2113 C2114 1.287 . S
C2114 C2113 1.287 . S
C2114 C2115 1.524 . S
C2114 H2133 0.913 . S
C2115 H2091 0.950 . S
C2115 C2114 1.524 . S
C2115 C2116 1.415 . S
C2116 H2092 0.950 . S
C2116 C2111 1.363 . S
C2116 C2115 1.415 . S
C2117 H2093 0.951 . S
C2117 C2118 1.364 1_655 S
C2117 C2119 1.388 . S
C2118 C2117 1.364 1_455 S
C2118 C2122 1.383 . S
C2119 H2094 0.951 . S
C2119 C2117 1.388 . S
C2119 C2120 1.366 . S
C2120 C2119 1.366 . S
C2120 C2121 1.414 1_655 S
C2120 C2123 1.499 . S
C2121 H2095 0.950 . S
C2121 C2120 1.414 1_455 S
C2121 C2122 1.374 . S
C2122 H2096 0.950 . S
C2122 C2118 1.383 . S
C2122 C2121 1.374 . S
C2123 C2120 1.499 . S
C2123 C2124 1.373 1_655 S
C2123 C2125 1.389 . S
C2124 H2097 0.950 . S
C2124 C2110 1.377 . S
C2124 C2123 1.373 1_455 S
C2125 C2109 1.377 . S
C2125 C2123 1.389 . S
C2125 C2126 1.524 . S
C2126 C2125 1.524 . S
C2126 C2127 1.397 . S
C2126 C2131 1.363 . S
C2127 H2098 0.950 . S
C2127 C2126 1.397 . S
C2127 C2128 1.334 . S
C2128 H2099 0.950 . S
C2128 C2127 1.334 . S
C2128 C2129 1.287 . S
C2129 C2128 1.287 . S
C2129 C2130 1.524 . S
C2129 H2132 0.999 . S
C2130 H2100 0.950 . S
C2130 C2129 1.524 . S
C2130 C2131 1.415 . S
C2131 H2101 0.950 . S
C2131 C2126 1.363 . S
C2131 C2130 1.415 . S
H2132 C2129 0.999 . S
H2133 C2114 0.913 . S
H2134 C2152 0.951 . S
H2135 C2154 0.951 . S
H2136 C2156 0.950 . S
H2137 C2157 0.950 . S
H2138 C2159 0.950 . S
H2139 C2162 0.950 . S
H2140 C2163 0.950 . S
H2141 C2165 0.950 . S
H2142 C2166 0.950 . S
H2143 C2167 0.951 . S
H2144 C2169 0.951 . S
H2145 C2171 0.950 . S
H2146 C2172 0.950 . S
H2147 C2174 0.950 . S
H2148 C2177 0.950 . S
H2149 C2178 0.950 . S
H2150 C2180 0.950 . S
H2151 C2181 0.950 . S
C2152 H2134 0.951 . S
C2152 C2153 1.366 . S
C2152 C2154 1.388 . S
C2153 C2152 1.366 . S
C2153 C2157 1.385 . S
C2154 H2135 0.951 . S
C2154 C2152 1.388 . S
C2154 C2155 1.366 . S
C2155 C2154 1.366 . S
C2155 C2156 1.414 . S
C2155 C2158 1.499 . S
C2156 H2136 0.950 . S
C2156 C2155 1.414 . S
C2156 C2157 1.374 . S
C2157 H2137 0.950 . S
C2157 C2153 1.385 . S
C2157 C2156 1.374 . S
C2158 C2155 1.499 . S
C2158 C2159 1.373 . S
C2158 C2160 1.389 . S
C2159 H2138 0.950 . S
C2159 C2158 1.373 . S
C2159 C2175 1.377 . S
C2160 C2158 1.389 . S
C2160 C2161 1.524 . S
C2160 C2174 1.377 . S
C2161 C2160 1.524 . S
C2161 C2162 1.397 . S
C2161 C2166 1.363 . S
C2162 H2139 0.950 . S
C2162 C2161 1.397 . S
C2162 C2163 1.334 . S
C2163 H2140 0.950 . S
C2163 C2162 1.334 . S
C2163 C2164 1.287 . S
C2164 C2163 1.287 . S
C2164 C2165 1.524 . S
C2164 H2183 0.913 . S
C2165 H2141 0.950 . S
C2165 C2164 1.524 . S
C2165 C2166 1.415 . S
C2166 H2142 0.950 . S
C2166 C2161 1.363 . S
C2166 C2165 1.415 . S
C2167 H2143 0.951 . S
C2167 C2168 1.366 . S
C2167 C2169 1.388 . S
C2168 C2167 1.366 . S
C2168 C2172 1.385 . S
C2169 H2144 0.951 . S
C2169 C2167 1.388 . S
C2169 C2170 1.366 . S
C2170 C2169 1.366 . S
C2170 C2171 1.414 . S
C2170 C2173 1.499 . S
C2171 H2145 0.950 . S
C2171 C2170 1.414 . S
C2171 C2172 1.374 . S
C2172 H2146 0.950 . S
C2172 C2168 1.385 . S
C2172 C2171 1.374 . S
C2173 C2170 1.499 . S
C2173 C2174 1.373 . S
C2173 C2175 1.389 . S
C2174 H2147 0.950 . S
C2174 C2160 1.377 . S
C2174 C2173 1.373 . S
C2175 C2159 1.377 . S
C2175 C2173 1.389 . S
C2175 C2176 1.524 . S
C2176 C2175 1.524 . S
C2176 C2177 1.397 . S
C2176 C2181 1.363 . S
C2177 H2148 0.950 . S
C2177 C2176 1.397 . S
C2177 C2178 1.334 . S
C2178 H2149 0.950 . S
C2178 C2177 1.334 . S
C2178 C2179 1.287 . S
C2179 C2178 1.287 . S
C2179 C2180 1.524 . S
C2179 H2182 0.999 . S
C2180 H2150 0.950 . S
C2180 C2179 1.524 . S
C2180 C2181 1.415 . S
C2181 H2151 0.950 . S
C2181 C2176 1.363 . S
C2181 C2180 1.415 . S
H2182 C2179 0.999 . S
H2183 C2164 0.913 . S
H2184 C2202 0.951 . S
H2185 C2204 0.951 . S
H2186 C2206 0.950 . S
H2187 C2207 0.950 . S
H2188 C2209 0.950 . S
H2189 C2212 0.950 . S
H2190 C2213 0.950 . S
H2191 C2215 0.950 . S
H2192 C2216 0.950 . S
H2193 C2217 0.951 . S
H2194 C2219 0.951 . S
H2195 C2221 0.950 . S
H2196 C2222 0.950 . S
H2197 C2224 0.950 . S
H2198 C2227 0.950 . S
H2199 C2228 0.950 . S
H2200 C2230 0.950 . S
H2201 C2231 0.950 . S
C2202 H2184 0.951 . S
C2202 C2203 1.366 . S
C2202 C2204 1.388 . S
C2203 C2202 1.366 . S
C2203 C2207 1.385 . S
C2204 H2185 0.951 . S
C2204 C2202 1.388 . S
C2204 C2205 1.366 . S
C2205 C2204 1.366 . S
C2205 C2206 1.414 . S
C2205 C2208 1.499 . S
C2206 H2186 0.950 . S
C2206 C2205 1.414 . S
C2206 C2207 1.374 . S
C2207 H2187 0.950 . S
C2207 C2203 1.385 . S
C2207 C2206 1.374 . S
C2208 C2205 1.499 . S
C2208 C2209 1.373 . S
C2208 C2210 1.389 . S
C2209 H2188 0.950 . S
C2209 C2208 1.373 . S
C2209 C2225 1.377 . S
C2210 C2208 1.389 . S
C2210 C2211 1.524 . S
C2210 C2224 1.377 . S
C2211 C2210 1.524 . S
C2211 C2212 1.397 . S
C2211 C2216 1.363 . S
C2212 H2189 0.950 . S
C2212 C2211 1.397 . S
C2212 C2213 1.334 . S
C2213 H2190 0.950 . S
C2213 C2212 1.334 . S
C2213 C2214 1.287 . S
C2214 C2213 1.287 . S
C2214 C2215 1.524 . S
C2214 H2233 0.913 . S
C2215 H2191 0.950 . S
C2215 C2214 1.524 . S
C2215 C2216 1.415 . S
C2216 H2192 0.950 . S
C2216 C2211 1.363 . S
C2216 C2215 1.415 . S
C2217 H2193 0.951 . S
C2217 C2218 1.366 . S
C2217 C2219 1.388 . S
C2218 C2217 1.366 . S
C2218 C2222 1.385 . S
C2219 H2194 0.951 . S
C2219 C2217 1.388 . S
C2219 C2220 1.366 . S
C2220 C2219 1.366 . S
C2220 C2221 1.414 . S
C2220 C2223 1.499 . S
C2221 H2195 0.950 . S
C2221 C2220 1.414 . S
C2221 C2222 1.374 . S
C2222 H2196 0.950 . S
C2222 C2218 1.385 . S
C2222 C2221 1.374 . S
C2223 C2220 1.499 . S
C2223 C2224 1.373 . S
C2223 C2225 1.389 . S
C2224 H2197 0.950 . S
C2224 C2210 1.377 . S
C2224 C2223 1.373 . S
C2225 C2209 1.377 . S
C2225 C2223 1.389 . S
C2225 C2226 1.524 . S
C2226 C2225 1.524 . S
C2226 C2227 1.397 . S
C2226 C2231 1.363 . S
C2227 H2198 0.950 . S
C2227 C2226 1.397 . S
C2227 C2228 1.334 . S
C2228 H2199 0.950 . S
C2228 C2227 1.334 . S
C2228 C2229 1.287 . S
C2229 C2228 1.287 . S
C2229 C2230 1.524 . S
C2229 H2232 0.999 . S
C2230 H2200 0.950 . S
C2230 C2229 1.524 . S
C2230 C2231 1.415 . S
C2231 H2201 0.950 . S
C2231 C2226 1.363 . S
C2231 C2230 1.415 . S
H2232 C2229 0.999 . S
H2233 C2214 0.913 . S
H2234 C2252 0.951 . S
H2235 C2254 0.951 . S
H2236 C2256 0.950 . S
H2237 C2257 0.950 . S
H2238 C2259 0.950 . S
H2239 C2262 0.950 . S
H2240 C2263 0.950 . S
H2241 C2265 0.950 . S
H2242 C2266 0.950 . S
H2243 C2267 0.951 . S
H2244 C2269 0.951 . S
H2245 C2271 0.950 . S
H2246 C2272 0.950 . S
H2247 C2274 0.950 . S
H2248 C2277 0.950 . S
H2249 C2278 0.950 . S
H2250 C2280 0.950 . S
H2251 C2281 0.950 . S
C2252 H2234 0.951 . S
C2252 C2253 1.366 . S
C2252 C2254 1.388 . S
C2253 C2252 1.366 . S
C2253 C2257 1.385 . S
C2254 H2235 0.951 . S
C2254 C2252 1.388 . S
C2254 C2255 1.366 . S
C2255 C2254 1.366 . S
C2255 C2256 1.414 . S
C2255 C2258 1.499 . S
C2256 H2236 0.950 . S
C2256 C2255 1.414 . S
C2256 C2257 1.374 . S
C2257 H2237 0.950 . S
C2257 C2253 1.385 . S
C2257 C2256 1.374 . S
C2258 C2255 1.499 . S
C2258 C2259 1.373 . S
C2258 C2260 1.389 . S
C2259 H2238 0.950 . S
C2259 C2258 1.373 . S
C2259 C2275 1.377 . S
C2260 C2258 1.389 . S
C2260 C2261 1.524 . S
C2260 C2274 1.377 . S
C2261 C2260 1.524 . S
C2261 C2262 1.397 . S
C2261 C2266 1.363 . S
C2262 H2239 0.950 . S
C2262 C2261 1.397 . S
C2262 C2263 1.334 . S
C2263 H2240 0.950 . S
C2263 C2262 1.334 . S
C2263 C2264 1.287 . S
C2264 C2263 1.287 . S
C2264 C2265 1.524 . S
C2264 H2283 0.913 . S
C2265 H2241 0.950 . S
C2265 C2264 1.524 . S
C2265 C2266 1.415 . S
C2266 H2242 0.950 . S
C2266 C2261 1.363 . S
C2266 C2265 1.415 . S
C2267 H2243 0.951 . S
C2267 C2268 1.366 . S
C2267 C2269 1.388 . S
C2268 C2267 1.366 . S
C2268 C2272 1.385 . S
C2269 H2244 0.951 . S
C2269 C2267 1.388 . S
C2269 C2270 1.366 . S
C2270 C2269 1.366 . S
C2270 C2271 1.414 . S
C2270 C2273 1.499 . S
C2271 H2245 0.950 . S
C2271 C2270 1.414 . S
C2271 C2272 1.374 . S
C2272 H2246 0.950 . S
C2272 C2268 1.385 . S
C2272 C2271 1.374 . S
C2273 C2270 1.499 . S
C2273 C2274 1.373 . S
C2273 C2275 1.389 . S
C2274 H2247 0.950 . S
C2274 C2260 1.377 . S
C2274 C2273 1.373 . S
C2275 C2259 1.377 . S
C2275 C2273 1.389 . S
C2275 C2276 1.524 . S
C2276 C2275 1.524 . S
C2276 C2277 1.397 . S
C2276 C2281 1.363 . S
C2277 H2248 0.950 . S
C2277 C2276 1.397 . S
C2277 C2278 1.334 . S
C2278 H2249 0.950 . S
C2278 C2277 1.334 . S
C2278 C2279 1.287 . S
C2279 C2278 1.287 . S
C2279 C2280 1.524 . S
C2279 H2282 0.999 . S
C2280 H2250 0.950 . S
C2280 C2279 1.524 . S
C2280 C2281 1.415 . S
C2281 H2251 0.950 . S
C2281 C2276 1.363 . S
C2281 C2280 1.415 . S
H2282 C2279 0.999 . S
H2283 C2264 0.913 . S
H2284 C2302 0.951 . S
H2285 C2304 0.951 . S
H2286 C2306 0.950 . S
H2287 C2307 0.950 . S
H2288 C2309 0.950 . S
H2289 C2312 0.950 . S
H2290 C2313 0.950 . S
H2291 C2315 0.950 . S
H2292 C2316 0.950 . S
H2293 C2317 0.951 . S
H2294 C2319 0.951 . S
H2295 C2321 0.950 . S
H2296 C2322 0.950 . S
H2297 C2324 0.950 . S
H2298 C2327 0.950 . S
H2299 C2328 0.950 . S
H2300 C2330 0.950 . S
H2301 C2331 0.950 . S
C2302 H2284 0.951 . S
C2302 C2303 1.366 . S
C2302 C2304 1.388 . S
C2303 C2302 1.366 . S
C2303 C2307 1.385 . S
C2304 H2285 0.951 . S
C2304 C2302 1.388 . S
C2304 C2305 1.366 . S
C2305 C2304 1.366 . S
C2305 C2306 1.414 . S
C2305 C2308 1.499 . S
C2306 H2286 0.950 . S
C2306 C2305 1.414 . S
C2306 C2307 1.374 . S
C2307 H2287 0.950 . S
C2307 C2303 1.385 . S
C2307 C2306 1.374 . S
C2308 C2305 1.499 . S
C2308 C2309 1.373 . S
C2308 C2310 1.389 . S
C2309 H2288 0.950 . S
C2309 C2308 1.373 . S
C2309 C2325 1.377 . S
C2310 C2308 1.389 . S
C2310 C2311 1.524 . S
C2310 C2324 1.377 . S
C2311 C2310 1.524 . S
C2311 C2312 1.397 . S
C2311 C2316 1.363 . S
C2312 H2289 0.950 . S
C2312 C2311 1.397 . S
C2312 C2313 1.334 . S
C2313 H2290 0.950 . S
C2313 C2312 1.334 . S
C2313 C2314 1.287 . S
C2314 C2313 1.287 . S
C2314 C2315 1.524 . S
C2314 H2333 0.913 . S
C2315 H2291 0.950 . S
C2315 C2314 1.524 . S
C2315 C2316 1.415 . S
C2316 H2292 0.950 . S
C2316 C2311 1.363 . S
C2316 C2315 1.415 . S
C2317 H2293 0.951 . S
C2317 C2318 1.366 . S
C2317 C2319 1.388 . S
C2318 C2317 1.366 . S
C2318 C2322 1.385 . S
C2319 H2294 0.951 . S
C2319 C2317 1.388 . S
C2319 C2320 1.366 . S
C2320 C2319 1.366 . S
C2320 C2321 1.414 . S
C2320 C2323 1.499 . S
C2321 H2295 0.950 . S
C2321 C2320 1.414 . S
C2321 C2322 1.374 . S
C2322 H2296 0.950 . S
C2322 C2318 1.385 . S
C2322 C2321 1.374 . S
C2323 C2320 1.499 . S
C2323 C2324 1.373 . S
C2323 C2325 1.389 . S
C2324 H2297 0.950 . S
C2324 C2310 1.377 . S
C2324 C2323 1.373 . S
C2325 C2309 1.377 . S
C2325 C2323 1.389 . S
C2325 C2326 1.524 . S
C2326 C2325 1.524 . S
C2326 C2327 1.397 . S
C2326 C2331 1.363 . S
C2327 H2298 0.950 . S
C2327 C2326 1.397 . S
C2327 C2328 1.334 . S
C2328 H2299 0.950 . S
C2328 C2327 1.334 . S
C2328 C2329 1.287 . S
C2329 C2328 1.287 . S
C2329 C2330 1.524 . S
C2329 H2332 0.999 . S
C2330 H2300 0.950 . S
C2330 C2329 1.524 . S
C2330 C2331 1.415 . S
C2331 H2301 0.950 . S
C2331 C2326 1.363 . S
C2331 C2330 1.415 . S
H2332 C2329 0.999 . S
H2333 C2314 0.913 . S
H2334 C2352 0.951 . S
H2335 C2354 0.951 . S
H2336 C2356 0.950 . S
H2337 C2357 0.950 . S
H2338 C2359 0.950 . S
H2339 C2362 0.950 . S
H2340 C2363 0.950 . S
H2341 C2365 0.950 . S
H2342 C2366 0.950 . S
H2343 C2367 0.951 . S
H2344 C2369 0.951 . S
H2345 C2371 0.950 . S
H2346 C2372 0.950 . S
H2347 C2374 0.950 . S
H2348 C2377 0.950 . S
H2349 C2378 0.950 . S
H2350 C2380 0.950 . S
H2351 C2381 0.950 . S
C2352 H2334 0.951 . S
C2352 C2353 1.366 . S
C2352 C2354 1.388 . S
C2353 C2352 1.366 . S
C2353 C2357 1.385 . S
C2354 H2335 0.951 . S
C2354 C2352 1.388 . S
C2354 C2355 1.366 . S
C2355 C2354 1.366 . S
C2355 C2356 1.414 . S
C2355 C2358 1.499 . S
C2356 H2336 0.950 . S
C2356 C2355 1.414 . S
C2356 C2357 1.374 . S
C2357 H2337 0.950 . S
C2357 C2353 1.385 . S
C2357 C2356 1.374 . S
C2358 C2355 1.499 . S
C2358 C2359 1.373 . S
C2358 C2360 1.389 . S
C2359 H2338 0.950 . S
C2359 C2358 1.373 . S
C2359 C2375 1.377 . S
C2360 C2358 1.389 . S
C2360 C2361 1.524 . S
C2360 C2374 1.377 . S
C2361 C2360 1.524 . S
C2361 C2362 1.397 . S
C2361 C2366 1.363 . S
C2362 H2339 0.950 . S
C2362 C2361 1.397 . S
C2362 C2363 1.334 . S
C2363 H2340 0.950 . S
C2363 C2362 1.334 . S
C2363 C2364 1.287 . S
C2364 C2363 1.287 . S
C2364 C2365 1.524 . S
C2364 H2383 0.913 . S
C2365 H2341 0.950 . S
C2365 C2364 1.524 . S
C2365 C2366 1.415 . S
C2366 H2342 0.950 . S
C2366 C2361 1.363 . S
C2366 C2365 1.415 . S
C2367 H2343 0.951 . S
C2367 C2368 1.366 . S
C2367 C2369 1.388 . S
C2368 C2367 1.366 . S
C2368 C2372 1.385 . S
C2369 H2344 0.951 . S
C2369 C2367 1.388 . S
C2369 C2370 1.366 . S
C2370 C2369 1.366 . S
C2370 C2371 1.414 . S
C2370 C2373 1.499 . S
C2371 H2345 0.950 . S
C2371 C2370 1.414 . S
C2371 C2372 1.374 . S
C2372 H2346 0.950 . S
C2372 C2368 1.385 . S
C2372 C2371 1.374 . S
C2373 C2370 1.499 . S
C2373 C2374 1.373 . S
C2373 C2375 1.389 . S
C2374 H2347 0.950 . S
C2374 C2360 1.377 . S
C2374 C2373 1.373 . S
C2375 C2359 1.377 . S
C2375 C2373 1.389 . S
C2375 C2376 1.524 . S
C2376 C2375 1.524 . S
C2376 C2377 1.397 . S
C2376 C2381 1.363 . S
C2377 H2348 0.950 . S
C2377 C2376 1.397 . S
C2377 C2378 1.334 . S
C2378 H2349 0.950 . S
C2378 C2377 1.334 . S
C2378 C2379 1.287 . S
C2379 C2378 1.287 . S
C2379 C2380 1.524 . S
C2379 H2382 0.999 . S
C2380 H2350 0.950 . S
C2380 C2379 1.524 . S
C2380 C2381 1.415 . S
C2381 H2351 0.950 . S
C2381 C2376 1.363 . S
C2381 C2380 1.415 . S
H2382 C2379 0.999 . S
H2383 C2364 0.913 . S
H2384 C2402 0.951 . S
H2385 C2404 0.951 . S
H2386 C2406 0.950 . S
H2387 C2407 0.950 . S
H2388 C2409 0.950 . S
H2389 C2412 0.950 . S
H2390 C2413 0.950 . S
H2391 C2415 0.950 . S
H2392 C2416 0.950 . S
H2393 C2417 0.951 . S
H2394 C2419 0.951 . S
H2395 C2421 0.950 . S
H2396 C2422 0.950 . S
H2397 C2424 0.950 . S
H2398 C2427 0.950 . S
H2399 C2428 0.950 . S
H2400 C2430 0.950 . S
H2401 C2431 0.950 . S
C2402 H2384 0.951 . S
C2402 C2403 1.366 . S
C2402 C2404 1.388 . S
C2403 C2402 1.366 . S
C2403 C2407 1.385 . S
C2404 H2385 0.951 . S
C2404 C2402 1.388 . S
C2404 C2405 1.366 . S
C2405 C2404 1.366 . S
C2405 C2406 1.414 . S
C2405 C2408 1.499 . S
C2406 H2386 0.950 . S
C2406 C2405 1.414 . S
C2406 C2407 1.374 . S
C2407 H2387 0.950 . S
C2407 C2403 1.385 . S
C2407 C2406 1.374 . S
C2408 C2405 1.499 . S
C2408 C2409 1.373 . S
C2408 C2410 1.389 . S
C2409 H2388 0.950 . S
C2409 C2408 1.373 . S
C2409 C2425 1.377 . S
C2410 C2408 1.389 . S
C2410 C2411 1.524 . S
C2410 C2424 1.377 . S
C2411 C2410 1.524 . S
C2411 C2412 1.397 . S
C2411 C2416 1.363 . S
C2412 H2389 0.950 . S
C2412 C2411 1.397 . S
C2412 C2413 1.334 . S
C2413 H2390 0.950 . S
C2413 C2412 1.334 . S
C2413 C2414 1.287 . S
C2414 C2413 1.287 . S
C2414 C2415 1.524 . S
C2414 H2433 0.913 . S
C2415 H2391 0.950 . S
C2415 C2414 1.524 . S
C2415 C2416 1.415 . S
C2416 H2392 0.950 . S
C2416 C2411 1.363 . S
C2416 C2415 1.415 . S
C2417 H2393 0.951 . S
C2417 C2418 1.366 . S
C2417 C2419 1.388 . S
C2418 C2417 1.366 . S
C2418 C2422 1.385 . S
C2419 H2394 0.951 . S
C2419 C2417 1.388 . S
C2419 C2420 1.366 . S
C2420 C2419 1.366 . S
C2420 C2421 1.414 . S
C2420 C2423 1.499 . S
C2421 H2395 0.950 . S
C2421 C2420 1.414 . S
C2421 C2422 1.374 . S
C2422 H2396 0.950 . S
C2422 C2418 1.385 . S
C2422 C2421 1.374 . S
C2423 C2420 1.499 . S
C2423 C2424 1.373 . S
C2423 C2425 1.389 . S
C2424 H2397 0.950 . S
C2424 C2410 1.377 . S
C2424 C2423 1.373 . S
C2425 C2409 1.377 . S
C2425 C2423 1.389 . S
C2425 C2426 1.524 . S
C2426 C2425 1.524 . S
C2426 C2427 1.397 . S
C2426 C2431 1.363 . S
C2427 H2398 0.950 . S
C2427 C2426 1.397 . S
C2427 C2428 1.334 . S
C2428 H2399 0.950 . S
C2428 C2427 1.334 . S
C2428 C2429 1.287 . S
C2429 C2428 1.287 . S
C2429 C2430 1.524 . S
C2429 H2432 0.999 . S
C2430 H2400 0.950 . S
C2430 C2429 1.524 . S
C2430 C2431 1.415 . S
C2431 H2401 0.950 . S
C2431 C2426 1.363 . S
C2431 C2430 1.415 . S
H2432 C2429 0.999 . S
H2433 C2414 0.913 . S
H2434 C2452 0.951 . S
H2435 C2454 0.951 . S
H2436 C2456 0.950 . S
H2437 C2457 0.950 . S
H2438 C2459 0.950 . S
H2439 C2462 0.950 . S
H2440 C2463 0.950 . S
H2441 C2465 0.950 . S
H2442 C2466 0.950 . S
H2443 C2467 0.951 . S
H2444 C2469 0.951 . S
H2445 C2471 0.950 . S
H2446 C2472 0.950 . S
H2447 C2474 0.950 . S
H2448 C2477 0.950 . S
H2449 C2478 0.950 . S
H2450 C2480 0.950 . S
H2451 C2481 0.950 . S
C2452 H2434 0.951 . S
C2452 C2453 1.366 . S
C2452 C2454 1.388 . S
C2453 C2452 1.366 . S
C2453 C2457 1.385 . S
C2454 H2435 0.951 . S
C2454 C2452 1.388 . S
C2454 C2455 1.366 . S
C2455 C2454 1.366 . S
C2455 C2456 1.414 . S
C2455 C2458 1.499 . S
C2456 H2436 0.950 . S
C2456 C2455 1.414 . S
C2456 C2457 1.374 . S
C2457 H2437 0.950 . S
C2457 C2453 1.385 . S
C2457 C2456 1.374 . S
C2458 C2455 1.499 . S
C2458 C2459 1.373 . S
C2458 C2460 1.389 . S
C2459 H2438 0.950 . S
C2459 C2458 1.373 . S
C2459 C2475 1.377 . S
C2460 C2458 1.389 . S
C2460 C2461 1.524 . S
C2460 C2474 1.377 . S
C2461 C2460 1.524 . S
C2461 C2462 1.397 . S
C2461 C2466 1.363 . S
C2462 H2439 0.950 . S
C2462 C2461 1.397 . S
C2462 C2463 1.334 . S
C2463 H2440 0.950 . S
C2463 C2462 1.334 . S
C2463 C2464 1.287 . S
C2464 C2463 1.287 . S
C2464 C2465 1.524 . S
C2464 H2483 0.913 . S
C2465 H2441 0.950 . S
C2465 C2464 1.524 . S
C2465 C2466 1.415 . S
C2466 H2442 0.950 . S
C2466 C2461 1.363 . S
C2466 C2465 1.415 . S
C2467 H2443 0.951 . S
C2467 C2468 1.366 . S
C2467 C2469 1.388 . S
C2468 C2467 1.366 . S
C2468 C2472 1.385 . S
C2469 H2444 0.951 . S
C2469 C2467 1.388 . S
C2469 C2470 1.366 . S
C2470 C2469 1.366 . S
C2470 C2471 1.414 . S
C2470 C2473 1.499 . S
C2471 H2445 0.950 . S
C2471 C2470 1.414 . S
C2471 C2472 1.374 . S
C2472 H2446 0.950 . S
C2472 C2468 1.385 . S
C2472 C2471 1.374 . S
C2473 C2470 1.499 . S
C2473 C2474 1.373 . S
C2473 C2475 1.389 . S
C2474 H2447 0.950 . S
C2474 C2460 1.377 . S
C2474 C2473 1.373 . S
C2475 C2459 1.377 . S
C2475 C2473 1.389 . S
C2475 C2476 1.524 . S
C2476 C2475 1.524 . S
C2476 C2477 1.397 . S
C2476 C2481 1.363 . S
C2477 H2448 0.950 . S
C2477 C2476 1.397 . S
C2477 C2478 1.334 . S
C2478 H2449 0.950 . S
C2478 C2477 1.334 . S
C2478 C2479 1.287 . S
C2479 C2478 1.287 . S
C2479 C2480 1.524 . S
C2479 H2482 0.999 . S
C2480 H2450 0.950 . S
C2480 C2479 1.524 . S
C2480 C2481 1.415 . S
C2481 H2451 0.950 . S
C2481 C2476 1.363 . S
C2481 C2480 1.415 . S
H2482 C2479 0.999 . S
H2483 C2464 0.913 . S
H2484 C2502 0.951 . S
H2485 C2504 0.951 . S
H2486 C2506 0.950 . S
H2487 C2507 0.950 . S
H2488 C2509 0.950 . S
H2489 C2512 0.950 . S
H2490 C2513 0.950 . S
H2491 C2515 0.950 . S
H2492 C2516 0.950 . S
H2493 C2517 0.951 . S
H2494 C2519 0.951 . S
H2495 C2521 0.950 . S
H2496 C2522 0.950 . S
H2497 C2524 0.950 . S
H2498 C2527 0.950 . S
H2499 C2528 0.950 . S
H2500 C2530 0.950 . S
H2501 C2531 0.950 . S
C2502 H2484 0.951 . S
C2502 C2503 1.366 . S
C2502 C2504 1.388 . S
C2503 C2502 1.366 . S
C2503 C2507 1.385 . S
C2504 H2485 0.951 . S
C2504 C2502 1.388 . S
C2504 C2505 1.366 . S
C2505 C2504 1.366 . S
C2505 C2506 1.414 . S
C2505 C2508 1.499 . S
C2506 H2486 0.950 . S
C2506 C2505 1.414 . S
C2506 C2507 1.374 . S
C2507 H2487 0.950 . S
C2507 C2503 1.385 . S
C2507 C2506 1.374 . S
C2508 C2505 1.499 . S
C2508 C2509 1.373 . S
C2508 C2510 1.389 . S
C2509 H2488 0.950 . S
C2509 C2508 1.373 . S
C2509 C2525 1.377 . S
C2510 C2508 1.389 . S
C2510 C2511 1.524 . S
C2510 C2524 1.377 . S
C2511 C2510 1.524 . S
C2511 C2512 1.397 . S
C2511 C2516 1.363 . S
C2512 H2489 0.950 . S
C2512 C2511 1.397 . S
C2512 C2513 1.334 . S
C2513 H2490 0.950 . S
C2513 C2512 1.334 . S
C2513 C2514 1.287 . S
C2514 C2513 1.287 . S
C2514 C2515 1.524 . S
C2514 H2533 0.913 . S
C2515 H2491 0.950 . S
C2515 C2514 1.524 . S
C2515 C2516 1.415 . S
C2516 H2492 0.950 . S
C2516 C2511 1.363 . S
C2516 C2515 1.415 . S
C2517 H2493 0.951 . S
C2517 C2518 1.366 . S
C2517 C2519 1.388 . S
C2518 C2517 1.366 . S
C2518 C2522 1.385 . S
C2519 H2494 0.951 . S
C2519 C2517 1.388 . S
C2519 C2520 1.366 . S
C2520 C2519 1.366 . S
C2520 C2521 1.414 . S
C2520 C2523 1.499 . S
C2521 H2495 0.950 . S
C2521 C2520 1.414 . S
C2521 C2522 1.374 . S
C2522 H2496 0.950 . S
C2522 C2518 1.385 . S
C2522 C2521 1.374 . S
C2523 C2520 1.499 . S
C2523 C2524 1.373 . S
C2523 C2525 1.389 . S
C2524 H2497 0.950 . S
C2524 C2510 1.377 . S
C2524 C2523 1.373 . S
C2525 C2509 1.377 . S
C2525 C2523 1.389 . S
C2525 C2526 1.524 . S
C2526 C2525 1.524 . S
C2526 C2527 1.397 . S
C2526 C2531 1.363 . S
C2527 H2498 0.950 . S
C2527 C2526 1.397 . S
C2527 C2528 1.334 . S
C2528 H2499 0.950 . S
C2528 C2527 1.334 . S
C2528 C2529 1.287 . S
C2529 C2528 1.287 . S
C2529 C2530 1.524 . S
C2529 H2532 0.999 . S
C2530 H2500 0.950 . S
C2530 C2529 1.524 . S
C2530 C2531 1.415 . S
C2531 H2501 0.950 . S
C2531 C2526 1.363 . S
C2531 C2530 1.415 . S
H2532 C2529 0.999 . S
H2533 C2514 0.913 . S
H2534 C2552 0.951 . S
H2535 C2554 0.951 . S
H2536 C2556 0.950 . S
H2537 C2557 0.950 . S
H2538 C2559 0.950 . S
H2539 C2562 0.950 . S
H2540 C2563 0.950 . S
H2541 C2565 0.950 . S
H2542 C2566 0.950 . S
H2543 C2567 0.951 . S
H2544 C2569 0.951 . S
H2545 C2571 0.950 . S
H2546 C2572 0.950 . S
H2547 C2574 0.950 . S
H2548 C2577 0.950 . S
H2549 C2578 0.950 . S
H2550 C2580 0.950 . S
H2551 C2581 0.950 . S
C2552 H2534 0.951 . S
C2552 C2553 1.366 . S
C2552 C2554 1.388 . S
C2553 C2552 1.366 . S
C2553 C2557 1.385 . S
C2554 H2535 0.951 . S
C2554 C2552 1.388 . S
C2554 C2555 1.366 . S
C2555 C2554 1.366 . S
C2555 C2556 1.414 . S
C2555 C2558 1.499 . S
C2556 H2536 0.950 . S
C2556 C2555 1.414 . S
C2556 C2557 1.374 . S
C2557 H2537 0.950 . S
C2557 C2553 1.385 . S
C2557 C2556 1.374 . S
C2558 C2555 1.499 . S
C2558 C2559 1.373 . S
C2558 C2560 1.389 . S
C2559 H2538 0.950 . S
C2559 C2558 1.373 . S
C2559 C2575 1.377 . S
C2560 C2558 1.389 . S
C2560 C2561 1.524 . S
C2560 C2574 1.377 . S
C2561 C2560 1.524 . S
C2561 C2562 1.397 . S
C2561 C2566 1.363 . S
C2562 H2539 0.950 . S
C2562 C2561 1.397 . S
C2562 C2563 1.334 . S
C2563 H2540 0.950 . S
C2563 C2562 1.334 . S
C2563 C2564 1.287 . S
C2564 C2563 1.287 . S
C2564 C2565 1.524 . S
C2564 H2583 0.913 . S
C2565 H2541 0.950 . S
C2565 C2564 1.524 . S
C2565 C2566 1.415 . S
C2566 H2542 0.950 . S
C2566 C2561 1.363 . S
C2566 C2565 1.415 . S
C2567 H2543 0.951 . S
C2567 C2568 1.366 . S
C2567 C2569 1.388 . S
C2568 C2567 1.366 . S
C2568 C2572 1.385 . S
C2569 H2544 0.951 . S
C2569 C2567 1.388 . S
C2569 C2570 1.366 . S
C2570 C2569 1.366 . S
C2570 C2571 1.414 . S
C2570 C2573 1.499 . S
C2571 H2545 0.950 . S
C2571 C2570 1.414 . S
C2571 C2572 1.374 . S
C2572 H2546 0.950 . S
C2572 C2568 1.385 . S
C2572 C2571 1.374 . S
C2573 C2570 1.499 . S
C2573 C2574 1.373 . S
C2573 C2575 1.389 . S
C2574 H2547 0.950 . S
C2574 C2560 1.377 . S
C2574 C2573 1.373 . S
C2575 C2559 1.377 . S
C2575 C2573 1.389 . S
C2575 C2576 1.524 . S
C2576 C2575 1.524 . S
C2576 C2577 1.397 . S
C2576 C2581 1.363 . S
C2577 H2548 0.950 . S
C2577 C2576 1.397 . S
C2577 C2578 1.334 . S
C2578 H2549 0.950 . S
C2578 C2577 1.334 . S
C2578 C2579 1.287 . S
C2579 C2578 1.287 . S
C2579 C2580 1.524 . S
C2579 H2582 0.999 . S
C2580 H2550 0.950 . S
C2580 C2579 1.524 . S
C2580 C2581 1.415 . S
C2581 H2551 0.950 . S
C2581 C2576 1.363 . S
C2581 C2580 1.415 . S
H2582 C2579 0.999 . S
H2583 C2564 0.913 . S
H2584 C2602 0.951 . S
H2585 C2604 0.951 . S
H2586 C2606 0.950 . S
H2587 C2607 0.950 . S
H2588 C2609 0.950 . S
H2589 C2612 0.950 . S
H2590 C2613 0.950 . S
H2591 C2615 0.950 . S
H2592 C2616 0.950 . S
H2593 C2617 0.951 . S
H2594 C2619 0.951 . S
H2595 C2621 0.950 . S
H2596 C2622 0.950 . S
H2597 C2624 0.950 . S
H2598 C2627 0.950 . S
H2599 C2628 0.950 . S
H2600 C2630 0.950 . S
H2601 C2631 0.950 . S
C2602 H2584 0.951 . S
C2602 C2603 1.366 . S
C2602 C2604 1.388 . S
C2603 C2602 1.366 . S
C2603 C2607 1.385 . S
C2604 H2585 0.951 . S
C2604 C2602 1.388 . S
C2604 C2605 1.366 . S
C2605 C2604 1.366 . S
C2605 C2606 1.414 . S
C2605 C2608 1.499 . S
C2606 H2586 0.950 . S
C2606 C2605 1.414 . S
C2606 C2607 1.374 . S
C2607 H2587 0.950 . S
C2607 C2603 1.385 . S
C2607 C2606 1.374 . S
C2608 C2605 1.499 . S
C2608 C2609 1.373 . S
C2608 C2610 1.389 . S
C2609 H2588 0.950 . S
C2609 C2608 1.373 . S
C2609 C2625 1.377 . S
C2610 C2608 1.389 . S
C2610 C2611 1.524 . S
C2610 C2624 1.377 . S
C2611 C2610 1.524 . S
C2611 C2612 1.397 . S
C2611 C2616 1.363 . S
C2612 H2589 0.950 . S
C2612 C2611 1.397 . S
C2612 C2613 1.334 . S
C2613 H2590 0.950 . S
C2613 C2612 1.334 . S
C2613 C2614 1.287 . S
C2614 C2613 1.287 . S
C2614 C2615 1.524 . S
C2614 H2633 0.913 . S
C2615 H2591 0.950 . S
C2615 C2614 1.524 . S
C2615 C2616 1.415 . S
C2616 H2592 0.950 . S
C2616 C2611 1.363 . S
C2616 C2615 1.415 . S
C2617 H2593 0.951 . S
C2617 C2618 1.366 . S
C2617 C2619 1.388 . S
C2618 C2617 1.366 . S
C2618 C2622 1.385 . S
C2619 H2594 0.951 . S
C2619 C2617 1.388 . S
C2619 C2620 1.366 . S
C2620 C2619 1.366 . S
C2620 C2621 1.414 . S
C2620 C2623 1.499 . S
C2621 H2595 0.950 . S
C2621 C2620 1.414 . S
C2621 C2622 1.374 . S
C2622 H2596 0.950 . S
C2622 C2618 1.385 . S
C2622 C2621 1.374 . S
C2623 C2620 1.499 . S
C2623 C2624 1.373 . S
C2623 C2625 1.389 . S
C2624 H2597 0.950 . S
C2624 C2610 1.377 . S
C2624 C2623 1.373 . S
C2625 C2609 1.377 . S
C2625 C2623 1.389 . S
C2625 C2626 1.524 . S
C2626 C2625 1.524 . S
C2626 C2627 1.397 . S
C2626 C2631 1.363 . S
C2627 H2598 0.950 . S
C2627 C2626 1.397 . S
C2627 C2628 1.334 . S
C2628 H2599 0.950 . S
C2628 C2627 1.334 . S
C2628 C2629 1.287 . S
C2629 C2628 1.287 . S
C2629 C2630 1.524 . S
C2629 H2632 0.999 . S
C2630 H2600 0.950 . S
C2630 C2629 1.524 . S
C2630 C2631 1.415 . S
C2631 H2601 0.950 . S
C2631 C2626 1.363 . S
C2631 C2630 1.415 . S
H2632 C2629 0.999 . S
H2633 C2614 0.913 . S
H2634 C2652 0.951 . S
H2635 C2654 0.951 . S
H2636 C2656 0.950 . S
H2637 C2657 0.950 . S
H2638 C2659 0.950 . S
H2639 C2662 0.950 . S
H2640 C2663 0.950 . S
H2641 C2665 0.950 . S
H2642 C2666 0.950 . S
H2643 C2667 0.951 . S
H2644 C2669 0.951 . S
H2645 C2671 0.950 . S
H2646 C2672 0.950 . S
H2647 C2674 0.950 . S
H2648 C2677 0.950 . S
H2649 C2678 0.950 . S
H2650 C2680 0.950 . S
H2651 C2681 0.950 . S
C2652 H2634 0.951 . S
C2652 C2653 1.366 . S
C2652 C2654 1.388 . S
C2653 C2652 1.366 . S
C2653 C2657 1.385 . S
C2654 H2635 0.951 . S
C2654 C2652 1.388 . S
C2654 C2655 1.366 . S
C2655 C2654 1.366 . S
C2655 C2656 1.414 . S
C2655 C2658 1.499 . S
C2656 H2636 0.950 . S
C2656 C2655 1.414 . S
C2656 C2657 1.374 . S
C2657 H2637 0.950 . S
C2657 C2653 1.385 . S
C2657 C2656 1.374 . S
C2658 C2655 1.499 . S
C2658 C2659 1.373 . S
C2658 C2660 1.389 . S
C2659 H2638 0.950 . S
C2659 C2658 1.373 . S
C2659 C2675 1.377 . S
C2660 C2658 1.389 . S
C2660 C2661 1.524 . S
C2660 C2674 1.377 . S
C2661 C2660 1.524 . S
C2661 C2662 1.397 . S
C2661 C2666 1.363 . S
C2662 H2639 0.950 . S
C2662 C2661 1.397 . S
C2662 C2663 1.334 . S
C2663 H2640 0.950 . S
C2663 C2662 1.334 . S
C2663 C2664 1.287 . S
C2664 C2663 1.287 . S
C2664 C2665 1.524 . S
C2664 H2683 0.913 . S
C2665 H2641 0.950 . S
C2665 C2664 1.524 . S
C2665 C2666 1.415 . S
C2666 H2642 0.950 . S
C2666 C2661 1.363 . S
C2666 C2665 1.415 . S
C2667 H2643 0.951 . S
C2667 C2668 1.366 . S
C2667 C2669 1.388 . S
C2668 C2667 1.366 . S
C2668 C2672 1.385 . S
C2669 H2644 0.951 . S
C2669 C2667 1.388 . S
C2669 C2670 1.366 . S
C2670 C2669 1.366 . S
C2670 C2671 1.414 . S
C2670 C2673 1.499 . S
C2671 H2645 0.950 . S
C2671 C2670 1.414 . S
C2671 C2672 1.374 . S
C2672 H2646 0.950 . S
C2672 C2668 1.385 . S
C2672 C2671 1.374 . S
C2673 C2670 1.499 . S
C2673 C2674 1.373 . S
C2673 C2675 1.389 . S
C2674 H2647 0.950 . S
C2674 C2660 1.377 . S
C2674 C2673 1.373 . S
C2675 C2659 1.377 . S
C2675 C2673 1.389 . S
C2675 C2676 1.524 . S
C2676 C2675 1.524 . S
C2676 C2677 1.397 . S
C2676 C2681 1.363 . S
C2677 H2648 0.950 . S
C2677 C2676 1.397 . S
C2677 C2678 1.334 . S
C2678 H2649 0.950 . S
C2678 C2677 1.334 . S
C2678 C2679 1.287 . S
C2679 C2678 1.287 . S
C2679 C2680 1.524 . S
C2679 H2682 0.999 . S
C2680 H2650 0.950 . S
C2680 C2679 1.524 . S
C2680 C2681 1.415 . S
C2681 H2651 0.950 . S
C2681 C2676 1.363 . S
C2681 C2680 1.415 . S
H2682 C2679 0.999 . S
H2683 C2664 0.913 . S
H2684 C2702 0.951 . S
H2685 C2704 0.951 . S
H2686 C2706 0.950 . S
H2687 C2707 0.950 . S
H2688 C2709 0.950 . S
H2689 C2712 0.950 . S
H2690 C2713 0.950 . S
H2691 C2715 0.950 . S
H2692 C2716 0.950 . S
H2693 C2717 0.951 . S
H2694 C2719 0.951 . S
H2695 C2721 0.950 . S
H2696 C2722 0.950 . S
H2697 C2724 0.950 . S
H2698 C2727 0.950 . S
H2699 C2728 0.950 . S
H2700 C2730 0.950 . S
H2701 C2731 0.950 . S
C2702 H2684 0.951 . S
C2702 C2703 1.366 . S
C2702 C2704 1.388 . S
C2703 C2702 1.366 . S
C2703 C2707 1.385 . S
C2704 H2685 0.951 . S
C2704 C2702 1.388 . S
C2704 C2705 1.366 . S
C2705 C2704 1.366 . S
C2705 C2706 1.414 . S
C2705 C2708 1.499 . S
C2706 H2686 0.950 . S
C2706 C2705 1.414 . S
C2706 C2707 1.374 . S
C2707 H2687 0.950 . S
C2707 C2703 1.385 . S
C2707 C2706 1.374 . S
C2708 C2705 1.499 . S
C2708 C2709 1.373 . S
C2708 C2710 1.389 . S
C2709 H2688 0.950 . S
C2709 C2708 1.373 . S
C2709 C2725 1.377 . S
C2710 C2708 1.389 . S
C2710 C2711 1.524 . S
C2710 C2724 1.377 . S
C2711 C2710 1.524 . S
C2711 C2712 1.397 . S
C2711 C2716 1.363 . S
C2712 H2689 0.950 . S
C2712 C2711 1.397 . S
C2712 C2713 1.334 . S
C2713 H2690 0.950 . S
C2713 C2712 1.334 . S
C2713 C2714 1.287 . S
C2714 C2713 1.287 . S
C2714 C2715 1.524 . S
C2714 H2733 0.913 . S
C2715 H2691 0.950 . S
C2715 C2714 1.524 . S
C2715 C2716 1.415 . S
C2716 H2692 0.950 . S
C2716 C2711 1.363 . S
C2716 C2715 1.415 . S
C2717 H2693 0.951 . S
C2717 C2718 1.366 . S
C2717 C2719 1.388 . S
C2718 C2717 1.366 . S
C2718 C2722 1.385 . S
C2719 H2694 0.951 . S
C2719 C2717 1.388 . S
C2719 C2720 1.366 . S
C2720 C2719 1.366 . S
C2720 C2721 1.414 . S
C2720 C2723 1.499 . S
C2721 H2695 0.950 . S
C2721 C2720 1.414 . S
C2721 C2722 1.374 . S
C2722 H2696 0.950 . S
C2722 C2718 1.385 . S
C2722 C2721 1.374 . S
C2723 C2720 1.499 . S
C2723 C2724 1.373 . S
C2723 C2725 1.389 . S
C2724 H2697 0.950 . S
C2724 C2710 1.377 . S
C2724 C2723 1.373 . S
C2725 C2709 1.377 . S
C2725 C2723 1.389 . S
C2725 C2726 1.524 . S
C2726 C2725 1.524 . S
C2726 C2727 1.397 . S
C2726 C2731 1.363 . S
C2727 H2698 0.950 . S
C2727 C2726 1.397 . S
C2727 C2728 1.334 . S
C2728 H2699 0.950 . S
C2728 C2727 1.334 . S
C2728 C2729 1.287 . S
C2729 C2728 1.287 . S
C2729 C2730 1.524 . S
C2729 H2732 0.999 . S
C2730 H2700 0.950 . S
C2730 C2729 1.524 . S
C2730 C2731 1.415 . S
C2731 H2701 0.950 . S
C2731 C2726 1.363 . S
C2731 C2730 1.415 . S
H2732 C2729 0.999 . S
H2733 C2714 0.913 . S
H2734 C2752 0.951 . S
H2735 C2754 0.951 . S
H2736 C2756 0.950 . S
H2737 C2757 0.950 . S
H2738 C2759 0.950 . S
H2739 C2762 0.950 . S
H2740 C2763 0.950 . S
H2741 C2765 0.950 . S
H2742 C2766 0.950 . S
H2743 C2767 0.951 . S
H2744 C2769 0.951 . S
H2745 C2771 0.950 . S
H2746 C2772 0.950 . S
H2747 C2774 0.950 . S
H2748 C2777 0.950 . S
H2749 C2778 0.950 . S
H2750 C2780 0.950 . S
H2751 C2781 0.950 . S
C2752 H2734 0.951 . S
C2752 C2753 1.366 . S
C2752 C2754 1.388 . S
C2753 C2752 1.366 . S
C2753 C2757 1.385 . S
C2754 H2735 0.951 . S
C2754 C2752 1.388 . S
C2754 C2755 1.366 . S
C2755 C2754 1.366 . S
C2755 C2756 1.414 . S
C2755 C2758 1.499 . S
C2756 H2736 0.950 . S
C2756 C2755 1.414 . S
C2756 C2757 1.374 . S
C2757 H2737 0.950 . S
C2757 C2753 1.385 . S
C2757 C2756 1.374 . S
C2758 C2755 1.499 . S
C2758 C2759 1.373 . S
C2758 C2760 1.389 . S
C2759 H2738 0.950 . S
C2759 C2758 1.373 . S
C2759 C2775 1.377 . S
C2760 C2758 1.389 . S
C2760 C2761 1.524 . S
C2760 C2774 1.377 . S
C2761 C2760 1.524 . S
C2761 C2762 1.397 . S
C2761 C2766 1.363 . S
C2762 H2739 0.950 . S
C2762 C2761 1.397 . S
C2762 C2763 1.334 . S
C2763 H2740 0.950 . S
C2763 C2762 1.334 . S
C2763 C2764 1.287 . S
C2764 C2763 1.287 . S
C2764 C2765 1.524 . S
C2764 H2783 0.913 . S
C2765 H2741 0.950 . S
C2765 C2764 1.524 . S
C2765 C2766 1.415 . S
C2766 H2742 0.950 . S
C2766 C2761 1.363 . S
C2766 C2765 1.415 . S
C2767 H2743 0.951 . S
C2767 C2768 1.366 . S
C2767 C2769 1.388 . S
C2768 C2767 1.366 . S
C2768 C2772 1.385 . S
C2769 H2744 0.951 . S
C2769 C2767 1.388 . S
C2769 C2770 1.366 . S
C2770 C2769 1.366 . S
C2770 C2771 1.414 . S
C2770 C2773 1.499 . S
C2771 H2745 0.950 . S
C2771 C2770 1.414 . S
C2771 C2772 1.374 . S
C2772 H2746 0.950 . S
C2772 C2768 1.385 . S
C2772 C2771 1.374 . S
C2773 C2770 1.499 . S
C2773 C2774 1.373 . S
C2773 C2775 1.389 . S
C2774 H2747 0.950 . S
C2774 C2760 1.377 . S
C2774 C2773 1.373 . S
C2775 C2759 1.377 . S
C2775 C2773 1.389 . S
C2775 C2776 1.524 . S
C2776 C2775 1.524 . S
C2776 C2777 1.397 . S
C2776 C2781 1.363 . S
C2777 H2748 0.950 . S
C2777 C2776 1.397 . S
C2777 C2778 1.334 . S
C2778 H2749 0.950 . S
C2778 C2777 1.334 . S
C2778 C2779 1.287 . S
C2779 C2778 1.287 . S
C2779 C2780 1.524 . S
C2779 H2782 0.999 . S
C2780 H2750 0.950 . S
C2780 C2779 1.524 . S
C2780 C2781 1.415 . S
C2781 H2751 0.950 . S
C2781 C2776 1.363 . S
C2781 C2780 1.415 . S
H2782 C2779 0.999 . S
H2783 C2764 0.913 . S
H2784 C2802 0.951 . S
H2785 C2804 0.951 . S
H2786 C2806 0.950 . S
H2787 C2807 0.950 . S
H2788 C2809 0.950 . S
H2789 C2812 0.950 . S
H2790 C2813 0.950 . S
H2791 C2815 0.950 . S
H2792 C2816 0.950 . S
H2793 C2817 0.951 . S
H2794 C2819 0.951 . S
H2795 C2821 0.950 . S
H2796 C2822 0.950 . S
H2797 C2824 0.950 . S
H2798 C2827 0.950 . S
H2799 C2828 0.950 . S
H2800 C2830 0.950 . S
H2801 C2831 0.950 . S
C2802 H2784 0.951 . S
C2802 C2803 1.366 . S
C2802 C2804 1.388 . S
C2803 C2802 1.366 . S
C2803 C2807 1.385 . S
C2804 H2785 0.951 . S
C2804 C2802 1.388 . S
C2804 C2805 1.366 . S
C2805 C2804 1.366 . S
C2805 C2806 1.414 . S
C2805 C2808 1.499 . S
C2806 H2786 0.950 . S
C2806 C2805 1.414 . S
C2806 C2807 1.374 . S
C2807 H2787 0.950 . S
C2807 C2803 1.385 . S
C2807 C2806 1.374 . S
C2808 C2805 1.499 . S
C2808 C2809 1.373 . S
C2808 C2810 1.389 . S
C2809 H2788 0.950 . S
C2809 C2808 1.373 . S
C2809 C2825 1.377 . S
C2810 C2808 1.389 . S
C2810 C2811 1.524 . S
C2810 C2824 1.377 . S
C2811 C2810 1.524 . S
C2811 C2812 1.397 . S
C2811 C2816 1.363 . S
C2812 H2789 0.950 . S
C2812 C2811 1.397 . S
C2812 C2813 1.334 . S
C2813 H2790 0.950 . S
C2813 C2812 1.334 . S
C2813 C2814 1.287 . S
C2814 C2813 1.287 . S
C2814 C2815 1.524 . S
C2814 H2833 0.913 . S
C2815 H2791 0.950 . S
C2815 C2814 1.524 . S
C2815 C2816 1.415 . S
C2816 H2792 0.950 . S
C2816 C2811 1.363 . S
C2816 C2815 1.415 . S
C2817 H2793 0.951 . S
C2817 C2818 1.366 . S
C2817 C2819 1.388 . S
C2818 C2817 1.366 . S
C2818 C2822 1.385 . S
C2819 H2794 0.951 . S
C2819 C2817 1.388 . S
C2819 C2820 1.366 . S
C2820 C2819 1.366 . S
C2820 C2821 1.414 . S
C2820 C2823 1.499 . S
C2821 H2795 0.950 . S
C2821 C2820 1.414 . S
C2821 C2822 1.374 . S
C2822 H2796 0.950 . S
C2822 C2818 1.385 . S
C2822 C2821 1.374 . S
C2823 C2820 1.499 . S
C2823 C2824 1.373 . S
C2823 C2825 1.389 . S
C2824 H2797 0.950 . S
C2824 C2810 1.377 . S
C2824 C2823 1.373 . S
C2825 C2809 1.377 . S
C2825 C2823 1.389 . S
C2825 C2826 1.524 . S
C2826 C2825 1.524 . S
C2826 C2827 1.397 . S
C2826 C2831 1.363 . S
C2827 H2798 0.950 . S
C2827 C2826 1.397 . S
C2827 C2828 1.334 . S
C2828 H2799 0.950 . S
C2828 C2827 1.334 . S
C2828 C2829 1.287 . S
C2829 C2828 1.287 . S
C2829 C2830 1.524 . S
C2829 H2832 0.999 . S
C2830 H2800 0.950 . S
C2830 C2829 1.524 . S
C2830 C2831 1.415 . S
C2831 H2801 0.950 . S
C2831 C2826 1.363 . S
C2831 C2830 1.415 . S
H2832 C2829 0.999 . S
H2833 C2814 0.913 . S
H2834 C2852 0.951 . S
H2835 C2854 0.951 . S
H2836 C2856 0.950 . S
H2837 C2857 0.950 . S
H2838 C2859 0.950 . S
H2839 C2862 0.950 . S
H2840 C2863 0.950 . S
H2841 C2865 0.950 . S
H2842 C2866 0.950 . S
H2843 C2867 0.951 . S
H2844 C2869 0.951 . S
H2845 C2871 0.950 . S
H2846 C2872 0.950 . S
H2847 C2874 0.950 . S
H2848 C2877 0.950 . S
H2849 C2878 0.950 . S
H2850 C2880 0.950 . S
H2851 C2881 0.950 . S
C2852 H2834 0.951 . S
C2852 C2853 1.366 . S
C2852 C2854 1.388 . S
C2853 C2852 1.366 . S
C2853 C2857 1.385 . S
C2854 H2835 0.951 . S
C2854 C2852 1.388 . S
C2854 C2855 1.366 . S
C2855 C2854 1.366 . S
C2855 C2856 1.414 . S
C2855 C2858 1.499 . S
C2856 H2836 0.950 . S
C2856 C2855 1.414 . S
C2856 C2857 1.374 . S
C2857 H2837 0.950 . S
C2857 C2853 1.385 . S
C2857 C2856 1.374 . S
C2858 C2855 1.499 . S
C2858 C2859 1.373 . S
C2858 C2860 1.389 . S
C2859 H2838 0.950 . S
C2859 C2858 1.373 . S
C2859 C2875 1.377 . S
C2860 C2858 1.389 . S
C2860 C2861 1.524 . S
C2860 C2874 1.377 . S
C2861 C2860 1.524 . S
C2861 C2862 1.397 . S
C2861 C2866 1.363 . S
C2862 H2839 0.950 . S
C2862 C2861 1.397 . S
C2862 C2863 1.334 . S
C2863 H2840 0.950 . S
C2863 C2862 1.334 . S
C2863 C2864 1.287 . S
C2864 C2863 1.287 . S
C2864 C2865 1.524 . S
C2864 H2883 0.913 . S
C2865 H2841 0.950 . S
C2865 C2864 1.524 . S
C2865 C2866 1.415 . S
C2866 H2842 0.950 . S
C2866 C2861 1.363 . S
C2866 C2865 1.415 . S
C2867 H2843 0.951 . S
C2867 C2868 1.366 . S
C2867 C2869 1.388 . S
C2868 C2867 1.366 . S
C2868 C2872 1.385 . S
C2869 H2844 0.951 . S
C2869 C2867 1.388 . S
C2869 C2870 1.366 . S
C2870 C2869 1.366 . S
C2870 C2871 1.414 . S
C2870 C2873 1.499 . S
C2871 H2845 0.950 . S
C2871 C2870 1.414 . S
C2871 C2872 1.374 . S
C2872 H2846 0.950 . S
C2872 C2868 1.385 . S
C2872 C2871 1.374 . S
C2873 C2870 1.499 . S
C2873 C2874 1.373 . S
C2873 C2875 1.389 . S
C2874 H2847 0.950 . S
C2874 C2860 1.377 . S
C2874 C2873 1.373 . S
C2875 C2859 1.377 . S
C2875 C2873 1.389 . S
C2875 C2876 1.524 . S
C2876 C2875 1.524 . S
C2876 C2877 1.397 . S
C2876 C2881 1.363 . S
C2877 H2848 0.950 . S
C2877 C2876 1.397 . S
C2877 C2878 1.334 . S
C2878 H2849 0.950 . S
C2878 C2877 1.334 . S
C2878 C2879 1.287 . S
C2879 C2878 1.287 . S
C2879 C2880 1.524 . S
C2879 H2882 0.999 . S
C2880 H2850 0.950 . S
C2880 C2879 1.524 . S
C2880 C2881 1.415 . S
C2881 H2851 0.950 . S
C2881 C2876 1.363 . S
C2881 C2880 1.415 . S
H2882 C2879 0.999 . S
H2883 C2864 0.913 . S
H2884 C2902 0.951 . S
H2885 C2904 0.951 . S
H2886 C2906 0.950 . S
H2887 C2907 0.950 . S
H2888 C2909 0.950 . S
H2889 C2912 0.950 . S
H2890 C2913 0.950 . S
H2891 C2915 0.950 . S
H2892 C2916 0.950 . S
H2893 C2917 0.951 . S
H2894 C2919 0.951 . S
H2895 C2921 0.950 . S
H2896 C2922 0.950 . S
H2897 C2924 0.950 . S
H2898 C2927 0.950 . S
H2899 C2928 0.950 . S
H2900 C2930 0.950 . S
H2901 C2931 0.950 . S
C2902 H2884 0.951 . S
C2902 C2903 1.366 . S
C2902 C2904 1.388 . S
C2903 C2902 1.366 . S
C2903 C2907 1.385 . S
C2904 H2885 0.951 . S
C2904 C2902 1.388 . S
C2904 C2905 1.366 . S
C2905 C2904 1.366 . S
C2905 C2906 1.414 . S
C2905 C2908 1.499 . S
C2906 H2886 0.950 . S
C2906 C2905 1.414 . S
C2906 C2907 1.374 . S
C2907 H2887 0.950 . S
C2907 C2903 1.385 . S
C2907 C2906 1.374 . S
C2908 C2905 1.499 . S
C2908 C2909 1.373 . S
C2908 C2910 1.389 . S
C2909 H2888 0.950 . S
C2909 C2908 1.373 . S
C2909 C2925 1.377 . S
C2910 C2908 1.389 . S
C2910 C2911 1.524 . S
C2910 C2924 1.377 . S
C2911 C2910 1.524 . S
C2911 C2912 1.397 . S
C2911 C2916 1.363 . S
C2912 H2889 0.950 . S
C2912 C2911 1.397 . S
C2912 C2913 1.334 . S
C2913 H2890 0.950 . S
C2913 C2912 1.334 . S
C2913 C2914 1.287 . S
C2914 C2913 1.287 . S
C2914 C2915 1.524 . S
C2914 H2933 0.913 . S
C2915 H2891 0.950 . S
C2915 C2914 1.524 . S
C2915 C2916 1.415 . S
C2916 H2892 0.950 . S
C2916 C2911 1.363 . S
C2916 C2915 1.415 . S
C2917 H2893 0.951 . S
C2917 C2918 1.366 . S
C2917 C2919 1.388 . S
C2918 C2917 1.366 . S
C2918 C2922 1.385 . S
C2919 H2894 0.951 . S
C2919 C2917 1.388 . S
C2919 C2920 1.366 . S
C2920 C2919 1.366 . S
C2920 C2921 1.414 . S
C2920 C2923 1.499 . S
C2921 H2895 0.950 . S
C2921 C2920 1.414 . S
C2921 C2922 1.374 . S
C2922 H2896 0.950 . S
C2922 C2918 1.385 . S
C2922 C2921 1.374 . S
C2923 C2920 1.499 . S
C2923 C2924 1.373 . S
C2923 C2925 1.389 . S
C2924 H2897 0.950 . S
C2924 C2910 1.377 . S
C2924 C2923 1.373 . S
C2925 C2909 1.377 . S
C2925 C2923 1.389 . S
C2925 C2926 1.524 . S
C2926 C2925 1.524 . S
C2926 C2927 1.397 . S
C2926 C2931 1.363 . S
C2927 H2898 0.950 . S
C2927 C2926 1.397 . S
C2927 C2928 1.334 . S
C2928 H2899 0.950 . S
C2928 C2927 1.334 . S
C2928 C2929 1.287 . S
C2929 C2928 1.287 . S
C2929 C2930 1.524 . S
C2929 H2932 0.999 . S
C2930 H2900 0.950 . S
C2930 C2929 1.524 . S
C2930 C2931 1.415 . S
C2931 H2901 0.950 . S
C2931 C2926 1.363 . S
C2931 C2930 1.415 . S
H2932 C2929 0.999 . S
H2933 C2914 0.913 . S
H2934 C2952 0.951 . S
H2935 C2954 0.951 . S
H2936 C2956 0.950 . S
H2937 C2957 0.950 . S
H2938 C2959 0.950 . S
H2939 C2962 0.950 . S
H2940 C2963 0.950 . S
H2941 C2965 0.950 . S
H2942 C2966 0.950 . S
H2943 C2967 0.951 . S
H2944 C2969 0.951 . S
H2945 C2971 0.950 . S
H2946 C2972 0.950 . S
H2947 C2974 0.950 . S
H2948 C2977 0.950 . S
H2949 C2978 0.950 . S
H2950 C2980 0.950 . S
H2951 C2981 0.950 . S
C2952 H2934 0.951 . S
C2952 C2953 1.366 . S
C2952 C2954 1.388 . S
C2953 C2952 1.366 . S
C2953 C2957 1.385 . S
C2954 H2935 0.951 . S
C2954 C2952 1.388 . S
C2954 C2955 1.366 . S
C2955 C2954 1.366 . S
C2955 C2956 1.414 . S
C2955 C2958 1.499 . S
C2956 H2936 0.950 . S
C2956 C2955 1.414 . S
C2956 C2957 1.374 . S
C2957 H2937 0.950 . S
C2957 C2953 1.385 . S
C2957 C2956 1.374 . S
C2958 C2955 1.499 . S
C2958 C2959 1.373 . S
C2958 C2960 1.389 . S
C2959 H2938 0.950 . S
C2959 C2958 1.373 . S
C2959 C2975 1.377 . S
C2960 C2958 1.389 . S
C2960 C2961 1.524 . S
C2960 C2974 1.377 . S
C2961 C2960 1.524 . S
C2961 C2962 1.397 . S
C2961 C2966 1.363 . S
C2962 H2939 0.950 . S
C2962 C2961 1.397 . S
C2962 C2963 1.334 . S
C2963 H2940 0.950 . S
C2963 C2962 1.334 . S
C2963 C2964 1.287 . S
C2964 C2963 1.287 . S
C2964 C2965 1.524 . S
C2964 H2983 0.913 . S
C2965 H2941 0.950 . S
C2965 C2964 1.524 . S
C2965 C2966 1.415 . S
C2966 H2942 0.950 . S
C2966 C2961 1.363 . S
C2966 C2965 1.415 . S
C2967 H2943 0.951 . S
C2967 C2968 1.366 . S
C2967 C2969 1.388 . S
C2968 C2967 1.366 . S
C2968 C2972 1.385 . S
C2969 H2944 0.951 . S
C2969 C2967 1.388 . S
C2969 C2970 1.366 . S
C2970 C2969 1.366 . S
C2970 C2971 1.414 . S
C2970 C2973 1.499 . S
C2971 H2945 0.950 . S
C2971 C2970 1.414 . S
C2971 C2972 1.374 . S
C2972 H2946 0.950 . S
C2972 C2968 1.385 . S
C2972 C2971 1.374 . S
C2973 C2970 1.499 . S
C2973 C2974 1.373 . S
C2973 C2975 1.389 . S
C2974 H2947 0.950 . S
C2974 C2960 1.377 . S
C2974 C2973 1.373 . S
C2975 C2959 1.377 . S
C2975 C2973 1.389 . S
C2975 C2976 1.524 . S
C2976 C2975 1.524 . S
C2976 C2977 1.397 . S
C2976 C2981 1.363 . S
C2977 H2948 0.950 . S
C2977 C2976 1.397 . S
C2977 C2978 1.334 . S
C2978 H2949 0.950 . S
C2978 C2977 1.334 . S
C2978 C2979 1.287 . S
C2979 C2978 1.287 . S
C2979 C2980 1.524 . S
C2979 H2982 0.999 . S
C2980 H2950 0.950 . S
C2980 C2979 1.524 . S
C2980 C2981 1.415 . S
C2981 H2951 0.950 . S
C2981 C2976 1.363 . S
C2981 C2980 1.415 . S
H2982 C2979 0.999 . S
H2983 C2964 0.913 . S
H2984 C3002 0.951 . S
H2985 C3004 0.951 . S
H2986 C3006 0.950 . S
H2987 C3007 0.950 . S
H2988 C3009 0.950 . S
H2989 C3012 0.950 . S
H2990 C3013 0.950 . S
H2991 C3015 0.950 . S
H2992 C3016 0.950 . S
H2993 C3017 0.951 . S
H2994 C3019 0.951 . S
H2995 C3021 0.950 . S
H2996 C3022 0.950 . S
H2997 C3024 0.950 . S
H2998 C3027 0.950 . S
H2999 C3028 0.950 . S
H3000 C3030 0.950 . S
H3001 C3031 0.950 . S
C3002 H2984 0.951 . S
C3002 C3003 1.366 . S
C3002 C3004 1.388 . S
C3003 C3002 1.366 . S
C3003 C3007 1.385 . S
C3004 H2985 0.951 . S
C3004 C3002 1.388 . S
C3004 C3005 1.366 . S
C3005 C3004 1.366 . S
C3005 C3006 1.414 . S
C3005 C3008 1.499 . S
C3006 H2986 0.950 . S
C3006 C3005 1.414 . S
C3006 C3007 1.374 . S
C3007 H2987 0.950 . S
C3007 C3003 1.385 . S
C3007 C3006 1.374 . S
C3008 C3005 1.499 . S
C3008 C3009 1.373 . S
C3008 C3010 1.389 . S
C3009 H2988 0.950 . S
C3009 C3008 1.373 . S
C3009 C3025 1.377 . S
C3010 C3008 1.389 . S
C3010 C3011 1.524 . S
C3010 C3024 1.377 . S
C3011 C3010 1.524 . S
C3011 C3012 1.397 . S
C3011 C3016 1.363 . S
C3012 H2989 0.950 . S
C3012 C3011 1.397 . S
C3012 C3013 1.334 . S
C3013 H2990 0.950 . S
C3013 C3012 1.334 . S
C3013 C3014 1.287 . S
C3014 C3013 1.287 . S
C3014 C3015 1.524 . S
C3014 H3033 0.913 . S
C3015 H2991 0.950 . S
C3015 C3014 1.524 . S
C3015 C3016 1.415 . S
C3016 H2992 0.950 . S
C3016 C3011 1.363 . S
C3016 C3015 1.415 . S
C3017 H2993 0.951 . S
C3017 C3018 1.366 . S
C3017 C3019 1.388 . S
C3018 C3017 1.366 . S
C3018 C3022 1.385 . S
C3019 H2994 0.951 . S
C3019 C3017 1.388 . S
C3019 C3020 1.366 . S
C3020 C3019 1.366 . S
C3020 C3021 1.414 . S
C3020 C3023 1.499 . S
C3021 H2995 0.950 . S
C3021 C3020 1.414 . S
C3021 C3022 1.374 . S
C3022 H2996 0.950 . S
C3022 C3018 1.385 . S
C3022 C3021 1.374 . S
C3023 C3020 1.499 . S
C3023 C3024 1.373 . S
C3023 C3025 1.389 . S
C3024 H2997 0.950 . S
C3024 C3010 1.377 . S
C3024 C3023 1.373 . S
C3025 C3009 1.377 . S
C3025 C3023 1.389 . S
C3025 C3026 1.524 . S
C3026 C3025 1.524 . S
C3026 C3027 1.397 . S
C3026 C3031 1.363 . S
C3027 H2998 0.950 . S
C3027 C3026 1.397 . S
C3027 C3028 1.334 . S
C3028 H2999 0.950 . S
C3028 C3027 1.334 . S
C3028 C3029 1.287 . S
C3029 C3028 1.287 . S
C3029 C3030 1.524 . S
C3029 H3032 0.999 . S
C3030 H3000 0.950 . S
C3030 C3029 1.524 . S
C3030 C3031 1.415 . S
C3031 H3001 0.950 . S
C3031 C3026 1.363 . S
C3031 C3030 1.415 . S
H3032 C3029 0.999 . S
H3033 C3014 0.913 . S
H3034 C3052 0.951 . S
H3035 C3054 0.951 . S
H3036 C3056 0.950 . S
H3037 C3057 0.950 . S
H3038 C3059 0.950 . S
H3039 C3062 0.950 . S
H3040 C3063 0.950 . S
H3041 C3065 0.950 . S
H3042 C3066 0.950 . S
H3043 C3067 0.951 . S
H3044 C3069 0.951 . S
H3045 C3071 0.950 . S
H3046 C3072 0.950 . S
H3047 C3074 0.950 . S
H3048 C3077 0.950 . S
H3049 C3078 0.950 . S
H3050 C3080 0.950 . S
H3051 C3081 0.950 . S
C3052 H3034 0.951 . S
C3052 C3053 1.366 . S
C3052 C3054 1.388 . S
C3053 C3052 1.366 . S
C3053 C3057 1.385 . S
C3054 H3035 0.951 . S
C3054 C3052 1.388 . S
C3054 C3055 1.366 . S
C3055 C3054 1.366 . S
C3055 C3056 1.414 . S
C3055 C3058 1.499 . S
C3056 H3036 0.950 . S
C3056 C3055 1.414 . S
C3056 C3057 1.374 . S
C3057 H3037 0.950 . S
C3057 C3053 1.385 . S
C3057 C3056 1.374 . S
C3058 C3055 1.499 . S
C3058 C3059 1.373 . S
C3058 C3060 1.389 . S
C3059 H3038 0.950 . S
C3059 C3058 1.373 . S
C3059 C3075 1.377 . S
C3060 C3058 1.389 . S
C3060 C3061 1.524 . S
C3060 C3074 1.377 . S
C3061 C3060 1.524 . S
C3061 C3062 1.397 . S
C3061 C3066 1.363 . S
C3062 H3039 0.950 . S
C3062 C3061 1.397 . S
C3062 C3063 1.334 . S
C3063 H3040 0.950 . S
C3063 C3062 1.334 . S
C3063 C3064 1.287 . S
C3064 C3063 1.287 . S
C3064 C3065 1.524 . S
C3064 H3083 0.913 . S
C3065 H3041 0.950 . S
C3065 C3064 1.524 . S
C3065 C3066 1.415 . S
C3066 H3042 0.950 . S
C3066 C3061 1.363 . S
C3066 C3065 1.415 . S
C3067 H3043 0.951 . S
C3067 C3068 1.366 . S
C3067 C3069 1.388 . S
C3068 C3067 1.366 . S
C3068 C3072 1.385 . S
C3069 H3044 0.951 . S
C3069 C3067 1.388 . S
C3069 C3070 1.366 . S
C3070 C3069 1.366 . S
C3070 C3071 1.414 . S
C3070 C3073 1.499 . S
C3071 H3045 0.950 . S
C3071 C3070 1.414 . S
C3071 C3072 1.374 . S
C3072 H3046 0.950 . S
C3072 C3068 1.385 . S
C3072 C3071 1.374 . S
C3073 C3070 1.499 . S
C3073 C3074 1.373 . S
C3073 C3075 1.389 . S
C3074 H3047 0.950 . S
C3074 C3060 1.377 . S
C3074 C3073 1.373 . S
C3075 C3059 1.377 . S
C3075 C3073 1.389 . S
C3075 C3076 1.524 . S
C3076 C3075 1.524 . S
C3076 C3077 1.397 . S
C3076 C3081 1.363 . S
C3077 H3048 0.950 . S
C3077 C3076 1.397 . S
C3077 C3078 1.334 . S
C3078 H3049 0.950 . S
C3078 C3077 1.334 . S
C3078 C3079 1.287 . S
C3079 C3078 1.287 . S
C3079 C3080 1.524 . S
C3079 H3082 0.999 . S
C3080 H3050 0.950 . S
C3080 C3079 1.524 . S
C3080 C3081 1.415 . S
C3081 H3051 0.950 . S
C3081 C3076 1.363 . S
C3081 C3080 1.415 . S
H3082 C3079 0.999 . S
H3083 C3064 0.913 . S
H3084 C3102 0.951 . S
H3085 C3104 0.951 . S
H3086 C3106 0.950 . S
H3087 C3107 0.950 . S
H3088 C3109 0.950 . S
H3089 C3112 0.950 . S
H3090 C3113 0.950 . S
H3091 C3115 0.950 . S
H3092 C3116 0.950 . S
H3093 C3117 0.951 . S
H3094 C3119 0.951 . S
H3095 C3121 0.950 . S
H3096 C3122 0.950 . S
H3097 C3124 0.950 . S
H3098 C3127 0.950 . S
H3099 C3128 0.950 . S
H3100 C3130 0.950 . S
H3101 C3131 0.950 . S
C3102 H3084 0.951 . S
C3102 C3103 1.366 . S
C3102 C3104 1.388 . S
C3103 C3102 1.366 . S
C3103 C3107 1.385 . S
C3104 H3085 0.951 . S
C3104 C3102 1.388 . S
C3104 C3105 1.366 . S
C3105 C3104 1.366 . S
C3105 C3106 1.414 . S
C3105 C3108 1.499 . S
C3106 H3086 0.950 . S
C3106 C3105 1.414 . S
C3106 C3107 1.374 . S
C3107 H3087 0.950 . S
C3107 C3103 1.385 . S
C3107 C3106 1.374 . S
C3108 C3105 1.499 . S
C3108 C3109 1.373 . S
C3108 C3110 1.389 . S
C3109 H3088 0.950 . S
C3109 C3108 1.373 . S
C3109 C3125 1.377 . S
C3110 C3108 1.389 . S
C3110 C3111 1.524 . S
C3110 C3124 1.377 . S
C3111 C3110 1.524 . S
C3111 C3112 1.397 . S
C3111 C3116 1.363 . S
C3112 H3089 0.950 . S
C3112 C3111 1.397 . S
C3112 C3113 1.334 . S
C3113 H3090 0.950 . S
C3113 C3112 1.334 . S
C3113 C3114 1.287 . S
C3114 C3113 1.287 . S
C3114 C3115 1.524 . S
C3114 H3133 0.913 . S
C3115 H3091 0.950 . S
C3115 C3114 1.524 . S
C3115 C3116 1.415 . S
C3116 H3092 0.950 . S
C3116 C3111 1.363 . S
C3116 C3115 1.415 . S
C3117 H3093 0.951 . S
C3117 C3118 1.366 . S
C3117 C3119 1.388 . S
C3118 C3117 1.366 . S
C3118 C3122 1.385 . S
C3119 H3094 0.951 . S
C3119 C3117 1.388 . S
C3119 C3120 1.366 . S
C3120 C3119 1.366 . S
C3120 C3121 1.414 . S
C3120 C3123 1.499 . S
C3121 H3095 0.950 . S
C3121 C3120 1.414 . S
C3121 C3122 1.374 . S
C3122 H3096 0.950 . S
C3122 C3118 1.385 . S
C3122 C3121 1.374 . S
C3123 C3120 1.499 . S
C3123 C3124 1.373 . S
C3123 C3125 1.389 . S
C3124 H3097 0.950 . S
C3124 C3110 1.377 . S
C3124 C3123 1.373 . S
C3125 C3109 1.377 . S
C3125 C3123 1.389 . S
C3125 C3126 1.524 . S
C3126 C3125 1.524 . S
C3126 C3127 1.397 . S
C3126 C3131 1.363 . S
C3127 H3098 0.950 . S
C3127 C3126 1.397 . S
C3127 C3128 1.334 . S
C3128 H3099 0.950 . S
C3128 C3127 1.334 . S
C3128 C3129 1.287 . S
C3129 C3128 1.287 . S
C3129 C3130 1.524 . S
C3129 H3132 0.999 . S
C3130 H3100 0.950 . S
C3130 C3129 1.524 . S
C3130 C3131 1.415 . S
C3131 H3101 0.950 . S
C3131 C3126 1.363 . S
C3131 C3130 1.415 . S
H3132 C3129 0.999 . S
H3133 C3114 0.913 . S
H3134 C3152 0.951 . S
H3135 C3154 0.951 . S
H3136 C3156 0.950 . S
H3137 C3157 0.950 . S
H3138 C3159 0.950 . S
H3139 C3162 0.950 . S
H3140 C3163 0.950 . S
H3141 C3165 0.950 . S
H3142 C3166 0.950 . S
H3143 C3167 0.951 . S
H3144 C3169 0.951 . S
H3145 C3171 0.950 . S
H3146 C3172 0.950 . S
H3147 C3174 0.950 . S
H3148 C3177 0.950 . S
H3149 C3178 0.950 . S
H3150 C3180 0.950 . S
H3151 C3181 0.950 . S
C3152 H3134 0.951 . S
C3152 C3153 1.366 . S
C3152 C3154 1.388 . S
C3153 C3152 1.366 . S
C3153 C3157 1.385 . S
C3154 H3135 0.951 . S
C3154 C3152 1.388 . S
C3154 C3155 1.366 . S
C3155 C3154 1.366 . S
C3155 C3156 1.414 . S
C3155 C3158 1.499 . S
C3156 H3136 0.950 . S
C3156 C3155 1.414 . S
C3156 C3157 1.374 . S
C3157 H3137 0.950 . S
C3157 C3153 1.385 . S
C3157 C3156 1.374 . S
C3158 C3155 1.499 . S
C3158 C3159 1.373 . S
C3158 C3160 1.389 . S
C3159 H3138 0.950 . S
C3159 C3158 1.373 . S
C3159 C3175 1.377 . S
C3160 C3158 1.389 . S
C3160 C3161 1.524 . S
C3160 C3174 1.377 . S
C3161 C3160 1.524 . S
C3161 C3162 1.397 . S
C3161 C3166 1.363 . S
C3162 H3139 0.950 . S
C3162 C3161 1.397 . S
C3162 C3163 1.334 . S
C3163 H3140 0.950 . S
C3163 C3162 1.334 . S
C3163 C3164 1.287 . S
C3164 C3163 1.287 . S
C3164 C3165 1.524 . S
C3164 H3183 0.913 . S
C3165 H3141 0.950 . S
C3165 C3164 1.524 . S
C3165 C3166 1.415 . S
C3166 H3142 0.950 . S
C3166 C3161 1.363 . S
C3166 C3165 1.415 . S
C3167 H3143 0.951 . S
C3167 C3168 1.366 . S
C3167 C3169 1.388 . S
C3168 C3167 1.366 . S
C3168 C3172 1.385 . S
C3169 H3144 0.951 . S
C3169 C3167 1.388 . S
C3169 C3170 1.366 . S
C3170 C3169 1.366 . S
C3170 C3171 1.414 . S
C3170 C3173 1.499 . S
C3171 H3145 0.950 . S
C3171 C3170 1.414 . S
C3171 C3172 1.374 . S
C3172 H3146 0.950 . S
C3172 C3168 1.385 . S
C3172 C3171 1.374 . S
C3173 C3170 1.499 . S
C3173 C3174 1.373 . S
C3173 C3175 1.389 . S
C3174 H3147 0.950 . S
C3174 C3160 1.377 . S
C3174 C3173 1.373 . S
C3175 C3159 1.377 . S
C3175 C3173 1.389 . S
C3175 C3176 1.524 . S
C3176 C3175 1.524 . S
C3176 C3177 1.397 . S
C3176 C3181 1.363 . S
C3177 H3148 0.950 . S
C3177 C3176 1.397 . S
C3177 C3178 1.334 . S
C3178 H3149 0.950 . S
C3178 C3177 1.334 . S
C3178 C3179 1.287 . S
C3179 C3178 1.287 . S
C3179 C3180 1.524 . S
C3179 H3182 0.999 . S
C3180 H3150 0.950 . S
C3180 C3179 1.524 . S
C3180 C3181 1.415 . S
C3181 H3151 0.950 . S
C3181 C3176 1.363 . S
C3181 C3180 1.415 . S
H3182 C3179 0.999 . S
H3183 C3164 0.913 . S
H3184 C3202 0.951 . S
H3185 C3204 0.951 . S
H3186 C3206 0.950 . S
H3187 C3207 0.950 . S
H3188 C3209 0.950 . S
H3189 C3212 0.950 . S
H3190 C3213 0.950 . S
H3191 C3215 0.950 . S
H3192 C3216 0.950 . S
H3193 C3217 0.951 . S
H3194 C3219 0.951 . S
H3195 C3221 0.950 . S
H3196 C3222 0.950 . S
H3197 C3224 0.950 . S
H3198 C3227 0.950 . S
H3199 C3228 0.950 . S
H3200 C3230 0.950 . S
H3201 C3231 0.950 . S
C3202 H3184 0.951 . S
C3202 C3203 1.366 . S
C3202 C3204 1.388 . S
C3203 C3202 1.366 . S
C3203 C3207 1.385 . S
C3204 H3185 0.951 . S
C3204 C3202 1.388 . S
C3204 C3205 1.366 . S
C3205 C3204 1.366 . S
C3205 C3206 1.414 . S
C3205 C3208 1.499 . S
C3206 H3186 0.950 . S
C3206 C3205 1.414 . S
C3206 C3207 1.374 . S
C3207 H3187 0.950 . S
C3207 C3203 1.385 . S
C3207 C3206 1.374 . S
C3208 C3205 1.499 . S
C3208 C3209 1.373 . S
C3208 C3210 1.389 . S
C3209 H3188 0.950 . S
C3209 C3208 1.373 . S
C3209 C3225 1.377 . S
C3210 C3208 1.389 . S
C3210 C3211 1.524 . S
C3210 C3224 1.377 . S
C3211 C3210 1.524 . S
C3211 C3212 1.397 . S
C3211 C3216 1.363 . S
C3212 H3189 0.950 . S
C3212 C3211 1.397 . S
C3212 C3213 1.334 . S
C3213 H3190 0.950 . S
C3213 C3212 1.334 . S
C3213 C3214 1.287 . S
C3214 C3213 1.287 . S
C3214 C3215 1.524 . S
C3214 H3233 0.913 . S
C3215 H3191 0.950 . S
C3215 C3214 1.524 . S
C3215 C3216 1.415 . S
C3216 H3192 0.950 . S
C3216 C3211 1.363 . S
C3216 C3215 1.415 . S
C3217 H3193 0.951 . S
C3217 C3218 1.366 . S
C3217 C3219 1.388 . S
C3218 C3217 1.366 . S
C3218 C3222 1.385 . S
C3219 H3194 0.951 . S
C3219 C3217 1.388 . S
C3219 C3220 1.366 . S
C3220 C3219 1.366 . S
C3220 C3221 1.414 . S
C3220 C3223 1.499 . S
C3221 H3195 0.950 . S
C3221 C3220 1.414 . S
C3221 C3222 1.374 . S
C3222 H3196 0.950 . S
C3222 C3218 1.385 . S
C3222 C3221 1.374 . S
C3223 C3220 1.499 . S
C3223 C3224 1.373 . S
C3223 C3225 1.389 . S
C3224 H3197 0.950 . S
C3224 C3210 1.377 . S
C3224 C3223 1.373 . S
C3225 C3209 1.377 . S
C3225 C3223 1.389 . S
C3225 C3226 1.524 . S
C3226 C3225 1.524 . S
C3226 C3227 1.397 . S
C3226 C3231 1.363 . S
C3227 H3198 0.950 . S
C3227 C3226 1.397 . S
C3227 C3228 1.334 . S
C3228 H3199 0.950 . S
C3228 C3227 1.334 . S
C3228 C3229 1.287 . S
C3229 C3228 1.287 . S
C3229 C3230 1.524 . S
C3229 H3232 0.999 . S
C3230 H3200 0.950 . S
C3230 C3229 1.524 . S
C3230 C3231 1.415 . S
C3231 H3201 0.950 . S
C3231 C3226 1.363 . S
C3231 C3230 1.415 . S
H3232 C3229 0.999 . S
H3233 C3214 0.913 . S
H3234 C3252 0.951 . S
H3235 C3254 0.951 . S
H3236 C3256 0.950 . S
H3237 C3257 0.950 . S
H3238 C3259 0.950 . S
H3239 C3262 0.950 . S
H3240 C3263 0.950 . S
H3241 C3265 0.950 . S
H3242 C3266 0.950 . S
H3243 C3267 0.951 . S
H3244 C3269 0.951 . S
H3245 C3271 0.950 . S
H3246 C3272 0.950 . S
H3247 C3274 0.950 . S
H3248 C3277 0.950 . S
H3249 C3278 0.950 . S
H3250 C3280 0.950 . S
H3251 C3281 0.950 . S
C3252 H3234 0.951 . S
C3252 C3253 1.366 . S
C3252 C3254 1.388 . S
C3253 C3252 1.366 . S
C3253 C3257 1.385 . S
C3254 H3235 0.951 . S
C3254 C3252 1.388 . S
C3254 C3255 1.366 . S
C3255 C3254 1.366 . S
C3255 C3256 1.414 . S
C3255 C3258 1.499 . S
C3256 H3236 0.950 . S
C3256 C3255 1.414 . S
C3256 C3257 1.374 . S
C3257 H3237 0.950 . S
C3257 C3253 1.385 . S
C3257 C3256 1.374 . S
C3258 C3255 1.499 . S
C3258 C3259 1.373 . S
C3258 C3260 1.389 . S
C3259 H3238 0.950 . S
C3259 C3258 1.373 . S
C3259 C3275 1.377 . S
C3260 C3258 1.389 . S
C3260 C3261 1.524 . S
C3260 C3274 1.377 . S
C3261 C3260 1.524 . S
C3261 C3262 1.397 . S
C3261 C3266 1.363 . S
C3262 H3239 0.950 . S
C3262 C3261 1.397 . S
C3262 C3263 1.334 . S
C3263 H3240 0.950 . S
C3263 C3262 1.334 . S
C3263 C3264 1.287 . S
C3264 C3263 1.287 . S
C3264 C3265 1.524 . S
C3264 H3283 0.913 . S
C3265 H3241 0.950 . S
C3265 C3264 1.524 . S
C3265 C3266 1.415 . S
C3266 H3242 0.950 . S
C3266 C3261 1.363 . S
C3266 C3265 1.415 . S
C3267 H3243 0.951 . S
C3267 C3268 1.366 . S
C3267 C3269 1.388 . S
C3268 C3267 1.366 . S
C3268 C3272 1.385 . S
C3269 H3244 0.951 . S
C3269 C3267 1.388 . S
C3269 C3270 1.366 . S
C3270 C3269 1.366 . S
C3270 C3271 1.414 . S
C3270 C3273 1.499 . S
C3271 H3245 0.950 . S
C3271 C3270 1.414 . S
C3271 C3272 1.374 . S
C3272 H3246 0.950 . S
C3272 C3268 1.385 . S
C3272 C3271 1.374 . S
C3273 C3270 1.499 . S
C3273 C3274 1.373 . S
C3273 C3275 1.389 . S
C3274 H3247 0.950 . S
C3274 C3260 1.377 . S
C3274 C3273 1.373 . S
C3275 C3259 1.377 . S
C3275 C3273 1.389 . S
C3275 C3276 1.524 . S
C3276 C3275 1.524 . S
C3276 C3277 1.397 . S
C3276 C3281 1.363 . S
C3277 H3248 0.950 . S
C3277 C3276 1.397 . S
C3277 C3278 1.334 . S
C3278 H3249 0.950 . S
C3278 C3277 1.334 . S
C3278 C3279 1.287 . S
C3279 C3278 1.287 . S
C3279 C3280 1.524 . S
C3279 H3282 0.999 . S
C3280 H3250 0.950 . S
C3280 C3279 1.524 . S
C3280 C3281 1.415 . S
C3281 H3251 0.950 . S
C3281 C3276 1.363 . S
C3281 C3280 1.415 . S
H3282 C3279 0.999 . S
H3283 C3264 0.913 . S
H3284 C3302 0.951 . S
H3285 C3304 0.951 . S
H3286 C3306 0.950 . S
H3287 C3307 0.950 . S
H3288 C3309 0.950 . S
H3289 C3312 0.950 . S
H3290 C3313 0.950 . S
H3291 C3315 0.950 . S
H3292 C3316 0.950 . S
H3293 C3317 0.951 . S
H3294 C3319 0.951 . S
H3295 C3321 0.950 . S
H3296 C3322 0.950 . S
H3297 C3324 0.950 . S
H3298 C3327 0.950 . S
H3299 C3328 0.950 . S
H3300 C3330 0.950 . S
H3301 C3331 0.950 . S
C3302 H3284 0.951 . S
C3302 C3303 1.366 . S
C3302 C3304 1.388 . S
C3303 C3302 1.366 . S
C3303 C3307 1.385 . S
C3304 H3285 0.951 . S
C3304 C3302 1.388 . S
C3304 C3305 1.366 . S
C3305 C3304 1.366 . S
C3305 C3306 1.414 . S
C3305 C3308 1.499 . S
C3306 H3286 0.950 . S
C3306 C3305 1.414 . S
C3306 C3307 1.374 . S
C3307 H3287 0.950 . S
C3307 C3303 1.385 . S
C3307 C3306 1.374 . S
C3308 C3305 1.499 . S
C3308 C3309 1.373 . S
C3308 C3310 1.389 . S
C3309 H3288 0.950 . S
C3309 C3308 1.373 . S
C3309 C3325 1.377 . S
C3310 C3308 1.389 . S
C3310 C3311 1.524 . S
C3310 C3324 1.377 . S
C3311 C3310 1.524 . S
C3311 C3312 1.397 . S
C3311 C3316 1.363 . S
C3312 H3289 0.950 . S
C3312 C3311 1.397 . S
C3312 C3313 1.334 . S
C3313 H3290 0.950 . S
C3313 C3312 1.334 . S
C3313 C3314 1.287 . S
C3314 C3313 1.287 . S
C3314 C3315 1.524 . S
C3314 H3333 0.913 . S
C3315 H3291 0.950 . S
C3315 C3314 1.524 . S
C3315 C3316 1.415 . S
C3316 H3292 0.950 . S
C3316 C3311 1.363 . S
C3316 C3315 1.415 . S
C3317 H3293 0.951 . S
C3317 C3318 1.366 . S
C3317 C3319 1.388 . S
C3318 C3317 1.366 . S
C3318 C3322 1.385 . S
C3319 H3294 0.951 . S
C3319 C3317 1.388 . S
C3319 C3320 1.366 . S
C3320 C3319 1.366 . S
C3320 C3321 1.414 . S
C3320 C3323 1.499 . S
C3321 H3295 0.950 . S
C3321 C3320 1.414 . S
C3321 C3322 1.374 . S
C3322 H3296 0.950 . S
C3322 C3318 1.385 . S
C3322 C3321 1.374 . S
C3323 C3320 1.499 . S
C3323 C3324 1.373 . S
C3323 C3325 1.389 . S
C3324 H3297 0.950 . S
C3324 C3310 1.377 . S
C3324 C3323 1.373 . S
C3325 C3309 1.377 . S
C3325 C3323 1.389 . S
C3325 C3326 1.524 . S
C3326 C3325 1.524 . S
C3326 C3327 1.397 . S
C3326 C3331 1.363 . S
C3327 H3298 0.950 . S
C3327 C3326 1.397 . S
C3327 C3328 1.334 . S
C3328 H3299 0.950 . S
C3328 C3327 1.334 . S
C3328 C3329 1.287 . S
C3329 C3328 1.287 . S
C3329 C3330 1.524 . S
C3329 H3332 0.999 . S
C3330 H3300 0.950 . S
C3330 C3329 1.524 . S
C3330 C3331 1.415 . S
C3331 H3301 0.950 . S
C3331 C3326 1.363 . S
C3331 C3330 1.415 . S
H3332 C3329 0.999 . S
H3333 C3314 0.913 . S
H3334 C3352 0.951 . S
H3335 C3354 0.951 . S
H3336 C3356 0.950 . S
H3337 C3357 0.950 . S
H3338 C3359 0.950 . S
H3339 C3362 0.950 . S
H3340 C3363 0.950 . S
H3341 C3365 0.950 . S
H3342 C3366 0.950 . S
H3343 C3367 0.951 . S
H3344 C3369 0.951 . S
H3345 C3371 0.950 . S
H3346 C3372 0.950 . S
H3347 C3374 0.950 . S
H3348 C3377 0.950 . S
H3349 C3378 0.950 . S
H3350 C3380 0.950 . S
H3351 C3381 0.950 . S
C3352 H3334 0.951 . S
C3352 C3353 1.366 . S
C3352 C3354 1.388 . S
C3353 C3352 1.366 . S
C3353 C3357 1.385 . S
C3354 H3335 0.951 . S
C3354 C3352 1.388 . S
C3354 C3355 1.366 . S
C3355 C3354 1.366 . S
C3355 C3356 1.414 . S
C3355 C3358 1.499 . S
C3356 H3336 0.950 . S
C3356 C3355 1.414 . S
C3356 C3357 1.374 . S
C3357 H3337 0.950 . S
C3357 C3353 1.385 . S
C3357 C3356 1.374 . S
C3358 C3355 1.499 . S
C3358 C3359 1.373 . S
C3358 C3360 1.389 . S
C3359 H3338 0.950 . S
C3359 C3358 1.373 . S
C3359 C3375 1.377 . S
C3360 C3358 1.389 . S
C3360 C3361 1.524 . S
C3360 C3374 1.377 . S
C3361 C3360 1.524 . S
C3361 C3362 1.397 . S
C3361 C3366 1.363 . S
C3362 H3339 0.950 . S
C3362 C3361 1.397 . S
C3362 C3363 1.334 . S
C3363 H3340 0.950 . S
C3363 C3362 1.334 . S
C3363 C3364 1.287 . S
C3364 C3363 1.287 . S
C3364 C3365 1.524 . S
C3364 H3383 0.913 . S
C3365 H3341 0.950 . S
C3365 C3364 1.524 . S
C3365 C3366 1.415 . S
C3366 H3342 0.950 . S
C3366 C3361 1.363 . S
C3366 C3365 1.415 . S
C3367 H3343 0.951 . S
C3367 C3368 1.366 . S
C3367 C3369 1.388 . S
C3368 C3367 1.366 . S
C3368 C3372 1.385 . S
C3369 H3344 0.951 . S
C3369 C3367 1.388 . S
C3369 C3370 1.366 . S
C3370 C3369 1.366 . S
C3370 C3371 1.414 . S
C3370 C3373 1.499 . S
C3371 H3345 0.950 . S
C3371 C3370 1.414 . S
C3371 C3372 1.374 . S
C3372 H3346 0.950 . S
C3372 C3368 1.385 . S
C3372 C3371 1.374 . S
C3373 C3370 1.499 . S
C3373 C3374 1.373 . S
C3373 C3375 1.389 . S
C3374 H3347 0.950 . S
C3374 C3360 1.377 . S
C3374 C3373 1.373 . S
C3375 C3359 1.377 . S
C3375 C3373 1.389 . S
C3375 C3376 1.524 . S
C3376 C3375 1.524 . S
C3376 C3377 1.397 . S
C3376 C3381 1.363 . S
C3377 H3348 0.950 . S
C3377 C3376 1.397 . S
C3377 C3378 1.334 . S
C3378 H3349 0.950 . S
C3378 C3377 1.334 . S
C3378 C3379 1.287 . S
C3379 C3378 1.287 . S
C3379 C3380 1.524 . S
C3379 H3382 0.999 . S
C3380 H3350 0.950 . S
C3380 C3379 1.524 . S
C3380 C3381 1.415 . S
C3381 H3351 0.950 . S
C3381 C3376 1.363 . S
C3381 C3380 1.415 . S
H3382 C3379 0.999 . S
H3383 C3364 0.913 . S
H3384 C3402 0.951 . S
H3385 C3404 0.951 . S
H3386 C3406 0.950 . S
H3387 C3407 0.950 . S
H3388 C3409 0.950 . S
H3389 C3412 0.950 . S
H3390 C3413 0.950 . S
H3391 C3415 0.950 . S
H3392 C3416 0.950 . S
H3393 C3417 0.951 . S
H3394 C3419 0.951 . S
H3395 C3421 0.950 . S
H3396 C3422 0.950 . S
H3397 C3424 0.950 . S
H3398 C3427 0.950 . S
H3399 C3428 0.950 . S
H3400 C3430 0.950 . S
H3401 C3431 0.950 . S
C3402 H3384 0.951 . S
C3402 C3403 1.366 . S
C3402 C3404 1.388 . S
C3403 C3402 1.366 . S
C3403 C3407 1.385 . S
C3404 H3385 0.951 . S
C3404 C3402 1.388 . S
C3404 C3405 1.366 . S
C3405 C3404 1.366 . S
C3405 C3406 1.414 . S
C3405 C3408 1.499 . S
C3406 H3386 0.950 . S
C3406 C3405 1.414 . S
C3406 C3407 1.374 . S
C3407 H3387 0.950 . S
C3407 C3403 1.385 . S
C3407 C3406 1.374 . S
C3408 C3405 1.499 . S
C3408 C3409 1.373 . S
C3408 C3410 1.389 . S
C3409 H3388 0.950 . S
C3409 C3408 1.373 . S
C3409 C3425 1.377 . S
C3410 C3408 1.389 . S
C3410 C3411 1.524 . S
C3410 C3424 1.377 . S
C3411 C3410 1.524 . S
C3411 C3412 1.397 . S
C3411 C3416 1.363 . S
C3412 H3389 0.950 . S
C3412 C3411 1.397 . S
C3412 C3413 1.334 . S
C3413 H3390 0.950 . S
C3413 C3412 1.334 . S
C3413 C3414 1.287 . S
C3414 C3413 1.287 . S
C3414 C3415 1.524 . S
C3414 H3433 0.913 . S
C3415 H3391 0.950 . S
C3415 C3414 1.524 . S
C3415 C3416 1.415 . S
C3416 H3392 0.950 . S
C3416 C3411 1.363 . S
C3416 C3415 1.415 . S
C3417 H3393 0.951 . S
C3417 C3418 1.366 . S
C3417 C3419 1.388 . S
C3418 C3417 1.366 . S
C3418 C3422 1.385 . S
C3419 H3394 0.951 . S
C3419 C3417 1.388 . S
C3419 C3420 1.366 . S
C3420 C3419 1.366 . S
C3420 C3421 1.414 . S
C3420 C3423 1.499 . S
C3421 H3395 0.950 . S
C3421 C3420 1.414 . S
C3421 C3422 1.374 . S
C3422 H3396 0.950 . S
C3422 C3418 1.385 . S
C3422 C3421 1.374 . S
C3423 C3420 1.499 . S
C3423 C3424 1.373 . S
C3423 C3425 1.389 . S
C3424 H3397 0.950 . S
C3424 C3410 1.377 . S
C3424 C3423 1.373 . S
C3425 C3409 1.377 . S
C3425 C3423 1.389 . S
C3425 C3426 1.524 . S
C3426 C3425 1.524 . S
C3426 C3427 1.397 . S
C3426 C3431 1.363 . S
C3427 H3398 0.950 . S
C3427 C3426 1.397 . S
C3427 C3428 1.334 . S
C3428 H3399 0.950 . S
C3428 C3427 1.334 . S
C3428 C3429 1.287 . S
C3429 C3428 1.287 . S
C3429 C3430 1.524 . S
C3429 H3432 0.999 . S
C3430 H3400 0.950 . S
C3430 C3429 1.524 . S
C3430 C3431 1.415 . S
C3431 H3401 0.950 . S
C3431 C3426 1.363 . S
C3431 C3430 1.415 . S
H3432 C3429 0.999 . S
H3433 C3414 0.913 . S
H3434 C3452 0.951 . S
H3435 C3454 0.951 . S
H3436 C3456 0.950 . S
H3437 C3457 0.950 . S
H3438 C3459 0.950 . S
H3439 C3462 0.950 . S
H3440 C3463 0.950 . S
H3441 C3465 0.950 . S
H3442 C3466 0.950 . S
H3443 C3467 0.951 . S
H3444 C3469 0.951 . S
H3445 C3471 0.950 . S
H3446 C3472 0.950 . S
H3447 C3474 0.950 . S
H3448 C3477 0.950 . S
H3449 C3478 0.950 . S
H3450 C3480 0.950 . S
H3451 C3481 0.950 . S
C3452 H3434 0.951 . S
C3452 C3453 1.366 . S
C3452 C3454 1.388 . S
C3453 C3452 1.366 . S
C3453 C3457 1.385 . S
C3454 H3435 0.951 . S
C3454 C3452 1.388 . S
C3454 C3455 1.366 . S
C3455 C3454 1.366 . S
C3455 C3456 1.414 . S
C3455 C3458 1.499 . S
C3456 H3436 0.950 . S
C3456 C3455 1.414 . S
C3456 C3457 1.374 . S
C3457 H3437 0.950 . S
C3457 C3453 1.385 . S
C3457 C3456 1.374 . S
C3458 C3455 1.499 . S
C3458 C3459 1.373 . S
C3458 C3460 1.389 . S
C3459 H3438 0.950 . S
C3459 C3458 1.373 . S
C3459 C3475 1.377 . S
C3460 C3458 1.389 . S
C3460 C3461 1.524 . S
C3460 C3474 1.377 . S
C3461 C3460 1.524 . S
C3461 C3462 1.397 . S
C3461 C3466 1.363 . S
C3462 H3439 0.950 . S
C3462 C3461 1.397 . S
C3462 C3463 1.334 . S
C3463 H3440 0.950 . S
C3463 C3462 1.334 . S
C3463 C3464 1.287 . S
C3464 C3463 1.287 . S
C3464 C3465 1.524 . S
C3464 H3483 0.913 . S
C3465 H3441 0.950 . S
C3465 C3464 1.524 . S
C3465 C3466 1.415 . S
C3466 H3442 0.950 . S
C3466 C3461 1.363 . S
C3466 C3465 1.415 . S
C3467 H3443 0.951 . S
C3467 C3468 1.366 . S
C3467 C3469 1.388 . S
C3468 C3467 1.366 . S
C3468 C3472 1.385 . S
C3469 H3444 0.951 . S
C3469 C3467 1.388 . S
C3469 C3470 1.366 . S
C3470 C3469 1.366 . S
C3470 C3471 1.414 . S
C3470 C3473 1.499 . S
C3471 H3445 0.950 . S
C3471 C3470 1.414 . S
C3471 C3472 1.374 . S
C3472 H3446 0.950 . S
C3472 C3468 1.385 . S
C3472 C3471 1.374 . S
C3473 C3470 1.499 . S
C3473 C3474 1.373 . S
C3473 C3475 1.389 . S
C3474 H3447 0.950 . S
C3474 C3460 1.377 . S
C3474 C3473 1.373 . S
C3475 C3459 1.377 . S
C3475 C3473 1.389 . S
C3475 C3476 1.524 . S
C3476 C3475 1.524 . S
C3476 C3477 1.397 . S
C3476 C3481 1.363 . S
C3477 H3448 0.950 . S
C3477 C3476 1.397 . S
C3477 C3478 1.334 . S
C3478 H3449 0.950 . S
C3478 C3477 1.334 . S
C3478 C3479 1.287 . S
C3479 C3478 1.287 . S
C3479 C3480 1.524 . S
C3479 H3482 0.999 . S
C3480 H3450 0.950 . S
C3480 C3479 1.524 . S
C3480 C3481 1.415 . S
C3481 H3451 0.950 . S
C3481 C3476 1.363 . S
C3481 C3480 1.415 . S
H3482 C3479 0.999 . S
H3483 C3464 0.913 . S
H3484 C3502 0.951 . S
H3485 C3504 0.951 . S
H3486 C3506 0.950 . S
H3487 C3507 0.950 . S
H3488 C3509 0.950 . S
H3489 C3512 0.950 . S
H3490 C3513 0.950 1_545 S
H3491 C3515 0.950 . S
H3492 C3516 0.950 . S
H3493 C3517 0.951 . S
H3494 C3519 0.951 . S
H3495 C3521 0.950 . S
H3496 C3522 0.950 . S
H3497 C3524 0.950 . S
H3498 C3527 0.950 . S
H3499 C3528 0.950 . S
H3500 C3530 0.950 . S
H3501 C3531 0.950 . S
C3502 H3484 0.951 . S
C3502 C3503 1.366 . S
C3502 C3504 1.388 . S
C3503 C3502 1.366 . S
C3503 C3507 1.385 . S
C3504 H3485 0.951 . S
C3504 C3502 1.388 . S
C3504 C3505 1.366 . S
C3505 C3504 1.366 . S
C3505 C3506 1.414 . S
C3505 C3508 1.499 . S
C3506 H3486 0.950 . S
C3506 C3505 1.414 . S
C3506 C3507 1.374 . S
C3507 H3487 0.950 . S
C3507 C3503 1.385 . S
C3507 C3506 1.374 . S
C3508 C3505 1.499 . S
C3508 C3509 1.373 . S
C3508 C3510 1.389 . S
C3509 H3488 0.950 . S
C3509 C3508 1.373 . S
C3509 C3525 1.377 . S
C3510 C3508 1.389 . S
C3510 C3511 1.524 . S
C3510 C3524 1.377 . S
C3511 C3510 1.524 . S
C3511 C3512 1.397 . S
C3511 C3516 1.363 . S
C3512 H3489 0.950 . S
C3512 C3511 1.397 . S
C3512 C3513 1.334 . S
C3513 H3490 0.950 1_565 S
C3513 C3512 1.334 . S
C3513 C3514 1.287 . S
C3514 C3513 1.287 . S
C3514 C3515 1.524 . S
C3514 H3533 0.913 1_565 S
C3515 H3491 0.950 . S
C3515 C3514 1.524 . S
C3515 C3516 1.415 . S
C3516 H3492 0.950 . S
C3516 C3511 1.363 . S
C3516 C3515 1.415 . S
C3517 H3493 0.951 . S
C3517 C3518 1.366 . S
C3517 C3519 1.388 . S
C3518 C3517 1.366 . S
C3518 C3522 1.385 . S
C3519 H3494 0.951 . S
C3519 C3517 1.388 . S
C3519 C3520 1.366 . S
C3520 C3519 1.366 . S
C3520 C3521 1.414 . S
C3520 C3523 1.499 . S
C3521 H3495 0.950 . S
C3521 C3520 1.414 . S
C3521 C3522 1.374 . S
C3522 H3496 0.950 . S
C3522 C3518 1.385 . S
C3522 C3521 1.374 . S
C3523 C3520 1.499 . S
C3523 C3524 1.373 . S
C3523 C3525 1.389 . S
C3524 H3497 0.950 . S
C3524 C3510 1.377 . S
C3524 C3523 1.373 . S
C3525 C3509 1.377 . S
C3525 C3523 1.389 . S
C3525 C3526 1.524 . S
C3526 C3525 1.524 . S
C3526 C3527 1.397 . S
C3526 C3531 1.363 . S
C3527 H3498 0.950 . S
C3527 C3526 1.397 . S
C3527 C3528 1.334 . S
C3528 H3499 0.950 . S
C3528 C3527 1.334 . S
C3528 C3529 1.287 . S
C3529 C3528 1.287 . S
C3529 C3530 1.524 . S
C3529 H3532 0.999 . S
C3530 H3500 0.950 . S
C3530 C3529 1.524 . S
C3530 C3531 1.415 . S
C3531 H3501 0.950 . S
C3531 C3526 1.363 . S
C3531 C3530 1.415 . S
H3532 C3529 0.999 . S
H3533 C3514 0.913 1_545 S
H3534 C3552 0.951 . S
H3535 C3554 0.951 . S
H3536 C3556 0.950 . S
H3537 C3557 0.950 . S
H3538 C3559 0.950 . S
H3539 C3562 0.950 . S
H3540 C3563 0.950 . S
H3541 C3565 0.950 . S
H3542 C3566 0.950 . S
H3543 C3567 0.951 . S
H3544 C3569 0.951 . S
H3545 C3571 0.950 . S
H3546 C3572 0.950 . S
H3547 C3574 0.950 . S
H3548 C3577 0.950 . S
H3549 C3578 0.950 . S
H3550 C3580 0.950 . S
H3551 C3581 0.950 . S
C3552 H3534 0.951 . S
C3552 C3553 1.366 . S
C3552 C3554 1.388 . S
C3553 C3552 1.366 . S
C3553 C3557 1.385 1_554 S
C3554 H3535 0.951 . S
C3554 C3552 1.388 . S
C3554 C3555 1.366 1_554 S
C3555 C3554 1.366 1_556 S
C3555 C3556 1.414 . S
C3555 C3558 1.499 . S
C3556 H3536 0.950 . S
C3556 C3555 1.414 . S
C3556 C3557 1.374 . S
C3557 H3537 0.950 . S
C3557 C3553 1.385 1_556 S
C3557 C3556 1.374 . S
C3558 C3555 1.499 . S
C3558 C3559 1.373 . S
C3558 C3560 1.389 . S
C3559 H3538 0.950 . S
C3559 C3558 1.373 . S
C3559 C3575 1.377 . S
C3560 C3558 1.389 . S
C3560 C3561 1.524 . S
C3560 C3574 1.377 . S
C3561 C3560 1.524 . S
C3561 C3562 1.397 . S
C3561 C3566 1.363 . S
C3562 H3539 0.950 . S
C3562 C3561 1.397 . S
C3562 C3563 1.334 . S
C3563 H3540 0.950 . S
C3563 C3562 1.334 . S
C3563 C3564 1.287 . S
C3564 C3563 1.287 . S
C3564 C3565 1.524 . S
C3564 H3583 0.913 1_545 S
C3565 H3541 0.950 . S
C3565 C3564 1.524 . S
C3565 C3566 1.415 . S
C3566 H3542 0.950 . S
C3566 C3561 1.363 . S
C3566 C3565 1.415 . S
C3567 H3543 0.951 . S
C3567 C3568 1.366 . S
C3567 C3569 1.388 . S
C3568 C3567 1.366 . S
C3568 C3572 1.385 . S
C3569 H3544 0.951 . S
C3569 C3567 1.388 . S
C3569 C3570 1.366 . S
C3570 C3569 1.366 . S
C3570 C3571 1.414 . S
C3570 C3573 1.499 . S
C3571 H3545 0.950 . S
C3571 C3570 1.414 . S
C3571 C3572 1.374 . S
C3572 H3546 0.950 . S
C3572 C3568 1.385 . S
C3572 C3571 1.374 . S
C3573 C3570 1.499 . S
C3573 C3574 1.373 . S
C3573 C3575 1.389 . S
C3574 H3547 0.950 . S
C3574 C3560 1.377 . S
C3574 C3573 1.373 . S
C3575 C3559 1.377 . S
C3575 C3573 1.389 . S
C3575 C3576 1.524 . S
C3576 C3575 1.524 . S
C3576 C3577 1.397 . S
C3576 C3581 1.363 . S
C3577 H3548 0.950 . S
C3577 C3576 1.397 . S
C3577 C3578 1.334 . S
C3578 H3549 0.950 . S
C3578 C3577 1.334 . S
C3578 C3579 1.287 . S
C3579 C3578 1.287 . S
C3579 C3580 1.524 . S
C3579 H3582 0.999 . S
C3580 H3550 0.950 . S
C3580 C3579 1.524 . S
C3580 C3581 1.415 . S
C3581 H3551 0.950 . S
C3581 C3576 1.363 . S
C3581 C3580 1.415 . S
H3582 C3579 0.999 . S
H3583 C3564 0.913 1_565 S
H3584 C3602 0.951 . S
H3585 C3604 0.951 . S
H3586 C3606 0.950 1_554 S
H3587 C3607 0.950 . S
H3588 C3609 0.950 . S
H3589 C3612 0.950 . S
H3590 C3613 0.950 . S
H3591 C3615 0.950 . S
H3592 C3616 0.950 . S
H3593 C3617 0.951 . S
H3594 C3619 0.951 . S
H3595 C3621 0.950 . S
H3596 C3622 0.950 . S
H3597 C3624 0.950 . S
H3598 C3627 0.950 . S
H3599 C3628 0.950 . S
H3600 C3630 0.933 1_554 S
H3601 C3631 0.989 . S
C3602 H3584 0.951 . S
C3602 C3603 1.366 . S
C3602 C3604 1.388 . S
C3603 C3602 1.366 . S
C3603 C3607 1.385 1_556 S
C3604 H3585 0.951 . S
C3604 C3602 1.388 . S
C3604 C3605 1.366 . S
C3605 C3604 1.366 . S
C3605 C3606 1.414 . S
C3605 C3608 1.499 . S
C3606 H3586 0.950 1_556 S
C3606 C3605 1.414 . S
C3606 C3607 1.374 1_556 S
C3607 H3587 0.950 . S
C3607 C3603 1.385 1_554 S
C3607 C3606 1.374 1_554 S
C3608 C3605 1.499 . S
C3608 C3609 1.373 . S
C3608 C3610 1.389 . S
C3609 H3588 0.950 . S
C3609 C3608 1.373 . S
C3609 C3625 1.377 . S
C3610 C3608 1.389 . S
C3610 C3611 1.524 . S
C3610 C3624 1.377 . S
C3611 C3610 1.524 . S
C3611 C3612 1.397 . S
C3611 C3616 1.363 . S
C3612 H3589 0.950 . S
C3612 C3611 1.397 . S
C3612 C3613 1.334 . S
C3613 H3590 0.950 . S
C3613 C3612 1.334 . S
C3613 C3614 1.287 . S
C3614 C3613 1.287 . S
C3614 C3615 1.524 . S
C3614 H3633 0.913 . S
C3615 H3591 0.950 . S
C3615 C3614 1.524 . S
C3615 C3616 1.415 . S
C3616 H3592 0.950 . S
C3616 C3611 1.363 . S
C3616 C3615 1.415 . S
C3617 H3593 0.951 . S
C3617 C3618 1.366 . S
C3617 C3619 1.388 . S
C3618 C3617 1.366 . S
C3618 C3622 1.385 . S
C3619 H3594 0.951 . S
C3619 C3617 1.388 . S
C3619 C3620 1.366 . S
C3620 C3619 1.366 . S
C3620 C3621 1.414 . S
C3620 C3623 1.499 . S
C3621 H3595 0.950 . S
C3621 C3620 1.414 . S
C3621 C3622 1.374 . S
C3622 H3596 0.950 . S
C3622 C3618 1.385 . S
C3622 C3621 1.374 . S
C3623 C3620 1.499 . S
C3623 C3624 1.373 . S
C3623 C3625 1.389 . S
C3624 H3597 0.950 . S
C3624 C3610 1.377 . S
C3624 C3623 1.373 . S
C3625 C3609 1.377 . S
C3625 C3623 1.389 . S
C3625 C3626 1.524 . S
C3626 C3625 1.524 . S
C3626 C3627 1.397 . S
C3626 C3631 1.363 . S
C3627 H3598 0.950 . S
C3627 C3626 1.397 . S
C3627 C3628 1.334 . S
C3628 H3599 0.950 . S
C3628 C3627 1.334 . S
C3628 C3629 1.287 . S
C3629 C3628 1.287 . S
C3629 C3630 1.535 . S
C3629 H3632 0.999 . S
C3630 H3600 0.933 1_556 S
C3630 C3629 1.535 . S
C3630 C3631 1.423 . S
C3631 H3601 0.989 . S
C3631 C3626 1.363 . S
C3631 C3630 1.423 . S
H3632 C3629 0.999 . S
H3633 C3614 0.913 . S
H3634 C3652 0.951 . S
H3635 C3654 0.951 . S
H3636 C3656 0.950 . S
H3637 C3657 0.950 . S
H3638 C3659 0.950 . S
H3639 C3662 0.950 . S
H3640 C3663 0.950 . S
H3641 C3665 0.950 . S
H3642 C3666 0.950 . S
H3643 C3667 0.951 . S
H3644 C3669 0.951 . S
H3645 C3671 0.950 . S
H3646 C3672 0.950 . S
H3647 C3674 0.956 . S
H3648 C3677 0.950 . S
H3649 C3678 0.950 . S
H3650 C3680 0.950 . S
H3651 C3681 0.950 1_554 S
C3652 H3634 0.951 . S
C3652 C3653 1.366 . S
C3652 C3654 1.388 . S
C3653 C3652 1.366 . S
C3653 C3657 1.385 . S
C3654 H3635 0.951 . S
C3654 C3652 1.388 . S
C3654 C3655 1.366 . S
C3655 C3654 1.366 . S
C3655 C3656 1.414 . S
C3655 C3658 1.499 . S
C3656 H3636 0.950 . S
C3656 C3655 1.414 . S
C3656 C3657 1.374 . S
C3657 H3637 0.950 . S
C3657 C3653 1.385 . S
C3657 C3656 1.374 . S
C3658 C3655 1.499 . S
C3658 C3659 1.373 . S
C3658 C3660 1.389 . S
C3659 H3638 0.950 . S
C3659 C3658 1.373 . S
C3659 C3675 1.377 1_554 S
C3660 C3658 1.389 . S
C3660 C3661 1.524 . S
C3660 C3674 1.377 . S
C3661 C3660 1.524 . S
C3661 C3662 1.397 . S
C3661 C3666 1.363 . S
C3662 H3639 0.950 . S
C3662 C3661 1.397 . S
C3662 C3663 1.334 . S
C3663 H3640 0.950 . S
C3663 C3662 1.334 . S
C3663 C3664 1.287 . S
C3664 C3663 1.287 . S
C3664 C3665 1.524 . S
C3664 H3683 0.913 . S
C3665 H3641 0.950 . S
C3665 C3664 1.524 . S
C3665 C3666 1.415 . S
C3666 H3642 0.950 . S
C3666 C3661 1.363 . S
C3666 C3665 1.415 . S
C3667 H3643 0.951 . S
C3667 C3668 1.366 . S
C3667 C3669 1.388 . S
C3668 C3667 1.366 . S
C3668 C3672 1.385 . S
C3669 H3644 0.951 . S
C3669 C3667 1.388 . S
C3669 C3670 1.366 . S
C3670 C3669 1.366 . S
C3670 C3671 1.414 . S
C3670 C3673 1.499 . S
C3671 H3645 0.950 . S
C3671 C3670 1.414 . S
C3671 C3672 1.374 . S
C3672 H3646 0.950 . S
C3672 C3668 1.385 . S
C3672 C3671 1.374 . S
C3673 C3670 1.499 . S
C3673 C3674 1.373 1_556 S
C3673 C3675 1.389 . S
C3674 H3647 0.956 . S
C3674 C3660 1.377 . S
C3674 C3673 1.373 1_554 S
C3675 C3659 1.377 1_556 S
C3675 C3673 1.389 . S
C3675 C3676 1.524 . S
C3676 C3675 1.524 . S
C3676 C3677 1.397 . S
C3676 C3681 1.363 . S
C3677 H3648 0.950 . S
C3677 C3676 1.397 . S
C3677 C3678 1.334 . S
C3678 H3649 0.950 . S
C3678 C3677 1.334 . S
C3678 C3679 1.287 . S
C3679 C3678 1.287 . S
C3679 C3680 1.524 . S
C3679 H3682 0.999 . S
C3680 H3650 0.950 . S
C3680 C3679 1.524 . S
C3680 C3681 1.415 . S
C3681 H3651 0.950 1_556 S
C3681 C3676 1.363 . S
C3681 C3680 1.415 . S
H3682 C3679 0.999 . S
H3683 C3664 0.913 . S
H3684 C3702 0.951 . S
H3685 C3704 0.951 1_556 S
H3686 C3706 0.950 . S
H3687 C3707 0.950 . S
H3688 C3709 0.950 1_554 S
H3689 C3712 0.950 . S
H3690 C3713 0.950 . S
H3691 C3715 0.950 . S
H3692 C3716 0.950 . S
H3693 C3717 0.951 . S
H3694 C3719 0.951 . S
H3695 C3721 0.950 . S
H3696 C3722 0.950 . S
H3697 C3724 0.950 . S
H3698 C3727 0.950 . S
H3699 C3728 0.950 . S
H3700 C3730 0.950 . S
H3701 C3731 0.946 1_556 S
C3702 H3684 0.951 . S
C3702 C3703 1.366 . S
C3702 C3704 1.388 . S
C3703 C3702 1.366 . S
C3703 C3707 1.385 . S
C3704 H3685 0.951 1_554 S
C3704 C3702 1.388 . S
C3704 C3705 1.366 1_554 S
C3705 C3704 1.366 1_556 S
C3705 C3706 1.414 1_556 S
C3705 C3708 1.499 . S
C3706 H3686 0.950 . S
C3706 C3705 1.414 1_554 S
C3706 C3707 1.374 . S
C3707 H3687 0.950 . S
C3707 C3703 1.385 . S
C3707 C3706 1.374 . S
C3708 C3705 1.499 . S
C3708 C3709 1.373 . S
C3708 C3710 1.389 . S
C3709 H3688 0.950 1_556 S
C3709 C3708 1.373 . S
C3709 C3725 1.377 . S
C3710 C3708 1.389 . S
C3710 C3711 1.524 . S
C3710 C3724 1.377 . S
C3711 C3710 1.524 . S
C3711 C3712 1.397 . S
C3711 C3716 1.363 . S
C3712 H3689 0.950 . S
C3712 C3711 1.397 . S
C3712 C3713 1.334 . S
C3713 H3690 0.950 . S
C3713 C3712 1.334 . S
C3713 C3714 1.287 . S
C3714 C3713 1.287 . S
C3714 C3715 1.524 . S
C3714 H3733 0.913 . S
C3715 H3691 0.950 . S
C3715 C3714 1.524 . S
C3715 C3716 1.415 . S
C3716 H3692 0.950 . S
C3716 C3711 1.363 . S
C3716 C3715 1.415 . S
C3717 H3693 0.951 . S
C3717 C3718 1.366 . S
C3717 C3719 1.388 . S
C3718 C3717 1.366 . S
C3718 C3722 1.385 . S
C3719 H3694 0.951 . S
C3719 C3717 1.388 . S
C3719 C3720 1.366 . S
C3720 C3719 1.366 . S
C3720 C3721 1.414 . S
C3720 C3723 1.499 . S
C3721 H3695 0.950 . S
C3721 C3720 1.414 . S
C3721 C3722 1.374 . S
C3722 H3696 0.950 . S
C3722 C3718 1.385 . S
C3722 C3721 1.374 . S
C3723 C3720 1.499 . S
C3723 C3724 1.373 . S
C3723 C3725 1.389 . S
C3724 H3697 0.950 . S
C3724 C3710 1.377 . S
C3724 C3723 1.373 . S
C3725 C3709 1.377 . S
C3725 C3723 1.389 . S
C3725 C3726 1.524 . S
C3726 C3725 1.524 . S
C3726 C3727 1.397 . S
C3726 C3731 1.363 1_556 S
C3727 H3698 0.950 . S
C3727 C3726 1.397 . S
C3727 C3728 1.334 1_556 S
C3728 H3699 0.950 . S
C3728 C3727 1.334 1_554 S
C3728 C3729 1.287 . S
C3729 C3728 1.287 . S
C3729 C3730 1.524 . S
C3729 H3732 0.999 . S
C3730 H3700 0.950 . S
C3730 C3729 1.524 . S
C3730 C3731 1.415 . S
C3731 H3701 0.946 1_554 S
C3731 C3726 1.363 1_554 S
C3731 C3730 1.415 . S
H3732 C3729 0.999 . S
H3733 C3714 0.913 . S
H3734 C3752 0.951 . S
H3735 C3754 0.951 . S
H3736 C3756 0.950 . S
H3737 C3757 0.950 . S
H3738 C3759 0.950 . S
H3739 C3762 0.950 . S
H3740 C3763 0.950 1_554 S
H3741 C3765 0.950 . S
H3742 C3766 0.950 . S
H3743 C3767 0.951 . S
H3744 C3769 0.951 . S
H3745 C3771 0.950 . S
H3746 C3772 0.950 . S
H3747 C3774 0.950 . S
H3748 C3777 0.950 . S
H3749 C3778 0.950 . S
H3750 C3780 0.950 . S
H3751 C3781 0.950 . S
C3752 H3734 0.951 . S
C3752 C3753 1.366 . S
C3752 C3754 1.388 . S
C3753 C3752 1.366 . S
C3753 C3757 1.385 . S
C3754 H3735 0.951 . S
C3754 C3752 1.388 . S
C3754 C3755 1.366 . S
C3755 C3754 1.366 . S
C3755 C3756 1.414 . S
C3755 C3758 1.499 . S
C3756 H3736 0.950 . S
C3756 C3755 1.414 . S
C3756 C3757 1.374 . S
C3757 H3737 0.950 . S
C3757 C3753 1.385 . S
C3757 C3756 1.374 . S
C3758 C3755 1.499 . S
C3758 C3759 1.373 . S
C3758 C3760 1.389 . S
C3759 H3738 0.950 . S
C3759 C3758 1.373 . S
C3759 C3775 1.377 . S
C3760 C3758 1.389 . S
C3760 C3761 1.524 . S
C3760 C3774 1.377 . S
C3761 C3760 1.524 . S
C3761 C3762 1.397 . S
C3761 C3766 1.363 . S
C3762 H3739 0.950 . S
C3762 C3761 1.397 . S
C3762 C3763 1.334 . S
C3763 H3740 0.950 1_556 S
C3763 C3762 1.334 . S
C3763 C3764 1.287 . S
C3764 C3763 1.287 . S
C3764 C3765 1.524 . S
C3764 H3783 0.913 . S
C3765 H3741 0.950 . S
C3765 C3764 1.524 . S
C3765 C3766 1.415 . S
C3766 H3742 0.950 . S
C3766 C3761 1.363 . S
C3766 C3765 1.415 . S
C3767 H3743 0.951 . S
C3767 C3768 1.366 . S
C3767 C3769 1.388 . S
C3768 C3767 1.366 . S
C3768 C3772 1.385 . S
C3769 H3744 0.951 . S
C3769 C3767 1.388 . S
C3769 C3770 1.366 . S
C3770 C3769 1.366 . S
C3770 C3771 1.414 . S
C3770 C3773 1.499 . S
C3771 H3745 0.950 . S
C3771 C3770 1.414 . S
C3771 C3772 1.374 . S
C3772 H3746 0.950 . S
C3772 C3768 1.385 . S
C3772 C3771 1.374 . S
C3773 C3770 1.499 . S
C3773 C3774 1.373 . S
C3773 C3775 1.389 . S
C3774 H3747 0.950 . S
C3774 C3760 1.377 . S
C3774 C3773 1.373 . S
C3775 C3759 1.377 . S
C3775 C3773 1.389 . S
C3775 C3776 1.524 . S
C3776 C3775 1.524 . S
C3776 C3777 1.397 . S
C3776 C3781 1.363 . S
C3777 H3748 0.950 . S
C3777 C3776 1.397 . S
C3777 C3778 1.334 . S
C3778 H3749 0.950 . S
C3778 C3777 1.334 . S
C3778 C3779 1.287 . S
C3779 C3778 1.287 . S
C3779 C3780 1.524 . S
C3779 H3782 0.999 . S
C3780 H3750 0.950 . S
C3780 C3779 1.524 . S
C3780 C3781 1.415 . S
C3781 H3751 0.950 . S
C3781 C3776 1.363 . S
C3781 C3780 1.415 . S
H3782 C3779 0.999 . S
H3783 C3764 0.913 . S
H3784 C3802 0.951 . S
H3785 C3804 0.951 . S
H3786 C3806 0.950 1_556 S
H3787 C3807 0.950 . S
H3788 C3809 0.950 . S
H3789 C3812 0.950 . S
H3790 C3813 0.950 . S
H3791 C3815 0.950 . S
H3792 C3816 0.950 . S
H3793 C3817 0.951 . S
H3794 C3819 0.951 . S
H3795 C3821 0.950 . S
H3796 C3822 0.950 . S
H3797 C3824 0.972 . S
H3798 C3827 0.950 . S
H3799 C3828 0.950 . S
H3800 C3830 0.950 . S
H3801 C3831 0.950 . S
C3802 H3784 0.951 . S
C3802 C3803 1.366 . S
C3802 C3804 1.388 . S
C3803 C3802 1.366 . S
C3803 C3807 1.385 . S
C3804 H3785 0.951 . S
C3804 C3802 1.388 . S
C3804 C3805 1.366 . S
C3805 C3804 1.366 . S
C3805 C3806 1.414 . S
C3805 C3808 1.499 . S
C3806 H3786 0.950 1_554 S
C3806 C3805 1.414 . S
C3806 C3807 1.374 . S
C3807 H3787 0.950 . S
C3807 C3803 1.385 . S
C3807 C3806 1.374 . S
C3808 C3805 1.499 . S
C3808 C3809 1.373 1_554 S
C3808 C3810 1.389 . S
C3809 H3788 0.950 . S
C3809 C3808 1.373 1_556 S
C3809 C3825 1.377 . S
C3810 C3808 1.389 . S
C3810 C3811 1.524 . S
C3810 C3824 1.407 . S
C3811 C3810 1.524 . S
C3811 C3812 1.397 . S
C3811 C3816 1.363 . S
C3812 H3789 0.950 . S
C3812 C3811 1.397 . S
C3812 C3813 1.334 . S
C3813 H3790 0.950 . S
C3813 C3812 1.334 . S
C3813 C3814 1.287 . S
C3814 C3813 1.287 . S
C3814 C3815 1.524 . S
C3814 H3833 0.913 . S
C3815 H3791 0.950 . S
C3815 C3814 1.524 . S
C3815 C3816 1.415 . S
C3816 H3792 0.950 . S
C3816 C3811 1.363 . S
C3816 C3815 1.415 . S
C3817 H3793 0.951 . S
C3817 C3818 1.366 . S
C3817 C3819 1.388 . S
C3818 C3817 1.366 . S
C3818 C3822 1.385 . S
C3819 H3794 0.951 . S
C3819 C3817 1.388 . S
C3819 C3820 1.366 . S
C3820 C3819 1.366 . S
C3820 C3821 1.414 . S
C3820 C3823 1.499 . S
C3821 H3795 0.950 . S
C3821 C3820 1.414 . S
C3821 C3822 1.374 . S
C3822 H3796 0.950 . S
C3822 C3818 1.385 . S
C3822 C3821 1.374 . S
C3823 C3820 1.499 . S
C3823 C3824 1.324 1_556 S
C3823 C3825 1.389 . S
C3824 H3797 0.972 . S
C3824 C3810 1.407 . S
C3824 C3823 1.324 1_554 S
C3825 C3809 1.377 . S
C3825 C3823 1.389 . S
C3825 C3826 1.524 . S
C3826 C3825 1.524 . S
C3826 C3827 1.397 . S
C3826 C3831 1.363 . S
C3827 H3798 0.950 . S
C3827 C3826 1.397 . S
C3827 C3828 1.334 . S
C3828 H3799 0.950 . S
C3828 C3827 1.334 . S
C3828 C3829 1.287 . S
C3829 C3828 1.287 . S
C3829 C3830 1.524 . S
C3829 H3832 0.999 . S
C3830 H3800 0.950 . S
C3830 C3829 1.524 . S
C3830 C3831 1.415 . S
C3831 H3801 0.950 . S
C3831 C3826 1.363 . S
C3831 C3830 1.415 . S
H3832 C3829 0.999 . S
H3833 C3814 0.913 . S
H3834 C3852 0.951 . S
H3835 C3854 0.951 . S
H3836 C3856 0.950 . S
H3837 C3857 0.950 . S
H3838 C3859 0.950 . S
H3839 C3862 0.950 . S
H3840 C3863 0.950 . S
H3841 C3865 0.950 . S
H3842 C3866 0.950 . S
H3843 C3867 0.951 . S
H3844 C3869 0.951 . S
H3845 C3871 0.950 . S
H3846 C3872 0.950 . S
H3847 C3874 0.950 . S
H3848 C3877 0.950 . S
H3849 C3878 0.950 . S
H3850 C3880 0.950 . S
H3851 C3881 0.950 . S
C3852 H3834 0.951 . S
C3852 C3853 1.366 . S
C3852 C3854 1.388 . S
C3853 C3852 1.366 . S
C3853 C3857 1.385 . S
C3854 H3835 0.951 . S
C3854 C3852 1.388 . S
C3854 C3855 1.366 . S
C3855 C3854 1.366 . S
C3855 C3856 1.414 . S
C3855 C3858 1.499 . S
C3856 H3836 0.950 . S
C3856 C3855 1.414 . S
C3856 C3857 1.374 . S
C3857 H3837 0.950 . S
C3857 C3853 1.385 . S
C3857 C3856 1.374 . S
C3858 C3855 1.499 . S
C3858 C3859 1.373 . S
C3858 C3860 1.389 . S
C3859 H3838 0.950 . S
C3859 C3858 1.373 . S
C3859 C3875 1.377 . S
C3860 C3858 1.389 . S
C3860 C3861 1.524 . S
C3860 C3874 1.377 . S
C3861 C3860 1.524 . S
C3861 C3862 1.397 . S
C3861 C3866 1.363 . S
C3862 H3839 0.950 . S
C3862 C3861 1.397 . S
C3862 C3863 1.334 . S
C3863 H3840 0.950 . S
C3863 C3862 1.334 . S
C3863 C3864 1.287 . S
C3864 C3863 1.287 . S
C3864 C3865 1.524 . S
C3864 H3883 0.913 . S
C3865 H3841 0.950 . S
C3865 C3864 1.524 . S
C3865 C3866 1.415 . S
C3866 H3842 0.950 . S
C3866 C3861 1.363 . S
C3866 C3865 1.415 . S
C3867 H3843 0.951 . S
C3867 C3868 1.366 . S
C3867 C3869 1.388 . S
C3868 C3867 1.366 . S
C3868 C3872 1.385 . S
C3869 H3844 0.951 . S
C3869 C3867 1.388 . S
C3869 C3870 1.366 . S
C3870 C3869 1.366 . S
C3870 C3871 1.414 . S
C3870 C3873 1.499 . S
C3871 H3845 0.950 . S
C3871 C3870 1.414 . S
C3871 C3872 1.374 . S
C3872 H3846 0.950 . S
C3872 C3868 1.385 . S
C3872 C3871 1.374 . S
C3873 C3870 1.499 . S
C3873 C3874 1.373 . S
C3873 C3875 1.389 . S
C3874 H3847 0.950 . S
C3874 C3860 1.377 . S
C3874 C3873 1.373 . S
C3875 C3859 1.377 . S
C3875 C3873 1.389 . S
C3875 C3876 1.524 . S
C3876 C3875 1.524 . S
C3876 C3877 1.397 . S
C3876 C3881 1.363 . S
C3877 H3848 0.950 . S
C3877 C3876 1.397 . S
C3877 C3878 1.334 . S
C3878 H3849 0.950 . S
C3878 C3877 1.334 . S
C3878 C3879 1.287 . S
C3879 C3878 1.287 . S
C3879 C3880 1.524 . S
C3879 H3882 0.999 . S
C3880 H3850 0.950 . S
C3880 C3879 1.524 . S
C3880 C3881 1.415 . S
C3881 H3851 0.950 . S
C3881 C3876 1.363 . S
C3881 C3880 1.415 . S
H3882 C3879 0.999 . S
H3883 C3864 0.913 . S
H3884 C3902 0.951 . S
H3885 C3904 0.951 . S
H3886 C3906 0.950 . S
H3887 C3907 0.950 . S
H3888 C3909 0.950 . S
H3889 C3912 0.950 . S
H3890 C3913 0.950 . S
H3891 C3915 0.950 . S
H3892 C3916 0.950 . S
H3893 C3917 0.951 . S
H3894 C3919 0.951 . S
H3895 C3921 0.950 . S
H3896 C3922 0.950 . S
H3897 C3924 0.950 . S
H3898 C3927 0.950 . S
H3899 C3928 0.950 . S
H3900 C3930 0.950 . S
H3901 C3931 0.950 . S
C3902 H3884 0.951 . S
C3902 C3903 1.366 . S
C3902 C3904 1.388 . S
C3903 C3902 1.366 . S
C3903 C3907 1.385 . S
C3904 H3885 0.951 . S
C3904 C3902 1.388 . S
C3904 C3905 1.366 . S
C3905 C3904 1.366 . S
C3905 C3906 1.414 . S
C3905 C3908 1.499 . S
C3906 H3886 0.950 . S
C3906 C3905 1.414 . S
C3906 C3907 1.374 . S
C3907 H3887 0.950 . S
C3907 C3903 1.385 . S
C3907 C3906 1.374 . S
C3908 C3905 1.499 . S
C3908 C3909 1.373 . S
C3908 C3910 1.389 . S
C3909 H3888 0.950 . S
C3909 C3908 1.373 . S
C3909 C3925 1.377 . S
C3910 C3908 1.389 . S
C3910 C3911 1.524 . S
C3910 C3924 1.377 . S
C3911 C3910 1.524 . S
C3911 C3912 1.397 . S
C3911 C3916 1.363 . S
C3912 H3889 0.950 . S
C3912 C3911 1.397 . S
C3912 C3913 1.334 . S
C3913 H3890 0.950 . S
C3913 C3912 1.334 . S
C3913 C3914 1.287 . S
C3914 C3913 1.287 . S
C3914 C3915 1.524 . S
C3914 H3933 0.913 . S
C3915 H3891 0.950 . S
C3915 C3914 1.524 . S
C3915 C3916 1.415 . S
C3916 H3892 0.950 . S
C3916 C3911 1.363 . S
C3916 C3915 1.415 . S
C3917 H3893 0.951 . S
C3917 C3918 1.366 . S
C3917 C3919 1.388 . S
C3918 C3917 1.366 . S
C3918 C3922 1.385 . S
C3919 H3894 0.951 . S
C3919 C3917 1.388 . S
C3919 C3920 1.366 . S
C3920 C3919 1.366 . S
C3920 C3921 1.414 . S
C3920 C3923 1.499 . S
C3921 H3895 0.950 . S
C3921 C3920 1.414 . S
C3921 C3922 1.374 . S
C3922 H3896 0.950 . S
C3922 C3918 1.385 . S
C3922 C3921 1.374 . S
C3923 C3920 1.499 . S
C3923 C3924 1.373 . S
C3923 C3925 1.389 . S
C3924 H3897 0.950 . S
C3924 C3910 1.377 . S
C3924 C3923 1.373 . S
C3925 C3909 1.377 . S
C3925 C3923 1.389 . S
C3925 C3926 1.524 . S
C3926 C3925 1.524 . S
C3926 C3927 1.397 . S
C3926 C3931 1.363 . S
C3927 H3898 0.950 . S
C3927 C3926 1.397 . S
C3927 C3928 1.334 . S
C3928 H3899 0.950 . S
C3928 C3927 1.334 . S
C3928 C3929 1.287 . S
C3929 C3928 1.287 . S
C3929 C3930 1.524 . S
C3929 H3932 0.999 . S
C3930 H3900 0.950 . S
C3930 C3929 1.524 . S
C3930 C3931 1.415 . S
C3931 H3901 0.950 . S
C3931 C3926 1.363 . S
C3931 C3930 1.415 . S
H3932 C3929 0.999 . S
H3933 C3914 0.913 . S
H3934 C3952 0.951 . S
H3935 C3954 0.951 . S
H3936 C3956 0.950 . S
H3937 C3957 0.950 . S
H3938 C3959 0.950 . S
H3939 C3962 0.950 . S
H3940 C3963 0.950 . S
H3941 C3965 0.950 . S
H3942 C3966 0.950 . S
H3943 C3967 0.951 . S
H3944 C3969 0.951 . S
H3945 C3971 0.950 . S
H3946 C3972 0.950 . S
H3947 C3974 0.950 . S
H3948 C3977 0.950 . S
H3949 C3978 0.950 . S
H3950 C3980 0.950 . S
H3951 C3981 0.950 . S
C3952 H3934 0.951 . S
C3952 C3953 1.366 . S
C3952 C3954 1.388 . S
C3953 C3952 1.366 . S
C3953 C3957 1.385 . S
C3954 H3935 0.951 . S
C3954 C3952 1.388 . S
C3954 C3955 1.366 . S
C3955 C3954 1.366 . S
C3955 C3956 1.414 . S
C3955 C3958 1.499 . S
C3956 H3936 0.950 . S
C3956 C3955 1.414 . S
C3956 C3957 1.374 . S
C3957 H3937 0.950 . S
C3957 C3953 1.385 . S
C3957 C3956 1.374 . S
C3958 C3955 1.499 . S
C3958 C3959 1.373 . S
C3958 C3960 1.389 . S
C3959 H3938 0.950 . S
C3959 C3958 1.373 . S
C3959 C3975 1.377 . S
C3960 C3958 1.389 . S
C3960 C3961 1.524 . S
C3960 C3974 1.377 . S
C3961 C3960 1.524 . S
C3961 C3962 1.397 . S
C3961 C3966 1.363 . S
C3962 H3939 0.950 . S
C3962 C3961 1.397 . S
C3962 C3963 1.334 . S
C3963 H3940 0.950 . S
C3963 C3962 1.334 . S
C3963 C3964 1.287 . S
C3964 C3963 1.287 . S
C3964 C3965 1.524 . S
C3964 H3983 0.913 . S
C3965 H3941 0.950 . S
C3965 C3964 1.524 . S
C3965 C3966 1.415 . S
C3966 H3942 0.950 . S
C3966 C3961 1.363 . S
C3966 C3965 1.415 . S
C3967 H3943 0.951 . S
C3967 C3968 1.366 . S
C3967 C3969 1.388 . S
C3968 C3967 1.366 . S
C3968 C3972 1.385 . S
C3969 H3944 0.951 . S
C3969 C3967 1.388 . S
C3969 C3970 1.366 . S
C3970 C3969 1.366 . S
C3970 C3971 1.414 . S
C3970 C3973 1.499 . S
C3971 H3945 0.950 . S
C3971 C3970 1.414 . S
C3971 C3972 1.374 . S
C3972 H3946 0.950 . S
C3972 C3968 1.385 . S
C3972 C3971 1.374 . S
C3973 C3970 1.499 . S
C3973 C3974 1.373 . S
C3973 C3975 1.389 . S
C3974 H3947 0.950 . S
C3974 C3960 1.377 . S
C3974 C3973 1.373 . S
C3975 C3959 1.377 . S
C3975 C3973 1.389 . S
C3975 C3976 1.524 . S
C3976 C3975 1.524 . S
C3976 C3977 1.397 . S
C3976 C3981 1.363 . S
C3977 H3948 0.950 . S
C3977 C3976 1.397 . S
C3977 C3978 1.334 . S
C3978 H3949 0.950 . S
C3978 C3977 1.334 . S
C3978 C3979 1.287 . S
C3979 C3978 1.287 . S
C3979 C3980 1.524 . S
C3979 H3982 0.999 . S
C3980 H3950 0.950 . S
C3980 C3979 1.524 . S
C3980 C3981 1.415 . S
C3981 H3951 0.950 . S
C3981 C3976 1.363 . S
C3981 C3980 1.415 . S
H3982 C3979 0.999 . S
H3983 C3964 0.913 . S
H3984 C4002 0.951 . S
H3985 C4004 0.951 . S
H3986 C4006 0.950 . S
H3987 C4007 0.950 . S
H3988 C4009 0.950 . S
H3989 C4012 0.950 . S
H3990 C4013 0.950 . S
H3991 C4015 0.950 . S
H3992 C4016 0.950 . S
H3993 C4017 0.951 . S
H3994 C4019 0.951 . S
H3995 C4021 0.950 . S
H3996 C4022 0.950 . S
H3997 C4024 0.950 . S
H3998 C4027 0.950 . S
H3999 C4028 0.950 . S
H4000 C4030 0.950 . S
H4001 C4031 0.950 . S
C4002 H3984 0.951 . S
C4002 C4003 1.366 . S
C4002 C4004 1.388 . S
C4003 C4002 1.366 . S
C4003 C4007 1.385 . S
C4004 H3985 0.951 . S
C4004 C4002 1.388 . S
C4004 C4005 1.366 . S
C4005 C4004 1.366 . S
C4005 C4006 1.414 . S
C4005 C4008 1.499 . S
C4006 H3986 0.950 . S
C4006 C4005 1.414 . S
C4006 C4007 1.374 . S
C4007 H3987 0.950 . S
C4007 C4003 1.385 . S
C4007 C4006 1.374 . S
C4008 C4005 1.499 . S
C4008 C4009 1.373 . S
C4008 C4010 1.389 . S
C4009 H3988 0.950 . S
C4009 C4008 1.373 . S
C4009 C4025 1.377 . S
C4010 C4008 1.389 . S
C4010 C4011 1.524 . S
C4010 C4024 1.377 . S
C4011 C4010 1.524 . S
C4011 C4012 1.397 . S
C4011 C4016 1.363 . S
C4012 H3989 0.950 . S
C4012 C4011 1.397 . S
C4012 C4013 1.334 . S
C4013 H3990 0.950 . S
C4013 C4012 1.334 . S
C4013 C4014 1.287 . S
C4014 C4013 1.287 . S
C4014 C4015 1.524 . S
C4014 H4033 0.913 . S
C4015 H3991 0.950 . S
C4015 C4014 1.524 . S
C4015 C4016 1.415 . S
C4016 H3992 0.950 . S
C4016 C4011 1.363 . S
C4016 C4015 1.415 . S
C4017 H3993 0.951 . S
C4017 C4018 1.366 . S
C4017 C4019 1.388 . S
C4018 C4017 1.366 . S
C4018 C4022 1.385 . S
C4019 H3994 0.951 . S
C4019 C4017 1.388 . S
C4019 C4020 1.366 . S
C4020 C4019 1.366 . S
C4020 C4021 1.414 . S
C4020 C4023 1.499 . S
C4021 H3995 0.950 . S
C4021 C4020 1.414 . S
C4021 C4022 1.374 . S
C4022 H3996 0.950 . S
C4022 C4018 1.385 . S
C4022 C4021 1.374 . S
C4023 C4020 1.499 . S
C4023 C4024 1.373 . S
C4023 C4025 1.389 . S
C4024 H3997 0.950 . S
C4024 C4010 1.377 . S
C4024 C4023 1.373 . S
C4025 C4009 1.377 . S
C4025 C4023 1.389 . S
C4025 C4026 1.524 . S
C4026 C4025 1.524 . S
C4026 C4027 1.397 . S
C4026 C4031 1.363 . S
C4027 H3998 0.950 . S
C4027 C4026 1.397 . S
C4027 C4028 1.334 . S
C4028 H3999 0.950 . S
C4028 C4027 1.334 . S
C4028 C4029 1.287 . S
C4029 C4028 1.287 . S
C4029 C4030 1.524 . S
C4029 H4032 0.999 . S
C4030 H4000 0.950 . S
C4030 C4029 1.524 . S
C4030 C4031 1.415 . S
C4031 H4001 0.950 . S
C4031 C4026 1.363 . S
C4031 C4030 1.415 . S
H4032 C4029 0.999 . S
H4033 C4014 0.913 . S
H4034 C4052 0.951 . S
H4035 C4054 0.951 . S
H4036 C4056 0.950 . S
H4037 C4057 0.950 . S
H4038 C4059 0.950 . S
H4039 C4062 0.950 . S
H4040 C4063 0.950 . S
H4041 C4065 0.950 . S
H4042 C4066 0.950 . S
H4043 C4067 0.951 . S
H4044 C4069 0.951 . S
H4045 C4071 0.950 . S
H4046 C4072 0.950 . S
H4047 C4074 0.950 . S
H4048 C4077 0.950 . S
H4049 C4078 0.950 . S
H4050 C4080 0.950 . S
H4051 C4081 0.950 . S
C4052 H4034 0.951 . S
C4052 C4053 1.366 . S
C4052 C4054 1.388 . S
C4053 C4052 1.366 . S
C4053 C4057 1.385 . S
C4054 H4035 0.951 . S
C4054 C4052 1.388 . S
C4054 C4055 1.366 . S
C4055 C4054 1.366 . S
C4055 C4056 1.414 . S
C4055 C4058 1.499 . S
C4056 H4036 0.950 . S
C4056 C4055 1.414 . S
C4056 C4057 1.374 . S
C4057 H4037 0.950 . S
C4057 C4053 1.385 . S
C4057 C4056 1.374 . S
C4058 C4055 1.499 . S
C4058 C4059 1.373 . S
C4058 C4060 1.389 . S
C4059 H4038 0.950 . S
C4059 C4058 1.373 . S
C4059 C4075 1.377 . S
C4060 C4058 1.389 . S
C4060 C4061 1.524 . S
C4060 C4074 1.377 . S
C4061 C4060 1.524 . S
C4061 C4062 1.397 . S
C4061 C4066 1.363 . S
C4062 H4039 0.950 . S
C4062 C4061 1.397 . S
C4062 C4063 1.334 . S
C4063 H4040 0.950 . S
C4063 C4062 1.334 . S
C4063 C4064 1.287 . S
C4064 C4063 1.287 . S
C4064 C4065 1.524 . S
C4064 H4083 0.913 . S
C4065 H4041 0.950 . S
C4065 C4064 1.524 . S
C4065 C4066 1.415 . S
C4066 H4042 0.950 . S
C4066 C4061 1.363 . S
C4066 C4065 1.415 . S
C4067 H4043 0.951 . S
C4067 C4068 1.366 . S
C4067 C4069 1.388 . S
C4068 C4067 1.366 . S
C4068 C4072 1.385 . S
C4069 H4044 0.951 . S
C4069 C4067 1.388 . S
C4069 C4070 1.366 . S
C4070 C4069 1.366 . S
C4070 C4071 1.414 . S
C4070 C4073 1.499 . S
C4071 H4045 0.950 . S
C4071 C4070 1.414 . S
C4071 C4072 1.374 . S
C4072 H4046 0.950 . S
C4072 C4068 1.385 . S
C4072 C4071 1.374 . S
C4073 C4070 1.499 . S
C4073 C4074 1.373 . S
C4073 C4075 1.389 . S
C4074 H4047 0.950 . S
C4074 C4060 1.377 . S
C4074 C4073 1.373 . S
C4075 C4059 1.377 . S
C4075 C4073 1.389 . S
C4075 C4076 1.524 . S
C4076 C4075 1.524 . S
C4076 C4077 1.397 . S
C4076 C4081 1.363 . S
C4077 H4048 0.950 . S
C4077 C4076 1.397 . S
C4077 C4078 1.334 . S
C4078 H4049 0.950 . S
C4078 C4077 1.334 . S
C4078 C4079 1.287 . S
C4079 C4078 1.287 . S
C4079 C4080 1.524 . S
C4079 H4082 0.999 . S
C4080 H4050 0.950 . S
C4080 C4079 1.524 . S
C4080 C4081 1.415 . S
C4081 H4051 0.950 . S
C4081 C4076 1.363 . S
C4081 C4080 1.415 . S
H4082 C4079 0.999 . S
H4083 C4064 0.913 . S
H4084 C4102 0.951 1_455 S
H4085 C4104 0.951 . S
H4086 C4106 0.950 . S
H4087 C4107 0.950 . S
H4088 C4109 0.950 . S
H4089 C4112 0.950 . S
H4090 C4113 0.950 . S
H4091 C4115 0.950 . S
H4092 C4116 0.950 . S
H4093 C4117 0.951 . S
H4094 C4119 0.951 . S
H4095 C4121 0.950 . S
H4096 C4122 0.950 . S
H4097 C4124 0.950 . S
H4098 C4127 0.950 . S
H4099 C4128 0.950 . S
H4100 C4130 0.950 . S
H4101 C4131 0.950 . S
C4102 H4084 0.951 1_655 S
C4102 C4103 1.366 . S
C4102 C4104 1.388 . S
C4103 C4102 1.366 . S
C4103 C4107 1.385 . S
C4104 H4085 0.951 . S
C4104 C4102 1.388 . S
C4104 C4105 1.366 . S
C4105 C4104 1.366 . S
C4105 C4106 1.414 . S
C4105 C4108 1.499 . S
C4106 H4086 0.950 . S
C4106 C4105 1.414 . S
C4106 C4107 1.374 . S
C4107 H4087 0.950 . S
C4107 C4103 1.385 . S
C4107 C4106 1.374 . S
C4108 C4105 1.499 . S
C4108 C4109 1.373 . S
C4108 C4110 1.389 . S
C4109 H4088 0.950 . S
C4109 C4108 1.373 . S
C4109 C4125 1.377 . S
C4110 C4108 1.389 . S
C4110 C4111 1.524 . S
C4110 C4124 1.377 . S
C4111 C4110 1.524 . S
C4111 C4112 1.397 . S
C4111 C4116 1.363 . S
C4112 H4089 0.950 . S
C4112 C4111 1.397 . S
C4112 C4113 1.334 . S
C4113 H4090 0.950 . S
C4113 C4112 1.334 . S
C4113 C4114 1.287 . S
C4114 C4113 1.287 . S
C4114 C4115 1.524 . S
C4114 H4133 0.913 1_655 S
C4115 H4091 0.950 . S
C4115 C4114 1.524 . S
C4115 C4116 1.415 . S
C4116 H4092 0.950 . S
C4116 C4111 1.363 . S
C4116 C4115 1.415 . S
C4117 H4093 0.951 . S
C4117 C4118 1.366 . S
C4117 C4119 1.388 . S
C4118 C4117 1.366 . S
C4118 C4122 1.385 . S
C4119 H4094 0.951 . S
C4119 C4117 1.388 . S
C4119 C4120 1.366 . S
C4120 C4119 1.366 . S
C4120 C4121 1.414 . S
C4120 C4123 1.499 . S
C4121 H4095 0.950 . S
C4121 C4120 1.414 . S
C4121 C4122 1.374 . S
C4122 H4096 0.950 . S
C4122 C4118 1.385 . S
C4122 C4121 1.374 . S
C4123 C4120 1.499 . S
C4123 C4124 1.373 . S
C4123 C4125 1.389 . S
C4124 H4097 0.950 . S
C4124 C4110 1.377 . S
C4124 C4123 1.373 . S
C4125 C4109 1.377 . S
C4125 C4123 1.389 . S
C4125 C4126 1.524 . S
C4126 C4125 1.524 . S
C4126 C4127 1.397 . S
C4126 C4131 1.363 . S
C4127 H4098 0.950 . S
C4127 C4126 1.397 . S
C4127 C4128 1.334 . S
C4128 H4099 0.950 . S
C4128 C4127 1.334 . S
C4128 C4129 1.287 . S
C4129 C4128 1.287 . S
C4129 C4130 1.524 . S
C4129 H4132 0.999 . S
C4130 H4100 0.950 . S
C4130 C4129 1.524 . S
C4130 C4131 1.415 . S
C4131 H4101 0.950 . S
C4131 C4126 1.363 . S
C4131 C4130 1.415 . S
H4132 C4129 0.999 . S
H4133 C4114 0.913 1_455 S
H4134 C4152 0.951 . S
H4135 C4154 0.951 . S
H4136 C4156 0.950 . S
H4137 C4157 0.950 . S
H4138 C4159 0.950 . S
H4139 C4162 0.950 . S
H4140 C4163 0.950 . S
H4141 C4165 0.950 . S
H4142 C4166 0.950 . S
H4143 C4167 0.951 . S
H4144 C4169 0.951 . S
H4145 C4171 0.950 . S
H4146 C4172 0.950 . S
H4147 C4174 0.950 . S
H4148 C4177 0.950 . S
H4149 C4178 0.950 . S
H4150 C4180 0.950 . S
H4151 C4181 0.950 . S
C4152 H4134 0.951 . S
C4152 C4153 1.366 . S
C4152 C4154 1.388 . S
C4153 C4152 1.366 . S
C4153 C4157 1.385 . S
C4154 H4135 0.951 . S
C4154 C4152 1.388 . S
C4154 C4155 1.366 . S
C4155 C4154 1.366 . S
C4155 C4156 1.414 . S
C4155 C4158 1.499 . S
C4156 H4136 0.950 . S
C4156 C4155 1.414 . S
C4156 C4157 1.374 . S
C4157 H4137 0.950 . S
C4157 C4153 1.385 . S
C4157 C4156 1.374 . S
C4158 C4155 1.499 . S
C4158 C4159 1.373 . S
C4158 C4160 1.389 . S
C4159 H4138 0.950 . S
C4159 C4158 1.373 . S
C4159 C4175 1.377 . S
C4160 C4158 1.389 . S
C4160 C4161 1.524 . S
C4160 C4174 1.377 . S
C4161 C4160 1.524 . S
C4161 C4162 1.397 . S
C4161 C4166 1.363 . S
C4162 H4139 0.950 . S
C4162 C4161 1.397 . S
C4162 C4163 1.334 . S
C4163 H4140 0.950 . S
C4163 C4162 1.334 . S
C4163 C4164 1.287 . S
C4164 C4163 1.287 . S
C4164 C4165 1.524 . S
C4164 H4183 0.913 . S
C4165 H4141 0.950 . S
C4165 C4164 1.524 . S
C4165 C4166 1.415 . S
C4166 H4142 0.950 . S
C4166 C4161 1.363 . S
C4166 C4165 1.415 . S
C4167 H4143 0.951 . S
C4167 C4168 1.366 . S
C4167 C4169 1.388 . S
C4168 C4167 1.366 . S
C4168 C4172 1.385 . S
C4169 H4144 0.951 . S
C4169 C4167 1.388 . S
C4169 C4170 1.366 . S
C4170 C4169 1.366 . S
C4170 C4171 1.414 . S
C4170 C4173 1.499 . S
C4171 H4145 0.950 . S
C4171 C4170 1.414 . S
C4171 C4172 1.374 . S
C4172 H4146 0.950 . S
C4172 C4168 1.385 . S
C4172 C4171 1.374 . S
C4173 C4170 1.499 . S
C4173 C4174 1.373 . S
C4173 C4175 1.389 . S
C4174 H4147 0.950 . S
C4174 C4160 1.377 . S
C4174 C4173 1.373 . S
C4175 C4159 1.377 . S
C4175 C4173 1.389 . S
C4175 C4176 1.524 . S
C4176 C4175 1.524 . S
C4176 C4177 1.397 1_455 S
C4176 C4181 1.363 . S
C4177 H4148 0.950 . S
C4177 C4176 1.397 1_655 S
C4177 C4178 1.334 . S
C4178 H4149 0.950 . S
C4178 C4177 1.334 . S
C4178 C4179 1.287 . S
C4179 C4178 1.287 . S
C4179 C4180 1.524 1_655 S
C4179 H4182 0.999 . S
C4180 H4150 0.950 . S
C4180 C4179 1.524 1_455 S
C4180 C4181 1.415 . S
C4181 H4151 0.950 . S
C4181 C4176 1.363 . S
C4181 C4180 1.415 . S
H4182 C4179 0.999 . S
H4183 C4164 0.913 . S
H4184 C4202 0.951 . S
H4185 C4204 0.951 . S
H4186 C4206 0.950 . S
H4187 C4207 0.950 . S
H4188 C4209 0.950 . S
H4189 C4212 0.950 . S
H4190 C4213 0.950 . S
H4191 C4215 0.950 . S
H4192 C4216 0.950 . S
H4193 C4217 0.951 . S
H4194 C4219 0.951 . S
H4195 C4221 0.950 . S
H4196 C4222 0.950 . S
H4197 C4224 0.950 . S
H4198 C4227 0.950 . S
H4199 C4228 0.950 . S
H4200 C4230 0.950 . S
H4201 C4231 0.950 . S
C4202 H4184 0.951 . S
C4202 C4203 1.366 . S
C4202 C4204 1.388 . S
C4203 C4202 1.366 . S
C4203 C4207 1.385 . S
C4204 H4185 0.951 . S
C4204 C4202 1.388 . S
C4204 C4205 1.366 . S
C4205 C4204 1.366 . S
C4205 C4206 1.414 . S
C4205 C4208 1.499 . S
C4206 H4186 0.950 . S
C4206 C4205 1.414 . S
C4206 C4207 1.374 . S
C4207 H4187 0.950 . S
C4207 C4203 1.385 . S
C4207 C4206 1.374 . S
C4208 C4205 1.499 . S
C4208 C4209 1.373 . S
C4208 C4210 1.389 . S
C4209 H4188 0.950 . S
C4209 C4208 1.373 . S
C4209 C4225 1.377 . S
C4210 C4208 1.389 . S
C4210 C4211 1.524 . S
C4210 C4224 1.377 . S
C4211 C4210 1.524 . S
C4211 C4212 1.397 . S
C4211 C4216 1.363 . S
C4212 H4189 0.950 . S
C4212 C4211 1.397 . S
C4212 C4213 1.334 . S
C4213 H4190 0.950 . S
C4213 C4212 1.334 . S
C4213 C4214 1.287 . S
C4214 C4213 1.287 . S
C4214 C4215 1.524 . S
C4214 H4233 0.913 . S
C4215 H4191 0.950 . S
C4215 C4214 1.524 . S
C4215 C4216 1.415 . S
C4216 H4192 0.950 . S
C4216 C4211 1.363 . S
C4216 C4215 1.415 . S
C4217 H4193 0.951 . S
C4217 C4218 1.366 . S
C4217 C4219 1.388 . S
C4218 C4217 1.366 . S
C4218 C4222 1.385 . S
C4219 H4194 0.951 . S
C4219 C4217 1.388 . S
C4219 C4220 1.366 . S
C4220 C4219 1.366 . S
C4220 C4221 1.414 . S
C4220 C4223 1.499 . S
C4221 H4195 0.950 . S
C4221 C4220 1.414 . S
C4221 C4222 1.374 . S
C4222 H4196 0.950 . S
C4222 C4218 1.385 . S
C4222 C4221 1.374 . S
C4223 C4220 1.499 . S
C4223 C4224 1.373 . S
C4223 C4225 1.389 . S
C4224 H4197 0.950 . S
C4224 C4210 1.377 . S
C4224 C4223 1.373 . S
C4225 C4209 1.377 . S
C4225 C4223 1.389 . S
C4225 C4226 1.524 . S
C4226 C4225 1.524 . S
C4226 C4227 1.397 . S
C4226 C4231 1.363 . S
C4227 H4198 0.950 . S
C4227 C4226 1.397 . S
C4227 C4228 1.334 . S
C4228 H4199 0.950 . S
C4228 C4227 1.334 . S
C4228 C4229 1.287 . S
C4229 C4228 1.287 . S
C4229 C4230 1.524 . S
C4229 H4232 0.999 . S
C4230 H4200 0.950 . S
C4230 C4229 1.524 . S
C4230 C4231 1.415 . S
C4231 H4201 0.950 . S
C4231 C4226 1.363 . S
C4231 C4230 1.415 . S
H4232 C4229 0.999 . S
H4233 C4214 0.913 . S
H4234 C4252 0.951 . S
H4235 C4254 0.951 . S
H4236 C4256 0.950 . S
H4237 C4257 0.950 . S
H4238 C4259 0.950 . S
H4239 C4262 0.950 . S
H4240 C4263 0.950 . S
H4241 C4265 0.950 . S
H4242 C4266 0.950 . S
H4243 C4267 0.951 . S
H4244 C4269 0.951 . S
H4245 C4271 0.950 . S
H4246 C4272 0.940 1_545 S
H4247 C4274 0.950 . S
H4248 C4277 0.950 1_545 S
H4249 C4278 0.959 . S
H4250 C4280 0.950 . S
H4251 C4281 0.950 . S
C4252 H4234 0.951 . S
C4252 C4253 1.366 . S
C4252 C4254 1.388 . S
C4253 C4252 1.366 . S
C4253 C4257 1.385 . S
C4254 H4235 0.951 . S
C4254 C4252 1.388 . S
C4254 C4255 1.366 . S
C4255 C4254 1.366 . S
C4255 C4256 1.414 . S
C4255 C4258 1.499 . S
C4256 H4236 0.950 . S
C4256 C4255 1.414 . S
C4256 C4257 1.374 . S
C4257 H4237 0.950 . S
C4257 C4253 1.385 . S
C4257 C4256 1.374 . S
C4258 C4255 1.499 . S
C4258 C4259 1.373 . S
C4258 C4260 1.389 . S
C4259 H4238 0.950 . S
C4259 C4258 1.373 . S
C4259 C4275 1.377 . S
C4260 C4258 1.389 . S
C4260 C4261 1.524 . S
C4260 C4274 1.377 . S
C4261 C4260 1.524 . S
C4261 C4262 1.397 . S
C4261 C4266 1.363 . S
C4262 H4239 0.950 . S
C4262 C4261 1.397 . S
C4262 C4263 1.334 . S
C4263 H4240 0.950 . S
C4263 C4262 1.334 . S
C4263 C4264 1.287 . S
C4264 C4263 1.287 . S
C4264 C4265 1.524 . S
C4264 H4283 0.913 . S
C4265 H4241 0.950 . S
C4265 C4264 1.524 . S
C4265 C4266 1.415 . S
C4266 H4242 0.950 . S
C4266 C4261 1.363 . S
C4266 C4265 1.415 . S
C4267 H4243 0.951 . S
C4267 C4268 1.366 . S
C4267 C4269 1.388 . S
C4268 C4267 1.366 . S
C4268 C4272 1.385 . S
C4269 H4244 0.951 . S
C4269 C4267 1.388 . S
C4269 C4270 1.366 . S
C4270 C4269 1.366 . S
C4270 C4271 1.414 . S
C4270 C4273 1.499 . S
C4271 H4245 0.950 . S
C4271 C4270 1.414 . S
C4271 C4272 1.374 . S
C4272 H4246 0.940 1_565 S
C4272 C4268 1.385 . S
C4272 C4271 1.374 . S
C4273 C4270 1.499 . S
C4273 C4274 1.373 . S
C4273 C4275 1.389 . S
C4274 H4247 0.950 . S
C4274 C4260 1.377 . S
C4274 C4273 1.373 . S
C4275 C4259 1.377 . S
C4275 C4273 1.389 . S
C4275 C4276 1.524 . S
C4276 C4275 1.524 . S
C4276 C4277 1.397 . S
C4276 C4281 1.363 . S
C4277 H4248 0.950 1_565 S
C4277 C4276 1.397 . S
C4277 C4278 1.338 1_565 S
C4278 H4249 0.959 . S
C4278 C4277 1.338 1_545 S
C4278 C4279 1.274 1_545 S
C4279 C4278 1.274 1_565 S
C4279 C4280 1.524 . S
C4279 H4282 0.999 . S
C4280 H4250 0.950 . S
C4280 C4279 1.524 . S
C4280 C4281 1.415 . S
C4281 H4251 0.950 . S
C4281 C4276 1.363 . S
C4281 C4280 1.415 . S
H4282 C4279 0.999 . S
H4283 C4264 0.913 . S
H4284 C4302 0.951 . S
H4285 C4304 0.951 . S
H4286 C4306 0.950 . S
H4287 C4307 0.950 . S
H4288 C4309 0.950 . S
H4289 C4312 0.950 . S
H4290 C4313 0.950 . S
H4291 C4315 0.950 . S
H4292 C4316 0.996 . S
H4293 C4317 0.951 . S
H4294 C4319 0.951 . S
H4295 C4321 0.950 . S
H4296 C4322 0.950 . S
H4297 C4324 0.950 . S
H4298 C4327 0.950 . S
H4299 C4328 0.950 . S
H4300 C4330 0.950 . S
H4301 C4331 0.950 . S
C4302 H4284 0.951 . S
C4302 C4303 1.366 . S
C4302 C4304 1.388 . S
C4303 C4302 1.366 . S
C4303 C4307 1.385 . S
C4304 H4285 0.951 . S
C4304 C4302 1.388 . S
C4304 C4305 1.366 . S
C4305 C4304 1.366 . S
C4305 C4306 1.414 . S
C4305 C4308 1.499 . S
C4306 H4286 0.950 . S
C4306 C4305 1.414 . S
C4306 C4307 1.374 . S
C4307 H4287 0.950 . S
C4307 C4303 1.385 . S
C4307 C4306 1.374 . S
C4308 C4305 1.499 . S
C4308 C4309 1.373 . S
C4308 C4310 1.389 . S
C4309 H4288 0.950 . S
C4309 C4308 1.373 . S
C4309 C4325 1.377 . S
C4310 C4308 1.389 . S
C4310 C4311 1.524 . S
C4310 C4324 1.377 . S
C4311 C4310 1.524 . S
C4311 C4312 1.397 . S
C4311 C4316 1.363 . S
C4312 H4289 0.950 . S
C4312 C4311 1.397 . S
C4312 C4313 1.334 . S
C4313 H4290 0.950 . S
C4313 C4312 1.334 . S
C4313 C4314 1.287 . S
C4314 C4313 1.287 . S
C4314 C4315 1.524 . S
C4314 H4333 0.913 . S
C4315 H4291 0.950 . S
C4315 C4314 1.524 . S
C4315 C4316 1.415 . S
C4316 H4292 0.996 . S
C4316 C4311 1.363 . S
C4316 C4315 1.415 . S
C4317 H4293 0.951 . S
C4317 C4318 1.304 1_565 S
C4317 C4319 1.388 . S
C4318 C4317 1.304 1_545 S
C4318 C4322 1.407 . S
C4319 H4294 0.951 . S
C4319 C4317 1.388 . S
C4319 C4320 1.366 . S
C4320 C4319 1.366 . S
C4320 C4321 1.414 1_565 S
C4320 C4323 1.499 . S
C4321 H4295 0.950 . S
C4321 C4320 1.414 1_545 S
C4321 C4322 1.374 . S
C4322 H4296 0.950 . S
C4322 C4318 1.407 . S
C4322 C4321 1.374 . S
C4323 C4320 1.499 . S
C4323 C4324 1.373 . S
C4323 C4325 1.389 . S
C4324 H4297 0.950 . S
C4324 C4310 1.377 . S
C4324 C4323 1.373 . S
C4325 C4309 1.377 . S
C4325 C4323 1.389 . S
C4325 C4326 1.524 . S
C4326 C4325 1.524 . S
C4326 C4327 1.397 1_565 S
C4326 C4331 1.363 . S
C4327 H4298 0.950 . S
C4327 C4326 1.397 1_545 S
C4327 C4328 1.334 . S
C4328 H4299 0.950 . S
C4328 C4327 1.334 . S
C4328 C4329 1.287 . S
C4329 C4328 1.287 . S
C4329 C4330 1.524 1_545 S
C4329 H4332 0.999 . S
C4330 H4300 0.950 . S
C4330 C4329 1.524 1_565 S
C4330 C4331 1.415 . S
C4331 H4301 0.950 . S
C4331 C4326 1.363 . S
C4331 C4330 1.415 . S
H4332 C4329 0.999 . S
H4333 C4314 0.913 . S
H4334 C4352 0.951 . S
H4335 C4354 0.951 . S
H4336 C4356 0.950 . S
H4337 C4357 0.950 . S
H4338 C4359 0.950 . S
H4339 C4362 0.950 . S
H4340 C4363 0.950 . S
H4341 C4365 0.950 . S
H4342 C4366 0.891 1_455 S
H4343 C4367 0.951 . S
H4344 C4369 0.951 . S
H4345 C4371 0.950 . S
H4346 C4372 0.950 . S
H4347 C4374 0.950 1_655 S
H4348 C4377 0.950 . S
H4349 C4378 0.950 . S
H4350 C4380 0.950 . S
H4351 C4381 0.950 . S
C4352 H4334 0.951 . S
C4352 C4353 1.366 . S
C4352 C4354 1.388 . S
C4353 C4352 1.366 . S
C4353 C4357 1.385 . S
C4354 H4335 0.951 . S
C4354 C4352 1.388 . S
C4354 C4355 1.366 . S
C4355 C4354 1.366 . S
C4355 C4356 1.414 . S
C4355 C4358 1.499 . S
C4356 H4336 0.950 . S
C4356 C4355 1.414 . S
C4356 C4357 1.374 . S
C4357 H4337 0.950 . S
C4357 C4353 1.385 . S
C4357 C4356 1.374 . S
C4358 C4355 1.499 . S
C4358 C4359 1.373 . S
C4358 C4360 1.389 . S
C4359 H4338 0.950 . S
C4359 C4358 1.373 . S
C4359 C4375 1.377 . S
C4360 C4358 1.389 . S
C4360 C4361 1.556 . S
C4360 C4374 1.377 . S
C4361 C4360 1.556 . S
C4361 C4362 1.370 1_455 S
C4361 C4366 1.351 1_455 S
C4362 H4339 0.950 . S
C4362 C4361 1.370 1_655 S
C4362 C4363 1.334 . S
C4363 H4340 0.950 . S
C4363 C4362 1.334 . S
C4363 C4364 1.287 . S
C4364 C4363 1.287 . S
C4364 C4365 1.524 . S
C4364 H4383 0.913 . S
C4365 H4341 0.950 . S
C4365 C4364 1.524 . S
C4365 C4366 1.488 . S
C4366 H4342 0.891 1_655 S
C4366 C4361 1.351 1_655 S
C4366 C4365 1.488 . S
C4367 H4343 0.951 . S
C4367 C4368 1.366 . S
C4367 C4369 1.388 1_655 S
C4368 C4367 1.366 . S
C4368 C4372 1.385 1_655 S
C4369 H4344 0.951 . S
C4369 C4367 1.388 1_455 S
C4369 C4370 1.366 . S
C4370 C4369 1.366 . S
C4370 C4371 1.414 . S
C4370 C4373 1.499 . S
C4371 H4345 0.950 . S
C4371 C4370 1.414 . S
C4371 C4372 1.374 . S
C4372 H4346 0.950 . S
C4372 C4368 1.385 1_455 S
C4372 C4371 1.374 . S
C4373 C4370 1.499 . S
C4373 C4374 1.373 . S
C4373 C4375 1.389 . S
C4374 H4347 0.950 1_455 S
C4374 C4360 1.377 . S
C4374 C4373 1.373 . S
C4375 C4359 1.377 . S
C4375 C4373 1.389 . S
C4375 C4376 1.524 . S
C4376 C4375 1.524 . S
C4376 C4377 1.397 . S
C4376 C4381 1.363 . S
C4377 H4348 0.950 . S
C4377 C4376 1.397 . S
C4377 C4378 1.334 . S
C4378 H4349 0.950 . S
C4378 C4377 1.334 . S
C4378 C4379 1.287 . S
C4379 C4378 1.287 . S
C4379 C4380 1.524 . S
C4379 H4382 0.999 . S
C4380 H4350 0.950 . S
C4380 C4379 1.524 . S
C4380 C4381 1.415 . S
C4381 H4351 0.950 . S
C4381 C4376 1.363 . S
C4381 C4380 1.415 . S
H4382 C4379 0.999 . S
H4383 C4364 0.913 . S
H4384 C4402 0.951 . S
H4385 C4404 0.951 . S
H4386 C4406 0.950 . S
H4387 C4407 0.950 . S
H4388 C4409 0.950 . S
H4389 C4412 0.950 . S
H4390 C4413 0.950 . S
H4391 C4415 0.950 . S
H4392 C4416 0.950 . S
H4393 C4417 0.951 . S
H4394 C4419 0.951 . S
H4395 C4421 0.950 . S
H4396 C4422 0.950 . S
H4397 C4424 0.950 . S
H4398 C4427 0.950 . S
H4399 C4428 0.950 . S
H4400 C4430 0.950 . S
H4401 C4431 0.950 . S
C4402 H4384 0.951 . S
C4402 C4403 1.366 . S
C4402 C4404 1.388 . S
C4403 C4402 1.366 . S
C4403 C4407 1.385 . S
C4404 H4385 0.951 . S
C4404 C4402 1.388 . S
C4404 C4405 1.366 . S
C4405 C4404 1.366 . S
C4405 C4406 1.414 . S
C4405 C4408 1.499 . S
C4406 H4386 0.950 . S
C4406 C4405 1.414 . S
C4406 C4407 1.374 . S
C4407 H4387 0.950 . S
C4407 C4403 1.385 . S
C4407 C4406 1.374 . S
C4408 C4405 1.499 . S
C4408 C4409 1.373 . S
C4408 C4410 1.389 . S
C4409 H4388 0.950 . S
C4409 C4408 1.373 . S
C4409 C4425 1.377 . S
C4410 C4408 1.389 . S
C4410 C4411 1.524 . S
C4410 C4424 1.377 . S
C4411 C4410 1.524 . S
C4411 C4412 1.397 . S
C4411 C4416 1.363 . S
C4412 H4389 0.950 . S
C4412 C4411 1.397 . S
C4412 C4413 1.334 . S
C4413 H4390 0.950 . S
C4413 C4412 1.334 . S
C4413 C4414 1.287 . S
C4414 C4413 1.287 . S
C4414 C4415 1.524 . S
C4414 H4433 0.913 . S
C4415 H4391 0.950 . S
C4415 C4414 1.524 . S
C4415 C4416 1.415 . S
C4416 H4392 0.950 . S
C4416 C4411 1.363 . S
C4416 C4415 1.415 . S
C4417 H4393 0.951 . S
C4417 C4418 1.366 . S
C4417 C4419 1.388 . S
C4418 C4417 1.366 . S
C4418 C4422 1.385 . S
C4419 H4394 0.951 . S
C4419 C4417 1.388 . S
C4419 C4420 1.366 . S
C4420 C4419 1.366 . S
C4420 C4421 1.414 . S
C4420 C4423 1.499 . S
C4421 H4395 0.950 . S
C4421 C4420 1.414 . S
C4421 C4422 1.374 . S
C4422 H4396 0.950 . S
C4422 C4418 1.385 . S
C4422 C4421 1.374 . S
C4423 C4420 1.499 . S
C4423 C4424 1.373 . S
C4423 C4425 1.389 . S
C4424 H4397 0.950 . S
C4424 C4410 1.377 . S
C4424 C4423 1.373 . S
C4425 C4409 1.377 . S
C4425 C4423 1.389 . S
C4425 C4426 1.524 . S
C4426 C4425 1.524 . S
C4426 C4427 1.397 . S
C4426 C4431 1.363 . S
C4427 H4398 0.950 . S
C4427 C4426 1.397 . S
C4427 C4428 1.334 . S
C4428 H4399 0.950 . S
C4428 C4427 1.334 . S
C4428 C4429 1.287 . S
C4429 C4428 1.287 . S
C4429 C4430 1.524 . S
C4429 H4432 0.999 . S
C4430 H4400 0.950 . S
C4430 C4429 1.524 . S
C4430 C4431 1.415 . S
C4431 H4401 0.950 . S
C4431 C4426 1.363 . S
C4431 C4430 1.415 . S
H4432 C4429 0.999 . S
H4433 C4414 0.913 . S
H4434 C4452 0.951 . S
H4435 C4454 0.951 . S
H4436 C4456 0.950 . S
H4437 C4457 0.950 . S
H4438 C4459 0.950 . S
H4439 C4462 0.950 . S
H4440 C4463 0.950 . S
H4441 C4465 0.950 . S
H4442 C4466 0.950 . S
H4443 C4467 0.951 . S
H4444 C4469 0.951 . S
H4445 C4471 0.950 . S
H4446 C4472 0.950 . S
H4447 C4474 0.950 . S
H4448 C4477 0.950 . S
H4449 C4478 0.950 . S
H4450 C4480 0.950 . S
H4451 C4481 0.950 . S
C4452 H4434 0.951 . S
C4452 C4453 1.366 . S
C4452 C4454 1.388 . S
C4453 C4452 1.366 . S
C4453 C4457 1.385 . S
C4454 H4435 0.951 . S
C4454 C4452 1.388 . S
C4454 C4455 1.366 . S
C4455 C4454 1.366 . S
C4455 C4456 1.414 . S
C4455 C4458 1.499 . S
C4456 H4436 0.950 . S
C4456 C4455 1.414 . S
C4456 C4457 1.374 . S
C4457 H4437 0.950 . S
C4457 C4453 1.385 . S
C4457 C4456 1.374 . S
C4458 C4455 1.499 . S
C4458 C4459 1.373 . S
C4458 C4460 1.389 . S
C4459 H4438 0.950 . S
C4459 C4458 1.373 . S
C4459 C4475 1.377 . S
C4460 C4458 1.389 . S
C4460 C4461 1.524 . S
C4460 C4474 1.377 . S
C4461 C4460 1.524 . S
C4461 C4462 1.397 . S
C4461 C4466 1.363 . S
C4462 H4439 0.950 . S
C4462 C4461 1.397 . S
C4462 C4463 1.334 . S
C4463 H4440 0.950 . S
C4463 C4462 1.334 . S
C4463 C4464 1.287 . S
C4464 C4463 1.287 . S
C4464 C4465 1.524 . S
C4464 H4483 0.913 . S
C4465 H4441 0.950 . S
C4465 C4464 1.524 . S
C4465 C4466 1.415 . S
C4466 H4442 0.950 . S
C4466 C4461 1.363 . S
C4466 C4465 1.415 . S
C4467 H4443 0.951 . S
C4467 C4468 1.366 . S
C4467 C4469 1.388 . S
C4468 C4467 1.366 . S
C4468 C4472 1.385 . S
C4469 H4444 0.951 . S
C4469 C4467 1.388 . S
C4469 C4470 1.366 . S
C4470 C4469 1.366 . S
C4470 C4471 1.414 . S
C4470 C4473 1.499 . S
C4471 H4445 0.950 . S
C4471 C4470 1.414 . S
C4471 C4472 1.374 . S
C4472 H4446 0.950 . S
C4472 C4468 1.385 . S
C4472 C4471 1.374 . S
C4473 C4470 1.499 . S
C4473 C4474 1.373 . S
C4473 C4475 1.389 . S
C4474 H4447 0.950 . S
C4474 C4460 1.377 . S
C4474 C4473 1.373 . S
C4475 C4459 1.377 . S
C4475 C4473 1.389 . S
C4475 C4476 1.524 . S
C4476 C4475 1.524 . S
C4476 C4477 1.397 . S
C4476 C4481 1.363 . S
C4477 H4448 0.950 . S
C4477 C4476 1.397 . S
C4477 C4478 1.334 . S
C4478 H4449 0.950 . S
C4478 C4477 1.334 . S
C4478 C4479 1.287 . S
C4479 C4478 1.287 . S
C4479 C4480 1.524 . S
C4479 H4482 0.999 . S
C4480 H4450 0.950 . S
C4480 C4479 1.524 . S
C4480 C4481 1.415 . S
C4481 H4451 0.950 . S
C4481 C4476 1.363 . S
C4481 C4480 1.415 . S
H4482 C4479 0.999 . S
H4483 C4464 0.913 . S
H4484 C4502 0.951 . S
H4485 C4504 0.951 . S
H4486 C4506 0.950 . S
H4487 C4507 0.950 . S
H4488 C4509 0.950 . S
H4489 C4512 0.950 . S
H4490 C4513 0.950 . S
H4491 C4515 0.950 . S
H4492 C4516 0.950 . S
H4493 C4517 0.951 . S
H4494 C4519 0.951 . S
H4495 C4521 0.950 . S
H4496 C4522 0.950 . S
H4497 C4524 0.950 . S
H4498 C4527 0.950 . S
H4499 C4528 0.950 . S
H4500 C4530 0.950 . S
H4501 C4531 0.950 . S
C4502 H4484 0.951 . S
C4502 C4503 1.366 . S
C4502 C4504 1.388 . S
C4503 C4502 1.366 . S
C4503 C4507 1.385 . S
C4504 H4485 0.951 . S
C4504 C4502 1.388 . S
C4504 C4505 1.366 . S
C4505 C4504 1.366 . S
C4505 C4506 1.414 . S
C4505 C4508 1.499 . S
C4506 H4486 0.950 . S
C4506 C4505 1.414 . S
C4506 C4507 1.374 . S
C4507 H4487 0.950 . S
C4507 C4503 1.385 . S
C4507 C4506 1.374 . S
C4508 C4505 1.499 . S
C4508 C4509 1.373 . S
C4508 C4510 1.389 . S
C4509 H4488 0.950 . S
C4509 C4508 1.373 . S
C4509 C4525 1.377 . S
C4510 C4508 1.389 . S
C4510 C4511 1.524 . S
C4510 C4524 1.377 . S
C4511 C4510 1.524 . S
C4511 C4512 1.397 . S
C4511 C4516 1.363 . S
C4512 H4489 0.950 . S
C4512 C4511 1.397 . S
C4512 C4513 1.334 . S
C4513 H4490 0.950 . S
C4513 C4512 1.334 . S
C4513 C4514 1.287 . S
C4514 C4513 1.287 . S
C4514 C4515 1.524 . S
C4514 H4533 0.913 . S
C4515 H4491 0.950 . S
C4515 C4514 1.524 . S
C4515 C4516 1.415 . S
C4516 H4492 0.950 . S
C4516 C4511 1.363 . S
C4516 C4515 1.415 . S
C4517 H4493 0.951 . S
C4517 C4518 1.366 . S
C4517 C4519 1.388 . S
C4518 C4517 1.366 . S
C4518 C4522 1.385 . S
C4519 H4494 0.951 . S
C4519 C4517 1.388 . S
C4519 C4520 1.366 . S
C4520 C4519 1.366 . S
C4520 C4521 1.414 . S
C4520 C4523 1.499 . S
C4521 H4495 0.950 . S
C4521 C4520 1.414 . S
C4521 C4522 1.374 . S
C4522 H4496 0.950 . S
C4522 C4518 1.385 . S
C4522 C4521 1.374 . S
C4523 C4520 1.499 . S
C4523 C4524 1.373 . S
C4523 C4525 1.389 . S
C4524 H4497 0.950 . S
C4524 C4510 1.377 . S
C4524 C4523 1.373 . S
C4525 C4509 1.377 . S
C4525 C4523 1.389 . S
C4525 C4526 1.524 . S
C4526 C4525 1.524 . S
C4526 C4527 1.397 . S
C4526 C4531 1.363 . S
C4527 H4498 0.950 . S
C4527 C4526 1.397 . S
C4527 C4528 1.334 . S
C4528 H4499 0.950 . S
C4528 C4527 1.334 . S
C4528 C4529 1.287 . S
C4529 C4528 1.287 . S
C4529 C4530 1.524 . S
C4529 H4532 0.999 . S
C4530 H4500 0.950 . S
C4530 C4529 1.524 . S
C4530 C4531 1.415 . S
C4531 H4501 0.950 . S
C4531 C4526 1.363 . S
C4531 C4530 1.415 . S
H4532 C4529 0.999 . S
H4533 C4514 0.913 . S
H4534 C4552 0.951 . S
H4535 C4554 0.951 . S
H4536 C4556 0.950 . S
H4537 C4557 0.950 1_455 S
H4538 C4559 0.950 . S
H4539 C4562 0.950 . S
H4540 C4563 0.950 . S
H4541 C4565 0.950 . S
H4542 C4566 0.950 . S
H4543 C4567 0.951 . S
H4544 C4569 0.951 . S
H4545 C4571 0.950 . S
H4546 C4572 0.950 . S
H4547 C4574 0.950 . S
H4548 C4577 0.950 . S
H4549 C4578 0.950 . S
H4550 C4580 0.950 . S
H4551 C4581 0.950 . S
C4552 H4534 0.951 . S
C4552 C4553 1.366 . S
C4552 C4554 1.388 . S
C4553 C4552 1.366 . S
C4553 C4557 1.385 . S
C4554 H4535 0.951 . S
C4554 C4552 1.388 . S
C4554 C4555 1.366 . S
C4555 C4554 1.366 . S
C4555 C4556 1.414 . S
C4555 C4558 1.499 . S
C4556 H4536 0.950 . S
C4556 C4555 1.414 . S
C4556 C4557 1.374 . S
C4557 H4537 0.950 1_655 S
C4557 C4553 1.385 . S
C4557 C4556 1.374 . S
C4558 C4555 1.499 . S
C4558 C4559 1.373 . S
C4558 C4560 1.389 . S
C4559 H4538 0.950 . S
C4559 C4558 1.373 . S
C4559 C4575 1.377 . S
C4560 C4558 1.389 . S
C4560 C4561 1.524 . S
C4560 C4574 1.377 . S
C4561 C4560 1.524 . S
C4561 C4562 1.397 . S
C4561 C4566 1.363 . S
C4562 H4539 0.950 . S
C4562 C4561 1.397 . S
C4562 C4563 1.334 . S
C4563 H4540 0.950 . S
C4563 C4562 1.334 . S
C4563 C4564 1.287 . S
C4564 C4563 1.287 . S
C4564 C4565 1.524 . S
C4564 H4583 0.913 . S
C4565 H4541 0.950 . S
C4565 C4564 1.524 . S
C4565 C4566 1.415 . S
C4566 H4542 0.950 . S
C4566 C4561 1.363 . S
C4566 C4565 1.415 . S
C4567 H4543 0.951 . S
C4567 C4568 1.366 . S
C4567 C4569 1.388 . S
C4568 C4567 1.366 . S
C4568 C4572 1.385 . S
C4569 H4544 0.951 . S
C4569 C4567 1.388 . S
C4569 C4570 1.366 . S
C4570 C4569 1.366 . S
C4570 C4571 1.414 . S
C4570 C4573 1.499 . S
C4571 H4545 0.950 . S
C4571 C4570 1.414 . S
C4571 C4572 1.374 . S
C4572 H4546 0.950 . S
C4572 C4568 1.385 . S
C4572 C4571 1.374 . S
C4573 C4570 1.499 . S
C4573 C4574 1.373 . S
C4573 C4575 1.389 . S
C4574 H4547 0.950 . S
C4574 C4560 1.377 . S
C4574 C4573 1.373 . S
C4575 C4559 1.377 . S
C4575 C4573 1.389 . S
C4575 C4576 1.524 . S
C4576 C4575 1.524 . S
C4576 C4577 1.397 . S
C4576 C4581 1.363 . S
C4577 H4548 0.950 . S
C4577 C4576 1.397 . S
C4577 C4578 1.334 . S
C4578 H4549 0.950 . S
C4578 C4577 1.334 . S
C4578 C4579 1.287 . S
C4579 C4578 1.287 . S
C4579 C4580 1.524 . S
C4579 H4582 0.999 . S
C4580 H4550 0.950 . S
C4580 C4579 1.524 . S
C4580 C4581 1.415 . S
C4581 H4551 0.950 . S
C4581 C4576 1.363 . S
C4581 C4580 1.415 . S
H4582 C4579 0.999 . S
H4583 C4564 0.913 . S
H4584 C4602 0.951 . S
H4585 C4604 0.951 . S
H4586 C4606 0.950 . S
H4587 C4607 0.950 . S
H4588 C4609 0.950 . S
H4589 C4612 0.950 . S
H4590 C4613 0.950 . S
H4591 C4615 0.950 . S
H4592 C4616 0.950 . S
H4593 C4617 0.951 . S
H4594 C4619 0.951 . S
H4595 C4621 0.950 . S
H4596 C4622 0.950 . S
H4597 C4624 0.950 . S
H4598 C4627 0.950 . S
H4599 C4628 0.950 . S
H4600 C4630 0.950 . S
H4601 C4631 0.944 . S
C4602 H4584 0.951 . S
C4602 C4603 1.366 . S
C4602 C4604 1.388 . S
C4603 C4602 1.366 . S
C4603 C4607 1.385 . S
C4604 H4585 0.951 . S
C4604 C4602 1.388 . S
C4604 C4605 1.366 . S
C4605 C4604 1.366 . S
C4605 C4606 1.414 . S
C4605 C4608 1.499 . S
C4606 H4586 0.950 . S
C4606 C4605 1.414 . S
C4606 C4607 1.374 . S
C4607 H4587 0.950 . S
C4607 C4603 1.385 . S
C4607 C4606 1.374 . S
C4608 C4605 1.499 . S
C4608 C4609 1.373 . S
C4608 C4610 1.389 . S
C4609 H4588 0.950 . S
C4609 C4608 1.373 . S
C4609 C4625 1.377 . S
C4610 C4608 1.389 . S
C4610 C4611 1.524 . S
C4610 C4624 1.377 . S
C4611 C4610 1.524 . S
C4611 C4612 1.397 . S
C4611 C4616 1.363 . S
C4612 H4589 0.950 . S
C4612 C4611 1.397 . S
C4612 C4613 1.334 . S
C4613 H4590 0.950 . S
C4613 C4612 1.334 . S
C4613 C4614 1.287 . S
C4614 C4613 1.287 . S
C4614 C4615 1.524 . S
C4614 H4633 0.913 . S
C4615 H4591 0.950 . S
C4615 C4614 1.524 . S
C4615 C4616 1.415 . S
C4616 H4592 0.950 . S
C4616 C4611 1.363 . S
C4616 C4615 1.415 . S
C4617 H4593 0.951 . S
C4617 C4618 1.366 . S
C4617 C4619 1.388 . S
C4618 C4617 1.366 . S
C4618 C4622 1.385 . S
C4619 H4594 0.951 . S
C4619 C4617 1.388 . S
C4619 C4620 1.366 . S
C4620 C4619 1.366 . S
C4620 C4621 1.414 . S
C4620 C4623 1.499 . S
C4621 H4595 0.950 . S
C4621 C4620 1.414 . S
C4621 C4622 1.374 . S
C4622 H4596 0.950 . S
C4622 C4618 1.385 . S
C4622 C4621 1.374 . S
C4623 C4620 1.499 . S
C4623 C4624 1.373 . S
C4623 C4625 1.389 . S
C4624 H4597 0.950 . S
C4624 C4610 1.377 . S
C4624 C4623 1.373 . S
C4625 C4609 1.377 . S
C4625 C4623 1.389 . S
C4625 C4626 1.524 1_545 S
C4626 C4625 1.524 1_565 S
C4626 C4627 1.397 . S
C4626 C4631 1.363 . S
C4627 H4598 0.950 . S
C4627 C4626 1.397 . S
C4627 C4628 1.334 . S
C4628 H4599 0.950 . S
C4628 C4627 1.334 . S
C4628 C4629 1.287 . S
C4629 C4628 1.287 . S
C4629 C4630 1.524 . S
C4629 H4632 0.999 . S
C4630 H4600 0.950 . S
C4630 C4629 1.524 . S
C4630 C4631 1.415 . S
C4631 H4601 0.944 . S
C4631 C4626 1.363 . S
C4631 C4630 1.415 . S
H4632 C4629 0.999 . S
H4633 C4614 0.913 . S
H4634 C4652 0.951 . S
H4635 C4654 0.951 . S
H4636 C4656 0.950 . S
H4637 C4657 0.950 . S
H4638 C4659 0.950 . S
H4639 C4662 0.950 . S
H4640 C4663 0.950 . S
H4641 C4665 0.950 . S
H4642 C4666 0.950 . S
H4643 C4667 0.951 . S
H4644 C4669 0.951 . S
H4645 C4671 0.950 . S
H4646 C4672 0.950 . S
H4647 C4674 0.950 . S
H4648 C4677 0.950 . S
H4649 C4678 0.950 . S
H4650 C4680 0.950 . S
H4651 C4681 0.950 . S
C4652 H4634 0.951 . S
C4652 C4653 1.366 . S
C4652 C4654 1.388 . S
C4653 C4652 1.366 . S
C4653 C4657 1.385 . S
C4654 H4635 0.951 . S
C4654 C4652 1.388 . S
C4654 C4655 1.366 . S
C4655 C4654 1.366 . S
C4655 C4656 1.414 . S
C4655 C4658 1.499 . S
C4656 H4636 0.950 . S
C4656 C4655 1.414 . S
C4656 C4657 1.374 . S
C4657 H4637 0.950 . S
C4657 C4653 1.385 . S
C4657 C4656 1.374 . S
C4658 C4655 1.499 . S
C4658 C4659 1.373 . S
C4658 C4660 1.389 . S
C4659 H4638 0.950 . S
C4659 C4658 1.373 . S
C4659 C4675 1.377 . S
C4660 C4658 1.389 . S
C4660 C4661 1.524 . S
C4660 C4674 1.377 . S
C4661 C4660 1.524 . S
C4661 C4662 1.397 . S
C4661 C4666 1.363 . S
C4662 H4639 0.950 . S
C4662 C4661 1.397 . S
C4662 C4663 1.334 . S
C4663 H4640 0.950 . S
C4663 C4662 1.334 . S
C4663 C4664 1.287 . S
C4664 C4663 1.287 . S
C4664 C4665 1.524 . S
C4664 H4683 0.913 . S
C4665 H4641 0.950 . S
C4665 C4664 1.524 . S
C4665 C4666 1.415 . S
C4666 H4642 0.950 . S
C4666 C4661 1.363 . S
C4666 C4665 1.415 . S
C4667 H4643 0.951 . S
C4667 C4668 1.366 . S
C4667 C4669 1.388 . S
C4668 C4667 1.366 . S
C4668 C4672 1.385 . S
C4669 H4644 0.951 . S
C4669 C4667 1.388 . S
C4669 C4670 1.366 . S
C4670 C4669 1.366 . S
C4670 C4671 1.414 . S
C4670 C4673 1.499 . S
C4671 H4645 0.950 . S
C4671 C4670 1.414 . S
C4671 C4672 1.374 . S
C4672 H4646 0.950 . S
C4672 C4668 1.385 . S
C4672 C4671 1.374 . S
C4673 C4670 1.499 . S
C4673 C4674 1.373 . S
C4673 C4675 1.389 . S
C4674 H4647 0.950 . S
C4674 C4660 1.377 . S
C4674 C4673 1.373 . S
C4675 C4659 1.377 . S
C4675 C4673 1.389 . S
C4675 C4676 1.524 1_655 S
C4676 C4675 1.524 1_455 S
C4676 C4677 1.397 . S
C4676 C4681 1.363 . S
C4677 H4648 0.950 . S
C4677 C4676 1.397 . S
C4677 C4678 1.334 . S
C4678 H4649 0.950 . S
C4678 C4677 1.334 . S
C4678 C4679 1.287 . S
C4679 C4678 1.287 . S
C4679 C4680 1.524 . S
C4679 H4682 0.999 . S
C4680 H4650 0.950 . S
C4680 C4679 1.524 . S
C4680 C4681 1.415 . S
C4681 H4651 0.950 . S
C4681 C4676 1.363 . S
C4681 C4680 1.415 . S
H4682 C4679 0.999 . S
H4683 C4664 0.913 . S
H4684 C4702 0.951 . S
H4685 C4704 0.951 . S
H4686 C4706 0.950 . S
H4687 C4707 0.950 . S
H4688 C4709 0.950 . S
H4689 C4712 0.950 . S
H4690 C4713 0.950 . S
H4691 C4715 0.950 . S
H4692 C4716 0.950 . S
H4693 C4717 0.951 . S
H4694 C4719 0.951 . S
H4695 C4721 0.950 . S
H4696 C4722 0.950 . S
H4697 C4724 0.950 . S
H4698 C4727 0.950 . S
H4699 C4728 0.950 . S
H4700 C4730 0.950 . S
H4701 C4731 0.950 . S
C4702 H4684 0.951 . S
C4702 C4703 1.366 . S
C4702 C4704 1.388 . S
C4703 C4702 1.366 . S
C4703 C4707 1.385 . S
C4704 H4685 0.951 . S
C4704 C4702 1.388 . S
C4704 C4705 1.366 . S
C4705 C4704 1.366 . S
C4705 C4706 1.414 . S
C4705 C4708 1.499 . S
C4706 H4686 0.950 . S
C4706 C4705 1.414 . S
C4706 C4707 1.374 . S
C4707 H4687 0.950 . S
C4707 C4703 1.385 . S
C4707 C4706 1.374 . S
C4708 C4705 1.499 . S
C4708 C4709 1.373 . S
C4708 C4710 1.389 . S
C4709 H4688 0.950 . S
C4709 C4708 1.373 . S
C4709 C4725 1.377 . S
C4710 C4708 1.389 . S
C4710 C4711 1.524 . S
C4710 C4724 1.377 . S
C4711 C4710 1.524 . S
C4711 C4712 1.397 . S
C4711 C4716 1.363 . S
C4712 H4689 0.950 . S
C4712 C4711 1.397 . S
C4712 C4713 1.334 . S
C4713 H4690 0.950 . S
C4713 C4712 1.334 . S
C4713 C4714 1.287 . S
C4714 C4713 1.287 . S
C4714 C4715 1.524 . S
C4714 H4733 0.913 . S
C4715 H4691 0.950 . S
C4715 C4714 1.524 . S
C4715 C4716 1.415 . S
C4716 H4692 0.950 . S
C4716 C4711 1.363 . S
C4716 C4715 1.415 . S
C4717 H4693 0.951 . S
C4717 C4718 1.366 . S
C4717 C4719 1.388 . S
C4718 C4717 1.366 . S
C4718 C4722 1.385 . S
C4719 H4694 0.951 . S
C4719 C4717 1.388 . S
C4719 C4720 1.366 . S
C4720 C4719 1.366 . S
C4720 C4721 1.414 . S
C4720 C4723 1.499 . S
C4721 H4695 0.950 . S
C4721 C4720 1.414 . S
C4721 C4722 1.374 . S
C4722 H4696 0.950 . S
C4722 C4718 1.385 . S
C4722 C4721 1.374 . S
C4723 C4720 1.499 . S
C4723 C4724 1.373 . S
C4723 C4725 1.389 . S
C4724 H4697 0.950 . S
C4724 C4710 1.377 . S
C4724 C4723 1.373 . S
C4725 C4709 1.377 . S
C4725 C4723 1.389 . S
C4725 C4726 1.524 . S
C4726 C4725 1.524 . S
C4726 C4727 1.397 . S
C4726 C4731 1.363 . S
C4727 H4698 0.950 . S
C4727 C4726 1.397 . S
C4727 C4728 1.334 . S
C4728 H4699 0.950 . S
C4728 C4727 1.334 . S
C4728 C4729 1.287 . S
C4729 C4728 1.287 . S
C4729 C4730 1.524 . S
C4729 H4732 0.999 . S
C4730 H4700 0.950 . S
C4730 C4729 1.524 . S
C4730 C4731 1.415 . S
C4731 H4701 0.950 . S
C4731 C4726 1.363 . S
C4731 C4730 1.415 . S
H4732 C4729 0.999 . S
H4733 C4714 0.913 . S
H4734 C4752 0.951 . S
H4735 C4754 0.951 . S
H4736 C4756 0.950 . S
H4737 C4757 0.950 . S
H4738 C4759 0.950 . S
H4739 C4762 0.950 . S
H4740 C4763 0.950 . S
H4741 C4765 0.950 . S
H4742 C4766 0.950 . S
H4743 C4767 0.951 . S
H4744 C4769 0.951 . S
H4745 C4771 0.950 . S
H4746 C4772 0.950 . S
H4747 C4774 0.950 . S
H4748 C4777 0.950 . S
H4749 C4778 0.950 . S
H4750 C4780 0.950 . S
H4751 C4781 0.950 . S
C4752 H4734 0.951 . S
C4752 C4753 1.366 . S
C4752 C4754 1.388 . S
C4753 C4752 1.366 . S
C4753 C4757 1.385 . S
C4754 H4735 0.951 . S
C4754 C4752 1.388 . S
C4754 C4755 1.366 . S
C4755 C4754 1.366 . S
C4755 C4756 1.414 . S
C4755 C4758 1.499 . S
C4756 H4736 0.950 . S
C4756 C4755 1.414 . S
C4756 C4757 1.374 . S
C4757 H4737 0.950 . S
C4757 C4753 1.385 . S
C4757 C4756 1.374 . S
C4758 C4755 1.499 . S
C4758 C4759 1.373 . S
C4758 C4760 1.389 . S
C4759 H4738 0.950 . S
C4759 C4758 1.373 . S
C4759 C4775 1.377 . S
C4760 C4758 1.389 . S
C4760 C4761 1.524 . S
C4760 C4774 1.377 . S
C4761 C4760 1.524 . S
C4761 C4762 1.397 . S
C4761 C4766 1.363 . S
C4762 H4739 0.950 . S
C4762 C4761 1.397 . S
C4762 C4763 1.334 . S
C4763 H4740 0.950 . S
C4763 C4762 1.334 . S
C4763 C4764 1.287 . S
C4764 C4763 1.287 . S
C4764 C4765 1.524 . S
C4764 H4783 0.913 . S
C4765 H4741 0.950 . S
C4765 C4764 1.524 . S
C4765 C4766 1.415 . S
C4766 H4742 0.950 . S
C4766 C4761 1.363 . S
C4766 C4765 1.415 . S
C4767 H4743 0.951 . S
C4767 C4768 1.366 . S
C4767 C4769 1.388 . S
C4768 C4767 1.366 . S
C4768 C4772 1.385 . S
C4769 H4744 0.951 . S
C4769 C4767 1.388 . S
C4769 C4770 1.366 . S
C4770 C4769 1.366 . S
C4770 C4771 1.414 . S
C4770 C4773 1.499 . S
C4771 H4745 0.950 . S
C4771 C4770 1.414 . S
C4771 C4772 1.374 . S
C4772 H4746 0.950 . S
C4772 C4768 1.385 . S
C4772 C4771 1.374 . S
C4773 C4770 1.499 . S
C4773 C4774 1.373 . S
C4773 C4775 1.389 . S
C4774 H4747 0.950 . S
C4774 C4760 1.377 . S
C4774 C4773 1.373 . S
C4775 C4759 1.377 . S
C4775 C4773 1.389 . S
C4775 C4776 1.524 . S
C4776 C4775 1.524 . S
C4776 C4777 1.397 . S
C4776 C4781 1.363 . S
C4777 H4748 0.950 . S
C4777 C4776 1.397 . S
C4777 C4778 1.334 . S
C4778 H4749 0.950 . S
C4778 C4777 1.334 . S
C4778 C4779 1.287 . S
C4779 C4778 1.287 . S
C4779 C4780 1.524 . S
C4779 H4782 0.999 . S
C4780 H4750 0.950 . S
C4780 C4779 1.524 . S
C4780 C4781 1.415 . S
C4781 H4751 0.950 . S
C4781 C4776 1.363 . S
C4781 C4780 1.415 . S
H4782 C4779 0.999 . S
H4783 C4764 0.913 . S
H4784 C4802 0.951 . S
H4785 C4804 0.951 . S
H4786 C4806 0.950 . S
H4787 C4807 0.950 1_545 S
H4788 C4809 0.950 . S
H4789 C4812 0.950 . S
H4790 C4813 0.950 . S
H4791 C4815 0.950 . S
H4792 C4816 0.950 . S
H4793 C4817 0.951 . S
H4794 C4819 0.951 . S
H4795 C4821 0.950 . S
H4796 C4822 0.950 . S
H4797 C4824 0.950 . S
H4798 C4827 0.950 . S
H4799 C4828 0.950 . S
H4800 C4830 0.950 . S
H4801 C4831 0.950 . S
C4802 H4784 0.951 . S
C4802 C4803 1.366 . S
C4802 C4804 1.388 . S
C4803 C4802 1.366 . S
C4803 C4807 1.385 . S
C4804 H4785 0.951 . S
C4804 C4802 1.388 . S
C4804 C4805 1.366 . S
C4805 C4804 1.366 . S
C4805 C4806 1.414 . S
C4805 C4808 1.499 . S
C4806 H4786 0.950 . S
C4806 C4805 1.414 . S
C4806 C4807 1.374 . S
C4807 H4787 0.950 1_565 S
C4807 C4803 1.385 . S
C4807 C4806 1.374 . S
C4808 C4805 1.499 . S
C4808 C4809 1.373 . S
C4808 C4810 1.389 . S
C4809 H4788 0.950 . S
C4809 C4808 1.373 . S
C4809 C4825 1.377 . S
C4810 C4808 1.389 . S
C4810 C4811 1.524 . S
C4810 C4824 1.377 . S
C4811 C4810 1.524 . S
C4811 C4812 1.397 . S
C4811 C4816 1.363 . S
C4812 H4789 0.950 . S
C4812 C4811 1.397 . S
C4812 C4813 1.334 . S
C4813 H4790 0.950 . S
C4813 C4812 1.334 . S
C4813 C4814 1.287 . S
C4814 C4813 1.287 . S
C4814 C4815 1.524 . S
C4814 H4833 0.913 . S
C4815 H4791 0.950 . S
C4815 C4814 1.524 . S
C4815 C4816 1.415 . S
C4816 H4792 0.950 . S
C4816 C4811 1.363 . S
C4816 C4815 1.415 . S
C4817 H4793 0.951 . S
C4817 C4818 1.366 . S
C4817 C4819 1.388 . S
C4818 C4817 1.366 . S
C4818 C4822 1.385 . S
C4819 H4794 0.951 . S
C4819 C4817 1.388 . S
C4819 C4820 1.366 . S
C4820 C4819 1.366 . S
C4820 C4821 1.414 . S
C4820 C4823 1.499 . S
C4821 H4795 0.950 . S
C4821 C4820 1.414 . S
C4821 C4822 1.374 . S
C4822 H4796 0.950 . S
C4822 C4818 1.385 . S
C4822 C4821 1.374 . S
C4823 C4820 1.499 . S
C4823 C4824 1.373 . S
C4823 C4825 1.389 . S
C4824 H4797 0.950 . S
C4824 C4810 1.377 . S
C4824 C4823 1.373 . S
C4825 C4809 1.377 . S
C4825 C4823 1.389 . S
C4825 C4826 1.524 . S
C4826 C4825 1.524 . S
C4826 C4827 1.397 . S
C4826 C4831 1.363 . S
C4827 H4798 0.950 . S
C4827 C4826 1.397 . S
C4827 C4828 1.334 . S
C4828 H4799 0.950 . S
C4828 C4827 1.334 . S
C4828 C4829 1.287 . S
C4829 C4828 1.287 . S
C4829 C4830 1.524 . S
C4829 H4832 0.999 . S
C4830 H4800 0.950 . S
C4830 C4829 1.524 . S
C4830 C4831 1.415 . S
C4831 H4801 0.950 . S
C4831 C4826 1.363 . S
C4831 C4830 1.415 . S
H4832 C4829 0.999 . S
H4833 C4814 0.913 . S
H4834 C4852 0.951 . S
H4835 C4854 0.951 . S
H4836 C4856 0.950 . S
H4837 C4857 0.950 . S
H4838 C4859 0.950 . S
H4839 C4862 0.950 . S
H4840 C4863 0.950 . S
H4841 C4865 0.950 . S
H4842 C4866 0.950 . S
H4843 C4867 0.951 . S
H4844 C4869 0.951 . S
H4845 C4871 0.950 . S
H4846 C4872 0.950 . S
H4847 C4874 0.950 . S
H4848 C4877 0.950 . S
H4849 C4878 0.950 . S
H4850 C4880 0.950 . S
H4851 C4881 0.950 . S
C4852 H4834 0.951 . S
C4852 C4853 1.366 . S
C4852 C4854 1.388 . S
C4853 C4852 1.366 . S
C4853 C4857 1.385 . S
C4854 H4835 0.951 . S
C4854 C4852 1.388 . S
C4854 C4855 1.366 . S
C4855 C4854 1.366 . S
C4855 C4856 1.414 . S
C4855 C4858 1.499 . S
C4856 H4836 0.950 . S
C4856 C4855 1.414 . S
C4856 C4857 1.374 . S
C4857 H4837 0.950 . S
C4857 C4853 1.385 . S
C4857 C4856 1.374 . S
C4858 C4855 1.499 . S
C4858 C4859 1.373 . S
C4858 C4860 1.389 . S
C4859 H4838 0.950 . S
C4859 C4858 1.373 . S
C4859 C4875 1.377 . S
C4860 C4858 1.389 . S
C4860 C4861 1.524 . S
C4860 C4874 1.377 . S
C4861 C4860 1.524 . S
C4861 C4862 1.397 . S
C4861 C4866 1.363 . S
C4862 H4839 0.950 . S
C4862 C4861 1.397 . S
C4862 C4863 1.334 . S
C4863 H4840 0.950 . S
C4863 C4862 1.334 . S
C4863 C4864 1.287 . S
C4864 C4863 1.287 . S
C4864 C4865 1.524 . S
C4864 H4883 0.913 . S
C4865 H4841 0.950 . S
C4865 C4864 1.524 . S
C4865 C4866 1.415 . S
C4866 H4842 0.950 . S
C4866 C4861 1.363 . S
C4866 C4865 1.415 . S
C4867 H4843 0.951 . S
C4867 C4868 1.366 . S
C4867 C4869 1.388 . S
C4868 C4867 1.366 . S
C4868 C4872 1.385 . S
C4869 H4844 0.951 . S
C4869 C4867 1.388 . S
C4869 C4870 1.366 . S
C4870 C4869 1.366 . S
C4870 C4871 1.414 . S
C4870 C4873 1.499 . S
C4871 H4845 0.950 . S
C4871 C4870 1.414 . S
C4871 C4872 1.374 . S
C4872 H4846 0.950 . S
C4872 C4868 1.385 . S
C4872 C4871 1.374 . S
C4873 C4870 1.499 . S
C4873 C4874 1.373 . S
C4873 C4875 1.389 . S
C4874 H4847 0.950 . S
C4874 C4860 1.377 . S
C4874 C4873 1.373 . S
C4875 C4859 1.377 . S
C4875 C4873 1.389 . S
C4875 C4876 1.524 . S
C4876 C4875 1.524 . S
C4876 C4877 1.397 . S
C4876 C4881 1.363 . S
C4877 H4848 0.950 . S
C4877 C4876 1.397 . S
C4877 C4878 1.334 . S
C4878 H4849 0.950 . S
C4878 C4877 1.334 . S
C4878 C4879 1.287 . S
C4879 C4878 1.287 . S
C4879 C4880 1.524 . S
C4879 H4882 0.999 . S
C4880 H4850 0.950 . S
C4880 C4879 1.524 . S
C4880 C4881 1.415 . S
C4881 H4851 0.950 . S
C4881 C4876 1.363 . S
C4881 C4880 1.415 . S
H4882 C4879 0.999 . S
H4883 C4864 0.913 . S
H4884 C4902 0.951 . S
H4885 C4904 0.951 . S
H4886 C4906 0.950 . S
H4887 C4907 0.950 . S
H4888 C4909 0.950 . S
H4889 C4912 0.950 . S
H4890 C4913 0.950 . S
H4891 C4915 0.950 . S
H4892 C4916 0.950 . S
H4893 C4917 0.951 . S
H4894 C4919 0.951 . S
H4895 C4921 0.950 . S
H4896 C4922 0.950 . S
H4897 C4924 0.950 . S
H4898 C4927 0.950 . S
H4899 C4928 0.950 . S
H4900 C4930 0.950 . S
H4901 C4931 0.950 . S
C4902 H4884 0.951 . S
C4902 C4903 1.366 . S
C4902 C4904 1.388 . S
C4903 C4902 1.366 . S
C4903 C4907 1.385 . S
C4904 H4885 0.951 . S
C4904 C4902 1.388 . S
C4904 C4905 1.366 . S
C4905 C4904 1.366 . S
C4905 C4906 1.414 . S
C4905 C4908 1.499 . S
C4906 H4886 0.950 . S
C4906 C4905 1.414 . S
C4906 C4907 1.374 . S
C4907 H4887 0.950 . S
C4907 C4903 1.385 . S
C4907 C4906 1.374 . S
C4908 C4905 1.499 . S
C4908 C4909 1.373 . S
C4908 C4910 1.389 . S
C4909 H4888 0.950 . S
C4909 C4908 1.373 . S
C4909 C4925 1.377 . S
C4910 C4908 1.389 . S
C4910 C4911 1.524 . S
C4910 C4924 1.377 . S
C4911 C4910 1.524 . S
C4911 C4912 1.397 . S
C4911 C4916 1.363 . S
C4912 H4889 0.950 . S
C4912 C4911 1.397 . S
C4912 C4913 1.334 . S
C4913 H4890 0.950 . S
C4913 C4912 1.334 . S
C4913 C4914 1.287 . S
C4914 C4913 1.287 . S
C4914 C4915 1.524 . S
C4914 H4933 0.913 . S
C4915 H4891 0.950 . S
C4915 C4914 1.524 . S
C4915 C4916 1.415 . S
C4916 H4892 0.950 . S
C4916 C4911 1.363 . S
C4916 C4915 1.415 . S
C4917 H4893 0.951 . S
C4917 C4918 1.366 . S
C4917 C4919 1.388 . S
C4918 C4917 1.366 . S
C4918 C4922 1.385 . S
C4919 H4894 0.951 . S
C4919 C4917 1.388 . S
C4919 C4920 1.366 . S
C4920 C4919 1.366 . S
C4920 C4921 1.414 . S
C4920 C4923 1.499 . S
C4921 H4895 0.950 . S
C4921 C4920 1.414 . S
C4921 C4922 1.374 . S
C4922 H4896 0.950 . S
C4922 C4918 1.385 . S
C4922 C4921 1.374 . S
C4923 C4920 1.499 . S
C4923 C4924 1.373 . S
C4923 C4925 1.389 . S
C4924 H4897 0.950 . S
C4924 C4910 1.377 . S
C4924 C4923 1.373 . S
C4925 C4909 1.377 . S
C4925 C4923 1.389 . S
C4925 C4926 1.524 . S
C4926 C4925 1.524 . S
C4926 C4927 1.397 . S
C4926 C4931 1.363 . S
C4927 H4898 0.950 . S
C4927 C4926 1.397 . S
C4927 C4928 1.334 . S
C4928 H4899 0.950 . S
C4928 C4927 1.334 . S
C4928 C4929 1.287 . S
C4929 C4928 1.287 . S
C4929 C4930 1.524 . S
C4929 H4932 0.999 . S
C4930 H4900 0.950 . S
C4930 C4929 1.524 . S
C4930 C4931 1.415 . S
C4931 H4901 0.950 . S
C4931 C4926 1.363 . S
C4931 C4930 1.415 . S
H4932 C4929 0.999 . S
H4933 C4914 0.913 . S
H4934 C4952 0.951 . S
H4935 C4954 0.951 . S
H4936 C4956 0.950 . S
H4937 C4957 0.950 . S
H4938 C4959 0.950 . S
H4939 C4962 0.950 . S
H4940 C4963 0.950 . S
H4941 C4965 0.950 . S
H4942 C4966 0.950 . S
H4943 C4967 0.951 . S
H4944 C4969 0.951 . S
H4945 C4971 0.950 . S
H4946 C4972 0.950 . S
H4947 C4974 0.950 . S
H4948 C4977 0.950 . S
H4949 C4978 0.950 . S
H4950 C4980 0.950 . S
H4951 C4981 0.950 . S
C4952 H4934 0.951 . S
C4952 C4953 1.366 . S
C4952 C4954 1.388 . S
C4953 C4952 1.366 . S
C4953 C4957 1.385 . S
C4954 H4935 0.951 . S
C4954 C4952 1.388 . S
C4954 C4955 1.366 . S
C4955 C4954 1.366 . S
C4955 C4956 1.414 . S
C4955 C4958 1.499 . S
C4956 H4936 0.950 . S
C4956 C4955 1.414 . S
C4956 C4957 1.374 . S
C4957 H4937 0.950 . S
C4957 C4953 1.385 . S
C4957 C4956 1.374 . S
C4958 C4955 1.499 . S
C4958 C4959 1.373 . S
C4958 C4960 1.389 . S
C4959 H4938 0.950 . S
C4959 C4958 1.373 . S
C4959 C4975 1.377 . S
C4960 C4958 1.389 . S
C4960 C4961 1.524 . S
C4960 C4974 1.377 . S
C4961 C4960 1.524 . S
C4961 C4962 1.397 . S
C4961 C4966 1.363 . S
C4962 H4939 0.950 . S
C4962 C4961 1.397 . S
C4962 C4963 1.334 . S
C4963 H4940 0.950 . S
C4963 C4962 1.334 . S
C4963 C4964 1.287 . S
C4964 C4963 1.287 . S
C4964 C4965 1.524 . S
C4964 H4983 0.913 . S
C4965 H4941 0.950 . S
C4965 C4964 1.524 . S
C4965 C4966 1.415 . S
C4966 H4942 0.950 . S
C4966 C4961 1.363 . S
C4966 C4965 1.415 . S
C4967 H4943 0.951 . S
C4967 C4968 1.366 . S
C4967 C4969 1.388 . S
C4968 C4967 1.366 . S
C4968 C4972 1.385 . S
C4969 H4944 0.951 . S
C4969 C4967 1.388 . S
C4969 C4970 1.366 . S
C4970 C4969 1.366 . S
C4970 C4971 1.414 . S
C4970 C4973 1.499 . S
C4971 H4945 0.950 . S
C4971 C4970 1.414 . S
C4971 C4972 1.374 . S
C4972 H4946 0.950 . S
C4972 C4968 1.385 . S
C4972 C4971 1.374 . S
C4973 C4970 1.499 . S
C4973 C4974 1.373 . S
C4973 C4975 1.389 . S
C4974 H4947 0.950 . S
C4974 C4960 1.377 . S
C4974 C4973 1.373 . S
C4975 C4959 1.377 . S
C4975 C4973 1.389 . S
C4975 C4976 1.524 . S
C4976 C4975 1.524 . S
C4976 C4977 1.397 . S
C4976 C4981 1.363 . S
C4977 H4948 0.950 . S
C4977 C4976 1.397 . S
C4977 C4978 1.334 . S
C4978 H4949 0.950 . S
C4978 C4977 1.334 . S
C4978 C4979 1.287 . S
C4979 C4978 1.287 . S
C4979 C4980 1.524 . S
C4979 H4982 0.999 . S
C4980 H4950 0.950 . S
C4980 C4979 1.524 . S
C4980 C4981 1.415 . S
C4981 H4951 0.950 . S
C4981 C4976 1.363 . S
C4981 C4980 1.415 . S
H4982 C4979 0.999 . S
H4983 C4964 0.913 . S
H4984 C5002 1.034 . S
H4985 C5004 0.951 . S
H4986 C5006 0.950 . S
H4987 C5007 0.950 . S
H4988 C5009 0.950 . S
H4989 C5012 0.950 . S
H4990 C5013 0.950 . S
H4991 C5015 0.950 . S
H4992 C5016 0.950 . S
H4993 C5017 0.951 . S
H4994 C5019 0.951 . S
H4995 C5021 0.950 . S
H4996 C5022 0.950 . S
H4997 C5024 0.950 . S
H4998 C5027 0.950 . S
H4999 C5028 0.950 . S
H5000 C5030 0.950 . S
H5001 C5031 0.950 . S
C5002 H4984 1.034 . S
C5002 C5003 1.366 . S
C5002 C5004 1.388 . S
C5003 C5002 1.366 . S
C5003 C5007 1.385 . S
C5004 H4985 0.951 . S
C5004 C5002 1.388 . S
C5004 C5005 1.366 . S
C5005 C5004 1.366 . S
C5005 C5006 1.414 . S
C5005 C5008 1.499 . S
C5006 H4986 0.950 . S
C5006 C5005 1.414 . S
C5006 C5007 1.374 . S
C5007 H4987 0.950 . S
C5007 C5003 1.385 . S
C5007 C5006 1.374 . S
C5008 C5005 1.499 . S
C5008 C5009 1.373 . S
C5008 C5010 1.389 . S
C5009 H4988 0.950 . S
C5009 C5008 1.373 . S
C5009 C5025 1.377 . S
C5010 C5008 1.389 . S
C5010 C5011 1.524 . S
C5010 C5024 1.377 . S
C5011 C5010 1.524 . S
C5011 C5012 1.397 . S
C5011 C5016 1.363 . S
C5012 H4989 0.950 . S
C5012 C5011 1.397 . S
C5012 C5013 1.334 . S
C5013 H4990 0.950 . S
C5013 C5012 1.334 . S
C5013 C5014 1.287 . S
C5014 C5013 1.287 . S
C5014 C5015 1.524 . S
C5014 H5033 0.913 . S
C5015 H4991 0.950 . S
C5015 C5014 1.524 . S
C5015 C5016 1.415 . S
C5016 H4992 0.950 . S
C5016 C5011 1.363 . S
C5016 C5015 1.415 . S
C5017 H4993 0.951 . S
C5017 C5018 1.366 . S
C5017 C5019 1.388 . S
C5018 C5017 1.366 . S
C5018 C5022 1.385 . S
C5019 H4994 0.951 . S
C5019 C5017 1.388 . S
C5019 C5020 1.366 . S
C5020 C5019 1.366 . S
C5020 C5021 1.414 . S
C5020 C5023 1.499 . S
C5021 H4995 0.950 . S
C5021 C5020 1.414 . S
C5021 C5022 1.374 . S
C5022 H4996 0.950 . S
C5022 C5018 1.385 . S
C5022 C5021 1.374 . S
C5023 C5020 1.499 . S
C5023 C5024 1.373 . S
C5023 C5025 1.389 . S
C5024 H4997 0.950 . S
C5024 C5010 1.377 . S
C5024 C5023 1.373 . S
C5025 C5009 1.377 . S
C5025 C5023 1.389 . S
C5025 C5026 1.524 . S
C5026 C5025 1.524 . S
C5026 C5027 1.397 . S
C5026 C5031 1.363 . S
C5027 H4998 0.950 . S
C5027 C5026 1.397 . S
C5027 C5028 1.334 . S
C5028 H4999 0.950 . S
C5028 C5027 1.334 . S
C5028 C5029 1.287 . S
C5029 C5028 1.287 . S
C5029 C5030 1.524 . S
C5029 H5032 0.999 . S
C5030 H5000 0.950 . S
C5030 C5029 1.524 . S
C5030 C5031 1.415 . S
C5031 H5001 0.950 . S
C5031 C5026 1.363 . S
C5031 C5030 1.415 . S
H5032 C5029 0.999 . S
H5033 C5014 0.913 . S
H5034 C5052 0.951 . S
H5035 C5054 0.951 . S
H5036 C5056 0.950 . S
H5037 C5057 0.950 . S
H5038 C5059 0.950 . S
H5039 C5062 0.950 . S
H5040 C5063 0.950 . S
H5041 C5065 0.950 . S
H5042 C5066 0.950 . S
H5043 C5067 0.951 . S
H5044 C5069 0.951 . S
H5045 C5071 0.950 . S
H5046 C5072 0.950 . S
H5047 C5074 0.950 . S
H5048 C5077 0.950 1_655 S
H5049 C5078 0.950 . S
H5050 C5080 0.950 . S
H5051 C5081 0.950 . S
C5052 H5034 0.951 . S
C5052 C5053 1.366 . S
C5052 C5054 1.388 . S
C5053 C5052 1.366 . S
C5053 C5057 1.385 . S
C5054 H5035 0.951 . S
C5054 C5052 1.388 . S
C5054 C5055 1.366 . S
C5055 C5054 1.366 . S
C5055 C5056 1.414 . S
C5055 C5058 1.499 . S
C5056 H5036 0.950 . S
C5056 C5055 1.414 . S
C5056 C5057 1.374 . S
C5057 H5037 0.950 . S
C5057 C5053 1.385 . S
C5057 C5056 1.374 . S
C5058 C5055 1.499 . S
C5058 C5059 1.373 . S
C5058 C5060 1.389 . S
C5059 H5038 0.950 . S
C5059 C5058 1.373 . S
C5059 C5075 1.377 . S
C5060 C5058 1.389 . S
C5060 C5061 1.524 . S
C5060 C5074 1.377 . S
C5061 C5060 1.524 . S
C5061 C5062 1.397 . S
C5061 C5066 1.363 . S
C5062 H5039 0.950 . S
C5062 C5061 1.397 . S
C5062 C5063 1.334 . S
C5063 H5040 0.950 . S
C5063 C5062 1.334 . S
C5063 C5064 1.287 . S
C5064 C5063 1.287 . S
C5064 C5065 1.524 . S
C5064 H5083 0.913 . S
C5065 H5041 0.950 . S
C5065 C5064 1.524 . S
C5065 C5066 1.415 . S
C5066 H5042 0.950 . S
C5066 C5061 1.363 . S
C5066 C5065 1.415 . S
C5067 H5043 0.951 . S
C5067 C5068 1.366 1_455 S
C5067 C5069 1.388 . S
C5068 C5067 1.366 1_655 S
C5068 C5072 1.385 . S
C5069 H5044 0.951 . S
C5069 C5067 1.388 . S
C5069 C5070 1.366 1_455 S
C5070 C5069 1.366 1_655 S
C5070 C5071 1.414 . S
C5070 C5073 1.499 . S
C5071 H5045 0.950 . S
C5071 C5070 1.414 . S
C5071 C5072 1.374 . S
C5072 H5046 0.950 . S
C5072 C5068 1.385 . S
C5072 C5071 1.374 . S
C5073 C5070 1.499 . S
C5073 C5074 1.373 . S
C5073 C5075 1.389 . S
C5074 H5047 0.950 . S
C5074 C5060 1.377 . S
C5074 C5073 1.373 . S
C5075 C5059 1.377 . S
C5075 C5073 1.389 . S
C5075 C5076 1.524 1_655 S
C5076 C5075 1.524 1_455 S
C5076 C5077 1.397 . S
C5076 C5081 1.363 . S
C5077 H5048 0.950 1_455 S
C5077 C5076 1.397 . S
C5077 C5078 1.334 . S
C5078 H5049 0.950 . S
C5078 C5077 1.334 . S
C5078 C5079 1.287 . S
C5079 C5078 1.287 . S
C5079 C5080 1.524 . S
C5079 H5082 0.999 . S
C5080 H5050 0.950 . S
C5080 C5079 1.524 . S
C5080 C5081 1.415 . S
C5081 H5051 0.950 . S
C5081 C5076 1.363 . S
C5081 C5080 1.415 . S
H5082 C5079 0.999 . S
H5083 C5064 0.913 . S
H5084 C5102 0.951 . S
H5085 C5104 0.951 . S
H5086 C5106 0.950 . S
H5087 C5107 0.950 . S
H5088 C5109 0.950 . S
H5089 C5112 0.950 . S
H5090 C5113 0.950 . S
H5091 C5115 0.950 . S
H5092 C5116 0.950 . S
H5093 C5117 0.951 . S
H5094 C5119 0.951 . S
H5095 C5121 0.950 . S
H5096 C5122 0.950 . S
H5097 C5124 0.950 . S
H5098 C5127 0.950 . S
H5099 C5128 0.950 . S
H5100 C5130 0.950 . S
H5101 C5131 0.950 . S
C5102 H5084 0.951 . S
C5102 C5103 1.366 . S
C5102 C5104 1.388 . S
C5103 C5102 1.366 . S
C5103 C5107 1.385 . S
C5104 H5085 0.951 . S
C5104 C5102 1.388 . S
C5104 C5105 1.366 . S
C5105 C5104 1.366 . S
C5105 C5106 1.414 . S
C5105 C5108 1.499 . S
C5106 H5086 0.950 . S
C5106 C5105 1.414 . S
C5106 C5107 1.374 . S
C5107 H5087 0.950 . S
C5107 C5103 1.385 . S
C5107 C5106 1.374 . S
C5108 C5105 1.499 . S
C5108 C5109 1.373 . S
C5108 C5110 1.389 . S
C5109 H5088 0.950 . S
C5109 C5108 1.373 . S
C5109 C5125 1.377 . S
C5110 C5108 1.389 . S
C5110 C5111 1.524 . S
C5110 C5124 1.377 . S
C5111 C5110 1.524 . S
C5111 C5112 1.397 . S
C5111 C5116 1.363 . S
C5112 H5089 0.950 . S
C5112 C5111 1.397 . S
C5112 C5113 1.334 . S
C5113 H5090 0.950 . S
C5113 C5112 1.334 . S
C5113 C5114 1.287 . S
C5114 C5113 1.287 . S
C5114 C5115 1.524 . S
C5114 H5133 0.913 . S
C5115 H5091 0.950 . S
C5115 C5114 1.524 . S
C5115 C5116 1.415 . S
C5116 H5092 0.950 . S
C5116 C5111 1.363 . S
C5116 C5115 1.415 . S
C5117 H5093 0.951 . S
C5117 C5118 1.366 . S
C5117 C5119 1.388 . S
C5118 C5117 1.366 . S
C5118 C5122 1.385 . S
C5119 H5094 0.951 . S
C5119 C5117 1.388 . S
C5119 C5120 1.366 . S
C5120 C5119 1.366 . S
C5120 C5121 1.414 . S
C5120 C5123 1.499 . S
C5121 H5095 0.950 . S
C5121 C5120 1.414 . S
C5121 C5122 1.374 . S
C5122 H5096 0.950 . S
C5122 C5118 1.385 . S
C5122 C5121 1.374 . S
C5123 C5120 1.499 . S
C5123 C5124 1.373 . S
C5123 C5125 1.389 . S
C5124 H5097 0.950 . S
C5124 C5110 1.377 . S
C5124 C5123 1.373 . S
C5125 C5109 1.377 . S
C5125 C5123 1.389 . S
C5125 C5126 1.524 . S
C5126 C5125 1.524 . S
C5126 C5127 1.397 . S
C5126 C5131 1.363 . S
C5127 H5098 0.950 . S
C5127 C5126 1.397 . S
C5127 C5128 1.334 . S
C5128 H5099 0.950 . S
C5128 C5127 1.334 . S
C5128 C5129 1.287 . S
C5129 C5128 1.287 . S
C5129 C5130 1.524 . S
C5129 H5132 0.999 . S
C5130 H5100 0.950 . S
C5130 C5129 1.524 . S
C5130 C5131 1.415 . S
C5131 H5101 0.950 . S
C5131 C5126 1.363 . S
C5131 C5130 1.415 . S
H5132 C5129 0.999 . S
H5133 C5114 0.913 . S
H5134 C5152 0.951 . S
H5135 C5154 0.951 . S
H5136 C5156 0.950 . S
H5137 C5157 0.950 . S
H5138 C5159 0.950 . S
H5139 C5162 0.950 . S
H5140 C5163 0.950 . S
H5141 C5165 0.950 . S
H5142 C5166 0.950 . S
H5143 C5167 0.950 1_565 S
H5144 C5169 0.951 . S
H5145 C5171 0.950 . S
H5146 C5172 0.950 . S
H5147 C5174 0.950 . S
H5148 C5177 0.950 . S
H5149 C5178 0.950 . S
H5150 C5180 0.950 . S
H5151 C5181 0.950 . S
C5152 H5134 0.951 . S
C5152 C5153 1.366 . S
C5152 C5154 1.388 . S
C5153 C5152 1.366 . S
C5153 C5157 1.385 . S
C5154 H5135 0.951 . S
C5154 C5152 1.388 . S
C5154 C5155 1.366 . S
C5155 C5154 1.366 . S
C5155 C5156 1.414 . S
C5155 C5158 1.499 . S
C5156 H5136 0.950 . S
C5156 C5155 1.414 . S
C5156 C5157 1.374 . S
C5157 H5137 0.950 . S
C5157 C5153 1.385 . S
C5157 C5156 1.374 . S
C5158 C5155 1.499 . S
C5158 C5159 1.373 . S
C5158 C5160 1.389 . S
C5159 H5138 0.950 . S
C5159 C5158 1.373 . S
C5159 C5175 1.377 . S
C5160 C5158 1.389 . S
C5160 C5161 1.524 . S
C5160 C5174 1.377 . S
C5161 C5160 1.524 . S
C5161 C5162 1.397 1_545 S
C5161 C5166 1.363 . S
C5162 H5139 0.950 . S
C5162 C5161 1.397 1_565 S
C5162 C5163 1.334 . S
C5163 H5140 0.950 . S
C5163 C5162 1.334 . S
C5163 C5164 1.287 . S
C5164 C5163 1.287 . S
C5164 C5165 1.524 . S
C5164 H5183 0.913 . S
C5165 H5141 0.950 . S
C5165 C5164 1.524 . S
C5165 C5166 1.415 1_565 S
C5166 H5142 0.950 . S
C5166 C5161 1.363 . S
C5166 C5165 1.415 1_545 S
C5167 H5143 0.950 1_545 S
C5167 C5168 1.366 . S
C5167 C5169 1.388 . S
C5168 C5167 1.366 . S
C5168 C5172 1.385 . S
C5169 H5144 0.951 . S
C5169 C5167 1.388 . S
C5169 C5170 1.366 . S
C5170 C5169 1.366 . S
C5170 C5171 1.414 . S
C5170 C5173 1.499 . S
C5171 H5145 0.950 . S
C5171 C5170 1.414 . S
C5171 C5172 1.374 . S
C5172 H5146 0.950 . S
C5172 C5168 1.385 . S
C5172 C5171 1.374 . S
C5173 C5170 1.499 . S
C5173 C5174 1.373 . S
C5173 C5175 1.389 . S
C5174 H5147 0.950 . S
C5174 C5160 1.377 . S
C5174 C5173 1.373 . S
C5175 C5159 1.377 . S
C5175 C5173 1.389 . S
C5175 C5176 1.524 . S
C5176 C5175 1.524 . S
C5176 C5177 1.397 . S
C5176 C5181 1.363 . S
C5177 H5148 0.950 . S
C5177 C5176 1.397 . S
C5177 C5178 1.334 . S
C5178 H5149 0.950 . S
C5178 C5177 1.334 . S
C5178 C5179 1.287 . S
C5179 C5178 1.287 . S
C5179 C5180 1.524 . S
C5179 H5182 0.999 . S
C5180 H5150 0.950 . S
C5180 C5179 1.524 . S
C5180 C5181 1.415 . S
C5181 H5151 0.950 . S
C5181 C5176 1.363 . S
C5181 C5180 1.415 . S
H5182 C5179 0.999 . S
H5183 C5164 0.913 . S
C1603 C4 1.061 . S
C1618 C981 1.045 . S
C1653 C26 1.563 . S
C1668 C1061 1.534 . S
C1718 C1129 1.167 . S
C1703 C32 1.185 . S
C1753 C40 1.631 . S
C1768 C1209 1.642 . S
C1803 C12 1.436 . S
C1818 C1283 1.449 . S
C1853 C18 1.480 . S
C1868 C1351 1.441 . S
C1903 C46 0.971 . S
C1918 C1277 0.959 . S
C1968 C1357 1.431 . S
C1953 C68 1.424 . S
C2018 C1203 1.212 . S
C2003 C74 1.219 . S
C2053 C82 1.600 . S
C2068 C1135 1.635 1_545 S
C2118 C987 1.461 . S
C2103 C54 1.452 . S
C2153 C60 1.338 . S
C2168 C1055 1.335 . S
C2203 C88 1.295 . S
C2218 C1425 1.254 . S
C2253 C110 1.594 . S
C2268 C1505 1.550 . S
C2318 C1573 1.464 . S
C2303 C116 1.515 . S
C2353 C124 1.747 . S
C2368 C321 1.723 . S
C2403 C96 1.626 . S
C2418 C395 1.593 . S
C2453 C102 1.499 . S
C2468 C463 1.449 . S
C2503 C130 1.004 . S
C2518 C389 1.002 . S
C2553 C152 1.514 . S
C2568 C469 1.518 . S
C2618 C315 1.358 . S
C2603 C158 1.363 . S
C2668 C1579 1.750 . S
C2653 C166 1.741 . S
C2718 C1431 1.445 . S
C2703 C138 1.444 . S
C2768 C1499 1.398 . S
C2753 C144 1.398 . S
C2803 C172 1.204 . S
C2818 C537 1.165 . S
C2853 C194 1.642 . S
C2868 C617 1.600 . S
C2903 C200 1.535 . S
C2918 C685 1.481 . S
C2953 C208 1.827 . S
C2968 C765 1.799 . S
C3018 C839 1.569 . S
C3003 C180 1.603 . S
C3068 C907 1.507 . S
C3053 C186 1.551 . S
C3118 C833 1.152 . S
C3103 C214 1.152 . S
C3168 C913 1.473 . S
C3153 C236 1.473 . S
C3203 C242 1.297 . S
C3218 C759 1.295 . S
C3268 C691 1.624 . S
C3253 C250 1.613 . S
C3303 C222 1.508 . S
C3318 C543 1.512 . S
C3368 C611 1.361 . S
C3353 C228 1.365 . S
C3418 C291 1.892 . S
C3403 C5 1.721 . S
C3453 C25 1.314 . S
C3468 C365 1.304 . S
C3518 C451 1.440 . S
C3503 C33 1.266 . S
C3568 C525 0.959 . S
C3553 C39 0.958 . S
C3618 C587 1.470 . S
C3603 C11 1.479 1_556 S
C3668 C673 1.424 . S
C3653 C19 1.245 . S
C3703 C47 1.896 . S
C3718 C661 2.047 . S
C3753 C67 1.509 . S
C3768 C513 1.437 . S
C3803 C75 1.452 . S
C3818 C599 1.623 . S
C3853 C81 1.254 . S
C3868 C377 1.206 . S
C3918 C439 1.591 . S
C3903 C53 1.664 . S
C3953 C61 1.396 . S
C3968 C303 1.580 . S
C4018 C735 1.829 . S
C4003 C89 1.632 . S
C4053 C109 1.462 1_545 S
C4068 C809 1.455 . S
C4103 C117 1.258 1_655 S
C4118 C895 1.450 . S
C4168 C969 0.785 . S
C4153 C123 0.779 . S
C4203 C95 1.352 . S
C4218 C1031 1.345 . S
C4253 C103 1.106 . S
C4268 C1117 1.235 . S
C4303 C131 1.505 . S
C4318 C1105 1.682 . S
C4353 C151 1.206 . S
C4368 C957 1.186 . S
C4418 C1043 1.488 . S
C4403 C159 1.306 . S
C4453 C165 1.240 . S
C4468 C821 1.187 . S
C4503 C137 1.691 1_545 S
C4518 C883 1.621 . S
C4568 C747 1.677 . S
C4553 C145 1.485 1_655 S
C4618 C1179 1.656 . S
C4603 C173 1.491 . S
C4653 C193 1.062 . S
C4668 C1253 1.069 . S
C4703 C201 1.133 . S
C4718 C1339 1.300 . S
C4768 C1413 0.954 . S
C4753 C207 0.966 . S
C4818 C1475 1.515 . S
C4803 C179 1.521 1_565 S
C4853 C187 1.336 . S
C4868 C1561 1.526 . S
C4903 C215 1.814 . S
C4918 C1549 1.979 . S
C4953 C235 1.643 1_565 S
C4968 C1401 1.570 . S
C5018 C1487 1.604 . S
C5003 C243 1.423 . S
C5068 C1265 0.818 . S
C5053 C249 0.817 . S
C5118 C1327 1.489 . S
C5103 C221 1.551 . S
C5153 C229 1.180 . S
C5168 C1191 1.337 1_545 S
