# Generated by pormake.
# Topology pto, (3,4)-cn, num edge types: 1
# Building blocks:
#     Node 0, Type 0, BuildingBlock: CUQRIR_clean_linker_1, # of connection points: 3
#     Node 1, Type 0, BuildingBlock: CUQRIR_clean_linker_1, # of connection points: 3
#     Node 2, Type 0, BuildingBlock: CUQRIR_clean_linker_1, # of connection points: 3
#     Node 3, Type 0, BuildingBlock: CUQRIR_clean_linker_1, # of connection points: 3
#     Node 4, Type 0, BuildingBlock: CUQRIR_clean_linker_1, # of connection points: 3
#     Node 5, Type 0, BuildingBlock: CUQRIR_clean_linker_1, # of connection points: 3
#     Node 6, Type 0, BuildingBlock: CUQRIR_clean_linker_1, # of connection points: 3
#     Node 7, Type 0, BuildingBlock: CUQRIR_clean_linker_1, # of connection points: 3
#     Node 8, Type 1, BuildingBlock: NAWXER_clean_sbu_0, # of connection points: 4
#     Node 9, Type 1, BuildingBlock: NAWXER_clean_sbu_0, # of connection points: 4
#     Node 10, Type 1, BuildingBlock: NAWXER_clean_sbu_0, # of connection points: 4
#     Node 11, Type 1, BuildingBlock: NAWXER_clean_sbu_0, # of connection points: 4
#     Node 12, Type 1, BuildingBlock: NAWXER_clean_sbu_0, # of connection points: 4
#     Node 13, Type 1, BuildingBlock: NAWXER_clean_sbu_0, # of connection points: 4
#     Edge 14, Type (0, 1), BuildingBlock: EZIPEK_clean_linker_0, # of connection points: 2
#     Edge 15, Type (0, 1), BuildingBlock: EZIPEK_clean_linker_0, # of connection points: 2
#     Edge 16, Type (0, 1), BuildingBlock: EZIPEK_clean_linker_0, # of connection points: 2
#     Edge 17, Type (0, 1), BuildingBlock: EZIPEK_clean_linker_0, # of connection points: 2
#     Edge 18, Type (0, 1), BuildingBlock: EZIPEK_clean_linker_0, # of connection points: 2
#     Edge 19, Type (0, 1), BuildingBlock: EZIPEK_clean_linker_0, # of connection points: 2
#     Edge 20, Type (0, 1), BuildingBlock: EZIPEK_clean_linker_0, # of connection points: 2
#     Edge 21, Type (0, 1), BuildingBlock: EZIPEK_clean_linker_0, # of connection points: 2
#     Edge 22, Type (0, 1), BuildingBlock: EZIPEK_clean_linker_0, # of connection points: 2
#     Edge 23, Type (0, 1), BuildingBlock: EZIPEK_clean_linker_0, # of connection points: 2
#     Edge 24, Type (0, 1), BuildingBlock: EZIPEK_clean_linker_0, # of connection points: 2
#     Edge 25, Type (0, 1), BuildingBlock: EZIPEK_clean_linker_0, # of connection points: 2
#     Edge 26, Type (0, 1), BuildingBlock: EZIPEK_clean_linker_0, # of connection points: 2
#     Edge 27, Type (0, 1), BuildingBlock: EZIPEK_clean_linker_0, # of connection points: 2
#     Edge 28, Type (0, 1), BuildingBlock: EZIPEK_clean_linker_0, # of connection points: 2
#     Edge 29, Type (0, 1), BuildingBlock: EZIPEK_clean_linker_0, # of connection points: 2
#     Edge 30, Type (0, 1), BuildingBlock: EZIPEK_clean_linker_0, # of connection points: 2
#     Edge 31, Type (0, 1), BuildingBlock: EZIPEK_clean_linker_0, # of connection points: 2
#     Edge 32, Type (0, 1), BuildingBlock: EZIPEK_clean_linker_0, # of connection points: 2
#     Edge 33, Type (0, 1), BuildingBlock: EZIPEK_clean_linker_0, # of connection points: 2
#     Edge 34, Type (0, 1), BuildingBlock: EZIPEK_clean_linker_0, # of connection points: 2
#     Edge 35, Type (0, 1), BuildingBlock: EZIPEK_clean_linker_0, # of connection points: 2
#     Edge 36, Type (0, 1), BuildingBlock: EZIPEK_clean_linker_0, # of connection points: 2
#     Edge 37, Type (0, 1), BuildingBlock: EZIPEK_clean_linker_0, # of connection points: 2
# Relax obj value: 0.022
# Max RMSD: 0.153
# Mean RMSD: 0.073
data_MOF--net-pto--node1-NAWXER_clean_sbu_0--node2-CUQRIR_clean_linker_1--edge1-EZIPEK_clean_linker_0
_symmetry_space_group_name_H-M    P1
_symmetry_Int_Tables_number       1
_symmetry_cell_setting            triclinic
loop_
_symmetry_equiv_pos_as_xyz
'x, y, z'
_cell_length_a     27.328002
_cell_length_b     25.315017
_cell_length_c     23.874529
_cell_angle_alpha  78.429831
_cell_angle_beta   95.505913
_cell_angle_gamma 95.270226
loop_
_atom_site_label
_atom_site_type_symbol
_atom_site_fract_x
_atom_site_fract_y
_atom_site_fract_z
_atom_type_partial_charge
C0 C 0.24491 0.3228 0.22652 0.0
N1 N 0.28141 0.28869 0.23507 0.0
N2 N 0.2473 0.35715 0.17546 0.0
C3 C 0.20868 0.32517 0.26944 0.0
C4 C 0.28584 0.3419 0.15231 0.0
N5 N 0.30646 0.29985 0.18833 0.0
C6 C 0.30577 0.37066 0.09694 0.0
H7 H 0.17155 0.33205 0.24736 0.0
H8 H 0.22033 0.35984 0.29087 0.0
H9 H 0.2065 0.28748 0.30239 0.0
H10 H 0.2799 0.39961 0.07198 0.0
H11 H 0.31286 0.34089 0.07088 0.0
H12 H 0.3415 0.39291 0.10655 0.0
C13 C 0.2564 0.75611 0.71002 0.0
N14 N 0.29447 0.78064 0.73789 0.0
N15 N 0.24456 0.70613 0.73968 0.0
C16 C 0.23034 0.78118 0.65388 0.0
C17 C 0.27718 0.70076 0.78672 0.0
N18 N 0.3085 0.74593 0.78528 0.0
C19 C 0.27848 0.65131 0.83337 0.0
H20 H 0.19983 0.80361 0.66269 0.0
H21 H 0.2144 0.74969 0.62969 0.0
H22 H 0.25581 0.81009 0.62716 0.0
H23 H 0.29674 0.61978 0.81858 0.0
H24 H 0.24037 0.63495 0.84248 0.0
H25 H 0.29913 0.66036 0.8731 0.0
C26 C 0.87092 0.81215 0.27041 0.0
N27 N 0.85396 0.78065 0.23142 0.0
N28 N 0.83394 0.83644 0.28632 0.0
C29 C 0.92349 0.818 0.29494 0.0
C30 C 0.79381 0.82051 0.25506 0.0
N31 N 0.80545 0.78702 0.22148 0.0
C32 C 0.74264 0.83707 0.25787 0.0
H33 H 0.92771 0.79068 0.33741 0.0
H34 H 0.93303 0.85997 0.30162 0.0
H35 H 0.94935 0.80786 0.26625 0.0
H36 H 0.72884 0.85896 0.21509 0.0
H37 H 0.74162 0.8635 0.28951 0.0
H38 H 0.71735 0.80042 0.26953 0.0
C39 C 0.74569 0.18738 0.79116 0.0
N40 N 0.78158 0.2051 0.75503 0.0
N41 N 0.74227 0.22275 0.82567 0.0
C42 C 0.71442 0.13492 0.7938 0.0
C43 C 0.77642 0.26354 0.80859 0.0
N44 N 0.80006 0.25348 0.76474 0.0
C45 C 0.78626 0.31317 0.83467 0.0
H46 H 0.71316 0.12004 0.75299 0.0
H47 H 0.67633 0.13985 0.80324 0.0
H48 H 0.73017 0.10416 0.82911 0.0
H49 H 0.78015 0.30336 0.881 0.0
H50 H 0.76019 0.34348 0.81326 0.0
H51 H 0.82446 0.33117 0.82895 0.0
C52 C 0.80252 0.66054 0.85124 0.0
N53 N 0.83682 0.68184 0.81384 0.0
N54 N 0.76666 0.69445 0.84818 0.0
C55 C 0.80265 0.60529 0.88915 0.0
C56 C 0.7807 0.73811 0.80865 0.0
N57 N 0.82373 0.73106 0.78776 0.0
C58 C 0.75294 0.78816 0.79162 0.0
H59 H 0.77816 0.57644 0.86796 0.0
H60 H 0.78813 0.6057 0.93084 0.0
H61 H 0.84029 0.59087 0.897 0.0
H62 H 0.76657 0.81665 0.82039 0.0
H63 H 0.71293 0.77836 0.79609 0.0
H64 H 0.7589 0.80841 0.74681 0.0
C65 C 0.81849 0.26506 0.30654 0.0
N66 N 0.86662 0.27221 0.32581 0.0
N67 N 0.80619 0.30461 0.26023 0.0
C68 C 0.78721 0.21338 0.32627 0.0
C69 C 0.8513 0.3299 0.24767 0.0
N70 N 0.88664 0.31337 0.28941 0.0
C71 C 0.86542 0.35919 0.18927 0.0
H72 H 0.75736 0.20565 0.29349 0.0
H73 H 0.77181 0.21499 0.36716 0.0
H74 H 0.8096 0.17791 0.3354 0.0
H75 H 0.87074 0.40334 0.18807 0.0
H76 H 0.83839 0.34981 0.15434 0.0
H77 H 0.90152 0.34666 0.18108 0.0
C78 C 0.30489 0.31965 0.78521 0.0
N79 N 0.3458 0.29513 0.77956 0.0
N80 N 0.26561 0.30194 0.75351 0.0
C81 C 0.30269 0.35962 0.82366 0.0
C82 C 0.28399 0.26647 0.72694 0.0
N83 N 0.33292 0.26237 0.74223 0.0
C84 C 0.25435 0.23646 0.68533 0.0
H85 H 0.27673 0.39062 0.80382 0.0
H86 H 0.33969 0.3797 0.83234 0.0
H87 H 0.28884 0.33807 0.86496 0.0
H88 H 0.21481 0.23138 0.69383 0.0
H89 H 0.26856 0.19629 0.68788 0.0
H90 H 0.2577 0.25991 0.64115 0.0
C91 C 0.33928 0.79803 0.33853 0.0
N92 N 0.34064 0.76601 0.29994 0.0
N93 N 0.37464 0.84038 0.33119 0.0
C94 C 0.3122 0.7776 0.39189 0.0
C95 C 0.40289 0.82561 0.29305 0.0
N96 N 0.38101 0.78203 0.27238 0.0
C97 C 0.45582 0.846 0.28399 0.0
H98 H 0.2728 0.78608 0.38324 0.0
H99 H 0.32935 0.79447 0.42911 0.0
H100 H 0.3127 0.73295 0.40381 0.0
H101 H 0.47279 0.86636 0.31881 0.0
H102 H 0.45784 0.87336 0.24159 0.0
H103 H 0.47874 0.81246 0.28304 0.0
C104 C 0.03329 0.48749 0.28496 0.0
C105 C 0.16038 0.63577 0.26459 0.0
O106 O 0.06278 0.50273 0.32412 0.0
Zn107 Zn 0.09031 0.56586 0.27552 0.0
O108 O 0.03186 0.51514 0.2334 0.0
Zn109 Zn 0.07151 0.58814 0.18725 0.0
O110 O 0.09888 0.55627 0.13058 0.0
O111 O 0.12704 0.52675 0.22058 0.0
O112 O 0.13666 0.63344 0.21607 0.0
O113 O 0.14442 0.60688 0.30984 0.0
O114 O 0.02691 0.61385 0.25483 0.0
O115 O 0.02179 0.64116 0.16218 0.0
C116 C 0.12655 0.52613 0.16698 0.0
C117 C 1.005 0.64123 0.20988 0.0
C118 C 0.94924 0.41487 0.6896 0.0
C119 C 0.08742 0.55536 0.68808 0.0
O120 O 0.97153 0.41865 0.73838 0.0
Zn121 Zn 0.0301 0.46415 0.77533 0.0
O122 O 0.96284 0.44677 0.64439 0.0
Zn123 Zn 1.01718 0.48749 0.68203 0.0
O124 O 0.06693 0.42684 0.71118 0.0
O125 O 0.07647 0.40842 0.80495 0.0
O126 O 0.06154 0.54641 0.64307 0.0
O127 O 0.07825 0.52751 0.73714 0.0
O128 O 0.99623 0.50258 0.82198 0.0
O129 O 0.97852 0.53043 0.72893 0.0
C130 C 0.08631 0.39871 0.75698 0.0
C131 C 0.97376 0.53373 0.78082 0.0
C132 C 0.33831 0.99069 0.61158 0.0
C133 C 0.32083 0.13681 0.44462 0.0
O134 O 0.29814 1.00789 0.58587 0.0
Zn135 Zn 0.3262 0.06645 0.53043 0.0
O136 O 0.37932 0.01513 0.59648 0.0
Zn137 Zn 0.40585 0.07751 0.53067 0.0
O138 O 0.43932 0.12913 0.57714 0.0
O139 O 0.35858 0.12113 0.58185 0.0
O140 O 0.36585 0.12888 0.46235 0.0
O141 O 0.28585 0.11024 0.47201 0.0
O142 O 0.35708 0.02119 0.47995 0.0
O143 O 0.43784 0.03105 0.48769 0.0
C144 C 0.40107 0.1418 0.59669 0.0
C145 C 0.3982 1.00844 0.46741 0.0
C146 C 0.62611 0.76484 0.08333 0.0
C147 C 0.47893 0.76554 0.94434 0.0
O148 O 0.60295 0.71871 0.0827 0.0
Zn149 Zn 0.5385 0.68377 0.04224 0.0
O150 O 0.60753 0.80705 0.05355 0.0
Zn151 Zn 0.55059 0.77067 0.01587 0.0
O152 O 0.50342 0.74636 0.08317 0.0
O153 O 0.49591 0.65733 0.10604 0.0
O154 O 0.50604 0.80721 0.95331 0.0
O155 O 0.48807 0.71895 0.97402 0.0
O156 O 0.57262 0.63675 1.00503 0.0
O157 O 0.5902 0.72412 0.97319 0.0
C158 C 0.48537 0.70309 0.11407 0.0
C159 C 0.59667 0.67479 0.97296 0.0
C160 C 0.89131 0.91955 0.63171 0.0
C161 C 0.91609 0.09047 0.48966 0.0
O162 O 0.8515 0.93797 0.60545 0.0
Zn163 Zn 0.82943 1.00549 0.54173 0.0
O164 O 0.93249 0.94552 0.62042 0.0
Zn165 Zn 0.90775 1.00566 0.56106 0.0
O166 O 0.87046 0.0509 0.60859 0.0
O167 O 0.79081 0.04396 0.58102 0.0
O168 O 0.95081 0.06502 0.51977 0.0
O169 O 0.87133 0.0718 0.49459 0.0
O170 O 0.79784 0.97181 0.4812 0.0
O171 O 0.8787 0.96572 0.49242 0.0
C172 C 0.82636 0.06304 0.61119 0.0
C173 C 0.83662 0.9561 0.46631 0.0
C174 C 0.62675 0.30814 0.118 0.0
C175 C 0.4996 0.30218 0.95951 0.0
O176 O 0.60922 0.26004 0.11493 0.0
Zn177 Zn 0.55168 0.22207 0.06647 0.0
O178 O 0.60752 0.34802 0.08493 0.0
Zn179 Zn 0.55975 0.30856 0.0402 0.0
O180 O 0.50214 0.28052 0.09509 0.0
O181 O 0.50145 0.19182 0.12045 0.0
O182 O 0.52265 0.345 0.97181 0.0
O183 O 0.5068 0.2561 0.9916 0.0
O184 O 0.58927 0.17664 0.03223 0.0
O185 O 0.60403 0.26449 0.99985 0.0
C186 C 0.48294 0.23578 0.12208 0.0
C187 C 0.61179 0.21548 0.99962 0.0
C188 C 0.17095 0.39908 0.13417 0.0
C189 C 0.22036 0.40479 0.15702 0.0
C190 C 0.2105 0.4988 0.16183 0.0
C191 C 0.15904 0.48968 0.14964 0.0
N192 N 0.08913 0.43172 0.12368 0.0
N193 N 0.28788 0.45873 0.19452 0.0
C194 C 0.13895 0.44037 0.13425 0.0
C195 C 0.2407 0.45472 0.17027 0.0
N196 N 0.1548 0.3533 0.1139 0.0
N197 N 0.23009 0.54967 0.16586 0.0
H198 H 0.311 0.4272 0.20085 0.0
H199 H 0.3031 0.49189 0.21156 0.0
H200 H 0.20841 0.58257 0.15948 0.0
H201 H 0.26781 0.5602 0.1702 0.0
H202 H 0.12025 0.34773 0.09253 0.0
H203 H 0.17798 0.32256 0.11457 0.0
H204 H 0.07155 0.39441 0.11906 0.0
H205 H 0.06488 0.46153 0.12227 0.0
C206 C 0.15581 0.67849 0.72949 0.0
C207 C 0.20507 0.66865 0.72396 0.0
C208 C 0.1763 0.58862 0.68321 0.0
C209 C 0.12689 0.59946 0.68728 0.0
N210 N 0.06879 0.65962 0.7033 0.0
N211 N 0.26272 0.62164 0.68614 0.0
C212 C 0.11648 0.64627 0.70672 0.0
C213 C 0.21547 0.62581 0.69789 0.0
N214 N 0.14699 0.71753 0.75851 0.0
N215 N 0.18571 0.54171 0.66757 0.0
H216 H 0.29192 0.64825 0.69692 0.0
H217 H 0.27239 0.59456 0.66227 0.0
H218 H 0.15772 0.51496 0.65421 0.0
H219 H 0.22084 0.52811 0.67034 0.0
H220 H 0.11216 0.72369 0.76911 0.0
H221 H 0.17537 0.74111 0.77616 0.0
H222 H 0.05872 0.69553 0.71228 0.0
H223 H 0.03942 0.63661 0.68654 0.0
C224 C 0.90142 0.70104 0.27078 0.0
C225 C 0.88073 0.73601 0.22212 0.0
C226 C 0.92979 0.69411 0.16412 0.0
C227 C 0.96057 0.67212 0.21391 0.0
N228 N 0.97922 0.67277 0.31602 0.0
N229 N 0.88265 0.77017 0.12063 0.0
C230 C 0.94721 0.67986 0.26799 0.0
C231 C 0.89684 0.73374 0.16803 0.0
N232 N 0.87916 0.69116 0.32083 0.0
N233 N 0.92952 0.67604 0.11395 0.0
H234 H 0.86044 0.8006 0.12275 0.0
H235 H 0.89692 0.77279 0.08109 0.0
H236 H 0.94677 0.64198 0.11057 0.0
H237 H 0.90557 0.68965 0.0783 0.0
H238 H 0.8917 0.66361 0.35681 0.0
H239 H 0.84543 0.70614 0.32349 0.0
H240 H 0.97046 0.68091 0.35487 0.0
H241 H 1.01664 0.6686 0.31544 0.0
C242 C 0.82209 0.34147 0.70122 0.0
C243 C 0.83615 0.29048 0.73288 0.0
C244 C 0.92181 0.31741 0.71103 0.0
C245 C 0.9092 0.37099 0.68873 0.0
N246 N 0.84749 0.43521 0.66188 0.0
N247 N 0.90107 0.23433 0.77655 0.0
C248 C 0.85915 0.38314 0.68235 0.0
C249 C 0.88637 0.27909 0.73905 0.0
N250 N 0.77324 0.35038 0.69068 0.0
N251 N 0.9684 0.30387 0.70695 0.0
H252 H 0.87668 0.20901 0.80241 0.0
H253 H 0.93783 0.22609 0.787 0.0
H254 H 0.99492 0.33159 0.68662 0.0
H255 H 0.9789 0.26435 0.71828 0.0
H256 H 0.76004 0.38427 0.66319 0.0
H257 H 0.74544 0.32196 0.70676 0.0
H258 H 0.81276 0.44859 0.66288 0.0
H259 H 0.87357 0.46594 0.64607 0.0
C260 C 0.28087 0.19469 0.28926 0.0
C261 C 0.29311 0.25048 0.28731 0.0
C262 C 0.31811 0.23208 0.39064 0.0
C263 C 0.31024 0.17593 0.39091 0.0
N264 N 0.2916 0.10281 0.33932 0.0
N265 N 0.32425 0.32345 0.33505 0.0
C266 C 0.29384 0.15689 0.33983 0.0
C267 C 0.31219 0.26949 0.33777 0.0
N268 N 0.2538 0.17828 0.24395 0.0
N269 N 0.32924 0.24953 0.44136 0.0
H270 H 0.31638 0.35244 0.29849 0.0
H271 H 0.34397 0.33954 0.368 0.0
H272 H 0.3336 0.2231 0.4808 0.0
H273 H 0.33066 0.28982 0.44537 0.0
H274 H 0.23968 0.13857 0.24443 0.0
H275 H 0.24078 0.20571 0.20826 0.0
H276 H 0.28513 0.08721 0.30188 0.0
H277 H 0.30011 0.07374 0.37577 0.0
C278 C 0.35054 0.78496 0.86678 0.0
C279 C 0.35188 0.75337 0.82416 0.0
C280 C 0.43925 0.7402 0.85382 0.0
C281 C 0.43726 0.76868 0.89885 0.0
N282 N 0.39078 0.81594 0.95126 0.0
N283 N 0.39426 0.69048 0.78629 0.0
C284 C 0.39297 0.79124 0.9057 0.0
C285 C 0.39536 0.72809 0.82025 0.0
N286 N 0.3077 0.80687 0.87135 0.0
N287 N 0.48371 0.72604 0.84206 0.0
H288 H 0.42293 0.6659 0.78697 0.0
H289 H 0.36315 0.68076 0.76051 0.0
H290 H 0.51673 0.73548 0.865 0.0
H291 H 0.48856 0.71009 0.80618 0.0
H292 H 0.30461 0.83565 0.89612 0.0
H293 H 0.27475 0.79586 0.8495 0.0
H294 H 0.35871 0.82884 0.96256 0.0
H295 H 0.42119 0.82173 0.97985 0.0
C296 C 0.84758 0.92287 0.31988 0.0
C297 C 0.83528 0.86652 0.33173 0.0
C298 C 0.81871 0.87 0.43006 0.0
C299 C 0.83379 0.92595 0.41917 0.0
N300 N 0.86426 1.00641 0.35603 0.0
N301 N 0.81091 0.78498 0.39651 0.0
C302 C 0.84877 0.95267 0.36464 0.0
C303 C 0.82124 0.8397 0.38648 0.0
N304 N 0.85657 0.94766 0.26512 0.0
N305 N 0.80137 0.84626 0.48181 0.0
H306 H 0.80966 0.76255 0.36432 0.0
H307 H 0.80549 0.76124 0.43664 0.0
H308 H 0.8003 0.86698 0.51524 0.0
H309 H 0.78564 0.80685 0.4913 0.0
H310 H 0.8615 0.98931 0.25134 0.0
H311 H 0.8565 0.92618 0.23208 0.0
H312 H 0.8802 0.02747 0.31943 0.0
H313 H 0.86278 0.03004 0.38686 0.0
C314 C 0.65971 0.23028 0.85483 0.0
C315 C 0.70907 0.21757 0.87006 0.0
C316 C 0.69315 0.19479 0.97173 0.0
C317 C 0.6433 0.2062 0.95618 0.0
N318 N 0.57617 0.22242 0.8833 0.0
N319 N 0.77159 0.17918 0.93998 0.0
C320 C 0.62567 0.22005 0.89766 0.0
C321 C 0.72539 0.197 0.92775 0.0
N322 N 0.64601 0.25354 0.7995 0.0
N323 N 0.70998 0.18419 0.02832 0.0
H324 H 0.79607 0.18162 0.90843 0.0
H325 H 0.78445 0.15889 0.98029 0.0
H326 H 0.68679 0.18062 0.06137 0.0
H327 H 0.74705 0.18155 0.04252 0.0
H328 H 0.61188 0.26906 0.78643 0.0
H329 H 0.67041 0.26102 0.76728 0.0
H330 H 0.56041 0.22779 0.84128 0.0
H331 H 0.5503 0.21374 0.91391 0.0
C332 C 0.28762 0.87896 0.7242 0.0
C333 C 0.31452 0.83526 0.71871 0.0
C334 C 0.36584 0.89623 0.65084 0.0
C335 C 0.33771 0.93988 0.65555 0.0
N336 N 0.28485 0.97603 0.71118 0.0
N337 N 0.38168 0.80175 0.68239 0.0
C338 C 0.30294 0.93221 0.69722 0.0
C339 C 0.35519 0.84422 0.68481 0.0
N340 N 0.24504 0.86905 0.75136 0.0
N341 N 0.39964 0.90266 0.61076 0.0
H342 H 0.36954 0.76206 0.69868 0.0
H343 H 0.4162 0.80575 0.66635 0.0
H344 H 0.4109 0.93926 0.58558 0.0
H345 H 0.4154 0.87079 0.59951 0.0
H346 H 0.22092 0.89864 0.75124 0.0
H347 H 0.23146 0.83022 0.76949 0.0
H348 H 0.26257 0.97315 0.74488 0.0
H349 H 0.29667 0.01565 0.6931 0.0
C350 C 0.75917 0.81048 0.1271 0.0
C351 C 0.77056 0.77125 0.17718 0.0
C352 C 0.68609 0.73034 0.16825 0.0
C353 C 0.6761 0.76689 0.11534 0.0
N354 N 0.71199 0.82794 0.03556 0.0
N355 N 0.74847 0.68631 0.23667 0.0
C356 C 0.71539 0.80257 0.09175 0.0
C357 C 0.73538 0.7279 0.19372 0.0
N358 N 0.78777 0.85789 0.11589 0.0
N359 N 0.64835 0.70131 0.19695 0.0
H360 H 0.78432 0.68493 0.2559 0.0
H361 H 0.72556 0.65135 0.24842 0.0
H362 H 0.61135 0.70621 0.1836 0.0
H363 H 0.65357 0.67757 0.23777 0.0
H364 H 0.77787 0.89003 0.08324 0.0
H365 H 0.81905 0.86652 0.14213 0.0
H366 H 0.74159 0.85127 0.01634 0.0
H367 H 0.68235 0.82028 1.0067 0.0
C368 C 0.81962 0.12353 0.74318 0.0
C369 C 0.79918 0.17338 0.71809 0.0
C370 C 0.80258 0.15327 0.62245 0.0
C371 C 0.81768 0.10114 0.64792 0.0
N372 N 0.83526 0.03348 0.73225 0.0
N373 N 0.76154 0.2301 0.63532 0.0
C374 C 0.82531 0.08555 0.70826 0.0
C375 C 0.78853 0.18708 0.658 0.0
N376 N 0.83265 0.11214 0.80078 0.0
N377 N 0.80228 0.1708 0.56441 0.0
H378 H 0.74794 0.25321 0.66092 0.0
H379 H 0.74834 0.2392 0.59237 0.0
H380 H 0.81196 0.14699 0.53684 0.0
H381 H 0.79675 0.21053 0.54429 0.0
H382 H 0.85298 0.07979 0.82072 0.0
H383 H 0.826 0.1372 0.8285 0.0
H384 H 0.8359 0.01766 0.77603 0.0
H385 H 0.83891 1.00432 0.70795 0.0
C386 C 0.347 0.23781 0.14199 0.0
C387 C 0.35025 0.27525 0.17952 0.0
C388 C 0.43991 0.2707 0.19298 0.0
C389 C 0.43751 0.23753 0.15146 0.0
N390 N 0.38907 0.18109 0.09352 0.0
N391 N 0.40006 0.33583 0.23082 0.0
C392 C 0.39097 0.21789 0.12864 0.0
C393 C 0.39674 0.29324 0.20323 0.0
N394 N 0.30204 0.22494 0.11579 0.0
N395 N 0.48387 0.28029 0.22283 0.0
H396 H 0.36957 0.35643 0.23397 0.0
H397 H 0.43329 0.35465 0.24449 0.0
H398 H 0.51555 0.26293 0.2167 0.0
H399 H 0.48769 0.30007 0.25744 0.0
H400 H 0.29621 0.201 0.08481 0.0
H401 H 0.26998 0.24119 0.12273 0.0
H402 H 0.35676 0.16222 0.07781 0.0
H403 H 0.42045 0.16673 0.0821 0.0
C404 C 0.85624 0.60434 0.77367 0.0
C405 C 0.87317 0.65027 0.79808 0.0
C406 C 0.95735 0.62027 0.81041 0.0
C407 C 0.93933 0.57222 0.79091 0.0
N408 N 0.87071 0.51407 0.76238 0.0
N409 N 0.93771 0.69599 0.84997 0.0
C410 C 0.88853 0.56324 0.77442 0.0
C411 C 0.92332 0.65689 0.8188 0.0
N412 N 0.80856 0.59941 0.75108 0.0
N413 N 1.00697 0.63143 0.81997 0.0
H414 H 0.91316 0.72186 0.85836 0.0
H415 H 0.97246 0.69956 0.87156 0.0
H416 H 0.03283 0.6049 0.81574 0.0
H417 H 0.02259 0.66859 0.8279 0.0
H418 H 0.79536 0.57078 0.72644 0.0
H419 H 0.78264 0.62636 0.75362 0.0
H420 H 0.83336 0.50249 0.75618 0.0
H421 H 0.89308 0.48252 0.76375 0.0
C422 C 0.91899 0.39663 0.32359 0.0
C423 C 0.92824 0.34976 0.30281 0.0
C424 C 1.01125 0.39006 0.28058 0.0
C425 C 1.00033 0.43768 0.29814 0.0
N426 N 0.95039 0.482 0.3496 0.0
N427 N 0.98143 0.30221 0.25942 0.0
C428 C 0.95642 0.43933 0.32432 0.0
C429 C 0.9745 0.34609 0.28201 0.0
N430 N 0.87262 0.40266 0.33727 0.0
N431 N 0.05702 0.38709 0.26317 0.0
H432 H 0.95469 0.27034 0.25942 0.0
H433 H 1.01203 0.29808 0.23838 0.0
H434 H 0.08448 0.4187 0.26203 0.0
H435 H 0.06935 0.35263 0.25334 0.0
H436 H 0.8614 0.43865 0.34475 0.0
H437 H 0.84377 0.37282 0.33727 0.0
H438 H 0.92188 0.48274 0.37533 0.0
H439 H 0.97622 0.51506 0.34894 0.0
C440 C 0.18708 0.29868 0.79864 0.0
C441 C 0.21558 0.31698 0.75096 0.0
C442 C 0.14644 0.365 0.69993 0.0
C443 C 0.12398 0.36008 0.75244 0.0
N444 N 0.1164 0.30923 0.84865 0.0
N445 N 0.22372 0.37114 0.65694 0.0
C446 C 0.1424 0.32294 0.80115 0.0
C447 C 0.19558 0.35105 0.70169 0.0
N448 N 0.20197 0.25653 0.83996 0.0
N449 N 0.1201 0.3786 0.64825 0.0
H450 H 0.26011 0.3618 0.65708 0.0
H451 H 0.21206 0.40055 0.62223 0.0
H452 H 0.08181 0.37871 0.64441 0.0
H453 H 0.1349 0.37995 0.60928 0.0
H454 H 0.18188 0.2383 0.87451 0.0
H455 H 0.23248 0.23619 0.83604 0.0
H456 H 0.13089 0.28904 0.88825 0.0
H457 H 0.07955 0.31713 0.84788 0.0
C458 C 0.296 0.67557 0.30043 0.0
C459 C 0.29802 0.73249 0.28258 0.0
C460 C 0.20898 0.72641 0.25251 0.0
C461 C 0.208 0.66926 0.26754 0.0
N462 N 0.25273 0.58891 0.2933 0.0
N463 N 0.2576 0.81239 0.23635 0.0
C464 C 0.25227 0.6437 0.28745 0.0
C465 C 0.25483 0.75782 0.25642 0.0
N466 N 0.33451 0.65226 0.33382 0.0
N467 N 0.16568 0.7508 0.23777 0.0
H468 H 0.28947 0.8373 0.24188 0.0
H469 H 0.22945 0.83271 0.21091 0.0
H470 H 0.13148 0.72921 0.23448 0.0
H471 H 0.1629 0.79222 0.23286 0.0
H472 H 0.33359 0.6115 0.35313 0.0
H473 H 0.36527 0.67513 0.34728 0.0
H474 H 0.28499 0.56876 0.30181 0.0
H475 H 0.22148 0.56419 0.28423 0.0
C476 C 0.87297 0.81968 0.77242 0.0
C477 C 0.85227 0.77327 0.75078 0.0
C478 C 0.87333 0.81895 0.65392 0.0
C479 C 0.88766 0.86743 0.67423 0.0
N480 N 0.90245 0.91493 0.75251 0.0
N481 N 0.8263 0.73223 0.66945 0.0
C482 C 0.88881 0.86774 0.73369 0.0
C483 C 0.85163 0.77347 0.69122 0.0
N484 N 0.87582 0.81809 0.83017 0.0
N485 N 0.88023 0.81671 0.59854 0.0
H486 H 0.80786 0.70022 0.69527 0.0
H487 H 0.8196 0.73228 0.62577 0.0
H488 H 0.89591 0.84952 0.57042 0.0
H489 H 0.87482 0.78126 0.5822 0.0
H490 H 0.89454 0.84779 0.85015 0.0
H491 H 0.86138 0.78514 0.85901 0.0
H492 H 0.89874 0.92058 0.7938 0.0
H493 H 0.91612 0.9498 0.72565 0.0
C494 C 0.7129 0.29422 0.25571 0.0
C495 C 0.75711 0.31792 0.23239 0.0
C496 C 0.71063 0.35322 0.14278 0.0
C497 C 0.66971 0.31634 0.15968 0.0
N498 N 0.62988 0.25663 0.23784 0.0
N499 N 0.77477 0.40901 0.18299 0.0
C500 C 0.67003 0.28835 0.21799 0.0
C501 C 0.75041 0.35956 0.18389 0.0
N502 N 0.70961 0.2869 0.31337 0.0
N503 N 0.71336 0.38069 0.0877 0.0
H504 H 0.79667 0.41755 0.21889 0.0
H505 H 0.76764 0.44225 0.15042 0.0
H506 H 0.68713 0.37525 0.05434 0.0
H507 H 0.74472 0.40517 0.07475 0.0
H508 H 0.67682 0.2747 0.33284 0.0
H509 H 0.7386 0.30022 0.34017 0.0
H510 H 0.63088 0.23099 0.27794 0.0
H511 H 0.59635 0.25444 0.21357 0.0
C512 C 0.37903 0.18419 0.73385 0.0
C513 C 0.3657 0.23779 0.71187 0.0
C514 C 0.39577 0.23347 0.61868 0.0
C515 C 0.4033 0.1782 0.63888 0.0
N516 N 0.41423 0.10387 0.71755 0.0
N517 N 0.36018 0.31367 0.63324 0.0
C518 C 0.39923 0.15475 0.69744 0.0
C519 C 0.37504 0.26295 0.65455 0.0
N520 N 0.36848 0.16017 0.78815 0.0
N521 N 0.4082 0.25726 0.56483 0.0
H522 H 0.34543 0.33641 0.65852 0.0
H523 H 0.3602 0.33253 0.59033 0.0
H524 H 0.42348 0.23595 0.53845 0.0
H525 H 0.40729 0.29839 0.54796 0.0
H526 H 0.37241 0.1197 0.80611 0.0
H527 H 0.35358 0.18094 0.81491 0.0
H528 H 0.41546 0.08457 0.76036 0.0
H529 H 0.4292 0.0822 0.69128 0.0
C530 C 0.44025 0.7185 0.2558 0.0
C531 C 0.40177 0.75323 0.23435 0.0
C532 C 0.40837 0.73659 0.13762 0.0
C533 C 0.45134 0.70881 0.15739 0.0
N534 N 0.509 0.67268 0.23511 0.0
N535 N 0.35413 0.80148 0.15377 0.0
C536 C 0.46691 0.69847 0.21674 0.0
C537 C 0.38661 0.76323 0.17504 0.0
N538 N 0.45257 0.70674 0.31349 0.0
N539 N 0.38858 0.73758 0.08268 0.0
H540 H 0.34023 0.82397 0.17976 0.0
H541 H 0.34504 0.81475 0.11016 0.0
H542 H 0.40373 0.71798 0.05463 0.0
H543 H 0.35481 0.75294 0.06697 0.0
H544 H 0.47622 0.67733 0.33315 0.0
H545 H 0.43714 0.72509 0.34233 0.0
H546 H 0.52616 0.6695 0.27635 0.0
H547 H 0.52821 0.656 0.20805 0.0
C548 C 0.90978 0.18732 0.34994 0.0
C549 C 0.89365 0.233 0.36742 0.0
C550 C 0.91267 0.19041 0.46845 0.0
C551 C 0.92451 0.14345 0.45054 0.0
N552 N 0.94938 0.1026 0.37681 0.0
N553 N 0.87876 0.27832 0.4426 0.0
C554 C 0.92844 0.14407 0.39195 0.0
C555 C 0.89608 0.23517 0.42663 0.0
N556 N 0.90194 0.1826 0.29371 0.0
N557 N 0.91684 0.19125 0.52579 0.0
H558 H 0.86569 0.31064 0.4127 0.0
H559 H 0.87528 0.28158 0.48472 0.0
H560 H 0.9294 0.15876 0.55639 0.0
H561 H 0.91122 0.22454 0.54312 0.0
H562 H 0.90731 0.14775 0.27893 0.0
H563 H 0.88624 0.21231 0.26216 0.0
H564 H 0.95751 0.10237 0.33514 0.0
H565 H 0.96275 0.07056 0.40741 0.0
C566 C 0.37883 0.26926 0.88001 0.0
C567 C 0.38763 0.29133 0.822 0.0
C568 C 0.47227 0.3206 0.85352 0.0
C569 C 0.4609 0.30397 0.91152 0.0
N570 N 0.39928 0.27523 0.97926 0.0
N571 N 0.44 0.34657 0.75451 0.0
C572 C 0.413 0.28182 0.92454 0.0
C573 C 0.43378 0.3192 0.80889 0.0
N574 N 0.33724 0.23657 0.89257 0.0
N575 N 0.51975 0.33642 0.84099 0.0
H576 H 0.41203 0.34703 0.72174 0.0
H577 H 0.47108 0.37214 0.74329 0.0
H578 H 0.54861 0.33852 0.87259 0.0
H579 H 0.53101 0.3434 0.7995 0.0
H580 H 0.33109 0.21515 0.93365 0.0
H581 H 0.31134 0.22653 0.86087 0.0
H582 H 0.36315 0.26458 0.99005 0.0
H583 H 0.42272 0.28647 0.01269 0.0
C584 C 0.41318 0.93437 0.34372 0.0
C585 C 0.37829 0.88932 0.35704 0.0
C586 C 0.35513 0.92606 0.43602 0.0
C587 C 0.39608 0.96559 0.43132 0.0
N588 N 0.46396 1.00815 0.37557 0.0
N589 N 0.29328 0.88894 0.37442 0.0
C590 C 0.42556 0.96979 0.38397 0.0
C591 C 0.34184 0.8979 0.39124 0.0
N592 N 0.42433 0.95118 0.28827 0.0
N593 N 0.32837 0.9144 0.48293 0.0
H594 H 0.28211 0.87782 0.33506 0.0
H595 H 0.26525 0.89917 0.39618 0.0
H596 H 0.33814 0.93009 0.51981 0.0
H597 H 0.29954 0.88412 0.48682 0.0
H598 H 0.44557 0.98679 0.27385 0.0
H599 H 0.40538 0.93378 0.25559 0.0
H600 H 0.48915 1.00853 0.34531 0.0
H601 H 0.47243 0.03751 0.40053 0.0
C602 C 0.67749 0.66764 0.85447 0.0
C603 C 0.72346 0.68514 0.88022 0.0
C604 C 0.68715 0.67518 0.97179 0.0
C605 C 0.63982 0.66515 0.94426 0.0
N606 N 0.58866 0.65234 0.85977 0.0
N607 N 0.77184 0.7112 0.96092 0.0
C608 C 0.63464 0.66099 0.88568 0.0
C609 C 0.72824 0.69026 0.93837 0.0
N610 N 0.67526 0.65692 0.80045 0.0
N611 N 0.69262 0.66965 0.03011 0.0
H612 H 0.80249 0.72247 0.9371 0.0
H613 H 0.77647 0.72137 1.00135 0.0
H614 H 0.66334 0.65615 0.05563 0.0
H615 H 0.72658 0.67276 0.0535 0.0
H616 H 0.64405 0.63937 0.78075 0.0
H617 H 0.70601 0.6626 0.7766 0.0
H618 H 0.58136 0.65501 0.81573 0.0
H619 H 0.55732 0.64421 0.88276 0.0
loop_
_geom_bond_atom_site_label_1
_geom_bond_atom_site_label_2
_geom_bond_distance
_geom_bond_site_symmetry_2
_ccdc_geom_bond_type
C0 N1 1.317 . S
C0 N2 1.348 . S
C0 C3 1.485 . S
N1 C0 1.317 . S
N1 N5 1.370 . S
N2 C0 1.348 . S
N2 C4 1.346 . S
C3 C0 1.485 . S
C3 H7 0.960 . S
C3 H8 0.961 . S
C3 H9 0.960 . S
C4 N2 1.346 . S
C4 N5 1.307 . S
C4 C6 1.486 . S
N5 N1 1.370 . S
N5 C4 1.307 . S
C6 C4 1.486 . S
C6 H10 0.960 . S
C6 H11 0.960 . S
C6 H12 0.959 . S
H7 C3 0.960 . S
H8 C3 0.961 . S
H9 C3 0.960 . S
H10 C6 0.960 . S
H11 C6 0.960 . S
H12 C6 0.959 . S
C13 N14 1.317 . S
C13 N15 1.348 . S
C13 C16 1.485 . S
N14 C13 1.317 . S
N14 N18 1.370 . S
N15 C13 1.348 . S
N15 C17 1.346 . S
C16 C13 1.485 . S
C16 H20 0.960 . S
C16 H21 0.961 . S
C16 H22 0.960 . S
C17 N15 1.346 . S
C17 N18 1.307 . S
C17 C19 1.486 . S
N18 N14 1.370 . S
N18 C17 1.307 . S
C19 C17 1.486 . S
C19 H23 0.960 . S
C19 H24 0.960 . S
C19 H25 0.959 . S
H20 C16 0.960 . S
H21 C16 0.961 . S
H22 C16 0.960 . S
H23 C19 0.960 . S
H24 C19 0.960 . S
H25 C19 0.959 . S
C26 N27 1.317 . S
C26 N28 1.348 . S
C26 C29 1.485 . S
N27 C26 1.317 . S
N27 N31 1.370 . S
N28 C26 1.348 . S
N28 C30 1.346 . S
C29 C26 1.485 . S
C29 H33 0.960 . S
C29 H34 0.961 . S
C29 H35 0.960 . S
C30 N28 1.346 . S
C30 N31 1.307 . S
C30 C32 1.486 . S
N31 N27 1.370 . S
N31 C30 1.307 . S
C32 C30 1.486 . S
C32 H36 0.960 . S
C32 H37 0.960 . S
C32 H38 0.959 . S
H33 C29 0.960 . S
H34 C29 0.961 . S
H35 C29 0.960 . S
H36 C32 0.960 . S
H37 C32 0.960 . S
H38 C32 0.959 . S
C39 N40 1.317 . S
C39 N41 1.348 . S
C39 C42 1.485 . S
N40 C39 1.317 . S
N40 N44 1.370 . S
N41 C39 1.348 . S
N41 C43 1.346 . S
C42 C39 1.485 . S
C42 H46 0.960 . S
C42 H47 0.961 . S
C42 H48 0.960 . S
C43 N41 1.346 . S
C43 N44 1.307 . S
C43 C45 1.486 . S
N44 N40 1.370 . S
N44 C43 1.307 . S
C45 C43 1.486 . S
C45 H49 0.960 . S
C45 H50 0.960 . S
C45 H51 0.959 . S
H46 C42 0.960 . S
H47 C42 0.961 . S
H48 C42 0.960 . S
H49 C45 0.960 . S
H50 C45 0.960 . S
H51 C45 0.959 . S
C52 N53 1.317 . S
C52 N54 1.348 . S
C52 C55 1.485 . S
N53 C52 1.317 . S
N53 N57 1.370 . S
N54 C52 1.348 . S
N54 C56 1.346 . S
C55 C52 1.485 . S
C55 H59 0.960 . S
C55 H60 0.961 . S
C55 H61 0.960 . S
C56 N54 1.346 . S
C56 N57 1.307 . S
C56 C58 1.486 . S
N57 N53 1.370 . S
N57 C56 1.307 . S
C58 C56 1.486 . S
C58 H62 0.960 . S
C58 H63 0.960 . S
C58 H64 0.959 . S
H59 C55 0.960 . S
H60 C55 0.961 . S
H61 C55 0.960 . S
H62 C58 0.960 . S
H63 C58 0.960 . S
H64 C58 0.959 . S
C65 N66 1.317 . S
C65 N67 1.348 . S
C65 C68 1.485 . S
N66 C65 1.317 . S
N66 N70 1.370 . S
N67 C65 1.348 . S
N67 C69 1.346 . S
C68 C65 1.485 . S
C68 H72 0.960 . S
C68 H73 0.961 . S
C68 H74 0.960 . S
C69 N67 1.346 . S
C69 N70 1.307 . S
C69 C71 1.486 . S
N70 N66 1.370 . S
N70 C69 1.307 . S
C71 C69 1.486 . S
C71 H75 0.960 . S
C71 H76 0.960 . S
C71 H77 0.959 . S
H72 C68 0.960 . S
H73 C68 0.961 . S
H74 C68 0.960 . S
H75 C71 0.960 . S
H76 C71 0.960 . S
H77 C71 0.959 . S
C78 N79 1.317 . S
C78 N80 1.348 . S
C78 C81 1.485 . S
N79 C78 1.317 . S
N79 N83 1.370 . S
N80 C78 1.348 . S
N80 C82 1.346 . S
C81 C78 1.485 . S
C81 H85 0.960 . S
C81 H86 0.961 . S
C81 H87 0.960 . S
C82 N80 1.346 . S
C82 N83 1.307 . S
C82 C84 1.486 . S
N83 N79 1.370 . S
N83 C82 1.307 . S
C84 C82 1.486 . S
C84 H88 0.960 . S
C84 H89 0.960 . S
C84 H90 0.959 . S
H85 C81 0.960 . S
H86 C81 0.961 . S
H87 C81 0.960 . S
H88 C84 0.960 . S
H89 C84 0.960 . S
H90 C84 0.959 . S
C91 N92 1.317 . S
C91 N93 1.348 . S
C91 C94 1.485 . S
N92 C91 1.317 . S
N92 N96 1.370 . S
N93 C91 1.348 . S
N93 C95 1.346 . S
C94 C91 1.485 . S
C94 H98 0.960 . S
C94 H99 0.961 . S
C94 H100 0.960 . S
C95 N93 1.346 . S
C95 N96 1.307 . S
C95 C97 1.486 . S
N96 N92 1.370 . S
N96 C95 1.307 . S
C97 C95 1.486 . S
C97 H101 0.960 . S
C97 H102 0.960 . S
C97 H103 0.959 . S
H98 C94 0.960 . S
H99 C94 0.961 . S
H100 C94 0.960 . S
H101 C97 0.960 . S
H102 C97 0.960 . S
H103 C97 0.959 . S
C104 O106 1.247 . S
C104 O108 1.258 . S
C105 O112 1.247 . S
C105 O113 1.258 . S
O106 C104 1.247 . S
O106 Zn107 2.028 1_655 S
Zn107 O106 2.028 1_455 S
Zn107 O111 2.035 . S
Zn107 O113 2.035 . S
Zn107 O114 2.028 . S
O108 C104 1.258 . S
O108 Zn109 2.035 1_655 S
Zn109 O108 2.035 1_455 S
Zn109 O110 2.028 . S
Zn109 O112 2.028 . S
Zn109 O115 2.035 . S
O110 Zn109 2.028 . S
O110 C116 1.247 . S
O111 Zn107 2.035 . S
O111 C116 1.258 . S
O112 C105 1.247 . S
O112 Zn109 2.028 . S
O113 C105 1.258 . S
O113 Zn107 2.035 . S
O114 Zn107 2.028 . S
O114 C117 1.247 1_455 S
O115 Zn109 2.035 . S
O115 C117 1.258 1_455 S
C116 O110 1.247 . S
C116 O111 1.258 . S
C117 O114 1.247 1_655 S
C117 O115 1.258 1_655 S
C118 O120 1.247 . S
C118 O122 1.258 . S
C119 O126 1.247 . S
C119 O127 1.258 . S
O120 C118 1.247 . S
O120 Zn121 2.028 1_655 S
Zn121 O120 2.028 1_455 S
Zn121 O125 2.035 . S
Zn121 O127 2.035 . S
Zn121 O128 2.028 1_455 S
O122 C118 1.258 . S
O122 Zn123 2.035 . S
Zn123 O122 2.035 . S
Zn123 O124 2.028 1_655 S
Zn123 O126 2.028 1_655 S
Zn123 O129 2.035 . S
O124 Zn123 2.028 1_455 S
O124 C130 1.247 . S
O125 Zn121 2.035 . S
O125 C130 1.258 . S
O126 C119 1.247 . S
O126 Zn123 2.028 1_455 S
O127 C119 1.258 . S
O127 Zn121 2.035 . S
O128 Zn121 2.028 1_655 S
O128 C131 1.247 . S
O129 Zn123 2.035 . S
O129 C131 1.258 . S
C130 O124 1.247 . S
C130 O125 1.258 . S
C131 O128 1.247 . S
C131 O129 1.258 . S
C132 O134 1.247 . S
C132 O136 1.258 . S
C133 O140 1.247 . S
C133 O141 1.258 . S
O134 C132 1.247 . S
O134 Zn135 2.028 1_565 S
Zn135 O134 2.028 1_545 S
Zn135 O139 2.035 . S
Zn135 O141 2.035 . S
Zn135 O142 2.028 1_545 S
O136 C132 1.258 . S
O136 Zn137 2.035 1_565 S
Zn137 O136 2.035 1_545 S
Zn137 O138 2.028 . S
Zn137 O140 2.028 . S
Zn137 O143 2.035 1_545 S
O138 Zn137 2.028 . S
O138 C144 1.247 . S
O139 Zn135 2.035 . S
O139 C144 1.258 . S
O140 C133 1.247 . S
O140 Zn137 2.028 . S
O141 C133 1.258 . S
O141 Zn135 2.035 . S
O142 Zn135 2.028 1_565 S
O142 C145 1.247 . S
O143 Zn137 2.035 1_565 S
O143 C145 1.258 . S
C144 O138 1.247 . S
C144 O139 1.258 . S
C145 O142 1.247 . S
C145 O143 1.258 . S
C146 O148 1.247 . S
C146 O150 1.258 . S
C147 O154 1.247 . S
C147 O155 1.258 1_556 S
O148 C146 1.247 . S
O148 Zn149 2.028 . S
Zn149 O148 2.028 . S
Zn149 O153 2.035 . S
Zn149 O155 2.035 . S
Zn149 O156 2.028 . S
O150 C146 1.258 . S
O150 Zn151 2.035 . S
Zn151 O150 2.035 . S
Zn151 O152 2.028 . S
Zn151 O154 2.028 1_554 S
Zn151 O157 2.035 1_554 S
O152 Zn151 2.028 . S
O152 C158 1.247 . S
O153 Zn149 2.035 . S
O153 C158 1.258 . S
O154 C147 1.247 . S
O154 Zn151 2.028 1_556 S
O155 C147 1.258 1_554 S
O155 Zn149 2.035 . S
O156 Zn149 2.028 . S
O156 C159 1.247 1_554 S
O157 Zn151 2.035 1_556 S
O157 C159 1.258 . S
C158 O152 1.247 . S
C158 O153 1.258 . S
C159 O156 1.247 1_556 S
C159 O157 1.258 . S
C160 O162 1.247 . S
C160 O164 1.258 . S
C161 O168 1.247 . S
C161 O169 1.258 . S
O162 C160 1.247 . S
O162 Zn163 2.028 1_565 S
Zn163 O162 2.028 1_545 S
Zn163 O167 2.035 . S
Zn163 O169 2.035 . S
Zn163 O170 2.028 1_545 S
O164 C160 1.258 . S
O164 Zn165 2.035 1_565 S
Zn165 O164 2.035 1_545 S
Zn165 O166 2.028 . S
Zn165 O168 2.028 . S
Zn165 O171 2.035 1_545 S
O166 Zn165 2.028 . S
O166 C172 1.247 . S
O167 Zn163 2.035 . S
O167 C172 1.258 . S
O168 C161 1.247 . S
O168 Zn165 2.028 . S
O169 C161 1.258 . S
O169 Zn163 2.035 . S
O170 Zn163 2.028 1_565 S
O170 C173 1.247 . S
O171 Zn165 2.035 1_565 S
O171 C173 1.258 . S
C172 O166 1.247 . S
C172 O167 1.258 . S
C173 O170 1.247 . S
C173 O171 1.258 . S
C174 O176 1.247 . S
C174 O178 1.258 . S
C175 O182 1.247 . S
C175 O183 1.258 . S
O176 C174 1.247 . S
O176 Zn177 2.028 . S
Zn177 O176 2.028 . S
Zn177 O181 2.035 . S
Zn177 O183 2.035 1_554 S
Zn177 O184 2.028 1_554 S
O178 C174 1.258 . S
O178 Zn179 2.035 1_554 S
Zn179 O178 2.035 1_556 S
Zn179 O180 2.028 1_556 S
Zn179 O182 2.028 . S
Zn179 O185 2.035 . S
O180 Zn179 2.028 1_554 S
O180 C186 1.247 . S
O181 Zn177 2.035 . S
O181 C186 1.258 . S
O182 C175 1.247 . S
O182 Zn179 2.028 . S
O183 C175 1.258 . S
O183 Zn177 2.035 1_556 S
O184 Zn177 2.028 1_556 S
O184 C187 1.247 . S
O185 Zn179 2.035 . S
O185 C187 1.258 . S
C186 O180 1.247 . S
C186 O181 1.258 . S
C187 O184 1.247 . S
C187 O185 1.258 . S
C188 C189 1.363 . S
C188 C194 1.379 . S
C188 N196 1.356 . S
C189 C188 1.363 . S
C189 C195 1.363 . S
C190 C191 1.363 . S
C190 C195 1.379 . S
C190 N197 1.356 . S
C191 C190 1.363 . S
C191 C194 1.363 . S
N192 C194 1.356 . S
N192 H204 0.984 . S
N192 H205 0.985 . S
N193 C195 1.356 . S
N193 H198 0.984 . S
N193 H199 0.985 . S
C194 C188 1.379 . S
C194 C191 1.363 . S
C194 N192 1.356 . S
C195 C189 1.363 . S
C195 C190 1.379 . S
C195 N193 1.356 . S
N196 C188 1.356 . S
N196 H202 0.984 . S
N196 H203 0.984 . S
N197 C190 1.356 . S
N197 H200 0.984 . S
N197 H201 0.985 . S
H198 N193 0.984 . S
H199 N193 0.985 . S
H200 N197 0.984 . S
H201 N197 0.985 . S
H202 N196 0.984 . S
H203 N196 0.984 . S
H204 N192 0.984 . S
H205 N192 0.985 . S
C206 C207 1.363 . S
C206 C212 1.379 . S
C206 N214 1.356 . S
C207 C206 1.363 . S
C207 C213 1.363 . S
C208 C209 1.363 . S
C208 C213 1.379 . S
C208 N215 1.356 . S
C209 C208 1.363 . S
C209 C212 1.363 . S
N210 C212 1.356 . S
N210 H222 0.984 . S
N210 H223 0.985 . S
N211 C213 1.356 . S
N211 H216 0.984 . S
N211 H217 0.985 . S
C212 C206 1.379 . S
C212 C209 1.363 . S
C212 N210 1.356 . S
C213 C207 1.363 . S
C213 C208 1.379 . S
C213 N211 1.356 . S
N214 C206 1.356 . S
N214 H220 0.984 . S
N214 H221 0.984 . S
N215 C208 1.356 . S
N215 H218 0.984 . S
N215 H219 0.985 . S
H216 N211 0.984 . S
H217 N211 0.985 . S
H218 N215 0.984 . S
H219 N215 0.985 . S
H220 N214 0.984 . S
H221 N214 0.984 . S
H222 N210 0.984 . S
H223 N210 0.985 . S
C224 C225 1.363 . S
C224 C230 1.379 . S
C224 N232 1.356 . S
C225 C224 1.363 . S
C225 C231 1.363 . S
C226 C227 1.363 . S
C226 C231 1.379 . S
C226 N233 1.356 . S
C227 C226 1.363 . S
C227 C230 1.363 . S
N228 C230 1.356 1_455 S
N228 H240 0.984 . S
N228 H241 0.985 . S
N229 C231 1.356 . S
N229 H234 0.984 . S
N229 H235 0.985 . S
C230 C224 1.379 . S
C230 C227 1.363 . S
C230 N228 1.356 1_655 S
C231 C225 1.363 . S
C231 C226 1.379 . S
C231 N229 1.356 . S
N232 C224 1.356 . S
N232 H238 0.984 . S
N232 H239 0.984 . S
N233 C226 1.356 . S
N233 H236 0.984 . S
N233 H237 0.985 . S
H234 N229 0.984 . S
H235 N229 0.985 . S
H236 N233 0.984 . S
H237 N233 0.985 . S
H238 N232 0.984 . S
H239 N232 0.984 . S
H240 N228 0.984 . S
H241 N228 0.985 . S
C242 C243 1.363 . S
C242 C248 1.379 . S
C242 N250 1.356 . S
C243 C242 1.363 . S
C243 C249 1.363 . S
C244 C245 1.363 . S
C244 C249 1.379 . S
C244 N251 1.356 . S
C245 C244 1.363 . S
C245 C248 1.363 . S
N246 C248 1.356 . S
N246 H258 0.984 . S
N246 H259 0.985 . S
N247 C249 1.356 . S
N247 H252 0.984 . S
N247 H253 0.985 . S
C248 C242 1.379 . S
C248 C245 1.363 . S
C248 N246 1.356 . S
C249 C243 1.363 . S
C249 C244 1.379 . S
C249 N247 1.356 . S
N250 C242 1.356 . S
N250 H256 0.984 . S
N250 H257 0.984 . S
N251 C244 1.356 . S
N251 H254 0.984 . S
N251 H255 0.985 . S
H252 N247 0.984 . S
H253 N247 0.985 . S
H254 N251 0.984 . S
H255 N251 0.985 . S
H256 N250 0.984 . S
H257 N250 0.984 . S
H258 N246 0.984 . S
H259 N246 0.985 . S
C260 C261 1.363 . S
C260 C266 1.379 . S
C260 N268 1.356 . S
C261 C260 1.363 . S
C261 C267 1.363 . S
C262 C263 1.363 . S
C262 C267 1.379 . S
C262 N269 1.356 . S
C263 C262 1.363 . S
C263 C266 1.363 . S
N264 C266 1.356 . S
N264 H276 0.984 . S
N264 H277 0.985 . S
N265 C267 1.356 . S
N265 H270 0.984 . S
N265 H271 0.985 . S
C266 C260 1.379 . S
C266 C263 1.363 . S
C266 N264 1.356 . S
C267 C261 1.363 . S
C267 C262 1.379 . S
C267 N265 1.356 . S
N268 C260 1.356 . S
N268 H274 0.984 . S
N268 H275 0.984 . S
N269 C262 1.356 . S
N269 H272 0.984 . S
N269 H273 0.985 . S
H270 N265 0.984 . S
H271 N265 0.985 . S
H272 N269 0.984 . S
H273 N269 0.985 . S
H274 N268 0.984 . S
H275 N268 0.984 . S
H276 N264 0.984 . S
H277 N264 0.985 . S
C278 C279 1.363 . S
C278 C284 1.379 . S
C278 N286 1.356 . S
C279 C278 1.363 . S
C279 C285 1.363 . S
C280 C281 1.363 . S
C280 C285 1.379 . S
C280 N287 1.356 . S
C281 C280 1.363 . S
C281 C284 1.363 . S
N282 C284 1.356 . S
N282 H294 0.984 . S
N282 H295 0.985 . S
N283 C285 1.356 . S
N283 H288 0.984 . S
N283 H289 0.985 . S
C284 C278 1.379 . S
C284 C281 1.363 . S
C284 N282 1.356 . S
C285 C279 1.363 . S
C285 C280 1.379 . S
C285 N283 1.356 . S
N286 C278 1.356 . S
N286 H292 0.984 . S
N286 H293 0.984 . S
N287 C280 1.356 . S
N287 H290 0.984 1_556 S
N287 H291 0.985 . S
H288 N283 0.984 . S
H289 N283 0.985 . S
H290 N287 0.984 1_554 S
H291 N287 0.985 . S
H292 N286 0.984 . S
H293 N286 0.984 . S
H294 N282 0.984 . S
H295 N282 0.985 . S
C296 C297 1.363 . S
C296 C302 1.379 . S
C296 N304 1.356 . S
C297 C296 1.363 . S
C297 C303 1.363 . S
C298 C299 1.363 . S
C298 C303 1.379 . S
C298 N305 1.356 . S
C299 C298 1.363 . S
C299 C302 1.363 . S
N300 C302 1.356 . S
N300 H312 0.984 1_565 S
N300 H313 0.985 1_565 S
N301 C303 1.356 . S
N301 H306 0.984 . S
N301 H307 0.985 . S
C302 C296 1.379 . S
C302 C299 1.363 . S
C302 N300 1.356 . S
C303 C297 1.363 . S
C303 C298 1.379 . S
C303 N301 1.356 . S
N304 C296 1.356 . S
N304 H310 0.984 . S
N304 H311 0.984 . S
N305 C298 1.356 . S
N305 H308 0.984 . S
N305 H309 0.985 . S
H306 N301 0.984 . S
H307 N301 0.985 . S
H308 N305 0.984 . S
H309 N305 0.985 . S
H310 N304 0.984 . S
H311 N304 0.984 . S
H312 N300 0.984 1_545 S
H313 N300 0.985 1_545 S
C314 C315 1.363 . S
C314 C320 1.379 . S
C314 N322 1.356 . S
C315 C314 1.363 . S
C315 C321 1.363 . S
C316 C317 1.363 . S
C316 C321 1.379 . S
C316 N323 1.356 . S
C317 C316 1.363 . S
C317 C320 1.363 . S
N318 C320 1.356 . S
N318 H330 0.984 . S
N318 H331 0.985 . S
N319 C321 1.356 . S
N319 H324 0.984 . S
N319 H325 0.985 . S
C320 C314 1.379 . S
C320 C317 1.363 . S
C320 N318 1.356 . S
C321 C315 1.363 . S
C321 C316 1.379 . S
C321 N319 1.356 . S
N322 C314 1.356 . S
N322 H328 0.984 . S
N322 H329 0.984 . S
N323 C316 1.356 . S
N323 H326 0.984 . S
N323 H327 0.985 . S
H324 N319 0.984 . S
H325 N319 0.985 . S
H326 N323 0.984 . S
H327 N323 0.985 . S
H328 N322 0.984 . S
H329 N322 0.984 . S
H330 N318 0.984 . S
H331 N318 0.985 . S
C332 C333 1.363 . S
C332 C338 1.379 . S
C332 N340 1.356 . S
C333 C332 1.363 . S
C333 C339 1.363 . S
C334 C335 1.363 . S
C334 C339 1.379 . S
C334 N341 1.356 . S
C335 C334 1.363 . S
C335 C338 1.363 . S
N336 C338 1.356 . S
N336 H348 0.984 . S
N336 H349 0.985 . S
N337 C339 1.356 . S
N337 H342 0.984 . S
N337 H343 0.985 . S
C338 C332 1.379 . S
C338 C335 1.363 . S
C338 N336 1.356 . S
C339 C333 1.363 . S
C339 C334 1.379 . S
C339 N337 1.356 . S
N340 C332 1.356 . S
N340 H346 0.984 . S
N340 H347 0.984 . S
N341 C334 1.356 . S
N341 H344 0.984 . S
N341 H345 0.985 . S
H342 N337 0.984 . S
H343 N337 0.985 . S
H344 N341 0.984 . S
H345 N341 0.985 . S
H346 N340 0.984 . S
H347 N340 0.984 . S
H348 N336 0.984 . S
H349 N336 0.985 . S
C350 C351 1.363 . S
C350 C356 1.379 . S
C350 N358 1.356 . S
C351 C350 1.363 . S
C351 C357 1.363 . S
C352 C353 1.363 . S
C352 C357 1.379 . S
C352 N359 1.356 . S
C353 C352 1.363 . S
C353 C356 1.363 . S
N354 C356 1.356 . S
N354 H366 0.984 . S
N354 H367 0.985 . S
N355 C357 1.356 . S
N355 H360 0.984 . S
N355 H361 0.985 . S
C356 C350 1.379 . S
C356 C353 1.363 . S
C356 N354 1.356 . S
C357 C351 1.363 . S
C357 C352 1.379 . S
C357 N355 1.356 . S
N358 C350 1.356 . S
N358 H364 0.984 . S
N358 H365 0.984 . S
N359 C352 1.356 . S
N359 H362 0.984 . S
N359 H363 0.985 . S
H360 N355 0.984 . S
H361 N355 0.985 . S
H362 N359 0.984 . S
H363 N359 0.985 . S
H364 N358 0.984 . S
H365 N358 0.984 . S
H366 N354 0.984 . S
H367 N354 0.985 . S
C368 C369 1.363 . S
C368 C374 1.379 . S
C368 N376 1.356 . S
C369 C368 1.363 . S
C369 C375 1.363 . S
C370 C371 1.363 . S
C370 C375 1.379 . S
C370 N377 1.356 . S
C371 C370 1.363 . S
C371 C374 1.363 . S
N372 C374 1.356 . S
N372 H384 0.984 . S
N372 H385 0.985 . S
N373 C375 1.356 . S
N373 H378 0.984 . S
N373 H379 0.985 . S
C374 C368 1.379 . S
C374 C371 1.363 . S
C374 N372 1.356 . S
C375 C369 1.363 . S
C375 C370 1.379 . S
C375 N373 1.356 . S
N376 C368 1.356 . S
N376 H382 0.984 . S
N376 H383 0.984 . S
N377 C370 1.356 . S
N377 H380 0.984 . S
N377 H381 0.985 . S
H378 N373 0.984 . S
H379 N373 0.985 . S
H380 N377 0.984 . S
H381 N377 0.985 . S
H382 N376 0.984 . S
H383 N376 0.984 . S
H384 N372 0.984 . S
H385 N372 0.985 . S
C386 C387 1.363 . S
C386 C392 1.379 . S
C386 N394 1.356 . S
C387 C386 1.363 . S
C387 C393 1.363 . S
C388 C389 1.363 . S
C388 C393 1.379 . S
C388 N395 1.356 . S
C389 C388 1.363 . S
C389 C392 1.363 . S
N390 C392 1.356 . S
N390 H402 0.984 . S
N390 H403 0.985 . S
N391 C393 1.356 . S
N391 H396 0.984 . S
N391 H397 0.985 . S
C392 C386 1.379 . S
C392 C389 1.363 . S
C392 N390 1.356 . S
C393 C387 1.363 . S
C393 C388 1.379 . S
C393 N391 1.356 . S
N394 C386 1.356 . S
N394 H400 0.984 . S
N394 H401 0.984 . S
N395 C388 1.356 . S
N395 H398 0.984 . S
N395 H399 0.985 . S
H396 N391 0.984 . S
H397 N391 0.985 . S
H398 N395 0.984 . S
H399 N395 0.985 . S
H400 N394 0.984 . S
H401 N394 0.984 . S
H402 N390 0.984 . S
H403 N390 0.985 . S
C404 C405 1.363 . S
C404 C410 1.379 . S
C404 N412 1.356 . S
C405 C404 1.363 . S
C405 C411 1.363 . S
C406 C407 1.363 . S
C406 C411 1.379 . S
C406 N413 1.356 . S
C407 C406 1.363 . S
C407 C410 1.363 . S
N408 C410 1.356 . S
N408 H420 0.984 . S
N408 H421 0.985 . S
N409 C411 1.356 . S
N409 H414 0.984 . S
N409 H415 0.985 . S
C410 C404 1.379 . S
C410 C407 1.363 . S
C410 N408 1.356 . S
C411 C405 1.363 . S
C411 C406 1.379 . S
C411 N409 1.356 . S
N412 C404 1.356 . S
N412 H418 0.984 . S
N412 H419 0.984 . S
N413 C406 1.356 . S
N413 H416 0.984 . S
N413 H417 0.985 . S
H414 N409 0.984 . S
H415 N409 0.985 . S
H416 N413 0.984 . S
H417 N413 0.985 . S
H418 N412 0.984 . S
H419 N412 0.984 . S
H420 N408 0.984 . S
H421 N408 0.985 . S
C422 C423 1.363 . S
C422 C428 1.379 . S
C422 N430 1.356 . S
C423 C422 1.363 . S
C423 C429 1.363 . S
C424 C425 1.363 . S
C424 C429 1.379 . S
C424 N431 1.356 . S
C425 C424 1.363 . S
C425 C428 1.363 . S
N426 C428 1.356 . S
N426 H438 0.984 . S
N426 H439 0.985 . S
N427 C429 1.356 . S
N427 H432 0.984 . S
N427 H433 0.985 . S
C428 C422 1.379 . S
C428 C425 1.363 . S
C428 N426 1.356 . S
C429 C423 1.363 . S
C429 C424 1.379 . S
C429 N427 1.356 . S
N430 C422 1.356 . S
N430 H436 0.984 . S
N430 H437 0.984 . S
N431 C424 1.356 . S
N431 H434 0.984 . S
N431 H435 0.985 . S
H432 N427 0.984 . S
H433 N427 0.985 . S
H434 N431 0.984 . S
H435 N431 0.985 . S
H436 N430 0.984 . S
H437 N430 0.984 . S
H438 N426 0.984 . S
H439 N426 0.985 . S
C440 C441 1.363 . S
C440 C446 1.379 . S
C440 N448 1.356 . S
C441 C440 1.363 . S
C441 C447 1.363 . S
C442 C443 1.363 . S
C442 C447 1.379 . S
C442 N449 1.356 . S
C443 C442 1.363 . S
C443 C446 1.363 . S
N444 C446 1.356 . S
N444 H456 0.984 . S
N444 H457 0.985 . S
N445 C447 1.356 . S
N445 H450 0.984 . S
N445 H451 0.985 . S
C446 C440 1.379 . S
C446 C443 1.363 . S
C446 N444 1.356 . S
C447 C441 1.363 . S
C447 C442 1.379 . S
C447 N445 1.356 . S
N448 C440 1.356 . S
N448 H454 0.984 . S
N448 H455 0.984 . S
N449 C442 1.356 . S
N449 H452 0.984 . S
N449 H453 0.985 . S
H450 N445 0.984 . S
H451 N445 0.985 . S
H452 N449 0.984 . S
H453 N449 0.985 . S
H454 N448 0.984 . S
H455 N448 0.984 . S
H456 N444 0.984 . S
H457 N444 0.985 . S
C458 C459 1.363 . S
C458 C464 1.379 . S
C458 N466 1.356 . S
C459 C458 1.363 . S
C459 C465 1.363 . S
C460 C461 1.363 . S
C460 C465 1.379 . S
C460 N467 1.356 . S
C461 C460 1.363 . S
C461 C464 1.363 . S
N462 C464 1.356 . S
N462 H474 0.984 . S
N462 H475 0.985 . S
N463 C465 1.356 . S
N463 H468 0.984 . S
N463 H469 0.985 . S
C464 C458 1.379 . S
C464 C461 1.363 . S
C464 N462 1.356 . S
C465 C459 1.363 . S
C465 C460 1.379 . S
C465 N463 1.356 . S
N466 C458 1.356 . S
N466 H472 0.984 . S
N466 H473 0.984 . S
N467 C460 1.356 . S
N467 H470 0.984 . S
N467 H471 0.985 . S
H468 N463 0.984 . S
H469 N463 0.985 . S
H470 N467 0.984 . S
H471 N467 0.985 . S
H472 N466 0.984 . S
H473 N466 0.984 . S
H474 N462 0.984 . S
H475 N462 0.985 . S
C476 C477 1.363 . S
C476 C482 1.379 . S
C476 N484 1.356 . S
C477 C476 1.363 . S
C477 C483 1.363 . S
C478 C479 1.363 . S
C478 C483 1.379 . S
C478 N485 1.356 . S
C479 C478 1.363 . S
C479 C482 1.363 . S
N480 C482 1.356 . S
N480 H492 0.984 . S
N480 H493 0.985 . S
N481 C483 1.356 . S
N481 H486 0.984 . S
N481 H487 0.985 . S
C482 C476 1.379 . S
C482 C479 1.363 . S
C482 N480 1.356 . S
C483 C477 1.363 . S
C483 C478 1.379 . S
C483 N481 1.356 . S
N484 C476 1.356 . S
N484 H490 0.984 . S
N484 H491 0.984 . S
N485 C478 1.356 . S
N485 H488 0.984 . S
N485 H489 0.985 . S
H486 N481 0.984 . S
H487 N481 0.985 . S
H488 N485 0.984 . S
H489 N485 0.985 . S
H490 N484 0.984 . S
H491 N484 0.984 . S
H492 N480 0.984 . S
H493 N480 0.985 . S
C494 C495 1.363 . S
C494 C500 1.379 . S
C494 N502 1.356 . S
C495 C494 1.363 . S
C495 C501 1.363 . S
C496 C497 1.363 . S
C496 C501 1.379 . S
C496 N503 1.356 . S
C497 C496 1.363 . S
C497 C500 1.363 . S
N498 C500 1.356 . S
N498 H510 0.984 . S
N498 H511 0.985 . S
N499 C501 1.356 . S
N499 H504 0.984 . S
N499 H505 0.985 . S
C500 C494 1.379 . S
C500 C497 1.363 . S
C500 N498 1.356 . S
C501 C495 1.363 . S
C501 C496 1.379 . S
C501 N499 1.356 . S
N502 C494 1.356 . S
N502 H508 0.984 . S
N502 H509 0.984 . S
N503 C496 1.356 . S
N503 H506 0.984 . S
N503 H507 0.975 1_554 S
H504 N499 0.984 . S
H505 N499 0.985 . S
H506 N503 0.984 . S
H507 N503 0.975 1_556 S
H508 N502 0.984 . S
H509 N502 0.984 . S
H510 N498 0.984 . S
H511 N498 0.985 . S
C512 C513 1.363 . S
C512 C518 1.379 . S
C512 N520 1.356 . S
C513 C512 1.363 . S
C513 C519 1.363 . S
C514 C515 1.363 . S
C514 C519 1.379 . S
C514 N521 1.356 . S
C515 C514 1.363 . S
C515 C518 1.363 . S
N516 C518 1.356 . S
N516 H528 0.984 . S
N516 H529 0.985 . S
N517 C519 1.356 . S
N517 H522 0.984 . S
N517 H523 0.985 . S
C518 C512 1.379 . S
C518 C515 1.363 . S
C518 N516 1.356 . S
C519 C513 1.363 . S
C519 C514 1.379 . S
C519 N517 1.356 . S
N520 C512 1.356 . S
N520 H526 0.984 . S
N520 H527 0.984 . S
N521 C514 1.356 . S
N521 H524 0.984 . S
N521 H525 0.985 . S
H522 N517 0.984 . S
H523 N517 0.985 . S
H524 N521 0.984 . S
H525 N521 0.985 . S
H526 N520 0.984 . S
H527 N520 0.984 . S
H528 N516 0.984 . S
H529 N516 0.985 . S
C530 C531 1.363 . S
C530 C536 1.379 . S
C530 N538 1.356 . S
C531 C530 1.363 . S
C531 C537 1.363 . S
C532 C533 1.363 . S
C532 C537 1.379 . S
C532 N539 1.356 . S
C533 C532 1.363 . S
C533 C536 1.363 . S
N534 C536 1.356 . S
N534 H546 0.984 . S
N534 H547 0.985 . S
N535 C537 1.356 . S
N535 H540 0.984 . S
N535 H541 0.985 . S
C536 C530 1.379 . S
C536 C533 1.363 . S
C536 N534 1.356 . S
C537 C531 1.363 . S
C537 C532 1.379 . S
C537 N535 1.356 . S
N538 C530 1.356 . S
N538 H544 0.984 . S
N538 H545 0.984 . S
N539 C532 1.356 . S
N539 H542 0.984 . S
N539 H543 0.985 . S
H540 N535 0.984 . S
H541 N535 0.985 . S
H542 N539 0.984 . S
H543 N539 0.985 . S
H544 N538 0.984 . S
H545 N538 0.984 . S
H546 N534 0.984 . S
H547 N534 0.985 . S
C548 C549 1.363 . S
C548 C554 1.379 . S
C548 N556 1.356 . S
C549 C548 1.363 . S
C549 C555 1.363 . S
C550 C551 1.363 . S
C550 C555 1.379 . S
C550 N557 1.356 . S
C551 C550 1.363 . S
C551 C554 1.363 . S
N552 C554 1.356 . S
N552 H564 0.984 . S
N552 H565 0.985 . S
N553 C555 1.356 . S
N553 H558 0.984 . S
N553 H559 0.985 . S
C554 C548 1.379 . S
C554 C551 1.363 . S
C554 N552 1.356 . S
C555 C549 1.363 . S
C555 C550 1.379 . S
C555 N553 1.356 . S
N556 C548 1.356 . S
N556 H562 0.984 . S
N556 H563 0.984 . S
N557 C550 1.356 . S
N557 H560 0.984 . S
N557 H561 0.985 . S
H558 N553 0.984 . S
H559 N553 0.985 . S
H560 N557 0.984 . S
H561 N557 0.985 . S
H562 N556 0.984 . S
H563 N556 0.984 . S
H564 N552 0.984 . S
H565 N552 0.985 . S
C566 C567 1.363 . S
C566 C572 1.379 . S
C566 N574 1.356 . S
C567 C566 1.363 . S
C567 C573 1.363 . S
C568 C569 1.363 . S
C568 C573 1.379 . S
C568 N575 1.356 . S
C569 C568 1.363 . S
C569 C572 1.363 . S
N570 C572 1.356 . S
N570 H582 0.984 . S
N570 H583 0.985 . S
N571 C573 1.356 . S
N571 H576 0.984 . S
N571 H577 0.985 . S
C572 C566 1.379 . S
C572 C569 1.363 . S
C572 N570 1.356 . S
C573 C567 1.363 . S
C573 C568 1.379 . S
C573 N571 1.356 . S
N574 C566 1.356 . S
N574 H580 0.984 . S
N574 H581 0.984 . S
N575 C568 1.356 . S
N575 H578 0.984 . S
N575 H579 0.985 . S
H576 N571 0.984 . S
H577 N571 0.985 . S
H578 N575 0.984 . S
H579 N575 0.985 . S
H580 N574 0.984 . S
H581 N574 0.984 . S
H582 N570 0.984 . S
H583 N570 0.985 . S
C584 C585 1.363 . S
C584 C590 1.379 . S
C584 N592 1.356 . S
C585 C584 1.363 . S
C585 C591 1.363 . S
C586 C587 1.363 . S
C586 C591 1.379 . S
C586 N593 1.356 . S
C587 C586 1.363 . S
C587 C590 1.363 . S
N588 C590 1.356 . S
N588 H600 0.984 . S
N588 H601 0.985 . S
N589 C591 1.356 . S
N589 H594 0.984 . S
N589 H595 0.985 . S
C590 C584 1.379 . S
C590 C587 1.363 . S
C590 N588 1.356 . S
C591 C585 1.363 . S
C591 C586 1.379 . S
C591 N589 1.356 . S
N592 C584 1.356 . S
N592 H598 0.984 . S
N592 H599 0.984 . S
N593 C586 1.356 . S
N593 H596 0.984 . S
N593 H597 0.985 . S
H594 N589 0.984 . S
H595 N589 0.985 . S
H596 N593 0.984 . S
H597 N593 0.985 . S
H598 N592 0.984 . S
H599 N592 0.984 . S
H600 N588 0.984 . S
H601 N588 0.985 . S
C602 C603 1.363 . S
C602 C608 1.379 . S
C602 N610 1.356 . S
C603 C602 1.363 . S
C603 C609 1.363 . S
C604 C605 1.363 . S
C604 C609 1.379 . S
C604 N611 1.356 1_556 S
C605 C604 1.363 . S
C605 C608 1.363 . S
N606 C608 1.356 . S
N606 H618 0.984 . S
N606 H619 0.985 . S
N607 C609 1.356 . S
N607 H612 0.984 . S
N607 H613 0.985 . S
C608 C602 1.379 . S
C608 C605 1.363 . S
C608 N606 1.356 . S
C609 C603 1.363 . S
C609 C604 1.379 . S
C609 N607 1.356 . S
N610 C602 1.356 . S
N610 H616 0.984 . S
N610 H617 0.984 . S
N611 C604 1.356 1_554 S
N611 H614 0.984 . S
N611 H615 0.985 . S
H612 N607 0.984 . S
H613 N607 0.985 . S
H614 N611 0.984 . S
H615 N611 0.985 . S
H616 N610 0.984 . S
H617 N610 0.984 . S
H618 N606 0.984 . S
H619 N606 0.985 . S
C191 C116 1.447 . S
C189 N2 1.459 . S
C209 C119 1.492 . S
C207 N15 1.494 . S
C227 C117 1.646 . S
C225 N27 1.644 . S
C245 C118 1.501 . S
C243 N44 1.516 . S
C263 C133 1.640 . S
C261 N1 1.673 . S
C281 C147 1.645 . S
C279 N18 1.642 . S
C297 N28 1.669 . S
C299 C173 1.631 . S
C317 C187 1.509 . S
C315 N41 1.513 . S
C335 C132 1.608 . S
C333 N14 1.633 . S
C351 N31 1.737 . S
C353 C146 1.731 . S
C371 C172 1.705 . S
C369 N40 1.735 . S
C389 C186 1.575 . S
C387 N5 1.593 . S
C405 N53 1.650 . S
C407 C131 1.624 . S
C425 C104 1.622 . S
C423 N70 1.617 . S
C441 N80 1.520 . S
C443 C130 1.509 . S
C459 N92 1.722 . S
C461 C105 1.716 . S
C479 C160 1.687 . S
C477 N57 1.727 . S
C497 C174 1.471 . S
C495 N67 1.474 . S
C515 C144 1.659 . S
C513 N83 1.701 . S
C531 N96 1.675 . S
C533 C158 1.666 . S
C551 C161 1.629 . S
C549 N66 1.668 . S
C569 C175 1.461 . S
C567 N79 1.471 . S
C587 C145 1.619 . S
C585 N93 1.656 . S
C603 N54 1.494 . S
C605 C159 1.481 . S
