# Generated by pormake.
# Topology anh, (6,3)-cn, num edge types: 1
# Building blocks:
#     Node 0, Type 0, BuildingBlock: PAMTUU_clean_sbu_0, # of connection points: 6
#     Node 1, Type 0, BuildingBlock: PAMTUU_clean_sbu_0, # of connection points: 6
#     Node 2, Type 0, BuildingBlock: PAMTUU_clean_sbu_0, # of connection points: 6
#     Node 3, Type 1, BuildingBlock: ESEHIV_clean_linker_0, # of connection points: 3
#     Node 4, Type 1, BuildingBlock: ESEHIV_clean_linker_0, # of connection points: 3
#     Node 5, Type 1, BuildingBlock: ESEHIV_clean_linker_0, # of connection points: 3
#     Node 6, Type 1, BuildingBlock: ESEHIV_clean_linker_0, # of connection points: 3
#     Node 7, Type 1, BuildingBlock: ESEHIV_clean_linker_0, # of connection points: 3
#     Node 8, Type 1, BuildingBlock: ESEHIV_clean_linker_0, # of connection points: 3
#     Edge 9, Type (0, 1), BuildingBlock: MIFKUJ_clean_linker_0, # of connection points: 2
#     Edge 10, Type (0, 1), BuildingBlock: MIFKUJ_clean_linker_0, # of connection points: 2
#     Edge 11, Type (0, 1), BuildingBlock: MIFKUJ_clean_linker_0, # of connection points: 2
#     Edge 12, Type (0, 1), BuildingBlock: MIFKUJ_clean_linker_0, # of connection points: 2
#     Edge 13, Type (0, 1), BuildingBlock: MIFKUJ_clean_linker_0, # of connection points: 2
#     Edge 14, Type (0, 1), BuildingBlock: MIFKUJ_clean_linker_0, # of connection points: 2
#     Edge 15, Type (0, 1), BuildingBlock: MIFKUJ_clean_linker_0, # of connection points: 2
#     Edge 16, Type (0, 1), BuildingBlock: MIFKUJ_clean_linker_0, # of connection points: 2
#     Edge 17, Type (0, 1), BuildingBlock: MIFKUJ_clean_linker_0, # of connection points: 2
#     Edge 18, Type (0, 1), BuildingBlock: MIFKUJ_clean_linker_0, # of connection points: 2
#     Edge 19, Type (0, 1), BuildingBlock: MIFKUJ_clean_linker_0, # of connection points: 2
#     Edge 20, Type (0, 1), BuildingBlock: MIFKUJ_clean_linker_0, # of connection points: 2
#     Edge 21, Type (0, 1), BuildingBlock: MIFKUJ_clean_linker_0, # of connection points: 2
#     Edge 22, Type (0, 1), BuildingBlock: MIFKUJ_clean_linker_0, # of connection points: 2
#     Edge 23, Type (0, 1), BuildingBlock: MIFKUJ_clean_linker_0, # of connection points: 2
#     Edge 24, Type (0, 1), BuildingBlock: MIFKUJ_clean_linker_0, # of connection points: 2
#     Edge 25, Type (0, 1), BuildingBlock: MIFKUJ_clean_linker_0, # of connection points: 2
#     Edge 26, Type (0, 1), BuildingBlock: MIFKUJ_clean_linker_0, # of connection points: 2
# Relax obj value: 0.236
# Max RMSD: 0.188
# Mean RMSD: 0.155
data_MOF--net-anh--node1-PAMTUU_clean_sbu_0--node2-ESEHIV_clean_linker_0--edge1-MIFKUJ_clean_linker_0
_symmetry_space_group_name_H-M    P1
_symmetry_Int_Tables_number       1
_symmetry_cell_setting            triclinic
loop_
_symmetry_equiv_pos_as_xyz
'x, y, z'
_cell_length_a     39.236371
_cell_length_b     39.238806
_cell_length_c     68.226461
_cell_angle_alpha  93.685124
_cell_angle_beta   90.947608
_cell_angle_gamma 120.18752
loop_
_atom_site_label
_atom_site_type_symbol
_atom_site_fract_x
_atom_site_fract_y
_atom_site_fract_z
_atom_type_partial_charge
Tb0 Tb 0.05728 0.58895 0.15598 0.0
Tb1 Tb 0.10037 0.54031 0.15797 0.0
C2 C 0.08374 0.56383 0.1159 0.0
C3 C 0.978 0.60635 0.16745 0.0
C4 C 0.90137 0.56075 0.1804 0.0
C5 C 0.90841 0.58517 0.1649 0.0
C6 C 0.94648 0.60775 0.15846 0.0
C7 C 0.97162 0.58466 0.18399 0.0
C8 C 0.93362 0.56221 0.19046 0.0
C9 C 1.01487 0.62023 0.15736 0.0
O10 O 1.00732 0.52634 0.16161 0.0
O11 O 1.03693 0.48957 0.15594 0.0
O12 O 0.07184 0.53481 0.18565 0.0
O13 O 0.07652 0.59436 0.1864 0.0
O14 O 0.11967 0.50231 0.14635 0.0
O15 O 0.13375 0.5266 0.17661 0.0
O16 O 0.15097 0.60465 0.16314 0.0
O17 O 0.12057 0.6392 0.15544 0.0
O18 O 0.06804 0.58291 0.12486 0.0
O19 O 0.09758 0.54533 0.12598 0.0
C20 C 1.00417 0.49055 0.15981 0.0
O21 O 0.04674 0.63287 0.1686 0.0
O22 O 1.01278 0.59608 0.14276 0.0
C23 C 0.07116 0.56405 0.19547 0.0
C24 C 0.18026 0.51574 0.16129 0.0
C25 C 0.25994 0.53633 0.16221 0.0
C26 C 0.23098 0.49978 0.16836 0.0
C27 C 0.19146 0.48963 0.16791 0.0
C28 C 0.20884 0.55216 0.15499 0.0
C29 C 0.2485 0.56235 0.15537 0.0
C30 C 0.13928 0.50592 0.16271 0.0
C31 C 0.15381 0.63954 0.16046 0.0
H32 H 0.88415 0.58438 0.15667 0.0
H33 H 0.95077 0.62388 0.14555 0.0
H34 H 0.99549 0.58283 0.19108 0.0
H35 H 0.92919 0.5442 0.20258 0.0
H36 H 0.23881 0.4788 0.17331 0.0
H37 H 0.16968 0.46155 0.17296 0.0
H38 H 0.20055 0.57284 0.15006 0.0
H39 H 0.27024 0.5907 0.15058 0.0
Tb40 Tb 0.54644 0.02729 0.48556 0.0
Tb41 Tb 0.63899 0.07315 0.49164 0.0
C42 C 0.59887 0.05325 0.44816 0.0
C43 C 0.43714 0.95826 0.4889 0.0
C44 C 0.36331 0.89488 0.49746 0.0
C45 C 0.38994 0.88773 0.48696 0.0
C46 C 0.42657 0.91918 0.48268 0.0
C47 C 0.41163 0.96511 0.50049 0.0
C48 C 0.37512 0.93371 0.50481 0.0
C49 C 0.47225 0.99237 0.4819 0.0
O50 O 0.55734 0.97543 0.48778 0.0
O51 O 0.6245 1.00942 0.49357 0.0
O52 O 0.61565 0.07811 0.51982 0.0
O53 O 0.55878 1.01952 0.51522 0.0
O54 O 0.69598 0.11203 0.4831 0.0
O55 O 0.68731 0.08314 0.50991 0.0
O56 O 0.6281 0.12505 0.49179 0.0
O57 O 0.5608 0.09123 0.49231 0.0
O58 O 0.56542 0.04435 0.45605 0.0
O59 O 0.62984 0.06031 0.45933 0.0
C60 C 0.59059 0.97472 0.49181 0.0
O61 O 0.49351 1.02179 0.49499 0.0
O62 O 0.49392 0.9854 0.4698 0.0
C63 C 0.58549 0.04837 0.52703 0.0
C64 C 0.73807 0.14913 0.5103 0.0
C65 C 0.78706 0.2292 0.5235 0.0
C66 C 0.80351 0.20555 0.51791 0.0
C67 C 0.7791 0.16583 0.51112 0.0
C68 C 0.72156 0.17126 0.51792 0.0
C69 C 0.7458 0.21102 0.52439 0.0
C70 C 0.71254 0.11062 0.49951 0.0
C71 C 0.59464 0.12603 0.49329 0.0
H72 H 0.38149 0.85815 0.48094 0.0
H73 H 0.4457 0.91298 0.47375 0.0
H74 H 0.41916 0.99498 0.50548 0.0
H75 H 0.35536 0.94 0.51313 0.0
H76 H 0.83519 0.21841 0.51749 0.0
H77 H 0.79223 0.14886 0.50551 0.0
H78 H 0.68983 0.15854 0.51764 0.0
H79 H 0.73187 0.22808 0.52843 0.0
Tb80 Tb 0.56746 0.5117 0.81768 0.0
Tb81 Tb 0.61417 0.60452 0.82407 0.0
C82 C 0.59155 0.56087 0.78047 0.0
C83 C 0.54296 0.41131 0.82582 0.0
C84 C 0.56404 0.36269 0.84523 0.0
C85 C 0.5898 0.38967 0.8324 0.0
C86 C 0.57948 0.41383 0.82288 0.0
C87 C 0.51761 0.38521 0.83898 0.0
C88 C 0.5281 0.36125 0.84867 0.0
C89 C 0.53225 0.43764 0.81641 0.0
O90 O 0.63126 0.52465 0.81905 0.0
O91 O 0.66429 0.59128 0.82797 0.0
O92 O 0.59152 0.5833 0.85242 0.0
O93 O 0.59404 0.52738 0.84709 0.0
O94 O 0.63035 0.6591 0.81329 0.0
O95 O 0.65257 0.65638 0.84191 0.0
O96 O 0.55067 0.59196 0.82402 0.0
O97 O 0.51764 0.52455 0.82369 0.0
O98 O 0.56552 0.52829 0.78789 0.0
O99 O 0.61688 0.59177 0.79223 0.0
C100 C 0.6654 0.5578 0.82469 0.0
O101 O 0.52406 0.45925 0.82854 0.0
O102 O 0.55453 0.45789 0.80259 0.0
C103 C 0.59261 0.55349 0.85922 0.0
C104 C 0.63737 0.70654 0.83789 0.0
C105 C 0.60871 0.75855 0.84578 0.0
C106 C 0.64826 0.77315 0.84109 0.0
C107 C 0.66237 0.74726 0.83703 0.0
C108 C 0.59905 0.69218 0.84426 0.0
C109 C 0.58474 0.71796 0.84813 0.0
C110 C 0.64941 0.67899 0.82971 0.0
C111 C 0.51648 0.55815 0.82512 0.0
H112 H 0.6174 0.39121 0.82907 0.0
H113 H 0.60004 0.4342 0.8131 0.0
H114 H 0.48964 0.38337 0.84177 0.0
H115 H 0.50778 0.34115 0.85862 0.0
H116 H 0.66765 0.80437 0.83951 0.0
H117 H 0.69211 0.7588 0.83223 0.0
H118 H 0.57943 0.66077 0.84513 0.0
H119 H 0.5541 0.70564 0.85155 0.0
H120 H 0.53833 1.01306 0.22978 0.0
H121 H 0.6454 0.12584 0.23139 0.0
H122 H 0.58226 0.06714 0.17537 0.0
C123 C 0.55981 0.03712 0.22186 0.0
C124 C 0.55404 0.03416 0.20116 0.0
C125 C 0.59211 0.06956 0.23282 0.0
C126 C 0.62108 0.10118 0.22275 0.0
C127 C 0.61972 0.10238 0.20199 0.0
C128 C 0.58505 0.06782 0.19121 0.0
H129 H 0.5923 0.61221 0.56191 0.0
H130 H 0.59329 0.50279 0.56116 0.0
H131 H 0.59281 0.55242 0.5063 0.0
C132 C 0.59226 0.58778 0.55352 0.0
C133 C 0.59226 0.58799 0.53274 0.0
C134 C 0.59316 0.55789 0.56391 0.0
C135 C 0.59356 0.52587 0.55313 0.0
C136 C 0.59349 0.52184 0.53237 0.0
C137 C 0.59301 0.55401 0.52219 0.0
H138 H 1.03556 0.55824 0.89548 0.0
H139 H 0.14624 0.56112 0.89812 0.0
H140 H 0.09143 0.55628 0.84138 0.0
C141 C 0.05964 0.55856 0.88778 0.0
C142 C 0.05793 0.55781 0.867 0.0
C143 C 0.09069 0.55903 0.89899 0.0
C144 C 0.12216 0.55882 0.88908 0.0
C145 C 0.12457 0.55716 0.86826 0.0
C146 C 0.09142 0.55718 0.85726 0.0
H147 H 0.89409 0.51687 0.39364 0.0
H148 H 1.0087 0.62233 0.39481 0.0
H149 H 0.95219 0.58299 0.44859 0.0
C150 C 0.91839 0.54266 0.40168 0.0
C151 C 0.91837 0.54775 0.42228 0.0
C152 C 0.95049 0.57015 0.39157 0.0
C153 C 0.98276 0.6024 0.4023 0.0
C154 C 0.98346 0.60673 0.42284 0.0
C155 C 0.95084 0.58011 0.43263 0.0
H156 H 0.54078 0.07311 0.74054 0.0
H157 H 0.47744 0.94603 0.72913 0.0
H158 H 0.49117 0.99973 0.78786 0.0
C159 C 0.52396 0.04376 0.74559 0.0
C160 C 0.51717 0.03994 0.76561 0.0
C161 C 0.50924 1.01008 0.73215 0.0
C162 C 0.4874 0.97226 0.73914 0.0
C163 C 0.48036 0.96819 0.75925 0.0
C164 C 0.49473 1.00233 0.77221 0.0
H165 H 0.54258 0.49696 0.06685 0.0
H166 H 0.61235 0.4407 0.06061 0.0
H167 H 0.56365 0.4463 0.11609 0.0
C168 C 0.55565 0.48107 0.073 0.0
C169 C 0.55037 0.47247 0.09267 0.0
C170 C 0.57827 0.47009 0.06136 0.0
C171 C 0.5946 0.44903 0.06947 0.0
C172 C 0.58914 0.4399 0.08922 0.0
C173 C 0.56711 0.45199 0.1007 0.0
H174 H 0.30241 0.52644 0.1911 0.0
H175 H 0.36629 0.53024 0.18831 0.0
H176 H 0.3747 0.57114 0.13039 0.0
H177 H 0.31096 0.56729 0.13308 0.0
H178 H 0.37393 0.48314 0.16163 0.0
H179 H 0.46894 0.62139 0.11814 0.0
H180 H 0.48499 0.69079 0.11863 0.0
H181 H 0.45812 0.68986 0.1794 0.0
H182 H 0.44249 0.62065 0.1794 0.0
H183 H 0.47624 0.45839 0.08483 0.0
H184 H 0.4389 0.48048 0.1051 0.0
H185 H 0.53724 0.53942 0.14806 0.0
H186 H 0.57465 0.51678 0.12789 0.0
H187 H 0.49774 0.58471 0.1347 0.0
H188 H 0.47335 0.46719 0.16354 0.0
H189 H 0.45746 0.39782 0.163 0.0
H190 H 0.34463 0.35913 0.13379 0.0
H191 H 0.36012 0.42835 0.13385 0.0
C192 C 0.31832 0.53697 0.17794 0.0
C193 C 0.30153 0.54597 0.16216 0.0
C194 C 0.35485 0.53938 0.17643 0.0
C195 C 0.37521 0.551 0.15918 0.0
C196 C 0.35981 0.56274 0.14399 0.0
C197 C 0.3233 0.5604 0.1455 0.0
C198 C 0.40852 0.54436 0.15551 0.0
C199 C 0.40135 0.50562 0.15614 0.0
C200 C 0.44445 0.57379 0.14855 0.0
C201 C 0.45437 0.61568 0.14873 0.0
C202 C 0.46672 0.63604 0.13166 0.0
C203 C 0.47568 0.67535 0.13184 0.0
C204 C 0.47252 0.6947 0.14902 0.0
C205 C 0.46046 0.6748 0.16608 0.0
C206 C 0.45148 0.6355 0.16599 0.0
C207 C 0.48983 0.47609 0.09858 0.0
C208 C 0.52807 0.48582 0.10493 0.0
C209 C 0.4686 0.48863 0.11011 0.0
C210 C 0.48549 0.51144 0.128 0.0
C211 C 0.52393 0.52183 0.13426 0.0
C212 C 0.54501 0.50872 0.12285 0.0
C213 C 0.46201 0.5234 0.14012 0.0
C214 C 0.47089 0.56283 0.14088 0.0
C215 C 0.42771 0.49477 0.14852 0.0
C216 C 0.41801 0.453 0.14862 0.0
C217 C 0.44527 0.44391 0.15687 0.0
C218 C 0.43631 0.40461 0.15667 0.0
C219 C 0.40007 0.37409 0.14835 0.0
C220 C 0.37269 0.38281 0.14023 0.0
C221 C 0.38152 0.42207 0.14037 0.0
H222 H 0.39319 0.34367 0.1482 0.0
H223 H 0.47944 0.72512 0.14912 0.0
H224 H 0.84711 0.27285 0.50029 0.0
H225 H 0.87175 0.34077 0.49385 0.0
H226 H 0.80569 0.3539 0.54066 0.0
H227 H 0.78064 0.28495 0.5475 0.0
H228 H 0.78357 0.36726 0.50534 0.0
H229 H 0.90311 0.41853 0.54197 0.0
H230 H 0.9633 0.42262 0.55622 0.0
H231 H 1.00745 0.42818 0.49865 0.0
H232 H 0.9473 0.4235 0.48398 0.0
H233 H 0.87845 0.55527 0.45318 0.0
H234 H 0.85124 0.50908 0.47889 0.0
H235 H 0.8681 0.42404 0.44371 0.0
H236 H 0.89531 0.46983 0.4181 0.0
H237 H 0.91575 0.4645 0.48426 0.0
H238 H 0.78323 0.39228 0.44955 0.0
H239 H 0.72165 0.38754 0.43678 0.0
H240 H 0.70384 0.42615 0.49405 0.0
H241 H 0.76574 0.43174 0.50705 0.0
C242 C 0.83908 0.29035 0.50995 0.0
C243 C 0.8112 0.27301 0.5242 0.0
C244 C 0.85324 0.32949 0.50617 0.0
C245 C 0.84005 0.35225 0.51659 0.0
C246 C 0.81556 0.33651 0.53223 0.0
C247 C 0.80137 0.29717 0.5361 0.0
C248 C 0.84619 0.38881 0.50842 0.0
C249 C 0.81266 0.38943 0.50133 0.0
C250 C 0.88404 0.41778 0.50321 0.0
C251 C 0.92055 0.42069 0.51186 0.0
C252 C 0.92553 0.42041 0.53232 0.0
C253 C 0.95969 0.42285 0.54048 0.0
C254 C 0.98919 0.42568 0.52835 0.0
C255 C 0.98461 0.42609 0.50803 0.0
C256 C 0.9505 0.42364 0.49979 0.0
C257 C 0.87471 0.52602 0.45061 0.0
C258 C 0.88927 0.51616 0.43376 0.0
C259 C 0.85929 0.49981 0.4653 0.0
C260 C 0.85821 0.46357 0.46317 0.0
C261 C 0.86881 0.45203 0.4455 0.0
C262 C 0.88399 0.47805 0.4308 0.0
C263 C 0.85307 0.44075 0.48029 0.0
C264 C 0.88694 0.44325 0.48902 0.0
C265 C 0.81571 0.41516 0.48722 0.0
C266 C 0.77927 0.41288 0.4792 0.0
C267 C 0.76646 0.40027 0.45934 0.0
C268 C 0.73144 0.39732 0.45208 0.0
C269 C 0.70892 0.40667 0.46458 0.0
C270 C 0.72139 0.41907 0.48436 0.0
C271 C 0.75643 0.42215 0.49168 0.0
H272 H 0.68174 0.40421 0.45895 0.0
H273 H 1.0156 0.42756 0.5347 0.0
H274 H 0.55408 0.76143 0.86979 0.0
H275 H 0.51721 0.79565 0.8643 0.0
H276 H 0.58504 0.84547 0.81398 0.0
H277 H 0.62167 0.81209 0.81938 0.0
H278 H 0.57144 0.89831 0.83391 0.0
H279 H 0.48821 0.75054 0.81146 0.0
H280 H 0.45547 0.68308 0.82262 0.0
H281 H 0.39499 0.71574 0.865 0.0
H282 H 0.42706 0.78315 0.85394 0.0
H283 H 0.50072 0.91254 0.75002 0.0
H284 H 0.5008 0.8673 0.77266 0.0
H285 H 0.43004 0.89334 0.8116 0.0
H286 H 0.42857 0.93797 0.78857 0.0
H287 H 0.43209 0.80705 0.80972 0.0
H288 H 0.50185 0.94885 0.8297 0.0
H289 H 0.53532 1.01845 0.82165 0.0
H290 H 0.61971 1.00139 0.78974 0.0
H291 H 0.58648 0.93155 0.79749 0.0
C292 C 0.56147 0.78026 0.85778 0.0
C293 C 0.59081 0.784 0.84501 0.0
C294 C 0.54039 0.79973 0.85466 0.0
C295 C 0.54801 0.82269 0.83857 0.0
C296 C 0.57874 0.82811 0.82656 0.0
C297 C 0.59987 0.80905 0.82973 0.0
C298 C 0.52244 0.83843 0.83258 0.0
C299 C 0.54072 0.87852 0.82908 0.0
C300 C 0.48191 0.8131 0.82684 0.0
C301 C 0.46008 0.77171 0.83197 0.0
C302 C 0.46756 0.74308 0.823 0.0
C303 C 0.4492 0.70493 0.82934 0.0
C304 C 0.42335 0.69525 0.8446 0.0
C305 C 0.41505 0.72333 0.85321 0.0
C306 C 0.43315 0.7614 0.84686 0.0
C307 C 0.48299 0.90686 0.76271 0.0
C308 C 0.46562 0.92971 0.7678 0.0
C309 C 0.48314 0.88096 0.77571 0.0
C310 C 0.4661 0.87775 0.79391 0.0
C311 C 0.4434 0.89558 0.79762 0.0
C312 C 0.44289 0.92128 0.7845 0.0
C313 C 0.482 0.86621 0.81029 0.0
C314 C 0.46213 0.82716 0.81549 0.0
C315 C 0.5207 0.89282 0.81827 0.0
C316 C 0.54167 0.93506 0.81413 0.0
C317 C 0.52755 0.95999 0.82097 0.0
C318 C 0.5465 0.99946 0.8165 0.0
C319 C 0.57964 1.01434 0.80522 0.0
C320 C 0.59404 0.98982 0.79849 0.0
C321 C 0.57525 0.95033 0.80297 0.0
H322 H 0.59414 0.04485 0.8017 0.0
H323 H 0.40994 0.66615 0.84991 0.0
H324 H 0.83515 0.56708 0.18174 0.0
H325 H 0.76751 0.51282 0.17617 0.0
H326 H 0.80697 0.42862 0.1804 0.0
H327 H 0.87499 0.48307 0.18519 0.0
H328 H 0.77161 0.41547 0.14705 0.0
H329 H 0.73045 0.42129 0.20926 0.0
H330 H 0.72479 0.44854 0.24179 0.0
H331 H 0.67078 0.50674 0.2146 0.0
H332 H 0.67665 0.48046 0.18188 0.0
H333 H 0.55994 0.38189 0.11489 0.0
H334 H 0.5988 0.36581 0.13691 0.0
H335 H 0.7039 0.44257 0.10758 0.0
H336 H 0.66548 0.45857 0.08575 0.0
H337 H 0.64975 0.41771 0.16243 0.0
H338 H 0.7752 0.42588 0.11244 0.0
H339 H 0.77905 0.39342 0.08115 0.0
H340 H 0.66112 0.29713 0.08605 0.0
H341 H 0.6567 0.32859 0.11759 0.0
C342 C 0.82928 0.53704 0.18211 0.0
C343 C 0.86044 0.52935 0.18352 0.0
C344 C 0.79043 0.50588 0.17919 0.0
C345 C 0.78199 0.46642 0.17779 0.0
C346 C 0.8127 0.45874 0.18139 0.0
C347 C 0.85163 0.48998 0.18425 0.0
C348 C 0.74367 0.43521 0.16821 0.0
C349 C 0.74466 0.4152 0.15058 0.0
C350 C 0.70775 0.43258 0.17339 0.0
C351 C 0.70386 0.44865 0.19304 0.0
C352 C 0.7175 0.44002 0.21018 0.0
C353 C 0.71425 0.45532 0.22868 0.0
C354 C 0.69737 0.4793 0.23026 0.0
C355 C 0.68371 0.48804 0.21335 0.0
C356 C 0.68688 0.47282 0.19481 0.0
C357 C 0.59119 0.39438 0.11282 0.0
C358 C 0.60983 0.42196 0.09879 0.0
C359 C 0.61328 0.38501 0.12535 0.0
C360 C 0.65428 0.40288 0.12395 0.0
C361 C 0.6722 0.42764 0.10876 0.0
C362 C 0.65017 0.43696 0.09625 0.0
C363 C 0.67971 0.4028 0.14026 0.0
C364 C 0.67608 0.41647 0.15922 0.0
C365 C 0.71287 0.39876 0.13649 0.0
C366 C 0.71564 0.37964 0.1175 0.0
C367 C 0.75019 0.39758 0.10701 0.0
C368 C 0.75244 0.3794 0.08916 0.0
C369 C 0.72036 0.34324 0.08162 0.0
C370 C 0.68594 0.32517 0.0919 0.0
C371 C 0.68353 0.3432 0.10976 0.0
H372 H 0.72217 0.32923 0.06779 0.0
H373 H 0.69491 0.49114 0.2446 0.0
H374 H 0.29804 0.9001 0.49007 0.0
H375 H 0.23026 0.84633 0.48506 0.0
H376 H 0.26591 0.76341 0.50062 0.0
H377 H 0.33462 0.81764 0.5054 0.0
H378 H 0.22632 0.73902 0.46738 0.0
H379 H 0.20137 0.7806 0.52885 0.0
H380 H 0.20304 0.82609 0.55599 0.0
H381 H 0.13822 0.86103 0.51907 0.0
H382 H 0.13664 0.81621 0.49158 0.0
H383 H 1.02192 0.58957 0.45021 0.0
H384 H 0.08407 0.63522 0.46892 0.0
H385 H 0.09013 0.73272 0.44018 0.0
H386 H 1.02798 0.68682 0.42107 0.0
H387 H 0.10547 0.74144 0.48536 0.0
H388 H 0.14405 0.70619 0.42267 0.0
H389 H 0.1423 0.65821 0.39694 0.0
H390 H 0.18013 0.60689 0.4398 0.0
H391 H 0.1819 0.65454 0.46585 0.0
C392 C 0.29138 0.87067 0.4931 0.0
C393 C 0.32166 0.86307 0.49813 0.0
C394 C 0.25246 0.83985 0.49026 0.0
C395 C 0.24283 0.80081 0.49265 0.0
C396 C 0.27268 0.79334 0.49872 0.0
C397 C 0.31186 0.82425 0.50141 0.0
C398 C 0.20285 0.76787 0.48611 0.0
C399 C 0.19988 0.73906 0.47176 0.0
C400 C 0.16825 0.76798 0.49162 0.0
C401 C 0.16908 0.79512 0.50809 0.0
C402 C 0.18772 0.79819 0.52645 0.0
C403 C 0.18861 0.82384 0.54191 0.0
C404 C 0.17079 0.84647 0.53925 0.0
C405 C 0.152 0.84347 0.52111 0.0
C406 C 0.15104 0.81788 0.50559 0.0
C407 C 1.03637 0.62083 0.44804 0.0
C408 C 1.02029 0.63495 0.43436 0.0
C409 C 0.07174 0.64672 0.45868 0.0
C410 C 0.09129 0.68713 0.45594 0.0
C411 C 0.07507 0.70152 0.44252 0.0
C412 C 0.03991 0.67545 0.43159 0.0
C413 C 0.12972 0.71406 0.46641 0.0
C414 C 0.1321 0.74134 0.48143 0.0
C415 C 0.1637 0.71215 0.46185 0.0
C416 C 0.16261 0.68354 0.44622 0.0
C417 C 0.15161 0.68442 0.42664 0.0
C418 C 0.1507 0.65735 0.41198 0.0
C419 C 0.16086 0.62935 0.41673 0.0
C420 C 0.17216 0.62851 0.43615 0.0
C421 C 0.17319 0.65558 0.45086 0.0
H422 H 0.16012 0.60842 0.40535 0.0
H423 H 0.17151 0.86631 0.55124 0.0
H424 H 0.6356 0.37258 0.85803 0.0
H425 H 0.65138 0.31978 0.85886 0.0
H426 H 0.52753 0.23267 0.85012 0.0
H427 H 0.51165 0.28463 0.84885 0.0
H428 H 0.57481 0.2043 0.869 0.0
H429 H 0.57065 0.27136 0.80703 0.0
H430 H 0.59609 0.33529 0.79251 0.0
H431 H 0.71484 0.36689 0.80975 0.0
H432 H 0.68993 0.30305 0.82434 0.0
H433 H 0.4815 0.05921 0.79444 0.0
H434 H 0.51195 0.11568 0.81899 0.0
H435 H 0.62546 0.1547 0.79463 0.0
H436 H 0.59453 0.09848 0.76955 0.0
H437 H 0.61514 0.21376 0.80006 0.0
H438 H 0.60733 0.12095 0.84189 0.0
H439 H 0.57935 0.05734 0.85675 0.0
H440 H 0.48779 0.07449 0.88033 0.0
H441 H 0.51483 0.13797 0.86542 0.0
C442 C 0.61166 0.34216 0.85696 0.0
C443 C 0.57252 0.33282 0.85266 0.0
C444 C 0.62071 0.31206 0.8577 0.0
C445 C 0.59066 0.27241 0.8541 0.0
C446 C 0.55117 0.26313 0.85292 0.0
C447 C 0.54212 0.29308 0.8521 0.0
C448 C 0.59938 0.24228 0.84556 0.0
C449 C 0.58454 0.20629 0.85412 0.0
C450 C 0.61337 0.2455 0.82641 0.0
C451 C 0.62855 0.28258 0.81661 0.0
C452 C 0.6022 0.29184 0.80749 0.0
C453 C 0.61649 0.32804 0.79933 0.0
C454 C 0.65707 0.35509 0.80016 0.0
C455 C 0.68344 0.34586 0.80906 0.0
C456 C 0.66928 0.30965 0.81723 0.0
C457 C 0.51297 0.07979 0.79441 0.0
C458 C 0.53566 0.07483 0.78007 0.0
C459 C 0.53051 0.11174 0.8086 0.0
C460 C 0.57127 0.13893 0.80902 0.0
C461 C 0.59407 0.13391 0.79472 0.0
C462 C 0.57636 0.10211 0.78031 0.0
C463 C 0.58854 0.17468 0.82308 0.0
C464 C 0.60788 0.21172 0.81538 0.0
C465 C 0.57951 0.17235 0.84315 0.0
C466 C 0.56326 0.13442 0.85254 0.0
C467 C 0.58117 0.11117 0.85021 0.0
C468 C 0.56546 0.0751 0.85864 0.0
C469 C 0.53182 0.06188 0.86948 0.0
C470 C 0.5139 0.08481 0.87196 0.0
C471 C 0.52951 0.12094 0.86358 0.0
H472 H 0.51963 0.03388 0.87595 0.0
H473 H 0.66806 0.38322 0.79395 0.0
H474 H 0.65345 0.95796 0.49503 0.0
H475 H 0.65374 0.89674 0.50032 0.0
H476 H 0.52737 0.83415 0.50182 0.0
H477 H 0.5271 0.89558 0.49632 0.0
H478 H 0.54828 0.79883 0.52721 0.0
H479 H 0.59135 0.82386 0.46166 0.0
H480 H 0.63345 0.86213 0.43563 0.0
H481 H 0.7352 0.87243 0.46618 0.0
H482 H 0.69375 0.8346 0.49252 0.0
H483 H 0.52968 0.60417 0.52994 0.0
H484 H 0.52828 0.66358 0.5223 0.0
H485 H 0.65157 0.72084 0.51101 0.0
H486 H 0.65221 0.66013 0.51787 0.0
H487 H 0.63254 0.75961 0.49047 0.0
H488 H 0.59301 0.7385 0.55642 0.0
H489 H 0.55355 0.7028 0.58375 0.0
H490 H 0.44886 0.68841 0.55444 0.0
H491 H 0.48766 0.72366 0.52683 0.0
C492 C 0.62527 0.93141 0.49629 0.0
C493 C 0.59024 0.93408 0.49486 0.0
C494 C 0.62541 0.8951 0.49932 0.0
C495 C 0.59052 0.8578 0.50144 0.0
C496 C 0.5555 0.86062 0.50034 0.0
C497 C 0.55531 0.89687 0.49701 0.0
C498 C 0.59055 0.81725 0.50487 0.0
C499 C 0.56658 0.79062 0.51876 0.0
C500 C 0.61456 0.80403 0.4949 0.0
C501 C 0.63952 0.82676 0.47915 0.0
C502 C 0.62275 0.83453 0.46289 0.0
C503 C 0.64648 0.8561 0.44807 0.0
C504 C 0.68699 0.8698 0.44927 0.0
C505 C 0.70383 0.86186 0.46528 0.0
C506 C 0.68023 0.84034 0.48015 0.0
C507 C 0.55664 0.62877 0.52535 0.0
C508 C 0.59063 0.62441 0.52403 0.0
C509 C 0.55616 0.66445 0.52133 0.0
C510 C 0.5901 0.70023 0.5163 0.0
C511 C 0.6241 0.69569 0.51471 0.0
C512 C 0.62445 0.65968 0.51856 0.0
C513 C 0.59016 0.74094 0.51284 0.0
C514 C 0.61416 0.76766 0.49894 0.0
C515 C 0.56659 0.75457 0.52301 0.0
C516 C 0.54314 0.73329 0.53947 0.0
C517 C 0.56153 0.7275 0.55576 0.0
C518 C 0.53929 0.70738 0.5713 0.0
C519 C 0.4987 0.69324 0.5708 0.0
C520 C 0.48029 0.6993 0.55479 0.0
C521 C 0.50238 0.71935 0.53919 0.0
H522 H 0.48154 0.67767 0.58285 0.0
H523 H 0.70531 0.88648 0.43778 0.0
H524 H 0.68178 0.49415 0.82197 0.0
H525 H 0.74338 0.49317 0.82704 0.0
H526 H 0.80667 0.61919 0.84048 0.0
H527 H 0.74494 0.62013 0.83506 0.0
H528 H 0.86043 0.60962 0.82526 0.0
H529 H 0.78067 0.53089 0.87591 0.0
H530 H 0.72208 0.47593 0.88919 0.0
H531 H 0.73611 0.39194 0.85188 0.0
H532 H 0.79476 0.44646 0.83833 0.0
H533 H 0.043 0.6208 0.8628 0.0
H534 H 0.98153 0.62076 0.85565 0.0
H535 H 0.91941 0.49412 0.84533 0.0
H536 H 0.98127 0.49445 0.85297 0.0
H537 H 0.86457 0.50298 0.85819 0.0
H538 H 0.9432 0.57828 0.80776 0.0
H539 H 1.00055 0.63119 0.7927 0.0
H540 H 0.98706 0.71913 0.82678 0.0
H541 H 0.92985 0.6667 0.84222 0.0
C542 C 0.7085 0.52206 0.82604 0.0
C543 C 0.70594 0.55724 0.82792 0.0
C544 C 0.74497 0.52148 0.82927 0.0
C545 C 0.78257 0.55602 0.83483 0.0
C546 C 0.78001 0.59126 0.83641 0.0
C547 C 0.74349 0.59182 0.83325 0.0
C548 C 0.82341 0.55573 0.83868 0.0
C549 C 0.86059 0.58623 0.8328 0.0
C550 C 0.82697 0.5255 0.84795 0.0
C551 C 0.7919 0.49273 0.85604 0.0
C552 C 0.77116 0.5007 0.8705 0.0
C553 C 0.73799 0.46964 0.87809 0.0
C554 C 0.72543 0.43049 0.87139 0.0
C555 C 0.74595 0.42229 0.85707 0.0
C556 C 0.7792 0.45325 0.84946 0.0
C557 C 1.01687 0.5927 0.85827 0.0
C558 C 1.02004 0.55787 0.85758 0.0
C559 C 0.98031 0.59257 0.85411 0.0
C560 C 0.94289 0.55746 0.84908 0.0
C561 C 0.94596 0.5225 0.84872 0.0
C562 C 0.98264 0.52269 0.85286 0.0
C563 C 0.90177 0.55712 0.84492 0.0
C564 C 0.86452 0.52649 0.85072 0.0
C565 C 0.89804 0.58698 0.83535 0.0
C566 C 0.93257 0.61859 0.82631 0.0
C567 C 0.95267 0.60892 0.81215 0.0
C568 C 0.9851 0.63881 0.80353 0.0
C569 C 0.99752 0.6785 0.80883 0.0
C570 C 0.97746 0.68837 0.82273 0.0
C571 C 0.94502 0.65858 0.83142 0.0
H572 H 1.02262 0.70161 0.80212 0.0
H573 H 0.69989 0.4065 0.87737 0.0
H574 H 0.23107 0.65546 0.17247 0.0
H575 H 0.29461 0.71763 0.17744 0.0
H576 H 0.23851 0.7822 0.16079 0.0
H577 H 0.17489 0.71973 0.15558 0.0
H578 H 0.30817 0.8251 0.14864 0.0
H579 H 0.28175 0.77928 0.21329 0.0
H580 H 0.26709 0.73236 0.23863 0.0
H581 H 0.37236 0.72869 0.22665 0.0
H582 H 0.38741 0.77529 0.20109 0.0
H583 H 0.48317 1.02043 0.17998 0.0
H584 H 0.41938 0.95895 0.17295 0.0
H585 H 0.46842 0.89269 0.19634 0.0
H586 H 0.53131 0.95424 0.20399 0.0
H587 H 0.40131 0.85054 0.20489 0.0
H588 H 0.42774 0.8942 0.13987 0.0
H589 H 0.44266 0.93975 0.11381 0.0
H590 H 0.33876 0.94624 0.12546 0.0
H591 H 0.32344 0.90101 0.15173 0.0
C592 C 0.23156 0.68261 0.16984 0.0
C593 C 0.19545 0.68026 0.16351 0.0
C594 C 0.26906 0.71946 0.17295 0.0
C595 C 0.27409 0.7576 0.17013 0.0
C596 C 0.23804 0.75508 0.16346 0.0
C597 C 0.20047 0.71822 0.16042 0.0
C598 C 0.31561 0.79884 0.17388 0.0
C599 C 0.32786 0.83016 0.16121 0.0
C600 C 0.34436 0.80831 0.18982 0.0
C601 C 0.33548 0.78044 0.20516 0.0
C602 C 0.30164 0.76828 0.21599 0.0
C603 C 0.29328 0.74177 0.2304 0.0
C604 C 0.31872 0.72747 0.23421 0.0
C605 C 0.35264 0.73974 0.22366 0.0
C606 C 0.36112 0.76622 0.20922 0.0
C607 C 0.48129 0.99287 0.18312 0.0
C608 C 0.51528 0.99443 0.1921 0.0
C609 C 0.44351 0.95637 0.17903 0.0
C610 C 0.4362 0.91793 0.18342 0.0
C611 C 0.47039 0.91983 0.19233 0.0
C612 C 0.50781 0.95617 0.19656 0.0
C613 C 0.39428 0.87695 0.17955 0.0
C614 C 0.38184 0.84561 0.19225 0.0
C615 C 0.36555 0.86735 0.16353 0.0
C616 C 0.37472 0.89463 0.1479 0.0
C617 C 0.40822 0.90555 0.13695 0.0
C618 C 0.41673 0.93127 0.12213 0.0
C619 C 0.39175 0.94598 0.11803 0.0
C620 C 0.35814 0.9349 0.12869 0.0
C621 C 0.34951 0.90922 0.14353 0.0
H622 H 0.39838 0.96588 0.10655 0.0
H623 H 0.3122 0.70694 0.24536 0.0
H624 H 0.65838 0.20664 0.49711 0.0
H625 H 0.65898 0.26954 0.50175 0.0
H626 H 0.53233 0.20603 0.5019 0.0
H627 H 0.5318 0.14306 0.49679 0.0
H628 H 0.54392 0.26873 0.48761 0.0
H629 H 0.61568 0.26756 0.54476 0.0
H630 H 0.6685 0.26597 0.56406 0.0
H631 H 0.75556 0.37144 0.53956 0.0
H632 H 0.70345 0.37271 0.51966 0.0
H633 H 0.53034 0.44314 0.52254 0.0
H634 H 0.53016 0.38084 0.51596 0.0
H635 H 0.65696 0.4451 0.5178 0.0
H636 H 0.65681 0.50742 0.52491 0.0
H637 H 0.64556 0.38224 0.5307 0.0
H638 H 0.57606 0.38166 0.47231 0.0
H639 H 0.52452 0.38454 0.4525 0.0
H640 H 0.43454 0.28458 0.47944 0.0
H641 H 0.48556 0.28138 0.49956 0.0
C642 C 0.63025 0.20535 0.49813 0.0
C643 C 0.59503 0.16731 0.49643 0.0
C644 C 0.63058 0.24258 0.50109 0.0
C645 C 0.59571 0.24552 0.50285 0.0
C646 C 0.56048 0.2074 0.50087 0.0
C647 C 0.56016 0.17016 0.49791 0.0
C648 C 0.59567 0.28681 0.50646 0.0
C649 C 0.56627 0.29291 0.49735 0.0
C650 C 0.62441 0.3213 0.51871 0.0
C651 C 0.65572 0.31987 0.53042 0.0
C652 C 0.64615 0.29006 0.54327 0.0
C653 C 0.676 0.28915 0.55432 0.0
C654 C 0.71545 0.31832 0.55291 0.0
C655 C 0.72512 0.34848 0.54048 0.0
C656 C 0.69545 0.34924 0.52926 0.0
C657 C 0.55851 0.4448 0.52084 0.0
C658 C 0.59351 0.48293 0.52337 0.0
C659 C 0.55849 0.40789 0.51702 0.0
C660 C 0.59358 0.40528 0.51555 0.0
C661 C 0.62864 0.44347 0.51838 0.0
C662 C 0.62859 0.48039 0.52222 0.0
C663 C 0.59389 0.36412 0.51185 0.0
C664 C 0.62328 0.35804 0.52095 0.0
C665 C 0.56528 0.32969 0.49956 0.0
C666 C 0.53458 0.33156 0.48758 0.0
C667 C 0.54526 0.36046 0.47409 0.0
C668 C 0.51615 0.36212 0.4628 0.0
C669 C 0.47628 0.33484 0.46476 0.0
C670 C 0.46543 0.30575 0.47797 0.0
C671 C 0.49443 0.30397 0.48931 0.0
H672 H 0.45379 0.33617 0.456 0.0
H673 H 0.73849 0.31772 0.56156 0.0
H674 H 0.43635 0.4944 0.82422 0.0
H675 H 0.37409 0.49343 0.82885 0.0
H676 H 0.43765 0.62013 0.83908 0.0
H677 H 0.49994 0.6211 0.83346 0.0
H678 H 0.37393 0.61115 0.82666 0.0
H679 H 0.27584 0.44679 0.83939 0.0
H680 H 0.2806 0.39283 0.85347 0.0
H681 H 0.38191 0.47793 0.89008 0.0
H682 H 0.37751 0.53234 0.87635 0.0
H683 H 0.1752 0.58957 0.83502 0.0
H684 H 0.23618 0.58971 0.82646 0.0
H685 H 0.22574 0.52238 0.87555 0.0
H686 H 0.1645 0.51986 0.88307 0.0
H687 H 0.26389 0.50245 0.85806 0.0
H688 H 0.30409 0.63861 0.86307 0.0
H689 H 0.30853 0.70175 0.85648 0.0
H690 H 0.33472 0.68757 0.79669 0.0
H691 H 0.32957 0.62389 0.80279 0.0
C692 C 0.43779 0.52248 0.82746 0.0
C693 C 0.47564 0.55781 0.82831 0.0
C694 C 0.40091 0.52194 0.83048 0.0
C695 C 0.3981 0.55665 0.83509 0.0
C696 C 0.43605 0.59205 0.83571 0.0
C697 C 0.47296 0.59263 0.83247 0.0
C698 C 0.3571 0.55625 0.83902 0.0
C699 C 0.35032 0.58712 0.83368 0.0
C700 C 0.32382 0.52602 0.84835 0.0
C701 C 0.3266 0.49357 0.85667 0.0
C702 C 0.29907 0.45394 0.85047 0.0
C703 C 0.30172 0.4233 0.85838 0.0
C704 C 0.33163 0.43195 0.8726 0.0
C705 C 0.35886 0.47127 0.87901 0.0
C706 C 0.35632 0.50202 0.87116 0.0
C707 C 0.18517 0.5742 0.84403 0.0
C708 C 0.1624 0.55516 0.86028 0.0
C709 C 0.22181 0.57491 0.83924 0.0
C710 C 0.23947 0.55705 0.85035 0.0
C711 C 0.21583 0.53718 0.86612 0.0
C712 C 0.17946 0.53616 0.87073 0.0
C713 C 0.2806 0.55784 0.84598 0.0
C714 C 0.2874 0.52684 0.85118 0.0
C715 C 0.31457 0.58894 0.83736 0.0
C716 C 0.31568 0.62609 0.8333 0.0
C717 C 0.31014 0.64863 0.84843 0.0
C718 C 0.31285 0.68455 0.84479 0.0
C719 C 0.3217 0.69856 0.82615 0.0
C720 C 0.32769 0.67659 0.81109 0.0
C721 C 0.32475 0.64051 0.81462 0.0
H722 H 0.32409 0.72652 0.8234 0.0
H723 H 0.33364 0.40819 0.8787 0.0
H724 H 0.98069 0.40912 0.15134 0.0
H725 H 0.91948 0.34776 0.15684 0.0
H726 H 0.87082 0.41576 0.18235 0.0
H727 H 0.93235 0.47744 0.17669 0.0
H728 H 0.8398 0.35345 0.20245 0.0
H729 H 0.83936 0.35066 0.13221 0.0
H730 H 0.86539 0.35181 0.09945 0.0
H731 H 0.87517 0.25029 0.11009 0.0
H732 H 0.84956 0.24879 0.14301 0.0
H733 H 0.64349 0.18291 0.21018 0.0
H734 H 0.70218 0.24388 0.2025 0.0
H735 H 0.74281 0.17574 0.16926 0.0
H736 H 0.68229 0.11424 0.17625 0.0
H737 H 0.77862 0.23846 0.15285 0.0
H738 H 0.78093 0.24137 0.22313 0.0
H739 H 0.75728 0.24076 0.25647 0.0
H740 H 0.74726 0.34253 0.24683 0.0
H741 H 0.77036 0.34343 0.21335 0.0
C742 C 0.95717 0.41175 0.15799 0.0
C743 C 0.96356 0.45055 0.16312 0.0
C744 C 0.92085 0.37546 0.16114 0.0
C745 C 0.88741 0.37432 0.16993 0.0
C746 C 0.89413 0.41319 0.17544 0.0
C747 C 0.93031 0.44957 0.17201 0.0
C748 C 0.84692 0.3339 0.17352 0.0
C749 C 0.82669 0.32892 0.19124 0.0
C750 C 0.82755 0.29907 0.15985 0.0
C751 C 0.84294 0.29987 0.14014 0.0
C752 C 0.84731 0.32875 0.12761 0.0
C753 C 0.86194 0.32943 0.109 0.0
C754 C 0.87204 0.30121 0.10271 0.0
C755 C 0.8674 0.27217 0.11499 0.0
C756 C 0.8528 0.27137 0.13362 0.0
C757 C 0.66419 0.1802 0.20085 0.0
C758 C 0.65526 0.14135 0.19368 0.0
C759 C 0.69955 0.21634 0.19669 0.0
C760 C 0.73066 0.21747 0.18554 0.0
C761 C 0.72142 0.17853 0.17798 0.0
C762 C 0.68551 0.14216 0.18193 0.0
C763 C 0.77131 0.25791 0.18189 0.0
C764 C 0.79163 0.26294 0.16412 0.0
C765 C 0.79104 0.29276 0.19563 0.0
C766 C 0.77686 0.29213 0.21565 0.0
C767 C 0.77341 0.26344 0.22808 0.0
C768 C 0.76014 0.26306 0.247 0.0
C769 C 0.75064 0.2915 0.25374 0.0
C770 C 0.75451 0.32045 0.24158 0.0
C771 C 0.76767 0.3209 0.22262 0.0
H772 H 0.74039 0.29116 0.26839 0.0
H773 H 0.88336 0.30179 0.0883 0.0
H774 H 0.11173 0.52614 0.09055 0.0
H775 H 0.11307 0.52463 0.05458 0.0
H776 H 0.06128 0.59883 0.05428 0.0
H777 H 0.05913 0.59974 0.09009 0.0
H778 H 1.02809 0.54638 0.02485 0.0
H779 H 0.16421 0.63189 0.04618 0.0
H780 H 0.22729 0.65101 0.06401 0.0
H781 H 0.2313 0.55496 0.03241 0.0
H782 H 0.16795 0.53495 0.01457 0.0
H783 H 0.06555 0.59795 0.9254 0.0
H784 H 0.06465 0.59836 0.96124 0.0
H785 H 0.11428 0.52222 0.96016 0.0
H786 H 0.1151 0.52151 0.92429 0.0
H787 H 0.14849 0.57478 0.99019 0.0
H788 H 1.01257 0.48977 0.96864 0.0
H789 H 0.94962 0.47096 0.95077 0.0
H790 H 0.94537 0.56646 0.98282 0.0
H791 H 1.00859 0.58617 0.0007 0.0
C792 C 0.10069 0.54229 0.0829 0.0
C793 C 0.08545 0.56319 0.09362 0.0
C794 C 0.10167 0.5416 0.06213 0.0
C795 C 0.08778 0.56208 0.05122 0.0
C796 C 0.07229 0.58267 0.06194 0.0
C797 C 0.07122 0.5833 0.08266 0.0
C798 C 0.08889 0.56185 0.02883 0.0
C799 C 0.05473 0.55317 0.01741 0.0
C800 C 0.12304 0.56968 0.01854 0.0
C801 C 0.16114 0.58168 0.0292 0.0
C802 C 0.17841 0.61468 0.04314 0.0
C803 C 0.21423 0.6257 0.05323 0.0
C804 C 0.23323 0.60415 0.04938 0.0
C805 C 0.21651 0.57159 0.0354 0.0
C806 C 0.18066 0.56041 0.02528 0.0
C807 C 0.07591 0.58082 0.93263 0.0
C808 C 0.09027 0.55956 0.92144 0.0
C809 C 0.0754 0.5811 0.95337 0.0
C810 C 0.08888 0.55986 0.96388 0.0
C811 C 0.10367 0.53902 0.95279 0.0
C812 C 0.10424 0.53876 0.93205 0.0
C813 C 0.08774 0.55946 0.98625 0.0
C814 C 0.12187 0.56799 -0.00235 0.0
C815 C 0.05357 0.55153 -0.00347 0.0
C816 C 1.01551 0.53968 0.98586 0.0
C817 C 0.99835 0.50693 0.97177 0.0
C818 C 0.9626 0.49608 0.96166 0.0
C819 C 0.94356 0.51756 0.96562 0.0
C820 C 0.96018 0.54988 0.97975 0.0
C821 C 0.99596 0.56089 0.98989 0.0
H822 H 0.91589 0.50912 0.95777 0.0
H823 H 0.26096 0.61273 0.05721 0.0
H824 H 0.53884 0.03621 0.42084 0.0
H825 H 0.54085 0.0402 0.38533 0.0
H826 H 0.66509 0.07946 0.38883 0.0
H827 H 0.66335 0.07589 0.42474 0.0
H828 H 0.65131 0.12122 0.36298 0.0
H829 H 0.59357 0.98307 0.37075 0.0
H830 H 0.54682 0.91896 0.38307 0.0
H831 H 0.44972 0.9217 0.3548 0.0
H832 H 0.49587 0.98611 0.34254 0.0
H833 H 0.65853 0.09402 0.25783 0.0
H834 H 0.6626 0.09226 0.29359 0.0
H835 H 0.53693 0.04446 0.29476 0.0
H836 H 0.53269 0.04588 0.25909 0.0
H837 H 0.55461 1.00659 0.31839 0.0
H838 H 0.61169 0.1455 0.31142 0.0
H839 H 0.65813 0.20938 0.29878 0.0
H840 H 0.75599 0.20546 0.32529 0.0
H841 H 0.71013 0.14124 0.33786 0.0
C842 C 0.56676 0.04564 0.41421 0.0
C843 C 0.60089 0.05547 0.42603 0.0
C844 C 0.56782 0.04777 0.39366 0.0
C845 C 0.603 0.05964 0.38393 0.0
C846 C 0.63737 0.07006 0.39568 0.0
C847 C 0.63631 0.06782 0.41635 0.0
C848 C 0.60348 0.06091 0.36165 0.0
C849 C 0.63049 0.09586 0.35327 0.0
C850 C 0.57599 0.02839 0.34859 0.0
C851 C 0.54816 0.9896 0.35588 0.0
C852 C 0.56222 0.97014 0.36728 0.0
C853 C 0.53584 0.93373 0.37423 0.0
C854 C 0.49532 0.91632 0.36976 0.0
C855 C 0.48111 0.93524 0.35828 0.0
C856 C 0.50737 0.97169 0.3513 0.0
C857 C 0.63172 0.08353 0.26565 0.0
C858 C 0.59523 0.07006 0.25517 0.0
C859 C 0.63409 0.08254 0.28631 0.0
C860 C 0.60015 0.06857 0.29739 0.0
C861 C 0.56377 0.05525 0.28692 0.0
C862 C 0.56135 0.05603 0.2663 0.0
C863 C 0.6021 0.06707 0.31965 0.0
C864 C 0.57551 0.03199 0.32805 0.0
C865 C 0.62991 0.09951 0.33269 0.0
C866 C 0.6575 0.13837 0.3254 0.0
C867 C 0.64313 0.15815 0.31445 0.0
C868 C 0.66934 0.19442 0.30731 0.0
C869 C 0.70999 0.21141 0.31118 0.0
C870 C 0.7245 0.19223 0.32227 0.0
C871 C 0.69841 0.15591 0.32942 0.0
H872 H 0.73024 0.23946 0.3056 0.0
H873 H 0.47493 0.88812 0.37516 0.0
H874 H 0.63829 0.62376 0.75841 0.0
H875 H 0.63864 0.62529 0.72249 0.0
H876 H 0.54806 0.50219 0.71591 0.0
H877 H 0.54695 0.5008 0.75164 0.0
H878 H 0.65612 0.5933 0.69317 0.0
H879 H 0.49106 0.47795 0.6739 0.0
H880 H 0.42643 0.45409 0.68833 0.0
H881 H 0.47166 0.56527 0.72269 0.0
H882 H 0.53638 0.58996 0.70829 0.0
H883 H 0.63243 0.53603 0.5901 0.0
H884 H 0.63199 0.53772 0.62592 0.0
H885 H 0.55605 0.58751 0.6254 0.0
H886 H 0.55485 0.5842 0.58942 0.0
H887 H 0.53173 0.53793 0.65185 0.0
H888 H 0.66003 0.6431 0.64 0.0
H889 H 0.72534 0.67509 0.62582 0.0
H890 H 0.75472 0.5978 0.65409 0.0
H891 H 0.68935 0.565 0.66824 0.0
C892 C 0.61828 0.59698 0.74937 0.0
C893 C 0.5924 0.56223 0.75827 0.0
C894 C 0.61859 0.59784 0.72865 0.0
C895 C 0.59296 0.56404 0.71601 0.0
C896 C 0.5676 0.52916 0.72494 0.0
C897 C 0.56716 0.52834 0.7456 0.0
C898 C 0.59285 0.56508 0.69369 0.0
C899 C 0.62877 0.58102 0.68424 0.0
C900 C 0.55758 0.55006 0.68156 0.0
C901 C 0.51867 0.53562 0.69016 0.0
C902 C 0.48716 0.49735 0.68448 0.0
C903 C 0.45052 0.48367 0.69267 0.0
C904 C 0.44499 0.5081 0.70646 0.0
C905 C 0.47603 0.54632 0.71206 0.0
C906 C 0.51271 0.56015 0.7039 0.0
C907 C 0.6152 0.54703 0.59745 0.0
C908 C 0.59366 0.55994 0.58638 0.0
C909 C 0.61542 0.54849 0.6182 0.0
C910 C 0.59446 0.56332 0.62887 0.0
C911 C 0.5727 0.57599 0.61788 0.0
C912 C 0.57239 0.57446 0.5971 0.0
C913 C 0.59492 0.56525 0.6513 0.0
C914 C 0.55906 0.54997 0.66077 0.0
C915 C 0.63032 0.5817 0.66347 0.0
C916 C 0.66965 0.60135 0.65502 0.0
C917 C 0.68031 0.63274 0.64308 0.0
C918 C 0.71736 0.65105 0.63506 0.0
C919 C 0.74412 0.63842 0.63901 0.0
C920 C 0.73393 0.60752 0.65102 0.0
C921 C 0.6969 0.58908 0.65906 0.0
H922 H 0.77279 0.65263 0.6328 0.0
H923 H 0.41661 0.49745 0.71279 0.0
H924 H 0.52306 0.99316 0.54547 0.0
H925 H 0.5133 0.99059 0.58056 0.0
H926 H 0.62573 0.09784 0.59245 0.0
H927 H 0.63603 0.10067 0.55702 0.0
H928 H 0.61306 0.03823 0.61705 0.0
H929 H 0.54481 0.10319 0.59574 0.0
H930 H 0.4986 0.11141 0.57437 0.0
H931 H 0.40228 1.00154 0.59047 0.0
H932 H 0.44802 0.99236 0.61173 0.0
H933 H 0.57873 0.06331 0.71704 0.0
H934 H 0.5933 0.07274 0.6826 0.0
H935 H 0.47669 0.97539 0.66502 0.0
H936 H 0.461 0.96722 0.69957 0.0
H937 H 0.49419 0.03451 0.64341 0.0
H938 H 0.56083 0.96676 0.66297 0.0
H939 H 0.60594 0.95549 0.68354 0.0
H940 H 0.70376 0.06691 0.67012 0.0
H941 H 0.65912 0.07909 0.64968 0.0
C942 C 0.54584 1.01631 0.55547 0.0
C943 C 0.58032 0.04726 0.54844 0.0
C944 C 0.54008 1.01482 0.57555 0.0
C945 C 0.56855 0.04426 0.58906 0.0
C946 C 0.60335 0.07493 0.5822 0.0
C947 C 0.60913 0.07655 0.562 0.0
C948 C 0.5616 0.04245 0.61032 0.0
C949 C 0.5875 0.03816 0.62294 0.0
C950 C 0.52761 0.04123 0.61778 0.0
C951 C 0.49991 0.04696 0.60523 0.0
C952 C 0.51381 0.08065 0.59463 0.0
C953 C 0.4877 0.0855 0.58255 0.0
C954 C 0.44754 0.05698 0.58103 0.0
C955 C 0.4334 1.0236 0.59165 0.0
C956 C 0.4594 1.01859 0.60374 0.0
C957 C 0.55592 0.04417 0.70588 0.0
C958 C 0.51854 1.01464 0.7111 0.0
C959 C 0.56453 0.04928 0.68616 0.0
C960 C 0.53629 1.02446 0.6712 0.0
C961 C 0.49899 0.99484 0.67632 0.0
C962 C 0.49018 0.98995 0.69608 0.0
C963 C 0.54545 0.02985 0.65022 0.0
C964 C 0.51994 0.03484 0.63762 0.0
C965 C 0.57963 0.03135 0.64275 0.0
C966 C 0.60656 1.02401 0.65496 0.0
C967 C 0.59191 0.98899 0.66453 0.0
C968 C 0.6174 0.98242 0.67614 0.0
C969 C 0.65767 1.01052 0.67818 0.0
C970 C 0.67255 0.0452 0.66856 0.0
C971 C 0.64718 0.05194 0.65694 0.0
H972 H 0.67736 1.00538 0.68718 0.0
H973 H 0.42737 0.06077 0.57165 0.0
H974 H 0.60111 0.60607 0.89029 0.0
H975 H 0.6008 0.59586 0.9255 0.0
H976 H 0.58264 0.47904 0.91098 0.0
H977 H 0.58283 0.48876 0.87617 0.0
H978 H 0.53278 0.47957 0.93845 0.0
H979 H 0.67184 0.55231 0.92634 0.0
H980 H 0.73246 0.60887 0.91558 0.0
H981 H 0.72177 0.68711 0.95873 0.0
H982 H 0.66072 0.63103 0.96956 0.0
H983 H 0.57348 0.42462 0.0281 0.0
H984 H 0.57905 0.44269 0.99409 0.0
H985 H 0.60333 0.55951 0.01459 0.0
H986 H 0.59893 0.54203 0.04856 0.0
H987 H 0.64886 0.56267 0.98476 0.0
H988 H 0.51168 0.4904 -0.00214 0.0
H989 H 0.45063 0.43445 0.00866 0.0
H990 H 0.45666 0.3563 0.96364 0.0
H991 H 0.51812 0.41171 0.95274 0.0
C992 C 0.597 0.57825 0.89466 0.0
C993 C 0.59213 0.54832 0.88048 0.0
C994 C 0.59696 0.57252 0.91472 0.0
C995 C 0.59185 0.53674 0.92077 0.0
C996 C 0.58657 0.50681 0.90661 0.0
C997 C 0.58686 0.51256 0.88669 0.0
C998 C 0.59181 0.52984 0.94183 0.0
C999 C 0.55826 0.49754 0.94855 0.0
C1000 C 0.62473 0.5539 0.95505 0.0
C1001 C 0.66148 0.58758 0.9486 0.0
C1002 C 0.68223 0.58163 0.93341 0.0
C1003 C 0.7167 0.61359 0.92732 0.0
C1004 C 0.73089 0.65158 0.93642 0.0
C1005 C 0.7107 0.65767 0.95167 0.0
C1006 C 0.67617 0.62582 0.9578 0.0
C1007 C 0.58067 0.45432 0.02535 0.0
C1008 C 0.58523 0.48173 0.04093 0.0
C1009 C 0.58354 0.46453 0.00594 0.0
C1010 C 0.5909 0.50222 0.00184 0.0
C1011 C 0.59738 0.53021 0.01743 0.0
C1012 C 0.59452 0.52005 0.0368 0.0
C1013 C 0.59005 0.51192 0.98129 0.0
C1014 C 0.62331 0.54481 0.97469 0.0
C1015 C 0.55677 0.48849 0.96815 0.0
C1016 C 0.51971 0.45513 0.97461 0.0
C1017 C 0.50016 0.46122 0.99036 0.0
C1018 C 0.46546 0.42962 -0.00352 0.0
C1019 C 0.44983 0.39182 0.98687 0.0
C1020 C 0.46883 0.38558 0.97108 0.0
C1021 C 0.50358 0.41708 0.96492 0.0
H1022 H 0.42295 0.36739 0.99164 0.0
H1023 H 0.75759 0.67628 0.93169 0.0
H1024 H 0.04563 0.50048 0.21765 0.0
H1025 H 1.02179 0.49505 0.25096 0.0
H1026 H 0.04561 0.61522 0.25276 0.0
H1027 H 0.06974 0.62103 0.21979 0.0
H1028 H 0.07155 0.60066 0.28637 0.0
H1029 H 0.95266 0.53516 0.24277 0.0
H1030 H 0.90592 0.48415 0.21754 0.0
H1031 H 0.89058 0.39277 0.25386 0.0
H1032 H 0.93773 0.44303 0.27922 0.0
H1033 H 0.97102 0.62315 0.36388 0.0
H1034 H 0.98714 0.61542 0.33003 0.0
H1035 H 0.95408 0.49441 0.33737 0.0
H1036 H 0.93736 0.50188 0.37125 0.0
H1037 H 0.93377 0.50254 0.30015 0.0
H1038 H 0.04848 0.56384 0.34367 0.0
H1039 H 0.09473 0.61177 0.36992 0.0
H1040 H 0.11967 0.70741 0.33445 0.0
H1041 H 0.07295 0.65999 0.30809 0.0
C1042 C 0.04616 0.52585 0.22525 0.0
C1043 C 0.05967 0.56122 0.21609 0.0
C1044 C 1.03224 0.52259 0.2442 0.0
C1045 C 1.03155 0.55461 0.25424 0.0
C1046 C 0.04584 0.59013 0.24527 0.0
C1047 C 0.05965 0.5934 0.2264 0.0
C1048 C 1.0162 0.55175 0.27414 0.0
C1049 C 0.04132 0.57941 0.28932 0.0
C1050 C 0.97719 0.523 0.27818 0.0
C1051 C 0.94911 0.49288 0.26282 0.0
C1052 C 0.93967 0.50419 0.24531 0.0
C1053 C 0.91308 0.47545 0.231 0.0
C1054 C 0.89544 0.43538 0.23408 0.0
C1055 C 0.90435 0.42386 0.25148 0.0
C1056 C 0.93101 0.45244 0.26583 0.0
C1057 C 0.96651 0.5947 0.35814 0.0
C1058 C 0.95324 0.56322 0.3702 0.0
C1059 C 0.9758 0.59032 0.33884 0.0
C1060 C 0.97262 0.55459 0.33134 0.0
C1061 C 0.95688 0.52226 0.3429 0.0
C1062 C 0.94724 0.52653 0.36221 0.0
C1063 C 0.98878 0.55234 0.3121 0.0
C1064 C 0.96403 0.52363 0.29718 0.0
C1065 C 1.02834 0.57972 0.30829 0.0
C1066 C 0.05696 0.60837 0.32397 0.0
C1067 C 0.06363 0.59511 0.34152 0.0
C1068 C 0.08995 0.62221 0.35642 0.0
C1069 C 0.11009 0.66266 0.35388 0.0
C1070 C 0.10402 0.67607 0.3364 0.0
C1071 C 0.07763 0.64909 0.32147 0.0
H1072 H 0.13045 0.68363 0.36543 0.0
H1073 H 0.87474 0.4133 0.22302 0.0
loop_
_geom_bond_atom_site_label_1
_geom_bond_atom_site_label_2
_geom_bond_distance
_geom_bond_site_symmetry_2
_ccdc_geom_bond_type
Tb0 C9 2.764 1_455 S
Tb0 O10 2.325 1_455 S
Tb0 O13 2.303 . S
Tb0 O17 2.322 . S
Tb0 O18 2.349 . S
Tb0 O21 2.415 1_455 S
Tb0 O22 2.399 1_455 S
Tb1 O11 2.322 . S
Tb1 O12 2.349 . S
Tb1 O14 2.415 . S
Tb1 O15 2.399 . S
Tb1 O16 2.325 . S
Tb1 O19 2.303 . S
Tb1 C30 2.764 . S
C2 O18 1.261 . S
C2 O19 1.257 . S
C3 C6 1.358 . S
C3 C7 1.332 . S
C3 C9 1.504 . S
C4 C5 1.373 . S
C4 C8 1.308 . S
C5 C4 1.373 . S
C5 C6 1.429 . S
C5 H32 0.932 . S
C6 C3 1.358 . S
C6 C5 1.429 . S
C6 H33 0.930 . S
C7 C3 1.332 . S
C7 C8 1.394 . S
C7 H34 0.932 . S
C8 C4 1.308 . S
C8 C7 1.394 . S
C8 H35 0.929 . S
C9 Tb0 2.764 1_655 S
C9 C3 1.504 . S
C9 O21 1.239 . S
C9 O22 1.263 . S
O10 Tb0 2.325 1_655 S
O10 C20 1.236 . S
O11 Tb1 2.322 . S
O11 C20 1.257 1_455 S
O12 Tb1 2.349 . S
O12 C23 1.261 . S
O13 Tb0 2.303 . S
O13 C23 1.257 . S
O14 Tb1 2.415 . S
O14 C30 1.239 . S
O15 Tb1 2.399 . S
O15 C30 1.263 . S
O16 Tb1 2.325 . S
O16 C31 1.236 . S
O17 Tb0 2.322 . S
O17 C31 1.257 . S
O18 Tb0 2.349 . S
O18 C2 1.261 . S
O19 Tb1 2.303 . S
O19 C2 1.257 . S
C20 O10 1.236 . S
C20 O11 1.257 1_655 S
O21 Tb0 2.415 1_655 S
O21 C9 1.239 . S
O22 Tb0 2.399 1_655 S
O22 C9 1.263 . S
C23 O12 1.261 . S
C23 O13 1.257 . S
C24 C27 1.358 . S
C24 C28 1.332 . S
C24 C30 1.504 . S
C25 C26 1.373 . S
C25 C29 1.308 . S
C26 C25 1.373 . S
C26 C27 1.429 . S
C26 H36 0.932 . S
C27 C24 1.358 . S
C27 C26 1.429 . S
C27 H37 0.930 . S
C28 C24 1.332 . S
C28 C29 1.394 . S
C28 H38 0.932 . S
C29 C25 1.308 . S
C29 C28 1.394 . S
C29 H39 0.929 . S
C30 Tb1 2.764 . S
C30 O14 1.239 . S
C30 O15 1.263 . S
C30 C24 1.504 . S
C31 O16 1.236 . S
C31 O17 1.257 . S
H32 C5 0.932 . S
H33 C6 0.930 . S
H34 C7 0.932 . S
H35 C8 0.929 . S
H36 C26 0.932 . S
H37 C27 0.930 . S
H38 C28 0.932 . S
H39 C29 0.929 . S
Tb40 C49 2.764 . S
Tb40 O50 2.325 . S
Tb40 O53 2.303 1_565 S
Tb40 O57 2.322 1_565 S
Tb40 O58 2.349 1_565 S
Tb40 O61 2.415 . S
Tb40 O62 2.399 . S
Tb41 O51 2.322 1_545 S
Tb41 O52 2.349 . S
Tb41 O54 2.415 . S
Tb41 O55 2.399 . S
Tb41 O56 2.325 . S
Tb41 O59 2.303 . S
Tb41 C70 2.764 . S
C42 O58 1.261 . S
C42 O59 1.257 . S
C43 C46 1.358 . S
C43 C47 1.332 . S
C43 C49 1.504 . S
C44 C45 1.373 . S
C44 C48 1.308 . S
C45 C44 1.373 . S
C45 C46 1.429 . S
C45 H72 0.932 . S
C46 C43 1.358 . S
C46 C45 1.429 . S
C46 H73 0.930 . S
C47 C43 1.332 . S
C47 C48 1.394 . S
C47 H74 0.932 . S
C48 C44 1.308 . S
C48 C47 1.394 . S
C48 H75 0.929 . S
C49 Tb40 2.764 . S
C49 C43 1.504 . S
C49 O61 1.239 . S
C49 O62 1.263 . S
O50 Tb40 2.325 . S
O50 C60 1.236 . S
O51 Tb41 2.322 1_565 S
O51 C60 1.257 . S
O52 Tb41 2.349 . S
O52 C63 1.261 . S
O53 Tb40 2.303 1_545 S
O53 C63 1.257 . S
O54 Tb41 2.415 . S
O54 C70 1.239 . S
O55 Tb41 2.399 . S
O55 C70 1.263 . S
O56 Tb41 2.325 . S
O56 C71 1.236 . S
O57 Tb40 2.322 1_545 S
O57 C71 1.257 . S
O58 Tb40 2.349 1_545 S
O58 C42 1.261 . S
O59 Tb41 2.303 . S
O59 C42 1.257 . S
C60 O50 1.236 . S
C60 O51 1.257 . S
O61 Tb40 2.415 . S
O61 C49 1.239 . S
O62 Tb40 2.399 . S
O62 C49 1.263 . S
C63 O52 1.261 . S
C63 O53 1.257 . S
C64 C67 1.358 . S
C64 C68 1.332 . S
C64 C70 1.504 . S
C65 C66 1.373 . S
C65 C69 1.308 . S
C66 C65 1.373 . S
C66 C67 1.429 . S
C66 H76 0.932 . S
C67 C64 1.358 . S
C67 C66 1.429 . S
C67 H77 0.930 . S
C68 C64 1.332 . S
C68 C69 1.394 . S
C68 H78 0.932 . S
C69 C65 1.308 . S
C69 C68 1.394 . S
C69 H79 0.929 . S
C70 Tb41 2.764 . S
C70 O54 1.239 . S
C70 O55 1.263 . S
C70 C64 1.504 . S
C71 O56 1.236 . S
C71 O57 1.257 . S
H72 C45 0.932 . S
H73 C46 0.930 . S
H74 C47 0.932 . S
H75 C48 0.929 . S
H76 C66 0.932 . S
H77 C67 0.930 . S
H78 C68 0.932 . S
H79 C69 0.929 . S
Tb80 C89 2.764 . S
Tb80 O90 2.325 . S
Tb80 O93 2.303 . S
Tb80 O97 2.322 . S
Tb80 O98 2.349 . S
Tb80 O101 2.415 . S
Tb80 O102 2.399 . S
Tb81 O91 2.322 . S
Tb81 O92 2.349 . S
Tb81 O94 2.415 . S
Tb81 O95 2.399 . S
Tb81 O96 2.325 . S
Tb81 O99 2.303 . S
Tb81 C110 2.764 . S
C82 O98 1.261 . S
C82 O99 1.257 . S
C83 C86 1.358 . S
C83 C87 1.332 . S
C83 C89 1.504 . S
C84 C85 1.373 . S
C84 C88 1.308 . S
C85 C84 1.373 . S
C85 C86 1.429 . S
C85 H112 0.932 . S
C86 C83 1.358 . S
C86 C85 1.429 . S
C86 H113 0.930 . S
C87 C83 1.332 . S
C87 C88 1.394 . S
C87 H114 0.932 . S
C88 C84 1.308 . S
C88 C87 1.394 . S
C88 H115 0.929 . S
C89 Tb80 2.764 . S
C89 C83 1.504 . S
C89 O101 1.239 . S
C89 O102 1.263 . S
O90 Tb80 2.325 . S
O90 C100 1.236 . S
O91 Tb81 2.322 . S
O91 C100 1.257 . S
O92 Tb81 2.349 . S
O92 C103 1.261 . S
O93 Tb80 2.303 . S
O93 C103 1.257 . S
O94 Tb81 2.415 . S
O94 C110 1.239 . S
O95 Tb81 2.399 . S
O95 C110 1.263 . S
O96 Tb81 2.325 . S
O96 C111 1.236 . S
O97 Tb80 2.322 . S
O97 C111 1.257 . S
O98 Tb80 2.349 . S
O98 C82 1.261 . S
O99 Tb81 2.303 . S
O99 C82 1.257 . S
C100 O90 1.236 . S
C100 O91 1.257 . S
O101 Tb80 2.415 . S
O101 C89 1.239 . S
O102 Tb80 2.399 . S
O102 C89 1.263 . S
C103 O92 1.261 . S
C103 O93 1.257 . S
C104 C107 1.358 . S
C104 C108 1.332 . S
C104 C110 1.504 . S
C105 C106 1.373 . S
C105 C109 1.308 . S
C106 C105 1.373 . S
C106 C107 1.429 . S
C106 H116 0.932 . S
C107 C104 1.358 . S
C107 C106 1.429 . S
C107 H117 0.930 . S
C108 C104 1.332 . S
C108 C109 1.394 . S
C108 H118 0.932 . S
C109 C105 1.308 . S
C109 C108 1.394 . S
C109 H119 0.929 . S
C110 Tb81 2.764 . S
C110 O94 1.239 . S
C110 O95 1.263 . S
C110 C104 1.504 . S
C111 O96 1.236 . S
C111 O97 1.257 . S
H112 C85 0.932 . S
H113 C86 0.930 . S
H114 C87 0.932 . S
H115 C88 0.929 . S
H116 C106 0.932 . S
H117 C107 0.930 . S
H118 C108 0.932 . S
H119 C109 0.929 . S
H120 C123 0.931 . S
H121 C126 0.928 . S
H122 C128 0.930 . S
C123 H120 0.931 . S
C123 C124 1.413 . S
C123 C125 1.360 1_565 S
C124 C123 1.413 . S
C124 C128 1.429 1_565 S
C125 C123 1.360 1_545 S
C125 C126 1.372 . S
C126 H121 0.928 . S
C126 C125 1.372 . S
C126 C127 1.404 . S
C127 C126 1.404 . S
C127 C128 1.391 . S
C128 H122 0.930 . S
C128 C124 1.429 1_545 S
C128 C127 1.391 . S
H129 C132 0.931 . S
H130 C135 0.928 . S
H131 C137 0.930 . S
C132 H129 0.931 . S
C132 C133 1.413 . S
C132 C134 1.360 . S
C133 C132 1.413 . S
C133 C137 1.429 . S
C134 C132 1.360 . S
C134 C135 1.372 . S
C135 H130 0.928 . S
C135 C134 1.372 . S
C135 C136 1.404 . S
C136 C135 1.404 . S
C136 C137 1.391 . S
C137 H131 0.930 . S
C137 C133 1.429 . S
C137 C136 1.391 . S
H138 C141 0.931 . S
H139 C144 0.928 . S
H140 C146 0.930 . S
C141 H138 0.931 . S
C141 C142 1.413 . S
C141 C143 1.360 . S
C142 C141 1.413 . S
C142 C146 1.429 . S
C143 C141 1.360 . S
C143 C144 1.372 . S
C144 H139 0.928 . S
C144 C143 1.372 . S
C144 C145 1.404 . S
C145 C144 1.404 . S
C145 C146 1.391 . S
C146 H140 0.930 . S
C146 C142 1.429 . S
C146 C145 1.391 . S
H147 C150 0.931 . S
H148 C153 0.928 . S
H149 C155 0.930 . S
C150 H147 0.931 . S
C150 C151 1.413 . S
C150 C152 1.362 1_655 S
C151 C150 1.413 . S
C151 C155 1.429 1_655 S
C152 C150 1.362 1_455 S
C152 C153 1.370 . S
C153 H148 0.928 . S
C153 C152 1.370 . S
C153 C154 1.404 . S
C154 C153 1.404 . S
C154 C155 1.391 . S
C155 H149 0.930 . S
C155 C151 1.429 1_455 S
C155 C154 1.391 . S
H156 C159 0.931 . S
H157 C162 0.928 . S
H158 C164 0.930 . S
C159 H156 0.931 . S
C159 C160 1.413 . S
C159 C161 1.360 1_545 S
C160 C159 1.413 . S
C160 C164 1.429 . S
C161 C159 1.360 1_565 S
C161 C162 1.372 . S
C162 H157 0.928 . S
C162 C161 1.372 . S
C162 C163 1.404 . S
C163 C162 1.404 . S
C163 C164 1.391 1_565 S
C164 H158 0.930 . S
C164 C160 1.429 . S
C164 C163 1.391 1_545 S
H165 C168 0.931 . S
H166 C171 0.928 . S
H167 C173 0.930 . S
C168 H165 0.931 . S
C168 C169 1.413 . S
C168 C170 1.360 . S
C169 C168 1.413 . S
C169 C173 1.429 . S
C170 C168 1.360 . S
C170 C171 1.372 . S
C171 H166 0.928 . S
C171 C170 1.372 . S
C171 C172 1.404 . S
C172 C171 1.404 . S
C172 C173 1.391 . S
C173 H167 0.930 . S
C173 C169 1.429 . S
C173 C172 1.391 . S
H174 C192 0.951 . S
H175 C194 0.951 . S
H176 C196 0.950 . S
H177 C197 0.950 . S
H178 C199 0.950 . S
H179 C202 0.950 . S
H180 C203 0.950 . S
H181 C205 0.950 . S
H182 C206 0.950 . S
H183 C207 0.951 . S
H184 C209 0.951 . S
H185 C211 0.950 . S
H186 C212 0.950 . S
H187 C214 0.950 . S
H188 C217 0.950 . S
H189 C218 0.950 . S
H190 C220 0.950 . S
H191 C221 0.950 . S
C192 H174 0.951 . S
C192 C193 1.366 . S
C192 C194 1.388 . S
C193 C192 1.366 . S
C193 C197 1.385 . S
C194 H175 0.951 . S
C194 C192 1.388 . S
C194 C195 1.366 . S
C195 C194 1.366 . S
C195 C196 1.414 . S
C195 C198 1.499 . S
C196 H176 0.950 . S
C196 C195 1.414 . S
C196 C197 1.374 . S
C197 H177 0.950 . S
C197 C193 1.385 . S
C197 C196 1.374 . S
C198 C195 1.499 . S
C198 C199 1.373 . S
C198 C200 1.389 . S
C199 H178 0.950 . S
C199 C198 1.373 . S
C199 C215 1.377 . S
C200 C198 1.389 . S
C200 C201 1.524 . S
C200 C214 1.377 . S
C201 C200 1.524 . S
C201 C202 1.397 . S
C201 C206 1.363 . S
C202 H179 0.950 . S
C202 C201 1.397 . S
C202 C203 1.334 . S
C203 H180 0.950 . S
C203 C202 1.334 . S
C203 C204 1.287 . S
C204 C203 1.287 . S
C204 C205 1.524 . S
C204 H223 0.913 . S
C205 H181 0.950 . S
C205 C204 1.524 . S
C205 C206 1.415 . S
C206 H182 0.950 . S
C206 C201 1.363 . S
C206 C205 1.415 . S
C207 H183 0.951 . S
C207 C208 1.366 . S
C207 C209 1.388 . S
C208 C207 1.366 . S
C208 C212 1.385 . S
C209 H184 0.951 . S
C209 C207 1.388 . S
C209 C210 1.366 . S
C210 C209 1.366 . S
C210 C211 1.414 . S
C210 C213 1.499 . S
C211 H185 0.950 . S
C211 C210 1.414 . S
C211 C212 1.374 . S
C212 H186 0.950 . S
C212 C208 1.385 . S
C212 C211 1.374 . S
C213 C210 1.499 . S
C213 C214 1.373 . S
C213 C215 1.389 . S
C214 H187 0.950 . S
C214 C200 1.377 . S
C214 C213 1.373 . S
C215 C199 1.377 . S
C215 C213 1.389 . S
C215 C216 1.524 . S
C216 C215 1.524 . S
C216 C217 1.397 . S
C216 C221 1.363 . S
C217 H188 0.950 . S
C217 C216 1.397 . S
C217 C218 1.334 . S
C218 H189 0.950 . S
C218 C217 1.334 . S
C218 C219 1.287 . S
C219 C218 1.287 . S
C219 C220 1.524 . S
C219 H222 0.999 . S
C220 H190 0.950 . S
C220 C219 1.524 . S
C220 C221 1.415 . S
C221 H191 0.950 . S
C221 C216 1.363 . S
C221 C220 1.415 . S
H222 C219 0.999 . S
H223 C204 0.913 . S
H224 C242 0.951 . S
H225 C244 0.951 . S
H226 C246 0.950 . S
H227 C247 0.950 . S
H228 C249 0.950 . S
H229 C252 0.950 . S
H230 C253 0.950 . S
H231 C255 0.950 . S
H232 C256 0.950 . S
H233 C257 0.951 . S
H234 C259 0.951 . S
H235 C261 0.950 . S
H236 C262 0.950 . S
H237 C264 0.950 . S
H238 C267 0.950 . S
H239 C268 0.950 . S
H240 C270 0.950 . S
H241 C271 0.950 . S
C242 H224 0.951 . S
C242 C243 1.366 . S
C242 C244 1.388 . S
C243 C242 1.366 . S
C243 C247 1.385 . S
C244 H225 0.951 . S
C244 C242 1.388 . S
C244 C245 1.366 . S
C245 C244 1.366 . S
C245 C246 1.414 . S
C245 C248 1.499 . S
C246 H226 0.950 . S
C246 C245 1.414 . S
C246 C247 1.374 . S
C247 H227 0.950 . S
C247 C243 1.385 . S
C247 C246 1.374 . S
C248 C245 1.499 . S
C248 C249 1.373 . S
C248 C250 1.389 . S
C249 H228 0.950 . S
C249 C248 1.373 . S
C249 C265 1.377 . S
C250 C248 1.389 . S
C250 C251 1.524 . S
C250 C264 1.377 . S
C251 C250 1.524 . S
C251 C252 1.397 . S
C251 C256 1.363 . S
C252 H229 0.950 . S
C252 C251 1.397 . S
C252 C253 1.334 . S
C253 H230 0.950 . S
C253 C252 1.334 . S
C253 C254 1.287 . S
C254 C253 1.287 . S
C254 C255 1.524 . S
C254 H273 0.913 . S
C255 H231 0.950 . S
C255 C254 1.524 . S
C255 C256 1.415 . S
C256 H232 0.950 . S
C256 C251 1.363 . S
C256 C255 1.415 . S
C257 H233 0.951 . S
C257 C258 1.366 . S
C257 C259 1.388 . S
C258 C257 1.366 . S
C258 C262 1.385 . S
C259 H234 0.951 . S
C259 C257 1.388 . S
C259 C260 1.366 . S
C260 C259 1.366 . S
C260 C261 1.414 . S
C260 C263 1.499 . S
C261 H235 0.950 . S
C261 C260 1.414 . S
C261 C262 1.374 . S
C262 H236 0.950 . S
C262 C258 1.385 . S
C262 C261 1.374 . S
C263 C260 1.499 . S
C263 C264 1.373 . S
C263 C265 1.389 . S
C264 H237 0.950 . S
C264 C250 1.377 . S
C264 C263 1.373 . S
C265 C249 1.377 . S
C265 C263 1.389 . S
C265 C266 1.524 . S
C266 C265 1.524 . S
C266 C267 1.397 . S
C266 C271 1.363 . S
C267 H238 0.950 . S
C267 C266 1.397 . S
C267 C268 1.334 . S
C268 H239 0.950 . S
C268 C267 1.334 . S
C268 C269 1.287 . S
C269 C268 1.287 . S
C269 C270 1.524 . S
C269 H272 0.999 . S
C270 H240 0.950 . S
C270 C269 1.524 . S
C270 C271 1.415 . S
C271 H241 0.950 . S
C271 C266 1.363 . S
C271 C270 1.415 . S
H272 C269 0.999 . S
H273 C254 0.913 . S
H274 C292 0.951 . S
H275 C294 0.951 . S
H276 C296 0.950 . S
H277 C297 0.950 . S
H278 C299 0.950 . S
H279 C302 0.950 . S
H280 C303 0.950 . S
H281 C305 0.950 . S
H282 C306 0.950 . S
H283 C307 0.951 . S
H284 C309 0.951 . S
H285 C311 0.950 . S
H286 C312 0.950 . S
H287 C314 0.950 . S
H288 C317 0.950 . S
H289 C318 0.950 1_545 S
H290 C320 0.950 . S
H291 C321 0.950 . S
C292 H274 0.951 . S
C292 C293 1.366 . S
C292 C294 1.388 . S
C293 C292 1.366 . S
C293 C297 1.385 . S
C294 H275 0.951 . S
C294 C292 1.388 . S
C294 C295 1.366 . S
C295 C294 1.366 . S
C295 C296 1.414 . S
C295 C298 1.499 . S
C296 H276 0.950 . S
C296 C295 1.414 . S
C296 C297 1.374 . S
C297 H277 0.950 . S
C297 C293 1.385 . S
C297 C296 1.374 . S
C298 C295 1.499 . S
C298 C299 1.373 . S
C298 C300 1.389 . S
C299 H278 0.950 . S
C299 C298 1.373 . S
C299 C315 1.377 . S
C300 C298 1.389 . S
C300 C301 1.524 . S
C300 C314 1.377 . S
C301 C300 1.524 . S
C301 C302 1.397 . S
C301 C306 1.363 . S
C302 H279 0.950 . S
C302 C301 1.397 . S
C302 C303 1.334 . S
C303 H280 0.950 . S
C303 C302 1.334 . S
C303 C304 1.287 . S
C304 C303 1.287 . S
C304 C305 1.524 . S
C304 H323 0.913 . S
C305 H281 0.950 . S
C305 C304 1.524 . S
C305 C306 1.415 . S
C306 H282 0.950 . S
C306 C301 1.363 . S
C306 C305 1.415 . S
C307 H283 0.951 . S
C307 C308 1.366 . S
C307 C309 1.388 . S
C308 C307 1.366 . S
C308 C312 1.385 . S
C309 H284 0.951 . S
C309 C307 1.388 . S
C309 C310 1.366 . S
C310 C309 1.366 . S
C310 C311 1.414 . S
C310 C313 1.499 . S
C311 H285 0.950 . S
C311 C310 1.414 . S
C311 C312 1.374 . S
C312 H286 0.950 . S
C312 C308 1.385 . S
C312 C311 1.374 . S
C313 C310 1.499 . S
C313 C314 1.373 . S
C313 C315 1.389 . S
C314 H287 0.950 . S
C314 C300 1.377 . S
C314 C313 1.373 . S
C315 C299 1.377 . S
C315 C313 1.389 . S
C315 C316 1.524 . S
C316 C315 1.524 . S
C316 C317 1.397 . S
C316 C321 1.363 . S
C317 H288 0.950 . S
C317 C316 1.397 . S
C317 C318 1.334 . S
C318 H289 0.950 1_565 S
C318 C317 1.334 . S
C318 C319 1.287 . S
C319 C318 1.287 . S
C319 C320 1.524 . S
C319 H322 0.999 1_565 S
C320 H290 0.950 . S
C320 C319 1.524 . S
C320 C321 1.415 . S
C321 H291 0.950 . S
C321 C316 1.363 . S
C321 C320 1.415 . S
H322 C319 0.999 1_545 S
H323 C304 0.913 . S
H324 C342 0.951 . S
H325 C344 0.951 . S
H326 C346 0.950 . S
H327 C347 0.950 . S
H328 C349 0.950 . S
H329 C352 0.950 . S
H330 C353 0.950 . S
H331 C355 0.950 . S
H332 C356 0.950 . S
H333 C357 0.951 . S
H334 C359 0.951 . S
H335 C361 0.950 . S
H336 C362 0.950 . S
H337 C364 0.950 . S
H338 C367 0.950 . S
H339 C368 0.950 . S
H340 C370 0.950 . S
H341 C371 0.950 . S
C342 H324 0.951 . S
C342 C343 1.366 . S
C342 C344 1.388 . S
C343 C342 1.366 . S
C343 C347 1.385 . S
C344 H325 0.951 . S
C344 C342 1.388 . S
C344 C345 1.366 . S
C345 C344 1.366 . S
C345 C346 1.414 . S
C345 C348 1.499 . S
C346 H326 0.950 . S
C346 C345 1.414 . S
C346 C347 1.374 . S
C347 H327 0.950 . S
C347 C343 1.385 . S
C347 C346 1.374 . S
C348 C345 1.499 . S
C348 C349 1.373 . S
C348 C350 1.389 . S
C349 H328 0.950 . S
C349 C348 1.373 . S
C349 C365 1.377 . S
C350 C348 1.389 . S
C350 C351 1.524 . S
C350 C364 1.377 . S
C351 C350 1.524 . S
C351 C352 1.397 . S
C351 C356 1.363 . S
C352 H329 0.950 . S
C352 C351 1.397 . S
C352 C353 1.334 . S
C353 H330 0.950 . S
C353 C352 1.334 . S
C353 C354 1.287 . S
C354 C353 1.287 . S
C354 C355 1.524 . S
C354 H373 0.913 . S
C355 H331 0.950 . S
C355 C354 1.524 . S
C355 C356 1.415 . S
C356 H332 0.950 . S
C356 C351 1.363 . S
C356 C355 1.415 . S
C357 H333 0.951 . S
C357 C358 1.366 . S
C357 C359 1.388 . S
C358 C357 1.366 . S
C358 C362 1.385 . S
C359 H334 0.951 . S
C359 C357 1.388 . S
C359 C360 1.366 . S
C360 C359 1.366 . S
C360 C361 1.414 . S
C360 C363 1.499 . S
C361 H335 0.950 . S
C361 C360 1.414 . S
C361 C362 1.374 . S
C362 H336 0.950 . S
C362 C358 1.385 . S
C362 C361 1.374 . S
C363 C360 1.499 . S
C363 C364 1.373 . S
C363 C365 1.389 . S
C364 H337 0.950 . S
C364 C350 1.377 . S
C364 C363 1.373 . S
C365 C349 1.377 . S
C365 C363 1.389 . S
C365 C366 1.524 . S
C366 C365 1.524 . S
C366 C367 1.397 . S
C366 C371 1.363 . S
C367 H338 0.950 . S
C367 C366 1.397 . S
C367 C368 1.334 . S
C368 H339 0.950 . S
C368 C367 1.334 . S
C368 C369 1.287 . S
C369 C368 1.287 . S
C369 C370 1.524 . S
C369 H372 0.999 . S
C370 H340 0.950 . S
C370 C369 1.524 . S
C370 C371 1.415 . S
C371 H341 0.950 . S
C371 C366 1.363 . S
C371 C370 1.415 . S
H372 C369 0.999 . S
H373 C354 0.913 . S
H374 C392 0.951 . S
H375 C394 0.951 . S
H376 C396 0.950 . S
H377 C397 0.950 . S
H378 C399 0.950 . S
H379 C402 0.950 . S
H380 C403 0.950 . S
H381 C405 0.950 . S
H382 C406 0.950 . S
H383 C407 0.951 . S
H384 C409 0.951 . S
H385 C411 0.950 . S
H386 C412 0.950 . S
H387 C414 0.950 . S
H388 C417 0.950 . S
H389 C418 0.950 . S
H390 C420 0.950 . S
H391 C421 0.950 . S
C392 H374 0.951 . S
C392 C393 1.366 . S
C392 C394 1.388 . S
C393 C392 1.366 . S
C393 C397 1.385 . S
C394 H375 0.951 . S
C394 C392 1.388 . S
C394 C395 1.366 . S
C395 C394 1.366 . S
C395 C396 1.414 . S
C395 C398 1.499 . S
C396 H376 0.950 . S
C396 C395 1.414 . S
C396 C397 1.374 . S
C397 H377 0.950 . S
C397 C393 1.385 . S
C397 C396 1.374 . S
C398 C395 1.499 . S
C398 C399 1.373 . S
C398 C400 1.389 . S
C399 H378 0.950 . S
C399 C398 1.373 . S
C399 C415 1.377 . S
C400 C398 1.389 . S
C400 C401 1.524 . S
C400 C414 1.377 . S
C401 C400 1.524 . S
C401 C402 1.397 . S
C401 C406 1.363 . S
C402 H379 0.950 . S
C402 C401 1.397 . S
C402 C403 1.334 . S
C403 H380 0.950 . S
C403 C402 1.334 . S
C403 C404 1.287 . S
C404 C403 1.287 . S
C404 C405 1.524 . S
C404 H423 0.913 . S
C405 H381 0.950 . S
C405 C404 1.524 . S
C405 C406 1.415 . S
C406 H382 0.950 . S
C406 C401 1.363 . S
C406 C405 1.415 . S
C407 H383 0.951 . S
C407 C408 1.366 . S
C407 C409 1.388 . S
C408 C407 1.366 . S
C408 C412 1.385 . S
C409 H384 0.951 . S
C409 C407 1.388 . S
C409 C410 1.366 . S
C410 C409 1.366 . S
C410 C411 1.414 . S
C410 C413 1.499 . S
C411 H385 0.950 . S
C411 C410 1.414 . S
C411 C412 1.374 . S
C412 H386 0.950 . S
C412 C408 1.385 . S
C412 C411 1.374 . S
C413 C410 1.499 . S
C413 C414 1.373 . S
C413 C415 1.389 . S
C414 H387 0.950 . S
C414 C400 1.377 . S
C414 C413 1.373 . S
C415 C399 1.377 . S
C415 C413 1.389 . S
C415 C416 1.524 . S
C416 C415 1.524 . S
C416 C417 1.397 . S
C416 C421 1.363 . S
C417 H388 0.950 . S
C417 C416 1.397 . S
C417 C418 1.334 . S
C418 H389 0.950 . S
C418 C417 1.334 . S
C418 C419 1.287 . S
C419 C418 1.287 . S
C419 C420 1.524 . S
C419 H422 0.999 . S
C420 H390 0.950 . S
C420 C419 1.524 . S
C420 C421 1.415 . S
C421 H391 0.950 . S
C421 C416 1.363 . S
C421 C420 1.415 . S
H422 C419 0.999 . S
H423 C404 0.913 . S
H424 C442 0.951 . S
H425 C444 0.951 . S
H426 C446 0.950 . S
H427 C447 0.950 . S
H428 C449 0.950 . S
H429 C452 0.950 . S
H430 C453 0.950 . S
H431 C455 0.950 . S
H432 C456 0.950 . S
H433 C457 0.951 . S
H434 C459 0.951 . S
H435 C461 0.950 . S
H436 C462 0.950 . S
H437 C464 0.950 . S
H438 C467 0.950 . S
H439 C468 0.950 . S
H440 C470 0.950 . S
H441 C471 0.950 . S
C442 H424 0.951 . S
C442 C443 1.366 . S
C442 C444 1.388 . S
C443 C442 1.366 . S
C443 C447 1.385 . S
C444 H425 0.951 . S
C444 C442 1.388 . S
C444 C445 1.366 . S
C445 C444 1.366 . S
C445 C446 1.414 . S
C445 C448 1.499 . S
C446 H426 0.950 . S
C446 C445 1.414 . S
C446 C447 1.374 . S
C447 H427 0.950 . S
C447 C443 1.385 . S
C447 C446 1.374 . S
C448 C445 1.499 . S
C448 C449 1.373 . S
C448 C450 1.389 . S
C449 H428 0.950 . S
C449 C448 1.373 . S
C449 C465 1.377 . S
C450 C448 1.389 . S
C450 C451 1.524 . S
C450 C464 1.377 . S
C451 C450 1.524 . S
C451 C452 1.397 . S
C451 C456 1.363 . S
C452 H429 0.950 . S
C452 C451 1.397 . S
C452 C453 1.334 . S
C453 H430 0.950 . S
C453 C452 1.334 . S
C453 C454 1.287 . S
C454 C453 1.287 . S
C454 C455 1.524 . S
C454 H473 0.913 . S
C455 H431 0.950 . S
C455 C454 1.524 . S
C455 C456 1.415 . S
C456 H432 0.950 . S
C456 C451 1.363 . S
C456 C455 1.415 . S
C457 H433 0.951 . S
C457 C458 1.366 . S
C457 C459 1.388 . S
C458 C457 1.366 . S
C458 C462 1.385 . S
C459 H434 0.951 . S
C459 C457 1.388 . S
C459 C460 1.366 . S
C460 C459 1.366 . S
C460 C461 1.414 . S
C460 C463 1.499 . S
C461 H435 0.950 . S
C461 C460 1.414 . S
C461 C462 1.374 . S
C462 H436 0.950 . S
C462 C458 1.385 . S
C462 C461 1.374 . S
C463 C460 1.499 . S
C463 C464 1.373 . S
C463 C465 1.389 . S
C464 H437 0.950 . S
C464 C450 1.377 . S
C464 C463 1.373 . S
C465 C449 1.377 . S
C465 C463 1.389 . S
C465 C466 1.524 . S
C466 C465 1.524 . S
C466 C467 1.397 . S
C466 C471 1.363 . S
C467 H438 0.950 . S
C467 C466 1.397 . S
C467 C468 1.334 . S
C468 H439 0.950 . S
C468 C467 1.334 . S
C468 C469 1.287 . S
C469 C468 1.287 . S
C469 C470 1.524 . S
C469 H472 0.999 . S
C470 H440 0.950 . S
C470 C469 1.524 . S
C470 C471 1.415 . S
C471 H441 0.950 . S
C471 C466 1.363 . S
C471 C470 1.415 . S
H472 C469 0.999 . S
H473 C454 0.913 . S
H474 C492 0.951 . S
H475 C494 0.951 . S
H476 C496 0.950 . S
H477 C497 0.950 . S
H478 C499 0.950 . S
H479 C502 0.950 . S
H480 C503 0.950 . S
H481 C505 0.950 . S
H482 C506 0.950 . S
H483 C507 0.951 . S
H484 C509 0.951 . S
H485 C511 0.950 . S
H486 C512 0.950 . S
H487 C514 0.950 . S
H488 C517 0.950 . S
H489 C518 0.950 . S
H490 C520 0.950 . S
H491 C521 0.950 . S
C492 H474 0.951 . S
C492 C493 1.366 . S
C492 C494 1.388 . S
C493 C492 1.366 . S
C493 C497 1.385 . S
C494 H475 0.951 . S
C494 C492 1.388 . S
C494 C495 1.366 . S
C495 C494 1.366 . S
C495 C496 1.414 . S
C495 C498 1.499 . S
C496 H476 0.950 . S
C496 C495 1.414 . S
C496 C497 1.374 . S
C497 H477 0.950 . S
C497 C493 1.385 . S
C497 C496 1.374 . S
C498 C495 1.499 . S
C498 C499 1.373 . S
C498 C500 1.389 . S
C499 H478 0.950 . S
C499 C498 1.373 . S
C499 C515 1.377 . S
C500 C498 1.389 . S
C500 C501 1.524 . S
C500 C514 1.377 . S
C501 C500 1.524 . S
C501 C502 1.397 . S
C501 C506 1.363 . S
C502 H479 0.950 . S
C502 C501 1.397 . S
C502 C503 1.334 . S
C503 H480 0.950 . S
C503 C502 1.334 . S
C503 C504 1.287 . S
C504 C503 1.287 . S
C504 C505 1.524 . S
C504 H523 0.913 . S
C505 H481 0.950 . S
C505 C504 1.524 . S
C505 C506 1.415 . S
C506 H482 0.950 . S
C506 C501 1.363 . S
C506 C505 1.415 . S
C507 H483 0.951 . S
C507 C508 1.366 . S
C507 C509 1.388 . S
C508 C507 1.366 . S
C508 C512 1.385 . S
C509 H484 0.951 . S
C509 C507 1.388 . S
C509 C510 1.366 . S
C510 C509 1.366 . S
C510 C511 1.414 . S
C510 C513 1.499 . S
C511 H485 0.950 . S
C511 C510 1.414 . S
C511 C512 1.374 . S
C512 H486 0.950 . S
C512 C508 1.385 . S
C512 C511 1.374 . S
C513 C510 1.499 . S
C513 C514 1.373 . S
C513 C515 1.389 . S
C514 H487 0.950 . S
C514 C500 1.377 . S
C514 C513 1.373 . S
C515 C499 1.377 . S
C515 C513 1.389 . S
C515 C516 1.524 . S
C516 C515 1.524 . S
C516 C517 1.397 . S
C516 C521 1.363 . S
C517 H488 0.950 . S
C517 C516 1.397 . S
C517 C518 1.334 . S
C518 H489 0.950 . S
C518 C517 1.334 . S
C518 C519 1.287 . S
C519 C518 1.287 . S
C519 C520 1.524 . S
C519 H522 0.999 . S
C520 H490 0.950 . S
C520 C519 1.524 . S
C520 C521 1.415 . S
C521 H491 0.950 . S
C521 C516 1.363 . S
C521 C520 1.415 . S
H522 C519 0.999 . S
H523 C504 0.913 . S
H524 C542 0.951 . S
H525 C544 0.951 . S
H526 C546 0.950 . S
H527 C547 0.950 . S
H528 C549 0.950 . S
H529 C552 0.950 . S
H530 C553 0.950 . S
H531 C555 0.950 . S
H532 C556 0.950 . S
H533 C557 0.951 . S
H534 C559 0.951 . S
H535 C561 0.950 . S
H536 C562 0.950 . S
H537 C564 0.950 . S
H538 C567 0.950 . S
H539 C568 0.950 . S
H540 C570 0.950 . S
H541 C571 0.950 . S
C542 H524 0.951 . S
C542 C543 1.366 . S
C542 C544 1.388 . S
C543 C542 1.366 . S
C543 C547 1.385 . S
C544 H525 0.951 . S
C544 C542 1.388 . S
C544 C545 1.366 . S
C545 C544 1.366 . S
C545 C546 1.414 . S
C545 C548 1.499 . S
C546 H526 0.950 . S
C546 C545 1.414 . S
C546 C547 1.374 . S
C547 H527 0.950 . S
C547 C543 1.385 . S
C547 C546 1.374 . S
C548 C545 1.499 . S
C548 C549 1.373 . S
C548 C550 1.389 . S
C549 H528 0.950 . S
C549 C548 1.373 . S
C549 C565 1.377 . S
C550 C548 1.389 . S
C550 C551 1.524 . S
C550 C564 1.377 . S
C551 C550 1.524 . S
C551 C552 1.397 . S
C551 C556 1.363 . S
C552 H529 0.950 . S
C552 C551 1.397 . S
C552 C553 1.334 . S
C553 H530 0.950 . S
C553 C552 1.334 . S
C553 C554 1.287 . S
C554 C553 1.287 . S
C554 C555 1.524 . S
C554 H573 0.913 . S
C555 H531 0.950 . S
C555 C554 1.524 . S
C555 C556 1.415 . S
C556 H532 0.950 . S
C556 C551 1.363 . S
C556 C555 1.415 . S
C557 H533 0.951 . S
C557 C558 1.366 . S
C557 C559 1.388 . S
C558 C557 1.366 . S
C558 C562 1.385 . S
C559 H534 0.951 . S
C559 C557 1.388 . S
C559 C560 1.366 . S
C560 C559 1.366 . S
C560 C561 1.414 . S
C560 C563 1.499 . S
C561 H535 0.950 . S
C561 C560 1.414 . S
C561 C562 1.374 . S
C562 H536 0.950 . S
C562 C558 1.385 . S
C562 C561 1.374 . S
C563 C560 1.499 . S
C563 C564 1.373 . S
C563 C565 1.389 . S
C564 H537 0.950 . S
C564 C550 1.377 . S
C564 C563 1.373 . S
C565 C549 1.377 . S
C565 C563 1.389 . S
C565 C566 1.524 . S
C566 C565 1.524 . S
C566 C567 1.397 . S
C566 C571 1.363 . S
C567 H538 0.950 . S
C567 C566 1.397 . S
C567 C568 1.334 . S
C568 H539 0.950 . S
C568 C567 1.334 . S
C568 C569 1.287 . S
C569 C568 1.287 . S
C569 C570 1.524 . S
C569 H572 0.999 . S
C570 H540 0.950 . S
C570 C569 1.524 . S
C570 C571 1.415 . S
C571 H541 0.950 . S
C571 C566 1.363 . S
C571 C570 1.415 . S
H572 C569 0.999 . S
H573 C554 0.913 . S
H574 C592 0.951 . S
H575 C594 0.951 . S
H576 C596 0.950 . S
H577 C597 0.950 . S
H578 C599 0.950 . S
H579 C602 0.950 . S
H580 C603 0.950 . S
H581 C605 0.950 . S
H582 C606 0.950 . S
H583 C607 0.951 . S
H584 C609 0.951 . S
H585 C611 0.950 . S
H586 C612 0.950 . S
H587 C614 0.950 . S
H588 C617 0.950 . S
H589 C618 0.950 . S
H590 C620 0.950 . S
H591 C621 0.950 . S
C592 H574 0.951 . S
C592 C593 1.366 . S
C592 C594 1.388 . S
C593 C592 1.366 . S
C593 C597 1.385 . S
C594 H575 0.951 . S
C594 C592 1.388 . S
C594 C595 1.366 . S
C595 C594 1.366 . S
C595 C596 1.414 . S
C595 C598 1.499 . S
C596 H576 0.950 . S
C596 C595 1.414 . S
C596 C597 1.374 . S
C597 H577 0.950 . S
C597 C593 1.385 . S
C597 C596 1.374 . S
C598 C595 1.499 . S
C598 C599 1.373 . S
C598 C600 1.389 . S
C599 H578 0.950 . S
C599 C598 1.373 . S
C599 C615 1.377 . S
C600 C598 1.389 . S
C600 C601 1.524 . S
C600 C614 1.377 . S
C601 C600 1.524 . S
C601 C602 1.397 . S
C601 C606 1.363 . S
C602 H579 0.950 . S
C602 C601 1.397 . S
C602 C603 1.334 . S
C603 H580 0.950 . S
C603 C602 1.334 . S
C603 C604 1.287 . S
C604 C603 1.287 . S
C604 C605 1.524 . S
C604 H623 0.913 . S
C605 H581 0.950 . S
C605 C604 1.524 . S
C605 C606 1.415 . S
C606 H582 0.950 . S
C606 C601 1.363 . S
C606 C605 1.415 . S
C607 H583 0.951 . S
C607 C608 1.366 . S
C607 C609 1.388 . S
C608 C607 1.366 . S
C608 C612 1.385 . S
C609 H584 0.951 . S
C609 C607 1.388 . S
C609 C610 1.366 . S
C610 C609 1.366 . S
C610 C611 1.414 . S
C610 C613 1.499 . S
C611 H585 0.950 . S
C611 C610 1.414 . S
C611 C612 1.374 . S
C612 H586 0.950 . S
C612 C608 1.385 . S
C612 C611 1.374 . S
C613 C610 1.499 . S
C613 C614 1.373 . S
C613 C615 1.389 . S
C614 H587 0.950 . S
C614 C600 1.377 . S
C614 C613 1.373 . S
C615 C599 1.377 . S
C615 C613 1.389 . S
C615 C616 1.524 . S
C616 C615 1.524 . S
C616 C617 1.397 . S
C616 C621 1.363 . S
C617 H588 0.950 . S
C617 C616 1.397 . S
C617 C618 1.334 . S
C618 H589 0.950 . S
C618 C617 1.334 . S
C618 C619 1.287 . S
C619 C618 1.287 . S
C619 C620 1.524 . S
C619 H622 0.999 . S
C620 H590 0.950 . S
C620 C619 1.524 . S
C620 C621 1.415 . S
C621 H591 0.950 . S
C621 C616 1.363 . S
C621 C620 1.415 . S
H622 C619 0.999 . S
H623 C604 0.913 . S
H624 C642 0.951 . S
H625 C644 0.951 . S
H626 C646 0.950 . S
H627 C647 0.950 . S
H628 C649 0.950 . S
H629 C652 0.950 . S
H630 C653 0.950 . S
H631 C655 0.950 . S
H632 C656 0.950 . S
H633 C657 0.951 . S
H634 C659 0.951 . S
H635 C661 0.950 . S
H636 C662 0.950 . S
H637 C664 0.950 . S
H638 C667 0.950 . S
H639 C668 0.950 . S
H640 C670 0.950 . S
H641 C671 0.950 . S
C642 H624 0.951 . S
C642 C643 1.366 . S
C642 C644 1.388 . S
C643 C642 1.366 . S
C643 C647 1.385 . S
C644 H625 0.951 . S
C644 C642 1.388 . S
C644 C645 1.366 . S
C645 C644 1.366 . S
C645 C646 1.414 . S
C645 C648 1.499 . S
C646 H626 0.950 . S
C646 C645 1.414 . S
C646 C647 1.374 . S
C647 H627 0.950 . S
C647 C643 1.385 . S
C647 C646 1.374 . S
C648 C645 1.499 . S
C648 C649 1.373 . S
C648 C650 1.389 . S
C649 H628 0.950 . S
C649 C648 1.373 . S
C649 C665 1.377 . S
C650 C648 1.389 . S
C650 C651 1.524 . S
C650 C664 1.377 . S
C651 C650 1.524 . S
C651 C652 1.397 . S
C651 C656 1.363 . S
C652 H629 0.950 . S
C652 C651 1.397 . S
C652 C653 1.334 . S
C653 H630 0.950 . S
C653 C652 1.334 . S
C653 C654 1.287 . S
C654 C653 1.287 . S
C654 C655 1.524 . S
C654 H673 0.913 . S
C655 H631 0.950 . S
C655 C654 1.524 . S
C655 C656 1.415 . S
C656 H632 0.950 . S
C656 C651 1.363 . S
C656 C655 1.415 . S
C657 H633 0.951 . S
C657 C658 1.366 . S
C657 C659 1.388 . S
C658 C657 1.366 . S
C658 C662 1.385 . S
C659 H634 0.951 . S
C659 C657 1.388 . S
C659 C660 1.366 . S
C660 C659 1.366 . S
C660 C661 1.414 . S
C660 C663 1.499 . S
C661 H635 0.950 . S
C661 C660 1.414 . S
C661 C662 1.374 . S
C662 H636 0.950 . S
C662 C658 1.385 . S
C662 C661 1.374 . S
C663 C660 1.499 . S
C663 C664 1.373 . S
C663 C665 1.389 . S
C664 H637 0.950 . S
C664 C650 1.377 . S
C664 C663 1.373 . S
C665 C649 1.377 . S
C665 C663 1.389 . S
C665 C666 1.524 . S
C666 C665 1.524 . S
C666 C667 1.397 . S
C666 C671 1.363 . S
C667 H638 0.950 . S
C667 C666 1.397 . S
C667 C668 1.334 . S
C668 H639 0.950 . S
C668 C667 1.334 . S
C668 C669 1.287 . S
C669 C668 1.287 . S
C669 C670 1.524 . S
C669 H672 0.999 . S
C670 H640 0.950 . S
C670 C669 1.524 . S
C670 C671 1.415 . S
C671 H641 0.950 . S
C671 C666 1.363 . S
C671 C670 1.415 . S
H672 C669 0.999 . S
H673 C654 0.913 . S
H674 C692 0.951 . S
H675 C694 0.951 . S
H676 C696 0.950 . S
H677 C697 0.950 . S
H678 C699 0.950 . S
H679 C702 0.950 . S
H680 C703 0.950 . S
H681 C705 0.950 . S
H682 C706 0.950 . S
H683 C707 0.951 . S
H684 C709 0.951 . S
H685 C711 0.950 . S
H686 C712 0.950 . S
H687 C714 0.950 . S
H688 C717 0.950 . S
H689 C718 0.950 . S
H690 C720 0.950 . S
H691 C721 0.950 . S
C692 H674 0.951 . S
C692 C693 1.366 . S
C692 C694 1.388 . S
C693 C692 1.366 . S
C693 C697 1.385 . S
C694 H675 0.951 . S
C694 C692 1.388 . S
C694 C695 1.366 . S
C695 C694 1.366 . S
C695 C696 1.414 . S
C695 C698 1.499 . S
C696 H676 0.950 . S
C696 C695 1.414 . S
C696 C697 1.374 . S
C697 H677 0.950 . S
C697 C693 1.385 . S
C697 C696 1.374 . S
C698 C695 1.499 . S
C698 C699 1.373 . S
C698 C700 1.389 . S
C699 H678 0.950 . S
C699 C698 1.373 . S
C699 C715 1.377 . S
C700 C698 1.389 . S
C700 C701 1.524 . S
C700 C714 1.377 . S
C701 C700 1.524 . S
C701 C702 1.397 . S
C701 C706 1.363 . S
C702 H679 0.950 . S
C702 C701 1.397 . S
C702 C703 1.334 . S
C703 H680 0.950 . S
C703 C702 1.334 . S
C703 C704 1.287 . S
C704 C703 1.287 . S
C704 C705 1.524 . S
C704 H723 0.913 . S
C705 H681 0.950 . S
C705 C704 1.524 . S
C705 C706 1.415 . S
C706 H682 0.950 . S
C706 C701 1.363 . S
C706 C705 1.415 . S
C707 H683 0.951 . S
C707 C708 1.366 . S
C707 C709 1.388 . S
C708 C707 1.366 . S
C708 C712 1.385 . S
C709 H684 0.951 . S
C709 C707 1.388 . S
C709 C710 1.366 . S
C710 C709 1.366 . S
C710 C711 1.414 . S
C710 C713 1.499 . S
C711 H685 0.950 . S
C711 C710 1.414 . S
C711 C712 1.374 . S
C712 H686 0.950 . S
C712 C708 1.385 . S
C712 C711 1.374 . S
C713 C710 1.499 . S
C713 C714 1.373 . S
C713 C715 1.389 . S
C714 H687 0.950 . S
C714 C700 1.377 . S
C714 C713 1.373 . S
C715 C699 1.377 . S
C715 C713 1.389 . S
C715 C716 1.524 . S
C716 C715 1.524 . S
C716 C717 1.397 . S
C716 C721 1.363 . S
C717 H688 0.950 . S
C717 C716 1.397 . S
C717 C718 1.334 . S
C718 H689 0.950 . S
C718 C717 1.334 . S
C718 C719 1.287 . S
C719 C718 1.287 . S
C719 C720 1.524 . S
C719 H722 0.999 . S
C720 H690 0.950 . S
C720 C719 1.524 . S
C720 C721 1.415 . S
C721 H691 0.950 . S
C721 C716 1.363 . S
C721 C720 1.415 . S
H722 C719 0.999 . S
H723 C704 0.913 . S
H724 C742 0.951 . S
H725 C744 0.951 . S
H726 C746 0.950 . S
H727 C747 0.950 . S
H728 C749 0.950 . S
H729 C752 0.950 . S
H730 C753 0.950 . S
H731 C755 0.950 . S
H732 C756 0.950 . S
H733 C757 0.951 . S
H734 C759 0.951 . S
H735 C761 0.950 . S
H736 C762 0.950 . S
H737 C764 0.950 . S
H738 C767 0.950 . S
H739 C768 0.950 . S
H740 C770 0.950 . S
H741 C771 0.950 . S
C742 H724 0.951 . S
C742 C743 1.366 . S
C742 C744 1.388 . S
C743 C742 1.366 . S
C743 C747 1.385 . S
C744 H725 0.951 . S
C744 C742 1.388 . S
C744 C745 1.366 . S
C745 C744 1.366 . S
C745 C746 1.414 . S
C745 C748 1.499 . S
C746 H726 0.950 . S
C746 C745 1.414 . S
C746 C747 1.374 . S
C747 H727 0.950 . S
C747 C743 1.385 . S
C747 C746 1.374 . S
C748 C745 1.499 . S
C748 C749 1.373 . S
C748 C750 1.389 . S
C749 H728 0.950 . S
C749 C748 1.373 . S
C749 C765 1.377 . S
C750 C748 1.389 . S
C750 C751 1.524 . S
C750 C764 1.377 . S
C751 C750 1.524 . S
C751 C752 1.397 . S
C751 C756 1.363 . S
C752 H729 0.950 . S
C752 C751 1.397 . S
C752 C753 1.334 . S
C753 H730 0.950 . S
C753 C752 1.334 . S
C753 C754 1.287 . S
C754 C753 1.287 . S
C754 C755 1.524 . S
C754 H773 0.913 . S
C755 H731 0.950 . S
C755 C754 1.524 . S
C755 C756 1.415 . S
C756 H732 0.950 . S
C756 C751 1.363 . S
C756 C755 1.415 . S
C757 H733 0.951 . S
C757 C758 1.366 . S
C757 C759 1.388 . S
C758 C757 1.366 . S
C758 C762 1.385 . S
C759 H734 0.951 . S
C759 C757 1.388 . S
C759 C760 1.366 . S
C760 C759 1.366 . S
C760 C761 1.414 . S
C760 C763 1.499 . S
C761 H735 0.950 . S
C761 C760 1.414 . S
C761 C762 1.374 . S
C762 H736 0.950 . S
C762 C758 1.385 . S
C762 C761 1.374 . S
C763 C760 1.499 . S
C763 C764 1.373 . S
C763 C765 1.389 . S
C764 H737 0.950 . S
C764 C750 1.377 . S
C764 C763 1.373 . S
C765 C749 1.377 . S
C765 C763 1.389 . S
C765 C766 1.524 . S
C766 C765 1.524 . S
C766 C767 1.397 . S
C766 C771 1.363 . S
C767 H738 0.950 . S
C767 C766 1.397 . S
C767 C768 1.334 . S
C768 H739 0.950 . S
C768 C767 1.334 . S
C768 C769 1.287 . S
C769 C768 1.287 . S
C769 C770 1.524 . S
C769 H772 0.999 . S
C770 H740 0.950 . S
C770 C769 1.524 . S
C770 C771 1.415 . S
C771 H741 0.950 . S
C771 C766 1.363 . S
C771 C770 1.415 . S
H772 C769 0.999 . S
H773 C754 0.913 . S
H774 C792 0.951 . S
H775 C794 0.951 . S
H776 C796 0.950 . S
H777 C797 0.950 . S
H778 C799 0.950 . S
H779 C802 0.950 . S
H780 C803 0.950 . S
H781 C805 0.950 . S
H782 C806 0.950 . S
H783 C807 0.951 . S
H784 C809 0.951 . S
H785 C811 0.950 . S
H786 C812 0.950 . S
H787 C814 0.950 . S
H788 C817 0.950 . S
H789 C818 0.950 . S
H790 C820 0.950 . S
H791 C821 0.950 1_455 S
C792 H774 0.951 . S
C792 C793 1.366 . S
C792 C794 1.388 . S
C793 C792 1.366 . S
C793 C797 1.385 . S
C794 H775 0.951 . S
C794 C792 1.388 . S
C794 C795 1.366 . S
C795 C794 1.366 . S
C795 C796 1.414 . S
C795 C798 1.499 . S
C796 H776 0.950 . S
C796 C795 1.414 . S
C796 C797 1.374 . S
C797 H777 0.950 . S
C797 C793 1.385 . S
C797 C796 1.374 . S
C798 C795 1.499 . S
C798 C799 1.373 . S
C798 C800 1.389 . S
C799 H778 0.950 . S
C799 C798 1.373 . S
C799 C815 1.377 . S
C800 C798 1.389 . S
C800 C801 1.524 . S
C800 C814 1.377 . S
C801 C800 1.524 . S
C801 C802 1.397 . S
C801 C806 1.363 . S
C802 H779 0.950 . S
C802 C801 1.397 . S
C802 C803 1.334 . S
C803 H780 0.950 . S
C803 C802 1.334 . S
C803 C804 1.287 . S
C804 C803 1.287 . S
C804 C805 1.524 . S
C804 H823 0.913 . S
C805 H781 0.950 . S
C805 C804 1.524 . S
C805 C806 1.415 . S
C806 H782 0.950 . S
C806 C801 1.363 . S
C806 C805 1.415 . S
C807 H783 0.951 . S
C807 C808 1.366 . S
C807 C809 1.388 . S
C808 C807 1.366 . S
C808 C812 1.385 . S
C809 H784 0.951 . S
C809 C807 1.388 . S
C809 C810 1.366 . S
C810 C809 1.366 . S
C810 C811 1.414 . S
C810 C813 1.499 1_556 S
C811 H785 0.950 . S
C811 C810 1.414 . S
C811 C812 1.374 . S
C812 H786 0.950 . S
C812 C808 1.385 . S
C812 C811 1.374 . S
C813 C810 1.499 1_554 S
C813 C814 1.373 . S
C813 C815 1.389 . S
C814 H787 0.950 . S
C814 C800 1.377 . S
C814 C813 1.373 . S
C815 C799 1.377 . S
C815 C813 1.389 . S
C815 C816 1.526 . S
C816 C815 1.526 . S
C816 C817 1.396 1_454 S
C816 C821 1.362 1_455 S
C817 H788 0.950 . S
C817 C816 1.396 1_656 S
C817 C818 1.334 . S
C818 H789 0.950 . S
C818 C817 1.334 . S
C818 C819 1.287 . S
C819 C818 1.287 . S
C819 C820 1.524 1_556 S
C819 H822 0.999 . S
C820 H790 0.950 . S
C820 C819 1.524 1_554 S
C820 C821 1.415 . S
C821 H791 0.950 1_655 S
C821 C816 1.362 1_655 S
C821 C820 1.415 . S
H822 C819 0.999 . S
H823 C804 0.913 . S
H824 C842 0.951 . S
H825 C844 0.951 . S
H826 C846 0.950 . S
H827 C847 0.950 . S
H828 C849 0.950 . S
H829 C852 0.950 . S
H830 C853 0.950 . S
H831 C855 0.950 . S
H832 C856 0.950 . S
H833 C857 0.951 . S
H834 C859 0.951 . S
H835 C861 0.950 . S
H836 C862 0.950 . S
H837 C864 0.950 1_565 S
H838 C867 0.950 . S
H839 C868 0.950 . S
H840 C870 0.950 . S
H841 C871 0.950 . S
C842 H824 0.951 . S
C842 C843 1.366 . S
C842 C844 1.388 . S
C843 C842 1.366 . S
C843 C847 1.385 . S
C844 H825 0.951 . S
C844 C842 1.388 . S
C844 C845 1.366 . S
C845 C844 1.366 . S
C845 C846 1.414 . S
C845 C848 1.499 . S
C846 H826 0.950 . S
C846 C845 1.414 . S
C846 C847 1.374 . S
C847 H827 0.950 . S
C847 C843 1.385 . S
C847 C846 1.374 . S
C848 C845 1.499 . S
C848 C849 1.373 . S
C848 C850 1.389 . S
C849 H828 0.950 . S
C849 C848 1.373 . S
C849 C865 1.377 . S
C850 C848 1.389 . S
C850 C851 1.524 1_545 S
C850 C864 1.377 . S
C851 C850 1.524 1_565 S
C851 C852 1.397 . S
C851 C856 1.363 . S
C852 H829 0.950 . S
C852 C851 1.397 . S
C852 C853 1.334 . S
C853 H830 0.950 . S
C853 C852 1.334 . S
C853 C854 1.287 . S
C854 C853 1.287 . S
C854 C855 1.524 . S
C854 H873 0.913 . S
C855 H831 0.950 . S
C855 C854 1.524 . S
C855 C856 1.415 . S
C856 H832 0.950 . S
C856 C851 1.363 . S
C856 C855 1.415 . S
C857 H833 0.951 . S
C857 C858 1.366 . S
C857 C859 1.388 . S
C858 C857 1.366 . S
C858 C862 1.385 . S
C859 H834 0.951 . S
C859 C857 1.388 . S
C859 C860 1.366 . S
C860 C859 1.366 . S
C860 C861 1.414 . S
C860 C863 1.499 . S
C861 H835 0.950 . S
C861 C860 1.414 . S
C861 C862 1.374 . S
C862 H836 0.950 . S
C862 C858 1.385 . S
C862 C861 1.374 . S
C863 C860 1.499 . S
C863 C864 1.373 . S
C863 C865 1.389 . S
C864 H837 0.950 1_545 S
C864 C850 1.377 . S
C864 C863 1.373 . S
C865 C849 1.377 . S
C865 C863 1.389 . S
C865 C866 1.524 . S
C866 C865 1.524 . S
C866 C867 1.397 . S
C866 C871 1.363 . S
C867 H838 0.950 . S
C867 C866 1.397 . S
C867 C868 1.334 . S
C868 H839 0.950 . S
C868 C867 1.334 . S
C868 C869 1.287 . S
C869 C868 1.287 . S
C869 C870 1.524 . S
C869 H872 0.999 . S
C870 H840 0.950 . S
C870 C869 1.524 . S
C870 C871 1.415 . S
C871 H841 0.950 . S
C871 C866 1.363 . S
C871 C870 1.415 . S
H872 C869 0.999 . S
H873 C854 0.913 . S
H874 C892 0.951 . S
H875 C894 0.951 . S
H876 C896 0.950 . S
H877 C897 0.950 . S
H878 C899 0.950 . S
H879 C902 0.950 . S
H880 C903 0.950 . S
H881 C905 0.950 . S
H882 C906 0.950 . S
H883 C907 0.951 . S
H884 C909 0.951 . S
H885 C911 0.950 . S
H886 C912 0.950 . S
H887 C914 0.950 . S
H888 C917 0.950 . S
H889 C918 0.950 . S
H890 C920 0.950 . S
H891 C921 0.950 . S
C892 H874 0.951 . S
C892 C893 1.366 . S
C892 C894 1.388 . S
C893 C892 1.366 . S
C893 C897 1.385 . S
C894 H875 0.951 . S
C894 C892 1.388 . S
C894 C895 1.366 . S
C895 C894 1.366 . S
C895 C896 1.414 . S
C895 C898 1.499 . S
C896 H876 0.950 . S
C896 C895 1.414 . S
C896 C897 1.374 . S
C897 H877 0.950 . S
C897 C893 1.385 . S
C897 C896 1.374 . S
C898 C895 1.499 . S
C898 C899 1.373 . S
C898 C900 1.389 . S
C899 H878 0.950 . S
C899 C898 1.373 . S
C899 C915 1.377 . S
C900 C898 1.389 . S
C900 C901 1.524 . S
C900 C914 1.377 . S
C901 C900 1.524 . S
C901 C902 1.397 . S
C901 C906 1.363 . S
C902 H879 0.950 . S
C902 C901 1.397 . S
C902 C903 1.334 . S
C903 H880 0.950 . S
C903 C902 1.334 . S
C903 C904 1.287 . S
C904 C903 1.287 . S
C904 C905 1.524 . S
C904 H923 0.913 . S
C905 H881 0.950 . S
C905 C904 1.524 . S
C905 C906 1.415 . S
C906 H882 0.950 . S
C906 C901 1.363 . S
C906 C905 1.415 . S
C907 H883 0.951 . S
C907 C908 1.366 . S
C907 C909 1.388 . S
C908 C907 1.366 . S
C908 C912 1.385 . S
C909 H884 0.951 . S
C909 C907 1.388 . S
C909 C910 1.366 . S
C910 C909 1.366 . S
C910 C911 1.414 . S
C910 C913 1.499 . S
C911 H885 0.950 . S
C911 C910 1.414 . S
C911 C912 1.374 . S
C912 H886 0.950 . S
C912 C908 1.385 . S
C912 C911 1.374 . S
C913 C910 1.499 . S
C913 C914 1.373 . S
C913 C915 1.389 . S
C914 H887 0.950 . S
C914 C900 1.377 . S
C914 C913 1.373 . S
C915 C899 1.377 . S
C915 C913 1.389 . S
C915 C916 1.524 . S
C916 C915 1.524 . S
C916 C917 1.397 . S
C916 C921 1.363 . S
C917 H888 0.950 . S
C917 C916 1.397 . S
C917 C918 1.334 . S
C918 H889 0.950 . S
C918 C917 1.334 . S
C918 C919 1.287 . S
C919 C918 1.287 . S
C919 C920 1.524 . S
C919 H922 0.999 . S
C920 H890 0.950 . S
C920 C919 1.524 . S
C920 C921 1.415 . S
C921 H891 0.950 . S
C921 C916 1.363 . S
C921 C920 1.415 . S
H922 C919 0.999 . S
H923 C904 0.913 . S
H924 C942 0.951 . S
H925 C944 0.951 . S
H926 C946 0.950 . S
H927 C947 0.950 . S
H928 C949 0.950 . S
H929 C952 0.950 . S
H930 C953 0.950 . S
H931 C955 0.950 . S
H932 C956 0.950 . S
H933 C957 0.951 . S
H934 C959 0.951 . S
H935 C961 0.950 . S
H936 C962 0.950 . S
H937 C964 0.950 . S
H938 C967 0.950 1_565 S
H939 C968 0.950 1_565 S
H940 C970 0.950 . S
H941 C971 0.950 . S
C942 H924 0.951 . S
C942 C943 1.366 1_565 S
C942 C944 1.388 . S
C943 C942 1.366 1_545 S
C943 C947 1.385 . S
C944 H925 0.951 . S
C944 C942 1.388 . S
C944 C945 1.366 1_565 S
C945 C944 1.366 1_545 S
C945 C946 1.414 . S
C945 C948 1.499 . S
C946 H926 0.950 . S
C946 C945 1.414 . S
C946 C947 1.374 . S
C947 H927 0.950 . S
C947 C943 1.385 . S
C947 C946 1.374 . S
C948 C945 1.499 . S
C948 C949 1.373 . S
C948 C950 1.390 1_545 S
C949 H928 0.950 . S
C949 C948 1.373 . S
C949 C965 1.377 . S
C950 C948 1.390 1_565 S
C950 C951 1.519 . S
C950 C964 1.381 . S
C951 C950 1.519 . S
C951 C952 1.397 1_565 S
C951 C956 1.363 . S
C952 H929 0.950 . S
C952 C951 1.397 1_545 S
C952 C953 1.334 . S
C953 H930 0.950 . S
C953 C952 1.334 . S
C953 C954 1.287 1_545 S
C954 C953 1.287 1_565 S
C954 C955 1.524 . S
C954 H973 0.913 . S
C955 H931 0.950 . S
C955 C954 1.524 . S
C955 C956 1.415 . S
C956 H932 0.950 . S
C956 C951 1.363 . S
C956 C955 1.415 . S
C957 H933 0.951 . S
C957 C958 1.366 1_545 S
C957 C959 1.388 . S
C958 C957 1.366 1_565 S
C958 C962 1.385 . S
C959 H934 0.951 . S
C959 C957 1.388 . S
C959 C960 1.366 . S
C960 C959 1.366 . S
C960 C961 1.414 1_545 S
C960 C963 1.499 . S
C961 H935 0.950 . S
C961 C960 1.414 1_565 S
C961 C962 1.374 . S
C962 H936 0.950 . S
C962 C958 1.385 . S
C962 C961 1.374 . S
C963 C960 1.499 . S
C963 C964 1.373 1_545 S
C963 C965 1.389 . S
C964 H937 0.950 . S
C964 C950 1.381 . S
C964 C963 1.373 1_565 S
C965 C949 1.377 . S
C965 C963 1.389 . S
C965 C966 1.524 . S
C966 C965 1.524 . S
C966 C967 1.397 . S
C966 C971 1.363 . S
C967 H938 0.950 1_545 S
C967 C966 1.397 . S
C967 C968 1.334 . S
C968 H939 0.950 1_545 S
C968 C967 1.334 . S
C968 C969 1.287 . S
C969 C968 1.287 . S
C969 C970 1.524 . S
C969 H972 0.999 . S
C970 H940 0.950 . S
C970 C969 1.524 . S
C970 C971 1.415 . S
C971 H941 0.950 . S
C971 C966 1.363 . S
C971 C970 1.415 . S
H972 C969 0.999 . S
H973 C954 0.913 . S
H974 C992 0.951 . S
H975 C994 0.951 . S
H976 C996 0.950 . S
H977 C997 0.950 . S
H978 C999 0.950 . S
H979 C1002 0.950 . S
H980 C1003 0.950 . S
H981 C1005 0.950 . S
H982 C1006 0.950 . S
H983 C1007 0.951 . S
H984 C1009 0.951 . S
H985 C1011 0.950 . S
H986 C1012 0.950 . S
H987 C1014 0.950 . S
H988 C1017 0.950 . S
H989 C1018 0.950 1_554 S
H990 C1020 0.950 . S
H991 C1021 0.950 . S
C992 H974 0.951 . S
C992 C993 1.366 . S
C992 C994 1.388 . S
C993 C992 1.366 . S
C993 C997 1.385 . S
C994 H975 0.951 . S
C994 C992 1.388 . S
C994 C995 1.366 . S
C995 C994 1.366 . S
C995 C996 1.414 . S
C995 C998 1.499 . S
C996 H976 0.950 . S
C996 C995 1.414 . S
C996 C997 1.374 . S
C997 H977 0.950 . S
C997 C993 1.385 . S
C997 C996 1.374 . S
C998 C995 1.499 . S
C998 C999 1.373 . S
C998 C1000 1.389 . S
C999 H978 0.950 . S
C999 C998 1.373 . S
C999 C1015 1.377 . S
C1000 C998 1.389 . S
C1000 C1001 1.524 . S
C1000 C1014 1.377 . S
C1001 C1000 1.524 . S
C1001 C1002 1.397 . S
C1001 C1006 1.363 . S
C1002 H979 0.950 . S
C1002 C1001 1.397 . S
C1002 C1003 1.334 . S
C1003 H980 0.950 . S
C1003 C1002 1.334 . S
C1003 C1004 1.287 . S
C1004 C1003 1.287 . S
C1004 C1005 1.524 . S
C1004 H1023 0.913 . S
C1005 H981 0.950 . S
C1005 C1004 1.524 . S
C1005 C1006 1.415 . S
C1006 H982 0.950 . S
C1006 C1001 1.363 . S
C1006 C1005 1.415 . S
C1007 H983 0.951 . S
C1007 C1008 1.366 . S
C1007 C1009 1.388 . S
C1008 C1007 1.366 . S
C1008 C1012 1.385 . S
C1009 H984 0.951 . S
C1009 C1007 1.388 . S
C1009 C1010 1.366 . S
C1010 C1009 1.366 . S
C1010 C1011 1.414 . S
C1010 C1013 1.499 1_554 S
C1011 H985 0.950 . S
C1011 C1010 1.414 . S
C1011 C1012 1.374 . S
C1012 H986 0.950 . S
C1012 C1008 1.385 . S
C1012 C1011 1.374 . S
C1013 C1010 1.499 1_556 S
C1013 C1014 1.373 . S
C1013 C1015 1.389 . S
C1014 H987 0.950 . S
C1014 C1000 1.377 . S
C1014 C1013 1.373 . S
C1015 C999 1.377 . S
C1015 C1013 1.389 . S
C1015 C1016 1.524 . S
C1016 C1015 1.524 . S
C1016 C1017 1.397 . S
C1016 C1021 1.363 . S
C1017 H988 0.950 . S
C1017 C1016 1.397 . S
C1017 C1018 1.334 . S
C1018 H989 0.950 1_556 S
C1018 C1017 1.334 . S
C1018 C1019 1.287 . S
C1019 C1018 1.287 . S
C1019 C1020 1.524 . S
C1019 H1022 0.999 . S
C1020 H990 0.950 . S
C1020 C1019 1.524 . S
C1020 C1021 1.415 . S
C1021 H991 0.950 . S
C1021 C1016 1.363 . S
C1021 C1020 1.415 . S
H1022 C1019 0.999 . S
H1023 C1004 0.913 . S
H1024 C1042 0.951 . S
H1025 C1044 0.951 . S
H1026 C1046 0.928 1_655 S
H1027 C1047 0.950 1_655 S
H1028 C1049 0.950 . S
H1029 C1052 0.950 . S
H1030 C1053 0.950 . S
H1031 C1055 0.950 . S
H1032 C1056 0.950 . S
H1033 C1057 0.951 . S
H1034 C1059 0.951 . S
H1035 C1061 0.950 . S
H1036 C1062 0.950 . S
H1037 C1064 0.950 . S
H1038 C1067 0.950 . S
H1039 C1068 0.950 . S
H1040 C1070 0.950 . S
H1041 C1071 0.950 1_655 S
C1042 H1024 0.951 . S
C1042 C1043 1.366 . S
C1042 C1044 1.388 . S
C1043 C1042 1.366 . S
C1043 C1047 1.385 . S
C1044 H1025 0.951 . S
C1044 C1042 1.388 . S
C1044 C1045 1.366 . S
C1045 C1044 1.366 . S
C1045 C1046 1.432 . S
C1045 C1048 1.499 . S
C1046 H1026 0.928 1_455 S
C1046 C1045 1.432 . S
C1046 C1047 1.378 . S
C1047 H1027 0.950 1_455 S
C1047 C1043 1.385 . S
C1047 C1046 1.378 . S
C1048 C1045 1.499 . S
C1048 C1049 1.373 . S
C1048 C1050 1.389 . S
C1049 H1028 0.950 . S
C1049 C1048 1.373 . S
C1049 C1065 1.377 . S
C1050 C1048 1.389 . S
C1050 C1051 1.524 1_455 S
C1050 C1064 1.377 . S
C1051 C1050 1.524 1_655 S
C1051 C1052 1.397 . S
C1051 C1056 1.363 1_655 S
C1052 H1029 0.950 . S
C1052 C1051 1.397 . S
C1052 C1053 1.334 . S
C1053 H1030 0.950 . S
C1053 C1052 1.334 . S
C1053 C1054 1.287 . S
C1054 C1053 1.287 . S
C1054 C1055 1.524 1_655 S
C1054 H1073 0.913 . S
C1055 H1031 0.950 . S
C1055 C1054 1.524 1_455 S
C1055 C1056 1.415 . S
C1056 H1032 0.950 . S
C1056 C1051 1.363 1_455 S
C1056 C1055 1.415 . S
C1057 H1033 0.951 . S
C1057 C1058 1.371 . S
C1057 C1059 1.388 . S
C1058 C1057 1.371 . S
C1058 C1062 1.379 1_655 S
C1059 H1034 0.951 . S
C1059 C1057 1.388 . S
C1059 C1060 1.366 1_655 S
C1060 C1059 1.366 1_455 S
C1060 C1061 1.414 . S
C1060 C1063 1.499 . S
C1061 H1035 0.950 . S
C1061 C1060 1.414 . S
C1061 C1062 1.374 . S
C1062 H1036 0.950 . S
C1062 C1058 1.379 1_455 S
C1062 C1061 1.374 . S
C1063 C1060 1.499 . S
C1063 C1064 1.373 . S
C1063 C1065 1.389 . S
C1064 H1037 0.950 . S
C1064 C1050 1.377 . S
C1064 C1063 1.373 . S
C1065 C1049 1.377 . S
C1065 C1063 1.389 . S
C1065 C1066 1.524 . S
C1066 C1065 1.524 . S
C1066 C1067 1.397 . S
C1066 C1071 1.363 . S
C1067 H1038 0.950 . S
C1067 C1066 1.397 . S
C1067 C1068 1.334 . S
C1068 H1039 0.950 . S
C1068 C1067 1.334 . S
C1068 C1069 1.287 . S
C1069 C1068 1.287 . S
C1069 C1070 1.524 . S
C1069 H1072 0.999 . S
C1070 H1040 0.950 . S
C1070 C1069 1.524 . S
C1070 C1071 1.415 . S
C1071 H1041 0.950 1_455 S
C1071 C1066 1.363 . S
C1071 C1070 1.415 . S
H1072 C1069 0.999 . S
H1073 C1054 0.913 . S
C193 C25 0.364 . S
C208 C169 0.303 . S
C243 C65 0.342 . S
C258 C151 0.155 . S
C293 C105 0.395 . S
C308 C163 0.220 . S
C343 C4 0.380 . S
C358 C172 0.219 . S
C408 C154 0.294 . S
C393 C44 0.364 . S
C458 C160 0.344 . S
C443 C84 0.396 . S
C493 C60 2.784 . S
C508 C133 2.760 . S
C543 C100 2.926 . S
C558 C142 2.892 1_655 S
C593 C31 2.905 . S
C608 C124 2.889 . S
C658 C136 2.870 . S
C643 C71 2.886 . S
C708 C145 2.744 . S
C693 C111 2.743 . S
C743 C20 2.773 . S
C758 C127 2.746 . S
C808 C143 1.805 . S
C793 C2 1.737 . S
C843 C42 1.743 . S
C858 C125 1.791 . S
C893 C82 1.744 . S
C908 C134 1.799 . S
C958 C161 1.047 . S
C943 C63 1.030 . S
C1008 C170 1.084 . S
C993 C103 1.071 . S
C1043 C23 1.035 . S
C1058 C152 1.049 1_655 S
