# Generated by pormake.
# Topology bwt, (3,3)-cn, num edge types: 1
# Building blocks:
#     Node 0, Type 0, BuildingBlock: OLANEW_clean_sbu_2, # of connection points: 3
#     Node 1, Type 0, BuildingBlock: OLANEW_clean_sbu_2, # of connection points: 3
#     Node 2, Type 0, BuildingBlock: OLANEW_clean_sbu_2, # of connection points: 3
#     Node 3, Type 0, BuildingBlock: OLANEW_clean_sbu_2, # of connection points: 3
#     Node 4, Type 0, BuildingBlock: OLANEW_clean_sbu_2, # of connection points: 3
#     Node 5, Type 0, BuildingBlock: OLANEW_clean_sbu_2, # of connection points: 3
#     Node 6, Type 0, BuildingBlock: OLANEW_clean_sbu_2, # of connection points: 3
#     Node 7, Type 0, BuildingBlock: OLANEW_clean_sbu_2, # of connection points: 3
#     Node 8, Type 0, BuildingBlock: OLANEW_clean_sbu_2, # of connection points: 3
#     Node 9, Type 0, BuildingBlock: OLANEW_clean_sbu_2, # of connection points: 3
#     Node 10, Type 0, BuildingBlock: OLANEW_clean_sbu_2, # of connection points: 3
#     Node 11, Type 0, BuildingBlock: OLANEW_clean_sbu_2, # of connection points: 3
#     Node 12, Type 0, BuildingBlock: OLANEW_clean_sbu_2, # of connection points: 3
#     Node 13, Type 0, BuildingBlock: OLANEW_clean_sbu_2, # of connection points: 3
#     Node 14, Type 0, BuildingBlock: OLANEW_clean_sbu_2, # of connection points: 3
#     Node 15, Type 0, BuildingBlock: OLANEW_clean_sbu_2, # of connection points: 3
#     Node 16, Type 0, BuildingBlock: OLANEW_clean_sbu_2, # of connection points: 3
#     Node 17, Type 0, BuildingBlock: OLANEW_clean_sbu_2, # of connection points: 3
#     Node 18, Type 0, BuildingBlock: OLANEW_clean_sbu_2, # of connection points: 3
#     Node 19, Type 0, BuildingBlock: OLANEW_clean_sbu_2, # of connection points: 3
#     Node 20, Type 0, BuildingBlock: OLANEW_clean_sbu_2, # of connection points: 3
#     Node 21, Type 0, BuildingBlock: OLANEW_clean_sbu_2, # of connection points: 3
#     Node 22, Type 0, BuildingBlock: OLANEW_clean_sbu_2, # of connection points: 3
#     Node 23, Type 0, BuildingBlock: OLANEW_clean_sbu_2, # of connection points: 3
#     Node 24, Type 1, BuildingBlock: BELTOD_clean_linker_0, # of connection points: 3
#     Node 25, Type 1, BuildingBlock: BELTOD_clean_linker_0, # of connection points: 3
#     Node 26, Type 1, BuildingBlock: BELTOD_clean_linker_0, # of connection points: 3
#     Node 27, Type 1, BuildingBlock: BELTOD_clean_linker_0, # of connection points: 3
#     Node 28, Type 1, BuildingBlock: BELTOD_clean_linker_0, # of connection points: 3
#     Node 29, Type 1, BuildingBlock: BELTOD_clean_linker_0, # of connection points: 3
#     Node 30, Type 1, BuildingBlock: BELTOD_clean_linker_0, # of connection points: 3
#     Node 31, Type 1, BuildingBlock: BELTOD_clean_linker_0, # of connection points: 3
#     Node 32, Type 1, BuildingBlock: BELTOD_clean_linker_0, # of connection points: 3
#     Node 33, Type 1, BuildingBlock: BELTOD_clean_linker_0, # of connection points: 3
#     Node 34, Type 1, BuildingBlock: BELTOD_clean_linker_0, # of connection points: 3
#     Node 35, Type 1, BuildingBlock: BELTOD_clean_linker_0, # of connection points: 3
#     Node 36, Type 1, BuildingBlock: BELTOD_clean_linker_0, # of connection points: 3
#     Node 37, Type 1, BuildingBlock: BELTOD_clean_linker_0, # of connection points: 3
#     Node 38, Type 1, BuildingBlock: BELTOD_clean_linker_0, # of connection points: 3
#     Node 39, Type 1, BuildingBlock: BELTOD_clean_linker_0, # of connection points: 3
#     Node 40, Type 1, BuildingBlock: BELTOD_clean_linker_0, # of connection points: 3
#     Node 41, Type 1, BuildingBlock: BELTOD_clean_linker_0, # of connection points: 3
#     Node 42, Type 1, BuildingBlock: BELTOD_clean_linker_0, # of connection points: 3
#     Node 43, Type 1, BuildingBlock: BELTOD_clean_linker_0, # of connection points: 3
#     Node 44, Type 1, BuildingBlock: BELTOD_clean_linker_0, # of connection points: 3
#     Node 45, Type 1, BuildingBlock: BELTOD_clean_linker_0, # of connection points: 3
#     Node 46, Type 1, BuildingBlock: BELTOD_clean_linker_0, # of connection points: 3
#     Node 47, Type 1, BuildingBlock: BELTOD_clean_linker_0, # of connection points: 3
#     Edge 48, Type (0, 1), BuildingBlock: CIFDUS_clean_linker_0, # of connection points: 2
#     Edge 49, Type (0, 1), BuildingBlock: CIFDUS_clean_linker_0, # of connection points: 2
#     Edge 50, Type (0, 1), BuildingBlock: CIFDUS_clean_linker_0, # of connection points: 2
#     Edge 51, Type (0, 1), BuildingBlock: CIFDUS_clean_linker_0, # of connection points: 2
#     Edge 52, Type (0, 1), BuildingBlock: CIFDUS_clean_linker_0, # of connection points: 2
#     Edge 53, Type (0, 1), BuildingBlock: CIFDUS_clean_linker_0, # of connection points: 2
#     Edge 54, Type (0, 1), BuildingBlock: CIFDUS_clean_linker_0, # of connection points: 2
#     Edge 55, Type (0, 1), BuildingBlock: CIFDUS_clean_linker_0, # of connection points: 2
#     Edge 56, Type (0, 1), BuildingBlock: CIFDUS_clean_linker_0, # of connection points: 2
#     Edge 57, Type (0, 1), BuildingBlock: CIFDUS_clean_linker_0, # of connection points: 2
#     Edge 58, Type (0, 1), BuildingBlock: CIFDUS_clean_linker_0, # of connection points: 2
#     Edge 59, Type (0, 1), BuildingBlock: CIFDUS_clean_linker_0, # of connection points: 2
#     Edge 60, Type (0, 1), BuildingBlock: CIFDUS_clean_linker_0, # of connection points: 2
#     Edge 61, Type (0, 1), BuildingBlock: CIFDUS_clean_linker_0, # of connection points: 2
#     Edge 62, Type (0, 1), BuildingBlock: CIFDUS_clean_linker_0, # of connection points: 2
#     Edge 63, Type (0, 1), BuildingBlock: CIFDUS_clean_linker_0, # of connection points: 2
#     Edge 64, Type (0, 1), BuildingBlock: CIFDUS_clean_linker_0, # of connection points: 2
#     Edge 65, Type (0, 1), BuildingBlock: CIFDUS_clean_linker_0, # of connection points: 2
#     Edge 66, Type (0, 1), BuildingBlock: CIFDUS_clean_linker_0, # of connection points: 2
#     Edge 67, Type (0, 1), BuildingBlock: CIFDUS_clean_linker_0, # of connection points: 2
#     Edge 68, Type (0, 1), BuildingBlock: CIFDUS_clean_linker_0, # of connection points: 2
#     Edge 69, Type (0, 1), BuildingBlock: CIFDUS_clean_linker_0, # of connection points: 2
#     Edge 70, Type (0, 1), BuildingBlock: CIFDUS_clean_linker_0, # of connection points: 2
#     Edge 71, Type (0, 1), BuildingBlock: CIFDUS_clean_linker_0, # of connection points: 2
#     Edge 72, Type (0, 1), BuildingBlock: CIFDUS_clean_linker_0, # of connection points: 2
#     Edge 73, Type (0, 1), BuildingBlock: CIFDUS_clean_linker_0, # of connection points: 2
#     Edge 74, Type (0, 1), BuildingBlock: CIFDUS_clean_linker_0, # of connection points: 2
#     Edge 75, Type (0, 1), BuildingBlock: CIFDUS_clean_linker_0, # of connection points: 2
#     Edge 76, Type (0, 1), BuildingBlock: CIFDUS_clean_linker_0, # of connection points: 2
#     Edge 77, Type (0, 1), BuildingBlock: CIFDUS_clean_linker_0, # of connection points: 2
#     Edge 78, Type (0, 1), BuildingBlock: CIFDUS_clean_linker_0, # of connection points: 2
#     Edge 79, Type (0, 1), BuildingBlock: CIFDUS_clean_linker_0, # of connection points: 2
#     Edge 80, Type (0, 1), BuildingBlock: CIFDUS_clean_linker_0, # of connection points: 2
#     Edge 81, Type (0, 1), BuildingBlock: CIFDUS_clean_linker_0, # of connection points: 2
#     Edge 82, Type (0, 1), BuildingBlock: CIFDUS_clean_linker_0, # of connection points: 2
#     Edge 83, Type (0, 1), BuildingBlock: CIFDUS_clean_linker_0, # of connection points: 2
#     Edge 84, Type (0, 1), BuildingBlock: CIFDUS_clean_linker_0, # of connection points: 2
#     Edge 85, Type (0, 1), BuildingBlock: CIFDUS_clean_linker_0, # of connection points: 2
#     Edge 86, Type (0, 1), BuildingBlock: CIFDUS_clean_linker_0, # of connection points: 2
#     Edge 87, Type (0, 1), BuildingBlock: CIFDUS_clean_linker_0, # of connection points: 2
#     Edge 88, Type (0, 1), BuildingBlock: CIFDUS_clean_linker_0, # of connection points: 2
#     Edge 89, Type (0, 1), BuildingBlock: CIFDUS_clean_linker_0, # of connection points: 2
#     Edge 90, Type (0, 1), BuildingBlock: CIFDUS_clean_linker_0, # of connection points: 2
#     Edge 91, Type (0, 1), BuildingBlock: CIFDUS_clean_linker_0, # of connection points: 2
#     Edge 92, Type (0, 1), BuildingBlock: CIFDUS_clean_linker_0, # of connection points: 2
#     Edge 93, Type (0, 1), BuildingBlock: CIFDUS_clean_linker_0, # of connection points: 2
#     Edge 94, Type (0, 1), BuildingBlock: CIFDUS_clean_linker_0, # of connection points: 2
#     Edge 95, Type (0, 1), BuildingBlock: CIFDUS_clean_linker_0, # of connection points: 2
#     Edge 96, Type (0, 1), BuildingBlock: CIFDUS_clean_linker_0, # of connection points: 2
#     Edge 97, Type (0, 1), BuildingBlock: CIFDUS_clean_linker_0, # of connection points: 2
#     Edge 98, Type (0, 1), BuildingBlock: CIFDUS_clean_linker_0, # of connection points: 2
#     Edge 99, Type (0, 1), BuildingBlock: CIFDUS_clean_linker_0, # of connection points: 2
#     Edge 100, Type (0, 1), BuildingBlock: CIFDUS_clean_linker_0, # of connection points: 2
#     Edge 101, Type (0, 1), BuildingBlock: CIFDUS_clean_linker_0, # of connection points: 2
#     Edge 102, Type (0, 1), BuildingBlock: CIFDUS_clean_linker_0, # of connection points: 2
#     Edge 103, Type (0, 1), BuildingBlock: CIFDUS_clean_linker_0, # of connection points: 2
#     Edge 104, Type (0, 1), BuildingBlock: CIFDUS_clean_linker_0, # of connection points: 2
#     Edge 105, Type (0, 1), BuildingBlock: CIFDUS_clean_linker_0, # of connection points: 2
#     Edge 106, Type (0, 1), BuildingBlock: CIFDUS_clean_linker_0, # of connection points: 2
#     Edge 107, Type (0, 1), BuildingBlock: CIFDUS_clean_linker_0, # of connection points: 2
#     Edge 108, Type (0, 1), BuildingBlock: CIFDUS_clean_linker_0, # of connection points: 2
#     Edge 109, Type (0, 1), BuildingBlock: CIFDUS_clean_linker_0, # of connection points: 2
#     Edge 110, Type (0, 1), BuildingBlock: CIFDUS_clean_linker_0, # of connection points: 2
#     Edge 111, Type (0, 1), BuildingBlock: CIFDUS_clean_linker_0, # of connection points: 2
#     Edge 112, Type (0, 1), BuildingBlock: CIFDUS_clean_linker_0, # of connection points: 2
#     Edge 113, Type (0, 1), BuildingBlock: CIFDUS_clean_linker_0, # of connection points: 2
#     Edge 114, Type (0, 1), BuildingBlock: CIFDUS_clean_linker_0, # of connection points: 2
#     Edge 115, Type (0, 1), BuildingBlock: CIFDUS_clean_linker_0, # of connection points: 2
#     Edge 116, Type (0, 1), BuildingBlock: CIFDUS_clean_linker_0, # of connection points: 2
#     Edge 117, Type (0, 1), BuildingBlock: CIFDUS_clean_linker_0, # of connection points: 2
#     Edge 118, Type (0, 1), BuildingBlock: CIFDUS_clean_linker_0, # of connection points: 2
#     Edge 119, Type (0, 1), BuildingBlock: CIFDUS_clean_linker_0, # of connection points: 2
# Relax obj value: 0.130
# Max RMSD: 0.132
# Mean RMSD: 0.085
data_MOF--net-bwt--node1-OLANEW_clean_sbu_2--node2-BELTOD_clean_linker_0--edge1-CIFDUS_clean_linker_0
_symmetry_space_group_name_H-M    P1
_symmetry_Int_Tables_number       1
_symmetry_cell_setting            triclinic
loop_
_symmetry_equiv_pos_as_xyz
'x, y, z'
_cell_length_a     59.768892
_cell_length_b     59.764895
_cell_length_c     59.764131
_cell_angle_alpha  93.326089
_cell_angle_beta   93.388497
_cell_angle_gamma 93.357302
loop_
_atom_site_label
_atom_site_type_symbol
_atom_site_fract_x
_atom_site_fract_y
_atom_site_fract_z
_atom_type_partial_charge
O0 O 0.2855 0.57333 0.33306 0.0
Cd1 Cd 0.27881 0.5791 0.29311 0.0
O2 O 0.30596 0.60494 0.34042 0.0
Cd3 Cd 0.31097 0.60806 0.30488 0.0
O4 O 0.34054 0.59708 0.28878 0.0
C5 C 0.35881 0.60685 0.2972 0.0
O6 O 0.35777 0.62371 0.31215 0.0
C7 C 0.296 0.58746 0.34722 0.0
C8 C 0.23318 0.56952 0.2824 0.0
O9 O 0.2473 0.55434 0.28011 0.0
O10 O 0.24078 0.58946 0.28898 0.0
O11 O 0.21021 0.39296 0.70981 0.0
Cd12 Cd 0.20756 0.38476 0.66911 0.0
O13 O 0.21108 0.4292 0.7052 0.0
Cd14 Cd 0.19309 0.42372 0.67237 0.0
O15 O 0.15656 0.42249 0.66774 0.0
C16 C 0.1464 0.40868 0.67964 0.0
O17 O 0.15836 0.39509 0.69125 0.0
C18 C 0.21346 0.4131 0.71798 0.0
C19 C 0.25073 0.39429 0.6555 0.0
O20 O 0.23626 0.40929 0.65571 0.0
O21 O 0.2444 0.37448 0.66065 0.0
O22 O 0.77714 0.99145 0.67634 0.0
Cd23 Cd 0.77822 0.99364 0.71739 0.0
O24 O 0.79267 0.95904 0.67475 0.0
Cd25 Cd 0.80823 0.96647 0.70849 0.0
O26 O 0.83956 0.98652 0.71734 0.0
C27 C 0.8401 0.00647 0.71101 0.0
O28 O 0.82155 0.01398 0.70216 0.0
C29 C 0.78262 0.97424 0.66491 0.0
C30 C 0.73434 0.998 0.72974 0.0
O31 O 0.74789 0.01528 0.72868 0.0
O32 O 0.74177 0.97859 0.72567 0.0
O33 O 0.74455 0.07036 0.29008 0.0
Cd34 Cd 0.76761 0.08187 0.32438 0.0
O35 O 0.71513 0.05997 0.30824 0.0
Cd36 Cd 0.68126 0.04405 0.30801 0.0
O37 O 0.64844 0.02851 0.29622 0.0
C38 C 0.6475 0.01288 0.28076 0.0
O39 O 0.66631 0.0063 0.27297 0.0
C40 C 0.72439 0.06232 0.28983 0.0
C41 C 0.81065 0.06785 0.31896 0.0
O42 O 0.79603 0.05553 0.32826 0.0
O43 O 0.80507 0.08706 0.31285 0.0
O44 O 0.34551 0.27467 0.6006 0.0
Cd45 Cd 0.30881 0.26538 0.61485 0.0
O46 O 0.33119 0.29455 0.5741 0.0
Cd47 Cd 0.30022 0.29983 0.59062 0.0
O48 O 0.29922 0.33553 0.60005 0.0
C49 C 0.28776 0.34828 0.58825 0.0
O50 O 0.2737 0.33926 0.57203 0.0
C51 C 0.34789 0.28545 0.58309 0.0
C52 C 0.29862 0.21949 0.60549 0.0
O53 O 0.29281 0.23385 0.59147 0.0
O54 O 0.30868 0.22691 0.62423 0.0
O55 O 0.30477 0.71764 -0.0009 0.0
Cd56 Cd 0.34429 0.72413 0.99161 0.0
O57 O 0.29486 0.71577 0.96302 0.0
Cd58 Cd 0.32794 0.70589 0.95422 0.0
O59 O 0.33306 0.67014 0.9495 0.0
C60 C 0.32426 0.65875 0.96439 0.0
O61 O 0.3159 0.66955 0.98144 0.0
C62 C 0.28949 0.71702 0.98331 0.0
C63 C 0.34862 0.76768 0.9774 0.0
O64 O 0.34583 0.75079 0.96309 0.0
O65 O 0.35018 0.76384 0.99828 0.0
O66 O 0.71178 0.19643 0.40852 0.0
Cd67 Cd 0.67174 0.19855 0.39789 0.0
O68 O 0.7218 0.2034 0.3747 0.0
Cd69 Cd 0.68833 0.19095 0.36153 0.0
O70 O 0.68257 0.15506 0.36528 0.0
C71 C 0.69492 0.14274 0.3539 0.0
O72 O 0.70719 0.15207 0.33902 0.0
C73 C 0.72713 0.20104 0.39532 0.0
C74 C 0.66391 0.24394 0.39564 0.0
O75 O 0.66134 0.23388 0.41376 0.0
O76 O 0.66935 0.2323 0.37833 0.0
O77 O 0.64044 0.77872 0.00399 0.0
Cd78 Cd 0.68115 0.77877 0.01133 0.0
O79 O 0.64121 0.77079 0.96768 0.0
Cd80 Cd 0.67584 0.78493 0.97098 0.0
O81 O 0.68527 0.81803 0.98753 0.0
C82 C 0.66944 0.83124 0.98567 0.0
O83 O 0.65121 0.82423 0.97325 0.0
C84 C 0.6301 0.77314 0.98508 0.0
C85 C 0.69116 0.73711 0.02666 0.0
O86 O 0.68746 0.75361 0.04034 0.0
O87 O 0.69071 0.74048 0.00565 0.0
O88 O 0.62621 0.34156 0.27365 0.0
Cd89 Cd 0.64337 0.30599 0.26617 0.0
O90 O 0.5959 0.32424 0.28504 0.0
Cd91 Cd 0.61365 0.29489 0.29396 0.0
O92 O 0.61923 0.2945 0.33033 0.0
C93 C 0.60555 0.28337 0.34155 0.0
O94 O 0.59008 0.26961 0.33075 0.0
C95 C 0.6061 0.34211 0.27941 0.0
C96 C 0.63406 0.29386 0.22067 0.0
O97 O 0.62068 0.28753 0.23539 0.0
O98 O 0.65226 0.30523 0.22758 0.0
O99 O 0.03095 0.31171 0.75913 0.0
Cd100 Cd 0.02946 0.34961 0.77642 0.0
O101 O 0.01814 0.32129 0.72606 0.0
Cd102 Cd 0.00437 0.31222 0.69179 0.0
O103 O 0.99299 0.29711 0.65864 0.0
C104 C 0.98527 0.27676 0.65661 0.0
O105 O 0.98368 0.26541 0.67468 0.0
C106 C 0.02485 0.30632 0.73872 0.0
C107 C 0.01615 0.34507 0.81994 0.0
O108 O 0.00165 0.34646 0.80349 0.0
O109 O 0.03699 0.34665 0.81592 0.0
O110 O 0.39913 0.71493 0.20318 0.0
Cd111 Cd 0.38538 0.67583 0.20604 0.0
O112 O 0.37217 0.72738 0.22303 0.0
Cd113 Cd 0.35177 0.69772 0.20935 0.0
O114 O 0.34965 0.69751 0.1727 0.0
C115 C 0.34822 0.71715 0.16584 0.0
O116 O 0.34579 0.7338 0.18068 0.0
C117 C 0.39079 0.73096 0.21419 0.0
C118 C 0.39397 0.66674 0.25086 0.0
O119 O 0.40852 0.6634 0.2363 0.0
O120 O 0.3749 0.67338 0.24402 0.0
O121 O 0.95787 0.6608 0.75585 0.0
Cd122 Cd 0.95606 0.70149 0.75533 0.0
O123 O 0.93978 0.656 0.78642 0.0
Cd124 Cd 0.93984 0.69135 0.79792 0.0
O125 O 0.94756 0.70681 0.83171 0.0
C126 C 0.96672 0.71648 0.8374 0.0
O127 O 0.98106 0.71964 0.82187 0.0
C128 C 0.94927 0.64784 0.76958 0.0
C129 C 0.97091 0.71299 0.71389 0.0
O130 O 0.98446 0.71386 0.7314 0.0
O131 O 0.95014 0.70758 0.71618 0.0
O132 O 0.73623 0.34378 0.64007 0.0
Cd133 Cd 0.74324 0.33029 0.67746 0.0
O134 O 0.71055 0.36545 0.65206 0.0
Cd135 Cd 0.6836 0.38849 0.64861 0.0
O136 O 0.65454 0.40847 0.65263 0.0
C137 C 0.63842 0.40816 0.63774 0.0
O138 O 0.63956 0.39618 0.61877 0.0
C139 C 0.72196 0.35823 0.63617 0.0
C140 C 0.78604 0.34577 0.69489 0.0
O141 O 0.78297 0.3273 0.6828 0.0
O142 O 0.76881 0.35679 0.69896 0.0
O143 O 0.75281 0.63864 0.27984 0.0
Cd144 Cd 0.75195 0.65454 0.31827 0.0
O145 O 0.77552 0.61481 0.29372 0.0
Cd146 Cd 0.79803 0.58749 0.29081 0.0
O147 O 0.82732 0.5676 0.28916 0.0
C148 C 0.84484 0.57673 0.28163 0.0
O149 O 0.84415 0.59716 0.27469 0.0
C150 C 0.76406 0.62143 0.27705 0.0
C151 C 0.71693 0.63073 0.33685 0.0
O152 O 0.71381 0.64927 0.3277 0.0
O153 O 0.73689 0.62394 0.33807 0.0
O154 O 0.28245 0.06504 0.30259 0.0
Cd155 Cd 0.28226 0.06597 0.2618 0.0
O156 O 0.25024 0.04534 0.30017 0.0
Cd157 Cd 0.21978 0.02935 0.31227 0.0
O158 O 0.18449 0.01745 0.31191 0.0
C159 C 0.17159 0.02492 0.29678 0.0
O160 O 0.18019 0.03909 0.28312 0.0
C161 C 0.26669 0.05498 0.31218 0.0
C162 C 0.31344 0.03767 0.2447 0.0
O163 O 0.31926 0.05794 0.25183 0.0
O164 O 0.29279 0.03081 0.24548 0.0
O165 O 0.22654 0.97106 0.72273 0.0
Cd166 Cd 0.21844 0.97698 0.68302 0.0
O167 O 0.26064 0.98656 0.72244 0.0
Cd168 Cd 0.29518 0.9973 0.73465 0.0
O169 O 0.32937 0.012 0.74217 0.0
C170 C 0.3461 -0.00014 0.74126 0.0
O171 O 0.34251 0.97819 0.73631 0.0
C172 C 0.24533 0.97697 0.7331 0.0
C173 C 0.18277 0.00447 0.67641 0.0
O174 O 0.17926 0.98335 0.67848 0.0
O175 O 0.20316 0.01262 0.67749 0.0
O176 O 0.64267 0.74662 0.383 0.0
Cd177 Cd 0.67711 0.75212 0.36356 0.0
O178 O 0.64655 0.71043 0.38239 0.0
Cd179 Cd 0.63766 0.67513 0.38751 0.0
O180 O 0.63759 0.64025 0.39637 0.0
C181 C 0.65686 0.63304 0.40059 0.0
O182 O 0.67467 0.64675 0.39923 0.0
C183 C 0.63566 0.72726 0.38821 0.0
C184 C 0.69549 0.79548 0.37462 0.0
O185 O 0.68239 0.79116 0.35695 0.0
O186 O 0.70025 0.77919 0.38673 0.0
O187 O 0.71736 0.23098 0.96985 0.0
Cd188 Cd 0.67691 0.22184 0.96808 0.0
O189 O 0.71352 0.26636 0.97975 0.0
Cd190 Cd 0.72403 0.30107 0.99133 0.0
O191 O 0.72912 0.3382 0.00236 0.0
C192 C 0.71285 0.35037 0.99761 0.0
O193 O 0.73009 0.33883 0.00296 0.0
C194 C 0.72622 0.25056 0.97519 0.0
C195 C 0.66726 0.18544 0.99386 0.0
O196 O 0.67219 0.18246 0.97337 0.0
O197 O 0.66664 0.20567 0.00211 0.0
O198 O 0.2703 0.74799 0.66649 0.0
Cd199 Cd 0.30942 0.74975 0.68105 0.0
O200 O 0.27751 0.77452 0.64363 0.0
Cd201 Cd 0.26907 0.7981 0.61818 0.0
O202 O 0.26584 0.82587 0.59621 0.0
C203 C 0.26316 0.84536 0.60495 0.0
O204 O 0.26178 0.84797 0.62679 0.0
C205 C 0.26375 0.75993 0.65075 0.0
C206 C 0.32725 0.71079 0.66383 0.0
O207 O 0.31883 0.71146 0.68308 0.0
O208 O 0.32804 0.72882 0.65322 0.0
O209 O 0.32387 0.26561 0.05156 0.0
Cd210 Cd 0.28368 0.26863 0.05489 0.0
O211 O 0.31885 0.23351 0.03173 0.0
Cd212 Cd 0.32893 0.20284 0.01431 0.0
O213 O 0.33048 0.16854 -6e-05 0.0
C214 C 0.32456 0.15257 0.01188 0.0
O215 O 0.31849 0.15742 0.03229 0.0
C216 C 0.33204 0.24941 0.04073 0.0
C217 C 0.27095 0.30724 0.03476 0.0
O218 O 0.27814 0.30799 0.05544 0.0
O219 O 0.26933 0.28811 0.02372 0.0
O220 O 0.35682 0.63499 0.74989 0.0
Cd221 Cd 0.3357 0.6675 0.76004 0.0
O222 O 0.36811 0.65189 0.72069 0.0
Cd223 Cd 0.38362 0.65558 0.68881 0.0
O224 O 0.3934 0.66709 0.65664 0.0
C225 C 0.39986 0.65403 0.64111 0.0
O226 O 0.4012 0.63261 0.64449 0.0
C227 C 0.36806 0.63485 0.73248 0.0
C228 C 0.35302 0.69047 0.79987 0.0
O229 O 0.33775 0.67451 0.80006 0.0
O230 O 0.36011 0.69548 0.78084 0.0
O231 O 0.00596 0.74872 0.24888 0.0
Cd232 Cd 0.02419 0.7135 0.25153 0.0
O233 O 0.99686 0.75479 0.28381 0.0
Cd234 Cd 0.0111 0.7254 0.29768 0.0
O235 O 0.02406 0.71242 0.329 0.0
C236 C 0.02526 0.72675 0.34568 0.0
O237 O 0.01904 0.74711 0.34247 0.0
C238 C 0.99714 0.76077 0.26377 0.0
C239 C 0.03578 0.70161 0.20812 0.0
O240 O 0.01813 0.69255 0.21592 0.0
O241 O 0.04833 0.71554 0.22109 0.0
O242 O 0.6457 0.26951 0.73072 0.0
Cd243 Cd 0.66592 0.30646 0.7349 0.0
O244 O 0.6336 0.27211 0.76464 0.0
Cd245 Cd 0.61306 0.26262 0.79213 0.0
O246 O 0.59523 0.25832 0.82261 0.0
C247 C 0.60652 0.25683 0.84111 0.0
O248 O 0.62853 0.25725 0.84116 0.0
C249 C 0.63405 0.26128 0.74572 0.0
C250 C 0.65237 0.32902 0.69738 0.0
O251 O 0.67017 0.31805 0.69753 0.0
O252 O 0.64164 0.33013 0.71532 0.0
O253 O 0.06039 0.30083 0.29072 0.0
Cd254 Cd 0.0642 0.26038 0.29006 0.0
O255 O 0.04183 0.29681 0.25791 0.0
Cd256 Cd 0.02544 0.3075 0.22696 0.0
O257 O 0.01385 0.30583 0.19152 0.0
C258 C 0.02336 0.2919 0.17892 0.0
O259 O 0.03926 0.28035 0.1879 0.0
C260 C 0.04986 0.30949 0.27463 0.0
C261 C 0.03619 0.24121 0.32036 0.0
O262 O 0.05635 0.2485 0.32648 0.0
O263 O 0.02937 0.24276 0.2998 0.0
P264 P 0.35598 0.53827 0.54201 0.0
H265 H 0.3861 0.57807 0.54967 0.0
H266 H 0.38363 0.61356 0.57164 0.0
H267 H 0.32105 0.5887 0.5962 0.0
H268 H 0.32315 0.55343 0.57364 0.0
H269 H 0.32537 0.50424 0.51668 0.0
H270 H 0.30511 0.47044 0.52764 0.0
H271 H 0.32983 0.48564 0.59657 0.0
H272 H 0.35022 0.51953 0.58542 0.0
H273 H 0.38154 0.54913 0.50349 0.0
H274 H 0.31246 0.54775 0.52074 0.0
O275 O 0.38237 0.53054 0.54228 0.0
H276 H 0.37088 0.56331 0.46712 0.0
H277 H 0.3016 0.56189 0.48416 0.0
C278 C 0.35517 0.56289 0.56056 0.0
C279 C 0.37204 0.5801 0.56009 0.0
C280 C 0.3706 0.60039 0.57253 0.0
C281 C 0.35233 0.60374 0.58577 0.0
C282 C 0.33553 0.58637 0.58643 0.0
C283 C 0.33677 0.56619 0.57362 0.0
C284 C 0.33878 0.51481 0.55035 0.0
C285 C 0.32598 0.5007 0.53425 0.0
C286 C 0.31436 0.48133 0.54055 0.0
C287 C 0.31569 0.47547 0.56302 0.0
C288 C 0.32847 0.48971 0.57914 0.0
C289 C 0.34 0.50914 0.57281 0.0
C290 C 0.34768 0.54681 0.51453 0.0
C291 C 0.36402 0.5516 0.49933 0.0
C292 C 0.35794 0.55993 0.47864 0.0
C293 C 0.3354 0.56368 0.47281 0.0
C294 C 0.31905 0.5589 0.48811 0.0
C295 C 0.32521 0.55079 0.50894 0.0
P296 P 0.22284 0.47163 0.92335 0.0
H297 H 0.19509 0.43143 0.93031 0.0
H298 H 0.20255 0.39683 0.94874 0.0
H299 H 0.27129 0.42171 0.96459 0.0
H300 H 0.26387 0.45606 0.94573 0.0
H301 H 0.2451 0.50759 0.89966 0.0
H302 H 0.26721 0.54171 0.91284 0.0
H303 H 0.26469 0.52203 0.9812 0.0
H304 H 0.24149 0.48836 0.96787 0.0
H305 H 0.19654 0.48746 0.88548 0.0
H306 H 0.25087 0.444 0.89564 0.0
O307 O 0.19709 0.47849 0.92929 0.0
H308 H 0.19721 0.48027 0.84487 0.0
H309 H 0.25171 0.43677 0.85493 0.0
C310 C 0.22873 0.44656 0.93729 0.0
C311 C 0.21173 0.42947 0.93787 0.0
C312 C 0.21603 0.40969 0.94825 0.0
C313 C 0.23743 0.40674 0.95827 0.0
C314 C 0.25455 0.42376 0.95733 0.0
C315 C 0.2503 0.4434 0.94664 0.0
C316 C 0.24197 0.49516 0.93274 0.0
C317 C 0.24956 0.51037 0.91745 0.0
C318 C 0.2624 0.52991 0.92504 0.0
C319 C 0.2679 0.53466 0.94812 0.0
C320 C 0.26062 0.51907 0.96334 0.0
C321 C 0.24754 0.49967 0.95573 0.0
C322 C 0.22331 0.46587 0.89353 0.0
C323 C 0.20853 0.47627 0.87895 0.0
C324 C 0.20908 0.47231 0.85575 0.0
C325 C 0.22449 0.4579 0.84672 0.0
C326 C 0.23947 0.44771 0.86141 0.0
C327 C 0.239 0.45182 0.88465 0.0
P328 P 0.77075 0.98576 0.45586 0.0
H329 H 0.77292 0.96003 0.41334 0.0
H330 H 0.75947 0.92175 0.40018 0.0
H331 H 0.73007 0.91278 0.46364 0.0
H332 H 0.74357 0.95089 0.47667 0.0
H333 H 0.78436 0.0268 0.43483 0.0
H334 H 0.76326 0.05458 0.41564 0.0
H335 H 0.70107 0.01843 0.42833 0.0
H336 H 0.7224 0.99025 0.44728 0.0
H337 H 0.80129 0.97134 0.49086 0.0
H338 H 0.73996 0.00591 0.48715 0.0
O339 O 0.79729 0.98849 0.44867 0.0
H340 H 0.80082 0.97264 0.53172 0.0
H341 H 0.73906 0.00681 0.528 0.0
C342 C 0.75964 0.95811 0.44609 0.0
C343 C 0.76355 0.94979 0.42437 0.0
C344 C 0.75576 0.928 0.41685 0.0
C345 C 0.74392 0.91421 0.43098 0.0
C346 C 0.73951 0.92287 0.45254 0.0
C347 C 0.7472 0.9447 0.45999 0.0
C348 C 0.75493 0.00639 0.4423 0.0
C349 C 0.76621 0.02472 0.43341 0.0
C350 C 0.75414 0.04055 0.42237 0.0
C351 C 0.73056 0.0385 0.42034 0.0
C352 C 0.71924 0.02035 0.42967 0.0
C353 C 0.73138 0.00429 0.44043 0.0
C354 C 0.77093 0.9889 0.48599 0.0
C355 C 0.78783 0.97941 0.49887 0.0
C356 C 0.78738 0.97992 0.52221 0.0
C357 C 0.76984 0.98975 0.53312 0.0
C358 C 0.75294 -0.00064 0.52013 0.0
C359 C 0.75343 -0.00117 0.49673 0.0
P360 P 0.6363 0.01004 0.09759 0.0
H361 H 0.63304 0.01479 0.04915 0.0
H362 H 0.64032 0.04651 0.02616 0.0
H363 H 0.66147 0.08827 0.08606 0.0
H364 H 0.65322 0.0567 0.10895 0.0
H365 H 0.60781 0.96892 0.08721 0.0
H366 H 0.61272 0.93469 0.06426 0.0
H367 H 0.6801 0.95919 0.0521 0.0
H368 H 0.67509 0.99352 0.0754 0.0
H369 H 0.62388 0.00271 0.14326 0.0
H370 H 0.68381 0.02177 0.11044 0.0
O371 O 0.60906 0.0109 0.10212 0.0
H372 H 0.64457 0.00848 0.17978 0.0
H373 H 0.70453 0.02834 0.14697 0.0
C374 C 0.64332 0.03315 0.08071 0.0
C375 C 0.63952 0.03069 0.05731 0.0
C376 C 0.64374 0.04888 0.04416 0.0
C377 C 0.6517 0.06995 0.0542 0.0
C378 C 0.65522 0.07236 0.07774 0.0
C379 C 0.65081 0.0542 0.09086 0.0
C380 C 0.64099 0.98385 0.08274 0.0
C381 C 0.6237 0.96691 0.07976 0.0
C382 C 0.6265 0.94738 0.06655 0.0
C383 C 0.64669 0.94439 0.0561 0.0
C384 C 0.66438 0.96099 0.05996 0.0
C385 C 0.66153 0.98061 0.0732 0.0
C386 C 0.65221 0.01234 0.12422 0.0
C387 C 0.64151 0.00818 0.14392 0.0
C388 C 0.65335 0.0116 0.16482 0.0
C389 C 0.67614 0.01925 0.16637 0.0
C390 C 0.68704 0.02237 0.14643 0.0
C391 C 0.67519 0.01877 0.12552 0.0
P392 P 0.53544 0.35298 0.52154 0.0
H393 H 0.57722 0.37718 0.53966 0.0
H394 H 0.59858 0.37747 0.57612 0.0
H395 H 0.55028 0.32811 0.59792 0.0
H396 H 0.52943 0.32745 0.56172 0.0
H397 H 0.5144 0.3285 0.48125 0.0
H398 H 0.52944 0.30779 0.44979 0.0
H399 H 0.59659 0.3214 0.48004 0.0
H400 H 0.58138 0.34158 0.51208 0.0
H401 H 0.49571 0.37757 0.53059 0.0
H402 H 0.5122 0.30844 0.52195 0.0
O403 O 0.53625 0.37936 0.51375 0.0
H404 H 0.45723 0.36539 0.53798 0.0
H405 H 0.47365 0.29611 0.52912 0.0
C406 C 0.55158 0.35248 0.54796 0.0
C407 C 0.57131 0.36636 0.55228 0.0
C408 C 0.58349 0.36652 0.57304 0.0
C409 C 0.57588 0.353 0.58984 0.0
C410 C 0.55629 0.33896 0.58535 0.0
C411 C 0.54437 0.33854 0.56455 0.0
C412 C 0.54665 0.33594 0.49949 0.0
C413 C 0.53229 0.32648 0.48158 0.0
C414 C 0.5409 0.31468 0.46352 0.0
C415 C 0.56414 0.31274 0.46266 0.0
C416 C 0.57859 0.32249 0.48044 0.0
C417 C 0.56988 0.33395 0.49877 0.0
C418 C 0.50667 0.34392 0.52528 0.0
C419 C 0.49096 0.35977 0.52993 0.0
C420 C 0.46895 0.35278 0.53411 0.0
C421 C 0.46239 0.32979 0.534 0.0
C422 C 0.47823 0.31394 0.52939 0.0
C423 C 0.50018 0.32096 0.52509 0.0
P424 P 0.08278 0.68108 0.00639 0.0
H425 H 0.04412 0.67116 0.03201 0.0
H426 H 0.03596 0.67988 0.07098 0.0
H427 H 0.10007 0.71766 0.08196 0.0
H428 H 0.10722 0.71021 0.04269 0.0
H429 H 0.04738 0.66077 0.97445 0.0
H430 H 0.02416 0.67608 0.94484 0.0
H431 H 0.05243 0.74284 0.96509 0.0
H432 H 0.0754 0.72737 0.99533 0.0
H433 H 0.1252 0.6715 0.02929 0.0
H434 H 0.10408 0.70466 0.97009 0.0
O435 O 0.07911 0.65313 0.00364 0.0
H436 H 0.16446 0.67937 0.02137 0.0
H437 H 0.14302 0.71325 0.96258 0.0
C438 C 0.07647 0.68958 0.03458 0.0
C439 C 0.05628 0.68152 0.04281 0.0
C440 C 0.05177 0.68633 0.0652 0.0
C441 C 0.06753 0.69914 0.07989 0.0
C442 C 0.08744 0.70785 0.07124 0.0
C443 C 0.09173 0.70333 0.04874 0.0
C444 C 0.06339 0.69291 0.98681 0.0
C445 C 0.04836 0.67874 0.97285 0.0
C446 C 0.03497 0.68753 0.95599 0.0
C447 C 0.03658 0.71063 0.95265 0.0
C448 C 0.05096 0.72496 0.96728 0.0
C449 C 0.06403 0.71617 0.98451 0.0
C450 C 0.11162 0.68808 0.00076 0.0
C451 C 0.12899 0.68083 0.01483 0.0
C452 C 0.15143 0.68543 0.01033 0.0
C453 C 0.15691 0.69715 0.99145 0.0
C454 C 0.13941 0.70414 0.97723 0.0
C455 C 0.11701 0.69948 0.98173 0.0
P456 P 0.92128 0.1706 0.47432 0.0
H457 H 0.93114 0.15408 0.42943 0.0
H458 H 0.95648 0.16819 0.40202 0.0
H459 H 0.97745 0.2251 0.44793 0.0
H460 H 0.95235 0.21078 0.47527 0.0
H461 H 0.9527 0.15695 0.50942 0.0
H462 H 0.96537 0.17373 0.54669 0.0
H463 H 0.92085 0.22733 0.53742 0.0
H464 H 0.90853 0.21063 0.50011 0.0
H465 H 0.90218 0.20626 0.44866 0.0
H466 H 0.87802 0.14916 0.48323 0.0
O467 O 0.92253 0.14276 0.47403 0.0
H468 H 0.8635 0.21445 0.43801 0.0
H469 H 0.83934 0.15698 0.47237 0.0
C470 C 0.94021 0.18112 0.45453 0.0
C471 C 0.94132 0.16951 0.43362 0.0
C472 C 0.95567 0.17768 0.41792 0.0
C473 C 0.96908 0.19769 0.42287 0.0
C474 C 0.96765 0.20943 0.44378 0.0
C475 C 0.95325 0.20127 0.45942 0.0
C476 C 0.92937 0.18231 0.50223 0.0
C477 C 0.9455 0.17218 0.51555 0.0
C478 C 0.9527 0.18176 0.53684 0.0
C479 C 0.94406 0.20182 0.54504 0.0
C480 C 0.92795 0.21196 0.53152 0.0
C481 C 0.92073 0.20232 0.51027 0.0
C482 C 0.89293 0.17682 0.46633 0.0
C483 C 0.88856 0.19537 0.45379 0.0
C484 C 0.86643 0.20002 0.44769 0.0
C485 C 0.84832 0.18631 0.45424 0.0
C486 C 0.85286 0.16801 0.46722 0.0
C487 C 0.87497 0.16338 0.47328 0.0
P488 P 0.42051 0.78499 0.987 0.0
H489 H 0.40662 0.79917 0.94262 0.0
H490 H 0.39032 0.77876 0.90842 0.0
H491 H 0.39054 0.71678 0.94223 0.0
H492 H 0.40669 0.73732 0.97639 0.0
H493 H 0.38823 0.80636 0.01472 0.0
H494 H 0.3704 0.7958 0.04849 0.0
H495 H 0.40605 0.73484 0.04785 0.0
H496 H 0.42302 0.74517 0.01348 0.0
H497 H 0.45395 0.78187 0.95343 0.0
H498 H 0.45273 0.78086 0.02545 0.0
O499 O 0.41772 0.8124 0.98469 0.0
H500 H 0.49467 0.78002 0.95632 0.0
H501 H 0.49303 0.77733 0.0284 0.0
C502 C 0.40753 0.76986 0.96221 0.0
C503 C 0.40303 0.78122 0.94275 0.0
C504 C 0.39387 0.76949 0.92312 0.0
C505 C 0.38909 0.74613 0.9226 0.0
C506 C 0.39368 0.73481 0.94217 0.0
C507 C 0.40297 0.74656 0.96176 0.0
C508 C 0.40697 0.77658 0.0116 0.0
C509 C 0.39204 0.79062 0.02172 0.0
C510 C 0.38196 0.78461 0.04118 0.0
C511 C 0.38687 0.76451 0.05109 0.0
C512 C 0.40155 0.75025 0.04056 0.0
C513 C 0.41139 0.75619 0.02093 0.0
C514 C 0.45015 0.78085 0.98914 0.0
C515 C 0.46236 0.78062 0.96982 0.0
C516 C 0.4857 0.77943 0.97151 0.0
C517 C 0.49729 0.77843 0.9926 0.0
C518 C 0.48483 0.77839 0.01188 0.0
C519 C 0.4616 0.78 0.01019 0.0
P520 P 0.5343 0.52064 0.35275 0.0
H521 H 0.54834 0.56365 0.37607 0.0
H522 H 0.58265 0.58823 0.37629 0.0
H523 H 0.61203 0.53897 0.33317 0.0
H524 H 0.57796 0.51453 0.33307 0.0
H525 H 0.48668 0.50901 0.34374 0.0
H526 H 0.45599 0.52926 0.32721 0.0
H527 H 0.50371 0.58206 0.31104 0.0
H528 H 0.53431 0.56167 0.32727 0.0
H529 H 0.53888 0.47725 0.37201 0.0
H530 H 0.53731 0.50343 0.30623 0.0
O531 O 0.52617 0.51845 0.37881 0.0
H532 H 0.54601 0.44017 0.35561 0.0
H533 H 0.5448 0.46623 0.28967 0.0
C534 C 0.56051 0.53731 0.3545 0.0
C535 C 0.56229 0.55805 0.36689 0.0
C536 C 0.58181 0.57211 0.36691 0.0
C537 C 0.59994 0.56552 0.35467 0.0
C538 C 0.59838 0.54439 0.34291 0.0
C539 C 0.57879 0.53044 0.34273 0.0
C540 C 0.51269 0.534 0.33715 0.0
C541 C 0.49056 0.52475 0.33626 0.0
C542 C 0.47307 0.53626 0.32669 0.0
C543 C 0.47748 0.55731 0.31799 0.0
C544 C 0.49984 0.56598 0.31785 0.0
C545 C 0.51733 0.55433 0.32722 0.0
C546 C 0.53735 0.49297 0.34028 0.0
C547 C 0.53974 0.47493 0.35398 0.0
C548 C 0.54377 0.45374 0.34459 0.0
C549 C 0.54585 0.45034 0.32136 0.0
C550 C 0.54327 0.46843 0.30762 0.0
C551 C 0.5389 0.48959 0.31702 0.0
P552 P 0.00899 0.11114 0.64637 0.0
H553 H 0.01309 0.06288 0.64391 0.0
H554 H 0.04447 0.03942 0.65102 0.0
H555 H 0.0874 0.09893 0.67083 0.0
H556 H 0.05631 0.1222 0.66227 0.0
H557 H 0.96228 0.1066 0.6288 0.0
H558 H 0.92795 0.09118 0.64379 0.0
H559 H 0.96583 0.07633 0.70443 0.0
H560 H 0.00028 0.09148 0.68903 0.0
H561 H 0.00231 0.15391 0.62622 0.0
H562 H 0.02439 0.1315 0.69069 0.0
O563 O 0.00538 0.11038 0.61842 0.0
H564 H 0.00726 0.19287 0.64113 0.0
H565 H 0.03041 0.17049 0.70555 0.0
C566 C 0.03216 0.09425 0.65315 0.0
C567 C 0.02925 0.07083 0.64992 0.0
C568 C 0.04723 0.05742 0.65414 0.0
C569 C 0.06854 0.06719 0.66173 0.0
C570 C 0.07136 0.09075 0.66481 0.0
C571 C 0.05342 0.10415 0.66026 0.0
C572 C 0.98384 0.0997 0.6576 0.0
C573 C 0.96322 0.09992 0.64526 0.0
C574 C 0.94356 0.09129 0.65397 0.0
C575 C 0.94414 0.08249 0.67533 0.0
C576 C 0.96486 0.08269 0.68782 0.0
C577 C 0.98453 0.09137 0.67907 0.0
C578 C 0.01354 0.13987 0.65722 0.0
C579 C 0.00859 0.1574 0.64351 0.0
C580 C 0.01153 0.17971 0.65205 0.0
C581 C 0.01948 0.1849 0.6745 0.0
C582 C 0.0241 0.16716 0.68825 0.0
C583 C 0.0209 0.14485 0.67974 0.0
P584 P 0.47099 0.9233 0.18101 0.0
H585 H 0.46925 0.97174 0.18506 0.0
H586 H 0.44127 0.99667 0.19836 0.0
H587 H 0.39903 0.93891 0.21342 0.0
H588 H 0.42652 0.9142 0.19903 0.0
H589 H 0.51577 0.92908 0.16409 0.0
H590 H 0.5521 0.94302 0.18194 0.0
H591 H 0.52203 0.95024 0.24582 0.0
H592 H 0.48558 0.93712 0.22759 0.0
H593 H 0.46227 0.88322 0.15053 0.0
H594 H 0.46555 0.89936 0.22198 0.0
O595 O 0.47174 0.92634 0.15348 0.0
H596 H 0.4518 0.84409 0.15672 0.0
H597 H 0.45515 0.86007 0.22832 0.0
C598 C 0.45019 0.94115 0.1914 0.0
C599 C 0.45395 0.96449 0.19125 0.0
C600 C 0.43798 0.97872 0.19901 0.0
C601 C 0.41791 0.96985 0.20715 0.0
C602 C 0.41415 0.94637 0.20708 0.0
C603 C 0.43006 0.93216 0.19909 0.0
C604 C 0.49797 0.93235 0.19448 0.0
C605 C 0.517 0.93369 0.18193 0.0
C606 C 0.53783 0.9415 0.19222 0.0
C607 C 0.54002 0.94787 0.21533 0.0
C608 C 0.52091 0.94589 0.22793 0.0
C609 C 0.50007 0.9382 0.21758 0.0
C610 C 0.46463 0.89421 0.18579 0.0
C611 C 0.46093 0.87833 0.16757 0.0
C612 C 0.45505 0.85591 0.17114 0.0
C613 C 0.45265 0.84901 0.19301 0.0
C614 C 0.4567 0.86494 0.21128 0.0
C615 C 0.46278 0.88734 0.20768 0.0
P616 P 0.96975 0.43967 0.77456 0.0
H617 H 0.92964 0.42834 0.79775 0.0
H618 H 0.89224 0.41217 0.78475 0.0
H619 H 0.91327 0.40639 0.71684 0.0
H620 H 0.95062 0.42265 0.72996 0.0
H621 H 0.00691 0.46526 0.75569 0.0
H622 H 0.03863 0.45373 0.73497 0.0
H623 H 0.01348 0.38443 0.73497 0.0
H624 H 0.98187 0.39614 0.7561 0.0
H625 H 0.97506 0.4749 0.811 0.0
H626 H 0.957 0.46978 0.73988 0.0
O627 O 0.97636 0.43199 0.80041 0.0
H628 H 0.96893 0.51496 0.81236 0.0
H629 H 0.95043 0.50991 0.74114 0.0
C630 C 0.94303 0.42609 0.76492 0.0
C631 C 0.92627 0.4233 0.78012 0.0
C632 C 0.90488 0.41425 0.77265 0.0
C633 C 0.89989 0.40791 0.7498 0.0
C634 C 0.91676 0.41078 0.73459 0.0
C635 C 0.93811 0.42003 0.74208 0.0
C636 C 0.99178 0.43158 0.75706 0.0
C637 C 0.00793 0.44763 0.75088 0.0
C638 C 0.02607 0.44101 0.73893 0.0
C639 C 0.02853 0.41816 0.73315 0.0
C640 C 0.01214 0.40214 0.73922 0.0
C641 C 0.99399 0.40881 0.75116 0.0
C642 C 0.96646 0.46942 0.77534 0.0
C643 C 0.9698 0.48241 0.79566 0.0
C644 C 0.96614 0.5053 0.79643 0.0
C645 C 0.95904 0.5156 0.77688 0.0
C646 C 0.95606 0.50253 0.75646 0.0
C647 C 0.9597 0.4796 0.75572 0.0
P648 P 0.71479 0.44193 0.44935 0.0
H649 H 0.72631 0.40711 0.41648 0.0
H650 H 0.70839 0.37036 0.40507 0.0
H651 H 0.65019 0.38701 0.44078 0.0
H652 H 0.66854 0.42396 0.45243 0.0
H653 H 0.72552 0.48576 0.47156 0.0
H654 H 0.71586 0.52346 0.46245 0.0
H655 H 0.67134 0.4952 0.40714 0.0
H656 H 0.6812 0.45731 0.41632 0.0
H657 H 0.74543 0.41691 0.47629 0.0
H658 H 0.68624 0.45327 0.48618 0.0
O659 O 0.74081 0.4429 0.44059 0.0
H660 H 0.74506 0.40508 0.51468 0.0
H661 H 0.68552 0.44118 0.52464 0.0
C662 C 0.69877 0.41824 0.43534 0.0
C663 C 0.70942 0.40319 0.42131 0.0
C664 C 0.69907 0.38212 0.41471 0.0
C665 C 0.6779 0.37564 0.42217 0.0
C666 C 0.66661 0.3914 0.43499 0.0
C667 C 0.67699 0.41257 0.44151 0.0
C668 C 0.70386 0.46878 0.44481 0.0
C669 C 0.71331 0.48762 0.45777 0.0
C670 C 0.70791 0.50914 0.45245 0.0
C671 C 0.69297 0.51222 0.43401 0.0
C672 C 0.68278 0.49326 0.42154 0.0
C673 C 0.68838 0.47164 0.42678 0.0
C674 C 0.71618 0.43638 0.47861 0.0
C675 C 0.73258 0.42268 0.48689 0.0
C676 C 0.73218 0.41571 0.50875 0.0
C677 C 0.71518 0.4221 0.52266 0.0
C678 C 0.69897 0.43619 0.51442 0.0
C679 C 0.69938 0.44314 0.49248 0.0
P680 P 0.70091 0.54122 0.08562 0.0
H681 H 0.67027 0.57686 0.08721 0.0
H682 H 0.67005 0.61317 0.07061 0.0
H683 H 0.72755 0.59683 0.03374 0.0
H684 H 0.72763 0.56026 0.05047 0.0
H685 H 0.72961 0.5064 0.10083 0.0
H686 H 0.73905 0.47082 0.08281 0.0
H687 H 0.70653 0.48867 0.02039 0.0
H688 H 0.69658 0.52399 0.03878 0.0
H689 H 0.69479 0.53213 0.13251 0.0
H690 H 0.74186 0.57042 0.09553 0.0
O691 O 0.67507 0.53233 0.09156 0.0
H692 H 0.71246 0.54929 0.16778 0.0
H693 H 0.75954 0.58777 0.13079 0.0
C694 C 0.69862 0.56568 0.06967 0.0
C695 C 0.6825 0.58083 0.07513 0.0
C696 C 0.68256 0.60168 0.06584 0.0
C697 C 0.69889 0.60788 0.05101 0.0
C698 C 0.71466 0.5924 0.04498 0.0
C699 C 0.71465 0.57149 0.05443 0.0
C700 C 0.7128 0.51806 0.07102 0.0
C701 C 0.72507 0.50296 0.08311 0.0
C702 C 0.73048 0.48258 0.07275 0.0
C703 C 0.72347 0.47682 0.05016 0.0
C704 C 0.71196 0.49246 0.03788 0.0
C705 C 0.7065 0.5128 0.04829 0.0
C706 C 0.71669 0.55039 0.11142 0.0
C707 C 0.70914 0.54397 0.13199 0.0
C708 C 0.71933 0.55372 0.15214 0.0
C709 C 0.7372 0.57009 0.152 0.0
C710 C 0.74557 0.57547 0.13136 0.0
C711 C 0.7355 0.56553 0.11123 0.0
P712 P 0.30454 0.02622 0.51613 0.0
H713 H 0.32875 0.05573 0.55123 0.0
H714 H 0.32181 0.09279 0.56762 0.0
H715 H 0.25783 0.09032 0.52953 0.0
H716 H 0.26522 0.05336 0.51276 0.0
H717 H 0.31488 0.97956 0.51172 0.0
H718 H 0.30231 0.9464 0.53053 0.0
H719 H 0.25534 0.98559 0.56577 0.0
H720 H 0.26856 0.01891 0.54726 0.0
H721 H 0.32632 0.04419 0.47837 0.0
H722 H 0.26287 0.01007 0.48991 0.0
O723 O 0.33242 0.02502 0.51796 0.0
H724 H 0.31444 0.04646 0.43893 0.0
H725 H 0.25045 0.01285 0.45036 0.0
C726 C 0.29773 0.05205 0.53042 0.0
C727 C 0.31315 0.06308 0.54652 0.0
C728 C 0.30905 0.08423 0.55604 0.0
C729 C 0.28932 0.09465 0.54975 0.0
C730 C 0.27337 0.08296 0.53442 0.0
C731 C 0.27753 0.0618 0.52487 0.0
C732 C 0.29294 0.00171 0.52839 0.0
C733 C 0.30177 0.98096 0.52339 0.0
C734 C 0.2944 0.96195 0.53404 0.0
C735 C 0.27786 0.96331 0.54978 0.0
C736 C 0.26836 0.98404 0.55403 0.0
C737 C 0.27584 0.0031 0.54338 0.0
C738 C 0.29565 0.02658 0.4869 0.0
C739 C 0.30983 0.03707 0.47234 0.0
C740 C 0.30288 0.0386 0.44983 0.0
C741 C 0.28141 0.02996 0.44147 0.0
C742 C 0.26717 0.01945 0.45619 0.0
C743 C 0.27423 0.01786 0.47878 0.0
P744 P 0.27907 0.95347 0.9396 0.0
H745 H 0.28136 0.90927 0.91781 0.0
H746 H 0.30105 0.87648 0.9279 0.0
H747 H 0.33642 0.91562 0.98362 0.0
H748 H 0.31571 0.94813 0.97392 0.0
H749 H 0.25685 0.98181 0.97187 0.0
H750 H 0.26711 0.0186 0.99054 0.0
H751 H 0.33071 0.01993 0.95968 0.0
H752 H 0.32025 0.98294 0.9409 0.0
H753 H 0.24093 0.95901 0.90795 0.0
H754 H 0.31299 0.95879 0.90655 0.0
O755 O 0.25369 0.94482 0.94715 0.0
H756 H 0.23816 0.96606 0.86804 0.0
H757 H 0.31032 0.96631 0.86659 0.0
C758 C 0.29724 0.93118 0.94493 0.0
C759 C 0.29369 0.9109 0.93193 0.0
C760 C 0.30512 0.89215 0.93768 0.0
C761 C 0.32043 0.8933 0.95661 0.0
C762 C 0.32458 0.91401 0.96911 0.0
C763 C 0.31291 0.93273 0.96344 0.0
C764 C 0.28779 0.97962 0.95498 0.0
C765 C 0.27311 0.98984 0.96927 0.0
C766 C 0.27903 0.01089 0.98003 0.0
C767 C 0.29973 0.02218 0.9766 0.0
C768 C 0.31456 0.01174 0.96248 0.0
C769 C 0.30863 0.99059 0.95179 0.0
C770 C 0.27715 0.9582 0.91014 0.0
C771 C 0.25616 0.96039 0.89904 0.0
C772 C 0.25458 0.9644 0.87624 0.0
C773 C 0.27403 0.96666 0.86425 0.0
C774 C 0.29509 0.96476 0.87549 0.0
C775 C 0.29662 0.96044 0.89826 0.0
P776 P 0.44047 0.71931 0.45216 0.0
H777 H 0.40485 0.68363 0.43797 0.0
H778 H 0.39042 0.66804 0.40042 0.0
H779 H 0.43646 0.71386 0.37009 0.0
H780 H 0.45029 0.72959 0.40712 0.0
H781 H 0.40189 0.71896 0.47963 0.0
H782 H 0.39362 0.70075 0.51406 0.0
H783 H 0.45495 0.66618 0.51072 0.0
H784 H 0.46294 0.68416 0.47625 0.0
H785 H 0.47374 0.75731 0.46193 0.0
H786 H 0.4728 0.68815 0.43669 0.0
O787 O 0.43073 0.74478 0.45597 0.0
H788 H 0.5129 0.76293 0.4525 0.0
H789 H 0.51188 0.6936 0.42737 0.0
C790 C 0.42895 0.70746 0.42529 0.0
C791 C 0.4118 0.69026 0.42321 0.0
C792 C 0.40358 0.68138 0.40183 0.0
C793 C 0.41267 0.6895 0.38246 0.0
C794 C 0.42953 0.70696 0.38475 0.0
C795 C 0.43739 0.716 0.40592 0.0
C796 C 0.43323 0.70329 0.47559 0.0
C797 C 0.41345 0.7073 0.4862 0.0
C798 C 0.40879 0.69696 0.50592 0.0
C799 C 0.42381 0.68229 0.51529 0.0
C800 C 0.44302 0.67736 0.5039 0.0
C801 C 0.44767 0.68776 0.48419 0.0
C802 C 0.4704 0.72231 0.45 0.0
C803 C 0.48208 0.74321 0.45482 0.0
C804 C 0.50441 0.74644 0.44933 0.0
C805 C 0.51538 0.72874 0.43909 0.0
C806 C 0.50396 0.70749 0.43546 0.0
C807 C 0.48163 0.70435 0.44079 0.0
P808 P 0.93715 0.25375 0.98301 0.0
H809 H 0.97793 0.25595 0.9589 0.0
H810 H 0.98993 0.27803 0.92819 0.0
H811 H 0.92969 0.31449 0.93107 0.0
H812 H 0.91757 0.29192 0.96146 0.0
H813 H 0.94939 0.22943 0.02208 0.0
H814 H 0.9645 0.24137 0.06 0.0
H815 H 0.96466 0.31068 0.04305 0.0
H816 H 0.94937 0.29853 0.00496 0.0
H817 H 0.90364 0.22083 0.96126 0.0
H818 H 0.9043 0.28189 0.00355 0.0
O819 O 0.94605 0.22828 0.97683 0.0
H820 H 0.86268 0.21716 0.96096 0.0
H821 H 0.86322 0.27832 0.00325 0.0
C822 C 0.94664 0.27192 0.96208 0.0
C823 C 0.96736 0.26877 0.95298 0.0
C824 C 0.9743 0.28157 0.93555 0.0
C825 C 0.96069 0.29795 0.92703 0.0
C826 C 0.94037 0.30175 0.93696 0.0
C827 C 0.93343 0.28887 0.95439 0.0
C828 C 0.94878 0.26307 0.01062 0.0
C829 C 0.95288 0.24718 0.02644 0.0
C830 C 0.96155 0.25403 0.04809 0.0
C831 C 0.96601 0.27695 0.05442 0.0
C832 C 0.96138 0.29291 0.03864 0.0
C833 C 0.95282 0.28599 0.01686 0.0
C834 C 0.907 0.2514 0.98276 0.0
C835 C 0.89498 0.23339 0.97059 0.0
C836 C 0.87159 0.23128 0.97045 0.0
C837 C 0.8598 0.24736 0.98223 0.0
C838 C 0.87188 0.26572 0.99399 0.0
C839 C 0.89533 0.26768 0.99429 0.0
P840 P 0.08284 0.69378 0.54609 0.0
H841 H 0.04373 0.67188 0.56489 0.0
H842 H 0.02237 0.6821 0.59721 0.0
H843 H 0.06015 0.74621 0.60583 0.0
H844 H 0.08144 0.73588 0.57348 0.0
H845 H 0.10112 0.68518 0.50278 0.0
H846 H 0.09017 0.69561 0.46487 0.0
H847 H 0.03602 0.73191 0.49117 0.0
H848 H 0.04731 0.72172 0.52902 0.0
H849 H 0.11508 0.6782 0.57886 0.0
H850 H 0.11141 0.73302 0.53522 0.0
O851 O 0.08208 0.66577 0.54443 0.0
H852 H 0.15136 0.69406 0.59527 0.0
H853 H 0.14769 0.74919 0.55177 0.0
C854 C 0.06452 0.70289 0.56717 0.0
C855 C 0.04718 0.68826 0.57353 0.0
C856 C 0.03489 0.69418 0.59192 0.0
C857 C 0.03978 0.71486 0.60422 0.0
C858 C 0.05627 0.73003 0.5969 0.0
C859 C 0.06842 0.72414 0.57841 0.0
C860 C 0.07503 0.70265 0.51864 0.0
C861 C 0.08696 0.69547 0.50035 0.0
C862 C 0.08059 0.70132 0.47869 0.0
C863 C 0.06215 0.7145 0.47499 0.0
C864 C 0.05042 0.72192 0.49349 0.0
C865 C 0.05681 0.71602 0.51515 0.0
C866 C 0.11084 0.70416 0.55552 0.0
C867 C 0.12229 0.69348 0.57257 0.0
C868 C 0.14288 0.70271 0.58212 0.0
C869 C 0.15232 0.72295 0.5749 0.0
C870 C 0.14095 0.73346 0.55752 0.0
C871 C 0.12026 0.72421 0.54801 0.0
P872 P 0.53779 0.29959 0.03111 0.0
H873 H 0.57335 0.32406 0.05991 0.0
H874 H 0.59155 0.31649 0.09599 0.0
H875 H 0.55573 0.25129 0.0929 0.0
H876 H 0.53716 0.25928 0.05688 0.0
H877 H 0.52602 0.30619 0.98448 0.0
H878 H 0.54151 0.29333 0.94952 0.0
H879 H 0.58617 0.25245 0.98662 0.0
H880 H 0.571 0.26605 0.02165 0.0
H881 H 0.50228 0.3232 0.05138 0.0
H882 H 0.50962 0.25836 0.01806 0.0
O883 O 0.54037 0.3274 0.02948 0.0
H884 H 0.46318 0.31257 0.05717 0.0
H885 H 0.47048 0.2472 0.02441 0.0
C886 C 0.55358 0.29242 0.05597 0.0
C887 C 0.56955 0.30805 0.06687 0.0
C888 C 0.58011 0.3036 0.08746 0.0
C889 C 0.57499 0.28333 0.09746 0.0
C890 C 0.55977 0.26722 0.08585 0.0
C891 C 0.54919 0.27173 0.06524 0.0
C892 C 0.54749 0.28724 0.00561 0.0
C893 C 0.53899 0.29427 0.98503 0.0
C894 C 0.54777 0.28675 0.96502 0.0
C895 C 0.56518 0.27188 0.96521 0.0
C896 C 0.57303 0.26415 0.98589 0.0
C897 C 0.56427 0.27182 0.00595 0.0
C898 C 0.50866 0.29173 0.03391 0.0
C899 C 0.49539 0.30668 0.04519 0.0
C900 C 0.47309 0.30046 0.04873 0.0
C901 C 0.46369 0.27896 0.04137 0.0
C902 C 0.47711 0.26396 0.03006 0.0
C903 C 0.49947 0.27029 0.02643 0.0
P904 P 0.44916 0.44669 0.70079 0.0
H905 H 0.42372 0.40492 0.70864 0.0
H906 H 0.38749 0.38865 0.69336 0.0
H907 H 0.38562 0.43881 0.64406 0.0
H908 H 0.42158 0.45567 0.66022 0.0
H909 H 0.49558 0.44683 0.71741 0.0
H910 H 0.53025 0.44119 0.69942 0.0
H911 H 0.49441 0.44006 0.63426 0.0
H912 H 0.45933 0.44455 0.65269 0.0
H913 H 0.43109 0.46741 0.7404 0.0
H914 H 0.44871 0.48743 0.67522 0.0
O915 O 0.45374 0.43468 0.72505 0.0
H916 H 0.41465 0.50311 0.74774 0.0
H917 H 0.43122 0.52313 0.68206 0.0
C918 C 0.42533 0.43168 0.68576 0.0
C919 C 0.41577 0.41225 0.6943 0.0
C920 C 0.395 0.4028 0.68538 0.0
C921 C 0.38342 0.41252 0.66757 0.0
C922 C 0.39382 0.43114 0.65806 0.0
C923 C 0.41453 0.4407 0.66717 0.0
C924 C 0.47478 0.44567 0.68645 0.0
C925 C 0.49514 0.44546 0.69924 0.0
C926 C 0.5151 0.44247 0.68883 0.0
C927 C 0.51529 0.44012 0.66527 0.0
C928 C 0.4949 0.4414 0.65243 0.0
C929 C 0.47479 0.44414 0.66295 0.0
C930 C 0.4413 0.47482 0.70734 0.0
C931 C 0.43175 0.47966 0.72776 0.0
C932 C 0.42205 0.50002 0.73183 0.0
C933 C 0.42123 0.51586 0.71534 0.0
C934 C 0.43165 0.51136 0.69517 0.0
C935 C 0.44161 0.49095 0.69121 0.0
P936 P 0.96879 0.96447 0.24738 0.0
H937 H 0.96673 0.01025 0.26739 0.0
H938 H 0.93822 0.02853 0.28831 0.0
H939 H 0.89762 0.96593 0.28412 0.0
H940 H 0.92651 0.9477 0.26406 0.0
H941 H 0.00533 0.97344 0.21836 0.0
H942 H 0.04423 0.98805 0.22583 0.0
H943 H 0.03367 0.99552 0.29671 0.0
H944 H 0.99471 0.9807 0.28909 0.0
H945 H 0.95317 0.92425 0.21899 0.0
H946 H 0.98325 0.93985 0.28586 0.0
O947 O 0.96076 0.96806 0.22067 0.0
H948 H 0.95289 0.88419 0.22524 0.0
H949 H 0.98379 0.89991 0.292 0.0
C950 C 0.94904 0.97747 0.26473 0.0
C951 C 0.95194 0.00036 0.27148 0.0
C952 C 0.93549 0.01084 0.28323 0.0
C953 C 0.91562 -0.00131 0.28801 0.0
C954 C 0.9129 0.9757 0.28124 0.0
C955 C 0.92941 0.96524 0.26965 0.0
C956 C 0.99703 0.97644 0.25311 0.0
C957 C 0.0113 0.97845 0.23548 0.0
C958 C 0.03353 0.98683 0.23977 0.0
C959 C 0.04198 0.9931 0.26185 0.0
C960 C 0.02768 0.99074 0.27955 0.0
C961 C 0.00539 0.98243 0.2752 0.0
C962 C 0.96861 0.93498 0.25184 0.0
C963 C 0.95988 0.91905 0.23496 0.0
C964 C 0.95977 0.89615 0.23855 0.0
C965 C 0.9684 0.88881 0.25909 0.0
C966 C 0.97676 0.90494 0.27608 0.0
C967 C 0.97675 0.92781 0.2725 0.0
P968 P 0.5437 0.06672 0.71463 0.0
H969 H 0.56914 0.03148 0.69393 0.0
H970 H 0.60583 0.01787 0.70418 0.0
H971 H 0.60792 0.05697 0.76747 0.0
H972 H 0.5711 0.07056 0.75706 0.0
H973 H 0.49915 0.08336 0.71141 0.0
H974 H 0.4626 0.06759 0.72085 0.0
H975 H 0.49485 0.01356 0.75239 0.0
H976 H 0.5313 0.02912 0.74215 0.0
H977 H 0.57059 0.09865 0.69143 0.0
H978 H 0.53445 0.09886 0.75173 0.0
O979 O 0.54004 0.06203 0.68682 0.0
H980 H 0.58576 0.13681 0.70157 0.0
H981 H 0.54915 0.13752 0.76185 0.0
C982 C 0.56764 0.05237 0.72455 0.0
C983 C 0.57723 0.03674 0.71022 0.0
C984 C 0.59819 0.02887 0.71616 0.0
C985 C 0.60989 0.03659 0.73652 0.0
C986 C 0.59943 0.051 0.75154 0.0
C987 C 0.57839 0.05872 0.74564 0.0
C988 C 0.51791 0.05752 0.72623 0.0
C989 C 0.49836 0.06839 0.7208 0.0
C990 C 0.47746 0.05936 0.7263 0.0
C991 C 0.4757 0.03921 0.73734 0.0
C992 C 0.49553 0.02891 0.74362 0.0
C993 C 0.51645 0.03792 0.73797 0.0
C994 C 0.55097 0.09616 0.72053 0.0
C995 C 0.56539 0.10721 0.70655 0.0
C996 C 0.57405 0.12907 0.71239 0.0
C997 C 0.56857 0.14034 0.73247 0.0
C998 C 0.55379 0.1293 0.74633 0.0
C999 C 0.54515 0.10732 0.74044 0.0
P1000 P 0.03896 0.51623 0.32137 0.0
H1001 H 0.06839 0.55449 0.33969 0.0
H1002 H 0.10321 0.57169 0.3274 0.0
H1003 H 0.09548 0.52911 0.26612 0.0
H1004 H 0.06085 0.51167 0.27876 0.0
H1005 H 0.99479 0.51245 0.33861 0.0
H1006 H 0.95851 0.52529 0.32592 0.0
H1007 H 0.98783 0.55061 0.26721 0.0
H1008 H 0.02434 0.53821 0.28046 0.0
H1009 H 0.05931 0.48178 0.34678 0.0
H1010 H 0.02454 0.48602 0.28203 0.0
O1011 O 0.0404 0.52104 0.34924 0.0
H1012 H 0.06467 0.44224 0.33802 0.0
H1013 H 0.03079 0.4466 0.27256 0.0
C1014 C 0.06235 0.53141 0.31041 0.0
C1015 C 0.07404 0.54902 0.3235 0.0
C1016 C 0.09388 0.55899 0.31634 0.0
C1017 C 0.10227 0.55159 0.29588 0.0
C1018 C 0.08968 0.53489 0.28216 0.0
C1019 C 0.06986 0.52491 0.28937 0.0
C1020 C 0.01229 0.5248 0.31073 0.0
C1021 C 0.9934 0.52077 0.323 0.0
C1022 C 0.9726 0.52792 0.31558 0.0
C1023 C 0.97024 0.53903 0.29554 0.0
C1024 C 0.98915 0.54241 0.28288 0.0
C1025 C 0.01002 0.53528 0.29041 0.0
C1026 C 0.04124 0.4867 0.31519 0.0
C1027 C 0.05273 0.47414 0.33068 0.0
C1028 C 0.05604 0.45156 0.3255 0.0
C1029 C 0.04833 0.44119 0.30448 0.0
C1030 C 0.0367 0.4539 0.289 0.0
C1031 C 0.03316 0.47647 0.29435 0.0
H1032 H 0.19926 0.59702 0.2896 0.0
H1033 H 0.21216 0.52885 0.26869 0.0
H1034 H 0.17222 0.51788 0.26881 0.0
H1035 H 0.13449 0.52666 0.27886 0.0
H1036 H 0.12142 0.59457 0.30039 0.0
H1037 H 0.16064 0.60661 0.29607 0.0
C1038 C 0.19331 0.57983 0.28475 0.0
C1039 C 0.20873 0.56374 0.27938 0.0
C1040 C 0.17034 0.57353 0.28521 0.0
C1041 C 0.2007 0.54156 0.27305 0.0
C1042 C 0.17785 0.53524 0.27316 0.0
C1043 C 0.14005 0.54422 0.28207 0.0
C1044 C 0.12506 0.55966 0.29008 0.0
C1045 C 0.16263 0.55095 0.27978 0.0
C1046 C 0.13269 0.58228 0.2945 0.0
C1047 C 0.1551 0.58918 0.29199 0.0
H1048 H 0.28544 0.36678 0.65603 0.0
H1049 H 0.26969 0.43541 0.6471 0.0
H1050 H 0.30963 0.44677 0.64802 0.0
H1051 H 0.34868 0.43805 0.65611 0.0
H1052 H 0.36469 0.36928 0.66387 0.0
H1053 H 0.32488 0.35727 0.65905 0.0
C1054 C 0.29072 0.38418 0.65402 0.0
C1055 C 0.27458 0.40028 0.65193 0.0
C1056 C 0.31373 0.39069 0.65492 0.0
C1057 C 0.28174 0.42269 0.64897 0.0
C1058 C 0.30459 0.42925 0.64964 0.0
C1059 C 0.34362 0.42034 0.65619 0.0
C1060 C 0.35975 0.40467 0.66074 0.0
C1061 C 0.32071 0.41351 0.65332 0.0
C1062 C 0.35265 0.38181 0.66096 0.0
C1063 C 0.32988 0.3749 0.65816 0.0
H1064 H 0.71521 0.03565 0.74488 0.0
H1065 H 0.69971 0.96591 0.72377 0.0
H1066 H 0.65965 0.97116 0.72591 0.0
H1067 H 0.62889 0.99643 0.7305 0.0
H1068 H 0.64465 0.06618 0.75136 0.0
H1069 H 0.68465 0.05995 0.75301 0.0
C1070 C 0.70308 0.02154 0.74098 0.0
C1071 C 0.71042 0.0005 0.73391 0.0
C1072 C 0.68008 0.02468 0.74218 0.0
C1073 C 0.69451 0.98231 0.72919 0.0
C1074 C 0.67158 0.98531 0.73033 0.0
C1075 C 0.64111 0.01018 0.73562 0.0
C1076 C 0.6338 0.03174 0.74068 0.0
C1077 C 0.66415 0.00655 0.73629 0.0
C1078 C 0.64979 0.04936 0.74758 0.0
C1079 C 0.6727 0.04587 0.74833 0.0
H1080 H 0.82848 0.02963 0.3325 0.0
H1081 H 0.84246 0.08731 0.29415 0.0
H1082 H 0.87699 0.07165 0.28243 0.0
H1083 H 0.90139 0.04019 0.2804 0.0
H1084 H 0.88801 0.98279 0.31932 0.0
H1085 H 0.85494 -0.0003 0.33331 0.0
C1086 C 0.83919 0.03889 0.32176 0.0
C1087 C 0.83277 0.0595 0.31404 0.0
C1088 C 0.859 0.02974 0.31498 0.0
C1089 C 0.84694 0.07137 0.30028 0.0
C1090 C 0.86668 0.0624 0.2935 0.0
C1091 C 0.89158 0.03156 0.29234 0.0
C1092 C 0.89711 0.01012 0.29859 0.0
C1093 C 0.87264 0.0414 0.30039 0.0
C1094 C 0.88392 -0.00089 0.31385 0.0
C1095 C 0.86505 0.00881 0.32195 0.0
H1096 H 0.28082 0.19894 0.5661 0.0
H1097 H 0.30878 0.18509 0.63175 0.0
H1098 H 0.30663 0.14497 0.62088 0.0
H1099 H 0.29925 0.11411 0.59192 0.0
H1100 H 0.27286 0.12832 0.5258 0.0
H1101 H 0.27149 0.16786 0.53786 0.0
C1102 C 0.28623 0.18714 0.57813 0.0
C1103 C 0.29511 0.19506 0.59965 0.0
C1104 C 0.28523 0.16411 0.57168 0.0
C1105 C 0.30198 0.17949 0.61503 0.0
C1106 C 0.30079 0.15653 0.60882 0.0
C1107 C 0.29318 0.12585 0.58015 0.0
C1108 C 0.28629 0.11821 0.55795 0.0
C1109 C 0.29288 0.1487 0.58705 0.0
C1110 C 0.27805 0.13362 0.54305 0.0
C1111 C 0.27743 0.15631 0.54987 0.0
H1112 H 0.346 0.8059 0.0037 0.0
H1113 H 0.34921 0.7815 0.93466 0.0
H1114 H 0.34385 0.81915 0.9223 0.0
H1115 H 0.3346 0.85808 0.93088 0.0
H1116 H 0.32801 0.88132 -0.00015 0.0
H1117 H 0.33908 0.84534 0.01241 0.0
C1118 C 0.34597 0.80888 0.98597 0.0
C1119 C 0.34812 0.79091 0.97014 0.0
C1120 C 0.34219 0.83043 0.97894 0.0
C1121 C 0.34772 0.79504 0.94721 0.0
C1122 C 0.34454 0.81657 0.94012 0.0
C1123 C 0.33559 0.85533 0.94867 0.0
C1124 C 0.33023 0.87246 0.96431 0.0
C1125 C 0.34115 0.83425 0.9558 0.0
C1126 C 0.33222 0.86866 0.98735 0.0
C1127 C 0.33833 0.84794 0.99459 0.0
H1128 H 0.65241 0.27284 0.4293 0.0
H1129 H 0.67303 0.27051 0.36122 0.0
H1130 H 0.67706 0.31144 0.36267 0.0
H1131 H 0.67821 0.34768 0.38446 0.0
H1132 H 0.65849 0.34982 0.45283 0.0
H1133 H 0.65008 0.30931 0.44983 0.0
C1134 C 0.65756 0.28127 0.41468 0.0
C1135 C 0.66278 0.2686 0.39533 0.0
C1136 C 0.66016 0.30481 0.41572 0.0
C1137 C 0.6691 0.27983 0.37643 0.0
C1138 C 0.67154 0.30325 0.37727 0.0
C1139 C 0.67196 0.33928 0.39866 0.0
C1140 C 0.66922 0.35178 0.41889 0.0
C1141 C 0.6677 0.31588 0.39703 0.0
C1142 C 0.66062 0.3407 0.43698 0.0
C1143 C 0.65607 0.31746 0.43539 0.0
H1144 H 0.69859 0.69872 0.00193 0.0
H1145 H 0.69151 0.72486 0.06988 0.0
H1146 H 0.69419 0.68734 0.08334 0.0
H1147 H 0.69675 0.64694 0.07574 0.0
H1148 H 0.7036 0.6203 0.00805 0.0
H1149 H 0.7031 0.65825 0.99458 0.0
C1150 C 0.6978 0.69624 0.0197 0.0
C1151 C 0.69469 0.71459 0.03483 0.0
C1152 C 0.69925 0.67454 0.02736 0.0
C1153 C 0.69381 0.71107 0.05783 0.0
C1154 C 0.6953 0.68959 0.06556 0.0
C1155 C 0.69806 0.64944 0.05801 0.0
C1156 C 0.6999 0.63086 0.04285 0.0
C1157 C 0.69767 0.67119 0.05045 0.0
C1158 C 0.70215 0.63437 0.02003 0.0
C1159 C 0.70177 0.65603 0.01233 0.0
H1160 H 0.59509 0.27404 0.20108 0.0
H1161 H 0.65911 0.30464 0.18559 0.0
H1162 H 0.64718 0.3021 0.1457 0.0
H1163 H 0.6175 0.29409 0.11562 0.0
H1164 H 0.55289 0.26521 0.13151 0.0
H1165 H 0.56633 0.2637 0.17067 0.0
C1166 C 0.60656 0.27989 0.18896 0.0
C1167 C 0.62788 0.28969 0.19636 0.0
C1168 C 0.59947 0.27873 0.16608 0.0
C1169 C 0.64254 0.29713 0.1804 0.0
C1170 C 0.63572 0.29574 0.15757 0.0
C1171 C 0.60638 0.28741 0.12764 0.0
C1172 C 0.58417 0.27993 0.12061 0.0
C1173 C 0.61404 0.28707 0.15028 0.0
C1174 C 0.57013 0.27089 0.13634 0.0
C1175 C 0.57773 0.2702 0.15883 0.0
H1176 H 0.9736 0.33672 0.83242 0.0
H1177 H 0.04282 0.34203 0.85825 0.0
H1178 H 0.03153 0.32967 0.89437 0.0
H1179 H 0.00233 0.31473 0.91768 0.0
H1180 H 0.93337 0.30776 0.8911 0.0
H1181 H 0.94419 0.32384 0.85646 0.0
C1182 C 0.98621 0.33544 0.84602 0.0
C1183 C 0.00904 0.34014 0.84255 0.0
C1184 C 0.97965 0.32798 0.86664 0.0
C1185 C 0.02514 0.33842 0.8604 0.0
C1186 C 0.0187 0.3313 0.88107 0.0
C1187 C 0.98966 0.31674 0.90432 0.0
C1188 C 0.96709 0.3099 0.90699 0.0
C1189 C 0.99606 0.32556 0.88421 0.0
C1190 C 0.95083 0.31307 0.88965 0.0
C1191 C 0.95703 0.3221 0.86972 0.0
H1192 H 0.36645 0.67055 0.28552 0.0
H1193 H 0.43502 0.65993 0.27073 0.0
H1194 H 0.44647 0.66403 0.31064 0.0
H1195 H 0.43775 0.6744 0.34932 0.0
H1196 H 0.36944 0.68499 0.36453 0.0
H1197 H 0.35701 0.67664 0.32493 0.0
C1198 C 0.38384 0.66881 0.29105 0.0
C1199 C 0.39991 0.66529 0.27512 0.0
C1200 C 0.39036 0.67129 0.31409 0.0
C1201 C 0.42232 0.66279 0.28259 0.0
C1202 C 0.42892 0.66525 0.30543 0.0
C1203 C 0.4201 0.67459 0.34395 0.0
C1204 C 0.40454 0.68054 0.35964 0.0
C1205 C 0.41321 0.67008 0.32124 0.0
C1206 C 0.38168 0.68041 0.35268 0.0
C1207 C 0.37463 0.67584 0.33005 0.0
H1208 H 0.01284 0.72795 0.70415 0.0
H1209 H 0.94789 0.70496 0.67308 0.0
H1210 H 0.96307 0.70516 0.63605 0.0
H1211 H 0.99561 0.70864 0.61278 0.0
H1212 H 0.06053 0.7313 0.64405 0.0
H1213 H 0.04447 0.73477 0.68059 0.0
C1214 C 0.00193 0.72324 0.68926 0.0
C1215 C 0.97933 0.71621 0.69142 0.0
C1216 C 0.01079 0.72325 0.66802 0.0
C1217 C 0.96538 0.71038 0.67193 0.0
C1218 C 0.97406 0.71039 0.65073 0.0
C1219 C 0.00617 0.7145 0.62759 0.0
C1220 C 0.02923 0.71957 0.62572 0.0
C1221 C 0.99687 0.71627 0.64862 0.0
C1222 C 0.04268 0.72746 0.64499 0.0
C1223 C 0.03355 0.72929 0.66594 0.0
H1224 H 0.79732 0.3818 0.72411 0.0
H1225 H 0.82604 0.3289 0.68507 0.0
H1226 H 0.86375 0.34348 0.69853 0.0
H1227 H 0.88864 0.37142 0.72122 0.0
H1228 H 0.85989 0.42401 0.76055 0.0
H1229 H 0.82213 0.40929 0.74727 0.0
C1230 C 0.81182 0.37343 0.71856 0.0
C1231 C 0.80884 0.35432 0.70356 0.0
C1232 C 0.83346 0.38184 0.72644 0.0
C1233 C 0.82783 0.34363 0.69663 0.0
C1234 C 0.84942 0.35198 0.70428 0.0
C1235 C 0.87409 0.3797 0.72677 0.0
C1236 C 0.87703 0.39877 0.74181 0.0
C1237 C 0.85244 0.37111 0.71912 0.0
C1238 C 0.85804 0.40917 0.74913 0.0
C1239 C 0.83646 0.40083 0.74147 0.0
H1240 H 0.67351 0.64152 0.33799 0.0
H1241 H 0.71726 0.58834 0.35176 0.0
H1242 H 0.6849 0.56355 0.35907 0.0
H1243 H 0.64394 0.55628 0.35927 0.0
H1244 H 0.60046 0.60978 0.34624 0.0
H1245 H 0.63298 0.63514 0.34089 0.0
C1246 C 0.67601 0.62456 0.34273 0.0
C1247 C 0.69774 0.61673 0.34405 0.0
C1248 C 0.65736 0.61035 0.34676 0.0
C1249 C 0.70069 0.59478 0.35049 0.0
C1250 C 0.68219 0.58052 0.35453 0.0
C1251 C 0.64164 0.57348 0.35521 0.0
C1252 C 0.61986 0.58113 0.353 0.0
C1253 C 0.66042 0.588 0.35228 0.0
C1254 C 0.61708 0.60357 0.34818 0.0
C1255 C 0.63565 0.61802 0.34498 0.0
H1256 H 0.35887 0.04413 0.24899 0.0
H1257 H 0.30543 0.99727 0.22099 0.0
H1258 H 0.33297 0.97233 0.20666 0.0
H1259 H 0.37218 0.96401 0.20185 0.0
H1260 H 0.42558 0.00997 0.23176 0.0
H1261 H 0.39806 0.03523 0.24522 0.0
C1262 C 0.35324 0.02849 0.2397 0.0
C1263 C 0.33013 0.02261 0.23599 0.0
C1264 C 0.36915 0.0141 0.23176 0.0
C1265 C 0.32312 0.00218 0.2241 0.0
C1266 C 0.33886 0.98792 0.21588 0.0
C1267 C 0.37785 0.9794 0.21155 0.0
C1268 C 0.401 0.98504 0.21565 0.0
C1269 C 0.36192 0.9937 0.21965 0.0
C1270 C 0.40793 0.00531 0.22795 0.0
C1271 C 0.39219 0.01973 0.23582 0.0
H1272 H 0.1389 0.99514 0.68388 0.0
H1273 H 0.18423 0.04646 0.66074 0.0
H1274 H 0.15294 0.07024 0.65395 0.0
H1275 H 0.1127 0.07612 0.6539 0.0
H1276 H 0.06775 0.02585 0.67952 0.0
H1277 H 0.09886 0.00187 0.68559 0.0
C1278 C 0.14192 0.01153 0.67734 0.0
C1279 C 0.16384 0.01898 0.67273 0.0
C1280 C 0.12391 0.02525 0.67377 0.0
C1281 C 0.16752 0.04034 0.66446 0.0
C1282 C 0.14963 0.05393 0.66054 0.0
C1283 C 0.10968 0.06009 0.66115 0.0
C1284 C 0.08776 0.05286 0.6661 0.0
C1285 C 0.12776 0.04655 0.66512 0.0
C1286 C 0.08428 0.03176 0.67509 0.0
C1287 C 0.10212 0.01806 0.67875 0.0
H1288 H 0.71752 0.81059 0.41409 0.0
H1289 H 0.69285 0.8326 0.35019 0.0
H1290 H 0.706 0.87124 0.36184 0.0
H1291 H 0.72367 0.89892 0.39057 0.0
H1292 H 0.74769 0.87684 0.45462 0.0
H1293 H 0.73542 0.83809 0.44259 0.0
C1294 C 0.71514 0.82381 0.40264 0.0
C1295 C 0.70426 0.81871 0.3813 0.0
C1296 C 0.72247 0.846 0.40954 0.0
C1297 C 0.70116 0.83607 0.36674 0.0
C1298 C 0.70866 0.85817 0.37338 0.0
C1299 C 0.72637 0.88558 0.4018 0.0
C1300 C 0.73652 0.89073 0.42346 0.0
C1301 C 0.71922 0.86335 0.39479 0.0
C1302 C 0.73965 0.87333 0.43796 0.0
C1303 C 0.73276 0.85117 0.43105 0.0
H1304 H 0.67488 0.1417 0.98394 0.0
H1305 H 0.64952 0.18584 0.03494 0.0
H1306 H 0.6423 0.15404 0.05795 0.0
H1307 H 0.64297 0.11374 0.06348 0.0
H1308 H 0.67006 0.0699 0.01328 0.0
H1309 H 0.67647 0.10152 0.98994 0.0
C1310 C 0.66771 0.14436 6e-05 0.0
C1311 C 0.66269 0.16611 0.00767 0.0
C1312 C 0.66383 0.12605 0.01333 0.0
C1313 C 0.65357 0.16928 0.02868 0.0
C1314 C 0.64942 0.15111 0.04186 0.0
C1315 C 0.65055 0.1111 0.04758 0.0
C1316 C 0.65597 0.08938 0.04019 0.0
C1317 C 0.65454 0.12943 0.03437 0.0
C1318 C 0.66538 0.08632 0.01928 0.0
C1319 C 0.6692 0.10443 0.00596 0.0
H1320 H 0.34106 0.70334 0.62172 0.0
H1321 H 0.32878 0.67013 0.68247 0.0
H1322 H 0.33606 0.63407 0.66383 0.0
H1323 H 0.34377 0.61164 0.62954 0.0
H1324 H 0.35618 0.64501 0.56901 0.0
H1325 H 0.35071 0.68131 0.5882 0.0
C1326 C 0.34014 0.68826 0.63096 0.0
C1327 C 0.33417 0.68943 0.65339 0.0
C1328 C 0.34401 0.66755 0.62006 0.0
C1329 C 0.33318 0.66971 0.66514 0.0
C1330 C 0.33724 0.64905 0.65446 0.0
C1331 C 0.34527 0.62691 0.62063 0.0
C1332 C 0.35019 0.62571 0.59791 0.0
C1333 C 0.34226 0.64772 0.63181 0.0
C1334 C 0.35242 0.64557 0.58654 0.0
C1335 C 0.34921 0.66629 0.59747 0.0
H1336 H 0.2502 0.31046 0.99343 0.0
H1337 H 0.27928 0.35057 0.05148 0.0
H1338 H 0.27168 0.38485 0.03284 0.0
H1339 H 0.25724 0.4035 -0.00018 0.0
H1340 H 0.22727 0.3635 0.94222 0.0
H1341 H 0.23469 0.3291 0.96092 0.0
C1342 C 0.25483 0.3267 0.00203 0.0
C1343 C 0.26536 0.32794 0.02378 0.0
C1344 C 0.25029 0.34636 0.99127 0.0
C1345 C 0.27112 0.34912 0.03474 0.0
C1346 C 0.26685 0.36875 0.02408 0.0
C1347 C 0.25246 0.38722 0.99137 0.0
C1348 C 0.24186 0.38597 0.96968 0.0
C1349 C 0.25657 0.36757 0.0023 0.0
C1350 C 0.23538 0.36483 0.95898 0.0
C1351 C 0.23967 0.34519 0.96963 0.0
H1352 H 0.34064 0.68452 0.84238 0.0
H1353 H 0.38591 0.72434 0.8047 0.0
H1354 H 0.40093 0.74499 0.83925 0.0
H1355 H 0.40147 0.75161 0.88013 0.0
H1356 H 0.35588 0.71236 0.91792 0.0
H1357 H 0.34093 0.69144 0.88338 0.0
C1358 C 0.3538 0.69771 0.84172 0.0
C1359 C 0.36212 0.70285 0.82095 0.0
C1360 C 0.36236 0.70958 0.86167 0.0
C1361 C 0.37917 0.72001 0.82042 0.0
C1362 C 0.38779 0.73185 0.84019 0.0
C1363 C 0.38808 0.73865 0.88079 0.0
C1364 C 0.37979 0.73359 0.90158 0.0
C1365 C 0.37949 0.7268 0.86088 0.0
C1366 C 0.36274 0.71644 0.90217 0.0
C1367 C 0.3541 0.70454 0.88242 0.0
H1368 H 0.05899 0.72917 0.18222 0.0
H1369 H 0.02335 0.66419 0.18086 0.0
H1370 H 0.03049 0.65747 0.14119 0.0
H1371 H 0.0467 0.6702 0.10703 0.0
H1372 H 0.0792 0.73679 0.10766 0.0
H1373 H 0.07375 0.74255 0.1476 0.0
C1374 C 0.05295 0.71346 0.17327 0.0
C1375 C 0.04085 0.6971 0.18445 0.0
C1376 C 0.05655 0.71001 0.15036 0.0
C1377 C 0.03276 0.677 0.17259 0.0
C1378 C 0.03682 0.67318 0.14993 0.0
C1379 C 0.05231 0.68615 0.11573 0.0
C1380 C 0.06346 0.70297 0.10417 0.0
C1381 C 0.04857 0.68964 0.13861 0.0
C1382 C 0.07096 0.72331 0.11606 0.0
C1383 C 0.06771 0.72672 0.13892 0.0
H1384 H 0.61137 0.34526 0.68994 0.0
H1385 H 0.67246 0.33254 0.65762 0.0
H1386 H 0.65471 0.34119 0.6215 0.0
H1387 H 0.62035 0.34781 0.59846 0.0
H1388 H 0.55896 0.35857 0.63083 0.0
H1389 H 0.57826 0.35524 0.66757 0.0
C1390 C 0.62095 0.34472 0.67508 0.0
C1391 C 0.64311 0.33798 0.67643 0.0
C1392 C 0.61043 0.349 0.6543 0.0
C1393 C 0.65529 0.33746 0.65701 0.0
C1394 C 0.64511 0.34229 0.63632 0.0
C1395 C 0.61134 0.3497 0.61362 0.0
C1396 C 0.58827 0.35316 0.61202 0.0
C1397 C 0.62246 0.34732 0.63465 0.0
C1398 C 0.57668 0.35555 0.63171 0.0
C1399 C 0.58771 0.35373 0.65269 0.0
H1400 H 0.04504 0.23828 0.3652 0.0
H1401 H 0.99335 0.22282 0.31209 0.0
H1402 H 0.96816 0.20781 0.33904 0.0
H1403 H 0.96055 0.19969 0.3778 0.0
H1404 H 0.01226 0.21513 0.43084 0.0
H1405 H 0.0376 0.22976 0.40382 0.0
C1406 C 0.02829 0.23157 0.35949 0.0
C1407 C 0.02112 0.23167 0.33665 0.0
C1408 C 0.01384 0.22307 0.37508 0.0
C1409 C -0.00068 0.22296 0.32957 0.0
C1410 C 0.98488 0.21438 0.34497 0.0
C1411 C 0.97744 0.20605 0.3834 0.0
C1412 C 0.98449 0.20633 0.40631 0.0
C1413 C 0.99194 0.2144 0.36777 0.0
C1414 C 0.00632 0.21497 0.41335 0.0
C1415 C 0.02086 0.22323 0.3979 0.0
H1416 H 0.3257 0.60746 0.37951 0.0
H1417 H 0.27174 0.55601 0.36871 0.0
H1418 H 0.27822 0.54509 0.40721 0.0
H1419 H 0.30101 0.54835 0.44305 0.0
H1420 H 0.35589 0.59877 0.45317 0.0
H1421 H 0.34731 0.61185 0.41582 0.0
C1422 C 0.31514 0.59406 0.38566 0.0
C1423 C 0.29829 0.58255 0.37122 0.0
C1424 C 0.31929 0.58752 0.40763 0.0
C1425 C 0.28489 0.5651 0.37944 0.0
C1426 C 0.2886 0.55881 0.40144 0.0
C1427 C 0.31087 0.56239 0.43716 0.0
C1428 C 0.32912 0.5725 0.45076 0.0
C1429 C 0.30603 0.56962 0.41555 0.0
C1430 C 0.34193 0.59053 0.44286 0.0
C1431 C 0.33699 0.59807 0.42156 0.0
H1432 H 0.21709 0.4539 0.74089 0.0
H1433 H 0.22075 0.38305 0.75011 0.0
H1434 H 0.22577 0.39081 0.79073 0.0
H1435 H 0.22675 0.41752 0.82376 0.0
H1436 H 0.22233 0.4882 0.81436 0.0
H1437 H 0.21987 0.48066 0.77366 0.0
C1438 C 0.21918 0.44013 0.75173 0.0
C1439 C 0.21843 0.41791 0.74243 0.0
C1440 C 0.22174 0.44467 0.77507 0.0
C1441 C 0.22118 0.40032 0.75679 0.0
C1442 C 0.22402 0.40473 0.78005 0.0
C1443 C 0.22557 0.43129 0.81278 0.0
C1444 C 0.22459 0.45337 0.82205 0.0
C1445 C 0.22399 0.42681 0.78939 0.0
C1446 C 0.2228 0.47102 0.80763 0.0
C1447 C 0.22148 0.46674 0.78436 0.0
H1448 H 0.76791 0.00648 0.63829 0.0
H1449 H 0.78914 0.93859 0.63579 0.0
H1450 H 0.78605 0.93713 0.59483 0.0
H1451 H 0.77898 0.95565 0.55978 0.0
H1452 H 0.75918 0.024 0.56222 0.0
H1453 H 0.75972 0.02461 0.60316 0.0
C1454 C 0.77166 0.99127 0.62881 0.0
C1455 C 0.77883 0.9727 0.64014 0.0
C1456 C 0.77017 0.99064 0.60524 0.0
C1457 C 0.78366 0.95316 0.62754 0.0
C1458 C 0.78194 0.95232 0.6041 0.0
C1459 C 0.77491 0.97074 0.56927 0.0
C1460 C 0.76922 0.98981 0.55794 0.0
C1461 C 0.77555 0.97107 0.59279 0.0
C1462 C 0.76347 0.00903 0.57049 0.0
C1463 C 0.7639 0.00944 0.59391 0.0
H1464 H 0.74058 0.04061 0.25387 0.0
H1465 H 0.6809 0.06907 0.27718 0.0
H1466 H 0.66044 0.05733 0.24141 0.0
H1467 H 0.65994 0.04016 0.20314 0.0
H1468 H 0.71951 0.01131 0.17971 0.0
H1469 H 0.73973 0.02239 0.21573 0.0
C1470 C 0.72309 0.0442 0.25105 0.0
C1471 C 0.7121 0.05528 0.26821 0.0
C1472 C 0.7115 0.03751 0.23039 0.0
C1473 C 0.68949 0.05996 0.26442 0.0
C1474 C 0.67787 0.05345 0.2439 0.0
C1475 C 0.67724 0.03595 0.20599 0.0
C1476 C 0.68817 0.02492 0.18867 0.0
C1477 C 0.68871 0.04223 0.22677 0.0
C1478 C 0.71075 0.02004 0.1926 0.0
C1479 C 0.72231 0.02628 0.21324 0.0
H1480 H 0.35978 0.31365 0.55119 0.0
H1481 H 0.38662 0.26579 0.59539 0.0
H1482 H 0.42429 0.27451 0.58321 0.0
H1483 H 0.44989 0.2974 0.56173 0.0
H1484 H 0.42302 0.34587 0.51835 0.0
H1485 H 0.38505 0.33533 0.52865 0.0
C1486 C 0.37381 0.30491 0.558 0.0
C1487 C 0.37035 0.2891 0.57422 0.0
C1488 C 0.39545 0.31029 0.55124 0.0
C1489 C 0.38878 0.27807 0.58293 0.0
C1490 C 0.41035 0.28307 0.57601 0.0
C1491 C 0.43568 0.30542 0.55429 0.0
C1492 C 0.43926 0.32244 0.53935 0.0
C1493 C 0.41392 0.29939 0.56042 0.0
C1494 C 0.42072 0.33292 0.5301 0.0
C1495 C 0.39901 0.32683 0.5359 0.0
H1496 H 0.25319 0.70845 0.95388 0.0
H1497 H 0.27189 0.72323 0.0243 0.0
H1498 H 0.23247 0.71907 0.03295 0.0
H1499 H 0.1928 0.71004 0.02064 0.0
H1500 H 0.17459 0.69375 0.95035 0.0
H1501 H 0.21369 0.69999 0.94155 0.0
C1502 C 0.24867 0.71096 0.97112 0.0
C1503 C 0.26551 0.71612 0.98841 0.0
C1504 C 0.22604 0.70823 0.97602 0.0
C1505 C 0.25929 0.7192 0.01066 0.0
C1506 C 0.23675 0.71679 0.01563 0.0
C1507 C 0.19741 0.70773 0.00341 0.0
C1508 C 0.18073 0.70144 0.9862 0.0
C1509 C 0.22001 0.71104 -0.00152 0.0
C1510 C 0.18698 0.69888 0.96391 0.0
C1511 C 0.20938 0.7023 0.95886 0.0
H1512 H 0.74399 0.19499 0.43767 0.0
H1513 H 0.76419 0.20866 0.37138 0.0
H1514 H 0.80353 0.20642 0.38408 0.0
H1515 H 0.832 0.1981 0.41332 0.0
H1516 H 0.81168 0.18435 0.47951 0.0
H1517 H 0.77257 0.18891 0.46743 0.0
C1518 C 0.75698 0.19769 0.42601 0.0
C1519 C 0.75108 0.20187 0.40356 0.0
C1520 C 0.77956 0.19614 0.43335 0.0
C1521 C 0.7682 0.20537 0.38875 0.0
C1522 C 0.79073 0.20403 0.39598 0.0
C1523 C 0.81906 0.19645 0.42521 0.0
C1524 C 0.82477 0.19072 0.44725 0.0
C1525 C 0.79658 0.19908 0.41814 0.0
C1526 C 0.80773 0.18838 0.46234 0.0
C1527 C 0.78536 0.19109 0.45548 0.0
H1528 H 0.60213 0.78993 0.01479 0.0
H1529 H 0.60235 0.75164 0.95135 0.0
H1530 H 0.56121 0.74911 0.94844 0.0
H1531 H 0.52527 0.75821 0.96387 0.0
H1532 H 0.52589 0.79931 0.02588 0.0
H1533 H 0.5666 0.79982 0.02957 0.0
C1534 C 0.59321 0.78087 0.00038 0.0
C1535 C 0.60527 0.77087 0.98338 0.0
C1536 C 0.56968 0.7799 -0.00139 0.0
C1537 C 0.59344 0.75948 0.96468 0.0
C1538 C 0.56993 0.75803 0.96301 0.0
C1539 C 0.53426 0.76747 0.97809 0.0
C1540 C 0.5223 0.7785 0.99466 0.0
C1541 C 0.55787 0.76831 0.97983 0.0
C1542 C 0.53442 0.79015 0.01311 0.0
C1543 C 0.5578 0.79067 0.01516 0.0
H1544 H 0.56732 0.35005 0.29907 0.0
H1545 H 0.62096 0.38292 0.26551 0.0
H1546 H 0.60561 0.41931 0.27369 0.0
H1547 H 0.57899 0.44205 0.29346 0.0
H1548 H 0.52665 0.40914 0.32859 0.0
H1549 H 0.53943 0.37245 0.31667 0.0
C1550 C 0.57551 0.36511 0.29324 0.0
C1551 C 0.59534 0.36375 0.2818 0.0
C1552 C 0.56692 0.386 0.29847 0.0
C1553 C 0.60574 0.38349 0.27445 0.0
C1554 C 0.597 0.40432 0.27916 0.0
C1555 C 0.57015 0.42681 0.29812 0.0
C1556 C 0.55197 0.42823 0.31191 0.0
C1557 C 0.5779 0.40582 0.2916 0.0
C1558 C 0.54082 0.40841 0.31812 0.0
C1559 C 0.5481 0.38746 0.3113 0.0
H1560 H 0.0366 0.28937 0.69815 0.0
H1561 H 0.01194 0.27 0.761 0.0
H1562 H 0.00841 0.23063 0.74688 0.0
H1563 H 0.01052 0.2021 0.71606 0.0
H1564 H 0.0358 0.22132 0.65328 0.0
H1565 H 0.04024 0.26045 0.66774 0.0
C1566 C 0.03025 0.27652 0.70863 0.0
C1567 C 0.02405 0.28255 0.73037 0.0
C1568 C 0.02826 0.25395 0.70038 0.0
C1569 C 0.01667 0.26571 0.74413 0.0
C1570 C 0.01457 0.24324 0.73604 0.0
C1571 C 0.01732 0.21476 0.70562 0.0
C1572 C 0.02274 0.20868 0.68357 0.0
C1573 C 0.02008 0.23721 0.71411 0.0
C1574 C 0.03115 0.22548 0.67019 0.0
C1575 C 0.0339 0.24787 0.67851 0.0
H1576 H 0.42674 0.74514 0.19183 0.0
H1577 H 0.37899 0.76856 0.23792 0.0
H1578 H 0.39486 0.80702 0.23646 0.0
H1579 H 0.42074 0.83429 0.22023 0.0
H1580 H 0.46775 0.81082 0.17345 0.0
H1581 H 0.45364 0.77207 0.17699 0.0
C1582 C 0.41993 0.7586 0.20176 0.0
C1583 C 0.40166 0.75394 0.21493 0.0
C1584 C 0.42888 0.7807 0.20057 0.0
C1585 C 0.39301 0.77165 0.2276 0.0
C1586 C 0.40206 0.79367 0.22675 0.0
C1587 C 0.42812 0.82065 0.21109 0.0
C1588 C 0.44521 0.82542 0.19655 0.0
C1589 C 0.41978 0.79843 0.21304 0.0
C1590 C 0.4544 0.8076 0.18456 0.0
C1591 C 0.44639 0.78545 0.18662 0.0
H1592 H 0.93497 0.61591 0.79699 0.0
H1593 H 0.96846 0.62445 0.7357 0.0
H1594 H 0.97394 0.58426 0.73225 0.0
H1595 H 0.9706 0.5469 0.74747 0.0
H1596 H 0.9371 0.53862 0.80875 0.0
H1597 H 0.93049 0.57855 0.81145 0.0
C1598 C 0.94334 0.60901 0.78277 0.0
C1599 C 0.95132 0.62325 0.76667 0.0
C1600 C 0.94663 0.58593 0.78098 0.0
C1601 C 0.96215 0.61393 0.74838 0.0
C1602 C 0.96534 0.59093 0.7464 0.0
C1603 C 0.96163 0.5538 0.76127 0.0
C1604 C 0.95449 0.5398 0.77796 0.0
C1605 C 0.95784 0.5768 0.76272 0.0
C1606 C 0.94312 0.54907 0.79588 0.0
C1607 C 0.9392 0.57188 0.79737 0.0
H1608 H 0.71222 0.4002 0.62465 0.0
H1609 H 0.72659 0.33482 0.59669 0.0
H1610 H 0.72502 0.34865 0.559 0.0
H1611 H 0.72072 0.3795 0.53422 0.0
H1612 H 0.70682 0.44511 0.56197 0.0
H1613 H 0.70626 0.43082 0.59951 0.0
C1614 C 0.71432 0.38882 0.61026 0.0
C1615 C 0.7191 0.36641 0.6134 0.0
C1616 C 0.71357 0.39695 0.58865 0.0
C1617 C 0.72281 0.35213 0.59466 0.0
C1618 C 0.72192 0.36001 0.57313 0.0
C1619 C 0.7177 0.39072 0.5485 0.0
C1620 C 0.71405 0.41338 0.54535 0.0
C1621 C 0.71759 0.38245 0.56997 0.0
C1622 C 0.70962 0.42757 0.56394 0.0
C1623 C 0.7094 0.41944 0.58541 0.0
H1624 H 0.76066 0.63812 0.23584 0.0
H1625 H 0.76322 0.57614 0.26912 0.0
H1626 H 0.75716 0.55466 0.23308 0.0
H1627 H 0.74811 0.55344 0.19236 0.0
H1628 H 0.74479 0.61538 0.15905 0.0
H1629 H 0.75437 0.6369 0.19467 0.0
C1630 C 0.76018 0.61992 0.2351 0.0
C1631 C 0.76277 0.60873 0.25503 0.0
C1632 C 0.75641 0.60766 0.21431 0.0
C1633 C 0.76199 0.58515 0.25395 0.0
C1634 C 0.75822 0.57284 0.23336 0.0
C1635 C 0.74966 0.57165 0.19292 0.0
C1636 C 0.74565 0.5828 0.17315 0.0
C1637 C 0.75502 0.58391 0.21348 0.0
C1638 C 0.74798 0.60639 0.17402 0.0
C1639 C 0.75329 0.61871 0.19441 0.0
H1640 H 0.25221 0.02135 0.33774 0.0
H1641 H 0.28489 0.08788 0.34192 0.0
H1642 H 0.29075 0.08664 0.38259 0.0
H1643 H 0.28855 0.06596 0.41653 0.0
H1644 H 0.25787 -0.00145 0.41246 0.0
H1645 H 0.24859 0.00109 0.37232 0.0
C1646 C 0.2601 0.03576 0.34764 0.0
C1647 C 0.26791 0.05477 0.33691 0.0
C1648 C 0.26385 0.03474 0.37101 0.0
C1649 C 0.27874 0.07306 0.34985 0.0
C1650 C 0.28211 0.07237 0.37308 0.0
C1651 C 0.27992 0.05176 0.40687 0.0
C1652 C 0.27416 0.03201 0.41748 0.0
C1653 C 0.27512 0.05314 0.38376 0.0
C1654 C 0.26242 0.01401 0.40478 0.0
C1655 C 0.25725 0.01539 0.38178 0.0
H1656 H 0.27385 -0.0007 0.7657 0.0
H1657 H 0.22398 0.94397 0.75454 0.0
H1658 H 0.22849 0.93583 0.794 0.0
H1659 H 0.24647 0.94443 0.83171 0.0
H1660 H 0.29755 -0.00143 0.84272 0.0
H1661 H 0.2934 0.00664 0.80302 0.0
C1662 C 0.26453 0.98501 0.77165 0.0
C1663 C 0.24899 0.97197 0.75698 0.0
C1664 C 0.26743 0.9802 0.79435 0.0
C1665 C 0.23613 0.95426 0.76543 0.0
C1666 C 0.23872 0.94954 0.78799 0.0
C1667 C 0.25666 0.95801 0.82538 0.0
C1668 C 0.27219 0.97097 0.84007 0.0
C1669 C 0.25426 0.96243 0.8026 0.0
C1670 C 0.28555 0.98831 0.83166 0.0
C1671 C 0.2831 0.99298 0.80902 0.0
H1672 H 0.60131 0.75465 0.38778 0.0
H1673 H 0.62407 0.69526 0.41741 0.0
H1674 H 0.58893 0.69048 0.43585 0.0
H1675 H 0.5513 0.70293 0.44306 0.0
H1676 H 0.52951 0.76346 0.4149 0.0
H1677 H 0.56501 0.76851 0.39707 0.0
C1678 C 0.5986 0.74066 0.3983 0.0
C1679 C 0.61487 0.72472 0.40033 0.0
C1680 C 0.57864 0.73844 0.40941 0.0
C1681 C 0.6113 0.70698 0.41439 0.0
C1682 C 0.59136 0.70449 0.42533 0.0
C1683 C 0.55441 0.71725 0.43308 0.0
C1684 C 0.53783 0.73278 0.43028 0.0
C1685 C 0.5748 0.71999 0.42275 0.0
C1686 C 0.54213 0.75142 0.41753 0.0
C1687 C 0.56233 0.75422 0.40716 0.0
H1688 H 0.75644 0.22001 0.98416 0.0
H1689 H 0.75163 0.289 0.96792 0.0
H1690 H 0.79251 0.29448 0.97004 0.0
H1691 H 0.82978 0.27917 0.97522 0.0
H1692 H 0.83428 0.2096 0.98954 0.0
H1693 H 0.79339 0.2047 0.98903 0.0
C1694 C 0.76434 0.23627 0.98113 0.0
C1695 C 0.75097 0.25426 0.97655 0.0
C1696 C 0.78783 0.23911 0.98179 0.0
C1697 C 0.76145 0.27516 0.97248 0.0
C1698 C 0.78487 0.2782 0.97333 0.0
C1699 C 0.82177 0.26302 0.97842 0.0
C1700 C 0.83499 0.24477 0.98238 0.0
C1701 C 0.79823 0.26028 0.97795 0.0
C1702 C 0.82443 0.22383 0.98621 0.0
C1703 C 0.80108 0.22104 0.98602 0.0
H1704 H 0.25012 0.76211 0.60678 0.0
H1705 H 0.22623 0.74686 0.6712 0.0
H1706 H 0.18917 0.73515 0.65348 0.0
H1707 H 0.1643 0.7273 0.61951 0.0
H1708 H 0.18837 0.7416 0.55489 0.0
H1709 H 0.22446 0.75634 0.57293 0.0
C1710 C 0.23661 0.75696 0.61703 0.0
C1711 C 0.24077 0.75575 0.64032 0.0
C1712 C 0.21545 0.74993 0.60667 0.0
C1713 C 0.22335 0.74806 0.65325 0.0
C1714 C 0.2022 0.74132 0.64313 0.0
C1715 C 0.17747 0.7336 0.60936 0.0
C1716 C 0.17375 0.73314 0.58588 0.0
C1717 C 0.1982 0.74179 0.61981 0.0
C1718 C 0.19079 0.74183 0.573 0.0
C1719 C 0.21146 0.75015 0.5833 0.0
H1720 H 0.36443 0.26688 0.07108 0.0
H1721 H 0.3544 0.23379 0.00492 0.0
H1722 H 0.39466 0.23853 -0.00017 0.0
H1723 H 0.4322 0.2551 0.01303 0.0
H1724 H 0.44189 0.28809 0.0794 0.0
H1725 H 0.40226 0.28067 0.08542 0.0
C1726 C 0.37113 0.26048 0.05566 0.0
C1727 C 0.35653 0.24978 0.03851 0.0
C1728 C 0.39418 0.26357 0.05275 0.0
C1729 C 0.36536 0.24155 0.0186 0.0
C1730 C 0.38835 0.24453 0.01557 0.0
C1731 C 0.42573 0.26032 0.02895 0.0
C1732 C 0.43998 0.27246 0.04559 0.0
C1733 C 0.40287 0.25587 0.03239 0.0
C1734 C 0.43123 0.27921 0.06608 0.0
C1735 C 0.40858 0.27485 0.06961 0.0
H1736 H 0.35657 0.59196 0.74053 0.0
H1737 H 0.40729 0.63292 0.71091 0.0
H1738 H 0.42784 0.59965 0.70203 0.0
H1739 H 0.43222 0.55893 0.70438 0.0
H1740 H 0.38087 0.51844 0.73389 0.0
H1741 H 0.36005 0.55151 0.74146 0.0
C1742 C 0.37209 0.5936 0.73205 0.0
C1743 C 0.38021 0.61482 0.72611 0.0
C1744 C 0.38389 0.57448 0.72724 0.0
C1745 C 0.40032 0.61669 0.71511 0.0
C1746 C 0.41223 0.59769 0.71027 0.0
C1747 C 0.41637 0.55733 0.71226 0.0
C1748 C 0.40837 0.53623 0.71888 0.0
C1749 C 0.40424 0.57648 0.71641 0.0
C1750 C 0.38779 0.53451 0.72914 0.0
C1751 C 0.37573 0.5534 0.73334 0.0
H1752 H 0.97845 0.79119 0.29153 0.0
H1753 H 0.99794 0.78021 0.2235 0.0
H1754 H 0.98929 0.81845 0.21567 0.0
H1755 H 0.97959 0.85595 0.2291 0.0
H1756 H 0.95989 0.86697 0.29701 0.0
H1757 H 0.96548 0.82777 0.30394 0.0
C1758 C 0.98057 0.79704 0.2749 0.0
C1759 C 0.98907 0.78288 0.25822 0.0
C1760 C 0.97582 0.81915 0.27055 0.0
C1761 C 0.99155 0.79075 0.23672 0.0
C1762 C 0.98668 0.81267 0.23222 0.0
C1763 C 0.97606 0.84971 0.24528 0.0
C1764 C 0.96956 0.86448 0.26257 0.0
C1765 C 0.97928 0.82715 0.24916 0.0
C1766 C 0.96535 0.85609 0.28353 0.0
C1767 C 0.96843 0.83365 0.28748 0.0
H1768 H 0.62308 0.22842 0.77392 0.0
H1769 H 0.6149 0.24613 0.70509 0.0
H1770 H 0.59278 0.21097 0.69519 0.0
H1771 H 0.57633 0.17501 0.70584 0.0
H1772 H 0.58515 0.15658 0.77441 0.0
H1773 H 0.60549 0.19268 0.78488 0.0
C1774 C 0.61598 0.22485 0.75691 0.0
C1775 C 0.62033 0.24004 0.74036 0.0
C1776 C 0.60326 0.20453 0.7513 0.0
C1777 C 0.61181 0.23469 0.71815 0.0
C1778 C 0.59908 0.21464 0.71247 0.0
C1779 C 0.58274 0.17883 0.72307 0.0
C1780 C 0.57926 0.16302 0.73926 0.0
C1781 C 0.59483 0.19938 0.72888 0.0
C1782 C 0.58733 0.1685 0.76162 0.0
C1783 C 0.59917 0.18907 0.7676 0.0
H1784 H 0.07905 0.34201 0.29403 0.0
H1785 H 0.01398 0.33148 0.25865 0.0
H1786 H 0.00809 0.37155 0.26385 0.0
H1787 H 0.02045 0.40908 0.28081 0.0
H1788 H 0.0862 0.41952 0.3152 0.0
H1789 H 0.09259 0.37992 0.3084 0.0
C1790 C 0.06367 0.34856 0.28729 0.0
C1791 C 0.04707 0.33389 0.2758 0.0
C1792 C 0.06037 0.37153 0.29047 0.0
C1793 C 0.02723 0.34253 0.2671 0.0
C1794 C 0.02375 0.3654 0.2703 0.0
C1795 C 0.03634 0.40282 0.2865 0.0
C1796 C 0.05265 0.4173 0.29883 0.0
C1797 C 0.0401 0.38001 0.28223 0.0
C1798 C 0.07306 0.40872 0.30621 0.0
C1799 C 0.07684 0.38608 0.30217 0.0
H1800 H 0.39998 0.6234 0.31357 0.0
H1801 H 0.36631 0.5672 0.27419 0.0
H1802 H 0.40103 0.54751 0.27528 0.0
H1803 H 0.43973 0.5446 0.2913 0.0
H1804 H 0.47287 0.60104 0.33078 0.0
H1805 H 0.43968 0.62243 0.32552 0.0
C1806 C 0.40033 0.60711 0.30473 0.0
C1807 C 0.38052 0.59676 0.294 0.0
C1808 C 0.42025 0.59584 0.30561 0.0
C1809 C 0.38129 0.57555 0.28268 0.0
C1810 C 0.40112 0.56422 0.28338 0.0
C1811 C 0.43974 0.56171 0.29843 0.0
C1812 C 0.45864 0.57117 0.31152 0.0
C1813 C 0.4205 0.57392 0.29542 0.0
C1814 C 0.45859 0.59344 0.32049 0.0
C1815 C 0.43957 0.60565 0.31759 0.0
H1816 H 0.12095 0.38306 0.70567 0.0
H1817 H 0.11781 0.43874 0.66293 0.0
H1818 H 0.08008 0.44543 0.67437 0.0
H1819 H 0.04948 0.43762 0.69917 0.0
H1820 H 0.0536 0.38283 0.74294 0.0
H1821 H 0.08924 0.37344 0.72813 0.0
C1822 C 0.11193 0.39648 0.69859 0.0
C1823 C 0.12233 0.41053 0.68365 0.0
C1824 C 0.09042 0.40048 0.70553 0.0
C1825 C 0.11028 0.42773 0.67454 0.0
C1826 C 0.08872 0.43163 0.68115 0.0
C1827 C 0.05816 0.42359 0.70541 0.0
C1828 C 0.04894 0.41109 0.72228 0.0
C1829 C 0.07889 0.4185 0.6971 0.0
C1830 C 0.06018 0.39266 0.72986 0.0
C1831 C 0.08067 0.38736 0.72152 0.0
H1832 H 0.84651 0.04876 0.6974 0.0
H1833 H 0.88248 0.99358 0.72177 0.0
H1834 H 0.91812 0.01309 0.71439 0.0
H1835 H 0.93869 0.04408 0.69748 0.0
H1836 H 0.90246 0.09901 0.67294 0.0
H1837 H 0.86729 0.08119 0.68376 0.0
C1838 C 0.86214 0.04109 0.70139 0.0
C1839 C 0.86177 0.01962 0.7099 0.0
C1840 C 0.88253 0.05221 0.69677 0.0
C1841 C 0.88223 0.01005 0.71512 0.0
C1842 C 0.90264 0.02115 0.7108 0.0
C1843 C 0.92317 0.05236 0.69489 0.0
C1844 C 0.9232 0.07272 0.68413 0.0
C1845 C 0.90294 0.04199 0.7011 0.0
C1846 C 0.90287 0.08311 0.68074 0.0
C1847 C 0.88275 0.073 0.68703 0.0
H1848 H 0.64 0.97761 0.24984 0.0
H1849 H 0.60565 0.02542 0.29012 0.0
H1850 H 0.5695 0.00938 0.27362 0.0
H1851 H 0.54769 0.98249 0.24711 0.0
H1852 H 0.58191 0.93389 0.20769 0.0
H1853 H 0.61807 0.9498 0.2243 0.0
C1854 C 0.62461 0.98451 0.25507 0.0
C1855 C 0.62557 0.00272 0.27118 0.0
C1856 C 0.60385 0.97517 0.24557 0.0
C1857 C 0.60544 0.01139 0.27778 0.0
C1858 C 0.58473 0.00225 0.26832 0.0
C1859 C 0.56301 0.97512 0.24237 0.0
C1860 C 0.56201 0.95702 0.22611 0.0
C1861 C 0.58375 0.98419 0.25216 0.0
C1862 C 0.58214 0.94803 0.2199 0.0
C1863 C 0.60284 0.95703 0.22949 0.0
H1864 H 0.26418 0.38121 0.57014 0.0
H1865 H 0.32566 0.37 0.6083 0.0
H1866 H 0.33877 0.40901 0.60554 0.0
H1867 H 0.3344 0.4453 0.58946 0.0
H1868 H 0.27382 0.45649 0.54988 0.0
H1869 H 0.25867 0.41862 0.5562 0.0
C1870 C 0.28026 0.38744 0.57819 0.0
C1871 C 0.29384 0.37271 0.58949 0.0
C1872 C 0.28792 0.40989 0.57622 0.0
C1873 C 0.3147 0.381 0.59974 0.0
C1874 C 0.32232 0.40331 0.59804 0.0
C1875 C 0.31768 0.43965 0.58261 0.0
C1876 C 0.30531 0.45365 0.56912 0.0
C1877 C 0.30926 0.41778 0.58598 0.0
C1878 C 0.28379 0.44592 0.5601 0.0
C1879 C 0.27511 0.42429 0.56375 0.0
H1880 H 0.29906 0.63168 0.98912 0.0
H1881 H 0.33874 0.63061 0.93106 0.0
H1882 H 0.32644 0.59117 0.92213 0.0
H1883 H 0.30182 0.55812 0.92902 0.0
H1884 H 0.25997 0.56086 0.98553 0.0
H1885 H 0.27614 0.59831 0.99707 0.0
C1886 C 0.30531 0.62279 0.97467 0.0
C1887 C 0.31967 0.63415 0.96068 0.0
C1888 C 0.2977 0.60038 0.9693 0.0
C1889 C 0.32759 0.6223 0.94205 0.0
C1890 C 0.32049 0.59976 0.93689 0.0
C1891 C 0.29621 0.56689 0.94386 0.0
C1892 C 0.27958 0.55658 0.95628 0.0
C1893 C 0.30508 0.58882 0.95007 0.0
C1894 C 0.27293 0.56811 0.97575 0.0
C1895 C 0.28202 0.58968 0.98229 0.0
H1896 H 0.67882 0.12118 0.38928 0.0
H1897 H 0.72132 0.11292 0.33374 0.0
H1898 H 0.73467 0.07872 0.34871 0.0
H1899 H 0.73753 0.05355 0.37942 0.0
H1900 H 0.69574 0.06166 0.43531 0.0
H1901 H 0.67862 0.09332 0.41814 0.0
C1902 C 0.69066 0.11166 0.38018 0.0
C1903 C 0.69929 0.11984 0.36059 0.0
C1904 C 0.69856 0.09208 0.38901 0.0
C1905 C 0.71454 0.1072 0.34897 0.0
C1906 C 0.72227 0.08765 0.35753 0.0
C1907 C 0.72452 0.06216 0.38771 0.0
C1908 C 0.71809 0.05557 0.40869 0.0
C1909 C 0.71495 0.08036 0.37786 0.0
C1910 C 0.70095 0.06651 0.41913 0.0
C1911 C 0.69125 0.08465 0.40937 0.0
H1912 H 0.63721 0.8611 0.98596 0.0
H1913 H 0.70311 0.85029 0.01532 0.0
H1914 H 0.70237 0.88492 0.03922 0.0
H1915 H 0.68193 0.9173 0.05313 0.0
H1916 H 0.61582 0.92704 0.0236 0.0
H1917 H 0.61767 0.89366 -0.00144 0.0
C1918 C 0.65153 0.86633 0.99745 0.0
C1919 C 0.67016 0.85305 -0.00112 0.0
C1920 C 0.65084 0.88599 0.0113 0.0
C1921 C 0.68855 0.86019 0.01388 0.0
C1922 C 0.6881 0.87996 0.0276 0.0
C1923 C 0.66805 0.91219 0.04106 0.0
C1924 C 0.64865 0.92449 0.04042 0.0
C1925 C 0.66919 0.89285 0.02666 0.0
C1926 C 0.63075 0.91762 0.02475 0.0
C1927 C 0.63184 0.89862 0.01032 0.0
H1928 H 0.58188 0.26069 0.3715 0.0
H1929 H 0.6248 0.32042 0.36564 0.0
H1930 H 0.61736 0.33375 0.40362 0.0
H1931 H 0.59631 0.32999 0.43739 0.0
H1932 H 0.5514 0.27162 0.44233 0.0
H1933 H 0.56238 0.25594 0.40615 0.0
C1934 C 0.58995 0.27641 0.3787 0.0
C1935 C 0.60393 0.28947 0.36574 0.0
C1936 C 0.58532 0.28419 0.40048 0.0
C1937 C 0.61414 0.30988 0.37529 0.0
C1938 C 0.60979 0.31762 0.39699 0.0
C1939 C 0.58929 0.31364 0.43071 0.0
C1940 C 0.57308 0.30195 0.44241 0.0
C1941 C 0.59515 0.30509 0.40962 0.0
C1942 C 0.56384 0.28093 0.4335 0.0
C1943 C 0.57009 0.272 0.41283 0.0
H1944 H 0.9756 0.23229 0.64562 0.0
H1945 H 0.9793 0.29709 0.61717 0.0
H1946 H 0.96708 0.27957 0.58024 0.0
H1947 H 0.95504 0.24599 0.55606 0.0
H1948 H 0.95125 0.18115 0.58428 0.0
H1949 H 0.96409 0.19852 0.62121 0.0
C1950 C 0.97365 0.24259 0.63136 0.0
C1951 C 0.97818 0.266 0.6342 0.0
C1952 C 0.96668 0.2324 0.61012 0.0
C1953 C 0.97589 0.27905 0.61548 0.0
C1954 C 0.96887 0.26906 0.59434 0.0
C1955 C 0.95681 0.23568 0.57033 0.0
C1956 C 0.95205 0.21233 0.56744 0.0
C1957 C 0.96412 0.24578 0.59149 0.0
C1958 C 0.95494 0.19915 0.58602 0.0
C1959 C 0.96216 0.20908 0.60716 0.0
H1960 H 0.35594 0.75796 0.14966 0.0
H1961 H 0.35056 0.68724 0.12949 0.0
H1962 H 0.3608 0.69574 0.09166 0.0
H1963 H 0.37287 0.72329 0.06492 0.0
H1964 H 0.38074 0.79367 0.0868 0.0
H1965 H 0.36749 0.78521 0.12322 0.0
C1966 C 0.35674 0.74436 0.13697 0.0
C1967 C 0.35245 0.722 0.1424 0.0
C1968 C 0.3631 0.74931 0.11552 0.0
C1969 C 0.35378 0.70461 0.12574 0.0
C1970 C 0.35968 0.70946 0.10414 0.0
C1971 C 0.3718 0.73678 0.07768 0.0
C1972 C 0.37776 0.75912 0.07295 0.0
C1973 C 0.36471 0.73175 0.09894 0.0
C1974 C 0.37589 0.77638 0.08966 0.0
C1975 C 0.36849 0.77155 0.11064 0.0
H1976 H 0.00641 0.73621 0.85571 0.0
H1977 H 0.9443 0.70313 0.87336 0.0
H1978 H 0.95972 0.7008 0.91175 0.0
H1979 H 0.99255 0.70338 0.93879 0.0
H1980 H 0.05468 0.73622 0.9213 0.0
H1981 H 0.03748 0.74374 0.88455 0.0
C1982 C 0.9961 0.72887 0.86805 0.0
C1983 C 0.97439 0.71946 0.86149 0.0
C1984 C 0.00515 0.72736 0.89012 0.0
C1985 C 0.96115 0.71031 0.87782 0.0
C1986 C 0.96998 0.70886 0.8998 0.0
C1987 C 0.00215 0.71254 0.92704 0.0
C1988 C 0.02486 0.71904 0.93258 0.0
C1989 C 0.99222 0.71657 0.9059 0.0
C1990 C 0.03712 0.73113 0.9174 0.0
C1991 C 0.02735 0.73526 0.89633 0.0
H1992 H 0.59679 0.40056 0.6167 0.0
H1993 H 0.6336 0.44084 0.67047 0.0
H1994 H 0.59887 0.45636 0.68186 0.0
H1995 H 0.55797 0.45627 0.67852 0.0
H1996 H 0.52054 0.41241 0.6278 0.0
H1997 H 0.55554 0.40092 0.61296 0.0
C1998 C 0.5972 0.41277 0.63085 0.0
C1999 C 0.6177 0.41929 0.6429 0.0
C2000 C 0.57703 0.42099 0.63787 0.0
C2001 C 0.61801 0.43537 0.66105 0.0
C2002 C 0.59816 0.44424 0.66759 0.0
C2003 C 0.55737 0.44408 0.6643 0.0
C2004 C 0.5365 0.4351 0.65452 0.0
C2005 C 0.57753 0.43675 0.65648 0.0
C2006 C 0.53623 0.41985 0.63562 0.0
C2007 C 0.55629 0.41306 0.62723 0.0
H2008 H 0.88596 0.59382 0.27174 0.0
H2009 H 0.85165 0.53404 0.29345 0.0
H2010 H 0.88734 0.51641 0.29784 0.0
H2011 H 0.92843 0.51884 0.29774 0.0
H2012 H 0.96285 0.57938 0.27794 0.0
H2013 H 0.92691 0.59559 0.27005 0.0
C2014 C 0.88624 0.57686 0.27725 0.0
C2015 C 0.86617 0.56535 0.28243 0.0
C2016 C 0.90684 0.56693 0.28005 0.0
C2017 C 0.86686 0.54335 0.28948 0.0
C2018 C 0.88727 0.53325 0.29201 0.0
C2019 C 0.92808 0.5356 0.29173 0.0
C2020 C 0.94834 0.54791 0.28861 0.0
C2021 C 0.90739 0.54505 0.28774 0.0
C2022 C 0.94754 0.56941 0.28031 0.0
C2023 C 0.92699 0.5788 0.27597 0.0
H2024 H 0.14074 0.03717 0.26544 0.0
H2025 H 0.14821 0.99572 0.32189 0.0
H2026 H 0.10861 0.98268 0.31646 0.0
H2027 H 0.07209 0.98228 0.29496 0.0
H2028 H 0.06502 0.02379 0.23854 0.0
H2029 H 0.10431 0.03745 0.24462 0.0
C2030 C 0.13374 0.02533 0.27663 0.0
C2031 C 0.14747 0.01742 0.29402 0.0
C2032 C 0.11103 0.01783 0.27336 0.0
C2033 C 0.13805 0.00208 0.30834 0.0
C2034 C 0.1154 0.9946 0.30525 0.0
C2035 C 0.0791 0.99451 0.28416 0.0
C2036 C 0.06566 0.00194 0.26627 0.0
C2037 C 0.10176 0.00228 0.28773 0.0
C2038 C 0.07508 0.01757 0.25224 0.0
C2039 C 0.09751 0.02547 0.25577 0.0
H2040 H 0.38511 0.97924 0.73671 0.0
H2041 H 0.35929 0.04395 0.7521 0.0
H2042 H 0.39731 0.06157 0.75398 0.0
H2043 H 0.43764 0.05895 0.74922 0.0
H2044 H 0.46303 0.9944 0.73205 0.0
H2045 H 0.42556 0.9764 0.73349 0.0
C2046 C 0.38778 0.99718 0.74065 0.0
C2047 C 0.36931 0.01025 0.74408 0.0
C2048 C 0.40966 0.00726 0.74147 0.0
C2049 C 0.37315 0.03347 0.74924 0.0
C2050 C 0.39491 0.04359 0.75032 0.0
C2051 C 0.43499 0.04094 0.74578 0.0
C2052 C 0.45322 0.02813 0.74048 0.0
C2053 C 0.41325 0.0307 0.7461 0.0
C2054 C 0.44947 0.00472 0.73649 0.0
C2055 C 0.42796 0.9944 0.73709 0.0
H2056 H 0.69571 0.61301 0.4085 0.0
H2057 H 0.62375 0.6002 0.40544 0.0
H2058 H 0.62843 0.56129 0.41455 0.0
H2059 H 0.65323 0.53101 0.42422 0.0
H2060 H 0.72505 0.54482 0.42796 0.0
H2061 H 0.72015 0.58321 0.41769 0.0
C2062 C 0.68101 0.60178 0.40993 0.0
C2063 C 0.65943 0.60955 0.4064 0.0
C2064 C 0.68381 0.57957 0.41529 0.0
C2065 C 0.64058 0.59469 0.40821 0.0
C2066 C 0.64324 0.57241 0.41337 0.0
C2067 C 0.66775 0.54245 0.42266 0.0
C2068 C 0.68946 0.53521 0.42703 0.0
C2069 C 0.6648 0.56467 0.41703 0.0
C2070 C 0.70817 0.55015 0.42502 0.0
C2071 C 0.70539 0.57207 0.41909 0.0
H2072 H 0.74635 0.37766 0.02118 0.0
H2073 H 0.67939 0.377 0.98984 0.0
H2074 H 0.67698 0.41645 0.00222 0.0
H2075 H 0.69305 0.45035 0.02351 0.0
H2076 H 0.76011 0.45144 0.05474 0.0
H2077 H 0.76328 0.41248 0.04095 0.0
C2078 C 0.73128 0.38618 0.01697 0.0
C2079 C 0.71294 0.37446 0.00469 0.0
C2080 C 0.73 0.40886 0.0242 0.0
C2081 C 0.69363 0.38574 -0.00068 0.0
C2082 C 0.69224 0.40825 0.0064 0.0
C2083 C 0.70856 0.44227 0.02694 0.0
C2084 C 0.72632 0.45386 0.04014 0.0
C2085 C 0.71024 0.41991 0.01901 0.0
C2086 C 0.74609 0.44286 0.04481 0.0
C2087 C 0.74793 0.4206 0.03688 0.0
H2088 H 0.26148 0.88926 0.61912 0.0
H2089 H 0.26522 0.84577 0.55936 0.0
H2090 H 0.26832 0.87843 0.53677 0.0
H2091 H 0.27207 0.91933 0.53428 0.0
H2092 H 0.27012 0.9627 0.5944 0.0
H2093 H 0.26365 0.93009 0.61638 0.0
C2094 C 0.2628 0.88688 0.60113 0.0
C2095 C 0.26329 0.86507 0.59101 0.0
C2096 C 0.26484 0.90573 0.58826 0.0
C2097 C 0.26493 0.86235 0.56764 0.0
C2098 C 0.26671 0.88103 0.55469 0.0
C2099 C 0.27025 0.92167 0.5522 0.0
C2100 C 0.27171 0.94349 0.56264 0.0
C2101 C 0.26706 0.9028 0.56488 0.0
C2102 C 0.26883 0.94617 0.58581 0.0
C2103 C 0.26534 0.92749 0.59847 0.0
H2104 H 0.31099 0.11533 0.03264 0.0
H2105 H 0.33492 0.13675 0.97007 0.0
H2106 H 0.33049 0.09809 0.95405 0.0
H2107 H 0.31794 0.05851 0.95718 0.0
H2108 H 0.29377 0.03732 0.01969 0.0
H2109 H 0.3001 0.07563 0.03632 0.0
C2110 C 0.31538 0.11157 0.01554 0.0
C2111 C 0.32318 0.12897 0.00257 0.0
C2112 C 0.31263 0.08934 0.00637 0.0
C2113 C 0.32882 0.12372 0.98044 0.0
C2114 C 0.32627 0.1016 0.97124 0.0
C2115 C 0.3144 0.06222 0.97455 0.0
C2116 C 0.30531 0.0451 0.98714 0.0
C2117 C 0.31796 0.08432 0.98397 0.0
C2118 C 0.30051 0.05025 0.00954 0.0
C2119 C 0.30419 0.07213 0.01909 0.0
H2120 H 0.41374 0.63102 0.60419 0.0
H2121 H 0.39601 0.69676 0.62835 0.0
H2122 H 0.4014 0.71099 0.59156 0.0
H2123 H 0.41092 0.7049 0.55252 0.0
H2124 H 0.42903 0.63949 0.52806 0.0
H2125 H 0.42416 0.62515 0.56508 0.0
C2126 C 0.41118 0.64849 0.60145 0.0
C2127 C 0.40441 0.66275 0.61903 0.0
C2128 C 0.41437 0.65665 0.5802 0.0
C2129 C 0.40126 0.68538 0.61517 0.0
C2130 C 0.40425 0.69355 0.59409 0.0
C2131 C 0.41348 0.68741 0.55519 0.0
C2132 C 0.42013 0.67324 0.5375 0.0
C2133 C 0.41065 0.6793 0.57646 0.0
C2134 C 0.42397 0.65077 0.54142 0.0
C2135 C 0.42112 0.64255 0.56256 0.0
H2136 H 0.02911 0.75384 0.38387 0.0
H2137 H 0.0391 0.68624 0.35861 0.0
H2138 H 0.05159 0.67658 0.39635 0.0
H2139 H 0.05908 0.68722 0.43663 0.0
H2140 H 0.04928 0.75497 0.46153 0.0
H2141 H 0.03705 0.76459 0.42379 0.0
C2142 C 0.03404 0.73698 0.38656 0.0
C2143 C 0.03315 0.7208 0.36841 0.0
C2144 C 0.04114 0.73154 0.40826 0.0
C2145 C 0.03961 0.69904 0.37227 0.0
C2146 C 0.04675 0.69349 0.39385 0.0
C2147 C 0.05449 0.70416 0.43375 0.0
C2148 C 0.05507 0.72034 0.4519 0.0
C2149 C 0.04754 0.70961 0.41197 0.0
C2150 C 0.04872 0.74211 0.44793 0.0
C2151 C 0.04184 0.74766 0.42633 0.0
H2152 H 0.62609 0.25811 0.88344 0.0
H2153 H 0.56139 0.25476 0.84682 0.0
H2154 H 0.54281 0.25721 0.8821 0.0
H2155 H 0.54503 0.26255 0.92322 0.0
H2156 H 0.60991 0.2679 0.95962 0.0
H2157 H 0.62821 0.2618 0.92459 0.0
C2158 C 0.60791 0.25773 0.88314 0.0
C2159 C 0.59519 0.25644 0.86248 0.0
C2160 C 0.59733 0.25944 0.90348 0.0
C2161 C 0.57163 0.25589 0.86246 0.0
C2162 C 0.56097 0.25729 0.88264 0.0
C2163 C 0.56318 0.26241 0.92351 0.0
C2164 C 0.57602 0.26582 0.94408 0.0
C2165 C 0.57368 0.25948 0.90323 0.0
C2166 C 0.59952 0.26508 0.94413 0.0
C2167 C 0.61005 0.26181 0.92405 0.0
H2168 H 0.99165 0.31316 0.1547 0.0
H2169 H 0.03871 0.26127 0.14898 0.0
H2170 H 0.02569 0.25277 0.10986 0.0
H2171 H 0.00019 0.25906 0.07761 0.0
H2172 H 0.95288 0.31059 0.08287 0.0
H2173 H 0.96698 0.32047 0.1217 0.0
C2174 C -0.00088 0.30006 0.14487 0.0
C2175 C 0.01604 0.28778 0.15485 0.0
C2176 C 0.99154 0.29519 0.12229 0.0
C2177 C 0.02561 0.27095 0.1418 0.0
C2178 C 0.01818 0.26604 0.1194 0.0
C2179 C 0.99293 0.27241 0.08729 0.0
C2180 C 0.9754 0.28395 0.07747 0.0
C2181 C 0.001 0.27787 0.10956 0.0
C2182 C 0.96646 0.30153 0.09004 0.0
C2183 C 0.97443 0.30709 0.11227 0.0
loop_
_geom_bond_atom_site_label_1
_geom_bond_atom_site_label_2
_geom_bond_distance
_geom_bond_site_symmetry_2
_ccdc_geom_bond_type
O0 Cd1 2.300 . S
O0 C7 1.275 . S
Cd1 O0 2.300 . S
Cd1 O9 2.381 . S
Cd1 O10 2.378 . S
O2 Cd3 2.385 . S
O2 C7 1.255 . S
Cd3 O2 2.385 . S
Cd3 O4 2.317 . S
O4 Cd3 2.317 . S
O4 C5 1.232 . S
C5 O4 1.232 . S
C5 O6 1.218 . S
O6 C5 1.218 . S
C7 O0 1.275 . S
C7 O2 1.255 . S
C8 O9 1.258 . S
C8 O10 1.256 . S
O9 Cd1 2.381 . S
O9 C8 1.258 . S
O10 Cd1 2.378 . S
O10 C8 1.256 . S
O11 Cd12 2.300 . S
O11 C18 1.275 . S
Cd12 O11 2.300 . S
Cd12 O20 2.381 . S
Cd12 O21 2.378 . S
O13 Cd14 2.385 . S
O13 C18 1.255 . S
Cd14 O13 2.385 . S
Cd14 O15 2.317 . S
O15 Cd14 2.317 . S
O15 C16 1.232 . S
C16 O15 1.232 . S
C16 O17 1.218 . S
O17 C16 1.218 . S
C18 O11 1.275 . S
C18 O13 1.255 . S
C19 O20 1.258 . S
C19 O21 1.256 . S
O20 Cd12 2.381 . S
O20 C19 1.258 . S
O21 Cd12 2.378 . S
O21 C19 1.256 . S
O22 Cd23 2.300 . S
O22 C29 1.275 . S
Cd23 O22 2.300 . S
Cd23 O31 2.381 1_565 S
Cd23 O32 2.378 . S
O24 Cd25 2.385 . S
O24 C29 1.255 . S
Cd25 O24 2.385 . S
Cd25 O26 2.317 . S
O26 Cd25 2.317 . S
O26 C27 1.232 . S
C27 O26 1.232 . S
C27 O28 1.218 . S
O28 C27 1.218 . S
C29 O22 1.275 . S
C29 O24 1.255 . S
C30 O31 1.258 . S
C30 O32 1.256 1_545 S
O31 Cd23 2.381 1_545 S
O31 C30 1.258 . S
O32 Cd23 2.378 . S
O32 C30 1.256 1_565 S
O33 Cd34 2.300 . S
O33 C40 1.275 . S
Cd34 O33 2.300 . S
Cd34 O42 2.381 1_545 S
Cd34 O43 2.378 . S
O35 Cd36 2.385 . S
O35 C40 1.255 . S
Cd36 O35 2.385 . S
Cd36 O37 2.317 . S
O37 Cd36 2.317 . S
O37 C38 1.232 . S
C38 O37 1.232 . S
C38 O39 1.218 . S
O39 C38 1.218 . S
C40 O33 1.275 . S
C40 O35 1.255 . S
C41 O42 1.258 . S
C41 O43 1.256 1_565 S
O42 Cd34 2.381 1_565 S
O42 C41 1.258 . S
O43 Cd34 2.378 . S
O43 C41 1.256 1_545 S
O44 Cd45 2.300 . S
O44 C51 1.275 . S
Cd45 O44 2.300 . S
Cd45 O53 2.381 . S
Cd45 O54 2.378 . S
O46 Cd47 2.385 . S
O46 C51 1.255 . S
Cd47 O46 2.385 . S
Cd47 O48 2.317 . S
O48 Cd47 2.317 . S
O48 C49 1.232 . S
C49 O48 1.232 . S
C49 O50 1.218 . S
O50 C49 1.218 . S
C51 O44 1.275 . S
C51 O46 1.255 . S
C52 O53 1.258 . S
C52 O54 1.256 . S
O53 Cd45 2.381 . S
O53 C52 1.258 . S
O54 Cd45 2.378 . S
O54 C52 1.256 . S
O55 Cd56 2.300 . S
O55 C62 1.275 . S
Cd56 O55 2.300 . S
Cd56 O64 2.381 1_554 S
Cd56 O65 2.378 . S
O57 Cd58 2.385 . S
O57 C62 1.255 . S
Cd58 O57 2.385 . S
Cd58 O59 2.317 . S
O59 Cd58 2.317 . S
O59 C60 1.232 . S
C60 O59 1.232 . S
C60 O61 1.218 . S
O61 C60 1.218 . S
C62 O55 1.275 . S
C62 O57 1.255 . S
C63 O64 1.258 . S
C63 O65 1.256 1_556 S
O64 Cd56 2.381 1_556 S
O64 C63 1.258 . S
O65 Cd56 2.378 . S
O65 C63 1.256 1_554 S
O66 Cd67 2.300 . S
O66 C73 1.275 . S
Cd67 O66 2.300 . S
Cd67 O75 2.381 . S
Cd67 O76 2.378 . S
O68 Cd69 2.385 . S
O68 C73 1.255 . S
Cd69 O68 2.385 . S
Cd69 O70 2.317 . S
O70 Cd69 2.317 . S
O70 C71 1.232 . S
C71 O70 1.232 . S
C71 O72 1.218 . S
O72 C71 1.218 . S
C73 O66 1.275 . S
C73 O68 1.255 . S
C74 O75 1.258 . S
C74 O76 1.256 . S
O75 Cd67 2.381 . S
O75 C74 1.258 . S
O76 Cd67 2.378 . S
O76 C74 1.256 . S
O77 Cd78 2.300 . S
O77 C84 1.275 . S
Cd78 O77 2.300 . S
Cd78 O86 2.381 1_556 S
Cd78 O87 2.378 . S
O79 Cd80 2.385 . S
O79 C84 1.255 . S
Cd80 O79 2.385 . S
Cd80 O81 2.317 . S
O81 Cd80 2.317 . S
O81 C82 1.232 . S
C82 O81 1.232 . S
C82 O83 1.218 . S
O83 C82 1.218 . S
C84 O77 1.275 . S
C84 O79 1.255 . S
C85 O86 1.258 . S
C85 O87 1.256 1_554 S
O86 Cd78 2.381 1_554 S
O86 C85 1.258 . S
O87 Cd78 2.378 . S
O87 C85 1.256 1_556 S
O88 Cd89 2.300 . S
O88 C95 1.275 . S
Cd89 O88 2.300 . S
Cd89 O97 2.381 . S
Cd89 O98 2.378 . S
O90 Cd91 2.385 . S
O90 C95 1.255 . S
Cd91 O90 2.385 . S
Cd91 O92 2.317 . S
O92 Cd91 2.317 . S
O92 C93 1.232 . S
C93 O92 1.232 . S
C93 O94 1.218 . S
O94 C93 1.218 . S
C95 O88 1.275 . S
C95 O90 1.255 . S
C96 O97 1.258 . S
C96 O98 1.256 . S
O97 Cd89 2.381 . S
O97 C96 1.258 . S
O98 Cd89 2.378 . S
O98 C96 1.256 . S
O99 Cd100 2.300 . S
O99 C106 1.275 . S
Cd100 O99 2.300 . S
Cd100 O108 2.381 1_455 S
Cd100 O109 2.378 . S
O101 Cd102 2.385 . S
O101 C106 1.255 . S
Cd102 O101 2.385 . S
Cd102 O103 2.317 . S
O103 Cd102 2.317 . S
O103 C104 1.232 . S
C104 O103 1.232 . S
C104 O105 1.218 . S
O105 C104 1.218 . S
C106 O99 1.275 . S
C106 O101 1.255 . S
C107 O108 1.258 . S
C107 O109 1.256 1_655 S
O108 Cd100 2.381 1_655 S
O108 C107 1.258 . S
O109 Cd100 2.378 . S
O109 C107 1.256 1_455 S
O110 Cd111 2.300 . S
O110 C117 1.275 . S
Cd111 O110 2.300 . S
Cd111 O119 2.381 . S
Cd111 O120 2.378 . S
O112 Cd113 2.385 . S
O112 C117 1.255 . S
Cd113 O112 2.385 . S
Cd113 O114 2.317 . S
O114 Cd113 2.317 . S
O114 C115 1.232 . S
C115 O114 1.232 . S
C115 O116 1.218 . S
O116 C115 1.218 . S
C117 O110 1.275 . S
C117 O112 1.255 . S
C118 O119 1.258 . S
C118 O120 1.256 . S
O119 Cd111 2.381 . S
O119 C118 1.258 . S
O120 Cd111 2.378 . S
O120 C118 1.256 . S
O121 Cd122 2.300 . S
O121 C128 1.275 . S
Cd122 O121 2.300 . S
Cd122 O130 2.381 1_655 S
Cd122 O131 2.378 . S
O123 Cd124 2.385 . S
O123 C128 1.255 . S
Cd124 O123 2.385 . S
Cd124 O125 2.317 . S
O125 Cd124 2.317 . S
O125 C126 1.232 . S
C126 O125 1.232 . S
C126 O127 1.218 . S
O127 C126 1.218 . S
C128 O121 1.275 . S
C128 O123 1.255 . S
C129 O130 1.258 . S
C129 O131 1.256 1_455 S
O130 Cd122 2.381 1_455 S
O130 C129 1.258 . S
O131 Cd122 2.378 . S
O131 C129 1.256 1_655 S
O132 Cd133 2.300 . S
O132 C139 1.275 . S
Cd133 O132 2.300 . S
Cd133 O141 2.381 . S
Cd133 O142 2.378 . S
O134 Cd135 2.385 . S
O134 C139 1.255 . S
Cd135 O134 2.385 . S
Cd135 O136 2.317 . S
O136 Cd135 2.317 . S
O136 C137 1.232 . S
C137 O136 1.232 . S
C137 O138 1.218 . S
O138 C137 1.218 . S
C139 O132 1.275 . S
C139 O134 1.255 . S
C140 O141 1.258 . S
C140 O142 1.256 . S
O141 Cd133 2.381 . S
O141 C140 1.258 . S
O142 Cd133 2.378 . S
O142 C140 1.256 . S
O143 Cd144 2.300 . S
O143 C150 1.275 . S
Cd144 O143 2.300 . S
Cd144 O152 2.381 . S
Cd144 O153 2.378 . S
O145 Cd146 2.385 . S
O145 C150 1.255 . S
Cd146 O145 2.385 . S
Cd146 O147 2.317 . S
O147 Cd146 2.317 . S
O147 C148 1.232 . S
C148 O147 1.232 . S
C148 O149 1.218 . S
O149 C148 1.218 . S
C150 O143 1.275 . S
C150 O145 1.255 . S
C151 O152 1.258 . S
C151 O153 1.256 . S
O152 Cd144 2.381 . S
O152 C151 1.258 . S
O153 Cd144 2.378 . S
O153 C151 1.256 . S
O154 Cd155 2.300 1_545 S
O154 C161 1.275 . S
Cd155 O154 2.300 1_565 S
Cd155 O163 2.381 1_565 S
Cd155 O164 2.378 . S
O156 Cd157 2.385 . S
O156 C161 1.255 1_565 S
Cd157 O156 2.385 . S
Cd157 O158 2.317 . S
O158 Cd157 2.317 . S
O158 C159 1.232 . S
C159 O158 1.232 . S
C159 O160 1.218 . S
O160 C159 1.218 . S
C161 O154 1.275 . S
C161 O156 1.255 1_545 S
C162 O163 1.258 1_565 S
C162 O164 1.256 . S
O163 Cd155 2.381 1_545 S
O163 C162 1.258 1_545 S
O164 Cd155 2.378 . S
O164 C162 1.256 . S
O165 Cd166 2.300 1_565 S
O165 C172 1.275 . S
Cd166 O165 2.300 1_545 S
Cd166 O174 2.381 1_545 S
Cd166 O175 2.378 . S
O167 Cd168 2.385 . S
O167 C172 1.255 1_545 S
Cd168 O167 2.385 . S
Cd168 O169 2.317 . S
O169 Cd168 2.317 . S
O169 C170 1.232 . S
C170 O169 1.232 . S
C170 O171 1.218 . S
O171 C170 1.218 . S
C172 O165 1.275 . S
C172 O167 1.255 1_565 S
C173 O174 1.258 1_545 S
C173 O175 1.256 . S
O174 Cd166 2.381 1_565 S
O174 C173 1.258 1_565 S
O175 Cd166 2.378 . S
O175 C173 1.256 . S
O176 Cd177 2.300 . S
O176 C183 1.275 . S
Cd177 O176 2.300 . S
Cd177 O185 2.381 . S
Cd177 O186 2.378 . S
O178 Cd179 2.385 . S
O178 C183 1.255 . S
Cd179 O178 2.385 . S
Cd179 O180 2.317 . S
O180 Cd179 2.317 . S
O180 C181 1.232 . S
C181 O180 1.232 . S
C181 O182 1.218 . S
O182 C181 1.218 . S
C183 O176 1.275 . S
C183 O178 1.255 . S
C184 O185 1.258 . S
C184 O186 1.256 . S
O185 Cd177 2.381 . S
O185 C184 1.258 . S
O186 Cd177 2.378 . S
O186 C184 1.256 . S
O187 Cd188 2.300 1_556 S
O187 C194 1.275 . S
Cd188 O187 2.300 1_554 S
Cd188 O196 2.381 1_554 S
Cd188 O197 2.378 . S
O189 Cd190 2.385 . S
O189 C194 1.255 1_554 S
Cd190 O189 2.385 . S
Cd190 O191 2.317 . S
O191 Cd190 2.317 . S
O191 C192 1.232 . S
C192 O191 1.232 . S
C192 O193 1.218 . S
O193 C192 1.218 . S
C194 O187 1.275 . S
C194 O189 1.255 1_556 S
C195 O196 1.258 1_554 S
C195 O197 1.256 . S
O196 Cd188 2.381 1_556 S
O196 C195 1.258 1_556 S
O197 Cd188 2.378 . S
O197 C195 1.256 . S
O198 Cd199 2.300 . S
O198 C205 1.275 . S
Cd199 O198 2.300 . S
Cd199 O207 2.381 . S
Cd199 O208 2.378 . S
O200 Cd201 2.385 . S
O200 C205 1.255 . S
Cd201 O200 2.385 . S
Cd201 O202 2.317 . S
O202 Cd201 2.317 . S
O202 C203 1.232 . S
C203 O202 1.232 . S
C203 O204 1.218 . S
O204 C203 1.218 . S
C205 O198 1.275 . S
C205 O200 1.255 . S
C206 O207 1.258 . S
C206 O208 1.256 . S
O207 Cd199 2.381 . S
O207 C206 1.258 . S
O208 Cd199 2.378 . S
O208 C206 1.256 . S
O209 Cd210 2.300 1_554 S
O209 C216 1.275 . S
Cd210 O209 2.300 1_556 S
Cd210 O218 2.381 1_556 S
Cd210 O219 2.378 . S
O211 Cd212 2.385 . S
O211 C216 1.255 1_556 S
Cd212 O211 2.385 . S
Cd212 O213 2.317 . S
O213 Cd212 2.317 . S
O213 C214 1.232 . S
C214 O213 1.232 . S
C214 O215 1.218 . S
O215 C214 1.218 . S
C216 O209 1.275 . S
C216 O211 1.255 1_554 S
C217 O218 1.258 1_556 S
C217 O219 1.256 . S
O218 Cd210 2.381 1_554 S
O218 C217 1.258 1_554 S
O219 Cd210 2.378 . S
O219 C217 1.256 . S
O220 Cd221 2.300 . S
O220 C227 1.275 . S
Cd221 O220 2.300 . S
Cd221 O229 2.381 . S
Cd221 O230 2.378 . S
O222 Cd223 2.385 . S
O222 C227 1.255 . S
Cd223 O222 2.385 . S
Cd223 O224 2.317 . S
O224 Cd223 2.317 . S
O224 C225 1.232 . S
C225 O224 1.232 . S
C225 O226 1.218 . S
O226 C225 1.218 . S
C227 O220 1.275 . S
C227 O222 1.255 . S
C228 O229 1.258 . S
C228 O230 1.256 . S
O229 Cd221 2.381 . S
O229 C228 1.258 . S
O230 Cd221 2.378 . S
O230 C228 1.256 . S
O231 Cd232 2.300 1_655 S
O231 C238 1.275 . S
Cd232 O231 2.300 1_455 S
Cd232 O240 2.381 1_455 S
Cd232 O241 2.378 . S
O233 Cd234 2.385 . S
O233 C238 1.255 1_455 S
Cd234 O233 2.385 . S
Cd234 O235 2.317 . S
O235 Cd234 2.317 . S
O235 C236 1.232 . S
C236 O235 1.232 . S
C236 O237 1.218 . S
O237 C236 1.218 . S
C238 O231 1.275 . S
C238 O233 1.255 1_655 S
C239 O240 1.258 1_455 S
C239 O241 1.256 . S
O240 Cd232 2.381 1_655 S
O240 C239 1.258 1_655 S
O241 Cd232 2.378 . S
O241 C239 1.256 . S
O242 Cd243 2.300 . S
O242 C249 1.275 . S
Cd243 O242 2.300 . S
Cd243 O251 2.381 . S
Cd243 O252 2.378 . S
O244 Cd245 2.385 . S
O244 C249 1.255 . S
Cd245 O244 2.385 . S
Cd245 O246 2.317 . S
O246 Cd245 2.317 . S
O246 C247 1.232 . S
C247 O246 1.232 . S
C247 O248 1.218 . S
O248 C247 1.218 . S
C249 O242 1.275 . S
C249 O244 1.255 . S
C250 O251 1.258 . S
C250 O252 1.256 . S
O251 Cd243 2.381 . S
O251 C250 1.258 . S
O252 Cd243 2.378 . S
O252 C250 1.256 . S
O253 Cd254 2.300 1_455 S
O253 C260 1.275 . S
Cd254 O253 2.300 1_655 S
Cd254 O262 2.381 1_655 S
Cd254 O263 2.378 . S
O255 Cd256 2.385 . S
O255 C260 1.255 1_655 S
Cd256 O255 2.385 . S
Cd256 O257 2.317 . S
O257 Cd256 2.317 . S
O257 C258 1.232 . S
C258 O257 1.232 . S
C258 O259 1.218 . S
O259 C258 1.218 . S
C260 O253 1.275 . S
C260 O255 1.255 1_455 S
C261 O262 1.258 1_655 S
C261 O263 1.256 . S
O262 Cd254 2.381 1_455 S
O262 C261 1.258 1_455 S
O263 Cd254 2.378 . S
O263 C261 1.256 . S
P264 O275 1.490 . S
P264 C278 1.812 . S
P264 C284 1.803 . S
P264 C290 1.819 . S
H265 C279 0.941 . S
H266 C280 0.939 . S
H267 C282 0.940 . S
H268 C283 0.940 . S
H269 C285 0.939 . S
H270 C286 0.942 . S
H271 C288 0.940 . S
H272 C289 0.939 . S
H273 C291 0.941 . S
H274 C295 0.939 . S
O275 P264 1.490 . S
H276 C292 0.939 . S
H277 C294 0.940 . S
C278 P264 1.812 . S
C278 C279 1.389 . S
C278 C283 1.391 . S
C279 H265 0.941 . S
C279 C278 1.389 . S
C279 C280 1.397 . S
C280 H266 0.939 . S
C280 C279 1.397 . S
C280 C281 1.378 . S
C281 C280 1.378 . S
C281 C282 1.378 . S
C282 H267 0.940 . S
C282 C281 1.378 . S
C282 C283 1.396 . S
C283 H268 0.940 . S
C283 C278 1.391 . S
C283 C282 1.396 . S
C284 P264 1.803 . S
C284 C285 1.378 . S
C284 C289 1.400 . S
C285 H269 0.939 . S
C285 C284 1.378 . S
C285 C286 1.361 . S
C286 H270 0.942 . S
C286 C285 1.361 . S
C286 C287 1.369 . S
C287 C286 1.369 . S
C287 C288 1.404 . S
C288 H271 0.940 . S
C288 C287 1.404 . S
C288 C289 1.389 . S
C289 H272 0.939 . S
C289 C284 1.400 . S
C289 C288 1.389 . S
C290 P264 1.819 . S
C290 C291 1.391 . S
C290 C295 1.391 . S
C291 H273 0.941 . S
C291 C290 1.391 . S
C291 C292 1.396 . S
C292 H276 0.939 . S
C292 C291 1.396 . S
C292 C293 1.397 . S
C293 C292 1.397 . S
C293 C294 1.385 . S
C294 H277 0.940 . S
C294 C293 1.385 . S
C294 C295 1.388 . S
C295 H274 0.939 . S
C295 C290 1.391 . S
C295 C294 1.388 . S
P296 O307 1.490 . S
P296 C310 1.812 . S
P296 C316 1.803 . S
P296 C322 1.819 . S
H297 C311 0.941 . S
H298 C312 0.939 . S
H299 C314 0.940 . S
H300 C315 0.940 . S
H301 C317 0.939 . S
H302 C318 0.942 . S
H303 C320 0.940 . S
H304 C321 0.939 . S
H305 C323 0.941 . S
H306 C327 0.939 . S
O307 P296 1.490 . S
H308 C324 0.939 . S
H309 C326 0.940 . S
C310 P296 1.812 . S
C310 C311 1.389 . S
C310 C315 1.391 . S
C311 H297 0.941 . S
C311 C310 1.389 . S
C311 C312 1.397 . S
C312 H298 0.939 . S
C312 C311 1.397 . S
C312 C313 1.378 . S
C313 C312 1.378 . S
C313 C314 1.378 . S
C314 H299 0.940 . S
C314 C313 1.378 . S
C314 C315 1.396 . S
C315 H300 0.940 . S
C315 C310 1.391 . S
C315 C314 1.396 . S
C316 P296 1.803 . S
C316 C317 1.378 . S
C316 C321 1.400 . S
C317 H301 0.939 . S
C317 C316 1.378 . S
C317 C318 1.361 . S
C318 H302 0.942 . S
C318 C317 1.361 . S
C318 C319 1.369 . S
C319 C318 1.369 . S
C319 C320 1.404 . S
C320 H303 0.940 . S
C320 C319 1.404 . S
C320 C321 1.389 . S
C321 H304 0.939 . S
C321 C316 1.400 . S
C321 C320 1.389 . S
C322 P296 1.819 . S
C322 C323 1.391 . S
C322 C327 1.391 . S
C323 H305 0.941 . S
C323 C322 1.391 . S
C323 C324 1.396 . S
C324 H308 0.939 . S
C324 C323 1.396 . S
C324 C325 1.397 . S
C325 C324 1.397 . S
C325 C326 1.385 . S
C326 H309 0.940 . S
C326 C325 1.385 . S
C326 C327 1.388 . S
C327 H306 0.939 . S
C327 C322 1.391 . S
C327 C326 1.388 . S
P328 O339 1.490 . S
P328 C342 1.812 1_545 S
P328 C348 1.803 . S
P328 C354 1.819 . S
H329 C343 0.941 . S
H330 C344 0.939 . S
H331 C346 0.940 . S
H332 C347 0.940 . S
H333 C349 0.939 . S
H334 C350 0.942 . S
H335 C352 0.940 . S
H336 C353 0.939 . S
H337 C355 0.941 . S
H338 C359 0.939 . S
O339 P328 1.490 . S
H340 C356 0.939 . S
H341 C358 0.940 . S
C342 P328 1.812 1_565 S
C342 C343 1.389 . S
C342 C347 1.391 . S
C343 H329 0.941 . S
C343 C342 1.389 . S
C343 C344 1.397 . S
C344 H330 0.939 . S
C344 C343 1.397 . S
C344 C345 1.378 . S
C345 C344 1.378 . S
C345 C346 1.378 . S
C346 H331 0.940 . S
C346 C345 1.378 . S
C346 C347 1.396 . S
C347 H332 0.940 . S
C347 C342 1.391 . S
C347 C346 1.396 . S
C348 P328 1.803 . S
C348 C349 1.378 . S
C348 C353 1.400 . S
C349 H333 0.939 . S
C349 C348 1.378 . S
C349 C350 1.361 . S
C350 H334 0.942 . S
C350 C349 1.361 . S
C350 C351 1.369 . S
C351 C350 1.369 . S
C351 C352 1.404 . S
C352 H335 0.940 . S
C352 C351 1.404 . S
C352 C353 1.389 . S
C353 H336 0.939 . S
C353 C348 1.400 . S
C353 C352 1.389 . S
C354 P328 1.819 . S
C354 C355 1.391 1_545 S
C354 C359 1.391 . S
C355 H337 0.941 . S
C355 C354 1.391 1_565 S
C355 C356 1.396 . S
C356 H340 0.939 . S
C356 C355 1.396 . S
C356 C357 1.397 1_565 S
C357 C356 1.397 1_545 S
C357 C358 1.385 . S
C358 H341 0.940 . S
C358 C357 1.385 . S
C358 C359 1.388 . S
C359 H338 0.939 . S
C359 C354 1.391 . S
C359 C358 1.388 . S
P360 O371 1.490 . S
P360 C374 1.812 1_565 S
P360 C380 1.803 . S
P360 C386 1.819 . S
H361 C375 0.941 . S
H362 C376 0.939 . S
H363 C378 0.940 . S
H364 C379 0.940 . S
H365 C381 0.939 . S
H366 C382 0.942 . S
H367 C384 0.940 . S
H368 C385 0.939 . S
H369 C387 0.941 . S
H370 C391 0.939 . S
O371 P360 1.490 . S
H372 C388 0.939 . S
H373 C390 0.940 . S
C374 P360 1.812 1_545 S
C374 C375 1.389 . S
C374 C379 1.391 . S
C375 H361 0.941 . S
C375 C374 1.389 . S
C375 C376 1.397 . S
C376 H362 0.939 . S
C376 C375 1.397 . S
C376 C377 1.378 . S
C377 C376 1.378 . S
C377 C378 1.378 . S
C378 H363 0.940 . S
C378 C377 1.378 . S
C378 C379 1.396 . S
C379 H364 0.940 . S
C379 C374 1.391 . S
C379 C378 1.396 . S
C380 P360 1.803 . S
C380 C381 1.378 . S
C380 C385 1.400 . S
C381 H365 0.939 . S
C381 C380 1.378 . S
C381 C382 1.361 . S
C382 H366 0.942 . S
C382 C381 1.361 . S
C382 C383 1.369 . S
C383 C382 1.369 . S
C383 C384 1.404 . S
C384 H367 0.940 . S
C384 C383 1.404 . S
C384 C385 1.389 . S
C385 H368 0.939 . S
C385 C380 1.400 . S
C385 C384 1.389 . S
C386 P360 1.819 . S
C386 C387 1.391 1_565 S
C386 C391 1.391 . S
C387 H369 0.941 . S
C387 C386 1.391 1_545 S
C387 C388 1.396 . S
C388 H372 0.939 . S
C388 C387 1.396 . S
C388 C389 1.397 . S
C389 C388 1.397 . S
C389 C390 1.385 1_545 S
C390 H373 0.940 . S
C390 C389 1.385 1_565 S
C390 C391 1.388 . S
C391 H370 0.939 . S
C391 C386 1.391 . S
C391 C390 1.388 . S
P392 O403 1.490 . S
P392 C406 1.812 . S
P392 C412 1.803 . S
P392 C418 1.819 . S
H393 C407 0.941 . S
H394 C408 0.939 . S
H395 C410 0.940 . S
H396 C411 0.940 . S
H397 C413 0.939 . S
H398 C414 0.942 . S
H399 C416 0.940 . S
H400 C417 0.939 . S
H401 C419 0.941 . S
H402 C423 0.939 . S
O403 P392 1.490 . S
H404 C420 0.939 . S
H405 C422 0.940 . S
C406 P392 1.812 . S
C406 C407 1.389 . S
C406 C411 1.391 . S
C407 H393 0.941 . S
C407 C406 1.389 . S
C407 C408 1.397 . S
C408 H394 0.939 . S
C408 C407 1.397 . S
C408 C409 1.378 . S
C409 C408 1.378 . S
C409 C410 1.378 . S
C410 H395 0.940 . S
C410 C409 1.378 . S
C410 C411 1.396 . S
C411 H396 0.940 . S
C411 C406 1.391 . S
C411 C410 1.396 . S
C412 P392 1.803 . S
C412 C413 1.378 . S
C412 C417 1.400 . S
C413 H397 0.939 . S
C413 C412 1.378 . S
C413 C414 1.361 . S
C414 H398 0.942 . S
C414 C413 1.361 . S
C414 C415 1.369 . S
C415 C414 1.369 . S
C415 C416 1.404 . S
C416 H399 0.940 . S
C416 C415 1.404 . S
C416 C417 1.389 . S
C417 H400 0.939 . S
C417 C412 1.400 . S
C417 C416 1.389 . S
C418 P392 1.819 . S
C418 C419 1.391 . S
C418 C423 1.391 . S
C419 H401 0.941 . S
C419 C418 1.391 . S
C419 C420 1.396 . S
C420 H404 0.939 . S
C420 C419 1.396 . S
C420 C421 1.397 . S
C421 C420 1.397 . S
C421 C422 1.385 . S
C422 H405 0.940 . S
C422 C421 1.385 . S
C422 C423 1.388 . S
C423 H402 0.939 . S
C423 C418 1.391 . S
C423 C422 1.388 . S
P424 O435 1.490 . S
P424 C438 1.812 1_556 S
P424 C444 1.803 . S
P424 C450 1.819 . S
H425 C439 0.941 . S
H426 C440 0.939 . S
H427 C442 0.940 . S
H428 C443 0.940 . S
H429 C445 0.939 . S
H430 C446 0.942 . S
H431 C448 0.940 . S
H432 C449 0.939 . S
H433 C451 0.941 . S
H434 C455 0.939 . S
O435 P424 1.490 . S
H436 C452 0.939 . S
H437 C454 0.940 . S
C438 P424 1.812 1_554 S
C438 C439 1.389 . S
C438 C443 1.391 . S
C439 H425 0.941 . S
C439 C438 1.389 . S
C439 C440 1.397 . S
C440 H426 0.939 . S
C440 C439 1.397 . S
C440 C441 1.378 . S
C441 C440 1.378 . S
C441 C442 1.378 . S
C442 H427 0.940 . S
C442 C441 1.378 . S
C442 C443 1.396 . S
C443 H428 0.940 . S
C443 C438 1.391 . S
C443 C442 1.396 . S
C444 P424 1.803 . S
C444 C445 1.378 . S
C444 C449 1.400 . S
C445 H429 0.939 . S
C445 C444 1.378 . S
C445 C446 1.361 . S
C446 H430 0.942 . S
C446 C445 1.361 . S
C446 C447 1.369 . S
C447 C446 1.369 . S
C447 C448 1.404 . S
C448 H431 0.940 . S
C448 C447 1.404 . S
C448 C449 1.389 . S
C449 H432 0.939 . S
C449 C444 1.400 . S
C449 C448 1.389 . S
C450 P424 1.819 . S
C450 C451 1.391 1_556 S
C450 C455 1.391 . S
C451 H433 0.941 . S
C451 C450 1.391 1_554 S
C451 C452 1.396 . S
C452 H436 0.939 . S
C452 C451 1.396 . S
C452 C453 1.397 . S
C453 C452 1.397 . S
C453 C454 1.385 1_554 S
C454 H437 0.940 . S
C454 C453 1.385 1_556 S
C454 C455 1.388 . S
C455 H434 0.939 . S
C455 C450 1.391 . S
C455 C454 1.388 . S
P456 O467 1.490 . S
P456 C470 1.812 . S
P456 C476 1.803 . S
P456 C482 1.819 . S
H457 C471 0.941 . S
H458 C472 0.939 . S
H459 C474 0.940 . S
H460 C475 0.940 . S
H461 C477 0.939 . S
H462 C478 0.942 . S
H463 C480 0.940 . S
H464 C481 0.939 . S
H465 C483 0.941 . S
H466 C487 0.939 . S
O467 P456 1.490 . S
H468 C484 0.939 . S
H469 C486 0.940 . S
C470 P456 1.812 . S
C470 C471 1.389 . S
C470 C475 1.391 . S
C471 H457 0.941 . S
C471 C470 1.389 . S
C471 C472 1.397 . S
C472 H458 0.939 . S
C472 C471 1.397 . S
C472 C473 1.378 . S
C473 C472 1.378 . S
C473 C474 1.378 . S
C474 H459 0.940 . S
C474 C473 1.378 . S
C474 C475 1.396 . S
C475 H460 0.940 . S
C475 C470 1.391 . S
C475 C474 1.396 . S
C476 P456 1.803 . S
C476 C477 1.378 . S
C476 C481 1.400 . S
C477 H461 0.939 . S
C477 C476 1.378 . S
C477 C478 1.361 . S
C478 H462 0.942 . S
C478 C477 1.361 . S
C478 C479 1.369 . S
C479 C478 1.369 . S
C479 C480 1.404 . S
C480 H463 0.940 . S
C480 C479 1.404 . S
C480 C481 1.389 . S
C481 H464 0.939 . S
C481 C476 1.400 . S
C481 C480 1.389 . S
C482 P456 1.819 . S
C482 C483 1.391 . S
C482 C487 1.391 . S
C483 H465 0.941 . S
C483 C482 1.391 . S
C483 C484 1.396 . S
C484 H468 0.939 . S
C484 C483 1.396 . S
C484 C485 1.397 . S
C485 C484 1.397 . S
C485 C486 1.385 . S
C486 H469 0.940 . S
C486 C485 1.385 . S
C486 C487 1.388 . S
C487 H466 0.939 . S
C487 C482 1.391 . S
C487 C486 1.388 . S
P488 O499 1.490 . S
P488 C502 1.812 1_554 S
P488 C508 1.803 . S
P488 C514 1.819 . S
H489 C503 0.941 . S
H490 C504 0.939 . S
H491 C506 0.940 . S
H492 C507 0.940 . S
H493 C509 0.939 . S
H494 C510 0.942 . S
H495 C512 0.940 . S
H496 C513 0.939 . S
H497 C515 0.941 . S
H498 C519 0.939 . S
O499 P488 1.490 . S
H500 C516 0.939 . S
H501 C518 0.940 . S
C502 P488 1.812 1_556 S
C502 C503 1.389 . S
C502 C507 1.391 . S
C503 H489 0.941 . S
C503 C502 1.389 . S
C503 C504 1.397 . S
C504 H490 0.939 . S
C504 C503 1.397 . S
C504 C505 1.378 . S
C505 C504 1.378 . S
C505 C506 1.378 . S
C506 H491 0.940 . S
C506 C505 1.378 . S
C506 C507 1.396 . S
C507 H492 0.940 . S
C507 C502 1.391 . S
C507 C506 1.396 . S
C508 P488 1.803 . S
C508 C509 1.378 . S
C508 C513 1.400 . S
C509 H493 0.939 . S
C509 C508 1.378 . S
C509 C510 1.361 . S
C510 H494 0.942 . S
C510 C509 1.361 . S
C510 C511 1.369 . S
C511 C510 1.369 . S
C511 C512 1.404 . S
C512 H495 0.940 . S
C512 C511 1.404 . S
C512 C513 1.389 . S
C513 H496 0.939 . S
C513 C508 1.400 . S
C513 C512 1.389 . S
C514 P488 1.819 . S
C514 C515 1.391 1_554 S
C514 C519 1.391 . S
C515 H497 0.941 . S
C515 C514 1.391 1_556 S
C515 C516 1.396 . S
C516 H500 0.939 . S
C516 C515 1.396 . S
C516 C517 1.397 1_556 S
C517 C516 1.397 1_554 S
C517 C518 1.385 . S
C518 H501 0.940 . S
C518 C517 1.385 . S
C518 C519 1.388 . S
C519 H498 0.939 . S
C519 C514 1.391 . S
C519 C518 1.388 . S
P520 O531 1.490 . S
P520 C534 1.812 . S
P520 C540 1.803 . S
P520 C546 1.819 . S
H521 C535 0.941 . S
H522 C536 0.939 . S
H523 C538 0.940 . S
H524 C539 0.940 . S
H525 C541 0.939 . S
H526 C542 0.942 . S
H527 C544 0.940 . S
H528 C545 0.939 . S
H529 C547 0.941 . S
H530 C551 0.939 . S
O531 P520 1.490 . S
H532 C548 0.939 . S
H533 C550 0.940 . S
C534 P520 1.812 . S
C534 C535 1.389 . S
C534 C539 1.391 . S
C535 H521 0.941 . S
C535 C534 1.389 . S
C535 C536 1.397 . S
C536 H522 0.939 . S
C536 C535 1.397 . S
C536 C537 1.378 . S
C537 C536 1.378 . S
C537 C538 1.378 . S
C538 H523 0.940 . S
C538 C537 1.378 . S
C538 C539 1.396 . S
C539 H524 0.940 . S
C539 C534 1.391 . S
C539 C538 1.396 . S
C540 P520 1.803 . S
C540 C541 1.378 . S
C540 C545 1.400 . S
C541 H525 0.939 . S
C541 C540 1.378 . S
C541 C542 1.361 . S
C542 H526 0.942 . S
C542 C541 1.361 . S
C542 C543 1.369 . S
C543 C542 1.369 . S
C543 C544 1.404 . S
C544 H527 0.940 . S
C544 C543 1.404 . S
C544 C545 1.389 . S
C545 H528 0.939 . S
C545 C540 1.400 . S
C545 C544 1.389 . S
C546 P520 1.819 . S
C546 C547 1.391 . S
C546 C551 1.391 . S
C547 H529 0.941 . S
C547 C546 1.391 . S
C547 C548 1.396 . S
C548 H532 0.939 . S
C548 C547 1.396 . S
C548 C549 1.397 . S
C549 C548 1.397 . S
C549 C550 1.385 . S
C550 H533 0.940 . S
C550 C549 1.385 . S
C550 C551 1.388 . S
C551 H530 0.939 . S
C551 C546 1.391 . S
C551 C550 1.388 . S
P552 O563 1.490 . S
P552 C566 1.812 1_655 S
P552 C572 1.803 . S
P552 C578 1.819 . S
H553 C567 0.941 . S
H554 C568 0.939 . S
H555 C570 0.940 . S
H556 C571 0.940 . S
H557 C573 0.939 . S
H558 C574 0.942 . S
H559 C576 0.940 . S
H560 C577 0.939 . S
H561 C579 0.941 . S
H562 C583 0.939 . S
O563 P552 1.490 . S
H564 C580 0.939 . S
H565 C582 0.940 . S
C566 P552 1.812 1_455 S
C566 C567 1.389 . S
C566 C571 1.391 . S
C567 H553 0.941 . S
C567 C566 1.389 . S
C567 C568 1.397 . S
C568 H554 0.939 . S
C568 C567 1.397 . S
C568 C569 1.378 . S
C569 C568 1.378 . S
C569 C570 1.378 . S
C570 H555 0.940 . S
C570 C569 1.378 . S
C570 C571 1.396 . S
C571 H556 0.940 . S
C571 C566 1.391 . S
C571 C570 1.396 . S
C572 P552 1.803 . S
C572 C573 1.378 . S
C572 C577 1.400 . S
C573 H557 0.939 . S
C573 C572 1.378 . S
C573 C574 1.361 . S
C574 H558 0.942 . S
C574 C573 1.361 . S
C574 C575 1.369 . S
C575 C574 1.369 . S
C575 C576 1.404 . S
C576 H559 0.940 . S
C576 C575 1.404 . S
C576 C577 1.389 . S
C577 H560 0.939 . S
C577 C572 1.400 . S
C577 C576 1.389 . S
C578 P552 1.819 . S
C578 C579 1.391 1_655 S
C578 C583 1.391 . S
C579 H561 0.941 . S
C579 C578 1.391 1_455 S
C579 C580 1.396 . S
C580 H564 0.939 . S
C580 C579 1.396 . S
C580 C581 1.397 . S
C581 C580 1.397 . S
C581 C582 1.385 1_455 S
C582 H565 0.940 . S
C582 C581 1.385 1_655 S
C582 C583 1.388 . S
C583 H562 0.939 . S
C583 C578 1.391 . S
C583 C582 1.388 . S
P584 O595 1.490 . S
P584 C598 1.812 . S
P584 C604 1.803 . S
P584 C610 1.819 . S
H585 C599 0.941 . S
H586 C600 0.939 . S
H587 C602 0.940 . S
H588 C603 0.940 . S
H589 C605 0.939 . S
H590 C606 0.942 . S
H591 C608 0.940 . S
H592 C609 0.939 . S
H593 C611 0.941 . S
H594 C615 0.939 . S
O595 P584 1.490 . S
H596 C612 0.939 . S
H597 C614 0.940 . S
C598 P584 1.812 . S
C598 C599 1.389 . S
C598 C603 1.391 . S
C599 H585 0.941 . S
C599 C598 1.389 . S
C599 C600 1.397 . S
C600 H586 0.939 . S
C600 C599 1.397 . S
C600 C601 1.378 . S
C601 C600 1.378 . S
C601 C602 1.378 . S
C602 H587 0.940 . S
C602 C601 1.378 . S
C602 C603 1.396 . S
C603 H588 0.940 . S
C603 C598 1.391 . S
C603 C602 1.396 . S
C604 P584 1.803 . S
C604 C605 1.378 . S
C604 C609 1.400 . S
C605 H589 0.939 . S
C605 C604 1.378 . S
C605 C606 1.361 . S
C606 H590 0.942 . S
C606 C605 1.361 . S
C606 C607 1.369 . S
C607 C606 1.369 . S
C607 C608 1.404 . S
C608 H591 0.940 . S
C608 C607 1.404 . S
C608 C609 1.389 . S
C609 H592 0.939 . S
C609 C604 1.400 . S
C609 C608 1.389 . S
C610 P584 1.819 . S
C610 C611 1.391 . S
C610 C615 1.391 . S
C611 H593 0.941 . S
C611 C610 1.391 . S
C611 C612 1.396 . S
C612 H596 0.939 . S
C612 C611 1.396 . S
C612 C613 1.397 . S
C613 C612 1.397 . S
C613 C614 1.385 . S
C614 H597 0.940 . S
C614 C613 1.385 . S
C614 C615 1.388 . S
C615 H594 0.939 . S
C615 C610 1.391 . S
C615 C614 1.388 . S
P616 O627 1.490 . S
P616 C630 1.812 1_455 S
P616 C636 1.803 . S
P616 C642 1.819 . S
H617 C631 0.941 . S
H618 C632 0.939 . S
H619 C634 0.940 . S
H620 C635 0.940 . S
H621 C637 0.939 . S
H622 C638 0.942 . S
H623 C640 0.940 . S
H624 C641 0.939 . S
H625 C643 0.941 . S
H626 C647 0.939 . S
O627 P616 1.490 . S
H628 C644 0.939 . S
H629 C646 0.940 . S
C630 P616 1.812 1_655 S
C630 C631 1.389 . S
C630 C635 1.391 . S
C631 H617 0.941 . S
C631 C630 1.389 . S
C631 C632 1.397 . S
C632 H618 0.939 . S
C632 C631 1.397 . S
C632 C633 1.378 . S
C633 C632 1.378 . S
C633 C634 1.378 . S
C634 H619 0.940 . S
C634 C633 1.378 . S
C634 C635 1.396 . S
C635 H620 0.940 . S
C635 C630 1.391 . S
C635 C634 1.396 . S
C636 P616 1.803 . S
C636 C637 1.378 . S
C636 C641 1.400 . S
C637 H621 0.939 . S
C637 C636 1.378 . S
C637 C638 1.361 . S
C638 H622 0.942 . S
C638 C637 1.361 . S
C638 C639 1.369 . S
C639 C638 1.369 . S
C639 C640 1.404 . S
C640 H623 0.940 . S
C640 C639 1.404 . S
C640 C641 1.389 . S
C641 H624 0.939 . S
C641 C636 1.400 . S
C641 C640 1.389 . S
C642 P616 1.819 . S
C642 C643 1.391 1_455 S
C642 C647 1.391 . S
C643 H625 0.941 . S
C643 C642 1.391 1_655 S
C643 C644 1.396 . S
C644 H628 0.939 . S
C644 C643 1.396 . S
C644 C645 1.397 1_655 S
C645 C644 1.397 1_455 S
C645 C646 1.385 . S
C646 H629 0.940 . S
C646 C645 1.385 . S
C646 C647 1.388 . S
C647 H626 0.939 . S
C647 C642 1.391 . S
C647 C646 1.388 . S
P648 O659 1.490 . S
P648 C662 1.812 . S
P648 C668 1.803 . S
P648 C674 1.819 . S
H649 C663 0.941 . S
H650 C664 0.939 . S
H651 C666 0.940 . S
H652 C667 0.940 . S
H653 C669 0.939 . S
H654 C670 0.942 . S
H655 C672 0.940 . S
H656 C673 0.939 . S
H657 C675 0.941 . S
H658 C679 0.939 . S
O659 P648 1.490 . S
H660 C676 0.939 . S
H661 C678 0.940 . S
C662 P648 1.812 . S
C662 C663 1.389 . S
C662 C667 1.391 . S
C663 H649 0.941 . S
C663 C662 1.389 . S
C663 C664 1.397 . S
C664 H650 0.939 . S
C664 C663 1.397 . S
C664 C665 1.378 . S
C665 C664 1.378 . S
C665 C666 1.378 . S
C666 H651 0.940 . S
C666 C665 1.378 . S
C666 C667 1.396 . S
C667 H652 0.940 . S
C667 C662 1.391 . S
C667 C666 1.396 . S
C668 P648 1.803 . S
C668 C669 1.378 . S
C668 C673 1.400 . S
C669 H653 0.939 . S
C669 C668 1.378 . S
C669 C670 1.361 . S
C670 H654 0.942 . S
C670 C669 1.361 . S
C670 C671 1.369 . S
C671 C670 1.369 . S
C671 C672 1.404 . S
C672 H655 0.940 . S
C672 C671 1.404 . S
C672 C673 1.389 . S
C673 H656 0.939 . S
C673 C668 1.400 . S
C673 C672 1.389 . S
C674 P648 1.819 . S
C674 C675 1.391 . S
C674 C679 1.391 . S
C675 H657 0.941 . S
C675 C674 1.391 . S
C675 C676 1.396 . S
C676 H660 0.939 . S
C676 C675 1.396 . S
C676 C677 1.397 . S
C677 C676 1.397 . S
C677 C678 1.385 . S
C678 H661 0.940 . S
C678 C677 1.385 . S
C678 C679 1.388 . S
C679 H658 0.939 . S
C679 C674 1.391 . S
C679 C678 1.388 . S
P680 O691 1.490 . S
P680 C694 1.812 . S
P680 C700 1.803 . S
P680 C706 1.819 . S
H681 C695 0.941 . S
H682 C696 0.939 . S
H683 C698 0.940 . S
H684 C699 0.940 . S
H685 C701 0.939 . S
H686 C702 0.942 . S
H687 C704 0.940 . S
H688 C705 0.939 . S
H689 C707 0.941 . S
H690 C711 0.939 . S
O691 P680 1.490 . S
H692 C708 0.939 . S
H693 C710 0.940 . S
C694 P680 1.812 . S
C694 C695 1.389 . S
C694 C699 1.391 . S
C695 H681 0.941 . S
C695 C694 1.389 . S
C695 C696 1.397 . S
C696 H682 0.939 . S
C696 C695 1.397 . S
C696 C697 1.378 . S
C697 C696 1.378 . S
C697 C698 1.378 . S
C698 H683 0.940 . S
C698 C697 1.378 . S
C698 C699 1.396 . S
C699 H684 0.940 . S
C699 C694 1.391 . S
C699 C698 1.396 . S
C700 P680 1.803 . S
C700 C701 1.378 . S
C700 C705 1.400 . S
C701 H685 0.939 . S
C701 C700 1.378 . S
C701 C702 1.361 . S
C702 H686 0.942 . S
C702 C701 1.361 . S
C702 C703 1.369 . S
C703 C702 1.369 . S
C703 C704 1.404 . S
C704 H687 0.940 . S
C704 C703 1.404 . S
C704 C705 1.389 . S
C705 H688 0.939 . S
C705 C700 1.400 . S
C705 C704 1.389 . S
C706 P680 1.819 . S
C706 C707 1.391 . S
C706 C711 1.391 . S
C707 H689 0.941 . S
C707 C706 1.391 . S
C707 C708 1.396 . S
C708 H692 0.939 . S
C708 C707 1.396 . S
C708 C709 1.397 . S
C709 C708 1.397 . S
C709 C710 1.385 . S
C710 H693 0.940 . S
C710 C709 1.385 . S
C710 C711 1.388 . S
C711 H690 0.939 . S
C711 C706 1.391 . S
C711 C710 1.388 . S
P712 O723 1.491 . S
P712 C726 1.767 1_565 S
P712 C732 1.844 . S
P712 C738 1.821 . S
H713 C727 0.941 . S
H714 C728 0.939 . S
H715 C730 0.940 . S
H716 C731 0.940 . S
H717 C733 0.939 . S
H718 C734 0.942 . S
H719 C736 0.940 . S
H720 C737 0.939 . S
H721 C739 0.941 . S
H722 C743 0.939 . S
O723 P712 1.491 . S
H724 C740 0.939 . S
H725 C742 0.940 . S
C726 P712 1.767 1_545 S
C726 C727 1.389 . S
C726 C731 1.391 . S
C727 H713 0.941 . S
C727 C726 1.389 . S
C727 C728 1.397 . S
C728 H714 0.939 . S
C728 C727 1.397 . S
C728 C729 1.378 . S
C729 C728 1.378 . S
C729 C730 1.378 . S
C730 H715 0.940 . S
C730 C729 1.378 . S
C730 C731 1.396 . S
C731 H716 0.940 . S
C731 C726 1.391 . S
C731 C730 1.396 . S
C732 P712 1.844 . S
C732 C733 1.378 . S
C732 C737 1.400 . S
C733 H717 0.939 . S
C733 C732 1.378 . S
C733 C734 1.361 . S
C734 H718 0.942 . S
C734 C733 1.361 . S
C734 C735 1.369 . S
C735 C734 1.369 . S
C735 C736 1.404 . S
C736 H719 0.940 . S
C736 C735 1.404 . S
C736 C737 1.389 . S
C737 H720 0.939 . S
C737 C732 1.400 . S
C737 C736 1.389 . S
C738 P712 1.821 . S
C738 C739 1.391 1_565 S
C738 C743 1.391 . S
C739 H721 0.941 . S
C739 C738 1.391 1_545 S
C739 C740 1.396 . S
C740 H724 0.939 . S
C740 C739 1.396 . S
C740 C741 1.397 1_545 S
C741 C740 1.397 1_565 S
C741 C742 1.385 . S
C742 H725 0.940 . S
C742 C741 1.385 . S
C742 C743 1.388 . S
C743 H722 0.939 . S
C743 C738 1.391 . S
C743 C742 1.388 . S
P744 O755 1.490 . S
P744 C758 1.809 . S
P744 C764 1.806 1_565 S
P744 C770 1.819 1_565 S
H745 C759 0.941 . S
H746 C760 0.939 . S
H747 C762 0.940 . S
H748 C763 0.940 . S
H749 C765 0.939 . S
H750 C766 0.942 . S
H751 C768 0.940 . S
H752 C769 0.939 . S
H753 C771 0.941 . S
H754 C775 0.939 . S
O755 P744 1.490 . S
H756 C772 0.939 . S
H757 C774 0.940 . S
C758 P744 1.809 . S
C758 C759 1.389 . S
C758 C763 1.391 . S
C759 H745 0.941 . S
C759 C758 1.389 . S
C759 C760 1.397 . S
C760 H746 0.939 . S
C760 C759 1.397 . S
C760 C761 1.378 . S
C761 C760 1.378 . S
C761 C762 1.378 . S
C762 H747 0.940 . S
C762 C761 1.378 . S
C762 C763 1.396 . S
C763 H748 0.940 . S
C763 C758 1.391 . S
C763 C762 1.396 . S
C764 P744 1.806 1_545 S
C764 C765 1.378 . S
C764 C769 1.400 . S
C765 H749 0.939 . S
C765 C764 1.378 . S
C765 C766 1.361 . S
C766 H750 0.942 . S
C766 C765 1.361 . S
C766 C767 1.369 . S
C767 C766 1.369 . S
C767 C768 1.404 . S
C768 H751 0.940 . S
C768 C767 1.404 . S
C768 C769 1.389 . S
C769 H752 0.939 . S
C769 C764 1.400 . S
C769 C768 1.389 . S
C770 P744 1.819 1_545 S
C770 C771 1.386 1_545 S
C770 C775 1.397 . S
C771 H753 0.941 . S
C771 C770 1.386 1_565 S
C771 C772 1.396 . S
C772 H756 0.939 . S
C772 C771 1.396 . S
C772 C773 1.397 . S
C773 C772 1.397 . S
C773 C774 1.385 1_565 S
C774 H757 0.940 . S
C774 C773 1.385 1_545 S
C774 C775 1.388 . S
C775 H754 0.939 . S
C775 C770 1.397 . S
C775 C774 1.388 . S
P776 O787 1.490 . S
P776 C790 1.812 . S
P776 C796 1.803 . S
P776 C802 1.819 . S
H777 C791 0.941 . S
H778 C792 0.939 . S
H779 C794 0.940 . S
H780 C795 0.940 . S
H781 C797 0.939 . S
H782 C798 0.942 . S
H783 C800 0.940 . S
H784 C801 0.939 . S
H785 C803 0.941 . S
H786 C807 0.939 . S
O787 P776 1.490 . S
H788 C804 0.939 . S
H789 C806 0.940 . S
C790 P776 1.812 . S
C790 C791 1.389 . S
C790 C795 1.391 . S
C791 H777 0.941 . S
C791 C790 1.389 . S
C791 C792 1.397 . S
C792 H778 0.939 . S
C792 C791 1.397 . S
C792 C793 1.378 . S
C793 C792 1.378 . S
C793 C794 1.378 . S
C794 H779 0.940 . S
C794 C793 1.378 . S
C794 C795 1.396 . S
C795 H780 0.940 . S
C795 C790 1.391 . S
C795 C794 1.396 . S
C796 P776 1.803 . S
C796 C797 1.378 . S
C796 C801 1.400 . S
C797 H781 0.939 . S
C797 C796 1.378 . S
C797 C798 1.361 . S
C798 H782 0.942 . S
C798 C797 1.361 . S
C798 C799 1.369 . S
C799 C798 1.369 . S
C799 C800 1.404 . S
C800 H783 0.940 . S
C800 C799 1.404 . S
C800 C801 1.389 . S
C801 H784 0.939 . S
C801 C796 1.400 . S
C801 C800 1.389 . S
C802 P776 1.819 . S
C802 C803 1.391 . S
C802 C807 1.391 . S
C803 H785 0.941 . S
C803 C802 1.391 . S
C803 C804 1.396 . S
C804 H788 0.939 . S
C804 C803 1.396 . S
C804 C805 1.397 . S
C805 C804 1.397 . S
C805 C806 1.385 . S
C806 H789 0.940 . S
C806 C805 1.385 . S
C806 C807 1.388 . S
C807 H786 0.939 . S
C807 C802 1.391 . S
C807 C806 1.388 . S
P808 O819 1.490 . S
P808 C822 1.809 . S
P808 C828 1.806 1_556 S
P808 C834 1.819 1_556 S
H809 C823 0.941 . S
H810 C824 0.939 . S
H811 C826 0.940 . S
H812 C827 0.940 . S
H813 C829 0.939 . S
H814 C830 0.942 . S
H815 C832 0.940 . S
H816 C833 0.939 . S
H817 C835 0.941 . S
H818 C839 0.939 . S
O819 P808 1.490 . S
H820 C836 0.939 . S
H821 C838 0.940 . S
C822 P808 1.809 . S
C822 C823 1.389 . S
C822 C827 1.391 . S
C823 H809 0.941 . S
C823 C822 1.389 . S
C823 C824 1.397 . S
C824 H810 0.939 . S
C824 C823 1.397 . S
C824 C825 1.378 . S
C825 C824 1.378 . S
C825 C826 1.378 . S
C826 H811 0.940 . S
C826 C825 1.378 . S
C826 C827 1.396 . S
C827 H812 0.940 . S
C827 C822 1.391 . S
C827 C826 1.396 . S
C828 P808 1.806 1_554 S
C828 C829 1.378 . S
C828 C833 1.400 . S
C829 H813 0.939 . S
C829 C828 1.378 . S
C829 C830 1.361 . S
C830 H814 0.942 . S
C830 C829 1.361 . S
C830 C831 1.369 . S
C831 C830 1.369 . S
C831 C832 1.404 . S
C832 H815 0.940 . S
C832 C831 1.404 . S
C832 C833 1.389 . S
C833 H816 0.939 . S
C833 C828 1.400 . S
C833 C832 1.389 . S
C834 P808 1.819 1_554 S
C834 C835 1.386 1_554 S
C834 C839 1.397 . S
C835 H817 0.941 . S
C835 C834 1.386 1_556 S
C835 C836 1.396 . S
C836 H820 0.939 . S
C836 C835 1.396 . S
C836 C837 1.397 . S
C837 C836 1.397 . S
C837 C838 1.385 1_556 S
C838 H821 0.940 . S
C838 C837 1.385 1_554 S
C838 C839 1.388 . S
C839 H818 0.939 . S
C839 C834 1.397 . S
C839 C838 1.388 . S
P840 O851 1.490 . S
P840 C854 1.812 . S
P840 C860 1.803 . S
P840 C866 1.819 . S
H841 C855 0.941 . S
H842 C856 0.939 . S
H843 C858 0.940 . S
H844 C859 0.940 . S
H845 C861 0.939 . S
H846 C862 0.942 . S
H847 C864 0.940 . S
H848 C865 0.939 . S
H849 C867 0.941 . S
H850 C871 0.939 . S
O851 P840 1.490 . S
H852 C868 0.939 . S
H853 C870 0.940 . S
C854 P840 1.812 . S
C854 C855 1.389 . S
C854 C859 1.391 . S
C855 H841 0.941 . S
C855 C854 1.389 . S
C855 C856 1.397 . S
C856 H842 0.939 . S
C856 C855 1.397 . S
C856 C857 1.378 . S
C857 C856 1.378 . S
C857 C858 1.378 . S
C858 H843 0.940 . S
C858 C857 1.378 . S
C858 C859 1.396 . S
C859 H844 0.940 . S
C859 C854 1.391 . S
C859 C858 1.396 . S
C860 P840 1.803 . S
C860 C861 1.378 . S
C860 C865 1.400 . S
C861 H845 0.939 . S
C861 C860 1.378 . S
C861 C862 1.361 . S
C862 H846 0.942 . S
C862 C861 1.361 . S
C862 C863 1.369 . S
C863 C862 1.369 . S
C863 C864 1.404 . S
C864 H847 0.940 . S
C864 C863 1.404 . S
C864 C865 1.389 . S
C865 H848 0.939 . S
C865 C860 1.400 . S
C865 C864 1.389 . S
C866 P840 1.819 . S
C866 C867 1.391 . S
C866 C871 1.391 . S
C867 H849 0.941 . S
C867 C866 1.391 . S
C867 C868 1.396 . S
C868 H852 0.939 . S
C868 C867 1.396 . S
C868 C869 1.397 . S
C869 C868 1.397 . S
C869 C870 1.385 . S
C870 H853 0.940 . S
C870 C869 1.385 . S
C870 C871 1.388 . S
C871 H850 0.939 . S
C871 C866 1.391 . S
C871 C870 1.388 . S
P872 O883 1.491 . S
P872 C886 1.767 1_556 S
P872 C892 1.844 . S
P872 C898 1.821 . S
H873 C887 0.941 . S
H874 C888 0.939 . S
H875 C890 0.940 . S
H876 C891 0.940 . S
H877 C893 0.939 . S
H878 C894 0.942 . S
H879 C896 0.940 . S
H880 C897 0.939 . S
H881 C899 0.941 . S
H882 C903 0.939 . S
O883 P872 1.491 . S
H884 C900 0.939 . S
H885 C902 0.940 . S
C886 P872 1.767 1_554 S
C886 C887 1.389 . S
C886 C891 1.391 . S
C887 H873 0.941 . S
C887 C886 1.389 . S
C887 C888 1.397 . S
C888 H874 0.939 . S
C888 C887 1.397 . S
C888 C889 1.378 . S
C889 C888 1.378 . S
C889 C890 1.378 . S
C890 H875 0.940 . S
C890 C889 1.378 . S
C890 C891 1.396 . S
C891 H876 0.940 . S
C891 C886 1.391 . S
C891 C890 1.396 . S
C892 P872 1.844 . S
C892 C893 1.378 . S
C892 C897 1.400 . S
C893 H877 0.939 . S
C893 C892 1.378 . S
C893 C894 1.361 . S
C894 H878 0.942 . S
C894 C893 1.361 . S
C894 C895 1.369 . S
C895 C894 1.369 . S
C895 C896 1.404 . S
C896 H879 0.940 . S
C896 C895 1.404 . S
C896 C897 1.389 . S
C897 H880 0.939 . S
C897 C892 1.400 . S
C897 C896 1.389 . S
C898 P872 1.821 . S
C898 C899 1.391 1_556 S
C898 C903 1.391 . S
C899 H881 0.941 . S
C899 C898 1.391 1_554 S
C899 C900 1.396 . S
C900 H884 0.939 . S
C900 C899 1.396 . S
C900 C901 1.397 1_554 S
C901 C900 1.397 1_556 S
C901 C902 1.385 . S
C902 H885 0.940 . S
C902 C901 1.385 . S
C902 C903 1.388 . S
C903 H882 0.939 . S
C903 C898 1.391 . S
C903 C902 1.388 . S
P904 O915 1.490 . S
P904 C918 1.812 . S
P904 C924 1.803 . S
P904 C930 1.819 . S
H905 C919 0.941 . S
H906 C920 0.939 . S
H907 C922 0.940 . S
H908 C923 0.940 . S
H909 C925 0.939 . S
H910 C926 0.942 . S
H911 C928 0.940 . S
H912 C929 0.939 . S
H913 C931 0.941 . S
H914 C935 0.939 . S
O915 P904 1.490 . S
H916 C932 0.939 . S
H917 C934 0.940 . S
C918 P904 1.812 . S
C918 C919 1.389 . S
C918 C923 1.391 . S
C919 H905 0.941 . S
C919 C918 1.389 . S
C919 C920 1.397 . S
C920 H906 0.939 . S
C920 C919 1.397 . S
C920 C921 1.378 . S
C921 C920 1.378 . S
C921 C922 1.378 . S
C922 H907 0.940 . S
C922 C921 1.378 . S
C922 C923 1.396 . S
C923 H908 0.940 . S
C923 C918 1.391 . S
C923 C922 1.396 . S
C924 P904 1.803 . S
C924 C925 1.378 . S
C924 C929 1.400 . S
C925 H909 0.939 . S
C925 C924 1.378 . S
C925 C926 1.361 . S
C926 H910 0.942 . S
C926 C925 1.361 . S
C926 C927 1.369 . S
C927 C926 1.369 . S
C927 C928 1.404 . S
C928 H911 0.940 . S
C928 C927 1.404 . S
C928 C929 1.389 . S
C929 H912 0.939 . S
C929 C924 1.400 . S
C929 C928 1.389 . S
C930 P904 1.819 . S
C930 C931 1.391 . S
C930 C935 1.391 . S
C931 H913 0.941 . S
C931 C930 1.391 . S
C931 C932 1.396 . S
C932 H916 0.939 . S
C932 C931 1.396 . S
C932 C933 1.397 . S
C933 C932 1.397 . S
C933 C934 1.385 . S
C934 H917 0.940 . S
C934 C933 1.385 . S
C934 C935 1.388 . S
C935 H914 0.939 . S
C935 C930 1.391 . S
C935 C934 1.388 . S
P936 O947 1.490 . S
P936 C950 1.809 . S
P936 C956 1.806 1_655 S
P936 C962 1.819 1_655 S
H937 C951 0.941 . S
H938 C952 0.939 . S
H939 C954 0.940 . S
H940 C955 0.940 . S
H941 C957 0.939 . S
H942 C958 0.942 . S
H943 C960 0.940 . S
H944 C961 0.939 . S
H945 C963 0.941 . S
H946 C967 0.939 . S
O947 P936 1.490 . S
H948 C964 0.939 . S
H949 C966 0.940 . S
C950 P936 1.809 . S
C950 C951 1.389 . S
C950 C955 1.391 . S
C951 H937 0.941 . S
C951 C950 1.389 . S
C951 C952 1.397 . S
C952 H938 0.939 . S
C952 C951 1.397 . S
C952 C953 1.378 . S
C953 C952 1.378 . S
C953 C954 1.378 . S
C954 H939 0.940 . S
C954 C953 1.378 . S
C954 C955 1.396 . S
C955 H940 0.940 . S
C955 C950 1.391 . S
C955 C954 1.396 . S
C956 P936 1.806 1_455 S
C956 C957 1.378 . S
C956 C961 1.400 . S
C957 H941 0.939 . S
C957 C956 1.378 . S
C957 C958 1.361 . S
C958 H942 0.942 . S
C958 C957 1.361 . S
C958 C959 1.369 . S
C959 C958 1.369 . S
C959 C960 1.404 . S
C960 H943 0.940 . S
C960 C959 1.404 . S
C960 C961 1.389 . S
C961 H944 0.939 . S
C961 C956 1.400 . S
C961 C960 1.389 . S
C962 P936 1.819 1_455 S
C962 C963 1.386 1_455 S
C962 C967 1.397 . S
C963 H945 0.941 . S
C963 C962 1.386 1_655 S
C963 C964 1.396 . S
C964 H948 0.939 . S
C964 C963 1.396 . S
C964 C965 1.397 . S
C965 C964 1.397 . S
C965 C966 1.385 1_655 S
C966 H949 0.940 . S
C966 C965 1.385 1_455 S
C966 C967 1.388 . S
C967 H946 0.939 . S
C967 C962 1.397 . S
C967 C966 1.388 . S
P968 O979 1.490 . S
P968 C982 1.812 . S
P968 C988 1.803 . S
P968 C994 1.819 . S
H969 C983 0.941 . S
H970 C984 0.939 . S
H971 C986 0.940 . S
H972 C987 0.940 . S
H973 C989 0.939 . S
H974 C990 0.942 . S
H975 C992 0.940 . S
H976 C993 0.939 . S
H977 C995 0.941 . S
H978 C999 0.939 . S
O979 P968 1.490 . S
H980 C996 0.939 . S
H981 C998 0.940 . S
C982 P968 1.812 . S
C982 C983 1.389 . S
C982 C987 1.391 . S
C983 H969 0.941 . S
C983 C982 1.389 . S
C983 C984 1.397 . S
C984 H970 0.939 . S
C984 C983 1.397 . S
C984 C985 1.378 . S
C985 C984 1.378 . S
C985 C986 1.378 . S
C986 H971 0.940 . S
C986 C985 1.378 . S
C986 C987 1.396 . S
C987 H972 0.940 . S
C987 C982 1.391 . S
C987 C986 1.396 . S
C988 P968 1.803 . S
C988 C989 1.378 . S
C988 C993 1.400 . S
C989 H973 0.939 . S
C989 C988 1.378 . S
C989 C990 1.361 . S
C990 H974 0.942 . S
C990 C989 1.361 . S
C990 C991 1.369 . S
C991 C990 1.369 . S
C991 C992 1.404 . S
C992 H975 0.940 . S
C992 C991 1.404 . S
C992 C993 1.389 . S
C993 H976 0.939 . S
C993 C988 1.400 . S
C993 C992 1.389 . S
C994 P968 1.819 . S
C994 C995 1.391 . S
C994 C999 1.391 . S
C995 H977 0.941 . S
C995 C994 1.391 . S
C995 C996 1.396 . S
C996 H980 0.939 . S
C996 C995 1.396 . S
C996 C997 1.397 . S
C997 C996 1.397 . S
C997 C998 1.385 . S
C998 H981 0.940 . S
C998 C997 1.385 . S
C998 C999 1.388 . S
C999 H978 0.939 . S
C999 C994 1.391 . S
C999 C998 1.388 . S
P1000 O1011 1.491 . S
P1000 C1014 1.767 1_655 S
P1000 C1020 1.844 . S
P1000 C1026 1.821 . S
H1001 C1015 0.941 . S
H1002 C1016 0.939 . S
H1003 C1018 0.940 . S
H1004 C1019 0.940 . S
H1005 C1021 0.939 . S
H1006 C1022 0.942 . S
H1007 C1024 0.940 . S
H1008 C1025 0.939 . S
H1009 C1027 0.941 . S
H1010 C1031 0.939 . S
O1011 P1000 1.491 . S
H1012 C1028 0.939 . S
H1013 C1030 0.940 . S
C1014 P1000 1.767 1_455 S
C1014 C1015 1.389 . S
C1014 C1019 1.391 . S
C1015 H1001 0.941 . S
C1015 C1014 1.389 . S
C1015 C1016 1.397 . S
C1016 H1002 0.939 . S
C1016 C1015 1.397 . S
C1016 C1017 1.378 . S
C1017 C1016 1.378 . S
C1017 C1018 1.378 . S
C1018 H1003 0.940 . S
C1018 C1017 1.378 . S
C1018 C1019 1.396 . S
C1019 H1004 0.940 . S
C1019 C1014 1.391 . S
C1019 C1018 1.396 . S
C1020 P1000 1.844 . S
C1020 C1021 1.378 . S
C1020 C1025 1.400 . S
C1021 H1005 0.939 . S
C1021 C1020 1.378 . S
C1021 C1022 1.361 . S
C1022 H1006 0.942 . S
C1022 C1021 1.361 . S
C1022 C1023 1.369 . S
C1023 C1022 1.369 . S
C1023 C1024 1.404 . S
C1024 H1007 0.940 . S
C1024 C1023 1.404 . S
C1024 C1025 1.389 . S
C1025 H1008 0.939 . S
C1025 C1020 1.400 . S
C1025 C1024 1.389 . S
C1026 P1000 1.821 . S
C1026 C1027 1.391 1_655 S
C1026 C1031 1.391 . S
C1027 H1009 0.941 . S
C1027 C1026 1.391 1_455 S
C1027 C1028 1.396 . S
C1028 H1012 0.939 . S
C1028 C1027 1.396 . S
C1028 C1029 1.397 1_455 S
C1029 C1028 1.397 1_655 S
C1029 C1030 1.385 . S
C1030 H1013 0.940 . S
C1030 C1029 1.385 . S
C1030 C1031 1.388 . S
C1031 H1010 0.939 . S
C1031 C1026 1.391 . S
C1031 C1030 1.388 . S
H1032 C1038 0.930 . S
H1033 C1041 0.930 . S
H1034 C1042 0.930 . S
H1035 C1043 0.930 . S
H1036 C1046 0.930 . S
H1037 C1047 0.930 . S
C1038 H1032 0.930 . S
C1038 C1039 1.355 . S
C1038 C1040 1.415 . S
C1039 C1038 1.355 . S
C1039 C1041 1.419 . S
C1040 C1038 1.415 . S
C1040 C1045 1.425 . S
C1040 C1047 1.409 . S
C1041 H1033 0.930 . S
C1041 C1039 1.419 . S
C1041 C1042 1.362 . S
C1042 H1034 0.930 . S
C1042 C1041 1.362 . S
C1042 C1045 1.409 . S
C1043 H1035 0.930 . S
C1043 C1044 1.355 . S
C1043 C1045 1.415 . S
C1044 C1043 1.355 . S
C1044 C1046 1.419 . S
C1045 C1040 1.425 . S
C1045 C1042 1.409 . S
C1045 C1043 1.415 . S
C1046 H1036 0.930 . S
C1046 C1044 1.419 . S
C1046 C1047 1.362 . S
C1047 H1037 0.930 . S
C1047 C1040 1.409 . S
C1047 C1046 1.362 . S
H1048 C1054 0.930 . S
H1049 C1057 0.930 . S
H1050 C1058 0.930 . S
H1051 C1059 0.930 . S
H1052 C1062 0.930 . S
H1053 C1063 0.930 . S
C1054 H1048 0.930 . S
C1054 C1055 1.355 . S
C1054 C1056 1.415 . S
C1055 C1054 1.355 . S
C1055 C1057 1.419 . S
C1056 C1054 1.415 . S
C1056 C1061 1.425 . S
C1056 C1063 1.409 . S
C1057 H1049 0.930 . S
C1057 C1055 1.419 . S
C1057 C1058 1.362 . S
C1058 H1050 0.930 . S
C1058 C1057 1.362 . S
C1058 C1061 1.409 . S
C1059 H1051 0.930 . S
C1059 C1060 1.355 . S
C1059 C1061 1.415 . S
C1060 C1059 1.355 . S
C1060 C1062 1.419 . S
C1061 C1056 1.425 . S
C1061 C1058 1.409 . S
C1061 C1059 1.415 . S
C1062 H1052 0.930 . S
C1062 C1060 1.419 . S
C1062 C1063 1.362 . S
C1063 H1053 0.930 . S
C1063 C1056 1.409 . S
C1063 C1062 1.362 . S
H1064 C1070 0.930 . S
H1065 C1073 0.930 . S
H1066 C1074 0.930 . S
H1067 C1075 0.930 1_565 S
H1068 C1078 0.930 . S
H1069 C1079 0.930 . S
C1070 H1064 0.930 . S
C1070 C1071 1.355 . S
C1070 C1072 1.415 . S
C1071 C1070 1.355 . S
C1071 C1073 1.419 1_545 S
C1072 C1070 1.415 . S
C1072 C1077 1.425 . S
C1072 C1079 1.409 . S
C1073 H1065 0.930 . S
C1073 C1071 1.419 1_565 S
C1073 C1074 1.362 . S
C1074 H1066 0.930 . S
C1074 C1073 1.362 . S
C1074 C1077 1.409 1_565 S
C1075 H1067 0.930 1_545 S
C1075 C1076 1.355 . S
C1075 C1077 1.415 . S
C1076 C1075 1.355 . S
C1076 C1078 1.419 . S
C1077 C1072 1.425 . S
C1077 C1074 1.409 1_545 S
C1077 C1075 1.415 . S
C1078 H1068 0.930 . S
C1078 C1076 1.419 . S
C1078 C1079 1.362 . S
C1079 H1069 0.930 . S
C1079 C1072 1.409 . S
C1079 C1078 1.362 . S
H1080 C1086 0.930 . S
H1081 C1089 0.930 1_545 S
H1082 C1090 0.930 . S
H1083 C1091 0.930 . S
H1084 C1094 0.930 . S
H1085 C1095 0.930 . S
C1086 H1080 0.930 . S
C1086 C1087 1.355 . S
C1086 C1088 1.415 . S
C1087 C1086 1.355 . S
C1087 C1089 1.419 . S
C1088 C1086 1.415 . S
C1088 C1093 1.425 . S
C1088 C1095 1.409 . S
C1089 H1081 0.930 1_565 S
C1089 C1087 1.419 . S
C1089 C1090 1.362 . S
C1090 H1082 0.930 . S
C1090 C1089 1.362 . S
C1090 C1093 1.409 . S
C1091 H1083 0.930 . S
C1091 C1092 1.355 . S
C1091 C1093 1.415 . S
C1092 C1091 1.355 . S
C1092 C1094 1.419 . S
C1093 C1088 1.425 . S
C1093 C1090 1.409 . S
C1093 C1091 1.415 . S
C1094 H1084 0.930 . S
C1094 C1092 1.419 . S
C1094 C1095 1.362 . S
C1095 H1085 0.930 . S
C1095 C1088 1.409 . S
C1095 C1094 1.362 . S
H1096 C1102 0.930 . S
H1097 C1105 0.930 . S
H1098 C1106 0.930 . S
H1099 C1107 0.930 . S
H1100 C1110 0.930 . S
H1101 C1111 0.930 . S
C1102 H1096 0.930 . S
C1102 C1103 1.355 . S
C1102 C1104 1.415 . S
C1103 C1102 1.355 . S
C1103 C1105 1.419 . S
C1104 C1102 1.415 . S
C1104 C1109 1.425 . S
C1104 C1111 1.409 . S
C1105 H1097 0.930 . S
C1105 C1103 1.419 . S
C1105 C1106 1.362 . S
C1106 H1098 0.930 . S
C1106 C1105 1.362 . S
C1106 C1109 1.409 . S
C1107 H1099 0.930 . S
C1107 C1108 1.355 . S
C1107 C1109 1.415 . S
C1108 C1107 1.355 . S
C1108 C1110 1.419 . S
C1109 C1104 1.425 . S
C1109 C1106 1.409 . S
C1109 C1107 1.415 . S
C1110 H1100 0.930 . S
C1110 C1108 1.419 . S
C1110 C1111 1.362 . S
C1111 H1101 0.930 . S
C1111 C1104 1.409 . S
C1111 C1110 1.362 . S
H1112 C1118 0.930 . S
H1113 C1121 0.930 . S
H1114 C1122 0.930 . S
H1115 C1123 0.930 . S
H1116 C1126 0.930 . S
H1117 C1127 0.930 . S
C1118 H1112 0.930 . S
C1118 C1119 1.355 . S
C1118 C1120 1.415 . S
C1119 C1118 1.355 . S
C1119 C1121 1.419 . S
C1120 C1118 1.415 . S
C1120 C1125 1.425 . S
C1120 C1127 1.409 . S
C1121 H1113 0.930 . S
C1121 C1119 1.419 . S
C1121 C1122 1.362 . S
C1122 H1114 0.930 . S
C1122 C1121 1.362 . S
C1122 C1125 1.409 . S
C1123 H1115 0.930 . S
C1123 C1124 1.355 . S
C1123 C1125 1.415 . S
C1124 C1123 1.355 . S
C1124 C1126 1.419 . S
C1125 C1120 1.425 . S
C1125 C1122 1.409 . S
C1125 C1123 1.415 . S
C1126 H1116 0.930 . S
C1126 C1124 1.419 . S
C1126 C1127 1.362 . S
C1127 H1117 0.930 . S
C1127 C1120 1.409 . S
C1127 C1126 1.362 . S
H1128 C1134 0.930 . S
H1129 C1137 0.930 . S
H1130 C1138 0.930 . S
H1131 C1139 0.930 . S
H1132 C1142 0.930 . S
H1133 C1143 0.930 . S
C1134 H1128 0.930 . S
C1134 C1135 1.355 . S
C1134 C1136 1.415 . S
C1135 C1134 1.355 . S
C1135 C1137 1.419 . S
C1136 C1134 1.415 . S
C1136 C1141 1.425 . S
C1136 C1143 1.409 . S
C1137 H1129 0.930 . S
C1137 C1135 1.419 . S
C1137 C1138 1.362 . S
C1138 H1130 0.930 . S
C1138 C1137 1.362 . S
C1138 C1141 1.409 . S
C1139 H1131 0.930 . S
C1139 C1140 1.355 . S
C1139 C1141 1.415 . S
C1140 C1139 1.355 . S
C1140 C1142 1.419 . S
C1141 C1136 1.425 . S
C1141 C1138 1.409 . S
C1141 C1139 1.415 . S
C1142 H1132 0.930 . S
C1142 C1140 1.419 . S
C1142 C1143 1.362 . S
C1143 H1133 0.930 . S
C1143 C1136 1.409 . S
C1143 C1142 1.362 . S
H1144 C1150 0.930 . S
H1145 C1153 0.930 . S
H1146 C1154 0.930 . S
H1147 C1155 0.930 . S
H1148 C1158 0.930 . S
H1149 C1159 0.930 . S
C1150 H1144 0.930 . S
C1150 C1151 1.355 . S
C1150 C1152 1.415 . S
C1151 C1150 1.355 . S
C1151 C1153 1.419 . S
C1152 C1150 1.415 . S
C1152 C1157 1.425 . S
C1152 C1159 1.409 . S
C1153 H1145 0.930 . S
C1153 C1151 1.419 . S
C1153 C1154 1.362 . S
C1154 H1146 0.930 . S
C1154 C1153 1.362 . S
C1154 C1157 1.409 . S
C1155 H1147 0.930 . S
C1155 C1156 1.355 . S
C1155 C1157 1.415 . S
C1156 C1155 1.355 . S
C1156 C1158 1.419 . S
C1157 C1152 1.425 . S
C1157 C1154 1.409 . S
C1157 C1155 1.415 . S
C1158 H1148 0.930 . S
C1158 C1156 1.419 . S
C1158 C1159 1.362 . S
C1159 H1149 0.930 . S
C1159 C1152 1.409 . S
C1159 C1158 1.362 . S
H1160 C1166 0.930 . S
H1161 C1169 0.930 . S
H1162 C1170 0.930 . S
H1163 C1171 0.930 . S
H1164 C1174 0.930 . S
H1165 C1175 0.930 . S
C1166 H1160 0.930 . S
C1166 C1167 1.355 . S
C1166 C1168 1.415 . S
C1167 C1166 1.355 . S
C1167 C1169 1.419 . S
C1168 C1166 1.415 . S
C1168 C1173 1.425 . S
C1168 C1175 1.409 . S
C1169 H1161 0.930 . S
C1169 C1167 1.419 . S
C1169 C1170 1.362 . S
C1170 H1162 0.930 . S
C1170 C1169 1.362 . S
C1170 C1173 1.409 . S
C1171 H1163 0.930 . S
C1171 C1172 1.355 . S
C1171 C1173 1.415 . S
C1172 C1171 1.355 . S
C1172 C1174 1.419 . S
C1173 C1168 1.425 . S
C1173 C1170 1.409 . S
C1173 C1171 1.415 . S
C1174 H1164 0.930 . S
C1174 C1172 1.419 . S
C1174 C1175 1.362 . S
C1175 H1165 0.930 . S
C1175 C1168 1.409 . S
C1175 C1174 1.362 . S
H1176 C1182 0.930 . S
H1177 C1185 0.930 . S
H1178 C1186 0.930 . S
H1179 C1187 0.930 . S
H1180 C1190 0.930 . S
H1181 C1191 0.930 . S
C1182 H1176 0.930 . S
C1182 C1183 1.355 . S
C1182 C1184 1.415 . S
C1183 C1182 1.355 . S
C1183 C1185 1.419 1_655 S
C1184 C1182 1.415 . S
C1184 C1189 1.425 . S
C1184 C1191 1.409 . S
C1185 H1177 0.930 . S
C1185 C1183 1.419 1_455 S
C1185 C1186 1.362 . S
C1186 H1178 0.930 . S
C1186 C1185 1.362 . S
C1186 C1189 1.409 1_455 S
C1187 H1179 0.930 . S
C1187 C1188 1.355 . S
C1187 C1189 1.415 . S
C1188 C1187 1.355 . S
C1188 C1190 1.419 . S
C1189 C1184 1.425 . S
C1189 C1186 1.409 1_655 S
C1189 C1187 1.415 . S
C1190 H1180 0.930 . S
C1190 C1188 1.419 . S
C1190 C1191 1.362 . S
C1191 H1181 0.930 . S
C1191 C1184 1.409 . S
C1191 C1190 1.362 . S
H1192 C1198 0.930 . S
H1193 C1201 0.930 . S
H1194 C1202 0.930 . S
H1195 C1203 0.930 . S
H1196 C1206 0.930 . S
H1197 C1207 0.930 . S
C1198 H1192 0.930 . S
C1198 C1199 1.355 . S
C1198 C1200 1.415 . S
C1199 C1198 1.355 . S
C1199 C1201 1.419 . S
C1200 C1198 1.415 . S
C1200 C1205 1.425 . S
C1200 C1207 1.409 . S
C1201 H1193 0.930 . S
C1201 C1199 1.419 . S
C1201 C1202 1.362 . S
C1202 H1194 0.930 . S
C1202 C1201 1.362 . S
C1202 C1205 1.409 . S
C1203 H1195 0.930 . S
C1203 C1204 1.355 . S
C1203 C1205 1.415 . S
C1204 C1203 1.355 . S
C1204 C1206 1.419 . S
C1205 C1200 1.425 . S
C1205 C1202 1.409 . S
C1205 C1203 1.415 . S
C1206 H1196 0.930 . S
C1206 C1204 1.419 . S
C1206 C1207 1.362 . S
C1207 H1197 0.930 . S
C1207 C1200 1.409 . S
C1207 C1206 1.362 . S
H1208 C1214 0.930 . S
H1209 C1217 0.930 . S
H1210 C1218 0.930 . S
H1211 C1219 0.930 1_655 S
H1212 C1222 0.930 . S
H1213 C1223 0.930 . S
C1214 H1208 0.930 . S
C1214 C1215 1.355 . S
C1214 C1216 1.415 . S
C1215 C1214 1.355 . S
C1215 C1217 1.419 1_455 S
C1216 C1214 1.415 . S
C1216 C1221 1.425 . S
C1216 C1223 1.409 . S
C1217 H1209 0.930 . S
C1217 C1215 1.419 1_655 S
C1217 C1218 1.362 . S
C1218 H1210 0.930 . S
C1218 C1217 1.362 . S
C1218 C1221 1.409 1_655 S
C1219 H1211 0.930 1_455 S
C1219 C1220 1.355 . S
C1219 C1221 1.415 . S
C1220 C1219 1.355 . S
C1220 C1222 1.419 . S
C1221 C1216 1.425 . S
C1221 C1218 1.409 1_455 S
C1221 C1219 1.415 . S
C1222 H1212 0.930 . S
C1222 C1220 1.419 . S
C1222 C1223 1.362 . S
C1223 H1213 0.930 . S
C1223 C1216 1.409 . S
C1223 C1222 1.362 . S
H1224 C1230 0.930 . S
H1225 C1233 0.930 . S
H1226 C1234 0.930 . S
H1227 C1235 0.930 . S
H1228 C1238 0.930 . S
H1229 C1239 0.930 . S
C1230 H1224 0.930 . S
C1230 C1231 1.355 . S
C1230 C1232 1.415 . S
C1231 C1230 1.355 . S
C1231 C1233 1.419 . S
C1232 C1230 1.415 . S
C1232 C1237 1.425 . S
C1232 C1239 1.409 . S
C1233 H1225 0.930 . S
C1233 C1231 1.419 . S
C1233 C1234 1.362 . S
C1234 H1226 0.930 . S
C1234 C1233 1.362 . S
C1234 C1237 1.409 . S
C1235 H1227 0.930 . S
C1235 C1236 1.355 . S
C1235 C1237 1.415 . S
C1236 C1235 1.355 . S
C1236 C1238 1.419 . S
C1237 C1232 1.425 . S
C1237 C1234 1.409 . S
C1237 C1235 1.415 . S
C1238 H1228 0.930 . S
C1238 C1236 1.419 . S
C1238 C1239 1.362 . S
C1239 H1229 0.930 . S
C1239 C1232 1.409 . S
C1239 C1238 1.362 . S
H1240 C1246 0.930 . S
H1241 C1249 0.930 . S
H1242 C1250 0.930 . S
H1243 C1251 0.930 . S
H1244 C1254 0.930 . S
H1245 C1255 0.930 . S
C1246 H1240 0.930 . S
C1246 C1247 1.355 . S
C1246 C1248 1.415 . S
C1247 C1246 1.355 . S
C1247 C1249 1.419 . S
C1248 C1246 1.415 . S
C1248 C1253 1.425 . S
C1248 C1255 1.409 . S
C1249 H1241 0.930 . S
C1249 C1247 1.419 . S
C1249 C1250 1.362 . S
C1250 H1242 0.930 . S
C1250 C1249 1.362 . S
C1250 C1253 1.409 . S
C1251 H1243 0.930 . S
C1251 C1252 1.355 . S
C1251 C1253 1.415 . S
C1252 C1251 1.355 . S
C1252 C1254 1.419 . S
C1253 C1248 1.425 . S
C1253 C1250 1.409 . S
C1253 C1251 1.415 . S
C1254 H1244 0.930 . S
C1254 C1252 1.419 . S
C1254 C1255 1.362 . S
C1255 H1245 0.930 . S
C1255 C1248 1.409 . S
C1255 C1254 1.362 . S
H1256 C1262 0.930 1_545 S
H1257 C1265 0.930 . S
H1258 C1266 0.930 . S
H1259 C1267 0.930 . S
H1260 C1270 0.930 . S
H1261 C1271 0.930 1_545 S
C1262 H1256 0.930 1_565 S
C1262 C1263 1.355 . S
C1262 C1264 1.415 . S
C1263 C1262 1.355 . S
C1263 C1265 1.419 . S
C1264 C1262 1.415 . S
C1264 C1269 1.425 . S
C1264 C1271 1.409 . S
C1265 H1257 0.930 . S
C1265 C1263 1.419 . S
C1265 C1266 1.362 . S
C1266 H1258 0.930 . S
C1266 C1265 1.362 . S
C1266 C1269 1.409 . S
C1267 H1259 0.930 . S
C1267 C1268 1.355 . S
C1267 C1269 1.415 . S
C1268 C1267 1.355 . S
C1268 C1270 1.419 . S
C1269 C1264 1.425 . S
C1269 C1266 1.409 . S
C1269 C1267 1.415 . S
C1270 H1260 0.930 . S
C1270 C1268 1.419 . S
C1270 C1271 1.362 . S
C1271 H1261 0.930 1_565 S
C1271 C1264 1.409 . S
C1271 C1270 1.362 . S
H1272 C1278 0.930 1_565 S
H1273 C1281 0.930 . S
H1274 C1282 0.930 . S
H1275 C1283 0.930 . S
H1276 C1286 0.953 . S
H1277 C1287 0.934 . S
C1278 H1272 0.930 1_545 S
C1278 C1279 1.355 . S
C1278 C1280 1.415 . S
C1279 C1278 1.355 . S
C1279 C1281 1.419 . S
C1280 C1278 1.415 . S
C1280 C1285 1.425 . S
C1280 C1287 1.407 1_545 S
C1281 H1273 0.930 . S
C1281 C1279 1.419 . S
C1281 C1282 1.362 . S
C1282 H1274 0.930 . S
C1282 C1281 1.362 . S
C1282 C1285 1.409 . S
C1283 H1275 0.930 . S
C1283 C1284 1.355 . S
C1283 C1285 1.415 . S
C1284 C1283 1.355 . S
C1284 C1286 1.419 . S
C1285 C1280 1.425 . S
C1285 C1282 1.409 . S
C1285 C1283 1.415 . S
C1286 H1276 0.953 . S
C1286 C1284 1.419 . S
C1286 C1287 1.360 1_545 S
C1287 H1277 0.934 . S
C1287 C1280 1.407 1_565 S
C1287 C1286 1.360 1_565 S
H1288 C1294 0.930 . S
H1289 C1297 0.930 . S
H1290 C1298 0.930 . S
H1291 C1299 0.930 . S
H1292 C1302 0.930 . S
H1293 C1303 0.930 . S
C1294 H1288 0.930 . S
C1294 C1295 1.355 . S
C1294 C1296 1.415 . S
C1295 C1294 1.355 . S
C1295 C1297 1.419 . S
C1296 C1294 1.415 . S
C1296 C1301 1.425 . S
C1296 C1303 1.409 . S
C1297 H1289 0.930 . S
C1297 C1295 1.419 . S
C1297 C1298 1.362 . S
C1298 H1290 0.930 . S
C1298 C1297 1.362 . S
C1298 C1301 1.409 . S
C1299 H1291 0.930 . S
C1299 C1300 1.355 . S
C1299 C1301 1.415 . S
C1300 C1299 1.355 . S
C1300 C1302 1.419 . S
C1301 C1296 1.425 . S
C1301 C1298 1.409 . S
C1301 C1299 1.415 . S
C1302 H1292 0.930 . S
C1302 C1300 1.419 . S
C1302 C1303 1.362 . S
C1303 H1293 0.930 . S
C1303 C1296 1.409 . S
C1303 C1302 1.362 . S
H1304 C1310 0.930 1_556 S
H1305 C1313 0.930 . S
H1306 C1314 0.930 . S
H1307 C1315 0.930 . S
H1308 C1318 0.930 1_556 S
H1309 C1319 0.930 . S
C1310 H1304 0.930 1_554 S
C1310 C1311 1.355 . S
C1310 C1312 1.415 . S
C1311 C1310 1.355 . S
C1311 C1313 1.419 . S
C1312 C1310 1.415 . S
C1312 C1317 1.425 . S
C1312 C1319 1.409 1_554 S
C1313 H1305 0.930 . S
C1313 C1311 1.419 . S
C1313 C1314 1.362 . S
C1314 H1306 0.930 . S
C1314 C1313 1.362 . S
C1314 C1317 1.409 . S
C1315 H1307 0.930 . S
C1315 C1316 1.355 . S
C1315 C1317 1.415 . S
C1316 C1315 1.355 . S
C1316 C1318 1.419 . S
C1317 C1312 1.425 . S
C1317 C1314 1.409 . S
C1317 C1315 1.415 . S
C1318 H1308 0.930 1_554 S
C1318 C1316 1.419 . S
C1318 C1319 1.362 1_554 S
C1319 H1309 0.930 . S
C1319 C1312 1.409 1_556 S
C1319 C1318 1.362 1_556 S
H1320 C1326 0.930 . S
H1321 C1329 0.930 . S
H1322 C1330 0.930 . S
H1323 C1331 0.930 . S
H1324 C1334 0.930 . S
H1325 C1335 0.930 . S
C1326 H1320 0.930 . S
C1326 C1327 1.355 . S
C1326 C1328 1.415 . S
C1327 C1326 1.355 . S
C1327 C1329 1.419 . S
C1328 C1326 1.415 . S
C1328 C1333 1.425 . S
C1328 C1335 1.409 . S
C1329 H1321 0.930 . S
C1329 C1327 1.419 . S
C1329 C1330 1.362 . S
C1330 H1322 0.930 . S
C1330 C1329 1.362 . S
C1330 C1333 1.409 . S
C1331 H1323 0.930 . S
C1331 C1332 1.355 . S
C1331 C1333 1.415 . S
C1332 C1331 1.355 . S
C1332 C1334 1.419 . S
C1333 C1328 1.425 . S
C1333 C1330 1.409 . S
C1333 C1331 1.415 . S
C1334 H1324 0.930 . S
C1334 C1332 1.419 . S
C1334 C1335 1.362 . S
C1335 H1325 0.930 . S
C1335 C1328 1.409 . S
C1335 C1334 1.362 . S
H1336 C1342 0.930 . S
H1337 C1345 0.930 . S
H1338 C1346 0.930 . S
H1339 C1347 0.930 . S
H1340 C1350 0.930 . S
H1341 C1351 0.930 . S
C1342 H1336 0.930 . S
C1342 C1343 1.355 . S
C1342 C1344 1.415 . S
C1343 C1342 1.355 . S
C1343 C1345 1.419 . S
C1344 C1342 1.415 . S
C1344 C1349 1.425 . S
C1344 C1351 1.409 . S
C1345 H1337 0.930 . S
C1345 C1343 1.419 . S
C1345 C1346 1.362 . S
C1346 H1338 0.930 . S
C1346 C1345 1.362 . S
C1346 C1349 1.409 . S
C1347 H1339 0.930 . S
C1347 C1348 1.355 . S
C1347 C1349 1.415 . S
C1348 C1347 1.355 . S
C1348 C1350 1.419 . S
C1349 C1344 1.425 . S
C1349 C1346 1.409 . S
C1349 C1347 1.415 . S
C1350 H1340 0.930 . S
C1350 C1348 1.419 . S
C1350 C1351 1.362 . S
C1351 H1341 0.930 . S
C1351 C1344 1.409 . S
C1351 C1350 1.362 . S
H1352 C1358 0.930 . S
H1353 C1361 0.930 . S
H1354 C1362 0.930 . S
H1355 C1363 0.930 . S
H1356 C1366 0.930 . S
H1357 C1367 0.930 . S
C1358 H1352 0.930 . S
C1358 C1359 1.355 . S
C1358 C1360 1.415 . S
C1359 C1358 1.355 . S
C1359 C1361 1.419 . S
C1360 C1358 1.415 . S
C1360 C1365 1.425 . S
C1360 C1367 1.409 . S
C1361 H1353 0.930 . S
C1361 C1359 1.419 . S
C1361 C1362 1.362 . S
C1362 H1354 0.930 . S
C1362 C1361 1.362 . S
C1362 C1365 1.409 . S
C1363 H1355 0.930 . S
C1363 C1364 1.355 . S
C1363 C1365 1.415 . S
C1364 C1363 1.355 . S
C1364 C1366 1.419 . S
C1365 C1360 1.425 . S
C1365 C1362 1.409 . S
C1365 C1363 1.415 . S
C1366 H1356 0.930 . S
C1366 C1364 1.419 . S
C1366 C1367 1.362 . S
C1367 H1357 0.930 . S
C1367 C1360 1.409 . S
C1367 C1366 1.362 . S
H1368 C1374 0.930 . S
H1369 C1377 0.930 1_655 S
H1370 C1378 0.930 . S
H1371 C1379 0.930 . S
H1372 C1382 0.930 . S
H1373 C1383 0.930 . S
C1374 H1368 0.930 . S
C1374 C1375 1.355 . S
C1374 C1376 1.415 . S
C1375 C1374 1.355 . S
C1375 C1377 1.419 . S
C1376 C1374 1.415 . S
C1376 C1381 1.425 . S
C1376 C1383 1.409 . S
C1377 H1369 0.930 1_455 S
C1377 C1375 1.419 . S
C1377 C1378 1.362 . S
C1378 H1370 0.930 . S
C1378 C1377 1.362 . S
C1378 C1381 1.409 . S
C1379 H1371 0.930 . S
C1379 C1380 1.355 . S
C1379 C1381 1.415 . S
C1380 C1379 1.355 . S
C1380 C1382 1.419 . S
C1381 C1376 1.425 . S
C1381 C1378 1.409 . S
C1381 C1379 1.415 . S
C1382 H1372 0.930 . S
C1382 C1380 1.419 . S
C1382 C1383 1.362 . S
C1383 H1373 0.930 . S
C1383 C1376 1.409 . S
C1383 C1382 1.362 . S
H1384 C1390 0.930 . S
H1385 C1393 0.930 . S
H1386 C1394 0.930 . S
H1387 C1395 0.930 . S
H1388 C1398 0.930 . S
H1389 C1399 0.930 . S
C1390 H1384 0.930 . S
C1390 C1391 1.355 . S
C1390 C1392 1.415 . S
C1391 C1390 1.355 . S
C1391 C1393 1.419 . S
C1392 C1390 1.415 . S
C1392 C1397 1.425 . S
C1392 C1399 1.409 . S
C1393 H1385 0.930 . S
C1393 C1391 1.419 . S
C1393 C1394 1.362 . S
C1394 H1386 0.930 . S
C1394 C1393 1.362 . S
C1394 C1397 1.409 . S
C1395 H1387 0.930 . S
C1395 C1396 1.355 . S
C1395 C1397 1.415 . S
C1396 C1395 1.355 . S
C1396 C1398 1.419 . S
C1397 C1392 1.425 . S
C1397 C1394 1.409 . S
C1397 C1395 1.415 . S
C1398 H1388 0.930 . S
C1398 C1396 1.419 . S
C1398 C1399 1.362 . S
C1399 H1389 0.930 . S
C1399 C1392 1.409 . S
C1399 C1398 1.362 . S
H1400 C1406 0.930 . S
H1401 C1409 0.930 1_455 S
H1402 C1410 0.930 . S
H1403 C1411 0.930 . S
H1404 C1414 0.930 . S
H1405 C1415 0.930 . S
C1406 H1400 0.930 . S
C1406 C1407 1.355 . S
C1406 C1408 1.415 . S
C1407 C1406 1.355 . S
C1407 C1409 1.419 . S
C1408 C1406 1.415 . S
C1408 C1413 1.425 . S
C1408 C1415 1.409 . S
C1409 H1401 0.930 1_655 S
C1409 C1407 1.419 . S
C1409 C1410 1.362 . S
C1410 H1402 0.930 . S
C1410 C1409 1.362 . S
C1410 C1413 1.409 . S
C1411 H1403 0.930 . S
C1411 C1412 1.355 . S
C1411 C1413 1.415 . S
C1412 C1411 1.355 . S
C1412 C1414 1.419 . S
C1413 C1408 1.425 . S
C1413 C1410 1.409 . S
C1413 C1411 1.415 . S
C1414 H1404 0.930 . S
C1414 C1412 1.419 . S
C1414 C1415 1.362 . S
C1415 H1405 0.930 . S
C1415 C1408 1.409 . S
C1415 C1414 1.362 . S
H1416 C1422 0.930 . S
H1417 C1425 0.930 . S
H1418 C1426 0.930 . S
H1419 C1427 0.930 . S
H1420 C1430 0.930 . S
H1421 C1431 0.930 . S
C1422 H1416 0.930 . S
C1422 C1423 1.355 . S
C1422 C1424 1.415 . S
C1423 C1422 1.355 . S
C1423 C1425 1.419 . S
C1424 C1422 1.415 . S
C1424 C1429 1.425 . S
C1424 C1431 1.409 . S
C1425 H1417 0.930 . S
C1425 C1423 1.419 . S
C1425 C1426 1.362 . S
C1426 H1418 0.930 . S
C1426 C1425 1.362 . S
C1426 C1429 1.409 . S
C1427 H1419 0.930 . S
C1427 C1428 1.355 . S
C1427 C1429 1.415 . S
C1428 C1427 1.355 . S
C1428 C1430 1.419 . S
C1429 C1424 1.425 . S
C1429 C1426 1.409 . S
C1429 C1427 1.415 . S
C1430 H1420 0.930 . S
C1430 C1428 1.419 . S
C1430 C1431 1.362 . S
C1431 H1421 0.930 . S
C1431 C1424 1.409 . S
C1431 C1430 1.362 . S
H1432 C1438 0.930 . S
H1433 C1441 0.930 . S
H1434 C1442 0.930 . S
H1435 C1443 0.930 . S
H1436 C1446 0.930 . S
H1437 C1447 0.930 . S
C1438 H1432 0.930 . S
C1438 C1439 1.355 . S
C1438 C1440 1.415 . S
C1439 C1438 1.355 . S
C1439 C1441 1.419 . S
C1440 C1438 1.415 . S
C1440 C1445 1.425 . S
C1440 C1447 1.409 . S
C1441 H1433 0.930 . S
C1441 C1439 1.419 . S
C1441 C1442 1.362 . S
C1442 H1434 0.930 . S
C1442 C1441 1.362 . S
C1442 C1445 1.409 . S
C1443 H1435 0.930 . S
C1443 C1444 1.355 . S
C1443 C1445 1.415 . S
C1444 C1443 1.355 . S
C1444 C1446 1.419 . S
C1445 C1440 1.425 . S
C1445 C1442 1.409 . S
C1445 C1443 1.415 . S
C1446 H1436 0.930 . S
C1446 C1444 1.419 . S
C1446 C1447 1.362 . S
C1447 H1437 0.930 . S
C1447 C1440 1.409 . S
C1447 C1446 1.362 . S
H1448 C1454 0.930 . S
H1449 C1457 0.930 . S
H1450 C1458 0.930 . S
H1451 C1459 0.930 . S
H1452 C1462 0.930 . S
H1453 C1463 0.930 . S
C1454 H1448 0.930 . S
C1454 C1455 1.355 1_545 S
C1454 C1456 1.415 . S
C1455 C1454 1.355 1_565 S
C1455 C1457 1.419 . S
C1456 C1454 1.415 . S
C1456 C1461 1.425 1_545 S
C1456 C1463 1.409 . S
C1457 H1449 0.930 . S
C1457 C1455 1.419 . S
C1457 C1458 1.362 . S
C1458 H1450 0.930 . S
C1458 C1457 1.362 . S
C1458 C1461 1.409 . S
C1459 H1451 0.930 . S
C1459 C1460 1.355 1_565 S
C1459 C1461 1.415 . S
C1460 C1459 1.355 1_545 S
C1460 C1462 1.419 . S
C1461 C1456 1.425 1_565 S
C1461 C1458 1.409 . S
C1461 C1459 1.415 . S
C1462 H1452 0.930 . S
C1462 C1460 1.419 . S
C1462 C1463 1.362 . S
C1463 H1453 0.930 . S
C1463 C1456 1.409 . S
C1463 C1462 1.362 . S
H1464 C1470 0.939 . S
H1465 C1473 0.930 . S
H1466 C1474 0.930 . S
H1467 C1475 0.930 . S
H1468 C1478 0.930 . S
H1469 C1479 0.930 . S
C1470 H1464 0.939 . S
C1470 C1471 1.347 1_565 S
C1470 C1472 1.415 . S
C1471 C1470 1.347 1_545 S
C1471 C1473 1.419 . S
C1472 C1470 1.415 . S
C1472 C1477 1.416 1_565 S
C1472 C1479 1.417 . S
C1473 H1465 0.930 . S
C1473 C1471 1.419 . S
C1473 C1474 1.362 . S
C1474 H1466 0.930 . S
C1474 C1473 1.362 . S
C1474 C1477 1.409 . S
C1475 H1467 0.930 . S
C1475 C1476 1.355 . S
C1475 C1477 1.415 . S
C1476 C1475 1.355 . S
C1476 C1478 1.419 1_545 S
C1477 C1472 1.416 1_545 S
C1477 C1474 1.409 . S
C1477 C1475 1.415 . S
C1478 H1468 0.930 . S
C1478 C1476 1.419 1_565 S
C1478 C1479 1.362 . S
C1479 H1469 0.930 . S
C1479 C1472 1.417 . S
C1479 C1478 1.362 . S
H1480 C1486 0.930 . S
H1481 C1489 0.930 . S
H1482 C1490 0.930 . S
H1483 C1491 0.930 . S
H1484 C1494 0.930 . S
H1485 C1495 0.930 . S
C1486 H1480 0.930 . S
C1486 C1487 1.355 . S
C1486 C1488 1.415 . S
C1487 C1486 1.355 . S
C1487 C1489 1.419 . S
C1488 C1486 1.415 . S
C1488 C1493 1.425 . S
C1488 C1495 1.409 . S
C1489 H1481 0.930 . S
C1489 C1487 1.419 . S
C1489 C1490 1.362 . S
C1490 H1482 0.930 . S
C1490 C1489 1.362 . S
C1490 C1493 1.409 . S
C1491 H1483 0.930 . S
C1491 C1492 1.355 . S
C1491 C1493 1.415 . S
C1492 C1491 1.355 . S
C1492 C1494 1.419 . S
C1493 C1488 1.425 . S
C1493 C1490 1.409 . S
C1493 C1491 1.415 . S
C1494 H1484 0.930 . S
C1494 C1492 1.419 . S
C1494 C1495 1.362 . S
C1495 H1485 0.930 . S
C1495 C1488 1.409 . S
C1495 C1494 1.362 . S
H1496 C1502 0.930 1_556 S
H1497 C1505 0.930 . S
H1498 C1506 0.930 . S
H1499 C1507 0.930 . S
H1500 C1510 0.930 . S
H1501 C1511 0.930 . S
C1502 H1496 0.930 1_554 S
C1502 C1503 1.355 . S
C1502 C1504 1.415 . S
C1503 C1502 1.355 . S
C1503 C1505 1.419 . S
C1504 C1502 1.415 . S
C1504 C1509 1.425 . S
C1504 C1511 1.409 1_554 S
C1505 H1497 0.930 . S
C1505 C1503 1.419 . S
C1505 C1506 1.362 . S
C1506 H1498 0.930 . S
C1506 C1505 1.362 . S
C1506 C1509 1.409 . S
C1507 H1499 0.930 . S
C1507 C1508 1.355 . S
C1507 C1509 1.415 . S
C1508 C1507 1.355 . S
C1508 C1510 1.419 1_554 S
C1509 C1504 1.425 . S
C1509 C1506 1.409 . S
C1509 C1507 1.415 . S
C1510 H1500 0.930 . S
C1510 C1508 1.419 1_556 S
C1510 C1511 1.362 . S
C1511 H1501 0.930 . S
C1511 C1504 1.409 1_556 S
C1511 C1510 1.362 . S
H1512 C1518 0.930 . S
H1513 C1521 0.930 . S
H1514 C1522 0.930 . S
H1515 C1523 0.930 . S
H1516 C1526 0.930 . S
H1517 C1527 0.930 . S
C1518 H1512 0.930 . S
C1518 C1519 1.355 . S
C1518 C1520 1.415 . S
C1519 C1518 1.355 . S
C1519 C1521 1.419 . S
C1520 C1518 1.415 . S
C1520 C1525 1.425 . S
C1520 C1527 1.409 . S
C1521 H1513 0.930 . S
C1521 C1519 1.419 . S
C1521 C1522 1.362 . S
C1522 H1514 0.930 . S
C1522 C1521 1.362 . S
C1522 C1525 1.409 . S
C1523 H1515 0.930 . S
C1523 C1524 1.355 . S
C1523 C1525 1.415 . S
C1524 C1523 1.355 . S
C1524 C1526 1.419 . S
C1525 C1520 1.425 . S
C1525 C1522 1.409 . S
C1525 C1523 1.415 . S
C1526 H1516 0.930 . S
C1526 C1524 1.419 . S
C1526 C1527 1.362 . S
C1527 H1517 0.930 . S
C1527 C1520 1.409 . S
C1527 C1526 1.362 . S
H1528 C1534 0.930 . S
H1529 C1537 0.930 . S
H1530 C1538 0.930 . S
H1531 C1539 0.930 . S
H1532 C1542 0.930 . S
H1533 C1543 0.930 . S
C1534 H1528 0.930 . S
C1534 C1535 1.355 1_554 S
C1534 C1536 1.415 . S
C1535 C1534 1.355 1_556 S
C1535 C1537 1.419 . S
C1536 C1534 1.415 . S
C1536 C1541 1.425 1_554 S
C1536 C1543 1.409 . S
C1537 H1529 0.930 . S
C1537 C1535 1.419 . S
C1537 C1538 1.362 . S
C1538 H1530 0.930 . S
C1538 C1537 1.362 . S
C1538 C1541 1.409 . S
C1539 H1531 0.930 . S
C1539 C1540 1.355 1_556 S
C1539 C1541 1.415 . S
C1540 C1539 1.355 1_554 S
C1540 C1542 1.419 . S
C1541 C1536 1.425 1_556 S
C1541 C1538 1.409 . S
C1541 C1539 1.415 . S
C1542 H1532 0.930 . S
C1542 C1540 1.419 . S
C1542 C1543 1.362 . S
C1543 H1533 0.930 . S
C1543 C1536 1.409 . S
C1543 C1542 1.362 . S
H1544 C1550 0.930 . S
H1545 C1553 0.930 . S
H1546 C1554 0.930 . S
H1547 C1555 0.930 . S
H1548 C1558 0.930 . S
H1549 C1559 0.930 . S
C1550 H1544 0.930 . S
C1550 C1551 1.355 . S
C1550 C1552 1.415 . S
C1551 C1550 1.355 . S
C1551 C1553 1.419 . S
C1552 C1550 1.415 . S
C1552 C1557 1.425 . S
C1552 C1559 1.409 . S
C1553 H1545 0.930 . S
C1553 C1551 1.419 . S
C1553 C1554 1.362 . S
C1554 H1546 0.930 . S
C1554 C1553 1.362 . S
C1554 C1557 1.409 . S
C1555 H1547 0.930 . S
C1555 C1556 1.355 . S
C1555 C1557 1.415 . S
C1556 C1555 1.355 . S
C1556 C1558 1.419 . S
C1557 C1552 1.425 . S
C1557 C1554 1.409 . S
C1557 C1555 1.415 . S
C1558 H1548 0.930 . S
C1558 C1556 1.419 . S
C1558 C1559 1.362 . S
C1559 H1549 0.930 . S
C1559 C1552 1.409 . S
C1559 C1558 1.362 . S
H1560 C1566 0.930 . S
H1561 C1569 0.930 . S
H1562 C1570 0.930 . S
H1563 C1571 0.930 . S
H1564 C1574 0.930 . S
H1565 C1575 0.930 . S
C1566 H1560 0.930 . S
C1566 C1567 1.355 . S
C1566 C1568 1.415 . S
C1567 C1566 1.355 . S
C1567 C1569 1.419 1_455 S
C1568 C1566 1.415 . S
C1568 C1573 1.425 1_455 S
C1568 C1575 1.409 . S
C1569 H1561 0.930 . S
C1569 C1567 1.419 1_655 S
C1569 C1570 1.362 . S
C1570 H1562 0.930 . S
C1570 C1569 1.362 . S
C1570 C1573 1.409 . S
C1571 H1563 0.930 . S
C1571 C1572 1.355 1_655 S
C1571 C1573 1.415 . S
C1572 C1571 1.355 1_455 S
C1572 C1574 1.419 . S
C1573 C1568 1.425 1_655 S
C1573 C1570 1.409 . S
C1573 C1571 1.415 . S
C1574 H1564 0.930 . S
C1574 C1572 1.419 . S
C1574 C1575 1.362 . S
C1575 H1565 0.930 . S
C1575 C1568 1.409 . S
C1575 C1574 1.362 . S
H1576 C1582 0.930 . S
H1577 C1585 0.930 . S
H1578 C1586 0.930 . S
H1579 C1587 0.930 . S
H1580 C1590 0.930 . S
H1581 C1591 0.930 . S
C1582 H1576 0.930 . S
C1582 C1583 1.355 . S
C1582 C1584 1.415 . S
C1583 C1582 1.355 . S
C1583 C1585 1.419 . S
C1584 C1582 1.415 . S
C1584 C1589 1.425 . S
C1584 C1591 1.409 . S
C1585 H1577 0.930 . S
C1585 C1583 1.419 . S
C1585 C1586 1.362 . S
C1586 H1578 0.930 . S
C1586 C1585 1.362 . S
C1586 C1589 1.409 . S
C1587 H1579 0.930 . S
C1587 C1588 1.355 . S
C1587 C1589 1.415 . S
C1588 C1587 1.355 . S
C1588 C1590 1.419 . S
C1589 C1584 1.425 . S
C1589 C1586 1.409 . S
C1589 C1587 1.415 . S
C1590 H1580 0.930 . S
C1590 C1588 1.419 . S
C1590 C1591 1.362 . S
C1591 H1581 0.930 . S
C1591 C1584 1.409 . S
C1591 C1590 1.362 . S
H1592 C1598 0.930 . S
H1593 C1601 0.930 . S
H1594 C1602 0.930 . S
H1595 C1603 0.930 . S
H1596 C1606 0.930 . S
H1597 C1607 0.930 . S
C1598 H1592 0.930 . S
C1598 C1599 1.355 . S
C1598 C1600 1.415 . S
C1599 C1598 1.355 . S
C1599 C1601 1.419 1_655 S
C1600 C1598 1.415 . S
C1600 C1605 1.425 1_655 S
C1600 C1607 1.409 . S
C1601 H1593 0.930 . S
C1601 C1599 1.419 1_455 S
C1601 C1602 1.362 . S
C1602 H1594 0.930 . S
C1602 C1601 1.362 . S
C1602 C1605 1.409 . S
C1603 H1595 0.930 . S
C1603 C1604 1.355 . S
C1603 C1605 1.415 . S
C1604 C1603 1.355 . S
C1604 C1606 1.419 1_455 S
C1605 C1600 1.425 1_455 S
C1605 C1602 1.409 . S
C1605 C1603 1.415 . S
C1606 H1596 0.930 . S
C1606 C1604 1.419 1_655 S
C1606 C1607 1.362 . S
C1607 H1597 0.930 . S
C1607 C1600 1.409 . S
C1607 C1606 1.362 . S
H1608 C1614 0.930 . S
H1609 C1617 0.930 . S
H1610 C1618 0.930 . S
H1611 C1619 0.930 . S
H1612 C1622 0.930 . S
H1613 C1623 0.930 . S
C1614 H1608 0.930 . S
C1614 C1615 1.355 . S
C1614 C1616 1.415 . S
C1615 C1614 1.355 . S
C1615 C1617 1.419 . S
C1616 C1614 1.415 . S
C1616 C1621 1.425 . S
C1616 C1623 1.409 . S
C1617 H1609 0.930 . S
C1617 C1615 1.419 . S
C1617 C1618 1.362 . S
C1618 H1610 0.930 . S
C1618 C1617 1.362 . S
C1618 C1621 1.409 . S
C1619 H1611 0.930 . S
C1619 C1620 1.355 . S
C1619 C1621 1.415 . S
C1620 C1619 1.355 . S
C1620 C1622 1.419 . S
C1621 C1616 1.425 . S
C1621 C1618 1.409 . S
C1621 C1619 1.415 . S
C1622 H1612 0.930 . S
C1622 C1620 1.419 . S
C1622 C1623 1.362 . S
C1623 H1613 0.930 . S
C1623 C1616 1.409 . S
C1623 C1622 1.362 . S
H1624 C1630 0.930 . S
H1625 C1633 0.930 . S
H1626 C1634 0.930 . S
H1627 C1635 0.930 . S
H1628 C1638 0.930 . S
H1629 C1639 0.930 . S
C1630 H1624 0.930 . S
C1630 C1631 1.355 . S
C1630 C1632 1.415 . S
C1631 C1630 1.355 . S
C1631 C1633 1.419 . S
C1632 C1630 1.415 . S
C1632 C1637 1.425 . S
C1632 C1639 1.409 . S
C1633 H1625 0.930 . S
C1633 C1631 1.419 . S
C1633 C1634 1.362 . S
C1634 H1626 0.930 . S
C1634 C1633 1.362 . S
C1634 C1637 1.409 . S
C1635 H1627 0.930 . S
C1635 C1636 1.355 . S
C1635 C1637 1.415 . S
C1636 C1635 1.355 . S
C1636 C1638 1.419 . S
C1637 C1632 1.425 . S
C1637 C1634 1.409 . S
C1637 C1635 1.415 . S
C1638 H1628 0.930 . S
C1638 C1636 1.419 . S
C1638 C1639 1.362 . S
C1639 H1629 0.930 . S
C1639 C1632 1.409 . S
C1639 C1638 1.362 . S
H1640 C1646 0.930 . S
H1641 C1649 0.930 . S
H1642 C1650 0.930 . S
H1643 C1651 0.930 . S
H1644 C1654 0.930 . S
H1645 C1655 0.930 . S
C1646 H1640 0.930 . S
C1646 C1647 1.355 1_565 S
C1646 C1648 1.415 . S
C1647 C1646 1.355 1_545 S
C1647 C1649 1.419 . S
C1648 C1646 1.415 . S
C1648 C1653 1.425 1_565 S
C1648 C1655 1.409 . S
C1649 H1641 0.930 . S
C1649 C1647 1.419 . S
C1649 C1650 1.362 . S
C1650 H1642 0.930 . S
C1650 C1649 1.362 . S
C1650 C1653 1.409 . S
C1651 H1643 0.930 . S
C1651 C1652 1.355 1_545 S
C1651 C1653 1.415 . S
C1652 C1651 1.355 1_565 S
C1652 C1654 1.419 . S
C1653 C1648 1.425 1_545 S
C1653 C1650 1.409 . S
C1653 C1651 1.415 . S
C1654 H1644 0.930 . S
C1654 C1652 1.419 . S
C1654 C1655 1.362 . S
C1655 H1645 0.930 . S
C1655 C1648 1.409 . S
C1655 C1654 1.362 . S
H1656 C1662 0.926 1_545 S
H1657 C1665 0.930 . S
H1658 C1666 0.930 . S
H1659 C1667 0.930 . S
H1660 C1670 0.930 . S
H1661 C1671 0.930 . S
C1662 H1656 0.926 1_565 S
C1662 C1663 1.358 . S
C1662 C1664 1.415 . S
C1663 C1662 1.358 . S
C1663 C1665 1.419 . S
C1664 C1662 1.415 . S
C1664 C1669 1.420 . S
C1664 C1671 1.413 1_565 S
C1665 H1657 0.930 . S
C1665 C1663 1.419 . S
C1665 C1666 1.362 . S
C1666 H1658 0.930 . S
C1666 C1665 1.362 . S
C1666 C1669 1.409 . S
C1667 H1659 0.930 . S
C1667 C1668 1.355 . S
C1667 C1669 1.415 . S
C1668 C1667 1.355 . S
C1668 C1670 1.419 1_565 S
C1669 C1664 1.420 . S
C1669 C1666 1.409 . S
C1669 C1667 1.415 . S
C1670 H1660 0.930 . S
C1670 C1668 1.419 1_545 S
C1670 C1671 1.362 . S
C1671 H1661 0.930 . S
C1671 C1664 1.413 1_545 S
C1671 C1670 1.362 . S
H1672 C1678 0.930 . S
H1673 C1681 0.930 . S
H1674 C1682 0.930 . S
H1675 C1683 0.930 . S
H1676 C1686 0.930 . S
H1677 C1687 0.930 . S
C1678 H1672 0.930 . S
C1678 C1679 1.355 . S
C1678 C1680 1.415 . S
C1679 C1678 1.355 . S
C1679 C1681 1.419 . S
C1680 C1678 1.415 . S
C1680 C1685 1.425 . S
C1680 C1687 1.409 . S
C1681 H1673 0.930 . S
C1681 C1679 1.419 . S
C1681 C1682 1.362 . S
C1682 H1674 0.930 . S
C1682 C1681 1.362 . S
C1682 C1685 1.409 . S
C1683 H1675 0.930 . S
C1683 C1684 1.355 . S
C1683 C1685 1.415 . S
C1684 C1683 1.355 . S
C1684 C1686 1.419 . S
C1685 C1680 1.425 . S
C1685 C1682 1.409 . S
C1685 C1683 1.415 . S
C1686 H1676 0.930 . S
C1686 C1684 1.419 . S
C1686 C1687 1.362 . S
C1687 H1677 0.930 . S
C1687 C1680 1.409 . S
C1687 C1686 1.362 . S
H1688 C1694 0.930 . S
H1689 C1697 0.930 . S
H1690 C1698 0.932 1_554 S
H1691 C1699 0.918 1_554 S
H1692 C1702 0.930 . S
H1693 C1703 0.930 . S
C1694 H1688 0.930 . S
C1694 C1695 1.355 . S
C1694 C1696 1.415 . S
C1695 C1694 1.355 . S
C1695 C1697 1.419 . S
C1696 C1694 1.415 . S
C1696 C1701 1.425 . S
C1696 C1703 1.409 . S
C1697 H1689 0.930 . S
C1697 C1695 1.419 . S
C1697 C1698 1.362 . S
C1698 H1690 0.932 1_556 S
C1698 C1697 1.362 . S
C1698 C1701 1.408 . S
C1699 H1691 0.918 1_556 S
C1699 C1700 1.363 . S
C1699 C1701 1.419 . S
C1700 C1699 1.363 . S
C1700 C1702 1.419 . S
C1701 C1696 1.425 . S
C1701 C1698 1.408 . S
C1701 C1699 1.419 . S
C1702 H1692 0.930 . S
C1702 C1700 1.419 . S
C1702 C1703 1.362 . S
C1703 H1693 0.930 . S
C1703 C1696 1.409 . S
C1703 C1702 1.362 . S
H1704 C1710 0.930 . S
H1705 C1713 0.930 . S
H1706 C1714 0.930 . S
H1707 C1715 0.930 . S
H1708 C1718 0.930 . S
H1709 C1719 0.930 . S
C1710 H1704 0.930 . S
C1710 C1711 1.355 . S
C1710 C1712 1.415 . S
C1711 C1710 1.355 . S
C1711 C1713 1.419 . S
C1712 C1710 1.415 . S
C1712 C1717 1.425 . S
C1712 C1719 1.409 . S
C1713 H1705 0.930 . S
C1713 C1711 1.419 . S
C1713 C1714 1.362 . S
C1714 H1706 0.930 . S
C1714 C1713 1.362 . S
C1714 C1717 1.409 . S
C1715 H1707 0.930 . S
C1715 C1716 1.355 . S
C1715 C1717 1.415 . S
C1716 C1715 1.355 . S
C1716 C1718 1.419 . S
C1717 C1712 1.425 . S
C1717 C1714 1.409 . S
C1717 C1715 1.415 . S
C1718 H1708 0.930 . S
C1718 C1716 1.419 . S
C1718 C1719 1.362 . S
C1719 H1709 0.930 . S
C1719 C1712 1.409 . S
C1719 C1718 1.362 . S
H1720 C1726 0.930 . S
H1721 C1729 0.930 . S
H1722 C1730 0.930 . S
H1723 C1731 0.930 . S
H1724 C1734 0.930 . S
H1725 C1735 0.930 . S
C1726 H1720 0.930 . S
C1726 C1727 1.355 . S
C1726 C1728 1.415 . S
C1727 C1726 1.355 . S
C1727 C1729 1.419 1_554 S
C1728 C1726 1.415 . S
C1728 C1733 1.425 1_554 S
C1728 C1735 1.409 . S
C1729 H1721 0.930 . S
C1729 C1727 1.419 1_556 S
C1729 C1730 1.362 . S
C1730 H1722 0.930 . S
C1730 C1729 1.362 . S
C1730 C1733 1.409 . S
C1731 H1723 0.930 . S
C1731 C1732 1.355 . S
C1731 C1733 1.415 . S
C1732 C1731 1.355 . S
C1732 C1734 1.419 1_556 S
C1733 C1728 1.425 1_556 S
C1733 C1730 1.409 . S
C1733 C1731 1.415 . S
C1734 H1724 0.930 . S
C1734 C1732 1.419 1_554 S
C1734 C1735 1.362 . S
C1735 H1725 0.930 . S
C1735 C1728 1.409 . S
C1735 C1734 1.362 . S
H1736 C1742 0.930 . S
H1737 C1745 0.930 . S
H1738 C1746 0.930 . S
H1739 C1747 0.930 . S
H1740 C1750 0.930 . S
H1741 C1751 0.930 . S
C1742 H1736 0.930 . S
C1742 C1743 1.355 . S
C1742 C1744 1.415 . S
C1743 C1742 1.355 . S
C1743 C1745 1.419 . S
C1744 C1742 1.415 . S
C1744 C1749 1.425 . S
C1744 C1751 1.409 . S
C1745 H1737 0.930 . S
C1745 C1743 1.419 . S
C1745 C1746 1.362 . S
C1746 H1738 0.930 . S
C1746 C1745 1.362 . S
C1746 C1749 1.409 . S
C1747 H1739 0.930 . S
C1747 C1748 1.355 . S
C1747 C1749 1.415 . S
C1748 C1747 1.355 . S
C1748 C1750 1.419 . S
C1749 C1744 1.425 . S
C1749 C1746 1.409 . S
C1749 C1747 1.415 . S
C1750 H1740 0.930 . S
C1750 C1748 1.419 . S
C1750 C1751 1.362 . S
C1751 H1741 0.930 . S
C1751 C1744 1.409 . S
C1751 C1750 1.362 . S
H1752 C1758 0.930 1_455 S
H1753 C1761 0.930 . S
H1754 C1762 0.930 . S
H1755 C1763 0.930 . S
H1756 C1766 0.930 . S
H1757 C1767 0.930 . S
C1758 H1752 0.930 1_655 S
C1758 C1759 1.355 . S
C1758 C1760 1.415 . S
C1759 C1758 1.355 . S
C1759 C1761 1.419 . S
C1760 C1758 1.415 . S
C1760 C1765 1.425 . S
C1760 C1767 1.409 1_655 S
C1761 H1753 0.930 . S
C1761 C1759 1.419 . S
C1761 C1762 1.362 . S
C1762 H1754 0.930 . S
C1762 C1761 1.362 . S
C1762 C1765 1.409 . S
C1763 H1755 0.930 . S
C1763 C1764 1.355 . S
C1763 C1765 1.415 . S
C1764 C1763 1.355 . S
C1764 C1766 1.419 1_655 S
C1765 C1760 1.425 . S
C1765 C1762 1.409 . S
C1765 C1763 1.415 . S
C1766 H1756 0.930 . S
C1766 C1764 1.419 1_455 S
C1766 C1767 1.362 . S
C1767 H1757 0.930 . S
C1767 C1760 1.409 1_455 S
C1767 C1766 1.362 . S
H1768 C1774 0.930 . S
H1769 C1777 0.930 . S
H1770 C1778 0.930 . S
H1771 C1779 0.930 . S
H1772 C1782 0.930 . S
H1773 C1783 0.930 . S
C1774 H1768 0.930 . S
C1774 C1775 1.355 . S
C1774 C1776 1.415 . S
C1775 C1774 1.355 . S
C1775 C1777 1.419 . S
C1776 C1774 1.415 . S
C1776 C1781 1.425 . S
C1776 C1783 1.409 . S
C1777 H1769 0.930 . S
C1777 C1775 1.419 . S
C1777 C1778 1.362 . S
C1778 H1770 0.930 . S
C1778 C1777 1.362 . S
C1778 C1781 1.409 . S
C1779 H1771 0.930 . S
C1779 C1780 1.355 . S
C1779 C1781 1.415 . S
C1780 C1779 1.355 . S
C1780 C1782 1.419 . S
C1781 C1776 1.425 . S
C1781 C1778 1.409 . S
C1781 C1779 1.415 . S
C1782 H1772 0.930 . S
C1782 C1780 1.419 . S
C1782 C1783 1.362 . S
C1783 H1773 0.930 . S
C1783 C1776 1.409 . S
C1783 C1782 1.362 . S
H1784 C1790 0.930 . S
H1785 C1793 0.930 . S
H1786 C1794 0.930 . S
H1787 C1795 0.930 . S
H1788 C1798 0.930 . S
H1789 C1799 0.930 . S
C1790 H1784 0.930 . S
C1790 C1791 1.355 . S
C1790 C1792 1.415 . S
C1791 C1790 1.355 . S
C1791 C1793 1.419 1_455 S
C1792 C1790 1.415 . S
C1792 C1797 1.425 1_455 S
C1792 C1799 1.409 . S
C1793 H1785 0.930 . S
C1793 C1791 1.419 1_655 S
C1793 C1794 1.362 . S
C1794 H1786 0.930 . S
C1794 C1793 1.362 . S
C1794 C1797 1.409 . S
C1795 H1787 0.930 . S
C1795 C1796 1.355 . S
C1795 C1797 1.415 . S
C1796 C1795 1.355 . S
C1796 C1798 1.419 1_655 S
C1797 C1792 1.425 1_655 S
C1797 C1794 1.409 . S
C1797 C1795 1.415 . S
C1798 H1788 0.930 . S
C1798 C1796 1.419 1_455 S
C1798 C1799 1.362 . S
C1799 H1789 0.930 . S
C1799 C1792 1.409 . S
C1799 C1798 1.362 . S
H1800 C1806 0.930 . S
H1801 C1809 0.930 . S
H1802 C1810 0.930 . S
H1803 C1811 0.930 . S
H1804 C1814 0.930 . S
H1805 C1815 0.930 . S
C1806 H1800 0.930 . S
C1806 C1807 1.355 . S
C1806 C1808 1.415 . S
C1807 C1806 1.355 . S
C1807 C1809 1.419 . S
C1808 C1806 1.415 . S
C1808 C1813 1.425 . S
C1808 C1815 1.409 . S
C1809 H1801 0.930 . S
C1809 C1807 1.419 . S
C1809 C1810 1.362 . S
C1810 H1802 0.930 . S
C1810 C1809 1.362 . S
C1810 C1813 1.409 . S
C1811 H1803 0.930 . S
C1811 C1812 1.355 . S
C1811 C1813 1.415 . S
C1812 C1811 1.355 . S
C1812 C1814 1.419 . S
C1813 C1808 1.425 . S
C1813 C1810 1.409 . S
C1813 C1811 1.415 . S
C1814 H1804 0.930 . S
C1814 C1812 1.419 . S
C1814 C1815 1.362 . S
C1815 H1805 0.930 . S
C1815 C1808 1.409 . S
C1815 C1814 1.362 . S
H1816 C1822 0.930 . S
H1817 C1825 0.930 . S
H1818 C1826 0.930 . S
H1819 C1827 0.930 . S
H1820 C1830 0.930 . S
H1821 C1831 0.930 . S
C1822 H1816 0.930 . S
C1822 C1823 1.355 . S
C1822 C1824 1.415 . S
C1823 C1822 1.355 . S
C1823 C1825 1.419 . S
C1824 C1822 1.415 . S
C1824 C1829 1.425 . S
C1824 C1831 1.409 . S
C1825 H1817 0.930 . S
C1825 C1823 1.419 . S
C1825 C1826 1.362 . S
C1826 H1818 0.930 . S
C1826 C1825 1.362 . S
C1826 C1829 1.409 . S
C1827 H1819 0.930 . S
C1827 C1828 1.355 . S
C1827 C1829 1.415 . S
C1828 C1827 1.355 . S
C1828 C1830 1.419 . S
C1829 C1824 1.425 . S
C1829 C1826 1.409 . S
C1829 C1827 1.415 . S
C1830 H1820 0.930 . S
C1830 C1828 1.419 . S
C1830 C1831 1.362 . S
C1831 H1821 0.930 . S
C1831 C1824 1.409 . S
C1831 C1830 1.362 . S
H1832 C1838 0.930 . S
H1833 C1841 0.916 1_565 S
H1834 C1842 0.930 1_565 S
H1835 C1843 0.930 . S
H1836 C1846 0.930 . S
H1837 C1847 0.930 . S
C1838 H1832 0.930 . S
C1838 C1839 1.355 . S
C1838 C1840 1.415 . S
C1839 C1838 1.355 . S
C1839 C1841 1.431 . S
C1840 C1838 1.415 . S
C1840 C1845 1.425 . S
C1840 C1847 1.409 . S
C1841 H1833 0.916 1_545 S
C1841 C1839 1.431 . S
C1841 C1842 1.365 . S
C1842 H1834 0.930 1_545 S
C1842 C1841 1.365 . S
C1842 C1845 1.409 . S
C1843 H1835 0.930 . S
C1843 C1844 1.355 . S
C1843 C1845 1.415 . S
C1844 C1843 1.355 . S
C1844 C1846 1.419 . S
C1845 C1840 1.425 . S
C1845 C1842 1.409 . S
C1845 C1843 1.415 . S
C1846 H1836 0.930 . S
C1846 C1844 1.419 . S
C1846 C1847 1.362 . S
C1847 H1837 0.930 . S
C1847 C1840 1.409 . S
C1847 C1846 1.362 . S
H1848 C1854 0.930 . S
H1849 C1857 0.930 . S
H1850 C1858 0.928 . S
H1851 C1859 0.930 . S
H1852 C1862 0.930 . S
H1853 C1863 0.930 . S
C1854 H1848 0.930 . S
C1854 C1855 1.355 . S
C1854 C1856 1.415 . S
C1855 C1854 1.355 . S
C1855 C1857 1.419 1_565 S
C1856 C1854 1.415 . S
C1856 C1861 1.425 . S
C1856 C1863 1.409 . S
C1857 H1849 0.930 . S
C1857 C1855 1.419 1_545 S
C1857 C1858 1.362 . S
C1858 H1850 0.928 . S
C1858 C1857 1.362 . S
C1858 C1861 1.411 1_545 S
C1859 H1851 0.930 . S
C1859 C1860 1.355 . S
C1859 C1861 1.415 . S
C1860 C1859 1.355 . S
C1860 C1862 1.419 . S
C1861 C1856 1.425 . S
C1861 C1858 1.411 1_565 S
C1861 C1859 1.415 . S
C1862 H1852 0.930 . S
C1862 C1860 1.419 . S
C1862 C1863 1.362 . S
C1863 H1853 0.930 . S
C1863 C1856 1.409 . S
C1863 C1862 1.362 . S
H1864 C1870 0.930 . S
H1865 C1873 0.930 . S
H1866 C1874 0.930 . S
H1867 C1875 0.930 . S
H1868 C1878 0.930 . S
H1869 C1879 0.930 . S
C1870 H1864 0.930 . S
C1870 C1871 1.355 . S
C1870 C1872 1.415 . S
C1871 C1870 1.355 . S
C1871 C1873 1.419 . S
C1872 C1870 1.415 . S
C1872 C1877 1.425 . S
C1872 C1879 1.409 . S
C1873 H1865 0.930 . S
C1873 C1871 1.419 . S
C1873 C1874 1.362 . S
C1874 H1866 0.930 . S
C1874 C1873 1.362 . S
C1874 C1877 1.409 . S
C1875 H1867 0.930 . S
C1875 C1876 1.355 . S
C1875 C1877 1.415 . S
C1876 C1875 1.355 . S
C1876 C1878 1.419 . S
C1877 C1872 1.425 . S
C1877 C1874 1.409 . S
C1877 C1875 1.415 . S
C1878 H1868 0.930 . S
C1878 C1876 1.419 . S
C1878 C1879 1.362 . S
C1879 H1869 0.930 . S
C1879 C1872 1.409 . S
C1879 C1878 1.362 . S
H1880 C1886 0.930 . S
H1881 C1889 0.930 . S
H1882 C1890 0.930 . S
H1883 C1891 0.930 . S
H1884 C1894 0.930 . S
H1885 C1895 0.930 . S
C1886 H1880 0.930 . S
C1886 C1887 1.355 . S
C1886 C1888 1.415 . S
C1887 C1886 1.355 . S
C1887 C1889 1.419 . S
C1888 C1886 1.415 . S
C1888 C1893 1.425 . S
C1888 C1895 1.409 . S
C1889 H1881 0.930 . S
C1889 C1887 1.419 . S
C1889 C1890 1.362 . S
C1890 H1882 0.930 . S
C1890 C1889 1.362 . S
C1890 C1893 1.409 . S
C1891 H1883 0.930 . S
C1891 C1892 1.355 . S
C1891 C1893 1.415 . S
C1892 C1891 1.355 . S
C1892 C1894 1.419 . S
C1893 C1888 1.425 . S
C1893 C1890 1.409 . S
C1893 C1891 1.415 . S
C1894 H1884 0.930 . S
C1894 C1892 1.419 . S
C1894 C1895 1.362 . S
C1895 H1885 0.930 . S
C1895 C1888 1.409 . S
C1895 C1894 1.362 . S
H1896 C1902 0.930 . S
H1897 C1905 0.930 . S
H1898 C1906 0.930 . S
H1899 C1907 0.930 . S
H1900 C1910 0.930 . S
H1901 C1911 0.930 . S
C1902 H1896 0.930 . S
C1902 C1903 1.355 . S
C1902 C1904 1.415 . S
C1903 C1902 1.355 . S
C1903 C1905 1.419 . S
C1904 C1902 1.415 . S
C1904 C1909 1.425 . S
C1904 C1911 1.409 . S
C1905 H1897 0.930 . S
C1905 C1903 1.419 . S
C1905 C1906 1.362 . S
C1906 H1898 0.930 . S
C1906 C1905 1.362 . S
C1906 C1909 1.409 . S
C1907 H1899 0.930 . S
C1907 C1908 1.355 . S
C1907 C1909 1.415 . S
C1908 C1907 1.355 . S
C1908 C1910 1.419 . S
C1909 C1904 1.425 . S
C1909 C1906 1.409 . S
C1909 C1907 1.415 . S
C1910 H1900 0.930 . S
C1910 C1908 1.419 . S
C1910 C1911 1.362 . S
C1911 H1901 0.930 . S
C1911 C1904 1.409 . S
C1911 C1910 1.362 . S
H1912 C1918 0.930 1_556 S
H1913 C1921 0.930 . S
H1914 C1922 0.930 . S
H1915 C1923 0.930 . S
H1916 C1926 0.930 . S
H1917 C1927 0.930 1_556 S
C1918 H1912 0.930 1_554 S
C1918 C1919 1.355 . S
C1918 C1920 1.415 . S
C1919 C1918 1.355 . S
C1919 C1921 1.419 . S
C1920 C1918 1.415 . S
C1920 C1925 1.425 . S
C1920 C1927 1.409 . S
C1921 H1913 0.930 . S
C1921 C1919 1.419 . S
C1921 C1922 1.362 . S
C1922 H1914 0.930 . S
C1922 C1921 1.362 . S
C1922 C1925 1.409 . S
C1923 H1915 0.930 . S
C1923 C1924 1.355 . S
C1923 C1925 1.415 . S
C1924 C1923 1.355 . S
C1924 C1926 1.419 . S
C1925 C1920 1.425 . S
C1925 C1922 1.409 . S
C1925 C1923 1.415 . S
C1926 H1916 0.930 . S
C1926 C1924 1.419 . S
C1926 C1927 1.362 . S
C1927 H1917 0.930 1_554 S
C1927 C1920 1.409 . S
C1927 C1926 1.362 . S
H1928 C1934 0.930 . S
H1929 C1937 0.930 . S
H1930 C1938 0.930 . S
H1931 C1939 0.930 . S
H1932 C1942 0.930 . S
H1933 C1943 0.930 . S
C1934 H1928 0.930 . S
C1934 C1935 1.355 . S
C1934 C1936 1.415 . S
C1935 C1934 1.355 . S
C1935 C1937 1.419 . S
C1936 C1934 1.415 . S
C1936 C1941 1.425 . S
C1936 C1943 1.409 . S
C1937 H1929 0.930 . S
C1937 C1935 1.419 . S
C1937 C1938 1.362 . S
C1938 H1930 0.930 . S
C1938 C1937 1.362 . S
C1938 C1941 1.409 . S
C1939 H1931 0.930 . S
C1939 C1940 1.355 . S
C1939 C1941 1.415 . S
C1940 C1939 1.355 . S
C1940 C1942 1.419 . S
C1941 C1936 1.425 . S
C1941 C1938 1.409 . S
C1941 C1939 1.415 . S
C1942 H1932 0.930 . S
C1942 C1940 1.419 . S
C1942 C1943 1.362 . S
C1943 H1933 0.930 . S
C1943 C1936 1.409 . S
C1943 C1942 1.362 . S
H1944 C1950 0.930 . S
H1945 C1953 0.930 . S
H1946 C1954 0.930 . S
H1947 C1955 0.930 . S
H1948 C1958 0.930 . S
H1949 C1959 0.930 . S
C1950 H1944 0.930 . S
C1950 C1951 1.355 . S
C1950 C1952 1.415 . S
C1951 C1950 1.355 . S
C1951 C1953 1.419 . S
C1952 C1950 1.415 . S
C1952 C1957 1.425 . S
C1952 C1959 1.409 . S
C1953 H1945 0.930 . S
C1953 C1951 1.419 . S
C1953 C1954 1.362 . S
C1954 H1946 0.930 . S
C1954 C1953 1.362 . S
C1954 C1957 1.409 . S
C1955 H1947 0.930 . S
C1955 C1956 1.355 . S
C1955 C1957 1.415 . S
C1956 C1955 1.355 . S
C1956 C1958 1.419 . S
C1957 C1952 1.425 . S
C1957 C1954 1.409 . S
C1957 C1955 1.415 . S
C1958 H1948 0.930 . S
C1958 C1956 1.419 . S
C1958 C1959 1.362 . S
C1959 H1949 0.930 . S
C1959 C1952 1.409 . S
C1959 C1958 1.362 . S
H1960 C1966 0.930 . S
H1961 C1969 0.930 . S
H1962 C1970 0.930 . S
H1963 C1971 0.930 . S
H1964 C1974 0.930 . S
H1965 C1975 0.930 . S
C1966 H1960 0.930 . S
C1966 C1967 1.355 . S
C1966 C1968 1.415 . S
C1967 C1966 1.355 . S
C1967 C1969 1.419 . S
C1968 C1966 1.415 . S
C1968 C1973 1.425 . S
C1968 C1975 1.409 . S
C1969 H1961 0.930 . S
C1969 C1967 1.419 . S
C1969 C1970 1.362 . S
C1970 H1962 0.930 . S
C1970 C1969 1.362 . S
C1970 C1973 1.409 . S
C1971 H1963 0.930 . S
C1971 C1972 1.355 . S
C1971 C1973 1.415 . S
C1972 C1971 1.355 . S
C1972 C1974 1.419 . S
C1973 C1968 1.425 . S
C1973 C1970 1.409 . S
C1973 C1971 1.415 . S
C1974 H1964 0.930 . S
C1974 C1972 1.419 . S
C1974 C1975 1.362 . S
C1975 H1965 0.930 . S
C1975 C1968 1.409 . S
C1975 C1974 1.362 . S
H1976 C1982 0.930 . S
H1977 C1985 0.930 . S
H1978 C1986 0.930 . S
H1979 C1987 0.930 . S
H1980 C1990 0.930 . S
H1981 C1991 0.930 . S
C1982 H1976 0.930 . S
C1982 C1983 1.355 . S
C1982 C1984 1.415 . S
C1983 C1982 1.355 . S
C1983 C1985 1.419 1_455 S
C1984 C1982 1.415 . S
C1984 C1989 1.425 . S
C1984 C1991 1.409 . S
C1985 H1977 0.930 . S
C1985 C1983 1.419 1_655 S
C1985 C1986 1.362 . S
C1986 H1978 0.930 . S
C1986 C1985 1.362 . S
C1986 C1989 1.409 1_655 S
C1987 H1979 0.930 . S
C1987 C1988 1.355 . S
C1987 C1989 1.415 . S
C1988 C1987 1.355 . S
C1988 C1990 1.419 . S
C1989 C1984 1.425 . S
C1989 C1986 1.409 1_455 S
C1989 C1987 1.415 . S
C1990 H1980 0.930 . S
C1990 C1988 1.419 . S
C1990 C1991 1.362 . S
C1991 H1981 0.930 . S
C1991 C1984 1.409 . S
C1991 C1990 1.362 . S
H1992 C1998 0.930 . S
H1993 C2001 0.930 . S
H1994 C2002 0.930 . S
H1995 C2003 0.930 . S
H1996 C2006 0.930 . S
H1997 C2007 0.930 . S
C1998 H1992 0.930 . S
C1998 C1999 1.355 . S
C1998 C2000 1.415 . S
C1999 C1998 1.355 . S
C1999 C2001 1.419 . S
C2000 C1998 1.415 . S
C2000 C2005 1.425 . S
C2000 C2007 1.409 . S
C2001 H1993 0.930 . S
C2001 C1999 1.419 . S
C2001 C2002 1.362 . S
C2002 H1994 0.930 . S
C2002 C2001 1.362 . S
C2002 C2005 1.409 . S
C2003 H1995 0.930 . S
C2003 C2004 1.355 . S
C2003 C2005 1.415 . S
C2004 C2003 1.355 . S
C2004 C2006 1.419 . S
C2005 C2000 1.425 . S
C2005 C2002 1.409 . S
C2005 C2003 1.415 . S
C2006 H1996 0.930 . S
C2006 C2004 1.419 . S
C2006 C2007 1.362 . S
C2007 H1997 0.930 . S
C2007 C2000 1.409 . S
C2007 C2006 1.362 . S
H2008 C2014 0.930 . S
H2009 C2017 0.930 . S
H2010 C2018 0.930 . S
H2011 C2019 0.930 . S
H2012 C2022 0.930 . S
H2013 C2023 0.930 . S
C2014 H2008 0.930 . S
C2014 C2015 1.355 . S
C2014 C2016 1.415 . S
C2015 C2014 1.355 . S
C2015 C2017 1.419 . S
C2016 C2014 1.415 . S
C2016 C2021 1.425 . S
C2016 C2023 1.409 . S
C2017 H2009 0.930 . S
C2017 C2015 1.419 . S
C2017 C2018 1.362 . S
C2018 H2010 0.930 . S
C2018 C2017 1.362 . S
C2018 C2021 1.409 . S
C2019 H2011 0.930 . S
C2019 C2020 1.355 . S
C2019 C2021 1.415 . S
C2020 C2019 1.355 . S
C2020 C2022 1.419 . S
C2021 C2016 1.425 . S
C2021 C2018 1.409 . S
C2021 C2019 1.415 . S
C2022 H2012 0.930 . S
C2022 C2020 1.419 . S
C2022 C2023 1.362 . S
C2023 H2013 0.930 . S
C2023 C2016 1.409 . S
C2023 C2022 1.362 . S
H2024 C2030 0.930 . S
H2025 C2033 0.930 . S
H2026 C2034 0.930 . S
H2027 C2035 0.930 . S
H2028 C2038 0.930 . S
H2029 C2039 0.930 . S
C2030 H2024 0.930 . S
C2030 C2031 1.355 . S
C2030 C2032 1.415 . S
C2031 C2030 1.355 . S
C2031 C2033 1.419 . S
C2032 C2030 1.415 . S
C2032 C2037 1.425 . S
C2032 C2039 1.409 . S
C2033 H2025 0.930 . S
C2033 C2031 1.419 . S
C2033 C2034 1.362 . S
C2034 H2026 0.930 . S
C2034 C2033 1.362 . S
C2034 C2037 1.409 . S
C2035 H2027 0.930 . S
C2035 C2036 1.355 . S
C2035 C2037 1.415 . S
C2036 C2035 1.355 . S
C2036 C2038 1.419 . S
C2037 C2032 1.425 . S
C2037 C2034 1.409 . S
C2037 C2035 1.415 . S
C2038 H2028 0.930 . S
C2038 C2036 1.419 . S
C2038 C2039 1.362 . S
C2039 H2029 0.930 . S
C2039 C2032 1.409 . S
C2039 C2038 1.362 . S
H2040 C2046 0.930 . S
H2041 C2049 0.930 . S
H2042 C2050 0.930 . S
H2043 C2051 0.930 . S
H2044 C2054 0.930 . S
H2045 C2055 0.930 . S
C2046 H2040 0.930 . S
C2046 C2047 1.355 . S
C2046 C2048 1.415 . S
C2047 C2046 1.355 . S
C2047 C2049 1.419 . S
C2048 C2046 1.415 . S
C2048 C2053 1.425 . S
C2048 C2055 1.409 . S
C2049 H2041 0.930 . S
C2049 C2047 1.419 . S
C2049 C2050 1.362 . S
C2050 H2042 0.930 . S
C2050 C2049 1.362 . S
C2050 C2053 1.409 . S
C2051 H2043 0.930 . S
C2051 C2052 1.355 . S
C2051 C2053 1.415 . S
C2052 C2051 1.355 . S
C2052 C2054 1.419 . S
C2053 C2048 1.425 . S
C2053 C2050 1.409 . S
C2053 C2051 1.415 . S
C2054 H2044 0.930 . S
C2054 C2052 1.419 . S
C2054 C2055 1.362 . S
C2055 H2045 0.930 . S
C2055 C2048 1.409 . S
C2055 C2054 1.362 . S
H2056 C2062 0.930 . S
H2057 C2065 0.930 . S
H2058 C2066 0.930 . S
H2059 C2067 0.930 . S
H2060 C2070 0.930 . S
H2061 C2071 0.930 . S
C2062 H2056 0.930 . S
C2062 C2063 1.355 . S
C2062 C2064 1.415 . S
C2063 C2062 1.355 . S
C2063 C2065 1.419 . S
C2064 C2062 1.415 . S
C2064 C2069 1.425 . S
C2064 C2071 1.409 . S
C2065 H2057 0.930 . S
C2065 C2063 1.419 . S
C2065 C2066 1.362 . S
C2066 H2058 0.930 . S
C2066 C2065 1.362 . S
C2066 C2069 1.409 . S
C2067 H2059 0.930 . S
C2067 C2068 1.355 . S
C2067 C2069 1.415 . S
C2068 C2067 1.355 . S
C2068 C2070 1.419 . S
C2069 C2064 1.425 . S
C2069 C2066 1.409 . S
C2069 C2067 1.415 . S
C2070 H2060 0.930 . S
C2070 C2068 1.419 . S
C2070 C2071 1.362 . S
C2071 H2061 0.930 . S
C2071 C2064 1.409 . S
C2071 C2070 1.362 . S
H2072 C2078 0.930 . S
H2073 C2081 0.930 . S
H2074 C2082 0.930 . S
H2075 C2083 0.930 . S
H2076 C2086 0.930 . S
H2077 C2087 0.930 . S
C2078 H2072 0.930 . S
C2078 C2079 1.355 . S
C2078 C2080 1.415 . S
C2079 C2078 1.355 . S
C2079 C2081 1.419 . S
C2080 C2078 1.415 . S
C2080 C2085 1.425 . S
C2080 C2087 1.409 . S
C2081 H2073 0.930 . S
C2081 C2079 1.419 . S
C2081 C2082 1.362 . S
C2082 H2074 0.930 . S
C2082 C2081 1.362 . S
C2082 C2085 1.409 . S
C2083 H2075 0.930 . S
C2083 C2084 1.355 . S
C2083 C2085 1.415 . S
C2084 C2083 1.355 . S
C2084 C2086 1.419 . S
C2085 C2080 1.425 . S
C2085 C2082 1.409 . S
C2085 C2083 1.415 . S
C2086 H2076 0.930 . S
C2086 C2084 1.419 . S
C2086 C2087 1.362 . S
C2087 H2077 0.930 . S
C2087 C2080 1.409 . S
C2087 C2086 1.362 . S
H2088 C2094 0.930 . S
H2089 C2097 0.930 . S
H2090 C2098 0.930 . S
H2091 C2099 0.930 . S
H2092 C2102 0.930 . S
H2093 C2103 0.930 . S
C2094 H2088 0.930 . S
C2094 C2095 1.355 . S
C2094 C2096 1.415 . S
C2095 C2094 1.355 . S
C2095 C2097 1.419 . S
C2096 C2094 1.415 . S
C2096 C2101 1.425 . S
C2096 C2103 1.409 . S
C2097 H2089 0.930 . S
C2097 C2095 1.419 . S
C2097 C2098 1.362 . S
C2098 H2090 0.930 . S
C2098 C2097 1.362 . S
C2098 C2101 1.409 . S
C2099 H2091 0.930 . S
C2099 C2100 1.355 . S
C2099 C2101 1.415 . S
C2100 C2099 1.355 . S
C2100 C2102 1.419 . S
C2101 C2096 1.425 . S
C2101 C2098 1.409 . S
C2101 C2099 1.415 . S
C2102 H2092 0.930 . S
C2102 C2100 1.419 . S
C2102 C2103 1.362 . S
C2103 H2093 0.930 . S
C2103 C2096 1.409 . S
C2103 C2102 1.362 . S
H2104 C2110 0.944 . S
H2105 C2113 0.930 . S
H2106 C2114 0.930 . S
H2107 C2115 0.930 . S
H2108 C2118 0.930 1_554 S
H2109 C2119 0.930 . S
C2110 H2104 0.944 . S
C2110 C2111 1.346 1_554 S
C2110 C2112 1.409 1_554 S
C2111 C2110 1.346 1_556 S
C2111 C2113 1.419 . S
C2112 C2110 1.409 1_556 S
C2112 C2117 1.425 . S
C2112 C2119 1.409 1_556 S
C2113 H2105 0.930 . S
C2113 C2111 1.419 . S
C2113 C2114 1.362 . S
C2114 H2106 0.930 . S
C2114 C2113 1.362 . S
C2114 C2117 1.409 . S
C2115 H2107 0.930 . S
C2115 C2116 1.355 . S
C2115 C2117 1.415 . S
C2116 C2115 1.355 . S
C2116 C2118 1.419 . S
C2117 C2112 1.425 . S
C2117 C2114 1.409 . S
C2117 C2115 1.415 . S
C2118 H2108 0.930 1_556 S
C2118 C2116 1.419 . S
C2118 C2119 1.362 1_556 S
C2119 H2109 0.930 . S
C2119 C2112 1.409 1_554 S
C2119 C2118 1.362 1_554 S
H2120 C2126 0.930 . S
H2121 C2129 0.930 . S
H2122 C2130 0.930 . S
H2123 C2131 0.930 . S
H2124 C2134 0.930 . S
H2125 C2135 0.930 . S
C2126 H2120 0.930 . S
C2126 C2127 1.355 . S
C2126 C2128 1.415 . S
C2127 C2126 1.355 . S
C2127 C2129 1.419 . S
C2128 C2126 1.415 . S
C2128 C2133 1.425 . S
C2128 C2135 1.409 . S
C2129 H2121 0.930 . S
C2129 C2127 1.419 . S
C2129 C2130 1.362 . S
C2130 H2122 0.930 . S
C2130 C2129 1.362 . S
C2130 C2133 1.409 . S
C2131 H2123 0.930 . S
C2131 C2132 1.355 . S
C2131 C2133 1.415 . S
C2132 C2131 1.355 . S
C2132 C2134 1.419 . S
C2133 C2128 1.425 . S
C2133 C2130 1.409 . S
C2133 C2131 1.415 . S
C2134 H2124 0.930 . S
C2134 C2132 1.419 . S
C2134 C2135 1.362 . S
C2135 H2125 0.930 . S
C2135 C2128 1.409 . S
C2135 C2134 1.362 . S
H2136 C2142 0.930 . S
H2137 C2145 0.930 . S
H2138 C2146 0.930 1_655 S
H2139 C2147 0.930 . S
H2140 C2150 0.930 . S
H2141 C2151 0.930 . S
C2142 H2136 0.930 . S
C2142 C2143 1.355 . S
C2142 C2144 1.415 . S
C2143 C2142 1.355 . S
C2143 C2145 1.419 1_455 S
C2144 C2142 1.415 . S
C2144 C2149 1.425 . S
C2144 C2151 1.409 . S
C2145 H2137 0.930 . S
C2145 C2143 1.419 1_655 S
C2145 C2146 1.362 1_655 S
C2146 H2138 0.930 1_455 S
C2146 C2145 1.362 1_455 S
C2146 C2149 1.409 . S
C2147 H2139 0.930 . S
C2147 C2148 1.355 . S
C2147 C2149 1.415 . S
C2148 C2147 1.355 . S
C2148 C2150 1.419 . S
C2149 C2144 1.425 . S
C2149 C2146 1.409 . S
C2149 C2147 1.415 . S
C2150 H2140 0.930 . S
C2150 C2148 1.419 . S
C2150 C2151 1.362 . S
C2151 H2141 0.930 . S
C2151 C2144 1.409 . S
C2151 C2150 1.362 . S
H2152 C2158 0.930 . S
H2153 C2161 0.930 . S
H2154 C2162 0.930 . S
H2155 C2163 0.930 . S
H2156 C2166 0.930 . S
H2157 C2167 0.930 . S
C2158 H2152 0.930 . S
C2158 C2159 1.355 . S
C2158 C2160 1.415 . S
C2159 C2158 1.355 . S
C2159 C2161 1.419 . S
C2160 C2158 1.415 . S
C2160 C2165 1.425 . S
C2160 C2167 1.409 . S
C2161 H2153 0.930 . S
C2161 C2159 1.419 . S
C2161 C2162 1.362 . S
C2162 H2154 0.930 . S
C2162 C2161 1.362 . S
C2162 C2165 1.409 . S
C2163 H2155 0.930 . S
C2163 C2164 1.355 . S
C2163 C2165 1.415 . S
C2164 C2163 1.355 . S
C2164 C2166 1.419 . S
C2165 C2160 1.425 . S
C2165 C2162 1.409 . S
C2165 C2163 1.415 . S
C2166 H2156 0.930 . S
C2166 C2164 1.419 . S
C2166 C2167 1.362 . S
C2167 H2157 0.930 . S
C2167 C2160 1.409 . S
C2167 C2166 1.362 . S
H2168 C2174 0.930 . S
H2169 C2177 0.930 . S
H2170 C2178 0.930 . S
H2171 C2179 0.930 1_455 S
H2172 C2182 0.930 . S
H2173 C2183 0.930 . S
C2174 H2168 0.930 . S
C2174 C2175 1.355 . S
C2174 C2176 1.415 . S
C2175 C2174 1.355 . S
C2175 C2177 1.419 1_655 S
C2176 C2174 1.415 . S
C2176 C2181 1.425 . S
C2176 C2183 1.409 . S
C2177 H2169 0.930 . S
C2177 C2175 1.419 1_455 S
C2177 C2178 1.362 . S
C2178 H2170 0.930 . S
C2178 C2177 1.362 . S
C2178 C2181 1.409 1_455 S
C2179 H2171 0.930 1_655 S
C2179 C2180 1.355 . S
C2179 C2181 1.415 . S
C2180 C2179 1.355 . S
C2180 C2182 1.419 . S
C2181 C2176 1.425 . S
C2181 C2178 1.409 1_655 S
C2181 C2179 1.415 . S
C2182 H2172 0.930 . S
C2182 C2180 1.419 . S
C2182 C2183 1.362 . S
C2183 H2173 0.930 . S
C2183 C2176 1.409 . S
C2183 C2182 1.362 . S
C1044 C1017 1.800 . S
C1039 C8 1.809 . S
C1060 C921 1.576 . S
C1055 C19 1.497 . S
C1076 C985 1.380 . S
C1071 C30 1.418 . S
C1092 C953 1.957 . S
C1087 C41 1.910 . S
C1108 C729 1.759 . S
C1103 C52 1.823 . S
C1119 C63 1.903 . S
C1124 C761 1.969 . S
C1140 C665 1.533 . S
C1135 C74 1.552 . S
C1151 C85 1.405 . S
C1156 C697 1.423 . S
C1172 C889 1.759 . S
C1167 C96 1.824 . S
C1183 C107 1.915 . S
C1188 C825 1.953 . S
C1199 C118 1.553 . S
C1204 C793 1.537 . S
C1220 C857 1.370 . S
C1215 C129 1.429 . S
C1236 C633 1.793 . S
C1231 C140 1.753 . S
C1247 C151 1.432 . S
C1252 C537 1.546 . S
C1268 C601 1.453 . S
C1263 C162 1.419 . S
C1279 C173 1.848 . S
C1284 C569 1.942 . S
C1300 C345 1.785 . S
C1295 C184 1.775 . S
C1316 C377 1.944 . S
C1311 C195 1.860 . S
C1327 C206 1.447 . S
C1332 C281 1.502 . S
C1343 C217 1.361 . S
C1348 C313 1.415 . S
C1359 C228 1.798 . S
C1364 C505 1.825 . S
C1375 C239 1.898 . S
C1380 C441 1.948 . S
C1396 C409 1.502 . S
C1391 C250 1.449 . S
C1407 C261 1.436 . S
C1412 C473 1.435 . S
C1428 C293 1.253 . S
C1423 C7 1.284 . S
C1444 C325 1.275 . S
C1439 C18 1.276 . S
C1455 C29 1.239 . S
C1460 C357 1.247 . S
C1471 C40 1.032 . S
C1476 C389 1.022 . S
C1492 C421 1.254 . S
C1487 C51 1.273 . S
C1503 C62 1.016 . S
C1508 C453 1.008 . S
C1524 C485 1.302 . S
C1519 C73 1.318 . S
C1540 C517 1.243 . S
C1535 C84 1.234 . S
C1556 C549 1.252 . S
C1551 C95 1.273 . S
C1567 C106 1.010 . S
C1572 C581 1.022 . S
C1583 C117 1.285 . S
C1588 C613 1.287 . S
C1599 C128 1.242 . S
C1604 C645 1.235 . S
C1615 C139 1.221 . S
C1620 C677 1.184 . S
C1631 C150 1.088 . S
C1636 C709 1.171 . S
C1647 C161 1.205 . S
C1652 C741 1.204 . S
C1663 C172 1.030 . S
C1668 C773 0.989 . S
C1679 C183 1.133 . S
C1684 C805 1.219 . S
C1700 C837 0.938 . S
C1695 C194 0.929 . S
C1716 C869 1.236 . S
C1711 C205 1.222 . S
C1732 C901 1.159 . S
C1727 C216 1.088 . S
C1748 C933 1.255 . S
C1743 C227 1.142 . S
C1759 C238 1.003 . S
C1764 C965 1.023 . S
C1775 C249 1.189 . S
C1780 C997 1.263 . S
C1791 C260 1.109 . S
C1796 C1029 1.227 . S
C1807 C5 1.459 . S
C1812 C543 1.718 . S
C1828 C639 1.668 . S
C1823 C16 1.407 . S
C1839 C27 1.231 1_545 S
C1844 C575 1.412 . S
C1860 C607 2.081 . S
C1855 C38 1.779 1_565 S
C1871 C49 1.406 . S
C1876 C287 1.706 . S
C1887 C60 1.834 1_556 S
C1892 C319 2.074 . S
C1903 C71 1.369 . S
C1908 C351 1.659 . S
C1919 C82 1.294 1_554 S
C1924 C383 1.426 . S
C1940 C415 1.706 . S
C1935 C93 1.401 . S
C1956 C479 2.084 . S
C1951 C104 1.809 1_655 S
C1967 C115 1.402 . S
C1972 C511 1.660 . S
C1983 C126 1.219 1_455 S
C1988 C447 1.425 . S
C2004 C927 1.632 . S
C1999 C137 1.236 . S
C2020 C1023 1.495 . S
C2015 C148 1.094 . S
C2031 C159 1.035 . S
C2036 C959 1.288 . S
C2052 C991 1.878 . S
C2047 C170 1.424 . S
C2063 C181 1.241 . S
C2068 C671 1.574 . S
C2079 C192 1.487 . S
C2084 C703 1.953 . S
C2095 C203 1.085 . S
C2100 C735 1.562 . S
C2116 C767 1.320 . S
C2111 C214 0.983 . S
C2132 C799 1.588 . S
C2127 C225 1.213 . S
C2148 C863 1.894 . S
C2143 C236 1.481 . S
C2159 C247 1.114 . S
C2164 C895 1.488 . S
C2180 C831 1.348 . S
C2175 C258 1.164 . S
