# Generated by pormake.
# Topology ctn, (3,4)-cn, num edge types: 1
# Building blocks:
#     Node 0, Type 0, BuildingBlock: VETTIZ_charged_linker_0, # of connection points: 3
#     Node 1, Type 0, BuildingBlock: VETTIZ_charged_linker_0, # of connection points: 3
#     Node 2, Type 0, BuildingBlock: VETTIZ_charged_linker_0, # of connection points: 3
#     Node 3, Type 0, BuildingBlock: VETTIZ_charged_linker_0, # of connection points: 3
#     Node 4, Type 0, BuildingBlock: VETTIZ_charged_linker_0, # of connection points: 3
#     Node 5, Type 0, BuildingBlock: VETTIZ_charged_linker_0, # of connection points: 3
#     Node 6, Type 0, BuildingBlock: VETTIZ_charged_linker_0, # of connection points: 3
#     Node 7, Type 0, BuildingBlock: VETTIZ_charged_linker_0, # of connection points: 3
#     Node 8, Type 0, BuildingBlock: VETTIZ_charged_linker_0, # of connection points: 3
#     Node 9, Type 0, BuildingBlock: VETTIZ_charged_linker_0, # of connection points: 3
#     Node 10, Type 0, BuildingBlock: VETTIZ_charged_linker_0, # of connection points: 3
#     Node 11, Type 0, BuildingBlock: VETTIZ_charged_linker_0, # of connection points: 3
#     Node 12, Type 0, BuildingBlock: VETTIZ_charged_linker_0, # of connection points: 3
#     Node 13, Type 0, BuildingBlock: VETTIZ_charged_linker_0, # of connection points: 3
#     Node 14, Type 0, BuildingBlock: VETTIZ_charged_linker_0, # of connection points: 3
#     Node 15, Type 0, BuildingBlock: VETTIZ_charged_linker_0, # of connection points: 3
#     Node 16, Type 1, BuildingBlock: AZAVOO_clean_sbu_0, # of connection points: 4
#     Node 17, Type 1, BuildingBlock: AZAVOO_clean_sbu_0, # of connection points: 4
#     Node 18, Type 1, BuildingBlock: AZAVOO_clean_sbu_0, # of connection points: 4
#     Node 19, Type 1, BuildingBlock: AZAVOO_clean_sbu_0, # of connection points: 4
#     Node 20, Type 1, BuildingBlock: AZAVOO_clean_sbu_0, # of connection points: 4
#     Node 21, Type 1, BuildingBlock: AZAVOO_clean_sbu_0, # of connection points: 4
#     Node 22, Type 1, BuildingBlock: AZAVOO_clean_sbu_0, # of connection points: 4
#     Node 23, Type 1, BuildingBlock: AZAVOO_clean_sbu_0, # of connection points: 4
#     Node 24, Type 1, BuildingBlock: AZAVOO_clean_sbu_0, # of connection points: 4
#     Node 25, Type 1, BuildingBlock: AZAVOO_clean_sbu_0, # of connection points: 4
#     Node 26, Type 1, BuildingBlock: AZAVOO_clean_sbu_0, # of connection points: 4
#     Node 27, Type 1, BuildingBlock: AZAVOO_clean_sbu_0, # of connection points: 4
#     Edge 28, Type (0, 1), BuildingBlock: TEMPAE_clean_linker_10, # of connection points: 2
#     Edge 29, Type (0, 1), BuildingBlock: TEMPAE_clean_linker_10, # of connection points: 2
#     Edge 30, Type (0, 1), BuildingBlock: TEMPAE_clean_linker_10, # of connection points: 2
#     Edge 31, Type (0, 1), BuildingBlock: TEMPAE_clean_linker_10, # of connection points: 2
#     Edge 32, Type (0, 1), BuildingBlock: TEMPAE_clean_linker_10, # of connection points: 2
#     Edge 33, Type (0, 1), BuildingBlock: TEMPAE_clean_linker_10, # of connection points: 2
#     Edge 34, Type (0, 1), BuildingBlock: TEMPAE_clean_linker_10, # of connection points: 2
#     Edge 35, Type (0, 1), BuildingBlock: TEMPAE_clean_linker_10, # of connection points: 2
#     Edge 36, Type (0, 1), BuildingBlock: TEMPAE_clean_linker_10, # of connection points: 2
#     Edge 37, Type (0, 1), BuildingBlock: TEMPAE_clean_linker_10, # of connection points: 2
#     Edge 38, Type (0, 1), BuildingBlock: TEMPAE_clean_linker_10, # of connection points: 2
#     Edge 39, Type (0, 1), BuildingBlock: TEMPAE_clean_linker_10, # of connection points: 2
#     Edge 40, Type (0, 1), BuildingBlock: TEMPAE_clean_linker_10, # of connection points: 2
#     Edge 41, Type (0, 1), BuildingBlock: TEMPAE_clean_linker_10, # of connection points: 2
#     Edge 42, Type (0, 1), BuildingBlock: TEMPAE_clean_linker_10, # of connection points: 2
#     Edge 43, Type (0, 1), BuildingBlock: TEMPAE_clean_linker_10, # of connection points: 2
#     Edge 44, Type (0, 1), BuildingBlock: TEMPAE_clean_linker_10, # of connection points: 2
#     Edge 45, Type (0, 1), BuildingBlock: TEMPAE_clean_linker_10, # of connection points: 2
#     Edge 46, Type (0, 1), BuildingBlock: TEMPAE_clean_linker_10, # of connection points: 2
#     Edge 47, Type (0, 1), BuildingBlock: TEMPAE_clean_linker_10, # of connection points: 2
#     Edge 48, Type (0, 1), BuildingBlock: TEMPAE_clean_linker_10, # of connection points: 2
#     Edge 49, Type (0, 1), BuildingBlock: TEMPAE_clean_linker_10, # of connection points: 2
#     Edge 50, Type (0, 1), BuildingBlock: TEMPAE_clean_linker_10, # of connection points: 2
#     Edge 51, Type (0, 1), BuildingBlock: TEMPAE_clean_linker_10, # of connection points: 2
#     Edge 52, Type (0, 1), BuildingBlock: TEMPAE_clean_linker_10, # of connection points: 2
#     Edge 53, Type (0, 1), BuildingBlock: TEMPAE_clean_linker_10, # of connection points: 2
#     Edge 54, Type (0, 1), BuildingBlock: TEMPAE_clean_linker_10, # of connection points: 2
#     Edge 55, Type (0, 1), BuildingBlock: TEMPAE_clean_linker_10, # of connection points: 2
#     Edge 56, Type (0, 1), BuildingBlock: TEMPAE_clean_linker_10, # of connection points: 2
#     Edge 57, Type (0, 1), BuildingBlock: TEMPAE_clean_linker_10, # of connection points: 2
#     Edge 58, Type (0, 1), BuildingBlock: TEMPAE_clean_linker_10, # of connection points: 2
#     Edge 59, Type (0, 1), BuildingBlock: TEMPAE_clean_linker_10, # of connection points: 2
#     Edge 60, Type (0, 1), BuildingBlock: TEMPAE_clean_linker_10, # of connection points: 2
#     Edge 61, Type (0, 1), BuildingBlock: TEMPAE_clean_linker_10, # of connection points: 2
#     Edge 62, Type (0, 1), BuildingBlock: TEMPAE_clean_linker_10, # of connection points: 2
#     Edge 63, Type (0, 1), BuildingBlock: TEMPAE_clean_linker_10, # of connection points: 2
#     Edge 64, Type (0, 1), BuildingBlock: TEMPAE_clean_linker_10, # of connection points: 2
#     Edge 65, Type (0, 1), BuildingBlock: TEMPAE_clean_linker_10, # of connection points: 2
#     Edge 66, Type (0, 1), BuildingBlock: TEMPAE_clean_linker_10, # of connection points: 2
#     Edge 67, Type (0, 1), BuildingBlock: TEMPAE_clean_linker_10, # of connection points: 2
#     Edge 68, Type (0, 1), BuildingBlock: TEMPAE_clean_linker_10, # of connection points: 2
#     Edge 69, Type (0, 1), BuildingBlock: TEMPAE_clean_linker_10, # of connection points: 2
#     Edge 70, Type (0, 1), BuildingBlock: TEMPAE_clean_linker_10, # of connection points: 2
#     Edge 71, Type (0, 1), BuildingBlock: TEMPAE_clean_linker_10, # of connection points: 2
#     Edge 72, Type (0, 1), BuildingBlock: TEMPAE_clean_linker_10, # of connection points: 2
#     Edge 73, Type (0, 1), BuildingBlock: TEMPAE_clean_linker_10, # of connection points: 2
#     Edge 74, Type (0, 1), BuildingBlock: TEMPAE_clean_linker_10, # of connection points: 2
#     Edge 75, Type (0, 1), BuildingBlock: TEMPAE_clean_linker_10, # of connection points: 2
# Relax obj value: 0.002
# Max RMSD: 0.044
# Mean RMSD: 0.024
data_MOF--net-ctn--node1-AZAVOO_clean_sbu_0--node2-VETTIZ_charged_linker_0--edge1-TEMPAE_clean_linker_10
_symmetry_space_group_name_H-M    P1
_symmetry_Int_Tables_number       1
_symmetry_cell_setting            triclinic
loop_
_symmetry_equiv_pos_as_xyz
'x, y, z'
_cell_length_a     66.887454
_cell_length_b     67.880466
_cell_length_c     67.870766
_cell_angle_alpha  90.096445
_cell_angle_beta   92.643043
_cell_angle_gamma 92.905217
loop_
_atom_site_label
_atom_site_type_symbol
_atom_site_fract_x
_atom_site_fract_y
_atom_site_fract_z
_atom_type_partial_charge
C0 C 0.03075 0.07219 0.96287 0.0
C1 C 0.01591 0.08594 0.96475 0.0
C2 C 0.00085 0.08222 0.9783 0.0
C3 C 0.01684 0.05269 0.98936 0.0
C4 C 0.03095 0.05576 0.97529 0.0
C5 C 0.04641 0.04041 0.97605 0.0
H6 H 0.08905 0.96549 0.02476 0.0
C7 C 0.02254 0.0355 0.0013 0.0
C8 C 0.03979 0.02817 0.99352 0.0
H9 H 0.10574 0.99176 0.96943 0.0
H10 H 0.0779 0.01287 0.97023 0.0
H11 H 0.07891 0.00419 0.04601 0.0
H12 H 0.04071 0.96199 0.01277 0.0
H13 H 0.02839 0.96813 0.03411 0.0
H14 H 0.05211 0.95667 0.0365 0.0
H15 H 0.07116 0.98076 0.05607 0.0
H16 H 0.05621 0.00203 0.05795 0.0
C17 C 0.06725 0.05101 0.98018 0.0
C18 C 0.0444 0.02844 0.95652 0.0
C19 C 0.98497 0.01828 0.06281 0.0
C20 C 0.98887 0.00548 0.07858 0.0
C21 C 0.00496 0.99297 0.07784 0.0
C22 C 0.0172 0.99333 0.06161 0.0
C23 C 0.01351 0.00662 0.04614 0.0
C24 C 0.99758 0.01878 0.0469 0.0
C25 C 0.99689 0.03304 0.02998 0.0
C26 C 0.01479 0.0272 0.01875 0.0
C27 C 0.02441 0.01167 0.02822 0.0
C28 C 0.99974 0.05427 0.03856 0.0
C29 C 0.97695 0.02888 0.01784 0.0
C30 C 0.08661 0.97559 0.01266 0.0
C31 C 0.09982 0.97701 0.99709 0.0
C32 C 0.0961 0.99059 0.9818 0.0
C33 C 0.07982 0.00276 0.98221 0.0
C34 C 0.06705 0.00143 0.99807 0.0
C35 C 0.07032 0.98776 0.01275 0.0
C36 C 0.05488 0.98806 0.02817 0.0
C37 C 0.04176 0.00414 0.02026 0.0
C38 C 0.04917 0.01211 0.0028 0.0
C39 C 0.06571 0.99391 0.04818 0.0
C40 C 0.04341 0.96766 0.0281 0.0
H41 H 0.98963 0.06389 0.00095 0.0
H42 H 0.04231 0.07449 0.95233 0.0
H43 H 0.02888 0.02842 0.94984 0.0
H44 H 0.04723 0.01266 0.95873 0.0
H45 H 0.05465 0.03471 0.94546 0.0
H46 H 0.06646 0.06255 0.99173 0.0
H47 H 0.07271 0.05832 0.96667 0.0
H48 H 0.07873 0.0411 0.98582 0.0
H49 H 0.97294 0.02836 0.06331 0.0
H50 H 0.00819 0.98311 0.08998 0.0
H51 H 0.02933 0.98357 0.06195 0.0
H52 H 0.00922 0.05457 0.05248 0.0
H53 H 0.98513 0.06028 0.04192 0.0
H54 H 0.00775 0.06461 0.02876 0.0
H55 H 0.97326 0.01273 0.0167 0.0
H56 H 0.97761 0.03404 0.00245 0.0
H57 H 0.96433 0.03573 0.02488 0.0
H58 H 0.98928 0.09261 0.98006 0.0
C59 C 0.0012 0.06564 0.99057 0.0
C60 C 0.26042 0.66817 0.2506 0.0
C61 C 0.24389 0.66281 0.23773 0.0
C62 C 0.24085 0.67387 0.22034 0.0
C63 C 0.27061 0.69461 0.22863 0.0
C64 C 0.27364 0.68384 0.24564 0.0
C65 C 0.29267 0.69047 0.25698 0.0
H66 H 0.37633 0.75105 0.26473 0.0
C67 C 0.28743 0.70946 0.22749 0.0
C68 C 0.30053 0.707 0.24393 0.0
H69 H 0.35763 0.70433 0.30411 0.0
H70 H 0.32788 0.69721 0.28346 0.0
H71 H 0.33143 0.76843 0.25698 0.0
H72 H 0.3652 0.72743 0.22513 0.0
H73 H 0.35256 0.74185 0.20761 0.0
H74 H 0.37101 0.75352 0.22468 0.0
H75 H 0.35377 0.77569 0.2446 0.0
H76 H 0.32959 0.77429 0.23173 0.0
C77 C 0.28701 0.69823 0.27735 0.0
C78 C 0.30672 0.67296 0.25793 0.0
C79 C 0.28827 0.75762 0.17056 0.0
C80 C 0.30221 0.77238 0.16457 0.0
C81 C 0.32 0.7761 0.17629 0.0
C82 C 0.32379 0.76529 0.19357 0.0
C83 C 0.30973 0.75048 0.19917 0.0
C84 C 0.29241 0.74679 0.18761 0.0
C85 C 0.27955 0.72994 0.19517 0.0
C86 C 0.29179 0.72435 0.21347 0.0
C87 C 0.30938 0.73647 0.21584 0.0
C88 C 0.25914 0.73792 0.20033 0.0
C89 C 0.27811 0.71325 0.1794 0.0
C90 C 0.36572 0.73938 0.26892 0.0
C91 C 0.36934 0.72818 0.28602 0.0
C92 C 0.35531 0.71298 0.29087 0.0
C93 C 0.33797 0.70893 0.27891 0.0
C94 C 0.33461 0.72014 0.26181 0.0
C95 C 0.34835 0.73507 0.25704 0.0
C96 C 0.34236 0.74521 0.23813 0.0
C97 C 0.32274 0.73394 0.23242 0.0
C98 C 0.31829 0.7193 0.24639 0.0
C99 C 0.3392 0.76711 0.24292 0.0
C100 C 0.3586 0.74205 0.22304 0.0
H101 H 0.25085 0.69747 0.20234 0.0
H102 H 0.26321 0.66025 0.2642 0.0
H103 H 0.30444 0.66347 0.24454 0.0
H104 H 0.32276 0.67774 0.25821 0.0
H105 H 0.30386 0.6635 0.27094 0.0
H106 H 0.27311 0.70656 0.27594 0.0
H107 H 0.28424 0.68587 0.28775 0.0
H108 H 0.29846 0.70875 0.28411 0.0
H109 H 0.27429 0.75447 0.1622 0.0
H110 H 0.33117 0.78716 0.17196 0.0
H111 H 0.3376 0.76877 0.2018 0.0
H112 H 0.26135 0.75249 0.20787 0.0
H113 H 0.24946 0.73992 0.18681 0.0
H114 H 0.25087 0.72837 0.21064 0.0
H115 H 0.29132 0.71395 0.16999 0.0
H116 H 0.27815 0.69836 0.186 0.0
H117 H 0.26452 0.71429 0.1695 0.0
H118 H 0.22857 0.66996 0.20988 0.0
C119 C 0.254 0.68976 0.21582 0.0
C120 C 0.00189 0.4243 0.00179 0.0
C121 C 0.99104 0.42101 0.98371 0.0
C122 C 0.9752 0.43332 0.97865 0.0
C123 C 0.98062 0.45084 0.00979 0.0
C124 C 0.99655 0.43926 0.01443 0.0
C125 C 0.00667 0.44457 0.03409 0.0
H126 H 0.01107 0.50001 0.11722 0.0
C127 C 0.97851 0.46443 0.02656 0.0
C128 C 0.99385 0.46091 0.04075 0.0
H129 H 0.05183 0.4563 0.09989 0.0
H130 H 0.03201 0.45005 0.06987 0.0
H131 H 0.9709 0.47564 0.10331 0.0
H132 H 0.00667 0.52036 0.07438 0.0
H133 H 0.98138 0.52553 0.06991 0.0
H134 H 0.99175 0.52555 0.0949 0.0
H135 H 0.9703 0.50127 0.10963 0.0
H136 H 0.95415 0.49033 0.09009 0.0
C137 C 0.00496 0.42627 0.04765 0.0
C138 C 0.02847 0.45219 0.03057 0.0
C139 C 0.92042 0.51006 0.02623 0.0
C140 C 0.91416 0.52363 0.04009 0.0
C141 C 0.92543 0.52633 0.05807 0.0
C142 C 0.94262 0.51583 0.06215 0.0
C143 C 0.94868 0.50237 0.04816 0.0
C144 C 0.93762 0.49961 0.03057 0.0
C145 C 0.94622 0.48446 0.01761 0.0
C146 C 0.9642 0.47858 0.03034 0.0
C147 C 0.96558 0.48916 0.0482 0.0
C148 C 0.93036 0.46717 0.01453 0.0
C149 C 0.95256 0.49468 0.99831 0.0
C150 C 0.01578 0.48917 0.10691 0.0
C151 C 0.03304 0.47859 0.11105 0.0
C152 C 0.03845 0.46444 0.09728 0.0
C153 C 0.02701 0.46095 0.07971 0.0
C154 C 0.00992 0.47173 0.07572 0.0
C155 C 0.00453 0.48554 0.08921 0.0
C156 C 0.98596 0.49566 0.08236 0.0
C157 C 0.98132 0.48587 0.0624 0.0
C158 C 0.99537 0.47183 0.05866 0.0
C159 C 0.96941 0.49068 0.09709 0.0
C160 C 0.99153 0.51798 0.08036 0.0
H161 H 0.95765 0.45688 0.98694 0.0
H162 H 0.01399 0.41509 0.00637 0.0
H163 H 0.02959 0.45928 0.01586 0.0
H164 H 0.03401 0.46382 0.04117 0.0
H165 H 0.03889 0.43995 0.03117 0.0
H166 H 0.99 0.41845 0.04541 0.0
H167 H 0.01648 0.41563 0.04443 0.0
H168 H 0.00625 0.43004 0.06349 0.0
H169 H 0.91224 0.50774 0.0122 0.0
H170 H 0.92079 0.53641 0.06917 0.0
H171 H 0.95046 0.51856 0.0761 0.0
H172 H 0.92274 0.46385 0.02846 0.0
H173 H 0.91869 0.47085 0.00314 0.0
H174 H 0.93685 0.45323 0.01036 0.0
H175 H 0.95797 0.51024 0.00116 0.0
H176 H 0.96527 0.48775 0.99168 0.0
H177 H 0.9398 0.49485 0.98726 0.0
H178 H 0.9668 0.43144 0.9647 0.0
C179 C 0.96994 0.44816 0.99158 0.0
C180 C 0.66707 0.82115 0.25699 0.0
C181 C 0.65349 0.80461 0.25706 0.0
C182 C 0.65556 0.78927 0.24335 0.0
C183 C 0.68457 0.80668 0.23039 0.0
C184 C 0.68245 0.82184 0.24363 0.0
C185 C 0.69861 0.83795 0.24211 0.0
H186 H 0.78306 0.87287 0.19991 0.0
C187 C 0.70236 0.81167 0.21892 0.0
C188 C 0.71063 0.83002 0.22567 0.0
H189 H 0.75216 0.89924 0.24708 0.0
H190 H 0.72693 0.87245 0.24532 0.0
H191 H 0.74431 0.86093 0.17304 0.0
H192 H 0.77849 0.82833 0.21589 0.0
H193 H 0.7733 0.81305 0.19515 0.0
H194 H 0.78778 0.8359 0.19253 0.0
H195 H 0.76763 0.85079 0.16739 0.0
H196 H 0.74409 0.83663 0.16413 0.0
C197 C 0.68854 0.85721 0.23606 0.0
C198 C 0.7109 0.83923 0.26205 0.0
C199 C 0.72377 0.76361 0.16729 0.0
C200 C 0.73917 0.76448 0.1538 0.0
C201 C 0.75204 0.78162 0.15343 0.0
C202 C 0.74988 0.79734 0.16641 0.0
C203 C 0.73459 0.79612 0.17991 0.0
C204 C 0.72167 0.77959 0.18001 0.0
C205 C 0.70575 0.7813 0.19478 0.0
C206 C 0.71146 0.80145 0.20371 0.0
C207 C 0.72849 0.80994 0.19509 0.0
C208 C 0.68508 0.78088 0.18342 0.0
C209 C 0.70813 0.76456 0.21008 0.0
C210 C 0.77073 0.873 0.2097 0.0
C211 C 0.76959 0.88819 0.22364 0.0
C212 C 0.75347 0.88761 0.23633 0.0
C213 C 0.73881 0.87207 0.23525 0.0
C214 C 0.74033 0.85683 0.22142 0.0
C215 C 0.75607 0.85752 0.2089 0.0
C216 C 0.7555 0.83994 0.19535 0.0
C217 C 0.73692 0.82848 0.2019 0.0
C218 C 0.72807 0.83844 0.21714 0.0
C219 C 0.75289 0.84731 0.17381 0.0
C220 C 0.77478 0.82867 0.19975 0.0
H221 H 0.6718 0.77798 0.22017 0.0
H222 H 0.66589 0.83325 0.26721 0.0
H223 H 0.71181 0.82443 0.26896 0.0
H224 H 0.72666 0.84439 0.26045 0.0
H225 H 0.70394 0.84899 0.27265 0.0
H226 H 0.67594 0.85409 0.22503 0.0
H227 H 0.68237 0.86441 0.24901 0.0
H228 H 0.69877 0.8679 0.22883 0.0
H229 H 0.71361 0.75073 0.16809 0.0
H230 H 0.76368 0.78305 0.14289 0.0
H231 H 0.76019 0.80988 0.16537 0.0
H232 H 0.68631 0.7876 0.16855 0.0
H233 H 0.67877 0.76553 0.18132 0.0
H234 H 0.67407 0.78968 0.19071 0.0
H235 H 0.72425 0.76223 0.21361 0.0
H236 H 0.70182 0.7679 0.22438 0.0
H237 H 0.70109 0.7504 0.20433 0.0
H238 H 0.64561 0.77617 0.24328 0.0
C239 C 0.67094 0.79024 0.23003 0.0
C240 C 0.03863 0.92776 0.51903 0.0
C241 C 0.02115 0.91532 0.51675 0.0
C242 C 0.00591 0.9206 0.50295 0.0
C243 C 0.02633 0.94898 0.49285 0.0
C244 C 0.04085 0.94447 0.50704 0.0
C245 C 0.05851 0.95917 0.50745 0.0
H246 H 0.10805 0.03565 0.46422 0.0
C247 C 0.03384 0.96639 0.48184 0.0
C248 C 0.05268 0.97249 0.49037 0.0
H249 H 0.12314 0.00796 0.52008 0.0
H250 H 0.09392 0.98598 0.51594 0.0
H251 H 0.06269 0.03994 0.47443 0.0
H252 H 0.09139 0.99704 0.44023 0.0
H253 H 0.06874 0.00193 0.4275 0.0
H254 H 0.08766 0.0216 0.43157 0.0
H255 H 0.0718 0.04532 0.45047 0.0
H256 H 0.04691 0.03462 0.45353 0.0
C257 C 0.05947 0.97026 0.52752 0.0
C258 C 0.07755 0.94805 0.50344 0.0
C259 C 0.99388 0.99011 0.42155 0.0
C260 C 0.99818 0.00417 0.40687 0.0
C261 C 0.01664 0.01526 0.40848 0.0
C262 C 0.03044 0.01246 0.42426 0.0
C263 C 0.02597 0.99826 0.43863 0.0
C264 C 0.008 0.98729 0.43708 0.0
C265 C 0.00637 0.97203 0.45308 0.0
C266 C 0.02613 0.97601 0.46473 0.0
C267 C 0.03748 0.99145 0.45624 0.0
C268 C 0.98821 0.97647 0.46542 0.0
C269 C 0.00503 0.95139 0.44314 0.0
C270 C 0.10512 0.02506 0.47576 0.0
C271 C 0.11833 0.02368 0.49246 0.0
C272 C 0.11373 0.00924 0.50679 0.0
C273 C 0.09652 0.99659 0.50453 0.0
C274 C 0.08343 0.99848 0.48794 0.0
C275 C 0.08771 0.01272 0.47405 0.0
C276 C 0.07131 0.0137 0.4582 0.0
C277 C 0.05648 0.99771 0.46491 0.0
C278 C 0.06385 0.98855 0.4821 0.0
C279 C 0.06271 0.03446 0.45897 0.0
C280 C 0.08011 0.00845 0.43824 0.0
H281 H 0.99637 0.94029 0.48065 0.0
H282 H 0.05064 0.92428 0.52949 0.0
H283 H 0.0747 0.93786 0.49065 0.0
H284 H 0.09038 0.95797 0.4997 0.0
H285 H 0.08216 0.93914 0.51643 0.0
H286 H 0.04462 0.96982 0.53429 0.0
H287 H 0.07022 0.96365 0.53824 0.0
H288 H 0.06358 0.98617 0.52596 0.0
H289 H 0.9799 0.98132 0.42095 0.0
H290 H 0.02076 0.0258 0.39723 0.0
H291 H 0.04421 0.02128 0.42447 0.0
H292 H 0.98685 0.99266 0.46705 0.0
H293 H 0.97399 0.97027 0.45825 0.0
H294 H 0.98963 0.97086 0.48066 0.0
H295 H 0.01426 0.95128 0.42991 0.0
H296 H 0.01101 0.93974 0.4527 0.0
H297 H 0.98935 0.94703 0.43826 0.0
H298 H 0.99203 0.91172 0.50123 0.0
C299 C 0.00842 0.93728 0.49102 0.0
C300 C 0.25988 0.65892 0.77532 0.0
C301 C 0.25927 0.64557 0.75943 0.0
C302 C 0.24399 0.6469 0.74449 0.0
C303 C 0.2307 0.67467 0.76131 0.0
C304 C 0.24557 0.67318 0.77597 0.0
C305 C 0.24443 0.68841 0.79189 0.0
H306 H 0.20122 0.76773 0.82829 0.0
C307 C 0.21855 0.69148 0.76635 0.0
C308 C 0.22659 0.69953 0.78426 0.0
H309 H 0.24958 0.73533 0.85446 0.0
H310 H 0.24788 0.71317 0.82661 0.0
H311 H 0.1744 0.7299 0.81555 0.0
H312 H 0.21543 0.7662 0.78255 0.0
H313 H 0.19386 0.76093 0.76728 0.0
H314 H 0.1918 0.77441 0.78995 0.0
H315 H 0.16809 0.75366 0.80634 0.0
H316 H 0.16368 0.73159 0.79158 0.0
C317 C 0.24027 0.67756 0.81151 0.0
C318 C 0.2641 0.70154 0.79233 0.0
C319 C 0.15974 0.71037 0.72114 0.0
C320 C 0.14616 0.72552 0.72192 0.0
C321 C 0.14808 0.73899 0.73781 0.0
C322 C 0.16316 0.73742 0.75266 0.0
C323 C 0.17656 0.7222 0.7517 0.0
C324 C 0.17478 0.70901 0.73611 0.0
C325 C 0.19053 0.69392 0.73748 0.0
C326 C 0.20185 0.70006 0.75661 0.0
C327 C 0.19358 0.71666 0.76485 0.0
C328 C 0.17987 0.67324 0.73903 0.0
C329 C 0.20378 0.69652 0.71945 0.0
C330 C 0.21151 0.75593 0.82781 0.0
C331 C 0.22561 0.75321 0.84343 0.0
C332 C 0.23857 0.73757 0.84257 0.0
C333 C 0.23754 0.72474 0.82638 0.0
C334 C 0.22327 0.72743 0.81091 0.0
C335 C 0.21045 0.74273 0.81181 0.0
C336 C 0.19562 0.7426 0.79442 0.0
C337 C 0.2018 0.72482 0.78293 0.0
C338 C 0.2181 0.71617 0.79261 0.0
C339 C 0.17427 0.73942 0.80222 0.0
C340 C 0.19914 0.76206 0.78291 0.0
H341 H 0.2185 0.66161 0.73354 0.0
H342 H 0.27155 0.6586 0.78691 0.0
H343 H 0.26898 0.70445 0.77711 0.0
H344 H 0.26251 0.71627 0.79881 0.0
H345 H 0.27641 0.69425 0.80055 0.0
H346 H 0.23207 0.66305 0.80881 0.0
H347 H 0.25444 0.67473 0.81998 0.0
H348 H 0.23044 0.68568 0.82097 0.0
H349 H 0.15886 0.69993 0.709 0.0
H350 H 0.1377 0.75065 0.73891 0.0
H351 H 0.16375 0.74811 0.76435 0.0
H352 H 0.16676 0.67377 0.7485 0.0
H353 H 0.17431 0.66766 0.72428 0.0
H354 H 0.18951 0.66227 0.74603 0.0
H355 H 0.20608 0.71239 0.71566 0.0
H356 H 0.21901 0.69129 0.7222 0.0
H357 H 0.19669 0.68879 0.70627 0.0
H358 H 0.24302 0.63669 0.73216 0.0
C359 C 0.22972 0.66134 0.74535 0.0
C360 C 0.90542 0.47784 0.47984 0.0
C361 C 0.9003 0.46053 0.46893 0.0
C362 C 0.91253 0.45536 0.45353 0.0
C363 C 0.93462 0.48422 0.46039 0.0
C364 C 0.92257 0.48936 0.47539 0.0
C365 C 0.93025 0.508 0.48579 0.0
H366 H 0.00045 0.58326 0.49569 0.0
C367 C 0.9515 0.49913 0.45984 0.0
C368 C 0.94904 0.51307 0.47475 0.0
H369 H 0.94704 0.57332 0.52854 0.0
H370 H 0.93845 0.5435 0.50996 0.0
H371 H 0.97959 0.57259 0.45396 0.0
H372 H 0.01314 0.53811 0.49565 0.0
H373 H 0.02031 0.53137 0.47212 0.0
H374 H 0.02489 0.55653 0.48049 0.0
H375 H 0.00629 0.57583 0.45776 0.0
H376 H 0.99498 0.55809 0.44027 0.0
C377 C 0.91435 0.52368 0.48263 0.0
C378 C 0.93517 0.50297 0.50769 0.0
C379 C 0.00455 0.49364 0.40891 0.0
C380 C 0.02203 0.50519 0.40512 0.0
C381 C 0.02737 0.52164 0.41733 0.0
C382 C 0.01543 0.52673 0.43275 0.0
C383 C 0.9979 0.51525 0.43617 0.0
C384 C 0.99277 0.49892 0.42447 0.0
C385 C 0.97378 0.48827 0.43063 0.0
C386 C 0.96826 0.50109 0.44773 0.0
C387 C 0.98243 0.51688 0.45084 0.0
C388 C 0.95809 0.48873 0.41315 0.0
C389 C 0.97894 0.46727 0.43743 0.0
C390 C 0.98704 0.57451 0.49902 0.0
C391 C 0.97442 0.58062 0.5136 0.0
C392 C 0.95691 0.569 0.51726 0.0
C393 C 0.95198 0.55166 0.50649 0.0
C394 C 0.96463 0.54586 0.49179 0.0
C395 C 0.98182 0.55723 0.48828 0.0
C396 C 0.99317 0.5491 0.47174 0.0
C397 C 0.97998 0.53097 0.46592 0.0
C398 C 0.96333 0.52911 0.47775 0.0
C399 C 0.99375 0.56464 0.45503 0.0
C400 C 0.01405 0.54357 0.48025 0.0
H401 H 0.93834 0.46229 0.4374 0.0
H402 H 0.89624 0.4824 0.4916 0.0
H403 H 0.94183 0.48831 0.50898 0.0
H404 H 0.94644 0.5134 0.51487 0.0
H405 H 0.92144 0.50244 0.51632 0.0
H406 H 0.90637 0.52185 0.46793 0.0
H407 H 0.90293 0.52243 0.49399 0.0
H408 H 0.92097 0.53892 0.4826 0.0
H409 H 0.99998 0.48092 0.39982 0.0
H410 H 0.04097 0.53054 0.41509 0.0
H411 H 0.02035 0.53944 0.44141 0.0
H412 H 0.95903 0.50325 0.40555 0.0
H413 H 0.96061 0.47715 0.40208 0.0
H414 H 0.9425 0.48698 0.41779 0.0
H415 H 0.99424 0.46732 0.4446 0.0
H416 H 0.96896 0.46127 0.44873 0.0
H417 H 0.97849 0.45687 0.42474 0.0
H418 H 0.90912 0.44198 0.44505 0.0
C419 C 0.92961 0.46709 0.44921 0.0
C420 C 0.7959 0.73284 0.83353 0.0
C421 C 0.78173 0.73453 0.84801 0.0
C422 C 0.76768 0.74925 0.84618 0.0
C423 C 0.78218 0.76066 0.81597 0.0
C424 C 0.79597 0.74619 0.81776 0.0
C425 C 0.81075 0.74743 0.80168 0.0
H426 H 0.84586 0.7948 0.72153 0.0
C427 C 0.78654 0.77239 0.79824 0.0
C428 C 0.80332 0.76481 0.78982 0.0
H429 H 0.8693 0.74395 0.75129 0.0
H430 H 0.84288 0.74417 0.77416 0.0
H431 H 0.83425 0.81867 0.76118 0.0
H432 H 0.80085 0.77892 0.72091 0.0
H433 H 0.78408 0.79622 0.72842 0.0
H434 H 0.80566 0.80441 0.71498 0.0
H435 H 0.82851 0.82437 0.73577 0.0
H436 H 0.81115 0.8288 0.75454 0.0
C437 C 0.83192 0.75191 0.81141 0.0
C438 C 0.80854 0.72798 0.78965 0.0
C439 C 0.74356 0.8297 0.77973 0.0
C440 C 0.74365 0.84309 0.76397 0.0
C441 C 0.75757 0.8412 0.7492 0.0
C442 C 0.77161 0.82654 0.75042 0.0
C443 C 0.77166 0.81354 0.76652 0.0
C444 C 0.75752 0.81501 0.7806 0.0
C445 C 0.75937 0.79954 0.7963 0.0
C446 C 0.77712 0.7887 0.78947 0.0
C447 C 0.78443 0.79711 0.77218 0.0
C448 C 0.76411 0.81013 0.81637 0.0
C449 C 0.7398 0.78624 0.79537 0.0
C450 C 0.84529 0.78366 0.73292 0.0
C451 C 0.85994 0.7695 0.73467 0.0
C452 C 0.85856 0.75534 0.74982 0.0
C453 C 0.84307 0.75537 0.76303 0.0
C454 C 0.82868 0.76969 0.76115 0.0
C455 C 0.82984 0.78343 0.7462 0.0
C456 C 0.81291 0.79722 0.74617 0.0
C457 C 0.80168 0.78975 0.76385 0.0
C458 C 0.81103 0.77365 0.77259 0.0
C459 C 0.82203 0.81846 0.74947 0.0
C460 C 0.8002 0.79425 0.7266 0.0
H461 H 0.7567 0.77315 0.82972 0.0
H462 H 0.80701 0.72179 0.83478 0.0
H463 H 0.79252 0.7227 0.78792 0.0
H464 H 0.81356 0.72967 0.77445 0.0
H465 H 0.81688 0.71615 0.79712 0.0
H466 H 0.83119 0.76149 0.82466 0.0
H467 H 0.83895 0.73813 0.81622 0.0
H468 H 0.84209 0.76023 0.80172 0.0
H469 H 0.73288 0.83071 0.79117 0.0
H470 H 0.75796 0.85146 0.737 0.0
H471 H 0.78204 0.82606 0.73891 0.0
H472 H 0.77349 0.82394 0.81447 0.0
H473 H 0.75016 0.81417 0.82331 0.0
H474 H 0.77299 0.80129 0.82688 0.0
H475 H 0.73382 0.78429 0.77988 0.0
H476 H 0.74203 0.77112 0.8007 0.0
H477 H 0.728 0.79282 0.80388 0.0
H478 H 0.75661 0.7507 0.85719 0.0
C479 C 0.76775 0.76224 0.83021 0.0
C480 C 0.29202 0.22869 0.33173 0.0
C481 C 0.27545 0.22757 0.34377 0.0
C482 C 0.25931 0.23967 0.33961 0.0
C483 C 0.27659 0.25433 0.31226 0.0
C484 C 0.29214 0.24198 0.31592 0.0
C485 C 0.30816 0.2447 0.30113 0.0
H486 H 0.34287 0.29263 0.22101 0.0
C487 C 0.28146 0.26671 0.29511 0.0
C488 C 0.29978 0.26095 0.28827 0.0
H489 H 0.36973 0.24508 0.2533 0.0
H490 H 0.34248 0.24391 0.27549 0.0
H491 H 0.32992 0.31637 0.26048 0.0
H492 H 0.29904 0.27515 0.21994 0.0
H493 H 0.28164 0.29239 0.2261 0.0
H494 H 0.30384 0.30055 0.21363 0.0
H495 H 0.32345 0.32234 0.23531 0.0
H496 H 0.30615 0.32519 0.25455 0.0
C497 C 0.32796 0.25161 0.31235 0.0
C498 C 0.30924 0.2251 0.28957 0.0
C499 C 0.23748 0.32314 0.27598 0.0
C500 C 0.23835 0.33731 0.26094 0.0
C501 C 0.25302 0.33618 0.24679 0.0
C502 C 0.26714 0.32163 0.24806 0.0
C503 C 0.26657 0.30799 0.26361 0.0
C504 C 0.25159 0.30857 0.27693 0.0
C505 C 0.25281 0.29236 0.29195 0.0
C506 C 0.27153 0.28252 0.28596 0.0
C507 C 0.27962 0.29187 0.26949 0.0
C508 C 0.25568 0.30199 0.31266 0.0
C509 C 0.23374 0.27844 0.28915 0.0
C510 C 0.34304 0.28214 0.23302 0.0
C511 C 0.35851 0.26896 0.2354 0.0
C512 C 0.35791 0.25528 0.25102 0.0
C513 C 0.34209 0.25466 0.26393 0.0
C514 C 0.32663 0.26781 0.2612 0.0
C515 C 0.32734 0.28129 0.24599 0.0
C516 C 0.30962 0.29408 0.24523 0.0
C517 C 0.298 0.28589 0.26233 0.0
C518 C 0.30807 0.27055 0.2717 0.0
C519 C 0.31753 0.31569 0.24894 0.0
C520 C 0.2979 0.29058 0.22518 0.0
H521 H 0.24721 0.26207 0.32177 0.0
H522 H 0.30452 0.21938 0.33452 0.0
H523 H 0.2942 0.21734 0.2878 0.0
H524 H 0.31405 0.22734 0.27435 0.0
H525 H 0.31942 0.21496 0.29737 0.0
H526 H 0.32508 0.26247 0.32406 0.0
H527 H 0.33525 0.23898 0.31956 0.0
H528 H 0.33875 0.2593 0.30283 0.0
H529 H 0.22615 0.32353 0.28686 0.0
H530 H 0.25399 0.34701 0.23512 0.0
H531 H 0.27816 0.32177 0.23706 0.0
H532 H 0.26705 0.31453 0.31251 0.0
H533 H 0.24143 0.30781 0.31741 0.0
H534 H 0.2612 0.29184 0.32409 0.0
H535 H 0.22685 0.27938 0.27396 0.0
H536 H 0.23704 0.26271 0.29093 0.0
H537 H 0.22217 0.2822 0.29957 0.0
H538 H 0.24648 0.2391 0.34882 0.0
C539 C 0.25981 0.25306 0.32397 0.0
C540 C 0.50334 0.92391 0.50473 0.0
C541 C 0.49317 0.92088 0.48627 0.0
C542 C 0.47899 0.93449 0.47988 0.0
C543 C 0.48522 0.95337 0.51012 0.0
C544 C 0.49932 0.94023 0.51622 0.0
C545 C 0.5093 0.94576 0.53589 0.0
H546 H 0.52518 0.01231 0.60969 0.0
C547 C 0.48471 0.96874 0.52552 0.0
C548 C 0.49896 0.96449 0.54054 0.0
H549 H 0.55129 0.95557 0.60369 0.0
H550 H 0.53125 0.9492 0.57398 0.0
H551 H 0.48105 0.99403 0.60106 0.0
H552 H 0.5222 0.02504 0.5637 0.0
H553 H 0.49835 0.03472 0.55989 0.0
H554 H 0.51073 0.03633 0.584 0.0
H555 H 0.48431 0.02041 0.60153 0.0
H556 H 0.46641 0.00774 0.58457 0.0
C557 C 0.50443 0.92906 0.55076 0.0
C558 C 0.53196 0.94979 0.53285 0.0
C559 C 0.43372 0.02163 0.51919 0.0
C560 C 0.42962 0.03775 0.53116 0.0
C561 C 0.44216 0.04198 0.5481 0.0
C562 C 0.45811 0.03012 0.5533 0.0
C563 C 0.46166 0.0138 0.54146 0.0
C564 C 0.44973 0.00993 0.52458 0.0
C565 C 0.45597 0.99214 0.51361 0.0
C566 C 0.47303 0.98551 0.52715 0.0
C567 C 0.47632 0.99828 0.54341 0.0
C568 C 0.43809 0.9767 0.51247 0.0
C569 C 0.46331 0.99898 0.49326 0.0
C570 C 0.52657 0.99842 0.60215 0.0
C571 C 0.54049 0.98475 0.609 0.0
C572 C 0.54145 0.96683 0.59853 0.0
C573 C 0.5296 0.963 0.58128 0.0
C574 C 0.5163 0.97705 0.57439 0.0
C575 C 0.5145 0.99413 0.58508 0.0
C576 C 0.49819 0.00646 0.57643 0.0
C577 C 0.49122 0.99435 0.5583 0.0
C578 C 0.50214 0.97731 0.55706 0.0
C579 C 0.48162 0.00742 0.59162 0.0
C580 C 0.50771 0.02681 0.57076 0.0
H581 H 0.46394 0.9604 0.48605 0.0
H582 H 0.51407 0.91364 0.51035 0.0
H583 H 0.53427 0.95841 0.51914 0.0
H584 H 0.53971 0.95868 0.54477 0.0
H585 H 0.53964 0.93576 0.53146 0.0
H586 H 0.48988 0.92107 0.54669 0.0
H587 H 0.51617 0.91804 0.55128 0.0
H588 H 0.50257 0.93471 0.56583 0.0
H589 H 0.4244 0.0179 0.50611 0.0
H590 H 0.43968 0.05456 0.55736 0.0
H591 H 0.46704 0.0341 0.56637 0.0
H592 H 0.43087 0.97559 0.5269 0.0
H593 H 0.42653 0.9809 0.50118 0.0
H594 H 0.44254 0.96168 0.50914 0.0
H595 H 0.46921 0.0146 0.49375 0.0
H596 H 0.47598 0.9906 0.48843 0.0
H597 H 0.45095 0.99785 0.48174 0.0
H598 H 0.4711 0.93275 0.46564 0.0
C599 C 0.47494 0.95066 0.4917 0.0
C600 C 0.16701 0.3183 0.75442 0.0
C601 C 0.15242 0.30258 0.75365 0.0
C602 C 0.15389 0.28749 0.73954 0.0
C603 C 0.18468 0.30311 0.72836 0.0
C604 C 0.18298 0.3182 0.74178 0.0
C605 C 0.20035 0.33316 0.74152 0.0
H606 H 0.28942 0.36273 0.70487 0.0
C607 C 0.20368 0.30673 0.71837 0.0
C608 C 0.21296 0.32431 0.72605 0.0
H609 H 0.25651 0.39214 0.74862 0.0
H610 H 0.2305 0.36606 0.74643 0.0
H611 H 0.25041 0.34966 0.67572 0.0
H612 H 0.28384 0.32096 0.72198 0.0
H613 H 0.27575 0.30227 0.70515 0.0
H614 H 0.29235 0.32229 0.69733 0.0
H615 H 0.27581 0.34276 0.67383 0.0
H616 H 0.25498 0.32573 0.66758 0.0
C617 C 0.19219 0.35314 0.73481 0.0
C618 C 0.21119 0.33362 0.76221 0.0
C619 C 0.22455 0.25807 0.66694 0.0
C620 C 0.24193 0.25695 0.65611 0.0
C621 C 0.25758 0.27153 0.65927 0.0
C622 C 0.25576 0.28714 0.67244 0.0
C623 C 0.2382 0.28822 0.68285 0.0
C624 C 0.22309 0.27368 0.68028 0.0
C625 C 0.206 0.27675 0.69345 0.0
C626 C 0.21321 0.29575 0.70399 0.0
C627 C 0.23199 0.30245 0.69756 0.0
C628 C 0.18687 0.27951 0.68023 0.0
C629 C 0.20446 0.25904 0.7078 0.0
C630 C 0.27649 0.36364 0.71381 0.0
C631 C 0.27491 0.37955 0.72682 0.0
C632 C 0.25808 0.37998 0.73855 0.0
C633 C 0.24297 0.36487 0.73718 0.0
C634 C 0.24475 0.34907 0.72405 0.0
C635 C 0.26136 0.34864 0.7127 0.0
C636 C 0.261 0.33057 0.69984 0.0
C637 C 0.24126 0.32036 0.70508 0.0
C638 C 0.2318 0.33124 0.71924 0.0
C639 C 0.26065 0.33737 0.67806 0.0
C640 C 0.27919 0.31836 0.7062 0.0
H641 H 0.17025 0.27564 0.71672 0.0
H642 H 0.16626 0.33025 0.7649 0.0
H643 H 0.21106 0.31861 0.76879 0.0
H644 H 0.2272 0.33835 0.76187 0.0
H645 H 0.20375 0.34338 0.77246 0.0
H646 H 0.17983 0.35087 0.72336 0.0
H647 H 0.18617 0.3611 0.74738 0.0
H648 H 0.20352 0.36285 0.72781 0.0
H649 H 0.21219 0.24721 0.66496 0.0
H650 H 0.27139 0.27083 0.65164 0.0
H651 H 0.26816 0.29776 0.67401 0.0
H652 H 0.1904 0.28873 0.66717 0.0
H653 H 0.18023 0.26509 0.67474 0.0
H654 H 0.17533 0.28735 0.68777 0.0
H655 H 0.21941 0.25301 0.71114 0.0
H656 H 0.19917 0.26313 0.72236 0.0
H657 H 0.19448 0.24685 0.70141 0.0
H658 H 0.14308 0.27505 0.73876 0.0
C659 C 0.16985 0.28771 0.72688 0.0
C660 C 0.75919 0.17159 0.7506 0.0
C661 C 0.74098 0.16864 0.73947 0.0
C662 C 0.73625 0.1822 0.72445 0.0
C663 C 0.76765 0.20082 0.73158 0.0
C664 C 0.77214 0.18776 0.74651 0.0
C665 C 0.79184 0.19319 0.75723 0.0
H666 H 0.8741 0.25524 0.76847 0.0
C667 C 0.78435 0.21589 0.73107 0.0
C668 C 0.79849 0.21162 0.74617 0.0
H669 H 0.85851 0.20349 0.80271 0.0
H670 H 0.82827 0.19762 0.78245 0.0
H671 H 0.83013 0.27199 0.76557 0.0
H672 H 0.86073 0.23548 0.72591 0.0
H673 H 0.84818 0.25305 0.7117 0.0
H674 H 0.86757 0.26118 0.72965 0.0
H675 H 0.85029 0.28157 0.75123 0.0
H676 H 0.82472 0.28015 0.74144 0.0
C677 C 0.78769 0.1977 0.77902 0.0
C678 C 0.80605 0.17617 0.75439 0.0
C679 C 0.78343 0.26832 0.67802 0.0
C680 C 0.79652 0.28441 0.67362 0.0
C681 C 0.81393 0.28819 0.68586 0.0
C682 C 0.81825 0.27604 0.70206 0.0
C683 C 0.80503 0.25994 0.70612 0.0
C684 C 0.78787 0.25645 0.69427 0.0
C685 C 0.77527 0.23898 0.70092 0.0
C686 C 0.78788 0.23227 0.71853 0.0
C687 C 0.80534 0.24451 0.72148 0.0
C688 C 0.75482 0.24631 0.707 0.0
C689 C 0.77377 0.22344 0.6841 0.0
C690 C 0.86409 0.24271 0.77164 0.0
C691 C 0.86871 0.2298 0.7872 0.0
C692 C 0.85542 0.21351 0.79067 0.0
C693 C 0.83778 0.21021 0.77897 0.0
C694 C 0.83329 0.2233 0.76358 0.0
C695 C 0.8464 0.23917 0.76005 0.0
C696 C 0.83924 0.25137 0.74288 0.0
C697 C 0.81956 0.24036 0.73691 0.0
C698 C 0.81617 0.22395 0.74911 0.0
C699 C 0.83601 0.27245 0.75049 0.0
C700 C 0.8547 0.25044 0.72664 0.0
H701 H 0.74503 0.20791 0.70875 0.0
H702 H 0.76349 0.16138 0.76209 0.0
H703 H 0.8037 0.16963 0.73936 0.0
H704 H 0.82205 0.18109 0.75548 0.0
H705 H 0.80334 0.16419 0.76522 0.0
H706 H 0.77307 0.20464 0.78016 0.0
H707 H 0.78714 0.184 0.78795 0.0
H708 H 0.7988 0.20844 0.786 0.0
H709 H 0.77008 0.26473 0.66882 0.0
H710 H 0.82416 0.30062 0.68299 0.0
H711 H 0.83172 0.27965 0.71079 0.0
H712 H 0.75627 0.26189 0.71222 0.0
H713 H 0.7436 0.24556 0.6944 0.0
H714 H 0.74871 0.238 0.71956 0.0
H715 H 0.78845 0.22247 0.67718 0.0
H716 H 0.7699 0.20838 0.68923 0.0
H717 H 0.76257 0.22741 0.67237 0.0
H718 H 0.72222 0.18054 0.71585 0.0
C719 C 0.74948 0.19821 0.72042 0.0
C720 C 0.5282 0.57112 0.4615 0.0
C721 C 0.51365 0.58513 0.46353 0.0
C722 C 0.49875 0.58175 0.47731 0.0
C723 C 0.51434 0.55195 0.48823 0.0
C724 C 0.52826 0.55471 0.47394 0.0
C725 C 0.54335 0.53902 0.47445 0.0
H726 H 0.58569 0.46388 0.52275 0.0
C727 C 0.51969 0.53449 0.49993 0.0
C728 C 0.53651 0.5267 0.49178 0.0
H729 H 0.60267 0.49088 0.46785 0.0
H730 H 0.57423 0.51119 0.46821 0.0
H731 H 0.57286 0.50351 0.5443 0.0
H732 H 0.5387 0.45886 0.51013 0.0
H733 H 0.52353 0.46621 0.52897 0.0
H734 H 0.54677 0.45478 0.53531 0.0
H735 H 0.56914 0.47846 0.55237 0.0
H736 H 0.55113 0.49653 0.5568 0.0
C737 C 0.56438 0.54924 0.47864 0.0
C738 C 0.54103 0.52732 0.45476 0.0
C739 C 0.48371 0.51888 0.56264 0.0
C740 C 0.48628 0.50471 0.57748 0.0
C741 C 0.50032 0.49018 0.57514 0.0
C742 C 0.51223 0.49031 0.55864 0.0
C743 C 0.51008 0.50512 0.54433 0.0
C744 C 0.49565 0.51877 0.54626 0.0
C745 C 0.49523 0.53328 0.52957 0.0
C746 C 0.51197 0.52626 0.5174 0.0
C747 C 0.52081 0.50992 0.52623 0.0
C748 C 0.50019 0.55415 0.53837 0.0
C749 C 0.47454 0.53082 0.51833 0.0
C750 C 0.58318 0.474 0.51067 0.0
C751 C 0.59673 0.47596 0.49541 0.0
C752 C 0.59282 0.48939 0.48004 0.0
C753 C 0.57621 0.50112 0.48021 0.0
C754 C 0.5633 0.49952 0.49594 0.0
C755 C 0.56658 0.4858 0.51057 0.0
C756 C 0.55086 0.48576 0.52576 0.0
C757 C 0.53784 0.502 0.51798 0.0
C758 C 0.54542 0.51017 0.50067 0.0
C759 C 0.56141 0.49123 0.54596 0.0
C760 C 0.53937 0.46535 0.52523 0.0
H761 H 0.48755 0.56371 0.50018 0.0
H762 H 0.53964 0.57318 0.4508 0.0
H763 H 0.5255 0.52762 0.4482 0.0
H764 H 0.54362 0.51146 0.45675 0.0
H765 H 0.55131 0.53358 0.44372 0.0
H766 H 0.56378 0.56085 0.49017 0.0
H767 H 0.57004 0.55641 0.46515 0.0
H768 H 0.57562 0.53915 0.4844 0.0
H769 H 0.47281 0.53003 0.56391 0.0
H770 H 0.50257 0.47913 0.58641 0.0
H771 H 0.52296 0.47914 0.55787 0.0
H772 H 0.5122 0.55368 0.55025 0.0
H773 H 0.48683 0.56014 0.54491 0.0
H774 H 0.50603 0.56483 0.52759 0.0
H775 H 0.46831 0.51534 0.51906 0.0
H776 H 0.47539 0.53388 0.50238 0.0
H777 H 0.46352 0.54044 0.52469 0.0
H778 H 0.48742 0.59236 0.47918 0.0
C779 C 0.49898 0.5652 0.48962 0.0
C780 C 0.54257 0.42655 0.02074 0.0
C781 C 0.52729 0.41194 0.01623 0.0
C782 C 0.51442 0.41456 0.99944 0.0
C783 C 0.53192 0.44565 0.99224 0.0
C784 C 0.54471 0.44307 0.00849 0.0
C785 C 0.56087 0.45931 0.01051 0.0
H786 H 0.60412 0.54353 0.97487 0.0
C787 C 0.53831 0.46423 0.98248 0.0
C788 C 0.55535 0.47226 0.99305 0.0
H789 H 0.62443 0.50927 0.02489 0.0
H790 H 0.59563 0.48655 0.02 0.0
H791 H 0.55878 0.54201 0.9846 0.0
H792 H 0.59132 0.50598 0.94633 0.0
H793 H 0.56903 0.51221 0.93358 0.0
H794 H 0.58699 0.53148 0.94169 0.0
H795 H 0.56515 0.5501 0.96044 0.0
H796 H 0.54227 0.53567 0.96448 0.0
C797 C 0.55874 0.47003 0.0304 0.0
C798 C 0.58139 0.45006 0.00834 0.0
C799 C 0.49957 0.48717 0.92112 0.0
C800 C 0.50174 0.50394 0.90906 0.0
C801 C 0.51692 0.51849 0.91422 0.0
C802 C 0.53002 0.51612 0.93065 0.0
C803 C 0.528 0.49905 0.9422 0.0
C804 C 0.51273 0.4851 0.93759 0.0
C805 C 0.51257 0.46816 0.95187 0.0
C806 C 0.53036 0.47417 0.96568 0.0
C807 C 0.53946 0.49216 0.9598 0.0
C808 C 0.49254 0.46787 0.96248 0.0
C809 C 0.51605 0.44902 0.94029 0.0
C810 C 0.60251 0.53101 0.98465 0.0
C811 C 0.61671 0.52812 0.00019 0.0
C812 C 0.6137 0.5119 0.01287 0.0
C813 C 0.59702 0.49865 0.00992 0.0
C814 C 0.58318 0.50157 0.9941 0.0
C815 C 0.586 0.51763 0.98187 0.0
C816 C 0.56978 0.51851 0.96586 0.0
C817 C 0.55695 0.50009 0.97021 0.0
C818 C 0.56485 0.49022 0.98677 0.0
C819 C 0.5584 0.53758 0.96878 0.0
C820 C 0.57965 0.5171 0.94573 0.0
H821 H 0.50634 0.4323 0.97501 0.0
H822 H 0.55274 0.42521 0.03348 0.0
H823 H 0.57997 0.43715 0.99815 0.0
H824 H 0.59258 0.46025 0.00172 0.0
H825 H 0.58756 0.44487 0.02278 0.0
H826 H 0.54268 0.47185 0.03319 0.0
H827 H 0.56527 0.4615 0.04286 0.0
H828 H 0.56575 0.4851 0.03073 0.0
H829 H 0.48822 0.47561 0.91758 0.0
H830 H 0.51871 0.53175 0.9055 0.0
H831 H 0.54135 0.52763 0.93362 0.0
H832 H 0.48819 0.48314 0.96556 0.0
H833 H 0.48021 0.46047 0.95326 0.0
H834 H 0.49339 0.46067 0.97704 0.0
H835 H 0.52614 0.45209 0.92795 0.0
H836 H 0.52368 0.43792 0.94938 0.0
H837 H 0.50172 0.4423 0.93385 0.0
H838 H 0.50288 0.40343 0.99514 0.0
C839 C 0.51657 0.43132 0.98756 0.0
C840 C 0.75906 0.16598 0.27637 0.0
C841 C 0.75851 0.15241 0.26064 0.0
C842 C 0.74256 0.15273 0.24629 0.0
C843 C 0.72859 0.18005 0.26317 0.0
C844 C 0.74414 0.17963 0.27726 0.0
C845 C 0.7431 0.19542 0.29265 0.0
H846 H 0.69449 0.27042 0.3311 0.0
C847 C 0.71579 0.19629 0.26832 0.0
C848 C 0.72428 0.20535 0.28556 0.0
H849 H 0.75042 0.24678 0.35181 0.0
H850 H 0.74872 0.2238 0.32465 0.0
H851 H 0.67144 0.2285 0.31857 0.0
H852 H 0.70548 0.27187 0.2861 0.0
H853 H 0.68592 0.26274 0.26999 0.0
H854 H 0.68012 0.27541 0.29227 0.0
H855 H 0.66279 0.25254 0.31288 0.0
H856 H 0.6584 0.23221 0.29587 0.0
C857 C 0.74055 0.18521 0.31285 0.0
C858 C 0.7621 0.20944 0.29165 0.0
C859 C 0.65401 0.21055 0.22511 0.0
C860 C 0.63959 0.22489 0.22609 0.0
C861 C 0.64084 0.23827 0.24206 0.0
C862 C 0.65624 0.23753 0.2567 0.0
C863 C 0.67067 0.2233 0.2554 0.0
C864 C 0.66938 0.21007 0.23983 0.0
C865 C 0.68624 0.19617 0.24075 0.0
C866 C 0.6979 0.20333 0.25935 0.0
C867 C 0.68866 0.2192 0.26788 0.0
C868 C 0.67706 0.17493 0.24303 0.0
C869 C 0.69853 0.19935 0.22212 0.0
C870 C 0.7063 0.26023 0.32971 0.0
C871 C 0.7226 0.26033 0.34355 0.0
C872 C 0.73783 0.24706 0.3412 0.0
C873 C 0.73675 0.23364 0.32547 0.0
C874 C 0.72032 0.23354 0.31182 0.0
C875 C 0.70558 0.24686 0.31388 0.0
C876 C 0.68972 0.24509 0.29741 0.0
C877 C 0.6972 0.22826 0.2854 0.0
C878 C 0.71501 0.22148 0.29404 0.0
C879 C 0.66942 0.23942 0.30652 0.0
C880 C 0.6901 0.26477 0.28583 0.0
H881 H 0.716 0.16601 0.23603 0.0
H882 H 0.77092 0.16606 0.2878 0.0
H883 H 0.76791 0.20981 0.27655 0.0
H884 H 0.75912 0.22498 0.29485 0.0
H885 H 0.77433 0.20466 0.30189 0.0
H886 H 0.73011 0.17195 0.31127 0.0
H887 H 0.75512 0.18032 0.31907 0.0
H888 H 0.7339 0.19463 0.3238 0.0
H889 H 0.6536 0.2002 0.21292 0.0
H890 H 0.62979 0.24929 0.24328 0.0
H891 H 0.65635 0.24814 0.26844 0.0
H892 H 0.66421 0.17477 0.25289 0.0
H893 H 0.67145 0.16872 0.22855 0.0
H894 H 0.68766 0.16481 0.24999 0.0
H895 H 0.69934 0.21519 0.21786 0.0
H896 H 0.7143 0.19547 0.22441 0.0
H897 H 0.6916 0.1908 0.20938 0.0
H898 H 0.74186 0.14268 0.23384 0.0
C899 C 0.72761 0.16642 0.24749 0.0
C900 C 0.40784 0.97666 0.98269 0.0
C901 C 0.40002 0.96183 0.96951 0.0
C902 C 0.40951 0.95938 0.95155 0.0
C903 C 0.43387 0.98599 0.96023 0.0
C904 C 0.42441 0.98869 0.97761 0.0
C905 C 0.43345 0.00606 0.98927 0.0
H906 H 0.49648 0.08722 0.9936 0.0
C907 C 0.45029 0.00128 0.95917 0.0
C908 C 0.44991 0.0133 0.97599 0.0
H909 H 0.45492 0.0669 0.03689 0.0
H910 H 0.44629 0.03748 0.0175 0.0
H911 H 0.47008 0.07487 0.95448 0.0
H912 H 0.5148 0.04492 0.98877 0.0
H913 H 0.51768 0.0382 0.96416 0.0
H914 H 0.52142 0.06377 0.97143 0.0
H915 H 0.49622 0.08246 0.95552 0.0
H916 H 0.48604 0.0642 0.93801 0.0
C917 C 0.41708 0.02125 0.99101 0.0
C918 C 0.44205 0.99849 0.00929 0.0
C919 C 0.49823 0.00049 0.90311 0.0
C920 C 0.51458 0.01311 0.89808 0.0
C921 C 0.51907 0.03033 0.90947 0.0
C922 C 0.50804 0.03457 0.92584 0.0
C923 C 0.49212 0.02159 0.93092 0.0
C924 C 0.48722 0.00505 0.91946 0.0
C925 C 0.4692 0.99346 0.92667 0.0
C926 C 0.46491 0.0052 0.94496 0.0
C927 C 0.47837 0.02166 0.94733 0.0
C928 C 0.45198 0.99414 0.91059 0.0
C929 C 0.47545 0.9724 0.9319 0.0
C930 C 0.48552 0.07637 0.9988 0.0
C931 C 0.47612 0.07934 0.01656 0.0
C932 C 0.46226 0.06482 0.02319 0.0
C933 C 0.4572 0.04787 0.01185 0.0
C934 C 0.46619 0.04538 0.99375 0.0
C935 C 0.48054 0.0592 0.98779 0.0
C936 C 0.48953 0.05338 0.96886 0.0
C937 C 0.47752 0.03428 0.96396 0.0
C938 C 0.46367 0.02984 0.97844 0.0
C939 C 0.48545 0.06955 0.95333 0.0
C940 C 0.51205 0.04999 0.97334 0.0
H941 H 0.43296 0.96854 0.93312 0.0
H942 H 0.40128 0.97896 0.99674 0.0
H943 H 0.44766 0.98343 0.00775 0.0
H944 H 0.45518 0.0076 0.01511 0.0
H945 H 0.43044 0.99774 0.02049 0.0
H946 H 0.40794 0.02213 0.97694 0.0
H947 H 0.40675 0.01701 0.00282 0.0
H948 H 0.4232 0.03642 0.99384 0.0
H949 H 0.49424 0.98718 0.89472 0.0
H950 H 0.53111 0.0407 0.90567 0.0
H951 H 0.51232 0.04784 0.93389 0.0
H952 H 0.45405 0.00704 0.90066 0.0
H953 H 0.4511 0.98067 0.90122 0.0
H954 H 0.43724 0.99599 0.91695 0.0
H955 H 0.48987 0.973 0.94079 0.0
H956 H 0.46451 0.96419 0.94087 0.0
H957 H 0.47753 0.96369 0.91834 0.0
H958 H 0.40371 0.9485 0.94079 0.0
C959 C 0.42643 0.97122 0.94694 0.0
Mg960 Mg 0.23898 0.8514 0.00908 0.0
O961 O 0.2681 0.87011 0.00413 0.0
O962 O 0.29342 0.84972 0.00725 0.0
Mg963 Mg 0.2808 0.81838 0.01201 0.0
C964 C 0.28678 0.86683 0.00439 0.0
C965 C 0.21803 0.89098 0.0102 0.0
O966 O 0.22898 0.89189 0.02678 0.0
O967 O 0.23976 0.83904 0.97803 0.0
O968 O 0.265 0.8187 0.98103 0.0
O969 O 0.24253 0.85553 0.04174 0.0
O970 O 0.25539 0.83135 0.02546 0.0
C971 C 0.25098 0.8265 0.97077 0.0
C972 C 0.25357 0.84043 0.04189 0.0
O973 O 0.21951 0.87636 0.99872 0.0
Mg974 Mg 0.14931 0.50315 0.27109 0.0
O975 O 0.13112 0.50223 0.24143 0.0
O976 O 0.15333 0.50673 0.218 0.0
Mg977 Mg 0.18481 0.51225 0.23221 0.0
C978 C 0.13536 0.50355 0.22328 0.0
C979 C 0.12624 0.48909 0.30606 0.0
O980 O 0.14467 0.49288 0.31312 0.0
O981 O 0.16058 0.47265 0.2647 0.0
O982 O 0.1841 0.48022 0.24317 0.0
O983 O 0.14678 0.53575 0.27401 0.0
O984 O 0.17099 0.5218 0.25892 0.0
C985 C 0.17484 0.46779 0.25406 0.0
C986 C 0.16268 0.53764 0.26388 0.0
O987 O 0.12269 0.49061 0.28759 0.0
Mg988 Mg 0.77666 0.64837 0.01824 0.0
O989 O 0.74655 0.63021 0.01618 0.0
O990 O 0.72234 0.65167 0.01346 0.0
Mg991 Mg 0.73647 0.683 0.01359 0.0
C992 C 0.72802 0.63401 0.01449 0.0
C993 C 0.79489 0.60774 0.02678 0.0
O994 O 0.78406 0.60947 0.0423 0.0
O995 O 0.7743 0.65489 0.98523 0.0
O996 O 0.75022 0.67666 0.98394 0.0
O997 O 0.77493 0.6511 0.05106 0.0
O998 O 0.76299 0.67242 0.02963 0.0
C999 C 0.76312 0.66659 0.97561 0.0
C1000 C 0.7655 0.66703 0.04769 0.0
O1001 O 0.79415 0.62089 0.01348 0.0
Mg1002 Mg 0.90475 0.03455 0.23654 0.0
O1003 O 0.8846 0.0062 0.2342 0.0
O1004 O 0.9043 0.98109 0.22973 0.0
Mg1005 Mg 0.93675 0.99325 0.22787 0.0
C1006 C 0.88702 0.9878 0.23188 0.0
C1007 C 0.87307 0.06543 0.23682 0.0
O1008 O 0.88264 0.06919 0.22068 0.0
O1009 O 0.91603 0.02586 0.26767 0.0
O1010 O 0.93737 0.00287 0.26033 0.0
O1011 O 0.90209 0.03875 0.20377 0.0
O1012 O 0.92542 0.0217 0.21885 0.0
C1013 C 0.92945 0.01387 0.2728 0.0
C1014 C 0.91716 0.02768 0.20261 0.0
O1015 O 0.87884 0.05154 0.24795 0.0
Mg1016 Mg 0.2771 0.14656 0.51712 0.0
O1017 O 0.24884 0.1256 0.5144 0.0
O1018 O 0.22259 0.14482 0.51536 0.0
Mg1019 Mg 0.2336 0.17723 0.51778 0.0
C1020 C 0.22997 0.12789 0.51421 0.0
C1021 C 0.31606 0.12828 0.50979 0.0
O1022 O 0.3205 0.14716 0.51286 0.0
O1023 O 0.27215 0.1555 0.48496 0.0
O1024 O 0.24714 0.17592 0.48721 0.0
O1025 O 0.27763 0.14601 0.55015 0.0
O1026 O 0.26131 0.16727 0.53183 0.0
C1027 C 0.26021 0.16771 0.47722 0.0
C1028 C 0.26592 0.1606 0.54909 0.0
O1029 O 0.29773 0.12228 0.50943 0.0
Mg1030 Mg 0.40588 0.52882 0.73899 0.0
O1031 O 0.38739 0.49952 0.73657 0.0
O1032 O 0.40796 0.47526 0.73174 0.0
Mg1033 Mg 0.43984 0.48911 0.73132 0.0
C1034 C 0.39043 0.48132 0.73391 0.0
C1035 C 0.37928 0.56239 0.75117 0.0
O1036 O 0.3964 0.57217 0.7485 0.0
O1037 O 0.417 0.52112 0.77034 0.0
O1038 O 0.43807 0.49758 0.764 0.0
O1039 O 0.4033 0.53207 0.7063 0.0
O1040 O 0.428 0.51747 0.72216 0.0
C1041 C 0.4297 0.50864 0.77611 0.0
C1042 C 0.41941 0.52234 0.70564 0.0
O1043 O 0.37841 0.54373 0.74937 0.0
Mg1044 Mg 0.73843 0.35521 0.51215 0.0
O1045 O 0.76875 0.3704 0.50503 0.0
O1046 O 0.79136 0.34725 0.5073 0.0
Mg1047 Mg 0.77605 0.31792 0.5163 0.0
C1048 C 0.7867 0.36499 0.50387 0.0
C1049 C 0.71858 0.3955 0.51211 0.0
O1050 O 0.72797 0.39588 0.52953 0.0
O1051 O 0.7366 0.34037 0.4819 0.0
O1052 O 0.75836 0.31664 0.48637 0.0
O1053 O 0.74447 0.36162 0.54426 0.0
O1054 O 0.75281 0.33449 0.52947 0.0
C1055 C 0.74527 0.32536 0.47572 0.0
C1056 C 0.75316 0.34504 0.54524 0.0
O1057 O 0.72105 0.38117 0.50052 0.0
Mg1058 Mg 0.65007 0.00651 0.77359 0.0
O1059 O 0.63369 0.00588 0.74309 0.0
O1060 O 0.65631 0.0131 0.72056 0.0
Mg1061 Mg 0.68729 0.01671 0.73635 0.0
C1062 C 0.63833 0.00891 0.72527 0.0
C1063 C 0.60686 0.00527 0.78654 0.0
O1064 O 0.608 0.02084 0.77508 0.0
O1065 O 0.66166 0.97598 0.7675 0.0
O1066 O 0.68521 0.98432 0.7462 0.0
O1067 O 0.6478 0.03934 0.77583 0.0
O1068 O 0.67314 0.02494 0.76328 0.0
C1069 C 0.67596 0.9715 0.75669 0.0
C1070 C 0.66468 0.04094 0.76728 0.0
O1071 O 0.62179 0.9944 0.78803 0.0
Mg1072 Mg 0.03466 0.25731 0.89578 0.0
O1073 O 0.00344 0.25323 0.88043 0.0
O1074 O 0.98208 0.24408 0.9035 0.0
Mg1075 Mg 0.99935 0.24224 0.93328 0.0
C1076 C 0.98578 0.24827 0.88564 0.0
C1077 C 0.06227 0.26372 0.86224 0.0
O1078 O 0.0685 0.24814 0.87169 0.0
O1079 O 0.02595 0.28654 0.90887 0.0
O1080 O 0.00612 0.27579 0.93267 0.0
O1081 O 0.03941 0.2254 0.89084 0.0
O1082 O 0.02638 0.23707 0.91746 0.0
C1083 C 0.01518 0.28977 0.92349 0.0
C1084 C 0.03111 0.22204 0.90741 0.0
O1085 O 0.04733 0.27226 0.86856 0.0
Mg1086 Mg 0.53365 0.75706 0.39697 0.0
O1087 O 0.50275 0.75344 0.38083 0.0
O1088 O 0.48084 0.74396 0.4033 0.0
Mg1089 Mg 0.49741 0.74123 0.43333 0.0
C1090 C 0.48493 0.74851 0.38562 0.0
C1091 C 0.56299 0.7648 0.36537 0.0
O1092 O 0.56938 0.74967 0.37545 0.0
O1093 O 0.52475 0.78596 0.41055 0.0
O1094 O 0.50432 0.77475 0.43368 0.0
O1095 O 0.53846 0.72528 0.39141 0.0
O1096 O 0.52478 0.73641 0.41795 0.0
C1097 C 0.51366 0.7889 0.425 0.0
C1098 C 0.52974 0.7216 0.40771 0.0
O1099 O 0.54715 0.77261 0.37054 0.0
Mg1100 Mg 0.98998 0.74375 0.60058 0.0
O1101 O 0.02004 0.74074 0.6181 0.0
O1102 O 0.043 0.73503 0.59617 0.0
Mg1103 Mg 0.02814 0.73477 0.56515 0.0
C1104 C 0.03803 0.73743 0.61392 0.0
C1105 C 0.95954 0.74492 0.63202 0.0
O1106 O 0.95417 0.72944 0.62103 0.0
O1107 O 0.99993 0.77467 0.59053 0.0
O1108 O 0.02233 0.76785 0.56836 0.0
O1109 O 0.98395 0.71126 0.60211 0.0
O1110 O 0.99935 0.72608 0.57775 0.0
C1111 C 0.01239 0.78018 0.57768 0.0
C1112 C 0.99299 0.7099 0.58577 0.0
O1113 O 0.97506 0.75536 0.62771 0.0
Mg1114 Mg 0.48637 0.24382 0.10182 0.0
O1115 O 0.51549 0.23862 0.11994 0.0
O1116 O 0.53841 0.2313 0.09848 0.0
Mg1117 Mg 0.52375 0.22998 0.06727 0.0
C1118 C 0.53331 0.23436 0.1161 0.0
C1119 C 0.45382 0.26019 0.12577 0.0
O1120 O 0.44512 0.2564 0.10832 0.0
O1121 O 0.49966 0.27341 0.09112 0.0
O1122 O 0.51972 0.26348 0.06797 0.0
O1123 O 0.47622 0.21214 0.10402 0.0
O1124 O 0.49466 0.22424 0.0803 0.0
C1125 C 0.51144 0.27713 0.07714 0.0
C1126 C 0.48607 0.20912 0.08842 0.0
O1127 O 0.47246 0.25762 0.12824 0.0
C1128 C 0.23062 0.78658 0.85908 0.0
C1129 C 0.22675 0.76621 0.86095 0.0
C1130 C 0.23385 0.79866 0.87588 0.0
C1131 C 0.23279 0.79013 0.89486 0.0
C1132 C 0.22795 0.76968 0.89672 0.0
C1133 C 0.22519 0.75795 0.87973 0.0
C1134 C 0.23924 0.82034 0.87334 0.0
C1135 C 0.22631 0.76006 0.91667 0.0
C1136 C 0.26196 0.81108 0.93991 0.0
C1137 C 0.24689 0.81966 0.95019 0.0
C1138 C 0.2578 0.80249 0.92128 0.0
C1139 C 0.23799 0.80211 0.91291 0.0
C1140 C 0.22291 0.8115 0.92282 0.0
C1141 C 0.22759 0.82034 0.9413 0.0
C1142 C 0.27441 0.79299 0.91098 0.0
C1143 C 0.20157 0.8112 0.91449 0.0
H1144 H 0.23193 0.79289 0.8445 0.0
H1145 H 0.22202 0.74219 0.88109 0.0
H1146 H 0.22951 0.82937 0.88212 0.0
H1147 H 0.25492 0.8236 0.87891 0.0
H1148 H 0.23785 0.82496 0.85766 0.0
H1149 H 0.22088 0.74434 0.91551 0.0
H1150 H 0.24119 0.76081 0.92464 0.0
H1151 H 0.21593 0.76806 0.92572 0.0
H1152 H 0.27697 0.81074 0.94661 0.0
H1153 H 0.21586 0.82691 0.94921 0.0
H1154 H 0.27476 0.79795 0.89542 0.0
H1155 H 0.27161 0.77674 0.91079 0.0
H1156 H 0.28934 0.79647 0.91837 0.0
H1157 H 0.20113 0.81588 0.89883 0.0
H1158 H 0.19214 0.82092 0.9229 0.0
H1159 H 0.19489 0.79591 0.91492 0.0
C1160 C 0.03922 0.48062 0.38481 0.0
C1161 C 0.03488 0.50024 0.38867 0.0
C1162 C 0.05262 0.47608 0.3703 0.0
C1163 C 0.06202 0.49154 0.35957 0.0
C1164 C 0.0571 0.51128 0.36289 0.0
C1165 C 0.04352 0.51535 0.37728 0.0
C1166 C 0.0573 0.45485 0.36699 0.0
C1167 C 0.06678 0.52822 0.35178 0.0
C1168 C 0.11382 0.48753 0.34017 0.0
C1169 C 0.10966 0.48641 0.31973 0.0
C1170 C 0.09836 0.48818 0.35337 0.0
C1171 C 0.07819 0.4875 0.346 0.0
C1172 C 0.07382 0.48503 0.3255 0.0
C1173 C 0.08963 0.48459 0.31257 0.0
C1174 C 0.10369 0.49086 0.37512 0.0
C1175 C 0.05249 0.4839 0.31712 0.0
H1176 H 0.03268 0.46885 0.39359 0.0
H1177 H 0.03987 0.5305 0.37983 0.0
H1178 H 0.0563 0.45126 0.35101 0.0
H1179 H 0.07288 0.45247 0.37244 0.0
H1180 H 0.04701 0.44445 0.37474 0.0
H1181 H 0.06064 0.5426 0.35546 0.0
H1182 H 0.08317 0.52913 0.35532 0.0
H1183 H 0.0646 0.52572 0.33565 0.0
H1184 H 0.12924 0.48879 0.34587 0.0
H1185 H 0.08626 0.48357 0.29682 0.0
H1186 H 0.09514 0.47981 0.38385 0.0
H1187 H 0.09952 0.50568 0.37992 0.0
H1188 H 0.11994 0.48947 0.37863 0.0
H1189 H 0.04309 0.47343 0.32572 0.0
H1190 H 0.05151 0.47922 0.3014 0.0
H1191 H 0.04609 0.4986 0.3182 0.0
C1192 C 0.783 0.72999 0.88435 0.0
C1193 C 0.7818 0.72157 0.86548 0.0
C1194 C 0.7814 0.71822 0.90118 0.0
C1195 C 0.77815 0.69752 0.89904 0.0
C1196 C 0.77759 0.68886 0.88001 0.0
C1197 C 0.77959 0.70103 0.86339 0.0
C1198 C 0.78245 0.72805 0.92121 0.0
C1199 C 0.77392 0.6669 0.87713 0.0
C1200 C 0.78558 0.67004 0.94722 0.0
C1201 C 0.76632 0.67036 0.95452 0.0
C1202 C 0.78952 0.67768 0.92848 0.0
C1203 C 0.77374 0.68546 0.91674 0.0
C1204 C 0.75397 0.68414 0.92338 0.0
C1205 C 0.75053 0.6768 0.94227 0.0
C1206 C 0.81082 0.67892 0.92199 0.0
C1207 C 0.73663 0.69184 0.91115 0.0
H1208 H 0.78493 0.74588 0.8859 0.0
H1209 H 0.77861 0.69457 0.84873 0.0
H1210 H 0.76764 0.72631 0.92791 0.0
H1211 H 0.79348 0.72091 0.93121 0.0
H1212 H 0.78673 0.74404 0.92041 0.0
H1213 H 0.77616 0.66226 0.86172 0.0
H1214 H 0.78402 0.65872 0.88722 0.0
H1215 H 0.75831 0.66258 0.88081 0.0
H1216 H 0.79784 0.66512 0.95667 0.0
H1217 H 0.73557 0.67683 0.94779 0.0
H1218 H 0.81687 0.69442 0.92325 0.0
H1219 H 0.81145 0.67444 0.90631 0.0
H1220 H 0.82067 0.66952 0.93115 0.0
H1221 H 0.73795 0.7082 0.91092 0.0
H1222 H 0.72194 0.68721 0.9171 0.0
H1223 H 0.7369 0.6866 0.89568 0.0
C1224 C 0.97339 0.99018 0.38079 0.0
C1225 C 0.98417 0.00659 0.38935 0.0
C1226 C 0.96184 0.99191 0.36312 0.0
C1227 C 0.96142 0.01036 0.35347 0.0
C1228 C 0.97144 0.02715 0.36245 0.0
C1229 C 0.98246 0.02511 0.38038 0.0
C1230 C 0.95104 0.97371 0.35422 0.0
C1231 C 0.9716 0.04705 0.35253 0.0
C1232 C 0.95699 0.00809 0.29765 0.0
C1233 C 0.93718 0.01322 0.29358 0.0
C1234 C 0.96503 0.00742 0.31703 0.0
C1235 C 0.95284 0.01152 0.33288 0.0
C1236 C 0.93275 0.0166 0.32894 0.0
C1237 C 0.92521 0.01765 0.30926 0.0
C1238 C 0.98666 0.00239 0.32052 0.0
C1239 C 0.91918 0.0206 0.34549 0.0
H1240 H 0.97465 0.97575 0.38736 0.0
H1241 H 0.9902 0.03801 0.38709 0.0
H1242 H 0.93559 0.97697 0.34903 0.0
H1243 H 0.95901 0.96885 0.34123 0.0
H1244 H 0.95025 0.96132 0.36488 0.0
H1245 H 0.9784 0.05898 0.36229 0.0
H1246 H 0.98031 0.04653 0.33903 0.0
H1247 H 0.95616 0.05084 0.34789 0.0
H1248 H 0.96641 0.00489 0.28558 0.0
H1249 H 0.90986 0.02154 0.30617 0.0
H1250 H 0.98752 0.98864 0.32925 0.0
H1251 H 0.99499 0.0143 0.32917 0.0
H1252 H 0.99431 0.00031 0.30653 0.0
H1253 H 0.91783 0.00744 0.3551 0.0
H1254 H 0.90395 0.02435 0.33997 0.0
H1255 H 0.92573 0.03295 0.35481 0.0
C1256 C 0.25353 0.24485 0.62385 0.0
C1257 C 0.24382 0.24088 0.64142 0.0
C1258 C 0.25602 0.22993 0.61004 0.0
C1259 C 0.24817 0.21057 0.61355 0.0
C1260 C 0.23797 0.20645 0.631 0.0
C1261 C 0.23609 0.22161 0.64483 0.0
C1262 C 0.26714 0.23491 0.59166 0.0
C1263 C 0.2291 0.18605 0.63507 0.0
C1264 C 0.24171 0.18056 0.56643 0.0
C1265 C 0.25941 0.17036 0.56698 0.0
C1266 C 0.23707 0.1926 0.58223 0.0
C1267 C 0.25072 0.19482 0.59875 0.0
C1268 C 0.26804 0.18363 0.59987 0.0
C1269 C 0.27207 0.17134 0.58403 0.0
C1270 C 0.21816 0.20384 0.58071 0.0
C1271 C 0.28311 0.18577 0.6171 0.0
H1272 H 0.25912 0.25973 0.62077 0.0
H1273 H 0.22876 0.21829 0.65843 0.0
H1274 H 0.27994 0.22526 0.59051 0.0
H1275 H 0.25707 0.2322 0.57839 0.0
H1276 H 0.27296 0.25053 0.5915 0.0
H1277 H 0.22097 0.18544 0.64898 0.0
H1278 H 0.21856 0.18116 0.62271 0.0
H1279 H 0.24113 0.17539 0.63607 0.0
H1280 H 0.23169 0.17953 0.55345 0.0
H1281 H 0.28581 0.1635 0.58447 0.0
H1282 H 0.22205 0.21969 0.57819 0.0
H1283 H 0.21018 0.20274 0.59467 0.0
H1284 H 0.20781 0.19836 0.5684 0.0
H1285 H 0.29087 0.2006 0.61671 0.0
H1286 H 0.29457 0.17449 0.6168 0.0
H1287 H 0.27552 0.18458 0.63126 0.0
C1288 C 0.46552 0.48908 0.60367 0.0
C1289 C 0.47522 0.50588 0.59583 0.0
C1290 C 0.45526 0.4902 0.62123 0.0
C1291 C 0.45504 0.5085 0.63127 0.0
C1292 C 0.46484 0.52549 0.62338 0.0
C1293 C 0.4747 0.52399 0.60571 0.0
C1294 C 0.44474 0.47185 0.62906 0.0
C1295 C 0.4652 0.54521 0.63377 0.0
C1296 C 0.41664 0.5193 0.66884 0.0
C1297 C 0.42774 0.517 0.68665 0.0
C1298 C 0.42503 0.51569 0.65066 0.0
C1299 C 0.44508 0.50995 0.65033 0.0
C1300 C 0.45614 0.50706 0.66829 0.0
C1301 C 0.44729 0.5105 0.68623 0.0
C1302 C 0.41268 0.51864 0.63182 0.0
C1303 C 0.47762 0.50117 0.66856 0.0
H1304 H 0.4658 0.4751 0.59596 0.0
H1305 H 0.48243 0.53695 0.59981 0.0
H1306 H 0.45142 0.46819 0.64378 0.0
H1307 H 0.4287 0.47448 0.631 0.0
H1308 H 0.44571 0.45894 0.61913 0.0
H1309 H 0.47341 0.557 0.62561 0.0
H1310 H 0.44969 0.5497 0.63564 0.0
H1311 H 0.47246 0.54403 0.64873 0.0
H1312 H 0.40148 0.52419 0.66907 0.0
H1313 H 0.45598 0.50876 0.69994 0.0
H1314 H 0.41312 0.50554 0.62208 0.0
H1315 H 0.41908 0.53147 0.62371 0.0
H1316 H 0.3968 0.52127 0.63462 0.0
H1317 H 0.47886 0.48768 0.65954 0.0
H1318 H 0.48374 0.49837 0.68373 0.0
H1319 H 0.48709 0.51307 0.66192 0.0
C1320 C 0.80747 0.3033 0.6438 0.0
C1321 C 0.79212 0.29675 0.65601 0.0
C1322 C 0.80311 0.31322 0.6261 0.0
C1323 C 0.78291 0.31634 0.62033 0.0
C1324 C 0.76745 0.31048 0.63294 0.0
C1325 C 0.77227 0.30099 0.65071 0.0
C1326 C 0.82003 0.31965 0.61321 0.0
C1327 C 0.7457 0.31342 0.62727 0.0
C1328 C 0.76712 0.35137 0.57963 0.0
C1329 C 0.76285 0.33826 0.56383 0.0
C1330 C 0.77472 0.34463 0.5979 0.0
C1331 C 0.77764 0.32427 0.60048 0.0
C1332 C 0.77394 0.3111 0.58437 0.0
C1333 C 0.76677 0.3183 0.56618 0.0
C1334 C 0.77898 0.35916 0.61461 0.0
C1335 C 0.7766 0.28923 0.58659 0.0
H1336 H 0.82284 0.30002 0.64768 0.0
H1337 H 0.76036 0.29647 0.66029 0.0
H1338 H 0.81944 0.3103 0.59975 0.0
H1339 H 0.81847 0.33512 0.60836 0.0
H1340 H 0.83493 0.31846 0.62091 0.0
H1341 H 0.73556 0.3087 0.63908 0.0
H1342 H 0.74347 0.32916 0.62391 0.0
H1343 H 0.74125 0.30481 0.61371 0.0
H1344 H 0.76428 0.36686 0.57781 0.0
H1345 H 0.76343 0.3081 0.55403 0.0
H1346 H 0.79406 0.35716 0.6216 0.0
H1347 H 0.76792 0.35649 0.62612 0.0
H1348 H 0.77818 0.37469 0.6096 0.0
H1349 H 0.79193 0.28657 0.59254 0.0
H1350 H 0.77399 0.28114 0.57239 0.0
H1351 H 0.76594 0.283 0.59728 0.0
C1352 C 0.5734 0.98177 0.62803 0.0
C1353 C 0.55407 0.98905 0.62679 0.0
C1354 C 0.58625 0.98522 0.64472 0.0
C1355 C 0.58005 0.99696 0.66033 0.0
C1356 C 0.56081 0.00477 0.6591 0.0
C1357 C 0.54794 0.00044 0.64253 0.0
C1358 C 0.60649 0.97626 0.64563 0.0
C1359 C 0.55388 0.01779 0.67523 0.0
C1360 C 0.60735 0.99188 0.71029 0.0
C1361 C 0.62251 0.00683 0.70942 0.0
C1362 C 0.59321 0.98865 0.69452 0.0
C1363 C 0.59388 0.00112 0.67782 0.0
C1364 C 0.60862 0.01683 0.67732 0.0
C1365 C 0.62299 0.01926 0.69298 0.0
C1366 C 0.57816 0.97136 0.69536 0.0
C1367 C 0.60942 0.03084 0.66009 0.0
H1368 H 0.57868 0.97344 0.61586 0.0
H1369 H 0.533 0.00592 0.64205 0.0
H1370 H 0.61855 0.9881 0.64597 0.0
H1371 H 0.60839 0.96758 0.65937 0.0
H1372 H 0.60853 0.96646 0.63283 0.0
H1373 H 0.53883 0.02341 0.67165 0.0
H1374 H 0.5533 0.00949 0.68926 0.0
H1375 H 0.56473 0.03056 0.67775 0.0
H1376 H 0.60707 0.98217 0.72296 0.0
H1377 H 0.63461 0.03096 0.6924 0.0
H1378 H 0.58069 0.96076 0.68337 0.0
H1379 H 0.56272 0.97637 0.69295 0.0
H1380 H 0.57917 0.9635 0.70968 0.0
H1381 H 0.61357 0.02287 0.64672 0.0
H1382 H 0.62048 0.04342 0.66288 0.0
H1383 H 0.59445 0.03674 0.65685 0.0
C1384 C 0.89889 0.2177 0.80572 0.0
C1385 C 0.88707 0.2334 0.80008 0.0
C1386 C 0.91561 0.22066 0.81883 0.0
C1387 C 0.92061 0.23977 0.8265 0.0
C1388 C 0.90905 0.25578 0.82047 0.0
C1389 C 0.89242 0.25241 0.8073 0.0
C1390 C 0.92766 0.20323 0.82481 0.0
C1391 C 0.91388 0.27636 0.82839 0.0
C1392 C 0.94936 0.24246 0.876 0.0
C1393 C 0.96905 0.24687 0.87047 0.0
C1394 C 0.93345 0.24041 0.86184 0.0
C1395 C 0.93728 0.24276 0.84163 0.0
C1396 C 0.95704 0.24746 0.83592 0.0
C1397 C 0.97269 0.24949 0.85041 0.0
C1398 C 0.91256 0.23545 0.86851 0.0
C1399 C 0.96168 0.25005 0.81448 0.0
H1400 H 0.895 0.20304 0.79994 0.0
H1401 H 0.88322 0.26456 0.80313 0.0
H1402 H 0.94372 0.20639 0.82201 0.0
H1403 H 0.9266 0.20057 0.84086 0.0
H1404 H 0.9224 0.18954 0.81675 0.0
H1405 H 0.90415 0.28739 0.82135 0.0
H1406 H 0.91194 0.27661 0.84453 0.0
H1407 H 0.92975 0.28087 0.82599 0.0
H1408 H 0.94633 0.24047 0.89144 0.0
H1409 H 0.98783 0.25289 0.84596 0.0
H1410 H 0.90691 0.22103 0.86218 0.0
H1411 H 0.9022 0.24669 0.86304 0.0
H1412 H 0.91201 0.23466 0.88482 0.0
H1413 H 0.9578 0.23612 0.8063 0.0
H1414 H 0.97773 0.25426 0.81252 0.0
H1415 H 0.95242 0.26157 0.8077 0.0
C1416 C 0.48118 0.89291 0.46371 0.0
C1417 C 0.49701 0.90331 0.4741 0.0
C1418 C 0.48432 0.87533 0.45364 0.0
C1419 C 0.50368 0.86778 0.45426 0.0
C1420 C 0.51988 0.87858 0.46403 0.0
C1421 C 0.51638 0.8963 0.47366 0.0
C1422 C 0.46672 0.86437 0.44314 0.0
C1423 C 0.54071 0.87094 0.46517 0.0
C1424 C 0.50575 0.81219 0.45162 0.0
C1425 C 0.51154 0.80922 0.43229 0.0
C1426 C 0.50339 0.83118 0.45895 0.0
C1427 C 0.50656 0.84766 0.44653 0.0
C1428 C 0.51237 0.84483 0.42696 0.0
C1429 C 0.51499 0.82561 0.42011 0.0
C1430 C 0.49753 0.83359 0.48003 0.0
C1431 C 0.51553 0.86205 0.41323 0.0
H1432 H 0.46612 0.89805 0.46406 0.0
H1433 H 0.52881 0.90446 0.4812 0.0
H1434 H 0.47064 0.85995 0.42811 0.0
H1435 H 0.4628 0.85068 0.45132 0.0
H1436 H 0.45329 0.87335 0.44193 0.0
H1437 H 0.55195 0.88182 0.47198 0.0
H1438 H 0.54075 0.85725 0.47408 0.0
H1439 H 0.54542 0.86712 0.45025 0.0
H1440 H 0.50324 0.79961 0.46118 0.0
H1441 H 0.51936 0.82338 0.40512 0.0
H1442 H 0.48298 0.8407 0.48033 0.0
H1443 H 0.50885 0.84337 0.48822 0.0
H1444 H 0.49617 0.81928 0.48789 0.0
H1445 H 0.50151 0.87005 0.41136 0.0
H1446 H 0.52008 0.85736 0.39847 0.0
H1447 H 0.52724 0.87264 0.41965 0.0
C1448 C 0.11727 0.29342 0.76315 0.0
C1449 C 0.13669 0.30099 0.76846 0.0
C1450 C 0.10318 0.28933 0.77749 0.0
C1451 C 0.10862 0.293 0.79761 0.0
C1452 C 0.12775 0.30181 0.80294 0.0
C1453 C 0.14158 0.3056 0.78833 0.0
C1454 C 0.08292 0.27999 0.77122 0.0
C1455 C 0.13411 0.30605 0.82423 0.0
C1456 C 0.06993 0.28989 0.83711 0.0
C1457 C 0.07298 0.27109 0.8449 0.0
C1458 C 0.08112 0.29718 0.82139 0.0
C1459 C 0.09551 0.2853 0.81326 0.0
C1460 C 0.09815 0.2661 0.8207 0.0
C1461 C 0.08693 0.25929 0.83644 0.0
C1462 C 0.07797 0.31775 0.81387 0.0
C1463 C 0.1132 0.25287 0.81234 0.0
H1464 H 0.11324 0.29018 0.74779 0.0
H1465 H 0.15658 0.31125 0.79266 0.0
H1466 H 0.08208 0.26435 0.77598 0.0
H1467 H 0.07083 0.28751 0.77839 0.0
H1468 H 0.08007 0.28043 0.75497 0.0
H1469 H 0.14839 0.31513 0.82568 0.0
H1470 H 0.12235 0.31384 0.83166 0.0
H1471 H 0.13616 0.29194 0.83213 0.0
H1472 H 0.05916 0.29908 0.84358 0.0
H1473 H 0.08925 0.24467 0.84224 0.0
H1474 H 0.07508 0.31751 0.79764 0.0
H1475 H 0.09177 0.32722 0.81697 0.0
H1476 H 0.06528 0.32458 0.82082 0.0
H1477 H 0.11031 0.25109 0.79619 0.0
H1478 H 0.11276 0.23801 0.81919 0.0
H1479 H 0.12855 0.25969 0.81474 0.0
C1480 C 0.53358 0.61464 0.45218 0.0
C1481 C 0.51508 0.60402 0.45265 0.0
C1482 C 0.53511 0.63334 0.44354 0.0
C1483 C 0.51772 0.64157 0.43502 0.0
C1484 C 0.4991 0.63066 0.43486 0.0
C1485 C 0.49797 0.61202 0.44381 0.0
C1486 C 0.55521 0.64459 0.44417 0.0
C1487 C 0.48032 0.63888 0.42568 0.0
C1488 C 0.51936 0.69742 0.4334 0.0
C1489 C 0.52519 0.70114 0.41413 0.0
C1490 C 0.5163 0.67806 0.44019 0.0
C1491 C 0.51898 0.66205 0.42735 0.0
C1492 C 0.52418 0.66571 0.40766 0.0
C1493 C 0.52735 0.68524 0.40131 0.0
C1494 C 0.51093 0.67475 0.46135 0.0
C1495 C 0.52694 0.64899 0.39349 0.0
H1496 H 0.54679 0.60862 0.45926 0.0
H1497 H 0.48369 0.60376 0.44403 0.0
H1498 H 0.55912 0.64919 0.4291 0.0
H1499 H 0.55446 0.65819 0.45313 0.0
H1500 H 0.56741 0.63574 0.4506 0.0
H1501 H 0.46737 0.62796 0.42547 0.0
H1502 H 0.47639 0.65207 0.43408 0.0
H1503 H 0.48287 0.64369 0.41035 0.0
H1504 H 0.51775 0.70963 0.4434 0.0
H1505 H 0.53174 0.68804 0.38636 0.0
H1506 H 0.52317 0.66726 0.46943 0.0
H1507 H 0.49718 0.66497 0.46197 0.0
H1508 H 0.50842 0.68876 0.46913 0.0
H1509 H 0.54007 0.64069 0.39854 0.0
H1510 H 0.5293 0.6543 0.37826 0.0
H1511 H 0.51365 0.63851 0.39317 0.0
C1512 C 0.87223 0.77251 0.70033 0.0
C1513 C 0.87624 0.769 0.72047 0.0
C1514 C 0.88706 0.77064 0.68657 0.0
C1515 C 0.90632 0.76488 0.69304 0.0
C1516 C 0.91072 0.76205 0.7134 0.0
C1517 C 0.89566 0.76424 0.72687 0.0
C1518 C 0.8818 0.77393 0.66499 0.0
C1519 C 0.93104 0.75583 0.72087 0.0
C1520 C 0.93334 0.73582 0.6557 0.0
C1521 C 0.94713 0.75004 0.64861 0.0
C1522 C 0.9204 0.74039 0.67049 0.0
C1523 C 0.92105 0.75976 0.6783 0.0
C1524 C 0.93521 0.77414 0.67153 0.0
C1525 C 0.94821 0.76907 0.65681 0.0
C1526 C 0.90573 0.72453 0.67749 0.0
C1527 C 0.93621 0.79499 0.67941 0.0
H1528 H 0.85725 0.77601 0.69517 0.0
H1529 H 0.89905 0.76192 0.74244 0.0
H1530 H 0.89336 0.78384 0.6584 0.0
H1531 H 0.88146 0.75966 0.65696 0.0
H1532 H 0.86697 0.78043 0.66261 0.0
H1533 H 0.93265 0.75598 0.73724 0.0
H1534 H 0.93338 0.74067 0.71559 0.0
H1535 H 0.94307 0.76567 0.71497 0.0
H1536 H 0.93255 0.72103 0.64957 0.0
H1537 H 0.9588 0.78013 0.65134 0.0
H1538 H 0.89017 0.72876 0.67398 0.0
H1539 H 0.90745 0.72295 0.69374 0.0
H1540 H 0.90779 0.70997 0.67057 0.0
H1541 H 0.92195 0.80202 0.67551 0.0
H1542 H 0.94875 0.80412 0.67341 0.0
H1543 H 0.93802 0.79495 0.69573 0.0
C1544 C 0.0103 0.87947 0.51863 0.0
C1545 C 0.01916 0.89646 0.52791 0.0
C1546 C 0.00897 0.86135 0.52849 0.0
C1547 C 0.01699 0.86 0.54808 0.0
C1548 C 0.02577 0.87707 0.55767 0.0
C1549 C 0.02665 0.89512 0.54752 0.0
C1550 C 0.99939 0.84353 0.51774 0.0
C1551 C 0.03461 0.87617 0.5785 0.0
C1552 C 0.99958 0.81431 0.57617 0.0
C1553 C 0.01465 0.80135 0.57236 0.0
C1554 C 0.00048 0.83374 0.56901 0.0
C1555 C 0.01697 0.84044 0.55801 0.0
C1556 C 0.03273 0.82776 0.55505 0.0
C1557 C 0.03132 0.80836 0.56213 0.0
C1558 C 0.9833 0.84676 0.57233 0.0
C1559 C 0.05074 0.83441 0.54367 0.0
H1560 H 0.00481 0.88017 0.50338 0.0
H1561 H 0.03328 0.90817 0.55495 0.0
H1562 H 0.01074 0.83242 0.51576 0.0
H1563 H 0.98743 0.83652 0.52657 0.0
H1564 H 0.99277 0.84731 0.503 0.0
H1565 H 0.04023 0.89089 0.58414 0.0
H1566 H 0.02323 0.87003 0.5885 0.0
H1567 H 0.04722 0.86614 0.57908 0.0
H1568 H 0.98663 0.80902 0.58402 0.0
H1569 H 0.04315 0.79853 0.55931 0.0
H1570 H 0.97513 0.84939 0.55805 0.0
H1571 H 0.98897 0.86134 0.57823 0.0
H1572 H 0.97254 0.84006 0.5827 0.0
H1573 H 0.04605 0.83675 0.52799 0.0
H1574 H 0.06254 0.82346 0.54429 0.0
H1575 H 0.05729 0.84869 0.54956 0.0
C1576 C 0.12564 0.7459 0.69865 0.0
C1577 C 0.13004 0.72733 0.70628 0.0
C1578 C 0.11041 0.74788 0.68395 0.0
C1579 C 0.09929 0.73089 0.6767 0.0
C1580 C 0.10359 0.71211 0.68439 0.0
C1581 C 0.11893 0.71056 0.69907 0.0
C1582 C 0.10638 0.76815 0.67603 0.0
C1583 C 0.09202 0.69365 0.67708 0.0
C1584 C 0.04876 0.73734 0.64994 0.0
C1585 C 0.05366 0.73603 0.6301 0.0
C1586 C 0.06344 0.73569 0.66527 0.0
C1587 C 0.08351 0.73271 0.66067 0.0
C1588 C 0.08857 0.73147 0.64071 0.0
C1589 C 0.07362 0.73312 0.6257 0.0
C1590 C 0.05748 0.73708 0.68639 0.0
C1591 C 0.10981 0.72835 0.63519 0.0
H1592 H 0.13433 0.7589 0.70398 0.0
H1593 H 0.12207 0.6962 0.70508 0.0
H1594 H 0.10895 0.76867 0.66001 0.0
H1595 H 0.09047 0.77138 0.67787 0.0
H1596 H 0.11606 0.77992 0.68355 0.0
H1597 H 0.09698 0.68021 0.68481 0.0
H1598 H 0.07579 0.69497 0.67918 0.0
H1599 H 0.09388 0.69176 0.66104 0.0
H1600 H 0.03342 0.73956 0.65354 0.0
H1601 H 0.07763 0.73211 0.61046 0.0
H1602 H 0.06618 0.74944 0.69401 0.0
H1603 H 0.06106 0.72336 0.69438 0.0
H1604 H 0.04125 0.73943 0.68751 0.0
H1605 H 0.12002 0.74043 0.64139 0.0
H1606 H 0.1113 0.72782 0.61897 0.0
H1607 H 0.1149 0.71434 0.64162 0.0
C1608 C 0.96413 0.61272 0.52692 0.0
C1609 C 0.97912 0.59934 0.52455 0.0
C1610 C 0.96828 0.63059 0.53704 0.0
C1611 C 0.98787 0.63513 0.54513 0.0
C1612 C 0.00309 0.62167 0.54281 0.0
C1613 C 0.99855 0.60395 0.53244 0.0
C1614 C 0.95168 0.64464 0.53902 0.0
C1615 C 0.02408 0.62591 0.55143 0.0
C1616 C 0.99954 0.68943 0.5563 0.0
C1617 C 0.99474 0.69053 0.57615 0.0
C1618 C 0.99823 0.67131 0.54618 0.0
C1619 C 0.99217 0.6539 0.55624 0.0
C1620 C 0.98849 0.65478 0.57658 0.0
C1621 C 0.98972 0.67311 0.58627 0.0
C1622 C 0.00221 0.67099 0.52447 0.0
C1623 C 0.98229 0.63652 0.5879 0.0
H1624 H 0.94918 0.60933 0.52059 0.0
H1625 H 0.01014 0.59355 0.53075 0.0
H1626 H 0.94905 0.64709 0.55484 0.0
H1627 H 0.95609 0.65917 0.53264 0.0
H1628 H 0.93738 0.63907 0.53154 0.0
H1629 H 0.03424 0.614 0.54815 0.0
H1630 H 0.03041 0.64 0.54552 0.0
H1631 H 0.02374 0.62765 0.56767 0.0
H1632 H 0.00341 0.70285 0.54839 0.0
H1633 H 0.98613 0.67383 0.60166 0.0
H1634 H 0.98799 0.66736 0.51586 0.0
H1635 H 0.0127 0.65938 0.52125 0.0
H1636 H 0.00859 0.68539 0.51928 0.0
H1637 H 0.96706 0.63108 0.58258 0.0
H1638 H 0.98209 0.63935 0.60401 0.0
H1639 H 0.9926 0.62457 0.58534 0.0
C1640 C 0.7939 0.91017 0.24379 0.0
C1641 C 0.78553 0.90423 0.22527 0.0
C1642 C 0.80986 0.9244 0.24547 0.0
C1643 C 0.81759 0.93295 0.2282 0.0
C1644 C 0.80886 0.92738 0.20948 0.0
C1645 C 0.79297 0.91306 0.20824 0.0
C1646 C 0.81884 0.92989 0.26568 0.0
C1647 C 0.81658 0.93626 0.19073 0.0
C1648 C 0.84982 0.98069 0.23222 0.0
C1649 C 0.86921 0.97379 0.23138 0.0
C1650 C 0.83287 0.96757 0.23133 0.0
C1651 C 0.83535 0.94706 0.22962 0.0
C1652 C 0.85486 0.93998 0.22897 0.0
C1653 C 0.87152 0.95341 0.22982 0.0
C1654 C 0.8123 0.97566 0.23203 0.0
C1655 C 0.85812 0.9182 0.22722 0.0
H1656 H 0.78835 0.90323 0.25699 0.0
H1657 H 0.78637 0.9087 0.1939 0.0
H1658 H 0.83462 0.92556 0.26696 0.0
H1659 H 0.81899 0.9461 0.26786 0.0
H1660 H 0.81048 0.92262 0.27767 0.0
H1661 H 0.80756 0.93101 0.17742 0.0
H1662 H 0.81643 0.95259 0.19141 0.0
H1663 H 0.83235 0.93243 0.18911 0.0
H1664 H 0.84783 0.99638 0.23341 0.0
H1665 H 0.8864 0.94788 0.22921 0.0
H1666 H 0.80424 0.96904 0.24453 0.0
H1667 H 0.80335 0.97159 0.21832 0.0
H1668 H 0.81293 0.99197 0.23367 0.0
H1669 H 0.85123 0.91012 0.23959 0.0
H1670 H 0.87426 0.91507 0.22728 0.0
H1671 H 0.85068 0.91228 0.21334 0.0
C1672 C 0.77063 0.11905 0.25223 0.0
C1673 C 0.77485 0.13847 0.25889 0.0
C1674 C 0.78607 0.1061 0.24973 0.0
C1675 C 0.80621 0.11268 0.25413 0.0
C1676 C 0.81053 0.13206 0.26138 0.0
C1677 C 0.79485 0.14474 0.26355 0.0
C1678 C 0.78088 0.08557 0.24187 0.0
C1679 C 0.83181 0.13964 0.26628 0.0
C1680 C 0.84698 0.0756 0.25982 0.0
C1681 C 0.85569 0.07704 0.24144 0.0
C1682 C 0.83072 0.08697 0.26417 0.0
C1683 C 0.82291 0.09991 0.24972 0.0
C1684 C 0.83144 0.10115 0.23105 0.0
C1685 C 0.84775 0.0898 0.22718 0.0
C1686 C 0.82209 0.0854 0.2843 0.0
C1687 C 0.82346 0.11462 0.21516 0.0
H1688 H 0.75523 0.11395 0.2489 0.0
H1689 H 0.79835 0.15978 0.26841 0.0
H1690 H 0.78738 0.08384 0.22726 0.0
H1691 H 0.78747 0.07444 0.25183 0.0
H1692 H 0.76443 0.08234 0.24023 0.0
H1693 H 0.83251 0.15449 0.27327 0.0
H1694 H 0.83946 0.12931 0.2764 0.0
H1695 H 0.84029 0.14053 0.25262 0.0
H1696 H 0.85303 0.06578 0.27091 0.0
H1697 H 0.85427 0.09092 0.21287 0.0
H1698 H 0.80581 0.08135 0.28285 0.0
H1699 H 0.82381 0.09992 0.29189 0.0
H1700 H 0.8295 0.07428 0.29372 0.0
H1701 H 0.80724 0.11112 0.21204 0.0
H1702 H 0.83135 0.11337 0.2012 0.0
H1703 H 0.82511 0.13017 0.22029 0.0
C1704 C 0.38006 0.92934 0.96808 0.0
C1705 C 0.38208 0.94908 0.97444 0.0
C1706 C 0.36339 0.91714 0.97272 0.0
C1707 C 0.34864 0.92458 0.98462 0.0
C1708 C 0.35051 0.94441 0.99116 0.0
C1709 C 0.36698 0.9565 0.9857 0.0
C1710 C 0.36172 0.89617 0.96509 0.0
C1711 C 0.33534 0.95273 0.00428 0.0
C1712 C 0.29827 0.89598 0.98483 0.0
C1713 C 0.30144 0.88315 0.00066 0.0
C1714 C 0.3134 0.90985 0.97958 0.0
C1715 C 0.33178 0.91126 0.99087 0.0
C1716 C 0.33453 0.89902 0.00755 0.0
C1717 C 0.31946 0.88485 0.01202 0.0
C1718 C 0.31012 0.92223 0.96137 0.0
C1719 C 0.35362 0.90052 0.02037 0.0
H1720 H 0.39169 0.9232 0.95972 0.0
H1721 H 0.36797 0.9718 0.99034 0.0
H1722 H 0.36308 0.88576 0.9776 0.0
H1723 H 0.34682 0.89303 0.95757 0.0
H1724 H 0.37349 0.8932 0.9546 0.0
H1725 H 0.33896 0.96846 0.00812 0.0
H1726 H 0.32018 0.95145 0.99691 0.0
H1727 H 0.3347 0.94408 0.01812 0.0
H1728 H 0.28438 0.89447 0.97595 0.0
H1729 H 0.32181 0.87495 0.02434 0.0
H1730 H 0.32072 0.91817 0.95011 0.0
H1731 H 0.31323 0.93808 0.96485 0.0
H1732 H 0.2946 0.92018 0.95487 0.0
H1733 H 0.36626 0.89552 0.01194 0.0
H1734 H 0.35254 0.89141 0.0339 0.0
H1735 H 0.35727 0.91608 0.02477 0.0
C1736 C 0.22409 0.36581 0.27762 0.0
C1737 C 0.22504 0.35408 0.26071 0.0
C1738 C 0.21377 0.38329 0.27702 0.0
C1739 C 0.20388 0.38895 0.25917 0.0
C1740 C 0.20377 0.37649 0.2424 0.0
C1741 C 0.21457 0.3593 0.2433 0.0
C1742 C 0.21457 0.39632 0.29513 0.0
C1743 C 0.19306 0.38181 0.22323 0.0
C1744 C 0.16922 0.43166 0.26131 0.0
C1745 C 0.1817 0.44739 0.25493 0.0
C1746 C 0.17603 0.4124 0.26238 0.0
C1747 C 0.19589 0.40895 0.25739 0.0
C1748 C 0.20852 0.4248 0.251 0.0
C1749 C 0.20121 0.44374 0.24966 0.0
C1750 C 0.16203 0.39576 0.26886 0.0
C1751 C 0.22992 0.42184 0.24589 0.0
H1752 H 0.23234 0.36184 0.29104 0.0
H1753 H 0.21517 0.3501 0.23029 0.0
H1754 H 0.22373 0.41004 0.29233 0.0
H1755 H 0.19934 0.4007 0.29847 0.0
H1756 H 0.22123 0.38896 0.3083 0.0
H1757 H 0.19206 0.36936 0.21252 0.0
H1758 H 0.17769 0.38631 0.2259 0.0
H1759 H 0.20119 0.39454 0.21646 0.0
H1760 H 0.15409 0.43438 0.2653 0.0
H1761 H 0.21102 0.45583 0.24489 0.0
H1762 H 0.16814 0.38918 0.28267 0.0
H1763 H 0.16078 0.38393 0.25751 0.0
H1764 H 0.14679 0.40074 0.27144 0.0
H1765 H 0.23831 0.41573 0.25877 0.0
H1766 H 0.23785 0.43578 0.24141 0.0
H1767 H 0.23024 0.41103 0.23365 0.0
C1768 C 0.15373 0.03205 0.50568 0.0
C1769 C 0.13626 0.03771 0.49531 0.0
C1770 C 0.17019 0.04549 0.50933 0.0
C1771 C 0.16954 0.06489 0.50181 0.0
C1772 C 0.15232 0.07053 0.49076 0.0
C1773 C 0.13581 0.05707 0.48801 0.0
C1774 C 0.18806 0.03908 0.52165 0.0
C1775 C 0.15118 0.09095 0.48208 0.0
C1776 C 0.19998 0.10837 0.52488 0.0
C1777 C 0.21593 0.1105 0.51228 0.0
C1778 C 0.18541 0.09287 0.52229 0.0
C1779 C 0.18638 0.07968 0.50621 0.0
C1780 C 0.20269 0.0816 0.49361 0.0
C1781 C 0.21751 0.09683 0.49703 0.0
C1782 C 0.16867 0.09095 0.53646 0.0
C1783 C 0.20393 0.06828 0.47592 0.0
H1784 H 0.15461 0.01711 0.51108 0.0
H1785 H 0.12238 0.06199 0.48042 0.0
H1786 H 0.20185 0.04094 0.51324 0.0
H1787 H 0.19029 0.04855 0.53499 0.0
H1788 H 0.18629 0.02345 0.52637 0.0
H1789 H 0.1376 0.09238 0.47223 0.0
H1790 H 0.15096 0.10202 0.49409 0.0
H1791 H 0.16461 0.09461 0.47352 0.0
H1792 H 0.19888 0.11894 0.53674 0.0
H1793 H 0.22977 0.09866 0.48718 0.0
H1794 H 0.16693 0.07554 0.5418 0.0
H1795 H 0.15431 0.09453 0.52879 0.0
H1796 H 0.17133 0.10095 0.5494 0.0
H1797 H 0.20261 0.05258 0.48038 0.0
H1798 H 0.21815 0.07092 0.4683 0.0
H1799 H 0.19122 0.07081 0.46528 0.0
C1800 C 0.72471 0.14457 0.76259 0.0
C1801 C 0.72723 0.15127 0.74327 0.0
C1802 C 0.71306 0.12733 0.76629 0.0
C1803 C 0.70341 0.11668 0.7503 0.0
C1804 C 0.70513 0.1238 0.73084 0.0
C1805 C 0.71715 0.14091 0.72754 0.0
C1806 C 0.71171 0.12012 0.78725 0.0
C1807 C 0.69488 0.11294 0.71343 0.0
C1808 C 0.69421 0.06167 0.75725 0.0
C1809 C 0.67403 0.0603 0.76206 0.0
C1810 C 0.70385 0.07992 0.75325 0.0
C1811 C 0.69297 0.09724 0.75381 0.0
C1812 C 0.67246 0.09595 0.75823 0.0
C1813 C 0.66324 0.07746 0.76247 0.0
C1814 C 0.72582 0.08069 0.74884 0.0
C1815 C 0.66033 0.11409 0.75863 0.0
H1816 H 0.73205 0.1527 0.77488 0.0
H1817 H 0.71914 0.1458 0.71253 0.0
H1818 H 0.69581 0.11767 0.79097 0.0
H1819 H 0.71882 0.10574 0.78878 0.0
H1820 H 0.71922 0.13065 0.7981 0.0
H1821 H 0.69594 0.1215 0.69955 0.0
H1822 H 0.70186 0.09865 0.71137 0.0
H1823 H 0.67883 0.10963 0.71615 0.0
H1824 H 0.70268 0.04848 0.75707 0.0
H1825 H 0.64762 0.07646 0.76612 0.0
H1826 H 0.7345 0.08997 0.76004 0.0
H1827 H 0.72807 0.0876 0.73426 0.0
H1828 H 0.73205 0.06583 0.74879 0.0
H1829 H 0.66661 0.12435 0.77033 0.0
H1830 H 0.64432 0.11047 0.76139 0.0
H1831 H 0.66122 0.12203 0.74439 0.0
C1832 C 0.40736 0.05514 0.50667 0.0
C1833 C 0.41221 0.04995 0.52627 0.0
C1834 C 0.39116 0.06695 0.50202 0.0
C1835 C 0.37963 0.07386 0.51734 0.0
C1836 C 0.38425 0.06841 0.53709 0.0
C1837 C 0.4004 0.05647 0.54129 0.0
C1838 C 0.38663 0.07238 0.48078 0.0
C1839 C 0.37235 0.07551 0.55387 0.0
C1840 C 0.35238 0.12128 0.51166 0.0
C1841 C 0.33231 0.11424 0.5093 0.0
C1842 C 0.36796 0.10827 0.51359 0.0
C1843 C 0.36343 0.08768 0.513 0.0
C1844 C 0.34332 0.08046 0.50968 0.0
C1845 C 0.32796 0.09384 0.50792 0.0
C1846 C 0.38921 0.11658 0.51714 0.0
C1847 C 0.33794 0.0586 0.50874 0.0
H1848 H 0.41649 0.05031 0.49498 0.0
H1849 H 0.40376 0.0522 0.55642 0.0
H1850 H 0.37064 0.0687 0.47663 0.0
H1851 H 0.38923 0.08852 0.47886 0.0
H1852 H 0.39608 0.06468 0.47048 0.0
H1853 H 0.37752 0.06949 0.56833 0.0
H1854 H 0.37366 0.09185 0.5547 0.0
H1855 H 0.35624 0.07116 0.55122 0.0
H1856 H 0.35592 0.13701 0.51265 0.0
H1857 H 0.31251 0.08827 0.50602 0.0
H1858 H 0.39917 0.11026 0.50642 0.0
H1859 H 0.39487 0.11243 0.53211 0.0
H1860 H 0.39037 0.13291 0.51593 0.0
H1861 H 0.34741 0.05128 0.49821 0.0
H1862 H 0.32193 0.0554 0.5042 0.0
H1863 H 0.3409 0.05195 0.52344 0.0
C1864 C 0.63344 0.47345 0.49023 0.0
C1865 C 0.61515 0.46453 0.4958 0.0
C1866 C 0.65111 0.46313 0.49124 0.0
C1867 C 0.65056 0.4435 0.49824 0.0
C1868 C 0.63214 0.43431 0.50363 0.0
C1869 C 0.61465 0.44489 0.50224 0.0
C1870 C 0.67045 0.47338 0.48525 0.0
C1871 C 0.63097 0.41341 0.51125 0.0
C1872 C 0.69216 0.40895 0.48919 0.0
C1873 C 0.70285 0.4096 0.50748 0.0
C1874 C 0.67552 0.42049 0.48567 0.0
C1875 C 0.66936 0.43282 0.50086 0.0
C1876 C 0.68058 0.43415 0.51905 0.0
C1877 C 0.69725 0.42262 0.5221 0.0
C1878 C 0.66411 0.41895 0.46597 0.0
C1879 C 0.67446 0.44708 0.53564 0.0
H1880 H 0.63407 0.4887 0.48551 0.0
H1881 H 0.60056 0.43777 0.50625 0.0
H1882 H 0.681 0.4752 0.49829 0.0
H1883 H 0.67773 0.46428 0.47432 0.0
H1884 H 0.66808 0.48815 0.47878 0.0
H1885 H 0.61542 0.40826 0.5144 0.0
H1886 H 0.63682 0.40326 0.50032 0.0
H1887 H 0.64049 0.4124 0.525 0.0
H1888 H 0.69645 0.39901 0.47778 0.0
H1889 H 0.70541 0.42326 0.53627 0.0
H1890 H 0.66207 0.43385 0.45974 0.0
H1891 H 0.64897 0.41199 0.46792 0.0
H1892 H 0.67183 0.41005 0.45516 0.0
H1893 H 0.67293 0.46243 0.53043 0.0
H1894 H 0.68539 0.44727 0.54848 0.0
H1895 H 0.65961 0.44167 0.54066 0.0
C1896 C 0.74129 0.28483 0.36586 0.0
C1897 C 0.72361 0.27362 0.36091 0.0
C1898 C 0.74349 0.29545 0.38363 0.0
C1899 C 0.72773 0.29454 0.39688 0.0
C1900 C 0.70945 0.28404 0.39148 0.0
C1901 C 0.70756 0.27379 0.37345 0.0
C1902 C 0.76309 0.30675 0.38868 0.0
C1903 C 0.69238 0.28255 0.40528 0.0
C1904 C 0.74445 0.29816 0.4509 0.0
C1905 C 0.74006 0.31754 0.45564 0.0
C1906 C 0.74007 0.29044 0.43196 0.0
C1907 C 0.73134 0.30247 0.41724 0.0
C1908 C 0.72672 0.32202 0.4219 0.0
C1909 C 0.73099 0.32929 0.44113 0.0
C1910 C 0.74498 0.26942 0.42766 0.0
C1911 C 0.71766 0.33533 0.4065 0.0
H1912 H 0.75362 0.28487 0.35602 0.0
H1913 H 0.69391 0.26503 0.36965 0.0
H1914 H 0.76035 0.32177 0.39407 0.0
H1915 H 0.77134 0.2991 0.40072 0.0
H1916 H 0.77278 0.30806 0.37584 0.0
H1917 H 0.67844 0.27583 0.39801 0.0
H1918 H 0.69664 0.27333 0.41814 0.0
H1919 H 0.68922 0.29732 0.41102 0.0
H1920 H 0.75126 0.28891 0.46207 0.0
H1921 H 0.72763 0.34431 0.44468 0.0
H1922 H 0.75632 0.26922 0.41625 0.0
H1923 H 0.73139 0.26095 0.42172 0.0
H1924 H 0.75091 0.26176 0.44098 0.0
H1925 H 0.72813 0.3377 0.39441 0.0
H1926 H 0.71432 0.34992 0.41266 0.0
H1927 H 0.7036 0.32828 0.39987 0.0
C1928 C 0.54772 0.01311 0.88221 0.0
C1929 C 0.52699 0.00854 0.8811 0.0
C1930 C 0.55949 0.01038 0.86597 0.0
C1931 C 0.55047 0.00239 0.84824 0.0
C1932 C 0.52978 0.99678 0.84728 0.0
C1933 C 0.51823 0.00011 0.86364 0.0
C1934 C 0.58149 0.01673 0.86759 0.0
C1935 C 0.51971 0.98783 0.82877 0.0
C1936 C 0.57742 0.01829 0.8026 0.0
C1937 C 0.59024 0.00282 0.80019 0.0
C1938 C 0.56375 0.01791 0.81765 0.0
C1939 C 0.56254 0.00145 0.8304 0.0
C1940 C 0.5744 0.98515 0.82717 0.0
C1941 C 0.58829 0.9861 0.81221 0.0
C1942 C 0.55157 0.03572 0.82071 0.0
C1943 C 0.57313 0.96711 0.8401 0.0
H1944 H 0.55479 0.01907 0.89577 0.0
H1945 H 0.50223 0.99661 0.86252 0.0
H1946 H 0.59072 0.00421 0.86395 0.0
H1947 H 0.58468 0.02862 0.8568 0.0
H1948 H 0.5863 0.02224 0.88257 0.0
H1949 H 0.50421 0.98198 0.8312 0.0
H1950 H 0.51905 0.99916 0.81703 0.0
H1951 H 0.52849 0.97569 0.82328 0.0
H1952 H 0.57876 0.03127 0.79337 0.0
H1953 H 0.59802 0.97401 0.81033 0.0
H1954 H 0.55647 0.04297 0.83492 0.0
H1955 H 0.53547 0.03121 0.82159 0.0
H1956 H 0.5532 0.04671 0.80871 0.0
H1957 H 0.58001 0.97073 0.85493 0.0
H1958 H 0.58101 0.95465 0.83391 0.0
H1959 H 0.55725 0.96226 0.84206 0.0
C1960 C 0.29062 0.21664 0.37593 0.0
C1961 C 0.27517 0.21466 0.36131 0.0
C1962 C 0.28906 0.20687 0.39404 0.0
C1963 C 0.2718 0.19456 0.3974 0.0
C1964 C 0.25682 0.19148 0.38212 0.0
C1965 C 0.25858 0.20177 0.36432 0.0
C1966 C 0.30521 0.2108 0.41005 0.0
C1967 C 0.23842 0.17816 0.38494 0.0
C1968 C 0.27272 0.16239 0.44333 0.0
C1969 C 0.26237 0.17375 0.45641 0.0
C1970 C 0.27556 0.1687 0.42388 0.0
C1971 C 0.26826 0.18698 0.41756 0.0
C1972 C 0.25772 0.19842 0.43068 0.0
C1973 C 0.25474 0.19158 0.44983 0.0
C1974 C 0.28647 0.15593 0.41015 0.0
C1975 C 0.24993 0.21814 0.42463 0.0
H1976 H 0.30338 0.22673 0.37362 0.0
H1977 H 0.24672 0.20015 0.3529 0.0
H1978 H 0.29913 0.21949 0.42207 0.0
H1979 H 0.31007 0.19675 0.41655 0.0
H1980 H 0.31851 0.21913 0.40449 0.0
H1981 H 0.2297 0.17515 0.37084 0.0
H1982 H 0.24266 0.16392 0.39152 0.0
H1983 H 0.22857 0.1852 0.39531 0.0
H1984 H 0.27858 0.14855 0.44829 0.0
H1985 H 0.24688 0.20055 0.45986 0.0
H1986 H 0.30049 0.16382 0.40577 0.0
H1987 H 0.27711 0.15284 0.39646 0.0
H1988 H 0.29033 0.14168 0.41701 0.0
H1989 H 0.26252 0.22819 0.42017 0.0
H1990 H 0.24223 0.22531 0.43668 0.0
H1991 H 0.23926 0.21627 0.41169 0.0
C1992 C 0.49718 0.51335 0.87348 0.0
C1993 C 0.48885 0.50592 0.89073 0.0
C1994 C 0.48559 0.51448 0.85581 0.0
C1995 C 0.46517 0.50781 0.85523 0.0
C1996 C 0.45651 0.50065 0.87263 0.0
C1997 C 0.46844 0.49984 0.8902 0.0
C1998 C 0.49541 0.52225 0.83757 0.0
C1999 C 0.43482 0.49335 0.87258 0.0
C2000 C 0.43428 0.52358 0.81001 0.0
C2001 C 0.43612 0.50754 0.79727 0.0
C2002 C 0.44293 0.52359 0.82931 0.0
C2003 C 0.45345 0.50709 0.83602 0.0
C2004 C 0.4543 0.49042 0.82359 0.0
C2005 C 0.44572 0.49089 0.80438 0.0
C2006 C 0.44177 0.54166 0.8421 0.0
C2007 C 0.46512 0.47242 0.83025 0.0
H2008 H 0.51298 0.51778 0.8736 0.0
H2009 H 0.46178 0.49435 0.9035 0.0
H2010 H 0.49569 0.51025 0.82648 0.0
H2011 H 0.48664 0.53414 0.83081 0.0
H2012 H 0.51102 0.52813 0.8408 0.0
H2013 H 0.43002 0.48942 0.88758 0.0
H2014 H 0.42503 0.50476 0.86641 0.0
H2015 H 0.43245 0.48013 0.86296 0.0
H2016 H 0.42691 0.53651 0.80463 0.0
H2017 H 0.44699 0.47832 0.79471 0.0
H2018 H 0.45686 0.54918 0.84399 0.0
H2019 H 0.43692 0.53745 0.857 0.0
H2020 H 0.43125 0.5523 0.83561 0.0
H2021 H 0.48143 0.47622 0.83208 0.0
H2022 H 0.46281 0.46002 0.81954 0.0
H2023 H 0.45995 0.46734 0.84477 0.0
C2024 C 0.76099 0.74298 0.13482 0.0
C2025 C 0.74174 0.74785 0.13992 0.0
C2026 C 0.7637 0.72843 0.12064 0.0
C2027 C 0.74676 0.71811 0.11162 0.0
C2028 C 0.72732 0.72222 0.11737 0.0
C2029 C 0.72503 0.73718 0.13129 0.0
C2030 C 0.78468 0.72463 0.11478 0.0
C2031 C 0.70892 0.71127 0.10833 0.0
C2032 C 0.75378 0.69876 0.06015 0.0
C2033 C 0.75861 0.67921 0.06388 0.0
C2034 C 0.74938 0.7114 0.07553 0.0
C2035 C 0.74943 0.70422 0.09509 0.0
C2036 C 0.75333 0.68422 0.09885 0.0
C2037 C 0.75811 0.67198 0.0832 0.0
C2038 C 0.74561 0.7327 0.07092 0.0
C2039 C 0.75303 0.67593 0.11946 0.0
H2040 H 0.77404 0.75071 0.14176 0.0
H2041 H 0.71007 0.74088 0.13493 0.0
H2042 H 0.78761 0.70878 0.11652 0.0
H2043 H 0.78625 0.72834 0.09899 0.0
H2044 H 0.79629 0.73345 0.12367 0.0
H2045 H 0.69515 0.71454 0.11602 0.0
H2046 H 0.70681 0.71547 0.09262 0.0
H2047 H 0.7108 0.69512 0.10877 0.0
H2048 H 0.75424 0.70448 0.04527 0.0
H2049 H 0.76172 0.65685 0.08613 0.0
H2050 H 0.75752 0.74243 0.07831 0.0
H2051 H 0.73111 0.73672 0.07669 0.0
H2052 H 0.74534 0.73575 0.05483 0.0
H2053 H 0.76569 0.68276 0.12864 0.0
H2054 H 0.75427 0.65968 0.11961 0.0
H2055 H 0.739 0.67954 0.12647 0.0
C2056 C 0.98694 0.01259 0.11432 0.0
C2057 C 0.97726 0.00648 0.09647 0.0
C2058 C 0.97605 0.01517 0.13121 0.0
C2059 C 0.95505 0.01104 0.13029 0.0
C2060 C 0.9453 0.00428 0.11239 0.0
C2061 C 0.95652 0.00238 0.09555 0.0
C2062 C 0.98694 0.02286 0.14987 0.0
C2063 C 0.92304 0.99922 0.11099 0.0
C2064 C 0.93262 0.00407 0.18031 0.0
C2065 C 0.92492 0.02256 0.1834 0.0
C2066 C 0.94157 -0.00027 0.16261 0.0
C2067 C 0.94334 0.01447 0.14797 0.0
C2068 C 0.93511 0.03302 0.15086 0.0
C2069 C 0.9257 0.03672 0.16845 0.0
C2070 C 0.94958 0.97957 0.1598 0.0
C2071 C 0.93709 0.04928 0.13581 0.0
H2072 H 0.00298 0.01596 0.11486 0.0
H2073 H 0.94912 0.99764 0.08167 0.0
H2074 H 0.98067 0.03692 0.15437 0.0
H2075 H 0.98474 0.01222 0.16206 0.0
H2076 H 0.00328 0.02548 0.14807 0.0
H2077 H 0.91801 0.99285 0.0964 0.0
H2078 H 0.91896 0.98851 0.12265 0.0
H2079 H 0.91471 0.01266 0.11348 0.0
H2080 H 0.93166 0.99297 0.19171 0.0
H2081 H 0.9198 0.05107 0.1709 0.0
H2082 H 0.96617 0.9808 0.15977 0.0
H2083 H 0.94407 0.97327 0.14533 0.0
H2084 H 0.94514 0.96915 0.17163 0.0
H2085 H 0.95318 0.05358 0.13428 0.0
H2086 H 0.92919 0.06258 0.13995 0.0
H2087 H 0.931 0.04404 0.12115 0.0
C2088 C 0.28793 0.77424 0.12986 0.0
C2089 C 0.29803 0.78365 0.14615 0.0
C2090 C 0.28218 0.78485 0.11305 0.0
C2091 C 0.28722 0.80531 0.11214 0.0
C2092 C 0.29832 0.81477 0.12803 0.0
C2093 C 0.30339 0.80388 0.14497 0.0
C2094 C 0.27015 0.77423 0.09649 0.0
C2095 C 0.30442 0.83646 0.12734 0.0
C2096 C 0.28232 0.82574 0.0603 0.0
C2097 C 0.26338 0.83362 0.06033 0.0
C2098 C 0.29091 0.81758 0.07748 0.0
C2099 C 0.27996 0.81678 0.09485 0.0
C2100 C 0.26111 0.82536 0.09509 0.0
C2101 C 0.25318 0.83396 0.07786 0.0
C2102 C 0.31135 0.8092 0.07685 0.0
C2103 C 0.24877 0.82444 0.11318 0.0
H2104 H 0.28426 0.75852 0.13031 0.0
H2105 H 0.31107 0.81136 0.15747 0.0
H2106 H 0.25548 0.781 0.09409 0.0
H2107 H 0.2781 0.77574 0.08255 0.0
H2108 H 0.26739 0.75828 0.09956 0.0
H2109 H 0.31487 0.84109 0.13989 0.0
H2110 H 0.31173 0.84004 0.11334 0.0
H2111 H 0.29094 0.84528 0.12777 0.0
H2112 H 0.29041 0.8259 0.04684 0.0
H2113 H 0.23849 0.84005 0.07782 0.0
H2114 H 0.30988 0.79288 0.07769 0.0
H2115 H 0.321 0.81446 0.08972 0.0
H2116 H 0.31895 0.81331 0.06312 0.0
H2117 H 0.24441 0.80882 0.11642 0.0
H2118 H 0.23494 0.83277 0.11129 0.0
H2119 H 0.25771 0.83043 0.1262 0.0
C2120 C 0.05434 0.46703 0.13972 0.0
C2121 C 0.04579 0.48259 0.12931 0.0
C2122 C 0.06775 0.47065 0.15599 0.0
C2123 C 0.07264 0.49032 0.1621 0.0
C2124 C 0.06345 0.50607 0.15217 0.0
C2125 C 0.05018 0.50202 0.13586 0.0
C2126 C 0.07721 0.45345 0.16619 0.0
C2127 C 0.06823 0.52724 0.1583 0.0
C2128 C 0.09894 0.49838 0.21262 0.0
C2129 C 0.11908 0.50084 0.20772 0.0
C2130 C 0.08358 0.49525 0.19793 0.0
C2131 C 0.0885 0.49445 0.17789 0.0
C2132 C 0.10874 0.49711 0.17283 0.0
C2133 C 0.12375 0.50032 0.18777 0.0
C2134 C 0.06214 0.49261 0.20385 0.0
C2135 C 0.11462 0.49628 0.15163 0.0
H2136 H 0.05073 0.45195 0.135 0.0
H2137 H 0.0438 0.51415 0.12781 0.0
H2138 H 0.0936 0.4543 0.16416 0.0
H2139 H 0.07504 0.45407 0.18228 0.0
H2140 H 0.07091 0.43901 0.1604 0.0
H2141 H 0.05849 0.53762 0.15024 0.0
H2142 H 0.06646 0.52905 0.17436 0.0
H2143 H 0.08407 0.53139 0.15538 0.0
H2144 H 0.09514 0.49881 0.22797 0.0
H2145 H 0.13922 0.50218 0.18375 0.0
H2146 H 0.05589 0.47774 0.19934 0.0
H2147 H 0.05283 0.50354 0.19614 0.0
H2148 H 0.06073 0.4943 0.22001 0.0
H2149 H 0.11008 0.48159 0.14521 0.0
H2150 H 0.131 0.49898 0.15014 0.0
H2151 H 0.10666 0.50743 0.14276 0.0
C2152 C 0.39343 0.75167 0.30463 0.0
C2153 C 0.38758 0.73229 0.29892 0.0
C2154 C 0.4099 0.75555 0.31789 0.0
C2155 C 0.42081 0.73968 0.32548 0.0
C2156 C 0.41535 0.72015 0.31925 0.0
C2157 C 0.39876 0.71669 0.30609 0.0
C2158 C 0.41522 0.77655 0.32429 0.0
C2159 C 0.42673 0.70285 0.32685 0.0
C2160 C 0.47266 0.74885 0.3501 0.0
C2161 C 0.46849 0.74744 0.37015 0.0
C2162 C 0.45725 0.74674 0.33536 0.0
C2163 C 0.43721 0.74327 0.3408 0.0
C2164 C 0.43285 0.74235 0.36099 0.0
C2165 C 0.44852 0.74439 0.3754 0.0
C2166 C 0.46247 0.74773 0.31396 0.0
C2167 C 0.41163 0.7388 0.36739 0.0
H2168 H 0.38473 0.76374 0.29922 0.0
H2169 H 0.39445 0.70172 0.30146 0.0
H2170 H 0.41286 0.77816 0.34027 0.0
H2171 H 0.43129 0.78032 0.32206 0.0
H2172 H 0.40606 0.78732 0.31609 0.0
H2173 H 0.42127 0.68874 0.31968 0.0
H2174 H 0.44293 0.70531 0.32432 0.0
H2175 H 0.42518 0.70142 0.343 0.0
H2176 H 0.48803 0.75118 0.34587 0.0
H2177 H 0.44509 0.74342 0.39083 0.0
H2178 H 0.45359 0.7589 0.30609 0.0
H2179 H 0.45856 0.7333 0.30671 0.0
H2180 H 0.47864 0.75148 0.31218 0.0
H2181 H 0.40185 0.74994 0.36067 0.0
H2182 H 0.41066 0.73944 0.38367 0.0
H2183 H 0.40561 0.72409 0.36215 0.0
C2184 C 0.97999 0.39271 0.96119 0.0
C2185 C 0.99558 0.40413 0.97086 0.0
C2186 C 0.98382 0.37535 0.95107 0.0
C2187 C 0.00365 0.36903 0.9509 0.0
C2188 C 0.01958 0.38097 0.95972 0.0
C2189 C 0.01537 0.39846 0.96941 0.0
C2190 C 0.96645 0.36319 0.94155 0.0
C2191 C 0.04092 0.37468 0.96 0.0
C2192 C 0.00826 0.31364 0.94992 0.0
C2193 C 0.01303 0.31023 0.93034 0.0
C2194 C 0.00559 0.33274 0.9568 0.0
C2195 C 0.00736 0.34888 0.9437 0.0
C2196 C 0.01226 0.3456 0.92392 0.0
C2197 C 0.01525 0.32629 0.9175 0.0
C2198 C 0.00076 0.33563 0.97812 0.0
C2199 C 0.01391 0.36241 0.90946 0.0
H2200 H 0.96463 0.39677 0.9623 0.0
H2201 H 0.0276 0.40742 0.97637 0.0
H2202 H 0.97003 0.35848 0.92651 0.0
H2203 H 0.9636 0.34965 0.95033 0.0
H2204 H 0.9525 0.37141 0.94055 0.0
H2205 H 0.05179 0.38651 0.96564 0.0
H2206 H 0.04239 0.36156 0.96959 0.0
H2207 H 0.04501 0.37037 0.945 0.0
H2208 H 0.00672 0.30132 0.95997 0.0
H2209 H 0.01883 0.32371 0.90233 0.0
H2210 H 0.9858 0.34185 0.97893 0.0
H2211 H 0.01186 0.34632 0.98537 0.0
H2212 H 0.00074 0.32162 0.98657 0.0
H2213 H 0.99929 0.36938 0.90766 0.0
H2214 H 0.01837 0.35748 0.89475 0.0
H2215 H 0.02504 0.37393 0.91518 0.0
C2216 C 0.64267 0.80814 0.29172 0.0
C2217 C 0.63798 0.80264 0.27205 0.0
C2218 C 0.62902 0.80422 0.30648 0.0
C2219 C 0.6103 0.79439 0.30149 0.0
C2220 C 0.60504 0.78974 0.28152 0.0
C2221 C 0.61891 0.794 0.26703 0.0
C2222 C 0.63514 0.80955 0.32759 0.0
C2223 C 0.58523 0.77922 0.2756 0.0
C2224 C 0.58928 0.76111 0.34105 0.0
C2225 C 0.57432 0.77238 0.34851 0.0
C2226 C 0.60078 0.76802 0.32554 0.0
C2227 C 0.59742 0.78679 0.31736 0.0
C2228 C 0.5822 0.7982 0.32464 0.0
C2229 C 0.57072 0.79081 0.34011 0.0
C2230 C 0.61672 0.75527 0.31806 0.0
C2231 C 0.57831 0.81834 0.31636 0.0
H2232 H 0.6574 0.81467 0.29581 0.0
H2233 H 0.61499 0.79008 0.2518 0.0
H2234 H 0.62295 0.81703 0.33468 0.0
H2235 H 0.63789 0.79591 0.33606 0.0
H2236 H 0.64898 0.81933 0.3287 0.0
H2237 H 0.58248 0.77867 0.25933 0.0
H2238 H 0.58506 0.76388 0.28124 0.0
H2239 H 0.57271 0.78659 0.28223 0.0
H2240 H 0.59206 0.74679 0.34735 0.0
H2241 H 0.5592 0.7996 0.34585 0.0
H2242 H 0.63169 0.76296 0.32032 0.0
H2243 H 0.61414 0.75263 0.30199 0.0
H2244 H 0.617 0.74078 0.32562 0.0
H2245 H 0.59186 0.82831 0.31889 0.0
H2246 H 0.56548 0.82507 0.32316 0.0
H2247 H 0.57522 0.81735 0.30018 0.0
C2248 C 1.00001 0.11279 0.94511 0.0
C2249 C 0.01718 0.10491 0.95396 0.0
C2250 C 0.001 0.13143 0.93615 0.0
C2251 C 0.01955 0.14246 0.93626 0.0
C2252 C 0.03698 0.13439 0.94484 0.0
C2253 C 0.03559 0.1157 0.95354 0.0
C2254 C 0.98215 0.1395 0.92692 0.0
C2255 C 0.05702 0.14576 0.94541 0.0
C2256 C 0.02888 0.18556 0.90176 0.0
C2257 C 0.02671 0.2017 0.91428 0.0
C2258 C 0.02584 0.16615 0.90848 0.0
C2259 C 0.02072 0.16283 0.92824 0.0
C2260 C 0.01802 0.17906 0.9408 0.0
C2261 C 0.02098 0.1983 0.93364 0.0
C2262 C 0.02866 0.1492 0.89461 0.0
C2263 C 0.0127 0.17611 0.96202 0.0
H2264 H 0.98579 0.10441 0.94529 0.0
H2265 H 0.04885 0.10981 0.96064 0.0
H2266 H 0.9783 0.15286 0.93508 0.0
H2267 H 0.9846 0.14398 0.91147 0.0
H2268 H 0.9692 0.12859 0.927 0.0
H2269 H 0.06926 0.13709 0.95202 0.0
H2270 H 0.06096 0.15015 0.93028 0.0
H2271 H 0.05615 0.15949 0.95415 0.0
H2272 H 0.03319 0.18809 0.88673 0.0
H2273 H 0.01936 0.2107 0.94343 0.0
H2274 H 0.01539 0.13869 0.89444 0.0
H2275 H 0.04181 0.141 0.89984 0.0
H2276 H 0.03104 0.15424 0.8793 0.0
H2277 H 0.99901 0.16627 0.96282 0.0
H2278 H 0.01011 0.19025 0.96953 0.0
H2279 H 0.025 0.16884 0.97023 0.0
C2280 C 0.38087 0.25117 0.21354 0.0
C2281 C 0.37475 0.269 0.22115 0.0
C2282 C 0.39506 0.25097 0.19895 0.0
C2283 C 0.40337 0.26904 0.19181 0.0
C2284 C 0.39776 0.28707 0.19989 0.0
C2285 C 0.38349 0.28684 0.21444 0.0
C2286 C 0.40058 0.23142 0.19066 0.0
C2287 C 0.4064 0.30662 0.19276 0.0
C2288 C 0.44988 0.26556 0.16199 0.0
C2289 C 0.44151 0.26481 0.14264 0.0
C2290 C 0.43776 0.26763 0.17818 0.0
C2291 C 0.41681 0.26897 0.17492 0.0
C2292 C 0.40842 0.26907 0.15539 0.0
C2293 C 0.42086 0.26701 0.13952 0.0
C2294 C 0.44726 0.26762 0.19879 0.0
C2295 C 0.38616 0.27055 0.15126 0.0
H2296 H 0.37402 0.23735 0.21849 0.0
H2297 H 0.37902 0.30066 0.22047 0.0
H2298 H 0.39552 0.23032 0.17488 0.0
H2299 H 0.41709 0.23033 0.19144 0.0
H2300 H 0.39371 0.21869 0.19863 0.0
H2301 H 0.40168 0.31922 0.2016 0.0
H2302 H 0.42301 0.30674 0.1934 0.0
H2303 H 0.40146 0.30884 0.17713 0.0
H2304 H 0.46582 0.26391 0.16456 0.0
H2305 H 0.41425 0.26658 0.12463 0.0
H2306 H 0.44215 0.25405 0.20658 0.0
H2307 H 0.44249 0.28037 0.20734 0.0
H2308 H 0.46389 0.26822 0.1988 0.0
H2309 H 0.37801 0.25741 0.15725 0.0
H2310 H 0.38217 0.27155 0.13523 0.0
H2311 H 0.38081 0.2837 0.15874 0.0
C2312 C 0.50616 0.38446 0.03093 0.0
C2313 C 0.52515 0.39367 0.02838 0.0
C2314 C 0.50404 0.36622 0.04052 0.0
C2315 C 0.52127 0.35717 0.04831 0.0
C2316 C 0.54037 0.36689 0.04687 0.0
C2317 C 0.54212 0.38486 0.03671 0.0
C2318 C 0.48341 0.35622 0.04147 0.0
C2319 C 0.55907 0.35792 0.05536 0.0
C2320 C 0.51278 0.31376 0.08302 0.0
C2321 C 0.5147 0.29771 0.07032 0.0
C2322 C 0.51541 0.33326 0.07625 0.0
C2323 C 0.51947 0.33672 0.0562 0.0
C2324 C 0.52137 0.32054 0.04336 0.0
C2325 C 0.51922 0.30128 0.05063 0.0
C2326 C 0.51384 0.35015 0.09049 0.0
C2327 C 0.52522 0.32355 0.02178 0.0
H2328 H 0.49288 0.39132 0.0251 0.0
H2329 H 0.55691 0.3916 0.03473 0.0
H2330 H 0.48272 0.34233 0.03274 0.0
H2331 H 0.48029 0.35219 0.05689 0.0
H2332 H 0.47144 0.36566 0.03562 0.0
H2333 H 0.57232 0.36847 0.05538 0.0
H2334 H 0.55686 0.3529 0.0707 0.0
H2335 H 0.56232 0.34478 0.04654 0.0
H2336 H 0.5094 0.31106 0.09828 0.0
H2337 H 0.52052 0.28895 0.04068 0.0
H2338 H 0.50108 0.35913 0.08581 0.0
H2339 H 0.52761 0.35998 0.09044 0.0
H2340 H 0.51166 0.34498 0.10581 0.0
H2341 H 0.51311 0.332 0.01466 0.0
H2342 H 0.52604 0.30938 0.01371 0.0
H2343 H 0.5395 0.33231 0.02019 0.0
C2344 C 0.61872 0.24452 0.20251 0.0
C2345 C 0.62352 0.22615 0.21036 0.0
C2346 C 0.60379 0.24598 0.18744 0.0
C2347 C 0.59331 0.22866 0.1801 0.0
C2348 C 0.59795 0.21008 0.18808 0.0
C2349 C 0.61305 0.20905 0.20307 0.0
C2350 C 0.5994 0.26604 0.1792 0.0
C2351 C 0.58701 0.1913 0.18072 0.0
C2352 C 0.54323 0.23412 0.15226 0.0
C2353 C 0.54859 0.23286 0.13255 0.0
C2354 C 0.55759 0.23265 0.16789 0.0
C2355 C 0.57783 0.22996 0.16374 0.0
C2356 C 0.58335 0.2287 0.14392 0.0
C2357 C 0.56869 0.23011 0.12859 0.0
C2358 C 0.55112 0.23398 0.18885 0.0
C2359 C 0.6048 0.22595 0.13889 0.0
H2360 H 0.62694 0.25776 0.20791 0.0
H2361 H 0.61655 0.19484 0.20924 0.0
H2362 H 0.60231 0.26647 0.16325 0.0
H2363 H 0.58335 0.2689 0.18066 0.0
H2364 H 0.60865 0.2781 0.18677 0.0
H2365 H 0.5921 0.17809 0.18877 0.0
H2366 H 0.57066 0.19226 0.18236 0.0
H2367 H 0.58937 0.18928 0.16478 0.0
H2368 H 0.52776 0.23619 0.15552 0.0
H2369 H 0.57305 0.22916 0.11345 0.0
H2370 H 0.55926 0.24664 0.19651 0.0
H2371 H 0.55499 0.22046 0.19705 0.0
H2372 H 0.53476 0.23581 0.18961 0.0
H2373 H 0.61463 0.23832 0.14509 0.0
H2374 H 0.60664 0.22523 0.12272 0.0
H2375 H 0.61009 0.21216 0.14563 0.0
C2376 C 0.48716 0.0979 0.04731 0.0
C2377 C 0.47988 0.09798 0.02764 0.0
C2378 C 0.48995 0.11556 0.05814 0.0
C2379 C 0.48472 0.13354 0.04919 0.0
C2380 C 0.47744 0.13363 0.02925 0.0
C2381 C 0.47536 0.11584 0.01864 0.0
C2382 C 0.49827 0.11496 0.07917 0.0
C2383 C 0.47125 0.1524 0.01931 0.0
C2384 C 0.4702 0.17581 0.08134 0.0
C2385 C 0.48672 0.18917 0.0799 0.0
C2386 C 0.4695 0.15749 0.07167 0.0
C2387 C 0.486 0.1522 0.06081 0.0
C2388 C 0.50314 0.16526 0.06013 0.0
C2389 C 0.50318 0.18375 0.06945 0.0
C2390 C 0.45074 0.14419 0.07238 0.0
C2391 C 0.52127 0.15987 0.04921 0.0
H2392 H 0.49072 0.08401 0.05417 0.0
H2393 H 0.46957 0.11578 0.00345 0.0
H2394 H 0.51131 0.12566 0.08125 0.0
H2395 H 0.48677 0.11937 0.08935 0.0
H2396 H 0.50303 0.10005 0.08343 0.0
H2397 H 0.46592 0.14992 0.00372 0.0
H2398 H 0.45906 0.15879 0.02741 0.0
H2399 H 0.48402 0.16348 0.01967 0.0
H2400 H 0.4574 0.18005 0.08932 0.0
H2401 H 0.51609 0.19393 0.06858 0.0
H2402 H 0.45447 0.12942 0.07797 0.0
H2403 H 0.44389 0.14211 0.05727 0.0
H2404 H 0.43945 0.15026 0.08191 0.0
H2405 H 0.52609 0.14513 0.05394 0.0
H2406 H 0.53407 0.17081 0.05169 0.0
H2407 H 0.5174 0.15898 0.03316 0.0
C2408 C 0.29884 0.40216 0.74665 0.0
C2409 C 0.29091 0.39549 0.72821 0.0
C2410 C 0.3147 0.41653 0.74809 0.0
C2411 C 0.32267 0.4245 0.73067 0.0
C2412 C 0.31441 0.41813 0.71202 0.0
C2413 C 0.29868 0.40364 0.71102 0.0
C2414 C 0.32322 0.42287 0.76823 0.0
C2415 C 0.32236 0.42643 0.69312 0.0
C2416 C 0.35342 0.47313 0.73355 0.0
C2417 C 0.37307 0.46678 0.73331 0.0
C2418 C 0.33687 0.45954 0.7328 0.0
C2419 C 0.34002 0.4391 0.7319 0.0
C2420 C 0.35979 0.43258 0.73182 0.0
C2421 C 0.37606 0.44648 0.73247 0.0
C2422 C 0.316 0.46704 0.73279 0.0
C2423 C 0.36374 0.41089 0.73097 0.0
H2424 H 0.29299 0.39575 0.75996 0.0
H2425 H 0.2924 0.39868 0.69674 0.0
H2426 H 0.33917 0.41913 0.76987 0.0
H2427 H 0.32276 0.43909 0.7699 0.0
H2428 H 0.31494 0.41568 0.78033 0.0
H2429 H 0.3138 0.42042 0.67984 0.0
H2430 H 0.32171 0.44273 0.69309 0.0
H2431 H 0.3383 0.42298 0.69205 0.0
H2432 H 0.35092 0.48876 0.73416 0.0
H2433 H 0.39115 0.4414 0.73236 0.0
H2434 H 0.30791 0.46071 0.7454 0.0
H2435 H 0.3074 0.46221 0.71911 0.0
H2436 H 0.3161 0.48339 0.73376 0.0
H2437 H 0.35685 0.40308 0.74351 0.0
H2438 H 0.38001 0.40822 0.73147 0.0
H2439 H 0.35674 0.40427 0.71721 0.0
C2440 C 0.28371 0.62714 0.74035 0.0
C2441 C 0.27497 0.63087 0.75829 0.0
C2442 C 0.29984 0.61474 0.73947 0.0
C2443 C 0.30752 0.60597 0.75697 0.0
C2444 C 0.29834 0.60913 0.775 0.0
C2445 C 0.28213 0.62144 0.77542 0.0
C2446 C 0.30912 0.6116 0.71992 0.0
C2447 C 0.30608 0.60005 0.79398 0.0
C2448 C 0.34191 0.5634 0.75221 0.0
C2449 C 0.36091 0.57316 0.75415 0.0
C2450 C 0.32436 0.57383 0.7533 0.0
C2451 C 0.32587 0.59446 0.7566 0.0
C2452 C 0.34501 0.60428 0.75915 0.0
C2453 C 0.36228 0.59353 0.75781 0.0
C2454 C 0.30423 0.56286 0.75041 0.0
C2455 C 0.34726 0.62623 0.76294 0.0
H2456 H 0.27844 0.63449 0.72708 0.0
H2457 H 0.27523 0.62393 0.78929 0.0
H2458 H 0.32461 0.61831 0.7204 0.0
H2459 H 0.31012 0.59561 0.71699 0.0
H2460 H 0.30046 0.61821 0.70746 0.0
H2461 H 0.29659 0.60305 0.80655 0.0
H2462 H 0.30677 0.58385 0.79223 0.0
H2463 H 0.32155 0.60602 0.79768 0.0
H2464 H 0.3407 0.54766 0.74931 0.0
H2465 H 0.37689 0.60118 0.75942 0.0
H2466 H 0.29618 0.56845 0.73707 0.0
H2467 H 0.29487 0.56551 0.76313 0.0
H2468 H 0.30561 0.54671 0.74871 0.0
H2469 H 0.34063 0.63428 0.75022 0.0
H2470 H 0.36318 0.63151 0.76533 0.0
H2471 H 0.339 0.63009 0.7761 0.0
C2472 C 0.87 0.43883 0.45887 0.0
C2473 C 0.88258 0.44764 0.47386 0.0
C2474 C 0.85371 0.42602 0.46337 0.0
C2475 C 0.84987 0.42196 0.48333 0.0
C2476 C 0.86225 0.43111 0.49854 0.0
C2477 C 0.87848 0.44379 0.49362 0.0
C2478 C 0.84082 0.41656 0.44674 0.0
C2479 C 0.85865 0.42715 0.52001 0.0
C2480 C 0.79877 0.39967 0.49614 0.0
C2481 C 0.80271 0.37966 0.49841 0.0
C2482 C 0.81394 0.41362 0.49117 0.0
C2483 C 0.83349 0.40742 0.48833 0.0
C2484 C 0.83755 0.38725 0.49046 0.0
C2485 C 0.82215 0.37365 0.4955 0.0
C2486 C 0.80909 0.43502 0.4891 0.0
C2487 C 0.85819 0.38004 0.48748 0.0
H2488 H 0.87288 0.44197 0.44358 0.0
H2489 H 0.88827 0.45033 0.5053 0.0
H2490 H 0.84184 0.4003 0.44728 0.0
H2491 H 0.82488 0.41973 0.44843 0.0
H2492 H 0.84535 0.42181 0.43203 0.0
H2493 H 0.86899 0.43624 0.53004 0.0
H2494 H 0.843 0.43021 0.52325 0.0
H2495 H 0.8607 0.41135 0.52329 0.0
H2496 H 0.78383 0.4045 0.49837 0.0
H2497 H 0.8254 0.35824 0.49713 0.0
H2498 H 0.81256 0.44037 0.47414 0.0
H2499 H 0.81855 0.44415 0.49983 0.0
H2500 H 0.79309 0.43743 0.49159 0.0
H2501 H 0.86291 0.38384 0.47244 0.0
H2502 H 0.85882 0.36383 0.48946 0.0
H2503 H 0.86923 0.38747 0.4981 0.0
C2504 C 0.71879 0.86395 0.74627 0.0
C2505 C 0.7301 0.85969 0.7635 0.0
C2506 C 0.70729 0.88069 0.7452 0.0
C2507 C 0.70751 0.89367 0.76159 0.0
C2508 C 0.71832 0.88899 0.77926 0.0
C2509 C 0.72936 0.87196 0.78004 0.0
C2510 C 0.69564 0.88495 0.72624 0.0
C2511 C 0.71927 0.90261 0.79694 0.0
C2512 C 0.70255 0.94799 0.75103 0.0
C2513 C 0.68322 0.95121 0.75715 0.0
C2514 C 0.71047 0.92932 0.75227 0.0
C2515 C 0.69866 0.91326 0.75949 0.0
C2516 C 0.67892 0.91622 0.76522 0.0
C2517 C 0.67149 0.93524 0.76419 0.0
C2518 C 0.73171 0.9269 0.74631 0.0
C2519 C 0.66578 0.89933 0.77259 0.0
H2520 H 0.71919 0.85432 0.73355 0.0
H2521 H 0.73821 0.86874 0.79333 0.0
H2522 H 0.6802 0.88894 0.72934 0.0
H2523 H 0.70296 0.89774 0.71878 0.0
H2524 H 0.69476 0.87217 0.71595 0.0
H2525 H 0.72685 0.89601 0.81007 0.0
H2526 H 0.72761 0.91659 0.79333 0.0
H2527 H 0.70399 0.90639 0.80077 0.0
H2528 H 0.71182 0.96024 0.74571 0.0
H2529 H 0.65651 0.9376 0.76885 0.0
H2530 H 0.7319 0.91569 0.73443 0.0
H2531 H 0.7409 0.92158 0.75906 0.0
H2532 H 0.73889 0.9409 0.74101 0.0
H2533 H 0.6648 0.88705 0.76172 0.0
H2534 H 0.65039 0.9038 0.77529 0.0
H2535 H 0.67247 0.89356 0.78654 0.0
C2536 C 0.64092 0.54874 0.02199 0.0
C2537 C 0.63452 0.54203 0.00306 0.0
C2538 C 0.65704 0.56271 0.0247 0.0
C2539 C 0.66697 0.57018 0.00809 0.0
C2540 C 0.66095 0.56304 0.98901 0.0
C2541 C 0.64483 0.54905 0.98674 0.0
C2542 C 0.66302 0.56997 0.04528 0.0
C2543 C 0.67118 0.57058 0.97092 0.0
C2544 C 0.69215 0.62153 0.01099 0.0
C2545 C 0.71251 0.61753 0.01343 0.0
C2546 C 0.67723 0.60626 0.00948 0.0
C2547 C 0.68273 0.58642 0.01046 0.0
C2548 C 0.70319 0.5822 0.01316 0.0
C2549 C 0.71785 0.5978 0.01459 0.0
C2550 C 0.65558 0.61138 0.00658 0.0
C2551 C 0.7096 0.56121 0.01431 0.0
H2552 H 0.63294 0.5435 0.03466 0.0
H2553 H 0.64021 0.54366 0.9721 0.0
H2554 H 0.67935 0.56868 0.04829 0.0
H2555 H 0.65992 0.58581 0.04659 0.0
H2556 H 0.65482 0.56165 0.05674 0.0
H2557 H 0.66542 0.56275 0.95727 0.0
H2558 H 0.66884 0.58655 0.96909 0.0
H2559 H 0.68757 0.56888 0.97268 0.0
H2560 H 0.68779 0.63667 0.01009 0.0
H2561 H 0.73351 0.59451 0.01652 0.0
H2562 H 0.64664 0.6047 0.01845 0.0
H2563 H 0.64922 0.60519 0.99236 0.0
H2564 H 0.65376 0.62756 0.00656 0.0
H2565 H 0.70188 0.55326 0.02629 0.0
H2566 H 0.72604 0.56041 0.01706 0.0
H2567 H 0.70518 0.55334 0.00032 0.0
C2568 C 0.20981 0.64513 0.23652 0.0
C2569 C 0.23035 0.64534 0.24196 0.0
C2570 C 0.19718 0.62834 0.23948 0.0
C2571 C 0.20515 0.61154 0.24859 0.0
C2572 C 0.2257 0.61181 0.25461 0.0
C2573 C 0.23808 0.62856 0.25098 0.0
C2574 C 0.1754 0.62845 0.23256 0.0
C2575 C 0.2347 0.59427 0.26467 0.0
C2576 C 0.17119 0.57282 0.27234 0.0
C2577 C 0.17143 0.55723 0.25883 0.0
C2578 C 0.1817 0.59084 0.26899 0.0
C2579 C 0.19222 0.59341 0.25146 0.0
C2580 C 0.1915 0.57805 0.23726 0.0
C2581 C 0.18132 0.56003 0.24124 0.0
C2582 C 0.18246 0.6067 0.28468 0.0
C2583 C 0.20203 0.58043 0.21813 0.0
H2584 H 0.20354 0.65808 0.22988 0.0
H2585 H 0.25395 0.6283 0.25488 0.0
H2586 H 0.17191 0.61644 0.22164 0.0
H2587 H 0.16566 0.6256 0.24514 0.0
H2588 H 0.17155 0.64269 0.22567 0.0
H2589 H 0.25063 0.59733 0.26958 0.0
H2590 H 0.22608 0.58994 0.2777 0.0
H2591 H 0.23383 0.58148 0.25443 0.0
H2592 H 0.16361 0.5706 0.286 0.0
H2593 H 0.18119 0.54811 0.23062 0.0
H2594 H 0.17817 0.62095 0.27819 0.0
H2595 H 0.19802 0.6089 0.29098 0.0
H2596 H 0.17241 0.6029 0.29684 0.0
H2597 H 0.19786 0.59429 0.21071 0.0
H2598 H 0.19836 0.56788 0.20785 0.0
H2599 H 0.21848 0.5815 0.22119 0.0
C2600 C 0.87849 0.52576 0.02714 0.0
C2601 C 0.89594 0.53493 0.03601 0.0
C2602 C 0.86099 0.53616 0.02399 0.0
C2603 C 0.86091 0.55615 0.02995 0.0
C2604 C 0.87856 0.56556 0.03859 0.0
C2605 C 0.89585 0.55487 0.04143 0.0
C2606 C 0.84248 0.52566 0.01465 0.0
C2607 C 0.87912 0.58687 0.04512 0.0
C2608 C 0.82248 0.59136 0.01029 0.0
C2609 C 0.80997 0.59249 0.02626 0.0
C2610 C 0.83857 0.57882 0.01085 0.0
C2611 C 0.84229 0.56721 0.02781 0.0
C2612 C 0.8291 0.56752 0.04352 0.0
C2613 C 0.81307 0.5801 0.04253 0.0
C2614 C 0.85216 0.57872 0.9937 0.0
C2615 C 0.83253 0.55535 0.06186 0.0
H2616 H 0.87837 0.51031 0.02307 0.0
H2617 H 0.90937 0.56217 0.04794 0.0
H2618 H 0.83042 0.52481 0.02534 0.0
H2619 H 0.83685 0.53406 0.00171 0.0
H2620 H 0.84534 0.51046 0.00979 0.0
H2621 H 0.89413 0.59209 0.0513 0.0
H2622 H 0.87495 0.59641 0.03249 0.0
H2623 H 0.868 0.58877 0.05653 0.0
H2624 H 0.82013 0.60076 0.99759 0.0
H2625 H 0.80344 0.58078 0.0549 0.0
H2626 H 0.85457 0.56337 0.98909 0.0
H2627 H 0.86703 0.58566 0.99827 0.0
H2628 H 0.84602 0.58688 0.98079 0.0
H2629 H 0.83444 0.53973 0.05788 0.0
H2630 H 0.82 0.55596 0.072 0.0
H2631 H 0.84654 0.56086 0.06989 0.0
C2632 C 0.13607 0.97258 0.9909 0.0
C2633 C 0.11757 0.96465 0.99699 0.0
C2634 C 0.15311 0.96131 0.99147 0.0
C2635 C 0.1517 0.94172 0.99854 0.0
C2636 C 0.13304 0.93352 0.00444 0.0
C2637 C 0.11619 0.94503 0.00347 0.0
C2638 C 0.17272 0.97051 0.98491 0.0
C2639 C 0.13096 0.91269 0.01217 0.0
C2640 C 0.19104 0.90499 0.98837 0.0
C2641 C 0.20239 0.90535 0.00629 0.0
C2642 C 0.1749 0.91727 0.98534 0.0
C2643 C 0.16988 0.93002 0.00068 0.0
C2644 C 0.18167 0.93089 0.01855 0.0
C2645 C 0.19785 0.91864 0.02109 0.0
C2646 C 0.16286 0.91617 0.96597 0.0
C2647 C 0.17672 0.94421 0.03531 0.0
H2648 H 0.13738 0.9878 0.98612 0.0
H2649 H 0.10191 0.93863 0.00785 0.0
H2650 H 0.18369 0.97183 0.99767 0.0
H2651 H 0.17914 0.96095 0.97379 0.0
H2652 H 0.17099 0.98539 0.97847 0.0
H2653 H 0.11531 0.90839 0.01578 0.0
H2654 H 0.13589 0.90215 0.0011 0.0
H2655 H 0.14077 0.91125 0.02567 0.0
H2656 H 0.19453 0.89484 0.97682 0.0
H2657 H 0.20652 0.91904 0.03499 0.0
H2658 H 0.16157 0.93115 0.95966 0.0
H2659 H 0.14744 0.91017 0.96842 0.0
H2660 H 0.16963 0.90666 0.95501 0.0
H2661 H 0.17599 0.95966 0.03014 0.0
H2662 H 0.1879 0.9438 0.04791 0.0
H2663 H 0.16176 0.93966 0.04066 0.0
loop_
_geom_bond_atom_site_label_1
_geom_bond_atom_site_label_2
_geom_bond_distance
_geom_bond_site_symmetry_2
_ccdc_geom_bond_type
C0 C1 1.391 . S
C0 C4 1.391 . S
C0 H42 0.948 . S
C1 C0 1.391 . S
C1 C2 1.391 . S
C2 C1 1.391 . S
C2 H58 0.947 1_455 S
C2 C59 1.392 1_556 S
C3 C4 1.391 1_554 S
C3 C7 1.397 . S
C3 C59 1.419 . S
C4 C0 1.391 . S
C4 C3 1.391 1_556 S
C4 C5 1.399 . S
C5 C4 1.399 . S
C5 C8 1.396 1_556 S
C5 C17 1.453 . S
C5 C18 1.684 . S
H6 C30 0.948 . S
C7 C3 1.397 . S
C7 C8 1.394 . S
C7 C26 1.723 . S
C8 C5 1.396 1_554 S
C8 C7 1.394 . S
C8 C38 1.723 . S
H9 C32 0.950 . S
H10 C33 0.948 . S
H11 C39 0.982 . S
H12 C40 0.979 . S
H13 C40 0.980 . S
H14 C40 0.983 . S
H15 C39 0.979 1_565 S
H16 C39 0.977 . S
C17 C5 1.453 . S
C17 H46 0.982 1_556 S
C17 H47 0.979 . S
C17 H48 0.977 . S
C18 C5 1.684 . S
C18 H43 0.979 . S
C18 H44 0.980 . S
C18 H45 0.983 . S
C19 C20 1.391 . S
C19 C24 1.391 . S
C19 H49 0.948 . S
C20 C19 1.391 . S
C20 C21 1.435 . S
C21 C20 1.435 . S
C21 C22 1.353 1_655 S
C21 H50 0.945 1_545 S
C22 C21 1.353 1_455 S
C22 C23 1.419 . S
C22 H51 0.928 1_545 S
C23 C22 1.419 . S
C23 C24 1.391 1_455 S
C23 C27 1.397 . S
C24 C19 1.391 . S
C24 C23 1.391 1_655 S
C24 C25 1.399 . S
C25 C24 1.399 . S
C25 C26 1.396 1_655 S
C25 C28 1.453 1_655 S
C25 C29 1.684 . S
C26 C7 1.723 . S
C26 C25 1.396 1_455 S
C26 C27 1.394 . S
C27 C23 1.397 . S
C27 C26 1.394 . S
C27 C37 1.723 . S
C28 C25 1.453 1_455 S
C28 H52 0.982 . S
C28 H53 0.979 1_455 S
C28 H54 0.977 . S
C29 C25 1.684 . S
C29 H55 0.979 . S
C29 H56 0.980 . S
C29 H57 0.983 . S
C30 H6 0.948 . S
C30 C31 1.391 . S
C30 C35 1.391 . S
C31 C30 1.391 . S
C31 C32 1.359 1_564 S
C32 H9 0.950 . S
C32 C31 1.359 1_546 S
C32 C33 1.423 . S
C33 H10 0.948 . S
C33 C32 1.423 . S
C33 C34 1.419 1_556 S
C34 C33 1.419 1_554 S
C34 C35 1.391 1_545 S
C34 C38 1.397 . S
C35 C30 1.391 . S
C35 C34 1.391 1_565 S
C35 C36 1.399 . S
C36 C35 1.399 . S
C36 C37 1.401 1_565 S
C36 C39 1.453 1_565 S
C36 C40 1.680 . S
C37 C27 1.723 . S
C37 C36 1.401 1_545 S
C37 C38 1.394 . S
C38 C8 1.723 . S
C38 C34 1.397 . S
C38 C37 1.394 . S
C39 H11 0.982 . S
C39 H15 0.979 1_545 S
C39 H16 0.977 . S
C39 C36 1.453 1_545 S
C40 H12 0.979 . S
C40 H13 0.980 . S
C40 H14 0.983 . S
C40 C36 1.680 . S
H41 C59 0.948 1_655 S
H42 C0 0.948 . S
H43 C18 0.979 . S
H44 C18 0.980 . S
H45 C18 0.983 . S
H46 C17 0.982 1_554 S
H47 C17 0.979 . S
H48 C17 0.977 . S
H49 C19 0.948 . S
H50 C21 0.945 1_565 S
H51 C22 0.928 1_565 S
H52 C28 0.982 . S
H53 C28 0.979 1_655 S
H54 C28 0.977 . S
H55 C29 0.979 . S
H56 C29 0.980 . S
H57 C29 0.983 . S
H58 C2 0.947 1_655 S
C59 C2 1.392 1_554 S
C59 C3 1.419 . S
C59 H41 0.948 1_455 S
C60 C61 1.391 . S
C60 C64 1.391 . S
C60 H102 0.948 . S
C61 C60 1.391 . S
C61 C62 1.391 . S
C62 C61 1.391 . S
C62 H118 0.947 . S
C62 C119 1.392 . S
C63 C64 1.391 . S
C63 C67 1.397 . S
C63 C119 1.419 . S
C64 C60 1.391 . S
C64 C63 1.391 . S
C64 C65 1.399 . S
C65 C64 1.399 . S
C65 C68 1.396 . S
C65 C77 1.453 . S
C65 C78 1.684 . S
H66 C90 0.948 . S
C67 C63 1.397 . S
C67 C68 1.394 . S
C67 C86 1.723 . S
C68 C65 1.396 . S
C68 C67 1.394 . S
C68 C98 1.723 . S
H69 C92 0.947 . S
H70 C93 0.948 . S
H71 C99 0.982 . S
H72 C100 0.979 . S
H73 C100 0.980 . S
H74 C100 0.983 . S
H75 C99 0.979 . S
H76 C99 0.977 . S
C77 C65 1.453 . S
C77 H106 0.982 . S
C77 H107 0.979 . S
C77 H108 0.977 . S
C78 C65 1.684 . S
C78 H103 0.979 . S
C78 H104 0.980 . S
C78 H105 0.983 . S
C79 C80 1.391 . S
C79 C84 1.391 . S
C79 H109 0.948 . S
C80 C79 1.391 . S
C80 C81 1.391 . S
C81 C80 1.391 . S
C81 C82 1.392 . S
C81 H110 0.947 . S
C82 C81 1.392 . S
C82 C83 1.419 . S
C82 H111 0.948 . S
C83 C82 1.419 . S
C83 C84 1.391 . S
C83 C87 1.397 . S
C84 C79 1.391 . S
C84 C83 1.391 . S
C84 C85 1.399 . S
C85 C84 1.399 . S
C85 C86 1.396 . S
C85 C88 1.453 . S
C85 C89 1.684 . S
C86 C67 1.723 . S
C86 C85 1.396 . S
C86 C87 1.394 . S
C87 C83 1.397 . S
C87 C86 1.394 . S
C87 C97 1.723 . S
C88 C85 1.453 . S
C88 H112 0.982 . S
C88 H113 0.979 . S
C88 H114 0.977 . S
C89 C85 1.684 . S
C89 H115 0.979 . S
C89 H116 0.980 . S
C89 H117 0.983 . S
C90 H66 0.948 . S
C90 C91 1.391 . S
C90 C95 1.391 . S
C91 C90 1.391 . S
C91 C92 1.391 . S
C92 H69 0.947 . S
C92 C91 1.391 . S
C92 C93 1.392 . S
C93 H70 0.948 . S
C93 C92 1.392 . S
C93 C94 1.419 . S
C94 C93 1.419 . S
C94 C95 1.391 . S
C94 C98 1.397 . S
C95 C90 1.391 . S
C95 C94 1.391 . S
C95 C96 1.399 . S
C96 C95 1.399 . S
C96 C97 1.396 . S
C96 C99 1.453 . S
C96 C100 1.684 . S
C97 C87 1.723 . S
C97 C96 1.396 . S
C97 C98 1.394 . S
C98 C68 1.723 . S
C98 C94 1.397 . S
C98 C97 1.394 . S
C99 H71 0.982 . S
C99 H75 0.979 . S
C99 H76 0.977 . S
C99 C96 1.453 . S
C100 H72 0.979 . S
C100 H73 0.980 . S
C100 H74 0.983 . S
C100 C96 1.684 . S
H101 C119 0.948 . S
H102 C60 0.948 . S
H103 C78 0.979 . S
H104 C78 0.980 . S
H105 C78 0.983 . S
H106 C77 0.982 . S
H107 C77 0.979 . S
H108 C77 0.977 . S
H109 C79 0.948 . S
H110 C81 0.947 . S
H111 C82 0.948 . S
H112 C88 0.982 . S
H113 C88 0.979 . S
H114 C88 0.977 . S
H115 C89 0.979 . S
H116 C89 0.980 . S
H117 C89 0.983 . S
H118 C62 0.947 . S
C119 C62 1.392 . S
C119 C63 1.419 . S
C119 H101 0.948 . S
C120 C121 1.391 1_454 S
C120 C124 1.391 1_455 S
C120 H162 0.948 . S
C121 C120 1.391 1_656 S
C121 C122 1.391 . S
C122 C121 1.391 . S
C122 H178 0.947 . S
C122 C179 1.392 . S
C123 C124 1.391 . S
C123 C127 1.397 . S
C123 C179 1.419 1_554 S
C124 C120 1.391 1_655 S
C124 C123 1.391 . S
C124 C125 1.399 1_655 S
C125 C124 1.399 1_455 S
C125 C128 1.396 1_455 S
C125 C137 1.453 . S
C125 C138 1.684 . S
H126 C150 0.948 . S
C127 C123 1.397 . S
C127 C128 1.394 . S
C127 C146 1.723 . S
C128 C125 1.396 1_655 S
C128 C127 1.394 . S
C128 C158 1.723 . S
H129 C152 0.947 . S
H130 C153 0.948 . S
H131 C159 0.982 . S
H132 C160 0.967 1_455 S
H133 C160 0.980 . S
H134 C160 0.983 . S
H135 C159 0.979 . S
H136 C159 0.977 . S
C137 C125 1.453 . S
C137 H166 0.982 1_455 S
C137 H167 0.979 . S
C137 H168 0.977 . S
C138 C125 1.684 . S
C138 H163 0.979 . S
C138 H164 0.980 . S
C138 H165 0.983 . S
C139 C140 1.391 . S
C139 C144 1.391 . S
C139 H169 0.948 . S
C140 C139 1.391 . S
C140 C141 1.391 . S
C141 C140 1.391 . S
C141 C142 1.392 . S
C141 H170 0.947 . S
C142 C141 1.392 . S
C142 C143 1.419 . S
C142 H171 0.948 . S
C143 C142 1.419 . S
C143 C144 1.391 . S
C143 C147 1.397 . S
C144 C139 1.391 . S
C144 C143 1.391 . S
C144 C145 1.399 . S
C145 C144 1.399 . S
C145 C146 1.396 . S
C145 C148 1.453 . S
C145 C149 1.684 1_554 S
C146 C127 1.723 . S
C146 C145 1.396 . S
C146 C147 1.394 . S
C147 C143 1.397 . S
C147 C146 1.394 . S
C147 C157 1.723 . S
C148 C145 1.453 . S
C148 H172 0.982 . S
C148 H173 0.979 . S
C148 H174 0.977 . S
C149 C145 1.684 1_556 S
C149 H175 0.979 . S
C149 H176 0.980 . S
C149 H177 0.983 . S
C150 H126 0.948 . S
C150 C151 1.391 . S
C150 C155 1.391 . S
C151 C150 1.391 . S
C151 C152 1.391 . S
C152 H129 0.947 . S
C152 C151 1.391 . S
C152 C153 1.392 . S
C153 H130 0.948 . S
C153 C152 1.392 . S
C153 C154 1.419 . S
C154 C153 1.419 . S
C154 C155 1.391 . S
C154 C158 1.397 1_455 S
C155 C150 1.391 . S
C155 C154 1.391 . S
C155 C156 1.399 1_455 S
C156 C155 1.399 1_655 S
C156 C157 1.396 . S
C156 C159 1.453 . S
C156 C160 1.684 . S
C157 C147 1.723 . S
C157 C156 1.396 . S
C157 C158 1.394 . S
C158 C128 1.723 . S
C158 C154 1.397 1_655 S
C158 C157 1.394 . S
C159 H131 0.982 . S
C159 H135 0.979 . S
C159 H136 0.977 . S
C159 C156 1.453 . S
C160 H132 0.967 1_655 S
C160 H133 0.980 . S
C160 H134 0.983 . S
C160 C156 1.684 . S
H161 C179 0.948 . S
H162 C120 0.948 . S
H163 C138 0.979 . S
H164 C138 0.980 . S
H165 C138 0.983 . S
H166 C137 0.982 1_655 S
H167 C137 0.979 . S
H168 C137 0.977 . S
H169 C139 0.948 . S
H170 C141 0.947 . S
H171 C142 0.948 . S
H172 C148 0.982 . S
H173 C148 0.979 . S
H174 C148 0.977 . S
H175 C149 0.979 . S
H176 C149 0.980 . S
H177 C149 0.983 . S
H178 C122 0.947 . S
C179 C122 1.392 . S
C179 C123 1.419 1_556 S
C179 H161 0.948 . S
C180 C181 1.391 . S
C180 C184 1.391 . S
C180 H222 0.948 . S
C181 C180 1.391 . S
C181 C182 1.391 . S
C182 C181 1.391 . S
C182 H238 0.947 . S
C182 C239 1.392 . S
C183 C184 1.391 . S
C183 C187 1.397 . S
C183 C239 1.419 . S
C184 C180 1.391 . S
C184 C183 1.391 . S
C184 C185 1.399 . S
C185 C184 1.399 . S
C185 C188 1.396 . S
C185 C197 1.453 . S
C185 C198 1.684 . S
H186 C210 0.948 . S
C187 C183 1.397 . S
C187 C188 1.394 . S
C187 C206 1.723 . S
C188 C185 1.396 . S
C188 C187 1.394 . S
C188 C218 1.723 . S
H189 C212 0.947 . S
H190 C213 0.948 . S
H191 C219 0.982 . S
H192 C220 0.979 . S
H193 C220 0.980 . S
H194 C220 0.983 . S
H195 C219 0.979 . S
H196 C219 0.977 . S
C197 C185 1.453 . S
C197 H226 0.982 . S
C197 H227 0.979 . S
C197 H228 0.977 . S
C198 C185 1.684 . S
C198 H223 0.979 . S
C198 H224 0.980 . S
C198 H225 0.983 . S
C199 C200 1.391 . S
C199 C204 1.391 . S
C199 H229 0.948 . S
C200 C199 1.391 . S
C200 C201 1.391 . S
C201 C200 1.391 . S
C201 C202 1.392 . S
C201 H230 0.947 . S
C202 C201 1.392 . S
C202 C203 1.419 . S
C202 H231 0.948 . S
C203 C202 1.419 . S
C203 C204 1.391 . S
C203 C207 1.397 . S
C204 C199 1.391 . S
C204 C203 1.391 . S
C204 C205 1.399 . S
C205 C204 1.399 . S
C205 C206 1.396 . S
C205 C208 1.453 . S
C205 C209 1.684 . S
C206 C187 1.723 . S
C206 C205 1.396 . S
C206 C207 1.394 . S
C207 C203 1.397 . S
C207 C206 1.394 . S
C207 C217 1.723 . S
C208 C205 1.453 . S
C208 H232 0.982 . S
C208 H233 0.979 . S
C208 H234 0.977 . S
C209 C205 1.684 . S
C209 H235 0.979 . S
C209 H236 0.980 . S
C209 H237 0.983 . S
C210 H186 0.948 . S
C210 C211 1.391 . S
C210 C215 1.391 . S
C211 C210 1.391 . S
C211 C212 1.391 . S
C212 H189 0.947 . S
C212 C211 1.391 . S
C212 C213 1.392 . S
C213 H190 0.948 . S
C213 C212 1.392 . S
C213 C214 1.419 . S
C214 C213 1.419 . S
C214 C215 1.391 . S
C214 C218 1.397 . S
C215 C210 1.391 . S
C215 C214 1.391 . S
C215 C216 1.399 . S
C216 C215 1.399 . S
C216 C217 1.396 . S
C216 C219 1.453 . S
C216 C220 1.684 . S
C217 C207 1.723 . S
C217 C216 1.396 . S
C217 C218 1.394 . S
C218 C188 1.723 . S
C218 C214 1.397 . S
C218 C217 1.394 . S
C219 H191 0.982 . S
C219 H195 0.979 . S
C219 H196 0.977 . S
C219 C216 1.453 . S
C220 H192 0.979 . S
C220 H193 0.980 . S
C220 H194 0.983 . S
C220 C216 1.684 . S
H221 C239 0.948 . S
H222 C180 0.948 . S
H223 C198 0.979 . S
H224 C198 0.980 . S
H225 C198 0.983 . S
H226 C197 0.982 . S
H227 C197 0.979 . S
H228 C197 0.977 . S
H229 C199 0.948 . S
H230 C201 0.947 . S
H231 C202 0.948 . S
H232 C208 0.982 . S
H233 C208 0.979 . S
H234 C208 0.977 . S
H235 C209 0.979 . S
H236 C209 0.980 . S
H237 C209 0.983 . S
H238 C182 0.947 . S
C239 C182 1.392 . S
C239 C183 1.419 . S
C239 H221 0.948 . S
C240 C241 1.391 . S
C240 C244 1.391 . S
C240 H282 0.948 . S
C241 C240 1.391 . S
C241 C242 1.391 . S
C242 C241 1.391 . S
C242 H298 0.947 . S
C242 C299 1.392 . S
C243 C244 1.391 . S
C243 C247 1.397 . S
C243 C299 1.419 . S
C244 C240 1.391 . S
C244 C243 1.391 . S
C244 C245 1.399 . S
C245 C244 1.399 . S
C245 C248 1.396 . S
C245 C257 1.453 . S
C245 C258 1.684 . S
H246 C270 0.948 . S
C247 C243 1.397 . S
C247 C248 1.394 . S
C247 C266 1.723 . S
C248 C245 1.396 . S
C248 C247 1.394 . S
C248 C278 1.723 . S
H249 C272 0.947 . S
H250 C273 0.948 . S
H251 C279 0.982 . S
H252 C280 0.981 . S
H253 C280 0.980 . S
H254 C280 0.983 . S
H255 C279 0.979 . S
H256 C279 0.977 . S
C257 C245 1.453 . S
C257 H286 0.982 . S
C257 H287 0.979 . S
C257 H288 0.977 . S
C258 C245 1.684 . S
C258 H283 0.979 . S
C258 H284 0.980 . S
C258 H285 0.983 . S
C259 C260 1.398 . S
C259 C264 1.428 . S
C259 H289 0.907 1_455 S
C260 C259 1.398 . S
C260 C261 1.391 1_565 S
C261 C260 1.391 1_545 S
C261 C262 1.392 1_545 S
C261 H290 0.947 . S
C262 C261 1.392 1_565 S
C262 C263 1.419 . S
C262 H291 0.948 1_565 S
C263 C262 1.419 . S
C263 C264 1.391 . S
C263 C267 1.397 . S
C264 C259 1.428 . S
C264 C263 1.391 . S
C264 C265 1.399 . S
C265 C264 1.399 . S
C265 C266 1.396 . S
C265 C268 1.453 1_455 S
C265 C269 1.684 . S
C266 C247 1.723 . S
C266 C265 1.396 . S
C266 C267 1.394 . S
C267 C263 1.397 . S
C267 C266 1.394 . S
C267 C277 1.723 . S
C268 C265 1.453 1_655 S
C268 H292 0.982 . S
C268 H293 0.979 . S
C268 H294 0.970 1_655 S
C269 C265 1.684 . S
C269 H295 0.979 . S
C269 H296 0.980 . S
C269 H297 0.983 1_455 S
C270 H246 0.948 . S
C270 C271 1.391 . S
C270 C275 1.391 . S
C271 C270 1.391 . S
C271 C272 1.391 . S
C272 H249 0.947 . S
C272 C271 1.391 . S
C272 C273 1.392 1_545 S
C273 H250 0.948 . S
C273 C272 1.392 1_565 S
C273 C274 1.419 . S
C274 C273 1.419 . S
C274 C275 1.391 1_565 S
C274 C278 1.397 . S
C275 C270 1.391 . S
C275 C274 1.391 1_545 S
C275 C276 1.399 . S
C276 C275 1.399 . S
C276 C277 1.396 1_545 S
C276 C279 1.453 . S
C276 C280 1.684 . S
C277 C267 1.723 . S
C277 C276 1.396 1_565 S
C277 C278 1.394 . S
C278 C248 1.723 . S
C278 C274 1.397 . S
C278 C277 1.394 . S
C279 H251 0.982 . S
C279 H255 0.979 . S
C279 H256 0.977 . S
C279 C276 1.453 . S
C280 H252 0.981 . S
C280 H253 0.980 . S
C280 H254 0.983 . S
C280 C276 1.684 . S
H281 C299 0.948 . S
H282 C240 0.948 . S
H283 C258 0.979 . S
H284 C258 0.980 . S
H285 C258 0.983 . S
H286 C257 0.982 . S
H287 C257 0.979 . S
H288 C257 0.977 . S
H289 C259 0.907 1_655 S
H290 C261 0.947 . S
H291 C262 0.948 1_545 S
H292 C268 0.982 . S
H293 C268 0.979 . S
H294 C268 0.970 1_455 S
H295 C269 0.979 . S
H296 C269 0.980 . S
H297 C269 0.983 1_655 S
H298 C242 0.947 . S
C299 C242 1.392 . S
C299 C243 1.419 . S
C299 H281 0.948 . S
C300 C301 1.391 . S
C300 C304 1.391 . S
C300 H342 0.948 . S
C301 C300 1.391 . S
C301 C302 1.391 . S
C302 C301 1.391 . S
C302 H358 0.947 . S
C302 C359 1.392 . S
C303 C304 1.391 . S
C303 C307 1.397 . S
C303 C359 1.419 . S
C304 C300 1.391 . S
C304 C303 1.391 . S
C304 C305 1.399 . S
C305 C304 1.399 . S
C305 C308 1.396 . S
C305 C317 1.453 . S
C305 C318 1.684 . S
H306 C330 0.948 . S
C307 C303 1.397 . S
C307 C308 1.394 . S
C307 C326 1.723 . S
C308 C305 1.396 . S
C308 C307 1.394 . S
C308 C338 1.723 . S
H309 C332 0.947 . S
H310 C333 0.948 . S
H311 C339 0.982 . S
H312 C340 0.979 . S
H313 C340 0.980 . S
H314 C340 0.983 . S
H315 C339 0.979 . S
H316 C339 0.977 . S
C317 C305 1.453 . S
C317 H346 0.982 . S
C317 H347 0.979 . S
C317 H348 0.977 . S
C318 C305 1.684 . S
C318 H343 0.979 . S
C318 H344 0.980 . S
C318 H345 0.983 . S
C319 C320 1.391 . S
C319 C324 1.391 . S
C319 H349 0.948 . S
C320 C319 1.391 . S
C320 C321 1.391 . S
C321 C320 1.391 . S
C321 C322 1.392 . S
C321 H350 0.947 . S
C322 C321 1.392 . S
C322 C323 1.419 . S
C322 H351 0.948 . S
C323 C322 1.419 . S
C323 C324 1.391 . S
C323 C327 1.397 . S
C324 C319 1.391 . S
C324 C323 1.391 . S
C324 C325 1.399 . S
C325 C324 1.399 . S
C325 C326 1.396 . S
C325 C328 1.453 . S
C325 C329 1.684 . S
C326 C307 1.723 . S
C326 C325 1.396 . S
C326 C327 1.394 . S
C327 C323 1.397 . S
C327 C326 1.394 . S
C327 C337 1.723 . S
C328 C325 1.453 . S
C328 H352 0.982 . S
C328 H353 0.979 . S
C328 H354 0.977 . S
C329 C325 1.684 . S
C329 H355 0.979 . S
C329 H356 0.980 . S
C329 H357 0.983 . S
C330 H306 0.948 . S
C330 C331 1.391 . S
C330 C335 1.391 . S
C331 C330 1.391 . S
C331 C332 1.391 . S
C332 H309 0.947 . S
C332 C331 1.391 . S
C332 C333 1.392 . S
C333 H310 0.948 . S
C333 C332 1.392 . S
C333 C334 1.419 . S
C334 C333 1.419 . S
C334 C335 1.391 . S
C334 C338 1.397 . S
C335 C330 1.391 . S
C335 C334 1.391 . S
C335 C336 1.399 . S
C336 C335 1.399 . S
C336 C337 1.396 . S
C336 C339 1.453 . S
C336 C340 1.684 . S
C337 C327 1.723 . S
C337 C336 1.396 . S
C337 C338 1.394 . S
C338 C308 1.723 . S
C338 C334 1.397 . S
C338 C337 1.394 . S
C339 H311 0.982 . S
C339 H315 0.979 . S
C339 H316 0.977 . S
C339 C336 1.453 . S
C340 H312 0.979 . S
C340 H313 0.980 . S
C340 H314 0.983 . S
C340 C336 1.684 . S
H341 C359 0.948 . S
H342 C300 0.948 . S
H343 C318 0.979 . S
H344 C318 0.980 . S
H345 C318 0.983 . S
H346 C317 0.982 . S
H347 C317 0.979 . S
H348 C317 0.977 . S
H349 C319 0.948 . S
H350 C321 0.947 . S
H351 C322 0.948 . S
H352 C328 0.982 . S
H353 C328 0.979 . S
H354 C328 0.977 . S
H355 C329 0.979 . S
H356 C329 0.980 . S
H357 C329 0.983 . S
H358 C302 0.947 . S
C359 C302 1.392 . S
C359 C303 1.419 . S
C359 H341 0.948 . S
C360 C361 1.391 . S
C360 C364 1.391 . S
C360 H402 0.948 . S
C361 C360 1.391 . S
C361 C362 1.391 . S
C362 C361 1.391 . S
C362 H418 0.947 . S
C362 C419 1.392 . S
C363 C364 1.391 . S
C363 C367 1.397 . S
C363 C419 1.419 . S
C364 C360 1.391 . S
C364 C363 1.391 . S
C364 C365 1.399 . S
C365 C364 1.399 . S
C365 C368 1.396 . S
C365 C377 1.453 . S
C365 C378 1.684 . S
H366 C390 0.948 1_455 S
C367 C363 1.397 . S
C367 C368 1.394 . S
C367 C386 1.723 . S
C368 C365 1.396 . S
C368 C367 1.394 . S
C368 C398 1.723 . S
H369 C392 0.947 . S
H370 C393 0.948 . S
H371 C399 0.982 . S
H372 C400 0.979 . S
H373 C400 0.980 . S
H374 C400 0.983 . S
H375 C399 0.979 1_455 S
H376 C399 0.977 1_455 S
C377 C365 1.453 . S
C377 H406 0.982 . S
C377 H407 0.979 . S
C377 H408 0.977 . S
C378 C365 1.684 . S
C378 H403 0.979 . S
C378 H404 0.980 . S
C378 H405 0.983 . S
C379 C380 1.391 . S
C379 C384 1.391 1_455 S
C379 H409 0.948 . S
C380 C379 1.391 . S
C380 C381 1.391 . S
C381 C380 1.391 . S
C381 C382 1.392 . S
C381 H410 0.947 . S
C382 C381 1.392 . S
C382 C383 1.419 1_455 S
C382 H411 0.948 . S
C383 C382 1.419 1_655 S
C383 C384 1.391 . S
C383 C387 1.397 . S
C384 C379 1.391 1_655 S
C384 C383 1.391 . S
C384 C385 1.399 . S
C385 C384 1.399 . S
C385 C386 1.396 . S
C385 C388 1.453 . S
C385 C389 1.684 . S
C386 C367 1.723 . S
C386 C385 1.396 . S
C386 C387 1.394 . S
C387 C383 1.397 . S
C387 C386 1.394 . S
C387 C397 1.723 . S
C388 C385 1.453 . S
C388 H412 0.982 . S
C388 H413 0.979 . S
C388 H414 0.977 . S
C389 C385 1.684 . S
C389 H415 0.979 . S
C389 H416 0.980 . S
C389 H417 0.983 . S
C390 H366 0.948 1_655 S
C390 C391 1.391 . S
C390 C395 1.391 . S
C391 C390 1.391 . S
C391 C392 1.391 . S
C392 H369 0.947 . S
C392 C391 1.391 . S
C392 C393 1.392 . S
C393 H370 0.948 . S
C393 C392 1.392 . S
C393 C394 1.419 . S
C394 C393 1.419 . S
C394 C395 1.391 . S
C394 C398 1.397 . S
C395 C390 1.391 . S
C395 C394 1.391 . S
C395 C396 1.399 . S
C396 C395 1.399 . S
C396 C397 1.396 . S
C396 C399 1.453 . S
C396 C400 1.684 1_655 S
C397 C387 1.723 . S
C397 C396 1.396 . S
C397 C398 1.394 . S
C398 C368 1.723 . S
C398 C394 1.397 . S
C398 C397 1.394 . S
C399 H371 0.982 . S
C399 H375 0.979 1_655 S
C399 H376 0.977 1_655 S
C399 C396 1.453 . S
C400 H372 0.979 . S
C400 H373 0.980 . S
C400 H374 0.983 . S
C400 C396 1.684 1_455 S
H401 C419 0.948 . S
H402 C360 0.948 . S
H403 C378 0.979 . S
H404 C378 0.980 . S
H405 C378 0.983 . S
H406 C377 0.982 . S
H407 C377 0.979 . S
H408 C377 0.977 . S
H409 C379 0.948 . S
H410 C381 0.947 . S
H411 C382 0.948 . S
H412 C388 0.982 . S
H413 C388 0.979 . S
H414 C388 0.977 . S
H415 C389 0.979 . S
H416 C389 0.980 . S
H417 C389 0.983 . S
H418 C362 0.947 . S
C419 C362 1.392 . S
C419 C363 1.419 . S
C419 H401 0.948 . S
C420 C421 1.391 . S
C420 C424 1.391 . S
C420 H462 0.948 . S
C421 C420 1.391 . S
C421 C422 1.391 . S
C422 C421 1.391 . S
C422 H478 0.947 . S
C422 C479 1.392 . S
C423 C424 1.391 . S
C423 C427 1.397 . S
C423 C479 1.419 . S
C424 C420 1.391 . S
C424 C423 1.391 . S
C424 C425 1.399 . S
C425 C424 1.399 . S
C425 C428 1.396 . S
C425 C437 1.453 . S
C425 C438 1.684 . S
H426 C450 0.948 . S
C427 C423 1.397 . S
C427 C428 1.394 . S
C427 C446 1.723 . S
C428 C425 1.396 . S
C428 C427 1.394 . S
C428 C458 1.723 . S
H429 C452 0.947 . S
H430 C453 0.948 . S
H431 C459 0.982 . S
H432 C460 0.979 . S
H433 C460 0.980 . S
H434 C460 0.983 . S
H435 C459 0.979 . S
H436 C459 0.977 . S
C437 C425 1.453 . S
C437 H466 0.982 . S
C437 H467 0.979 . S
C437 H468 0.977 . S
C438 C425 1.684 . S
C438 H463 0.979 . S
C438 H464 0.980 . S
C438 H465 0.983 . S
C439 C440 1.391 . S
C439 C444 1.391 . S
C439 H469 0.948 . S
C440 C439 1.391 . S
C440 C441 1.391 . S
C441 C440 1.391 . S
C441 C442 1.392 . S
C441 H470 0.947 . S
C442 C441 1.392 . S
C442 C443 1.419 . S
C442 H471 0.948 . S
C443 C442 1.419 . S
C443 C444 1.391 . S
C443 C447 1.397 . S
C444 C439 1.391 . S
C444 C443 1.391 . S
C444 C445 1.399 . S
C445 C444 1.399 . S
C445 C446 1.396 . S
C445 C448 1.453 . S
C445 C449 1.684 . S
C446 C427 1.723 . S
C446 C445 1.396 . S
C446 C447 1.394 . S
C447 C443 1.397 . S
C447 C446 1.394 . S
C447 C457 1.723 . S
C448 C445 1.453 . S
C448 H472 0.982 . S
C448 H473 0.979 . S
C448 H474 0.977 . S
C449 C445 1.684 . S
C449 H475 0.979 . S
C449 H476 0.980 . S
C449 H477 0.983 . S
C450 H426 0.948 . S
C450 C451 1.391 . S
C450 C455 1.391 . S
C451 C450 1.391 . S
C451 C452 1.391 . S
C452 H429 0.947 . S
C452 C451 1.391 . S
C452 C453 1.392 . S
C453 H430 0.948 . S
C453 C452 1.392 . S
C453 C454 1.419 . S
C454 C453 1.419 . S
C454 C455 1.391 . S
C454 C458 1.397 . S
C455 C450 1.391 . S
C455 C454 1.391 . S
C455 C456 1.399 . S
C456 C455 1.399 . S
C456 C457 1.396 . S
C456 C459 1.453 . S
C456 C460 1.684 . S
C457 C447 1.723 . S
C457 C456 1.396 . S
C457 C458 1.394 . S
C458 C428 1.723 . S
C458 C454 1.397 . S
C458 C457 1.394 . S
C459 H431 0.982 . S
C459 H435 0.979 . S
C459 H436 0.977 . S
C459 C456 1.453 . S
C460 H432 0.979 . S
C460 H433 0.980 . S
C460 H434 0.983 . S
C460 C456 1.684 . S
H461 C479 0.948 . S
H462 C420 0.948 . S
H463 C438 0.979 . S
H464 C438 0.980 . S
H465 C438 0.983 . S
H466 C437 0.982 . S
H467 C437 0.979 . S
H468 C437 0.977 . S
H469 C439 0.948 . S
H470 C441 0.947 . S
H471 C442 0.948 . S
H472 C448 0.982 . S
H473 C448 0.979 . S
H474 C448 0.977 . S
H475 C449 0.979 . S
H476 C449 0.980 . S
H477 C449 0.983 . S
H478 C422 0.947 . S
C479 C422 1.392 . S
C479 C423 1.419 . S
C479 H461 0.948 . S
C480 C481 1.391 . S
C480 C484 1.391 . S
C480 H522 0.948 . S
C481 C480 1.391 . S
C481 C482 1.391 . S
C482 C481 1.391 . S
C482 H538 0.947 . S
C482 C539 1.392 . S
C483 C484 1.391 . S
C483 C487 1.397 . S
C483 C539 1.419 . S
C484 C480 1.391 . S
C484 C483 1.391 . S
C484 C485 1.399 . S
C485 C484 1.399 . S
C485 C488 1.396 . S
C485 C497 1.453 . S
C485 C498 1.684 . S
H486 C510 0.948 . S
C487 C483 1.397 . S
C487 C488 1.394 . S
C487 C506 1.723 . S
C488 C485 1.396 . S
C488 C487 1.394 . S
C488 C518 1.723 . S
H489 C512 0.947 . S
H490 C513 0.948 . S
H491 C519 0.982 . S
H492 C520 0.979 . S
H493 C520 0.980 . S
H494 C520 0.983 . S
H495 C519 0.979 . S
H496 C519 0.977 . S
C497 C485 1.453 . S
C497 H526 0.982 . S
C497 H527 0.979 . S
C497 H528 0.977 . S
C498 C485 1.684 . S
C498 H523 0.979 . S
C498 H524 0.980 . S
C498 H525 0.983 . S
C499 C500 1.391 . S
C499 C504 1.391 . S
C499 H529 0.948 . S
C500 C499 1.391 . S
C500 C501 1.391 . S
C501 C500 1.391 . S
C501 C502 1.392 . S
C501 H530 0.947 . S
C502 C501 1.392 . S
C502 C503 1.419 . S
C502 H531 0.948 . S
C503 C502 1.419 . S
C503 C504 1.391 . S
C503 C507 1.397 . S
C504 C499 1.391 . S
C504 C503 1.391 . S
C504 C505 1.399 . S
C505 C504 1.399 . S
C505 C506 1.396 . S
C505 C508 1.453 . S
C505 C509 1.684 . S
C506 C487 1.723 . S
C506 C505 1.396 . S
C506 C507 1.394 . S
C507 C503 1.397 . S
C507 C506 1.394 . S
C507 C517 1.723 . S
C508 C505 1.453 . S
C508 H532 0.982 . S
C508 H533 0.979 . S
C508 H534 0.977 . S
C509 C505 1.684 . S
C509 H535 0.979 . S
C509 H536 0.980 . S
C509 H537 0.983 . S
C510 H486 0.948 . S
C510 C511 1.391 . S
C510 C515 1.391 . S
C511 C510 1.391 . S
C511 C512 1.391 . S
C512 H489 0.947 . S
C512 C511 1.391 . S
C512 C513 1.392 . S
C513 H490 0.948 . S
C513 C512 1.392 . S
C513 C514 1.419 . S
C514 C513 1.419 . S
C514 C515 1.391 . S
C514 C518 1.397 . S
C515 C510 1.391 . S
C515 C514 1.391 . S
C515 C516 1.399 . S
C516 C515 1.399 . S
C516 C517 1.396 . S
C516 C519 1.453 . S
C516 C520 1.684 . S
C517 C507 1.723 . S
C517 C516 1.396 . S
C517 C518 1.394 . S
C518 C488 1.723 . S
C518 C514 1.397 . S
C518 C517 1.394 . S
C519 H491 0.982 . S
C519 H495 0.979 . S
C519 H496 0.977 . S
C519 C516 1.453 . S
C520 H492 0.979 . S
C520 H493 0.980 . S
C520 H494 0.983 . S
C520 C516 1.684 . S
H521 C539 0.948 . S
H522 C480 0.948 . S
H523 C498 0.979 . S
H524 C498 0.980 . S
H525 C498 0.983 . S
H526 C497 0.982 . S
H527 C497 0.979 . S
H528 C497 0.977 . S
H529 C499 0.948 . S
H530 C501 0.947 . S
H531 C502 0.948 . S
H532 C508 0.982 . S
H533 C508 0.979 . S
H534 C508 0.977 . S
H535 C509 0.979 . S
H536 C509 0.980 . S
H537 C509 0.983 . S
H538 C482 0.947 . S
C539 C482 1.392 . S
C539 C483 1.419 . S
C539 H521 0.948 . S
C540 C541 1.391 . S
C540 C544 1.391 . S
C540 H582 0.948 . S
C541 C540 1.391 . S
C541 C542 1.391 . S
C542 C541 1.391 . S
C542 H598 0.947 . S
C542 C599 1.392 . S
C543 C544 1.391 . S
C543 C547 1.397 . S
C543 C599 1.419 . S
C544 C540 1.391 . S
C544 C543 1.391 . S
C544 C545 1.399 . S
C545 C544 1.399 . S
C545 C548 1.396 . S
C545 C557 1.453 . S
C545 C558 1.684 . S
H546 C570 0.948 . S
C547 C543 1.397 . S
C547 C548 1.394 . S
C547 C566 1.723 . S
C548 C545 1.396 . S
C548 C547 1.394 . S
C548 C578 1.723 . S
H549 C572 0.947 . S
H550 C573 0.948 . S
H551 C579 0.982 . S
H552 C580 0.979 . S
H553 C580 0.980 . S
H554 C580 0.983 . S
H555 C579 0.979 1_545 S
H556 C579 0.959 1_545 S
C557 C545 1.453 . S
C557 H586 0.982 . S
C557 H587 0.979 . S
C557 H588 0.977 . S
C558 C545 1.684 . S
C558 H583 0.979 . S
C558 H584 0.980 . S
C558 H585 0.983 . S
C559 C560 1.391 . S
C559 C564 1.391 1_545 S
C559 H589 0.948 . S
C560 C559 1.391 . S
C560 C561 1.391 . S
C561 C560 1.391 . S
C561 C562 1.392 . S
C561 H590 0.947 . S
C562 C561 1.392 . S
C562 C563 1.419 1_545 S
C562 H591 0.948 . S
C563 C562 1.419 1_565 S
C563 C564 1.391 . S
C563 C567 1.397 . S
C564 C559 1.391 1_565 S
C564 C563 1.391 . S
C564 C565 1.399 . S
C565 C564 1.399 . S
C565 C566 1.396 . S
C565 C568 1.453 . S
C565 C569 1.684 . S
C566 C547 1.723 . S
C566 C565 1.396 . S
C566 C567 1.394 . S
C567 C563 1.397 . S
C567 C566 1.394 . S
C567 C577 1.723 . S
C568 C565 1.453 . S
C568 H592 0.982 . S
C568 H593 0.979 . S
C568 H594 0.977 . S
C569 C565 1.684 . S
C569 H595 0.979 . S
C569 H596 0.980 . S
C569 H597 0.983 . S
C570 H546 0.948 . S
C570 C571 1.391 . S
C570 C575 1.391 . S
C571 C570 1.391 . S
C571 C572 1.391 . S
C572 H549 0.947 . S
C572 C571 1.391 . S
C572 C573 1.392 . S
C573 H550 0.948 . S
C573 C572 1.392 . S
C573 C574 1.419 . S
C574 C573 1.419 . S
C574 C575 1.391 . S
C574 C578 1.397 . S
C575 C570 1.391 . S
C575 C574 1.391 . S
C575 C576 1.399 . S
C576 C575 1.399 . S
C576 C577 1.396 . S
C576 C579 1.453 . S
C576 C580 1.684 1_565 S
C577 C567 1.723 . S
C577 C576 1.396 . S
C577 C578 1.394 . S
C578 C548 1.723 . S
C578 C574 1.397 . S
C578 C577 1.394 . S
C579 H551 0.982 . S
C579 H555 0.979 1_565 S
C579 H556 0.959 1_565 S
C579 C576 1.453 . S
C580 H552 0.979 . S
C580 H553 0.980 . S
C580 H554 0.983 . S
C580 C576 1.684 1_545 S
H581 C599 0.948 . S
H582 C540 0.948 . S
H583 C558 0.979 . S
H584 C558 0.980 . S
H585 C558 0.983 . S
H586 C557 0.982 . S
H587 C557 0.979 . S
H588 C557 0.977 . S
H589 C559 0.948 . S
H590 C561 0.947 . S
H591 C562 0.948 . S
H592 C568 0.982 . S
H593 C568 0.979 . S
H594 C568 0.977 . S
H595 C569 0.979 . S
H596 C569 0.980 . S
H597 C569 0.983 . S
H598 C542 0.947 . S
C599 C542 1.392 . S
C599 C543 1.419 . S
C599 H581 0.948 . S
C600 C601 1.391 . S
C600 C604 1.391 . S
C600 H642 0.948 . S
C601 C600 1.391 . S
C601 C602 1.391 . S
C602 C601 1.391 . S
C602 H658 0.947 . S
C602 C659 1.392 . S
C603 C604 1.391 . S
C603 C607 1.397 . S
C603 C659 1.419 . S
C604 C600 1.391 . S
C604 C603 1.391 . S
C604 C605 1.399 . S
C605 C604 1.399 . S
C605 C608 1.396 . S
C605 C617 1.453 . S
C605 C618 1.684 . S
H606 C630 0.948 . S
C607 C603 1.397 . S
C607 C608 1.394 . S
C607 C626 1.723 . S
C608 C605 1.396 . S
C608 C607 1.394 . S
C608 C638 1.723 . S
H609 C632 0.947 . S
H610 C633 0.948 . S
H611 C639 0.982 . S
H612 C640 0.979 . S
H613 C640 0.980 . S
H614 C640 0.983 . S
H615 C639 0.979 . S
H616 C639 0.977 . S
C617 C605 1.453 . S
C617 H646 0.982 . S
C617 H647 0.979 . S
C617 H648 0.977 . S
C618 C605 1.684 . S
C618 H643 0.979 . S
C618 H644 0.980 . S
C618 H645 0.983 . S
C619 C620 1.391 . S
C619 C624 1.391 . S
C619 H649 0.948 . S
C620 C619 1.391 . S
C620 C621 1.391 . S
C621 C620 1.391 . S
C621 C622 1.392 . S
C621 H650 0.947 . S
C622 C621 1.392 . S
C622 C623 1.419 . S
C622 H651 0.948 . S
C623 C622 1.419 . S
C623 C624 1.391 . S
C623 C627 1.397 . S
C624 C619 1.391 . S
C624 C623 1.391 . S
C624 C625 1.399 . S
C625 C624 1.399 . S
C625 C626 1.396 . S
C625 C628 1.453 . S
C625 C629 1.684 . S
C626 C607 1.723 . S
C626 C625 1.396 . S
C626 C627 1.394 . S
C627 C623 1.397 . S
C627 C626 1.394 . S
C627 C637 1.723 . S
C628 C625 1.453 . S
C628 H652 0.982 . S
C628 H653 0.979 . S
C628 H654 0.977 . S
C629 C625 1.684 . S
C629 H655 0.979 . S
C629 H656 0.980 . S
C629 H657 0.983 . S
C630 H606 0.948 . S
C630 C631 1.391 . S
C630 C635 1.391 . S
C631 C630 1.391 . S
C631 C632 1.391 . S
C632 H609 0.947 . S
C632 C631 1.391 . S
C632 C633 1.392 . S
C633 H610 0.948 . S
C633 C632 1.392 . S
C633 C634 1.419 . S
C634 C633 1.419 . S
C634 C635 1.391 . S
C634 C638 1.397 . S
C635 C630 1.391 . S
C635 C634 1.391 . S
C635 C636 1.399 . S
C636 C635 1.399 . S
C636 C637 1.396 . S
C636 C639 1.453 . S
C636 C640 1.684 . S
C637 C627 1.723 . S
C637 C636 1.396 . S
C637 C638 1.394 . S
C638 C608 1.723 . S
C638 C634 1.397 . S
C638 C637 1.394 . S
C639 H611 0.982 . S
C639 H615 0.979 . S
C639 H616 0.977 . S
C639 C636 1.453 . S
C640 H612 0.979 . S
C640 H613 0.980 . S
C640 H614 0.983 . S
C640 C636 1.684 . S
H641 C659 0.948 . S
H642 C600 0.948 . S
H643 C618 0.979 . S
H644 C618 0.980 . S
H645 C618 0.983 . S
H646 C617 0.982 . S
H647 C617 0.979 . S
H648 C617 0.977 . S
H649 C619 0.948 . S
H650 C621 0.947 . S
H651 C622 0.948 . S
H652 C628 0.982 . S
H653 C628 0.979 . S
H654 C628 0.977 . S
H655 C629 0.979 . S
H656 C629 0.980 . S
H657 C629 0.983 . S
H658 C602 0.947 . S
C659 C602 1.392 . S
C659 C603 1.419 . S
C659 H641 0.948 . S
C660 C661 1.391 . S
C660 C664 1.391 . S
C660 H702 0.948 . S
C661 C660 1.391 . S
C661 C662 1.391 . S
C662 C661 1.391 . S
C662 H718 0.947 . S
C662 C719 1.392 . S
C663 C664 1.391 . S
C663 C667 1.397 . S
C663 C719 1.419 . S
C664 C660 1.391 . S
C664 C663 1.391 . S
C664 C665 1.399 . S
C665 C664 1.399 . S
C665 C668 1.396 . S
C665 C677 1.453 . S
C665 C678 1.684 . S
H666 C690 0.948 . S
C667 C663 1.397 . S
C667 C668 1.394 . S
C667 C686 1.723 . S
C668 C665 1.396 . S
C668 C667 1.394 . S
C668 C698 1.723 . S
H669 C692 0.947 . S
H670 C693 0.948 . S
H671 C699 0.982 . S
H672 C700 0.979 . S
H673 C700 0.980 . S
H674 C700 0.983 . S
H675 C699 0.979 . S
H676 C699 0.977 . S
C677 C665 1.453 . S
C677 H706 0.982 . S
C677 H707 0.979 . S
C677 H708 0.977 . S
C678 C665 1.684 . S
C678 H703 0.979 . S
C678 H704 0.980 . S
C678 H705 0.983 . S
C679 C680 1.391 . S
C679 C684 1.391 . S
C679 H709 0.948 . S
C680 C679 1.391 . S
C680 C681 1.391 . S
C681 C680 1.391 . S
C681 C682 1.392 . S
C681 H710 0.947 . S
C682 C681 1.392 . S
C682 C683 1.419 . S
C682 H711 0.948 . S
C683 C682 1.419 . S
C683 C684 1.391 . S
C683 C687 1.397 . S
C684 C679 1.391 . S
C684 C683 1.391 . S
C684 C685 1.399 . S
C685 C684 1.399 . S
C685 C686 1.396 . S
C685 C688 1.453 . S
C685 C689 1.684 . S
C686 C667 1.723 . S
C686 C685 1.396 . S
C686 C687 1.394 . S
C687 C683 1.397 . S
C687 C686 1.394 . S
C687 C697 1.723 . S
C688 C685 1.453 . S
C688 H712 0.982 . S
C688 H713 0.979 . S
C688 H714 0.977 . S
C689 C685 1.684 . S
C689 H715 0.979 . S
C689 H716 0.980 . S
C689 H717 0.983 . S
C690 H666 0.948 . S
C690 C691 1.391 . S
C690 C695 1.391 . S
C691 C690 1.391 . S
C691 C692 1.391 . S
C692 H669 0.947 . S
C692 C691 1.391 . S
C692 C693 1.392 . S
C693 H670 0.948 . S
C693 C692 1.392 . S
C693 C694 1.419 . S
C694 C693 1.419 . S
C694 C695 1.391 . S
C694 C698 1.397 . S
C695 C690 1.391 . S
C695 C694 1.391 . S
C695 C696 1.399 . S
C696 C695 1.399 . S
C696 C697 1.396 . S
C696 C699 1.453 . S
C696 C700 1.684 . S
C697 C687 1.723 . S
C697 C696 1.396 . S
C697 C698 1.394 . S
C698 C668 1.723 . S
C698 C694 1.397 . S
C698 C697 1.394 . S
C699 H671 0.982 . S
C699 H675 0.979 . S
C699 H676 0.977 . S
C699 C696 1.453 . S
C700 H672 0.979 . S
C700 H673 0.980 . S
C700 H674 0.983 . S
C700 C696 1.684 . S
H701 C719 0.948 . S
H702 C660 0.948 . S
H703 C678 0.979 . S
H704 C678 0.980 . S
H705 C678 0.983 . S
H706 C677 0.982 . S
H707 C677 0.979 . S
H708 C677 0.977 . S
H709 C679 0.948 . S
H710 C681 0.947 . S
H711 C682 0.948 . S
H712 C688 0.982 . S
H713 C688 0.979 . S
H714 C688 0.977 . S
H715 C689 0.979 . S
H716 C689 0.980 . S
H717 C689 0.983 . S
H718 C662 0.947 . S
C719 C662 1.392 . S
C719 C663 1.419 . S
C719 H701 0.948 . S
C720 C721 1.391 . S
C720 C724 1.391 . S
C720 H762 0.948 . S
C721 C720 1.391 . S
C721 C722 1.391 . S
C722 C721 1.391 . S
C722 H778 0.947 . S
C722 C779 1.392 . S
C723 C724 1.391 . S
C723 C727 1.397 . S
C723 C779 1.419 . S
C724 C720 1.391 . S
C724 C723 1.391 . S
C724 C725 1.399 . S
C725 C724 1.399 . S
C725 C728 1.396 . S
C725 C737 1.453 . S
C725 C738 1.684 . S
H726 C750 0.948 . S
C727 C723 1.397 . S
C727 C728 1.394 . S
C727 C746 1.723 . S
C728 C725 1.396 . S
C728 C727 1.394 . S
C728 C758 1.723 . S
H729 C752 0.947 . S
H730 C753 0.948 . S
H731 C759 0.982 . S
H732 C760 0.979 . S
H733 C760 0.980 . S
H734 C760 0.983 . S
H735 C759 0.979 . S
H736 C759 0.977 . S
C737 C725 1.453 . S
C737 H766 0.982 . S
C737 H767 0.979 . S
C737 H768 0.977 . S
C738 C725 1.684 . S
C738 H763 0.979 . S
C738 H764 0.980 . S
C738 H765 0.983 . S
C739 C740 1.391 . S
C739 C744 1.391 . S
C739 H769 0.948 . S
C740 C739 1.391 . S
C740 C741 1.391 . S
C741 C740 1.391 . S
C741 C742 1.392 . S
C741 H770 0.947 . S
C742 C741 1.392 . S
C742 C743 1.419 . S
C742 H771 0.948 . S
C743 C742 1.419 . S
C743 C744 1.391 . S
C743 C747 1.397 . S
C744 C739 1.391 . S
C744 C743 1.391 . S
C744 C745 1.399 . S
C745 C744 1.399 . S
C745 C746 1.396 . S
C745 C748 1.453 . S
C745 C749 1.684 . S
C746 C727 1.723 . S
C746 C745 1.396 . S
C746 C747 1.394 . S
C747 C743 1.397 . S
C747 C746 1.394 . S
C747 C757 1.723 . S
C748 C745 1.453 . S
C748 H772 0.982 . S
C748 H773 0.979 . S
C748 H774 0.977 . S
C749 C745 1.684 . S
C749 H775 0.979 . S
C749 H776 0.980 . S
C749 H777 0.983 . S
C750 H726 0.948 . S
C750 C751 1.391 . S
C750 C755 1.391 . S
C751 C750 1.391 . S
C751 C752 1.391 . S
C752 H729 0.947 . S
C752 C751 1.391 . S
C752 C753 1.392 . S
C753 H730 0.948 . S
C753 C752 1.392 . S
C753 C754 1.419 . S
C754 C753 1.419 . S
C754 C755 1.391 . S
C754 C758 1.397 . S
C755 C750 1.391 . S
C755 C754 1.391 . S
C755 C756 1.399 . S
C756 C755 1.399 . S
C756 C757 1.396 . S
C756 C759 1.453 . S
C756 C760 1.684 . S
C757 C747 1.723 . S
C757 C756 1.396 . S
C757 C758 1.394 . S
C758 C728 1.723 . S
C758 C754 1.397 . S
C758 C757 1.394 . S
C759 H731 0.982 . S
C759 H735 0.979 . S
C759 H736 0.977 . S
C759 C756 1.453 . S
C760 H732 0.979 . S
C760 H733 0.980 . S
C760 H734 0.983 . S
C760 C756 1.684 . S
H761 C779 0.948 . S
H762 C720 0.948 . S
H763 C738 0.979 . S
H764 C738 0.980 . S
H765 C738 0.983 . S
H766 C737 0.982 . S
H767 C737 0.979 . S
H768 C737 0.977 . S
H769 C739 0.948 . S
H770 C741 0.947 . S
H771 C742 0.948 . S
H772 C748 0.982 . S
H773 C748 0.979 . S
H774 C748 0.977 . S
H775 C749 0.979 . S
H776 C749 0.980 . S
H777 C749 0.983 . S
H778 C722 0.947 . S
C779 C722 1.392 . S
C779 C723 1.419 . S
C779 H761 0.948 . S
C780 C781 1.391 . S
C780 C784 1.391 1_554 S
C780 H822 0.948 . S
C781 C780 1.391 . S
C781 C782 1.391 1_554 S
C782 C781 1.391 1_556 S
C782 H838 0.947 . S
C782 C839 1.392 . S
C783 C784 1.391 . S
C783 C787 1.397 . S
C783 C839 1.419 . S
C784 C780 1.391 1_556 S
C784 C783 1.391 . S
C784 C785 1.399 . S
C785 C784 1.399 . S
C785 C788 1.396 . S
C785 C797 1.453 1_556 S
C785 C798 1.684 1_556 S
H786 C810 0.948 . S
C787 C783 1.397 . S
C787 C788 1.394 . S
C787 C806 1.723 . S
C788 C785 1.396 . S
C788 C787 1.394 . S
C788 C818 1.723 . S
H789 C812 0.947 1_554 S
H790 C813 0.948 . S
H791 C819 0.982 . S
H792 C820 0.979 . S
H793 C820 0.980 . S
H794 C820 0.983 . S
H795 C819 0.979 . S
H796 C819 0.977 . S
C797 C785 1.453 1_554 S
C797 H826 0.982 . S
C797 H827 0.979 . S
C797 H828 0.977 . S
C798 C785 1.684 1_554 S
C798 H823 0.979 1_554 S
C798 H824 0.980 . S
C798 H825 0.983 . S
C799 C800 1.391 . S
C799 C804 1.391 . S
C799 H829 0.948 . S
C800 C799 1.391 . S
C800 C801 1.391 . S
C801 C800 1.391 . S
C801 C802 1.392 . S
C801 H830 0.947 . S
C802 C801 1.392 . S
C802 C803 1.419 . S
C802 H831 0.948 . S
C803 C802 1.419 . S
C803 C804 1.391 . S
C803 C807 1.397 . S
C804 C799 1.391 . S
C804 C803 1.391 . S
C804 C805 1.399 . S
C805 C804 1.399 . S
C805 C806 1.396 . S
C805 C808 1.453 . S
C805 C809 1.684 . S
C806 C787 1.723 . S
C806 C805 1.396 . S
C806 C807 1.394 . S
C807 C803 1.397 . S
C807 C806 1.394 . S
C807 C817 1.723 . S
C808 C805 1.453 . S
C808 H832 0.982 . S
C808 H833 0.979 . S
C808 H834 0.977 . S
C809 C805 1.684 . S
C809 H835 0.979 . S
C809 H836 0.980 . S
C809 H837 0.983 . S
C810 H786 0.948 . S
C810 C811 1.391 . S
C810 C815 1.391 . S
C811 C810 1.391 . S
C811 C812 1.391 . S
C812 H789 0.947 1_556 S
C812 C811 1.391 . S
C812 C813 1.392 . S
C813 H790 0.948 . S
C813 C812 1.392 . S
C813 C814 1.419 . S
C814 C813 1.419 . S
C814 C815 1.391 . S
C814 C818 1.397 . S
C815 C810 1.391 . S
C815 C814 1.391 . S
C815 C816 1.399 . S
C816 C815 1.399 . S
C816 C817 1.396 . S
C816 C819 1.453 . S
C816 C820 1.684 . S
C817 C807 1.723 . S
C817 C816 1.396 . S
C817 C818 1.394 . S
C818 C788 1.723 . S
C818 C814 1.397 . S
C818 C817 1.394 . S
C819 H791 0.982 . S
C819 H795 0.979 . S
C819 H796 0.977 . S
C819 C816 1.453 . S
C820 H792 0.979 . S
C820 H793 0.980 . S
C820 H794 0.983 . S
C820 C816 1.684 . S
H821 C839 0.948 . S
H822 C780 0.948 . S
H823 C798 0.979 1_556 S
H824 C798 0.980 . S
H825 C798 0.983 . S
H826 C797 0.982 . S
H827 C797 0.979 . S
H828 C797 0.977 . S
H829 C799 0.948 . S
H830 C801 0.947 . S
H831 C802 0.948 . S
H832 C808 0.982 . S
H833 C808 0.979 . S
H834 C808 0.977 . S
H835 C809 0.979 . S
H836 C809 0.980 . S
H837 C809 0.983 . S
H838 C782 0.947 . S
C839 C782 1.392 . S
C839 C783 1.419 . S
C839 H821 0.948 . S
C840 C841 1.391 . S
C840 C844 1.391 . S
C840 H882 0.948 . S
C841 C840 1.391 . S
C841 C842 1.391 . S
C842 C841 1.391 . S
C842 H898 0.947 . S
C842 C899 1.392 . S
C843 C844 1.391 . S
C843 C847 1.397 . S
C843 C899 1.419 . S
C844 C840 1.391 . S
C844 C843 1.391 . S
C844 C845 1.399 . S
C845 C844 1.399 . S
C845 C848 1.396 . S
C845 C857 1.453 . S
C845 C858 1.684 . S
H846 C870 0.948 . S
C847 C843 1.397 . S
C847 C848 1.394 . S
C847 C866 1.723 . S
C848 C845 1.396 . S
C848 C847 1.394 . S
C848 C878 1.723 . S
H849 C872 0.947 . S
H850 C873 0.948 . S
H851 C879 0.982 . S
H852 C880 0.979 . S
H853 C880 0.980 . S
H854 C880 0.983 . S
H855 C879 0.979 . S
H856 C879 0.977 . S
C857 C845 1.453 . S
C857 H886 0.982 . S
C857 H887 0.979 . S
C857 H888 0.977 . S
C858 C845 1.684 . S
C858 H883 0.979 . S
C858 H884 0.980 . S
C858 H885 0.983 . S
C859 C860 1.391 . S
C859 C864 1.391 . S
C859 H889 0.948 . S
C860 C859 1.391 . S
C860 C861 1.391 . S
C861 C860 1.391 . S
C861 C862 1.392 . S
C861 H890 0.947 . S
C862 C861 1.392 . S
C862 C863 1.419 . S
C862 H891 0.948 . S
C863 C862 1.419 . S
C863 C864 1.391 . S
C863 C867 1.397 . S
C864 C859 1.391 . S
C864 C863 1.391 . S
C864 C865 1.399 . S
C865 C864 1.399 . S
C865 C866 1.396 . S
C865 C868 1.453 . S
C865 C869 1.684 . S
C866 C847 1.723 . S
C866 C865 1.396 . S
C866 C867 1.394 . S
C867 C863 1.397 . S
C867 C866 1.394 . S
C867 C877 1.723 . S
C868 C865 1.453 . S
C868 H892 0.982 . S
C868 H893 0.979 . S
C868 H894 0.977 . S
C869 C865 1.684 . S
C869 H895 0.979 . S
C869 H896 0.980 . S
C869 H897 0.983 . S
C870 H846 0.948 . S
C870 C871 1.391 . S
C870 C875 1.391 . S
C871 C870 1.391 . S
C871 C872 1.391 . S
C872 H849 0.947 . S
C872 C871 1.391 . S
C872 C873 1.392 . S
C873 H850 0.948 . S
C873 C872 1.392 . S
C873 C874 1.419 . S
C874 C873 1.419 . S
C874 C875 1.391 . S
C874 C878 1.397 . S
C875 C870 1.391 . S
C875 C874 1.391 . S
C875 C876 1.399 . S
C876 C875 1.399 . S
C876 C877 1.396 . S
C876 C879 1.453 . S
C876 C880 1.684 . S
C877 C867 1.723 . S
C877 C876 1.396 . S
C877 C878 1.394 . S
C878 C848 1.723 . S
C878 C874 1.397 . S
C878 C877 1.394 . S
C879 H851 0.982 . S
C879 H855 0.979 . S
C879 H856 0.977 . S
C879 C876 1.453 . S
C880 H852 0.979 . S
C880 H853 0.980 . S
C880 H854 0.983 . S
C880 C876 1.684 . S
H881 C899 0.948 . S
H882 C840 0.948 . S
H883 C858 0.979 . S
H884 C858 0.980 . S
H885 C858 0.983 . S
H886 C857 0.982 . S
H887 C857 0.979 . S
H888 C857 0.977 . S
H889 C859 0.948 . S
H890 C861 0.947 . S
H891 C862 0.948 . S
H892 C868 0.982 . S
H893 C868 0.979 . S
H894 C868 0.977 . S
H895 C869 0.979 . S
H896 C869 0.980 . S
H897 C869 0.983 . S
H898 C842 0.947 . S
C899 C842 1.392 . S
C899 C843 1.419 . S
C899 H881 0.948 . S
C900 C901 1.391 . S
C900 C904 1.391 1_565 S
C900 H942 0.948 1_556 S
C901 C900 1.391 . S
C901 C902 1.391 . S
C902 C901 1.391 . S
C902 H958 0.947 . S
C902 C959 1.392 . S
C903 C904 1.391 . S
C903 C907 1.397 . S
C903 C959 1.419 1_545 S
C904 C900 1.391 1_545 S
C904 C903 1.391 . S
C904 C905 1.399 . S
C905 C904 1.399 . S
C905 C908 1.396 . S
C905 C917 1.453 . S
C905 C918 1.684 1_556 S
H906 C930 0.948 . S
C907 C903 1.397 . S
C907 C908 1.394 . S
C907 C926 1.723 . S
C908 C905 1.396 . S
C908 C907 1.394 . S
C908 C938 1.723 . S
H909 C932 0.947 . S
H910 C933 0.948 . S
H911 C939 0.982 . S
H912 C940 0.979 . S
H913 C940 0.980 . S
H914 C940 0.983 . S
H915 C939 0.979 . S
H916 C939 0.977 . S
C917 C905 1.453 . S
C917 H946 0.982 . S
C917 H947 0.979 1_556 S
C917 H948 0.977 1_556 S
C918 C905 1.684 1_554 S
C918 H943 0.979 . S
C918 H944 0.980 . S
C918 H945 0.983 . S
C919 C920 1.391 . S
C919 C924 1.391 . S
C919 H949 0.948 1_545 S
C920 C919 1.391 . S
C920 C921 1.391 . S
C921 C920 1.391 . S
C921 C922 1.392 . S
C921 H950 0.947 . S
C922 C921 1.392 . S
C922 C923 1.419 . S
C922 H951 0.948 . S
C923 C922 1.419 . S
C923 C924 1.391 . S
C923 C927 1.397 . S
C924 C919 1.391 . S
C924 C923 1.391 . S
C924 C925 1.399 . S
C925 C924 1.399 . S
C925 C926 1.396 . S
C925 C928 1.453 1_545 S
C925 C929 1.684 1_545 S
C926 C907 1.723 . S
C926 C925 1.396 . S
C926 C927 1.394 . S
C927 C923 1.397 . S
C927 C926 1.394 . S
C927 C937 1.723 . S
C928 C925 1.453 1_565 S
C928 H952 0.983 1_565 S
C928 H953 0.978 . S
C928 H954 0.976 . S
C929 C925 1.684 1_565 S
C929 H955 0.979 . S
C929 H956 0.980 . S
C929 H957 0.983 . S
C930 H906 0.948 . S
C930 C931 1.391 . S
C930 C935 1.391 1_554 S
C931 C930 1.391 . S
C931 C932 1.391 . S
C932 H909 0.947 . S
C932 C931 1.391 . S
C932 C933 1.392 . S
C933 H910 0.948 . S
C933 C932 1.392 . S
C933 C934 1.411 1_554 S
C934 C933 1.411 1_556 S
C934 C935 1.393 . S
C934 C938 1.403 . S
C935 C930 1.391 1_556 S
C935 C934 1.393 . S
C935 C936 1.399 . S
C936 C935 1.399 . S
C936 C937 1.396 . S
C936 C939 1.453 . S
C936 C940 1.684 . S
C937 C927 1.723 . S
C937 C936 1.396 . S
C937 C938 1.394 . S
C938 C908 1.723 . S
C938 C934 1.403 . S
C938 C937 1.394 . S
C939 H911 0.982 . S
C939 H915 0.979 . S
C939 H916 0.977 . S
C939 C936 1.453 . S
C940 H912 0.979 . S
C940 H913 0.980 . S
C940 H914 0.983 . S
C940 C936 1.684 . S
H941 C959 0.948 . S
H942 C900 0.948 1_554 S
H943 C918 0.979 . S
H944 C918 0.980 . S
H945 C918 0.983 . S
H946 C917 0.982 . S
H947 C917 0.979 1_554 S
H948 C917 0.977 1_554 S
H949 C919 0.948 1_565 S
H950 C921 0.947 . S
H951 C922 0.948 . S
H952 C928 0.983 1_545 S
H953 C928 0.978 . S
H954 C928 0.976 . S
H955 C929 0.979 . S
H956 C929 0.980 . S
H957 C929 0.983 . S
H958 C902 0.947 . S
C959 C902 1.392 . S
C959 C903 1.419 1_565 S
C959 H941 0.948 . S
Mg960 O961 2.030 . S
Mg960 O967 1.986 1_554 S
Mg960 O969 2.114 . S
Mg960 O970 2.251 . S
Mg960 O973 2.010 . S
O961 Mg960 2.030 . S
O961 C964 1.248 1_554 S
O962 Mg963 2.028 . S
O962 C964 1.248 . S
Mg963 O962 2.028 . S
Mg963 O968 2.032 . S
Mg963 O970 2.079 1_556 S
C964 O961 1.248 1_556 S
C964 O962 1.248 . S
C965 O966 1.264 . S
C965 O973 1.249 . S
O966 C965 1.264 . S
O967 Mg960 1.986 1_556 S
O967 C971 1.246 . S
O968 Mg963 2.032 . S
O968 C971 1.259 . S
O969 Mg960 2.114 . S
O969 C972 1.252 . S
O970 Mg960 2.251 . S
O970 Mg963 2.079 1_554 S
O970 C972 1.273 . S
C971 O967 1.246 . S
C971 O968 1.259 . S
C972 O969 1.252 . S
C972 O970 1.273 . S
O973 Mg960 2.010 . S
O973 C965 1.249 . S
Mg974 O975 2.028 . S
Mg974 O981 1.986 . S
Mg974 O983 2.114 . S
Mg974 O984 2.251 . S
Mg974 O987 2.010 . S
O975 Mg974 2.028 . S
O975 C978 1.250 . S
O976 Mg977 2.028 . S
O976 C978 1.248 . S
Mg977 O976 2.028 . S
Mg977 O982 2.032 . S
Mg977 O984 2.079 . S
C978 O975 1.250 . S
C978 O976 1.248 . S
C979 O980 1.264 . S
C979 O987 1.249 . S
O980 C979 1.264 . S
O981 Mg974 1.986 . S
O981 C985 1.246 . S
O982 Mg977 2.032 . S
O982 C985 1.259 . S
O983 Mg974 2.114 . S
O983 C986 1.252 . S
O984 Mg974 2.251 . S
O984 Mg977 2.079 . S
O984 C986 1.273 . S
C985 O981 1.246 . S
C985 O982 1.259 . S
C986 O983 1.252 . S
C986 O984 1.273 . S
O987 Mg974 2.010 . S
O987 C979 1.249 . S
Mg988 O989 2.028 . S
Mg988 O995 1.986 1_554 S
Mg988 O997 2.114 . S
Mg988 O998 2.251 . S
Mg988 O1001 2.010 . S
O989 Mg988 2.028 . S
O989 C992 1.252 . S
O990 Mg991 2.028 . S
O990 C992 1.247 1_556 S
Mg991 O990 2.028 . S
Mg991 O996 2.032 . S
Mg991 O998 2.079 1_556 S
C992 O989 1.252 . S
C992 O990 1.247 1_554 S
C993 O994 1.264 . S
C993 O1001 1.249 . S
O994 C993 1.264 . S
O995 Mg988 1.986 1_556 S
O995 C999 1.246 . S
O996 Mg991 2.032 . S
O996 C999 1.259 . S
O997 Mg988 2.114 . S
O997 C1000 1.252 . S
O998 Mg988 2.251 . S
O998 Mg991 2.079 1_554 S
O998 C1000 1.273 . S
C999 O995 1.246 . S
C999 O996 1.259 . S
C1000 O997 1.252 . S
C1000 O998 1.273 . S
O1001 Mg988 2.010 . S
O1001 C993 1.249 . S
Mg1002 O1003 2.028 . S
Mg1002 O1009 1.986 . S
Mg1002 O1011 2.114 . S
Mg1002 O1012 2.251 . S
Mg1002 O1015 2.010 . S
O1003 Mg1002 2.028 . S
O1003 C1006 1.250 1_545 S
O1004 Mg1005 2.028 . S
O1004 C1006 1.248 . S
Mg1005 O1004 2.028 . S
Mg1005 O1010 2.032 . S
Mg1005 O1012 2.079 1_565 S
C1006 O1003 1.250 1_565 S
C1006 O1004 1.248 . S
C1007 O1008 1.264 . S
C1007 O1015 1.249 . S
O1008 C1007 1.264 . S
O1009 Mg1002 1.986 . S
O1009 C1013 1.246 . S
O1010 Mg1005 2.032 . S
O1010 C1013 1.259 1_565 S
O1011 Mg1002 2.114 . S
O1011 C1014 1.252 . S
O1012 Mg1002 2.251 . S
O1012 Mg1005 2.079 1_545 S
O1012 C1014 1.273 . S
C1013 O1009 1.246 . S
C1013 O1010 1.259 1_545 S
C1014 O1011 1.252 . S
C1014 O1012 1.273 . S
O1015 Mg1002 2.010 . S
O1015 C1007 1.249 . S
Mg1016 O1017 2.028 . S
Mg1016 O1023 1.986 . S
Mg1016 O1025 2.114 . S
Mg1016 O1026 2.251 . S
Mg1016 O1029 2.010 . S
O1017 Mg1016 2.028 . S
O1017 C1020 1.250 . S
O1018 Mg1019 2.028 . S
O1018 C1020 1.248 . S
Mg1019 O1018 2.028 . S
Mg1019 O1024 2.032 . S
Mg1019 O1026 2.079 . S
C1020 O1017 1.250 . S
C1020 O1018 1.248 . S
C1021 O1022 1.264 . S
C1021 O1029 1.249 . S
O1022 C1021 1.264 . S
O1023 Mg1016 1.986 . S
O1023 C1027 1.246 . S
O1024 Mg1019 2.032 . S
O1024 C1027 1.259 . S
O1025 Mg1016 2.114 . S
O1025 C1028 1.252 . S
O1026 Mg1016 2.251 . S
O1026 Mg1019 2.079 . S
O1026 C1028 1.273 . S
C1027 O1023 1.246 . S
C1027 O1024 1.259 . S
C1028 O1025 1.252 . S
C1028 O1026 1.273 . S
O1029 Mg1016 2.010 . S
O1029 C1021 1.249 . S
Mg1030 O1031 2.028 . S
Mg1030 O1037 1.986 . S
Mg1030 O1039 2.114 . S
Mg1030 O1040 2.251 . S
Mg1030 O1043 2.010 . S
O1031 Mg1030 2.028 . S
O1031 C1034 1.250 . S
O1032 Mg1033 2.028 . S
O1032 C1034 1.248 . S
Mg1033 O1032 2.028 . S
Mg1033 O1038 2.032 . S
Mg1033 O1040 2.079 . S
C1034 O1031 1.250 . S
C1034 O1032 1.248 . S
C1035 O1036 1.264 . S
C1035 O1043 1.249 . S
O1036 C1035 1.264 . S
O1037 Mg1030 1.986 . S
O1037 C1041 1.246 . S
O1038 Mg1033 2.032 . S
O1038 C1041 1.259 . S
O1039 Mg1030 2.114 . S
O1039 C1042 1.252 . S
O1040 Mg1030 2.251 . S
O1040 Mg1033 2.079 . S
O1040 C1042 1.273 . S
C1041 O1037 1.246 . S
C1041 O1038 1.259 . S
C1042 O1039 1.252 . S
C1042 O1040 1.273 . S
O1043 Mg1030 2.010 . S
O1043 C1035 1.249 . S
Mg1044 O1045 2.028 . S
Mg1044 O1051 1.986 . S
Mg1044 O1053 2.114 . S
Mg1044 O1054 2.251 . S
Mg1044 O1057 2.010 . S
O1045 Mg1044 2.028 . S
O1045 C1048 1.250 . S
O1046 Mg1047 2.028 . S
O1046 C1048 1.248 . S
Mg1047 O1046 2.028 . S
Mg1047 O1052 2.032 . S
Mg1047 O1054 2.079 . S
C1048 O1045 1.250 . S
C1048 O1046 1.248 . S
C1049 O1050 1.264 . S
C1049 O1057 1.249 . S
O1050 C1049 1.264 . S
O1051 Mg1044 1.986 . S
O1051 C1055 1.246 . S
O1052 Mg1047 2.032 . S
O1052 C1055 1.259 . S
O1053 Mg1044 2.114 . S
O1053 C1056 1.252 . S
O1054 Mg1044 2.251 . S
O1054 Mg1047 2.079 . S
O1054 C1056 1.273 . S
C1055 O1051 1.246 . S
C1055 O1052 1.259 . S
C1056 O1053 1.252 . S
C1056 O1054 1.273 . S
O1057 Mg1044 2.010 . S
O1057 C1049 1.249 . S
Mg1058 O1059 2.028 1_545 S
Mg1058 O1065 1.986 1_545 S
Mg1058 O1067 2.114 . S
Mg1058 O1068 2.251 . S
Mg1058 O1071 2.010 . S
O1059 Mg1058 2.028 1_565 S
O1059 C1062 1.250 . S
O1060 Mg1061 2.028 . S
O1060 C1062 1.248 . S
Mg1061 O1060 2.028 . S
Mg1061 O1066 2.032 . S
Mg1061 O1068 2.079 1_565 S
C1062 O1059 1.250 . S
C1062 O1060 1.248 . S
C1063 O1064 1.264 . S
C1063 O1071 1.249 . S
O1064 C1063 1.264 . S
O1065 Mg1058 1.986 1_565 S
O1065 C1069 1.246 . S
O1066 Mg1061 2.032 . S
O1066 C1069 1.259 . S
O1067 Mg1058 2.114 . S
O1067 C1070 1.252 . S
O1068 Mg1058 2.251 . S
O1068 Mg1061 2.079 1_545 S
O1068 C1070 1.273 . S
C1069 O1065 1.246 . S
C1069 O1066 1.259 . S
C1070 O1067 1.252 . S
C1070 O1068 1.273 . S
O1071 Mg1058 2.010 . S
O1071 C1063 1.249 . S
Mg1072 O1073 2.028 . S
Mg1072 O1079 1.986 . S
Mg1072 O1081 2.114 . S
Mg1072 O1082 2.251 . S
Mg1072 O1085 2.010 . S
O1073 Mg1072 2.028 . S
O1073 C1076 1.250 1_455 S
O1074 Mg1075 2.028 . S
O1074 C1076 1.248 . S
Mg1075 O1074 2.028 . S
Mg1075 O1080 2.032 . S
Mg1075 O1082 2.079 1_655 S
C1076 O1073 1.250 1_655 S
C1076 O1074 1.248 . S
C1077 O1078 1.264 . S
C1077 O1085 1.249 . S
O1078 C1077 1.264 . S
O1079 Mg1072 1.986 . S
O1079 C1083 1.246 . S
O1080 Mg1075 2.032 . S
O1080 C1083 1.259 1_655 S
O1081 Mg1072 2.114 . S
O1081 C1084 1.252 . S
O1082 Mg1072 2.251 . S
O1082 Mg1075 2.079 1_455 S
O1082 C1084 1.273 . S
C1083 O1079 1.246 . S
C1083 O1080 1.259 1_455 S
C1084 O1081 1.252 . S
C1084 O1082 1.273 . S
O1085 Mg1072 2.010 . S
O1085 C1077 1.249 . S
Mg1086 O1087 2.028 . S
Mg1086 O1093 1.986 . S
Mg1086 O1095 2.114 . S
Mg1086 O1096 2.251 . S
Mg1086 O1099 2.010 . S
O1087 Mg1086 2.028 . S
O1087 C1090 1.250 . S
O1088 Mg1089 2.028 . S
O1088 C1090 1.248 . S
Mg1089 O1088 2.028 . S
Mg1089 O1094 2.032 . S
Mg1089 O1096 2.079 . S
C1090 O1087 1.250 . S
C1090 O1088 1.248 . S
C1091 O1092 1.264 . S
C1091 O1099 1.249 . S
O1092 C1091 1.264 . S
O1093 Mg1086 1.986 . S
O1093 C1097 1.246 . S
O1094 Mg1089 2.032 . S
O1094 C1097 1.259 . S
O1095 Mg1086 2.114 . S
O1095 C1098 1.252 . S
O1096 Mg1086 2.251 . S
O1096 Mg1089 2.079 . S
O1096 C1098 1.273 . S
C1097 O1093 1.246 . S
C1097 O1094 1.259 . S
C1098 O1095 1.252 . S
C1098 O1096 1.273 . S
O1099 Mg1086 2.010 . S
O1099 C1091 1.249 . S
Mg1100 O1101 2.028 1_655 S
Mg1100 O1107 2.000 . S
Mg1100 O1109 2.114 . S
Mg1100 O1110 2.251 1_655 S
Mg1100 O1113 2.010 . S
O1101 Mg1100 2.028 1_455 S
O1101 C1104 1.250 . S
O1102 Mg1103 2.028 . S
O1102 C1104 1.248 . S
Mg1103 O1102 2.028 . S
Mg1103 O1108 2.032 . S
Mg1103 O1110 2.079 . S
C1104 O1101 1.250 . S
C1104 O1102 1.248 . S
C1105 O1106 1.264 . S
C1105 O1113 1.249 . S
O1106 C1105 1.264 . S
O1107 Mg1100 2.000 . S
O1107 C1111 1.208 1_655 S
O1108 Mg1103 2.032 . S
O1108 C1111 1.259 . S
O1109 Mg1100 2.114 . S
O1109 C1112 1.252 . S
O1110 Mg1100 2.251 1_455 S
O1110 Mg1103 2.079 . S
O1110 C1112 1.273 1_455 S
C1111 O1107 1.208 1_455 S
C1111 O1108 1.259 . S
C1112 O1109 1.252 . S
C1112 O1110 1.273 1_655 S
O1113 Mg1100 2.010 . S
O1113 C1105 1.249 . S
Mg1114 O1115 2.028 . S
Mg1114 O1121 1.986 . S
Mg1114 O1123 2.114 . S
Mg1114 O1124 2.251 . S
Mg1114 O1127 2.010 . S
O1115 Mg1114 2.028 . S
O1115 C1118 1.250 . S
O1116 Mg1117 2.028 . S
O1116 C1118 1.248 . S
Mg1117 O1116 2.028 . S
Mg1117 O1122 2.032 . S
Mg1117 O1124 2.079 . S
C1118 O1115 1.250 . S
C1118 O1116 1.248 . S
C1119 O1120 1.264 . S
C1119 O1127 1.249 . S
O1120 C1119 1.264 . S
O1121 Mg1114 1.986 . S
O1121 C1125 1.246 . S
O1122 Mg1117 2.032 . S
O1122 C1125 1.259 . S
O1123 Mg1114 2.114 . S
O1123 C1126 1.252 . S
O1124 Mg1114 2.251 . S
O1124 Mg1117 2.079 . S
O1124 C1126 1.273 . S
C1125 O1121 1.246 . S
C1125 O1122 1.259 . S
C1126 O1123 1.252 . S
C1126 O1124 1.273 . S
O1127 Mg1114 2.010 . S
O1127 C1119 1.249 . S
C1128 C1129 1.391 . S
C1128 C1130 1.394 . S
C1128 H1144 0.931 . S
C1129 C1128 1.391 . S
C1129 C1133 1.376 . S
C1130 C1128 1.394 . S
C1130 C1131 1.369 . S
C1130 C1134 1.531 . S
C1131 C1130 1.369 . S
C1131 C1132 1.410 . S
C1131 C1139 1.503 . S
C1132 C1131 1.410 . S
C1132 C1133 1.392 . S
C1132 C1135 1.511 . S
C1133 C1129 1.376 . S
C1133 C1132 1.392 . S
C1133 H1145 0.929 . S
C1134 C1130 1.531 . S
C1134 H1146 0.960 . S
C1134 H1147 0.962 . S
C1134 H1148 0.960 . S
C1135 C1132 1.511 . S
C1135 H1149 0.961 . S
C1135 H1150 0.961 . S
C1135 H1151 0.961 . S
C1136 C1137 1.370 . S
C1136 C1138 1.363 . S
C1136 H1152 0.931 . S
C1137 C1136 1.370 . S
C1137 C1141 1.408 . S
C1138 C1136 1.363 . S
C1138 C1139 1.370 . S
C1138 C1142 1.524 . S
C1139 C1131 1.503 . S
C1139 C1138 1.370 . S
C1139 C1140 1.403 . S
C1140 C1139 1.403 . S
C1140 C1141 1.404 . S
C1140 C1143 1.539 . S
C1141 C1137 1.408 . S
C1141 C1140 1.404 . S
C1141 H1153 0.930 . S
C1142 C1138 1.524 . S
C1142 H1154 0.956 . S
C1142 H1155 0.961 . S
C1142 H1156 0.961 . S
C1143 C1140 1.539 . S
C1143 H1157 0.958 . S
C1143 H1158 0.961 . S
C1143 H1159 0.960 . S
H1144 C1128 0.931 . S
H1145 C1133 0.929 . S
H1146 C1134 0.960 . S
H1147 C1134 0.962 . S
H1148 C1134 0.960 . S
H1149 C1135 0.961 . S
H1150 C1135 0.961 . S
H1151 C1135 0.961 . S
H1152 C1136 0.931 . S
H1153 C1141 0.930 . S
H1154 C1142 0.956 . S
H1155 C1142 0.961 . S
H1156 C1142 0.961 . S
H1157 C1143 0.958 . S
H1158 C1143 0.961 . S
H1159 C1143 0.960 . S
C1160 C1161 1.391 . S
C1160 C1162 1.394 . S
C1160 H1176 0.931 . S
C1161 C1160 1.391 . S
C1161 C1165 1.376 . S
C1162 C1160 1.394 . S
C1162 C1163 1.369 . S
C1162 C1166 1.531 . S
C1163 C1162 1.369 . S
C1163 C1164 1.410 . S
C1163 C1171 1.503 . S
C1164 C1163 1.410 . S
C1164 C1165 1.392 . S
C1164 C1167 1.511 . S
C1165 C1161 1.376 . S
C1165 C1164 1.392 . S
C1165 H1177 0.929 . S
C1166 C1162 1.531 . S
C1166 H1178 0.960 . S
C1166 H1179 0.962 . S
C1166 H1180 0.960 . S
C1167 C1164 1.511 . S
C1167 H1181 0.961 . S
C1167 H1182 0.961 . S
C1167 H1183 0.961 . S
C1168 C1169 1.370 . S
C1168 C1170 1.363 . S
C1168 H1184 0.931 . S
C1169 C1168 1.370 . S
C1169 C1173 1.408 . S
C1170 C1168 1.363 . S
C1170 C1171 1.370 . S
C1170 C1174 1.524 . S
C1171 C1163 1.503 . S
C1171 C1170 1.370 . S
C1171 C1172 1.403 . S
C1172 C1171 1.403 . S
C1172 C1173 1.404 . S
C1172 C1175 1.539 . S
C1173 C1169 1.408 . S
C1173 C1172 1.404 . S
C1173 H1185 0.930 . S
C1174 C1170 1.524 . S
C1174 H1186 0.956 . S
C1174 H1187 0.961 . S
C1174 H1188 0.961 . S
C1175 C1172 1.539 . S
C1175 H1189 0.958 . S
C1175 H1190 0.961 . S
C1175 H1191 0.960 . S
H1176 C1160 0.931 . S
H1177 C1165 0.929 . S
H1178 C1166 0.960 . S
H1179 C1166 0.962 . S
H1180 C1166 0.960 . S
H1181 C1167 0.961 . S
H1182 C1167 0.961 . S
H1183 C1167 0.961 . S
H1184 C1168 0.931 . S
H1185 C1173 0.930 . S
H1186 C1174 0.956 . S
H1187 C1174 0.961 . S
H1188 C1174 0.961 . S
H1189 C1175 0.958 . S
H1190 C1175 0.961 . S
H1191 C1175 0.960 . S
C1192 C1193 1.391 . S
C1192 C1194 1.394 . S
C1192 H1208 0.931 . S
C1193 C1192 1.391 . S
C1193 C1197 1.376 . S
C1194 C1192 1.394 . S
C1194 C1195 1.369 . S
C1194 C1198 1.531 . S
C1195 C1194 1.369 . S
C1195 C1196 1.410 . S
C1195 C1203 1.503 . S
C1196 C1195 1.410 . S
C1196 C1197 1.392 . S
C1196 C1199 1.511 . S
C1197 C1193 1.376 . S
C1197 C1196 1.392 . S
C1197 H1209 0.929 . S
C1198 C1194 1.531 . S
C1198 H1210 0.960 . S
C1198 H1211 0.962 . S
C1198 H1212 0.960 . S
C1199 C1196 1.511 . S
C1199 H1213 0.961 . S
C1199 H1214 0.961 . S
C1199 H1215 0.961 . S
C1200 C1201 1.370 . S
C1200 C1202 1.363 . S
C1200 H1216 0.931 . S
C1201 C1200 1.370 . S
C1201 C1205 1.408 . S
C1202 C1200 1.363 . S
C1202 C1203 1.370 . S
C1202 C1206 1.524 . S
C1203 C1195 1.503 . S
C1203 C1202 1.370 . S
C1203 C1204 1.403 . S
C1204 C1203 1.403 . S
C1204 C1205 1.404 . S
C1204 C1207 1.539 . S
C1205 C1201 1.408 . S
C1205 C1204 1.404 . S
C1205 H1217 0.930 . S
C1206 C1202 1.524 . S
C1206 H1218 0.956 . S
C1206 H1219 0.961 . S
C1206 H1220 0.961 . S
C1207 C1204 1.539 . S
C1207 H1221 0.958 . S
C1207 H1222 0.961 . S
C1207 H1223 0.960 . S
H1208 C1192 0.931 . S
H1209 C1197 0.929 . S
H1210 C1198 0.960 . S
H1211 C1198 0.962 . S
H1212 C1198 0.960 . S
H1213 C1199 0.961 . S
H1214 C1199 0.961 . S
H1215 C1199 0.961 . S
H1216 C1200 0.931 . S
H1217 C1205 0.930 . S
H1218 C1206 0.956 . S
H1219 C1206 0.961 . S
H1220 C1206 0.961 . S
H1221 C1207 0.958 . S
H1222 C1207 0.961 . S
H1223 C1207 0.960 . S
C1224 C1225 1.391 . S
C1224 C1226 1.394 . S
C1224 H1240 0.931 . S
C1225 C1224 1.391 . S
C1225 C1229 1.376 1_565 S
C1226 C1224 1.394 . S
C1226 C1227 1.369 . S
C1226 C1230 1.531 . S
C1227 C1226 1.369 . S
C1227 C1228 1.410 1_565 S
C1227 C1235 1.503 . S
C1228 C1227 1.410 1_545 S
C1228 C1229 1.392 . S
C1228 C1231 1.511 . S
C1229 C1225 1.376 1_545 S
C1229 C1228 1.392 . S
C1229 H1241 0.929 . S
C1230 C1226 1.531 . S
C1230 H1242 0.960 . S
C1230 H1243 0.962 . S
C1230 H1244 0.960 . S
C1231 C1228 1.511 . S
C1231 H1245 0.961 . S
C1231 H1246 0.961 . S
C1231 H1247 0.961 . S
C1232 C1233 1.370 . S
C1232 C1234 1.363 . S
C1232 H1248 0.931 . S
C1233 C1232 1.370 . S
C1233 C1237 1.408 1_545 S
C1234 C1232 1.363 . S
C1234 C1235 1.370 1_545 S
C1234 C1238 1.524 . S
C1235 C1227 1.503 . S
C1235 C1234 1.370 1_565 S
C1235 C1236 1.403 . S
C1236 C1235 1.403 . S
C1236 C1237 1.404 . S
C1236 C1239 1.539 . S
C1237 C1233 1.408 1_565 S
C1237 C1236 1.404 . S
C1237 H1249 0.930 . S
C1238 C1234 1.524 . S
C1238 H1250 0.956 . S
C1238 H1251 0.961 . S
C1238 H1252 0.961 . S
C1239 C1236 1.539 . S
C1239 H1253 0.958 . S
C1239 H1254 0.961 . S
C1239 H1255 0.960 . S
H1240 C1224 0.931 . S
H1241 C1229 0.929 . S
H1242 C1230 0.960 . S
H1243 C1230 0.962 . S
H1244 C1230 0.960 . S
H1245 C1231 0.961 . S
H1246 C1231 0.961 . S
H1247 C1231 0.961 . S
H1248 C1232 0.931 . S
H1249 C1237 0.930 . S
H1250 C1238 0.956 . S
H1251 C1238 0.961 . S
H1252 C1238 0.961 . S
H1253 C1239 0.958 . S
H1254 C1239 0.961 . S
H1255 C1239 0.960 . S
C1256 C1257 1.391 . S
C1256 C1258 1.394 . S
C1256 H1272 0.931 . S
C1257 C1256 1.391 . S
C1257 C1261 1.376 . S
C1258 C1256 1.394 . S
C1258 C1259 1.369 . S
C1258 C1262 1.531 . S
C1259 C1258 1.369 . S
C1259 C1260 1.410 . S
C1259 C1267 1.503 . S
C1260 C1259 1.410 . S
C1260 C1261 1.392 . S
C1260 C1263 1.511 . S
C1261 C1257 1.376 . S
C1261 C1260 1.392 . S
C1261 H1273 0.929 . S
C1262 C1258 1.531 . S
C1262 H1274 0.960 . S
C1262 H1275 0.962 . S
C1262 H1276 0.960 . S
C1263 C1260 1.511 . S
C1263 H1277 0.961 . S
C1263 H1278 0.961 . S
C1263 H1279 0.961 . S
C1264 C1265 1.370 . S
C1264 C1266 1.363 . S
C1264 H1280 0.931 . S
C1265 C1264 1.370 . S
C1265 C1269 1.408 . S
C1266 C1264 1.363 . S
C1266 C1267 1.370 . S
C1266 C1270 1.524 . S
C1267 C1259 1.503 . S
C1267 C1266 1.370 . S
C1267 C1268 1.403 . S
C1268 C1267 1.403 . S
C1268 C1269 1.404 . S
C1268 C1271 1.539 . S
C1269 C1265 1.408 . S
C1269 C1268 1.404 . S
C1269 H1281 0.930 . S
C1270 C1266 1.524 . S
C1270 H1282 0.956 . S
C1270 H1283 0.961 . S
C1270 H1284 0.961 . S
C1271 C1268 1.539 . S
C1271 H1285 0.958 . S
C1271 H1286 0.961 . S
C1271 H1287 0.960 . S
H1272 C1256 0.931 . S
H1273 C1261 0.929 . S
H1274 C1262 0.960 . S
H1275 C1262 0.962 . S
H1276 C1262 0.960 . S
H1277 C1263 0.961 . S
H1278 C1263 0.961 . S
H1279 C1263 0.961 . S
H1280 C1264 0.931 . S
H1281 C1269 0.930 . S
H1282 C1270 0.956 . S
H1283 C1270 0.961 . S
H1284 C1270 0.961 . S
H1285 C1271 0.958 . S
H1286 C1271 0.961 . S
H1287 C1271 0.960 . S
C1288 C1289 1.391 . S
C1288 C1290 1.394 . S
C1288 H1304 0.931 . S
C1289 C1288 1.391 . S
C1289 C1293 1.376 . S
C1290 C1288 1.394 . S
C1290 C1291 1.369 . S
C1290 C1294 1.531 . S
C1291 C1290 1.369 . S
C1291 C1292 1.410 . S
C1291 C1299 1.503 . S
C1292 C1291 1.410 . S
C1292 C1293 1.392 . S
C1292 C1295 1.511 . S
C1293 C1289 1.376 . S
C1293 C1292 1.392 . S
C1293 H1305 0.929 . S
C1294 C1290 1.531 . S
C1294 H1306 0.960 . S
C1294 H1307 0.962 . S
C1294 H1308 0.960 . S
C1295 C1292 1.511 . S
C1295 H1309 0.961 . S
C1295 H1310 0.961 . S
C1295 H1311 0.961 . S
C1296 C1297 1.370 . S
C1296 C1298 1.363 . S
C1296 H1312 0.931 . S
C1297 C1296 1.370 . S
C1297 C1301 1.408 . S
C1298 C1296 1.363 . S
C1298 C1299 1.370 . S
C1298 C1302 1.524 . S
C1299 C1291 1.503 . S
C1299 C1298 1.370 . S
C1299 C1300 1.403 . S
C1300 C1299 1.403 . S
C1300 C1301 1.404 . S
C1300 C1303 1.539 . S
C1301 C1297 1.408 . S
C1301 C1300 1.404 . S
C1301 H1313 0.930 . S
C1302 C1298 1.524 . S
C1302 H1314 0.956 . S
C1302 H1315 0.961 . S
C1302 H1316 0.961 . S
C1303 C1300 1.539 . S
C1303 H1317 0.958 . S
C1303 H1318 0.961 . S
C1303 H1319 0.960 . S
H1304 C1288 0.931 . S
H1305 C1293 0.929 . S
H1306 C1294 0.960 . S
H1307 C1294 0.962 . S
H1308 C1294 0.960 . S
H1309 C1295 0.961 . S
H1310 C1295 0.961 . S
H1311 C1295 0.961 . S
H1312 C1296 0.931 . S
H1313 C1301 0.930 . S
H1314 C1302 0.956 . S
H1315 C1302 0.961 . S
H1316 C1302 0.961 . S
H1317 C1303 0.958 . S
H1318 C1303 0.961 . S
H1319 C1303 0.960 . S
C1320 C1321 1.391 . S
C1320 C1322 1.394 . S
C1320 H1336 0.931 . S
C1321 C1320 1.391 . S
C1321 C1325 1.376 . S
C1322 C1320 1.394 . S
C1322 C1323 1.369 . S
C1322 C1326 1.531 . S
C1323 C1322 1.369 . S
C1323 C1324 1.410 . S
C1323 C1331 1.503 . S
C1324 C1323 1.410 . S
C1324 C1325 1.392 . S
C1324 C1327 1.511 . S
C1325 C1321 1.376 . S
C1325 C1324 1.392 . S
C1325 H1337 0.929 . S
C1326 C1322 1.531 . S
C1326 H1338 0.960 . S
C1326 H1339 0.962 . S
C1326 H1340 0.960 . S
C1327 C1324 1.511 . S
C1327 H1341 0.961 . S
C1327 H1342 0.961 . S
C1327 H1343 0.961 . S
C1328 C1329 1.370 . S
C1328 C1330 1.363 . S
C1328 H1344 0.931 . S
C1329 C1328 1.370 . S
C1329 C1333 1.408 . S
C1330 C1328 1.363 . S
C1330 C1331 1.370 . S
C1330 C1334 1.524 . S
C1331 C1323 1.503 . S
C1331 C1330 1.370 . S
C1331 C1332 1.403 . S
C1332 C1331 1.403 . S
C1332 C1333 1.404 . S
C1332 C1335 1.539 . S
C1333 C1329 1.408 . S
C1333 C1332 1.404 . S
C1333 H1345 0.930 . S
C1334 C1330 1.524 . S
C1334 H1346 0.956 . S
C1334 H1347 0.961 . S
C1334 H1348 0.961 . S
C1335 C1332 1.539 . S
C1335 H1349 0.958 . S
C1335 H1350 0.961 . S
C1335 H1351 0.960 . S
H1336 C1320 0.931 . S
H1337 C1325 0.929 . S
H1338 C1326 0.960 . S
H1339 C1326 0.962 . S
H1340 C1326 0.960 . S
H1341 C1327 0.961 . S
H1342 C1327 0.961 . S
H1343 C1327 0.961 . S
H1344 C1328 0.931 . S
H1345 C1333 0.930 . S
H1346 C1334 0.956 . S
H1347 C1334 0.961 . S
H1348 C1334 0.961 . S
H1349 C1335 0.958 . S
H1350 C1335 0.961 . S
H1351 C1335 0.960 . S
C1352 C1353 1.391 . S
C1352 C1354 1.394 . S
C1352 H1368 0.931 . S
C1353 C1352 1.391 . S
C1353 C1357 1.376 . S
C1354 C1352 1.394 . S
C1354 C1355 1.369 . S
C1354 C1358 1.531 . S
C1355 C1354 1.369 . S
C1355 C1356 1.410 . S
C1355 C1363 1.503 . S
C1356 C1355 1.410 . S
C1356 C1357 1.392 . S
C1356 C1359 1.511 1_565 S
C1357 C1353 1.376 . S
C1357 C1356 1.392 . S
C1357 H1369 0.929 . S
C1358 C1354 1.531 . S
C1358 H1370 0.960 . S
C1358 H1371 0.962 . S
C1358 H1372 0.960 . S
C1359 C1356 1.511 1_545 S
C1359 H1373 0.951 1_545 S
C1359 H1374 0.961 1_545 S
C1359 H1375 0.961 . S
C1360 C1361 1.370 . S
C1360 C1362 1.363 . S
C1360 H1376 0.931 . S
C1361 C1360 1.370 . S
C1361 C1365 1.408 1_565 S
C1362 C1360 1.363 . S
C1362 C1363 1.370 . S
C1362 C1366 1.524 . S
C1363 C1355 1.503 . S
C1363 C1362 1.370 . S
C1363 C1364 1.403 1_565 S
C1364 C1363 1.403 1_545 S
C1364 C1365 1.404 . S
C1364 C1367 1.539 . S
C1365 C1361 1.408 1_545 S
C1365 C1364 1.404 . S
C1365 H1377 0.930 . S
C1366 C1362 1.524 . S
C1366 H1378 0.956 . S
C1366 H1379 0.961 . S
C1366 H1380 0.961 . S
C1367 C1364 1.539 . S
C1367 H1381 0.958 . S
C1367 H1382 0.961 . S
C1367 H1383 0.960 . S
H1368 C1352 0.931 . S
H1369 C1357 0.929 . S
H1370 C1358 0.960 . S
H1371 C1358 0.962 . S
H1372 C1358 0.960 . S
H1373 C1359 0.951 1_565 S
H1374 C1359 0.961 1_565 S
H1375 C1359 0.961 . S
H1376 C1360 0.931 . S
H1377 C1365 0.930 . S
H1378 C1366 0.956 . S
H1379 C1366 0.961 . S
H1380 C1366 0.961 . S
H1381 C1367 0.958 . S
H1382 C1367 0.961 . S
H1383 C1367 0.960 . S
C1384 C1385 1.391 . S
C1384 C1386 1.394 . S
C1384 H1400 0.931 . S
C1385 C1384 1.391 . S
C1385 C1389 1.376 . S
C1386 C1384 1.394 . S
C1386 C1387 1.369 . S
C1386 C1390 1.531 . S
C1387 C1386 1.369 . S
C1387 C1388 1.410 . S
C1387 C1395 1.503 . S
C1388 C1387 1.410 . S
C1388 C1389 1.392 . S
C1388 C1391 1.511 . S
C1389 C1385 1.376 . S
C1389 C1388 1.392 . S
C1389 H1401 0.929 . S
C1390 C1386 1.531 . S
C1390 H1402 0.960 . S
C1390 H1403 0.962 . S
C1390 H1404 0.960 . S
C1391 C1388 1.511 . S
C1391 H1405 0.961 . S
C1391 H1406 0.961 . S
C1391 H1407 0.961 . S
C1392 C1393 1.370 . S
C1392 C1394 1.363 . S
C1392 H1408 0.931 . S
C1393 C1392 1.370 . S
C1393 C1397 1.408 . S
C1394 C1392 1.363 . S
C1394 C1395 1.370 . S
C1394 C1398 1.524 . S
C1395 C1387 1.503 . S
C1395 C1394 1.370 . S
C1395 C1396 1.403 . S
C1396 C1395 1.403 . S
C1396 C1397 1.404 . S
C1396 C1399 1.539 . S
C1397 C1393 1.408 . S
C1397 C1396 1.404 . S
C1397 H1409 0.930 . S
C1398 C1394 1.524 . S
C1398 H1410 0.956 . S
C1398 H1411 0.961 . S
C1398 H1412 0.961 . S
C1399 C1396 1.539 . S
C1399 H1413 0.958 . S
C1399 H1414 0.961 . S
C1399 H1415 0.960 . S
H1400 C1384 0.931 . S
H1401 C1389 0.929 . S
H1402 C1390 0.960 . S
H1403 C1390 0.962 . S
H1404 C1390 0.960 . S
H1405 C1391 0.961 . S
H1406 C1391 0.961 . S
H1407 C1391 0.961 . S
H1408 C1392 0.931 . S
H1409 C1397 0.930 . S
H1410 C1398 0.956 . S
H1411 C1398 0.961 . S
H1412 C1398 0.961 . S
H1413 C1399 0.958 . S
H1414 C1399 0.961 . S
H1415 C1399 0.960 . S
C1416 C1417 1.391 . S
C1416 C1418 1.394 . S
C1416 H1432 0.931 . S
C1417 C1416 1.391 . S
C1417 C1421 1.376 . S
C1418 C1416 1.394 . S
C1418 C1419 1.369 . S
C1418 C1422 1.531 . S
C1419 C1418 1.369 . S
C1419 C1420 1.410 . S
C1419 C1427 1.503 . S
C1420 C1419 1.410 . S
C1420 C1421 1.392 . S
C1420 C1423 1.511 . S
C1421 C1417 1.376 . S
C1421 C1420 1.392 . S
C1421 H1433 0.929 . S
C1422 C1418 1.531 . S
C1422 H1434 0.960 . S
C1422 H1435 0.962 . S
C1422 H1436 0.960 . S
C1423 C1420 1.511 . S
C1423 H1437 0.961 . S
C1423 H1438 0.961 . S
C1423 H1439 0.961 . S
C1424 C1425 1.370 . S
C1424 C1426 1.363 . S
C1424 H1440 0.931 . S
C1425 C1424 1.370 . S
C1425 C1429 1.408 . S
C1426 C1424 1.363 . S
C1426 C1427 1.370 . S
C1426 C1430 1.524 . S
C1427 C1419 1.503 . S
C1427 C1426 1.370 . S
C1427 C1428 1.403 . S
C1428 C1427 1.403 . S
C1428 C1429 1.404 . S
C1428 C1431 1.539 . S
C1429 C1425 1.408 . S
C1429 C1428 1.404 . S
C1429 H1441 0.930 . S
C1430 C1426 1.524 . S
C1430 H1442 0.956 . S
C1430 H1443 0.961 . S
C1430 H1444 0.961 . S
C1431 C1428 1.539 . S
C1431 H1445 0.958 . S
C1431 H1446 0.961 . S
C1431 H1447 0.960 . S
H1432 C1416 0.931 . S
H1433 C1421 0.929 . S
H1434 C1422 0.960 . S
H1435 C1422 0.962 . S
H1436 C1422 0.960 . S
H1437 C1423 0.961 . S
H1438 C1423 0.961 . S
H1439 C1423 0.961 . S
H1440 C1424 0.931 . S
H1441 C1429 0.930 . S
H1442 C1430 0.956 . S
H1443 C1430 0.961 . S
H1444 C1430 0.961 . S
H1445 C1431 0.958 . S
H1446 C1431 0.961 . S
H1447 C1431 0.960 . S
C1448 C1449 1.391 . S
C1448 C1450 1.394 . S
C1448 H1464 0.931 . S
C1449 C1448 1.391 . S
C1449 C1453 1.376 . S
C1450 C1448 1.394 . S
C1450 C1451 1.369 . S
C1450 C1454 1.531 . S
C1451 C1450 1.369 . S
C1451 C1452 1.410 . S
C1451 C1459 1.503 . S
C1452 C1451 1.410 . S
C1452 C1453 1.392 . S
C1452 C1455 1.511 . S
C1453 C1449 1.376 . S
C1453 C1452 1.392 . S
C1453 H1465 0.929 . S
C1454 C1450 1.531 . S
C1454 H1466 0.960 . S
C1454 H1467 0.962 . S
C1454 H1468 0.960 . S
C1455 C1452 1.511 . S
C1455 H1469 0.961 . S
C1455 H1470 0.961 . S
C1455 H1471 0.961 . S
C1456 C1457 1.370 . S
C1456 C1458 1.363 . S
C1456 H1472 0.931 . S
C1457 C1456 1.370 . S
C1457 C1461 1.408 . S
C1458 C1456 1.363 . S
C1458 C1459 1.370 . S
C1458 C1462 1.524 . S
C1459 C1451 1.503 . S
C1459 C1458 1.370 . S
C1459 C1460 1.403 . S
C1460 C1459 1.403 . S
C1460 C1461 1.404 . S
C1460 C1463 1.539 . S
C1461 C1457 1.408 . S
C1461 C1460 1.404 . S
C1461 H1473 0.930 . S
C1462 C1458 1.524 . S
C1462 H1474 0.956 . S
C1462 H1475 0.961 . S
C1462 H1476 0.961 . S
C1463 C1460 1.539 . S
C1463 H1477 0.958 . S
C1463 H1478 0.961 . S
C1463 H1479 0.960 . S
H1464 C1448 0.931 . S
H1465 C1453 0.929 . S
H1466 C1454 0.960 . S
H1467 C1454 0.962 . S
H1468 C1454 0.960 . S
H1469 C1455 0.961 . S
H1470 C1455 0.961 . S
H1471 C1455 0.961 . S
H1472 C1456 0.931 . S
H1473 C1461 0.930 . S
H1474 C1462 0.956 . S
H1475 C1462 0.961 . S
H1476 C1462 0.961 . S
H1477 C1463 0.958 . S
H1478 C1463 0.961 . S
H1479 C1463 0.960 . S
C1480 C1481 1.391 . S
C1480 C1482 1.394 . S
C1480 H1496 0.931 . S
C1481 C1480 1.391 . S
C1481 C1485 1.376 . S
C1482 C1480 1.394 . S
C1482 C1483 1.369 . S
C1482 C1486 1.531 . S
C1483 C1482 1.369 . S
C1483 C1484 1.410 . S
C1483 C1491 1.503 . S
C1484 C1483 1.410 . S
C1484 C1485 1.392 . S
C1484 C1487 1.511 . S
C1485 C1481 1.376 . S
C1485 C1484 1.392 . S
C1485 H1497 0.929 . S
C1486 C1482 1.531 . S
C1486 H1498 0.960 . S
C1486 H1499 0.962 . S
C1486 H1500 0.960 . S
C1487 C1484 1.511 . S
C1487 H1501 0.961 . S
C1487 H1502 0.961 . S
C1487 H1503 0.961 . S
C1488 C1489 1.370 . S
C1488 C1490 1.363 . S
C1488 H1504 0.931 . S
C1489 C1488 1.370 . S
C1489 C1493 1.408 . S
C1490 C1488 1.363 . S
C1490 C1491 1.370 . S
C1490 C1494 1.524 . S
C1491 C1483 1.503 . S
C1491 C1490 1.370 . S
C1491 C1492 1.403 . S
C1492 C1491 1.403 . S
C1492 C1493 1.404 . S
C1492 C1495 1.539 . S
C1493 C1489 1.408 . S
C1493 C1492 1.404 . S
C1493 H1505 0.930 . S
C1494 C1490 1.524 . S
C1494 H1506 0.956 . S
C1494 H1507 0.961 . S
C1494 H1508 0.961 . S
C1495 C1492 1.539 . S
C1495 H1509 0.958 . S
C1495 H1510 0.961 . S
C1495 H1511 0.960 . S
H1496 C1480 0.931 . S
H1497 C1485 0.929 . S
H1498 C1486 0.960 . S
H1499 C1486 0.962 . S
H1500 C1486 0.960 . S
H1501 C1487 0.961 . S
H1502 C1487 0.961 . S
H1503 C1487 0.961 . S
H1504 C1488 0.931 . S
H1505 C1493 0.930 . S
H1506 C1494 0.956 . S
H1507 C1494 0.961 . S
H1508 C1494 0.961 . S
H1509 C1495 0.958 . S
H1510 C1495 0.961 . S
H1511 C1495 0.960 . S
C1512 C1513 1.391 . S
C1512 C1514 1.394 . S
C1512 H1528 0.931 . S
C1513 C1512 1.391 . S
C1513 C1517 1.376 . S
C1514 C1512 1.394 . S
C1514 C1515 1.369 . S
C1514 C1518 1.531 . S
C1515 C1514 1.369 . S
C1515 C1516 1.410 . S
C1515 C1523 1.503 . S
C1516 C1515 1.410 . S
C1516 C1517 1.392 . S
C1516 C1519 1.511 . S
C1517 C1513 1.376 . S
C1517 C1516 1.392 . S
C1517 H1529 0.929 . S
C1518 C1514 1.531 . S
C1518 H1530 0.960 . S
C1518 H1531 0.962 . S
C1518 H1532 0.960 . S
C1519 C1516 1.511 . S
C1519 H1533 0.961 . S
C1519 H1534 0.961 . S
C1519 H1535 0.961 . S
C1520 C1521 1.370 . S
C1520 C1522 1.363 . S
C1520 H1536 0.931 . S
C1521 C1520 1.370 . S
C1521 C1525 1.408 . S
C1522 C1520 1.363 . S
C1522 C1523 1.370 . S
C1522 C1526 1.524 . S
C1523 C1515 1.503 . S
C1523 C1522 1.370 . S
C1523 C1524 1.403 . S
C1524 C1523 1.403 . S
C1524 C1525 1.404 . S
C1524 C1527 1.539 . S
C1525 C1521 1.408 . S
C1525 C1524 1.404 . S
C1525 H1537 0.930 . S
C1526 C1522 1.524 . S
C1526 H1538 0.956 . S
C1526 H1539 0.961 . S
C1526 H1540 0.961 . S
C1527 C1524 1.539 . S
C1527 H1541 0.958 . S
C1527 H1542 0.961 . S
C1527 H1543 0.960 . S
H1528 C1512 0.931 . S
H1529 C1517 0.929 . S
H1530 C1518 0.960 . S
H1531 C1518 0.962 . S
H1532 C1518 0.960 . S
H1533 C1519 0.961 . S
H1534 C1519 0.961 . S
H1535 C1519 0.961 . S
H1536 C1520 0.931 . S
H1537 C1525 0.930 . S
H1538 C1526 0.956 . S
H1539 C1526 0.961 . S
H1540 C1526 0.961 . S
H1541 C1527 0.958 . S
H1542 C1527 0.961 . S
H1543 C1527 0.960 . S
C1544 C1545 1.391 . S
C1544 C1546 1.394 . S
C1544 H1560 0.931 . S
C1545 C1544 1.391 . S
C1545 C1549 1.376 . S
C1546 C1544 1.394 . S
C1546 C1547 1.369 . S
C1546 C1550 1.531 . S
C1547 C1546 1.369 . S
C1547 C1548 1.410 . S
C1547 C1555 1.503 . S
C1548 C1547 1.410 . S
C1548 C1549 1.392 . S
C1548 C1551 1.511 . S
C1549 C1545 1.376 . S
C1549 C1548 1.392 . S
C1549 H1561 0.929 . S
C1550 C1546 1.531 . S
C1550 H1562 0.960 . S
C1550 H1563 0.962 1_455 S
C1550 H1564 0.961 1_455 S
C1551 C1548 1.511 . S
C1551 H1565 0.961 . S
C1551 H1566 0.961 . S
C1551 H1567 0.961 . S
C1552 C1553 1.370 . S
C1552 C1554 1.363 . S
C1552 H1568 0.931 1_455 S
C1553 C1552 1.370 . S
C1553 C1557 1.408 . S
C1554 C1552 1.363 . S
C1554 C1555 1.370 . S
C1554 C1558 1.524 1_455 S
C1555 C1547 1.503 . S
C1555 C1554 1.370 . S
C1555 C1556 1.403 . S
C1556 C1555 1.403 . S
C1556 C1557 1.404 . S
C1556 C1559 1.539 . S
C1557 C1553 1.408 . S
C1557 C1556 1.404 . S
C1557 H1569 0.930 . S
C1558 C1554 1.524 1_655 S
C1558 H1570 0.956 . S
C1558 H1571 0.961 1_655 S
C1558 H1572 0.961 . S
C1559 C1556 1.539 . S
C1559 H1573 0.958 . S
C1559 H1574 0.961 . S
C1559 H1575 0.960 . S
H1560 C1544 0.931 . S
H1561 C1549 0.929 . S
H1562 C1550 0.960 . S
H1563 C1550 0.962 1_655 S
H1564 C1550 0.961 1_655 S
H1565 C1551 0.961 . S
H1566 C1551 0.961 . S
H1567 C1551 0.961 . S
H1568 C1552 0.931 1_655 S
H1569 C1557 0.930 . S
H1570 C1558 0.956 . S
H1571 C1558 0.961 1_455 S
H1572 C1558 0.961 . S
H1573 C1559 0.958 . S
H1574 C1559 0.961 . S
H1575 C1559 0.960 . S
C1576 C1577 1.391 . S
C1576 C1578 1.394 . S
C1576 H1592 0.931 . S
C1577 C1576 1.391 . S
C1577 C1581 1.376 . S
C1578 C1576 1.394 . S
C1578 C1579 1.369 . S
C1578 C1582 1.531 . S
C1579 C1578 1.369 . S
C1579 C1580 1.410 . S
C1579 C1587 1.503 . S
C1580 C1579 1.410 . S
C1580 C1581 1.392 . S
C1580 C1583 1.511 . S
C1581 C1577 1.376 . S
C1581 C1580 1.392 . S
C1581 H1593 0.929 . S
C1582 C1578 1.531 . S
C1582 H1594 0.960 . S
C1582 H1595 0.962 . S
C1582 H1596 0.960 . S
C1583 C1580 1.511 . S
C1583 H1597 0.961 . S
C1583 H1598 0.961 . S
C1583 H1599 0.961 . S
C1584 C1585 1.370 . S
C1584 C1586 1.363 . S
C1584 H1600 0.931 . S
C1585 C1584 1.370 . S
C1585 C1589 1.408 . S
C1586 C1584 1.363 . S
C1586 C1587 1.370 . S
C1586 C1590 1.524 . S
C1587 C1579 1.503 . S
C1587 C1586 1.370 . S
C1587 C1588 1.403 . S
C1588 C1587 1.403 . S
C1588 C1589 1.404 . S
C1588 C1591 1.539 . S
C1589 C1585 1.408 . S
C1589 C1588 1.404 . S
C1589 H1601 0.930 . S
C1590 C1586 1.524 . S
C1590 H1602 0.956 . S
C1590 H1603 0.961 . S
C1590 H1604 0.961 . S
C1591 C1588 1.539 . S
C1591 H1605 0.958 . S
C1591 H1606 0.961 . S
C1591 H1607 0.960 . S
H1592 C1576 0.931 . S
H1593 C1581 0.929 . S
H1594 C1582 0.960 . S
H1595 C1582 0.962 . S
H1596 C1582 0.960 . S
H1597 C1583 0.961 . S
H1598 C1583 0.961 . S
H1599 C1583 0.961 . S
H1600 C1584 0.931 . S
H1601 C1589 0.930 . S
H1602 C1590 0.956 . S
H1603 C1590 0.961 . S
H1604 C1590 0.961 . S
H1605 C1591 0.958 . S
H1606 C1591 0.961 . S
H1607 C1591 0.960 . S
C1608 C1609 1.391 . S
C1608 C1610 1.394 . S
C1608 H1624 0.931 . S
C1609 C1608 1.391 . S
C1609 C1613 1.358 1_655 S
C1610 C1608 1.394 . S
C1610 C1611 1.369 . S
C1610 C1614 1.531 . S
C1611 C1610 1.369 . S
C1611 C1612 1.410 1_655 S
C1611 C1619 1.503 . S
C1612 C1611 1.410 1_455 S
C1612 C1613 1.395 . S
C1612 C1615 1.511 . S
C1613 C1609 1.358 1_455 S
C1613 C1612 1.395 . S
C1613 H1625 0.945 . S
C1614 C1610 1.531 . S
C1614 H1626 0.960 . S
C1614 H1627 0.962 . S
C1614 H1628 0.960 . S
C1615 C1612 1.511 . S
C1615 H1629 0.961 . S
C1615 H1630 0.961 . S
C1615 H1631 0.961 . S
C1616 C1617 1.370 . S
C1616 C1618 1.363 . S
C1616 H1632 0.931 . S
C1617 C1616 1.370 . S
C1617 C1621 1.408 1_655 S
C1618 C1616 1.363 . S
C1618 C1619 1.370 . S
C1618 C1622 1.524 . S
C1619 C1611 1.503 . S
C1619 C1618 1.370 . S
C1619 C1620 1.391 1_655 S
C1620 C1619 1.391 1_455 S
C1620 C1621 1.405 . S
C1620 C1623 1.552 . S
C1621 C1617 1.408 1_455 S
C1621 C1620 1.405 . S
C1621 H1633 0.930 . S
C1622 C1618 1.524 . S
C1622 H1634 0.956 . S
C1622 H1635 0.961 . S
C1622 H1636 0.961 . S
C1623 C1620 1.552 . S
C1623 H1637 0.958 . S
C1623 H1638 0.961 . S
C1623 H1639 0.960 . S
H1624 C1608 0.931 . S
H1625 C1613 0.945 . S
H1626 C1614 0.960 . S
H1627 C1614 0.962 . S
H1628 C1614 0.960 . S
H1629 C1615 0.961 . S
H1630 C1615 0.961 . S
H1631 C1615 0.961 . S
H1632 C1616 0.931 . S
H1633 C1621 0.930 . S
H1634 C1622 0.956 . S
H1635 C1622 0.961 . S
H1636 C1622 0.961 . S
H1637 C1623 0.958 . S
H1638 C1623 0.961 . S
H1639 C1623 0.960 . S
C1640 C1641 1.391 . S
C1640 C1642 1.394 . S
C1640 H1656 0.931 . S
C1641 C1640 1.391 . S
C1641 C1645 1.376 . S
C1642 C1640 1.394 . S
C1642 C1643 1.369 . S
C1642 C1646 1.531 . S
C1643 C1642 1.369 . S
C1643 C1644 1.410 . S
C1643 C1651 1.503 . S
C1644 C1643 1.410 . S
C1644 C1645 1.392 . S
C1644 C1647 1.511 . S
C1645 C1641 1.376 . S
C1645 C1644 1.392 . S
C1645 H1657 0.929 . S
C1646 C1642 1.531 . S
C1646 H1658 0.960 . S
C1646 H1659 0.962 . S
C1646 H1660 0.960 . S
C1647 C1644 1.511 . S
C1647 H1661 0.961 . S
C1647 H1662 0.961 . S
C1647 H1663 0.961 . S
C1648 C1649 1.370 . S
C1648 C1650 1.363 . S
C1648 H1664 0.931 . S
C1649 C1648 1.370 . S
C1649 C1653 1.408 . S
C1650 C1648 1.363 . S
C1650 C1651 1.370 . S
C1650 C1654 1.524 . S
C1651 C1643 1.503 . S
C1651 C1650 1.370 . S
C1651 C1652 1.403 . S
C1652 C1651 1.403 . S
C1652 C1653 1.404 . S
C1652 C1655 1.539 . S
C1653 C1649 1.408 . S
C1653 C1652 1.404 . S
C1653 H1665 0.930 . S
C1654 C1650 1.524 . S
C1654 H1666 0.956 . S
C1654 H1667 0.961 . S
C1654 H1668 0.961 . S
C1655 C1652 1.539 . S
C1655 H1669 0.958 . S
C1655 H1670 0.961 . S
C1655 H1671 0.960 . S
H1656 C1640 0.931 . S
H1657 C1645 0.929 . S
H1658 C1646 0.960 . S
H1659 C1646 0.962 . S
H1660 C1646 0.960 . S
H1661 C1647 0.961 . S
H1662 C1647 0.961 . S
H1663 C1647 0.961 . S
H1664 C1648 0.931 . S
H1665 C1653 0.930 . S
H1666 C1654 0.956 . S
H1667 C1654 0.961 . S
H1668 C1654 0.961 . S
H1669 C1655 0.958 . S
H1670 C1655 0.961 . S
H1671 C1655 0.960 . S
C1672 C1673 1.391 . S
C1672 C1674 1.394 . S
C1672 H1688 0.931 . S
C1673 C1672 1.391 . S
C1673 C1677 1.376 . S
C1674 C1672 1.394 . S
C1674 C1675 1.369 . S
C1674 C1678 1.531 . S
C1675 C1674 1.369 . S
C1675 C1676 1.410 . S
C1675 C1683 1.503 . S
C1676 C1675 1.410 . S
C1676 C1677 1.392 . S
C1676 C1679 1.511 . S
C1677 C1673 1.376 . S
C1677 C1676 1.392 . S
C1677 H1689 0.929 . S
C1678 C1674 1.531 . S
C1678 H1690 0.960 . S
C1678 H1691 0.962 . S
C1678 H1692 0.960 . S
C1679 C1676 1.511 . S
C1679 H1693 0.961 . S
C1679 H1694 0.961 . S
C1679 H1695 0.961 . S
C1680 C1681 1.370 . S
C1680 C1682 1.363 . S
C1680 H1696 0.931 . S
C1681 C1680 1.370 . S
C1681 C1685 1.408 . S
C1682 C1680 1.363 . S
C1682 C1683 1.370 . S
C1682 C1686 1.524 . S
C1683 C1675 1.503 . S
C1683 C1682 1.370 . S
C1683 C1684 1.403 . S
C1684 C1683 1.403 . S
C1684 C1685 1.404 . S
C1684 C1687 1.539 . S
C1685 C1681 1.408 . S
C1685 C1684 1.404 . S
C1685 H1697 0.930 . S
C1686 C1682 1.524 . S
C1686 H1698 0.956 . S
C1686 H1699 0.961 . S
C1686 H1700 0.961 . S
C1687 C1684 1.539 . S
C1687 H1701 0.958 . S
C1687 H1702 0.961 . S
C1687 H1703 0.960 . S
H1688 C1672 0.931 . S
H1689 C1677 0.929 . S
H1690 C1678 0.960 . S
H1691 C1678 0.962 . S
H1692 C1678 0.960 . S
H1693 C1679 0.961 . S
H1694 C1679 0.961 . S
H1695 C1679 0.961 . S
H1696 C1680 0.931 . S
H1697 C1685 0.930 . S
H1698 C1686 0.956 . S
H1699 C1686 0.961 . S
H1700 C1686 0.961 . S
H1701 C1687 0.958 . S
H1702 C1687 0.961 . S
H1703 C1687 0.960 . S
C1704 C1705 1.391 . S
C1704 C1706 1.394 . S
C1704 H1720 0.931 . S
C1705 C1704 1.391 . S
C1705 C1709 1.376 . S
C1706 C1704 1.394 . S
C1706 C1707 1.369 . S
C1706 C1710 1.531 . S
C1707 C1706 1.369 . S
C1707 C1708 1.410 . S
C1707 C1715 1.503 . S
C1708 C1707 1.410 . S
C1708 C1709 1.392 . S
C1708 C1711 1.511 . S
C1709 C1705 1.376 . S
C1709 C1708 1.392 . S
C1709 H1721 0.929 . S
C1710 C1706 1.531 . S
C1710 H1722 0.960 1_556 S
C1710 H1723 0.962 . S
C1710 H1724 0.960 1_556 S
C1711 C1708 1.511 . S
C1711 H1725 0.961 . S
C1711 H1726 0.961 . S
C1711 H1727 0.961 1_556 S
C1712 C1713 1.370 . S
C1712 C1714 1.363 . S
C1712 H1728 0.931 . S
C1713 C1712 1.370 . S
C1713 C1717 1.408 1_556 S
C1714 C1712 1.363 . S
C1714 C1715 1.370 . S
C1714 C1718 1.524 . S
C1715 C1707 1.503 . S
C1715 C1714 1.370 . S
C1715 C1716 1.403 1_556 S
C1716 C1715 1.403 1_554 S
C1716 C1717 1.404 . S
C1716 C1719 1.539 . S
C1717 C1713 1.408 1_554 S
C1717 C1716 1.404 . S
C1717 H1729 0.930 . S
C1718 C1714 1.524 . S
C1718 H1730 0.956 . S
C1718 H1731 0.961 . S
C1718 H1732 0.961 . S
C1719 C1716 1.539 . S
C1719 H1733 0.958 . S
C1719 H1734 0.961 . S
C1719 H1735 0.960 . S
H1720 C1704 0.931 . S
H1721 C1709 0.929 . S
H1722 C1710 0.960 1_554 S
H1723 C1710 0.962 . S
H1724 C1710 0.960 1_554 S
H1725 C1711 0.961 . S
H1726 C1711 0.961 . S
H1727 C1711 0.961 1_554 S
H1728 C1712 0.931 . S
H1729 C1717 0.930 . S
H1730 C1718 0.956 . S
H1731 C1718 0.961 . S
H1732 C1718 0.961 . S
H1733 C1719 0.958 . S
H1734 C1719 0.961 . S
H1735 C1719 0.960 . S
C1736 C1737 1.391 . S
C1736 C1738 1.394 . S
C1736 H1752 0.931 . S
C1737 C1736 1.391 . S
C1737 C1741 1.376 . S
C1738 C1736 1.394 . S
C1738 C1739 1.369 . S
C1738 C1742 1.531 . S
C1739 C1738 1.369 . S
C1739 C1740 1.410 . S
C1739 C1747 1.503 . S
C1740 C1739 1.410 . S
C1740 C1741 1.392 . S
C1740 C1743 1.511 . S
C1741 C1737 1.376 . S
C1741 C1740 1.392 . S
C1741 H1753 0.929 . S
C1742 C1738 1.531 . S
C1742 H1754 0.960 . S
C1742 H1755 0.962 . S
C1742 H1756 0.960 . S
C1743 C1740 1.511 . S
C1743 H1757 0.961 . S
C1743 H1758 0.961 . S
C1743 H1759 0.961 . S
C1744 C1745 1.370 . S
C1744 C1746 1.363 . S
C1744 H1760 0.931 . S
C1745 C1744 1.370 . S
C1745 C1749 1.408 . S
C1746 C1744 1.363 . S
C1746 C1747 1.370 . S
C1746 C1750 1.524 . S
C1747 C1739 1.503 . S
C1747 C1746 1.370 . S
C1747 C1748 1.403 . S
C1748 C1747 1.403 . S
C1748 C1749 1.404 . S
C1748 C1751 1.539 . S
C1749 C1745 1.408 . S
C1749 C1748 1.404 . S
C1749 H1761 0.930 . S
C1750 C1746 1.524 . S
C1750 H1762 0.956 . S
C1750 H1763 0.961 . S
C1750 H1764 0.961 . S
C1751 C1748 1.539 . S
C1751 H1765 0.958 . S
C1751 H1766 0.961 . S
C1751 H1767 0.960 . S
H1752 C1736 0.931 . S
H1753 C1741 0.929 . S
H1754 C1742 0.960 . S
H1755 C1742 0.962 . S
H1756 C1742 0.960 . S
H1757 C1743 0.961 . S
H1758 C1743 0.961 . S
H1759 C1743 0.961 . S
H1760 C1744 0.931 . S
H1761 C1749 0.930 . S
H1762 C1750 0.956 . S
H1763 C1750 0.961 . S
H1764 C1750 0.961 . S
H1765 C1751 0.958 . S
H1766 C1751 0.961 . S
H1767 C1751 0.960 . S
C1768 C1769 1.391 . S
C1768 C1770 1.394 . S
C1768 H1784 0.931 . S
C1769 C1768 1.391 . S
C1769 C1773 1.376 . S
C1770 C1768 1.394 . S
C1770 C1771 1.369 . S
C1770 C1774 1.531 . S
C1771 C1770 1.369 . S
C1771 C1772 1.410 . S
C1771 C1779 1.503 . S
C1772 C1771 1.410 . S
C1772 C1773 1.392 . S
C1772 C1775 1.511 . S
C1773 C1769 1.376 . S
C1773 C1772 1.392 . S
C1773 H1785 0.929 . S
C1774 C1770 1.531 . S
C1774 H1786 0.960 . S
C1774 H1787 0.962 . S
C1774 H1788 0.960 . S
C1775 C1772 1.511 . S
C1775 H1789 0.961 . S
C1775 H1790 0.961 . S
C1775 H1791 0.961 . S
C1776 C1777 1.370 . S
C1776 C1778 1.363 . S
C1776 H1792 0.931 . S
C1777 C1776 1.370 . S
C1777 C1781 1.408 . S
C1778 C1776 1.363 . S
C1778 C1779 1.370 . S
C1778 C1782 1.524 . S
C1779 C1771 1.503 . S
C1779 C1778 1.370 . S
C1779 C1780 1.403 . S
C1780 C1779 1.403 . S
C1780 C1781 1.404 . S
C1780 C1783 1.539 . S
C1781 C1777 1.408 . S
C1781 C1780 1.404 . S
C1781 H1793 0.930 . S
C1782 C1778 1.524 . S
C1782 H1794 0.956 . S
C1782 H1795 0.961 . S
C1782 H1796 0.961 . S
C1783 C1780 1.539 . S
C1783 H1797 0.958 . S
C1783 H1798 0.961 . S
C1783 H1799 0.960 . S
H1784 C1768 0.931 . S
H1785 C1773 0.929 . S
H1786 C1774 0.960 . S
H1787 C1774 0.962 . S
H1788 C1774 0.960 . S
H1789 C1775 0.961 . S
H1790 C1775 0.961 . S
H1791 C1775 0.961 . S
H1792 C1776 0.931 . S
H1793 C1781 0.930 . S
H1794 C1782 0.956 . S
H1795 C1782 0.961 . S
H1796 C1782 0.961 . S
H1797 C1783 0.958 . S
H1798 C1783 0.961 . S
H1799 C1783 0.960 . S
C1800 C1801 1.391 . S
C1800 C1802 1.394 . S
C1800 H1816 0.931 . S
C1801 C1800 1.391 . S
C1801 C1805 1.376 . S
C1802 C1800 1.394 . S
C1802 C1803 1.369 . S
C1802 C1806 1.531 . S
C1803 C1802 1.369 . S
C1803 C1804 1.410 . S
C1803 C1811 1.503 . S
C1804 C1803 1.410 . S
C1804 C1805 1.392 . S
C1804 C1807 1.511 . S
C1805 C1801 1.376 . S
C1805 C1804 1.392 . S
C1805 H1817 0.929 . S
C1806 C1802 1.531 . S
C1806 H1818 0.960 . S
C1806 H1819 0.962 . S
C1806 H1820 0.960 . S
C1807 C1804 1.511 . S
C1807 H1821 0.961 . S
C1807 H1822 0.961 . S
C1807 H1823 0.961 . S
C1808 C1809 1.370 . S
C1808 C1810 1.363 . S
C1808 H1824 0.931 . S
C1809 C1808 1.370 . S
C1809 C1813 1.408 . S
C1810 C1808 1.363 . S
C1810 C1811 1.370 . S
C1810 C1814 1.524 . S
C1811 C1803 1.503 . S
C1811 C1810 1.370 . S
C1811 C1812 1.403 . S
C1812 C1811 1.403 . S
C1812 C1813 1.404 . S
C1812 C1815 1.539 . S
C1813 C1809 1.408 . S
C1813 C1812 1.404 . S
C1813 H1825 0.930 . S
C1814 C1810 1.524 . S
C1814 H1826 0.956 . S
C1814 H1827 0.961 . S
C1814 H1828 0.961 . S
C1815 C1812 1.539 . S
C1815 H1829 0.958 . S
C1815 H1830 0.961 . S
C1815 H1831 0.960 . S
H1816 C1800 0.931 . S
H1817 C1805 0.929 . S
H1818 C1806 0.960 . S
H1819 C1806 0.962 . S
H1820 C1806 0.960 . S
H1821 C1807 0.961 . S
H1822 C1807 0.961 . S
H1823 C1807 0.961 . S
H1824 C1808 0.931 . S
H1825 C1813 0.930 . S
H1826 C1814 0.956 . S
H1827 C1814 0.961 . S
H1828 C1814 0.961 . S
H1829 C1815 0.958 . S
H1830 C1815 0.961 . S
H1831 C1815 0.960 . S
C1832 C1833 1.391 . S
C1832 C1834 1.394 . S
C1832 H1848 0.931 . S
C1833 C1832 1.391 . S
C1833 C1837 1.376 . S
C1834 C1832 1.394 . S
C1834 C1835 1.369 . S
C1834 C1838 1.531 . S
C1835 C1834 1.369 . S
C1835 C1836 1.410 . S
C1835 C1843 1.503 . S
C1836 C1835 1.410 . S
C1836 C1837 1.392 . S
C1836 C1839 1.511 . S
C1837 C1833 1.376 . S
C1837 C1836 1.392 . S
C1837 H1849 0.929 . S
C1838 C1834 1.531 . S
C1838 H1850 0.960 . S
C1838 H1851 0.962 . S
C1838 H1852 0.960 . S
C1839 C1836 1.511 . S
C1839 H1853 0.961 . S
C1839 H1854 0.961 . S
C1839 H1855 0.961 . S
C1840 C1841 1.370 . S
C1840 C1842 1.363 . S
C1840 H1856 0.931 . S
C1841 C1840 1.370 . S
C1841 C1845 1.408 . S
C1842 C1840 1.363 . S
C1842 C1843 1.370 . S
C1842 C1846 1.524 . S
C1843 C1835 1.503 . S
C1843 C1842 1.370 . S
C1843 C1844 1.403 . S
C1844 C1843 1.403 . S
C1844 C1845 1.404 . S
C1844 C1847 1.539 . S
C1845 C1841 1.408 . S
C1845 C1844 1.404 . S
C1845 H1857 0.930 . S
C1846 C1842 1.524 . S
C1846 H1858 0.956 . S
C1846 H1859 0.961 . S
C1846 H1860 0.961 . S
C1847 C1844 1.539 . S
C1847 H1861 0.958 . S
C1847 H1862 0.961 . S
C1847 H1863 0.960 . S
H1848 C1832 0.931 . S
H1849 C1837 0.929 . S
H1850 C1838 0.960 . S
H1851 C1838 0.962 . S
H1852 C1838 0.960 . S
H1853 C1839 0.961 . S
H1854 C1839 0.961 . S
H1855 C1839 0.961 . S
H1856 C1840 0.931 . S
H1857 C1845 0.930 . S
H1858 C1846 0.956 . S
H1859 C1846 0.961 . S
H1860 C1846 0.961 . S
H1861 C1847 0.958 . S
H1862 C1847 0.961 . S
H1863 C1847 0.960 . S
C1864 C1865 1.391 . S
C1864 C1866 1.394 . S
C1864 H1880 0.931 . S
C1865 C1864 1.391 . S
C1865 C1869 1.376 . S
C1866 C1864 1.394 . S
C1866 C1867 1.369 . S
C1866 C1870 1.531 . S
C1867 C1866 1.369 . S
C1867 C1868 1.410 . S
C1867 C1875 1.503 . S
C1868 C1867 1.410 . S
C1868 C1869 1.392 . S
C1868 C1871 1.511 . S
C1869 C1865 1.376 . S
C1869 C1868 1.392 . S
C1869 H1881 0.929 . S
C1870 C1866 1.531 . S
C1870 H1882 0.960 . S
C1870 H1883 0.962 . S
C1870 H1884 0.960 . S
C1871 C1868 1.511 . S
C1871 H1885 0.961 . S
C1871 H1886 0.961 . S
C1871 H1887 0.961 . S
C1872 C1873 1.370 . S
C1872 C1874 1.363 . S
C1872 H1888 0.931 . S
C1873 C1872 1.370 . S
C1873 C1877 1.408 . S
C1874 C1872 1.363 . S
C1874 C1875 1.370 . S
C1874 C1878 1.524 . S
C1875 C1867 1.503 . S
C1875 C1874 1.370 . S
C1875 C1876 1.403 . S
C1876 C1875 1.403 . S
C1876 C1877 1.404 . S
C1876 C1879 1.539 . S
C1877 C1873 1.408 . S
C1877 C1876 1.404 . S
C1877 H1889 0.930 . S
C1878 C1874 1.524 . S
C1878 H1890 0.956 . S
C1878 H1891 0.961 . S
C1878 H1892 0.961 . S
C1879 C1876 1.539 . S
C1879 H1893 0.958 . S
C1879 H1894 0.961 . S
C1879 H1895 0.960 . S
H1880 C1864 0.931 . S
H1881 C1869 0.929 . S
H1882 C1870 0.960 . S
H1883 C1870 0.962 . S
H1884 C1870 0.960 . S
H1885 C1871 0.961 . S
H1886 C1871 0.961 . S
H1887 C1871 0.961 . S
H1888 C1872 0.931 . S
H1889 C1877 0.930 . S
H1890 C1878 0.956 . S
H1891 C1878 0.961 . S
H1892 C1878 0.961 . S
H1893 C1879 0.958 . S
H1894 C1879 0.961 . S
H1895 C1879 0.960 . S
C1896 C1897 1.391 . S
C1896 C1898 1.394 . S
C1896 H1912 0.931 . S
C1897 C1896 1.391 . S
C1897 C1901 1.376 . S
C1898 C1896 1.394 . S
C1898 C1899 1.369 . S
C1898 C1902 1.531 . S
C1899 C1898 1.369 . S
C1899 C1900 1.410 . S
C1899 C1907 1.503 . S
C1900 C1899 1.410 . S
C1900 C1901 1.392 . S
C1900 C1903 1.511 . S
C1901 C1897 1.376 . S
C1901 C1900 1.392 . S
C1901 H1913 0.929 . S
C1902 C1898 1.531 . S
C1902 H1914 0.960 . S
C1902 H1915 0.962 . S
C1902 H1916 0.960 . S
C1903 C1900 1.511 . S
C1903 H1917 0.961 . S
C1903 H1918 0.961 . S
C1903 H1919 0.961 . S
C1904 C1905 1.370 . S
C1904 C1906 1.363 . S
C1904 H1920 0.931 . S
C1905 C1904 1.370 . S
C1905 C1909 1.408 . S
C1906 C1904 1.363 . S
C1906 C1907 1.370 . S
C1906 C1910 1.524 . S
C1907 C1899 1.503 . S
C1907 C1906 1.370 . S
C1907 C1908 1.403 . S
C1908 C1907 1.403 . S
C1908 C1909 1.404 . S
C1908 C1911 1.539 . S
C1909 C1905 1.408 . S
C1909 C1908 1.404 . S
C1909 H1921 0.930 . S
C1910 C1906 1.524 . S
C1910 H1922 0.956 . S
C1910 H1923 0.961 . S
C1910 H1924 0.961 . S
C1911 C1908 1.539 . S
C1911 H1925 0.958 . S
C1911 H1926 0.961 . S
C1911 H1927 0.960 . S
H1912 C1896 0.931 . S
H1913 C1901 0.929 . S
H1914 C1902 0.960 . S
H1915 C1902 0.962 . S
H1916 C1902 0.960 . S
H1917 C1903 0.961 . S
H1918 C1903 0.961 . S
H1919 C1903 0.961 . S
H1920 C1904 0.931 . S
H1921 C1909 0.930 . S
H1922 C1910 0.956 . S
H1923 C1910 0.961 . S
H1924 C1910 0.961 . S
H1925 C1911 0.958 . S
H1926 C1911 0.961 . S
H1927 C1911 0.960 . S
C1928 C1929 1.391 . S
C1928 C1930 1.394 . S
C1928 H1944 0.931 . S
C1929 C1928 1.391 . S
C1929 C1933 1.376 . S
C1930 C1928 1.394 . S
C1930 C1931 1.369 . S
C1930 C1934 1.531 . S
C1931 C1930 1.369 . S
C1931 C1932 1.426 . S
C1931 C1939 1.503 . S
C1932 C1931 1.426 . S
C1932 C1933 1.402 . S
C1932 C1935 1.488 1_545 S
C1933 C1929 1.376 . S
C1933 C1932 1.402 . S
C1933 H1945 0.929 1_545 S
C1934 C1930 1.531 . S
C1934 H1946 0.960 . S
C1934 H1947 0.962 . S
C1934 H1948 0.960 . S
C1935 C1932 1.488 1_565 S
C1935 H1949 0.961 . S
C1935 H1950 0.961 . S
C1935 H1951 0.961 . S
C1936 C1937 1.370 . S
C1936 C1938 1.363 . S
C1936 H1952 0.931 . S
C1937 C1936 1.370 . S
C1937 C1941 1.408 1_545 S
C1938 C1936 1.363 . S
C1938 C1939 1.370 . S
C1938 C1942 1.524 . S
C1939 C1931 1.503 . S
C1939 C1938 1.370 . S
C1939 C1940 1.403 1_545 S
C1940 C1939 1.403 1_565 S
C1940 C1941 1.404 . S
C1940 C1943 1.539 . S
C1941 C1937 1.408 1_565 S
C1941 C1940 1.404 . S
C1941 H1953 0.930 . S
C1942 C1938 1.524 . S
C1942 H1954 0.956 . S
C1942 H1955 0.961 . S
C1942 H1956 0.961 . S
C1943 C1940 1.539 . S
C1943 H1957 0.958 . S
C1943 H1958 0.961 . S
C1943 H1959 0.960 . S
H1944 C1928 0.931 . S
H1945 C1933 0.929 1_565 S
H1946 C1934 0.960 . S
H1947 C1934 0.962 . S
H1948 C1934 0.960 . S
H1949 C1935 0.961 . S
H1950 C1935 0.961 . S
H1951 C1935 0.961 . S
H1952 C1936 0.931 . S
H1953 C1941 0.930 . S
H1954 C1942 0.956 . S
H1955 C1942 0.961 . S
H1956 C1942 0.961 . S
H1957 C1943 0.958 . S
H1958 C1943 0.961 . S
H1959 C1943 0.960 . S
C1960 C1961 1.391 . S
C1960 C1962 1.394 . S
C1960 H1976 0.931 . S
C1961 C1960 1.391 . S
C1961 C1965 1.376 . S
C1962 C1960 1.394 . S
C1962 C1963 1.369 . S
C1962 C1966 1.531 . S
C1963 C1962 1.369 . S
C1963 C1964 1.410 . S
C1963 C1971 1.503 . S
C1964 C1963 1.410 . S
C1964 C1965 1.392 . S
C1964 C1967 1.511 . S
C1965 C1961 1.376 . S
C1965 C1964 1.392 . S
C1965 H1977 0.929 . S
C1966 C1962 1.531 . S
C1966 H1978 0.960 . S
C1966 H1979 0.962 . S
C1966 H1980 0.960 . S
C1967 C1964 1.511 . S
C1967 H1981 0.961 . S
C1967 H1982 0.961 . S
C1967 H1983 0.961 . S
C1968 C1969 1.370 . S
C1968 C1970 1.363 . S
C1968 H1984 0.931 . S
C1969 C1968 1.370 . S
C1969 C1973 1.408 . S
C1970 C1968 1.363 . S
C1970 C1971 1.370 . S
C1970 C1974 1.524 . S
C1971 C1963 1.503 . S
C1971 C1970 1.370 . S
C1971 C1972 1.403 . S
C1972 C1971 1.403 . S
C1972 C1973 1.404 . S
C1972 C1975 1.539 . S
C1973 C1969 1.408 . S
C1973 C1972 1.404 . S
C1973 H1985 0.930 . S
C1974 C1970 1.524 . S
C1974 H1986 0.956 . S
C1974 H1987 0.961 . S
C1974 H1988 0.961 . S
C1975 C1972 1.539 . S
C1975 H1989 0.958 . S
C1975 H1990 0.961 . S
C1975 H1991 0.960 . S
H1976 C1960 0.931 . S
H1977 C1965 0.929 . S
H1978 C1966 0.960 . S
H1979 C1966 0.962 . S
H1980 C1966 0.960 . S
H1981 C1967 0.961 . S
H1982 C1967 0.961 . S
H1983 C1967 0.961 . S
H1984 C1968 0.931 . S
H1985 C1973 0.930 . S
H1986 C1974 0.956 . S
H1987 C1974 0.961 . S
H1988 C1974 0.961 . S
H1989 C1975 0.958 . S
H1990 C1975 0.961 . S
H1991 C1975 0.960 . S
C1992 C1993 1.391 . S
C1992 C1994 1.394 . S
C1992 H2008 0.931 . S
C1993 C1992 1.391 . S
C1993 C1997 1.376 . S
C1994 C1992 1.394 . S
C1994 C1995 1.369 . S
C1994 C1998 1.531 . S
C1995 C1994 1.369 . S
C1995 C1996 1.410 . S
C1995 C2003 1.503 . S
C1996 C1995 1.410 . S
C1996 C1997 1.392 . S
C1996 C1999 1.511 . S
C1997 C1993 1.376 . S
C1997 C1996 1.392 . S
C1997 H2009 0.929 . S
C1998 C1994 1.531 . S
C1998 H2010 0.960 . S
C1998 H2011 0.962 . S
C1998 H2012 0.960 . S
C1999 C1996 1.511 . S
C1999 H2013 0.961 . S
C1999 H2014 0.961 . S
C1999 H2015 0.961 . S
C2000 C2001 1.370 . S
C2000 C2002 1.363 . S
C2000 H2016 0.931 . S
C2001 C2000 1.370 . S
C2001 C2005 1.408 . S
C2002 C2000 1.363 . S
C2002 C2003 1.370 . S
C2002 C2006 1.524 . S
C2003 C1995 1.503 . S
C2003 C2002 1.370 . S
C2003 C2004 1.403 . S
C2004 C2003 1.403 . S
C2004 C2005 1.404 . S
C2004 C2007 1.539 . S
C2005 C2001 1.408 . S
C2005 C2004 1.404 . S
C2005 H2017 0.930 . S
C2006 C2002 1.524 . S
C2006 H2018 0.956 . S
C2006 H2019 0.961 . S
C2006 H2020 0.961 . S
C2007 C2004 1.539 . S
C2007 H2021 0.958 . S
C2007 H2022 0.961 . S
C2007 H2023 0.960 . S
H2008 C1992 0.931 . S
H2009 C1997 0.929 . S
H2010 C1998 0.960 . S
H2011 C1998 0.962 . S
H2012 C1998 0.960 . S
H2013 C1999 0.961 . S
H2014 C1999 0.961 . S
H2015 C1999 0.961 . S
H2016 C2000 0.931 . S
H2017 C2005 0.930 . S
H2018 C2006 0.956 . S
H2019 C2006 0.961 . S
H2020 C2006 0.961 . S
H2021 C2007 0.958 . S
H2022 C2007 0.961 . S
H2023 C2007 0.960 . S
C2024 C2025 1.391 . S
C2024 C2026 1.394 . S
C2024 H2040 0.931 . S
C2025 C2024 1.391 . S
C2025 C2029 1.376 . S
C2026 C2024 1.394 . S
C2026 C2027 1.369 . S
C2026 C2030 1.531 . S
C2027 C2026 1.369 . S
C2027 C2028 1.410 . S
C2027 C2035 1.503 . S
C2028 C2027 1.410 . S
C2028 C2029 1.392 . S
C2028 C2031 1.511 . S
C2029 C2025 1.376 . S
C2029 C2028 1.392 . S
C2029 H2041 0.929 . S
C2030 C2026 1.531 . S
C2030 H2042 0.960 . S
C2030 H2043 0.962 . S
C2030 H2044 0.960 . S
C2031 C2028 1.511 . S
C2031 H2045 0.961 . S
C2031 H2046 0.961 . S
C2031 H2047 0.961 . S
C2032 C2033 1.370 . S
C2032 C2034 1.363 . S
C2032 H2048 0.931 . S
C2033 C2032 1.370 . S
C2033 C2037 1.408 . S
C2034 C2032 1.363 . S
C2034 C2035 1.370 . S
C2034 C2038 1.524 . S
C2035 C2027 1.503 . S
C2035 C2034 1.370 . S
C2035 C2036 1.403 . S
C2036 C2035 1.403 . S
C2036 C2037 1.404 . S
C2036 C2039 1.539 . S
C2037 C2033 1.408 . S
C2037 C2036 1.404 . S
C2037 H2049 0.930 . S
C2038 C2034 1.524 . S
C2038 H2050 0.956 . S
C2038 H2051 0.961 . S
C2038 H2052 0.961 . S
C2039 C2036 1.539 . S
C2039 H2053 0.958 . S
C2039 H2054 0.961 . S
C2039 H2055 0.960 . S
H2040 C2024 0.931 . S
H2041 C2029 0.929 . S
H2042 C2030 0.960 . S
H2043 C2030 0.962 . S
H2044 C2030 0.960 . S
H2045 C2031 0.961 . S
H2046 C2031 0.961 . S
H2047 C2031 0.961 . S
H2048 C2032 0.931 . S
H2049 C2037 0.930 . S
H2050 C2038 0.956 . S
H2051 C2038 0.961 . S
H2052 C2038 0.961 . S
H2053 C2039 0.958 . S
H2054 C2039 0.961 . S
H2055 C2039 0.960 . S
C2056 C2057 1.391 . S
C2056 C2058 1.394 . S
C2056 H2072 0.931 . S
C2057 C2056 1.391 . S
C2057 C2061 1.376 . S
C2058 C2056 1.394 . S
C2058 C2059 1.369 . S
C2058 C2062 1.531 . S
C2059 C2058 1.369 . S
C2059 C2060 1.410 . S
C2059 C2067 1.503 . S
C2060 C2059 1.410 . S
C2060 C2061 1.392 . S
C2060 C2063 1.511 . S
C2061 C2057 1.376 . S
C2061 C2060 1.392 . S
C2061 H2073 0.929 . S
C2062 C2058 1.531 . S
C2062 H2074 0.960 . S
C2062 H2075 0.962 . S
C2062 H2076 0.960 . S
C2063 C2060 1.511 . S
C2063 H2077 0.961 . S
C2063 H2078 0.961 . S
C2063 H2079 0.961 . S
C2064 C2065 1.370 . S
C2064 C2066 1.363 . S
C2064 H2080 0.931 1_545 S
C2065 C2064 1.370 . S
C2065 C2069 1.408 . S
C2066 C2064 1.363 . S
C2066 C2067 1.370 . S
C2066 C2070 1.524 1_545 S
C2067 C2059 1.503 . S
C2067 C2066 1.370 . S
C2067 C2068 1.403 . S
C2068 C2067 1.403 . S
C2068 C2069 1.404 . S
C2068 C2071 1.539 . S
C2069 C2065 1.408 . S
C2069 C2068 1.404 . S
C2069 H2081 0.930 . S
C2070 C2066 1.524 1_565 S
C2070 H2082 0.956 . S
C2070 H2083 0.961 . S
C2070 H2084 0.961 . S
C2071 C2068 1.539 . S
C2071 H2085 0.958 . S
C2071 H2086 0.961 . S
C2071 H2087 0.960 . S
H2072 C2056 0.931 . S
H2073 C2061 0.929 . S
H2074 C2062 0.960 . S
H2075 C2062 0.962 . S
H2076 C2062 0.960 . S
H2077 C2063 0.961 . S
H2078 C2063 0.961 . S
H2079 C2063 0.961 . S
H2080 C2064 0.931 1_565 S
H2081 C2069 0.930 . S
H2082 C2070 0.956 . S
H2083 C2070 0.961 . S
H2084 C2070 0.961 . S
H2085 C2071 0.958 . S
H2086 C2071 0.961 . S
H2087 C2071 0.960 . S
C2088 C2089 1.391 . S
C2088 C2090 1.394 . S
C2088 H2104 0.931 . S
C2089 C2088 1.391 . S
C2089 C2093 1.376 . S
C2090 C2088 1.394 . S
C2090 C2091 1.369 . S
C2090 C2094 1.531 . S
C2091 C2090 1.369 . S
C2091 C2092 1.410 . S
C2091 C2099 1.503 . S
C2092 C2091 1.410 . S
C2092 C2093 1.392 . S
C2092 C2095 1.511 . S
C2093 C2089 1.376 . S
C2093 C2092 1.392 . S
C2093 H2105 0.929 . S
C2094 C2090 1.531 . S
C2094 H2106 0.960 . S
C2094 H2107 0.962 . S
C2094 H2108 0.960 . S
C2095 C2092 1.511 . S
C2095 H2109 0.961 . S
C2095 H2110 0.961 . S
C2095 H2111 0.961 . S
C2096 C2097 1.370 . S
C2096 C2098 1.363 . S
C2096 H2112 0.931 . S
C2097 C2096 1.370 . S
C2097 C2101 1.408 . S
C2098 C2096 1.363 . S
C2098 C2099 1.370 . S
C2098 C2102 1.524 . S
C2099 C2091 1.503 . S
C2099 C2098 1.370 . S
C2099 C2100 1.403 . S
C2100 C2099 1.403 . S
C2100 C2101 1.404 . S
C2100 C2103 1.539 . S
C2101 C2097 1.408 . S
C2101 C2100 1.404 . S
C2101 H2113 0.930 . S
C2102 C2098 1.524 . S
C2102 H2114 0.956 . S
C2102 H2115 0.961 . S
C2102 H2116 0.961 . S
C2103 C2100 1.539 . S
C2103 H2117 0.958 . S
C2103 H2118 0.961 . S
C2103 H2119 0.960 . S
H2104 C2088 0.931 . S
H2105 C2093 0.929 . S
H2106 C2094 0.960 . S
H2107 C2094 0.962 . S
H2108 C2094 0.960 . S
H2109 C2095 0.961 . S
H2110 C2095 0.961 . S
H2111 C2095 0.961 . S
H2112 C2096 0.931 . S
H2113 C2101 0.930 . S
H2114 C2102 0.956 . S
H2115 C2102 0.961 . S
H2116 C2102 0.961 . S
H2117 C2103 0.958 . S
H2118 C2103 0.961 . S
H2119 C2103 0.960 . S
C2120 C2121 1.391 . S
C2120 C2122 1.394 . S
C2120 H2136 0.931 . S
C2121 C2120 1.391 . S
C2121 C2125 1.376 . S
C2122 C2120 1.394 . S
C2122 C2123 1.369 . S
C2122 C2126 1.531 . S
C2123 C2122 1.369 . S
C2123 C2124 1.410 . S
C2123 C2131 1.503 . S
C2124 C2123 1.410 . S
C2124 C2125 1.392 . S
C2124 C2127 1.511 . S
C2125 C2121 1.376 . S
C2125 C2124 1.392 . S
C2125 H2137 0.929 . S
C2126 C2122 1.531 . S
C2126 H2138 0.960 . S
C2126 H2139 0.962 . S
C2126 H2140 0.960 . S
C2127 C2124 1.511 . S
C2127 H2141 0.961 . S
C2127 H2142 0.961 . S
C2127 H2143 0.961 . S
C2128 C2129 1.370 . S
C2128 C2130 1.363 . S
C2128 H2144 0.931 . S
C2129 C2128 1.370 . S
C2129 C2133 1.408 . S
C2130 C2128 1.363 . S
C2130 C2131 1.370 . S
C2130 C2134 1.524 . S
C2131 C2123 1.503 . S
C2131 C2130 1.370 . S
C2131 C2132 1.403 . S
C2132 C2131 1.403 . S
C2132 C2133 1.404 . S
C2132 C2135 1.539 . S
C2133 C2129 1.408 . S
C2133 C2132 1.404 . S
C2133 H2145 0.930 . S
C2134 C2130 1.524 . S
C2134 H2146 0.956 . S
C2134 H2147 0.961 . S
C2134 H2148 0.961 . S
C2135 C2132 1.539 . S
C2135 H2149 0.958 . S
C2135 H2150 0.961 . S
C2135 H2151 0.960 . S
H2136 C2120 0.931 . S
H2137 C2125 0.929 . S
H2138 C2126 0.960 . S
H2139 C2126 0.962 . S
H2140 C2126 0.960 . S
H2141 C2127 0.961 . S
H2142 C2127 0.961 . S
H2143 C2127 0.961 . S
H2144 C2128 0.931 . S
H2145 C2133 0.930 . S
H2146 C2134 0.956 . S
H2147 C2134 0.961 . S
H2148 C2134 0.961 . S
H2149 C2135 0.958 . S
H2150 C2135 0.961 . S
H2151 C2135 0.960 . S
C2152 C2153 1.391 . S
C2152 C2154 1.394 . S
C2152 H2168 0.931 . S
C2153 C2152 1.391 . S
C2153 C2157 1.376 . S
C2154 C2152 1.394 . S
C2154 C2155 1.369 . S
C2154 C2158 1.531 . S
C2155 C2154 1.369 . S
C2155 C2156 1.410 . S
C2155 C2163 1.503 . S
C2156 C2155 1.410 . S
C2156 C2157 1.392 . S
C2156 C2159 1.511 . S
C2157 C2153 1.376 . S
C2157 C2156 1.392 . S
C2157 H2169 0.929 . S
C2158 C2154 1.531 . S
C2158 H2170 0.960 . S
C2158 H2171 0.962 . S
C2158 H2172 0.960 . S
C2159 C2156 1.511 . S
C2159 H2173 0.961 . S
C2159 H2174 0.961 . S
C2159 H2175 0.961 . S
C2160 C2161 1.370 . S
C2160 C2162 1.363 . S
C2160 H2176 0.931 . S
C2161 C2160 1.370 . S
C2161 C2165 1.408 . S
C2162 C2160 1.363 . S
C2162 C2163 1.370 . S
C2162 C2166 1.524 . S
C2163 C2155 1.503 . S
C2163 C2162 1.370 . S
C2163 C2164 1.403 . S
C2164 C2163 1.403 . S
C2164 C2165 1.404 . S
C2164 C2167 1.539 . S
C2165 C2161 1.408 . S
C2165 C2164 1.404 . S
C2165 H2177 0.930 . S
C2166 C2162 1.524 . S
C2166 H2178 0.956 . S
C2166 H2179 0.961 . S
C2166 H2180 0.961 . S
C2167 C2164 1.539 . S
C2167 H2181 0.958 . S
C2167 H2182 0.961 . S
C2167 H2183 0.960 . S
H2168 C2152 0.931 . S
H2169 C2157 0.929 . S
H2170 C2158 0.960 . S
H2171 C2158 0.962 . S
H2172 C2158 0.960 . S
H2173 C2159 0.961 . S
H2174 C2159 0.961 . S
H2175 C2159 0.961 . S
H2176 C2160 0.931 . S
H2177 C2165 0.930 . S
H2178 C2166 0.956 . S
H2179 C2166 0.961 . S
H2180 C2166 0.961 . S
H2181 C2167 0.958 . S
H2182 C2167 0.961 . S
H2183 C2167 0.960 . S
C2184 C2185 1.391 . S
C2184 C2186 1.394 . S
C2184 H2200 0.931 . S
C2185 C2184 1.391 . S
C2185 C2189 1.376 1_655 S
C2186 C2184 1.394 . S
C2186 C2187 1.369 . S
C2186 C2190 1.531 . S
C2187 C2186 1.369 . S
C2187 C2188 1.410 1_655 S
C2187 C2195 1.503 1_655 S
C2188 C2187 1.410 1_455 S
C2188 C2189 1.392 . S
C2188 C2191 1.511 . S
C2189 C2185 1.376 1_455 S
C2189 C2188 1.392 . S
C2189 H2201 0.929 . S
C2190 C2186 1.531 . S
C2190 H2202 0.960 . S
C2190 H2203 0.962 . S
C2190 H2204 0.960 . S
C2191 C2188 1.511 . S
C2191 H2205 0.961 . S
C2191 H2206 0.961 . S
C2191 H2207 0.961 . S
C2192 C2193 1.370 . S
C2192 C2194 1.363 . S
C2192 H2208 0.931 . S
C2193 C2192 1.370 . S
C2193 C2197 1.408 . S
C2194 C2192 1.363 . S
C2194 C2195 1.370 . S
C2194 C2198 1.524 . S
C2195 C2187 1.503 1_455 S
C2195 C2194 1.370 . S
C2195 C2196 1.403 . S
C2196 C2195 1.403 . S
C2196 C2197 1.404 . S
C2196 C2199 1.539 1_455 S
C2197 C2193 1.408 . S
C2197 C2196 1.404 . S
C2197 H2209 0.930 . S
C2198 C2194 1.524 . S
C2198 H2210 0.956 1_455 S
C2198 H2211 0.961 . S
C2198 H2212 0.961 . S
C2199 C2196 1.539 1_655 S
C2199 H2213 0.958 . S
C2199 H2214 0.961 1_655 S
C2199 H2215 0.960 1_655 S
H2200 C2184 0.931 . S
H2201 C2189 0.929 . S
H2202 C2190 0.960 . S
H2203 C2190 0.962 . S
H2204 C2190 0.960 . S
H2205 C2191 0.961 . S
H2206 C2191 0.961 . S
H2207 C2191 0.961 . S
H2208 C2192 0.931 . S
H2209 C2197 0.930 . S
H2210 C2198 0.956 1_655 S
H2211 C2198 0.961 . S
H2212 C2198 0.961 . S
H2213 C2199 0.958 . S
H2214 C2199 0.961 1_455 S
H2215 C2199 0.960 1_455 S
C2216 C2217 1.391 . S
C2216 C2218 1.394 . S
C2216 H2232 0.931 . S
C2217 C2216 1.391 . S
C2217 C2221 1.376 . S
C2218 C2216 1.394 . S
C2218 C2219 1.369 . S
C2218 C2222 1.531 . S
C2219 C2218 1.369 . S
C2219 C2220 1.410 . S
C2219 C2227 1.503 . S
C2220 C2219 1.410 . S
C2220 C2221 1.392 . S
C2220 C2223 1.511 . S
C2221 C2217 1.376 . S
C2221 C2220 1.392 . S
C2221 H2233 0.929 . S
C2222 C2218 1.531 . S
C2222 H2234 0.960 . S
C2222 H2235 0.962 . S
C2222 H2236 0.960 . S
C2223 C2220 1.511 . S
C2223 H2237 0.961 . S
C2223 H2238 0.961 . S
C2223 H2239 0.961 . S
C2224 C2225 1.370 . S
C2224 C2226 1.363 . S
C2224 H2240 0.931 . S
C2225 C2224 1.370 . S
C2225 C2229 1.408 . S
C2226 C2224 1.363 . S
C2226 C2227 1.370 . S
C2226 C2230 1.524 . S
C2227 C2219 1.503 . S
C2227 C2226 1.370 . S
C2227 C2228 1.403 . S
C2228 C2227 1.403 . S
C2228 C2229 1.404 . S
C2228 C2231 1.539 . S
C2229 C2225 1.408 . S
C2229 C2228 1.404 . S
C2229 H2241 0.930 . S
C2230 C2226 1.524 . S
C2230 H2242 0.956 . S
C2230 H2243 0.961 . S
C2230 H2244 0.961 . S
C2231 C2228 1.539 . S
C2231 H2245 0.958 . S
C2231 H2246 0.961 . S
C2231 H2247 0.960 . S
H2232 C2216 0.931 . S
H2233 C2221 0.929 . S
H2234 C2222 0.960 . S
H2235 C2222 0.962 . S
H2236 C2222 0.960 . S
H2237 C2223 0.961 . S
H2238 C2223 0.961 . S
H2239 C2223 0.961 . S
H2240 C2224 0.931 . S
H2241 C2229 0.930 . S
H2242 C2230 0.956 . S
H2243 C2230 0.961 . S
H2244 C2230 0.961 . S
H2245 C2231 0.958 . S
H2246 C2231 0.961 . S
H2247 C2231 0.960 . S
C2248 C2249 1.391 . S
C2248 C2250 1.394 . S
C2248 H2264 0.931 1_455 S
C2249 C2248 1.391 . S
C2249 C2253 1.376 . S
C2250 C2248 1.394 . S
C2250 C2251 1.369 . S
C2250 C2254 1.531 1_455 S
C2251 C2250 1.369 . S
C2251 C2252 1.410 . S
C2251 C2259 1.503 . S
C2252 C2251 1.410 . S
C2252 C2253 1.392 . S
C2252 C2255 1.511 . S
C2253 C2249 1.376 . S
C2253 C2252 1.392 . S
C2253 H2265 0.929 . S
C2254 C2250 1.531 1_655 S
C2254 H2266 0.960 . S
C2254 H2267 0.962 . S
C2254 H2268 0.960 . S
C2255 C2252 1.511 . S
C2255 H2269 0.961 . S
C2255 H2270 0.961 . S
C2255 H2271 0.961 . S
C2256 C2257 1.370 . S
C2256 C2258 1.363 . S
C2256 H2272 0.931 . S
C2257 C2256 1.370 . S
C2257 C2261 1.408 . S
C2258 C2256 1.363 . S
C2258 C2259 1.370 . S
C2258 C2262 1.524 . S
C2259 C2251 1.503 . S
C2259 C2258 1.370 . S
C2259 C2260 1.403 . S
C2260 C2259 1.403 . S
C2260 C2261 1.404 . S
C2260 C2263 1.539 . S
C2261 C2257 1.408 . S
C2261 C2260 1.404 . S
C2261 H2273 0.930 . S
C2262 C2258 1.524 . S
C2262 H2274 0.956 . S
C2262 H2275 0.961 . S
C2262 H2276 0.961 . S
C2263 C2260 1.539 . S
C2263 H2277 0.958 . S
C2263 H2278 0.961 . S
C2263 H2279 0.960 . S
H2264 C2248 0.931 1_655 S
H2265 C2253 0.929 . S
H2266 C2254 0.960 . S
H2267 C2254 0.962 . S
H2268 C2254 0.960 . S
H2269 C2255 0.961 . S
H2270 C2255 0.961 . S
H2271 C2255 0.961 . S
H2272 C2256 0.931 . S
H2273 C2261 0.930 . S
H2274 C2262 0.956 . S
H2275 C2262 0.961 . S
H2276 C2262 0.961 . S
H2277 C2263 0.958 . S
H2278 C2263 0.961 . S
H2279 C2263 0.960 . S
C2280 C2281 1.391 . S
C2280 C2282 1.394 . S
C2280 H2296 0.931 . S
C2281 C2280 1.391 . S
C2281 C2285 1.376 . S
C2282 C2280 1.394 . S
C2282 C2283 1.369 . S
C2282 C2286 1.531 . S
C2283 C2282 1.369 . S
C2283 C2284 1.410 . S
C2283 C2291 1.503 . S
C2284 C2283 1.410 . S
C2284 C2285 1.392 . S
C2284 C2287 1.511 . S
C2285 C2281 1.376 . S
C2285 C2284 1.392 . S
C2285 H2297 0.929 . S
C2286 C2282 1.531 . S
C2286 H2298 0.960 . S
C2286 H2299 0.962 . S
C2286 H2300 0.960 . S
C2287 C2284 1.511 . S
C2287 H2301 0.961 . S
C2287 H2302 0.961 . S
C2287 H2303 0.961 . S
C2288 C2289 1.370 . S
C2288 C2290 1.363 . S
C2288 H2304 0.931 . S
C2289 C2288 1.370 . S
C2289 C2293 1.408 . S
C2290 C2288 1.363 . S
C2290 C2291 1.370 . S
C2290 C2294 1.524 . S
C2291 C2283 1.503 . S
C2291 C2290 1.370 . S
C2291 C2292 1.403 . S
C2292 C2291 1.403 . S
C2292 C2293 1.404 . S
C2292 C2295 1.539 . S
C2293 C2289 1.408 . S
C2293 C2292 1.404 . S
C2293 H2305 0.930 . S
C2294 C2290 1.524 . S
C2294 H2306 0.956 . S
C2294 H2307 0.961 . S
C2294 H2308 0.961 . S
C2295 C2292 1.539 . S
C2295 H2309 0.958 . S
C2295 H2310 0.961 . S
C2295 H2311 0.960 . S
H2296 C2280 0.931 . S
H2297 C2285 0.929 . S
H2298 C2286 0.960 . S
H2299 C2286 0.962 . S
H2300 C2286 0.960 . S
H2301 C2287 0.961 . S
H2302 C2287 0.961 . S
H2303 C2287 0.961 . S
H2304 C2288 0.931 . S
H2305 C2293 0.930 . S
H2306 C2294 0.956 . S
H2307 C2294 0.961 . S
H2308 C2294 0.961 . S
H2309 C2295 0.958 . S
H2310 C2295 0.961 . S
H2311 C2295 0.960 . S
C2312 C2313 1.391 . S
C2312 C2314 1.394 . S
C2312 H2328 0.931 . S
C2313 C2312 1.391 . S
C2313 C2317 1.376 . S
C2314 C2312 1.394 . S
C2314 C2315 1.369 . S
C2314 C2318 1.531 . S
C2315 C2314 1.369 . S
C2315 C2316 1.410 . S
C2315 C2323 1.503 . S
C2316 C2315 1.410 . S
C2316 C2317 1.392 . S
C2316 C2319 1.511 . S
C2317 C2313 1.376 . S
C2317 C2316 1.392 . S
C2317 H2329 0.929 . S
C2318 C2314 1.531 . S
C2318 H2330 0.960 . S
C2318 H2331 0.962 . S
C2318 H2332 0.960 . S
C2319 C2316 1.511 . S
C2319 H2333 0.961 . S
C2319 H2334 0.961 . S
C2319 H2335 0.961 . S
C2320 C2321 1.370 . S
C2320 C2322 1.363 . S
C2320 H2336 0.931 . S
C2321 C2320 1.370 . S
C2321 C2325 1.408 . S
C2322 C2320 1.363 . S
C2322 C2323 1.370 . S
C2322 C2326 1.524 . S
C2323 C2315 1.503 . S
C2323 C2322 1.370 . S
C2323 C2324 1.403 . S
C2324 C2323 1.403 . S
C2324 C2325 1.404 . S
C2324 C2327 1.539 . S
C2325 C2321 1.408 . S
C2325 C2324 1.404 . S
C2325 H2337 0.930 . S
C2326 C2322 1.524 . S
C2326 H2338 0.956 . S
C2326 H2339 0.961 . S
C2326 H2340 0.961 . S
C2327 C2324 1.539 . S
C2327 H2341 0.958 . S
C2327 H2342 0.961 . S
C2327 H2343 0.960 . S
H2328 C2312 0.931 . S
H2329 C2317 0.929 . S
H2330 C2318 0.960 . S
H2331 C2318 0.962 . S
H2332 C2318 0.960 . S
H2333 C2319 0.961 . S
H2334 C2319 0.961 . S
H2335 C2319 0.961 . S
H2336 C2320 0.931 . S
H2337 C2325 0.930 . S
H2338 C2326 0.956 . S
H2339 C2326 0.961 . S
H2340 C2326 0.961 . S
H2341 C2327 0.958 . S
H2342 C2327 0.961 . S
H2343 C2327 0.960 . S
C2344 C2345 1.391 . S
C2344 C2346 1.394 . S
C2344 H2360 0.931 . S
C2345 C2344 1.391 . S
C2345 C2349 1.376 . S
C2346 C2344 1.394 . S
C2346 C2347 1.369 . S
C2346 C2350 1.531 . S
C2347 C2346 1.369 . S
C2347 C2348 1.410 . S
C2347 C2355 1.503 . S
C2348 C2347 1.410 . S
C2348 C2349 1.392 . S
C2348 C2351 1.511 . S
C2349 C2345 1.376 . S
C2349 C2348 1.392 . S
C2349 H2361 0.929 . S
C2350 C2346 1.531 . S
C2350 H2362 0.960 . S
C2350 H2363 0.962 . S
C2350 H2364 0.960 . S
C2351 C2348 1.511 . S
C2351 H2365 0.961 . S
C2351 H2366 0.961 . S
C2351 H2367 0.961 . S
C2352 C2353 1.370 . S
C2352 C2354 1.363 . S
C2352 H2368 0.931 . S
C2353 C2352 1.370 . S
C2353 C2357 1.408 . S
C2354 C2352 1.363 . S
C2354 C2355 1.370 . S
C2354 C2358 1.524 . S
C2355 C2347 1.503 . S
C2355 C2354 1.370 . S
C2355 C2356 1.403 . S
C2356 C2355 1.403 . S
C2356 C2357 1.404 . S
C2356 C2359 1.539 . S
C2357 C2353 1.408 . S
C2357 C2356 1.404 . S
C2357 H2369 0.930 . S
C2358 C2354 1.524 . S
C2358 H2370 0.956 . S
C2358 H2371 0.961 . S
C2358 H2372 0.961 . S
C2359 C2356 1.539 . S
C2359 H2373 0.958 . S
C2359 H2374 0.961 . S
C2359 H2375 0.960 . S
H2360 C2344 0.931 . S
H2361 C2349 0.929 . S
H2362 C2350 0.960 . S
H2363 C2350 0.962 . S
H2364 C2350 0.960 . S
H2365 C2351 0.961 . S
H2366 C2351 0.961 . S
H2367 C2351 0.961 . S
H2368 C2352 0.931 . S
H2369 C2357 0.930 . S
H2370 C2358 0.956 . S
H2371 C2358 0.961 . S
H2372 C2358 0.961 . S
H2373 C2359 0.958 . S
H2374 C2359 0.961 . S
H2375 C2359 0.960 . S
C2376 C2377 1.391 . S
C2376 C2378 1.394 . S
C2376 H2392 0.931 . S
C2377 C2376 1.391 . S
C2377 C2381 1.376 . S
C2378 C2376 1.394 . S
C2378 C2379 1.369 . S
C2378 C2382 1.531 . S
C2379 C2378 1.369 . S
C2379 C2380 1.410 . S
C2379 C2387 1.503 . S
C2380 C2379 1.410 . S
C2380 C2381 1.392 . S
C2380 C2383 1.511 . S
C2381 C2377 1.376 . S
C2381 C2380 1.392 . S
C2381 H2393 0.929 . S
C2382 C2378 1.531 . S
C2382 H2394 0.960 . S
C2382 H2395 0.962 . S
C2382 H2396 0.960 . S
C2383 C2380 1.511 . S
C2383 H2397 0.961 . S
C2383 H2398 0.961 . S
C2383 H2399 0.961 . S
C2384 C2385 1.370 . S
C2384 C2386 1.363 . S
C2384 H2400 0.931 . S
C2385 C2384 1.370 . S
C2385 C2389 1.408 . S
C2386 C2384 1.363 . S
C2386 C2387 1.370 . S
C2386 C2390 1.524 . S
C2387 C2379 1.503 . S
C2387 C2386 1.370 . S
C2387 C2388 1.403 . S
C2388 C2387 1.403 . S
C2388 C2389 1.404 . S
C2388 C2391 1.539 . S
C2389 C2385 1.408 . S
C2389 C2388 1.404 . S
C2389 H2401 0.930 . S
C2390 C2386 1.524 . S
C2390 H2402 0.956 . S
C2390 H2403 0.961 . S
C2390 H2404 0.961 . S
C2391 C2388 1.539 . S
C2391 H2405 0.958 . S
C2391 H2406 0.961 . S
C2391 H2407 0.960 . S
H2392 C2376 0.931 . S
H2393 C2381 0.929 . S
H2394 C2382 0.960 . S
H2395 C2382 0.962 . S
H2396 C2382 0.960 . S
H2397 C2383 0.961 . S
H2398 C2383 0.961 . S
H2399 C2383 0.961 . S
H2400 C2384 0.931 . S
H2401 C2389 0.930 . S
H2402 C2390 0.956 . S
H2403 C2390 0.961 . S
H2404 C2390 0.961 . S
H2405 C2391 0.958 . S
H2406 C2391 0.961 . S
H2407 C2391 0.960 . S
C2408 C2409 1.391 . S
C2408 C2410 1.394 . S
C2408 H2424 0.931 . S
C2409 C2408 1.391 . S
C2409 C2413 1.376 . S
C2410 C2408 1.394 . S
C2410 C2411 1.369 . S
C2410 C2414 1.531 . S
C2411 C2410 1.369 . S
C2411 C2412 1.410 . S
C2411 C2419 1.503 . S
C2412 C2411 1.410 . S
C2412 C2413 1.392 . S
C2412 C2415 1.511 . S
C2413 C2409 1.376 . S
C2413 C2412 1.392 . S
C2413 H2425 0.929 . S
C2414 C2410 1.531 . S
C2414 H2426 0.960 . S
C2414 H2427 0.962 . S
C2414 H2428 0.960 . S
C2415 C2412 1.511 . S
C2415 H2429 0.961 . S
C2415 H2430 0.961 . S
C2415 H2431 0.961 . S
C2416 C2417 1.370 . S
C2416 C2418 1.363 . S
C2416 H2432 0.931 . S
C2417 C2416 1.370 . S
C2417 C2421 1.408 . S
C2418 C2416 1.363 . S
C2418 C2419 1.370 . S
C2418 C2422 1.524 . S
C2419 C2411 1.503 . S
C2419 C2418 1.370 . S
C2419 C2420 1.403 . S
C2420 C2419 1.403 . S
C2420 C2421 1.404 . S
C2420 C2423 1.539 . S
C2421 C2417 1.408 . S
C2421 C2420 1.404 . S
C2421 H2433 0.930 . S
C2422 C2418 1.524 . S
C2422 H2434 0.956 . S
C2422 H2435 0.961 . S
C2422 H2436 0.961 . S
C2423 C2420 1.539 . S
C2423 H2437 0.958 . S
C2423 H2438 0.961 . S
C2423 H2439 0.960 . S
H2424 C2408 0.931 . S
H2425 C2413 0.929 . S
H2426 C2414 0.960 . S
H2427 C2414 0.962 . S
H2428 C2414 0.960 . S
H2429 C2415 0.961 . S
H2430 C2415 0.961 . S
H2431 C2415 0.961 . S
H2432 C2416 0.931 . S
H2433 C2421 0.930 . S
H2434 C2422 0.956 . S
H2435 C2422 0.961 . S
H2436 C2422 0.961 . S
H2437 C2423 0.958 . S
H2438 C2423 0.961 . S
H2439 C2423 0.960 . S
C2440 C2441 1.391 . S
C2440 C2442 1.394 . S
C2440 H2456 0.931 . S
C2441 C2440 1.391 . S
C2441 C2445 1.376 . S
C2442 C2440 1.394 . S
C2442 C2443 1.369 . S
C2442 C2446 1.531 . S
C2443 C2442 1.369 . S
C2443 C2444 1.410 . S
C2443 C2451 1.503 . S
C2444 C2443 1.410 . S
C2444 C2445 1.392 . S
C2444 C2447 1.511 . S
C2445 C2441 1.376 . S
C2445 C2444 1.392 . S
C2445 H2457 0.929 . S
C2446 C2442 1.531 . S
C2446 H2458 0.960 . S
C2446 H2459 0.962 . S
C2446 H2460 0.960 . S
C2447 C2444 1.511 . S
C2447 H2461 0.961 . S
C2447 H2462 0.961 . S
C2447 H2463 0.961 . S
C2448 C2449 1.370 . S
C2448 C2450 1.363 . S
C2448 H2464 0.931 . S
C2449 C2448 1.370 . S
C2449 C2453 1.408 . S
C2450 C2448 1.363 . S
C2450 C2451 1.370 . S
C2450 C2454 1.524 . S
C2451 C2443 1.503 . S
C2451 C2450 1.370 . S
C2451 C2452 1.403 . S
C2452 C2451 1.403 . S
C2452 C2453 1.404 . S
C2452 C2455 1.539 . S
C2453 C2449 1.408 . S
C2453 C2452 1.404 . S
C2453 H2465 0.930 . S
C2454 C2450 1.524 . S
C2454 H2466 0.956 . S
C2454 H2467 0.961 . S
C2454 H2468 0.961 . S
C2455 C2452 1.539 . S
C2455 H2469 0.958 . S
C2455 H2470 0.961 . S
C2455 H2471 0.960 . S
H2456 C2440 0.931 . S
H2457 C2445 0.929 . S
H2458 C2446 0.960 . S
H2459 C2446 0.962 . S
H2460 C2446 0.960 . S
H2461 C2447 0.961 . S
H2462 C2447 0.961 . S
H2463 C2447 0.961 . S
H2464 C2448 0.931 . S
H2465 C2453 0.930 . S
H2466 C2454 0.956 . S
H2467 C2454 0.961 . S
H2468 C2454 0.961 . S
H2469 C2455 0.958 . S
H2470 C2455 0.961 . S
H2471 C2455 0.960 . S
C2472 C2473 1.391 . S
C2472 C2474 1.394 . S
C2472 H2488 0.931 . S
C2473 C2472 1.391 . S
C2473 C2477 1.376 . S
C2474 C2472 1.394 . S
C2474 C2475 1.369 . S
C2474 C2478 1.531 . S
C2475 C2474 1.369 . S
C2475 C2476 1.410 . S
C2475 C2483 1.503 . S
C2476 C2475 1.410 . S
C2476 C2477 1.392 . S
C2476 C2479 1.511 . S
C2477 C2473 1.376 . S
C2477 C2476 1.392 . S
C2477 H2489 0.929 . S
C2478 C2474 1.531 . S
C2478 H2490 0.960 . S
C2478 H2491 0.962 . S
C2478 H2492 0.960 . S
C2479 C2476 1.511 . S
C2479 H2493 0.961 . S
C2479 H2494 0.961 . S
C2479 H2495 0.961 . S
C2480 C2481 1.370 . S
C2480 C2482 1.363 . S
C2480 H2496 0.931 . S
C2481 C2480 1.370 . S
C2481 C2485 1.408 . S
C2482 C2480 1.363 . S
C2482 C2483 1.370 . S
C2482 C2486 1.524 . S
C2483 C2475 1.503 . S
C2483 C2482 1.370 . S
C2483 C2484 1.403 . S
C2484 C2483 1.403 . S
C2484 C2485 1.404 . S
C2484 C2487 1.539 . S
C2485 C2481 1.408 . S
C2485 C2484 1.404 . S
C2485 H2497 0.930 . S
C2486 C2482 1.524 . S
C2486 H2498 0.956 . S
C2486 H2499 0.961 . S
C2486 H2500 0.961 . S
C2487 C2484 1.539 . S
C2487 H2501 0.958 . S
C2487 H2502 0.961 . S
C2487 H2503 0.960 . S
H2488 C2472 0.931 . S
H2489 C2477 0.929 . S
H2490 C2478 0.960 . S
H2491 C2478 0.962 . S
H2492 C2478 0.960 . S
H2493 C2479 0.961 . S
H2494 C2479 0.961 . S
H2495 C2479 0.961 . S
H2496 C2480 0.931 . S
H2497 C2485 0.930 . S
H2498 C2486 0.956 . S
H2499 C2486 0.961 . S
H2500 C2486 0.961 . S
H2501 C2487 0.958 . S
H2502 C2487 0.961 . S
H2503 C2487 0.960 . S
C2504 C2505 1.391 . S
C2504 C2506 1.394 . S
C2504 H2520 0.931 . S
C2505 C2504 1.391 . S
C2505 C2509 1.376 . S
C2506 C2504 1.394 . S
C2506 C2507 1.369 . S
C2506 C2510 1.531 . S
C2507 C2506 1.369 . S
C2507 C2508 1.410 . S
C2507 C2515 1.503 . S
C2508 C2507 1.410 . S
C2508 C2509 1.392 . S
C2508 C2511 1.511 . S
C2509 C2505 1.376 . S
C2509 C2508 1.392 . S
C2509 H2521 0.929 . S
C2510 C2506 1.531 . S
C2510 H2522 0.960 . S
C2510 H2523 0.962 . S
C2510 H2524 0.960 . S
C2511 C2508 1.511 . S
C2511 H2525 0.961 . S
C2511 H2526 0.961 . S
C2511 H2527 0.961 . S
C2512 C2513 1.370 . S
C2512 C2514 1.363 . S
C2512 H2528 0.931 . S
C2513 C2512 1.370 . S
C2513 C2517 1.408 . S
C2514 C2512 1.363 . S
C2514 C2515 1.370 . S
C2514 C2518 1.524 . S
C2515 C2507 1.503 . S
C2515 C2514 1.370 . S
C2515 C2516 1.403 . S
C2516 C2515 1.403 . S
C2516 C2517 1.404 . S
C2516 C2519 1.539 . S
C2517 C2513 1.408 . S
C2517 C2516 1.404 . S
C2517 H2529 0.930 . S
C2518 C2514 1.524 . S
C2518 H2530 0.956 . S
C2518 H2531 0.961 . S
C2518 H2532 0.961 . S
C2519 C2516 1.539 . S
C2519 H2533 0.958 . S
C2519 H2534 0.961 . S
C2519 H2535 0.960 . S
H2520 C2504 0.931 . S
H2521 C2509 0.929 . S
H2522 C2510 0.960 . S
H2523 C2510 0.962 . S
H2524 C2510 0.960 . S
H2525 C2511 0.961 . S
H2526 C2511 0.961 . S
H2527 C2511 0.961 . S
H2528 C2512 0.931 . S
H2529 C2517 0.930 . S
H2530 C2518 0.956 . S
H2531 C2518 0.961 . S
H2532 C2518 0.961 . S
H2533 C2519 0.958 . S
H2534 C2519 0.961 . S
H2535 C2519 0.960 . S
C2536 C2537 1.391 . S
C2536 C2538 1.395 . S
C2536 H2552 0.912 1_556 S
C2537 C2536 1.391 . S
C2537 C2541 1.376 . S
C2538 C2536 1.395 . S
C2538 C2539 1.372 . S
C2538 C2542 1.527 1_556 S
C2539 C2538 1.372 . S
C2539 C2540 1.410 . S
C2539 C2547 1.503 . S
C2540 C2539 1.410 . S
C2540 C2541 1.392 . S
C2540 C2543 1.511 . S
C2541 C2537 1.376 . S
C2541 C2540 1.392 . S
C2541 H2553 0.929 . S
C2542 C2538 1.527 1_554 S
C2542 H2554 0.960 . S
C2542 H2555 0.962 . S
C2542 H2556 0.960 . S
C2543 C2540 1.511 . S
C2543 H2557 0.961 . S
C2543 H2558 0.961 . S
C2543 H2559 0.961 . S
C2544 C2545 1.370 . S
C2544 C2546 1.363 . S
C2544 H2560 0.931 . S
C2545 C2544 1.370 . S
C2545 C2549 1.408 1_556 S
C2546 C2544 1.363 . S
C2546 C2547 1.370 . S
C2546 C2550 1.524 . S
C2547 C2539 1.503 . S
C2547 C2546 1.370 . S
C2547 C2548 1.403 1_556 S
C2548 C2547 1.403 1_554 S
C2548 C2549 1.404 . S
C2548 C2551 1.539 . S
C2549 C2545 1.408 1_554 S
C2549 C2548 1.404 . S
C2549 H2561 0.930 . S
C2550 C2546 1.524 . S
C2550 H2562 0.956 . S
C2550 H2563 0.961 . S
C2550 H2564 0.961 . S
C2551 C2548 1.539 . S
C2551 H2565 0.958 . S
C2551 H2566 0.961 . S
C2551 H2567 0.960 . S
H2552 C2536 0.912 1_554 S
H2553 C2541 0.929 . S
H2554 C2542 0.960 . S
H2555 C2542 0.962 . S
H2556 C2542 0.960 . S
H2557 C2543 0.961 . S
H2558 C2543 0.961 . S
H2559 C2543 0.961 . S
H2560 C2544 0.931 . S
H2561 C2549 0.930 . S
H2562 C2550 0.956 . S
H2563 C2550 0.961 . S
H2564 C2550 0.961 . S
H2565 C2551 0.958 . S
H2566 C2551 0.961 . S
H2567 C2551 0.960 . S
C2568 C2569 1.391 . S
C2568 C2570 1.394 . S
C2568 H2584 0.931 . S
C2569 C2568 1.391 . S
C2569 C2573 1.376 . S
C2570 C2568 1.394 . S
C2570 C2571 1.369 . S
C2570 C2574 1.531 . S
C2571 C2570 1.369 . S
C2571 C2572 1.410 . S
C2571 C2579 1.503 . S
C2572 C2571 1.410 . S
C2572 C2573 1.392 . S
C2572 C2575 1.511 . S
C2573 C2569 1.376 . S
C2573 C2572 1.392 . S
C2573 H2585 0.929 . S
C2574 C2570 1.531 . S
C2574 H2586 0.960 . S
C2574 H2587 0.962 . S
C2574 H2588 0.960 . S
C2575 C2572 1.511 . S
C2575 H2589 0.961 . S
C2575 H2590 0.961 . S
C2575 H2591 0.961 . S
C2576 C2577 1.370 . S
C2576 C2578 1.363 . S
C2576 H2592 0.931 . S
C2577 C2576 1.370 . S
C2577 C2581 1.408 . S
C2578 C2576 1.363 . S
C2578 C2579 1.370 . S
C2578 C2582 1.524 . S
C2579 C2571 1.503 . S
C2579 C2578 1.370 . S
C2579 C2580 1.403 . S
C2580 C2579 1.403 . S
C2580 C2581 1.404 . S
C2580 C2583 1.539 . S
C2581 C2577 1.408 . S
C2581 C2580 1.404 . S
C2581 H2593 0.930 . S
C2582 C2578 1.524 . S
C2582 H2594 0.956 . S
C2582 H2595 0.961 . S
C2582 H2596 0.961 . S
C2583 C2580 1.539 . S
C2583 H2597 0.958 . S
C2583 H2598 0.961 . S
C2583 H2599 0.960 . S
H2584 C2568 0.931 . S
H2585 C2573 0.929 . S
H2586 C2574 0.960 . S
H2587 C2574 0.962 . S
H2588 C2574 0.960 . S
H2589 C2575 0.961 . S
H2590 C2575 0.961 . S
H2591 C2575 0.961 . S
H2592 C2576 0.931 . S
H2593 C2581 0.930 . S
H2594 C2582 0.956 . S
H2595 C2582 0.961 . S
H2596 C2582 0.961 . S
H2597 C2583 0.958 . S
H2598 C2583 0.961 . S
H2599 C2583 0.960 . S
C2600 C2601 1.391 . S
C2600 C2602 1.394 . S
C2600 H2616 0.931 . S
C2601 C2600 1.391 . S
C2601 C2605 1.376 . S
C2602 C2600 1.394 . S
C2602 C2603 1.369 . S
C2602 C2606 1.555 . S
C2603 C2602 1.369 . S
C2603 C2604 1.410 . S
C2603 C2611 1.503 . S
C2604 C2603 1.410 . S
C2604 C2605 1.392 . S
C2604 C2607 1.511 . S
C2605 C2601 1.376 . S
C2605 C2604 1.392 . S
C2605 H2617 0.929 . S
C2606 C2602 1.555 . S
C2606 H2618 0.976 . S
C2606 H2619 0.927 1_554 S
C2606 H2620 0.956 1_554 S
C2607 C2604 1.511 . S
C2607 H2621 0.961 . S
C2607 H2622 0.961 . S
C2607 H2623 0.961 . S
C2608 C2609 1.370 . S
C2608 C2610 1.363 . S
C2608 H2624 0.931 1_554 S
C2609 C2608 1.370 . S
C2609 C2613 1.408 . S
C2610 C2608 1.363 . S
C2610 C2611 1.370 . S
C2610 C2614 1.524 1_554 S
C2611 C2603 1.503 . S
C2611 C2610 1.370 . S
C2611 C2612 1.403 . S
C2612 C2611 1.403 . S
C2612 C2613 1.404 . S
C2612 C2615 1.539 . S
C2613 C2609 1.408 . S
C2613 C2612 1.404 . S
C2613 H2625 0.930 . S
C2614 C2610 1.524 1_556 S
C2614 H2626 0.956 . S
C2614 H2627 0.961 1_556 S
C2614 H2628 0.961 . S
C2615 C2612 1.539 . S
C2615 H2629 0.958 . S
C2615 H2630 0.961 . S
C2615 H2631 0.960 . S
H2616 C2600 0.931 . S
H2617 C2605 0.929 . S
H2618 C2606 0.976 . S
H2619 C2606 0.927 1_556 S
H2620 C2606 0.956 1_556 S
H2621 C2607 0.961 . S
H2622 C2607 0.961 . S
H2623 C2607 0.961 . S
H2624 C2608 0.931 1_556 S
H2625 C2613 0.930 . S
H2626 C2614 0.956 . S
H2627 C2614 0.961 1_554 S
H2628 C2614 0.961 . S
H2629 C2615 0.958 . S
H2630 C2615 0.961 . S
H2631 C2615 0.960 . S
C2632 C2633 1.391 . S
C2632 C2634 1.394 . S
C2632 H2648 0.931 . S
C2633 C2632 1.391 . S
C2633 C2637 1.376 . S
C2634 C2632 1.394 . S
C2634 C2635 1.369 . S
C2634 C2638 1.531 . S
C2635 C2634 1.369 . S
C2635 C2636 1.410 . S
C2635 C2643 1.503 . S
C2636 C2635 1.410 . S
C2636 C2637 1.392 . S
C2636 C2639 1.511 . S
C2637 C2633 1.376 . S
C2637 C2636 1.392 . S
C2637 H2649 0.929 . S
C2638 C2634 1.531 . S
C2638 H2650 0.960 . S
C2638 H2651 0.962 1_554 S
C2638 H2652 0.960 . S
C2639 C2636 1.511 . S
C2639 H2653 0.961 . S
C2639 H2654 0.961 . S
C2639 H2655 0.961 . S
C2640 C2641 1.370 1_556 S
C2640 C2642 1.363 . S
C2640 H2656 0.931 . S
C2641 C2640 1.370 1_554 S
C2641 C2645 1.408 . S
C2642 C2640 1.363 . S
C2642 C2643 1.370 1_556 S
C2642 C2646 1.524 . S
C2643 C2635 1.503 . S
C2643 C2642 1.370 1_554 S
C2643 C2644 1.403 . S
C2644 C2643 1.403 . S
C2644 C2645 1.404 . S
C2644 C2647 1.539 . S
C2645 C2641 1.408 . S
C2645 C2644 1.404 . S
C2645 H2657 0.930 . S
C2646 C2642 1.524 . S
C2646 H2658 0.956 . S
C2646 H2659 0.961 . S
C2646 H2660 0.961 . S
C2647 C2644 1.539 . S
C2647 H2661 0.958 . S
C2647 H2662 0.961 . S
C2647 H2663 0.960 . S
H2648 C2632 0.931 . S
H2649 C2637 0.929 . S
H2650 C2638 0.960 . S
H2651 C2638 0.962 1_556 S
H2652 C2638 0.960 . S
H2653 C2639 0.961 . S
H2654 C2639 0.961 . S
H2655 C2639 0.961 . S
H2656 C2640 0.931 . S
H2657 C2645 0.930 . S
H2658 C2646 0.956 . S
H2659 C2646 0.961 . S
H2660 C2646 0.961 . S
H2661 C2647 0.958 . S
H2662 C2647 0.961 . S
H2663 C2647 0.960 . S
C1137 C971 1.452 . S
C1129 C331 1.462 . S
C1169 C979 1.309 . S
C1161 C380 1.535 . S
C1193 C421 1.397 . S
C1201 C999 1.405 . S
C1233 C1013 1.503 . S
C1225 C260 1.513 1_655 S
C1265 C1028 1.528 . S
C1257 C620 1.486 . S
C1297 C1042 1.517 . S
C1289 C740 1.478 . S
C1321 C680 1.550 . S
C1329 C1056 1.566 . S
C1361 C1062 1.437 . S
C1353 C571 1.461 . S
C1385 C691 1.511 . S
C1393 C1076 1.488 . S
C1425 C1097 1.539 . S
C1417 C541 1.518 . S
C1449 C601 1.437 . S
C1457 C1077 1.209 . S
C1489 C1098 1.538 . S
C1481 C721 1.527 . S
C1513 C451 1.464 . S
C1521 C1105 1.250 . S
C1545 C241 1.469 . S
C1553 C1111 1.485 . S
C1577 C320 1.500 . S
C1585 C1104 1.465 . S
C1609 C391 1.454 . S
C1617 C1112 1.481 . S
C1641 C211 1.490 . S
C1649 C1006 1.460 . S
C1673 C841 1.458 . S
C1681 C1007 1.253 . S
C1713 C964 1.517 . S
C1705 C901 1.552 . S
C1745 C985 1.429 . S
C1737 C500 1.432 . S
C1769 C271 1.472 . S
C1777 C1020 1.448 . S
C1809 C1070 1.530 . S
C1801 C661 1.503 . S
C1841 C1021 1.236 . S
C1833 C560 1.445 . S
C1873 C1049 1.273 . S
C1865 C751 1.552 . S
C1905 C1055 1.453 . S
C1897 C871 1.459 . S
C1929 C920 1.524 . S
C1937 C1063 1.277 . S
C1961 C481 1.401 . S
C1969 C1027 1.406 . S
C2001 C1041 1.499 . S
C1993 C800 1.507 . S
C2025 C200 1.492 . S
C2033 C1000 1.528 . S
C2065 C1014 1.516 . S
C2057 C20 1.509 . S
C2097 C972 1.565 . S
C2089 C80 1.556 . S
C2129 C978 1.427 . S
C2121 C151 1.441 . S
C2153 C91 1.464 . S
C2161 C1090 1.486 . S
C2185 C121 1.510 . S
C2193 C1083 1.536 . S
C2217 C181 1.465 . S
C2225 C1091 1.231 . S
C2249 C1 1.504 . S
C2257 C1084 1.539 . S
C2289 C1119 1.201 . S
C2281 C511 1.474 . S
C2321 C1125 1.486 . S
C2313 C781 1.462 . S
C2353 C1118 1.461 . S
C2345 C860 1.500 . S
C2377 C931 1.462 . S
C2385 C1126 1.482 . S
C2409 C631 1.491 . S
C2417 C1034 1.459 . S
C2449 C1035 1.226 . S
C2441 C301 1.483 . S
C2481 C1048 1.503 . S
C2473 C361 1.527 . S
C2513 C1069 1.438 . S
C2505 C440 1.442 . S
C2537 C811 1.448 . S
C2545 C992 1.460 1_556 S
C2577 C986 1.531 . S
C2569 C61 1.480 . S
C2601 C140 1.427 . S
C2609 C993 1.228 . S
C2641 C965 1.276 . S
C2633 C31 1.551 . S
