# Generated by pormake.
# Topology ftw, (4,12)-cn, num edge types: 1
# Building blocks:
#     Node 0, Type 0, BuildingBlock: GIZVER_clean_linker_0, # of connection points: 4
#     Node 1, Type 0, BuildingBlock: GIZVER_clean_linker_0, # of connection points: 4
#     Node 2, Type 0, BuildingBlock: GIZVER_clean_linker_0, # of connection points: 4
#     Node 3, Type 1, BuildingBlock: EZIPEK_clean_sbu_0, # of connection points: 12
#     Edge 4, Type (0, 1), BuildingBlock: ZUJKAS_clean_linker_0, # of connection points: 2
#     Edge 5, Type (0, 1), BuildingBlock: ZUJKAS_clean_linker_0, # of connection points: 2
#     Edge 6, Type (0, 1), BuildingBlock: ZUJKAS_clean_linker_0, # of connection points: 2
#     Edge 7, Type (0, 1), BuildingBlock: ZUJKAS_clean_linker_0, # of connection points: 2
#     Edge 8, Type (0, 1), BuildingBlock: ZUJKAS_clean_linker_0, # of connection points: 2
#     Edge 9, Type (0, 1), BuildingBlock: ZUJKAS_clean_linker_0, # of connection points: 2
#     Edge 10, Type (0, 1), BuildingBlock: ZUJKAS_clean_linker_0, # of connection points: 2
#     Edge 11, Type (0, 1), BuildingBlock: ZUJKAS_clean_linker_0, # of connection points: 2
#     Edge 12, Type (0, 1), BuildingBlock: ZUJKAS_clean_linker_0, # of connection points: 2
#     Edge 13, Type (0, 1), BuildingBlock: ZUJKAS_clean_linker_0, # of connection points: 2
#     Edge 14, Type (0, 1), BuildingBlock: ZUJKAS_clean_linker_0, # of connection points: 2
#     Edge 15, Type (0, 1), BuildingBlock: ZUJKAS_clean_linker_0, # of connection points: 2
# Relax obj value: 0.085
# Max RMSD: 0.239
# Mean RMSD: 0.181
data_MOF--net-ftw--node1-EZIPEK_clean_sbu_0--node2-GIZVER_clean_linker_0--edge1-ZUJKAS_clean_linker_0
_symmetry_space_group_name_H-M    P1
_symmetry_Int_Tables_number       1
_symmetry_cell_setting            triclinic
loop_
_symmetry_equiv_pos_as_xyz
'x, y, z'
_cell_length_a     32.14002
_cell_length_b     30.354867
_cell_length_c     29.637736
_cell_angle_alpha  89.747438
_cell_angle_beta   89.831771
_cell_angle_gamma 90.011914
loop_
_atom_site_label
_atom_site_type_symbol
_atom_site_fract_x
_atom_site_fract_y
_atom_site_fract_z
_atom_type_partial_charge
H0 H 0.89153 0.47178 0.41664 0.0
H1 H 0.89388 0.46775 0.56181 0.0
H2 H 0.9699 0.3785 0.48575 0.0
H3 H 0.83774 0.51027 0.46114 0.0
H4 H 0.83875 0.50862 0.52161 0.0
H5 H 0.88016 0.5634 0.41938 0.0
H6 H 0.94706 0.66202 0.49327 0.0
H7 H 0.89059 0.55347 0.56398 0.0
C8 C 0.90338 0.45757 0.44766 0.0
C9 C 0.9327 0.42328 0.44595 0.0
C10 C 0.88933 0.47378 0.48935 0.0
C11 C 0.90472 0.45546 0.52956 0.0
C12 C 0.93443 0.42171 0.52827 0.0
C13 C 0.94828 0.40591 0.4865 0.0
C14 C 0.85868 0.51124 0.49095 0.0
C15 C 0.88207 0.55421 0.49169 0.0
C16 C 0.89131 0.57641 0.45113 0.0
C17 C 0.91427 0.61571 0.45164 0.0
C18 C 0.92906 0.63181 0.49283 0.0
C19 C 0.92088 0.60961 0.53344 0.0
C20 C 0.89699 0.57095 0.53276 0.0
H21 H 0.49747 0.08284 0.41584 0.0
H22 H 0.50126 0.07809 0.56079 0.0
H23 H 0.40053 0.0166 0.48973 0.0
H24 H 0.54018 0.1353 0.45825 0.0
H25 H 0.54099 0.13404 0.51849 0.0
H26 H 0.57941 0.0787 0.41408 0.0
H27 H 0.68707 0.02577 0.48073 0.0
H28 H 0.5918 0.09019 0.55811 0.0
C29 C 0.48431 0.07156 0.44756 0.0
C30 C 0.4473 0.04694 0.44777 0.0
C31 C 0.50381 0.0829 0.48826 0.0
C32 C 0.48646 0.06886 0.5294 0.0
C33 C 0.44938 0.0444 0.53019 0.0
C34 C 0.43034 0.03331 0.48923 0.0
C35 C 0.5412 0.1128 0.48798 0.0
C36 C 0.58083 0.08638 0.4864 0.0
C37 C 0.59652 0.07179 0.44476 0.0
C38 C 0.63482 0.04969 0.44247 0.0
C39 C 0.65696 0.04177 0.48239 0.0
C40 C 0.64201 0.05655 0.52416 0.0
C41 C 0.60336 0.07801 0.52612 0.0
H42 H 0.58296 0.44185 0.0184 0.0
H43 H 0.59143 0.58298 0.02839 0.0
H44 H 0.69308 0.509 0.97249 0.0
H45 H 0.54157 0.48352 0.07427 0.0
H46 H 0.54272 0.54194 0.07535 0.0
H47 H 0.49251 0.44456 0.0273 0.0
H48 H 0.39162 0.52096 0.97304 0.0
H49 H 0.50205 0.58585 0.02017 0.0
C50 C 0.59966 0.47219 0.01157 0.0
C51 C 0.63995 0.47053 -0.00708 0.0
C52 C 0.58163 0.51273 0.02388 0.0
C53 C 0.60428 0.55199 0.01686 0.0
C54 C 0.64481 0.55086 -0.00124 0.0
C55 C 0.66169 0.5101 -0.01412 0.0
C56 C 0.54227 0.51322 0.05213 0.0
C57 C 0.50263 0.51487 0.02461 0.0
C58 C 0.47986 0.47598 0.01654 0.0
C59 C 0.43944 0.47792 -0.00156 0.0
C60 C 0.4229 0.51919 -0.01355 0.0
C61 C 0.44492 0.55838 -0.00571 0.0
C62 C 0.48511 0.55585 0.01287 0.0
C63 C 0.0419 0.11911 0.87618 0.0
C64 C 0.03645 0.12302 0.09429 0.0
C65 C 0.03955 0.90507 0.88129 0.0
C66 C 0.03776 0.90904 0.09928 0.0
C67 C 0.14404 0.90792 -0.01009 0.0
C68 C 0.14336 0.12131 -0.01318 0.0
C69 C 0.9414 0.90701 -0.01126 0.0
C70 C 0.94096 0.12055 -0.01651 0.0
C71 C 0.93982 0.01545 0.0954 0.0
C72 C 0.14205 0.01594 0.09796 0.0
C73 C 0.94247 1.01366 0.8776 0.0
C74 C 0.14458 1.01156 0.87984 0.0
Eu75 Eu 0.04222 0.09753 -0.01417 0.0
O76 O 0.07872 0.05437 0.02781 0.0
O77 O 1.00602 0.05237 0.94629 0.0
Eu78 Eu 0.12062 1.01453 -0.01138 0.0
Eu79 Eu 0.96399 1.01382 -0.01327 0.0
O80 O 0.0796 0.0528 0.94678 0.0
O81 O 1.00504 0.05368 0.02646 0.0
Eu82 Eu 0.04324 1.01256 0.90201 0.0
Eu83 Eu 0.04123 0.01565 0.07348 0.0
O84 O 0.07968 0.97434 0.94882 0.0
O85 O 0.07889 0.97564 0.0295 0.0
O86 O 1.00526 0.97563 0.02829 0.0
O87 O 1.00617 0.97402 0.94806 0.0
Eu88 Eu 0.04263 0.93062 -0.01025 0.0
O89 O 0.04276 0.1332 0.91874 0.0
O90 O 0.03799 0.13545 0.05108 0.0
O91 O 0.04074 0.89266 0.92449 0.0
O92 O 0.04018 0.89499 0.05677 0.0
O93 O 0.15609 0.95002 -0.01035 0.0
O94 O 0.15582 0.07934 -0.01297 0.0
O95 O 0.92896 0.94895 -0.01296 0.0
O96 O 0.92873 0.07851 -0.01512 0.0
O97 O 0.97906 0.01596 0.11019 0.0
O98 O 0.1024 0.01586 0.11174 0.0
O99 O 0.98209 1.01366 0.8638 0.0
O100 O 0.10528 1.01092 0.86525 0.0
O101 O 0.98101 0.8936 -0.00966 0.0
O102 O 0.10451 0.89406 -0.00989 0.0
O103 O 0.98052 0.13421 0.98332 0.0
O104 O 0.10372 0.1347 -0.0131 0.0
O105 O 0.03811 0.08149 0.10937 0.0
O106 O 0.03804 0.95114 0.11228 0.0
O107 O 0.042 0.07705 0.86309 0.0
O108 O 0.04065 0.94664 0.86623 0.0
O109 O 0.15634 1.01319 0.92293 0.0
O110 O 0.1548 0.01567 0.05508 0.0
O111 O 0.92973 1.01322 0.92044 0.0
O112 O 0.92826 1.01463 0.05226 0.0
H113 H 1.01054 0.39683 0.42009 0.0
H114 H 0.02893 0.3528 0.35432 0.0
H115 H 0.90237 0.36105 0.30695 0.0
H116 H 0.88326 0.40344 0.37385 0.0
H117 H 0.92921 0.27762 0.31029 0.0
H118 H 0.0473 0.37958 0.2226 0.0
H119 H 0.05975 0.37119 0.28095 0.0
H120 H 1.01362 0.40146 0.2659 0.0
C121 C 0.98669 0.38964 0.39544 0.0
C122 C 0.94535 0.4033 0.40239 0.0
C123 C 0.99739 0.36494 0.35754 0.0
C124 C 0.96713 0.354 0.32548 0.0
C125 C 0.92625 0.36933 0.33121 0.0
H126 H 1.01796 0.20977 0.0785 0.0
H127 H 1.00123 0.26622 0.13389 0.0
C128 C 0.91545 0.39384 0.36928 0.0
C129 C 0.97716 0.32276 0.28877 0.0
H130 H 0.04561 0.30286 0.20298 0.0
C131 C 0.95437 0.28337 0.2865 0.0
C132 C 1.00976 0.33043 0.25754 0.0
C133 C 0.03371 0.37318 0.25652 0.0
C134 C 0.96397 0.25093 0.25463 0.0
C135 C 0.99797 0.25761 0.22498 0.0
C136 C 1.02001 0.29752 0.22631 0.0
C137 C 1.01058 0.22381 0.1918 0.0
C138 C 0.93729 0.21002 0.25275 0.0
C139 C 1.02249 0.18152 0.20609 0.0
C140 C 0.03191 0.14894 0.17451 0.0
C141 C 0.03006 0.15827 0.12803 0.0
C142 C 1.01975 0.20128 0.11398 0.0
C143 C 1.01011 0.23369 0.14558 0.0
H144 H 0.90631 0.21544 0.26852 0.0
H145 H 0.93263 0.19913 0.2174 0.0
H146 H 0.95291 0.18302 0.27153 0.0
H147 H 1.02402 0.17356 0.24171 0.0
H148 H 0.04011 0.11637 0.18659 0.0
H149 H 0.63965 0.10264 0.36801 0.0
H150 H 0.68453 0.09246 0.30217 0.0
H151 H 0.7225 0.96553 0.35346 0.0
H152 H 0.67654 0.97477 0.41853 0.0
H153 H 0.76859 0.08539 0.31199 0.0
H154 H 0.70803 0.94046 0.21992 0.0
H155 H 0.67733 0.97005 0.26096 0.0
H156 H 0.71534 0.93029 0.27907 0.0
C157 C 0.6563 0.07184 0.36441 0.0
C158 C 0.65475 0.03958 0.39854 0.0
C159 C 0.6822 0.06623 0.32696 0.0
C160 C 0.70677 0.02823 0.32291 0.0
C161 C 0.70336 0.99482 0.35554 0.0
H162 H 0.94628 1.01136 0.1878 0.0
H163 H 0.88961 1.01365 0.24303 0.0
C164 C 0.67737 1.00032 0.3929 0.0
C165 C 0.73959 0.026 0.28789 0.0
H166 H 0.77746 0.96313 0.20191 0.0
C167 C 0.77034 0.05887 0.28764 0.0
C168 C 0.74173 0.99141 0.2562 0.0
C169 C 0.70863 0.95627 0.25366 0.0
C170 C 0.80355 0.05779 0.25694 0.0
C171 C 0.80646 0.0224 0.22627 0.0
C172 C 0.77536 0.9899 0.22594 0.0
C173 C 0.84082 0.01942 0.19317 0.0
C174 C 0.83489 0.09485 0.2572 0.0
C175 C 0.83199 0.02078 0.14695 0.0
C176 C 0.86415 0.01926 0.11535 0.0
C177 C 0.9059 0.01621 0.12934 0.0
C178 C 0.91459 1.01411 0.1758 0.0
C179 C 0.88227 0.01554 0.20743 0.0
H180 H 0.82272 0.12441 0.27485 0.0
H181 H 0.86334 0.08379 0.27508 0.0
H182 H 0.84384 0.10443 0.22229 0.0
H183 H 0.80017 0.02368 0.13532 0.0
H184 H 0.85611 0.02089 0.07992 0.0
H185 H 0.90589 0.70376 0.43757 0.0
H186 H 0.92995 0.7466 0.37261 0.0
H187 H 0.9678 0.62707 0.30596 0.0
H188 H 0.94406 0.58373 0.37145 0.0
H189 H 1.01746 0.7409 0.34104 0.0
H190 H 0.89933 0.70128 0.20993 0.0
H191 H 0.88833 0.69565 0.26951 0.0
H192 H 0.92158 0.65662 0.24203 0.0
C193 C 0.91903 0.68654 0.40893 0.0
C194 C 0.92351 0.64048 0.40965 0.0
C195 C 0.93264 0.71102 0.37189 0.0
C196 C 0.95063 0.68992 0.33471 0.0
C197 C 0.95363 0.6438 0.33432 0.0
H198 H 0.04314 0.81937 0.09029 0.0
H199 H 0.02694 0.76332 0.14701 0.0
C200 C 0.93999 0.61915 0.37157 0.0
C201 C 0.96863 0.71692 0.29803 0.0
H202 H 0.95194 0.75172 0.19008 0.0
C203 C 1.00341 0.74306 0.30786 0.0
C204 C 0.95035 0.7192 0.25486 0.0
C205 C 0.9127 0.69193 0.24315 0.0
C206 C 1.01994 0.77233 0.27581 0.0
C207 C 1.00052 0.77615 0.23324 0.0
C208 C 0.96664 0.7488 0.22285 0.0
C209 C 1.01336 0.81001 0.19995 0.0
C210 C 0.05795 0.79892 0.28791 0.0
C211 C 1.01124 0.85485 0.21104 0.0
C212 C 1.02066 0.88705 0.17883 0.0
C213 C 0.03189 0.87499 0.13467 0.0
C214 C 0.03459 0.82993 0.12392 0.0
C215 C 0.0253 0.79778 0.15625 0.0
H216 H 0.07634 0.78253 0.31487 0.0
H217 H 0.07836 0.80422 0.25809 0.0
H218 H 0.04801 0.83157 0.30073 0.0
H219 H 1.00116 0.86502 0.24431 0.0
H220 H 1.0178 0.92135 0.18825 0.0
H221 H 0.43325 0.10521 0.37875 0.0
H222 H 0.38522 0.09648 0.31562 0.0
H223 H 0.35752 0.96406 0.35963 0.0
H224 H 0.40671 0.97191 0.42194 0.0
H225 H 0.36315 0.97233 0.26596 0.0
H226 H 0.25966 0.09955 0.33998 0.0
H227 H 0.31186 0.11815 0.32952 0.0
H228 H 0.3025 0.07554 0.37065 0.0
C229 C 0.41782 0.07382 0.37435 0.0
C230 C 0.42347 0.03938 0.40564 0.0
C231 C 0.38997 0.06909 0.33859 0.0
C232 C 0.36709 0.03004 0.3337 0.0
C233 C 0.37457 0.99465 0.36313 0.0
H234 H 0.13311 1.00545 0.18959 0.0
H235 H 0.18793 1.00613 0.24664 0.0
C236 C 0.40251 0.99926 0.3988 0.0
C237 C 0.33373 0.02687 0.29953 0.0
H238 H 0.24137 0.07279 0.26774 0.0
C239 C 0.33649 0.99424 0.26628 0.0
C240 C 0.29856 0.05489 0.30074 0.0
C241 C 0.2926 0.08874 0.33736 0.0
C242 C 0.30534 0.98948 0.23354 0.0
C243 C 0.271 0.01866 0.2337 0.0
C244 C 0.2679 0.05072 0.26748 0.0
C245 C 0.23805 0.01689 0.19893 0.0
C246 C 0.30916 0.9528 0.19957 0.0
C247 C 0.24802 0.02325 0.15329 0.0
C248 C 0.21687 0.02275 0.1206 0.0
C249 C 0.17494 0.01637 0.13293 0.0
C250 C 0.165 1.01047 0.17882 0.0
C251 C 0.19629 1.01078 0.2115 0.0
H252 H 0.33011 0.9262 0.21178 0.0
H253 H 0.2783 0.93825 0.19188 0.0
H254 H 0.32251 0.96618 0.16778 0.0
H255 H 0.2799 0.02918 0.14297 0.0
H256 H 0.22575 0.02786 0.08569 0.0
H257 H 0.87868 0.62095 0.6129 0.0
H258 H 0.902 0.66287 0.67874 0.0
H259 H 1.02142 0.68344 0.61526 0.0
H260 H 0.99884 0.64055 0.55022 0.0
H261 H 0.0269 0.66875 0.70826 0.0
H262 H 0.91017 0.79734 0.66511 0.0
H263 H 0.88918 0.74331 0.6751 0.0
H264 H 0.92282 0.75274 0.62748 0.0
C265 C 0.91023 0.63348 0.61356 0.0
C266 C 0.93674 0.6282 0.5762 0.0
C267 C 0.92337 0.65771 0.65093 0.0
C268 C 0.96306 0.67705 0.65128 0.0
C269 C 0.99054 0.6691 0.61544 0.0
H270 H 0.04073 0.91246 0.78898 0.0
H271 H 0.02528 0.85501 0.73406 0.0
C272 C 0.97751 0.64486 0.57823 0.0
C273 C 0.97507 0.70852 0.68687 0.0
H274 H 0.95152 0.80985 0.72922 0.0
C275 C 1.01036 0.69952 0.71312 0.0
C276 C 0.95385 0.749 0.6923 0.0
C277 C 0.91712 0.76154 0.6633 0.0
C278 C 0.02498 0.72998 0.74486 0.0
C279 C 1.00329 0.77009 0.75081 0.0
C280 C 0.968 0.779 0.72458 0.0
C281 C 1.01648 0.80355 0.78395 0.0
C282 C 0.06408 0.7195 0.77084 0.0
C283 C 1.01699 0.7935 0.83013 0.0
C284 C 0.02599 0.82615 0.86162 0.0
C285 C 0.0342 0.86969 0.84754 0.0
C286 C 0.03451 0.87939 0.80109 0.0
C287 C 0.02566 0.8466 0.76962 0.0
H288 H 0.08284 0.6936 0.75394 0.0
H289 H 0.08368 0.74934 0.77494 0.0
H290 H 0.05548 0.7072 0.80492 0.0
H291 H 1.00912 0.76072 0.84195 0.0
H292 H 0.02516 0.81742 0.89708 0.0
H293 H 0.4094 0.9684 0.55514 0.0
H294 H 0.36155 0.95861 0.61882 0.0
H295 H 0.39197 0.0887 0.66638 0.0
H296 H 0.43871 0.0994 0.60208 0.0
H297 H 0.36805 0.96481 0.71425 0.0
H298 H 0.26602 0.09391 0.64043 0.0
H299 H 0.30849 0.06939 0.60952 0.0
H300 H 0.31853 0.1114 0.65064 0.0
C301 C 0.40623 0.99472 0.57947 0.0
C302 C 0.42737 0.0349 0.57324 0.0
C303 C 0.37908 0.98899 0.61589 0.0
C304 C 0.37266 0.02331 0.64662 0.0
C305 C 0.39604 0.06214 0.64248 0.0
H306 H 0.22828 0.0217 0.89335 0.0
H307 H 0.28347 0.02159 0.83686 0.0
C308 C 0.4231 0.06799 0.60599 0.0
C309 C 0.33915 0.01986 0.68072 0.0
H310 H 0.24673 0.06593 0.71209 0.0
C311 C 0.34149 0.98686 0.71389 0.0
C312 C 0.30415 0.0481 0.6794 0.0
C313 C 0.29877 0.08245 0.64287 0.0
C314 C 0.31003 0.98196 0.74651 0.0
C315 C 0.2758 1.01128 0.74613 0.0
C316 C 0.27317 0.04371 0.71244 0.0
C317 C 0.24243 1.00935 0.78057 0.0
C318 C 0.31337 0.94504 0.78057 0.0
C319 C 0.20087 1.0035 0.7675 0.0
C320 C 0.16901 1.004 0.79968 0.0
C321 C 0.17819 1.0105 0.84555 0.0
C322 C 0.21997 0.01627 0.85843 0.0
C323 C 0.25171 0.01592 0.82621 0.0
H324 H 0.33458 0.91859 0.7687 0.0
H325 H 0.3261 0.95825 0.81253 0.0
H326 H 0.2824 0.93039 0.78786 0.0
H327 H 0.19307 0.99869 0.73233 0.0
H328 H 0.13727 0.99936 0.7885 0.0
H329 H 0.88838 0.3866 0.59667 0.0
H330 H 0.91363 0.34242 0.66016 0.0
H331 H 0.04031 0.36582 0.61755 0.0
H332 H 1.01493 0.40866 0.55304 0.0
H333 H 0.02829 0.28196 0.63074 0.0
H334 H 0.96547 0.36981 0.77879 0.0
H335 H 0.92488 0.35685 0.73972 0.0
H336 H 0.96594 0.39404 0.72308 0.0
C337 C 0.92161 0.38309 0.60157 0.0
C338 C 0.94978 0.40092 0.57018 0.0
C339 C 0.93605 0.35804 0.63795 0.0
C340 C 0.97893 0.35128 0.64405 0.0
C341 C 1.00712 0.37066 0.6136 0.0
H342 H 0.0649 0.2056 0.88131 0.0
H343 H 0.05485 0.2631 0.82435 0.0
C344 C 0.99266 0.39511 0.57686 0.0
C345 C 0.99408 0.32045 0.6793 0.0
H346 H 0.98448 0.29378 0.79077 0.0
C347 C 1.0192 0.28495 0.66587 0.0
C348 C 0.98282 0.32461 0.72526 0.0
C349 C 0.95868 0.36369 0.74262 0.0
C350 C 0.03205 0.25265 0.69676 0.0
C351 C 1.01826 0.25512 0.74203 0.0
C352 C 0.99454 0.29152 0.75588 0.0
C353 C 0.02691 0.21968 0.77525 0.0
C354 C 0.0604 0.21637 0.68048 0.0
C355 C 1.01464 0.17614 0.76653 0.0
C356 C 1.02087 0.14311 0.79873 0.0
C357 C 0.03868 0.15321 0.84067 0.0
C358 C 0.05104 0.1968 0.84932 0.0
C359 C 0.0453 0.2297 0.81684 0.0
H360 H 0.07905 0.22719 0.6508 0.0
H361 H 0.08202 0.20537 0.70742 0.0
H362 H 0.0413 0.18779 0.66989 0.0
H363 H 0.99925 0.16786 0.73524 0.0
H364 H 1.01037 0.11001 0.79134 0.0
H365 H 0.7245 0.07528 0.52961 0.0
H366 H 0.7703 0.06663 0.59438 0.0
H367 H 0.66642 0.02328 0.67568 0.0
H368 H 0.62023 0.03063 0.61006 0.0
H369 H 0.76578 0.10747 0.67824 0.0
H370 H 0.75348 0.92503 0.69336 0.0
H371 H 0.73638 0.95464 0.64383 0.0
H372 H 0.70526 0.95504 0.69423 0.0
C373 C 0.7114 0.06337 0.56109 0.0
C374 C 0.66889 0.05287 0.56458 0.0
C375 C 0.73757 0.05879 0.59816 0.0
C376 C 0.72187 0.04371 0.63956 0.0
C377 C 0.67924 0.03422 0.64371 0.0
H378 H 0.85939 0.99712 0.88846 0.0
H379 H 0.80444 1.00456 0.83221 0.0
C380 C 0.65288 0.03879 0.60642 0.0
C381 C 0.75068 0.03835 0.67802 0.0
H382 H 0.79701 0.96116 0.7453 0.0
C383 C 0.77245 0.07554 0.69311 0.0
C384 C 0.75926 0.9966 0.69724 0.0
C385 C 0.73768 0.95539 0.68126 0.0
C386 C 0.80303 0.07203 0.72654 0.0
C387 C 0.81237 0.03016 0.74487 0.0
C388 C 0.78981 0.99314 0.73083 0.0
C389 C 0.84596 0.02419 0.77824 0.0
C390 C 0.82516 0.11311 0.74202 0.0
C391 C 0.88756 0.03191 0.76609 0.0
C392 C 0.91917 0.02759 0.79808 0.0
C393 C 0.9096 0.01553 0.84279 0.0
C394 C 0.86788 1.00684 0.85445 0.0
C395 C 0.83639 1.01094 0.82238 0.0
H396 H 0.80796 0.14346 0.7324 0.0
H397 H 0.82938 0.11272 0.7792 0.0
H398 H 0.85644 0.11456 0.72611 0.0
H399 H 0.89552 0.04159 0.73191 0.0
H400 H 0.95091 0.03457 0.78795 0.0
H401 H 0.46031 0.39379 0.97132 0.0
H402 H 0.41413 0.32929 0.96633 0.0
H403 H 0.31183 0.40729 0.01577 0.0
H404 H 0.35742 0.47105 0.02185 0.0
H405 H 0.3615 0.28935 0.0385 0.0
H406 H 0.26998 0.35389 0.89413 0.0
H407 H 0.32108 0.37448 0.90808 0.0
H408 H 0.27639 0.39189 0.93991 0.0
C409 C 0.42804 0.39707 0.98134 0.0
C410 C 0.41247 0.43791 -0.00388 0.0
C411 C 0.40169 0.36027 0.97833 0.0
C412 C 0.35937 0.36379 -0.01016 0.0
C413 C 0.34413 0.4041 0.00572 0.0
H414 H 0.13446 0.21032 7e-05 0.0
H415 H 0.18883 0.26657 0.00018 0.0
C416 C 0.3703 0.44063 0.00894 0.0
C417 C 0.33069 0.32563 -0.01415 0.0
H418 H 0.24162 0.29233 0.93342 0.0
C419 C 0.33557 0.28961 0.01517 0.0
C420 C 0.29678 0.32626 0.95554 0.0
C421 C 0.29078 0.3635 0.92231 0.0
C422 C 0.30643 0.25497 0.01627 0.0
C423 C 0.272 0.25598 -0.01352 0.0
C424 C 0.26783 0.29158 0.95639 0.0
C425 C 0.23927 0.22122 -0.01328 0.0
C426 C 0.31187 0.21862 0.05065 0.0
C427 C 0.24932 0.17694 0.9786 0.0
C428 C 0.21828 0.14455 0.9788 0.0
C429 C 0.17633 0.15579 -0.01345 0.0
C430 C 0.16632 0.20032 -0.00603 0.0
C431 C 0.19743 0.23261 -0.00595 0.0
H432 H 0.333 0.22861 0.0784 0.0
H433 H 0.2815 0.20872 0.06549 0.0
H434 H 0.32572 0.18944 0.03393 0.0
H435 H 0.28116 0.16742 0.97167 0.0
H436 H 0.22723 0.11075 0.97244 0.0
H437 H 0.39504 0.58481 0.92424 0.0
H438 H 0.34903 0.64884 0.92193 0.0
H439 H 0.39895 0.69348 0.04865 0.0
H440 H 0.44398 0.6286 0.05203 0.0
H441 H 0.31475 0.69 0.05004 0.0
H442 H 0.36634 0.77843 0.89594 0.0
H443 H 0.35482 0.7215 0.88581 0.0
H444 H 0.39727 0.73594 0.92234 0.0
C445 C 0.39669 0.60859 0.95131 0.0
C446 C 0.42317 0.60143 -0.01161 0.0
C447 C 0.37059 0.64545 0.94974 0.0
C448 C 0.37069 0.67626 -0.01506 0.0
C449 C 0.39842 0.67026 0.021 0.0
H450 H 0.22857 0.92094 -0.0122 0.0
H451 H 0.28344 0.86542 -0.01245 0.0
C452 C 0.42448 0.63333 0.02267 0.0
C453 C 0.33929 0.71228 -0.01381 0.0
H454 H 0.2999 0.79894 0.92593 0.0
C455 C 0.31176 0.71404 0.02306 0.0
C456 C 0.33548 0.74387 0.95116 0.0
C457 C 0.36531 0.74521 0.9118 0.0
C458 C 0.28006 0.74582 0.02542 0.0
C459 C 0.2752 0.77627 -0.01046 0.0
C460 C 0.30331 0.77523 0.95316 0.0
C461 C 0.24145 0.80978 -0.01056 0.0
C462 C 0.25237 0.74682 0.06661 0.0
C463 C 0.19944 0.79701 -0.00991 0.0
C464 C 0.16779 0.82872 -0.00966 0.0
C465 C 0.17748 0.87396 -0.01029 0.0
C466 C 0.2197 0.88653 -0.01148 0.0
C467 C 0.25126 0.85479 -0.01174 0.0
H468 H 0.26682 0.7295 0.09571 0.0
H469 H 0.24528 0.78122 0.07665 0.0
H470 H 0.22258 0.73003 0.05885 0.0
H471 H 0.19109 0.76244 -0.00987 0.0
H472 H 0.13575 0.81767 -0.00904 0.0
H473 H 0.64104 0.39845 0.04902 0.0
H474 H 0.68721 0.33452 0.04453 0.0
H475 H 0.73731 0.38334 0.91881 0.0
H476 H 0.69016 0.4465 0.92217 0.0
H477 H 0.72826 0.29267 0.91918 0.0
H478 H 0.81061 0.34916 0.07287 0.0
H479 H 0.75587 0.34002 0.08076 0.0
H480 H 0.77336 0.38312 0.04346 0.0
C481 C 0.66102 0.395 0.01975 0.0
C482 C 0.66216 0.4279 -0.01384 0.0
C483 C 0.68785 0.35871 0.01757 0.0
C484 C 0.71654 0.35475 0.98196 0.0
C485 C 0.71579 0.38594 0.94688 0.0
H486 H 0.94992 0.21067 0.98272 0.0
H487 H 0.89507 0.2664 0.98072 0.0
C488 C 0.68891 0.42212 0.94894 0.0
C489 C 0.74884 0.31964 0.98234 0.0
H490 H 0.83205 0.28103 0.04225 0.0
C491 C 0.75089 0.29002 0.94613 0.0
C492 C 0.77892 0.31676 0.01708 0.0
C493 C 0.77999 0.34917 0.05555 0.0
C494 C 0.78184 0.25731 0.944 0.0
C495 C 0.81117 0.2537 0.97939 0.0
C496 C 0.80936 0.28359 0.01533 0.0
C497 C 0.84436 0.21954 0.9796 0.0
C498 C 0.78346 0.2276 0.90335 0.0
C499 C 0.83415 0.17459 0.9801 0.0
C500 C 0.86544 0.14256 0.9812 0.0
C501 C 0.90775 0.15474 0.98209 0.0
C502 C 0.91781 0.19989 0.98189 0.0
C503 C 0.88645 0.23189 0.9808 0.0
H504 H 0.76625 0.24187 0.8743 0.0
H505 H 0.81611 0.22135 0.89281 0.0
H506 H 0.76891 0.1955 0.91202 0.0
H507 H 0.8019 0.16423 0.98018 0.0
H508 H 0.8563 0.10822 0.98154 0.0
H509 H 0.62411 0.6354 0.97225 0.0
H510 H 0.67037 0.69998 0.96794 0.0
H511 H 0.77188 0.62143 0.01848 0.0
H512 H 0.72622 0.55757 0.02369 0.0
H513 H 0.72188 0.73981 0.03977 0.0
H514 H 0.81575 0.67489 0.89742 0.0
H515 H 0.76454 0.65414 0.91112 0.0
H516 H 0.80888 0.63689 0.9435 0.0
C517 C 0.65622 0.63204 0.98266 0.0
C518 C 0.67161 0.59103 -0.0026 0.0
C519 C 0.68262 0.66888 0.98006 0.0
C520 C 0.72477 0.6652 -0.008 0.0
C521 C 0.73974 0.62475 0.00806 0.0
H522 H 0.94981 0.81822 0.00464 0.0
H523 H 0.8953 0.76207 0.00493 0.0
C524 C 0.71354 0.58818 0.01082 0.0
C525 C 0.75363 0.70327 -0.01192 0.0
H526 H 0.84386 0.73611 0.93682 0.0
C527 C 0.74828 0.73939 0.0169 0.0
C528 C 0.78813 0.70247 0.95833 0.0
C529 C 0.79462 0.66522 0.92551 0.0
C530 C 0.77751 0.77392 0.01808 0.0
C531 C 0.81254 0.77267 -0.01107 0.0
C532 C 0.8172 0.73701 0.95933 0.0
C533 C 0.84532 0.80734 -0.01075 0.0
C534 C 0.77148 0.81047 0.05182 0.0
C535 C 0.83555 0.8515 0.97985 0.0
C536 C 0.86665 0.8838 0.97988 0.0
C537 C 0.90838 0.8726 -0.01121 0.0
C538 C 0.91812 0.82819 -0.0024 0.0
C539 C 0.88694 0.79597 -0.0022 0.0
H540 H 0.74961 0.80078 0.07923 0.0
H541 H 0.80155 0.82021 0.06718 0.0
H542 H 0.75826 0.83969 0.03439 0.0
H543 H 0.8039 0.86097 0.972 0.0
H544 H 0.85792 0.91751 0.97244 0.0
loop_
_geom_bond_atom_site_label_1
_geom_bond_atom_site_label_2
_geom_bond_distance
_geom_bond_site_symmetry_2
_ccdc_geom_bond_type
H0 C8 0.930 . S
H1 C11 0.930 . S
H2 C13 0.930 . S
H3 C14 0.970 . S
H4 C14 0.970 . S
H5 C16 0.930 . S
H6 C18 0.930 . S
H7 C20 0.930 . S
C8 H0 0.930 . S
C8 C9 1.382 . S
C8 C10 1.426 . S
C9 C8 1.382 . S
C9 C13 1.389 1_655 S
C10 C8 1.426 . S
C10 C11 1.375 . S
C10 C14 1.532 . S
C11 H1 0.930 . S
C11 C10 1.375 . S
C11 C12 1.416 . S
C12 C11 1.416 . S
C12 C13 1.371 1_655 S
C13 H2 0.930 . S
C13 C9 1.389 1_455 S
C13 C12 1.371 1_455 S
C14 H3 0.970 . S
C14 H4 0.970 . S
C14 C10 1.532 . S
C14 C15 1.499 . S
C15 C14 1.499 . S
C15 C16 1.370 . S
C15 C20 1.415 . S
C16 H5 0.930 . S
C16 C15 1.370 . S
C16 C17 1.407 . S
C17 C16 1.407 . S
C17 C18 1.365 1_655 S
C18 H6 0.930 . S
C18 C17 1.365 1_455 S
C18 C19 1.393 1_455 S
C19 C18 1.393 1_655 S
C19 C20 1.387 . S
C20 H7 0.930 . S
C20 C15 1.415 . S
C20 C19 1.387 . S
H21 C29 0.930 . S
H22 C32 0.930 . S
H23 C34 0.929 . S
H24 C35 0.970 . S
H25 C35 0.970 . S
H26 C37 0.930 . S
H27 C39 0.930 . S
H28 C41 0.930 . S
C29 H21 0.930 . S
C29 C30 1.382 . S
C29 C31 1.426 . S
C30 C29 1.382 . S
C30 C34 1.389 1_545 S
C31 C29 1.426 . S
C31 C32 1.375 . S
C31 C35 1.532 . S
C32 H22 0.930 . S
C32 C31 1.375 . S
C32 C33 1.416 . S
C33 C32 1.416 . S
C33 C34 1.372 1_545 S
C34 H23 0.929 . S
C34 C30 1.389 1_565 S
C34 C33 1.372 1_565 S
C35 H24 0.970 . S
C35 H25 0.970 . S
C35 C31 1.532 . S
C35 C36 1.499 . S
C36 C35 1.499 . S
C36 C37 1.370 . S
C36 C41 1.415 . S
C37 H26 0.930 . S
C37 C36 1.370 . S
C37 C38 1.407 . S
C38 C37 1.407 . S
C38 C39 1.365 1_545 S
C39 H27 0.930 . S
C39 C38 1.365 1_565 S
C39 C40 1.393 1_565 S
C40 C39 1.393 1_545 S
C40 C41 1.387 . S
C41 H28 0.930 . S
C41 C36 1.415 . S
C41 C40 1.387 . S
H42 C50 0.930 . S
H43 C53 0.930 . S
H44 C55 0.937 . S
H45 C56 0.970 . S
H46 C56 0.970 . S
H47 C58 0.930 . S
H48 C60 0.930 . S
H49 C62 0.930 . S
C50 H42 0.930 . S
C50 C51 1.382 . S
C50 C52 1.426 . S
C51 C50 1.382 . S
C51 C55 1.385 1_554 S
C52 C50 1.426 . S
C52 C53 1.375 . S
C52 C56 1.532 . S
C53 H43 0.930 . S
C53 C52 1.375 . S
C53 C54 1.416 . S
C54 C53 1.416 . S
C54 C55 1.368 1_554 S
C55 H44 0.937 . S
C55 C51 1.385 1_556 S
C55 C54 1.368 1_556 S
C56 H45 0.970 . S
C56 H46 0.970 . S
C56 C52 1.532 . S
C56 C57 1.499 . S
C57 C56 1.499 . S
C57 C58 1.370 . S
C57 C62 1.415 . S
C58 H47 0.930 . S
C58 C57 1.370 . S
C58 C59 1.407 . S
C59 C58 1.407 . S
C59 C60 1.365 1_554 S
C60 H48 0.930 . S
C60 C59 1.365 1_556 S
C60 C61 1.393 1_556 S
C61 C60 1.393 1_554 S
C61 C62 1.387 . S
C62 H49 0.930 . S
C62 C57 1.415 . S
C62 C61 1.387 . S
C63 O89 1.283 . S
C63 O107 1.283 . S
C64 O90 1.283 . S
C64 O105 1.283 . S
C65 O91 1.283 . S
C65 O108 1.283 . S
C66 O92 1.283 . S
C66 O106 1.283 . S
C67 O93 1.283 . S
C67 O102 1.283 . S
C68 O94 1.283 . S
C68 O104 1.283 . S
C69 O95 1.283 . S
C69 O101 1.283 . S
C70 O96 1.283 . S
C70 O103 1.283 . S
C71 O97 1.283 . S
C71 O112 1.283 . S
C72 O98 1.283 . S
C72 O110 1.283 . S
C73 O99 1.283 . S
C73 O111 1.283 . S
C74 O100 1.283 . S
C74 O109 1.283 . S
Eu75 O76 2.375 . S
Eu75 O77 2.365 1_454 S
Eu75 O80 2.375 1_554 S
Eu75 O81 2.365 1_455 S
Eu75 O89 2.363 1_554 S
Eu75 O90 2.363 . S
Eu75 O103 2.354 1_455 S
Eu75 O104 2.372 . S
O76 Eu75 2.375 . S
O76 Eu78 2.370 . S
O76 Eu83 2.369 . S
O77 Eu75 2.365 1_656 S
O77 Eu79 2.370 1_556 S
O77 Eu82 2.365 1_655 S
Eu78 O76 2.370 . S
Eu78 O80 2.370 1_554 S
Eu78 O84 2.370 1_544 S
Eu78 O85 2.370 1_545 S
Eu78 O93 2.363 1_545 S
Eu78 O94 2.363 . S
Eu78 O109 2.363 1_554 S
Eu78 O110 2.363 . S
Eu79 O77 2.370 1_554 S
Eu79 O81 2.370 . S
Eu79 O86 2.370 1_545 S
Eu79 O87 2.370 1_544 S
Eu79 O95 2.363 1_545 S
Eu79 O96 2.363 . S
Eu79 O111 2.363 1_554 S
Eu79 O112 2.363 . S
O80 Eu75 2.375 1_556 S
O80 Eu78 2.370 1_556 S
O80 Eu82 2.376 . S
O81 Eu75 2.365 1_655 S
O81 Eu79 2.370 . S
O81 Eu83 2.371 1_655 S
Eu82 O77 2.365 1_455 S
Eu82 O80 2.376 . S
Eu82 O84 2.376 1_545 S
Eu82 O87 2.365 1_445 S
Eu82 O99 2.354 1_455 S
Eu82 O100 2.372 . S
Eu82 O107 2.363 . S
Eu82 O108 2.363 1_545 S
Eu83 O76 2.369 . S
Eu83 O81 2.371 1_455 S
Eu83 O85 2.369 1_545 S
Eu83 O86 2.371 1_445 S
Eu83 O97 2.365 1_455 S
Eu83 O98 2.361 . S
Eu83 O105 2.363 . S
Eu83 O106 2.363 1_445 S
O84 Eu78 2.370 1_566 S
O84 Eu82 2.376 1_565 S
O84 Eu88 2.369 1_556 S
O85 Eu78 2.370 1_565 S
O85 Eu83 2.369 1_565 S
O85 Eu88 2.369 . S
O86 Eu79 2.370 1_565 S
O86 Eu83 2.371 1_665 S
O86 Eu88 2.371 1_655 S
O87 Eu79 2.370 1_566 S
O87 Eu82 2.365 1_665 S
O87 Eu88 2.371 1_656 S
Eu88 O84 2.369 1_554 S
Eu88 O85 2.369 . S
Eu88 O86 2.371 1_455 S
Eu88 O87 2.371 1_454 S
Eu88 O91 2.363 1_554 S
Eu88 O92 2.363 1_455 S
Eu88 O101 2.365 1_455 S
Eu88 O102 2.361 . S
O89 C63 1.283 . S
O89 Eu75 2.363 1_556 S
O90 C64 1.283 . S
O90 Eu75 2.363 . S
O91 C65 1.283 . S
O91 Eu88 2.363 1_556 S
O92 C66 1.283 . S
O92 Eu88 2.363 1_655 S
O93 C67 1.283 . S
O93 Eu78 2.363 1_565 S
O94 C68 1.283 . S
O94 Eu78 2.363 . S
O95 C69 1.283 . S
O95 Eu79 2.363 1_565 S
O96 C70 1.283 . S
O96 Eu79 2.363 . S
O97 C71 1.283 . S
O97 Eu83 2.365 1_655 S
O98 C72 1.283 . S
O98 Eu83 2.361 . S
O99 C73 1.283 . S
O99 Eu82 2.354 1_655 S
O100 C74 1.283 . S
O100 Eu82 2.372 . S
O101 C69 1.283 . S
O101 Eu88 2.365 1_655 S
O102 C67 1.283 . S
O102 Eu88 2.361 . S
O103 C70 1.283 . S
O103 Eu75 2.354 1_655 S
O104 C68 1.283 . S
O104 Eu75 2.372 . S
O105 C64 1.283 . S
O105 Eu83 2.363 . S
O106 C66 1.283 . S
O106 Eu83 2.363 1_665 S
O107 C63 1.283 . S
O107 Eu82 2.363 . S
O108 C65 1.283 . S
O108 Eu82 2.363 1_565 S
O109 C74 1.283 . S
O109 Eu78 2.363 1_556 S
O110 C72 1.283 . S
O110 Eu78 2.363 . S
O111 C73 1.283 . S
O111 Eu79 2.363 1_556 S
O112 C71 1.283 . S
O112 Eu79 2.363 . S
H113 C121 0.929 . S
H114 C123 0.930 . S
H115 C125 0.930 . S
H116 C128 0.929 . S
H117 C131 0.930 . S
H118 C133 0.960 1_655 S
H119 C133 0.957 . S
H120 C133 0.963 1_655 S
C121 H113 0.929 . S
C121 C122 1.377 1_455 S
C121 C123 1.384 . S
C122 C121 1.377 1_655 S
C122 C128 1.390 . S
C123 H114 0.930 . S
C123 C121 1.384 . S
C123 C124 1.370 . S
C124 C123 1.370 . S
C124 C125 1.402 1_455 S
C124 C129 1.490 . S
C125 H115 0.930 . S
C125 C124 1.402 1_655 S
C125 C128 1.386 . S
H126 C142 0.930 . S
H127 C143 0.931 . S
C128 H116 0.929 . S
C128 C122 1.390 . S
C128 C125 1.386 . S
C129 C124 1.490 . S
C129 C131 1.395 . S
C129 C132 1.402 1_455 S
H130 C136 0.932 . S
C131 H117 0.930 . S
C131 C129 1.395 . S
C131 C134 1.403 . S
C132 C129 1.402 1_655 S
C132 C133 1.524 1_655 S
C132 C136 1.400 . S
C133 H118 0.960 1_455 S
C133 H119 0.957 . S
C133 H120 0.963 1_455 S
C133 C132 1.524 1_455 S
C134 C131 1.403 . S
C134 C135 1.393 . S
C134 C138 1.495 . S
C135 C134 1.393 . S
C135 C136 1.384 1_455 S
C135 C137 1.477 1_455 S
C136 H130 0.932 . S
C136 C132 1.400 . S
C136 C135 1.384 1_655 S
C137 C135 1.477 1_655 S
C137 C139 1.378 1_655 S
C137 C143 1.386 . S
C138 C134 1.495 . S
C138 H144 0.959 . S
C138 H145 0.961 1_455 S
C138 H146 0.960 . S
C139 C137 1.378 1_455 S
C139 C140 1.394 . S
C139 H147 0.930 . S
C140 C139 1.394 . S
C140 C141 1.384 1_455 S
C140 H148 0.929 . S
C141 C140 1.384 1_655 S
C141 C142 1.376 . S
C142 H126 0.930 . S
C142 C141 1.376 . S
C142 C143 1.379 . S
C143 H127 0.931 . S
C143 C137 1.386 . S
C143 C142 1.379 . S
H144 C138 0.959 . S
H145 C138 0.961 1_655 S
H146 C138 0.960 . S
H147 C139 0.930 . S
H148 C140 0.929 . S
H149 C157 0.929 . S
H150 C159 0.930 . S
H151 C161 0.930 . S
H152 C164 0.929 . S
H153 C167 0.930 . S
H154 C169 0.960 . S
H155 C169 0.960 . S
H156 C169 0.960 . S
C157 H149 0.929 . S
C157 C158 1.392 . S
C157 C159 1.384 . S
C158 C157 1.392 . S
C158 C164 1.375 1_545 S
C159 H150 0.930 . S
C159 C157 1.384 . S
C159 C160 1.372 . S
C160 C159 1.372 . S
C160 C161 1.400 1_545 S
C160 C165 1.490 . S
C161 H151 0.930 . S
C161 C160 1.400 1_565 S
C161 C164 1.386 . S
H162 C178 0.930 . S
H163 C179 0.931 . S
C164 H152 0.929 . S
C164 C158 1.375 1_565 S
C164 C161 1.386 . S
C165 C160 1.490 . S
C165 C167 1.395 . S
C165 C168 1.403 1_545 S
H166 C172 0.930 . S
C167 H153 0.930 . S
C167 C165 1.395 . S
C167 C170 1.403 . S
C168 C165 1.403 1_565 S
C168 C169 1.524 . S
C168 C172 1.400 . S
C169 H154 0.960 . S
C169 H155 0.960 . S
C169 H156 0.960 . S
C169 C168 1.524 . S
C170 C167 1.403 . S
C170 C171 1.392 . S
C170 C174 1.495 . S
C171 C170 1.392 . S
C171 C172 1.385 1_545 S
C171 C173 1.478 . S
C172 H166 0.930 . S
C172 C168 1.400 . S
C172 C171 1.385 1_565 S
C173 C171 1.478 . S
C173 C175 1.381 . S
C173 C179 1.383 1_545 S
C174 C170 1.495 . S
C174 H180 0.959 . S
C174 H181 0.961 . S
C174 H182 0.960 . S
C175 C173 1.381 . S
C175 C176 1.394 . S
C175 H183 0.930 . S
C176 C175 1.394 . S
C176 C177 1.383 . S
C176 H184 0.929 . S
C177 C176 1.383 . S
C177 C178 1.377 1_545 S
C178 H162 0.930 . S
C178 C177 1.377 1_565 S
C178 C179 1.379 . S
C179 H163 0.931 . S
C179 C173 1.383 1_565 S
C179 C178 1.379 . S
H180 C174 0.959 . S
H181 C174 0.961 . S
H182 C174 0.960 . S
H183 C175 0.930 . S
H184 C176 0.929 . S
H185 C193 0.929 . S
H186 C195 0.930 . S
H187 C197 0.930 . S
H188 C200 0.929 . S
H189 C203 0.930 . S
H190 C205 0.960 . S
H191 C205 0.960 . S
H192 C205 0.960 . S
C193 H185 0.929 . S
C193 C194 1.377 . S
C193 C195 1.384 . S
C194 C193 1.377 . S
C194 C200 1.390 1_455 S
C195 H186 0.930 . S
C195 C193 1.384 . S
C195 C196 1.372 . S
C196 C195 1.372 . S
C196 C197 1.400 1_455 S
C196 C201 1.490 . S
C197 H187 0.930 . S
C197 C196 1.400 1_655 S
C197 C200 1.386 . S
H198 C214 0.929 . S
H199 C215 0.931 . S
C200 H188 0.929 . S
C200 C194 1.390 1_655 S
C200 C197 1.386 . S
C201 C196 1.490 . S
C201 C203 1.395 . S
C201 C204 1.403 1_455 S
H202 C208 0.930 . S
C203 H189 0.930 . S
C203 C201 1.395 . S
C203 C206 1.403 . S
C204 C201 1.403 1_655 S
C204 C205 1.524 . S
C204 C208 1.400 . S
C205 H190 0.960 . S
C205 H191 0.960 . S
C205 H192 0.960 . S
C205 C204 1.524 . S
C206 C203 1.403 . S
C206 C207 1.392 . S
C206 C210 1.495 . S
C207 C206 1.392 . S
C207 C208 1.385 1_455 S
C207 C209 1.478 . S
C208 H202 0.930 . S
C208 C204 1.400 . S
C208 C207 1.385 1_655 S
C209 C207 1.478 . S
C209 C211 1.381 . S
C209 C215 1.383 . S
C210 C206 1.495 . S
C210 H216 0.959 . S
C210 H217 0.961 . S
C210 H218 0.960 . S
C211 C209 1.381 . S
C211 C212 1.394 . S
C211 H219 0.930 . S
C212 C211 1.394 . S
C212 C213 1.383 . S
C212 H220 0.929 . S
C213 C212 1.383 . S
C213 C214 1.377 . S
C214 H198 0.929 . S
C214 C213 1.377 . S
C214 C215 1.379 . S
C215 H199 0.931 . S
C215 C209 1.383 . S
C215 C214 1.379 . S
H216 C210 0.959 . S
H217 C210 0.961 . S
H218 C210 0.960 . S
H219 C211 0.930 . S
H220 C212 0.929 . S
H221 C229 0.929 . S
H222 C231 0.930 . S
H223 C233 0.930 . S
H224 C236 0.929 . S
H225 C239 0.930 . S
H226 C241 0.960 . S
H227 C241 0.960 . S
H228 C241 0.960 . S
C229 H221 0.929 . S
C229 C230 1.377 . S
C229 C231 1.384 . S
C230 C229 1.377 . S
C230 C236 1.390 1_545 S
C231 H222 0.930 . S
C231 C229 1.384 . S
C231 C232 1.372 . S
C232 C231 1.372 . S
C232 C233 1.400 1_545 S
C232 C237 1.490 . S
C233 H223 0.930 . S
C233 C232 1.400 1_565 S
C233 C236 1.386 . S
H234 C250 0.930 . S
H235 C251 0.931 . S
C236 H224 0.929 . S
C236 C230 1.390 1_565 S
C236 C233 1.386 . S
C237 C232 1.490 . S
C237 C239 1.395 1_545 S
C237 C240 1.403 . S
H238 C244 0.930 . S
C239 H225 0.930 . S
C239 C237 1.395 1_565 S
C239 C242 1.403 . S
C240 C237 1.403 . S
C240 C241 1.524 . S
C240 C244 1.400 . S
C241 H226 0.960 . S
C241 H227 0.960 . S
C241 H228 0.960 . S
C241 C240 1.524 . S
C242 C239 1.403 . S
C242 C243 1.392 1_565 S
C242 C246 1.495 . S
C243 C242 1.392 1_545 S
C243 C244 1.385 . S
C243 C245 1.478 . S
C244 H238 0.930 . S
C244 C240 1.400 . S
C244 C243 1.385 . S
C245 C243 1.478 . S
C245 C247 1.381 . S
C245 C251 1.383 1_545 S
C246 C242 1.495 . S
C246 H252 0.959 . S
C246 H253 0.961 . S
C246 H254 0.960 1_565 S
C247 C245 1.381 . S
C247 C248 1.394 . S
C247 H255 0.930 . S
C248 C247 1.394 . S
C248 C249 1.383 . S
C248 H256 0.929 . S
C249 C248 1.383 . S
C249 C250 1.377 1_545 S
C250 H234 0.930 . S
C250 C249 1.377 1_565 S
C250 C251 1.379 . S
C251 H235 0.931 . S
C251 C245 1.383 1_565 S
C251 C250 1.379 . S
H252 C246 0.959 . S
H253 C246 0.961 . S
H254 C246 0.960 1_545 S
H255 C247 0.930 . S
H256 C248 0.929 . S
H257 C265 0.929 . S
H258 C267 0.930 . S
H259 C269 0.930 . S
H260 C272 0.929 . S
H261 C275 0.930 . S
H262 C277 0.960 . S
H263 C277 0.960 1_655 S
H264 C277 0.960 . S
C265 H257 0.929 . S
C265 C266 1.377 . S
C265 C267 1.384 . S
C266 C265 1.377 . S
C266 C272 1.390 1_655 S
C267 H258 0.930 . S
C267 C265 1.384 . S
C267 C268 1.372 . S
C268 C267 1.372 . S
C268 C269 1.400 1_655 S
C268 C273 1.490 . S
C269 H259 0.930 . S
C269 C268 1.400 1_455 S
C269 C272 1.386 . S
H270 C286 0.930 . S
H271 C287 0.931 . S
C272 H260 0.929 . S
C272 C266 1.390 1_455 S
C272 C269 1.386 . S
C273 C268 1.490 . S
C273 C275 1.395 . S
C273 C276 1.403 1_655 S
H274 C280 0.930 . S
C275 H261 0.930 . S
C275 C273 1.395 . S
C275 C278 1.403 . S
C276 C273 1.403 1_455 S
C276 C277 1.524 . S
C276 C280 1.400 . S
C277 H262 0.960 . S
C277 H263 0.960 1_455 S
C277 H264 0.960 . S
C277 C276 1.524 . S
C278 C275 1.403 . S
C278 C279 1.392 . S
C278 C282 1.495 . S
C279 C278 1.392 . S
C279 C280 1.385 1_655 S
C279 C281 1.478 . S
C280 H274 0.930 . S
C280 C276 1.400 . S
C280 C279 1.385 1_455 S
C281 C279 1.478 . S
C281 C283 1.381 . S
C281 C287 1.383 1_655 S
C282 C278 1.495 . S
C282 H288 0.959 . S
C282 H289 0.961 . S
C282 H290 0.960 . S
C283 C281 1.381 . S
C283 C284 1.394 . S
C283 H291 0.930 . S
C284 C283 1.394 . S
C284 C285 1.397 . S
C284 H292 0.929 . S
C285 C284 1.397 . S
C285 C286 1.364 1_655 S
C286 H270 0.930 . S
C286 C285 1.364 1_455 S
C286 C287 1.379 . S
C287 H271 0.931 . S
C287 C281 1.383 1_455 S
C287 C286 1.379 . S
H288 C282 0.959 . S
H289 C282 0.961 . S
H290 C282 0.960 . S
H291 C283 0.930 . S
H292 C284 0.929 . S
H293 C301 0.929 . S
H294 C303 0.930 . S
H295 C305 0.930 . S
H296 C308 0.929 . S
H297 C311 0.930 . S
H298 C313 0.960 . S
H299 C313 0.960 . S
H300 C313 0.960 . S
C301 H293 0.929 . S
C301 C302 1.373 1_565 S
C301 C303 1.384 . S
C302 C301 1.373 1_545 S
C302 C308 1.395 . S
C303 H294 0.930 . S
C303 C301 1.384 . S
C303 C304 1.391 . S
C304 C303 1.391 . S
C304 C305 1.380 1_565 S
C304 C309 1.490 . S
C305 H295 0.930 . S
C305 C304 1.380 1_545 S
C305 C308 1.386 . S
H306 C322 0.930 . S
H307 C323 0.931 . S
C308 H296 0.929 . S
C308 C302 1.395 . S
C308 C305 1.386 . S
C309 C304 1.490 . S
C309 C311 1.395 . S
C309 C312 1.403 1_565 S
H310 C316 0.930 . S
C311 H297 0.930 . S
C311 C309 1.395 . S
C311 C314 1.403 . S
C312 C309 1.403 1_545 S
C312 C313 1.524 . S
C312 C316 1.400 . S
C313 H298 0.960 . S
C313 H299 0.960 . S
C313 H300 0.960 . S
C313 C312 1.524 . S
C314 C311 1.403 . S
C314 C315 1.392 . S
C314 C318 1.495 . S
C315 C314 1.392 . S
C315 C316 1.385 1_565 S
C315 C317 1.478 . S
C316 H310 0.930 . S
C316 C312 1.400 . S
C316 C315 1.385 1_545 S
C317 C315 1.478 . S
C317 C319 1.381 . S
C317 C323 1.383 1_565 S
C318 C314 1.495 . S
C318 H324 0.959 . S
C318 H325 0.961 . S
C318 H326 0.960 . S
C319 C317 1.381 . S
C319 C320 1.394 . S
C319 H327 0.930 . S
C320 C319 1.394 . S
C320 C321 1.383 1_565 S
C320 H328 0.929 . S
C321 C320 1.383 1_545 S
C321 C322 1.377 . S
C322 H306 0.930 . S
C322 C321 1.377 . S
C322 C323 1.379 . S
C323 H307 0.931 . S
C323 C317 1.383 1_545 S
C323 C322 1.379 . S
H324 C318 0.959 . S
H325 C318 0.961 . S
H326 C318 0.960 . S
H327 C319 0.930 . S
H328 C320 0.929 . S
H329 C337 0.929 . S
H330 C339 0.930 . S
H331 C341 0.930 . S
H332 C344 0.929 . S
H333 C347 0.930 . S
H334 C349 0.960 . S
H335 C349 0.960 1_655 S
H336 C349 0.960 . S
C337 H329 0.929 . S
C337 C338 1.377 1_655 S
C337 C339 1.384 . S
C338 C337 1.377 1_455 S
C338 C344 1.390 . S
C339 H330 0.930 . S
C339 C337 1.384 . S
C339 C340 1.362 1_655 S
C340 C339 1.362 1_455 S
C340 C341 1.410 . S
C340 C345 1.490 1_455 S
C341 H331 0.930 . S
C341 C340 1.410 . S
C341 C344 1.386 . S
H342 C358 0.930 . S
H343 C359 0.931 . S
C344 H332 0.929 . S
C344 C338 1.390 . S
C344 C341 1.386 . S
C345 C340 1.490 1_655 S
C345 C347 1.396 . S
C345 C348 1.402 1_655 S
H346 C352 0.930 . S
C347 H333 0.930 . S
C347 C345 1.396 . S
C347 C350 1.403 . S
C348 C345 1.402 1_455 S
C348 C349 1.524 . S
C348 C352 1.400 . S
C349 H334 0.960 . S
C349 H335 0.960 1_455 S
C349 H336 0.960 . S
C349 C348 1.524 . S
C350 C347 1.403 . S
C350 C351 1.392 . S
C350 C354 1.495 . S
C351 C350 1.392 . S
C351 C352 1.385 1_655 S
C351 C353 1.478 . S
C352 H346 0.930 . S
C352 C348 1.400 . S
C352 C351 1.385 1_455 S
C353 C351 1.478 . S
C353 C355 1.402 . S
C353 C359 1.361 1_655 S
C354 C350 1.495 . S
C354 H360 0.959 . S
C354 H361 0.961 1_655 S
C354 H362 0.960 . S
C355 C353 1.402 . S
C355 C356 1.394 . S
C355 H363 0.930 . S
C356 C355 1.394 . S
C356 C357 1.378 1_655 S
C356 H364 0.929 . S
C357 C356 1.378 1_455 S
C357 C358 1.382 . S
C358 H342 0.930 . S
C358 C357 1.382 . S
C358 C359 1.379 . S
C359 H343 0.931 . S
C359 C353 1.361 1_455 S
C359 C358 1.379 . S
H360 C354 0.959 . S
H361 C354 0.961 1_455 S
H362 C354 0.960 . S
H363 C355 0.930 . S
H364 C356 0.929 . S
H365 C373 0.929 . S
H366 C375 0.930 . S
H367 C377 0.930 . S
H368 C380 0.929 . S
H369 C383 0.930 . S
H370 C385 0.960 . S
H371 C385 0.960 . S
H372 C385 0.960 . S
C373 H365 0.929 . S
C373 C374 1.377 . S
C373 C375 1.384 . S
C374 C373 1.377 . S
C374 C380 1.390 1_545 S
C375 H366 0.930 . S
C375 C373 1.384 . S
C375 C376 1.372 . S
C376 C375 1.372 . S
C376 C377 1.400 1_545 S
C376 C381 1.490 . S
C377 H367 0.930 . S
C377 C376 1.400 1_565 S
C377 C380 1.386 . S
H378 C394 0.930 . S
H379 C395 0.931 . S
C380 H368 0.929 . S
C380 C374 1.390 1_565 S
C380 C377 1.386 . S
C381 C376 1.490 . S
C381 C383 1.395 . S
C381 C384 1.403 1_545 S
H382 C388 0.930 . S
C383 H369 0.930 . S
C383 C381 1.395 . S
C383 C386 1.403 . S
C384 C381 1.403 1_565 S
C384 C385 1.524 . S
C384 C388 1.400 . S
C385 H370 0.960 . S
C385 H371 0.960 . S
C385 H372 0.960 . S
C385 C384 1.524 . S
C386 C383 1.403 . S
C386 C387 1.392 . S
C386 C390 1.495 . S
C387 C386 1.392 . S
C387 C388 1.385 1_545 S
C387 C389 1.478 . S
C388 H382 0.930 . S
C388 C384 1.400 . S
C388 C387 1.385 1_565 S
C389 C387 1.478 . S
C389 C391 1.381 . S
C389 C395 1.383 1_545 S
C390 C386 1.495 . S
C390 H396 0.959 . S
C390 H397 0.961 . S
C390 H398 0.960 . S
C391 C389 1.381 . S
C391 C392 1.394 . S
C391 H399 0.930 . S
C392 C391 1.394 . S
C392 C393 1.383 . S
C392 H400 0.929 . S
C393 C392 1.383 . S
C393 C394 1.377 1_545 S
C394 H378 0.930 . S
C394 C393 1.377 1_565 S
C394 C395 1.379 . S
C395 H379 0.931 . S
C395 C389 1.383 1_565 S
C395 C394 1.379 . S
H396 C390 0.959 . S
H397 C390 0.961 . S
H398 C390 0.960 . S
H399 C391 0.930 . S
H400 C392 0.929 . S
H401 C409 0.929 . S
H402 C411 0.930 . S
H403 C413 0.930 . S
H404 C416 0.929 . S
H405 C419 0.930 . S
H406 C421 0.960 . S
H407 C421 0.960 . S
H408 C421 0.960 1_554 S
C409 H401 0.929 . S
C409 C410 1.384 . S
C409 C411 1.384 . S
C410 C409 1.384 . S
C410 C416 1.384 1_556 S
C411 H402 0.930 . S
C411 C409 1.384 . S
C411 C412 1.372 . S
C412 C411 1.372 . S
C412 C413 1.400 1_556 S
C412 C417 1.490 . S
C413 H403 0.930 . S
C413 C412 1.400 1_554 S
C413 C416 1.386 . S
H414 C430 0.930 . S
H415 C431 0.931 . S
C416 H404 0.929 . S
C416 C410 1.384 1_554 S
C416 C413 1.386 . S
C417 C412 1.490 . S
C417 C419 1.392 1_556 S
C417 C420 1.405 . S
H418 C424 0.930 . S
C419 H405 0.930 . S
C419 C417 1.392 1_554 S
C419 C422 1.403 . S
C420 C417 1.405 . S
C420 C421 1.524 . S
C420 C424 1.400 . S
C421 H406 0.960 . S
C421 H407 0.960 . S
C421 H408 0.960 1_556 S
C421 C420 1.524 . S
C422 C419 1.403 . S
C422 C423 1.392 . S
C422 C426 1.495 . S
C423 C422 1.392 . S
C423 C424 1.385 1_554 S
C423 C425 1.478 . S
C424 H418 0.930 . S
C424 C420 1.400 . S
C424 C423 1.385 1_556 S
C425 C423 1.478 . S
C425 C427 1.381 1_554 S
C425 C431 1.383 . S
C426 C422 1.495 . S
C426 H432 0.959 . S
C426 H433 0.961 . S
C426 H434 0.960 1_554 S
C427 C425 1.381 1_556 S
C427 C428 1.394 . S
C427 H435 0.930 . S
C428 C427 1.394 . S
C428 C429 1.383 1_556 S
C428 H436 0.929 . S
C429 C428 1.383 1_554 S
C429 C430 1.377 . S
C430 H414 0.930 . S
C430 C429 1.377 . S
C430 C431 1.379 . S
C431 H415 0.931 . S
C431 C425 1.383 . S
C431 C430 1.379 . S
H432 C426 0.959 . S
H433 C426 0.961 . S
H434 C426 0.960 1_556 S
H435 C427 0.930 . S
H436 C428 0.929 . S
H437 C445 0.929 . S
H438 C447 0.930 . S
H439 C449 0.930 . S
H440 C452 0.929 . S
H441 C455 0.930 1_556 S
H442 C457 0.960 . S
H443 C457 0.960 1_556 S
H444 C457 0.960 . S
C445 H437 0.929 . S
C445 C446 1.377 1_556 S
C445 C447 1.384 . S
C446 C445 1.377 1_554 S
C446 C452 1.390 . S
C447 H438 0.930 . S
C447 C445 1.384 . S
C447 C448 1.372 1_556 S
C448 C447 1.372 1_554 S
C448 C449 1.400 . S
C448 C453 1.490 . S
C449 H439 0.930 . S
C449 C448 1.400 . S
C449 C452 1.386 . S
H450 C466 0.930 . S
H451 C467 0.931 . S
C452 H440 0.929 . S
C452 C446 1.390 . S
C452 C449 1.386 . S
C453 C448 1.490 . S
C453 C455 1.395 . S
C453 C456 1.403 . S
H454 C460 0.930 . S
C455 H441 0.930 1_554 S
C455 C453 1.395 . S
C455 C458 1.403 . S
C456 C453 1.403 . S
C456 C457 1.524 . S
C456 C460 1.400 . S
C457 H442 0.960 . S
C457 H443 0.960 1_554 S
C457 H444 0.960 . S
C457 C456 1.524 . S
C458 C455 1.403 . S
C458 C459 1.393 . S
C458 C462 1.495 1_554 S
C459 C458 1.393 . S
C459 C460 1.385 . S
C459 C461 1.478 . S
C460 H454 0.930 . S
C460 C456 1.400 . S
C460 C459 1.385 . S
C461 C459 1.478 . S
C461 C463 1.381 1_554 S
C461 C467 1.383 . S
C462 C458 1.495 1_556 S
C462 H468 0.959 . S
C462 H469 0.961 1_556 S
C462 H470 0.960 . S
C463 C461 1.381 1_556 S
C463 C464 1.394 . S
C463 H471 0.930 . S
C464 C463 1.394 . S
C464 C465 1.383 1_556 S
C464 H472 0.929 . S
C465 C464 1.383 1_554 S
C465 C466 1.377 . S
C466 H450 0.930 . S
C466 C465 1.377 . S
C466 C467 1.379 . S
C467 H451 0.931 . S
C467 C461 1.383 . S
C467 C466 1.379 . S
H468 C462 0.959 . S
H469 C462 0.961 1_554 S
H470 C462 0.960 . S
H471 C463 0.930 . S
H472 C464 0.929 . S
H473 C481 0.929 . S
H474 C483 0.930 . S
H475 C485 0.930 . S
H476 C488 0.929 . S
H477 C491 0.930 . S
H478 C493 0.963 . S
H479 C493 0.941 1_554 S
H480 C493 0.978 . S
C481 H473 0.929 . S
C481 C482 1.377 . S
C481 C483 1.384 . S
C482 C481 1.377 . S
C482 C488 1.390 1_554 S
C483 H474 0.930 . S
C483 C481 1.384 . S
C483 C484 1.372 . S
C484 C483 1.372 . S
C484 C485 1.400 1_554 S
C484 C489 1.490 . S
C485 H475 0.930 . S
C485 C484 1.400 1_556 S
C485 C488 1.386 . S
H486 C502 0.930 . S
H487 C503 0.931 . S
C488 H476 0.929 . S
C488 C482 1.390 1_556 S
C488 C485 1.386 . S
C489 C484 1.490 . S
C489 C491 1.395 . S
C489 C492 1.403 . S
H490 C496 0.930 1_556 S
C491 H477 0.930 . S
C491 C489 1.395 . S
C491 C494 1.403 . S
C492 C489 1.403 . S
C492 C493 1.522 1_554 S
C492 C496 1.400 . S
C493 H478 0.963 . S
C493 H479 0.941 1_556 S
C493 H480 0.978 . S
C493 C492 1.522 1_556 S
C494 C491 1.403 . S
C494 C495 1.392 . S
C494 C498 1.495 . S
C495 C494 1.392 . S
C495 C496 1.385 . S
C495 C497 1.478 . S
C496 H490 0.930 1_554 S
C496 C492 1.400 . S
C496 C495 1.385 . S
C497 C495 1.478 . S
C497 C499 1.381 . S
C497 C503 1.383 1_554 S
C498 C494 1.495 . S
C498 H504 0.959 . S
C498 H505 0.961 1_554 S
C498 H506 0.960 . S
C499 C497 1.381 . S
C499 C500 1.394 . S
C499 H507 0.930 . S
C500 C499 1.394 . S
C500 C501 1.383 . S
C500 H508 0.929 . S
C501 C500 1.383 . S
C501 C502 1.377 1_554 S
C502 H486 0.930 . S
C502 C501 1.377 1_556 S
C502 C503 1.379 . S
C503 H487 0.931 . S
C503 C497 1.383 1_556 S
C503 C502 1.379 . S
H504 C498 0.959 . S
H505 C498 0.961 1_556 S
H506 C498 0.960 . S
H507 C499 0.930 . S
H508 C500 0.929 . S
H509 C517 0.929 . S
H510 C519 0.930 . S
H511 C521 0.930 . S
H512 C524 0.929 . S
H513 C527 0.930 . S
H514 C529 0.960 . S
H515 C529 0.960 . S
H516 C529 0.960 . S
C517 H509 0.929 . S
C517 C518 1.382 . S
C517 C519 1.384 . S
C518 C517 1.382 . S
C518 C524 1.385 1_556 S
C519 H510 0.930 . S
C519 C517 1.384 . S
C519 C520 1.387 . S
C520 C519 1.387 . S
C520 C521 1.385 1_556 S
C520 C525 1.490 . S
C521 H511 0.930 . S
C521 C520 1.385 1_554 S
C521 C524 1.386 . S
H522 C538 0.930 . S
H523 C539 0.931 . S
C524 H512 0.929 . S
C524 C518 1.385 1_554 S
C524 C521 1.386 . S
C525 C520 1.490 . S
C525 C527 1.395 1_556 S
C525 C528 1.402 . S
H526 C532 0.930 . S
C527 H513 0.930 . S
C527 C525 1.395 1_554 S
C527 C530 1.403 . S
C528 C525 1.402 . S
C528 C529 1.524 . S
C528 C532 1.400 . S
C529 H514 0.960 . S
C529 H515 0.960 . S
C529 H516 0.960 . S
C529 C528 1.524 . S
C530 C527 1.403 . S
C530 C531 1.392 . S
C530 C534 1.495 . S
C531 C530 1.392 . S
C531 C532 1.385 1_554 S
C531 C533 1.478 . S
C532 H526 0.930 . S
C532 C528 1.400 . S
C532 C531 1.385 1_556 S
C533 C531 1.478 . S
C533 C535 1.381 1_554 S
C533 C539 1.383 . S
C534 C530 1.495 . S
C534 H540 0.959 . S
C534 H541 0.961 . S
C534 H542 0.960 . S
C535 C533 1.381 1_556 S
C535 C536 1.394 . S
C535 H543 0.930 . S
C536 C535 1.394 . S
C536 C537 1.383 1_556 S
C536 H544 0.929 . S
C537 C536 1.383 1_554 S
C537 C538 1.377 . S
C538 H522 0.930 . S
C538 C537 1.377 . S
C538 C539 1.379 . S
C539 H523 0.931 . S
C539 C533 1.383 . S
C539 C538 1.379 . S
H540 C534 0.959 . S
H541 C534 0.961 . S
H542 C534 0.960 . S
H543 C535 0.930 . S
H544 C536 0.929 . S
C141 C64 1.100 1_655 S
C122 C9 1.085 . S
C177 C71 1.556 . S
C158 C38 1.506 . S
C213 C66 1.115 1_455 S
C194 C17 1.080 1_455 S
C249 C72 1.534 . S
C230 C30 1.490 . S
C266 C19 1.070 . S
C285 C65 1.091 1_655 S
C321 C74 1.547 . S
C302 C33 1.486 . S
C338 C12 1.076 1_455 S
C357 C63 1.112 . S
C374 C40 1.490 . S
C393 C73 1.525 . S
C410 C59 1.953 1_556 S
C429 C68 2.008 . S
C446 C61 1.951 . S
C465 C67 1.978 . S
C501 C70 1.989 . S
C482 C51 1.945 . S
C537 C69 2.004 . S
C518 C54 1.939 1_556 S
