# Generated by pormake.
# Topology ptr, (4,4)-cn, num edge types: 1
# Building blocks:
#     Node 0, Type 0, BuildingBlock: AZAVOO_clean_sbu_0, # of connection points: 4
#     Node 1, Type 0, BuildingBlock: AZAVOO_clean_sbu_0, # of connection points: 4
#     Node 2, Type 0, BuildingBlock: AZAVOO_clean_sbu_0, # of connection points: 4
#     Node 3, Type 0, BuildingBlock: AZAVOO_clean_sbu_0, # of connection points: 4
#     Node 4, Type 0, BuildingBlock: AZAVOO_clean_sbu_0, # of connection points: 4
#     Node 5, Type 0, BuildingBlock: AZAVOO_clean_sbu_0, # of connection points: 4
#     Node 6, Type 0, BuildingBlock: AZAVOO_clean_sbu_0, # of connection points: 4
#     Node 7, Type 0, BuildingBlock: AZAVOO_clean_sbu_0, # of connection points: 4
#     Node 8, Type 0, BuildingBlock: AZAVOO_clean_sbu_0, # of connection points: 4
#     Node 9, Type 0, BuildingBlock: AZAVOO_clean_sbu_0, # of connection points: 4
#     Node 10, Type 0, BuildingBlock: AZAVOO_clean_sbu_0, # of connection points: 4
#     Node 11, Type 0, BuildingBlock: AZAVOO_clean_sbu_0, # of connection points: 4
#     Node 12, Type 0, BuildingBlock: AZAVOO_clean_sbu_0, # of connection points: 4
#     Node 13, Type 0, BuildingBlock: AZAVOO_clean_sbu_0, # of connection points: 4
#     Node 14, Type 0, BuildingBlock: AZAVOO_clean_sbu_0, # of connection points: 4
#     Node 15, Type 0, BuildingBlock: AZAVOO_clean_sbu_0, # of connection points: 4
#     Node 16, Type 0, BuildingBlock: AZAVOO_clean_sbu_0, # of connection points: 4
#     Node 17, Type 0, BuildingBlock: AZAVOO_clean_sbu_0, # of connection points: 4
#     Node 18, Type 1, BuildingBlock: MUDLON_clean_linker_0, # of connection points: 4
#     Node 19, Type 1, BuildingBlock: MUDLON_clean_linker_0, # of connection points: 4
#     Node 20, Type 1, BuildingBlock: MUDLON_clean_linker_0, # of connection points: 4
#     Node 21, Type 1, BuildingBlock: MUDLON_clean_linker_0, # of connection points: 4
#     Node 22, Type 1, BuildingBlock: MUDLON_clean_linker_0, # of connection points: 4
#     Node 23, Type 1, BuildingBlock: MUDLON_clean_linker_0, # of connection points: 4
#     Node 24, Type 1, BuildingBlock: MUDLON_clean_linker_0, # of connection points: 4
#     Node 25, Type 1, BuildingBlock: MUDLON_clean_linker_0, # of connection points: 4
#     Node 26, Type 1, BuildingBlock: MUDLON_clean_linker_0, # of connection points: 4
#     Node 27, Type 1, BuildingBlock: MUDLON_clean_linker_0, # of connection points: 4
#     Node 28, Type 1, BuildingBlock: MUDLON_clean_linker_0, # of connection points: 4
#     Node 29, Type 1, BuildingBlock: MUDLON_clean_linker_0, # of connection points: 4
#     Node 30, Type 1, BuildingBlock: MUDLON_clean_linker_0, # of connection points: 4
#     Node 31, Type 1, BuildingBlock: MUDLON_clean_linker_0, # of connection points: 4
#     Node 32, Type 1, BuildingBlock: MUDLON_clean_linker_0, # of connection points: 4
#     Node 33, Type 1, BuildingBlock: MUDLON_clean_linker_0, # of connection points: 4
#     Node 34, Type 1, BuildingBlock: MUDLON_clean_linker_0, # of connection points: 4
#     Node 35, Type 1, BuildingBlock: MUDLON_clean_linker_0, # of connection points: 4
#     Edge 36, Type (0, 1), None
#     Edge 37, Type (0, 1), None
#     Edge 38, Type (0, 1), None
#     Edge 39, Type (0, 1), None
#     Edge 40, Type (0, 1), None
#     Edge 41, Type (0, 1), None
#     Edge 42, Type (0, 1), None
#     Edge 43, Type (0, 1), None
#     Edge 44, Type (0, 1), None
#     Edge 45, Type (0, 1), None
#     Edge 46, Type (0, 1), None
#     Edge 47, Type (0, 1), None
#     Edge 48, Type (0, 1), None
#     Edge 49, Type (0, 1), None
#     Edge 50, Type (0, 1), None
#     Edge 51, Type (0, 1), None
#     Edge 52, Type (0, 1), None
#     Edge 53, Type (0, 1), None
#     Edge 54, Type (0, 1), None
#     Edge 55, Type (0, 1), None
#     Edge 56, Type (0, 1), None
#     Edge 57, Type (0, 1), None
#     Edge 58, Type (0, 1), None
#     Edge 59, Type (0, 1), None
#     Edge 60, Type (0, 1), None
#     Edge 61, Type (0, 1), None
#     Edge 62, Type (0, 1), None
#     Edge 63, Type (0, 1), None
#     Edge 64, Type (0, 1), None
#     Edge 65, Type (0, 1), None
#     Edge 66, Type (0, 1), None
#     Edge 67, Type (0, 1), None
#     Edge 68, Type (0, 1), None
#     Edge 69, Type (0, 1), None
#     Edge 70, Type (0, 1), None
#     Edge 71, Type (0, 1), None
#     Edge 72, Type (0, 1), None
#     Edge 73, Type (0, 1), None
#     Edge 74, Type (0, 1), None
#     Edge 75, Type (0, 1), None
#     Edge 76, Type (0, 1), None
#     Edge 77, Type (0, 1), None
#     Edge 78, Type (0, 1), None
#     Edge 79, Type (0, 1), None
#     Edge 80, Type (0, 1), None
#     Edge 81, Type (0, 1), None
#     Edge 82, Type (0, 1), None
#     Edge 83, Type (0, 1), None
#     Edge 84, Type (0, 1), None
#     Edge 85, Type (0, 1), None
#     Edge 86, Type (0, 1), None
#     Edge 87, Type (0, 1), None
#     Edge 88, Type (0, 1), None
#     Edge 89, Type (0, 1), None
#     Edge 90, Type (0, 1), None
#     Edge 91, Type (0, 1), None
#     Edge 92, Type (0, 1), None
#     Edge 93, Type (0, 1), None
#     Edge 94, Type (0, 1), None
#     Edge 95, Type (0, 1), None
#     Edge 96, Type (0, 1), None
#     Edge 97, Type (0, 1), None
#     Edge 98, Type (0, 1), None
#     Edge 99, Type (0, 1), None
#     Edge 100, Type (0, 1), None
#     Edge 101, Type (0, 1), None
#     Edge 102, Type (0, 1), None
#     Edge 103, Type (0, 1), None
#     Edge 104, Type (0, 1), None
#     Edge 105, Type (0, 1), None
#     Edge 106, Type (0, 1), None
#     Edge 107, Type (0, 1), None
# Relax obj value: 0.068
# Max RMSD: 0.239
# Mean RMSD: 0.121
data_MOF--net-ptr--node1-AZAVOO_clean_sbu_0--node2-MUDLON_clean_linker_0--edge1-none
_symmetry_space_group_name_H-M    P1
_symmetry_Int_Tables_number       1
_symmetry_cell_setting            triclinic
loop_
_symmetry_equiv_pos_as_xyz
'x, y, z'
_cell_length_a     63.440496
_cell_length_b     62.357624
_cell_length_c     34.763844
_cell_angle_alpha  91.319883
_cell_angle_beta   91.408181
_cell_angle_gamma 119.98588
loop_
_atom_site_label
_atom_site_type_symbol
_atom_site_fract_x
_atom_site_fract_y
_atom_site_fract_z
_atom_type_partial_charge
Mg0 Mg 0.02144 0.34349 0.99456 0.0
O1 O 0.01094 0.35966 0.04556 0.0
O2 O 0.98016 0.36515 0.02653 0.0
Mg3 Mg 0.97348 0.35615 0.96147 0.0
C4 C 0.99526 0.36622 0.05251 0.0
C5 C 0.03626 0.3077 0.03421 0.0
O6 O 0.02192 0.29291 0.00589 0.0
O7 O 0.98606 0.30616 0.99445 0.0
O8 O 0.95877 0.31449 0.96755 0.0
O9 O 0.04922 0.38196 0.97753 0.0
O10 O 0.01083 0.36215 0.95658 0.0
C11 C 0.96476 0.29909 0.98007 0.0
C12 C 0.03188 0.38187 0.9569 0.0
O13 O 0.04048 0.32993 0.03673 0.0
Mg14 Mg 0.67466 0.65447 0.05096 0.0
O15 O 0.64474 0.64422 0.00482 0.0
O16 O 0.61223 0.64261 0.03079 0.0
Mg17 Mg 0.62035 0.6483 0.09609 0.0
C18 C 0.62328 0.64095 1.0017 0.0
C19 C 0.71891 0.68694 0.99781 0.0
O20 O 0.72416 0.70416 0.02479 0.0
O21 O 0.68178 0.69406 0.05916 0.0
O22 O 0.64971 0.68903 0.0915 0.0
O23 O 0.66072 0.61413 0.06161 0.0
O24 O 0.6486 0.63727 0.09204 0.0
C25 C 0.67045 0.70293 0.07746 0.0
C26 C 0.64682 0.61594 0.08662 0.0
O27 O 0.70117 0.66517 1.00189 0.0
Mg28 Mg 0.32895 0.96776 0.99137 0.0
O29 O 0.35586 0.98679 0.04239 0.0
O30 O 0.38948 0.01953 0.02283 0.0
Mg31 Mg 0.38552 0.01884 0.95685 0.0
C32 C 0.37686 0.00563 0.04944 0.0
C33 C 0.29592 0.96054 0.06106 0.0
O34 O 0.30819 0.98487 0.0615 0.0
O35 O 0.32099 -0.00057 0.98503 0.0
O36 O 0.35486 0.02817 0.95854 0.0
O37 O 0.34388 0.94247 0.9794 0.0
O38 O 0.35742 0.97908 0.95433 0.0
C39 C 0.33317 0.02026 0.96931 0.0
C40 C 0.35892 0.95938 0.95734 0.0
O41 O 0.2995 0.94833 0.03475 0.0
Mg42 Mg 0.97859 0.65313 0.03508 0.0
O43 O -0.00166 0.64223 0.99065 0.0
O44 O 0.02856 0.64019 0.02158 0.0
Mg45 Mg 0.02578 0.64589 0.08629 0.0
C46 C 0.01647 0.6386 0.99069 0.0
C47 C 0.96146 0.68526 0.99057 0.0
O48 O 0.96986 0.69853 0.02299 0.0
O49 O 0.01077 0.69267 0.04484 0.0
O50 O 0.03689 0.68682 0.08107 0.0
O51 O 0.9519 0.61298 0.04474 0.0
O52 O 0.98704 0.63508 0.07707 0.0
C53 C 0.03045 0.70112 0.06548 0.0
C54 C 0.96742 0.61411 0.07077 0.0
O55 O 0.96205 0.66522 0.98671 0.0
Mg56 Mg 0.3365 0.35383 0.97894 0.0
O57 O 0.36389 0.36303 0.02958 0.0
O58 O 0.39627 0.36222 0.00785 0.0
Mg59 Mg 0.39125 0.35656 0.94207 0.0
C60 C 0.38468 0.36488 0.0353 0.0
C61 C 0.30235 0.33033 0.04852 0.0
O62 O 0.31345 0.31734 0.04994 0.0
O63 O 0.327 0.31329 0.97323 0.0
O64 O 0.35979 0.3165 0.94537 0.0
O65 O 0.3525 0.39403 0.96696 0.0
O66 O 0.36453 0.36955 0.9408 0.0
C67 C 0.33824 0.30345 0.95726 0.0
C68 C 0.36685 0.39123 0.94414 0.0
O69 O 0.30735 0.34583 0.02225 0.0
Mg70 Mg 0.66074 0.01867 0.03657 0.0
O71 O 0.63337 -0.00102 0.98625 0.0
O72 O 0.60075 0.96578 0.00759 0.0
Mg73 Mg 0.60468 0.96868 0.07377 0.0
C74 C 0.61274 0.97946 0.98035 0.0
C75 C 0.68829 0.04352 0.96208 0.0
O76 O 0.6687 0.04516 0.95518 0.0
O77 O 0.66822 0.987 0.04468 0.0
O78 O 0.63556 0.95972 0.07537 0.0
O79 O 0.64649 0.04477 0.04737 0.0
O80 O 0.63262 0.00853 0.07363 0.0
C81 C 0.65697 0.96732 0.06353 0.0
C82 C 0.63155 0.02842 0.07028 0.0
O83 O 0.69078 0.03516 0.99379 0.0
Mg84 Mg 0.68919 0.6798 0.32781 0.0
O85 O 0.6702 0.69067 0.37349 0.0
O86 O 0.63954 0.69278 0.34428 0.0
Mg87 Mg 0.64112 0.68693 0.27937 0.0
C88 C 0.65209 0.69428 0.37454 0.0
C89 C 0.70722 0.64793 0.37151 0.0
O90 O 0.69784 0.63406 0.33982 0.0
O91 O 0.6568 0.64032 0.31944 0.0
O92 O 0.62986 0.64602 0.28519 0.0
O93 O 0.71557 0.71989 0.31762 0.0
O94 O 0.67998 0.69774 0.28655 0.0
C95 C 0.63657 0.63179 0.3003 0.0
C96 C 0.69967 0.71873 0.29231 0.0
O97 O 0.70678 0.66807 0.37515 0.0
Mg98 Mg 0.33194 0.97759 0.40258 0.0
O99 O 0.30535 0.96427 0.35108 0.0
O100 O 0.26948 0.95921 0.36749 0.0
Mg101 Mg 0.27275 0.96622 0.43347 0.0
C102 C 0.28354 0.95862 0.34235 0.0
C103 C 0.36364 0.97865 0.33345 0.0
O104 O 0.34881 0.95457 0.33275 0.0
O105 O 0.33501 0.01534 0.40556 0.0
O106 O 0.30028 0.00823 0.43115 0.0
O107 O 0.32111 0.93839 0.41539 0.0
O108 O 0.30324 0.95832 0.43859 0.0
C109 C 0.32166 0.02313 0.42001 0.0
C110 C 0.30418 0.93822 0.43573 0.0
O111 O 0.3623 0.99214 0.36012 0.0
Mg112 Mg 0.00013 0.30644 0.3181 0.0
O113 O 0.02714 0.31829 0.36931 0.0
O114 O 0.06447 0.34626 0.35294 0.0
Mg115 Mg 0.06201 0.34933 0.28756 0.0
C116 C 0.04957 0.33304 0.37796 0.0
C117 C 0.97112 0.30749 0.3882 0.0
O118 O 0.98883 0.33064 0.38841 0.0
O119 O 0.00179 0.34388 0.31474 0.0
O120 O 0.03878 0.36764 0.292 0.0
O121 O 0.00682 0.27511 0.30129 0.0
O122 O 0.02773 0.31305 0.28076 0.0
C123 C 0.01815 0.36435 0.30187 0.0
C124 C 0.0241 0.29089 0.28063 0.0
O125 O 0.96995 0.2923 0.36194 0.0
Mg126 Mg 0.64906 0.98912 0.36658 0.0
O127 O 0.66695 0.97779 0.31942 0.0
O128 O 0.69802 0.97572 0.34719 0.0
Mg129 Mg 0.69776 0.9817 0.41235 0.0
C130 C 0.68501 0.97414 0.31748 0.0
C131 C 0.63304 0.02221 0.31963 0.0
O132 O 0.64761 0.03914 0.34559 0.0
O133 O 0.68196 0.02848 0.37389 0.0
O134 O 0.70925 0.02268 0.4069 0.0
O135 O 0.62272 0.94916 0.37786 0.0
O136 O 0.65894 0.97121 0.40702 0.0
C137 C 0.70245 0.03696 0.39227 0.0
C138 C 0.63906 0.9503 0.40224 0.0
O139 O 0.62998 0.00044 0.32066 0.0
Mg140 Mg 0.99146 0.67754 0.31384 0.0
O141 O 0.02268 0.68838 0.35796 0.0
O142 O 0.05482 0.69089 0.32919 0.0
Mg143 Mg 0.04516 0.68564 0.26418 0.0
C144 C 0.04434 0.69208 0.35937 0.0
C145 C 0.94937 0.64415 0.36996 0.0
O146 O 0.94406 0.62666 0.34344 0.0
O147 O 0.98523 0.63842 0.30419 0.0
O148 O 0.01667 0.64456 0.26906 0.0
O149 O 0.00374 0.71757 0.30399 0.0
O150 O 0.01628 0.69543 0.27156 0.0
C151 C 0.99648 0.63016 0.28426 0.0
C152 C 0.01735 0.71635 0.27785 0.0
O153 O 0.96625 0.66616 0.36453 0.0
Mg154 Mg 0.34024 0.36514 0.38088 0.0
O155 O 0.31197 0.35025 0.33158 0.0
O156 O 0.27676 0.31911 0.34993 0.0
Mg157 Mg 0.28128 0.31766 0.41556 0.0
C158 C 0.29004 0.33333 0.32414 0.0
C159 C 0.38345 0.37321 0.32758 0.0
O160 O 0.38443 0.35723 0.35039 0.0
O161 O 0.34233 0.32977 0.38308 0.0
O162 O 0.30831 0.30369 0.41199 0.0
O163 O 0.33 0.39382 0.39806 0.0
O164 O 0.31292 0.35606 0.4198 0.0
C165 C 0.32918 0.30946 0.39954 0.0
C166 C 0.31406 0.37718 0.4195 0.0
O167 O 0.36901 0.38129 0.33474 0.0
Mg168 Mg 0.34315 0.00975 0.66931 0.0
O169 O 0.32635 0.02134 0.71796 0.0
O170 O 0.29529 0.02414 0.69187 0.0
Mg171 Mg 0.29457 0.01845 0.62648 0.0
C172 C 0.30855 0.02534 0.72098 0.0
C173 C 0.36258 0.97781 0.70915 0.0
O174 O 0.35103 0.96312 0.67894 0.0
O175 O 0.30999 0.97035 0.66302 0.0
O176 O 0.28349 0.9777 0.63094 0.0
O177 O 0.36975 0.04963 0.65732 0.0
O178 O 0.33296 0.02789 0.63004 0.0
C179 C 0.28965 0.96267 0.64451 0.0
C180 C 0.35307 0.04859 0.63383 0.0
O181 O 0.36259 0.99814 0.71341 0.0
Mg182 Mg -0.00237 0.31299 0.72371 0.0
O183 O 0.9706 0.3039 0.67261 0.0
O184 O 0.93853 0.30569 0.69335 0.0
Mg185 Mg 0.94342 0.31216 0.75905 0.0
C186 C 0.95003 0.30245 0.66632 0.0
C187 C 0.03223 0.33467 0.65393 0.0
O188 O 0.02198 0.34844 0.65165 0.0
O189 O 0.00812 0.35392 0.72785 0.0
O190 O 0.97557 0.35181 0.75494 0.0
O191 O 0.98058 0.27284 0.7373 0.0
O192 O 0.96956 0.29849 0.76199 0.0
C193 C -0.00279 0.36435 0.74315 0.0
C194 C 0.96665 0.27654 0.75984 0.0
O195 O 0.02661 0.31945 0.68077 0.0
Mg196 Mg 0.66856 0.64203 0.65784 0.0
O197 O 0.69789 0.6635 0.70511 0.0
O198 O 0.73051 0.69429 0.67903 0.0
Mg199 Mg 0.72414 0.68835 0.61334 0.0
C200 C 0.7191 0.68252 0.70815 0.0
C201 C 0.63943 0.64413 0.72666 0.0
O202 O 0.6545 0.66781 0.72226 0.0
O203 O 0.66208 0.67403 0.64515 0.0
O204 O 0.69487 0.69961 0.613 0.0
O205 O 0.6814 0.61448 0.64952 0.0
O206 O 0.69519 0.64938 0.619 0.0
C207 C 0.67388 0.69328 0.62557 0.0
C208 C 0.69598 0.62956 0.62491 0.0
O209 O 0.64035 0.62821 0.70424 0.0
Mg210 Mg 0.32011 0.32309 0.70472 0.0
O211 O 0.33617 0.31081 0.65592 0.0
O212 O 0.36704 0.3075 0.68148 0.0
Mg213 Mg 0.3682 0.31344 0.74699 0.0
C214 C 0.3537 0.30644 0.65257 0.0
C215 C 0.30409 0.35762 0.66369 0.0
O216 O 0.31707 0.3724 0.69301 0.0
O217 O 0.35397 0.36171 0.71088 0.0
O218 O 0.381 0.35488 0.74253 0.0
O219 O 0.29289 0.28346 0.71689 0.0
O220 O 0.32974 0.30442 0.74415 0.0
C221 C 0.37459 0.36963 0.72854 0.0
C222 C 0.30929 0.284 0.74047 0.0
O223 O 0.30161 0.33607 0.66051 0.0
Mg224 Mg 0.66384 0.01583 0.63855 0.0
O225 O 0.69332 0.02755 0.68582 0.0
O226 O 0.72634 0.02882 0.66221 0.0
Mg227 Mg 0.71913 0.02227 0.59671 0.0
C228 C 0.71474 0.0309 0.69012 0.0
C229 C 0.61859 0.98341 0.68965 0.0
O230 O 0.61366 0.96653 0.66224 0.0
O231 O 0.65759 0.97645 0.63282 0.0
O232 O 0.69004 0.98141 0.60174 0.0
O233 O 0.67717 0.05576 0.62628 0.0
O234 O 0.69048 0.03293 0.59816 0.0
C235 C 0.66922 0.96753 0.61556 0.0
C236 C 0.69175 0.0541 0.60249 0.0
O237 O 0.63658 0.00516 0.68655 0.0
Mg238 Mg 0.00542 0.69349 0.70671 0.0
O239 O 0.97506 0.67107 0.6612 0.0
O240 O 0.94254 0.64163 0.68955 0.0
Mg241 Mg 0.95035 0.64887 0.7548 0.0
C242 C 0.95358 0.65243 0.65958 0.0
C243 C 0.03274 0.68951 0.63632 0.0
O244 O 0.01752 0.66603 0.64204 0.0
O245 O 0.01175 0.66143 0.72094 0.0
O246 O 0.97905 0.63691 0.75421 0.0
O247 O 0.99281 0.7214 0.71392 0.0
O248 O 0.97951 0.68736 0.74654 0.0
C249 C -0.00023 0.64252 0.7412 0.0
C250 C 0.97855 0.70693 0.7394 0.0
O251 O 0.03269 0.70599 0.65859 0.0
H252 H 0.28755 0.36846 0.20931 0.0
N253 N 0.2474 0.33162 0.17582 0.0
H254 H 0.30629 0.3694 0.27193 0.0
H255 H 0.23156 0.29289 0.22441 0.0
H256 H 0.24971 0.2939 0.28811 0.0
H257 H 0.26071 0.29703 0.15977 0.0
H258 H 0.28438 0.29673 0.10533 0.0
H259 H 0.26069 0.36127 0.11686 0.0
H260 H 0.28389 0.36093 0.06192 0.0
H261 H 0.22142 0.35021 0.20489 0.0
H262 H 0.21438 0.28664 0.14109 0.0
H263 H 0.17702 0.33206 0.20077 0.0
H264 H 0.17006 0.269 0.13551 0.0
H265 H 0.08792 0.31183 0.20094 0.0
H266 H 0.06933 0.3205 0.25448 0.0
H267 H 0.00902 0.24538 0.24575 0.0
H268 H 0.02801 0.23663 0.19124 0.0
H269 H 0.03298 0.2432 0.10338 0.0
H270 H 0.01909 0.25935 0.05095 0.0
H271 H 0.07487 0.33388 0.08551 0.0
H272 H 0.08933 0.31754 0.13655 0.0
H273 H 0.09598 0.27215 0.22158 0.0
H274 H 0.13912 0.28587 0.22576 0.0
H275 H 0.14195 0.28895 0.10225 0.0
N276 N 0.06842 0.26881 0.15657 0.0
H277 H 0.09881 0.27623 0.09742 0.0
C278 C 0.25806 0.33087 0.21251 0.0
C279 C 0.27934 0.35208 0.22628 0.0
C280 C 0.29002 0.3525 0.26199 0.0
C281 C 0.27938 0.33173 0.28511 0.0
C282 C 0.2582 0.31023 0.27107 0.0
C283 C 0.24779 0.30966 0.23476 0.0
C284 C 0.25933 0.32948 0.14247 0.0
C285 C 0.26566 0.31094 0.1384 0.0
C286 C 0.27913 0.31078 0.10726 0.0
C287 C 0.28619 0.32894 0.07948 0.0
C288 C 0.27881 0.34672 0.08282 0.0
C289 C 0.26559 0.34699 0.11413 0.0
C290 C 0.22124 0.32004 0.17296 0.0
C291 C 0.21029 0.33242 0.18991 0.0
C292 C 0.18506 0.32207 0.18759 0.0
C293 C 0.17036 0.29928 0.16767 0.0
C294 C 0.18118 0.2867 0.15077 0.0
C295 C 0.20646 0.29681 0.1539 0.0
C296 C 0.0591 0.2736 0.19141 0.0
C297 C 0.07073 0.29713 0.21035 0.0
C298 C 0.06013 0.30203 0.24137 0.0
C299 C 0.03758 0.28372 0.25415 0.0
C300 C 0.02655 0.2598 0.23675 0.0
C301 C 0.03722 0.25485 0.20546 0.0
C302 C 0.06191 0.27901 0.1243 0.0
C303 C 0.04237 0.26297 0.0993 0.0
C304 C 0.03449 0.27226 0.0694 0.0
C305 C 0.04578 0.29794 0.06432 0.0
C306 C 0.06564 0.31404 0.08896 0.0
C307 C 0.07381 0.30469 0.11839 0.0
C308 C 0.09403 0.27544 0.15931 0.0
C309 C 0.10568 0.2765 0.19514 0.0
C310 C 0.1304 0.28397 0.1977 0.0
C311 C 0.1438 0.28906 0.16443 0.0
C312 C 0.13196 0.28557 0.12836 0.0
C313 C 0.1073 0.27862 0.12578 0.0
H314 H 0.75145 0.78629 0.22219 0.0
N315 N 0.71824 0.78771 0.17529 0.0
H316 H 0.74389 0.75692 0.27316 0.0
H317 H 0.67412 0.75731 0.20652 0.0
H318 H 0.66655 0.72792 0.2562 0.0
H319 H 0.67227 0.769 0.14274 0.0
H320 H 0.65161 0.73205 0.09989 0.0
H321 H 0.73983 0.76907 0.13226 0.0
H322 H 0.71959 0.73275 0.08818 0.0
H323 H 0.73417 0.82258 0.12351 0.0
H324 H 0.6957 0.80247 0.22952 0.0
H325 H 0.73012 0.85942 0.12221 0.0
H326 H 0.69253 0.83942 0.2289 0.0
H327 H 0.73705 0.96717 0.23247 0.0
H328 H 0.72876 0.98128 0.29375 0.0
H329 H 0.65306 0.94883 0.25717 0.0
H330 H 0.66109 0.93391 0.19728 0.0
H331 H 0.6607 0.91007 0.13987 0.0
H332 H 0.64005 0.921 0.0908 0.0
H333 H 0.70592 0.99128 0.07945 0.0
H334 H 0.72618 0.98051 0.1297 0.0
H335 H 0.74267 0.9362 0.15348 0.0
H336 H 0.74557 0.89858 0.15435 0.0
H337 H 0.67289 0.85854 0.19719 0.0
N338 N 0.70577 0.9418 0.17414 0.0
H339 H 0.67075 0.89658 0.1979 0.0
C340 C 0.71347 0.77386 0.21 0.0
C341 C 0.73293 0.77404 0.23032 0.0
C342 C 0.72857 0.75728 0.25941 0.0
C343 C 0.70459 0.73982 0.26818 0.0
C344 C 0.6852 0.74078 0.24964 0.0
C345 C 0.68955 0.75763 0.221 0.0
C346 C 0.7075 0.77128 0.14163 0.0
C347 C 0.68286 0.76159 0.13013 0.0
C348 C 0.67109 0.74056 0.10541 0.0
C349 C 0.68387 0.72923 0.09117 0.0
C350 C 0.70919 0.74098 0.09861 0.0
C351 C 0.72082 0.7617 0.12394 0.0
C352 C 0.71497 0.80915 0.17595 0.0
C353 C 0.7248 0.82598 0.14642 0.0
C354 C 0.72267 0.84719 0.14593 0.0
C355 C 0.71098 0.85242 0.17547 0.0
C356 C 0.70123 0.83573 0.20526 0.0
C357 C 0.70315 0.81437 0.20557 0.0
C358 C 0.69997 0.94979 0.20978 0.0
C359 C 0.71869 0.96312 0.23774 0.0
C360 C 0.71393 0.97118 0.27264 0.0
C361 C 0.69031 0.96644 0.28002 0.0
C362 C 0.67153 0.95316 0.25203 0.0
C363 C 0.67618 0.94457 0.21755 0.0
C364 C 0.69485 0.94495 0.13942 0.0
C365 C 0.67095 0.92757 0.12626 0.0
C366 C 0.65916 0.93373 0.09786 0.0
C367 C 0.67122 0.95711 0.08162 0.0
C368 C 0.69606 0.97309 0.09134 0.0
C369 C 0.70765 0.96711 0.12033 0.0
C370 C 0.70657 0.91917 0.17538 0.0
C371 C 0.72745 0.91927 0.16314 0.0
C372 C 0.72894 0.89769 0.16336 0.0
C373 C 0.70938 0.87542 0.17557 0.0
C374 C 0.6884 0.87539 0.188 0.0
C375 C 0.68704 0.89709 0.1881 0.0
H376 H 0.0822 0.75818 0.19976 0.0
N377 N 0.06644 0.78629 0.16271 0.0
H378 H 0.06121 0.72871 0.24905 0.0
H379 H 0.02784 0.78043 0.20079 0.0
H380 H 0.00688 0.751 0.25144 0.0
H381 H 0.02774 0.76898 0.11407 0.0
H382 H 0.01201 0.73238 0.07067 0.0
H383 H 0.09338 0.76596 0.13588 0.0
H384 H 0.07746 0.72897 0.09366 0.0
H385 H 0.09402 0.80589 0.23115 0.0
H386 H 0.09606 0.81517 0.10792 0.0
H387 H 0.13637 0.83748 0.23826 0.0
H388 H 0.13879 0.84771 0.11593 0.0
H389 H 0.28513 0.92044 0.22739 0.0
H390 H 0.30268 0.94072 0.29008 0.0
H391 H 0.24252 0.95386 0.30488 0.0
H392 H 0.22557 0.93428 0.24099 0.0
H393 H 0.25722 0.95906 0.17375 0.0
H394 H 0.27957 0.97972 0.11683 0.0
H395 H 0.27768 0.91222 0.07892 0.0
H396 H 0.2559 0.89206 0.13631 0.0
H397 H 0.21928 0.86666 0.21995 0.0
H398 H 0.17534 0.83757 0.21334 0.0
H399 H 0.16566 0.89187 0.15262 0.0
N400 N 0.24366 0.91191 0.19361 0.0
H401 H 0.20961 0.9212 0.16034 0.0
C402 C 0.05623 0.77119 0.19577 0.0
C403 C 0.06577 0.75679 0.21065 0.0
C404 C 0.05383 0.74002 0.23911 0.0
C405 C 0.03229 0.73738 0.25369 0.0
C406 C 0.02358 0.75283 0.2408 0.0
C407 C 0.0354 0.76949 0.21179 0.0
C408 C 0.06139 0.76994 0.12909 0.0
C409 C 0.03913 0.76099 0.10838 0.0
C410 C 0.0302 0.74005 0.08349 0.0
C411 C 0.04329 0.72745 0.07935 0.0
C412 C 0.06682 0.73809 0.09661 0.0
C413 C 0.07589 0.75922 0.121 0.0
C414 C 0.09176 0.80611 0.1682 0.0
C415 C 0.1034 0.81402 0.20523 0.0
C416 C 0.12776 0.83252 0.20964 0.0
C417 C 0.14092 0.8445 0.17757 0.0
C418 C 0.12904 0.83841 0.14107 0.0
C419 C 0.10468 0.81957 0.13649 0.0
C420 C 0.25394 0.92545 0.22979 0.0
C421 C 0.27592 0.92798 0.24397 0.0
C422 C 0.28591 0.93965 0.2798 0.0
C423 C 0.27387 0.94875 0.3027 0.0
C424 C 0.25211 0.94687 0.28806 0.0
C425 C 0.24237 0.93561 0.2516 0.0
C426 C 0.25537 0.92416 0.15938 0.0
C427 C 0.26164 0.94879 0.1531 0.0
C428 C 0.27431 0.9605 0.12053 0.0
C429 C 0.2805 0.94762 0.09349 0.0
C430 C 0.2732 0.92266 0.09915 0.0
C431 C 0.26086 0.91112 0.13191 0.0
C432 C 0.21766 0.89585 0.19035 0.0
C433 C 0.20761 0.8723 0.2055 0.0
C434 C 0.18262 0.8558 0.20174 0.0
C435 C 0.16725 0.86252 0.18229 0.0
C436 C 0.17724 0.88624 0.16738 0.0
C437 C 0.20227 0.90296 0.17181 0.0
H438 H 0.33391 0.24679 0.8305 0.0
N439 N 0.2895 0.21735 0.86162 0.0
H440 H 0.342 0.2752 0.77908 0.0
H441 H 0.25673 0.21782 0.81248 0.0
H442 H 0.26479 0.24616 0.7598 0.0
H443 H 0.26845 0.23781 0.90182 0.0
H444 H 0.28902 0.2747 0.94479 0.0
H445 H 0.33505 0.23558 0.89539 0.0
H446 H 0.35605 0.27298 0.93726 0.0
H447 H 0.31399 0.20166 0.81315 0.0
H448 H 0.26938 0.18229 0.91257 0.0
H449 H 0.31456 0.16332 0.81602 0.0
H450 H 0.27097 0.14414 0.91667 0.0
H451 H 0.33351 0.06248 0.84334 0.0
H452 H 0.34075 0.04809 0.78215 0.0
H453 H 0.26568 0.02022 0.74547 0.0
H454 H 0.25822 0.03386 0.80783 0.0
H455 H 0.26653 0.01523 0.9052 0.0
H456 H 0.28456 -0.00056 0.95146 0.0
H457 H 0.35267 0.06863 0.95043 0.0
H458 H 0.33441 0.08442 0.90518 0.0
H459 H 0.32833 0.10131 0.84829 0.0
H460 H 0.32967 0.1411 0.84938 0.0
H461 H 0.25529 0.10511 0.88554 0.0
N462 N 0.28975 0.05661 0.86701 0.0
H463 H 0.25475 0.06569 0.88638 0.0
C464 C 0.29459 0.23028 0.82591 0.0
C465 C 0.31862 0.24616 0.81502 0.0
C466 C 0.32327 0.26245 0.78535 0.0
C467 C 0.30407 0.2632 0.76564 0.0
C468 C 0.27998 0.246 0.77439 0.0
C469 C 0.27533 0.22979 0.80445 0.0
C470 C 0.3003 0.23436 0.89463 0.0
C471 C 0.28731 0.24483 0.91079 0.0
C472 C 0.29913 0.26588 0.93546 0.0
C473 C 0.32432 0.27708 0.9438 0.0
C474 C 0.33669 0.26495 0.93102 0.0
C475 C 0.32473 0.24362 0.90689 0.0
C476 C 0.29157 0.19524 0.86291 0.0
C477 C 0.30457 0.18954 0.83609 0.0
C478 C 0.30505 0.1674 0.83785 0.0
C479 C 0.29282 0.15048 0.86656 0.0
C480 C 0.28025 0.15642 0.89369 0.0
C481 C 0.2795 0.17837 0.89162 0.0
C482 C 0.29504 0.04891 0.83065 0.0
C483 C 0.31841 0.05296 0.82264 0.0
C484 C 0.32259 0.04468 0.78746 0.0
C485 C 0.30375 0.03282 0.75908 0.0
C486 C 0.28056 0.02922 0.76681 0.0
C487 C 0.27626 0.03702 0.80233 0.0
C488 C 0.29916 0.05067 0.90087 0.0
C489 C 0.28506 0.02729 0.91614 0.0
C490 C 0.29538 0.01839 0.94281 0.0
C491 C 0.3202 0.03266 0.95408 0.0
C492 C 0.33356 0.05713 0.94204 0.0
C493 C 0.32309 0.06615 0.91586 0.0
C494 C 0.29144 0.08054 0.86775 0.0
C495 C 0.31246 0.10207 0.85702 0.0
C496 C 0.31308 0.12481 0.85722 0.0
C497 C 0.29259 0.12646 0.86757 0.0
C498 C 0.27161 0.10478 0.87817 0.0
C499 C 0.27115 0.08216 0.87842 0.0
H500 H 0.74625 0.08788 0.79265 0.0
N501 N 0.75579 0.06053 0.84347 0.0
H502 H 0.72817 0.07448 0.72739 0.0
H503 H 0.74518 0.01869 0.80511 0.0
H504 H 0.72816 0.00575 0.73863 0.0
H505 H 0.75374 0.0405 0.91065 0.0
H506 H 0.72585 0.03388 0.96228 0.0
H507 H 0.71846 0.07132 0.84217 0.0
H508 H 0.69046 0.06441 0.89299 0.0
H509 H 0.76272 0.10697 0.85961 0.0
H510 H 0.79992 0.06605 0.8397 0.0
H511 H 0.80155 0.14467 0.87297 0.0
H512 H 0.83913 0.10406 0.85079 0.0
H513 H 0.91069 0.25104 0.85479 0.0
H514 H 0.93109 0.27678 0.80177 0.0
H515 H 0.96616 0.23391 0.77899 0.0
H516 H 0.94553 0.20792 0.83319 0.0
H517 H 0.9575 0.22741 0.92788 0.0
H518 H 0.97788 0.26371 0.97162 0.0
H519 H 0.91602 0.2747 0.95913 0.0
H520 H 0.89533 0.23758 0.91676 0.0
H521 H 0.87608 0.2121 0.85459 0.0
H522 H 0.83662 0.17496 0.8446 0.0
H523 H 0.86464 0.13236 0.90002 0.0
N524 N 0.91803 0.21444 0.88363 0.0
H525 H 0.90472 0.16966 0.90774 0.0
C526 C 0.74658 0.05398 0.80408 0.0
C527 C 0.74225 0.06987 0.78137 0.0
C528 C 0.73207 0.0623 0.74405 0.0
C529 C 0.7269 0.03918 0.72837 0.0
C530 C 0.73214 0.02371 0.75029 0.0
C531 C 0.74172 0.03102 0.78808 0.0
C532 C 0.73809 0.05592 0.87218 0.0
C533 C 0.73987 0.04563 0.90662 0.0
C534 C 0.72405 0.04207 0.93615 0.0
C535 C 0.70595 0.04867 0.93172 0.0
C536 C 0.70418 0.0591 0.89727 0.0
C537 C 0.72016 0.06285 0.86788 0.0
C538 C 0.77845 0.08355 0.84915 0.0
C539 C 0.77927 0.10611 0.85784 0.0
C540 C 0.80159 0.12777 0.86519 0.0
C541 C 0.82357 0.12746 0.8633 0.0
C542 C 0.82261 0.10495 0.85351 0.0
C543 C 0.80027 0.08325 0.84672 0.0
C544 C 0.92684 0.22759 0.84858 0.0
C545 C 0.92235 0.2467 0.83828 0.0
C546 C 0.93406 0.26151 0.80759 0.0
C547 C 0.95042 0.25756 0.78631 0.0
C548 C 0.95358 0.23738 0.79478 0.0
C549 C 0.94192 0.22259 0.82579 0.0
C550 C 0.92536 0.23029 0.91802 0.0
C551 C 0.9479 0.23699 0.93606 0.0
C552 C 0.9595 0.2578 0.96117 0.0
C553 C 0.94891 0.27262 0.96796 0.0
C554 C 0.92487 0.26393 0.95397 0.0
C555 C 0.91304 0.24274 0.92949 0.0
C556 C 0.89361 0.19358 0.88138 0.0
C557 C 0.87389 0.19488 0.86461 0.0
C558 C 0.8511 0.17351 0.85919 0.0
C559 C 0.84742 0.15049 0.87104 0.0
C560 C 0.86692 0.14958 0.88955 0.0
C561 C 0.88977 0.1709 0.89443 0.0
H562 H 0.75819 0.73997 0.80974 0.0
N563 N 0.76912 0.71319 0.85588 0.0
H564 H 0.73752 0.72754 0.74549 0.0
H565 H 0.75083 0.66774 0.81898 0.0
H566 H 0.72861 0.65474 0.75641 0.0
H567 H 0.7333 0.66667 0.87587 0.0
H568 H 0.71276 0.65594 0.93624 0.0
H569 H 0.77509 0.74326 0.91555 0.0
H570 H 0.75461 0.73255 0.97675 0.0
H571 H 0.81028 0.74744 0.82716 0.0
H572 H 0.77907 0.67852 0.88536 0.0
H573 H 0.84943 0.74895 0.82714 0.0
H574 H 0.81843 0.68083 0.88857 0.0
H575 H 0.97253 0.75662 0.83307 0.0
H576 H 0.99274 0.75073 0.7777 0.0
H577 H 0.9315 0.67706 0.75676 0.0
H578 H 0.91115 0.68316 0.81069 0.0
H579 H 0.92266 0.67493 0.87089 0.0
H580 H 0.93583 0.65955 0.9247 0.0
H581 H 0.96693 0.73132 0.98365 0.0
H582 H 0.95413 0.74681 0.92897 0.0
H583 H 0.92236 0.75956 0.86623 0.0
H584 H 0.88272 0.75703 0.86554 0.0
H585 H 0.84751 0.67699 0.85613 0.0
N586 N 0.93163 0.72268 0.86336 0.0
H587 H 0.88714 0.6799 0.86047 0.0
C588 C 0.75538 0.70461 0.81967 0.0
C589 C 0.75162 0.7213 0.7983 0.0
C590 C 0.73998 0.71427 0.76173 0.0
C591 C 0.73136 0.69017 0.74652 0.0
C592 C 0.73485 0.67333 0.76798 0.0
C593 C 0.74726 0.68064 0.80389 0.0
C594 C 0.75561 0.70604 0.89067 0.0
C595 C 0.738 0.68132 0.89725 0.0
C596 C 0.72632 0.6751 0.9322 0.0
C597 C 0.73207 0.69335 0.96144 0.0
C598 C 0.74978 0.71799 0.95492 0.0
C599 C 0.76138 0.7242 0.9199 0.0
C600 C 0.79187 0.71322 0.85677 0.0
C601 C 0.81203 0.73282 0.84042 0.0
C602 C 0.83446 0.73373 0.84084 0.0
C603 C 0.8374 0.71521 0.8584 0.0
C604 C 0.81698 0.69533 0.87439 0.0
C605 C 0.79437 0.69414 0.87307 0.0
C606 C 0.94064 0.72023 0.82677 0.0
C607 C 0.96317 0.73952 0.81571 0.0
C608 C 0.97454 0.73625 0.78395 0.0
C609 C 0.96363 0.7134 0.76329 0.0
C610 C 0.94026 0.6948 0.77244 0.0
C611 C 0.9287 0.69827 0.80362 0.0
C612 C 0.93772 0.7123 0.89559 0.0
C613 C 0.93233 0.68747 0.89516 0.0
C614 C 0.93987 0.67862 0.92612 0.0
C615 C 0.95256 0.69423 0.95838 0.0
C616 C 0.95721 0.71878 0.95924 0.0
C617 C 0.94994 0.7277 0.92807 0.0
C618 C 0.90778 0.72007 0.86267 0.0
C619 C 0.906 0.74153 0.86416 0.0
C620 C 0.88326 0.73997 0.86334 0.0
C621 C 0.86167 0.71678 0.8602 0.0
C622 C 0.86358 0.6952 0.85895 0.0
C623 C 0.88637 0.69682 0.86073 0.0
H624 H 0.70045 0.57905 0.5309 0.0
N625 N 0.74024 0.61281 0.49783 0.0
H626 H 0.68156 0.58538 0.58766 0.0
H627 H 0.76124 0.65337 0.54846 0.0
H628 H 0.74217 0.65989 0.60377 0.0
H629 H 0.7498 0.6606 0.48828 0.0
H630 H 0.73516 0.67498 0.43498 0.0
H631 H 0.71595 0.58746 0.43397 0.0
H632 H 0.70169 0.60194 0.37974 0.0
H633 H 0.74899 0.57556 0.49624 0.0
H634 H 0.78495 0.65526 0.49903 0.0
H635 H 0.7884 0.57761 0.49917 0.0
H636 H 0.82432 0.65775 0.50575 0.0
H637 H 0.91263 0.5934 0.56061 0.0
H638 H 0.93438 0.60681 0.624 0.0
H639 H 0.94314 0.67942 0.61106 0.0
H640 H 0.91995 0.6655 0.54934 0.0
H641 H 0.93809 0.66547 0.49312 0.0
H642 H 0.95754 0.67549 0.43191 0.0
H643 H 0.91387 0.59882 0.39248 0.0
H644 H 0.89436 0.58882 0.45455 0.0
H645 H 0.8596 0.58648 0.54246 0.0
H646 H 0.82079 0.58572 0.53976 0.0
H647 H 0.85386 0.65319 0.47664 0.0
N648 N 0.90136 0.6196 0.51375 0.0
H649 H 0.8928 0.65485 0.48266 0.0
C650 C 0.73187 0.61584 0.53465 0.0
C651 C 0.70995 0.59647 0.54742 0.0
C652 C 0.69935 0.6 0.57999 0.0
C653 C 0.71044 0.62316 0.59977 0.0
C654 C 0.73326 0.64191 0.5888 0.0
C655 C 0.74407 0.63821 0.55679 0.0
C656 C 0.73368 0.62269 0.46545 0.0
C657 C 0.73933 0.64758 0.46491 0.0
C658 C 0.73092 0.65586 0.43425 0.0
C659 C 0.7171 0.63958 0.40322 0.0
C660 C 0.71226 0.61497 0.4032 0.0
C661 C 0.72039 0.60664 0.4341 0.0
C662 C 0.76397 0.61513 0.4981 0.0
C663 C 0.76547 0.59351 0.49795 0.0
C664 C 0.78806 0.5948 0.50016 0.0
C665 C 0.80977 0.61787 0.50345 0.0
C666 C 0.80816 0.63961 0.50296 0.0
C667 C 0.78551 0.63825 0.49973 0.0
C668 C 0.91527 0.62858 0.54977 0.0
C669 C 0.91934 0.61221 0.57147 0.0
C670 C 0.93162 0.61981 0.60753 0.0
C671 C 0.94055 0.64415 0.62187 0.0
C672 C 0.93666 0.66064 0.60015 0.0
C673 C 0.92364 0.65278 0.56476 0.0
C674 C 0.91483 0.62612 0.4789 0.0
C675 C 0.93279 0.65063 0.47184 0.0
C676 C 0.94383 0.65646 0.43639 0.0
C677 C 0.93717 0.638 0.40714 0.0
C678 C 0.91936 0.61352 0.4143 0.0
C679 C 0.90833 0.60771 0.44981 0.0
C680 C 0.879 0.62034 0.51223 0.0
C681 C 0.8584 0.60116 0.52835 0.0
C682 C 0.83615 0.60066 0.52632 0.0
C683 C 0.83386 0.61915 0.50732 0.0
C684 C 0.85477 0.6387 0.49183 0.0
C685 C 0.87716 0.63952 0.4948 0.0
H686 H 0.40232 0.11147 0.55439 0.0
N687 N 0.36743 0.11185 0.51044 0.0
H688 H 0.39665 0.08459 0.60839 0.0
H689 H 0.3252 0.08516 0.54856 0.0
H690 H 0.31948 0.05851 0.60163 0.0
H691 H 0.31977 0.08828 0.48334 0.0
H692 H 0.29988 0.04941 0.44451 0.0
H693 H 0.38964 0.09463 0.46632 0.0
H694 H 0.37031 0.0568 0.42569 0.0
H695 H 0.38126 0.14324 0.45349 0.0
H696 H 0.34787 0.13047 0.56393 0.0
H697 H 0.37994 0.18158 0.44976 0.0
H698 H 0.34718 0.16864 0.5605 0.0
H699 H 0.40226 0.29525 0.56523 0.0
H700 H 0.3957 0.30945 0.6278 0.0
H701 H 0.32135 0.2853 0.59114 0.0
H702 H 0.32766 0.27043 0.52977 0.0
H703 H 0.32485 0.24648 0.47071 0.0
H704 H 0.30748 0.26173 0.42277 0.0
H705 H 0.37767 0.32793 0.41496 0.0
H706 H 0.3947 0.31282 0.46389 0.0
H707 H 0.4032 0.26243 0.48219 0.0
H708 H 0.40077 0.22203 0.48143 0.0
H709 H 0.32904 0.18959 0.52774 0.0
N710 N 0.37041 0.27356 0.50614 0.0
H711 H 0.33203 0.23021 0.52944 0.0
C712 C 0.36425 0.10013 0.54695 0.0
C713 C 0.38432 0.10045 0.56541 0.0
C714 C 0.38105 0.08516 0.59627 0.0
C715 C 0.35753 0.06911 0.60875 0.0
C716 C 0.33773 0.07023 0.59218 0.0
C717 C 0.34101 0.08551 0.56162 0.0
C718 C 0.35615 0.09376 0.47888 0.0
C719 C 0.3309 0.08167 0.47033 0.0
C720 C 0.31957 0.05956 0.44782 0.0
C721 C 0.33341 0.04964 0.4327 0.0
C722 C 0.35898 0.06369 0.4371 0.0
C723 C 0.37016 0.08537 0.46036 0.0
C724 C 0.36434 0.13332 0.50841 0.0
C725 C 0.37335 0.14841 0.47665 0.0
C726 C 0.37281 0.17045 0.47473 0.0
C727 C 0.36349 0.17818 0.50489 0.0
C728 C 0.35409 0.163 0.53646 0.0
C729 C 0.35454 0.14089 0.53833 0.0
C730 C 0.36574 0.28205 0.54235 0.0
C731 C 0.38458 0.29308 0.57074 0.0
C732 C 0.38078 0.30118 0.60642 0.0
C733 C 0.35805 0.29871 0.61429 0.0
C734 C 0.33918 0.2878 0.58579 0.0
C735 C 0.34284 0.27925 0.55043 0.0
C736 C 0.36097 0.27906 0.47193 0.0
C737 C 0.3367 0.26397 0.45804 0.0
C738 C 0.32679 0.27259 0.43023 0.0
C739 C 0.34106 0.29619 0.41545 0.0
C740 C 0.36611 0.30966 0.42567 0.0
C741 C 0.37586 0.30123 0.454 0.0
C742 C 0.36794 0.24934 0.5059 0.0
C743 C 0.387 0.24654 0.49212 0.0
C744 C 0.38545 0.22342 0.49142 0.0
C745 C 0.36465 0.20255 0.50438 0.0
C746 C 0.34541 0.20535 0.51793 0.0
C747 C 0.34704 0.22854 0.51875 0.0
H748 H 0.75502 0.09058 0.51981 0.0
N749 N 0.74294 0.12288 0.48726 0.0
H750 H 0.73294 0.06139 0.56855 0.0
H751 H 0.70911 0.12287 0.53164 0.0
H752 H 0.68694 0.09359 0.58173 0.0
H753 H 0.70281 0.10599 0.44237 0.0
H754 H 0.68501 0.06889 0.39992 0.0
H755 H 0.76861 0.1024 0.45651 0.0
H756 H 0.75063 0.0647 0.41519 0.0
H757 H 0.77974 0.13499 0.54371 0.0
H758 H 0.76263 0.15894 0.43755 0.0
H759 H 0.81919 0.17186 0.54805 0.0
H760 H 0.80302 0.19588 0.44133 0.0
H761 H 0.94258 0.27088 0.54077 0.0
H762 H 0.96155 0.28181 0.60572 0.0
H763 H 0.91321 0.30885 0.63708 0.0
H764 H 0.89483 0.29846 0.57166 0.0
H765 H 0.93112 0.32311 0.48541 0.0
H766 H 0.95891 0.33597 0.43213 0.0
H767 H 0.94443 0.2609 0.41534 0.0
H768 H 0.9175 0.24836 0.46938 0.0
H769 H 0.89711 0.23209 0.53105 0.0
H770 H 0.85837 0.19331 0.52211 0.0
H771 H 0.82473 0.23382 0.47785 0.0
N772 N 0.90591 0.27828 0.51315 0.0
H773 H 0.86388 0.27231 0.4855 0.0
C774 C 0.73349 0.10882 0.52147 0.0
C775 C 0.74037 0.09165 0.53325 0.0
C776 C 0.72771 0.0749 0.56139 0.0
C777 C 0.70795 0.07491 0.57864 0.0
C778 C 0.70216 0.09319 0.569 0.0
C779 C 0.71476 0.1099 0.54042 0.0
C780 C 0.73669 0.10658 0.45343 0.0
C781 C 0.71377 0.09773 0.43504 0.0
C782 C 0.70364 0.07649 0.41071 0.0
C783 C 0.7162 0.0635 0.40489 0.0
C784 C 0.74037 0.07412 0.41952 0.0
C785 C 0.75066 0.09566 0.44328 0.0
C786 C 0.76773 0.14365 0.48975 0.0
C787 C 0.78435 0.14769 0.52066 0.0
C788 C 0.8073 0.16905 0.52323 0.0
C789 C 0.8144 0.18695 0.49511 0.0
C790 C 0.79808 0.1827 0.46388 0.0
C791 C 0.77503 0.16144 0.46145 0.0
C792 C 0.91743 0.28417 0.55126 0.0
C793 C 0.93622 0.27937 0.56149 0.0
C794 C 0.94706 0.28564 0.59869 0.0
C795 C 0.93896 0.29631 0.62661 0.0
C796 C 0.9199 0.30068 0.61636 0.0
C797 C 0.90938 0.29479 0.57903 0.0
C798 C 0.92196 0.28483 0.48131 0.0
C799 C 0.93396 0.30946 0.47021 0.0
C800 C 0.94977 0.31673 0.43978 0.0
C801 C 0.95361 0.29935 0.41935 0.0
C802 C 0.94151 0.2746 0.43022 0.0
C803 C 0.92609 0.26744 0.46127 0.0
C804 C 0.88329 0.25508 0.50882 0.0
C805 C 0.88139 0.23256 0.5193 0.0
C806 C 0.85917 0.21041 0.51433 0.0
C807 C 0.83834 0.21036 0.49918 0.0
C808 C 0.84041 0.23301 0.48888 0.0
C809 C 0.86268 0.25507 0.49354 0.0
H810 H 0.99271 0.57425 0.15424 0.0
N811 N 0.949 0.54467 0.18727 0.0
H812 H 0.00018 0.60368 0.10469 0.0
H813 H 0.9156 0.54765 0.14284 0.0
H814 H 0.92308 0.57713 0.09199 0.0
H815 H 0.92723 0.56292 0.23102 0.0
H816 H 0.94738 0.59956 0.2746 0.0
H817 H 0.9956 0.56484 0.21846 0.0
H818 H 0.016 0.60197 0.26069 0.0
H819 H 0.96605 0.52814 0.12638 0.0
H820 H 0.94221 0.5133 0.24334 0.0
H821 H 0.97766 0.49682 0.12867 0.0
H822 H 0.9538 0.48138 0.24505 0.0
H823 H 0.03772 0.41233 0.16305 0.0
H824 H 0.03411 0.38873 0.10369 0.0
H825 H 0.95918 0.37068 0.08732 0.0
H826 H 0.96272 0.39355 0.14766 0.0
H827 H 0.96796 0.37748 0.22211 0.0
H828 H 0.97375 0.35387 0.27223 0.0
H829 H 0.04737 0.41399 0.2947 0.0
H830 H 0.04116 0.43763 0.24496 0.0
H831 H 0.0264 0.46548 0.16825 0.0
H832 H 0.01097 0.4944 0.16504 0.0
H833 H 0.94405 0.44012 0.21428 0.0
N834 N 0.00411 0.42008 0.19382 0.0
H835 H 0.95965 0.41128 0.21724 0.0
C836 C 0.95349 0.55889 0.15294 0.0
C837 C 0.97731 0.57454 0.14085 0.0
C838 C 0.9816 0.59138 0.11227 0.0
C839 C 0.96227 0.59298 0.09488 0.0
C840 C 0.93832 0.57621 0.10484 0.0
C841 C 0.93402 0.55942 0.13388 0.0
C842 C 0.95989 0.5615 0.2206 0.0
C843 C 0.9464 0.57073 0.23873 0.0
C844 C 0.95797 0.59163 0.26376 0.0
C845 C 0.98338 0.60389 0.27049 0.0
C846 C 0.99644 0.59304 0.25573 0.0
C847 C 0.98477 0.57188 0.23131 0.0
C848 C 0.95454 0.52465 0.18587 0.0
C849 C 0.96363 0.51874 0.153 0.0
C850 C 0.97016 0.50046 0.15402 0.0
C851 C 0.96721 0.48713 0.18733 0.0
C852 C 0.95648 0.49156 0.21907 0.0
C853 C 0.95006 0.50996 0.21819 0.0
C854 C 0.00075 0.40516 0.15939 0.0
C855 C 0.02047 0.40305 0.1468 0.0
C856 C 0.0183 0.38944 0.11302 0.0
C857 C 0.99638 0.37793 0.09066 0.0
C858 C 0.97635 0.37947 0.1038 0.0
C859 C 0.97839 0.39267 0.13819 0.0
C860 C 0.00436 0.40909 0.22956 0.0
C861 C 0.98487 0.38605 0.23922 0.0
C862 C 0.98819 0.37266 0.26814 0.0
C863 C 0.01117 0.38198 0.28698 0.0
C864 C 0.02951 0.40635 0.28057 0.0
C865 C 0.02607 0.41979 0.25203 0.0
C866 C 0.99433 0.43646 0.1932 0.0
C867 C 0.00843 0.45991 0.17835 0.0
C868 C -0.00047 0.47626 0.17633 0.0
C869 C 0.97628 0.46943 0.18931 0.0
C870 C 0.96211 0.4459 0.20437 0.0
C871 C 0.971 0.42942 0.20608 0.0
H872 H 0.62911 0.54601 0.15483 0.0
N873 N 0.59737 0.54723 0.20285 0.0
H874 H 0.6505 0.57521 0.10417 0.0
H875 H 0.58636 0.58125 0.17392 0.0
H876 H 0.60736 0.60994 0.1245 0.0
H877 H 0.57093 0.56622 0.23563 0.0
H878 H 0.58837 0.60338 0.2781 0.0
H879 H 0.63778 0.56439 0.24709 0.0
H880 H 0.655 0.60088 0.2909 0.0
H881 H 0.58134 0.50692 0.24349 0.0
H882 H 0.55746 0.53931 0.15638 0.0
H883 H 0.54094 0.47002 0.24047 0.0
H884 H 0.51805 0.50236 0.15168 0.0
H885 H 0.44 0.36858 0.12936 0.0
H886 H 0.41995 0.35631 0.06507 0.0
H887 H 0.37571 0.38859 0.09435 0.0
H888 H 0.39632 0.40148 0.15771 0.0
H889 H 0.41203 0.41878 0.2179 0.0
H890 H 0.3914 0.41013 0.27863 0.0
H891 H 0.40507 0.3495 0.29415 0.0
H892 H 0.42508 0.35789 0.23259 0.0
H893 H 0.47596 0.39729 0.19769 0.0
H894 H 0.51586 0.43492 0.20153 0.0
H895 H 0.4812 0.47852 0.18075 0.0
N896 N 0.43289 0.3936 0.1853 0.0
H897 H 0.4417 0.44051 0.17414 0.0
C898 C 0.6063 0.56144 0.16866 0.0
C899 C 0.62392 0.55957 0.14753 0.0
C900 C 0.63606 0.57621 0.1186 0.0
C901 C 0.63086 0.59515 0.11071 0.0
C902 C 0.61213 0.59592 0.13016 0.0
C903 C 0.60002 0.57936 0.15872 0.0
C904 C 0.60342 0.563 0.23724 0.0
C905 C 0.58899 0.57318 0.24855 0.0
C906 C 0.59896 0.5944 0.27297 0.0
C907 C 0.62323 0.60535 0.28724 0.0
C908 C 0.63627 0.59297 0.28037 0.0
C909 C 0.62649 0.57211 0.25526 0.0
C910 C 0.5729 0.52607 0.20027 0.0
C911 C 0.5675 0.50608 0.22362 0.0
C912 C 0.54442 0.48488 0.22154 0.0
C913 C 0.52616 0.48299 0.19552 0.0
C914 C 0.53145 0.50318 0.17245 0.0
C915 C 0.55441 0.52452 0.17499 0.0
C916 C 0.41958 0.38567 0.14865 0.0
C917 C 0.42588 0.37287 0.12188 0.0
C918 C 0.41446 0.36593 0.08519 0.0
C919 C 0.39616 0.37137 0.07468 0.0
C920 C 0.38957 0.3839 0.10172 0.0
C921 C 0.40139 0.39129 0.13817 0.0
C922 C 0.41961 0.3885 0.22014 0.0
C923 C 0.41027 0.40337 0.23388 0.0
C924 C 0.39867 0.39857 0.26894 0.0
C925 C 0.39667 0.37921 0.29132 0.0
C926 C 0.4064 0.36467 0.27776 0.0
C927 C 0.41763 0.36923 0.24246 0.0
C928 C 0.45599 0.41617 0.18615 0.0
C929 C 0.47714 0.41503 0.19373 0.0
C930 C 0.49987 0.43661 0.19636 0.0
C931 C 0.50187 0.45994 0.192 0.0
C932 C 0.4805 0.46096 0.18395 0.0
C933 C 0.45779 0.43925 0.18065 0.0
H934 H 0.57315 0.00325 0.16134 0.0
N935 N 0.58855 0.04848 0.19736 0.0
H936 H 0.59121 0.99504 0.10619 0.0
H937 H 0.62119 0.08178 0.1519 0.0
H938 H 0.63926 0.07365 0.0957 0.0
H939 H 0.62793 0.07884 0.24091 0.0
H940 H 0.64723 0.06805 0.29306 0.0
H941 H 0.57125 0.00237 0.22681 0.0
H942 H 0.5911 0.99123 0.27748 0.0
H943 H 0.55312 0.03169 0.13791 0.0
H944 H 0.5658 0.05186 0.25984 0.0
H945 H 0.51198 0.02369 0.14181 0.0
H946 H 0.52418 0.04379 0.2632 0.0
H947 H 0.38107 0.98074 0.17248 0.0
H948 H 0.36292 0.97355 0.10804 0.0
H949 H 0.41438 0.04904 0.08138 0.0
H950 H 0.43224 0.05649 0.14704 0.0
H951 H 0.40507 0.04483 0.25423 0.0
H952 H 0.38173 0.02608 0.31114 0.0
H953 H 0.38029 0.9577 0.28121 0.0
H954 H 0.40436 0.97691 0.22516 0.0
H955 H 0.43183 0.99135 0.16971 0.0
H956 H 0.47211 0.995 0.17047 0.0
H957 H 0.50174 0.0639 0.2375 0.0
N958 N 0.42047 0.02437 0.20263 0.0
H959 H 0.46135 0.06003 0.23665 0.0
C960 C 0.59633 0.0432 0.1614 0.0
C961 C 0.5875 0.01875 0.14725 0.0
C962 C 0.59766 0.01409 0.11531 0.0
C963 C 0.6168 0.03369 0.09683 0.0
C964 C 0.62439 0.05818 0.1092 0.0
C965 C 0.61428 0.06286 0.14142 0.0
C966 C 0.59839 0.04149 0.2296 0.0
C967 C 0.61968 0.05974 0.2491 0.0
C968 C 0.63067 0.05352 0.27877 0.0
C969 C 0.62081 0.02874 0.28904 0.0
C970 C 0.5993 0.01042 0.26981 0.0
C971 C 0.588 0.01676 0.2407 0.0
C972 C 0.56291 0.04121 0.19921 0.0
C973 C 0.54717 0.03363 0.16597 0.0
C974 C 0.52336 0.02912 0.16799 0.0
C975 C 0.51474 0.03277 0.20286 0.0
C976 C 0.53031 0.04069 0.23591 0.0
C977 C 0.55409 0.04503 0.23402 0.0
C978 C 0.4081 0.01943 0.16516 0.0
C979 C 0.38841 0.996 0.15341 0.0
C980 C 0.37793 0.99183 0.11619 0.0
C981 C 0.38721 0.01072 0.0895 0.0
C982 C 0.40683 0.03408 0.1012 0.0
C983 C 0.417 0.03839 0.1387 0.0
C984 C 0.40604 0.01223 0.23508 0.0
C985 C 0.3997 0.02582 0.26004 0.0
C986 C 0.38658 0.01512 0.29266 0.0
C987 C 0.37921 0.99039 0.30063 0.0
C988 C 0.38568 0.97676 0.27574 0.0
C989 C 0.39931 0.98769 0.24356 0.0
C990 C 0.44376 0.02564 0.20289 0.0
C991 C 0.44699 0.0072 0.18459 0.0
C992 C 0.47 0.00932 0.18501 0.0
C993 C 0.49005 0.02974 0.20406 0.0
C994 C 0.48659 0.04783 0.22298 0.0
C995 C 0.46365 0.04577 0.2223 0.0
H996 H 0.36833 0.91103 0.86488 0.0
N997 N 0.40462 0.94696 0.82828 0.0
H998 H 0.34878 0.91571 0.92202 0.0
H999 H 0.42293 0.98846 0.87668 0.0
H1000 H 0.40324 0.99328 0.93247 0.0
H1001 H 0.41572 0.99466 0.81448 0.0
H1002 H 0.39699 0.00728 0.76461 0.0
H1003 H 0.37429 0.91894 0.77079 0.0
H1004 H 0.35595 0.93159 0.71972 0.0
H1005 H 0.41358 0.91029 0.81681 0.0
H1006 H 0.44927 0.98962 0.83374 0.0
H1007 H 0.45308 0.91265 0.81492 0.0
H1008 H 0.48875 0.99214 0.83548 0.0
H1009 H 0.57417 0.92565 0.87439 0.0
H1010 H 0.59316 0.93528 0.93982 0.0
H1011 H 0.60704 0.0102 0.93299 0.0
H1012 H 0.5863 -4e-05 0.8693 0.0
H1013 H 0.6024 0.00206 0.81148 0.0
H1014 H 0.62381 0.01365 0.75186 0.0
H1015 H 0.5825 0.93754 0.70883 0.0
H1016 H 0.56118 0.92598 0.76923 0.0
H1017 H 0.52441 0.91962 0.85384 0.0
H1018 H 0.48542 0.9184 0.85393 0.0
H1019 H 0.51838 0.98979 0.80168 0.0
N1020 N 0.56641 0.95521 0.82964 0.0
H1021 H 0.55759 0.99158 0.80477 0.0
C1022 C 0.39669 0.9494 0.86579 0.0
C1023 C 0.37643 0.92884 0.88029 0.0
C1024 C 0.36543 0.9315 0.91303 0.0
C1025 C 0.37439 0.95495 0.93126 0.0
C1026 C 0.39583 0.97508 0.91863 0.0
C1027 C 0.40705 0.97231 0.88639 0.0
C1028 C 0.39616 0.95567 0.79669 0.0
C1029 C 0.40275 0.98071 0.79408 0.0
C1030 C 0.39197 0.98795 0.76545 0.0
C1031 C 0.37481 0.9704 0.73844 0.0
C1032 C 0.36907 0.94557 0.74014 0.0
C1033 C 0.37955 0.9383 0.76917 0.0
C1034 C 0.42839 0.94959 0.82622 0.0
C1035 C 0.43001 0.9282 0.8206 0.0
C1036 C 0.45266 0.92962 0.82 0.0
C1037 C 0.47432 0.95257 0.82581 0.0
C1038 C 0.4726 0.97413 0.83066 0.0
C1039 C 0.44988 0.9727 0.83035 0.0
C1040 C 0.57958 0.96226 0.86639 0.0
C1041 C 0.58152 0.94419 0.88697 0.0
C1042 C 0.5922 0.94964 0.92422 0.0
C1043 C 0.60174 0.97352 0.94099 0.0
C1044 C 0.60015 0.99176 0.92026 0.0
C1045 C 0.58862 0.98602 0.88364 0.0
C1046 C 0.58032 0.96288 0.79531 0.0
C1047 C 0.598 0.98771 0.78967 0.0
C1048 C 0.61018 0.99443 0.75518 0.0
C1049 C 0.60486 0.97656 0.72546 0.0
C1050 C 0.58702 0.95181 0.73103 0.0
C1051 C 0.57494 0.94511 0.7656 0.0
C1052 C 0.54378 0.95538 0.82879 0.0
C1053 C 0.52313 0.93499 0.84257 0.0
C1054 C 0.50079 0.93427 0.84217 0.0
C1055 C 0.49846 0.95382 0.82721 0.0
C1056 C 0.51937 0.97446 0.81377 0.0
C1057 C 0.54187 0.9754 0.81505 0.0
H1058 H 0.99566 0.59839 0.87031 0.0
N1059 N 0.04111 0.60749 0.8497 0.0
H1060 H 0.98604 0.613 0.92903 0.0
H1061 H 0.07081 0.63186 0.9103 0.0
H1062 H 0.06089 0.6456 0.97051 0.0
H1063 H 0.065 0.64861 0.81102 0.0
H1064 H 0.04786 0.66368 0.76188 0.0
H1065 H -0.00278 0.57927 0.80977 0.0
H1066 H 0.97973 0.59455 0.76205 0.0
H1067 H 0.00353 0.56142 0.86545 0.0
H1068 H 0.07816 0.60125 0.8324 0.0
H1069 H 0.00397 0.52253 0.86086 0.0
H1070 H 0.07936 0.5627 0.8298 0.0
H1071 H 0.00426 0.4181 0.86996 0.0
H1072 H -0.00214 0.38927 0.91971 0.0
H1073 H 0.07563 0.42081 0.93639 0.0
H1074 H 0.08199 0.44979 0.88527 0.0
H1075 H 0.0682 0.42991 0.79562 0.0
H1076 H 0.04672 0.39305 0.75283 0.0
H1077 H 0.98017 0.39528 0.76461 0.0
H1078 H 0.002 0.43247 0.80658 0.0
H1079 H 0.02101 0.46169 0.88865 0.0
H1080 H 0.01921 0.49941 0.89093 0.0
H1081 H 0.06567 0.52553 0.79381 0.0
N1082 N 0.04787 0.44992 0.83871 0.0
H1083 H 0.06846 0.48789 0.79279 0.0
C1084 C 0.03424 0.61439 0.88533 0.0
C1085 C 0.01021 0.60894 0.89149 0.0
C1086 C 0.00466 0.61738 0.92526 0.0
C1087 C 0.02276 0.63075 0.9542 0.0
C1088 C 0.04657 0.63549 0.94862 0.0
C1089 C 0.05225 0.62758 0.91436 0.0
C1090 C 0.0323 0.61318 0.81492 0.0
C1091 C 0.04669 0.63638 0.7993 0.0
C1092 C 0.03692 0.64485 0.77098 0.0
C1093 C 0.01235 0.63035 0.75849 0.0
C1094 C -0.0013 0.60612 0.77127 0.0
C1095 C 0.00869 0.59745 0.79889 0.0
C1096 C 0.04083 0.58424 0.84886 0.0
C1097 C 0.02006 0.5618 0.85731 0.0
C1098 C 0.02044 0.53956 0.85503 0.0
C1099 C 0.04169 0.53932 0.84478 0.0
C1100 C 0.0625 0.56196 0.83693 0.0
C1101 C 0.06197 0.58408 0.83876 0.0
C1102 C 0.04374 0.43615 0.87343 0.0
C1103 C 0.02005 0.41924 0.88454 0.0
C1104 C 0.01638 0.40267 0.91332 0.0
C1105 C 0.03621 0.40252 0.93191 0.0
C1106 C 0.05995 0.42048 0.92269 0.0
C1107 C 0.06363 0.43706 0.89355 0.0
C1108 C 0.03667 0.43359 0.80505 0.0
C1109 C 0.04924 0.42306 0.78755 0.0
C1110 C 0.03688 0.40198 0.76302 0.0
C1111 C 0.01157 0.39085 0.75604 0.0
C1112 C -0.00039 0.4032 0.76982 0.0
C1113 C 0.01208 0.42449 0.79393 0.0
C1114 C 0.0451 0.47166 0.84039 0.0
C1115 C 0.03088 0.47523 0.8676 0.0
C1116 C 0.02967 0.49703 0.86881 0.0
C1117 C 0.04234 0.51572 0.84268 0.0
C1118 C 0.05605 0.51186 0.81499 0.0
C1119 C 0.05751 0.49022 0.8141 0.0
H1120 H 0.42718 0.42231 0.85594 0.0
N1121 N 0.41643 0.45562 0.82341 0.0
H1122 H 0.40594 0.39512 0.90739 0.0
H1123 H 0.38502 0.45867 0.86976 0.0
H1124 H 0.36388 0.43158 0.92265 0.0
H1125 H 0.37678 0.43969 0.77799 0.0
H1126 H 0.35848 0.40269 0.73545 0.0
H1127 H 0.44142 0.43416 0.79348 0.0
H1128 H 0.4228 0.39629 0.75231 0.0
H1129 H 0.45454 0.46706 0.87643 0.0
H1130 H 0.43396 0.49283 0.77573 0.0
H1131 H 0.49263 0.50538 0.88268 0.0
H1132 H 0.47332 0.53105 0.78045 0.0
H1133 H 0.61256 0.60908 0.87635 0.0
H1134 H 0.63327 0.62053 0.93962 0.0
H1135 H 0.58464 0.64589 0.97692 0.0
H1136 H 0.56436 0.63502 0.91264 0.0
H1137 H 0.59782 0.65974 0.82128 0.0
H1138 H 0.62562 0.67243 0.76801 0.0
H1139 H 0.61457 0.59833 0.75664 0.0
H1140 H 0.58761 0.58601 0.81012 0.0
H1141 H 0.56814 0.57023 0.87032 0.0
H1142 H 0.53097 0.53043 0.85977 0.0
H1143 H 0.49369 0.56793 0.81749 0.0
N1144 N 0.57469 0.61562 0.85205 0.0
H1145 H 0.53162 0.60755 0.82579 0.0
C1146 C 0.40728 0.44227 0.85824 0.0
C1147 C 0.41351 0.42466 0.87027 0.0
C1148 C 0.40146 0.40917 0.90009 0.0
C1149 C 0.38305 0.41101 0.91882 0.0
C1150 C 0.37807 0.4298 0.90882 0.0
C1151 C 0.39003 0.44521 0.87857 0.0
C1152 C 0.41004 0.4392 0.78979 0.0
C1153 C 0.38736 0.43095 0.77101 0.0
C1154 C 0.37694 0.40975 0.74664 0.0
C1155 C 0.38892 0.39613 0.74129 0.0
C1156 C 0.41296 0.40617 0.75633 0.0
C1157 C 0.42359 0.42776 0.78002 0.0
C1158 C 0.44086 0.47681 0.82546 0.0
C1159 C 0.45818 0.48058 0.85498 0.0
C1160 C 0.48038 0.50275 0.85849 0.0
C1161 C 0.48615 0.52157 0.8323 0.0
C1162 C 0.46934 0.5173 0.80179 0.0
C1163 C 0.44692 0.4953 0.7987 0.0
C1164 C 0.58707 0.6216 0.88949 0.0
C1165 C 0.60645 0.61733 0.89784 0.0
C1166 C 0.61831 0.6239 0.93416 0.0
C1167 C 0.61071 0.6343 0.96321 0.0
C1168 C 0.59095 0.63797 0.95513 0.0
C1169 C 0.57938 0.63181 0.91851 0.0
C1170 C 0.59028 0.62195 0.81962 0.0
C1171 C 0.60135 0.64626 0.80714 0.0
C1172 C 0.61723 0.65344 0.7768 0.0
C1173 C 0.62215 0.6363 0.75805 0.0
C1174 C 0.61093 0.61187 0.77028 0.0
C1175 C 0.59536 0.6048 0.80099 0.0
C1176 C 0.55263 0.59188 0.84853 0.0
C1177 C 0.55199 0.56986 0.85865 0.0
C1178 C 0.53059 0.54706 0.8528 0.0
C1179 C 0.5092 0.5458 0.8376 0.0
C1180 C 0.50987 0.56799 0.82834 0.0
C1181 C 0.53142 0.59072 0.8335 0.0
H1182 H 0.66559 0.91258 0.48805 0.0
N1183 N 0.62171 0.88193 0.51977 0.0
H1184 H 0.67262 0.94167 0.4382 0.0
H1185 H 0.58808 0.88263 0.47292 0.0
H1186 H 0.5951 0.91177 0.42182 0.0
H1187 H 0.59994 0.90026 0.56294 0.0
H1188 H 0.62009 0.93699 0.60608 0.0
H1189 H 0.66786 0.90117 0.55184 0.0
H1190 H 0.68848 0.93861 0.59372 0.0
H1191 H 0.64629 0.86812 0.46821 0.0
H1192 H 0.60334 0.84601 0.56958 0.0
H1193 H 0.64841 0.83058 0.46838 0.0
H1194 H 0.6064 0.80858 0.57072 0.0
H1195 H 0.67437 0.73347 0.49548 0.0
H1196 H 0.6832 0.71915 0.4358 0.0
H1197 H 0.60801 0.68725 0.39655 0.0
H1198 H 0.59888 0.70075 0.45771 0.0
H1199 H 0.60687 0.6849 0.55834 0.0
H1200 H 0.62538 0.67126 0.60734 0.0
H1201 H 0.69285 0.74076 0.60245 0.0
H1202 H 0.67396 0.75463 0.55488 0.0
H1203 H 0.66628 0.77065 0.49803 0.0
H1204 H 0.66558 0.80944 0.50033 0.0
H1205 H 0.59134 0.77012 0.53701 0.0
N1206 N 0.62937 0.72513 0.51743 0.0
H1207 H 0.59279 0.73169 0.53649 0.0
C1208 C 0.62618 0.89551 0.48481 0.0
C1209 C 0.65 0.91194 0.4736 0.0
C1210 C 0.65404 0.92865 0.44487 0.0
C1211 C 0.63446 0.92932 0.42646 0.0
C1212 C 0.61058 0.91166 0.43546 0.0
C1213 C 0.60652 0.89501 0.46461 0.0
C1214 C 0.63246 0.89845 0.5533 0.0
C1215 C 0.61904 0.90791 0.57097 0.0
C1216 C 0.63064 0.9289 0.59575 0.0
C1217 C 0.65603 0.94106 0.60263 0.0
C1218 C 0.66895 0.92983 0.58857 0.0
C1219 C 0.6572 0.9085 0.56443 0.0
C1220 C 0.62465 0.86031 0.51929 0.0
C1221 C 0.63758 0.8556 0.49104 0.0
C1222 C 0.63894 0.83391 0.49117 0.0
C1223 C 0.6276 0.81646 0.51954 0.0
C1224 C 0.61502 0.82135 0.548 0.0
C1225 C 0.61343 0.84288 0.54762 0.0
C1226 C 0.63567 0.71779 0.48166 0.0
C1227 C 0.65956 0.72307 0.47465 0.0
C1228 C 0.66467 0.71484 0.44029 0.0
C1229 C 0.64626 0.70184 0.41164 0.0
C1230 C 0.62256 0.69712 0.41819 0.0
C1231 C 0.61732 0.70485 0.453 0.0
C1232 C 0.63912 0.72037 0.55205 0.0
C1233 C 0.62534 0.69752 0.56897 0.0
C1234 C 0.63593 0.68988 0.5972 0.0
C1235 C 0.66071 0.70484 0.60828 0.0
C1236 C 0.67376 0.72881 0.59428 0.0
C1237 C 0.66296 0.73667 0.56675 0.0
C1238 C 0.62956 0.74831 0.51748 0.0
C1239 C 0.64996 0.77045 0.50692 0.0
C1240 C 0.64943 0.7926 0.5079 0.0
C1241 C 0.62842 0.793 0.51897 0.0
C1242 C 0.60801 0.77069 0.52911 0.0
C1243 C 0.60868 0.74865 0.52853 0.0
H1244 H 0.29488 0.88311 0.52889 0.0
N1245 N 0.25206 0.87425 0.55381 0.0
H1246 H 0.31749 0.91022 0.47693 0.0
H1247 H 0.2329 0.89101 0.49851 0.0
H1248 H 0.25598 0.91943 0.4484 0.0
H1249 H 0.23231 0.90478 0.55988 0.0
H1250 H 0.24739 0.94114 0.60092 0.0
H1251 H 0.28263 0.88642 0.61483 0.0
H1252 H 0.29951 0.9247 0.65494 0.0
H1253 H 0.24676 0.83005 0.53855 0.0
H1254 H 0.20486 0.86622 0.55808 0.0
H1255 H 0.20899 0.79078 0.52514 0.0
H1256 H 0.16762 0.82746 0.54611 0.0
H1257 H 0.10377 0.69543 0.44481 0.0
H1258 H 0.08274 0.68593 0.38116 0.0
H1259 H 0.03626 0.7128 0.42308 0.0
H1260 H 0.05776 0.72303 0.48564 0.0
H1261 H 0.0847 0.74578 0.55014 0.0
H1262 H 0.0588 0.73504 0.60531 0.0
H1263 H 0.04354 0.65942 0.59326 0.0
H1264 H 0.07008 0.67049 0.53848 0.0
H1265 H 0.13533 0.72052 0.54209 0.0
H1266 H 0.17379 0.75925 0.55482 0.0
H1267 H 0.14425 0.79888 0.49444 0.0
N1268 N 0.09482 0.71446 0.50749 0.0
H1269 H 0.10572 0.76035 0.4833 0.0
C1270 C 0.26254 0.88559 0.51826 0.0
C1271 C 0.286 0.89026 0.51047 0.0
C1272 C 0.29883 0.90567 0.48081 0.0
C1273 C 0.28852 0.91711 0.45917 0.0
C1274 C 0.26437 0.91101 0.46506 0.0
C1275 C 0.25126 0.89493 0.49389 0.0
C1276 C 0.2559 0.89213 0.58442 0.0
C1277 C 0.24574 0.90764 0.58203 0.0
C1278 C 0.25483 0.92906 0.6055 0.0
C1279 C 0.27511 0.9363 0.63078 0.0
C1280 C 0.28393 0.91979 0.63573 0.0
C1281 C 0.27428 0.89785 0.61281 0.0
C1282 C 0.22907 0.85133 0.54956 0.0
C1283 C 0.2295 0.82952 0.54052 0.0
C1284 C 0.20788 0.80709 0.53294 0.0
C1285 C 0.18522 0.80595 0.53435 0.0
C1286 C 0.18475 0.82772 0.544 0.0
C1287 C 0.20637 0.85016 0.55129 0.0
C1288 C 0.08219 0.70951 0.47029 0.0
C1289 C 0.08909 0.69932 0.4401 0.0
C1290 C 0.0771 0.69395 0.40382 0.0
C1291 C 0.05767 0.69835 0.39725 0.0
C1292 C 0.05094 0.70885 0.42739 0.0
C1293 C 0.06324 0.71468 0.46334 0.0
C1294 C 0.07963 0.7089 0.54034 0.0
C1295 C 0.07611 0.72696 0.55956 0.0
C1296 C 0.06121 0.7208 0.59116 0.0
C1297 C 0.0492 0.69641 0.60375 0.0
C1298 C 0.05256 0.67839 0.58429 0.0
C1299 C 0.0677 0.68463 0.55303 0.0
C1300 C 0.11775 0.73742 0.51154 0.0
C1301 C 0.13732 0.73759 0.53139 0.0
C1302 C 0.15928 0.75972 0.53849 0.0
C1303 C 0.16213 0.78223 0.52574 0.0
C1304 C 0.14258 0.78196 0.50522 0.0
C1305 C 0.12058 0.75984 0.49835 0.0
H1306 H 0.24979 0.35053 0.49987 0.0
N1307 N 0.26627 0.39314 0.5444 0.0
H1308 H 0.26985 0.34436 0.44594 0.0
H1309 H 0.30477 0.42789 0.50896 0.0
H1310 H 0.32523 0.42169 0.45412 0.0
H1311 H 0.30216 0.42019 0.59621 0.0
H1312 H 0.31859 0.40545 0.64715 0.0
H1313 H 0.24813 0.3447 0.56426 0.0
H1314 H 0.26522 0.32983 0.61366 0.0
H1315 H 0.23648 0.38574 0.48 0.0
H1316 H 0.23692 0.38574 0.60464 0.0
H1317 H 0.19312 0.37067 0.47801 0.0
H1318 H 0.1934 0.37165 0.60193 0.0
H1319 H 0.04571 0.29516 0.49288 0.0
H1320 H 0.0293 0.29648 0.4292 0.0
H1321 H 0.09044 0.37003 0.41634 0.0
H1322 H 0.10619 0.36896 0.4809 0.0
H1323 H 0.07539 0.36586 0.54319 0.0
H1324 H 0.05196 0.36778 0.5968 0.0
H1325 H 0.0484 0.302 0.64173 0.0
H1326 H 0.07136 0.30002 0.58758 0.0
H1327 H 0.11148 0.30904 0.50142 0.0
H1328 H 0.15572 0.32598 0.5055 0.0
H1329 H 0.16472 0.39042 0.56919 0.0
N1330 N 0.08665 0.32953 0.52849 0.0
H1331 H 0.1206 0.37397 0.56374 0.0
C1332 C 0.27606 0.38968 0.50909 0.0
C1333 C 0.26619 0.36624 0.49021 0.0
C1334 C 0.27763 0.36275 0.45903 0.0
C1335 C 0.29929 0.38245 0.44607 0.0
C1336 C 0.30842 0.40621 0.46332 0.0
C1337 C 0.29691 0.40973 0.49476 0.0
C1338 C 0.27416 0.38371 0.57605 0.0
C1339 C 0.29383 0.40048 0.60025 0.0
C1340 C 0.3032 0.39199 0.62922 0.0
C1341 C 0.29335 0.36645 0.63409 0.0
C1342 C 0.2734 0.3496 0.61023 0.0
C1343 C 0.26369 0.35811 0.58182 0.0
C1344 C 0.24024 0.38483 0.54255 0.0
C1345 C 0.22748 0.38193 0.50707 0.0
C1346 C 0.20257 0.37364 0.50573 0.0
C1347 C 0.18998 0.36943 0.53975 0.0
C1348 C 0.20276 0.37433 0.57528 0.0
C1349 C 0.22763 0.38211 0.57669 0.0
C1350 C 0.0773 0.33165 0.49138 0.0
C1351 C 0.05541 0.31163 0.47642 0.0
C1352 C 0.04607 0.31248 0.44011 0.0
C1353 C 0.05872 0.3333 0.41762 0.0
C1354 C 0.08044 0.35366 0.43288 0.0
C1355 C 0.08949 0.35302 0.46973 0.0
C1356 C 0.07471 0.33249 0.56124 0.0
C1357 C 0.06958 0.35192 0.56467 0.0
C1358 C 0.05625 0.35301 0.59535 0.0
C1359 C 0.04816 0.33493 0.62336 0.0
C1360 C 0.05431 0.3162 0.62065 0.0
C1361 C 0.06737 0.31498 0.58977 0.0
C1362 C 0.11268 0.33998 0.53261 0.0
C1363 C 0.12301 0.3268 0.51627 0.0
C1364 C 0.14816 0.33647 0.51855 0.0
C1365 C 0.1634 0.35936 0.53784 0.0
C1366 C 0.15318 0.3726 0.5545 0.0
C1367 C 0.12801 0.36317 0.55144 0.0
loop_
_geom_bond_atom_site_label_1
_geom_bond_atom_site_label_2
_geom_bond_distance
_geom_bond_site_symmetry_2
_ccdc_geom_bond_type
Mg0 O1 2.028 1_556 S
Mg0 O7 1.986 1_455 S
Mg0 O9 2.114 . S
Mg0 O10 2.251 1_455 S
Mg0 O13 2.010 1_556 S
O1 Mg0 2.028 1_554 S
O1 C4 1.250 1_455 S
O2 Mg3 2.028 1_554 S
O2 C4 1.248 . S
Mg3 O2 2.028 1_556 S
Mg3 O8 2.032 . S
Mg3 O10 2.079 . S
C4 O1 1.250 1_655 S
C4 O2 1.248 . S
C5 O6 1.256 1_554 S
C5 O13 1.249 . S
O6 C5 1.256 1_556 S
O7 Mg0 1.986 1_655 S
O7 C11 1.246 . S
O8 Mg3 2.032 . S
O8 C11 1.259 . S
O9 Mg0 2.114 . S
O9 C12 1.252 . S
O10 Mg0 2.251 1_655 S
O10 Mg3 2.079 . S
O10 C12 1.273 1_655 S
C11 O7 1.246 . S
C11 O8 1.259 . S
C12 O9 1.252 . S
C12 O10 1.273 1_455 S
O13 Mg0 2.010 1_554 S
O13 C5 1.249 . S
Mg14 O15 2.028 1_554 S
Mg14 O21 1.986 . S
Mg14 O23 2.114 . S
Mg14 O24 2.251 . S
Mg14 O27 2.010 . S
O15 Mg14 2.028 1_556 S
O15 C18 1.250 . S
O16 Mg17 2.028 1_556 S
O16 C18 1.248 . S
Mg17 O16 2.028 1_554 S
Mg17 O22 2.032 . S
Mg17 O24 2.079 . S
C18 O15 1.250 . S
C18 O16 1.248 . S
C19 O20 1.264 . S
C19 O27 1.249 . S
O20 C19 1.264 . S
O21 Mg14 1.986 . S
O21 C25 1.246 . S
O22 Mg17 2.032 . S
O22 C25 1.259 . S
O23 Mg14 2.114 . S
O23 C26 1.252 . S
O24 Mg14 2.251 . S
O24 Mg17 2.079 . S
O24 C26 1.273 . S
C25 O21 1.246 . S
C25 O22 1.259 . S
C26 O23 1.252 . S
C26 O24 1.273 . S
O27 Mg14 2.010 . S
O27 C19 1.249 . S
Mg28 O29 2.023 1_556 S
Mg28 O35 1.985 1_566 S
Mg28 O37 2.114 . S
Mg28 O38 2.251 1_565 S
Mg28 O41 2.010 1_556 S
O29 Mg28 2.023 1_554 S
O29 C32 1.244 1_565 S
O30 Mg31 2.028 1_554 S
O30 C32 1.248 . S
Mg31 O30 2.028 1_556 S
Mg31 O36 2.032 . S
Mg31 O38 2.079 . S
C32 O29 1.244 1_545 S
C32 O30 1.248 . S
C33 O34 1.264 1_554 S
C33 O41 1.249 . S
O34 C33 1.264 1_556 S
O35 Mg28 1.985 1_544 S
O35 C39 1.244 1_554 S
O36 Mg31 2.032 . S
O36 C39 1.259 . S
O37 Mg28 2.114 . S
O37 C40 1.252 . S
O38 Mg28 2.251 1_545 S
O38 Mg31 2.079 . S
O38 C40 1.273 1_545 S
C39 O35 1.244 1_556 S
C39 O36 1.259 . S
C40 O37 1.252 . S
C40 O38 1.273 1_565 S
O41 Mg28 2.010 1_554 S
O41 C33 1.249 . S
Mg42 O43 2.028 1_554 S
Mg42 O49 1.986 1_655 S
Mg42 O51 2.114 . S
Mg42 O52 2.251 1_655 S
Mg42 O55 2.010 . S
O43 Mg42 2.028 1_556 S
O43 C46 1.250 1_655 S
O44 Mg45 2.028 1_556 S
O44 C46 1.248 . S
Mg45 O44 2.028 1_554 S
Mg45 O50 2.032 . S
Mg45 O52 2.079 . S
C46 O43 1.250 1_455 S
C46 O44 1.248 . S
C47 O48 1.264 . S
C47 O55 1.249 . S
O48 C47 1.264 . S
O49 Mg42 1.986 1_455 S
O49 C53 1.246 . S
O50 Mg45 2.032 . S
O50 C53 1.259 . S
O51 Mg42 2.114 . S
O51 C54 1.252 . S
O52 Mg42 2.251 1_455 S
O52 Mg45 2.079 . S
O52 C54 1.273 1_455 S
C53 O49 1.246 . S
C53 O50 1.259 . S
C54 O51 1.252 . S
C54 O52 1.273 1_655 S
O55 Mg42 2.010 . S
O55 C47 1.249 . S
Mg56 O57 2.028 1_556 S
Mg56 O63 1.986 . S
Mg56 O65 2.114 . S
Mg56 O66 2.251 . S
Mg56 O69 2.010 1_556 S
O57 Mg56 2.028 1_554 S
O57 C60 1.250 . S
O58 Mg59 2.028 1_554 S
O58 C60 1.248 . S
Mg59 O58 2.028 1_556 S
Mg59 O64 2.032 . S
Mg59 O66 2.079 . S
C60 O57 1.250 . S
C60 O58 1.248 . S
C61 O62 1.264 . S
C61 O69 1.249 . S
O62 C61 1.264 . S
O63 Mg56 1.986 . S
O63 C67 1.246 . S
O64 Mg59 2.032 . S
O64 C67 1.259 . S
O65 Mg56 2.114 . S
O65 C68 1.252 . S
O66 Mg56 2.251 . S
O66 Mg59 2.079 . S
O66 C68 1.273 . S
C67 O63 1.246 . S
C67 O64 1.259 . S
C68 O65 1.252 . S
C68 O66 1.273 . S
O69 Mg56 2.010 1_554 S
O69 C61 1.249 . S
Mg70 O71 2.028 1_554 S
Mg70 O77 1.986 1_545 S
Mg70 O79 2.114 . S
Mg70 O80 2.251 1_545 S
Mg70 O83 2.010 . S
O71 Mg70 2.028 1_556 S
O71 C74 1.250 1_545 S
O72 Mg73 2.028 1_556 S
O72 C74 1.248 . S
Mg73 O72 2.028 1_554 S
Mg73 O78 2.032 . S
Mg73 O80 2.079 . S
C74 O71 1.250 1_565 S
C74 O72 1.248 . S
C75 O76 1.264 . S
C75 O83 1.249 . S
O76 C75 1.264 . S
O77 Mg70 1.986 1_565 S
O77 C81 1.246 . S
O78 Mg73 2.032 . S
O78 C81 1.259 . S
O79 Mg70 2.114 . S
O79 C82 1.252 . S
O80 Mg70 2.251 1_565 S
O80 Mg73 2.079 . S
O80 C82 1.273 1_565 S
C81 O77 1.246 . S
C81 O78 1.259 . S
C82 O79 1.252 . S
C82 O80 1.273 1_545 S
O83 Mg70 2.010 . S
O83 C75 1.249 . S
Mg84 O85 2.028 . S
Mg84 O91 1.986 . S
Mg84 O93 2.114 . S
Mg84 O94 2.251 . S
Mg84 O97 2.010 . S
O85 Mg84 2.028 . S
O85 C88 1.250 . S
O86 Mg87 2.028 . S
O86 C88 1.248 . S
Mg87 O86 2.028 . S
Mg87 O92 2.032 . S
Mg87 O94 2.079 . S
C88 O85 1.250 . S
C88 O86 1.248 . S
C89 O90 1.264 . S
C89 O97 1.249 . S
O90 C89 1.264 . S
O91 Mg84 1.986 . S
O91 C95 1.246 . S
O92 Mg87 2.032 . S
O92 C95 1.259 . S
O93 Mg84 2.114 . S
O93 C96 1.252 . S
O94 Mg84 2.251 . S
O94 Mg87 2.079 . S
O94 C96 1.273 . S
C95 O91 1.246 . S
C95 O92 1.259 . S
C96 O93 1.252 . S
C96 O94 1.273 . S
O97 Mg84 2.010 . S
O97 C89 1.249 . S
Mg98 O99 2.028 . S
Mg98 O105 1.986 1_565 S
Mg98 O107 2.114 . S
Mg98 O108 2.251 . S
Mg98 O111 2.010 . S
O99 Mg98 2.028 . S
O99 C102 1.250 . S
O100 Mg101 2.028 . S
O100 C102 1.248 . S
Mg101 O100 2.028 . S
Mg101 O106 2.032 1_565 S
Mg101 O108 2.079 . S
C102 O99 1.250 . S
C102 O100 1.248 . S
C103 O104 1.264 . S
C103 O111 1.249 . S
O104 C103 1.264 . S
O105 Mg98 1.986 1_545 S
O105 C109 1.246 . S
O106 Mg101 2.032 1_545 S
O106 C109 1.259 . S
O107 Mg98 2.114 . S
O107 C110 1.252 . S
O108 Mg98 2.251 . S
O108 Mg101 2.079 . S
O108 C110 1.273 . S
C109 O105 1.246 . S
C109 O106 1.259 . S
C110 O107 1.252 . S
C110 O108 1.273 . S
O111 Mg98 2.010 . S
O111 C103 1.249 . S
Mg112 O113 2.028 . S
Mg112 O119 1.986 . S
Mg112 O121 2.114 . S
Mg112 O122 2.251 . S
Mg112 O125 2.010 1_455 S
O113 Mg112 2.028 . S
O113 C116 1.250 . S
O114 Mg115 2.028 . S
O114 C116 1.248 . S
Mg115 O114 2.028 . S
Mg115 O120 2.032 . S
Mg115 O122 2.079 . S
C116 O113 1.250 . S
C116 O114 1.248 . S
C117 O118 1.264 . S
C117 O125 1.249 . S
O118 C117 1.264 . S
O119 Mg112 1.986 . S
O119 C123 1.246 . S
O120 Mg115 2.032 . S
O120 C123 1.259 . S
O121 Mg112 2.114 . S
O121 C124 1.252 . S
O122 Mg112 2.251 . S
O122 Mg115 2.079 . S
O122 C124 1.273 . S
C123 O119 1.246 . S
C123 O120 1.259 . S
C124 O121 1.252 . S
C124 O122 1.273 . S
O125 Mg112 2.010 1_655 S
O125 C117 1.249 . S
Mg126 O127 2.028 . S
Mg126 O133 1.986 1_565 S
Mg126 O135 2.114 . S
Mg126 O136 2.251 . S
Mg126 O139 2.010 . S
O127 Mg126 2.028 . S
O127 C130 1.250 . S
O128 Mg129 2.028 . S
O128 C130 1.248 . S
Mg129 O128 2.028 . S
Mg129 O134 1.991 1_565 S
Mg129 O136 2.079 . S
C130 O127 1.250 . S
C130 O128 1.248 . S
C131 O132 1.264 . S
C131 O139 1.249 . S
O132 C131 1.264 . S
O133 Mg126 1.986 1_545 S
O133 C137 1.246 . S
O134 Mg129 1.991 1_545 S
O134 C137 1.298 . S
O135 Mg126 2.114 . S
O135 C138 1.252 . S
O136 Mg126 2.251 . S
O136 Mg129 2.079 . S
O136 C138 1.273 . S
C137 O133 1.246 . S
C137 O134 1.298 . S
C138 O135 1.252 . S
C138 O136 1.273 . S
O139 Mg126 2.010 . S
O139 C131 1.249 . S
Mg140 O141 2.028 . S
Mg140 O147 1.986 . S
Mg140 O149 2.114 . S
Mg140 O150 2.251 . S
Mg140 O153 2.010 1_455 S
O141 Mg140 2.028 . S
O141 C144 1.250 . S
O142 Mg143 2.028 . S
O142 C144 1.248 . S
Mg143 O142 2.028 . S
Mg143 O148 2.032 . S
Mg143 O150 2.079 . S
C144 O141 1.250 . S
C144 O142 1.248 . S
C145 O146 1.264 . S
C145 O153 1.249 . S
O146 C145 1.264 . S
O147 Mg140 1.986 . S
O147 C151 1.246 . S
O148 Mg143 2.032 . S
O148 C151 1.259 . S
O149 Mg140 2.114 . S
O149 C152 1.252 . S
O150 Mg140 2.251 . S
O150 Mg143 2.079 . S
O150 C152 1.273 . S
C151 O147 1.246 . S
C151 O148 1.259 . S
C152 O149 1.252 . S
C152 O150 1.273 . S
O153 Mg140 2.010 1_655 S
O153 C145 1.249 . S
Mg154 O155 2.028 . S
Mg154 O161 1.986 . S
Mg154 O163 2.114 . S
Mg154 O164 2.251 . S
Mg154 O167 2.010 . S
O155 Mg154 2.028 . S
O155 C158 1.250 . S
O156 Mg157 2.028 . S
O156 C158 1.248 . S
Mg157 O156 2.028 . S
Mg157 O162 2.032 . S
Mg157 O164 2.079 . S
C158 O155 1.250 . S
C158 O156 1.248 . S
C159 O160 1.264 . S
C159 O167 1.249 . S
O160 C159 1.264 . S
O161 Mg154 1.986 . S
O161 C165 1.246 . S
O162 Mg157 2.032 . S
O162 C165 1.259 . S
O163 Mg154 2.114 . S
O163 C166 1.252 . S
O164 Mg154 2.251 . S
O164 Mg157 2.079 . S
O164 C166 1.273 . S
C165 O161 1.246 . S
C165 O162 1.259 . S
C166 O163 1.252 . S
C166 O164 1.273 . S
O167 Mg154 2.010 . S
O167 C159 1.249 . S
Mg168 O169 2.028 . S
Mg168 O175 1.986 1_545 S
Mg168 O177 2.114 . S
Mg168 O178 2.251 . S
Mg168 O181 2.010 . S
O169 Mg168 2.028 . S
O169 C172 1.250 . S
O170 Mg171 2.028 . S
O170 C172 1.248 . S
Mg171 O170 2.028 . S
Mg171 O176 2.032 . S
Mg171 O178 2.079 . S
C172 O169 1.250 . S
C172 O170 1.248 . S
C173 O174 1.264 . S
C173 O181 1.249 . S
O174 C173 1.264 . S
O175 Mg168 1.986 1_565 S
O175 C179 1.246 . S
O176 Mg171 2.032 . S
O176 C179 1.259 1_545 S
O177 Mg168 2.114 . S
O177 C180 1.252 . S
O178 Mg168 2.251 . S
O178 Mg171 2.079 . S
O178 C180 1.273 . S
C179 O175 1.246 . S
C179 O176 1.259 1_565 S
C180 O177 1.252 . S
C180 O178 1.273 . S
O181 Mg168 2.010 . S
O181 C173 1.249 . S
Mg182 O183 2.028 . S
Mg182 O189 1.986 . S
Mg182 O191 2.114 . S
Mg182 O192 2.251 . S
Mg182 O195 2.010 1_655 S
O183 Mg182 2.028 . S
O183 C186 1.250 . S
O184 Mg185 2.028 . S
O184 C186 1.248 . S
Mg185 O184 2.028 . S
Mg185 O190 2.032 . S
Mg185 O192 2.079 . S
C186 O183 1.250 . S
C186 O184 1.248 . S
C187 O188 1.264 . S
C187 O195 1.249 . S
O188 C187 1.264 . S
O189 Mg182 1.986 . S
O189 C193 1.246 . S
O190 Mg185 2.032 . S
O190 C193 1.259 . S
O191 Mg182 2.114 . S
O191 C194 1.252 . S
O192 Mg182 2.251 . S
O192 Mg185 2.079 . S
O192 C194 1.273 . S
C193 O189 1.246 . S
C193 O190 1.259 . S
C194 O191 1.252 . S
C194 O192 1.273 . S
O195 Mg182 2.010 1_455 S
O195 C187 1.249 . S
Mg196 O197 2.028 . S
Mg196 O203 1.986 . S
Mg196 O205 2.114 . S
Mg196 O206 2.251 . S
Mg196 O209 2.010 . S
O197 Mg196 2.028 . S
O197 C200 1.250 . S
O198 Mg199 2.028 . S
O198 C200 1.248 . S
Mg199 O198 2.028 . S
Mg199 O204 2.032 . S
Mg199 O206 2.079 . S
C200 O197 1.250 . S
C200 O198 1.248 . S
C201 O202 1.264 . S
C201 O209 1.249 . S
O202 C201 1.264 . S
O203 Mg196 1.986 . S
O203 C207 1.246 . S
O204 Mg199 2.032 . S
O204 C207 1.259 . S
O205 Mg196 2.114 . S
O205 C208 1.252 . S
O206 Mg196 2.251 . S
O206 Mg199 2.079 . S
O206 C208 1.273 . S
C207 O203 1.246 . S
C207 O204 1.259 . S
C208 O205 1.252 . S
C208 O206 1.273 . S
O209 Mg196 2.010 . S
O209 C201 1.249 . S
Mg210 O211 2.028 . S
Mg210 O217 1.986 . S
Mg210 O219 2.114 . S
Mg210 O220 2.251 . S
Mg210 O223 2.010 . S
O211 Mg210 2.028 . S
O211 C214 1.250 . S
O212 Mg213 2.028 . S
O212 C214 1.248 . S
Mg213 O212 2.028 . S
Mg213 O218 2.032 . S
Mg213 O220 2.079 . S
C214 O211 1.250 . S
C214 O212 1.248 . S
C215 O216 1.264 . S
C215 O223 1.249 . S
O216 C215 1.264 . S
O217 Mg210 1.986 . S
O217 C221 1.246 . S
O218 Mg213 2.032 . S
O218 C221 1.259 . S
O219 Mg210 2.114 . S
O219 C222 1.252 . S
O220 Mg210 2.251 . S
O220 Mg213 2.079 . S
O220 C222 1.273 . S
C221 O217 1.246 . S
C221 O218 1.259 . S
C222 O219 1.252 . S
C222 O220 1.273 . S
O223 Mg210 2.010 . S
O223 C215 1.249 . S
Mg224 O225 2.028 . S
Mg224 O231 1.986 1_545 S
Mg224 O233 2.114 . S
Mg224 O234 2.251 . S
Mg224 O237 2.010 . S
O225 Mg224 2.028 . S
O225 C228 1.250 . S
O226 Mg227 2.028 . S
O226 C228 1.248 . S
Mg227 O226 2.028 . S
Mg227 O232 2.012 1_545 S
Mg227 O234 2.079 . S
C228 O225 1.250 . S
C228 O226 1.248 . S
C229 O230 1.264 . S
C229 O237 1.249 . S
O230 C229 1.264 . S
O231 Mg224 1.986 1_565 S
O231 C235 1.246 . S
O232 Mg227 2.012 1_565 S
O232 C235 1.262 . S
O233 Mg224 2.114 . S
O233 C236 1.252 . S
O234 Mg224 2.251 . S
O234 Mg227 2.079 . S
O234 C236 1.273 . S
C235 O231 1.246 . S
C235 O232 1.262 . S
C236 O233 1.252 . S
C236 O234 1.273 . S
O237 Mg224 2.010 . S
O237 C229 1.249 . S
Mg238 O239 2.028 . S
Mg238 O245 1.986 . S
Mg238 O247 2.114 . S
Mg238 O248 2.251 . S
Mg238 O251 2.010 1_655 S
O239 Mg238 2.028 . S
O239 C242 1.250 . S
O240 Mg241 2.028 . S
O240 C242 1.248 . S
Mg241 O240 2.028 . S
Mg241 O246 2.032 . S
Mg241 O248 2.079 . S
C242 O239 1.250 . S
C242 O240 1.248 . S
C243 O244 1.264 . S
C243 O251 1.249 . S
O244 C243 1.264 . S
O245 Mg238 1.986 . S
O245 C249 1.246 . S
O246 Mg241 2.032 . S
O246 C249 1.259 . S
O247 Mg238 2.114 . S
O247 C250 1.252 . S
O248 Mg238 2.251 . S
O248 Mg241 2.079 . S
O248 C250 1.273 . S
C249 O245 1.246 . S
C249 O246 1.259 . S
C250 O247 1.252 . S
C250 O248 1.273 . S
O251 Mg238 2.010 1_455 S
O251 C243 1.249 . S
H252 C279 0.929 . S
N253 C278 1.433 . S
N253 C284 1.435 . S
N253 C290 1.423 . S
H254 C280 0.930 . S
H255 C283 0.931 . S
H256 C282 0.929 . S
H257 C285 0.930 . S
H258 C286 0.932 . S
H259 C289 0.929 . S
H260 C288 0.931 . S
H261 C291 0.929 . S
H262 C295 0.932 . S
H263 C292 0.931 . S
H264 C294 0.929 . S
H265 C297 0.929 . S
H266 C298 0.930 . S
H267 C300 0.929 . S
H268 C301 0.931 . S
H269 C303 0.930 . S
H270 C304 0.932 . S
H271 C306 0.931 . S
H272 C307 0.929 . S
H273 C309 0.929 . S
H274 C310 0.931 . S
H275 C312 0.929 . S
N276 C296 1.433 . S
N276 C302 1.435 . S
N276 C308 1.423 . S
H277 C313 0.932 . S
C278 N253 1.433 . S
C278 C279 1.363 . S
C278 C283 1.370 . S
C279 H252 0.929 . S
C279 C278 1.363 . S
C279 C280 1.385 . S
C280 H254 0.930 . S
C280 C279 1.385 . S
C280 C281 1.357 . S
C281 C280 1.357 . S
C281 C282 1.406 . S
C282 H256 0.929 . S
C282 C281 1.406 . S
C282 C283 1.391 . S
C283 H255 0.931 . S
C283 C278 1.370 . S
C283 C282 1.391 . S
C284 N253 1.435 . S
C284 C285 1.358 . S
C284 C289 1.371 . S
C285 H257 0.930 . S
C285 C284 1.358 . S
C285 C286 1.405 . S
C286 H258 0.932 . S
C286 C285 1.405 . S
C286 C287 1.383 . S
C287 C286 1.383 . S
C287 C288 1.393 . S
C288 H260 0.931 . S
C288 C287 1.393 . S
C288 C289 1.382 . S
C289 H259 0.929 . S
C289 C284 1.371 . S
C289 C288 1.382 . S
C290 N253 1.423 . S
C290 C291 1.362 . S
C290 C295 1.388 . S
C291 H261 0.929 . S
C291 C290 1.362 . S
C291 C292 1.376 . S
C292 H263 0.931 . S
C292 C291 1.376 . S
C292 C293 1.396 . S
C293 C292 1.396 . S
C293 C294 1.348 . S
C293 C311 1.472 . S
C294 H264 0.929 . S
C294 C293 1.348 . S
C294 C295 1.443 . S
C295 H262 0.932 . S
C295 C290 1.388 . S
C295 C294 1.443 . S
C296 N276 1.433 . S
C296 C297 1.363 . S
C296 C301 1.370 . S
C297 H265 0.929 . S
C297 C296 1.363 . S
C297 C298 1.385 . S
C298 H266 0.930 . S
C298 C297 1.385 . S
C298 C299 1.357 . S
C299 C298 1.357 . S
C299 C300 1.406 . S
C300 H267 0.929 . S
C300 C299 1.406 . S
C300 C301 1.391 . S
C301 H268 0.931 . S
C301 C296 1.370 . S
C301 C300 1.391 . S
C302 N276 1.435 . S
C302 C303 1.358 . S
C302 C307 1.371 . S
C303 H269 0.930 . S
C303 C302 1.358 . S
C303 C304 1.405 . S
C304 H270 0.932 . S
C304 C303 1.405 . S
C304 C305 1.383 . S
C305 C304 1.383 . S
C305 C306 1.393 . S
C306 H271 0.931 . S
C306 C305 1.393 . S
C306 C307 1.382 . S
C307 H272 0.929 . S
C307 C302 1.371 . S
C307 C306 1.382 . S
C308 N276 1.423 . S
C308 C309 1.362 . S
C308 C313 1.388 . S
C309 H273 0.929 . S
C309 C308 1.362 . S
C309 C310 1.376 . S
C310 H274 0.931 . S
C310 C309 1.376 . S
C310 C311 1.396 . S
C311 C293 1.472 . S
C311 C310 1.396 . S
C311 C312 1.348 . S
C312 H275 0.929 . S
C312 C311 1.348 . S
C312 C313 1.443 . S
C313 H277 0.932 . S
C313 C308 1.388 . S
C313 C312 1.443 . S
H314 C341 0.929 . S
N315 C340 1.433 . S
N315 C346 1.435 . S
N315 C352 1.423 . S
H316 C342 0.930 . S
H317 C345 0.931 . S
H318 C344 0.929 . S
H319 C347 0.930 . S
H320 C348 0.932 . S
H321 C351 0.929 . S
H322 C350 0.931 . S
H323 C353 0.929 . S
H324 C357 0.932 . S
H325 C354 0.931 . S
H326 C356 0.929 . S
H327 C359 0.929 . S
H328 C360 0.930 . S
H329 C362 0.929 . S
H330 C363 0.931 . S
H331 C365 0.930 . S
H332 C366 0.932 . S
H333 C368 0.931 . S
H334 C369 0.929 . S
H335 C371 0.929 . S
H336 C372 0.931 . S
H337 C374 0.929 . S
N338 C358 1.433 . S
N338 C364 1.435 . S
N338 C370 1.423 . S
H339 C375 0.932 . S
C340 N315 1.433 . S
C340 C341 1.363 . S
C340 C345 1.370 . S
C341 H314 0.929 . S
C341 C340 1.363 . S
C341 C342 1.385 . S
C342 H316 0.930 . S
C342 C341 1.385 . S
C342 C343 1.357 . S
C343 C342 1.357 . S
C343 C344 1.406 . S
C344 H318 0.929 . S
C344 C343 1.406 . S
C344 C345 1.391 . S
C345 H317 0.931 . S
C345 C340 1.370 . S
C345 C344 1.391 . S
C346 N315 1.435 . S
C346 C347 1.358 . S
C346 C351 1.371 . S
C347 H319 0.930 . S
C347 C346 1.358 . S
C347 C348 1.405 . S
C348 H320 0.932 . S
C348 C347 1.405 . S
C348 C349 1.383 . S
C349 C348 1.383 . S
C349 C350 1.393 . S
C350 H322 0.931 . S
C350 C349 1.393 . S
C350 C351 1.382 . S
C351 H321 0.929 . S
C351 C346 1.371 . S
C351 C350 1.382 . S
C352 N315 1.423 . S
C352 C353 1.362 . S
C352 C357 1.388 . S
C353 H323 0.929 . S
C353 C352 1.362 . S
C353 C354 1.376 . S
C354 H325 0.931 . S
C354 C353 1.376 . S
C354 C355 1.396 . S
C355 C354 1.396 . S
C355 C356 1.348 . S
C355 C373 1.472 . S
C356 H326 0.929 . S
C356 C355 1.348 . S
C356 C357 1.443 . S
C357 H324 0.932 . S
C357 C352 1.388 . S
C357 C356 1.443 . S
C358 N338 1.433 . S
C358 C359 1.363 . S
C358 C363 1.370 . S
C359 H327 0.929 . S
C359 C358 1.363 . S
C359 C360 1.385 . S
C360 H328 0.930 . S
C360 C359 1.385 . S
C360 C361 1.357 . S
C361 C360 1.357 . S
C361 C362 1.406 . S
C362 H329 0.929 . S
C362 C361 1.406 . S
C362 C363 1.391 . S
C363 H330 0.931 . S
C363 C358 1.370 . S
C363 C362 1.391 . S
C364 N338 1.435 . S
C364 C365 1.358 . S
C364 C369 1.371 . S
C365 H331 0.930 . S
C365 C364 1.358 . S
C365 C366 1.405 . S
C366 H332 0.932 . S
C366 C365 1.405 . S
C366 C367 1.383 . S
C367 C366 1.383 . S
C367 C368 1.393 . S
C368 H333 0.931 . S
C368 C367 1.393 . S
C368 C369 1.382 . S
C369 H334 0.929 . S
C369 C364 1.371 . S
C369 C368 1.382 . S
C370 N338 1.423 . S
C370 C371 1.362 . S
C370 C375 1.388 . S
C371 H335 0.929 . S
C371 C370 1.362 . S
C371 C372 1.376 . S
C372 H336 0.931 . S
C372 C371 1.376 . S
C372 C373 1.396 . S
C373 C355 1.472 . S
C373 C372 1.396 . S
C373 C374 1.348 . S
C374 H337 0.929 . S
C374 C373 1.348 . S
C374 C375 1.443 . S
C375 H339 0.932 . S
C375 C370 1.388 . S
C375 C374 1.443 . S
H376 C403 0.929 . S
N377 C402 1.433 . S
N377 C408 1.435 . S
N377 C414 1.423 . S
H378 C404 0.930 . S
H379 C407 0.931 . S
H380 C406 0.929 . S
H381 C409 0.930 . S
H382 C410 0.932 . S
H383 C413 0.929 . S
H384 C412 0.931 . S
H385 C415 0.929 . S
H386 C419 0.932 . S
H387 C416 0.931 . S
H388 C418 0.929 . S
H389 C421 0.929 . S
H390 C422 0.930 . S
H391 C424 0.929 . S
H392 C425 0.931 . S
H393 C427 0.930 . S
H394 C428 0.932 . S
H395 C430 0.931 . S
H396 C431 0.929 . S
H397 C433 0.929 . S
H398 C434 0.931 . S
H399 C436 0.929 . S
N400 C420 1.433 . S
N400 C426 1.435 . S
N400 C432 1.423 . S
H401 C437 0.932 . S
C402 N377 1.433 . S
C402 C403 1.363 . S
C402 C407 1.370 . S
C403 H376 0.929 . S
C403 C402 1.363 . S
C403 C404 1.385 . S
C404 H378 0.930 . S
C404 C403 1.385 . S
C404 C405 1.357 . S
C405 C404 1.357 . S
C405 C406 1.406 . S
C406 H380 0.929 . S
C406 C405 1.406 . S
C406 C407 1.391 . S
C407 H379 0.931 . S
C407 C402 1.370 . S
C407 C406 1.391 . S
C408 N377 1.435 . S
C408 C409 1.358 . S
C408 C413 1.371 . S
C409 H381 0.930 . S
C409 C408 1.358 . S
C409 C410 1.405 . S
C410 H382 0.932 . S
C410 C409 1.405 . S
C410 C411 1.383 . S
C411 C410 1.383 . S
C411 C412 1.393 . S
C412 H384 0.931 . S
C412 C411 1.393 . S
C412 C413 1.382 . S
C413 H383 0.929 . S
C413 C408 1.371 . S
C413 C412 1.382 . S
C414 N377 1.423 . S
C414 C415 1.362 . S
C414 C419 1.388 . S
C415 H385 0.929 . S
C415 C414 1.362 . S
C415 C416 1.376 . S
C416 H387 0.931 . S
C416 C415 1.376 . S
C416 C417 1.396 . S
C417 C416 1.396 . S
C417 C418 1.348 . S
C417 C435 1.472 . S
C418 H388 0.929 . S
C418 C417 1.348 . S
C418 C419 1.443 . S
C419 H386 0.932 . S
C419 C414 1.388 . S
C419 C418 1.443 . S
C420 N400 1.433 . S
C420 C421 1.363 . S
C420 C425 1.370 . S
C421 H389 0.929 . S
C421 C420 1.363 . S
C421 C422 1.385 . S
C422 H390 0.930 . S
C422 C421 1.385 . S
C422 C423 1.357 . S
C423 C422 1.357 . S
C423 C424 1.406 . S
C424 H391 0.929 . S
C424 C423 1.406 . S
C424 C425 1.391 . S
C425 H392 0.931 . S
C425 C420 1.370 . S
C425 C424 1.391 . S
C426 N400 1.435 . S
C426 C427 1.358 . S
C426 C431 1.371 . S
C427 H393 0.930 . S
C427 C426 1.358 . S
C427 C428 1.405 . S
C428 H394 0.932 . S
C428 C427 1.405 . S
C428 C429 1.383 . S
C429 C428 1.383 . S
C429 C430 1.393 . S
C430 H395 0.931 . S
C430 C429 1.393 . S
C430 C431 1.382 . S
C431 H396 0.929 . S
C431 C426 1.371 . S
C431 C430 1.382 . S
C432 N400 1.423 . S
C432 C433 1.362 . S
C432 C437 1.388 . S
C433 H397 0.929 . S
C433 C432 1.362 . S
C433 C434 1.376 . S
C434 H398 0.931 . S
C434 C433 1.376 . S
C434 C435 1.396 . S
C435 C417 1.472 . S
C435 C434 1.396 . S
C435 C436 1.348 . S
C436 H399 0.929 . S
C436 C435 1.348 . S
C436 C437 1.443 . S
C437 H401 0.932 . S
C437 C432 1.388 . S
C437 C436 1.443 . S
H438 C465 0.929 . S
N439 C464 1.433 . S
N439 C470 1.435 . S
N439 C476 1.423 . S
H440 C466 0.930 . S
H441 C469 0.931 . S
H442 C468 0.929 . S
H443 C471 0.930 . S
H444 C472 0.932 . S
H445 C475 0.929 . S
H446 C474 0.931 1_554 S
H447 C477 0.929 . S
H448 C481 0.932 . S
H449 C478 0.931 . S
H450 C480 0.929 . S
H451 C483 0.929 . S
H452 C484 0.930 . S
H453 C486 0.929 . S
H454 C487 0.931 . S
H455 C489 0.930 . S
H456 C490 0.932 . S
H457 C492 0.931 1_554 S
H458 C493 0.929 . S
H459 C495 0.929 . S
H460 C496 0.931 . S
H461 C498 0.929 . S
N462 C482 1.433 . S
N462 C488 1.435 . S
N462 C494 1.423 . S
H463 C499 0.932 . S
C464 N439 1.433 . S
C464 C465 1.363 . S
C464 C469 1.370 . S
C465 H438 0.929 . S
C465 C464 1.363 . S
C465 C466 1.385 . S
C466 H440 0.930 . S
C466 C465 1.385 . S
C466 C467 1.357 . S
C467 C466 1.357 . S
C467 C468 1.406 . S
C468 H442 0.929 . S
C468 C467 1.406 . S
C468 C469 1.391 . S
C469 H441 0.931 . S
C469 C464 1.370 . S
C469 C468 1.391 . S
C470 N439 1.435 . S
C470 C471 1.358 . S
C470 C475 1.371 . S
C471 H443 0.930 . S
C471 C470 1.358 . S
C471 C472 1.405 . S
C472 H444 0.932 . S
C472 C471 1.405 . S
C472 C473 1.383 . S
C473 C472 1.383 . S
C473 C474 1.393 . S
C474 H446 0.931 1_556 S
C474 C473 1.393 . S
C474 C475 1.382 . S
C475 H445 0.929 . S
C475 C470 1.371 . S
C475 C474 1.382 . S
C476 N439 1.423 . S
C476 C477 1.362 . S
C476 C481 1.388 . S
C477 H447 0.929 . S
C477 C476 1.362 . S
C477 C478 1.376 . S
C478 H449 0.931 . S
C478 C477 1.376 . S
C478 C479 1.396 . S
C479 C478 1.396 . S
C479 C480 1.348 . S
C479 C497 1.472 . S
C480 H450 0.929 . S
C480 C479 1.348 . S
C480 C481 1.443 . S
C481 H448 0.932 . S
C481 C476 1.388 . S
C481 C480 1.443 . S
C482 N462 1.433 . S
C482 C483 1.363 . S
C482 C487 1.370 . S
C483 H451 0.929 . S
C483 C482 1.363 . S
C483 C484 1.385 . S
C484 H452 0.930 . S
C484 C483 1.385 . S
C484 C485 1.357 . S
C485 C484 1.357 . S
C485 C486 1.406 . S
C486 H453 0.929 . S
C486 C485 1.406 . S
C486 C487 1.391 . S
C487 H454 0.931 . S
C487 C482 1.370 . S
C487 C486 1.391 . S
C488 N462 1.435 . S
C488 C489 1.358 . S
C488 C493 1.371 . S
C489 H455 0.930 . S
C489 C488 1.358 . S
C489 C490 1.405 . S
C490 H456 0.932 . S
C490 C489 1.405 . S
C490 C491 1.383 . S
C491 C490 1.383 . S
C491 C492 1.393 . S
C492 H457 0.931 1_556 S
C492 C491 1.393 . S
C492 C493 1.382 . S
C493 H458 0.929 . S
C493 C488 1.371 . S
C493 C492 1.382 . S
C494 N462 1.423 . S
C494 C495 1.362 . S
C494 C499 1.388 . S
C495 H459 0.929 . S
C495 C494 1.362 . S
C495 C496 1.376 . S
C496 H460 0.931 . S
C496 C495 1.376 . S
C496 C497 1.396 . S
C497 C479 1.472 . S
C497 C496 1.396 . S
C497 C498 1.348 . S
C498 H461 0.929 . S
C498 C497 1.348 . S
C498 C499 1.443 . S
C499 H463 0.932 . S
C499 C494 1.388 . S
C499 C498 1.443 . S
H500 C527 0.929 . S
N501 C526 1.433 . S
N501 C532 1.435 . S
N501 C538 1.423 . S
H502 C528 0.930 . S
H503 C531 0.931 . S
H504 C530 0.929 . S
H505 C533 0.930 . S
H506 C534 0.932 . S
H507 C537 0.929 . S
H508 C536 0.931 1_554 S
H509 C539 0.929 . S
H510 C543 0.932 . S
H511 C540 0.931 . S
H512 C542 0.929 . S
H513 C545 0.929 . S
H514 C546 0.930 . S
H515 C548 0.929 . S
H516 C549 0.931 . S
H517 C551 0.930 . S
H518 C552 0.932 . S
H519 C554 0.931 1_554 S
H520 C555 0.929 . S
H521 C557 0.929 . S
H522 C558 0.931 . S
H523 C560 0.929 . S
N524 C544 1.433 . S
N524 C550 1.435 . S
N524 C556 1.423 . S
H525 C561 0.932 . S
C526 N501 1.433 . S
C526 C527 1.363 . S
C526 C531 1.370 . S
C527 H500 0.929 . S
C527 C526 1.363 . S
C527 C528 1.385 . S
C528 H502 0.930 . S
C528 C527 1.385 . S
C528 C529 1.357 . S
C529 C528 1.357 . S
C529 C530 1.406 . S
C530 H504 0.929 . S
C530 C529 1.406 . S
C530 C531 1.391 . S
C531 H503 0.931 . S
C531 C526 1.370 . S
C531 C530 1.391 . S
C532 N501 1.435 . S
C532 C533 1.358 . S
C532 C537 1.371 . S
C533 H505 0.930 . S
C533 C532 1.358 . S
C533 C534 1.405 . S
C534 H506 0.932 . S
C534 C533 1.405 . S
C534 C535 1.383 . S
C535 C534 1.383 . S
C535 C536 1.393 . S
C536 H508 0.931 1_556 S
C536 C535 1.393 . S
C536 C537 1.382 . S
C537 H507 0.929 . S
C537 C532 1.371 . S
C537 C536 1.382 . S
C538 N501 1.423 . S
C538 C539 1.362 . S
C538 C543 1.388 . S
C539 H509 0.929 . S
C539 C538 1.362 . S
C539 C540 1.376 . S
C540 H511 0.931 . S
C540 C539 1.376 . S
C540 C541 1.396 . S
C541 C540 1.396 . S
C541 C542 1.348 . S
C541 C559 1.472 . S
C542 H512 0.929 . S
C542 C541 1.348 . S
C542 C543 1.443 . S
C543 H510 0.932 . S
C543 C538 1.388 . S
C543 C542 1.443 . S
C544 N524 1.433 . S
C544 C545 1.363 . S
C544 C549 1.370 . S
C545 H513 0.929 . S
C545 C544 1.363 . S
C545 C546 1.385 . S
C546 H514 0.930 . S
C546 C545 1.385 . S
C546 C547 1.357 . S
C547 C546 1.357 . S
C547 C548 1.406 . S
C548 H515 0.929 . S
C548 C547 1.406 . S
C548 C549 1.391 . S
C549 H516 0.931 . S
C549 C544 1.370 . S
C549 C548 1.391 . S
C550 N524 1.435 . S
C550 C551 1.358 . S
C550 C555 1.371 . S
C551 H517 0.930 . S
C551 C550 1.358 . S
C551 C552 1.405 . S
C552 H518 0.932 . S
C552 C551 1.405 . S
C552 C553 1.383 . S
C553 C552 1.383 . S
C553 C554 1.393 . S
C554 H519 0.931 1_556 S
C554 C553 1.393 . S
C554 C555 1.382 . S
C555 H520 0.929 . S
C555 C550 1.371 . S
C555 C554 1.382 . S
C556 N524 1.423 . S
C556 C557 1.362 . S
C556 C561 1.388 . S
C557 H521 0.929 . S
C557 C556 1.362 . S
C557 C558 1.376 . S
C558 H522 0.931 . S
C558 C557 1.376 . S
C558 C559 1.396 . S
C559 C541 1.472 . S
C559 C558 1.396 . S
C559 C560 1.348 . S
C560 H523 0.929 . S
C560 C559 1.348 . S
C560 C561 1.443 . S
C561 H525 0.932 . S
C561 C556 1.388 . S
C561 C560 1.443 . S
H562 C589 0.929 . S
N563 C588 1.433 . S
N563 C594 1.435 . S
N563 C600 1.423 . S
H564 C590 0.930 . S
H565 C593 0.931 . S
H566 C592 0.929 . S
H567 C595 0.930 . S
H568 C596 0.932 . S
H569 C599 0.929 . S
H570 C598 0.931 1_554 S
H571 C601 0.929 . S
H572 C605 0.932 . S
H573 C602 0.931 . S
H574 C604 0.929 . S
H575 C607 0.929 . S
H576 C608 0.930 . S
H577 C610 0.929 . S
H578 C611 0.931 . S
H579 C613 0.930 . S
H580 C614 0.932 . S
H581 C616 0.931 1_554 S
H582 C617 0.929 . S
H583 C619 0.929 . S
H584 C620 0.931 . S
H585 C622 0.929 . S
N586 C606 1.433 . S
N586 C612 1.435 . S
N586 C618 1.423 . S
H587 C623 0.932 . S
C588 N563 1.433 . S
C588 C589 1.363 . S
C588 C593 1.370 . S
C589 H562 0.929 . S
C589 C588 1.363 . S
C589 C590 1.385 . S
C590 H564 0.930 . S
C590 C589 1.385 . S
C590 C591 1.357 . S
C591 C590 1.357 . S
C591 C592 1.406 . S
C592 H566 0.929 . S
C592 C591 1.406 . S
C592 C593 1.391 . S
C593 H565 0.931 . S
C593 C588 1.370 . S
C593 C592 1.391 . S
C594 N563 1.435 . S
C594 C595 1.358 . S
C594 C599 1.371 . S
C595 H567 0.930 . S
C595 C594 1.358 . S
C595 C596 1.405 . S
C596 H568 0.932 . S
C596 C595 1.405 . S
C596 C597 1.383 . S
C597 C596 1.383 . S
C597 C598 1.393 . S
C598 H570 0.931 1_556 S
C598 C597 1.393 . S
C598 C599 1.382 . S
C599 H569 0.929 . S
C599 C594 1.371 . S
C599 C598 1.382 . S
C600 N563 1.423 . S
C600 C601 1.362 . S
C600 C605 1.388 . S
C601 H571 0.929 . S
C601 C600 1.362 . S
C601 C602 1.376 . S
C602 H573 0.931 . S
C602 C601 1.376 . S
C602 C603 1.396 . S
C603 C602 1.396 . S
C603 C604 1.348 . S
C603 C621 1.472 . S
C604 H574 0.929 . S
C604 C603 1.348 . S
C604 C605 1.443 . S
C605 H572 0.932 . S
C605 C600 1.388 . S
C605 C604 1.443 . S
C606 N586 1.433 . S
C606 C607 1.363 . S
C606 C611 1.370 . S
C607 H575 0.929 . S
C607 C606 1.363 . S
C607 C608 1.385 . S
C608 H576 0.930 . S
C608 C607 1.385 . S
C608 C609 1.357 . S
C609 C608 1.357 . S
C609 C610 1.406 . S
C610 H577 0.929 . S
C610 C609 1.406 . S
C610 C611 1.391 . S
C611 H578 0.931 . S
C611 C606 1.370 . S
C611 C610 1.391 . S
C612 N586 1.435 . S
C612 C613 1.358 . S
C612 C617 1.371 . S
C613 H579 0.930 . S
C613 C612 1.358 . S
C613 C614 1.405 . S
C614 H580 0.932 . S
C614 C613 1.405 . S
C614 C615 1.383 . S
C615 C614 1.383 . S
C615 C616 1.393 . S
C616 H581 0.931 1_556 S
C616 C615 1.393 . S
C616 C617 1.382 . S
C617 H582 0.929 . S
C617 C612 1.371 . S
C617 C616 1.382 . S
C618 N586 1.423 . S
C618 C619 1.362 . S
C618 C623 1.388 . S
C619 H583 0.929 . S
C619 C618 1.362 . S
C619 C620 1.376 . S
C620 H584 0.931 . S
C620 C619 1.376 . S
C620 C621 1.396 . S
C621 C603 1.472 . S
C621 C620 1.396 . S
C621 C622 1.348 . S
C622 H585 0.929 . S
C622 C621 1.348 . S
C622 C623 1.443 . S
C623 H587 0.932 . S
C623 C618 1.388 . S
C623 C622 1.443 . S
H624 C651 0.929 . S
N625 C650 1.433 . S
N625 C656 1.435 . S
N625 C662 1.423 . S
H626 C652 0.930 . S
H627 C655 0.931 . S
H628 C654 0.929 . S
H629 C657 0.930 . S
H630 C658 0.932 . S
H631 C661 0.929 . S
H632 C660 0.931 . S
H633 C663 0.929 . S
H634 C667 0.932 . S
H635 C664 0.931 . S
H636 C666 0.929 . S
H637 C669 0.929 . S
H638 C670 0.930 . S
H639 C672 0.929 . S
H640 C673 0.931 . S
H641 C675 0.930 . S
H642 C676 0.932 . S
H643 C678 0.931 . S
H644 C679 0.929 . S
H645 C681 0.929 . S
H646 C682 0.931 . S
H647 C684 0.929 . S
N648 C668 1.433 . S
N648 C674 1.435 . S
N648 C680 1.423 . S
H649 C685 0.932 . S
C650 N625 1.433 . S
C650 C651 1.363 . S
C650 C655 1.370 . S
C651 H624 0.929 . S
C651 C650 1.363 . S
C651 C652 1.385 . S
C652 H626 0.930 . S
C652 C651 1.385 . S
C652 C653 1.357 . S
C653 C652 1.357 . S
C653 C654 1.406 . S
C654 H628 0.929 . S
C654 C653 1.406 . S
C654 C655 1.391 . S
C655 H627 0.931 . S
C655 C650 1.370 . S
C655 C654 1.391 . S
C656 N625 1.435 . S
C656 C657 1.358 . S
C656 C661 1.371 . S
C657 H629 0.930 . S
C657 C656 1.358 . S
C657 C658 1.405 . S
C658 H630 0.932 . S
C658 C657 1.405 . S
C658 C659 1.383 . S
C659 C658 1.383 . S
C659 C660 1.393 . S
C660 H632 0.931 . S
C660 C659 1.393 . S
C660 C661 1.382 . S
C661 H631 0.929 . S
C661 C656 1.371 . S
C661 C660 1.382 . S
C662 N625 1.423 . S
C662 C663 1.362 . S
C662 C667 1.388 . S
C663 H633 0.929 . S
C663 C662 1.362 . S
C663 C664 1.376 . S
C664 H635 0.931 . S
C664 C663 1.376 . S
C664 C665 1.396 . S
C665 C664 1.396 . S
C665 C666 1.348 . S
C665 C683 1.472 . S
C666 H636 0.929 . S
C666 C665 1.348 . S
C666 C667 1.443 . S
C667 H634 0.932 . S
C667 C662 1.388 . S
C667 C666 1.443 . S
C668 N648 1.433 . S
C668 C669 1.363 . S
C668 C673 1.370 . S
C669 H637 0.929 . S
C669 C668 1.363 . S
C669 C670 1.385 . S
C670 H638 0.930 . S
C670 C669 1.385 . S
C670 C671 1.357 . S
C671 C670 1.357 . S
C671 C672 1.406 . S
C672 H639 0.929 . S
C672 C671 1.406 . S
C672 C673 1.391 . S
C673 H640 0.931 . S
C673 C668 1.370 . S
C673 C672 1.391 . S
C674 N648 1.435 . S
C674 C675 1.358 . S
C674 C679 1.371 . S
C675 H641 0.930 . S
C675 C674 1.358 . S
C675 C676 1.405 . S
C676 H642 0.932 . S
C676 C675 1.405 . S
C676 C677 1.383 . S
C677 C676 1.383 . S
C677 C678 1.393 . S
C678 H643 0.931 . S
C678 C677 1.393 . S
C678 C679 1.382 . S
C679 H644 0.929 . S
C679 C674 1.371 . S
C679 C678 1.382 . S
C680 N648 1.423 . S
C680 C681 1.362 . S
C680 C685 1.388 . S
C681 H645 0.929 . S
C681 C680 1.362 . S
C681 C682 1.376 . S
C682 H646 0.931 . S
C682 C681 1.376 . S
C682 C683 1.396 . S
C683 C665 1.472 . S
C683 C682 1.396 . S
C683 C684 1.348 . S
C684 H647 0.929 . S
C684 C683 1.348 . S
C684 C685 1.443 . S
C685 H649 0.932 . S
C685 C680 1.388 . S
C685 C684 1.443 . S
H686 C713 0.929 . S
N687 C712 1.433 . S
N687 C718 1.435 . S
N687 C724 1.423 . S
H688 C714 0.930 . S
H689 C717 0.931 . S
H690 C716 0.929 . S
H691 C719 0.930 . S
H692 C720 0.932 . S
H693 C723 0.929 . S
H694 C722 0.931 . S
H695 C725 0.929 . S
H696 C729 0.932 . S
H697 C726 0.931 . S
H698 C728 0.929 . S
H699 C731 0.929 . S
H700 C732 0.930 . S
H701 C734 0.929 . S
H702 C735 0.931 . S
H703 C737 0.930 . S
H704 C738 0.932 . S
H705 C740 0.931 . S
H706 C741 0.929 . S
H707 C743 0.929 . S
H708 C744 0.931 . S
H709 C746 0.929 . S
N710 C730 1.433 . S
N710 C736 1.435 . S
N710 C742 1.423 . S
H711 C747 0.932 . S
C712 N687 1.433 . S
C712 C713 1.363 . S
C712 C717 1.370 . S
C713 H686 0.929 . S
C713 C712 1.363 . S
C713 C714 1.385 . S
C714 H688 0.930 . S
C714 C713 1.385 . S
C714 C715 1.357 . S
C715 C714 1.357 . S
C715 C716 1.406 . S
C716 H690 0.929 . S
C716 C715 1.406 . S
C716 C717 1.391 . S
C717 H689 0.931 . S
C717 C712 1.370 . S
C717 C716 1.391 . S
C718 N687 1.435 . S
C718 C719 1.358 . S
C718 C723 1.371 . S
C719 H691 0.930 . S
C719 C718 1.358 . S
C719 C720 1.405 . S
C720 H692 0.932 . S
C720 C719 1.405 . S
C720 C721 1.383 . S
C721 C720 1.383 . S
C721 C722 1.393 . S
C722 H694 0.931 . S
C722 C721 1.393 . S
C722 C723 1.382 . S
C723 H693 0.929 . S
C723 C718 1.371 . S
C723 C722 1.382 . S
C724 N687 1.423 . S
C724 C725 1.362 . S
C724 C729 1.388 . S
C725 H695 0.929 . S
C725 C724 1.362 . S
C725 C726 1.376 . S
C726 H697 0.931 . S
C726 C725 1.376 . S
C726 C727 1.396 . S
C727 C726 1.396 . S
C727 C728 1.348 . S
C727 C745 1.472 . S
C728 H698 0.929 . S
C728 C727 1.348 . S
C728 C729 1.443 . S
C729 H696 0.932 . S
C729 C724 1.388 . S
C729 C728 1.443 . S
C730 N710 1.433 . S
C730 C731 1.363 . S
C730 C735 1.370 . S
C731 H699 0.929 . S
C731 C730 1.363 . S
C731 C732 1.385 . S
C732 H700 0.930 . S
C732 C731 1.385 . S
C732 C733 1.357 . S
C733 C732 1.357 . S
C733 C734 1.406 . S
C734 H701 0.929 . S
C734 C733 1.406 . S
C734 C735 1.391 . S
C735 H702 0.931 . S
C735 C730 1.370 . S
C735 C734 1.391 . S
C736 N710 1.435 . S
C736 C737 1.358 . S
C736 C741 1.371 . S
C737 H703 0.930 . S
C737 C736 1.358 . S
C737 C738 1.405 . S
C738 H704 0.932 . S
C738 C737 1.405 . S
C738 C739 1.383 . S
C739 C738 1.383 . S
C739 C740 1.393 . S
C740 H705 0.931 . S
C740 C739 1.393 . S
C740 C741 1.382 . S
C741 H706 0.929 . S
C741 C736 1.371 . S
C741 C740 1.382 . S
C742 N710 1.423 . S
C742 C743 1.362 . S
C742 C747 1.388 . S
C743 H707 0.929 . S
C743 C742 1.362 . S
C743 C744 1.376 . S
C744 H708 0.931 . S
C744 C743 1.376 . S
C744 C745 1.396 . S
C745 C727 1.472 . S
C745 C744 1.396 . S
C745 C746 1.348 . S
C746 H709 0.929 . S
C746 C745 1.348 . S
C746 C747 1.443 . S
C747 H711 0.932 . S
C747 C742 1.388 . S
C747 C746 1.443 . S
H748 C775 0.929 . S
N749 C774 1.433 . S
N749 C780 1.435 . S
N749 C786 1.423 . S
H750 C776 0.930 . S
H751 C779 0.931 . S
H752 C778 0.929 . S
H753 C781 0.930 . S
H754 C782 0.932 . S
H755 C785 0.929 . S
H756 C784 0.931 . S
H757 C787 0.929 . S
H758 C791 0.932 . S
H759 C788 0.931 . S
H760 C790 0.929 . S
H761 C793 0.929 . S
H762 C794 0.930 . S
H763 C796 0.929 . S
H764 C797 0.931 . S
H765 C799 0.930 . S
H766 C800 0.932 . S
H767 C802 0.931 . S
H768 C803 0.929 . S
H769 C805 0.929 . S
H770 C806 0.931 . S
H771 C808 0.929 . S
N772 C792 1.433 . S
N772 C798 1.435 . S
N772 C804 1.423 . S
H773 C809 0.932 . S
C774 N749 1.433 . S
C774 C775 1.363 . S
C774 C779 1.370 . S
C775 H748 0.929 . S
C775 C774 1.363 . S
C775 C776 1.385 . S
C776 H750 0.930 . S
C776 C775 1.385 . S
C776 C777 1.357 . S
C777 C776 1.357 . S
C777 C778 1.406 . S
C778 H752 0.929 . S
C778 C777 1.406 . S
C778 C779 1.391 . S
C779 H751 0.931 . S
C779 C774 1.370 . S
C779 C778 1.391 . S
C780 N749 1.435 . S
C780 C781 1.358 . S
C780 C785 1.371 . S
C781 H753 0.930 . S
C781 C780 1.358 . S
C781 C782 1.405 . S
C782 H754 0.932 . S
C782 C781 1.405 . S
C782 C783 1.383 . S
C783 C782 1.383 . S
C783 C784 1.393 . S
C784 H756 0.931 . S
C784 C783 1.393 . S
C784 C785 1.382 . S
C785 H755 0.929 . S
C785 C780 1.371 . S
C785 C784 1.382 . S
C786 N749 1.423 . S
C786 C787 1.362 . S
C786 C791 1.388 . S
C787 H757 0.929 . S
C787 C786 1.362 . S
C787 C788 1.376 . S
C788 H759 0.931 . S
C788 C787 1.376 . S
C788 C789 1.396 . S
C789 C788 1.396 . S
C789 C790 1.348 . S
C789 C807 1.472 . S
C790 H760 0.929 . S
C790 C789 1.348 . S
C790 C791 1.443 . S
C791 H758 0.932 . S
C791 C786 1.388 . S
C791 C790 1.443 . S
C792 N772 1.433 . S
C792 C793 1.363 . S
C792 C797 1.370 . S
C793 H761 0.929 . S
C793 C792 1.363 . S
C793 C794 1.385 . S
C794 H762 0.930 . S
C794 C793 1.385 . S
C794 C795 1.357 . S
C795 C794 1.357 . S
C795 C796 1.406 . S
C796 H763 0.929 . S
C796 C795 1.406 . S
C796 C797 1.391 . S
C797 H764 0.931 . S
C797 C792 1.370 . S
C797 C796 1.391 . S
C798 N772 1.435 . S
C798 C799 1.358 . S
C798 C803 1.371 . S
C799 H765 0.930 . S
C799 C798 1.358 . S
C799 C800 1.405 . S
C800 H766 0.932 . S
C800 C799 1.405 . S
C800 C801 1.383 . S
C801 C800 1.383 . S
C801 C802 1.393 . S
C802 H767 0.931 . S
C802 C801 1.393 . S
C802 C803 1.382 . S
C803 H768 0.929 . S
C803 C798 1.371 . S
C803 C802 1.382 . S
C804 N772 1.423 . S
C804 C805 1.362 . S
C804 C809 1.388 . S
C805 H769 0.929 . S
C805 C804 1.362 . S
C805 C806 1.376 . S
C806 H770 0.931 . S
C806 C805 1.376 . S
C806 C807 1.396 . S
C807 C789 1.472 . S
C807 C806 1.396 . S
C807 C808 1.348 . S
C808 H771 0.929 . S
C808 C807 1.348 . S
C808 C809 1.443 . S
C809 H773 0.932 . S
C809 C804 1.388 . S
C809 C808 1.443 . S
H810 C837 0.929 . S
N811 C836 1.433 . S
N811 C842 1.435 . S
N811 C848 1.423 . S
H812 C838 0.930 . S
H813 C841 0.931 . S
H814 C840 0.929 . S
H815 C843 0.930 . S
H816 C844 0.932 . S
H817 C847 0.929 . S
H818 C846 0.931 . S
H819 C849 0.929 . S
H820 C853 0.932 1_655 S
H821 C850 0.931 . S
H822 C852 0.929 . S
H823 C855 0.929 . S
H824 C856 0.930 . S
H825 C858 0.929 . S
H826 C859 0.931 . S
H827 C861 0.930 . S
H828 C862 0.932 . S
H829 C864 0.931 . S
H830 C865 0.929 . S
H831 C867 0.929 . S
H832 C868 0.931 . S
H833 C870 0.929 . S
N834 C854 1.433 . S
N834 C860 1.435 . S
N834 C866 1.423 . S
H835 C871 0.932 1_655 S
C836 N811 1.433 . S
C836 C837 1.363 . S
C836 C841 1.370 1_455 S
C837 H810 0.929 . S
C837 C836 1.363 . S
C837 C838 1.385 . S
C838 H812 0.930 . S
C838 C837 1.385 . S
C838 C839 1.357 1_455 S
C839 C838 1.357 1_655 S
C839 C840 1.406 . S
C840 H814 0.929 . S
C840 C839 1.406 . S
C840 C841 1.391 . S
C841 H813 0.931 . S
C841 C836 1.370 1_655 S
C841 C840 1.391 . S
C842 N811 1.435 . S
C842 C843 1.358 1_455 S
C842 C847 1.371 . S
C843 H815 0.930 . S
C843 C842 1.358 1_655 S
C843 C844 1.405 . S
C844 H816 0.932 . S
C844 C843 1.405 . S
C844 C845 1.383 1_655 S
C845 C844 1.383 1_455 S
C845 C846 1.393 . S
C846 H818 0.931 . S
C846 C845 1.393 . S
C846 C847 1.382 . S
C847 H817 0.929 . S
C847 C842 1.371 . S
C847 C846 1.382 . S
C848 N811 1.423 . S
C848 C849 1.362 . S
C848 C853 1.388 . S
C849 H819 0.929 . S
C849 C848 1.362 . S
C849 C850 1.376 . S
C850 H821 0.931 . S
C850 C849 1.376 . S
C850 C851 1.396 . S
C851 C850 1.396 . S
C851 C852 1.348 . S
C851 C869 1.472 . S
C852 H822 0.929 . S
C852 C851 1.348 . S
C852 C853 1.443 . S
C853 H820 0.932 1_455 S
C853 C848 1.388 . S
C853 C852 1.443 . S
C854 N834 1.433 . S
C854 C855 1.363 . S
C854 C859 1.370 1_455 S
C855 H823 0.929 . S
C855 C854 1.363 . S
C855 C856 1.385 . S
C856 H824 0.930 . S
C856 C855 1.385 . S
C856 C857 1.357 1_455 S
C857 C856 1.357 1_655 S
C857 C858 1.406 . S
C858 H825 0.929 . S
C858 C857 1.406 . S
C858 C859 1.391 . S
C859 H826 0.931 . S
C859 C854 1.370 1_655 S
C859 C858 1.391 . S
C860 N834 1.435 . S
C860 C861 1.358 1_455 S
C860 C865 1.371 . S
C861 H827 0.930 . S
C861 C860 1.358 1_655 S
C861 C862 1.405 . S
C862 H828 0.932 . S
C862 C861 1.405 . S
C862 C863 1.383 1_655 S
C863 C862 1.383 1_455 S
C863 C864 1.393 . S
C864 H829 0.931 . S
C864 C863 1.393 . S
C864 C865 1.382 . S
C865 H830 0.929 . S
C865 C860 1.371 . S
C865 C864 1.382 . S
C866 N834 1.423 . S
C866 C867 1.362 . S
C866 C871 1.388 . S
C867 H831 0.929 . S
C867 C866 1.362 . S
C867 C868 1.376 . S
C868 H832 0.931 . S
C868 C867 1.376 . S
C868 C869 1.396 . S
C869 C851 1.472 . S
C869 C868 1.396 . S
C869 C870 1.348 . S
C870 H833 0.929 . S
C870 C869 1.348 . S
C870 C871 1.443 . S
C871 H835 0.932 1_455 S
C871 C866 1.388 . S
C871 C870 1.443 . S
H872 C899 0.929 . S
N873 C898 1.433 . S
N873 C904 1.435 . S
N873 C910 1.423 . S
H874 C900 0.930 . S
H875 C903 0.931 . S
H876 C902 0.929 . S
H877 C905 0.930 . S
H878 C906 0.932 . S
H879 C909 0.929 . S
H880 C908 0.931 . S
H881 C911 0.929 . S
H882 C915 0.932 . S
H883 C912 0.931 . S
H884 C914 0.929 . S
H885 C917 0.929 . S
H886 C918 0.930 . S
H887 C920 0.929 . S
H888 C921 0.931 . S
H889 C923 0.930 . S
H890 C924 0.932 . S
H891 C926 0.931 . S
H892 C927 0.929 . S
H893 C929 0.929 . S
H894 C930 0.931 . S
H895 C932 0.929 . S
N896 C916 1.433 . S
N896 C922 1.435 . S
N896 C928 1.423 . S
H897 C933 0.932 . S
C898 N873 1.433 . S
C898 C899 1.363 . S
C898 C903 1.370 . S
C899 H872 0.929 . S
C899 C898 1.363 . S
C899 C900 1.385 . S
C900 H874 0.930 . S
C900 C899 1.385 . S
C900 C901 1.357 . S
C901 C900 1.357 . S
C901 C902 1.406 . S
C902 H876 0.929 . S
C902 C901 1.406 . S
C902 C903 1.391 . S
C903 H875 0.931 . S
C903 C898 1.370 . S
C903 C902 1.391 . S
C904 N873 1.435 . S
C904 C905 1.358 . S
C904 C909 1.371 . S
C905 H877 0.930 . S
C905 C904 1.358 . S
C905 C906 1.405 . S
C906 H878 0.932 . S
C906 C905 1.405 . S
C906 C907 1.383 . S
C907 C906 1.383 . S
C907 C908 1.393 . S
C908 H880 0.931 . S
C908 C907 1.393 . S
C908 C909 1.382 . S
C909 H879 0.929 . S
C909 C904 1.371 . S
C909 C908 1.382 . S
C910 N873 1.423 . S
C910 C911 1.362 . S
C910 C915 1.388 . S
C911 H881 0.929 . S
C911 C910 1.362 . S
C911 C912 1.376 . S
C912 H883 0.931 . S
C912 C911 1.376 . S
C912 C913 1.396 . S
C913 C912 1.396 . S
C913 C914 1.348 . S
C913 C931 1.472 . S
C914 H884 0.929 . S
C914 C913 1.348 . S
C914 C915 1.443 . S
C915 H882 0.932 . S
C915 C910 1.388 . S
C915 C914 1.443 . S
C916 N896 1.433 . S
C916 C917 1.363 . S
C916 C921 1.370 . S
C917 H885 0.929 . S
C917 C916 1.363 . S
C917 C918 1.385 . S
C918 H886 0.930 . S
C918 C917 1.385 . S
C918 C919 1.357 . S
C919 C918 1.357 . S
C919 C920 1.406 . S
C920 H887 0.929 . S
C920 C919 1.406 . S
C920 C921 1.391 . S
C921 H888 0.931 . S
C921 C916 1.370 . S
C921 C920 1.391 . S
C922 N896 1.435 . S
C922 C923 1.358 . S
C922 C927 1.371 . S
C923 H889 0.930 . S
C923 C922 1.358 . S
C923 C924 1.405 . S
C924 H890 0.932 . S
C924 C923 1.405 . S
C924 C925 1.383 . S
C925 C924 1.383 . S
C925 C926 1.393 . S
C926 H891 0.931 . S
C926 C925 1.393 . S
C926 C927 1.382 . S
C927 H892 0.929 . S
C927 C922 1.371 . S
C927 C926 1.382 . S
C928 N896 1.423 . S
C928 C929 1.362 . S
C928 C933 1.388 . S
C929 H893 0.929 . S
C929 C928 1.362 . S
C929 C930 1.376 . S
C930 H894 0.931 . S
C930 C929 1.376 . S
C930 C931 1.396 . S
C931 C913 1.472 . S
C931 C930 1.396 . S
C931 C932 1.348 . S
C932 H895 0.929 . S
C932 C931 1.348 . S
C932 C933 1.443 . S
C933 H897 0.932 . S
C933 C928 1.388 . S
C933 C932 1.443 . S
H934 C961 0.929 . S
N935 C960 1.433 . S
N935 C966 1.435 . S
N935 C972 1.423 . S
H936 C962 0.930 . S
H937 C965 0.931 . S
H938 C964 0.929 . S
H939 C967 0.930 . S
H940 C968 0.932 . S
H941 C971 0.929 . S
H942 C970 0.931 . S
H943 C973 0.929 . S
H944 C977 0.932 1_545 S
H945 C974 0.931 . S
H946 C976 0.929 . S
H947 C979 0.929 . S
H948 C980 0.930 . S
H949 C982 0.929 . S
H950 C983 0.931 . S
H951 C985 0.930 . S
H952 C986 0.932 . S
H953 C988 0.931 . S
H954 C989 0.929 . S
H955 C991 0.929 . S
H956 C992 0.931 . S
H957 C994 0.929 . S
N958 C978 1.433 . S
N958 C984 1.435 . S
N958 C990 1.423 . S
H959 C995 0.932 1_545 S
C960 N935 1.433 . S
C960 C961 1.363 . S
C960 C965 1.370 1_565 S
C961 H934 0.929 . S
C961 C960 1.363 . S
C961 C962 1.385 . S
C962 H936 0.930 . S
C962 C961 1.385 . S
C962 C963 1.357 1_565 S
C963 C962 1.357 1_545 S
C963 C964 1.406 . S
C964 H938 0.929 . S
C964 C963 1.406 . S
C964 C965 1.391 . S
C965 H937 0.931 . S
C965 C960 1.370 1_545 S
C965 C964 1.391 . S
C966 N935 1.435 . S
C966 C967 1.358 1_565 S
C966 C971 1.371 . S
C967 H939 0.930 . S
C967 C966 1.358 1_545 S
C967 C968 1.405 . S
C968 H940 0.932 . S
C968 C967 1.405 . S
C968 C969 1.383 1_545 S
C969 C968 1.383 1_565 S
C969 C970 1.393 . S
C970 H942 0.931 . S
C970 C969 1.393 . S
C970 C971 1.382 . S
C971 H941 0.929 . S
C971 C966 1.371 . S
C971 C970 1.382 . S
C972 N935 1.423 . S
C972 C973 1.362 . S
C972 C977 1.388 . S
C973 H943 0.929 . S
C973 C972 1.362 . S
C973 C974 1.376 . S
C974 H945 0.931 . S
C974 C973 1.376 . S
C974 C975 1.396 . S
C975 C974 1.396 . S
C975 C976 1.348 . S
C975 C993 1.472 . S
C976 H946 0.929 . S
C976 C975 1.348 . S
C976 C977 1.443 . S
C977 H944 0.932 1_565 S
C977 C972 1.388 . S
C977 C976 1.443 . S
C978 N958 1.433 . S
C978 C979 1.363 . S
C978 C983 1.370 1_565 S
C979 H947 0.929 . S
C979 C978 1.363 . S
C979 C980 1.385 . S
C980 H948 0.930 . S
C980 C979 1.385 . S
C980 C981 1.357 1_565 S
C981 C980 1.357 1_545 S
C981 C982 1.406 . S
C982 H949 0.929 . S
C982 C981 1.406 . S
C982 C983 1.391 . S
C983 H950 0.931 . S
C983 C978 1.370 1_545 S
C983 C982 1.391 . S
C984 N958 1.435 . S
C984 C985 1.358 1_565 S
C984 C989 1.371 . S
C985 H951 0.930 . S
C985 C984 1.358 1_545 S
C985 C986 1.405 . S
C986 H952 0.932 . S
C986 C985 1.405 . S
C986 C987 1.383 1_545 S
C987 C986 1.383 1_565 S
C987 C988 1.393 . S
C988 H953 0.931 . S
C988 C987 1.393 . S
C988 C989 1.382 . S
C989 H954 0.929 . S
C989 C984 1.371 . S
C989 C988 1.382 . S
C990 N958 1.423 . S
C990 C991 1.362 . S
C990 C995 1.388 . S
C991 H955 0.929 . S
C991 C990 1.362 . S
C991 C992 1.376 . S
C992 H956 0.931 . S
C992 C991 1.376 . S
C992 C993 1.396 . S
C993 C975 1.472 . S
C993 C992 1.396 . S
C993 C994 1.348 . S
C994 H957 0.929 . S
C994 C993 1.348 . S
C994 C995 1.443 . S
C995 H959 0.932 1_565 S
C995 C990 1.388 . S
C995 C994 1.443 . S
H996 C1023 0.929 . S
N997 C1022 1.433 . S
N997 C1028 1.435 . S
N997 C1034 1.423 . S
H998 C1024 0.930 . S
H999 C1027 0.930 . S
H1000 C1026 0.932 . S
H1001 C1029 0.930 . S
H1002 C1030 0.932 . S
H1003 C1033 0.929 . S
H1004 C1032 0.931 . S
H1005 C1035 0.929 . S
H1006 C1039 0.932 . S
H1007 C1036 0.931 . S
H1008 C1038 0.923 1_545 S
H1009 C1041 0.929 . S
H1010 C1042 0.930 . S
H1011 C1044 0.957 . S
H1012 C1045 0.965 . S
H1013 C1047 0.930 . S
H1014 C1048 0.932 . S
H1015 C1050 0.931 . S
H1016 C1051 0.929 . S
H1017 C1053 0.929 . S
H1018 C1054 0.931 . S
H1019 C1056 0.916 1_545 S
N1020 C1040 1.433 . S
N1020 C1046 1.435 . S
N1020 C1052 1.423 . S
H1021 C1057 0.932 . S
C1022 N997 1.433 . S
C1022 C1023 1.363 . S
C1022 C1027 1.368 1_565 S
C1023 H996 0.929 . S
C1023 C1022 1.363 . S
C1023 C1024 1.385 . S
C1024 H998 0.930 . S
C1024 C1023 1.385 . S
C1024 C1025 1.357 . S
C1025 C1024 1.357 . S
C1025 C1026 1.407 1_565 S
C1026 H1000 0.932 . S
C1026 C1025 1.407 1_545 S
C1026 C1027 1.392 . S
C1027 H999 0.930 . S
C1027 C1022 1.368 1_545 S
C1027 C1026 1.392 . S
C1028 N997 1.435 . S
C1028 C1029 1.358 1_565 S
C1028 C1033 1.371 . S
C1029 H1001 0.930 . S
C1029 C1028 1.358 1_545 S
C1029 C1030 1.405 . S
C1030 H1002 0.932 . S
C1030 C1029 1.405 . S
C1030 C1031 1.383 . S
C1031 C1030 1.383 . S
C1031 C1032 1.393 1_545 S
C1032 H1004 0.931 . S
C1032 C1031 1.393 1_565 S
C1032 C1033 1.382 . S
C1033 H1003 0.929 . S
C1033 C1028 1.371 . S
C1033 C1032 1.382 . S
C1034 N997 1.423 . S
C1034 C1035 1.362 . S
C1034 C1039 1.388 1_565 S
C1035 H1005 0.929 . S
C1035 C1034 1.362 . S
C1035 C1036 1.376 . S
C1036 H1007 0.931 . S
C1036 C1035 1.376 . S
C1036 C1037 1.396 . S
C1037 C1036 1.396 . S
C1037 C1038 1.368 . S
C1037 C1055 1.472 . S
C1038 H1008 0.923 1_565 S
C1038 C1037 1.368 . S
C1038 C1039 1.428 1_565 S
C1039 H1006 0.932 . S
C1039 C1034 1.388 1_545 S
C1039 C1038 1.428 1_545 S
C1040 N1020 1.433 . S
C1040 C1041 1.363 . S
C1040 C1045 1.345 1_565 S
C1041 H1009 0.929 . S
C1041 C1040 1.363 . S
C1041 C1042 1.385 . S
C1042 H1010 0.930 . S
C1042 C1041 1.385 . S
C1042 C1043 1.357 . S
C1043 C1042 1.357 . S
C1043 C1044 1.371 1_565 S
C1044 H1011 0.957 . S
C1044 C1043 1.371 1_545 S
C1044 C1045 1.392 . S
C1045 H1012 0.965 . S
C1045 C1040 1.345 1_545 S
C1045 C1044 1.392 . S
C1046 N1020 1.435 . S
C1046 C1047 1.358 1_565 S
C1046 C1051 1.371 . S
C1047 H1013 0.930 . S
C1047 C1046 1.358 1_545 S
C1047 C1048 1.405 . S
C1048 H1014 0.932 . S
C1048 C1047 1.405 . S
C1048 C1049 1.383 . S
C1049 C1048 1.383 . S
C1049 C1050 1.393 1_545 S
C1050 H1015 0.931 . S
C1050 C1049 1.393 1_565 S
C1050 C1051 1.382 . S
C1051 H1016 0.929 . S
C1051 C1046 1.371 . S
C1051 C1050 1.382 . S
C1052 N1020 1.423 . S
C1052 C1053 1.362 . S
C1052 C1057 1.388 1_565 S
C1053 H1017 0.929 . S
C1053 C1052 1.362 . S
C1053 C1054 1.376 . S
C1054 H1018 0.931 . S
C1054 C1053 1.376 . S
C1054 C1055 1.396 . S
C1055 C1037 1.472 . S
C1055 C1054 1.396 . S
C1055 C1056 1.353 . S
C1056 H1019 0.916 1_565 S
C1056 C1055 1.353 . S
C1056 C1057 1.450 1_565 S
C1057 H1021 0.932 . S
C1057 C1052 1.388 1_545 S
C1057 C1056 1.450 1_545 S
H1058 C1085 0.929 . S
N1059 C1084 1.433 . S
N1059 C1090 1.435 . S
N1059 C1096 1.423 . S
H1060 C1086 0.930 . S
H1061 C1089 0.931 . S
H1062 C1088 0.929 . S
H1063 C1091 0.930 . S
H1064 C1092 0.932 . S
H1065 C1095 0.929 . S
H1066 C1094 0.931 . S
H1067 C1097 0.929 . S
H1068 C1101 0.932 1_455 S
H1069 C1098 0.931 . S
H1070 C1100 0.929 . S
H1071 C1103 0.929 . S
H1072 C1104 0.930 . S
H1073 C1106 0.929 . S
H1074 C1107 0.931 . S
H1075 C1109 0.930 . S
H1076 C1110 0.932 . S
H1077 C1112 0.931 . S
H1078 C1113 0.929 . S
H1079 C1115 0.929 . S
H1080 C1116 0.931 . S
H1081 C1118 0.929 . S
N1082 C1102 1.433 . S
N1082 C1108 1.435 . S
N1082 C1114 1.423 . S
H1083 C1119 0.932 1_455 S
C1084 N1059 1.433 . S
C1084 C1085 1.363 . S
C1084 C1089 1.370 1_655 S
C1085 H1058 0.929 . S
C1085 C1084 1.363 . S
C1085 C1086 1.385 . S
C1086 H1060 0.930 . S
C1086 C1085 1.385 . S
C1086 C1087 1.357 1_655 S
C1087 C1086 1.357 1_455 S
C1087 C1088 1.406 . S
C1088 H1062 0.929 . S
C1088 C1087 1.406 . S
C1088 C1089 1.391 . S
C1089 H1061 0.931 . S
C1089 C1084 1.370 1_455 S
C1089 C1088 1.391 . S
C1090 N1059 1.435 . S
C1090 C1091 1.358 1_655 S
C1090 C1095 1.371 . S
C1091 H1063 0.930 . S
C1091 C1090 1.358 1_455 S
C1091 C1092 1.405 . S
C1092 H1064 0.932 . S
C1092 C1091 1.405 . S
C1092 C1093 1.383 1_455 S
C1093 C1092 1.383 1_655 S
C1093 C1094 1.393 . S
C1094 H1066 0.931 . S
C1094 C1093 1.393 . S
C1094 C1095 1.382 . S
C1095 H1065 0.929 . S
C1095 C1090 1.371 . S
C1095 C1094 1.382 . S
C1096 N1059 1.423 . S
C1096 C1097 1.362 . S
C1096 C1101 1.388 . S
C1097 H1067 0.929 . S
C1097 C1096 1.362 . S
C1097 C1098 1.376 . S
C1098 H1069 0.931 . S
C1098 C1097 1.376 . S
C1098 C1099 1.396 . S
C1099 C1098 1.396 . S
C1099 C1100 1.348 . S
C1099 C1117 1.472 . S
C1100 H1070 0.929 . S
C1100 C1099 1.348 . S
C1100 C1101 1.443 . S
C1101 H1068 0.932 1_655 S
C1101 C1096 1.388 . S
C1101 C1100 1.443 . S
C1102 N1082 1.433 . S
C1102 C1103 1.363 . S
C1102 C1107 1.370 1_655 S
C1103 H1071 0.929 . S
C1103 C1102 1.363 . S
C1103 C1104 1.385 . S
C1104 H1072 0.930 . S
C1104 C1103 1.385 . S
C1104 C1105 1.357 1_655 S
C1105 C1104 1.357 1_455 S
C1105 C1106 1.406 . S
C1106 H1073 0.929 . S
C1106 C1105 1.406 . S
C1106 C1107 1.391 . S
C1107 H1074 0.931 . S
C1107 C1102 1.370 1_455 S
C1107 C1106 1.391 . S
C1108 N1082 1.435 . S
C1108 C1109 1.358 1_655 S
C1108 C1113 1.371 . S
C1109 H1075 0.930 . S
C1109 C1108 1.358 1_455 S
C1109 C1110 1.405 . S
C1110 H1076 0.932 . S
C1110 C1109 1.405 . S
C1110 C1111 1.383 1_455 S
C1111 C1110 1.383 1_655 S
C1111 C1112 1.393 . S
C1112 H1077 0.931 . S
C1112 C1111 1.393 . S
C1112 C1113 1.382 . S
C1113 H1078 0.929 . S
C1113 C1108 1.371 . S
C1113 C1112 1.382 . S
C1114 N1082 1.423 . S
C1114 C1115 1.362 . S
C1114 C1119 1.388 . S
C1115 H1079 0.929 . S
C1115 C1114 1.362 . S
C1115 C1116 1.376 . S
C1116 H1080 0.931 . S
C1116 C1115 1.376 . S
C1116 C1117 1.396 . S
C1117 C1099 1.472 . S
C1117 C1116 1.396 . S
C1117 C1118 1.348 . S
C1118 H1081 0.929 . S
C1118 C1117 1.348 . S
C1118 C1119 1.443 . S
C1119 H1083 0.932 1_655 S
C1119 C1114 1.388 . S
C1119 C1118 1.443 . S
H1120 C1147 0.929 . S
N1121 C1146 1.433 . S
N1121 C1152 1.435 . S
N1121 C1158 1.423 . S
H1122 C1148 0.930 . S
H1123 C1151 0.931 . S
H1124 C1150 0.929 . S
H1125 C1153 0.930 . S
H1126 C1154 0.932 . S
H1127 C1157 0.929 . S
H1128 C1156 0.931 . S
H1129 C1159 0.929 . S
H1130 C1163 0.932 . S
H1131 C1160 0.931 . S
H1132 C1162 0.929 . S
H1133 C1165 0.929 . S
H1134 C1166 0.930 . S
H1135 C1168 0.929 . S
H1136 C1169 0.931 . S
H1137 C1171 0.930 . S
H1138 C1172 0.932 . S
H1139 C1174 0.931 . S
H1140 C1175 0.929 . S
H1141 C1177 0.929 . S
H1142 C1178 0.931 . S
H1143 C1180 0.929 . S
N1144 C1164 1.433 . S
N1144 C1170 1.435 . S
N1144 C1176 1.423 . S
H1145 C1181 0.932 . S
C1146 N1121 1.433 . S
C1146 C1147 1.363 . S
C1146 C1151 1.370 . S
C1147 H1120 0.929 . S
C1147 C1146 1.363 . S
C1147 C1148 1.385 . S
C1148 H1122 0.930 . S
C1148 C1147 1.385 . S
C1148 C1149 1.357 . S
C1149 C1148 1.357 . S
C1149 C1150 1.406 . S
C1150 H1124 0.929 . S
C1150 C1149 1.406 . S
C1150 C1151 1.391 . S
C1151 H1123 0.931 . S
C1151 C1146 1.370 . S
C1151 C1150 1.391 . S
C1152 N1121 1.435 . S
C1152 C1153 1.358 . S
C1152 C1157 1.371 . S
C1153 H1125 0.930 . S
C1153 C1152 1.358 . S
C1153 C1154 1.405 . S
C1154 H1126 0.932 . S
C1154 C1153 1.405 . S
C1154 C1155 1.383 . S
C1155 C1154 1.383 . S
C1155 C1156 1.393 . S
C1156 H1128 0.931 . S
C1156 C1155 1.393 . S
C1156 C1157 1.382 . S
C1157 H1127 0.929 . S
C1157 C1152 1.371 . S
C1157 C1156 1.382 . S
C1158 N1121 1.423 . S
C1158 C1159 1.362 . S
C1158 C1163 1.388 . S
C1159 H1129 0.929 . S
C1159 C1158 1.362 . S
C1159 C1160 1.376 . S
C1160 H1131 0.931 . S
C1160 C1159 1.376 . S
C1160 C1161 1.396 . S
C1161 C1160 1.396 . S
C1161 C1162 1.348 . S
C1161 C1179 1.472 . S
C1162 H1132 0.929 . S
C1162 C1161 1.348 . S
C1162 C1163 1.443 . S
C1163 H1130 0.932 . S
C1163 C1158 1.388 . S
C1163 C1162 1.443 . S
C1164 N1144 1.433 . S
C1164 C1165 1.363 . S
C1164 C1169 1.370 . S
C1165 H1133 0.929 . S
C1165 C1164 1.363 . S
C1165 C1166 1.385 . S
C1166 H1134 0.930 . S
C1166 C1165 1.385 . S
C1166 C1167 1.357 . S
C1167 C1166 1.357 . S
C1167 C1168 1.406 . S
C1168 H1135 0.929 . S
C1168 C1167 1.406 . S
C1168 C1169 1.391 . S
C1169 H1136 0.931 . S
C1169 C1164 1.370 . S
C1169 C1168 1.391 . S
C1170 N1144 1.435 . S
C1170 C1171 1.358 . S
C1170 C1175 1.371 . S
C1171 H1137 0.930 . S
C1171 C1170 1.358 . S
C1171 C1172 1.405 . S
C1172 H1138 0.932 . S
C1172 C1171 1.405 . S
C1172 C1173 1.383 . S
C1173 C1172 1.383 . S
C1173 C1174 1.393 . S
C1174 H1139 0.931 . S
C1174 C1173 1.393 . S
C1174 C1175 1.382 . S
C1175 H1140 0.929 . S
C1175 C1170 1.371 . S
C1175 C1174 1.382 . S
C1176 N1144 1.423 . S
C1176 C1177 1.362 . S
C1176 C1181 1.388 . S
C1177 H1141 0.929 . S
C1177 C1176 1.362 . S
C1177 C1178 1.376 . S
C1178 H1142 0.931 . S
C1178 C1177 1.376 . S
C1178 C1179 1.396 . S
C1179 C1161 1.472 . S
C1179 C1178 1.396 . S
C1179 C1180 1.348 . S
C1180 H1143 0.929 . S
C1180 C1179 1.348 . S
C1180 C1181 1.443 . S
C1181 H1145 0.932 . S
C1181 C1176 1.388 . S
C1181 C1180 1.443 . S
H1182 C1209 0.929 . S
N1183 C1208 1.433 . S
N1183 C1214 1.435 . S
N1183 C1220 1.423 . S
H1184 C1210 0.930 . S
H1185 C1213 0.931 . S
H1186 C1212 0.929 . S
H1187 C1215 0.930 . S
H1188 C1216 0.932 . S
H1189 C1219 0.929 . S
H1190 C1218 0.931 . S
H1191 C1221 0.929 . S
H1192 C1225 0.932 . S
H1193 C1222 0.931 . S
H1194 C1224 0.929 . S
H1195 C1227 0.929 . S
H1196 C1228 0.930 . S
H1197 C1230 0.929 . S
H1198 C1231 0.931 . S
H1199 C1233 0.930 . S
H1200 C1234 0.932 . S
H1201 C1236 0.931 . S
H1202 C1237 0.929 . S
H1203 C1239 0.929 . S
H1204 C1240 0.931 . S
H1205 C1242 0.929 . S
N1206 C1226 1.433 . S
N1206 C1232 1.435 . S
N1206 C1238 1.423 . S
H1207 C1243 0.932 . S
C1208 N1183 1.433 . S
C1208 C1209 1.363 . S
C1208 C1213 1.370 . S
C1209 H1182 0.929 . S
C1209 C1208 1.363 . S
C1209 C1210 1.385 . S
C1210 H1184 0.930 . S
C1210 C1209 1.385 . S
C1210 C1211 1.357 . S
C1211 C1210 1.357 . S
C1211 C1212 1.406 . S
C1212 H1186 0.929 . S
C1212 C1211 1.406 . S
C1212 C1213 1.391 . S
C1213 H1185 0.931 . S
C1213 C1208 1.370 . S
C1213 C1212 1.391 . S
C1214 N1183 1.435 . S
C1214 C1215 1.358 . S
C1214 C1219 1.371 . S
C1215 H1187 0.930 . S
C1215 C1214 1.358 . S
C1215 C1216 1.405 . S
C1216 H1188 0.932 . S
C1216 C1215 1.405 . S
C1216 C1217 1.383 . S
C1217 C1216 1.383 . S
C1217 C1218 1.393 . S
C1218 H1190 0.931 . S
C1218 C1217 1.393 . S
C1218 C1219 1.382 . S
C1219 H1189 0.929 . S
C1219 C1214 1.371 . S
C1219 C1218 1.382 . S
C1220 N1183 1.423 . S
C1220 C1221 1.362 . S
C1220 C1225 1.388 . S
C1221 H1191 0.929 . S
C1221 C1220 1.362 . S
C1221 C1222 1.376 . S
C1222 H1193 0.931 . S
C1222 C1221 1.376 . S
C1222 C1223 1.396 . S
C1223 C1222 1.396 . S
C1223 C1224 1.348 . S
C1223 C1241 1.472 . S
C1224 H1194 0.929 . S
C1224 C1223 1.348 . S
C1224 C1225 1.443 . S
C1225 H1192 0.932 . S
C1225 C1220 1.388 . S
C1225 C1224 1.443 . S
C1226 N1206 1.433 . S
C1226 C1227 1.363 . S
C1226 C1231 1.370 . S
C1227 H1195 0.929 . S
C1227 C1226 1.363 . S
C1227 C1228 1.385 . S
C1228 H1196 0.930 . S
C1228 C1227 1.385 . S
C1228 C1229 1.357 . S
C1229 C1228 1.357 . S
C1229 C1230 1.406 . S
C1230 H1197 0.929 . S
C1230 C1229 1.406 . S
C1230 C1231 1.391 . S
C1231 H1198 0.931 . S
C1231 C1226 1.370 . S
C1231 C1230 1.391 . S
C1232 N1206 1.435 . S
C1232 C1233 1.358 . S
C1232 C1237 1.371 . S
C1233 H1199 0.930 . S
C1233 C1232 1.358 . S
C1233 C1234 1.405 . S
C1234 H1200 0.932 . S
C1234 C1233 1.405 . S
C1234 C1235 1.383 . S
C1235 C1234 1.383 . S
C1235 C1236 1.393 . S
C1236 H1201 0.931 . S
C1236 C1235 1.393 . S
C1236 C1237 1.382 . S
C1237 H1202 0.929 . S
C1237 C1232 1.371 . S
C1237 C1236 1.382 . S
C1238 N1206 1.423 . S
C1238 C1239 1.362 . S
C1238 C1243 1.388 . S
C1239 H1203 0.929 . S
C1239 C1238 1.362 . S
C1239 C1240 1.376 . S
C1240 H1204 0.931 . S
C1240 C1239 1.376 . S
C1240 C1241 1.396 . S
C1241 C1223 1.472 . S
C1241 C1240 1.396 . S
C1241 C1242 1.348 . S
C1242 H1205 0.929 . S
C1242 C1241 1.348 . S
C1242 C1243 1.443 . S
C1243 H1207 0.932 . S
C1243 C1238 1.388 . S
C1243 C1242 1.443 . S
H1244 C1271 0.929 . S
N1245 C1270 1.433 . S
N1245 C1276 1.435 . S
N1245 C1282 1.423 . S
H1246 C1272 0.930 . S
H1247 C1275 0.931 . S
H1248 C1274 0.929 . S
H1249 C1277 0.930 . S
H1250 C1278 0.932 . S
H1251 C1281 0.929 . S
H1252 C1280 0.931 . S
H1253 C1283 0.929 . S
H1254 C1287 0.932 . S
H1255 C1284 0.931 . S
H1256 C1286 0.929 . S
H1257 C1289 0.929 . S
H1258 C1290 0.930 . S
H1259 C1292 0.929 . S
H1260 C1293 0.931 . S
H1261 C1295 0.930 . S
H1262 C1296 0.932 . S
H1263 C1298 0.931 . S
H1264 C1299 0.929 . S
H1265 C1301 0.929 . S
H1266 C1302 0.931 . S
H1267 C1304 0.929 . S
N1268 C1288 1.433 . S
N1268 C1294 1.435 . S
N1268 C1300 1.423 . S
H1269 C1305 0.932 . S
C1270 N1245 1.433 . S
C1270 C1271 1.363 . S
C1270 C1275 1.370 . S
C1271 H1244 0.929 . S
C1271 C1270 1.363 . S
C1271 C1272 1.385 . S
C1272 H1246 0.930 . S
C1272 C1271 1.385 . S
C1272 C1273 1.357 . S
C1273 C1272 1.357 . S
C1273 C1274 1.406 . S
C1274 H1248 0.929 . S
C1274 C1273 1.406 . S
C1274 C1275 1.391 . S
C1275 H1247 0.931 . S
C1275 C1270 1.370 . S
C1275 C1274 1.391 . S
C1276 N1245 1.435 . S
C1276 C1277 1.358 . S
C1276 C1281 1.371 . S
C1277 H1249 0.930 . S
C1277 C1276 1.358 . S
C1277 C1278 1.405 . S
C1278 H1250 0.932 . S
C1278 C1277 1.405 . S
C1278 C1279 1.383 . S
C1279 C1278 1.383 . S
C1279 C1280 1.393 . S
C1280 H1252 0.931 . S
C1280 C1279 1.393 . S
C1280 C1281 1.382 . S
C1281 H1251 0.929 . S
C1281 C1276 1.371 . S
C1281 C1280 1.382 . S
C1282 N1245 1.423 . S
C1282 C1283 1.362 . S
C1282 C1287 1.388 . S
C1283 H1253 0.929 . S
C1283 C1282 1.362 . S
C1283 C1284 1.376 . S
C1284 H1255 0.931 . S
C1284 C1283 1.376 . S
C1284 C1285 1.396 . S
C1285 C1284 1.396 . S
C1285 C1286 1.348 . S
C1285 C1303 1.472 . S
C1286 H1256 0.929 . S
C1286 C1285 1.348 . S
C1286 C1287 1.443 . S
C1287 H1254 0.932 . S
C1287 C1282 1.388 . S
C1287 C1286 1.443 . S
C1288 N1268 1.433 . S
C1288 C1289 1.363 . S
C1288 C1293 1.370 . S
C1289 H1257 0.929 . S
C1289 C1288 1.363 . S
C1289 C1290 1.385 . S
C1290 H1258 0.930 . S
C1290 C1289 1.385 . S
C1290 C1291 1.357 . S
C1291 C1290 1.357 . S
C1291 C1292 1.406 . S
C1292 H1259 0.929 . S
C1292 C1291 1.406 . S
C1292 C1293 1.391 . S
C1293 H1260 0.931 . S
C1293 C1288 1.370 . S
C1293 C1292 1.391 . S
C1294 N1268 1.435 . S
C1294 C1295 1.358 . S
C1294 C1299 1.371 . S
C1295 H1261 0.930 . S
C1295 C1294 1.358 . S
C1295 C1296 1.405 . S
C1296 H1262 0.932 . S
C1296 C1295 1.405 . S
C1296 C1297 1.383 . S
C1297 C1296 1.383 . S
C1297 C1298 1.393 . S
C1298 H1263 0.931 . S
C1298 C1297 1.393 . S
C1298 C1299 1.382 . S
C1299 H1264 0.929 . S
C1299 C1294 1.371 . S
C1299 C1298 1.382 . S
C1300 N1268 1.423 . S
C1300 C1301 1.362 . S
C1300 C1305 1.388 . S
C1301 H1265 0.929 . S
C1301 C1300 1.362 . S
C1301 C1302 1.376 . S
C1302 H1266 0.931 . S
C1302 C1301 1.376 . S
C1302 C1303 1.396 . S
C1303 C1285 1.472 . S
C1303 C1302 1.396 . S
C1303 C1304 1.348 . S
C1304 H1267 0.929 . S
C1304 C1303 1.348 . S
C1304 C1305 1.443 . S
C1305 H1269 0.932 . S
C1305 C1300 1.388 . S
C1305 C1304 1.443 . S
H1306 C1333 0.929 . S
N1307 C1332 1.433 . S
N1307 C1338 1.435 . S
N1307 C1344 1.423 . S
H1308 C1334 0.930 . S
H1309 C1337 0.931 . S
H1310 C1336 0.929 . S
H1311 C1339 0.930 . S
H1312 C1340 0.932 . S
H1313 C1343 0.929 . S
H1314 C1342 0.931 . S
H1315 C1345 0.929 . S
H1316 C1349 0.932 . S
H1317 C1346 0.931 . S
H1318 C1348 0.929 . S
H1319 C1351 0.929 . S
H1320 C1352 0.930 . S
H1321 C1354 0.929 . S
H1322 C1355 0.931 . S
H1323 C1357 0.930 . S
H1324 C1358 0.932 . S
H1325 C1360 0.931 . S
H1326 C1361 0.929 . S
H1327 C1363 0.929 . S
H1328 C1364 0.931 . S
H1329 C1366 0.929 . S
N1330 C1350 1.433 . S
N1330 C1356 1.435 . S
N1330 C1362 1.423 . S
H1331 C1367 0.932 . S
C1332 N1307 1.433 . S
C1332 C1333 1.363 . S
C1332 C1337 1.370 . S
C1333 H1306 0.929 . S
C1333 C1332 1.363 . S
C1333 C1334 1.385 . S
C1334 H1308 0.930 . S
C1334 C1333 1.385 . S
C1334 C1335 1.357 . S
C1335 C1334 1.357 . S
C1335 C1336 1.406 . S
C1336 H1310 0.929 . S
C1336 C1335 1.406 . S
C1336 C1337 1.391 . S
C1337 H1309 0.931 . S
C1337 C1332 1.370 . S
C1337 C1336 1.391 . S
C1338 N1307 1.435 . S
C1338 C1339 1.358 . S
C1338 C1343 1.371 . S
C1339 H1311 0.930 . S
C1339 C1338 1.358 . S
C1339 C1340 1.405 . S
C1340 H1312 0.932 . S
C1340 C1339 1.405 . S
C1340 C1341 1.383 . S
C1341 C1340 1.383 . S
C1341 C1342 1.393 . S
C1342 H1314 0.931 . S
C1342 C1341 1.393 . S
C1342 C1343 1.382 . S
C1343 H1313 0.929 . S
C1343 C1338 1.371 . S
C1343 C1342 1.382 . S
C1344 N1307 1.423 . S
C1344 C1345 1.362 . S
C1344 C1349 1.388 . S
C1345 H1315 0.929 . S
C1345 C1344 1.362 . S
C1345 C1346 1.376 . S
C1346 H1317 0.931 . S
C1346 C1345 1.376 . S
C1346 C1347 1.396 . S
C1347 C1346 1.396 . S
C1347 C1348 1.348 . S
C1347 C1365 1.472 . S
C1348 H1318 0.929 . S
C1348 C1347 1.348 . S
C1348 C1349 1.443 . S
C1349 H1316 0.932 . S
C1349 C1344 1.388 . S
C1349 C1348 1.443 . S
C1350 N1330 1.433 . S
C1350 C1351 1.363 . S
C1350 C1355 1.370 . S
C1351 H1319 0.929 . S
C1351 C1350 1.363 . S
C1351 C1352 1.385 . S
C1352 H1320 0.930 . S
C1352 C1351 1.385 . S
C1352 C1353 1.357 . S
C1353 C1352 1.357 . S
C1353 C1354 1.406 . S
C1354 H1321 0.929 . S
C1354 C1353 1.406 . S
C1354 C1355 1.391 . S
C1355 H1322 0.931 . S
C1355 C1350 1.370 . S
C1355 C1354 1.391 . S
C1356 N1330 1.435 . S
C1356 C1357 1.358 . S
C1356 C1361 1.371 . S
C1357 H1323 0.930 . S
C1357 C1356 1.358 . S
C1357 C1358 1.405 . S
C1358 H1324 0.932 . S
C1358 C1357 1.405 . S
C1358 C1359 1.383 . S
C1359 C1358 1.383 . S
C1359 C1360 1.393 . S
C1360 H1325 0.931 . S
C1360 C1359 1.393 . S
C1360 C1361 1.382 . S
C1361 H1326 0.929 . S
C1361 C1356 1.371 . S
C1361 C1360 1.382 . S
C1362 N1330 1.423 . S
C1362 C1363 1.362 . S
C1362 C1367 1.388 . S
C1363 H1327 0.929 . S
C1363 C1362 1.362 . S
C1363 C1364 1.376 . S
C1364 H1328 0.931 . S
C1364 C1363 1.376 . S
C1364 C1365 1.396 . S
C1365 C1347 1.472 . S
C1365 C1364 1.396 . S
C1365 C1366 1.348 . S
C1366 H1329 0.929 . S
C1366 C1365 1.348 . S
C1366 C1367 1.443 . S
C1367 H1331 0.932 . S
C1367 C1362 1.388 . S
C1367 C1366 1.443 . S
C4 C857 1.944 . S
C26 C901 1.768 . S
C981 C32 1.818 . S
C40 C1025 1.594 . S
C12 C1105 1.677 . S
C18 C1167 1.899 . S
C46 C1087 1.934 . S
C1149 C68 1.682 . S
C1043 C74 1.853 . S
C82 C963 1.559 . S
C839 C54 1.690 . S
C60 C919 1.937 . S
C88 C1229 2.008 . S
C110 C1273 1.833 . S
C1353 C116 1.905 . S
C124 C299 1.590 . S
C96 C343 1.761 . S
C102 C423 1.915 . S
C130 C361 2.051 . S
C152 C405 1.750 . S
C281 C158 1.897 . S
C1335 C166 1.610 . S
C1211 C138 1.699 . S
C1291 C144 2.001 . S
C172 C485 1.998 . S
C194 C547 1.738 . S
C200 C591 1.979 . S
C208 C653 1.675 . S
C715 C180 1.770 . S
C795 C186 1.943 . S
C733 C214 2.071 . S
C777 C236 1.741 . S
C242 C671 1.971 . S
C609 C250 1.653 . S
C222 C467 1.695 . S
C529 C228 1.931 . S
C305 C5 1.409 . S
C25 C349 1.973 . S
C429 C33 1.455 . S
C491 C39 1.693 . S
C553 C11 1.784 . S
C597 C19 1.424 1_556 S
C47 C615 1.491 1_554 S
C67 C473 1.846 . S
C75 C535 1.499 1_554 S
C81 C367 1.798 . S
C411 C53 1.795 . S
C61 C287 1.332 . S
C659 C89 1.482 . S
C109 C721 1.968 . S
C117 C801 1.445 . S
C863 C123 1.575 . S
C95 C907 1.824 . S
C103 C987 1.126 . S
C131 C969 1.110 . S
C151 C845 1.721 . S
C925 C159 1.497 . S
C165 C739 1.793 . S
C137 C783 1.775 . S
C677 C145 1.417 . S
C1031 C173 1.263 . S
C193 C1111 1.618 . S
C201 C1173 1.402 . S
C1235 C207 1.666 . S
C1279 C179 1.897 . S
C187 C1359 1.338 . S
C215 C1341 1.403 . S
C235 C1217 1.851 . S
C1297 C243 1.526 . S
C1093 C249 1.472 . S
C1155 C221 1.720 . S
C229 C1049 1.240 . S
