# Generated by pormake.
# Topology pth, (4,4)-cn, num edge types: 1
# Building blocks:
#     Node 0, Type 0, BuildingBlock: QUQFOY_clean_sbu_1, # of connection points: 4
#     Node 1, Type 0, BuildingBlock: QUQFOY_clean_sbu_1, # of connection points: 4
#     Node 2, Type 0, BuildingBlock: QUQFOY_clean_sbu_1, # of connection points: 4
#     Node 3, Type 1, BuildingBlock: NAWXER_clean_linker_0, # of connection points: 4
#     Node 4, Type 1, BuildingBlock: NAWXER_clean_linker_0, # of connection points: 4
#     Node 5, Type 1, BuildingBlock: NAWXER_clean_linker_0, # of connection points: 4
#     Edge 6, Type (0, 1), BuildingBlock: FUNLAD_clean_linker_1, # of connection points: 2
#     Edge 7, Type (0, 1), BuildingBlock: FUNLAD_clean_linker_1, # of connection points: 2
#     Edge 8, Type (0, 1), BuildingBlock: FUNLAD_clean_linker_1, # of connection points: 2
#     Edge 9, Type (0, 1), BuildingBlock: FUNLAD_clean_linker_1, # of connection points: 2
#     Edge 10, Type (0, 1), BuildingBlock: FUNLAD_clean_linker_1, # of connection points: 2
#     Edge 11, Type (0, 1), BuildingBlock: FUNLAD_clean_linker_1, # of connection points: 2
#     Edge 12, Type (0, 1), BuildingBlock: FUNLAD_clean_linker_1, # of connection points: 2
#     Edge 13, Type (0, 1), BuildingBlock: FUNLAD_clean_linker_1, # of connection points: 2
#     Edge 14, Type (0, 1), BuildingBlock: FUNLAD_clean_linker_1, # of connection points: 2
#     Edge 15, Type (0, 1), BuildingBlock: FUNLAD_clean_linker_1, # of connection points: 2
#     Edge 16, Type (0, 1), BuildingBlock: FUNLAD_clean_linker_1, # of connection points: 2
#     Edge 17, Type (0, 1), BuildingBlock: FUNLAD_clean_linker_1, # of connection points: 2
# Relax obj value: 0.022
# Max RMSD: 0.123
# Mean RMSD: 0.072
data_MOF--net-pth--node1-QUQFOY_clean_sbu_1--node2-NAWXER_clean_linker_0--edge1-FUNLAD_clean_linker_1
_symmetry_space_group_name_H-M    P1
_symmetry_Int_Tables_number       1
_symmetry_cell_setting            triclinic
loop_
_symmetry_equiv_pos_as_xyz
'x, y, z'
_cell_length_a     28.841562
_cell_length_b     31.17475
_cell_length_c     69.357615
_cell_angle_alpha  89.982965
_cell_angle_beta   89.993905
_cell_angle_gamma 120.18386
loop_
_atom_site_label
_atom_site_type_symbol
_atom_site_fract_x
_atom_site_fract_y
_atom_site_fract_z
_atom_type_partial_charge
O0 O 0.03775 0.08675 0.0671 0.0
Cd1 Cd 0.97363 0.04257 0.08475 0.0
Cd2 Cd 0.02269 0.98404 0.08152 0.0
O3 O 0.08298 0.04682 0.06814 0.0
O4 O 0.9441 0.08682 0.09074 0.0
O5 O 0.97986 0.06143 0.11296 0.0
C6 C 0.95874 0.08802 0.10834 0.0
C7 C 0.04133 0.93931 0.10419 0.0
C8 C 0.07864 0.0836 0.06267 0.0
C9 C 0.91161 0.94419 0.06481 0.0
O10 O 0.95378 0.94103 0.06589 0.0
O11 O 0.90961 0.9801 0.07263 0.0
O12 O 0.05188 0.93892 0.08618 0.0
O13 O 0.02246 0.96719 0.10965 0.0
O14 O 0.96704 0.05105 0.42966 0.0
Cd15 Cd 0.03296 0.0726 0.41198 0.0
Cd16 Cd 0.98938 0.97308 0.41018 0.0
O17 O 0.92311 0.97138 0.4223 0.0
O18 O 0.05944 0.14412 0.40668 0.0
O19 O 0.02651 0.08647 0.38396 0.0
C20 C 0.04588 0.1323 0.38894 0.0
C21 C 0.98427 0.927 0.38298 0.0
C22 C 0.92528 0.00835 0.43088 0.0
C23 C 0.09449 0.03077 0.4306 0.0
O24 O 0.05237 0.98875 0.42842 0.0
O25 O 0.09776 0.06953 0.42325 0.0
O26 O 0.96661 0.90598 0.3995 0.0
O27 O 1.00268 0.97419 0.38166 0.0
O28 O 0.92619 0.97716 0.73233 0.0
Cd29 Cd 0.96699 0.95117 0.74842 0.0
Cd30 Cd 0.03696 0.04957 0.75284 0.0
O31 O 0.9812 0.05742 0.73675 0.0
O32 O 0.91343 0.8807 0.75448 0.0
O33 O 0.95161 0.93895 0.77685 0.0
C34 C 0.91793 0.89339 0.77236 0.0
C35 C 0.07196 0.0923 0.78167 0.0
C36 C 0.93885 0.02201 0.72939 0.0
C37 C 0.07663 0.98984 0.73179 0.0
O38 O 0.08664 0.03221 0.73766 0.0
O39 O 0.03137 0.95141 0.73507 0.0
O40 O 0.08576 0.11477 0.76526 0.0
O41 O 0.03645 0.04563 0.78182 0.0
C42 C 0.96798 0.35241 0.27549 0.0
C43 C 0.0054 0.36263 0.29029 0.0
C44 C 0.96915 0.39087 0.26472 0.0
C45 C 0.00796 0.44049 0.26848 0.0
C46 C 0.04332 0.41253 0.29439 0.0
C47 C 0.0444 0.45099 0.28362 0.0
C48 C 0.00995 0.48166 0.25708 0.0
C49 C 0.05186 0.39238 0.21768 0.0
C50 C 0.01307 0.36703 0.20337 0.0
C51 C 0.05178 0.43041 0.22834 0.0
C52 C 0.0128 0.44391 0.22491 0.0
C53 C 0.97517 0.38184 0.19949 0.0
C54 C 0.97524 0.42002 0.21014 0.0
C55 C 0.0109 0.48272 0.23668 0.0
C56 C 0.05714 0.69125 0.22089 0.0
C57 C 0.02479 0.68349 0.20465 0.0
C58 C 0.05321 0.65115 0.23129 0.0
C59 C 0.01588 0.60216 0.22595 0.0
C60 C 0.98796 0.63433 0.1991 0.0
C61 C 0.9839 0.59414 0.20959 0.0
C62 C 0.01105 0.55943 0.23714 0.0
C63 C 0.95188 0.63527 0.27704 0.0
C64 C 0.98768 0.66128 0.29208 0.0
C65 C 0.9591 0.60212 0.26563 0.0
C66 C 1.00187 0.59379 0.26923 0.0
C67 C 0.03034 0.65268 0.29576 0.0
C68 C 0.03703 0.61886 0.28453 0.0
C69 C 0.00861 0.55758 0.25752 0.0
H70 H 0.93774 0.31447 0.27221 0.0
H71 H 0.93952 0.38182 0.2535 0.0
H72 H 0.07166 0.42229 0.30609 0.0
H73 H 0.07408 0.48904 0.28701 0.0
H74 H 0.08209 0.38243 0.22076 0.0
H75 H 0.08209 0.44916 0.23933 0.0
H76 H 0.94581 0.3646 0.18813 0.0
H77 H 0.94533 0.43036 0.20704 0.0
H78 H 0.08597 0.72857 0.2255 0.0
H79 H 0.07964 0.65853 0.24348 0.0
H80 H 0.96136 0.62651 0.18696 0.0
H81 H 0.95497 0.55673 0.20512 0.0
H82 H 0.91831 0.64072 0.27409 0.0
H83 H 0.93082 0.58243 0.25414 0.0
H84 H 0.05773 0.671 0.3076 0.0
H85 H 0.06983 0.61246 0.28771 0.0
N86 N 0.00885 0.51915 0.2667 0.0
N87 N 0.01139 0.52156 0.22749 0.0
C88 C 0.68189 0.05298 0.5505 0.0
C89 C 0.67064 0.01873 0.53553 0.0
C90 C 0.64091 0.04877 0.5626 0.0
C91 C 0.58809 0.00953 0.56015 0.0
C92 C 0.61775 0.97915 0.5333 0.0
C93 C 0.57696 0.97493 0.54539 0.0
C94 C 0.54319 1.00557 0.57185 0.0
C95 C 0.65214 0.98986 0.61545 0.0
C96 C 0.66197 0.01793 0.63239 0.0
C97 C 0.61449 0.98702 0.60197 0.0
C98 C 0.5875 0.0136 0.60492 0.0
C99 C 0.63494 0.04412 0.63537 0.0
C100 C 0.59861 0.04245 0.62171 0.0
C101 C 0.54311 0.0076 0.59223 0.0
C102 C 0.31319 0.93819 0.61147 0.0
C103 C 0.32118 0.96734 0.62795 0.0
C104 C 0.35607 0.94815 0.59924 0.0
C105 C 0.40781 0.98772 0.60322 0.0
C106 C 0.37323 0.00665 0.63198 0.0
C107 C 0.41592 0.01662 0.61974 0.0
C108 C 0.4547 0.99646 0.59149 0.0
C109 C 0.3506 0.02452 0.55133 0.0
C110 C 0.33745 0.99871 0.53378 0.0
C111 C 0.38886 0.02402 0.56355 0.0
C112 C 0.41307 0.99587 0.55883 0.0
C113 C 0.36201 0.97105 0.5289 0.0
C114 C 0.39941 0.96965 0.54132 0.0
C115 C 0.45571 0.99669 0.57112 0.0
H116 H 0.72231 0.08366 0.55261 0.0
H117 H 0.65034 0.07655 0.57363 0.0
H118 H 0.60757 0.95102 0.52239 0.0
H119 H 0.53649 0.94436 0.54322 0.0
H120 H 0.67151 0.96822 0.6131 0.0
H121 H 0.60513 0.96255 0.58972 0.0
H122 H 0.64161 0.06563 0.6484 0.0
H123 H 0.57807 0.06288 0.62452 0.0
H124 H 0.27376 0.90724 0.60816 0.0
H125 H 0.34899 0.92419 0.58695 0.0
H126 H 0.38188 0.029 0.64483 0.0
H127 H 0.45566 0.0467 0.62335 0.0
H128 H 0.33235 0.0463 0.55533 0.0
H129 H 0.40016 0.04651 0.57646 0.0
H130 H 0.35192 0.95001 0.51561 0.0
H131 H 0.41776 0.94804 0.5372 0.0
N132 N 0.4996 1.00043 0.5622 0.0
N133 N 0.49864 1.00261 0.60109 0.0
C134 C 0.37418 0.34101 0.88902 0.0
C135 C 0.34859 0.35741 0.87613 0.0
C136 C 0.41429 0.37457 0.90147 0.0
C137 C 0.42901 0.42497 0.90149 0.0
C138 C 0.36401 0.40787 0.87601 0.0
C139 C 0.40365 0.44123 0.88855 0.0
C140 C 0.47299 0.4619 0.91388 0.0
C141 C 0.35058 0.35155 0.95626 0.0
C142 C 0.37101 0.32712 0.96751 0.0
C143 C 0.38501 0.39255 0.94493 0.0
C144 C 0.44025 0.40954 0.94454 0.0
C145 C 0.42611 0.34377 0.96677 0.0
C146 C 0.46046 0.38489 0.95558 0.0
C147 C 0.47803 0.45469 0.93374 0.0
C148 C 0.63856 0.65971 0.96016 0.0
C149 C 0.66627 0.64866 0.97419 0.0
C150 C 0.60338 0.62306 0.94739 0.0
C151 C 0.59561 0.57485 0.94825 0.0
C152 C 0.65881 0.60057 0.97488 0.0
C153 C 0.62333 0.56385 0.9622 0.0
C154 C 0.55623 0.53512 0.93549 0.0
C155 C 0.68959 0.63952 0.89674 0.0
C156 C 0.67559 0.66213 0.88215 0.0
C157 C 0.65005 0.60052 0.90761 0.0
C158 C 0.59546 0.58401 0.90447 0.0
C159 C 0.62089 0.64561 0.87898 0.0
C160 C 0.58129 0.60672 0.88996 0.0
C161 C 0.55315 0.54127 0.91543 0.0
H162 H 0.36481 0.30277 0.88907 0.0
H163 H 0.43466 0.36127 0.91069 0.0
H164 H 0.3455 0.42166 0.86608 0.0
H165 H 0.41469 0.47997 0.88808 0.0
H166 H 0.30815 0.33909 0.9561 0.0
H167 H 0.36862 0.41142 0.93671 0.0
H168 H 0.44287 0.32554 0.9752 0.0
H169 H 0.50301 0.39756 0.95557 0.0
H170 H 0.64424 0.69663 0.95883 0.0
H171 H 0.5817 0.63227 0.937 0.0
H172 H 0.67988 0.59116 0.98547 0.0
H173 H 0.61769 0.52684 0.96323 0.0
H174 H 0.73132 0.65135 0.89947 0.0
H175 H 0.66227 0.58271 0.91824 0.0
H176 H 0.60836 0.66282 0.86823 0.0
H177 H 0.5395 0.59455 0.88718 0.0
N178 N 0.51108 0.50481 0.90551 0.0
N179 N 0.5192 0.49173 0.94375 0.0
H180 H 0.93431 0.14158 0.11702 0.0
C181 C 0.95434 0.12198 0.12204 0.0
H182 H 0.99886 0.11471 0.14476 0.0
H183 H 0.03398 0.34187 0.1545 0.0
H184 H 0.09 0.36081 0.12616 0.0
H185 H 0.09817 0.29521 0.10934 0.0
H186 H 0.04949 0.21007 0.1206 0.0
C187 C 0.97858 0.13365 0.13933 0.0
C188 C 0.97977 0.17426 0.15111 0.0
C189 C 0.0105 0.22433 0.14488 0.0
C190 C 0.00776 0.26257 0.15511 0.0
C191 C 0.03621 0.31165 0.14781 0.0
C192 C 0.0683 0.32303 0.13145 0.0
C193 C 0.07274 0.28607 0.12194 0.0
C194 C 0.04428 0.23727 0.1285 0.0
H195 H 0.05197 0.32595 0.19248 0.0
C196 C 0.01469 0.32674 0.19239 0.0
H197 H 0.9334 0.28788 0.18355 0.0
H198 H 0.91864 0.0829 0.16749 0.0
H199 H 0.86576 0.06425 0.19679 0.0
H200 H 0.86335 0.13081 0.21519 0.0
H201 H 0.91353 0.2164 0.2044 0.0
C202 C 0.97242 0.29071 0.1828 0.0
C203 C 0.97622 0.25105 0.1721 0.0
C204 C 0.94703 0.20124 0.17869 0.0
C205 C 0.94882 0.16285 0.16818 0.0
C206 C 0.91884 0.11343 0.17498 0.0
C207 C 0.88836 0.10224 0.19177 0.0
C208 C 0.88697 0.13972 0.20212 0.0
C209 C 0.91588 0.18869 0.19574 0.0
H210 H 0.84416 0.96414 0.44344 0.0
C211 C 0.87977 1.00082 0.44305 0.0
H212 H 0.91724 0.07414 0.45384 0.0
H213 H 0.70508 0.06773 0.48072 0.0
H214 H 0.72869 0.1215 0.45276 0.0
H215 H 0.80187 0.13313 0.43103 0.0
H216 H 0.85203 0.09119 0.43717 0.0
C217 C 0.88232 0.03706 0.45432 0.0
C218 C 0.83728 0.02866 0.46724 0.0
C219 C 0.80815 0.05321 0.46339 0.0
C220 C 0.76553 0.04604 0.47578 0.0
C221 C 0.73743 0.0714 0.47167 0.0
C222 C 0.75063 0.10246 0.45568 0.0
C223 C 0.79187 0.10905 0.44346 0.0
C224 C 0.82041 0.08481 0.44718 0.0
H225 H 0.75582 0.04663 0.52792 0.0
C226 C 0.71485 0.02483 0.52267 0.0
H227 H 0.66687 0.98783 0.49834 0.0
H228 H 0.88873 0.98021 0.4801 0.0
H229 H 0.86346 0.92467 0.5075 0.0
H230 H 0.78586 0.90806 0.52776 0.0
H231 H 0.7337 0.94762 0.52093 0.0
C232 C 0.70668 1.00629 0.50466 0.0
C233 C 0.75207 0.01431 0.49201 0.0
C234 C 0.78099 0.98951 0.49583 0.0
C235 C 0.82433 0.99744 0.48365 0.0
C236 C 0.8542 0.97414 0.48839 0.0
C237 C 0.84033 0.94236 0.50417 0.0
C238 C 0.79676 0.93314 0.51561 0.0
C239 C 0.7673 0.95631 0.51157 0.0
H240 H 0.85648 0.8188 0.78189 0.0
C241 C 0.88345 0.85643 0.78686 0.0
H242 H 0.90679 0.90569 0.81048 0.0
H243 H 0.68335 0.77953 0.85298 0.0
H244 H 0.6827 0.855 0.84502 0.0
H245 H 0.75419 0.91981 0.82493 0.0
H246 H 0.82696 0.90975 0.81276 0.0
C247 C 0.88183 0.86781 0.80544 0.0
C248 C 0.84119 0.83027 0.81885 0.0
C249 C 0.79898 0.83681 0.82589 0.0
C250 C 0.75732 0.79913 0.83726 0.0
C251 C 0.7157 0.8067 0.84411 0.0
C252 C 0.71486 0.84988 0.83968 0.0
C253 C 0.75514 0.88639 0.82838 0.0
C254 C 0.79674 0.88013 0.8215 0.0
H255 H 0.75927 0.72193 0.87687 0.0
C256 C 0.71918 0.70274 0.87068 0.0
H257 H 0.67341 0.69604 0.84578 0.0
H258 H 0.92034 0.8093 0.81028 0.0
H259 H 0.92005 0.73305 0.81757 0.0
H260 H 0.84461 0.66515 0.83525 0.0
H261 H 0.76961 0.67343 0.84606 0.0
C262 C 0.71247 0.71472 0.85266 0.0
C263 C 0.75781 0.75491 0.84157 0.0
C264 C 0.80049 0.74866 0.83479 0.0
C265 C 0.84282 0.78687 0.8238 0.0
C266 C 0.88617 0.78067 0.818 0.0
C267 C 0.88668 0.73722 0.8222 0.0
C268 C 0.8443 0.69907 0.83222 0.0
C269 C 0.8016 0.70447 0.83844 0.0
H270 H 0.06319 0.88317 0.11169 0.0
C271 C 0.04742 0.90561 0.11757 0.0
H272 H 0.01142 0.91847 0.14165 0.0
H273 H 0.91542 0.70108 0.17455 0.0
H274 H 0.83529 0.70375 0.16618 0.0
H275 H 0.84156 0.77575 0.14898 0.0
H276 H 0.9279 0.84566 0.14019 0.0
C277 C 0.02966 0.89803 0.13587 0.0
C278 C 0.02659 0.8562 0.14743 0.0
C279 C 0.97566 0.81551 0.15246 0.0
C280 C 0.97196 0.77356 0.16211 0.0
C281 C 0.92057 0.7336 0.16702 0.0
C282 C 0.87421 0.73466 0.16233 0.0
C283 C 0.87775 0.77522 0.15267 0.0
C284 C 0.92769 0.8152 0.14773 0.0
H285 H 0.04876 0.76284 0.20201 0.0
C286 C 0.02988 0.72762 0.19434 0.0
H287 H 0.99575 0.69286 0.16768 0.0
H288 H 0.13052 0.93061 0.1425 0.0
H289 H 0.21063 0.92702 0.15007 0.0
H290 H 0.20404 0.85195 0.16464 0.0
H291 H 0.11745 0.78043 0.17207 0.0
C292 C 0.01431 0.72693 0.17599 0.0
C293 C 0.01908 0.77212 0.16665 0.0
C294 C 0.07008 0.81304 0.16183 0.0
C295 C 0.07385 0.85553 0.1526 0.0
C296 C 0.12531 0.89671 0.14879 0.0
C297 C 0.17163 0.89527 0.15318 0.0
C298 C 0.16792 0.85307 0.16145 0.0
C299 C 0.11789 0.81233 0.16574 0.0
H300 H 0.17839 0.06878 0.44093 0.0
C301 C 0.13965 0.03496 0.44207 0.0
H302 H 0.09455 0.96513 0.45549 0.0
H303 H 0.27583 0.92531 0.48174 0.0
H304 H 0.22915 0.8609 0.4579 0.0
H305 H 0.15979 0.86092 0.43711 0.0
H306 H 0.13622 0.925 0.44023 0.0
C307 C 0.13324 0.99903 0.4544 0.0
C308 C 0.17835 1.00213 0.466 0.0
C309 C 0.19274 0.9651 0.46365 0.0
C310 C 0.23376 0.96583 0.47528 0.0
C311 C 0.24582 0.92728 0.47306 0.0
C312 C 0.21922 0.88992 0.45944 0.0
C313 C 0.18011 0.88987 0.44776 0.0
C314 C 0.16685 0.92687 0.44977 0.0
H315 H 0.26442 1.00255 0.5276 0.0
C316 C 0.29753 1.00073 0.52096 0.0
H317 H 0.33615 1.00268 0.49484 0.0
H318 H 0.15619 0.07508 0.47646 0.0
H319 H 0.2078 0.14325 0.49834 0.0
H320 H 0.28704 0.1509 0.51511 0.0
H321 H 0.31382 0.08932 0.51058 0.0
C322 C 0.30257 1.00333 0.50164 0.0
C323 C 0.26134 1.00431 0.48895 0.0
C324 C 0.24882 0.04278 0.49063 0.0
C325 C 0.20575 0.04051 0.47978 0.0
C326 C 0.19064 0.0766 0.4833 0.0
C327 C 0.21964 0.11576 0.49599 0.0
C328 C 0.26404 0.11991 0.50552 0.0
C329 C 0.27866 0.08399 0.50292 0.0
H330 H 0.08963 0.09682 0.8129 0.0
C331 C 0.09875 0.11831 0.79968 0.0
H332 H 0.14721 0.18766 0.78634 0.0
H333 H 0.18861 0.25365 0.87875 0.0
H334 H 0.09338 0.22521 0.88074 0.0
H335 H 0.03325 0.18207 0.85334 0.0
H336 H 0.06771 0.16668 0.82386 0.0
C337 C 0.13677 0.16662 0.79971 0.0
C338 C 0.17172 0.19113 0.81676 0.0
C339 C 0.1508 0.20014 0.83383 0.0
C340 C 0.18567 0.22598 0.84951 0.0
C341 C 0.16389 0.23447 0.8664 0.0
C342 C 0.10936 0.21839 0.86772 0.0
C343 C 0.07549 0.19402 0.8523 0.0
C344 C 0.09577 0.18512 0.83549 0.0
H345 H 0.30327 0.34102 0.84881 0.0
C346 C 0.3086 0.32402 0.86169 0.0
H347 H 0.27988 0.25594 0.87669 0.0
H348 H 0.22469 0.17776 0.7866 0.0
H349 H 0.31978 0.20647 0.78477 0.0
H350 H 0.38003 0.25193 0.81185 0.0
H351 H 0.34547 0.26893 0.84096 0.0
C352 C 0.27854 0.27447 0.86363 0.0
C353 C 0.24142 0.2438 0.84792 0.0
C354 C 0.26215 0.2339 0.83105 0.0
C355 C 0.22734 0.20765 0.81545 0.0
C356 C 0.24925 0.19807 0.79882 0.0
C357 C 0.3038 0.21415 0.79759 0.0
C358 C 0.33772 0.23974 0.81284 0.0
C359 C 0.31737 0.24946 0.82943 0.0
H360 H 0.92535 0.07056 0.70984 0.0
C361 C 0.90709 0.03328 0.71577 0.0
H362 H 0.84081 0.96062 0.71534 0.0
H363 H 0.76912 0.10194 0.66405 0.0
H364 H 0.78843 0.15326 0.69253 0.0
H365 H 0.82354 0.13538 0.72202 0.0
H366 H 0.84151 0.0674 0.72291 0.0
C367 C 0.85852 0.998 0.70953 0.0
C368 C 0.83116 1.00594 0.69279 0.0
C369 C 0.81714 0.04356 0.69309 0.0
C370 C 0.79259 0.05124 0.67666 0.0
C371 C 0.78419 0.09227 0.6766 0.0
C372 C 0.79564 0.12237 0.69279 0.0
C373 C 0.81571 0.11249 0.70934 0.0
C374 C 0.82635 0.07359 0.70958 0.0
H375 H 0.68302 0.0151 0.66272 0.0
C376 C 0.69661 0.0172 0.64794 0.0
H377 H 0.75879 0.0242 0.62991 0.0
H378 H 0.85647 0.93307 0.68659 0.0
H379 H 0.83218 0.8789 0.65888 0.0
H380 H 0.78114 0.88661 0.63191 0.0
H381 H 0.75499 0.94916 0.63235 0.0
C382 C 0.74453 0.02125 0.64462 0.0
C383 C 0.77719 0.01822 0.66072 0.0
C384 C 0.79104 0.98055 0.66044 0.0
C385 C 0.81885 0.97498 0.67632 0.0
C386 C 0.83392 0.93818 0.67526 0.0
C387 C 0.82045 0.90687 0.65937 0.0
C388 C 0.79184 0.91128 0.64417 0.0
C389 C 0.77718 0.94754 0.64462 0.0
H390 H 0.83046 0.91176 0.05208 0.0
C391 C 0.86517 0.90707 0.05359 0.0
H392 H 0.89975 0.86339 0.04619 0.0
H393 H 0.67496 0.67447 0.02573 0.0
H394 H 0.68505 0.65261 0.0584 0.0
H395 H 0.7575 0.71318 0.07939 0.0
H396 H 0.81999 0.79623 0.06788 0.0
C397 C 0.86585 0.86922 0.04456 0.0
C398 C 0.82072 0.83373 0.03217 0.0
C399 C 0.7852 0.78513 0.03898 0.0
C400 C 0.74417 0.74987 0.02672 0.0
C401 C 0.70795 0.70219 0.03418 0.0
C402 C 0.71303 0.68927 0.05297 0.0
C403 C 0.75377 0.7234 0.0648 0.0
C404 C 0.78944 0.77088 0.05799 0.0
H405 H 0.73558 0.6812 0.99411 0.0
C406 C 0.70403 0.68647 0.98803 0.0
H407 H 0.66821 0.73144 0.98857 0.0
H408 H 0.88221 0.92389 0.01462 0.0
H409 H 0.87171 0.94603 0.98207 0.0
H410 H 0.8007 0.88489 0.96078 0.0
H411 H 0.73987 0.80117 0.97189 0.0
C412 C 0.69974 0.7254 0.99402 0.0
C413 C 0.73972 0.76299 0.00749 0.0
C414 C 0.77425 0.81208 1.00089 0.0
C415 C 0.81499 0.84745 0.01321 0.0
C416 C 0.85006 0.89573 1.006 0.0
C417 C 0.84461 0.90892 0.98731 0.0
C418 C 0.80465 0.87449 0.97532 0.0
C419 C 0.76991 0.82655 0.98191 0.0
H420 H 0.00982 0.91922 0.35375 0.0
C421 C 0.98767 0.89877 0.36646 0.0
H422 H 0.94755 0.82942 0.38046 0.0
H423 H 0.97374 0.77217 0.28938 0.0
H424 H 0.92064 0.809 0.27977 0.0
H425 H 0.89259 0.85009 0.30367 0.0
H426 H 0.91869 0.85573 0.3372 0.0
C427 C 0.96834 0.84952 0.3675 0.0
C428 C 0.98196 0.82232 0.35294 0.0
C429 C 0.96405 0.81722 0.33356 0.0
C430 C 0.97752 0.79089 0.31999 0.0
C431 C 0.96233 0.78943 0.30048 0.0
C432 C 0.9322 0.81079 0.29473 0.0
C433 C 0.91661 0.83412 0.30817 0.0
C434 C 0.93219 0.83738 0.32737 0.0
H435 H 0.93639 0.68566 0.30652 0.0
C436 C 0.97774 0.69489 0.30434 0.0
H437 H 0.05898 0.74673 0.31012 0.0
H438 H 0.02578 0.82759 0.38858 0.0
H439 H 0.07574 0.78797 0.39843 0.0
H440 H 0.09348 0.73744 0.37551 0.0
H441 H 0.06198 0.7268 0.34255 0.0
C442 C 0.01741 0.73644 0.31242 0.0
C443 C 0.00606 0.7671 0.32607 0.0
C444 C 0.02393 0.77223 0.34543 0.0
C445 C 0.0124 0.80025 0.3588 0.0
C446 C 0.03213 0.80578 0.3779 0.0
C447 C 0.06112 0.78338 0.38376 0.0
C448 C 0.07121 0.75503 0.37085 0.0
C449 C 0.05294 0.74936 0.35192 0.0
H450 H 0.15654 0.02047 0.71872 0.0
C451 C 0.11752 0.98696 0.72003 0.0
H452 H 0.06745 0.91402 0.70973 0.0
H453 H 0.19804 0.97467 0.63072 0.0
H454 H 0.11112 0.96051 0.62049 0.0
H455 H 0.03941 0.94096 0.6442 0.0
H456 H 0.05433 0.93568 0.6783 0.0
C457 C 0.10708 0.94695 0.70949 0.0
C458 C 0.14706 0.95014 0.69512 0.0
C459 C 0.13702 0.95138 0.67516 0.0
C460 C 0.17816 0.96202 0.66146 0.0
C461 C 0.16794 0.96558 0.64172 0.0
C462 C 0.11826 0.9578 0.63564 0.0
C463 C 0.07791 0.94685 0.649 0.0
C464 C 0.08701 0.94387 0.66854 0.0
H465 H 0.24049 0.91691 0.64012 0.0
C466 C 0.27511 0.95414 0.64109 0.0
H467 H 0.30703 0.02372 0.65515 0.0
H468 H 0.17629 0.94272 0.73193 0.0
H469 H 0.26265 0.95504 0.74219 0.0
H470 H 0.33439 0.97435 0.71851 0.0
H471 H 0.32017 0.98124 0.68443 0.0
C472 C 0.27385 0.986 0.65387 0.0
C473 C 0.22886 0.97042 0.66775 0.0
C474 C 0.23794 0.96677 0.68761 0.0
C475 C 0.19686 0.95624 0.7013 0.0
C476 C 0.20663 0.95185 0.721 0.0
C477 C 0.25587 0.9585 0.72706 0.0
C478 C 0.29624 0.96933 0.71373 0.0
C479 C 0.28759 0.97333 0.69421 0.0
H480 H 0.11472 0.15434 0.04692 0.0
C481 C 0.12012 0.12319 0.05056 0.0
H482 H 0.16727 0.08974 0.04589 0.0
H483 H 0.24889 0.20133 0.96539 0.0
H484 H 0.19589 0.11548 0.95528 0.0
H485 H 0.14401 0.04925 0.97894 0.0
H486 H 0.14474 0.06849 0.01285 0.0
C487 C 0.16223 0.12149 0.04319 0.0
C488 C 0.19925 0.16057 0.02945 0.0
C489 C 0.19941 0.14851 0.00974 0.0
C490 C 0.22971 0.18666 0.9961 0.0
C491 C 0.22749 0.17378 0.97641 0.0
C492 C 0.197 0.12464 0.97039 0.0
C493 C 0.16775 0.08736 0.98371 0.0
C494 C 0.16859 0.09894 1.00315 0.0
H495 H 0.35086 0.25939 0.98425 0.0
C496 C 0.33643 0.28437 0.9802 0.0
H497 H 0.27694 0.30357 0.98566 0.0
H498 H 0.21453 0.19531 0.06651 0.0
H499 H 0.26869 0.28103 0.07672 0.0
H500 H 0.31948 0.34744 0.05299 0.0
H501 H 0.31671 0.32848 0.01894 0.0
C502 C 0.29045 0.27719 0.98805 0.0
C503 C 0.26029 0.23671 1.00226 0.0
C504 C 0.26164 0.24853 0.02206 0.0
C505 C 0.23162 0.21037 0.0357 0.0
C506 C 0.23522 0.22303 0.05547 0.0
C507 C 0.2665 0.27205 0.06155 0.0
C508 C 0.29515 0.30942 0.04819 0.0
C509 C 0.29307 0.29802 0.02868 0.0
H510 H 0.06832 0.20842 0.38064 0.0
C511 C 0.05023 0.17054 0.37534 0.0
H512 H 0.01152 0.12274 0.35175 0.0
H513 H 0.97753 0.31776 0.33903 0.0
H514 H 0.91773 0.28492 0.36646 0.0
H515 H 0.90659 0.21146 0.38398 0.0
H516 H 0.95607 0.17104 0.37439 0.0
C517 C 0.02929 0.16014 0.35749 0.0
C518 C 0.02993 0.19978 0.34523 0.0
C519 C 0.99873 0.22156 0.35045 0.0
C520 C 1.0032 0.26247 0.33976 0.0
C521 C 0.97414 0.28539 0.34609 0.0
C522 C 0.93985 0.2671 0.36191 0.0
C523 C 0.93374 0.22586 0.37182 0.0
C524 C 0.9627 0.20322 0.36623 0.0
H525 H 0.96469 0.28513 0.30101 0.0
C526 C 1.00204 0.3205 0.30159 0.0
H527 H 0.08188 0.35679 0.31202 0.0
H528 H 0.09264 0.16469 0.3307 0.0
H529 H 0.14919 0.19481 0.30225 0.0
H530 H 0.15453 0.26374 0.28302 0.0
H531 H 0.10361 0.3032 0.29214 0.0
C532 C 0.04269 0.32345 0.31217 0.0
C533 C 0.03695 0.28006 0.32329 0.0
C534 C 0.06657 0.25705 0.31767 0.0
C535 C 0.06306 0.2169 0.32864 0.0
C536 C 0.0936 0.19509 0.32282 0.0
C537 C 0.12621 0.21201 0.30652 0.0
C538 C 0.12925 0.25085 0.2957 0.0
C539 C 0.09989 0.27324 0.30113 0.0
loop_
_geom_bond_atom_site_label_1
_geom_bond_atom_site_label_2
_geom_bond_distance
_geom_bond_site_symmetry_2
_ccdc_geom_bond_type
O0 Cd1 2.223 1_455 S
O0 C8 1.315 . S
Cd1 O0 2.223 1_655 S
Cd1 O4 2.297 . S
Cd1 O5 2.439 . S
Cd1 O11 2.240 1_545 S
Cd2 O3 2.240 1_565 S
Cd2 O10 2.223 1_455 S
Cd2 O12 2.297 . S
Cd2 O13 2.439 . S
O3 Cd2 2.240 1_545 S
O3 C8 1.279 . S
O4 Cd1 2.297 . S
O4 C6 1.247 . S
O5 Cd1 2.439 . S
O5 C6 1.208 . S
C6 O4 1.247 . S
C6 O5 1.208 . S
C7 O12 1.247 . S
C7 O13 1.208 . S
C8 O0 1.315 . S
C8 O3 1.279 . S
C9 O10 1.315 . S
C9 O11 1.279 . S
O10 Cd2 2.223 1_655 S
O10 C9 1.315 . S
O11 Cd1 2.240 1_565 S
O11 C9 1.279 . S
O12 Cd2 2.297 . S
O12 C7 1.247 . S
O13 Cd2 2.439 . S
O13 C7 1.208 . S
O14 Cd15 2.223 1_655 S
O14 C22 1.315 . S
Cd15 O14 2.223 1_455 S
Cd15 O18 2.297 . S
Cd15 O19 2.439 . S
Cd15 O25 2.240 . S
Cd16 O17 2.240 . S
Cd16 O24 2.223 1_655 S
Cd16 O26 2.297 . S
Cd16 O27 2.439 . S
O17 Cd16 2.240 . S
O17 C22 1.279 1_565 S
O18 Cd15 2.297 . S
O18 C20 1.247 . S
O19 Cd15 2.439 . S
O19 C20 1.208 . S
C20 O18 1.247 . S
C20 O19 1.208 . S
C21 O26 1.247 . S
C21 O27 1.208 . S
C22 O14 1.315 . S
C22 O17 1.279 1_545 S
C23 O24 1.315 . S
C23 O25 1.279 1_565 S
O24 Cd16 2.223 1_455 S
O24 C23 1.315 . S
O25 Cd15 2.240 . S
O25 C23 1.279 1_545 S
O26 Cd16 2.297 . S
O26 C21 1.247 . S
O27 Cd16 2.439 . S
O27 C21 1.208 . S
O28 Cd29 2.223 . S
O28 C36 1.315 . S
Cd29 O28 2.223 . S
Cd29 O32 2.297 . S
Cd29 O33 2.439 . S
Cd29 O39 2.240 1_655 S
Cd30 O31 2.240 1_455 S
Cd30 O38 2.223 . S
Cd30 O40 2.297 . S
Cd30 O41 2.439 . S
O31 Cd30 2.240 1_655 S
O31 C36 1.279 1_545 S
O32 Cd29 2.297 . S
O32 C34 1.247 . S
O33 Cd29 2.439 . S
O33 C34 1.208 . S
C34 O32 1.247 . S
C34 O33 1.208 . S
C35 O40 1.247 . S
C35 O41 1.208 . S
C36 O28 1.315 . S
C36 O31 1.279 1_565 S
C37 O38 1.315 . S
C37 O39 1.279 1_545 S
O38 Cd30 2.223 . S
O38 C37 1.315 . S
O39 Cd29 2.240 1_455 S
O39 C37 1.279 1_565 S
O40 Cd30 2.297 . S
O40 C35 1.247 . S
O41 Cd30 2.439 . S
O41 C35 1.208 . S
C42 C43 1.384 1_655 S
C42 C44 1.384 . S
C42 H70 0.931 . S
C43 C42 1.384 1_455 S
C43 C46 1.382 . S
C44 C42 1.384 . S
C44 C45 1.381 1_655 S
C44 H71 0.930 . S
C45 C44 1.381 1_455 S
C45 C47 1.381 . S
C45 C48 1.487 . S
C46 C43 1.382 . S
C46 C47 1.387 . S
C46 H72 0.930 . S
C47 C45 1.381 . S
C47 C46 1.387 . S
C47 H73 0.931 . S
C48 C45 1.487 . S
C48 C55 1.399 1_455 S
C48 N86 1.343 . S
C49 C50 1.384 1_455 S
C49 C51 1.384 . S
C49 H74 0.931 . S
C50 C49 1.384 1_655 S
C50 C53 1.382 . S
C51 C49 1.384 . S
C51 C52 1.381 1_455 S
C51 H75 0.930 . S
C52 C51 1.381 1_655 S
C52 C54 1.381 . S
C52 C55 1.487 . S
C53 C50 1.382 . S
C53 C54 1.387 . S
C53 H76 0.930 . S
C54 C52 1.381 . S
C54 C53 1.387 . S
C54 H77 0.931 . S
C55 C48 1.399 1_655 S
C55 C52 1.487 . S
C55 N87 1.343 . S
C56 C57 1.384 1_455 S
C56 C58 1.384 . S
C56 H78 0.931 . S
C57 C56 1.384 1_655 S
C57 C60 1.382 . S
C58 C56 1.384 . S
C58 C59 1.381 1_455 S
C58 H79 0.930 . S
C59 C58 1.381 1_655 S
C59 C61 1.381 . S
C59 C62 1.487 . S
C60 C57 1.382 . S
C60 C61 1.387 . S
C60 H80 0.930 . S
C61 C59 1.381 . S
C61 C60 1.387 . S
C61 H81 0.931 . S
C62 C59 1.487 . S
C62 C69 1.399 1_655 S
C62 N87 1.343 . S
C63 C64 1.384 1_655 S
C63 C65 1.384 . S
C63 H82 0.931 . S
C64 C63 1.384 1_455 S
C64 C67 1.382 . S
C65 C63 1.384 . S
C65 C66 1.381 1_655 S
C65 H83 0.930 . S
C66 C65 1.381 1_455 S
C66 C68 1.381 . S
C66 C69 1.487 . S
C67 C64 1.382 . S
C67 C68 1.387 . S
C67 H84 0.930 . S
C68 C66 1.381 . S
C68 C67 1.387 . S
C68 H85 0.931 . S
C69 C62 1.399 1_455 S
C69 C66 1.487 . S
C69 N86 1.343 . S
H70 C42 0.931 . S
H71 C44 0.930 . S
H72 C46 0.930 . S
H73 C47 0.931 . S
H74 C49 0.931 . S
H75 C51 0.930 . S
H76 C53 0.930 . S
H77 C54 0.931 . S
H78 C56 0.931 . S
H79 C58 0.930 . S
H80 C60 0.930 . S
H81 C61 0.931 . S
H82 C63 0.931 . S
H83 C65 0.930 . S
H84 C67 0.930 . S
H85 C68 0.931 . S
N86 C48 1.343 . S
N86 C69 1.343 . S
N87 C55 1.343 . S
N87 C62 1.343 . S
C88 C89 1.384 1_545 S
C88 C90 1.384 . S
C88 H116 0.931 . S
C89 C88 1.384 1_565 S
C89 C92 1.382 . S
C90 C88 1.384 . S
C90 C91 1.381 1_545 S
C90 H117 0.930 . S
C91 C90 1.381 1_565 S
C91 C93 1.381 . S
C91 C94 1.487 . S
C92 C89 1.382 . S
C92 C93 1.387 . S
C92 H118 0.930 . S
C93 C91 1.381 . S
C93 C92 1.387 . S
C93 H119 0.931 . S
C94 C91 1.487 . S
C94 C101 1.399 1_565 S
C94 N132 1.343 . S
C95 C96 1.384 1_565 S
C95 C97 1.384 . S
C95 H120 0.931 . S
C96 C95 1.384 1_545 S
C96 C99 1.382 . S
C97 C95 1.384 . S
C97 C98 1.381 1_565 S
C97 H121 0.930 . S
C98 C97 1.381 1_545 S
C98 C100 1.381 . S
C98 C101 1.487 . S
C99 C96 1.382 . S
C99 C100 1.387 . S
C99 H122 0.930 . S
C100 C98 1.381 . S
C100 C99 1.387 . S
C100 H123 0.931 . S
C101 C94 1.399 1_545 S
C101 C98 1.487 . S
C101 N133 1.343 . S
C102 C103 1.384 1_565 S
C102 C104 1.384 . S
C102 H124 0.931 . S
C103 C102 1.384 1_545 S
C103 C106 1.382 . S
C104 C102 1.384 . S
C104 C105 1.381 1_565 S
C104 H125 0.930 . S
C105 C104 1.381 1_545 S
C105 C107 1.381 . S
C105 C108 1.487 . S
C106 C103 1.382 . S
C106 C107 1.387 . S
C106 H126 0.930 . S
C107 C105 1.381 . S
C107 C106 1.387 . S
C107 H127 0.931 . S
C108 C105 1.487 . S
C108 C115 1.399 1_545 S
C108 N133 1.343 . S
C109 C110 1.384 1_545 S
C109 C111 1.384 . S
C109 H128 0.931 . S
C110 C109 1.384 1_565 S
C110 C113 1.382 . S
C111 C109 1.384 . S
C111 C112 1.381 1_545 S
C111 H129 0.930 . S
C112 C111 1.381 1_565 S
C112 C114 1.381 . S
C112 C115 1.487 . S
C113 C110 1.382 . S
C113 C114 1.387 . S
C113 H130 0.930 . S
C114 C112 1.381 . S
C114 C113 1.387 . S
C114 H131 0.931 . S
C115 C108 1.399 1_565 S
C115 C112 1.487 . S
C115 N132 1.343 . S
H116 C88 0.931 . S
H117 C90 0.930 . S
H118 C92 0.930 . S
H119 C93 0.931 . S
H120 C95 0.931 . S
H121 C97 0.930 . S
H122 C99 0.930 . S
H123 C100 0.931 . S
H124 C102 0.931 . S
H125 C104 0.930 . S
H126 C106 0.930 . S
H127 C107 0.931 . S
H128 C109 0.931 . S
H129 C111 0.930 . S
H130 C113 0.930 . S
H131 C114 0.931 . S
N132 C94 1.343 . S
N132 C115 1.343 . S
N133 C101 1.343 . S
N133 C108 1.343 . S
C134 C135 1.384 . S
C134 C136 1.384 . S
C134 H162 0.931 . S
C135 C134 1.384 . S
C135 C138 1.382 . S
C136 C134 1.384 . S
C136 C137 1.381 . S
C136 H163 0.930 . S
C137 C136 1.381 . S
C137 C139 1.381 . S
C137 C140 1.487 . S
C138 C135 1.382 . S
C138 C139 1.387 . S
C138 H164 0.930 . S
C139 C137 1.381 . S
C139 C138 1.387 . S
C139 H165 0.931 . S
C140 C137 1.487 . S
C140 C147 1.399 . S
C140 N178 1.343 . S
C141 C142 1.384 . S
C141 C143 1.384 . S
C141 H166 0.931 . S
C142 C141 1.384 . S
C142 C145 1.382 . S
C143 C141 1.384 . S
C143 C144 1.381 . S
C143 H167 0.930 . S
C144 C143 1.381 . S
C144 C146 1.381 . S
C144 C147 1.487 . S
C145 C142 1.382 . S
C145 C146 1.387 . S
C145 H168 0.930 . S
C146 C144 1.381 . S
C146 C145 1.387 . S
C146 H169 0.931 . S
C147 C140 1.399 . S
C147 C144 1.487 . S
C147 N179 1.343 . S
C148 C149 1.384 . S
C148 C150 1.384 . S
C148 H170 0.931 . S
C149 C148 1.384 . S
C149 C152 1.382 . S
C150 C148 1.384 . S
C150 C151 1.381 . S
C150 H171 0.930 . S
C151 C150 1.381 . S
C151 C153 1.381 . S
C151 C154 1.487 . S
C152 C149 1.382 . S
C152 C153 1.387 . S
C152 H172 0.930 . S
C153 C151 1.381 . S
C153 C152 1.387 . S
C153 H173 0.931 . S
C154 C151 1.487 . S
C154 C161 1.399 . S
C154 N179 1.343 . S
C155 C156 1.384 . S
C155 C157 1.384 . S
C155 H174 0.931 . S
C156 C155 1.384 . S
C156 C159 1.382 . S
C157 C155 1.384 . S
C157 C158 1.381 . S
C157 H175 0.930 . S
C158 C157 1.381 . S
C158 C160 1.381 . S
C158 C161 1.487 . S
C159 C156 1.382 . S
C159 C160 1.387 . S
C159 H176 0.930 . S
C160 C158 1.381 . S
C160 C159 1.387 . S
C160 H177 0.931 . S
C161 C154 1.399 . S
C161 C158 1.487 . S
C161 N178 1.343 . S
H162 C134 0.931 . S
H163 C136 0.930 . S
H164 C138 0.930 . S
H165 C139 0.931 . S
H166 C141 0.931 . S
H167 C143 0.930 . S
H168 C145 0.930 . S
H169 C146 0.931 . S
H170 C148 0.931 . S
H171 C150 0.930 . S
H172 C152 0.930 . S
H173 C153 0.931 . S
H174 C155 0.931 . S
H175 C157 0.930 . S
H176 C159 0.930 . S
H177 C160 0.931 . S
N178 C140 1.343 . S
N178 C161 1.343 . S
N179 C147 1.343 . S
N179 C154 1.343 . S
H180 C181 0.951 . S
C181 H180 0.951 . S
C181 C187 1.265 1_655 S
H182 C187 0.950 . S
H183 C191 0.949 . S
H184 C192 0.950 . S
H185 C193 0.951 . S
H186 C194 0.951 . S
C187 C181 1.265 1_455 S
C187 H182 0.950 . S
C187 C188 1.478 . S
C188 C187 1.478 . S
C188 C189 1.397 . S
C188 C205 1.394 1_455 S
C189 C188 1.397 . S
C189 C190 1.438 . S
C189 C194 1.429 . S
C190 C189 1.438 . S
C190 C191 1.428 . S
C190 C203 1.394 1_455 S
C191 H183 0.949 . S
C191 C190 1.428 . S
C191 C192 1.345 . S
C192 H184 0.950 . S
C192 C191 1.345 . S
C192 C193 1.424 . S
C193 H185 0.951 . S
C193 C192 1.424 . S
C193 C194 1.347 . S
C194 H186 0.951 . S
C194 C189 1.429 . S
C194 C193 1.347 . S
H195 C196 0.951 . S
C196 H195 0.951 . S
C196 C202 1.265 1_455 S
H197 C202 0.950 . S
H198 C206 0.949 . S
H199 C207 0.950 . S
H200 C208 0.951 . S
H201 C209 0.951 . S
C202 C196 1.265 1_655 S
C202 H197 0.950 . S
C202 C203 1.478 . S
C203 C190 1.394 1_655 S
C203 C202 1.478 . S
C203 C204 1.397 . S
C204 C203 1.397 . S
C204 C205 1.438 . S
C204 C209 1.429 . S
C205 C188 1.394 1_655 S
C205 C204 1.438 . S
C205 C206 1.428 . S
C206 H198 0.949 . S
C206 C205 1.428 . S
C206 C207 1.345 . S
C207 H199 0.950 . S
C207 C206 1.345 . S
C207 C208 1.424 . S
C208 H200 0.951 . S
C208 C207 1.424 . S
C208 C209 1.347 . S
C209 H201 0.951 . S
C209 C204 1.429 . S
C209 C208 1.347 . S
H210 C211 0.951 . S
C211 H210 0.951 . S
C211 C217 1.265 . S
H212 C217 0.944 1_565 S
H213 C221 0.949 . S
H214 C222 0.950 . S
H215 C223 0.951 . S
H216 C224 0.951 . S
C217 C211 1.265 . S
C217 H212 0.944 1_545 S
C217 C218 1.484 . S
C218 C217 1.484 . S
C218 C219 1.397 . S
C218 C235 1.394 1_545 S
C219 C218 1.397 . S
C219 C220 1.438 . S
C219 C224 1.429 . S
C220 C219 1.438 . S
C220 C221 1.428 . S
C220 C233 1.394 . S
C221 H213 0.949 . S
C221 C220 1.428 . S
C221 C222 1.345 . S
C222 H214 0.950 . S
C222 C221 1.345 . S
C222 C223 1.424 . S
C223 H215 0.951 . S
C223 C222 1.424 . S
C223 C224 1.347 . S
C224 H216 0.951 . S
C224 C219 1.429 . S
C224 C223 1.347 . S
H225 C226 0.964 . S
C226 H225 0.964 . S
C226 C232 1.265 1_565 S
H227 C232 0.950 . S
H228 C236 0.949 . S
H229 C237 0.950 . S
H230 C238 0.951 . S
H231 C239 0.951 . S
C232 C226 1.265 1_545 S
C232 H227 0.950 . S
C232 C233 1.478 . S
C233 C220 1.394 . S
C233 C232 1.478 . S
C233 C234 1.397 1_545 S
C234 C233 1.397 1_565 S
C234 C235 1.438 . S
C234 C239 1.429 . S
C235 C218 1.394 1_565 S
C235 C234 1.438 . S
C235 C236 1.428 . S
C236 H228 0.949 . S
C236 C235 1.428 . S
C236 C237 1.345 . S
C237 H229 0.950 . S
C237 C236 1.345 . S
C237 C238 1.424 . S
C238 H230 0.951 . S
C238 C237 1.424 . S
C238 C239 1.347 . S
C239 H231 0.951 . S
C239 C234 1.429 . S
C239 C238 1.347 . S
H240 C241 0.951 . S
C241 H240 0.951 . S
C241 C247 1.265 . S
H242 C247 0.950 . S
H243 C251 0.949 . S
H244 C252 0.950 . S
H245 C253 0.951 . S
H246 C254 0.951 . S
C247 C241 1.265 . S
C247 H242 0.950 . S
C247 C248 1.478 . S
C248 C247 1.478 . S
C248 C249 1.397 . S
C248 C265 1.394 . S
C249 C248 1.397 . S
C249 C250 1.438 . S
C249 C254 1.429 . S
C250 C249 1.438 . S
C250 C251 1.428 . S
C250 C263 1.394 . S
C251 H243 0.949 . S
C251 C250 1.428 . S
C251 C252 1.345 . S
C252 H244 0.950 . S
C252 C251 1.345 . S
C252 C253 1.424 . S
C253 H245 0.951 . S
C253 C252 1.424 . S
C253 C254 1.347 . S
C254 H246 0.951 . S
C254 C249 1.429 . S
C254 C253 1.347 . S
H255 C256 0.951 . S
C256 H255 0.951 . S
C256 C262 1.265 . S
H257 C262 0.950 . S
H258 C266 0.949 . S
H259 C267 0.950 . S
H260 C268 0.951 . S
H261 C269 0.951 . S
C262 C256 1.265 . S
C262 H257 0.950 . S
C262 C263 1.478 . S
C263 C250 1.394 . S
C263 C262 1.478 . S
C263 C264 1.397 . S
C264 C263 1.397 . S
C264 C265 1.438 . S
C264 C269 1.429 . S
C265 C248 1.394 . S
C265 C264 1.438 . S
C265 C266 1.428 . S
C266 H258 0.949 . S
C266 C265 1.428 . S
C266 C267 1.345 . S
C267 H259 0.950 . S
C267 C266 1.345 . S
C267 C268 1.424 . S
C268 H260 0.951 . S
C268 C267 1.424 . S
C268 C269 1.347 . S
C269 H261 0.951 . S
C269 C264 1.429 . S
C269 C268 1.347 . S
H270 C271 0.951 . S
C271 H270 0.951 . S
C271 C277 1.265 1_655 S
H272 C277 0.950 . S
H273 C281 0.949 . S
H274 C282 0.950 . S
H275 C283 0.951 . S
H276 C284 0.951 . S
C277 C271 1.265 1_455 S
C277 H272 0.950 . S
C277 C278 1.478 . S
C278 C277 1.478 . S
C278 C279 1.397 1_455 S
C278 C295 1.394 . S
C279 C278 1.397 1_655 S
C279 C280 1.438 . S
C279 C284 1.429 . S
C280 C279 1.438 . S
C280 C281 1.428 . S
C280 C293 1.394 . S
C281 H273 0.949 . S
C281 C280 1.428 . S
C281 C282 1.345 . S
C282 H274 0.950 . S
C282 C281 1.345 . S
C282 C283 1.424 . S
C283 H275 0.951 . S
C283 C282 1.424 . S
C283 C284 1.347 . S
C284 H276 0.951 . S
C284 C279 1.429 . S
C284 C283 1.347 . S
H285 C286 0.951 . S
C286 H285 0.951 . S
C286 C292 1.265 1_455 S
H287 C292 0.950 . S
H288 C296 0.949 . S
H289 C297 0.950 . S
H290 C298 0.951 . S
H291 C299 0.951 . S
C292 C286 1.265 1_655 S
C292 H287 0.950 . S
C292 C293 1.478 . S
C293 C280 1.394 . S
C293 C292 1.478 . S
C293 C294 1.397 1_655 S
C294 C293 1.397 1_455 S
C294 C295 1.438 . S
C294 C299 1.429 . S
C295 C278 1.394 . S
C295 C294 1.438 . S
C295 C296 1.428 . S
C296 H288 0.949 . S
C296 C295 1.428 . S
C296 C297 1.345 . S
C297 H289 0.950 . S
C297 C296 1.345 . S
C297 C298 1.424 . S
C298 H290 0.951 . S
C298 C297 1.424 . S
C298 C299 1.347 . S
C299 H291 0.951 . S
C299 C294 1.429 . S
C299 C298 1.347 . S
H300 C301 0.951 . S
C301 H300 0.951 . S
C301 C307 1.265 . S
H302 C307 0.940 1_545 S
H303 C311 0.949 . S
H304 C312 0.950 . S
H305 C313 0.951 . S
H306 C314 0.951 . S
C307 C301 1.265 . S
C307 H302 0.940 1_565 S
C307 C308 1.488 . S
C308 C307 1.488 . S
C308 C309 1.397 . S
C308 C325 1.394 1_565 S
C309 C308 1.397 . S
C309 C310 1.438 . S
C309 C314 1.429 . S
C310 C309 1.438 . S
C310 C311 1.428 . S
C310 C323 1.394 . S
C311 H303 0.949 . S
C311 C310 1.428 . S
C311 C312 1.345 . S
C312 H304 0.950 . S
C312 C311 1.345 . S
C312 C313 1.424 . S
C313 H305 0.951 . S
C313 C312 1.424 . S
C313 C314 1.347 . S
C314 H306 0.951 . S
C314 C309 1.429 . S
C314 C313 1.347 . S
H315 C316 0.965 . S
C316 H315 0.965 . S
C316 C322 1.266 1_545 S
H317 C322 0.950 . S
H318 C326 0.949 . S
H319 C327 0.950 . S
H320 C328 0.951 . S
H321 C329 0.951 . S
C322 C316 1.266 1_565 S
C322 H317 0.950 . S
C322 C323 1.478 . S
C323 C310 1.394 . S
C323 C322 1.478 . S
C323 C324 1.397 1_565 S
C324 C323 1.397 1_545 S
C324 C325 1.438 . S
C324 C329 1.429 . S
C325 C308 1.394 1_545 S
C325 C324 1.438 . S
C325 C326 1.428 . S
C326 H318 0.949 . S
C326 C325 1.428 . S
C326 C327 1.345 . S
C327 H319 0.950 . S
C327 C326 1.345 . S
C327 C328 1.424 . S
C328 H320 0.951 . S
C328 C327 1.424 . S
C328 C329 1.347 . S
C329 H321 0.951 . S
C329 C324 1.429 . S
C329 C328 1.347 . S
H330 C331 0.951 . S
C331 H330 0.951 . S
C331 C337 1.265 . S
H332 C337 0.950 . S
H333 C341 0.949 . S
H334 C342 0.950 . S
H335 C343 0.951 . S
H336 C344 0.951 . S
C337 C331 1.265 . S
C337 H332 0.950 . S
C337 C338 1.478 . S
C338 C337 1.478 . S
C338 C339 1.397 . S
C338 C355 1.394 . S
C339 C338 1.397 . S
C339 C340 1.438 . S
C339 C344 1.429 . S
C340 C339 1.438 . S
C340 C341 1.428 . S
C340 C353 1.394 . S
C341 H333 0.949 . S
C341 C340 1.428 . S
C341 C342 1.345 . S
C342 H334 0.950 . S
C342 C341 1.345 . S
C342 C343 1.424 . S
C343 H335 0.951 . S
C343 C342 1.424 . S
C343 C344 1.347 . S
C344 H336 0.951 . S
C344 C339 1.429 . S
C344 C343 1.347 . S
H345 C346 0.951 . S
C346 H345 0.951 . S
C346 C352 1.265 . S
H347 C352 0.950 . S
H348 C356 0.949 . S
H349 C357 0.950 . S
H350 C358 0.951 . S
H351 C359 0.951 . S
C352 C346 1.265 . S
C352 H347 0.950 . S
C352 C353 1.478 . S
C353 C340 1.394 . S
C353 C352 1.478 . S
C353 C354 1.397 . S
C354 C353 1.397 . S
C354 C355 1.438 . S
C354 C359 1.429 . S
C355 C338 1.394 . S
C355 C354 1.438 . S
C355 C356 1.428 . S
C356 H348 0.949 . S
C356 C355 1.428 . S
C356 C357 1.345 . S
C357 H349 0.950 . S
C357 C356 1.345 . S
C357 C358 1.424 . S
C358 H350 0.951 . S
C358 C357 1.424 . S
C358 C359 1.347 . S
C359 H351 0.951 . S
C359 C354 1.429 . S
C359 C358 1.347 . S
H360 C361 0.951 . S
C361 H360 0.951 . S
C361 C367 1.265 . S
H362 C367 0.950 . S
H363 C371 0.949 . S
H364 C372 0.950 . S
H365 C373 0.951 . S
H366 C374 0.951 . S
C367 C361 1.265 . S
C367 H362 0.950 . S
C367 C368 1.478 . S
C368 C367 1.478 . S
C368 C369 1.397 1_565 S
C368 C385 1.394 . S
C369 C368 1.397 1_545 S
C369 C370 1.438 . S
C369 C374 1.429 . S
C370 C369 1.438 . S
C370 C371 1.428 . S
C370 C383 1.394 1_545 S
C371 H363 0.949 . S
C371 C370 1.428 . S
C371 C372 1.345 . S
C372 H364 0.950 . S
C372 C371 1.345 . S
C372 C373 1.424 . S
C373 H365 0.951 . S
C373 C372 1.424 . S
C373 C374 1.347 . S
C374 H366 0.951 . S
C374 C369 1.429 . S
C374 C373 1.347 . S
H375 C376 0.942 1_545 S
C376 H375 0.942 1_565 S
C376 C382 1.274 . S
H377 C382 0.950 . S
H378 C386 0.949 . S
H379 C387 0.950 . S
H380 C388 0.951 . S
H381 C389 0.951 . S
C382 C376 1.274 . S
C382 H377 0.950 . S
C382 C383 1.478 . S
C383 C370 1.394 1_565 S
C383 C382 1.478 . S
C383 C384 1.397 . S
C384 C383 1.397 . S
C384 C385 1.438 . S
C384 C389 1.429 . S
C385 C368 1.394 . S
C385 C384 1.438 . S
C385 C386 1.428 . S
C386 H378 0.949 . S
C386 C385 1.428 . S
C386 C387 1.345 . S
C387 H379 0.950 . S
C387 C386 1.345 . S
C387 C388 1.424 . S
C388 H380 0.951 . S
C388 C387 1.424 . S
C388 C389 1.347 . S
C389 H381 0.951 . S
C389 C384 1.429 . S
C389 C388 1.347 . S
H390 C391 0.951 . S
C391 H390 0.951 . S
C391 C397 1.265 . S
H392 C397 0.950 . S
H393 C401 0.949 . S
H394 C402 0.950 . S
H395 C403 0.951 . S
H396 C404 0.951 . S
C397 C391 1.265 . S
C397 H392 0.950 . S
C397 C398 1.478 . S
C398 C397 1.478 . S
C398 C399 1.397 . S
C398 C415 1.394 . S
C399 C398 1.397 . S
C399 C400 1.438 . S
C399 C404 1.429 . S
C400 C399 1.438 . S
C400 C401 1.428 . S
C400 C413 1.394 1_554 S
C401 H393 0.949 . S
C401 C400 1.428 . S
C401 C402 1.345 . S
C402 H394 0.950 . S
C402 C401 1.345 . S
C402 C403 1.424 . S
C403 H395 0.951 . S
C403 C402 1.424 . S
C403 C404 1.347 . S
C404 H396 0.951 . S
C404 C399 1.429 . S
C404 C403 1.347 . S
H405 C406 0.951 . S
C406 H405 0.951 . S
C406 C412 1.265 . S
H407 C412 0.950 . S
H408 C416 0.968 . S
H409 C417 0.950 . S
H410 C418 0.951 . S
H411 C419 0.951 . S
C412 C406 1.265 . S
C412 H407 0.950 . S
C412 C413 1.478 . S
C413 C400 1.394 1_556 S
C413 C412 1.478 . S
C413 C414 1.397 . S
C414 C413 1.397 . S
C414 C415 1.438 1_556 S
C414 C419 1.429 . S
C415 C398 1.394 . S
C415 C414 1.438 1_554 S
C415 C416 1.434 . S
C416 H408 0.968 . S
C416 C415 1.434 . S
C416 C417 1.321 1_554 S
C417 H409 0.950 . S
C417 C416 1.321 1_556 S
C417 C418 1.424 . S
C418 H410 0.951 . S
C418 C417 1.424 . S
C418 C419 1.347 . S
C419 H411 0.951 . S
C419 C414 1.429 . S
C419 C418 1.347 . S
H420 C421 0.951 . S
C421 H420 0.951 . S
C421 C427 1.265 1_455 S
H422 C427 0.950 . S
H423 C431 0.949 . S
H424 C432 0.950 . S
H425 C433 0.951 . S
H426 C434 0.951 . S
C427 C421 1.265 1_655 S
C427 H422 0.950 . S
C427 C428 1.478 . S
C428 C427 1.478 . S
C428 C429 1.397 . S
C428 C445 1.394 1_655 S
C429 C428 1.397 . S
C429 C430 1.438 1_655 S
C429 C434 1.429 . S
C430 C429 1.438 1_455 S
C430 C431 1.428 . S
C430 C443 1.394 . S
C431 H423 0.949 . S
C431 C430 1.428 . S
C431 C432 1.345 1_455 S
C432 H424 0.950 . S
C432 C431 1.345 1_655 S
C432 C433 1.424 . S
C433 H425 0.951 . S
C433 C432 1.424 . S
C433 C434 1.347 . S
C434 H426 0.951 . S
C434 C429 1.429 . S
C434 C433 1.347 . S
H435 C436 0.951 . S
C436 H435 0.951 . S
C436 C442 1.265 1_655 S
H437 C442 0.950 . S
H438 C446 0.949 1_655 S
H439 C447 0.950 . S
H440 C448 0.951 . S
H441 C449 0.951 . S
C442 C436 1.265 1_455 S
C442 H437 0.950 . S
C442 C443 1.478 . S
C443 C430 1.394 . S
C443 C442 1.478 . S
C443 C444 1.397 . S
C444 C443 1.397 . S
C444 C445 1.438 . S
C444 C449 1.429 . S
C445 C428 1.394 1_455 S
C445 C444 1.438 . S
C445 C446 1.428 . S
C446 H438 0.949 1_455 S
C446 C445 1.428 . S
C446 C447 1.345 . S
C447 H439 0.950 . S
C447 C446 1.345 . S
C447 C448 1.424 . S
C448 H440 0.951 . S
C448 C447 1.424 . S
C448 C449 1.347 . S
C449 H441 0.951 . S
C449 C444 1.429 . S
C449 C448 1.347 . S
H450 C451 0.951 . S
C451 H450 0.951 . S
C451 C457 1.265 1_545 S
H452 C457 0.950 . S
H453 C461 0.949 . S
H454 C462 0.950 . S
H455 C463 0.951 . S
H456 C464 0.951 . S
C457 C451 1.265 1_565 S
C457 H452 0.950 . S
C457 C458 1.478 . S
C458 C457 1.478 . S
C458 C459 1.397 . S
C458 C475 1.394 1_565 S
C459 C458 1.397 . S
C459 C460 1.438 1_565 S
C459 C464 1.429 . S
C460 C459 1.438 1_545 S
C460 C461 1.428 . S
C460 C473 1.394 . S
C461 H453 0.949 . S
C461 C460 1.428 . S
C461 C462 1.341 . S
C462 H454 0.950 . S
C462 C461 1.341 . S
C462 C463 1.428 1_545 S
C463 H455 0.951 . S
C463 C462 1.428 1_565 S
C463 C464 1.347 . S
C464 H456 0.951 . S
C464 C459 1.429 . S
C464 C463 1.347 . S
H465 C466 0.951 . S
C466 H465 0.951 . S
C466 C472 1.265 1_565 S
H467 C472 0.950 . S
H468 C476 0.947 . S
H469 C477 0.950 . S
H470 C478 0.951 . S
H471 C479 0.951 . S
C472 C466 1.265 1_545 S
C472 H467 0.950 . S
C472 C473 1.478 . S
C473 C460 1.394 . S
C473 C472 1.478 . S
C473 C474 1.397 . S
C474 C473 1.397 . S
C474 C475 1.438 . S
C474 C479 1.429 . S
C475 C458 1.394 1_545 S
C475 C474 1.438 . S
C475 C476 1.427 1_545 S
C476 H468 0.947 . S
C476 C475 1.427 1_565 S
C476 C477 1.348 1_565 S
C477 H469 0.950 . S
C477 C476 1.348 1_545 S
C477 C478 1.424 . S
C478 H470 0.951 . S
C478 C477 1.424 . S
C478 C479 1.347 . S
C479 H471 0.951 . S
C479 C474 1.429 . S
C479 C478 1.347 . S
H480 C481 0.951 . S
C481 H480 0.951 . S
C481 C487 1.265 . S
H482 C487 0.950 . S
H483 C491 0.949 . S
H484 C492 0.950 . S
H485 C493 0.951 . S
H486 C494 0.951 . S
C487 C481 1.265 . S
C487 H482 0.950 . S
C487 C488 1.478 . S
C488 C487 1.478 . S
C488 C489 1.397 1_554 S
C488 C505 1.394 . S
C489 C488 1.397 1_556 S
C489 C490 1.438 . S
C489 C494 1.429 . S
C490 C489 1.438 . S
C490 C491 1.428 . S
C490 C503 1.394 . S
C491 H483 0.949 . S
C491 C490 1.428 . S
C491 C492 1.345 . S
C492 H484 0.950 . S
C492 C491 1.345 . S
C492 C493 1.424 . S
C493 H485 0.951 . S
C493 C492 1.424 . S
C493 C494 1.347 . S
C494 H486 0.951 . S
C494 C489 1.429 . S
C494 C493 1.347 . S
H495 C496 0.951 . S
C496 H495 0.951 . S
C496 C502 1.265 . S
H497 C502 0.950 . S
H498 C506 0.949 . S
H499 C507 0.950 . S
H500 C508 0.951 . S
H501 C509 0.951 . S
C502 C496 1.265 . S
C502 H497 0.950 . S
C502 C503 1.478 . S
C503 C490 1.394 . S
C503 C502 1.478 . S
C503 C504 1.397 1_556 S
C504 C503 1.397 1_554 S
C504 C505 1.438 . S
C504 C509 1.429 . S
C505 C488 1.394 . S
C505 C504 1.438 . S
C505 C506 1.428 . S
C506 H498 0.949 . S
C506 C505 1.428 . S
C506 C507 1.345 . S
C507 H499 0.950 . S
C507 C506 1.345 . S
C507 C508 1.424 . S
C508 H500 0.951 . S
C508 C507 1.424 . S
C508 C509 1.347 . S
C509 H501 0.951 . S
C509 C504 1.429 . S
C509 C508 1.347 . S
H510 C511 0.951 . S
C511 H510 0.951 . S
C511 C517 1.265 1_455 S
H512 C517 0.950 . S
H513 C521 0.949 . S
H514 C522 0.950 . S
H515 C523 0.951 . S
H516 C524 0.951 . S
C517 C511 1.265 1_655 S
C517 H512 0.950 . S
C517 C518 1.478 . S
C518 C517 1.478 . S
C518 C519 1.397 . S
C518 C535 1.394 1_655 S
C519 C518 1.397 . S
C519 C520 1.438 . S
C519 C524 1.429 . S
C520 C519 1.438 . S
C520 C521 1.428 . S
C520 C533 1.394 1_655 S
C521 H513 0.949 . S
C521 C520 1.428 . S
C521 C522 1.345 . S
C522 H514 0.950 . S
C522 C521 1.345 . S
C522 C523 1.424 . S
C523 H515 0.951 . S
C523 C522 1.424 . S
C523 C524 1.347 . S
C524 H516 0.951 . S
C524 C519 1.429 . S
C524 C523 1.347 . S
H525 C526 0.951 . S
C526 H525 0.951 . S
C526 C532 1.265 1_655 S
H527 C532 0.950 . S
H528 C536 0.949 . S
H529 C537 0.950 . S
H530 C538 0.951 . S
H531 C539 0.951 . S
C532 C526 1.265 1_455 S
C532 H527 0.950 . S
C532 C533 1.478 . S
C533 C520 1.394 1_455 S
C533 C532 1.478 . S
C533 C534 1.397 . S
C534 C533 1.397 . S
C534 C535 1.438 . S
C534 C539 1.429 . S
C535 C518 1.394 1_455 S
C535 C534 1.438 . S
C535 C536 1.428 . S
C536 H528 0.949 . S
C536 C535 1.428 . S
C536 C537 1.345 . S
C537 H529 0.950 . S
C537 C536 1.345 . S
C537 C538 1.424 . S
C538 H530 0.951 . S
C538 C537 1.424 . S
C538 C539 1.347 . S
C539 H531 0.951 . S
C539 C534 1.429 . S
C539 C538 1.347 . S
C196 C50 1.479 1_455 S
C181 C6 1.429 . S
C211 C22 1.554 . S
C226 C89 1.584 . S
C241 C34 1.201 . S
C256 C156 1.255 . S
C271 C7 1.461 1_655 S
C286 C57 1.479 1_455 S
C316 C110 1.581 1_545 S
C301 C23 1.552 . S
C331 C35 1.253 . S
C346 C135 1.255 . S
C376 C96 1.587 1_565 S
C361 C36 1.586 . S
C391 C9 1.805 . S
C406 C149 1.821 . S
C436 C64 1.476 1_655 S
C421 C21 1.466 1_455 S
C466 C103 1.596 1_565 S
C451 C37 1.546 . S
C496 C142 1.820 . S
C481 C8 1.759 . S
C511 C20 1.424 . S
C526 C43 1.473 1_655 S
