# Generated by pormake.
# Topology nom, (4,4)-cn, num edge types: 1
# Building blocks:
#     Node 0, Type 0, BuildingBlock: MIFKUJ_clean_linker_1, # of connection points: 4
#     Node 1, Type 0, BuildingBlock: MIFKUJ_clean_linker_1, # of connection points: 4
#     Node 2, Type 0, BuildingBlock: MIFKUJ_clean_linker_1, # of connection points: 4
#     Node 3, Type 0, BuildingBlock: MIFKUJ_clean_linker_1, # of connection points: 4
#     Node 4, Type 0, BuildingBlock: MIFKUJ_clean_linker_1, # of connection points: 4
#     Node 5, Type 0, BuildingBlock: MIFKUJ_clean_linker_1, # of connection points: 4
#     Node 6, Type 1, BuildingBlock: NAHDIM_clean_sbu_0, # of connection points: 4
#     Node 7, Type 1, BuildingBlock: NAHDIM_clean_sbu_0, # of connection points: 4
#     Node 8, Type 1, BuildingBlock: NAHDIM_clean_sbu_0, # of connection points: 4
#     Node 9, Type 1, BuildingBlock: NAHDIM_clean_sbu_0, # of connection points: 4
#     Node 10, Type 1, BuildingBlock: NAHDIM_clean_sbu_0, # of connection points: 4
#     Node 11, Type 1, BuildingBlock: NAHDIM_clean_sbu_0, # of connection points: 4
#     Edge 12, Type (0, 1), BuildingBlock: ZUJKAS_clean_linker_0, # of connection points: 2
#     Edge 13, Type (0, 1), BuildingBlock: ZUJKAS_clean_linker_0, # of connection points: 2
#     Edge 14, Type (0, 1), BuildingBlock: ZUJKAS_clean_linker_0, # of connection points: 2
#     Edge 15, Type (0, 1), BuildingBlock: ZUJKAS_clean_linker_0, # of connection points: 2
#     Edge 16, Type (0, 1), BuildingBlock: ZUJKAS_clean_linker_0, # of connection points: 2
#     Edge 17, Type (0, 1), BuildingBlock: ZUJKAS_clean_linker_0, # of connection points: 2
#     Edge 18, Type (0, 1), BuildingBlock: ZUJKAS_clean_linker_0, # of connection points: 2
#     Edge 19, Type (0, 1), BuildingBlock: ZUJKAS_clean_linker_0, # of connection points: 2
#     Edge 20, Type (0, 1), BuildingBlock: ZUJKAS_clean_linker_0, # of connection points: 2
#     Edge 21, Type (0, 1), BuildingBlock: ZUJKAS_clean_linker_0, # of connection points: 2
#     Edge 22, Type (0, 1), BuildingBlock: ZUJKAS_clean_linker_0, # of connection points: 2
#     Edge 23, Type (0, 1), BuildingBlock: ZUJKAS_clean_linker_0, # of connection points: 2
#     Edge 24, Type (0, 1), BuildingBlock: ZUJKAS_clean_linker_0, # of connection points: 2
#     Edge 25, Type (0, 1), BuildingBlock: ZUJKAS_clean_linker_0, # of connection points: 2
#     Edge 26, Type (0, 1), BuildingBlock: ZUJKAS_clean_linker_0, # of connection points: 2
#     Edge 27, Type (0, 1), BuildingBlock: ZUJKAS_clean_linker_0, # of connection points: 2
#     Edge 28, Type (0, 1), BuildingBlock: ZUJKAS_clean_linker_0, # of connection points: 2
#     Edge 29, Type (0, 1), BuildingBlock: ZUJKAS_clean_linker_0, # of connection points: 2
#     Edge 30, Type (0, 1), BuildingBlock: ZUJKAS_clean_linker_0, # of connection points: 2
#     Edge 31, Type (0, 1), BuildingBlock: ZUJKAS_clean_linker_0, # of connection points: 2
#     Edge 32, Type (0, 1), BuildingBlock: ZUJKAS_clean_linker_0, # of connection points: 2
#     Edge 33, Type (0, 1), BuildingBlock: ZUJKAS_clean_linker_0, # of connection points: 2
#     Edge 34, Type (0, 1), BuildingBlock: ZUJKAS_clean_linker_0, # of connection points: 2
#     Edge 35, Type (0, 1), BuildingBlock: ZUJKAS_clean_linker_0, # of connection points: 2
# Relax obj value: 0.020
# Max RMSD: 0.118
# Mean RMSD: 0.104
data_MOF--net-nom--node1-NAHDIM_clean_sbu_0--node2-MIFKUJ_clean_linker_1--edge1-ZUJKAS_clean_linker_0
_symmetry_space_group_name_H-M    P1
_symmetry_Int_Tables_number       1
_symmetry_cell_setting            triclinic
loop_
_symmetry_equiv_pos_as_xyz
'x, y, z'
_cell_length_a     65.679914
_cell_length_b     67.528278
_cell_length_c     70.566448
_cell_angle_alpha  90.003821
_cell_angle_beta   90.540089
_cell_angle_gamma 120.94444
loop_
_atom_site_label
_atom_site_type_symbol
_atom_site_fract_x
_atom_site_fract_y
_atom_site_fract_z
_atom_type_partial_charge
H0 H 0.98057 0.47111 0.28098 0.0
H1 H 0.95283 0.45477 0.25424 0.0
H2 H 0.92335 0.49705 0.26889 0.0
H3 H 0.95181 0.51397 0.2952 0.0
H4 H 0.01511 0.51701 0.28713 0.0
H5 H 0.9406 0.459 0.31877 0.0
H6 H 0.89892 0.44417 0.3267 0.0
H7 H 0.91861 0.51008 0.35189 0.0
H8 H 0.95989 0.52491 0.34347 0.0
H9 H 0.02294 0.55094 0.36496 0.0
H10 H 0.05095 0.56425 0.39165 0.0
H11 H 0.08454 0.52927 0.36796 0.0
H12 H 0.05646 0.51595 0.34133 0.0
H13 H 0.99033 0.51088 0.35409 0.0
H14 H 0.05494 0.57146 0.32495 0.0
H15 H 0.09516 0.59845 0.31427 0.0
H16 H 0.09524 0.54347 0.28301 0.0
H17 H 0.05492 0.51632 0.29403 0.0
C18 C 0.96808 0.49355 0.2902 0.0
C19 C 0.96812 0.47685 0.27841 0.0
C20 C 0.95211 0.46738 0.26323 0.0
C21 C 0.93576 0.47449 0.25948 0.0
C22 C 0.93582 0.49131 0.2713 0.0
C23 C 0.95191 0.50084 0.28646 0.0
C24 C 0.98545 0.50368 0.30606 0.0
C25 C 0.00972 0.51527 0.30182 0.0
C26 C 0.97842 0.50282 0.32508 0.0
C27 C 0.95328 0.49312 0.33038 0.0
C28 C 0.93586 0.47023 0.32593 0.0
C29 C 0.91212 0.46175 0.33058 0.0
C30 C 0.90547 0.47603 0.3398 0.0
C31 C 0.92308 0.49878 0.3445 0.0
C32 C 0.94672 0.50721 0.33987 0.0
C33 C 0.03764 0.53253 0.35107 0.0
C34 C 0.03631 0.54611 0.36552 0.0
C35 C 0.0523 0.55366 0.38079 0.0
C36 C 0.06993 0.54777 0.38193 0.0
C37 C 0.07137 0.53435 0.36736 0.0
C38 C 0.05532 0.52673 0.35213 0.0
C39 C 0.02006 0.52372 0.33523 0.0
C40 C 0.9958 0.51238 0.33944 0.0
C41 C 0.02708 0.52604 0.31608 0.0
C42 C 0.05203 0.54182 0.31044 0.0
C43 C 0.06372 0.56511 0.31603 0.0
C44 C 0.08661 0.58057 0.30976 0.0
C45 C 0.09827 0.57308 0.29773 0.0
C46 C 0.08672 0.54967 0.29238 0.0
C47 C 0.0637 0.53419 0.29858 0.0
H48 H 0.45434 0.97349 0.51714 0.0
H49 H 0.42826 0.93296 0.52512 0.0
H50 H 0.4748 0.91587 0.49585 0.0
H51 H 0.50142 0.95677 0.48854 0.0
H52 H 0.49961 0.00389 0.52597 0.0
H53 H 0.45424 0.96712 0.4686 0.0
H54 H 0.44057 0.93882 0.44285 0.0
H55 H 0.51303 0.96813 0.42436 0.0
H56 H 0.52663 0.99568 0.45071 0.0
H57 H 0.55681 0.06681 0.46435 0.0
H58 H 0.57101 0.10657 0.45432 0.0
H59 H 0.51842 0.10815 0.48953 0.0
H60 H 0.50402 0.06848 0.49916 0.0
H61 H 0.51575 0.0291 0.45898 0.0
H62 H 0.56129 0.06756 0.51475 0.0
H63 H 0.57561 0.09465 0.54157 0.0
H64 H 0.50402 0.06273 0.56259 0.0
H65 H 0.4898 0.03589 0.53571 0.0
C66 C 0.47971 0.96813 0.50211 0.0
C67 C 0.45906 0.96105 0.5126 0.0
C68 C 0.44403 0.93783 0.51697 0.0
C69 C 0.4493 0.92114 0.51094 0.0
C70 C 0.4703 0.92831 0.50079 0.0
C71 C 0.48543 0.95164 0.49647 0.0
C72 C 0.49474 0.99275 0.49684 0.0
C73 C 0.50309 0.00942 0.51131 0.0
C74 C 0.49999 -5e-05 0.47776 0.0
C75 C 0.49149 0.98325 0.46175 0.0
C76 C 0.46718 0.96728 0.45911 0.0
C77 C 0.45938 0.95127 0.44425 0.0
C78 C 0.47571 0.95113 0.43155 0.0
C79 C 0.50001 0.96747 0.43406 0.0
C80 C 0.50781 0.98338 0.449 0.0
C81 C 0.52963 0.06477 0.48278 0.0
C82 C 0.54843 0.07577 0.46996 0.0
C83 C 0.55648 0.09844 0.46421 0.0
C84 C 0.54591 0.11048 0.47126 0.0
C85 C 0.5272 0.09946 0.48415 0.0
C86 C 0.51902 0.07679 0.48972 0.0
C87 C 0.52001 0.04029 0.48811 0.0
C88 C 0.51271 0.02363 0.47366 0.0
C89 C 0.51579 0.03307 0.50723 0.0
C90 C 0.52448 0.04977 0.52322 0.0
C91 C 0.54869 0.06652 0.52508 0.0
C92 C 0.55686 0.08187 0.54044 0.0
C93 C 0.54091 0.0808 0.55413 0.0
C94 C 0.51667 0.06412 0.55214 0.0
C95 C 0.50855 0.04867 0.53689 0.0
H96 H 0.53176 0.56014 0.68586 0.0
H97 H 0.51938 0.57509 0.71213 0.0
H98 H 0.44591 0.5289 0.69627 0.0
H99 H 0.45842 0.51358 0.67041 0.0
H100 H 0.52034 0.51447 0.67989 0.0
H101 H 0.50505 0.57053 0.64732 0.0
H102 H 0.47853 0.58476 0.63884 0.0
H103 H 0.42917 0.51855 0.61351 0.0
H104 H 0.4553 0.5043 0.62246 0.0
H105 H 0.48951 0.47601 0.6043 0.0
H106 H 0.50216 0.46176 0.57782 0.0
H107 H 0.57482 0.50196 0.59789 0.0
H108 H 0.56191 0.51572 0.62458 0.0
H109 H 0.50012 0.51819 0.61259 0.0
H110 H 0.5025 0.45919 0.64396 0.0
H111 H 0.51545 0.43326 0.65539 0.0
H112 H 0.57498 0.49039 0.68428 0.0
H113 H 0.56204 0.51645 0.67255 0.0
C114 C 0.49603 0.53594 0.67608 0.0
C115 C 0.513 0.55327 0.68806 0.0
C116 C 0.5059 0.56191 0.70296 0.0
C117 C 0.48166 0.55324 0.70625 0.0
C118 C 0.4647 0.53581 0.69422 0.0
C119 C 0.47182 0.52719 0.67933 0.0
C120 C 0.50369 0.52661 0.66049 0.0
C121 C 0.51644 0.51577 0.66513 0.0
C122 C 0.49723 0.52698 0.64136 0.0
C123 C 0.48203 0.5363 0.63566 0.0
C124 C 0.48847 0.55911 0.64 0.0
C125 C 0.4734 0.56725 0.63503 0.0
C126 C 0.45169 0.55271 0.62563 0.0
C127 C 0.44557 0.53004 0.62102 0.0
C128 C 0.4606 0.52195 0.62596 0.0
C129 C 0.52475 0.49691 0.61642 0.0
C130 C 0.50815 0.48168 0.60302 0.0
C131 C 0.51544 0.47364 0.58783 0.0
C132 C 0.53955 0.48084 0.58563 0.0
C133 C 0.55609 0.49583 0.59926 0.0
C134 C 0.54875 0.50377 0.61452 0.0
C135 C 0.51713 0.50638 0.63195 0.0
C136 C 0.50448 0.51729 0.62732 0.0
C137 C 0.52249 0.50494 0.65116 0.0
C138 C 0.53147 0.4898 0.65723 0.0
C139 C 0.51855 0.46622 0.65252 0.0
C140 C 0.5258 0.45138 0.65923 0.0
C141 C 0.54614 0.4598 0.67081 0.0
C142 C 0.55931 0.48348 0.67529 0.0
C143 C 0.55192 0.49834 0.66867 0.0
H144 H 0.02174 0.53191 0.77924 0.0
H145 H 0.04977 0.54742 0.75308 0.0
H146 H 0.08059 0.50736 0.77137 0.0
H147 H 0.05226 0.49163 0.7974 0.0
H148 H 0.98797 0.48796 0.78686 0.0
H149 H 0.0616 0.54715 0.8182 0.0
H150 H 0.10356 0.56385 0.82669 0.0
H151 H 0.08675 0.50032 0.85465 0.0
H152 H 0.04509 0.48353 0.84558 0.0
H153 H 0.97904 0.4557 0.86484 0.0
H154 H 0.95128 0.4441 0.89116 0.0
H155 H 0.921 0.48192 0.86644 0.0
H156 H 0.94927 0.49404 0.84051 0.0
H157 H 0.01335 0.49636 0.85428 0.0
H158 H 0.94569 0.4357 0.82483 0.0
H159 H 0.90467 0.41103 0.81417 0.0
H160 H 0.90916 0.46812 0.78279 0.0
H161 H 0.95046 0.49264 0.79329 0.0
C162 C 0.03507 0.51083 0.79041 0.0
C163 C 0.03448 0.52641 0.77758 0.0
C164 C 0.05047 0.53522 0.76263 0.0
C165 C 0.06739 0.52863 0.76022 0.0
C166 C 0.06795 0.51298 0.77304 0.0
C167 C 0.05179 0.504 0.78792 0.0
C168 C 0.01784 0.50153 0.80614 0.0
C169 C 0.99354 0.49015 0.80162 0.0
C170 C 0.02503 0.50326 0.82534 0.0
C171 C 0.0503 0.51401 0.83108 0.0
C172 C 0.06702 0.53682 0.82608 0.0
C173 C 0.09094 0.54639 0.83107 0.0
C174 C 0.09849 0.53335 0.84124 0.0
C175 C 0.08157 0.51068 0.84653 0.0
C176 C 0.05773 0.50114 0.84153 0.0
C177 C 0.96614 0.47561 0.85064 0.0
C178 C 0.96643 0.4615 0.86512 0.0
C179 C 0.95043 0.45474 0.88006 0.0
C180 C 0.93391 0.46207 0.88087 0.0
C181 C 0.93364 0.47617 0.86633 0.0
C182 C 0.94963 0.48291 0.85139 0.0
C183 C 0.98351 0.48328 0.83501 0.0
C184 C 0.00778 0.49432 0.83953 0.0
C185 C 0.9763 0.48052 0.81577 0.0
C186 C 0.95104 0.46605 0.80999 0.0
C187 C 0.93774 0.44298 0.81584 0.0
C188 C 0.91426 0.42891 0.80976 0.0
C189 C 0.90359 0.43761 0.79766 0.0
C190 C 0.91693 0.4608 0.79191 0.0
C191 C 0.94048 0.47486 0.79796 0.0
H192 H 0.54797 0.05067 0.01925 0.0
H193 H 0.57496 0.09075 0.02841 0.0
H194 H 0.52807 0.11 0.0019 0.0
H195 H 0.50053 0.06948 0.99337 0.0
H196 H 0.50298 0.02127 0.02892 0.0
H197 H 0.54507 0.05732 0.97041 0.0
H198 H 0.55731 0.08491 0.94438 0.0
H199 H 0.48366 0.05866 0.92984 0.0
H200 H 0.47157 0.03102 0.95585 0.0
H201 H 0.44165 0.95773 0.96817 0.0
H202 H 0.42756 0.9181 0.95762 0.0
H203 H 0.4848 0.91893 0.98907 0.0
H204 H 0.49859 0.95822 -0.00043 0.0
H205 H 0.48284 0.9965 0.96178 0.0
H206 H 0.44052 0.95676 0.01659 0.0
H207 H 0.42691 0.92965 0.04303 0.0
H208 H 0.4986 0.96331 0.06538 0.0
H209 H 0.51221 0.9899 0.03864 0.0
C210 C 0.52231 0.0571 0.00552 0.0
C211 C 0.5434 0.06348 0.01551 0.0
C212 C 0.55895 0.08646 0.02056 0.0
C213 C 0.55379 0.10361 0.01572 0.0
C214 C 0.53248 0.09717 0.00592 0.0
C215 C 0.51683 0.07407 0.0009 0.0
C216 C 0.50641 0.03258 -0.0 0.0
C217 C 0.49866 0.01582 0.01423 0.0
C218 C 0.49984 0.02554 0.98092 0.0
C219 C 0.50741 0.04232 0.96518 0.0
C220 C 0.53158 0.05766 0.9617 0.0
C221 C 0.53854 0.07345 0.94685 0.0
C222 C 0.52145 0.07405 0.93508 0.0
C223 C 0.49725 0.05849 0.93852 0.0
C224 C 0.49032 0.04275 0.9534 0.0
C225 C 0.47094 0.9608 0.98489 0.0
C226 C 0.45102 0.94926 0.97286 0.0
C227 C 0.44307 0.92667 0.9668 0.0
C228 C 0.45499 0.91531 0.97259 0.0
C229 C 0.4749 0.92696 0.98466 0.0
C230 C 0.48282 0.94947 0.99069 0.0
C231 C 0.48036 0.98514 0.99066 0.0
C232 C 0.48677 0.00188 0.9765 0.0
C233 C 0.48557 0.9922 0.00984 0.0
C234 C 0.4774 0.97532 0.02559 0.0
C235 C 0.45335 0.95812 0.02706 0.0
C236 C 0.44556 0.94277 0.04227 0.0
C237 C 0.46168 0.94436 0.05631 0.0
C238 C 0.48579 0.96145 0.05468 0.0
C239 C 0.49356 0.97681 0.0395 0.0
H240 H 0.47277 0.46703 0.18775 0.0
H241 H 0.48545 0.45306 0.21477 0.0
H242 H 0.55878 0.49941 0.19992 0.0
H243 H 0.54597 0.51368 0.17325 0.0
H244 H 0.48394 0.51259 0.18044 0.0
H245 H 0.49894 0.45517 0.15131 0.0
H246 H 0.52503 0.44012 0.14459 0.0
H247 H 0.57425 0.50428 0.11715 0.0
H248 H 0.54862 0.51946 0.12452 0.0
H249 H 0.51574 0.54842 0.10528 0.0
H250 H 0.50425 0.56321 0.07825 0.0
H251 H 0.43096 0.52364 0.09563 0.0
H252 H 0.44275 0.50937 0.12294 0.0
H253 H 0.50423 0.50597 0.11412 0.0
H254 H 0.49995 0.56587 0.14191 0.0
H255 H 0.48606 0.59152 0.15154 0.0
H256 H 0.42916 0.53584 0.18279 0.0
H257 H 0.4431 0.51003 0.17291 0.0
C258 C 0.50842 0.4912 0.17842 0.0
C259 C 0.49157 0.47417 0.19037 0.0
C260 C 0.49884 0.4661 0.20569 0.0
C261 C 0.52312 0.47508 0.20944 0.0
C262 C 0.53995 0.49229 0.19751 0.0
C263 C 0.53267 0.50031 0.18217 0.0
C264 C 0.50063 0.49968 0.16218 0.0
C265 C 0.48785 0.51068 0.16588 0.0
C266 C 0.50701 0.49838 0.14333 0.0
C267 C 0.52196 0.48852 0.13859 0.0
C268 C 0.51542 0.466 0.14394 0.0
C269 C 0.53024 0.45736 0.13995 0.0
C270 C 0.55179 0.47107 0.13044 0.0
C271 C 0.55799 0.49343 0.12478 0.0
C272 C 0.54324 0.50205 0.12881 0.0
C273 C 0.48011 0.52782 0.11612 0.0
C274 C 0.4972 0.54294 0.10325 0.0
C275 C 0.49056 0.55129 0.08776 0.0
C276 C 0.46664 0.54452 0.08468 0.0
C277 C 0.44957 0.52946 0.09769 0.0
C278 C 0.45625 0.52121 0.11327 0.0
C279 C 0.48725 0.51864 0.13233 0.0
C280 C 0.49985 0.5075 0.12863 0.0
C281 C 0.48177 0.52085 0.15126 0.0
C282 C 0.47231 0.53589 0.15639 0.0
C283 C 0.48417 0.55899 0.15048 0.0
C284 C 0.47624 0.57368 0.15604 0.0
C285 C 0.45644 0.56566 0.16784 0.0
C286 C 0.44456 0.54252 0.17378 0.0
C287 C 0.45244 0.52776 0.1681 0.0
C288 C 0.60472 0.33868 0.4174 0.0
O289 O 0.61629 0.35519 0.42999 0.0
O290 O 0.65069 0.38944 0.38884 0.0
Zn291 Zn 0.6166 0.37784 0.39503 0.0
O292 O 0.61385 0.39428 0.41785 0.0
C293 C 0.60964 0.40414 0.36754 0.0
O294 O 0.62754 0.42051 0.37731 0.0
O295 O 0.60165 0.34401 0.40078 0.0
C296 C 0.59483 0.39451 0.42029 0.0
O297 O 0.5776 0.38441 0.40767 0.0
C298 C 0.6685 0.40708 0.3962 0.0
O299 O 0.66514 0.41936 0.40885 0.0
O300 O 0.60117 0.38325 0.37245 0.0
C301 C 0.29002 0.68217 0.55525 0.0
O302 O 0.29115 0.66625 0.5454 0.0
O303 O 0.28118 0.63214 0.57871 0.0
Zn304 Zn 0.25742 0.64184 0.57389 0.0
O305 O 0.23713 0.62614 0.55085 0.0
C306 C 0.22121 0.61277 0.59923 0.0
O307 O 0.21909 0.59756 0.58654 0.0
O308 O 0.27584 0.67596 0.56911 0.0
C309 C 0.22261 0.63235 0.54588 0.0
O310 O 0.22152 0.64809 0.55603 0.0
C311 C 0.28079 0.61486 0.5712 0.0
O312 O 0.26363 0.60167 0.55924 0.0
O313 O 0.23679 0.63392 0.59684 0.0
C314 C 0.60965 0.29472 0.72894 0.0
O315 O 0.62741 0.29519 0.72011 0.0
O316 O 0.64655 0.27834 0.75066 0.0
Zn317 Zn 0.61123 0.25809 0.74611 0.0
O318 O 0.60394 0.23792 0.72301 0.0
C319 C 0.60877 0.23251 0.77914 0.0
O320 O 0.63094 0.24039 0.77443 0.0
O321 O 0.59865 0.27935 0.74143 0.0
C322 C 0.61068 0.22343 0.72122 0.0
O323 O 0.62321 0.22142 0.73488 0.0
C324 C 0.66264 0.28193 0.73892 0.0
O325 O 0.65665 0.27177 0.72224 0.0
O326 O 0.59625 0.23798 0.76907 0.0
C327 C 0.39619 0.68855 0.91263 0.0
O328 O 0.3794 0.67087 0.92187 0.0
O329 O 0.35826 0.63735 0.88698 0.0
Zn330 Zn 0.39294 0.65114 0.89308 0.0
O331 O 0.39736 0.63605 0.91614 0.0
C332 C 0.39967 0.62549 0.86506 0.0
O333 O 0.38172 0.60906 0.87441 0.0
O334 O 0.40605 0.68472 0.89884 0.0
C335 C 0.41566 0.63436 0.91808 0.0
O336 O 0.43177 0.64246 0.90476 0.0
C337 C 0.34157 0.62002 0.89536 0.0
O338 O 0.34673 0.60987 0.90886 0.0
O339 O 0.40844 0.6463 0.87048 0.0
C340 C 0.71189 0.39224 0.08664 0.0
O341 O 0.71083 0.37506 0.09625 0.0
O342 O 0.72382 0.35307 0.0648 0.0
Zn343 Zn 0.74684 0.3869 0.0696 0.0
O344 O 0.7664 0.39248 0.09336 0.0
C345 C 0.77297 0.38736 0.03734 0.0
O346 O 0.76364 0.36569 0.04238 0.0
O347 O 0.72707 0.40138 0.07353 0.0
C348 C 0.78459 0.39047 0.09426 0.0
O349 O 0.79098 0.3837 0.07916 0.0
C350 C 0.72254 0.33633 0.07405 0.0
O351 O 0.7373 0.34053 0.08826 0.0
O352 O 0.76828 0.40043 0.04696 0.0
C353 C 0.40431 0.73907 0.22298 0.0
O354 O 0.3979 0.74762 0.20901 0.0
O355 O 0.35159 0.73942 0.24788 0.0
Zn356 Zn 0.38639 0.76246 0.24464 0.0
O357 O 0.39171 0.78287 0.22199 0.0
C358 C 0.38687 0.78711 0.27798 0.0
O359 O 0.36489 0.77934 0.27238 0.0
O360 O 0.40186 0.74374 0.23996 0.0
C361 C 0.39429 0.80283 0.22286 0.0
O362 O 0.39312 0.81117 0.23935 0.0
C363 C 0.33478 0.74182 0.24162 0.0
O364 O 0.33977 0.76066 0.23239 0.0
O365 O 0.39979 0.78191 0.26839 0.0
H366 H 0.13706 0.56819 0.29573 0.0
H367 H 0.17692 0.59675 0.28478 0.0
H368 H 0.15297 0.64403 0.27205 0.0
H369 H 0.11329 0.61574 0.28315 0.0
H370 H 0.19252 0.61799 0.25014 0.0
H371 H 0.21017 0.68283 0.30609 0.0
H372 H 0.18565 0.65343 0.30722 0.0
H373 H 0.18354 0.67417 0.29264 0.0
C374 C 0.14032 0.58465 0.29052 0.0
C375 C 0.12218 0.58987 0.2905 0.0
C376 C 0.16306 0.60094 0.28432 0.0
C377 C 0.168 0.62267 0.27797 0.0
C378 C 0.14971 0.62762 0.27738 0.0
H379 H 0.29472 0.74397 0.23552 0.0
H380 H 0.25374 0.71454 0.24312 0.0
C381 C 0.12706 0.61143 0.2837 0.0
C382 C 0.19226 0.64018 0.27195 0.0
H383 H 0.23803 0.69494 0.28115 0.0
C384 C 0.20251 0.63478 0.25696 0.0
C385 C 0.20526 0.66207 0.28089 0.0
C386 C 0.19572 0.66844 0.29772 0.0
C387 C 0.22533 0.65083 0.25051 0.0
C388 C 0.2382 0.67271 0.25939 0.0
C389 C 0.22796 0.67816 0.27431 0.0
C390 C 0.26272 0.68996 0.25389 0.0
C391 C 0.23546 0.64441 0.23414 0.0
C392 C 0.28122 0.68583 0.25754 0.0
C393 C 0.3046 0.70261 0.25335 0.0
C394 C 0.30988 0.72382 0.24541 0.0
C395 C 0.29123 0.72779 0.24157 0.0
C396 C 0.26784 0.71103 0.2459 0.0
H397 H 0.22153 0.62904 0.2263 0.0
H398 H 0.24453 0.65903 0.22412 0.0
H399 H 0.2488 0.64036 0.23962 0.0
H400 H 0.27761 0.66978 0.26396 0.0
H401 H 0.31854 0.699 0.25648 0.0
H402 H 0.55454 0.14751 0.49297 0.0
H403 H 0.56494 0.18603 0.48213 0.0
H404 H 0.56533 0.1656 0.42431 0.0
H405 H 0.55475 0.12692 0.43502 0.0
H406 H 0.60648 0.21803 0.45772 0.0
H407 H 0.5174 0.19027 0.42662 0.0
H408 H 0.52181 0.17349 0.44435 0.0
H409 H 0.53097 0.17383 0.42043 0.0
C410 C 0.55684 0.15123 0.47794 0.0
C411 C 0.55374 0.13421 0.46482 0.0
C412 C 0.56285 0.17322 0.4718 0.0
C413 C 0.56563 0.17847 0.45244 0.0
C414 C 0.56303 0.16172 0.43931 0.0
H415 H 0.58905 0.30177 0.39323 0.0
H416 H 0.57993 0.26274 0.40114 0.0
C417 C 0.55719 0.13975 0.44545 0.0
C418 C 0.57107 0.2015 0.44606 0.0
H419 H 0.54669 0.22964 0.42417 0.0
C420 C 0.59348 0.22063 0.45034 0.0
C421 C 0.55406 0.20467 0.43634 0.0
C422 C 0.52962 0.18456 0.43169 0.0
C423 C 0.59938 0.243 0.44514 0.0
C424 C 0.58213 0.24631 0.4359 0.0
C425 C 0.55983 0.22707 0.43133 0.0
C426 C 0.58675 0.26965 0.4312 0.0
C427 C 0.62416 0.26281 0.44936 0.0
C428 C 0.59292 0.28623 0.44554 0.0
C429 C 0.59828 0.30853 0.44107 0.0
C430 C 0.59722 0.31457 0.42218 0.0
C431 C 0.59007 0.29766 0.40791 0.0
C432 C 0.58489 0.27537 0.4124 0.0
H433 H 0.63695 0.25678 0.45102 0.0
H434 H 0.63051 0.27594 0.43797 0.0
H435 H 0.62412 0.27121 0.46287 0.0
H436 H 0.59377 0.28198 0.46022 0.0
H437 H 0.60346 0.32108 0.45241 0.0
H438 H 0.46263 0.59438 0.61051 0.0
H439 H 0.43504 0.60721 0.60166 0.0
H440 H 0.37617 0.54213 0.62022 0.0
H441 H 0.40356 0.52945 0.62954 0.0
H442 H 0.39689 0.58595 0.57535 0.0
H443 H 0.36605 0.5902 0.64733 0.0
H444 H 0.39253 0.58903 0.64335 0.0
H445 H 0.36379 0.56314 0.64197 0.0
C446 C 0.44384 0.58296 0.61295 0.0
C447 C 0.43526 0.56091 0.62072 0.0
C448 C 0.42812 0.59024 0.60778 0.0
C449 C 0.40363 0.5757 0.61049 0.0
C450 C 0.39504 0.55374 0.61829 0.0
H451 H 0.28497 0.57857 0.55903 0.0
H452 H 0.31574 0.56998 0.56798 0.0
C453 C 0.4107 0.54644 0.62341 0.0
C454 C 0.38688 0.5831 0.60465 0.0
H455 H 0.34368 0.59205 0.62135 0.0
C456 C 0.38535 0.58746 0.5854 0.0
C457 C 0.37207 0.58526 0.61784 0.0
C458 C 0.37378 0.58188 0.63881 0.0
C459 C 0.36891 0.59338 0.57891 0.0
C460 C 0.35344 0.59462 0.59201 0.0
C461 C 0.3554 0.59082 0.61132 0.0
C462 C 0.33519 0.60006 0.58607 0.0
C463 C 0.36839 0.59845 0.55815 0.0
C464 C 0.33573 0.61955 0.59354 0.0
C465 C 0.31814 0.6244 0.58858 0.0
C466 C 0.29957 0.60976 0.5761 0.0
C467 C 0.29908 0.59023 0.56861 0.0
C468 C 0.31672 0.58538 0.57361 0.0
H469 H 0.38513 0.60258 0.55103 0.0
H470 H 0.35357 0.58304 0.55105 0.0
H471 H 0.36547 0.61313 0.55617 0.0
H472 H 0.3498 0.63103 0.60324 0.0
H473 H 0.31908 0.6396 0.59462 0.0
H474 H 0.8655 0.4049 0.81759 0.0
H475 H 0.82523 0.37853 0.80574 0.0
H476 H 0.84509 0.40957 0.75049 0.0
H477 H 0.88562 0.43568 0.76204 0.0
H478 H 0.80075 0.40319 0.76595 0.0
H479 H 0.80646 0.32386 0.76756 0.0
H480 H 0.81579 0.34092 0.78893 0.0
H481 H 0.83241 0.35257 0.7676 0.0
C482 C 0.8614 0.40599 0.80286 0.0
C483 C 0.87884 0.42232 0.79073 0.0
C484 C 0.83839 0.39095 0.79615 0.0
C485 C 0.83237 0.39198 0.77721 0.0
C486 C 0.84949 0.40852 0.76515 0.0
H487 H 0.70189 0.29107 0.71869 0.0
H488 H 0.74357 0.31837 0.72691 0.0
C489 C 0.87257 0.42351 0.77181 0.0
C490 C 0.80809 0.37586 0.77009 0.0
H491 H 0.76831 0.31873 0.76194 0.0
C492 C 0.79366 0.38474 0.76495 0.0
C493 C 0.79909 0.35188 0.76863 0.0
C494 C 0.81425 0.34166 0.77331 0.0
C495 C 0.7701 0.37008 0.75892 0.0
C496 C 0.76084 0.34601 0.75812 0.0
C497 C 0.77549 0.33721 0.7627 0.0
C498 C 0.73575 0.32962 0.7531 0.0
C499 C 0.75525 0.38039 0.75346 0.0
C500 C 0.71771 0.32677 0.76528 0.0
C501 C 0.69397 0.31115 0.76071 0.0
C502 C 0.68785 0.29811 0.74385 0.0
C503 C 0.70602 0.3009 0.73174 0.0
C504 C 0.72981 0.31646 0.7364 0.0
H505 H 0.76637 0.39922 0.75076 0.0
H506 H 0.74437 0.37176 0.74059 0.0
H507 H 0.74297 0.37778 0.76518 0.0
H508 H 0.72202 0.33656 0.77837 0.0
H509 H 0.68042 0.30939 0.77037 0.0
H510 H 0.45246 0.87952 0.99273 0.0
H511 H 0.44269 0.84161 0.9808 0.0
H512 H 0.43014 0.8595 0.92503 0.0
H513 H 0.44024 0.89767 0.93677 0.0
H514 H 0.3948 0.81452 0.93775 0.0
H515 H 0.48629 0.8306 0.94567 0.0
H516 H 0.4748 0.83628 0.96666 0.0
H517 H 0.47982 0.85356 0.9459 0.0
C518 C 0.44776 0.87546 0.9779 0.0
C519 C 0.44734 0.8917 0.96566 0.0
C520 C 0.44218 0.8538 0.97112 0.0
C521 C 0.43612 0.84797 0.95198 0.0
C522 C 0.43491 0.86378 0.93984 0.0
H523 H 0.42907 0.72915 0.89593 0.0
H524 H 0.43863 0.76827 0.90429 0.0
C525 C 0.44054 0.8855 0.9466 0.0
C526 C 0.43105 0.82532 0.9447 0.0
H527 H 0.45575 0.79192 0.93901 0.0
C528 C 0.40813 0.80959 0.9379 0.0
C529 C 0.44862 0.81914 0.94466 0.0
C530 C 0.47384 0.83583 0.95094 0.0
C531 C 0.40208 0.78749 0.93162 0.0
C532 C 0.41936 0.78094 0.93239 0.0
C533 C 0.44249 0.79694 0.9386 0.0
C534 C 0.41361 0.75734 0.92729 0.0
C535 C 0.37727 0.77135 0.92417 0.0
C536 C 0.39671 0.73835 0.93768 0.0
C537 C 0.39124 0.71606 0.93297 0.0
C538 C 0.40267 0.71233 0.91783 0.0
C539 C 0.41991 0.73144 0.90763 0.0
C540 C 0.42538 0.75378 0.91237 0.0
H541 H 0.36842 0.78089 0.91969 0.0
H542 H 0.37744 0.76107 0.91195 0.0
H543 H 0.3665 0.75921 0.93554 0.0
H544 H 0.38782 0.74079 0.94951 0.0
H545 H 0.37799 0.70175 0.9412 0.0
H546 H 0.53991 0.42791 0.11809 0.0
H547 H 0.56679 0.41381 0.11125 0.0
H548 H 0.62685 0.48044 0.12627 0.0
H549 H 0.60016 0.49442 0.13377 0.0
H550 H 0.60314 0.43069 0.08482 0.0
H551 H 0.63808 0.43609 0.15772 0.0
H552 H 0.61184 0.43753 0.15284 0.0
H553 H 0.64084 0.46256 0.14963 0.0
C554 C 0.55882 0.43945 0.1202 0.0
C555 C 0.5679 0.46227 0.1265 0.0
C556 C 0.57414 0.43142 0.11616 0.0
C557 C 0.59876 0.44601 0.11847 0.0
C558 C 0.60788 0.4688 0.1247 0.0
H559 H 0.71007 0.4283 0.07062 0.0
H560 H 0.6824 0.4413 0.07801 0.0
C561 C 0.59261 0.47682 0.12876 0.0
C562 C 0.61501 0.43763 0.11392 0.0
H563 H 0.65813 0.42949 0.13286 0.0
C564 C 0.61511 0.43032 0.09532 0.0
C565 C 0.63039 0.43696 0.12772 0.0
C566 C 0.63019 0.44349 0.14814 0.0
C567 C 0.6305 0.42267 0.09006 0.0
C568 C 0.64644 0.42274 0.10371 0.0
C569 C 0.64606 0.42971 0.12238 0.0
C570 C 0.66323 0.41502 0.0991 0.0
C571 C 0.62926 0.41422 0.07005 0.0
C572 C 0.66197 0.39634 0.10884 0.0
C573 C 0.67784 0.38902 0.10478 0.0
C574 C 0.69534 0.40031 0.09093 0.0
C575 C 0.6967 0.41917 0.08129 0.0
C576 C 0.68083 0.42653 0.08541 0.0
H577 H 0.61227 0.40974 0.06289 0.0
H578 H 0.64396 0.42805 0.06175 0.0
H579 H 0.63118 0.39881 0.06983 0.0
H580 H 0.64858 0.3873 0.11952 0.0
H581 H 0.6763 0.37445 0.11249 0.0
H582 H 0.40084 0.89739 0.50894 0.0
H583 H 0.3734 0.85704 0.51697 0.0
H584 H 0.43258 0.84809 0.52947 0.0
H585 H 0.46022 0.88876 0.52216 0.0
H586 H 0.36831 0.81763 0.50102 0.0
H587 H 0.39264 0.82384 0.57724 0.0
H588 H 0.40154 0.84896 0.56274 0.0
H589 H 0.41734 0.83377 0.56154 0.0
C590 C 0.40805 0.88694 0.51364 0.0
C591 C 0.43273 0.89636 0.51512 0.0
C592 C 0.39234 0.86384 0.51808 0.0
C593 C 0.40096 0.8497 0.52411 0.0
C594 C 0.42557 0.85886 0.52521 0.0
H595 H 0.32338 0.70056 0.52759 0.0
H596 H 0.34955 0.74126 0.52 0.0
C597 C 0.44133 0.88201 0.52081 0.0
C598 C 0.38411 0.82528 0.52895 0.0
H599 H 0.36711 0.78613 0.56479 0.0
C600 C 0.36798 0.81074 0.51497 0.0
C601 C 0.38349 0.81647 0.54725 0.0
C602 C 0.39951 0.83159 0.56313 0.0
C603 C 0.35151 0.78746 0.51871 0.0
C604 C 0.35149 0.77844 0.5368 0.0
C605 C 0.36731 0.79308 0.55088 0.0
C606 C 0.33538 0.75377 0.54133 0.0
C607 C 0.33406 0.77285 0.50333 0.0
C608 C 0.31909 0.74734 0.55615 0.0
C609 C 0.30419 0.72405 0.56065 0.0
C610 C 0.30542 0.70683 0.55044 0.0
C611 C 0.32185 0.71338 0.53566 0.0
C612 C 0.33675 0.73663 0.53121 0.0
H613 H 0.33195 0.78362 0.4925 0.0
H614 H 0.34064 0.76266 0.4961 0.0
H615 H 0.31637 0.76062 0.50933 0.0
H616 H 0.31788 0.76036 0.56419 0.0
H617 H 0.29177 0.71957 0.57213 0.0
H618 H 0.59049 0.46548 0.67167 0.0
H619 H 0.60159 0.43791 0.68307 0.0
H620 H 0.52893 0.39041 0.69837 0.0
H621 H 0.51769 0.41784 0.68709 0.0
H622 H 0.57113 0.40185 0.727 0.0
H623 H 0.57513 0.37162 0.65439 0.0
H624 H 0.58871 0.40221 0.65853 0.0
H625 H 0.55708 0.38396 0.65971 0.0
C626 C 0.57695 0.44926 0.67764 0.0
C627 C 0.55321 0.44372 0.67839 0.0
C628 C 0.58329 0.43354 0.68406 0.0
C629 C 0.56601 0.41219 0.69144 0.0
C630 C 0.54245 0.40683 0.69266 0.0
H631 H 0.57031 0.29565 0.74034 0.0
H632 H 0.55938 0.32421 0.73191 0.0
C633 C 0.53606 0.42243 0.68611 0.0
C634 C 0.57238 0.39509 0.69738 0.0
H635 H 0.58513 0.35569 0.67989 0.0
C636 C 0.57421 0.3917 0.71677 0.0
C637 C 0.57634 0.38202 0.68392 0.0
C638 C 0.57415 0.38492 0.66294 0.0
C639 C 0.58036 0.37572 0.7231 0.0
C640 C 0.58415 0.36244 0.70961 0.0
C641 C 0.58219 0.36585 0.6902 0.0
C642 C 0.59075 0.34529 0.7152 0.0
C643 C 0.58337 0.37367 0.7441 0.0
C644 C 0.61167 0.34733 0.70824 0.0
C645 C 0.61774 0.3309 0.71278 0.0
C646 C 0.60303 0.31207 0.72442 0.0
C647 C 0.58208 0.31004 0.73145 0.0
C648 C 0.5759 0.32644 0.72675 0.0
H649 H 0.58628 0.38919 0.75197 0.0
H650 H 0.56702 0.3585 0.74963 0.0
H651 H 0.59854 0.37119 0.74706 0.0
H652 H 0.62334 0.36169 0.69926 0.0
H653 H 0.63403 0.33302 0.70716 0.0
H654 H 0.13015 0.57686 0.85445 0.0
H655 H 0.17198 0.59274 0.86299 0.0
H656 H 0.16579 0.52778 0.8486 0.0
H657 H 0.12426 0.51202 0.83947 0.0
H658 H 0.19082 0.57675 0.89059 0.0
H659 H 0.22424 0.57477 0.81911 0.0
H660 H 0.19565 0.57186 0.82276 0.0
H661 H 0.19944 0.54757 0.82634 0.0
C662 C 0.1378 0.56607 0.85285 0.0
C663 C 0.12391 0.5432 0.84625 0.0
C664 C 0.16162 0.57511 0.85785 0.0
C665 C 0.17201 0.56151 0.8562 0.0
C666 C 0.1582 0.53868 0.84968 0.0
H667 H 0.30143 0.58275 0.90947 0.0
H668 H 0.26022 0.56897 0.90027 0.0
C669 C 0.13441 0.52963 0.84468 0.0
C670 C 0.19712 0.57096 0.86178 0.0
H671 H 0.25056 0.58204 0.84511 0.0
C672 C 0.20394 0.57803 0.88065 0.0
C673 C 0.21419 0.57282 0.84871 0.0
C674 C 0.20812 0.56657 0.82805 0.0
C675 C 0.22736 0.58652 0.88689 0.0
C676 C 0.24423 0.5876 0.87397 0.0
C677 C 0.2375 0.58095 0.85502 0.0
C678 C 0.26909 0.59594 0.87971 0.0
C679 C 0.23392 0.59456 0.90718 0.0
C680 C 0.28771 0.61533 0.87089 0.0
C681 C 0.31124 0.62313 0.87599 0.0
C682 C 0.3166 0.61161 0.88998 0.0
C683 C 0.2979 0.59208 0.89872 0.0
C684 C 0.27434 0.58426 0.89357 0.0
H685 H 0.22084 0.59818 0.91374 0.0
H686 H 0.23428 0.58085 0.91556 0.0
H687 H 0.25179 0.6104 0.90812 0.0
H688 H 0.28401 0.62451 0.8601 0.0
H689 H 0.32521 0.63822 0.86896 0.0
H690 H 0.60218 0.12706 0.01367 0.0
H691 H 0.6302 0.16652 0.02412 0.0
H692 H 0.57192 0.17538 0.03934 0.0
H693 H 0.54368 0.13553 0.02959 0.0
H694 H 0.63609 0.20751 0.0117 0.0
H695 H 0.61214 0.19447 0.0878 0.0
H696 H 0.60264 0.17074 0.07138 0.0
H697 H 0.58754 0.18663 0.07197 0.0
C698 C 0.59529 0.13731 0.01943 0.0
C699 C 0.57069 0.12806 0.02101 0.0
C700 C 0.61134 0.1599 0.02527 0.0
C701 C 0.60314 0.17371 0.03281 0.0
C702 C 0.57861 0.16482 0.03393 0.0
H703 H 0.6876 0.32227 0.04716 0.0
H704 H 0.65865 0.28283 0.0374 0.0
C705 C 0.5625 0.14216 0.02813 0.0
C706 C 0.6204 0.1975 0.03931 0.0
H707 H 0.63888 0.23296 0.07812 0.0
C708 C 0.63673 0.21309 0.02622 0.0
C709 C 0.62141 0.20457 0.05834 0.0
C710 C 0.60516 0.1882 0.07325 0.0
C711 C 0.65389 0.23569 0.03159 0.0
C712 C 0.6544 0.243 0.05047 0.0
C713 C 0.63828 0.22733 0.06362 0.0
C714 C 0.67157 0.26686 0.05682 0.0
C715 C 0.6716 0.25138 0.01708 0.0
C716 C 0.68795 0.27092 0.07142 0.0
C717 C 0.70445 0.2935 0.07719 0.0
C718 C 0.70476 0.31236 0.06845 0.0
C719 C 0.688 0.30816 0.05407 0.0
C720 C 0.6715 0.28562 0.04839 0.0
H721 H 0.67298 0.24144 0.00513 0.0
H722 H 0.66578 0.26293 0.01119 0.0
H723 H 0.68949 0.26229 0.02358 0.0
H724 H 0.68817 0.25663 0.07818 0.0
H725 H 0.71707 0.29615 0.08833 0.0
H726 H 0.44368 0.57044 0.20359 0.0
H727 H 0.4335 0.59871 0.21457 0.0
H728 H 0.44281 0.62593 0.15797 0.0
H729 H 0.45246 0.59748 0.14681 0.0
H730 H 0.46312 0.64763 0.21211 0.0
H731 H 0.37766 0.61528 0.17355 0.0
H732 H 0.39098 0.59788 0.17711 0.0
H733 H 0.40163 0.61933 0.1588 0.0
C734 C 0.44312 0.58218 0.19343 0.0
C735 C 0.44882 0.58173 0.17433 0.0
C736 C 0.43748 0.59839 0.19975 0.0
C737 C 0.4372 0.61422 0.18704 0.0
C738 C 0.4426 0.61363 0.16794 0.0
H739 H 0.41582 0.72924 0.18867 0.0
H740 H 0.425 0.69937 0.18129 0.0
C741 C 0.4483 0.59751 0.16163 0.0
C742 C 0.43229 0.63207 0.1938 0.0
H743 H 0.3952 0.65288 0.18714 0.0
C744 C 0.44815 0.6487 0.20682 0.0
C745 C 0.41276 0.63336 0.18684 0.0
C746 C 0.39464 0.6154 0.17343 0.0
C747 C 0.44549 0.66716 0.21256 0.0
C748 C 0.42621 0.66869 0.20529 0.0
C749 C 0.41006 0.65174 0.19259 0.0
C750 C 0.42258 0.68796 0.21027 0.0
C751 C 0.46378 0.68524 0.22579 0.0
C752 C 0.41845 0.69163 0.22907 0.0
C753 C 0.41338 0.70885 0.23337 0.0
C754 C 0.41204 0.72246 0.21889 0.0
C755 C 0.41665 0.71902 0.20015 0.0
C756 C 0.42187 0.70193 0.19589 0.0
H757 H 0.4804 0.68471 0.22624 0.0
H758 H 0.46817 0.70282 0.2215 0.0
H759 H 0.45653 0.6821 0.24034 0.0
H760 H 0.41846 0.68074 0.24034 0.0
H761 H 0.40974 0.71097 0.24793 0.0
H762 H 0.87295 0.43404 0.35462 0.0
H763 H 0.83183 0.42062 0.36337 0.0
H764 H 0.84043 0.4854 0.34507 0.0
H765 H 0.8812 0.49866 0.3358 0.0
H766 H 0.81633 0.44094 0.38979 0.0
H767 H 0.77906 0.43744 0.31815 0.0
H768 H 0.80715 0.43913 0.32183 0.0
H769 H 0.80521 0.46466 0.32373 0.0
C770 C 0.86594 0.44527 0.35218 0.0
C771 C 0.88031 0.46741 0.34451 0.0
C772 C 0.84254 0.43764 0.3573 0.0
C773 C 0.83306 0.45193 0.35467 0.0
C774 C 0.8473 0.47397 0.34694 0.0
H775 H 0.71079 0.44429 0.40812 0.0
H776 H 0.75076 0.45469 0.39838 0.0
C777 C 0.87066 0.48161 0.34184 0.0
C778 C 0.80855 0.44421 0.36064 0.0
H779 H 0.7551 0.43457 0.34436 0.0
C780 C 0.80287 0.4394 0.37986 0.0
C781 C 0.79101 0.44201 0.3476 0.0
C782 C 0.79578 0.44586 0.32665 0.0
C783 C 0.7802 0.43291 0.38648 0.0
C784 C 0.76294 0.43156 0.37355 0.0
C785 C 0.76847 0.43589 0.35427 0.0
C786 C 0.73885 0.42529 0.37965 0.0
C787 C 0.77484 0.42729 0.40719 0.0
C788 C 0.71894 0.40562 0.37202 0.0
C789 C 0.69612 0.39973 0.37743 0.0
C790 C 0.69277 0.41348 0.39054 0.0
C791 C 0.71276 0.43328 0.39808 0.0
C792 C 0.73562 0.43917 0.39262 0.0
H793 H 0.78766 0.4234 0.41408 0.0
H794 H 0.77607 0.44237 0.4146 0.0
H795 H 0.75661 0.41229 0.40908 0.0
H796 H 0.72106 0.39474 0.36192 0.0
H797 H 0.68112 0.38438 0.37132 0.0
H798 H 0.11784 0.56489 0.38178 0.0
H799 H 0.14505 0.57726 0.40908 0.0
H800 H 0.08687 0.56063 0.44646 0.0
H801 H 0.05949 0.54771 0.41935 0.0
H802 H 0.15435 0.61234 0.43517 0.0
H803 H 0.11864 0.52777 0.47079 0.0
H804 H 0.11183 0.53035 0.44638 0.0
H805 H 0.09654 0.53506 0.46524 0.0
C806 C 0.1108 0.56359 0.39584 0.0
C807 C 0.08651 0.55529 0.39841 0.0
C808 C 0.12637 0.57075 0.4114 0.0
C809 C 0.11789 0.56954 0.42979 0.0
C810 C 0.09369 0.56131 0.43241 0.0
H811 H 0.19091 0.64308 0.5312 0.0
H812 H 0.16654 0.62751 0.50255 0.0
C813 C 0.07813 0.55421 0.41688 0.0
C814 C 0.13449 0.57781 0.4462 0.0
H815 H 0.14549 0.56119 0.48891 0.0
C816 C 0.15255 0.60113 0.44685 0.0
C817 C 0.13226 0.56306 0.46129 0.0
C818 C 0.11392 0.53761 0.46088 0.0
C819 C 0.16799 0.6103 0.46253 0.0
C820 C 0.16505 0.5958 0.47801 0.0
C821 C 0.14751 0.5723 0.47708 0.0
C822 C 0.17964 0.60489 0.4955 0.0
C823 C 0.18733 0.63544 0.46238 0.0
C824 C 0.1946 0.59685 0.50128 0.0
C825 C 0.20853 0.60567 0.51772 0.0
C826 C 0.20756 0.62254 0.52871 0.0
C827 C 0.1922 0.63021 0.52302 0.0
C828 C 0.17834 0.62142 0.50659 0.0
H829 H 0.19119 0.64247 0.44776 0.0
H830 H 0.18155 0.64557 0.47072 0.0
H831 H 0.20396 0.63795 0.4689 0.0
H832 H 0.19571 0.58397 0.49294 0.0
H833 H 0.22012 0.59934 0.52175 0.0
H834 H 0.57929 0.09222 0.57697 0.0
H835 H 0.59205 0.11673 0.60538 0.0
H836 H 0.53496 0.12992 0.59684 0.0
H837 H 0.52192 0.10519 0.56862 0.0
H838 H 0.60654 0.16218 0.61066 0.0
H839 H 0.52422 0.10696 0.65087 0.0
H840 H 0.53099 0.09743 0.62921 0.0
H841 H 0.51874 0.11591 0.62842 0.0
C842 C 0.56957 0.10048 0.5811 0.0
C843 C 0.54948 0.09664 0.5707 0.0
C844 C 0.57682 0.1144 0.59735 0.0
C845 C 0.56414 0.12473 0.60345 0.0
C846 C 0.54458 0.12157 0.5927 0.0
H847 H 0.58071 0.21959 0.69246 0.0
H848 H 0.57041 0.19577 0.66382 0.0
C849 C 0.53721 0.10751 0.57656 0.0
C850 C 0.57138 0.13885 0.62103 0.0
H851 H 0.55106 0.14408 0.66402 0.0
C852 C 0.59448 0.15814 0.62239 0.0
C853 C 0.55563 0.13345 0.63636 0.0
C854 C 0.5311 0.11218 0.63627 0.0
C855 C 0.60205 0.17249 0.63849 0.0
C856 C 0.58612 0.16734 0.65356 0.0
C857 C 0.56313 0.14799 0.65232 0.0
C858 C 0.59287 0.18202 0.6707 0.0
C859 C 0.62683 0.19334 0.63919 0.0
C860 C 0.60879 0.18196 0.68405 0.0
C861 C 0.6146 0.19541 0.70051 0.0
C862 C 0.60464 0.2092 0.70382 0.0
C863 C 0.58874 0.20922 0.69033 0.0
C864 C 0.58281 0.19563 0.67397 0.0
H865 H 0.63582 0.19676 0.62529 0.0
H866 H 0.62634 0.20887 0.64361 0.0
H867 H 0.63757 0.1905 0.64986 0.0
H868 H 0.61653 0.17134 0.68181 0.0
H869 H 0.6269 0.19502 0.71062 0.0
H870 H 0.50086 0.59801 0.71828 0.0
H871 H 0.48891 0.61208 0.74551 0.0
H872 H 0.4331 0.54248 0.75756 0.0
H873 H 0.4453 0.5282 0.73075 0.0
H874 H 0.44421 0.60735 0.75275 0.0
H875 H 0.46931 0.56538 0.80828 0.0
H876 H 0.47964 0.56879 0.7842 0.0
H877 H 0.45019 0.546 0.79004 0.0
C878 C 0.48619 0.58568 0.72685 0.0
C879 C 0.4741 0.56197 0.72241 0.0
C880 C 0.47931 0.59376 0.74231 0.0
C881 C 0.46037 0.57827 0.75369 0.0
C882 C 0.44803 0.55466 0.74914 0.0
H883 H 0.38425 0.58278 0.8501 0.0
H884 H 0.39999 0.5729 0.82286 0.0
C885 C 0.45486 0.54657 0.73369 0.0
C886 C 0.45322 0.58675 0.7702 0.0
H887 H 0.4461 0.58126 0.81813 0.0
C888 C 0.44481 0.60184 0.76708 0.0
C889 C 0.4541 0.57955 0.78885 0.0
C890 C 0.464 0.56421 0.79313 0.0
C891 C 0.43642 0.60929 0.78208 0.0
C892 C 0.43686 0.60171 0.80069 0.0
C893 C 0.44572 0.58698 0.80383 0.0
C894 C 0.42742 0.60812 0.81704 0.0
C895 C 0.4264 0.62454 0.77783 0.0
C896 C 0.43778 0.63122 0.82289 0.0
C897 C 0.42879 0.63697 0.83849 0.0
C898 C 0.40937 0.61967 0.84854 0.0
C899 C 0.39919 0.59654 0.84268 0.0
C900 C 0.40817 0.59084 0.82711 0.0
H901 H 0.42249 0.62457 0.76248 0.0
H902 H 0.40986 0.61886 0.78587 0.0
H903 H 0.43952 0.64253 0.78218 0.0
H904 H 0.45294 0.64477 0.81551 0.0
H905 H 0.4371 0.65493 0.84271 0.0
H906 H 0.92121 0.48904 0.9004 0.0
H907 H 0.89418 0.47791 0.92724 0.0
H908 H 0.88195 0.40881 0.92453 0.0
H909 H 0.90882 0.41973 0.89765 0.0
H910 H 0.84611 0.44324 0.92952 0.0
H911 H 0.9016 0.42761 0.97997 0.0
H912 H 0.91302 0.44302 0.95804 0.0
H913 H 0.89554 0.41199 0.95803 0.0
C914 C 0.91264 0.47142 0.90544 0.0
C915 C 0.91725 0.45528 0.89696 0.0
C916 C 0.8973 0.46514 0.92081 0.0
C917 C 0.8864 0.44266 0.92805 0.0
C918 C 0.89063 0.4264 0.91943 0.0
H919 H 0.78676 0.36369 0.01476 0.0
H920 H 0.81411 0.3784 0.98821 0.0
C921 C 0.90598 0.43267 0.90408 0.0
C922 C 0.87034 0.43608 0.94446 0.0
H923 H 0.86208 0.4149 0.98943 0.0
C924 C 0.84966 0.43722 0.94269 0.0
C925 C 0.87512 0.42834 0.96162 0.0
C926 C 0.89763 0.42785 0.96466 0.0
C927 C 0.83318 0.43005 0.95745 0.0
C928 C 0.83775 0.42186 0.97445 0.0
C929 C 0.85863 0.42112 0.97633 0.0
C930 C 0.82072 0.41318 0.99027 0.0
C931 C 0.81069 0.4306 0.95453 0.0
C932 C 0.81546 0.42794 0.00028 0.0
C933 C 0.79978 0.41958 0.01552 0.0
C934 C 0.7892 0.39635 0.02102 0.0
C935 C 0.79455 0.38167 0.01091 0.0
C936 C 0.8102 0.39003 0.99573 0.0
H937 H 0.80757 0.43273 0.93936 0.0
H938 H 0.7951 0.41451 0.95985 0.0
H939 H 0.81204 0.44534 0.9626 0.0
H940 H 0.82371 0.44597 0.99646 0.0
H941 H 0.7961 0.43135 0.02306 0.0
H942 H 0.42184 0.93075 0.0773 0.0
H943 H 0.40907 0.90626 0.10545 0.0
H944 H 0.46982 0.89814 0.10101 0.0
H945 H 0.48267 0.92252 0.07281 0.0
H946 H 0.39823 0.86066 0.11033 0.0
H947 H 0.4748 0.92188 0.15541 0.0
H948 H 0.46766 0.93021 0.13317 0.0
H949 H 0.48299 0.91453 0.13346 0.0
C950 C 0.43235 0.92356 0.0822 0.0
C951 C 0.45335 0.92869 0.07289 0.0
C952 C 0.42509 0.90967 0.09833 0.0
C953 C 0.43872 0.90073 0.10547 0.0
C954 C 0.45935 0.90531 0.09596 0.0
H955 H 0.39905 0.79115 0.18675 0.0
H956 H 0.40865 0.81475 0.15827 0.0
C957 C 0.46665 0.91923 0.07986 0.0
C958 C 0.43136 0.88663 0.12291 0.0
H959 H 0.44946 0.88447 0.16796 0.0
C960 C 0.40937 0.86587 0.12297 0.0
C961 C 0.44579 0.89368 0.13944 0.0
C962 C 0.46903 0.91639 0.14051 0.0
C963 C 0.40163 0.85169 0.13903 0.0
C964 C 0.41645 0.85834 0.15533 0.0
C965 C 0.43822 0.87933 0.15539 0.0
C966 C 0.40983 0.84374 0.17246 0.0
C967 C 0.37753 0.82988 0.13851 0.0
C968 C 0.40773 0.85238 0.18996 0.0
C969 C 0.40239 0.83899 0.20631 0.0
C970 C 0.3992 0.81676 0.20547 0.0
C971 C 0.40127 0.80814 0.18789 0.0
C972 C 0.40662 0.82156 0.17156 0.0
H973 H 0.36595 0.83046 0.12721 0.0
H974 H 0.37973 0.81496 0.13553 0.0
H975 H 0.36847 0.8269 0.15232 0.0
H976 H 0.41027 0.86952 0.19095 0.0
H977 H 0.40096 0.84616 0.21962 0.0
H978 H 0.50463 0.43052 0.22134 0.0
H979 H 0.51736 0.41694 0.24863 0.0
H980 H 0.57216 0.487 0.26153 0.0
H981 H 0.55923 0.50077 0.2346 0.0
H982 H 0.563 0.42312 0.25573 0.0
H983 H 0.53695 0.46294 0.31205 0.0
H984 H 0.52598 0.45929 0.28797 0.0
H985 H 0.55525 0.48265 0.29398 0.0
C986 C 0.51922 0.44305 0.23013 0.0
C987 C 0.53087 0.46673 0.22586 0.0
C988 C 0.52654 0.43525 0.24562 0.0
C989 C 0.54547 0.451 0.25721 0.0
C990 C 0.55726 0.47461 0.25292 0.0
H991 H 0.62402 0.44706 0.35374 0.0
H992 H 0.60759 0.45707 0.32674 0.0
C993 C 0.55001 0.48242 0.23742 0.0
C994 C 0.55332 0.44277 0.27357 0.0
H995 H 0.56102 0.44774 0.3216 0.0
C996 C 0.5624 0.42831 0.27016 0.0
C997 C 0.55246 0.44959 0.29235 0.0
C998 C 0.54194 0.4643 0.2969 0.0
C999 C 0.5714 0.42108 0.28502 0.0
C1000 C 0.57088 0.42821 0.30377 0.0
C1001 C 0.56144 0.44236 0.30719 0.0
C1002 C 0.58072 0.42178 0.32 0.0
C1003 C 0.58209 0.40652 0.28046 0.0
C1004 C 0.57089 0.3986 0.32525 0.0
C1005 C 0.58027 0.39279 0.34069 0.0
C1006 C 0.59957 0.41009 0.35118 0.0
C1007 C 0.6092 0.4333 0.34595 0.0
C1008 C 0.59982 0.43907 0.33053 0.0
H1009 H 0.58603 0.40699 0.26513 0.0
H1010 H 0.59874 0.41243 0.28871 0.0
H1011 H 0.56937 0.38832 0.28432 0.0
H1012 H 0.55585 0.38503 0.31751 0.0
H1013 H 0.57236 0.37476 0.34442 0.0
H1014 H 0.49648 0.92763 0.41818 0.0
H1015 H 0.48315 0.90019 0.39173 0.0
H1016 H 0.42232 0.90767 0.38334 0.0
H1017 H 0.43605 0.93588 0.40914 0.0
H1018 H 0.44204 0.8586 0.38721 0.0
H1019 H 0.44934 0.9186 0.33049 0.0
H1020 H 0.46234 0.92852 0.35375 0.0
H1021 H 0.43122 0.91757 0.34977 0.0
C1022 C 0.48046 0.92372 0.41052 0.0
C1023 C 0.46743 0.93411 0.41571 0.0
C1024 C 0.47278 0.9079 0.39551 0.0
C1025 C 0.45198 0.9022 0.38536 0.0
C1026 C 0.43871 0.91221 0.3907 0.0
H1027 H 0.36554 0.80567 0.29832 0.0
H1028 H 0.38234 0.83312 0.32468 0.0
C1029 C 0.44643 0.92811 0.40564 0.0
C1030 C 0.44383 0.8854 0.36946 0.0
H1031 H 0.42799 0.87845 0.32262 0.0
C1032 C 0.43918 0.86299 0.37305 0.0
C1033 C 0.44024 0.89121 0.35096 0.0
C1034 C 0.44627 0.91535 0.34593 0.0
C1035 C 0.43031 0.84603 0.35874 0.0
C1036 C 0.42612 0.85172 0.34044 0.0
C1037 C 0.43112 0.87418 0.33675 0.0
C1038 C 0.41593 0.83444 0.32497 0.0
C1039 C 0.42484 0.82198 0.36336 0.0
C1040 C 0.42935 0.82616 0.31645 0.0
C1041 C 0.41985 0.81053 0.30129 0.0
C1042 C 0.39677 0.80292 0.29447 0.0
C1043 C 0.38334 0.81111 0.30324 0.0
C1044 C 0.3929 0.82682 0.31828 0.0
H1045 H 0.42579 0.81949 0.37884 0.0
H1046 H 0.40686 0.80897 0.35802 0.0
H1047 H 0.43783 0.81873 0.3562 0.0
H1048 H 0.44727 0.83206 0.32134 0.0
H1049 H 0.43066 0.80457 0.29483 0.0
H1050 H 0.57343 0.46857 0.5843 0.0
H1051 H 0.58663 0.45667 0.55651 0.0
H1052 H 0.53596 0.46287 0.52158 0.0
H1053 H 0.52349 0.47581 0.54899 0.0
H1054 H 0.5615 0.4194 0.53354 0.0
H1055 H 0.59588 0.49927 0.49139 0.0
H1056 H 0.58893 0.49811 0.5162 0.0
H1057 H 0.56575 0.48799 0.49848 0.0
C1058 C 0.56536 0.46776 0.57064 0.0
C1059 C 0.54744 0.47323 0.56889 0.0
C1060 C 0.57282 0.46082 0.5548 0.0
C1061 C 0.56259 0.45929 0.53691 0.0
C1062 C 0.54452 0.46445 0.53515 0.0
H1063 H 0.55885 0.40239 0.42764 0.0
H1064 H 0.55293 0.41897 0.4564 0.0
C1065 C 0.53714 0.4715 0.55093 0.0
C1066 C 0.57005 0.45141 0.52017 0.0
H1067 H 0.58916 0.4655 0.47459 0.0
C1068 C 0.56785 0.4296 0.52074 0.0
C1069 C 0.57844 0.4648 0.5035 0.0
C1070 C 0.58263 0.48894 0.50239 0.0
C1071 C 0.57294 0.42047 0.50484 0.0
C1072 C 0.58048 0.43353 0.48802 0.0
C1073 C 0.58322 0.45552 0.48754 0.0
C1074 C 0.5847 0.42421 0.47053 0.0
C1075 C 0.56953 0.39663 0.50586 0.0
C1076 C 0.60471 0.42201 0.46896 0.0
C1077 C 0.60824 0.41266 0.4525 0.0
C1078 C 0.59172 0.40528 0.43742 0.0
C1079 C 0.57185 0.40781 0.43902 0.0
C1080 C 0.56845 0.41731 0.4554 0.0
H1081 H 0.56088 0.38765 0.51922 0.0
H1082 H 0.55857 0.38596 0.49366 0.0
H1083 H 0.58706 0.39797 0.50502 0.0
H1084 H 0.61751 0.42742 0.48049 0.0
H1085 H 0.62372 0.41095 0.45171 0.0
H1086 H 0.11519 0.54534 0.7611 0.0
H1087 H 0.14304 0.56149 0.73475 0.0
H1088 H 0.08543 0.54871 0.697 0.0
H1089 H 0.05761 0.53283 0.72327 0.0
H1090 H 0.14454 0.54188 0.70167 0.0
H1091 H 0.13292 0.61603 0.68685 0.0
H1092 H 0.12203 0.59906 0.70813 0.0
H1093 H 0.10535 0.58895 0.68629 0.0
C1094 C 0.10849 0.54595 0.74716 0.0
C1095 C 0.08427 0.538 0.74426 0.0
C1096 C 0.12441 0.55524 0.73215 0.0
C1097 C 0.11638 0.55674 0.714 0.0
C1098 C 0.09213 0.54835 0.711 0.0
H1099 H 0.18401 0.56965 0.60682 0.0
H1100 H 0.15963 0.5568 0.6352 0.0
C1101 C 0.07625 0.53921 0.726 0.0
C1102 C 0.13322 0.56646 0.69805 0.0
H1103 H 0.15269 0.60698 0.66313 0.0
C1104 C 0.14647 0.55623 0.69333 0.0
C1105 C 0.13603 0.58545 0.68739 0.0
C1106 C 0.12352 0.59817 0.69253 0.0
C1107 C 0.16191 0.56401 0.67786 0.0
C1108 C 0.16371 0.58215 0.66657 0.0
C1109 C 0.15104 0.59287 0.67165 0.0
C1110 C 0.1784 0.59009 0.64928 0.0
C1111 C 0.17629 0.55284 0.67388 0.0
C1112 C 0.19651 0.61327 0.64746 0.0
C1113 C 0.2103 0.62077 0.63112 0.0
C1114 C 0.20619 0.60518 0.61629 0.0
C1115 C 0.18778 0.58205 0.61804 0.0
C1116 C 0.17393 0.57463 0.63432 0.0
H1117 H 0.17839 0.54455 0.68676 0.0
H1118 H 0.16701 0.53922 0.66292 0.0
H1119 H 0.1942 0.56563 0.66857 0.0
H1120 H 0.20012 0.62553 0.65878 0.0
H1121 H 0.22433 0.6387 0.6302 0.0
H1122 H 0.50269 0.06612 0.89914 0.0
H1123 H 0.51546 0.09327 0.87274 0.0
H1124 H 0.57 0.14635 0.90827 0.0
H1125 H 0.55691 0.11952 0.93494 0.0
H1126 H 0.54437 0.1614 0.886 0.0
H1127 H 0.57702 0.11448 0.84316 0.0
H1128 H 0.54677 0.09727 0.85072 0.0
H1129 H 0.5704 0.10893 0.86803 0.0
C1130 C 0.51724 0.08364 0.90141 0.0
C1131 C 0.52887 0.09063 0.91912 0.0
C1132 C 0.52464 0.09906 0.88626 0.0
C1133 C 0.54388 0.12169 0.8885 0.0
C1134 C 0.5552 0.12889 0.90624 0.0
H1135 H 0.63144 0.2185 0.80333 0.0
H1136 H 0.6147 0.19209 0.82998 0.0
C1137 C 0.54782 0.1135 0.9214 0.0
C1138 C 0.55244 0.13781 0.87229 0.0
H1139 H 0.57757 0.1463 0.82867 0.0
C1140 C 0.5516 0.15813 0.87343 0.0
C1141 C 0.56207 0.13355 0.85603 0.0
C1142 C 0.56436 0.11249 0.85439 0.0
C1143 C 0.56009 0.17431 0.85868 0.0
C1144 C 0.5694 0.16987 0.84231 0.0
C1145 C 0.57025 0.14956 0.84119 0.0
C1146 C 0.57936 0.1865 0.82649 0.0
C1147 C 0.55961 0.19628 0.86093 0.0
C1148 C 0.565 0.19209 0.81564 0.0
C1149 C 0.57454 0.20727 0.80035 0.0
C1150 C 0.59857 0.21699 0.79561 0.0
C1151 C 0.61287 0.21136 0.80658 0.0
C1152 C 0.60333 0.19624 0.82182 0.0
H1153 H 0.55688 0.19939 0.8759 0.0
H1154 H 0.57639 0.21138 0.85588 0.0
H1155 H 0.54478 0.19502 0.85228 0.0
H1156 H 0.54634 0.18444 0.81882 0.0
H1157 H 0.56303 0.21117 0.79214 0.0
H1158 H 0.48372 0.55024 0.04862 0.0
H1159 H 0.47299 0.56497 0.0211 0.0
H1160 H 0.42185 0.57114 0.0545 0.0
H1161 H 0.43333 0.5575 0.08241 0.0
H1162 H 0.43058 0.54759 0.00273 0.0
H1163 H 0.45952 0.63483 0.03151 0.0
H1164 H 0.46739 0.61563 0.0427 0.0
H1165 H 0.43835 0.61156 0.04595 0.0
C1166 C 0.47047 0.55508 0.05024 0.0
C1167 C 0.45958 0.55292 0.06782 0.0
C1168 C 0.4642 0.5633 0.03443 0.0
C1169 C 0.4469 0.56951 0.03582 0.0
C1170 C 0.43561 0.56693 0.05321 0.0
H1171 H 0.38899 0.62111 0.95028 0.0
H1172 H 0.39519 0.60428 0.97892 0.0
C1173 C 0.44198 0.55883 0.06909 0.0
C1174 C 0.44059 0.57838 0.01893 0.0
H1175 H 0.43969 0.62522 0.00174 0.0
C1176 C 0.43257 0.56456 0.00252 0.0
C1177 C 0.44321 0.60054 0.01869 0.0
C1178 C 0.45279 0.61662 0.03558 0.0
C1179 C 0.42712 0.57232 0.98586 0.0
C1180 C 0.42991 0.59449 0.98561 0.0
C1181 C 0.43753 0.60818 0.00207 0.0
C1182 C 0.42584 0.60415 0.96817 0.0
C1183 C 0.41836 0.55675 0.96865 0.0
C1184 C 0.44117 0.60976 0.95277 0.0
C1185 C 0.43779 0.6195 0.93646 0.0
C1186 C 0.41898 0.62373 0.93526 0.0
C1187 C 0.4036 0.61799 0.95073 0.0
C1188 C 0.40711 0.60841 0.9671 0.0
H1189 H 0.41235 0.53856 0.9723 0.0
H1190 H 0.40346 0.55732 0.96164 0.0
H1191 H 0.43298 0.56281 0.95831 0.0
H1192 H 0.45591 0.60684 0.95346 0.0
H1193 H 0.44996 0.62373 0.92482 0.0
H1194 H 0.91104 0.42954 0.24722 0.0
H1195 H 0.88519 0.41385 0.21926 0.0
H1196 H 0.89608 0.48121 0.20713 0.0
H1197 H 0.92266 0.49723 0.23462 0.0
H1198 H 0.84354 0.41263 0.21014 0.0
H1199 H 0.91317 0.46308 0.15721 0.0
H1200 H 0.92004 0.4608 0.18164 0.0
H1201 H 0.9106 0.48059 0.17506 0.0
C1202 C 0.90813 0.44108 0.23849 0.0
C1203 C 0.91909 0.46469 0.24307 0.0
C1204 C 0.89323 0.43204 0.22261 0.0
C1205 C 0.88905 0.44645 0.21096 0.0
C1206 C 0.89945 0.46989 0.21573 0.0
H1207 H 0.77791 0.40779 0.12708 0.0
H1208 H 0.80281 0.41994 0.15561 0.0
C1209 C 0.9144 0.47895 0.23159 0.0
C1210 C 0.87372 0.43691 0.19386 0.0
H1211 H 0.87327 0.44262 0.14582 0.0
C1212 C 0.85004 0.4191 0.19606 0.0
C1213 C 0.88237 0.44512 0.17549 0.0
C1214 C 0.90799 0.46329 0.17212 0.0
C1215 C 0.8346 0.40963 0.18039 0.0
C1216 C 0.843 0.41852 0.16211 0.0
C1217 C 0.86682 0.43597 0.15988 0.0
C1218 C 0.82734 0.41023 0.1451 0.0
C1219 C 0.80954 0.39003 0.18355 0.0
C1220 C 0.8331 0.40112 0.12957 0.0
C1221 C 0.81901 0.39434 0.11314 0.0
C1222 C 0.79895 0.39665 0.11192 0.0
C1223 C 0.79314 0.40564 0.12758 0.0
C1224 C 0.80728 0.41247 0.14396 0.0
H1225 H 0.80802 0.38094 0.19706 0.0
H1226 H 0.79754 0.39702 0.18429 0.0
H1227 H 0.80336 0.37729 0.17174 0.0
H1228 H 0.84859 0.39936 0.13013 0.0
H1229 H 0.82399 0.38752 0.10133 0.0
loop_
_geom_bond_atom_site_label_1
_geom_bond_atom_site_label_2
_geom_bond_distance
_geom_bond_site_symmetry_2
_ccdc_geom_bond_type
H0 C19 0.949 . S
H1 C20 0.950 . S
H2 C22 0.950 . S
H3 C23 0.950 . S
H4 C25 0.950 . S
H5 C28 0.950 . S
H6 C29 0.950 . S
H7 C31 0.951 . S
H8 C32 0.949 . S
H9 C34 0.949 . S
H10 C35 0.950 . S
H11 C37 0.950 . S
H12 C38 0.950 . S
H13 C40 0.950 . S
H14 C43 0.950 . S
H15 C44 0.950 . S
H16 C46 0.951 . S
H17 C47 0.949 . S
C18 C19 1.376 . S
C18 C23 1.386 . S
C18 C24 1.483 . S
C19 H0 0.949 . S
C19 C18 1.376 . S
C19 C20 1.397 . S
C20 H1 0.950 . S
C20 C19 1.397 . S
C20 C21 1.391 . S
C21 C20 1.391 . S
C21 C22 1.405 . S
C22 H2 0.950 . S
C22 C21 1.405 . S
C22 C23 1.367 . S
C23 H3 0.950 . S
C23 C18 1.386 . S
C23 C22 1.367 . S
C24 C18 1.483 . S
C24 C25 1.382 1_655 S
C24 C26 1.403 . S
C25 H4 0.950 . S
C25 C24 1.382 1_455 S
C25 C41 1.411 . S
C26 C24 1.403 . S
C26 C27 1.489 . S
C26 C40 1.411 . S
C27 C26 1.489 . S
C27 C28 1.383 . S
C27 C32 1.382 . S
C28 H5 0.950 . S
C28 C27 1.383 . S
C28 C29 1.395 . S
C29 H6 0.950 . S
C29 C28 1.395 . S
C29 C30 1.288 . S
C30 C29 1.288 . S
C30 C31 1.392 . S
C31 H7 0.951 . S
C31 C30 1.392 . S
C31 C32 1.392 . S
C32 H8 0.949 . S
C32 C27 1.382 . S
C32 C31 1.392 . S
C33 C34 1.376 . S
C33 C38 1.386 . S
C33 C39 1.483 . S
C34 H9 0.949 . S
C34 C33 1.376 . S
C34 C35 1.397 . S
C35 H10 0.950 . S
C35 C34 1.397 . S
C35 C36 1.391 . S
C36 C35 1.391 . S
C36 C37 1.405 . S
C37 H11 0.950 . S
C37 C36 1.405 . S
C37 C38 1.367 . S
C38 H12 0.950 . S
C38 C33 1.386 . S
C38 C37 1.367 . S
C39 C33 1.483 . S
C39 C40 1.382 1_455 S
C39 C41 1.403 . S
C40 H13 0.950 . S
C40 C26 1.411 . S
C40 C39 1.382 1_655 S
C41 C25 1.411 . S
C41 C39 1.403 . S
C41 C42 1.489 . S
C42 C41 1.489 . S
C42 C43 1.383 . S
C42 C47 1.382 . S
C43 H14 0.950 . S
C43 C42 1.383 . S
C43 C44 1.395 . S
C44 H15 0.950 . S
C44 C43 1.395 . S
C44 C45 1.288 . S
C45 C44 1.288 . S
C45 C46 1.392 . S
C46 H16 0.951 . S
C46 C45 1.392 . S
C46 C47 1.392 . S
C47 H17 0.949 . S
C47 C42 1.382 . S
C47 C46 1.392 . S
H48 C67 0.949 . S
H49 C68 0.950 . S
H50 C70 0.950 . S
H51 C71 0.950 . S
H52 C73 0.950 . S
H53 C76 0.950 . S
H54 C77 0.950 . S
H55 C79 0.951 . S
H56 C80 0.949 . S
H57 C82 0.949 . S
H58 C83 0.950 . S
H59 C85 0.950 . S
H60 C86 0.950 . S
H61 C88 0.950 . S
H62 C91 0.950 . S
H63 C92 0.950 . S
H64 C94 0.951 . S
H65 C95 0.949 . S
C66 C67 1.376 . S
C66 C71 1.386 . S
C66 C72 1.483 . S
C67 H48 0.949 . S
C67 C66 1.376 . S
C67 C68 1.397 . S
C68 H49 0.950 . S
C68 C67 1.397 . S
C68 C69 1.391 . S
C69 C68 1.391 . S
C69 C70 1.405 . S
C70 H50 0.950 . S
C70 C69 1.405 . S
C70 C71 1.367 . S
C71 H51 0.950 . S
C71 C66 1.386 . S
C71 C70 1.367 . S
C72 C66 1.483 . S
C72 C73 1.382 1_565 S
C72 C74 1.410 . S
C73 H52 0.950 . S
C73 C72 1.382 1_545 S
C73 C89 1.411 . S
C74 C72 1.410 . S
C74 C75 1.506 . S
C74 C88 1.385 1_565 S
C75 C74 1.506 . S
C75 C76 1.383 . S
C75 C80 1.382 . S
C76 H53 0.950 . S
C76 C75 1.383 . S
C76 C77 1.395 . S
C77 H54 0.950 . S
C77 C76 1.395 . S
C77 C78 1.288 . S
C78 C77 1.288 . S
C78 C79 1.392 . S
C79 H55 0.951 . S
C79 C78 1.392 . S
C79 C80 1.392 . S
C80 H56 0.949 . S
C80 C75 1.382 . S
C80 C79 1.392 . S
C81 C82 1.376 . S
C81 C86 1.386 . S
C81 C87 1.483 . S
C82 H57 0.949 . S
C82 C81 1.376 . S
C82 C83 1.397 . S
C83 H58 0.950 . S
C83 C82 1.397 . S
C83 C84 1.391 . S
C84 C83 1.391 . S
C84 C85 1.405 . S
C85 H59 0.950 . S
C85 C84 1.405 . S
C85 C86 1.367 . S
C86 H60 0.950 . S
C86 C81 1.386 . S
C86 C85 1.367 . S
C87 C81 1.483 . S
C87 C88 1.382 . S
C87 C89 1.403 . S
C88 H61 0.950 . S
C88 C74 1.385 1_545 S
C88 C87 1.382 . S
C89 C73 1.411 . S
C89 C87 1.403 . S
C89 C90 1.489 . S
C90 C89 1.489 . S
C90 C91 1.383 . S
C90 C95 1.382 . S
C91 H62 0.950 . S
C91 C90 1.383 . S
C91 C92 1.395 . S
C92 H63 0.950 . S
C92 C91 1.395 . S
C92 C93 1.288 . S
C93 C92 1.288 . S
C93 C94 1.392 . S
C94 H64 0.951 . S
C94 C93 1.392 . S
C94 C95 1.392 . S
C95 H65 0.949 . S
C95 C90 1.382 . S
C95 C94 1.392 . S
H96 C115 0.949 . S
H97 C116 0.950 . S
H98 C118 0.950 . S
H99 C119 0.950 . S
H100 C121 0.950 . S
H101 C124 0.950 . S
H102 C125 0.950 . S
H103 C127 0.951 . S
H104 C128 0.949 . S
H105 C130 0.949 . S
H106 C131 0.950 . S
H107 C133 0.950 . S
H108 C134 0.950 . S
H109 C136 0.950 . S
H110 C139 0.950 . S
H111 C140 0.950 . S
H112 C142 0.951 . S
H113 C143 0.949 . S
C114 C115 1.376 . S
C114 C119 1.386 . S
C114 C120 1.483 . S
C115 H96 0.949 . S
C115 C114 1.376 . S
C115 C116 1.397 . S
C116 H97 0.950 . S
C116 C115 1.397 . S
C116 C117 1.391 . S
C117 C116 1.391 . S
C117 C118 1.405 . S
C118 H98 0.950 . S
C118 C117 1.405 . S
C118 C119 1.367 . S
C119 H99 0.950 . S
C119 C114 1.386 . S
C119 C118 1.367 . S
C120 C114 1.483 . S
C120 C121 1.382 . S
C120 C122 1.403 . S
C121 H100 0.950 . S
C121 C120 1.382 . S
C121 C137 1.411 . S
C122 C120 1.403 . S
C122 C123 1.489 . S
C122 C136 1.411 . S
C123 C122 1.489 . S
C123 C124 1.383 . S
C123 C128 1.382 . S
C124 H101 0.950 . S
C124 C123 1.383 . S
C124 C125 1.395 . S
C125 H102 0.950 . S
C125 C124 1.395 . S
C125 C126 1.288 . S
C126 C125 1.288 . S
C126 C127 1.392 . S
C127 H103 0.951 . S
C127 C126 1.392 . S
C127 C128 1.392 . S
C128 H104 0.949 . S
C128 C123 1.382 . S
C128 C127 1.392 . S
C129 C130 1.376 . S
C129 C134 1.386 . S
C129 C135 1.483 . S
C130 H105 0.949 . S
C130 C129 1.376 . S
C130 C131 1.397 . S
C131 H106 0.950 . S
C131 C130 1.397 . S
C131 C132 1.391 . S
C132 C131 1.391 . S
C132 C133 1.405 . S
C133 H107 0.950 . S
C133 C132 1.405 . S
C133 C134 1.367 . S
C134 H108 0.950 . S
C134 C129 1.386 . S
C134 C133 1.367 . S
C135 C129 1.483 . S
C135 C136 1.382 . S
C135 C137 1.403 . S
C136 H109 0.950 . S
C136 C122 1.411 . S
C136 C135 1.382 . S
C137 C121 1.411 . S
C137 C135 1.403 . S
C137 C138 1.489 . S
C138 C137 1.489 . S
C138 C139 1.383 . S
C138 C143 1.382 . S
C139 H110 0.950 . S
C139 C138 1.383 . S
C139 C140 1.395 . S
C140 H111 0.950 . S
C140 C139 1.395 . S
C140 C141 1.288 . S
C141 C140 1.288 . S
C141 C142 1.392 . S
C142 H112 0.951 . S
C142 C141 1.392 . S
C142 C143 1.392 . S
C143 H113 0.949 . S
C143 C138 1.382 . S
C143 C142 1.392 . S
H144 C163 0.949 . S
H145 C164 0.950 . S
H146 C166 0.950 . S
H147 C167 0.950 . S
H148 C169 0.950 . S
H149 C172 0.950 . S
H150 C173 0.950 . S
H151 C175 0.951 . S
H152 C176 0.949 . S
H153 C178 0.949 . S
H154 C179 0.950 . S
H155 C181 0.950 . S
H156 C182 0.950 . S
H157 C184 0.950 . S
H158 C187 0.950 . S
H159 C188 0.950 . S
H160 C190 0.951 . S
H161 C191 0.949 . S
C162 C163 1.376 . S
C162 C167 1.386 . S
C162 C168 1.483 . S
C163 H144 0.949 . S
C163 C162 1.376 . S
C163 C164 1.397 . S
C164 H145 0.950 . S
C164 C163 1.397 . S
C164 C165 1.391 . S
C165 C164 1.391 . S
C165 C166 1.405 . S
C166 H146 0.950 . S
C166 C165 1.405 . S
C166 C167 1.367 . S
C167 H147 0.950 . S
C167 C162 1.386 . S
C167 C166 1.367 . S
C168 C162 1.483 . S
C168 C169 1.382 1_455 S
C168 C170 1.403 . S
C169 H148 0.950 . S
C169 C168 1.382 1_655 S
C169 C185 1.411 . S
C170 C168 1.403 . S
C170 C171 1.489 . S
C170 C184 1.411 . S
C171 C170 1.489 . S
C171 C172 1.383 . S
C171 C176 1.382 . S
C172 H149 0.950 . S
C172 C171 1.383 . S
C172 C173 1.395 . S
C173 H150 0.950 . S
C173 C172 1.395 . S
C173 C174 1.288 . S
C174 C173 1.288 . S
C174 C175 1.392 . S
C175 H151 0.951 . S
C175 C174 1.392 . S
C175 C176 1.392 . S
C176 H152 0.949 . S
C176 C171 1.382 . S
C176 C175 1.392 . S
C177 C178 1.376 . S
C177 C182 1.386 . S
C177 C183 1.483 . S
C178 H153 0.949 . S
C178 C177 1.376 . S
C178 C179 1.397 . S
C179 H154 0.950 . S
C179 C178 1.397 . S
C179 C180 1.391 . S
C180 C179 1.391 . S
C180 C181 1.405 . S
C181 H155 0.950 . S
C181 C180 1.405 . S
C181 C182 1.367 . S
C182 H156 0.950 . S
C182 C177 1.386 . S
C182 C181 1.367 . S
C183 C177 1.483 . S
C183 C184 1.382 1_655 S
C183 C185 1.403 . S
C184 H157 0.950 . S
C184 C170 1.411 . S
C184 C183 1.382 1_455 S
C185 C169 1.411 . S
C185 C183 1.403 . S
C185 C186 1.489 . S
C186 C185 1.489 . S
C186 C187 1.383 . S
C186 C191 1.382 . S
C187 H158 0.950 . S
C187 C186 1.383 . S
C187 C188 1.395 . S
C188 H159 0.950 . S
C188 C187 1.395 . S
C188 C189 1.288 . S
C189 C188 1.288 . S
C189 C190 1.392 . S
C190 H160 0.951 . S
C190 C189 1.392 . S
C190 C191 1.392 . S
C191 H161 0.949 . S
C191 C186 1.382 . S
C191 C190 1.392 . S
H192 C211 0.949 . S
H193 C212 0.950 . S
H194 C214 0.950 . S
H195 C215 0.950 . S
H196 C217 0.950 . S
H197 C220 0.950 . S
H198 C221 0.950 . S
H199 C223 0.951 . S
H200 C224 0.949 . S
H201 C226 0.949 . S
H202 C227 0.950 . S
H203 C229 0.950 . S
H204 C230 0.950 . S
H205 C232 0.947 1_565 S
H206 C235 0.950 . S
H207 C236 0.950 . S
H208 C238 0.951 . S
H209 C239 0.949 . S
C210 C211 1.376 . S
C210 C215 1.386 1_554 S
C210 C216 1.483 1_554 S
C211 H192 0.949 . S
C211 C210 1.376 . S
C211 C212 1.397 . S
C212 H193 0.950 . S
C212 C211 1.397 . S
C212 C213 1.391 . S
C213 C212 1.391 . S
C213 C214 1.405 . S
C214 H194 0.950 . S
C214 C213 1.405 . S
C214 C215 1.367 1_554 S
C215 H195 0.950 . S
C215 C210 1.386 1_556 S
C215 C214 1.367 1_556 S
C216 C210 1.483 1_556 S
C216 C217 1.382 1_556 S
C216 C218 1.403 . S
C217 H196 0.950 . S
C217 C216 1.382 1_554 S
C217 C233 1.411 1_545 S
C218 C216 1.403 . S
C218 C219 1.489 . S
C218 C232 1.411 . S
C219 C218 1.489 . S
C219 C220 1.383 . S
C219 C224 1.382 . S
C220 H197 0.950 . S
C220 C219 1.383 . S
C220 C221 1.395 . S
C221 H198 0.950 . S
C221 C220 1.395 . S
C221 C222 1.288 . S
C222 C221 1.288 . S
C222 C223 1.392 . S
C223 H199 0.951 . S
C223 C222 1.392 . S
C223 C224 1.392 . S
C224 H200 0.949 . S
C224 C219 1.382 . S
C224 C223 1.392 . S
C225 C226 1.376 . S
C225 C230 1.386 . S
C225 C231 1.483 . S
C226 H201 0.949 . S
C226 C225 1.376 . S
C226 C227 1.397 . S
C227 H202 0.950 . S
C227 C226 1.397 . S
C227 C228 1.391 . S
C228 C227 1.391 . S
C228 C229 1.405 . S
C229 H203 0.950 . S
C229 C228 1.405 . S
C229 C230 1.367 . S
C230 H204 0.950 . S
C230 C225 1.386 . S
C230 C229 1.367 . S
C231 C225 1.483 . S
C231 C232 1.382 1_565 S
C231 C233 1.403 1_556 S
C232 H205 0.947 1_545 S
C232 C218 1.411 . S
C232 C231 1.382 1_545 S
C233 C217 1.411 1_565 S
C233 C231 1.403 1_554 S
C233 C234 1.489 . S
C234 C233 1.489 . S
C234 C235 1.383 . S
C234 C239 1.382 . S
C235 H206 0.950 . S
C235 C234 1.383 . S
C235 C236 1.395 . S
C236 H207 0.950 . S
C236 C235 1.395 . S
C236 C237 1.288 . S
C237 C236 1.288 . S
C237 C238 1.392 . S
C238 H208 0.951 . S
C238 C237 1.392 . S
C238 C239 1.392 . S
C239 H209 0.949 . S
C239 C234 1.382 . S
C239 C238 1.392 . S
H240 C259 0.949 . S
H241 C260 0.950 . S
H242 C262 0.950 . S
H243 C263 0.950 . S
H244 C265 0.950 . S
H245 C268 0.950 . S
H246 C269 0.950 . S
H247 C271 0.951 . S
H248 C272 0.949 . S
H249 C274 0.949 . S
H250 C275 0.950 . S
H251 C277 0.950 . S
H252 C278 0.950 . S
H253 C280 0.950 . S
H254 C283 0.950 . S
H255 C284 0.950 . S
H256 C286 0.951 . S
H257 C287 0.949 . S
C258 C259 1.376 . S
C258 C263 1.386 . S
C258 C264 1.483 . S
C259 H240 0.949 . S
C259 C258 1.376 . S
C259 C260 1.397 . S
C260 H241 0.950 . S
C260 C259 1.397 . S
C260 C261 1.391 . S
C261 C260 1.391 . S
C261 C262 1.405 . S
C262 H242 0.950 . S
C262 C261 1.405 . S
C262 C263 1.367 . S
C263 H243 0.950 . S
C263 C258 1.386 . S
C263 C262 1.367 . S
C264 C258 1.483 . S
C264 C265 1.382 . S
C264 C266 1.403 . S
C265 H244 0.950 . S
C265 C264 1.382 . S
C265 C281 1.411 . S
C266 C264 1.403 . S
C266 C267 1.489 . S
C266 C280 1.411 . S
C267 C266 1.489 . S
C267 C268 1.383 . S
C267 C272 1.382 . S
C268 H245 0.950 . S
C268 C267 1.383 . S
C268 C269 1.395 . S
C269 H246 0.950 . S
C269 C268 1.395 . S
C269 C270 1.288 . S
C270 C269 1.288 . S
C270 C271 1.392 . S
C271 H247 0.951 . S
C271 C270 1.392 . S
C271 C272 1.392 . S
C272 H248 0.949 . S
C272 C267 1.382 . S
C272 C271 1.392 . S
C273 C274 1.376 . S
C273 C278 1.386 . S
C273 C279 1.483 . S
C274 H249 0.949 . S
C274 C273 1.376 . S
C274 C275 1.397 . S
C275 H250 0.950 . S
C275 C274 1.397 . S
C275 C276 1.391 . S
C276 C275 1.391 . S
C276 C277 1.405 . S
C277 H251 0.950 . S
C277 C276 1.405 . S
C277 C278 1.367 . S
C278 H252 0.950 . S
C278 C273 1.386 . S
C278 C277 1.367 . S
C279 C273 1.483 . S
C279 C280 1.382 . S
C279 C281 1.403 . S
C280 H253 0.950 . S
C280 C266 1.411 . S
C280 C279 1.382 . S
C281 C265 1.411 . S
C281 C279 1.403 . S
C281 C282 1.489 . S
C282 C281 1.489 . S
C282 C283 1.383 . S
C282 C287 1.382 . S
C283 H254 0.950 . S
C283 C282 1.383 . S
C283 C284 1.395 . S
C284 H255 0.950 . S
C284 C283 1.395 . S
C284 C285 1.288 . S
C285 C284 1.288 . S
C285 C286 1.392 . S
C286 H256 0.951 . S
C286 C285 1.392 . S
C286 C287 1.392 . S
C287 H257 0.949 . S
C287 C282 1.382 . S
C287 C286 1.392 . S
C288 O289 1.160 . S
C288 O295 1.185 . S
O289 C288 1.160 . S
O290 Zn291 1.899 . S
O290 C298 1.284 . S
Zn291 O290 1.899 . S
Zn291 O292 2.032 . S
Zn291 O295 2.086 . S
Zn291 O300 1.977 . S
O292 Zn291 2.032 . S
O292 C296 1.278 . S
C293 O294 1.203 . S
C293 O300 1.267 . S
O294 C293 1.203 . S
O295 C288 1.185 . S
O295 Zn291 2.086 . S
C296 O292 1.278 . S
C296 O297 1.211 . S
O297 C296 1.211 . S
C298 O290 1.284 . S
C298 O299 1.273 . S
O299 C298 1.273 . S
O300 Zn291 1.977 . S
O300 C293 1.267 . S
C301 O302 1.160 . S
C301 O308 1.185 . S
O302 C301 1.160 . S
O303 Zn304 1.899 . S
O303 C311 1.284 . S
Zn304 O303 1.899 . S
Zn304 O305 2.032 . S
Zn304 O308 2.086 . S
Zn304 O313 1.977 . S
O305 Zn304 2.032 . S
O305 C309 1.278 . S
C306 O307 1.203 . S
C306 O313 1.267 . S
O307 C306 1.203 . S
O308 C301 1.185 . S
O308 Zn304 2.086 . S
C309 O305 1.278 . S
C309 O310 1.211 . S
O310 C309 1.211 . S
C311 O303 1.284 . S
C311 O312 1.273 . S
O312 C311 1.273 . S
O313 Zn304 1.977 . S
O313 C306 1.267 . S
C314 O315 1.160 . S
C314 O321 1.185 . S
O315 C314 1.160 . S
O316 Zn317 1.899 . S
O316 C324 1.284 . S
Zn317 O316 1.899 . S
Zn317 O318 2.032 . S
Zn317 O321 2.086 . S
Zn317 O326 1.977 . S
O318 Zn317 2.032 . S
O318 C322 1.278 . S
C319 O320 1.203 . S
C319 O326 1.267 . S
O320 C319 1.203 . S
O321 C314 1.185 . S
O321 Zn317 2.086 . S
C322 O318 1.278 . S
C322 O323 1.211 . S
O323 C322 1.211 . S
C324 O316 1.284 . S
C324 O325 1.273 . S
O325 C324 1.273 . S
O326 Zn317 1.977 . S
O326 C319 1.267 . S
C327 O328 1.160 . S
C327 O334 1.185 . S
O328 C327 1.160 . S
O329 Zn330 1.899 . S
O329 C337 1.284 . S
Zn330 O329 1.899 . S
Zn330 O331 2.032 . S
Zn330 O334 2.086 . S
Zn330 O339 1.977 . S
O331 Zn330 2.032 . S
O331 C335 1.278 . S
C332 O333 1.203 . S
C332 O339 1.267 . S
O333 C332 1.203 . S
O334 C327 1.185 . S
O334 Zn330 2.086 . S
C335 O331 1.278 . S
C335 O336 1.211 . S
O336 C335 1.211 . S
C337 O329 1.284 . S
C337 O338 1.273 . S
O338 C337 1.273 . S
O339 Zn330 1.977 . S
O339 C332 1.267 . S
C340 O341 1.160 . S
C340 O347 1.185 . S
O341 C340 1.160 . S
O342 Zn343 1.899 . S
O342 C350 1.284 . S
Zn343 O342 1.899 . S
Zn343 O344 2.032 . S
Zn343 O347 2.086 . S
Zn343 O352 1.977 . S
O344 Zn343 2.032 . S
O344 C348 1.278 . S
C345 O346 1.203 . S
C345 O352 1.267 . S
O346 C345 1.203 . S
O347 C340 1.185 . S
O347 Zn343 2.086 . S
C348 O344 1.278 . S
C348 O349 1.211 . S
O349 C348 1.211 . S
C350 O342 1.284 . S
C350 O351 1.273 . S
O351 C350 1.273 . S
O352 Zn343 1.977 . S
O352 C345 1.267 . S
C353 O354 1.160 . S
C353 O360 1.185 . S
O354 C353 1.160 . S
O355 Zn356 1.899 . S
O355 C363 1.284 . S
Zn356 O355 1.899 . S
Zn356 O357 2.032 . S
Zn356 O360 2.086 . S
Zn356 O365 1.977 . S
O357 Zn356 2.032 . S
O357 C361 1.278 . S
C358 O359 1.203 . S
C358 O365 1.267 . S
O359 C358 1.203 . S
O360 C353 1.185 . S
O360 Zn356 2.086 . S
C361 O357 1.278 . S
C361 O362 1.211 . S
O362 C361 1.211 . S
C363 O355 1.284 . S
C363 O364 1.273 . S
O364 C363 1.273 . S
O365 Zn356 1.977 . S
O365 C358 1.267 . S
H366 C374 0.929 . S
H367 C376 0.930 . S
H368 C378 0.930 . S
H369 C381 0.929 . S
H370 C384 0.930 . S
H371 C386 0.960 . S
H372 C386 0.960 . S
H373 C386 0.960 . S
C374 H366 0.929 . S
C374 C375 1.377 . S
C374 C376 1.384 . S
C375 C374 1.377 . S
C375 C381 1.390 . S
C376 H367 0.930 . S
C376 C374 1.384 . S
C376 C377 1.372 . S
C377 C376 1.372 . S
C377 C378 1.400 . S
C377 C382 1.490 . S
C378 H368 0.930 . S
C378 C377 1.400 . S
C378 C381 1.386 . S
H379 C395 0.930 . S
H380 C396 0.931 . S
C381 H369 0.929 . S
C381 C375 1.390 . S
C381 C378 1.386 . S
C382 C377 1.490 . S
C382 C384 1.395 . S
C382 C385 1.403 . S
H383 C389 0.930 . S
C384 H370 0.930 . S
C384 C382 1.395 . S
C384 C387 1.403 . S
C385 C382 1.403 . S
C385 C386 1.524 . S
C385 C389 1.400 . S
C386 H371 0.960 . S
C386 H372 0.960 . S
C386 H373 0.960 . S
C386 C385 1.524 . S
C387 C384 1.403 . S
C387 C388 1.392 . S
C387 C391 1.495 . S
C388 C387 1.392 . S
C388 C389 1.385 . S
C388 C390 1.478 . S
C389 H383 0.930 . S
C389 C385 1.400 . S
C389 C388 1.385 . S
C390 C388 1.478 . S
C390 C392 1.381 . S
C390 C396 1.383 . S
C391 C387 1.495 . S
C391 H397 0.959 . S
C391 H398 0.961 . S
C391 H399 0.960 . S
C392 C390 1.381 . S
C392 C393 1.394 . S
C392 H400 0.930 . S
C393 C392 1.394 . S
C393 C394 1.383 . S
C393 H401 0.929 . S
C394 C393 1.383 . S
C394 C395 1.377 . S
C395 H379 0.930 . S
C395 C394 1.377 . S
C395 C396 1.379 . S
C396 H380 0.931 . S
C396 C390 1.383 . S
C396 C395 1.379 . S
H397 C391 0.959 . S
H398 C391 0.961 . S
H399 C391 0.960 . S
H400 C392 0.930 . S
H401 C393 0.929 . S
H402 C410 0.929 . S
H403 C412 0.930 . S
H404 C414 0.930 . S
H405 C417 0.929 . S
H406 C420 0.930 . S
H407 C422 0.960 . S
H408 C422 0.960 . S
H409 C422 0.960 . S
C410 H402 0.929 . S
C410 C411 1.377 . S
C410 C412 1.384 . S
C411 C410 1.377 . S
C411 C417 1.390 . S
C412 H403 0.930 . S
C412 C410 1.384 . S
C412 C413 1.372 . S
C413 C412 1.372 . S
C413 C414 1.400 . S
C413 C418 1.490 . S
C414 H404 0.930 . S
C414 C413 1.400 . S
C414 C417 1.386 . S
H415 C431 0.930 . S
H416 C432 0.931 . S
C417 H405 0.929 . S
C417 C411 1.390 . S
C417 C414 1.386 . S
C418 C413 1.490 . S
C418 C420 1.395 . S
C418 C421 1.403 . S
H419 C425 0.930 . S
C420 H406 0.930 . S
C420 C418 1.395 . S
C420 C423 1.403 . S
C421 C418 1.403 . S
C421 C422 1.524 . S
C421 C425 1.400 . S
C422 H407 0.960 . S
C422 H408 0.960 . S
C422 H409 0.960 . S
C422 C421 1.524 . S
C423 C420 1.403 . S
C423 C424 1.392 . S
C423 C427 1.495 . S
C424 C423 1.392 . S
C424 C425 1.385 . S
C424 C426 1.478 . S
C425 H419 0.930 . S
C425 C421 1.400 . S
C425 C424 1.385 . S
C426 C424 1.478 . S
C426 C428 1.381 . S
C426 C432 1.383 . S
C427 C423 1.495 . S
C427 H433 0.959 . S
C427 H434 0.961 . S
C427 H435 0.960 . S
C428 C426 1.381 . S
C428 C429 1.394 . S
C428 H436 0.930 . S
C429 C428 1.394 . S
C429 C430 1.383 . S
C429 H437 0.929 . S
C430 C429 1.383 . S
C430 C431 1.377 . S
C431 H415 0.930 . S
C431 C430 1.377 . S
C431 C432 1.379 . S
C432 H416 0.931 . S
C432 C426 1.383 . S
C432 C431 1.379 . S
H433 C427 0.959 . S
H434 C427 0.961 . S
H435 C427 0.960 . S
H436 C428 0.930 . S
H437 C429 0.929 . S
H438 C446 0.929 . S
H439 C448 0.930 . S
H440 C450 0.930 . S
H441 C453 0.929 . S
H442 C456 0.930 . S
H443 C458 0.960 . S
H444 C458 0.960 . S
H445 C458 0.960 . S
C446 H438 0.929 . S
C446 C447 1.377 . S
C446 C448 1.384 . S
C447 C446 1.377 . S
C447 C453 1.390 . S
C448 H439 0.930 . S
C448 C446 1.384 . S
C448 C449 1.372 . S
C449 C448 1.372 . S
C449 C450 1.400 . S
C449 C454 1.490 . S
C450 H440 0.930 . S
C450 C449 1.400 . S
C450 C453 1.386 . S
H451 C467 0.930 . S
H452 C468 0.931 . S
C453 H441 0.929 . S
C453 C447 1.390 . S
C453 C450 1.386 . S
C454 C449 1.490 . S
C454 C456 1.395 . S
C454 C457 1.403 . S
H455 C461 0.930 . S
C456 H442 0.930 . S
C456 C454 1.395 . S
C456 C459 1.403 . S
C457 C454 1.403 . S
C457 C458 1.524 . S
C457 C461 1.400 . S
C458 H443 0.960 . S
C458 H444 0.960 . S
C458 H445 0.960 . S
C458 C457 1.524 . S
C459 C456 1.403 . S
C459 C460 1.392 . S
C459 C463 1.495 . S
C460 C459 1.392 . S
C460 C461 1.385 . S
C460 C462 1.478 . S
C461 H455 0.930 . S
C461 C457 1.400 . S
C461 C460 1.385 . S
C462 C460 1.478 . S
C462 C464 1.381 . S
C462 C468 1.383 . S
C463 C459 1.495 . S
C463 H469 0.959 . S
C463 H470 0.961 . S
C463 H471 0.960 . S
C464 C462 1.381 . S
C464 C465 1.394 . S
C464 H472 0.930 . S
C465 C464 1.394 . S
C465 C466 1.383 . S
C465 H473 0.929 . S
C466 C465 1.383 . S
C466 C467 1.377 . S
C467 H451 0.930 . S
C467 C466 1.377 . S
C467 C468 1.379 . S
C468 H452 0.931 . S
C468 C462 1.383 . S
C468 C467 1.379 . S
H469 C463 0.959 . S
H470 C463 0.961 . S
H471 C463 0.960 . S
H472 C464 0.930 . S
H473 C465 0.929 . S
H474 C482 0.929 . S
H475 C484 0.930 . S
H476 C486 0.930 . S
H477 C489 0.929 . S
H478 C492 0.930 . S
H479 C494 0.960 . S
H480 C494 0.960 . S
H481 C494 0.960 . S
C482 H474 0.929 . S
C482 C483 1.377 . S
C482 C484 1.384 . S
C483 C482 1.377 . S
C483 C489 1.390 . S
C484 H475 0.930 . S
C484 C482 1.384 . S
C484 C485 1.372 . S
C485 C484 1.372 . S
C485 C486 1.400 . S
C485 C490 1.490 . S
C486 H476 0.930 . S
C486 C485 1.400 . S
C486 C489 1.386 . S
H487 C503 0.930 . S
H488 C504 0.931 . S
C489 H477 0.929 . S
C489 C483 1.390 . S
C489 C486 1.386 . S
C490 C485 1.490 . S
C490 C492 1.395 . S
C490 C493 1.403 . S
H491 C497 0.930 . S
C492 H478 0.930 . S
C492 C490 1.395 . S
C492 C495 1.403 . S
C493 C490 1.403 . S
C493 C494 1.524 . S
C493 C497 1.400 . S
C494 H479 0.960 . S
C494 H480 0.960 . S
C494 H481 0.960 . S
C494 C493 1.524 . S
C495 C492 1.403 . S
C495 C496 1.392 . S
C495 C499 1.495 . S
C496 C495 1.392 . S
C496 C497 1.385 . S
C496 C498 1.478 . S
C497 H491 0.930 . S
C497 C493 1.400 . S
C497 C496 1.385 . S
C498 C496 1.478 . S
C498 C500 1.381 . S
C498 C504 1.383 . S
C499 C495 1.495 . S
C499 H505 0.959 . S
C499 H506 0.961 . S
C499 H507 0.960 . S
C500 C498 1.381 . S
C500 C501 1.394 . S
C500 H508 0.930 . S
C501 C500 1.394 . S
C501 C502 1.383 . S
C501 H509 0.929 . S
C502 C501 1.383 . S
C502 C503 1.377 . S
C503 H487 0.930 . S
C503 C502 1.377 . S
C503 C504 1.379 . S
C504 H488 0.931 . S
C504 C498 1.383 . S
C504 C503 1.379 . S
H505 C499 0.959 . S
H506 C499 0.961 . S
H507 C499 0.960 . S
H508 C500 0.930 . S
H509 C501 0.929 . S
H510 C518 0.929 . S
H511 C520 0.930 . S
H512 C522 0.930 . S
H513 C525 0.929 . S
H514 C528 0.930 . S
H515 C530 0.960 . S
H516 C530 0.960 . S
H517 C530 0.960 . S
C518 H510 0.929 . S
C518 C519 1.377 . S
C518 C520 1.384 . S
C519 C518 1.377 . S
C519 C525 1.390 . S
C520 H511 0.930 . S
C520 C518 1.384 . S
C520 C521 1.372 . S
C521 C520 1.372 . S
C521 C522 1.400 . S
C521 C526 1.490 . S
C522 H512 0.930 . S
C522 C521 1.400 . S
C522 C525 1.386 . S
H523 C539 0.930 . S
H524 C540 0.931 . S
C525 H513 0.929 . S
C525 C519 1.390 . S
C525 C522 1.386 . S
C526 C521 1.490 . S
C526 C528 1.395 . S
C526 C529 1.403 . S
H527 C533 0.930 . S
C528 H514 0.930 . S
C528 C526 1.395 . S
C528 C531 1.403 . S
C529 C526 1.403 . S
C529 C530 1.524 . S
C529 C533 1.400 . S
C530 H515 0.960 . S
C530 H516 0.960 . S
C530 H517 0.960 . S
C530 C529 1.524 . S
C531 C528 1.403 . S
C531 C532 1.392 . S
C531 C535 1.495 . S
C532 C531 1.392 . S
C532 C533 1.385 . S
C532 C534 1.478 . S
C533 H527 0.930 . S
C533 C529 1.400 . S
C533 C532 1.385 . S
C534 C532 1.478 . S
C534 C536 1.381 . S
C534 C540 1.383 . S
C535 C531 1.495 . S
C535 H541 0.959 . S
C535 H542 0.961 . S
C535 H543 0.960 . S
C536 C534 1.381 . S
C536 C537 1.394 . S
C536 H544 0.930 . S
C537 C536 1.394 . S
C537 C538 1.383 . S
C537 H545 0.929 . S
C538 C537 1.383 . S
C538 C539 1.377 . S
C539 H523 0.930 . S
C539 C538 1.377 . S
C539 C540 1.379 . S
C540 H524 0.931 . S
C540 C534 1.383 . S
C540 C539 1.379 . S
H541 C535 0.959 . S
H542 C535 0.961 . S
H543 C535 0.960 . S
H544 C536 0.930 . S
H545 C537 0.929 . S
H546 C554 0.929 . S
H547 C556 0.930 . S
H548 C558 0.930 . S
H549 C561 0.929 . S
H550 C564 0.930 . S
H551 C566 0.960 . S
H552 C566 0.960 . S
H553 C566 0.960 . S
C554 H546 0.929 . S
C554 C555 1.377 . S
C554 C556 1.384 . S
C555 C554 1.377 . S
C555 C561 1.390 . S
C556 H547 0.930 . S
C556 C554 1.384 . S
C556 C557 1.372 . S
C557 C556 1.372 . S
C557 C558 1.400 . S
C557 C562 1.490 . S
C558 H548 0.930 . S
C558 C557 1.400 . S
C558 C561 1.386 . S
H559 C575 0.930 . S
H560 C576 0.931 . S
C561 H549 0.929 . S
C561 C555 1.390 . S
C561 C558 1.386 . S
C562 C557 1.490 . S
C562 C564 1.395 . S
C562 C565 1.403 . S
H563 C569 0.930 . S
C564 H550 0.930 . S
C564 C562 1.395 . S
C564 C567 1.403 . S
C565 C562 1.403 . S
C565 C566 1.524 . S
C565 C569 1.400 . S
C566 H551 0.960 . S
C566 H552 0.960 . S
C566 H553 0.960 . S
C566 C565 1.524 . S
C567 C564 1.403 . S
C567 C568 1.392 . S
C567 C571 1.495 . S
C568 C567 1.392 . S
C568 C569 1.385 . S
C568 C570 1.478 . S
C569 H563 0.930 . S
C569 C565 1.400 . S
C569 C568 1.385 . S
C570 C568 1.478 . S
C570 C572 1.381 . S
C570 C576 1.383 . S
C571 C567 1.495 . S
C571 H577 0.959 . S
C571 H578 0.961 . S
C571 H579 0.960 . S
C572 C570 1.381 . S
C572 C573 1.394 . S
C572 H580 0.930 . S
C573 C572 1.394 . S
C573 C574 1.383 . S
C573 H581 0.929 . S
C574 C573 1.383 . S
C574 C575 1.377 . S
C575 H559 0.930 . S
C575 C574 1.377 . S
C575 C576 1.379 . S
C576 H560 0.931 . S
C576 C570 1.383 . S
C576 C575 1.379 . S
H577 C571 0.959 . S
H578 C571 0.961 . S
H579 C571 0.960 . S
H580 C572 0.930 . S
H581 C573 0.929 . S
H582 C590 0.929 . S
H583 C592 0.930 . S
H584 C594 0.930 . S
H585 C597 0.929 . S
H586 C600 0.930 . S
H587 C602 0.960 . S
H588 C602 0.960 . S
H589 C602 0.960 . S
C590 H582 0.929 . S
C590 C591 1.377 . S
C590 C592 1.384 . S
C591 C590 1.377 . S
C591 C597 1.390 . S
C592 H583 0.930 . S
C592 C590 1.384 . S
C592 C593 1.372 . S
C593 C592 1.372 . S
C593 C594 1.400 . S
C593 C598 1.490 . S
C594 H584 0.930 . S
C594 C593 1.400 . S
C594 C597 1.386 . S
H595 C611 0.930 . S
H596 C612 0.931 . S
C597 H585 0.929 . S
C597 C591 1.390 . S
C597 C594 1.386 . S
C598 C593 1.490 . S
C598 C600 1.395 . S
C598 C601 1.403 . S
H599 C605 0.930 . S
C600 H586 0.930 . S
C600 C598 1.395 . S
C600 C603 1.403 . S
C601 C598 1.403 . S
C601 C602 1.524 . S
C601 C605 1.400 . S
C602 H587 0.960 . S
C602 H588 0.960 . S
C602 H589 0.960 . S
C602 C601 1.524 . S
C603 C600 1.403 . S
C603 C604 1.392 . S
C603 C607 1.495 . S
C604 C603 1.392 . S
C604 C605 1.385 . S
C604 C606 1.478 . S
C605 H599 0.930 . S
C605 C601 1.400 . S
C605 C604 1.385 . S
C606 C604 1.478 . S
C606 C608 1.381 . S
C606 C612 1.383 . S
C607 C603 1.495 . S
C607 H613 0.959 . S
C607 H614 0.961 . S
C607 H615 0.960 . S
C608 C606 1.381 . S
C608 C609 1.394 . S
C608 H616 0.930 . S
C609 C608 1.394 . S
C609 C610 1.383 . S
C609 H617 0.929 . S
C610 C609 1.383 . S
C610 C611 1.377 . S
C611 H595 0.930 . S
C611 C610 1.377 . S
C611 C612 1.379 . S
C612 H596 0.931 . S
C612 C606 1.383 . S
C612 C611 1.379 . S
H613 C607 0.959 . S
H614 C607 0.961 . S
H615 C607 0.960 . S
H616 C608 0.930 . S
H617 C609 0.929 . S
H618 C626 0.929 . S
H619 C628 0.930 . S
H620 C630 0.930 . S
H621 C633 0.929 . S
H622 C636 0.930 . S
H623 C638 0.960 . S
H624 C638 0.960 . S
H625 C638 0.960 . S
C626 H618 0.929 . S
C626 C627 1.377 . S
C626 C628 1.384 . S
C627 C626 1.377 . S
C627 C633 1.390 . S
C628 H619 0.930 . S
C628 C626 1.384 . S
C628 C629 1.372 . S
C629 C628 1.372 . S
C629 C630 1.400 . S
C629 C634 1.490 . S
C630 H620 0.930 . S
C630 C629 1.400 . S
C630 C633 1.386 . S
H631 C647 0.930 . S
H632 C648 0.931 . S
C633 H621 0.929 . S
C633 C627 1.390 . S
C633 C630 1.386 . S
C634 C629 1.490 . S
C634 C636 1.395 . S
C634 C637 1.403 . S
H635 C641 0.930 . S
C636 H622 0.930 . S
C636 C634 1.395 . S
C636 C639 1.403 . S
C637 C634 1.403 . S
C637 C638 1.524 . S
C637 C641 1.400 . S
C638 H623 0.960 . S
C638 H624 0.960 . S
C638 H625 0.960 . S
C638 C637 1.524 . S
C639 C636 1.403 . S
C639 C640 1.392 . S
C639 C643 1.495 . S
C640 C639 1.392 . S
C640 C641 1.385 . S
C640 C642 1.478 . S
C641 H635 0.930 . S
C641 C637 1.400 . S
C641 C640 1.385 . S
C642 C640 1.478 . S
C642 C644 1.381 . S
C642 C648 1.383 . S
C643 C639 1.495 . S
C643 H649 0.959 . S
C643 H650 0.961 . S
C643 H651 0.960 . S
C644 C642 1.381 . S
C644 C645 1.394 . S
C644 H652 0.930 . S
C645 C644 1.394 . S
C645 C646 1.383 . S
C645 H653 0.929 . S
C646 C645 1.383 . S
C646 C647 1.377 . S
C647 H631 0.930 . S
C647 C646 1.377 . S
C647 C648 1.379 . S
C648 H632 0.931 . S
C648 C642 1.383 . S
C648 C647 1.379 . S
H649 C643 0.959 . S
H650 C643 0.961 . S
H651 C643 0.960 . S
H652 C644 0.930 . S
H653 C645 0.929 . S
H654 C662 0.929 . S
H655 C664 0.930 . S
H656 C666 0.930 . S
H657 C669 0.929 . S
H658 C672 0.930 . S
H659 C674 0.960 . S
H660 C674 0.960 . S
H661 C674 0.960 . S
C662 H654 0.929 . S
C662 C663 1.377 . S
C662 C664 1.384 . S
C663 C662 1.377 . S
C663 C669 1.390 . S
C664 H655 0.930 . S
C664 C662 1.384 . S
C664 C665 1.372 . S
C665 C664 1.372 . S
C665 C666 1.400 . S
C665 C670 1.490 . S
C666 H656 0.930 . S
C666 C665 1.400 . S
C666 C669 1.386 . S
H667 C683 0.930 . S
H668 C684 0.931 . S
C669 H657 0.929 . S
C669 C663 1.390 . S
C669 C666 1.386 . S
C670 C665 1.490 . S
C670 C672 1.395 . S
C670 C673 1.403 . S
H671 C677 0.930 . S
C672 H658 0.930 . S
C672 C670 1.395 . S
C672 C675 1.403 . S
C673 C670 1.403 . S
C673 C674 1.524 . S
C673 C677 1.400 . S
C674 H659 0.960 . S
C674 H660 0.960 . S
C674 H661 0.960 . S
C674 C673 1.524 . S
C675 C672 1.403 . S
C675 C676 1.392 . S
C675 C679 1.495 . S
C676 C675 1.392 . S
C676 C677 1.385 . S
C676 C678 1.478 . S
C677 H671 0.930 . S
C677 C673 1.400 . S
C677 C676 1.385 . S
C678 C676 1.478 . S
C678 C680 1.381 . S
C678 C684 1.383 . S
C679 C675 1.495 . S
C679 H685 0.959 . S
C679 H686 0.961 . S
C679 H687 0.960 . S
C680 C678 1.381 . S
C680 C681 1.394 . S
C680 H688 0.930 . S
C681 C680 1.394 . S
C681 C682 1.383 . S
C681 H689 0.929 . S
C682 C681 1.383 . S
C682 C683 1.377 . S
C683 H667 0.930 . S
C683 C682 1.377 . S
C683 C684 1.379 . S
C684 H668 0.931 . S
C684 C678 1.383 . S
C684 C683 1.379 . S
H685 C679 0.959 . S
H686 C679 0.961 . S
H687 C679 0.960 . S
H688 C680 0.930 . S
H689 C681 0.929 . S
H690 C698 0.929 . S
H691 C700 0.930 . S
H692 C702 0.930 . S
H693 C705 0.929 . S
H694 C708 0.930 . S
H695 C710 0.960 . S
H696 C710 0.960 . S
H697 C710 0.960 . S
C698 H690 0.929 . S
C698 C699 1.377 . S
C698 C700 1.384 . S
C699 C698 1.377 . S
C699 C705 1.390 . S
C700 H691 0.930 . S
C700 C698 1.384 . S
C700 C701 1.372 . S
C701 C700 1.372 . S
C701 C702 1.400 . S
C701 C706 1.490 . S
C702 H692 0.930 . S
C702 C701 1.400 . S
C702 C705 1.386 . S
H703 C719 0.930 . S
H704 C720 0.931 . S
C705 H693 0.929 . S
C705 C699 1.390 . S
C705 C702 1.386 . S
C706 C701 1.490 . S
C706 C708 1.395 . S
C706 C709 1.403 . S
H707 C713 0.930 . S
C708 H694 0.930 . S
C708 C706 1.395 . S
C708 C711 1.403 . S
C709 C706 1.403 . S
C709 C710 1.524 . S
C709 C713 1.400 . S
C710 H695 0.960 . S
C710 H696 0.960 . S
C710 H697 0.960 . S
C710 C709 1.524 . S
C711 C708 1.403 . S
C711 C712 1.392 . S
C711 C715 1.495 . S
C712 C711 1.392 . S
C712 C713 1.385 . S
C712 C714 1.478 . S
C713 H707 0.930 . S
C713 C709 1.400 . S
C713 C712 1.385 . S
C714 C712 1.478 . S
C714 C716 1.381 . S
C714 C720 1.383 . S
C715 C711 1.495 . S
C715 H721 0.959 . S
C715 H722 0.961 . S
C715 H723 0.960 . S
C716 C714 1.381 . S
C716 C717 1.394 . S
C716 H724 0.930 . S
C717 C716 1.394 . S
C717 C718 1.383 . S
C717 H725 0.929 . S
C718 C717 1.383 . S
C718 C719 1.377 . S
C719 H703 0.930 . S
C719 C718 1.377 . S
C719 C720 1.379 . S
C720 H704 0.931 . S
C720 C714 1.383 . S
C720 C719 1.379 . S
H721 C715 0.959 . S
H722 C715 0.961 . S
H723 C715 0.960 . S
H724 C716 0.930 . S
H725 C717 0.929 . S
H726 C734 0.929 . S
H727 C736 0.930 . S
H728 C738 0.930 . S
H729 C741 0.929 . S
H730 C744 0.930 . S
H731 C746 0.960 . S
H732 C746 0.960 . S
H733 C746 0.960 . S
C734 H726 0.929 . S
C734 C735 1.377 . S
C734 C736 1.384 . S
C735 C734 1.377 . S
C735 C741 1.390 . S
C736 H727 0.930 . S
C736 C734 1.384 . S
C736 C737 1.372 . S
C737 C736 1.372 . S
C737 C738 1.400 . S
C737 C742 1.490 . S
C738 H728 0.930 . S
C738 C737 1.400 . S
C738 C741 1.386 . S
H739 C755 0.930 . S
H740 C756 0.931 . S
C741 H729 0.929 . S
C741 C735 1.390 . S
C741 C738 1.386 . S
C742 C737 1.490 . S
C742 C744 1.395 . S
C742 C745 1.403 . S
H743 C749 0.930 . S
C744 H730 0.930 . S
C744 C742 1.395 . S
C744 C747 1.403 . S
C745 C742 1.403 . S
C745 C746 1.524 . S
C745 C749 1.400 . S
C746 H731 0.960 . S
C746 H732 0.960 . S
C746 H733 0.960 . S
C746 C745 1.524 . S
C747 C744 1.403 . S
C747 C748 1.392 . S
C747 C751 1.495 . S
C748 C747 1.392 . S
C748 C749 1.385 . S
C748 C750 1.478 . S
C749 H743 0.930 . S
C749 C745 1.400 . S
C749 C748 1.385 . S
C750 C748 1.478 . S
C750 C752 1.381 . S
C750 C756 1.383 . S
C751 C747 1.495 . S
C751 H757 0.959 . S
C751 H758 0.961 . S
C751 H759 0.960 . S
C752 C750 1.381 . S
C752 C753 1.394 . S
C752 H760 0.930 . S
C753 C752 1.394 . S
C753 C754 1.383 . S
C753 H761 0.929 . S
C754 C753 1.383 . S
C754 C755 1.377 . S
C755 H739 0.930 . S
C755 C754 1.377 . S
C755 C756 1.379 . S
C756 H740 0.931 . S
C756 C750 1.383 . S
C756 C755 1.379 . S
H757 C751 0.959 . S
H758 C751 0.961 . S
H759 C751 0.960 . S
H760 C752 0.930 . S
H761 C753 0.929 . S
H762 C770 0.929 . S
H763 C772 0.930 . S
H764 C774 0.930 . S
H765 C777 0.929 . S
H766 C780 0.930 . S
H767 C782 0.960 . S
H768 C782 0.960 . S
H769 C782 0.960 . S
C770 H762 0.929 . S
C770 C771 1.377 . S
C770 C772 1.384 . S
C771 C770 1.377 . S
C771 C777 1.390 . S
C772 H763 0.930 . S
C772 C770 1.384 . S
C772 C773 1.372 . S
C773 C772 1.372 . S
C773 C774 1.400 . S
C773 C778 1.490 . S
C774 H764 0.930 . S
C774 C773 1.400 . S
C774 C777 1.386 . S
H775 C791 0.930 . S
H776 C792 0.931 . S
C777 H765 0.929 . S
C777 C771 1.390 . S
C777 C774 1.386 . S
C778 C773 1.490 . S
C778 C780 1.395 . S
C778 C781 1.403 . S
H779 C785 0.930 . S
C780 H766 0.930 . S
C780 C778 1.395 . S
C780 C783 1.403 . S
C781 C778 1.403 . S
C781 C782 1.524 . S
C781 C785 1.400 . S
C782 H767 0.960 . S
C782 H768 0.960 . S
C782 H769 0.960 . S
C782 C781 1.524 . S
C783 C780 1.403 . S
C783 C784 1.392 . S
C783 C787 1.495 . S
C784 C783 1.392 . S
C784 C785 1.385 . S
C784 C786 1.478 . S
C785 H779 0.930 . S
C785 C781 1.400 . S
C785 C784 1.385 . S
C786 C784 1.478 . S
C786 C788 1.381 . S
C786 C792 1.383 . S
C787 C783 1.495 . S
C787 H793 0.959 . S
C787 H794 0.961 . S
C787 H795 0.960 . S
C788 C786 1.381 . S
C788 C789 1.394 . S
C788 H796 0.930 . S
C789 C788 1.394 . S
C789 C790 1.383 . S
C789 H797 0.929 . S
C790 C789 1.383 . S
C790 C791 1.377 . S
C791 H775 0.930 . S
C791 C790 1.377 . S
C791 C792 1.379 . S
C792 H776 0.931 . S
C792 C786 1.383 . S
C792 C791 1.379 . S
H793 C787 0.959 . S
H794 C787 0.961 . S
H795 C787 0.960 . S
H796 C788 0.930 . S
H797 C789 0.929 . S
H798 C806 0.929 . S
H799 C808 0.930 . S
H800 C810 0.930 . S
H801 C813 0.929 . S
H802 C816 0.930 . S
H803 C818 0.960 . S
H804 C818 0.960 . S
H805 C818 0.960 . S
C806 H798 0.929 . S
C806 C807 1.377 . S
C806 C808 1.384 . S
C807 C806 1.377 . S
C807 C813 1.390 . S
C808 H799 0.930 . S
C808 C806 1.384 . S
C808 C809 1.372 . S
C809 C808 1.372 . S
C809 C810 1.400 . S
C809 C814 1.490 . S
C810 H800 0.930 . S
C810 C809 1.400 . S
C810 C813 1.386 . S
H811 C827 0.930 . S
H812 C828 0.931 . S
C813 H801 0.929 . S
C813 C807 1.390 . S
C813 C810 1.386 . S
C814 C809 1.490 . S
C814 C816 1.395 . S
C814 C817 1.403 . S
H815 C821 0.930 . S
C816 H802 0.930 . S
C816 C814 1.395 . S
C816 C819 1.403 . S
C817 C814 1.403 . S
C817 C818 1.524 . S
C817 C821 1.400 . S
C818 H803 0.960 . S
C818 H804 0.960 . S
C818 H805 0.960 . S
C818 C817 1.524 . S
C819 C816 1.403 . S
C819 C820 1.392 . S
C819 C823 1.495 . S
C820 C819 1.392 . S
C820 C821 1.385 . S
C820 C822 1.478 . S
C821 H815 0.930 . S
C821 C817 1.400 . S
C821 C820 1.385 . S
C822 C820 1.478 . S
C822 C824 1.381 . S
C822 C828 1.383 . S
C823 C819 1.495 . S
C823 H829 0.959 . S
C823 H830 0.961 . S
C823 H831 0.960 . S
C824 C822 1.381 . S
C824 C825 1.394 . S
C824 H832 0.930 . S
C825 C824 1.394 . S
C825 C826 1.383 . S
C825 H833 0.929 . S
C826 C825 1.383 . S
C826 C827 1.377 . S
C827 H811 0.930 . S
C827 C826 1.377 . S
C827 C828 1.379 . S
C828 H812 0.931 . S
C828 C822 1.383 . S
C828 C827 1.379 . S
H829 C823 0.959 . S
H830 C823 0.961 . S
H831 C823 0.960 . S
H832 C824 0.930 . S
H833 C825 0.929 . S
H834 C842 0.929 . S
H835 C844 0.930 . S
H836 C846 0.930 . S
H837 C849 0.929 . S
H838 C852 0.930 . S
H839 C854 0.960 . S
H840 C854 0.960 . S
H841 C854 0.960 . S
C842 H834 0.929 . S
C842 C843 1.377 . S
C842 C844 1.384 . S
C843 C842 1.377 . S
C843 C849 1.390 . S
C844 H835 0.930 . S
C844 C842 1.384 . S
C844 C845 1.372 . S
C845 C844 1.372 . S
C845 C846 1.400 . S
C845 C850 1.490 . S
C846 H836 0.930 . S
C846 C845 1.400 . S
C846 C849 1.386 . S
H847 C863 0.930 . S
H848 C864 0.931 . S
C849 H837 0.929 . S
C849 C843 1.390 . S
C849 C846 1.386 . S
C850 C845 1.490 . S
C850 C852 1.395 . S
C850 C853 1.403 . S
H851 C857 0.930 . S
C852 H838 0.930 . S
C852 C850 1.395 . S
C852 C855 1.403 . S
C853 C850 1.403 . S
C853 C854 1.524 . S
C853 C857 1.400 . S
C854 H839 0.960 . S
C854 H840 0.960 . S
C854 H841 0.960 . S
C854 C853 1.524 . S
C855 C852 1.403 . S
C855 C856 1.392 . S
C855 C859 1.495 . S
C856 C855 1.392 . S
C856 C857 1.385 . S
C856 C858 1.478 . S
C857 H851 0.930 . S
C857 C853 1.400 . S
C857 C856 1.385 . S
C858 C856 1.478 . S
C858 C860 1.381 . S
C858 C864 1.383 . S
C859 C855 1.495 . S
C859 H865 0.959 . S
C859 H866 0.961 . S
C859 H867 0.960 . S
C860 C858 1.381 . S
C860 C861 1.394 . S
C860 H868 0.930 . S
C861 C860 1.394 . S
C861 C862 1.383 . S
C861 H869 0.929 . S
C862 C861 1.383 . S
C862 C863 1.377 . S
C863 H847 0.930 . S
C863 C862 1.377 . S
C863 C864 1.379 . S
C864 H848 0.931 . S
C864 C858 1.383 . S
C864 C863 1.379 . S
H865 C859 0.959 . S
H866 C859 0.961 . S
H867 C859 0.960 . S
H868 C860 0.930 . S
H869 C861 0.929 . S
H870 C878 0.929 . S
H871 C880 0.930 . S
H872 C882 0.930 . S
H873 C885 0.929 . S
H874 C888 0.930 . S
H875 C890 0.960 . S
H876 C890 0.960 . S
H877 C890 0.960 . S
C878 H870 0.929 . S
C878 C879 1.377 . S
C878 C880 1.384 . S
C879 C878 1.377 . S
C879 C885 1.390 . S
C880 H871 0.930 . S
C880 C878 1.384 . S
C880 C881 1.372 . S
C881 C880 1.372 . S
C881 C882 1.400 . S
C881 C886 1.490 . S
C882 H872 0.930 . S
C882 C881 1.400 . S
C882 C885 1.386 . S
H883 C899 0.930 . S
H884 C900 0.931 . S
C885 H873 0.929 . S
C885 C879 1.390 . S
C885 C882 1.386 . S
C886 C881 1.490 . S
C886 C888 1.395 . S
C886 C889 1.403 . S
H887 C893 0.930 . S
C888 H874 0.930 . S
C888 C886 1.395 . S
C888 C891 1.403 . S
C889 C886 1.403 . S
C889 C890 1.524 . S
C889 C893 1.400 . S
C890 H875 0.960 . S
C890 H876 0.960 . S
C890 H877 0.960 . S
C890 C889 1.524 . S
C891 C888 1.403 . S
C891 C892 1.392 . S
C891 C895 1.495 . S
C892 C891 1.392 . S
C892 C893 1.385 . S
C892 C894 1.478 . S
C893 H887 0.930 . S
C893 C889 1.400 . S
C893 C892 1.385 . S
C894 C892 1.478 . S
C894 C896 1.381 . S
C894 C900 1.383 . S
C895 C891 1.495 . S
C895 H901 0.959 . S
C895 H902 0.961 . S
C895 H903 0.960 . S
C896 C894 1.381 . S
C896 C897 1.394 . S
C896 H904 0.930 . S
C897 C896 1.394 . S
C897 C898 1.383 . S
C897 H905 0.929 . S
C898 C897 1.383 . S
C898 C899 1.377 . S
C899 H883 0.930 . S
C899 C898 1.377 . S
C899 C900 1.379 . S
C900 H884 0.931 . S
C900 C894 1.383 . S
C900 C899 1.379 . S
H901 C895 0.959 . S
H902 C895 0.961 . S
H903 C895 0.960 . S
H904 C896 0.930 . S
H905 C897 0.929 . S
H906 C914 0.929 . S
H907 C916 0.930 . S
H908 C918 0.930 . S
H909 C921 0.929 . S
H910 C924 0.930 . S
H911 C926 0.960 . S
H912 C926 0.960 . S
H913 C926 0.960 . S
C914 H906 0.929 . S
C914 C915 1.377 . S
C914 C916 1.384 . S
C915 C914 1.377 . S
C915 C921 1.390 . S
C916 H907 0.930 . S
C916 C914 1.384 . S
C916 C917 1.372 . S
C917 C916 1.372 . S
C917 C918 1.400 . S
C917 C922 1.490 . S
C918 H908 0.930 . S
C918 C917 1.400 . S
C918 C921 1.386 . S
H919 C935 0.930 . S
H920 C936 0.916 1_556 S
C921 H909 0.929 . S
C921 C915 1.390 . S
C921 C918 1.386 . S
C922 C917 1.490 . S
C922 C924 1.395 . S
C922 C925 1.403 . S
H923 C929 0.930 . S
C924 H910 0.930 . S
C924 C922 1.395 . S
C924 C927 1.403 . S
C925 C922 1.403 . S
C925 C926 1.524 . S
C925 C929 1.400 . S
C926 H911 0.960 . S
C926 H912 0.960 . S
C926 H913 0.960 . S
C926 C925 1.524 . S
C927 C924 1.403 . S
C927 C928 1.392 . S
C927 C931 1.495 . S
C928 C927 1.392 . S
C928 C929 1.385 . S
C928 C930 1.478 . S
C929 H923 0.930 . S
C929 C925 1.400 . S
C929 C928 1.385 . S
C930 C928 1.478 . S
C930 C932 1.381 . S
C930 C936 1.350 1_556 S
C931 C927 1.495 . S
C931 H937 0.959 . S
C931 H938 0.961 . S
C931 H939 0.960 . S
C932 C930 1.381 . S
C932 C933 1.394 1_556 S
C932 H940 0.930 . S
C933 C932 1.394 1_554 S
C933 C934 1.383 . S
C933 H941 0.929 . S
C934 C933 1.383 . S
C934 C935 1.377 . S
C935 H919 0.930 . S
C935 C934 1.377 . S
C935 C936 1.430 . S
C936 H920 0.916 1_554 S
C936 C930 1.350 1_554 S
C936 C935 1.430 . S
H937 C931 0.959 . S
H938 C931 0.961 . S
H939 C931 0.960 . S
H940 C932 0.930 . S
H941 C933 0.929 . S
H942 C950 0.929 . S
H943 C952 0.930 . S
H944 C954 0.930 . S
H945 C957 0.929 . S
H946 C960 0.930 . S
H947 C962 0.960 . S
H948 C962 0.960 . S
H949 C962 0.960 . S
C950 H942 0.929 . S
C950 C951 1.377 . S
C950 C952 1.384 . S
C951 C950 1.377 . S
C951 C957 1.390 . S
C952 H943 0.930 . S
C952 C950 1.384 . S
C952 C953 1.372 . S
C953 C952 1.372 . S
C953 C954 1.400 . S
C953 C958 1.490 . S
C954 H944 0.930 . S
C954 C953 1.400 . S
C954 C957 1.386 . S
H955 C971 0.930 . S
H956 C972 0.931 . S
C957 H945 0.929 . S
C957 C951 1.390 . S
C957 C954 1.386 . S
C958 C953 1.490 . S
C958 C960 1.395 . S
C958 C961 1.403 . S
H959 C965 0.930 . S
C960 H946 0.930 . S
C960 C958 1.395 . S
C960 C963 1.403 . S
C961 C958 1.403 . S
C961 C962 1.524 . S
C961 C965 1.400 . S
C962 H947 0.960 . S
C962 H948 0.960 . S
C962 H949 0.960 . S
C962 C961 1.524 . S
C963 C960 1.403 . S
C963 C964 1.392 . S
C963 C967 1.495 . S
C964 C963 1.392 . S
C964 C965 1.385 . S
C964 C966 1.478 . S
C965 H959 0.930 . S
C965 C961 1.400 . S
C965 C964 1.385 . S
C966 C964 1.478 . S
C966 C968 1.381 . S
C966 C972 1.383 . S
C967 C963 1.495 . S
C967 H973 0.959 . S
C967 H974 0.961 . S
C967 H975 0.960 . S
C968 C966 1.381 . S
C968 C969 1.394 . S
C968 H976 0.930 . S
C969 C968 1.394 . S
C969 C970 1.383 . S
C969 H977 0.929 . S
C970 C969 1.383 . S
C970 C971 1.377 . S
C971 H955 0.930 . S
C971 C970 1.377 . S
C971 C972 1.379 . S
C972 H956 0.931 . S
C972 C966 1.383 . S
C972 C971 1.379 . S
H973 C967 0.959 . S
H974 C967 0.961 . S
H975 C967 0.960 . S
H976 C968 0.930 . S
H977 C969 0.929 . S
H978 C986 0.929 . S
H979 C988 0.930 . S
H980 C990 0.930 . S
H981 C993 0.929 . S
H982 C996 0.930 . S
H983 C998 0.960 . S
H984 C998 0.960 . S
H985 C998 0.960 . S
C986 H978 0.929 . S
C986 C987 1.377 . S
C986 C988 1.384 . S
C987 C986 1.377 . S
C987 C993 1.390 . S
C988 H979 0.930 . S
C988 C986 1.384 . S
C988 C989 1.372 . S
C989 C988 1.372 . S
C989 C990 1.400 . S
C989 C994 1.490 . S
C990 H980 0.930 . S
C990 C989 1.400 . S
C990 C993 1.386 . S
H991 C1007 0.930 . S
H992 C1008 0.931 . S
C993 H981 0.929 . S
C993 C987 1.390 . S
C993 C990 1.386 . S
C994 C989 1.490 . S
C994 C996 1.395 . S
C994 C997 1.403 . S
H995 C1001 0.930 . S
C996 H982 0.930 . S
C996 C994 1.395 . S
C996 C999 1.403 . S
C997 C994 1.403 . S
C997 C998 1.524 . S
C997 C1001 1.400 . S
C998 H983 0.960 . S
C998 H984 0.960 . S
C998 H985 0.960 . S
C998 C997 1.524 . S
C999 C996 1.403 . S
C999 C1000 1.392 . S
C999 C1003 1.495 . S
C1000 C999 1.392 . S
C1000 C1001 1.385 . S
C1000 C1002 1.478 . S
C1001 H995 0.930 . S
C1001 C997 1.400 . S
C1001 C1000 1.385 . S
C1002 C1000 1.478 . S
C1002 C1004 1.381 . S
C1002 C1008 1.383 . S
C1003 C999 1.495 . S
C1003 H1009 0.959 . S
C1003 H1010 0.961 . S
C1003 H1011 0.960 . S
C1004 C1002 1.381 . S
C1004 C1005 1.394 . S
C1004 H1012 0.930 . S
C1005 C1004 1.394 . S
C1005 C1006 1.383 . S
C1005 H1013 0.929 . S
C1006 C1005 1.383 . S
C1006 C1007 1.377 . S
C1007 H991 0.930 . S
C1007 C1006 1.377 . S
C1007 C1008 1.379 . S
C1008 H992 0.931 . S
C1008 C1002 1.383 . S
C1008 C1007 1.379 . S
H1009 C1003 0.959 . S
H1010 C1003 0.961 . S
H1011 C1003 0.960 . S
H1012 C1004 0.930 . S
H1013 C1005 0.929 . S
H1014 C1022 0.929 . S
H1015 C1024 0.930 . S
H1016 C1026 0.930 . S
H1017 C1029 0.929 . S
H1018 C1032 0.930 . S
H1019 C1034 0.960 . S
H1020 C1034 0.960 . S
H1021 C1034 0.960 . S
C1022 H1014 0.929 . S
C1022 C1023 1.377 . S
C1022 C1024 1.384 . S
C1023 C1022 1.377 . S
C1023 C1029 1.390 . S
C1024 H1015 0.930 . S
C1024 C1022 1.384 . S
C1024 C1025 1.372 . S
C1025 C1024 1.372 . S
C1025 C1026 1.400 . S
C1025 C1030 1.490 . S
C1026 H1016 0.930 . S
C1026 C1025 1.400 . S
C1026 C1029 1.386 . S
H1027 C1043 0.930 . S
H1028 C1044 0.931 . S
C1029 H1017 0.929 . S
C1029 C1023 1.390 . S
C1029 C1026 1.386 . S
C1030 C1025 1.490 . S
C1030 C1032 1.395 . S
C1030 C1033 1.403 . S
H1031 C1037 0.930 . S
C1032 H1018 0.930 . S
C1032 C1030 1.395 . S
C1032 C1035 1.403 . S
C1033 C1030 1.403 . S
C1033 C1034 1.524 . S
C1033 C1037 1.400 . S
C1034 H1019 0.960 . S
C1034 H1020 0.960 . S
C1034 H1021 0.960 . S
C1034 C1033 1.524 . S
C1035 C1032 1.403 . S
C1035 C1036 1.392 . S
C1035 C1039 1.495 . S
C1036 C1035 1.392 . S
C1036 C1037 1.385 . S
C1036 C1038 1.478 . S
C1037 H1031 0.930 . S
C1037 C1033 1.400 . S
C1037 C1036 1.385 . S
C1038 C1036 1.478 . S
C1038 C1040 1.381 . S
C1038 C1044 1.383 . S
C1039 C1035 1.495 . S
C1039 H1045 0.959 . S
C1039 H1046 0.961 . S
C1039 H1047 0.960 . S
C1040 C1038 1.381 . S
C1040 C1041 1.394 . S
C1040 H1048 0.930 . S
C1041 C1040 1.394 . S
C1041 C1042 1.383 . S
C1041 H1049 0.929 . S
C1042 C1041 1.383 . S
C1042 C1043 1.377 . S
C1043 H1027 0.930 . S
C1043 C1042 1.377 . S
C1043 C1044 1.379 . S
C1044 H1028 0.931 . S
C1044 C1038 1.383 . S
C1044 C1043 1.379 . S
H1045 C1039 0.959 . S
H1046 C1039 0.961 . S
H1047 C1039 0.960 . S
H1048 C1040 0.930 . S
H1049 C1041 0.929 . S
H1050 C1058 0.929 . S
H1051 C1060 0.930 . S
H1052 C1062 0.930 . S
H1053 C1065 0.929 . S
H1054 C1068 0.930 . S
H1055 C1070 0.960 . S
H1056 C1070 0.960 . S
H1057 C1070 0.960 . S
C1058 H1050 0.929 . S
C1058 C1059 1.377 . S
C1058 C1060 1.384 . S
C1059 C1058 1.377 . S
C1059 C1065 1.390 . S
C1060 H1051 0.930 . S
C1060 C1058 1.384 . S
C1060 C1061 1.372 . S
C1061 C1060 1.372 . S
C1061 C1062 1.400 . S
C1061 C1066 1.490 . S
C1062 H1052 0.930 . S
C1062 C1061 1.400 . S
C1062 C1065 1.386 . S
H1063 C1079 0.930 . S
H1064 C1080 0.931 . S
C1065 H1053 0.929 . S
C1065 C1059 1.390 . S
C1065 C1062 1.386 . S
C1066 C1061 1.490 . S
C1066 C1068 1.395 . S
C1066 C1069 1.403 . S
H1067 C1073 0.930 . S
C1068 H1054 0.930 . S
C1068 C1066 1.395 . S
C1068 C1071 1.403 . S
C1069 C1066 1.403 . S
C1069 C1070 1.524 . S
C1069 C1073 1.400 . S
C1070 H1055 0.960 . S
C1070 H1056 0.960 . S
C1070 H1057 0.960 . S
C1070 C1069 1.524 . S
C1071 C1068 1.403 . S
C1071 C1072 1.392 . S
C1071 C1075 1.495 . S
C1072 C1071 1.392 . S
C1072 C1073 1.385 . S
C1072 C1074 1.478 . S
C1073 H1067 0.930 . S
C1073 C1069 1.400 . S
C1073 C1072 1.385 . S
C1074 C1072 1.478 . S
C1074 C1076 1.381 . S
C1074 C1080 1.383 . S
C1075 C1071 1.495 . S
C1075 H1081 0.959 . S
C1075 H1082 0.961 . S
C1075 H1083 0.960 . S
C1076 C1074 1.381 . S
C1076 C1077 1.394 . S
C1076 H1084 0.930 . S
C1077 C1076 1.394 . S
C1077 C1078 1.383 . S
C1077 H1085 0.929 . S
C1078 C1077 1.383 . S
C1078 C1079 1.377 . S
C1079 H1063 0.930 . S
C1079 C1078 1.377 . S
C1079 C1080 1.379 . S
C1080 H1064 0.931 . S
C1080 C1074 1.383 . S
C1080 C1079 1.379 . S
H1081 C1075 0.959 . S
H1082 C1075 0.961 . S
H1083 C1075 0.960 . S
H1084 C1076 0.930 . S
H1085 C1077 0.929 . S
H1086 C1094 0.929 . S
H1087 C1096 0.930 . S
H1088 C1098 0.930 . S
H1089 C1101 0.929 . S
H1090 C1104 0.930 . S
H1091 C1106 0.960 . S
H1092 C1106 0.960 . S
H1093 C1106 0.960 . S
C1094 H1086 0.929 . S
C1094 C1095 1.377 . S
C1094 C1096 1.384 . S
C1095 C1094 1.377 . S
C1095 C1101 1.390 . S
C1096 H1087 0.930 . S
C1096 C1094 1.384 . S
C1096 C1097 1.372 . S
C1097 C1096 1.372 . S
C1097 C1098 1.400 . S
C1097 C1102 1.490 . S
C1098 H1088 0.930 . S
C1098 C1097 1.400 . S
C1098 C1101 1.386 . S
H1099 C1115 0.930 . S
H1100 C1116 0.931 . S
C1101 H1089 0.929 . S
C1101 C1095 1.390 . S
C1101 C1098 1.386 . S
C1102 C1097 1.490 . S
C1102 C1104 1.395 . S
C1102 C1105 1.403 . S
H1103 C1109 0.930 . S
C1104 H1090 0.930 . S
C1104 C1102 1.395 . S
C1104 C1107 1.403 . S
C1105 C1102 1.403 . S
C1105 C1106 1.524 . S
C1105 C1109 1.400 . S
C1106 H1091 0.960 . S
C1106 H1092 0.960 . S
C1106 H1093 0.960 . S
C1106 C1105 1.524 . S
C1107 C1104 1.403 . S
C1107 C1108 1.392 . S
C1107 C1111 1.495 . S
C1108 C1107 1.392 . S
C1108 C1109 1.385 . S
C1108 C1110 1.478 . S
C1109 H1103 0.930 . S
C1109 C1105 1.400 . S
C1109 C1108 1.385 . S
C1110 C1108 1.478 . S
C1110 C1112 1.381 . S
C1110 C1116 1.383 . S
C1111 C1107 1.495 . S
C1111 H1117 0.959 . S
C1111 H1118 0.961 . S
C1111 H1119 0.960 . S
C1112 C1110 1.381 . S
C1112 C1113 1.394 . S
C1112 H1120 0.930 . S
C1113 C1112 1.394 . S
C1113 C1114 1.383 . S
C1113 H1121 0.929 . S
C1114 C1113 1.383 . S
C1114 C1115 1.377 . S
C1115 H1099 0.930 . S
C1115 C1114 1.377 . S
C1115 C1116 1.379 . S
C1116 H1100 0.931 . S
C1116 C1110 1.383 . S
C1116 C1115 1.379 . S
H1117 C1111 0.959 . S
H1118 C1111 0.961 . S
H1119 C1111 0.960 . S
H1120 C1112 0.930 . S
H1121 C1113 0.929 . S
H1122 C1130 0.929 . S
H1123 C1132 0.930 . S
H1124 C1134 0.930 . S
H1125 C1137 0.929 . S
H1126 C1140 0.930 . S
H1127 C1142 0.960 . S
H1128 C1142 0.960 . S
H1129 C1142 0.960 . S
C1130 H1122 0.929 . S
C1130 C1131 1.377 . S
C1130 C1132 1.384 . S
C1131 C1130 1.377 . S
C1131 C1137 1.390 . S
C1132 H1123 0.930 . S
C1132 C1130 1.384 . S
C1132 C1133 1.372 . S
C1133 C1132 1.372 . S
C1133 C1134 1.400 . S
C1133 C1138 1.490 . S
C1134 H1124 0.930 . S
C1134 C1133 1.400 . S
C1134 C1137 1.386 . S
H1135 C1151 0.930 . S
H1136 C1152 0.931 . S
C1137 H1125 0.929 . S
C1137 C1131 1.390 . S
C1137 C1134 1.386 . S
C1138 C1133 1.490 . S
C1138 C1140 1.395 . S
C1138 C1141 1.403 . S
H1139 C1145 0.930 . S
C1140 H1126 0.930 . S
C1140 C1138 1.395 . S
C1140 C1143 1.403 . S
C1141 C1138 1.403 . S
C1141 C1142 1.524 . S
C1141 C1145 1.400 . S
C1142 H1127 0.960 . S
C1142 H1128 0.960 . S
C1142 H1129 0.960 . S
C1142 C1141 1.524 . S
C1143 C1140 1.403 . S
C1143 C1144 1.392 . S
C1143 C1147 1.495 . S
C1144 C1143 1.392 . S
C1144 C1145 1.385 . S
C1144 C1146 1.478 . S
C1145 H1139 0.930 . S
C1145 C1141 1.400 . S
C1145 C1144 1.385 . S
C1146 C1144 1.478 . S
C1146 C1148 1.381 . S
C1146 C1152 1.383 . S
C1147 C1143 1.495 . S
C1147 H1153 0.959 . S
C1147 H1154 0.961 . S
C1147 H1155 0.960 . S
C1148 C1146 1.381 . S
C1148 C1149 1.394 . S
C1148 H1156 0.930 . S
C1149 C1148 1.394 . S
C1149 C1150 1.383 . S
C1149 H1157 0.929 . S
C1150 C1149 1.383 . S
C1150 C1151 1.377 . S
C1151 H1135 0.930 . S
C1151 C1150 1.377 . S
C1151 C1152 1.379 . S
C1152 H1136 0.931 . S
C1152 C1146 1.383 . S
C1152 C1151 1.379 . S
H1153 C1147 0.959 . S
H1154 C1147 0.961 . S
H1155 C1147 0.960 . S
H1156 C1148 0.930 . S
H1157 C1149 0.929 . S
H1158 C1166 0.929 . S
H1159 C1168 0.930 . S
H1160 C1170 0.930 . S
H1161 C1173 0.929 . S
H1162 C1176 0.930 . S
H1163 C1178 0.960 . S
H1164 C1178 0.960 . S
H1165 C1178 0.960 . S
C1166 H1158 0.929 . S
C1166 C1167 1.377 . S
C1166 C1168 1.384 . S
C1167 C1166 1.377 . S
C1167 C1173 1.390 . S
C1168 H1159 0.930 . S
C1168 C1166 1.384 . S
C1168 C1169 1.372 . S
C1169 C1168 1.372 . S
C1169 C1170 1.400 . S
C1169 C1174 1.490 . S
C1170 H1160 0.930 . S
C1170 C1169 1.400 . S
C1170 C1173 1.386 . S
H1171 C1187 0.930 . S
H1172 C1188 0.931 . S
C1173 H1161 0.929 . S
C1173 C1167 1.390 . S
C1173 C1170 1.386 . S
C1174 C1169 1.490 . S
C1174 C1176 1.395 . S
C1174 C1177 1.403 . S
H1175 C1181 0.930 . S
C1176 H1162 0.930 . S
C1176 C1174 1.395 . S
C1176 C1179 1.403 1_554 S
C1177 C1174 1.403 . S
C1177 C1178 1.524 . S
C1177 C1181 1.400 . S
C1178 H1163 0.960 . S
C1178 H1164 0.960 . S
C1178 H1165 0.960 . S
C1178 C1177 1.524 . S
C1179 C1176 1.403 1_556 S
C1179 C1180 1.392 . S
C1179 C1183 1.495 . S
C1180 C1179 1.392 . S
C1180 C1181 1.385 1_556 S
C1180 C1182 1.478 . S
C1181 H1175 0.930 . S
C1181 C1177 1.400 . S
C1181 C1180 1.385 1_554 S
C1182 C1180 1.478 . S
C1182 C1184 1.381 . S
C1182 C1188 1.383 . S
C1183 C1179 1.495 . S
C1183 H1189 0.959 . S
C1183 H1190 0.961 . S
C1183 H1191 0.960 . S
C1184 C1182 1.381 . S
C1184 C1185 1.394 . S
C1184 H1192 0.930 . S
C1185 C1184 1.394 . S
C1185 C1186 1.383 . S
C1185 H1193 0.929 . S
C1186 C1185 1.383 . S
C1186 C1187 1.377 . S
C1187 H1171 0.930 . S
C1187 C1186 1.377 . S
C1187 C1188 1.379 . S
C1188 H1172 0.931 . S
C1188 C1182 1.383 . S
C1188 C1187 1.379 . S
H1189 C1183 0.959 . S
H1190 C1183 0.961 . S
H1191 C1183 0.960 . S
H1192 C1184 0.930 . S
H1193 C1185 0.929 . S
H1194 C1202 0.929 . S
H1195 C1204 0.930 . S
H1196 C1206 0.930 . S
H1197 C1209 0.929 . S
H1198 C1212 0.930 . S
H1199 C1214 0.960 . S
H1200 C1214 0.960 . S
H1201 C1214 0.960 . S
C1202 H1194 0.929 . S
C1202 C1203 1.377 . S
C1202 C1204 1.384 . S
C1203 C1202 1.377 . S
C1203 C1209 1.390 . S
C1204 H1195 0.930 . S
C1204 C1202 1.384 . S
C1204 C1205 1.372 . S
C1205 C1204 1.372 . S
C1205 C1206 1.400 . S
C1205 C1210 1.490 . S
C1206 H1196 0.930 . S
C1206 C1205 1.400 . S
C1206 C1209 1.386 . S
H1207 C1223 0.930 . S
H1208 C1224 0.931 . S
C1209 H1197 0.929 . S
C1209 C1203 1.390 . S
C1209 C1206 1.386 . S
C1210 C1205 1.490 . S
C1210 C1212 1.395 . S
C1210 C1213 1.403 . S
H1211 C1217 0.930 . S
C1212 H1198 0.930 . S
C1212 C1210 1.395 . S
C1212 C1215 1.403 . S
C1213 C1210 1.403 . S
C1213 C1214 1.524 . S
C1213 C1217 1.400 . S
C1214 H1199 0.960 . S
C1214 H1200 0.960 . S
C1214 H1201 0.960 . S
C1214 C1213 1.524 . S
C1215 C1212 1.403 . S
C1215 C1216 1.392 . S
C1215 C1219 1.495 . S
C1216 C1215 1.392 . S
C1216 C1217 1.385 . S
C1216 C1218 1.478 . S
C1217 H1211 0.930 . S
C1217 C1213 1.400 . S
C1217 C1216 1.385 . S
C1218 C1216 1.478 . S
C1218 C1220 1.381 . S
C1218 C1224 1.383 . S
C1219 C1215 1.495 . S
C1219 H1225 0.959 . S
C1219 H1226 0.961 . S
C1219 H1227 0.960 . S
C1220 C1218 1.381 . S
C1220 C1221 1.394 . S
C1220 H1228 0.930 . S
C1221 C1220 1.394 . S
C1221 C1222 1.383 . S
C1221 H1229 0.929 . S
C1222 C1221 1.383 . S
C1222 C1223 1.377 . S
C1223 H1207 0.930 . S
C1223 C1222 1.377 . S
C1223 C1224 1.379 . S
C1224 H1208 0.931 . S
C1224 C1218 1.383 . S
C1224 C1223 1.379 . S
H1225 C1219 0.959 . S
H1226 C1219 0.961 . S
H1227 C1219 0.960 . S
H1228 C1220 0.930 . S
H1229 C1221 0.929 . S
C394 C363 1.562 . S
C375 C45 1.570 . S
C411 C84 1.537 . S
C430 C288 1.462 . S
C447 C126 1.555 . S
C466 C311 1.587 . S
C483 C189 1.435 . S
C502 C324 1.429 . S
C538 C327 1.500 . S
C519 C228 1.582 . S
C555 C270 1.439 . S
C574 C340 1.396 . S
C591 C69 1.452 . S
C610 C301 1.432 . S
C627 C141 1.591 . S
C646 C314 1.527 . S
C663 C174 1.416 . S
C682 C337 1.427 . S
C718 C350 1.596 . S
C699 C213 1.567 . S
C754 C353 1.496 . S
C735 C285 1.546 . S
C790 C298 1.564 . S
C771 C30 1.538 . S
C807 C36 1.462 . S
C826 C309 1.431 . S
C843 C93 1.446 . S
C862 C322 1.431 . S
C898 C332 1.465 . S
C879 C117 1.491 . S
C915 C180 1.456 . S
C934 C345 1.416 . S
C970 C361 1.472 . S
C951 C237 1.496 . S
C1006 C293 1.395 . S
C987 C261 1.447 . S
C1042 C358 1.411 . S
C1023 C78 1.441 . S
C1059 C132 1.500 . S
C1078 C296 1.479 . S
C1114 C306 1.385 . S
C1095 C165 1.447 . S
C1131 C222 1.484 . S
C1150 C319 1.465 . S
C1167 C276 1.450 . S
C1186 C335 1.394 . S
C1203 C21 1.459 . S
C1222 C348 1.446 . S
