# Generated by pormake.
# Topology zzz, (3,6)-cn, num edge types: 1
# Building blocks:
#     Node 0, Type 0, BuildingBlock: BELTOD_clean_linker_0, # of connection points: 3
#     Node 1, Type 0, BuildingBlock: BELTOD_clean_linker_0, # of connection points: 3
#     Node 2, Type 0, BuildingBlock: BELTOD_clean_linker_0, # of connection points: 3
#     Node 3, Type 0, BuildingBlock: BELTOD_clean_linker_0, # of connection points: 3
#     Node 4, Type 0, BuildingBlock: BELTOD_clean_linker_0, # of connection points: 3
#     Node 5, Type 0, BuildingBlock: BELTOD_clean_linker_0, # of connection points: 3
#     Node 6, Type 0, BuildingBlock: BELTOD_clean_linker_0, # of connection points: 3
#     Node 7, Type 0, BuildingBlock: BELTOD_clean_linker_0, # of connection points: 3
#     Node 8, Type 1, BuildingBlock: GEDQOX_clean_sbu_0, # of connection points: 6
#     Node 9, Type 1, BuildingBlock: GEDQOX_clean_sbu_0, # of connection points: 6
#     Node 10, Type 1, BuildingBlock: GEDQOX_clean_sbu_0, # of connection points: 6
#     Node 11, Type 1, BuildingBlock: GEDQOX_clean_sbu_0, # of connection points: 6
#     Edge 12, Type (0, 1), BuildingBlock: MIFKUJ_clean_linker_0, # of connection points: 2
#     Edge 13, Type (0, 1), BuildingBlock: MIFKUJ_clean_linker_0, # of connection points: 2
#     Edge 14, Type (0, 1), BuildingBlock: MIFKUJ_clean_linker_0, # of connection points: 2
#     Edge 15, Type (0, 1), BuildingBlock: MIFKUJ_clean_linker_0, # of connection points: 2
#     Edge 16, Type (0, 1), BuildingBlock: MIFKUJ_clean_linker_0, # of connection points: 2
#     Edge 17, Type (0, 1), BuildingBlock: MIFKUJ_clean_linker_0, # of connection points: 2
#     Edge 18, Type (0, 1), BuildingBlock: MIFKUJ_clean_linker_0, # of connection points: 2
#     Edge 19, Type (0, 1), BuildingBlock: MIFKUJ_clean_linker_0, # of connection points: 2
#     Edge 20, Type (0, 1), BuildingBlock: MIFKUJ_clean_linker_0, # of connection points: 2
#     Edge 21, Type (0, 1), BuildingBlock: MIFKUJ_clean_linker_0, # of connection points: 2
#     Edge 22, Type (0, 1), BuildingBlock: MIFKUJ_clean_linker_0, # of connection points: 2
#     Edge 23, Type (0, 1), BuildingBlock: MIFKUJ_clean_linker_0, # of connection points: 2
#     Edge 24, Type (0, 1), BuildingBlock: MIFKUJ_clean_linker_0, # of connection points: 2
#     Edge 25, Type (0, 1), BuildingBlock: MIFKUJ_clean_linker_0, # of connection points: 2
#     Edge 26, Type (0, 1), BuildingBlock: MIFKUJ_clean_linker_0, # of connection points: 2
#     Edge 27, Type (0, 1), BuildingBlock: MIFKUJ_clean_linker_0, # of connection points: 2
#     Edge 28, Type (0, 1), BuildingBlock: MIFKUJ_clean_linker_0, # of connection points: 2
#     Edge 29, Type (0, 1), BuildingBlock: MIFKUJ_clean_linker_0, # of connection points: 2
#     Edge 30, Type (0, 1), BuildingBlock: MIFKUJ_clean_linker_0, # of connection points: 2
#     Edge 31, Type (0, 1), BuildingBlock: MIFKUJ_clean_linker_0, # of connection points: 2
#     Edge 32, Type (0, 1), BuildingBlock: MIFKUJ_clean_linker_0, # of connection points: 2
#     Edge 33, Type (0, 1), BuildingBlock: MIFKUJ_clean_linker_0, # of connection points: 2
#     Edge 34, Type (0, 1), BuildingBlock: MIFKUJ_clean_linker_0, # of connection points: 2
#     Edge 35, Type (0, 1), BuildingBlock: MIFKUJ_clean_linker_0, # of connection points: 2
# Relax obj value: 0.283
# Max RMSD: 0.251
# Mean RMSD: 0.192
data_MOF--net-zzz--node1-GEDQOX_clean_sbu_0--node2-BELTOD_clean_linker_0--edge1-MIFKUJ_clean_linker_0
_symmetry_space_group_name_H-M    P1
_symmetry_Int_Tables_number       1
_symmetry_cell_setting            triclinic
loop_
_symmetry_equiv_pos_as_xyz
'x, y, z'
_cell_length_a     73.466786
_cell_length_b     69.181532
_cell_length_c     25.060413
_cell_angle_alpha  83.391655
_cell_angle_beta   91.16485
_cell_angle_gamma 101.19027
loop_
_atom_site_label
_atom_site_type_symbol
_atom_site_fract_x
_atom_site_fract_y
_atom_site_fract_z
_atom_type_partial_charge
P0 P 0.74604 0.38841 0.14958 0.0
H1 H 0.75686 0.37938 0.26157 0.0
H2 H 0.77871 0.39801 0.32054 0.0
H3 H 0.78717 0.44857 0.19892 0.0
H4 H 0.7657 0.42964 0.13975 0.0
H5 H 0.72047 0.37676 0.06397 0.0
H6 H 0.69483 0.39074 0.02106 0.0
H7 H 0.70586 0.43831 0.12159 0.0
H8 H 0.73092 0.42399 0.16564 0.0
H9 H 0.76773 0.35768 0.14112 0.0
H10 H 0.76193 0.41361 0.05405 0.0
O11 O 0.73645 0.36623 0.18064 0.0
H12 H 0.79486 0.35721 0.08693 0.0
H13 H 0.78954 0.4139 0.0018 0.0
C14 C 0.75941 0.40323 0.19659 0.0
C15 C 0.76313 0.3946 0.24799 0.0
C16 C 0.77564 0.4053 0.28174 0.0
C17 C 0.78473 0.4248 0.26445 0.0
C18 C 0.7806 0.43351 0.21327 0.0
C19 C 0.76817 0.42277 0.17958 0.0
C20 C 0.72783 0.39949 0.1173 0.0
C21 C 0.7174 0.39024 0.07662 0.0
C22 C 0.70277 0.39818 0.05226 0.0
C23 C 0.69853 0.41566 0.06782 0.0
C24 C 0.70906 0.42497 0.10839 0.0
C25 C 0.72344 0.41681 0.13344 0.0
C26 C 0.76271 0.38555 0.10109 0.0
C27 C 0.77205 0.36964 0.10944 0.0
C28 C 0.78773 0.36954 0.07887 0.0
C29 C 0.79459 0.38562 0.04025 0.0
C30 C 0.78459 0.40109 0.03045 0.0
C31 C 0.76878 0.40101 0.06053 0.0
P32 P 0.98132 0.72824 0.234 0.0
H33 H -0.00052 0.73095 0.33854 0.0
H34 H 0.993 0.74845 0.41286 0.0
H35 H 0.93929 0.75294 0.34437 0.0
H36 H 0.94556 0.7345 0.27171 0.0
H37 H 0.00453 0.69877 0.23304 0.0
H38 H 0.00011 0.66722 0.1967 0.0
H39 H 0.9425 0.66977 0.16526 0.0
H40 H 0.94716 0.70186 0.20205 0.0
H41 H 0.97872 0.76928 0.23431 0.0
H42 H 0.96623 0.7253 0.12313 0.0
O43 O 0.00434 0.73578 0.23272 0.0
H44 H 0.9679 0.79334 0.16969 0.0
H45 H 0.95482 0.7494 0.0582 0.0
C46 C 0.97323 0.73199 0.29877 0.0
C47 C 0.986 0.73495 0.3407 0.0
C48 C 0.98235 0.74522 0.38289 0.0
C49 C 0.96594 0.75287 0.38343 0.0
C50 C 0.95215 0.74746 0.34516 0.0
C51 C 0.95571 0.73687 0.30342 0.0
C52 C 0.97629 0.70289 0.21903 0.0
C53 C 0.99083 0.69247 0.21929 0.0
C54 C 0.98824 0.67427 0.1987 0.0
C55 C 0.97098 0.66601 0.17752 0.0
C56 C 0.95603 0.67588 0.18057 0.0
C57 C 0.95864 0.69412 0.20183 0.0
C58 C 0.97254 0.7452 0.18472 0.0
C59 C 0.97316 0.76461 0.19648 0.0
C60 C 0.96683 0.77836 0.1595 0.0
C61 C 0.95995 0.77312 0.10936 0.0
C62 C 0.95976 0.75377 0.09687 0.0
C63 C 0.96614 0.73992 0.13422 0.0
P64 P 0.76711 0.04915 0.13993 0.0
H65 H 0.7536 0.05866 0.24015 0.0
H66 H 0.73317 0.0388 0.30997 0.0
H67 H 0.73504 0.98604 0.23503 0.0
H68 H 0.75579 0.00604 0.16546 0.0
H69 H 0.7758 0.04733 0.02728 0.0
H70 H 0.80112 0.03692 0.98442 0.0
H71 H 0.8223 0.01861 0.14029 0.0
H72 H 0.79666 0.02907 0.18333 0.0
H73 H 0.75248 0.08405 0.09265 0.0
H74 H 0.74095 0.02083 0.08561 0.0
O75 O 0.77754 0.07114 0.15752 0.0
H76 H 0.726 0.08735 0.03322 0.0
H77 H 0.71452 0.02401 0.02706 0.0
C78 C 0.7564 0.0338 0.19804 0.0
C79 C 0.75016 0.04274 0.23973 0.0
C80 C 0.73845 0.03136 0.27962 0.0
C81 C 0.73249 0.01087 0.27789 0.0
C82 C 0.73936 0.00181 0.23721 0.0
C83 C 0.75129 0.0132 0.19767 0.0
C84 C 0.78412 0.03861 0.10859 0.0
C85 C 0.78553 0.04058 0.05242 0.0
C86 C 0.80004 0.03457 0.02783 0.0
C87 C 0.81363 0.02682 0.05896 0.0
C88 C 0.81201 0.02453 0.11529 0.0
C89 C 0.79736 0.03041 0.1399 0.0
C90 C 0.74851 0.05215 0.09393 0.0
C91 C 0.74431 0.07091 0.07824 0.0
C92 C 0.72926 0.0728 0.04421 0.0
C93 C 0.71815 0.05591 0.02613 0.0
C94 C 0.72268 0.03723 0.04118 0.0
C95 C 0.73777 0.03539 0.07462 0.0
P96 P 0.53552 0.77072 0.36229 0.0
H97 H 0.52975 0.76674 0.47808 0.0
H98 H 0.53935 0.74454 0.55134 0.0
H99 H 0.57478 0.72504 0.44124 0.0
H100 H 0.56604 0.74834 0.3694 0.0
H101 H 0.5217 0.80718 0.36933 0.0
H102 H 0.5307 0.84 0.32071 0.0
H103 H 0.58068 0.82406 0.26637 0.0
H104 H 0.57144 0.79089 0.31556 0.0
H105 H 0.53193 0.72885 0.34518 0.0
H106 H 0.53606 0.78503 0.24692 0.0
O107 O 0.51339 0.76903 0.37947 0.0
H108 H 0.53112 0.71212 0.2643 0.0
H109 H 0.53553 0.76844 0.16625 0.0
C110 C 0.54665 0.75863 0.41789 0.0
C111 C 0.53995 0.75804 0.4701 0.0
C112 C 0.54532 0.74513 0.5119 0.0
C113 C 0.55736 0.73236 0.50215 0.0
C114 C 0.56543 0.73448 0.45067 0.0
C115 C 0.56031 0.74773 0.40915 0.0
C116 C 0.5458 0.79651 0.34558 0.0
C117 C 0.53495 0.8109 0.34874 0.0
C118 C 0.54016 0.82978 0.32084 0.0
C119 C 0.5563 0.83459 0.28899 0.0
C120 C 0.56805 0.82071 0.29002 0.0
C121 C 0.5629 0.80184 0.31859 0.0
C122 C 0.53512 0.75835 0.30248 0.0
C123 C 0.53315 0.73767 0.30638 0.0
C124 C 0.53266 0.72811 0.26005 0.0
C125 C 0.53366 0.73902 0.20887 0.0
C126 C 0.5349 0.75964 0.20507 0.0
C127 C 0.53545 0.76918 0.25141 0.0
P128 P 0.2542 0.53351 0.51513 0.0
H129 H 0.24206 0.50275 0.44433 0.0
H130 H 0.23099 0.50436 0.35229 0.0
H131 H 0.24832 0.56817 0.33488 0.0
H132 H 0.25907 0.5664 0.42829 0.0
H133 H 0.27173 0.52524 0.61764 0.0
H134 H 0.30384 0.52648 0.64504 0.0
H135 H 0.32179 0.54856 0.4823 0.0
H136 H 0.28957 0.54843 0.45604 0.0
H137 H 0.2212 0.5484 0.47668 0.0
H138 H 0.25825 0.55459 0.61229 0.0
O139 O 0.24411 0.51091 0.54239 0.0
H140 H 0.20047 0.56564 0.5184 0.0
H141 H 0.23697 0.57124 0.65518 0.0
C142 C 0.2511 0.53449 0.44338 0.0
C143 C 0.2439 0.51707 0.42048 0.0
C144 C 0.23765 0.51802 0.36747 0.0
C145 C 0.23856 0.53644 0.33622 0.0
C146 C 0.24715 0.55378 0.35811 0.0
C147 C 0.25343 0.55279 0.41129 0.0
C148 C 0.27822 0.53687 0.53494 0.0
C149 C 0.2826 0.53082 0.58811 0.0
C150 C 0.30101 0.53125 0.60355 0.0
C151 C 0.31548 0.53732 0.56576 0.0
C152 C 0.31106 0.54395 0.51266 0.0
C153 C 0.29258 0.5438 0.49745 0.0
C154 C 0.24161 0.55047 0.5406 0.0
C155 C 0.22531 0.55408 0.51447 0.0
C156 C 0.21338 0.56395 0.53843 0.0
C157 C 0.2172 0.5699 0.58982 0.0
C158 C 0.2338 0.56691 0.61534 0.0
C159 C 0.24595 0.55734 0.59077 0.0
P160 P 0.12003 0.29386 0.39534 0.0
H161 H 0.13426 0.28572 0.29366 0.0
H162 H 0.12149 0.26172 0.23219 0.0
H163 H 0.06874 0.25075 0.31443 0.0
H164 H 0.08177 0.27466 0.37649 0.0
H165 H 0.12963 0.31757 0.48269 0.0
H166 H 0.11553 0.34217 0.51952 0.0
H167 H 0.07584 0.3397 0.38935 0.0
H168 H 0.08973 0.31432 0.35399 0.0
H169 H 0.13812 0.25999 0.41953 0.0
H170 H 0.0945 0.2833 0.4873 0.0
O171 O 0.14262 0.30187 0.38277 0.0
H172 H 0.13024 0.2297 0.48186 0.0
H173 H 0.08719 0.25369 0.55112 0.0
C174 C 0.10892 0.28216 0.33938 0.0
C175 C 0.11975 0.27873 0.29733 0.0
C176 C 0.11242 0.26492 0.26212 0.0
C177 C 0.09414 0.25413 0.26869 0.0
C178 C 0.08294 0.25862 0.30868 0.0
C179 C 0.09029 0.27249 0.34376 0.0
C180 C 0.11068 0.31407 0.41585 0.0
C181 C 0.11801 0.3225 0.46173 0.0
C182 C 0.10995 0.33669 0.48262 0.0
C183 C 0.09447 0.34301 0.45756 0.0
C184 C 0.08753 0.33497 0.41029 0.0
C185 C 0.09554 0.32055 0.3897 0.0
C186 C 0.1172 0.27408 0.44946 0.0
C187 C 0.12732 0.25889 0.44913 0.0
C188 C 0.1228 0.2416 0.48486 0.0
C189 C 0.10802 0.23924 0.52137 0.0
C190 C 0.09848 0.25492 0.52306 0.0
C191 C 0.10286 0.27205 0.48698 0.0
P192 P 0.28296 0.05668 0.53762 0.0
H193 H 0.29027 0.08257 0.43623 0.0
H194 H 0.30825 0.08019 0.35672 0.0
H195 H 0.31306 0.02058 0.41911 0.0
H196 H 0.29481 0.02286 0.49789 0.0
H197 H 0.25771 0.06758 0.61023 0.0
H198 H 0.2254 0.05402 0.63469 0.0
H199 H 0.22185 0.01414 0.51274 0.0
H200 H 0.25448 0.02777 0.48854 0.0
H201 H 0.32192 0.06005 0.56313 0.0
H202 H 0.27037 0.0233 0.62215 0.0
O203 O 0.28872 0.08073 0.54539 0.0
H204 H 0.33907 0.04017 0.624 0.0
H205 H 0.28737 0.00394 0.68519 0.0
C206 C 0.29152 0.05304 0.47338 0.0
C207 C 0.29478 0.06881 0.43213 0.0
C208 C 0.30506 0.06745 0.38677 0.0
C209 C 0.31233 0.05034 0.38236 0.0
C210 C 0.30789 0.03406 0.42202 0.0
C211 C 0.29739 0.03533 0.46689 0.0
C212 C 0.25834 0.04895 0.54691 0.0
C213 C 0.24989 0.05622 0.58792 0.0
C214 C 0.2315 0.04832 0.60228 0.0
C215 C 0.2212 0.03296 0.57582 0.0
C216 C 0.22949 0.02607 0.53351 0.0
C217 C 0.24806 0.03387 0.51953 0.0
C218 C 0.29491 0.04332 0.58831 0.0
C219 C 0.31428 0.04798 0.59016 0.0
C220 C 0.32406 0.03662 0.62531 0.0
C221 C 0.31461 0.02047 0.65995 0.0
C222 C 0.2951 0.01611 0.65877 0.0
C223 C 0.28534 0.02737 0.62299 0.0
P224 P 0.42149 0.21571 0.24599 0.0
H225 H 0.40408 0.22701 0.14396 0.0
H226 H 0.41498 0.25236 0.06967 0.0
H227 H 0.46998 0.26123 0.13846 0.0
H228 H 0.45909 0.2355 0.21161 0.0
H229 H 0.40982 0.17238 0.25472 0.0
H230 H 0.42256 0.14573 0.30536 0.0
H231 H 0.47108 0.18815 0.3431 0.0
H232 H 0.45814 0.21474 0.29333 0.0
H233 H 0.42554 0.25914 0.23804 0.0
H234 H 0.42264 0.21046 0.36394 0.0
O235 O 0.39885 0.20688 0.2393 0.0
H236 H 0.43458 0.28262 0.30354 0.0
H237 H 0.43183 0.23405 0.42974 0.0
C238 C 0.43079 0.22916 0.18328 0.0
C239 C 0.41864 0.23387 0.14208 0.0
C240 C 0.42485 0.24861 0.09988 0.0
C241 C 0.44331 0.25911 0.09839 0.0
C242 C 0.45573 0.25336 0.13784 0.0
C243 C 0.44952 0.23853 0.17984 0.0
C244 C 0.43298 0.1956 0.27037 0.0
C245 C 0.42339 0.1759 0.27282 0.0
C246 C 0.4307 0.16063 0.30185 0.0
C247 C 0.44768 0.16485 0.32916 0.0
C248 C 0.4578 0.18444 0.32341 0.0
C249 C 0.45053 0.19965 0.29421 0.0
C250 C 0.42429 0.23298 0.29565 0.0
C251 C 0.42679 0.25343 0.27972 0.0
C252 C 0.43193 0.2669 0.31724 0.0
C253 C 0.43435 0.26015 0.37148 0.0
C254 C 0.43018 0.23967 0.38814 0.0
C255 C 0.42507 0.22619 0.35046 0.0
Nd256 Nd 0.00368 1.00007 0.7511 0.0
Nd257 Nd 0.01986 0.01065 0.85752 0.0
C258 C 0.98677 0.99286 0.65945 0.0
C259 C 0.97988 0.97408 0.63642 0.0
C260 C 0.96981 0.95747 0.66804 0.0
C261 C 0.96545 0.93906 0.64813 0.0
C262 C 0.97127 0.9368 0.5965 0.0
C263 C 0.98085 0.95356 0.56437 0.0
C264 C 0.98507 0.97203 0.58412 0.0
C265 C 0.03701 0.98824 0.7748 0.0
C266 C 0.99589 0.96611 0.84987 0.0
C267 C 0.03604 0.01787 0.95023 0.0
C268 C 0.0421 0.0362 0.97653 0.0
C269 C 0.05806 0.05016 0.9592 0.0
C270 C 0.06283 0.06803 0.98187 0.0
C271 C 0.05176 0.07241 0.02232 0.0
C272 C 0.03602 0.05824 0.04029 0.0
C273 C 0.03132 0.04034 0.01789 0.0
C274 C 0.98745 0.02388 0.83157 0.0
C275 C 0.02897 0.04394 0.75794 0.0
O276 O 0.97808 0.99596 0.70182 0.0
O277 O 0.0048 0.99775 0.66368 0.0
O278 O 0.02306 0.97746 0.75296 0.0
O279 O 0.03296 0.00448 0.78309 0.0
O280 O 0.98899 0.97304 0.80444 0.0
O281 O 0.01001 0.97677 0.87349 0.0
O282 O 0.04523 0.01592 0.90759 0.0
O283 O 0.01813 0.01204 0.94513 0.0
O284 O 0.00165 0.03422 0.85347 0.0
O285 O 0.99059 0.00706 0.82485 0.0
O286 O 0.03572 0.03659 0.80311 0.0
O287 O 0.01433 0.03399 0.7346 0.0
H288 H 0.96583 0.95852 0.70883 0.0
H289 H 0.95824 0.92639 0.67407 0.0
H290 H 0.98536 0.95231 0.52424 0.0
H291 H 0.99293 0.98458 0.55916 0.0
H292 H 0.06677 0.04744 0.92761 0.0
H293 H 0.07524 0.07839 0.96768 0.0
H294 H 0.02701 0.06115 0.07084 0.0
H295 H 0.01896 0.02989 0.03221 0.0
Nd296 Nd 0.51566 0.98167 0.76122 0.0
Nd297 Nd 0.50109 0.01327 0.82627 0.0
C298 C 0.52792 0.95266 0.72269 0.0
C299 C 0.54303 0.9517 0.68552 0.0
C300 C 0.55763 0.94229 0.70411 0.0
C301 C 0.57278 0.94264 0.67087 0.0
C302 C 0.57355 0.95226 0.61817 0.0
C303 C 0.55868 0.96119 0.5991 0.0
C304 C 0.54361 0.96098 0.63245 0.0
C305 C 0.50806 0.0149 0.70081 0.0
C306 C 0.5445 0.02072 0.78947 0.0
C307 C 0.48551 0.04216 0.8529 0.0
C308 C 0.47329 0.0444 0.8966 0.0
C309 C 0.46082 0.05738 0.88751 0.0
C310 C 0.44811 0.05848 0.9273 0.0
C311 C 0.4476 0.04656 0.97696 0.0
C312 C 0.46051 0.03392 0.98627 0.0
C313 C 0.47314 0.03276 0.94636 0.0
C314 C 0.51375 0.98516 0.89712 0.0
C315 C 0.47261 0.97204 0.80747 0.0
O316 O 0.53317 0.95877 0.76922 0.0
O317 O 0.51377 0.95994 0.7021 0.0
O318 O 0.52111 0.00585 0.68892 0.0
O319 O 0.49897 0.00561 0.74105 0.0
O320 O 0.54253 0.00183 0.78201 0.0
O321 O 0.53033 0.02921 0.79813 0.0
O322 O 0.50251 0.04044 0.8663 0.0
O323 O 0.47805 0.02987 0.81898 0.0
O324 O 0.5069 0.99958 0.91235 0.0
O325 O 0.51332 0.98629 0.84673 0.0
O326 O 0.47508 0.9892 0.82752 0.0
O327 O 0.48562 0.96593 0.78168 0.0
H328 H 0.55749 0.935 0.7448 0.0
H329 H 0.58396 0.93548 0.68649 0.0
H330 H 0.55897 0.96892 0.55891 0.0
H331 H 0.53265 0.96849 0.61692 0.0
H332 H 0.46071 0.06643 0.84927 0.0
H333 H 0.43864 0.06865 0.91904 0.0
H334 H 0.46039 0.02433 0.02363 0.0
H335 H 0.48251 0.02244 0.95394 0.0
Nd336 Nd 0.50536 0.50146 0.84003 0.0
Nd337 Nd 0.52951 0.49154 0.75521 0.0
C338 C 0.48364 0.51882 0.89295 0.0
C339 C 0.48477 0.53982 0.90088 0.0
C340 C 0.48664 0.55468 0.8569 0.0
C341 C 0.49104 0.5747 0.86506 0.0
C342 C 0.49367 0.58019 0.9173 0.0
C343 C 0.49073 0.56534 0.96126 0.0
C344 C 0.48631 0.54535 0.9531 0.0
C345 C 0.53833 0.49246 0.87712 0.0
C346 C 0.53397 0.53727 0.76604 0.0
C347 C 0.54987 0.47391 0.69853 0.0
C348 C 0.54602 0.45357 0.68297 0.0
C349 C 0.54105 0.43711 0.7218 0.0
C350 C 0.53397 0.41835 0.7064 0.0
C351 C 0.53164 0.41567 0.65177 0.0
C352 C 0.5375 0.432 0.61295 0.0
C353 C 0.54466 0.45074 0.62844 0.0
C354 C 0.49604 0.4999 0.71932 0.0
C355 C 0.50189 0.45556 0.83189 0.0
O356 O 0.47996 0.51404 0.84428 0.0
O357 O 0.49677 0.51055 0.91612 0.0
O358 O 0.5228 0.48665 0.90333 0.0
O359 O 0.5363 0.50327 0.83418 0.0
O360 O 0.51815 0.53172 0.79296 0.0
O361 O 0.5434 0.52408 0.75315 0.0
O362 O 0.5528 0.47571 0.74961 0.0
O363 O 0.53898 0.48544 0.67655 0.0
O364 O 0.51141 0.50615 0.69275 0.0
O365 O 0.49857 0.4892 0.76186 0.0
O366 O 0.51725 0.46117 0.80286 0.0
O367 O 0.49241 0.46859 0.84548 0.0
H368 H 0.4855 0.55087 0.81609 0.0
H369 H 0.49322 0.58582 0.83047 0.0
H370 H 0.49227 0.56917 0.00204 0.0
H371 H 0.48487 0.53417 0.98758 0.0
H372 H 0.54204 0.43881 0.76417 0.0
H373 H 0.52994 0.40605 0.73735 0.0
H374 H 0.53571 0.43057 0.5705 0.0
H375 H 0.54824 0.46323 0.59776 0.0
Nd376 Nd 0.99614 0.50708 0.76272 0.0
Nd377 Nd 0.01947 0.48029 0.85033 0.0
C378 C 0.9738 0.52927 0.71603 0.0
C379 C 0.95925 0.52555 0.67494 0.0
C380 C 0.94163 0.52971 0.683 0.0
C381 C 0.92716 0.52425 0.64722 0.0
C382 C 0.93011 0.51461 0.60259 0.0
C383 C 0.94791 0.51093 0.59393 0.0
C384 C 0.9623 0.51624 0.62984 0.0
C385 C 0.00787 0.47646 0.71936 0.0
C386 C 0.97491 0.46558 0.83472 0.0
C387 C 0.04364 0.45973 0.89313 0.0
C388 C 0.06059 0.46638 0.92414 0.0
C389 C 0.07795 0.46437 0.9056 0.0
C390 C 0.0943 0.47326 0.92987 0.0
C391 C 0.0936 0.48433 0.9733 0.0
C392 C 0.07615 0.48578 0.99277 0.0
C393 C 0.05986 0.47701 0.96836 0.0
C394 C 0.00842 0.51133 0.89368 0.0
C395 C 0.04072 0.52214 0.78188 0.0
O396 O 0.97013 0.51879 0.76297 0.0
O397 O 0.991 0.53067 0.70023 0.0
O398 O 0.99857 0.48834 0.69183 0.0
O399 O 0.00981 0.48129 0.76596 0.0
O400 O 0.97385 0.4829 0.807 0.0
O401 O 0.99077 0.46018 0.85017 0.0
O402 O 0.04426 0.46704 0.8424 0.0
O403 O 0.02766 0.45947 0.91617 0.0
O404 O 0.01729 0.49895 0.92092 0.0
O405 O 0.00611 0.50654 0.84697 0.0
O406 O 0.04162 0.50467 0.80841 0.0
O407 O 0.02491 0.52749 0.76557 0.0
H408 H 0.93894 0.53674 0.71771 0.0
H409 H 0.91363 0.52742 0.65469 0.0
H410 H 0.95056 0.50328 0.56039 0.0
H411 H 0.97567 0.51256 0.623 0.0
H412 H 0.07888 0.45648 0.87112 0.0
H413 H 0.10749 0.47195 0.91357 0.0
H414 H 0.07505 0.4938 0.02682 0.0
H415 H 0.04672 0.47904 0.98338 0.0
H416 H 0.20963 0.01977 0.67821 0.0
H417 H 0.17787 0.00701 0.71016 0.0
H418 H 0.15786 0.01292 0.54722 0.0
H419 H 0.18977 0.02574 0.51492 0.0
H420 H 0.13889 0.03022 0.61776 0.0
H421 H 0.15689 0.96805 0.60745 0.0
H422 H 0.17693 0.94322 0.62328 0.0
H423 H 0.1699 0.94128 0.79362 0.0
H424 H 0.15004 0.96633 0.77884 0.0
H425 H 0.04967 0.96114 0.72096 0.0
H426 H 0.08137 0.96396 0.6877 0.0
H427 H 0.0996 0.01486 0.77341 0.0
H428 H 0.06807 0.01221 0.8065 0.0
H429 H 0.11779 0.96632 0.73126 0.0
H430 H 0.12401 0.05097 0.68383 0.0
H431 H 0.10352 0.07538 0.66692 0.0
H432 H 0.06137 0.03126 0.60623 0.0
H433 H 0.08171 0.0067 0.62183 0.0
C434 C 0.19846 0.01823 0.64918 0.0
C435 C 0.2021 0.02384 0.59415 0.0
C436 C 0.18036 0.01081 0.66743 0.0
C437 C 0.16555 0.00894 0.63102 0.0
C438 C 0.16914 0.01421 0.57589 0.0
C439 C 0.18733 0.02144 0.5575 0.0
C440 C 0.14625 0.00268 0.65126 0.0
C441 C 0.13425 0.0162 0.64225 0.0
C442 C 0.14018 0.98432 0.68294 0.0
C443 C 0.15208 0.96919 0.69202 0.0
C444 C 0.15974 0.96245 0.6483 0.0
C445 C 0.17104 0.94831 0.65709 0.0
C446 C 0.17472 0.9407 0.70942 0.0
C447 C 0.16705 0.94719 0.75309 0.0
C448 C 0.15575 0.96135 0.74453 0.0
C449 C 0.06056 0.97257 0.73389 0.0
C450 C 0.0564 0.98665 0.76559 0.0
C451 C 0.07863 0.97417 0.71487 0.0
C452 C 0.09267 0.98986 0.72726 0.0
C453 C 0.08886 0.00283 0.76279 0.0
C454 C 0.07086 1.00125 0.78176 0.0
C455 C 0.11071 0.99409 0.69882 0.0
C456 C 0.12243 0.98025 0.70638 0.0
C457 C 0.11652 0.01212 0.66544 0.0
C458 C 0.10436 0.02695 0.6544 0.0
C459 C 0.11042 0.04652 0.66654 0.0
C460 C 0.09883 0.06037 0.65723 0.0
C461 C 0.08115 0.05486 0.63556 0.0
C462 C 0.07505 0.0355 0.62307 0.0
C463 C 0.08661 0.0216 0.63216 0.0
H464 H 0.0722 0.06561 0.62835 0.0
H465 H 0.18347 0.92975 0.71614 0.0
H466 H 0.44725 0.12585 0.31549 0.0
H467 H 0.45706 0.10041 0.38 0.0
H468 H 0.47183 0.14329 0.49328 0.0
H469 H 0.4622 0.16867 0.42928 0.0
H470 H 0.49794 0.12272 0.4906 0.0
H471 H 0.43193 0.10792 0.50637 0.0
H472 H 0.39923 0.09948 0.4786 0.0
H473 H 0.40898 0.04556 0.42537 0.0
H474 H 0.44185 0.05384 0.45199 0.0
H475 H 0.47751 0.0313 0.71091 0.0
H476 H 0.46721 0.05723 0.6496 0.0
H477 H 0.51446 0.06017 0.5474 0.0
H478 H 0.52504 0.03464 0.60931 0.0
H479 H 0.45664 0.05827 0.548 0.0
H480 H 0.52835 0.10708 0.48774 0.0
H481 H 0.5594 0.11632 0.5274 0.0
H482 H 0.53555 0.10484 0.6856 0.0
H483 H 0.50434 0.09582 0.64689 0.0
C484 C 0.45255 0.12981 0.35422 0.0
C485 C 0.45406 0.14933 0.36706 0.0
C486 C 0.45809 0.11525 0.3911 0.0
C487 C 0.46503 0.11987 0.44173 0.0
C488 C 0.46661 0.13936 0.45443 0.0
C489 C 0.46118 0.1539 0.41761 0.0
C490 C 0.47093 0.10458 0.48144 0.0
C491 C 0.4889 0.10861 0.50296 0.0
C492 C 0.45904 0.0863 0.49851 0.0
C493 C 0.43942 0.08161 0.48072 0.0
C494 C 0.42717 0.09437 0.48818 0.0
C495 C 0.40857 0.08957 0.47289 0.0
C496 C 0.40201 0.07195 0.45047 0.0
C497 C 0.41407 0.05915 0.44299 0.0
C498 C 0.43269 0.06391 0.45809 0.0
C499 C 0.48582 0.03768 0.67576 0.0
C500 C 0.50217 0.03109 0.66512 0.0
C501 C 0.47984 0.05237 0.6405 0.0
C502 C 0.49011 0.06077 0.59402 0.0
C503 C 0.50643 0.05415 0.58335 0.0
C504 C 0.51245 0.03952 0.61869 0.0
C505 C 0.4837 0.07634 0.55646 0.0
C506 C 0.46568 0.07236 0.53531 0.0
C507 C 0.49534 0.09488 0.54072 0.0
C508 C 0.51403 0.10058 0.56438 0.0
C509 C 0.52973 0.10661 0.53097 0.0
C510 C 0.54736 0.1118 0.5533 0.0
C511 C 0.54945 0.1111 0.60899 0.0
C512 C 0.53392 0.1053 0.64248 0.0
C513 C 0.51626 0.10013 0.62037 0.0
H514 H 0.56312 0.1151 0.62619 0.0
H515 H 0.38762 0.06827 0.43856 0.0
H516 H 0.32692 0.50822 0.6341 0.0
H517 H 0.35847 0.50534 0.6601 0.0
H518 H 0.37985 0.55891 0.55701 0.0
H519 H 0.34812 0.56243 0.53203 0.0
H520 H 0.39778 0.52656 0.5455 0.0
H521 H 0.38112 0.56184 0.68484 0.0
H522 H 0.36125 0.56821 0.75639 0.0
H523 H 0.36581 0.51248 0.84528 0.0
H524 H 0.38549 0.50563 0.77386 0.0
H525 H 0.48986 0.52859 0.64101 0.0
H526 H 0.46016 0.53783 0.61474 0.0
H527 H 0.43215 0.4924 0.73412 0.0
H528 H 0.46193 0.48366 0.76179 0.0
H529 H 0.41841 0.52414 0.73552 0.0
H530 H 0.4321 0.48692 0.59566 0.0
H531 H 0.45095 0.47882 0.52407 0.0
H532 H 0.45093 0.53592 0.43636 0.0
H533 H 0.43226 0.54446 0.5078 0.0
C534 C 0.33824 0.51967 0.61763 0.0
C535 C 0.33487 0.53571 0.58134 0.0
C536 C 0.3563 0.5179 0.63234 0.0
C537 C 0.37146 0.532 0.61086 0.0
C538 C 0.36829 0.54788 0.57406 0.0
C539 C 0.35015 0.5498 0.55967 0.0
C540 C 0.39057 0.52976 0.62638 0.0
C541 C 0.40247 0.5264 0.58686 0.0
C542 C 0.39643 0.52904 0.68057 0.0
C543 C 0.38466 0.53316 0.72375 0.0
C544 C 0.37776 0.55087 0.71943 0.0
C545 C 0.36655 0.55458 0.76001 0.0
C546 C 0.36223 0.54074 0.8053 0.0
C547 C 0.36915 0.52318 0.81016 0.0
C548 C 0.38035 0.51939 0.76966 0.0
C549 C 0.47734 0.52057 0.66151 0.0
C550 C 0.47812 0.50531 0.70309 0.0
C551 C 0.46037 0.52581 0.64637 0.0
C552 C 0.44383 0.5156 0.6718 0.0
C553 C 0.44469 0.50049 0.71382 0.0
C554 C 0.46168 0.49544 0.72945 0.0
C555 C 0.42562 0.52059 0.65476 0.0
C556 C 0.41386 0.52447 0.69403 0.0
C557 C 0.4198 0.52153 0.60039 0.0
C558 C 0.43096 0.51641 0.55733 0.0
C559 C 0.43623 0.4978 0.56129 0.0
C560 C 0.44686 0.49313 0.52072 0.0
C561 C 0.45218 0.50687 0.47578 0.0
C562 C 0.44683 0.52531 0.47124 0.0
C563 C 0.43621 0.53007 0.51173 0.0
H564 H 0.46041 0.50323 0.44441 0.0
H565 H 0.35355 0.54364 0.83667 0.0
H566 H 0.05722 0.34363 0.46211 0.0
H567 H 0.04227 0.36608 0.5067 0.0
H568 H 0.09572 0.39658 0.55583 0.0
H569 H 0.1109 0.37484 0.50945 0.0
H570 H 0.06837 0.38524 0.64036 0.0
H571 H 0.07576 0.41882 0.45975 0.0
H572 H 0.0722 0.42104 0.3613 0.0
H573 H 0.01295 0.40595 0.37887 0.0
H574 H 0.01617 0.40337 0.47751 0.0
H575 H 0.04232 0.46832 0.73747 0.0
H576 H 0.05676 0.44522 0.69387 0.0
H577 H 0.00583 0.42723 0.60793 0.0
H578 H 0.99189 0.45132 0.64923 0.0
H579 H 0.03177 0.43118 0.54249 0.0
H580 H 0.02302 0.39743 0.72089 0.0
H581 H 0.02537 0.39429 0.81971 0.0
H582 H 0.08482 0.40738 0.80845 0.0
H583 H 0.08284 0.41083 0.70951 0.0
C584 C 0.06587 0.35534 0.48141 0.0
C585 C 0.08532 0.35733 0.48212 0.0
C586 C 0.05727 0.36805 0.50731 0.0
C587 C 0.06791 0.38291 0.53474 0.0
C588 C 0.08727 0.38507 0.53529 0.0
C589 C 0.0959 0.37255 0.50886 0.0
C590 C 0.05884 0.39618 0.56305 0.0
C591 C 0.0605 0.39545 0.61908 0.0
C592 C 0.04817 0.40903 0.5353 0.0
C593 C 0.04622 0.4107 0.476 0.0
C594 C 0.06198 0.41581 0.44263 0.0
C595 C 0.06002 0.41716 0.38679 0.0
C596 C 0.04237 0.41358 0.36384 0.0
C597 C 0.02662 0.40869 0.3967 0.0
C598 C 0.02851 0.40729 0.45257 0.0
C599 C 0.03416 0.45909 0.71015 0.0
C600 C 0.01594 0.46122 0.69735 0.0
C601 C 0.04239 0.44588 0.68515 0.0
C602 C 0.03231 0.43406 0.64826 0.0
C603 C 0.01395 0.4361 0.63618 0.0
C604 C 0.00594 0.44974 0.65998 0.0
C605 C 0.0411 0.42027 0.62041 0.0
C606 C 0.03947 0.42091 0.56425 0.0
C607 C 0.05153 0.40706 0.64827 0.0
C608 C 0.05277 0.40454 0.70777 0.0
C609 C 0.0366 0.39971 0.73949 0.0
C610 C 0.03786 0.39788 0.79552 0.0
C611 C 0.05523 0.40069 0.82034 0.0
C612 C 0.07138 0.40523 0.78917 0.0
C613 C 0.07019 0.40709 0.73311 0.0
H614 H 0.05618 0.39931 0.86372 0.0
H615 H 0.04088 0.41464 0.3206 0.0
H616 H 0.84973 0.03798 0.08796 0.0
H617 H 0.87737 0.03628 0.03754 0.0
H618 H 0.84308 0.00628 0.91886 0.0
H619 H 0.81521 0.00781 0.96946 0.0
H620 H 0.87746 0.99146 0.94793 0.0
H621 H 0.85598 0.05166 0.88719 0.0
H622 H 0.84491 0.08229 0.89966 0.0
H623 H 0.89607 0.10458 0.97733 0.0
H624 H 0.90733 0.07392 0.9661 0.0
H625 H 0.95608 0.0068 0.78192 0.0
H626 H 0.92408 0.00832 0.80395 0.0
H627 H 0.9444 0.04923 0.91921 0.0
H628 H 0.97622 0.0488 0.89457 0.0
H629 H 0.91388 0.05751 0.8787 0.0
H630 H 0.93344 0.9962 0.95261 0.0
H631 H 0.94664 0.96712 0.93682 0.0
H632 H 0.90038 0.9474 0.83605 0.0
H633 H 0.88703 0.9765 0.85069 0.0
C634 C 0.84806 0.03057 0.05189 0.0
C635 C 0.8303 0.0231 0.03253 0.0
C636 C 0.86386 0.02972 0.02297 0.0
C637 C 0.8622 0.02134 0.97429 0.0
C638 C 0.84459 0.01283 0.95632 0.0
C639 C 0.82873 0.01382 0.98506 0.0
C640 C 0.87882 0.02304 0.94044 0.0
C641 C 0.88529 0.00585 0.93201 0.0
C642 C 0.88905 0.04185 0.92006 0.0
C643 C 0.88243 0.06043 0.92615 0.0
C644 C 0.86481 0.06303 0.90727 0.0
C645 C 0.85851 0.0804 0.91407 0.0
C646 C 0.86976 0.09535 0.93936 0.0
C647 C 0.88736 0.09298 0.95777 0.0
C648 C 0.89372 0.07562 0.95115 0.0
C649 C 0.95364 0.01652 0.81081 0.0
C650 C 0.96854 0.02747 0.8371 0.0
C651 C 0.93539 0.01727 0.8237 0.0
C652 C 0.93183 0.02835 0.86461 0.0
C653 C 0.94676 0.04044 0.88785 0.0
C654 C 0.96497 0.04014 0.87385 0.0
C655 C 0.91292 0.02599 0.88741 0.0
C656 C 0.90596 0.04307 0.89388 0.0
C657 C 0.90238 0.0071 0.90647 0.0
C658 C 0.90933 0.98858 0.90236 0.0
C659 C 0.92603 0.98557 0.92739 0.0
C660 C 0.93359 0.96917 0.9184 0.0
C661 C 0.92446 0.95557 0.88495 0.0
C662 C 0.90751 0.95805 0.86157 0.0
C663 C 0.89991 0.97447 0.8703 0.0
H664 H 0.9305 0.94308 0.87725 0.0
H665 H 0.86486 0.10879 0.9446 0.0
H666 H 0.55204 0.87205 0.30452 0.0
H667 H 0.54937 0.89916 0.23482 0.0
H668 H 0.56365 0.86503 0.11394 0.0
H669 H 0.56625 0.83781 0.18334 0.0
H670 H 0.57732 0.90615 0.08971 0.0
H671 H 0.5201 0.8615 0.13887 0.0
H672 H 0.49624 0.84234 0.20224 0.0
H673 H 0.4863 0.89632 0.25472 0.0
H674 H 0.51037 0.9158 0.19232 0.0
H675 H 0.5294 0.95411 0.8733 0.0
H676 H 0.54077 0.9295 0.9374 0.0
H677 H 0.52541 0.95819 0.06897 0.0
H678 H 0.51408 0.98258 0.00547 0.0
H679 H 0.513 0.91869 0.0839 0.0
H680 H 0.57045 0.96347 0.03269 0.0
H681 H 0.59422 0.98214 0.96822 0.0
H682 H 0.60324 0.92764 0.91687 0.0
H683 H 0.57935 0.90864 0.98055 0.0
C684 C 0.55501 0.87049 0.26325 0.0
C685 C 0.55913 0.85267 0.24943 0.0
C686 C 0.55352 0.886 0.22347 0.0
C687 C 0.55598 0.88394 0.16911 0.0
C688 C 0.56168 0.86691 0.15562 0.0
C689 C 0.56321 0.85138 0.19544 0.0
C690 C 0.55025 0.8983 0.12647 0.0
C691 C 0.56323 0.9088 0.08803 0.0
C692 C 0.53186 0.90174 0.12434 0.0
C693 C 0.51717 0.89009 0.16131 0.0
C694 C 0.51292 0.86927 0.16421 0.0
C695 C 0.49935 0.85836 0.19993 0.0
C696 C 0.48979 0.8681 0.23257 0.0
C697 C 0.49374 0.88879 0.22946 0.0
C698 C 0.50734 0.89978 0.19391 0.0
C699 C 0.52856 0.95515 0.91584 0.0
C700 C 0.52086 0.97022 0.93439 0.0
C701 C 0.53511 0.94117 0.95242 0.0
C702 C 0.53404 0.94208 0.00802 0.0
C703 C 0.52637 0.95718 0.02633 0.0
C704 C 0.51991 0.97111 0.98994 0.0
C705 C 0.54015 0.92699 0.0477 0.0
C706 C 0.52713 0.91615 0.08547 0.0
C707 C 0.55845 0.92324 0.04883 0.0
C708 C 0.57296 0.93464 0.01097 0.0
C709 C 0.5774 0.95547 0.00736 0.0
C710 C 0.59091 0.96611 0.97102 0.0
C711 C 0.60018 0.95609 0.93833 0.0
C712 C 0.59602 0.93539 0.94214 0.0
C713 C 0.58251 0.92467 0.97838 0.0
H714 H 0.61058 0.96434 0.91009 0.0
H715 H 0.47929 0.85962 0.26021 0.0
H716 H 0.699 0.45342 0.02181 0.0
H717 H 0.67283 0.46731 0.98286 0.0
H718 H 0.63645 0.41055 0.02126 0.0
H719 H 0.66281 0.39647 0.05781 0.0
H720 H 0.62711 0.42542 0.92941 0.0
H721 H 0.6393 0.45108 0.09883 0.0
H722 H 0.65808 0.46825 0.16822 0.0
H723 H 0.66912 0.52199 0.05994 0.0
H724 H 0.6506 0.50505 0.98962 0.0
H725 H 0.5419 0.4606 0.94764 0.0
H726 H 0.57041 0.44845 0.97301 0.0
H727 H 0.60213 0.49642 0.86817 0.0
H728 H 0.5735 0.50839 0.84132 0.0
H729 H 0.61429 0.48752 0.98854 0.0
H730 H 0.60093 0.45966 0.81921 0.0
H731 H 0.58046 0.44126 0.75529 0.0
H732 H 0.56889 0.39036 0.87354 0.0
H733 H 0.58939 0.40849 0.93814 0.0
C734 C 0.6854 0.44395 0.02167 0.0
C735 C 0.68284 0.42393 0.04292 0.0
C736 C 0.67044 0.45189 0.99969 0.0
C737 C 0.65253 0.4401 1.00005 0.0
C738 C 0.65008 0.41997 0.02048 0.0
C739 C 0.66512 0.41193 0.04143 0.0
C740 C 0.63632 0.44873 0.97976 0.0
C741 C 0.6243 0.43892 0.94281 0.0
C742 C 0.63263 0.46649 0.99654 0.0
C743 C 0.64373 0.47674 0.03879 0.0
C744 C 0.64584 0.46652 0.08969 0.0
C745 C 0.65643 0.47622 0.12921 0.0
C746 C 0.66483 0.49618 0.11844 0.0
C747 C 0.66263 0.50651 0.06818 0.0
C748 C 0.65208 0.49688 0.0285 0.0
C749 C 0.55496 0.46858 0.93008 0.0
C750 C 0.55558 0.48548 0.8928 0.0
C751 C 0.57117 0.46159 0.94445 0.0
C752 C 0.58828 0.47158 0.92242 0.0
C753 C 0.589 0.48858 0.88553 0.0
C754 C 0.5727 0.49536 0.87027 0.0
C755 C 0.60535 0.46419 0.93861 0.0
C756 C 0.61737 0.47416 0.97497 0.0
C757 C 0.60885 0.44641 0.92222 0.0
C758 C 0.59657 0.43546 0.88355 0.0
C759 C 0.59392 0.44459 0.83167 0.0
C760 C 0.58235 0.43419 0.79528 0.0
C761 C 0.57331 0.41467 0.81041 0.0
C762 C 0.57589 0.40548 0.86189 0.0
C763 C 0.58754 0.41578 0.89833 0.0
H764 H 0.56436 0.40663 0.7822 0.0
H765 H 0.67302 0.50366 0.14909 0.0
H766 H 0.95339 0.65914 0.08192 0.0
H767 H 0.95584 0.6327 0.02672 0.0
H768 H 0.98815 0.60675 0.15076 0.0
H769 H 0.98541 0.63275 0.20655 0.0
H770 H 0.00569 0.61542 0.05068 0.0
H771 H 0.94593 0.58351 0.12643 0.0
H772 H 0.91282 0.58119 0.14671 0.0
H773 H 0.90078 0.58902 0.97809 0.0
H774 H 0.93389 0.59168 0.95682 0.0
H775 H 0.01497 0.52214 0.99325 0.0
H776 H 0.00531 0.54929 0.03196 0.0
H777 H 0.97783 0.56485 0.884 0.0
H778 H 0.98772 0.5375 0.84448 0.0
H779 H 0.95666 0.56459 0.98111 0.0
H780 H 0.01583 0.59328 0.90486 0.0
H781 H 0.04889 0.59543 0.88427 0.0
H782 H 0.06207 0.59443 0.05213 0.0
H783 H 0.02905 0.59191 0.07387 0.0
C784 C 0.96053 0.64747 0.09813 0.0
C785 C 0.96939 0.64818 0.14844 0.0
C786 C 0.962 0.63243 0.06637 0.0
C787 C 0.97234 0.6179 0.08447 0.0
C788 C 0.98027 0.61795 0.13585 0.0
C789 C 0.97872 0.63284 0.16764 0.0
C790 C 0.97636 0.60362 0.0486 0.0
C791 C 0.99497 0.60423 0.03576 0.0
C792 C 0.9623 0.58958 0.02729 0.0
C793 C 0.94242 0.58806 0.04006 0.0
C794 C 0.93626 0.58496 0.09368 0.0
C795 C 0.91748 0.58353 0.10536 0.0
C796 C 0.90472 0.58503 0.06372 0.0
C797 C 0.9107 0.58791 0.01031 0.0
C798 C 0.92946 0.58937 0.99842 0.0
C799 C 0.00685 0.5313 0.96885 0.0
C800 C 0.0021 0.52776 0.91584 0.0
C801 C 0.00135 0.54682 0.99104 0.0
C802 C 0.99097 0.55914 0.96075 0.0
C803 C 0.98584 0.55547 0.90799 0.0
C804 C 0.99152 0.53993 0.88547 0.0
C805 C 0.98604 0.57603 0.98487 0.0
C806 C 0.96733 0.576 0.99533 0.0
C807 C -1e-05 0.59074 0.00386 0.0
C808 C 0.01991 0.59227 0.99102 0.0
C809 C 0.02575 0.59334 0.93744 0.0
C810 C 0.04449 0.59466 0.92555 0.0
C811 C 0.05756 0.59505 0.96688 0.0
C812 C 0.05192 0.59413 0.02017 0.0
C813 C 0.0332 0.59277 0.03229 0.0
H814 H 0.07206 0.59611 0.95765 0.0
H815 H 0.89019 0.5839 0.07284 0.0
H816 H 0.12884 0.21391 0.57376 0.0
H817 H 0.11749 0.18076 0.62057 0.0
H818 H 0.06106 0.18776 0.58893 0.0
H819 H 0.07219 0.22054 0.5415 0.0
H820 H 0.06547 0.17075 0.69175 0.0
H821 H 0.08237 0.16339 0.51021 0.0
H822 H 0.10383 0.16749 0.43367 0.0
H823 H 0.1394 0.13476 0.52883 0.0
H824 H 0.11834 0.13086 0.60642 0.0
H825 H 0.01369 0.07199 0.69677 0.0
H826 H 0.02943 0.10575 0.66299 0.0
H827 H 0.0811 0.09357 0.73003 0.0
H828 H 0.06545 0.06012 0.76497 0.0
H829 H 0.08173 0.11285 0.61702 0.0
H830 H 0.06545 0.11901 0.79674 0.0
H831 H 0.04481 0.11458 0.87535 0.0
H832 H 0.00917 0.14895 0.7864 0.0
H833 H 0.02949 0.15334 0.7069 0.0
C834 C 0.11403 0.20839 0.5769 0.0
C835 C 0.10143 0.21989 0.55389 0.0
C836 C 0.10757 0.18951 0.60378 0.0
C837 C 0.08845 0.18181 0.60785 0.0
C838 C 0.07587 0.19349 0.58649 0.0
C839 C 0.08228 0.21229 0.55956 0.0
C840 C 0.08135 0.16124 0.63181 0.0
C841 C 0.06894 0.1581 0.67521 0.0
C842 C 0.08628 0.14476 0.61105 0.0
C843 C 0.0989 0.14706 0.56433 0.0
C844 C 0.09486 0.15724 0.51499 0.0
C845 C 0.10695 0.15949 0.47137 0.0
C846 C 0.12299 0.15141 0.47639 0.0
C847 C 0.12699 0.14104 0.52504 0.0
C848 C 0.11499 0.13883 0.56886 0.0
C849 C 0.02841 0.07652 0.70388 0.0
C850 C 0.03835 0.0636 0.73366 0.0
C851 C 0.03734 0.09574 0.68488 0.0
C852 C 0.05633 0.10205 0.69454 0.0
C853 C 0.06641 0.08893 0.72255 0.0
C854 C 0.05744 0.06991 0.74254 0.0
C855 C 0.06562 0.12249 0.67598 0.0
C856 C 0.07842 0.12555 0.63374 0.0
C857 C 0.06117 0.13888 0.69803 0.0
C858 C 0.04886 0.13627 0.74561 0.0
C859 C 0.0531 0.12543 0.79371 0.0
C860 C 0.04149 0.12298 0.83849 0.0
C861 C 0.02564 0.13139 0.83577 0.0
C862 C 0.02142 0.14238 0.78837 0.0
C863 C 0.03299 0.14487 0.74344 0.0
H864 H 0.01664 0.12942 0.87043 0.0
H865 H 0.13232 0.15312 0.44259 0.0
H866 H 0.34679 0.03236 0.71391 0.0
H867 H 0.36689 0.01164 0.75865 0.0
H868 H 0.32616 0.95922 0.7355 0.0
H869 H 0.30655 0.97993 0.6863 0.0
H870 H 0.36752 0.98706 0.84078 0.0
H871 H 0.34867 0.92157 0.71924 0.0
H872 H 0.33354 0.91277 0.63406 0.0
H873 H 0.35124 0.97277 0.56211 0.0
H874 H 0.3666 0.98183 0.64669 0.0
H875 H 0.44966 0.95429 0.89077 0.0
H876 H 0.41567 0.94639 0.88628 0.0
H877 H 0.41873 0.96179 0.71412 0.0
H878 H 0.45236 0.96733 0.71844 0.0
H879 H 0.38825 0.94015 0.73084 0.0
H880 H 0.41902 0.99954 0.81983 0.0
H881 H 0.43811 0.01404 0.89275 0.0
H882 H 0.40262 0.97528 0.01008 0.0
H883 H 0.38301 0.96089 0.93775 0.0
C884 C 0.34209 0.01642 0.71794 0.0
C885 C 0.32525 0.00785 0.69516 0.0
C886 C 0.3535 0.00454 0.74442 0.0
C887 C 0.34823 0.98378 0.74975 0.0
C888 C 0.33073 0.97517 0.73094 0.0
C889 C 0.31943 0.98708 0.70331 0.0
C890 C 0.36201 0.97165 0.77049 0.0
C891 C 0.37186 0.97654 0.81715 0.0
C892 C 0.36761 0.95768 0.74036 0.0
C893 C 0.35851 0.9524 0.68938 0.0
C894 C 0.34931 0.93285 0.68518 0.0
C895 C 0.34071 0.92783 0.63704 0.0
C896 C 0.34136 0.94222 0.59278 0.0
C897 C 0.35068 0.96165 0.59647 0.0
C898 C 0.35933 0.96674 0.64448 0.0
C899 C 0.44292 0.95492 0.85192 0.0
C900 C 0.45342 0.96139 0.8049 0.0
C901 C 0.42352 0.95074 0.84934 0.0
C902 C 0.4145 0.95441 0.80018 0.0
C903 C 0.42516 0.95892 0.75276 0.0
C904 C 0.44446 0.96214 0.75511 0.0
C905 C 0.39485 0.95719 0.79787 0.0
C906 C 0.38358 0.95013 0.75556 0.0
C907 C 0.38844 0.97003 0.83024 0.0
C908 C 0.39972 0.97908 0.87364 0.0
C909 C 0.41524 0.99425 0.86126 0.0
C910 C 0.42609 0.00248 0.90249 0.0
C911 C 0.42149 0.99566 0.95612 0.0
C912 C 0.40598 0.98069 0.9686 0.0
C913 C 0.39497 0.97254 0.92756 0.0
H914 H 0.42994 0.00185 0.98812 0.0
H915 H 0.33468 0.93831 0.55558 0.0
H916 H 0.46445 0.28975 0.3533 0.0
H917 H 0.47968 0.31235 0.4156 0.0
H918 H 0.4393 0.28499 0.53768 0.0
H919 H 0.42378 0.26221 0.47494 0.0
H920 H 0.44689 0.32744 0.52575 0.0
H921 H 0.47967 0.27405 0.55283 0.0
H922 H 0.49619 0.24903 0.52513 0.0
H923 H 0.53828 0.2952 0.44867 0.0
H924 H 0.52186 0.32051 0.47519 0.0
H925 H 0.50167 0.38994 0.69951 0.0
H926 H 0.48444 0.35962 0.66743 0.0
H927 H 0.52195 0.36795 0.53275 0.0
H928 H 0.53985 0.39757 0.5662 0.0
H929 H 0.5136 0.33041 0.56785 0.0
H930 H 0.479 0.38336 0.52938 0.0
H931 H 0.46182 0.40871 0.55135 0.0
H932 H 0.4225 0.36382 0.64328 0.0
H933 H 0.4398 0.33832 0.62344 0.0
C934 C 0.45865 0.28867 0.39317 0.0
C935 C 0.44287 0.2743 0.40921 0.0
C936 C 0.46748 0.30146 0.42886 0.0
C937 C 0.46072 0.30016 0.48132 0.0
C938 C 0.44474 0.28611 0.49736 0.0
C939 C 0.43596 0.27312 0.46166 0.0
C940 C 0.47048 0.31373 0.51868 0.0
C941 C 0.46136 0.32787 0.53616 0.0
C942 C 0.48941 0.31435 0.53133 0.0
C943 C 0.49947 0.29918 0.51579 0.0
C944 C 0.49239 0.27887 0.52981 0.0
C945 C 0.50174 0.26463 0.51436 0.0
C946 C 0.51826 0.27052 0.48511 0.0
C947 C 0.52548 0.29066 0.47134 0.0
C948 C 0.51617 0.30497 0.48665 0.0
C949 C 0.50653 0.38507 0.66376 0.0
C950 C 0.52209 0.39631 0.63514 0.0
C951 C 0.49651 0.36784 0.64513 0.0
C952 C 0.50168 0.3617 0.59711 0.0
C953 C 0.51763 0.37244 0.56976 0.0
C954 C 0.52775 0.38951 0.58862 0.0
C955 C 0.49022 0.34467 0.57352 0.0
C956 C 0.49903 0.32981 0.55859 0.0
C957 C 0.47102 0.34351 0.56286 0.0
C958 C 0.46087 0.35897 0.57562 0.0
C959 C 0.46685 0.37894 0.55495 0.0
C960 C 0.45709 0.39334 0.56704 0.0
C961 C 0.44115 0.38791 0.599 0.0
C962 C 0.43492 0.36805 0.61888 0.0
C963 C 0.44474 0.35363 0.6074 0.0
H964 H 0.43357 0.39907 0.6082 0.0
H965 H 0.52548 0.25947 0.47316 0.0
H966 H 0.2035 0.55453 0.68851 0.0
H967 H 0.17432 0.5582 0.72682 0.0
H968 H 0.16827 0.60298 0.59626 0.0
H969 H 0.19723 0.59863 0.55646 0.0
H970 H 0.15693 0.58312 0.76269 0.0
H971 H 0.12341 0.59617 0.5563 0.0
H972 H 0.12837 0.5923 0.46123 0.0
H973 H 0.15619 0.54399 0.50977 0.0
H974 H 0.15116 0.54741 0.60502 0.0
H975 H 0.04765 0.55772 0.71611 0.0
H976 H 0.07823 0.57787 0.69002 0.0
H977 H 0.10466 0.53665 0.79118 0.0
H978 H 0.07475 0.51715 0.81855 0.0
H979 H 0.1047 0.56596 0.63718 0.0
H980 H 0.14351 0.55458 0.83696 0.0
H981 H 0.13695 0.55209 0.93389 0.0
H982 H 0.09747 0.59027 0.90222 0.0
H983 H 0.10368 0.59291 0.80508 0.0
C984 C 0.19624 0.5656 0.66884 0.0
C985 C 0.20247 0.57614 0.61926 0.0
C986 C 0.17953 0.5677 0.69078 0.0
C987 C 0.16883 0.58052 0.66376 0.0
C988 C 0.17605 0.59264 0.61714 0.0
C989 C 0.19261 0.59023 0.59456 0.0
C990 C 0.14928 0.57899 0.68073 0.0
C991 C 0.1455 0.57956 0.73517 0.0
C992 C 0.13427 0.57464 0.64474 0.0
C993 C 0.13714 0.57225 0.58765 0.0
C994 C 0.13055 0.58471 0.5466 0.0
C995 C 0.13337 0.58258 0.49272 0.0
C996 C 0.14266 0.56796 0.47947 0.0
C997 C 0.14905 0.55535 0.52008 0.0
C998 C 0.14622 0.55737 0.57399 0.0
C999 C 0.06 0.55325 0.73359 0.0
C1000 C 0.05869 0.53576 0.76919 0.0
C1001 C 0.07744 0.56475 0.71863 0.0
C1002 C 0.09376 0.55899 0.73941 0.0
C1003 C 0.09235 0.54179 0.77578 0.0
C1004 C 0.07509 0.53046 0.79088 0.0
C1005 C 0.11239 0.56938 0.71944 0.0
C1006 C 0.11603 0.57041 0.66437 0.0
C1007 C 0.12726 0.57465 0.75511 0.0
C1008 C 0.12413 0.57401 0.81371 0.0
C1009 C 0.1336 0.56265 0.85072 0.0
C1010 C 0.12987 0.56111 0.9057 0.0
C1011 C 0.11684 0.57105 0.92425 0.0
C1012 C 0.10753 0.58256 0.88784 0.0
C1013 C 0.11111 0.58403 0.83279 0.0
H1014 H 0.11395 0.56981 0.96682 0.0
H1015 H 0.14485 0.56636 0.43775 0.0
H1016 H 0.9681 0.78004 0.00179 0.0
H1017 H 0.9669 0.81053 0.94323 0.0
H1018 H 0.93994 0.83224 0.06903 0.0
H1019 H 0.94009 0.80137 0.12648 0.0
H1020 H 0.93058 0.84884 0.97482 0.0
H1021 H 0.98724 0.83835 0.06518 0.0
H1022 H 0.01266 0.82021 0.08771 0.0
H1023 H 0.02855 0.82776 0.9215 0.0
H1024 H 0.00301 0.8457 0.89793 0.0
H1025 H 0.00594 0.94655 0.94348 0.0
H1026 H 0.99382 0.91234 0.98021 0.0
H1027 H 0.95583 0.90537 0.84709 0.0
H1028 H 0.96762 0.93967 0.81052 0.0
H1029 H 0.99632 0.88049 0.93686 0.0
H1030 H 0.91809 0.87002 0.88574 0.0
H1031 H 0.89243 0.8885 0.88195 0.0
H1032 H 0.92061 0.92571 0.99581 0.0
H1033 H 0.94646 0.90754 0.99999 0.0
C1034 C 0.96117 0.79091 0.01613 0.0
C1035 C 0.95471 0.7886 0.06933 0.0
C1036 C 0.96059 0.8084 0.9827 0.0
C1037 C 0.95391 0.8239 0.0025 0.0
C1038 C 0.94537 0.82059 0.05313 0.0
C1039 C 0.94569 0.80302 0.08619 0.0
C1040 C 0.95882 0.84446 0.97572 0.0
C1041 C 0.9449 0.85572 0.96567 0.0
C1042 C 0.97759 0.85362 0.96561 0.0
C1043 C 0.99313 0.84315 0.97974 0.0
C1044 C 0.99611 0.83605 0.03344 0.0
C1045 C 0.01053 0.82581 0.04639 0.0
C1046 C 0.02219 0.82279 0.00604 0.0
C1047 C 0.01948 0.83007 0.95268 0.0
C1048 C 0.00504 0.84027 0.9395 0.0
C1049 C 0.9949 0.93781 0.92221 0.0
C1050 C 0.9879 0.94578 0.87381 0.0
C1051 C 0.98798 0.91826 0.94326 0.0
C1052 C 0.97392 0.9063 0.91638 0.0
C1053 C 0.96653 0.91438 0.86881 0.0
C1054 C 0.97341 0.93397 0.84778 0.0
C1055 C 0.9681 0.88503 0.9362 0.0
C1056 C 0.98191 0.87359 0.94481 0.0
C1057 C 0.94934 0.876 0.94682 0.0
C1058 C 0.93427 0.88755 0.94272 0.0
C1059 C 0.91883 0.88221 0.90976 0.0
C1060 C 0.90426 0.89262 0.90757 0.0
C1061 C 0.90488 0.90825 0.93867 0.0
C1062 C 0.92015 0.9136 0.97175 0.0
C1063 C 0.93483 0.90335 0.97372 0.0
H1064 H 0.89357 0.91625 0.93706 0.0
H1065 H 0.03334 0.81486 0.01613 0.0
H1066 H 0.68356 0.03388 0.04238 0.0
H1067 H 0.65651 0.03415 0.98448 0.0
H1068 H 0.68801 0.08139 0.87669 0.0
H1069 H 0.71524 0.08139 0.93548 0.0
H1070 H 0.65251 0.08663 0.88793 0.0
H1071 H 0.68168 0.03525 0.84302 0.0
H1072 H 0.69668 0.00618 0.8592 0.0
H1073 H 0.64672 0.97149 0.93234 0.0
H1074 H 0.63148 1.00044 0.9173 0.0
H1075 H 0.57441 0.01773 0.73137 0.0
H1076 H 0.60688 0.03163 0.74874 0.0
H1077 H 0.58982 0.0618 0.87514 0.0
H1078 H 0.55736 0.04887 0.85549 0.0
H1079 H 0.6229 0.02136 0.83198 0.0
H1080 H 0.62298 0.09748 0.9134 0.0
H1081 H 0.60922 0.12711 0.88953 0.0
H1082 H 0.60301 0.11398 0.72607 0.0
H1083 H 0.617 0.08445 0.74868 0.0
C1084 C 0.68471 0.04436 0.00641 0.0
C1085 C 0.70152 0.05741 0.99287 0.0
C1086 C 0.66927 0.04452 0.9734 0.0
C1087 C 0.6704 0.05749 0.92571 0.0
C1088 C 0.68692 0.07119 0.91318 0.0
C1089 C 0.70241 0.07117 0.94667 0.0
C1090 C 0.65439 0.05594 0.88852 0.0
C1091 C 0.64604 0.07245 0.87512 0.0
C1092 C 0.64642 0.03759 0.87021 0.0
C1093 C 0.65547 0.02006 0.87919 0.0
C1094 C 0.67392 0.02146 0.86283 0.0
C1095 C 0.68246 0.00499 0.87176 0.0
C1096 C 0.67266 0.987 0.89679 0.0
C1097 C 0.65428 0.98543 0.91289 0.0
C1098 C 0.64568 0.00186 0.90409 0.0
C1099 C 0.57764 0.02787 0.76163 0.0
C1100 C 0.56349 0.03216 0.79239 0.0
C1101 C 0.59618 0.03579 0.7716 0.0
C1102 C 0.6009 0.04774 0.8134 0.0
C1103 C 0.58664 0.053 0.84193 0.0
C1104 C 0.56806 0.04549 0.83095 0.0
C1105 C 0.62034 0.05187 0.83294 0.0
C1106 C 0.62942 0.03575 0.84333 0.0
C1107 C 0.62913 0.0707 0.847 0.0
C1108 C 0.62097 0.08865 0.83288 0.0
C1109 C 0.61881 0.10098 0.87227 0.0
C1110 C 0.61094 0.11775 0.85897 0.0
C1111 C 0.60521 0.1224 0.80635 0.0
C1112 C 0.6074 0.11033 0.76685 0.0
C1113 C 0.61528 0.09355 0.77992 0.0
H1114 H 0.5991 0.13538 0.79616 0.0
H1115 H 0.6793 0.97427 0.90367 0.0
H1116 H 0.55158 0.70943 0.18972 0.0
H1117 H 0.54766 0.69019 0.11316 0.0
H1118 H 0.5102 0.72636 0.03982 0.0
H1119 H 0.51368 0.74535 0.11722 0.0
H1120 H 0.49502 0.68858 0.04466 0.0
H1121 H 0.55183 0.72692 0.97872 0.0
H1122 H 0.58447 0.74423 0.97989 0.0
H1123 H 0.60181 0.68869 0.02272 0.0
H1124 H 0.56926 0.67105 0.02262 0.0
H1125 H 0.48181 0.61323 0.86891 0.0
H1126 H 0.49157 0.64751 0.88999 0.0
H1127 H 0.53031 0.62854 0.00676 0.0
H1128 H 0.52097 0.59456 0.98517 0.0
H1129 H 0.54436 0.66528 0.95195 0.0
H1130 H 0.48675 0.63028 0.04428 0.0
H1131 H 0.45407 0.61287 0.04475 0.0
H1132 H 0.43877 0.66327 0.95124 0.0
H1133 H 0.47143 0.68087 0.94975 0.0
C1134 C 0.54262 0.71338 0.1571 0.0
C1135 C 0.5328 0.72877 0.15976 0.0
C1136 C 0.5406 0.70257 0.11293 0.0
C1137 C 0.5288 0.70698 0.07038 0.0
C1138 C 0.51949 0.72281 0.07199 0.0
C1139 C 0.52154 0.73367 0.11619 0.0
C1140 C 0.52437 0.69332 0.02843 0.0
C1141 C 0.50579 0.68395 0.02308 0.0
C1142 C 0.53839 0.68716 1.00042 0.0
C1143 C 0.55804 0.69766 1.00086 0.0
C1144 C 0.56258 0.7184 0.98879 0.0
C1145 C 0.58108 0.72827 0.98919 0.0
C1146 C 0.5952 0.71757 0.00142 0.0
C1147 C 0.59085 0.69696 0.01322 0.0
C1148 C 0.57237 0.68701 0.01289 0.0
C1149 C 0.49263 0.61648 0.89837 0.0
C1150 C 0.50035 0.60118 0.92629 0.0
C1151 C 0.49818 0.63603 0.91032 0.0
C1152 C 0.51153 0.64049 0.95028 0.0
C1153 C 0.52 0.62542 0.97578 0.0
C1154 C 0.51445 0.60596 0.964 0.0
C1155 C 0.51525 0.6601 0.9708 0.0
C1156 C 0.53363 0.67052 0.97206 0.0
C1157 C 0.50109 0.66729 0.99514 0.0
C1158 C 0.48151 0.65676 0.99632 0.0
C1159 C 0.47642 0.63758 0.02354 0.0
C1160 C 0.45791 0.62769 0.02403 0.0
C1161 C 0.44436 0.63693 0.99789 0.0
C1162 C 0.44929 0.65611 0.97135 0.0
C1163 C 0.46779 0.66605 0.97066 0.0
H1164 H 0.43004 0.62926 0.99832 0.0
H1165 H 0.60951 0.72524 0.0017 0.0
H1166 H 0.8258 0.37413 0.08477 0.0
H1167 H 0.85693 0.38104 0.04692 0.0
H1168 H 0.83691 0.40944 0.90122 0.0
H1169 H 0.8054 0.40135 0.9373 0.0
H1170 H 0.86324 0.39109 0.8775 0.0
H1171 H 0.85602 0.43575 0.00593 0.0
H1172 H 0.84852 0.44476 0.09418 0.0
H1173 H 0.8913 0.41647 0.16785 0.0
H1174 H 0.89885 0.407 0.08009 0.0
H1175 H 0.94059 0.46601 0.79158 0.0
H1176 H 0.91098 0.44609 0.82433 0.0
H1177 H 0.93938 0.41497 0.94843 0.0
H1178 H 0.96921 0.43485 0.91574 0.0
H1179 H 0.91045 0.4307 0.98637 0.0
H1180 H 0.91993 0.39038 0.8506 0.0
H1181 H 0.92723 0.38381 0.75961 0.0
H1182 H 0.88003 0.40697 0.69661 0.0
H1183 H 0.87259 0.41396 0.78713 0.0
C1184 C 0.82781 0.38128 0.044 0.0
C1185 C 0.81302 0.38739 0.01438 0.0
C1186 C 0.84574 0.38546 0.02268 0.0
C1187 C 0.84937 0.39624 0.97181 0.0
C1188 C 0.83449 0.40128 0.9408 0.0
C1189 C 0.81649 0.39683 0.96177 0.0
C1190 C 0.86873 0.40355 0.95248 0.0
C1191 C 0.87353 0.39982 0.9012 0.0
C1192 C 0.88229 0.41467 0.98379 0.0
C1193 C 0.87785 0.42045 0.03656 0.0
C1194 C 0.86373 0.43131 0.04102 0.0
C1195 C 0.85948 0.43651 0.09093 0.0
C1196 C 0.86938 0.43113 0.13662 0.0
C1197 C 0.8836 0.42058 0.13245 0.0
C1198 C 0.88787 0.41529 0.08263 0.0
C1199 C 0.9406 0.45478 0.82546 0.0
C1200 C 0.95726 0.45207 0.85121 0.0
C1201 C 0.92366 0.44332 0.84393 0.0
C1202 C 0.92302 0.429 0.88862 0.0
C1203 C 0.93963 0.42592 0.91374 0.0
C1204 C 0.95664 0.43724 0.89489 0.0
C1205 C 0.90486 0.41842 0.91126 0.0
C1206 C 0.90025 0.42164 0.96311 0.0
C1207 C 0.89143 0.40714 0.88013 0.0
C1208 C 0.89577 0.40281 0.82566 0.0
C1209 C 0.91118 0.39421 0.8173 0.0
C1210 C 0.91533 0.39038 0.7658 0.0
C1211 C 0.90412 0.395 0.72234 0.0
C1212 C 0.8887 0.40341 0.73031 0.0
C1213 C 0.88449 0.40727 0.78173 0.0
H1214 H 0.90736 0.39203 0.6825 0.0
H1215 H 0.86606 0.43517 0.17521 0.0
H1216 H 0.07466 0.21763 0.30738 0.0
H1217 H 0.06697 0.18801 0.26085 0.0
H1218 H 0.09189 0.2212 0.11558 0.0
H1219 H 0.09932 0.25117 0.16171 0.0
H1220 H 0.05936 0.19495 0.09582 0.0
H1221 H 0.11611 0.19353 0.19127 0.0
H1222 H 0.13692 0.19527 0.2697 0.0
H1223 H 0.10133 0.14466 0.35293 0.0
H1224 H 0.08008 0.14285 0.27536 0.0
H1225 H 0.06576 0.1093 0.96983 0.0
H1226 H 0.07316 0.14088 0.00762 0.0
H1227 H 0.05475 0.11121 0.16362 0.0
H1228 H 0.04839 0.07944 0.1269 0.0
H1229 H 0.08525 0.13684 0.17401 0.0
H1230 H 0.0278 0.13913 0.07832 0.0
H1231 H 0.00742 0.13758 0.99883 0.0
H1232 H 0.04489 0.18643 0.91465 0.0
H1233 H 0.06562 0.18812 0.99343 0.0
C1234 C 0.07813 0.21881 0.26518 0.0
C1235 C 0.08762 0.23681 0.23828 0.0
C1236 C 0.07389 0.20178 0.23878 0.0
C1237 C 0.07909 0.20233 0.18496 0.0
C1238 C 0.08782 0.22044 0.15719 0.0
C1239 C 0.09214 0.23751 0.18368 0.0
C1240 C 0.0762 0.18375 0.15881 0.0
C1241 C 0.06519 0.18231 0.11247 0.0
C1242 C 0.08364 0.16718 0.18091 0.0
C1243 C 0.0964 0.16819 0.22767 0.0
C1244 C 0.11262 0.18289 0.22648 0.0
C1245 C 0.1245 0.18388 0.27077 0.0
C1246 C 0.12042 0.17013 0.31632 0.0
C1247 C 0.10445 0.15533 0.31766 0.0
C1248 C 0.09248 0.15432 0.27354 0.0
C1249 C 0.06353 0.10941 0.01236 0.0
C1250 C 0.05641 0.09174 0.04523 0.0
C1251 C 0.06753 0.12757 0.03379 0.0
C1252 C 0.06421 0.12853 0.08835 0.0
C1253 C 0.05733 0.11091 0.12134 0.0
C1254 C 0.05352 0.09274 0.10011 0.0
C1255 C 0.06806 0.1478 0.1115 0.0
C1256 C 0.07936 0.14943 0.15727 0.0
C1257 C 0.06089 0.16451 0.08876 0.0
C1258 C 0.04833 0.16364 0.04162 0.0
C1259 C 0.03174 0.14947 0.04275 0.0
C1260 C 0.02013 0.14858 0.99784 0.0
C1261 C 0.02487 0.16189 0.95172 0.0
C1262 C 0.04124 0.17613 0.95041 0.0
C1263 C 0.05291 0.17708 0.9952 0.0
H1264 H 0.01585 0.16121 0.91703 0.0
H1265 H 0.12966 0.17093 0.35048 0.0
H1266 H 0.34615 0.03989 0.39322 0.0
H1267 H 0.36887 0.04035 0.32271 0.0
H1268 H 0.33159 0.06074 0.20357 0.0
H1269 H 0.30881 0.06049 0.27428 0.0
H1270 H 0.34733 0.02839 0.17719 0.0
H1271 H 0.36652 0.09233 0.24013 0.0
H1272 H 0.37645 0.11585 0.30671 0.0
H1273 H 0.42418 0.0897 0.34486 0.0
H1274 H 0.41429 0.06563 0.27987 0.0
H1275 H 0.41118 0.04965 0.96087 0.0
H1276 H 0.38804 0.05085 0.02809 0.0
H1277 H 0.428 0.04388 0.15393 0.0
H1278 H 0.45159 0.044 0.08665 0.0
H1279 H 0.41026 0.07047 0.17557 0.0
H1280 H 0.3896 0.00354 0.13267 0.0
H1281 H 0.38016 0.97691 0.07452 0.0
H1282 H 0.33764 0.00633 0.00411 0.0
H1283 H 0.34644 0.03282 0.0633 0.0
C1284 C 0.34275 0.04433 0.35193 0.0
C1285 C 0.32569 0.05004 0.33906 0.0
C1286 C 0.35579 0.04474 0.31181 0.0
C1287 C 0.35194 0.0507 0.25804 0.0
C1288 C 0.33482 0.05616 0.24491 0.0
C1289 C 0.32186 0.05604 0.2852 0.0
C1290 C 0.3657 0.05085 0.21549 0.0
C1291 C 0.361 0.03782 0.17629 0.0
C1292 C 0.38374 0.06267 0.21555 0.0
C1293 C 0.38952 0.07698 0.25546 0.0
C1294 C 0.37899 0.09139 0.26326 0.0
C1295 C 0.38464 0.10486 0.30071 0.0
C1296 C 0.4009 0.10421 0.33019 0.0
C1297 C 0.41158 0.09016 0.32213 0.0
C1298 C 0.40592 0.07656 0.28512 0.0
C1299 C 0.41516 0.04864 0.00278 0.0
C1300 C 0.43334 0.04685 0.01818 0.0
C1301 C 0.40178 0.04898 0.04134 0.0
C1302 C 0.40613 0.04714 0.0963 0.0
C1303 C 0.42425 0.04527 0.11183 0.0
C1304 C 0.4377 0.04516 0.07325 0.0
C1305 C 0.39201 0.04781 0.13749 0.0
C1306 C 0.3966 0.06105 0.17636 0.0
C1307 C 0.37401 0.03588 0.13801 0.0
C1308 C 0.36881 0.02023 0.10185 0.0
C1309 C 0.37832 0.00437 0.10453 0.0
C1310 C 0.37305 0.98929 0.07149 0.0
C1311 C 0.3585 0.99006 0.03503 0.0
C1312 C 0.34897 0.00579 0.03217 0.0
C1313 C 0.35399 0.02076 0.06575 0.0
H1314 H 0.35453 0.97842 0.00927 0.0
H1315 H 0.40524 0.11461 0.35925 0.0
H1316 H 0.47657 0.27195 0.04471 0.0
H1317 H 0.48698 0.30372 0.98993 0.0
H1318 H 0.43364 0.3192 0.01009 0.0
H1319 H 0.42322 0.28772 0.06523 0.0
H1320 H 0.44663 0.33096 0.90809 0.0
H1321 H 0.46956 0.33585 0.08882 0.0
H1322 H 0.48647 0.32604 0.17033 0.0
H1323 H 0.53704 0.33622 0.07949 0.0
H1324 H 0.52035 0.34581 0.99722 0.0
H1325 H 0.46771 0.43644 0.87055 0.0
H1326 H 0.45837 0.40148 0.90617 0.0
H1327 H 0.51312 0.3917 0.87397 0.0
H1328 H 0.5226 0.42659 0.83912 0.0
H1329 H 0.50094 0.37608 0.97563 0.0
H1330 H 0.47825 0.37338 0.79547 0.0
H1331 H 0.46138 0.38491 0.71573 0.0
H1332 H 0.41058 0.37171 0.80618 0.0
H1333 H 0.42719 0.36025 0.88662 0.0
C1334 C 0.46702 0.28206 0.03726 0.0
C1335 C 0.44907 0.27724 0.05965 0.0
C1336 C 0.47297 0.30021 0.00581 0.0
C1337 C 0.46115 0.31395 0.99638 0.0
C1338 C 0.44298 0.30882 0.01663 0.0
C1339 C 0.43702 0.29072 0.04805 0.0
C1340 C 0.46798 0.33416 0.96849 0.0
C1341 C 0.45845 0.34084 0.92301 0.0
C1342 C 0.4836 0.347 0.98732 0.0
C1343 C 0.49367 0.34131 0.03676 0.0
C1344 C 0.48425 0.33584 0.08615 0.0
C1345 C 0.4938 0.33034 0.13249 0.0
C1346 C 0.5128 0.33045 0.13006 0.0
C1347 C 0.52231 0.3361 0.08129 0.0
C1348 C 0.51282 0.34157 0.03479 0.0
C1349 C 0.47772 0.42682 0.87078 0.0
C1350 C 0.49584 0.43427 0.85143 0.0
C1351 C 0.47235 0.40682 0.8909 0.0
C1352 C 0.48501 0.39393 0.89225 0.0
C1353 C 0.5031 0.40134 0.87305 0.0
C1354 C 0.50845 0.42128 0.85266 0.0
C1355 C 0.47953 0.3729 0.91552 0.0
C1356 C 0.48929 0.36609 0.96024 0.0
C1357 C 0.46414 0.35999 0.89601 0.0
C1358 C 0.45398 0.36612 0.84719 0.0
C1359 C 0.46349 0.37299 0.79839 0.0
C1360 C 0.45397 0.37951 0.75307 0.0
C1361 C 0.43494 0.37915 0.75602 0.0
C1362 C 0.42533 0.37203 0.80404 0.0
C1363 C 0.43478 0.36547 0.84947 0.0
H1364 H 0.42761 0.38443 0.72116 0.0
H1365 H 0.52017 0.3262 0.16599 0.0
H1366 H 0.2173 0.56332 0.29754 0.0
H1367 H 0.19597 0.56109 0.22163 0.0
H1368 H 0.21464 0.50898 0.18292 0.0
H1369 H 0.23664 0.51161 0.25744 0.0
H1370 H 0.20577 0.53127 0.0922 0.0
H1371 H 0.17789 0.50489 0.26626 0.0
H1372 H 0.17021 0.50725 0.36037 0.0
H1373 H 0.14111 0.55425 0.30875 0.0
H1374 H 0.14885 0.55235 0.21431 0.0
H1375 H 0.1259 0.47049 0.99391 0.0
H1376 H 0.15335 0.48603 0.04097 0.0
H1377 H 0.12789 0.53615 0.05789 0.0
H1378 H 0.10057 0.52102 0.00946 0.0
H1379 H 0.1404 0.52003 0.15393 0.0
H1380 H 0.16475 0.5441 0.98008 0.0
H1381 H 0.17227 0.54249 0.88541 0.0
H1382 H 0.20759 0.50103 0.93507 0.0
H1383 H 0.20003 0.50219 0.03002 0.0
C1384 C 0.21739 0.55179 0.27182 0.0
C1385 C 0.22851 0.53746 0.28411 0.0
C1386 C 0.20503 0.55044 0.22867 0.0
C1387 C 0.2034 0.5346 0.19742 0.0
C1388 C 0.21556 0.52124 0.20678 0.0
C1389 C 0.22801 0.52265 0.24971 0.0
C1390 C 0.18774 0.53056 0.15938 0.0
C1391 C 0.19148 0.52873 0.10567 0.0
C1392 C 0.16906 0.52774 0.17666 0.0
C1393 C 0.16412 0.52863 0.23332 0.0
C1394 C 0.16994 0.5158 0.27502 0.0
C1395 C 0.16557 0.51705 0.32841 0.0
C1396 C 0.15522 0.53093 0.34055 0.0
C1397 C 0.14915 0.54354 0.29929 0.0
C1398 C 0.15352 0.54238 0.24583 0.0
C1399 C 0.12626 0.48501 0.00657 0.0
C1400 C 0.1109 0.49437 0.99842 0.0
C1401 C 0.14198 0.49387 0.03352 0.0
C1402 C 0.14266 0.51225 0.0529 0.0
C1403 C 0.12761 0.52192 0.04351 0.0
C1404 C 0.11194 0.51315 0.01619 0.0
C1405 C 0.15841 0.52043 0.08688 0.0
C1406 C 0.15467 0.52292 0.14006 0.0
C1407 C 0.17702 0.5239 0.06902 0.0
C1408 C 0.18165 0.52307 0.01208 0.0
C1409 C 0.17395 0.53448 0.97073 0.0
C1410 C 0.17826 0.53369 0.91705 0.0
C1411 C 0.19035 0.52162 0.90422 0.0
C1412 C 0.1982 0.51036 0.94507 0.0
C1413 C 0.19392 0.51109 0.99884 0.0
H1414 H 0.19369 0.52102 0.86264 0.0
H1415 H 0.15188 0.5319 0.38191 0.0
H1416 H 0.99353 0.78313 0.40701 0.0
H1417 H 0.99119 0.81133 0.45386 0.0
H1418 H 0.9329 0.78821 0.48197 0.0
H1419 H 0.93515 0.75949 0.43507 0.0
H1420 H 0.9389 0.8269 0.44373 0.0
H1421 H 0.96343 0.78866 0.58654 0.0
H1422 H 0.98418 0.76778 0.63114 0.0
H1423 H 0.03099 0.81533 0.59783 0.0
H1424 H 0.01056 0.83642 0.55231 0.0
H1425 H 0.93976 0.90784 0.60367 0.0
H1426 H 0.93588 0.87435 0.57612 0.0
H1427 H 0.99257 0.88714 0.5204 0.0
H1428 H 0.99655 0.92048 0.54796 0.0
H1429 H 0.98328 0.85092 0.58449 0.0
H1430 H 0.95853 0.88718 0.43205 0.0
H1431 H 0.93747 0.90779 0.38771 0.0
H1432 H 0.89036 0.86321 0.44223 0.0
H1433 H 0.91115 0.84245 0.48754 0.0
C1434 C 0.98028 0.78359 0.42446 0.0
C1435 C 0.96457 0.76878 0.41775 0.0
C1436 C 0.97896 0.79988 0.45111 0.0
C1437 C 0.96193 0.80181 0.47211 0.0
C1438 C 0.94621 0.787 0.46622 0.0
C1439 C 0.94752 0.7706 0.43941 0.0
C1440 C 0.96064 0.81996 0.49727 0.0
C1441 C 0.9483 0.83192 0.47542 0.0
C1442 C 0.97307 0.82669 0.53815 0.0
C1443 C 0.98545 0.81409 0.56571 0.0
C1444 C 0.97816 0.79463 0.58838 0.0
C1445 C 0.98987 0.78276 0.61389 0.0
C1446 C 0.00889 0.79021 0.61725 0.0
C1447 C 0.01625 0.80957 0.5952 0.0
C1448 C 0.0046 0.82151 0.56961 0.0
C1449 C 0.95137 0.90349 0.58546 0.0
C1450 C 0.96843 0.91682 0.57771 0.0
C1451 C 0.94911 0.8844 0.56959 0.0
C1452 C 0.96393 0.87828 0.54613 0.0
C1453 C 0.98096 0.89156 0.53845 0.0
C1454 C 0.98316 0.91066 0.55376 0.0
C1455 C 0.96193 0.85801 0.5299 0.0
C1456 C 0.97366 0.84568 0.55352 0.0
C1457 C 0.94886 0.85091 0.49099 0.0
C1458 C 0.93638 0.86338 0.46375 0.0
C1459 C 0.94367 0.88186 0.43502 0.0
C1460 C 0.93179 0.89355 0.40962 0.0
C1461 C 0.91259 0.88685 0.41231 0.0
C1462 C 0.90523 0.86841 0.44028 0.0
C1463 C 0.91706 0.85667 0.4658 0.0
H1464 H 0.90341 0.89592 0.3926 0.0
H1465 H 0.01794 0.78099 0.63701 0.0
H1466 H 0.70105 0.9856 0.25249 0.0
H1467 H 0.67452 0.97086 0.31102 0.0
H1468 H 0.70365 0.99635 0.44513 0.0
H1469 H 0.7303 0.01115 0.38672 0.0
H1470 H 0.68262 0.95646 0.47054 0.0
H1471 H 0.67559 0.02072 0.38224 0.0
H1472 H 0.67448 0.04521 0.30314 0.0
H1473 H 0.62905 0.00571 0.23906 0.0
H1474 H 0.63009 0.98084 0.31745 0.0
H1475 H 0.60998 0.9618 0.64673 0.0
H1476 H 0.63724 0.96698 0.58884 0.0
H1477 H 0.60196 0.95161 0.45423 0.0
H1478 H 0.57459 0.94671 0.51196 0.0
H1479 H 0.62583 0.98379 0.42561 0.0
H1480 H 0.63046 0.92047 0.51499 0.0
H1481 H 0.63139 0.89492 0.59162 0.0
H1482 H 0.68046 0.93046 0.65094 0.0
H1483 H 0.67969 0.95638 0.57504 0.0
C1484 C 0.70199 0.98765 0.29473 0.0
C1485 C 0.71772 0.99958 0.31507 0.0
C1486 C 0.68679 0.97932 0.32801 0.0
C1487 C 0.6871 0.98267 0.38222 0.0
C1488 C 0.70317 0.99361 0.40338 0.0
C1489 C 0.71832 0.00213 0.36998 0.0
C1490 C 0.67012 0.97629 0.41556 0.0
C1491 C 0.67022 0.9625 0.46113 0.0
C1492 C 0.65382 0.98381 0.40223 0.0
C1493 C 0.65306 0.99884 0.35539 0.0
C1494 C 0.66547 0.01719 0.35106 0.0
C1495 C 0.66484 0.03115 0.3064 0.0
C1496 C 0.65174 0.027 0.26602 0.0
C1497 C 0.63921 0.00889 0.27032 0.0
C1498 C 0.63981 0.99486 0.31486 0.0
C1499 C 0.60805 0.95918 0.60501 0.0
C1500 C 0.59014 0.95383 0.58389 0.0
C1501 C 0.62366 0.96212 0.57192 0.0
C1502 C 0.62171 0.95948 0.5172 0.0
C1503 C 0.60384 0.95376 0.49627 0.0
C1504 C 0.58821 0.95099 0.52925 0.0
C1505 C 0.6382 0.96392 0.48121 0.0
C1506 C 0.63808 0.97748 0.43503 0.0
C1507 C 0.65438 0.95599 0.49378 0.0
C1508 C 0.65492 0.94045 0.53953 0.0
C1509 C 0.64137 0.92292 0.5446 0.0
C1510 C 0.64189 0.90835 0.58787 0.0
C1511 C 0.65595 0.91109 0.62619 0.0
C1512 C 0.66956 0.92837 0.62124 0.0
C1513 C 0.6691 0.943 0.57807 0.0
H1514 H 0.65633 0.89979 0.65966 0.0
H1515 H 0.65127 0.03782 0.23147 0.0
H1516 H 0.53169 0.71048 0.57454 0.0
H1517 H 0.53404 0.6805 0.63285 0.0
H1518 H 0.59025 0.68481 0.57963 0.0
H1519 H 0.58837 0.7155 0.52239 0.0
H1520 H 0.56806 0.64913 0.56585 0.0
H1521 H 0.58201 0.68982 0.70714 0.0
H1522 H 0.57903 0.71431 0.76887 0.0
H1523 H 0.52691 0.67918 0.82609 0.0
H1524 H 0.52929 0.65473 0.76372 0.0
H1525 H 0.56745 0.55565 0.71976 0.0
H1526 H 0.57715 0.59084 0.68653 0.0
H1527 H 0.52484 0.60216 0.73767 0.0
H1528 H 0.51534 0.56739 0.77174 0.0
H1529 H 0.55139 0.63134 0.75837 0.0
H1530 H 0.53378 0.59547 0.60474 0.0
H1531 H 0.53559 0.57017 0.54432 0.0
H1532 H 0.59278 0.59611 0.51096 0.0
H1533 H 0.59135 0.62144 0.57176 0.0
C1534 C 0.54485 0.7056 0.57639 0.0
C1535 C 0.55983 0.71557 0.54324 0.0
C1536 C 0.54612 0.6883 0.60985 0.0
C1537 C 0.56233 0.68041 0.61083 0.0
C1538 C 0.57759 0.69064 0.57951 0.0
C1539 C 0.57642 0.70812 0.54644 0.0
C1540 C 0.56238 0.66033 0.63923 0.0
C1541 C 0.56485 0.64535 0.60829 0.0
C1542 C 0.55769 0.65528 0.69432 0.0
C1543 C 0.55577 0.67048 0.73017 0.0
C1544 C 0.56976 0.68745 0.73218 0.0
C1545 C 0.5682 0.70132 0.76745 0.0
C1546 C 0.55277 0.69833 0.80127 0.0
C1547 C 0.53883 0.68151 0.79975 0.0
C1548 C 0.54028 0.66765 0.76438 0.0
C1549 C 0.55808 0.56569 0.72426 0.0
C1550 C 0.54056 0.55866 0.74829 0.0
C1551 C 0.56364 0.58579 0.7051 0.0
C1552 C 0.55164 0.59915 0.70891 0.0
C1553 C 0.53439 0.59221 0.73429 0.0
C1554 C 0.52892 0.57223 0.75375 0.0
C1555 C 0.55649 0.62017 0.68456 0.0
C1556 C 0.55491 0.63527 0.71618 0.0
C1557 C 0.56166 0.62535 0.62991 0.0
C1558 C 0.56252 0.61018 0.59328 0.0
C1559 C 0.54677 0.59569 0.58482 0.0
C1560 C 0.54773 0.58136 0.55047 0.0
C1561 C 0.56431 0.58149 0.52396 0.0
C1562 C 0.57996 0.596 0.53162 0.0
C1563 C 0.57909 0.61034 0.56601 0.0
H1564 H 0.56502 0.57039 0.49737 0.0
H1565 H 0.55166 0.70902 0.82878 0.0
H1566 H 0.81799 0.4483 0.23246 0.0
H1567 H 0.84204 0.46531 0.28847 0.0
H1568 H 0.80872 0.44215 0.42968 0.0
H1569 H 0.78418 0.42573 0.37357 0.0
H1570 H 0.82461 0.48046 0.43327 0.0
H1571 H 0.84499 0.42113 0.39668 0.0
H1572 H 0.85268 0.39758 0.33796 0.0
H1573 H 0.89489 0.44324 0.26002 0.0
H1574 H 0.88731 0.46715 0.31794 0.0
H1575 H 0.89495 0.49546 0.63094 0.0
H1576 H 0.86996 0.48191 0.57197 0.0
H1577 H 0.90516 0.50395 0.4338 0.0
H1578 H 0.93028 0.51738 0.49275 0.0
H1579 H 0.8884 0.46698 0.42678 0.0
H1580 H 0.86888 0.52616 0.46411 0.0
H1581 H 0.86096 0.55019 0.52088 0.0
H1582 H 0.81712 0.50558 0.59532 0.0
H1583 H 0.82495 0.4812 0.5395 0.0
C1584 C 0.81561 0.44707 0.27533 0.0
C1585 C 0.79913 0.43562 0.29852 0.0
C1586 C 0.82949 0.45663 0.30738 0.0
C1587 C 0.8273 0.45476 0.36336 0.0
C1588 C 0.81073 0.44371 0.38658 0.0
C1589 C 0.79679 0.4342 0.35451 0.0
C1590 C 0.8424 0.4641 0.39775 0.0
C1591 C 0.83851 0.47734 0.43239 0.0
C1592 C 0.86065 0.46041 0.3955 0.0
C1593 C 0.86548 0.44597 0.36135 0.0
C1594 C 0.85585 0.42617 0.36685 0.0
C1595 C 0.8602 0.41276 0.33375 0.0
C1596 C 0.87424 0.41892 0.29524 0.0
C1597 C 0.88402 0.43849 0.2899 0.0
C1598 C 0.87972 0.45198 0.32289 0.0
C1599 C 0.89726 0.49769 0.58794 0.0
C1600 C 0.91456 0.50755 0.56647 0.0
C1601 C 0.88298 0.48992 0.55425 0.0
C1602 C 0.88561 0.49208 0.49835 0.0
C1603 C 0.90282 0.50208 0.47679 0.0
C1604 C 0.91715 0.50974 0.5105 0.0
C1605 C 0.87062 0.48334 0.46257 0.0
C1606 C 0.87453 0.47018 0.42765 0.0
C1607 C 0.8524 0.48716 0.46443 0.0
C1608 C 0.84762 0.5018 0.49796 0.0
C1609 C 0.85764 0.52143 0.49288 0.0
C1610 C 0.85315 0.53512 0.52483 0.0
C1611 C 0.83857 0.5294 0.56177 0.0
C1612 C 0.82842 0.50999 0.56674 0.0
C1613 C 0.83287 0.49623 0.53491 0.0
H1614 H 0.83512 0.54003 0.58648 0.0
H1615 H 0.87756 0.40852 0.26957 0.0
loop_
_geom_bond_atom_site_label_1
_geom_bond_atom_site_label_2
_geom_bond_distance
_geom_bond_site_symmetry_2
_ccdc_geom_bond_type
P0 O11 1.490 . S
P0 C14 1.812 . S
P0 C20 1.803 . S
P0 C26 1.819 . S
H1 C15 0.941 . S
H2 C16 0.939 . S
H3 C18 0.940 . S
H4 C19 0.940 . S
H5 C21 0.939 . S
H6 C22 0.942 1_556 S
H7 C24 0.940 . S
H8 C25 0.939 . S
H9 C27 0.941 . S
H10 C31 0.939 . S
O11 P0 1.490 . S
H12 C28 0.939 . S
H13 C30 0.940 . S
C14 P0 1.812 . S
C14 C15 1.389 . S
C14 C19 1.391 . S
C15 H1 0.941 . S
C15 C14 1.389 . S
C15 C16 1.397 . S
C16 H2 0.939 . S
C16 C15 1.397 . S
C16 C17 1.378 . S
C17 C16 1.378 . S
C17 C18 1.378 . S
C18 H3 0.940 . S
C18 C17 1.378 . S
C18 C19 1.396 . S
C19 H4 0.940 . S
C19 C14 1.391 . S
C19 C18 1.396 . S
C20 P0 1.803 . S
C20 C21 1.378 . S
C20 C25 1.400 . S
C21 H5 0.939 . S
C21 C20 1.378 . S
C21 C22 1.361 . S
C22 H6 0.942 1_554 S
C22 C21 1.361 . S
C22 C23 1.369 . S
C23 C22 1.369 . S
C23 C24 1.404 . S
C24 H7 0.940 . S
C24 C23 1.404 . S
C24 C25 1.389 . S
C25 H8 0.939 . S
C25 C20 1.400 . S
C25 C24 1.389 . S
C26 P0 1.819 . S
C26 C27 1.391 . S
C26 C31 1.391 1_554 S
C27 H9 0.941 . S
C27 C26 1.391 . S
C27 C28 1.396 1_554 S
C28 H12 0.939 . S
C28 C27 1.396 1_556 S
C28 C29 1.397 . S
C29 C28 1.397 . S
C29 C30 1.385 . S
C30 H13 0.940 . S
C30 C29 1.385 . S
C30 C31 1.388 . S
C31 H10 0.939 . S
C31 C26 1.391 1_556 S
C31 C30 1.388 . S
P32 O43 1.490 . S
P32 C46 1.812 . S
P32 C52 1.803 . S
P32 C58 1.819 . S
H33 C47 0.941 . S
H34 C48 0.939 . S
H35 C50 0.940 . S
H36 C51 0.940 . S
H37 C53 0.939 . S
H38 C54 0.942 1_556 S
H39 C56 0.940 . S
H40 C57 0.939 . S
H41 C59 0.941 . S
H42 C63 0.939 . S
O43 P32 1.490 . S
H44 C60 0.939 . S
H45 C62 0.940 . S
C46 P32 1.812 . S
C46 C47 1.389 . S
C46 C51 1.391 . S
C47 H33 0.941 . S
C47 C46 1.389 . S
C47 C48 1.397 . S
C48 H34 0.939 . S
C48 C47 1.397 . S
C48 C49 1.378 . S
C49 C48 1.378 . S
C49 C50 1.378 . S
C50 H35 0.940 . S
C50 C49 1.378 . S
C50 C51 1.396 . S
C51 H36 0.940 . S
C51 C46 1.391 . S
C51 C50 1.396 . S
C52 P32 1.803 . S
C52 C53 1.378 . S
C52 C57 1.400 . S
C53 H37 0.939 . S
C53 C52 1.378 . S
C53 C54 1.361 . S
C54 H38 0.942 1_554 S
C54 C53 1.361 . S
C54 C55 1.369 . S
C55 C54 1.369 . S
C55 C56 1.404 . S
C56 H39 0.940 . S
C56 C55 1.404 . S
C56 C57 1.389 . S
C57 H40 0.939 . S
C57 C52 1.400 . S
C57 C56 1.389 . S
C58 P32 1.819 . S
C58 C59 1.391 . S
C58 C63 1.391 1_554 S
C59 H41 0.941 . S
C59 C58 1.391 . S
C59 C60 1.396 1_554 S
C60 H44 0.939 . S
C60 C59 1.396 1_556 S
C60 C61 1.397 . S
C61 C60 1.397 . S
C61 C62 1.385 . S
C62 H45 0.940 . S
C62 C61 1.385 . S
C62 C63 1.388 . S
C63 H42 0.939 . S
C63 C58 1.391 1_556 S
C63 C62 1.388 . S
P64 O75 1.490 . S
P64 C78 1.812 1_556 S
P64 C84 1.803 . S
P64 C90 1.819 . S
H65 C79 0.941 . S
H66 C80 0.939 . S
H67 C82 0.940 . S
H68 C83 0.951 . S
H69 C85 0.939 . S
H70 C86 0.942 . S
H71 C88 0.940 1_554 S
H72 C89 0.953 . S
H73 C91 0.941 . S
H74 C95 0.923 1_565 S
O75 P64 1.490 . S
H76 C92 0.939 . S
H77 C94 0.940 . S
C78 P64 1.812 1_554 S
C78 C79 1.389 . S
C78 C83 1.377 1_545 S
C79 H65 0.941 . S
C79 C78 1.389 . S
C79 C80 1.397 . S
C80 H66 0.939 . S
C80 C79 1.397 . S
C80 C81 1.378 . S
C81 C80 1.378 . S
C81 C82 1.378 1_545 S
C82 H67 0.940 . S
C82 C81 1.378 1_565 S
C82 C83 1.399 . S
C83 H68 0.951 . S
C83 C78 1.377 1_565 S
C83 C82 1.399 . S
C84 P64 1.803 . S
C84 C85 1.378 . S
C84 C89 1.367 1_546 S
C85 H69 0.939 . S
C85 C84 1.378 . S
C85 C86 1.361 . S
C86 H70 0.942 . S
C86 C85 1.361 . S
C86 C87 1.369 . S
C87 C86 1.369 . S
C87 C88 1.404 1_545 S
C88 H71 0.940 1_556 S
C88 C87 1.404 1_565 S
C88 C89 1.409 1_556 S
C89 H72 0.953 . S
C89 C84 1.367 1_564 S
C89 C88 1.409 1_554 S
C90 P64 1.819 . S
C90 C91 1.391 . S
C90 C95 1.391 . S
C91 H73 0.941 . S
C91 C90 1.391 . S
C91 C92 1.396 . S
C92 H76 0.939 . S
C92 C91 1.396 . S
C92 C93 1.397 . S
C93 C92 1.397 . S
C93 C94 1.385 1_545 S
C94 H77 0.940 . S
C94 C93 1.385 1_565 S
C94 C95 1.388 1_565 S
C95 H74 0.923 1_545 S
C95 C90 1.391 . S
C95 C94 1.388 1_545 S
P96 O107 1.490 . S
P96 C110 1.812 . S
P96 C116 1.803 . S
P96 C122 1.819 . S
H97 C111 0.941 . S
H98 C112 0.939 . S
H99 C114 0.940 . S
H100 C115 0.940 . S
H101 C117 0.939 . S
H102 C118 0.942 . S
H103 C120 0.940 . S
H104 C121 0.939 . S
H105 C123 0.941 . S
H106 C127 0.939 . S
O107 P96 1.490 . S
H108 C124 0.939 . S
H109 C126 0.940 . S
C110 P96 1.812 . S
C110 C111 1.389 . S
C110 C115 1.391 . S
C111 H97 0.941 . S
C111 C110 1.389 . S
C111 C112 1.397 . S
C112 H98 0.939 . S
C112 C111 1.397 . S
C112 C113 1.378 . S
C113 C112 1.378 . S
C113 C114 1.378 . S
C114 H99 0.940 . S
C114 C113 1.378 . S
C114 C115 1.396 . S
C115 H100 0.940 . S
C115 C110 1.391 . S
C115 C114 1.396 . S
C116 P96 1.803 . S
C116 C117 1.378 . S
C116 C121 1.400 . S
C117 H101 0.939 . S
C117 C116 1.378 . S
C117 C118 1.361 . S
C118 H102 0.942 . S
C118 C117 1.361 . S
C118 C119 1.369 . S
C119 C118 1.369 . S
C119 C120 1.404 . S
C120 H103 0.940 . S
C120 C119 1.404 . S
C120 C121 1.389 . S
C121 H104 0.939 . S
C121 C116 1.400 . S
C121 C120 1.389 . S
C122 P96 1.819 . S
C122 C123 1.391 . S
C122 C127 1.391 . S
C123 H105 0.941 . S
C123 C122 1.391 . S
C123 C124 1.396 . S
C124 H108 0.939 . S
C124 C123 1.396 . S
C124 C125 1.397 . S
C125 C124 1.397 . S
C125 C126 1.385 . S
C126 H109 0.940 . S
C126 C125 1.385 . S
C126 C127 1.388 . S
C127 H106 0.939 . S
C127 C122 1.391 . S
C127 C126 1.388 . S
P128 O139 1.490 . S
P128 C142 1.812 . S
P128 C148 1.803 . S
P128 C154 1.819 . S
H129 C143 0.941 . S
H130 C144 0.939 . S
H131 C146 0.940 . S
H132 C147 0.940 . S
H133 C149 0.939 . S
H134 C150 0.942 . S
H135 C152 0.940 . S
H136 C153 0.939 . S
H137 C155 0.941 . S
H138 C159 0.939 . S
O139 P128 1.490 . S
H140 C156 0.939 . S
H141 C158 0.940 . S
C142 P128 1.812 . S
C142 C143 1.389 . S
C142 C147 1.391 . S
C143 H129 0.941 . S
C143 C142 1.389 . S
C143 C144 1.397 . S
C144 H130 0.939 . S
C144 C143 1.397 . S
C144 C145 1.378 . S
C145 C144 1.378 . S
C145 C146 1.378 . S
C146 H131 0.940 . S
C146 C145 1.378 . S
C146 C147 1.396 . S
C147 H132 0.940 . S
C147 C142 1.391 . S
C147 C146 1.396 . S
C148 P128 1.803 . S
C148 C149 1.378 . S
C148 C153 1.400 . S
C149 H133 0.939 . S
C149 C148 1.378 . S
C149 C150 1.361 . S
C150 H134 0.942 . S
C150 C149 1.361 . S
C150 C151 1.369 . S
C151 C150 1.369 . S
C151 C152 1.404 . S
C152 H135 0.940 . S
C152 C151 1.404 . S
C152 C153 1.389 . S
C153 H136 0.939 . S
C153 C148 1.400 . S
C153 C152 1.389 . S
C154 P128 1.819 . S
C154 C155 1.391 . S
C154 C159 1.391 . S
C155 H137 0.941 . S
C155 C154 1.391 . S
C155 C156 1.396 . S
C156 H140 0.939 . S
C156 C155 1.396 . S
C156 C157 1.397 . S
C157 C156 1.397 . S
C157 C158 1.385 . S
C158 H141 0.940 . S
C158 C157 1.385 . S
C158 C159 1.388 . S
C159 H138 0.939 . S
C159 C154 1.391 . S
C159 C158 1.388 . S
P160 O171 1.490 . S
P160 C174 1.812 . S
P160 C180 1.803 . S
P160 C186 1.819 . S
H161 C175 0.941 . S
H162 C176 0.939 . S
H163 C178 0.940 . S
H164 C179 0.940 . S
H165 C181 0.939 . S
H166 C182 0.942 . S
H167 C184 0.940 . S
H168 C185 0.939 . S
H169 C187 0.941 . S
H170 C191 0.939 . S
O171 P160 1.490 . S
H172 C188 0.939 . S
H173 C190 0.940 . S
C174 P160 1.812 . S
C174 C175 1.389 . S
C174 C179 1.391 . S
C175 H161 0.941 . S
C175 C174 1.389 . S
C175 C176 1.397 . S
C176 H162 0.939 . S
C176 C175 1.397 . S
C176 C177 1.378 . S
C177 C176 1.378 . S
C177 C178 1.378 . S
C178 H163 0.940 . S
C178 C177 1.378 . S
C178 C179 1.396 . S
C179 H164 0.940 . S
C179 C174 1.391 . S
C179 C178 1.396 . S
C180 P160 1.803 . S
C180 C181 1.378 . S
C180 C185 1.400 . S
C181 H165 0.939 . S
C181 C180 1.378 . S
C181 C182 1.361 . S
C182 H166 0.942 . S
C182 C181 1.361 . S
C182 C183 1.369 . S
C183 C182 1.369 . S
C183 C184 1.404 . S
C184 H167 0.940 . S
C184 C183 1.404 . S
C184 C185 1.389 . S
C185 H168 0.939 . S
C185 C180 1.400 . S
C185 C184 1.389 . S
C186 P160 1.819 . S
C186 C187 1.391 . S
C186 C191 1.391 . S
C187 H169 0.941 . S
C187 C186 1.391 . S
C187 C188 1.396 . S
C188 H172 0.939 . S
C188 C187 1.396 . S
C188 C189 1.397 . S
C189 C188 1.397 . S
C189 C190 1.385 . S
C190 H173 0.940 . S
C190 C189 1.385 . S
C190 C191 1.388 . S
C191 H170 0.939 . S
C191 C186 1.391 . S
C191 C190 1.388 . S
P192 O203 1.490 . S
P192 C206 1.812 . S
P192 C212 1.803 . S
P192 C218 1.819 . S
H193 C207 0.941 . S
H194 C208 0.939 . S
H195 C210 0.940 . S
H196 C211 0.942 . S
H197 C213 0.939 . S
H198 C214 0.942 . S
H199 C216 0.940 . S
H200 C217 0.955 . S
H201 C219 0.941 . S
H202 C223 0.937 1_565 S
O203 P192 1.490 . S
H204 C220 0.939 . S
H205 C222 0.940 . S
C206 P192 1.812 . S
C206 C207 1.389 . S
C206 C211 1.387 1_545 S
C207 H193 0.941 . S
C207 C206 1.389 . S
C207 C208 1.397 . S
C208 H194 0.939 . S
C208 C207 1.397 . S
C208 C209 1.378 . S
C209 C208 1.378 . S
C209 C210 1.378 1_545 S
C210 H195 0.940 . S
C210 C209 1.378 1_565 S
C210 C211 1.399 . S
C211 H196 0.942 . S
C211 C206 1.387 1_565 S
C211 C210 1.399 . S
C212 P192 1.803 . S
C212 C213 1.378 . S
C212 C217 1.381 1_545 S
C213 H197 0.939 . S
C213 C212 1.378 . S
C213 C214 1.361 . S
C214 H198 0.942 . S
C214 C213 1.361 . S
C214 C215 1.369 . S
C215 C214 1.369 . S
C215 C216 1.404 1_545 S
C216 H199 0.940 . S
C216 C215 1.404 1_565 S
C216 C217 1.392 . S
C217 H200 0.955 . S
C217 C212 1.381 1_565 S
C217 C216 1.392 . S
C218 P192 1.819 . S
C218 C219 1.391 . S
C218 C223 1.391 . S
C219 H201 0.941 . S
C219 C218 1.391 . S
C219 C220 1.396 . S
C220 H204 0.939 . S
C220 C219 1.396 . S
C220 C221 1.397 . S
C221 C220 1.397 . S
C221 C222 1.385 1_545 S
C222 H205 0.940 . S
C222 C221 1.385 1_565 S
C222 C223 1.388 1_565 S
C223 H202 0.937 1_545 S
C223 C218 1.391 . S
C223 C222 1.388 1_545 S
P224 O235 1.490 . S
P224 C238 1.812 . S
P224 C244 1.803 . S
P224 C250 1.819 . S
H225 C239 0.941 . S
H226 C240 0.939 . S
H227 C242 0.940 . S
H228 C243 0.940 . S
H229 C245 0.939 . S
H230 C246 0.942 . S
H231 C248 0.940 . S
H232 C249 0.939 . S
H233 C251 0.941 . S
H234 C255 0.939 . S
O235 P224 1.490 . S
H236 C252 0.939 . S
H237 C254 0.940 . S
C238 P224 1.812 . S
C238 C239 1.389 . S
C238 C243 1.391 . S
C239 H225 0.941 . S
C239 C238 1.389 . S
C239 C240 1.397 . S
C240 H226 0.939 . S
C240 C239 1.397 . S
C240 C241 1.378 . S
C241 C240 1.378 . S
C241 C242 1.378 . S
C242 H227 0.940 . S
C242 C241 1.378 . S
C242 C243 1.396 . S
C243 H228 0.940 . S
C243 C238 1.391 . S
C243 C242 1.396 . S
C244 P224 1.803 . S
C244 C245 1.378 . S
C244 C249 1.400 . S
C245 H229 0.939 . S
C245 C244 1.378 . S
C245 C246 1.361 . S
C246 H230 0.942 . S
C246 C245 1.361 . S
C246 C247 1.369 . S
C247 C246 1.369 . S
C247 C248 1.404 . S
C248 H231 0.940 . S
C248 C247 1.404 . S
C248 C249 1.389 . S
C249 H232 0.939 . S
C249 C244 1.400 . S
C249 C248 1.389 . S
C250 P224 1.819 . S
C250 C251 1.391 . S
C250 C255 1.391 . S
C251 H233 0.941 . S
C251 C250 1.391 . S
C251 C252 1.396 . S
C252 H236 0.939 . S
C252 C251 1.396 . S
C252 C253 1.397 . S
C253 C252 1.397 . S
C253 C254 1.385 . S
C254 H237 0.940 . S
C254 C253 1.385 . S
C254 C255 1.388 . S
C255 H234 0.939 . S
C255 C250 1.391 . S
C255 C254 1.388 . S
Nd256 C258 2.836 1_455 S
Nd256 O276 2.500 1_455 S
Nd256 O277 2.492 . S
Nd256 O278 2.487 . S
Nd256 O279 2.682 1_565 S
Nd256 O280 2.410 . S
Nd256 O285 2.430 1_455 S
Nd256 O287 2.424 1_565 S
Nd257 C267 2.836 . S
Nd257 O279 2.414 . S
Nd257 O281 2.424 1_545 S
Nd257 O282 2.500 . S
Nd257 O283 2.492 . S
Nd257 O284 2.487 1_455 S
Nd257 O285 2.678 1_445 S
Nd257 O286 2.410 . S
C258 Nd256 2.836 1_655 S
C258 C259 1.498 . S
C258 O276 1.258 . S
C258 O277 1.239 1_655 S
C259 C258 1.498 . S
C259 C260 1.366 . S
C259 C264 1.407 . S
C260 C259 1.366 . S
C260 C261 1.392 . S
C260 H288 0.930 . S
C261 C260 1.392 . S
C261 C262 1.398 . S
C261 H289 0.929 . S
C262 C261 1.398 . S
C262 C263 1.352 . S
C263 C262 1.352 . S
C263 C264 1.384 . S
C263 H290 0.930 . S
C264 C259 1.407 . S
C264 C263 1.384 . S
C264 H291 0.929 1_655 S
C265 O278 1.241 . S
C265 O279 1.273 1_565 S
C266 O280 1.251 . S
C266 O281 1.268 . S
C267 Nd257 2.836 . S
C267 C268 1.498 . S
C267 O282 1.258 . S
C267 O283 1.239 . S
C268 C267 1.498 . S
C268 C269 1.366 . S
C268 C273 1.408 1_556 S
C269 C268 1.366 . S
C269 C270 1.392 . S
C269 H292 0.930 . S
C270 C269 1.392 . S
C270 C271 1.398 1_556 S
C270 H293 0.929 . S
C271 C270 1.398 1_554 S
C271 C272 1.352 . S
C272 C271 1.352 . S
C272 C273 1.383 . S
C272 H294 0.930 . S
C273 C268 1.408 1_554 S
C273 C272 1.383 . S
C273 H295 0.929 . S
C274 O284 1.241 . S
C274 O285 1.250 1_545 S
C275 O286 1.251 . S
C275 O287 1.268 . S
O276 Nd256 2.500 1_655 S
O276 C258 1.258 . S
O277 Nd256 2.492 . S
O277 C258 1.239 1_455 S
O278 Nd256 2.487 . S
O278 C265 1.241 . S
O279 Nd256 2.682 1_545 S
O279 Nd257 2.414 . S
O279 C265 1.273 1_545 S
O280 Nd256 2.410 . S
O280 C266 1.251 . S
O281 Nd257 2.424 1_565 S
O281 C266 1.268 . S
O282 Nd257 2.500 . S
O282 C267 1.258 . S
O283 Nd257 2.492 . S
O283 C267 1.239 . S
O284 Nd257 2.487 1_655 S
O284 C274 1.241 . S
O285 Nd256 2.430 1_655 S
O285 Nd257 2.678 1_665 S
O285 C274 1.250 1_565 S
O286 Nd257 2.410 . S
O286 C275 1.251 . S
O287 Nd256 2.424 1_545 S
O287 C275 1.268 . S
H288 C260 0.930 . S
H289 C261 0.929 . S
H290 C263 0.930 . S
H291 C264 0.929 1_455 S
H292 C269 0.930 . S
H293 C270 0.929 . S
H294 C272 0.930 . S
H295 C273 0.929 . S
Nd296 C298 2.836 . S
Nd296 O316 2.500 . S
Nd296 O317 2.492 1_565 S
Nd296 O318 2.487 1_565 S
Nd296 O319 2.682 1_565 S
Nd296 O320 2.410 1_565 S
Nd296 O325 2.414 . S
Nd296 O327 2.424 . S
Nd297 C307 2.836 . S
Nd297 O319 2.414 . S
Nd297 O321 2.424 . S
Nd297 O322 2.500 . S
Nd297 O323 2.492 1_545 S
Nd297 O324 2.487 1_545 S
Nd297 O325 2.682 1_545 S
Nd297 O326 2.410 1_545 S
C298 Nd296 2.836 . S
C298 C299 1.498 . S
C298 O316 1.258 . S
C298 O317 1.230 1_565 S
C299 C298 1.498 . S
C299 C300 1.366 . S
C299 C304 1.407 . S
C300 C299 1.366 . S
C300 C301 1.392 . S
C300 H328 0.930 . S
C301 C300 1.392 . S
C301 C302 1.398 . S
C301 H329 0.929 . S
C302 C301 1.398 . S
C302 C303 1.352 . S
C303 C302 1.352 . S
C303 C304 1.384 . S
C303 H330 0.929 . S
C304 C299 1.407 . S
C304 C303 1.384 . S
C304 H331 0.929 1_565 S
C305 O318 1.241 . S
C305 O319 1.273 . S
C306 O320 1.251 . S
C306 O321 1.268 . S
C307 Nd297 2.836 . S
C307 C308 1.498 . S
C307 O322 1.258 . S
C307 O323 1.241 1_545 S
C308 C307 1.498 . S
C308 C309 1.366 . S
C308 C313 1.407 1_556 S
C309 C308 1.366 . S
C309 C310 1.392 . S
C309 H332 0.930 . S
C310 C309 1.392 . S
C310 C311 1.398 1_556 S
C310 H333 0.929 . S
C311 C310 1.398 1_554 S
C311 C312 1.352 . S
C312 C311 1.352 . S
C312 C313 1.384 . S
C312 H334 0.934 . S
C313 C308 1.407 1_554 S
C313 C312 1.384 . S
C313 H335 0.929 1_545 S
C314 O324 1.241 . S
C314 O325 1.273 . S
C315 O326 1.251 . S
C315 O327 1.268 . S
O316 Nd296 2.500 . S
O316 C298 1.258 . S
O317 Nd296 2.492 1_545 S
O317 C298 1.230 1_545 S
O318 Nd296 2.487 1_545 S
O318 C305 1.241 . S
O319 Nd296 2.682 1_545 S
O319 Nd297 2.414 . S
O319 C305 1.273 . S
O320 Nd296 2.410 1_545 S
O320 C306 1.251 . S
O321 Nd297 2.424 . S
O321 C306 1.268 . S
O322 Nd297 2.500 . S
O322 C307 1.258 . S
O323 Nd297 2.492 1_565 S
O323 C307 1.241 1_565 S
O324 Nd297 2.487 1_565 S
O324 C314 1.241 . S
O325 Nd296 2.414 . S
O325 Nd297 2.682 1_565 S
O325 C314 1.273 . S
O326 Nd297 2.410 1_565 S
O326 C315 1.251 . S
O327 Nd296 2.424 . S
O327 C315 1.268 . S
H328 C300 0.930 . S
H329 C301 0.929 . S
H330 C303 0.929 . S
H331 C304 0.929 1_545 S
H332 C309 0.930 . S
H333 C310 0.929 . S
H334 C312 0.934 . S
H335 C313 0.929 1_565 S
Nd336 C338 2.836 . S
Nd336 O356 2.500 . S
Nd336 O357 2.492 . S
Nd336 O358 2.487 . S
Nd336 O359 2.682 . S
Nd336 O360 2.410 . S
Nd336 O365 2.414 . S
Nd336 O367 2.424 . S
Nd337 C347 2.836 . S
Nd337 O359 2.414 . S
Nd337 O361 2.424 . S
Nd337 O362 2.500 . S
Nd337 O363 2.492 . S
Nd337 O364 2.487 . S
Nd337 O365 2.682 . S
Nd337 O366 2.410 . S
C338 Nd336 2.836 . S
C338 C339 1.498 . S
C338 O356 1.258 . S
C338 O357 1.239 . S
C339 C338 1.498 . S
C339 C340 1.366 . S
C339 C344 1.407 . S
C340 C339 1.366 . S
C340 C341 1.392 . S
C340 H368 0.930 . S
C341 C340 1.392 . S
C341 C342 1.398 . S
C341 H369 0.929 . S
C342 C341 1.398 . S
C342 C343 1.352 . S
C343 C342 1.352 . S
C343 C344 1.384 . S
C343 H370 0.930 . S
C344 C339 1.407 . S
C344 C343 1.384 . S
C344 H371 0.929 . S
C345 O358 1.241 . S
C345 O359 1.273 . S
C346 O360 1.251 . S
C346 O361 1.268 . S
C347 Nd337 2.836 . S
C347 C348 1.498 . S
C347 O362 1.258 . S
C347 O363 1.239 . S
C348 C347 1.498 . S
C348 C349 1.366 . S
C348 C353 1.407 . S
C349 C348 1.366 . S
C349 C350 1.392 . S
C349 H372 0.930 . S
C350 C349 1.392 . S
C350 C351 1.398 . S
C350 H373 0.929 . S
C351 C350 1.398 . S
C351 C352 1.352 . S
C352 C351 1.352 . S
C352 C353 1.384 . S
C352 H374 0.930 . S
C353 C348 1.407 . S
C353 C352 1.384 . S
C353 H375 0.929 . S
C354 O364 1.241 . S
C354 O365 1.273 . S
C355 O366 1.251 . S
C355 O367 1.268 . S
O356 Nd336 2.500 . S
O356 C338 1.258 . S
O357 Nd336 2.492 . S
O357 C338 1.239 . S
O358 Nd336 2.487 . S
O358 C345 1.241 . S
O359 Nd336 2.682 . S
O359 Nd337 2.414 . S
O359 C345 1.273 . S
O360 Nd336 2.410 . S
O360 C346 1.251 . S
O361 Nd337 2.424 . S
O361 C346 1.268 . S
O362 Nd337 2.500 . S
O362 C347 1.258 . S
O363 Nd337 2.492 . S
O363 C347 1.239 . S
O364 Nd337 2.487 . S
O364 C354 1.241 . S
O365 Nd336 2.414 . S
O365 Nd337 2.682 . S
O365 C354 1.273 . S
O366 Nd337 2.410 . S
O366 C355 1.251 . S
O367 Nd336 2.424 . S
O367 C355 1.268 . S
H368 C340 0.930 . S
H369 C341 0.929 . S
H370 C343 0.930 . S
H371 C344 0.929 . S
H372 C349 0.930 . S
H373 C350 0.929 . S
H374 C352 0.930 . S
H375 C353 0.929 . S
Nd376 C378 2.836 1_455 S
Nd376 O396 2.500 1_455 S
Nd376 O397 2.492 1_455 S
Nd376 O398 2.487 . S
Nd376 O399 2.682 . S
Nd376 O400 2.410 1_455 S
Nd376 O405 2.414 . S
Nd376 O407 2.424 . S
Nd377 C387 2.836 . S
Nd377 O399 2.414 . S
Nd377 O401 2.424 1_455 S
Nd377 O402 2.500 . S
Nd377 O403 2.492 . S
Nd377 O404 2.487 . S
Nd377 O405 2.682 . S
Nd377 O406 2.410 . S
C378 Nd376 2.836 1_655 S
C378 C379 1.498 . S
C378 O396 1.258 . S
C378 O397 1.239 . S
C379 C378 1.498 . S
C379 C380 1.366 . S
C379 C384 1.407 . S
C380 C379 1.366 . S
C380 C381 1.392 . S
C380 H408 0.930 . S
C381 C380 1.392 . S
C381 C382 1.398 . S
C381 H409 0.929 . S
C382 C381 1.398 . S
C382 C383 1.352 . S
C383 C382 1.352 . S
C383 C384 1.384 . S
C383 H410 0.930 . S
C384 C379 1.407 . S
C384 C383 1.384 . S
C384 H411 0.929 . S
C385 O398 1.241 . S
C385 O399 1.273 . S
C386 O400 1.251 . S
C386 O401 1.268 . S
C387 Nd377 2.836 . S
C387 C388 1.498 . S
C387 O402 1.258 . S
C387 O403 1.239 . S
C388 C387 1.498 . S
C388 C389 1.366 . S
C388 C393 1.407 1_556 S
C389 C388 1.366 . S
C389 C390 1.392 . S
C389 H412 0.930 . S
C390 C389 1.392 . S
C390 C391 1.398 1_556 S
C390 H413 0.929 . S
C391 C390 1.398 1_554 S
C391 C392 1.352 . S
C392 C391 1.352 . S
C392 C393 1.384 . S
C392 H414 0.930 . S
C393 C388 1.407 1_554 S
C393 C392 1.384 . S
C393 H415 0.929 . S
C394 O404 1.241 . S
C394 O405 1.273 . S
C395 O406 1.251 . S
C395 O407 1.268 . S
O396 Nd376 2.500 1_655 S
O396 C378 1.258 . S
O397 Nd376 2.492 1_655 S
O397 C378 1.239 . S
O398 Nd376 2.487 . S
O398 C385 1.241 . S
O399 Nd376 2.682 . S
O399 Nd377 2.414 . S
O399 C385 1.273 . S
O400 Nd376 2.410 1_655 S
O400 C386 1.251 . S
O401 Nd377 2.424 1_655 S
O401 C386 1.268 . S
O402 Nd377 2.500 . S
O402 C387 1.258 . S
O403 Nd377 2.492 . S
O403 C387 1.239 . S
O404 Nd377 2.487 . S
O404 C394 1.241 . S
O405 Nd376 2.414 . S
O405 Nd377 2.682 . S
O405 C394 1.273 . S
O406 Nd377 2.410 . S
O406 C395 1.251 . S
O407 Nd376 2.424 . S
O407 C395 1.268 . S
H408 C380 0.930 . S
H409 C381 0.929 . S
H410 C383 0.930 . S
H411 C384 0.929 . S
H412 C389 0.930 . S
H413 C390 0.929 . S
H414 C392 0.930 . S
H415 C393 0.929 . S
H416 C434 0.951 . S
H417 C436 0.951 . S
H418 C438 0.950 . S
H419 C439 0.950 . S
H420 C441 0.950 . S
H421 C444 0.950 . S
H422 C445 0.950 . S
H423 C447 0.950 . S
H424 C448 0.950 . S
H425 C449 0.951 . S
H426 C451 0.951 . S
H427 C453 0.956 . S
H428 C454 0.952 . S
H429 C456 0.950 . S
H430 C459 0.950 . S
H431 C460 0.950 . S
H432 C462 0.950 . S
H433 C463 0.950 . S
C434 H416 0.951 . S
C434 C435 1.366 . S
C434 C436 1.388 . S
C435 C434 1.366 . S
C435 C439 1.385 1_545 S
C436 H417 0.951 . S
C436 C434 1.388 . S
C436 C437 1.366 1_545 S
C437 C436 1.366 1_565 S
C437 C438 1.414 . S
C437 C440 1.499 . S
C438 H418 0.950 . S
C438 C437 1.414 . S
C438 C439 1.374 . S
C439 H419 0.950 . S
C439 C435 1.385 1_565 S
C439 C438 1.374 . S
C440 C437 1.499 . S
C440 C441 1.373 1_565 S
C440 C442 1.389 . S
C441 H420 0.950 . S
C441 C440 1.373 1_545 S
C441 C457 1.377 . S
C442 C440 1.389 . S
C442 C443 1.524 . S
C442 C456 1.377 . S
C443 C442 1.524 . S
C443 C444 1.397 . S
C443 C448 1.363 . S
C444 H421 0.950 . S
C444 C443 1.397 . S
C444 C445 1.334 . S
C445 H422 0.950 . S
C445 C444 1.334 . S
C445 C446 1.287 . S
C446 C445 1.287 . S
C446 C447 1.524 . S
C446 H465 0.913 . S
C447 H423 0.950 . S
C447 C446 1.524 . S
C447 C448 1.415 . S
C448 H424 0.950 . S
C448 C443 1.363 . S
C448 C447 1.415 . S
C449 H425 0.951 . S
C449 C450 1.366 . S
C449 C451 1.388 . S
C450 C449 1.366 . S
C450 C454 1.384 1_565 S
C451 H426 0.951 . S
C451 C449 1.388 . S
C451 C452 1.366 . S
C452 C451 1.366 . S
C452 C453 1.401 1_565 S
C452 C455 1.492 . S
C453 H427 0.956 . S
C453 C452 1.401 1_545 S
C453 C454 1.383 . S
C454 H428 0.952 . S
C454 C450 1.384 1_545 S
C454 C453 1.383 . S
C455 C452 1.492 . S
C455 C456 1.397 . S
C455 C457 1.376 1_565 S
C456 H429 0.950 . S
C456 C442 1.377 . S
C456 C455 1.397 . S
C457 C441 1.377 . S
C457 C455 1.376 1_545 S
C457 C458 1.524 . S
C458 C457 1.524 . S
C458 C459 1.397 . S
C458 C463 1.363 . S
C459 H430 0.950 . S
C459 C458 1.397 . S
C459 C460 1.334 . S
C460 H431 0.950 . S
C460 C459 1.334 . S
C460 C461 1.287 . S
C461 C460 1.287 . S
C461 C462 1.524 . S
C461 H464 0.999 . S
C462 H432 0.950 . S
C462 C461 1.524 . S
C462 C463 1.415 . S
C463 H433 0.950 . S
C463 C458 1.363 . S
C463 C462 1.415 . S
H464 C461 0.999 . S
H465 C446 0.913 . S
H466 C484 0.951 . S
H467 C486 0.951 . S
H468 C488 0.950 . S
H469 C489 0.950 . S
H470 C491 0.950 . S
H471 C494 0.950 . S
H472 C495 0.950 . S
H473 C497 0.950 . S
H474 C498 0.950 . S
H475 C499 0.951 . S
H476 C501 0.951 . S
H477 C503 0.950 . S
H478 C504 0.950 . S
H479 C506 0.950 . S
H480 C509 0.950 . S
H481 C510 0.950 . S
H482 C512 0.950 . S
H483 C513 0.950 . S
C484 H466 0.951 . S
C484 C485 1.366 . S
C484 C486 1.388 . S
C485 C484 1.366 . S
C485 C489 1.385 . S
C486 H467 0.951 . S
C486 C484 1.388 . S
C486 C487 1.366 . S
C487 C486 1.366 . S
C487 C488 1.414 . S
C487 C490 1.499 . S
C488 H468 0.950 . S
C488 C487 1.414 . S
C488 C489 1.374 . S
C489 H469 0.950 . S
C489 C485 1.385 . S
C489 C488 1.374 . S
C490 C487 1.499 . S
C490 C491 1.373 . S
C490 C492 1.389 . S
C491 H470 0.950 . S
C491 C490 1.373 . S
C491 C507 1.377 . S
C492 C490 1.389 . S
C492 C493 1.524 . S
C492 C506 1.377 . S
C493 C492 1.524 . S
C493 C494 1.397 . S
C493 C498 1.363 . S
C494 H471 0.950 . S
C494 C493 1.397 . S
C494 C495 1.334 . S
C495 H472 0.950 . S
C495 C494 1.334 . S
C495 C496 1.287 . S
C496 C495 1.287 . S
C496 C497 1.524 . S
C496 H515 0.913 . S
C497 H473 0.950 . S
C497 C496 1.524 . S
C497 C498 1.415 . S
C498 H474 0.950 . S
C498 C493 1.363 . S
C498 C497 1.415 . S
C499 H475 0.951 . S
C499 C500 1.366 . S
C499 C501 1.388 . S
C500 C499 1.366 . S
C500 C504 1.385 . S
C501 H476 0.951 . S
C501 C499 1.388 . S
C501 C502 1.366 . S
C502 C501 1.366 . S
C502 C503 1.414 . S
C502 C505 1.499 . S
C503 H477 0.950 . S
C503 C502 1.414 . S
C503 C504 1.374 . S
C504 H478 0.950 . S
C504 C500 1.385 . S
C504 C503 1.374 . S
C505 C502 1.499 . S
C505 C506 1.373 . S
C505 C507 1.389 . S
C506 H479 0.950 . S
C506 C492 1.377 . S
C506 C505 1.373 . S
C507 C491 1.377 . S
C507 C505 1.389 . S
C507 C508 1.524 . S
C508 C507 1.524 . S
C508 C509 1.397 . S
C508 C513 1.363 . S
C509 H480 0.950 . S
C509 C508 1.397 . S
C509 C510 1.334 . S
C510 H481 0.950 . S
C510 C509 1.334 . S
C510 C511 1.287 . S
C511 C510 1.287 . S
C511 C512 1.524 . S
C511 H514 0.999 . S
C512 H482 0.950 . S
C512 C511 1.524 . S
C512 C513 1.415 . S
C513 H483 0.950 . S
C513 C508 1.363 . S
C513 C512 1.415 . S
H514 C511 0.999 . S
H515 C496 0.913 . S
H516 C534 0.951 . S
H517 C536 0.951 . S
H518 C538 0.950 . S
H519 C539 0.950 . S
H520 C541 0.950 . S
H521 C544 0.950 . S
H522 C545 0.950 . S
H523 C547 0.950 . S
H524 C548 0.950 . S
H525 C549 0.951 . S
H526 C551 0.951 . S
H527 C553 0.950 . S
H528 C554 0.950 . S
H529 C556 0.950 . S
H530 C559 0.950 . S
H531 C560 0.950 . S
H532 C562 0.950 . S
H533 C563 0.950 . S
C534 H516 0.951 . S
C534 C535 1.366 . S
C534 C536 1.388 . S
C535 C534 1.366 . S
C535 C539 1.385 . S
C536 H517 0.951 . S
C536 C534 1.388 . S
C536 C537 1.366 . S
C537 C536 1.366 . S
C537 C538 1.414 . S
C537 C540 1.499 . S
C538 H518 0.950 . S
C538 C537 1.414 . S
C538 C539 1.374 . S
C539 H519 0.950 . S
C539 C535 1.385 . S
C539 C538 1.374 . S
C540 C537 1.499 . S
C540 C541 1.373 . S
C540 C542 1.389 . S
C541 H520 0.950 . S
C541 C540 1.373 . S
C541 C557 1.377 . S
C542 C540 1.389 . S
C542 C543 1.524 . S
C542 C556 1.377 . S
C543 C542 1.524 . S
C543 C544 1.397 . S
C543 C548 1.363 . S
C544 H521 0.950 . S
C544 C543 1.397 . S
C544 C545 1.334 . S
C545 H522 0.950 . S
C545 C544 1.334 . S
C545 C546 1.287 . S
C546 C545 1.287 . S
C546 C547 1.524 . S
C546 H565 0.913 . S
C547 H523 0.950 . S
C547 C546 1.524 . S
C547 C548 1.415 . S
C548 H524 0.950 . S
C548 C543 1.363 . S
C548 C547 1.415 . S
C549 H525 0.951 . S
C549 C550 1.366 . S
C549 C551 1.388 . S
C550 C549 1.366 . S
C550 C554 1.385 . S
C551 H526 0.951 . S
C551 C549 1.388 . S
C551 C552 1.366 . S
C552 C551 1.366 . S
C552 C553 1.414 . S
C552 C555 1.499 . S
C553 H527 0.950 . S
C553 C552 1.414 . S
C553 C554 1.374 . S
C554 H528 0.950 . S
C554 C550 1.385 . S
C554 C553 1.374 . S
C555 C552 1.499 . S
C555 C556 1.373 . S
C555 C557 1.389 . S
C556 H529 0.950 . S
C556 C542 1.377 . S
C556 C555 1.373 . S
C557 C541 1.377 . S
C557 C555 1.389 . S
C557 C558 1.524 . S
C558 C557 1.524 . S
C558 C559 1.397 . S
C558 C563 1.363 . S
C559 H530 0.950 . S
C559 C558 1.397 . S
C559 C560 1.334 . S
C560 H531 0.950 . S
C560 C559 1.334 . S
C560 C561 1.287 . S
C561 C560 1.287 . S
C561 C562 1.524 . S
C561 H564 0.999 . S
C562 H532 0.950 . S
C562 C561 1.524 . S
C562 C563 1.415 . S
C563 H533 0.950 . S
C563 C558 1.363 . S
C563 C562 1.415 . S
H564 C561 0.999 . S
H565 C546 0.913 . S
H566 C584 0.951 . S
H567 C586 0.951 . S
H568 C588 0.950 . S
H569 C589 0.950 . S
H570 C591 0.950 . S
H571 C594 0.950 . S
H572 C595 0.950 . S
H573 C597 0.950 . S
H574 C598 0.950 . S
H575 C599 0.951 . S
H576 C601 0.951 . S
H577 C603 0.950 . S
H578 C604 0.950 . S
H579 C606 0.950 . S
H580 C609 0.950 . S
H581 C610 0.950 . S
H582 C612 0.950 . S
H583 C613 0.950 . S
C584 H566 0.951 . S
C584 C585 1.366 . S
C584 C586 1.388 . S
C585 C584 1.366 . S
C585 C589 1.385 . S
C586 H567 0.951 . S
C586 C584 1.388 . S
C586 C587 1.366 . S
C587 C586 1.366 . S
C587 C588 1.414 . S
C587 C590 1.499 . S
C588 H568 0.950 . S
C588 C587 1.414 . S
C588 C589 1.374 . S
C589 H569 0.950 . S
C589 C585 1.385 . S
C589 C588 1.374 . S
C590 C587 1.499 . S
C590 C591 1.373 . S
C590 C592 1.389 . S
C591 H570 0.950 . S
C591 C590 1.373 . S
C591 C607 1.377 . S
C592 C590 1.389 . S
C592 C593 1.524 . S
C592 C606 1.377 . S
C593 C592 1.524 . S
C593 C594 1.397 . S
C593 C598 1.363 . S
C594 H571 0.950 . S
C594 C593 1.397 . S
C594 C595 1.334 . S
C595 H572 0.950 . S
C595 C594 1.334 . S
C595 C596 1.287 . S
C596 C595 1.287 . S
C596 C597 1.524 . S
C596 H615 0.913 . S
C597 H573 0.950 . S
C597 C596 1.524 . S
C597 C598 1.415 . S
C598 H574 0.950 . S
C598 C593 1.363 . S
C598 C597 1.415 . S
C599 H575 0.951 . S
C599 C600 1.366 . S
C599 C601 1.388 . S
C600 C599 1.366 . S
C600 C604 1.385 . S
C601 H576 0.951 . S
C601 C599 1.388 . S
C601 C602 1.366 . S
C602 C601 1.366 . S
C602 C603 1.414 . S
C602 C605 1.499 . S
C603 H577 0.950 . S
C603 C602 1.414 . S
C603 C604 1.374 . S
C604 H578 0.950 . S
C604 C600 1.385 . S
C604 C603 1.374 . S
C605 C602 1.499 . S
C605 C606 1.373 . S
C605 C607 1.389 . S
C606 H579 0.950 . S
C606 C592 1.377 . S
C606 C605 1.373 . S
C607 C591 1.377 . S
C607 C605 1.389 . S
C607 C608 1.524 . S
C608 C607 1.524 . S
C608 C609 1.397 . S
C608 C613 1.363 . S
C609 H580 0.950 . S
C609 C608 1.397 . S
C609 C610 1.334 . S
C610 H581 0.950 . S
C610 C609 1.334 . S
C610 C611 1.287 . S
C611 C610 1.287 . S
C611 C612 1.524 . S
C611 H614 0.999 . S
C612 H582 0.950 . S
C612 C611 1.524 . S
C612 C613 1.415 . S
C613 H583 0.950 . S
C613 C608 1.363 . S
C613 C612 1.415 . S
H614 C611 0.999 . S
H615 C596 0.913 . S
H616 C634 0.951 1_554 S
H617 C636 0.952 . S
H618 C638 0.950 . S
H619 C639 0.950 . S
H620 C641 0.950 . S
H621 C644 0.950 . S
H622 C645 0.950 . S
H623 C647 0.950 . S
H624 C648 0.950 . S
H625 C649 0.951 . S
H626 C651 0.951 . S
H627 C653 0.950 . S
H628 C654 0.949 1_565 S
H629 C656 0.950 . S
H630 C659 0.950 . S
H631 C660 0.950 . S
H632 C662 0.950 . S
H633 C663 0.950 . S
C634 H616 0.951 1_556 S
C634 C635 1.366 1_565 S
C634 C636 1.388 . S
C635 C634 1.366 1_545 S
C635 C639 1.385 . S
C636 H617 0.952 . S
C636 C634 1.388 . S
C636 C637 1.366 1_565 S
C637 C636 1.366 1_545 S
C637 C638 1.414 . S
C637 C640 1.499 . S
C638 H618 0.950 . S
C638 C637 1.414 . S
C638 C639 1.374 . S
C639 H619 0.950 . S
C639 C635 1.385 . S
C639 C638 1.374 . S
C640 C637 1.499 . S
C640 C641 1.373 1_545 S
C640 C642 1.389 . S
C641 H620 0.950 . S
C641 C640 1.373 1_565 S
C641 C657 1.377 . S
C642 C640 1.389 . S
C642 C643 1.524 . S
C642 C656 1.377 . S
C643 C642 1.524 . S
C643 C644 1.397 . S
C643 C648 1.363 1_556 S
C644 H621 0.950 . S
C644 C643 1.397 . S
C644 C645 1.334 . S
C645 H622 0.950 . S
C645 C644 1.334 . S
C645 C646 1.287 1_556 S
C646 C645 1.287 1_554 S
C646 C647 1.524 . S
C646 H665 0.913 . S
C647 H623 0.950 . S
C647 C646 1.524 . S
C647 C648 1.415 . S
C648 H624 0.950 . S
C648 C643 1.363 1_554 S
C648 C647 1.415 . S
C649 H625 0.951 . S
C649 C650 1.366 . S
C649 C651 1.388 . S
C650 C649 1.366 . S
C650 C654 1.384 . S
C651 H626 0.951 . S
C651 C649 1.388 . S
C651 C652 1.366 . S
C652 C651 1.366 . S
C652 C653 1.410 1_545 S
C652 C655 1.489 . S
C653 H627 0.950 . S
C653 C652 1.410 1_565 S
C653 C654 1.380 1_565 S
C654 H628 0.949 1_545 S
C654 C650 1.384 . S
C654 C653 1.380 1_545 S
C655 C652 1.489 . S
C655 C656 1.411 . S
C655 C657 1.367 1_545 S
C656 H629 0.950 . S
C656 C642 1.377 . S
C656 C655 1.411 . S
C657 C641 1.377 . S
C657 C655 1.367 1_565 S
C657 C658 1.524 . S
C658 C657 1.524 . S
C658 C659 1.397 . S
C658 C663 1.363 . S
C659 H630 0.950 . S
C659 C658 1.397 . S
C659 C660 1.334 . S
C660 H631 0.950 . S
C660 C659 1.334 . S
C660 C661 1.287 . S
C661 C660 1.287 . S
C661 C662 1.524 . S
C661 H664 0.999 . S
C662 H632 0.950 . S
C662 C661 1.524 . S
C662 C663 1.415 . S
C663 H633 0.950 . S
C663 C658 1.363 . S
C663 C662 1.415 . S
H664 C661 0.999 . S
H665 C646 0.913 . S
H666 C684 0.951 . S
H667 C686 0.951 . S
H668 C688 0.950 . S
H669 C689 0.950 . S
H670 C691 0.950 . S
H671 C694 0.950 . S
H672 C695 0.950 . S
H673 C697 0.950 . S
H674 C698 0.950 . S
H675 C699 0.951 . S
H676 C701 0.951 . S
H677 C703 0.950 1_554 S
H678 C704 0.950 . S
H679 C706 0.950 . S
H680 C709 0.950 . S
H681 C710 0.950 . S
H682 C712 0.950 1_556 S
H683 C713 0.950 . S
C684 H666 0.951 . S
C684 C685 1.366 . S
C684 C686 1.388 . S
C685 C684 1.366 . S
C685 C689 1.385 . S
C686 H667 0.951 . S
C686 C684 1.388 . S
C686 C687 1.366 . S
C687 C686 1.366 . S
C687 C688 1.414 . S
C687 C690 1.499 . S
C688 H668 0.950 . S
C688 C687 1.414 . S
C688 C689 1.374 . S
C689 H669 0.950 . S
C689 C685 1.385 . S
C689 C688 1.374 . S
C690 C687 1.499 . S
C690 C691 1.373 . S
C690 C692 1.389 . S
C691 H670 0.950 . S
C691 C690 1.373 . S
C691 C707 1.377 . S
C692 C690 1.389 . S
C692 C693 1.524 . S
C692 C706 1.377 . S
C693 C692 1.524 . S
C693 C694 1.397 . S
C693 C698 1.363 . S
C694 H671 0.950 . S
C694 C693 1.397 . S
C694 C695 1.334 . S
C695 H672 0.950 . S
C695 C694 1.334 . S
C695 C696 1.287 . S
C696 C695 1.287 . S
C696 C697 1.524 . S
C696 H715 0.913 . S
C697 H673 0.950 . S
C697 C696 1.524 . S
C697 C698 1.415 . S
C698 H674 0.950 . S
C698 C693 1.363 . S
C698 C697 1.415 . S
C699 H675 0.951 . S
C699 C700 1.366 . S
C699 C701 1.388 . S
C700 C699 1.366 . S
C700 C704 1.385 . S
C701 H676 0.951 . S
C701 C699 1.388 . S
C701 C702 1.366 . S
C702 C701 1.366 . S
C702 C703 1.414 . S
C702 C705 1.499 1_556 S
C703 H677 0.950 1_556 S
C703 C702 1.414 . S
C703 C704 1.374 . S
C704 H678 0.950 . S
C704 C700 1.385 . S
C704 C703 1.374 . S
C705 C702 1.499 1_554 S
C705 C706 1.373 . S
C705 C707 1.389 . S
C706 H679 0.950 . S
C706 C692 1.377 . S
C706 C705 1.373 . S
C707 C691 1.377 . S
C707 C705 1.389 . S
C707 C708 1.524 . S
C708 C707 1.524 . S
C708 C709 1.397 . S
C708 C713 1.363 . S
C709 H680 0.950 . S
C709 C708 1.397 . S
C709 C710 1.334 . S
C710 H681 0.950 . S
C710 C709 1.334 . S
C710 C711 1.287 . S
C711 C710 1.287 . S
C711 C712 1.524 . S
C711 H714 1.010 . S
C712 H682 0.950 1_554 S
C712 C711 1.524 . S
C712 C713 1.415 . S
C713 H683 0.950 . S
C713 C708 1.363 . S
C713 C712 1.415 . S
H714 C711 1.010 . S
H715 C696 0.913 . S
H716 C734 0.951 . S
H717 C736 0.951 . S
H718 C738 0.950 . S
H719 C739 0.950 . S
H720 C741 0.950 . S
H721 C744 0.950 . S
H722 C745 0.950 . S
H723 C747 0.950 . S
H724 C748 0.950 1_556 S
H725 C749 0.951 . S
H726 C751 0.951 . S
H727 C753 0.950 . S
H728 C754 0.950 . S
H729 C756 0.950 . S
H730 C759 0.950 . S
H731 C760 0.950 . S
H732 C762 0.950 . S
H733 C763 0.950 . S
C734 H716 0.951 . S
C734 C735 1.366 . S
C734 C736 1.388 . S
C735 C734 1.366 . S
C735 C739 1.385 . S
C736 H717 0.951 . S
C736 C734 1.388 . S
C736 C737 1.366 . S
C737 C736 1.366 . S
C737 C738 1.414 . S
C737 C740 1.499 . S
C738 H718 0.950 . S
C738 C737 1.414 . S
C738 C739 1.374 . S
C739 H719 0.950 . S
C739 C735 1.385 . S
C739 C738 1.374 . S
C740 C737 1.499 . S
C740 C741 1.373 . S
C740 C742 1.389 . S
C741 H720 0.950 . S
C741 C740 1.373 . S
C741 C757 1.377 . S
C742 C740 1.389 . S
C742 C743 1.524 1_556 S
C742 C756 1.377 . S
C743 C742 1.524 1_554 S
C743 C744 1.397 . S
C743 C748 1.363 . S
C744 H721 0.950 . S
C744 C743 1.397 . S
C744 C745 1.334 . S
C745 H722 0.950 . S
C745 C744 1.334 . S
C745 C746 1.287 . S
C746 C745 1.287 . S
C746 C747 1.524 . S
C746 H765 0.913 . S
C747 H723 0.950 . S
C747 C746 1.524 . S
C747 C748 1.415 . S
C748 H724 0.950 1_554 S
C748 C743 1.363 . S
C748 C747 1.415 . S
C749 H725 0.951 . S
C749 C750 1.366 . S
C749 C751 1.388 . S
C750 C749 1.366 . S
C750 C754 1.385 . S
C751 H726 0.951 . S
C751 C749 1.388 . S
C751 C752 1.366 . S
C752 C751 1.366 . S
C752 C753 1.414 . S
C752 C755 1.499 . S
C753 H727 0.950 . S
C753 C752 1.414 . S
C753 C754 1.374 . S
C754 H728 0.950 . S
C754 C750 1.385 . S
C754 C753 1.374 . S
C755 C752 1.499 . S
C755 C756 1.373 . S
C755 C757 1.389 . S
C756 H729 0.950 . S
C756 C742 1.377 . S
C756 C755 1.373 . S
C757 C741 1.377 . S
C757 C755 1.389 . S
C757 C758 1.524 . S
C758 C757 1.524 . S
C758 C759 1.397 . S
C758 C763 1.363 . S
C759 H730 0.950 . S
C759 C758 1.397 . S
C759 C760 1.334 . S
C760 H731 0.950 . S
C760 C759 1.334 . S
C760 C761 1.287 . S
C761 C760 1.287 . S
C761 C762 1.524 . S
C761 H764 0.999 . S
C762 H732 0.950 . S
C762 C761 1.524 . S
C762 C763 1.415 . S
C763 H733 0.950 . S
C763 C758 1.363 . S
C763 C762 1.415 . S
H764 C761 0.999 . S
H765 C746 0.913 . S
H766 C784 0.951 . S
H767 C786 0.951 . S
H768 C788 0.950 . S
H769 C789 0.950 1_554 S
H770 C791 0.950 . S
H771 C794 0.950 . S
H772 C795 0.950 . S
H773 C797 0.950 . S
H774 C798 0.969 . S
H775 C799 0.951 1_455 S
H776 C801 0.951 . S
H777 C803 0.950 . S
H778 C804 0.950 . S
H779 C806 0.950 . S
H780 C809 0.950 . S
H781 C810 0.950 . S
H782 C812 0.930 1_455 S
H783 C813 0.950 . S
C784 H766 0.951 . S
C784 C785 1.366 . S
C784 C786 1.388 . S
C785 C784 1.366 . S
C785 C789 1.385 . S
C786 H767 0.951 . S
C786 C784 1.388 . S
C786 C787 1.366 . S
C787 C786 1.366 . S
C787 C788 1.414 . S
C787 C790 1.499 . S
C788 H768 0.950 . S
C788 C787 1.414 . S
C788 C789 1.374 . S
C789 H769 0.950 1_556 S
C789 C785 1.385 . S
C789 C788 1.374 . S
C790 C787 1.499 . S
C790 C791 1.373 . S
C790 C792 1.389 . S
C791 H770 0.950 . S
C791 C790 1.373 . S
C791 C807 1.377 . S
C792 C790 1.389 . S
C792 C793 1.524 1_556 S
C792 C806 1.377 . S
C793 C792 1.524 1_554 S
C793 C794 1.397 . S
C793 C798 1.359 1_554 S
C794 H771 0.950 . S
C794 C793 1.397 . S
C794 C795 1.334 . S
C795 H772 0.950 . S
C795 C794 1.334 . S
C795 C796 1.287 . S
C796 C795 1.287 . S
C796 C797 1.524 . S
C796 H815 0.913 . S
C797 H773 0.950 . S
C797 C796 1.524 . S
C797 C798 1.401 1_554 S
C798 H774 0.969 . S
C798 C793 1.359 1_556 S
C798 C797 1.401 1_556 S
C799 H775 0.951 1_655 S
C799 C800 1.366 . S
C799 C801 1.388 . S
C800 C799 1.366 . S
C800 C804 1.385 . S
C801 H776 0.951 . S
C801 C799 1.388 . S
C801 C802 1.366 . S
C802 C801 1.366 . S
C802 C803 1.414 . S
C802 C805 1.499 . S
C803 H777 0.950 . S
C803 C802 1.414 . S
C803 C804 1.374 . S
C804 H778 0.950 . S
C804 C800 1.385 . S
C804 C803 1.374 . S
C805 C802 1.499 . S
C805 C806 1.373 . S
C805 C807 1.389 . S
C806 H779 0.950 . S
C806 C792 1.377 . S
C806 C805 1.373 . S
C807 C791 1.377 . S
C807 C805 1.389 . S
C807 C808 1.524 . S
C808 C807 1.524 . S
C808 C809 1.397 . S
C808 C813 1.363 . S
C809 H780 0.950 . S
C809 C808 1.397 . S
C809 C810 1.334 . S
C810 H781 0.950 . S
C810 C809 1.334 . S
C810 C811 1.287 . S
C811 C810 1.287 . S
C811 C812 1.529 . S
C811 H814 0.999 1_655 S
C812 H782 0.930 1_655 S
C812 C811 1.529 . S
C812 C813 1.433 . S
C813 H783 0.950 . S
C813 C808 1.363 . S
C813 C812 1.433 . S
H814 C811 0.999 1_455 S
H815 C796 0.913 . S
H816 C834 0.951 . S
H817 C836 0.951 . S
H818 C838 0.950 . S
H819 C839 0.950 . S
H820 C841 0.950 . S
H821 C844 0.950 . S
H822 C845 0.950 . S
H823 C847 0.950 . S
H824 C848 0.950 . S
H825 C849 0.951 . S
H826 C851 0.951 . S
H827 C853 0.950 . S
H828 C854 0.950 . S
H829 C856 0.950 . S
H830 C859 0.950 . S
H831 C860 0.950 . S
H832 C862 0.950 . S
H833 C863 0.950 . S
C834 H816 0.951 . S
C834 C835 1.366 . S
C834 C836 1.388 . S
C835 C834 1.366 . S
C835 C839 1.385 . S
C836 H817 0.951 . S
C836 C834 1.388 . S
C836 C837 1.366 . S
C837 C836 1.366 . S
C837 C838 1.414 . S
C837 C840 1.499 . S
C838 H818 0.950 . S
C838 C837 1.414 . S
C838 C839 1.374 . S
C839 H819 0.950 . S
C839 C835 1.385 . S
C839 C838 1.374 . S
C840 C837 1.499 . S
C840 C841 1.373 . S
C840 C842 1.389 . S
C841 H820 0.950 . S
C841 C840 1.373 . S
C841 C857 1.377 . S
C842 C840 1.389 . S
C842 C843 1.524 . S
C842 C856 1.377 . S
C843 C842 1.524 . S
C843 C844 1.397 . S
C843 C848 1.363 . S
C844 H821 0.950 . S
C844 C843 1.397 . S
C844 C845 1.334 . S
C845 H822 0.950 . S
C845 C844 1.334 . S
C845 C846 1.287 . S
C846 C845 1.287 . S
C846 C847 1.524 . S
C846 H865 0.913 . S
C847 H823 0.950 . S
C847 C846 1.524 . S
C847 C848 1.415 . S
C848 H824 0.950 . S
C848 C843 1.363 . S
C848 C847 1.415 . S
C849 H825 0.951 . S
C849 C850 1.366 . S
C849 C851 1.388 . S
C850 C849 1.366 . S
C850 C854 1.385 . S
C851 H826 0.951 . S
C851 C849 1.388 . S
C851 C852 1.366 . S
C852 C851 1.366 . S
C852 C853 1.414 . S
C852 C855 1.499 . S
C853 H827 0.950 . S
C853 C852 1.414 . S
C853 C854 1.374 . S
C854 H828 0.950 . S
C854 C850 1.385 . S
C854 C853 1.374 . S
C855 C852 1.499 . S
C855 C856 1.373 . S
C855 C857 1.389 . S
C856 H829 0.950 . S
C856 C842 1.377 . S
C856 C855 1.373 . S
C857 C841 1.377 . S
C857 C855 1.389 . S
C857 C858 1.524 . S
C858 C857 1.524 . S
C858 C859 1.397 . S
C858 C863 1.363 . S
C859 H830 0.950 . S
C859 C858 1.397 . S
C859 C860 1.334 . S
C860 H831 0.950 . S
C860 C859 1.334 . S
C860 C861 1.287 . S
C861 C860 1.287 . S
C861 C862 1.524 . S
C861 H864 0.999 1_455 S
C862 H832 0.950 . S
C862 C861 1.524 . S
C862 C863 1.415 . S
C863 H833 0.950 . S
C863 C858 1.363 . S
C863 C862 1.415 . S
H864 C861 0.999 1_655 S
H865 C846 0.913 . S
H866 C884 0.951 . S
H867 C886 0.951 . S
H868 C888 0.950 . S
H869 C889 0.950 . S
H870 C891 0.950 . S
H871 C894 0.950 . S
H872 C895 0.950 . S
H873 C897 0.949 . S
H874 C898 0.950 . S
H875 C899 0.951 . S
H876 C901 0.951 . S
H877 C903 0.950 . S
H878 C904 0.951 . S
H879 C906 0.950 . S
H880 C909 0.950 . S
H881 C910 0.950 . S
H882 C912 0.950 1_554 S
H883 C913 0.950 . S
C884 H866 0.951 . S
C884 C885 1.378 . S
C884 C886 1.388 . S
C885 C884 1.378 . S
C885 C889 1.364 1_545 S
C886 H867 0.951 . S
C886 C884 1.388 . S
C886 C887 1.366 1_545 S
C887 C886 1.366 1_565 S
C887 C888 1.414 . S
C887 C890 1.499 . S
C888 H868 0.950 . S
C888 C887 1.414 . S
C888 C889 1.374 . S
C889 H869 0.950 . S
C889 C885 1.364 1_565 S
C889 C888 1.374 . S
C890 C887 1.499 . S
C890 C891 1.373 . S
C890 C892 1.389 . S
C891 H870 0.950 . S
C891 C890 1.373 . S
C891 C907 1.377 . S
C892 C890 1.389 . S
C892 C893 1.524 . S
C892 C906 1.377 . S
C893 C892 1.524 . S
C893 C894 1.397 . S
C893 C898 1.363 1_565 S
C894 H871 0.950 . S
C894 C893 1.397 . S
C894 C895 1.334 . S
C895 H872 0.950 . S
C895 C894 1.334 . S
C895 C896 1.287 . S
C896 C895 1.287 . S
C896 C897 1.525 1_565 S
C896 H915 0.913 . S
C897 H873 0.949 . S
C897 C896 1.525 1_545 S
C897 C898 1.414 . S
C898 H874 0.950 . S
C898 C893 1.363 1_545 S
C898 C897 1.414 . S
C899 H875 0.951 . S
C899 C900 1.366 . S
C899 C901 1.388 . S
C900 C899 1.366 . S
C900 C904 1.382 1_565 S
C901 H876 0.951 . S
C901 C899 1.388 . S
C901 C902 1.366 . S
C902 C901 1.366 . S
C902 C903 1.414 1_565 S
C902 C905 1.499 . S
C903 H877 0.950 . S
C903 C902 1.414 1_545 S
C903 C904 1.375 . S
C904 H878 0.951 . S
C904 C900 1.382 1_545 S
C904 C903 1.375 . S
C905 C902 1.499 . S
C905 C906 1.373 . S
C905 C907 1.389 . S
C906 H879 0.950 . S
C906 C892 1.377 . S
C906 C905 1.373 . S
C907 C891 1.377 . S
C907 C905 1.389 . S
C907 C908 1.524 . S
C908 C907 1.524 . S
C908 C909 1.397 1_565 S
C908 C913 1.363 . S
C909 H880 0.950 . S
C909 C908 1.397 1_545 S
C909 C910 1.334 . S
C910 H881 0.950 . S
C910 C909 1.334 . S
C910 C911 1.287 . S
C911 C910 1.287 . S
C911 C912 1.524 1_545 S
C911 H914 0.999 1_556 S
C912 H882 0.950 1_556 S
C912 C911 1.524 1_565 S
C912 C913 1.415 . S
C913 H883 0.950 . S
C913 C908 1.363 . S
C913 C912 1.415 . S
H914 C911 0.999 1_554 S
H915 C896 0.913 . S
H916 C934 0.951 . S
H917 C936 0.951 . S
H918 C938 0.950 . S
H919 C939 0.950 . S
H920 C941 0.950 . S
H921 C944 0.950 . S
H922 C945 0.950 . S
H923 C947 0.950 . S
H924 C948 0.950 . S
H925 C949 0.951 . S
H926 C951 0.951 . S
H927 C953 0.950 . S
H928 C954 0.950 . S
H929 C956 0.950 . S
H930 C959 0.950 . S
H931 C960 0.950 . S
H932 C962 0.950 . S
H933 C963 0.950 . S
C934 H916 0.951 . S
C934 C935 1.366 . S
C934 C936 1.388 . S
C935 C934 1.366 . S
C935 C939 1.385 . S
C936 H917 0.951 . S
C936 C934 1.388 . S
C936 C937 1.366 . S
C937 C936 1.366 . S
C937 C938 1.414 . S
C937 C940 1.499 . S
C938 H918 0.950 . S
C938 C937 1.414 . S
C938 C939 1.374 . S
C939 H919 0.950 . S
C939 C935 1.385 . S
C939 C938 1.374 . S
C940 C937 1.499 . S
C940 C941 1.373 . S
C940 C942 1.389 . S
C941 H920 0.950 . S
C941 C940 1.373 . S
C941 C957 1.377 . S
C942 C940 1.389 . S
C942 C943 1.524 . S
C942 C956 1.377 . S
C943 C942 1.524 . S
C943 C944 1.397 . S
C943 C948 1.363 . S
C944 H921 0.950 . S
C944 C943 1.397 . S
C944 C945 1.334 . S
C945 H922 0.950 . S
C945 C944 1.334 . S
C945 C946 1.287 . S
C946 C945 1.287 . S
C946 C947 1.524 . S
C946 H965 0.913 . S
C947 H923 0.950 . S
C947 C946 1.524 . S
C947 C948 1.415 . S
C948 H924 0.950 . S
C948 C943 1.363 . S
C948 C947 1.415 . S
C949 H925 0.951 . S
C949 C950 1.366 . S
C949 C951 1.388 . S
C950 C949 1.366 . S
C950 C954 1.385 . S
C951 H926 0.951 . S
C951 C949 1.388 . S
C951 C952 1.366 . S
C952 C951 1.366 . S
C952 C953 1.414 . S
C952 C955 1.499 . S
C953 H927 0.950 . S
C953 C952 1.414 . S
C953 C954 1.374 . S
C954 H928 0.950 . S
C954 C950 1.385 . S
C954 C953 1.374 . S
C955 C952 1.499 . S
C955 C956 1.373 . S
C955 C957 1.389 . S
C956 H929 0.950 . S
C956 C942 1.377 . S
C956 C955 1.373 . S
C957 C941 1.377 . S
C957 C955 1.389 . S
C957 C958 1.524 . S
C958 C957 1.524 . S
C958 C959 1.397 . S
C958 C963 1.363 . S
C959 H930 0.950 . S
C959 C958 1.397 . S
C959 C960 1.334 . S
C960 H931 0.950 . S
C960 C959 1.334 . S
C960 C961 1.287 . S
C961 C960 1.287 . S
C961 C962 1.524 . S
C961 H964 0.999 . S
C962 H932 0.950 . S
C962 C961 1.524 . S
C962 C963 1.415 . S
C963 H933 0.950 . S
C963 C958 1.363 . S
C963 C962 1.415 . S
H964 C961 0.999 . S
H965 C946 0.913 . S
H966 C984 0.951 . S
H967 C986 0.951 . S
H968 C988 0.950 . S
H969 C989 0.950 . S
H970 C991 0.950 . S
H971 C994 0.950 . S
H972 C995 0.950 . S
H973 C997 0.950 . S
H974 C998 0.950 . S
H975 C999 0.951 . S
H976 C1001 0.951 . S
H977 C1003 0.950 . S
H978 C1004 0.950 . S
H979 C1006 0.950 . S
H980 C1009 0.950 . S
H981 C1010 0.950 . S
H982 C1012 0.950 . S
H983 C1013 0.950 . S
C984 H966 0.951 . S
C984 C985 1.366 . S
C984 C986 1.388 . S
C985 C984 1.366 . S
C985 C989 1.385 . S
C986 H967 0.951 . S
C986 C984 1.388 . S
C986 C987 1.366 . S
C987 C986 1.366 . S
C987 C988 1.414 . S
C987 C990 1.499 . S
C988 H968 0.950 . S
C988 C987 1.414 . S
C988 C989 1.374 . S
C989 H969 0.950 . S
C989 C985 1.385 . S
C989 C988 1.374 . S
C990 C987 1.499 . S
C990 C991 1.373 . S
C990 C992 1.389 . S
C991 H970 0.950 . S
C991 C990 1.373 . S
C991 C1007 1.377 . S
C992 C990 1.389 . S
C992 C993 1.524 . S
C992 C1006 1.377 . S
C993 C992 1.524 . S
C993 C994 1.397 . S
C993 C998 1.363 . S
C994 H971 0.950 . S
C994 C993 1.397 . S
C994 C995 1.334 . S
C995 H972 0.950 . S
C995 C994 1.334 . S
C995 C996 1.287 . S
C996 C995 1.287 . S
C996 C997 1.524 . S
C996 H1015 0.913 . S
C997 H973 0.950 . S
C997 C996 1.524 . S
C997 C998 1.415 . S
C998 H974 0.950 . S
C998 C993 1.363 . S
C998 C997 1.415 . S
C999 H975 0.951 . S
C999 C1000 1.366 . S
C999 C1001 1.388 . S
C1000 C999 1.366 . S
C1000 C1004 1.385 . S
C1001 H976 0.951 . S
C1001 C999 1.388 . S
C1001 C1002 1.366 . S
C1002 C1001 1.366 . S
C1002 C1003 1.414 . S
C1002 C1005 1.499 . S
C1003 H977 0.950 . S
C1003 C1002 1.414 . S
C1003 C1004 1.374 . S
C1004 H978 0.950 . S
C1004 C1000 1.385 . S
C1004 C1003 1.374 . S
C1005 C1002 1.499 . S
C1005 C1006 1.373 . S
C1005 C1007 1.389 . S
C1006 H979 0.950 . S
C1006 C992 1.377 . S
C1006 C1005 1.373 . S
C1007 C991 1.377 . S
C1007 C1005 1.389 . S
C1007 C1008 1.524 . S
C1008 C1007 1.524 . S
C1008 C1009 1.397 . S
C1008 C1013 1.363 . S
C1009 H980 0.950 . S
C1009 C1008 1.397 . S
C1009 C1010 1.334 . S
C1010 H981 0.950 . S
C1010 C1009 1.334 . S
C1010 C1011 1.287 . S
C1011 C1010 1.287 . S
C1011 C1012 1.524 . S
C1011 H1014 0.999 . S
C1012 H982 0.950 . S
C1012 C1011 1.524 . S
C1012 C1013 1.415 . S
C1013 H983 0.950 . S
C1013 C1008 1.363 . S
C1013 C1012 1.415 . S
H1014 C1011 0.999 . S
H1015 C996 0.913 . S
H1016 C1034 0.951 . S
H1017 C1036 0.951 . S
H1018 C1038 0.950 . S
H1019 C1039 0.950 . S
H1020 C1041 0.950 . S
H1021 C1044 0.950 . S
H1022 C1045 0.950 . S
H1023 C1047 0.950 . S
H1024 C1048 0.950 . S
H1025 C1049 0.951 . S
H1026 C1051 0.951 . S
H1027 C1053 0.950 . S
H1028 C1054 0.950 1_455 S
H1029 C1056 0.950 . S
H1030 C1059 0.950 . S
H1031 C1060 0.950 . S
H1032 C1062 0.950 . S
H1033 C1063 0.950 . S
C1034 H1016 0.951 . S
C1034 C1035 1.366 . S
C1034 C1036 1.388 . S
C1035 C1034 1.366 . S
C1035 C1039 1.385 . S
C1036 H1017 0.951 . S
C1036 C1034 1.388 . S
C1036 C1037 1.366 . S
C1037 C1036 1.366 . S
C1037 C1038 1.414 . S
C1037 C1040 1.499 . S
C1038 H1018 0.950 . S
C1038 C1037 1.414 . S
C1038 C1039 1.374 . S
C1039 H1019 0.950 . S
C1039 C1035 1.385 . S
C1039 C1038 1.374 . S
C1040 C1037 1.499 . S
C1040 C1041 1.373 . S
C1040 C1042 1.389 . S
C1041 H1020 0.950 . S
C1041 C1040 1.373 . S
C1041 C1057 1.377 . S
C1042 C1040 1.389 . S
C1042 C1043 1.524 . S
C1042 C1056 1.377 . S
C1043 C1042 1.524 . S
C1043 C1044 1.397 . S
C1043 C1048 1.363 . S
C1044 H1021 0.950 . S
C1044 C1043 1.397 . S
C1044 C1045 1.334 . S
C1045 H1022 0.950 . S
C1045 C1044 1.334 . S
C1045 C1046 1.287 . S
C1046 C1045 1.287 . S
C1046 C1047 1.524 . S
C1046 H1065 0.913 . S
C1047 H1023 0.950 . S
C1047 C1046 1.524 . S
C1047 C1048 1.415 . S
C1048 H1024 0.950 . S
C1048 C1043 1.363 . S
C1048 C1047 1.415 . S
C1049 H1025 0.951 . S
C1049 C1050 1.366 . S
C1049 C1051 1.388 . S
C1050 C1049 1.366 . S
C1050 C1054 1.385 . S
C1051 H1026 0.951 . S
C1051 C1049 1.388 . S
C1051 C1052 1.366 . S
C1052 C1051 1.366 . S
C1052 C1053 1.414 . S
C1052 C1055 1.499 . S
C1053 H1027 0.950 . S
C1053 C1052 1.414 . S
C1053 C1054 1.374 . S
C1054 H1028 0.950 1_655 S
C1054 C1050 1.385 . S
C1054 C1053 1.374 . S
C1055 C1052 1.499 . S
C1055 C1056 1.373 . S
C1055 C1057 1.389 . S
C1056 H1029 0.950 . S
C1056 C1042 1.377 . S
C1056 C1055 1.373 . S
C1057 C1041 1.377 . S
C1057 C1055 1.389 . S
C1057 C1058 1.524 . S
C1058 C1057 1.524 . S
C1058 C1059 1.397 . S
C1058 C1063 1.363 . S
C1059 H1030 0.950 . S
C1059 C1058 1.397 . S
C1059 C1060 1.334 . S
C1060 H1031 0.950 . S
C1060 C1059 1.334 . S
C1060 C1061 1.287 . S
C1061 C1060 1.287 . S
C1061 C1062 1.524 . S
C1061 H1064 0.999 . S
C1062 H1032 0.950 . S
C1062 C1061 1.524 . S
C1062 C1063 1.415 . S
C1063 H1033 0.950 . S
C1063 C1058 1.363 . S
C1063 C1062 1.415 . S
H1064 C1061 0.999 . S
H1065 C1046 0.913 . S
H1066 C1084 0.951 . S
H1067 C1086 0.951 . S
H1068 C1088 0.950 . S
H1069 C1089 0.950 . S
H1070 C1091 0.950 . S
H1071 C1094 0.950 . S
H1072 C1095 0.950 . S
H1073 C1097 0.950 . S
H1074 C1098 0.950 . S
H1075 C1099 0.951 . S
H1076 C1101 0.951 . S
H1077 C1103 0.938 1_565 S
H1078 C1104 0.950 . S
H1079 C1106 0.950 . S
H1080 C1109 0.950 . S
H1081 C1110 0.950 . S
H1082 C1112 0.950 . S
H1083 C1113 0.950 . S
C1084 H1066 0.951 . S
C1084 C1085 1.367 . S
C1084 C1086 1.388 . S
C1085 C1084 1.367 . S
C1085 C1089 1.380 1_565 S
C1086 H1067 0.951 . S
C1086 C1084 1.388 . S
C1086 C1087 1.366 1_565 S
C1087 C1086 1.366 1_545 S
C1087 C1088 1.414 . S
C1087 C1090 1.499 . S
C1088 H1068 0.950 . S
C1088 C1087 1.414 . S
C1088 C1089 1.374 . S
C1089 H1069 0.950 . S
C1089 C1085 1.380 1_545 S
C1089 C1088 1.374 . S
C1090 C1087 1.499 . S
C1090 C1091 1.373 . S
C1090 C1092 1.389 1_545 S
C1091 H1070 0.950 . S
C1091 C1090 1.373 . S
C1091 C1107 1.377 . S
C1092 C1090 1.389 1_565 S
C1092 C1093 1.524 . S
C1092 C1106 1.377 . S
C1093 C1092 1.524 . S
C1093 C1094 1.397 . S
C1093 C1098 1.363 . S
C1094 H1071 0.950 . S
C1094 C1093 1.397 . S
C1094 C1095 1.334 . S
C1095 H1072 0.950 . S
C1095 C1094 1.334 . S
C1095 C1096 1.287 . S
C1096 C1095 1.287 . S
C1096 C1097 1.524 . S
C1096 H1115 0.913 . S
C1097 H1073 0.950 . S
C1097 C1096 1.524 . S
C1097 C1098 1.415 . S
C1098 H1074 0.950 . S
C1098 C1093 1.363 . S
C1098 C1097 1.415 . S
C1099 H1075 0.951 . S
C1099 C1100 1.366 . S
C1099 C1101 1.388 . S
C1100 C1099 1.366 . S
C1100 C1104 1.385 . S
C1101 H1076 0.951 . S
C1101 C1099 1.388 . S
C1101 C1102 1.366 . S
C1102 C1101 1.366 . S
C1102 C1103 1.414 . S
C1102 C1105 1.499 . S
C1103 H1077 0.938 1_545 S
C1103 C1102 1.414 . S
C1103 C1104 1.374 . S
C1104 H1078 0.950 . S
C1104 C1100 1.385 . S
C1104 C1103 1.374 . S
C1105 C1102 1.499 . S
C1105 C1106 1.373 1_545 S
C1105 C1107 1.389 . S
C1106 H1079 0.950 . S
C1106 C1092 1.377 . S
C1106 C1105 1.373 1_565 S
C1107 C1091 1.377 . S
C1107 C1105 1.389 . S
C1107 C1108 1.524 . S
C1108 C1107 1.524 . S
C1108 C1109 1.397 . S
C1108 C1113 1.363 . S
C1109 H1080 0.950 . S
C1109 C1108 1.397 . S
C1109 C1110 1.334 . S
C1110 H1081 0.950 . S
C1110 C1109 1.334 . S
C1110 C1111 1.287 . S
C1111 C1110 1.287 . S
C1111 C1112 1.524 . S
C1111 H1114 0.999 . S
C1112 H1082 0.950 . S
C1112 C1111 1.524 . S
C1112 C1113 1.415 . S
C1113 H1083 0.950 . S
C1113 C1108 1.363 . S
C1113 C1112 1.415 . S
H1114 C1111 0.999 . S
H1115 C1096 0.913 . S
H1116 C1134 0.951 . S
H1117 C1136 0.951 . S
H1118 C1138 0.950 . S
H1119 C1139 0.950 . S
H1120 C1141 0.950 . S
H1121 C1144 0.950 . S
H1122 C1145 0.950 . S
H1123 C1147 0.950 . S
H1124 C1148 0.950 . S
H1125 C1149 0.951 . S
H1126 C1151 0.958 . S
H1127 C1153 0.950 1_554 S
H1128 C1154 0.950 . S
H1129 C1156 0.950 1_556 S
H1130 C1159 0.950 . S
H1131 C1160 0.950 . S
H1132 C1162 0.950 . S
H1133 C1163 0.950 . S
C1134 H1116 0.951 . S
C1134 C1135 1.366 . S
C1134 C1136 1.388 . S
C1135 C1134 1.366 . S
C1135 C1139 1.385 . S
C1136 H1117 0.951 . S
C1136 C1134 1.388 . S
C1136 C1137 1.366 . S
C1137 C1136 1.366 . S
C1137 C1138 1.414 . S
C1137 C1140 1.499 . S
C1138 H1118 0.950 . S
C1138 C1137 1.414 . S
C1138 C1139 1.374 . S
C1139 H1119 0.950 . S
C1139 C1135 1.385 . S
C1139 C1138 1.374 . S
C1140 C1137 1.499 . S
C1140 C1141 1.373 . S
C1140 C1142 1.389 . S
C1141 H1120 0.950 . S
C1141 C1140 1.373 . S
C1141 C1157 1.377 . S
C1142 C1140 1.389 . S
C1142 C1143 1.524 . S
C1142 C1156 1.377 . S
C1143 C1142 1.524 . S
C1143 C1144 1.397 . S
C1143 C1148 1.363 . S
C1144 H1121 0.950 . S
C1144 C1143 1.397 . S
C1144 C1145 1.334 1_554 S
C1145 H1122 0.950 . S
C1145 C1144 1.334 1_556 S
C1145 C1146 1.287 . S
C1146 C1145 1.287 . S
C1146 C1147 1.524 . S
C1146 H1165 0.913 . S
C1147 H1123 0.950 . S
C1147 C1146 1.524 . S
C1147 C1148 1.415 1_556 S
C1148 H1124 0.950 . S
C1148 C1143 1.363 . S
C1148 C1147 1.415 1_554 S
C1149 H1125 0.951 . S
C1149 C1150 1.366 . S
C1149 C1151 1.375 1_556 S
C1150 C1149 1.366 . S
C1150 C1154 1.385 . S
C1151 H1126 0.958 . S
C1151 C1149 1.375 1_554 S
C1151 C1152 1.371 . S
C1152 C1151 1.371 . S
C1152 C1153 1.414 1_554 S
C1152 C1155 1.499 . S
C1153 H1127 0.950 1_556 S
C1153 C1152 1.414 1_556 S
C1153 C1154 1.374 . S
C1154 H1128 0.950 . S
C1154 C1150 1.385 . S
C1154 C1153 1.374 . S
C1155 C1152 1.499 . S
C1155 C1156 1.373 . S
C1155 C1157 1.389 . S
C1156 H1129 0.950 1_554 S
C1156 C1142 1.377 . S
C1156 C1155 1.373 . S
C1157 C1141 1.377 . S
C1157 C1155 1.389 . S
C1157 C1158 1.524 . S
C1158 C1157 1.524 . S
C1158 C1159 1.397 . S
C1158 C1163 1.363 . S
C1159 H1130 0.950 . S
C1159 C1158 1.397 . S
C1159 C1160 1.334 . S
C1160 H1131 0.950 . S
C1160 C1159 1.334 . S
C1160 C1161 1.287 . S
C1161 C1160 1.287 . S
C1161 C1162 1.524 . S
C1161 H1164 0.999 . S
C1162 H1132 0.950 . S
C1162 C1161 1.524 . S
C1162 C1163 1.415 . S
C1163 H1133 0.950 . S
C1163 C1158 1.363 . S
C1163 C1162 1.415 . S
H1164 C1161 0.999 . S
H1165 C1146 0.913 . S
H1166 C1184 0.951 . S
H1167 C1186 0.951 . S
H1168 C1188 0.950 . S
H1169 C1189 0.950 . S
H1170 C1191 0.950 . S
H1171 C1194 0.950 . S
H1172 C1195 0.950 . S
H1173 C1197 0.950 . S
H1174 C1198 0.950 . S
H1175 C1199 0.951 . S
H1176 C1201 0.951 . S
H1177 C1203 0.950 . S
H1178 C1204 0.950 . S
H1179 C1206 0.950 . S
H1180 C1209 0.950 . S
H1181 C1210 0.950 . S
H1182 C1212 0.950 . S
H1183 C1213 0.950 . S
C1184 H1166 0.951 . S
C1184 C1185 1.366 . S
C1184 C1186 1.388 . S
C1185 C1184 1.366 . S
C1185 C1189 1.385 . S
C1186 H1167 0.951 . S
C1186 C1184 1.388 . S
C1186 C1187 1.366 . S
C1187 C1186 1.366 . S
C1187 C1188 1.414 . S
C1187 C1190 1.499 . S
C1188 H1168 0.950 . S
C1188 C1187 1.414 . S
C1188 C1189 1.374 . S
C1189 H1169 0.950 . S
C1189 C1185 1.385 . S
C1189 C1188 1.374 . S
C1190 C1187 1.499 . S
C1190 C1191 1.373 . S
C1190 C1192 1.389 . S
C1191 H1170 0.950 . S
C1191 C1190 1.373 . S
C1191 C1207 1.377 . S
C1192 C1190 1.389 . S
C1192 C1193 1.524 . S
C1192 C1206 1.377 . S
C1193 C1192 1.524 . S
C1193 C1194 1.397 . S
C1193 C1198 1.363 1_556 S
C1194 H1171 0.950 . S
C1194 C1193 1.397 . S
C1194 C1195 1.334 1_556 S
C1195 H1172 0.950 . S
C1195 C1194 1.334 1_554 S
C1195 C1196 1.287 . S
C1196 C1195 1.287 . S
C1196 C1197 1.524 . S
C1196 H1215 0.913 . S
C1197 H1173 0.950 . S
C1197 C1196 1.524 . S
C1197 C1198 1.415 . S
C1198 H1174 0.950 . S
C1198 C1193 1.363 1_554 S
C1198 C1197 1.415 . S
C1199 H1175 0.951 . S
C1199 C1200 1.366 . S
C1199 C1201 1.388 . S
C1200 C1199 1.366 . S
C1200 C1204 1.385 . S
C1201 H1176 0.951 . S
C1201 C1199 1.388 . S
C1201 C1202 1.366 . S
C1202 C1201 1.366 . S
C1202 C1203 1.414 . S
C1202 C1205 1.499 . S
C1203 H1177 0.950 . S
C1203 C1202 1.414 . S
C1203 C1204 1.374 . S
C1204 H1178 0.950 . S
C1204 C1200 1.385 . S
C1204 C1203 1.374 . S
C1205 C1202 1.499 . S
C1205 C1206 1.373 . S
C1205 C1207 1.389 . S
C1206 H1179 0.950 . S
C1206 C1192 1.377 . S
C1206 C1205 1.373 . S
C1207 C1191 1.377 . S
C1207 C1205 1.389 . S
C1207 C1208 1.524 . S
C1208 C1207 1.524 . S
C1208 C1209 1.397 . S
C1208 C1213 1.363 . S
C1209 H1180 0.950 . S
C1209 C1208 1.397 . S
C1209 C1210 1.334 . S
C1210 H1181 0.950 . S
C1210 C1209 1.334 . S
C1210 C1211 1.287 . S
C1211 C1210 1.287 . S
C1211 C1212 1.524 . S
C1211 H1214 0.999 . S
C1212 H1182 0.950 . S
C1212 C1211 1.524 . S
C1212 C1213 1.415 . S
C1213 H1183 0.950 . S
C1213 C1208 1.363 . S
C1213 C1212 1.415 . S
H1214 C1211 0.999 . S
H1215 C1196 0.913 . S
H1216 C1234 0.951 . S
H1217 C1236 0.951 . S
H1218 C1238 0.950 . S
H1219 C1239 0.950 . S
H1220 C1241 0.950 . S
H1221 C1244 0.950 . S
H1222 C1245 0.950 . S
H1223 C1247 0.950 . S
H1224 C1248 0.950 . S
H1225 C1249 0.951 . S
H1226 C1251 0.951 . S
H1227 C1253 0.950 . S
H1228 C1254 0.950 . S
H1229 C1256 0.950 . S
H1230 C1259 0.950 . S
H1231 C1260 0.950 . S
H1232 C1262 0.950 1_556 S
H1233 C1263 0.950 . S
C1234 H1216 0.951 . S
C1234 C1235 1.366 . S
C1234 C1236 1.388 . S
C1235 C1234 1.366 . S
C1235 C1239 1.385 . S
C1236 H1217 0.951 . S
C1236 C1234 1.388 . S
C1236 C1237 1.366 . S
C1237 C1236 1.366 . S
C1237 C1238 1.414 . S
C1237 C1240 1.499 . S
C1238 H1218 0.950 . S
C1238 C1237 1.414 . S
C1238 C1239 1.374 . S
C1239 H1219 0.950 . S
C1239 C1235 1.385 . S
C1239 C1238 1.374 . S
C1240 C1237 1.499 . S
C1240 C1241 1.373 . S
C1240 C1242 1.389 . S
C1241 H1220 0.950 . S
C1241 C1240 1.373 . S
C1241 C1257 1.377 . S
C1242 C1240 1.389 . S
C1242 C1243 1.524 . S
C1242 C1256 1.377 . S
C1243 C1242 1.524 . S
C1243 C1244 1.397 . S
C1243 C1248 1.363 . S
C1244 H1221 0.950 . S
C1244 C1243 1.397 . S
C1244 C1245 1.334 . S
C1245 H1222 0.950 . S
C1245 C1244 1.334 . S
C1245 C1246 1.287 . S
C1246 C1245 1.287 . S
C1246 C1247 1.524 . S
C1246 H1265 0.913 . S
C1247 H1223 0.950 . S
C1247 C1246 1.524 . S
C1247 C1248 1.415 . S
C1248 H1224 0.950 . S
C1248 C1243 1.363 . S
C1248 C1247 1.415 . S
C1249 H1225 0.951 . S
C1249 C1250 1.366 . S
C1249 C1251 1.388 . S
C1250 C1249 1.366 . S
C1250 C1254 1.385 . S
C1251 H1226 0.951 . S
C1251 C1249 1.388 . S
C1251 C1252 1.366 . S
C1252 C1251 1.366 . S
C1252 C1253 1.414 . S
C1252 C1255 1.499 . S
C1253 H1227 0.950 . S
C1253 C1252 1.414 . S
C1253 C1254 1.374 . S
C1254 H1228 0.950 . S
C1254 C1250 1.385 . S
C1254 C1253 1.374 . S
C1255 C1252 1.499 . S
C1255 C1256 1.373 . S
C1255 C1257 1.389 . S
C1256 H1229 0.950 . S
C1256 C1242 1.377 . S
C1256 C1255 1.373 . S
C1257 C1241 1.377 . S
C1257 C1255 1.389 . S
C1257 C1258 1.524 . S
C1258 C1257 1.524 . S
C1258 C1259 1.397 . S
C1258 C1263 1.363 . S
C1259 H1230 0.950 . S
C1259 C1258 1.397 . S
C1259 C1260 1.334 . S
C1260 H1231 0.950 . S
C1260 C1259 1.334 . S
C1260 C1261 1.287 1_554 S
C1261 C1260 1.287 1_556 S
C1261 C1262 1.524 1_556 S
C1261 H1264 0.999 . S
C1262 H1232 0.950 1_554 S
C1262 C1261 1.524 1_554 S
C1262 C1263 1.415 . S
C1263 H1233 0.950 . S
C1263 C1258 1.363 . S
C1263 C1262 1.415 . S
H1264 C1261 0.999 . S
H1265 C1246 0.913 . S
H1266 C1284 0.951 . S
H1267 C1286 0.951 . S
H1268 C1288 0.950 . S
H1269 C1289 0.952 1_565 S
H1270 C1291 0.950 . S
H1271 C1294 0.950 . S
H1272 C1295 0.950 . S
H1273 C1297 0.950 . S
H1274 C1298 0.950 . S
H1275 C1299 0.951 . S
H1276 C1301 0.951 . S
H1277 C1303 0.950 . S
H1278 C1304 0.950 . S
H1279 C1306 0.950 . S
H1280 C1309 0.950 . S
H1281 C1310 0.950 . S
H1282 C1312 0.950 . S
H1283 C1313 0.950 . S
C1284 H1266 0.951 . S
C1284 C1285 1.366 . S
C1284 C1286 1.388 . S
C1285 C1284 1.366 . S
C1285 C1289 1.390 . S
C1286 H1267 0.951 . S
C1286 C1284 1.388 . S
C1286 C1287 1.366 . S
C1287 C1286 1.366 . S
C1287 C1288 1.414 . S
C1287 C1290 1.499 . S
C1288 H1268 0.950 . S
C1288 C1287 1.414 . S
C1288 C1289 1.370 . S
C1289 H1269 0.952 1_545 S
C1289 C1285 1.390 . S
C1289 C1288 1.370 . S
C1290 C1287 1.499 . S
C1290 C1291 1.373 1_545 S
C1290 C1292 1.389 . S
C1291 H1270 0.950 . S
C1291 C1290 1.373 1_565 S
C1291 C1307 1.377 . S
C1292 C1290 1.389 . S
C1292 C1293 1.524 . S
C1292 C1306 1.377 . S
C1293 C1292 1.524 . S
C1293 C1294 1.397 . S
C1293 C1298 1.363 . S
C1294 H1271 0.950 . S
C1294 C1293 1.397 . S
C1294 C1295 1.334 . S
C1295 H1272 0.950 . S
C1295 C1294 1.334 . S
C1295 C1296 1.287 . S
C1296 C1295 1.287 . S
C1296 C1297 1.524 . S
C1296 H1315 0.913 . S
C1297 H1273 0.950 . S
C1297 C1296 1.524 . S
C1297 C1298 1.415 . S
C1298 H1274 0.950 . S
C1298 C1293 1.363 . S
C1298 C1297 1.415 . S
C1299 H1275 0.951 . S
C1299 C1300 1.366 . S
C1299 C1301 1.388 . S
C1300 C1299 1.366 . S
C1300 C1304 1.385 . S
C1301 H1276 0.951 . S
C1301 C1299 1.388 . S
C1301 C1302 1.366 . S
C1302 C1301 1.366 . S
C1302 C1303 1.414 . S
C1302 C1305 1.499 . S
C1303 H1277 0.950 . S
C1303 C1302 1.414 . S
C1303 C1304 1.374 . S
C1304 H1278 0.950 . S
C1304 C1300 1.385 . S
C1304 C1303 1.374 . S
C1305 C1302 1.499 . S
C1305 C1306 1.373 . S
C1305 C1307 1.389 1_545 S
C1306 H1279 0.950 . S
C1306 C1292 1.377 . S
C1306 C1305 1.373 . S
C1307 C1291 1.377 . S
C1307 C1305 1.389 1_565 S
C1307 C1308 1.524 . S
C1308 C1307 1.524 . S
C1308 C1309 1.397 . S
C1308 C1313 1.363 . S
C1309 H1280 0.950 . S
C1309 C1308 1.397 . S
C1309 C1310 1.334 . S
C1310 H1281 0.950 . S
C1310 C1309 1.334 . S
C1310 C1311 1.287 . S
C1311 C1310 1.287 . S
C1311 C1312 1.524 . S
C1311 H1314 0.999 . S
C1312 H1282 0.950 . S
C1312 C1311 1.524 . S
C1312 C1313 1.415 . S
C1313 H1283 0.950 . S
C1313 C1308 1.363 . S
C1313 C1312 1.415 . S
H1314 C1311 0.999 . S
H1315 C1296 0.913 . S
H1316 C1334 0.951 . S
H1317 C1336 0.951 . S
H1318 C1338 0.950 . S
H1319 C1339 0.950 . S
H1320 C1341 0.950 . S
H1321 C1344 0.950 . S
H1322 C1345 0.950 . S
H1323 C1347 0.950 . S
H1324 C1348 0.950 1_556 S
H1325 C1349 0.951 . S
H1326 C1351 0.951 . S
H1327 C1353 0.950 . S
H1328 C1354 0.950 . S
H1329 C1356 0.950 . S
H1330 C1359 0.950 . S
H1331 C1360 0.950 . S
H1332 C1362 0.950 . S
H1333 C1363 0.950 . S
C1334 H1316 0.951 . S
C1334 C1335 1.366 . S
C1334 C1336 1.388 . S
C1335 C1334 1.366 . S
C1335 C1339 1.385 . S
C1336 H1317 0.951 . S
C1336 C1334 1.388 . S
C1336 C1337 1.366 . S
C1337 C1336 1.366 . S
C1337 C1338 1.414 . S
C1337 C1340 1.499 . S
C1338 H1318 0.950 . S
C1338 C1337 1.414 . S
C1338 C1339 1.374 . S
C1339 H1319 0.950 . S
C1339 C1335 1.385 . S
C1339 C1338 1.374 . S
C1340 C1337 1.499 . S
C1340 C1341 1.373 1_554 S
C1340 C1342 1.389 . S
C1341 H1320 0.950 . S
C1341 C1340 1.373 1_556 S
C1341 C1357 1.377 . S
C1342 C1340 1.389 . S
C1342 C1343 1.524 . S
C1342 C1356 1.377 1_554 S
C1343 C1342 1.524 . S
C1343 C1344 1.397 . S
C1343 C1348 1.363 . S
C1344 H1321 0.950 . S
C1344 C1343 1.397 . S
C1344 C1345 1.334 . S
C1345 H1322 0.950 . S
C1345 C1344 1.334 . S
C1345 C1346 1.287 . S
C1346 C1345 1.287 . S
C1346 C1347 1.524 . S
C1346 H1365 0.913 . S
C1347 H1323 0.950 . S
C1347 C1346 1.524 . S
C1347 C1348 1.415 . S
C1348 H1324 0.950 1_554 S
C1348 C1343 1.363 . S
C1348 C1347 1.415 . S
C1349 H1325 0.951 . S
C1349 C1350 1.366 . S
C1349 C1351 1.388 . S
C1350 C1349 1.366 . S
C1350 C1354 1.385 . S
C1351 H1326 0.951 . S
C1351 C1349 1.388 . S
C1351 C1352 1.366 . S
C1352 C1351 1.366 . S
C1352 C1353 1.414 . S
C1352 C1355 1.499 . S
C1353 H1327 0.950 . S
C1353 C1352 1.414 . S
C1353 C1354 1.374 . S
C1354 H1328 0.950 . S
C1354 C1350 1.385 . S
C1354 C1353 1.374 . S
C1355 C1352 1.499 . S
C1355 C1356 1.373 . S
C1355 C1357 1.389 . S
C1356 H1329 0.950 . S
C1356 C1342 1.377 1_556 S
C1356 C1355 1.373 . S
C1357 C1341 1.377 . S
C1357 C1355 1.389 . S
C1357 C1358 1.524 . S
C1358 C1357 1.524 . S
C1358 C1359 1.397 . S
C1358 C1363 1.363 . S
C1359 H1330 0.950 . S
C1359 C1358 1.397 . S
C1359 C1360 1.334 . S
C1360 H1331 0.950 . S
C1360 C1359 1.334 . S
C1360 C1361 1.287 . S
C1361 C1360 1.287 . S
C1361 C1362 1.524 . S
C1361 H1364 0.999 . S
C1362 H1332 0.950 . S
C1362 C1361 1.524 . S
C1362 C1363 1.415 . S
C1363 H1333 0.950 . S
C1363 C1358 1.363 . S
C1363 C1362 1.415 . S
H1364 C1361 0.999 . S
H1365 C1346 0.913 . S
H1366 C1384 0.951 . S
H1367 C1386 0.951 . S
H1368 C1388 0.950 . S
H1369 C1389 0.950 . S
H1370 C1391 0.950 . S
H1371 C1394 0.950 . S
H1372 C1395 0.950 . S
H1373 C1397 0.950 . S
H1374 C1398 0.950 . S
H1375 C1399 0.951 . S
H1376 C1401 0.951 . S
H1377 C1403 0.950 . S
H1378 C1404 0.950 . S
H1379 C1406 0.950 . S
H1380 C1409 0.950 . S
H1381 C1410 0.950 1_556 S
H1382 C1412 0.950 . S
H1383 C1413 0.950 . S
C1384 H1366 0.951 . S
C1384 C1385 1.366 . S
C1384 C1386 1.388 . S
C1385 C1384 1.366 . S
C1385 C1389 1.385 . S
C1386 H1367 0.951 . S
C1386 C1384 1.388 . S
C1386 C1387 1.366 . S
C1387 C1386 1.366 . S
C1387 C1388 1.414 . S
C1387 C1390 1.499 . S
C1388 H1368 0.950 . S
C1388 C1387 1.414 . S
C1388 C1389 1.374 . S
C1389 H1369 0.950 . S
C1389 C1385 1.385 . S
C1389 C1388 1.374 . S
C1390 C1387 1.499 . S
C1390 C1391 1.373 . S
C1390 C1392 1.389 . S
C1391 H1370 0.950 . S
C1391 C1390 1.373 . S
C1391 C1407 1.377 . S
C1392 C1390 1.389 . S
C1392 C1393 1.524 . S
C1392 C1406 1.377 . S
C1393 C1392 1.524 . S
C1393 C1394 1.397 . S
C1393 C1398 1.363 . S
C1394 H1371 0.950 . S
C1394 C1393 1.397 . S
C1394 C1395 1.334 . S
C1395 H1372 0.950 . S
C1395 C1394 1.334 . S
C1395 C1396 1.287 . S
C1396 C1395 1.287 . S
C1396 C1397 1.524 . S
C1396 H1415 0.913 . S
C1397 H1373 0.950 . S
C1397 C1396 1.524 . S
C1397 C1398 1.415 . S
C1398 H1374 0.950 . S
C1398 C1393 1.363 . S
C1398 C1397 1.415 . S
C1399 H1375 0.951 . S
C1399 C1400 1.366 . S
C1399 C1401 1.388 . S
C1400 C1399 1.366 . S
C1400 C1404 1.385 . S
C1401 H1376 0.951 . S
C1401 C1399 1.388 . S
C1401 C1402 1.366 . S
C1402 C1401 1.366 . S
C1402 C1403 1.414 . S
C1402 C1405 1.499 . S
C1403 H1377 0.950 . S
C1403 C1402 1.414 . S
C1403 C1404 1.374 . S
C1404 H1378 0.950 . S
C1404 C1400 1.385 . S
C1404 C1403 1.374 . S
C1405 C1402 1.499 . S
C1405 C1406 1.373 . S
C1405 C1407 1.389 . S
C1406 H1379 0.950 . S
C1406 C1392 1.377 . S
C1406 C1405 1.373 . S
C1407 C1391 1.377 . S
C1407 C1405 1.389 . S
C1407 C1408 1.524 . S
C1408 C1407 1.524 . S
C1408 C1409 1.397 . S
C1408 C1413 1.363 . S
C1409 H1380 0.950 . S
C1409 C1408 1.397 . S
C1409 C1410 1.334 . S
C1410 H1381 0.950 1_554 S
C1410 C1409 1.334 . S
C1410 C1411 1.287 1_554 S
C1411 C1410 1.287 1_556 S
C1411 C1412 1.524 1_556 S
C1411 H1414 0.999 . S
C1412 H1382 0.950 . S
C1412 C1411 1.524 1_554 S
C1412 C1413 1.415 . S
C1413 H1383 0.950 . S
C1413 C1408 1.363 . S
C1413 C1412 1.415 . S
H1414 C1411 0.999 . S
H1415 C1396 0.913 . S
H1416 C1434 0.951 . S
H1417 C1436 0.951 . S
H1418 C1438 0.950 . S
H1419 C1439 0.950 . S
H1420 C1441 0.950 . S
H1421 C1444 0.950 . S
H1422 C1445 0.950 . S
H1423 C1447 0.950 . S
H1424 C1448 0.950 . S
H1425 C1449 0.951 . S
H1426 C1451 0.951 . S
H1427 C1453 0.950 . S
H1428 C1454 0.950 . S
H1429 C1456 0.950 . S
H1430 C1459 0.950 . S
H1431 C1460 0.950 . S
H1432 C1462 0.950 . S
H1433 C1463 0.950 . S
C1434 H1416 0.951 . S
C1434 C1435 1.366 . S
C1434 C1436 1.388 . S
C1435 C1434 1.366 . S
C1435 C1439 1.385 . S
C1436 H1417 0.951 . S
C1436 C1434 1.388 . S
C1436 C1437 1.366 . S
C1437 C1436 1.366 . S
C1437 C1438 1.414 . S
C1437 C1440 1.499 . S
C1438 H1418 0.950 . S
C1438 C1437 1.414 . S
C1438 C1439 1.374 . S
C1439 H1419 0.950 . S
C1439 C1435 1.385 . S
C1439 C1438 1.374 . S
C1440 C1437 1.499 . S
C1440 C1441 1.373 . S
C1440 C1442 1.389 . S
C1441 H1420 0.950 . S
C1441 C1440 1.373 . S
C1441 C1457 1.377 . S
C1442 C1440 1.389 . S
C1442 C1443 1.524 . S
C1442 C1456 1.377 . S
C1443 C1442 1.524 . S
C1443 C1444 1.397 . S
C1443 C1448 1.363 . S
C1444 H1421 0.950 . S
C1444 C1443 1.397 . S
C1444 C1445 1.334 . S
C1445 H1422 0.950 . S
C1445 C1444 1.334 . S
C1445 C1446 1.287 . S
C1446 C1445 1.287 . S
C1446 C1447 1.524 . S
C1446 H1465 0.913 . S
C1447 H1423 0.950 . S
C1447 C1446 1.524 . S
C1447 C1448 1.415 . S
C1448 H1424 0.950 . S
C1448 C1443 1.363 . S
C1448 C1447 1.415 . S
C1449 H1425 0.951 . S
C1449 C1450 1.366 . S
C1449 C1451 1.388 . S
C1450 C1449 1.366 . S
C1450 C1454 1.385 . S
C1451 H1426 0.951 . S
C1451 C1449 1.388 . S
C1451 C1452 1.366 . S
C1452 C1451 1.366 . S
C1452 C1453 1.414 . S
C1452 C1455 1.499 . S
C1453 H1427 0.950 . S
C1453 C1452 1.414 . S
C1453 C1454 1.374 . S
C1454 H1428 0.950 . S
C1454 C1450 1.385 . S
C1454 C1453 1.374 . S
C1455 C1452 1.499 . S
C1455 C1456 1.373 . S
C1455 C1457 1.389 . S
C1456 H1429 0.950 . S
C1456 C1442 1.377 . S
C1456 C1455 1.373 . S
C1457 C1441 1.377 . S
C1457 C1455 1.389 . S
C1457 C1458 1.524 . S
C1458 C1457 1.524 . S
C1458 C1459 1.397 . S
C1458 C1463 1.363 . S
C1459 H1430 0.950 . S
C1459 C1458 1.397 . S
C1459 C1460 1.334 . S
C1460 H1431 0.950 . S
C1460 C1459 1.334 . S
C1460 C1461 1.287 . S
C1461 C1460 1.287 . S
C1461 C1462 1.524 . S
C1461 H1464 0.999 . S
C1462 H1432 0.950 . S
C1462 C1461 1.524 . S
C1462 C1463 1.415 . S
C1463 H1433 0.950 . S
C1463 C1458 1.363 . S
C1463 C1462 1.415 . S
H1464 C1461 0.999 . S
H1465 C1446 0.913 . S
H1466 C1484 0.952 . S
H1467 C1486 0.956 . S
H1468 C1488 0.950 . S
H1469 C1489 0.950 . S
H1470 C1491 0.950 . S
H1471 C1494 0.950 . S
H1472 C1495 0.950 . S
H1473 C1497 0.950 . S
H1474 C1498 0.950 . S
H1475 C1499 0.951 . S
H1476 C1501 0.951 . S
H1477 C1503 0.950 . S
H1478 C1504 0.950 . S
H1479 C1506 0.950 . S
H1480 C1509 0.950 . S
H1481 C1510 0.950 . S
H1482 C1512 0.950 . S
H1483 C1513 0.950 . S
C1484 H1466 0.952 . S
C1484 C1485 1.364 1_545 S
C1484 C1486 1.389 1_545 S
C1485 C1484 1.364 1_565 S
C1485 C1489 1.385 . S
C1486 H1467 0.956 . S
C1486 C1484 1.389 1_565 S
C1486 C1487 1.366 . S
C1487 C1486 1.366 . S
C1487 C1488 1.414 . S
C1487 C1490 1.499 . S
C1488 H1468 0.950 . S
C1488 C1487 1.414 . S
C1488 C1489 1.374 . S
C1489 H1469 0.950 . S
C1489 C1485 1.385 . S
C1489 C1488 1.374 . S
C1490 C1487 1.499 . S
C1490 C1491 1.373 . S
C1490 C1492 1.389 1_565 S
C1491 H1470 0.950 . S
C1491 C1490 1.373 . S
C1491 C1507 1.377 . S
C1492 C1490 1.389 1_545 S
C1492 C1493 1.524 . S
C1492 C1506 1.377 . S
C1493 C1492 1.524 . S
C1493 C1494 1.397 . S
C1493 C1498 1.363 . S
C1494 H1471 0.950 . S
C1494 C1493 1.397 . S
C1494 C1495 1.334 . S
C1495 H1472 0.950 . S
C1495 C1494 1.334 . S
C1495 C1496 1.287 . S
C1496 C1495 1.287 . S
C1496 C1497 1.524 . S
C1496 H1515 0.913 . S
C1497 H1473 0.950 . S
C1497 C1496 1.524 . S
C1497 C1498 1.415 . S
C1498 H1474 0.950 . S
C1498 C1493 1.363 . S
C1498 C1497 1.415 . S
C1499 H1475 0.951 . S
C1499 C1500 1.366 . S
C1499 C1501 1.388 . S
C1500 C1499 1.366 . S
C1500 C1504 1.385 . S
C1501 H1476 0.951 . S
C1501 C1499 1.388 . S
C1501 C1502 1.366 . S
C1502 C1501 1.366 . S
C1502 C1503 1.414 . S
C1502 C1505 1.499 . S
C1503 H1477 0.950 . S
C1503 C1502 1.414 . S
C1503 C1504 1.374 . S
C1504 H1478 0.950 . S
C1504 C1500 1.385 . S
C1504 C1503 1.374 . S
C1505 C1502 1.499 . S
C1505 C1506 1.373 1_565 S
C1505 C1507 1.389 . S
C1506 H1479 0.950 . S
C1506 C1492 1.377 . S
C1506 C1505 1.373 1_545 S
C1507 C1491 1.377 . S
C1507 C1505 1.389 . S
C1507 C1508 1.524 . S
C1508 C1507 1.524 . S
C1508 C1509 1.397 . S
C1508 C1513 1.363 . S
C1509 H1480 0.950 . S
C1509 C1508 1.397 . S
C1509 C1510 1.334 . S
C1510 H1481 0.950 . S
C1510 C1509 1.334 . S
C1510 C1511 1.287 . S
C1511 C1510 1.287 . S
C1511 C1512 1.524 . S
C1511 H1514 0.999 . S
C1512 H1482 0.950 . S
C1512 C1511 1.524 . S
C1512 C1513 1.415 . S
C1513 H1483 0.950 . S
C1513 C1508 1.363 . S
C1513 C1512 1.415 . S
H1514 C1511 0.999 . S
H1515 C1496 0.913 . S
H1516 C1534 0.951 . S
H1517 C1536 0.951 . S
H1518 C1538 0.950 . S
H1519 C1539 0.950 . S
H1520 C1541 0.950 . S
H1521 C1544 0.950 . S
H1522 C1545 0.950 . S
H1523 C1547 0.950 . S
H1524 C1548 0.950 . S
H1525 C1549 0.951 . S
H1526 C1551 0.951 . S
H1527 C1553 0.950 . S
H1528 C1554 0.950 . S
H1529 C1556 0.950 . S
H1530 C1559 0.950 . S
H1531 C1560 0.950 . S
H1532 C1562 0.950 . S
H1533 C1563 0.950 . S
C1534 H1516 0.951 . S
C1534 C1535 1.366 . S
C1534 C1536 1.388 . S
C1535 C1534 1.366 . S
C1535 C1539 1.385 . S
C1536 H1517 0.951 . S
C1536 C1534 1.388 . S
C1536 C1537 1.366 . S
C1537 C1536 1.366 . S
C1537 C1538 1.414 . S
C1537 C1540 1.499 . S
C1538 H1518 0.950 . S
C1538 C1537 1.414 . S
C1538 C1539 1.374 . S
C1539 H1519 0.950 . S
C1539 C1535 1.385 . S
C1539 C1538 1.374 . S
C1540 C1537 1.499 . S
C1540 C1541 1.373 . S
C1540 C1542 1.389 . S
C1541 H1520 0.950 . S
C1541 C1540 1.373 . S
C1541 C1557 1.377 . S
C1542 C1540 1.389 . S
C1542 C1543 1.524 . S
C1542 C1556 1.377 . S
C1543 C1542 1.524 . S
C1543 C1544 1.397 . S
C1543 C1548 1.363 . S
C1544 H1521 0.950 . S
C1544 C1543 1.397 . S
C1544 C1545 1.334 . S
C1545 H1522 0.950 . S
C1545 C1544 1.334 . S
C1545 C1546 1.287 . S
C1546 C1545 1.287 . S
C1546 C1547 1.524 . S
C1546 H1565 0.913 . S
C1547 H1523 0.950 . S
C1547 C1546 1.524 . S
C1547 C1548 1.415 . S
C1548 H1524 0.950 . S
C1548 C1543 1.363 . S
C1548 C1547 1.415 . S
C1549 H1525 0.951 . S
C1549 C1550 1.366 . S
C1549 C1551 1.388 . S
C1550 C1549 1.366 . S
C1550 C1554 1.385 . S
C1551 H1526 0.951 . S
C1551 C1549 1.388 . S
C1551 C1552 1.366 . S
C1552 C1551 1.366 . S
C1552 C1553 1.414 . S
C1552 C1555 1.499 . S
C1553 H1527 0.950 . S
C1553 C1552 1.414 . S
C1553 C1554 1.374 . S
C1554 H1528 0.950 . S
C1554 C1550 1.385 . S
C1554 C1553 1.374 . S
C1555 C1552 1.499 . S
C1555 C1556 1.373 . S
C1555 C1557 1.389 . S
C1556 H1529 0.950 . S
C1556 C1542 1.377 . S
C1556 C1555 1.373 . S
C1557 C1541 1.377 . S
C1557 C1555 1.389 . S
C1557 C1558 1.524 . S
C1558 C1557 1.524 . S
C1558 C1559 1.397 . S
C1558 C1563 1.363 . S
C1559 H1530 0.950 . S
C1559 C1558 1.397 . S
C1559 C1560 1.334 . S
C1560 H1531 0.950 . S
C1560 C1559 1.334 . S
C1560 C1561 1.287 . S
C1561 C1560 1.287 . S
C1561 C1562 1.524 . S
C1561 H1564 0.999 . S
C1562 H1532 0.950 . S
C1562 C1561 1.524 . S
C1562 C1563 1.415 . S
C1563 H1533 0.950 . S
C1563 C1558 1.363 . S
C1563 C1562 1.415 . S
H1564 C1561 0.999 . S
H1565 C1546 0.913 . S
H1566 C1584 0.951 . S
H1567 C1586 0.951 . S
H1568 C1588 0.950 . S
H1569 C1589 0.950 . S
H1570 C1591 0.950 . S
H1571 C1594 0.950 . S
H1572 C1595 0.950 . S
H1573 C1597 0.950 . S
H1574 C1598 0.950 . S
H1575 C1599 0.951 . S
H1576 C1601 0.951 . S
H1577 C1603 0.950 . S
H1578 C1604 0.950 . S
H1579 C1606 0.950 . S
H1580 C1609 0.950 . S
H1581 C1610 0.950 . S
H1582 C1612 0.950 . S
H1583 C1613 0.950 . S
C1584 H1566 0.951 . S
C1584 C1585 1.366 . S
C1584 C1586 1.388 . S
C1585 C1584 1.366 . S
C1585 C1589 1.385 . S
C1586 H1567 0.951 . S
C1586 C1584 1.388 . S
C1586 C1587 1.366 . S
C1587 C1586 1.366 . S
C1587 C1588 1.414 . S
C1587 C1590 1.499 . S
C1588 H1568 0.950 . S
C1588 C1587 1.414 . S
C1588 C1589 1.374 . S
C1589 H1569 0.950 . S
C1589 C1585 1.385 . S
C1589 C1588 1.374 . S
C1590 C1587 1.499 . S
C1590 C1591 1.373 . S
C1590 C1592 1.389 . S
C1591 H1570 0.950 . S
C1591 C1590 1.373 . S
C1591 C1607 1.377 . S
C1592 C1590 1.389 . S
C1592 C1593 1.524 . S
C1592 C1606 1.377 . S
C1593 C1592 1.524 . S
C1593 C1594 1.397 . S
C1593 C1598 1.363 . S
C1594 H1571 0.950 . S
C1594 C1593 1.397 . S
C1594 C1595 1.334 . S
C1595 H1572 0.950 . S
C1595 C1594 1.334 . S
C1595 C1596 1.287 . S
C1596 C1595 1.287 . S
C1596 C1597 1.524 . S
C1596 H1615 0.913 . S
C1597 H1573 0.950 . S
C1597 C1596 1.524 . S
C1597 C1598 1.415 . S
C1598 H1574 0.950 . S
C1598 C1593 1.363 . S
C1598 C1597 1.415 . S
C1599 H1575 0.951 . S
C1599 C1600 1.366 . S
C1599 C1601 1.388 . S
C1600 C1599 1.366 . S
C1600 C1604 1.385 . S
C1601 H1576 0.951 . S
C1601 C1599 1.388 . S
C1601 C1602 1.366 . S
C1602 C1601 1.366 . S
C1602 C1603 1.414 . S
C1602 C1605 1.499 . S
C1603 H1577 0.950 . S
C1603 C1602 1.414 . S
C1603 C1604 1.374 . S
C1604 H1578 0.950 . S
C1604 C1600 1.385 . S
C1604 C1603 1.374 . S
C1605 C1602 1.499 . S
C1605 C1606 1.373 . S
C1605 C1607 1.389 . S
C1606 H1579 0.950 . S
C1606 C1592 1.377 . S
C1606 C1605 1.373 . S
C1607 C1591 1.377 . S
C1607 C1605 1.389 . S
C1607 C1608 1.524 . S
C1608 C1607 1.524 . S
C1608 C1609 1.397 . S
C1608 C1613 1.363 . S
C1609 H1580 0.950 . S
C1609 C1608 1.397 . S
C1609 C1610 1.334 . S
C1610 H1581 0.950 . S
C1610 C1609 1.334 . S
C1610 C1611 1.287 . S
C1611 C1610 1.287 . S
C1611 C1612 1.524 . S
C1611 H1614 0.999 . S
C1612 H1582 0.950 . S
C1612 C1611 1.524 . S
C1612 C1613 1.415 . S
C1613 H1583 0.950 . S
C1613 C1608 1.363 . S
C1613 C1612 1.415 . S
H1614 C1611 0.999 . S
H1615 C1596 0.913 . S
C435 C215 0.877 . S
C450 C265 0.865 . S
C500 C305 1.590 . S
C485 C247 1.686 . S
C550 C354 1.559 . S
C535 C151 1.486 . S
C600 C385 2.014 . S
C585 C183 2.109 . S
C650 C274 0.864 . S
C635 C87 0.871 . S
C685 C119 1.545 . S
C700 C314 1.596 . S
C735 C23 1.617 1_556 S
C750 C345 1.558 . S
C785 C55 1.921 1_556 S
C800 C394 2.014 1_655 S
C850 C275 0.923 . S
C835 C189 0.898 . S
C900 C315 0.412 . S
C885 C221 0.549 . S
C950 C351 0.432 . S
C935 C253 0.404 . S
C985 C157 0.987 . S
C1000 C395 1.104 . S
C1035 C61 0.832 . S
C1050 C266 0.929 1_655 S
C1100 C306 0.412 . S
C1085 C93 0.550 1_565 S
C1150 C342 0.432 . S
C1135 C125 0.568 . S
C1185 C29 1.071 . S
C1200 C386 1.104 . S
C1235 C177 1.997 . S
C1250 C271 2.027 . S
C1285 C209 1.566 . S
C1300 C311 1.610 . S
C1350 C355 2.452 . S
C1335 C241 2.320 . S
C1400 C391 1.627 . S
C1385 C145 1.511 . S
C1435 C49 1.885 . S
C1450 C262 2.037 . S
C1500 C302 1.609 . S
C1485 C81 1.592 1_565 S
C1550 C346 2.452 . S
C1535 C113 2.191 . S
C1585 C17 1.624 . S
C1600 C382 1.626 . S
