# Generated by pormake.
# Topology pth, (4,4)-cn, num edge types: 1
# Building blocks:
#     Node 0, Type 0, BuildingBlock: CEKHIL_clean_sbu_0, # of connection points: 4
#     Node 1, Type 0, BuildingBlock: CEKHIL_clean_sbu_0, # of connection points: 4
#     Node 2, Type 0, BuildingBlock: CEKHIL_clean_sbu_0, # of connection points: 4
#     Node 3, Type 1, BuildingBlock: NAHDIM_clean_linker_0, # of connection points: 4
#     Node 4, Type 1, BuildingBlock: NAHDIM_clean_linker_0, # of connection points: 4
#     Node 5, Type 1, BuildingBlock: NAHDIM_clean_linker_0, # of connection points: 4
#     Edge 6, Type (0, 1), BuildingBlock: KIFKEQ_clean_linker_1, # of connection points: 2
#     Edge 7, Type (0, 1), BuildingBlock: KIFKEQ_clean_linker_1, # of connection points: 2
#     Edge 8, Type (0, 1), BuildingBlock: KIFKEQ_clean_linker_1, # of connection points: 2
#     Edge 9, Type (0, 1), BuildingBlock: KIFKEQ_clean_linker_1, # of connection points: 2
#     Edge 10, Type (0, 1), BuildingBlock: KIFKEQ_clean_linker_1, # of connection points: 2
#     Edge 11, Type (0, 1), BuildingBlock: KIFKEQ_clean_linker_1, # of connection points: 2
#     Edge 12, Type (0, 1), BuildingBlock: KIFKEQ_clean_linker_1, # of connection points: 2
#     Edge 13, Type (0, 1), BuildingBlock: KIFKEQ_clean_linker_1, # of connection points: 2
#     Edge 14, Type (0, 1), BuildingBlock: KIFKEQ_clean_linker_1, # of connection points: 2
#     Edge 15, Type (0, 1), BuildingBlock: KIFKEQ_clean_linker_1, # of connection points: 2
#     Edge 16, Type (0, 1), BuildingBlock: KIFKEQ_clean_linker_1, # of connection points: 2
#     Edge 17, Type (0, 1), BuildingBlock: KIFKEQ_clean_linker_1, # of connection points: 2
# Relax obj value: 0.007
# Max RMSD: 0.047
# Mean RMSD: 0.045
data_MOF--net-pth--node1-CEKHIL_clean_sbu_0--node2-NAHDIM_clean_linker_0--edge1-KIFKEQ_clean_linker_1
_symmetry_space_group_name_H-M    P1
_symmetry_Int_Tables_number       1
_symmetry_cell_setting            triclinic
loop_
_symmetry_equiv_pos_as_xyz
'x, y, z'
_cell_length_a     31.878527
_cell_length_b     31.973757
_cell_length_c     82.925706
_cell_angle_alpha  90.655045
_cell_angle_beta   90.567577
_cell_angle_gamma 120.31815
loop_
_atom_site_label
_atom_site_type_symbol
_atom_site_fract_x
_atom_site_fract_y
_atom_site_fract_z
_atom_type_partial_charge
Co0 Co 0.01416 0.0578 0.0456 0.0
O1 O 0.9863 0.00639 0.06075 0.0
O2 O 0.04502 0.01893 0.04396 0.0
C3 C 0.02487 0.11714 0.06284 0.0
O4 O 0.05266 0.10852 0.02874 0.0
Co5 Co 0.9584 0.10985 0.03639 0.0
O6 O 0.02011 0.15622 0.02599 0.0
C7 C 0.92621 0.01337 0.02248 0.0
C8 C 0.01623 0.99341 0.05546 0.0
C9 C 0.05325 0.14617 0.02305 0.0
O10 O 0.96373 0.01514 0.02905 0.0
O11 O 0.91526 0.04638 0.02472 0.0
O12 O 0.05632 0.10278 0.06218 0.0
O13 O 0.98536 0.09183 0.05432 0.0
Co14 Co 0.0256 0.07005 0.37054 0.0
O15 O 0.9914 0.08406 0.35444 0.0
O16 O 0.05868 0.13951 0.367 0.0
C17 C 0.0245 0.00827 0.35685 0.0
O18 O 0.07114 0.06759 0.3875 0.0
Co19 Co 0.97147 0.96947 0.38681 0.0
O20 O 0.03568 0.99191 0.39728 0.0
C21 C 0.94826 0.04455 0.39603 0.0
C22 C 0.02448 0.12926 0.3563 0.0
C23 C 0.0714 0.03516 0.39653 0.0
O24 O 0.9845 0.07578 0.38784 0.0
O25 O 0.93433 -0.00067 0.39592 0.0
O26 O 0.05745 0.05273 0.35396 0.0
O27 O 0.99101 0.00306 0.36663 0.0
Co28 Co 0.03543 0.05855 0.70064 0.0
O29 O 0.09113 0.09062 0.68705 0.0
O30 O 0.07746 0.03192 0.70387 0.0
C31 C 0.98035 0.04653 0.68123 0.0
O32 O 0.9814 0.01507 0.71592 0.0
Co33 Co 0.96861 0.10102 0.70731 0.0
O34 O 0.92469 0.03702 0.71667 0.0
C35 C 0.06524 0.14448 0.72338 0.0
C36 C 0.10472 0.06176 0.69289 0.0
C37 C 0.93966 0.00807 0.72026 0.0
O38 O 0.07068 0.10946 0.71812 0.0
O39 O 0.02893 0.14918 0.71941 0.0
O40 O 0.9967 0.01683 0.68259 0.0
O41 O 0.00012 0.084 0.69079 0.0
C42 C 0.98431 0.67535 0.31157 0.0
C43 C 0.01803 0.72109 0.30225 0.0
C44 C 0.01554 0.69694 0.27434 0.0
C45 C 0.06477 0.71412 0.27141 0.0
C46 C 0.07861 0.69068 0.26007 0.0
C47 C 0.04235 0.64934 0.25157 0.0
C48 C 0.99267 0.63408 0.25373 0.0
C49 C 0.97993 0.65864 0.265 0.0
C50 C 0.13188 0.70871 0.2577 0.0
C51 C 0.95302 0.5902 0.24484 0.0
C52 C 0.02467 0.33722 0.30248 0.0
C53 C 0.01897 0.36868 0.29062 0.0
C54 C 0.06412 0.44252 0.27542 0.0
C55 C 0.02395 0.43339 0.26561 0.0
C56 C 0.02666 0.468 0.25482 0.0
C57 C 0.07063 0.51265 0.25361 0.0
C58 C 0.11169 0.52146 0.263 0.0
C59 C 0.10789 0.48616 0.2738 0.0
C60 C 0.98194 0.45731 0.24505 0.0
C61 C 0.15918 0.56858 0.26187 0.0
C62 C 0.10495 0.44041 0.15385 0.0
C63 C 0.05733 0.43074 0.15622 0.0
C64 C 0.04889 0.46644 0.16274 0.0
C65 C 0.08884 0.51279 0.16669 0.0
C66 C 0.13661 0.52355 0.16329 0.0
C67 C 0.14399 0.48711 0.15682 0.0
C68 C 0.99741 0.45436 0.1658 0.0
C69 C 0.17986 0.573 0.16701 0.0
C70 C 0.01405 0.7927 0.15042 0.0
C71 C 0.04378 0.7848 0.1376 0.0
C72 C 0.03561 0.70712 0.14438 0.0
C73 C 0.99762 0.66161 0.14863 0.0
C74 C 0.00611 0.63116 0.15849 0.0
C75 C 0.05403 0.64645 0.16391 0.0
C76 C 0.09287 0.69184 0.15922 0.0
C77 C 0.08328 0.72172 0.14946 0.0
C78 C 0.96393 0.58275 0.16316 0.0
C79 C 0.14453 0.7086 0.16446 0.0
C80 C 0.05596 0.6181 0.24237 0.0
C81 C 0.06238 0.58472 0.25118 0.0
C82 C 0.07182 0.55132 0.24355 0.0
C83 C 0.0762 0.55178 0.22661 0.0
C84 C 0.08619 0.51899 0.21856 0.0
C85 C 0.08823 0.51821 0.20183 0.0
C86 C 0.08036 0.55024 0.19251 0.0
C87 C 0.08089 0.5487 0.17548 0.0
C88 C 0.07259 0.58067 0.16655 0.0
C89 C 0.06365 0.61449 0.17421 0.0
C90 C 0.06314 0.61681 0.19125 0.0
C91 C 0.05431 0.65044 0.19936 0.0
C92 C 0.05271 0.65153 0.21614 0.0
C93 C 0.05951 0.6188 0.2254 0.0
C94 C 0.06946 0.58529 0.21749 0.0
C95 C 0.07128 0.58433 0.20041 0.0
C96 C 0.12035 0.34549 0.16322 0.0
C97 C 0.08905 0.35708 0.15214 0.0
O98 O 0.00152 0.71583 0.28642 0.0
O99 O 0.02522 0.73555 0.13511 0.0
O100 O 0.11473 0.40596 0.14858 0.0
O101 O 0.06151 0.41053 0.28666 0.0
H102 H 0.05495 0.72548 0.30282 0.0
H103 H 0.98511 0.64376 0.30621 0.0
H104 H 0.94625 0.66776 0.31105 0.0
H105 H 0.99652 0.67957 0.32438 0.0
H106 H 0.09234 0.74522 0.2782 0.0
H107 H 0.94203 0.64635 0.26721 0.0
H108 H 0.14131 0.68294 0.2632 0.0
H109 H 0.1554 0.7451 0.26334 0.0
H110 H 0.13981 0.71041 0.24464 0.0
H111 H 0.91621 0.58375 0.24762 0.0
H112 H 0.95482 0.55759 0.24814 0.0
H113 H 0.95839 0.59479 0.23164 0.0
H114 H 0.98874 0.37568 0.29327 0.0
H115 H 0.00434 0.33782 0.31342 0.0
H116 H 0.06177 0.36 0.30827 0.0
H117 H 0.0046 0.27373 0.2891 0.0
H118 H 0.98993 0.39956 0.26644 0.0
H119 H 0.13886 0.49291 0.28127 0.0
H120 H 0.98934 0.45745 0.232 0.0
H121 H 0.97264 0.48592 0.24734 0.0
H122 H 0.94994 0.42163 0.24791 0.0
H123 H 0.18905 0.56798 0.26868 0.0
H124 H 0.15476 0.59857 0.26676 0.0
H125 H 0.1696 0.57649 0.24904 0.0
H126 H 0.05539 0.34743 0.15883 0.0
H127 H 0.02669 0.3955 0.15303 0.0
H128 H 0.18051 0.49448 0.15454 0.0
H129 H 0.99263 0.45737 0.17893 0.0
H130 H 0.97018 0.41721 0.16151 0.0
H131 H 0.99011 0.48076 0.15965 0.0
H132 H 0.21436 0.5765 0.1627 0.0
H133 H 0.18308 0.57991 0.18024 0.0
H134 H 0.17458 0.60132 0.16132 0.0
H135 H 0.08205 0.80276 0.14205 0.0
H136 H 0.0281 0.83205 0.15239 0.0
H137 H 0.01685 0.77724 0.16204 0.0
H138 H 0.97511 0.7747 0.14668 0.0
H139 H 0.96106 0.65042 0.14445 0.0
H140 H 0.11324 0.75589 0.14558 0.0
H141 H 0.96187 0.58038 0.17651 0.0
H142 H 0.96973 0.55325 0.15865 0.0
H143 H 0.92869 0.57664 0.15825 0.0
H144 H 0.17074 0.74493 0.15979 0.0
H145 H 0.155 0.6822 0.16013 0.0
H146 H 0.1473 0.71004 0.17783 0.0
H147 H 0.05807 0.58347 0.26417 0.0
H148 H 0.09224 0.49335 0.22512 0.0
H149 H 0.09568 0.49187 0.19629 0.0
H150 H 0.0727 0.57893 0.15348 0.0
H151 H 0.04826 0.6761 0.19282 0.0
H152 H 0.04557 0.67798 0.22177 0.0
H153 H 0.1006 0.30641 0.1662 0.0
H154 H 0.12877 0.36697 0.17464 0.0
H155 H 0.15513 0.35462 0.15739 0.0
C156 C 0.37996 0.00098 0.64334 0.0
C157 C 0.37049 0.03846 0.63533 0.0
C158 C 0.38899 0.03735 0.60717 0.0
C159 C 0.42469 0.08569 0.60464 0.0
C160 C 0.46121 0.09729 0.59331 0.0
C161 C 0.46196 0.05968 0.58439 0.0
C162 C 0.42399 0.01117 0.58615 0.0
C163 C 0.38752 0.00069 0.59743 0.0
C164 C 0.50047 0.1495 0.5915 0.0
C165 C 0.4236 0.97019 0.57682 0.0
C166 C 0.76221 0.02013 0.62831 0.0
C167 C 0.72034 0.01359 0.6183 0.0
C168 C 0.68672 0.06086 0.60697 0.0
C169 C 0.65335 0.02342 0.59659 0.0
C170 C 0.62142 0.03001 0.58666 0.0
C171 C 0.62295 0.075 0.58704 0.0
C172 C 0.6568 0.11297 0.59731 0.0
C173 C 0.68832 0.10535 0.60716 0.0
C174 C 0.58553 0.9886 0.5759 0.0
C175 C 0.65933 0.16136 0.59794 0.0
C176 C 0.75094 0.16637 0.48909 0.0
C177 C 0.71793 0.11691 0.49128 0.0
C178 C 0.67202 0.10151 0.49783 0.0
C179 C 0.65923 0.13638 0.50241 0.0
C180 C 0.69181 0.18607 0.49962 0.0
C181 C 0.73706 0.20031 0.49279 0.0
C182 C 0.63745 0.04809 0.50006 0.0
C183 C 0.67923 0.22422 0.50417 0.0
C184 C 0.301 0.03071 0.48437 0.0
C185 C 0.33181 0.07741 0.47505 0.0
C186 C 0.41078 0.08493 0.47763 0.0
C187 C 0.42249 0.04843 0.47848 0.0
C188 C 0.46077 0.05394 0.48848 0.0
C189 C 0.4887 0.09767 0.49744 0.0
C190 C 0.47826 0.13559 0.49601 0.0
C191 C 0.43897 0.12857 0.48622 0.0
C192 C 0.47095 0.0128 0.48966 0.0
C193 C 0.50846 0.18336 0.50488 0.0
C194 C 0.50627 0.07023 0.57543 0.0
C195 C 0.54399 0.07088 0.58437 0.0
C196 C 0.58743 0.08109 0.57717 0.0
C197 C 0.59449 0.09263 0.56067 0.0
C198 C 0.63881 0.1056 0.55329 0.0
C199 C 0.6451 0.11588 0.53695 0.0
C200 C 0.6069 0.11238 0.52728 0.0
C201 C 0.61248 0.12124 0.51054 0.0
C202 C 0.57346 0.11648 0.50125 0.0
C203 C 0.52888 0.10363 0.50822 0.0
C204 C 0.52291 0.09574 0.52502 0.0
C205 C 0.47888 0.0837 0.53254 0.0
C206 C 0.47355 0.0762 0.5491 0.0
C207 C 0.51154 0.07906 0.55868 0.0
C208 C 0.55606 0.09069 0.55132 0.0
C209 C 0.56199 0.09974 0.53453 0.0
C210 C 0.87353 0.20355 0.49443 0.0
C211 C 0.82582 0.16356 0.48689 0.0
O212 O 0.3568 0.02524 0.6193 0.0
O213 O 0.37164 0.07709 0.46864 0.0
O214 O 0.79623 0.18257 0.48335 0.0
O215 O 0.71764 0.05537 0.61695 0.0
H216 H 0.40509 0.07388 0.63621 0.0
H217 H 0.41071 0.00037 0.63739 0.0
H218 H 0.34743 0.96411 0.64229 0.0
H219 H 0.3897 0.0105 0.65631 0.0
H220 H 0.42463 0.11421 0.6118 0.0
H221 H 0.35927 0.96353 0.59933 0.0
H222 H 0.53493 0.15506 0.59694 0.0
H223 H 0.49111 0.17488 0.59751 0.0
H224 H 0.50695 0.15849 0.57853 0.0
H225 H 0.3899 0.93495 0.57874 0.0
H226 H 0.45532 0.96697 0.58064 0.0
H227 H 0.42703 0.97795 0.56374 0.0
H228 H 0.68475 0.98108 0.62117 0.0
H229 H 0.74545 0.99617 0.63899 0.0
H230 H 0.77576 0.05497 0.63544 0.0
H231 H 0.80544 0.00932 0.61182 0.0
H232 H 0.65174 0.9888 0.59623 0.0
H233 H 0.71424 0.13408 0.61515 0.0
H234 H 0.59221 -0.00052 0.5631 0.0
H235 H 0.54794 0.97981 0.57864 0.0
H236 H 0.588 0.95541 0.57736 0.0
H237 H 0.6897 0.18818 0.6058 0.0
H238 H 0.62466 0.1566 0.60258 0.0
H239 H 0.66393 0.17604 0.5856 0.0
H240 H 0.80889 0.13479 0.49608 0.0
H241 H 0.72786 0.09034 0.4878 0.0
H242 H 0.76255 0.23831 0.49077 0.0
H243 H 0.63317 0.0402 0.51314 0.0
H244 H 0.65051 0.02539 0.49425 0.0
H245 H 0.60103 0.03759 0.49496 0.0
H246 H 0.70951 0.2615 0.50193 0.0
H247 H 0.66988 0.22137 0.51713 0.0
H248 H 0.64681 0.21808 0.49709 0.0
H249 H 0.34423 0.10888 0.48353 0.0
H250 H 0.26878 0.03029 0.48955 0.0
H251 H 0.32273 0.0283 0.49449 0.0
H252 H 0.28854 0.99844 0.4763 0.0
H253 H 0.40051 0.015 0.47166 0.0
H254 H 0.43036 0.15717 0.48518 0.0
H255 H 0.47114 0.0033 0.50249 0.0
H256 H 0.5075 0.02435 0.48484 0.0
H257 H 0.4437 0.97992 0.48284 0.0
H258 H 0.49856 0.21069 0.50129 0.0
H259 H 0.54763 0.19794 0.50255 0.0
H260 H 0.50323 0.17778 0.51806 0.0
H261 H 0.5391 0.06242 0.5971 0.0
H262 H 0.66923 0.10823 0.56011 0.0
H263 H 0.68015 0.12598 0.53196 0.0
H264 H 0.57784 0.12283 0.48838 0.0
H265 H 0.44812 0.08021 0.52571 0.0
H266 H 0.43906 0.0674 0.55429 0.0
H267 H 0.89243 0.23422 0.48604 0.0
H268 H 0.89788 0.18916 0.49743 0.0
H269 H 0.86601 0.21739 0.50573 0.0
C270 C 0.7128 0.66334 0.77272 0.0
C271 C 0.7102 0.70531 0.78071 0.0
C272 C 0.68604 0.68711 0.80832 0.0
C273 C 0.65503 0.70525 0.81133 0.0
C274 C 0.61674 0.68218 0.82218 0.0
C275 C 0.60901 0.63961 0.82989 0.0
C276 C 0.64123 0.622 0.8271 0.0
C277 C 0.68 0.64665 0.81653 0.0
C278 C 0.58377 0.70252 0.82504 0.0
C279 C 0.63361 0.5761 0.83475 0.0
C280 C 0.32399 0.47957 0.7687 0.0
C281 C 0.3276 0.44328 0.77964 0.0
C282 C 0.35631 0.47348 0.80686 0.0
C283 C 0.38842 0.45644 0.8097 0.0
C284 C 0.42704 0.48025 0.82085 0.0
C285 C 0.43373 0.52217 0.82917 0.0
C286 C 0.40012 0.53822 0.82676 0.0
C287 C 0.3612 0.51299 0.81579 0.0
C288 C 0.46143 0.46139 0.82343 0.0
C289 C 0.40636 0.58301 0.83529 0.0
C290 C 0.36221 0.42974 0.93332 0.0
C291 C 0.39207 0.41795 0.92429 0.0
C292 C 0.43202 0.45369 0.91599 0.0
C293 C 0.44165 0.50203 0.91631 0.0
C294 C 0.41187 0.51411 0.92544 0.0
C295 C 0.37294 0.47786 0.93402 0.0
C296 C 0.46411 0.43971 0.90691 0.0
C297 C 0.42093 0.5652 0.92601 0.0
C298 C 0.83388 0.77044 0.92731 0.0
C299 C 0.78575 0.76475 0.9329 0.0
C300 C 0.70781 0.68914 0.93098 0.0
C301 C 0.68967 0.63985 0.92803 0.0
C302 C 0.64345 0.61057 0.921 0.0
C303 C 0.61441 0.63117 0.91723 0.0
C304 C 0.63116 0.68026 0.92134 0.0
C305 C 0.67791 0.7089 0.92812 0.0
C306 C 0.62643 0.55815 0.91702 0.0
C307 C 0.60033 0.70282 0.91804 0.0
C308 C 0.56474 0.61095 0.83956 0.0
C309 C 0.52102 0.58211 0.83114 0.0
C310 C 0.4782 0.55158 0.83919 0.0
C311 C 0.47872 0.54911 0.85619 0.0
C312 C 0.43668 0.51751 0.86465 0.0
C313 C 0.43786 0.51486 0.88138 0.0
C314 C 0.48119 0.54355 0.89028 0.0
C315 C 0.48326 0.53978 0.90723 0.0
C316 C 0.52669 0.56968 0.91572 0.0
C317 C 0.56869 0.60257 0.9077 0.0
C318 C 0.56769 0.60593 0.89072 0.0
C319 C 0.60974 0.6376 0.88222 0.0
C320 C 0.60873 0.63981 0.86549 0.0
C321 C 0.56575 0.61023 0.8566 0.0
C322 C 0.52267 0.57877 0.86493 0.0
C323 C 0.52375 0.57636 0.882 0.0
C324 C 0.26333 0.33812 0.92322 0.0
C325 C 0.29564 0.34685 0.93815 0.0
O326 O 0.72085 0.70733 0.79705 0.0
O327 O 0.75439 0.71652 0.93641 0.0
O328 O 0.32324 0.39619 0.94161 0.0
O329 O 0.32059 0.45263 0.79546 0.0
H330 H 0.67241 0.69819 0.77886 0.0
H331 H 0.68571 0.62858 0.77815 0.0
H332 H 0.74954 0.66796 0.77444 0.0
H333 H 0.70443 0.66131 0.75959 0.0
H334 H 0.66051 0.73705 0.805 0.0
H335 H 0.70446 0.63319 0.81408 0.0
H336 H 0.5481 0.67874 0.81896 0.0
H337 H 0.59912 0.73968 0.82028 0.0
H338 H 0.57722 0.70339 0.83814 0.0
H339 H 0.65917 0.56491 0.83015 0.0
H340 H 0.59582 0.5461 0.83241 0.0
H341 H 0.63896 0.58165 0.848 0.0
H342 H 0.36456 0.44825 0.77817 0.0
H343 H 0.3303 0.47349 0.75595 0.0
H344 H 0.352 0.51707 0.77239 0.0
H345 H 0.28757 0.47604 0.76957 0.0
H346 H 0.38342 0.42474 0.8031 0.0
H347 H 0.33563 0.5253 0.8136 0.0
H348 H 0.46811 0.4599 0.83653 0.0
H349 H 0.49687 0.48649 0.81792 0.0
H350 H 0.44726 0.42474 0.81793 0.0
H351 H 0.37822 0.59186 0.83154 0.0
H352 H 0.44278 0.61444 0.83278 0.0
H353 H 0.40426 0.57763 0.84852 0.0
H354 H 0.31963 0.33171 0.93582 0.0
H355 H 0.38524 0.38127 0.92383 0.0
H356 H 0.34996 0.48676 0.94107 0.0
H357 H 0.45914 0.44198 0.89375 0.0
H358 H 0.45562 0.40228 0.90956 0.0
H359 H 0.50295 0.46519 0.91 0.0
H360 H 0.39214 0.56791 0.93256 0.0
H361 H 0.4229 0.57848 0.91356 0.0
H362 H 0.45644 0.58945 0.93211 0.0
H363 H 0.77107 0.7762 0.92269 0.0
H364 H 0.85962 0.80873 0.92421 0.0
H365 H 0.82748 0.74739 0.91638 0.0
H366 H 0.85064 0.75923 0.93688 0.0
H367 H 0.71278 0.62484 0.93061 0.0
H368 H 0.69114 0.74668 0.93105 0.0
H369 H 0.61829 0.55109 0.90389 0.0
H370 H 0.59232 0.53444 0.92348 0.0
H371 H 0.65386 0.54798 0.92042 0.0
H372 H 0.61563 0.73917 0.92389 0.0
H373 H 0.56285 0.679 0.92238 0.0
H374 H 0.59785 0.70667 0.90483 0.0
H375 H 0.52044 0.58295 0.81806 0.0
H376 H 0.40246 0.49424 0.8584 0.0
H377 H 0.40441 0.48983 0.88725 0.0
H378 H 0.52819 0.56634 0.92869 0.0
H379 H 0.64409 0.66087 0.88838 0.0
H380 H 0.64216 0.66479 0.8596 0.0
H381 H 0.24088 0.29873 0.92036 0.0
H382 H 0.28614 0.35613 0.91263 0.0
H383 H 0.23893 0.35302 0.92527 0.0
H384 H 0.10824 0.1791 0.07891 0.0
H385 H 0.96036 0.14638 0.07124 0.0
H386 H 0.12134 0.24099 0.09876 0.0
H387 H 0.97381 0.20948 0.09116 0.0
H388 H 0.00438 0.27304 0.14439 0.0
H389 H 0.98709 0.21951 0.1209 0.0
H390 H 0.12821 0.31983 0.102 0.0
H391 H 0.14578 0.37257 0.12564 0.0
C392 C 0.07865 0.18562 0.08132 0.0
C393 C 0.03317 0.15772 0.0736 0.0
C394 C 0.08631 0.22141 0.09263 0.0
C395 C 0.04864 0.23021 0.09651 0.0
C396 C 0.00339 0.20321 0.08848 0.0
C397 C 0.99578 0.16736 0.07704 0.0
C398 C 0.03126 0.28391 0.13506 0.0
C399 C 0.07623 0.32707 0.13676 0.0
C400 C 0.0213 0.25346 0.12158 0.0
C401 C 0.05633 0.26544 0.10962 0.0
C402 C 0.10068 0.30941 0.11109 0.0
C403 C 0.11064 0.33975 0.12455 0.0
H404 H 0.97606 0.13833 0.40452 0.0
H405 H 0.86463 0.9899 0.41265 0.0
H406 H 0.94104 0.16567 0.42519 0.0
H407 H 0.8291 0.01741 0.43301 0.0
H408 H 0.84857 0.20328 0.45665 0.0
H409 H 0.87228 0.17386 0.43306 0.0
H410 H 0.85261 0.05059 0.46007 0.0
H411 H 0.82803 0.07954 0.48341 0.0
C412 C 0.94362 0.11157 0.41049 0.0
C413 C 0.92357 0.06185 0.40704 0.0
C414 C 0.92338 0.1273 0.42231 0.0
C415 C 0.88253 0.09368 0.43088 0.0
C416 C 0.86115 0.04418 0.42686 0.0
C417 C 0.88144 0.02845 0.41512 0.0
C418 C 0.84848 0.16943 0.45738 0.0
C419 C 0.8358 0.14329 0.47177 0.0
C420 C 0.86246 0.15281 0.44395 0.0
C421 C 0.86427 0.10981 0.44465 0.0
C422 C 0.85077 0.08335 0.45899 0.0
C423 C 0.83685 0.09998 0.47239 0.0
H424 H 0.85264 0.98509 0.73357 0.0
H425 H 0.95392 0.93339 0.72894 0.0
H426 H 0.79912 0.91414 0.749 0.0
H427 H 0.89952 0.86162 0.74417 0.0
H428 H 0.80971 0.76077 0.78492 0.0
H429 H 0.86635 0.83497 0.77103 0.0
H430 H 0.7461 0.82815 0.74418 0.0
H431 H 0.6898 0.75483 0.75827 0.0
C432 C 0.86352 0.95856 0.73579 0.0
C433 C 0.90762 0.96498 0.72992 0.0
C434 C 0.83262 0.91769 0.7446 0.0
C435 C 0.84486 0.88204 0.74775 0.0
C436 C 0.88924 0.88867 0.74209 0.0
C437 C 0.9203 0.92969 0.73328 0.0
C438 C 0.79552 0.77565 0.77619 0.0
C439 C 0.7453 0.75263 0.77289 0.0
C440 C 0.82791 0.81779 0.76813 0.0
C441 C 0.81073 0.83763 0.75654 0.0
C442 C 0.76048 0.8144 0.75324 0.0
C443 C 0.72821 0.77234 0.76128 0.0
H444 H 0.09228 0.97624 0.05597 0.0
H445 H 0.94602 0.92094 0.07267 0.0
H446 H 0.10014 0.91812 0.07293 0.0
H447 H 0.95381 0.86359 0.08955 0.0
H448 H 0.97021 0.75052 0.11462 0.0
H449 H 0.964 0.79291 0.09117 0.0
H450 H 0.1062 0.915 0.1027 0.0
H451 H 0.11261 0.8723 0.12591 0.0
C452 C 0.06152 0.95097 0.06296 0.0
C453 C 0.01877 0.95339 0.06317 0.0
C454 C 0.06609 0.91796 0.07274 0.0
C455 C 0.02773 0.88653 0.08267 0.0
C456 C 0.9839 0.88694 0.08196 0.0
C457 C 0.97957 0.92011 0.07237 0.0
C458 C 0.00053 0.78594 0.11189 0.0
C459 C 0.04208 0.80799 0.122 0.0
C460 C 0.99692 0.81029 0.09853 0.0
C461 C 0.03463 0.8573 0.09508 0.0
C462 C 0.07689 0.87851 0.10485 0.0
C463 C 0.08046 0.85422 0.1182 0.0
H464 H 0.06921 0.00314 0.42667 0.0
H465 H 0.16834 0.09657 0.39072 0.0
H466 H 0.13764 0.02167 0.44465 0.0
H467 H 0.2375 0.11403 0.40876 0.0
H468 H 0.32158 0.04893 0.44272 0.0
H469 H 0.26325 0.04698 0.42282 0.0
H470 H 0.211 0.10895 0.45817 0.0
H471 H 0.27017 0.11239 0.47796 0.0
C472 C 0.10572 0.02762 0.42261 0.0
C473 C 0.11357 0.0484 0.40731 0.0
C474 C 0.14475 0.03835 0.43293 0.0
C475 C 0.19255 0.06927 0.42805 0.0
C476 C 0.20078 0.09011 0.41274 0.0
C477 C 0.16141 0.08031 0.4025 0.0
C478 C 0.29875 0.06356 0.4461 0.0
C479 C 0.30099 0.08161 0.46186 0.0
C480 C 0.26547 0.06244 0.43471 0.0
C481 C 0.23311 0.07814 0.43901 0.0
C482 C 0.23596 0.09705 0.45458 0.0
C483 C 0.26973 0.09902 0.46586 0.0
H484 H 0.15423 0.15664 0.73234 0.0
H485 H 0.06177 0.21809 0.73901 0.0
H486 H 0.21796 0.22294 0.74864 0.0
H487 H 0.12534 0.28432 0.75472 0.0
H488 H 0.23345 0.38641 0.7902 0.0
H489 H 0.17081 0.30816 0.77934 0.0
H490 H 0.27325 0.30882 0.74543 0.0
H491 H 0.33647 0.38618 0.75685 0.0
C492 C 0.14731 0.18397 0.73736 0.0
C493 C 0.10297 0.18216 0.73423 0.0
C494 C 0.18392 0.22209 0.74662 0.0
C495 C 0.17683 0.25903 0.75298 0.0
C496 C 0.1319 0.2562 0.75026 0.0
C497 C 0.09549 0.21829 0.74106 0.0
C498 C 0.24293 0.36922 0.78073 0.0
C499 C 0.29007 0.39212 0.7745 0.0
C500 C 0.2069 0.32458 0.77438 0.0
C501 C 0.21685 0.30233 0.76141 0.0
C502 C 0.26444 0.3245 0.75556 0.0
C503 C 0.30061 0.36892 0.76203 0.0
H504 H 0.92743 0.96744 0.66155 0.0
H505 H 0.94826 0.10852 0.67377 0.0
H506 H 0.86756 0.95657 0.64087 0.0
H507 H 0.88811 0.0974 0.65319 0.0
H508 H 0.80706 0.09908 0.60087 0.0
H509 H 0.87875 0.10781 0.62442 0.0
H510 H 0.78373 0.92919 0.63457 0.0
H511 H 0.70986 0.91603 0.61136 0.0
C512 C 0.91897 0.99596 0.65987 0.0
C513 C 0.94254 0.03884 0.66924 0.0
C514 C 0.88449 0.98963 0.6481 0.0
C515 C 0.87335 0.02623 0.6454 0.0
C516 C 0.8966 0.06892 0.65484 0.0
C517 C 0.93073 0.07509 0.66671 0.0
C518 C 0.80392 0.06745 0.60663 0.0
C519 C 0.74648 0.00769 0.60582 0.0
C520 C 0.84708 0.07276 0.62185 0.0
C521 C 0.83786 0.02014 0.63277 0.0
C522 C 0.78751 0.96006 0.62812 0.0
C523 C 0.74237 0.95103 0.61314 0.0
H524 H 0.84994 -0.00046 0.00284 0.0
H525 H 0.93498 0.93415 0.01642 0.0
H526 H 0.8065 0.93528 0.98254 0.0
H527 H 0.89279 0.87132 0.99603 0.0
H528 H 0.80066 0.85676 0.9338 0.0
H529 H 0.82654 0.91334 0.95675 0.0
H530 H 0.81725 0.80164 0.98792 0.0
H531 H 0.79301 0.74579 0.96484 0.0
C532 C 0.8591 0.97134 0.00162 0.0
C533 C 0.89627 0.97232 0.0112 0.0
C534 C 0.83439 0.93469 0.98993 0.0
C535 C 0.84625 0.89822 0.98762 0.0
C536 C 0.88216 0.89835 0.99761 0.0
C537 C 0.90675 0.9348 0.00925 0.0
C538 C 0.80326 0.84417 0.94563 0.0
C539 C 0.79439 0.79682 0.94757 0.0
C540 C 0.81785 0.87645 0.9588 0.0
C541 C 0.82412 0.86207 0.97417 0.0
C542 C 0.81334 0.81404 0.9762 0.0
C543 C 0.79902 0.78189 0.96303 0.0
H544 H 0.0947 0.00952 0.33798 0.0
H545 H 0.95463 0.91299 0.35835 0.0
H546 H 0.09361 0.94058 0.32453 0.0
H547 H 0.95367 0.84414 0.34494 0.0
H548 H 0.94594 0.74416 0.3032 0.0
H549 H 0.94816 0.81394 0.3165 0.0
H550 H 0.09643 0.8662 0.33207 0.0
H551 H 0.09415 0.79644 0.31878 0.0
C552 C 0.0638 0.97357 0.33963 0.0
C553 C 0.02471 0.96657 0.34919 0.0
C554 C 0.06327 0.93415 0.33198 0.0
C555 C 0.02347 0.8871 0.33365 0.0
C556 C 0.98454 0.88011 0.3433 0.0
C557 C 0.98525 0.91946 0.35105 0.0
C558 C 0.97896 0.77068 0.30945 0.0
C559 C 0.01989 0.76503 0.30995 0.0
C560 C 0.98018 0.81039 0.31711 0.0
C561 C 0.02244 0.84536 0.32534 0.0
C562 C 0.06354 0.84 0.32569 0.0
C563 C 0.06219 0.80008 0.31813 0.0
H564 H 0.12729 0.99019 0.69577 0.0
H565 H 0.17682 0.13009 0.67469 0.0
H566 H 0.19232 0.98471 0.68221 0.0
H567 H 0.24175 0.1247 0.66128 0.0
H568 H 0.38001 0.11584 0.65309 0.0
H569 H 0.3179 0.12221 0.66813 0.0
H570 H 0.21094 0.97678 0.65278 0.0
H571 H 0.27313 0.97056 0.63756 0.0
C572 C 0.15245 0.02003 0.68844 0.0
C573 C 0.14698 0.06055 0.68627 0.0
C574 C 0.18935 0.01669 0.68058 0.0
C575 C 0.22187 0.05416 0.67062 0.0
C576 C 0.21738 0.09539 0.66894 0.0
C577 C 0.18013 0.09841 0.67659 0.0
C578 C 0.34317 0.08535 0.65285 0.0
C579 C 0.33136 0.04275 0.64411 0.0
C580 C 0.30767 0.089 0.66146 0.0
C581 C 0.25968 0.04993 0.66167 0.0
C582 C 0.2478 0.00724 0.65298 0.0
C583 C 0.28322 0.00379 0.6442 0.0
H584 H 0.13482 0.14272 0.01483 0.0
H585 H 0.0608 0.22261 0.00626 0.0
H586 H 0.19719 0.19394 0.99582 0.0
H587 H 0.12181 0.27233 0.98697 0.0
H588 H 0.25695 0.37971 0.9616 0.0
H589 H 0.20338 0.33403 0.98347 0.0
H590 H 0.20621 0.20632 0.96747 0.0
H591 H 0.26154 0.25277 0.9461 0.0
C592 C 0.13179 0.17113 0.00891 0.0
C593 C 0.0926 0.1783 0.01206 0.0
C594 C 0.16743 0.20036 0.99794 0.0
C595 C 0.16455 0.23726 0.98979 0.0
C596 C 0.12578 0.24488 0.99318 0.0
C597 C 0.09044 0.21596 0.00419 0.0
C598 C 0.24688 0.34216 0.96296 0.0
C599 C 0.26437 0.32008 0.95235 0.0
C600 C 0.21573 0.31576 0.9754 0.0
C601 C 0.20047 0.2664 0.9773 0.0
C602 C 0.21797 0.24444 0.96664 0.0
C603 C 0.24947 0.27095 0.95433 0.0
H604 H 0.09819 0.22192 0.34976 0.0
H605 H 0.94691 0.1188 0.33946 0.0
H606 H 0.09479 0.27769 0.33027 0.0
H607 H 0.94381 0.17292 0.32014 0.0
H608 H 0.9172 0.28572 0.28769 0.0
H609 H 0.92732 0.23326 0.31391 0.0
H610 H 0.1021 0.29454 0.30075 0.0
H611 H 0.09627 0.34938 0.27401 0.0
C612 C 0.06418 0.21153 0.34354 0.0
C613 C 0.02283 0.16602 0.34611 0.0
C614 C 0.06231 0.2432 0.33232 0.0
C615 C 0.01893 0.22996 0.32376 0.0
C616 C 0.97751 0.18509 0.32677 0.0
C617 C 0.97943 0.1536 0.33778 0.0
C618 C 0.95078 0.28566 0.28966 0.0
C619 C 0.00811 0.33006 0.27994 0.0
C620 C 0.95832 0.25513 0.30649 0.0
C621 C 0.01662 0.26066 0.31102 0.0
C622 C 0.06871 0.29452 0.29833 0.0
C623 C 0.06479 0.32659 0.28113 0.0
loop_
_geom_bond_atom_site_label_1
_geom_bond_atom_site_label_2
_geom_bond_distance
_geom_bond_site_symmetry_2
_ccdc_geom_bond_type
Co0 O1 2.216 . S
Co0 O2 2.091 . S
Co0 O4 2.004 . S
Co0 O10 2.021 . S
Co0 O12 2.137 . S
Co0 O13 2.244 . S
O1 Co0 2.216 . S
O1 C8 1.247 1_545 S
O2 Co0 2.091 . S
O2 C8 1.261 1_545 S
C3 O12 1.247 . S
C3 O13 1.272 . S
O4 Co0 2.004 . S
O4 C9 1.259 . S
Co5 O6 2.061 1_655 S
Co5 O11 2.052 . S
Co5 O13 2.135 1_655 S
O6 Co5 2.061 1_455 S
O6 C9 1.235 . S
C7 O10 1.238 1_655 S
C7 O11 1.241 . S
C8 O1 1.247 1_565 S
C8 O2 1.261 1_565 S
C9 O4 1.259 . S
C9 O6 1.235 . S
O10 Co0 2.021 . S
O10 C7 1.238 1_455 S
O11 Co5 2.052 . S
O11 C7 1.241 . S
O12 Co0 2.137 . S
O12 C3 1.247 . S
O13 Co0 2.244 . S
O13 C3 1.272 . S
O13 Co5 2.135 1_455 S
Co14 O15 2.216 . S
Co14 O16 2.091 . S
Co14 O18 2.004 . S
Co14 O24 2.021 . S
Co14 O26 2.137 . S
Co14 O27 2.244 . S
O15 Co14 2.216 . S
O15 C22 1.247 . S
O16 Co14 2.091 . S
O16 C22 1.261 . S
C17 O26 1.247 . S
C17 O27 1.272 . S
O18 Co14 2.004 . S
O18 C23 1.259 . S
Co19 O20 2.061 1_565 S
Co19 O25 2.052 1_465 S
Co19 O27 2.135 1_565 S
O20 Co19 2.061 1_545 S
O20 C23 1.235 . S
C21 O24 1.238 1_655 S
C21 O25 1.241 . S
C22 O15 1.247 . S
C22 O16 1.261 . S
C23 O18 1.259 . S
C23 O20 1.235 . S
O24 Co14 2.021 . S
O24 C21 1.238 1_455 S
O25 Co19 2.052 1_645 S
O25 C21 1.241 . S
O26 Co14 2.137 . S
O26 C17 1.247 . S
O27 Co14 2.244 . S
O27 C17 1.272 . S
O27 Co19 2.135 1_545 S
Co28 O29 2.216 . S
Co28 O30 2.091 . S
Co28 O32 2.004 1_445 S
Co28 O38 2.021 . S
Co28 O40 2.137 1_455 S
Co28 O41 2.224 1_455 S
O29 Co28 2.216 . S
O29 C36 1.247 . S
O30 Co28 2.091 . S
O30 C36 1.261 . S
C31 O40 1.247 . S
C31 O41 1.275 . S
O32 Co28 2.004 1_665 S
O32 C37 1.259 . S
Co33 O34 2.061 . S
Co33 O39 2.052 1_655 S
Co33 O41 2.142 . S
O34 Co33 2.061 . S
O34 C37 1.235 1_545 S
C35 O38 1.238 . S
C35 O39 1.241 . S
C36 O29 1.247 . S
C36 O30 1.261 . S
C37 O32 1.259 . S
C37 O34 1.235 1_565 S
O38 Co28 2.021 . S
O38 C35 1.238 . S
O39 Co33 2.052 1_455 S
O39 C35 1.241 . S
O40 Co28 2.137 1_655 S
O40 C31 1.247 . S
O41 Co28 2.224 1_655 S
O41 C31 1.275 . S
O41 Co33 2.142 . S
C42 C43 1.560 1_655 S
C42 H103 0.959 . S
C42 H104 0.959 . S
C42 H105 0.960 . S
C43 C42 1.560 1_455 S
C43 O98 1.426 1_455 S
C43 H102 0.980 . S
C44 C45 1.407 . S
C44 C49 1.418 1_455 S
C44 O98 1.334 1_455 S
C45 C44 1.407 . S
C45 C46 1.360 . S
C45 H106 0.929 . S
C46 C45 1.360 . S
C46 C47 1.401 . S
C46 C50 1.527 . S
C47 C46 1.401 . S
C47 C48 1.405 1_455 S
C47 C80 1.587 . S
C48 C47 1.405 1_655 S
C48 C49 1.332 . S
C48 C51 1.496 . S
C49 C44 1.418 1_655 S
C49 C48 1.332 . S
C49 H107 0.929 . S
C50 C46 1.527 . S
C50 H108 0.959 . S
C50 H109 0.961 . S
C50 H110 0.961 . S
C51 C48 1.496 . S
C51 H111 0.960 . S
C51 H112 0.960 . S
C51 H113 0.961 . S
C52 C53 1.517 . S
C52 H115 0.961 . S
C52 H116 0.960 . S
C52 H117 0.959 . S
C53 C52 1.517 . S
C53 O101 1.468 . S
C53 H114 0.980 . S
C54 C55 1.349 . S
C54 C59 1.367 . S
C54 O101 1.408 . S
C55 C54 1.349 . S
C55 C56 1.407 . S
C55 H118 0.930 . S
C56 C55 1.407 . S
C56 C57 1.449 . S
C56 C60 1.535 1_455 S
C57 C56 1.449 . S
C57 C58 1.384 . S
C57 C82 1.553 . S
C58 C57 1.384 . S
C58 C59 1.364 . S
C58 C61 1.450 . S
C59 C54 1.367 . S
C59 C58 1.364 . S
C59 H119 0.931 . S
C60 C56 1.535 1_655 S
C60 H120 0.959 . S
C60 H121 0.961 . S
C60 H122 0.959 . S
C61 C58 1.450 . S
C61 H123 0.960 . S
C61 H124 0.960 . S
C61 H125 0.960 . S
C62 C63 1.309 . S
C62 C67 1.304 . S
C62 O100 1.435 . S
C63 C62 1.309 . S
C63 C64 1.476 . S
C63 H127 0.930 . S
C64 C63 1.476 . S
C64 C65 1.400 . S
C64 C68 1.567 1_455 S
C65 C64 1.400 . S
C65 C66 1.373 . S
C65 C87 1.432 . S
C66 C65 1.373 . S
C66 C67 1.339 . S
C66 C69 1.530 . S
C67 C62 1.304 . S
C67 C66 1.339 . S
C67 H128 0.930 . S
C68 C64 1.567 1_655 S
C68 H129 0.961 . S
C68 H130 0.960 . S
C68 H131 0.958 . S
C69 C66 1.530 . S
C69 H132 0.961 . S
C69 H133 0.960 . S
C69 H134 0.960 . S
C70 C71 1.530 1_655 S
C70 H136 0.961 1_655 S
C70 H137 0.961 . S
C70 H138 0.959 . S
C71 C70 1.530 1_455 S
C71 O99 1.412 1_455 S
C71 H135 0.980 . S
C72 C73 1.290 . S
C72 C77 1.371 1_655 S
C72 O99 1.397 . S
C73 C72 1.290 . S
C73 C74 1.369 . S
C73 H139 0.932 . S
C74 C73 1.369 . S
C74 C75 1.398 1_655 S
C74 C78 1.527 . S
C75 C74 1.398 1_455 S
C75 C76 1.380 . S
C75 C89 1.497 . S
C76 C75 1.380 . S
C76 C77 1.383 . S
C76 C79 1.603 . S
C77 C72 1.371 1_455 S
C77 C76 1.383 . S
C77 H140 0.929 . S
C78 C74 1.527 . S
C78 H141 0.961 . S
C78 H142 0.959 . S
C78 H143 0.959 . S
C79 C76 1.603 . S
C79 H144 0.960 . S
C79 H145 0.962 . S
C79 H146 0.961 . S
C80 C47 1.587 . S
C80 C81 1.360 . S
C80 C93 1.412 . S
C81 C80 1.360 . S
C81 C82 1.365 . S
C81 H147 0.929 . S
C82 C57 1.553 . S
C82 C81 1.365 . S
C82 C83 1.404 . S
C83 C82 1.404 . S
C83 C84 1.395 . S
C83 C94 1.451 . S
C84 C83 1.395 . S
C84 C85 1.322 . S
C84 H148 0.930 . S
C85 C84 1.322 . S
C85 C86 1.459 . S
C85 H149 0.929 . S
C86 C85 1.459 . S
C86 C87 1.445 . S
C86 C95 1.395 . S
C87 C65 1.432 . S
C87 C86 1.445 . S
C87 C88 1.370 . S
C88 C87 1.370 . S
C88 C89 1.438 . S
C88 H150 0.930 . S
C89 C75 1.497 . S
C89 C88 1.438 . S
C89 C90 1.360 . S
C90 C89 1.360 . S
C90 C91 1.401 . S
C90 C95 1.446 . S
C91 C90 1.401 . S
C91 C92 1.347 . S
C91 H151 0.929 . S
C92 C91 1.347 . S
C92 C93 1.455 . S
C92 H152 0.930 . S
C93 C80 1.412 . S
C93 C92 1.455 . S
C93 C94 1.331 . S
C94 C83 1.451 . S
C94 C93 1.331 . S
C94 C95 1.497 . S
C95 C86 1.395 . S
C95 C90 1.446 . S
C95 C94 1.497 . S
C96 C97 1.582 . S
C96 H153 0.962 . S
C96 H154 0.959 . S
C96 H155 0.958 . S
C97 C96 1.582 . S
C97 O100 1.458 . S
C97 H126 0.980 . S
O98 C43 1.426 1_655 S
O98 C44 1.334 1_655 S
O99 C71 1.412 1_655 S
O99 C72 1.397 . S
O100 C62 1.435 . S
O100 C97 1.458 . S
O101 C53 1.468 . S
O101 C54 1.408 . S
H102 C43 0.980 . S
H103 C42 0.959 . S
H104 C42 0.959 . S
H105 C42 0.960 . S
H106 C45 0.929 . S
H107 C49 0.929 . S
H108 C50 0.959 . S
H109 C50 0.961 . S
H110 C50 0.961 . S
H111 C51 0.960 . S
H112 C51 0.960 . S
H113 C51 0.961 . S
H114 C53 0.980 . S
H115 C52 0.961 . S
H116 C52 0.960 . S
H117 C52 0.959 . S
H118 C55 0.930 . S
H119 C59 0.931 . S
H120 C60 0.959 . S
H121 C60 0.961 . S
H122 C60 0.959 . S
H123 C61 0.960 . S
H124 C61 0.960 . S
H125 C61 0.960 . S
H126 C97 0.980 . S
H127 C63 0.930 . S
H128 C67 0.930 . S
H129 C68 0.961 . S
H130 C68 0.960 . S
H131 C68 0.958 . S
H132 C69 0.961 . S
H133 C69 0.960 . S
H134 C69 0.960 . S
H135 C71 0.980 . S
H136 C70 0.961 1_455 S
H137 C70 0.961 . S
H138 C70 0.959 . S
H139 C73 0.932 . S
H140 C77 0.929 . S
H141 C78 0.961 . S
H142 C78 0.959 . S
H143 C78 0.959 . S
H144 C79 0.960 . S
H145 C79 0.962 . S
H146 C79 0.961 . S
H147 C81 0.929 . S
H148 C84 0.930 . S
H149 C85 0.929 . S
H150 C88 0.930 . S
H151 C91 0.929 . S
H152 C92 0.930 . S
H153 C96 0.962 . S
H154 C96 0.959 . S
H155 C96 0.958 . S
C156 C157 1.560 1_565 S
C156 H217 0.959 . S
C156 H218 0.959 . S
C156 H219 0.960 1_565 S
C157 C156 1.560 1_545 S
C157 O212 1.426 . S
C157 H216 0.980 . S
C158 C159 1.407 . S
C158 C163 1.418 . S
C158 O212 1.334 . S
C159 C158 1.407 . S
C159 C160 1.360 . S
C159 H220 0.929 . S
C160 C159 1.360 . S
C160 C161 1.401 . S
C160 C164 1.527 . S
C161 C160 1.401 . S
C161 C162 1.405 . S
C161 C194 1.587 . S
C162 C161 1.405 . S
C162 C163 1.332 . S
C162 C165 1.496 1_545 S
C163 C158 1.418 . S
C163 C162 1.332 . S
C163 H221 0.929 1_545 S
C164 C160 1.527 . S
C164 H222 0.959 . S
C164 H223 0.961 . S
C164 H224 0.961 . S
C165 C162 1.496 1_565 S
C165 H225 0.960 . S
C165 H226 0.960 . S
C165 H227 0.961 . S
C166 C167 1.517 . S
C166 H229 0.961 . S
C166 H230 0.960 . S
C166 H231 0.959 . S
C167 C166 1.517 . S
C167 O215 1.468 . S
C167 H228 0.980 . S
C168 C169 1.349 . S
C168 C173 1.367 . S
C168 O215 1.408 . S
C169 C168 1.349 . S
C169 C170 1.407 . S
C169 H232 0.930 . S
C170 C169 1.407 . S
C170 C171 1.449 . S
C170 C174 1.535 . S
C171 C170 1.449 . S
C171 C172 1.384 . S
C171 C196 1.553 . S
C172 C171 1.384 . S
C172 C173 1.364 . S
C172 C175 1.450 . S
C173 C168 1.367 . S
C173 C172 1.364 . S
C173 H233 0.931 . S
C174 C170 1.535 . S
C174 H234 0.959 . S
C174 H235 0.967 . S
C174 H236 0.975 . S
C175 C172 1.450 . S
C175 H237 0.960 . S
C175 H238 0.960 . S
C175 H239 0.960 . S
C176 C177 1.309 . S
C176 C181 1.304 . S
C176 O214 1.435 . S
C177 C176 1.309 . S
C177 C178 1.476 . S
C177 H241 0.930 . S
C178 C177 1.476 . S
C178 C179 1.400 . S
C178 C182 1.567 . S
C179 C178 1.400 . S
C179 C180 1.373 . S
C179 C201 1.432 . S
C180 C179 1.373 . S
C180 C181 1.339 . S
C180 C183 1.530 . S
C181 C176 1.304 . S
C181 C180 1.339 . S
C181 H242 0.930 . S
C182 C178 1.567 . S
C182 H243 0.961 . S
C182 H244 0.960 1_545 S
C182 H245 0.958 1_545 S
C183 C180 1.530 . S
C183 H246 0.961 . S
C183 H247 0.960 . S
C183 H248 0.960 . S
C184 C185 1.530 . S
C184 H250 0.961 . S
C184 H251 0.961 . S
C184 H252 0.959 . S
C185 C184 1.530 . S
C185 O213 1.412 . S
C185 H249 0.980 . S
C186 C187 1.288 . S
C186 C191 1.377 . S
C186 O213 1.393 . S
C187 C186 1.288 . S
C187 C188 1.369 . S
C187 H253 0.932 1_545 S
C188 C187 1.369 . S
C188 C189 1.398 . S
C188 C192 1.527 1_545 S
C189 C188 1.398 . S
C189 C190 1.380 . S
C189 C203 1.497 . S
C190 C189 1.380 . S
C190 C191 1.383 . S
C190 C193 1.603 . S
C191 C186 1.377 . S
C191 C190 1.383 . S
C191 H254 0.929 . S
C192 C188 1.527 1_565 S
C192 H255 0.961 . S
C192 H256 0.959 . S
C192 H257 0.959 . S
C193 C190 1.603 . S
C193 H258 0.960 . S
C193 H259 0.962 . S
C193 H260 0.961 . S
C194 C161 1.587 . S
C194 C195 1.360 . S
C194 C207 1.412 . S
C195 C194 1.360 . S
C195 C196 1.365 . S
C195 H261 0.929 . S
C196 C171 1.553 . S
C196 C195 1.365 . S
C196 C197 1.404 . S
C197 C196 1.404 . S
C197 C198 1.395 . S
C197 C208 1.451 . S
C198 C197 1.395 . S
C198 C199 1.322 . S
C198 H262 0.930 . S
C199 C198 1.322 . S
C199 C200 1.459 . S
C199 H263 0.929 . S
C200 C199 1.459 . S
C200 C201 1.445 . S
C200 C209 1.395 . S
C201 C179 1.432 . S
C201 C200 1.445 . S
C201 C202 1.370 . S
C202 C201 1.370 . S
C202 C203 1.438 . S
C202 H264 0.930 . S
C203 C189 1.497 . S
C203 C202 1.438 . S
C203 C204 1.360 . S
C204 C203 1.360 . S
C204 C205 1.401 . S
C204 C209 1.446 . S
C205 C204 1.401 . S
C205 C206 1.347 . S
C205 H265 0.929 . S
C206 C205 1.347 . S
C206 C207 1.455 . S
C206 H266 0.930 . S
C207 C194 1.412 . S
C207 C206 1.455 . S
C207 C208 1.331 . S
C208 C197 1.451 . S
C208 C207 1.331 . S
C208 C209 1.497 . S
C209 C200 1.395 . S
C209 C204 1.446 . S
C209 C208 1.497 . S
C210 C211 1.582 . S
C210 H267 0.962 . S
C210 H268 0.959 . S
C210 H269 0.958 . S
C211 C210 1.582 . S
C211 O214 1.458 . S
C211 H240 0.980 . S
O212 C157 1.426 . S
O212 C158 1.334 . S
O213 C185 1.412 . S
O213 C186 1.393 . S
O214 C176 1.435 . S
O214 C211 1.458 . S
O215 C167 1.468 . S
O215 C168 1.408 . S
H216 C157 0.980 . S
H217 C156 0.959 . S
H218 C156 0.959 . S
H219 C156 0.960 1_545 S
H220 C159 0.929 . S
H221 C163 0.929 1_565 S
H222 C164 0.959 . S
H223 C164 0.961 . S
H224 C164 0.961 . S
H225 C165 0.960 . S
H226 C165 0.960 . S
H227 C165 0.961 . S
H228 C167 0.980 . S
H229 C166 0.961 . S
H230 C166 0.960 . S
H231 C166 0.959 . S
H232 C169 0.930 . S
H233 C173 0.931 . S
H234 C174 0.959 . S
H235 C174 0.967 . S
H236 C174 0.975 . S
H237 C175 0.960 . S
H238 C175 0.960 . S
H239 C175 0.960 . S
H240 C211 0.980 . S
H241 C177 0.930 . S
H242 C181 0.930 . S
H243 C182 0.961 . S
H244 C182 0.960 1_565 S
H245 C182 0.958 1_565 S
H246 C183 0.961 . S
H247 C183 0.960 . S
H248 C183 0.960 . S
H249 C185 0.980 . S
H250 C184 0.961 . S
H251 C184 0.961 . S
H252 C184 0.959 . S
H253 C187 0.932 1_565 S
H254 C191 0.929 . S
H255 C192 0.961 . S
H256 C192 0.959 . S
H257 C192 0.959 . S
H258 C193 0.960 . S
H259 C193 0.962 . S
H260 C193 0.961 . S
H261 C195 0.929 . S
H262 C198 0.930 . S
H263 C199 0.929 . S
H264 C202 0.930 . S
H265 C205 0.929 . S
H266 C206 0.930 . S
H267 C210 0.962 . S
H268 C210 0.959 . S
H269 C210 0.958 . S
C270 C271 1.560 . S
C270 H331 0.959 . S
C270 H332 0.959 . S
C270 H333 0.960 . S
C271 C270 1.560 . S
C271 O326 1.426 . S
C271 H330 0.980 . S
C272 C273 1.407 . S
C272 C277 1.418 . S
C272 O326 1.334 . S
C273 C272 1.407 . S
C273 C274 1.360 . S
C273 H334 0.929 . S
C274 C273 1.360 . S
C274 C275 1.401 . S
C274 C278 1.527 . S
C275 C274 1.401 . S
C275 C276 1.405 . S
C275 C308 1.587 . S
C276 C275 1.405 . S
C276 C277 1.332 . S
C276 C279 1.496 . S
C277 C272 1.418 . S
C277 C276 1.332 . S
C277 H335 0.929 . S
C278 C274 1.527 . S
C278 H336 0.959 . S
C278 H337 0.961 . S
C278 H338 0.961 . S
C279 C276 1.496 . S
C279 H339 0.960 . S
C279 H340 0.960 . S
C279 H341 0.961 . S
C280 C281 1.517 . S
C280 H343 0.961 . S
C280 H344 0.960 . S
C280 H345 0.959 . S
C281 C280 1.517 . S
C281 O329 1.468 . S
C281 H342 0.980 . S
C282 C283 1.349 . S
C282 C287 1.367 . S
C282 O329 1.408 . S
C283 C282 1.349 . S
C283 C284 1.407 . S
C283 H346 0.930 . S
C284 C283 1.407 . S
C284 C285 1.449 . S
C284 C288 1.535 . S
C285 C284 1.449 . S
C285 C286 1.384 . S
C285 C310 1.553 . S
C286 C285 1.384 . S
C286 C287 1.364 . S
C286 C289 1.450 . S
C287 C282 1.367 . S
C287 C286 1.364 . S
C287 H347 0.931 . S
C288 C284 1.535 . S
C288 H348 0.959 . S
C288 H349 0.961 . S
C288 H350 0.959 . S
C289 C286 1.450 . S
C289 H351 0.960 . S
C289 H352 0.960 . S
C289 H353 0.960 . S
C290 C291 1.309 . S
C290 C295 1.304 . S
C290 O328 1.435 . S
C291 C290 1.309 . S
C291 C292 1.476 . S
C291 H355 0.930 . S
C292 C291 1.476 . S
C292 C293 1.400 . S
C292 C296 1.567 . S
C293 C292 1.400 . S
C293 C294 1.373 . S
C293 C315 1.432 . S
C294 C293 1.373 . S
C294 C295 1.339 . S
C294 C297 1.530 . S
C295 C290 1.304 . S
C295 C294 1.339 . S
C295 H356 0.930 . S
C296 C292 1.567 . S
C296 H357 0.961 . S
C296 H358 0.960 . S
C296 H359 0.958 . S
C297 C294 1.530 . S
C297 H360 0.961 . S
C297 H361 0.960 . S
C297 H362 0.960 . S
C298 C299 1.530 . S
C298 H364 0.961 . S
C298 H365 0.961 . S
C298 H366 0.959 . S
C299 C298 1.530 . S
C299 O327 1.412 . S
C299 H363 0.980 . S
C300 C301 1.288 . S
C300 C305 1.377 . S
C300 O327 1.393 . S
C301 C300 1.288 . S
C301 C302 1.369 . S
C301 H367 0.932 . S
C302 C301 1.369 . S
C302 C303 1.398 . S
C302 C306 1.527 . S
C303 C302 1.398 . S
C303 C304 1.380 . S
C303 C317 1.497 . S
C304 C303 1.380 . S
C304 C305 1.383 . S
C304 C307 1.603 . S
C305 C300 1.377 . S
C305 C304 1.383 . S
C305 H368 0.929 . S
C306 C302 1.527 . S
C306 H369 0.961 . S
C306 H370 0.959 . S
C306 H371 0.959 . S
C307 C304 1.603 . S
C307 H372 0.960 . S
C307 H373 0.962 . S
C307 H374 0.961 . S
C308 C275 1.587 . S
C308 C309 1.360 . S
C308 C321 1.412 . S
C309 C308 1.360 . S
C309 C310 1.365 . S
C309 H375 0.929 . S
C310 C285 1.553 . S
C310 C309 1.365 . S
C310 C311 1.404 . S
C311 C310 1.404 . S
C311 C312 1.395 . S
C311 C322 1.451 . S
C312 C311 1.395 . S
C312 C313 1.322 . S
C312 H376 0.930 . S
C313 C312 1.322 . S
C313 C314 1.459 . S
C313 H377 0.929 . S
C314 C313 1.459 . S
C314 C315 1.445 . S
C314 C323 1.395 . S
C315 C293 1.432 . S
C315 C314 1.445 . S
C315 C316 1.370 . S
C316 C315 1.370 . S
C316 C317 1.438 . S
C316 H378 0.930 . S
C317 C303 1.497 . S
C317 C316 1.438 . S
C317 C318 1.360 . S
C318 C317 1.360 . S
C318 C319 1.401 . S
C318 C323 1.446 . S
C319 C318 1.401 . S
C319 C320 1.347 . S
C319 H379 0.929 . S
C320 C319 1.347 . S
C320 C321 1.455 . S
C320 H380 0.930 . S
C321 C308 1.412 . S
C321 C320 1.455 . S
C321 C322 1.331 . S
C322 C311 1.451 . S
C322 C321 1.331 . S
C322 C323 1.497 . S
C323 C314 1.395 . S
C323 C318 1.446 . S
C323 C322 1.497 . S
C324 C325 1.582 . S
C324 H381 0.962 . S
C324 H382 0.959 . S
C324 H383 0.958 . S
C325 C324 1.582 . S
C325 O328 1.458 . S
C325 H354 0.980 . S
O326 C271 1.426 . S
O326 C272 1.334 . S
O327 C299 1.412 . S
O327 C300 1.393 . S
O328 C290 1.435 . S
O328 C325 1.458 . S
O329 C281 1.468 . S
O329 C282 1.408 . S
H330 C271 0.980 . S
H331 C270 0.959 . S
H332 C270 0.959 . S
H333 C270 0.960 . S
H334 C273 0.929 . S
H335 C277 0.929 . S
H336 C278 0.959 . S
H337 C278 0.961 . S
H338 C278 0.961 . S
H339 C279 0.960 . S
H340 C279 0.960 . S
H341 C279 0.961 . S
H342 C281 0.980 . S
H343 C280 0.961 . S
H344 C280 0.960 . S
H345 C280 0.959 . S
H346 C283 0.930 . S
H347 C287 0.931 . S
H348 C288 0.959 . S
H349 C288 0.961 . S
H350 C288 0.959 . S
H351 C289 0.960 . S
H352 C289 0.960 . S
H353 C289 0.960 . S
H354 C325 0.980 . S
H355 C291 0.930 . S
H356 C295 0.930 . S
H357 C296 0.961 . S
H358 C296 0.960 . S
H359 C296 0.958 . S
H360 C297 0.961 . S
H361 C297 0.960 . S
H362 C297 0.960 . S
H363 C299 0.980 . S
H364 C298 0.961 . S
H365 C298 0.961 . S
H366 C298 0.959 . S
H367 C301 0.932 . S
H368 C305 0.929 . S
H369 C306 0.961 . S
H370 C306 0.959 . S
H371 C306 0.959 . S
H372 C307 0.960 . S
H373 C307 0.962 . S
H374 C307 0.961 . S
H375 C309 0.929 . S
H376 C312 0.930 . S
H377 C313 0.929 . S
H378 C316 0.930 . S
H379 C319 0.929 . S
H380 C320 0.930 . S
H381 C324 0.962 . S
H382 C324 0.959 . S
H383 C324 0.958 . S
H384 C392 0.950 . S
H385 C397 0.950 . S
H386 C394 0.950 . S
H387 C396 0.950 . S
H388 C398 0.950 . S
H389 C400 0.950 . S
H390 C402 0.950 . S
H391 C403 0.950 . S
C392 H384 0.950 . S
C392 C393 1.386 . S
C392 C394 1.391 . S
C393 C392 1.386 . S
C393 C397 1.393 1_455 S
C394 H386 0.950 . S
C394 C392 1.391 . S
C394 C395 1.400 . S
C395 C394 1.400 . S
C395 C396 1.398 1_455 S
C395 C401 1.491 . S
C396 H387 0.950 . S
C396 C395 1.398 1_655 S
C396 C397 1.391 . S
C397 H385 0.950 . S
C397 C393 1.393 1_655 S
C397 C396 1.391 . S
C398 H388 0.950 . S
C398 C399 1.386 1_655 S
C398 C400 1.391 . S
C399 C398 1.386 1_455 S
C399 C403 1.393 . S
C400 H389 0.950 . S
C400 C398 1.391 . S
C400 C401 1.400 1_655 S
C401 C395 1.491 . S
C401 C400 1.400 1_455 S
C401 C402 1.398 . S
C402 H390 0.950 . S
C402 C401 1.398 . S
C402 C403 1.391 . S
C403 H391 0.950 . S
C403 C399 1.393 . S
C403 C402 1.391 . S
H404 C412 0.950 . S
H405 C417 0.950 . S
H406 C414 0.950 . S
H407 C416 0.950 . S
H408 C418 0.950 . S
H409 C420 0.950 . S
H410 C422 0.950 . S
H411 C423 0.950 . S
C412 H404 0.950 . S
C412 C413 1.386 . S
C412 C414 1.391 . S
C413 C412 1.386 . S
C413 C417 1.393 . S
C414 H406 0.950 . S
C414 C412 1.391 . S
C414 C415 1.400 . S
C415 C414 1.400 . S
C415 C416 1.398 . S
C415 C421 1.491 . S
C416 H407 0.950 . S
C416 C415 1.398 . S
C416 C417 1.391 . S
C417 H405 0.950 . S
C417 C413 1.393 . S
C417 C416 1.391 . S
C418 H408 0.950 . S
C418 C419 1.386 . S
C418 C420 1.391 . S
C419 C418 1.386 . S
C419 C423 1.393 . S
C420 H409 0.950 . S
C420 C418 1.391 . S
C420 C421 1.400 . S
C421 C415 1.491 . S
C421 C420 1.400 . S
C421 C422 1.398 . S
C422 H410 0.950 . S
C422 C421 1.398 . S
C422 C423 1.391 . S
C423 H411 0.950 . S
C423 C419 1.393 . S
C423 C422 1.391 . S
H424 C432 0.950 1_545 S
H425 C437 0.950 . S
H426 C434 0.950 . S
H427 C436 0.950 . S
H428 C438 0.950 . S
H429 C440 0.950 . S
H430 C442 0.950 . S
H431 C443 0.950 . S
C432 H424 0.950 1_565 S
C432 C433 1.386 . S
C432 C434 1.391 . S
C433 C432 1.386 . S
C433 C437 1.393 . S
C434 H426 0.950 . S
C434 C432 1.391 . S
C434 C435 1.400 . S
C435 C434 1.400 . S
C435 C436 1.398 . S
C435 C441 1.491 . S
C436 H427 0.950 . S
C436 C435 1.398 . S
C436 C437 1.391 . S
C437 H425 0.950 . S
C437 C433 1.393 . S
C437 C436 1.391 . S
C438 H428 0.950 . S
C438 C439 1.386 . S
C438 C440 1.391 . S
C439 C438 1.386 . S
C439 C443 1.393 . S
C440 H429 0.950 . S
C440 C438 1.391 . S
C440 C441 1.400 . S
C441 C435 1.491 . S
C441 C440 1.400 . S
C441 C442 1.398 . S
C442 H430 0.950 . S
C442 C441 1.398 . S
C442 C443 1.391 . S
C443 H431 0.950 . S
C443 C439 1.393 . S
C443 C442 1.391 . S
H444 C452 0.950 . S
H445 C457 0.950 . S
H446 C454 0.950 . S
H447 C456 0.950 . S
H448 C458 0.950 . S
H449 C460 0.950 . S
H450 C462 0.950 . S
H451 C463 0.950 . S
C452 H444 0.950 . S
C452 C453 1.386 . S
C452 C454 1.391 . S
C453 C452 1.386 . S
C453 C457 1.393 1_455 S
C454 H446 0.950 . S
C454 C452 1.391 . S
C454 C455 1.400 . S
C455 C454 1.400 . S
C455 C456 1.398 1_455 S
C455 C461 1.491 . S
C456 H447 0.950 . S
C456 C455 1.398 1_655 S
C456 C457 1.391 . S
C457 H445 0.950 . S
C457 C453 1.393 1_655 S
C457 C456 1.391 . S
C458 H448 0.950 . S
C458 C459 1.386 1_655 S
C458 C460 1.391 . S
C459 C458 1.386 1_455 S
C459 C463 1.393 . S
C460 H449 0.950 . S
C460 C458 1.391 . S
C460 C461 1.400 1_655 S
C461 C455 1.491 . S
C461 C460 1.400 1_455 S
C461 C462 1.398 . S
C462 H450 0.950 . S
C462 C461 1.398 . S
C462 C463 1.391 . S
C463 H451 0.950 . S
C463 C459 1.393 . S
C463 C462 1.391 . S
H464 C472 0.950 . S
H465 C477 0.950 . S
H466 C474 0.950 . S
H467 C476 0.950 . S
H468 C478 0.950 . S
H469 C480 0.950 . S
H470 C482 0.950 . S
H471 C483 0.950 . S
C472 H464 0.950 . S
C472 C473 1.386 . S
C472 C474 1.391 . S
C473 C472 1.386 . S
C473 C477 1.393 . S
C474 H466 0.950 . S
C474 C472 1.391 . S
C474 C475 1.400 . S
C475 C474 1.400 . S
C475 C476 1.398 . S
C475 C481 1.491 . S
C476 H467 0.950 . S
C476 C475 1.398 . S
C476 C477 1.391 . S
C477 H465 0.950 . S
C477 C473 1.393 . S
C477 C476 1.391 . S
C478 H468 0.950 . S
C478 C479 1.386 . S
C478 C480 1.391 . S
C479 C478 1.386 . S
C479 C483 1.393 . S
C480 H469 0.950 . S
C480 C478 1.391 . S
C480 C481 1.400 . S
C481 C475 1.491 . S
C481 C480 1.400 . S
C481 C482 1.398 . S
C482 H470 0.950 . S
C482 C481 1.398 . S
C482 C483 1.391 . S
C483 H471 0.950 . S
C483 C479 1.393 . S
C483 C482 1.391 . S
H484 C492 0.950 . S
H485 C497 0.950 . S
H486 C494 0.950 . S
H487 C496 0.950 . S
H488 C498 0.950 . S
H489 C500 0.950 . S
H490 C502 0.950 . S
H491 C503 0.950 . S
C492 H484 0.950 . S
C492 C493 1.386 . S
C492 C494 1.391 . S
C493 C492 1.386 . S
C493 C497 1.393 . S
C494 H486 0.950 . S
C494 C492 1.391 . S
C494 C495 1.400 . S
C495 C494 1.400 . S
C495 C496 1.398 . S
C495 C501 1.491 . S
C496 H487 0.950 . S
C496 C495 1.398 . S
C496 C497 1.391 . S
C497 H485 0.950 . S
C497 C493 1.393 . S
C497 C496 1.391 . S
C498 H488 0.950 . S
C498 C499 1.386 . S
C498 C500 1.391 . S
C499 C498 1.386 . S
C499 C503 1.393 . S
C500 H489 0.950 . S
C500 C498 1.391 . S
C500 C501 1.400 . S
C501 C495 1.491 . S
C501 C500 1.400 . S
C501 C502 1.398 . S
C502 H490 0.950 . S
C502 C501 1.398 . S
C502 C503 1.391 . S
C503 H491 0.950 . S
C503 C499 1.393 . S
C503 C502 1.391 . S
H504 C512 0.950 1_565 S
H505 C517 0.950 . S
H506 C514 0.950 1_565 S
H507 C516 0.950 . S
H508 C518 0.950 . S
H509 C520 0.950 . S
H510 C522 0.950 1_565 S
H511 C523 0.950 1_565 S
C512 H504 0.950 1_545 S
C512 C513 1.386 . S
C512 C514 1.391 . S
C513 C512 1.386 . S
C513 C517 1.393 . S
C514 H506 0.950 1_545 S
C514 C512 1.391 . S
C514 C515 1.400 . S
C515 C514 1.400 . S
C515 C516 1.398 . S
C515 C521 1.491 . S
C516 H507 0.950 . S
C516 C515 1.398 . S
C516 C517 1.391 . S
C517 H505 0.950 . S
C517 C513 1.393 . S
C517 C516 1.391 . S
C518 H508 0.950 . S
C518 C519 1.386 . S
C518 C520 1.391 . S
C519 C518 1.386 . S
C519 C523 1.393 . S
C520 H509 0.950 . S
C520 C518 1.391 . S
C520 C521 1.400 . S
C521 C515 1.491 . S
C521 C520 1.400 . S
C521 C522 1.398 . S
C522 H510 0.950 1_545 S
C522 C521 1.398 . S
C522 C523 1.391 . S
C523 H511 0.950 1_545 S
C523 C519 1.393 . S
C523 C522 1.391 . S
H524 C532 0.950 . S
H525 C537 0.950 . S
H526 C534 0.950 . S
H527 C536 0.950 . S
H528 C538 0.950 . S
H529 C540 0.950 . S
H530 C542 0.950 . S
H531 C543 0.950 . S
C532 H524 0.950 . S
C532 C533 1.386 . S
C532 C534 1.391 . S
C533 C532 1.386 . S
C533 C537 1.393 1_554 S
C534 H526 0.950 . S
C534 C532 1.391 . S
C534 C535 1.400 1_554 S
C535 C534 1.400 1_556 S
C535 C536 1.398 . S
C535 C541 1.491 . S
C536 H527 0.950 . S
C536 C535 1.398 . S
C536 C537 1.391 . S
C537 H525 0.950 . S
C537 C533 1.393 1_556 S
C537 C536 1.391 . S
C538 H528 0.950 . S
C538 C539 1.386 . S
C538 C540 1.391 . S
C539 C538 1.386 . S
C539 C543 1.393 . S
C540 H529 0.950 . S
C540 C538 1.391 . S
C540 C541 1.400 . S
C541 C535 1.491 . S
C541 C540 1.400 . S
C541 C542 1.398 . S
C542 H530 0.950 . S
C542 C541 1.398 . S
C542 C543 1.391 . S
C543 H531 0.950 . S
C543 C539 1.393 . S
C543 C542 1.391 . S
H544 C552 0.950 1_545 S
H545 C557 0.950 1_655 S
H546 C554 0.950 . S
H547 C556 0.950 1_655 S
H548 C558 0.950 . S
H549 C560 0.950 . S
H550 C562 0.950 . S
H551 C563 0.950 . S
C552 H544 0.950 1_565 S
C552 C553 1.386 . S
C552 C554 1.391 . S
C553 C552 1.386 . S
C553 C557 1.393 . S
C554 H546 0.950 . S
C554 C552 1.391 . S
C554 C555 1.400 . S
C555 C554 1.400 . S
C555 C556 1.398 . S
C555 C561 1.491 . S
C556 H547 0.950 1_455 S
C556 C555 1.398 . S
C556 C557 1.391 . S
C557 H545 0.950 1_455 S
C557 C553 1.393 . S
C557 C556 1.391 . S
C558 H548 0.950 . S
C558 C559 1.386 1_655 S
C558 C560 1.391 . S
C559 C558 1.386 1_455 S
C559 C563 1.393 . S
C560 H549 0.950 . S
C560 C558 1.391 . S
C560 C561 1.400 1_655 S
C561 C555 1.491 . S
C561 C560 1.400 1_455 S
C561 C562 1.398 . S
C562 H550 0.950 . S
C562 C561 1.398 . S
C562 C563 1.391 . S
C563 H551 0.950 . S
C563 C559 1.393 . S
C563 C562 1.391 . S
H564 C572 0.950 1_565 S
H565 C577 0.950 . S
H566 C574 0.950 1_565 S
H567 C576 0.950 . S
H568 C578 0.950 . S
H569 C580 0.950 . S
H570 C582 0.950 1_565 S
H571 C583 0.950 1_565 S
C572 H564 0.950 1_545 S
C572 C573 1.386 . S
C572 C574 1.391 . S
C573 C572 1.386 . S
C573 C577 1.393 . S
C574 H566 0.950 1_545 S
C574 C572 1.391 . S
C574 C575 1.400 . S
C575 C574 1.400 . S
C575 C576 1.398 . S
C575 C581 1.491 . S
C576 H567 0.950 . S
C576 C575 1.398 . S
C576 C577 1.391 . S
C577 H565 0.950 . S
C577 C573 1.393 . S
C577 C576 1.391 . S
C578 H568 0.950 . S
C578 C579 1.386 . S
C578 C580 1.391 . S
C579 C578 1.386 . S
C579 C583 1.393 . S
C580 H569 0.950 . S
C580 C578 1.391 . S
C580 C581 1.400 . S
C581 C575 1.491 . S
C581 C580 1.400 . S
C581 C582 1.398 . S
C582 H570 0.950 1_545 S
C582 C581 1.398 . S
C582 C583 1.391 . S
C583 H571 0.950 1_545 S
C583 C579 1.393 . S
C583 C582 1.391 . S
H584 C592 0.956 . S
H585 C597 0.950 . S
H586 C594 0.950 . S
H587 C596 0.950 . S
H588 C598 0.950 . S
H589 C600 0.950 . S
H590 C602 0.950 . S
H591 C603 0.950 . S
C592 H584 0.956 . S
C592 C593 1.386 1_556 S
C592 C594 1.391 . S
C593 C592 1.386 1_554 S
C593 C597 1.393 . S
C594 H586 0.950 . S
C594 C592 1.391 . S
C594 C595 1.400 . S
C595 C594 1.400 . S
C595 C596 1.398 . S
C595 C601 1.491 . S
C596 H587 0.950 . S
C596 C595 1.398 . S
C596 C597 1.391 1_556 S
C597 H585 0.950 . S
C597 C593 1.393 . S
C597 C596 1.391 1_554 S
C598 H588 0.950 . S
C598 C599 1.386 . S
C598 C600 1.391 . S
C599 C598 1.386 . S
C599 C603 1.393 . S
C600 H589 0.950 . S
C600 C598 1.391 . S
C600 C601 1.400 . S
C601 C595 1.491 . S
C601 C600 1.400 . S
C601 C602 1.398 . S
C602 H590 0.950 . S
C602 C601 1.398 . S
C602 C603 1.391 . S
C603 H591 0.950 . S
C603 C599 1.393 . S
C603 C602 1.391 . S
H604 C612 0.950 . S
H605 C617 0.950 1_655 S
H606 C614 0.950 . S
H607 C616 0.950 1_655 S
H608 C618 0.950 1_655 S
H609 C620 0.950 1_655 S
H610 C622 0.950 . S
H611 C623 0.950 . S
C612 H604 0.950 . S
C612 C613 1.386 . S
C612 C614 1.391 . S
C613 C612 1.386 . S
C613 C617 1.393 . S
C614 H606 0.950 . S
C614 C612 1.391 . S
C614 C615 1.400 . S
C615 C614 1.400 . S
C615 C616 1.398 . S
C615 C621 1.491 . S
C616 H607 0.950 1_455 S
C616 C615 1.398 . S
C616 C617 1.391 . S
C617 H605 0.950 1_455 S
C617 C613 1.393 . S
C617 C616 1.391 . S
C618 H608 0.950 1_455 S
C618 C619 1.386 . S
C618 C620 1.391 . S
C619 C618 1.386 . S
C619 C623 1.393 . S
C620 H609 0.950 1_455 S
C620 C618 1.391 . S
C620 C621 1.400 . S
C621 C615 1.491 . S
C621 C620 1.400 . S
C621 C622 1.398 . S
C622 H610 0.950 . S
C622 C621 1.398 . S
C622 C623 1.391 . S
C623 H611 0.950 . S
C623 C619 1.393 . S
C623 C622 1.391 . S
C399 C97 1.120 . S
C393 C3 1.580 . S
C413 C21 1.599 . S
C419 C211 1.213 . S
C433 C37 1.333 . S
C439 C271 1.075 . S
C453 C8 1.423 . S
C459 C71 1.172 . S
C479 C185 1.155 . S
C473 C23 1.421 . S
C493 C35 1.483 . S
C499 C281 0.987 . S
C519 C167 0.935 . S
C513 C31 1.501 . S
C533 C7 1.415 1_565 S
C539 C299 1.118 . S
C559 C43 1.096 . S
C553 C17 1.347 1_565 S
C579 C157 1.013 . S
C573 C36 1.316 . S
C599 C325 1.226 . S
C593 C9 1.557 . S
C613 C22 1.488 . S
C619 C53 0.858 . S
