# Generated by pormake.
# Topology csq, (4,8)-cn, num edge types: 1
# Building blocks:
#     Node 0, Type 0, BuildingBlock: MUDLON_clean_linker_0, # of connection points: 4
#     Node 1, Type 0, BuildingBlock: MUDLON_clean_linker_0, # of connection points: 4
#     Node 2, Type 0, BuildingBlock: MUDLON_clean_linker_0, # of connection points: 4
#     Node 3, Type 0, BuildingBlock: MUDLON_clean_linker_0, # of connection points: 4
#     Node 4, Type 0, BuildingBlock: MUDLON_clean_linker_0, # of connection points: 4
#     Node 5, Type 0, BuildingBlock: MUDLON_clean_linker_0, # of connection points: 4
#     Node 6, Type 1, BuildingBlock: TAGTUT_clean_sbu_3, # of connection points: 8
#     Node 7, Type 1, BuildingBlock: TAGTUT_clean_sbu_3, # of connection points: 8
#     Node 8, Type 1, BuildingBlock: TAGTUT_clean_sbu_3, # of connection points: 8
#     Edge 9, Type (0, 1), BuildingBlock: TEMPAE_clean_linker_10, # of connection points: 2
#     Edge 10, Type (0, 1), BuildingBlock: TEMPAE_clean_linker_10, # of connection points: 2
#     Edge 11, Type (0, 1), BuildingBlock: TEMPAE_clean_linker_10, # of connection points: 2
#     Edge 12, Type (0, 1), BuildingBlock: TEMPAE_clean_linker_10, # of connection points: 2
#     Edge 13, Type (0, 1), BuildingBlock: TEMPAE_clean_linker_10, # of connection points: 2
#     Edge 14, Type (0, 1), BuildingBlock: TEMPAE_clean_linker_10, # of connection points: 2
#     Edge 15, Type (0, 1), BuildingBlock: TEMPAE_clean_linker_10, # of connection points: 2
#     Edge 16, Type (0, 1), BuildingBlock: TEMPAE_clean_linker_10, # of connection points: 2
#     Edge 17, Type (0, 1), BuildingBlock: TEMPAE_clean_linker_10, # of connection points: 2
#     Edge 18, Type (0, 1), BuildingBlock: TEMPAE_clean_linker_10, # of connection points: 2
#     Edge 19, Type (0, 1), BuildingBlock: TEMPAE_clean_linker_10, # of connection points: 2
#     Edge 20, Type (0, 1), BuildingBlock: TEMPAE_clean_linker_10, # of connection points: 2
#     Edge 21, Type (0, 1), BuildingBlock: TEMPAE_clean_linker_10, # of connection points: 2
#     Edge 22, Type (0, 1), BuildingBlock: TEMPAE_clean_linker_10, # of connection points: 2
#     Edge 23, Type (0, 1), BuildingBlock: TEMPAE_clean_linker_10, # of connection points: 2
#     Edge 24, Type (0, 1), BuildingBlock: TEMPAE_clean_linker_10, # of connection points: 2
#     Edge 25, Type (0, 1), BuildingBlock: TEMPAE_clean_linker_10, # of connection points: 2
#     Edge 26, Type (0, 1), BuildingBlock: TEMPAE_clean_linker_10, # of connection points: 2
#     Edge 27, Type (0, 1), BuildingBlock: TEMPAE_clean_linker_10, # of connection points: 2
#     Edge 28, Type (0, 1), BuildingBlock: TEMPAE_clean_linker_10, # of connection points: 2
#     Edge 29, Type (0, 1), BuildingBlock: TEMPAE_clean_linker_10, # of connection points: 2
#     Edge 30, Type (0, 1), BuildingBlock: TEMPAE_clean_linker_10, # of connection points: 2
#     Edge 31, Type (0, 1), BuildingBlock: TEMPAE_clean_linker_10, # of connection points: 2
#     Edge 32, Type (0, 1), BuildingBlock: TEMPAE_clean_linker_10, # of connection points: 2
# Relax obj value: 0.039
# Max RMSD: 0.119
# Mean RMSD: 0.079
data_MOF--net-csq--node1-TAGTUT_clean_sbu_3--node2-MUDLON_clean_linker_0--edge1-TEMPAE_clean_linker_10
_symmetry_space_group_name_H-M    P1
_symmetry_Int_Tables_number       1
_symmetry_cell_setting            triclinic
loop_
_symmetry_equiv_pos_as_xyz
'x, y, z'
_cell_length_a     71.297636
_cell_length_b     70.532941
_cell_length_c     23.252071
_cell_angle_alpha  92.602895
_cell_angle_beta   92.65374
_cell_angle_gamma 119.94686
loop_
_atom_site_label
_atom_site_type_symbol
_atom_site_fract_x
_atom_site_fract_y
_atom_site_fract_z
_atom_type_partial_charge
H0 H 0.32764 0.48818 0.15123 0.0
N1 N 0.29654 0.44448 0.14246 0.0
H2 H 0.35928 0.50577 0.22112 0.0
H3 H 0.30185 0.42875 0.23944 0.0
H4 H 0.33329 0.44656 0.31069 0.0
H5 H 0.30321 0.41228 0.10722 0.0
H6 H 0.32633 0.41312 0.03197 0.0
H7 H 0.31016 0.47352 0.05877 0.0
H8 H 0.33469 0.47552 0.98632 0.0
H9 H 0.29084 0.48018 0.14328 0.0
H10 H 0.2573 0.40957 0.1361 0.0
H11 H 0.25632 0.47945 0.14891 0.0
H12 H 0.2226 0.40849 0.13894 0.0
H13 H 0.17283 0.47864 0.184 0.0
H14 H 0.15873 0.4968 0.24672 0.0
H15 H 0.10356 0.43364 0.27265 0.0
H16 H 0.11768 0.4157 0.21005 0.0
H17 H 0.12629 0.39653 0.08831 0.0
H18 H 0.10524 0.39074 0.99591 0.0
H19 H 0.13348 0.46094 0.99238 0.0
H20 H 0.15425 0.46648 0.08349 0.0
H21 H 0.18714 0.46677 0.10018 0.0
H22 H 0.2227 0.47003 0.09699 0.0
H23 H 0.20277 0.41615 0.20596 0.0
N24 N 0.15203 0.43452 0.14971 0.0
H25 H 0.16679 0.41234 0.2064 0.0
C26 C 0.31247 0.45693 0.18974 0.0
C27 C 0.32843 0.47906 0.1864 0.0
C28 C 0.34655 0.48915 0.22635 0.0
C29 C 0.34873 0.47746 0.27086 0.0
C30 C 0.33189 0.45599 0.27694 0.0
C31 C 0.31397 0.4458 0.23644 0.0
C32 C 0.30534 0.44297 0.0892 0.0
C33 C 0.30944 0.4257 0.07943 0.0
C34 C 0.32297 0.42645 0.03709 0.0
C35 C 0.33304 0.44477 0.00433 0.0
C36 C 0.32734 0.46118 0.01079 0.0
C37 C 0.3134 0.46016 0.05251 0.0
C38 C 0.27656 0.44484 0.14 0.0
C39 C 0.27603 0.46451 0.14228 0.0
C40 C 0.25622 0.46404 0.14523 0.0
C41 C 0.23666 0.44391 0.14533 0.0
C42 C 0.23734 0.42431 0.14066 0.0
C43 C 0.25709 0.42483 0.1383 0.0
C44 C 0.14625 0.44571 0.19257 0.0
C45 C 0.15791 0.46869 0.20398 0.0
C46 C 0.14983 0.47907 0.23967 0.0
C47 C 0.12988 0.46665 0.26373 0.0
C48 C 0.11876 0.44367 0.25381 0.0
C49 C 0.12689 0.43337 0.21868 0.0
C50 C 0.14183 0.43185 0.09268 0.0
C51 C 0.12817 0.4106 0.06676 0.0
C52 C 0.11617 0.40734 0.01427 0.0
C53 C 0.1178 0.42538 0.98675 0.0
C54 C 0.13219 0.44671 0.01181 0.0
C55 C 0.14403 0.44992 0.06425 0.0
C56 C 0.1741 0.43897 0.1529 0.0
C57 C 0.19036 0.45568 0.12352 0.0
C58 C 0.21084 0.45764 0.12204 0.0
C59 C 0.21554 0.44312 0.15039 0.0
C60 C 0.19956 0.42723 0.18226 0.0
C61 C 0.17907 0.42516 0.18319 0.0
H62 H 0.71344 0.11358 0.09145 0.0
N63 N 0.72551 0.15493 0.0768 0.0
H64 H 0.68688 0.09019 0.15598 0.0
H65 H 0.71483 0.17033 0.1737 0.0
H66 H 0.68909 0.14729 0.24008 0.0
H67 H 0.69305 0.16507 0.07505 0.0
H68 H 0.66078 0.14803 0.00713 0.0
H69 H 0.72134 0.13408 0.97542 0.0
H70 H 0.6891 0.11708 0.90698 0.0
H71 H 0.76575 0.1642 0.06497 0.0
H72 H 0.72758 0.19447 0.10194 0.0
H73 H 0.79835 0.20029 0.06846 0.0
H74 H 0.76016 0.23052 0.10964 0.0
H75 H 0.89962 0.31868 0.14238 0.0
H76 H 0.91507 0.34146 0.23318 0.0
H77 H 0.8531 0.33633 0.25948 0.0
H78 H 0.83799 0.31394 0.16751 0.0
H79 H 0.84649 0.33237 0.07482 0.0
H80 H 0.85707 0.35769 0.9983 0.0
H81 H 0.89169 0.32791 0.92488 0.0
H82 H 0.8813 0.30287 0.00213 0.0
H83 H 0.85647 0.26587 0.12688 0.0
H84 H 0.82363 0.23024 0.12872 0.0
H85 H 0.78574 0.25696 0.05507 0.0
N86 N 0.85994 0.30265 0.09264 0.0
H87 H 0.81846 0.29278 0.05732 0.0
C88 C 0.71606 0.14365 0.12708 0.0
C89 C 0.70875 0.12112 0.1252 0.0
C90 C 0.69348 0.10776 0.16208 0.0
C91 C 0.68542 0.11678 0.20239 0.0
C92 C 0.69445 0.13972 0.20828 0.0
C93 C 0.70952 0.15304 0.17073 0.0
C94 C 0.70962 0.15073 0.0302 0.0
C95 C 0.69276 0.15537 0.03731 0.0
C96 C 0.67422 0.14552 0.99865 0.0
C97 C 0.67233 0.13092 0.95271 0.0
C98 C 0.69005 0.12799 0.94279 0.0
C99 C 0.70853 0.13785 0.98128 0.0
C100 C 0.74434 0.17654 0.08401 0.0
C101 C 0.76454 0.17867 0.07513 0.0
C102 C 0.78316 0.19935 0.07753 0.0
C103 C 0.78203 0.21847 0.08975 0.0
C104 C 0.76169 0.21626 0.09937 0.0
C105 C 0.74299 0.19552 0.09589 0.0
C106 C 0.86781 0.31474 0.14828 0.0
C107 C 0.88938 0.32232 0.16816 0.0
C108 C 0.89806 0.33514 0.22032 0.0
C109 C 0.88527 0.34062 0.25388 0.0
C110 C 0.86341 0.33252 0.2345 0.0
C111 C 0.85474 0.3197 0.18206 0.0
C112 C 0.86332 0.31582 0.04432 0.0
C113 C 0.85609 0.33107 0.04184 0.0
C114 C 0.86204 0.34547 0.99789 0.0
C115 C 0.87539 0.34493 0.95595 0.0
C116 C 0.88166 0.32893 0.95709 0.0
C117 C 0.87566 0.31455 0.00086 0.0
C118 C 0.84006 0.28188 0.09119 0.0
C119 C 0.84103 0.26395 0.11123 0.0
C120 C 0.82222 0.24356 0.11183 0.0
C121 C 0.80194 0.24053 0.09142 0.0
C122 C 0.80097 0.25865 0.07177 0.0
C123 C 0.8198 0.27919 0.07226 0.0
H124 H 0.59988 0.89648 0.00379 0.0
N125 N 0.57649 0.85858 0.04888 0.0
H126 H 0.59003 0.90992 0.91938 0.0
H127 H 0.53982 0.83489 0.97434 0.0
H128 H 0.53021 0.84773 0.8883 0.0
H129 H 0.53593 0.84987 0.07441 0.0
H130 H 0.52636 0.86027 0.16568 0.0
H131 H 0.60323 0.88283 0.13952 0.0
H132 H 0.59378 0.89403 0.23033 0.0
H133 H 0.6081 0.84978 0.03416 0.0
H134 H 0.54026 0.81907 0.0646 0.0
H135 H 0.60699 0.81486 0.04437 0.0
H136 H 0.53922 0.78464 0.07761 0.0
H137 H 0.60628 0.72325 0.02343 0.0
H138 H 0.6025 0.70311 0.93059 0.0
H139 H 0.53312 0.66522 0.94243 0.0
H140 H 0.53696 0.68545 0.03332 0.0
H141 H 0.53343 0.69777 0.12556 0.0
H142 H 0.51919 0.67079 0.19749 0.0
H143 H 0.58378 0.68176 0.23904 0.0
H144 H 0.59746 0.70752 0.16424 0.0
H145 H 0.60511 0.75781 0.13034 0.0
H146 H 0.60479 0.79194 0.11884 0.0
H147 H 0.54046 0.75478 0.03115 0.0
N148 N 0.57499 0.71758 0.09071 0.0
H149 H 0.5406 0.7209 0.04531 0.0
C150 C 0.57073 0.86476 0.9955 0.0
C151 C 0.58477 0.8857 0.97826 0.0
C152 C 0.57916 0.89325 0.92961 0.0
C153 C 0.55931 0.8799 0.8966 0.0
C154 C 0.5455 0.85857 0.91296 0.0
C155 C 0.55106 0.85111 0.96213 0.0
C156 C 0.57036 0.86548 0.10046 0.0
C157 C 0.54864 0.85929 0.10831 0.0
C158 C 0.54316 0.86515 0.16046 0.0
C159 C 0.55934 0.87768 0.20494 0.0
C160 C 0.58105 0.88423 0.19665 0.0
C161 C 0.58645 0.87798 0.14497 0.0
C162 C 0.57442 0.83718 0.04881 0.0
C163 C 0.59296 0.83548 0.04268 0.0
C164 C 0.59233 0.81559 0.04932 0.0
C165 C 0.57308 0.79698 0.06275 0.0
C166 C 0.55428 0.79855 0.06695 0.0
C167 C 0.5549 0.81839 0.05978 0.0
C168 C 0.57204 0.70577 0.03574 0.0
C169 C 0.59029 0.71068 0.0055 0.0
C170 C 0.58809 0.69922 0.95261 0.0
C171 C 0.5675 0.68266 0.92898 0.0
C172 C 0.54918 0.67817 0.95876 0.0
C173 C 0.5514 0.6896 0.01145 0.0
C174 C 0.56652 0.70432 0.13869 0.0
C175 C 0.54451 0.69435 0.15009 0.0
C176 C 0.5364 0.67903 0.19176 0.0
C177 C 0.55021 0.67367 0.2234 0.0
C178 C 0.57248 0.68486 0.21431 0.0
C179 C 0.58043 0.69982 0.17211 0.0
C180 C 0.57303 0.73687 0.08865 0.0
C181 C 0.59084 0.75711 0.10953 0.0
C182 C 0.59071 0.77657 0.10215 0.0
C183 C 0.57273 0.77617 0.07317 0.0
C184 C 0.55454 0.75574 0.05394 0.0
C185 C 0.55462 0.73626 0.06188 0.0
H186 H 0.9007 0.60502 0.05008 0.0
N187 N 0.8608 0.57185 0.02162 0.0
H188 H 0.92704 0.60672 0.12461 0.0
H189 H 0.85217 0.54293 0.10504 0.0
H190 H 0.87835 0.54381 0.17669 0.0
H191 H 0.84623 0.52764 0.01051 0.0
H192 H 0.85798 0.50975 0.94007 0.0
H193 H 0.87749 0.58722 0.92336 0.0
H194 H 0.88865 0.56917 0.85154 0.0
H195 H 0.85446 0.60533 0.0104 0.0
H196 H 0.82227 0.53794 0.05227 0.0
H197 H 0.82223 0.60747 0.02988 0.0
H198 H 0.79062 0.5403 0.07665 0.0
H199 H 0.72153 0.61383 0.14402 0.0
H200 H 0.70576 0.61409 0.23422 0.0
H201 H 0.71295 0.55946 0.28353 0.0
H202 H 0.72748 0.55859 0.19079 0.0
H203 H 0.69684 0.54165 0.10617 0.0
H204 H 0.66272 0.52363 0.04444 0.0
H205 H 0.68576 0.58153 0.9501 0.0
H206 H 0.71994 0.59935 0.0115 0.0
H207 H 0.77181 0.6139 0.1221 0.0
H208 H 0.80332 0.61016 0.10481 0.0
H209 H 0.76057 0.54222 0.04271 0.0
N210 N 0.73021 0.58386 0.10206 0.0
H211 H 0.72946 0.54568 0.06422 0.0
C212 C 0.87452 0.57391 0.0717 0.0
C213 C 0.89566 0.59194 0.07878 0.0
C214 C 0.91073 0.5927 0.12082 0.0
C215 C 0.90493 0.57525 0.15623 0.0
C216 C 0.88338 0.55767 0.15076 0.0
C217 C 0.8683 0.55708 0.10923 0.0
C218 C 0.86136 0.55898 0.97265 0.0
C219 C 0.85496 0.53668 0.97522 0.0
C220 C 0.86168 0.52643 0.93495 0.0
C221 C 0.87439 0.53816 0.89084 0.0
C222 C 0.87875 0.55969 0.88492 0.0
C223 C 0.87237 0.57002 0.92575 0.0
C224 C 0.84094 0.5717 0.03076 0.0
C225 C 0.84043 0.59105 0.02433 0.0
C226 C 0.82206 0.59228 0.0363 0.0
C227 C 0.80383 0.5742 0.05613 0.0
C228 C 0.80423 0.55457 0.0613 0.0
C229 C 0.82252 0.55325 0.0481 0.0
C230 C 0.72555 0.58621 0.16067 0.0
C231 C 0.72015 0.60227 0.17503 0.0
C232 C 0.71126 0.60245 0.22701 0.0
C233 C 0.70784 0.58666 0.26643 0.0
C234 C 0.71489 0.57158 0.25381 0.0
C235 C 0.72344 0.57118 0.20106 0.0
C236 C 0.71101 0.57183 0.06287 0.0
C237 C 0.69469 0.55031 0.07157 0.0
C238 C 0.67521 0.54005 0.03647 0.0
C239 C 0.6716 0.5513 0.99304 0.0
C240 C 0.68808 0.57261 0.9838 0.0
C241 C 0.70762 0.58272 0.01832 0.0
C242 C 0.74822 0.58032 0.09387 0.0
C243 C 0.76932 0.59815 0.10536 0.0
C244 C 0.7873 0.59601 0.09471 0.0
C245 C 0.78461 0.57597 0.07115 0.0
C246 C 0.76341 0.55788 0.06117 0.0
C247 C 0.74542 0.55993 0.07302 0.0
H248 H 0.16951 0.69983 0.16959 0.0
N249 N 0.15348 0.72563 0.13144 0.0
H250 H 0.1616 0.68111 0.25903 0.0
H251 H 0.12995 0.7279 0.21361 0.0
H252 H 0.12149 0.70868 0.30254 0.0
H253 H 0.11411 0.7076 0.07781 0.0
H254 H 0.09972 0.68222 0.99104 0.0
H255 H 0.17579 0.71071 0.06868 0.0
H256 H 0.16186 0.68594 0.98074 0.0
H257 H 0.1958 0.73634 0.15771 0.0
H258 H 0.1552 0.76169 0.0969 0.0
H259 H 0.22811 0.77184 0.14878 0.0
H260 H 0.18758 0.79739 0.08773 0.0
H261 H 0.30845 0.85239 0.10417 0.0
H262 H 0.34367 0.86565 0.15805 0.0
H263 H 0.34074 0.92151 0.23066 0.0
H264 H 0.30574 0.9083 0.17612 0.0
H265 H 0.2863 0.90919 0.06415 0.0
H266 H 0.30237 0.9273 0.97743 0.0
H267 H 0.31276 0.87371 0.92672 0.0
H268 H 0.29575 0.85538 0.01165 0.0
H269 H 0.27646 0.84646 0.18965 0.0
H270 H 0.24526 0.81032 0.19587 0.0
H271 H 0.21917 0.81352 0.02785 0.0
N272 N 0.28467 0.87334 0.10132 0.0
H273 H 0.25028 0.84969 0.02088 0.0
C274 C 0.15039 0.71543 0.18518 0.0
C275 C 0.15945 0.7023 0.1989 0.0
C276 C 0.15495 0.69163 0.25006 0.0
C277 C 0.14102 0.69356 0.28764 0.0
C278 C 0.13231 0.70698 0.27429 0.0
C279 C 0.13709 0.71791 0.22369 0.0
C280 C 0.14591 0.71102 0.07967 0.0
C281 C 0.12458 0.70293 0.0566 0.0
C282 C 0.1165 0.68862 0.00668 0.0
C283 C 0.12969 0.68215 0.97847 0.0
C284 C 0.15121 0.69045 0.00153 0.0
C285 C 0.15924 0.70469 0.05179 0.0
C286 C 0.17298 0.74644 0.12846 0.0
C287 C 0.19376 0.74954 0.14288 0.0
C288 C 0.21227 0.76988 0.13774 0.0
C289 C 0.21036 0.78736 0.11746 0.0
C290 C 0.18958 0.78415 0.10285 0.0
C291 C 0.1711 0.76388 0.10844 0.0
C292 C 0.30443 0.87941 0.1364 0.0
C293 C 0.31539 0.86747 0.13172 0.0
C294 C 0.33548 0.87502 0.16259 0.0
C295 C 0.34508 0.89476 0.19792 0.0
C296 C 0.33395 0.90646 0.20289 0.0
C297 C 0.31387 0.89884 0.17243 0.0
C298 C 0.29014 0.88119 0.04478 0.0
C299 C 0.29147 0.90112 0.03326 0.0
C300 C 0.3008 0.91149 0.98399 0.0
C301 C 0.3092 0.90215 0.94559 0.0
C302 C 0.30636 0.88134 0.95506 0.0
C303 C 0.29686 0.87091 0.00407 0.0
C304 C 0.26703 0.85077 0.10284 0.0
C305 C 0.26461 0.83931 0.1528 0.0
C306 C 0.24656 0.81855 0.15678 0.0
C307 C 0.22996 0.80895 0.11199 0.0
C308 C 0.23182 0.82046 0.06292 0.0
C309 C 0.24994 0.84114 0.05866 0.0
H310 H 0.48692 0.31846 0.06449 0.0
N311 N 0.44626 0.29079 0.09816 0.0
H312 H 0.49526 0.33758 0.97573 0.0
H313 H 0.41856 0.28649 0.01171 0.0
H314 H 0.42678 0.30594 0.92324 0.0
H315 H 0.42073 0.3039 0.14334 0.0
H316 H 0.42909 0.32941 0.22818 0.0
H317 H 0.48432 0.31111 0.16821 0.0
H318 H 0.49226 0.33523 0.25452 0.0
H319 H 0.48234 0.2862 0.09969 0.0
H320 H 0.41302 0.25117 0.10974 0.0
H321 H 0.48387 0.25379 0.12183 0.0
H322 H 0.4139 0.21769 0.12584 0.0
H323 H 0.48888 0.15943 0.15464 0.0
H324 H 0.50246 0.14606 0.07744 0.0
H325 H 0.43898 0.11448 0.98493 0.0
H326 H 0.42539 0.12756 0.06323 0.0
H327 H 0.42186 0.1141 0.20458 0.0
H328 H 0.4293 0.10086 0.29288 0.0
H329 H 0.48824 0.16337 0.33201 0.0
H330 H 0.4808 0.17619 0.24209 0.0
H331 H 0.4783 0.18721 0.10736 0.0
H332 H 0.47777 0.22032 0.09019 0.0
H333 H 0.42219 0.19934 0.19131 0.0
N334 N 0.44729 0.1516 0.15994 0.0
H335 H 0.42153 0.16487 0.2034 0.0
C336 C 0.45203 0.3009 0.04447 0.0
C337 C 0.47372 0.31516 0.03333 0.0
C338 C 0.47849 0.32609 0.98254 0.0
C339 C 0.46165 0.3232 0.94267 0.0
C340 C 0.44005 0.30849 0.9533 0.0
C341 C 0.43534 0.29739 0.0036 0.0
C342 C 0.45172 0.30542 0.14935 0.0
C343 C 0.43635 0.31073 0.16762 0.0
C344 C 0.4411 0.32512 0.21652 0.0
C345 C 0.46135 0.33436 0.24863 0.0
C346 C 0.47662 0.3287 0.2306 0.0
C347 C 0.47198 0.31463 0.18116 0.0
C348 C 0.44754 0.27125 0.10439 0.0
C349 C 0.46736 0.27147 0.10624 0.0
C350 C 0.46815 0.25263 0.11813 0.0
C351 C 0.44903 0.23289 0.12632 0.0
C352 C 0.4291 0.2326 0.12179 0.0
C353 C 0.42846 0.25164 0.11164 0.0
C354 C 0.45595 0.14418 0.11491 0.0
C355 C 0.47783 0.14948 0.11806 0.0
C356 C 0.48566 0.14207 0.07354 0.0
C357 C 0.47177 0.12919 0.02521 0.0
C358 C 0.44999 0.12415 0.02198 0.0
C359 C 0.44221 0.13161 0.06643 0.0
C360 C 0.45075 0.14597 0.21673 0.0
C361 C 0.43612 0.12506 0.23293 0.0
C362 C 0.44037 0.11762 0.28373 0.0
C363 C 0.45941 0.13104 0.31977 0.0
C364 C 0.47355 0.15253 0.30498 0.0
C365 C 0.46928 0.15993 0.2538 0.0
C366 C 0.44958 0.17307 0.15607 0.0
C367 C 0.46586 0.18946 0.12589 0.0
C368 C 0.46571 0.20879 0.11651 0.0
C369 C 0.44978 0.21267 0.13867 0.0
C370 C 0.43432 0.19679 0.17176 0.0
C371 C 0.43409 0.17716 0.17963 0.0
C372 C 0.04276 0.49444 0.53983 0.0
C373 C 0.02453 0.45848 0.73939 0.0
C374 C 0.96541 0.46041 0.71084 0.0
Mg375 Mg 0.02613 0.52546 0.48243 0.0
Mg376 Mg 0.01578 0.55736 0.56753 0.0
O377 O 0.00912 0.5286 0.54482 0.0
Mg378 Mg 0.01439 0.51203 0.60417 0.0
O379 O 0.01951 0.49399 0.6595 0.0
Mg380 Mg 0.00195 0.46423 0.61623 0.0
Mg381 Mg 0.01272 0.49549 0.73561 0.0
C382 C 0.98582 0.5309 0.66575 0.0
O383 O 0.03914 0.54311 0.66259 0.0
O384 O 0.01028 0.5409 0.42521 0.0
O385 O 0.03111 0.53092 0.75132 0.0
O386 O 0.05543 0.55999 0.50463 0.0
O387 O 0.00382 0.56238 0.48651 0.0
O388 O 0.05045 0.57937 0.5741 0.0
O389 O 0.9896 0.48032 0.55224 0.0
O390 O 0.99713 0.49077 0.46308 0.0
C391 C 0.9863 0.47605 0.49739 0.0
C392 C 0.00324 0.55426 0.43551 0.0
O393 O 0.98883 0.51463 0.65506 0.0
O394 O 0.01695 0.45204 0.68644 0.0
O395 O 0.99601 0.54908 0.64166 0.0
O396 O 0.97184 0.45329 0.669 0.0
O397 O 0.02456 0.47482 0.76608 0.0
O398 O 0.97827 0.47851 0.73989 0.0
O399 O 0.03944 0.51058 0.54892 0.0
O400 O 0.03153 0.47629 0.563 0.0
C401 C 0.06253 0.57737 0.5384 0.0
C402 C 0.04098 0.54645 0.71803 0.0
C403 C 0.49623 0.03003 0.50609 0.0
C404 C 0.56037 0.02057 0.43222 0.0
C405 C 0.52431 0.95625 0.49475 0.0
Mg406 Mg 0.46781 0.009 0.61417 0.0
Mg407 Mg 0.48711 0.99475 0.72436 0.0
O408 O 0.48054 0.99122 0.64463 0.0
Mg409 Mg 0.50452 0.99962 0.59274 0.0
O410 O 0.52695 0.00814 0.53636 0.0
Mg411 Mg 0.50807 0.99276 0.46346 0.0
Mg412 Mg 0.54931 0.00216 0.55284 0.0
C413 C 0.51243 0.97022 0.68681 0.0
O414 O 0.53182 0.02437 0.66008 0.0
O415 O 0.43994 0.99035 0.67433 0.0
O416 O 0.55989 0.01989 0.63696 0.0
O417 O 0.48544 0.03733 0.68571 0.0
O418 O 0.45401 0.97965 0.74604 0.0
O419 O 0.50271 0.02883 0.75267 0.0
O420 O 0.47928 0.97577 0.52151 0.0
O421 O 0.45198 0.98129 0.54251 0.0
C422 C 0.45969 0.97168 0.51149 0.0
C423 C 0.43804 0.98032 0.72049 0.0
O424 O 0.51148 0.97394 0.63331 0.0
O425 O 0.54006 0.01222 0.41605 0.0
O426 O 0.50558 0.97794 0.72657 0.0
O427 O 0.51413 0.96377 0.46583 0.0
O428 O 0.56707 0.01844 0.48222 0.0
O429 O 0.53786 0.96766 0.53738 0.0
O430 O 0.49687 0.02499 0.55812 0.0
O431 O 0.50113 0.02111 0.46458 0.0
C432 C 0.49794 0.04244 0.73191 0.0
C433 C 0.55148 0.02847 0.66919 0.0
C434 C 0.52088 0.54354 0.70422 0.0
C435 C 0.45476 0.46803 0.7584 0.0
C436 C 0.49153 0.44078 0.68789 0.0
Mg437 Mg 0.55155 0.55203 0.59824 0.0
Mg438 Mg 0.53158 0.52035 0.47838 0.0
O439 O 0.53819 0.52174 0.55796 0.0
Mg440 Mg 0.51341 0.50552 0.60682 0.0
O441 O 0.48982 0.49066 0.65938 0.0
Mg442 Mg 0.50762 0.49368 0.73215 0.0
Mg443 Mg 0.46757 0.46196 0.63503 0.0
C444 C 0.50517 0.46951 0.50063 0.0
O445 O 0.48752 0.50397 0.5416 0.0
O446 O 0.57987 0.56129 0.53922 0.0
O447 O 0.45935 0.46997 0.55128 0.0
O448 O 0.53579 0.56472 0.53264 0.0
O449 O 0.56489 0.5389 0.45758 0.0
O450 O 0.51653 0.53951 0.46055 0.0
O451 O 0.53726 0.50576 0.67642 0.0
O452 O 0.56583 0.53858 0.66369 0.0
C453 C 0.55705 0.5208 0.68949 0.0
C454 C 0.58131 0.55431 0.48845 0.0
O455 O 0.50623 0.47336 0.55572 0.0
O456 O 0.47493 0.48066 0.77599 0.0
O457 O 0.5123 0.48478 0.46557 0.0
O458 O 0.50134 0.45851 0.72078 0.0
O459 O 0.44851 0.45921 0.70653 0.0
O460 O 0.47868 0.4387 0.6449 0.0
O461 O 0.52158 0.53839 0.65123 0.0
O462 O 0.51473 0.52912 0.74134 0.0
C463 C 0.52297 0.55825 0.48669 0.0
C464 C 0.46845 0.48785 0.52546 0.0
C465 C 0.13228 0.49301 0.3441 0.0
C466 C 0.12015 0.47728 0.29824 0.0
C467 C 0.12218 0.50057 0.38201 0.0
C468 C 0.09949 0.49219 0.37359 0.0
C469 C 0.0876 0.47769 0.32453 0.0
C470 C 0.09807 0.4704 0.28757 0.0
C471 C 0.13546 0.51622 0.43342 0.0
C472 C 0.06345 0.4685 0.3135 0.0
C473 C 0.06556 0.47999 0.50149 0.0
C474 C 0.05923 0.49589 0.50082 0.0
C475 C 0.07952 0.4794 0.46208 0.0
C476 C 0.08745 0.49511 0.42057 0.0
C477 C 0.08207 0.51195 0.42135 0.0
C478 C 0.06798 0.51216 0.46161 0.0
C479 C 0.08495 0.46125 0.4633 0.0
C480 C 0.09036 0.52912 0.37816 0.0
H481 H 0.14938 0.49846 0.35229 0.0
H482 H 0.08876 0.45863 0.25128 0.0
H483 H 0.13096 0.52906 0.44048 0.0
H484 H 0.13211 0.50707 0.47277 0.0
H485 H 0.15316 0.52429 0.42817 0.0
H486 H 0.05718 0.45977 0.26987 0.0
H487 H 0.05482 0.45675 0.34612 0.0
H488 H 0.05946 0.48179 0.31784 0.0
H489 H 0.05923 0.46758 0.53228 0.0
H490 H 0.06329 0.52459 0.46105 0.0
H491 H 0.10279 0.46821 0.46509 0.0
H492 H 0.07783 0.4502 0.42315 0.0
H493 H 0.07867 0.45126 0.5008 0.0
H494 H 0.10781 0.53531 0.37283 0.0
H495 H 0.08818 0.54322 0.39109 0.0
H496 H 0.08135 0.52169 0.33547 0.0
C497 C 0.64988 0.10733 0.24168 0.0
C498 C 0.66633 0.10221 0.23403 0.0
C499 C 0.63145 0.09354 0.26988 0.0
C500 C 0.62919 0.07396 0.29014 0.0
C501 C 0.64542 0.06839 0.28139 0.0
C502 C 0.66389 0.08267 0.2539 0.0
C503 C 0.61463 0.1002 0.27918 0.0
C504 C 0.6435 0.04756 0.30217 0.0
C505 C 0.59703 0.05166 0.41966 0.0
C506 C 0.57718 0.03445 0.39426 0.0
C507 C 0.61386 0.0648 0.38606 0.0
C508 C 0.61095 0.06043 0.32541 0.0
C509 C 0.59088 0.0432 0.29919 0.0
C510 C 0.57405 0.0305 0.33405 0.0
C511 C 0.63482 0.0833 0.41565 0.0
C512 C 0.58739 0.03793 0.23462 0.0
H513 H 0.65129 0.12206 0.22513 0.0
H514 H 0.67653 0.07862 0.24855 0.0
H515 H 0.59834 0.08687 0.26167 0.0
H516 H 0.61379 0.10294 0.32614 0.0
H517 H 0.61831 0.11544 0.25844 0.0
H518 H 0.65647 0.0446 0.28729 0.0
H519 H 0.64453 0.04853 0.35007 0.0
H520 H 0.62748 0.03325 0.28665 0.0
H521 H 0.5994 0.05497 0.46623 0.0
H522 H 0.55874 0.01715 0.31443 0.0
H523 H 0.63858 0.09907 0.39802 0.0
H524 H 0.64843 0.08046 0.40716 0.0
H525 H 0.63413 0.08497 0.46314 0.0
H526 H 0.59026 0.05263 0.2124 0.0
H527 H 0.57074 0.02428 0.2209 0.0
H528 H 0.59927 0.03329 0.22004 0.0
C529 C 0.55018 0.64181 0.26688 0.0
C530 C 0.54151 0.65579 0.26361 0.0
C531 C 0.54314 0.62548 0.30589 0.0
C532 C 0.52656 0.62255 0.34191 0.0
C533 C 0.51698 0.63588 0.33722 0.0
C534 C 0.52472 0.6525 0.29853 0.0
C535 C 0.55387 0.61168 0.30938 0.0
C536 C 0.49897 0.63298 0.37397 0.0
C537 C 0.50524 0.56801 0.40669 0.0
C538 C 0.51891 0.57434 0.45778 0.0
C539 C 0.50572 0.58379 0.37104 0.0
C540 C 0.52051 0.60633 0.38637 0.0
C541 C 0.53258 0.61282 0.44078 0.0
C542 C 0.53145 0.59674 0.4761 0.0
C543 C 0.49182 0.5762 0.31461 0.0
C544 C 0.54851 0.63664 0.45911 0.0
H545 H 0.56261 0.64363 0.23887 0.0
H546 H 0.51791 0.6632 0.29656 0.0
H547 H 0.56154 0.6138 0.35364 0.0
H548 H 0.54155 0.59405 0.30044 0.0
H549 H 0.56654 0.61605 0.27832 0.0
H550 H 0.49058 0.64162 0.35775 0.0
H551 H 0.48682 0.61533 0.37542 0.0
H552 H 0.50579 0.6397 0.41888 0.0
H553 H 0.4951 0.55073 0.39273 0.0
H554 H 0.54185 0.60186 0.5159 0.0
H555 H 0.50192 0.57695 0.27892 0.0
H556 H 0.4851 0.58705 0.30552 0.0
H557 H 0.47819 0.55905 0.31463 0.0
H558 H 0.56285 0.64243 0.43337 0.0
H559 H 0.55419 0.63918 0.50561 0.0
H560 H 0.54115 0.64698 0.45083 0.0
C561 C 0.94254 0.58178 0.17963 0.0
C562 C 0.92147 0.57461 0.19622 0.0
C563 C 0.95787 0.57994 0.21535 0.0
C564 C 0.95186 0.57032 0.2684 0.0
C565 C 0.93074 0.56326 0.28571 0.0
C566 C 0.91589 0.56571 0.24973 0.0
C567 C 0.98038 0.58799 0.196 0.0
C568 C 0.9237 0.55282 0.34194 0.0
C569 C 0.98125 0.54431 0.34083 0.0
C570 C 0.99278 0.55966 0.38781 0.0
C571 C 0.96843 0.54793 0.30013 0.0
C572 C 0.96754 0.56754 0.30617 0.0
C573 C 0.9803 0.5837 0.3514 0.0
C574 C 0.99261 0.57947 0.39202 0.0
C575 C 0.95486 0.53022 0.25275 0.0
C576 C 0.98018 0.60503 0.35847 0.0
H577 H 0.94694 0.58835 0.138 0.0
H578 H 0.89982 0.56049 0.26345 0.0
H579 H 0.99276 0.59977 0.22981 0.0
H580 H 0.98327 0.57401 0.18965 0.0
H581 H 0.98283 0.59615 0.15503 0.0
H582 H 0.90655 0.54784 0.34854 0.0
H583 H 0.92551 0.5381 0.34288 0.0
H584 H 0.93423 0.56446 0.37872 0.0
H585 H 0.98128 0.52894 0.33764 0.0
H586 H 0.00174 0.59149 0.42798 0.0
H587 H 0.95737 0.53721 0.21014 0.0
H588 H 0.9374 0.52312 0.25985 0.0
H589 H 0.95872 0.51677 0.25121 0.0
H590 H 0.98281 0.61279 0.31691 0.0
H591 H 0.99285 0.61684 0.39175 0.0
H592 H 0.9641 0.60176 0.37134 0.0
C593 C 0.38184 0.92556 0.23389 0.0
C594 C 0.36638 0.90313 0.23101 0.0
C595 C 0.40019 0.9346 0.27332 0.0
C596 C 0.40312 0.92087 0.31081 0.0
C597 C 0.38884 0.89788 0.30369 0.0
C598 C 0.37053 0.88924 0.26389 0.0
C599 C 0.4152 0.95917 0.27876 0.0
C600 C 0.39174 0.88263 0.34178 0.0
C601 C 0.45367 0.95019 0.41599 0.0
C602 C 0.44541 0.95631 0.46242 0.0
C603 C 0.43994 0.93751 0.36699 0.0
C604 C 0.4176 0.93102 0.36471 0.0
C605 C 0.40909 0.93612 0.41298 0.0
C606 C 0.42306 0.9486 0.46105 0.0
C607 C 0.44959 0.93207 0.3169 0.0
C608 C 0.38534 0.92937 0.41292 0.0
H609 H 0.379 0.93624 0.20725 0.0
H610 H 0.35874 0.87184 0.26145 0.0
H611 H 0.41224 0.96629 0.31851 0.0
H612 H 0.43241 0.96327 0.28267 0.0
H613 H 0.41266 0.96706 0.24124 0.0
H614 H 0.38252 0.86535 0.32295 0.0
H615 H 0.40915 0.88762 0.34891 0.0
H616 H 0.38577 0.88342 0.38456 0.0
H617 H 0.47091 0.95593 0.41695 0.0
H618 H 0.41642 0.95283 0.49724 0.0
H619 H 0.45289 0.94405 0.28405 0.0
H620 H 0.43821 0.91545 0.29597 0.0
H621 H 0.46515 0.93294 0.33074 0.0
H622 H 0.38121 0.93763 0.3792 0.0
H623 H 0.38117 0.93366 0.45515 0.0
H624 H 0.37499 0.91141 0.4025 0.0
C625 C 0.45122 0.34911 0.33525 0.0
C626 C 0.467 0.35087 0.29838 0.0
C627 C 0.45579 0.366 0.37769 0.0
C628 C 0.47667 0.38497 0.38372 0.0
C629 C 0.49307 0.38613 0.34952 0.0
C630 C 0.488 0.36921 0.30698 0.0
C631 C 0.43788 0.36413 0.41342 0.0
C632 C 0.51565 0.40598 0.35504 0.0
C633 C 0.48497 0.44146 0.41917 0.0
C634 C 0.49514 0.44669 0.47522 0.0
C635 C 0.47754 0.42082 0.39056 0.0
C636 C 0.48061 0.40503 0.41841 0.0
C637 C 0.48961 0.40967 0.47646 0.0
C638 C 0.49669 0.43051 0.50445 0.0
C639 C 0.46753 0.4164 0.32922 0.0
C640 C 0.49302 0.39323 0.50778 0.0
H641 H 0.4351 0.33478 0.33 0.0
H642 H 0.5003 0.37096 0.27856 0.0
H643 H 0.44394 0.36948 0.45941 0.0
H644 H 0.43207 0.37508 0.3978 0.0
H645 H 0.42386 0.3471 0.41056 0.0
H646 H 0.52722 0.40311 0.33095 0.0
H647 H 0.51511 0.42014 0.33785 0.0
H648 H 0.52194 0.41057 0.40108 0.0
H649 H 0.48326 0.45378 0.39698 0.0
H650 H 0.50442 0.43448 0.548 0.0
H651 H 0.45207 0.40047 0.32404 0.0
H652 H 0.47868 0.41531 0.29924 0.0
H653 H 0.46424 0.42948 0.31614 0.0
H654 H 0.47877 0.37647 0.49924 0.0
H655 H 0.49605 0.3975 0.55518 0.0
H656 H 0.50727 0.39286 0.49183 0.0
C657 C 0.53083 0.88452 0.84192 0.0
C658 C 0.55238 0.88907 0.84885 0.0
C659 C 0.5248 0.89588 0.80419 0.0
C660 C 0.54075 0.91245 0.77313 0.0
C661 C 0.56211 0.91589 0.77629 0.0
C662 C 0.56764 0.90408 0.81389 0.0
C663 C 0.50175 0.89146 0.80156 0.0
C664 C 0.57961 0.93333 0.74385 0.0
C665 C 0.52054 0.93967 0.66831 0.0
C666 C 0.52192 0.95676 0.70493 0.0
C667 C 0.52739 0.92543 0.68891 0.0
C668 C 0.53601 0.92865 0.74704 0.0
C669 C 0.53861 0.94673 0.78279 0.0
C670 C 0.53145 0.96043 0.76141 0.0
C671 C 0.52451 0.90645 0.6494 0.0
C672 C 0.54815 0.95112 0.84465 0.0
H673 H 0.51887 0.87309 0.86871 0.0
H674 H 0.58421 0.90732 0.81766 0.0
H675 H 0.50131 0.90512 0.82593 0.0
H676 H 0.49559 0.89063 0.75627 0.0
H677 H 0.49063 0.87591 0.82051 0.0
H678 H 0.59385 0.93098 0.74139 0.0
H679 H 0.57332 0.93343 0.69942 0.0
H680 H 0.58519 0.94968 0.76639 0.0
H681 H 0.51326 0.93684 0.62453 0.0
H682 H 0.53298 0.9739 0.78953 0.0
H683 H 0.51193 0.8908 0.66493 0.0
H684 H 0.53981 0.90593 0.64999 0.0
H685 H 0.51952 0.90741 0.60414 0.0
H686 H 0.53719 0.93757 0.87037 0.0
H687 H 0.55055 0.96679 0.86519 0.0
H688 H 0.56404 0.95176 0.84672 0.0
C689 C 0.64195 0.52048 0.92833 0.0
C690 C 0.6506 0.54125 0.95781 0.0
C691 C 0.62366 0.5123 0.8886 0.0
C692 C 0.61387 0.5252 0.87873 0.0
C693 C 0.62153 0.54535 0.91209 0.0
C694 C 0.63989 0.55319 0.95096 0.0
C695 C 0.61589 0.4907 0.85414 0.0
C696 C 0.61137 0.55948 0.90361 0.0
C697 C 0.59307 0.52861 0.73003 0.0
C698 C 0.57063 0.51823 0.73467 0.0
C699 C 0.60713 0.52953 0.77534 0.0
C700 C 0.59856 0.52002 0.82708 0.0
C701 C 0.57576 0.50817 0.83067 0.0
C702 C 0.56196 0.50731 0.78404 0.0
C703 C 0.6313 0.54198 0.76907 0.0
C704 C 0.566 0.49768 0.88491 0.0
H705 H 0.65018 0.51119 0.93391 0.0
H706 H 0.64634 0.56905 0.97476 0.0
H707 H 0.59789 0.48089 0.84982 0.0
H708 H 0.62145 0.49385 0.80999 0.0
H709 H 0.62231 0.48086 0.87416 0.0
H710 H 0.61731 0.57309 0.93801 0.0
H711 H 0.61532 0.56668 0.86133 0.0
H712 H 0.59343 0.54945 0.903 0.0
H713 H 0.59977 0.53669 0.69134 0.0
H714 H 0.54458 0.49919 0.78756 0.0
H715 H 0.63872 0.5321 0.78201 0.0
H716 H 0.63904 0.55732 0.79802 0.0
H717 H 0.63511 0.54642 0.72414 0.0
H718 H 0.57468 0.4898 0.90406 0.0
H719 H 0.5485 0.4852 0.87656 0.0
H720 H 0.56755 0.51053 0.91731 0.0
C721 C 0.10565 0.6662 0.88617 0.0
C722 C 0.12046 0.6658 0.92737 0.0
C723 C 0.09431 0.649 0.8429 0.0
C724 C 0.09795 0.63103 0.84059 0.0
C725 C 0.11414 0.6314 0.87909 0.0
C726 C 0.12512 0.64871 0.92217 0.0
C727 C 0.07725 0.6493 0.80263 0.0
C728 C 0.11867 0.61264 0.87781 0.0
C729 C 0.05057 0.57385 0.8013 0.0
C730 C 0.05473 0.56893 0.74588 0.0
C731 C 0.06411 0.59429 0.83135 0.0
C732 C 0.08246 0.61029 0.80564 0.0
C733 C 0.08636 0.60581 0.74876 0.0
C734 C 0.07234 0.58514 0.71931 0.0
C735 C 0.05908 0.59846 0.89151 0.0
C736 C 0.10569 0.62254 0.71985 0.0
H737 H 0.10233 0.67962 0.88894 0.0
H738 H 0.13643 0.64814 0.95381 0.0
H739 H 0.07797 0.6438 0.75776 0.0
H740 H 0.06091 0.63775 0.81625 0.0
H741 H 0.07906 0.6659 0.80293 0.0
H742 H 0.13381 0.61687 0.90435 0.0
H743 H 0.10495 0.59817 0.89488 0.0
H744 H 0.12008 0.60779 0.83287 0.0
H745 H 0.03675 0.56155 0.8217 0.0
H746 H 0.07561 0.58142 0.67647 0.0
H747 H 0.05818 0.61372 0.89464 0.0
H748 H 0.0723 0.60078 0.9233 0.0
H749 H 0.04352 0.58473 0.90391 0.0
H750 H 0.10566 0.63825 0.71986 0.0
H751 H 0.10588 0.6169 0.67459 0.0
H752 H 0.1209 0.62595 0.74445 0.0
C753 C 0.46701 0.09835 0.95763 0.0
C754 C 0.47971 0.12032 0.97925 0.0
C755 C 0.47414 0.08942 0.91477 0.0
C756 C 0.49454 0.1028 0.89281 0.0
C757 C 0.50749 0.12504 0.91431 0.0
C758 C 0.49992 0.13355 0.95748 0.0
C759 C 0.45986 0.06555 0.8933 0.0
C760 C 0.52922 0.13979 0.8916 0.0
C761 C 0.51318 0.06639 0.824 0.0
C762 C 0.50349 0.06276 0.76763 0.0
C763 C 0.5125 0.08137 0.86438 0.0
C764 C 0.50198 0.09301 0.84774 0.0
C765 C 0.49477 0.09154 0.78909 0.0
C766 C 0.49563 0.07641 0.74962 0.0
C767 C 0.52077 0.08276 0.92626 0.0
C768 C 0.48391 0.10404 0.7692 0.0
H769 H 0.45155 0.08797 0.97499 0.0
H770 H 0.50971 0.15061 0.97378 0.0
H771 H 0.45583 0.06413 0.84606 0.0
H772 H 0.46864 0.0565 0.901 0.0
H773 H 0.44445 0.05744 0.91485 0.0
H774 H 0.53745 0.15662 0.91351 0.0
H775 H 0.53997 0.13276 0.89752 0.0
H776 H 0.52706 0.14092 0.84457 0.0
H777 H 0.51966 0.05622 0.83813 0.0
H778 H 0.48852 0.07408 0.70581 0.0
H779 H 0.5068 0.07315 0.95213 0.0
H780 H 0.52939 0.09997 0.94537 0.0
H781 H 0.53191 0.07605 0.93004 0.0
H782 H 0.46694 0.09571 0.7817 0.0
H783 H 0.48349 0.10479 0.72155 0.0
H784 H 0.49232 0.12101 0.79001 0.0
C785 C 0.3656 0.44117 0.98677 0.0
C786 C 0.35076 0.44762 0.96778 0.0
C787 C 0.38285 0.44427 0.95426 0.0
C788 C 0.38569 0.45451 0.90196 0.0
C789 C 0.37097 0.46127 0.88264 0.0
C790 C 0.35358 0.45759 0.91554 0.0
C791 C 0.39805 0.43658 0.97594 0.0
C792 C 0.37361 0.47242 0.82724 0.0
C793 C 0.4413 0.47978 0.84273 0.0
C794 C 0.43777 0.46404 0.79813 0.0
C795 C 0.42447 0.47694 0.87689 0.0
C796 C 0.40381 0.45771 0.86685 0.0
C797 C 0.40041 0.44146 0.82308 0.0
C798 C 0.41736 0.44492 0.78892 0.0
C799 C 0.4286 0.49475 0.92273 0.0
C800 C 0.37878 0.4205 0.81195 0.0
H801 H 0.364 0.43399 0.02775 0.0
H802 H 0.34215 0.46246 0.90017 0.0
H803 H 0.39827 0.42483 0.94301 0.0
H804 H 0.41484 0.45071 0.98317 0.0
H805 H 0.39332 0.42849 0.01691 0.0
H806 H 0.36124 0.47738 0.81927 0.0
H807 H 0.38999 0.48723 0.82865 0.0
H808 H 0.37227 0.46123 0.79017 0.0
H809 H 0.457 0.49467 0.84962 0.0
H810 H 0.41461 0.43262 0.75474 0.0
H811 H 0.42515 0.48795 0.96555 0.0
H812 H 0.41749 0.50116 0.91336 0.0
H813 H 0.4456 0.50863 0.92537 0.0
H814 H 0.37413 0.41189 0.85214 0.0
H815 H 0.37905 0.40917 0.77765 0.0
H816 H 0.36598 0.42435 0.79878 0.0
C817 C 0.87119 0.36853 0.88404 0.0
C818 C 0.88435 0.3621 0.91421 0.0
C819 C 0.87997 0.38506 0.84523 0.0
C820 C 0.90242 0.39542 0.83694 0.0
C821 C 0.91574 0.38907 0.86777 0.0
C822 C 0.90655 0.37251 0.90581 0.0
C823 C 0.86525 0.39124 0.81275 0.0
C824 C 0.93982 0.39983 0.86085 0.0
C825 C 0.9317 0.42369 0.70899 0.0
C826 C 0.94424 0.44538 0.7334 0.0
C827 C 0.91584 0.40735 0.7398 0.0
C828 C 0.91248 0.41289 0.79618 0.0
C829 C 0.92288 0.43523 0.81739 0.0
C830 C 0.93864 0.45125 0.78563 0.0
C831 C 0.90465 0.38383 0.7147 0.0
C832 C 0.9194 0.44202 0.8766 0.0
H833 H 0.854 0.36046 0.89029 0.0
H834 H 0.91688 0.36794 0.92989 0.0
H835 H 0.87199 0.40926 0.81789 0.0
H836 H 0.8642 0.38666 0.76596 0.0
H837 H 0.84858 0.38295 0.82753 0.0
H838 H 0.94791 0.39313 0.88853 0.0
H839 H 0.94259 0.39741 0.8152 0.0
H840 H 0.94774 0.41777 0.87209 0.0
H841 H 0.93551 0.41901 0.66802 0.0
H842 H 0.94781 0.46808 0.80424 0.0
H843 H 0.88745 0.3748 0.72512 0.0
H844 H 0.91289 0.37549 0.73377 0.0
H845 H 0.90524 0.38274 0.66705 0.0
H846 H 0.90216 0.43222 0.88612 0.0
H847 H 0.92442 0.45972 0.88101 0.0
H848 H 0.92928 0.43911 0.90953 0.0
C849 C 0.89924 0.52297 0.88592 0.0
C850 C 0.88604 0.52961 0.85697 0.0
C851 C 0.91422 0.51958 0.85668 0.0
C852 C 0.9158 0.52268 0.79702 0.0
C853 C 0.90118 0.52751 0.76668 0.0
C854 C 0.88661 0.53116 0.7972 0.0
C855 C 0.92962 0.51466 0.89078 0.0
C856 C 0.90196 0.53035 0.70272 0.0
C857 C 0.97039 0.54672 0.73405 0.0
C858 C 0.96896 0.52826 0.70446 0.0
C859 C 0.95353 0.54487 0.76638 0.0
C860 C 0.93457 0.5241 0.7681 0.0
C861 C 0.9333 0.50525 0.73977 0.0
C862 C 0.95066 0.50753 0.70874 0.0
C863 C 0.95577 0.56529 0.79728 0.0
C864 C 0.91334 0.48287 0.74052 0.0
H865 H 0.89898 0.522 0.93231 0.0
H866 H 0.8763 0.53617 0.7748 0.0
H867 H 0.93183 0.50204 0.8669 0.0
H868 H 0.94577 0.52979 0.89772 0.0
H869 H 0.92386 0.50892 0.93365 0.0
H870 H 0.8876 0.53089 0.68422 0.0
H871 H 0.91679 0.54591 0.69501 0.0
H872 H 0.90281 0.51677 0.67932 0.0
H873 H 0.98463 0.56271 0.73137 0.0
H874 H 0.94947 0.49322 0.68566 0.0
H875 H 0.95249 0.56262 0.84327 0.0
H876 H 0.94364 0.56903 0.77747 0.0
H877 H 0.97221 0.57981 0.79537 0.0
H878 H 0.91075 0.47811 0.78552 0.0
H879 H 0.91459 0.47002 0.7144 0.0
H880 H 0.89877 0.48331 0.72349 0.0
C881 C 0.33909 0.93736 0.9147 0.0
C882 C 0.32346 0.9152 0.90091 0.0
C883 C 0.35558 0.94889 0.87824 0.0
C884 C 0.35658 0.93794 0.827 0.0
C885 C 0.33988 0.91616 0.81044 0.0
C886 C 0.32347 0.90504 0.8476 0.0
C887 C 0.373 0.97216 0.89732 0.0
C888 C 0.34031 0.90399 0.75589 0.0
C889 C 0.39948 0.97186 0.72583 0.0
C890 C 0.41673 0.96893 0.74544 0.0
C891 C 0.37954 0.96153 0.75103 0.0
C892 C 0.37683 0.94795 0.79657 0.0
C893 C 0.39401 0.94456 0.81556 0.0
C894 C 0.4137 0.95511 0.7899 0.0
C895 C 0.36157 0.96554 0.72991 0.0
C896 C 0.39176 0.93009 0.86386 0.0
H897 H 0.33942 0.94535 0.95596 0.0
H898 H 0.3112 0.88805 0.83612 0.0
H899 H 0.38806 0.97234 0.91268 0.0
H900 H 0.37691 0.98274 0.86072 0.0
H901 H 0.36811 0.9794 0.93295 0.0
H902 H 0.3245 0.88874 0.74429 0.0
H903 H 0.34443 0.91454 0.7192 0.0
H904 H 0.35304 0.89943 0.76213 0.0
H905 H 0.40166 0.98249 0.69148 0.0
H906 H 0.42681 0.95255 0.80507 0.0
H907 H 0.35833 0.97454 0.76478 0.0
H908 H 0.34633 0.9497 0.71888 0.0
H909 H 0.36567 0.97523 0.69143 0.0
H910 H 0.38897 0.93696 0.90433 0.0
H911 H 0.40639 0.92853 0.87197 0.0
H912 H 0.37751 0.91344 0.85342 0.0
C913 C 0.45589 0.34916 0.88573 0.0
C914 C 0.46644 0.3371 0.89329 0.0
C915 C 0.46142 0.36404 0.84297 0.0
C916 C 0.47766 0.36665 0.80594 0.0
C917 C 0.48761 0.35367 0.81141 0.0
C918 C 0.48213 0.33928 0.85575 0.0
C919 C 0.45061 0.37776 0.83942 0.0
C920 C 0.50451 0.35547 0.7718 0.0
C921 C 0.47752 0.40012 0.68325 0.0
C922 C 0.49236 0.42141 0.70731 0.0
C923 C 0.47411 0.38165 0.71201 0.0
C924 C 0.48554 0.38465 0.76628 0.0
C925 C 0.50219 0.40593 0.78729 0.0
C926 C 0.50557 0.42399 0.75717 0.0
C927 C 0.45694 0.35913 0.68676 0.0
C928 C 0.51485 0.41 0.84485 0.0
H929 H 0.44391 0.34765 0.91506 0.0
H930 H 0.49018 0.32981 0.8613 0.0
H931 H 0.46295 0.39538 0.84889 0.0
H932 H 0.44309 0.37582 0.79513 0.0
H933 H 0.43786 0.37325 0.87027 0.0
H934 H 0.50723 0.3413 0.77355 0.0
H935 H 0.49966 0.35649 0.72651 0.0
H936 H 0.52014 0.37068 0.78477 0.0
H937 H 0.46751 0.39789 0.64416 0.0
H938 H 0.51748 0.44033 0.77551 0.0
H939 H 0.44172 0.35401 0.70818 0.0
H940 H 0.46201 0.34685 0.6942 0.0
H941 H 0.45338 0.35896 0.63965 0.0
H942 H 0.50399 0.40729 0.88008 0.0
H943 H 0.52887 0.42702 0.85174 0.0
H944 H 0.52095 0.39838 0.84841 0.0
C945 C 0.08065 0.40761 0.93584 0.0
C946 C 0.10301 0.42234 0.93579 0.0
C947 C 0.06584 0.40851 0.89573 0.0
C948 C 0.07367 0.42465 0.8553 0.0
C949 C 0.0963 0.43784 0.85103 0.0
C950 C 0.11072 0.43647 0.8913 0.0
C951 C 0.04183 0.39376 0.90065 0.0
C952 C 0.10534 0.45509 0.80812 0.0
C953 C 0.03745 0.43118 0.74219 0.0
C954 C 0.03489 0.44771 0.77024 0.0
C955 C 0.04923 0.42263 0.77006 0.0
C956 C 0.05881 0.43104 0.82684 0.0
C957 C 0.05548 0.44703 0.85609 0.0
C958 C 0.0435 0.45505 0.8276 0.0
C959 C 0.0521 0.4053 0.73795 0.0
C960 C 0.06536 0.45643 0.91685 0.0
H961 H 0.07455 0.39658 0.97 0.0
H962 H 0.12804 0.4475 0.89031 0.0
H963 H 0.03544 0.40307 0.92432 0.0
H964 H 0.03288 0.38807 0.85734 0.0
H965 H 0.03845 0.37922 0.92452 0.0
H966 H 0.12293 0.46149 0.80419 0.0
H967 H 0.09655 0.44842 0.76489 0.0
H968 H 0.10311 0.46903 0.82237 0.0
H969 H 0.03076 0.42529 0.69799 0.0
H970 H 0.04146 0.46764 0.85001 0.0
H971 H 0.05005 0.39229 0.76643 0.0
H972 H 0.06879 0.41286 0.72361 0.0
H973 H 0.04041 0.39759 0.69923 0.0
H974 H 0.06025 0.44306 0.9463 0.0
H975 H 0.06063 0.46827 0.93404 0.0
H976 H 0.08334 0.46499 0.91759 0.0
C977 C 0.63939 0.1257 0.89407 0.0
C978 C 0.65127 0.11683 0.91907 0.0
C979 C 0.62021 0.11228 0.85867 0.0
C980 C 0.6129 0.08961 0.84864 0.0
C981 C 0.62406 0.08042 0.87727 0.0
C982 C 0.64314 0.09416 0.91199 0.0
C983 C 0.60851 0.12253 0.82943 0.0
C984 C 0.61657 0.05624 0.86855 0.0
C985 C 0.55914 0.04749 0.76859 0.0
C986 C 0.56612 0.04535 0.71462 0.0
C987 C 0.57399 0.06263 0.81262 0.0
C988 C 0.59603 0.07608 0.80143 0.0
C989 C 0.60275 0.07473 0.74585 0.0
C990 C 0.58775 0.05928 0.70338 0.0
C991 C 0.56624 0.06379 0.87127 0.0
C992 C 0.62607 0.08882 0.73192 0.0
H993 H 0.64556 0.14321 0.90027 0.0
H994 H 0.65197 0.0872 0.93288 0.0
H995 H 0.6109 0.1228 0.78259 0.0
H996 H 0.5908 0.11263 0.83384 0.0
H997 H 0.61451 0.13961 0.8475 0.0
H998 H 0.62562 0.05133 0.89883 0.0
H999 H 0.59899 0.04624 0.87452 0.0
H1000 H 0.61898 0.05229 0.82372 0.0
H1001 H 0.5424 0.03671 0.77714 0.0
H1002 H 0.59306 0.05793 0.66118 0.0
H1003 H 0.56633 0.0795 0.87838 0.0
H1004 H 0.57726 0.06345 0.90598 0.0
H1005 H 0.54953 0.05006 0.87544 0.0
H1006 H 0.63193 0.10636 0.74448 0.0
H1007 H 0.62817 0.08707 0.68529 0.0
H1008 H 0.63654 0.08411 0.75698 0.0
C1009 C 0.54707 0.661 0.83648 0.0
C1010 C 0.56502 0.66841 0.87687 0.0
C1011 C 0.5414 0.64335 0.79573 0.0
C1012 C 0.55404 0.63301 0.7955 0.0
C1013 C 0.57363 0.64218 0.8313 0.0
C1014 C 0.57886 0.65975 0.87185 0.0
C1015 C 0.52062 0.63435 0.75746 0.0
C1016 C 0.58779 0.63189 0.83147 0.0
C1017 C 0.52408 0.57108 0.78035 0.0
C1018 C 0.5283 0.56654 0.72468 0.0
C1019 C 0.53192 0.59264 0.80286 0.0
C1020 C 0.54443 0.61023 0.76898 0.0
C1021 C 0.54821 0.60584 0.71199 0.0
C1022 C 0.54006 0.58396 0.69041 0.0
C1023 C 0.5272 0.59655 0.86364 0.0
C1024 C 0.56144 0.62415 0.67456 0.0
H1025 H 0.53666 0.66808 0.83912 0.0
H1026 H 0.59281 0.66542 0.9027 0.0
H1027 H 0.52258 0.62913 0.7135 0.0
H1028 H 0.50763 0.61969 0.77592 0.0
H1029 H 0.51522 0.64658 0.75401 0.0
H1030 H 0.60418 0.64312 0.85328 0.0
H1031 H 0.58005 0.61672 0.85472 0.0
H1032 H 0.5896 0.6272 0.78677 0.0
H1033 H 0.51476 0.55773 0.80689 0.0
H1034 H 0.54335 0.58059 0.6473 0.0
H1035 H 0.51924 0.60663 0.86369 0.0
H1036 H 0.54261 0.60577 0.89145 0.0
H1037 H 0.51651 0.58101 0.88327 0.0
H1038 H 0.55693 0.63708 0.67788 0.0
H1039 H 0.5594 0.61808 0.62846 0.0
H1040 H 0.57888 0.6319 0.68959 0.0
C1041 C 0.44958 0.10593 0.40039 0.0
C1042 C 0.46554 0.12145 0.36793 0.0
C1043 C 0.45412 0.09281 0.4355 0.0
C1044 C 0.47516 0.09542 0.43858 0.0
C1045 C 0.49191 0.11271 0.41122 0.0
C1046 C 0.48688 0.12544 0.37594 0.0
C1047 C 0.43584 0.07473 0.46446 0.0
C1048 C 0.51467 0.11633 0.4142 0.0
C1049 C 0.49111 0.06203 0.53287 0.0
C1050 C 0.48894 0.04568 0.49193 0.0
C1051 C 0.4861 0.07813 0.51697 0.0
C1052 C 0.47856 0.07759 0.45909 0.0
C1053 C 0.47535 0.06043 0.41856 0.0
C1054 C 0.48068 0.04482 0.43541 0.0
C1055 C 0.48975 0.09617 0.56136 0.0
C1056 C 0.46694 0.05892 0.35663 0.0
H1057 H 0.43318 0.10314 0.39575 0.0
H1058 H 0.49937 0.13733 0.35117 0.0
H1059 H 0.42995 0.05889 0.43867 0.0
H1060 H 0.44148 0.07311 0.50825 0.0
H1061 H 0.42197 0.07762 0.46797 0.0
H1062 H 0.5265 0.13258 0.39973 0.0
H1063 H 0.51998 0.11513 0.45882 0.0
H1064 H 0.51498 0.1034 0.3859 0.0
H1065 H 0.49747 0.06273 0.57666 0.0
H1066 H 0.4786 0.032 0.4038 0.0
H1067 H 0.47568 0.09884 0.55967 0.0
H1068 H 0.50417 0.11175 0.55172 0.0
H1069 H 0.49255 0.0925 0.60587 0.0
H1070 H 0.45145 0.05908 0.35518 0.0
H1071 H 0.46416 0.04382 0.33158 0.0
H1072 H 0.47878 0.07336 0.33497 0.0
C1073 C 0.3888 0.49309 0.2792 0.0
C1074 C 0.36952 0.48628 0.3063 0.0
C1075 C 0.40789 0.49723 0.31075 0.0
C1076 C 0.4076 0.49465 0.37073 0.0
C1077 C 0.38862 0.48957 0.39896 0.0
C1078 C 0.36971 0.48522 0.36623 0.0
C1079 C 0.42769 0.50243 0.27895 0.0
C1080 C 0.38781 0.48714 0.46313 0.0
C1081 C 0.43922 0.47181 0.44564 0.0
C1082 C 0.45554 0.49041 0.47837 0.0
C1083 C 0.42439 0.47332 0.40733 0.0
C1084 C 0.42569 0.49389 0.4026 0.0
C1085 C 0.44297 0.51298 0.43283 0.0
C1086 C 0.45789 0.51104 0.4701 0.0
C1087 C 0.40657 0.45265 0.37449 0.0
C1088 C 0.44488 0.53517 0.42866 0.0
H1089 H 0.38859 0.49373 0.23267 0.0
H1090 H 0.35481 0.48012 0.38712 0.0
H1091 H 0.44276 0.51513 0.30401 0.0
H1092 H 0.42892 0.4874 0.27287 0.0
H1093 H 0.4268 0.50818 0.23574 0.0
H1094 H 0.37299 0.48617 0.47951 0.0
H1095 H 0.38796 0.47194 0.47266 0.0
H1096 H 0.40229 0.50115 0.4871 0.0
H1097 H 0.43764 0.45591 0.45132 0.0
H1098 H 0.47055 0.52547 0.49537 0.0
H1099 H 0.40538 0.45529 0.32811 0.0
H1100 H 0.39074 0.4483 0.39156 0.0
H1101 H 0.40926 0.43852 0.37815 0.0
H1102 H 0.44454 0.53877 0.38282 0.0
H1103 H 0.46002 0.54858 0.45199 0.0
H1104 H 0.43079 0.5351 0.44726 0.0
C1105 C 0.91129 0.35568 0.34251 0.0
C1106 C 0.89548 0.35636 0.30579 0.0
C1107 C 0.9243 0.37302 0.3841 0.0
C1108 C 0.92131 0.39139 0.38921 0.0
C1109 C 0.90395 0.39114 0.35631 0.0
C1110 C 0.8913 0.37366 0.31478 0.0
C1111 C 0.94251 0.37256 0.41858 0.0
C1112 C 0.90005 0.41029 0.36091 0.0
C1113 C 0.95383 0.43863 0.50412 0.0
C1114 C 0.97033 0.45371 0.47219 0.0
C1115 C 0.93783 0.41799 0.47827 0.0
C1116 C 0.9386 0.41235 0.41952 0.0
C1117 C 0.95568 0.42726 0.38789 0.0
C1118 C 0.97123 0.44772 0.41451 0.0
C1119 C 0.91984 0.40249 0.51321 0.0
C1120 C 0.9573 0.42182 0.32531 0.0
H1121 H 0.91425 0.34208 0.33678 0.0
H1122 H 0.87917 0.37439 0.28663 0.0
H1123 H 0.95808 0.3833 0.39984 0.0
H1124 H 0.94401 0.37894 0.46405 0.0
H1125 H 0.94011 0.35573 0.41803 0.0
H1126 H 0.88389 0.40599 0.34043 0.0
H1127 H 0.90123 0.41615 0.40674 0.0
H1128 H 0.91269 0.4241 0.33898 0.0
H1129 H 0.95307 0.44318 0.54875 0.0
H1130 H 0.98409 0.45916 0.38974 0.0
H1131 H 0.91919 0.38643 0.51251 0.0
H1132 H 0.90397 0.39939 0.49374 0.0
H1133 H 0.92194 0.40905 0.55884 0.0
H1134 H 0.95754 0.40622 0.32058 0.0
H1135 H 0.9721 0.4349 0.30767 0.0
H1136 H 0.94288 0.4195 0.29871 0.0
C1137 C 0.56312 0.90748 0.27404 0.0
C1138 C 0.55369 0.88503 0.25852 0.0
C1139 C 0.55657 0.91501 0.32152 0.0
C1140 C 0.54057 0.89964 0.35514 0.0
C1141 C 0.53192 0.87688 0.34156 0.0
C1142 C 0.5383 0.86981 0.29257 0.0
C1143 C 0.56603 0.93945 0.33388 0.0
C1144 C 0.51542 0.85996 0.37728 0.0
C1145 C 0.53877 0.93033 0.48985 0.0
C1146 C 0.52348 0.93606 0.47025 0.0
C1147 C 0.54282 0.91606 0.45542 0.0
C1148 C 0.53158 0.90777 0.40013 0.0
C1149 C 0.5142 0.9112 0.38384 0.0
C1150 C 0.51017 0.92507 0.41954 0.0
C1151 C 0.5606 0.91169 0.47578 0.0
C1152 C 0.50157 0.90248 0.32559 0.0
H1153 H 0.57496 0.91918 0.24742 0.0
H1154 H 0.53118 0.85241 0.28064 0.0
H1155 H 0.55293 0.94357 0.32946 0.0
H1156 H 0.57346 0.94458 0.37889 0.0
H1157 H 0.57859 0.94916 0.30422 0.0
H1158 H 0.51504 0.84405 0.37149 0.0
H1159 H 0.51888 0.86564 0.42386 0.0
H1160 H 0.49904 0.85708 0.36361 0.0
H1161 H 0.54878 0.93828 0.52973 0.0
H1162 H 0.49785 0.92887 0.4048 0.0
H1163 H 0.57579 0.92298 0.45619 0.0
H1164 H 0.55634 0.89463 0.46224 0.0
H1165 H 0.56384 0.91443 0.52352 0.0
H1166 H 0.51217 0.91158 0.29139 0.0
H1167 H 0.48698 0.90434 0.32245 0.0
H1168 H 0.49635 0.8849 0.31669 0.0
C1169 C 0.679 0.56324 0.33047 0.0
C1170 C 0.69438 0.58425 0.31582 0.0
C1171 C 0.66313 0.56035 0.36806 0.0
C1172 C 0.66223 0.57884 0.39049 0.0
C1173 C 0.67865 0.60017 0.37966 0.0
C1174 C 0.69471 0.60263 0.34308 0.0
C1175 C 0.64624 0.53732 0.37985 0.0
C1176 C 0.67823 0.62031 0.40262 0.0
C1177 C 0.60442 0.56545 0.4058 0.0
C1178 C 0.60276 0.56348 0.46521 0.0
C1179 C 0.62411 0.57172 0.38159 0.0
C1180 C 0.64243 0.57551 0.41755 0.0
C1181 C 0.64107 0.57431 0.47796 0.0
C1182 C 0.62123 0.56853 0.50124 0.0
C1183 C 0.62503 0.57339 0.31712 0.0
C1184 C 0.66011 0.57782 0.5175 0.0
H1185 H 0.67834 0.54884 0.30969 0.0
H1186 H 0.70689 0.61898 0.33356 0.0
H1187 H 0.64324 0.53639 0.42631 0.0
H1188 H 0.63068 0.53267 0.35503 0.0
H1189 H 0.65115 0.52514 0.36719 0.0
H1190 H 0.69382 0.63563 0.39825 0.0
H1191 H 0.66507 0.62134 0.37815 0.0
H1192 H 0.67472 0.61933 0.44869 0.0
H1193 H 0.59016 0.56174 0.37805 0.0
H1194 H 0.61987 0.56683 0.54721 0.0
H1195 H 0.62718 0.56007 0.29726 0.0
H1196 H 0.63914 0.58924 0.30759 0.0
H1197 H 0.61004 0.57207 0.29626 0.0
H1198 H 0.66286 0.56378 0.50997 0.0
H1199 H 0.65734 0.57916 0.56377 0.0
H1200 H 0.67515 0.59285 0.50813 0.0
C1201 C 0.14892 0.67997 0.37857 0.0
C1202 C 0.13386 0.67994 0.33751 0.0
C1203 C 0.14195 0.66603 0.42395 0.0
C1204 C 0.11948 0.65122 0.42677 0.0
C1205 C 0.10426 0.6515 0.38582 0.0
C1206 C 0.11164 0.66602 0.3422 0.0
C1207 C 0.1587 0.66679 0.46754 0.0
C1208 C 0.08015 0.63578 0.38648 0.0
C1209 C 0.09476 0.59493 0.48086 0.0
C1210 C 0.08304 0.59698 0.5253 0.0
C1211 C 0.10871 0.61313 0.45172 0.0
C1212 C 0.1115 0.63396 0.46863 0.0
C1213 C 0.10255 0.63668 0.51936 0.0
C1214 C 0.08821 0.61807 0.54699 0.0
C1215 C 0.11814 0.60944 0.39839 0.0
C1216 C 0.10623 0.65886 0.54085 0.0
H1217 H 0.16612 0.69086 0.3751 0.0
H1218 H 0.10002 0.66588 0.31014 0.0
H1219 H 0.15265 0.66384 0.51123 0.0
H1220 H 0.16247 0.6538 0.45466 0.0
H1221 H 0.17406 0.68284 0.46985 0.0
H1222 H 0.07051 0.63824 0.35177 0.0
H1223 H 0.07674 0.6186 0.38091 0.0
H1224 H 0.07448 0.63786 0.42866 0.0
H1225 H 0.0914 0.57877 0.4648 0.0
H1226 H 0.0797 0.61994 0.58229 0.0
H1227 H 0.13545 0.62222 0.39779 0.0
H1228 H 0.10927 0.61059 0.35942 0.0
H1229 H 0.11686 0.59306 0.39545 0.0
H1230 H 0.12318 0.6719 0.53597 0.0
H1231 H 0.10281 0.65922 0.58691 0.0
H1232 H 0.09525 0.66268 0.51494 0.0
loop_
_geom_bond_atom_site_label_1
_geom_bond_atom_site_label_2
_geom_bond_distance
_geom_bond_site_symmetry_2
_ccdc_geom_bond_type
H0 C27 0.929 . S
N1 C26 1.433 . S
N1 C32 1.435 . S
N1 C38 1.423 . S
H2 C28 0.930 . S
H3 C31 0.931 . S
H4 C30 0.929 . S
H5 C33 0.930 . S
H6 C34 0.932 . S
H7 C37 0.929 . S
H8 C36 0.931 . S
H9 C39 0.929 . S
H10 C43 0.932 . S
H11 C40 0.931 . S
H12 C42 0.929 . S
H13 C45 0.929 . S
H14 C46 0.930 . S
H15 C48 0.929 . S
H16 C49 0.931 . S
H17 C51 0.930 . S
H18 C52 0.932 . S
H19 C54 0.931 . S
H20 C55 0.929 . S
H21 C57 0.929 . S
H22 C58 0.931 . S
H23 C60 0.929 . S
N24 C44 1.433 . S
N24 C50 1.435 . S
N24 C56 1.423 . S
H25 C61 0.932 . S
C26 N1 1.433 . S
C26 C27 1.363 . S
C26 C31 1.370 . S
C27 H0 0.929 . S
C27 C26 1.363 . S
C27 C28 1.385 . S
C28 H2 0.930 . S
C28 C27 1.385 . S
C28 C29 1.357 . S
C29 C28 1.357 . S
C29 C30 1.406 . S
C30 H4 0.929 . S
C30 C29 1.406 . S
C30 C31 1.391 . S
C31 H3 0.931 . S
C31 C26 1.370 . S
C31 C30 1.391 . S
C32 N1 1.435 . S
C32 C33 1.358 . S
C32 C37 1.371 . S
C33 H5 0.930 . S
C33 C32 1.358 . S
C33 C34 1.405 . S
C34 H6 0.932 . S
C34 C33 1.405 . S
C34 C35 1.383 . S
C35 C34 1.383 . S
C35 C36 1.393 . S
C36 H8 0.931 . S
C36 C35 1.393 . S
C36 C37 1.382 . S
C37 H7 0.929 . S
C37 C32 1.371 . S
C37 C36 1.382 . S
C38 N1 1.423 . S
C38 C39 1.362 . S
C38 C43 1.388 . S
C39 H9 0.929 . S
C39 C38 1.362 . S
C39 C40 1.376 . S
C40 H11 0.931 . S
C40 C39 1.376 . S
C40 C41 1.396 . S
C41 C40 1.396 . S
C41 C42 1.348 . S
C41 C59 1.472 . S
C42 H12 0.929 . S
C42 C41 1.348 . S
C42 C43 1.443 . S
C43 H10 0.932 . S
C43 C38 1.388 . S
C43 C42 1.443 . S
C44 N24 1.433 . S
C44 C45 1.363 . S
C44 C49 1.370 . S
C45 H13 0.929 . S
C45 C44 1.363 . S
C45 C46 1.385 . S
C46 H14 0.930 . S
C46 C45 1.385 . S
C46 C47 1.357 . S
C47 C46 1.357 . S
C47 C48 1.406 . S
C48 H15 0.929 . S
C48 C47 1.406 . S
C48 C49 1.391 . S
C49 H16 0.931 . S
C49 C44 1.370 . S
C49 C48 1.391 . S
C50 N24 1.435 . S
C50 C51 1.358 . S
C50 C55 1.371 . S
C51 H17 0.930 . S
C51 C50 1.358 . S
C51 C52 1.405 . S
C52 H18 0.932 . S
C52 C51 1.405 . S
C52 C53 1.383 . S
C53 C52 1.383 . S
C53 C54 1.393 . S
C54 H19 0.931 . S
C54 C53 1.393 . S
C54 C55 1.382 . S
C55 H20 0.929 . S
C55 C50 1.371 . S
C55 C54 1.382 . S
C56 N24 1.423 . S
C56 C57 1.362 . S
C56 C61 1.388 . S
C57 H21 0.929 . S
C57 C56 1.362 . S
C57 C58 1.376 . S
C58 H22 0.931 . S
C58 C57 1.376 . S
C58 C59 1.396 . S
C59 C41 1.472 . S
C59 C58 1.396 . S
C59 C60 1.348 . S
C60 H23 0.929 . S
C60 C59 1.348 . S
C60 C61 1.443 . S
C61 H25 0.932 . S
C61 C56 1.388 . S
C61 C60 1.443 . S
H62 C89 0.929 . S
N63 C88 1.433 . S
N63 C94 1.435 . S
N63 C100 1.423 . S
H64 C90 0.930 . S
H65 C93 0.931 . S
H66 C92 0.929 . S
H67 C95 0.930 . S
H68 C96 0.932 . S
H69 C99 0.929 . S
H70 C98 0.931 . S
H71 C101 0.929 . S
H72 C105 0.932 . S
H73 C102 0.931 . S
H74 C104 0.929 . S
H75 C107 0.929 . S
H76 C108 0.930 . S
H77 C110 0.929 . S
H78 C111 0.931 . S
H79 C113 0.930 . S
H80 C114 0.932 . S
H81 C116 0.931 . S
H82 C117 0.929 . S
H83 C119 0.929 . S
H84 C120 0.931 . S
H85 C122 0.929 . S
N86 C106 1.433 . S
N86 C112 1.435 . S
N86 C118 1.423 . S
H87 C123 0.932 . S
C88 N63 1.433 . S
C88 C89 1.363 . S
C88 C93 1.370 . S
C89 H62 0.929 . S
C89 C88 1.363 . S
C89 C90 1.385 . S
C90 H64 0.930 . S
C90 C89 1.385 . S
C90 C91 1.357 . S
C91 C90 1.357 . S
C91 C92 1.406 . S
C92 H66 0.929 . S
C92 C91 1.406 . S
C92 C93 1.391 . S
C93 H65 0.931 . S
C93 C88 1.370 . S
C93 C92 1.391 . S
C94 N63 1.435 . S
C94 C95 1.358 . S
C94 C99 1.371 1_554 S
C95 H67 0.930 . S
C95 C94 1.358 . S
C95 C96 1.405 1_554 S
C96 H68 0.932 . S
C96 C95 1.405 1_556 S
C96 C97 1.383 . S
C97 C96 1.383 . S
C97 C98 1.393 . S
C98 H70 0.931 . S
C98 C97 1.393 . S
C98 C99 1.382 . S
C99 H69 0.929 . S
C99 C94 1.371 1_556 S
C99 C98 1.382 . S
C100 N63 1.423 . S
C100 C101 1.362 . S
C100 C105 1.388 . S
C101 H71 0.929 . S
C101 C100 1.362 . S
C101 C102 1.376 . S
C102 H73 0.931 . S
C102 C101 1.376 . S
C102 C103 1.396 . S
C103 C102 1.396 . S
C103 C104 1.348 . S
C103 C121 1.472 . S
C104 H74 0.929 . S
C104 C103 1.348 . S
C104 C105 1.443 . S
C105 H72 0.932 . S
C105 C100 1.388 . S
C105 C104 1.443 . S
C106 N86 1.433 . S
C106 C107 1.363 . S
C106 C111 1.370 . S
C107 H75 0.929 . S
C107 C106 1.363 . S
C107 C108 1.385 . S
C108 H76 0.930 . S
C108 C107 1.385 . S
C108 C109 1.357 . S
C109 C108 1.357 . S
C109 C110 1.406 . S
C110 H77 0.929 . S
C110 C109 1.406 . S
C110 C111 1.391 . S
C111 H78 0.931 . S
C111 C106 1.370 . S
C111 C110 1.391 . S
C112 N86 1.435 . S
C112 C113 1.358 . S
C112 C117 1.362 1_554 S
C113 H79 0.930 . S
C113 C112 1.358 . S
C113 C114 1.405 . S
C114 H80 0.932 . S
C114 C113 1.405 . S
C114 C115 1.383 1_554 S
C115 C114 1.383 1_556 S
C115 C116 1.393 . S
C116 H81 0.931 . S
C116 C115 1.393 . S
C116 C117 1.391 . S
C117 H82 0.929 . S
C117 C112 1.362 1_556 S
C117 C116 1.391 . S
C118 N86 1.423 . S
C118 C119 1.362 . S
C118 C123 1.388 . S
C119 H83 0.929 . S
C119 C118 1.362 . S
C119 C120 1.376 . S
C120 H84 0.931 . S
C120 C119 1.376 . S
C120 C121 1.396 . S
C121 C103 1.472 . S
C121 C120 1.396 . S
C121 C122 1.348 . S
C122 H85 0.929 . S
C122 C121 1.348 . S
C122 C123 1.443 . S
C123 H87 0.932 . S
C123 C118 1.388 . S
C123 C122 1.443 . S
H124 C151 0.929 . S
N125 C150 1.433 1_554 S
N125 C156 1.435 . S
N125 C162 1.423 . S
H126 C152 0.930 . S
H127 C155 0.931 . S
H128 C154 0.929 . S
H129 C157 0.930 . S
H130 C158 0.932 . S
H131 C161 0.929 . S
H132 C160 0.931 . S
H133 C163 0.929 1_556 S
H134 C167 0.932 . S
H135 C164 0.931 1_556 S
H136 C166 0.929 . S
H137 C169 0.929 . S
H138 C170 0.930 . S
H139 C172 0.929 . S
H140 C173 0.931 . S
H141 C175 0.930 . S
H142 C176 0.932 . S
H143 C178 0.931 . S
H144 C179 0.929 . S
H145 C181 0.929 1_556 S
H146 C182 0.931 1_556 S
H147 C184 0.929 . S
N148 C168 1.433 1_554 S
N148 C174 1.435 . S
N148 C180 1.423 . S
H149 C185 0.932 . S
C150 N125 1.433 1_556 S
C150 C151 1.363 . S
C150 C155 1.370 . S
C151 H124 0.929 . S
C151 C150 1.363 . S
C151 C152 1.385 . S
C152 H126 0.930 . S
C152 C151 1.385 . S
C152 C153 1.357 . S
C153 C152 1.357 . S
C153 C154 1.406 . S
C154 H128 0.929 . S
C154 C153 1.406 . S
C154 C155 1.391 . S
C155 H127 0.931 . S
C155 C150 1.370 . S
C155 C154 1.391 . S
C156 N125 1.435 . S
C156 C157 1.358 . S
C156 C161 1.371 . S
C157 H129 0.930 . S
C157 C156 1.358 . S
C157 C158 1.405 . S
C158 H130 0.932 . S
C158 C157 1.405 . S
C158 C159 1.383 . S
C159 C158 1.383 . S
C159 C160 1.393 . S
C160 H132 0.931 . S
C160 C159 1.393 . S
C160 C161 1.382 . S
C161 H131 0.929 . S
C161 C156 1.371 . S
C161 C160 1.382 . S
C162 N125 1.423 . S
C162 C163 1.362 . S
C162 C167 1.388 . S
C163 H133 0.929 1_554 S
C163 C162 1.362 . S
C163 C164 1.376 . S
C164 H135 0.931 1_554 S
C164 C163 1.376 . S
C164 C165 1.396 . S
C165 C164 1.396 . S
C165 C166 1.348 . S
C165 C183 1.472 . S
C166 H136 0.929 . S
C166 C165 1.348 . S
C166 C167 1.443 . S
C167 H134 0.932 . S
C167 C162 1.388 . S
C167 C166 1.443 . S
C168 N148 1.433 1_556 S
C168 C169 1.363 . S
C168 C173 1.370 . S
C169 H137 0.929 . S
C169 C168 1.363 . S
C169 C170 1.385 . S
C170 H138 0.930 . S
C170 C169 1.385 . S
C170 C171 1.357 . S
C171 C170 1.357 . S
C171 C172 1.406 . S
C172 H139 0.929 . S
C172 C171 1.406 . S
C172 C173 1.391 . S
C173 H140 0.931 . S
C173 C168 1.370 . S
C173 C172 1.391 . S
C174 N148 1.435 . S
C174 C175 1.358 . S
C174 C179 1.371 . S
C175 H141 0.930 . S
C175 C174 1.358 . S
C175 C176 1.405 . S
C176 H142 0.932 . S
C176 C175 1.405 . S
C176 C177 1.383 . S
C177 C176 1.383 . S
C177 C178 1.393 . S
C178 H143 0.931 . S
C178 C177 1.393 . S
C178 C179 1.382 . S
C179 H144 0.929 . S
C179 C174 1.371 . S
C179 C178 1.382 . S
C180 N148 1.423 . S
C180 C181 1.362 . S
C180 C185 1.388 . S
C181 H145 0.929 1_554 S
C181 C180 1.362 . S
C181 C182 1.376 . S
C182 H146 0.931 1_554 S
C182 C181 1.376 . S
C182 C183 1.396 . S
C183 C165 1.472 . S
C183 C182 1.396 . S
C183 C184 1.348 . S
C184 H147 0.929 . S
C184 C183 1.348 . S
C184 C185 1.443 . S
C185 H149 0.932 . S
C185 C180 1.388 . S
C185 C184 1.443 . S
H186 C213 0.929 . S
N187 C212 1.433 . S
N187 C218 1.435 1_554 S
N187 C224 1.423 . S
H188 C214 0.930 . S
H189 C217 0.931 . S
H190 C216 0.929 . S
H191 C219 0.919 1_554 S
H192 C220 0.932 . S
H193 C223 0.929 . S
H194 C222 0.931 . S
H195 C225 0.929 . S
H196 C229 0.932 . S
H197 C226 0.931 . S
H198 C228 0.929 . S
H199 C231 0.929 . S
H200 C232 0.930 . S
H201 C234 0.929 . S
H202 C235 0.931 . S
H203 C237 0.930 . S
H204 C238 0.932 . S
H205 C240 0.931 . S
H206 C241 0.929 . S
H207 C243 0.929 . S
H208 C244 0.931 . S
H209 C246 0.929 . S
N210 C230 1.433 . S
N210 C236 1.435 1_554 S
N210 C242 1.423 . S
H211 C247 0.932 . S
C212 N187 1.433 . S
C212 C213 1.363 . S
C212 C217 1.370 . S
C213 H186 0.929 . S
C213 C212 1.363 . S
C213 C214 1.385 . S
C214 H188 0.930 . S
C214 C213 1.385 . S
C214 C215 1.357 . S
C215 C214 1.357 . S
C215 C216 1.406 . S
C216 H190 0.929 . S
C216 C215 1.406 . S
C216 C217 1.391 . S
C217 H189 0.931 . S
C217 C212 1.370 . S
C217 C216 1.391 . S
C218 N187 1.435 1_556 S
C218 C219 1.358 . S
C218 C223 1.371 . S
C219 H191 0.919 1_556 S
C219 C218 1.358 . S
C219 C220 1.405 . S
C220 H192 0.932 . S
C220 C219 1.405 . S
C220 C221 1.383 . S
C221 C220 1.383 . S
C221 C222 1.393 . S
C222 H194 0.931 . S
C222 C221 1.393 . S
C222 C223 1.382 . S
C223 H193 0.929 . S
C223 C218 1.371 . S
C223 C222 1.382 . S
C224 N187 1.423 . S
C224 C225 1.362 . S
C224 C229 1.388 1_554 S
C225 H195 0.929 . S
C225 C224 1.362 . S
C225 C226 1.376 . S
C226 H197 0.931 . S
C226 C225 1.376 . S
C226 C227 1.396 . S
C227 C226 1.396 . S
C227 C228 1.348 1_554 S
C227 C245 1.472 . S
C228 H198 0.929 . S
C228 C227 1.348 1_556 S
C228 C229 1.443 . S
C229 H196 0.932 . S
C229 C224 1.388 1_556 S
C229 C228 1.443 . S
C230 N210 1.433 . S
C230 C231 1.363 . S
C230 C235 1.370 . S
C231 H199 0.929 . S
C231 C230 1.363 . S
C231 C232 1.385 . S
C232 H200 0.930 . S
C232 C231 1.385 . S
C232 C233 1.357 . S
C233 C232 1.357 . S
C233 C234 1.406 . S
C234 H201 0.929 . S
C234 C233 1.406 . S
C234 C235 1.391 . S
C235 H202 0.931 . S
C235 C230 1.370 . S
C235 C234 1.391 . S
C236 N210 1.435 1_556 S
C236 C237 1.358 . S
C236 C241 1.371 . S
C237 H203 0.930 . S
C237 C236 1.358 . S
C237 C238 1.405 . S
C238 H204 0.932 . S
C238 C237 1.405 . S
C238 C239 1.383 . S
C239 C238 1.383 . S
C239 C240 1.393 . S
C240 H205 0.931 . S
C240 C239 1.393 . S
C240 C241 1.382 . S
C241 H206 0.929 . S
C241 C236 1.371 . S
C241 C240 1.382 . S
C242 N210 1.423 . S
C242 C243 1.362 . S
C242 C247 1.388 1_554 S
C243 H207 0.929 . S
C243 C242 1.362 . S
C243 C244 1.376 . S
C244 H208 0.931 . S
C244 C243 1.376 . S
C244 C245 1.396 . S
C245 C227 1.472 . S
C245 C244 1.396 . S
C245 C246 1.348 1_554 S
C246 H209 0.929 . S
C246 C245 1.348 1_556 S
C246 C247 1.443 . S
C247 H211 0.932 . S
C247 C242 1.388 1_556 S
C247 C246 1.443 . S
H248 C275 0.929 . S
N249 C274 1.433 . S
N249 C280 1.435 . S
N249 C286 1.423 . S
H250 C276 0.930 . S
H251 C279 0.931 . S
H252 C278 0.929 . S
H253 C281 0.930 . S
H254 C282 0.932 . S
H255 C285 0.929 . S
H256 C284 0.931 . S
H257 C287 0.929 . S
H258 C291 0.932 . S
H259 C288 0.931 . S
H260 C290 0.929 . S
H261 C293 0.929 . S
H262 C294 0.930 . S
H263 C296 0.929 . S
H264 C297 0.931 . S
H265 C299 0.930 . S
H266 C300 0.932 . S
H267 C302 0.931 . S
H268 C303 0.929 . S
H269 C305 0.929 . S
H270 C306 0.931 . S
H271 C308 0.929 . S
N272 C292 1.433 . S
N272 C298 1.435 . S
N272 C304 1.423 . S
H273 C309 0.932 . S
C274 N249 1.433 . S
C274 C275 1.363 . S
C274 C279 1.370 . S
C275 H248 0.929 . S
C275 C274 1.363 . S
C275 C276 1.385 . S
C276 H250 0.930 . S
C276 C275 1.385 . S
C276 C277 1.357 . S
C277 C276 1.357 . S
C277 C278 1.406 . S
C278 H252 0.929 . S
C278 C277 1.406 . S
C278 C279 1.391 . S
C279 H251 0.931 . S
C279 C274 1.370 . S
C279 C278 1.391 . S
C280 N249 1.435 . S
C280 C281 1.358 . S
C280 C285 1.371 1_554 S
C281 H253 0.930 . S
C281 C280 1.358 . S
C281 C282 1.405 . S
C282 H254 0.932 . S
C282 C281 1.405 . S
C282 C283 1.383 1_554 S
C283 C282 1.383 1_556 S
C283 C284 1.393 . S
C284 H256 0.931 . S
C284 C283 1.393 . S
C284 C285 1.382 . S
C285 H255 0.929 . S
C285 C280 1.371 1_556 S
C285 C284 1.382 . S
C286 N249 1.423 . S
C286 C287 1.362 . S
C286 C291 1.388 . S
C287 H257 0.929 . S
C287 C286 1.362 . S
C287 C288 1.376 . S
C288 H259 0.931 . S
C288 C287 1.376 . S
C288 C289 1.396 . S
C289 C288 1.396 . S
C289 C290 1.348 . S
C289 C307 1.472 . S
C290 H260 0.929 . S
C290 C289 1.348 . S
C290 C291 1.443 . S
C291 H258 0.932 . S
C291 C286 1.388 . S
C291 C290 1.443 . S
C292 N272 1.433 . S
C292 C293 1.363 . S
C292 C297 1.370 . S
C293 H261 0.929 . S
C293 C292 1.363 . S
C293 C294 1.385 . S
C294 H262 0.930 . S
C294 C293 1.385 . S
C294 C295 1.357 . S
C295 C294 1.357 . S
C295 C296 1.406 . S
C296 H263 0.929 . S
C296 C295 1.406 . S
C296 C297 1.391 . S
C297 H264 0.931 . S
C297 C292 1.370 . S
C297 C296 1.391 . S
C298 N272 1.435 . S
C298 C299 1.358 . S
C298 C303 1.371 . S
C299 H265 0.930 . S
C299 C298 1.358 . S
C299 C300 1.405 . S
C300 H266 0.932 . S
C300 C299 1.405 . S
C300 C301 1.383 1_554 S
C301 C300 1.383 1_556 S
C301 C302 1.393 . S
C302 H267 0.931 . S
C302 C301 1.393 . S
C302 C303 1.382 1_556 S
C303 H268 0.929 . S
C303 C298 1.371 . S
C303 C302 1.382 1_554 S
C304 N272 1.423 . S
C304 C305 1.362 . S
C304 C309 1.388 . S
C305 H269 0.929 . S
C305 C304 1.362 . S
C305 C306 1.376 . S
C306 H270 0.931 . S
C306 C305 1.376 . S
C306 C307 1.396 . S
C307 C289 1.472 . S
C307 C306 1.396 . S
C307 C308 1.348 . S
C308 H271 0.929 . S
C308 C307 1.348 . S
C308 C309 1.443 . S
C309 H273 0.932 . S
C309 C304 1.388 . S
C309 C308 1.443 . S
H310 C337 0.929 . S
N311 C336 1.433 . S
N311 C342 1.435 . S
N311 C348 1.423 . S
H312 C338 0.930 . S
H313 C341 0.931 . S
H314 C340 0.929 1_556 S
H315 C343 0.930 . S
H316 C344 0.932 . S
H317 C347 0.929 . S
H318 C346 0.931 . S
H319 C349 0.929 . S
H320 C353 0.932 . S
H321 C350 0.931 . S
H322 C352 0.929 . S
H323 C355 0.929 . S
H324 C356 0.930 . S
H325 C358 0.929 1_556 S
H326 C359 0.931 . S
H327 C361 0.930 . S
H328 C362 0.932 . S
H329 C364 0.931 . S
H330 C365 0.929 . S
H331 C367 0.929 . S
H332 C368 0.931 . S
H333 C370 0.929 . S
N334 C354 1.433 . S
N334 C360 1.435 . S
N334 C366 1.423 . S
H335 C371 0.932 . S
C336 N311 1.433 . S
C336 C337 1.363 . S
C336 C341 1.370 . S
C337 H310 0.929 . S
C337 C336 1.363 . S
C337 C338 1.385 . S
C338 H312 0.930 . S
C338 C337 1.385 . S
C338 C339 1.357 . S
C339 C338 1.357 . S
C339 C340 1.406 . S
C340 H314 0.929 1_554 S
C340 C339 1.406 . S
C340 C341 1.391 . S
C341 H313 0.931 . S
C341 C336 1.370 . S
C341 C340 1.391 . S
C342 N311 1.435 . S
C342 C343 1.358 . S
C342 C347 1.371 . S
C343 H315 0.930 . S
C343 C342 1.358 . S
C343 C344 1.405 . S
C344 H316 0.932 . S
C344 C343 1.405 . S
C344 C345 1.383 . S
C345 C344 1.383 . S
C345 C346 1.393 . S
C346 H318 0.931 . S
C346 C345 1.393 . S
C346 C347 1.382 . S
C347 H317 0.929 . S
C347 C342 1.371 . S
C347 C346 1.382 . S
C348 N311 1.423 . S
C348 C349 1.362 . S
C348 C353 1.388 . S
C349 H319 0.929 . S
C349 C348 1.362 . S
C349 C350 1.376 . S
C350 H321 0.931 . S
C350 C349 1.376 . S
C350 C351 1.396 . S
C351 C350 1.396 . S
C351 C352 1.348 . S
C351 C369 1.472 . S
C352 H322 0.929 . S
C352 C351 1.348 . S
C352 C353 1.443 . S
C353 H320 0.932 . S
C353 C348 1.388 . S
C353 C352 1.443 . S
C354 N334 1.433 . S
C354 C355 1.363 . S
C354 C359 1.370 . S
C355 H323 0.929 . S
C355 C354 1.363 . S
C355 C356 1.385 . S
C356 H324 0.930 . S
C356 C355 1.385 . S
C356 C357 1.357 1_554 S
C357 C356 1.357 1_556 S
C357 C358 1.406 1_556 S
C358 H325 0.929 1_554 S
C358 C357 1.406 1_554 S
C358 C359 1.391 . S
C359 H326 0.931 . S
C359 C354 1.370 . S
C359 C358 1.391 . S
C360 N334 1.435 . S
C360 C361 1.358 . S
C360 C365 1.371 . S
C361 H327 0.930 . S
C361 C360 1.358 . S
C361 C362 1.405 . S
C362 H328 0.932 . S
C362 C361 1.405 . S
C362 C363 1.383 . S
C363 C362 1.383 . S
C363 C364 1.393 . S
C364 H329 0.931 . S
C364 C363 1.393 . S
C364 C365 1.382 . S
C365 H330 0.929 . S
C365 C360 1.371 . S
C365 C364 1.382 . S
C366 N334 1.423 . S
C366 C367 1.362 . S
C366 C371 1.388 . S
C367 H331 0.929 . S
C367 C366 1.362 . S
C367 C368 1.376 . S
C368 H332 0.931 . S
C368 C367 1.376 . S
C368 C369 1.396 . S
C369 C351 1.472 . S
C369 C368 1.396 . S
C369 C370 1.348 . S
C370 H333 0.929 . S
C370 C369 1.348 . S
C370 C371 1.443 . S
C371 H335 0.932 . S
C371 C366 1.388 . S
C371 C370 1.443 . S
C372 O399 1.312 . S
C372 O400 1.208 . S
C373 O394 1.331 . S
C373 O397 1.244 . S
C374 O396 1.264 . S
C374 O398 1.273 . S
Mg375 O377 1.938 1_455 S
Mg375 O384 2.081 1_455 S
Mg375 O386 2.023 . S
Mg375 O390 2.031 1_455 S
Mg375 O399 2.291 . S
Mg376 O377 1.976 1_455 S
Mg376 O387 1.925 1_455 S
Mg376 O388 1.978 . S
Mg376 O395 1.971 1_455 S
O377 Mg375 1.938 1_655 S
O377 Mg376 1.976 1_655 S
O377 Mg378 1.918 1_655 S
Mg378 O377 1.918 1_455 S
Mg378 O379 1.915 . S
Mg378 O383 2.013 . S
Mg378 O389 2.114 1_455 S
Mg378 O393 2.013 1_455 S
Mg378 O399 2.114 . S
O379 Mg378 1.915 . S
O379 Mg380 1.936 . S
O379 Mg381 1.963 . S
Mg380 O379 1.936 . S
Mg380 O389 2.291 1_455 S
Mg380 O394 2.081 . S
Mg380 O396 2.023 1_455 S
Mg380 O400 2.031 . S
Mg381 O379 1.963 . S
Mg381 O385 1.986 . S
Mg381 O397 1.942 . S
Mg381 O398 1.955 1_455 S
C382 O393 1.191 . S
C382 O395 1.307 . S
O383 Mg378 2.013 . S
O383 C402 1.191 . S
O384 Mg375 2.081 1_655 S
O384 C392 1.331 . S
O385 Mg381 1.986 . S
O385 C402 1.307 . S
O386 Mg375 2.023 . S
O386 C401 1.264 . S
O387 Mg376 1.925 1_655 S
O387 C392 1.244 . S
O388 Mg376 1.978 . S
O388 C401 1.273 . S
O389 Mg378 2.114 1_655 S
O389 Mg380 2.291 1_655 S
O389 C391 1.312 . S
O390 Mg375 2.031 1_655 S
O390 C391 1.208 . S
C391 O389 1.312 . S
C391 O390 1.208 . S
C392 O384 1.331 . S
C392 O387 1.244 . S
O393 Mg378 2.013 1_655 S
O393 C382 1.191 . S
O394 C373 1.331 . S
O394 Mg380 2.081 . S
O395 Mg376 1.971 1_655 S
O395 C382 1.307 . S
O396 C374 1.264 . S
O396 Mg380 2.023 1_655 S
O397 C373 1.244 . S
O397 Mg381 1.942 . S
O398 C374 1.273 . S
O398 Mg381 1.955 1_655 S
O399 C372 1.312 . S
O399 Mg375 2.291 . S
O399 Mg378 2.114 . S
O400 C372 1.208 . S
O400 Mg380 2.031 . S
C401 O386 1.264 . S
C401 O388 1.273 . S
C402 O383 1.191 . S
C402 O385 1.307 . S
C403 O430 1.312 . S
C403 O431 1.208 . S
C404 O425 1.331 . S
C404 O428 1.244 . S
C405 O427 1.264 . S
C405 O429 1.273 . S
Mg406 O408 1.936 1_545 S
Mg406 O415 2.081 1_545 S
Mg406 O417 2.023 . S
Mg406 O421 2.031 1_545 S
Mg406 O430 2.291 . S
Mg407 O408 1.955 . S
Mg407 O418 1.952 . S
Mg407 O419 1.897 1_565 S
Mg407 O426 2.039 . S
O408 Mg406 1.936 1_565 S
O408 Mg407 1.955 . S
O408 Mg409 1.915 1_565 S
Mg409 O408 1.915 1_545 S
Mg409 O410 1.915 . S
Mg409 O414 2.013 . S
Mg409 O420 2.114 1_545 S
Mg409 O424 2.013 1_545 S
Mg409 O430 2.114 . S
O410 Mg409 1.915 . S
O410 Mg411 1.936 . S
O410 Mg412 1.963 . S
Mg411 O410 1.936 . S
Mg411 O420 2.291 1_545 S
Mg411 O425 2.081 . S
Mg411 O427 2.023 1_545 S
Mg411 O431 2.031 . S
Mg412 O410 1.963 . S
Mg412 O416 1.986 . S
Mg412 O428 1.942 . S
Mg412 O429 1.955 1_545 S
C413 O424 1.191 . S
C413 O426 1.307 . S
O414 Mg409 2.013 . S
O414 C433 1.191 . S
O415 Mg406 2.081 1_565 S
O415 C423 1.331 . S
O416 Mg412 1.986 . S
O416 C433 1.307 . S
O417 Mg406 2.023 . S
O417 C432 1.264 . S
O418 Mg407 1.952 . S
O418 C423 1.244 . S
O419 Mg407 1.897 1_545 S
O419 C432 1.273 . S
O420 Mg409 2.114 1_565 S
O420 Mg411 2.291 1_565 S
O420 C422 1.312 . S
O421 Mg406 2.031 1_565 S
O421 C422 1.208 . S
C422 O420 1.312 . S
C422 O421 1.208 . S
C423 O415 1.331 . S
C423 O418 1.244 . S
O424 Mg409 2.013 1_565 S
O424 C413 1.191 . S
O425 C404 1.331 . S
O425 Mg411 2.081 . S
O426 Mg407 2.039 . S
O426 C413 1.307 . S
O427 C405 1.264 . S
O427 Mg411 2.023 1_565 S
O428 C404 1.244 . S
O428 Mg412 1.942 . S
O429 C405 1.273 . S
O429 Mg412 1.955 1_565 S
O430 C403 1.312 . S
O430 Mg406 2.291 . S
O430 Mg409 2.114 . S
O431 C403 1.208 . S
O431 Mg411 2.031 . S
C432 O417 1.264 . S
C432 O419 1.273 . S
C433 O414 1.191 . S
C433 O416 1.307 . S
C434 O461 1.312 . S
C434 O462 1.208 . S
C435 O456 1.331 . S
C435 O459 1.244 . S
C436 O458 1.264 . S
C436 O460 1.273 . S
Mg437 O439 1.936 . S
Mg437 O446 2.081 . S
Mg437 O448 2.023 . S
Mg437 O452 2.031 . S
Mg437 O461 2.291 . S
Mg438 O439 1.963 . S
Mg438 O449 1.942 . S
Mg438 O450 1.955 . S
Mg438 O457 1.986 . S
O439 Mg437 1.936 . S
O439 Mg438 1.963 . S
O439 Mg440 1.915 . S
Mg440 O439 1.915 . S
Mg440 O441 1.915 . S
Mg440 O445 2.013 . S
Mg440 O451 2.114 . S
Mg440 O455 2.013 . S
Mg440 O461 2.114 . S
O441 Mg440 1.915 . S
O441 Mg442 1.936 . S
O441 Mg443 1.963 . S
Mg442 O441 1.936 . S
Mg442 O451 2.291 . S
Mg442 O456 2.081 . S
Mg442 O458 2.023 . S
Mg442 O462 2.031 . S
Mg443 O441 1.963 . S
Mg443 O447 1.986 . S
Mg443 O459 1.942 . S
Mg443 O460 1.955 . S
C444 O455 1.191 . S
C444 O457 1.307 . S
O445 Mg440 2.013 . S
O445 C464 1.191 . S
O446 Mg437 2.081 . S
O446 C454 1.331 . S
O447 Mg443 1.986 . S
O447 C464 1.307 . S
O448 Mg437 2.023 . S
O448 C463 1.264 . S
O449 Mg438 1.942 . S
O449 C454 1.244 . S
O450 Mg438 1.955 . S
O450 C463 1.273 . S
O451 Mg440 2.114 . S
O451 Mg442 2.291 . S
O451 C453 1.312 . S
O452 Mg437 2.031 . S
O452 C453 1.208 . S
C453 O451 1.312 . S
C453 O452 1.208 . S
C454 O446 1.331 . S
C454 O449 1.244 . S
O455 Mg440 2.013 . S
O455 C444 1.191 . S
O456 C435 1.331 . S
O456 Mg442 2.081 . S
O457 Mg438 1.986 . S
O457 C444 1.307 . S
O458 C436 1.264 . S
O458 Mg442 2.023 . S
O459 C435 1.244 . S
O459 Mg443 1.942 . S
O460 C436 1.273 . S
O460 Mg443 1.955 . S
O461 C434 1.312 . S
O461 Mg437 2.291 . S
O461 Mg440 2.114 . S
O462 C434 1.208 . S
O462 Mg442 2.031 . S
C463 O448 1.264 . S
C463 O450 1.273 . S
C464 O445 1.191 . S
C464 O447 1.307 . S
C465 C466 1.391 . S
C465 C467 1.394 . S
C465 H481 0.931 . S
C466 C465 1.391 . S
C466 C470 1.376 . S
C467 C465 1.394 . S
C467 C468 1.369 . S
C467 C471 1.531 . S
C468 C467 1.369 . S
C468 C469 1.410 . S
C468 C476 1.503 . S
C469 C468 1.410 . S
C469 C470 1.392 . S
C469 C472 1.511 . S
C470 C466 1.376 . S
C470 C469 1.392 . S
C470 H482 0.929 . S
C471 C467 1.531 . S
C471 H483 0.960 . S
C471 H484 0.962 . S
C471 H485 0.960 . S
C472 C469 1.511 . S
C472 H486 0.961 . S
C472 H487 0.961 . S
C472 H488 0.961 . S
C473 C474 1.370 . S
C473 C475 1.363 . S
C473 H489 0.931 . S
C474 C473 1.370 . S
C474 C478 1.408 . S
C475 C473 1.363 . S
C475 C476 1.370 . S
C475 C479 1.524 . S
C476 C468 1.503 . S
C476 C475 1.370 . S
C476 C477 1.403 . S
C477 C476 1.403 . S
C477 C478 1.404 . S
C477 C480 1.539 . S
C478 C474 1.408 . S
C478 C477 1.404 . S
C478 H490 0.930 . S
C479 C475 1.524 . S
C479 H491 0.956 . S
C479 H492 0.961 . S
C479 H493 0.961 . S
C480 C477 1.539 . S
C480 H494 0.958 . S
C480 H495 0.961 . S
C480 H496 0.960 . S
H481 C465 0.931 . S
H482 C470 0.929 . S
H483 C471 0.960 . S
H484 C471 0.962 . S
H485 C471 0.960 . S
H486 C472 0.961 . S
H487 C472 0.961 . S
H488 C472 0.961 . S
H489 C473 0.931 . S
H490 C478 0.930 . S
H491 C479 0.956 . S
H492 C479 0.961 . S
H493 C479 0.961 . S
H494 C480 0.958 . S
H495 C480 0.961 . S
H496 C480 0.960 . S
C497 C498 1.391 . S
C497 C499 1.394 . S
C497 H513 0.931 . S
C498 C497 1.391 . S
C498 C502 1.376 . S
C499 C497 1.394 . S
C499 C500 1.369 . S
C499 C503 1.531 . S
C500 C499 1.369 . S
C500 C501 1.410 . S
C500 C508 1.503 . S
C501 C500 1.410 . S
C501 C502 1.392 . S
C501 C504 1.511 . S
C502 C498 1.376 . S
C502 C501 1.392 . S
C502 H514 0.929 . S
C503 C499 1.531 . S
C503 H515 0.960 . S
C503 H516 0.962 . S
C503 H517 0.960 . S
C504 C501 1.511 . S
C504 H518 0.961 . S
C504 H519 0.961 . S
C504 H520 0.961 . S
C505 C506 1.370 . S
C505 C507 1.363 . S
C505 H521 0.931 . S
C506 C505 1.370 . S
C506 C510 1.408 . S
C507 C505 1.363 . S
C507 C508 1.370 . S
C507 C511 1.524 . S
C508 C500 1.503 . S
C508 C507 1.370 . S
C508 C509 1.403 . S
C509 C508 1.403 . S
C509 C510 1.404 . S
C509 C512 1.539 . S
C510 C506 1.408 . S
C510 C509 1.404 . S
C510 H522 0.930 . S
C511 C507 1.524 . S
C511 H523 0.956 . S
C511 H524 0.961 . S
C511 H525 0.961 . S
C512 C509 1.539 . S
C512 H526 0.958 . S
C512 H527 0.961 . S
C512 H528 0.960 . S
H513 C497 0.931 . S
H514 C502 0.929 . S
H515 C503 0.960 . S
H516 C503 0.962 . S
H517 C503 0.960 . S
H518 C504 0.961 . S
H519 C504 0.961 . S
H520 C504 0.961 . S
H521 C505 0.931 . S
H522 C510 0.930 . S
H523 C511 0.956 . S
H524 C511 0.961 . S
H525 C511 0.961 . S
H526 C512 0.958 . S
H527 C512 0.961 . S
H528 C512 0.960 . S
C529 C530 1.391 . S
C529 C531 1.394 . S
C529 H545 0.931 . S
C530 C529 1.391 . S
C530 C534 1.376 . S
C531 C529 1.394 . S
C531 C532 1.369 . S
C531 C535 1.531 . S
C532 C531 1.369 . S
C532 C533 1.410 . S
C532 C540 1.503 . S
C533 C532 1.410 . S
C533 C534 1.392 . S
C533 C536 1.511 . S
C534 C530 1.376 . S
C534 C533 1.392 . S
C534 H546 0.929 . S
C535 C531 1.531 . S
C535 H547 0.960 . S
C535 H548 0.962 . S
C535 H549 0.960 . S
C536 C533 1.511 . S
C536 H550 0.961 . S
C536 H551 0.961 . S
C536 H552 0.961 . S
C537 C538 1.370 . S
C537 C539 1.363 . S
C537 H553 0.931 . S
C538 C537 1.370 . S
C538 C542 1.408 . S
C539 C537 1.363 . S
C539 C540 1.370 . S
C539 C543 1.524 . S
C540 C532 1.503 . S
C540 C539 1.370 . S
C540 C541 1.403 . S
C541 C540 1.403 . S
C541 C542 1.404 . S
C541 C544 1.539 . S
C542 C538 1.408 . S
C542 C541 1.404 . S
C542 H554 0.930 . S
C543 C539 1.524 . S
C543 H555 0.956 . S
C543 H556 0.961 . S
C543 H557 0.961 . S
C544 C541 1.539 . S
C544 H558 0.958 . S
C544 H559 0.961 . S
C544 H560 0.960 . S
H545 C529 0.931 . S
H546 C534 0.929 . S
H547 C535 0.960 . S
H548 C535 0.962 . S
H549 C535 0.960 . S
H550 C536 0.961 . S
H551 C536 0.961 . S
H552 C536 0.961 . S
H553 C537 0.931 . S
H554 C542 0.930 . S
H555 C543 0.956 . S
H556 C543 0.961 . S
H557 C543 0.961 . S
H558 C544 0.958 . S
H559 C544 0.961 . S
H560 C544 0.960 . S
C561 C562 1.391 . S
C561 C563 1.394 . S
C561 H577 0.931 . S
C562 C561 1.391 . S
C562 C566 1.376 . S
C563 C561 1.394 . S
C563 C564 1.369 . S
C563 C567 1.531 . S
C564 C563 1.369 . S
C564 C565 1.410 . S
C564 C572 1.503 . S
C565 C564 1.410 . S
C565 C566 1.392 . S
C565 C568 1.511 . S
C566 C562 1.376 . S
C566 C565 1.392 . S
C566 H578 0.929 . S
C567 C563 1.531 . S
C567 H579 0.960 . S
C567 H580 0.962 . S
C567 H581 0.960 . S
C568 C565 1.511 . S
C568 H582 0.961 . S
C568 H583 0.961 . S
C568 H584 0.961 . S
C569 C570 1.370 . S
C569 C571 1.363 . S
C569 H585 0.931 . S
C570 C569 1.370 . S
C570 C574 1.408 . S
C571 C569 1.363 . S
C571 C572 1.370 . S
C571 C575 1.524 . S
C572 C564 1.503 . S
C572 C571 1.370 . S
C572 C573 1.403 . S
C573 C572 1.403 . S
C573 C574 1.404 . S
C573 C576 1.539 . S
C574 C570 1.408 . S
C574 C573 1.404 . S
C574 H586 0.930 . S
C575 C571 1.524 . S
C575 H587 0.956 . S
C575 H588 0.961 . S
C575 H589 0.961 . S
C576 C573 1.539 . S
C576 H590 0.958 . S
C576 H591 0.961 . S
C576 H592 0.960 . S
H577 C561 0.931 . S
H578 C566 0.929 . S
H579 C567 0.960 . S
H580 C567 0.962 . S
H581 C567 0.960 . S
H582 C568 0.961 . S
H583 C568 0.961 . S
H584 C568 0.961 . S
H585 C569 0.931 . S
H586 C574 0.930 . S
H587 C575 0.956 . S
H588 C575 0.961 . S
H589 C575 0.961 . S
H590 C576 0.958 . S
H591 C576 0.961 . S
H592 C576 0.960 . S
C593 C594 1.391 . S
C593 C595 1.394 . S
C593 H609 0.931 . S
C594 C593 1.391 . S
C594 C598 1.376 . S
C595 C593 1.394 . S
C595 C596 1.369 . S
C595 C599 1.531 . S
C596 C595 1.369 . S
C596 C597 1.410 . S
C596 C604 1.503 . S
C597 C596 1.410 . S
C597 C598 1.392 . S
C597 C600 1.511 . S
C598 C594 1.376 . S
C598 C597 1.392 . S
C598 H610 0.929 . S
C599 C595 1.531 . S
C599 H611 0.960 . S
C599 H612 0.962 . S
C599 H613 0.960 . S
C600 C597 1.511 . S
C600 H614 0.961 . S
C600 H615 0.961 . S
C600 H616 0.961 . S
C601 C602 1.370 . S
C601 C603 1.363 . S
C601 H617 0.931 . S
C602 C601 1.370 . S
C602 C606 1.408 . S
C603 C601 1.363 . S
C603 C604 1.370 . S
C603 C607 1.524 . S
C604 C596 1.503 . S
C604 C603 1.370 . S
C604 C605 1.403 . S
C605 C604 1.403 . S
C605 C606 1.404 . S
C605 C608 1.539 . S
C606 C602 1.408 . S
C606 C605 1.404 . S
C606 H618 0.930 . S
C607 C603 1.524 . S
C607 H619 0.956 . S
C607 H620 0.961 . S
C607 H621 0.961 . S
C608 C605 1.539 . S
C608 H622 0.958 . S
C608 H623 0.961 . S
C608 H624 0.960 . S
H609 C593 0.931 . S
H610 C598 0.929 . S
H611 C599 0.960 . S
H612 C599 0.962 . S
H613 C599 0.960 . S
H614 C600 0.961 . S
H615 C600 0.961 . S
H616 C600 0.961 . S
H617 C601 0.931 . S
H618 C606 0.930 . S
H619 C607 0.956 . S
H620 C607 0.961 . S
H621 C607 0.961 . S
H622 C608 0.958 . S
H623 C608 0.961 . S
H624 C608 0.960 . S
C625 C626 1.391 . S
C625 C627 1.394 . S
C625 H641 0.931 . S
C626 C625 1.391 . S
C626 C630 1.376 . S
C627 C625 1.394 . S
C627 C628 1.369 . S
C627 C631 1.531 . S
C628 C627 1.369 . S
C628 C629 1.410 . S
C628 C636 1.503 . S
C629 C628 1.410 . S
C629 C630 1.392 . S
C629 C632 1.511 . S
C630 C626 1.376 . S
C630 C629 1.392 . S
C630 H642 0.929 . S
C631 C627 1.531 . S
C631 H643 0.960 . S
C631 H644 0.962 . S
C631 H645 0.960 . S
C632 C629 1.511 . S
C632 H646 0.961 . S
C632 H647 0.961 . S
C632 H648 0.961 . S
C633 C634 1.370 . S
C633 C635 1.363 . S
C633 H649 0.931 . S
C634 C633 1.370 . S
C634 C638 1.408 . S
C635 C633 1.363 . S
C635 C636 1.370 . S
C635 C639 1.524 . S
C636 C628 1.503 . S
C636 C635 1.370 . S
C636 C637 1.403 . S
C637 C636 1.403 . S
C637 C638 1.404 . S
C637 C640 1.539 . S
C638 C634 1.408 . S
C638 C637 1.404 . S
C638 H650 0.930 . S
C639 C635 1.524 . S
C639 H651 0.956 . S
C639 H652 0.961 . S
C639 H653 0.961 . S
C640 C637 1.539 . S
C640 H654 0.958 . S
C640 H655 0.961 . S
C640 H656 0.960 . S
H641 C625 0.931 . S
H642 C630 0.929 . S
H643 C631 0.960 . S
H644 C631 0.962 . S
H645 C631 0.960 . S
H646 C632 0.961 . S
H647 C632 0.961 . S
H648 C632 0.961 . S
H649 C633 0.931 . S
H650 C638 0.930 . S
H651 C639 0.956 . S
H652 C639 0.961 . S
H653 C639 0.961 . S
H654 C640 0.958 . S
H655 C640 0.961 . S
H656 C640 0.960 . S
C657 C658 1.391 . S
C657 C659 1.394 . S
C657 H673 0.931 . S
C658 C657 1.391 . S
C658 C662 1.376 . S
C659 C657 1.394 . S
C659 C660 1.369 . S
C659 C663 1.531 . S
C660 C659 1.369 . S
C660 C661 1.410 . S
C660 C668 1.503 . S
C661 C660 1.410 . S
C661 C662 1.392 . S
C661 C664 1.511 . S
C662 C658 1.376 . S
C662 C661 1.392 . S
C662 H674 0.929 . S
C663 C659 1.531 . S
C663 H675 0.960 . S
C663 H676 0.962 . S
C663 H677 0.960 . S
C664 C661 1.511 . S
C664 H678 0.961 . S
C664 H679 0.961 . S
C664 H680 0.961 . S
C665 C666 1.370 . S
C665 C667 1.363 . S
C665 H681 0.931 . S
C666 C665 1.370 . S
C666 C670 1.408 . S
C667 C665 1.363 . S
C667 C668 1.370 . S
C667 C671 1.524 . S
C668 C660 1.503 . S
C668 C667 1.370 . S
C668 C669 1.403 . S
C669 C668 1.403 . S
C669 C670 1.404 . S
C669 C672 1.539 . S
C670 C666 1.408 . S
C670 C669 1.404 . S
C670 H682 0.930 . S
C671 C667 1.524 . S
C671 H683 0.956 . S
C671 H684 0.961 . S
C671 H685 0.961 . S
C672 C669 1.539 . S
C672 H686 0.958 . S
C672 H687 0.961 . S
C672 H688 0.960 . S
H673 C657 0.931 . S
H674 C662 0.929 . S
H675 C663 0.960 . S
H676 C663 0.962 . S
H677 C663 0.960 . S
H678 C664 0.961 . S
H679 C664 0.961 . S
H680 C664 0.961 . S
H681 C665 0.931 . S
H682 C670 0.930 . S
H683 C671 0.956 . S
H684 C671 0.961 . S
H685 C671 0.961 . S
H686 C672 0.958 . S
H687 C672 0.961 . S
H688 C672 0.960 . S
C689 C690 1.391 . S
C689 C691 1.394 . S
C689 H705 0.931 . S
C690 C689 1.391 . S
C690 C694 1.376 . S
C691 C689 1.394 . S
C691 C692 1.369 . S
C691 C695 1.531 . S
C692 C691 1.369 . S
C692 C693 1.410 . S
C692 C700 1.503 . S
C693 C692 1.410 . S
C693 C694 1.392 . S
C693 C696 1.511 . S
C694 C690 1.376 . S
C694 C693 1.392 . S
C694 H706 0.929 . S
C695 C691 1.531 . S
C695 H707 0.960 . S
C695 H708 0.962 . S
C695 H709 0.960 . S
C696 C693 1.511 . S
C696 H710 0.961 . S
C696 H711 0.961 . S
C696 H712 0.961 . S
C697 C698 1.370 . S
C697 C699 1.363 . S
C697 H713 0.931 . S
C698 C697 1.370 . S
C698 C702 1.408 . S
C699 C697 1.363 . S
C699 C700 1.370 . S
C699 C703 1.524 . S
C700 C692 1.503 . S
C700 C699 1.370 . S
C700 C701 1.403 . S
C701 C700 1.403 . S
C701 C702 1.404 . S
C701 C704 1.539 . S
C702 C698 1.408 . S
C702 C701 1.404 . S
C702 H714 0.930 . S
C703 C699 1.524 . S
C703 H715 0.956 . S
C703 H716 0.961 . S
C703 H717 0.961 . S
C704 C701 1.539 . S
C704 H718 0.958 . S
C704 H719 0.961 . S
C704 H720 0.960 . S
H705 C689 0.931 . S
H706 C694 0.929 . S
H707 C695 0.960 . S
H708 C695 0.962 . S
H709 C695 0.960 . S
H710 C696 0.961 . S
H711 C696 0.961 . S
H712 C696 0.961 . S
H713 C697 0.931 . S
H714 C702 0.930 . S
H715 C703 0.956 . S
H716 C703 0.961 . S
H717 C703 0.961 . S
H718 C704 0.958 . S
H719 C704 0.961 . S
H720 C704 0.960 . S
C721 C722 1.391 . S
C721 C723 1.394 . S
C721 H737 0.931 . S
C722 C721 1.391 . S
C722 C726 1.376 . S
C723 C721 1.394 . S
C723 C724 1.369 . S
C723 C727 1.531 . S
C724 C723 1.369 . S
C724 C725 1.410 . S
C724 C732 1.503 . S
C725 C724 1.410 . S
C725 C726 1.392 . S
C725 C728 1.511 . S
C726 C722 1.376 . S
C726 C725 1.392 . S
C726 H738 0.929 . S
C727 C723 1.531 . S
C727 H739 0.960 . S
C727 H740 0.962 . S
C727 H741 0.960 . S
C728 C725 1.511 . S
C728 H742 0.961 . S
C728 H743 0.961 . S
C728 H744 0.961 . S
C729 C730 1.370 . S
C729 C731 1.363 . S
C729 H745 0.931 . S
C730 C729 1.370 . S
C730 C734 1.408 . S
C731 C729 1.363 . S
C731 C732 1.370 . S
C731 C735 1.524 . S
C732 C724 1.503 . S
C732 C731 1.370 . S
C732 C733 1.403 . S
C733 C732 1.403 . S
C733 C734 1.404 . S
C733 C736 1.539 . S
C734 C730 1.408 . S
C734 C733 1.404 . S
C734 H746 0.930 . S
C735 C731 1.524 . S
C735 H747 0.956 . S
C735 H748 0.961 . S
C735 H749 0.961 . S
C736 C733 1.539 . S
C736 H750 0.958 . S
C736 H751 0.961 . S
C736 H752 0.960 . S
H737 C721 0.931 . S
H738 C726 0.929 . S
H739 C727 0.960 . S
H740 C727 0.962 . S
H741 C727 0.960 . S
H742 C728 0.961 . S
H743 C728 0.961 . S
H744 C728 0.961 . S
H745 C729 0.931 . S
H746 C734 0.930 . S
H747 C735 0.956 . S
H748 C735 0.961 . S
H749 C735 0.961 . S
H750 C736 0.958 . S
H751 C736 0.961 . S
H752 C736 0.960 . S
C753 C754 1.391 . S
C753 C755 1.394 . S
C753 H769 0.931 . S
C754 C753 1.391 . S
C754 C758 1.376 . S
C755 C753 1.394 . S
C755 C756 1.369 . S
C755 C759 1.531 . S
C756 C755 1.369 . S
C756 C757 1.410 . S
C756 C764 1.503 . S
C757 C756 1.410 . S
C757 C758 1.392 . S
C757 C760 1.511 . S
C758 C754 1.376 . S
C758 C757 1.392 . S
C758 H770 0.929 . S
C759 C755 1.531 . S
C759 H771 0.960 . S
C759 H772 0.962 . S
C759 H773 0.960 . S
C760 C757 1.511 . S
C760 H774 0.961 . S
C760 H775 0.961 . S
C760 H776 0.961 . S
C761 C762 1.370 . S
C761 C763 1.363 . S
C761 H777 0.931 . S
C762 C761 1.370 . S
C762 C766 1.408 . S
C763 C761 1.363 . S
C763 C764 1.370 . S
C763 C767 1.524 . S
C764 C756 1.503 . S
C764 C763 1.370 . S
C764 C765 1.403 . S
C765 C764 1.403 . S
C765 C766 1.404 . S
C765 C768 1.539 . S
C766 C762 1.408 . S
C766 C765 1.404 . S
C766 H778 0.930 . S
C767 C763 1.524 . S
C767 H779 0.956 . S
C767 H780 0.961 . S
C767 H781 0.961 . S
C768 C765 1.539 . S
C768 H782 0.958 . S
C768 H783 0.961 . S
C768 H784 0.960 . S
H769 C753 0.931 . S
H770 C758 0.929 . S
H771 C759 0.960 . S
H772 C759 0.962 . S
H773 C759 0.960 . S
H774 C760 0.961 . S
H775 C760 0.961 . S
H776 C760 0.961 . S
H777 C761 0.931 . S
H778 C766 0.930 . S
H779 C767 0.956 . S
H780 C767 0.961 . S
H781 C767 0.961 . S
H782 C768 0.958 . S
H783 C768 0.961 . S
H784 C768 0.960 . S
C785 C786 1.391 . S
C785 C787 1.394 . S
C785 H801 0.931 1_556 S
C786 C785 1.391 . S
C786 C790 1.376 . S
C787 C785 1.394 . S
C787 C788 1.369 . S
C787 C791 1.531 . S
C788 C787 1.369 . S
C788 C789 1.410 . S
C788 C796 1.503 . S
C789 C788 1.410 . S
C789 C790 1.392 . S
C789 C792 1.511 . S
C790 C786 1.376 . S
C790 C789 1.392 . S
C790 H802 0.929 . S
C791 C787 1.531 . S
C791 H803 0.960 . S
C791 H804 0.962 . S
C791 H805 0.960 . S
C792 C789 1.511 . S
C792 H806 0.961 . S
C792 H807 0.961 . S
C792 H808 0.961 . S
C793 C794 1.370 . S
C793 C795 1.363 . S
C793 H809 0.931 . S
C794 C793 1.370 . S
C794 C798 1.408 . S
C795 C793 1.363 . S
C795 C796 1.370 . S
C795 C799 1.524 . S
C796 C788 1.503 . S
C796 C795 1.370 . S
C796 C797 1.403 . S
C797 C796 1.403 . S
C797 C798 1.404 . S
C797 C800 1.539 . S
C798 C794 1.408 . S
C798 C797 1.404 . S
C798 H810 0.930 . S
C799 C795 1.524 . S
C799 H811 0.956 . S
C799 H812 0.961 . S
C799 H813 0.961 . S
C800 C797 1.539 . S
C800 H814 0.958 . S
C800 H815 0.961 . S
C800 H816 0.960 . S
H801 C785 0.931 1_554 S
H802 C790 0.929 . S
H803 C791 0.960 . S
H804 C791 0.962 . S
H805 C791 0.960 . S
H806 C792 0.961 . S
H807 C792 0.961 . S
H808 C792 0.961 . S
H809 C793 0.931 . S
H810 C798 0.930 . S
H811 C799 0.956 . S
H812 C799 0.961 . S
H813 C799 0.961 . S
H814 C800 0.958 . S
H815 C800 0.961 . S
H816 C800 0.960 . S
C817 C818 1.391 . S
C817 C819 1.394 . S
C817 H833 0.931 . S
C818 C817 1.391 . S
C818 C822 1.376 . S
C819 C817 1.394 . S
C819 C820 1.369 . S
C819 C823 1.531 . S
C820 C819 1.369 . S
C820 C821 1.410 . S
C820 C828 1.503 . S
C821 C820 1.410 . S
C821 C822 1.392 . S
C821 C824 1.511 . S
C822 C818 1.376 . S
C822 C821 1.392 . S
C822 H834 0.929 . S
C823 C819 1.531 . S
C823 H835 0.960 . S
C823 H836 0.962 . S
C823 H837 0.960 . S
C824 C821 1.511 . S
C824 H838 0.961 . S
C824 H839 0.961 . S
C824 H840 0.961 . S
C825 C826 1.370 . S
C825 C827 1.363 . S
C825 H841 0.931 . S
C826 C825 1.370 . S
C826 C830 1.408 . S
C827 C825 1.363 . S
C827 C828 1.370 . S
C827 C831 1.524 . S
C828 C820 1.503 . S
C828 C827 1.370 . S
C828 C829 1.403 . S
C829 C828 1.403 . S
C829 C830 1.404 . S
C829 C832 1.539 . S
C830 C826 1.408 . S
C830 C829 1.404 . S
C830 H842 0.930 . S
C831 C827 1.524 . S
C831 H843 0.956 . S
C831 H844 0.961 . S
C831 H845 0.961 . S
C832 C829 1.539 . S
C832 H846 0.958 . S
C832 H847 0.961 . S
C832 H848 0.960 . S
H833 C817 0.931 . S
H834 C822 0.929 . S
H835 C823 0.960 . S
H836 C823 0.962 . S
H837 C823 0.960 . S
H838 C824 0.961 . S
H839 C824 0.961 . S
H840 C824 0.961 . S
H841 C825 0.931 . S
H842 C830 0.930 . S
H843 C831 0.956 . S
H844 C831 0.961 . S
H845 C831 0.961 . S
H846 C832 0.958 . S
H847 C832 0.961 . S
H848 C832 0.960 . S
C849 C850 1.391 . S
C849 C851 1.394 . S
C849 H865 0.931 . S
C850 C849 1.391 . S
C850 C854 1.376 . S
C851 C849 1.394 . S
C851 C852 1.369 . S
C851 C855 1.531 . S
C852 C851 1.369 . S
C852 C853 1.410 . S
C852 C860 1.503 . S
C853 C852 1.410 . S
C853 C854 1.392 . S
C853 C856 1.511 . S
C854 C850 1.376 . S
C854 C853 1.392 . S
C854 H866 0.929 . S
C855 C851 1.531 . S
C855 H867 0.960 . S
C855 H868 0.962 . S
C855 H869 0.960 . S
C856 C853 1.511 . S
C856 H870 0.961 . S
C856 H871 0.961 . S
C856 H872 0.961 . S
C857 C858 1.370 . S
C857 C859 1.363 . S
C857 H873 0.931 . S
C858 C857 1.370 . S
C858 C862 1.408 . S
C859 C857 1.363 . S
C859 C860 1.370 . S
C859 C863 1.524 . S
C860 C852 1.503 . S
C860 C859 1.370 . S
C860 C861 1.403 . S
C861 C860 1.403 . S
C861 C862 1.404 . S
C861 C864 1.539 . S
C862 C858 1.408 . S
C862 C861 1.404 . S
C862 H874 0.930 . S
C863 C859 1.524 . S
C863 H875 0.956 . S
C863 H876 0.961 . S
C863 H877 0.961 . S
C864 C861 1.539 . S
C864 H878 0.958 . S
C864 H879 0.961 . S
C864 H880 0.960 . S
H865 C849 0.931 . S
H866 C854 0.929 . S
H867 C855 0.960 . S
H868 C855 0.962 . S
H869 C855 0.960 . S
H870 C856 0.961 . S
H871 C856 0.961 . S
H872 C856 0.961 . S
H873 C857 0.931 . S
H874 C862 0.930 . S
H875 C863 0.956 . S
H876 C863 0.961 . S
H877 C863 0.961 . S
H878 C864 0.958 . S
H879 C864 0.961 . S
H880 C864 0.960 . S
C881 C882 1.391 . S
C881 C883 1.394 . S
C881 H897 0.931 . S
C882 C881 1.391 . S
C882 C886 1.376 . S
C883 C881 1.394 . S
C883 C884 1.369 . S
C883 C887 1.531 . S
C884 C883 1.369 . S
C884 C885 1.410 . S
C884 C892 1.503 . S
C885 C884 1.410 . S
C885 C886 1.392 . S
C885 C888 1.511 . S
C886 C882 1.376 . S
C886 C885 1.392 . S
C886 H898 0.929 . S
C887 C883 1.531 . S
C887 H899 0.960 . S
C887 H900 0.962 . S
C887 H901 0.960 . S
C888 C885 1.511 . S
C888 H902 0.961 . S
C888 H903 0.961 . S
C888 H904 0.961 . S
C889 C890 1.370 . S
C889 C891 1.363 . S
C889 H905 0.931 . S
C890 C889 1.370 . S
C890 C894 1.408 . S
C891 C889 1.363 . S
C891 C892 1.370 . S
C891 C895 1.524 . S
C892 C884 1.503 . S
C892 C891 1.370 . S
C892 C893 1.403 . S
C893 C892 1.403 . S
C893 C894 1.404 . S
C893 C896 1.539 . S
C894 C890 1.408 . S
C894 C893 1.404 . S
C894 H906 0.930 . S
C895 C891 1.524 . S
C895 H907 0.956 . S
C895 H908 0.961 . S
C895 H909 0.961 . S
C896 C893 1.539 . S
C896 H910 0.958 . S
C896 H911 0.961 . S
C896 H912 0.960 . S
H897 C881 0.931 . S
H898 C886 0.929 . S
H899 C887 0.960 . S
H900 C887 0.962 . S
H901 C887 0.960 . S
H902 C888 0.961 . S
H903 C888 0.961 . S
H904 C888 0.961 . S
H905 C889 0.931 . S
H906 C894 0.930 . S
H907 C895 0.956 . S
H908 C895 0.961 . S
H909 C895 0.961 . S
H910 C896 0.958 . S
H911 C896 0.961 . S
H912 C896 0.960 . S
C913 C914 1.391 . S
C913 C915 1.394 . S
C913 H929 0.931 . S
C914 C913 1.391 . S
C914 C918 1.376 . S
C915 C913 1.394 . S
C915 C916 1.369 . S
C915 C919 1.531 . S
C916 C915 1.369 . S
C916 C917 1.410 . S
C916 C924 1.503 . S
C917 C916 1.410 . S
C917 C918 1.392 . S
C917 C920 1.511 . S
C918 C914 1.376 . S
C918 C917 1.392 . S
C918 H930 0.929 . S
C919 C915 1.531 . S
C919 H931 0.960 . S
C919 H932 0.962 . S
C919 H933 0.960 . S
C920 C917 1.511 . S
C920 H934 0.961 . S
C920 H935 0.961 . S
C920 H936 0.961 . S
C921 C922 1.370 . S
C921 C923 1.363 . S
C921 H937 0.931 . S
C922 C921 1.370 . S
C922 C926 1.408 . S
C923 C921 1.363 . S
C923 C924 1.370 . S
C923 C927 1.524 . S
C924 C916 1.503 . S
C924 C923 1.370 . S
C924 C925 1.403 . S
C925 C924 1.403 . S
C925 C926 1.404 . S
C925 C928 1.539 . S
C926 C922 1.408 . S
C926 C925 1.404 . S
C926 H938 0.930 . S
C927 C923 1.524 . S
C927 H939 0.956 . S
C927 H940 0.961 . S
C927 H941 0.961 . S
C928 C925 1.539 . S
C928 H942 0.958 . S
C928 H943 0.961 . S
C928 H944 0.960 . S
H929 C913 0.931 . S
H930 C918 0.929 . S
H931 C919 0.960 . S
H932 C919 0.962 . S
H933 C919 0.960 . S
H934 C920 0.961 . S
H935 C920 0.961 . S
H936 C920 0.961 . S
H937 C921 0.931 . S
H938 C926 0.930 . S
H939 C927 0.956 . S
H940 C927 0.961 . S
H941 C927 0.961 . S
H942 C928 0.958 . S
H943 C928 0.961 . S
H944 C928 0.960 . S
C945 C946 1.391 . S
C945 C947 1.394 . S
C945 H961 0.931 1_556 S
C946 C945 1.391 . S
C946 C950 1.376 . S
C947 C945 1.394 . S
C947 C948 1.369 . S
C947 C951 1.531 . S
C948 C947 1.369 . S
C948 C949 1.410 . S
C948 C956 1.503 . S
C949 C948 1.410 . S
C949 C950 1.392 . S
C949 C952 1.511 . S
C950 C946 1.376 . S
C950 C949 1.392 . S
C950 H962 0.929 . S
C951 C947 1.531 . S
C951 H963 0.960 . S
C951 H964 0.962 . S
C951 H965 0.960 1_556 S
C952 C949 1.511 . S
C952 H966 0.961 . S
C952 H967 0.961 . S
C952 H968 0.961 . S
C953 C954 1.370 . S
C953 C955 1.363 . S
C953 H969 0.931 . S
C954 C953 1.370 . S
C954 C958 1.408 . S
C955 C953 1.363 . S
C955 C956 1.370 . S
C955 C959 1.524 . S
C956 C948 1.503 . S
C956 C955 1.370 . S
C956 C957 1.403 . S
C957 C956 1.403 . S
C957 C958 1.404 . S
C957 C960 1.539 . S
C958 C954 1.408 . S
C958 C957 1.404 . S
C958 H970 0.930 . S
C959 C955 1.524 . S
C959 H971 0.956 . S
C959 H972 0.961 . S
C959 H973 0.961 . S
C960 C957 1.539 . S
C960 H974 0.958 . S
C960 H975 0.961 . S
C960 H976 0.960 . S
H961 C945 0.931 1_554 S
H962 C950 0.929 . S
H963 C951 0.960 . S
H964 C951 0.962 . S
H965 C951 0.960 1_554 S
H966 C952 0.961 . S
H967 C952 0.961 . S
H968 C952 0.961 . S
H969 C953 0.931 . S
H970 C958 0.930 . S
H971 C959 0.956 . S
H972 C959 0.961 . S
H973 C959 0.961 . S
H974 C960 0.958 . S
H975 C960 0.961 . S
H976 C960 0.960 . S
C977 C978 1.391 . S
C977 C979 1.394 . S
C977 H993 0.931 . S
C978 C977 1.391 . S
C978 C982 1.376 . S
C979 C977 1.394 . S
C979 C980 1.369 . S
C979 C983 1.531 . S
C980 C979 1.369 . S
C980 C981 1.410 . S
C980 C988 1.503 . S
C981 C980 1.410 . S
C981 C982 1.392 . S
C981 C984 1.511 . S
C982 C978 1.376 . S
C982 C981 1.392 . S
C982 H994 0.929 . S
C983 C979 1.531 . S
C983 H995 0.960 . S
C983 H996 0.962 . S
C983 H997 0.960 . S
C984 C981 1.511 . S
C984 H998 0.961 . S
C984 H999 0.961 . S
C984 H1000 0.961 . S
C985 C986 1.370 . S
C985 C987 1.363 . S
C985 H1001 0.931 . S
C986 C985 1.370 . S
C986 C990 1.408 . S
C987 C985 1.363 . S
C987 C988 1.370 . S
C987 C991 1.524 . S
C988 C980 1.503 . S
C988 C987 1.370 . S
C988 C989 1.403 . S
C989 C988 1.403 . S
C989 C990 1.404 . S
C989 C992 1.539 . S
C990 C986 1.408 . S
C990 C989 1.404 . S
C990 H1002 0.930 . S
C991 C987 1.524 . S
C991 H1003 0.956 . S
C991 H1004 0.961 . S
C991 H1005 0.961 . S
C992 C989 1.539 . S
C992 H1006 0.958 . S
C992 H1007 0.961 . S
C992 H1008 0.960 . S
H993 C977 0.931 . S
H994 C982 0.929 . S
H995 C983 0.960 . S
H996 C983 0.962 . S
H997 C983 0.960 . S
H998 C984 0.961 . S
H999 C984 0.961 . S
H1000 C984 0.961 . S
H1001 C985 0.931 . S
H1002 C990 0.930 . S
H1003 C991 0.956 . S
H1004 C991 0.961 . S
H1005 C991 0.961 . S
H1006 C992 0.958 . S
H1007 C992 0.961 . S
H1008 C992 0.960 . S
C1009 C1010 1.391 . S
C1009 C1011 1.394 . S
C1009 H1025 0.931 . S
C1010 C1009 1.391 . S
C1010 C1014 1.376 . S
C1011 C1009 1.394 . S
C1011 C1012 1.369 . S
C1011 C1015 1.531 . S
C1012 C1011 1.369 . S
C1012 C1013 1.410 . S
C1012 C1020 1.503 . S
C1013 C1012 1.410 . S
C1013 C1014 1.392 . S
C1013 C1016 1.511 . S
C1014 C1010 1.376 . S
C1014 C1013 1.392 . S
C1014 H1026 0.929 . S
C1015 C1011 1.531 . S
C1015 H1027 0.960 . S
C1015 H1028 0.962 . S
C1015 H1029 0.960 . S
C1016 C1013 1.511 . S
C1016 H1030 0.961 . S
C1016 H1031 0.961 . S
C1016 H1032 0.961 . S
C1017 C1018 1.370 . S
C1017 C1019 1.363 . S
C1017 H1033 0.931 . S
C1018 C1017 1.370 . S
C1018 C1022 1.408 . S
C1019 C1017 1.363 . S
C1019 C1020 1.370 . S
C1019 C1023 1.524 . S
C1020 C1012 1.503 . S
C1020 C1019 1.370 . S
C1020 C1021 1.403 . S
C1021 C1020 1.403 . S
C1021 C1022 1.404 . S
C1021 C1024 1.539 . S
C1022 C1018 1.408 . S
C1022 C1021 1.404 . S
C1022 H1034 0.930 . S
C1023 C1019 1.524 . S
C1023 H1035 0.956 . S
C1023 H1036 0.961 . S
C1023 H1037 0.961 . S
C1024 C1021 1.539 . S
C1024 H1038 0.958 . S
C1024 H1039 0.961 . S
C1024 H1040 0.960 . S
H1025 C1009 0.931 . S
H1026 C1014 0.929 . S
H1027 C1015 0.960 . S
H1028 C1015 0.962 . S
H1029 C1015 0.960 . S
H1030 C1016 0.961 . S
H1031 C1016 0.961 . S
H1032 C1016 0.961 . S
H1033 C1017 0.931 . S
H1034 C1022 0.930 . S
H1035 C1023 0.956 . S
H1036 C1023 0.961 . S
H1037 C1023 0.961 . S
H1038 C1024 0.958 . S
H1039 C1024 0.961 . S
H1040 C1024 0.960 . S
C1041 C1042 1.391 . S
C1041 C1043 1.394 . S
C1041 H1057 0.931 . S
C1042 C1041 1.391 . S
C1042 C1046 1.376 . S
C1043 C1041 1.394 . S
C1043 C1044 1.369 . S
C1043 C1047 1.531 . S
C1044 C1043 1.369 . S
C1044 C1045 1.410 . S
C1044 C1052 1.503 . S
C1045 C1044 1.410 . S
C1045 C1046 1.392 . S
C1045 C1048 1.511 . S
C1046 C1042 1.376 . S
C1046 C1045 1.392 . S
C1046 H1058 0.929 . S
C1047 C1043 1.531 . S
C1047 H1059 0.960 . S
C1047 H1060 0.962 . S
C1047 H1061 0.960 . S
C1048 C1045 1.511 . S
C1048 H1062 0.961 . S
C1048 H1063 0.961 . S
C1048 H1064 0.961 . S
C1049 C1050 1.370 . S
C1049 C1051 1.363 . S
C1049 H1065 0.931 . S
C1050 C1049 1.370 . S
C1050 C1054 1.408 . S
C1051 C1049 1.363 . S
C1051 C1052 1.370 . S
C1051 C1055 1.524 . S
C1052 C1044 1.503 . S
C1052 C1051 1.370 . S
C1052 C1053 1.403 . S
C1053 C1052 1.403 . S
C1053 C1054 1.404 . S
C1053 C1056 1.539 . S
C1054 C1050 1.408 . S
C1054 C1053 1.404 . S
C1054 H1066 0.930 . S
C1055 C1051 1.524 . S
C1055 H1067 0.956 . S
C1055 H1068 0.961 . S
C1055 H1069 0.961 . S
C1056 C1053 1.539 . S
C1056 H1070 0.958 . S
C1056 H1071 0.961 . S
C1056 H1072 0.960 . S
H1057 C1041 0.931 . S
H1058 C1046 0.929 . S
H1059 C1047 0.960 . S
H1060 C1047 0.962 . S
H1061 C1047 0.960 . S
H1062 C1048 0.961 . S
H1063 C1048 0.961 . S
H1064 C1048 0.961 . S
H1065 C1049 0.931 . S
H1066 C1054 0.930 . S
H1067 C1055 0.956 . S
H1068 C1055 0.961 . S
H1069 C1055 0.961 . S
H1070 C1056 0.958 . S
H1071 C1056 0.961 . S
H1072 C1056 0.960 . S
C1073 C1074 1.391 . S
C1073 C1075 1.394 . S
C1073 H1089 0.931 . S
C1074 C1073 1.391 . S
C1074 C1078 1.376 . S
C1075 C1073 1.394 . S
C1075 C1076 1.369 . S
C1075 C1079 1.531 . S
C1076 C1075 1.369 . S
C1076 C1077 1.410 . S
C1076 C1084 1.503 . S
C1077 C1076 1.410 . S
C1077 C1078 1.392 . S
C1077 C1080 1.511 . S
C1078 C1074 1.376 . S
C1078 C1077 1.392 . S
C1078 H1090 0.929 . S
C1079 C1075 1.531 . S
C1079 H1091 0.960 . S
C1079 H1092 0.962 . S
C1079 H1093 0.960 . S
C1080 C1077 1.511 . S
C1080 H1094 0.961 . S
C1080 H1095 0.961 . S
C1080 H1096 0.961 . S
C1081 C1082 1.370 . S
C1081 C1083 1.363 . S
C1081 H1097 0.931 . S
C1082 C1081 1.370 . S
C1082 C1086 1.408 . S
C1083 C1081 1.363 . S
C1083 C1084 1.370 . S
C1083 C1087 1.524 . S
C1084 C1076 1.503 . S
C1084 C1083 1.370 . S
C1084 C1085 1.403 . S
C1085 C1084 1.403 . S
C1085 C1086 1.404 . S
C1085 C1088 1.539 . S
C1086 C1082 1.408 . S
C1086 C1085 1.404 . S
C1086 H1098 0.930 . S
C1087 C1083 1.524 . S
C1087 H1099 0.956 . S
C1087 H1100 0.961 . S
C1087 H1101 0.961 . S
C1088 C1085 1.539 . S
C1088 H1102 0.958 . S
C1088 H1103 0.961 . S
C1088 H1104 0.960 . S
H1089 C1073 0.931 . S
H1090 C1078 0.929 . S
H1091 C1079 0.960 . S
H1092 C1079 0.962 . S
H1093 C1079 0.960 . S
H1094 C1080 0.961 . S
H1095 C1080 0.961 . S
H1096 C1080 0.961 . S
H1097 C1081 0.931 . S
H1098 C1086 0.930 . S
H1099 C1087 0.956 . S
H1100 C1087 0.961 . S
H1101 C1087 0.961 . S
H1102 C1088 0.958 . S
H1103 C1088 0.961 . S
H1104 C1088 0.960 . S
C1105 C1106 1.391 . S
C1105 C1107 1.394 . S
C1105 H1121 0.931 . S
C1106 C1105 1.391 . S
C1106 C1110 1.376 . S
C1107 C1105 1.394 . S
C1107 C1108 1.369 . S
C1107 C1111 1.531 . S
C1108 C1107 1.369 . S
C1108 C1109 1.410 . S
C1108 C1116 1.503 . S
C1109 C1108 1.410 . S
C1109 C1110 1.392 . S
C1109 C1112 1.511 . S
C1110 C1106 1.376 . S
C1110 C1109 1.392 . S
C1110 H1122 0.929 . S
C1111 C1107 1.531 . S
C1111 H1123 0.960 . S
C1111 H1124 0.962 . S
C1111 H1125 0.960 . S
C1112 C1109 1.511 . S
C1112 H1126 0.961 . S
C1112 H1127 0.961 . S
C1112 H1128 0.961 . S
C1113 C1114 1.370 . S
C1113 C1115 1.363 . S
C1113 H1129 0.931 . S
C1114 C1113 1.370 . S
C1114 C1118 1.408 . S
C1115 C1113 1.363 . S
C1115 C1116 1.370 . S
C1115 C1119 1.524 . S
C1116 C1108 1.503 . S
C1116 C1115 1.370 . S
C1116 C1117 1.403 . S
C1117 C1116 1.403 . S
C1117 C1118 1.404 . S
C1117 C1120 1.539 . S
C1118 C1114 1.408 . S
C1118 C1117 1.404 . S
C1118 H1130 0.930 . S
C1119 C1115 1.524 . S
C1119 H1131 0.956 . S
C1119 H1132 0.961 . S
C1119 H1133 0.961 . S
C1120 C1117 1.539 . S
C1120 H1134 0.958 . S
C1120 H1135 0.961 . S
C1120 H1136 0.960 . S
H1121 C1105 0.931 . S
H1122 C1110 0.929 . S
H1123 C1111 0.960 . S
H1124 C1111 0.962 . S
H1125 C1111 0.960 . S
H1126 C1112 0.961 . S
H1127 C1112 0.961 . S
H1128 C1112 0.961 . S
H1129 C1113 0.931 . S
H1130 C1118 0.930 . S
H1131 C1119 0.956 . S
H1132 C1119 0.961 . S
H1133 C1119 0.961 . S
H1134 C1120 0.958 . S
H1135 C1120 0.961 . S
H1136 C1120 0.960 . S
C1137 C1138 1.391 . S
C1137 C1139 1.394 . S
C1137 H1153 0.931 . S
C1138 C1137 1.391 . S
C1138 C1142 1.376 . S
C1139 C1137 1.394 . S
C1139 C1140 1.369 . S
C1139 C1143 1.531 . S
C1140 C1139 1.369 . S
C1140 C1141 1.410 . S
C1140 C1148 1.503 . S
C1141 C1140 1.410 . S
C1141 C1142 1.392 . S
C1141 C1144 1.511 . S
C1142 C1138 1.376 . S
C1142 C1141 1.392 . S
C1142 H1154 0.929 . S
C1143 C1139 1.531 . S
C1143 H1155 0.960 . S
C1143 H1156 0.962 . S
C1143 H1157 0.960 . S
C1144 C1141 1.511 . S
C1144 H1158 0.961 . S
C1144 H1159 0.961 . S
C1144 H1160 0.961 . S
C1145 C1146 1.370 . S
C1145 C1147 1.363 . S
C1145 H1161 0.931 . S
C1146 C1145 1.370 . S
C1146 C1150 1.408 . S
C1147 C1145 1.363 . S
C1147 C1148 1.370 . S
C1147 C1151 1.524 . S
C1148 C1140 1.503 . S
C1148 C1147 1.370 . S
C1148 C1149 1.403 . S
C1149 C1148 1.403 . S
C1149 C1150 1.404 . S
C1149 C1152 1.539 . S
C1150 C1146 1.408 . S
C1150 C1149 1.404 . S
C1150 H1162 0.930 . S
C1151 C1147 1.524 . S
C1151 H1163 0.956 . S
C1151 H1164 0.961 . S
C1151 H1165 0.961 . S
C1152 C1149 1.539 . S
C1152 H1166 0.958 . S
C1152 H1167 0.961 . S
C1152 H1168 0.960 . S
H1153 C1137 0.931 . S
H1154 C1142 0.929 . S
H1155 C1143 0.960 . S
H1156 C1143 0.962 . S
H1157 C1143 0.960 . S
H1158 C1144 0.961 . S
H1159 C1144 0.961 . S
H1160 C1144 0.961 . S
H1161 C1145 0.931 . S
H1162 C1150 0.930 . S
H1163 C1151 0.956 . S
H1164 C1151 0.961 . S
H1165 C1151 0.961 . S
H1166 C1152 0.958 . S
H1167 C1152 0.961 . S
H1168 C1152 0.960 . S
C1169 C1170 1.391 . S
C1169 C1171 1.394 . S
C1169 H1185 0.931 . S
C1170 C1169 1.391 . S
C1170 C1174 1.376 . S
C1171 C1169 1.394 . S
C1171 C1172 1.369 . S
C1171 C1175 1.531 . S
C1172 C1171 1.369 . S
C1172 C1173 1.410 . S
C1172 C1180 1.503 . S
C1173 C1172 1.410 . S
C1173 C1174 1.392 . S
C1173 C1176 1.511 . S
C1174 C1170 1.376 . S
C1174 C1173 1.392 . S
C1174 H1186 0.929 . S
C1175 C1171 1.531 . S
C1175 H1187 0.960 . S
C1175 H1188 0.962 . S
C1175 H1189 0.960 . S
C1176 C1173 1.511 . S
C1176 H1190 0.961 . S
C1176 H1191 0.961 . S
C1176 H1192 0.961 . S
C1177 C1178 1.370 . S
C1177 C1179 1.363 . S
C1177 H1193 0.931 . S
C1178 C1177 1.370 . S
C1178 C1182 1.408 . S
C1179 C1177 1.363 . S
C1179 C1180 1.370 . S
C1179 C1183 1.524 . S
C1180 C1172 1.503 . S
C1180 C1179 1.370 . S
C1180 C1181 1.403 . S
C1181 C1180 1.403 . S
C1181 C1182 1.404 . S
C1181 C1184 1.539 . S
C1182 C1178 1.408 . S
C1182 C1181 1.404 . S
C1182 H1194 0.930 . S
C1183 C1179 1.524 . S
C1183 H1195 0.956 . S
C1183 H1196 0.961 . S
C1183 H1197 0.961 . S
C1184 C1181 1.539 . S
C1184 H1198 0.958 . S
C1184 H1199 0.961 . S
C1184 H1200 0.960 . S
H1185 C1169 0.931 . S
H1186 C1174 0.929 . S
H1187 C1175 0.960 . S
H1188 C1175 0.962 . S
H1189 C1175 0.960 . S
H1190 C1176 0.961 . S
H1191 C1176 0.961 . S
H1192 C1176 0.961 . S
H1193 C1177 0.931 . S
H1194 C1182 0.930 . S
H1195 C1183 0.956 . S
H1196 C1183 0.961 . S
H1197 C1183 0.961 . S
H1198 C1184 0.958 . S
H1199 C1184 0.961 . S
H1200 C1184 0.960 . S
C1201 C1202 1.391 . S
C1201 C1203 1.394 . S
C1201 H1217 0.931 . S
C1202 C1201 1.391 . S
C1202 C1206 1.376 . S
C1203 C1201 1.394 . S
C1203 C1204 1.369 . S
C1203 C1207 1.531 . S
C1204 C1203 1.369 . S
C1204 C1205 1.410 . S
C1204 C1212 1.503 . S
C1205 C1204 1.410 . S
C1205 C1206 1.392 . S
C1205 C1208 1.511 . S
C1206 C1202 1.376 . S
C1206 C1205 1.392 . S
C1206 H1218 0.929 . S
C1207 C1203 1.531 . S
C1207 H1219 0.960 . S
C1207 H1220 0.962 . S
C1207 H1221 0.960 . S
C1208 C1205 1.511 . S
C1208 H1222 0.961 . S
C1208 H1223 0.961 . S
C1208 H1224 0.961 . S
C1209 C1210 1.370 . S
C1209 C1211 1.363 . S
C1209 H1225 0.931 . S
C1210 C1209 1.370 . S
C1210 C1214 1.408 . S
C1211 C1209 1.363 . S
C1211 C1212 1.370 . S
C1211 C1215 1.524 . S
C1212 C1204 1.503 . S
C1212 C1211 1.370 . S
C1212 C1213 1.403 . S
C1213 C1212 1.403 . S
C1213 C1214 1.404 . S
C1213 C1216 1.539 . S
C1214 C1210 1.408 . S
C1214 C1213 1.404 . S
C1214 H1226 0.930 . S
C1215 C1211 1.524 . S
C1215 H1227 0.956 . S
C1215 H1228 0.961 . S
C1215 H1229 0.961 . S
C1216 C1213 1.539 . S
C1216 H1230 0.958 . S
C1216 H1231 0.961 . S
C1216 H1232 0.960 . S
H1217 C1201 0.931 . S
H1218 C1206 0.929 . S
H1219 C1207 0.960 . S
H1220 C1207 0.962 . S
H1221 C1207 0.960 . S
H1222 C1208 0.961 . S
H1223 C1208 0.961 . S
H1224 C1208 0.961 . S
H1225 C1209 0.931 . S
H1226 C1214 0.930 . S
H1227 C1215 0.956 . S
H1228 C1215 0.961 . S
H1229 C1215 0.961 . S
H1230 C1216 0.958 . S
H1231 C1216 0.961 . S
H1232 C1216 0.960 . S
C466 C47 1.864 . S
C474 C372 1.993 . S
C498 C91 1.742 . S
C506 C404 1.858 . S
C538 C463 1.909 . S
C530 C177 1.966 . S
C570 C392 1.699 . S
C562 C215 1.690 . S
C594 C295 1.829 . S
C602 C422 1.825 . S
C634 C444 1.128 . S
C626 C345 1.115 . S
C666 C413 1.989 . S
C658 C153 1.845 . S
C690 C239 1.149 . S
C698 C453 1.131 . S
C730 C402 1.540 . S
C722 C283 1.558 . S
C754 C357 1.732 . S
C762 C432 1.775 . S
C786 C35 1.883 1_556 S
C794 C435 1.825 . S
C826 C374 1.547 . S
C818 C115 1.556 . S
C858 C382 1.528 . S
C850 C221 1.522 . S
C890 C423 1.495 . S
C882 C301 1.481 . S
C922 C436 2.215 . S
C914 C339 2.114 1_556 S
C954 C373 1.473 . S
C946 C53 1.483 1_556 S
C986 C433 1.484 . S
C978 C97 1.534 . S
C1010 C171 1.466 . S
C1018 C434 1.508 . S
C1050 C403 1.506 . S
C1042 C363 1.529 . S
C1082 C464 1.519 . S
C1074 C29 1.372 . S
C1114 C391 1.797 . S
C1106 C109 1.757 . S
C1146 C405 1.547 . S
C1138 C159 1.583 . S
C1170 C233 2.112 . S
C1178 C454 2.124 . S
C1202 C277 1.834 . S
C1210 C401 1.932 . S
