# Generated by pormake.
# Topology ctn, (3,4)-cn, num edge types: 1
# Building blocks:
#     Node 0, Type 0, BuildingBlock: PAMTOO_clean_linker_0, # of connection points: 3
#     Node 1, Type 0, BuildingBlock: PAMTOO_clean_linker_0, # of connection points: 3
#     Node 2, Type 0, BuildingBlock: PAMTOO_clean_linker_0, # of connection points: 3
#     Node 3, Type 0, BuildingBlock: PAMTOO_clean_linker_0, # of connection points: 3
#     Node 4, Type 0, BuildingBlock: PAMTOO_clean_linker_0, # of connection points: 3
#     Node 5, Type 0, BuildingBlock: PAMTOO_clean_linker_0, # of connection points: 3
#     Node 6, Type 0, BuildingBlock: PAMTOO_clean_linker_0, # of connection points: 3
#     Node 7, Type 0, BuildingBlock: PAMTOO_clean_linker_0, # of connection points: 3
#     Node 8, Type 0, BuildingBlock: PAMTOO_clean_linker_0, # of connection points: 3
#     Node 9, Type 0, BuildingBlock: PAMTOO_clean_linker_0, # of connection points: 3
#     Node 10, Type 0, BuildingBlock: PAMTOO_clean_linker_0, # of connection points: 3
#     Node 11, Type 0, BuildingBlock: PAMTOO_clean_linker_0, # of connection points: 3
#     Node 12, Type 0, BuildingBlock: PAMTOO_clean_linker_0, # of connection points: 3
#     Node 13, Type 0, BuildingBlock: PAMTOO_clean_linker_0, # of connection points: 3
#     Node 14, Type 0, BuildingBlock: PAMTOO_clean_linker_0, # of connection points: 3
#     Node 15, Type 0, BuildingBlock: PAMTOO_clean_linker_0, # of connection points: 3
#     Node 16, Type 1, BuildingBlock: QUQFOY_clean_sbu_1, # of connection points: 4
#     Node 17, Type 1, BuildingBlock: QUQFOY_clean_sbu_1, # of connection points: 4
#     Node 18, Type 1, BuildingBlock: QUQFOY_clean_sbu_1, # of connection points: 4
#     Node 19, Type 1, BuildingBlock: QUQFOY_clean_sbu_1, # of connection points: 4
#     Node 20, Type 1, BuildingBlock: QUQFOY_clean_sbu_1, # of connection points: 4
#     Node 21, Type 1, BuildingBlock: QUQFOY_clean_sbu_1, # of connection points: 4
#     Node 22, Type 1, BuildingBlock: QUQFOY_clean_sbu_1, # of connection points: 4
#     Node 23, Type 1, BuildingBlock: QUQFOY_clean_sbu_1, # of connection points: 4
#     Node 24, Type 1, BuildingBlock: QUQFOY_clean_sbu_1, # of connection points: 4
#     Node 25, Type 1, BuildingBlock: QUQFOY_clean_sbu_1, # of connection points: 4
#     Node 26, Type 1, BuildingBlock: QUQFOY_clean_sbu_1, # of connection points: 4
#     Node 27, Type 1, BuildingBlock: QUQFOY_clean_sbu_1, # of connection points: 4
#     Edge 28, Type (0, 1), BuildingBlock: XUDNAN_clean_linker_2, # of connection points: 2
#     Edge 29, Type (0, 1), BuildingBlock: XUDNAN_clean_linker_2, # of connection points: 2
#     Edge 30, Type (0, 1), BuildingBlock: XUDNAN_clean_linker_2, # of connection points: 2
#     Edge 31, Type (0, 1), BuildingBlock: XUDNAN_clean_linker_2, # of connection points: 2
#     Edge 32, Type (0, 1), BuildingBlock: XUDNAN_clean_linker_2, # of connection points: 2
#     Edge 33, Type (0, 1), BuildingBlock: XUDNAN_clean_linker_2, # of connection points: 2
#     Edge 34, Type (0, 1), BuildingBlock: XUDNAN_clean_linker_2, # of connection points: 2
#     Edge 35, Type (0, 1), BuildingBlock: XUDNAN_clean_linker_2, # of connection points: 2
#     Edge 36, Type (0, 1), BuildingBlock: XUDNAN_clean_linker_2, # of connection points: 2
#     Edge 37, Type (0, 1), BuildingBlock: XUDNAN_clean_linker_2, # of connection points: 2
#     Edge 38, Type (0, 1), BuildingBlock: XUDNAN_clean_linker_2, # of connection points: 2
#     Edge 39, Type (0, 1), BuildingBlock: XUDNAN_clean_linker_2, # of connection points: 2
#     Edge 40, Type (0, 1), BuildingBlock: XUDNAN_clean_linker_2, # of connection points: 2
#     Edge 41, Type (0, 1), BuildingBlock: XUDNAN_clean_linker_2, # of connection points: 2
#     Edge 42, Type (0, 1), BuildingBlock: XUDNAN_clean_linker_2, # of connection points: 2
#     Edge 43, Type (0, 1), BuildingBlock: XUDNAN_clean_linker_2, # of connection points: 2
#     Edge 44, Type (0, 1), BuildingBlock: XUDNAN_clean_linker_2, # of connection points: 2
#     Edge 45, Type (0, 1), BuildingBlock: XUDNAN_clean_linker_2, # of connection points: 2
#     Edge 46, Type (0, 1), BuildingBlock: XUDNAN_clean_linker_2, # of connection points: 2
#     Edge 47, Type (0, 1), BuildingBlock: XUDNAN_clean_linker_2, # of connection points: 2
#     Edge 48, Type (0, 1), BuildingBlock: XUDNAN_clean_linker_2, # of connection points: 2
#     Edge 49, Type (0, 1), BuildingBlock: XUDNAN_clean_linker_2, # of connection points: 2
#     Edge 50, Type (0, 1), BuildingBlock: XUDNAN_clean_linker_2, # of connection points: 2
#     Edge 51, Type (0, 1), BuildingBlock: XUDNAN_clean_linker_2, # of connection points: 2
#     Edge 52, Type (0, 1), BuildingBlock: XUDNAN_clean_linker_2, # of connection points: 2
#     Edge 53, Type (0, 1), BuildingBlock: XUDNAN_clean_linker_2, # of connection points: 2
#     Edge 54, Type (0, 1), BuildingBlock: XUDNAN_clean_linker_2, # of connection points: 2
#     Edge 55, Type (0, 1), BuildingBlock: XUDNAN_clean_linker_2, # of connection points: 2
#     Edge 56, Type (0, 1), BuildingBlock: XUDNAN_clean_linker_2, # of connection points: 2
#     Edge 57, Type (0, 1), BuildingBlock: XUDNAN_clean_linker_2, # of connection points: 2
#     Edge 58, Type (0, 1), BuildingBlock: XUDNAN_clean_linker_2, # of connection points: 2
#     Edge 59, Type (0, 1), BuildingBlock: XUDNAN_clean_linker_2, # of connection points: 2
#     Edge 60, Type (0, 1), BuildingBlock: XUDNAN_clean_linker_2, # of connection points: 2
#     Edge 61, Type (0, 1), BuildingBlock: XUDNAN_clean_linker_2, # of connection points: 2
#     Edge 62, Type (0, 1), BuildingBlock: XUDNAN_clean_linker_2, # of connection points: 2
#     Edge 63, Type (0, 1), BuildingBlock: XUDNAN_clean_linker_2, # of connection points: 2
#     Edge 64, Type (0, 1), BuildingBlock: XUDNAN_clean_linker_2, # of connection points: 2
#     Edge 65, Type (0, 1), BuildingBlock: XUDNAN_clean_linker_2, # of connection points: 2
#     Edge 66, Type (0, 1), BuildingBlock: XUDNAN_clean_linker_2, # of connection points: 2
#     Edge 67, Type (0, 1), BuildingBlock: XUDNAN_clean_linker_2, # of connection points: 2
#     Edge 68, Type (0, 1), BuildingBlock: XUDNAN_clean_linker_2, # of connection points: 2
#     Edge 69, Type (0, 1), BuildingBlock: XUDNAN_clean_linker_2, # of connection points: 2
#     Edge 70, Type (0, 1), BuildingBlock: XUDNAN_clean_linker_2, # of connection points: 2
#     Edge 71, Type (0, 1), BuildingBlock: XUDNAN_clean_linker_2, # of connection points: 2
#     Edge 72, Type (0, 1), BuildingBlock: XUDNAN_clean_linker_2, # of connection points: 2
#     Edge 73, Type (0, 1), BuildingBlock: XUDNAN_clean_linker_2, # of connection points: 2
#     Edge 74, Type (0, 1), BuildingBlock: XUDNAN_clean_linker_2, # of connection points: 2
#     Edge 75, Type (0, 1), BuildingBlock: XUDNAN_clean_linker_2, # of connection points: 2
# Relax obj value: 0.092
# Max RMSD: 0.209
# Mean RMSD: 0.144
data_MOF--net-ctn--node1-QUQFOY_clean_sbu_1--node2-PAMTOO_clean_linker_0--edge1-XUDNAN_clean_linker_2
_symmetry_space_group_name_H-M    P1
_symmetry_Int_Tables_number       1
_symmetry_cell_setting            triclinic
loop_
_symmetry_equiv_pos_as_xyz
'x, y, z'
_cell_length_a     53.963865
_cell_length_b     54.038001
_cell_length_c     54.984537
_cell_angle_alpha  87.659473
_cell_angle_beta   92.770895
_cell_angle_gamma 102.8296
loop_
_atom_site_label
_atom_site_type_symbol
_atom_site_fract_x
_atom_site_fract_y
_atom_site_fract_z
_atom_type_partial_charge
H0 H 0.02057 0.12922 0.05498 0.0
H1 H 0.04248 0.06106 0.08209 0.0
H2 H 0.07822 0.10137 0.01992 0.0
H3 H 0.06047 0.04489 0.01746 0.0
C4 C 0.06681 0.03992 0.03625 0.0
O5 O 0.07577 0.06172 0.04913 0.0
H6 H 0.05006 0.02796 0.04528 0.0
C7 C 0.03223 0.11547 0.05389 0.0
C8 C 0.0496 0.11808 0.03515 0.0
C9 C 0.02945 0.09521 0.07115 0.0
C10 C 0.04448 0.0772 0.06943 0.0
C11 C 0.06179 0.07942 0.05085 0.0
C12 C 0.06448 0.09986 0.03393 0.0
H13 H 0.29599 0.70507 0.25131 0.0
H14 H 0.26012 0.73526 0.18877 0.0
H15 H 0.33367 0.77445 0.21506 0.0
H16 H 0.30366 0.81162 0.19811 0.0
C17 C 0.28745 0.7976 0.18997 0.0
O18 O 0.29575 0.77622 0.18418 0.0
H19 H 0.27244 0.79261 0.20369 0.0
C20 C 0.29665 0.71904 0.23654 0.0
C21 C 0.31792 0.73943 0.23498 0.0
C22 C 0.27582 0.71686 0.21977 0.0
C23 C 0.27591 0.73624 0.2019 0.0
C24 C 0.29649 0.75715 0.2007 0.0
C25 C 0.31764 0.75847 0.21679 0.0
H26 H 0.94816 0.53533 0.10493 0.0
H27 H 0.93906 0.52857 0.02693 0.0
H28 H 0.98043 0.48154 0.06847 0.0
H29 H 0.00072 0.50894 0.02296 0.0
C30 C 0.98423 0.4984 0.01182 0.0
O31 O 0.96272 0.49158 0.02535 0.0
H32 H 0.98053 0.51118 0.99637 0.0
C33 C 0.95182 0.52685 0.08835 0.0
C34 C 0.96601 0.50782 0.08967 0.0
C35 C 0.94192 0.53468 0.06585 0.0
C36 C 0.94608 0.5228 0.04456 0.0
C37 C 0.95956 0.50346 0.04576 0.0
C38 C 0.96944 0.49604 0.06815 0.0
H39 H 0.70854 0.86411 0.25365 0.0
H40 H 0.68983 0.78263 0.26123 0.0
H41 H 0.76198 0.82049 0.23393 0.0
H42 H 0.70121 0.75904 0.22411 0.0
C43 C 0.72179 0.75921 0.22723 0.0
O44 O 0.73271 0.77649 0.24464 0.0
H45 H 0.72256 0.7399 0.23454 0.0
C46 C 0.71358 0.84598 0.25174 0.0
C47 C 0.73762 0.84533 0.24335 0.0
C48 C 0.69612 0.82357 0.25819 0.0
C49 C 0.70293 0.80016 0.25617 0.0
C50 C 0.72633 0.79913 0.24668 0.0
C51 C 0.74359 0.82162 0.24028 0.0
H52 H 0.09533 0.98473 0.50443 0.0
H53 H 0.02831 0.94438 0.46498 0.0
H54 H 0.05891 0.0227 0.44761 0.0
H55 H 0.00057 0.99547 0.46392 0.0
C56 C 0.99872 0.98708 0.44554 0.0
O57 O 0.02196 0.98366 0.4385 0.0
H58 H 0.98528 0.96829 0.44675 0.0
C59 C 0.08072 0.98395 0.49008 0.0
C60 C 0.07992 0.00605 0.47592 0.0
C61 C 0.06193 0.96152 0.48675 0.0
C62 C 0.04281 0.9614 0.46836 0.0
C63 C 0.04158 0.98351 0.45468 0.0
C64 C 0.06007 0.00572 0.45841 0.0
H65 H 0.19178 0.79086 0.79124 0.0
H66 H 0.22189 0.73081 0.76357 0.0
H67 H 0.26333 0.77708 0.82017 0.0
H68 H 0.29614 0.76299 0.78489 0.0
C69 C 0.28417 0.74445 0.77923 0.0
O70 O 0.26254 0.73853 0.79263 0.0
H71 H 0.2787 0.74596 0.75953 0.0
C72 C 0.20707 0.78083 0.79089 0.0
C73 C 0.22803 0.78697 0.8074 0.0
C74 C 0.20467 0.76071 0.77501 0.0
C75 C 0.22366 0.74666 0.77547 0.0
C76 C 0.24487 0.7528 0.79158 0.0
C77 C 0.24699 0.77279 0.80758 0.0
H78 H 0.944 0.5569 0.53011 0.0
H79 H 0.98402 0.52734 0.47618 0.0
H80 H 0.0198 0.59587 0.51221 0.0
H81 H 0.04042 0.59637 0.4617 0.0
C82 C 0.02914 0.57694 0.45809 0.0
O83 O 0.02514 0.56337 0.4799 0.0
H84 H 0.01069 0.57878 0.44899 0.0
C85 C 0.96074 0.55837 0.51952 0.0
C86 C 0.98169 0.57866 0.52319 0.0
C87 C 0.96129 0.53974 0.50263 0.0
C88 C 0.98318 0.54156 0.48928 0.0
C89 C 0.00408 0.56191 0.49263 0.0
C90 C 0.00334 0.58044 0.50951 0.0
H91 H 0.7536 0.81952 0.83821 0.0
H92 H 0.82268 0.80605 0.80987 0.0
H93 H 0.77801 0.8492 0.76734 0.0
H94 H 0.79748 0.8152 0.73789 0.0
C95 C 0.81347 0.81185 0.7502 0.0
O96 O 0.81798 0.82937 0.76834 0.0
H97 H 0.80777 0.79222 0.75817 0.0
C98 C 0.76749 0.82217 0.82422 0.0
C99 C 0.76356 0.8361 0.80272 0.0
C100 C 0.78856 0.81062 0.82697 0.0
C101 C 0.80599 0.81412 0.80819 0.0
C102 C 0.80196 0.82768 0.78676 0.0
C103 C 0.7809 0.8387 0.78407 0.0
H104 H 0.26333 0.33905 0.34322 0.0
H105 H 0.32058 0.30262 0.31833 0.0
H106 H 0.28168 0.34424 0.2675 0.0
H107 H 0.28915 0.29365 0.25176 0.0
C108 C 0.30841 0.29473 0.26048 0.0
O109 O 0.31599 0.31694 0.27295 0.0
H110 H 0.3073 0.2781 0.27334 0.0
C111 C 0.27458 0.33482 0.32877 0.0
C112 C 0.27043 0.34376 0.30483 0.0
C113 C 0.29236 0.31954 0.33388 0.0
C114 C 0.30644 0.31391 0.31483 0.0
C115 C 0.30238 0.32265 0.29104 0.0
C116 C 0.28442 0.33743 0.28603 0.0
H117 H 0.43618 0.0188 0.59571 0.0
H118 H 0.39768 0.99321 0.52774 0.0
H119 H 0.45403 0.95605 0.55925 0.0
H120 H 0.44388 0.98536 0.50059 0.0
C121 C 0.43254 0.96541 0.50018 0.0
O122 O 0.42218 0.95765 0.52247 0.0
H123 H 0.41679 0.96525 0.48637 0.0
C124 C 0.43316 0.00602 0.58067 0.0
C125 C 0.44679 0.98653 0.5805 0.0
C126 C 0.41573 0.00914 0.56144 0.0
C127 C 0.41152 0.9919 0.5424 0.0
C128 C 0.42553 0.97312 0.54162 0.0
C129 C 0.44318 0.97056 0.56043 0.0
H130 H 0.20246 0.36916 0.7723 0.0
H131 H 0.18806 0.28982 0.75657 0.0
H132 H 0.24368 0.34303 0.71687 0.0
H133 H 0.1983 0.3015 0.69323 0.0
C134 C 0.20574 0.28594 0.70292 0.0
O135 O 0.22123 0.29532 0.72268 0.0
H136 H 0.18924 0.27139 0.70941 0.0
C137 C 0.20621 0.35403 0.76168 0.0
C138 C 0.22491 0.35949 0.74406 0.0
C139 C 0.19266 0.32904 0.76625 0.0
C140 C 0.19843 0.30921 0.75348 0.0
C141 C 0.21673 0.3144 0.73571 0.0
C142 C 0.22985 0.3394 0.73095 0.0
H143 H 0.79607 0.19337 0.7698 0.0
H144 H 0.7532 0.22175 0.71097 0.0
H145 H 0.81008 0.27344 0.75159 0.0
H146 H 0.76282 0.29369 0.73378 0.0
C147 C 0.75744 0.28075 0.71824 0.0
O148 O 0.77706 0.26878 0.71483 0.0
H149 H 0.73973 0.26654 0.72251 0.0
C150 C 0.79156 0.20903 0.75886 0.0
C151 C 0.80521 0.23392 0.76334 0.0
C152 C 0.77253 0.20417 0.74012 0.0
C153 C 0.76788 0.22467 0.72537 0.0
C154 C 0.7815 0.24944 0.7295 0.0
C155 C 0.79998 0.25408 0.74846 0.0
H156 H 0.53751 0.63418 0.553 0.0
H157 H 0.56826 0.57134 0.58132 0.0
H158 H 0.58982 0.60518 0.51137 0.0
H159 H 0.58135 0.54996 0.51306 0.0
C160 C 0.5858 0.54658 0.53273 0.0
O161 O 0.59535 0.56952 0.54358 0.0
H162 H 0.56778 0.53671 0.5412 0.0
C163 C 0.5497 0.62097 0.55115 0.0
C164 C 0.56345 0.6221 0.5299 0.0
C165 C 0.55112 0.60278 0.56985 0.0
C166 C 0.5668 0.58555 0.56717 0.0
C167 C 0.58073 0.58653 0.54615 0.0
C168 C 0.57922 0.60488 0.52767 0.0
H169 H 0.57977 0.49377 0.02971 0.0
H170 H 0.52915 0.47287 0.9669 0.0
H171 H 0.58843 0.53991 0.96371 0.0
H172 H 0.54424 0.54939 0.94006 0.0
C173 C 0.53297 0.52972 0.93747 0.0
O174 O 0.54883 0.5129 0.94072 0.0
H175 H 0.51794 0.52539 0.9512 0.0
C176 C 0.57376 0.49706 0.011 0.0
C177 C 0.58682 0.51845 0.99787 0.0
C178 C 0.55295 0.48011 0.0 0.0
C179 C 0.54505 0.48545 0.97593 0.0
C180 C 0.55765 0.50707 0.96312 0.0
C181 C 0.57884 0.52316 0.97383 0.0
H182 H 0.68085 0.28938 0.29847 0.0
H183 H 0.71479 0.23984 0.25834 0.0
H184 H 0.74817 0.26643 0.32768 0.0
H185 H 0.78703 0.25846 0.29565 0.0
C186 C 0.77442 0.2469 0.28178 0.0
O187 O 0.75091 0.2372 0.29136 0.0
H188 H 0.77231 0.25941 0.26555 0.0
C189 C 0.69569 0.27894 0.29701 0.0
C190 C 0.71476 0.28029 0.31551 0.0
C191 C 0.69565 0.26469 0.27631 0.0
C192 C 0.71465 0.25101 0.27424 0.0
C193 C 0.73327 0.25128 0.29301 0.0
C194 C 0.73332 0.2659 0.3136 0.0
H195 H 0.45386 0.08673 0.00846 0.0
H196 H 0.48187 0.03887 0.96071 0.0
H197 H 0.53394 0.08855 0.00828 0.0
H198 H 0.56504 0.07565 0.96515 0.0
C199 C 0.54535 0.07065 0.95709 0.0
O200 O 0.52993 0.05573 0.97386 0.0
H201 H 0.53958 0.08901 0.953 0.0
C202 C 0.46962 0.0804 0.00113 0.0
C203 C 0.49442 0.09012 0.01026 0.0
C204 C 0.46483 0.06162 0.9836 0.0
C205 C 0.48525 0.05316 0.97448 0.0
C206 C 0.51014 0.06312 0.98324 0.0
C207 C 0.51463 0.08107 0.00154 0.0
O208 O 0.24805 0.88716 0.96519 0.0
Cd209 Cd 0.26215 0.90646 0.99621 0.0
Cd210 Cd 0.23519 0.94038 0.97829 0.0
O211 O 0.22683 0.91524 0.9502 0.0
O212 O 0.27521 0.88208 0.0188 0.0
O213 O 0.24375 0.89999 0.02757 0.0
C214 C 0.25869 0.88499 0.034 0.0
C215 C 0.20235 0.95467 0.99562 0.0
C216 C 0.23429 0.89469 0.9483 0.0
C217 C 0.29164 0.95914 0.98401 0.0
O218 O 0.27045 0.96475 0.97813 0.0
O219 O 0.29245 0.93688 0.99186 0.0
O220 O 0.21028 0.96271 0.97437 0.0
O221 O 0.21291 0.93807 0.00706 0.0
O222 O 0.16775 0.54248 0.27217 0.0
Cd223 Cd 0.15072 0.50938 0.29059 0.0
Cd224 Cd 0.10553 0.51957 0.268 0.0
O225 O 0.13197 0.55097 0.25666 0.0
O226 O 0.17855 0.49232 0.30211 0.0
O227 O 0.14785 0.47536 0.27572 0.0
C228 C 0.16823 0.47368 0.28843 0.0
C229 C 0.07348 0.50595 0.23813 0.0
C230 C 0.156 0.55695 0.25971 0.0
C231 C 0.10889 0.51605 0.32286 0.0
O232 O 0.09525 0.51804 0.30368 0.0
O233 O 0.13142 0.51284 0.32144 0.0
O234 O 0.07489 0.52642 0.24974 0.0
O235 O 0.08983 0.49235 0.24409 0.0
O236 O 0.77991 0.72351 0.99867 0.0
Cd237 Cd 0.76788 0.7071 0.0321 0.0
Cd238 Cd 0.79307 0.66961 0.01733 0.0
O239 O 0.799 0.69394 0.98731 0.0
O240 O 0.75568 0.73407 0.04854 0.0
O241 O 0.78633 0.71644 0.06436 0.0
C242 C 0.77158 0.73204 0.06635 0.0
C243 C 0.8262 0.6504 0.03134 0.0
C244 C 0.79201 0.71472 0.983 0.0
C245 C 0.7371 0.65355 0.02741 0.0
O246 O 0.75712 0.64738 0.02096 0.0
O247 O 0.73734 0.6763 0.03259 0.0
O248 O 0.81318 0.64376 0.01152 0.0
O249 O 0.82081 0.66854 0.0432 0.0
O250 O 0.923 0.05065 0.28533 0.0
Cd251 Cd 0.90548 0.04935 0.2511 0.0
Cd252 Cd 0.86729 0.06181 0.27612 0.0
O253 O 0.89237 0.06057 0.30551 0.0
O254 O 0.93302 0.04762 0.22887 0.0
O255 O 0.91141 0.07804 0.22609 0.0
C256 C 0.92855 0.06771 0.21774 0.0
C257 C 0.85122 0.09846 0.26987 0.0
C258 C 0.91417 0.0553 0.30523 0.0
C259 C 0.85475 0.01241 0.25009 0.0
O260 O 0.8466 0.02743 0.26333 0.0
O261 O 0.87753 0.01784 0.2433 0.0
O262 O 0.8427 0.08165 0.28654 0.0
O263 O 0.86878 0.09429 0.25642 0.0
O264 O 0.28097 0.21589 0.49992 0.0
Cd265 Cd 0.26417 0.19018 0.52608 0.0
Cd266 Cd 0.28702 0.15884 0.50033 0.0
O267 O 0.29727 0.19084 0.47768 0.0
O268 O 0.24862 0.21249 0.54552 0.0
O269 O 0.27694 0.19203 0.56139 0.0
C270 C 0.26193 0.20717 0.56421 0.0
C271 C 0.31687 0.13803 0.51873 0.0
C272 C 0.29284 0.21252 0.48139 0.0
C273 C 0.23073 0.14301 0.504 0.0
O274 O 0.25048 0.13736 0.49618 0.0
O275 O 0.23245 0.16306 0.51585 0.0
O276 O 0.31054 0.13587 0.49585 0.0
O277 O 0.30686 0.15291 0.5311 0.0
O278 O 0.43059 0.53612 0.76645 0.0
Cd279 Cd 0.40877 0.54137 0.73598 0.0
Cd280 Cd 0.38301 0.56451 0.76956 0.0
O281 O 0.41254 0.55658 0.79193 0.0
O282 O 0.42909 0.53577 0.7083 0.0
O283 O 0.42041 0.57294 0.7153 0.0
C284 C 0.43177 0.55955 0.70253 0.0
C285 C 0.37006 0.60205 0.77706 0.0
C286 C 0.4294 0.54443 0.78752 0.0
C287 C 0.35371 0.51802 0.74277 0.0
O288 O 0.3539 0.535 0.75816 0.0
O289 O 0.37359 0.51729 0.73161 0.0
O290 O 0.36598 0.58284 0.79209 0.0
O291 O 0.38183 0.60022 0.75755 0.0
O292 O 0.73563 0.36004 0.48501 0.0
Cd293 Cd 0.75337 0.37629 0.51628 0.0
Cd294 Cd 0.73889 0.41858 0.49944 0.0
O295 O 0.72686 0.39573 0.46996 0.0
O296 O 0.75652 0.34882 0.54066 0.0
O297 O 0.73542 0.37864 0.54691 0.0
C298 C 0.74366 0.35902 0.55501 0.0
C299 C 0.71051 0.44127 0.51374 0.0
C300 C 0.72703 0.37243 0.46767 0.0
C301 C 0.79493 0.42202 0.50739 0.0
O302 O 0.77745 0.43414 0.50289 0.0
O303 O 0.78933 0.39836 0.51251 0.0
O304 O 0.72223 0.44799 0.49385 0.0
O305 O 0.71502 0.42159 0.52575 0.0
O306 O 0.65931 0.0249 0.77188 0.0
Cd307 Cd 0.63586 0.99233 0.78528 0.0
Cd308 Cd 0.59959 0.00835 0.75205 0.0
O309 O 0.63256 0.03419 0.74304 0.0
O310 O 0.65889 0.97249 0.80241 0.0
O311 O 0.63452 0.95881 0.77004 0.0
C312 C 0.65131 0.95517 0.78658 0.0
C313 C 0.57062 0.99609 0.71921 0.0
C314 C 0.65438 0.03868 0.75383 0.0
C315 C 0.59045 0.00538 0.80657 0.0
O316 O 0.58349 0.01122 0.78506 0.0
O317 O 0.61038 0.99673 0.81041 0.0
O318 O 0.57454 0.01843 0.7279 0.0
O319 O 0.58314 0.98033 0.72927 0.0
O320 O 0.99864 0.32454 0.93567 0.0
Cd321 Cd 0.99213 0.29063 0.91761 0.0
Cd322 Cd 0.00438 0.32387 0.87925 0.0
O323 O 0.00449 0.35143 0.90407 0.0
O324 O 0.99172 0.26427 0.94435 0.0
O325 O 0.01938 0.27079 0.91511 0.0
C326 C 0.01082 0.25843 0.93461 0.0
C327 C 0.0419 0.32056 0.86205 0.0
C328 C 0.00244 0.34714 0.92687 0.0
C329 C 0.95392 0.28761 0.87503 0.0
O330 O 0.96996 0.30503 0.86444 0.0
O331 O 0.95885 0.27967 0.89646 0.0
O332 O 0.02916 0.33677 0.85332 0.0
O333 O 0.03323 0.30644 0.8806 0.0
O334 O 0.48423 0.81267 0.42375 0.0
Cd335 Cd 0.48838 0.78145 0.40484 0.0
Cd336 Cd 0.5067 0.81699 0.37099 0.0
O337 O 0.50644 0.84127 0.39882 0.0
O338 O 0.48687 0.75276 0.42892 0.0
O339 O 0.52118 0.76948 0.40835 0.0
C340 C 0.51004 0.75281 0.42412 0.0
C341 C 0.54255 0.82273 0.34764 0.0
C342 C 0.49465 0.83563 0.41843 0.0
C343 C 0.45831 0.78018 0.3578 0.0
O344 O 0.47284 0.80148 0.35273 0.0
O345 O 0.4622 0.76791 0.37727 0.0
O346 O 0.52706 0.83778 0.34529 0.0
O347 O 0.53809 0.80458 0.36397 0.0
O348 O 0.97579 0.77377 0.68212 0.0
Cd349 Cd 0.00213 0.75583 0.66931 0.0
Cd350 Cd 0.99568 0.78204 0.6255 0.0
O351 O 0.96859 0.7918 0.64652 0.0
O352 O 0.018 0.74033 0.69759 0.0
O353 O 0.03982 0.76997 0.67305 0.0
C354 C 0.03959 0.754 0.69123 0.0
C355 C 0.01714 0.81509 0.60047 0.0
C356 C 0.96371 0.78732 0.66888 0.0
C357 C 0.98703 0.72519 0.62454 0.0
O358 O 0.99008 0.74588 0.61206 0.0
O359 O 0.98935 0.72536 0.64759 0.0
O360 O 0.99385 0.80387 0.59581 0.0
O361 O 0.02869 0.80732 0.61943 0.0
O362 O 0.46874 0.27301 0.17437 0.0
Cd363 Cd 0.5003 0.26328 0.16085 0.0
Cd364 Cd 0.48371 0.28304 0.11703 0.0
O365 O 0.45365 0.28367 0.13845 0.0
O366 O 0.52195 0.25646 0.18943 0.0
O367 O 0.53525 0.286 0.16097 0.0
C368 C 0.54015 0.27349 0.18049 0.0
C369 C 0.49416 0.31917 0.09162 0.0
C370 C 0.45137 0.2801 0.16127 0.0
C371 C 0.49262 0.23007 0.11751 0.0
O372 O 0.48852 0.24896 0.10469 0.0
O373 O 0.49594 0.23142 0.14047 0.0
O374 O 0.47426 0.30154 0.08732 0.0
O375 O 0.50902 0.3159 0.11002 0.0
H376 H 0.24282 0.78673 0.85606 0.0
H377 H 0.215 0.83287 0.79905 0.0
H378 H 0.21169 0.86428 0.82932 0.0
H379 H 0.2041 0.79801 0.9029 0.0
H380 H 0.2284 0.79984 0.92685 0.0
H381 H 0.22901 0.78091 0.90076 0.0
H382 H 0.2748 0.8058 0.89226 0.0
H383 H 0.27449 0.82452 0.91855 0.0
H384 H 0.28131 0.83995 0.88919 0.0
H385 H 0.20955 0.88969 0.86584 0.0
H386 H 0.21335 0.91005 0.90556 0.0
H387 H 0.2443 0.8484 0.93864 0.0
C388 C 0.23649 0.80366 0.84984 0.0
C389 C 0.22895 0.80719 0.82518 0.0
C390 C 0.22046 0.8295 0.8179 0.0
C391 C 0.21855 0.84749 0.83494 0.0
C392 C 0.22546 0.84306 0.85917 0.0
C393 C 0.23464 0.82193 0.86658 0.0
C394 C 0.24109 0.82195 0.89371 0.0
C395 C 0.22467 0.7988 0.90682 0.0
C396 C 0.26962 0.82314 0.89871 0.0
C397 C 0.23403 0.84636 0.90035 0.0
C398 C 0.22483 0.8581 0.88019 0.0
C399 C 0.21686 0.88077 0.88176 0.0
C400 C 0.21897 0.89211 0.90445 0.0
C401 C 0.22917 0.88088 0.92525 0.0
C402 C 0.23643 0.85749 0.92312 0.0
H403 H 0.01705 0.56305 0.41063 0.0
H404 H 0.07431 0.56293 0.46866 0.0
H405 H 0.09933 0.54341 0.44139 0.0
H406 H 0.02142 0.50326 0.38357 0.0
H407 H 0.01723 0.51516 0.35289 0.0
H408 H 0.00289 0.52696 0.37763 0.0
H409 H 0.02561 0.57303 0.36565 0.0
H410 H 0.03992 0.56138 0.34088 0.0
H411 H 0.0597 0.58077 0.36338 0.0
H412 H 0.11913 0.52632 0.40701 0.0
H413 H 0.13325 0.51487 0.36778 0.0
H414 H 0.06295 0.52662 0.33224 0.0
C415 C 0.03466 0.55853 0.41767 0.0
C416 C 0.04365 0.56405 0.4418 0.0
C417 C 0.06704 0.55844 0.45028 0.0
C418 C 0.08129 0.54735 0.43497 0.0
C419 C 0.07188 0.5421 0.41123 0.0
C420 C 0.04913 0.54756 0.40261 0.0
C421 C 0.04404 0.54159 0.37595 0.0
C422 C 0.01996 0.52048 0.37231 0.0
C423 C 0.04223 0.56562 0.36057 0.0
C424 C 0.06772 0.53241 0.37075 0.0
C425 C 0.08341 0.53256 0.39138 0.0
C426 C 0.10689 0.52591 0.39078 0.0
C427 C 0.11474 0.51942 0.3684 0.0
C428 C 0.09921 0.51978 0.34689 0.0
C429 C 0.0752 0.52593 0.34833 0.0
H430 H 0.77745 0.81552 0.87513 0.0
H431 H 0.80645 0.7669 0.82779 0.0
H432 H 0.81336 0.73956 0.86301 0.0
H433 H 0.8186 0.80972 0.92802 0.0
H434 H 0.79409 0.80821 0.94953 0.0
H435 H 0.79278 0.82533 0.92085 0.0
H436 H 0.74764 0.79827 0.91117 0.0
H437 H 0.74874 0.78121 0.93988 0.0
H438 H 0.74254 0.76413 0.91196 0.0
H439 H 0.81696 0.71708 0.90275 0.0
H440 H 0.8135 0.69854 0.94437 0.0
H441 H 0.77974 0.75966 0.9663 0.0
C442 C 0.78517 0.7991 0.87211 0.0
C443 C 0.79192 0.79385 0.84858 0.0
C444 C 0.80192 0.77202 0.84561 0.0
C445 C 0.80578 0.75617 0.86553 0.0
C446 C 0.79925 0.76208 0.88839 0.0
C447 C 0.78888 0.78279 0.89182 0.0
C448 C 0.78233 0.78395 0.91823 0.0
C449 C 0.79788 0.80825 0.92984 0.0
C450 C 0.7536 0.78175 0.92043 0.0
C451 C 0.7905 0.76054 0.92897 0.0
C452 C 0.80048 0.74844 0.91142 0.0
C453 C 0.80916 0.72634 0.91669 0.0
C454 C 0.80715 0.71599 0.94046 0.0
C455 C 0.79632 0.72757 0.95871 0.0
C456 C 0.78818 0.75036 0.95285 0.0
H457 H 0.99939 0.98731 0.39538 0.0
H458 H 0.97212 0.02309 0.45473 0.0
H459 H 0.95057 0.04771 0.42503 0.0
H460 H 0.00982 0.04352 0.35304 0.0
H461 H 0.99927 0.02446 0.32679 0.0
H462 H 0.01446 0.01151 0.35268 0.0
H463 H 0.97554 0.97366 0.35566 0.0
H464 H 0.96025 0.98649 0.32986 0.0
H465 H 0.94429 0.97982 0.35822 0.0
H466 H 0.92851 0.06498 0.38913 0.0
H467 H 0.90813 0.07417 0.34955 0.0
H468 H 0.95128 0.02846 0.31358 0.0
C469 C 0.98944 0.00084 0.40206 0.0
C470 C 0.98792 0.00383 0.4273 0.0
C471 C 0.97396 0.02099 0.43543 0.0
C472 C 0.96168 0.03503 0.41872 0.0
C473 C 0.96359 0.03169 0.39394 0.0
C474 C 0.97727 0.01516 0.38562 0.0
C475 C 0.97515 0.01399 0.35812 0.0
C476 C 0.00123 0.02397 0.347 0.0
C477 C 0.96308 0.98689 0.35 0.0
C478 C 0.95757 0.03189 0.35232 0.0
C479 C 0.9512 0.04201 0.37321 0.0
C480 C 0.9337 0.05754 0.37259 0.0
C481 C 0.92219 0.06262 0.35006 0.0
C482 C 0.92833 0.05228 0.32847 0.0
C483 C 0.9466 0.0371 0.32967 0.0
H484 H 0.20407 0.28966 0.65314 0.0
H485 H 0.23788 0.25353 0.71395 0.0
H486 H 0.25861 0.23118 0.68512 0.0
H487 H 0.18927 0.23626 0.61647 0.0
H488 H 0.19588 0.254 0.58817 0.0
H489 H 0.18582 0.2687 0.6136 0.0
H490 H 0.22612 0.30512 0.61131 0.0
H491 H 0.23629 0.29055 0.58579 0.0
H492 H 0.25708 0.29758 0.61244 0.0
H493 H 0.27399 0.21132 0.64905 0.0
H494 H 0.28127 0.19473 0.60924 0.0
H495 H 0.23629 0.24371 0.57292 0.0
C496 C 0.21627 0.27744 0.66037 0.0
C497 C 0.22001 0.27381 0.6857 0.0
C498 C 0.23536 0.25701 0.69454 0.0
C499 C 0.24713 0.24424 0.67833 0.0
C500 C 0.24312 0.24834 0.65338 0.0
C501 C 0.22801 0.26453 0.6445 0.0
C502 C 0.2254 0.2646 0.61702 0.0
C503 C 0.19744 0.25533 0.60832 0.0
C504 C 0.23692 0.29104 0.606 0.0
C505 C 0.2411 0.24566 0.61177 0.0
C506 C 0.2514 0.2366 0.63289 0.0
C507 C 0.26612 0.21841 0.6324 0.0
C508 C 0.27017 0.20911 0.60974 0.0
C509 C 0.25933 0.2179 0.58801 0.0
C510 C 0.24485 0.23658 0.58919 0.0
H511 H 0.52411 0.5601 0.59343 0.0
H512 H 0.54217 0.64243 0.59522 0.0
H513 H 0.51267 0.64042 0.6285 0.0
H514 H 0.45858 0.55055 0.6048 0.0
H515 H 0.4575 0.5226 0.62412 0.0
H516 H 0.48044 0.53035 0.60072 0.0
H517 H 0.5171 0.52985 0.63286 0.0
H518 H 0.49424 0.52175 0.65632 0.0
H519 H 0.51997 0.5493 0.65916 0.0
H520 H 0.47974 0.62949 0.66048 0.0
H521 H 0.44866 0.61022 0.69126 0.0
H522 H 0.45343 0.53514 0.66949 0.0
C523 C 0.52224 0.5777 0.60109 0.0
C524 C 0.53534 0.60143 0.59153 0.0
C525 C 0.53202 0.62402 0.60192 0.0
C526 C 0.51537 0.62309 0.6209 0.0
C527 C 0.50231 0.59942 0.62948 0.0
C528 C 0.50581 0.57713 0.62014 0.0
C529 C 0.48954 0.55416 0.63268 0.0
C530 C 0.47038 0.5385 0.61449 0.0
C531 C 0.50621 0.53781 0.64605 0.0
C532 C 0.47628 0.56702 0.65044 0.0
C533 C 0.48377 0.59314 0.64821 0.0
C534 C 0.47383 0.60905 0.66249 0.0
C535 C 0.45609 0.59795 0.67982 0.0
C536 C 0.44864 0.57121 0.6828 0.0
C537 C 0.45876 0.55565 0.6677 0.0
H538 H 0.76352 0.27048 0.67018 0.0
H539 H 0.73817 0.32358 0.71495 0.0
H540 H 0.72866 0.34787 0.67778 0.0
H541 H 0.79537 0.31651 0.62767 0.0
H542 H 0.78673 0.2964 0.60186 0.0
H543 H 0.78974 0.28248 0.63185 0.0
H544 H 0.74374 0.25549 0.62697 0.0
H545 H 0.74053 0.26947 0.59699 0.0
H546 H 0.71792 0.27107 0.61964 0.0
H547 H 0.72344 0.36711 0.6356 0.0
H548 H 0.72492 0.38095 0.59216 0.0
H549 H 0.75498 0.3157 0.57556 0.0
C550 C 0.75609 0.28729 0.6722 0.0
C551 C 0.75212 0.29556 0.69547 0.0
C552 C 0.74178 0.31727 0.69727 0.0
C553 C 0.73621 0.33106 0.6763 0.0
C554 C 0.7409 0.32272 0.65365 0.0
C555 C 0.75069 0.30138 0.65151 0.0
C556 C 0.7551 0.29703 0.62521 0.0
C557 C 0.78341 0.29818 0.62143 0.0
C558 C 0.73831 0.27176 0.61671 0.0
C559 C 0.74663 0.31948 0.61288 0.0
C560 C 0.73818 0.3339 0.62952 0.0
C561 C 0.72992 0.3559 0.6224 0.0
C562 C 0.73077 0.36357 0.59768 0.0
C563 C 0.74005 0.34941 0.58047 0.0
C564 C 0.74771 0.32691 0.58824 0.0
H565 H 0.47887 0.02294 0.60804 0.0
H566 H 0.45521 0.94132 0.60007 0.0
H567 H 0.48524 0.9348 0.63366 0.0
H568 H 0.54466 0.02569 0.62324 0.0
H569 H 0.54713 0.04985 0.64543 0.0
H570 H 0.52443 0.04817 0.62011 0.0
H571 H 0.48804 0.04504 0.64995 0.0
H572 H 0.51064 0.04683 0.67536 0.0
H573 H 0.4835 0.02051 0.67358 0.0
H574 H 0.51833 0.93718 0.66824 0.0
H575 H 0.55003 0.94843 0.70235 0.0
H576 H 0.54982 0.0281 0.68902 0.0
C577 C 0.47974 0.00365 0.61344 0.0
C578 C 0.46471 0.98268 0.60112 0.0
C579 C 0.46686 0.95779 0.60875 0.0
C580 C 0.48376 0.95385 0.62796 0.0
C581 C 0.49829 0.97494 0.6396 0.0
C582 C 0.49629 0.99934 0.63274 0.0
C583 C 0.51353 0.01874 0.64862 0.0
C584 C 0.53363 0.03666 0.63344 0.0
C585 C 0.49799 0.03365 0.66272 0.0
C586 C 0.52551 0.00144 0.66551 0.0
C587 C 0.51666 0.97625 0.65991 0.0
C588 C 0.52531 0.95685 0.67285 0.0
C589 C 0.54335 0.9634 0.69215 0.0
C590 C 0.55228 0.98909 0.69842 0.0
C591 C 0.54322 0.00826 0.6848 0.0
H592 H 0.85216 0.26672 0.76324 0.0
H593 H 0.80249 0.21213 0.80935 0.0
H594 H 0.83512 0.2197 0.84288 0.0
H595 H 0.91067 0.25106 0.78454 0.0
H596 H 0.92868 0.28341 0.78325 0.0
H597 H 0.90143 0.27362 0.76285 0.0
H598 H 0.88154 0.30932 0.77813 0.0
H599 H 0.90875 0.31926 0.79854 0.0
H600 H 0.87725 0.3112 0.81027 0.0
H601 H 0.87329 0.23318 0.87139 0.0
H602 H 0.91404 0.25176 0.89282 0.0
H603 H 0.93827 0.29816 0.82824 0.0
C604 C 0.84802 0.25652 0.78045 0.0
C605 C 0.82477 0.23876 0.78361 0.0
C606 C 0.8203 0.22556 0.80636 0.0
C607 C 0.83865 0.22983 0.82557 0.0
C608 C 0.86137 0.24742 0.82179 0.0
C609 C 0.86609 0.26059 0.79982 0.0
C610 C 0.89206 0.27843 0.80047 0.0
C611 C 0.90922 0.27119 0.78166 0.0
C612 C 0.88975 0.3062 0.79663 0.0
C613 C 0.9012 0.27325 0.82625 0.0
C614 C 0.88324 0.25529 0.83824 0.0
C615 C 0.88749 0.2473 0.8622 0.0
C616 C 0.91071 0.25797 0.87421 0.0
C617 C 0.92939 0.27647 0.86227 0.0
C618 C 0.92442 0.28413 0.83795 0.0
H619 H 0.418 0.91395 0.494 0.0
H620 H 0.48257 0.97761 0.48789 0.0
H621 H 0.50723 0.94983 0.47019 0.0
H622 H 0.45582 0.86442 0.50826 0.0
H623 H 0.434 0.84107 0.49062 0.0
H624 H 0.42256 0.86518 0.5056 0.0
H625 H 0.40343 0.8787 0.46437 0.0
H626 H 0.41488 0.85479 0.44927 0.0
H627 H 0.42372 0.88751 0.43888 0.0
H628 H 0.52249 0.9171 0.44806 0.0
H629 H 0.52831 0.88077 0.42483 0.0
H630 H 0.45479 0.83737 0.44687 0.0
C631 C 0.43757 0.92176 0.48953 0.0
C632 C 0.44854 0.94778 0.49249 0.0
C633 C 0.47396 0.95764 0.48596 0.0
C634 C 0.4881 0.94201 0.47593 0.0
C635 C 0.47659 0.91652 0.47278 0.0
C636 C 0.45202 0.90634 0.47966 0.0
C637 C 0.44359 0.87875 0.47282 0.0
C638 C 0.43871 0.86133 0.49569 0.0
C639 C 0.42002 0.87472 0.45529 0.0
C640 C 0.46691 0.87531 0.46022 0.0
C641 C 0.48577 0.89731 0.46053 0.0
C642 C 0.50813 0.89958 0.44816 0.0
C643 C 0.51122 0.87891 0.43494 0.0
C644 C 0.49216 0.85621 0.43436 0.0
C645 C 0.46994 0.85428 0.44753 0.0
H646 H 0.15508 0.35507 0.76998 0.0
H647 H 0.18319 0.29118 0.80159 0.0
H648 H 0.14791 0.2823 0.83007 0.0
H649 H 0.13502 0.3761 0.82585 0.0
H650 H 0.10718 0.38465 0.81159 0.0
H651 H 0.13493 0.38613 0.79417 0.0
H652 H 0.1076 0.3564 0.76249 0.0
H653 H 0.07978 0.35478 0.77982 0.0
H654 H 0.08908 0.326 0.7725 0.0
H655 H 0.10949 0.28057 0.85501 0.0
H656 H 0.07022 0.28526 0.87383 0.0
H657 H 0.06721 0.35009 0.82534 0.0
C658 C 0.15398 0.33939 0.7831 0.0
C659 C 0.17191 0.32387 0.78372 0.0
C660 C 0.16955 0.30321 0.80077 0.0
C661 C 0.14967 0.29811 0.81706 0.0
C662 C 0.1323 0.31379 0.81593 0.0
C663 C 0.13423 0.33397 0.79933 0.0
C664 C 0.11278 0.34756 0.80142 0.0
C665 C 0.1231 0.37525 0.8087 0.0
C666 C 0.09634 0.34608 0.77765 0.0
C667 C 0.09843 0.33189 0.82179 0.0
C668 C 0.11004 0.31257 0.83 0.0
C669 C 0.10024 0.29562 0.84873 0.0
C670 C 0.07794 0.29846 0.85931 0.0
C671 C 0.06563 0.31803 0.85104 0.0
C672 C 0.07612 0.33492 0.83205 0.0
H673 H 0.51962 0.63553 0.51303 0.0
H674 H 0.60083 0.65174 0.50228 0.0
H675 H 0.596 0.68572 0.47195 0.0
H676 H 0.49918 0.64832 0.45071 0.0
H677 H 0.47421 0.66264 0.46018 0.0
H678 H 0.48402 0.63821 0.47905 0.0
H679 H 0.49269 0.66839 0.51545 0.0
H680 H 0.48302 0.69293 0.49671 0.0
H681 H 0.51395 0.69907 0.51205 0.0
H682 H 0.58208 0.72002 0.44451 0.0
H683 H 0.56054 0.75093 0.4227 0.0
H684 H 0.4891 0.71246 0.45349 0.0
C685 C 0.53645 0.64615 0.50431 0.0
C686 C 0.56064 0.64105 0.51015 0.0
C687 C 0.58206 0.65515 0.49794 0.0
C688 C 0.57951 0.67456 0.48079 0.0
C689 C 0.55541 0.67951 0.476 0.0
C690 C 0.53427 0.66558 0.4874 0.0
C691 C 0.51067 0.67525 0.48014 0.0
C692 C 0.49086 0.65489 0.46672 0.0
C693 C 0.49944 0.68446 0.50241 0.0
C694 C 0.52181 0.69713 0.46314 0.0
C695 C 0.54758 0.69923 0.46073 0.0
C696 C 0.56189 0.71843 0.4462 0.0
C697 C 0.54951 0.73591 0.4339 0.0
C698 C 0.52316 0.73415 0.43644 0.0
C699 C 0.50927 0.71439 0.45119 0.0
H700 H 0.85229 0.78698 0.75912 0.0
H701 H 0.82756 0.84209 0.70976 0.0
H702 H 0.86525 0.84426 0.68508 0.0
H703 H 0.92106 0.81412 0.75608 0.0
H704 H 0.92895 0.78337 0.75727 0.0
H705 H 0.9012 0.7878 0.77201 0.0
H706 H 0.87314 0.75125 0.74739 0.0
H707 H 0.90075 0.74675 0.73258 0.0
H708 H 0.87373 0.75267 0.7146 0.0
H709 H 0.9034 0.83757 0.66408 0.0
H710 H 0.93993 0.82339 0.64856 0.0
H711 H 0.94024 0.77296 0.71207 0.0
C712 C 0.85503 0.79965 0.74322 0.0
C713 C 0.83701 0.81413 0.73601 0.0
C714 C 0.84114 0.83069 0.7153 0.0
C715 C 0.86247 0.83207 0.70128 0.0
C716 C 0.8796 0.81703 0.70849 0.0
C717 C 0.87623 0.80127 0.72907 0.0
C718 C 0.89684 0.78627 0.73225 0.0
C719 C 0.91297 0.79332 0.7558 0.0
C720 C 0.88543 0.75754 0.73166 0.0
C721 C 0.91198 0.7956 0.70992 0.0
C722 C 0.90182 0.81345 0.69655 0.0
C723 C 0.91172 0.82383 0.67454 0.0
C724 C 0.93243 0.81559 0.66584 0.0
C725 C 0.94304 0.79715 0.67914 0.0
C726 C 0.9328 0.78732 0.70162 0.0
H727 H 0.01966 0.92867 0.50405 0.0
H728 H 0.10221 0.94339 0.50806 0.0
H729 H 0.10017 0.90767 0.53798 0.0
H730 H 0.00911 0.9116 0.56564 0.0
H731 H 0.98136 0.8868 0.5595 0.0
H732 H 0.98947 0.91345 0.53844 0.0
H733 H 0.99001 0.88295 0.50337 0.0
H734 H 0.98167 0.85616 0.52427 0.0
H735 H 0.00972 0.86 0.50674 0.0
H736 H 0.08857 0.87102 0.56929 0.0
H737 H 0.06841 0.83522 0.59656 0.0
H738 H 0.99396 0.8436 0.56891 0.0
C739 C 0.03741 0.92419 0.51069 0.0
C740 C 0.06111 0.939 0.50356 0.0
C741 C 0.08378 0.93265 0.51343 0.0
C742 C 0.08282 0.91228 0.53035 0.0
C743 C 0.05907 0.89824 0.53703 0.0
C744 C 0.03681 0.9038 0.52722 0.0
C745 C 0.01365 0.88587 0.53713 0.0
C746 C 0.99746 0.9003 0.551 0.0
C747 C 0.99784 0.87032 0.51666 0.0
C748 C 0.0263 0.8694 0.55422 0.0
C749 C 0.0525 0.87685 0.55414 0.0
C750 C 0.06807 0.86487 0.56929 0.0
C751 C 0.05649 0.84465 0.58475 0.0
C752 C 0.02967 0.83652 0.58465 0.0
C753 C 0.01453 0.84914 0.56916 0.0
H754 H 0.18277 0.7915 0.74427 0.0
H755 H 0.17307 0.71389 0.77217 0.0
H756 H 0.13025 0.70325 0.75195 0.0
H757 H 0.12133 0.79831 0.75254 0.0
H758 H 0.11837 0.8168 0.72495 0.0
H759 H 0.14926 0.81777 0.73926 0.0
H760 H 0.16521 0.80417 0.69927 0.0
H761 H 0.13444 0.80351 0.68467 0.0
H762 H 0.14784 0.77577 0.68486 0.0
H763 H 0.08679 0.70276 0.73382 0.0
H764 H 0.04708 0.71069 0.71422 0.0
H765 H 0.08557 0.78811 0.69591 0.0
C766 C 0.1718 0.77214 0.7456 0.0
C767 C 0.18113 0.75343 0.75962 0.0
C768 C 0.16632 0.72834 0.76119 0.0
C769 C 0.14197 0.7222 0.74992 0.0
C770 C 0.13298 0.7413 0.73685 0.0
C771 C 0.14763 0.76563 0.73418 0.0
C772 C 0.13316 0.78282 0.71983 0.0
C773 C 0.13037 0.80524 0.73506 0.0
C774 C 0.14592 0.79211 0.69572 0.0
C775 C 0.10781 0.76454 0.71546 0.0
C776 C 0.10812 0.74073 0.72555 0.0
C777 C 0.08645 0.72116 0.72544 0.0
C778 C 0.06396 0.72592 0.71444 0.0
C779 C 0.06336 0.74996 0.70347 0.0
C780 C 0.08562 0.76947 0.7039 0.0
H781 H 0.99479 0.6307 0.51851 0.0
H782 H 0.96661 0.56884 0.56982 0.0
H783 H 0.96326 0.59974 0.60064 0.0
H784 H 0.03256 0.67278 0.5622 0.0
H785 H 0.02523 0.70107 0.54793 0.0
H786 H 0.02537 0.67404 0.52987 0.0
H787 H 0.97917 0.67356 0.51429 0.0
H788 H 0.97881 0.70046 0.53248 0.0
H789 H 0.95472 0.67166 0.53595 0.0
H790 H 0.96362 0.63684 0.62597 0.0
H791 H 0.96835 0.67829 0.64485 0.0
H792 H 0.99548 0.7165 0.57703 0.0
C793 C 0.98811 0.62374 0.5363 0.0
C794 C 0.98087 0.59743 0.54182 0.0
C795 C 0.97198 0.58894 0.56519 0.0
C796 C 0.97005 0.60632 0.5828 0.0
C797 C 0.977 0.6321 0.57671 0.0
C798 C 0.98589 0.64085 0.55408 0.0
C799 C 0.99212 0.66961 0.55235 0.0
C800 C 0.0205 0.67998 0.54783 0.0
C801 C 0.97519 0.67939 0.53259 0.0
C802 C 0.98553 0.6756 0.5776 0.0
C803 C 0.97684 0.65365 0.59131 0.0
C804 C 0.97029 0.65419 0.61542 0.0
C805 C 0.97305 0.67783 0.62597 0.0
C806 C 0.98216 0.70061 0.61238 0.0
C807 C 0.98815 0.69942 0.58777 0.0
H808 H 0.74631 0.88825 0.27024 0.0
H809 H 0.77227 0.8571 0.20704 0.0
H810 H 0.80421 0.89721 0.20088 0.0
H811 H 0.75222 0.9523 0.24467 0.0
H812 H 0.76231 0.96677 0.2735 0.0
H813 H 0.7415 0.9357 0.27266 0.0
H814 H 0.77342 0.91771 0.30112 0.0
H815 H 0.79431 0.94868 0.30205 0.0
H816 H 0.80595 0.92196 0.29254 0.0
H817 H 0.8345 0.94019 0.20292 0.0
H818 H 0.86029 0.98271 0.21252 0.0
H819 H 0.81228 0.98623 0.2728 0.0
C820 C 0.75831 0.88991 0.25477 0.0
C821 C 0.75663 0.86947 0.23904 0.0
C822 C 0.77333 0.87235 0.21949 0.0
C823 C 0.79139 0.89513 0.21574 0.0
C824 C 0.79235 0.91488 0.23156 0.0
C825 C 0.77614 0.91251 0.2506 0.0
C826 C 0.78117 0.93634 0.26525 0.0
C827 C 0.75791 0.9485 0.26393 0.0
C828 C 0.7892 0.93084 0.29181 0.0
C829 C 0.80303 0.95249 0.25168 0.0
C830 C 0.80924 0.93978 0.23232 0.0
C831 C 0.82963 0.95041 0.21787 0.0
C832 C 0.84418 0.97454 0.22349 0.0
C833 C 0.83815 0.98785 0.24329 0.0
C834 C 0.81709 0.97672 0.25732 0.0
H835 H 0.77558 0.20185 0.30705 0.0
H836 H 0.80187 0.24501 0.24147 0.0
H837 H 0.82394 0.21163 0.23081 0.0
H838 H 0.83189 0.17912 0.32141 0.0
H839 H 0.81531 0.14823 0.33224 0.0
H840 H 0.80114 0.17522 0.33435 0.0
H841 H 0.76095 0.15173 0.3102 0.0
H842 H 0.77496 0.12462 0.30809 0.0
H843 H 0.76423 0.13944 0.28082 0.0
H844 H 0.84424 0.17399 0.22803 0.0
H845 H 0.86042 0.1346 0.23291 0.0
H846 H 0.81989 0.11561 0.29981 0.0
C847 C 0.78568 0.20406 0.29027 0.0
C848 C 0.78656 0.22572 0.27476 0.0
C849 C 0.80056 0.22831 0.25332 0.0
C850 C 0.8132 0.20949 0.24717 0.0
C851 C 0.81173 0.18823 0.26272 0.0
C852 C 0.79825 0.18537 0.28378 0.0
C853 C 0.79989 0.16086 0.2975 0.0
C854 C 0.81283 0.16619 0.32287 0.0
C855 C 0.77343 0.14311 0.29924 0.0
C856 C 0.81651 0.15044 0.28093 0.0
C857 C 0.82321 0.16653 0.261 0.0
C858 C 0.83898 0.16117 0.2435 0.0
C859 C 0.84811 0.13878 0.24643 0.0
C860 C 0.84134 0.12194 0.26666 0.0
C861 C 0.82526 0.12795 0.28404 0.0
H862 H 0.44189 0.01145 0.98631 0.0
H863 H 0.42776 0.08572 0.96674 0.0
H864 H 0.38165 0.06697 0.96214 0.0
H865 H 0.39026 0.97379 0.94659 0.0
H866 H 0.38309 0.94848 0.96928 0.0
H867 H 0.41508 0.96718 0.9673 0.0
H868 H 0.41506 0.97779 0.01283 0.0
H869 H 0.38296 0.95955 0.01487 0.0
H870 H 0.39063 0.9924 0.02312 0.0
H871 H 0.33707 0.041 0.96383 0.0
H872 H 0.29707 0.00936 0.97027 0.0
H873 H 0.34042 0.95222 0.99001 0.0
C874 C 0.42912 0.02353 0.98019 0.0
C875 C 0.43822 0.04989 0.9765 0.0
C876 C 0.421 0.06541 0.96939 0.0
C877 C 0.39486 0.05494 0.96676 0.0
C878 C 0.38634 0.02897 0.97138 0.0
C879 C 0.40296 0.01342 0.97776 0.0
C880 C 0.38877 0.98657 0.98374 0.0
C881 C 0.39465 0.9679 0.96564 0.0
C882 C 0.39471 0.97863 0.01021 0.0
C883 C 0.3616 0.9896 0.98028 0.0
C884 C 0.3606 0.01411 0.97292 0.0
C885 C 0.3376 0.02166 0.96934 0.0
C886 C 0.31499 0.00358 0.97315 0.0
C887 C 0.31558 0.9783 0.98067 0.0
C888 C 0.33927 0.97136 0.98428 0.0
H889 H 0.26491 0.38563 0.32873 0.0
H890 H 0.23357 0.33782 0.26828 0.0
H891 H 0.203 0.36505 0.25809 0.0
H892 H 0.20554 0.39962 0.34651 0.0
H893 H 0.22002 0.43202 0.35366 0.0
H894 H 0.23847 0.40799 0.35683 0.0
H895 H 0.27181 0.43461 0.32823 0.0
H896 H 0.25344 0.45868 0.32493 0.0
H897 H 0.26168 0.44433 0.29831 0.0
H898 H 0.1761 0.39795 0.25431 0.0
H899 H 0.15614 0.43482 0.2563 0.0
H900 H 0.20614 0.46173 0.31845 0.0
C901 C 0.25138 0.38074 0.31355 0.0
C902 C 0.25149 0.35958 0.29934 0.0
C903 C 0.23383 0.35402 0.27932 0.0
C904 C 0.21636 0.36931 0.27347 0.0
C905 C 0.21688 0.39017 0.28773 0.0
C906 C 0.23399 0.39595 0.30731 0.0
C907 C 0.23133 0.42002 0.31909 0.0
C908 C 0.22336 0.41458 0.34559 0.0
C909 C 0.25603 0.44062 0.31754 0.0
C910 C 0.21013 0.42695 0.30303 0.0
C911 C 0.20188 0.4094 0.28518 0.0
C912 C 0.18242 0.41182 0.26822 0.0
C913 C 0.17118 0.43281 0.2695 0.0
C914 C 0.17962 0.4512 0.28746 0.0
C915 C 0.19931 0.44808 0.30443 0.0
H916 H 0.13169 0.01226 0.4781 0.0
H917 H 0.07153 0.05312 0.48304 0.0
H918 H 0.10368 0.09281 0.49025 0.0
H919 H 0.1739 0.04527 0.52442 0.0
H920 H 0.20235 0.04558 0.50843 0.0
H921 H 0.1746 0.02044 0.50371 0.0
H922 H 0.17522 0.03068 0.45725 0.0
H923 H 0.20296 0.05588 0.46184 0.0
H924 H 0.17489 0.06248 0.4462 0.0
H925 H 0.14211 0.12743 0.49848 0.0
H926 H 0.1845 0.15547 0.50518 0.0
H927 H 0.21987 0.09252 0.49304 0.0
C928 C 0.12537 0.02959 0.48079 0.0
C929 C 0.09922 0.02975 0.48009 0.0
C930 C 0.09153 0.05274 0.48338 0.0
C931 C 0.10961 0.0753 0.48755 0.0
C932 C 0.13526 0.07452 0.48812 0.0
C933 C 0.14317 0.05233 0.48465 0.0
C934 C 0.17192 0.05678 0.48578 0.0
C935 C 0.18123 0.04109 0.50684 0.0
C936 C 0.18182 0.05112 0.46131 0.0
C937 C 0.17893 0.0849 0.49067 0.0
C938 C 0.15749 0.09471 0.49208 0.0
C939 C 0.15906 0.12004 0.49724 0.0
C940 C 0.18321 0.13578 0.50107 0.0
C941 C 0.20546 0.1262 0.49949 0.0
C942 C 0.20321 0.10045 0.49408 0.0
H943 H 0.75647 0.16687 0.77516 0.0
H944 H 0.75298 0.18191 0.69695 0.0
H945 H 0.72405 0.1401 0.69164 0.0
H946 H 0.75647 0.09881 0.77099 0.0
H947 H 0.73776 0.09034 0.79758 0.0
H948 H 0.75908 0.12107 0.79503 0.0
H949 H 0.72169 0.14269 0.80152 0.0
H950 H 0.70024 0.11211 0.80393 0.0
H951 H 0.69361 0.13546 0.78167 0.0
H952 H 0.69188 0.09865 0.69541 0.0
H953 H 0.66161 0.05914 0.70779 0.0
H954 H 0.68965 0.06943 0.78275 0.0
C955 C 0.75027 0.16124 0.75679 0.0
C956 C 0.75698 0.17798 0.73652 0.0
C957 C 0.74777 0.16982 0.7129 0.0
C958 C 0.73149 0.14595 0.70964 0.0
C959 C 0.72499 0.13019 0.73008 0.0
C960 C 0.73443 0.13733 0.75315 0.0
C961 C 0.72412 0.11711 0.77218 0.0
C962 C 0.74564 0.10619 0.78468 0.0
C963 C 0.70902 0.12747 0.79092 0.0
C964 C 0.70686 0.09775 0.75629 0.0
C965 C 0.70754 0.10567 0.73206 0.0
C966 C 0.69158 0.09197 0.71424 0.0
C967 C 0.67442 0.06965 0.72142 0.0
C968 C 0.67366 0.06112 0.74611 0.0
C969 C 0.69033 0.07521 0.76365 0.0
H970 H 0.40385 0.03693 0.52131 0.0
H971 H 0.39696 0.03003 0.59981 0.0
H972 H 0.37408 0.06496 0.59792 0.0
H973 H 0.41106 0.10496 0.51472 0.0
H974 H 0.39197 0.10302 0.48675 0.0
H975 H 0.40978 0.07912 0.49463 0.0
H976 H 0.36851 0.04398 0.49073 0.0
H977 H 0.35062 0.06774 0.4827 0.0
H978 H 0.34151 0.04592 0.50805 0.0
H979 H 0.35015 0.09984 0.58693 0.0
H980 H 0.32539 0.12939 0.56768 0.0
H981 H 0.34618 0.11113 0.4964 0.0
C982 C 0.39746 0.04255 0.53818 0.0
C983 C 0.40232 0.03057 0.56073 0.0
C984 C 0.39392 0.03906 0.58232 0.0
C985 C 0.38078 0.05885 0.58142 0.0
C986 C 0.37611 0.06997 0.55881 0.0
C987 C 0.38411 0.06198 0.53759 0.0
C988 C 0.37552 0.07588 0.51543 0.0
C989 C 0.39845 0.09169 0.5021 0.0
C990 C 0.35799 0.05727 0.49822 0.0
C991 C 0.36106 0.09274 0.52742 0.0
C992 C 0.36188 0.08937 0.55247 0.0
C993 C 0.34947 0.10266 0.56733 0.0
C994 C 0.33552 0.11947 0.55624 0.0
C995 C 0.33384 0.12258 0.53054 0.0
C996 C 0.3471 0.10922 0.51609 0.0
H997 H 0.62242 0.54223 0.50107 0.0
H998 H 0.59219 0.51403 0.57093 0.0
H999 H 0.62201 0.48503 0.57476 0.0
H1000 H 0.62964 0.48339 0.47991 0.0
H1001 H 0.65887 0.49635 0.46489 0.0
H1002 H 0.63632 0.51584 0.4685 0.0
H1003 H 0.67124 0.54932 0.4904 0.0
H1004 H 0.69394 0.52995 0.48678 0.0
H1005 H 0.68856 0.53973 0.51666 0.0
H1006 H 0.65342 0.45723 0.5695 0.0
H1007 H 0.6848 0.4339 0.55629 0.0
H1008 H 0.69458 0.48085 0.48999 0.0
C1009 C 0.62227 0.53005 0.51722 0.0
C1010 C 0.60487 0.53 0.53559 0.0
C1011 C 0.60527 0.51405 0.5566 0.0
C1012 C 0.62213 0.49759 0.55891 0.0
C1013 C 0.63865 0.4976 0.54016 0.0
C1014 C 0.63897 0.51356 0.51981 0.0
C1015 C 0.6581 0.50946 0.50198 0.0
C1016 C 0.64494 0.50074 0.47737 0.0
C1017 C 0.67921 0.53355 0.49877 0.0
C1018 C 0.66819 0.48841 0.51526 0.0
C1019 C 0.65683 0.48187 0.53729 0.0
C1020 C 0.66259 0.46235 0.55237 0.0
C1021 C 0.68039 0.44917 0.5447 0.0
C1022 C 0.69222 0.45558 0.52215 0.0
C1023 C 0.68603 0.47557 0.5074 0.0
H1024 H 0.72579 0.27187 0.3645 0.0
H1025 H 0.7053 0.32793 0.31309 0.0
H1026 H 0.70279 0.35555 0.34686 0.0
H1027 H 0.68662 0.28121 0.41314 0.0
H1028 H 0.70988 0.27813 0.43707 0.0
H1029 H 0.70928 0.26188 0.409 0.0
H1030 H 0.75657 0.28355 0.40298 0.0
H1031 H 0.7574 0.29958 0.43118 0.0
H1032 H 0.76631 0.31768 0.40348 0.0
H1033 H 0.70217 0.37717 0.3856 0.0
H1034 H 0.7081 0.39376 0.42699 0.0
H1035 H 0.73077 0.32495 0.4538 0.0
C1036 C 0.72095 0.29002 0.36035 0.0
C1037 C 0.71523 0.29743 0.33612 0.0
C1038 C 0.70905 0.32143 0.33151 0.0
C1039 C 0.70765 0.33735 0.35057 0.0
C1040 C 0.71276 0.32923 0.37421 0.0
C1041 C 0.71966 0.30634 0.37922 0.0
C1042 C 0.72525 0.30283 0.40629 0.0
C1043 C 0.70664 0.27963 0.417 0.0
C1044 C 0.75303 0.3008 0.41127 0.0
C1045 C 0.72055 0.32739 0.41557 0.0
C1046 C 0.71308 0.34215 0.39674 0.0
C1047 C 0.70803 0.36582 0.40054 0.0
C1048 C 0.71139 0.37504 0.42417 0.0
C1049 C 0.71991 0.36071 0.44372 0.0
C1050 C 0.72405 0.33632 0.43933 0.0
H1051 H 0.57992 0.04453 0.94245 0.0
H1052 H 0.50946 0.06601 0.91964 0.0
H1053 H 0.51061 0.04704 0.87951 0.0
H1054 H 0.61 0.05992 0.88804 0.0
H1055 H 0.62594 0.03388 0.88919 0.0
H1056 H 0.61763 0.04588 0.91697 0.0
H1057 H 0.59248 0.00086 0.92951 0.0
H1058 H 0.60081 0.98868 0.90172 0.0
H1059 H 0.56788 0.98404 0.90911 0.0
H1060 H 0.5226 0.03084 0.8404 0.0
H1061 H 0.54364 0.01759 0.80579 0.0
H1062 H 0.60592 0.00598 0.85471 0.0
C1063 C 0.56452 0.04474 0.92912 0.0
C1064 C 0.5447 0.05681 0.93385 0.0
C1065 C 0.52483 0.05688 0.91612 0.0
C1066 C 0.52532 0.04612 0.8934 0.0
C1067 C 0.54562 0.03506 0.88894 0.0
C1068 C 0.56471 0.03405 0.90642 0.0
C1069 C 0.58532 0.02277 0.89655 0.0
C1070 C 0.61124 0.04175 0.89775 0.0
C1071 C 0.58669 0.99759 0.91002 0.0
C1072 C 0.57534 0.01844 0.87053 0.0
C1073 C 0.5523 0.02539 0.86653 0.0
C1074 C 0.5404 0.0249 0.84342 0.0
C1075 C 0.55254 0.01742 0.82386 0.0
C1076 C 0.57635 0.01056 0.82754 0.0
C1077 C 0.58754 0.01067 0.85132 0.0
H1078 H 0.29738 0.27126 0.34664 0.0
H1079 H 0.29455 0.34319 0.3775 0.0
H1080 H 0.29888 0.32455 0.41889 0.0
H1081 H 0.26083 0.23213 0.38998 0.0
H1082 H 0.27882 0.2077 0.39063 0.0
H1083 H 0.27757 0.22734 0.36359 0.0
H1084 H 0.32681 0.2402 0.36466 0.0
H1085 H 0.32822 0.22064 0.39183 0.0
H1086 H 0.34374 0.25382 0.39172 0.0
H1087 H 0.30047 0.29729 0.45673 0.0
H1088 H 0.29746 0.26309 0.48828 0.0
H1089 H 0.30048 0.20918 0.43272 0.0
C1090 C 0.29821 0.28329 0.36207 0.0
C1091 C 0.29576 0.30875 0.35882 0.0
C1092 C 0.29621 0.3236 0.37954 0.0
C1093 C 0.2989 0.31325 0.4031 0.0
C1094 C 0.30124 0.28807 0.40561 0.0
C1095 C 0.30093 0.27329 0.38565 0.0
C1096 C 0.30219 0.24632 0.39331 0.0
C1097 C 0.27844 0.22726 0.38382 0.0
C1098 C 0.32671 0.23988 0.38488 0.0
C1099 C 0.30266 0.24805 0.42075 0.0
C1100 C 0.30236 0.27237 0.42746 0.0
C1101 C 0.30104 0.27828 0.45171 0.0
C1102 C 0.29933 0.25871 0.4695 0.0
C1103 C 0.29896 0.23351 0.46299 0.0
C1104 C 0.30127 0.22833 0.43833 0.0
H1105 H 0.48993 0.54545 0.92296 0.0
H1106 H 0.54886 0.5126 0.89505 0.0
H1107 H 0.52838 0.51229 0.85388 0.0
H1108 H 0.43751 0.51155 0.88562 0.0
H1109 H 0.42282 0.53836 0.88118 0.0
H1110 H 0.44174 0.53521 0.90855 0.0
H1111 H 0.46995 0.57991 0.89994 0.0
H1112 H 0.45116 0.58317 0.87251 0.0
H1113 H 0.48509 0.58676 0.87116 0.0
H1114 H 0.50134 0.51549 0.81581 0.0
H1115 H 0.47057 0.5232 0.78331 0.0
H1116 H 0.42998 0.55518 0.83598 0.0
C1117 C 0.49831 0.53791 0.90819 0.0
C1118 C 0.52049 0.52835 0.91232 0.0
C1119 C 0.53146 0.51938 0.89246 0.0
C1120 C 0.52002 0.51923 0.86899 0.0
C1121 C 0.49793 0.52849 0.86565 0.0
C1122 C 0.48726 0.5378 0.88468 0.0
C1123 C 0.4639 0.54737 0.87612 0.0
C1124 C 0.44009 0.53221 0.88861 0.0
C1125 C 0.46777 0.576 0.88017 0.0
C1126 C 0.463 0.54188 0.8493 0.0
C1127 C 0.48275 0.53094 0.84363 0.0
C1128 C 0.48581 0.52408 0.82002 0.0
C1129 C 0.46821 0.52853 0.80169 0.0
C1130 C 0.44785 0.53984 0.80706 0.0
C1131 C 0.44534 0.54658 0.83123 0.0
H1132 H 0.75373 0.73283 0.20757 0.0
H1133 H 0.71829 0.79668 0.19297 0.0
H1134 H 0.73432 0.8014 0.15127 0.0
H1135 H 0.81022 0.75583 0.16779 0.0
H1136 H 0.80904 0.72406 0.15823 0.0
H1137 H 0.79946 0.7291 0.18828 0.0
H1138 H 0.75581 0.69868 0.17962 0.0
H1139 H 0.76517 0.69364 0.14964 0.0
H1140 H 0.73654 0.70484 0.15332 0.0
H1141 H 0.7469 0.79412 0.10963 0.0
H1142 H 0.7558 0.77601 0.07135 0.0
H1143 H 0.78388 0.71715 0.11266 0.0
C1144 C 0.75014 0.74832 0.19581 0.0
C1145 C 0.73503 0.76458 0.20344 0.0
C1146 C 0.73013 0.78429 0.18748 0.0
C1147 C 0.73917 0.78708 0.16381 0.0
C1148 C 0.75325 0.77014 0.15648 0.0
C1149 C 0.75896 0.75129 0.1721 0.0
C1150 C 0.77181 0.73374 0.15895 0.0
C1151 C 0.79927 0.73582 0.16891 0.0
C1152 C 0.7564 0.70611 0.16047 0.0
C1153 C 0.77124 0.74485 0.13323 0.0
C1154 C 0.76084 0.76609 0.13228 0.0
C1155 C 0.75569 0.77793 0.11021 0.0
C1156 C 0.76074 0.76748 0.08856 0.0
C1157 C 0.77088 0.74544 0.08911 0.0
C1158 C 0.77685 0.73446 0.11176 0.0
H1159 H 0.03348 0.07727 0.11871 0.0
H1160 H 0.98255 0.1078 0.06813 0.0
H1161 H 0.95343 0.10769 0.10113 0.0
H1162 H 0.98297 0.03378 0.14909 0.0
H1163 H 0.99943 0.03698 0.1785 0.0
H1164 H 0.01726 0.04123 0.15122 0.0
H1165 H 0.0412 0.08575 0.16515 0.0
H1166 H 0.02317 0.08178 0.19232 0.0
H1167 H 0.02331 0.10889 0.17207 0.0
H1168 H 0.9301 0.10534 0.13988 0.0
H1169 H 0.91113 0.09461 0.18008 0.0
H1170 H 0.97477 0.06154 0.20411 0.0
C1171 C 0.01612 0.08371 0.11439 0.0
C1172 C 0.01083 0.09316 0.09077 0.0
C1173 C 0.98774 0.10138 0.08617 0.0
C1174 C 0.97089 0.10125 0.10479 0.0
C1175 C 0.97701 0.09234 0.12789 0.0
C1176 C 0.99877 0.0832 0.13263 0.0
C1177 C 1.00002 0.0731 0.15866 0.0
C1178 C 0.9999 0.04458 0.1594 0.0
C1179 C 0.02331 0.0883 0.17288 0.0
C1180 C 0.97551 0.07793 0.16773 0.0
C1181 C 0.96276 0.08951 0.14984 0.0
C1182 C 0.93982 0.09614 0.15401 0.0
C1183 C 0.92928 0.09014 0.17692 0.0
C1184 C 0.94146 0.07721 0.19509 0.0
C1185 C 0.96502 0.07137 0.19048 0.0
H1186 H 0.30926 0.80789 0.14541 0.0
H1187 H 0.24357 0.8154 0.18447 0.0
H1188 H 0.22826 0.83763 0.14852 0.0
H1189 H 0.31976 0.86825 0.115 0.0
H1190 H 0.32901 0.85734 0.08698 0.0
H1191 H 0.33417 0.84115 0.1154 0.0
H1192 H 0.30845 0.79871 0.0982 0.0
H1193 H 0.30329 0.81476 0.06966 0.0
H1194 H 0.27654 0.79684 0.08587 0.0
H1195 H 0.22124 0.86079 0.10882 0.0
H1196 H 0.22252 0.88213 0.06807 0.0
H1197 H 0.29233 0.85844 0.0548 0.0
C1198 C 0.29146 0.81388 0.14619 0.0
C1199 C 0.27731 0.80954 0.16748 0.0
C1200 C 0.25444 0.81819 0.16814 0.0
C1201 C 0.24564 0.83086 0.14786 0.0
C1202 C 0.25998 0.83475 0.12708 0.0
C1203 C 0.28234 0.8264 0.12606 0.0
C1204 C 0.29444 0.83341 0.10175 0.0
C1205 C 0.32091 0.85109 0.10499 0.0
C1206 C 0.29574 0.8095 0.08806 0.0
C1207 C 0.27555 0.84723 0.08933 0.0
C1208 C 0.25581 0.84784 0.10422 0.0
C1209 C 0.2365 0.86026 0.09692 0.0
C1210 C 0.23741 0.87236 0.07377 0.0
C1211 C 0.25743 0.87184 0.0582 0.0
C1212 C 0.27663 0.85899 0.06617 0.0
H1213 H 0.98732 0.53967 0.12645 0.0
H1214 H 0.973 0.46075 0.10615 0.0
H1215 H 0.9974 0.45089 0.143 0.0
H1216 H 0.04933 0.54532 0.1492 0.0
H1217 H 0.04657 0.56502 0.17417 0.0
H1218 H 0.02678 0.56551 0.14696 0.0
H1219 H 0.98643 0.554 0.17248 0.0
H1220 H 0.00613 0.55366 0.19986 0.0
H1221 H 0.98158 0.52619 0.19245 0.0
H1222 H 0.02717 0.45074 0.18029 0.0
H1223 H 0.05699 0.45994 0.21621 0.0
H1224 H 0.04838 0.53796 0.21313 0.0
C1225 C 0.98863 0.52014 0.12997 0.0
C1226 C 0.97828 0.50108 0.11317 0.0
C1227 C 0.98112 0.47588 0.11841 0.0
C1228 C 0.99479 0.47001 0.13943 0.0
C1229 C 0.00514 0.48941 0.15529 0.0
C1230 C 0.00184 0.51388 0.15098 0.0
C1231 C 0.01535 0.53148 0.17048 0.0
C1232 C 0.03571 0.55309 0.15954 0.0
C1233 C 0.99623 0.54194 0.18466 0.0
C1234 C 0.02725 0.51325 0.18617 0.0
C1235 C 0.02125 0.48906 0.17716 0.0
C1236 C 0.03162 0.46951 0.18776 0.0
C1237 C 0.04856 0.47489 0.20808 0.0
C1238 C 0.05471 0.49954 0.21762 0.0
C1239 C 0.04366 0.51878 0.20658 0.0
H1240 H 0.34892 0.78203 0.25526 0.0
H1241 H 0.33727 0.69981 0.25485 0.0
H1242 H 0.37114 0.7014 0.28669 0.0
H1243 H 0.4182 0.79342 0.2624 0.0
H1244 H 0.42041 0.82033 0.28135 0.0
H1245 H 0.3949 0.81273 0.25866 0.0
H1246 H 0.36209 0.81084 0.29195 0.0
H1247 H 0.38747 0.81818 0.31479 0.0
H1248 H 0.36269 0.78993 0.31828 0.0
H1249 H 0.40422 0.7115 0.32047 0.0
H1250 H 0.4381 0.73002 0.35056 0.0
H1251 H 0.4313 0.8057 0.32618 0.0
C1252 C 0.3537 0.76435 0.26148 0.0
C1253 C 0.33994 0.74076 0.25272 0.0
C1254 C 0.34687 0.71811 0.26169 0.0
C1255 C 0.36626 0.71879 0.27968 0.0
C1256 C 0.37899 0.74228 0.28822 0.0
C1257 C 0.37336 0.76468 0.27911 0.0
C1258 C 0.3904 0.78744 0.29108 0.0
C1259 C 0.40696 0.80448 0.27225 0.0
C1260 C 0.37472 0.80248 0.30484 0.0
C1261 C 0.40626 0.77426 0.30852 0.0
C1262 C 0.39915 0.74819 0.30676 0.0
C1263 C 0.41021 0.7319 0.32181 0.0
C1264 C 0.4293 0.74256 0.33891 0.0
C1265 C 0.43738 0.76924 0.34051 0.0
C1266 C 0.42567 0.78524 0.3251 0.0
H1267 H 0.98159 0.48193 0.96466 0.0
H1268 H 0.00125 0.46168 0.03905 0.0
H1269 H 0.00976 0.42145 0.02529 0.0
H1270 H 0.94985 0.42034 0.94684 0.0
H1271 H 0.96162 0.42372 0.91649 0.0
H1272 H 0.95808 0.4513 0.93207 0.0
H1273 H 0.00551 0.47225 0.92584 0.0
H1274 H 0.00919 0.44472 0.91019 0.0
H1275 H 0.02969 0.45558 0.93625 0.0
H1276 H 0.01324 0.38236 0.00384 0.0
H1277 H 0.01336 0.34773 0.97591 0.0
H1278 H 0.99346 0.39428 0.91506 0.0
C1279 C 0.98796 0.46911 0.97796 0.0
C1280 C 0.99081 0.47479 0.00292 0.0
C1281 C 0.99898 0.45756 0.01987 0.0
C1282 C 0.00388 0.43475 0.01222 0.0
C1283 C 0.00075 0.4296 0.98749 0.0
C1284 C 0.9932 0.44637 0.97057 0.0
C1285 C 0.99089 0.43607 0.94515 0.0
C1286 C 0.96348 0.43265 0.93452 0.0
C1287 C 0.00996 0.45318 0.92837 0.0
C1288 C 0.99792 0.41071 0.95047 0.0
C1289 C 0.00349 0.40734 0.97502 0.0
C1290 C 0.00923 0.38489 0.98453 0.0
C1291 C 0.00918 0.36532 0.96855 0.0
C1292 C 0.00364 0.3684 0.94331 0.0
C1293 C 0.99818 0.39153 0.9342 0.0
H1294 H 0.67114 0.79736 0.29716 0.0
H1295 H 0.66445 0.85326 0.23964 0.0
H1296 H 0.62449 0.85872 0.25629 0.0
H1297 H 0.60293 0.76849 0.29886 0.0
H1298 H 0.60384 0.7635 0.33148 0.0
H1299 H 0.63153 0.76326 0.31453 0.0
H1300 H 0.65823 0.79831 0.34175 0.0
H1301 H 0.63058 0.79883 0.35863 0.0
H1302 H 0.64807 0.82766 0.34441 0.0
H1303 H 0.58689 0.85997 0.28004 0.0
H1304 H 0.55198 0.85513 0.30826 0.0
H1305 H 0.58179 0.79742 0.35006 0.0
C1306 C 0.66102 0.81041 0.28785 0.0
C1307 C 0.67101 0.82503 0.26719 0.0
C1308 C 0.65737 0.84216 0.2557 0.0
C1309 C 0.6346 0.84531 0.26494 0.0
C1310 C 0.62558 0.83105 0.2856 0.0
C1311 C 0.63816 0.81375 0.29681 0.0
C1312 C 0.62441 0.80114 0.31902 0.0
C1313 C 0.61512 0.77239 0.31577 0.0
C1314 C 0.64134 0.80683 0.34233 0.0
C1315 C 0.60232 0.81429 0.31863 0.0
C1316 C 0.60346 0.83148 0.29919 0.0
C1317 C 0.58564 0.84643 0.29523 0.0
C1318 C 0.56594 0.84359 0.31145 0.0
C1319 C 0.56411 0.82587 0.33135 0.0
C1320 C 0.58261 0.81106 0.33496 0.0
H1321 H 0.04308 0.1666 0.04155 0.0
H1322 H 0.05866 0.11763 0.98612 0.0
H1323 H 0.05576 0.15092 0.95479 0.0
H1324 H 0.99385 0.18488 0.00768 0.0
H1325 H 0.00019 0.21667 0.01883 0.0
H1326 H 0.00885 0.19153 0.03743 0.0
H1327 H 0.05548 0.21722 0.04094 0.0
H1328 H 0.04694 0.24255 0.02238 0.0
H1329 H 0.07228 0.22834 0.01366 0.0
H1330 H 0.04761 0.18854 0.92889 0.0
H1331 H 0.0317 0.22512 0.91075 0.0
H1332 H 0.01555 0.24572 0.98273 0.0
C1333 C 0.04596 0.16267 0.02289 0.0
C1334 C 0.05107 0.13923 0.01651 0.0
C1335 C 0.05523 0.13549 0.99176 0.0
C1336 C 0.05347 0.15429 0.97373 0.0
C1337 C 0.0473 0.17665 0.98065 0.0
C1338 C 0.04346 0.18079 0.00466 0.0
C1339 C 0.03397 0.20485 0.00714 0.0
C1340 C 0.00766 0.19913 0.01843 0.0
C1341 C 0.05333 0.2244 0.0219 0.0
C1342 C 0.03241 0.21332 0.98069 0.0
C1343 C 0.04086 0.19725 0.9657 0.0
C1344 C 0.04101 0.20125 0.94047 0.0
C1345 C 0.03197 0.22202 0.93034 0.0
C1346 C 0.02227 0.23798 0.94539 0.0
C1347 C 0.02272 0.23365 0.97084 0.0
H1348 H 0.35353 0.27932 0.26645 0.0
H1349 H 0.30617 0.30961 0.21235 0.0
H1350 H 0.33777 0.30937 0.18122 0.0
H1351 H 0.41371 0.31483 0.24523 0.0
H1352 H 0.42992 0.28932 0.25142 0.0
H1353 H 0.40354 0.29173 0.26936 0.0
H1354 H 0.38067 0.24585 0.25851 0.0
H1355 H 0.40699 0.24329 0.24057 0.0
H1356 H 0.37525 0.23758 0.22696 0.0
H1357 H 0.37397 0.30539 0.15616 0.0
H1358 H 0.41285 0.29859 0.13845 0.0
H1359 H 0.4373 0.27116 0.20899 0.0
C1360 C 0.34985 0.28572 0.24798 0.0
C1361 C 0.32731 0.29401 0.24152 0.0
C1362 C 0.32319 0.30279 0.21741 0.0
C1363 C 0.34101 0.30278 0.1997 0.0
C1364 C 0.36292 0.29417 0.20654 0.0
C1365 C 0.36747 0.28586 0.23009 0.0
C1366 C 0.39264 0.27775 0.23266 0.0
C1367 C 0.41104 0.29441 0.25074 0.0
C1368 C 0.38864 0.24944 0.24011 0.0
C1369 C 0.40148 0.28269 0.20682 0.0
C1370 C 0.38403 0.29216 0.1921 0.0
C1371 C 0.3878 0.29802 0.1675 0.0
C1372 C 0.40998 0.29405 0.15762 0.0
C1373 C 0.4282 0.28433 0.17231 0.0
C1374 C 0.42382 0.27866 0.19728 0.0
H1375 H 0.57331 0.44856 0.03213 0.0
H1376 H 0.5017 0.45919 0.99849 0.0
H1377 H 0.47948 0.41917 0.018 0.0
H1378 H 0.56175 0.38175 0.0278 0.0
H1379 H 0.57619 0.37624 0.05719 0.0
H1380 H 0.58682 0.40597 0.04081 0.0
H1381 H 0.57772 0.43045 0.07771 0.0
H1382 H 0.56727 0.4008 0.09431 0.0
H1383 H 0.54654 0.42273 0.09016 0.0
H1384 H 0.46534 0.37713 0.03882 0.0
H1385 H 0.45918 0.33712 0.06313 0.0
H1386 H 0.5391 0.35474 0.08615 0.0
C1387 C 0.5529 0.44274 0.02916 0.0
C1388 C 0.53937 0.45696 0.01342 0.0
C1389 C 0.51267 0.4484 0.0099 0.0
C1390 C 0.4998 0.42575 0.02106 0.0
C1391 C 0.51378 0.41202 0.03601 0.0
C1392 C 0.53965 0.4203 0.04043 0.0
C1393 C 0.55002 0.40193 0.05752 0.0
C1394 C 0.56987 0.39082 0.04508 0.0
C1395 C 0.56103 0.41474 0.08134 0.0
C1396 C 0.52594 0.38189 0.06177 0.0
C1397 C 0.50534 0.38808 0.04899 0.0
C1398 C 0.48124 0.37218 0.04912 0.0
C1399 C 0.47798 0.34943 0.06289 0.0
C1400 C 0.49864 0.34289 0.07658 0.0
C1401 C 0.52293 0.35938 0.07601 0.0
H1402 H 0.64452 0.25096 0.281 0.0
H1403 H 0.70215 0.28014 0.22864 0.0
H1404 H 0.66859 0.28704 0.19825 0.0
H1405 H 0.59649 0.21789 0.23726 0.0
H1406 H 0.57065 0.22521 0.25309 0.0
H1407 H 0.5993 0.22175 0.26976 0.0
H1408 H 0.60384 0.26657 0.28696 0.0
H1409 H 0.5755 0.27039 0.26996 0.0
H1410 H 0.60492 0.29345 0.26619 0.0
H1411 H 0.62852 0.29382 0.175 0.0
H1412 H 0.58501 0.29419 0.15867 0.0
H1413 H 0.55412 0.25909 0.22629 0.0
C1414 C 0.64996 0.25838 0.26297 0.0
C1415 C 0.67575 0.26496 0.25697 0.0
C1416 C 0.68237 0.27473 0.23334 0.0
C1417 C 0.66349 0.2789 0.21612 0.0
C1418 C 0.6382 0.2729 0.22287 0.0
C1419 C 0.63142 0.26236 0.24558 0.0
C1420 C 0.603 0.25742 0.2484 0.0
C1421 C 0.5917 0.22887 0.25235 0.0
C1422 C 0.59644 0.27289 0.2691 0.0
C1423 C 0.59477 0.26704 0.2238 0.0
C1424 C 0.61531 0.27616 0.20938 0.0
C1425 C 0.61229 0.28652 0.18606 0.0
C1426 C 0.58755 0.28686 0.17703 0.0
C1427 C 0.56624 0.27665 0.19122 0.0
C1428 C 0.57005 0.26697 0.215 0.0
H1429 H 0.47774 0.13417 0.00876 0.0
H1430 H 0.52054 0.0895 0.05407 0.0
H1431 H 0.52461 0.12046 0.08688 0.0
H1432 H 0.51405 0.19591 0.0275 0.0
H1433 H 0.48653 0.20974 0.02635 0.0
H1434 H 0.48769 0.18434 0.00652 0.0
H1435 H 0.44524 0.15839 0.02315 0.0
H1436 H 0.44406 0.1836 0.04319 0.0
H1437 H 0.44271 0.15191 0.05547 0.0
H1438 H 0.52143 0.15487 0.11545 0.0
H1439 H 0.51513 0.19246 0.13637 0.0
H1440 H 0.47573 0.21527 0.07144 0.0
C1441 C 0.48809 0.13103 0.02556 0.0
C1442 C 0.49879 0.10953 0.02906 0.0
C1443 C 0.51238 0.10603 0.05111 0.0
C1444 C 0.51464 0.12339 0.06982 0.0
C1445 C 0.50344 0.1442 0.06595 0.0
C1446 C 0.49076 0.14827 0.04423 0.0
C1447 C 0.48061 0.17219 0.04455 0.0
C1448 C 0.49297 0.1917 0.02508 0.0
C1449 C 0.45143 0.16615 0.04141 0.0
C1450 C 0.48932 0.18084 0.06996 0.0
C1451 C 0.50228 0.16435 0.08209 0.0
C1452 C 0.5115 0.16803 0.10607 0.0
C1453 C 0.5077 0.18935 0.11783 0.0
C1454 C 0.49502 0.20682 0.10549 0.0
C1455 C 0.48565 0.20235 0.08128 0.0
H1456 H 0.27565 0.3757 0.73452 0.0
H1457 H 0.20733 0.40353 0.74437 0.0
H1458 H 0.23248 0.44753 0.74191 0.0
H1459 H 0.3173 0.41955 0.76935 0.0
H1460 H 0.34381 0.42339 0.74977 0.0
H1461 H 0.32017 0.39412 0.75019 0.0
H1462 H 0.31221 0.39865 0.70354 0.0
H1463 H 0.336 0.42793 0.70292 0.0
H1464 H 0.30425 0.42728 0.69074 0.0
H1465 H 0.26576 0.48801 0.74358 0.0
H1466 H 0.30458 0.52234 0.74632 0.0
H1467 H 0.35052 0.46853 0.73191 0.0
C1468 C 0.26578 0.39099 0.73548 0.0
C1469 C 0.2395 0.38602 0.73988 0.0
C1470 C 0.22752 0.40673 0.74153 0.0
C1471 C 0.24159 0.43184 0.73991 0.0
C1472 C 0.26754 0.43599 0.73616 0.0
C1473 C 0.27946 0.41617 0.73356 0.0
C1474 C 0.30777 0.42576 0.73066 0.0
C1475 C 0.32315 0.41507 0.75122 0.0
C1476 C 0.31551 0.41954 0.70546 0.0
C1477 C 0.31003 0.45401 0.73285 0.0
C1478 C 0.2866 0.45953 0.73598 0.0
C1479 C 0.28415 0.48403 0.7406 0.0
C1480 C 0.30626 0.50336 0.74221 0.0
C1481 C 0.33042 0.49809 0.73896 0.0
C1482 C 0.33221 0.47318 0.73384 0.0
H1483 H 0.30427 0.71867 0.74546 0.0
H1484 H 0.29856 0.72536 0.8232 0.0
H1485 H 0.32224 0.69134 0.83111 0.0
H1486 H 0.29571 0.65178 0.74525 0.0
H1487 H 0.31839 0.65174 0.72224 0.0
H1488 H 0.30208 0.67736 0.72275 0.0
H1489 H 0.34536 0.70981 0.7248 0.0
H1490 H 0.36183 0.68424 0.72433 0.0
H1491 H 0.36859 0.70641 0.74867 0.0
H1492 H 0.34321 0.65456 0.83044 0.0
H1493 H 0.36197 0.61841 0.82145 0.0
H1494 H 0.35629 0.63678 0.74412 0.0
C1495 C 0.30815 0.71301 0.76413 0.0
C1496 C 0.29928 0.72426 0.78377 0.0
C1497 C 0.30494 0.71665 0.80796 0.0
C1498 C 0.31842 0.69746 0.81259 0.0
C1499 C 0.32651 0.68641 0.79283 0.0
C1500 C 0.32182 0.69403 0.76908 0.0
C1501 C 0.33226 0.67871 0.75116 0.0
C1502 C 0.31083 0.66403 0.73437 0.0
C1503 C 0.35326 0.69582 0.73637 0.0
C1504 C 0.34305 0.6609 0.76854 0.0
C1505 C 0.33952 0.66573 0.79249 0.0
C1506 C 0.34642 0.65083 0.81179 0.0
C1507 C 0.357 0.63032 0.8065 0.0
C1508 C 0.36081 0.625 0.78213 0.0
C1509 C 0.35406 0.64074 0.76294 0.0
H1510 H 0.91114 0.54165 0.49794 0.0
H1511 H 0.96158 0.48918 0.50167 0.0
H1512 H 0.92427 0.453 0.50175 0.0
H1513 H 0.86667 0.50776 0.53828 0.0
H1514 H 0.83923 0.51497 0.52196 0.0
H1515 H 0.86972 0.5366 0.5199 0.0
H1516 H 0.8666 0.53409 0.47284 0.0
H1517 H 0.83594 0.51264 0.47472 0.0
H1518 H 0.86096 0.50354 0.45905 0.0
H1519 H 0.88158 0.42287 0.50522 0.0
H1520 H 0.83662 0.40079 0.50875 0.0
H1521 H 0.81432 0.4733 0.50252 0.0
C1522 C 0.91431 0.52253 0.4985 0.0
C1523 C 0.93918 0.51813 0.49981 0.0
C1524 C 0.94264 0.4929 0.50039 0.0
C1525 C 0.9216 0.47228 0.50058 0.0
C1526 C 0.89732 0.47731 0.49996 0.0
C1527 C 0.89359 0.50182 0.49862 0.0
C1528 C 0.86565 0.50217 0.49891 0.0
C1529 C 0.86 0.5162 0.52108 0.0
C1530 C 0.85677 0.51379 0.47495 0.0
C1531 C 0.85422 0.47402 0.50112 0.0
C1532 C 0.87278 0.45999 0.50168 0.0
C1533 C 0.86687 0.43364 0.50454 0.0
C1534 C 0.84127 0.42129 0.50666 0.0
C1535 C 0.82192 0.4353 0.50585 0.0
C1536 C 0.82861 0.46202 0.50305 0.0
H1537 H 0.75013 0.87123 0.83084 0.0
H1538 H 0.72766 0.82794 0.76572 0.0
H1539 H 0.69332 0.85099 0.75656 0.0
H1540 H 0.68548 0.87768 0.84648 0.0
H1541 H 0.69709 0.9098 0.85617 0.0
H1542 H 0.71735 0.88736 0.85943 0.0
H1543 H 0.75162 0.91807 0.83473 0.0
H1544 H 0.73145 0.94049 0.83126 0.0
H1545 H 0.74324 0.92912 0.80471 0.0
H1546 H 0.66412 0.88133 0.75252 0.0
H1547 H 0.64288 0.91736 0.75338 0.0
H1548 H 0.6853 0.94183 0.8205 0.0
C1549 C 0.73745 0.86617 0.81507 0.0
C1550 C 0.74119 0.84766 0.79911 0.0
C1551 C 0.72485 0.84198 0.77821 0.0
C1552 C 0.70531 0.85491 0.77292 0.0
C1553 C 0.70245 0.87354 0.78868 0.0
C1554 C 0.71804 0.87915 0.80936 0.0
C1555 C 0.71249 0.90159 0.82203 0.0
C1556 C 0.7025 0.89362 0.84754 0.0
C1557 C 0.7361 0.92361 0.82324 0.0
C1558 C 0.69182 0.90808 0.80494 0.0
C1559 C 0.68603 0.89146 0.78602 0.0
C1560 C 0.6683 0.89431 0.7674 0.0
C1561 C 0.65634 0.91485 0.76802 0.0
C1562 C 0.66238 0.9324 0.787 0.0
C1563 C 0.68015 0.92869 0.8058 0.0
H1564 H 0.63526 0.53243 0.98267 0.0
H1565 H 0.58579 0.54629 0.03788 0.0
H1566 H 0.61985 0.58162 0.05317 0.0
H1567 H 0.69489 0.547 0.02098 0.0
H1568 H 0.71339 0.56134 0.99559 0.0
H1569 H 0.68582 0.53602 0.99063 0.0
H1570 H 0.66721 0.56482 0.95922 0.0
H1571 H 0.69452 0.5903 0.96428 0.0
H1572 H 0.66306 0.59529 0.96828 0.0
H1573 H 0.65734 0.6188 0.05855 0.0
H1574 H 0.6973 0.65181 0.05698 0.0
H1575 H 0.72301 0.61151 -3e-05 0.0
C1576 C 0.6319 0.5426 0.99832 0.0
C1577 C 0.60814 0.53678 0.00926 0.0
C1578 C 0.6041 0.55045 0.02954 0.0
C1579 C 0.62324 0.57054 0.03822 0.0
C1580 C 0.64635 0.57628 0.02663 0.0
C1581 C 0.65092 0.56235 0.00745 0.0
C1582 C 0.67707 0.57268 0.99774 0.0
C1583 C 0.69378 0.55309 0.00147 0.0
C1584 C 0.67534 0.58128 0.97079 0.0
C1585 C 0.68627 0.59506 0.01399 0.0
C1586 C 0.66826 0.59693 0.03046 0.0
C1587 C 0.67179 0.61723 0.04608 0.0
C1588 C 0.69442 0.63594 0.04496 0.0
C1589 C 0.71327 0.63399 0.02856 0.0
C1590 C 0.70911 0.6132 0.01301 0.0
H1591 H 0.27728 0.66741 0.23264 0.0
H1592 H 0.22481 0.71558 0.21111 0.0
H1593 H 0.1888 0.67884 0.21572 0.0
H1594 H 0.24178 0.60917 0.2056 0.0
H1595 H 0.24938 0.58937 0.23078 0.0
H1596 H 0.27122 0.61874 0.22315 0.0
H1597 H 0.27032 0.6336 0.26726 0.0
H1598 H 0.24853 0.6043 0.27503 0.0
H1599 H 0.24023 0.6342 0.27985 0.0
H1600 H 0.15844 0.63753 0.22467 0.0
H1601 H 0.13567 0.59524 0.23911 0.0
H1602 H 0.20786 0.57477 0.25763 0.0
C1603 C 0.25825 0.67038 0.2289 0.0
C1604 C 0.25401 0.69453 0.2214 0.0
C1605 C 0.22872 0.69727 0.2164 0.0
C1606 C 0.20808 0.67651 0.2191 0.0
C1607 C 0.21302 0.65316 0.22693 0.0
C1608 C 0.23746 0.65001 0.23186 0.0
C1609 C 0.23754 0.6234 0.24162 0.0
C1610 C 0.25076 0.60934 0.22424 0.0
C1611 C 0.24988 0.62392 0.26747 0.0
C1612 C 0.20925 0.61216 0.24178 0.0
C1613 C 0.19547 0.62954 0.23289 0.0
C1614 C 0.16901 0.62373 0.23159 0.0
C1615 C 0.15627 0.59961 0.23984 0.0
C1616 C 0.16997 0.58164 0.24956 0.0
C1617 C 0.19684 0.58803 0.25031 0.0
H1618 H 0.9002 0.53808 0.03606 0.0
H1619 H 0.95068 0.57805 0.0926 0.0
H1620 H 0.92636 0.61178 0.09055 0.0
H1621 H 0.89468 0.59395 0.00018 0.0
H1622 H 0.86183 0.58155 0.99124 0.0
H1623 H 0.88273 0.56018 0.99787 0.0
H1624 H 0.85188 0.53597 0.02994 0.0
H1625 H 0.8309 0.55728 0.02344 0.0
H1626 H 0.8428 0.55318 0.05419 0.0
H1627 H 0.8959 0.64123 0.0824 0.0
H1628 H 0.86285 0.66427 0.06778 0.0
H1629 H 0.83443 0.60594 0.01515 0.0
C1630 C 0.9064 0.55401 0.04787 0.0
C1631 C 0.92737 0.55521 0.06459 0.0
C1632 C 0.93443 0.57633 0.07995 0.0
C1633 C 0.92084 0.59573 0.07881 0.0
C1634 C 0.90033 0.5939 0.06208 0.0
C1635 C 0.89326 0.57363 0.0468 0.0
C1636 C 0.8708 0.5763 0.03013 0.0
C1637 C 0.87795 0.57811 0.00327 0.0
C1638 C 0.84773 0.55438 0.03471 0.0
C1639 C 0.8663 0.60124 0.03841 0.0
C1640 C 0.88339 0.61108 0.05695 0.0
C1641 C 0.8825 0.63376 0.06779 0.0
C1642 C 0.86368 0.6467 0.05941 0.0
C1643 C 0.84618 0.63701 0.04024 0.0
C1644 C 0.84766 0.614 0.02968 0.0
H1645 H 0.09936 0.03996 0.99929 0.0
H1646 H 0.08061 0.00724 0.07111 0.0
H1647 H 0.11359 0.98196 0.06907 0.0
H1648 H 0.10971 0.98381 0.97335 0.0
H1649 H 0.13582 0.00025 0.95546 0.0
H1650 H 0.11143 0.01624 0.96308 0.0
H1651 H 0.14562 0.05224 0.98255 0.0
H1652 H 0.17013 0.03641 0.97491 0.0
H1653 H 0.16736 0.04441 0.00602 0.0
H1654 H 0.14794 0.95935 0.05832 0.0
H1655 H 0.1815 0.94211 0.04032 0.0
H1656 H 0.17731 0.98984 0.97548 0.0
C1657 C 0.10229 0.02749 0.01457 0.0
C1658 C 0.08734 0.02519 0.03524 0.0
C1659 C 0.0918 0.00896 0.05504 0.0
C1660 C 0.11044 0.9946 0.05402 0.0
C1661 C 0.12455 0.99689 0.03313 0.0
C1662 C 0.12076 0.01303 0.01381 0.0
C1663 C 0.13822 0.01187 0.99337 0.0
C1664 C 0.12288 0.00248 0.96993 0.0
C1665 C 0.15641 0.03777 0.98897 0.0
C1666 C 0.15232 0.99243 0.00408 0.0
C1667 C 0.14424 0.98402 0.02704 0.0
C1668 C 0.15445 0.96587 0.04038 0.0
C1669 C 0.17348 0.95615 0.03 0.0
C1670 C 0.18205 0.96459 0.0065 0.0
C1671 C 0.17121 0.98296 0.99348 0.0
loop_
_geom_bond_atom_site_label_1
_geom_bond_atom_site_label_2
_geom_bond_distance
_geom_bond_site_symmetry_2
_ccdc_geom_bond_type
H0 C7 0.929 . S
H1 C10 0.930 . S
H2 C12 0.929 . S
H3 C4 0.969 . S
C4 H3 0.969 . S
C4 O5 1.550 . S
C4 H6 0.973 . S
O5 C4 1.550 . S
O5 C11 1.412 . S
H6 C4 0.973 . S
C7 H0 0.929 . S
C7 C8 1.400 . S
C7 C9 1.364 . S
C8 C7 1.400 . S
C8 C12 1.377 . S
C9 C7 1.364 . S
C9 C10 1.374 . S
C10 H1 0.930 . S
C10 C9 1.374 . S
C10 C11 1.383 . S
C11 O5 1.412 . S
C11 C10 1.383 . S
C11 C12 1.394 . S
C12 H2 0.929 . S
C12 C8 1.377 . S
C12 C11 1.394 . S
H13 C20 0.929 . S
H14 C23 0.930 . S
H15 C25 0.929 . S
H16 C17 0.969 . S
C17 H16 0.969 . S
C17 O18 1.550 . S
C17 H19 0.973 . S
O18 C17 1.550 . S
O18 C24 1.412 . S
H19 C17 0.973 . S
C20 H13 0.929 . S
C20 C21 1.400 . S
C20 C22 1.364 . S
C21 C20 1.400 . S
C21 C25 1.377 . S
C22 C20 1.364 . S
C22 C23 1.374 . S
C23 H14 0.930 . S
C23 C22 1.374 . S
C23 C24 1.383 . S
C24 O18 1.412 . S
C24 C23 1.383 . S
C24 C25 1.394 . S
C25 H15 0.929 . S
C25 C21 1.377 . S
C25 C24 1.394 . S
H26 C33 0.929 . S
H27 C36 0.930 . S
H28 C38 0.929 . S
H29 C30 0.969 . S
C30 H29 0.969 . S
C30 O31 1.550 . S
C30 H32 0.973 . S
O31 C30 1.550 . S
O31 C37 1.412 . S
H32 C30 0.973 . S
C33 H26 0.929 . S
C33 C34 1.400 . S
C33 C35 1.364 . S
C34 C33 1.400 . S
C34 C38 1.377 . S
C35 C33 1.364 . S
C35 C36 1.374 . S
C36 H27 0.930 . S
C36 C35 1.374 . S
C36 C37 1.383 . S
C37 O31 1.412 . S
C37 C36 1.383 . S
C37 C38 1.394 . S
C38 H28 0.929 . S
C38 C34 1.377 . S
C38 C37 1.394 . S
H39 C46 0.929 . S
H40 C49 0.930 . S
H41 C51 0.929 . S
H42 C43 0.969 . S
C43 H42 0.969 . S
C43 O44 1.550 . S
C43 H45 0.973 . S
O44 C43 1.550 . S
O44 C50 1.412 . S
H45 C43 0.973 . S
C46 H39 0.929 . S
C46 C47 1.400 . S
C46 C48 1.364 . S
C47 C46 1.400 . S
C47 C51 1.377 . S
C48 C46 1.364 . S
C48 C49 1.374 . S
C49 H40 0.930 . S
C49 C48 1.374 . S
C49 C50 1.383 . S
C50 O44 1.412 . S
C50 C49 1.383 . S
C50 C51 1.394 . S
C51 H41 0.929 . S
C51 C47 1.377 . S
C51 C50 1.394 . S
H52 C59 0.929 . S
H53 C62 0.930 . S
H54 C64 0.929 1_545 S
H55 C56 0.969 . S
C56 H55 0.969 . S
C56 O57 1.550 . S
C56 H58 0.973 . S
O57 C56 1.550 . S
O57 C63 1.412 . S
H58 C56 0.973 . S
C59 H52 0.929 . S
C59 C60 1.400 . S
C59 C61 1.364 . S
C60 C59 1.400 . S
C60 C64 1.377 . S
C61 C59 1.364 . S
C61 C62 1.374 . S
C62 H53 0.930 . S
C62 C61 1.374 . S
C62 C63 1.383 . S
C63 O57 1.412 . S
C63 C62 1.383 . S
C63 C64 1.394 . S
C64 H54 0.929 1_565 S
C64 C60 1.377 . S
C64 C63 1.394 . S
H65 C72 0.929 . S
H66 C75 0.930 . S
H67 C77 0.929 . S
H68 C69 0.969 . S
C69 H68 0.969 . S
C69 O70 1.550 . S
C69 H71 0.973 . S
O70 C69 1.550 . S
O70 C76 1.412 . S
H71 C69 0.973 . S
C72 H65 0.929 . S
C72 C73 1.400 . S
C72 C74 1.364 . S
C73 C72 1.400 . S
C73 C77 1.377 . S
C74 C72 1.364 . S
C74 C75 1.374 . S
C75 H66 0.930 . S
C75 C74 1.374 . S
C75 C76 1.383 . S
C76 O70 1.412 . S
C76 C75 1.383 . S
C76 C77 1.394 . S
C77 H67 0.929 . S
C77 C73 1.377 . S
C77 C76 1.394 . S
H78 C85 0.929 . S
H79 C88 0.930 . S
H80 C90 0.929 . S
H81 C82 0.969 . S
C82 H81 0.969 . S
C82 O83 1.550 . S
C82 H84 0.973 . S
O83 C82 1.550 . S
O83 C89 1.412 . S
H84 C82 0.973 . S
C85 H78 0.929 . S
C85 C86 1.400 . S
C85 C87 1.364 . S
C86 C85 1.400 . S
C86 C90 1.377 . S
C87 C85 1.364 . S
C87 C88 1.374 . S
C88 H79 0.930 . S
C88 C87 1.374 . S
C88 C89 1.383 . S
C89 O83 1.412 . S
C89 C88 1.383 . S
C89 C90 1.394 . S
C90 H80 0.929 . S
C90 C86 1.377 . S
C90 C89 1.394 . S
H91 C98 0.929 . S
H92 C101 0.930 . S
H93 C103 0.929 . S
H94 C95 0.969 . S
C95 H94 0.969 . S
C95 O96 1.550 . S
C95 H97 0.973 . S
O96 C95 1.550 . S
O96 C102 1.412 . S
H97 C95 0.973 . S
C98 H91 0.929 . S
C98 C99 1.400 . S
C98 C100 1.364 . S
C99 C98 1.400 . S
C99 C103 1.377 . S
C100 C98 1.364 . S
C100 C101 1.374 . S
C101 H92 0.930 . S
C101 C100 1.374 . S
C101 C102 1.383 . S
C102 O96 1.412 . S
C102 C101 1.383 . S
C102 C103 1.394 . S
C103 H93 0.929 . S
C103 C99 1.377 . S
C103 C102 1.394 . S
H104 C111 0.929 . S
H105 C114 0.930 . S
H106 C116 0.929 . S
H107 C108 0.969 . S
C108 H107 0.969 . S
C108 O109 1.550 . S
C108 H110 0.973 . S
O109 C108 1.550 . S
O109 C115 1.412 . S
H110 C108 0.973 . S
C111 H104 0.929 . S
C111 C112 1.400 . S
C111 C113 1.364 . S
C112 C111 1.400 . S
C112 C116 1.377 . S
C113 C111 1.364 . S
C113 C114 1.374 . S
C114 H105 0.930 . S
C114 C113 1.374 . S
C114 C115 1.383 . S
C115 O109 1.412 . S
C115 C114 1.383 . S
C115 C116 1.394 . S
C116 H106 0.929 . S
C116 C112 1.377 . S
C116 C115 1.394 . S
H117 C124 0.929 . S
H118 C127 0.930 . S
H119 C129 0.929 . S
H120 C121 0.969 . S
C121 H120 0.969 . S
C121 O122 1.550 . S
C121 H123 0.973 . S
O122 C121 1.550 . S
O122 C128 1.412 . S
H123 C121 0.973 . S
C124 H117 0.929 . S
C124 C125 1.400 . S
C124 C126 1.364 . S
C125 C124 1.400 . S
C125 C129 1.377 . S
C126 C124 1.364 . S
C126 C127 1.374 . S
C127 H118 0.930 . S
C127 C126 1.374 . S
C127 C128 1.383 . S
C128 O122 1.412 . S
C128 C127 1.383 . S
C128 C129 1.394 . S
C129 H119 0.929 . S
C129 C125 1.377 . S
C129 C128 1.394 . S
H130 C137 0.929 . S
H131 C140 0.930 . S
H132 C142 0.929 . S
H133 C134 0.969 . S
C134 H133 0.969 . S
C134 O135 1.550 . S
C134 H136 0.973 . S
O135 C134 1.550 . S
O135 C141 1.412 . S
H136 C134 0.973 . S
C137 H130 0.929 . S
C137 C138 1.400 . S
C137 C139 1.364 . S
C138 C137 1.400 . S
C138 C142 1.377 . S
C139 C137 1.364 . S
C139 C140 1.374 . S
C140 H131 0.930 . S
C140 C139 1.374 . S
C140 C141 1.383 . S
C141 O135 1.412 . S
C141 C140 1.383 . S
C141 C142 1.394 . S
C142 H132 0.929 . S
C142 C138 1.377 . S
C142 C141 1.394 . S
H143 C150 0.929 . S
H144 C153 0.930 . S
H145 C155 0.929 . S
H146 C147 0.969 . S
C147 H146 0.969 . S
C147 O148 1.550 . S
C147 H149 0.973 . S
O148 C147 1.550 . S
O148 C154 1.412 . S
H149 C147 0.973 . S
C150 H143 0.929 . S
C150 C151 1.400 . S
C150 C152 1.364 . S
C151 C150 1.400 . S
C151 C155 1.377 . S
C152 C150 1.364 . S
C152 C153 1.374 . S
C153 H144 0.930 . S
C153 C152 1.374 . S
C153 C154 1.383 . S
C154 O148 1.412 . S
C154 C153 1.383 . S
C154 C155 1.394 . S
C155 H145 0.929 . S
C155 C151 1.377 . S
C155 C154 1.394 . S
H156 C163 0.929 . S
H157 C166 0.930 . S
H158 C168 0.929 . S
H159 C160 0.969 . S
C160 H159 0.969 . S
C160 O161 1.550 . S
C160 H162 0.973 . S
O161 C160 1.550 . S
O161 C167 1.412 . S
H162 C160 0.973 . S
C163 H156 0.929 . S
C163 C164 1.400 . S
C163 C165 1.364 . S
C164 C163 1.400 . S
C164 C168 1.377 . S
C165 C163 1.364 . S
C165 C166 1.374 . S
C166 H157 0.930 . S
C166 C165 1.374 . S
C166 C167 1.383 . S
C167 O161 1.412 . S
C167 C166 1.383 . S
C167 C168 1.394 . S
C168 H158 0.929 . S
C168 C164 1.377 . S
C168 C167 1.394 . S
H169 C176 0.929 . S
H170 C179 0.930 . S
H171 C181 0.929 . S
H172 C173 0.969 . S
C173 H172 0.969 . S
C173 O174 1.550 . S
C173 H175 0.973 . S
O174 C173 1.550 . S
O174 C180 1.412 . S
H175 C173 0.973 . S
C176 H169 0.929 . S
C176 C177 1.400 . S
C176 C178 1.364 . S
C177 C176 1.400 . S
C177 C181 1.377 . S
C178 C176 1.364 . S
C178 C179 1.374 . S
C179 H170 0.930 . S
C179 C178 1.374 . S
C179 C180 1.383 . S
C180 O174 1.412 . S
C180 C179 1.383 . S
C180 C181 1.394 . S
C181 H171 0.929 . S
C181 C177 1.377 . S
C181 C180 1.394 . S
H182 C189 0.929 . S
H183 C192 0.930 . S
H184 C194 0.929 . S
H185 C186 0.969 . S
C186 H185 0.969 . S
C186 O187 1.550 . S
C186 H188 0.973 . S
O187 C186 1.550 . S
O187 C193 1.412 . S
H188 C186 0.973 . S
C189 H182 0.929 . S
C189 C190 1.400 . S
C189 C191 1.364 . S
C190 C189 1.400 . S
C190 C194 1.377 . S
C191 C189 1.364 . S
C191 C192 1.374 . S
C192 H183 0.930 . S
C192 C191 1.374 . S
C192 C193 1.383 . S
C193 O187 1.412 . S
C193 C192 1.383 . S
C193 C194 1.394 . S
C194 H184 0.929 . S
C194 C190 1.377 . S
C194 C193 1.394 . S
H195 C202 0.929 . S
H196 C205 0.930 . S
H197 C207 0.929 . S
H198 C199 0.969 . S
C199 H198 0.969 . S
C199 O200 1.550 . S
C199 H201 0.973 . S
O200 C199 1.550 . S
O200 C206 1.412 . S
H201 C199 0.973 . S
C202 H195 0.929 . S
C202 C203 1.400 . S
C202 C204 1.364 . S
C203 C202 1.400 . S
C203 C207 1.377 . S
C204 C202 1.364 . S
C204 C205 1.374 . S
C205 H196 0.930 . S
C205 C204 1.374 . S
C205 C206 1.383 . S
C206 O200 1.412 . S
C206 C205 1.383 . S
C206 C207 1.394 . S
C207 H197 0.929 . S
C207 C203 1.377 . S
C207 C206 1.394 . S
O208 Cd209 2.223 1_556 S
O208 C216 1.315 . S
Cd209 O208 2.223 1_554 S
Cd209 O212 2.297 . S
Cd209 O213 2.439 . S
Cd209 O219 2.240 . S
Cd210 O211 2.240 . S
Cd210 O218 2.223 1_554 S
Cd210 O220 2.297 . S
Cd210 O221 2.439 . S
O211 Cd210 2.240 . S
O211 C216 1.279 1_554 S
O212 Cd209 2.297 . S
O212 C214 1.247 . S
O213 Cd209 2.439 . S
O213 C214 1.208 . S
C214 O212 1.247 . S
C214 O213 1.208 . S
C215 O220 1.247 . S
C215 O221 1.208 . S
C216 O208 1.315 . S
C216 O211 1.279 1_556 S
C217 O218 1.315 . S
C217 O219 1.279 1_556 S
O218 Cd210 2.223 1_556 S
O218 C217 1.315 . S
O219 Cd209 2.240 . S
O219 C217 1.279 1_554 S
O220 Cd210 2.297 . S
O220 C215 1.247 . S
O221 Cd210 2.439 . S
O221 C215 1.208 . S
O222 Cd223 2.223 . S
O222 C230 1.315 . S
Cd223 O222 2.223 . S
Cd223 O226 2.297 . S
Cd223 O227 2.439 . S
Cd223 O233 2.240 . S
Cd224 O225 2.240 . S
Cd224 O232 2.223 . S
Cd224 O234 2.297 . S
Cd224 O235 2.439 . S
O225 Cd224 2.240 . S
O225 C230 1.279 . S
O226 Cd223 2.297 . S
O226 C228 1.247 . S
O227 Cd223 2.439 . S
O227 C228 1.208 . S
C228 O226 1.247 . S
C228 O227 1.208 . S
C229 O234 1.247 . S
C229 O235 1.208 . S
C230 O222 1.315 . S
C230 O225 1.279 . S
C231 O232 1.315 . S
C231 O233 1.279 . S
O232 Cd224 2.223 . S
O232 C231 1.315 . S
O233 Cd223 2.240 . S
O233 C231 1.279 . S
O234 Cd224 2.297 . S
O234 C229 1.247 . S
O235 Cd224 2.439 . S
O235 C229 1.208 . S
O236 Cd237 2.223 1_556 S
O236 C244 1.315 . S
Cd237 O236 2.223 1_554 S
Cd237 O240 2.297 . S
Cd237 O241 2.439 . S
Cd237 O247 2.240 . S
Cd238 O239 2.240 . S
Cd238 O246 2.223 1_554 S
Cd238 O248 2.297 . S
Cd238 O249 2.439 . S
O239 Cd238 2.240 . S
O239 C244 1.279 1_554 S
O240 Cd237 2.297 . S
O240 C242 1.247 . S
O241 Cd237 2.439 . S
O241 C242 1.208 . S
C242 O240 1.247 . S
C242 O241 1.208 . S
C243 O248 1.247 . S
C243 O249 1.208 . S
C244 O236 1.315 . S
C244 O239 1.279 1_556 S
C245 O246 1.315 . S
C245 O247 1.279 1_556 S
O246 Cd238 2.223 1_556 S
O246 C245 1.315 . S
O247 Cd237 2.240 . S
O247 C245 1.279 1_554 S
O248 Cd238 2.297 . S
O248 C243 1.247 . S
O249 Cd238 2.439 . S
O249 C243 1.208 . S
O250 Cd251 2.223 . S
O250 C258 1.315 . S
Cd251 O250 2.223 . S
Cd251 O254 2.297 . S
Cd251 O255 2.439 . S
Cd251 O261 2.240 . S
Cd252 O253 2.240 . S
Cd252 O260 2.223 . S
Cd252 O262 2.297 . S
Cd252 O263 2.439 . S
O253 Cd252 2.240 . S
O253 C258 1.279 . S
O254 Cd251 2.297 . S
O254 C256 1.247 . S
O255 Cd251 2.439 . S
O255 C256 1.208 . S
C256 O254 1.247 . S
C256 O255 1.208 . S
C257 O262 1.247 . S
C257 O263 1.208 . S
C258 O250 1.315 . S
C258 O253 1.279 . S
C259 O260 1.315 . S
C259 O261 1.279 . S
O260 Cd252 2.223 . S
O260 C259 1.315 . S
O261 Cd251 2.240 . S
O261 C259 1.279 . S
O262 Cd252 2.297 . S
O262 C257 1.247 . S
O263 Cd252 2.439 . S
O263 C257 1.208 . S
O264 Cd265 2.223 . S
O264 C272 1.315 . S
Cd265 O264 2.223 . S
Cd265 O268 2.297 . S
Cd265 O269 2.439 . S
Cd265 O275 2.240 . S
Cd266 O267 2.240 . S
Cd266 O274 2.223 . S
Cd266 O276 2.297 . S
Cd266 O277 2.439 . S
O267 Cd266 2.240 . S
O267 C272 1.279 . S
O268 Cd265 2.297 . S
O268 C270 1.247 . S
O269 Cd265 2.439 . S
O269 C270 1.208 . S
C270 O268 1.247 . S
C270 O269 1.208 . S
C271 O276 1.247 . S
C271 O277 1.208 . S
C272 O264 1.315 . S
C272 O267 1.279 . S
C273 O274 1.315 . S
C273 O275 1.279 . S
O274 Cd266 2.223 . S
O274 C273 1.315 . S
O275 Cd265 2.240 . S
O275 C273 1.279 . S
O276 Cd266 2.297 . S
O276 C271 1.247 . S
O277 Cd266 2.439 . S
O277 C271 1.208 . S
O278 Cd279 2.223 . S
O278 C286 1.315 . S
Cd279 O278 2.223 . S
Cd279 O282 2.297 . S
Cd279 O283 2.439 . S
Cd279 O289 2.240 . S
Cd280 O281 2.240 . S
Cd280 O288 2.223 . S
Cd280 O290 2.297 . S
Cd280 O291 2.439 . S
O281 Cd280 2.240 . S
O281 C286 1.279 . S
O282 Cd279 2.297 . S
O282 C284 1.247 . S
O283 Cd279 2.439 . S
O283 C284 1.208 . S
C284 O282 1.247 . S
C284 O283 1.208 . S
C285 O290 1.247 . S
C285 O291 1.208 . S
C286 O278 1.315 . S
C286 O281 1.279 . S
C287 O288 1.315 . S
C287 O289 1.279 . S
O288 Cd280 2.223 . S
O288 C287 1.315 . S
O289 Cd279 2.240 . S
O289 C287 1.279 . S
O290 Cd280 2.297 . S
O290 C285 1.247 . S
O291 Cd280 2.439 . S
O291 C285 1.208 . S
O292 Cd293 2.223 . S
O292 C300 1.315 . S
Cd293 O292 2.223 . S
Cd293 O296 2.297 . S
Cd293 O297 2.439 . S
Cd293 O303 2.240 . S
Cd294 O295 2.240 . S
Cd294 O302 2.223 . S
Cd294 O304 2.297 . S
Cd294 O305 2.439 . S
O295 Cd294 2.240 . S
O295 C300 1.279 . S
O296 Cd293 2.297 . S
O296 C298 1.247 . S
O297 Cd293 2.439 . S
O297 C298 1.208 . S
C298 O296 1.247 . S
C298 O297 1.208 . S
C299 O304 1.247 . S
C299 O305 1.208 . S
C300 O292 1.315 . S
C300 O295 1.279 . S
C301 O302 1.315 . S
C301 O303 1.279 . S
O302 Cd294 2.223 . S
O302 C301 1.315 . S
O303 Cd293 2.240 . S
O303 C301 1.279 . S
O304 Cd294 2.297 . S
O304 C299 1.247 . S
O305 Cd294 2.439 . S
O305 C299 1.208 . S
O306 Cd307 2.223 1_545 S
O306 C314 1.315 . S
Cd307 O306 2.223 1_565 S
Cd307 O310 2.297 . S
Cd307 O311 2.439 . S
Cd307 O317 2.240 1_565 S
Cd308 O309 2.240 . S
Cd308 O316 2.223 . S
Cd308 O318 2.297 . S
Cd308 O319 2.439 1_545 S
O309 Cd308 2.240 . S
O309 C314 1.279 . S
O310 Cd307 2.297 . S
O310 C312 1.247 . S
O311 Cd307 2.439 . S
O311 C312 1.208 . S
C312 O310 1.247 . S
C312 O311 1.208 . S
C313 O318 1.247 1_565 S
C313 O319 1.208 . S
C314 O306 1.315 . S
C314 O309 1.279 . S
C315 O316 1.315 . S
C315 O317 1.279 . S
O316 Cd308 2.223 . S
O316 C315 1.315 . S
O317 Cd307 2.240 1_545 S
O317 C315 1.279 . S
O318 Cd308 2.297 . S
O318 C313 1.247 1_545 S
O319 Cd308 2.439 1_565 S
O319 C313 1.208 . S
O320 Cd321 2.223 . S
O320 C328 1.315 . S
Cd321 O320 2.223 . S
Cd321 O324 2.297 . S
Cd321 O325 2.439 1_655 S
Cd321 O331 2.240 . S
Cd322 O323 2.240 . S
Cd322 O330 2.223 1_455 S
Cd322 O332 2.297 . S
Cd322 O333 2.439 . S
O323 Cd322 2.240 . S
O323 C328 1.279 1_455 S
O324 Cd321 2.297 . S
O324 C326 1.247 1_655 S
O325 Cd321 2.439 1_455 S
O325 C326 1.208 . S
C326 O324 1.247 1_455 S
C326 O325 1.208 . S
C327 O332 1.247 . S
C327 O333 1.208 . S
C328 O320 1.315 . S
C328 O323 1.279 1_655 S
C329 O330 1.315 . S
C329 O331 1.279 . S
O330 Cd322 2.223 1_655 S
O330 C329 1.315 . S
O331 Cd321 2.240 . S
O331 C329 1.279 . S
O332 Cd322 2.297 . S
O332 C327 1.247 . S
O333 Cd322 2.439 . S
O333 C327 1.208 . S
O334 Cd335 2.223 . S
O334 C342 1.315 . S
Cd335 O334 2.223 . S
Cd335 O338 2.297 . S
Cd335 O339 2.439 . S
Cd335 O345 2.240 . S
Cd336 O337 2.240 . S
Cd336 O344 2.223 . S
Cd336 O346 2.297 . S
Cd336 O347 2.439 . S
O337 Cd336 2.240 . S
O337 C342 1.279 . S
O338 Cd335 2.297 . S
O338 C340 1.247 . S
O339 Cd335 2.439 . S
O339 C340 1.208 . S
C340 O338 1.247 . S
C340 O339 1.208 . S
C341 O346 1.247 . S
C341 O347 1.208 . S
C342 O334 1.315 . S
C342 O337 1.279 . S
C343 O344 1.315 . S
C343 O345 1.279 . S
O344 Cd336 2.223 . S
O344 C343 1.315 . S
O345 Cd335 2.240 . S
O345 C343 1.279 . S
O346 Cd336 2.297 . S
O346 C341 1.247 . S
O347 Cd336 2.439 . S
O347 C341 1.208 . S
O348 Cd349 2.223 1_655 S
O348 C356 1.315 . S
Cd349 O348 2.223 1_455 S
Cd349 O352 2.297 . S
Cd349 O353 2.439 . S
Cd349 O359 2.240 . S
Cd350 O351 2.240 . S
Cd350 O358 2.223 1_455 S
Cd350 O360 2.297 . S
Cd350 O361 2.439 . S
O351 Cd350 2.240 . S
O351 C356 1.279 1_455 S
O352 Cd349 2.297 . S
O352 C354 1.247 . S
O353 Cd349 2.439 . S
O353 C354 1.208 . S
C354 O352 1.247 . S
C354 O353 1.208 . S
C355 O360 1.247 . S
C355 O361 1.208 . S
C356 O348 1.315 . S
C356 O351 1.279 1_655 S
C357 O358 1.315 . S
C357 O359 1.279 1_655 S
O358 Cd350 2.223 1_655 S
O358 C357 1.315 . S
O359 Cd349 2.240 . S
O359 C357 1.279 1_455 S
O360 Cd350 2.297 . S
O360 C355 1.247 . S
O361 Cd350 2.439 . S
O361 C355 1.208 . S
O362 Cd363 2.223 . S
O362 C370 1.315 . S
Cd363 O362 2.223 . S
Cd363 O366 2.297 . S
Cd363 O367 2.439 . S
Cd363 O373 2.240 . S
Cd364 O365 2.240 . S
Cd364 O372 2.223 . S
Cd364 O374 2.297 . S
Cd364 O375 2.439 . S
O365 Cd364 2.240 . S
O365 C370 1.279 . S
O366 Cd363 2.297 . S
O366 C368 1.247 . S
O367 Cd363 2.439 . S
O367 C368 1.208 . S
C368 O366 1.247 . S
C368 O367 1.208 . S
C369 O374 1.247 . S
C369 O375 1.208 . S
C370 O362 1.315 . S
C370 O365 1.279 . S
C371 O372 1.315 . S
C371 O373 1.279 . S
O372 Cd364 2.223 . S
O372 C371 1.315 . S
O373 Cd363 2.240 . S
O373 C371 1.279 . S
O374 Cd364 2.297 . S
O374 C369 1.247 . S
O375 Cd364 2.439 . S
O375 C369 1.208 . S
H376 C388 0.930 . S
H377 C390 0.930 . S
H378 C391 0.930 . S
H379 C395 0.959 . S
H380 C395 0.959 . S
H381 C395 0.961 . S
H382 C396 0.960 . S
H383 C396 0.961 . S
H384 C396 0.959 . S
H385 C399 0.929 . S
H386 C400 0.931 . S
H387 C402 0.930 . S
C388 H376 0.930 . S
C388 C389 1.399 . S
C388 C393 1.399 . S
C389 C388 1.399 . S
C389 C390 1.376 . S
C390 H377 0.930 . S
C390 C389 1.376 . S
C390 C391 1.388 . S
C391 H378 0.930 . S
C391 C390 1.388 . S
C391 C392 1.390 . S
C392 C391 1.390 . S
C392 C393 1.394 . S
C392 C398 1.465 . S
C393 C388 1.399 . S
C393 C392 1.394 . S
C393 C394 1.516 . S
C394 C393 1.516 . S
C394 C395 1.502 . S
C394 C396 1.561 . S
C394 C397 1.526 . S
C395 H379 0.959 . S
C395 H380 0.959 . S
C395 H381 0.961 . S
C395 C394 1.502 . S
C396 H382 0.960 . S
C396 H383 0.961 . S
C396 H384 0.959 . S
C396 C394 1.561 . S
C397 C394 1.526 . S
C397 C398 1.396 . S
C397 C402 1.390 . S
C398 C392 1.465 . S
C398 C397 1.396 . S
C398 C399 1.399 . S
C399 H385 0.929 . S
C399 C398 1.399 . S
C399 C400 1.385 . S
C400 H386 0.931 . S
C400 C399 1.385 . S
C400 C401 1.389 . S
C401 C400 1.389 . S
C401 C402 1.387 . S
C402 H387 0.930 . S
C402 C397 1.390 . S
C402 C401 1.387 . S
H403 C415 0.940 . S
H404 C417 0.930 . S
H405 C418 0.930 . S
H406 C422 0.959 . S
H407 C422 0.959 . S
H408 C422 0.961 . S
H409 C423 0.960 . S
H410 C423 0.961 . S
H411 C423 0.959 . S
H412 C426 0.929 . S
H413 C427 0.931 . S
H414 C429 0.930 . S
C415 H403 0.940 . S
C415 C416 1.409 . S
C415 C420 1.379 1_655 S
C416 C415 1.409 . S
C416 C417 1.376 . S
C417 H404 0.930 . S
C417 C416 1.376 . S
C417 C418 1.388 1_655 S
C418 H405 0.930 . S
C418 C417 1.388 1_455 S
C418 C419 1.390 . S
C419 C418 1.390 . S
C419 C420 1.394 . S
C419 C425 1.465 . S
C420 C415 1.379 1_455 S
C420 C419 1.394 . S
C420 C421 1.516 . S
C421 C420 1.516 . S
C421 C422 1.502 . S
C421 C423 1.561 . S
C421 C424 1.526 . S
C422 H406 0.959 . S
C422 H407 0.959 . S
C422 H408 0.961 . S
C422 C421 1.502 . S
C423 H409 0.960 . S
C423 H410 0.961 . S
C423 H411 0.959 . S
C423 C421 1.561 . S
C424 C421 1.526 . S
C424 C425 1.396 . S
C424 C429 1.390 . S
C425 C419 1.465 . S
C425 C424 1.396 . S
C425 C426 1.399 . S
C426 H412 0.929 . S
C426 C425 1.399 . S
C426 C427 1.385 . S
C427 H413 0.931 . S
C427 C426 1.385 . S
C427 C428 1.389 . S
C428 C427 1.389 . S
C428 C429 1.387 . S
C429 H414 0.930 . S
C429 C424 1.390 . S
C429 C428 1.387 . S
H430 C442 0.930 . S
H431 C444 0.930 . S
H432 C445 0.930 . S
H433 C449 0.959 . S
H434 C449 0.959 . S
H435 C449 0.961 . S
H436 C450 0.960 . S
H437 C450 0.961 . S
H438 C450 0.959 . S
H439 C453 0.929 . S
H440 C454 0.931 . S
H441 C456 0.930 . S
C442 H430 0.930 . S
C442 C443 1.399 . S
C442 C447 1.399 . S
C443 C442 1.399 . S
C443 C444 1.376 . S
C444 H431 0.930 . S
C444 C443 1.376 . S
C444 C445 1.388 . S
C445 H432 0.930 . S
C445 C444 1.388 . S
C445 C446 1.390 . S
C446 C445 1.390 . S
C446 C447 1.394 . S
C446 C452 1.465 . S
C447 C442 1.399 . S
C447 C446 1.394 . S
C447 C448 1.516 . S
C448 C447 1.516 . S
C448 C449 1.502 . S
C448 C450 1.561 . S
C448 C451 1.526 . S
C449 H433 0.959 . S
C449 H434 0.959 . S
C449 H435 0.961 . S
C449 C448 1.502 . S
C450 H436 0.960 . S
C450 H437 0.961 . S
C450 H438 0.959 . S
C450 C448 1.561 . S
C451 C448 1.526 . S
C451 C452 1.396 . S
C451 C456 1.390 . S
C452 C446 1.465 . S
C452 C451 1.396 . S
C452 C453 1.399 . S
C453 H439 0.929 . S
C453 C452 1.399 . S
C453 C454 1.385 . S
C454 H440 0.931 . S
C454 C453 1.385 . S
C454 C455 1.389 . S
C455 C454 1.389 . S
C455 C456 1.387 . S
C456 H441 0.930 . S
C456 C451 1.390 . S
C456 C455 1.387 . S
H457 C469 0.930 . S
H458 C471 0.930 . S
H459 C472 0.946 . S
H460 C476 0.959 . S
H461 C476 0.968 . S
H462 C476 0.961 . S
H463 C477 0.960 . S
H464 C477 0.961 . S
H465 C477 0.959 . S
H466 C480 0.929 . S
H467 C481 0.931 . S
H468 C483 0.930 . S
C469 H457 0.930 . S
C469 C470 1.399 . S
C469 C474 1.399 1_455 S
C470 C469 1.399 . S
C470 C471 1.376 . S
C471 H458 0.930 . S
C471 C470 1.376 . S
C471 C472 1.388 1_455 S
C472 H459 0.946 . S
C472 C471 1.388 1_655 S
C472 C473 1.386 1_565 S
C473 C472 1.386 1_545 S
C473 C474 1.385 1_545 S
C473 C479 1.478 . S
C474 C469 1.399 1_655 S
C474 C473 1.385 1_565 S
C474 C475 1.505 1_565 S
C475 C474 1.505 1_545 S
C475 C476 1.521 1_655 S
C475 C477 1.525 1_545 S
C475 C478 1.554 . S
C476 H460 0.959 . S
C476 H461 0.968 . S
C476 H462 0.961 . S
C476 C475 1.521 1_455 S
C477 H463 0.960 . S
C477 H464 0.961 . S
C477 H465 0.959 . S
C477 C475 1.525 1_565 S
C478 C475 1.554 . S
C478 C479 1.396 . S
C478 C483 1.390 . S
C479 C473 1.478 . S
C479 C478 1.396 . S
C479 C480 1.399 . S
C480 H466 0.929 . S
C480 C479 1.399 . S
C480 C481 1.385 . S
C481 H467 0.931 . S
C481 C480 1.385 . S
C481 C482 1.389 . S
C482 C481 1.389 . S
C482 C483 1.387 . S
C483 H468 0.930 . S
C483 C478 1.390 . S
C483 C482 1.387 . S
H484 C496 0.930 . S
H485 C498 0.930 . S
H486 C499 0.930 . S
H487 C503 0.959 . S
H488 C503 0.959 . S
H489 C503 0.961 . S
H490 C504 0.960 . S
H491 C504 0.961 . S
H492 C504 0.959 . S
H493 C507 0.929 . S
H494 C508 0.931 . S
H495 C510 0.930 . S
C496 H484 0.930 . S
C496 C497 1.399 . S
C496 C501 1.399 . S
C497 C496 1.399 . S
C497 C498 1.376 . S
C498 H485 0.930 . S
C498 C497 1.376 . S
C498 C499 1.388 . S
C499 H486 0.930 . S
C499 C498 1.388 . S
C499 C500 1.390 . S
C500 C499 1.390 . S
C500 C501 1.394 . S
C500 C506 1.465 . S
C501 C496 1.399 . S
C501 C500 1.394 . S
C501 C502 1.516 . S
C502 C501 1.516 . S
C502 C503 1.502 . S
C502 C504 1.561 . S
C502 C505 1.526 . S
C503 H487 0.959 . S
C503 H488 0.959 . S
C503 H489 0.961 . S
C503 C502 1.502 . S
C504 H490 0.960 . S
C504 H491 0.961 . S
C504 H492 0.959 . S
C504 C502 1.561 . S
C505 C502 1.526 . S
C505 C506 1.396 . S
C505 C510 1.390 . S
C506 C500 1.465 . S
C506 C505 1.396 . S
C506 C507 1.399 . S
C507 H493 0.929 . S
C507 C506 1.399 . S
C507 C508 1.385 . S
C508 H494 0.931 . S
C508 C507 1.385 . S
C508 C509 1.389 . S
C509 C508 1.389 . S
C509 C510 1.387 . S
C510 H495 0.930 . S
C510 C505 1.390 . S
C510 C509 1.387 . S
H511 C523 0.930 . S
H512 C525 0.930 . S
H513 C526 0.930 . S
H514 C530 0.959 . S
H515 C530 0.959 . S
H516 C530 0.961 . S
H517 C531 0.960 . S
H518 C531 0.961 . S
H519 C531 0.959 . S
H520 C534 0.929 . S
H521 C535 0.931 . S
H522 C537 0.930 . S
C523 H511 0.930 . S
C523 C524 1.399 . S
C523 C528 1.399 . S
C524 C523 1.399 . S
C524 C525 1.376 . S
C525 H512 0.930 . S
C525 C524 1.376 . S
C525 C526 1.388 . S
C526 H513 0.930 . S
C526 C525 1.388 . S
C526 C527 1.390 . S
C527 C526 1.390 . S
C527 C528 1.394 . S
C527 C533 1.465 . S
C528 C523 1.399 . S
C528 C527 1.394 . S
C528 C529 1.516 . S
C529 C528 1.516 . S
C529 C530 1.502 . S
C529 C531 1.561 . S
C529 C532 1.526 . S
C530 H514 0.959 . S
C530 H515 0.959 . S
C530 H516 0.961 . S
C530 C529 1.502 . S
C531 H517 0.960 . S
C531 H518 0.961 . S
C531 H519 0.959 . S
C531 C529 1.561 . S
C532 C529 1.526 . S
C532 C533 1.396 . S
C532 C537 1.390 . S
C533 C527 1.465 . S
C533 C532 1.396 . S
C533 C534 1.399 . S
C534 H520 0.929 . S
C534 C533 1.399 . S
C534 C535 1.385 . S
C535 H521 0.931 . S
C535 C534 1.385 . S
C535 C536 1.389 . S
C536 C535 1.389 . S
C536 C537 1.387 . S
C537 H522 0.930 . S
C537 C532 1.390 . S
C537 C536 1.387 . S
H538 C550 0.930 . S
H539 C552 0.930 . S
H540 C553 0.930 . S
H541 C557 0.959 . S
H542 C557 0.959 . S
H543 C557 0.961 . S
H544 C558 0.960 . S
H545 C558 0.961 . S
H546 C558 0.959 . S
H547 C561 0.929 . S
H548 C562 0.931 . S
H549 C564 0.930 . S
C550 H538 0.930 . S
C550 C551 1.399 . S
C550 C555 1.399 . S
C551 C550 1.399 . S
C551 C552 1.376 . S
C552 H539 0.930 . S
C552 C551 1.376 . S
C552 C553 1.388 . S
C553 H540 0.930 . S
C553 C552 1.388 . S
C553 C554 1.390 . S
C554 C553 1.390 . S
C554 C555 1.394 . S
C554 C560 1.465 . S
C555 C550 1.399 . S
C555 C554 1.394 . S
C555 C556 1.516 . S
C556 C555 1.516 . S
C556 C557 1.502 . S
C556 C558 1.561 . S
C556 C559 1.526 . S
C557 H541 0.959 . S
C557 H542 0.959 . S
C557 H543 0.961 . S
C557 C556 1.502 . S
C558 H544 0.960 . S
C558 H545 0.961 . S
C558 H546 0.959 . S
C558 C556 1.561 . S
C559 C556 1.526 . S
C559 C560 1.396 . S
C559 C564 1.390 . S
C560 C554 1.465 . S
C560 C559 1.396 . S
C560 C561 1.399 . S
C561 H547 0.929 . S
C561 C560 1.399 . S
C561 C562 1.385 . S
C562 H548 0.931 . S
C562 C561 1.385 . S
C562 C563 1.389 . S
C563 C562 1.389 . S
C563 C564 1.387 . S
C564 H549 0.930 . S
C564 C559 1.390 . S
C564 C563 1.387 . S
H565 C577 0.930 . S
H566 C579 0.930 . S
H567 C580 0.930 . S
H568 C584 0.959 1_565 S
H569 C584 0.959 . S
H570 C584 0.961 . S
H571 C585 0.960 . S
H572 C585 0.961 . S
H573 C585 0.959 . S
H574 C588 0.929 . S
H575 C589 0.931 . S
H576 C591 0.930 . S
C577 H565 0.930 . S
C577 C578 1.399 . S
C577 C582 1.399 . S
C578 C577 1.399 . S
C578 C579 1.376 . S
C579 H566 0.930 . S
C579 C578 1.376 . S
C579 C580 1.388 . S
C580 H567 0.930 . S
C580 C579 1.388 . S
C580 C581 1.390 . S
C581 C580 1.390 . S
C581 C582 1.394 . S
C581 C587 1.465 . S
C582 C577 1.399 . S
C582 C581 1.394 . S
C582 C583 1.516 . S
C583 C582 1.516 . S
C583 C584 1.502 1_565 S
C583 C585 1.561 . S
C583 C586 1.526 . S
C584 H568 0.959 1_545 S
C584 H569 0.959 . S
C584 H570 0.961 . S
C584 C583 1.502 1_545 S
C585 H571 0.960 . S
C585 H572 0.961 . S
C585 H573 0.959 . S
C585 C583 1.561 . S
C586 C583 1.526 . S
C586 C587 1.396 . S
C586 C591 1.390 . S
C587 C581 1.465 . S
C587 C586 1.396 . S
C587 C588 1.399 . S
C588 H574 0.929 . S
C588 C587 1.399 . S
C588 C589 1.385 . S
C589 H575 0.931 . S
C589 C588 1.385 . S
C589 C590 1.389 . S
C590 C589 1.389 . S
C590 C591 1.387 . S
C591 H576 0.930 . S
C591 C586 1.390 . S
C591 C590 1.387 . S
H592 C604 0.930 . S
H593 C606 0.930 . S
H594 C607 0.930 . S
H595 C611 0.959 . S
H596 C611 0.959 . S
H597 C611 0.961 . S
H598 C612 0.960 . S
H599 C612 0.961 . S
H600 C612 0.959 . S
H601 C615 0.929 . S
H602 C616 0.931 . S
H603 C618 0.930 . S
C604 H592 0.930 . S
C604 C605 1.399 . S
C604 C609 1.399 . S
C605 C604 1.399 . S
C605 C606 1.376 . S
C606 H593 0.930 . S
C606 C605 1.376 . S
C606 C607 1.388 . S
C607 H594 0.930 . S
C607 C606 1.388 . S
C607 C608 1.390 . S
C608 C607 1.390 . S
C608 C609 1.394 . S
C608 C614 1.465 . S
C609 C604 1.399 . S
C609 C608 1.394 . S
C609 C610 1.516 . S
C610 C609 1.516 . S
C610 C611 1.502 . S
C610 C612 1.561 . S
C610 C613 1.526 . S
C611 H595 0.959 . S
C611 H596 0.959 . S
C611 H597 0.961 . S
C611 C610 1.502 . S
C612 H598 0.960 . S
C612 H599 0.961 . S
C612 H600 0.959 . S
C612 C610 1.561 . S
C613 C610 1.526 . S
C613 C614 1.396 . S
C613 C618 1.390 . S
C614 C608 1.465 . S
C614 C613 1.396 . S
C614 C615 1.399 . S
C615 H601 0.929 . S
C615 C614 1.399 . S
C615 C616 1.385 . S
C616 H602 0.931 . S
C616 C615 1.385 . S
C616 C617 1.389 . S
C617 C616 1.389 . S
C617 C618 1.387 . S
C618 H603 0.930 . S
C618 C613 1.390 . S
C618 C617 1.387 . S
H619 C631 0.930 . S
H620 C633 0.930 . S
H621 C634 0.930 . S
H622 C638 0.959 . S
H623 C638 0.959 . S
H624 C638 0.961 . S
H625 C639 0.960 . S
H626 C639 0.961 . S
H627 C639 0.959 . S
H628 C642 0.929 . S
H629 C643 0.931 . S
H630 C645 0.930 . S
C631 H619 0.930 . S
C631 C632 1.399 . S
C631 C636 1.399 . S
C632 C631 1.399 . S
C632 C633 1.376 . S
C633 H620 0.930 . S
C633 C632 1.376 . S
C633 C634 1.388 . S
C634 H621 0.930 . S
C634 C633 1.388 . S
C634 C635 1.390 . S
C635 C634 1.390 . S
C635 C636 1.394 . S
C635 C641 1.465 . S
C636 C631 1.399 . S
C636 C635 1.394 . S
C636 C637 1.516 . S
C637 C636 1.516 . S
C637 C638 1.502 . S
C637 C639 1.561 . S
C637 C640 1.526 . S
C638 H622 0.959 . S
C638 H623 0.959 . S
C638 H624 0.961 . S
C638 C637 1.502 . S
C639 H625 0.960 . S
C639 H626 0.961 . S
C639 H627 0.959 . S
C639 C637 1.561 . S
C640 C637 1.526 . S
C640 C641 1.396 . S
C640 C645 1.390 . S
C641 C635 1.465 . S
C641 C640 1.396 . S
C641 C642 1.399 . S
C642 H628 0.929 . S
C642 C641 1.399 . S
C642 C643 1.385 . S
C643 H629 0.931 . S
C643 C642 1.385 . S
C643 C644 1.389 . S
C644 C643 1.389 . S
C644 C645 1.387 . S
C645 H630 0.930 . S
C645 C640 1.390 . S
C645 C644 1.387 . S
H646 C658 0.930 . S
H647 C660 0.930 . S
H648 C661 0.930 . S
H649 C665 0.959 . S
H650 C665 0.959 . S
H651 C665 0.961 . S
H652 C666 0.960 . S
H653 C666 0.961 . S
H654 C666 0.959 . S
H655 C669 0.929 . S
H656 C670 0.931 . S
H657 C672 0.930 . S
C658 H646 0.930 . S
C658 C659 1.399 . S
C658 C663 1.399 . S
C659 C658 1.399 . S
C659 C660 1.376 . S
C660 H647 0.930 . S
C660 C659 1.376 . S
C660 C661 1.388 . S
C661 H648 0.930 . S
C661 C660 1.388 . S
C661 C662 1.390 . S
C662 C661 1.390 . S
C662 C663 1.394 . S
C662 C668 1.465 . S
C663 C658 1.399 . S
C663 C662 1.394 . S
C663 C664 1.516 . S
C664 C663 1.516 . S
C664 C665 1.502 . S
C664 C666 1.561 . S
C664 C667 1.526 . S
C665 H649 0.959 . S
C665 H650 0.959 . S
C665 H651 0.961 . S
C665 C664 1.502 . S
C666 H652 0.960 . S
C666 H653 0.961 . S
C666 H654 0.959 . S
C666 C664 1.561 . S
C667 C664 1.526 . S
C667 C668 1.396 . S
C667 C672 1.390 . S
C668 C662 1.465 . S
C668 C667 1.396 . S
C668 C669 1.399 . S
C669 H655 0.929 . S
C669 C668 1.399 . S
C669 C670 1.385 . S
C670 H656 0.931 . S
C670 C669 1.385 . S
C670 C671 1.389 . S
C671 C670 1.389 . S
C671 C672 1.387 . S
C672 H657 0.930 . S
C672 C667 1.390 . S
C672 C671 1.387 . S
H673 C685 0.930 . S
H674 C687 0.930 . S
H675 C688 0.930 . S
H676 C692 0.959 . S
H677 C692 0.959 . S
H678 C692 0.961 . S
H679 C693 0.960 . S
H680 C693 0.961 . S
H681 C693 0.959 . S
H682 C696 0.929 . S
H683 C697 0.931 . S
H684 C699 0.930 . S
C685 H673 0.930 . S
C685 C686 1.399 . S
C685 C690 1.399 . S
C686 C685 1.399 . S
C686 C687 1.376 . S
C687 H674 0.930 . S
C687 C686 1.376 . S
C687 C688 1.388 . S
C688 H675 0.930 . S
C688 C687 1.388 . S
C688 C689 1.390 . S
C689 C688 1.390 . S
C689 C690 1.394 . S
C689 C695 1.465 . S
C690 C685 1.399 . S
C690 C689 1.394 . S
C690 C691 1.516 . S
C691 C690 1.516 . S
C691 C692 1.502 . S
C691 C693 1.561 . S
C691 C694 1.526 . S
C692 H676 0.959 . S
C692 H677 0.959 . S
C692 H678 0.961 . S
C692 C691 1.502 . S
C693 H679 0.960 . S
C693 H680 0.961 . S
C693 H681 0.959 . S
C693 C691 1.561 . S
C694 C691 1.526 . S
C694 C695 1.396 . S
C694 C699 1.390 . S
C695 C689 1.465 . S
C695 C694 1.396 . S
C695 C696 1.399 . S
C696 H682 0.929 . S
C696 C695 1.399 . S
C696 C697 1.385 . S
C697 H683 0.931 . S
C697 C696 1.385 . S
C697 C698 1.389 . S
C698 C697 1.389 . S
C698 C699 1.387 . S
C699 H684 0.930 . S
C699 C694 1.390 . S
C699 C698 1.387 . S
H700 C712 0.930 . S
H701 C714 0.930 . S
H702 C715 0.930 . S
H703 C719 0.959 . S
H704 C719 0.959 . S
H705 C719 0.961 . S
H706 C720 0.960 . S
H707 C720 0.961 . S
H708 C720 0.959 . S
H709 C723 0.929 . S
H710 C724 0.931 . S
H711 C726 0.930 . S
C712 H700 0.930 . S
C712 C713 1.399 . S
C712 C717 1.399 . S
C713 C712 1.399 . S
C713 C714 1.376 . S
C714 H701 0.930 . S
C714 C713 1.376 . S
C714 C715 1.388 . S
C715 H702 0.930 . S
C715 C714 1.388 . S
C715 C716 1.390 . S
C716 C715 1.390 . S
C716 C717 1.394 . S
C716 C722 1.465 . S
C717 C712 1.399 . S
C717 C716 1.394 . S
C717 C718 1.516 . S
C718 C717 1.516 . S
C718 C719 1.502 . S
C718 C720 1.561 . S
C718 C721 1.526 . S
C719 H703 0.959 . S
C719 H704 0.959 . S
C719 H705 0.961 . S
C719 C718 1.502 . S
C720 H706 0.960 . S
C720 H707 0.961 . S
C720 H708 0.959 . S
C720 C718 1.561 . S
C721 C718 1.526 . S
C721 C722 1.396 . S
C721 C726 1.390 . S
C722 C716 1.465 . S
C722 C721 1.396 . S
C722 C723 1.399 . S
C723 H709 0.929 . S
C723 C722 1.399 . S
C723 C724 1.385 . S
C724 H710 0.931 . S
C724 C723 1.385 . S
C724 C725 1.389 . S
C725 C724 1.389 . S
C725 C726 1.387 . S
C726 H711 0.930 . S
C726 C721 1.390 . S
C726 C725 1.387 . S
H727 C739 0.930 . S
H728 C741 0.930 . S
H729 C742 0.930 . S
H730 C746 0.959 . S
H731 C746 0.959 . S
H732 C746 0.961 . S
H733 C747 0.960 . S
H734 C747 0.961 1_655 S
H735 C747 0.959 . S
H736 C750 0.929 . S
H737 C751 0.931 . S
H738 C753 0.930 . S
C739 H727 0.930 . S
C739 C740 1.399 . S
C739 C744 1.399 . S
C740 C739 1.399 . S
C740 C741 1.376 . S
C741 H728 0.930 . S
C741 C740 1.376 . S
C741 C742 1.388 . S
C742 H729 0.930 . S
C742 C741 1.388 . S
C742 C743 1.390 . S
C743 C742 1.390 . S
C743 C744 1.394 . S
C743 C749 1.465 . S
C744 C739 1.399 . S
C744 C743 1.394 . S
C744 C745 1.516 . S
C745 C744 1.516 . S
C745 C746 1.502 . S
C745 C747 1.561 . S
C745 C748 1.526 . S
C746 H730 0.959 . S
C746 H731 0.959 . S
C746 H732 0.961 . S
C746 C745 1.502 . S
C747 H733 0.960 . S
C747 H734 0.961 1_455 S
C747 H735 0.959 . S
C747 C745 1.561 . S
C748 C745 1.526 . S
C748 C749 1.396 . S
C748 C753 1.390 . S
C749 C743 1.465 . S
C749 C748 1.396 . S
C749 C750 1.399 . S
C750 H736 0.929 . S
C750 C749 1.399 . S
C750 C751 1.385 . S
C751 H737 0.931 . S
C751 C750 1.385 . S
C751 C752 1.389 . S
C752 C751 1.389 . S
C752 C753 1.387 . S
C753 H738 0.930 . S
C753 C748 1.390 . S
C753 C752 1.387 . S
H754 C766 0.930 . S
H755 C768 0.930 . S
H756 C769 0.930 . S
H757 C773 0.959 . S
H758 C773 0.959 . S
H759 C773 0.961 . S
H760 C774 0.960 . S
H761 C774 0.961 . S
H762 C774 0.959 . S
H763 C777 0.929 . S
H764 C778 0.931 . S
H765 C780 0.930 . S
C766 H754 0.930 . S
C766 C767 1.399 . S
C766 C771 1.399 . S
C767 C766 1.399 . S
C767 C768 1.376 . S
C768 H755 0.930 . S
C768 C767 1.376 . S
C768 C769 1.388 . S
C769 H756 0.930 . S
C769 C768 1.388 . S
C769 C770 1.390 . S
C770 C769 1.390 . S
C770 C771 1.394 . S
C770 C776 1.465 . S
C771 C766 1.399 . S
C771 C770 1.394 . S
C771 C772 1.516 . S
C772 C771 1.516 . S
C772 C773 1.502 . S
C772 C774 1.561 . S
C772 C775 1.526 . S
C773 H757 0.959 . S
C773 H758 0.959 . S
C773 H759 0.961 . S
C773 C772 1.502 . S
C774 H760 0.960 . S
C774 H761 0.961 . S
C774 H762 0.959 . S
C774 C772 1.561 . S
C775 C772 1.526 . S
C775 C776 1.396 . S
C775 C780 1.390 . S
C776 C770 1.465 . S
C776 C775 1.396 . S
C776 C777 1.399 . S
C777 H763 0.929 . S
C777 C776 1.399 . S
C777 C778 1.385 . S
C778 H764 0.931 . S
C778 C777 1.385 . S
C778 C779 1.389 . S
C779 C778 1.389 . S
C779 C780 1.387 . S
C780 H765 0.930 . S
C780 C775 1.390 . S
C780 C779 1.387 . S
H781 C793 0.930 . S
H782 C795 0.930 . S
H783 C796 0.930 . S
H784 C800 0.959 . S
H785 C800 0.959 . S
H786 C800 0.961 . S
H787 C801 0.960 . S
H788 C801 0.961 . S
H789 C801 0.959 . S
H790 C804 0.929 . S
H791 C805 0.931 . S
H792 C807 0.930 . S
C793 H781 0.930 . S
C793 C794 1.399 . S
C793 C798 1.399 . S
C794 C793 1.399 . S
C794 C795 1.376 . S
C795 H782 0.930 . S
C795 C794 1.376 . S
C795 C796 1.388 . S
C796 H783 0.930 . S
C796 C795 1.388 . S
C796 C797 1.390 . S
C797 C796 1.390 . S
C797 C798 1.394 . S
C797 C803 1.465 . S
C798 C793 1.399 . S
C798 C797 1.394 . S
C798 C799 1.516 . S
C799 C798 1.516 . S
C799 C800 1.502 1_655 S
C799 C801 1.561 . S
C799 C802 1.526 . S
C800 H784 0.959 . S
C800 H785 0.959 . S
C800 H786 0.961 . S
C800 C799 1.502 1_455 S
C801 H787 0.960 . S
C801 H788 0.961 . S
C801 H789 0.959 . S
C801 C799 1.561 . S
C802 C799 1.526 . S
C802 C803 1.396 . S
C802 C807 1.390 . S
C803 C797 1.465 . S
C803 C802 1.396 . S
C803 C804 1.399 . S
C804 H790 0.929 . S
C804 C803 1.399 . S
C804 C805 1.385 . S
C805 H791 0.931 . S
C805 C804 1.385 . S
C805 C806 1.389 . S
C806 C805 1.389 . S
C806 C807 1.387 . S
C807 H792 0.930 . S
C807 C802 1.390 . S
C807 C806 1.387 . S
H808 C820 0.930 . S
H809 C822 0.930 . S
H810 C823 0.930 . S
H811 C827 0.959 . S
H812 C827 0.959 . S
H813 C827 0.961 . S
H814 C828 0.960 . S
H815 C828 0.961 . S
H816 C828 0.959 . S
H817 C831 0.929 . S
H818 C832 0.931 . S
H819 C834 0.930 . S
C820 H808 0.930 . S
C820 C821 1.399 . S
C820 C825 1.399 . S
C821 C820 1.399 . S
C821 C822 1.376 . S
C822 H809 0.930 . S
C822 C821 1.376 . S
C822 C823 1.388 . S
C823 H810 0.930 . S
C823 C822 1.388 . S
C823 C824 1.390 . S
C824 C823 1.390 . S
C824 C825 1.394 . S
C824 C830 1.465 . S
C825 C820 1.399 . S
C825 C824 1.394 . S
C825 C826 1.516 . S
C826 C825 1.516 . S
C826 C827 1.502 . S
C826 C828 1.561 . S
C826 C829 1.526 . S
C827 H811 0.959 . S
C827 H812 0.959 . S
C827 H813 0.961 . S
C827 C826 1.502 . S
C828 H814 0.960 . S
C828 H815 0.961 . S
C828 H816 0.959 . S
C828 C826 1.561 . S
C829 C826 1.526 . S
C829 C830 1.396 . S
C829 C834 1.390 . S
C830 C824 1.465 . S
C830 C829 1.396 . S
C830 C831 1.399 . S
C831 H817 0.929 . S
C831 C830 1.399 . S
C831 C832 1.385 1_565 S
C832 H818 0.931 . S
C832 C831 1.385 1_545 S
C832 C833 1.389 . S
C833 C832 1.389 . S
C833 C834 1.387 1_545 S
C834 H819 0.930 . S
C834 C829 1.390 . S
C834 C833 1.387 1_565 S
H835 C847 0.930 . S
H836 C849 0.930 . S
H837 C850 0.930 . S
H838 C854 0.959 . S
H839 C854 0.959 . S
H840 C854 0.961 . S
H841 C855 0.960 . S
H842 C855 0.961 . S
H843 C855 0.959 . S
H844 C858 0.929 . S
H845 C859 0.931 . S
H846 C861 0.930 . S
C847 H835 0.930 . S
C847 C848 1.399 . S
C847 C852 1.399 . S
C848 C847 1.399 . S
C848 C849 1.376 . S
C849 H836 0.930 . S
C849 C848 1.376 . S
C849 C850 1.388 . S
C850 H837 0.930 . S
C850 C849 1.388 . S
C850 C851 1.390 . S
C851 C850 1.390 . S
C851 C852 1.394 . S
C851 C857 1.465 . S
C852 C847 1.399 . S
C852 C851 1.394 . S
C852 C853 1.516 . S
C853 C852 1.516 . S
C853 C854 1.502 . S
C853 C855 1.561 . S
C853 C856 1.526 . S
C854 H838 0.959 . S
C854 H839 0.959 . S
C854 H840 0.961 . S
C854 C853 1.502 . S
C855 H841 0.960 . S
C855 H842 0.961 . S
C855 H843 0.959 . S
C855 C853 1.561 . S
C856 C853 1.526 . S
C856 C857 1.396 . S
C856 C861 1.390 . S
C857 C851 1.465 . S
C857 C856 1.396 . S
C857 C858 1.399 . S
C858 H844 0.929 . S
C858 C857 1.399 . S
C858 C859 1.385 . S
C859 H845 0.931 . S
C859 C858 1.385 . S
C859 C860 1.389 . S
C860 C859 1.389 . S
C860 C861 1.387 . S
C861 H846 0.930 . S
C861 C856 1.390 . S
C861 C860 1.387 . S
H862 C874 0.930 . S
H863 C876 0.930 . S
H864 C877 0.930 . S
H865 C881 0.959 1_565 S
H866 C881 0.959 1_565 S
H867 C881 0.961 . S
H868 C882 0.960 . S
H869 C882 0.961 . S
H870 C882 0.959 . S
H871 C885 0.929 . S
H872 C886 0.931 . S
H873 C888 0.930 1_554 S
C874 H862 0.930 . S
C874 C875 1.399 . S
C874 C879 1.399 . S
C875 C874 1.399 . S
C875 C876 1.376 . S
C876 H863 0.930 . S
C876 C875 1.376 . S
C876 C877 1.388 . S
C877 H864 0.930 . S
C877 C876 1.388 . S
C877 C878 1.390 . S
C878 C877 1.390 . S
C878 C879 1.394 . S
C878 C884 1.465 . S
C879 C874 1.399 . S
C879 C878 1.394 . S
C879 C880 1.516 . S
C880 C879 1.516 . S
C880 C881 1.502 . S
C880 C882 1.561 1_556 S
C880 C883 1.526 . S
C881 H865 0.959 1_545 S
C881 H866 0.959 1_545 S
C881 H867 0.961 . S
C881 C880 1.502 . S
C882 H868 0.960 . S
C882 H869 0.961 . S
C882 H870 0.959 . S
C882 C880 1.561 1_554 S
C883 C880 1.526 . S
C883 C884 1.396 . S
C883 C888 1.390 1_545 S
C884 C878 1.465 . S
C884 C883 1.396 . S
C884 C885 1.399 . S
C885 H871 0.929 . S
C885 C884 1.399 . S
C885 C886 1.385 . S
C886 H872 0.931 . S
C886 C885 1.385 . S
C886 C887 1.389 1_545 S
C887 C886 1.389 1_565 S
C887 C888 1.387 . S
C888 H873 0.930 1_556 S
C888 C883 1.390 1_565 S
C888 C887 1.387 . S
H889 C901 0.930 . S
H890 C903 0.930 . S
H891 C904 0.930 . S
H892 C908 0.959 . S
H893 C908 0.959 . S
H894 C908 0.961 . S
H895 C909 0.960 . S
H896 C909 0.961 . S
H897 C909 0.959 . S
H898 C912 0.929 . S
H899 C913 0.931 . S
H900 C915 0.930 . S
C901 H889 0.930 . S
C901 C902 1.399 . S
C901 C906 1.399 . S
C902 C901 1.399 . S
C902 C903 1.376 . S
C903 H890 0.930 . S
C903 C902 1.376 . S
C903 C904 1.388 . S
C904 H891 0.930 . S
C904 C903 1.388 . S
C904 C905 1.390 . S
C905 C904 1.390 . S
C905 C906 1.394 . S
C905 C911 1.465 . S
C906 C901 1.399 . S
C906 C905 1.394 . S
C906 C907 1.516 . S
C907 C906 1.516 . S
C907 C908 1.502 . S
C907 C909 1.561 . S
C907 C910 1.526 . S
C908 H892 0.959 . S
C908 H893 0.959 . S
C908 H894 0.961 . S
C908 C907 1.502 . S
C909 H895 0.960 . S
C909 H896 0.961 . S
C909 H897 0.959 . S
C909 C907 1.561 . S
C910 C907 1.526 . S
C910 C911 1.396 . S
C910 C915 1.390 . S
C911 C905 1.465 . S
C911 C910 1.396 . S
C911 C912 1.399 . S
C912 H898 0.929 . S
C912 C911 1.399 . S
C912 C913 1.385 . S
C913 H899 0.931 . S
C913 C912 1.385 . S
C913 C914 1.389 . S
C914 C913 1.389 . S
C914 C915 1.387 . S
C915 H900 0.930 . S
C915 C910 1.390 . S
C915 C914 1.387 . S
H916 C928 0.930 . S
H917 C930 0.930 . S
H918 C931 0.930 . S
H919 C935 0.959 . S
H920 C935 0.959 . S
H921 C935 0.961 1_565 S
H922 C936 0.960 1_565 S
H923 C936 0.961 . S
H924 C936 0.959 . S
H925 C939 0.929 . S
H926 C940 0.931 . S
H927 C942 0.930 . S
C928 H916 0.930 . S
C928 C929 1.399 . S
C928 C933 1.399 1_565 S
C929 C928 1.399 . S
C929 C930 1.376 1_565 S
C930 H917 0.930 . S
C930 C929 1.376 1_545 S
C930 C931 1.388 . S
C931 H918 0.930 . S
C931 C930 1.388 . S
C931 C932 1.390 . S
C932 C931 1.390 . S
C932 C933 1.394 . S
C932 C938 1.465 . S
C933 C928 1.399 1_545 S
C933 C932 1.394 . S
C933 C934 1.516 . S
C934 C933 1.516 . S
C934 C935 1.502 . S
C934 C936 1.561 . S
C934 C937 1.526 . S
C935 H919 0.959 . S
C935 H920 0.959 . S
C935 H921 0.961 1_545 S
C935 C934 1.502 . S
C936 H922 0.960 1_545 S
C936 H923 0.961 . S
C936 H924 0.959 . S
C936 C934 1.561 . S
C937 C934 1.526 . S
C937 C938 1.396 . S
C937 C942 1.390 . S
C938 C932 1.465 . S
C938 C937 1.396 . S
C938 C939 1.399 . S
C939 H925 0.929 . S
C939 C938 1.399 . S
C939 C940 1.385 . S
C940 H926 0.931 . S
C940 C939 1.385 . S
C940 C941 1.389 . S
C941 C940 1.389 . S
C941 C942 1.387 . S
C942 H927 0.930 . S
C942 C937 1.390 . S
C942 C941 1.387 . S
H943 C955 0.930 . S
H944 C957 0.930 . S
H945 C958 0.930 . S
H946 C962 0.959 . S
H947 C962 0.959 . S
H948 C962 0.961 . S
H949 C963 0.960 . S
H950 C963 0.961 . S
H951 C963 0.959 . S
H952 C966 0.929 . S
H953 C967 0.931 . S
H954 C969 0.930 . S
C955 H943 0.930 . S
C955 C956 1.399 . S
C955 C960 1.399 . S
C956 C955 1.399 . S
C956 C957 1.376 . S
C957 H944 0.930 . S
C957 C956 1.376 . S
C957 C958 1.388 . S
C958 H945 0.930 . S
C958 C957 1.388 . S
C958 C959 1.390 . S
C959 C958 1.390 . S
C959 C960 1.394 . S
C959 C965 1.465 . S
C960 C955 1.399 . S
C960 C959 1.394 . S
C960 C961 1.516 . S
C961 C960 1.516 . S
C961 C962 1.502 . S
C961 C963 1.561 . S
C961 C964 1.526 . S
C962 H946 0.959 . S
C962 H947 0.959 . S
C962 H948 0.961 . S
C962 C961 1.502 . S
C963 H949 0.960 . S
C963 H950 0.961 . S
C963 H951 0.959 . S
C963 C961 1.561 . S
C964 C961 1.526 . S
C964 C965 1.396 . S
C964 C969 1.390 . S
C965 C959 1.465 . S
C965 C964 1.396 . S
C965 C966 1.399 . S
C966 H952 0.929 . S
C966 C965 1.399 . S
C966 C967 1.385 . S
C967 H953 0.931 . S
C967 C966 1.385 . S
C967 C968 1.389 . S
C968 C967 1.389 . S
C968 C969 1.387 . S
C969 H954 0.930 . S
C969 C964 1.390 . S
C969 C968 1.387 . S
H970 C982 0.930 . S
H971 C984 0.930 . S
H972 C985 0.930 . S
H973 C989 0.959 . S
H974 C989 0.959 . S
H975 C989 0.961 . S
H976 C990 0.960 . S
H977 C990 0.961 . S
H978 C990 0.959 . S
H979 C993 0.929 . S
H980 C994 0.931 . S
H981 C996 0.930 . S
C982 H970 0.930 . S
C982 C983 1.399 . S
C982 C987 1.430 . S
C983 C982 1.399 . S
C983 C984 1.376 . S
C984 H971 0.930 . S
C984 C983 1.376 . S
C984 C985 1.388 . S
C985 H972 0.930 . S
C985 C984 1.388 . S
C985 C986 1.390 . S
C986 C985 1.390 . S
C986 C987 1.391 . S
C986 C992 1.465 1_565 S
C987 C982 1.430 . S
C987 C986 1.391 . S
C987 C988 1.486 1_565 S
C988 C987 1.486 1_545 S
C988 C989 1.502 . S
C988 C990 1.561 . S
C988 C991 1.526 . S
C989 H973 0.959 . S
C989 H974 0.959 . S
C989 H975 0.961 . S
C989 C988 1.502 . S
C990 H976 0.960 . S
C990 H977 0.961 . S
C990 H978 0.959 . S
C990 C988 1.561 . S
C991 C988 1.526 . S
C991 C992 1.396 . S
C991 C996 1.390 . S
C992 C986 1.465 1_545 S
C992 C991 1.396 . S
C992 C993 1.399 . S
C993 H979 0.929 . S
C993 C992 1.399 . S
C993 C994 1.385 . S
C994 H980 0.931 . S
C994 C993 1.385 . S
C994 C995 1.389 . S
C995 C994 1.389 . S
C995 C996 1.387 . S
C996 H981 0.930 . S
C996 C991 1.390 . S
C996 C995 1.387 . S
H997 C1009 0.930 . S
H998 C1011 0.930 . S
H999 C1012 0.930 . S
H1000 C1016 0.959 . S
H1001 C1016 0.959 . S
H1002 C1016 0.961 . S
H1003 C1017 0.960 . S
H1004 C1017 0.961 . S
H1005 C1017 0.959 . S
H1006 C1020 0.929 . S
H1007 C1021 0.931 . S
H1008 C1023 0.930 . S
C1009 H997 0.930 . S
C1009 C1010 1.399 . S
C1009 C1014 1.399 . S
C1010 C1009 1.399 . S
C1010 C1011 1.376 . S
C1011 H998 0.930 . S
C1011 C1010 1.376 . S
C1011 C1012 1.388 . S
C1012 H999 0.930 . S
C1012 C1011 1.388 . S
C1012 C1013 1.390 . S
C1013 C1012 1.390 . S
C1013 C1014 1.394 . S
C1013 C1019 1.465 . S
C1014 C1009 1.399 . S
C1014 C1013 1.394 . S
C1014 C1015 1.516 . S
C1015 C1014 1.516 . S
C1015 C1016 1.502 . S
C1015 C1017 1.561 . S
C1015 C1018 1.526 . S
C1016 H1000 0.959 . S
C1016 H1001 0.959 . S
C1016 H1002 0.961 . S
C1016 C1015 1.502 . S
C1017 H1003 0.960 . S
C1017 H1004 0.961 . S
C1017 H1005 0.959 . S
C1017 C1015 1.561 . S
C1018 C1015 1.526 . S
C1018 C1019 1.396 . S
C1018 C1023 1.390 . S
C1019 C1013 1.465 . S
C1019 C1018 1.396 . S
C1019 C1020 1.399 . S
C1020 H1006 0.929 . S
C1020 C1019 1.399 . S
C1020 C1021 1.385 . S
C1021 H1007 0.931 . S
C1021 C1020 1.385 . S
C1021 C1022 1.389 . S
C1022 C1021 1.389 . S
C1022 C1023 1.387 . S
C1023 H1008 0.930 . S
C1023 C1018 1.390 . S
C1023 C1022 1.387 . S
H1024 C1036 0.930 . S
H1025 C1038 0.930 . S
H1026 C1039 0.930 . S
H1027 C1043 0.959 . S
H1028 C1043 0.959 . S
H1029 C1043 0.961 . S
H1030 C1044 0.960 . S
H1031 C1044 0.961 . S
H1032 C1044 0.959 . S
H1033 C1047 0.929 . S
H1034 C1048 0.931 . S
H1035 C1050 0.930 . S
C1036 H1024 0.930 . S
C1036 C1037 1.399 . S
C1036 C1041 1.399 . S
C1037 C1036 1.399 . S
C1037 C1038 1.376 . S
C1038 H1025 0.930 . S
C1038 C1037 1.376 . S
C1038 C1039 1.388 . S
C1039 H1026 0.930 . S
C1039 C1038 1.388 . S
C1039 C1040 1.390 . S
C1040 C1039 1.390 . S
C1040 C1041 1.394 . S
C1040 C1046 1.465 . S
C1041 C1036 1.399 . S
C1041 C1040 1.394 . S
C1041 C1042 1.516 . S
C1042 C1041 1.516 . S
C1042 C1043 1.502 . S
C1042 C1044 1.561 . S
C1042 C1045 1.526 . S
C1043 H1027 0.959 . S
C1043 H1028 0.959 . S
C1043 H1029 0.961 . S
C1043 C1042 1.502 . S
C1044 H1030 0.960 . S
C1044 H1031 0.961 . S
C1044 H1032 0.959 . S
C1044 C1042 1.561 . S
C1045 C1042 1.526 . S
C1045 C1046 1.396 . S
C1045 C1050 1.390 . S
C1046 C1040 1.465 . S
C1046 C1045 1.396 . S
C1046 C1047 1.399 . S
C1047 H1033 0.929 . S
C1047 C1046 1.399 . S
C1047 C1048 1.385 . S
C1048 H1034 0.931 . S
C1048 C1047 1.385 . S
C1048 C1049 1.389 . S
C1049 C1048 1.389 . S
C1049 C1050 1.387 . S
C1050 H1035 0.930 . S
C1050 C1045 1.390 . S
C1050 C1049 1.387 . S
H1051 C1063 0.930 . S
H1052 C1065 0.930 . S
H1053 C1066 0.930 . S
H1054 C1070 0.959 . S
H1055 C1070 0.959 . S
H1056 C1070 0.961 . S
H1057 C1071 0.960 . S
H1058 C1071 0.961 . S
H1059 C1071 0.959 . S
H1060 C1074 0.929 . S
H1061 C1075 0.931 . S
H1062 C1077 0.930 . S
C1063 H1051 0.930 . S
C1063 C1064 1.399 . S
C1063 C1068 1.399 . S
C1064 C1063 1.399 . S
C1064 C1065 1.376 . S
C1065 H1052 0.930 . S
C1065 C1064 1.376 . S
C1065 C1066 1.388 . S
C1066 H1053 0.930 . S
C1066 C1065 1.388 . S
C1066 C1067 1.390 . S
C1067 C1066 1.390 . S
C1067 C1068 1.394 . S
C1067 C1073 1.465 . S
C1068 C1063 1.399 . S
C1068 C1067 1.394 . S
C1068 C1069 1.516 . S
C1069 C1068 1.516 . S
C1069 C1070 1.502 . S
C1069 C1071 1.561 . S
C1069 C1072 1.526 . S
C1070 H1054 0.959 . S
C1070 H1055 0.959 . S
C1070 H1056 0.961 . S
C1070 C1069 1.502 . S
C1071 H1057 0.960 . S
C1071 H1058 0.961 . S
C1071 H1059 0.959 . S
C1071 C1069 1.561 . S
C1072 C1069 1.526 . S
C1072 C1073 1.396 . S
C1072 C1077 1.390 . S
C1073 C1067 1.465 . S
C1073 C1072 1.396 . S
C1073 C1074 1.399 . S
C1074 H1060 0.929 . S
C1074 C1073 1.399 . S
C1074 C1075 1.385 . S
C1075 H1061 0.931 . S
C1075 C1074 1.385 . S
C1075 C1076 1.389 . S
C1076 C1075 1.389 . S
C1076 C1077 1.387 . S
C1077 H1062 0.930 . S
C1077 C1072 1.390 . S
C1077 C1076 1.387 . S
H1078 C1090 0.930 . S
H1079 C1092 0.930 . S
H1080 C1093 0.930 . S
H1081 C1097 0.959 . S
H1082 C1097 0.959 . S
H1083 C1097 0.961 . S
H1084 C1098 0.960 . S
H1085 C1098 0.961 . S
H1086 C1098 0.959 . S
H1087 C1101 0.929 . S
H1088 C1102 0.931 . S
H1089 C1104 0.930 . S
C1090 H1078 0.930 . S
C1090 C1091 1.399 . S
C1090 C1095 1.399 . S
C1091 C1090 1.399 . S
C1091 C1092 1.376 . S
C1092 H1079 0.930 . S
C1092 C1091 1.376 . S
C1092 C1093 1.388 . S
C1093 H1080 0.930 . S
C1093 C1092 1.388 . S
C1093 C1094 1.390 . S
C1094 C1093 1.390 . S
C1094 C1095 1.394 . S
C1094 C1100 1.465 . S
C1095 C1090 1.399 . S
C1095 C1094 1.394 . S
C1095 C1096 1.516 . S
C1096 C1095 1.516 . S
C1096 C1097 1.502 . S
C1096 C1098 1.561 . S
C1096 C1099 1.526 . S
C1097 H1081 0.959 . S
C1097 H1082 0.959 . S
C1097 H1083 0.961 . S
C1097 C1096 1.502 . S
C1098 H1084 0.960 . S
C1098 H1085 0.961 . S
C1098 H1086 0.959 . S
C1098 C1096 1.561 . S
C1099 C1096 1.526 . S
C1099 C1100 1.396 . S
C1099 C1104 1.390 . S
C1100 C1094 1.465 . S
C1100 C1099 1.396 . S
C1100 C1101 1.399 . S
C1101 H1087 0.929 . S
C1101 C1100 1.399 . S
C1101 C1102 1.385 . S
C1102 H1088 0.931 . S
C1102 C1101 1.385 . S
C1102 C1103 1.389 . S
C1103 C1102 1.389 . S
C1103 C1104 1.387 . S
C1104 H1089 0.930 . S
C1104 C1099 1.390 . S
C1104 C1103 1.387 . S
H1105 C1117 0.930 . S
H1106 C1119 0.930 . S
H1107 C1120 0.930 . S
H1108 C1124 0.959 . S
H1109 C1124 0.959 . S
H1110 C1124 0.961 . S
H1111 C1125 0.960 . S
H1112 C1125 0.961 . S
H1113 C1125 0.959 . S
H1114 C1128 0.929 . S
H1115 C1129 0.931 . S
H1116 C1131 0.930 . S
C1117 H1105 0.930 . S
C1117 C1118 1.399 . S
C1117 C1122 1.399 . S
C1118 C1117 1.399 . S
C1118 C1119 1.376 . S
C1119 H1106 0.930 . S
C1119 C1118 1.376 . S
C1119 C1120 1.388 . S
C1120 H1107 0.930 . S
C1120 C1119 1.388 . S
C1120 C1121 1.390 . S
C1121 C1120 1.390 . S
C1121 C1122 1.394 . S
C1121 C1127 1.465 . S
C1122 C1117 1.399 . S
C1122 C1121 1.394 . S
C1122 C1123 1.516 . S
C1123 C1122 1.516 . S
C1123 C1124 1.502 . S
C1123 C1125 1.561 . S
C1123 C1126 1.526 . S
C1124 H1108 0.959 . S
C1124 H1109 0.959 . S
C1124 H1110 0.961 . S
C1124 C1123 1.502 . S
C1125 H1111 0.960 . S
C1125 H1112 0.961 . S
C1125 H1113 0.959 . S
C1125 C1123 1.561 . S
C1126 C1123 1.526 . S
C1126 C1127 1.396 . S
C1126 C1131 1.390 . S
C1127 C1121 1.465 . S
C1127 C1126 1.396 . S
C1127 C1128 1.399 . S
C1128 H1114 0.929 . S
C1128 C1127 1.399 . S
C1128 C1129 1.385 . S
C1129 H1115 0.931 . S
C1129 C1128 1.385 . S
C1129 C1130 1.389 . S
C1130 C1129 1.389 . S
C1130 C1131 1.387 . S
C1131 H1116 0.930 . S
C1131 C1126 1.390 . S
C1131 C1130 1.387 . S
H1132 C1144 0.930 . S
H1133 C1146 0.930 . S
H1134 C1147 0.930 . S
H1135 C1151 0.959 . S
H1136 C1151 0.959 . S
H1137 C1151 0.961 . S
H1138 C1152 0.960 . S
H1139 C1152 0.961 . S
H1140 C1152 0.959 . S
H1141 C1155 0.929 . S
H1142 C1156 0.931 . S
H1143 C1158 0.930 . S
C1144 H1132 0.930 . S
C1144 C1145 1.399 . S
C1144 C1149 1.399 . S
C1145 C1144 1.399 . S
C1145 C1146 1.376 . S
C1146 H1133 0.930 . S
C1146 C1145 1.376 . S
C1146 C1147 1.388 . S
C1147 H1134 0.930 . S
C1147 C1146 1.388 . S
C1147 C1148 1.390 . S
C1148 C1147 1.390 . S
C1148 C1149 1.394 . S
C1148 C1154 1.465 . S
C1149 C1144 1.399 . S
C1149 C1148 1.394 . S
C1149 C1150 1.516 . S
C1150 C1149 1.516 . S
C1150 C1151 1.502 . S
C1150 C1152 1.561 . S
C1150 C1153 1.526 . S
C1151 H1135 0.959 . S
C1151 H1136 0.959 . S
C1151 H1137 0.961 . S
C1151 C1150 1.502 . S
C1152 H1138 0.960 . S
C1152 H1139 0.961 . S
C1152 H1140 0.959 . S
C1152 C1150 1.561 . S
C1153 C1150 1.526 . S
C1153 C1154 1.396 . S
C1153 C1158 1.390 . S
C1154 C1148 1.465 . S
C1154 C1153 1.396 . S
C1154 C1155 1.399 . S
C1155 H1141 0.929 . S
C1155 C1154 1.399 . S
C1155 C1156 1.385 . S
C1156 H1142 0.931 . S
C1156 C1155 1.385 . S
C1156 C1157 1.389 . S
C1157 C1156 1.389 . S
C1157 C1158 1.387 . S
C1158 H1143 0.930 . S
C1158 C1153 1.390 . S
C1158 C1157 1.387 . S
H1159 C1171 0.930 . S
H1160 C1173 0.930 . S
H1161 C1174 0.930 . S
H1162 C1178 0.959 . S
H1163 C1178 0.959 . S
H1164 C1178 0.961 . S
H1165 C1179 0.960 . S
H1166 C1179 0.961 . S
H1167 C1179 0.959 . S
H1168 C1182 0.929 . S
H1169 C1183 0.931 . S
H1170 C1185 0.930 . S
C1171 H1159 0.930 . S
C1171 C1172 1.399 . S
C1171 C1176 1.399 . S
C1172 C1171 1.399 . S
C1172 C1173 1.376 . S
C1173 H1160 0.930 . S
C1173 C1172 1.376 . S
C1173 C1174 1.388 . S
C1174 H1161 0.930 . S
C1174 C1173 1.388 . S
C1174 C1175 1.390 . S
C1175 C1174 1.390 . S
C1175 C1176 1.394 . S
C1175 C1181 1.432 1_455 S
C1176 C1171 1.399 . S
C1176 C1175 1.394 . S
C1176 C1177 1.516 . S
C1177 C1176 1.516 . S
C1177 C1178 1.502 . S
C1177 C1179 1.561 . S
C1177 C1180 1.526 . S
C1178 H1162 0.959 . S
C1178 H1163 0.959 . S
C1178 H1164 0.961 . S
C1178 C1177 1.502 . S
C1179 H1165 0.960 . S
C1179 H1166 0.961 . S
C1179 H1167 0.959 . S
C1179 C1177 1.561 . S
C1180 C1177 1.526 . S
C1180 C1181 1.385 1_455 S
C1180 C1185 1.390 1_455 S
C1181 C1175 1.432 1_655 S
C1181 C1180 1.385 1_655 S
C1181 C1182 1.438 . S
C1182 H1168 0.929 . S
C1182 C1181 1.438 . S
C1182 C1183 1.385 . S
C1183 H1169 0.931 . S
C1183 C1182 1.385 . S
C1183 C1184 1.389 . S
C1184 C1183 1.389 . S
C1184 C1185 1.387 . S
C1185 H1170 0.930 . S
C1185 C1180 1.390 1_655 S
C1185 C1184 1.387 . S
H1186 C1198 0.930 . S
H1187 C1200 0.930 . S
H1188 C1201 0.930 . S
H1189 C1205 0.959 . S
H1190 C1205 0.959 . S
H1191 C1205 0.961 . S
H1192 C1206 0.960 . S
H1193 C1206 0.961 . S
H1194 C1206 0.959 . S
H1195 C1209 0.929 . S
H1196 C1210 0.931 . S
H1197 C1212 0.930 . S
C1198 H1186 0.930 . S
C1198 C1199 1.399 . S
C1198 C1203 1.399 . S
C1199 C1198 1.399 . S
C1199 C1200 1.376 . S
C1200 H1187 0.930 . S
C1200 C1199 1.376 . S
C1200 C1201 1.388 . S
C1201 H1188 0.930 . S
C1201 C1200 1.388 . S
C1201 C1202 1.390 . S
C1202 C1201 1.390 . S
C1202 C1203 1.394 . S
C1202 C1208 1.465 . S
C1203 C1198 1.399 . S
C1203 C1202 1.394 . S
C1203 C1204 1.516 . S
C1204 C1203 1.516 . S
C1204 C1205 1.502 . S
C1204 C1206 1.561 . S
C1204 C1207 1.526 . S
C1205 H1189 0.959 . S
C1205 H1190 0.959 . S
C1205 H1191 0.961 . S
C1205 C1204 1.502 . S
C1206 H1192 0.960 . S
C1206 H1193 0.961 . S
C1206 H1194 0.959 . S
C1206 C1204 1.561 . S
C1207 C1204 1.526 . S
C1207 C1208 1.396 . S
C1207 C1212 1.390 . S
C1208 C1202 1.465 . S
C1208 C1207 1.396 . S
C1208 C1209 1.399 . S
C1209 H1195 0.929 . S
C1209 C1208 1.399 . S
C1209 C1210 1.385 . S
C1210 H1196 0.931 . S
C1210 C1209 1.385 . S
C1210 C1211 1.389 . S
C1211 C1210 1.389 . S
C1211 C1212 1.387 . S
C1212 H1197 0.930 . S
C1212 C1207 1.390 . S
C1212 C1211 1.387 . S
H1213 C1225 0.930 . S
H1214 C1227 0.930 . S
H1215 C1228 0.930 . S
H1216 C1232 0.959 . S
H1217 C1232 0.959 . S
H1218 C1232 0.961 . S
H1219 C1233 0.960 . S
H1220 C1233 0.961 . S
H1221 C1233 0.959 . S
H1222 C1236 0.929 1_655 S
H1223 C1237 0.931 . S
H1224 C1239 0.930 . S
C1225 H1213 0.930 . S
C1225 C1226 1.399 . S
C1225 C1230 1.399 . S
C1226 C1225 1.399 . S
C1226 C1227 1.376 . S
C1227 H1214 0.930 . S
C1227 C1226 1.376 . S
C1227 C1228 1.388 . S
C1228 H1215 0.930 . S
C1228 C1227 1.388 . S
C1228 C1229 1.390 . S
C1229 C1228 1.390 . S
C1229 C1230 1.394 . S
C1229 C1235 1.465 . S
C1230 C1225 1.399 . S
C1230 C1229 1.394 . S
C1230 C1231 1.516 . S
C1231 C1230 1.516 . S
C1231 C1232 1.502 1_655 S
C1231 C1233 1.561 . S
C1231 C1234 1.526 1_655 S
C1232 H1216 0.959 . S
C1232 H1217 0.959 . S
C1232 H1218 0.961 . S
C1232 C1231 1.502 1_455 S
C1233 H1219 0.960 . S
C1233 H1220 0.961 . S
C1233 H1221 0.959 . S
C1233 C1231 1.561 . S
C1234 C1231 1.526 1_455 S
C1234 C1235 1.396 1_455 S
C1234 C1239 1.390 . S
C1235 C1229 1.465 . S
C1235 C1234 1.396 1_655 S
C1235 C1236 1.399 1_655 S
C1236 H1222 0.929 1_455 S
C1236 C1235 1.399 1_455 S
C1236 C1237 1.385 . S
C1237 H1223 0.931 . S
C1237 C1236 1.385 . S
C1237 C1238 1.389 . S
C1238 C1237 1.389 . S
C1238 C1239 1.387 . S
C1239 H1224 0.930 . S
C1239 C1234 1.390 . S
C1239 C1238 1.387 . S
H1240 C1252 0.930 . S
H1241 C1254 0.930 . S
H1242 C1255 0.930 . S
H1243 C1259 0.959 . S
H1244 C1259 0.959 . S
H1245 C1259 0.961 . S
H1246 C1260 0.960 . S
H1247 C1260 0.961 . S
H1248 C1260 0.959 . S
H1249 C1263 0.929 . S
H1250 C1264 0.931 . S
H1251 C1266 0.930 . S
C1252 H1240 0.930 . S
C1252 C1253 1.399 . S
C1252 C1257 1.399 . S
C1253 C1252 1.399 . S
C1253 C1254 1.376 . S
C1254 H1241 0.930 . S
C1254 C1253 1.376 . S
C1254 C1255 1.388 . S
C1255 H1242 0.930 . S
C1255 C1254 1.388 . S
C1255 C1256 1.390 . S
C1256 C1255 1.390 . S
C1256 C1257 1.394 . S
C1256 C1262 1.465 . S
C1257 C1252 1.399 . S
C1257 C1256 1.394 . S
C1257 C1258 1.516 . S
C1258 C1257 1.516 . S
C1258 C1259 1.502 . S
C1258 C1260 1.561 . S
C1258 C1261 1.526 . S
C1259 H1243 0.959 . S
C1259 H1244 0.959 . S
C1259 H1245 0.961 . S
C1259 C1258 1.502 . S
C1260 H1246 0.960 . S
C1260 H1247 0.961 . S
C1260 H1248 0.959 . S
C1260 C1258 1.561 . S
C1261 C1258 1.526 . S
C1261 C1262 1.396 . S
C1261 C1266 1.390 . S
C1262 C1256 1.465 . S
C1262 C1261 1.396 . S
C1262 C1263 1.399 . S
C1263 H1249 0.929 . S
C1263 C1262 1.399 . S
C1263 C1264 1.385 . S
C1264 H1250 0.931 . S
C1264 C1263 1.385 . S
C1264 C1265 1.389 . S
C1265 C1264 1.389 . S
C1265 C1266 1.387 . S
C1266 H1251 0.930 . S
C1266 C1261 1.390 . S
C1266 C1265 1.387 . S
H1267 C1279 0.930 . S
H1268 C1281 0.930 . S
H1269 C1282 0.930 . S
H1270 C1286 0.959 . S
H1271 C1286 0.959 . S
H1272 C1286 0.961 . S
H1273 C1287 0.941 1_554 S
H1274 C1287 0.961 . S
H1275 C1287 0.959 1_554 S
H1276 C1290 0.929 . S
H1277 C1291 0.931 . S
H1278 C1293 0.930 . S
C1279 H1267 0.930 . S
C1279 C1280 1.399 . S
C1279 C1284 1.422 . S
C1280 C1279 1.399 . S
C1280 C1281 1.376 . S
C1281 H1268 0.930 . S
C1281 C1280 1.376 . S
C1281 C1282 1.388 . S
C1282 H1269 0.930 . S
C1282 C1281 1.388 . S
C1282 C1283 1.390 . S
C1283 C1282 1.390 . S
C1283 C1284 1.396 . S
C1283 C1289 1.465 1_554 S
C1284 C1279 1.422 . S
C1284 C1283 1.396 . S
C1284 C1285 1.491 1_554 S
C1285 C1284 1.491 1_556 S
C1285 C1286 1.502 . S
C1285 C1287 1.561 . S
C1285 C1288 1.526 . S
C1286 H1270 0.959 . S
C1286 H1271 0.959 . S
C1286 H1272 0.961 . S
C1286 C1285 1.502 . S
C1287 H1273 0.941 1_556 S
C1287 H1274 0.961 . S
C1287 H1275 0.959 1_556 S
C1287 C1285 1.561 . S
C1288 C1285 1.526 . S
C1288 C1289 1.396 . S
C1288 C1293 1.390 . S
C1289 C1283 1.465 1_556 S
C1289 C1288 1.396 . S
C1289 C1290 1.399 . S
C1290 H1276 0.929 . S
C1290 C1289 1.399 . S
C1290 C1291 1.385 . S
C1291 H1277 0.931 . S
C1291 C1290 1.385 . S
C1291 C1292 1.389 . S
C1292 C1291 1.389 . S
C1292 C1293 1.387 . S
C1293 H1278 0.930 . S
C1293 C1288 1.390 . S
C1293 C1292 1.387 . S
H1294 C1306 0.930 . S
H1295 C1308 0.930 . S
H1296 C1309 0.930 . S
H1297 C1313 0.959 . S
H1298 C1313 0.959 . S
H1299 C1313 0.961 . S
H1300 C1314 0.960 . S
H1301 C1314 0.961 . S
H1302 C1314 0.959 . S
H1303 C1317 0.929 . S
H1304 C1318 0.931 . S
H1305 C1320 0.930 . S
C1306 H1294 0.930 . S
C1306 C1307 1.399 . S
C1306 C1311 1.399 . S
C1307 C1306 1.399 . S
C1307 C1308 1.376 . S
C1308 H1295 0.930 . S
C1308 C1307 1.376 . S
C1308 C1309 1.388 . S
C1309 H1296 0.930 . S
C1309 C1308 1.388 . S
C1309 C1310 1.390 . S
C1310 C1309 1.390 . S
C1310 C1311 1.394 . S
C1310 C1316 1.465 . S
C1311 C1306 1.399 . S
C1311 C1310 1.394 . S
C1311 C1312 1.516 . S
C1312 C1311 1.516 . S
C1312 C1313 1.502 . S
C1312 C1314 1.561 . S
C1312 C1315 1.526 . S
C1313 H1297 0.959 . S
C1313 H1298 0.959 . S
C1313 H1299 0.961 . S
C1313 C1312 1.502 . S
C1314 H1300 0.960 . S
C1314 H1301 0.961 . S
C1314 H1302 0.959 . S
C1314 C1312 1.561 . S
C1315 C1312 1.526 . S
C1315 C1316 1.396 . S
C1315 C1320 1.390 . S
C1316 C1310 1.465 . S
C1316 C1315 1.396 . S
C1316 C1317 1.399 . S
C1317 H1303 0.929 . S
C1317 C1316 1.399 . S
C1317 C1318 1.385 . S
C1318 H1304 0.931 . S
C1318 C1317 1.385 . S
C1318 C1319 1.389 . S
C1319 C1318 1.389 . S
C1319 C1320 1.387 . S
C1320 H1305 0.930 . S
C1320 C1315 1.390 . S
C1320 C1319 1.387 . S
H1321 C1333 0.930 . S
H1322 C1335 0.930 . S
H1323 C1336 0.930 . S
H1324 C1340 0.959 . S
H1325 C1340 0.959 . S
H1326 C1340 0.961 . S
H1327 C1341 0.960 . S
H1328 C1341 0.961 . S
H1329 C1341 0.959 . S
H1330 C1344 0.929 . S
H1331 C1345 0.931 . S
H1332 C1347 0.930 . S
C1333 H1321 0.930 . S
C1333 C1334 1.399 . S
C1333 C1338 1.399 . S
C1334 C1333 1.399 . S
C1334 C1335 1.376 . S
C1335 H1322 0.930 . S
C1335 C1334 1.376 . S
C1335 C1336 1.388 . S
C1336 H1323 0.930 . S
C1336 C1335 1.388 . S
C1336 C1337 1.390 . S
C1337 C1336 1.390 . S
C1337 C1338 1.394 . S
C1337 C1343 1.465 1_554 S
C1338 C1333 1.399 . S
C1338 C1337 1.394 . S
C1338 C1339 1.516 . S
C1339 C1338 1.516 . S
C1339 C1340 1.502 . S
C1339 C1341 1.561 . S
C1339 C1342 1.572 . S
C1340 H1324 0.959 . S
C1340 H1325 0.959 . S
C1340 H1326 0.961 . S
C1340 C1339 1.502 . S
C1341 H1327 0.960 . S
C1341 H1328 0.961 . S
C1341 H1329 0.959 . S
C1341 C1339 1.561 . S
C1342 C1339 1.572 . S
C1342 C1343 1.383 1_554 S
C1342 C1347 1.359 1_554 S
C1343 C1337 1.465 1_556 S
C1343 C1342 1.383 1_556 S
C1343 C1344 1.399 . S
C1344 H1330 0.929 . S
C1344 C1343 1.399 . S
C1344 C1345 1.385 . S
C1345 H1331 0.931 . S
C1345 C1344 1.385 . S
C1345 C1346 1.389 . S
C1346 C1345 1.389 . S
C1346 C1347 1.387 . S
C1347 H1332 0.930 . S
C1347 C1342 1.359 1_556 S
C1347 C1346 1.387 . S
H1348 C1360 0.930 . S
H1349 C1362 0.930 . S
H1350 C1363 0.930 . S
H1351 C1367 0.959 . S
H1352 C1367 0.959 . S
H1353 C1367 0.961 . S
H1354 C1368 0.960 . S
H1355 C1368 0.961 . S
H1356 C1368 0.959 . S
H1357 C1371 0.929 . S
H1358 C1372 0.931 . S
H1359 C1374 0.930 . S
C1360 H1348 0.930 . S
C1360 C1361 1.399 . S
C1360 C1365 1.399 . S
C1361 C1360 1.399 . S
C1361 C1362 1.376 . S
C1362 H1349 0.930 . S
C1362 C1361 1.376 . S
C1362 C1363 1.388 . S
C1363 H1350 0.930 . S
C1363 C1362 1.388 . S
C1363 C1364 1.390 . S
C1364 C1363 1.390 . S
C1364 C1365 1.394 . S
C1364 C1370 1.465 . S
C1365 C1360 1.399 . S
C1365 C1364 1.394 . S
C1365 C1366 1.516 . S
C1366 C1365 1.516 . S
C1366 C1367 1.502 . S
C1366 C1368 1.561 . S
C1366 C1369 1.526 . S
C1367 H1351 0.959 . S
C1367 H1352 0.959 . S
C1367 H1353 0.961 . S
C1367 C1366 1.502 . S
C1368 H1354 0.960 . S
C1368 H1355 0.961 . S
C1368 H1356 0.959 . S
C1368 C1366 1.561 . S
C1369 C1366 1.526 . S
C1369 C1370 1.396 . S
C1369 C1374 1.390 . S
C1370 C1364 1.465 . S
C1370 C1369 1.396 . S
C1370 C1371 1.399 . S
C1371 H1357 0.929 . S
C1371 C1370 1.399 . S
C1371 C1372 1.385 . S
C1372 H1358 0.931 . S
C1372 C1371 1.385 . S
C1372 C1373 1.389 . S
C1373 C1372 1.389 . S
C1373 C1374 1.387 . S
C1374 H1359 0.930 . S
C1374 C1369 1.390 . S
C1374 C1373 1.387 . S
H1375 C1387 0.930 . S
H1376 C1389 0.930 . S
H1377 C1390 0.930 . S
H1378 C1394 0.959 . S
H1379 C1394 0.959 . S
H1380 C1394 0.961 . S
H1381 C1395 0.960 . S
H1382 C1395 0.959 . S
H1383 C1395 0.942 1_554 S
H1384 C1398 0.929 . S
H1385 C1399 0.931 . S
H1386 C1401 0.930 . S
C1387 H1375 0.930 . S
C1387 C1388 1.399 . S
C1387 C1392 1.399 . S
C1388 C1387 1.399 . S
C1388 C1389 1.376 . S
C1389 H1376 0.930 . S
C1389 C1388 1.376 . S
C1389 C1390 1.388 . S
C1390 H1377 0.930 . S
C1390 C1389 1.388 . S
C1390 C1391 1.390 . S
C1391 C1390 1.390 . S
C1391 C1392 1.394 . S
C1391 C1397 1.465 1_556 S
C1392 C1387 1.399 . S
C1392 C1391 1.394 . S
C1392 C1393 1.516 . S
C1393 C1392 1.516 . S
C1393 C1394 1.502 . S
C1393 C1395 1.561 . S
C1393 C1396 1.526 1_556 S
C1394 H1378 0.959 . S
C1394 H1379 0.959 . S
C1394 H1380 0.961 . S
C1394 C1393 1.502 . S
C1395 H1381 0.960 . S
C1395 H1382 0.959 . S
C1395 H1383 0.942 1_556 S
C1395 C1393 1.561 . S
C1396 C1393 1.526 1_554 S
C1396 C1397 1.396 . S
C1396 C1401 1.390 . S
C1397 C1391 1.465 1_554 S
C1397 C1396 1.396 . S
C1397 C1398 1.399 . S
C1398 H1384 0.929 . S
C1398 C1397 1.399 . S
C1398 C1399 1.385 . S
C1399 H1385 0.931 . S
C1399 C1398 1.385 . S
C1399 C1400 1.389 . S
C1400 C1399 1.389 . S
C1400 C1401 1.387 . S
C1401 H1386 0.930 . S
C1401 C1396 1.390 . S
C1401 C1400 1.387 . S
H1402 C1414 0.930 . S
H1403 C1416 0.930 . S
H1404 C1417 0.930 . S
H1405 C1421 0.959 . S
H1406 C1421 0.959 . S
H1407 C1421 0.961 . S
H1408 C1422 0.960 . S
H1409 C1422 0.961 . S
H1410 C1422 0.959 . S
H1411 C1425 0.929 . S
H1412 C1426 0.931 . S
H1413 C1428 0.930 . S
C1414 H1402 0.930 . S
C1414 C1415 1.399 . S
C1414 C1419 1.399 . S
C1415 C1414 1.399 . S
C1415 C1416 1.376 . S
C1416 H1403 0.930 . S
C1416 C1415 1.376 . S
C1416 C1417 1.388 . S
C1417 H1404 0.930 . S
C1417 C1416 1.388 . S
C1417 C1418 1.390 . S
C1418 C1417 1.390 . S
C1418 C1419 1.394 . S
C1418 C1424 1.465 . S
C1419 C1414 1.399 . S
C1419 C1418 1.394 . S
C1419 C1420 1.516 . S
C1420 C1419 1.516 . S
C1420 C1421 1.502 . S
C1420 C1422 1.561 . S
C1420 C1423 1.526 . S
C1421 H1405 0.959 . S
C1421 H1406 0.959 . S
C1421 H1407 0.961 . S
C1421 C1420 1.502 . S
C1422 H1408 0.960 . S
C1422 H1409 0.961 . S
C1422 H1410 0.959 . S
C1422 C1420 1.561 . S
C1423 C1420 1.526 . S
C1423 C1424 1.396 . S
C1423 C1428 1.390 . S
C1424 C1418 1.465 . S
C1424 C1423 1.396 . S
C1424 C1425 1.399 . S
C1425 H1411 0.929 . S
C1425 C1424 1.399 . S
C1425 C1426 1.385 . S
C1426 H1412 0.931 . S
C1426 C1425 1.385 . S
C1426 C1427 1.389 . S
C1427 C1426 1.389 . S
C1427 C1428 1.387 . S
C1428 H1413 0.930 . S
C1428 C1423 1.390 . S
C1428 C1427 1.387 . S
H1429 C1441 0.930 . S
H1430 C1443 0.930 . S
H1431 C1444 0.930 . S
H1432 C1448 0.959 1_554 S
H1433 C1448 0.959 1_554 S
H1434 C1448 0.961 . S
H1435 C1449 0.996 . S
H1436 C1449 0.955 1_554 S
H1437 C1449 0.941 1_554 S
H1438 C1452 0.929 . S
H1439 C1453 0.931 . S
H1440 C1455 0.930 . S
C1441 H1429 0.930 . S
C1441 C1442 1.399 . S
C1441 C1446 1.399 1_556 S
C1442 C1441 1.399 . S
C1442 C1443 1.376 1_556 S
C1443 H1430 0.930 . S
C1443 C1442 1.376 1_554 S
C1443 C1444 1.388 . S
C1444 H1431 0.930 . S
C1444 C1443 1.388 . S
C1444 C1445 1.390 . S
C1445 C1444 1.390 . S
C1445 C1446 1.394 . S
C1445 C1451 1.465 . S
C1446 C1441 1.399 1_554 S
C1446 C1445 1.394 . S
C1446 C1447 1.516 . S
C1447 C1446 1.516 . S
C1447 C1448 1.502 1_554 S
C1447 C1449 1.550 1_554 S
C1447 C1450 1.526 . S
C1448 H1432 0.959 1_556 S
C1448 H1433 0.959 1_556 S
C1448 H1434 0.961 . S
C1448 C1447 1.502 1_556 S
C1449 H1435 0.996 . S
C1449 H1436 0.955 1_556 S
C1449 H1437 0.941 1_556 S
C1449 C1447 1.550 1_556 S
C1450 C1447 1.526 . S
C1450 C1451 1.396 . S
C1450 C1455 1.390 . S
C1451 C1445 1.465 . S
C1451 C1450 1.396 . S
C1451 C1452 1.399 . S
C1452 H1438 0.929 . S
C1452 C1451 1.399 . S
C1452 C1453 1.385 . S
C1453 H1439 0.931 . S
C1453 C1452 1.385 . S
C1453 C1454 1.389 . S
C1454 C1453 1.389 . S
C1454 C1455 1.387 . S
C1455 H1440 0.930 . S
C1455 C1450 1.390 . S
C1455 C1454 1.387 . S
H1456 C1468 0.930 . S
H1457 C1470 0.930 . S
H1458 C1471 0.930 . S
H1459 C1475 0.959 . S
H1460 C1475 0.959 . S
H1461 C1475 0.961 . S
H1462 C1476 0.960 . S
H1463 C1476 0.961 . S
H1464 C1476 0.959 . S
H1465 C1479 0.929 . S
H1466 C1480 0.931 . S
H1467 C1482 0.930 . S
C1468 H1456 0.930 . S
C1468 C1469 1.399 . S
C1468 C1473 1.399 . S
C1469 C1468 1.399 . S
C1469 C1470 1.376 . S
C1470 H1457 0.930 . S
C1470 C1469 1.376 . S
C1470 C1471 1.388 . S
C1471 H1458 0.930 . S
C1471 C1470 1.388 . S
C1471 C1472 1.390 . S
C1472 C1471 1.390 . S
C1472 C1473 1.394 . S
C1472 C1478 1.465 . S
C1473 C1468 1.399 . S
C1473 C1472 1.394 . S
C1473 C1474 1.516 . S
C1474 C1473 1.516 . S
C1474 C1475 1.502 . S
C1474 C1476 1.561 . S
C1474 C1477 1.526 . S
C1475 H1459 0.959 . S
C1475 H1460 0.959 . S
C1475 H1461 0.961 . S
C1475 C1474 1.502 . S
C1476 H1462 0.960 . S
C1476 H1463 0.961 . S
C1476 H1464 0.959 . S
C1476 C1474 1.561 . S
C1477 C1474 1.526 . S
C1477 C1478 1.396 . S
C1477 C1482 1.390 . S
C1478 C1472 1.465 . S
C1478 C1477 1.396 . S
C1478 C1479 1.399 . S
C1479 H1465 0.929 . S
C1479 C1478 1.399 . S
C1479 C1480 1.385 . S
C1480 H1466 0.931 . S
C1480 C1479 1.385 . S
C1480 C1481 1.389 . S
C1481 C1480 1.389 . S
C1481 C1482 1.387 . S
C1482 H1467 0.930 . S
C1482 C1477 1.390 . S
C1482 C1481 1.387 . S
H1483 C1495 0.930 . S
H1484 C1497 0.930 . S
H1485 C1498 0.930 . S
H1486 C1502 0.959 . S
H1487 C1502 0.959 . S
H1488 C1502 0.961 . S
H1489 C1503 0.960 . S
H1490 C1503 0.961 . S
H1491 C1503 0.959 . S
H1492 C1506 0.929 . S
H1493 C1507 0.931 . S
H1494 C1509 0.930 . S
C1495 H1483 0.930 . S
C1495 C1496 1.399 . S
C1495 C1500 1.399 . S
C1496 C1495 1.399 . S
C1496 C1497 1.376 . S
C1497 H1484 0.930 . S
C1497 C1496 1.376 . S
C1497 C1498 1.388 . S
C1498 H1485 0.930 . S
C1498 C1497 1.388 . S
C1498 C1499 1.390 . S
C1499 C1498 1.390 . S
C1499 C1500 1.394 . S
C1499 C1505 1.465 . S
C1500 C1495 1.399 . S
C1500 C1499 1.394 . S
C1500 C1501 1.516 . S
C1501 C1500 1.516 . S
C1501 C1502 1.502 . S
C1501 C1503 1.561 . S
C1501 C1504 1.526 . S
C1502 H1486 0.959 . S
C1502 H1487 0.959 . S
C1502 H1488 0.961 . S
C1502 C1501 1.502 . S
C1503 H1489 0.960 . S
C1503 H1490 0.961 . S
C1503 H1491 0.959 . S
C1503 C1501 1.561 . S
C1504 C1501 1.526 . S
C1504 C1505 1.396 . S
C1504 C1509 1.390 . S
C1505 C1499 1.465 . S
C1505 C1504 1.396 . S
C1505 C1506 1.399 . S
C1506 H1492 0.929 . S
C1506 C1505 1.399 . S
C1506 C1507 1.385 . S
C1507 H1493 0.931 . S
C1507 C1506 1.385 . S
C1507 C1508 1.389 . S
C1508 C1507 1.389 . S
C1508 C1509 1.387 . S
C1509 H1494 0.930 . S
C1509 C1504 1.390 . S
C1509 C1508 1.387 . S
H1510 C1522 0.930 . S
H1511 C1524 0.930 . S
H1512 C1525 0.930 . S
H1513 C1529 0.959 . S
H1514 C1529 0.959 . S
H1515 C1529 0.961 . S
H1516 C1530 0.960 . S
H1517 C1530 0.961 . S
H1518 C1530 0.959 . S
H1519 C1533 0.929 . S
H1520 C1534 0.931 . S
H1521 C1536 0.930 . S
C1522 H1510 0.930 . S
C1522 C1523 1.399 . S
C1522 C1527 1.399 . S
C1523 C1522 1.399 . S
C1523 C1524 1.376 . S
C1524 H1511 0.930 . S
C1524 C1523 1.376 . S
C1524 C1525 1.388 . S
C1525 H1512 0.930 . S
C1525 C1524 1.388 . S
C1525 C1526 1.390 . S
C1526 C1525 1.390 . S
C1526 C1527 1.394 . S
C1526 C1532 1.465 . S
C1527 C1522 1.399 . S
C1527 C1526 1.394 . S
C1527 C1528 1.516 . S
C1528 C1527 1.516 . S
C1528 C1529 1.502 . S
C1528 C1530 1.561 . S
C1528 C1531 1.526 . S
C1529 H1513 0.959 . S
C1529 H1514 0.959 . S
C1529 H1515 0.961 . S
C1529 C1528 1.502 . S
C1530 H1516 0.960 . S
C1530 H1517 0.961 . S
C1530 H1518 0.959 . S
C1530 C1528 1.561 . S
C1531 C1528 1.526 . S
C1531 C1532 1.396 . S
C1531 C1536 1.390 . S
C1532 C1526 1.465 . S
C1532 C1531 1.396 . S
C1532 C1533 1.399 . S
C1533 H1519 0.929 . S
C1533 C1532 1.399 . S
C1533 C1534 1.385 . S
C1534 H1520 0.931 . S
C1534 C1533 1.385 . S
C1534 C1535 1.389 . S
C1535 C1534 1.389 . S
C1535 C1536 1.387 . S
C1536 H1521 0.930 . S
C1536 C1531 1.390 . S
C1536 C1535 1.387 . S
H1537 C1549 0.930 . S
H1538 C1551 0.930 . S
H1539 C1552 0.930 . S
H1540 C1556 0.959 . S
H1541 C1556 0.959 . S
H1542 C1556 0.961 . S
H1543 C1557 0.960 . S
H1544 C1557 0.961 . S
H1545 C1557 0.959 . S
H1546 C1560 0.929 . S
H1547 C1561 0.931 . S
H1548 C1563 0.930 . S
C1549 H1537 0.930 . S
C1549 C1550 1.399 . S
C1549 C1554 1.399 . S
C1550 C1549 1.399 . S
C1550 C1551 1.376 . S
C1551 H1538 0.930 . S
C1551 C1550 1.376 . S
C1551 C1552 1.388 . S
C1552 H1539 0.930 . S
C1552 C1551 1.388 . S
C1552 C1553 1.390 . S
C1553 C1552 1.390 . S
C1553 C1554 1.394 . S
C1553 C1559 1.465 . S
C1554 C1549 1.399 . S
C1554 C1553 1.394 . S
C1554 C1555 1.516 . S
C1555 C1554 1.516 . S
C1555 C1556 1.502 . S
C1555 C1557 1.561 . S
C1555 C1558 1.526 . S
C1556 H1540 0.959 . S
C1556 H1541 0.959 . S
C1556 H1542 0.961 . S
C1556 C1555 1.502 . S
C1557 H1543 0.960 . S
C1557 H1544 0.961 . S
C1557 H1545 0.959 . S
C1557 C1555 1.561 . S
C1558 C1555 1.526 . S
C1558 C1559 1.396 . S
C1558 C1563 1.390 . S
C1559 C1553 1.465 . S
C1559 C1558 1.396 . S
C1559 C1560 1.399 . S
C1560 H1546 0.929 . S
C1560 C1559 1.399 . S
C1560 C1561 1.385 . S
C1561 H1547 0.931 . S
C1561 C1560 1.385 . S
C1561 C1562 1.389 . S
C1562 C1561 1.389 . S
C1562 C1563 1.387 . S
C1563 H1548 0.930 . S
C1563 C1558 1.390 . S
C1563 C1562 1.387 . S
H1564 C1576 0.930 . S
H1565 C1578 0.930 . S
H1566 C1579 0.930 . S
H1567 C1583 0.959 . S
H1568 C1583 0.959 . S
H1569 C1583 0.961 . S
H1570 C1584 0.960 . S
H1571 C1584 0.961 . S
H1572 C1584 0.959 . S
H1573 C1587 0.929 1_554 S
H1574 C1588 0.931 . S
H1575 C1590 0.930 . S
C1576 H1564 0.930 . S
C1576 C1577 1.399 . S
C1576 C1581 1.399 . S
C1577 C1576 1.399 . S
C1577 C1578 1.376 . S
C1578 H1565 0.930 . S
C1578 C1577 1.376 . S
C1578 C1579 1.388 . S
C1579 H1566 0.930 . S
C1579 C1578 1.388 . S
C1579 C1580 1.390 . S
C1580 C1579 1.390 . S
C1580 C1581 1.394 . S
C1580 C1586 1.465 . S
C1581 C1576 1.399 . S
C1581 C1580 1.394 . S
C1581 C1582 1.516 . S
C1582 C1581 1.516 . S
C1582 C1583 1.502 . S
C1582 C1584 1.561 . S
C1582 C1585 1.526 . S
C1583 H1567 0.959 . S
C1583 H1568 0.959 . S
C1583 H1569 0.961 . S
C1583 C1582 1.502 . S
C1584 H1570 0.960 . S
C1584 H1571 0.961 . S
C1584 H1572 0.959 . S
C1584 C1582 1.561 . S
C1585 C1582 1.526 . S
C1585 C1586 1.396 . S
C1585 C1590 1.390 . S
C1586 C1580 1.465 . S
C1586 C1585 1.396 . S
C1586 C1587 1.399 . S
C1587 H1573 0.929 1_556 S
C1587 C1586 1.399 . S
C1587 C1588 1.385 1_556 S
C1588 H1574 0.931 . S
C1588 C1587 1.385 1_554 S
C1588 C1589 1.389 1_554 S
C1589 C1588 1.389 1_556 S
C1589 C1590 1.387 . S
C1590 H1575 0.930 . S
C1590 C1585 1.390 . S
C1590 C1589 1.387 . S
H1591 C1603 0.930 . S
H1592 C1605 0.930 . S
H1593 C1606 0.930 . S
H1594 C1610 0.959 . S
H1595 C1610 0.959 . S
H1596 C1610 0.961 . S
H1597 C1611 0.960 . S
H1598 C1611 0.961 . S
H1599 C1611 0.959 . S
H1600 C1614 0.929 . S
H1601 C1615 0.931 . S
H1602 C1617 0.930 . S
C1603 H1591 0.930 . S
C1603 C1604 1.399 . S
C1603 C1608 1.399 . S
C1604 C1603 1.399 . S
C1604 C1605 1.376 . S
C1605 H1592 0.930 . S
C1605 C1604 1.376 . S
C1605 C1606 1.388 . S
C1606 H1593 0.930 . S
C1606 C1605 1.388 . S
C1606 C1607 1.390 . S
C1607 C1606 1.390 . S
C1607 C1608 1.394 . S
C1607 C1613 1.465 . S
C1608 C1603 1.399 . S
C1608 C1607 1.394 . S
C1608 C1609 1.516 . S
C1609 C1608 1.516 . S
C1609 C1610 1.502 . S
C1609 C1611 1.561 . S
C1609 C1612 1.526 . S
C1610 H1594 0.959 . S
C1610 H1595 0.959 . S
C1610 H1596 0.961 . S
C1610 C1609 1.502 . S
C1611 H1597 0.960 . S
C1611 H1598 0.961 . S
C1611 H1599 0.959 . S
C1611 C1609 1.561 . S
C1612 C1609 1.526 . S
C1612 C1613 1.396 . S
C1612 C1617 1.390 . S
C1613 C1607 1.465 . S
C1613 C1612 1.396 . S
C1613 C1614 1.399 . S
C1614 H1600 0.929 . S
C1614 C1613 1.399 . S
C1614 C1615 1.385 . S
C1615 H1601 0.931 . S
C1615 C1614 1.385 . S
C1615 C1616 1.389 . S
C1616 C1615 1.389 . S
C1616 C1617 1.387 . S
C1617 H1602 0.930 . S
C1617 C1612 1.390 . S
C1617 C1616 1.387 . S
H1618 C1630 0.930 . S
H1619 C1632 0.930 . S
H1620 C1633 0.930 . S
H1621 C1637 0.959 . S
H1622 C1637 0.959 . S
H1623 C1637 0.961 . S
H1624 C1638 0.960 . S
H1625 C1638 0.961 . S
H1626 C1638 0.959 . S
H1627 C1641 0.929 . S
H1628 C1642 0.931 . S
H1629 C1644 0.930 . S
C1630 H1618 0.930 . S
C1630 C1631 1.399 . S
C1630 C1635 1.399 . S
C1631 C1630 1.399 . S
C1631 C1632 1.376 . S
C1632 H1619 0.930 . S
C1632 C1631 1.376 . S
C1632 C1633 1.388 . S
C1633 H1620 0.930 . S
C1633 C1632 1.388 . S
C1633 C1634 1.390 . S
C1634 C1633 1.390 . S
C1634 C1635 1.394 . S
C1634 C1640 1.465 . S
C1635 C1630 1.399 . S
C1635 C1634 1.394 . S
C1635 C1636 1.516 . S
C1636 C1635 1.516 . S
C1636 C1637 1.502 . S
C1636 C1638 1.561 . S
C1636 C1639 1.526 . S
C1637 H1621 0.959 . S
C1637 H1622 0.959 . S
C1637 H1623 0.961 . S
C1637 C1636 1.502 . S
C1638 H1624 0.960 . S
C1638 H1625 0.961 . S
C1638 H1626 0.959 . S
C1638 C1636 1.561 . S
C1639 C1636 1.526 . S
C1639 C1640 1.396 . S
C1639 C1644 1.390 . S
C1640 C1634 1.465 . S
C1640 C1639 1.396 . S
C1640 C1641 1.399 . S
C1641 H1627 0.929 . S
C1641 C1640 1.399 . S
C1641 C1642 1.385 . S
C1642 H1628 0.931 . S
C1642 C1641 1.385 . S
C1642 C1643 1.389 . S
C1643 C1642 1.389 . S
C1643 C1644 1.387 . S
C1644 H1629 0.930 . S
C1644 C1639 1.390 . S
C1644 C1643 1.387 . S
H1645 C1657 0.930 . S
H1646 C1659 0.930 . S
H1647 C1660 0.930 . S
H1648 C1664 0.959 . S
H1649 C1664 0.959 . S
H1650 C1664 0.961 . S
H1651 C1665 0.960 . S
H1652 C1665 0.961 . S
H1653 C1665 0.959 . S
H1654 C1668 0.929 . S
H1655 C1669 0.931 1_565 S
H1656 C1671 0.930 . S
C1657 H1645 0.930 . S
C1657 C1658 1.399 . S
C1657 C1662 1.399 . S
C1658 C1657 1.399 . S
C1658 C1659 1.376 . S
C1659 H1646 0.930 . S
C1659 C1658 1.376 . S
C1659 C1660 1.388 . S
C1660 H1647 0.930 . S
C1660 C1659 1.388 . S
C1660 C1661 1.390 . S
C1661 C1660 1.390 . S
C1661 C1662 1.394 . S
C1661 C1667 1.465 . S
C1662 C1657 1.399 . S
C1662 C1661 1.394 . S
C1662 C1663 1.516 . S
C1663 C1662 1.516 . S
C1663 C1664 1.502 . S
C1663 C1665 1.561 . S
C1663 C1666 1.526 . S
C1664 H1648 0.959 . S
C1664 H1649 0.959 . S
C1664 H1650 0.961 . S
C1664 C1663 1.502 . S
C1665 H1651 0.960 . S
C1665 H1652 0.961 . S
C1665 H1653 0.959 . S
C1665 C1663 1.561 . S
C1666 C1663 1.526 . S
C1666 C1667 1.396 . S
C1666 C1671 1.390 . S
C1667 C1661 1.465 . S
C1667 C1666 1.396 . S
C1667 C1668 1.399 . S
C1668 H1654 0.929 . S
C1668 C1667 1.399 . S
C1668 C1669 1.385 . S
C1669 H1655 0.931 1_545 S
C1669 C1668 1.385 . S
C1669 C1670 1.389 1_545 S
C1670 C1669 1.389 1_565 S
C1670 C1671 1.387 1_565 S
C1671 H1656 0.930 . S
C1671 C1666 1.390 . S
C1671 C1670 1.387 1_545 S
C401 C216 1.769 . S
C389 C73 1.775 . S
C428 C231 1.504 . S
C416 C82 1.490 . S
C443 C100 2.022 . S
C455 C244 1.998 . S
C482 C258 1.464 . S
C470 C56 1.306 . S
C509 C270 1.489 . S
C497 C134 1.542 . S
C536 C284 1.480 . S
C524 C165 1.460 . S
C551 C147 1.388 . S
C563 C298 1.452 . S
C590 C313 1.748 . S
C578 C125 1.768 . S
C605 C151 1.441 . S
C617 C329 1.443 . S
C644 C342 1.469 . S
C632 C121 1.339 . S
C659 C139 1.768 . S
C671 C327 1.759 . S
C698 C340 1.234 . S
C686 C164 1.248 . S
C713 C95 1.636 . S
C725 C356 1.669 . S
C740 C61 1.473 . S
C752 C355 1.476 . S
C767 C74 1.723 . S
C779 C354 1.618 . S
C794 C86 1.877 . S
C806 C357 1.874 . S
C821 C47 1.623 . S
C833 C259 1.625 . S
C848 C186 1.313 . S
C860 C257 1.351 . S
C887 C217 1.401 . S
C875 C204 1.448 . S
C914 C228 2.021 . S
C902 C112 2.018 . S
C929 C60 1.404 . S
C941 C273 1.415 . S
C968 C314 1.777 . S
C956 C152 1.780 . S
C995 C271 1.793 . S
C983 C126 1.823 . S
C1022 C299 1.300 . S
C1010 C160 1.226 . S
C1049 C300 1.771 . S
C1037 C190 1.776 . S
C1064 C199 1.473 . S
C1076 C315 1.427 . S
C1091 C113 2.017 . S
C1103 C272 1.997 . S
C1130 C286 1.415 . S
C1118 C173 1.393 . S
C1145 C43 1.506 . S
C1157 C242 1.416 . S
C1184 C256 1.459 . S
C1172 C9 1.438 . S
C1211 C214 1.453 . S
C1199 C17 1.387 . S
C1238 C229 1.749 . S
C1226 C34 1.776 . S
C1253 C21 1.441 . S
C1265 C343 1.443 . S
C1280 C30 1.442 . S
C1292 C328 1.402 . S
C1307 C48 1.752 . S
C1319 C341 1.720 . S
C1334 C8 1.200 . S
C1346 C326 1.253 . S
C1373 C370 1.667 . S
C1361 C108 1.640 . S
C1400 C369 1.456 . S
C1388 C178 1.408 . S
C1427 C368 1.680 . S
C1415 C191 1.704 . S
C1442 C203 1.876 . S
C1454 C371 1.874 . S
C1469 C138 1.628 . S
C1481 C287 1.608 . S
C1508 C285 1.333 . S
C1496 C69 1.338 . S
C1535 C301 1.448 . S
C1523 C87 1.439 . S
C1562 C312 2.021 . S
C1550 C99 2.018 . S
C1577 C177 1.374 . S
C1589 C245 1.397 . S
C1616 C230 1.782 . S
C1604 C22 1.781 . S
C1631 C35 1.780 . S
C1643 C243 1.790 . S
C1670 C215 1.297 . S
C1658 C4 1.236 . S
