# Generated by pormake.
# Topology zzz, (3,6)-cn, num edge types: 1
# Building blocks:
#     Node 0, Type 0, BuildingBlock: KAKCAD_clean_linker_0, # of connection points: 3
#     Node 1, Type 0, BuildingBlock: KAKCAD_clean_linker_0, # of connection points: 3
#     Node 2, Type 0, BuildingBlock: KAKCAD_clean_linker_0, # of connection points: 3
#     Node 3, Type 0, BuildingBlock: KAKCAD_clean_linker_0, # of connection points: 3
#     Node 4, Type 0, BuildingBlock: KAKCAD_clean_linker_0, # of connection points: 3
#     Node 5, Type 0, BuildingBlock: KAKCAD_clean_linker_0, # of connection points: 3
#     Node 6, Type 0, BuildingBlock: KAKCAD_clean_linker_0, # of connection points: 3
#     Node 7, Type 0, BuildingBlock: KAKCAD_clean_linker_0, # of connection points: 3
#     Node 8, Type 1, BuildingBlock: KUMJIN_clean_sbu_0, # of connection points: 6
#     Node 9, Type 1, BuildingBlock: KUMJIN_clean_sbu_0, # of connection points: 6
#     Node 10, Type 1, BuildingBlock: KUMJIN_clean_sbu_0, # of connection points: 6
#     Node 11, Type 1, BuildingBlock: KUMJIN_clean_sbu_0, # of connection points: 6
#     Edge 12, Type (0, 1), BuildingBlock: MIFKUJ_clean_linker_0, # of connection points: 2
#     Edge 13, Type (0, 1), BuildingBlock: MIFKUJ_clean_linker_0, # of connection points: 2
#     Edge 14, Type (0, 1), BuildingBlock: MIFKUJ_clean_linker_0, # of connection points: 2
#     Edge 15, Type (0, 1), BuildingBlock: MIFKUJ_clean_linker_0, # of connection points: 2
#     Edge 16, Type (0, 1), BuildingBlock: MIFKUJ_clean_linker_0, # of connection points: 2
#     Edge 17, Type (0, 1), BuildingBlock: MIFKUJ_clean_linker_0, # of connection points: 2
#     Edge 18, Type (0, 1), BuildingBlock: MIFKUJ_clean_linker_0, # of connection points: 2
#     Edge 19, Type (0, 1), BuildingBlock: MIFKUJ_clean_linker_0, # of connection points: 2
#     Edge 20, Type (0, 1), BuildingBlock: MIFKUJ_clean_linker_0, # of connection points: 2
#     Edge 21, Type (0, 1), BuildingBlock: MIFKUJ_clean_linker_0, # of connection points: 2
#     Edge 22, Type (0, 1), BuildingBlock: MIFKUJ_clean_linker_0, # of connection points: 2
#     Edge 23, Type (0, 1), BuildingBlock: MIFKUJ_clean_linker_0, # of connection points: 2
#     Edge 24, Type (0, 1), BuildingBlock: MIFKUJ_clean_linker_0, # of connection points: 2
#     Edge 25, Type (0, 1), BuildingBlock: MIFKUJ_clean_linker_0, # of connection points: 2
#     Edge 26, Type (0, 1), BuildingBlock: MIFKUJ_clean_linker_0, # of connection points: 2
#     Edge 27, Type (0, 1), BuildingBlock: MIFKUJ_clean_linker_0, # of connection points: 2
#     Edge 28, Type (0, 1), BuildingBlock: MIFKUJ_clean_linker_0, # of connection points: 2
#     Edge 29, Type (0, 1), BuildingBlock: MIFKUJ_clean_linker_0, # of connection points: 2
#     Edge 30, Type (0, 1), BuildingBlock: MIFKUJ_clean_linker_0, # of connection points: 2
#     Edge 31, Type (0, 1), BuildingBlock: MIFKUJ_clean_linker_0, # of connection points: 2
#     Edge 32, Type (0, 1), BuildingBlock: MIFKUJ_clean_linker_0, # of connection points: 2
#     Edge 33, Type (0, 1), BuildingBlock: MIFKUJ_clean_linker_0, # of connection points: 2
#     Edge 34, Type (0, 1), BuildingBlock: MIFKUJ_clean_linker_0, # of connection points: 2
#     Edge 35, Type (0, 1), BuildingBlock: MIFKUJ_clean_linker_0, # of connection points: 2
# Relax obj value: 0.272
# Max RMSD: 0.226
# Mean RMSD: 0.210
data_MOF--net-zzz--node1-KUMJIN_clean_sbu_0--node2-KAKCAD_clean_linker_0--edge1-MIFKUJ_clean_linker_0
_symmetry_space_group_name_H-M    P1
_symmetry_Int_Tables_number       1
_symmetry_cell_setting            triclinic
loop_
_symmetry_equiv_pos_as_xyz
'x, y, z'
_cell_length_a     71.849331
_cell_length_b     71.793917
_cell_length_c     25.001705
_cell_angle_alpha  90.146075
_cell_angle_beta   89.987746
_cell_angle_gamma 89.907658
loop_
_atom_site_label
_atom_site_type_symbol
_atom_site_fract_x
_atom_site_fract_y
_atom_site_fract_z
_atom_type_partial_charge
C0 C 0.77827 0.59594 0.99109 0.0
C1 C 0.79648 0.58884 0.99107 0.0
C2 C 0.76469 0.58793 0.02414 0.0
C3 C 0.76919 0.57261 0.05676 0.0
C4 C 0.78727 0.56518 0.05456 0.0
C5 C 0.80075 0.57327 0.02247 0.0
C6 C 0.7555 0.56423 0.09394 0.0
C7 C 0.73714 0.56072 0.07828 0.0
C8 C 0.72489 0.55086 0.11185 0.0
C9 C 0.73143 0.54422 0.16187 0.0
C10 C 0.74978 0.54837 0.17846 0.0
C11 C 0.76139 0.55854 0.1446 0.0
C12 C 0.75827 0.54207 0.22946 0.0
C13 C 0.76251 0.55556 0.26841 0.0
C14 C 0.76796 0.52505 0.23048 0.0
C15 C 0.78268 0.52225 0.26661 0.0
C16 C 0.78813 0.53652 0.30206 0.0
C17 C 0.70566 0.54731 0.09187 0.0
C18 C 0.6951 0.56218 0.07133 0.0
C19 C 0.69892 0.52909 0.08532 0.0
C20 C 0.68255 0.52578 0.05603 0.0
C21 C 0.67247 0.54064 0.03311 0.0
C22 C 0.67872 0.55891 0.04255 0.0
C23 C 0.77724 0.55283 0.30428 0.0
H24 H 0.77468 0.60777 0.96633 0.0
H25 H 0.75083 0.59389 0.02489 0.0
H26 H 0.79105 0.553 0.07764 0.0
H27 H 0.81456 0.56716 0.02164 0.0
H28 H 0.73256 0.56498 0.03884 0.0
H29 H 0.77547 0.56167 0.15758 0.0
H30 H 0.72234 0.53625 0.18767 0.0
H31 H 0.7556 0.56899 0.26768 0.0
H32 H 0.7654 0.51466 0.19988 0.0
H33 H 0.79077 0.50956 0.26357 0.0
H34 H 0.69998 0.57638 0.07559 0.0
H35 H 0.70685 0.51735 0.10023 0.0
H36 H 0.78084 0.56399 0.33158 0.0
H37 H 0.6715 0.5707 0.02528 0.0
H38 H 0.67803 0.51154 0.05016 0.0
C39 C 0.92722 0.79763 0.94844 0.0
C40 C 0.93007 0.81692 0.9534 0.0
C41 C 0.93748 0.78512 0.97978 0.0
C42 C 0.95109 0.79167 0.01576 0.0
C43 C 0.9536 0.81105 0.02086 0.0
C44 C 0.94309 0.82347 0.99065 0.0
C45 C 0.96346 0.77865 0.04593 0.0
C46 C 0.96985 0.76193 0.02292 0.0
C47 C 0.98327 0.75078 0.04878 0.0
C48 C 0.99079 0.75691 0.09823 0.0
C49 C 0.9845 0.77378 0.12143 0.0
C50 C 0.97038 0.7839 0.09615 0.0
C51 C 0.99361 0.7831 0.16776 0.0
C52 C 0.98667 0.78075 0.21979 0.0
C53 C 0.00517 0.79844 0.15751 0.0
C54 C 0.00866 0.81183 0.1971 0.0
C55 C 1.00084 0.81024 0.24868 0.0
C56 C 0.98964 0.73334 0.02132 0.0
C57 C 0.98728 0.71576 0.04494 0.0
C58 C 0.99587 0.73411 0.96804 0.0
C59 C 0.99898 0.71779 0.93843 0.0
C60 C 0.9957 0.7001 0.96079 0.0
C61 C 0.99021 0.69934 0.01503 0.0
C62 C 0.99043 0.79401 0.25994 0.0
H63 H 0.91733 0.79226 0.91958 0.0
H64 H 0.93495 0.77035 0.97513 0.0
H65 H 0.9643 0.8168 0.04649 0.0
H66 H 0.94596 0.83823 0.99422 0.0
H67 H 0.96478 0.75773 0.98392 0.0
H68 H 0.96541 0.79657 0.11506 0.0
H69 H 1.00182 0.74905 0.11727 0.0
H70 H 0.97733 0.76932 0.2285 0.0
H71 H 0.01022 0.80093 0.11731 0.0
H72 H 0.01646 0.82406 0.18566 0.0
H73 H 0.98227 0.71471 0.08568 0.0
H74 H 0.9979 0.74745 0.94874 0.0
H75 H 0.98449 0.79185 0.29919 0.0
H76 H 0.9874 0.68609 0.03392 0.0
H77 H 1.00372 0.71914 0.89753 0.0
C78 C 0.71512 0.91931 0.97353 0.0
C79 C 0.69653 0.92451 0.98225 0.0
C80 C 0.7293 0.92674 0.00572 0.0
C81 C 0.72514 0.93995 0.0459 0.0
C82 C 0.7064 0.94507 0.05373 0.0
C83 C 0.69234 0.93721 0.02308 0.0
C84 C 0.73999 0.94905 0.07862 0.0
C85 C 0.75767 0.95286 0.05741 0.0
C86 C 0.77111 0.9629 0.08687 0.0
C87 C 0.76602 0.97035 0.13754 0.0
C88 C 0.74832 0.96631 0.15952 0.0
C89 C 0.73597 0.95512 0.1306 0.0
C90 C 0.74107 0.97413 0.21073 0.0
C91 C 0.73553 0.96173 0.25119 0.0
C92 C 0.73393 0.99238 0.21181 0.0
C93 C 0.72036 0.99757 0.24965 0.0
C94 C 0.71351 0.98455 0.28686 0.0
C95 C 0.79011 0.96528 0.06278 0.0
C96 C 0.79844 0.95022 0.03545 0.0
C97 C 0.79938 0.98254 0.06244 0.0
C98 C 0.816 0.98485 0.03316 0.0
C99 C 0.82368 0.96997 1.00343 0.0
C100 C 0.81485 0.95255 0.00614 0.0
C101 C 0.72192 0.96685 0.28865 0.0
H102 H 0.71864 0.9097 0.94162 0.0
H103 H 0.74348 0.92224 0.99868 0.0
H104 H 0.70246 0.95569 0.08236 0.0
H105 H 0.67816 0.94182 0.02956 0.0
H106 H 0.76089 0.94849 0.01696 0.0
H107 H 0.72267 0.95171 0.14856 0.0
H108 H 0.77579 0.97874 0.16007 0.0
H109 H 0.74049 0.94747 0.25075 0.0
H110 H 0.73752 1.00207 0.18033 0.0
H111 H 0.71418 0.01131 0.24695 0.0
H112 H 0.792 0.93659 0.03576 0.0
H113 H 0.79338 0.99445 0.08282 0.0
H114 H 0.71723 0.95656 0.31724 0.0
H115 H 0.82056 0.94064 0.98502 0.0
H116 H 0.82243 0.99848 0.03206 0.0
C117 C 0.5258 0.72917 0.24841 0.0
C118 C 0.53864 0.7235 0.28775 0.0
C119 C 0.53093 0.742 0.20885 0.0
C120 C 0.54901 0.74935 0.20769 0.0
C121 C 0.56149 0.74455 0.24865 0.0
C122 C 0.55632 0.73189 0.28857 0.0
C123 C 0.55619 0.75784 0.15779 0.0
C124 C 0.55214 0.77633 0.14241 0.0
C125 C 0.5591 0.78337 0.09351 0.0
C126 C 0.56932 0.77142 0.05976 0.0
C127 C 0.5731 0.75298 0.07433 0.0
C128 C 0.56676 0.74644 0.12376 0.0
C129 C 0.5824 0.74007 0.03636 0.0
C130 C 0.57645 0.73914 0.98293 0.0
C131 C 0.59622 0.72765 0.054 0.0
C132 C 0.60334 0.71404 0.0195 0.0
C133 C 0.59666 0.71246 0.96679 0.0
C134 C 0.55574 0.8029 0.07537 0.0
C135 C 0.53784 0.81089 0.07592 0.0
C136 C 0.57032 0.81288 0.05117 0.0
C137 C 0.56691 0.82964 0.02472 0.0
C138 C 0.54885 0.83708 0.02222 0.0
C139 C 0.53443 0.82789 0.04967 0.0
C140 C 0.58345 0.72547 0.94859 0.0
H141 H 0.51202 0.72309 0.24691 0.0
H142 H 0.5212 0.74517 0.17704 0.0
H143 H 0.57566 0.74969 0.24783 0.0
H144 H 0.5666 0.72773 0.31789 0.0
H145 H 0.54393 0.78518 0.16853 0.0
H146 H 0.56933 0.73207 0.13493 0.0
H147 H 0.57418 0.7764 0.02132 0.0
H148 H 0.56565 0.74837 0.96838 0.0
H149 H 0.60122 0.72822 0.09484 0.0
H150 H 0.61369 0.70441 0.03459 0.0
H151 H 0.5263 0.80354 0.09403 0.0
H152 H 0.58436 0.80734 0.05094 0.0
H153 H 0.57768 0.72447 0.90867 0.0
H154 H 0.52037 0.83333 0.04852 0.0
H155 H 0.57838 0.83659 0.00499 0.0
C156 C 0.23308 0.44099 0.2628 0.0
C157 C 0.21733 0.42999 0.25237 0.0
C158 C 0.24398 0.44777 0.221 0.0
C159 C 0.23973 0.44335 0.16749 0.0
C160 C 0.22488 0.43106 0.15737 0.0
C161 C 0.21373 0.42456 0.19927 0.0
C162 C 0.2498 0.45279 0.12287 0.0
C163 C 0.26854 0.4579 0.12867 0.0
C164 C 0.27744 0.46913 0.09073 0.0
C165 C 0.26762 0.47488 0.04472 0.0
C166 C 0.24906 0.46902 0.0368 0.0
C167 C 0.24032 0.45818 0.0762 0.0
C168 C 0.23806 0.47418 0.98865 0.0
C169 C 0.2314 0.49241 0.98172 0.0
C170 C 0.23161 0.46013 0.9542 0.0
C171 C 0.21832 0.46404 0.91482 0.0
C172 C 0.21076 0.48207 0.90943 0.0
C173 C 0.29668 0.47525 0.10292 0.0
C174 C 0.29949 0.49143 0.13344 0.0
C175 C 0.31159 0.46283 0.09592 0.0
C176 C 0.32877 0.46612 0.12084 0.0
C177 C 0.33135 0.48178 0.15417 0.0
C178 C 0.31661 0.49469 0.15871 0.0
C179 C 0.21787 0.49632 0.94264 0.0
H180 H 0.23653 0.44513 0.30329 0.0
H181 H 0.25513 0.45729 0.23087 0.0
H182 H 0.22144 0.42692 0.1169 0.0
H183 H 0.2017 0.41614 0.18959 0.0
H184 H 0.27628 0.45352 0.16369 0.0
H185 H 0.22577 0.45464 0.07113 0.0
H186 H 0.27437 0.48364 0.01532 0.0
H187 H 0.23589 0.50342 0.00845 0.0
H188 H 0.23644 0.44593 0.95897 0.0
H189 H 0.21368 0.45276 0.88934 0.0
H190 H 0.28804 0.50094 0.14071 0.0
H191 H 0.30963 0.45004 0.07351 0.0
H192 H 0.21237 0.51034 0.94032 0.0
H193 H 0.31785 0.50677 0.18443 0.0
H194 H 0.33982 0.45603 0.1154 0.0
C195 C 0.08851 0.22055 0.23459 0.0
C196 C 0.10355 0.21073 0.2117 0.0
C197 C 0.07882 0.23391 0.20529 0.0
C198 C 0.08374 0.23763 0.15215 0.0
C199 C 0.09958 0.22897 0.1304 0.0
C200 C 0.10951 0.21579 0.16008 0.0
C201 C 0.07074 0.24828 0.11785 0.0
C202 C 0.06301 0.26509 0.13553 0.0
C203 C 0.04858 0.2739 0.10704 0.0
C204 C 0.0419 0.26543 0.05932 0.0
C205 C 0.04982 0.24845 0.04082 0.0
C206 C 0.06427 0.24027 0.0704 0.0
C207 C 0.04288 0.23777 0.99336 0.0
C208 C 0.02454 0.23103 0.99136 0.0
C209 C 0.0558 0.23076 0.95606 0.0
C210 C 0.05098 0.21647 0.92046 0.0
C211 C 0.03296 0.20875 0.92049 0.0
C212 C 0.04079 0.29158 0.12994 0.0
C213 C 0.03656 0.29247 0.18489 0.0
C214 C 0.04023 0.3082 0.10026 0.0
C215 C 0.03671 0.32541 0.12581 0.0
C216 C 0.03375 0.32633 0.18158 0.0
C217 C 0.03316 0.30953 0.21029 0.0
C218 C 0.01963 0.21673 0.95532 0.0
H219 H 0.08313 0.21697 0.27366 0.0
H220 H 0.06655 0.24024 0.22288 0.0
H221 H 0.10375 0.23179 0.08957 0.0
H222 H 0.12125 0.20887 0.14146 0.0
H223 H 0.06819 0.27126 0.17225 0.0
H224 H 0.06981 0.22686 0.05805 0.0
H225 H 0.03056 0.2718 0.0374 0.0
H226 H 0.01431 0.23594 0.01996 0.0
H227 H 0.0701 0.23553 0.95683 0.0
H228 H 0.06182 0.21079 0.89517 0.0
H229 H 0.03665 0.27992 0.2089 0.0
H230 H 0.04357 0.30804 0.05802 0.0
H231 H 0.00549 0.21155 0.95602 0.0
H232 H 0.03048 0.30959 0.25292 0.0
H233 H 0.03722 0.33805 0.10236 0.0
C234 C 0.28685 0.08161 0.23881 0.0
C235 C 0.30407 0.08965 0.22552 0.0
C236 C 0.27521 0.07456 0.19897 0.0
C237 C 0.28029 0.0758 0.14474 0.0
C238 C 0.29638 0.0859 0.13131 0.0
C239 C 0.30823 0.09261 0.17123 0.0
C240 C 0.27022 0.06465 0.10353 0.0
C241 C 0.25102 0.06156 0.10753 0.0
C242 C 0.2419 0.04885 0.07369 0.0
C243 C 0.25222 0.0396 0.03321 0.0
C244 C 0.27153 0.04308 0.02757 0.0
C245 C 0.28024 0.05543 0.06318 0.0
C246 C 0.28351 0.03394 0.98633 0.0
C247 C 0.29893 0.0233 1.00277 0.0
C248 C 0.28223 0.03905 0.93226 0.0
C249 C 0.29659 0.03449 0.89613 0.0
C250 C 0.31255 0.02467 0.91324 0.0
C251 C 0.22195 0.04487 0.08542 0.0
C252 C 0.21668 0.02769 0.10751 0.0
C253 C 0.20904 0.0596 0.08639 0.0
C254 C 0.19173 0.05759 0.11158 0.0
C255 C 0.18688 0.04083 0.13723 0.0
C256 C 0.19936 0.02568 0.13313 0.0
C257 C 0.31319 0.01867 0.96682 0.0
H258 H 0.28297 0.07955 0.28023 0.0
H259 H 0.26294 0.06695 0.2112 0.0
H260 H 0.30043 0.08769 0.08992 0.0
H261 H 0.32132 0.09878 0.15925 0.0
H262 H 0.24311 0.06858 0.13855 0.0
H263 H 0.29516 0.05739 0.06014 0.0
H264 H 0.2454 0.02969 0.00703 0.0
H265 H 0.30046 0.01946 0.04443 0.0
H266 H 0.27071 0.04755 0.91864 0.0
H267 H 0.29541 0.03913 0.85511 0.0
H268 H 0.2265 0.01622 0.10843 0.0
H269 H 0.21278 0.07307 0.07015 0.0
H270 H 0.32523 0.0113 0.98197 0.0
H271 H 0.19627 0.01258 0.15253 0.0
H272 H 0.18241 0.06944 0.11253 0.0
C273 C 0.45332 0.29167 0.86613 0.0
C274 C 0.47177 0.29613 0.85239 0.0
C275 C 0.44957 0.27838 0.90556 0.0
C276 C 0.46413 0.26901 0.9317 0.0
C277 C 0.48252 0.27249 0.91564 0.0
C278 C 0.48631 0.28597 0.87651 0.0
C279 C 0.4603 0.25905 0.98254 0.0
C280 C 0.46416 0.23993 0.98994 0.0
C281 C 0.46033 0.23148 0.0397 0.0
C282 C 0.4535 0.24236 0.08212 0.0
C283 C 0.45034 0.26147 0.0758 0.0
C284 C 0.4533 0.26955 0.0255 0.0
C285 C 0.44561 0.27333 0.12268 0.0
C286 C 0.43292 0.26737 0.16198 0.0
C287 C 0.45465 0.29049 0.12957 0.0
C288 C 0.45132 0.30132 0.17479 0.0
C289 C 0.43899 0.29525 0.21472 0.0
C290 C 0.46372 0.21145 0.05025 0.0
C291 C 0.44852 0.19973 0.06034 0.0
C292 C 0.48172 0.2051 0.06226 0.0
C293 C 0.48435 0.18776 0.08705 0.0
C294 C 0.46899 0.17649 0.10043 0.0
C295 C 0.45112 0.1824 0.08473 0.0
C296 C 0.42956 0.27829 0.20755 0.0
H297 H 0.44177 0.29928 0.8489 0.0
H298 H 0.43528 0.27615 0.91784 0.0
H299 H 0.49401 0.26569 0.93581 0.0
H300 H 0.50067 0.28892 0.8665 0.0
H301 H 0.46978 0.23171 0.95731 0.0
H302 H 0.45063 0.28429 0.02 0.0
H303 H 0.45142 0.23597 0.12093 0.0
H304 H 0.42563 0.25426 0.15758 0.0
H305 H 0.4647 0.2954 0.10059 0.0
H306 H 0.45851 0.31452 0.17854 0.0
H307 H 0.43448 0.20446 0.05207 0.0
H308 H 0.49362 0.21409 0.05596 0.0
H309 H 0.41994 0.27331 0.2376 0.0
H310 H 0.439 0.17398 0.0933 0.0
H311 H 0.4983 0.18379 0.09885 0.0
Eu312 Eu 0.02402 0.00744 0.61756 0.0
C313 C 0.94652 0.99749 0.50146 0.0
C314 C 0.95143 0.97876 0.422 0.0
C315 C 0.92074 0.98016 0.46277 0.0
C316 C 0.95835 0.99059 0.46248 0.0
C317 C 0.92758 0.99232 0.50212 0.0
C318 C 0.93258 0.97364 0.42236 0.0
C319 C 0.92303 0.01316 0.57702 0.0
N320 N 0.95332 0.00991 0.53736 0.0
C321 C 0.94178 0.01821 0.57392 0.0
C322 C 0.91591 1.00008 0.54112 0.0
Eu323 Eu 0.98499 0.01844 0.52795 0.0
N324 N 0.97634 0.99635 0.46212 0.0
C325 C 0.98794 0.99132 0.42128 0.0
C326 C 0.96348 0.97305 0.38115 0.0
C327 C 0.98183 0.97932 0.38088 0.0
H328 H 0.94712 0.02842 0.60167 0.0
H329 H 0.99119 0.97521 0.34903 0.0
H330 H 0.92687 0.96503 0.39082 0.0
H331 H 0.91408 0.01945 0.60687 0.0
H332 H 1.002 0.99648 0.41953 0.0
H333 H 0.0118 0.04462 0.80647 0.0
H334 H 0.95867 0.96424 0.34883 0.0
H335 H 0.06449 1.00233 0.55216 0.0
H336 H 0.00528 0.02196 0.73563 0.0
H337 H 0.09531 0.01751 0.54725 0.0
H338 H 0.9062 0.97617 0.46226 0.0
H339 H 0.04054 0.06347 0.80342 0.0
H340 H 0.07082 0.07067 0.75802 0.0
H341 H 0.90131 0.99638 0.5431 0.0
H342 H 0.09356 0.06336 0.6873 0.0
N343 N 0.02978 0.02792 0.6909 0.0
C344 C 0.01786 0.02993 0.73314 0.0
C345 C 0.03775 0.05345 0.77194 0.0
C346 C 0.05042 0.05064 0.73026 0.0
C347 C 0.02155 0.04282 0.77383 0.0
C348 C 0.04609 0.03743 0.69023 0.0
H349 H 0.10291 0.04341 0.60895 0.0
N350 N 0.05466 0.01977 0.61507 0.0
C351 C 0.08519 0.02212 0.57654 0.0
C352 C 0.05889 0.0333 0.65083 0.0
C353 C 0.06779 0.0135 0.57963 0.0
C354 C 0.0894 0.03677 0.61129 0.0
C355 C 0.07634 0.04229 0.64976 0.0
O356 O 0.04352 0.98477 0.63286 0.0
O357 O 1.00373 0.99604 0.55801 0.0
O358 O 0.97434 0.99879 0.59164 0.0
O359 O 0.99544 0.00548 0.65973 0.0
O360 O 0.03094 0.9874 0.54957 0.0
O361 O 0.01876 0.98732 0.68137 0.0
O362 O 0.96931 0.04373 0.51035 0.0
O363 O 0.00559 0.02967 0.58658 0.0
O364 O 0.0342 0.0263 0.55057 0.0
O365 O 0.01298 0.0191 0.48364 0.0
O366 O 0.9791 0.0403 0.5924 0.0
O367 O 0.98794 0.03209 0.45059 0.0
C368 C 0.01427 0.98531 0.53166 0.0
C369 C 0.02649 0.9572 0.64832 0.0
C370 C 1.00237 0.93317 0.64124 0.0
C371 C 0.00918 0.94983 0.66395 0.0
C372 C 0.01342 0.9238 0.60316 0.0
C373 C 0.03743 0.94717 0.61147 0.0
C374 C 0.03086 0.93066 0.58898 0.0
C375 C 0.97905 0.99909 0.64284 0.0
C376 C 0.03205 0.97626 0.66489 0.0
C377 C 0.08033 0.05614 0.68782 0.0
C378 C 0.06739 0.06029 0.72807 0.0
C379 C 0.9956 0.0411 0.61207 0.0
C380 C 0.98498 0.06501 0.45504 0.0
C381 C 1.00398 0.06799 0.44424 0.0
C382 C 0.01074 0.08613 0.43684 0.0
C383 C 0.9983 0.10123 0.4395 0.0
C384 C 0.97283 0.0803 0.45803 0.0
C385 C 0.97949 0.09831 0.45024 0.0
C386 C 0.02956 0.025 0.49954 0.0
C387 C 0.97752 0.04622 0.46442 0.0
H388 H 1.001 0.95722 0.69359 0.0
H389 H 0.00853 0.91127 0.58355 0.0
H390 H 0.05081 0.95242 0.59851 0.0
H391 H 0.03918 0.92333 0.55956 0.0
H392 H 0.01352 0.05634 0.44184 0.0
H393 H 1.00311 0.11527 0.43208 0.0
H394 H 0.95818 0.07828 0.46639 0.0
H395 H 0.97003 0.11004 0.45224 0.0
Eu396 Eu 0.50853 0.03134 0.61742 0.0
C397 C 0.53947 0.95551 0.52939 0.0
C398 C 0.56331 0.96266 0.46416 0.0
C399 C 0.56532 0.93409 0.51578 0.0
C400 C 0.54692 0.96753 0.49201 0.0
C401 C 0.54837 0.93846 0.54091 0.0
C402 C 0.57275 0.94615 0.47735 0.0
C403 C 0.52229 0.93055 0.59746 0.0
N404 N 0.52301 0.96008 0.55264 0.0
C405 C 0.51398 0.94761 0.58472 0.0
C406 C 0.5397 0.92607 0.57613 0.0
Eu407 Eu 0.51008 0.98947 0.53021 0.0
N408 N 0.53754 0.98346 0.48053 0.0
C409 C 0.54286 0.99424 0.43829 0.0
C410 C 0.56935 0.97419 0.4226 0.0
C411 C 0.55886 0.98985 0.40894 0.0
H412 H 0.50063 0.95105 0.60192 0.0
H413 H 0.56317 0.99865 0.37613 0.0
H414 H 0.58553 0.94234 0.45702 0.0
H415 H 0.51532 0.92095 0.62405 0.0
H416 H 0.53495 0.00647 0.42762 0.0
H417 H 0.46226 0.01842 0.7873 0.0
H418 H 0.58182 0.9709 0.40007 0.0
H419 H 0.5125 0.06999 0.54378 0.0
H420 H 0.48844 0.01228 0.72668 0.0
H421 H 0.49521 0.09923 0.52712 0.0
H422 H 0.5725 0.92118 0.5246 0.0
H423 H 0.44189 0.0457 0.77253 0.0
H424 H 0.43464 0.0744 0.71933 0.0
H425 H 0.54612 0.91287 0.58613 0.0
H426 H 0.44335 0.09619 0.6478 0.0
N427 N 0.48302 0.03563 0.67665 0.0
C428 C 0.4798 0.02425 0.71941 0.0
C429 C 0.45347 0.04312 0.74572 0.0
C430 C 0.45725 0.05517 0.7032 0.0
C431 C 0.46493 0.02772 0.75419 0.0
C432 C 0.47248 0.05114 0.66936 0.0
H433 H 0.466 0.10568 0.57634 0.0
N434 N 0.4928 0.05971 0.59989 0.0
C435 C 0.48998 0.08925 0.5558 0.0
C436 C 0.4774 0.06344 0.62936 0.0
C437 C 0.49973 0.07272 0.56533 0.0
C438 C 0.47348 0.0928 0.58353 0.0
C439 C 0.4672 0.08003 0.62168 0.0
O440 O 0.52792 0.05344 0.63877 0.0
O441 O 0.52641 0.01222 0.56876 0.0
O442 O 0.52645 0.98332 0.6054 0.0
O443 O 0.51249 1.00416 0.66492 0.0
O444 O 0.53284 0.04012 0.56405 0.0
O445 O 0.52022 0.03267 0.69777 0.0
O446 O 0.48936 0.96983 0.49986 0.0
O447 O 0.49234 0.00846 0.57958 0.0
O448 O 0.49221 0.03682 0.54146 0.0
O449 O 0.50754 0.01673 0.48302 0.0
O450 O 0.4848 0.98083 0.57989 0.0
O451 O 0.50329 0.98877 0.4454 0.0
C452 C 0.53772 0.02369 0.54881 0.0
C453 C 0.55117 0.04433 0.6994 0.0
C454 C 0.57742 0.02527 0.72869 0.0
C455 C 0.55838 0.02721 0.717 0.0
C456 C 0.58916 0.04081 0.72248 0.0
C457 C 0.56313 0.05961 0.69353 0.0
C458 C 0.58203 0.05781 0.7049 0.0
C459 C 0.52226 0.98879 0.65459 0.0
C460 C 0.53135 0.04645 0.68584 0.0
C461 C 0.45147 0.08362 0.65345 0.0
C462 C 0.44653 0.07123 0.69422 0.0
C463 C 0.48065 0.99708 0.59813 0.0
C464 C 0.47362 0.97786 0.42009 0.0
C465 C 0.4633 0.99451 0.42106 0.0
C466 C 0.44705 0.99617 0.38997 0.0
C467 C 0.44146 0.98106 0.35777 0.0
C468 C 0.46774 0.96295 0.38809 0.0
C469 C 0.45173 0.96458 0.35701 0.0
C470 C 0.49751 0.03192 0.4927 0.0
C471 C 0.49086 0.97569 0.45069 0.0
H472 H 0.5491 0.0155 0.72254 0.0
H473 H 0.60389 0.03988 0.73093 0.0
H474 H 0.55785 0.07292 0.6799 0.0
H475 H 0.59121 0.06963 0.70011 0.0
H476 H 0.46779 0.00597 0.44623 0.0
H477 H 0.4292 0.98205 0.33272 0.0
H478 H 0.47563 0.95008 0.38685 0.0
H479 H 0.44732 0.95306 0.33207 0.0
Eu480 Eu 0.52167 0.50475 0.53571 0.0
C481 C 0.44274 0.5125 0.62254 0.0
C482 C 0.42957 0.53425 0.55918 0.0
C483 C 0.40966 0.51138 0.60139 0.0
C484 C 0.44504 0.52716 0.58766 0.0
C485 C 0.42491 0.5047 0.6307 0.0
C486 C 0.41203 0.52597 0.56521 0.0
C487 C 0.43778 0.48636 0.70233 0.0
N488 N 0.45754 0.50695 0.65207 0.0
C489 C 0.45499 0.49489 0.69378 0.0
C490 C 0.42271 0.49108 0.67004 0.0
Eu491 Eu 0.48694 0.52109 0.63425 0.0
N492 N 0.46207 0.53531 0.58425 0.0
C493 C 0.46404 0.55134 0.55503 0.0
C494 C 0.43192 0.55 0.52737 0.0
C495 C 0.44915 0.55873 0.52603 0.0
H496 H 0.46641 0.49169 0.72032 0.0
H497 H 0.45107 0.57112 0.50221 0.0
H498 H 0.40005 0.53124 0.54365 0.0
H499 H 0.43611 0.47639 0.73436 0.0
H500 H 0.47695 0.55869 0.55253 0.0
H501 H 0.56597 0.46145 0.66605 0.0
H502 H 0.42041 0.55582 0.50489 0.0
H503 H 0.53526 0.53347 0.43798 0.0
H504 H 0.53696 0.47241 0.62807 0.0
H505 H 0.56388 0.5482 0.40391 0.0
H506 H 0.39584 0.50584 0.60785 0.0
H507 H 0.59583 0.47538 0.63854 0.0
H508 H 0.61289 0.49672 0.57759 0.0
H509 H 0.40928 0.4847 0.67725 0.0
H510 H 0.61242 0.52124 0.50935 0.0
N511 N 0.54935 0.49343 0.57873 0.0
C512 C 0.54951 0.47897 0.61451 0.0
C513 C 0.58294 0.48052 0.62152 0.0
C514 C 0.58294 0.49466 0.58335 0.0
C515 C 0.56614 0.47258 0.63692 0.0
C516 C 0.56575 0.50103 0.56272 0.0
H517 H 0.59425 0.54067 0.44501 0.0
N518 N 0.54896 0.51917 0.50128 0.0
C519 C 0.56456 0.53885 0.43775 0.0
C520 C 0.56552 0.51438 0.52309 0.0
C521 C 0.54837 0.53064 0.45757 0.0
C522 C 0.58165 0.53459 0.46109 0.0
C523 C 0.58235 0.52189 0.50334 0.0
O524 O 0.52707 0.49752 0.4522 0.0
O525 O 0.49149 0.50941 0.55285 0.0
O526 O 0.48539 0.48937 0.63391 0.0
O527 O 0.51076 0.47985 0.58196 0.0
O528 O 0.5012 0.51931 0.48078 0.0
O529 O 0.516 0.47676 0.50504 0.0
O530 O 0.48077 0.52406 0.71927 0.0
O531 O 0.51731 0.51665 0.61755 0.0
O532 O 0.52274 0.5362 0.53357 0.0
O533 O 0.50148 0.54644 0.5981 0.0
O534 O 0.50732 0.50694 0.68992 0.0
O535 O 0.48729 0.54848 0.67266 0.0
C536 C 0.48651 0.51676 0.50939 0.0
C537 C 0.50318 0.47815 0.4181 0.0
C538 C 0.47623 0.45967 0.39122 0.0
C539 C 0.49184 0.46235 0.42425 0.0
C540 C 0.47202 0.473 0.35191 0.0
C541 C 0.49876 0.49123 0.37815 0.0
C542 C 0.48322 0.48867 0.34558 0.0
C543 C 0.49656 0.47636 0.61416 0.0
C544 C 0.51878 0.4815 0.45553 0.0
C545 C 0.59937 0.51582 0.52446 0.0
C546 C 0.59965 0.50203 0.56377 0.0
C547 C 0.52207 0.50926 0.66131 0.0
C548 C 0.49777 0.54743 0.76283 0.0
C549 C 0.51564 0.55443 0.75121 0.0
C550 C 0.52771 0.55999 0.79284 0.0
C551 C 0.52164 0.55782 0.84618 0.0
C552 C 0.49222 0.54539 0.81618 0.0
C553 C 0.50416 0.55044 0.85755 0.0
C554 C 0.51392 0.54949 0.55994 0.0
C555 C 0.48477 0.54169 0.72041 0.0
H556 H 0.49524 0.45209 0.45448 0.0
H557 H 0.45995 0.47139 0.32638 0.0
H558 H 0.5071 0.50362 0.37252 0.0
H559 H 0.47977 0.49892 0.31548 0.0
H560 H 0.52002 0.55561 0.70992 0.0
H561 H 0.53006 0.56241 0.87957 0.0
H562 H 0.4786 0.53987 0.82584 0.0
H563 H 0.4997 0.54896 0.89869 0.0
Eu564 Eu 0.01653 0.53479 0.51468 0.0
C565 C 0.01733 0.45419 0.60938 0.0
C566 C 1.00248 0.4352 0.5415 0.0
C567 C 0.02594 0.42156 0.5993 0.0
C568 C 0.00484 0.45259 0.56733 0.0
C569 C 0.02759 0.43854 0.62678 0.0
C570 C 0.01342 0.41989 0.55673 0.0
C571 C 0.03892 0.45699 0.70083 0.0
N572 N 0.01863 0.47071 0.63549 0.0
C573 C 0.02851 0.47209 0.68215 0.0
C574 C 0.03873 0.44023 0.67244 0.0
Eu575 Eu 1.00149 0.496 0.59997 0.0
N576 N 0.99449 0.46771 0.5531 0.0
C577 C 0.98056 0.46574 0.51606 0.0
C578 C 0.98891 0.43354 0.50181 0.0
C579 C 0.97775 0.4488 0.48961 0.0
H580 H 0.02877 0.48509 0.70407 0.0
H581 H 0.96699 0.44758 0.45951 0.0
H582 H 0.01196 0.40657 0.53671 0.0
H583 H 0.04713 0.45832 0.73692 0.0
H584 H 0.97167 0.47708 0.50489 0.0
H585 H 0.05123 0.58485 0.64701 0.0
H586 H 0.98667 0.42045 0.48114 0.0
H587 H 0.9868 0.5431 0.41473 0.0
H588 H 0.04536 0.55432 0.6066 0.0
H589 H 0.96841 0.56926 0.378 0.0
H590 H 0.03389 0.40947 0.61163 0.0
H591 H 0.03226 0.61208 0.62068 0.0
H592 H 0.00688 0.62533 0.56334 0.0
H593 H 0.0468 0.42853 0.68701 0.0
H594 H 0.98407 0.62104 0.491 0.0
N595 N 0.02296 0.56367 0.55758 0.0
C596 C 0.03699 0.56592 0.59398 0.0
C597 C 0.02964 0.59864 0.60237 0.0
C598 C 0.01579 0.59647 0.56356 0.0
C599 C 0.04039 0.58332 0.61729 0.0
C600 C 0.01287 0.57863 0.54117 0.0
H601 H 0.96985 0.60028 0.42115 0.0
N602 N 0.99802 0.55906 0.4788 0.0
C603 C 0.9771 0.57139 0.41281 0.0
C604 C 0.99992 0.57621 0.50089 0.0
C605 C 0.98752 0.55663 0.43367 0.0
C606 C 0.97792 0.58886 0.43737 0.0
C607 C 0.98968 0.59154 0.48134 0.0
O608 O 0.02452 0.53826 0.43124 0.0
O609 O 0.0148 0.50372 0.52271 0.0
O610 O 0.03313 0.49565 0.59936 0.0
O611 O 0.0411 0.5249 0.56589 0.0
O612 O 0.00742 0.51454 0.44943 0.0
O613 O 0.04509 0.54203 0.49392 0.0
O614 O 0.98933 0.4819 0.66894 0.0
O615 O 0.00519 0.52678 0.5946 0.0
O616 O 0.98496 0.53621 0.52448 0.0
O617 O 0.97858 0.50507 0.54229 0.0
O618 O 0.01305 0.51458 0.66592 0.0
O619 O 0.97449 0.50457 0.63228 0.0
C620 C 0.00982 0.49938 0.47595 0.0
C621 C 0.05539 0.53085 0.40979 0.0
C622 C 0.07719 0.50539 0.39645 0.0
C623 C 0.0639 0.51445 0.42834 0.0
C624 C 0.08152 0.51247 0.34563 0.0
C625 C 0.05969 0.53767 0.35877 0.0
C626 C 0.07265 0.52843 0.32672 0.0
C627 C 0.0454 0.50899 0.58991 0.0
C628 C 0.04196 0.54116 0.44251 0.0
C629 C 0.99197 0.60914 0.50503 0.0
C630 C 0.00499 0.6116 0.54611 0.0
C631 C 0.01117 0.53023 0.64121 0.0
C632 C 0.97293 0.50248 0.72676 0.0
C633 C 0.96011 0.51715 0.73279 0.0
C634 C 0.9566 0.52516 0.7834 0.0
C635 C 0.96667 0.5185 0.82777 0.0
C636 C 0.98282 0.4962 0.77175 0.0
C637 C 0.97977 0.50428 0.82175 0.0
C638 C 0.97329 0.52193 0.52666 0.0
C639 C 0.97571 0.49372 0.67368 0.0
H640 H 0.0606 0.50906 0.4677 0.0
H641 H 0.09178 0.50561 0.32061 0.0
H642 H 0.05307 0.55019 0.34384 0.0
H643 H 0.07597 0.53377 0.28742 0.0
H644 H 0.95283 0.52224 0.69781 0.0
H645 H 0.96414 0.52384 0.86762 0.0
H646 H 0.99286 0.48498 0.76851 0.0
H647 H 0.98735 0.49926 0.85624 0.0
H648 H 0.17175 0.06793 0.202 0.0
H649 H 0.14435 0.06608 0.25918 0.0
H650 H 0.13566 0.00919 0.2098 0.0
H651 H 0.1628 0.01113 0.15062 0.0
H652 H 0.10284 0.02804 0.21462 0.0
H653 H 0.15502 0.01928 0.33534 0.0
H654 H 0.18521 0.02794 0.37533 0.0
H655 H 0.16253 0.08066 0.42447 0.0
H656 H 0.13237 0.07239 0.38386 0.0
H657 H 0.03817 1.00258 0.41547 0.0
H658 H 0.06424 0.00541 0.35347 0.0
H659 H 0.07988 0.05728 0.42868 0.0
H660 H 0.05478 0.05342 0.49384 0.0
H661 H 0.10919 0.042 0.40809 0.0
H662 H 0.05597 0.05004 0.29499 0.0
H663 H 0.02585 0.04225 0.25371 0.0
H664 H 0.04964 0.99259 0.18607 0.0
H665 H 0.07987 1.00003 0.22758 0.0
C666 C 0.16391 0.05507 0.2024 0.0
C667 C 0.16963 0.03969 0.17118 0.0
C668 C 0.14829 0.05396 0.23587 0.0
C669 C 0.13798 0.03741 0.23969 0.0
C670 C 0.14338 0.02212 0.20791 0.0
C671 C 0.15904 0.02321 0.17429 0.0
C672 C 0.12174 0.03602 0.27721 0.0
C673 C 0.10424 0.03087 0.25707 0.0
C674 C 0.12332 0.04028 0.33237 0.0
C675 C 0.14144 0.04521 0.3568 0.0
C676 C 0.15652 0.03273 0.35456 0.0
C677 C 0.17363 0.03757 0.37726 0.0
C678 C 0.17579 0.05483 0.40249 0.0
C679 C 0.16084 0.06728 0.40507 0.0
C680 C 0.14372 0.0625 0.38235 0.0
C681 C 0.0471 0.01469 0.41827 0.0
C682 C 0.04431 0.02792 0.45896 0.0
C683 C 0.06199 0.01642 0.38239 0.0
C684 C 0.07398 0.03194 0.38451 0.0
C685 C 0.071 0.04521 0.42534 0.0
C686 C 0.05653 0.0431 0.46253 0.0
C687 C 0.08997 0.03394 0.34584 0.0
C688 C 0.10754 0.03924 0.36569 0.0
C689 C 0.08834 0.03001 0.29018 0.0
C690 C 0.07019 0.0256 0.2647 0.0
C691 C 0.05478 0.03747 0.27144 0.0
C692 C 0.03767 0.03309 0.24802 0.0
C693 C 0.03582 0.01692 0.21731 0.0
C694 C 0.05109 0.00512 0.20988 0.0
C695 C 0.06823 0.00943 0.23332 0.0
H696 H 0.02256 0.01354 0.19923 0.0
H697 H 0.18905 0.05856 0.42001 0.0
H698 H 0.44653 0.16494 0.18239 0.0
H699 H 0.45117 0.13887 0.24314 0.0
H700 H 0.50176 0.1241 0.16049 0.0
H701 H 0.49692 0.14999 0.09803 0.0
H702 H 0.48073 0.09289 0.18929 0.0
H703 H 0.50449 0.14808 0.27405 0.0
H704 H 0.50319 0.18054 0.30632 0.0
H705 H 0.45731 0.1668 0.40894 0.0
H706 H 0.45817 0.1343 0.37667 0.0
H707 H 0.5159 0.03493 0.39728 0.0
H708 H 0.51115 0.05818 0.32744 0.0
H709 H 0.46544 0.08166 0.41725 0.0
H710 H 0.47038 0.05863 0.48758 0.0
H711 H 0.48512 0.10838 0.38236 0.0
H712 H 0.46088 0.05367 0.30095 0.0
H713 H 0.4609 0.02105 0.26995 0.0
H714 H 0.50515 0.03343 0.16018 0.0
H715 H 0.50569 0.066 0.19184 0.0
C716 C 0.45846 0.15597 0.17616 0.0
C717 C 0.47134 0.15965 0.13502 0.0
C718 C 0.46119 0.14114 0.21144 0.0
C719 C 0.47695 0.12965 0.20694 0.0
C720 C 0.48953 0.13282 0.16491 0.0
C721 C 0.48682 0.14772 0.12948 0.0
C722 C 0.48059 0.11495 0.24769 0.0
C723 C 0.48197 0.09626 0.23146 0.0
C724 C 0.48175 0.11929 0.30287 0.0
C725 C 0.48129 0.1388 0.32258 0.0
C726 C 0.49404 0.15201 0.3032 0.0
C727 C 0.49339 0.17041 0.32154 0.0
C728 C 0.48015 0.17574 0.35956 0.0
C729 C 0.46755 0.16266 0.37944 0.0
C730 C 0.46812 0.14424 0.36117 0.0
C731 C 0.50467 0.04488 0.40182 0.0
C732 C 0.49354 0.04493 0.44809 0.0
C733 C 0.50194 0.0582 0.36173 0.0
C734 C 0.48775 0.07163 0.36642 0.0
C735 C 0.4765 0.07152 0.41245 0.0
C736 C 0.47932 0.05831 0.4527 0.0
C737 C 0.48494 0.08613 0.32435 0.0
C738 C 0.48386 0.10488 0.34028 0.0
C739 C 0.4838 0.08176 0.26902 0.0
C740 C 0.4835 0.06221 0.2495 0.0
C741 C 0.47083 0.04933 0.27095 0.0
C742 C 0.4707 0.03087 0.25312 0.0
C743 C 0.48308 0.02514 0.21325 0.0
C744 C 0.49558 0.03788 0.19114 0.0
C745 C 0.4958 0.05635 0.20906 0.0
H746 H 0.48294 0.01086 0.19934 0.0
H747 H 0.47967 0.18999 0.37371 0.0
H748 H 0.34983 0.51408 0.18204 0.0
H749 H 0.37638 0.51754 0.24205 0.0
H750 H 0.37932 0.4579 0.26031 0.0
H751 H 0.35215 0.45437 0.20277 0.0
H752 H 0.38367 0.47231 0.35248 0.0
H753 H 0.41211 0.48318 0.18537 0.0
H754 H 0.41668 0.49695 0.0961 0.0
H755 H 0.42306 0.5511 0.16703 0.0
H756 H 0.41828 0.53769 0.25672 0.0
H757 H 0.46654 0.48446 0.51277 0.0
H758 H 0.44194 0.47505 0.45228 0.0
H759 H 0.44075 0.53069 0.38603 0.0
H760 H 0.46769 0.53869 0.44 0.0
H761 H 0.43742 0.51274 0.31067 0.0
H762 H 0.39911 0.49672 0.4819 0.0
H763 H 0.39403 0.47746 0.56285 0.0
H764 H 0.40955 0.42833 0.47595 0.0
H765 H 0.4143 0.44704 0.39443 0.0
C766 C 0.35604 0.50167 0.19886 0.0
C767 C 0.34869 0.48393 0.18714 0.0
C768 C 0.37144 0.50366 0.23284 0.0
C769 C 0.38013 0.48798 0.25555 0.0
C770 C 0.37299 0.47025 0.24341 0.0
C771 C 0.3575 0.46825 0.20976 0.0
C772 C 0.39614 0.49014 0.2935 0.0
C773 C 0.3954 0.48127 0.34342 0.0
C774 C 0.41179 0.50131 0.28163 0.0
C775 C 0.41466 0.50944 0.22775 0.0
C776 C 0.41434 0.49805 0.18191 0.0
C777 C 0.41699 0.50579 0.13123 0.0
C778 C 0.42011 0.5249 0.12589 0.0
C779 C 0.42062 0.5363 0.17123 0.0
C780 C 0.41796 0.52864 0.222 0.0
C781 C 0.4607 0.49473 0.48587 0.0
C782 C 0.46873 0.51249 0.482 0.0
C783 C 0.44621 0.48942 0.45135 0.0
C784 C 0.43866 0.50207 0.41392 0.0
C785 C 0.4462 0.52024 0.41295 0.0
C786 C 0.46145 0.52508 0.44483 0.0
C787 C 0.42414 0.4966 0.37287 0.0
C788 C 0.4254 0.50439 0.32115 0.0
C789 C 0.40916 0.4841 0.38273 0.0
C790 C 0.40722 0.47328 0.4325 0.0
C791 C 0.40159 0.48184 0.48036 0.0
C792 C 0.39876 0.47105 0.52618 0.0
C793 C 0.40168 0.45182 0.5246 0.0
C794 C 0.40738 0.44324 0.47717 0.0
C795 C 0.41003 0.45389 0.43113 0.0
H796 H 0.39932 0.44354 0.56002 0.0
H797 H 0.42217 0.53086 0.08661 0.0
H798 H 0.05048 0.33647 0.27564 0.0
H799 H 0.04752 0.36564 0.32526 0.0
H800 H 0.01053 0.38695 0.2041 0.0
H801 H 0.01382 0.35778 0.15346 0.0
H802 H 0.03265 0.4137 0.23449 0.0
H803 H 0.99536 0.36975 0.33016 0.0
H804 H 0.98821 0.34074 0.37847 0.0
H805 H 0.02936 0.35414 0.49694 0.0
H806 H 0.03697 0.38311 0.44887 0.0
H807 H 0.99253 0.48697 0.38662 0.0
H808 H 0.99785 0.45789 0.33754 0.0
H809 H 0.03963 0.44195 0.45255 0.0
H810 H 0.0344 0.47127 0.5016 0.0
H811 H 0.01621 0.41267 0.42715 0.0
H812 H 0.05225 0.45727 0.33318 0.0
H813 H 0.05871 0.48668 0.28627 0.0
H814 H 0.01874 0.47242 0.16539 0.0
H815 H 0.01183 0.443 0.21211 0.0
C816 C 0.0416 0.3473 0.25959 0.0
C817 C 0.03218 0.34459 0.21074 0.0
C818 C 0.03988 0.36404 0.28819 0.0
C819 C 0.02843 0.37851 0.26941 0.0
C820 C 0.01938 0.37605 0.21989 0.0
C821 C 0.02127 0.35933 0.19085 0.0
C822 C 0.02593 0.39612 0.3014 0.0
C823 C 0.02874 0.41341 0.27637 0.0
C824 C 0.02136 0.39597 0.35672 0.0
C825 C 0.01691 0.37848 0.38549 0.0
C826 C 1.00302 0.36642 0.36621 0.0
C827 C 0.99886 0.35 0.39361 0.0
C828 C 0.00837 0.34556 0.44063 0.0
C829 C 0.02204 0.35757 0.46043 0.0
C830 C 0.02628 0.37399 0.43312 0.0
C831 C 1.0028 0.47722 0.40154 0.0
C832 C 0.01272 0.48119 0.44863 0.0
C833 C 0.00589 0.46062 0.37335 0.0
C834 C 0.01921 0.44767 0.39104 0.0
C835 C 0.02921 0.45163 0.43812 0.0
C836 C 0.02617 0.46834 0.46628 0.0
C837 C 0.02265 0.43013 0.35999 0.0
C838 C 0.02005 0.41289 0.38522 0.0
C839 C 0.02729 0.43034 0.30488 0.0
C840 C 0.03136 0.44803 0.27658 0.0
C841 C 0.04464 0.46053 0.29704 0.0
C842 C 0.04844 0.47717 0.27037 0.0
C843 C 0.03908 0.48147 0.22301 0.0
C844 C 0.02596 0.46909 0.20214 0.0
C845 C 0.02212 0.4524 0.22866 0.0
H846 H 0.04205 0.49437 0.2024 0.0
H847 H 0.00512 0.33285 0.46181 0.0
H848 H 0.82889 0.9569 0.90149 0.0
H849 H 0.85604 0.96031 0.84379 0.0
H850 H 0.88377 0.99192 0.96714 0.0
H851 H 0.85629 0.98888 0.02472 0.0
H852 H 0.89065 0.0077 0.87818 0.0
H853 H 0.894 0.94425 0.93264 0.0
H854 H 0.8852 0.91144 0.9464 0.0
H855 H 0.87899 0.90399 0.77693 0.0
H856 H 0.88743 0.93682 0.76212 0.0
H857 H 0.97928 1.00395 0.75236 0.0
H858 H 0.95419 0.99743 0.81558 0.0
H859 H 0.92105 0.97454 0.68775 0.0
H860 H 0.94616 0.98074 0.62443 0.0
H861 H 0.91794 0.95409 0.78013 0.0
H862 H 0.91361 0.01812 0.72815 0.0
H863 H 0.92622 0.04967 0.71447 0.0
H864 H 0.93707 0.05462 0.88281 0.0
H865 H 0.92485 0.02293 0.89735 0.0
C866 C 0.84081 0.96446 0.91663 0.0
C867 C 0.84039 0.97247 0.96814 0.0
C868 C 0.85644 0.96635 0.88351 0.0
C869 C 0.87232 0.97603 0.90112 0.0
C870 C 0.87183 0.9843 0.95232 0.0
C871 C 0.85606 0.98259 0.98532 0.0
C872 C 0.88909 0.978 0.86558 0.0
C873 C 0.89677 0.99583 0.85775 0.0
C874 C 0.89704 0.9627 0.83736 0.0
C875 C 0.89101 0.94316 0.84636 0.0
C876 C 0.89042 0.93573 0.89835 0.0
C877 C 0.88558 0.91708 0.90632 0.0
C878 C 0.8814 0.90568 0.86261 0.0
C879 C 0.88211 0.91287 0.8108 0.0
C880 C 0.88692 0.9315 0.8026 0.0
C881 C 0.96675 0.99745 0.73755 0.0
C882 C 0.96467 0.99337 0.68277 0.0
C883 C 0.95234 0.99375 0.77387 0.0
C884 C 0.93551 0.98584 0.75636 0.0
C885 C 0.93378 0.98082 0.70228 0.0
C886 C 0.94815 0.98456 0.66596 0.0
C887 C 0.91943 0.98356 0.79378 0.0
C888 C 0.91183 0.96579 0.80137 0.0
C889 C 0.91168 0.9988 0.82216 0.0
C890 C 0.91847 0.01809 0.81379 0.0
C891 C 0.91877 0.0259 0.76223 0.0
C892 C 0.92586 0.0438 0.75431 0.0
C893 C 0.93248 0.05413 0.79773 0.0
C894 C 0.93196 0.0466 0.8492 0.0
C895 C 0.92495 0.02866 0.85732 0.0
H896 H 0.938 0.06798 0.79151 0.0
H897 H 0.8777 0.89124 0.86888 0.0
H898 H 0.55959 0.84233 0.91911 0.0
H899 H 0.55514 0.86976 0.86314 0.0
H900 H 0.52566 0.89706 0.99171 0.0
H901 H 0.5296 0.86914 0.04758 0.0
H902 H 0.50925 0.90426 0.89756 0.0
H903 H 0.57282 0.90649 0.96155 0.0
H904 H 0.60382 0.89263 0.97625 0.0
H905 H 0.61106 0.88604 0.80678 0.0
H906 H 0.57991 0.89939 0.7912 0.0
H907 H 0.51135 0.99054 0.76023 0.0
H908 H 0.51701 0.96739 0.83 0.0
H909 H 0.54993 0.93493 0.71942 0.0
H910 H 0.54565 0.9587 0.6514 0.0
H911 H 0.56487 0.93256 0.81278 0.0
H912 H 0.50248 0.92609 0.74562 0.0
H913 H 0.47112 0.93779 0.72364 0.0
H914 H 0.46119 0.95003 0.88943 0.0
H915 H 0.49266 0.9387 0.91229 0.0
C916 C 0.55217 0.85418 0.93554 0.0
C917 C 0.54518 0.85368 0.98806 0.0
C918 C 0.54968 0.86991 0.90351 0.0
C919 C 0.54052 0.88577 0.92353 0.0
C920 C 0.53294 0.88509 0.97542 0.0
C921 C 0.53519 0.86916 0.00734 0.0
C922 C 0.5391 0.90299 0.89025 0.0
C923 C 0.52145 0.91063 0.87983 0.0
C924 C 0.55495 0.91115 0.86584 0.0
C925 C 0.57402 0.90392 0.87523 0.0
C926 C 0.58101 0.90204 0.92744 0.0
C927 C 0.59857 0.89419 0.93594 0.0
C928 C 0.60934 0.88833 0.89248 0.0
C929 C 0.60266 0.89049 0.84042 0.0
C930 C 0.58508 0.89825 0.83173 0.0
C931 C 0.51999 0.97861 0.75093 0.0
C932 C 0.5274 0.97614 0.69931 0.0
C933 C 0.52312 0.96528 0.79085 0.0
C934 C 0.53342 0.94904 0.77967 0.0
C935 C 0.54168 0.94713 0.72908 0.0
C936 C 0.53896 0.96065 0.68977 0.0
C937 C 0.535 0.93362 0.81937 0.0
C938 C 0.55268 0.92633 0.83105 0.0
C939 C 0.51915 0.92555 0.84397 0.0
C940 C 0.49999 0.93171 0.83062 0.0
C941 C 0.49363 0.93133 0.77738 0.0
C942 C 0.47585 0.93791 0.76475 0.0
C943 C 0.46419 0.94469 0.8051 0.0
C944 C 0.47026 0.9448 0.85821 0.0
C945 C 0.48806 0.9383 0.87104 0.0
H946 H 0.45045 0.94984 0.79522 0.0
H947 H 0.6229 0.88218 0.89911 0.0
H948 H 0.63944 0.56008 0.02587 0.0
H949 H 0.61452 0.55605 0.96011 0.0
H950 H 0.64405 0.50955 0.89085 0.0
H951 H 0.66919 0.51377 0.95556 0.0
H952 H 0.63205 0.53177 0.81434 0.0
H953 H 0.60445 0.50351 0.96969 0.0
H954 H 0.5939 0.50242 0.06352 0.0
H955 H 0.55731 0.54871 0.03531 0.0
H956 H 0.56784 0.55023 0.94157 0.0
H957 H 0.5368 0.48767 0.73865 0.0
H958 H 0.56358 0.49436 0.79576 0.0
H959 H 0.57289 0.54539 0.70924 0.0
H960 H 0.5472 0.53776 0.64892 0.0
H961 H 0.5657 0.52332 0.86209 0.0
H962 H 0.60293 0.55576 0.71057 0.0
H963 H 0.61825 0.55638 0.62236 0.0
H964 H 0.63944 0.50118 0.6485 0.0
H965 H 0.62329 0.49991 0.73555 0.0
C966 C 0.64062 0.54894 0.99678 0.0
C967 C 0.65637 0.53721 0.99631 0.0
C968 C 0.62625 0.54656 0.95938 0.0
C969 C 0.62727 0.53241 0.92049 0.0
C970 C 0.64288 0.52058 0.92031 0.0
C971 C 0.65719 0.52288 0.95782 0.0
C972 C 0.61241 0.53016 0.87909 0.0
C973 C 0.61751 0.53011 0.8249 0.0
C974 C 0.59339 0.52795 0.89239 0.0
C975 C 0.58703 0.52706 0.94871 0.0
C976 C 0.59424 0.51353 0.98362 0.0
C977 C 0.58826 0.51282 0.03678 0.0
C978 C 0.57497 0.52551 0.0554 0.0
C979 C 0.56761 0.5389 0.02085 0.0
C980 C 0.57356 0.53967 0.96767 0.0
C981 C 0.54509 0.49993 0.73052 0.0
C982 C 0.54021 0.51194 0.68857 0.0
C983 C 0.56034 0.50384 0.7634 0.0
C984 C 0.57079 0.52019 0.75642 0.0
C985 C 0.56596 0.53218 0.71408 0.0
C986 C 0.55104 0.52792 0.67981 0.0
C987 C 0.58531 0.52516 0.797 0.0
C988 C 0.58017 0.52548 0.85138 0.0
C989 C 0.60429 0.52786 0.78391 0.0
C990 C 0.61131 0.52747 0.72847 0.0
C991 C 0.61018 0.54347 0.69644 0.0
C992 C 0.61915 0.544 0.64687 0.0
C993 C 0.62978 0.52881 0.62976 0.0
C994 C 0.63114 0.51292 0.66171 0.0
C995 C 0.62184 0.51217 0.71073 0.0
H996 H 0.63696 0.52935 0.59174 0.0
H997 H 0.57035 0.52494 0.09657 0.0
H998 H 0.00747 0.66477 0.99032 0.0
H999 H 0.00965 0.63676 0.93484 0.0
H1000 H 0.99057 0.66793 0.79821 0.0
H1001 H 0.98732 0.69562 0.85386 0.0
H1002 H 0.97486 0.63639 0.79435 0.0
H1003 H 0.03803 0.65454 0.81927 0.0
H1004 H 0.06633 0.66311 0.86933 0.0
H1005 H 0.06639 0.60972 0.94631 0.0
H1006 H 0.03793 0.60092 0.89724 0.0
H1007 H 0.99049 0.56114 0.61482 0.0
H1008 H 0.98998 0.59104 0.6602 0.0
H1009 H 0.02147 0.56721 0.7908 0.0
H1010 H 0.02565 0.53887 0.73853 0.0
H1011 H 0.03186 0.59763 0.79214 0.0
H1012 H 0.96499 0.58091 0.77265 0.0
H1013 H 0.93809 0.57297 0.71544 0.0
H1014 H 0.94495 0.6238 0.62814 0.0
H1015 H 0.97219 0.63185 0.68364 0.0
C1016 C 1.00356 0.6657 0.94861 0.0
C1017 C 0.99738 0.68274 0.92693 0.0
C1018 C 0.00505 0.64963 0.91655 0.0
C1019 C 1.00063 0.65012 0.86166 0.0
C1020 C 0.99422 0.66703 0.84015 0.0
C1021 C 0.99259 0.68303 0.87218 0.0
C1022 C 1.00236 0.63306 0.82681 0.0
C1023 C 0.98726 0.6278 0.79449 0.0
C1024 C 0.01863 0.62188 0.82545 0.0
C1025 C 0.03574 0.62715 0.85499 0.0
C1026 C 0.04399 0.64469 0.84719 0.0
C1027 C 0.06008 0.64957 0.87534 0.0
C1028 C 0.06812 0.63699 0.9111 0.0
C1029 C 0.06013 0.61946 0.91868 0.0
C1030 C 0.04403 0.61452 0.89069 0.0
C1031 C 0.99794 0.56263 0.65219 0.0
C1032 C 0.00909 0.54805 0.67126 0.0
C1033 C 0.99694 0.57964 0.67987 0.0
C1034 C 0.00513 0.58184 0.7309 0.0
C1035 C 0.01521 0.56655 0.75147 0.0
C1036 C 0.01745 0.5501 0.72171 0.0
C1037 C 1.00364 0.5998 0.76281 0.0
C1038 C 0.01904 0.6056 0.7937 0.0
C1039 C 0.98752 0.61138 0.76337 0.0
C1040 C 0.97057 0.60696 0.73228 0.0
C1041 C 0.96067 0.59042 0.74146 0.0
C1042 C 0.94543 0.58587 0.70923 0.0
C1043 C 0.93975 0.59788 0.66851 0.0
C1044 C 0.94934 0.61451 0.65974 0.0
C1045 C 0.96469 0.61907 0.69148 0.0
H1046 H 0.92794 0.59429 0.64371 0.0
H1047 H 0.08058 0.6408 0.93284 0.0
H1048 H 0.11537 0.17821 0.16373 0.0
H1049 H 0.11518 0.14761 0.20456 0.0
H1050 H 0.10544 0.1726 0.35903 0.0
H1051 H 0.10744 0.20345 0.31945 0.0
H1052 H 0.11871 0.13809 0.37203 0.0
H1053 H 0.06945 0.16761 0.26505 0.0
H1054 H 0.05694 0.1812 0.18189 0.0
H1055 H 0.06874 0.13032 0.0976 0.0
H1056 H 0.08164 0.11657 0.1802 0.0
H1057 H 0.03414 0.11106 0.4835 0.0
H1058 H 0.06376 0.12207 0.44796 0.0
H1059 H 0.0615 0.0803 0.32404 0.0
H1060 H 0.03166 0.06919 0.3595 0.0
H1061 H 0.0617 0.11406 0.2839 0.0
H1062 H 0.09969 0.0821 0.40486 0.0
H1063 H 0.10954 0.06918 0.49171 0.0
H1064 H 0.11683 0.12453 0.55366 0.0
H1065 H 0.10669 0.13773 0.46746 0.0
C1066 C 0.11428 0.17742 0.20682 0.0
C1067 C 0.11045 0.19339 0.2379 0.0
C1068 C 0.11405 0.15976 0.23014 0.0
C1069 C 0.1093 0.1578 0.28429 0.0
C1070 C 0.10865 0.17374 0.31682 0.0
C1071 C 0.10946 0.19142 0.29385 0.0
C1072 C 0.10053 0.14039 0.30385 0.0
C1073 C 0.10634 0.13266 0.35268 0.0
C1074 C 0.0846 0.13299 0.27794 0.0
C1075 C 0.07673 0.14118 0.22846 0.0
C1076 C 0.06945 0.15937 0.22868 0.0
C1077 C 0.06231 0.1671 0.18168 0.0
C1078 C 0.06209 0.15664 0.13445 0.0
C1079 C 0.06898 0.13842 0.13417 0.0
C1080 C 0.07624 0.13067 0.18102 0.0
C1081 C 0.04025 0.10387 0.44963 0.0
C1082 C 0.0305 0.08956 0.42354 0.0
C1083 C 0.0573 0.11 0.4297 0.0
C1084 C 0.06486 0.10194 0.3833 0.0
C1085 C 0.05592 0.08655 0.36005 0.0
C1086 C 0.03889 0.08029 0.38023 0.0
C1087 C 0.07939 0.11217 0.35326 0.0
C1088 C 0.07454 0.11873 0.3024 0.0
C1089 C 0.09594 0.11857 0.37777 0.0
C1090 C 0.10231 0.11087 0.42972 0.0
C1091 C 0.10321 0.09149 0.43724 0.0
C1092 C 0.10889 0.08412 0.48629 0.0
C1093 C 0.11378 0.09603 0.52824 0.0
C1094 C 0.11305 0.11532 0.52111 0.0
C1095 C 0.10738 0.12275 0.47206 0.0
H1096 H 0.11815 0.09032 0.56624 0.0
H1097 H 0.05654 0.16264 0.0981 0.0
H1098 H 0.31112 0.06617 0.30825 0.0
H1099 H 0.33911 0.06407 0.36051 0.0
H1100 H 0.35989 0.11439 0.28787 0.0
H1101 H 0.33136 0.11665 0.23445 0.0
H1102 H 0.38338 0.08791 0.27294 0.0
H1103 H 0.35737 0.11079 0.43205 0.0
H1104 H 0.33366 0.11637 0.50162 0.0
H1105 H 0.33233 0.05791 0.5372 0.0
H1106 H 0.35574 0.05193 0.46716 0.0
H1107 H 0.45903 0.03238 0.3844 0.0
H1108 H 0.43954 0.06063 0.37807 0.0
H1109 H 0.39029 0.02668 0.38788 0.0
H1110 H 0.40941 0.99882 0.39655 0.0
H1111 H 0.38936 0.05981 0.45292 0.0
H1112 H 0.40714 0.0383 0.27166 0.0
H1113 H 0.42809 0.03344 0.19472 0.0
H1114 H 0.44351 0.09118 0.19886 0.0
H1115 H 0.42311 0.09624 0.2769 0.0
C1116 C 0.32111 0.07737 0.30489 0.0
C1117 C 0.31893 0.09153 0.26664 0.0
C1118 C 0.33727 0.07617 0.33528 0.0
C1119 C 0.35166 0.08917 0.32876 0.0
C1120 C 0.34896 0.10422 0.29375 0.0
C1121 C 0.33269 0.10543 0.26303 0.0
C1122 C 0.37039 0.08452 0.35008 0.0
C1123 C 0.38498 0.08247 0.31312 0.0
C1124 C 0.37266 0.07752 0.40251 0.0
C1125 C 0.35849 0.08095 0.44469 0.0
C1126 C 0.35199 0.09912 0.45462 0.0
C1127 C 0.33858 0.10235 0.4941 0.0
C1128 C 0.33154 0.08752 0.52393 0.0
C1129 C 0.33785 0.06941 0.51423 0.0
C1130 C 0.35124 0.0661 0.47474 0.0
C1131 C 0.44405 0.0311 0.38666 0.0
C1132 C 0.43572 0.01344 0.39077 0.0
C1133 C 0.43301 0.04716 0.3827 0.0
C1134 C 0.41355 0.04569 0.383 0.0
C1135 C 0.4053 0.02812 0.38847 0.0
C1136 C 0.41624 0.01219 0.39269 0.0
C1137 C 0.40131 0.06196 0.37434 0.0
C1138 C 0.38811 0.06622 0.41389 0.0
C1139 C 0.40037 0.0711 0.3244 0.0
C1140 C 0.41388 0.06756 0.28075 0.0
C1141 C 0.41532 0.04986 0.25695 0.0
C1142 C 0.427 0.04709 0.21289 0.0
C1143 C 0.43715 0.06198 0.19195 0.0
C1144 C 0.43576 0.07963 0.21531 0.0
C1145 C 0.4242 0.08243 0.25957 0.0
H1146 H 0.44616 0.05983 0.15777 0.0
H1147 H 0.32116 0.09005 0.55449 0.0
H1148 H 0.40623 0.30435 0.26587 0.0
H1149 H 0.40203 0.32836 0.33493 0.0
H1150 H 0.46153 0.33678 0.33929 0.0
H1151 H 0.46574 0.31228 0.27361 0.0
H1152 H 0.44876 0.34469 0.43203 0.0
H1153 H 0.4293 0.36057 0.24547 0.0
H1154 H 0.40848 0.3568 0.16759 0.0
H1155 H 0.36091 0.3667 0.26785 0.0
H1156 H 0.3815 0.37038 0.34634 0.0
H1157 H 0.46432 0.43778 0.31013 0.0
H1158 H 0.44783 0.40847 0.31548 0.0
H1159 H 0.44565 0.4132 0.48767 0.0
H1160 H 0.46273 0.44282 0.48229 0.0
H1161 H 0.4158 0.39745 0.34652 0.0
H1162 H 0.44525 0.36413 0.53399 0.0
H1163 H 0.47123 0.36556 0.59838 0.0
H1164 H 0.5059 0.39108 0.47955 0.0
H1165 H 0.48034 0.38918 0.41386 0.0
C1166 C 0.4184 0.31093 0.28305 0.0
C1167 C 0.43629 0.30687 0.26325 0.0
C1168 C 0.41599 0.32472 0.32228 0.0
C1169 C 0.43141 0.33479 0.34139 0.0
C1170 C 0.44934 0.32937 0.32522 0.0
C1171 C 0.45175 0.31551 0.2869 0.0
C1172 C 0.42936 0.35274 0.37065 0.0
C1173 C 0.44122 0.35622 0.4142 0.0
C1174 C 0.41918 0.36776 0.34852 0.0
C1175 C 0.40685 0.36549 0.30165 0.0
C1176 C 0.41438 0.36185 0.2508 0.0
C1177 C 0.40265 0.35974 0.20663 0.0
C1178 C 0.38338 0.36144 0.21281 0.0
C1179 C 0.37583 0.36532 0.26317 0.0
C1180 C 0.38751 0.3674 0.3075 0.0
C1181 C 0.46008 0.4328 0.34913 0.0
C1182 C 0.46488 0.44255 0.39571 0.0
C1183 C 0.45058 0.41601 0.35226 0.0
C1184 C 0.44544 0.40854 0.40202 0.0
C1185 C 0.4496 0.41856 0.44886 0.0
C1186 C 0.45939 0.43542 0.44574 0.0
C1187 C 0.43711 0.38961 0.40282 0.0
C1188 C 0.42273 0.38591 0.36627 0.0
C1189 C 0.44563 0.37449 0.42975 0.0
C1190 C 0.46074 0.37691 0.46946 0.0
C1191 C 0.45838 0.37018 0.52176 0.0
C1192 C 0.47306 0.37095 0.55836 0.0
C1193 C 0.49016 0.3785 0.54315 0.0
C1194 C 0.49261 0.38532 0.49132 0.0
C1195 C 0.47804 0.38436 0.45435 0.0
H1196 H 0.50157 0.3789 0.57137 0.0
H1197 H 0.37431 0.35981 0.17856 0.0
H1198 H 0.20659 0.45391 0.33109 0.0
H1199 H 0.18073 0.45098 0.39171 0.0
H1200 H 0.1695 0.39573 0.33155 0.0
H1201 H 0.19592 0.39857 0.26981 0.0
H1202 H 0.13976 0.41566 0.32526 0.0
H1203 H 0.17753 0.40256 0.47208 0.0
H1204 H 0.20523 0.40371 0.53015 0.0
H1205 H 0.19485 0.46148 0.56343 0.0
H1206 H 0.16717 0.46077 0.50555 0.0
H1207 H 0.06423 0.47037 0.41697 0.0
H1208 H 0.08336 0.44229 0.43167 0.0
H1209 H 0.13266 0.47668 0.43418 0.0
H1210 H 0.11364 0.50426 0.41948 0.0
H1211 H 0.13638 0.44698 0.50191 0.0
H1212 H 0.11404 0.45733 0.30752 0.0
H1213 H 0.08855 0.4568 0.24114 0.0
H1214 H 0.07051 0.40372 0.30056 0.0
H1215 H 0.09592 0.404 0.36719 0.0
C1216 C 0.19923 0.44077 0.33195 0.0
C1217 C 0.20344 0.42647 0.29539 0.0
C1218 C 0.18435 0.43906 0.36717 0.0
C1219 C 0.17327 0.42296 0.36726 0.0
C1220 C 0.17794 0.40821 0.33268 0.0
C1221 C 0.19295 0.40992 0.29712 0.0
C1222 C 0.15514 0.42356 0.39587 0.0
C1223 C 0.13893 0.42174 0.36497 0.0
C1224 C 0.15376 0.43104 0.44821 0.0
C1225 C 0.17014 0.43155 0.48455 0.0
C1226 C 0.18113 0.41552 0.49182 0.0
C1227 C 0.19685 0.41609 0.52473 0.0
C1228 C 0.20179 0.43265 0.55048 0.0
C1229 C 0.19097 0.44864 0.54362 0.0
C1230 C 0.17518 0.44812 0.51101 0.0
C1231 C 0.07909 0.47177 0.42228 0.0
C1232 C 0.08763 0.48923 0.41653 0.0
C1233 C 0.08999 0.45583 0.43065 0.0
C1234 C 0.10948 0.45735 0.43364 0.0
C1235 C 0.11767 0.47511 0.43241 0.0
C1236 C 0.10686 0.49087 0.42363 0.0
C1237 C 0.122 0.44102 0.42846 0.0
C1238 C 0.13706 0.43965 0.46397 0.0
C1239 C 0.12236 0.43051 0.38059 0.0
C1240 C 0.10675 0.4307 0.34216 0.0
C1241 C 0.10458 0.4456 0.30638 0.0
C1242 C 0.0902 0.44532 0.2687 0.0
C1243 C 0.07802 0.43017 0.26639 0.0
C1244 C 0.08002 0.41539 0.30223 0.0
C1245 C 0.09439 0.4156 0.33993 0.0
H1246 H 0.06701 0.42991 0.23688 0.0
H1247 H 0.21399 0.43309 0.57584 0.0
H1248 H 0.9118 0.84951 0.9755 0.0
H1249 H 0.90688 0.8753 0.91323 0.0
H1250 H 0.92695 0.84064 0.78389 0.0
H1251 H 0.93094 0.81489 0.84535 0.0
H1252 H 0.93279 0.89221 0.87301 0.0
H1253 H 0.92007 0.85464 0.66434 0.0
H1254 H 0.89765 0.83236 0.62625 0.0
H1255 H 0.85882 0.84506 0.75169 0.0
H1256 H 0.88084 0.86764 0.79021 0.0
H1257 H 0.99251 0.89637 0.64931 0.0
H1258 H 0.96449 0.88348 0.68816 0.0
H1259 H 0.94289 0.93875 0.71507 0.0
H1260 H 0.97056 0.95197 0.67251 0.0
H1261 H 0.9233 0.88796 0.67694 0.0
H1262 H 0.92903 0.93345 0.85776 0.0
H1263 H 0.94906 0.9584 0.89371 0.0
H1264 H 0.99727 0.93097 0.82901 0.0
H1265 H 0.97742 0.90596 0.79273 0.0
C1266 C 0.91432 0.84725 0.93326 0.0
C1267 C 0.92183 0.83028 0.91514 0.0
C1268 C 0.91155 0.862 0.89767 0.0
C1269 C 0.91652 0.86009 0.84352 0.0
C1270 C 0.92248 0.84254 0.82489 0.0
C1271 C 0.9249 0.82773 0.86025 0.0
C1272 C 0.9194 0.8768 0.80927 0.0
C1273 C 0.93003 0.89153 0.83041 0.0
C1274 C 0.91555 0.87649 0.75367 0.0
C1275 C 0.90216 0.86296 0.73018 0.0
C1276 C 0.90668 0.85288 0.68357 0.0
C1277 C 0.89405 0.84012 0.66197 0.0
C1278 C 0.87682 0.8373 0.68651 0.0
C1279 C 0.87218 0.84724 0.73273 0.0
C1280 C 0.88475 0.86002 0.75451 0.0
C1281 C 0.9816 0.90592 0.66123 0.0
C1282 C 0.9841 0.92533 0.65844 0.0
C1283 C 0.96549 0.89845 0.68352 0.0
C1284 C 0.95168 0.91016 0.70463 0.0
C1285 C 0.95342 0.9295 0.69893 0.0
C1286 C 0.96943 0.93701 0.6755 0.0
C1287 C 0.93771 0.90187 0.74077 0.0
C1288 C 0.92506 0.8889 0.71993 0.0
C1289 C 0.93929 0.90401 0.79677 0.0
C1290 C 0.95164 0.9182 0.82117 0.0
C1291 C 0.94387 0.93285 0.85103 0.0
C1292 C 0.9552 0.94697 0.87155 0.0
C1293 C 0.97443 0.94636 0.86328 0.0
C1294 C 0.98236 0.93151 0.83502 0.0
C1295 C 0.97105 0.91739 0.81436 0.0
H1296 H 0.98319 0.95733 0.87903 0.0
H1297 H 0.86707 0.82741 0.66973 0.0
H1298 H 0.69462 0.93141 0.87605 0.0
H1299 H 0.6658 0.93492 0.82572 0.0
H1300 H 0.63526 0.90999 0.95583 0.0
H1301 H 0.66407 0.90698 0.00661 0.0
H1302 H 0.63536 0.92072 0.78612 0.0
H1303 H 0.59704 0.93459 0.97971 0.0
H1304 H 0.60217 0.94053 0.07589 0.0
H1305 H 0.6542 0.96711 0.04021 0.0
H1306 H 0.6495 0.96095 0.9439 0.0
H1307 H 0.56713 0.98964 0.70045 0.0
H1308 H 0.57773 0.96048 0.74036 0.0
H1309 H 0.61637 0.991 0.83901 0.0
H1310 H 0.60454 0.02012 0.80393 0.0
H1311 H 0.59942 0.96567 0.89621 0.0
H1312 H 0.63658 0.95845 0.71032 0.0
H1313 H 0.63242 0.95728 0.6122 0.0
H1314 H 0.58353 0.92365 0.63152 0.0
H1315 H 0.58773 0.92427 0.72951 0.0
C1316 C 0.68188 0.9258 0.89264 0.0
C1317 C 0.68144 0.91918 0.94531 0.0
C1318 C 0.66534 0.92783 0.86391 0.0
C1319 C 0.64819 0.92319 0.88747 0.0
C1320 C 0.64819 0.91395 0.93696 0.0
C1321 C 0.66469 0.91215 0.96597 0.0
C1322 C 0.6309 0.93165 0.86561 0.0
C1323 C 0.62728 0.9303 0.81043 0.0
C1324 C 0.6198 0.9438 0.8972 0.0
C1325 C 0.6231 0.94693 0.95495 0.0
C1326 C 0.60968 0.94146 0.99254 0.0
C1327 C 0.61251 0.94488 0.04702 0.0
C1328 C 0.62859 0.95403 0.06419 0.0
C1329 C 0.64185 0.95983 0.0269 0.0
C1330 C 0.63916 0.95631 0.97241 0.0
C1331 C 0.57763 0.99014 0.73143 0.0
C1332 C 0.58484 0.00731 0.74925 0.0
C1333 C 0.58391 0.97338 0.75345 0.0
C1334 C 0.59792 0.97343 0.79244 0.0
C1335 C 0.60541 0.99054 0.80926 0.0
C1336 C 0.59883 0.00725 0.78842 0.0
C1337 C 0.60534 0.95604 0.81646 0.0
C1338 C 0.60685 0.95543 0.87229 0.0
C1339 C 0.61455 0.94235 0.78555 0.0
C1340 C 0.61243 0.94145 0.72689 0.0
C1341 C 0.62503 0.95074 0.69345 0.0
C1342 C 0.62265 0.9502 0.63793 0.0
C1343 C 0.60766 0.94052 0.61562 0.0
C1344 C 0.59515 0.93113 0.64877 0.0
C1345 C 0.5976 0.93144 0.70424 0.0
H1346 H 0.60577 0.94025 0.57268 0.0
H1347 H 0.63073 0.95674 0.10636 0.0
H1348 H 0.60301 0.71144 0.85831 0.0
H1349 H 0.60336 0.68365 0.80136 0.0
H1350 H 0.60173 0.6488 0.94145 0.0
H1351 H 0.60097 0.6763 0.99842 0.0
H1352 H 0.62192 0.63264 0.85467 0.0
H1353 H 0.56217 0.66355 0.89207 0.0
H1354 H 0.54137 0.69092 0.89008 0.0
H1355 H 0.54731 0.6941 0.71941 0.0
H1356 H 0.56841 0.66691 0.72061 0.0
H1357 H 0.55994 0.55962 0.85227 0.0
H1358 H 0.58402 0.58299 0.85134 0.0
H1359 H 0.56211 0.6048 0.70331 0.0
H1360 H 0.53673 0.58263 0.70729 0.0
H1361 H 0.56011 0.6301 0.76708 0.0
H1362 H 0.61415 0.5945 0.72618 0.0
H1363 H 0.6383 0.57 0.72559 0.0
H1364 H 0.64456 0.57526 0.89554 0.0
H1365 H 0.62072 0.59999 0.89724 0.0
C1366 C 0.60311 0.69785 0.87702 0.0
C1367 C 0.60157 0.69612 0.93292 0.0
C1368 C 0.6035 0.68201 0.84442 0.0
C1369 C 0.60233 0.66421 0.86725 0.0
C1370 C 0.60272 0.66242 0.92306 0.0
C1371 C 0.60227 0.67822 0.95564 0.0
C1372 C 0.59715 0.64784 0.83442 0.0
C1373 C 0.60848 0.63194 0.83504 0.0
C1374 C 0.57992 0.64726 0.80727 0.0
C1375 C 0.56703 0.66339 0.8065 0.0
C1376 C 0.55912 0.67017 0.85419 0.0
C1377 C 0.54729 0.68564 0.85321 0.0
C1378 C 0.54307 0.69428 0.80466 0.0
C1379 C 0.55063 0.68742 0.75699 0.0
C1380 C 0.56254 0.672 0.7578 0.0
C1381 C 0.56028 0.56924 0.81915 0.0
C1382 C 0.54568 0.56976 0.78166 0.0
C1383 C 0.57451 0.58244 0.81782 0.0
C1384 C 0.57482 0.59614 0.77782 0.0
C1385 C 0.56201 0.59469 0.7354 0.0
C1386 C 0.54743 0.58183 0.73764 0.0
C1387 C 0.58461 0.61412 0.78811 0.0
C1388 C 0.57398 0.63055 0.78412 0.0
C1389 C 0.60255 0.6151 0.81169 0.0
C1390 C 0.61557 0.59905 0.8118 0.0
C1391 C 0.62048 0.59025 0.76355 0.0
C1392 C 0.63418 0.57638 0.763 0.0
C1393 C 0.6428 0.57096 0.81054 0.0
C1394 C 0.63778 0.57939 0.8588 0.0
C1395 C 0.62427 0.59342 0.85954 0.0
H1396 H 0.65344 0.56026 0.80995 0.0
H1397 H 0.5339 0.70625 0.80397 0.0
H1398 H 0.7965 0.59172 0.88251 0.0
H1399 H 0.82466 0.59193 0.82717 0.0
H1400 H 0.858 0.60169 0.96802 0.0
H1401 H 0.82994 0.60199 0.02278 0.0
H1402 H 0.87596 0.6138 0.8802 0.0
H1403 H 0.84363 0.55821 0.93949 0.0
H1404 H 0.81639 0.53746 0.94607 0.0
H1405 H 0.81496 0.53218 0.77496 0.0
H1406 H 0.84203 0.55317 0.76741 0.0
H1407 H 0.95489 0.55401 0.85676 0.0
H1408 H 0.92834 0.57365 0.87718 0.0
H1409 H 0.89861 0.5503 0.74303 0.0
H1410 H 0.92395 0.52885 0.72683 0.0
H1411 H 0.87779 0.5484 0.81657 0.0
H1412 H 0.91162 0.60696 0.76104 0.0
H1413 H 0.93661 0.63059 0.76395 0.0
H1414 H 0.93647 0.6289 0.93546 0.0
H1415 H 0.91096 0.60593 0.93359 0.0
C1416 C 0.80974 0.59497 0.90099 0.0
C1417 C 0.81125 0.59647 0.95676 0.0
C1418 C 0.82583 0.59498 0.86949 0.0
C1419 C 0.84342 0.59621 0.89388 0.0
C1420 C 0.84459 0.60055 0.94847 0.0
C1421 C 0.82857 0.60066 0.97978 0.0
C1422 C 0.86018 0.58881 0.86673 0.0
C1423 C 0.8764 0.59959 0.86537 0.0
C1424 C 0.86078 0.57019 0.84828 0.0
C1425 C 0.84465 0.55744 0.85285 0.0
C1426 C 0.83742 0.55271 0.90328 0.0
C1427 C 0.82202 0.54092 0.90719 0.0
C1428 C 0.81391 0.53356 0.86095 0.0
C1429 C 0.82122 0.53794 0.81073 0.0
C1430 C 0.83657 0.5498 0.8066 0.0
C1431 C 0.94267 0.5529 0.83169 0.0
C1432 C 0.94167 0.53948 0.79053 0.0
C1433 C 0.92759 0.56467 0.84249 0.0
C1434 C 0.91138 0.56384 0.81111 0.0
C1435 C 0.91089 0.5513 0.76791 0.0
C1436 C 0.92562 0.53908 0.75831 0.0
C1437 C 0.89392 0.57353 0.82766 0.0
C1438 C 0.87747 0.56293 0.82849 0.0
C1439 C 0.89327 0.5922 0.8463 0.0
C1440 C 0.90968 0.60455 0.8471 0.0
C1441 C 0.91715 0.61144 0.79925 0.0
C1442 C 0.9313 0.62481 0.80075 0.0
C1443 C 0.93828 0.63105 0.84979 0.0
C1444 C 0.93111 0.624 0.8975 0.0
C1445 C 0.91672 0.61095 0.89627 0.0
H1446 H 0.94907 0.64153 0.85097 0.0
H1447 H 0.802 0.52442 0.86405 0.0
H1448 H 0.00927 0.17944 0.94326 0.0
H1449 H 1.00392 0.15114 0.8915 0.0
H1450 H 0.04263 0.17008 0.77165 0.0
H1451 H 0.04696 0.19903 0.82101 0.0
H1452 H 0.01656 0.1543 0.72253 0.0
H1453 H 0.05288 0.13513 0.872 0.0
H1454 H 0.06125 0.13175 0.96714 0.0
H1455 H 0.01118 0.10071 0.99515 0.0
H1456 H 1.00235 0.10415 0.90032 0.0
H1457 H 0.02688 0.06292 0.60261 0.0
H1458 H 0.03446 0.09113 0.65458 0.0
H1459 H 0.9851 0.08326 0.74989 0.0
H1460 H 0.97729 0.05546 0.69728 0.0
H1461 H 0.01841 0.09257 0.81089 0.0
H1462 H 0.98257 0.11366 0.65884 0.0
H1463 H 0.97484 0.11891 0.56398 0.0
H1464 H 0.02725 0.14635 0.54047 0.0
H1465 H 0.03541 0.14102 0.63508 0.0
C1466 C 0.01641 0.17786 0.9054 0.0
C1467 C 0.0287 0.19175 0.88699 0.0
C1468 C 0.01358 0.16137 0.87611 0.0
C1469 C 0.02323 0.15801 0.82798 0.0
C1470 C 0.03509 0.17205 0.80876 0.0
C1471 C 0.03772 0.18866 0.83759 0.0
C1472 C 0.02083 0.14007 0.79732 0.0
C1473 C 0.01735 0.14084 0.74198 0.0
C1474 C 0.02155 0.12229 0.82212 0.0
C1475 C 0.02686 0.12007 0.87913 0.0
C1476 C 0.04359 0.1277 0.89852 0.0
C1477 C 0.04842 0.12576 0.95239 0.0
C1478 C 0.03673 0.11607 0.9872 0.0
C1479 C 0.02021 0.10824 0.96816 0.0
C1480 C 0.01529 0.11017 0.91434 0.0
C1481 C 0.01784 0.06709 0.6352 0.0
C1482 C 1.00171 0.05677 0.64673 0.0
C1483 C 0.02209 0.08328 0.66462 0.0
C1484 C 0.01036 0.08936 0.70634 0.0
C1485 C 0.99443 0.07885 0.71825 0.0
C1486 C 0.98998 0.06296 0.68817 0.0
C1487 C 0.01422 0.10698 0.73655 0.0
C1488 C 0.01791 0.10609 0.79168 0.0
C1489 C 0.01407 0.12463 0.71146 0.0
C1490 C 0.00967 0.12679 0.6539 0.0
C1491 C 0.99258 0.12054 0.63325 0.0
C1492 C 0.98808 0.12361 0.5796 0.0
C1493 C 1.00051 0.13304 0.54636 0.0
C1494 C 0.01761 0.13911 0.56637 0.0
C1495 C 0.02218 0.13606 0.61997 0.0
H1496 H 0.99683 0.13581 0.50522 0.0
H1497 H 0.0405 0.11459 0.0289 0.0
H1498 H 0.33572 0.99405 0.90592 0.0
H1499 H 0.36377 0.9903 0.85157 0.0
H1500 H 0.35511 0.04478 0.78382 0.0
H1501 H 0.32709 0.04868 0.83824 0.0
H1502 H 0.36556 0.02173 0.70781 0.0
H1503 H 0.38855 0.03625 0.88195 0.0
H1504 H 0.39228 0.03302 0.97952 0.0
H1505 H 0.41431 0.97787 0.95805 0.0
H1506 H 0.41045 0.98066 0.86035 0.0
H1507 H 0.45608 0.02624 0.58623 0.0
H1508 H 0.4273 0.03186 0.63661 0.0
H1509 H 0.43597 0.98057 0.72313 0.0
H1510 H 0.46515 0.97564 0.67485 0.0
H1511 H 0.42565 1.00403 0.7908 0.0
H1512 H 0.40019 0.98961 0.61394 0.0
H1513 H 0.39542 0.99411 0.51695 0.0
H1514 H 0.37867 0.05074 0.54524 0.0
H1515 H 0.3833 0.04657 0.64192 0.0
C1516 C 0.33978 0.0053 0.87966 0.0
C1517 C 0.32901 0.02172 0.87692 0.0
C1518 C 0.35591 1.00314 0.84853 0.0
C1519 C 0.36189 0.01737 0.81396 0.0
C1520 C 0.35092 0.03356 0.81007 0.0
C1521 C 0.33476 0.03573 0.84114 0.0
C1522 C 0.37944 0.01533 0.78174 0.0
C1523 C 0.37873 0.01801 0.72614 0.0
C1524 C 0.39673 0.01034 0.8051 0.0
C1525 C 0.39901 0.00859 0.86385 0.0
C1526 C 0.39403 0.02337 0.89805 0.0
C1527 C 0.3962 0.02163 0.95338 0.0
C1528 C 0.40348 0.00523 0.97498 0.0
C1529 C 0.40864 0.99055 0.94127 0.0
C1530 C 0.40647 0.99221 0.88591 0.0
C1531 C 0.45188 0.01634 0.61651 0.0
C1532 C 0.46321 1.0009 0.62812 0.0
C1533 C 0.43518 0.01932 0.64469 0.0
C1534 C 0.42911 0.00659 0.68396 0.0
C1535 C 0.44022 0.99079 0.69379 0.0
C1536 C 0.45694 0.98794 0.66607 0.0
C1537 C 0.4117 0.00986 0.71635 0.0
C1538 C 0.41247 0.00756 0.77225 0.0
C1539 C 0.39448 0.01529 0.69332 0.0
C1540 C 0.39214 0.01779 0.63501 0.0
C1541 C 0.39557 1.00303 0.5993 0.0
C1542 C 0.39284 0.00551 0.54439 0.0
C1543 C 0.38661 0.02266 0.52497 0.0
C1544 C 0.38332 0.03742 0.56023 0.0
C1545 C 0.38597 0.035 0.61505 0.0
H1546 H 0.38419 0.02449 0.4827 0.0
H1547 H 0.40516 1.00391 0.01783 0.0
H1548 H 0.45412 0.30625 0.75908 0.0
H1549 H 0.45886 0.33455 0.70627 0.0
H1550 H 0.50234 0.3517 0.8146 0.0
H1551 H 0.49791 0.32337 0.86666 0.0
H1552 H 0.45372 0.36892 0.72737 0.0
H1553 H 0.5338 0.37891 0.75697 0.0
H1554 H 0.56208 0.35947 0.76227 0.0
H1555 H 0.53462 0.31587 0.67504 0.0
H1556 H 0.50627 0.33513 0.66857 0.0
H1557 H 0.4775 0.46302 0.70124 0.0
H1558 H 0.47346 0.43089 0.72901 0.0
H1559 H 0.50557 0.4124 0.59311 0.0
H1560 H 0.50957 0.44468 0.56488 0.0
H1561 H 0.51578 0.39344 0.67685 0.0
H1562 H 0.45803 0.40696 0.59705 0.0
H1563 H 0.42968 0.42502 0.57813 0.0
H1564 H 0.41179 0.41841 0.74088 0.0
H1565 H 0.44021 0.40044 0.76103 0.0
C1566 C 0.46483 0.31597 0.7713 0.0
C1567 C 0.47571 0.31243 0.81701 0.0
C1568 C 0.46751 0.33219 0.74108 0.0
C1569 C 0.48109 0.34532 0.75589 0.0
C1570 C 0.49208 0.34168 0.80127 0.0
C1571 C 0.48953 0.32541 0.83115 0.0
C1572 C 0.48319 0.36323 0.72587 0.0
C1573 C 0.46731 0.37419 0.71621 0.0
C1574 C 0.50079 0.37002 0.70934 0.0
C1575 C 0.51785 0.35841 0.71274 0.0
C1576 C 0.53382 0.36521 0.73873 0.0
C1577 C 0.54986 0.35421 0.74197 0.0
C1578 C 0.55013 0.33643 0.71915 0.0
C1579 C 0.53437 0.32962 0.69288 0.0
C1580 C 0.5183 0.34056 0.68949 0.0
C1581 C 0.48336 0.45221 0.67646 0.0
C1582 C 0.49356 0.45661 0.63023 0.0
C1583 C 0.48111 0.43371 0.6926 0.0
C1584 C 0.48889 0.41904 0.66272 0.0
C1585 C 0.49927 0.42336 0.61674 0.0
C1586 C 0.50154 0.4419 0.60062 0.0
C1587 C 0.48643 0.39934 0.68046 0.0
C1588 C 0.50221 0.38807 0.68779 0.0
C1589 C 0.46866 0.39196 0.69281 0.0
C1590 C 0.45132 0.40239 0.68064 0.0
C1591 C 0.44809 0.40936 0.62889 0.0
C1592 C 0.43199 0.41961 0.61793 0.0
C1593 C 0.41894 0.42289 0.65832 0.0
C1594 C 0.42192 0.41585 0.70966 0.0
C1595 C 0.438 0.4056 0.72085 0.0
H1596 H 0.4065 0.43087 0.64991 0.0
H1597 H 0.56255 0.32793 0.72173 0.0
H1598 H 0.18186 0.45867 0.88296 0.0
H1599 H 0.15614 0.46422 0.82159 0.0
H1600 H 0.17693 0.51934 0.7897 0.0
H1601 H 0.20322 0.51373 0.85001 0.0
H1602 H 0.13852 0.51877 0.80856 0.0
H1603 H 0.18264 0.48565 0.69945 0.0
H1604 H 0.20399 0.4598 0.67782 0.0
H1605 H 0.15837 0.42129 0.68095 0.0
H1606 H 0.13679 0.44682 0.70392 0.0
H1607 H 0.07296 0.5353 0.60245 0.0
H1608 H 0.10279 0.53167 0.64823 0.0
H1609 H 0.09126 0.47336 0.67257 0.0
H1610 H 0.06193 0.47673 0.62447 0.0
H1611 H 0.12656 0.47718 0.65357 0.0
H1612 H 0.08324 0.50755 0.77092 0.0
H1613 H 0.06059 0.53188 0.79609 0.0
H1614 H 0.103 0.57365 0.78192 0.0
H1615 H 0.12585 0.54959 0.75565 0.0
C1616 C 0.18129 0.47188 0.86229 0.0
C1617 C 0.19494 0.48564 0.87139 0.0
C1618 C 0.16641 0.47508 0.82732 0.0
C1619 C 0.16462 0.49214 0.80046 0.0
C1620 C 0.17798 0.50605 0.80989 0.0
C1621 C 0.19301 0.50282 0.84465 0.0
C1622 C 0.1487 0.49539 0.76304 0.0
C1623 C 0.1361 0.50988 0.77413 0.0
C1624 C 0.14518 0.48349 0.71883 0.0
C1625 C 0.15812 0.46815 0.70408 0.0
C1626 C 0.17717 0.47165 0.69607 0.0
C1627 C 0.18933 0.45704 0.68364 0.0
C1628 C 0.18256 0.43889 0.67842 0.0
C1629 C 0.1636 0.43534 0.68526 0.0
C1630 C 0.15141 0.44988 0.69803 0.0
C1631 C 0.0768 0.52166 0.61709 0.0
C1632 C 0.0646 0.50645 0.61148 0.0
C1633 C 0.09388 0.51961 0.64362 0.0
C1634 C 0.09913 0.50235 0.66557 0.0
C1635 C 0.08751 0.48691 0.6569 0.0
C1636 C 0.07054 0.48892 0.62995 0.0
C1637 C 0.11625 0.50046 0.69934 0.0
C1638 C 0.12907 0.4862 0.68769 0.0
C1639 C 0.11979 0.51235 0.74361 0.0
C1640 C 0.10621 0.52679 0.76077 0.0
C1641 C 0.08772 0.52194 0.7729 0.0
C1642 C 0.07484 0.53568 0.78734 0.0
C1643 C 0.08034 0.55431 0.79046 0.0
C1644 C 0.09875 0.55921 0.77938 0.0
C1645 C 0.11168 0.54553 0.76471 0.0
H1646 H 0.07034 0.56493 0.80157 0.0
H1647 H 0.19199 0.4276 0.66881 0.0
H1648 H 0.02902 0.83637 0.26041 0.0
H1649 H 0.02906 0.86432 0.31511 0.0
H1650 H 0.97688 0.84791 0.386 0.0
H1651 H 0.97572 0.82091 0.32727 0.0
H1652 H 0.97379 0.88126 0.37122 0.0
H1653 H 0.02239 0.84815 0.45445 0.0
H1654 H 0.05127 0.82982 0.46323 0.0
H1655 H 0.08281 0.87521 0.39828 0.0
H1656 H 0.05407 0.89373 0.38841 0.0
H1657 H 0.98407 0.96238 0.54886 0.0
H1658 H 0.97938 0.93113 0.51214 0.0
H1659 H 0.02768 0.9381 0.4115 0.0
H1660 H 0.03311 0.96863 0.45143 0.0
H1661 H 0.03041 0.90672 0.45713 0.0
H1662 H 0.9696 0.92487 0.33682 0.0
H1663 H 0.93704 0.93592 0.33329 0.0
H1664 H 0.92735 0.91448 0.49102 0.0
H1665 H 0.95957 0.90254 0.49421 0.0
C1666 C 0.01738 0.83866 0.28709 0.0
C1667 C 1.00227 0.82613 0.28829 0.0
C1668 C 0.01763 0.85464 0.31953 0.0
C1669 C 1.0031 0.85839 0.35583 0.0
C1670 C 0.98832 0.84558 0.35856 0.0
C1671 C 0.98783 0.82981 0.32518 0.0
C1672 C 1.00276 0.87616 0.38816 0.0
C1673 C 0.98622 0.88663 0.39042 0.0
C1674 C 0.01869 0.88335 0.41458 0.0
C1675 C 0.03603 0.87227 0.42029 0.0
C1676 C 0.03546 0.85417 0.44167 0.0
C1677 C 0.05181 0.84376 0.4469 0.0
C1678 C 0.06886 0.85133 0.43122 0.0
C1679 C 0.06959 0.86935 0.41037 0.0
C1680 C 0.05328 0.87983 0.40501 0.0
C1681 C 0.99335 0.95739 0.51779 0.0
C1682 C 0.00884 0.96807 0.50249 0.0
C1683 C 0.99054 0.93946 0.49612 0.0
C1684 C 1.0029 0.93201 0.4577 0.0
C1685 C 0.01788 0.94322 0.44104 0.0
C1686 C 0.02095 0.96081 0.46363 0.0
C1687 C 1.00171 0.91221 0.4376 0.0
C1688 C 0.01803 0.90128 0.43785 0.0
C1689 C 0.98539 0.90421 0.41552 0.0
C1690 C 0.96711 0.91352 0.41658 0.0
C1691 C 0.96058 0.92283 0.37103 0.0
C1692 C 0.94212 0.92896 0.36876 0.0
C1693 C 0.93018 0.92606 0.41211 0.0
C1694 C 0.93663 0.91686 0.45765 0.0
C1695 C 0.95494 0.91031 0.45956 0.0
H1696 H 0.91592 0.93087 0.41031 0.0
H1697 H 0.0815 0.84325 0.43531 0.0
H1698 H 0.68339 0.96197 0.30287 0.0
H1699 H 0.65458 0.96887 0.35121 0.0
H1700 H 0.6756 0.02323 0.39227 0.0
H1701 H 0.70458 0.01643 0.34353 0.0
H1702 H 0.65721 1.00399 0.47975 0.0
H1703 H 0.64641 0.02063 0.29474 0.0
H1704 H 0.6457 0.01451 0.19766 0.0
H1705 H 0.60685 0.96995 0.22202 0.0
H1706 H 0.60754 0.97564 0.31939 0.0
H1707 H 0.55548 0.04299 0.47122 0.0
H1708 H 0.5862 0.03689 0.43206 0.0
H1709 H 0.5933 0.98996 0.53755 0.0
H1710 H 0.56244 0.99606 0.57666 0.0
H1711 H 0.59812 0.00619 0.37736 0.0
H1712 H 0.64081 0.98514 0.56137 0.0
H1713 H 0.6416 0.99076 0.65885 0.0
H1714 H 0.61694 0.04467 0.63583 0.0
H1715 H 0.61584 0.03926 0.53854 0.0
C1716 C 0.68205 0.97531 0.32281 0.0
C1717 C 0.69643 0.98861 0.31943 0.0
C1718 C 0.66548 0.97928 0.35021 0.0
C1719 C 0.66283 0.9966 0.37537 0.0
C1720 C 0.6773 0.00976 0.3733 0.0
C1721 C 0.69383 0.00589 0.34517 0.0
C1722 C 0.64471 1.00114 0.40195 0.0
C1723 C 0.64428 0.00443 0.45737 0.0
C1724 C 0.62777 1.00172 0.37299 0.0
C1725 C 0.62718 0.99844 0.3144 0.0
C1726 C 0.63783 0.00943 0.27944 0.0
C1727 C 0.63741 0.00606 0.22435 0.0
C1728 C 0.62628 0.99181 0.20369 0.0
C1729 C 0.61549 0.98096 0.23808 0.0
C1730 C 0.61588 0.98426 0.29322 0.0
C1731 C 0.56361 0.03137 0.48597 0.0
C1732 C 0.55635 0.01966 0.52574 0.0
C1733 C 0.58117 0.02788 0.46358 0.0
C1734 C 0.59215 0.01291 0.48151 0.0
C1735 C 0.5852 1.00163 0.52299 0.0
C1736 C 0.56748 0.00499 0.54496 0.0
C1737 C 0.61051 0.00889 0.45542 0.0
C1738 C 0.61099 0.00565 0.39995 0.0
C1739 C 0.62745 0.00822 0.48443 0.0
C1740 C 0.62804 0.01167 0.54284 0.0
C1741 C 0.63549 0.99814 0.57727 0.0
C1742 C 0.63594 1.00126 0.63247 0.0
C1743 C 0.62917 0.01798 0.65362 0.0
C1744 C 0.62197 0.03162 0.61957 0.0
C1745 C 0.62137 0.02851 0.5644 0.0
H1746 H 0.62965 0.02038 0.69633 0.0
H1747 H 0.62597 0.98922 0.16104 0.0
H1748 H 0.54543 0.72042 0.39584 0.0
H1749 H 0.54019 0.69327 0.45318 0.0
H1750 H 0.51792 0.66309 0.31817 0.0
H1751 H 0.52259 0.69028 0.26151 0.0
H1752 H 0.49809 0.65506 0.3991 0.0
H1753 H 0.56442 0.65761 0.37009 0.0
H1754 H 0.59566 0.67176 0.37242 0.0
H1755 H 0.59211 0.67708 0.54324 0.0
H1756 H 0.56072 0.66316 0.54183 0.0
H1757 H 0.51868 0.56102 0.45786 0.0
H1758 H 0.52187 0.59274 0.42452 0.0
H1759 H 0.5182 0.61397 0.58557 0.0
H1760 H 0.5147 0.58188 0.61949 0.0
H1761 H 0.54987 0.62845 0.50581 0.0
H1762 H 0.48354 0.62291 0.53177 0.0
H1763 H 0.45308 0.60732 0.52479 0.0
H1764 H 0.45818 0.60581 0.35371 0.0
H1765 H 0.48876 0.62129 0.35973 0.0
C1766 C 0.53931 0.70801 0.37856 0.0
C1767 C 0.53437 0.70757 0.32408 0.0
C1768 C 0.53641 0.69243 0.41133 0.0
C1769 C 0.52891 0.67588 0.39008 0.0
C1770 C 0.52367 0.67561 0.33589 0.0
C1771 C 0.5263 0.69123 0.30342 0.0
C1772 C 0.52665 0.65872 0.42345 0.0
C1773 C 0.5095 0.64931 0.42221 0.0
C1774 C 0.5413 0.65119 0.45489 0.0
C1775 C 0.56014 0.65957 0.45577 0.0
C1776 C 0.57024 0.66194 0.40809 0.0
C1777 C 0.58798 0.66989 0.40926 0.0
C1778 C 0.59584 0.67537 0.45792 0.0
C1779 C 0.58599 0.67286 0.50556 0.0
C1780 C 0.56823 0.66494 0.5046 0.0
C1781 C 0.51894 0.57235 0.48644 0.0
C1782 C 0.51681 0.5689 0.54143 0.0
C1783 C 0.52058 0.59051 0.46721 0.0
C1784 C 0.52033 0.60571 0.5025 0.0
C1785 C 0.5185 0.60241 0.55768 0.0
C1786 C 0.51647 0.58412 0.57697 0.0
C1787 C 0.52151 0.62491 0.48047 0.0
C1788 C 0.53844 0.63455 0.48351 0.0
C1789 C 0.50679 0.63254 0.45006 0.0
C1790 C 0.48849 0.62313 0.44625 0.0
C1791 C 0.47824 0.61911 0.4927 0.0
C1792 C 0.46092 0.61036 0.4889 0.0
C1793 C 0.45371 0.60556 0.43883 0.0
C1794 C 0.46378 0.60954 0.39245 0.0
C1795 C 0.48108 0.61834 0.39603 0.0
H1796 H 0.44031 0.59877 0.43598 0.0
H1797 H 0.60958 0.68152 0.45874 0.0
H1798 H 0.81457 0.56364 0.31198 0.0
H1799 H 0.84518 0.56155 0.35401 0.0
H1800 H 0.83396 0.50481 0.39956 0.0
H1801 H 0.8031 0.50681 0.35743 0.0
H1802 H 0.85135 0.5262 0.482 0.0
H1803 H 0.86051 0.51182 0.29617 0.0
H1804 H 0.85805 0.51698 0.19898 0.0
H1805 H 0.88872 0.568 0.21439 0.0
H1806 H 0.8911 0.56328 0.31188 0.0
H1807 H 0.94536 0.49581 0.52329 0.0
H1808 H 0.91367 0.49942 0.48981 0.0
H1809 H 0.92415 0.55735 0.45727 0.0
H1810 H 0.95565 0.55412 0.49351 0.0
H1811 H 0.90723 0.53581 0.36865 0.0
H1812 H 0.89877 0.55075 0.55162 0.0
H1813 H 0.90204 0.54648 0.64854 0.0
H1814 H 0.87018 0.49598 0.63981 0.0
H1815 H 0.86719 0.4997 0.54203 0.0
C1816 C 0.81842 0.55078 0.33169 0.0
C1817 C 0.80625 0.53542 0.33151 0.0
C1818 C 0.83605 0.54957 0.35536 0.0
C1819 C 0.84199 0.53299 0.37971 0.0
C1820 C 0.82971 0.51776 0.38101 0.0
C1821 C 0.8121 0.51889 0.35671 0.0
C1822 C 0.86122 0.5315 0.40215 0.0
C1823 C 0.86356 0.52802 0.45704 0.0
C1824 C 0.87721 0.53442 0.37002 0.0
C1825 C 0.8758 0.5373 0.31142 0.0
C1826 C 0.86657 0.52423 0.27892 0.0
C1827 C 0.86522 0.52706 0.22376 0.0
C1828 C 0.87318 0.54284 0.20054 0.0
C1829 C 0.88253 0.5558 0.23244 0.0
C1830 C 0.8839 0.55305 0.28765 0.0
C1831 C 0.94108 0.50935 0.50891 0.0
C1832 C 0.95354 0.52451 0.50909 0.0
C1833 C 0.92285 0.51138 0.48987 0.0
C1834 C 0.91659 0.52857 0.47016 0.0
C1835 C 0.92877 0.54385 0.47134 0.0
C1836 C 0.9469 0.54192 0.49156 0.0
C1837 C 0.89735 0.53045 0.44833 0.0
C1838 C 0.89501 0.53397 0.39356 0.0
C1839 C 0.88139 0.5277 0.4806 0.0
C1840 C 0.88298 0.52537 0.53935 0.0
C1841 C 0.89265 0.5386 0.5702 0.0
C1842 C 0.89442 0.5363 0.62539 0.0
C1843 C 0.88634 0.52094 0.6505 0.0
C1844 C 0.87647 0.50786 0.62031 0.0
C1845 C 0.87475 0.51004 0.56494 0.0
H1846 H 0.88769 0.5192 0.69331 0.0
H1847 H 0.87213 0.54499 0.15782 0.0
loop_
_geom_bond_atom_site_label_1
_geom_bond_atom_site_label_2
_geom_bond_distance
_geom_bond_site_symmetry_2
_ccdc_geom_bond_type
C0 C1 1.386 . S
C0 C2 1.397 1_556 S
C0 H24 0.931 . S
C1 C0 1.386 . S
C1 C5 1.397 1_556 S
C2 C0 1.397 1_554 S
C2 C3 1.384 . S
C2 H25 0.930 . S
C3 C2 1.384 . S
C3 C4 1.377 . S
C3 C6 1.481 . S
C4 C3 1.377 . S
C4 C5 1.389 . S
C4 H26 0.929 . S
C5 C1 1.397 1_554 S
C5 C4 1.389 . S
C5 H27 0.931 . S
C6 C3 1.481 . S
C6 C7 1.387 . S
C6 C11 1.390 . S
C7 C6 1.387 . S
C7 C8 1.401 . S
C7 H28 0.930 . S
C8 C7 1.401 . S
C8 C9 1.376 . S
C8 C17 1.511 . S
C9 C8 1.376 . S
C9 C10 1.392 . S
C9 H30 0.931 . S
C10 C9 1.392 . S
C10 C11 1.361 . S
C10 C12 1.500 . S
C11 C6 1.390 . S
C11 C10 1.361 . S
C11 H29 0.931 . S
C12 C10 1.500 . S
C12 C13 1.371 . S
C12 C14 1.365 . S
C13 C12 1.371 . S
C13 C23 1.386 . S
C13 H31 0.931 . S
C14 C12 1.365 . S
C14 C15 1.409 . S
C14 H32 0.929 . S
C15 C14 1.409 . S
C15 C16 1.380 . S
C15 H33 0.930 . S
C16 C15 1.380 . S
C16 C23 1.357 . S
C17 C8 1.511 . S
C17 C18 1.341 . S
C17 C19 1.371 . S
C18 C17 1.341 . S
C18 C22 1.394 . S
C18 H34 0.930 . S
C19 C17 1.371 . S
C19 C20 1.392 . S
C19 H35 0.931 . S
C20 C19 1.392 . S
C20 C21 1.331 . S
C20 H38 0.932 . S
C21 C20 1.331 . S
C21 C22 1.336 . S
C22 C18 1.394 . S
C22 C21 1.336 . S
C22 H37 0.929 . S
C23 C13 1.386 . S
C23 C16 1.357 . S
C23 H36 0.928 . S
H24 C0 0.931 . S
H25 C2 0.930 . S
H26 C4 0.929 . S
H27 C5 0.931 . S
H28 C7 0.930 . S
H29 C11 0.931 . S
H30 C9 0.931 . S
H31 C13 0.931 . S
H32 C14 0.929 . S
H33 C15 0.930 . S
H34 C18 0.930 . S
H35 C19 0.931 . S
H36 C23 0.928 . S
H37 C22 0.929 . S
H38 C20 0.932 . S
C39 C40 1.386 . S
C39 C41 1.397 1_556 S
C39 H63 0.931 . S
C40 C39 1.386 . S
C40 C44 1.397 1_556 S
C41 C39 1.397 1_554 S
C41 C42 1.384 . S
C41 H64 0.930 . S
C42 C41 1.384 . S
C42 C43 1.377 . S
C42 C45 1.481 . S
C43 C42 1.377 . S
C43 C44 1.389 . S
C43 H65 0.929 . S
C44 C40 1.397 1_554 S
C44 C43 1.389 . S
C44 H66 0.931 . S
C45 C42 1.481 . S
C45 C46 1.387 . S
C45 C50 1.390 . S
C46 C45 1.387 . S
C46 C47 1.401 . S
C46 H67 0.930 . S
C47 C46 1.401 . S
C47 C48 1.376 . S
C47 C56 1.511 . S
C48 C47 1.376 . S
C48 C49 1.392 . S
C48 H69 0.931 . S
C49 C48 1.392 . S
C49 C50 1.361 . S
C49 C51 1.500 . S
C50 C45 1.390 . S
C50 C49 1.361 . S
C50 H68 0.931 . S
C51 C49 1.500 . S
C51 C52 1.371 . S
C51 C53 1.365 . S
C52 C51 1.371 . S
C52 C62 1.386 . S
C52 H70 0.931 . S
C53 C51 1.365 . S
C53 C54 1.409 . S
C53 H71 0.929 . S
C54 C53 1.409 . S
C54 C55 1.380 . S
C54 H72 0.930 . S
C55 C54 1.380 . S
C55 C62 1.357 . S
C56 C47 1.511 . S
C56 C57 1.341 . S
C56 C58 1.371 . S
C57 C56 1.341 . S
C57 C61 1.394 . S
C57 H73 0.930 . S
C58 C56 1.371 . S
C58 C59 1.392 . S
C58 H74 0.931 . S
C59 C58 1.392 . S
C59 C60 1.331 . S
C59 H77 0.932 . S
C60 C59 1.331 . S
C60 C61 1.336 . S
C61 C57 1.394 . S
C61 C60 1.336 . S
C61 H76 0.929 . S
C62 C52 1.386 . S
C62 C55 1.357 . S
C62 H75 0.928 . S
H63 C39 0.931 . S
H64 C41 0.930 . S
H65 C43 0.929 . S
H66 C44 0.931 . S
H67 C46 0.930 . S
H68 C50 0.931 . S
H69 C48 0.931 . S
H70 C52 0.931 . S
H71 C53 0.929 . S
H72 C54 0.930 . S
H73 C57 0.930 . S
H74 C58 0.931 . S
H75 C62 0.928 . S
H76 C61 0.929 . S
H77 C59 0.932 . S
C78 C79 1.386 . S
C78 C80 1.397 1_556 S
C78 H102 0.931 . S
C79 C78 1.386 . S
C79 C83 1.397 1_556 S
C80 C78 1.397 1_554 S
C80 C81 1.384 . S
C80 H103 0.930 . S
C81 C80 1.384 . S
C81 C82 1.377 . S
C81 C84 1.481 . S
C82 C81 1.377 . S
C82 C83 1.389 . S
C82 H104 0.929 . S
C83 C79 1.397 1_554 S
C83 C82 1.389 . S
C83 H105 0.931 . S
C84 C81 1.481 . S
C84 C85 1.387 . S
C84 C89 1.390 . S
C85 C84 1.387 . S
C85 C86 1.401 . S
C85 H106 0.930 . S
C86 C85 1.401 . S
C86 C87 1.376 . S
C86 C95 1.511 . S
C87 C86 1.376 . S
C87 C88 1.392 . S
C87 H108 0.931 . S
C88 C87 1.392 . S
C88 C89 1.361 . S
C88 C90 1.500 . S
C89 C84 1.390 . S
C89 C88 1.361 . S
C89 H107 0.931 . S
C90 C88 1.500 . S
C90 C91 1.371 . S
C90 C92 1.365 . S
C91 C90 1.371 . S
C91 C101 1.386 . S
C91 H109 0.931 . S
C92 C90 1.365 . S
C92 C93 1.409 . S
C92 H110 0.929 . S
C93 C92 1.409 . S
C93 C94 1.380 . S
C93 H111 0.930 . S
C94 C93 1.380 . S
C94 C101 1.357 . S
C95 C86 1.511 . S
C95 C96 1.341 . S
C95 C97 1.371 . S
C96 C95 1.341 . S
C96 C100 1.394 . S
C96 H112 0.930 . S
C97 C95 1.371 . S
C97 C98 1.392 . S
C97 H113 0.931 . S
C98 C97 1.392 . S
C98 C99 1.331 . S
C98 H116 0.932 . S
C99 C98 1.331 . S
C99 C100 1.336 . S
C100 C96 1.394 . S
C100 C99 1.336 . S
C100 H115 0.929 . S
C101 C91 1.386 . S
C101 C94 1.357 . S
C101 H114 0.928 . S
H102 C78 0.931 . S
H103 C80 0.930 . S
H104 C82 0.929 . S
H105 C83 0.931 . S
H106 C85 0.930 . S
H107 C89 0.931 . S
H108 C87 0.931 . S
H109 C91 0.931 . S
H110 C92 0.929 . S
H111 C93 0.930 . S
H112 C96 0.930 . S
H113 C97 0.931 . S
H114 C101 0.928 . S
H115 C100 0.929 . S
H116 C98 0.932 . S
C117 C118 1.386 . S
C117 C119 1.397 . S
C117 H141 0.931 . S
C118 C117 1.386 . S
C118 C122 1.397 . S
C119 C117 1.397 . S
C119 C120 1.384 . S
C119 H142 0.930 . S
C120 C119 1.384 . S
C120 C121 1.377 . S
C120 C123 1.481 . S
C121 C120 1.377 . S
C121 C122 1.389 . S
C121 H143 0.929 . S
C122 C118 1.397 . S
C122 C121 1.389 . S
C122 H144 0.931 . S
C123 C120 1.481 . S
C123 C124 1.387 . S
C123 C128 1.390 . S
C124 C123 1.387 . S
C124 C125 1.401 . S
C124 H145 0.930 . S
C125 C124 1.401 . S
C125 C126 1.376 . S
C125 C134 1.511 . S
C126 C125 1.376 . S
C126 C127 1.392 . S
C126 H147 0.931 . S
C127 C126 1.392 . S
C127 C128 1.361 . S
C127 C129 1.500 . S
C128 C123 1.390 . S
C128 C127 1.361 . S
C128 H146 0.931 . S
C129 C127 1.500 . S
C129 C130 1.371 . S
C129 C131 1.365 . S
C130 C129 1.371 . S
C130 C140 1.386 1_554 S
C130 H148 0.933 . S
C131 C129 1.365 . S
C131 C132 1.409 . S
C131 H149 0.929 . S
C132 C131 1.409 . S
C132 C133 1.380 1_554 S
C132 H150 0.930 . S
C133 C132 1.380 1_556 S
C133 C140 1.357 . S
C134 C125 1.511 . S
C134 C135 1.341 . S
C134 C136 1.371 . S
C135 C134 1.341 . S
C135 C139 1.394 . S
C135 H151 0.930 . S
C136 C134 1.371 . S
C136 C137 1.392 . S
C136 H152 0.931 . S
C137 C136 1.392 . S
C137 C138 1.331 . S
C137 H155 0.932 . S
C138 C137 1.331 . S
C138 C139 1.336 . S
C139 C135 1.394 . S
C139 C138 1.336 . S
C139 H154 0.929 . S
C140 C130 1.386 1_556 S
C140 C133 1.357 . S
C140 H153 0.928 . S
H141 C117 0.931 . S
H142 C119 0.930 . S
H143 C121 0.929 . S
H144 C122 0.931 . S
H145 C124 0.930 . S
H146 C128 0.931 . S
H147 C126 0.931 . S
H148 C130 0.933 . S
H149 C131 0.929 . S
H150 C132 0.930 . S
H151 C135 0.930 . S
H152 C136 0.931 . S
H153 C140 0.928 . S
H154 C139 0.929 . S
H155 C137 0.932 . S
C156 C157 1.386 . S
C156 C158 1.397 . S
C156 H180 0.931 . S
C157 C156 1.386 . S
C157 C161 1.397 . S
C158 C156 1.397 . S
C158 C159 1.384 . S
C158 H181 0.930 . S
C159 C158 1.384 . S
C159 C160 1.377 . S
C159 C162 1.481 . S
C160 C159 1.377 . S
C160 C161 1.389 . S
C160 H182 0.929 . S
C161 C157 1.397 . S
C161 C160 1.389 . S
C161 H183 0.931 . S
C162 C159 1.481 . S
C162 C163 1.387 . S
C162 C167 1.390 . S
C163 C162 1.387 . S
C163 C164 1.401 . S
C163 H184 0.930 . S
C164 C163 1.401 . S
C164 C165 1.376 1_554 S
C164 C173 1.511 . S
C165 C164 1.376 1_556 S
C165 C166 1.392 . S
C165 H186 0.931 . S
C166 C165 1.392 . S
C166 C167 1.361 1_556 S
C166 C168 1.500 . S
C167 C162 1.390 . S
C167 C166 1.361 1_554 S
C167 H185 0.931 1_554 S
C168 C166 1.500 . S
C168 C169 1.371 . S
C168 C170 1.365 . S
C169 C168 1.371 . S
C169 C179 1.386 . S
C169 H187 0.931 . S
C170 C168 1.365 . S
C170 C171 1.409 . S
C170 H188 0.929 . S
C171 C170 1.409 . S
C171 C172 1.380 . S
C171 H189 0.930 . S
C172 C171 1.380 . S
C172 C179 1.357 . S
C173 C164 1.511 . S
C173 C174 1.341 . S
C173 C175 1.371 . S
C174 C173 1.341 . S
C174 C178 1.394 . S
C174 H190 0.930 . S
C175 C173 1.371 . S
C175 C176 1.392 . S
C175 H191 0.931 1_554 S
C176 C175 1.392 . S
C176 C177 1.331 . S
C176 H194 0.932 1_554 S
C177 C176 1.331 . S
C177 C178 1.336 . S
C178 C174 1.394 . S
C178 C177 1.336 . S
C178 H193 0.929 . S
C179 C169 1.386 . S
C179 C172 1.357 . S
C179 H192 0.928 . S
H180 C156 0.931 . S
H181 C158 0.930 . S
H182 C160 0.929 . S
H183 C161 0.931 . S
H184 C163 0.930 . S
H185 C167 0.931 1_556 S
H186 C165 0.931 . S
H187 C169 0.931 . S
H188 C170 0.929 . S
H189 C171 0.930 . S
H190 C174 0.930 . S
H191 C175 0.931 1_556 S
H192 C179 0.928 . S
H193 C178 0.929 . S
H194 C176 0.932 1_556 S
C195 C196 1.386 . S
C195 C197 1.397 . S
C195 H219 0.931 . S
C196 C195 1.386 . S
C196 C200 1.397 . S
C197 C195 1.397 . S
C197 C198 1.384 . S
C197 H220 0.930 . S
C198 C197 1.384 . S
C198 C199 1.377 . S
C198 C201 1.481 . S
C199 C198 1.377 . S
C199 C200 1.389 . S
C199 H221 0.929 . S
C200 C196 1.397 . S
C200 C199 1.389 . S
C200 H222 0.931 . S
C201 C198 1.481 . S
C201 C202 1.387 . S
C201 C206 1.390 1_554 S
C202 C201 1.387 . S
C202 C203 1.401 . S
C202 H223 0.930 . S
C203 C202 1.401 . S
C203 C204 1.376 1_554 S
C203 C212 1.511 . S
C204 C203 1.376 1_556 S
C204 C205 1.392 . S
C204 H225 0.931 . S
C205 C204 1.392 . S
C205 C206 1.361 . S
C205 C207 1.500 . S
C206 C201 1.390 1_556 S
C206 C205 1.361 . S
C206 H224 0.931 . S
C207 C205 1.500 . S
C207 C208 1.371 . S
C207 C209 1.365 . S
C208 C207 1.371 . S
C208 C218 1.386 . S
C208 H226 0.931 . S
C209 C207 1.365 . S
C209 C210 1.409 . S
C209 H227 0.929 . S
C210 C209 1.409 . S
C210 C211 1.380 . S
C210 H228 0.930 . S
C211 C210 1.380 . S
C211 C218 1.357 . S
C212 C203 1.511 . S
C212 C213 1.341 . S
C212 C214 1.371 1_554 S
C213 C212 1.341 . S
C213 C217 1.394 . S
C213 H229 0.930 . S
C214 C212 1.371 1_556 S
C214 C215 1.392 1_556 S
C214 H230 0.931 . S
C215 C214 1.392 1_554 S
C215 C216 1.331 . S
C215 H233 0.932 1_554 S
C216 C215 1.331 . S
C216 C217 1.336 . S
C217 C213 1.394 . S
C217 C216 1.336 . S
C217 H232 0.929 . S
C218 C208 1.386 . S
C218 C211 1.357 . S
C218 H231 0.928 . S
H219 C195 0.931 . S
H220 C197 0.930 . S
H221 C199 0.929 . S
H222 C200 0.931 . S
H223 C202 0.930 . S
H224 C206 0.931 . S
H225 C204 0.931 . S
H226 C208 0.931 . S
H227 C209 0.929 . S
H228 C210 0.930 . S
H229 C213 0.930 . S
H230 C214 0.931 . S
H231 C218 0.928 . S
H232 C217 0.929 . S
H233 C215 0.932 1_556 S
C234 C235 1.386 . S
C234 C236 1.397 . S
C234 H258 0.931 . S
C235 C234 1.386 . S
C235 C239 1.397 . S
C236 C234 1.397 . S
C236 C237 1.384 . S
C236 H259 0.930 . S
C237 C236 1.384 . S
C237 C238 1.377 . S
C237 C240 1.481 . S
C238 C237 1.377 . S
C238 C239 1.389 . S
C238 H260 0.929 . S
C239 C235 1.397 . S
C239 C238 1.389 . S
C239 H261 0.931 . S
C240 C237 1.481 . S
C240 C241 1.387 . S
C240 C245 1.390 1_554 S
C241 C240 1.387 . S
C241 C242 1.401 . S
C241 H262 0.930 . S
C242 C241 1.401 . S
C242 C243 1.376 1_554 S
C242 C251 1.511 . S
C243 C242 1.376 1_556 S
C243 C244 1.392 . S
C243 H264 0.931 . S
C244 C243 1.392 . S
C244 C245 1.361 . S
C244 C246 1.500 . S
C245 C240 1.390 1_556 S
C245 C244 1.361 . S
C245 H263 0.931 . S
C246 C244 1.500 . S
C246 C247 1.371 . S
C246 C248 1.365 . S
C247 C246 1.371 . S
C247 C257 1.386 . S
C247 H265 0.931 . S
C248 C246 1.365 . S
C248 C249 1.409 . S
C248 H266 0.929 . S
C249 C248 1.409 . S
C249 C250 1.380 . S
C249 H267 0.930 . S
C250 C249 1.380 . S
C250 C257 1.357 . S
C251 C242 1.511 . S
C251 C252 1.341 . S
C251 C253 1.371 1_554 S
C252 C251 1.341 . S
C252 C256 1.394 . S
C252 H268 0.930 . S
C253 C251 1.371 1_556 S
C253 C254 1.392 1_556 S
C253 H269 0.931 . S
C254 C253 1.392 1_554 S
C254 C255 1.331 . S
C254 H272 0.932 1_554 S
C255 C254 1.331 . S
C255 C256 1.336 . S
C256 C252 1.394 . S
C256 C255 1.336 . S
C256 H271 0.929 . S
C257 C247 1.386 . S
C257 C250 1.357 . S
C257 H270 0.928 . S
H258 C234 0.931 . S
H259 C236 0.930 . S
H260 C238 0.929 . S
H261 C239 0.931 . S
H262 C241 0.930 . S
H263 C245 0.931 . S
H264 C243 0.931 . S
H265 C247 0.931 . S
H266 C248 0.929 . S
H267 C249 0.930 . S
H268 C252 0.930 . S
H269 C253 0.931 . S
H270 C257 0.928 . S
H271 C256 0.929 . S
H272 C254 0.932 1_556 S
C273 C274 1.386 . S
C273 C275 1.397 . S
C273 H297 0.931 . S
C274 C273 1.386 . S
C274 C278 1.397 . S
C275 C273 1.397 . S
C275 C276 1.384 . S
C275 H298 0.930 . S
C276 C275 1.384 . S
C276 C277 1.377 . S
C276 C279 1.481 . S
C277 C276 1.377 . S
C277 C278 1.389 . S
C277 H299 0.929 . S
C278 C274 1.397 . S
C278 C277 1.389 . S
C278 H300 0.931 . S
C279 C276 1.481 . S
C279 C280 1.387 . S
C279 C284 1.390 1_556 S
C280 C279 1.387 . S
C280 C281 1.401 1_556 S
C280 H301 0.930 . S
C281 C280 1.401 1_554 S
C281 C282 1.376 . S
C281 C290 1.511 . S
C282 C281 1.376 . S
C282 C283 1.392 . S
C282 H303 0.931 . S
C283 C282 1.392 . S
C283 C284 1.361 . S
C283 C285 1.500 . S
C284 C279 1.390 1_554 S
C284 C283 1.361 . S
C284 H302 0.931 1_554 S
C285 C283 1.500 . S
C285 C286 1.371 . S
C285 C287 1.365 . S
C286 C285 1.371 . S
C286 C296 1.386 . S
C286 H304 0.931 . S
C287 C285 1.365 . S
C287 C288 1.409 . S
C287 H305 0.929 . S
C288 C287 1.409 . S
C288 C289 1.380 . S
C288 H306 0.930 . S
C289 C288 1.380 . S
C289 C296 1.357 . S
C290 C281 1.511 . S
C290 C291 1.341 . S
C290 C292 1.371 . S
C291 C290 1.341 . S
C291 C295 1.394 . S
C291 H307 0.930 1_554 S
C292 C290 1.371 . S
C292 C293 1.392 . S
C292 H308 0.931 . S
C293 C292 1.392 . S
C293 C294 1.331 . S
C293 H311 0.932 . S
C294 C293 1.331 . S
C294 C295 1.336 . S
C295 C291 1.394 . S
C295 C294 1.336 . S
C295 H310 0.929 1_554 S
C296 C286 1.386 . S
C296 C289 1.357 . S
C296 H309 0.928 . S
H297 C273 0.931 . S
H298 C275 0.930 . S
H299 C277 0.929 . S
H300 C278 0.931 . S
H301 C280 0.930 . S
H302 C284 0.931 1_556 S
H303 C282 0.931 . S
H304 C286 0.931 . S
H305 C287 0.929 . S
H306 C288 0.930 . S
H307 C291 0.930 1_556 S
H308 C292 0.931 . S
H309 C296 0.928 . S
H310 C295 0.929 1_556 S
H311 C293 0.932 . S
Eu312 N343 2.657 1_565 S
Eu312 N350 2.609 . S
Eu312 O356 2.558 . S
Eu312 O357 2.612 1_455 S
Eu312 O359 2.339 1_455 S
Eu312 O360 2.563 . S
Eu312 O361 2.419 . S
Eu312 O363 2.380 1_565 S
Eu312 O364 2.432 . S
Eu312 C376 2.848 . S
C313 C316 1.422 1_545 S
C313 C317 1.411 . S
C313 N320 1.377 . S
C314 C316 1.430 . S
C314 C318 1.423 . S
C314 C326 1.392 . S
C315 C317 1.420 1_565 S
C315 C318 1.351 . S
C315 H338 0.931 . S
C316 C313 1.422 1_565 S
C316 C314 1.430 . S
C316 N324 1.359 1_565 S
C317 C313 1.411 . S
C317 C315 1.420 1_545 S
C317 C322 1.395 . S
C318 C314 1.423 . S
C318 C315 1.351 . S
C318 H330 0.930 . S
C319 C321 1.400 . S
C319 C322 1.386 . S
C319 H331 0.930 . S
N320 C313 1.377 . S
N320 C321 1.321 . S
N320 Eu323 2.609 . S
C321 C319 1.400 . S
C321 N320 1.321 . S
C321 H328 0.930 . S
C322 C317 1.395 . S
C322 C319 1.386 . S
C322 H341 0.930 . S
Eu323 N320 2.609 . S
Eu323 N324 2.657 . S
Eu323 O357 2.380 1_545 S
Eu323 O358 2.432 . S
Eu323 O362 2.558 . S
Eu323 O363 2.612 1_655 S
Eu323 O365 2.339 1_655 S
Eu323 O366 2.563 1_655 S
Eu323 O367 2.419 . S
Eu323 C387 2.848 . S
N324 C316 1.359 1_545 S
N324 Eu323 2.657 . S
N324 C325 1.334 1_645 S
C325 N324 1.334 1_465 S
C325 C327 1.413 . S
C325 H332 0.929 . S
C326 C314 1.392 . S
C326 C327 1.367 1_655 S
C326 H334 0.930 . S
C327 C325 1.413 . S
C327 C326 1.367 1_455 S
C327 H329 0.930 . S
H328 C321 0.930 . S
H329 C327 0.930 . S
H330 C318 0.930 . S
H331 C319 0.930 . S
H332 C325 0.929 . S
H333 C347 0.930 1_655 S
H334 C326 0.930 . S
H335 C353 0.930 . S
H336 C344 0.929 1_655 S
H337 C351 0.930 . S
H338 C315 0.931 . S
H339 C345 0.930 . S
H340 C378 0.930 . S
H341 C322 0.930 . S
H342 C377 0.931 . S
N343 Eu312 2.657 1_545 S
N343 C344 1.334 . S
N343 C348 1.362 . S
C344 H336 0.929 1_455 S
C344 N343 1.334 . S
C344 C347 1.413 . S
C345 H339 0.930 . S
C345 C346 1.392 . S
C345 C347 1.367 . S
C346 C345 1.392 . S
C346 C348 1.420 . S
C346 C378 1.423 . S
C347 H333 0.930 1_455 S
C347 C344 1.413 . S
C347 C345 1.367 . S
C348 N343 1.362 . S
C348 C346 1.420 . S
C348 C352 1.429 . S
H349 C354 0.930 . S
N350 Eu312 2.609 . S
N350 C352 1.377 1_565 S
N350 C353 1.321 . S
C351 H337 0.930 . S
C351 C353 1.400 . S
C351 C354 1.386 . S
C352 C348 1.429 . S
C352 N350 1.377 1_545 S
C352 C355 1.411 . S
C353 H335 0.930 . S
C353 N350 1.321 . S
C353 C351 1.400 . S
C354 H349 0.930 . S
C354 C351 1.386 . S
C354 C355 1.395 1_565 S
C355 C352 1.411 . S
C355 C354 1.395 1_545 S
C355 C377 1.420 . S
O356 Eu312 2.558 . S
O356 C376 1.257 . S
O357 Eu312 2.612 1_655 S
O357 Eu323 2.380 1_565 S
O357 C368 1.276 . S
O358 Eu323 2.432 . S
O358 C375 1.264 . S
O359 Eu312 2.339 1_655 S
O359 C375 1.254 1_565 S
O360 Eu312 2.563 . S
O360 C368 1.235 1_455 S
O361 Eu312 2.419 . S
O361 C376 1.249 . S
O362 Eu323 2.558 . S
O362 C387 1.257 . S
O363 Eu312 2.380 1_545 S
O363 Eu323 2.612 1_455 S
O363 C379 1.276 . S
O364 Eu312 2.432 . S
O364 C386 1.264 1_565 S
O365 Eu323 2.339 1_455 S
O365 C386 1.254 . S
O366 Eu323 2.563 1_455 S
O366 C379 1.235 . S
O367 Eu323 2.419 . S
O367 C387 1.249 . S
C368 O357 1.276 . S
C368 O360 1.235 1_655 S
C369 C371 1.393 . S
C369 C373 1.395 . S
C369 C376 1.492 . S
C370 C371 1.392 . S
C370 C372 1.386 . S
C371 C369 1.393 . S
C371 C370 1.392 . S
C371 H388 0.930 1_455 S
C372 C370 1.386 . S
C372 C374 1.395 . S
C372 H389 0.930 . S
C373 C369 1.395 . S
C373 C374 1.379 . S
C373 H390 0.930 . S
C374 C372 1.395 . S
C374 C373 1.379 . S
C374 H391 0.930 . S
C375 O358 1.264 . S
C375 O359 1.254 1_545 S
C376 Eu312 2.848 . S
C376 O356 1.257 . S
C376 O361 1.249 . S
C376 C369 1.492 . S
C377 H342 0.931 . S
C377 C355 1.420 . S
C377 C378 1.351 . S
C378 H340 0.930 . S
C378 C346 1.423 . S
C378 C377 1.351 . S
C379 O363 1.276 . S
C379 O366 1.235 . S
C380 C381 1.393 . S
C380 C384 1.395 . S
C380 C387 1.492 . S
C381 C380 1.393 . S
C381 C382 1.392 . S
C381 H392 0.930 1_655 S
C382 C381 1.392 . S
C382 C383 1.386 . S
C383 C382 1.386 . S
C383 C385 1.395 . S
C383 H393 0.930 . S
C384 C380 1.395 . S
C384 C385 1.379 . S
C384 H394 0.930 . S
C385 C383 1.395 . S
C385 C384 1.379 . S
C385 H395 0.930 . S
C386 O364 1.264 1_545 S
C386 O365 1.254 . S
C387 Eu323 2.848 . S
C387 O362 1.257 . S
C387 O367 1.249 . S
C387 C380 1.492 . S
H388 C371 0.930 1_655 S
H389 C372 0.930 . S
H390 C373 0.930 . S
H391 C374 0.930 . S
H392 C381 0.930 1_455 S
H393 C383 0.930 . S
H394 C384 0.930 . S
H395 C385 0.930 . S
Eu396 N427 2.657 . S
Eu396 N434 2.609 . S
Eu396 O440 2.558 . S
Eu396 O441 2.612 1_545 S
Eu396 O443 2.339 1_545 S
Eu396 O444 2.563 . S
Eu396 O445 2.419 . S
Eu396 O447 2.380 . S
Eu396 O448 2.432 . S
Eu396 C460 2.848 . S
C397 C400 1.429 . S
C397 C401 1.411 . S
C397 N404 1.377 . S
C398 C400 1.420 . S
C398 C402 1.423 . S
C398 C410 1.392 . S
C399 C401 1.420 . S
C399 C402 1.351 . S
C399 H422 0.931 . S
C400 C397 1.429 . S
C400 C398 1.420 . S
C400 N408 1.362 . S
C401 C397 1.411 . S
C401 C399 1.420 . S
C401 C406 1.395 . S
C402 C398 1.423 . S
C402 C399 1.351 . S
C402 H414 0.930 . S
C403 C405 1.400 . S
C403 C406 1.386 . S
C403 H415 0.930 . S
N404 C397 1.377 . S
N404 C405 1.321 . S
N404 Eu407 2.609 . S
C405 C403 1.400 . S
C405 N404 1.321 . S
C405 H412 0.930 . S
C406 C401 1.395 . S
C406 C403 1.386 . S
C406 H425 0.930 . S
Eu407 N404 2.609 . S
Eu407 N408 2.657 . S
Eu407 O441 2.380 . S
Eu407 O442 2.432 . S
Eu407 O446 2.558 . S
Eu407 O447 2.612 1_565 S
Eu407 O449 2.339 1_565 S
Eu407 O450 2.563 1_565 S
Eu407 O451 2.433 . S
Eu407 C471 2.848 . S
N408 C400 1.362 . S
N408 Eu407 2.657 . S
N408 C409 1.334 1_565 S
C409 N408 1.334 1_545 S
C409 C411 1.413 . S
C409 H416 0.929 . S
C410 C398 1.392 . S
C410 C411 1.367 1_565 S
C410 H418 0.930 . S
C411 C409 1.413 . S
C411 C410 1.367 1_545 S
C411 H413 0.930 . S
H412 C405 0.930 . S
H413 C411 0.930 . S
H414 C402 0.930 . S
H415 C403 0.930 . S
H416 C409 0.929 . S
H417 C431 0.930 1_565 S
H418 C410 0.930 . S
H419 C437 0.930 . S
H420 C428 0.929 1_565 S
H421 C435 0.930 . S
H422 C399 0.931 . S
H423 C429 0.930 . S
H424 C462 0.930 . S
H425 C406 0.930 . S
H426 C461 0.931 . S
N427 Eu396 2.657 . S
N427 C428 1.334 . S
N427 C432 1.362 . S
C428 H420 0.929 1_545 S
C428 N427 1.334 . S
C428 C431 1.413 . S
C429 H423 0.930 . S
C429 C430 1.392 . S
C429 C431 1.367 . S
C430 C429 1.392 . S
C430 C432 1.420 . S
C430 C462 1.423 . S
C431 H417 0.930 1_545 S
C431 C428 1.413 . S
C431 C429 1.367 . S
C432 N427 1.362 . S
C432 C430 1.420 . S
C432 C436 1.429 . S
H433 C438 0.930 . S
N434 Eu396 2.609 . S
N434 C436 1.377 . S
N434 C437 1.321 . S
C435 H421 0.930 . S
C435 C437 1.400 . S
C435 C438 1.386 . S
C436 C432 1.429 . S
C436 N434 1.377 . S
C436 C439 1.411 . S
C437 H419 0.930 . S
C437 N434 1.321 . S
C437 C435 1.400 . S
C438 H433 0.930 . S
C438 C435 1.386 . S
C438 C439 1.395 . S
C439 C436 1.411 . S
C439 C438 1.395 . S
C439 C461 1.420 . S
O440 Eu396 2.558 . S
O440 C460 1.257 . S
O441 Eu396 2.612 1_565 S
O441 Eu407 2.380 . S
O441 C452 1.276 . S
O442 Eu407 2.432 . S
O442 C459 1.264 . S
O443 Eu396 2.339 1_565 S
O443 C459 1.254 . S
O444 Eu396 2.563 . S
O444 C452 1.235 1_545 S
O445 Eu396 2.419 . S
O445 C460 1.249 . S
O446 Eu407 2.558 . S
O446 C471 1.257 . S
O447 Eu396 2.380 . S
O447 Eu407 2.612 1_545 S
O447 C463 1.276 . S
O448 Eu396 2.432 . S
O448 C470 1.264 . S
O449 Eu407 2.339 1_545 S
O449 C470 1.254 . S
O450 Eu407 2.563 1_545 S
O450 C463 1.235 . S
O451 Eu407 2.433 . S
O451 C471 1.300 . S
C452 O441 1.276 . S
C452 O444 1.235 1_565 S
C453 C455 1.393 . S
C453 C457 1.395 . S
C453 C460 1.492 . S
C454 C455 1.392 . S
C454 C456 1.386 . S
C455 C453 1.393 . S
C455 C454 1.392 . S
C455 H472 0.946 . S
C456 C454 1.386 . S
C456 C458 1.395 . S
C456 H473 0.930 . S
C457 C453 1.395 . S
C457 C458 1.379 . S
C457 H474 0.930 . S
C458 C456 1.395 . S
C458 C457 1.379 . S
C458 H475 0.930 . S
C459 O442 1.264 . S
C459 O443 1.254 . S
C460 Eu396 2.848 . S
C460 O440 1.257 . S
C460 O445 1.249 . S
C460 C453 1.492 . S
C461 H426 0.931 . S
C461 C439 1.420 . S
C461 C462 1.351 . S
C462 H424 0.930 . S
C462 C430 1.423 . S
C462 C461 1.351 . S
C463 O447 1.276 . S
C463 O450 1.235 . S
C464 C465 1.430 . S
C464 C468 1.395 . S
C464 C471 1.492 . S
C465 C464 1.430 . S
C465 C466 1.396 . S
C465 H476 0.890 1_565 S
C466 C465 1.396 . S
C466 C467 1.386 . S
C467 C466 1.386 . S
C467 C469 1.395 . S
C467 H477 0.930 . S
C468 C464 1.395 . S
C468 C469 1.379 . S
C468 H478 0.930 . S
C469 C467 1.395 . S
C469 C468 1.379 . S
C469 H479 0.930 . S
C470 O448 1.264 . S
C470 O449 1.254 . S
C471 Eu407 2.848 . S
C471 O446 1.257 . S
C471 O451 1.300 . S
C471 C464 1.492 . S
H472 C455 0.946 . S
H473 C456 0.930 . S
H474 C457 0.930 . S
H475 C458 0.930 . S
H476 C465 0.890 1_545 S
H477 C467 0.930 . S
H478 C468 0.930 . S
H479 C469 0.930 . S
Eu480 N511 2.657 . S
Eu480 N518 2.609 . S
Eu480 O524 2.558 . S
Eu480 O525 2.612 . S
Eu480 O527 2.339 . S
Eu480 O528 2.563 . S
Eu480 O529 2.419 . S
Eu480 O531 2.380 . S
Eu480 O532 2.432 . S
Eu480 C544 2.848 . S
C481 C484 1.429 . S
C481 C485 1.411 . S
C481 N488 1.377 . S
C482 C484 1.420 . S
C482 C486 1.423 . S
C482 C494 1.392 . S
C483 C485 1.420 . S
C483 C486 1.351 . S
C483 H506 0.931 . S
C484 C481 1.429 . S
C484 C482 1.420 . S
C484 N492 1.362 . S
C485 C481 1.411 . S
C485 C483 1.420 . S
C485 C490 1.395 . S
C486 C482 1.423 . S
C486 C483 1.351 . S
C486 H498 0.930 . S
C487 C489 1.400 . S
C487 C490 1.386 . S
C487 H499 0.930 . S
N488 C481 1.377 . S
N488 C489 1.321 . S
N488 Eu491 2.609 . S
C489 C487 1.400 . S
C489 N488 1.321 . S
C489 H496 0.930 . S
C490 C485 1.395 . S
C490 C487 1.386 . S
C490 H509 0.930 . S
Eu491 N488 2.609 . S
Eu491 N492 2.657 . S
Eu491 O525 2.380 . S
Eu491 O526 2.432 . S
Eu491 O530 2.558 . S
Eu491 O531 2.612 . S
Eu491 O533 2.339 . S
Eu491 O534 2.563 . S
Eu491 O535 2.419 . S
Eu491 C555 2.848 . S
N492 C484 1.362 . S
N492 Eu491 2.657 . S
N492 C493 1.334 . S
C493 N492 1.334 . S
C493 C495 1.413 . S
C493 H500 0.929 . S
C494 C482 1.392 . S
C494 C495 1.367 . S
C494 H502 0.930 . S
C495 C493 1.413 . S
C495 C494 1.367 . S
C495 H497 0.930 . S
H496 C489 0.930 . S
H497 C495 0.930 . S
H498 C486 0.930 . S
H499 C487 0.930 . S
H500 C493 0.929 . S
H501 C515 0.930 . S
H502 C494 0.930 . S
H503 C521 0.930 . S
H504 C512 0.929 . S
H505 C519 0.930 . S
H506 C483 0.931 . S
H507 C513 0.930 . S
H508 C546 0.930 . S
H509 C490 0.930 . S
H510 C545 0.931 . S
N511 Eu480 2.657 . S
N511 C512 1.334 . S
N511 C516 1.362 . S
C512 H504 0.929 . S
C512 N511 1.334 . S
C512 C515 1.413 . S
C513 H507 0.930 . S
C513 C514 1.392 . S
C513 C515 1.367 . S
C514 C513 1.392 . S
C514 C516 1.420 . S
C514 C546 1.423 . S
C515 H501 0.930 . S
C515 C512 1.413 . S
C515 C513 1.367 . S
C516 N511 1.362 . S
C516 C514 1.420 . S
C516 C520 1.429 . S
H517 C522 0.930 . S
N518 Eu480 2.609 . S
N518 C520 1.377 . S
N518 C521 1.321 . S
C519 H505 0.930 . S
C519 C521 1.400 . S
C519 C522 1.386 . S
C520 C516 1.429 . S
C520 N518 1.377 . S
C520 C523 1.411 . S
C521 H503 0.930 . S
C521 N518 1.321 . S
C521 C519 1.400 . S
C522 H517 0.930 . S
C522 C519 1.386 . S
C522 C523 1.395 . S
C523 C520 1.411 . S
C523 C522 1.395 . S
C523 C545 1.420 . S
O524 Eu480 2.558 . S
O524 C544 1.257 . S
O525 Eu480 2.612 . S
O525 Eu491 2.380 . S
O525 C536 1.276 . S
O526 Eu491 2.432 . S
O526 C543 1.264 . S
O527 Eu480 2.339 . S
O527 C543 1.254 . S
O528 Eu480 2.563 . S
O528 C536 1.235 . S
O529 Eu480 2.419 . S
O529 C544 1.249 . S
O530 Eu491 2.558 . S
O530 C555 1.257 . S
O531 Eu480 2.380 . S
O531 Eu491 2.612 . S
O531 C547 1.276 . S
O532 Eu480 2.432 . S
O532 C554 1.264 . S
O533 Eu491 2.339 . S
O533 C554 1.254 . S
O534 Eu491 2.563 . S
O534 C547 1.235 . S
O535 Eu491 2.419 . S
O535 C555 1.249 . S
C536 O525 1.276 . S
C536 O528 1.235 . S
C537 C539 1.393 . S
C537 C541 1.395 . S
C537 C544 1.492 . S
C538 C539 1.392 . S
C538 C540 1.386 . S
C539 C537 1.393 . S
C539 C538 1.392 . S
C539 H556 0.930 . S
C540 C538 1.386 . S
C540 C542 1.395 . S
C540 H557 0.930 . S
C541 C537 1.395 . S
C541 C542 1.379 . S
C541 H558 0.930 . S
C542 C540 1.395 . S
C542 C541 1.379 . S
C542 H559 0.930 . S
C543 O526 1.264 . S
C543 O527 1.254 . S
C544 Eu480 2.848 . S
C544 O524 1.257 . S
C544 O529 1.249 . S
C544 C537 1.492 . S
C545 H510 0.931 . S
C545 C523 1.420 . S
C545 C546 1.351 . S
C546 H508 0.930 . S
C546 C514 1.423 . S
C546 C545 1.351 . S
C547 O531 1.276 . S
C547 O534 1.235 . S
C548 C549 1.393 . S
C548 C552 1.395 . S
C548 C555 1.492 . S
C549 C548 1.393 . S
C549 C550 1.392 . S
C549 H560 0.930 . S
C550 C549 1.392 . S
C550 C551 1.386 . S
C551 C550 1.386 . S
C551 C553 1.395 . S
C551 H561 0.930 . S
C552 C548 1.395 . S
C552 C553 1.379 . S
C552 H562 0.930 . S
C553 C551 1.395 . S
C553 C552 1.379 . S
C553 H563 0.930 . S
C554 O532 1.264 . S
C554 O533 1.254 . S
C555 Eu491 2.848 . S
C555 O530 1.257 . S
C555 O535 1.249 . S
C555 C548 1.492 . S
H556 C539 0.930 . S
H557 C540 0.930 . S
H558 C541 0.930 . S
H559 C542 0.930 . S
H560 C549 0.930 . S
H561 C551 0.930 . S
H562 C552 0.930 . S
H563 C553 0.930 . S
Eu564 N595 2.657 . S
Eu564 N602 2.609 . S
Eu564 O608 2.558 . S
Eu564 O609 2.612 . S
Eu564 O611 2.339 . S
Eu564 O612 2.563 . S
Eu564 O613 2.419 . S
Eu564 O615 2.380 . S
Eu564 O616 2.432 1_455 S
Eu564 C628 2.848 . S
C565 C568 1.429 . S
C565 C569 1.411 . S
C565 N572 1.377 . S
C566 C568 1.420 . S
C566 C570 1.423 . S
C566 C578 1.392 . S
C567 C569 1.420 . S
C567 C570 1.351 . S
C567 H590 0.931 . S
C568 C565 1.429 . S
C568 C566 1.420 . S
C568 N576 1.362 . S
C569 C565 1.411 . S
C569 C567 1.420 . S
C569 C574 1.395 . S
C570 C566 1.423 . S
C570 C567 1.351 . S
C570 H582 0.930 . S
C571 C573 1.400 . S
C571 C574 1.386 1_455 S
C571 H583 0.930 . S
N572 C565 1.377 . S
N572 C573 1.321 1_655 S
N572 Eu575 2.609 . S
C573 C571 1.400 . S
C573 N572 1.321 1_455 S
C573 H580 0.930 . S
C574 C569 1.395 . S
C574 C571 1.386 1_655 S
C574 H593 0.930 . S
Eu575 N572 2.609 . S
Eu575 N576 2.657 . S
Eu575 O609 2.380 1_655 S
Eu575 O610 2.432 1_655 S
Eu575 O614 2.558 . S
Eu575 O615 2.612 1_655 S
Eu575 O617 2.339 . S
Eu575 O618 2.563 . S
Eu575 O619 2.419 . S
Eu575 C639 2.848 . S
N576 C568 1.362 . S
N576 Eu575 2.657 . S
N576 C577 1.334 . S
C577 N576 1.334 . S
C577 C579 1.413 . S
C577 H584 0.929 . S
C578 C566 1.392 . S
C578 C579 1.367 . S
C578 H586 0.930 . S
C579 C577 1.413 . S
C579 C578 1.367 . S
C579 H581 0.930 . S
H580 C573 0.930 . S
H581 C579 0.930 . S
H582 C570 0.930 . S
H583 C571 0.930 . S
H584 C577 0.929 . S
H585 C599 0.930 . S
H586 C578 0.930 . S
H587 C605 0.906 1_655 S
H588 C596 0.929 . S
H589 C603 0.930 1_655 S
H590 C567 0.931 . S
H591 C597 0.930 . S
H592 C630 0.930 . S
H593 C574 0.930 . S
H594 C629 0.931 . S
N595 Eu564 2.657 . S
N595 C596 1.334 . S
N595 C600 1.362 . S
C596 H588 0.929 . S
C596 N595 1.334 . S
C596 C599 1.413 . S
C597 H591 0.930 . S
C597 C598 1.392 . S
C597 C599 1.367 . S
C598 C597 1.392 . S
C598 C600 1.420 . S
C598 C630 1.423 . S
C599 H585 0.930 . S
C599 C596 1.413 . S
C599 C597 1.367 . S
C600 N595 1.362 . S
C600 C598 1.420 . S
C600 C604 1.429 . S
H601 C606 0.930 . S
N602 Eu564 2.609 . S
N602 C604 1.377 . S
N602 C605 1.321 . S
C603 H589 0.930 1_455 S
C603 C605 1.400 . S
C603 C606 1.386 . S
C604 C600 1.429 . S
C604 N602 1.377 . S
C604 C607 1.411 . S
C605 H587 0.906 1_455 S
C605 N602 1.321 . S
C605 C603 1.400 . S
C606 H601 0.930 . S
C606 C603 1.386 . S
C606 C607 1.395 . S
C607 C604 1.411 . S
C607 C606 1.395 . S
C607 C629 1.420 . S
O608 Eu564 2.558 . S
O608 C628 1.257 . S
O609 Eu564 2.612 . S
O609 Eu575 2.380 1_455 S
O609 C620 1.276 . S
O610 Eu575 2.432 1_455 S
O610 C627 1.264 . S
O611 Eu564 2.339 . S
O611 C627 1.254 . S
O612 Eu564 2.563 . S
O612 C620 1.235 . S
O613 Eu564 2.419 . S
O613 C628 1.249 . S
O614 Eu575 2.558 . S
O614 C639 1.257 . S
O615 Eu564 2.380 . S
O615 Eu575 2.612 1_455 S
O615 C631 1.276 1_455 S
O616 Eu564 2.432 1_655 S
O616 C638 1.264 . S
O617 Eu575 2.339 . S
O617 C638 1.254 . S
O618 Eu575 2.563 . S
O618 C631 1.235 . S
O619 Eu575 2.419 . S
O619 C639 1.249 . S
C620 O609 1.276 . S
C620 O612 1.235 . S
C621 C623 1.393 . S
C621 C625 1.395 . S
C621 C628 1.492 . S
C622 C623 1.392 . S
C622 C624 1.386 . S
C623 C621 1.393 . S
C623 C622 1.392 . S
C623 H640 0.930 . S
C624 C622 1.386 . S
C624 C626 1.395 . S
C624 H641 0.930 . S
C625 C621 1.395 . S
C625 C626 1.379 . S
C625 H642 0.930 . S
C626 C624 1.395 . S
C626 C625 1.379 . S
C626 H643 0.930 . S
C627 O610 1.264 . S
C627 O611 1.254 . S
C628 Eu564 2.848 . S
C628 O608 1.257 . S
C628 O613 1.249 . S
C628 C621 1.492 . S
C629 H594 0.931 . S
C629 C607 1.420 . S
C629 C630 1.351 . S
C630 H592 0.930 . S
C630 C598 1.423 . S
C630 C629 1.351 . S
C631 O615 1.276 1_655 S
C631 O618 1.235 . S
C632 C633 1.393 . S
C632 C636 1.395 . S
C632 C639 1.492 . S
C633 C632 1.393 . S
C633 C634 1.392 . S
C633 H644 0.930 . S
C634 C633 1.392 . S
C634 C635 1.386 . S
C635 C634 1.386 . S
C635 C637 1.395 . S
C635 H645 0.930 . S
C636 C632 1.395 . S
C636 C637 1.379 . S
C636 H646 0.930 . S
C637 C635 1.395 . S
C637 C636 1.379 . S
C637 H647 0.930 . S
C638 O616 1.264 . S
C638 O617 1.254 . S
C639 Eu575 2.848 . S
C639 O614 1.257 . S
C639 O619 1.249 . S
C639 C632 1.492 . S
H640 C623 0.930 . S
H641 C624 0.930 . S
H642 C625 0.930 . S
H643 C626 0.930 . S
H644 C633 0.930 . S
H645 C635 0.930 . S
H646 C636 0.930 . S
H647 C637 0.930 . S
H648 C666 0.951 . S
H649 C668 0.951 . S
H650 C670 0.950 . S
H651 C671 0.950 . S
H652 C673 0.950 . S
H653 C676 0.950 . S
H654 C677 0.950 . S
H655 C679 0.950 . S
H656 C680 0.950 . S
H657 C681 0.951 1_565 S
H658 C683 0.951 . S
H659 C685 0.950 . S
H660 C686 0.950 . S
H661 C688 0.950 . S
H662 C691 0.950 . S
H663 C692 0.950 . S
H664 C694 0.950 . S
H665 C695 0.950 . S
C666 H648 0.951 . S
C666 C667 1.366 . S
C666 C668 1.388 . S
C667 C666 1.366 . S
C667 C671 1.385 . S
C668 H649 0.951 . S
C668 C666 1.388 . S
C668 C669 1.366 . S
C669 C668 1.366 . S
C669 C670 1.414 . S
C669 C672 1.499 . S
C670 H650 0.950 . S
C670 C669 1.414 . S
C670 C671 1.374 . S
C671 H651 0.950 . S
C671 C667 1.385 . S
C671 C670 1.374 . S
C672 C669 1.499 . S
C672 C673 1.373 . S
C672 C674 1.389 . S
C673 H652 0.950 . S
C673 C672 1.373 . S
C673 C689 1.377 . S
C674 C672 1.389 . S
C674 C675 1.524 . S
C674 C688 1.377 . S
C675 C674 1.524 . S
C675 C676 1.397 . S
C675 C680 1.363 . S
C676 H653 0.950 . S
C676 C675 1.397 . S
C676 C677 1.334 . S
C677 H654 0.950 . S
C677 C676 1.334 . S
C677 C678 1.287 . S
C678 C677 1.287 . S
C678 C679 1.524 . S
C678 H697 0.913 . S
C679 H655 0.950 . S
C679 C678 1.524 . S
C679 C680 1.415 . S
C680 H656 0.950 . S
C680 C675 1.363 . S
C680 C679 1.415 . S
C681 H657 0.951 1_545 S
C681 C682 1.366 . S
C681 C683 1.388 . S
C682 C681 1.366 . S
C682 C686 1.385 . S
C683 H658 0.951 . S
C683 C681 1.388 . S
C683 C684 1.366 . S
C684 C683 1.366 . S
C684 C685 1.414 . S
C684 C687 1.499 . S
C685 H659 0.950 . S
C685 C684 1.414 . S
C685 C686 1.374 . S
C686 H660 0.950 . S
C686 C682 1.385 . S
C686 C685 1.374 . S
C687 C684 1.499 . S
C687 C688 1.373 . S
C687 C689 1.389 . S
C688 H661 0.950 . S
C688 C674 1.377 . S
C688 C687 1.373 . S
C689 C673 1.377 . S
C689 C687 1.389 . S
C689 C690 1.524 . S
C690 C689 1.524 . S
C690 C691 1.397 . S
C690 C695 1.363 1_545 S
C691 H662 0.950 . S
C691 C690 1.397 . S
C691 C692 1.334 . S
C692 H663 0.950 . S
C692 C691 1.334 . S
C692 C693 1.287 1_545 S
C693 C692 1.287 1_565 S
C693 C694 1.524 . S
C693 H696 0.999 . S
C694 H664 0.950 . S
C694 C693 1.524 . S
C694 C695 1.415 . S
C695 H665 0.950 . S
C695 C690 1.363 1_565 S
C695 C694 1.415 . S
H696 C693 0.999 . S
H697 C678 0.913 . S
H698 C716 0.951 . S
H699 C718 0.951 . S
H700 C720 0.950 . S
H701 C721 0.950 . S
H702 C723 0.950 . S
H703 C726 0.950 . S
H704 C727 0.950 . S
H705 C729 0.950 . S
H706 C730 0.950 . S
H707 C731 0.951 . S
H708 C733 0.951 . S
H709 C735 0.950 . S
H710 C736 0.950 . S
H711 C738 0.950 . S
H712 C741 0.950 . S
H713 C742 0.950 . S
H714 C744 0.950 . S
H715 C745 0.950 . S
C716 H698 0.951 . S
C716 C717 1.366 . S
C716 C718 1.388 . S
C717 C716 1.366 . S
C717 C721 1.385 . S
C718 H699 0.951 . S
C718 C716 1.388 . S
C718 C719 1.366 . S
C719 C718 1.366 . S
C719 C720 1.414 . S
C719 C722 1.499 . S
C720 H700 0.950 . S
C720 C719 1.414 . S
C720 C721 1.374 . S
C721 H701 0.950 . S
C721 C717 1.385 . S
C721 C720 1.374 . S
C722 C719 1.499 . S
C722 C723 1.373 . S
C722 C724 1.389 . S
C723 H702 0.950 . S
C723 C722 1.373 . S
C723 C739 1.377 . S
C724 C722 1.389 . S
C724 C725 1.524 . S
C724 C738 1.377 . S
C725 C724 1.524 . S
C725 C726 1.397 . S
C725 C730 1.363 . S
C726 H703 0.950 . S
C726 C725 1.397 . S
C726 C727 1.334 . S
C727 H704 0.950 . S
C727 C726 1.334 . S
C727 C728 1.287 . S
C728 C727 1.287 . S
C728 C729 1.524 . S
C728 H747 0.913 . S
C729 H705 0.950 . S
C729 C728 1.524 . S
C729 C730 1.415 . S
C730 H706 0.950 . S
C730 C725 1.363 . S
C730 C729 1.415 . S
C731 H707 0.951 . S
C731 C732 1.366 . S
C731 C733 1.388 . S
C732 C731 1.366 . S
C732 C736 1.385 . S
C733 H708 0.951 . S
C733 C731 1.388 . S
C733 C734 1.366 . S
C734 C733 1.366 . S
C734 C735 1.414 . S
C734 C737 1.499 . S
C735 H709 0.950 . S
C735 C734 1.414 . S
C735 C736 1.374 . S
C736 H710 0.950 . S
C736 C732 1.385 . S
C736 C735 1.374 . S
C737 C734 1.499 . S
C737 C738 1.373 . S
C737 C739 1.389 . S
C738 H711 0.950 . S
C738 C724 1.377 . S
C738 C737 1.373 . S
C739 C723 1.377 . S
C739 C737 1.389 . S
C739 C740 1.524 . S
C740 C739 1.524 . S
C740 C741 1.397 . S
C740 C745 1.363 . S
C741 H712 0.950 . S
C741 C740 1.397 . S
C741 C742 1.334 . S
C742 H713 0.950 . S
C742 C741 1.334 . S
C742 C743 1.287 . S
C743 C742 1.287 . S
C743 C744 1.524 . S
C743 H746 0.999 . S
C744 H714 0.950 . S
C744 C743 1.524 . S
C744 C745 1.415 . S
C745 H715 0.950 . S
C745 C740 1.363 . S
C745 C744 1.415 . S
H746 C743 0.999 . S
H747 C728 0.913 . S
H748 C766 0.951 . S
H749 C768 0.951 . S
H750 C770 0.950 . S
H751 C771 0.950 . S
H752 C773 0.950 . S
H753 C776 0.950 . S
H754 C777 0.950 . S
H755 C779 0.950 . S
H756 C780 0.950 . S
H757 C781 0.951 . S
H758 C783 0.951 . S
H759 C785 0.950 . S
H760 C786 0.950 . S
H761 C788 0.950 . S
H762 C791 0.950 . S
H763 C792 0.950 . S
H764 C794 0.950 . S
H765 C795 0.950 . S
C766 H748 0.951 . S
C766 C767 1.366 . S
C766 C768 1.388 . S
C767 C766 1.366 . S
C767 C771 1.385 . S
C768 H749 0.951 . S
C768 C766 1.388 . S
C768 C769 1.366 . S
C769 C768 1.366 . S
C769 C770 1.414 . S
C769 C772 1.499 . S
C770 H750 0.950 . S
C770 C769 1.414 . S
C770 C771 1.374 . S
C771 H751 0.950 . S
C771 C767 1.385 . S
C771 C770 1.374 . S
C772 C769 1.499 . S
C772 C773 1.373 . S
C772 C774 1.389 . S
C773 H752 0.950 . S
C773 C772 1.373 . S
C773 C789 1.377 . S
C774 C772 1.389 . S
C774 C775 1.524 . S
C774 C788 1.377 . S
C775 C774 1.524 . S
C775 C776 1.397 . S
C775 C780 1.363 . S
C776 H753 0.950 . S
C776 C775 1.397 . S
C776 C777 1.334 . S
C777 H754 0.950 . S
C777 C776 1.334 . S
C777 C778 1.287 . S
C778 C777 1.287 . S
C778 C779 1.524 . S
C778 H797 0.913 . S
C779 H755 0.950 . S
C779 C778 1.524 . S
C779 C780 1.415 . S
C780 H756 0.950 . S
C780 C775 1.363 . S
C780 C779 1.415 . S
C781 H757 0.951 . S
C781 C782 1.366 . S
C781 C783 1.388 . S
C782 C781 1.366 . S
C782 C786 1.385 . S
C783 H758 0.951 . S
C783 C781 1.388 . S
C783 C784 1.366 . S
C784 C783 1.366 . S
C784 C785 1.414 . S
C784 C787 1.499 . S
C785 H759 0.950 . S
C785 C784 1.414 . S
C785 C786 1.374 . S
C786 H760 0.950 . S
C786 C782 1.385 . S
C786 C785 1.374 . S
C787 C784 1.499 . S
C787 C788 1.373 . S
C787 C789 1.389 . S
C788 H761 0.950 . S
C788 C774 1.377 . S
C788 C787 1.373 . S
C789 C773 1.377 . S
C789 C787 1.389 . S
C789 C790 1.524 . S
C790 C789 1.524 . S
C790 C791 1.397 . S
C790 C795 1.363 . S
C791 H762 0.950 . S
C791 C790 1.397 . S
C791 C792 1.334 . S
C792 H763 0.950 . S
C792 C791 1.334 . S
C792 C793 1.287 . S
C793 C792 1.287 . S
C793 C794 1.524 . S
C793 H796 0.999 . S
C794 H764 0.950 . S
C794 C793 1.524 . S
C794 C795 1.415 . S
C795 H765 0.950 . S
C795 C790 1.363 . S
C795 C794 1.415 . S
H796 C793 0.999 . S
H797 C778 0.913 . S
H798 C816 0.951 . S
H799 C818 0.951 . S
H800 C820 0.950 . S
H801 C821 0.950 . S
H802 C823 0.950 . S
H803 C826 0.950 . S
H804 C827 0.950 . S
H805 C829 0.950 . S
H806 C830 0.950 . S
H807 C831 0.951 . S
H808 C833 0.951 . S
H809 C835 0.950 . S
H810 C836 0.950 . S
H811 C838 0.950 . S
H812 C841 0.950 . S
H813 C842 0.950 . S
H814 C844 0.950 . S
H815 C845 0.950 . S
C816 H798 0.951 . S
C816 C817 1.366 . S
C816 C818 1.388 . S
C817 C816 1.366 . S
C817 C821 1.385 . S
C818 H799 0.951 . S
C818 C816 1.388 . S
C818 C819 1.366 . S
C819 C818 1.366 . S
C819 C820 1.414 . S
C819 C822 1.499 . S
C820 H800 0.950 . S
C820 C819 1.414 . S
C820 C821 1.374 . S
C821 H801 0.950 . S
C821 C817 1.385 . S
C821 C820 1.374 . S
C822 C819 1.499 . S
C822 C823 1.373 . S
C822 C824 1.389 . S
C823 H802 0.950 . S
C823 C822 1.373 . S
C823 C839 1.377 . S
C824 C822 1.389 . S
C824 C825 1.524 . S
C824 C838 1.377 . S
C825 C824 1.524 . S
C825 C826 1.397 . S
C825 C830 1.363 . S
C826 H803 0.950 . S
C826 C825 1.397 . S
C826 C827 1.334 . S
C827 H804 0.950 . S
C827 C826 1.334 . S
C827 C828 1.287 . S
C828 C827 1.287 . S
C828 C829 1.524 . S
C828 H847 0.913 . S
C829 H805 0.950 . S
C829 C828 1.524 . S
C829 C830 1.415 . S
C830 H806 0.950 . S
C830 C825 1.363 . S
C830 C829 1.415 . S
C831 H807 0.951 . S
C831 C832 1.366 . S
C831 C833 1.388 . S
C832 C831 1.366 . S
C832 C836 1.385 . S
C833 H808 0.951 . S
C833 C831 1.388 . S
C833 C834 1.366 . S
C834 C833 1.366 . S
C834 C835 1.414 . S
C834 C837 1.499 . S
C835 H809 0.950 . S
C835 C834 1.414 . S
C835 C836 1.374 . S
C836 H810 0.950 . S
C836 C832 1.385 . S
C836 C835 1.374 . S
C837 C834 1.499 . S
C837 C838 1.373 . S
C837 C839 1.389 . S
C838 H811 0.950 . S
C838 C824 1.377 . S
C838 C837 1.373 . S
C839 C823 1.377 . S
C839 C837 1.389 . S
C839 C840 1.524 . S
C840 C839 1.524 . S
C840 C841 1.397 . S
C840 C845 1.363 . S
C841 H812 0.950 . S
C841 C840 1.397 . S
C841 C842 1.334 . S
C842 H813 0.950 . S
C842 C841 1.334 . S
C842 C843 1.287 . S
C843 C842 1.287 . S
C843 C844 1.524 . S
C843 H846 0.999 . S
C844 H814 0.950 . S
C844 C843 1.524 . S
C844 C845 1.415 . S
C845 H815 0.950 . S
C845 C840 1.363 . S
C845 C844 1.415 . S
H846 C843 0.999 . S
H847 C828 0.913 . S
H848 C866 0.951 . S
H849 C868 0.951 . S
H850 C870 0.950 . S
H851 C871 0.950 . S
H852 C873 0.950 . S
H853 C876 0.950 . S
H854 C877 0.950 . S
H855 C879 0.950 . S
H856 C880 0.950 . S
H857 C881 0.955 1_545 S
H858 C883 0.921 1_545 S
H859 C885 0.950 . S
H860 C886 0.950 . S
H861 C888 0.950 . S
H862 C891 0.913 1_565 S
H863 C892 0.950 . S
H864 C894 0.950 . S
H865 C895 0.950 . S
C866 H848 0.951 . S
C866 C867 1.366 1_556 S
C866 C868 1.388 . S
C867 C866 1.366 1_554 S
C867 C871 1.385 . S
C868 H849 0.951 . S
C868 C866 1.388 . S
C868 C869 1.366 . S
C869 C868 1.366 . S
C869 C870 1.414 1_556 S
C869 C872 1.499 . S
C870 H850 0.950 . S
C870 C869 1.414 1_554 S
C870 C871 1.374 . S
C871 H851 0.950 . S
C871 C867 1.385 . S
C871 C870 1.374 . S
C872 C869 1.499 . S
C872 C873 1.373 . S
C872 C874 1.389 . S
C873 H852 0.950 . S
C873 C872 1.373 . S
C873 C889 1.377 . S
C874 C872 1.389 . S
C874 C875 1.524 . S
C874 C888 1.377 . S
C875 C874 1.524 . S
C875 C876 1.397 . S
C875 C880 1.363 . S
C876 H853 0.950 . S
C876 C875 1.397 . S
C876 C877 1.334 . S
C877 H854 0.950 . S
C877 C876 1.334 . S
C877 C878 1.287 . S
C878 C877 1.287 . S
C878 C879 1.524 . S
C878 H897 0.913 . S
C879 H855 0.950 . S
C879 C878 1.524 . S
C879 C880 1.415 . S
C880 H856 0.950 . S
C880 C875 1.363 . S
C880 C879 1.415 . S
C881 H857 0.955 1_565 S
C881 C882 1.363 . S
C881 C883 1.386 . S
C882 C881 1.363 . S
C882 C886 1.385 . S
C883 H858 0.921 1_565 S
C883 C881 1.386 . S
C883 C884 1.366 . S
C884 C883 1.366 . S
C884 C885 1.414 . S
C884 C887 1.499 . S
C885 H859 0.950 . S
C885 C884 1.414 . S
C885 C886 1.374 . S
C886 H860 0.950 . S
C886 C882 1.385 . S
C886 C885 1.374 . S
C887 C884 1.499 . S
C887 C888 1.373 . S
C887 C889 1.389 . S
C888 H861 0.950 . S
C888 C874 1.377 . S
C888 C887 1.373 . S
C889 C873 1.377 . S
C889 C887 1.389 . S
C889 C890 1.524 1_565 S
C890 C889 1.524 1_545 S
C890 C891 1.397 . S
C890 C895 1.363 . S
C891 H862 0.913 1_545 S
C891 C890 1.397 . S
C891 C892 1.334 . S
C892 H863 0.950 . S
C892 C891 1.334 . S
C892 C893 1.287 . S
C893 C892 1.287 . S
C893 C894 1.524 . S
C893 H896 0.999 . S
C894 H864 0.950 . S
C894 C893 1.524 . S
C894 C895 1.415 . S
C895 H865 0.950 . S
C895 C890 1.363 . S
C895 C894 1.415 . S
H896 C893 0.999 . S
H897 C878 0.913 . S
H898 C916 0.951 . S
H899 C918 0.951 . S
H900 C920 0.950 . S
H901 C921 0.950 . S
H902 C923 0.950 . S
H903 C926 0.950 . S
H904 C927 0.950 . S
H905 C929 0.950 . S
H906 C930 0.950 . S
H907 C931 0.951 . S
H908 C933 0.951 . S
H909 C935 0.950 . S
H910 C936 0.950 . S
H911 C938 0.950 . S
H912 C941 0.950 . S
H913 C942 0.950 . S
H914 C944 0.950 . S
H915 C945 0.950 . S
C916 H898 0.951 . S
C916 C917 1.366 1_556 S
C916 C918 1.388 . S
C917 C916 1.366 1_554 S
C917 C921 1.385 . S
C918 H899 0.951 . S
C918 C916 1.388 . S
C918 C919 1.366 . S
C919 C918 1.366 . S
C919 C920 1.414 1_556 S
C919 C922 1.499 . S
C920 H900 0.950 . S
C920 C919 1.414 1_554 S
C920 C921 1.374 . S
C921 H901 0.950 . S
C921 C917 1.385 . S
C921 C920 1.374 . S
C922 C919 1.499 . S
C922 C923 1.373 . S
C922 C924 1.389 . S
C923 H902 0.950 . S
C923 C922 1.373 . S
C923 C939 1.377 . S
C924 C922 1.389 . S
C924 C925 1.524 . S
C924 C938 1.377 . S
C925 C924 1.524 . S
C925 C926 1.397 . S
C925 C930 1.363 . S
C926 H903 0.950 . S
C926 C925 1.397 . S
C926 C927 1.334 . S
C927 H904 0.950 . S
C927 C926 1.334 . S
C927 C928 1.287 . S
C928 C927 1.287 . S
C928 C929 1.524 . S
C928 H947 0.913 . S
C929 H905 0.950 . S
C929 C928 1.524 . S
C929 C930 1.415 . S
C930 H906 0.950 . S
C930 C925 1.363 . S
C930 C929 1.415 . S
C931 H907 0.951 . S
C931 C932 1.366 . S
C931 C933 1.388 . S
C932 C931 1.366 . S
C932 C936 1.385 . S
C933 H908 0.951 . S
C933 C931 1.388 . S
C933 C934 1.366 . S
C934 C933 1.366 . S
C934 C935 1.414 . S
C934 C937 1.499 . S
C935 H909 0.950 . S
C935 C934 1.414 . S
C935 C936 1.374 . S
C936 H910 0.950 . S
C936 C932 1.385 . S
C936 C935 1.374 . S
C937 C934 1.499 . S
C937 C938 1.373 . S
C937 C939 1.389 . S
C938 H911 0.950 . S
C938 C924 1.377 . S
C938 C937 1.373 . S
C939 C923 1.377 . S
C939 C937 1.389 . S
C939 C940 1.524 . S
C940 C939 1.524 . S
C940 C941 1.397 . S
C940 C945 1.363 . S
C941 H912 0.950 . S
C941 C940 1.397 . S
C941 C942 1.334 . S
C942 H913 0.950 . S
C942 C941 1.334 . S
C942 C943 1.287 . S
C943 C942 1.287 . S
C943 C944 1.524 . S
C943 H946 0.999 . S
C944 H914 0.950 . S
C944 C943 1.524 . S
C944 C945 1.415 . S
C945 H915 0.950 . S
C945 C940 1.363 . S
C945 C944 1.415 . S
H946 C943 0.999 . S
H947 C928 0.913 . S
H948 C966 0.951 . S
H949 C968 0.951 . S
H950 C970 0.950 . S
H951 C971 0.950 . S
H952 C973 0.950 . S
H953 C976 0.949 . S
H954 C977 0.950 . S
H955 C979 0.950 . S
H956 C980 0.950 . S
H957 C981 0.951 . S
H958 C983 0.951 . S
H959 C985 0.950 . S
H960 C986 0.950 . S
H961 C988 0.950 . S
H962 C991 0.950 . S
H963 C992 0.950 . S
H964 C994 0.950 . S
H965 C995 0.950 . S
C966 H948 0.951 . S
C966 C967 1.366 . S
C966 C968 1.388 1_554 S
C967 C966 1.366 . S
C967 C971 1.385 . S
C968 H949 0.951 . S
C968 C966 1.388 1_556 S
C968 C969 1.366 . S
C969 C968 1.366 . S
C969 C970 1.414 . S
C969 C972 1.499 . S
C970 H950 0.950 . S
C970 C969 1.414 . S
C970 C971 1.374 1_556 S
C971 H951 0.950 . S
C971 C967 1.385 . S
C971 C970 1.374 1_554 S
C972 C969 1.499 . S
C972 C973 1.373 . S
C972 C974 1.389 . S
C973 H952 0.950 . S
C973 C972 1.373 . S
C973 C989 1.377 . S
C974 C972 1.389 . S
C974 C975 1.524 . S
C974 C988 1.377 . S
C975 C974 1.524 . S
C975 C976 1.396 . S
C975 C980 1.363 . S
C976 H953 0.949 . S
C976 C975 1.396 . S
C976 C977 1.334 1_556 S
C977 H954 0.950 . S
C977 C976 1.334 1_554 S
C977 C978 1.287 . S
C978 C977 1.287 . S
C978 C979 1.524 . S
C978 H997 0.913 . S
C979 H955 0.950 . S
C979 C978 1.524 . S
C979 C980 1.415 1_554 S
C980 H956 0.950 . S
C980 C975 1.363 . S
C980 C979 1.415 1_556 S
C981 H957 0.951 . S
C981 C982 1.366 . S
C981 C983 1.388 . S
C982 C981 1.366 . S
C982 C986 1.385 . S
C983 H958 0.951 . S
C983 C981 1.388 . S
C983 C984 1.366 . S
C984 C983 1.366 . S
C984 C985 1.414 . S
C984 C987 1.499 . S
C985 H959 0.950 . S
C985 C984 1.414 . S
C985 C986 1.374 . S
C986 H960 0.950 . S
C986 C982 1.385 . S
C986 C985 1.374 . S
C987 C984 1.499 . S
C987 C988 1.373 . S
C987 C989 1.389 . S
C988 H961 0.950 . S
C988 C974 1.377 . S
C988 C987 1.373 . S
C989 C973 1.377 . S
C989 C987 1.389 . S
C989 C990 1.524 . S
C990 C989 1.524 . S
C990 C991 1.397 . S
C990 C995 1.363 . S
C991 H962 0.950 . S
C991 C990 1.397 . S
C991 C992 1.334 . S
C992 H963 0.950 . S
C992 C991 1.334 . S
C992 C993 1.287 . S
C993 C992 1.287 . S
C993 C994 1.524 . S
C993 H996 0.999 . S
C994 H964 0.950 . S
C994 C993 1.524 . S
C994 C995 1.415 . S
C995 H965 0.950 . S
C995 C990 1.363 . S
C995 C994 1.415 . S
H996 C993 0.999 . S
H997 C978 0.913 . S
H998 C1016 0.951 . S
H999 C1018 0.954 . S
H1000 C1020 0.950 . S
H1001 C1021 0.950 . S
H1002 C1023 0.950 . S
H1003 C1026 0.950 . S
H1004 C1027 0.950 . S
H1005 C1029 0.950 . S
H1006 C1030 0.950 . S
H1007 C1031 0.951 . S
H1008 C1033 0.951 . S
H1009 C1035 0.950 . S
H1010 C1036 0.950 . S
H1011 C1038 0.950 . S
H1012 C1041 0.950 . S
H1013 C1042 0.950 . S
H1014 C1044 0.950 . S
H1015 C1045 0.950 . S
C1016 H998 0.951 . S
C1016 C1017 1.366 . S
C1016 C1018 1.405 . S
C1017 C1016 1.366 . S
C1017 C1021 1.385 1_554 S
C1018 H999 0.954 . S
C1018 C1016 1.405 . S
C1018 C1019 1.346 1_554 S
C1019 C1018 1.346 1_556 S
C1019 C1020 1.414 . S
C1019 C1022 1.499 . S
C1020 H1000 0.950 . S
C1020 C1019 1.414 . S
C1020 C1021 1.374 . S
C1021 H1001 0.950 . S
C1021 C1017 1.385 1_556 S
C1021 C1020 1.374 . S
C1022 C1019 1.499 . S
C1022 C1023 1.373 . S
C1022 C1024 1.389 . S
C1023 H1002 0.950 . S
C1023 C1022 1.373 . S
C1023 C1039 1.377 . S
C1024 C1022 1.389 . S
C1024 C1025 1.524 . S
C1024 C1038 1.377 . S
C1025 C1024 1.524 . S
C1025 C1026 1.397 . S
C1025 C1030 1.363 . S
C1026 H1003 0.950 . S
C1026 C1025 1.397 . S
C1026 C1027 1.334 1_656 S
C1027 H1004 0.950 . S
C1027 C1026 1.334 1_454 S
C1027 C1028 1.287 . S
C1028 C1027 1.287 . S
C1028 C1029 1.524 . S
C1028 H1047 0.913 . S
C1029 H1005 0.950 . S
C1029 C1028 1.524 . S
C1029 C1030 1.415 1_454 S
C1030 H1006 0.950 . S
C1030 C1025 1.363 . S
C1030 C1029 1.415 1_656 S
C1031 H1007 0.951 . S
C1031 C1032 1.366 . S
C1031 C1033 1.388 . S
C1032 C1031 1.366 . S
C1032 C1036 1.385 . S
C1033 H1008 0.951 . S
C1033 C1031 1.388 . S
C1033 C1034 1.366 . S
C1034 C1033 1.366 . S
C1034 C1035 1.414 . S
C1034 C1037 1.499 . S
C1035 H1009 0.950 . S
C1035 C1034 1.414 . S
C1035 C1036 1.374 . S
C1036 H1010 0.950 . S
C1036 C1032 1.385 . S
C1036 C1035 1.374 . S
C1037 C1034 1.499 . S
C1037 C1038 1.373 . S
C1037 C1039 1.389 . S
C1038 H1011 0.950 . S
C1038 C1024 1.377 . S
C1038 C1037 1.373 . S
C1039 C1023 1.377 . S
C1039 C1037 1.389 . S
C1039 C1040 1.524 . S
C1040 C1039 1.524 . S
C1040 C1041 1.397 . S
C1040 C1045 1.363 . S
C1041 H1012 0.950 . S
C1041 C1040 1.397 . S
C1041 C1042 1.334 . S
C1042 H1013 0.950 . S
C1042 C1041 1.334 . S
C1042 C1043 1.287 . S
C1043 C1042 1.287 . S
C1043 C1044 1.524 . S
C1043 H1046 0.999 . S
C1044 H1014 0.950 . S
C1044 C1043 1.524 . S
C1044 C1045 1.415 . S
C1045 H1015 0.950 . S
C1045 C1040 1.363 . S
C1045 C1044 1.415 . S
H1046 C1043 0.999 . S
H1047 C1028 0.913 . S
H1048 C1066 0.951 . S
H1049 C1068 0.951 . S
H1050 C1070 0.950 . S
H1051 C1071 0.950 . S
H1052 C1073 0.950 . S
H1053 C1076 0.950 . S
H1054 C1077 0.950 . S
H1055 C1079 0.950 . S
H1056 C1080 0.950 . S
H1057 C1081 0.945 1_655 S
H1058 C1083 0.951 . S
H1059 C1085 0.950 . S
H1060 C1086 0.950 . S
H1061 C1088 0.950 . S
H1062 C1091 0.950 . S
H1063 C1092 0.950 . S
H1064 C1094 0.950 . S
H1065 C1095 0.950 . S
C1066 H1048 0.951 . S
C1066 C1067 1.366 . S
C1066 C1068 1.388 . S
C1067 C1066 1.366 . S
C1067 C1071 1.385 . S
C1068 H1049 0.951 . S
C1068 C1066 1.388 . S
C1068 C1069 1.366 . S
C1069 C1068 1.366 . S
C1069 C1070 1.414 . S
C1069 C1072 1.499 . S
C1070 H1050 0.950 . S
C1070 C1069 1.414 . S
C1070 C1071 1.374 . S
C1071 H1051 0.950 . S
C1071 C1067 1.385 . S
C1071 C1070 1.374 . S
C1072 C1069 1.499 . S
C1072 C1073 1.373 . S
C1072 C1074 1.389 . S
C1073 H1052 0.950 . S
C1073 C1072 1.373 . S
C1073 C1089 1.377 . S
C1074 C1072 1.389 . S
C1074 C1075 1.524 . S
C1074 C1088 1.377 . S
C1075 C1074 1.524 . S
C1075 C1076 1.397 . S
C1075 C1080 1.363 . S
C1076 H1053 0.950 . S
C1076 C1075 1.397 . S
C1076 C1077 1.334 . S
C1077 H1054 0.950 . S
C1077 C1076 1.334 . S
C1077 C1078 1.287 . S
C1078 C1077 1.287 . S
C1078 C1079 1.524 . S
C1078 H1097 0.913 . S
C1079 H1055 0.950 . S
C1079 C1078 1.524 . S
C1079 C1080 1.415 . S
C1080 H1056 0.950 . S
C1080 C1075 1.363 . S
C1080 C1079 1.415 . S
C1081 H1057 0.945 1_455 S
C1081 C1082 1.366 . S
C1081 C1083 1.388 . S
C1082 C1081 1.366 . S
C1082 C1086 1.385 . S
C1083 H1058 0.951 . S
C1083 C1081 1.388 . S
C1083 C1084 1.366 . S
C1084 C1083 1.366 . S
C1084 C1085 1.414 . S
C1084 C1087 1.499 . S
C1085 H1059 0.950 . S
C1085 C1084 1.414 . S
C1085 C1086 1.374 . S
C1086 H1060 0.950 . S
C1086 C1082 1.385 . S
C1086 C1085 1.374 . S
C1087 C1084 1.499 . S
C1087 C1088 1.373 . S
C1087 C1089 1.389 . S
C1088 H1061 0.950 . S
C1088 C1074 1.377 . S
C1088 C1087 1.373 . S
C1089 C1073 1.377 . S
C1089 C1087 1.389 . S
C1089 C1090 1.524 . S
C1090 C1089 1.524 . S
C1090 C1091 1.397 . S
C1090 C1095 1.363 . S
C1091 H1062 0.950 . S
C1091 C1090 1.397 . S
C1091 C1092 1.334 . S
C1092 H1063 0.950 . S
C1092 C1091 1.334 . S
C1092 C1093 1.287 . S
C1093 C1092 1.287 . S
C1093 C1094 1.524 . S
C1093 H1096 0.999 . S
C1094 H1064 0.950 . S
C1094 C1093 1.524 . S
C1094 C1095 1.415 . S
C1095 H1065 0.950 . S
C1095 C1090 1.363 . S
C1095 C1094 1.415 . S
H1096 C1093 0.999 . S
H1097 C1078 0.913 . S
H1098 C1116 0.951 . S
H1099 C1118 0.951 . S
H1100 C1120 0.950 . S
H1101 C1121 0.950 . S
H1102 C1123 0.950 . S
H1103 C1126 0.950 . S
H1104 C1127 0.950 . S
H1105 C1129 0.950 . S
H1106 C1130 0.950 . S
H1107 C1131 0.951 . S
H1108 C1133 0.951 . S
H1109 C1135 0.950 1_565 S
H1110 C1136 0.950 . S
H1111 C1138 0.950 . S
H1112 C1141 0.950 . S
H1113 C1142 0.950 . S
H1114 C1144 0.950 . S
H1115 C1145 0.950 . S
C1116 H1098 0.951 . S
C1116 C1117 1.366 . S
C1116 C1118 1.388 . S
C1117 C1116 1.366 . S
C1117 C1121 1.385 . S
C1118 H1099 0.951 . S
C1118 C1116 1.388 . S
C1118 C1119 1.366 . S
C1119 C1118 1.366 . S
C1119 C1120 1.414 . S
C1119 C1122 1.499 . S
C1120 H1100 0.950 . S
C1120 C1119 1.414 . S
C1120 C1121 1.374 . S
C1121 H1101 0.950 . S
C1121 C1117 1.385 . S
C1121 C1120 1.374 . S
C1122 C1119 1.499 . S
C1122 C1123 1.373 . S
C1122 C1124 1.389 . S
C1123 H1102 0.950 . S
C1123 C1122 1.373 . S
C1123 C1139 1.377 . S
C1124 C1122 1.389 . S
C1124 C1125 1.524 . S
C1124 C1138 1.377 . S
C1125 C1124 1.524 . S
C1125 C1126 1.397 . S
C1125 C1130 1.363 . S
C1126 H1103 0.950 . S
C1126 C1125 1.397 . S
C1126 C1127 1.334 . S
C1127 H1104 0.950 . S
C1127 C1126 1.334 . S
C1127 C1128 1.287 . S
C1128 C1127 1.287 . S
C1128 C1129 1.524 . S
C1128 H1147 0.913 . S
C1129 H1105 0.950 . S
C1129 C1128 1.524 . S
C1129 C1130 1.415 . S
C1130 H1106 0.950 . S
C1130 C1125 1.363 . S
C1130 C1129 1.415 . S
C1131 H1107 0.951 . S
C1131 C1132 1.366 . S
C1131 C1133 1.388 . S
C1132 C1131 1.366 . S
C1132 C1136 1.385 1_545 S
C1133 H1108 0.951 . S
C1133 C1131 1.388 . S
C1133 C1134 1.366 . S
C1134 C1133 1.366 . S
C1134 C1135 1.414 . S
C1134 C1137 1.499 . S
C1135 H1109 0.950 1_545 S
C1135 C1134 1.414 . S
C1135 C1136 1.374 1_545 S
C1136 H1110 0.950 . S
C1136 C1132 1.385 1_565 S
C1136 C1135 1.374 1_565 S
C1137 C1134 1.499 . S
C1137 C1138 1.373 . S
C1137 C1139 1.389 . S
C1138 H1111 0.950 . S
C1138 C1124 1.377 . S
C1138 C1137 1.373 . S
C1139 C1123 1.377 . S
C1139 C1137 1.389 . S
C1139 C1140 1.524 . S
C1140 C1139 1.524 . S
C1140 C1141 1.397 . S
C1140 C1145 1.363 . S
C1141 H1112 0.950 . S
C1141 C1140 1.397 . S
C1141 C1142 1.334 . S
C1142 H1113 0.950 . S
C1142 C1141 1.334 . S
C1142 C1143 1.287 . S
C1143 C1142 1.287 . S
C1143 C1144 1.524 . S
C1143 H1146 0.999 . S
C1144 H1114 0.950 . S
C1144 C1143 1.524 . S
C1144 C1145 1.415 . S
C1145 H1115 0.950 . S
C1145 C1140 1.363 . S
C1145 C1144 1.415 . S
H1146 C1143 0.999 . S
H1147 C1128 0.913 . S
H1148 C1166 0.951 . S
H1149 C1168 0.951 . S
H1150 C1170 0.950 . S
H1151 C1171 0.950 . S
H1152 C1173 0.950 . S
H1153 C1176 0.950 . S
H1154 C1177 0.950 . S
H1155 C1179 0.950 . S
H1156 C1180 0.950 . S
H1157 C1181 0.951 . S
H1158 C1183 0.951 . S
H1159 C1185 0.950 . S
H1160 C1186 0.950 . S
H1161 C1188 0.950 . S
H1162 C1191 0.950 . S
H1163 C1192 0.950 . S
H1164 C1194 0.950 . S
H1165 C1195 0.950 . S
C1166 H1148 0.951 . S
C1166 C1167 1.366 . S
C1166 C1168 1.388 . S
C1167 C1166 1.366 . S
C1167 C1171 1.385 . S
C1168 H1149 0.951 . S
C1168 C1166 1.388 . S
C1168 C1169 1.366 . S
C1169 C1168 1.366 . S
C1169 C1170 1.414 . S
C1169 C1172 1.499 . S
C1170 H1150 0.950 . S
C1170 C1169 1.414 . S
C1170 C1171 1.374 . S
C1171 H1151 0.950 . S
C1171 C1167 1.385 . S
C1171 C1170 1.374 . S
C1172 C1169 1.499 . S
C1172 C1173 1.373 . S
C1172 C1174 1.389 . S
C1173 H1152 0.950 . S
C1173 C1172 1.373 . S
C1173 C1189 1.377 . S
C1174 C1172 1.389 . S
C1174 C1175 1.524 . S
C1174 C1188 1.377 . S
C1175 C1174 1.524 . S
C1175 C1176 1.397 . S
C1175 C1180 1.363 . S
C1176 H1153 0.950 . S
C1176 C1175 1.397 . S
C1176 C1177 1.334 . S
C1177 H1154 0.950 . S
C1177 C1176 1.334 . S
C1177 C1178 1.287 . S
C1178 C1177 1.287 . S
C1178 C1179 1.524 . S
C1178 H1197 0.913 . S
C1179 H1155 0.950 . S
C1179 C1178 1.524 . S
C1179 C1180 1.415 . S
C1180 H1156 0.950 . S
C1180 C1175 1.363 . S
C1180 C1179 1.415 . S
C1181 H1157 0.951 . S
C1181 C1182 1.366 . S
C1181 C1183 1.388 . S
C1182 C1181 1.366 . S
C1182 C1186 1.385 . S
C1183 H1158 0.951 . S
C1183 C1181 1.388 . S
C1183 C1184 1.366 . S
C1184 C1183 1.366 . S
C1184 C1185 1.414 . S
C1184 C1187 1.499 . S
C1185 H1159 0.950 . S
C1185 C1184 1.414 . S
C1185 C1186 1.374 . S
C1186 H1160 0.950 . S
C1186 C1182 1.385 . S
C1186 C1185 1.374 . S
C1187 C1184 1.499 . S
C1187 C1188 1.373 . S
C1187 C1189 1.389 . S
C1188 H1161 0.950 . S
C1188 C1174 1.377 . S
C1188 C1187 1.373 . S
C1189 C1173 1.377 . S
C1189 C1187 1.389 . S
C1189 C1190 1.524 . S
C1190 C1189 1.524 . S
C1190 C1191 1.397 . S
C1190 C1195 1.363 . S
C1191 H1162 0.950 . S
C1191 C1190 1.397 . S
C1191 C1192 1.334 . S
C1192 H1163 0.950 . S
C1192 C1191 1.334 . S
C1192 C1193 1.287 . S
C1193 C1192 1.287 . S
C1193 C1194 1.524 . S
C1193 H1196 0.999 . S
C1194 H1164 0.950 . S
C1194 C1193 1.524 . S
C1194 C1195 1.415 . S
C1195 H1165 0.950 . S
C1195 C1190 1.363 . S
C1195 C1194 1.415 . S
H1196 C1193 0.999 . S
H1197 C1178 0.913 . S
H1198 C1216 0.951 . S
H1199 C1218 0.951 . S
H1200 C1220 0.950 . S
H1201 C1221 0.950 . S
H1202 C1223 0.950 . S
H1203 C1226 0.950 . S
H1204 C1227 0.950 . S
H1205 C1229 0.950 . S
H1206 C1230 0.950 . S
H1207 C1231 0.951 . S
H1208 C1233 0.951 . S
H1209 C1235 0.950 . S
H1210 C1236 0.950 . S
H1211 C1238 0.950 . S
H1212 C1241 0.950 . S
H1213 C1242 0.950 . S
H1214 C1244 0.950 . S
H1215 C1245 0.950 . S
C1216 H1198 0.951 . S
C1216 C1217 1.366 . S
C1216 C1218 1.388 . S
C1217 C1216 1.366 . S
C1217 C1221 1.385 . S
C1218 H1199 0.951 . S
C1218 C1216 1.388 . S
C1218 C1219 1.366 . S
C1219 C1218 1.366 . S
C1219 C1220 1.414 . S
C1219 C1222 1.499 . S
C1220 H1200 0.950 . S
C1220 C1219 1.414 . S
C1220 C1221 1.374 . S
C1221 H1201 0.950 . S
C1221 C1217 1.385 . S
C1221 C1220 1.374 . S
C1222 C1219 1.499 . S
C1222 C1223 1.373 . S
C1222 C1224 1.389 . S
C1223 H1202 0.950 . S
C1223 C1222 1.373 . S
C1223 C1239 1.377 . S
C1224 C1222 1.389 . S
C1224 C1225 1.524 . S
C1224 C1238 1.377 . S
C1225 C1224 1.524 . S
C1225 C1226 1.397 . S
C1225 C1230 1.363 . S
C1226 H1203 0.950 . S
C1226 C1225 1.397 . S
C1226 C1227 1.334 . S
C1227 H1204 0.950 . S
C1227 C1226 1.334 . S
C1227 C1228 1.287 . S
C1228 C1227 1.287 . S
C1228 C1229 1.524 . S
C1228 H1247 0.913 . S
C1229 H1205 0.950 . S
C1229 C1228 1.524 . S
C1229 C1230 1.415 . S
C1230 H1206 0.950 . S
C1230 C1225 1.363 . S
C1230 C1229 1.415 . S
C1231 H1207 0.951 . S
C1231 C1232 1.366 . S
C1231 C1233 1.388 . S
C1232 C1231 1.366 . S
C1232 C1236 1.385 . S
C1233 H1208 0.951 . S
C1233 C1231 1.388 . S
C1233 C1234 1.366 . S
C1234 C1233 1.366 . S
C1234 C1235 1.414 . S
C1234 C1237 1.499 . S
C1235 H1209 0.950 . S
C1235 C1234 1.414 . S
C1235 C1236 1.374 . S
C1236 H1210 0.950 . S
C1236 C1232 1.385 . S
C1236 C1235 1.374 . S
C1237 C1234 1.499 . S
C1237 C1238 1.373 . S
C1237 C1239 1.389 . S
C1238 H1211 0.950 . S
C1238 C1224 1.377 . S
C1238 C1237 1.373 . S
C1239 C1223 1.377 . S
C1239 C1237 1.389 . S
C1239 C1240 1.524 . S
C1240 C1239 1.524 . S
C1240 C1241 1.397 . S
C1240 C1245 1.363 . S
C1241 H1212 0.950 . S
C1241 C1240 1.397 . S
C1241 C1242 1.334 . S
C1242 H1213 0.950 . S
C1242 C1241 1.334 . S
C1242 C1243 1.287 . S
C1243 C1242 1.287 . S
C1243 C1244 1.524 . S
C1243 H1246 0.999 . S
C1244 H1214 0.950 . S
C1244 C1243 1.524 . S
C1244 C1245 1.415 . S
C1245 H1215 0.950 . S
C1245 C1240 1.363 . S
C1245 C1244 1.415 . S
H1246 C1243 0.999 . S
H1247 C1228 0.913 . S
H1248 C1266 0.951 . S
H1249 C1268 0.951 . S
H1250 C1270 0.950 . S
H1251 C1271 0.950 . S
H1252 C1273 0.950 . S
H1253 C1276 0.950 . S
H1254 C1277 0.950 . S
H1255 C1279 0.950 . S
H1256 C1280 0.950 . S
H1257 C1281 0.951 . S
H1258 C1283 0.951 . S
H1259 C1285 0.950 . S
H1260 C1286 0.950 . S
H1261 C1288 0.950 . S
H1262 C1291 0.950 . S
H1263 C1292 0.950 . S
H1264 C1294 0.950 . S
H1265 C1295 0.950 . S
C1266 H1248 0.951 . S
C1266 C1267 1.366 . S
C1266 C1268 1.388 . S
C1267 C1266 1.366 . S
C1267 C1271 1.385 . S
C1268 H1249 0.951 . S
C1268 C1266 1.388 . S
C1268 C1269 1.366 . S
C1269 C1268 1.366 . S
C1269 C1270 1.414 . S
C1269 C1272 1.499 . S
C1270 H1250 0.950 . S
C1270 C1269 1.414 . S
C1270 C1271 1.374 . S
C1271 H1251 0.950 . S
C1271 C1267 1.385 . S
C1271 C1270 1.374 . S
C1272 C1269 1.499 . S
C1272 C1273 1.373 . S
C1272 C1274 1.389 . S
C1273 H1252 0.950 . S
C1273 C1272 1.373 . S
C1273 C1289 1.377 . S
C1274 C1272 1.389 . S
C1274 C1275 1.524 . S
C1274 C1288 1.377 . S
C1275 C1274 1.524 . S
C1275 C1276 1.397 . S
C1275 C1280 1.363 . S
C1276 H1253 0.950 . S
C1276 C1275 1.397 . S
C1276 C1277 1.334 . S
C1277 H1254 0.950 . S
C1277 C1276 1.334 . S
C1277 C1278 1.287 . S
C1278 C1277 1.287 . S
C1278 C1279 1.524 . S
C1278 H1297 0.913 . S
C1279 H1255 0.950 . S
C1279 C1278 1.524 . S
C1279 C1280 1.415 . S
C1280 H1256 0.950 . S
C1280 C1275 1.363 . S
C1280 C1279 1.415 . S
C1281 H1257 0.951 . S
C1281 C1282 1.366 . S
C1281 C1283 1.388 . S
C1282 C1281 1.366 . S
C1282 C1286 1.385 1_455 S
C1283 H1258 0.951 . S
C1283 C1281 1.388 . S
C1283 C1284 1.366 1_455 S
C1284 C1283 1.366 1_655 S
C1284 C1285 1.414 . S
C1284 C1287 1.499 . S
C1285 H1259 0.950 . S
C1285 C1284 1.414 . S
C1285 C1286 1.374 . S
C1286 H1260 0.950 . S
C1286 C1282 1.385 1_655 S
C1286 C1285 1.374 . S
C1287 C1284 1.499 . S
C1287 C1288 1.373 . S
C1287 C1289 1.389 . S
C1288 H1261 0.950 . S
C1288 C1274 1.377 . S
C1288 C1287 1.373 . S
C1289 C1273 1.377 . S
C1289 C1287 1.389 . S
C1289 C1290 1.524 . S
C1290 C1289 1.524 . S
C1290 C1291 1.397 . S
C1290 C1295 1.363 1_655 S
C1291 H1262 0.950 . S
C1291 C1290 1.397 . S
C1291 C1292 1.334 1_655 S
C1292 H1263 0.950 . S
C1292 C1291 1.334 1_455 S
C1292 C1293 1.287 . S
C1293 C1292 1.287 . S
C1293 C1294 1.524 . S
C1293 H1296 0.999 1_556 S
C1294 H1264 0.950 . S
C1294 C1293 1.524 . S
C1294 C1295 1.415 . S
C1295 H1265 0.950 . S
C1295 C1290 1.363 1_455 S
C1295 C1294 1.415 . S
H1296 C1293 0.999 1_554 S
H1297 C1278 0.913 . S
H1298 C1316 0.950 . S
H1299 C1318 0.951 . S
H1300 C1320 0.950 . S
H1301 C1321 0.950 . S
H1302 C1323 0.950 . S
H1303 C1326 0.950 1_556 S
H1304 C1327 0.950 . S
H1305 C1329 0.950 1_545 S
H1306 C1330 0.950 1_545 S
H1307 C1331 0.951 . S
H1308 C1333 0.951 . S
H1309 C1335 0.950 . S
H1310 C1336 0.950 . S
H1311 C1338 0.950 . S
H1312 C1341 0.950 . S
H1313 C1342 0.950 . S
H1314 C1344 0.950 . S
H1315 C1345 0.950 . S
C1316 H1298 0.950 . S
C1316 C1317 1.366 . S
C1316 C1318 1.388 . S
C1317 C1316 1.366 . S
C1317 C1321 1.385 . S
C1318 H1299 0.951 . S
C1318 C1316 1.388 . S
C1318 C1319 1.366 . S
C1319 C1318 1.366 . S
C1319 C1320 1.414 . S
C1319 C1322 1.499 . S
C1320 H1300 0.950 . S
C1320 C1319 1.414 . S
C1320 C1321 1.374 . S
C1321 H1301 0.950 . S
C1321 C1317 1.385 . S
C1321 C1320 1.374 . S
C1322 C1319 1.499 . S
C1322 C1323 1.373 . S
C1322 C1324 1.389 . S
C1323 H1302 0.950 . S
C1323 C1322 1.373 . S
C1323 C1339 1.377 . S
C1324 C1322 1.389 . S
C1324 C1325 1.524 . S
C1324 C1338 1.377 . S
C1325 C1324 1.524 . S
C1325 C1326 1.397 1_556 S
C1325 C1330 1.363 . S
C1326 H1303 0.950 1_554 S
C1326 C1325 1.397 1_554 S
C1326 C1327 1.334 . S
C1327 H1304 0.950 . S
C1327 C1326 1.334 . S
C1327 C1328 1.287 . S
C1328 C1327 1.287 . S
C1328 C1329 1.524 . S
C1328 H1347 0.913 . S
C1329 H1305 0.950 1_565 S
C1329 C1328 1.524 . S
C1329 C1330 1.415 1_554 S
C1330 H1306 0.950 1_565 S
C1330 C1325 1.363 . S
C1330 C1329 1.415 1_556 S
C1331 H1307 0.951 . S
C1331 C1332 1.366 1_565 S
C1331 C1333 1.388 . S
C1332 C1331 1.366 1_545 S
C1332 C1336 1.385 . S
C1333 H1308 0.951 . S
C1333 C1331 1.388 . S
C1333 C1334 1.366 . S
C1334 C1333 1.366 . S
C1334 C1335 1.414 1_565 S
C1334 C1337 1.499 . S
C1335 H1309 0.950 . S
C1335 C1334 1.414 1_545 S
C1335 C1336 1.374 . S
C1336 H1310 0.950 . S
C1336 C1332 1.385 . S
C1336 C1335 1.374 . S
C1337 C1334 1.499 . S
C1337 C1338 1.373 . S
C1337 C1339 1.389 . S
C1338 H1311 0.950 . S
C1338 C1324 1.377 . S
C1338 C1337 1.373 . S
C1339 C1323 1.377 . S
C1339 C1337 1.389 . S
C1339 C1340 1.524 . S
C1340 C1339 1.524 . S
C1340 C1341 1.397 . S
C1340 C1345 1.363 . S
C1341 H1312 0.950 . S
C1341 C1340 1.397 . S
C1341 C1342 1.334 . S
C1342 H1313 0.950 . S
C1342 C1341 1.334 . S
C1342 C1343 1.287 . S
C1343 C1342 1.287 . S
C1343 C1344 1.524 . S
C1343 H1346 0.999 . S
C1344 H1314 0.950 . S
C1344 C1343 1.524 . S
C1344 C1345 1.415 . S
C1345 H1315 0.950 . S
C1345 C1340 1.363 . S
C1345 C1344 1.415 . S
H1346 C1343 0.999 . S
H1347 C1328 0.913 . S
H1348 C1366 0.951 . S
H1349 C1368 0.951 . S
H1350 C1370 0.950 . S
H1351 C1371 0.950 1_554 S
H1352 C1373 0.950 . S
H1353 C1376 0.950 . S
H1354 C1377 0.950 1_554 S
H1355 C1379 0.950 . S
H1356 C1380 0.950 . S
H1357 C1381 0.951 . S
H1358 C1383 0.951 . S
H1359 C1385 0.950 . S
H1360 C1386 0.950 . S
H1361 C1388 0.950 . S
H1362 C1391 0.950 . S
H1363 C1392 0.950 . S
H1364 C1394 0.950 . S
H1365 C1395 0.950 . S
C1366 H1348 0.951 . S
C1366 C1367 1.366 . S
C1366 C1368 1.388 . S
C1367 C1366 1.366 . S
C1367 C1371 1.385 . S
C1368 H1349 0.951 . S
C1368 C1366 1.388 . S
C1368 C1369 1.366 . S
C1369 C1368 1.366 . S
C1369 C1370 1.414 . S
C1369 C1372 1.499 . S
C1370 H1350 0.950 . S
C1370 C1369 1.414 . S
C1370 C1371 1.374 . S
C1371 H1351 0.950 1_556 S
C1371 C1367 1.385 . S
C1371 C1370 1.374 . S
C1372 C1369 1.499 . S
C1372 C1373 1.373 . S
C1372 C1374 1.389 . S
C1373 H1352 0.950 . S
C1373 C1372 1.373 . S
C1373 C1389 1.377 . S
C1374 C1372 1.389 . S
C1374 C1375 1.524 . S
C1374 C1388 1.377 . S
C1375 C1374 1.524 . S
C1375 C1376 1.397 . S
C1375 C1380 1.363 . S
C1376 H1353 0.950 . S
C1376 C1375 1.397 . S
C1376 C1377 1.334 . S
C1377 H1354 0.950 1_556 S
C1377 C1376 1.334 . S
C1377 C1378 1.287 . S
C1378 C1377 1.287 . S
C1378 C1379 1.524 . S
C1378 H1397 0.913 . S
C1379 H1355 0.950 . S
C1379 C1378 1.524 . S
C1379 C1380 1.415 . S
C1380 H1356 0.950 . S
C1380 C1375 1.363 . S
C1380 C1379 1.415 . S
C1381 H1357 0.951 . S
C1381 C1382 1.366 . S
C1381 C1383 1.388 . S
C1382 C1381 1.366 . S
C1382 C1386 1.385 . S
C1383 H1358 0.951 . S
C1383 C1381 1.388 . S
C1383 C1384 1.366 . S
C1384 C1383 1.366 . S
C1384 C1385 1.414 . S
C1384 C1387 1.499 . S
C1385 H1359 0.950 . S
C1385 C1384 1.414 . S
C1385 C1386 1.374 . S
C1386 H1360 0.950 . S
C1386 C1382 1.385 . S
C1386 C1385 1.374 . S
C1387 C1384 1.499 . S
C1387 C1388 1.373 . S
C1387 C1389 1.389 . S
C1388 H1361 0.950 . S
C1388 C1374 1.377 . S
C1388 C1387 1.373 . S
C1389 C1373 1.377 . S
C1389 C1387 1.389 . S
C1389 C1390 1.524 . S
C1390 C1389 1.524 . S
C1390 C1391 1.397 . S
C1390 C1395 1.363 . S
C1391 H1362 0.950 . S
C1391 C1390 1.397 . S
C1391 C1392 1.334 . S
C1392 H1363 0.950 . S
C1392 C1391 1.334 . S
C1392 C1393 1.287 . S
C1393 C1392 1.287 . S
C1393 C1394 1.524 . S
C1393 H1396 0.999 . S
C1394 H1364 0.950 . S
C1394 C1393 1.524 . S
C1394 C1395 1.415 . S
C1395 H1365 0.950 . S
C1395 C1390 1.363 . S
C1395 C1394 1.415 . S
H1396 C1393 0.999 . S
H1397 C1378 0.913 . S
H1398 C1416 0.951 . S
H1399 C1418 0.951 . S
H1400 C1420 0.950 . S
H1401 C1421 0.950 1_554 S
H1402 C1423 0.950 . S
H1403 C1426 0.950 . S
H1404 C1427 0.950 . S
H1405 C1429 0.950 . S
H1406 C1430 0.950 . S
H1407 C1431 0.951 . S
H1408 C1433 0.951 . S
H1409 C1435 0.950 . S
H1410 C1436 0.950 . S
H1411 C1438 0.950 . S
H1412 C1441 0.950 . S
H1413 C1442 0.950 . S
H1414 C1444 0.950 . S
H1415 C1445 0.950 . S
C1416 H1398 0.951 . S
C1416 C1417 1.366 . S
C1416 C1418 1.388 . S
C1417 C1416 1.366 . S
C1417 C1421 1.385 . S
C1418 H1399 0.951 . S
C1418 C1416 1.388 . S
C1418 C1419 1.366 . S
C1419 C1418 1.366 . S
C1419 C1420 1.414 . S
C1419 C1422 1.499 . S
C1420 H1400 0.950 . S
C1420 C1419 1.414 . S
C1420 C1421 1.374 . S
C1421 H1401 0.950 1_556 S
C1421 C1417 1.385 . S
C1421 C1420 1.374 . S
C1422 C1419 1.499 . S
C1422 C1423 1.373 . S
C1422 C1424 1.389 . S
C1423 H1402 0.950 . S
C1423 C1422 1.373 . S
C1423 C1439 1.377 . S
C1424 C1422 1.389 . S
C1424 C1425 1.524 . S
C1424 C1438 1.377 . S
C1425 C1424 1.524 . S
C1425 C1426 1.397 . S
C1425 C1430 1.363 . S
C1426 H1403 0.950 . S
C1426 C1425 1.397 . S
C1426 C1427 1.334 . S
C1427 H1404 0.950 . S
C1427 C1426 1.334 . S
C1427 C1428 1.287 . S
C1428 C1427 1.287 . S
C1428 C1429 1.524 . S
C1428 H1447 0.913 . S
C1429 H1405 0.950 . S
C1429 C1428 1.524 . S
C1429 C1430 1.415 . S
C1430 H1406 0.950 . S
C1430 C1425 1.363 . S
C1430 C1429 1.415 . S
C1431 H1407 0.951 . S
C1431 C1432 1.366 . S
C1431 C1433 1.388 . S
C1432 C1431 1.366 . S
C1432 C1436 1.385 . S
C1433 H1408 0.951 . S
C1433 C1431 1.388 . S
C1433 C1434 1.366 . S
C1434 C1433 1.366 . S
C1434 C1435 1.414 . S
C1434 C1437 1.499 . S
C1435 H1409 0.950 . S
C1435 C1434 1.414 . S
C1435 C1436 1.374 . S
C1436 H1410 0.950 . S
C1436 C1432 1.385 . S
C1436 C1435 1.374 . S
C1437 C1434 1.499 . S
C1437 C1438 1.373 . S
C1437 C1439 1.389 . S
C1438 H1411 0.950 . S
C1438 C1424 1.377 . S
C1438 C1437 1.373 . S
C1439 C1423 1.377 . S
C1439 C1437 1.389 . S
C1439 C1440 1.524 . S
C1440 C1439 1.524 . S
C1440 C1441 1.397 . S
C1440 C1445 1.363 . S
C1441 H1412 0.950 . S
C1441 C1440 1.397 . S
C1441 C1442 1.334 . S
C1442 H1413 0.950 . S
C1442 C1441 1.334 . S
C1442 C1443 1.287 . S
C1443 C1442 1.287 . S
C1443 C1444 1.524 . S
C1443 H1446 0.999 . S
C1444 H1414 0.950 . S
C1444 C1443 1.524 . S
C1444 C1445 1.415 . S
C1445 H1415 0.950 . S
C1445 C1440 1.363 . S
C1445 C1444 1.415 . S
H1446 C1443 0.999 . S
H1447 C1428 0.913 . S
H1448 C1466 0.951 . S
H1449 C1468 0.951 . S
H1450 C1470 0.950 . S
H1451 C1471 0.950 . S
H1452 C1473 0.950 . S
H1453 C1476 0.950 . S
H1454 C1477 0.950 . S
H1455 C1479 0.950 . S
H1456 C1480 0.950 . S
H1457 C1481 0.951 . S
H1458 C1483 0.951 . S
H1459 C1485 0.950 . S
H1460 C1486 0.950 . S
H1461 C1488 0.950 . S
H1462 C1491 0.950 . S
H1463 C1492 0.950 . S
H1464 C1494 0.950 . S
H1465 C1495 0.950 . S
C1466 H1448 0.951 . S
C1466 C1467 1.366 . S
C1466 C1468 1.388 . S
C1467 C1466 1.366 . S
C1467 C1471 1.385 . S
C1468 H1449 0.951 . S
C1468 C1466 1.388 . S
C1468 C1469 1.366 . S
C1469 C1468 1.366 . S
C1469 C1470 1.414 . S
C1469 C1472 1.499 . S
C1470 H1450 0.950 . S
C1470 C1469 1.414 . S
C1470 C1471 1.374 . S
C1471 H1451 0.950 . S
C1471 C1467 1.385 . S
C1471 C1470 1.374 . S
C1472 C1469 1.499 . S
C1472 C1473 1.373 . S
C1472 C1474 1.389 . S
C1473 H1452 0.950 . S
C1473 C1472 1.373 . S
C1473 C1489 1.377 . S
C1474 C1472 1.389 . S
C1474 C1475 1.524 . S
C1474 C1488 1.377 . S
C1475 C1474 1.524 . S
C1475 C1476 1.397 . S
C1475 C1480 1.363 . S
C1476 H1453 0.950 . S
C1476 C1475 1.397 . S
C1476 C1477 1.334 . S
C1477 H1454 0.950 . S
C1477 C1476 1.334 . S
C1477 C1478 1.287 . S
C1478 C1477 1.287 . S
C1478 C1479 1.524 . S
C1478 H1497 0.913 . S
C1479 H1455 0.950 . S
C1479 C1478 1.524 . S
C1479 C1480 1.415 . S
C1480 H1456 0.950 . S
C1480 C1475 1.363 . S
C1480 C1479 1.415 . S
C1481 H1457 0.951 . S
C1481 C1482 1.366 . S
C1481 C1483 1.388 . S
C1482 C1481 1.366 . S
C1482 C1486 1.385 . S
C1483 H1458 0.951 . S
C1483 C1481 1.388 . S
C1483 C1484 1.366 . S
C1484 C1483 1.366 . S
C1484 C1485 1.414 . S
C1484 C1487 1.499 . S
C1485 H1459 0.950 . S
C1485 C1484 1.414 . S
C1485 C1486 1.374 . S
C1486 H1460 0.950 . S
C1486 C1482 1.385 . S
C1486 C1485 1.374 . S
C1487 C1484 1.499 . S
C1487 C1488 1.373 . S
C1487 C1489 1.389 . S
C1488 H1461 0.950 . S
C1488 C1474 1.377 . S
C1488 C1487 1.373 . S
C1489 C1473 1.377 . S
C1489 C1487 1.389 . S
C1489 C1490 1.524 . S
C1490 C1489 1.524 . S
C1490 C1491 1.397 . S
C1490 C1495 1.363 . S
C1491 H1462 0.950 . S
C1491 C1490 1.397 . S
C1491 C1492 1.334 1_455 S
C1492 H1463 0.950 . S
C1492 C1491 1.334 1_655 S
C1492 C1493 1.284 1_655 S
C1493 C1492 1.284 1_455 S
C1493 C1494 1.534 . S
C1493 H1496 0.992 1_455 S
C1494 H1464 0.950 . S
C1494 C1493 1.534 . S
C1494 C1495 1.415 . S
C1495 H1465 0.950 . S
C1495 C1490 1.363 . S
C1495 C1494 1.415 . S
H1496 C1493 0.992 1_655 S
H1497 C1478 0.913 . S
H1498 C1516 0.951 . S
H1499 C1518 0.951 . S
H1500 C1520 0.950 . S
H1501 C1521 0.950 . S
H1502 C1523 0.950 . S
H1503 C1526 0.950 . S
H1504 C1527 0.950 . S
H1505 C1529 0.950 . S
H1506 C1530 0.950 1_565 S
H1507 C1531 0.951 . S
H1508 C1533 0.951 . S
H1509 C1535 0.950 . S
H1510 C1536 0.950 . S
H1511 C1538 0.950 . S
H1512 C1541 0.950 . S
H1513 C1542 0.950 . S
H1514 C1544 0.950 . S
H1515 C1545 0.950 . S
C1516 H1498 0.951 . S
C1516 C1517 1.366 . S
C1516 C1518 1.388 . S
C1517 C1516 1.366 . S
C1517 C1521 1.385 . S
C1518 H1499 0.951 . S
C1518 C1516 1.388 . S
C1518 C1519 1.366 . S
C1519 C1518 1.366 . S
C1519 C1520 1.414 . S
C1519 C1522 1.499 . S
C1520 H1500 0.950 . S
C1520 C1519 1.414 . S
C1520 C1521 1.374 . S
C1521 H1501 0.950 . S
C1521 C1517 1.385 . S
C1521 C1520 1.374 . S
C1522 C1519 1.499 . S
C1522 C1523 1.373 . S
C1522 C1524 1.389 . S
C1523 H1502 0.950 . S
C1523 C1522 1.373 . S
C1523 C1539 1.377 . S
C1524 C1522 1.389 . S
C1524 C1525 1.524 . S
C1524 C1538 1.377 . S
C1525 C1524 1.524 . S
C1525 C1526 1.397 . S
C1525 C1530 1.363 . S
C1526 H1503 0.950 . S
C1526 C1525 1.397 . S
C1526 C1527 1.334 . S
C1527 H1504 0.950 . S
C1527 C1526 1.334 . S
C1527 C1528 1.287 1_545 S
C1528 C1527 1.287 1_565 S
C1528 C1529 1.524 . S
C1528 H1547 0.913 . S
C1529 H1505 0.950 . S
C1529 C1528 1.524 . S
C1529 C1530 1.415 1_565 S
C1530 H1506 0.950 1_545 S
C1530 C1525 1.363 . S
C1530 C1529 1.415 1_545 S
C1531 H1507 0.951 . S
C1531 C1532 1.366 . S
C1531 C1533 1.388 . S
C1532 C1531 1.366 . S
C1532 C1536 1.385 . S
C1533 H1508 0.951 . S
C1533 C1531 1.388 . S
C1533 C1534 1.366 . S
C1534 C1533 1.366 . S
C1534 C1535 1.414 . S
C1534 C1537 1.499 . S
C1535 H1509 0.950 . S
C1535 C1534 1.414 . S
C1535 C1536 1.374 . S
C1536 H1510 0.950 . S
C1536 C1532 1.385 . S
C1536 C1535 1.374 . S
C1537 C1534 1.499 . S
C1537 C1538 1.373 . S
C1537 C1539 1.389 . S
C1538 H1511 0.950 . S
C1538 C1524 1.377 . S
C1538 C1537 1.373 . S
C1539 C1523 1.377 . S
C1539 C1537 1.389 . S
C1539 C1540 1.524 . S
C1540 C1539 1.524 . S
C1540 C1541 1.397 . S
C1540 C1545 1.363 . S
C1541 H1512 0.950 . S
C1541 C1540 1.397 . S
C1541 C1542 1.334 . S
C1542 H1513 0.950 . S
C1542 C1541 1.334 . S
C1542 C1543 1.287 . S
C1543 C1542 1.287 . S
C1543 C1544 1.524 . S
C1543 H1546 0.999 . S
C1544 H1514 0.950 . S
C1544 C1543 1.524 . S
C1544 C1545 1.415 . S
C1545 H1515 0.950 . S
C1545 C1540 1.363 . S
C1545 C1544 1.415 . S
H1546 C1543 0.999 . S
H1547 C1528 0.913 . S
H1548 C1566 0.951 . S
H1549 C1568 0.951 . S
H1550 C1570 0.950 . S
H1551 C1571 0.950 . S
H1552 C1573 0.950 . S
H1553 C1576 0.950 . S
H1554 C1577 0.950 . S
H1555 C1579 0.950 . S
H1556 C1580 0.950 . S
H1557 C1581 0.951 . S
H1558 C1583 0.951 . S
H1559 C1585 0.950 . S
H1560 C1586 0.950 . S
H1561 C1588 0.950 . S
H1562 C1591 0.950 . S
H1563 C1592 0.950 . S
H1564 C1594 0.950 . S
H1565 C1595 0.950 . S
C1566 H1548 0.951 . S
C1566 C1567 1.366 . S
C1566 C1568 1.388 . S
C1567 C1566 1.366 . S
C1567 C1571 1.385 . S
C1568 H1549 0.951 . S
C1568 C1566 1.388 . S
C1568 C1569 1.366 . S
C1569 C1568 1.366 . S
C1569 C1570 1.414 . S
C1569 C1572 1.499 . S
C1570 H1550 0.950 . S
C1570 C1569 1.414 . S
C1570 C1571 1.374 . S
C1571 H1551 0.950 . S
C1571 C1567 1.385 . S
C1571 C1570 1.374 . S
C1572 C1569 1.499 . S
C1572 C1573 1.373 . S
C1572 C1574 1.389 . S
C1573 H1552 0.950 . S
C1573 C1572 1.373 . S
C1573 C1589 1.377 . S
C1574 C1572 1.389 . S
C1574 C1575 1.524 . S
C1574 C1588 1.377 . S
C1575 C1574 1.524 . S
C1575 C1576 1.397 . S
C1575 C1580 1.363 . S
C1576 H1553 0.950 . S
C1576 C1575 1.397 . S
C1576 C1577 1.334 . S
C1577 H1554 0.950 . S
C1577 C1576 1.334 . S
C1577 C1578 1.287 . S
C1578 C1577 1.287 . S
C1578 C1579 1.524 . S
C1578 H1597 0.913 . S
C1579 H1555 0.950 . S
C1579 C1578 1.524 . S
C1579 C1580 1.415 . S
C1580 H1556 0.950 . S
C1580 C1575 1.363 . S
C1580 C1579 1.415 . S
C1581 H1557 0.951 . S
C1581 C1582 1.366 . S
C1581 C1583 1.388 . S
C1582 C1581 1.366 . S
C1582 C1586 1.385 . S
C1583 H1558 0.951 . S
C1583 C1581 1.388 . S
C1583 C1584 1.366 . S
C1584 C1583 1.366 . S
C1584 C1585 1.414 . S
C1584 C1587 1.499 . S
C1585 H1559 0.950 . S
C1585 C1584 1.414 . S
C1585 C1586 1.374 . S
C1586 H1560 0.950 . S
C1586 C1582 1.385 . S
C1586 C1585 1.374 . S
C1587 C1584 1.499 . S
C1587 C1588 1.373 . S
C1587 C1589 1.389 . S
C1588 H1561 0.950 . S
C1588 C1574 1.377 . S
C1588 C1587 1.373 . S
C1589 C1573 1.377 . S
C1589 C1587 1.389 . S
C1589 C1590 1.524 . S
C1590 C1589 1.524 . S
C1590 C1591 1.397 . S
C1590 C1595 1.363 . S
C1591 H1562 0.950 . S
C1591 C1590 1.397 . S
C1591 C1592 1.334 . S
C1592 H1563 0.950 . S
C1592 C1591 1.334 . S
C1592 C1593 1.287 . S
C1593 C1592 1.287 . S
C1593 C1594 1.524 . S
C1593 H1596 0.999 . S
C1594 H1564 0.950 . S
C1594 C1593 1.524 . S
C1594 C1595 1.415 . S
C1595 H1565 0.950 . S
C1595 C1590 1.363 . S
C1595 C1594 1.415 . S
H1596 C1593 0.999 . S
H1597 C1578 0.913 . S
H1598 C1616 0.951 . S
H1599 C1618 0.951 . S
H1600 C1620 0.950 . S
H1601 C1621 0.950 . S
H1602 C1623 0.950 . S
H1603 C1626 0.950 . S
H1604 C1627 0.950 . S
H1605 C1629 0.950 . S
H1606 C1630 0.950 . S
H1607 C1631 0.951 . S
H1608 C1633 0.951 . S
H1609 C1635 0.950 . S
H1610 C1636 0.950 . S
H1611 C1638 0.950 . S
H1612 C1641 0.950 . S
H1613 C1642 0.950 . S
H1614 C1644 0.950 . S
H1615 C1645 0.950 . S
C1616 H1598 0.951 . S
C1616 C1617 1.366 . S
C1616 C1618 1.388 . S
C1617 C1616 1.366 . S
C1617 C1621 1.385 . S
C1618 H1599 0.951 . S
C1618 C1616 1.388 . S
C1618 C1619 1.366 . S
C1619 C1618 1.366 . S
C1619 C1620 1.414 . S
C1619 C1622 1.499 . S
C1620 H1600 0.950 . S
C1620 C1619 1.414 . S
C1620 C1621 1.374 . S
C1621 H1601 0.950 . S
C1621 C1617 1.385 . S
C1621 C1620 1.374 . S
C1622 C1619 1.499 . S
C1622 C1623 1.373 . S
C1622 C1624 1.389 . S
C1623 H1602 0.950 . S
C1623 C1622 1.373 . S
C1623 C1639 1.377 . S
C1624 C1622 1.389 . S
C1624 C1625 1.524 . S
C1624 C1638 1.377 . S
C1625 C1624 1.524 . S
C1625 C1626 1.397 . S
C1625 C1630 1.363 . S
C1626 H1603 0.950 . S
C1626 C1625 1.397 . S
C1626 C1627 1.334 . S
C1627 H1604 0.950 . S
C1627 C1626 1.334 . S
C1627 C1628 1.287 . S
C1628 C1627 1.287 . S
C1628 C1629 1.524 . S
C1628 H1647 0.913 . S
C1629 H1605 0.950 . S
C1629 C1628 1.524 . S
C1629 C1630 1.415 . S
C1630 H1606 0.950 . S
C1630 C1625 1.363 . S
C1630 C1629 1.415 . S
C1631 H1607 0.951 . S
C1631 C1632 1.366 . S
C1631 C1633 1.388 . S
C1632 C1631 1.366 . S
C1632 C1636 1.385 . S
C1633 H1608 0.951 . S
C1633 C1631 1.388 . S
C1633 C1634 1.366 . S
C1634 C1633 1.366 . S
C1634 C1635 1.414 . S
C1634 C1637 1.499 . S
C1635 H1609 0.950 . S
C1635 C1634 1.414 . S
C1635 C1636 1.374 . S
C1636 H1610 0.950 . S
C1636 C1632 1.385 . S
C1636 C1635 1.374 . S
C1637 C1634 1.499 . S
C1637 C1638 1.373 . S
C1637 C1639 1.389 . S
C1638 H1611 0.950 . S
C1638 C1624 1.377 . S
C1638 C1637 1.373 . S
C1639 C1623 1.377 . S
C1639 C1637 1.389 . S
C1639 C1640 1.524 . S
C1640 C1639 1.524 . S
C1640 C1641 1.397 . S
C1640 C1645 1.363 . S
C1641 H1612 0.950 . S
C1641 C1640 1.397 . S
C1641 C1642 1.334 . S
C1642 H1613 0.950 . S
C1642 C1641 1.334 . S
C1642 C1643 1.287 . S
C1643 C1642 1.287 . S
C1643 C1644 1.524 . S
C1643 H1646 0.999 . S
C1644 H1614 0.950 . S
C1644 C1643 1.524 . S
C1644 C1645 1.415 . S
C1645 H1615 0.950 . S
C1645 C1640 1.363 . S
C1645 C1644 1.415 . S
H1646 C1643 0.999 . S
H1647 C1628 0.913 . S
H1648 C1666 0.951 . S
H1649 C1668 0.951 . S
H1650 C1670 0.950 . S
H1651 C1671 0.950 . S
H1652 C1673 0.950 . S
H1653 C1676 0.950 . S
H1654 C1677 0.950 . S
H1655 C1679 0.950 . S
H1656 C1680 0.950 . S
H1657 C1681 0.951 . S
H1658 C1683 0.951 . S
H1659 C1685 0.950 . S
H1660 C1686 0.950 1_455 S
H1661 C1688 0.950 . S
H1662 C1691 0.950 . S
H1663 C1692 0.950 . S
H1664 C1694 0.950 . S
H1665 C1695 0.950 . S
C1666 H1648 0.951 . S
C1666 C1667 1.366 . S
C1666 C1668 1.388 . S
C1667 C1666 1.366 . S
C1667 C1671 1.385 . S
C1668 H1649 0.951 . S
C1668 C1666 1.388 . S
C1668 C1669 1.366 . S
C1669 C1668 1.366 . S
C1669 C1670 1.414 . S
C1669 C1672 1.499 . S
C1670 H1650 0.950 . S
C1670 C1669 1.414 . S
C1670 C1671 1.374 . S
C1671 H1651 0.950 . S
C1671 C1667 1.385 . S
C1671 C1670 1.374 . S
C1672 C1669 1.499 . S
C1672 C1673 1.373 . S
C1672 C1674 1.389 . S
C1673 H1652 0.950 . S
C1673 C1672 1.373 . S
C1673 C1689 1.377 . S
C1674 C1672 1.389 . S
C1674 C1675 1.524 . S
C1674 C1688 1.377 . S
C1675 C1674 1.524 . S
C1675 C1676 1.397 . S
C1675 C1680 1.363 1_655 S
C1676 H1653 0.950 . S
C1676 C1675 1.397 . S
C1676 C1677 1.334 . S
C1677 H1654 0.950 . S
C1677 C1676 1.334 . S
C1677 C1678 1.287 1_655 S
C1678 C1677 1.287 1_455 S
C1678 C1679 1.524 . S
C1678 H1697 0.913 . S
C1679 H1655 0.950 . S
C1679 C1678 1.524 . S
C1679 C1680 1.415 . S
C1680 H1656 0.950 . S
C1680 C1675 1.363 1_455 S
C1680 C1679 1.415 . S
C1681 H1657 0.951 . S
C1681 C1682 1.366 . S
C1681 C1683 1.388 . S
C1682 C1681 1.366 . S
C1682 C1686 1.385 . S
C1683 H1658 0.951 . S
C1683 C1681 1.388 . S
C1683 C1684 1.366 . S
C1684 C1683 1.366 . S
C1684 C1685 1.414 . S
C1684 C1687 1.499 . S
C1685 H1659 0.950 . S
C1685 C1684 1.414 . S
C1685 C1686 1.374 . S
C1686 H1660 0.950 1_655 S
C1686 C1682 1.385 . S
C1686 C1685 1.374 . S
C1687 C1684 1.499 . S
C1687 C1688 1.373 . S
C1687 C1689 1.389 . S
C1688 H1661 0.950 . S
C1688 C1674 1.377 . S
C1688 C1687 1.373 . S
C1689 C1673 1.377 . S
C1689 C1687 1.389 . S
C1689 C1690 1.524 . S
C1690 C1689 1.524 . S
C1690 C1691 1.397 . S
C1690 C1695 1.363 . S
C1691 H1662 0.950 . S
C1691 C1690 1.397 . S
C1691 C1692 1.334 . S
C1692 H1663 0.950 . S
C1692 C1691 1.334 . S
C1692 C1693 1.287 . S
C1693 C1692 1.287 . S
C1693 C1694 1.524 . S
C1693 H1696 0.999 . S
C1694 H1664 0.950 . S
C1694 C1693 1.524 . S
C1694 C1695 1.415 . S
C1695 H1665 0.950 . S
C1695 C1690 1.363 . S
C1695 C1694 1.415 . S
H1696 C1693 0.999 . S
H1697 C1678 0.913 . S
H1698 C1716 0.951 . S
H1699 C1718 0.951 . S
H1700 C1720 0.950 . S
H1701 C1721 0.950 . S
H1702 C1723 0.950 . S
H1703 C1726 0.950 . S
H1704 C1727 0.950 . S
H1705 C1729 0.950 . S
H1706 C1730 0.950 . S
H1707 C1731 0.951 1_545 S
H1708 C1733 0.951 . S
H1709 C1735 0.950 . S
H1710 C1736 0.950 . S
H1711 C1738 0.950 . S
H1712 C1741 0.950 . S
H1713 C1742 0.950 . S
H1714 C1744 0.950 . S
H1715 C1745 0.950 . S
C1716 H1698 0.951 . S
C1716 C1717 1.366 . S
C1716 C1718 1.388 . S
C1717 C1716 1.366 . S
C1717 C1721 1.385 . S
C1718 H1699 0.951 . S
C1718 C1716 1.388 . S
C1718 C1719 1.366 . S
C1719 C1718 1.366 . S
C1719 C1720 1.414 . S
C1719 C1722 1.499 . S
C1720 H1700 0.950 . S
C1720 C1719 1.414 . S
C1720 C1721 1.374 . S
C1721 H1701 0.950 . S
C1721 C1717 1.385 . S
C1721 C1720 1.374 . S
C1722 C1719 1.499 . S
C1722 C1723 1.373 . S
C1722 C1724 1.389 . S
C1723 H1702 0.950 . S
C1723 C1722 1.373 . S
C1723 C1739 1.377 . S
C1724 C1722 1.389 . S
C1724 C1725 1.524 . S
C1724 C1738 1.377 . S
C1725 C1724 1.524 . S
C1725 C1726 1.397 . S
C1725 C1730 1.363 . S
C1726 H1703 0.950 . S
C1726 C1725 1.397 . S
C1726 C1727 1.334 . S
C1727 H1704 0.950 . S
C1727 C1726 1.334 . S
C1727 C1728 1.287 . S
C1728 C1727 1.287 . S
C1728 C1729 1.524 . S
C1728 H1747 0.913 . S
C1729 H1705 0.950 . S
C1729 C1728 1.524 . S
C1729 C1730 1.415 . S
C1730 H1706 0.950 . S
C1730 C1725 1.363 . S
C1730 C1729 1.415 . S
C1731 H1707 0.951 1_565 S
C1731 C1732 1.366 . S
C1731 C1733 1.388 . S
C1732 C1731 1.366 . S
C1732 C1736 1.385 . S
C1733 H1708 0.951 . S
C1733 C1731 1.388 . S
C1733 C1734 1.366 . S
C1734 C1733 1.366 . S
C1734 C1735 1.414 . S
C1734 C1737 1.499 . S
C1735 H1709 0.950 . S
C1735 C1734 1.414 . S
C1735 C1736 1.374 . S
C1736 H1710 0.950 . S
C1736 C1732 1.385 . S
C1736 C1735 1.374 . S
C1737 C1734 1.499 . S
C1737 C1738 1.373 . S
C1737 C1739 1.389 . S
C1738 H1711 0.950 . S
C1738 C1724 1.377 . S
C1738 C1737 1.373 . S
C1739 C1723 1.377 . S
C1739 C1737 1.389 . S
C1739 C1740 1.524 . S
C1740 C1739 1.524 . S
C1740 C1741 1.397 . S
C1740 C1745 1.363 . S
C1741 H1712 0.950 . S
C1741 C1740 1.397 . S
C1741 C1742 1.334 . S
C1742 H1713 0.950 . S
C1742 C1741 1.334 . S
C1742 C1743 1.287 . S
C1743 C1742 1.287 . S
C1743 C1744 1.524 . S
C1743 H1746 0.999 . S
C1744 H1714 0.950 . S
C1744 C1743 1.524 . S
C1744 C1745 1.415 . S
C1745 H1715 0.950 . S
C1745 C1740 1.363 . S
C1745 C1744 1.415 . S
H1746 C1743 0.999 . S
H1747 C1728 0.913 . S
H1748 C1766 0.951 . S
H1749 C1768 0.951 . S
H1750 C1770 0.950 . S
H1751 C1771 0.950 . S
H1752 C1773 0.950 . S
H1753 C1776 0.950 . S
H1754 C1777 0.950 . S
H1755 C1779 0.950 . S
H1756 C1780 0.950 . S
H1757 C1781 0.951 . S
H1758 C1783 0.951 . S
H1759 C1785 0.950 . S
H1760 C1786 0.950 . S
H1761 C1788 0.950 . S
H1762 C1791 0.950 . S
H1763 C1792 0.950 . S
H1764 C1794 0.950 . S
H1765 C1795 0.950 . S
C1766 H1748 0.951 . S
C1766 C1767 1.366 . S
C1766 C1768 1.388 . S
C1767 C1766 1.366 . S
C1767 C1771 1.385 . S
C1768 H1749 0.951 . S
C1768 C1766 1.388 . S
C1768 C1769 1.366 . S
C1769 C1768 1.366 . S
C1769 C1770 1.414 . S
C1769 C1772 1.499 . S
C1770 H1750 0.950 . S
C1770 C1769 1.414 . S
C1770 C1771 1.374 . S
C1771 H1751 0.950 . S
C1771 C1767 1.385 . S
C1771 C1770 1.374 . S
C1772 C1769 1.499 . S
C1772 C1773 1.373 . S
C1772 C1774 1.389 . S
C1773 H1752 0.950 . S
C1773 C1772 1.373 . S
C1773 C1789 1.377 . S
C1774 C1772 1.389 . S
C1774 C1775 1.524 . S
C1774 C1788 1.377 . S
C1775 C1774 1.524 . S
C1775 C1776 1.397 . S
C1775 C1780 1.363 . S
C1776 H1753 0.950 . S
C1776 C1775 1.397 . S
C1776 C1777 1.334 . S
C1777 H1754 0.950 . S
C1777 C1776 1.334 . S
C1777 C1778 1.287 . S
C1778 C1777 1.287 . S
C1778 C1779 1.524 . S
C1778 H1797 0.913 . S
C1779 H1755 0.950 . S
C1779 C1778 1.524 . S
C1779 C1780 1.415 . S
C1780 H1756 0.950 . S
C1780 C1775 1.363 . S
C1780 C1779 1.415 . S
C1781 H1757 0.951 . S
C1781 C1782 1.366 . S
C1781 C1783 1.388 . S
C1782 C1781 1.366 . S
C1782 C1786 1.385 . S
C1783 H1758 0.951 . S
C1783 C1781 1.388 . S
C1783 C1784 1.366 . S
C1784 C1783 1.366 . S
C1784 C1785 1.414 . S
C1784 C1787 1.499 . S
C1785 H1759 0.950 . S
C1785 C1784 1.414 . S
C1785 C1786 1.374 . S
C1786 H1760 0.950 . S
C1786 C1782 1.385 . S
C1786 C1785 1.374 . S
C1787 C1784 1.499 . S
C1787 C1788 1.373 . S
C1787 C1789 1.389 . S
C1788 H1761 0.950 . S
C1788 C1774 1.377 . S
C1788 C1787 1.373 . S
C1789 C1773 1.377 . S
C1789 C1787 1.389 . S
C1789 C1790 1.524 . S
C1790 C1789 1.524 . S
C1790 C1791 1.397 . S
C1790 C1795 1.363 . S
C1791 H1762 0.950 . S
C1791 C1790 1.397 . S
C1791 C1792 1.334 . S
C1792 H1763 0.950 . S
C1792 C1791 1.334 . S
C1792 C1793 1.287 . S
C1793 C1792 1.287 . S
C1793 C1794 1.524 . S
C1793 H1796 0.999 . S
C1794 H1764 0.950 . S
C1794 C1793 1.524 . S
C1794 C1795 1.415 . S
C1795 H1765 0.950 . S
C1795 C1790 1.363 . S
C1795 C1794 1.415 . S
H1796 C1793 0.999 . S
H1797 C1778 0.913 . S
H1798 C1816 0.951 . S
H1799 C1818 0.951 . S
H1800 C1820 0.950 . S
H1801 C1821 0.950 . S
H1802 C1823 0.950 . S
H1803 C1826 0.950 . S
H1804 C1827 0.950 . S
H1805 C1829 0.950 . S
H1806 C1830 0.950 . S
H1807 C1831 0.951 . S
H1808 C1833 0.951 . S
H1809 C1835 0.950 . S
H1810 C1836 0.950 . S
H1811 C1838 0.950 . S
H1812 C1841 0.950 . S
H1813 C1842 0.950 . S
H1814 C1844 0.950 . S
H1815 C1845 0.950 . S
C1816 H1798 0.951 . S
C1816 C1817 1.366 . S
C1816 C1818 1.388 . S
C1817 C1816 1.366 . S
C1817 C1821 1.385 . S
C1818 H1799 0.951 . S
C1818 C1816 1.388 . S
C1818 C1819 1.366 . S
C1819 C1818 1.366 . S
C1819 C1820 1.414 . S
C1819 C1822 1.499 . S
C1820 H1800 0.950 . S
C1820 C1819 1.414 . S
C1820 C1821 1.374 . S
C1821 H1801 0.950 . S
C1821 C1817 1.385 . S
C1821 C1820 1.374 . S
C1822 C1819 1.499 . S
C1822 C1823 1.373 . S
C1822 C1824 1.389 . S
C1823 H1802 0.950 . S
C1823 C1822 1.373 . S
C1823 C1839 1.377 . S
C1824 C1822 1.389 . S
C1824 C1825 1.524 . S
C1824 C1838 1.377 . S
C1825 C1824 1.524 . S
C1825 C1826 1.397 . S
C1825 C1830 1.363 . S
C1826 H1803 0.950 . S
C1826 C1825 1.397 . S
C1826 C1827 1.334 . S
C1827 H1804 0.950 . S
C1827 C1826 1.334 . S
C1827 C1828 1.287 . S
C1828 C1827 1.287 . S
C1828 C1829 1.524 . S
C1828 H1847 0.913 . S
C1829 H1805 0.950 . S
C1829 C1828 1.524 . S
C1829 C1830 1.415 . S
C1830 H1806 0.950 . S
C1830 C1825 1.363 . S
C1830 C1829 1.415 . S
C1831 H1807 0.951 . S
C1831 C1832 1.366 . S
C1831 C1833 1.388 . S
C1832 C1831 1.366 . S
C1832 C1836 1.385 . S
C1833 H1808 0.951 . S
C1833 C1831 1.388 . S
C1833 C1834 1.366 . S
C1834 C1833 1.366 . S
C1834 C1835 1.414 . S
C1834 C1837 1.499 . S
C1835 H1809 0.950 . S
C1835 C1834 1.414 . S
C1835 C1836 1.374 . S
C1836 H1810 0.950 . S
C1836 C1832 1.385 . S
C1836 C1835 1.374 . S
C1837 C1834 1.499 . S
C1837 C1838 1.373 . S
C1837 C1839 1.389 . S
C1838 H1811 0.950 . S
C1838 C1824 1.377 . S
C1838 C1837 1.373 . S
C1839 C1823 1.377 . S
C1839 C1837 1.389 . S
C1839 C1840 1.524 . S
C1840 C1839 1.524 . S
C1840 C1841 1.397 . S
C1840 C1845 1.363 . S
C1841 H1812 0.950 . S
C1841 C1840 1.397 . S
C1841 C1842 1.334 . S
C1842 H1813 0.950 . S
C1842 C1841 1.334 . S
C1842 C1843 1.287 . S
C1843 C1842 1.287 . S
C1843 C1844 1.524 . S
C1843 H1846 0.999 . S
C1844 H1814 0.950 . S
C1844 C1843 1.524 . S
C1844 C1845 1.415 . S
C1845 H1815 0.950 . S
C1845 C1840 1.363 . S
C1845 C1844 1.415 . S
H1846 C1843 0.999 . S
H1847 C1828 0.913 . S
C667 C255 2.062 . S
C682 C386 2.114 . S
C732 C470 2.155 . S
C717 C294 2.093 . S
C782 C536 2.129 . S
C767 C177 2.232 . S
C832 C620 2.109 . S
C817 C216 2.214 . S
C882 C375 2.113 1_565 S
C867 C99 2.073 . S
C917 C138 2.079 . S
C932 C459 2.156 . S
C967 C21 2.246 . S
C982 C547 2.128 . S
C1017 C60 2.227 . S
C1032 C631 2.108 . S
C1082 C382 0.421 1_455 S
C1067 C196 0.456 . S
C1132 C466 0.400 1_545 S
C1117 C235 0.415 . S
C1182 C538 0.440 . S
C1167 C289 0.417 . S
C1217 C157 0.442 . S
C1232 C622 0.451 . S
C1267 C40 0.439 . S
C1282 C370 0.424 . S
C1332 C454 0.399 . S
C1317 C79 0.401 . S
C1382 C550 0.440 . S
C1367 C133 0.408 . S
C1417 C1 0.429 . S
C1432 C634 0.449 . S
C1467 C211 2.600 . S
C1482 C379 2.718 . S
C1517 C250 2.544 . S
C1532 C463 2.660 . S
C1582 C543 2.661 . S
C1567 C274 2.423 . S
C1632 C627 2.700 . S
C1617 C172 2.452 . S
C1667 C55 2.596 . S
C1682 C368 2.717 . S
C1732 C452 2.660 . S
C1717 C94 2.541 . S
C1782 C554 2.662 . S
C1767 C118 2.417 . S
C1817 C16 2.449 . S
C1832 C638 2.699 . S
