# Generated by pormake.
# Topology scu, (8,4)-cn, num edge types: 1
# Building blocks:
#     Node 0, Type 0, BuildingBlock: VETTIZ_charged_sbu_0, # of connection points: 8
#     Node 1, Type 1, BuildingBlock: IZENUY_clean_linker_0, # of connection points: 4
#     Node 2, Type 1, BuildingBlock: IZENUY_clean_linker_0, # of connection points: 4
#     Edge 3, Type (0, 1), BuildingBlock: FUNLAD_clean_linker_0, # of connection points: 2
#     Edge 4, Type (0, 1), BuildingBlock: FUNLAD_clean_linker_0, # of connection points: 2
#     Edge 5, Type (0, 1), BuildingBlock: FUNLAD_clean_linker_0, # of connection points: 2
#     Edge 6, Type (0, 1), BuildingBlock: FUNLAD_clean_linker_0, # of connection points: 2
#     Edge 7, Type (0, 1), BuildingBlock: FUNLAD_clean_linker_0, # of connection points: 2
#     Edge 8, Type (0, 1), BuildingBlock: FUNLAD_clean_linker_0, # of connection points: 2
#     Edge 9, Type (0, 1), BuildingBlock: FUNLAD_clean_linker_0, # of connection points: 2
#     Edge 10, Type (0, 1), BuildingBlock: FUNLAD_clean_linker_0, # of connection points: 2
# Relax obj value: 0.029
# Max RMSD: 0.128
# Mean RMSD: 0.109
data_MOF--net-scu--node1-VETTIZ_charged_sbu_0--node2-IZENUY_clean_linker_0--edge1-FUNLAD_clean_linker_0
_symmetry_space_group_name_H-M    P1
_symmetry_Int_Tables_number       1
_symmetry_cell_setting            triclinic
loop_
_symmetry_equiv_pos_as_xyz
'x, y, z'
_cell_length_a     33.241876
_cell_length_b     33.195808
_cell_length_c     20.827683
_cell_angle_alpha  90.273126
_cell_angle_beta   87.320229
_cell_angle_gamma 91.256656
loop_
_atom_site_label
_atom_site_type_symbol
_atom_site_fract_x
_atom_site_fract_y
_atom_site_fract_z
_atom_type_partial_charge
Fe0 Fe 0.03049 0.0401 0.14357 0.0
O1 O 0.03112 0.03815 0.04949 0.0
Fe2 Fe 0.04784 0.98502 1.00152 0.0
Fe3 Fe 0.98286 0.05007 1.00003 0.0
O4 O 0.03378 0.03548 0.04953 0.0
O5 O 0.99885 0.99629 0.95306 0.0
O6 O 0.99624 0.99925 0.95279 0.0
Fe7 Fe 0.99908 0.99582 0.85855 0.0
C8 C 0.94012 0.02562 0.12256 0.0
O9 O 0.02719 0.10118 0.12662 0.0
O10 O 0.97583 0.10288 0.0558 0.0
O11 O 0.06133 0.99601 0.84587 0.0
O12 O 0.08403 0.01855 0.93836 0.0
O13 O 0.09821 0.98081 0.05839 0.0
O14 O 0.09219 0.0336 0.13111 0.0
O15 O 0.01854 0.08414 0.93719 0.0
O16 O 0.99983 0.05771 0.84475 0.0
C17 C 0.11233 1.00523 0.10162 0.0
O18 O 1.0037 0.93466 0.87383 0.0
O19 O 0.05537 0.93271 0.94427 0.0
O20 O 0.96814 0.04098 0.15525 0.0
O21 O 0.94553 0.01774 0.06308 0.0
C22 C 0.99968 0.11983 0.09658 0.0
C23 C 1.01341 0.08717 0.8774 0.0
C24 C 0.91776 0.03008 0.90105 0.0
O25 O 0.93302 0.05532 0.94206 0.0
O26 O 0.93738 1.00103 0.87249 0.0
C27 C 0.08934 1.01122 0.8787 0.0
O28 O 1.01392 0.94943 0.06538 0.0
O29 O 0.02834 0.97877 0.1584 0.0
C30 C 0.03156 0.91599 0.90309 0.0
C31 C 0.01667 0.94834 0.12613 0.0
H32 H 1.00251 0.46621 0.40826 0.0
H33 H 1.00769 0.44771 0.61278 0.0
H34 H 0.98244 0.34797 0.48765 0.0
H35 H 0.02618 0.56838 0.59067 0.0
H36 H 0.01527 0.58365 0.38679 0.0
H37 H 0.03805 0.68635 0.50732 0.0
N38 N 1.01282 0.5041 0.52271 0.0
N39 N 1.01331 0.52897 0.47786 0.0
C40 C 1.00011 0.44655 0.44969 0.0
C41 C 0.99137 0.40536 0.44078 0.0
C42 C 1.00544 0.46222 0.51202 0.0
C43 C 1.00313 0.43596 0.56497 0.0
C44 C 0.99418 0.39478 0.55635 0.0
C45 C 0.98816 0.37999 0.4944 0.0
C46 C 0.02667 0.5876 0.54875 0.0
C47 C 0.03387 0.62926 0.55581 0.0
C48 C 0.02029 0.57098 0.4874 0.0
C49 C 0.02041 0.59648 0.43372 0.0
C50 C 0.02736 0.63816 0.44025 0.0
C51 C 0.03414 0.65405 0.50143 0.0
H52 H 0.57401 0.02274 0.41522 0.0
H53 H 0.56796 0.02582 0.62267 0.0
H54 H 0.68113 0.04591 0.518 0.0
H55 H 0.45355 1.012 0.58158 0.0
H56 H 0.45802 0.99399 0.37568 0.0
H57 H 0.34641 0.97767 0.48638 0.0
N58 N 0.52338 0.01634 0.52254 0.0
N59 N 0.50349 1.01145 0.47362 0.0
C60 C 0.58846 0.02677 0.46043 0.0
C61 C 0.6301 0.03518 0.46021 0.0
C62 C 0.56573 0.02395 0.51943 0.0
C63 C 0.5853 0.02856 0.57746 0.0
C64 C 0.6269 0.03688 0.57742 0.0
C65 C 0.64882 0.04042 0.51857 0.0
C66 C 0.43888 1.00443 0.53763 0.0
C67 C 0.3975 0.99484 0.54041 0.0
C68 C 0.46114 1.00365 0.478 0.0
C69 C 0.44118 0.99429 0.4215 0.0
C70 C 0.39986 0.98426 0.42441 0.0
C71 C 0.37851 0.98462 0.48397 0.0
C72 C 0.02447 0.18469 0.14366 0.0
C73 C 0.99387 0.16282 0.11361 0.0
C74 C 0.01782 0.22353 0.16719 0.0
C75 C 0.98029 0.24163 0.16122 0.0
C76 C 0.9502 0.22041 0.12893 0.0
C77 C 0.957 0.18154 0.10481 0.0
C78 C 0.97009 0.27975 0.19571 0.0
C79 C 0.99814 0.30688 0.21416 0.0
C80 C 0.99066 0.33819 0.26462 0.0
C81 C 0.02045 0.36817 0.2737 0.0
C82 C 0.01901 0.39265 0.32868 0.0
C83 C 0.98788 0.3873 0.37593 0.0
H84 H 0.93444 0.31229 0.30568 0.0
C85 C 0.95649 0.35952 0.36463 0.0
C86 C 0.95782 0.33518 0.30974 0.0
H87 H 0.93203 0.35495 0.40026 0.0
H88 H 0.05333 0.17131 0.15096 0.0
H89 H 0.04153 0.23815 0.19315 0.0
H90 H 0.92088 0.23341 0.12418 0.0
H91 H 0.93274 0.16551 0.08203 0.0
H92 H 0.93858 0.28409 0.20934 0.0
H93 H 0.02894 0.30439 0.195 0.0
H94 H 0.04616 0.37115 0.24 0.0
H95 H 0.04374 0.41365 0.33639 0.0
C96 C 0.88985 0.03763 0.21386 0.0
C97 C 0.89908 0.02041 0.15327 0.0
C98 C 0.85069 0.03524 0.24125 0.0
C99 C 0.81969 0.01542 0.20887 0.0
C100 C 0.82909 0.997 0.14939 0.0
C101 C 0.86826 0.99982 0.12149 0.0
C102 C 0.77783 1.01255 0.2376 0.0
C103 C 0.76178 0.04253 0.27373 0.0
C104 C 0.72221 0.04029 0.31063 0.0
C105 C 0.70782 0.0758 0.33973 0.0
C106 C 0.67511 0.07456 0.38429 0.0
C107 C 0.65574 0.03781 0.40039 0.0
H108 H 0.71119 0.97554 0.30325 0.0
C109 C 0.66802 1.00259 0.36828 0.0
C110 C 0.70105 1.00372 0.32377 0.0
H111 H 0.65402 0.97378 0.38112 0.0
H112 H 0.91276 0.05358 0.23992 0.0
H113 H 0.84488 0.04862 0.28818 0.0
H114 H 0.80592 0.98106 0.12386 0.0
H115 H 0.87431 0.98604 0.07489 0.0
H116 H 0.76009 0.98564 0.22755 0.0
H117 H 0.77919 0.07044 0.278 0.0
H118 H 0.72334 0.1044 0.33071 0.0
H119 H 0.66652 0.10199 0.40928 0.0
C120 C 1.01082 0.87239 0.12784 0.0
C121 C 1.01017 0.90956 0.1607 0.0
C122 C 1.01093 0.83603 0.16205 0.0
C123 C 1.01016 0.83632 0.22975 0.0
C124 C 1.00747 0.87338 0.26214 0.0
C125 C 1.00735 0.90946 0.22823 0.0
C126 C 0.01581 0.79965 0.26885 0.0
C127 C 1.00985 0.76133 0.24912 0.0
C128 C 0.01732 0.727 0.29234 0.0
C129 C 0.99087 0.69341 0.29506 0.0
C130 C 0.99511 0.66324 0.34109 0.0
C131 C 0.0262 0.66604 0.38462 0.0
H132 H 0.07185 0.75293 0.33027 0.0
C133 C 0.05437 0.69815 0.37834 0.0
C134 C 0.05 0.72824 0.33284 0.0
H135 H 0.07929 0.70061 0.40995 0.0
H136 H 1.01321 0.87141 0.07581 0.0
H137 H 1.01354 0.80813 0.13528 0.0
H138 H 1.00668 0.87458 0.3142 0.0
H139 H 1.00643 0.93742 0.25522 0.0
H140 H 0.02486 0.80475 0.3178 0.0
H141 H 0.99715 0.75503 0.20297 0.0
H142 H 0.96578 0.69149 0.26373 0.0
H143 H 0.97293 0.63887 0.34467 0.0
C144 C 0.16254 1.00573 0.18645 0.0
C145 C 0.15378 0.99929 0.12187 0.0
C146 C 0.20133 1.00027 0.207 0.0
C147 C 0.2325 0.98881 0.16327 0.0
C148 C 0.22415 0.98318 0.09832 0.0
C149 C 0.18485 0.9877 0.07789 0.0
C150 C 0.2738 0.98405 0.18582 0.0
C151 C 0.27963 0.9642 0.24068 0.0
C152 C 0.31769 0.96492 0.27533 0.0
C153 C 0.32246 0.93532 0.32203 0.0
C154 C 0.35208 0.93981 0.36691 0.0
C155 C 0.37742 0.97421 0.3664 0.0
H156 H 0.34238 0.0213 0.23622 0.0
C157 C 0.37521 1.00215 0.31632 0.0
C158 C 0.34547 0.9976 0.27101 0.0
H159 H 0.3942 0.0291 0.31531 0.0
H160 H 0.13922 1.01462 0.22143 0.0
H161 H 0.20709 1.00561 0.25713 0.0
H162 H 0.24785 0.97473 0.06371 0.0
H163 H 0.1789 0.9829 0.02769 0.0
H164 H 0.299 0.99766 0.15815 0.0
H165 H 0.2541 0.94801 0.26379 0.0
H166 H 0.30157 0.90985 0.32643 0.0
H167 H 0.35334 0.91773 0.40489 0.0
C168 C 1.0063 0.85117 0.8566 0.0
C169 C 0.03759 0.87324 0.8846 0.0
C170 C 1.01281 0.81274 0.83123 0.0
C171 C 0.05091 0.79524 0.83316 0.0
C172 C 0.0818 0.81664 0.86336 0.0
C173 C 0.07513 0.8551 0.88942 0.0
C174 C 0.06049 0.75758 0.79678 0.0
C175 C 0.03221 0.73001 0.78058 0.0
C176 C 0.03857 0.69865 0.72976 0.0
C177 C 1.00935 0.66768 0.72401 0.0
C178 C 1.0096 0.64263 0.66965 0.0
C179 C 0.03889 0.6484 0.61962 0.0
H180 H 0.0924 0.72598 0.68305 0.0
C181 C 0.06973 0.67741 0.62731 0.0
C182 C 0.06962 0.7023 0.68161 0.0
H183 H 0.09276 0.68239 0.58945 0.0
H184 H 0.97692 0.86413 0.85235 0.0
H185 H 0.98841 0.79799 0.80704 0.0
H186 H 0.11155 0.8041 0.86501 0.0
H187 H 0.09992 0.87133 0.91043 0.0
H188 H 0.09162 0.75383 0.7802 0.0
H189 H 1.00202 0.73188 0.80249 0.0
H190 H 0.98498 0.66421 0.76008 0.0
H191 H 0.98529 0.62072 0.66475 0.0
C192 C 0.13959 0.99932 0.7875 0.0
C193 C 0.13027 0.01681 0.84784 0.0
C194 C 0.17872 1.00185 0.76007 0.0
C195 C 0.20955 0.02215 0.79209 0.0
C196 C 0.20007 0.0409 0.85126 0.0
C197 C 0.16093 0.03787 0.87929 0.0
C198 C 0.25135 0.02484 0.76323 0.0
C199 C 0.26769 0.99388 0.7298 0.0
C200 C 0.30706 0.99546 0.69244 0.0
C201 C 0.32284 0.95898 0.66918 0.0
C202 C 0.35514 0.9588 0.62387 0.0
C203 C 0.3726 0.99512 0.60107 0.0
H204 H 0.31495 0.06069 0.6886 0.0
C205 C 0.35896 0.03163 0.62737 0.0
C206 C 0.32639 0.03189 0.67273 0.0
H207 H 0.37147 0.06002 0.60931 0.0
H208 H 0.11682 0.98295 0.76175 0.0
H209 H 0.18468 0.98812 0.71343 0.0
H210 H 0.22315 0.05717 0.8765 0.0
H211 H 0.15479 0.05183 0.92574 0.0
H212 H 0.26879 0.05231 0.77083 0.0
H213 H 0.25065 0.96557 0.72826 0.0
H214 H 0.30868 0.93047 0.68332 0.0
H215 H 0.3648 0.93032 0.60345 0.0
C216 C 1.00642 0.13338 0.78384 0.0
C217 C 0.019 0.12729 0.84653 0.0
C218 C 1.00784 0.17185 0.7568 0.0
C219 C 0.02192 0.20527 0.79172 0.0
C220 C 0.03626 0.19901 0.85312 0.0
C221 C 0.03449 0.1605 0.88055 0.0
C222 C 0.02229 0.24667 0.76441 0.0
C223 C 0.99329 0.25873 0.72608 0.0
C224 C 0.99276 0.29824 0.69233 0.0
C225 C 0.95802 0.30749 0.65992 0.0
C226 C 0.95761 0.34077 0.61936 0.0
C227 C 0.9919 0.36587 0.61042 0.0
H228 H 0.05398 0.31883 0.7098 0.0
C229 C 0.02587 0.35847 0.64583 0.0
C230 C 0.02644 0.32482 0.68632 0.0
H231 H 0.05285 0.37714 0.63897 0.0
H232 H 0.9946 0.10856 0.75596 0.0
H233 H 0.9979 0.1753 0.7084 0.0
H234 H 0.0478 0.22413 0.88066 0.0
H235 H 0.04464 0.15693 0.92883 0.0
H236 H 0.046 0.26751 0.77808 0.0
H237 H 0.9682 0.23803 0.71806 0.0
H238 H 0.93156 0.28782 0.66364 0.0
H239 H 0.93108 0.34583 0.59242 0.0
C240 C 0.8552 1.00492 0.85007 0.0
C241 C 0.87569 0.03577 0.8826 0.0
C242 C 0.81709 1.01117 0.827 0.0
C243 C 0.79835 0.04852 0.83595 0.0
C244 C 0.81829 0.079 0.87002 0.0
C245 C 0.8564 0.07262 0.89364 0.0
C246 C 0.76063 0.05793 0.80379 0.0
C247 C 0.73382 0.02941 0.78591 0.0
C248 C 0.70168 0.03653 0.74002 0.0
C249 C 0.70427 0.06868 0.69603 0.0
C250 C 0.67803 0.07018 0.6457 0.0
C251 C 0.6487 0.03964 0.63792 0.0
H252 H 0.66809 0.98215 0.76732 0.0
C253 C 0.64431 1.00899 0.68409 0.0
C254 C 0.67071 1.00736 0.73442 0.0
H255 H 0.62219 0.98488 0.67899 0.0
H256 H 0.86903 0.97609 0.84086 0.0
H257 H 0.80343 0.98723 0.79951 0.0
H258 H 0.80478 0.1082 0.87703 0.0
H259 H 0.87133 0.0971 0.91833 0.0
H260 H 0.75588 0.0893 0.79246 0.0
H261 H 0.73663 0.99877 0.80289 0.0
H262 H 0.72799 0.09143 0.69746 0.0
H263 H 0.68192 0.09429 0.61092 0.0
loop_
_geom_bond_atom_site_label_1
_geom_bond_atom_site_label_2
_geom_bond_distance
_geom_bond_site_symmetry_2
_ccdc_geom_bond_type
Fe0 O1 1.886 . S
Fe0 O4 1.715 1_645 S
Fe0 O9 2.077 1_655 S
Fe0 O14 1.935 1_655 S
Fe0 O20 2.077 1_545 S
Fe0 O29 1.935 1_545 S
O1 Fe0 1.886 . S
O1 Fe3 1.716 1_554 S
Fe2 O4 1.888 . S
Fe2 O5 1.712 1_554 S
Fe2 O12 1.933 1_554 S
Fe2 O13 2.080 . S
Fe2 O19 1.933 1_554 S
Fe2 O28 2.080 . S
Fe3 O1 1.716 1_556 S
Fe3 O6 1.885 . S
Fe3 O10 1.935 1_556 S
Fe3 O15 2.077 . S
Fe3 O21 1.935 1_556 S
Fe3 O25 2.077 . S
O4 Fe0 1.715 1_465 S
O4 Fe2 1.888 . S
O5 Fe2 1.712 1_556 S
O5 Fe7 1.886 . S
O6 Fe3 1.885 . S
O6 Fe7 1.715 1_645 S
Fe7 O5 1.886 . S
Fe7 O6 1.715 1_465 S
Fe7 O11 2.077 1_565 S
Fe7 O16 1.935 1_565 S
Fe7 O18 2.077 1_455 S
Fe7 O26 1.935 1_455 S
C8 O20 1.376 1_545 S
C8 O21 1.421 . S
O9 Fe0 2.077 1_455 S
O9 C22 1.374 1_455 S
O10 Fe3 1.935 1_554 S
O10 C22 1.421 . S
O11 Fe7 2.077 1_545 S
O11 C27 1.374 1_545 S
O12 Fe2 1.933 1_556 S
O12 C27 1.421 . S
O13 Fe2 2.080 . S
O13 C17 1.381 . S
O14 Fe0 1.935 1_455 S
O14 C17 1.421 1_545 S
O15 Fe3 2.077 . S
O15 C23 1.381 . S
O16 Fe7 1.935 1_545 S
O16 C23 1.421 1_455 S
C17 O13 1.381 . S
C17 O14 1.421 1_565 S
O18 Fe7 2.077 1_655 S
O18 C30 1.376 1_655 S
O19 Fe2 1.933 1_556 S
O19 C30 1.421 . S
O20 Fe0 2.077 1_565 S
O20 C8 1.376 1_565 S
O21 Fe3 1.935 1_554 S
O21 C8 1.421 . S
C22 O9 1.374 1_655 S
C22 O10 1.421 . S
C23 O15 1.381 . S
C23 O16 1.421 1_655 S
C24 O25 1.381 . S
C24 O26 1.421 1_545 S
O25 Fe3 2.077 . S
O25 C24 1.381 . S
O26 Fe7 1.935 1_655 S
O26 C24 1.421 1_565 S
C27 O11 1.374 1_565 S
C27 O12 1.421 . S
O28 Fe2 2.080 . S
O28 C31 1.381 . S
O29 Fe0 1.935 1_565 S
O29 C31 1.421 1_655 S
C30 O18 1.376 1_455 S
C30 O19 1.421 . S
C31 O28 1.381 . S
C31 O29 1.421 1_455 S
H32 C40 0.940 . S
H33 C43 0.940 . S
H34 C45 0.940 . S
H35 C46 0.940 . S
H36 C49 0.940 . S
H37 C51 0.940 . S
N38 N39 1.190 . S
N38 C42 1.477 . S
N39 N38 1.190 . S
N39 C48 1.477 . S
C40 H32 0.940 . S
C40 C41 1.390 1_455 S
C40 C42 1.322 . S
C41 C40 1.390 1_655 S
C41 C45 1.370 . S
C42 N38 1.477 . S
C42 C40 1.322 . S
C42 C43 1.447 . S
C43 H33 0.940 . S
C43 C42 1.447 . S
C43 C44 1.373 . S
C44 C43 1.373 . S
C44 C45 1.417 1_455 S
C45 H34 0.940 . S
C45 C41 1.370 . S
C45 C44 1.417 1_655 S
C46 H35 0.940 . S
C46 C47 1.390 1_455 S
C46 C48 1.322 . S
C47 C46 1.390 1_655 S
C47 C51 1.370 . S
C48 N39 1.477 . S
C48 C46 1.322 . S
C48 C49 1.447 . S
C49 H36 0.940 . S
C49 C48 1.447 . S
C49 C50 1.373 . S
C50 C49 1.373 . S
C50 C51 1.417 1_455 S
C51 H37 0.940 . S
C51 C47 1.370 . S
C51 C50 1.417 1_655 S
H52 C60 0.940 . S
H53 C63 0.940 . S
H54 C65 0.940 . S
H55 C66 0.940 . S
H56 C69 0.940 . S
H57 C71 0.940 . S
N58 N59 1.190 . S
N58 C62 1.477 . S
N59 N58 1.190 . S
N59 C68 1.477 . S
C60 H52 0.940 . S
C60 C61 1.390 1_545 S
C60 C62 1.322 . S
C61 C60 1.390 1_565 S
C61 C65 1.370 . S
C62 N58 1.477 . S
C62 C60 1.322 . S
C62 C63 1.447 . S
C63 H53 0.940 . S
C63 C62 1.447 . S
C63 C64 1.373 . S
C64 C63 1.373 . S
C64 C65 1.417 1_545 S
C65 H54 0.940 . S
C65 C61 1.370 . S
C65 C64 1.417 1_565 S
C66 H55 0.940 . S
C66 C67 1.390 1_545 S
C66 C68 1.322 . S
C67 C66 1.390 1_565 S
C67 C71 1.370 . S
C68 N59 1.477 . S
C68 C66 1.322 . S
C68 C69 1.447 . S
C69 H56 0.940 . S
C69 C68 1.447 . S
C69 C70 1.373 . S
C70 C69 1.373 . S
C70 C71 1.417 1_545 S
C71 H57 0.940 . S
C71 C67 1.370 . S
C71 C70 1.417 1_565 S
C72 C73 1.386 1_455 S
C72 C74 1.383 . S
C72 H88 0.951 . S
C73 C72 1.386 1_655 S
C73 C77 1.383 . S
C74 C72 1.383 . S
C74 C75 1.402 1_455 S
C74 H89 0.951 . S
C75 C74 1.402 1_655 S
C75 C76 1.375 . S
C75 C78 1.481 . S
C76 C75 1.375 . S
C76 C77 1.367 . S
C76 H90 0.951 . S
C77 C73 1.383 . S
C77 C76 1.367 . S
C77 H91 0.950 . S
C78 C75 1.481 . S
C78 C79 1.297 . S
C78 H92 0.950 . S
C79 C78 1.297 . S
C79 C80 1.479 . S
C79 H93 0.950 1_655 S
C80 C79 1.479 . S
C80 C81 1.375 1_655 S
C80 C86 1.404 . S
C81 C80 1.375 1_455 S
C81 C82 1.369 . S
C81 H94 0.950 . S
C82 C81 1.369 . S
C82 C83 1.392 1_455 S
C82 H95 0.951 . S
C83 C82 1.392 1_655 S
C83 C85 1.384 . S
H84 C86 0.949 . S
C85 C83 1.384 . S
C85 C86 1.385 . S
C85 H87 0.950 . S
C86 C80 1.404 . S
C86 H84 0.949 . S
C86 C85 1.385 . S
H87 C85 0.950 . S
H88 C72 0.951 . S
H89 C74 0.951 . S
H90 C76 0.951 . S
H91 C77 0.950 . S
H92 C78 0.950 . S
H93 C79 0.950 1_455 S
H94 C81 0.950 . S
H95 C82 0.951 . S
C96 C97 1.377 1_545 S
C96 C98 1.383 . S
C96 H112 0.951 . S
C97 C96 1.377 1_565 S
C97 C101 1.392 . S
C98 C96 1.383 . S
C98 C99 1.402 1_545 S
C98 H113 0.951 . S
C99 C98 1.402 1_565 S
C99 C100 1.375 . S
C99 C102 1.481 . S
C100 C99 1.375 . S
C100 C101 1.367 . S
C100 H114 0.951 . S
C101 C97 1.392 . S
C101 C100 1.367 . S
C101 H115 0.950 . S
C102 C99 1.481 . S
C102 C103 1.297 1_565 S
C102 H116 0.950 . S
C103 C102 1.297 1_545 S
C103 C104 1.479 . S
C103 H117 0.950 . S
C104 C103 1.479 . S
C104 C105 1.375 . S
C104 C110 1.404 1_545 S
C105 C104 1.375 . S
C105 C106 1.369 . S
C105 H118 0.950 . S
C106 C105 1.369 . S
C106 C107 1.382 1_545 S
C106 H119 0.951 . S
C107 C106 1.382 1_565 S
C107 C109 1.392 . S
H108 C110 0.949 . S
C109 C107 1.392 . S
C109 C110 1.385 . S
C109 H111 0.950 . S
C110 C104 1.404 1_565 S
C110 H108 0.949 . S
C110 C109 1.385 . S
H111 C109 0.950 . S
H112 C96 0.951 . S
H113 C98 0.951 . S
H114 C100 0.951 . S
H115 C101 0.950 . S
H116 C102 0.950 . S
H117 C103 0.950 . S
H118 C105 0.950 . S
H119 C106 0.951 . S
C120 C121 1.386 . S
C120 C122 1.383 . S
C120 H136 0.951 . S
C121 C120 1.386 . S
C121 C125 1.383 1_455 S
C122 C120 1.383 . S
C122 C123 1.402 . S
C122 H137 0.951 . S
C123 C122 1.402 . S
C123 C124 1.374 1_455 S
C123 C126 1.481 . S
C124 C123 1.374 1_655 S
C124 C125 1.367 . S
C124 H138 0.952 . S
C125 C121 1.383 1_655 S
C125 C124 1.367 . S
C125 H139 0.950 . S
C126 C123 1.481 . S
C126 C127 1.297 . S
C126 H140 0.950 . S
C127 C126 1.297 . S
C127 C128 1.479 . S
C127 H141 0.950 . S
C128 C127 1.479 . S
C128 C129 1.375 . S
C128 C134 1.404 . S
C129 C128 1.375 . S
C129 C130 1.369 . S
C129 H142 0.950 . S
C130 C129 1.369 . S
C130 C131 1.392 . S
C130 H143 0.951 . S
C131 C130 1.392 . S
C131 C133 1.384 . S
H132 C134 0.949 . S
C133 C131 1.384 . S
C133 C134 1.385 . S
C133 H135 0.950 . S
C134 C128 1.404 . S
C134 H132 0.949 . S
C134 C133 1.385 . S
H135 C133 0.950 . S
H136 C120 0.951 . S
H137 C122 0.951 . S
H138 C124 0.952 . S
H139 C125 0.950 . S
H140 C126 0.950 . S
H141 C127 0.950 . S
H142 C129 0.950 . S
H143 C130 0.951 . S
C144 C145 1.386 1_565 S
C144 C146 1.383 . S
C144 H160 0.951 . S
C145 C144 1.386 1_545 S
C145 C149 1.383 . S
C146 C144 1.383 . S
C146 C147 1.402 1_565 S
C146 H161 0.951 . S
C147 C146 1.402 1_545 S
C147 C148 1.375 . S
C147 C150 1.481 . S
C148 C147 1.375 . S
C148 C149 1.367 . S
C148 H162 0.951 . S
C149 C145 1.383 . S
C149 C148 1.367 . S
C149 H163 0.950 . S
C150 C147 1.481 . S
C150 C151 1.297 1_545 S
C150 H164 0.950 . S
C151 C150 1.297 1_565 S
C151 C152 1.479 . S
C151 H165 0.950 . S
C152 C151 1.479 . S
C152 C153 1.375 . S
C152 C158 1.404 1_565 S
C153 C152 1.375 . S
C153 C154 1.369 . S
C153 H166 0.950 . S
C154 C153 1.369 . S
C154 C155 1.399 . S
C154 H167 0.951 . S
C155 C154 1.399 . S
C155 C157 1.379 1_565 S
H156 C158 0.949 . S
C157 C155 1.379 1_545 S
C157 C158 1.385 . S
C157 H159 0.950 . S
C158 C152 1.404 1_545 S
C158 H156 0.949 . S
C158 C157 1.385 . S
H159 C157 0.950 . S
H160 C144 0.951 . S
H161 C146 0.951 . S
H162 C148 0.951 . S
H163 C149 0.950 . S
H164 C150 0.950 . S
H165 C151 0.950 . S
H166 C153 0.950 . S
H167 C154 0.951 . S
C168 C169 1.386 1_655 S
C168 C170 1.383 . S
C168 H184 0.951 . S
C169 C168 1.386 1_455 S
C169 C173 1.383 . S
C170 C168 1.383 . S
C170 C171 1.402 1_655 S
C170 H185 0.951 . S
C171 C170 1.402 1_455 S
C171 C172 1.375 . S
C171 C174 1.481 . S
C172 C171 1.375 . S
C172 C173 1.367 . S
C172 H186 0.951 . S
C173 C169 1.383 . S
C173 C172 1.367 . S
C173 H187 0.950 . S
C174 C171 1.481 . S
C174 C175 1.297 1_455 S
C174 H188 0.950 . S
C175 C174 1.297 1_655 S
C175 C176 1.479 . S
C175 H189 0.950 . S
C176 C175 1.479 . S
C176 C177 1.375 . S
C176 C182 1.404 1_655 S
C177 C176 1.375 . S
C177 C178 1.369 . S
C177 H190 0.950 . S
C178 C177 1.369 . S
C178 C179 1.392 . S
C178 H191 0.951 . S
C179 C178 1.392 . S
C179 C181 1.384 1_655 S
H180 C182 0.949 . S
C181 C179 1.384 1_455 S
C181 C182 1.385 . S
C181 H183 0.950 . S
C182 C176 1.404 1_455 S
C182 H180 0.949 . S
C182 C181 1.385 . S
H183 C181 0.950 . S
H184 C168 0.951 . S
H185 C170 0.951 . S
H186 C172 0.951 . S
H187 C173 0.950 . S
H188 C174 0.950 . S
H189 C175 0.950 . S
H190 C177 0.950 . S
H191 C178 0.951 . S
C192 C193 1.386 1_565 S
C192 C194 1.383 . S
C192 H208 0.951 . S
C193 C192 1.386 1_545 S
C193 C197 1.383 . S
C194 C192 1.383 . S
C194 C195 1.402 1_565 S
C194 H209 0.951 . S
C195 C194 1.402 1_545 S
C195 C196 1.375 . S
C195 C198 1.481 . S
C196 C195 1.375 . S
C196 C197 1.367 . S
C196 H210 0.951 . S
C197 C193 1.383 . S
C197 C196 1.367 . S
C197 H211 0.950 . S
C198 C195 1.481 . S
C198 C199 1.289 1_545 S
C198 H212 0.950 . S
C199 C198 1.289 1_565 S
C199 C200 1.479 1_565 S
C199 H213 0.960 . S
C200 C199 1.479 1_545 S
C200 C201 1.375 1_545 S
C200 C206 1.404 . S
C201 C200 1.375 1_565 S
C201 C202 1.369 . S
C201 H214 0.950 . S
C202 C201 1.369 . S
C202 C203 1.392 . S
C202 H215 0.951 . S
C203 C202 1.392 . S
C203 C205 1.384 1_565 S
H204 C206 0.949 . S
C205 C203 1.384 1_545 S
C205 C206 1.385 . S
C205 H207 0.950 . S
C206 C200 1.404 . S
C206 H204 0.949 . S
C206 C205 1.385 . S
H207 C205 0.950 . S
H208 C192 0.951 . S
H209 C194 0.951 . S
H210 C196 0.951 . S
H211 C197 0.950 . S
H212 C198 0.950 . S
H213 C199 0.960 . S
H214 C201 0.950 . S
H215 C202 0.951 . S
C216 C217 1.386 . S
C216 C218 1.383 . S
C216 H232 0.951 . S
C217 C216 1.386 . S
C217 C221 1.383 1_655 S
C218 C216 1.383 . S
C218 C219 1.402 . S
C218 H233 0.951 . S
C219 C218 1.402 . S
C219 C220 1.375 1_655 S
C219 C222 1.481 . S
C220 C219 1.375 1_455 S
C220 C221 1.367 . S
C220 H234 0.951 . S
C221 C217 1.383 1_455 S
C221 C220 1.367 . S
C221 H235 0.950 . S
C222 C219 1.481 . S
C222 C223 1.297 . S
C222 H236 0.950 1_655 S
C223 C222 1.297 . S
C223 C224 1.479 . S
C223 H237 0.950 . S
C224 C223 1.479 . S
C224 C225 1.375 . S
C224 C230 1.404 . S
C225 C224 1.375 . S
C225 C226 1.369 . S
C225 H238 0.950 . S
C226 C225 1.369 . S
C226 C227 1.392 . S
C226 H239 0.951 . S
C227 C226 1.392 . S
C227 C229 1.384 1_655 S
H228 C230 0.947 1_455 S
C229 C227 1.384 1_455 S
C229 C230 1.385 1_455 S
C229 H231 0.950 . S
C230 C224 1.404 . S
C230 H228 0.947 1_655 S
C230 C229 1.385 1_655 S
H231 C229 0.950 . S
H232 C216 0.951 . S
H233 C218 0.951 . S
H234 C220 0.951 . S
H235 C221 0.950 . S
H236 C222 0.950 1_455 S
H237 C223 0.950 . S
H238 C225 0.950 . S
H239 C226 0.951 . S
C240 C241 1.386 . S
C240 C242 1.383 . S
C240 H256 0.951 . S
C241 C240 1.386 . S
C241 C245 1.383 . S
C242 C240 1.383 . S
C242 C243 1.402 . S
C242 H257 0.951 . S
C243 C242 1.402 . S
C243 C244 1.375 . S
C243 C246 1.481 . S
C244 C243 1.375 . S
C244 C245 1.367 . S
C244 H258 0.951 . S
C245 C241 1.383 . S
C245 C244 1.367 . S
C245 H259 0.950 . S
C246 C243 1.481 . S
C246 C247 1.297 . S
C246 H260 0.950 . S
C247 C246 1.297 . S
C247 C248 1.479 . S
C247 H261 0.950 . S
C248 C247 1.479 . S
C248 C249 1.375 . S
C248 C254 1.404 . S
C249 C248 1.375 . S
C249 C250 1.369 . S
C249 H262 0.950 . S
C250 C249 1.369 . S
C250 C251 1.392 . S
C250 H263 0.951 1_565 S
C251 C250 1.392 . S
C251 C253 1.384 . S
H252 C254 0.949 . S
C253 C251 1.384 . S
C253 C254 1.385 . S
C253 H255 0.950 . S
C254 C248 1.404 . S
C254 H252 0.949 . S
C254 C253 1.385 . S
H255 C253 0.950 . S
H256 C240 0.951 . S
H257 C242 0.951 . S
H258 C244 0.951 . S
H259 C245 0.950 . S
H260 C246 0.950 . S
H261 C247 0.950 . S
H262 C249 0.950 . S
H263 C250 0.951 1_545 S
C73 C22 1.558 . S
C83 C41 1.592 . S
C97 C8 1.596 1_565 S
C107 C61 1.578 . S
C121 C31 1.527 . S
C131 C50 1.555 . S
C145 C17 1.569 1_545 S
C155 C70 1.571 1_565 S
C169 C30 1.568 . S
C179 C47 1.500 . S
C193 C27 1.605 1_545 S
C203 C67 1.489 . S
C227 C44 1.563 1_655 S
C217 C23 1.559 . S
C241 C24 1.575 1_565 S
C251 C64 1.553 1_565 S
