# Generated by pormake.
# Topology rtl, (3,6)-cn, num edge types: 1
# Building blocks:
#     Node 0, Type 0, BuildingBlock: ESEHIV_clean_linker_0, # of connection points: 3
#     Node 1, Type 0, BuildingBlock: ESEHIV_clean_linker_0, # of connection points: 3
#     Node 2, Type 0, BuildingBlock: ESEHIV_clean_linker_0, # of connection points: 3
#     Node 3, Type 0, BuildingBlock: ESEHIV_clean_linker_0, # of connection points: 3
#     Node 4, Type 1, BuildingBlock: VOLQOD_clean_sbu_1, # of connection points: 6
#     Node 5, Type 1, BuildingBlock: VOLQOD_clean_sbu_1, # of connection points: 6
#     Edge 6, Type (0, 1), BuildingBlock: FUNLAD_clean_linker_0, # of connection points: 2
#     Edge 7, Type (0, 1), BuildingBlock: FUNLAD_clean_linker_0, # of connection points: 2
#     Edge 8, Type (0, 1), BuildingBlock: FUNLAD_clean_linker_0, # of connection points: 2
#     Edge 9, Type (0, 1), BuildingBlock: FUNLAD_clean_linker_0, # of connection points: 2
#     Edge 10, Type (0, 1), BuildingBlock: FUNLAD_clean_linker_0, # of connection points: 2
#     Edge 11, Type (0, 1), BuildingBlock: FUNLAD_clean_linker_0, # of connection points: 2
#     Edge 12, Type (0, 1), BuildingBlock: FUNLAD_clean_linker_0, # of connection points: 2
#     Edge 13, Type (0, 1), BuildingBlock: FUNLAD_clean_linker_0, # of connection points: 2
#     Edge 14, Type (0, 1), BuildingBlock: FUNLAD_clean_linker_0, # of connection points: 2
#     Edge 15, Type (0, 1), BuildingBlock: FUNLAD_clean_linker_0, # of connection points: 2
#     Edge 16, Type (0, 1), BuildingBlock: FUNLAD_clean_linker_0, # of connection points: 2
#     Edge 17, Type (0, 1), BuildingBlock: FUNLAD_clean_linker_0, # of connection points: 2
# Relax obj value: 0.079
# Max RMSD: 0.156
# Mean RMSD: 0.088
data_MOF--net-rtl--node1-VOLQOD_clean_sbu_1--node2-ESEHIV_clean_linker_0--edge1-FUNLAD_clean_linker_0
_symmetry_space_group_name_H-M    P1
_symmetry_Int_Tables_number       1
_symmetry_cell_setting            triclinic
loop_
_symmetry_equiv_pos_as_xyz
'x, y, z'
_cell_length_a     40.61519
_cell_length_b     35.190219
_cell_length_c     26.340363
_cell_angle_alpha  90.038832
_cell_angle_beta   90.486349
_cell_angle_gamma 89.908436
loop_
_atom_site_label
_atom_site_type_symbol
_atom_site_fract_x
_atom_site_fract_y
_atom_site_fract_z
_atom_type_partial_charge
H0 H 0.06932 0.76622 0.01284 0.0
H1 H 0.13106 0.68949 0.09814 0.0
H2 H 0.13854 0.6949 0.93571 0.0
C3 C 0.08741 0.7436 0.01425 0.0
C4 C 0.10138 0.73077 0.96873 0.0
C5 C 0.09827 0.72943 0.06143 0.0
C6 C 0.12301 0.70144 0.06224 0.0
C7 C 0.1382 0.68938 0.01729 0.0
C8 C 0.12685 0.70376 0.9706 0.0
H9 H 0.57549 0.73773 0.48563 0.0
H10 H 0.65253 0.79965 0.41177 0.0
H11 H 0.64869 0.79604 0.57486 0.0
C12 C 0.59652 0.7566 0.4878 0.0
C13 C 0.60947 0.76671 0.53551 0.0
C14 C 0.61216 0.76791 0.44298 0.0
C15 C 0.64051 0.79056 0.44627 0.0
C16 C 0.65394 0.80082 0.49363 0.0
C17 C 0.63808 0.78906 0.53813 0.0
H18 H 0.93148 0.25324 0.0102 0.0
H19 H 0.86418 0.32376 0.09317 0.0
H20 H 0.86509 0.32748 0.93008 0.0
C21 C 0.913 0.27548 0.01061 0.0
C22 C 0.90003 0.28907 0.96447 0.0
C23 C 0.90058 0.2882 0.05731 0.0
C24 C 0.87468 0.31479 0.05743 0.0
C25 C 0.86123 0.32848 0.01161 0.0
C26 C 0.87483 0.31635 0.9655 0.0
H27 H 0.44689 0.24304 0.48771 0.0
H28 H 0.38037 0.17312 0.57216 0.0
H29 H 0.37453 0.17585 0.40901 0.0
C30 C 0.42773 0.22165 0.48848 0.0
C31 C 0.41315 0.20955 0.44272 0.0
C32 C 0.41563 0.20912 0.53534 0.0
C33 C 0.38949 0.18308 0.53601 0.0
C34 C 0.37414 0.17115 0.49069 0.0
C35 C 0.38656 0.18409 0.44418 0.0
O36 O 0.92379 0.00684 0.52199 0.0
Zn37 Zn 0.96403 0.0402 0.51778 0.0
O38 O 0.00434 0.00969 0.51297 0.0
Zn39 Zn 0.03276 0.021 0.57082 0.0
Zn40 Zn 0.99334 0.95557 0.51411 0.0
Zn41 Zn 0.02757 0.02199 0.45009 0.0
O42 O 0.07585 0.04176 0.54819 0.0
O43 O 0.07436 0.03961 0.46397 0.0
O44 O 0.96488 0.07388 0.57987 0.0
O45 O 0.01271 0.05993 0.61664 0.0
O46 O 0.0424 0.9744 0.61222 0.0
O47 O 0.01528 0.92826 0.57267 0.0
O48 O 0.00681 0.92995 0.4491 0.0
O49 O 0.9588 0.07422 0.45677 0.0
O50 O 0.02894 0.97645 0.40376 0.0
O51 O 0.00391 0.06364 0.41182 0.0
C52 C 0.91998 0.97093 0.52325 0.0
C53 C 0.08943 0.04697 0.50545 0.0
C54 C 0.034 0.93968 0.60856 0.0
C55 C 0.98587 0.07859 0.61553 0.0
C56 C 0.02009 0.94193 0.40853 0.0
C57 C 0.97673 0.08103 0.4184 0.0
O58 O 0.94451 0.94843 0.52092 0.0
O59 O 0.57474 0.4961 0.0012 0.0
Zn60 Zn 0.53368 0.52848 0.99632 0.0
O61 O 0.49387 0.49741 0.99133 0.0
Zn62 Zn 0.4698 0.50993 0.9287 0.0
Zn63 Zn 0.50598 0.4436 0.99107 0.0
Zn64 Zn 0.466 0.50757 0.04981 0.0
O65 O 0.42361 0.52789 0.94356 0.0
O66 O 0.42092 0.52412 0.02753 0.0
O67 O 0.53789 0.56234 0.93548 0.0
O68 O 0.49315 0.55082 0.88901 0.0
O69 O 0.46569 0.4638 0.88379 0.0
O70 O 0.49057 0.41765 0.92697 0.0
O71 O 0.48694 0.41575 0.05087 0.0
O72 O 0.53225 0.56289 0.05719 0.0
O73 O 0.46032 0.46096 0.09259 0.0
O74 O 0.48499 0.54873 0.09435 0.0
C75 C 0.57912 0.46025 6e-05 0.0
C76 C 0.4076 0.53131 0.98469 0.0
C77 C 0.47493 0.42932 0.88785 0.0
C78 C 0.52005 0.56865 0.89641 0.0
C79 C 0.46962 0.42657 0.08828 0.0
C80 C 0.51144 0.56802 0.09243 0.0
O81 O 0.55493 0.43748 0.99577 0.0
C82 C 0.31929 0.15719 0.52933 0.0
C83 C 0.34286 0.14916 0.49204 0.0
C84 C 0.28864 0.13946 0.5284 0.0
C85 C 0.28031 0.1138 0.4893 0.0
C86 C 0.30428 0.10458 0.45319 0.0
C87 C 0.33521 0.12205 0.45447 0.0
C88 C 0.24706 0.09621 0.4852 0.0
C89 C 0.22025 0.11111 0.5075 0.0
C90 C 0.18726 0.09333 0.50561 0.0
C91 C 0.16661 0.09812 0.54747 0.0
C92 C 0.13506 0.08269 0.54734 0.0
C93 C 0.1231 0.0628 0.50476 0.0
H94 H 0.19062 0.07 0.42948 0.0
C95 C 0.14354 0.05845 0.46232 0.0
C96 C 0.17551 0.07338 0.46285 0.0
H97 H 0.13492 0.04333 0.42894 0.0
H98 H 0.324 0.17813 0.55863 0.0
H99 H 0.2717 0.14627 0.55849 0.0
H100 H 0.29883 0.08438 0.42321 0.0
H101 H 0.35298 0.11463 0.42567 0.0
H102 H 0.24462 0.07046 0.46271 0.0
H103 H 0.22225 0.13692 0.5298 0.0
H104 H 0.17502 0.11366 0.58066 0.0
H105 H 0.11985 0.08684 0.58048 0.0
C106 C 0.1734 0.63634 0.98298 0.0
C107 C 0.16792 0.66472 0.01959 0.0
C108 C 0.20267 0.61529 0.98345 0.0
C109 C 0.22706 0.62236 0.02054 0.0
C110 C 0.22107 0.64981 0.05795 0.0
C111 C 0.19201 0.67093 0.05732 0.0
C112 C 0.25909 0.60204 0.02179 0.0
C113 C 0.27338 0.5869 0.98045 0.0
C114 C 0.30715 0.57054 0.98175 0.0
C115 C 0.32593 0.57066 0.93724 0.0
C116 C 0.35846 0.55755 0.93785 0.0
C117 C 0.37281 0.54392 0.98307 0.0
H118 H 0.30709 0.55336 0.06109 0.0
C119 C 0.35361 0.54257 0.02717 0.0
C120 C 0.32111 0.55545 0.02647 0.0
H121 H 0.36365 0.53155 0.06244 0.0
H122 H 0.15508 0.63042 0.95393 0.0
H123 H 0.20595 0.59349 0.95495 0.0
H124 H 0.23935 0.65573 0.0871 0.0
H125 H 0.18893 0.69296 0.08563 0.0
H126 H 0.27261 0.6027 0.05751 0.0
H127 H 0.26133 0.58942 0.94366 0.0
H128 H 0.31567 0.58173 0.90213 0.0
H129 H 0.37249 0.5587 0.90309 0.0
C130 C 0.69147 0.85024 0.53179 0.0
C131 C 0.68602 0.82091 0.49646 0.0
C132 C 0.72223 0.86798 0.53528 0.0
C133 C 0.74813 0.85668 0.50337 0.0
C134 C 0.74259 0.82731 0.4683 0.0
C135 C 0.71193 0.8097 0.46475 0.0
C136 C 0.78165 0.87334 0.50664 0.0
C137 C 0.7885 0.90762 0.52691 0.0
C138 C 0.82241 0.92341 0.52807 0.0
C139 C 0.82682 0.96295 0.52682 0.0
C140 C 0.85847 0.97853 0.5258 0.0
C141 C 0.88638 0.95482 0.52647 0.0
H142 H 0.848 0.86922 0.53359 0.0
C143 C 0.88192 0.91528 0.5295 0.0
C144 C 0.85034 0.89976 0.53054 0.0
H145 H 0.90283 0.89616 0.53087 0.0
H146 H 0.67196 0.85943 0.55677 0.0
H147 H 0.72568 0.88981 0.56373 0.0
H148 H 0.76214 0.81773 0.44363 0.0
H149 H 0.70878 0.78665 0.43787 0.0
H150 H 0.80135 0.85716 0.48917 0.0
H151 H 0.76868 0.92573 0.5401 0.0
H152 H 0.80572 0.98182 0.52555 0.0
H153 H 0.861 0.00913 0.52385 0.0
C154 C 0.80563 0.34428 0.97601 0.0
C155 C 0.83082 0.35204 0.01142 0.0
C156 C 0.77607 0.36434 0.97709 0.0
C157 C 0.77064 0.3923 0.01425 0.0
C158 C 0.79614 0.40111 0.04858 0.0
C159 C 0.82593 0.381 0.04742 0.0
C160 C 0.73851 0.41232 0.01777 0.0
C161 C 0.71004 0.39511 0.00475 0.0
C162 C 0.67704 0.41323 0.00641 0.0
C163 C 0.64931 0.38954 0.00446 0.0
C164 C 0.61766 0.40485 0.00303 0.0
C165 C 0.61288 0.44441 0.00324 0.0
H166 H 0.69309 0.4722 0.00736 0.0
C167 C 0.64059 0.4683 0.00563 0.0
C168 C 0.6724 0.45289 0.00707 0.0
H169 H 0.63778 0.49891 0.00563 0.0
H170 H 0.80833 0.32194 0.94804 0.0
H171 H 0.75749 0.35769 0.94876 0.0
H172 H 0.79274 0.42293 0.0771 0.0
H173 H 0.84503 0.38799 0.07479 0.0
H174 H 0.73833 0.44074 0.03376 0.0
H175 H 0.71064 0.36539 0.99355 0.0
H176 H 0.65211 0.35891 0.00365 0.0
H177 H 0.59695 0.38553 0.00128 0.0
C178 C 0.0535 0.75985 0.11362 0.0
C179 C 0.08603 0.7463 0.10971 0.0
C180 C 0.04324 0.77908 0.15721 0.0
C181 C 0.06514 0.78458 0.19811 0.0
C182 C 0.09698 0.76946 0.19545 0.0
C183 C 0.1075 0.75103 0.15155 0.0
C184 C 0.05584 0.80696 0.24337 0.0
C185 C 0.03845 0.83939 0.23954 0.0
C186 C 0.03319 0.86498 0.28341 0.0
C187 C 0.03299 0.90438 0.27543 0.0
C188 C 0.02917 0.92937 0.31617 0.0
C189 C 0.02468 0.91539 0.3656 0.0
H190 H 0.02781 0.8206 0.33989 0.0
C191 C 0.02407 0.87588 0.37341 0.0
C192 C 0.02847 0.85088 0.33274 0.0
H193 H 0.02048 0.86424 0.41101 0.0
H194 H 0.03599 0.75598 0.08284 0.0
H195 H 0.01822 0.7897 0.15885 0.0
H196 H 0.11425 0.77334 0.2266 0.0
H197 H 0.1329 0.74178 0.14996 0.0
H198 H 0.06679 0.79898 0.27963 0.0
H199 H 0.03068 0.8494 0.20227 0.0
H200 H 0.03639 0.91588 0.23769 0.0
H201 H 0.0294 0.95966 0.30882 0.0
C202 C 0.61548 0.73288 0.61856 0.0
C203 C 0.59505 0.7503 0.58214 0.0
C204 C 0.60195 0.71359 0.65969 0.0
C205 C 0.56754 0.71169 0.66571 0.0
C206 C 0.5472 0.72996 0.62986 0.0
C207 C 0.56077 0.74905 0.58851 0.0
C208 C 0.55192 0.68861 0.70629 0.0
C209 C 0.56805 0.67623 0.74806 0.0
C210 C 0.55372 0.64997 0.7862 0.0
C211 C 0.57001 0.64579 0.83308 0.0
C212 C 0.55888 0.61974 0.86896 0.0
C213 C 0.53112 0.59708 0.85881 0.0
H214 H 0.51295 0.6287 0.74 0.0
C215 C 0.51453 0.60144 0.81213 0.0
C216 C 0.52578 0.6274 0.77607 0.0
H217 H 0.4932 0.58424 0.80294 0.0
H218 H 0.64197 0.73264 0.61404 0.0
H219 H 0.6187 0.69902 0.68516 0.0
H220 H 0.52065 0.72884 0.63326 0.0
H221 H 0.54443 0.76231 0.56102 0.0
H222 H 0.52607 0.68178 0.70113 0.0
H223 H 0.59301 0.68581 0.75538 0.0
H224 H 0.59171 0.66252 0.84188 0.0
H225 H 0.57225 0.61723 0.90457 0.0
C226 C 0.89076 0.26019 0.14358 0.0
C227 C 0.91285 0.271 0.10543 0.0
C228 C 0.90194 0.24095 0.18682 0.0
C229 C 0.93552 0.23168 0.19266 0.0
C230 C 0.95772 0.24394 0.15553 0.0
C231 C 0.94655 0.26328 0.11238 0.0
C232 C 0.94845 0.20873 0.23597 0.0
C233 C 0.92953 0.18643 0.26537 0.0
C234 C 0.94303 0.16107 0.30555 0.0
C235 C 0.92263 0.15057 0.3459 0.0
C236 C 0.93374 0.12514 0.383 0.0
C237 C 0.96544 0.10917 0.38017 0.0
H238 H 0.99097 0.15169 0.27148 0.0
C239 C 0.9859 0.11968 0.33975 0.0
C240 C 0.97485 0.14531 0.30282 0.0
H241 H 0.01039 0.10778 0.33623 0.0
H242 H 0.86461 0.26551 0.13938 0.0
H243 H 0.884 0.23336 0.2151 0.0
H244 H 0.98376 0.23771 0.15923 0.0
H245 H 0.96428 0.27179 0.0841 0.0
H246 H 0.9749 0.20913 0.24235 0.0
H247 H 0.90305 0.18601 0.25998 0.0
H248 H 0.89791 0.16197 0.34864 0.0
H249 H 0.91725 0.11758 0.41346 0.0
C250 C 0.40417 0.23995 0.61893 0.0
C251 C 0.42722 0.22724 0.58318 0.0
C252 C 0.41428 0.26088 0.66123 0.0
C253 C 0.44771 0.26977 0.66865 0.0
C254 C 0.47097 0.25547 0.63443 0.0
C255 C 0.46081 0.23467 0.59178 0.0
C256 C 0.45867 0.29456 0.71114 0.0
C257 C 0.44004 0.32366 0.72776 0.0
C258 C 0.45042 0.35033 0.76848 0.0
C259 C 0.43667 0.38693 0.7691 0.0
C260 C 0.44497 0.41268 0.80742 0.0
C261 C 0.46688 0.4022 0.84656 0.0
H262 H 0.48289 0.31145 0.80899 0.0
C263 C 0.48054 0.36543 0.84619 0.0
C264 C 0.47245 0.33974 0.8075 0.0
H265 H 0.4974 0.35638 0.87589 0.0
H266 H 0.37808 0.23498 0.61329 0.0
H267 H 0.3958 0.27044 0.68774 0.0
H268 H 0.49692 0.26153 0.63971 0.0
H269 H 0.47914 0.22491 0.56512 0.0
H270 H 0.48342 0.29053 0.72613 0.0
H271 H 0.41677 0.32972 0.70874 0.0
H272 H 0.41945 0.3957 0.7397 0.0
H273 H 0.43384 0.44067 0.80663 0.0
C274 C 0.56722 0.74995 0.38135 0.0
C275 C 0.60092 0.75262 0.39326 0.0
C276 C 0.55675 0.73209 0.3366 0.0
C277 C 0.57988 0.71618 0.30314 0.0
C278 C 0.61355 0.72041 0.31409 0.0
C279 C 0.62398 0.73826 0.35868 0.0
C280 C 0.57023 0.6942 0.25718 0.0
C281 C 0.54088 0.67675 0.25157 0.0
C282 C 0.53292 0.65057 0.2088 0.0
C283 C 0.50695 0.62466 0.2146 0.0
C284 C 0.49967 0.59815 0.17665 0.0
C285 C 0.51828 0.59692 0.13195 0.0
H286 H 0.57006 0.67057 0.15592 0.0
C287 C 0.54364 0.62353 0.1254 0.0
C288 C 0.55072 0.65027 0.16312 0.0
H289 H 0.55804 0.62384 0.09098 0.0
H290 H 0.54892 0.76138 0.40688 0.0
H291 H 0.53061 0.73077 0.3287 0.0
H292 H 0.63192 0.70872 0.28887 0.0
H293 H 0.65013 0.73947 0.36694 0.0
H294 H 0.58934 0.68949 0.22938 0.0
H295 H 0.52278 0.67902 0.28149 0.0
H296 H 0.4926 0.62441 0.24909 0.0
H297 H 0.47982 0.57819 0.18278 0.0
C298 C 0.94346 0.26182 0.90722 0.0
C299 C 0.91044 0.27201 0.91548 0.0
C300 C 0.95249 0.24279 0.86284 0.0
C301 C 0.92862 0.23357 0.82581 0.0
C302 C 0.89598 0.24521 0.83304 0.0
C303 C 0.8869 0.26388 0.87751 0.0
C304 C 0.93655 0.21121 0.77976 0.0
C305 C 0.96006 0.18418 0.77931 0.0
C306 C 0.96626 0.15853 0.73552 0.0
C307 C 0.9962 0.13864 0.73402 0.0
C308 C 0.00263 0.11291 0.69497 0.0
C309 C 0.97911 0.10628 0.65651 0.0
H310 H 0.9188 0.16552 0.69737 0.0
C311 C 0.9491 0.12614 0.6579 0.0
C312 C 0.94264 0.15186 0.69704 0.0
H313 H 0.93034 0.12152 0.62909 0.0
H314 H 0.96231 0.26835 0.93521 0.0
H315 H 0.97812 0.23541 0.85769 0.0
H316 H 0.87717 0.23862 0.80498 0.0
H317 H 0.86115 0.27075 0.88278 0.0
H318 H 0.92104 0.21574 0.7466 0.0
H319 H 0.97519 0.17983 0.81302 0.0
H320 H 0.01473 0.14291 0.76332 0.0
H321 H 0.02603 0.09811 0.69516 0.0
C322 C 0.39895 0.24024 0.35964 0.0
C323 C 0.42308 0.2272 0.39404 0.0
C324 C 0.40791 0.26013 0.31612 0.0
C325 C 0.44123 0.26775 0.30624 0.0
C326 C 0.46542 0.2532 0.33928 0.0
C327 C 0.45645 0.23333 0.383 0.0
C328 C 0.45127 0.29154 0.26255 0.0
C329 C 0.43241 0.32032 0.24515 0.0
C330 C 0.4426 0.34668 0.2043 0.0
C331 C 0.42879 0.38323 0.20312 0.0
C332 C 0.43762 0.40911 0.16555 0.0
C333 C 0.46019 0.39883 0.12777 0.0
H334 H 0.47541 0.30783 0.16511 0.0
C335 C 0.47362 0.36196 0.12835 0.0
C336 C 0.46495 0.33612 0.16625 0.0
H337 H 0.49094 0.35306 0.09962 0.0
H338 H 0.37301 0.23625 0.36715 0.0
H339 H 0.38863 0.26982 0.29061 0.0
H340 H 0.49128 0.25827 0.33215 0.0
H341 H 0.47558 0.22322 0.40854 0.0
H342 H 0.47581 0.28728 0.24749 0.0
H343 H 0.40938 0.32673 0.26402 0.0
H344 H 0.41131 0.39198 0.23173 0.0
H345 H 0.42662 0.43717 0.16611 0.0
C346 C 0.11479 0.75984 0.88452 0.0
C347 C 0.09109 0.748 0.91969 0.0
C348 C 0.10527 0.7786 0.84005 0.0
C349 C 0.07181 0.78609 0.82995 0.0
C350 C 0.04807 0.77282 0.86401 0.0
C351 C 0.0576 0.7542 0.90863 0.0
C352 C 0.06095 0.8083 0.78491 0.0
C353 C 0.07952 0.836 0.76461 0.0
C354 C 0.0678 0.8614 0.72328 0.0
C355 C 0.08113 0.89805 0.72004 0.0
C356 C 0.07023 0.92334 0.68273 0.0
C357 C 0.04603 0.91234 0.64722 0.0
H358 H 0.03389 0.82159 0.68761 0.0
C359 C 0.03329 0.87524 0.64952 0.0
C360 C 0.04403 0.85 0.68721 0.0
H361 H 0.01479 0.86577 0.62251 0.0
H362 H 0.14079 0.75558 0.89202 0.0
H363 H 0.12421 0.78734 0.81388 0.0
H364 H 0.02212 0.77783 0.85682 0.0
H365 H 0.03878 0.74492 0.93473 0.0
H366 H 0.0359 0.80408 0.77132 0.0
H367 H 0.10326 0.84263 0.78172 0.0
H368 H 0.09968 0.90743 0.74707 0.0
H369 H 0.0808 0.95157 0.68184 0.0
loop_
_geom_bond_atom_site_label_1
_geom_bond_atom_site_label_2
_geom_bond_distance
_geom_bond_site_symmetry_2
_ccdc_geom_bond_type
H0 C3 0.931 . S
H1 C6 0.928 . S
H2 C8 0.930 . S
C3 H0 0.931 . S
C3 C4 1.413 1_554 S
C3 C5 1.360 . S
C4 C3 1.413 1_556 S
C4 C8 1.429 . S
C5 C3 1.360 . S
C5 C6 1.372 . S
C6 H1 0.928 . S
C6 C5 1.372 . S
C6 C7 1.404 . S
C7 C6 1.404 . S
C7 C8 1.391 1_554 S
C8 H2 0.930 . S
C8 C4 1.429 . S
C8 C7 1.391 1_556 S
H9 C12 0.931 . S
H10 C15 0.928 . S
H11 C17 0.930 . S
C12 H9 0.931 . S
C12 C13 1.413 . S
C12 C14 1.360 . S
C13 C12 1.413 . S
C13 C17 1.429 . S
C14 C12 1.360 . S
C14 C15 1.372 . S
C15 H10 0.928 . S
C15 C14 1.372 . S
C15 C16 1.404 . S
C16 C15 1.404 . S
C16 C17 1.391 . S
C17 H11 0.930 . S
C17 C13 1.429 . S
C17 C16 1.391 . S
H18 C21 0.931 . S
H19 C24 0.928 . S
H20 C26 0.930 . S
C21 H18 0.931 . S
C21 C22 1.413 1_554 S
C21 C23 1.360 . S
C22 C21 1.413 1_556 S
C22 C26 1.429 . S
C23 C21 1.360 . S
C23 C24 1.372 . S
C24 H19 0.928 . S
C24 C23 1.372 . S
C24 C25 1.404 . S
C25 C24 1.404 . S
C25 C26 1.391 1_554 S
C26 H20 0.930 . S
C26 C22 1.429 . S
C26 C25 1.391 1_556 S
H27 C30 0.931 . S
H28 C33 0.928 . S
H29 C35 0.930 . S
C30 H27 0.931 . S
C30 C31 1.413 . S
C30 C32 1.360 . S
C31 C30 1.413 . S
C31 C35 1.429 . S
C32 C30 1.360 . S
C32 C33 1.372 . S
C33 H28 0.928 . S
C33 C32 1.372 . S
C33 C34 1.404 . S
C34 C33 1.404 . S
C34 C35 1.391 . S
C35 H29 0.930 . S
C35 C31 1.429 . S
C35 C34 1.391 . S
O36 Zn37 1.953 1_565 S
O36 C52 1.225 . S
Zn37 O36 1.953 1_545 S
Zn37 O38 1.949 1_655 S
Zn37 O44 1.919 . S
Zn37 O49 1.924 . S
O38 Zn37 1.949 1_455 S
O38 Zn39 1.923 . S
O38 Zn40 1.950 1_445 S
O38 Zn41 1.945 . S
Zn39 O38 1.923 . S
Zn39 O42 1.933 . S
Zn39 O45 1.941 . S
Zn39 O46 1.965 1_545 S
Zn40 O38 1.950 1_665 S
Zn40 O47 1.938 1_655 S
Zn40 O48 1.906 1_655 S
Zn40 O58 1.953 . S
Zn41 O38 1.945 . S
Zn41 O43 1.932 . S
Zn41 O50 1.977 1_545 S
Zn41 O51 1.910 1_455 S
O42 Zn39 1.933 . S
O42 C53 1.226 . S
O43 Zn41 1.932 . S
O43 C53 1.307 . S
O44 Zn37 1.919 . S
O44 C55 1.253 . S
O45 Zn39 1.941 . S
O45 C55 1.283 1_455 S
O46 Zn39 1.965 1_565 S
O46 C54 1.303 . S
O47 Zn40 1.938 1_455 S
O47 C54 1.247 . S
O48 Zn40 1.906 1_455 S
O48 C56 1.304 . S
O49 Zn37 1.924 . S
O49 C57 1.311 . S
O50 Zn41 1.977 1_565 S
O50 C56 1.272 . S
O51 Zn41 1.910 1_655 S
O51 C57 1.231 . S
C52 O36 1.225 . S
C52 O58 1.298 . S
C53 O42 1.226 . S
C53 O43 1.307 . S
C54 O46 1.303 . S
C54 O47 1.247 . S
C55 O44 1.253 . S
C55 O45 1.283 1_655 S
C56 O48 1.304 . S
C56 O50 1.272 . S
C57 O49 1.311 . S
C57 O51 1.231 . S
O58 Zn40 1.953 . S
O58 C52 1.298 . S
O59 Zn60 1.953 . S
O59 C75 1.225 1_556 S
Zn60 O59 1.953 . S
Zn60 O61 1.949 1_556 S
Zn60 O67 1.919 . S
Zn60 O72 1.924 1_556 S
O61 Zn60 1.949 1_554 S
O61 Zn62 1.923 1_554 S
O61 Zn63 1.950 . S
O61 Zn64 1.945 . S
Zn62 O61 1.923 1_556 S
Zn62 O65 1.933 . S
Zn62 O68 1.941 . S
Zn62 O69 1.965 . S
Zn63 O61 1.950 . S
Zn63 O70 1.938 1_554 S
Zn63 O71 1.906 . S
Zn63 O81 1.953 . S
Zn64 O61 1.945 . S
Zn64 O66 1.932 . S
Zn64 O73 1.977 . S
Zn64 O74 1.910 . S
O65 Zn62 1.933 . S
O65 C76 1.226 1_556 S
O66 Zn64 1.932 . S
O66 C76 1.307 . S
O67 Zn60 1.919 . S
O67 C78 1.253 . S
O68 Zn62 1.941 . S
O68 C78 1.283 . S
O69 Zn62 1.965 . S
O69 C77 1.303 . S
O70 Zn63 1.938 1_556 S
O70 C77 1.247 . S
O71 Zn63 1.906 . S
O71 C79 1.304 . S
O72 Zn60 1.924 1_554 S
O72 C80 1.311 . S
O73 Zn64 1.977 . S
O73 C79 1.272 . S
O74 Zn64 1.910 . S
O74 C80 1.231 . S
C75 O59 1.225 1_554 S
C75 O81 1.298 . S
C76 O65 1.226 1_554 S
C76 O66 1.307 . S
C77 O69 1.303 . S
C77 O70 1.247 . S
C78 O67 1.253 . S
C78 O68 1.283 . S
C79 O71 1.304 . S
C79 O73 1.272 . S
C80 O72 1.311 . S
C80 O74 1.231 . S
O81 Zn63 1.953 . S
O81 C75 1.298 . S
C82 C83 1.386 . S
C82 C84 1.383 . S
C82 H98 0.951 . S
C83 C82 1.386 . S
C83 C87 1.383 . S
C84 C82 1.383 . S
C84 C85 1.402 . S
C84 H99 0.951 . S
C85 C84 1.402 . S
C85 C86 1.375 . S
C85 C88 1.481 . S
C86 C85 1.375 . S
C86 C87 1.367 . S
C86 H100 0.951 . S
C87 C83 1.383 . S
C87 C86 1.367 . S
C87 H101 0.950 . S
C88 C85 1.481 . S
C88 C89 1.297 . S
C88 H102 0.950 . S
C89 C88 1.297 . S
C89 C90 1.479 . S
C89 H103 0.950 . S
C90 C89 1.479 . S
C90 C91 1.375 . S
C90 C96 1.404 . S
C91 C90 1.375 . S
C91 C92 1.369 . S
C91 H104 0.950 . S
C92 C91 1.369 . S
C92 C93 1.392 . S
C92 H105 0.951 . S
C93 C92 1.392 . S
C93 C95 1.384 . S
H94 C96 0.949 . S
C95 C93 1.384 . S
C95 C96 1.385 . S
C95 H97 0.950 . S
C96 C90 1.404 . S
C96 H94 0.949 . S
C96 C95 1.385 . S
H97 C95 0.950 . S
H98 C82 0.951 . S
H99 C84 0.951 . S
H100 C86 0.951 . S
H101 C87 0.950 . S
H102 C88 0.950 . S
H103 C89 0.950 . S
H104 C91 0.950 . S
H105 C92 0.951 . S
C106 C107 1.386 1_556 S
C106 C108 1.383 . S
C106 H122 0.951 . S
C107 C106 1.386 1_554 S
C107 C111 1.383 . S
C108 C106 1.383 . S
C108 C109 1.395 1_556 S
C108 H123 0.951 . S
C109 C108 1.395 1_554 S
C109 C110 1.383 . S
C109 C112 1.481 . S
C110 C109 1.383 . S
C110 C111 1.367 . S
C110 H124 0.951 . S
C111 C107 1.383 . S
C111 C110 1.367 . S
C111 H125 0.950 . S
C112 C109 1.481 . S
C112 C113 1.297 1_554 S
C112 H126 0.950 . S
C113 C112 1.297 1_556 S
C113 C114 1.479 . S
C113 H127 0.950 . S
C114 C113 1.479 . S
C114 C115 1.375 . S
C114 C120 1.404 1_556 S
C115 C114 1.375 . S
C115 C116 1.369 . S
C115 H128 0.950 . S
C116 C115 1.369 . S
C116 C117 1.392 . S
C116 H129 0.951 . S
C117 C116 1.392 . S
C117 C119 1.384 1_556 S
H118 C120 0.949 . S
C119 C117 1.384 1_554 S
C119 C120 1.385 . S
C119 H121 0.950 . S
C120 C114 1.404 1_554 S
C120 H118 0.949 . S
C120 C119 1.385 . S
H121 C119 0.950 . S
H122 C106 0.951 . S
H123 C108 0.951 . S
H124 C110 0.951 . S
H125 C111 0.950 . S
H126 C112 0.950 . S
H127 C113 0.950 . S
H128 C115 0.950 . S
H129 C116 0.951 . S
C130 C131 1.386 . S
C130 C132 1.383 . S
C130 H146 0.951 . S
C131 C130 1.386 . S
C131 C135 1.383 . S
C132 C130 1.383 . S
C132 C133 1.402 . S
C132 H147 0.951 . S
C133 C132 1.402 . S
C133 C134 1.375 . S
C133 C136 1.481 . S
C134 C133 1.375 . S
C134 C135 1.367 . S
C134 H148 0.951 . S
C135 C131 1.383 . S
C135 C134 1.367 . S
C135 H149 0.950 . S
C136 C133 1.481 . S
C136 C137 1.297 . S
C136 H150 0.950 . S
C137 C136 1.297 . S
C137 C138 1.479 . S
C137 H151 0.950 . S
C138 C137 1.479 . S
C138 C139 1.375 . S
C138 C144 1.404 . S
C139 C138 1.375 . S
C139 C140 1.369 . S
C139 H152 0.950 . S
C140 C139 1.369 . S
C140 C141 1.392 . S
C140 H153 0.951 . S
C141 C140 1.392 . S
C141 C143 1.384 . S
H142 C144 0.949 . S
C143 C141 1.384 . S
C143 C144 1.385 . S
C143 H145 0.950 . S
C144 C138 1.404 . S
C144 H142 0.949 . S
C144 C143 1.385 . S
H145 C143 0.950 . S
H146 C130 0.951 . S
H147 C132 0.951 . S
H148 C134 0.951 . S
H149 C135 0.950 . S
H150 C136 0.950 . S
H151 C137 0.950 . S
H152 C139 0.950 . S
H153 C140 0.951 . S
C154 C155 1.386 1_556 S
C154 C156 1.383 . S
C154 H170 0.951 . S
C155 C154 1.386 1_554 S
C155 C159 1.383 . S
C156 C154 1.383 . S
C156 C157 1.402 1_556 S
C156 H171 0.951 . S
C157 C156 1.402 1_554 S
C157 C158 1.375 . S
C157 C160 1.481 . S
C158 C157 1.375 . S
C158 C159 1.367 . S
C158 H172 0.951 . S
C159 C155 1.383 . S
C159 C158 1.367 . S
C159 H173 0.950 . S
C160 C157 1.481 . S
C160 C161 1.297 . S
C160 H174 0.950 . S
C161 C160 1.297 . S
C161 C162 1.479 . S
C161 H175 0.950 . S
C162 C161 1.479 . S
C162 C163 1.375 1_554 S
C162 C168 1.404 . S
C163 C162 1.375 1_556 S
C163 C164 1.369 . S
C163 H176 0.950 . S
C164 C163 1.369 . S
C164 C165 1.392 1_556 S
C164 H177 0.951 . S
C165 C164 1.392 1_554 S
C165 C167 1.384 . S
H166 C168 0.949 . S
C167 C165 1.384 . S
C167 C168 1.385 . S
C167 H169 0.950 . S
C168 C162 1.404 . S
C168 H166 0.949 . S
C168 C167 1.385 . S
H169 C167 0.950 . S
H170 C154 0.951 . S
H171 C156 0.951 . S
H172 C158 0.951 . S
H173 C159 0.950 . S
H174 C160 0.950 . S
H175 C161 0.950 . S
H176 C163 0.950 . S
H177 C164 0.951 . S
C178 C179 1.386 . S
C178 C180 1.383 . S
C178 H194 0.951 . S
C179 C178 1.386 . S
C179 C183 1.383 . S
C180 C178 1.383 . S
C180 C181 1.402 . S
C180 H195 0.951 . S
C181 C180 1.402 . S
C181 C182 1.375 . S
C181 C184 1.481 . S
C182 C181 1.375 . S
C182 C183 1.367 . S
C182 H196 0.951 . S
C183 C179 1.383 . S
C183 C182 1.367 . S
C183 H197 0.950 . S
C184 C181 1.481 . S
C184 C185 1.297 . S
C184 H198 0.950 . S
C185 C184 1.297 . S
C185 C186 1.479 . S
C185 H199 0.950 . S
C186 C185 1.479 . S
C186 C187 1.375 . S
C186 C192 1.404 . S
C187 C186 1.375 . S
C187 C188 1.369 . S
C187 H200 0.950 . S
C188 C187 1.369 . S
C188 C189 1.392 . S
C188 H201 0.951 . S
C189 C188 1.392 . S
C189 C191 1.384 . S
H190 C192 0.949 . S
C191 C189 1.384 . S
C191 C192 1.385 . S
C191 H193 0.950 . S
C192 C186 1.404 . S
C192 H190 0.949 . S
C192 C191 1.385 . S
H193 C191 0.950 . S
H194 C178 0.951 . S
H195 C180 0.951 . S
H196 C182 0.951 . S
H197 C183 0.950 . S
H198 C184 0.950 . S
H199 C185 0.950 . S
H200 C187 0.950 . S
H201 C188 0.951 . S
C202 C203 1.386 . S
C202 C204 1.383 . S
C202 H218 0.951 . S
C203 C202 1.386 . S
C203 C207 1.383 . S
C204 C202 1.383 . S
C204 C205 1.402 . S
C204 H219 0.951 . S
C205 C204 1.402 . S
C205 C206 1.375 . S
C205 C208 1.481 . S
C206 C205 1.375 . S
C206 C207 1.367 . S
C206 H220 0.951 . S
C207 C203 1.383 . S
C207 C206 1.367 . S
C207 H221 0.950 . S
C208 C205 1.481 . S
C208 C209 1.297 . S
C208 H222 0.950 . S
C209 C208 1.297 . S
C209 C210 1.479 . S
C209 H223 0.950 . S
C210 C209 1.479 . S
C210 C211 1.375 . S
C210 C216 1.404 . S
C211 C210 1.375 . S
C211 C212 1.369 . S
C211 H224 0.950 . S
C212 C211 1.369 . S
C212 C213 1.392 . S
C212 H225 0.951 . S
C213 C212 1.392 . S
C213 C215 1.384 . S
H214 C216 0.949 . S
C215 C213 1.384 . S
C215 C216 1.385 . S
C215 H217 0.950 . S
C216 C210 1.404 . S
C216 H214 0.949 . S
C216 C215 1.385 . S
H217 C215 0.950 . S
H218 C202 0.951 . S
H219 C204 0.951 . S
H220 C206 0.951 . S
H221 C207 0.950 . S
H222 C208 0.950 . S
H223 C209 0.950 . S
H224 C211 0.950 . S
H225 C212 0.951 . S
C226 C227 1.386 . S
C226 C228 1.383 . S
C226 H242 0.951 . S
C227 C226 1.386 . S
C227 C231 1.383 . S
C228 C226 1.383 . S
C228 C229 1.402 . S
C228 H243 0.951 . S
C229 C228 1.402 . S
C229 C230 1.375 . S
C229 C232 1.481 . S
C230 C229 1.375 . S
C230 C231 1.367 . S
C230 H244 0.951 . S
C231 C227 1.383 . S
C231 C230 1.367 . S
C231 H245 0.950 . S
C232 C229 1.481 . S
C232 C233 1.297 . S
C232 H246 0.950 . S
C233 C232 1.297 . S
C233 C234 1.479 . S
C233 H247 0.950 . S
C234 C233 1.479 . S
C234 C235 1.375 . S
C234 C240 1.404 . S
C235 C234 1.375 . S
C235 C236 1.369 . S
C235 H248 0.950 . S
C236 C235 1.369 . S
C236 C237 1.392 . S
C236 H249 0.951 . S
C237 C236 1.392 . S
C237 C239 1.384 . S
H238 C240 0.949 . S
C239 C237 1.384 . S
C239 C240 1.385 . S
C239 H241 0.950 . S
C240 C234 1.404 . S
C240 H238 0.949 . S
C240 C239 1.385 . S
H241 C239 0.950 . S
H242 C226 0.951 . S
H243 C228 0.951 . S
H244 C230 0.951 . S
H245 C231 0.950 . S
H246 C232 0.950 . S
H247 C233 0.950 . S
H248 C235 0.950 . S
H249 C236 0.951 . S
C250 C251 1.386 . S
C250 C252 1.383 . S
C250 H266 0.951 . S
C251 C250 1.386 . S
C251 C255 1.383 . S
C252 C250 1.383 . S
C252 C253 1.402 . S
C252 H267 0.951 . S
C253 C252 1.402 . S
C253 C254 1.375 . S
C253 C256 1.481 . S
C254 C253 1.375 . S
C254 C255 1.367 . S
C254 H268 0.951 . S
C255 C251 1.383 . S
C255 C254 1.367 . S
C255 H269 0.950 . S
C256 C253 1.481 . S
C256 C257 1.297 . S
C256 H270 0.950 . S
C257 C256 1.297 . S
C257 C258 1.479 . S
C257 H271 0.950 . S
C258 C257 1.479 . S
C258 C259 1.375 . S
C258 C264 1.404 . S
C259 C258 1.375 . S
C259 C260 1.369 . S
C259 H272 0.950 . S
C260 C259 1.369 . S
C260 C261 1.392 . S
C260 H273 0.951 . S
C261 C260 1.392 . S
C261 C263 1.384 . S
H262 C264 0.949 . S
C263 C261 1.384 . S
C263 C264 1.385 . S
C263 H265 0.950 . S
C264 C258 1.404 . S
C264 H262 0.949 . S
C264 C263 1.385 . S
H265 C263 0.950 . S
H266 C250 0.951 . S
H267 C252 0.951 . S
H268 C254 0.951 . S
H269 C255 0.950 . S
H270 C256 0.950 . S
H271 C257 0.950 . S
H272 C259 0.950 . S
H273 C260 0.951 . S
C274 C275 1.386 . S
C274 C276 1.383 . S
C274 H290 0.951 . S
C275 C274 1.386 . S
C275 C279 1.383 . S
C276 C274 1.383 . S
C276 C277 1.402 . S
C276 H291 0.951 . S
C277 C276 1.402 . S
C277 C278 1.375 . S
C277 C280 1.481 . S
C278 C277 1.375 . S
C278 C279 1.367 . S
C278 H292 0.951 . S
C279 C275 1.383 . S
C279 C278 1.367 . S
C279 H293 0.950 . S
C280 C277 1.481 . S
C280 C281 1.297 . S
C280 H294 0.950 . S
C281 C280 1.297 . S
C281 C282 1.479 . S
C281 H295 0.950 . S
C282 C281 1.479 . S
C282 C283 1.375 . S
C282 C288 1.404 . S
C283 C282 1.375 . S
C283 C284 1.369 . S
C283 H296 0.950 . S
C284 C283 1.369 . S
C284 C285 1.392 . S
C284 H297 0.951 . S
C285 C284 1.392 . S
C285 C287 1.384 . S
H286 C288 0.949 . S
C287 C285 1.384 . S
C287 C288 1.385 . S
C287 H289 0.950 . S
C288 C282 1.404 . S
C288 H286 0.949 . S
C288 C287 1.385 . S
H289 C287 0.950 . S
H290 C274 0.951 . S
H291 C276 0.951 . S
H292 C278 0.951 . S
H293 C279 0.950 . S
H294 C280 0.950 . S
H295 C281 0.950 . S
H296 C283 0.950 . S
H297 C284 0.951 . S
C298 C299 1.386 . S
C298 C300 1.383 . S
C298 H314 0.951 . S
C299 C298 1.386 . S
C299 C303 1.383 . S
C300 C298 1.383 . S
C300 C301 1.402 . S
C300 H315 0.951 . S
C301 C300 1.402 . S
C301 C302 1.375 . S
C301 C304 1.481 . S
C302 C301 1.375 . S
C302 C303 1.367 . S
C302 H316 0.951 . S
C303 C299 1.383 . S
C303 C302 1.367 . S
C303 H317 0.950 . S
C304 C301 1.481 . S
C304 C305 1.297 . S
C304 H318 0.950 . S
C305 C304 1.297 . S
C305 C306 1.479 . S
C305 H319 0.950 . S
C306 C305 1.479 . S
C306 C307 1.400 . S
C306 C312 1.404 . S
C307 C306 1.400 . S
C307 C308 1.363 1_655 S
C307 H320 0.932 1_655 S
C308 C307 1.363 1_455 S
C308 C309 1.392 1_455 S
C308 H321 0.951 . S
C309 C308 1.392 1_655 S
C309 C311 1.384 . S
H310 C312 0.949 . S
C311 C309 1.384 . S
C311 C312 1.385 . S
C311 H313 0.950 . S
C312 C306 1.404 . S
C312 H310 0.949 . S
C312 C311 1.385 . S
H313 C311 0.950 . S
H314 C298 0.951 . S
H315 C300 0.951 . S
H316 C302 0.951 . S
H317 C303 0.950 . S
H318 C304 0.950 . S
H319 C305 0.950 . S
H320 C307 0.932 1_455 S
H321 C308 0.951 . S
C322 C323 1.386 . S
C322 C324 1.383 . S
C322 H338 0.951 . S
C323 C322 1.386 . S
C323 C327 1.383 . S
C324 C322 1.383 . S
C324 C325 1.402 . S
C324 H339 0.951 . S
C325 C324 1.402 . S
C325 C326 1.375 . S
C325 C328 1.481 . S
C326 C325 1.375 . S
C326 C327 1.367 . S
C326 H340 0.951 . S
C327 C323 1.383 . S
C327 C326 1.367 . S
C327 H341 0.950 . S
C328 C325 1.481 . S
C328 C329 1.297 . S
C328 H342 0.950 . S
C329 C328 1.297 . S
C329 C330 1.479 . S
C329 H343 0.950 . S
C330 C329 1.479 . S
C330 C331 1.375 . S
C330 C336 1.404 . S
C331 C330 1.375 . S
C331 C332 1.369 . S
C331 H344 0.950 . S
C332 C331 1.369 . S
C332 C333 1.392 . S
C332 H345 0.951 . S
C333 C332 1.392 . S
C333 C335 1.384 . S
H334 C336 0.949 . S
C335 C333 1.384 . S
C335 C336 1.385 . S
C335 H337 0.950 . S
C336 C330 1.404 . S
C336 H334 0.949 . S
C336 C335 1.385 . S
H337 C335 0.950 . S
H338 C322 0.951 . S
H339 C324 0.951 . S
H340 C326 0.951 . S
H341 C327 0.950 . S
H342 C328 0.950 . S
H343 C329 0.950 . S
H344 C331 0.950 . S
H345 C332 0.951 . S
C346 C347 1.386 . S
C346 C348 1.383 . S
C346 H362 0.951 . S
C347 C346 1.386 . S
C347 C351 1.383 . S
C348 C346 1.383 . S
C348 C349 1.402 . S
C348 H363 0.951 . S
C349 C348 1.402 . S
C349 C350 1.375 . S
C349 C352 1.481 . S
C350 C349 1.375 . S
C350 C351 1.367 . S
C350 H364 0.951 . S
C351 C347 1.383 . S
C351 C350 1.367 . S
C351 H365 0.950 . S
C352 C349 1.481 . S
C352 C353 1.297 . S
C352 H366 0.950 . S
C353 C352 1.297 . S
C353 C354 1.479 . S
C353 H367 0.950 . S
C354 C353 1.479 . S
C354 C355 1.375 . S
C354 C360 1.404 . S
C355 C354 1.375 . S
C355 C356 1.369 . S
C355 H368 0.950 . S
C356 C355 1.369 . S
C356 C357 1.392 . S
C356 H369 0.951 . S
C357 C356 1.392 . S
C357 C359 1.384 . S
H358 C360 0.949 . S
C359 C357 1.384 . S
C359 C360 1.385 . S
C359 H361 0.950 1_455 S
C360 C354 1.404 . S
C360 H358 0.949 . S
C360 C359 1.385 . S
H361 C359 0.950 1_655 S
H362 C346 0.951 . S
H363 C348 0.951 . S
H364 C350 0.951 . S
H365 C351 0.950 . S
H366 C352 0.950 . S
H367 C353 0.950 . S
H368 C355 0.950 . S
H369 C356 0.951 . S
C93 C53 1.524 . S
C83 C34 1.514 . S
C107 C7 1.489 . S
C117 C76 1.519 1_556 S
C131 C16 1.509 . S
C141 C52 1.536 . S
C155 C25 1.531 . S
C165 C75 1.540 . S
C189 C56 1.438 . S
C179 C5 1.512 . S
C213 C78 1.497 . S
C203 C13 1.554 . S
C227 C23 1.512 . S
C237 C57 1.505 . S
C251 C32 1.540 . S
C261 C77 1.460 . S
C285 C80 1.460 . S
C275 C14 1.505 . S
C309 C55 1.471 . S
C299 C22 1.524 . S
C333 C79 1.455 . S
C323 C31 1.504 . S
C347 C4 1.536 . S
C357 C54 1.463 . S
