# Generated by pormake.
# Topology tsx, (6,3)-cn, num edge types: 1
# Building blocks:
#     Node 0, Type 0, BuildingBlock: VOLQOD_clean_sbu_1, # of connection points: 6
#     Node 1, Type 0, BuildingBlock: VOLQOD_clean_sbu_1, # of connection points: 6
#     Node 2, Type 1, BuildingBlock: BELTOD_clean_linker_0, # of connection points: 3
#     Node 3, Type 1, BuildingBlock: BELTOD_clean_linker_0, # of connection points: 3
#     Node 4, Type 1, BuildingBlock: BELTOD_clean_linker_0, # of connection points: 3
#     Node 5, Type 1, BuildingBlock: BELTOD_clean_linker_0, # of connection points: 3
#     Edge 6, Type (0, 1), BuildingBlock: UVAHIK_clean_linker_0, # of connection points: 2
#     Edge 7, Type (0, 1), BuildingBlock: UVAHIK_clean_linker_0, # of connection points: 2
#     Edge 8, Type (0, 1), BuildingBlock: UVAHIK_clean_linker_0, # of connection points: 2
#     Edge 9, Type (0, 1), BuildingBlock: UVAHIK_clean_linker_0, # of connection points: 2
#     Edge 10, Type (0, 1), BuildingBlock: UVAHIK_clean_linker_0, # of connection points: 2
#     Edge 11, Type (0, 1), BuildingBlock: UVAHIK_clean_linker_0, # of connection points: 2
#     Edge 12, Type (0, 1), BuildingBlock: UVAHIK_clean_linker_0, # of connection points: 2
#     Edge 13, Type (0, 1), BuildingBlock: UVAHIK_clean_linker_0, # of connection points: 2
#     Edge 14, Type (0, 1), BuildingBlock: UVAHIK_clean_linker_0, # of connection points: 2
#     Edge 15, Type (0, 1), BuildingBlock: UVAHIK_clean_linker_0, # of connection points: 2
#     Edge 16, Type (0, 1), BuildingBlock: UVAHIK_clean_linker_0, # of connection points: 2
#     Edge 17, Type (0, 1), BuildingBlock: UVAHIK_clean_linker_0, # of connection points: 2
# Relax obj value: 0.067
# Max RMSD: 0.102
# Mean RMSD: 0.074
data_MOF--net-tsx--node1-VOLQOD_clean_sbu_1--node2-BELTOD_clean_linker_0--edge1-UVAHIK_clean_linker_0
_symmetry_space_group_name_H-M    P1
_symmetry_Int_Tables_number       1
_symmetry_cell_setting            triclinic
loop_
_symmetry_equiv_pos_as_xyz
'x, y, z'
_cell_length_a     28.960716
_cell_length_b     30.015217
_cell_length_c     56.448674
_cell_angle_alpha  91.057131
_cell_angle_beta   90.145053
_cell_angle_gamma 90.154314
loop_
_atom_site_label
_atom_site_type_symbol
_atom_site_fract_x
_atom_site_fract_y
_atom_site_fract_z
_atom_type_partial_charge
O0 O 0.01129 0.9894 0.06085 0.0
Zn1 Zn 0.02992 0.98722 0.02681 0.0
O2 O 0.97722 0.99621 0.00612 0.0
Zn3 Zn 0.96768 0.94231 0.98679 0.0
Zn4 Zn 0.92224 0.00844 0.02552 0.0
Zn5 Zn 0.99028 0.04637 0.98545 0.0
O6 O 0.97288 0.95525 0.95205 0.0
O7 O 0.99443 0.02622 0.95116 0.0
O8 O 0.06139 0.92903 0.02011 0.0
O9 O 0.0161 0.89596 0.99335 0.0
O10 O 0.90578 0.91508 0.99318 0.0
O11 O 0.87438 0.96005 0.02032 0.0
O12 O 0.89312 0.06695 0.01645 0.0
O13 O 0.07706 0.0351 0.02286 0.0
O14 O 0.9391 0.09106 0.98791 0.0
O15 O 0.05 0.07784 0.9944 0.0
C16 C 0.97454 3e-05 0.07186 0.0
C17 C 0.98528 0.98937 0.94057 0.0
C18 C 0.87257 0.92539 0.00695 0.0
C19 C 0.05165 0.89587 0.00665 0.0
C20 C 0.90344 0.09558 0.0009 0.0
C21 C 0.08087 0.06882 0.00968 0.0
O22 O 0.93772 0.00989 0.06069 0.0
O23 O 0.50473 0.4895 0.56201 0.0
Zn24 Zn 0.52328 0.49242 0.52798 0.0
O25 O 0.47031 0.50154 0.50737 0.0
Zn26 Zn 0.46313 0.44973 0.48639 0.0
Zn27 Zn 0.41497 0.50872 0.52706 0.0
Zn28 Zn 0.48079 0.55437 0.48812 0.0
O29 O 0.46597 0.46676 0.45228 0.0
O30 O 0.48348 0.53877 0.45304 0.0
O31 O 0.558 0.43674 0.51927 0.0
O32 O 0.51473 0.40601 0.49089 0.0
O33 O 0.4033 0.41814 0.49219 0.0
O34 O 0.37021 0.45789 0.52103 0.0
O35 O 0.3829 0.56654 0.5198 0.0
O36 O 0.56725 0.54369 0.52605 0.0
O37 O 0.42897 0.59785 0.49335 0.0
O38 O 0.54008 0.58605 0.49738 0.0
C39 C 0.46772 0.49869 0.57313 0.0
C40 C 0.47571 0.50252 0.44158 0.0
C41 C 0.37011 0.42477 0.50656 0.0
C42 C 0.55016 0.40544 0.50427 0.0
C43 C 0.39283 0.59859 0.50619 0.0
C44 C 0.57021 0.57794 0.51319 0.0
O45 O 0.43084 0.50883 0.56212 0.0
P46 P 0.07313 0.09258 0.4008 0.0
H47 H 0.05324 0.17511 0.42744 0.0
H48 H 0.98255 0.20425 0.44534 0.0
H49 H 0.9108 0.0829 0.42492 0.0
H50 H 0.98101 0.05501 0.4062 0.0
H51 H 0.14999 0.08217 0.43392 0.0
H52 H 0.17866 0.01857 0.45586 0.0
H53 H 0.06812 0.93715 0.42675 0.0
H54 H 0.04091 0.00046 0.40417 0.0
H55 H 0.01073 0.13211 0.36653 0.0
H56 H 0.10626 0.02222 0.36813 0.0
O57 O 0.11351 0.13233 0.40042 0.0
H58 H 0.99217 0.11402 0.3253 0.0
H59 H 0.0867 0.00285 0.3271 0.0
C60 C 0.02223 0.11302 0.41542 0.0
C61 C 0.02231 0.15478 0.42688 0.0
C62 C 0.98193 0.17123 0.43729 0.0
C63 C 0.94092 0.14595 0.43652 0.0
C64 C 0.94153 0.10353 0.42553 0.0
C65 C 0.9818 0.08732 0.41501 0.0
C66 C 0.0939 0.04575 0.41707 0.0
C67 C 0.13211 0.05055 0.43217 0.0
C68 C 0.14812 0.01425 0.44494 0.0
C69 C 0.1258 0.97263 0.44301 0.0
C70 C 0.08661 0.96847 0.42835 0.0
C71 C 0.07083 0.00473 0.41552 0.0
C72 C 0.05887 0.07775 0.3706 0.0
C73 C 0.02715 0.10359 0.35811 0.0
C74 C 0.01641 0.09307 0.33454 0.0
C75 C 0.03751 0.05663 0.32291 0.0
C76 C 0.06992 0.03124 0.33544 0.0
C77 C 0.0808 0.04199 0.35901 0.0
P78 P 0.09317 0.91037 0.6099 0.0
H79 H 0.0771 0.84913 0.56989 0.0
H80 H 0.00698 0.81402 0.55367 0.0
H81 H 0.92568 0.88206 0.60713 0.0
H82 H 0.99543 0.9172 0.62307 0.0
H83 H 0.15289 0.98514 0.62252 0.0
H84 H 0.1713 0.05485 0.60293 0.0
H85 H 0.08146 0.01721 0.54469 0.0
H86 H 0.06295 0.94757 0.5644 0.0
H87 H 0.11314 0.85606 0.65107 0.0
H88 H 0.05502 0.98524 0.63754 0.0
O89 O 0.1376 0.87592 0.60557 0.0
H90 H 0.10054 0.86769 0.69357 0.0
H91 H 0.04166 -0.00308 0.67991 0.0
C92 C 0.04162 0.88482 0.59805 0.0
C93 C 0.04417 0.85632 0.57814 0.0
C94 C 0.00414 0.83661 0.56878 0.0
C95 C 0.96104 0.84507 0.5793 0.0
C96 C 0.95857 0.87445 0.59892 0.0
C97 C -0.00151 0.89449 0.60807 0.0
C98 C 0.10572 0.96168 0.59524 0.0
C99 C 0.13675 0.9921 0.60567 0.0
C100 C 0.14714 0.03194 0.59449 0.0
C101 C 0.12732 0.04167 0.57243 0.0
C102 C 0.09712 0.01058 0.5617 0.0
C103 C 0.08638 0.97086 0.57304 0.0
C104 C 0.08605 0.9202 0.64125 0.0
C105 C 0.09805 0.8871 0.65728 0.0
C106 C 0.09043 0.89365 0.68154 0.0
C107 C 0.07026 0.93334 0.69015 0.0
C108 C 0.05806 0.96635 0.67393 0.0
C109 C 0.06567 0.95971 0.6497 0.0
P110 P 0.57158 0.59628 0.90175 0.0
H111 H 0.54728 0.63969 0.94652 0.0
H112 H 0.47308 0.66084 0.96425 0.0
H113 H 0.40168 0.60303 0.90381 0.0
H114 H 0.47552 0.58148 0.88638 0.0
H115 H 0.66547 0.57373 0.91621 0.0
H116 H 0.6982 0.50832 0.93512 0.0
H117 H 0.56206 0.44954 0.93884 0.0
H118 H 0.52968 0.51493 0.91965 0.0
H119 H 0.54432 0.65252 0.8629 0.0
H120 H 0.58127 0.51474 0.87203 0.0
O121 O 0.60705 0.63985 0.90514 0.0
H122 H 0.52779 0.63721 0.82099 0.0
H123 H 0.56452 0.4992 0.83029 0.0
C124 C 0.51693 0.61026 0.91487 0.0
C125 C 0.5156 0.63157 0.93714 0.0
C126 C 0.47329 0.64327 0.94731 0.0
C127 C 0.43177 0.63388 0.93526 0.0
C128 C 0.43325 0.61123 0.91328 0.0
C129 C 0.47549 0.59911 0.90327 0.0
C130 C 0.59515 0.54933 0.91686 0.0
C131 C 0.64263 0.54699 0.92134 0.0
C132 C 0.66124 0.50968 0.93225 0.0
C133 C 0.63264 0.4739 0.93861 0.0
C134 C 0.58497 0.47649 0.93407 0.0
C135 C 0.5664 0.51391 0.92325 0.0
C136 C 0.56424 0.58492 0.87054 0.0
C137 C 0.54931 0.6191 0.85582 0.0
C138 C 0.53949 0.61022 0.83195 0.0
C139 C 0.54468 0.56695 0.82238 0.0
C140 C 0.56059 0.53295 0.83711 0.0
C141 C 0.57008 0.54181 0.86103 0.0
P142 P 0.5858 0.42287 0.11166 0.0
H143 H 0.55337 0.40982 0.06305 0.0
H144 H 0.48836 0.36817 0.04581 0.0
H145 H 0.44455 0.33186 0.11599 0.0
H146 H 0.50963 0.37313 0.13307 0.0
H147 H 0.67186 0.46409 0.09656 0.0
H148 H 0.68889 0.53304 0.07595 0.0
H149 H 0.54308 0.56218 0.07229 0.0
H150 H 0.52619 0.49274 0.09282 0.0
H151 H 0.61529 0.37752 0.15439 0.0
H152 H 0.53662 0.49444 0.13724 0.0
O153 O 0.6305 0.38833 0.1084 0.0
H154 H 0.60157 0.39188 0.19652 0.0
H155 H 0.52247 0.50884 0.17934 0.0
C156 C 0.53579 0.39534 0.09935 0.0
C157 C 0.52935 0.39344 0.07473 0.0
C158 C 0.49217 0.36971 0.0649 0.0
C159 C 0.46131 0.34686 0.07956 0.0
C160 C 0.46794 0.34889 0.10425 0.0
C161 C 0.50498 0.3728 0.11404 0.0
C162 C 0.59779 0.47316 0.09597 0.0
C163 C 0.64352 0.48505 0.09113 0.0
C164 C 0.65319 0.52436 0.07927 0.0
C165 C 0.61725 0.55275 0.07236 0.0
C166 C 0.57141 0.54092 0.07745 0.0
C167 C 0.56176 0.5013 0.08911 0.0
C168 C 0.5778 0.4354 0.14269 0.0
C169 C 0.59546 0.40655 0.15969 0.0
C170 C 0.58726 0.41459 0.18376 0.0
C171 C 0.561 0.45157 0.19126 0.0
C172 C 0.54341 0.48047 0.17414 0.0
C173 C 0.55147 0.47224 0.15004 0.0
C174 C 0.12596 0.13811 0.00028 0.0
C175 C 0.12182 0.09808 0.01269 0.0
C176 C 0.16421 0.16604 0.004 0.0
C177 C 0.28349 0.16628 0.02787 0.0
H178 H 0.26341 0.29268 0.03878 0.0
C179 C 0.41435 0.27681 0.0777 0.0
C180 C 0.42334 0.3196 0.06915 0.0
C181 C 0.37893 0.25078 0.06791 0.0
C182 C 0.26967 0.25757 0.03542 0.0
H183 H 0.15502 0.05586 0.03849 0.0
H184 H 0.22097 0.10443 0.04502 0.0
H185 H 0.19891 0.24504 0.02629 0.0
H186 H 0.40215 0.3688 0.04369 0.0
H187 H 0.34002 0.32305 0.02648 0.0
H188 H 0.35389 0.17851 0.03756 0.0
C189 C 0.19511 0.1141 0.03222 0.0
C190 C 0.23277 0.23031 0.02824 0.0
C191 C 0.157 0.08637 0.02859 0.0
C192 C 0.39614 0.33582 0.05054 0.0
C193 C 0.36043 0.30981 0.04082 0.0
C194 C 0.32025 0.19344 0.03508 0.0
C195 C 0.19914 0.15431 0.02005 0.0
C196 C 0.2391 0.18419 0.02491 0.0
C197 C 0.35159 0.26696 0.04937 0.0
C198 C 0.31353 0.23919 0.03944 0.0
H199 H 0.09948 0.14811 0.9879 0.0
H200 H 0.16654 0.19672 0.99426 0.0
H201 H 0.28967 0.13102 0.02497 0.0
H202 H 0.43504 0.26321 0.09184 0.0
H203 H 0.37258 0.21812 0.07509 0.0
C204 C 0.07152 0.81788 0.99373 0.0
C205 C 0.08431 0.85817 0.00501 0.0
C206 C 0.1041 0.78422 0.98994 0.0
C207 C 0.22542 0.7509 0.00458 0.0
H208 H 0.21973 0.69505 0.9422 0.0
C209 C 0.35658 0.67297 0.93038 0.0
C210 C 0.38721 0.64976 0.94493 0.0
C211 C 0.31571 0.69044 0.9396 0.0
C212 C 0.22202 0.7105 0.95965 0.0
H213 H 0.14088 0.89412 0.02196 0.0
H214 H 0.19782 0.83661 0.01457 0.0
H215 H 0.15601 0.74087 0.95584 0.0
H216 H 0.39862 0.6252 0.98029 0.0
H217 H 0.32634 0.65466 0.99638 0.0
H218 H 0.29305 0.72337 0.0076 0.0
C219 C 0.16251 0.83012 0.00918 0.0
C220 C 0.18498 0.73624 0.96769 0.0
C221 C 0.12982 0.86341 0.01327 0.0
C222 C 0.37569 0.64336 0.96878 0.0
C223 C 0.33439 0.66036 0.97796 0.0
C224 C 0.2628 0.72573 0.99638 0.0
C225 C 0.15035 0.79043 0.99703 0.0
C226 C 0.18669 0.75778 0.99002 0.0
C227 C 0.30414 0.68463 0.96354 0.0
C228 C 0.26209 0.70621 0.97354 0.0
H229 H 0.03654 0.81265 0.9874 0.0
H230 H 0.09321 0.75374 0.981 0.0
H231 H 0.22756 0.76611 0.0221 0.0
H232 H 0.36498 0.67893 0.91202 0.0
H233 H 0.29399 0.70981 0.92805 0.0
C234 C 0.83279 0.85372 0.99613 0.0
C235 C 0.83254 0.89476 0.00853 0.0
C236 C 0.79777 0.82252 0.99956 0.0
C237 C 0.71497 0.78985 0.04511 0.0
H238 H 0.67737 0.70338 0.99688 0.0
C239 C 0.60805 0.63531 0.06868 0.0
C240 C 0.6281 0.59524 0.06065 0.0
C241 C 0.62231 0.67597 0.05944 0.0
C242 C 0.6874 0.72743 0.0105 0.0
H243 H 0.7936 0.93629 0.03316 0.0
H244 H 0.732 0.88199 0.03886 0.0
H245 H 0.72139 0.76915 0.98559 0.0
H246 H 0.67645 0.56589 0.03567 0.0
H247 H 0.70152 0.63682 0.0196 0.0
H248 H 0.68212 0.74755 0.07009 0.0
C249 C 0.7599 0.87361 0.02685 0.0
C250 C 0.7127 0.76501 0.00407 0.0
C251 C 0.79513 0.90481 0.02351 0.0
C252 C 0.66084 0.59636 0.04236 0.0
C253 C 0.6748 0.63692 0.03299 0.0
C254 C 0.68944 0.75246 0.0515 0.0
C255 C 0.76142 0.83166 0.01536 0.0
C256 C 0.72805 0.79593 0.02141 0.0
C257 C 0.65652 0.67722 0.04185 0.0
C258 C 0.67661 0.72019 0.03437 0.0
H259 H 0.86099 0.84485 0.9844 0.0
H260 H 0.80048 0.79038 0.99064 0.0
H261 H 0.72667 0.81258 0.059 0.0
H262 H 0.58284 0.63539 0.08282 0.0
H263 H 0.60743 0.70652 0.06647 0.0
C264 C 0.8808 0.16274 0.97809 0.0
C265 C 0.87275 0.13421 0.99713 0.0
C266 C 0.85102 0.19804 0.97368 0.0
C267 C 0.76538 0.27234 0.00076 0.0
H268 H 0.72852 0.29015 0.9355 0.0
C269 C 0.63918 0.39083 0.94045 0.0
C270 C 0.65297 0.4332 0.94883 0.0
C271 C 0.66112 0.35258 0.94848 0.0
C272 C 0.738 0.28536 0.95385 0.0
H273 H 0.82748 0.12118 0.02682 0.0
H274 H 0.77543 0.18338 0.01909 0.0
H275 H 0.77667 0.22669 0.94529 0.0
H276 H 0.69887 0.46858 0.9731 0.0
H277 H 0.73762 0.40169 0.98694 0.0
H278 H 0.72694 0.33149 0.00921 0.0
C279 C 0.80492 0.17812 0.00763 0.0
C280 C 0.76599 0.2493 0.95941 0.0
C281 C 0.83462 0.14245 0.01197 0.0
C282 C 0.68791 0.43639 0.96611 0.0
C283 C 0.70973 0.39809 0.97422 0.0
C284 C 0.73755 0.30873 0.99515 0.0
C285 C 0.81257 0.2059 0.98825 0.0
C286 C 0.78047 0.24272 0.98285 0.0
C287 C 0.69721 0.35586 0.96511 0.0
C288 C 0.72394 0.31579 0.97159 0.0
H289 H 0.90986 0.15755 0.96632 0.0
H290 H 0.85817 0.21935 0.95883 0.0
H291 H 0.77617 0.26811 0.01896 0.0
H292 H 0.61257 0.38729 0.92702 0.0
H293 H 0.6504 0.32044 0.94133 0.0
C294 C 0.63114 0.61033 0.53963 0.0
C295 C 0.60859 0.60959 0.51755 0.0
C296 C 0.66674 0.64057 0.54427 0.0
C297 C 0.75867 0.70249 0.51769 0.0
H298 H 0.75351 0.77517 0.57514 0.0
C299 C 0.90854 0.82042 0.54609 0.0
C300 C 0.91886 0.82231 0.57041 0.0
C301 C 0.86854 0.7988 0.53792 0.0
C302 C 0.75579 0.75481 0.55915 0.0
H303 H 0.60608 0.63954 0.4829 0.0
H304 H 0.66981 0.69191 0.49092 0.0
H305 H 0.68757 0.72879 0.56387 0.0
H306 H 0.89631 0.80228 0.60519 0.0
H307 H 0.82752 0.76356 0.59105 0.0
H308 H 0.82772 0.72657 0.51352 0.0
C309 C 0.65919 0.66926 0.50461 0.0
C310 C 0.71787 0.72856 0.55264 0.0
C311 C 0.62278 0.63947 0.50009 0.0
C312 C 0.88876 0.80195 0.58638 0.0
C313 C 0.84918 0.77996 0.57824 0.0
C314 C 0.797 0.7283 0.52438 0.0
C315 C 0.68112 0.67023 0.52684 0.0
C316 C 0.7193 0.70161 0.5321 0.0
C317 C 0.83837 0.77824 0.55392 0.0
C318 C 0.79634 0.75409 0.54547 0.0
H319 H 0.62087 0.58791 0.55349 0.0
H320 H 0.68346 0.64047 0.56147 0.0
H321 H 0.76057 0.6817 0.50183 0.0
H322 H 0.93107 0.83619 0.53343 0.0
H323 H 0.86107 0.79858 0.51912 0.0
C324 C 0.62548 0.36958 0.51457 0.0
C325 C 0.5846 0.36949 0.50107 0.0
C326 C 0.66029 0.33865 0.50969 0.0
C327 C 0.70509 0.2725 0.45999 0.0
H328 H 0.78176 0.21785 0.50774 0.0
C329 C 0.85544 0.1579 0.43382 0.0
C330 C 0.89721 0.16457 0.44614 0.0
C331 C 0.81471 0.17743 0.44201 0.0
C332 C 0.76081 0.23311 0.49422 0.0
H333 H 0.54721 0.33518 0.47273 0.0
H334 H 0.6079 0.28117 0.46436 0.0
H335 H 0.7142 0.26123 0.51982 0.0
H336 H 0.92852 0.19575 0.47724 0.0
H337 H 0.85764 0.23106 0.49114 0.0
H338 H 0.75208 0.2457 0.43442 0.0
C339 C 0.61325 0.30561 0.47847 0.0
C340 C 0.72211 0.25783 0.50113 0.0
C341 C 0.57841 0.33646 0.48335 0.0
C342 C 0.89705 0.19043 0.46716 0.0
C343 C 0.85629 0.21018 0.4753 0.0
C344 C 0.74376 0.24799 0.45309 0.0
C345 C 0.65497 0.30705 0.49121 0.0
C346 C 0.69408 0.27807 0.48408 0.0
C347 C 0.81479 0.20439 0.46263 0.0
C348 C 0.7723 0.22829 0.47012 0.0
H349 H 0.63134 0.39446 0.5284 0.0
H350 H 0.6922 0.34081 0.51971 0.0
H351 H 0.68471 0.2884 0.44645 0.0
H352 H 0.85435 0.13858 0.41743 0.0
H353 H 0.78321 0.1718 0.43201 0.0
C354 C 0.32827 0.35829 0.48969 0.0
C355 C 0.33247 0.39141 0.50751 0.0
C356 C 0.29643 0.32361 0.49192 0.0
C357 C 0.19651 0.28425 0.52761 0.0
H358 H 0.24826 0.16773 0.51352 0.0
C359 C 0.14019 0.1241 0.57371 0.0
C360 C 0.13903 0.08387 0.56061 0.0
C361 C 0.15508 0.16333 0.56324 0.0
C362 C 0.23282 0.19998 0.51711 0.0
H363 H 0.30488 0.41528 0.54109 0.0
H364 H 0.25024 0.35426 0.54529 0.0
H365 H 0.29027 0.23415 0.50225 0.0
H366 H 0.1509 0.05337 0.52606 0.0
H367 H 0.17712 0.12216 0.5077 0.0
H368 H 0.14004 0.24962 0.54351 0.0
C369 C 0.27095 0.35539 0.52937 0.0
C370 C 0.2569 0.23817 0.51062 0.0
C371 C 0.30253 0.3903 0.52704 0.0
C372 C 0.15135 0.08395 0.53655 0.0
C373 C 0.1666 0.1232 0.5261 0.0
C374 C 0.17254 0.24597 0.53423 0.0
C375 C 0.26833 0.32102 0.51212 0.0
C376 C 0.23958 0.2808 0.51627 0.0
C377 C 0.16938 0.16312 0.53947 0.0
C378 C 0.191 0.20348 0.52952 0.0
H379 H 0.3504 0.35848 0.47425 0.0
H380 H 0.29464 0.29822 0.47806 0.0
H381 H 0.18178 0.31654 0.53183 0.0
H382 H 0.13034 0.12507 0.59221 0.0
H383 H 0.15727 0.19343 0.57407 0.0
C384 C 0.31765 0.63662 0.51542 0.0
C385 C 0.36187 0.63767 0.50518 0.0
C386 C 0.28811 0.67323 0.51369 0.0
C387 C 0.22518 0.74232 0.49079 0.0
H388 H 0.27255 0.86299 0.49715 0.0
C389 C 0.14575 0.89146 0.4436 0.0
C390 C 0.14472 0.93323 0.45527 0.0
C391 C 0.16662 0.85504 0.45421 0.0
C392 C 0.25852 0.82956 0.49568 0.0
H393 H 0.4101 0.67843 0.48563 0.0
H394 H 0.35869 0.74201 0.48266 0.0
H395 H 0.32132 0.80039 0.50801 0.0
H396 H 0.16293 0.96886 0.48779 0.0
H397 H 0.20026 0.90517 0.50616 0.0
H398 H 0.16282 0.77147 0.47782 0.0
C399 C 0.34692 0.71303 0.49212 0.0
C400 C 0.2866 0.79373 0.50168 0.0
C401 C 0.37623 0.6764 0.49364 0.0
C402 C 0.16388 0.93735 0.47814 0.0
C403 C 0.18507 0.90089 0.48871 0.0
C404 C 0.19718 0.77816 0.48465 0.0
C405 C 0.30245 0.71173 0.50194 0.0
C406 C 0.27062 0.74972 0.49872 0.0
C407 C 0.18721 0.85954 0.47669 0.0
C408 C 0.214 0.82207 0.48647 0.0
H409 H 0.30555 0.6073 0.52445 0.0
H410 H 0.25405 0.67143 0.5215 0.0
H411 H 0.21201 0.70876 0.48825 0.0
H412 H 0.13205 0.8872 0.42584 0.0
H413 H 0.16841 0.8238 0.44434 0.0
C414 C 0.93614 0.01311 0.11139 0.0
C415 C 0.9755 0.00146 0.09814 0.0
C416 C 0.9381 0.01524 0.13619 0.0
C417 C 0.00874 0.97836 0.18724 0.0
H418 H 0.95321 0.07912 0.22023 0.0
C419 C 0.06138 0.03234 0.2819 0.0
C420 C 0.02644 0.04589 0.29769 0.0
C421 C 0.05128 0.02348 0.25807 0.0
C422 C 0.96836 0.05045 0.21131 0.0
H423 H 0.04773 0.98268 0.10068 0.0
H424 H 0.05119 0.98702 0.14354 0.0
H425 H 0.9419 0.06967 0.17756 0.0
H426 H 0.95313 0.05961 0.3008 0.0
H427 H 0.93571 0.04475 0.25906 0.0
H428 H 0.03617 0.95981 0.22089 0.0
C429 C 0.01857 0.99379 0.13492 0.0
C430 C 0.96181 0.04498 0.18687 0.0
C431 C 0.01663 0.99164 0.11025 0.0
C432 C 0.98104 0.04998 0.28906 0.0
C433 C 0.97099 0.04137 0.26517 0.0
C434 C 0.01545 0.98395 0.21162 0.0
C435 C 0.97942 0.00568 0.14822 0.0
C436 C 0.98261 0.00929 0.17448 0.0
C437 C 0.00604 0.02817 0.2494 0.0
C438 C 0.99595 0.02043 0.22386 0.0
H439 H 0.90388 0.02078 0.10264 0.0
H440 H 0.90721 0.02415 0.14594 0.0
H441 H 0.02445 0.94998 0.17834 0.0
H442 H 0.09685 0.02958 0.28781 0.0
H443 H 0.07918 0.01404 0.24627 0.0
C444 C 0.98162 0.9448 0.9026 0.0
C445 C 0.99089 0.98544 0.9145 0.0
C446 C 0.98915 0.94019 0.87826 0.0
C447 C 0.00451 0.00397 0.82343 0.0
H448 H 0.06257 0.89519 0.80055 0.0
C449 C 0.06936 0.98151 0.72706 0.0
C450 C 0.06121 0.93997 0.71588 0.0
C451 C 0.06055 0.98773 0.75124 0.0
C452 C 0.04587 0.92556 0.8066 0.0
H453 H 0.01459 0.0534 0.90992 0.0
H454 H 0.02803 0.04517 0.86743 0.0
H455 H 0.04686 0.90506 0.84267 0.0
H456 H 0.03652 0.87264 0.72129 0.0
H457 H 0.0212 0.88346 0.76342 0.0
H458 H 0.00359 0.02444 0.78729 0.0
C459 C 0.01455 0.01699 0.87695 0.0
C460 C 0.03684 0.93121 0.83075 0.0
C461 C 0.00703 0.02163 0.90134 0.0
C462 C 0.04396 0.90483 0.72944 0.0
C463 C 0.03515 0.91105 0.75359 0.0
C464 C 0.01355 -0.00169 0.79923 0.0
C465 C 0.00615 0.97607 0.86518 0.0
C466 C 0.0159 0.9704 0.83946 0.0
C467 C 0.04338 0.95255 0.76479 0.0
C468 C 0.0342 0.95895 0.79053 0.0
H469 H 0.96893 0.91626 0.91211 0.0
H470 H 0.98158 0.90844 0.86966 0.0
H471 H 0.98787 0.03434 0.82952 0.0
H472 H 0.08321 0.0091 0.71719 0.0
H473 H 0.06788 0.01993 0.75939 0.0
C474 C 0.50725 0.48265 0.61148 0.0
C475 C 0.46878 0.49958 0.59938 0.0
C476 C 0.51037 0.48634 0.63611 0.0
C477 C 0.47081 0.55578 0.68582 0.0
H478 H 0.52032 0.46073 0.72387 0.0
C479 C 0.4921 0.57446 0.7873 0.0
C480 C 0.53268 0.55718 0.79723 0.0
C481 C 0.48067 0.56523 0.76365 0.0
C482 C 0.50685 0.48776 0.71347 0.0
H483 H 0.40275 0.53263 0.60382 0.0
H484 H 0.40835 0.53921 0.64699 0.0
H485 H 0.50567 0.44751 0.68175 0.0
H486 H 0.59331 0.51701 0.7901 0.0
H487 H 0.57382 0.50141 0.74872 0.0
H488 H 0.47307 0.59643 0.71732 0.0
C489 C 0.43618 0.52328 0.63728 0.0
C490 C 0.4983 0.48011 0.68936 0.0
C491 C 0.43286 0.51927 0.61258 0.0
C492 C 0.56154 0.53037 0.78302 0.0
C493 C 0.55025 0.52133 0.75933 0.0
C494 C 0.47958 0.56352 0.70991 0.0
C495 C 0.47522 0.50728 0.64926 0.0
C496 C 0.48068 0.51419 0.67522 0.0
C497 C 0.50968 0.53867 0.74934 0.0
C498 C 0.4982 0.52975 0.72398 0.0
H499 H 0.53551 0.46715 0.6019 0.0
H500 H 0.5411 0.47409 0.64478 0.0
H501 H 0.45784 0.5829 0.67532 0.0
H502 H 0.46879 0.59464 0.79793 0.0
H503 H 0.44881 0.57855 0.75666 0.0
C504 C 0.49373 0.53877 0.40277 0.0
C505 C 0.4805 0.50086 0.41542 0.0
C506 C 0.50136 0.53585 0.3783 0.0
C507 C 0.53207 0.45381 0.33183 0.0
H508 H 0.48769 0.54204 0.28799 0.0
C509 C 0.5389 0.42348 0.2312 0.0
C510 C 0.55123 0.45928 0.21682 0.0
C511 C 0.53011 0.43037 0.25528 0.0
C512 C 0.50082 0.51741 0.30004 0.0
H513 H 0.46343 0.4305 0.412 0.0
H514 H 0.47652 0.42564 0.36955 0.0
H515 H 0.47213 0.55132 0.33036 0.0
H516 H 0.56399 0.53047 0.21644 0.0
H517 H 0.54903 0.54251 0.25866 0.0
H518 H 0.56101 0.41997 0.30176 0.0
C519 C 0.48166 0.45744 0.37858 0.0
C520 C 0.49184 0.52272 0.32429 0.0
C521 C 0.47389 0.46035 0.40293 0.0
C522 C 0.55415 0.50227 0.22704 0.0
C523 C 0.54551 0.50917 0.2512 0.0
C524 C 0.54118 0.4486 0.30768 0.0
C525 C 0.49614 0.49494 0.36604 0.0
C526 C 0.50693 0.49067 0.34039 0.0
C527 C 0.53362 0.47323 0.26564 0.0
C528 C 0.52524 0.48003 0.29144 0.0
H529 H 0.4991 0.5705 0.41182 0.0
H530 H 0.51266 0.56529 0.36911 0.0
H531 H 0.54501 0.42902 0.34385 0.0
H532 H 0.53549 0.3901 0.22376 0.0
H533 H 0.52007 0.40208 0.26575 0.0
loop_
_geom_bond_atom_site_label_1
_geom_bond_atom_site_label_2
_geom_bond_distance
_geom_bond_site_symmetry_2
_ccdc_geom_bond_type
O0 Zn1 1.953 . S
O0 C16 1.225 1_565 S
Zn1 O0 1.953 . S
Zn1 O2 1.949 1_565 S
Zn1 O8 1.919 . S
Zn1 O13 1.924 1_565 S
O2 Zn1 1.949 1_545 S
O2 Zn3 1.923 1_444 S
O2 Zn4 1.950 1_455 S
O2 Zn5 1.945 1_554 S
Zn3 O2 1.923 1_666 S
Zn3 O6 1.933 . S
Zn3 O9 1.941 1_655 S
Zn3 O10 1.965 . S
Zn4 O2 1.950 1_655 S
Zn4 O11 1.938 1_545 S
Zn4 O12 1.906 . S
Zn4 O22 1.953 . S
Zn5 O2 1.945 1_556 S
Zn5 O7 1.932 . S
Zn5 O14 1.977 1_455 S
Zn5 O15 1.910 . S
O6 Zn3 1.933 . S
O6 C17 1.226 1_665 S
O7 Zn5 1.932 . S
O7 C17 1.307 . S
O8 Zn1 1.919 . S
O8 C19 1.247 1_554 S
O9 Zn3 1.941 1_455 S
O9 C19 1.286 . S
O10 Zn3 1.965 . S
O10 C18 1.303 1_556 S
O11 Zn4 1.938 1_565 S
O11 C18 1.247 . S
O12 Zn4 1.906 . S
O12 C20 1.304 1_554 S
O13 Zn1 1.924 1_545 S
O13 C21 1.311 . S
O14 Zn5 1.977 1_655 S
O14 C20 1.272 . S
O15 Zn5 1.910 . S
O15 C21 1.231 1_556 S
C16 O0 1.225 1_545 S
C16 O22 1.298 1_455 S
C17 O6 1.226 1_445 S
C17 O7 1.307 . S
C18 O10 1.303 1_554 S
C18 O11 1.247 . S
C19 O8 1.247 1_556 S
C19 O9 1.286 . S
C20 O12 1.304 1_556 S
C20 O14 1.272 . S
C21 O13 1.311 . S
C21 O15 1.231 1_554 S
O22 Zn4 1.953 . S
O22 C16 1.298 1_655 S
O23 Zn24 1.953 . S
O23 C39 1.225 . S
Zn24 O23 1.953 . S
Zn24 O25 1.949 . S
Zn24 O31 1.919 . S
Zn24 O36 1.924 . S
O25 Zn24 1.949 . S
O25 Zn26 1.923 . S
O25 Zn27 1.950 . S
O25 Zn28 1.945 . S
Zn26 O25 1.923 . S
Zn26 O29 1.933 . S
Zn26 O32 1.941 . S
Zn26 O33 1.965 . S
Zn27 O25 1.950 . S
Zn27 O34 1.938 . S
Zn27 O35 1.906 . S
Zn27 O45 1.953 . S
Zn28 O25 1.945 . S
Zn28 O30 1.932 . S
Zn28 O37 1.977 . S
Zn28 O38 1.910 . S
O29 Zn26 1.933 . S
O29 C40 1.226 . S
O30 Zn28 1.932 . S
O30 C40 1.307 . S
O31 Zn24 1.919 . S
O31 C42 1.253 . S
O32 Zn26 1.941 . S
O32 C42 1.283 . S
O33 Zn26 1.965 . S
O33 C41 1.303 . S
O34 Zn27 1.938 . S
O34 C41 1.247 . S
O35 Zn27 1.906 . S
O35 C43 1.304 . S
O36 Zn24 1.924 . S
O36 C44 1.311 . S
O37 Zn28 1.977 . S
O37 C43 1.272 . S
O38 Zn28 1.910 . S
O38 C44 1.231 . S
C39 O23 1.225 . S
C39 O45 1.298 . S
C40 O29 1.226 . S
C40 O30 1.307 . S
C41 O33 1.303 . S
C41 O34 1.247 . S
C42 O31 1.253 . S
C42 O32 1.283 . S
C43 O35 1.304 . S
C43 O37 1.272 . S
C44 O36 1.311 . S
C44 O38 1.231 . S
O45 Zn27 1.953 . S
O45 C39 1.298 . S
P46 O57 1.490 . S
P46 C60 1.812 1_455 S
P46 C66 1.803 1_545 S
P46 C72 1.819 . S
H47 C61 0.941 1_455 S
H48 C62 0.939 . S
H49 C64 0.940 . S
H50 C65 0.940 . S
H51 C67 0.939 1_545 S
H52 C68 0.942 . S
H53 C70 0.940 . S
H54 C71 0.939 . S
H55 C73 0.941 . S
H56 C77 0.939 . S
O57 P46 1.490 . S
H58 C74 0.939 . S
H59 C76 0.940 . S
C60 P46 1.812 1_655 S
C60 C61 1.389 . S
C60 C65 1.391 . S
C61 H47 0.941 1_655 S
C61 C60 1.389 . S
C61 C62 1.397 . S
C62 H48 0.939 . S
C62 C61 1.397 . S
C62 C63 1.378 . S
C63 C62 1.378 . S
C63 C64 1.378 . S
C64 H49 0.940 . S
C64 C63 1.378 . S
C64 C65 1.396 . S
C65 H50 0.940 . S
C65 C60 1.391 . S
C65 C64 1.396 . S
C66 P46 1.803 1_565 S
C66 C67 1.378 . S
C66 C71 1.400 . S
C67 H51 0.939 1_565 S
C67 C66 1.378 . S
C67 C68 1.361 . S
C68 H52 0.942 . S
C68 C67 1.361 . S
C68 C69 1.369 . S
C69 C68 1.369 . S
C69 C70 1.404 . S
C70 H53 0.940 . S
C70 C69 1.404 . S
C70 C71 1.389 . S
C71 H54 0.939 . S
C71 C66 1.400 . S
C71 C70 1.389 . S
C72 P46 1.819 . S
C72 C73 1.391 . S
C72 C77 1.391 1_545 S
C73 H55 0.941 . S
C73 C72 1.391 . S
C73 C74 1.396 . S
C74 H58 0.939 . S
C74 C73 1.396 . S
C74 C75 1.397 . S
C75 C74 1.397 . S
C75 C76 1.385 1_545 S
C76 H59 0.940 . S
C76 C75 1.385 1_565 S
C76 C77 1.388 . S
C77 H56 0.939 . S
C77 C72 1.391 1_565 S
C77 C76 1.388 . S
P78 O89 1.490 . S
P78 C92 1.812 . S
P78 C98 1.803 1_565 S
P78 C104 1.819 . S
H79 C93 0.941 . S
H80 C94 0.939 . S
H81 C96 0.940 . S
H82 C97 0.940 . S
H83 C99 0.939 . S
H84 C100 0.942 . S
H85 C102 0.940 . S
H86 C103 0.939 . S
H87 C105 0.941 . S
H88 C109 0.939 . S
O89 P78 1.490 . S
H90 C106 0.939 . S
H91 C108 0.940 . S
C92 P78 1.812 . S
C92 C93 1.389 . S
C92 C97 1.391 1_455 S
C93 H79 0.941 . S
C93 C92 1.389 . S
C93 C94 1.397 1_455 S
C94 H80 0.939 . S
C94 C93 1.397 1_655 S
C94 C95 1.378 . S
C95 C94 1.378 . S
C95 C96 1.378 . S
C96 H81 0.940 . S
C96 C95 1.378 . S
C96 C97 1.396 . S
C97 H82 0.940 . S
C97 C92 1.391 1_655 S
C97 C96 1.396 . S
C98 P78 1.803 1_545 S
C98 C99 1.378 . S
C98 C103 1.400 . S
C99 H83 0.939 . S
C99 C98 1.378 . S
C99 C100 1.361 . S
C100 H84 0.942 . S
C100 C99 1.361 . S
C100 C101 1.369 . S
C101 C100 1.369 . S
C101 C102 1.404 . S
C102 H85 0.940 . S
C102 C101 1.404 . S
C102 C103 1.389 . S
C103 H86 0.939 . S
C103 C98 1.400 . S
C103 C102 1.389 . S
C104 P78 1.819 . S
C104 C105 1.391 . S
C104 C109 1.391 1_565 S
C105 H87 0.941 . S
C105 C104 1.391 . S
C105 C106 1.396 . S
C106 H90 0.939 . S
C106 C105 1.396 . S
C106 C107 1.397 . S
C107 C106 1.397 . S
C107 C108 1.385 1_565 S
C108 H91 0.940 . S
C108 C107 1.385 1_545 S
C108 C109 1.388 . S
C109 H88 0.939 . S
C109 C104 1.391 1_545 S
C109 C108 1.388 . S
P110 O121 1.490 . S
P110 C124 1.812 . S
P110 C130 1.803 . S
P110 C136 1.819 . S
H111 C125 0.941 . S
H112 C126 0.939 . S
H113 C128 0.940 . S
H114 C129 0.940 . S
H115 C131 0.939 . S
H116 C132 0.942 . S
H117 C134 0.940 . S
H118 C135 0.939 . S
H119 C137 0.941 . S
H120 C141 0.939 . S
O121 P110 1.490 . S
H122 C138 0.939 . S
H123 C140 0.940 . S
C124 P110 1.812 . S
C124 C125 1.389 . S
C124 C129 1.391 . S
C125 H111 0.941 . S
C125 C124 1.389 . S
C125 C126 1.397 . S
C126 H112 0.939 . S
C126 C125 1.397 . S
C126 C127 1.378 . S
C127 C126 1.378 . S
C127 C128 1.378 . S
C128 H113 0.940 . S
C128 C127 1.378 . S
C128 C129 1.396 . S
C129 H114 0.940 . S
C129 C124 1.391 . S
C129 C128 1.396 . S
C130 P110 1.803 . S
C130 C131 1.378 . S
C130 C135 1.400 . S
C131 H115 0.939 . S
C131 C130 1.378 . S
C131 C132 1.361 . S
C132 H116 0.942 . S
C132 C131 1.361 . S
C132 C133 1.369 . S
C133 C132 1.369 . S
C133 C134 1.404 . S
C134 H117 0.940 . S
C134 C133 1.404 . S
C134 C135 1.389 . S
C135 H118 0.939 . S
C135 C130 1.400 . S
C135 C134 1.389 . S
C136 P110 1.819 . S
C136 C137 1.391 . S
C136 C141 1.391 . S
C137 H119 0.941 . S
C137 C136 1.391 . S
C137 C138 1.396 . S
C138 H122 0.939 . S
C138 C137 1.396 . S
C138 C139 1.397 . S
C139 C138 1.397 . S
C139 C140 1.385 . S
C140 H123 0.940 . S
C140 C139 1.385 . S
C140 C141 1.388 . S
C141 H120 0.939 . S
C141 C136 1.391 . S
C141 C140 1.388 . S
P142 O153 1.490 . S
P142 C156 1.812 . S
P142 C162 1.803 . S
P142 C168 1.819 . S
H143 C157 0.941 . S
H144 C158 0.939 . S
H145 C160 0.940 . S
H146 C161 0.940 . S
H147 C163 0.939 . S
H148 C164 0.942 . S
H149 C166 0.940 . S
H150 C167 0.939 . S
H151 C169 0.941 . S
H152 C173 0.939 . S
O153 P142 1.490 . S
H154 C170 0.939 . S
H155 C172 0.940 . S
C156 P142 1.812 . S
C156 C157 1.389 . S
C156 C161 1.391 . S
C157 H143 0.941 . S
C157 C156 1.389 . S
C157 C158 1.397 . S
C158 H144 0.939 . S
C158 C157 1.397 . S
C158 C159 1.378 . S
C159 C158 1.378 . S
C159 C160 1.378 . S
C160 H145 0.940 . S
C160 C159 1.378 . S
C160 C161 1.396 . S
C161 H146 0.940 . S
C161 C156 1.391 . S
C161 C160 1.396 . S
C162 P142 1.803 . S
C162 C163 1.378 . S
C162 C167 1.400 . S
C163 H147 0.939 . S
C163 C162 1.378 . S
C163 C164 1.361 . S
C164 H148 0.942 . S
C164 C163 1.361 . S
C164 C165 1.369 . S
C165 C164 1.369 . S
C165 C166 1.404 . S
C166 H149 0.940 . S
C166 C165 1.404 . S
C166 C167 1.389 . S
C167 H150 0.939 . S
C167 C162 1.400 . S
C167 C166 1.389 . S
C168 P142 1.819 . S
C168 C169 1.391 . S
C168 C173 1.391 . S
C169 H151 0.941 . S
C169 C168 1.391 . S
C169 C170 1.396 . S
C170 H154 0.939 . S
C170 C169 1.396 . S
C170 C171 1.397 . S
C171 C170 1.397 . S
C171 C172 1.385 . S
C172 H155 0.940 . S
C172 C171 1.385 . S
C172 C173 1.388 . S
C173 H152 0.939 . S
C173 C168 1.391 . S
C173 C172 1.388 . S
C174 C175 1.349 . S
C174 C176 1.327 . S
C174 H199 0.957 . S
C175 C174 1.349 . S
C175 C191 1.349 . S
C176 C174 1.327 . S
C176 C195 1.429 . S
C176 H200 0.950 . S
C177 C194 1.574 . S
C177 C196 1.368 . S
C177 H201 0.949 . S
H178 C182 0.949 . S
C179 C180 1.349 . S
C179 C181 1.327 . S
C179 H202 0.950 . S
C180 C179 1.349 . S
C180 C192 1.349 . S
C181 C179 1.327 . S
C181 C197 1.429 . S
C181 H203 0.950 . S
C182 H178 0.949 . S
C182 C190 1.574 . S
C182 C198 1.368 . S
H183 C191 0.950 . S
H184 C189 0.950 . S
H185 C190 0.949 . S
H186 C192 0.950 . S
H187 C193 0.950 . S
H188 C194 0.949 . S
C189 H184 0.950 . S
C189 C191 1.327 . S
C189 C195 1.429 . S
C190 C182 1.574 . S
C190 H185 0.949 . S
C190 C196 1.368 . S
C191 C175 1.349 . S
C191 H183 0.950 . S
C191 C189 1.327 . S
C192 C180 1.349 . S
C192 H186 0.950 . S
C192 C193 1.327 . S
C193 H187 0.950 . S
C193 C192 1.327 . S
C193 C197 1.429 . S
C194 C177 1.574 . S
C194 H188 0.949 . S
C194 C198 1.368 . S
C195 C176 1.429 . S
C195 C189 1.429 . S
C195 C196 1.523 . S
C196 C177 1.368 . S
C196 C190 1.368 . S
C196 C195 1.523 . S
C197 C181 1.429 . S
C197 C193 1.429 . S
C197 C198 1.523 . S
C198 C182 1.368 . S
C198 C194 1.368 . S
C198 C197 1.523 . S
H199 C174 0.957 . S
H200 C176 0.950 . S
H201 C177 0.949 . S
H202 C179 0.950 . S
H203 C181 0.950 . S
C204 C205 1.349 . S
C204 C206 1.327 . S
C204 H229 0.950 1_556 S
C205 C204 1.349 . S
C205 C221 1.349 . S
C206 C204 1.327 . S
C206 C225 1.429 . S
C206 H230 0.950 . S
C207 C224 1.574 . S
C207 C226 1.368 . S
C207 H231 0.949 . S
H208 C212 0.949 . S
C209 C210 1.349 . S
C209 C211 1.327 . S
C209 H232 0.950 . S
C210 C209 1.349 . S
C210 C222 1.349 . S
C211 C209 1.327 . S
C211 C227 1.429 . S
C211 H233 0.950 . S
C212 H208 0.949 . S
C212 C220 1.574 . S
C212 C228 1.368 . S
H213 C221 0.950 . S
H214 C219 0.950 . S
H215 C220 0.949 . S
H216 C222 0.950 . S
H217 C223 0.950 . S
H218 C224 0.949 . S
C219 H214 0.950 . S
C219 C221 1.327 . S
C219 C225 1.429 . S
C220 C212 1.574 . S
C220 H215 0.949 . S
C220 C226 1.368 . S
C221 C205 1.349 . S
C221 H213 0.950 . S
C221 C219 1.327 . S
C222 C210 1.349 . S
C222 H216 0.950 . S
C222 C223 1.327 . S
C223 H217 0.950 . S
C223 C222 1.327 . S
C223 C227 1.429 . S
C224 C207 1.574 . S
C224 H218 0.949 . S
C224 C228 1.368 . S
C225 C206 1.429 . S
C225 C219 1.429 . S
C225 C226 1.523 . S
C226 C207 1.368 . S
C226 C220 1.368 . S
C226 C225 1.523 . S
C227 C211 1.429 . S
C227 C223 1.429 . S
C227 C228 1.523 . S
C228 C212 1.368 . S
C228 C224 1.368 . S
C228 C227 1.523 . S
H229 C204 0.950 1_554 S
H230 C206 0.950 . S
H231 C207 0.949 . S
H232 C209 0.950 . S
H233 C211 0.950 . S
C234 C235 1.349 . S
C234 C236 1.327 . S
C234 H259 0.950 1_554 S
C235 C234 1.349 . S
C235 C251 1.349 . S
C236 C234 1.327 . S
C236 C255 1.429 . S
C236 H260 0.953 1_554 S
C237 C254 1.574 . S
C237 C256 1.368 . S
C237 H261 0.949 . S
H238 C242 0.949 . S
C239 C240 1.349 . S
C239 C241 1.327 . S
C239 H262 0.950 . S
C240 C239 1.349 . S
C240 C252 1.349 . S
C241 C239 1.327 . S
C241 C257 1.429 . S
C241 H263 0.950 . S
C242 H238 0.949 . S
C242 C250 1.574 . S
C242 C258 1.368 . S
H243 C251 0.950 . S
H244 C249 0.950 . S
H245 C250 0.949 . S
H246 C252 0.950 . S
H247 C253 0.950 . S
H248 C254 0.949 . S
C249 H244 0.950 . S
C249 C251 1.327 . S
C249 C255 1.429 . S
C250 C242 1.574 . S
C250 H245 0.949 . S
C250 C256 1.368 . S
C251 C235 1.349 . S
C251 H243 0.950 . S
C251 C249 1.327 . S
C252 C240 1.349 . S
C252 H246 0.950 . S
C252 C253 1.327 . S
C253 H247 0.950 . S
C253 C252 1.327 . S
C253 C257 1.429 . S
C254 C237 1.574 . S
C254 H248 0.949 . S
C254 C258 1.368 . S
C255 C236 1.429 . S
C255 C249 1.429 . S
C255 C256 1.523 . S
C256 C237 1.368 . S
C256 C250 1.368 . S
C256 C255 1.523 . S
C257 C241 1.429 . S
C257 C253 1.429 . S
C257 C258 1.523 . S
C258 C242 1.368 . S
C258 C254 1.368 . S
C258 C257 1.523 . S
H259 C234 0.950 1_556 S
H260 C236 0.953 1_556 S
H261 C237 0.949 . S
H262 C239 0.950 . S
H263 C241 0.950 . S
C264 C265 1.349 . S
C264 C266 1.327 . S
C264 H289 0.954 . S
C265 C264 1.349 . S
C265 C281 1.349 . S
C266 C264 1.327 . S
C266 C285 1.429 . S
C266 H290 0.950 . S
C267 C284 1.574 . S
C267 C286 1.368 . S
C267 H291 0.949 . S
H268 C272 0.949 . S
C269 C270 1.349 . S
C269 C271 1.327 . S
C269 H292 0.950 . S
C270 C269 1.349 . S
C270 C282 1.349 . S
C271 C269 1.327 . S
C271 C287 1.429 . S
C271 H293 0.950 . S
C272 H268 0.949 . S
C272 C280 1.574 . S
C272 C288 1.368 . S
H273 C281 0.950 . S
H274 C279 0.950 . S
H275 C280 0.949 . S
H276 C282 0.950 . S
H277 C283 0.950 . S
H278 C284 0.949 . S
C279 H274 0.950 . S
C279 C281 1.327 . S
C279 C285 1.429 . S
C280 C272 1.574 . S
C280 H275 0.949 . S
C280 C286 1.368 . S
C281 C265 1.349 . S
C281 H273 0.950 . S
C281 C279 1.327 . S
C282 C270 1.349 . S
C282 H276 0.950 . S
C282 C283 1.327 . S
C283 H277 0.950 . S
C283 C282 1.327 . S
C283 C287 1.429 . S
C284 C267 1.574 . S
C284 H278 0.949 . S
C284 C288 1.368 . S
C285 C266 1.429 . S
C285 C279 1.429 . S
C285 C286 1.523 . S
C286 C267 1.368 . S
C286 C280 1.368 . S
C286 C285 1.523 . S
C287 C271 1.429 . S
C287 C283 1.429 . S
C287 C288 1.523 . S
C288 C272 1.368 . S
C288 C284 1.368 . S
C288 C287 1.523 . S
H289 C264 0.954 . S
H290 C266 0.950 . S
H291 C267 0.949 . S
H292 C269 0.950 . S
H293 C271 0.950 . S
C294 C295 1.349 . S
C294 C296 1.327 . S
C294 H319 0.950 . S
C295 C294 1.349 . S
C295 C311 1.349 . S
C296 C294 1.327 . S
C296 C315 1.429 . S
C296 H320 0.950 . S
C297 C314 1.574 . S
C297 C316 1.368 . S
C297 H321 0.949 . S
H298 C302 0.949 . S
C299 C300 1.349 . S
C299 C301 1.327 . S
C299 H322 0.950 . S
C300 C299 1.349 . S
C300 C312 1.349 . S
C301 C299 1.327 . S
C301 C317 1.429 . S
C301 H323 0.950 . S
C302 H298 0.949 . S
C302 C310 1.574 . S
C302 C318 1.368 . S
H303 C311 0.950 . S
H304 C309 0.950 . S
H305 C310 0.949 . S
H306 C312 0.950 . S
H307 C313 0.950 . S
H308 C314 0.949 . S
C309 H304 0.950 . S
C309 C311 1.327 . S
C309 C315 1.429 . S
C310 C302 1.574 . S
C310 H305 0.949 . S
C310 C316 1.368 . S
C311 C295 1.349 . S
C311 H303 0.950 . S
C311 C309 1.327 . S
C312 C300 1.349 . S
C312 H306 0.950 . S
C312 C313 1.327 . S
C313 H307 0.950 . S
C313 C312 1.327 . S
C313 C317 1.429 . S
C314 C297 1.574 . S
C314 H308 0.949 . S
C314 C318 1.368 . S
C315 C296 1.429 . S
C315 C309 1.429 . S
C315 C316 1.523 . S
C316 C297 1.368 . S
C316 C310 1.368 . S
C316 C315 1.523 . S
C317 C301 1.429 . S
C317 C313 1.429 . S
C317 C318 1.523 . S
C318 C302 1.368 . S
C318 C314 1.368 . S
C318 C317 1.523 . S
H319 C294 0.950 . S
H320 C296 0.950 . S
H321 C297 0.949 . S
H322 C299 0.950 . S
H323 C301 0.950 . S
C324 C325 1.349 . S
C324 C326 1.327 . S
C324 H349 0.950 . S
C325 C324 1.349 . S
C325 C341 1.349 . S
C326 C324 1.327 . S
C326 C345 1.429 . S
C326 H350 0.950 . S
C327 C344 1.574 . S
C327 C346 1.368 . S
C327 H351 0.949 . S
H328 C332 0.949 . S
C329 C330 1.349 . S
C329 C331 1.327 . S
C329 H352 0.950 . S
C330 C329 1.349 . S
C330 C342 1.349 . S
C331 C329 1.327 . S
C331 C347 1.429 . S
C331 H353 0.950 . S
C332 H328 0.949 . S
C332 C340 1.574 . S
C332 C348 1.368 . S
H333 C341 0.950 . S
H334 C339 0.950 . S
H335 C340 0.949 . S
H336 C342 0.950 . S
H337 C343 0.950 . S
H338 C344 0.949 . S
C339 H334 0.950 . S
C339 C341 1.327 . S
C339 C345 1.429 . S
C340 C332 1.574 . S
C340 H335 0.949 . S
C340 C346 1.368 . S
C341 C325 1.349 . S
C341 H333 0.950 . S
C341 C339 1.327 . S
C342 C330 1.349 . S
C342 H336 0.950 . S
C342 C343 1.327 . S
C343 H337 0.950 . S
C343 C342 1.327 . S
C343 C347 1.429 . S
C344 C327 1.574 . S
C344 H338 0.949 . S
C344 C348 1.368 . S
C345 C326 1.429 . S
C345 C339 1.429 . S
C345 C346 1.523 . S
C346 C327 1.368 . S
C346 C340 1.368 . S
C346 C345 1.523 . S
C347 C331 1.429 . S
C347 C343 1.429 . S
C347 C348 1.523 . S
C348 C332 1.368 . S
C348 C344 1.368 . S
C348 C347 1.523 . S
H349 C324 0.950 . S
H350 C326 0.950 . S
H351 C327 0.949 . S
H352 C329 0.950 . S
H353 C331 0.950 . S
C354 C355 1.349 . S
C354 C356 1.327 . S
C354 H379 0.950 . S
C355 C354 1.349 . S
C355 C371 1.349 . S
C356 C354 1.327 . S
C356 C375 1.429 . S
C356 H380 0.950 . S
C357 C374 1.574 . S
C357 C376 1.368 . S
C357 H381 0.949 . S
H358 C362 0.949 . S
C359 C360 1.349 . S
C359 C361 1.327 . S
C359 H382 0.950 . S
C360 C359 1.349 . S
C360 C372 1.349 . S
C361 C359 1.327 . S
C361 C377 1.429 . S
C361 H383 0.950 . S
C362 H358 0.949 . S
C362 C370 1.574 . S
C362 C378 1.368 . S
H363 C371 0.950 . S
H364 C369 0.950 . S
H365 C370 0.949 . S
H366 C372 0.950 . S
H367 C373 0.950 . S
H368 C374 0.949 . S
C369 H364 0.950 . S
C369 C371 1.327 . S
C369 C375 1.429 . S
C370 C362 1.574 . S
C370 H365 0.949 . S
C370 C376 1.368 . S
C371 C355 1.349 . S
C371 H363 0.950 . S
C371 C369 1.327 . S
C372 C360 1.349 . S
C372 H366 0.950 . S
C372 C373 1.327 . S
C373 H367 0.950 . S
C373 C372 1.327 . S
C373 C377 1.429 . S
C374 C357 1.574 . S
C374 H368 0.949 . S
C374 C378 1.368 . S
C375 C356 1.429 . S
C375 C369 1.429 . S
C375 C376 1.523 . S
C376 C357 1.368 . S
C376 C370 1.368 . S
C376 C375 1.523 . S
C377 C361 1.429 . S
C377 C373 1.429 . S
C377 C378 1.523 . S
C378 C362 1.368 . S
C378 C374 1.368 . S
C378 C377 1.523 . S
H379 C354 0.950 . S
H380 C356 0.950 . S
H381 C357 0.949 . S
H382 C359 0.950 . S
H383 C361 0.950 . S
C384 C385 1.349 . S
C384 C386 1.327 . S
C384 H409 0.950 . S
C385 C384 1.349 . S
C385 C401 1.349 . S
C386 C384 1.327 . S
C386 C405 1.429 . S
C386 H410 0.950 . S
C387 C404 1.574 . S
C387 C406 1.368 . S
C387 H411 0.949 . S
H388 C392 0.949 . S
C389 C390 1.349 . S
C389 C391 1.327 . S
C389 H412 0.950 . S
C390 C389 1.349 . S
C390 C402 1.349 . S
C391 C389 1.327 . S
C391 C407 1.429 . S
C391 H413 0.950 . S
C392 H388 0.949 . S
C392 C400 1.574 . S
C392 C408 1.368 . S
H393 C401 0.950 . S
H394 C399 0.950 . S
H395 C400 0.949 . S
H396 C402 0.950 . S
H397 C403 0.950 . S
H398 C404 0.949 . S
C399 H394 0.950 . S
C399 C401 1.327 . S
C399 C405 1.429 . S
C400 C392 1.574 . S
C400 H395 0.949 . S
C400 C406 1.368 . S
C401 C385 1.349 . S
C401 H393 0.950 . S
C401 C399 1.327 . S
C402 C390 1.349 . S
C402 H396 0.950 . S
C402 C403 1.327 . S
C403 H397 0.950 . S
C403 C402 1.327 . S
C403 C407 1.429 . S
C404 C387 1.574 . S
C404 H398 0.949 . S
C404 C408 1.368 . S
C405 C386 1.429 . S
C405 C399 1.429 . S
C405 C406 1.523 . S
C406 C387 1.368 . S
C406 C400 1.368 . S
C406 C405 1.523 . S
C407 C391 1.429 . S
C407 C403 1.429 . S
C407 C408 1.523 . S
C408 C392 1.368 . S
C408 C404 1.368 . S
C408 C407 1.523 . S
H409 C384 0.950 . S
H410 C386 0.950 . S
H411 C387 0.949 . S
H412 C389 0.950 . S
H413 C391 0.950 . S
C414 C415 1.349 1_655 S
C414 C416 1.327 . S
C414 H439 0.950 . S
C415 C414 1.349 1_455 S
C415 C431 1.349 1_545 S
C416 C414 1.327 . S
C416 C435 1.429 1_655 S
C416 H440 0.950 . S
C417 C434 1.574 . S
C417 C436 1.368 1_565 S
C417 H441 0.949 . S
H418 C422 0.949 . S
C419 C420 1.342 1_465 S
C419 C421 1.327 . S
C419 H442 0.950 . S
C420 C419 1.342 1_645 S
C420 C432 1.356 . S
C421 C419 1.327 . S
C421 C437 1.429 1_565 S
C421 H443 0.950 . S
C422 H418 0.949 . S
C422 C430 1.574 . S
C422 C438 1.368 1_655 S
H423 C431 0.950 . S
H424 C429 0.950 . S
H425 C430 0.949 . S
H426 C432 0.950 . S
H427 C433 0.950 . S
H428 C434 0.949 . S
C429 H424 0.950 . S
C429 C431 1.327 . S
C429 C435 1.429 1_565 S
C430 C422 1.574 . S
C430 H425 0.949 . S
C430 C436 1.368 1_655 S
C431 C415 1.349 1_565 S
C431 H423 0.950 . S
C431 C429 1.327 . S
C432 C420 1.356 . S
C432 H426 0.950 . S
C432 C433 1.327 . S
C433 H427 0.950 . S
C433 C432 1.327 . S
C433 C437 1.429 1_655 S
C434 C417 1.574 . S
C434 H428 0.949 . S
C434 C438 1.368 1_565 S
C435 C416 1.429 1_455 S
C435 C429 1.429 1_545 S
C435 C436 1.523 . S
C436 C417 1.368 1_545 S
C436 C430 1.368 1_455 S
C436 C435 1.523 . S
C437 C421 1.429 1_545 S
C437 C433 1.429 1_455 S
C437 C438 1.523 . S
C438 C422 1.368 1_455 S
C438 C434 1.368 1_545 S
C438 C437 1.523 . S
H439 C414 0.950 . S
H440 C416 0.950 . S
H441 C417 0.949 . S
H442 C419 0.950 . S
H443 C421 0.950 . S
C444 C445 1.349 1_665 S
C444 C446 1.327 . S
C444 H469 0.950 . S
C445 C444 1.349 1_445 S
C445 C461 1.349 . S
C446 C444 1.327 . S
C446 C465 1.429 1_665 S
C446 H470 0.950 . S
C447 C464 1.574 . S
C447 C466 1.368 . S
C447 H471 0.949 . S
H448 C452 0.949 . S
C449 C450 1.349 . S
C449 C451 1.327 . S
C449 H472 0.950 . S
C450 C449 1.349 . S
C450 C462 1.349 1_445 S
C451 C449 1.327 . S
C451 C467 1.429 . S
C451 H473 0.950 . S
C452 H448 0.949 . S
C452 C460 1.574 . S
C452 C468 1.368 1_665 S
H453 C461 0.950 . S
H454 C459 0.950 . S
H455 C460 0.949 . S
H456 C462 0.950 . S
H457 C463 0.950 . S
H458 C464 0.949 . S
C459 H454 0.950 . S
C459 C461 1.327 . S
C459 C465 1.429 . S
C460 C452 1.574 . S
C460 H455 0.949 . S
C460 C466 1.368 1_665 S
C461 C445 1.349 . S
C461 H453 0.950 . S
C461 C459 1.327 . S
C462 C450 1.349 1_665 S
C462 H456 0.950 . S
C462 C463 1.327 . S
C463 H457 0.950 . S
C463 C462 1.327 . S
C463 C467 1.429 1_665 S
C464 C447 1.574 . S
C464 H458 0.949 . S
C464 C468 1.368 . S
C465 C446 1.429 1_445 S
C465 C459 1.429 . S
C465 C466 1.523 . S
C466 C447 1.368 . S
C466 C460 1.368 1_445 S
C466 C465 1.523 . S
C467 C451 1.429 . S
C467 C463 1.429 1_445 S
C467 C468 1.523 . S
C468 C452 1.368 1_445 S
C468 C464 1.368 . S
C468 C467 1.523 . S
H469 C444 0.950 . S
H470 C446 0.950 . S
H471 C447 0.949 . S
H472 C449 0.950 . S
H473 C451 0.950 . S
C474 C475 1.349 . S
C474 C476 1.327 . S
C474 H499 0.950 . S
C475 C474 1.349 . S
C475 C491 1.349 . S
C476 C474 1.327 . S
C476 C495 1.429 . S
C476 H500 0.950 . S
C477 C494 1.574 . S
C477 C496 1.368 . S
C477 H501 0.949 . S
H478 C482 0.949 . S
C479 C480 1.349 . S
C479 C481 1.327 . S
C479 H502 0.950 . S
C480 C479 1.349 . S
C480 C492 1.349 . S
C481 C479 1.327 . S
C481 C497 1.429 . S
C481 H503 0.950 . S
C482 H478 0.949 . S
C482 C490 1.574 . S
C482 C498 1.368 . S
H483 C491 0.950 . S
H484 C489 0.950 . S
H485 C490 0.949 . S
H486 C492 0.950 . S
H487 C493 0.950 . S
H488 C494 0.949 . S
C489 H484 0.950 . S
C489 C491 1.327 . S
C489 C495 1.429 . S
C490 C482 1.574 . S
C490 H485 0.949 . S
C490 C496 1.368 . S
C491 C475 1.349 . S
C491 H483 0.950 . S
C491 C489 1.327 . S
C492 C480 1.349 . S
C492 H486 0.950 . S
C492 C493 1.327 . S
C493 H487 0.950 . S
C493 C492 1.327 . S
C493 C497 1.429 . S
C494 C477 1.574 . S
C494 H488 0.949 . S
C494 C498 1.368 . S
C495 C476 1.429 . S
C495 C489 1.429 . S
C495 C496 1.523 . S
C496 C477 1.368 . S
C496 C490 1.368 . S
C496 C495 1.523 . S
C497 C481 1.429 . S
C497 C493 1.429 . S
C497 C498 1.523 . S
C498 C482 1.368 . S
C498 C494 1.368 . S
C498 C497 1.523 . S
H499 C474 0.950 . S
H500 C476 0.950 . S
H501 C477 0.949 . S
H502 C479 0.950 . S
H503 C481 0.950 . S
C504 C505 1.349 . S
C504 C506 1.327 . S
C504 H529 0.950 . S
C505 C504 1.349 . S
C505 C521 1.349 . S
C506 C504 1.327 . S
C506 C525 1.429 . S
C506 H530 0.950 . S
C507 C524 1.574 . S
C507 C526 1.368 . S
C507 H531 0.949 . S
H508 C512 0.949 . S
C509 C510 1.349 . S
C509 C511 1.327 . S
C509 H532 0.950 . S
C510 C509 1.349 . S
C510 C522 1.349 . S
C511 C509 1.327 . S
C511 C527 1.429 . S
C511 H533 0.950 . S
C512 H508 0.949 . S
C512 C520 1.574 . S
C512 C528 1.368 . S
H513 C521 0.950 . S
H514 C519 0.950 . S
H515 C520 0.949 . S
H516 C522 0.950 . S
H517 C523 0.950 . S
H518 C524 0.949 . S
C519 H514 0.950 . S
C519 C521 1.327 . S
C519 C525 1.429 . S
C520 C512 1.574 . S
C520 H515 0.949 . S
C520 C526 1.368 . S
C521 C505 1.349 . S
C521 H513 0.950 . S
C521 C519 1.327 . S
C522 C510 1.349 . S
C522 H516 0.950 . S
C522 C523 1.327 . S
C523 H517 0.950 . S
C523 C522 1.327 . S
C523 C527 1.429 . S
C524 C507 1.574 . S
C524 H518 0.949 . S
C524 C528 1.368 . S
C525 C506 1.429 . S
C525 C519 1.429 . S
C525 C526 1.523 . S
C526 C507 1.368 . S
C526 C520 1.368 . S
C526 C525 1.523 . S
C527 C511 1.429 . S
C527 C523 1.429 . S
C527 C528 1.523 . S
C528 C512 1.368 . S
C528 C524 1.368 . S
C528 C527 1.523 . S
H529 C504 0.950 . S
H530 C506 0.950 . S
H531 C507 0.949 . S
H532 C509 0.950 . S
H533 C511 0.950 . S
C180 C159 1.398 . S
C175 C21 1.412 . S
C205 C19 1.405 . S
C210 C127 1.387 . S
C235 C18 1.364 . S
C240 C165 1.354 . S
C265 C20 1.387 . S
C270 C133 1.364 . S
C295 C44 1.412 . S
C300 C95 1.398 . S
C325 C42 1.402 . S
C330 C63 1.388 . S
C360 C101 1.353 . S
C355 C41 1.364 . S
C390 C69 1.364 . S
C385 C43 1.387 . S
C415 C16 1.494 . S
C420 C75 1.456 1_655 S
C445 C17 1.454 . S
C450 C107 1.425 1_545 S
C480 C139 1.458 . S
C475 C39 1.493 . S
C505 C40 1.454 . S
C510 C171 1.425 . S
