# Generated by pormake.
# Topology anh, (6,3)-cn, num edge types: 1
# Building blocks:
#     Node 0, Type 0, BuildingBlock: INOVEN_clean_sbu_0, # of connection points: 6
#     Node 1, Type 0, BuildingBlock: INOVEN_clean_sbu_0, # of connection points: 6
#     Node 2, Type 0, BuildingBlock: INOVEN_clean_sbu_0, # of connection points: 6
#     Node 3, Type 1, BuildingBlock: CUQRIR_clean_linker_1, # of connection points: 3
#     Node 4, Type 1, BuildingBlock: CUQRIR_clean_linker_1, # of connection points: 3
#     Node 5, Type 1, BuildingBlock: CUQRIR_clean_linker_1, # of connection points: 3
#     Node 6, Type 1, BuildingBlock: CUQRIR_clean_linker_1, # of connection points: 3
#     Node 7, Type 1, BuildingBlock: CUQRIR_clean_linker_1, # of connection points: 3
#     Node 8, Type 1, BuildingBlock: CUQRIR_clean_linker_1, # of connection points: 3
#     Edge 9, Type (0, 1), BuildingBlock: CIFDUS_clean_linker_0, # of connection points: 2
#     Edge 10, Type (0, 1), BuildingBlock: CIFDUS_clean_linker_0, # of connection points: 2
#     Edge 11, Type (0, 1), BuildingBlock: CIFDUS_clean_linker_0, # of connection points: 2
#     Edge 12, Type (0, 1), BuildingBlock: CIFDUS_clean_linker_0, # of connection points: 2
#     Edge 13, Type (0, 1), BuildingBlock: CIFDUS_clean_linker_0, # of connection points: 2
#     Edge 14, Type (0, 1), BuildingBlock: CIFDUS_clean_linker_0, # of connection points: 2
#     Edge 15, Type (0, 1), BuildingBlock: CIFDUS_clean_linker_0, # of connection points: 2
#     Edge 16, Type (0, 1), BuildingBlock: CIFDUS_clean_linker_0, # of connection points: 2
#     Edge 17, Type (0, 1), BuildingBlock: CIFDUS_clean_linker_0, # of connection points: 2
#     Edge 18, Type (0, 1), BuildingBlock: CIFDUS_clean_linker_0, # of connection points: 2
#     Edge 19, Type (0, 1), BuildingBlock: CIFDUS_clean_linker_0, # of connection points: 2
#     Edge 20, Type (0, 1), BuildingBlock: CIFDUS_clean_linker_0, # of connection points: 2
#     Edge 21, Type (0, 1), BuildingBlock: CIFDUS_clean_linker_0, # of connection points: 2
#     Edge 22, Type (0, 1), BuildingBlock: CIFDUS_clean_linker_0, # of connection points: 2
#     Edge 23, Type (0, 1), BuildingBlock: CIFDUS_clean_linker_0, # of connection points: 2
#     Edge 24, Type (0, 1), BuildingBlock: CIFDUS_clean_linker_0, # of connection points: 2
#     Edge 25, Type (0, 1), BuildingBlock: CIFDUS_clean_linker_0, # of connection points: 2
#     Edge 26, Type (0, 1), BuildingBlock: CIFDUS_clean_linker_0, # of connection points: 2
# Relax obj value: 0.228
# Max RMSD: 0.223
# Mean RMSD: 0.171
data_MOF--net-anh--node1-INOVEN_clean_sbu_0--node2-CUQRIR_clean_linker_1--edge1-CIFDUS_clean_linker_0
_symmetry_space_group_name_H-M    P1
_symmetry_Int_Tables_number       1
_symmetry_cell_setting            triclinic
loop_
_symmetry_equiv_pos_as_xyz
'x, y, z'
_cell_length_a     25.151365
_cell_length_b     31.535077
_cell_length_c     40.445664
_cell_angle_alpha  88.209998
_cell_angle_beta   90.502431
_cell_angle_gamma 132.0011
loop_
_atom_site_label
_atom_site_type_symbol
_atom_site_fract_x
_atom_site_fract_y
_atom_site_fract_z
_atom_type_partial_charge
Gd0 Gd 0.2417 0.56324 0.15512 0.0
Gd1 Gd 0.14111 0.57724 0.1554 0.0
C2 C 0.30229 0.69097 0.16079 0.0
C3 C 0.33989 0.559 0.14862 0.0
C4 C 0.33872 0.51324 0.15809 0.0
C5 C 0.27739 0.46258 0.17342 0.0
C6 C 0.39781 0.51921 0.15131 0.0
C7 C 0.33227 0.42219 0.1728 0.0
C8 C 0.3947 0.47405 0.15862 0.0
C9 C 0.27408 0.41729 0.18066 0.0
C10 C 0.18894 0.55062 0.21638 0.0
C11 C 1.07871 0.44657 0.15703 0.0
C12 C 1.03652 0.57363 0.16391 0.0
C13 C 0.96349 0.5384 0.15135 0.0
C14 C 0.94887 0.52519 0.11776 0.0
C15 C 0.90724 0.51649 0.1735 0.0
C16 C 0.82239 0.47015 0.12852 0.0
C17 C 0.8373 0.48244 0.16226 0.0
C18 C 0.87889 0.49154 0.10642 0.0
C19 C 0.19228 0.58961 0.0935 0.0
O20 O 0.31444 0.66052 0.14698 0.0
O21 O 0.23739 0.66427 0.1724 0.0
O22 O 0.29702 0.54745 0.12468 0.0
O23 O 0.33707 0.58309 0.17332 0.0
O24 O 0.19875 0.51825 0.20527 0.0
O25 O 0.20878 0.58872 0.19497 0.0
O26 O 1.0649 0.47981 0.16146 0.0
O27 O 0.14479 0.46955 0.1505 0.0
O28 O 1.08858 0.60834 0.14251 0.0
O29 O 1.0483 0.54739 0.18388 0.0
O30 O 0.1834 0.6219 0.10562 0.0
O31 O 0.17282 0.55094 0.11462 0.0
H32 H 0.23143 0.45754 0.17909 0.0
H33 H 0.44552 0.55812 0.13956 0.0
H34 H 0.43995 0.47881 0.15159 0.0
H35 H 0.22545 0.37799 0.19158 0.0
H36 H 0.99146 0.54109 0.10024 0.0
H37 H 0.91741 0.5256 0.19956 0.0
H38 H 0.79483 0.46559 0.18008 0.0
H39 H 0.8693 0.48322 0.08028 0.0
Gd40 Gd 0.82918 0.10493 0.47824 0.0
Gd41 Gd 0.73089 0.12454 0.46599 0.0
C42 C 0.65906 0.99528 0.46677 0.0
C43 C 0.88848 0.06759 0.50128 0.0
C44 C 0.8697 1.01305 0.51081 0.0
C45 C 0.90592 0.99926 0.49536 0.0
C46 C 0.81919 0.97596 0.53604 0.0
C47 C 0.84425 0.9137 0.53105 0.0
C48 C 0.80661 0.92682 0.54603 0.0
C49 C 0.89318 0.95019 0.5052 0.0
C50 C 0.82388 0.12806 0.41394 0.0
C51 C 0.90412 0.23545 0.47372 0.0
C52 C 0.66908 0.16219 0.44825 0.0
C53 C 0.67548 0.21016 0.45784 0.0
C54 C 0.72908 0.25128 0.47944 0.0
C55 C 0.62474 0.21288 0.44704 0.0
C56 C 0.67852 0.29561 0.48075 0.0
C57 C 0.62623 0.25518 0.45833 0.0
C58 C 0.73074 0.29374 0.49071 0.0
C59 C 0.73885 0.10281 0.53026 0.0
O60 O 0.71912 1.01515 0.48116 0.0
O61 O 0.65365 0.03109 0.45335 0.0
O62 O 0.88717 0.07739 0.46977 0.0
O63 O 0.86418 0.08467 0.52003 0.0
O64 O 0.88146 0.14555 0.42848 0.0
O65 O 0.77042 0.09614 0.43343 0.0
O66 O 0.8408 0.21564 0.46379 0.0
O67 O 0.91217 0.2 0.48442 0.0
O68 O 0.64355 0.12248 0.4712 0.0
O69 O 0.72348 0.17527 0.43216 0.0
O70 O 0.68049 0.08345 0.51601 0.0
O71 O 0.79112 0.13524 0.51039 0.0
H72 H 0.94502 0.02697 0.47584 0.0
H73 H 0.79025 0.98533 0.54847 0.0
H74 H 0.76885 0.90001 0.56611 0.0
H75 H 0.92205 0.94098 0.49251 0.0
H76 H 0.76849 0.24964 0.48825 0.0
H77 H 0.58296 0.18152 0.43039 0.0
H78 H 0.58583 0.2558 0.44977 0.0
H79 H 0.77129 0.32375 0.50818 0.0
Gd80 Gd 0.643 0.60451 0.85589 0.0
Gd81 Gd 0.53818 0.47063 0.84774 0.0
C82 C 0.46386 0.52846 0.85571 0.0
C83 C 0.71605 0.71232 0.84448 0.0
C84 C 0.70804 0.75126 0.82991 0.0
C85 C 0.76368 0.81017 0.83324 0.0
C86 C 0.64719 0.73101 0.81205 0.0
C87 C 0.69904 0.82888 0.80034 0.0
C88 C 0.64264 0.76949 0.79744 0.0
C89 C 0.75929 0.84853 0.81869 0.0
C90 C 0.6004 0.53966 0.91165 0.0
C91 C 0.71762 0.54712 0.85444 0.0
C92 C 0.46893 0.36383 0.85936 0.0
C93 C 0.47438 0.32402 0.84586 0.0
C94 C 0.52016 0.34105 0.81882 0.0
C95 C 0.43944 0.27103 0.86192 0.0
C96 C 0.49763 0.25294 0.82454 0.0
C97 C 0.45073 0.23567 0.8513 0.0
C98 C 0.53154 0.30583 0.80821 0.0
C99 C 0.58771 0.52607 0.7876 0.0
O100 O 0.53098 0.57985 0.85262 0.0
O101 O 0.45466 0.48093 0.85678 0.0
O102 O 0.68213 0.68578 0.87255 0.0
O103 O 0.71377 0.67984 0.82388 0.0
O104 O 0.663 0.59115 0.90859 0.0
O105 O 0.56383 0.52806 0.88643 0.0
O106 O 0.65039 0.49615 0.85302 0.0
O107 O 0.72764 0.59479 0.8544 0.0
O108 O 0.44552 0.3817 0.83931 0.0
O109 O 0.52478 0.4049 0.8762 0.0
O110 O 0.5408 0.47096 0.7914 0.0
O111 O 0.6023 0.54669 0.81572 0.0
H112 H 0.81098 0.82664 0.847 0.0
H113 H 0.60364 0.68559 0.80913 0.0
H114 H 0.59563 0.7528 0.78338 0.0
H115 H 0.80309 0.89374 0.82208 0.0
H116 H 0.54831 0.38218 0.80635 0.0
H117 H 0.40482 0.25762 0.88318 0.0
H118 H 0.42437 0.19558 0.86469 0.0
H119 H 0.56716 0.32017 0.78725 0.0
C120 C 0.70219 0.07167 0.17583 0.0
N121 N 0.74018 0.1132 0.19876 0.0
N122 N 0.64931 0.01919 0.19056 0.0
C123 C 0.71364 0.08277 0.13913 0.0
C124 C 0.65719 0.03037 0.22313 0.0
N125 N 0.71092 0.08684 0.2281 0.0
C126 C 0.61489 0.98529 0.25048 0.0
H127 H 0.72836 0.12387 0.13222 0.0
H128 H 0.66506 0.04764 0.12567 0.0
H129 H 0.75848 0.0859 0.13157 0.0
H130 H 0.6479 0.9977 0.2728 0.0
H131 H 0.59491 0.9435 0.24252 0.0
H132 H 0.56832 0.98035 0.25731 0.0
C133 C 0.74721 0.59549 0.55484 0.0
N134 N 0.72993 0.61491 0.57812 0.0
N135 N 0.72444 0.54391 0.56442 0.0
C136 C 0.78033 0.62422 0.52154 0.0
C137 C 0.69281 0.53271 0.59429 0.0
N138 N 0.69565 0.57546 0.60251 0.0
C139 C 0.66093 0.48069 0.61598 0.0
H140 H 0.76546 0.59281 0.50298 0.0
H141 H 0.83942 0.65571 0.52376 0.0
H142 H 0.76343 0.64727 0.51273 0.0
H143 H 0.68647 0.4634 0.61087 0.0
H144 H 0.60292 0.44732 0.61095 0.0
H145 H 0.66709 0.49087 0.64253 0.0
C146 C 1.09129 0.53674 0.85481 0.0
N147 N 0.13512 0.53509 0.87529 0.0
N148 N 1.04241 0.53579 0.8721 0.0
C149 C 1.09719 0.54044 0.81787 0.0
C150 C 1.05873 0.53303 0.90377 0.0
N151 N 0.1129 0.53274 0.90572 0.0
C152 C 1.02069 0.53024 0.93352 0.0
H153 H 0.14071 0.58577 0.80982 0.0
H154 H 1.04663 0.52454 0.80652 0.0
H155 H 0.11115 0.51582 0.80923 0.0
H156 H 0.96371 0.50653 0.92813 0.0
H157 H 1.04673 0.57434 0.93996 0.0
H158 H 1.02325 0.50939 0.95526 0.0
C159 C 0.25854 0.61667 0.45841 0.0
N160 N 0.2155 0.57366 0.43682 0.0
N161 N 0.31018 0.66755 0.44194 0.0
C162 C 0.2476 0.60954 0.49522 0.0
C163 C 0.29656 0.65391 0.40978 0.0
N164 N 0.23908 0.59763 0.40661 0.0
C165 C 0.34044 0.69607 0.38134 0.0
H166 H 0.19012 0.58359 0.50138 0.0
H167 H 0.28029 0.65145 0.50707 0.0
H168 H 0.26316 0.58606 0.50519 0.0
H169 H 0.3962 0.73198 0.38887 0.0
H170 H 0.31632 0.71384 0.37318 0.0
H171 H 0.34139 0.67511 0.36012 0.0
C172 C 0.62115 0.05918 0.76929 0.0
N173 N 0.63736 0.03777 0.74704 0.0
N174 N 0.63455 0.10568 0.75625 0.0
C175 C 0.59623 0.03696 0.80436 0.0
C176 C 0.65975 0.112 0.72535 0.0
N177 N 0.66246 0.07129 0.71986 0.0
C178 C 0.675 0.15448 0.69945 0.0
H179 H 0.53718 1.00182 0.80483 0.0
H180 H 0.61038 0.07099 0.82046 0.0
H181 H 0.62019 0.01991 0.81435 0.0
H182 H 0.73357 0.19138 0.69796 0.0
H183 H 0.64798 0.17022 0.70552 0.0
H184 H 0.65717 0.13522 0.67479 0.0
C185 C 0.3816 0.22376 0.08189 0.0
N186 N 0.43025 0.25949 0.05762 0.0
N187 N 0.32722 0.22325 0.08257 0.0
C188 C 0.39285 0.19561 0.10817 0.0
C189 C 0.34115 0.25585 0.05531 0.0
N190 N 0.40342 0.27793 0.04048 0.0
C191 C 0.30248 0.27641 0.04772 0.0
H192 H 0.40963 0.17484 0.09628 0.0
H193 H 0.34318 0.1634 0.12306 0.0
H194 H 0.43655 0.22807 0.12476 0.0
H195 H 0.30997 0.30239 0.06829 0.0
H196 H 0.24437 0.23919 0.04556 0.0
H197 H 0.32172 0.30304 0.02468 0.0
H198 H 0.21866 0.3142 0.15465 0.0
H199 H 0.43076 0.41696 0.19475 0.0
H200 H 0.43793 0.34726 0.17816 0.0
H201 H 0.3997 0.27726 0.13758 0.0
H202 H 0.19068 0.17584 0.095 0.0
H203 H 0.16462 0.22346 0.12871 0.0
C204 C 0.2651 0.32007 0.16116 0.0
C205 C 0.32538 0.37171 0.17466 0.0
C206 C 0.26959 0.28053 0.1507 0.0
C207 C 0.38477 0.3784 0.18331 0.0
C208 C 0.38884 0.33856 0.17385 0.0
C209 C 0.34675 0.2628 0.13699 0.0
C210 C 0.29837 0.22507 0.11264 0.0
C211 C 0.33392 0.2921 0.15524 0.0
C212 C 0.22957 0.20624 0.11283 0.0
C213 C 0.21517 0.23407 0.13177 0.0
H214 H 0.91481 0.32144 0.44499 0.0
H215 H 1.03872 0.29293 0.49791 0.0
H216 H 0.14453 0.3948 0.49295 0.0
H217 H 0.20467 0.49298 0.47154 0.0
H218 H 1.08185 0.52057 0.41718 0.0
H219 H 0.97393 0.41925 0.42468 0.0
C220 C 0.96475 0.3374 0.45567 0.0
C221 C 0.96797 0.29874 0.47186 0.0
C222 C 1.02627 0.39647 0.45236 0.0
C223 C 1.03389 0.32097 0.48528 0.0
C224 C 1.09482 0.37956 0.48244 0.0
C225 C 0.15395 0.47675 0.4618 0.0
C226 C 0.15119 0.51442 0.44397 0.0
C227 C 1.09202 0.41784 0.46582 0.0
C228 C 1.0853 0.49253 0.43098 0.0
C229 C 1.0236 0.43451 0.43525 0.0
H230 H 0.58415 0.82152 0.79658 0.0
H231 H 0.807 0.93057 0.76824 0.0
H232 H 0.80607 1.00319 0.74673 0.0
H233 H 0.74429 0.0391 0.73955 0.0
H234 H 0.52213 0.93056 0.7675 0.0
H235 H 0.51978 0.85414 0.78495 0.0
C236 C 0.63223 0.86074 0.78522 0.0
C237 C 0.69581 0.87065 0.78455 0.0
C238 C 0.63143 0.90261 0.77285 0.0
C239 C 0.75766 0.92211 0.76985 0.0
C240 C 0.75714 0.96366 0.75732 0.0
C241 C 0.69524 0.99822 0.74887 0.0
C242 C 0.63366 0.99039 0.7526 0.0
C243 C 0.69475 0.95488 0.75922 0.0
C244 C 0.57029 0.93752 0.76487 0.0
C245 C 0.56905 0.89397 0.77484 0.0
H246 H 0.75282 0.38784 0.08188 0.0
H247 H 0.72582 0.47758 0.14797 0.0
H248 H 0.6022 0.41985 0.13126 0.0
H249 H 0.50126 0.34299 0.09918 0.0
H250 H 0.52486 0.25455 0.03105 0.0
H251 H 0.6514 0.31334 0.0467 0.0
C252 C 0.72013 0.39521 0.09229 0.0
C253 C 0.74832 0.4364 0.11659 0.0
C254 C 0.64898 0.36234 0.08215 0.0
C255 C 0.70507 0.44521 0.12994 0.0
C256 C 0.63453 0.41256 0.12023 0.0
C257 C 0.53469 0.33708 0.08777 0.0
C258 C 0.50524 0.29545 0.064 0.0
C259 C 0.606 0.37084 0.09669 0.0
C260 C 0.5476 0.2872 0.04911 0.0
C261 C 0.61937 0.32056 0.05816 0.0
H262 H 0.51474 0.93294 0.45687 0.0
H263 H 0.66703 0.91345 0.47424 0.0
H264 H 0.57183 0.81006 0.4718 0.0
H265 H 0.4452 0.72398 0.4614 0.0
H266 H 0.29236 0.74222 0.44495 0.0
H267 H 0.38623 0.84592 0.45091 0.0
C268 C 0.5271 0.90609 0.46014 0.0
C269 C 0.59869 0.93168 0.4654 0.0
C270 C 0.47132 0.84581 0.45927 0.0
C271 C 0.61294 0.89561 0.47003 0.0
C272 C 0.55827 0.8361 0.4687 0.0
C273 C 0.43235 0.75064 0.46027 0.0
C274 C 0.36152 0.72531 0.45363 0.0
C275 C 0.48724 0.81056 0.46313 0.0
C276 C 0.34601 0.7606 0.45099 0.0
C277 C 0.4 0.82 0.45392 0.0
H278 H 0.62581 0.28714 0.80624 0.0
H279 H 0.40212 0.13658 0.81939 0.0
H280 H 0.42555 0.07706 0.8014 0.0
H281 H 0.5092 0.06812 0.77947 0.0
H282 H 0.73142 0.21869 0.76493 0.0
H283 H 0.70928 0.2781 0.78558 0.0
C284 C 0.582 0.24135 0.80492 0.0
C285 C 0.51218 0.21654 0.81401 0.0
C286 C 0.59574 0.20741 0.79427 0.0
C287 C 0.45646 0.1569 0.81282 0.0
C288 C 0.46975 0.1228 0.80237 0.0
C289 C 0.5526 0.11385 0.78132 0.0
C290 C 0.62181 0.13933 0.77087 0.0
C291 C 0.53908 0.14759 0.79284 0.0
C292 C 0.67785 0.19859 0.77289 0.0
C293 C 0.66509 0.23236 0.7846 0.0
H294 H 0.7199 0.80646 0.55073 0.0
H295 H 0.94705 0.9074 0.53794 0.0
H296 H 0.93209 0.82465 0.55331 0.0
H297 H 0.85403 0.72215 0.56795 0.0
H298 H 0.62775 0.62065 0.58101 0.0
H299 H 0.64279 0.70503 0.56916 0.0
C300 C 0.76631 0.81064 0.55174 0.0
C301 C 0.8344 0.86323 0.54259 0.0
C302 C 0.75749 0.76269 0.56091 0.0
C303 C 0.89371 0.86736 0.54394 0.0
C304 C 0.88537 0.82008 0.55302 0.0
C305 C 0.80838 0.71897 0.56849 0.0
C306 C 0.74001 0.66564 0.57535 0.0
C307 C 0.81749 0.76738 0.5611 0.0
C308 C 0.68095 0.66158 0.57618 0.0
C309 C 0.68955 0.70967 0.56909 0.0
H310 H 0.74261 0.47253 0.83597 0.0
H311 H 0.84999 0.63356 0.88125 0.0
H312 H 0.9556 0.64543 0.88955 0.0
H313 H 1.02162 0.6107 0.88595 0.0
H314 H 0.91982 0.45345 0.83761 0.0
H315 H 0.81304 0.44091 0.8287 0.0
C316 C 0.78886 0.51058 0.84762 0.0
C317 C 0.78471 0.55193 0.85798 0.0
C318 C 0.85306 0.51843 0.85177 0.0
C319 C 0.84819 0.60044 0.87269 0.0
C320 C 0.91 0.60743 0.87758 0.0
C321 C 0.97694 0.57398 0.87281 0.0
C322 C 0.98243 0.53377 0.86197 0.0
C323 C 0.91393 0.56698 0.86738 0.0
C324 C 0.92085 0.48639 0.84568 0.0
C325 C 0.85831 0.47883 0.84086 0.0
H326 H 0.44681 0.7655 0.14181 0.0
H327 H 0.29 0.76089 0.18959 0.0
H328 H 0.38141 0.86211 0.19983 0.0
H329 H 0.50724 0.95198 0.19853 0.0
H330 H 0.6669 0.9598 0.1523 0.0
H331 H 0.57407 0.85895 0.13758 0.0
C332 C 0.43253 0.78668 0.15428 0.0
C333 C 0.36073 0.75449 0.16502 0.0
C334 C 0.48627 0.84613 0.16027 0.0
C335 C 0.34409 0.78351 0.18105 0.0
C336 C 0.39662 0.84189 0.18697 0.0
C337 C 0.52142 0.93175 0.18473 0.0
C338 C 0.59396 0.96355 0.17641 0.0
C339 C 0.46793 0.87355 0.17707 0.0
C340 C 0.61153 0.93665 0.15863 0.0
C341 C 0.55836 0.8787 0.15057 0.0
H342 H 0.79009 0.40905 0.49235 0.0
H343 H 0.56043 0.27538 0.502 0.0
H344 H 0.55426 0.34119 0.52722 0.0
H345 H 0.61407 0.43605 0.54835 0.0
H346 H 0.84296 0.56961 0.54014 0.0
H347 H 0.84983 0.50505 0.51246 0.0
C348 C 0.73874 0.39431 0.50005 0.0
C349 C 0.67581 0.3372 0.49513 0.0
C350 C 0.7355 0.43247 0.51481 0.0
C351 C 0.60965 0.31916 0.50495 0.0
C352 C 0.60604 0.35671 0.51962 0.0
C353 C 0.66528 0.45073 0.54045 0.0
C354 C 0.728 0.50712 0.54634 0.0
C355 C 0.66855 0.41328 0.52487 0.0
C356 C 0.79415 0.52631 0.53567 0.0
C357 C 0.79796 0.48935 0.52004 0.0
H358 H 0.43682 0.60268 0.83626 0.0
H359 H 0.3333 0.44125 0.88675 0.0
H360 H 0.22804 0.42899 0.89734 0.0
H361 H 0.16047 0.46276 0.89347 0.0
H362 H 0.25833 0.61998 0.83939 0.0
H363 H 0.36548 0.63376 0.82936 0.0
C364 C 0.39152 0.56448 0.84957 0.0
C365 C 0.39664 0.52313 0.86061 0.0
C366 C 0.32753 0.55639 0.85511 0.0
C367 C 0.33431 0.47439 0.87752 0.0
C368 C 0.27273 0.4672 0.88378 0.0
C369 C 0.20478 0.50021 0.87933 0.0
C370 C 0.19821 0.54016 0.86733 0.0
C371 C 0.26783 0.50765 0.87287 0.0
C372 C 0.2586 0.58767 0.84891 0.0
C373 C 0.32124 0.59581 0.84325 0.0
H374 H 0.94554 0.3828 0.18702 0.0
H375 H 1.07954 0.36497 0.13639 0.0
H376 H 0.98722 0.26116 0.1439 0.0
H377 H 0.86771 0.17381 0.16583 0.0
H378 H 0.73675 0.19208 0.21875 0.0
H379 H 0.82751 0.29601 0.20968 0.0
C380 C 0.95449 0.35629 0.17739 0.0
C381 C 1.01993 0.38247 0.16083 0.0
C382 C 0.90129 0.29603 0.18245 0.0
C383 C 1.03017 0.34672 0.14909 0.0
C384 C 0.97714 0.28699 0.15343 0.0
C385 C 0.8591 0.20065 0.1752 0.0
C386 C 0.79515 0.17494 0.19296 0.0
C387 C 0.91244 0.26094 0.17018 0.0
C388 C 0.7854 0.21059 0.20525 0.0
C389 C 0.83734 0.27014 0.19993 0.0
H390 H 0.14271 0.49907 0.0547 0.0
H391 H 0.26053 0.67961 0.05075 0.0
H392 H 0.25903 0.68012 0.99049 0.0
H393 H 0.20781 0.62683 0.93934 0.0
H394 H 1.08265 0.44587 0.94235 0.0
H395 H 0.10449 0.44759 0.00184 0.0
C396 C 0.16953 0.53865 0.04055 0.0
C397 C 0.20123 0.58921 0.05724 0.0
C398 C 0.16691 0.53841 0.00554 0.0
C399 C 0.23526 0.64007 0.03854 0.0
C400 C 0.2344 0.64043 0.00402 0.0
C401 C 0.18826 0.58841 0.95289 0.0
C402 C 0.14521 0.53657 0.93649 0.0
C403 C 0.19831 0.5896 0.98727 0.0
C404 C 0.11767 0.48644 0.95435 0.0
C405 C 0.12915 0.4874 0.98848 0.0
H406 H 0.71855 0.11271 0.37977 0.0
H407 H 0.91999 0.15579 0.36678 0.0
H408 H 0.90879 0.15606 0.3067 0.0
H409 H 0.83423 0.1327 0.2578 0.0
H410 H 0.63488 0.09205 0.27078 0.0
H411 H 0.65336 0.10395 0.33055 0.0
C412 C 0.76028 0.12278 0.36373 0.0
C413 C 0.81933 0.13321 0.37768 0.0
C414 C 0.75406 0.12378 0.32911 0.0
C415 C 0.87362 0.14707 0.35665 0.0
C416 C 0.86733 0.14731 0.32225 0.0
C417 C 0.79657 0.12878 0.27372 0.0
C418 C 0.73346 0.11175 0.26018 0.0
C419 C 0.80702 0.13448 0.30816 0.0
C420 C 0.68406 0.10568 0.28089 0.0
C421 C 0.69419 0.11168 0.31504 0.0
H422 H 0.51642 0.49405 0.73086 0.0
H423 H 0.72466 0.62444 0.77179 0.0
H424 H 0.77723 0.6591 0.71575 0.0
H425 H 0.76538 0.64029 0.65539 0.0
H426 H 0.55634 0.50863 0.61594 0.0
H427 H 0.50174 0.48698 0.67084 0.0
C428 C 0.57302 0.53109 0.72743 0.0
C429 C 0.61687 0.55652 0.75518 0.0
C430 C 0.60247 0.55016 0.69534 0.0
C431 C 0.68996 0.60455 0.75067 0.0
C432 C 0.71999 0.62393 0.71864 0.0
C433 C 0.70777 0.60855 0.65887 0.0
C434 C 0.66445 0.57593 0.63198 0.0
C435 C 0.67713 0.59557 0.6908 0.0
C436 C 0.59002 0.53421 0.63648 0.0
C437 C 0.55911 0.52155 0.66784 0.0
H438 H 0.63515 1.01753 0.57168 0.0
H439 H 0.85306 0.17862 0.56973 0.0
H440 H 0.8525 0.17868 0.63037 0.0
H441 H 0.78324 0.13917 0.68323 0.0
H442 H 0.566 0.97835 0.68476 0.0
H443 H 0.57314 0.97058 0.62513 0.0
C444 C 0.68288 0.05212 0.58463 0.0
C445 C 0.74362 0.09852 0.56644 0.0
C446 C 0.68208 0.05166 0.61937 0.0
C447 C 0.80558 0.14267 0.58331 0.0
C448 C 0.80514 0.14276 0.61793 0.0
C449 C 0.73859 0.10169 0.67049 0.0
C450 C 0.67411 0.05937 0.688 0.0
C451 C 0.74289 0.09839 0.63615 0.0
C452 C 0.61613 1.01095 0.67161 0.0
C453 C 0.62003 1.00701 0.63753 0.0
H454 H 0.47618 0.43046 0.91595 0.0
H455 H 0.66647 0.55744 0.9707 0.0
H456 H 0.62259 0.4871 0.01629 0.0
H457 H 0.52763 0.38984 0.04022 0.0
H458 H 0.35288 0.25898 0.97947 0.0
H459 H 0.39481 0.33035 0.93514 0.0
C460 C 0.50955 0.44235 0.93726 0.0
C461 C 0.57527 0.4986 0.9396 0.0
C462 C 0.48702 0.40088 0.96185 0.0
C463 C 0.61595 0.51415 0.96822 0.0
C464 C 0.59106 0.47391 0.99413 0.0
C465 C 0.50056 0.37612 0.01689 0.0
C466 C 0.43751 0.31879 0.01296 0.0
C467 C 0.52677 0.41698 0.99108 0.0
C468 C 0.40169 0.30281 0.98277 0.0
C469 C 0.42523 0.34359 0.95768 0.0
H470 H 0.19068 0.49533 0.26886 0.0
H471 H 0.16538 0.6147 0.24302 0.0
H472 H 0.16585 0.63215 0.30148 0.0
H473 H 0.18938 0.62305 0.35912 0.0
H474 H 0.22497 0.51061 0.38498 0.0
H475 H 0.20224 0.47906 0.32769 0.0
C476 C 0.18408 0.5244 0.27613 0.0
C477 C 0.17895 0.55431 0.25174 0.0
C478 C 0.18626 0.53534 0.3098 0.0
C479 C 0.17019 0.59171 0.26139 0.0
C480 C 0.17044 0.60169 0.29478 0.0
C481 C 0.19069 0.59084 0.35211 0.0
C482 C 0.20952 0.56949 0.37572 0.0
C483 C 0.18077 0.57518 0.31906 0.0
C484 C 0.21046 0.52735 0.36696 0.0
C485 C 0.19826 0.50994 0.33422 0.0
loop_
_geom_bond_atom_site_label_1
_geom_bond_atom_site_label_2
_geom_bond_distance
_geom_bond_site_symmetry_2
_ccdc_geom_bond_type
Gd0 C3 2.818 . S
Gd0 O20 2.377 . S
Gd0 O22 2.448 . S
Gd0 O23 2.506 . S
Gd0 O24 2.435 . S
Gd0 O25 2.717 1_455 S
Gd0 O27 2.395 1_455 S
Gd0 O31 2.327 . S
Gd1 C12 2.818 . S
Gd1 O21 2.395 1_655 S
Gd1 O25 2.327 . S
Gd1 O26 2.377 . S
Gd1 O28 2.448 . S
Gd1 O29 2.506 . S
Gd1 O30 2.435 . S
Gd1 O31 2.717 1_655 S
C2 O20 1.240 . S
C2 O21 1.240 . S
C3 Gd0 2.818 . S
C3 C4 1.510 . S
C3 O22 1.249 . S
C3 O23 1.252 . S
C4 C3 1.510 . S
C4 C5 1.404 . S
C4 C6 1.352 . S
C5 C4 1.404 . S
C5 C9 1.389 . S
C5 H32 0.930 . S
C6 C4 1.352 . S
C6 C8 1.374 . S
C6 H33 0.931 . S
C7 C8 1.359 . S
C7 C9 1.364 . S
C8 C6 1.374 . S
C8 C7 1.359 . S
C8 H34 0.931 . S
C9 C5 1.389 . S
C9 C7 1.364 . S
C9 H35 0.931 . S
C10 O24 1.256 . S
C10 O25 1.257 1_455 S
C11 O26 1.240 . S
C11 O27 1.240 . S
C12 Gd1 2.818 . S
C12 C13 1.510 . S
C12 O28 1.249 . S
C12 O29 1.252 . S
C13 C12 1.510 . S
C13 C14 1.404 . S
C13 C15 1.352 . S
C14 C13 1.404 . S
C14 C18 1.389 . S
C14 H36 0.930 . S
C15 C13 1.352 . S
C15 C17 1.374 . S
C15 H37 0.931 . S
C16 C17 1.359 . S
C16 C18 1.364 . S
C17 C15 1.374 . S
C17 C16 1.359 . S
C17 H38 0.931 . S
C18 C14 1.389 . S
C18 C16 1.364 . S
C18 H39 0.931 . S
C19 O30 1.256 1_455 S
C19 O31 1.257 . S
O20 Gd0 2.377 . S
O20 C2 1.240 . S
O21 Gd1 2.395 1_455 S
O21 C2 1.240 . S
O22 Gd0 2.448 . S
O22 C3 1.249 . S
O23 Gd0 2.506 . S
O23 C3 1.252 . S
O24 Gd0 2.435 . S
O24 C10 1.256 . S
O25 Gd0 2.717 1_655 S
O25 Gd1 2.327 . S
O25 C10 1.257 1_655 S
O26 Gd1 2.377 . S
O26 C11 1.240 . S
O27 Gd0 2.395 1_655 S
O27 C11 1.240 . S
O28 Gd1 2.448 . S
O28 C12 1.249 . S
O29 Gd1 2.506 . S
O29 C12 1.252 . S
O30 Gd1 2.435 . S
O30 C19 1.256 1_655 S
O31 Gd0 2.327 . S
O31 Gd1 2.717 1_455 S
O31 C19 1.257 . S
H32 C5 0.930 . S
H33 C6 0.931 . S
H34 C8 0.931 . S
H35 C9 0.931 . S
H36 C14 0.930 . S
H37 C15 0.931 . S
H38 C17 0.931 . S
H39 C18 0.931 . S
Gd40 C43 2.818 1_545 S
Gd40 O60 2.377 1_545 S
Gd40 O62 2.448 1_545 S
Gd40 O63 2.506 1_545 S
Gd40 O64 2.435 . S
Gd40 O65 2.717 . S
Gd40 O67 2.395 . S
Gd40 O71 2.327 . S
Gd41 C52 2.818 . S
Gd41 O61 2.395 1_545 S
Gd41 O65 2.327 . S
Gd41 O66 2.377 . S
Gd41 O68 2.448 . S
Gd41 O69 2.506 . S
Gd41 O70 2.435 . S
Gd41 O71 2.717 . S
C42 O60 1.240 . S
C42 O61 1.240 . S
C43 Gd40 2.818 1_565 S
C43 C44 1.510 . S
C43 O62 1.249 . S
C43 O63 1.252 . S
C44 C43 1.510 . S
C44 C45 1.404 . S
C44 C46 1.352 . S
C45 C44 1.404 . S
C45 C49 1.389 . S
C45 H72 0.930 . S
C46 C44 1.352 . S
C46 C48 1.374 . S
C46 H73 0.931 . S
C47 C48 1.359 . S
C47 C49 1.364 . S
C48 C46 1.374 . S
C48 C47 1.359 . S
C48 H74 0.931 . S
C49 C45 1.389 . S
C49 C47 1.364 . S
C49 H75 0.931 . S
C50 O64 1.256 . S
C50 O65 1.257 . S
C51 O66 1.240 . S
C51 O67 1.240 . S
C52 Gd41 2.818 . S
C52 C53 1.510 . S
C52 O68 1.249 . S
C52 O69 1.252 . S
C53 C52 1.510 . S
C53 C54 1.404 . S
C53 C55 1.352 . S
C54 C53 1.404 . S
C54 C58 1.389 . S
C54 H76 0.930 . S
C55 C53 1.352 . S
C55 C57 1.374 . S
C55 H77 0.931 . S
C56 C57 1.359 . S
C56 C58 1.364 . S
C57 C55 1.374 . S
C57 C56 1.359 . S
C57 H78 0.931 . S
C58 C54 1.389 . S
C58 C56 1.364 . S
C58 H79 0.931 . S
C59 O70 1.256 . S
C59 O71 1.257 . S
O60 Gd40 2.377 1_565 S
O60 C42 1.240 . S
O61 Gd41 2.395 1_565 S
O61 C42 1.240 . S
O62 Gd40 2.448 1_565 S
O62 C43 1.249 . S
O63 Gd40 2.506 1_565 S
O63 C43 1.252 . S
O64 Gd40 2.435 . S
O64 C50 1.256 . S
O65 Gd40 2.717 . S
O65 Gd41 2.327 . S
O65 C50 1.257 . S
O66 Gd41 2.377 . S
O66 C51 1.240 . S
O67 Gd40 2.395 . S
O67 C51 1.240 . S
O68 Gd41 2.448 . S
O68 C52 1.249 . S
O69 Gd41 2.506 . S
O69 C52 1.252 . S
O70 Gd41 2.435 . S
O70 C59 1.256 . S
O71 Gd40 2.327 . S
O71 Gd41 2.717 . S
O71 C59 1.257 . S
H72 C45 0.930 . S
H73 C46 0.931 . S
H74 C48 0.931 . S
H75 C49 0.931 . S
H76 C54 0.930 . S
H77 C55 0.931 . S
H78 C57 0.931 . S
H79 C58 0.931 . S
Gd80 C83 2.818 . S
Gd80 O100 2.377 . S
Gd80 O102 2.448 . S
Gd80 O103 2.506 . S
Gd80 O104 2.435 . S
Gd80 O105 2.717 . S
Gd80 O107 2.395 . S
Gd80 O111 2.327 . S
Gd81 C92 2.818 . S
Gd81 O101 2.395 . S
Gd81 O105 2.327 . S
Gd81 O106 2.377 . S
Gd81 O108 2.448 . S
Gd81 O109 2.506 . S
Gd81 O110 2.435 . S
Gd81 O111 2.717 . S
C82 O100 1.240 . S
C82 O101 1.240 . S
C83 Gd80 2.818 . S
C83 C84 1.510 . S
C83 O102 1.249 . S
C83 O103 1.252 . S
C84 C83 1.510 . S
C84 C85 1.404 . S
C84 C86 1.352 . S
C85 C84 1.404 . S
C85 C89 1.389 . S
C85 H112 0.930 . S
C86 C84 1.352 . S
C86 C88 1.374 . S
C86 H113 0.931 . S
C87 C88 1.359 . S
C87 C89 1.364 . S
C88 C86 1.374 . S
C88 C87 1.359 . S
C88 H114 0.931 . S
C89 C85 1.389 . S
C89 C87 1.364 . S
C89 H115 0.931 . S
C90 O104 1.256 . S
C90 O105 1.257 . S
C91 O106 1.240 . S
C91 O107 1.240 . S
C92 Gd81 2.818 . S
C92 C93 1.510 . S
C92 O108 1.249 . S
C92 O109 1.252 . S
C93 C92 1.510 . S
C93 C94 1.404 . S
C93 C95 1.352 . S
C94 C93 1.404 . S
C94 C98 1.389 . S
C94 H116 0.930 . S
C95 C93 1.352 . S
C95 C97 1.374 . S
C95 H117 0.931 . S
C96 C97 1.359 . S
C96 C98 1.364 . S
C97 C95 1.374 . S
C97 C96 1.359 . S
C97 H118 0.931 . S
C98 C94 1.389 . S
C98 C96 1.364 . S
C98 H119 0.931 . S
C99 O110 1.256 . S
C99 O111 1.257 . S
O100 Gd80 2.377 . S
O100 C82 1.240 . S
O101 Gd81 2.395 . S
O101 C82 1.240 . S
O102 Gd80 2.448 . S
O102 C83 1.249 . S
O103 Gd80 2.506 . S
O103 C83 1.252 . S
O104 Gd80 2.435 . S
O104 C90 1.256 . S
O105 Gd80 2.717 . S
O105 Gd81 2.327 . S
O105 C90 1.257 . S
O106 Gd81 2.377 . S
O106 C91 1.240 . S
O107 Gd80 2.395 . S
O107 C91 1.240 . S
O108 Gd81 2.448 . S
O108 C92 1.249 . S
O109 Gd81 2.506 . S
O109 C92 1.252 . S
O110 Gd81 2.435 . S
O110 C99 1.256 . S
O111 Gd80 2.327 . S
O111 Gd81 2.717 . S
O111 C99 1.257 . S
H112 C85 0.930 . S
H113 C86 0.931 . S
H114 C88 0.931 . S
H115 C89 0.931 . S
H116 C94 0.930 . S
H117 C95 0.931 . S
H118 C97 0.931 . S
H119 C98 0.931 . S
C120 N121 1.317 1_565 S
C120 N122 1.348 . S
C120 C123 1.485 1_565 S
N121 C120 1.317 1_545 S
N121 N125 1.370 . S
N122 C120 1.348 . S
N122 C124 1.346 . S
C123 C120 1.485 1_545 S
C123 H127 0.960 . S
C123 H128 0.961 1_545 S
C123 H129 0.960 . S
C124 N122 1.346 . S
C124 N125 1.307 1_565 S
C124 C126 1.486 . S
N125 N121 1.370 . S
N125 C124 1.307 1_545 S
C126 C124 1.486 . S
C126 H130 0.960 . S
C126 H131 0.960 . S
C126 H132 0.959 . S
H127 C123 0.960 . S
H128 C123 0.961 1_565 S
H129 C123 0.960 . S
H130 C126 0.960 . S
H131 C126 0.960 . S
H132 C126 0.959 . S
C133 N134 1.317 . S
C133 N135 1.348 . S
C133 C136 1.485 . S
N134 C133 1.317 . S
N134 N138 1.370 . S
N135 C133 1.348 . S
N135 C137 1.346 . S
C136 C133 1.485 . S
C136 H140 0.960 . S
C136 H141 0.961 . S
C136 H142 0.960 . S
C137 N135 1.346 . S
C137 N138 1.307 . S
C137 C139 1.486 . S
N138 N134 1.370 . S
N138 C137 1.307 . S
C139 C137 1.486 . S
C139 H143 0.960 . S
C139 H144 0.960 . S
C139 H145 0.959 . S
H140 C136 0.960 . S
H141 C136 0.961 . S
H142 C136 0.960 . S
H143 C139 0.960 . S
H144 C139 0.960 . S
H145 C139 0.959 . S
C146 N147 1.317 . S
C146 N148 1.348 . S
C146 C149 1.485 . S
N147 C146 1.317 . S
N147 N151 1.370 . S
N148 C146 1.348 . S
N148 C150 1.346 . S
C149 C146 1.485 . S
C149 H153 0.960 . S
C149 H154 0.961 . S
C149 H155 0.960 . S
C150 N148 1.346 . S
C150 N151 1.307 . S
C150 C152 1.486 1_455 S
N151 N147 1.370 . S
N151 C150 1.307 . S
C152 C150 1.486 1_655 S
C152 H156 0.960 . S
C152 H157 0.960 . S
C152 H158 0.959 1_655 S
H153 C149 0.960 . S
H154 C149 0.961 . S
H155 C149 0.960 . S
H156 C152 0.960 . S
H157 C152 0.960 . S
H158 C152 0.959 1_455 S
C159 N160 1.317 . S
C159 N161 1.348 . S
C159 C162 1.485 . S
N160 C159 1.317 . S
N160 N164 1.370 . S
N161 C159 1.348 . S
N161 C163 1.346 . S
C162 C159 1.485 . S
C162 H166 0.960 . S
C162 H167 0.961 . S
C162 H168 0.960 . S
C163 N161 1.346 . S
C163 N164 1.307 . S
C163 C165 1.486 . S
N164 N160 1.370 . S
N164 C163 1.307 . S
C165 C163 1.486 . S
C165 H169 0.960 . S
C165 H170 0.960 . S
C165 H171 0.959 . S
H166 C162 0.960 . S
H167 C162 0.961 . S
H168 C162 0.960 . S
H169 C165 0.960 . S
H170 C165 0.960 . S
H171 C165 0.959 . S
C172 N173 1.317 . S
C172 N174 1.348 . S
C172 C175 1.485 . S
N173 C172 1.317 . S
N173 N177 1.370 . S
N174 C172 1.348 . S
N174 C176 1.346 . S
C175 C172 1.485 . S
C175 H179 0.960 . S
C175 H180 0.961 . S
C175 H181 0.960 . S
C176 N174 1.346 . S
C176 N177 1.307 . S
C176 C178 1.486 . S
N177 N173 1.370 . S
N177 C176 1.307 . S
C178 C176 1.486 . S
C178 H182 0.960 . S
C178 H183 0.960 . S
C178 H184 0.959 . S
H179 C175 0.960 . S
H180 C175 0.961 . S
H181 C175 0.960 . S
H182 C178 0.960 . S
H183 C178 0.960 . S
H184 C178 0.959 . S
C185 N186 1.317 . S
C185 N187 1.348 . S
C185 C188 1.485 . S
N186 C185 1.317 . S
N186 N190 1.370 . S
N187 C185 1.348 . S
N187 C189 1.346 . S
C188 C185 1.485 . S
C188 H192 0.960 . S
C188 H193 0.961 . S
C188 H194 0.960 . S
C189 N187 1.346 . S
C189 N190 1.307 . S
C189 C191 1.486 . S
N190 N186 1.370 . S
N190 C189 1.307 . S
C191 C189 1.486 . S
C191 H195 0.960 . S
C191 H196 0.960 . S
C191 H197 0.959 . S
H192 C188 0.960 . S
H193 C188 0.961 . S
H194 C188 0.960 . S
H195 C191 0.960 . S
H196 C191 0.960 . S
H197 C191 0.959 . S
H198 C204 0.930 . S
H199 C207 0.930 . S
H200 C208 0.930 . S
H201 C209 0.930 . S
H202 C212 0.930 . S
H203 C213 0.930 . S
C204 H198 0.930 . S
C204 C205 1.355 . S
C204 C206 1.415 . S
C205 C204 1.355 . S
C205 C207 1.419 . S
C206 C204 1.415 . S
C206 C211 1.425 . S
C206 C213 1.409 . S
C207 H199 0.930 . S
C207 C205 1.419 . S
C207 C208 1.362 . S
C208 H200 0.930 . S
C208 C207 1.362 . S
C208 C211 1.409 . S
C209 H201 0.930 . S
C209 C210 1.355 . S
C209 C211 1.415 . S
C210 C209 1.355 . S
C210 C212 1.419 . S
C211 C206 1.425 . S
C211 C208 1.409 . S
C211 C209 1.415 . S
C212 H202 0.930 . S
C212 C210 1.419 . S
C212 C213 1.362 . S
C213 H203 0.930 . S
C213 C206 1.409 . S
C213 C212 1.362 . S
H214 C220 0.930 . S
H215 C223 0.930 . S
H216 C224 0.930 . S
H217 C225 0.930 . S
H218 C228 0.930 . S
H219 C229 0.930 . S
C220 H214 0.930 . S
C220 C221 1.355 . S
C220 C222 1.415 . S
C221 C220 1.355 . S
C221 C223 1.419 . S
C222 C220 1.415 . S
C222 C227 1.425 . S
C222 C229 1.409 . S
C223 H215 0.930 . S
C223 C221 1.419 . S
C223 C224 1.362 . S
C224 H216 0.930 . S
C224 C223 1.362 . S
C224 C227 1.409 . S
C225 H217 0.930 . S
C225 C226 1.355 . S
C225 C227 1.415 . S
C226 C225 1.355 . S
C226 C228 1.419 . S
C227 C222 1.425 . S
C227 C224 1.409 . S
C227 C225 1.415 . S
C228 H218 0.930 . S
C228 C226 1.419 . S
C228 C229 1.362 . S
C229 H219 0.930 . S
C229 C222 1.409 . S
C229 C228 1.362 . S
H230 C236 0.930 . S
H231 C239 0.930 . S
H232 C240 0.930 1_545 S
H233 C241 0.930 1_545 S
H234 C244 0.930 . S
H235 C245 0.930 . S
C236 H230 0.930 . S
C236 C237 1.355 . S
C236 C238 1.415 . S
C237 C236 1.355 . S
C237 C239 1.419 . S
C238 C236 1.415 . S
C238 C243 1.425 . S
C238 C245 1.409 . S
C239 H231 0.930 . S
C239 C237 1.419 . S
C239 C240 1.362 . S
C240 H232 0.930 1_565 S
C240 C239 1.362 . S
C240 C243 1.409 . S
C241 H233 0.930 1_565 S
C241 C242 1.355 . S
C241 C243 1.415 . S
C242 C241 1.355 . S
C242 C244 1.419 . S
C243 C238 1.425 . S
C243 C240 1.409 . S
C243 C241 1.415 . S
C244 H234 0.930 . S
C244 C242 1.419 . S
C244 C245 1.362 . S
C245 H235 0.930 . S
C245 C238 1.409 . S
C245 C244 1.362 . S
H246 C252 0.930 . S
H247 C255 0.930 . S
H248 C256 0.930 . S
H249 C257 0.930 . S
H250 C260 0.930 . S
H251 C261 0.930 . S
C252 H246 0.930 . S
C252 C253 1.355 . S
C252 C254 1.415 . S
C253 C252 1.355 . S
C253 C255 1.419 . S
C254 C252 1.415 . S
C254 C259 1.425 . S
C254 C261 1.409 . S
C255 H247 0.930 . S
C255 C253 1.419 . S
C255 C256 1.362 . S
C256 H248 0.930 . S
C256 C255 1.362 . S
C256 C259 1.409 . S
C257 H249 0.930 . S
C257 C258 1.355 . S
C257 C259 1.415 . S
C258 C257 1.355 . S
C258 C260 1.419 . S
C259 C254 1.425 . S
C259 C256 1.409 . S
C259 C257 1.415 . S
C260 H250 0.930 . S
C260 C258 1.419 . S
C260 C261 1.362 . S
C261 H251 0.930 . S
C261 C254 1.409 . S
C261 C260 1.362 . S
H262 C268 0.930 . S
H263 C271 0.930 . S
H264 C272 0.930 . S
H265 C273 0.930 . S
H266 C276 0.930 . S
H267 C277 0.930 . S
C268 H262 0.930 . S
C268 C269 1.355 . S
C268 C270 1.415 . S
C269 C268 1.355 . S
C269 C271 1.419 . S
C270 C268 1.415 . S
C270 C275 1.425 . S
C270 C277 1.409 . S
C271 H263 0.930 . S
C271 C269 1.419 . S
C271 C272 1.362 . S
C272 H264 0.930 . S
C272 C271 1.362 . S
C272 C275 1.409 . S
C273 H265 0.930 . S
C273 C274 1.355 . S
C273 C275 1.415 . S
C274 C273 1.355 . S
C274 C276 1.419 . S
C275 C270 1.425 . S
C275 C272 1.409 . S
C275 C273 1.415 . S
C276 H266 0.930 . S
C276 C274 1.419 . S
C276 C277 1.362 . S
C277 H267 0.930 . S
C277 C270 1.409 . S
C277 C276 1.362 . S
H278 C284 0.930 . S
H279 C287 0.930 . S
H280 C288 0.930 . S
H281 C289 0.930 . S
H282 C292 0.930 . S
H283 C293 0.930 . S
C284 H278 0.930 . S
C284 C285 1.355 . S
C284 C286 1.415 . S
C285 C284 1.355 . S
C285 C287 1.419 . S
C286 C284 1.415 . S
C286 C291 1.425 . S
C286 C293 1.409 . S
C287 H279 0.930 . S
C287 C285 1.419 . S
C287 C288 1.362 . S
C288 H280 0.930 . S
C288 C287 1.362 . S
C288 C291 1.409 . S
C289 H281 0.930 . S
C289 C290 1.355 . S
C289 C291 1.415 . S
C290 C289 1.355 . S
C290 C292 1.419 . S
C291 C286 1.425 . S
C291 C288 1.409 . S
C291 C289 1.415 . S
C292 H282 0.930 . S
C292 C290 1.419 . S
C292 C293 1.362 . S
C293 H283 0.930 . S
C293 C286 1.409 . S
C293 C292 1.362 . S
H294 C300 0.930 . S
H295 C303 0.930 . S
H296 C304 0.930 . S
H297 C305 0.930 . S
H298 C308 0.930 . S
H299 C309 0.930 . S
C300 H294 0.930 . S
C300 C301 1.355 . S
C300 C302 1.415 . S
C301 C300 1.355 . S
C301 C303 1.419 . S
C302 C300 1.415 . S
C302 C307 1.425 . S
C302 C309 1.409 . S
C303 H295 0.930 . S
C303 C301 1.419 . S
C303 C304 1.362 . S
C304 H296 0.930 . S
C304 C303 1.362 . S
C304 C307 1.409 . S
C305 H297 0.930 . S
C305 C306 1.355 . S
C305 C307 1.415 . S
C306 C305 1.355 . S
C306 C308 1.419 . S
C307 C302 1.425 . S
C307 C304 1.409 . S
C307 C305 1.415 . S
C308 H298 0.930 . S
C308 C306 1.419 . S
C308 C309 1.362 . S
C309 H299 0.930 . S
C309 C302 1.409 . S
C309 C308 1.362 . S
H310 C316 0.930 . S
H311 C319 0.930 . S
H312 C320 0.930 . S
H313 C321 0.930 . S
H314 C324 0.930 . S
H315 C325 0.930 . S
C316 H310 0.930 . S
C316 C317 1.355 . S
C316 C318 1.415 . S
C317 C316 1.355 . S
C317 C319 1.419 . S
C318 C316 1.415 . S
C318 C323 1.425 . S
C318 C325 1.409 . S
C319 H311 0.930 . S
C319 C317 1.419 . S
C319 C320 1.362 . S
C320 H312 0.930 . S
C320 C319 1.362 . S
C320 C323 1.409 . S
C321 H313 0.930 . S
C321 C322 1.355 . S
C321 C323 1.415 . S
C322 C321 1.355 . S
C322 C324 1.419 . S
C323 C318 1.425 . S
C323 C320 1.409 . S
C323 C321 1.415 . S
C324 H314 0.930 . S
C324 C322 1.419 . S
C324 C325 1.362 . S
C325 H315 0.930 . S
C325 C318 1.409 . S
C325 C324 1.362 . S
H326 C332 0.930 . S
H327 C335 0.930 . S
H328 C336 0.930 . S
H329 C337 0.930 . S
H330 C340 0.930 . S
H331 C341 0.930 . S
C332 H326 0.930 . S
C332 C333 1.355 . S
C332 C334 1.415 . S
C333 C332 1.355 . S
C333 C335 1.419 . S
C334 C332 1.415 . S
C334 C339 1.425 . S
C334 C341 1.409 . S
C335 H327 0.930 . S
C335 C333 1.419 . S
C335 C336 1.362 . S
C336 H328 0.930 . S
C336 C335 1.362 . S
C336 C339 1.409 . S
C337 H329 0.930 . S
C337 C338 1.355 . S
C337 C339 1.415 . S
C338 C337 1.355 . S
C338 C340 1.419 . S
C339 C334 1.425 . S
C339 C336 1.409 . S
C339 C337 1.415 . S
C340 H330 0.930 . S
C340 C338 1.419 . S
C340 C341 1.362 . S
C341 H331 0.930 . S
C341 C334 1.409 . S
C341 C340 1.362 . S
H342 C348 0.930 . S
H343 C351 0.930 . S
H344 C352 0.930 . S
H345 C353 0.930 . S
H346 C356 0.930 . S
H347 C357 0.930 . S
C348 H342 0.930 . S
C348 C349 1.355 . S
C348 C350 1.415 . S
C349 C348 1.355 . S
C349 C351 1.419 . S
C350 C348 1.415 . S
C350 C355 1.425 . S
C350 C357 1.409 . S
C351 H343 0.930 . S
C351 C349 1.419 . S
C351 C352 1.362 . S
C352 H344 0.930 . S
C352 C351 1.362 . S
C352 C355 1.409 . S
C353 H345 0.930 . S
C353 C354 1.355 . S
C353 C355 1.415 . S
C354 C353 1.355 . S
C354 C356 1.419 . S
C355 C350 1.425 . S
C355 C352 1.409 . S
C355 C353 1.415 . S
C356 H346 0.930 . S
C356 C354 1.419 . S
C356 C357 1.362 . S
C357 H347 0.930 . S
C357 C350 1.409 . S
C357 C356 1.362 . S
H358 C364 0.930 . S
H359 C367 0.930 . S
H360 C368 0.930 . S
H361 C369 0.930 . S
H362 C372 0.930 . S
H363 C373 0.930 . S
C364 H358 0.930 . S
C364 C365 1.355 . S
C364 C366 1.415 . S
C365 C364 1.355 . S
C365 C367 1.419 . S
C366 C364 1.415 . S
C366 C371 1.425 . S
C366 C373 1.409 . S
C367 H359 0.930 . S
C367 C365 1.419 . S
C367 C368 1.362 . S
C368 H360 0.930 . S
C368 C367 1.362 . S
C368 C371 1.409 . S
C369 H361 0.930 . S
C369 C370 1.355 . S
C369 C371 1.415 . S
C370 C369 1.355 . S
C370 C372 1.419 . S
C371 C366 1.425 . S
C371 C368 1.409 . S
C371 C369 1.415 . S
C372 H362 0.930 . S
C372 C370 1.419 . S
C372 C373 1.362 . S
C373 H363 0.930 . S
C373 C366 1.409 . S
C373 C372 1.362 . S
H374 C380 0.930 . S
H375 C383 0.930 . S
H376 C384 0.930 . S
H377 C385 0.930 . S
H378 C388 0.930 . S
H379 C389 0.930 . S
C380 H374 0.930 . S
C380 C381 1.355 . S
C380 C382 1.415 . S
C381 C380 1.355 . S
C381 C383 1.419 . S
C382 C380 1.415 . S
C382 C387 1.425 . S
C382 C389 1.409 . S
C383 H375 0.930 . S
C383 C381 1.419 . S
C383 C384 1.362 . S
C384 H376 0.930 . S
C384 C383 1.362 . S
C384 C387 1.409 . S
C385 H377 0.930 . S
C385 C386 1.355 . S
C385 C387 1.415 . S
C386 C385 1.355 . S
C386 C388 1.419 . S
C387 C382 1.425 . S
C387 C384 1.409 . S
C387 C385 1.415 . S
C388 H378 0.930 . S
C388 C386 1.419 . S
C388 C389 1.362 . S
C389 H379 0.930 . S
C389 C382 1.409 . S
C389 C388 1.362 . S
H390 C396 0.930 . S
H391 C399 0.930 . S
H392 C400 0.930 . S
H393 C401 0.930 . S
H394 C404 0.930 . S
H395 C405 0.930 . S
C396 H390 0.930 . S
C396 C397 1.355 . S
C396 C398 1.415 . S
C397 C396 1.355 . S
C397 C399 1.419 . S
C398 C396 1.415 . S
C398 C403 1.420 1_554 S
C398 C405 1.409 1_554 S
C399 H391 0.930 . S
C399 C397 1.419 . S
C399 C400 1.362 . S
C400 H392 0.930 . S
C400 C399 1.362 . S
C400 C403 1.389 1_554 S
C401 H393 0.930 . S
C401 C402 1.355 . S
C401 C403 1.440 . S
C402 C401 1.355 . S
C402 C404 1.419 . S
C403 C398 1.420 1_556 S
C403 C400 1.389 1_556 S
C403 C401 1.440 . S
C404 H394 0.930 . S
C404 C402 1.419 . S
C404 C405 1.362 . S
C405 H395 0.930 . S
C405 C398 1.409 1_556 S
C405 C404 1.362 . S
H406 C412 0.930 1_565 S
H407 C415 0.930 . S
H408 C416 0.930 . S
H409 C417 0.930 . S
H410 C420 0.930 . S
H411 C421 0.930 . S
C412 H406 0.930 1_545 S
C412 C413 1.355 . S
C412 C414 1.415 . S
C413 C412 1.355 . S
C413 C415 1.419 . S
C414 C412 1.415 . S
C414 C419 1.425 . S
C414 C421 1.409 1_545 S
C415 H407 0.930 . S
C415 C413 1.419 . S
C415 C416 1.362 . S
C416 H408 0.930 . S
C416 C415 1.362 . S
C416 C419 1.409 . S
C417 H409 0.930 . S
C417 C418 1.355 . S
C417 C419 1.415 . S
C418 C417 1.355 . S
C418 C420 1.419 1_545 S
C419 C414 1.425 . S
C419 C416 1.409 . S
C419 C417 1.415 . S
C420 H410 0.930 . S
C420 C418 1.419 1_565 S
C420 C421 1.362 . S
C421 H411 0.930 . S
C421 C414 1.409 1_565 S
C421 C420 1.362 . S
H422 C428 0.930 . S
H423 C431 0.930 . S
H424 C432 0.930 . S
H425 C433 0.930 . S
H426 C436 0.930 . S
H427 C437 0.930 . S
C428 H422 0.930 . S
C428 C429 1.355 . S
C428 C430 1.415 . S
C429 C428 1.355 . S
C429 C431 1.419 . S
C430 C428 1.415 . S
C430 C435 1.425 . S
C430 C437 1.409 . S
C431 H423 0.930 . S
C431 C429 1.419 . S
C431 C432 1.362 . S
C432 H424 0.930 . S
C432 C431 1.362 . S
C432 C435 1.409 . S
C433 H425 0.930 . S
C433 C434 1.355 . S
C433 C435 1.415 . S
C434 C433 1.355 . S
C434 C436 1.419 . S
C435 C430 1.425 . S
C435 C432 1.409 . S
C435 C433 1.415 . S
C436 H426 0.930 . S
C436 C434 1.419 . S
C436 C437 1.362 . S
C437 H427 0.930 . S
C437 C430 1.409 . S
C437 C436 1.362 . S
H438 C444 0.930 . S
H439 C447 0.930 . S
H440 C448 0.930 . S
H441 C449 0.930 . S
H442 C452 0.930 . S
H443 C453 0.930 . S
C444 H438 0.930 . S
C444 C445 1.355 1_565 S
C444 C446 1.408 1_565 S
C445 C444 1.355 1_545 S
C445 C447 1.419 . S
C446 C444 1.408 1_545 S
C446 C451 1.447 . S
C446 C453 1.395 1_545 S
C447 H439 0.930 . S
C447 C445 1.419 . S
C447 C448 1.362 . S
C448 H440 0.930 . S
C448 C447 1.362 . S
C448 C451 1.409 . S
C449 H441 0.930 . S
C449 C450 1.355 . S
C449 C451 1.415 . S
C450 C449 1.355 . S
C450 C452 1.419 1_545 S
C451 C446 1.447 . S
C451 C448 1.409 . S
C451 C449 1.415 . S
C452 H442 0.930 . S
C452 C450 1.419 1_565 S
C452 C453 1.362 . S
C453 H443 0.930 . S
C453 C446 1.395 1_565 S
C453 C452 1.362 . S
H454 C460 0.930 . S
H455 C463 0.930 . S
H456 C464 0.930 . S
H457 C465 0.930 . S
H458 C468 0.930 . S
H459 C469 0.930 . S
C460 H454 0.930 . S
C460 C461 1.355 . S
C460 C462 1.415 . S
C461 C460 1.355 . S
C461 C463 1.419 . S
C462 C460 1.415 . S
C462 C467 1.425 . S
C462 C469 1.409 . S
C463 H455 0.930 . S
C463 C461 1.419 . S
C463 C464 1.362 . S
C464 H456 0.930 . S
C464 C463 1.362 . S
C464 C467 1.409 . S
C465 H457 0.930 . S
C465 C466 1.355 . S
C465 C467 1.415 1_554 S
C466 C465 1.355 . S
C466 C468 1.419 . S
C467 C462 1.425 . S
C467 C464 1.409 . S
C467 C465 1.415 1_556 S
C468 H458 0.930 . S
C468 C466 1.419 . S
C468 C469 1.362 1_554 S
C469 H459 0.930 . S
C469 C462 1.409 . S
C469 C468 1.362 1_556 S
H470 C476 0.930 . S
H471 C479 0.930 . S
H472 C480 0.930 . S
H473 C481 0.930 . S
H474 C484 0.930 . S
H475 C485 0.930 . S
C476 H470 0.930 . S
C476 C477 1.355 1_455 S
C476 C478 1.415 . S
C477 C476 1.355 1_655 S
C477 C479 1.419 . S
C478 C476 1.415 . S
C478 C483 1.425 1_455 S
C478 C485 1.409 . S
C479 H471 0.930 . S
C479 C477 1.419 . S
C479 C480 1.362 . S
C480 H472 0.930 . S
C480 C479 1.362 . S
C480 C483 1.409 . S
C481 H473 0.930 . S
C481 C482 1.355 1_655 S
C481 C483 1.415 . S
C482 C481 1.355 1_455 S
C482 C484 1.419 . S
C483 C478 1.425 1_655 S
C483 C480 1.409 . S
C483 C481 1.415 . S
C484 H474 0.930 . S
C484 C482 1.419 . S
C484 C485 1.362 . S
C485 H475 0.930 . S
C485 C478 1.409 . S
C485 C484 1.362 . S
C205 C7 0.695 . S
C210 N187 0.610 . S
C221 C51 1.825 . S
C226 N160 1.828 1_655 S
C237 C87 1.244 . S
C242 N173 1.259 1_565 S
C253 C16 0.749 . S
C258 N186 0.800 . S
C274 N161 1.992 . S
C269 C42 2.012 . S
C290 N174 1.405 . S
C285 C96 1.399 . S
C301 C47 1.100 . S
C306 N134 1.123 . S
C317 C91 2.883 . S
C322 N148 2.829 1_655 S
C333 C2 2.017 . S
C338 N122 2.006 . S
C354 N135 1.466 . S
C349 C56 1.449 . S
C370 N147 3.255 . S
C365 C82 3.232 . S
C381 C11 1.821 . S
C386 N121 1.840 . S
C402 N151 1.747 . S
C397 C19 1.720 . S
C413 C50 1.435 . S
C418 N125 1.454 . S
C429 C99 1.534 . S
C434 N138 1.584 . S
C450 N177 1.547 . S
C445 C59 1.419 . S
C466 N190 1.263 . S
C461 C90 1.226 . S
C477 C10 1.448 1_655 S
C482 N164 1.423 . S
