# Generated by pormake.
# Topology anh, (6,3)-cn, num edge types: 1
# Building blocks:
#     Node 0, Type 0, BuildingBlock: BETDIP_clean_sbu_0, # of connection points: 6
#     Node 1, Type 0, BuildingBlock: BETDIP_clean_sbu_0, # of connection points: 6
#     Node 2, Type 0, BuildingBlock: BETDIP_clean_sbu_0, # of connection points: 6
#     Node 3, Type 1, BuildingBlock: VETTIZ_charged_linker_0, # of connection points: 3
#     Node 4, Type 1, BuildingBlock: VETTIZ_charged_linker_0, # of connection points: 3
#     Node 5, Type 1, BuildingBlock: VETTIZ_charged_linker_0, # of connection points: 3
#     Node 6, Type 1, BuildingBlock: VETTIZ_charged_linker_0, # of connection points: 3
#     Node 7, Type 1, BuildingBlock: VETTIZ_charged_linker_0, # of connection points: 3
#     Node 8, Type 1, BuildingBlock: VETTIZ_charged_linker_0, # of connection points: 3
#     Edge 9, Type (0, 1), BuildingBlock: CIFDUS_clean_linker_0, # of connection points: 2
#     Edge 10, Type (0, 1), BuildingBlock: CIFDUS_clean_linker_0, # of connection points: 2
#     Edge 11, Type (0, 1), BuildingBlock: CIFDUS_clean_linker_0, # of connection points: 2
#     Edge 12, Type (0, 1), BuildingBlock: CIFDUS_clean_linker_0, # of connection points: 2
#     Edge 13, Type (0, 1), BuildingBlock: CIFDUS_clean_linker_0, # of connection points: 2
#     Edge 14, Type (0, 1), BuildingBlock: CIFDUS_clean_linker_0, # of connection points: 2
#     Edge 15, Type (0, 1), BuildingBlock: CIFDUS_clean_linker_0, # of connection points: 2
#     Edge 16, Type (0, 1), BuildingBlock: CIFDUS_clean_linker_0, # of connection points: 2
#     Edge 17, Type (0, 1), BuildingBlock: CIFDUS_clean_linker_0, # of connection points: 2
#     Edge 18, Type (0, 1), BuildingBlock: CIFDUS_clean_linker_0, # of connection points: 2
#     Edge 19, Type (0, 1), BuildingBlock: CIFDUS_clean_linker_0, # of connection points: 2
#     Edge 20, Type (0, 1), BuildingBlock: CIFDUS_clean_linker_0, # of connection points: 2
#     Edge 21, Type (0, 1), BuildingBlock: CIFDUS_clean_linker_0, # of connection points: 2
#     Edge 22, Type (0, 1), BuildingBlock: CIFDUS_clean_linker_0, # of connection points: 2
#     Edge 23, Type (0, 1), BuildingBlock: CIFDUS_clean_linker_0, # of connection points: 2
#     Edge 24, Type (0, 1), BuildingBlock: CIFDUS_clean_linker_0, # of connection points: 2
#     Edge 25, Type (0, 1), BuildingBlock: CIFDUS_clean_linker_0, # of connection points: 2
#     Edge 26, Type (0, 1), BuildingBlock: CIFDUS_clean_linker_0, # of connection points: 2
# Relax obj value: 0.271
# Max RMSD: 0.188
# Mean RMSD: 0.161
data_MOF--net-anh--node1-BETDIP_clean_sbu_0--node2-VETTIZ_charged_linker_0--edge1-CIFDUS_clean_linker_0
_symmetry_space_group_name_H-M    P1
_symmetry_Int_Tables_number       1
_symmetry_cell_setting            triclinic
loop_
_symmetry_equiv_pos_as_xyz
'x, y, z'
_cell_length_a     33.687413
_cell_length_b     33.879644
_cell_length_c     59.98937
_cell_angle_alpha  89.74547
_cell_angle_beta   90.258448
_cell_angle_gamma 119.3727
loop_
_atom_site_label
_atom_site_type_symbol
_atom_site_fract_x
_atom_site_fract_y
_atom_site_fract_z
_atom_type_partial_charge
Tb0 Tb 0.09925 0.59001 0.17295 0.0
Tb1 Tb 1.05575 0.4952 0.16319 0.0
C2 C 0.14828 0.66551 0.19067 0.0
C3 C 0.19777 0.6955 0.19226 0.0
C4 C 0.22627 0.68153 0.20277 0.0
C5 C 0.27324 0.71072 0.20375 0.0
C6 C 0.29231 0.75387 0.19397 0.0
C7 C 0.26385 0.76737 0.18315 0.0
C8 C 0.21698 0.73853 0.18242 0.0
C9 C 0.08014 0.57176 0.13073 0.0
C10 C 0.1655 0.54325 0.1621 0.0
C11 C 1.00531 0.41798 0.14708 0.0
C12 C 0.95999 0.39909 0.13679 0.0
C13 C 0.94822 0.42677 0.12399 0.0
C14 C 0.90256 0.41298 0.11951 0.0
C15 C 0.86831 0.37137 0.12764 0.0
C16 C 0.88044 0.34179 0.13834 0.0
C17 C 0.92604 0.35567 0.14296 0.0
C18 C 1.07386 0.51401 0.20643 0.0
C19 C 0.99115 0.54459 0.16474 0.0
O20 O 0.13103 0.62721 0.20169 0.0
O21 O 0.13125 0.66063 0.17061 0.0
O22 O 0.09543 0.55327 0.14385 0.0
O23 O 0.07804 0.60432 0.14088 0.0
O24 O 0.16245 0.57957 0.16926 0.0
O25 O 0.12625 0.50579 0.1575 0.0
O26 O 1.03882 0.45066 0.13616 0.0
O27 O 1.00662 0.42713 0.1683 0.0
O28 O 1.05822 0.53217 0.19308 0.0
O29 O 0.07863 0.48361 0.19556 0.0
O30 O 0.99763 0.51076 0.15735 0.0
O31 O 1.02695 0.57931 0.17467 0.0
H32 H 0.21238 0.64829 0.21032 0.0
H33 H 0.29463 0.69981 0.21228 0.0
H34 H 0.27769 0.80089 0.17591 0.0
H35 H 0.19566 0.74993 0.17423 0.0
H36 H 0.97389 0.46034 0.11886 0.0
H37 H 0.89375 0.43587 0.11098 0.0
H38 H 0.8545 0.30958 0.14492 0.0
H39 H 0.93442 0.33389 0.15284 0.0
Tb40 Tb 0.60579 1.03551 0.49821 0.0
Tb41 Tb 0.55735 0.08272 0.49595 0.0
C42 C 0.63766 0.98538 0.50992 0.0
C43 C 0.62604 0.93745 0.51122 0.0
C44 C 0.61758 0.91606 0.53209 0.0
C45 C 0.61784 0.87526 0.53454 0.0
C46 C 0.62703 0.85537 0.51618 0.0
C47 C 0.63127 0.87458 0.49495 0.0
C48 C 0.63085 0.91535 0.49247 0.0
C49 C 0.59909 0.06019 0.45774 0.0
C50 C 0.49269 0.97336 0.49084 0.0
C51 C 0.53241 0.13967 0.48746 0.0
C52 C 0.55819 0.18892 0.49172 0.0
C53 C 0.58113 0.21906 0.47412 0.0
C54 C 0.6146 0.26365 0.47856 0.0
C55 C 0.62553 0.27869 0.50066 0.0
C56 C 0.60013 0.24966 0.51812 0.0
C57 C 0.56673 0.20527 0.51371 0.0
C58 C 0.56635 0.06038 0.53752 0.0
C59 C 0.67142 0.14472 0.49469 0.0
O60 O 0.6173 0.99956 0.5237 0.0
O61 O 0.64272 1.00308 0.49005 0.0
O62 O 0.56763 1.04366 0.47194 0.0
O63 O 0.63526 0.06096 0.46555 0.0
O64 O 0.53195 0.97415 0.4966 0.0
O65 O 0.4961 1.0142 0.48746 0.0
O66 O 0.55036 0.12514 0.47255 0.0
O67 O 0.51877 0.11338 0.50503 0.0
O68 O 0.5974 0.07654 0.52283 0.0
O69 O 0.52932 0.05636 0.5289 0.0
O70 O 0.63089 0.14336 0.49272 0.0
O71 O 0.66944 0.10483 0.49877 0.0
H72 H 0.61405 0.93244 0.54683 0.0
H73 H 0.61493 0.86154 0.55118 0.0
H74 H 0.63798 0.85969 0.4805 0.0
H75 H 0.63736 0.93091 0.47611 0.0
H76 H 0.5752 0.20738 0.45701 0.0
H77 H 0.63358 0.28552 0.46481 0.0
H78 H 0.60716 0.26087 0.53529 0.0
H79 H 0.54951 0.18319 0.52769 0.0
Tb80 Tb 0.55208 0.54584 0.83178 0.0
Tb81 Tb 0.64937 0.59257 0.83255 0.0
C82 C 0.47051 0.5205 0.84033 0.0
C83 C 0.44018 0.53927 0.83545 0.0
C84 C 0.42499 0.55561 0.85297 0.0
C85 C 0.39401 0.57084 0.84893 0.0
C86 C 0.37728 0.56959 0.82727 0.0
C87 C 0.39398 0.55513 0.80955 0.0
C88 C 0.42531 0.54021 0.81357 0.0
C89 C 0.58865 0.55554 0.79235 0.0
C90 C 0.60531 0.65924 0.82683 0.0
C91 C 0.73155 0.61807 0.82451 0.0
C92 C 0.75247 0.59171 0.8164 0.0
C93 C 0.72862 0.55536 0.80159 0.0
C94 C 0.74326 0.52385 0.79807 0.0
C95 C 0.78209 0.52873 0.80907 0.0
C96 C 0.808 0.56702 0.82235 0.0
C97 C 0.79314 0.59829 0.82607 0.0
C98 C 0.61284 0.58223 0.87296 0.0
C99 C 0.59576 0.47959 0.82977 0.0
O100 O 0.50375 0.54345 0.85444 0.0
O101 O 0.48349 0.50573 0.8233 0.0
O102 O 0.60182 0.58429 0.80771 0.0
O103 O 0.55127 0.52003 0.79825 0.0
O104 O 0.56574 0.62001 0.82935 0.0
O105 O 0.64349 0.65591 0.82669 0.0
O106 O 0.70454 0.62301 0.81054 0.0
O107 O 0.71386 0.60697 0.84442 0.0
O108 O 0.59916 0.55295 0.85752 0.0
O109 O 0.64873 0.61829 0.86596 0.0
O110 O 0.63389 0.5191 0.82565 0.0
O111 O 0.55913 0.48286 0.8358 0.0
H112 H 0.43599 0.55529 0.86995 0.0
H113 H 0.38101 0.58088 0.86301 0.0
H114 H 0.38146 0.55372 0.79274 0.0
H115 H 0.43677 0.52823 0.79963 0.0
H116 H 0.69723 0.54971 0.79379 0.0
H117 H 0.72321 0.49463 0.78764 0.0
H118 H 0.83801 0.57104 0.83106 0.0
H119 H 0.81185 0.62597 0.83756 0.0
C120 C 0.61903 0.26845 0.19129 0.0
C121 C 0.65728 0.3106 0.19605 0.0
C122 C 0.67222 0.32008 0.21846 0.0
C123 C 0.62254 0.24157 0.22838 0.0
C124 C 0.60508 0.23349 0.20693 0.0
C125 C 0.5811 0.1839 0.20121 0.0
H126 H 0.54277 0.97411 0.22668 0.0
C127 C 0.61093 0.19758 0.23866 0.0
C128 C 0.58842 0.16395 0.22245 0.0
H129 H 0.49135 1.01489 0.1699 0.0
H130 H 0.52951 0.09174 0.18294 0.0
H131 H 0.64316 0.06668 0.23489 0.0
H132 H 0.50583 1.01244 0.25711 0.0
H133 H 0.5373 0.05077 0.27821 0.0
H134 H 0.54572 1.00298 0.27274 0.0
H135 H 0.61286 1.01785 0.25246 0.0
H136 H 0.64406 0.07393 0.26406 0.0
C137 C 0.60557 0.17687 0.18095 0.0
C138 C 0.53011 0.16837 0.19726 0.0
C139 C 0.63888 0.18353 0.32114 0.0
C140 C 0.63059 0.14546 0.33404 0.0
C141 C 0.61907 0.10427 0.32351 0.0
C142 C 0.61366 0.10002 0.30049 0.0
C143 C 0.61896 0.13713 0.28781 0.0
C144 C 0.63263 0.17849 0.2979 0.0
C145 C 0.63888 0.21438 0.28102 0.0
C146 C 0.62078 0.18585 0.25996 0.0
C147 C 0.61014 0.141 0.26414 0.0
C148 C 0.69047 0.24927 0.27933 0.0
C149 C 0.60945 0.23582 0.28773 0.0
C150 C 0.54013 0.9995 0.21676 0.0
C151 C 0.51398 0.98789 0.1971 0.0
C152 C 0.51191 1.02255 0.18484 0.0
C153 C 0.53346 0.06722 0.19266 0.0
C154 C 0.55705 0.07746 0.21304 0.0
C155 C 0.55951 1.04367 0.22483 0.0
C156 C 0.57846 0.05837 0.24786 0.0
C157 C 0.58984 0.10759 0.24737 0.0
C158 C 0.57799 0.11875 0.22684 0.0
C159 C 0.62184 0.05383 0.25014 0.0
C160 C 0.54023 1.02972 0.26494 0.0
H161 H 0.6686 0.29403 0.25118 0.0
H162 H 0.60546 0.26039 0.17451 0.0
H163 H 0.51829 0.18644 0.20856 0.0
H164 H 0.50775 0.13204 0.20098 0.0
H165 H 0.52399 0.17541 0.17985 0.0
H166 H 0.64303 0.19985 0.18199 0.0
H167 H 0.59348 0.1841 0.165 0.0
H168 H 0.60165 0.1427 0.18002 0.0
H169 H 0.64879 0.21578 0.329 0.0
H170 H 0.6136 0.075 0.33326 0.0
H171 H 0.60491 0.06774 0.29352 0.0
H172 H 0.71204 0.23771 0.28819 0.0
H173 H 0.69839 0.28238 0.2867 0.0
H174 H 0.70252 0.25486 0.26181 0.0
H175 H 0.5735 0.20909 0.29038 0.0
H176 H 0.60935 0.25906 0.27477 0.0
H177 H 0.62226 0.25536 0.30343 0.0
H178 H 0.70104 0.3523 0.22305 0.0
C179 C 0.65431 0.28583 0.23474 0.0
C180 C 0.79327 0.72432 0.54827 0.0
C181 C 0.77707 0.75245 0.55649 0.0
C182 C 0.78193 0.76359 0.57925 0.0
C183 C 0.8104 0.71175 0.5861 0.0
C184 C 0.80957 0.70394 0.56346 0.0
C185 C 0.82278 0.66847 0.55829 0.0
H186 H 0.80073 0.473 0.58909 0.0
C187 C 0.81981 0.67905 0.59787 0.0
C188 C 0.82835 0.65424 0.5818 0.0
H189 H 0.84676 0.54107 0.52553 0.0
H190 H 0.86291 0.61211 0.54271 0.0
H191 H 0.88483 0.56237 0.61793 0.0
H192 H 0.74246 0.51294 0.60426 0.0
H193 H 0.75275 0.52631 0.63277 0.0
H194 H 0.76296 0.48322 0.62154 0.0
H195 H 0.841 0.51554 0.63303 0.0
H196 H 0.86146 0.57345 0.64165 0.0
C197 C 0.86819 0.69086 0.54511 0.0
C198 C 0.78276 0.62957 0.54548 0.0
C199 C 0.77404 0.64847 0.67899 0.0
C200 C 0.76504 0.61232 0.69341 0.0
C201 C 0.77614 0.57917 0.68654 0.0
C202 C 0.79423 0.5812 0.66524 0.0
C203 C 0.80025 0.61614 0.65051 0.0
C204 C 0.7911 0.64949 0.65771 0.0
C205 C 0.79752 0.68305 0.63976 0.0
C206 C 0.81226 0.66444 0.62043 0.0
C207 C 0.81358 0.62515 0.62677 0.0
C208 C 0.83642 0.73 0.64709 0.0
C209 C 0.75099 0.68137 0.63551 0.0
C210 C 0.81543 0.50332 0.5789 0.0
C211 C 0.82041 0.50106 0.5557 0.0
C212 C 0.84078 0.5416 0.54322 0.0
C213 C 0.84956 0.58249 0.55303 0.0
C214 C 0.8369 0.58231 0.57525 0.0
C215 C 0.82419 0.5445 0.58836 0.0
C216 C 0.81566 0.55235 0.61214 0.0
C217 C 0.82222 0.6 0.61052 0.0
C218 C 0.83259 0.61628 0.58853 0.0
C219 C 0.8523 0.55058 0.62712 0.0
C220 C 0.76601 0.51688 0.61821 0.0
H221 H 0.80126 0.75287 0.61127 0.0
H222 H 0.79041 0.71613 0.5307 0.0
H223 H 0.75059 0.61658 0.55511 0.0
H224 H 0.78799 0.60056 0.54218 0.0
H225 H 0.77762 0.64146 0.529 0.0
H226 H 0.88415 0.72842 0.54453 0.0
H227 H 0.86295 0.67893 0.52756 0.0
H228 H 0.89404 0.68389 0.55295 0.0
H229 H 0.76517 0.67408 0.68355 0.0
H230 H 0.76995 0.5512 0.69747 0.0
H231 H 0.80113 0.55455 0.66073 0.0
H232 H 0.86469 0.72684 0.65499 0.0
H233 H 0.82404 0.74579 0.65944 0.0
H234 H 0.85207 0.75351 0.63291 0.0
H235 H 0.72235 0.65328 0.64465 0.0
H236 H 0.74038 0.67496 0.61779 0.0
H237 H 0.75189 0.71314 0.64085 0.0
H238 H 0.77054 0.78619 0.58569 0.0
C239 C 0.79926 0.74393 0.59406 0.0
C240 C 0.12112 0.5294 0.86512 0.0
C241 C 0.16428 0.56078 0.87355 0.0
C242 C 0.16989 0.56693 0.89686 0.0
C243 C 0.09167 0.50909 0.90268 0.0
C244 C 0.08577 0.50332 0.87992 0.0
C245 C 1.03942 0.46517 0.87376 0.0
H246 H 0.82586 0.37538 0.8958 0.0
C247 C 1.04858 0.47682 0.91345 0.0
C248 C 1.01794 0.45046 0.89678 0.0
H249 H 0.8884 0.35593 0.83702 0.0
H250 H 0.95773 0.37787 0.85804 0.0
H251 H 0.88103 0.32439 0.9271 0.0
H252 H 0.89965 0.45939 0.91892 0.0
H253 H 0.90044 0.44561 0.94749 0.0
H254 H 0.84976 0.41345 0.93138 0.0
H255 H 0.84638 0.34239 0.94173 0.0
H256 H 0.90141 0.354 0.95225 0.0
C257 C 1.04491 0.42755 0.86178 0.0
C258 C 1.01521 0.48493 0.85927 0.0
C259 C 1.03409 0.48234 0.99686 0.0
C260 C 0.99739 0.46201 0.01161 0.0
C261 C 0.95294 0.43536 0.00318 0.0
C262 C 0.94559 0.42778 0.98008 0.0
C263 C 0.9831 0.44758 0.96552 0.0
C264 C 1.02627 0.47495 0.97406 0.0
C265 C 1.062 0.49527 0.95636 0.0
C266 C 1.03393 0.47262 0.93583 0.0
C267 C 0.98772 0.44485 0.94114 0.0
C268 C 0.09833 0.48066 0.96073 0.0
C269 C 0.08088 0.54737 0.95628 0.0
C270 C 0.85387 0.37453 0.8875 0.0
C271 C 0.85322 0.36797 0.86419 0.0
C272 C 0.88929 0.3641 0.85452 0.0
C273 C 0.92961 0.37767 0.86641 0.0
C274 C 0.93283 0.39384 0.88809 0.0
C275 C 0.89425 0.3864 0.89933 0.0
C276 C 0.90424 0.3975 0.92384 0.0
C277 C 0.95609 0.41991 0.92401 0.0
C278 C 0.97219 0.4196 0.90251 0.0
C279 C 0.88198 0.35244 0.93708 0.0
C280 C 0.88756 0.43069 0.93092 0.0
H281 H 0.14077 0.54703 0.92889 0.0
H282 H 0.11536 0.52365 0.84738 0.0
H283 H 1.01191 0.51151 0.86857 0.0
H284 H 0.98083 0.45906 0.85398 0.0
H285 H 1.0348 0.50044 0.8438 0.0
H286 H 0.08101 0.43533 0.86086 0.0
H287 H 1.03211 0.4227 0.84435 0.0
H288 H 1.02671 0.39467 0.87075 0.0
H289 H 1.06839 0.50389 0.00301 0.0
H290 H 0.92421 0.42005 0.01445 0.0
H291 H 0.91117 0.40735 0.97437 0.0
H292 H 0.08187 0.44451 0.96596 0.0
H293 H 0.12216 0.50127 0.9742 0.0
H294 H 0.11829 0.48304 0.94573 0.0
H295 H 1.05685 0.55675 0.96419 0.0
H296 H 0.08575 0.56158 0.93923 0.0
H297 H 0.11361 0.56529 0.96554 0.0
H298 H 0.20281 0.58968 0.90408 0.0
C299 C 0.13387 0.54147 0.91139 0.0
C300 C 0.9566 0.43605 0.48235 0.0
C301 C 0.92191 0.39487 0.47063 0.0
C302 C 0.93167 0.39473 0.44778 0.0
C303 C 1.00198 0.47059 0.44816 0.0
C304 C 0.99713 0.47305 0.47083 0.0
C305 C 1.04024 0.51885 0.47901 0.0
H306 H 0.24218 0.72727 0.44007 0.0
C307 C 1.04385 0.51358 0.43962 0.0
C308 C 1.06923 0.5435 0.4575 0.0
H309 H 0.22452 0.68949 0.50928 0.0
H310 H 0.15239 0.61907 0.50026 0.0
H311 H 0.222 0.63294 0.42441 0.0
H312 H 0.13739 0.69449 0.42844 0.0
H313 H 0.12223 0.66423 0.40335 0.0
H314 H 0.18002 0.70943 0.40735 0.0
H315 H 0.22684 0.67593 0.4053 0.0
H316 H 0.1892 0.61661 0.40006 0.0
C317 C 1.06871 0.50745 0.49512 0.0
C318 C 1.02439 0.54911 0.49045 0.0
C319 C 1.05985 0.52751 0.35429 0.0
C320 C 0.08781 0.56302 0.3396 0.0
C321 C 0.12108 0.60416 0.34909 0.0
C322 C 0.12671 0.60981 0.37238 0.0
C323 C 0.09848 0.57418 0.38696 0.0
C324 C 1.06536 0.53416 0.3777 0.0
C325 C 1.03632 0.50115 0.39548 0.0
C326 C 1.05763 0.52732 0.41704 0.0
C327 C 0.09494 0.56998 0.41204 0.0
C328 C 1.04234 0.45869 0.39361 0.0
C329 C 0.98681 0.49215 0.392 0.0
C330 C 0.22339 0.70514 0.45377 0.0
C331 C 0.24193 0.71754 0.4757 0.0
C332 C 0.21366 0.68376 0.49203 0.0
C333 C 0.17092 0.64212 0.48685 0.0
C334 C 0.15369 0.63068 0.46463 0.0
C335 C 0.18174 0.66302 0.44884 0.0
C336 C 0.1642 0.64669 0.42581 0.0
C337 C 0.12228 0.6 0.42951 0.0
C338 C 0.11225 0.5883 0.45258 0.0
C339 C 0.20234 0.64306 0.41303 0.0
C340 C 0.15051 0.68043 0.41548 0.0
H341 H 0.9717 0.42596 0.41949 0.0
H342 H 0.95264 0.43915 0.50003 0.0
H343 H 1.00353 0.55702 0.47876 0.0
H344 H 1.05417 0.58152 0.49583 0.0
H345 H 1.00337 0.53186 0.50533 0.0
H346 H 0.08011 0.48552 0.48677 0.0
H347 H 1.04833 0.48918 0.51 0.0
H348 H 0.09934 0.53877 0.50077 0.0
H349 H 1.0333 0.49566 0.34773 0.0
H350 H 0.14322 0.63216 0.33839 0.0
H351 H 0.15312 0.64205 0.37808 0.0
H352 H 0.07706 0.46789 0.38763 0.0
H353 H 1.01747 0.43366 0.38171 0.0
H354 H 1.03943 0.442 0.40989 0.0
H355 H 0.98636 0.52199 0.38443 0.0
H356 H 0.96794 0.48649 0.40777 0.0
H357 H 0.96724 0.46289 0.38075 0.0
H358 H 0.90847 0.36637 0.43758 0.0
C359 C 0.96958 0.43077 0.43694 0.0
C360 C 0.59703 0.94445 0.81394 0.0
C361 C 0.60106 0.90822 0.80212 0.0
C362 C 0.60637 0.91528 0.77888 0.0
C363 C 0.6032 0.98732 0.77925 0.0
C364 C 0.59915 0.98431 0.80216 0.0
C365 C 0.59771 1.02825 0.81033 0.0
H366 H 0.61322 0.24141 0.77191 0.0
C367 C 0.6036 1.03023 0.77071 0.0
C368 C 0.60132 0.05682 0.78873 0.0
H369 H 0.59292 0.20413 0.84111 0.0
H370 H 0.59196 0.13148 0.832 0.0
H371 H 0.68316 0.20947 0.76078 0.0
H372 H 0.53791 0.14718 0.75594 0.0
H373 H 0.55403 0.12926 0.73207 0.0
H374 H 0.57509 0.18899 0.73637 0.0
H375 H 0.65492 0.22492 0.73992 0.0
H376 H 0.66918 0.18075 0.73526 0.0
C377 C 0.63816 0.05603 0.82591 0.0
C378 C 0.55255 1.01419 0.82232 0.0
C379 C 0.605 0.0484 0.68523 0.0
C380 C 0.60877 0.08339 0.67094 0.0
C381 C 0.61263 0.12276 0.68085 0.0
C382 C 0.61208 0.12715 0.70417 0.0
C383 C 0.60813 0.09202 0.71839 0.0
C384 C 0.6054 0.0538 0.70875 0.0
C385 C 0.60513 1.02162 0.72632 0.0
C386 C 0.60532 1.04525 0.74815 0.0
C387 C 0.607 0.08666 0.74343 0.0
C388 C 0.64964 1.01899 0.72348 0.0
C389 C 0.56047 0.97596 0.72338 0.0
C390 C 0.6086 0.21857 0.78558 0.0
C391 C 0.60335 0.23155 0.80742 0.0
C392 C 0.59688 0.1975 0.82387 0.0
C393 C 0.59662 0.15484 0.81861 0.0
C394 C 0.60215 0.14324 0.79633 0.0
C395 C 0.60715 0.1761 0.78063 0.0
C396 C 0.60943 0.16092 0.75757 0.0
C397 C 0.60634 0.11479 0.76107 0.0
C398 C 0.6027 0.10167 0.78404 0.0
C399 C 0.65631 0.19577 0.74765 0.0
C400 C 0.56734 0.15659 0.74463 0.0
H401 H 0.60988 0.9525 0.75014 0.0
H402 H 0.59294 0.94217 0.83185 0.0
H403 H 0.52334 0.99388 0.81102 0.0
H404 H 0.55055 1.04452 0.82767 0.0
H405 H 0.54925 0.99336 0.83729 0.0
H406 H 0.67079 0.06599 0.81719 0.0
H407 H 0.63645 1.03593 0.84093 0.0
H408 H 0.63817 0.08733 0.83137 0.0
H409 H 0.60305 1.01804 0.6783 0.0
H410 H 0.61585 0.15038 0.67043 0.0
H411 H 0.61502 0.15823 0.71015 0.0
H412 H 0.67677 0.04956 0.71498 0.0
H413 H 0.64367 0.98913 0.71342 0.0
H414 H 0.66512 1.0181 0.73968 0.0
H415 H 0.53155 0.98181 0.71918 0.0
H416 H 0.54971 0.95523 0.73872 0.0
H417 H 0.56365 0.95572 0.7097 0.0
H418 H 0.60889 0.8904 0.76861 0.0
C419 C 0.60694 0.95266 0.76784 0.0
C420 C 0.70555 0.55211 0.15163 0.0
C421 C 0.74403 0.55205 0.13988 0.0
C422 C 0.74121 0.55429 0.11648 0.0
C423 C 0.66768 0.55471 0.11657 0.0
C424 C 0.66738 0.55306 0.13955 0.0
C425 C 0.62241 0.55294 0.14746 0.0
H426 H 0.41383 0.54809 0.10917 0.0
C427 C 0.62533 0.55519 0.10777 0.0
C428 C 0.59663 0.55386 0.12557 0.0
H429 H 0.45123 0.5595 0.17846 0.0
H430 H 0.5222 0.55831 0.16845 0.0
H431 H 0.51111 0.62221 0.09402 0.0
H432 H 0.44646 0.47691 0.09485 0.0
H433 H 0.47536 0.4948 0.06935 0.0
H434 H 0.43049 0.50751 0.07566 0.0
H435 H 0.46715 0.58759 0.0746 0.0
H436 H 0.52641 0.60667 0.06907 0.0
C437 C 0.63528 0.5953 0.16151 0.0
C438 C 0.59261 0.5098 0.16093 0.0
C439 C 0.61661 0.56593 0.02285 0.0
C440 C 0.58395 0.56489 0.00768 0.0
C441 C 0.54225 0.55808 0.01651 0.0
C442 C 0.53407 0.55409 0.03978 0.0
C443 C 0.56769 0.55641 0.05481 0.0
C444 C 0.6076 0.56119 0.04599 0.0
C445 C 0.63859 0.56027 0.06384 0.0
C446 C 0.61217 0.55636 0.08515 0.0
C447 C 0.57053 0.55444 0.07993 0.0
C448 C 0.68393 0.60596 0.06268 0.0
C449 C 0.64307 0.51727 0.05986 0.0
C450 C 0.4361 0.54971 0.12262 0.0
C451 C 0.42377 0.5533 0.1449 0.0
C452 C 0.45733 0.55659 0.16102 0.0
C453 C 0.49913 0.55582 0.15527 0.0
C454 C 0.51048 0.55258 0.13276 0.0
C455 C 0.47825 0.55018 0.11716 0.0
C456 C 0.4946 0.55045 0.09391 0.0
C457 C 0.54073 0.55273 0.0974 0.0
C458 C 0.55228 0.55321 0.12045 0.0
C459 C 0.49988 0.59362 0.08207 0.0
C460 C 0.45996 0.50536 0.08264 0.0
H461 H 0.70816 0.55792 0.08756 0.0
H462 H 0.70491 0.55101 0.16965 0.0
H463 H 0.58369 0.47927 0.15071 0.0
H464 H 0.56051 0.50878 0.16613 0.0
H465 H 0.61093 0.5084 0.17611 0.0
H466 H 0.65714 0.6264 0.15171 0.0
H467 H 0.65436 0.59541 0.1767 0.0
H468 H 0.60436 0.59656 0.16674 0.0
H469 H 0.64877 0.57026 0.01681 0.0
H470 H 0.51635 0.55719 0.00543 0.0
H471 H 0.50186 0.54985 0.04517 0.0
H472 H 0.67776 0.6341 0.05752 0.0
H473 H 0.70775 0.60443 0.05042 0.0
H474 H 0.70126 0.61681 0.079 0.0
H475 H 0.61285 0.4904 0.05098 0.0
H476 H 0.64446 0.50077 0.07559 0.0
H477 H 0.67349 0.52513 0.04963 0.0
H478 H 0.76843 0.55624 0.1062 0.0
C479 C 0.70496 0.55565 0.10526 0.0
H480 H 0.25778 0.58916 0.18253 0.0
H481 H 0.183 0.49699 0.12937 0.0
H482 H 0.25066 0.49233 0.11921 0.0
H483 H 0.33344 0.51288 0.12457 0.0
H484 H 0.40751 0.59989 0.17943 0.0
H485 H 0.34067 0.60703 0.18902 0.0
C486 C 0.25574 0.56803 0.1686 0.0
C487 C 0.21253 0.54378 0.15683 0.0
C488 C 0.29625 0.56407 0.16287 0.0
C489 C 0.2136 0.51651 0.13913 0.0
C490 C 0.25327 0.5137 0.13315 0.0
C491 C 0.33572 0.53363 0.13872 0.0
C492 C 0.37841 0.55575 0.15095 0.0
C493 C 0.29526 0.53708 0.14476 0.0
C494 C 0.37721 0.58167 0.16931 0.0
C495 C 0.33804 0.58606 0.1749 0.0
H496 H 0.71363 0.24275 0.50721 0.0
H497 H 0.7443 0.15198 0.4705 0.0
H498 H 0.81876 0.2154 0.46067 0.0
H499 H 0.87856 0.29861 0.4612 0.0
H500 H 0.85344 0.39012 0.50045 0.0
H501 H 0.77792 0.32683 0.51024 0.0
C502 C 0.7362 0.23614 0.49705 0.0
C503 C 0.72 0.18952 0.48973 0.0
C504 C 0.78215 0.27439 0.49175 0.0
C505 C 0.75288 0.18515 0.47678 0.0
C506 C 0.79665 0.22241 0.47098 0.0
C507 C 0.85728 0.30562 0.47212 0.0
C508 C 0.87511 0.35213 0.47978 0.0
C509 C 0.81235 0.26759 0.47822 0.0
C510 C 0.84399 0.35683 0.49404 0.0
C511 C 0.79936 0.3197 0.49961 0.0
H512 H 0.55192 0.70361 0.84136 0.0
H513 H 0.66638 0.72895 0.8 0.0
H514 H 0.67558 0.80276 0.78971 0.0
H515 H 0.65225 0.86319 0.79102 0.0
H516 H 0.54257 0.84352 0.83437 0.0
H517 H 0.5319 0.76846 0.84485 0.0
C518 C 0.5791 0.72486 0.83005 0.0
C519 C 0.60812 0.70742 0.82157 0.0
C520 C 0.58567 0.77034 0.82438 0.0
C521 C 0.64294 0.73857 0.80718 0.0
C522 C 0.64839 0.78195 0.80113 0.0
C523 C 0.62597 0.84325 0.80301 0.0
C524 C 0.59859 0.86224 0.81163 0.0
C525 C 0.62021 0.79882 0.80945 0.0
C526 C 0.56528 0.83295 0.82722 0.0
C527 C 0.55879 0.78871 0.83319 0.0
H528 H 0.93594 0.57936 0.18747 0.0
H529 H 0.93687 0.509 0.12803 0.0
H530 H 0.86435 0.5023 0.11656 0.0
H531 H 0.7986 0.51586 0.122 0.0
H532 H 0.79429 0.58683 0.18053 0.0
H533 H 0.86666 0.5924 0.19321 0.0
C534 C 0.92069 0.56249 0.17193 0.0
C535 C 0.94431 0.54402 0.15899 0.0
C536 C 0.87669 0.55848 0.16501 0.0
C537 C 0.92131 0.52266 0.13902 0.0
C538 C 0.87905 0.51914 0.13219 0.0
C539 C 0.81286 0.53316 0.13756 0.0
C540 C 0.78824 0.5513 0.14977 0.0
C541 C 0.8559 0.5367 0.14489 0.0
C542 C 0.80977 0.57195 0.17023 0.0
C543 C 0.85237 0.57552 0.17754 0.0
H544 H 0.4476 0.88009 0.51013 0.0
H545 H 0.42417 0.95843 0.46036 0.0
H546 H 0.35107 0.89228 0.451 0.0
H547 H 0.28959 0.8093 0.45605 0.0
H548 H 0.30908 0.73249 0.5081 0.0
H549 H 0.38352 0.7978 0.5167 0.0
C550 C 0.42706 0.88339 0.49711 0.0
C551 C 0.44491 0.92732 0.48604 0.0
C552 C 0.38203 0.84369 0.49193 0.0
C553 C 0.41436 0.92746 0.46957 0.0
C554 C 0.37132 0.88855 0.46405 0.0
C555 C 0.30954 0.80604 0.4694 0.0
C556 C 0.29034 0.7627 0.4811 0.0
C557 C 0.35399 0.8459 0.47497 0.0
C558 C 0.31971 0.76302 0.49839 0.0
C559 C 0.36366 0.80143 0.50341 0.0
H560 H 0.65446 0.44834 0.80884 0.0
H561 H 0.52979 0.39523 0.84608 0.0
H562 H 0.52135 0.3193 0.84423 0.0
H563 H 0.54756 0.26327 0.83161 0.0
H564 H 0.66999 0.31615 0.79244 0.0
H565 H 0.67991 0.39242 0.7956 0.0
C566 C 0.62532 0.42062 0.81675 0.0
C567 C 0.59309 0.43073 0.82789 0.0
C568 C 0.61982 0.37468 0.81527 0.0
C569 C 0.55586 0.39149 0.8374 0.0
C570 C 0.55085 0.34682 0.83634 0.0
C571 C 0.57693 0.29114 0.82383 0.0
C572 C 0.60816 0.28088 0.81176 0.0
C573 C 0.58238 0.33714 0.8253 0.0
C574 C 0.64482 0.32008 0.80187 0.0
C575 C 0.65072 0.36494 0.8037 0.0
H576 H 0.70098 0.85483 0.49933 0.0
H577 H 0.5858 0.77995 0.54266 0.0
H578 H 0.62093 0.73675 0.55715 0.0
H579 H 0.68968 0.72986 0.56181 0.0
H580 H 0.80579 0.80621 0.51945 0.0
H581 H 0.76468 0.83908 0.49982 0.0
C582 C 0.68276 0.82793 0.51134 0.0
C583 C 0.64112 0.82089 0.52014 0.0
C584 C 0.70374 0.80426 0.52 0.0
C585 C 0.61815 0.78627 0.53588 0.0
C586 C 0.63831 0.76178 0.54422 0.0
C587 C 0.70553 0.75318 0.54801 0.0
C588 C 0.7507 0.76658 0.54221 0.0
C589 C 0.68198 0.77209 0.53715 0.0
C590 C 0.77107 0.79601 0.52418 0.0
C591 C 0.74765 0.81476 0.51307 0.0
H592 H 0.73369 0.4492 0.83016 0.0
H593 H 0.85436 0.52659 0.79078 0.0
H594 H 0.88186 0.47404 0.8007 0.0
H595 H 0.87911 0.41807 0.82657 0.0
H596 H 0.76281 0.34496 0.86959 0.0
H597 H 0.72527 0.38336 0.8519 0.0
C598 C 0.76518 0.45334 0.82319 0.0
C599 C 0.79221 0.49128 0.8098 0.0
C600 C 0.7817 0.42436 0.82992 0.0
C601 C 0.83326 0.49733 0.80104 0.0
C602 C 0.84897 0.46752 0.80684 0.0
C603 C 0.84474 0.40881 0.83159 0.0
C604 C 0.82405 0.3789 0.84963 0.0
C605 C 0.82458 0.43246 0.82216 0.0
C606 C 0.77979 0.36831 0.85599 0.0
C607 C 0.75845 0.39041 0.84595 0.0
H608 H 0.35261 0.8058 0.1622 0.0
H609 H 0.33986 0.77687 0.23271 0.0
H610 H 0.41294 0.84457 0.23949 0.0
H611 H 0.4706 0.91804 0.22632 0.0
H612 H 0.48563 0.94826 0.15575 0.0
H613 H 0.42059 0.87373 0.14807 0.0
C614 C 0.36656 0.81391 0.17895 0.0
C615 C 0.34086 0.78712 0.19699 0.0
C616 C 0.4081 0.85336 0.18276 0.0
C617 C 0.3592 0.79716 0.2186 0.0
C618 C 0.40071 0.83606 0.22249 0.0
C619 C 0.46133 0.90813 0.20911 0.0
C620 C 0.48267 0.93947 0.19169 0.0
C621 C 0.42422 0.8654 0.20482 0.0
C622 C 0.46903 0.92548 0.16959 0.0
C623 C 0.43196 0.88276 0.16515 0.0
H624 H 0.69205 0.29764 0.53096 0.0
H625 H 0.64712 0.36007 0.48153 0.0
H626 H 0.7089 0.43488 0.49215 0.0
H627 H 0.76935 0.48215 0.51829 0.0
H628 H 0.81422 0.42003 0.56803 0.0
H629 H 0.75848 0.34499 0.55439 0.0
C630 C 0.69583 0.3277 0.52255 0.0
C631 C 0.66471 0.32362 0.5058 0.0
C632 C 0.73114 0.37038 0.52881 0.0
C633 C 0.67063 0.36252 0.49453 0.0
C634 C 0.70583 0.4052 0.50063 0.0
C635 C 0.76816 0.45235 0.52571 0.0
C636 C 0.79574 0.4567 0.54428 0.0
C637 C 0.73563 0.40951 0.51806 0.0
C638 C 0.79301 0.41756 0.5539 0.0
C639 C 0.76103 0.37471 0.54619 0.0
H640 H 0.3636 0.63676 0.8436 0.0
H641 H 0.29967 0.51388 0.80488 0.0
H642 H 0.2252 0.5064 0.8117 0.0
H643 H 0.17927 0.52263 0.83702 0.0
H644 H 0.24153 0.64444 0.87679 0.0
H645 H 0.31583 0.66433 0.86122 0.0
C646 C 0.3334 0.60926 0.83607 0.0
C647 C 0.33682 0.57525 0.82434 0.0
C648 C 0.29044 0.60415 0.8408 0.0
C649 C 0.29785 0.54033 0.81413 0.0
C650 C 0.25513 0.5357 0.81826 0.0
C651 C 0.20843 0.55464 0.84167 0.0
C652 C 0.20495 0.58095 0.85883 0.0
C653 C 0.25097 0.56561 0.83286 0.0
C654 C 0.24353 0.62243 0.86434 0.0
C655 C 0.28605 0.63397 0.85539 0.0
H656 H 0.83978 0.42452 0.14704 0.0
H657 H 0.79143 0.2968 0.11344 0.0
H658 H 0.71485 0.27086 0.12785 0.0
H659 H 0.66986 0.27746 0.157 0.0
H660 H 0.71828 0.40287 0.19331 0.0
H661 H 0.7869 0.43739 0.17029 0.0
C662 C 0.81191 0.39189 0.14206 0.0
C663 C 0.82094 0.3623 0.12939 0.0
C664 C 0.76858 0.3765 0.15132 0.0
C665 C 0.785 0.31983 0.12327 0.0
C666 C 0.74143 0.30498 0.13165 0.0
C667 C 0.69395 0.31298 0.15951 0.0
C668 C 0.68912 0.3369 0.17757 0.0
C669 C 0.73376 0.33195 0.14682 0.0
C670 C 0.72159 0.38298 0.18011 0.0
C671 C 0.76093 0.40276 0.16696 0.0
H672 H 0.08952 0.51083 0.10563 0.0
H673 H 1.02171 0.59052 0.10766 0.0
H674 H 0.9845 0.55859 0.07199 0.0
H675 H 0.97526 0.51141 0.03899 0.0
H676 H 1.04394 0.43266 0.03707 0.0
H677 H 0.07542 0.45923 0.07432 0.0
C678 C 1.06615 0.52071 0.09835 0.0
C679 C 1.05838 0.55293 0.10912 0.0
C680 C 1.04461 0.50189 0.07802 0.0
C681 C 1.02857 0.56607 0.09946 0.0
C682 C 1.00702 0.54758 0.07919 0.0
C683 C 0.99606 0.49923 0.0471 0.0
C684 C 1.00704 0.4699 0.03563 0.0
C685 C 1.01513 0.51578 0.06819 0.0
C686 C 1.03482 0.45491 0.04588 0.0
C687 C 1.05314 0.47044 0.06701 0.0
H688 H 0.66967 0.12053 0.4331 0.0
H689 H 0.52299 1.0424 0.43407 0.0
H690 H 0.51966 0.0685 0.3963 0.0
H691 H 0.5592 0.10618 0.36163 0.0
H692 H 0.70566 0.18393 0.36057 0.0
H693 H 0.70867 0.16645 0.40008 0.0
C694 C 0.63701 0.10952 0.42504 0.0
C695 C 0.59663 0.07886 0.43596 0.0
C696 C 0.63547 0.12491 0.40349 0.0
C697 C 0.55444 0.06557 0.42574 0.0
C698 C 0.55257 0.08051 0.40422 0.0
C699 C 0.59159 0.12039 0.37036 0.0
C700 C 0.63217 0.14642 0.35852 0.0
C701 C 0.59291 0.10925 0.39276 0.0
C702 C 0.67413 0.16436 0.36962 0.0
C703 C 0.67579 0.15386 0.39205 0.0
H704 H 0.66164 0.63014 0.77638 0.0
H705 H 0.57765 0.48688 0.76496 0.0
H706 H 0.62702 0.49097 0.73414 0.0
H707 H 0.69341 0.53598 0.71012 0.0
H708 H 0.7799 0.67837 0.7235 0.0
H709 H 0.73117 0.6736 0.75456 0.0
C710 C 0.65459 0.59972 0.76733 0.0
C711 C 0.61649 0.55826 0.77297 0.0
C712 C 0.68384 0.60211 0.75023 0.0
C713 C 0.60682 0.51925 0.7608 0.0
C714 C 0.63522 0.52151 0.74334 0.0
C715 C 0.70218 0.56572 0.72015 0.0
C716 C 0.74006 0.60753 0.71443 0.0
C717 C 0.67392 0.56278 0.73795 0.0
C718 C 0.75061 0.64591 0.72742 0.0
C719 C 0.72272 0.64326 0.74512 0.0
H720 H 0.63991 0.11175 0.5656 0.0
H721 H 0.50318 0.99894 0.56523 0.0
H722 H 0.50503 0.99294 0.60579 0.0
H723 H 0.5434 1.02265 0.64218 0.0
H724 H 0.67736 0.13959 0.64307 0.0
H725 H 0.67885 0.141 0.60221 0.0
C726 C 0.61086 0.08543 0.57439 0.0
C727 C 0.57154 0.05549 0.56215 0.0
C728 C 0.61152 0.08311 0.59811 0.0
C729 C 0.53393 1.0223 0.57405 0.0
C730 C 0.53491 1.0189 0.59736 0.0
C731 C 0.57317 0.048 0.63341 0.0
C732 C 0.61044 0.08071 0.64586 0.0
C733 C 0.5732 0.04949 0.6097 0.0
C734 C 0.6483 0.11385 0.63405 0.0
C735 C 0.64911 0.11473 0.61059 0.0
H736 H 0.66119 0.63042 0.90945 0.0
H737 H 0.53531 0.51214 0.89127 0.0
H738 H 0.51416 0.49691 0.93077 0.0
H739 H 0.5319 0.51698 0.97107 0.0
H740 H 0.66064 0.63256 0.98864 0.0
H741 H 0.68002 0.64872 0.94924 0.0
C742 C 0.62903 0.6013 0.91407 0.0
C743 C 0.59976 0.57271 0.89717 0.0
C744 C 0.61759 0.59211 0.93695 0.0
C745 C 0.5585 0.53491 0.90373 0.0
C746 C 0.5464 0.52616 0.92642 0.0
C747 C 0.56414 0.54576 0.96626 0.0
C748 C 0.59471 0.57349 0.98308 0.0
C749 C 0.57567 0.55448 0.94327 0.0
C750 C 0.63652 0.61035 0.97631 0.0
C751 C 0.64761 0.61975 0.95367 0.0
H752 H 1.06875 0.57737 0.23397 0.0
H753 H 0.08277 0.45755 0.23579 0.0
H754 H 0.08562 0.46007 0.27642 0.0
H755 H 0.08577 0.4969 0.3121 0.0
H756 H 0.0776 0.61982 0.31049 0.0
H757 H 1.07105 0.61558 0.26978 0.0
C758 C 1.07254 0.55188 0.24323 0.0
C759 C 0.07547 0.51725 0.23152 0.0
C760 C 1.07524 0.55405 0.26694 0.0
C761 C 0.08041 0.48466 0.24409 0.0
C762 C 0.08203 0.48601 0.26748 0.0
C763 C 0.08221 0.52257 0.30285 0.0
C764 C 0.08196 0.55854 0.31457 0.0
C765 C 0.07962 0.52057 0.27919 0.0
C766 C 0.078 0.59179 0.30208 0.0
C767 C 1.07422 0.58936 0.2787 0.0
loop_
_geom_bond_atom_site_label_1
_geom_bond_atom_site_label_2
_geom_bond_distance
_geom_bond_site_symmetry_2
_ccdc_geom_bond_type
Tb0 C2 2.809 . S
Tb0 O20 2.484 . S
Tb0 O21 2.440 . S
Tb0 O22 2.658 . S
Tb0 O23 2.409 . S
Tb0 O24 2.378 . S
Tb0 O28 2.325 . S
Tb0 O31 2.341 1_455 S
Tb1 C11 2.809 . S
Tb1 O22 2.325 1_655 S
Tb1 O25 2.341 1_655 S
Tb1 O26 2.484 . S
Tb1 O27 2.440 . S
Tb1 O28 2.658 1_655 S
Tb1 O29 2.409 1_655 S
Tb1 O30 2.378 . S
C2 Tb0 2.809 . S
C2 C3 1.514 . S
C2 O20 1.248 . S
C2 O21 1.266 . S
C3 C2 1.514 . S
C3 C4 1.359 . S
C3 C8 1.348 . S
C4 C3 1.359 . S
C4 C5 1.380 . S
C4 H32 0.929 . S
C5 C4 1.380 . S
C5 C6 1.347 . S
C5 H33 0.931 . S
C6 C5 1.347 . S
C6 C7 1.369 . S
C7 C6 1.369 . S
C7 C8 1.408 . S
C7 H34 0.930 . S
C8 C3 1.348 . S
C8 C7 1.408 . S
C8 H35 0.930 . S
C9 O22 1.281 . S
C9 O23 1.254 . S
C10 O24 1.236 . S
C10 O25 1.266 . S
C11 Tb1 2.809 . S
C11 C12 1.514 . S
C11 O26 1.248 . S
C11 O27 1.266 . S
C12 C11 1.514 . S
C12 C13 1.359 . S
C12 C17 1.348 . S
C13 C12 1.359 . S
C13 C14 1.380 . S
C13 H36 0.929 . S
C14 C13 1.380 . S
C14 C15 1.347 . S
C14 H37 0.931 . S
C15 C14 1.347 . S
C15 C16 1.369 . S
C16 C15 1.369 . S
C16 C17 1.408 . S
C16 H38 0.930 . S
C17 C12 1.348 . S
C17 C16 1.408 . S
C17 H39 0.930 . S
C18 O28 1.281 . S
C18 O29 1.254 . S
C19 O30 1.236 . S
C19 O31 1.266 . S
O20 Tb0 2.484 . S
O20 C2 1.248 . S
O21 Tb0 2.440 . S
O21 C2 1.266 . S
O22 Tb0 2.658 . S
O22 Tb1 2.325 1_455 S
O22 C9 1.281 . S
O23 Tb0 2.409 . S
O23 C9 1.254 . S
O24 Tb0 2.378 . S
O24 C10 1.236 . S
O25 Tb1 2.341 1_455 S
O25 C10 1.266 . S
O26 Tb1 2.484 . S
O26 C11 1.248 . S
O27 Tb1 2.440 . S
O27 C11 1.266 . S
O28 Tb0 2.325 . S
O28 Tb1 2.658 1_455 S
O28 C18 1.281 . S
O29 Tb1 2.409 1_455 S
O29 C18 1.254 . S
O30 Tb1 2.378 . S
O30 C19 1.236 . S
O31 Tb0 2.341 1_655 S
O31 C19 1.266 . S
H32 C4 0.929 . S
H33 C5 0.931 . S
H34 C7 0.930 . S
H35 C8 0.930 . S
H36 C13 0.929 . S
H37 C14 0.931 . S
H38 C16 0.930 . S
H39 C17 0.930 . S
Tb40 C42 2.809 . S
Tb40 O60 2.484 . S
Tb40 O61 2.440 . S
Tb40 O62 2.658 1_565 S
Tb40 O63 2.409 1_565 S
Tb40 O64 2.378 . S
Tb40 O68 2.325 1_565 S
Tb40 O71 2.341 1_565 S
Tb41 C51 2.809 . S
Tb41 O62 2.325 . S
Tb41 O65 2.341 1_545 S
Tb41 O66 2.484 . S
Tb41 O67 2.440 . S
Tb41 O68 2.658 . S
Tb41 O69 2.409 . S
Tb41 O70 2.378 . S
C42 Tb40 2.809 . S
C42 C43 1.514 . S
C42 O60 1.248 . S
C42 O61 1.266 . S
C43 C42 1.514 . S
C43 C44 1.359 . S
C43 C48 1.348 . S
C44 C43 1.359 . S
C44 C45 1.380 . S
C44 H72 0.929 . S
C45 C44 1.380 . S
C45 C46 1.347 . S
C45 H73 0.931 . S
C46 C45 1.347 . S
C46 C47 1.369 . S
C47 C46 1.369 . S
C47 C48 1.408 . S
C47 H74 0.930 . S
C48 C43 1.348 . S
C48 C47 1.408 . S
C48 H75 0.930 . S
C49 O62 1.281 . S
C49 O63 1.254 . S
C50 O64 1.236 . S
C50 O65 1.266 . S
C51 Tb41 2.809 . S
C51 C52 1.514 . S
C51 O66 1.248 . S
C51 O67 1.266 . S
C52 C51 1.514 . S
C52 C53 1.359 . S
C52 C57 1.348 . S
C53 C52 1.359 . S
C53 C54 1.380 . S
C53 H76 0.929 . S
C54 C53 1.380 . S
C54 C55 1.347 . S
C54 H77 0.931 . S
C55 C54 1.347 . S
C55 C56 1.369 . S
C56 C55 1.369 . S
C56 C57 1.408 . S
C56 H78 0.930 . S
C57 C52 1.348 . S
C57 C56 1.408 . S
C57 H79 0.930 . S
C58 O68 1.281 . S
C58 O69 1.254 . S
C59 O70 1.236 . S
C59 O71 1.266 . S
O60 Tb40 2.484 . S
O60 C42 1.248 . S
O61 Tb40 2.440 . S
O61 C42 1.266 . S
O62 Tb40 2.658 1_545 S
O62 Tb41 2.325 . S
O62 C49 1.281 . S
O63 Tb40 2.409 1_545 S
O63 C49 1.254 . S
O64 Tb40 2.378 . S
O64 C50 1.236 . S
O65 Tb41 2.341 1_565 S
O65 C50 1.266 . S
O66 Tb41 2.484 . S
O66 C51 1.248 . S
O67 Tb41 2.440 . S
O67 C51 1.266 . S
O68 Tb40 2.325 1_545 S
O68 Tb41 2.658 . S
O68 C58 1.281 . S
O69 Tb41 2.409 . S
O69 C58 1.254 . S
O70 Tb41 2.378 . S
O70 C59 1.236 . S
O71 Tb40 2.341 1_545 S
O71 C59 1.266 . S
H72 C44 0.929 . S
H73 C45 0.931 . S
H74 C47 0.930 . S
H75 C48 0.930 . S
H76 C53 0.929 . S
H77 C54 0.931 . S
H78 C56 0.930 . S
H79 C57 0.930 . S
Tb80 C82 2.809 . S
Tb80 O100 2.484 . S
Tb80 O101 2.440 . S
Tb80 O102 2.658 . S
Tb80 O103 2.409 . S
Tb80 O104 2.378 . S
Tb80 O108 2.325 . S
Tb80 O111 2.341 . S
Tb81 C91 2.809 . S
Tb81 O102 2.325 . S
Tb81 O105 2.341 . S
Tb81 O106 2.484 . S
Tb81 O107 2.440 . S
Tb81 O108 2.658 . S
Tb81 O109 2.409 . S
Tb81 O110 2.378 . S
C82 Tb80 2.809 . S
C82 C83 1.514 . S
C82 O100 1.248 . S
C82 O101 1.266 . S
C83 C82 1.514 . S
C83 C84 1.359 . S
C83 C88 1.348 . S
C84 C83 1.359 . S
C84 C85 1.380 . S
C84 H112 0.929 . S
C85 C84 1.380 . S
C85 C86 1.347 . S
C85 H113 0.931 . S
C86 C85 1.347 . S
C86 C87 1.369 . S
C87 C86 1.369 . S
C87 C88 1.408 . S
C87 H114 0.930 . S
C88 C83 1.348 . S
C88 C87 1.408 . S
C88 H115 0.930 . S
C89 O102 1.281 . S
C89 O103 1.254 . S
C90 O104 1.236 . S
C90 O105 1.266 . S
C91 Tb81 2.809 . S
C91 C92 1.514 . S
C91 O106 1.248 . S
C91 O107 1.266 . S
C92 C91 1.514 . S
C92 C93 1.359 . S
C92 C97 1.348 . S
C93 C92 1.359 . S
C93 C94 1.380 . S
C93 H116 0.929 . S
C94 C93 1.380 . S
C94 C95 1.347 . S
C94 H117 0.931 . S
C95 C94 1.347 . S
C95 C96 1.369 . S
C96 C95 1.369 . S
C96 C97 1.408 . S
C96 H118 0.930 . S
C97 C92 1.348 . S
C97 C96 1.408 . S
C97 H119 0.930 . S
C98 O108 1.281 . S
C98 O109 1.254 . S
C99 O110 1.236 . S
C99 O111 1.266 . S
O100 Tb80 2.484 . S
O100 C82 1.248 . S
O101 Tb80 2.440 . S
O101 C82 1.266 . S
O102 Tb80 2.658 . S
O102 Tb81 2.325 . S
O102 C89 1.281 . S
O103 Tb80 2.409 . S
O103 C89 1.254 . S
O104 Tb80 2.378 . S
O104 C90 1.236 . S
O105 Tb81 2.341 . S
O105 C90 1.266 . S
O106 Tb81 2.484 . S
O106 C91 1.248 . S
O107 Tb81 2.440 . S
O107 C91 1.266 . S
O108 Tb80 2.325 . S
O108 Tb81 2.658 . S
O108 C98 1.281 . S
O109 Tb81 2.409 . S
O109 C98 1.254 . S
O110 Tb81 2.378 . S
O110 C99 1.236 . S
O111 Tb80 2.341 . S
O111 C99 1.266 . S
H112 C84 0.929 . S
H113 C85 0.931 . S
H114 C87 0.930 . S
H115 C88 0.930 . S
H116 C93 0.929 . S
H117 C94 0.931 . S
H118 C96 0.930 . S
H119 C97 0.930 . S
C120 C121 1.391 . S
C120 C124 1.391 . S
C120 H162 0.948 . S
C121 C120 1.391 . S
C121 C122 1.391 . S
C122 C121 1.391 . S
C122 H178 0.947 . S
C122 C179 1.392 . S
C123 C124 1.391 . S
C123 C127 1.397 . S
C123 C179 1.419 . S
C124 C120 1.391 . S
C124 C123 1.391 . S
C124 C125 1.399 . S
C125 C124 1.399 . S
C125 C128 1.396 . S
C125 C137 1.453 . S
C125 C138 1.684 . S
H126 C150 0.948 . S
C127 C123 1.397 . S
C127 C128 1.394 . S
C127 C146 1.723 . S
C128 C125 1.396 . S
C128 C127 1.394 . S
C128 C158 1.723 . S
H129 C152 0.947 . S
H130 C153 0.948 1_545 S
H131 C159 0.982 . S
H132 C160 0.979 . S
H133 C160 0.980 . S
H134 C160 0.983 . S
H135 C159 0.979 . S
H136 C159 0.977 . S
C137 C125 1.453 . S
C137 H166 0.982 . S
C137 H167 0.979 . S
C137 H168 0.977 . S
C138 C125 1.684 . S
C138 H163 0.979 . S
C138 H164 0.980 . S
C138 H165 0.983 . S
C139 C140 1.391 . S
C139 C144 1.391 . S
C139 H169 0.948 . S
C140 C139 1.391 . S
C140 C141 1.391 . S
C141 C140 1.391 . S
C141 C142 1.392 . S
C141 H170 0.947 1_545 S
C142 C141 1.392 . S
C142 C143 1.419 . S
C142 H171 0.948 1_545 S
C143 C142 1.419 . S
C143 C144 1.391 . S
C143 C147 1.397 . S
C144 C139 1.391 . S
C144 C143 1.391 . S
C144 C145 1.399 . S
C145 C144 1.399 . S
C145 C146 1.396 . S
C145 C148 1.453 . S
C145 C149 1.684 . S
C146 C127 1.723 . S
C146 C145 1.396 . S
C146 C147 1.394 . S
C147 C143 1.397 . S
C147 C146 1.394 . S
C147 C157 1.723 . S
C148 C145 1.453 . S
C148 H172 0.982 . S
C148 H173 0.979 . S
C148 H174 0.977 . S
C149 C145 1.684 . S
C149 H175 0.979 . S
C149 H176 0.980 . S
C149 H177 0.983 . S
C150 H126 0.948 . S
C150 C151 1.391 . S
C150 C155 1.391 . S
C151 C150 1.391 . S
C151 C152 1.391 . S
C152 H129 0.947 . S
C152 C151 1.391 . S
C152 C153 1.392 . S
C153 H130 0.948 1_565 S
C153 C152 1.392 . S
C153 C154 1.419 . S
C154 C153 1.419 . S
C154 C155 1.391 . S
C154 C158 1.397 1_565 S
C155 C150 1.391 . S
C155 C154 1.391 . S
C155 C156 1.399 . S
C156 C155 1.399 . S
C156 C157 1.396 1_565 S
C156 C159 1.453 . S
C156 C160 1.684 . S
C157 C147 1.723 . S
C157 C156 1.396 1_545 S
C157 C158 1.394 . S
C158 C128 1.723 . S
C158 C154 1.397 1_545 S
C158 C157 1.394 . S
C159 H131 0.982 . S
C159 H135 0.979 . S
C159 H136 0.977 . S
C159 C156 1.453 . S
C160 H132 0.979 . S
C160 H133 0.980 . S
C160 H134 0.983 . S
C160 C156 1.684 . S
H161 C179 0.948 . S
H162 C120 0.948 . S
H163 C138 0.979 . S
H164 C138 0.980 . S
H165 C138 0.983 . S
H166 C137 0.982 . S
H167 C137 0.979 . S
H168 C137 0.977 . S
H169 C139 0.948 . S
H170 C141 0.947 1_565 S
H171 C142 0.948 1_565 S
H172 C148 0.982 . S
H173 C148 0.979 . S
H174 C148 0.977 . S
H175 C149 0.979 . S
H176 C149 0.980 . S
H177 C149 0.983 . S
H178 C122 0.947 . S
C179 C122 1.392 . S
C179 C123 1.419 . S
C179 H161 0.948 . S
C180 C181 1.391 . S
C180 C184 1.391 . S
C180 H222 0.948 . S
C181 C180 1.391 . S
C181 C182 1.391 . S
C182 C181 1.391 . S
C182 H238 0.947 . S
C182 C239 1.392 . S
C183 C184 1.391 . S
C183 C187 1.397 . S
C183 C239 1.419 . S
C184 C180 1.391 . S
C184 C183 1.391 . S
C184 C185 1.399 . S
C185 C184 1.399 . S
C185 C188 1.396 . S
C185 C197 1.453 . S
C185 C198 1.684 . S
H186 C210 0.948 . S
C187 C183 1.397 . S
C187 C188 1.394 . S
C187 C206 1.723 . S
C188 C185 1.396 . S
C188 C187 1.394 . S
C188 C218 1.723 . S
H189 C212 0.947 . S
H190 C213 0.948 . S
H191 C219 0.982 . S
H192 C220 0.979 . S
H193 C220 0.980 . S
H194 C220 0.983 . S
H195 C219 0.979 . S
H196 C219 0.977 . S
C197 C185 1.453 . S
C197 H226 0.982 . S
C197 H227 0.979 . S
C197 H228 0.977 . S
C198 C185 1.684 . S
C198 H223 0.979 . S
C198 H224 0.980 . S
C198 H225 0.983 . S
C199 C200 1.391 . S
C199 C204 1.391 . S
C199 H229 0.948 . S
C200 C199 1.391 . S
C200 C201 1.391 . S
C201 C200 1.391 . S
C201 C202 1.392 . S
C201 H230 0.947 . S
C202 C201 1.392 . S
C202 C203 1.419 . S
C202 H231 0.948 . S
C203 C202 1.419 . S
C203 C204 1.391 . S
C203 C207 1.397 . S
C204 C199 1.391 . S
C204 C203 1.391 . S
C204 C205 1.399 . S
C205 C204 1.399 . S
C205 C206 1.396 . S
C205 C208 1.453 . S
C205 C209 1.684 . S
C206 C187 1.723 . S
C206 C205 1.396 . S
C206 C207 1.394 . S
C207 C203 1.397 . S
C207 C206 1.394 . S
C207 C217 1.723 . S
C208 C205 1.453 . S
C208 H232 0.982 . S
C208 H233 0.979 . S
C208 H234 0.977 . S
C209 C205 1.684 . S
C209 H235 0.979 . S
C209 H236 0.980 . S
C209 H237 0.983 . S
C210 H186 0.948 . S
C210 C211 1.391 . S
C210 C215 1.391 . S
C211 C210 1.391 . S
C211 C212 1.391 . S
C212 H189 0.947 . S
C212 C211 1.391 . S
C212 C213 1.392 . S
C213 H190 0.948 . S
C213 C212 1.392 . S
C213 C214 1.419 . S
C214 C213 1.419 . S
C214 C215 1.391 . S
C214 C218 1.397 . S
C215 C210 1.391 . S
C215 C214 1.391 . S
C215 C216 1.399 . S
C216 C215 1.399 . S
C216 C217 1.396 . S
C216 C219 1.453 . S
C216 C220 1.684 . S
C217 C207 1.723 . S
C217 C216 1.396 . S
C217 C218 1.394 . S
C218 C188 1.723 . S
C218 C214 1.397 . S
C218 C217 1.394 . S
C219 H191 0.982 . S
C219 H195 0.979 . S
C219 H196 0.977 . S
C219 C216 1.453 . S
C220 H192 0.979 . S
C220 H193 0.980 . S
C220 H194 0.983 . S
C220 C216 1.684 . S
H221 C239 0.948 . S
H222 C180 0.948 . S
H223 C198 0.979 . S
H224 C198 0.980 . S
H225 C198 0.983 . S
H226 C197 0.982 . S
H227 C197 0.979 . S
H228 C197 0.977 . S
H229 C199 0.948 . S
H230 C201 0.947 . S
H231 C202 0.948 . S
H232 C208 0.982 . S
H233 C208 0.979 . S
H234 C208 0.977 . S
H235 C209 0.979 . S
H236 C209 0.980 . S
H237 C209 0.983 . S
H238 C182 0.947 . S
C239 C182 1.392 . S
C239 C183 1.419 . S
C239 H221 0.948 . S
C240 C241 1.391 . S
C240 C244 1.391 . S
C240 H282 0.948 . S
C241 C240 1.391 . S
C241 C242 1.391 . S
C242 C241 1.391 . S
C242 H298 0.947 . S
C242 C299 1.392 . S
C243 C244 1.391 . S
C243 C247 1.397 . S
C243 C299 1.419 . S
C244 C240 1.391 . S
C244 C243 1.391 . S
C244 C245 1.399 . S
C245 C244 1.399 . S
C245 C248 1.396 . S
C245 C257 1.453 . S
C245 C258 1.684 . S
H246 C270 0.948 . S
C247 C243 1.397 . S
C247 C248 1.394 . S
C247 C266 1.723 . S
C248 C245 1.396 . S
C248 C247 1.394 . S
C248 C278 1.723 1_455 S
H249 C272 0.947 . S
H250 C273 0.948 . S
H251 C279 0.982 . S
H252 C280 0.979 . S
H253 C280 0.980 . S
H254 C280 0.983 . S
H255 C279 0.979 . S
H256 C279 0.977 . S
C257 C245 1.453 . S
C257 H286 0.981 . S
C257 H287 0.979 . S
C257 H288 0.977 1_455 S
C258 C245 1.684 . S
C258 H283 0.979 . S
C258 H284 0.980 . S
C258 H285 0.983 . S
C259 C260 1.391 1_556 S
C259 C264 1.391 . S
C259 H289 0.948 1_556 S
C260 C259 1.391 1_554 S
C260 C261 1.391 1_454 S
C261 C260 1.391 1_656 S
C261 C262 1.392 . S
C261 H290 0.947 1_556 S
C262 C261 1.392 . S
C262 C263 1.419 . S
C262 H291 0.948 . S
C263 C262 1.419 . S
C263 C264 1.391 1_655 S
C263 C267 1.397 . S
C264 C259 1.391 . S
C264 C263 1.391 1_455 S
C264 C265 1.399 . S
C265 C264 1.399 . S
C265 C266 1.396 . S
C265 C268 1.453 . S
C265 C269 1.684 . S
C266 C247 1.723 . S
C266 C265 1.396 . S
C266 C267 1.394 1_455 S
C267 C263 1.397 . S
C267 C266 1.394 1_655 S
C267 C277 1.723 . S
C268 C265 1.453 . S
C268 H292 0.982 . S
C268 H293 0.979 . S
C268 H294 0.977 . S
C269 C265 1.684 . S
C269 H295 0.979 . S
C269 H296 0.980 . S
C269 H297 0.983 . S
C270 H246 0.948 . S
C270 C271 1.391 . S
C270 C275 1.391 . S
C271 C270 1.391 . S
C271 C272 1.391 . S
C272 H249 0.947 . S
C272 C271 1.391 . S
C272 C273 1.392 . S
C273 H250 0.948 . S
C273 C272 1.392 . S
C273 C274 1.419 . S
C274 C273 1.419 . S
C274 C275 1.391 . S
C274 C278 1.397 . S
C275 C270 1.391 . S
C275 C274 1.391 . S
C275 C276 1.399 . S
C276 C275 1.399 . S
C276 C277 1.396 . S
C276 C279 1.453 . S
C276 C280 1.684 . S
C277 C267 1.723 . S
C277 C276 1.396 . S
C277 C278 1.394 . S
C278 C248 1.723 1_655 S
C278 C274 1.397 . S
C278 C277 1.394 . S
C279 H251 0.982 . S
C279 H255 0.979 . S
C279 H256 0.977 . S
C279 C276 1.453 . S
C280 H252 0.979 . S
C280 H253 0.980 . S
C280 H254 0.983 . S
C280 C276 1.684 . S
H281 C299 0.948 . S
H282 C240 0.948 . S
H283 C258 0.979 . S
H284 C258 0.980 . S
H285 C258 0.983 . S
H286 C257 0.981 . S
H287 C257 0.979 . S
H288 C257 0.977 1_655 S
H289 C259 0.948 1_554 S
H290 C261 0.947 1_554 S
H291 C262 0.948 . S
H292 C268 0.982 . S
H293 C268 0.979 . S
H294 C268 0.977 . S
H295 C269 0.979 . S
H296 C269 0.980 . S
H297 C269 0.983 . S
H298 C242 0.947 . S
C299 C242 1.392 . S
C299 C243 1.419 . S
C299 H281 0.948 . S
C300 C301 1.391 . S
C300 C304 1.391 . S
C300 H342 0.948 . S
C301 C300 1.391 . S
C301 C302 1.391 . S
C302 C301 1.391 . S
C302 H358 0.947 . S
C302 C359 1.392 . S
C303 C304 1.391 . S
C303 C307 1.397 1_655 S
C303 C359 1.419 . S
C304 C300 1.391 . S
C304 C303 1.391 . S
C304 C305 1.399 1_655 S
C305 C304 1.399 1_455 S
C305 C308 1.396 . S
C305 C317 1.453 . S
C305 C318 1.684 . S
H306 C330 0.948 . S
C307 C303 1.397 1_455 S
C307 C308 1.394 . S
C307 C326 1.723 . S
C308 C305 1.396 . S
C308 C307 1.394 . S
C308 C338 1.723 . S
H309 C332 0.947 . S
H310 C333 0.948 . S
H311 C339 0.982 . S
H312 C340 0.979 . S
H313 C340 0.980 . S
H314 C340 0.983 . S
H315 C339 0.979 . S
H316 C339 0.977 . S
C317 C305 1.453 . S
C317 H346 0.982 . S
C317 H347 0.979 . S
C317 H348 0.977 . S
C318 C305 1.684 . S
C318 H343 0.979 1_455 S
C318 H344 0.980 . S
C318 H345 0.983 . S
C319 C320 1.391 . S
C319 C324 1.391 . S
C319 H349 0.948 1_455 S
C320 C319 1.391 . S
C320 C321 1.391 . S
C321 C320 1.391 . S
C321 C322 1.392 . S
C321 H350 0.947 . S
C322 C321 1.392 . S
C322 C323 1.419 . S
C322 H351 0.948 . S
C323 C322 1.419 . S
C323 C324 1.391 . S
C323 C327 1.397 . S
C324 C319 1.391 . S
C324 C323 1.391 . S
C324 C325 1.399 1_455 S
C325 C324 1.399 1_655 S
C325 C326 1.396 1_655 S
C325 C328 1.453 . S
C325 C329 1.684 . S
C326 C307 1.723 . S
C326 C325 1.396 1_455 S
C326 C327 1.394 . S
C327 C323 1.397 . S
C327 C326 1.394 . S
C327 C337 1.723 . S
C328 C325 1.453 . S
C328 H352 0.982 1_655 S
C328 H353 0.979 . S
C328 H354 0.977 . S
C329 C325 1.684 . S
C329 H355 0.979 . S
C329 H356 0.980 . S
C329 H357 0.983 . S
C330 H306 0.948 . S
C330 C331 1.391 . S
C330 C335 1.391 . S
C331 C330 1.391 . S
C331 C332 1.391 . S
C332 H309 0.947 . S
C332 C331 1.391 . S
C332 C333 1.392 . S
C333 H310 0.948 . S
C333 C332 1.392 . S
C333 C334 1.419 . S
C334 C333 1.419 . S
C334 C335 1.391 . S
C334 C338 1.397 . S
C335 C330 1.391 . S
C335 C334 1.391 . S
C335 C336 1.399 . S
C336 C335 1.399 . S
C336 C337 1.396 . S
C336 C339 1.453 . S
C336 C340 1.684 . S
C337 C327 1.723 . S
C337 C336 1.396 . S
C337 C338 1.394 . S
C338 C308 1.723 . S
C338 C334 1.397 . S
C338 C337 1.394 . S
C339 H311 0.982 . S
C339 H315 0.979 . S
C339 H316 0.977 . S
C339 C336 1.453 . S
C340 H312 0.979 . S
C340 H313 0.980 . S
C340 H314 0.983 . S
C340 C336 1.684 . S
H341 C359 0.948 . S
H342 C300 0.948 . S
H343 C318 0.979 1_655 S
H344 C318 0.980 . S
H345 C318 0.983 . S
H346 C317 0.982 . S
H347 C317 0.979 . S
H348 C317 0.977 . S
H349 C319 0.948 1_655 S
H350 C321 0.947 . S
H351 C322 0.948 . S
H352 C328 0.982 1_455 S
H353 C328 0.979 . S
H354 C328 0.977 . S
H355 C329 0.979 . S
H356 C329 0.980 . S
H357 C329 0.983 . S
H358 C302 0.947 . S
C359 C302 1.392 . S
C359 C303 1.419 . S
C359 H341 0.948 . S
C360 C361 1.391 . S
C360 C364 1.391 . S
C360 H402 0.948 . S
C361 C360 1.391 . S
C361 C362 1.391 . S
C362 C361 1.391 . S
C362 H418 0.947 . S
C362 C419 1.392 . S
C363 C364 1.391 . S
C363 C367 1.397 . S
C363 C419 1.419 . S
C364 C360 1.391 . S
C364 C363 1.391 . S
C364 C365 1.399 . S
C365 C364 1.399 . S
C365 C368 1.396 . S
C365 C377 1.453 . S
C365 C378 1.684 . S
H366 C390 0.948 . S
C367 C363 1.397 . S
C367 C368 1.394 . S
C367 C386 1.723 . S
C368 C365 1.396 . S
C368 C367 1.394 . S
C368 C398 1.723 1_565 S
H369 C392 0.947 . S
H370 C393 0.948 . S
H371 C399 0.982 . S
H372 C400 0.979 . S
H373 C400 0.980 . S
H374 C400 0.983 . S
H375 C399 0.979 . S
H376 C399 0.977 . S
C377 C365 1.453 . S
C377 H406 0.982 1_565 S
C377 H407 0.979 . S
C377 H408 0.977 1_565 S
C378 C365 1.684 . S
C378 H403 0.979 . S
C378 H404 0.980 . S
C378 H405 0.983 . S
C379 C380 1.391 1_565 S
C379 C384 1.391 . S
C379 H409 0.948 . S
C380 C379 1.391 1_545 S
C380 C381 1.391 . S
C381 C380 1.391 . S
C381 C382 1.392 . S
C381 H410 0.947 . S
C382 C381 1.392 . S
C382 C383 1.419 . S
C382 H411 0.948 . S
C383 C382 1.419 . S
C383 C384 1.391 1_545 S
C383 C387 1.397 . S
C384 C379 1.391 . S
C384 C383 1.391 1_565 S
C384 C385 1.399 . S
C385 C384 1.399 . S
C385 C386 1.396 . S
C385 C388 1.453 . S
C385 C389 1.684 . S
C386 C367 1.723 . S
C386 C385 1.396 . S
C386 C387 1.394 1_565 S
C387 C383 1.397 . S
C387 C386 1.394 1_545 S
C387 C397 1.723 . S
C388 C385 1.453 . S
C388 H412 0.982 . S
C388 H413 0.979 . S
C388 H414 0.977 . S
C389 C385 1.684 . S
C389 H415 0.979 . S
C389 H416 0.980 . S
C389 H417 0.983 . S
C390 H366 0.948 . S
C390 C391 1.391 . S
C390 C395 1.391 . S
C391 C390 1.391 . S
C391 C392 1.391 . S
C392 H369 0.947 . S
C392 C391 1.391 . S
C392 C393 1.392 . S
C393 H370 0.948 . S
C393 C392 1.392 . S
C393 C394 1.419 . S
C394 C393 1.419 . S
C394 C395 1.391 . S
C394 C398 1.397 . S
C395 C390 1.391 . S
C395 C394 1.391 . S
C395 C396 1.399 . S
C396 C395 1.399 . S
C396 C397 1.396 . S
C396 C399 1.453 . S
C396 C400 1.684 . S
C397 C387 1.723 . S
C397 C396 1.396 . S
C397 C398 1.394 . S
C398 C368 1.723 1_545 S
C398 C394 1.397 . S
C398 C397 1.394 . S
C399 H371 0.982 . S
C399 H375 0.979 . S
C399 H376 0.977 . S
C399 C396 1.453 . S
C400 H372 0.979 . S
C400 H373 0.980 . S
C400 H374 0.983 . S
C400 C396 1.684 . S
H401 C419 0.948 . S
H402 C360 0.948 . S
H403 C378 0.979 . S
H404 C378 0.980 . S
H405 C378 0.983 . S
H406 C377 0.982 1_545 S
H407 C377 0.979 . S
H408 C377 0.977 1_545 S
H409 C379 0.948 . S
H410 C381 0.947 . S
H411 C382 0.948 . S
H412 C388 0.982 . S
H413 C388 0.979 . S
H414 C388 0.977 . S
H415 C389 0.979 . S
H416 C389 0.980 . S
H417 C389 0.983 . S
H418 C362 0.947 . S
C419 C362 1.392 . S
C419 C363 1.419 . S
C419 H401 0.948 . S
C420 C421 1.391 . S
C420 C424 1.391 . S
C420 H462 0.948 . S
C421 C420 1.391 . S
C421 C422 1.391 . S
C422 C421 1.391 . S
C422 H478 0.947 . S
C422 C479 1.392 . S
C423 C424 1.391 . S
C423 C427 1.397 . S
C423 C479 1.419 . S
C424 C420 1.391 . S
C424 C423 1.391 . S
C424 C425 1.399 . S
C425 C424 1.399 . S
C425 C428 1.396 . S
C425 C437 1.453 . S
C425 C438 1.684 . S
H426 C450 0.948 . S
C427 C423 1.397 . S
C427 C428 1.394 . S
C427 C446 1.723 . S
C428 C425 1.396 . S
C428 C427 1.394 . S
C428 C458 1.723 . S
H429 C452 0.947 . S
H430 C453 0.948 . S
H431 C459 0.982 . S
H432 C460 0.979 . S
H433 C460 0.980 . S
H434 C460 0.983 . S
H435 C459 0.979 . S
H436 C459 0.977 . S
C437 C425 1.453 . S
C437 H466 0.982 . S
C437 H467 0.979 . S
C437 H468 0.977 . S
C438 C425 1.684 . S
C438 H463 0.979 . S
C438 H464 0.980 . S
C438 H465 0.983 . S
C439 C440 1.391 . S
C439 C444 1.391 . S
C439 H469 0.948 . S
C440 C439 1.391 . S
C440 C441 1.391 . S
C441 C440 1.391 . S
C441 C442 1.392 . S
C441 H470 0.947 . S
C442 C441 1.392 . S
C442 C443 1.419 . S
C442 H471 0.948 . S
C443 C442 1.419 . S
C443 C444 1.391 . S
C443 C447 1.397 . S
C444 C439 1.391 . S
C444 C443 1.391 . S
C444 C445 1.399 . S
C445 C444 1.399 . S
C445 C446 1.396 . S
C445 C448 1.453 . S
C445 C449 1.684 . S
C446 C427 1.723 . S
C446 C445 1.396 . S
C446 C447 1.394 . S
C447 C443 1.397 . S
C447 C446 1.394 . S
C447 C457 1.723 . S
C448 C445 1.453 . S
C448 H472 0.982 . S
C448 H473 0.979 . S
C448 H474 0.977 . S
C449 C445 1.684 . S
C449 H475 0.979 . S
C449 H476 0.980 . S
C449 H477 0.983 . S
C450 H426 0.948 . S
C450 C451 1.391 . S
C450 C455 1.391 . S
C451 C450 1.391 . S
C451 C452 1.391 . S
C452 H429 0.947 . S
C452 C451 1.391 . S
C452 C453 1.392 . S
C453 H430 0.948 . S
C453 C452 1.392 . S
C453 C454 1.419 . S
C454 C453 1.419 . S
C454 C455 1.391 . S
C454 C458 1.397 . S
C455 C450 1.391 . S
C455 C454 1.391 . S
C455 C456 1.399 . S
C456 C455 1.399 . S
C456 C457 1.396 . S
C456 C459 1.453 . S
C456 C460 1.684 . S
C457 C447 1.723 . S
C457 C456 1.396 . S
C457 C458 1.394 . S
C458 C428 1.723 . S
C458 C454 1.397 . S
C458 C457 1.394 . S
C459 H431 0.982 . S
C459 H435 0.979 . S
C459 H436 0.977 . S
C459 C456 1.453 . S
C460 H432 0.979 . S
C460 H433 0.980 . S
C460 H434 0.983 . S
C460 C456 1.684 . S
H461 C479 0.948 . S
H462 C420 0.948 . S
H463 C438 0.979 . S
H464 C438 0.980 . S
H465 C438 0.983 . S
H466 C437 0.982 . S
H467 C437 0.979 . S
H468 C437 0.977 . S
H469 C439 0.948 . S
H470 C441 0.947 . S
H471 C442 0.948 . S
H472 C448 0.982 . S
H473 C448 0.979 . S
H474 C448 0.977 . S
H475 C449 0.979 . S
H476 C449 0.980 . S
H477 C449 0.983 . S
H478 C422 0.947 . S
C479 C422 1.392 . S
C479 C423 1.419 . S
C479 H461 0.948 . S
H480 C486 0.930 . S
H481 C489 0.930 . S
H482 C490 0.930 . S
H483 C491 0.930 . S
H484 C494 0.930 . S
H485 C495 0.930 . S
C486 H480 0.930 . S
C486 C487 1.355 . S
C486 C488 1.415 . S
C487 C486 1.355 . S
C487 C489 1.419 . S
C488 C486 1.415 . S
C488 C493 1.425 . S
C488 C495 1.409 . S
C489 H481 0.930 . S
C489 C487 1.419 . S
C489 C490 1.362 . S
C490 H482 0.930 . S
C490 C489 1.362 . S
C490 C493 1.409 . S
C491 H483 0.930 . S
C491 C492 1.355 . S
C491 C493 1.415 . S
C492 C491 1.355 . S
C492 C494 1.419 . S
C493 C488 1.425 . S
C493 C490 1.409 . S
C493 C491 1.415 . S
C494 H484 0.930 . S
C494 C492 1.419 . S
C494 C495 1.362 . S
C495 H485 0.930 . S
C495 C488 1.409 . S
C495 C494 1.362 . S
H496 C502 0.930 . S
H497 C505 0.930 . S
H498 C506 0.930 . S
H499 C507 0.930 . S
H500 C510 0.930 . S
H501 C511 0.930 . S
C502 H496 0.930 . S
C502 C503 1.355 . S
C502 C504 1.415 . S
C503 C502 1.355 . S
C503 C505 1.419 . S
C504 C502 1.415 . S
C504 C509 1.425 . S
C504 C511 1.409 . S
C505 H497 0.930 . S
C505 C503 1.419 . S
C505 C506 1.362 . S
C506 H498 0.930 . S
C506 C505 1.362 . S
C506 C509 1.409 . S
C507 H499 0.930 . S
C507 C508 1.355 . S
C507 C509 1.415 . S
C508 C507 1.355 . S
C508 C510 1.419 . S
C509 C504 1.425 . S
C509 C506 1.409 . S
C509 C507 1.415 . S
C510 H500 0.930 . S
C510 C508 1.419 . S
C510 C511 1.362 . S
C511 H501 0.930 . S
C511 C504 1.409 . S
C511 C510 1.362 . S
H512 C518 0.930 . S
H513 C521 0.930 . S
H514 C522 0.930 . S
H515 C523 0.930 . S
H516 C526 0.930 . S
H517 C527 0.930 . S
C518 H512 0.930 . S
C518 C519 1.355 . S
C518 C520 1.415 . S
C519 C518 1.355 . S
C519 C521 1.419 . S
C520 C518 1.415 . S
C520 C525 1.425 . S
C520 C527 1.409 . S
C521 H513 0.930 . S
C521 C519 1.419 . S
C521 C522 1.362 . S
C522 H514 0.930 . S
C522 C521 1.362 . S
C522 C525 1.409 . S
C523 H515 0.930 . S
C523 C524 1.355 . S
C523 C525 1.415 . S
C524 C523 1.355 . S
C524 C526 1.419 . S
C525 C520 1.425 . S
C525 C522 1.409 . S
C525 C523 1.415 . S
C526 H516 0.930 . S
C526 C524 1.419 . S
C526 C527 1.362 . S
C527 H517 0.930 . S
C527 C520 1.409 . S
C527 C526 1.362 . S
H528 C534 0.930 . S
H529 C537 0.930 . S
H530 C538 0.930 . S
H531 C539 0.930 . S
H532 C542 0.930 . S
H533 C543 0.930 . S
C534 H528 0.930 . S
C534 C535 1.355 . S
C534 C536 1.415 . S
C535 C534 1.355 . S
C535 C537 1.419 . S
C536 C534 1.415 . S
C536 C541 1.425 . S
C536 C543 1.409 . S
C537 H529 0.930 . S
C537 C535 1.419 . S
C537 C538 1.362 . S
C538 H530 0.930 . S
C538 C537 1.362 . S
C538 C541 1.409 . S
C539 H531 0.930 . S
C539 C540 1.355 . S
C539 C541 1.415 . S
C540 C539 1.355 . S
C540 C542 1.419 . S
C541 C536 1.425 . S
C541 C538 1.409 . S
C541 C539 1.415 . S
C542 H532 0.930 . S
C542 C540 1.419 . S
C542 C543 1.362 . S
C543 H533 0.930 . S
C543 C536 1.409 . S
C543 C542 1.362 . S
H544 C550 0.930 . S
H545 C553 0.930 . S
H546 C554 0.930 . S
H547 C555 0.930 . S
H548 C558 0.930 . S
H549 C559 0.930 . S
C550 H544 0.930 . S
C550 C551 1.355 . S
C550 C552 1.415 . S
C551 C550 1.355 . S
C551 C553 1.419 . S
C552 C550 1.415 . S
C552 C557 1.425 . S
C552 C559 1.409 . S
C553 H545 0.930 . S
C553 C551 1.419 . S
C553 C554 1.362 . S
C554 H546 0.930 . S
C554 C553 1.362 . S
C554 C557 1.409 . S
C555 H547 0.930 . S
C555 C556 1.355 . S
C555 C557 1.415 . S
C556 C555 1.355 . S
C556 C558 1.419 . S
C557 C552 1.425 . S
C557 C554 1.409 . S
C557 C555 1.415 . S
C558 H548 0.930 . S
C558 C556 1.419 . S
C558 C559 1.362 . S
C559 H549 0.930 . S
C559 C552 1.409 . S
C559 C558 1.362 . S
H560 C566 0.930 . S
H561 C569 0.930 . S
H562 C570 0.930 . S
H563 C571 0.930 . S
H564 C574 0.930 . S
H565 C575 0.930 . S
C566 H560 0.930 . S
C566 C567 1.355 . S
C566 C568 1.415 . S
C567 C566 1.355 . S
C567 C569 1.419 . S
C568 C566 1.415 . S
C568 C573 1.425 . S
C568 C575 1.409 . S
C569 H561 0.930 . S
C569 C567 1.419 . S
C569 C570 1.362 . S
C570 H562 0.930 . S
C570 C569 1.362 . S
C570 C573 1.409 . S
C571 H563 0.930 . S
C571 C572 1.355 . S
C571 C573 1.415 . S
C572 C571 1.355 . S
C572 C574 1.419 . S
C573 C568 1.425 . S
C573 C570 1.409 . S
C573 C571 1.415 . S
C574 H564 0.930 . S
C574 C572 1.419 . S
C574 C575 1.362 . S
C575 H565 0.930 . S
C575 C568 1.409 . S
C575 C574 1.362 . S
H576 C582 0.930 . S
H577 C585 0.930 . S
H578 C586 0.930 . S
H579 C587 0.930 . S
H580 C590 0.930 . S
H581 C591 0.930 . S
C582 H576 0.930 . S
C582 C583 1.355 . S
C582 C584 1.415 . S
C583 C582 1.355 . S
C583 C585 1.419 . S
C584 C582 1.415 . S
C584 C589 1.425 . S
C584 C591 1.409 . S
C585 H577 0.930 . S
C585 C583 1.419 . S
C585 C586 1.362 . S
C586 H578 0.930 . S
C586 C585 1.362 . S
C586 C589 1.409 . S
C587 H579 0.930 . S
C587 C588 1.355 . S
C587 C589 1.415 . S
C588 C587 1.355 . S
C588 C590 1.419 . S
C589 C584 1.425 . S
C589 C586 1.409 . S
C589 C587 1.415 . S
C590 H580 0.930 . S
C590 C588 1.419 . S
C590 C591 1.362 . S
C591 H581 0.930 . S
C591 C584 1.409 . S
C591 C590 1.362 . S
H592 C598 0.930 . S
H593 C601 0.930 . S
H594 C602 0.930 . S
H595 C603 0.930 . S
H596 C606 0.930 . S
H597 C607 0.930 . S
C598 H592 0.930 . S
C598 C599 1.355 . S
C598 C600 1.415 . S
C599 C598 1.355 . S
C599 C601 1.419 . S
C600 C598 1.415 . S
C600 C605 1.425 . S
C600 C607 1.409 . S
C601 H593 0.930 . S
C601 C599 1.419 . S
C601 C602 1.362 . S
C602 H594 0.930 . S
C602 C601 1.362 . S
C602 C605 1.409 . S
C603 H595 0.930 . S
C603 C604 1.355 . S
C603 C605 1.415 . S
C604 C603 1.355 . S
C604 C606 1.419 . S
C605 C600 1.425 . S
C605 C602 1.409 . S
C605 C603 1.415 . S
C606 H596 0.930 . S
C606 C604 1.419 . S
C606 C607 1.362 . S
C607 H597 0.930 . S
C607 C600 1.409 . S
C607 C606 1.362 . S
H608 C614 0.930 . S
H609 C617 0.930 . S
H610 C618 0.930 . S
H611 C619 0.930 . S
H612 C622 0.930 . S
H613 C623 0.930 . S
C614 H608 0.930 . S
C614 C615 1.355 . S
C614 C616 1.415 . S
C615 C614 1.355 . S
C615 C617 1.419 . S
C616 C614 1.415 . S
C616 C621 1.425 . S
C616 C623 1.409 . S
C617 H609 0.930 . S
C617 C615 1.419 . S
C617 C618 1.362 . S
C618 H610 0.930 . S
C618 C617 1.362 . S
C618 C621 1.409 . S
C619 H611 0.930 . S
C619 C620 1.355 . S
C619 C621 1.415 . S
C620 C619 1.355 . S
C620 C622 1.419 . S
C621 C616 1.425 . S
C621 C618 1.409 . S
C621 C619 1.415 . S
C622 H612 0.930 . S
C622 C620 1.419 . S
C622 C623 1.362 . S
C623 H613 0.930 . S
C623 C616 1.409 . S
C623 C622 1.362 . S
H624 C630 0.930 . S
H625 C633 0.930 . S
H626 C634 0.930 . S
H627 C635 0.930 . S
H628 C638 0.930 . S
H629 C639 0.930 . S
C630 H624 0.930 . S
C630 C631 1.355 . S
C630 C632 1.415 . S
C631 C630 1.355 . S
C631 C633 1.419 . S
C632 C630 1.415 . S
C632 C637 1.425 . S
C632 C639 1.409 . S
C633 H625 0.930 . S
C633 C631 1.419 . S
C633 C634 1.362 . S
C634 H626 0.930 . S
C634 C633 1.362 . S
C634 C637 1.409 . S
C635 H627 0.930 . S
C635 C636 1.355 . S
C635 C637 1.415 . S
C636 C635 1.355 . S
C636 C638 1.419 . S
C637 C632 1.425 . S
C637 C634 1.409 . S
C637 C635 1.415 . S
C638 H628 0.930 . S
C638 C636 1.419 . S
C638 C639 1.362 . S
C639 H629 0.930 . S
C639 C632 1.409 . S
C639 C638 1.362 . S
H640 C646 0.930 . S
H641 C649 0.930 . S
H642 C650 0.930 . S
H643 C651 0.930 . S
H644 C654 0.930 . S
H645 C655 0.930 . S
C646 H640 0.930 . S
C646 C647 1.355 . S
C646 C648 1.415 . S
C647 C646 1.355 . S
C647 C649 1.419 . S
C648 C646 1.415 . S
C648 C653 1.425 . S
C648 C655 1.409 . S
C649 H641 0.930 . S
C649 C647 1.419 . S
C649 C650 1.362 . S
C650 H642 0.930 . S
C650 C649 1.362 . S
C650 C653 1.409 . S
C651 H643 0.930 . S
C651 C652 1.355 . S
C651 C653 1.415 . S
C652 C651 1.355 . S
C652 C654 1.419 . S
C653 C648 1.425 . S
C653 C650 1.409 . S
C653 C651 1.415 . S
C654 H644 0.930 . S
C654 C652 1.419 . S
C654 C655 1.362 . S
C655 H645 0.930 . S
C655 C648 1.409 . S
C655 C654 1.362 . S
H656 C662 0.930 . S
H657 C665 0.930 . S
H658 C666 0.930 . S
H659 C667 0.930 . S
H660 C670 0.930 . S
H661 C671 0.930 . S
C662 H656 0.930 . S
C662 C663 1.355 . S
C662 C664 1.415 . S
C663 C662 1.355 . S
C663 C665 1.419 . S
C664 C662 1.415 . S
C664 C669 1.425 . S
C664 C671 1.409 . S
C665 H657 0.930 . S
C665 C663 1.419 . S
C665 C666 1.362 . S
C666 H658 0.930 . S
C666 C665 1.362 . S
C666 C669 1.409 . S
C667 H659 0.930 . S
C667 C668 1.355 . S
C667 C669 1.415 . S
C668 C667 1.355 . S
C668 C670 1.419 . S
C669 C664 1.425 . S
C669 C666 1.409 . S
C669 C667 1.415 . S
C670 H660 0.930 . S
C670 C668 1.419 . S
C670 C671 1.362 . S
C671 H661 0.930 . S
C671 C664 1.409 . S
C671 C670 1.362 . S
H672 C678 0.930 . S
H673 C681 0.930 . S
H674 C682 0.930 . S
H675 C683 0.930 . S
H676 C686 0.930 . S
H677 C687 0.930 . S
C678 H672 0.930 . S
C678 C679 1.355 1_655 S
C678 C680 1.415 . S
C679 C678 1.355 1_455 S
C679 C681 1.419 . S
C680 C678 1.415 . S
C680 C685 1.425 1_655 S
C680 C687 1.409 . S
C681 H673 0.930 . S
C681 C679 1.419 . S
C681 C682 1.362 . S
C682 H674 0.930 . S
C682 C681 1.362 . S
C682 C685 1.409 . S
C683 H675 0.930 . S
C683 C684 1.355 . S
C683 C685 1.415 . S
C684 C683 1.355 . S
C684 C686 1.419 1_455 S
C685 C680 1.425 1_455 S
C685 C682 1.409 . S
C685 C683 1.415 . S
C686 H676 0.930 . S
C686 C684 1.419 1_655 S
C686 C687 1.362 . S
C687 H677 0.930 . S
C687 C680 1.409 . S
C687 C686 1.362 . S
H688 C694 0.930 . S
H689 C697 0.930 1_565 S
H690 C698 0.930 1_565 S
H691 C699 0.930 . S
H692 C702 0.930 . S
H693 C703 0.930 . S
C694 H688 0.930 . S
C694 C695 1.355 . S
C694 C696 1.415 . S
C695 C694 1.355 . S
C695 C697 1.419 . S
C696 C694 1.415 . S
C696 C701 1.425 . S
C696 C703 1.409 . S
C697 H689 0.930 1_545 S
C697 C695 1.419 . S
C697 C698 1.362 . S
C698 H690 0.930 1_545 S
C698 C697 1.362 . S
C698 C701 1.409 . S
C699 H691 0.930 . S
C699 C700 1.355 . S
C699 C701 1.415 . S
C700 C699 1.355 . S
C700 C702 1.419 . S
C701 C696 1.425 . S
C701 C698 1.409 . S
C701 C699 1.415 . S
C702 H692 0.930 . S
C702 C700 1.419 . S
C702 C703 1.362 . S
C703 H693 0.930 . S
C703 C696 1.409 . S
C703 C702 1.362 . S
H704 C710 0.930 . S
H705 C713 0.930 . S
H706 C714 0.930 . S
H707 C715 0.930 . S
H708 C718 0.930 . S
H709 C719 0.930 . S
C710 H704 0.930 . S
C710 C711 1.355 . S
C710 C712 1.415 . S
C711 C710 1.355 . S
C711 C713 1.419 . S
C712 C710 1.415 . S
C712 C717 1.425 . S
C712 C719 1.409 . S
C713 H705 0.930 . S
C713 C711 1.419 . S
C713 C714 1.362 . S
C714 H706 0.930 . S
C714 C713 1.362 . S
C714 C717 1.409 . S
C715 H707 0.930 . S
C715 C716 1.355 . S
C715 C717 1.415 . S
C716 C715 1.355 . S
C716 C718 1.419 . S
C717 C712 1.425 . S
C717 C714 1.409 . S
C717 C715 1.415 . S
C718 H708 0.930 . S
C718 C716 1.419 . S
C718 C719 1.362 . S
C719 H709 0.930 . S
C719 C712 1.409 . S
C719 C718 1.362 . S
H720 C726 0.930 . S
H721 C729 0.930 . S
H722 C730 0.930 . S
H723 C731 0.930 . S
H724 C734 0.930 . S
H725 C735 0.930 . S
C726 H720 0.930 . S
C726 C727 1.355 . S
C726 C728 1.415 . S
C727 C726 1.355 . S
C727 C729 1.419 1_545 S
C728 C726 1.415 . S
C728 C733 1.425 1_545 S
C728 C735 1.409 . S
C729 H721 0.930 . S
C729 C727 1.419 1_565 S
C729 C730 1.362 . S
C730 H722 0.930 . S
C730 C729 1.362 . S
C730 C733 1.409 . S
C731 H723 0.930 . S
C731 C732 1.355 1_565 S
C731 C733 1.415 . S
C732 C731 1.355 1_545 S
C732 C734 1.419 . S
C733 C728 1.425 1_565 S
C733 C730 1.409 . S
C733 C731 1.415 . S
C734 H724 0.930 . S
C734 C732 1.419 . S
C734 C735 1.362 . S
C735 H725 0.930 . S
C735 C728 1.409 . S
C735 C734 1.362 . S
H736 C742 0.930 . S
H737 C745 0.930 . S
H738 C746 0.930 . S
H739 C747 0.930 . S
H740 C750 0.930 . S
H741 C751 0.930 . S
C742 H736 0.930 . S
C742 C743 1.355 . S
C742 C744 1.415 . S
C743 C742 1.355 . S
C743 C745 1.419 . S
C744 C742 1.415 . S
C744 C749 1.425 . S
C744 C751 1.409 . S
C745 H737 0.930 . S
C745 C743 1.419 . S
C745 C746 1.362 . S
C746 H738 0.930 . S
C746 C745 1.362 . S
C746 C749 1.409 . S
C747 H739 0.930 . S
C747 C748 1.355 . S
C747 C749 1.415 . S
C748 C747 1.355 . S
C748 C750 1.419 . S
C749 C744 1.425 . S
C749 C746 1.409 . S
C749 C747 1.415 . S
C750 H740 0.930 . S
C750 C748 1.419 . S
C750 C751 1.362 . S
C751 H741 0.930 . S
C751 C744 1.409 . S
C751 C750 1.362 . S
H752 C758 0.930 . S
H753 C761 0.930 . S
H754 C762 0.930 . S
H755 C763 0.930 1_655 S
H756 C766 0.930 . S
H757 C767 0.930 . S
C758 H752 0.930 . S
C758 C759 1.355 . S
C758 C760 1.415 . S
C759 C758 1.355 . S
C759 C761 1.419 1_455 S
C760 C758 1.415 . S
C760 C765 1.425 . S
C760 C767 1.409 . S
C761 H753 0.930 . S
C761 C759 1.419 1_655 S
C761 C762 1.362 . S
C762 H754 0.930 . S
C762 C761 1.362 . S
C762 C765 1.409 1_655 S
C763 H755 0.930 1_455 S
C763 C764 1.355 . S
C763 C765 1.415 . S
C764 C763 1.355 . S
C764 C766 1.419 . S
C765 C760 1.425 . S
C765 C762 1.409 1_455 S
C765 C763 1.415 . S
C766 H756 0.930 . S
C766 C764 1.419 . S
C766 C767 1.362 . S
C767 H757 0.930 . S
C767 C760 1.409 . S
C767 C766 1.362 . S
C487 C10 3.043 . S
C492 C451 3.059 . S
C503 C59 3.118 . S
C508 C301 2.941 . S
C519 C90 3.049 . S
C524 C361 2.859 . S
C535 C19 3.125 . S
C540 C421 2.949 . S
C556 C331 3.060 . S
C551 C50 3.042 . S
C572 C391 3.120 . S
C567 C99 3.115 . S
C583 C46 0.609 . S
C588 C181 0.556 . S
C599 C95 0.500 . S
C604 C271 0.500 . S
C615 C6 0.486 . S
C620 C151 0.447 . S
C636 C211 0.493 . S
C631 C55 0.481 . S
C652 C241 0.595 . S
C647 C86 0.426 . S
C663 C15 0.568 . S
C668 C121 0.339 . S
C684 C260 1.002 . S
C679 C9 1.032 . S
C695 C49 1.064 . S
C700 C140 1.065 . S
C711 C89 1.002 . S
C716 C200 1.072 . S
C732 C380 1.751 . S
C727 C58 1.743 . S
C748 C440 1.770 1_556 S
C743 C98 1.722 . S
C759 C18 1.679 . S
C764 C320 1.747 . S
