# Generated by pormake.
# Topology zzz, (3,6)-cn, num edge types: 1
# Building blocks:
#     Node 0, Type 0, BuildingBlock: BELTOD_clean_linker_0, # of connection points: 3
#     Node 1, Type 0, BuildingBlock: BELTOD_clean_linker_0, # of connection points: 3
#     Node 2, Type 0, BuildingBlock: BELTOD_clean_linker_0, # of connection points: 3
#     Node 3, Type 0, BuildingBlock: BELTOD_clean_linker_0, # of connection points: 3
#     Node 4, Type 0, BuildingBlock: BELTOD_clean_linker_0, # of connection points: 3
#     Node 5, Type 0, BuildingBlock: BELTOD_clean_linker_0, # of connection points: 3
#     Node 6, Type 0, BuildingBlock: BELTOD_clean_linker_0, # of connection points: 3
#     Node 7, Type 0, BuildingBlock: BELTOD_clean_linker_0, # of connection points: 3
#     Node 8, Type 1, BuildingBlock: MIFKUJ_clean_sbu_0, # of connection points: 6
#     Node 9, Type 1, BuildingBlock: MIFKUJ_clean_sbu_0, # of connection points: 6
#     Node 10, Type 1, BuildingBlock: MIFKUJ_clean_sbu_0, # of connection points: 6
#     Node 11, Type 1, BuildingBlock: MIFKUJ_clean_sbu_0, # of connection points: 6
#     Edge 12, Type (0, 1), BuildingBlock: ZUJKAS_clean_linker_0, # of connection points: 2
#     Edge 13, Type (0, 1), BuildingBlock: ZUJKAS_clean_linker_0, # of connection points: 2
#     Edge 14, Type (0, 1), BuildingBlock: ZUJKAS_clean_linker_0, # of connection points: 2
#     Edge 15, Type (0, 1), BuildingBlock: ZUJKAS_clean_linker_0, # of connection points: 2
#     Edge 16, Type (0, 1), BuildingBlock: ZUJKAS_clean_linker_0, # of connection points: 2
#     Edge 17, Type (0, 1), BuildingBlock: ZUJKAS_clean_linker_0, # of connection points: 2
#     Edge 18, Type (0, 1), BuildingBlock: ZUJKAS_clean_linker_0, # of connection points: 2
#     Edge 19, Type (0, 1), BuildingBlock: ZUJKAS_clean_linker_0, # of connection points: 2
#     Edge 20, Type (0, 1), BuildingBlock: ZUJKAS_clean_linker_0, # of connection points: 2
#     Edge 21, Type (0, 1), BuildingBlock: ZUJKAS_clean_linker_0, # of connection points: 2
#     Edge 22, Type (0, 1), BuildingBlock: ZUJKAS_clean_linker_0, # of connection points: 2
#     Edge 23, Type (0, 1), BuildingBlock: ZUJKAS_clean_linker_0, # of connection points: 2
#     Edge 24, Type (0, 1), BuildingBlock: ZUJKAS_clean_linker_0, # of connection points: 2
#     Edge 25, Type (0, 1), BuildingBlock: ZUJKAS_clean_linker_0, # of connection points: 2
#     Edge 26, Type (0, 1), BuildingBlock: ZUJKAS_clean_linker_0, # of connection points: 2
#     Edge 27, Type (0, 1), BuildingBlock: ZUJKAS_clean_linker_0, # of connection points: 2
#     Edge 28, Type (0, 1), BuildingBlock: ZUJKAS_clean_linker_0, # of connection points: 2
#     Edge 29, Type (0, 1), BuildingBlock: ZUJKAS_clean_linker_0, # of connection points: 2
#     Edge 30, Type (0, 1), BuildingBlock: ZUJKAS_clean_linker_0, # of connection points: 2
#     Edge 31, Type (0, 1), BuildingBlock: ZUJKAS_clean_linker_0, # of connection points: 2
#     Edge 32, Type (0, 1), BuildingBlock: ZUJKAS_clean_linker_0, # of connection points: 2
#     Edge 33, Type (0, 1), BuildingBlock: ZUJKAS_clean_linker_0, # of connection points: 2
#     Edge 34, Type (0, 1), BuildingBlock: ZUJKAS_clean_linker_0, # of connection points: 2
#     Edge 35, Type (0, 1), BuildingBlock: ZUJKAS_clean_linker_0, # of connection points: 2
# Relax obj value: 0.280
# Max RMSD: 0.201
# Mean RMSD: 0.182
data_MOF--net-zzz--node1-MIFKUJ_clean_sbu_0--node2-BELTOD_clean_linker_0--edge1-ZUJKAS_clean_linker_0
_symmetry_space_group_name_H-M    P1
_symmetry_Int_Tables_number       1
_symmetry_cell_setting            triclinic
loop_
_symmetry_equiv_pos_as_xyz
'x, y, z'
_cell_length_a     66.79302
_cell_length_b     68.051536
_cell_length_c     24.56752
_cell_angle_alpha  89.386579
_cell_angle_beta   89.725588
_cell_angle_gamma 90.604173
loop_
_atom_site_label
_atom_site_type_symbol
_atom_site_fract_x
_atom_site_fract_y
_atom_site_fract_z
_atom_type_partial_charge
P0 P 0.73275 0.53698 0.12501 0.0
H1 H 0.72978 0.55418 0.2333 0.0
H2 H 0.75381 0.57342 0.286 0.0
H3 H 0.7914 0.57983 0.14294 0.0
H4 H 0.76696 0.5615 0.09041 0.0
H5 H 0.69317 0.52103 0.1041 0.0
H6 H 0.66664 0.53072 0.04216 0.0
H7 H 0.70076 0.58255 0.99541 0.0
H8 H 0.72743 0.57272 0.05832 0.0
H9 H 0.7621 0.50679 0.14819 0.0
H10 H 0.7419 0.53938 0.00769 0.0
O11 O 0.72391 0.52132 0.17228 0.0
H12 H 0.78905 0.49277 0.09378 0.0
H13 H 0.76902 0.52604 0.95374 0.0
C14 C 0.74694 0.55588 0.15852 0.0
C15 C 0.74292 0.56025 0.21301 0.0
C16 C 0.75673 0.57116 0.24313 0.0
C17 C 0.77485 0.5777 0.21919 0.0
C18 C 0.77768 0.57505 0.16295 0.0
C19 C 0.76376 0.56434 0.13281 0.0
C20 C 0.7121 0.5463 0.08634 0.0
C21 C 0.69475 0.53475 0.08168 0.0
C22 C 0.67955 0.54034 0.04628 0.0
C23 C 0.68156 0.55747 0.01416 0.0
C24 C 0.69882 0.56929 0.01972 0.0
C25 C 0.71397 0.56376 0.05582 0.0
C26 C 0.74979 0.52388 0.0819 0.0
C27 C 0.76319 0.5106 0.10535 0.0
C28 C 0.77872 0.50278 0.07434 0.0
C29 C 0.78127 0.50833 0.01939 0.0
C30 C 0.76734 0.52116 0.99562 0.0
C31 C 0.75178 0.52888 0.02662 0.0
P32 P 0.04639 0.74223 0.1623 0.0
H33 H 0.04067 0.74919 0.2789 0.0
H34 H 0.02054 0.77336 0.3265 0.0
H35 H 0.99012 0.78734 0.17641 0.0
H36 H 0.01054 0.76332 0.12887 0.0
H37 H 0.06911 0.70974 0.12077 0.0
H38 H 0.06042 0.68232 0.06236 0.0
H39 H 0.99802 0.69825 0.072 0.0
H40 H 0.00699 0.72599 0.12992 0.0
H41 H 0.06815 0.77931 0.16849 0.0
H42 H 0.04034 0.74439 0.04365 0.0
O43 O 0.06582 0.73761 0.20277 0.0
H44 H 0.07205 0.80665 0.10374 0.0
H45 H 0.04462 0.77135 0.97876 0.0
C46 C 0.02719 0.75453 0.20029 0.0
C47 C 0.02923 0.75697 0.25656 0.0
C48 C 0.01765 0.77081 0.2838 0.0
C49 C 0.00392 0.78247 0.25504 0.0
C50 C 0.00078 0.77878 0.19951 0.0
C51 C 0.01232 0.76491 0.1724 0.0
C52 C 0.0387 0.71973 0.13036 0.0
C53 C 0.05349 0.70703 0.11155 0.0
C54 C 0.04847 0.69132 0.07808 0.0
C55 C 0.0285 0.68805 0.06239 0.0
C56 C 0.01357 0.70047 0.08286 0.0
C57 C 0.01865 0.71623 0.11646 0.0
C58 C 0.05414 0.75976 0.11092 0.0
C59 C 0.06355 0.77728 0.12668 0.0
C60 C 0.06578 0.79288 0.08962 0.0
C61 C 0.05849 0.7912 0.03625 0.0
C62 C 0.05015 0.77317 0.0198 0.0
C63 C 0.04787 0.75764 0.0569 0.0
P64 P 0.76804 0.97214 0.1233 0.0
H65 H 0.76628 0.96791 0.24199 0.0
H66 H 0.74203 0.95042 0.29923 0.0
H67 H 0.7212 0.91827 0.15948 0.0
H68 H 0.7455 0.93597 0.10217 0.0
H69 H 0.81087 0.98103 0.12354 0.0
H70 H 0.83769 0.97395 0.05968 0.0
H71 H 0.79735 0.93691 0.96831 0.0
H72 H 0.77031 0.94449 0.03219 0.0
H73 H 0.72605 0.97899 0.14839 0.0
H74 H 0.76504 0.98578 0.00865 0.0
O75 O 0.77603 0.99099 0.16063 0.0
H76 H 0.69734 0.98755 0.09245 0.0
H77 H 0.73618 0.99433 0.95231 0.0
C78 C 0.75756 0.95341 0.16766 0.0
C79 C 0.75715 0.95649 0.22396 0.0
C80 C 0.74324 0.94641 0.2568 0.0
C81 C 0.72944 0.93322 0.23365 0.0
C82 C 0.73148 0.92853 0.1783 0.0
C83 C 0.74554 0.93851 0.14558 0.0
C84 C 0.78851 0.9635 0.08225 0.0
C85 C 0.80782 0.97112 0.09035 0.0
C86 C 0.82324 0.96692 0.05387 0.0
C87 C 0.81967 0.95496 0.00851 0.0
C88 C 0.80054 0.94639 0.00237 0.0
C89 C 0.7851 0.95058 0.03911 0.0
C90 C 0.74759 0.98089 0.08224 0.0
C91 C 0.72847 0.98227 0.10561 0.0
C92 C 0.71204 0.98718 0.07364 0.0
C93 C 0.71448 0.99122 0.01782 0.0
C94 C 0.73386 0.99117 0.99519 0.0
C95 C 0.75033 0.98609 0.02727 0.0
P96 P 0.42441 0.76456 0.1234 0.0
H97 H 0.4328 0.76611 0.24045 0.0
H98 H 0.45213 0.74453 0.30005 0.0
H99 H 0.47403 0.71372 0.15904 0.0
H100 H 0.4554 0.7358 0.10011 0.0
H101 H 0.4075 0.80217 0.09152 0.0
H102 H 0.41996 0.82921 0.03435 0.0
H103 H 0.47651 0.79964 0.01657 0.0
H104 H 0.46385 0.77251 0.07378 0.0
H105 H 0.40281 0.72783 0.1404 0.0
H106 H 0.4271 0.76073 0.00378 0.0
O107 O 0.4052 0.77174 0.16178 0.0
H108 H 0.3967 0.69971 0.08127 0.0
H109 H 0.42118 0.73272 0.94486 0.0
C110 C 0.44237 0.75229 0.166 0.0
C111 C 0.44218 0.75502 0.22241 0.0
C112 C 0.45312 0.74255 0.25645 0.0
C113 C 0.46434 0.72707 0.23454 0.0
C114 C 0.46569 0.72547 0.17757 0.0
C115 C 0.4549 0.73805 0.14367 0.0
C116 C 0.43488 0.78553 0.08778 0.0
C117 C 0.42272 0.80168 0.07629 0.0
C118 C 0.42987 0.81714 0.04358 0.0
C119 C 0.44925 0.8166 0.02108 0.0
C120 C 0.46149 0.80044 0.03311 0.0
C121 C 0.45434 0.78501 0.06622 0.0
C122 C 0.4154 0.74636 0.07661 0.0
C123 C 0.40632 0.72919 0.09742 0.0
C124 C 0.40297 0.7131 0.06373 0.0
C125 C 0.4086 0.71398 0.00856 0.0
C126 C 0.41652 0.73167 0.98709 0.0
C127 C 0.41999 0.74771 0.02093 0.0
P128 P 0.25281 0.39122 0.14447 0.0
H129 H 0.24124 0.37886 0.03478 0.0
H130 H 0.21841 0.39387 0.96926 0.0
H131 H 0.21807 0.44695 0.06398 0.0
H132 H 0.24074 0.43187 0.12941 0.0
H133 H 0.27866 0.37752 0.23071 0.0
H134 H 0.30811 0.39169 0.2748 0.0
H135 H 0.30696 0.4408 0.162 0.0
H136 H 0.2776 0.42647 0.11782 0.0
H137 H 0.21354 0.37274 0.15379 0.0
H138 H 0.24793 0.4164 0.23979 0.0
O139 O 0.25584 0.36756 0.12977 0.0
H140 H 0.18339 0.38248 0.20323 0.0
H141 H 0.21804 0.42618 0.28892 0.0
C142 C 0.24289 0.40431 0.08671 0.0
C143 C 0.23692 0.39399 0.04032 0.0
C144 C 0.22379 0.40257 0.00296 0.0
C145 C 0.21627 0.42148 0.012 0.0
C146 C 0.22346 0.43227 0.05636 0.0
C147 C 0.23665 0.42375 0.09339 0.0
C148 C 0.27592 0.40092 0.17111 0.0
C149 C 0.28494 0.39119 0.21495 0.0
C150 C 0.30178 0.39929 0.24006 0.0
C151 C 0.30981 0.4174 0.22196 0.0
C152 C 0.30095 0.42694 0.17723 0.0
C153 C 0.28417 0.41872 0.15185 0.0
C154 C 0.23306 0.39354 0.19384 0.0
C155 C 0.21477 0.38386 0.18485 0.0
C156 C 0.19752 0.38962 0.21256 0.0
C157 C 0.19833 0.40517 0.24969 0.0
C158 C 0.21696 0.41397 0.26112 0.0
C159 C 0.23414 0.4083 0.23312 0.0
P160 P 0.05614 0.27531 0.08508 0.0
H161 H 0.06393 0.26949 0.96917 0.0
H162 H 0.04609 0.24936 0.90353 0.0
H163 H 0.99559 0.24491 0.01357 0.0
H164 H 0.01358 0.26518 0.07928 0.0
H165 H 0.07504 0.29325 0.1774 0.0
H166 H 0.06654 0.32089 0.23507 0.0
H167 H 0.01351 0.33103 0.13901 0.0
H168 H 0.02248 0.30345 0.08043 0.0
H169 H 0.07625 0.23773 0.07802 0.0
H170 H 0.032 0.2646 0.18082 0.0
O171 O 0.07958 0.27869 0.06278 0.0
H172 H 0.06914 0.20583 0.12113 0.0
H173 H 0.02461 0.23284 0.22341 0.0
C174 C 0.0401 0.26891 0.02916 0.0
C175 C 0.04868 0.26498 0.9783 0.0
C176 C 0.03845 0.25337 0.94073 0.0
C177 C 0.01955 0.24528 0.95375 0.0
C178 C 0.01025 0.25073 0.00272 0.0
C179 C 0.02042 0.26253 0.04002 0.0
C180 C 0.04941 0.29633 0.12476 0.0
C181 C 0.06163 0.30149 0.16858 0.0
C182 C 0.05665 0.3172 0.20181 0.0
C183 C 0.03925 0.3281 0.192 0.0
C184 C 0.02709 0.32302 0.14745 0.0
C185 C 0.03213 0.3072 0.11409 0.0
C186 C 0.05504 0.2536 0.12717 0.0
C187 C 0.06548 0.23688 0.11109 0.0
C188 C 0.06119 0.21862 0.13519 0.0
C189 C 0.04623 0.21681 0.17545 0.0
C190 C 0.03642 0.23379 0.19308 0.0
C191 C 0.0407 0.25201 0.16888 0.0
P192 P 0.245 0.10907 0.12707 0.0
H193 H 0.25478 0.1295 0.02453 0.0
H194 H 0.27715 0.12065 0.95008 0.0
H195 H 0.28139 0.06185 0.01694 0.0
H196 H 0.2587 0.07068 0.09038 0.0
H197 H 0.21454 0.12582 0.19586 0.0
H198 H 0.18359 0.11279 0.23512 0.0
H199 H 0.19036 0.05972 0.14209 0.0
H200 H 0.22159 0.07298 0.10275 0.0
H201 H 0.28391 0.12423 0.15986 0.0
H202 H 0.24553 0.07489 0.20136 0.0
O203 O 0.245 0.13361 0.12684 0.0
H204 H 0.31034 0.11053 0.21683 0.0
H205 H 0.27192 0.06093 0.25719 0.0
C206 C 0.25506 0.10077 0.06319 0.0
C207 C 0.25996 0.11451 0.02219 0.0
C208 C 0.27298 0.10949 0.97991 0.0
C209 C 0.28141 0.09065 0.97803 0.0
C210 C 0.27513 0.07646 0.01678 0.0
C211 C 0.26206 0.08149 0.05892 0.0
C212 C 0.22023 0.10054 0.14567 0.0
C213 C 0.20912 0.1116 0.18264 0.0
C214 C 0.19137 0.10411 0.20513 0.0
C215 C 0.18444 0.08521 0.1917 0.0
C216 C 0.19535 0.07429 0.15348 0.0
C217 C 0.21311 0.08192 0.13058 0.0
C218 C 0.2626 0.10084 0.17729 0.0
C219 C 0.28101 0.11068 0.18217 0.0
C220 C 0.29619 0.10269 0.21415 0.0
C221 C 0.29327 0.08457 0.24132 0.0
C222 C 0.27457 0.07502 0.23743 0.0
C223 C 0.25941 0.08304 0.20548 0.0
P224 P 0.48529 0.24792 0.08359 0.0
H225 H 0.46123 0.2579 0.98823 0.0
H226 H 0.4688 0.28036 0.91322 0.0
H227 H 0.53157 0.27869 0.95448 0.0
H228 H 0.52377 0.25636 0.03041 0.0
H229 H 0.46497 0.21052 0.1051 0.0
H230 H 0.47557 0.1806 0.1508 0.0
H231 H 0.53648 0.20264 0.15317 0.0
H232 H 0.52558 0.23294 0.10788 0.0
H233 H 0.4879 0.29038 0.06981 0.0
H234 H 0.50232 0.24786 0.19494 0.0
O235 O 0.4604 0.24782 0.08995 0.0
H236 H 0.5019 0.31649 0.12486 0.0
H237 H 0.51614 0.2742 0.25096 0.0
C238 C 0.49192 0.25552 0.01527 0.0
C239 C 0.47674 0.26161 0.97983 0.0
C240 C 0.48111 0.27456 0.93677 0.0
C241 C 0.50075 0.28169 0.92859 0.0
C242 C 0.51623 0.27376 0.96038 0.0
C243 C 0.51184 0.26072 0.00333 0.0
C244 C 0.49442 0.2241 0.10372 0.0
C245 C 0.4807 0.20881 0.11429 0.0
C246 C 0.48682 0.19158 0.14031 0.0
C247 C 0.50686 0.18926 0.15628 0.0
C248 C 0.52088 0.20408 0.14217 0.0
C249 C 0.51471 0.22133 0.11577 0.0
C250 C 0.49474 0.267 0.12719 0.0
C251 C 0.4942 0.28659 0.10902 0.0
C252 C 0.50207 0.30159 0.1408 0.0
C253 C 0.51031 0.29739 0.19208 0.0
C254 C 0.5103 0.27782 0.21108 0.0
C255 C 0.50238 0.26275 0.17905 0.0
Zn256 Zn 0.9888 0.03918 0.57779 0.0
Zn257 Zn 0.00833 0.9841 0.61963 0.0
C258 C 0.98018 0.07325 0.63678 0.0
O259 O 0.96402 0.07129 0.60694 0.0
C260 C 0.99485 0.96404 0.52117 0.0
O261 O 0.00519 0.97776 0.49523 0.0
O262 O 0.98138 0.05303 0.50876 0.0
O263 O 0.01398 0.02345 0.56284 0.0
O264 O 0.03091 0.99623 0.5751 0.0
C265 C 0.98617 0.04694 0.46184 0.0
O266 O 0.99452 0.02964 0.4572 0.0
O267 O 0.99387 0.06047 0.63282 0.0
C268 C 0.00875 0.95452 0.70086 0.0
O269 O 0.99089 0.95159 0.68008 0.0
O270 O 0.01945 0.96871 0.68276 0.0
O271 O 0.99092 0.00617 0.64353 0.0
O272 O 0.96635 0.02175 0.60589 0.0
O273 O 0.99337 0.9647 0.57272 0.0
C274 C 0.0296 0.01336 0.55405 0.0
C275 C 0.97232 0.0072 0.63387 0.0
Zn276 Zn 0.48838 0.01783 0.62796 0.0
Zn277 Zn 0.52176 0.99148 0.57302 0.0
C278 C 0.4548 0.02391 0.6917 0.0
O279 O 0.45289 0.00566 0.67534 0.0
C280 C 0.55528 0.98435 0.50602 0.0
O281 O 0.55641 0.00355 0.51058 0.0
O282 O 0.46964 0.01247 0.56546 0.0
O283 O 0.51088 0.03487 0.59659 0.0
O284 O 0.51435 0.01493 0.52727 0.0
C285 C 0.46395 0.02853 0.54381 0.0
O286 O 0.47142 0.04513 0.56201 0.0
O287 O 0.47053 0.03353 0.67808 0.0
C288 C 0.54582 0.98706 0.66639 0.0
O289 O 0.54082 0.96866 0.65732 0.0
O290 O 0.53875 0.00045 0.63579 0.0
O291 O 0.50001 0.97348 0.60179 0.0
O292 O 0.49455 0.99311 0.67064 0.0
O293 O 0.5407 0.9752 0.52849 0.0
C294 C 0.51509 0.03218 0.54659 0.0
C295 C 0.49459 0.97594 0.65084 0.0
Zn296 Zn 0.51081 0.49465 0.56538 0.0
Zn297 Zn 0.48481 0.52432 0.62366 0.0
C298 C 0.5181 0.46767 0.64967 0.0
O299 O 0.53627 0.47304 0.63447 0.0
C300 C 0.4788 0.55128 0.53646 0.0
O301 O 0.46021 0.54566 0.54599 0.0
O302 O 0.52622 0.47632 0.5171 0.0
O303 O 0.48659 0.50171 0.52124 0.0
O304 O 0.46694 0.50308 0.59273 0.0
C305 C 0.51562 0.46109 0.50781 0.0
O306 O 0.49715 0.46037 0.52647 0.0
O307 O 0.50328 0.47648 0.6285 0.0
C308 C 0.47724 0.55527 0.69479 0.0
O309 O 0.49645 0.55776 0.6848 0.0
O310 O 0.46813 0.54078 0.67356 0.0
O311 O 0.50962 0.51736 0.66581 0.0
O312 O 0.52873 0.51628 0.59293 0.0
O313 O 0.49277 0.54337 0.56363 0.0
C314 C 0.46941 0.49926 0.54267 0.0
C315 C 0.52652 0.52036 0.64295 0.0
Zn316 Zn 0.02093 0.49995 0.62438 0.0
Zn317 Zn 0.97068 0.52218 0.58091 0.0
C318 C 0.05377 0.49482 0.68941 0.0
O319 O 0.05778 0.51084 0.66087 0.0
C320 C 0.94467 0.53157 0.49275 0.0
O321 O 0.94482 0.51236 0.4878 0.0
O322 O 0.03975 0.49922 0.5603 0.0
O323 O 0.996 0.48475 0.60588 0.0
O324 O 0.98365 0.5011 0.53666 0.0
C325 C 0.03844 0.50378 0.51019 0.0
O326 O 0.02211 0.5119 0.49131 0.0
O327 O 0.03691 0.4863 0.68285 0.0
C328 C 0.95373 0.50525 0.67998 0.0
O329 O 0.97199 0.5075 0.69873 0.0
O330 O 0.9501 0.50989 0.63081 0.0
O331 O 0.98794 0.54026 0.62579 0.0
O332 O 0.01674 0.5273 0.6522 0.0
O333 O 0.9552 0.53945 0.52966 0.0
C334 C 0.99161 0.48564 0.5557 0.0
C335 C 0.00441 0.5414 0.65142 0.0
H336 H 0.18005 0.04801 0.23393 0.0
H337 H 0.15258 0.03513 0.29068 0.0
H338 H 0.12194 0.09033 0.27473 0.0
H339 H 0.14905 0.10313 0.2168 0.0
H340 H 0.14098 0.05109 0.38991 0.0
H341 H 0.07729 0.05033 0.24573 0.0
H342 H 0.10303 0.05224 0.22331 0.0
H343 H 0.09039 0.07346 0.24889 0.0
C344 C 0.16722 0.05724 0.24129 0.0
C345 C 0.16674 0.0766 0.22074 0.0
C346 C 0.1516 0.0499 0.2741 0.0
C347 C 0.13512 0.0617 0.28659 0.0
C348 C 0.13433 0.08084 0.26493 0.0
H349 H 0.03151 0.04905 0.50103 0.0
H350 H 0.0573 0.06086 0.43717 0.0
C351 C 0.14994 0.0882 0.23223 0.0
C352 C 0.11952 0.05452 0.32549 0.0
H353 H 0.06936 0.04533 0.33937 0.0
C354 C 0.12533 0.04969 0.37877 0.0
C355 C 0.09909 0.05291 0.31104 0.0
C356 C 0.09205 0.05734 0.25401 0.0
C357 C 0.11126 0.04356 0.41825 0.0
C358 C 0.09083 0.0418 0.40376 0.0
C359 C 0.08501 0.04668 0.35047 0.0
C360 C 0.07533 0.0347 0.44312 0.0
C361 C 0.11836 0.03952 0.47548 0.0
C362 C 0.07678 0.01599 0.46734 0.0
C363 C 0.06212 0.00922 0.504 0.0
C364 C 0.04556 0.02095 0.51688 0.0
C365 C 0.04408 0.03966 0.49228 0.0
C366 C 0.05879 0.04642 0.45563 0.0
H367 H 0.13293 0.04692 0.48363 0.0
H368 H 0.10725 0.04449 0.50602 0.0
H369 H 0.12045 0.02347 0.48109 0.0
H370 H 0.08914 0.00649 0.45738 0.0
H371 H 0.06365 0.99468 0.52171 0.0
H372 H 0.49457 0.15076 0.14909 0.0
H373 H 0.49942 0.12447 0.21635 0.0
H374 H 0.53648 0.1631 0.3117 0.0
H375 H 0.53144 0.18961 0.24527 0.0
H376 H 0.55056 0.12227 0.30118 0.0
H377 H 0.47138 0.12833 0.3692 0.0
H378 H 0.47499 0.12528 0.29722 0.0
H379 H 0.48389 0.14727 0.32931 0.0
C380 C 0.50386 0.15365 0.18417 0.0
C381 C 0.51244 0.17238 0.192 0.0
C382 C 0.50664 0.1386 0.22249 0.0
C383 C 0.51804 0.14197 0.26934 0.0
C384 C 0.52758 0.16024 0.27583 0.0
H385 H 0.51008 0.07139 0.56751 0.0
H386 H 0.51275 0.09888 0.50252 0.0
C387 C 0.52477 0.17534 0.23759 0.0
C388 C 0.519 0.12682 0.313 0.0
H389 H 0.49002 0.10209 0.40645 0.0
C390 C 0.53737 0.11787 0.32437 0.0
C391 C 0.50182 0.12138 0.34373 0.0
C392 C 0.4819 0.13114 0.33477 0.0
C393 C 0.53886 0.10317 0.36477 0.0
C394 C 0.52151 0.09726 0.39417 0.0
C395 C 0.50328 0.1066 0.38373 0.0
C396 C 0.52167 0.08092 0.43462 0.0
C397 C 0.55898 0.09414 0.37587 0.0
C398 C 0.52586 0.06175 0.418 0.0
C399 C 0.52428 0.04603 0.45488 0.0
C400 C 0.51842 0.04916 0.50919 0.0
C401 C 0.5147 0.06847 0.52609 0.0
C402 C 0.51618 0.08419 0.489 0.0
H403 H 0.57145 0.10367 0.36068 0.0
H404 H 0.56104 0.09141 0.42012 0.0
H405 H 0.55988 0.07984 0.35478 0.0
H406 H 0.52976 0.05884 0.37603 0.0
H407 H 0.52726 0.03136 0.44045 0.0
H408 H 0.314 0.45567 0.25291 0.0
H409 H 0.34118 0.47031 0.30576 0.0
H410 H 0.37123 0.41453 0.31024 0.0
H411 H 0.34397 0.39974 0.2579 0.0
H412 H 0.36951 0.43115 0.40983 0.0
H413 H 0.39721 0.48594 0.2579 0.0
H414 H 0.37096 0.48799 0.27242 0.0
H415 H 0.38023 0.46622 0.2404 0.0
C416 C 0.32656 0.44661 0.26441 0.0
C417 C 0.32689 0.42657 0.25109 0.0
C418 C 0.34209 0.455 0.29456 0.0
C419 C 0.35838 0.44359 0.31132 0.0
C420 C 0.35882 0.42362 0.29767 0.0
H421 H 0.47133 0.48507 0.43937 0.0
H422 H 0.44406 0.47168 0.38487 0.0
C423 C 0.34323 0.41518 0.26786 0.0
C424 C 0.37456 0.45221 0.34502 0.0
H425 H 0.40999 0.48873 0.34771 0.0
C426 C 0.3784 0.44371 0.3962 0.0
C427 C 0.38628 0.46847 0.32694 0.0
C428 C 0.38363 0.47759 0.2712 0.0
C429 C 0.39356 0.45109 0.42996 0.0
C430 C 0.40487 0.46772 0.41258 0.0
C431 C 0.40113 0.47613 0.36124 0.0
C432 C 0.42121 0.47613 0.44609 0.0
C433 C 0.39762 0.4407 0.48329 0.0
C434 C 0.41739 0.48332 0.49847 0.0
C435 C 0.43301 0.49089 0.53001 0.0
C436 C 0.45268 0.49162 0.5094 0.0
C437 C 0.45635 0.48475 0.45651 0.0
C438 C 0.44078 0.47709 0.42523 0.0
H439 H 0.3914 0.42549 0.48392 0.0
H440 H 0.41394 0.44003 0.49139 0.0
H441 H 0.39046 0.44889 0.51686 0.0
H442 H 0.40231 0.48312 0.51492 0.0
H443 H 0.42966 0.49621 0.5704 0.0
H444 H 0.04192 0.32914 0.303 0.0
H445 H 0.0345 0.35654 0.36303 0.0
H446 H 0.01714 0.39172 0.22444 0.0
H447 H 0.02468 0.36437 0.16385 0.0
H448 H 0.05137 0.39463 0.36196 0.0
H449 H 0.96918 0.39607 0.3286 0.0
H450 H 0.9844 0.37554 0.30904 0.0
H451 H 0.98409 0.39745 0.26761 0.0
C452 C 0.0366 0.34273 0.28517 0.0
C453 C 0.03392 0.34456 0.22854 0.0
C454 C 0.03232 0.35835 0.3196 0.0
C455 C 0.02512 0.3761 0.29828 0.0
C456 C 0.02236 0.37802 0.24184 0.0
H457 H 0.98879 0.48548 0.44478 0.0
H458 H 0.99844 0.45944 0.38269 0.0
C459 C 0.02664 0.36237 0.20729 0.0
C460 C 0.02076 0.39262 0.33526 0.0
H461 H 0.98306 0.42168 0.3812 0.0
C462 C 0.03644 0.40054 0.36634 0.0
C463 C 0.00127 0.40027 0.34082 0.0
C464 C 0.9837 0.39182 0.31016 0.0
C465 C 0.03317 0.41607 0.40245 0.0
C466 C 0.01366 0.4237 0.40801 0.0
C467 C 0.99802 0.41583 0.37675 0.0
C468 C 0.00902 0.43986 0.44598 0.0
C469 C 0.05067 0.42445 0.43352 0.0
C470 C 0.01175 0.43751 0.50232 0.0
C471 C 0.00638 0.45247 0.53806 0.0
C472 C 0.99791 0.46993 0.51812 0.0
C473 C 0.99523 0.47222 0.46162 0.0
C474 C 0.00075 0.45735 0.42598 0.0
H475 H 0.06523 0.41971 0.41639 0.0
H476 H 0.05024 0.44077 0.43342 0.0
H477 H 0.04988 0.41925 0.47642 0.0
H478 H 0.01765 0.42395 0.51881 0.0
H479 H 0.00856 0.4502 0.58132 0.0
H480 H 0.86023 0.95036 0.02118 0.0
H481 H 0.88612 0.95336 0.95057 0.0
H482 H 0.8405 0.95825 0.82782 0.0
H483 H 0.81455 0.95594 0.89806 0.0
H484 H 0.89466 0.93286 0.84974 0.0
H485 H 0.8725 0.01066 0.81792 0.0
H486 H 0.86434 0.99631 0.87624 0.0
H487 H 0.85258 0.9929 0.81135 0.0
C488 C 0.85569 0.95192 0.97911 0.0
C489 C 0.83529 0.95317 0.96542 0.0
C490 C 0.87051 0.95347 0.93879 0.0
C491 C 0.86521 0.95634 0.88414 0.0
C492 C 0.84489 0.95628 0.8699 0.0
H493 H 0.93353 0.99982 0.60616 0.0
H494 H 0.90765 0.98405 0.66287 0.0
C495 C 0.83007 0.95477 0.91013 0.0
C496 C 0.88081 0.96119 0.84287 0.0
H497 H 0.89768 0.99857 0.76054 0.0
C498 C 0.89532 0.94718 0.82999 0.0
C499 C 0.8817 0.97995 0.81752 0.0
C500 C 0.86708 0.99592 0.83164 0.0
C501 C 0.91058 0.95137 0.79172 0.0
C502 C 0.91147 0.97017 0.7665 0.0
C503 C 0.89688 0.9841 0.77941 0.0
C504 C 0.92775 0.97627 0.7283 0.0
C505 C 0.92543 0.93559 0.77822 0.0
C506 C 0.94777 0.97669 0.74553 0.0
C507 C 0.96261 0.98558 0.71295 0.0
C508 C 0.95766 0.99437 0.6628 0.0
C509 C 0.9378 0.99312 0.64452 0.0
C510 C 0.923 0.98413 0.67692 0.0
H511 H 0.91928 0.92069 0.78755 0.0
H512 H 0.92985 0.93629 0.73461 0.0
H513 H 0.93908 0.93771 0.80314 0.0
H514 H 0.95176 0.97119 0.7855 0.0
H515 H 0.9777 0.98668 0.72866 0.0
H516 H 0.44491 0.85628 0.03238 0.0
H517 H 0.45423 0.88223 0.96693 0.0
H518 H 0.47874 0.83887 0.85942 0.0
H519 H 0.46917 0.81277 0.92424 0.0
H520 H 0.4935 0.89149 0.92058 0.0
H521 H 0.43726 0.86957 0.76555 0.0
H522 H 0.43568 0.86142 0.83566 0.0
H523 H 0.45342 0.85051 0.79027 0.0
C524 C 0.45226 0.85227 0.99476 0.0
C525 C 0.45621 0.83247 0.98333 0.0
C526 C 0.45764 0.8671 0.95758 0.0
C527 C 0.46692 0.86241 0.90813 0.0
C528 C 0.47135 0.84274 0.89711 0.0
H529 H 0.49916 0.93681 0.62831 0.0
H530 H 0.49342 0.9088 0.69013 0.0
C531 C 0.46606 0.82789 0.9344 0.0
C532 C 0.47171 0.87815 0.86796 0.0
H533 H 0.45876 0.89615 0.74287 0.0
C534 C 0.48596 0.89252 0.88166 0.0
C535 C 0.46189 0.87933 0.81718 0.0
C536 C 0.44609 0.8645 0.80115 0.0
C537 C 0.49068 0.90811 0.84582 0.0
C538 C 0.4805 0.90958 0.79555 0.0
C539 C 0.4665 0.895 0.78146 0.0
C540 C 0.48372 0.92648 0.75783 0.0
C541 C 0.50668 0.92273 0.86189 0.0
C542 C 0.47972 0.94564 0.77501 0.0
C543 C 0.483 0.96164 0.73994 0.0
C544 C 0.49017 0.95879 0.6867 0.0
C545 C 0.49365 0.93952 0.66905 0.0
C546 C 0.49041 0.9235 0.70432 0.0
H547 H 0.51692 0.91646 0.89289 0.0
H548 H 0.51568 0.92764 0.82605 0.0
H549 H 0.49948 0.9358 0.8798 0.0
H550 H 0.47404 0.94823 0.81564 0.0
H551 H 0.47998 0.97626 0.75471 0.0
H552 H 0.64086 0.55608 0.0248 0.0
H553 H 0.61624 0.55657 0.95144 0.0
H554 H 0.66324 0.56886 0.83466 0.0
H555 H 0.68806 0.56801 0.90779 0.0
H556 H 0.60616 0.5845 0.86462 0.0
H557 H 0.639 0.51463 0.79079 0.0
H558 H 0.64462 0.52434 0.8571 0.0
H559 H 0.65571 0.53535 0.79731 0.0
C560 C 0.64591 0.55919 0.98359 0.0
C561 C 0.6664 0.56174 0.97189 0.0
C562 C 0.63183 0.55957 0.94182 0.0
C563 C 0.638 0.56244 0.88767 0.0
C564 C 0.65825 0.5664 0.87622 0.0
H565 H 0.5645 0.52946 0.60731 0.0
H566 H 0.59225 0.54277 0.66088 0.0
C567 C 0.67237 0.56607 0.91807 0.0
C568 C 0.62347 0.55919 0.84335 0.0
H569 H 0.60986 0.52554 0.74805 0.0
C570 C 0.60706 0.57177 0.83856 0.0
C571 C 0.62477 0.54258 0.80942 0.0
C572 C 0.64187 0.52832 0.81384 0.0
C573 C 0.5916 0.56789 0.80154 0.0
C574 C 0.59242 0.55074 0.76954 0.0
C575 C 0.60927 0.53865 0.77268 0.0
C576 C 0.5753 0.5441 0.73602 0.0
C577 C 0.57447 0.58209 0.79743 0.0
C578 C 0.55666 0.54023 0.76064 0.0
C579 C 0.54083 0.53263 0.73028 0.0
C580 C 0.54336 0.52854 0.6747 0.0
C581 C 0.56206 0.53243 0.65004 0.0
C582 C 0.57791 0.54009 0.68052 0.0
H583 H 0.57919 0.59713 0.80948 0.0
H584 H 0.56839 0.58274 0.75547 0.0
H585 H 0.56229 0.57723 0.82551 0.0
H586 H 0.55446 0.54267 0.80374 0.0
H587 H 0.52665 0.52977 0.75062 0.0
H588 H 0.04389 0.65097 0.05563 0.0
H589 H 0.03898 0.62724 0.9828 0.0
H590 H 0.99684 0.66606 0.90559 0.0
H591 H 0.00234 0.69027 0.97692 0.0
H592 H 0.00581 0.60767 0.94662 0.0
H593 H 0.03648 0.65651 0.78324 0.0
H594 H 0.03904 0.66206 0.85453 0.0
H595 H 0.01585 0.66672 0.82009 0.0
C596 C 0.03364 0.65452 0.02303 0.0
C597 C 0.02369 0.67264 0.02185 0.0
C598 C 0.03077 0.64089 0.98159 0.0
C599 C 0.01789 0.64507 0.93812 0.0
C600 C 0.00722 0.66273 0.93805 0.0
H601 H 0.98233 0.57502 0.65946 0.0
H602 H 0.9858 0.60087 0.72744 0.0
C603 C 0.01016 0.67643 0.97936 0.0
C604 C 0.01585 0.63097 0.89279 0.0
H605 H 0.02264 0.626 0.75559 0.0
C606 C 0.00951 0.61168 0.90489 0.0
C607 C 0.02075 0.63623 0.83833 0.0
C608 C 0.02859 0.65645 0.82316 0.0
C609 C 0.00784 0.59753 0.86399 0.0
C610 C 0.01276 0.60279 0.80972 0.0
C611 C 0.01888 0.62209 0.79735 0.0
C612 C 0.01185 0.58824 0.76553 0.0
C613 C 0.0007 0.57705 0.87889 0.0
C614 C 0.02577 0.573 0.76353 0.0
C615 C 0.02396 0.55828 0.72458 0.0
C616 C 0.00809 0.55851 0.68707 0.0
C617 C 0.99468 0.57434 0.68779 0.0
C618 C 0.99661 0.58912 0.7266 0.0
H619 H 0.99416 0.57629 0.92053 0.0
H620 H 0.98932 0.57185 0.84939 0.0
H621 H 0.01355 0.56685 0.87722 0.0
H622 H 0.03776 0.57223 0.793 0.0
H623 H 0.03457 0.54636 0.72528 0.0
H624 H 0.03719 0.20599 0.28043 0.0
H625 H 0.02453 0.17403 0.31306 0.0
H626 H 0.02792 0.15137 0.15019 0.0
H627 H 0.04027 0.18336 0.11683 0.0
H628 H 0.98692 0.14949 0.23909 0.0
H629 H 0.06096 0.11654 0.28696 0.0
H630 H 0.05719 0.14243 0.29809 0.0
H631 H 0.05777 0.13324 0.23005 0.0
C632 C 0.03522 0.19422 0.25154 0.0
C633 C 0.0398 0.19717 0.19611 0.0
C634 C 0.02804 0.17602 0.27023 0.0
C635 C 0.02532 0.16051 0.23385 0.0
C636 C 0.02999 0.16326 0.17868 0.0
H637 H 0.00282 0.04221 0.36076 0.0
H638 H 0.00936 0.06805 0.29277 0.0
C639 C 0.03721 0.18145 0.15991 0.0
C640 C 0.01751 0.14146 0.25393 0.0
H641 H 0.03218 0.0992 0.31664 0.0
C642 C 0.99674 0.13832 0.25544 0.0
C643 C 0.03046 0.12695 0.27429 0.0
C644 C 0.05288 0.12976 0.27237 0.0
C645 C 0.98851 0.12118 0.27913 0.0
C646 C 0.00143 0.10715 0.30266 0.0
C647 C 0.02226 0.10994 0.29855 0.0
C648 C 0.99391 0.09067 0.33718 0.0
C649 C 0.96607 0.11845 0.27936 0.0
C650 C 0.98254 0.09469 0.38382 0.0
C651 C 0.97868 0.07998 0.42247 0.0
C652 C 0.98639 0.06101 0.41562 0.0
C653 C 0.99668 0.05667 0.36724 0.0
C654 C 0.00047 0.07142 0.3284 0.0
H655 H 0.9592 0.12598 0.24381 0.0
H656 H 0.96174 0.10266 0.27877 0.0
H657 H 0.95977 0.12509 0.3167 0.0
H658 H 0.97771 0.1095 0.39217 0.0
H659 H 0.97068 0.08382 0.45925 0.0
H660 H 0.33262 0.08277 0.21099 0.0
H661 H 0.36014 0.06775 0.2608 0.0
H662 H 0.31918 0.04946 0.38827 0.0
H663 H 0.29161 0.06512 0.33956 0.0
H664 H 0.35246 0.0675 0.42738 0.0
H665 H 0.37454 0.01031 0.28102 0.0
H666 H 0.37359 0.03427 0.25002 0.0
H667 H 0.351 0.02304 0.27656 0.0
C668 C 0.32946 0.07566 0.24978 0.0
C669 C 0.30993 0.07522 0.27145 0.0
C670 C 0.34516 0.06678 0.27773 0.0
C671 C 0.34162 0.05712 0.32763 0.0
C672 C 0.32216 0.05663 0.34944 0.0
H673 H 0.43584 0.99995 0.52173 0.0
H674 H 0.40526 0.00413 0.46753 0.0
C675 C 0.30643 0.06554 0.32152 0.0
C676 C 0.35856 0.04894 0.35891 0.0
H677 H 0.39907 0.01891 0.34885 0.0
C678 C 0.36245 0.05663 0.41057 0.0
C679 C 0.37146 0.03459 0.33719 0.0
C680 C 0.36733 0.02492 0.28338 0.0
C681 C 0.37947 0.05114 0.43983 0.0
C682 C 0.39305 0.03781 0.4165 0.0
C683 C 0.38869 0.0293 0.3662 0.0
C684 C 0.41252 0.03393 0.44238 0.0
C685 C 0.38315 0.06005 0.49494 0.0
C686 C 0.4269 0.04902 0.44408 0.0
C687 C 0.44421 0.04671 0.47471 0.0
C688 C 0.44748 0.02921 0.50409 0.0
C689 C 0.43369 0.01357 0.49943 0.0
C690 C 0.41624 0.01594 0.46869 0.0
H691 H 0.36927 0.06629 0.51251 0.0
H692 H 0.38913 0.04893 0.52381 0.0
H693 H 0.39441 0.07209 0.49075 0.0
H694 H 0.42433 0.06291 0.42342 0.0
H695 H 0.45469 0.05894 0.477 0.0
H696 H 0.49397 0.33335 0.20812 0.0
H697 H 0.50739 0.3604 0.26118 0.0
H698 H 0.55818 0.32528 0.30638 0.0
H699 H 0.54482 0.29793 0.25253 0.0
H700 H 0.54091 0.34369 0.39358 0.0
H701 H 0.55393 0.39774 0.22835 0.0
H702 H 0.52925 0.38735 0.22315 0.0
H703 H 0.55074 0.37178 0.2157 0.0
C704 C 0.50817 0.33144 0.22856 0.0
C705 C 0.51844 0.31357 0.22565 0.0
C706 C 0.51587 0.34696 0.2587 0.0
C707 C 0.53407 0.34504 0.28638 0.0
C708 C 0.54426 0.32713 0.28456 0.0
H709 H 0.55158 0.45778 0.4532 0.0
H710 H 0.56367 0.42884 0.40402 0.0
C711 C 0.53653 0.3115 0.25422 0.0
C712 C 0.54127 0.36145 0.32038 0.0
H713 H 0.54503 0.41143 0.31722 0.0
C714 C 0.54246 0.35845 0.37683 0.0
C715 C 0.54392 0.38062 0.29853 0.0
C716 C 0.54463 0.38451 0.238 0.0
C717 C 0.5438 0.37442 0.41225 0.0
C718 C 0.54354 0.39375 0.39048 0.0
C719 C 0.54484 0.39661 0.33396 0.0
C720 C 0.53786 0.41067 0.42431 0.0
C721 C 0.54423 0.37048 0.47276 0.0
C722 C 0.5193 0.41006 0.45113 0.0
C723 C 0.51235 0.42643 0.47844 0.0
C724 C 0.52374 0.44389 0.47939 0.0
C725 C 0.5425 0.44451 0.45311 0.0
C726 C 0.54944 0.42801 0.42528 0.0
H727 H 0.55224 0.35662 0.48199 0.0
H728 H 0.55159 0.38271 0.4949 0.0
H729 H 0.52866 0.36873 0.48818 0.0
H730 H 0.50982 0.39706 0.44953 0.0
H731 H 0.49786 0.4254 0.49832 0.0
H732 H 0.19107 0.41711 0.35386 0.0
H733 H 0.1619 0.43495 0.3871 0.0
H734 H 0.13475 0.43106 0.22859 0.0
H735 H 0.16383 0.41322 0.19509 0.0
H736 H 0.14934 0.47107 0.34384 0.0
H737 H 0.08879 0.41448 0.33078 0.0
H738 H 0.115 0.40823 0.32956 0.0
H739 H 0.10343 0.41851 0.27005 0.0
C740 C 0.17877 0.41985 0.32632 0.0
C741 C 0.1797 0.4137 0.27197 0.0
C742 C 0.16213 0.43001 0.34532 0.0
C743 C 0.14612 0.43417 0.3104 0.0
C744 C 0.14676 0.42764 0.25649 0.0
H745 H 0.0364 0.49733 0.4002 0.0
H746 H 0.0624 0.48276 0.34259 0.0
C747 C 0.16338 0.41742 0.23748 0.0
C748 C 0.12948 0.44652 0.32969 0.0
H749 H 0.07944 0.44619 0.35835 0.0
C750 C 0.13404 0.46563 0.34698 0.0
C751 C 0.10948 0.43953 0.33258 0.0
C752 C 0.1038 0.41903 0.31516 0.0
C753 C 0.11928 0.47771 0.36897 0.0
C754 C 0.09949 0.47036 0.37459 0.0
C755 C 0.09468 0.45167 0.35452 0.0
C756 C 0.08429 0.48078 0.40703 0.0
C757 C 0.12505 0.49818 0.3865 0.0
C758 C 0.08802 0.48444 0.46211 0.0
C759 C 0.07334 0.49271 0.49479 0.0
C760 C 0.05453 0.49742 0.47319 0.0
C761 C 0.05087 0.49413 0.4177 0.0
C762 C 0.06563 0.48572 0.38489 0.0
H763 H 0.13811 0.5039 0.36278 0.0
H764 H 0.11243 0.50852 0.3816 0.0
H765 H 0.12938 0.49779 0.43005 0.0
H766 H 0.10211 0.48029 0.48037 0.0
H767 H 0.07658 0.49496 0.53747 0.0
H768 H 0.08718 0.81986 0.01829 0.0
H769 H 0.08356 0.85036 0.96476 0.0
H770 H 0.02377 0.83261 0.92013 0.0
H771 H 0.02707 0.80245 0.97367 0.0
H772 H 0.06938 0.85432 0.84323 0.0
H773 H 0.02129 0.88843 0.00067 0.0
H774 H 0.03867 0.86899 0.01618 0.0
H775 H 0.01522 0.86338 0.98413 0.0
C776 C 0.07332 0.82245 0.99678 0.0
C777 C 0.05743 0.80874 8e-05 0.0
C778 C 0.07133 0.83979 0.96617 0.0
C779 C 0.05336 0.84368 0.93905 0.0
C780 C 0.03772 0.82982 0.94106 0.0
H781 H 0.98869 0.92428 0.75064 0.0
H782 H 0.00228 0.89912 0.81096 0.0
C783 C 0.03971 0.81252 0.97129 0.0
C784 C 0.05033 0.86246 0.90993 0.0
H785 H 0.02147 0.90346 0.91279 0.0
C786 C 0.05923 0.86532 0.85864 0.0
C787 C 0.03707 0.87664 0.93049 0.0
C788 C 0.02759 0.87437 0.98609 0.0
C789 C 0.05426 0.88156 0.82583 0.0
C790 C 0.0403 0.89532 0.84551 0.0
C791 C 0.03216 0.89287 0.89789 0.0
C792 C 0.03237 0.91121 0.81053 0.0
C793 C 0.06307 0.88331 0.76928 0.0
C794 C 0.04474 0.92657 0.79119 0.0
C795 C 0.037 0.94105 0.75659 0.0
C796 C 0.01676 0.94034 0.74094 0.0
C797 C 0.00435 0.92521 0.76169 0.0
C798 C 0.01208 0.91082 0.79621 0.0
H799 H 0.07105 0.86978 0.75716 0.0
H800 H 0.05115 0.88634 0.73906 0.0
H801 H 0.07391 0.89577 0.7678 0.0
H802 H 0.06038 0.92727 0.80255 0.0
H803 H 0.04693 0.95254 0.74131 0.0
H804 H 0.68002 0.96962 0.01722 0.0
H805 H 0.65087 0.97394 0.95893 0.0
H806 H 0.67928 0.02439 0.88233 0.0
H807 H 0.7088 0.01984 0.94008 0.0
H808 H 0.62514 0.0041 0.94797 0.0
H809 H 0.66482 0.99159 0.75206 0.0
H810 H 0.67618 0.98655 0.81711 0.0
H811 H 0.67484 0.01137 0.79165 0.0
C812 C 0.68002 0.98171 0.98816 0.0
C813 C 0.69668 0.99438 0.98309 0.0
C814 C 0.66337 0.98414 0.95482 0.0
C815 C 0.66298 0.99933 0.91577 0.0
C816 C 0.67944 0.01229 0.91131 0.0
H817 H 0.56808 0.02085 0.6763 0.0
H818 H 0.5958 0.02675 0.73949 0.0
C819 C 0.69625 0.00973 0.94437 0.0
C820 C 0.64531 0.00127 0.87983 0.0
H821 H 0.63044 0.99874 0.74721 0.0
C822 C 0.62632 0.00307 0.90404 0.0
C823 C 0.64688 0.99992 0.82248 0.0
C824 C 0.66673 0.99708 0.79418 0.0
C825 C 0.60885 0.0031 0.87257 0.0
C826 C 0.61043 0.0013 0.81555 0.0
C827 C 0.62938 0.00023 0.79105 0.0
C828 C 0.59257 0.9987 0.78098 0.0
C829 C 0.58877 0.00471 0.90044 0.0
C830 C 0.58161 0.98104 0.78384 0.0
C831 C 0.56596 0.97755 0.74764 0.0
C832 C 0.56095 0.99172 0.7081 0.0
C833 C 0.57153 0.0097 0.70652 0.0
C834 C 0.58737 0.01308 0.74242 0.0
H835 H 0.59023 0.01026 0.94262 0.0
H836 H 0.5788 0.01462 0.87708 0.0
H837 H 0.58152 0.98997 0.90241 0.0
H838 H 0.58557 0.96969 0.813 0.0
H839 H 0.55806 0.96358 0.74991 0.0
H840 H 0.39611 0.70978 0.90308 0.0
H841 H 0.40039 0.68101 0.84509 0.0
H842 H 0.42634 0.64935 0.98005 0.0
H843 H 0.42175 0.67775 0.03806 0.0
H844 H 0.43494 0.66621 0.81716 0.0
H845 H 0.39125 0.60718 0.91921 0.0
H846 H 0.38813 0.63276 0.93572 0.0
H847 H 0.40786 0.61867 0.96657 0.0
C848 C 0.40233 0.69651 0.92053 0.0
C849 C 0.40849 0.69596 0.97514 0.0
C850 C 0.40473 0.68009 0.88746 0.0
C851 C 0.41339 0.66288 0.9084 0.0
C852 C 0.41902 0.66218 0.96334 0.0
H853 H 0.49321 0.58485 0.75487 0.0
H854 H 0.47546 0.61052 0.80323 0.0
C855 C 0.41646 0.67849 0.99648 0.0
C856 C 0.41888 0.64659 0.87173 0.0
H857 H 0.41894 0.59656 0.86236 0.0
C858 C 0.4311 0.65101 0.8265 0.0
C859 C 0.41365 0.62675 0.88324 0.0
C860 C 0.39931 0.6211 0.92851 0.0
C861 C 0.43918 0.63611 0.79447 0.0
C862 C 0.43538 0.61624 0.80894 0.0
C863 C 0.42217 0.6118 0.85202 0.0
C864 C 0.44588 0.59999 0.78163 0.0
C865 C 0.45194 0.64184 0.74584 0.0
C866 C 0.43512 0.58501 0.75554 0.0
C867 C 0.44526 0.57011 0.72833 0.0
C868 C 0.46631 0.56998 0.72691 0.0
C869 C 0.47699 0.58465 0.75463 0.0
C870 C 0.46687 0.59942 0.78202 0.0
H871 H 0.44803 0.65667 0.7301 0.0
H872 H 0.4679 0.64229 0.75814 0.0
H873 H 0.45025 0.63111 0.7124 0.0
H874 H 0.4189 0.58509 0.75527 0.0
H875 H 0.43662 0.55897 0.7074 0.0
H876 H 0.78366 0.49791 0.91189 0.0
H877 H 0.81398 0.49224 0.85851 0.0
H878 H 0.84983 0.49892 0.00279 0.0
H879 H 0.81975 0.5055 0.05594 0.0
H880 H 0.86277 0.52216 0.91977 0.0
H881 H 0.85165 0.44626 0.84544 0.0
H882 H 0.83089 0.46197 0.83099 0.0
H883 H 0.83705 0.45621 0.90053 0.0
C884 C 0.79798 0.49803 0.93236 0.0
C885 C 0.79925 0.50221 0.98822 0.0
C886 C 0.81528 0.49451 0.90191 0.0
C887 C 0.83415 0.49487 0.92683 0.0
C888 C 0.8354 0.4984 0.98286 0.0
H889 H 0.95524 0.49865 0.79001 0.0
H890 H 0.9269 0.4938 0.85245 0.0
C891 C 0.81815 0.50201 0.01328 0.0
C892 C 0.85266 0.49364 0.89362 0.0
H893 H 0.87709 0.46562 0.80038 0.0
C894 C 0.86605 0.50967 0.89427 0.0
C895 C 0.85682 0.47738 0.86014 0.0
C896 C 0.84344 0.45939 0.85953 0.0
C897 C 0.88318 0.51017 0.86113 0.0
C898 C 0.88718 0.49407 0.82701 0.0
C899 C 0.87397 0.4779 0.82679 0.0
C900 C 0.90448 0.49438 0.78922 0.0
C901 C 0.89649 0.52825 0.86141 0.0
C902 C 0.90125 0.49549 0.73295 0.0
C903 C 0.91737 0.49821 0.69718 0.0
C904 C 0.93703 0.4998 0.71713 0.0
C905 C 0.94029 0.49761 0.77337 0.0
C906 C 0.92413 0.49491 0.80912 0.0
H907 H 0.8892 0.54083 0.8817 0.0
H908 H 0.91048 0.52489 0.88369 0.0
H909 H 0.90065 0.53276 0.81924 0.0
H910 H 0.88617 0.49504 0.71687 0.0
H911 H 0.91434 0.4997 0.65407 0.0
H912 H 0.01685 0.24351 0.84244 0.0
H913 H 0.00712 0.215 0.78803 0.0
H914 H 0.99478 0.18182 0.9352 0.0
H915 H 0.0041 0.21025 0.9895 0.0
H916 H 0.02528 0.18042 0.78661 0.0
H917 H 0.94625 0.16807 0.84746 0.0
H918 H 0.95969 0.19045 0.86291 0.0
H919 H 0.96262 0.16886 0.90504 0.0
C920 C 0.01169 0.23024 0.86307 0.0
C921 C 0.01106 0.2292 0.92023 0.0
C922 C 0.00616 0.21396 0.832 0.0
C923 C 0.99996 0.19631 0.85745 0.0
C924 C 0.99894 0.1954 0.9145 0.0
H925 H 0.00969 0.08056 0.71145 0.0
H926 H 0.0142 0.11012 0.76626 0.0
C927 C 0.00429 0.2117 0.94555 0.0
C928 C 0.9962 0.17842 0.82468 0.0
H929 H 0.96233 0.14144 0.80245 0.0
C930 C 0.01144 0.172 0.78975 0.0
C931 C 0.97809 0.16748 0.82841 0.0
C932 C 0.96066 0.17418 0.86256 0.0
C933 C 0.00921 0.15483 0.7591 0.0
C934 C 0.99146 0.14343 0.76464 0.0
C935 C 0.97607 0.15002 0.79884 0.0
C936 C 0.98828 0.125 0.73381 0.0
C937 C 0.02577 0.14931 0.72029 0.0
C938 C 0.97178 0.12317 0.69908 0.0
C939 C 0.969 0.10621 0.66842 0.0
C940 C 0.98272 0.0907 0.67172 0.0
C941 C 0.99899 0.09233 0.70755 0.0
C942 C 0.00165 0.10927 0.73863 0.0
H943 H 0.03545 0.16217 0.70955 0.0
H944 H 0.03534 0.13807 0.73991 0.0
H945 H 0.01963 0.14308 0.68219 0.0
H946 H 0.96121 0.13506 0.69489 0.0
H947 H 0.95627 0.10543 0.64134 0.0
H948 H 0.31277 0.11483 0.94909 0.0
H949 H 0.34202 0.10691 0.89383 0.0
H950 H 0.3182 0.04861 0.86845 0.0
H951 H 0.2885 0.05663 0.92203 0.0
H952 H 0.36926 0.07838 0.91684 0.0
H953 H 0.33523 0.06479 0.71546 0.0
H954 H 0.32207 0.07715 0.76934 0.0
H955 H 0.32343 0.05075 0.76912 0.0
C956 C 0.31343 0.10049 0.9305 0.0
C957 C 0.29816 0.0864 0.93979 0.0
C958 C 0.33029 0.09594 0.89931 0.0
C959 C 0.33223 0.07725 0.87648 0.0
C960 C 0.31687 0.06326 0.88476 0.0
H961 H 0.42031 0.00621 0.72651 0.0
H962 H 0.39164 0.02117 0.7707 0.0
C963 C 0.29998 0.0678 0.9159 0.0
C964 C 0.3509 0.07192 0.84731 0.0
H965 H 0.36847 0.05279 0.7286 0.0
C966 C 0.36915 0.07304 0.8754 0.0
C967 C 0.35074 0.06504 0.79318 0.0
C968 C 0.33185 0.06453 0.75979 0.0
C969 C 0.38708 0.06661 0.85171 0.0
C970 C 0.38677 0.05907 0.79833 0.0
C971 C 0.36865 0.05852 0.76964 0.0
C972 C 0.40473 0.05033 0.77288 0.0
C973 C 0.40607 0.06713 0.88473 0.0
C974 C 0.42173 0.06179 0.75961 0.0
C975 C 0.43831 0.05323 0.73422 0.0
C976 C 0.43807 0.03311 0.72161 0.0
C977 C 0.42106 0.02174 0.73558 0.0
C978 C 0.40458 0.03027 0.76075 0.0
H979 H 0.4031 0.07018 0.92835 0.0
H980 H 0.41406 0.05295 0.88171 0.0
H981 H 0.41614 0.07887 0.8684 0.0
H982 H 0.42204 0.07737 0.76804 0.0
H983 H 0.45112 0.06241 0.72367 0.0
H984 H 0.52396 0.31373 0.9516 0.0
H985 H 0.52614 0.34482 0.90142 0.0
H986 H 0.48708 0.32162 0.77806 0.0
H987 H 0.48509 0.29014 0.82762 0.0
H988 H 0.52141 0.3445 0.73812 0.0
H989 H 0.47763 0.38287 0.89683 0.0
H990 H 0.49879 0.36949 0.9219 0.0
H991 H 0.47818 0.35642 0.89189 0.0
C992 C 0.51622 0.31499 0.9131 0.0
C993 C 0.50435 0.29939 0.8936 0.0
C994 C 0.51728 0.33289 0.88486 0.0
C995 C 0.50647 0.33562 0.83664 0.0
C996 C 0.49539 0.31984 0.81552 0.0
H997 H 0.48281 0.44886 0.67737 0.0
H998 H 0.47892 0.41664 0.72234 0.0
C999 C 0.49425 0.30189 0.84389 0.0
C1000 C 0.50633 0.35515 0.80938 0.0
H1001 H 0.49309 0.40297 0.82852 0.0
C1002 C 0.51512 0.35727 0.75767 0.0
C1003 C 0.49785 0.37172 0.83471 0.0
C1004 C 0.4874 0.37007 0.8892 0.0
C1005 C 0.51627 0.37569 0.7314 0.0
C1006 C 0.50855 0.3924 0.7578 0.0
C1007 C 0.49914 0.39016 0.80866 0.0
C1008 C 0.51068 0.41238 0.7338 0.0
C1009 C 0.52574 0.37717 0.6756 0.0
C1010 C 0.52974 0.42089 0.72716 0.0
C1011 C 0.532 0.43928 0.70201 0.0
C1012 C 0.51522 0.44955 0.68291 0.0
C1013 C 0.49603 0.44135 0.69164 0.0
C1014 C 0.49379 0.42292 0.71709 0.0
H1015 H 0.5265 0.36262 0.65566 0.0
H1016 H 0.51728 0.38738 0.64894 0.0
H1017 H 0.54124 0.38303 0.67942 0.0
H1018 H 0.54293 0.41315 0.74074 0.0
H1019 H 0.547 0.44517 0.69624 0.0
H1020 H 0.18196 0.43765 0.04983 0.0
H1021 H 0.15312 0.44867 0.99759 0.0
H1022 H 0.18324 0.43334 0.84842 0.0
H1023 H 0.21209 0.42183 0.9009 0.0
H1024 H 0.14982 0.47717 0.92448 0.0
H1025 H 0.12987 0.4064 0.82832 0.0
H1026 H 0.14772 0.40814 0.88301 0.0
H1027 H 0.15519 0.41396 0.81416 0.0
C1028 C 0.18251 0.43676 0.00585 0.0
C1029 C 0.19931 0.42898 0.97935 0.0
C1030 C 0.16596 0.44295 0.97607 0.0
C1031 C 0.16584 0.44154 0.91914 0.0
C1032 C 0.18275 0.43408 0.89241 0.0
H1033 H 0.09209 0.50786 0.70086 0.0
H1034 H 0.11813 0.49445 0.75875 0.0
C1035 C 0.19928 0.42766 0.92232 0.0
C1036 C 0.14825 0.44853 0.88804 0.0
H1037 H 0.11365 0.43496 0.79324 0.0
C1038 C 0.14184 0.46787 0.89607 0.0
C1039 C 0.13756 0.4363 0.85178 0.0
C1040 C 0.14279 0.41499 0.84417 0.0
C1041 C 0.12541 0.47549 0.86783 0.0
C1042 C 0.11544 0.46362 0.82932 0.0
C1043 C 0.12144 0.4441 0.82238 0.0
C1044 C 0.09936 0.47152 0.79419 0.0
C1045 C 0.11882 0.49614 0.87995 0.0
C1046 C 0.08025 0.4627 0.79349 0.0
C1047 C 0.06525 0.47024 0.75972 0.0
C1048 C 0.0692 0.48669 0.7261 0.0
C1049 C 0.08843 0.49532 0.72667 0.0
C1050 C 0.10336 0.48773 0.76002 0.0
H1051 H 0.12346 0.50069 0.92137 0.0
H1052 H 0.12595 0.50647 0.85027 0.0
H1053 H 0.10232 0.49755 0.87671 0.0
H1054 H 0.07691 0.45007 0.81929 0.0
H1055 H 0.05062 0.46322 0.75997 0.0
H1056 H 0.98773 0.78547 0.35766 0.0
H1057 H 0.97797 0.81564 0.40406 0.0
H1058 H 0.99148 0.84929 0.25845 0.0
H1059 H 0.00098 0.81937 0.21197 0.0
H1060 H 0.00308 0.84528 0.42401 0.0
H1061 H 0.94014 0.87452 0.30382 0.0
H1062 H 0.94859 0.84953 0.29737 0.0
H1063 H 0.96126 0.86927 0.26133 0.0
C1064 C 0.98822 0.79927 0.33529 0.0
C1065 C 0.99504 0.8 0.28106 0.0
C1066 C 0.98259 0.81648 0.36176 0.0
C1067 C 0.98369 0.83473 0.33453 0.0
C1068 C 0.98988 0.83537 0.27988 0.0
H1069 H 0.99982 0.95537 0.4134 0.0
H1070 H 0.99374 0.9237 0.36993 0.0
C1071 C 0.99537 0.8182 0.25333 0.0
C1072 C 0.98086 0.85329 0.36476 0.0
H1073 H 0.95818 0.89805 0.35871 0.0
C1074 C 0.99295 0.85666 0.41037 0.0
C1075 C 0.96773 0.86819 0.34678 0.0
C1076 C 0.95356 0.86512 0.29996 0.0
C1077 C 0.99297 0.87479 0.43693 0.0
C1078 C 0.98038 0.88991 0.41777 0.0
C1079 C 0.96784 0.88642 0.37317 0.0
C1080 C 0.98104 0.90976 0.44188 0.0
C1081 C 0.00716 0.87795 0.4838 0.0
C1082 C 0.97518 0.91258 0.4961 0.0
C1083 C 0.97866 0.93064 0.52113 0.0
C1084 C 0.98804 0.9462 0.49227 0.0
C1085 C 0.99267 0.94368 0.43688 0.0
C1086 C 0.98918 0.9256 0.41191 0.0
H1087 H 0.01841 0.86609 0.48708 0.0
H1088 H 0.01517 0.89226 0.47927 0.0
H1089 H 0.9985 0.87821 0.52244 0.0
H1090 H 0.96861 0.90058 0.51964 0.0
H1091 H 0.97475 0.93211 0.56372 0.0
H1092 H 0.72589 0.92027 0.33974 0.0
H1093 H 0.69507 0.91876 0.39431 0.0
H1094 H 0.66075 0.93394 0.25184 0.0
H1095 H 0.69117 0.93493 0.19742 0.0
H1096 H 0.67421 0.94933 0.41376 0.0
H1097 H 0.62249 0.89628 0.32038 0.0
H1098 H 0.64891 0.89673 0.3044 0.0
H1099 H 0.63189 0.91265 0.26851 0.0
C1100 C 0.71166 0.92262 0.31986 0.0
C1101 C 0.71096 0.92766 0.26426 0.0
C1102 C 0.69406 0.92175 0.35102 0.0
C1103 C 0.67547 0.92603 0.32722 0.0
C1104 C 0.67471 0.92995 0.27105 0.0
H1105 H 0.58545 0.99986 0.44385 0.0
H1106 H 0.61411 0.98287 0.4055 0.0
C1107 C 0.69222 0.93059 0.23985 0.0
C1108 C 0.65758 0.92978 0.36172 0.0
H1109 H 0.60666 0.92439 0.36504 0.0
C1110 C 0.65953 0.94345 0.40386 0.0
C1111 C 0.63837 0.92197 0.34979 0.0
C1112 C 0.63537 0.90593 0.30867 0.0
C1113 C 0.64274 0.95058 0.43141 0.0
C1114 C 0.6234 0.94435 0.41538 0.0
C1115 C 0.62148 0.92955 0.37634 0.0
C1116 C 0.60517 0.95412 0.43597 0.0
C1117 C 0.64589 0.96512 0.47663 0.0
C1118 C 0.59009 0.94343 0.46356 0.0
C1119 C 0.57347 0.95311 0.48507 0.0
C1120 C 0.5717 0.97362 0.4792 0.0
C1121 C 0.58647 0.9841 0.4497 0.0
C1122 C 0.60294 0.97442 0.42801 0.0
H1123 H 0.66077 0.96324 0.49592 0.0
H1124 H 0.64535 0.98027 0.45955 0.0
H1125 H 0.63413 0.96356 0.50853 0.0
H1126 H 0.59144 0.92771 0.46963 0.0
H1127 H 0.56231 0.94463 0.50753 0.0
H1128 H 0.44734 0.71113 0.32654 0.0
H1129 H 0.4581 0.6824 0.3779 0.0
H1130 H 0.50996 0.67751 0.27403 0.0
H1131 H 0.49958 0.70674 0.22283 0.0
H1132 H 0.48641 0.64306 0.28188 0.0
H1133 H 0.50348 0.6719 0.48646 0.0
H1134 H 0.47987 0.68024 0.46093 0.0
H1135 H 0.50265 0.68746 0.42643 0.0
C1136 C 0.46142 0.70445 0.31557 0.0
C1137 C 0.47259 0.71135 0.27041 0.0
C1138 C 0.46752 0.68793 0.34502 0.0
C1139 C 0.48492 0.67793 0.33013 0.0
C1140 C 0.49651 0.68508 0.28629 0.0
H1141 H 0.51355 0.57284 0.52601 0.0
H1142 H 0.51886 0.60284 0.47135 0.0
C1143 C 0.49048 0.70173 0.25693 0.0
C1144 C 0.48961 0.65892 0.35684 0.0
H1145 H 0.49532 0.63735 0.48177 0.0
C1146 C 0.48877 0.64182 0.32543 0.0
C1147 C 0.4929 0.65733 0.41351 0.0
C1148 C 0.49498 0.67524 0.44875 0.0
C1149 C 0.48983 0.62311 0.34979 0.0
C1150 C 0.49159 0.62151 0.40697 0.0
C1151 C 0.49377 0.63861 0.43794 0.0
C1152 C 0.48928 0.60241 0.4359 0.0
C1153 C 0.4885 0.60519 0.31432 0.0
C1154 C 0.47094 0.59223 0.43381 0.0
C1155 C 0.46781 0.57522 0.4651 0.0
C1156 C 0.48299 0.56804 0.49912 0.0
C1157 C 0.5016 0.57794 0.49996 0.0
C1158 C 0.50465 0.59509 0.46891 0.0
H1159 H 0.49317 0.60863 0.27177 0.0
H1160 H 0.49797 0.59317 0.33044 0.0
H1161 H 0.47275 0.59984 0.3135 0.0
H1162 H 0.45877 0.59781 0.40932 0.0
H1163 H 0.45332 0.56796 0.46356 0.0
H1164 H 0.78543 0.56282 0.31817 0.0
H1165 H 0.81684 0.56747 0.36521 0.0
H1166 H 0.83555 0.61053 0.2448 0.0
H1167 H 0.80367 0.60612 0.19719 0.0
H1168 H 0.86192 0.58138 0.25384 0.0
H1169 H 0.84451 0.60679 0.46032 0.0
H1170 H 0.82836 0.58652 0.44415 0.0
H1171 H 0.82692 0.60904 0.40499 0.0
C1172 C 0.79574 0.57395 0.30271 0.0
C1173 C 0.79195 0.58406 0.25364 0.0
C1174 C 0.81381 0.5766 0.32987 0.0
C1175 C 0.82851 0.58951 0.30897 0.0
C1176 C 0.82437 0.60055 0.26182 0.0
H1177 H 0.93827 0.57126 0.49815 0.0
H1178 H 0.91333 0.59033 0.44805 0.0
C1179 C 0.80619 0.59794 0.23453 0.0
C1180 C 0.84903 0.58875 0.33158 0.0
H1181 H 0.8733 0.58464 0.45288 0.0
C1182 C 0.86459 0.58268 0.29718 0.0
C1183 C 0.85274 0.5908 0.38787 0.0
C1184 C 0.83725 0.59887 0.42623 0.0
C1185 C 0.88304 0.5767 0.31836 0.0
C1186 C 0.88581 0.57643 0.37538 0.0
C1187 C 0.87104 0.58443 0.40919 0.0
C1188 C 0.90255 0.5657 0.4011 0.0
C1189 C 0.89906 0.56995 0.27956 0.0
C1190 C 0.90478 0.54556 0.39123 0.0
C1191 C 0.91896 0.53465 0.41969 0.0
C1192 C 0.93107 0.54362 0.45907 0.0
C1193 C 0.92917 0.56391 0.46802 0.0
C1194 C 0.91494 0.57484 0.43945 0.0
H1195 H 0.89796 0.57773 0.23971 0.0
H1196 H 0.91428 0.57243 0.2963 0.0
H1197 H 0.897 0.55401 0.27203 0.0
H1198 H 0.89503 0.53807 0.36292 0.0
H1199 H 0.91998 0.51906 0.41189 0.0
loop_
_geom_bond_atom_site_label_1
_geom_bond_atom_site_label_2
_geom_bond_distance
_geom_bond_site_symmetry_2
_ccdc_geom_bond_type
P0 O11 1.490 . S
P0 C14 1.812 . S
P0 C20 1.803 . S
P0 C26 1.819 1_554 S
H1 C15 0.941 . S
H2 C16 0.939 . S
H3 C18 0.940 . S
H4 C19 0.940 . S
H5 C21 0.939 . S
H6 C22 0.942 . S
H7 C24 0.940 . S
H8 C25 0.939 . S
H9 C27 0.941 . S
H10 C31 0.939 . S
O11 P0 1.490 . S
H12 C28 0.939 . S
H13 C30 0.940 . S
C14 P0 1.812 . S
C14 C15 1.389 . S
C14 C19 1.391 . S
C15 H1 0.941 . S
C15 C14 1.389 . S
C15 C16 1.397 . S
C16 H2 0.939 . S
C16 C15 1.397 . S
C16 C17 1.378 . S
C17 C16 1.378 . S
C17 C18 1.378 . S
C18 H3 0.940 . S
C18 C17 1.378 . S
C18 C19 1.396 . S
C19 H4 0.940 . S
C19 C14 1.391 . S
C19 C18 1.396 . S
C20 P0 1.803 . S
C20 C21 1.378 1_554 S
C20 C25 1.400 . S
C21 H5 0.939 . S
C21 C20 1.378 1_556 S
C21 C22 1.361 . S
C22 H6 0.942 . S
C22 C21 1.361 . S
C22 C23 1.369 . S
C23 C22 1.369 . S
C23 C24 1.404 1_556 S
C24 H7 0.940 . S
C24 C23 1.404 1_554 S
C24 C25 1.389 . S
C25 H8 0.939 . S
C25 C20 1.400 . S
C25 C24 1.389 . S
C26 P0 1.819 1_556 S
C26 C27 1.391 . S
C26 C31 1.391 . S
C27 H9 0.941 . S
C27 C26 1.391 . S
C27 C28 1.396 . S
C28 H12 0.939 . S
C28 C27 1.396 . S
C28 C29 1.397 . S
C29 C28 1.397 . S
C29 C30 1.385 . S
C30 H13 0.940 . S
C30 C29 1.385 . S
C30 C31 1.388 . S
C31 H10 0.939 . S
C31 C26 1.391 . S
C31 C30 1.388 . S
P32 O43 1.490 . S
P32 C46 1.812 . S
P32 C52 1.803 . S
P32 C58 1.819 1_554 S
H33 C47 0.941 . S
H34 C48 0.939 . S
H35 C50 0.940 . S
H36 C51 0.950 . S
H37 C53 0.939 . S
H38 C54 0.942 . S
H39 C56 0.940 . S
H40 C57 0.959 . S
H41 C59 0.941 1_554 S
H42 C63 0.929 1_655 S
O43 P32 1.490 . S
H44 C60 0.939 . S
H45 C62 0.940 . S
C46 P32 1.812 . S
C46 C47 1.389 . S
C46 C51 1.375 1_455 S
C47 H33 0.941 . S
C47 C46 1.389 . S
C47 C48 1.397 . S
C48 H34 0.939 . S
C48 C47 1.397 . S
C48 C49 1.378 . S
C49 C48 1.378 . S
C49 C50 1.378 1_455 S
C50 H35 0.940 . S
C50 C49 1.378 1_655 S
C50 C51 1.403 . S
C51 H36 0.950 . S
C51 C46 1.375 1_655 S
C51 C50 1.403 . S
C52 P32 1.803 . S
C52 C53 1.378 1_554 S
C52 C57 1.368 1_455 S
C53 H37 0.939 . S
C53 C52 1.378 1_556 S
C53 C54 1.361 . S
C54 H38 0.942 . S
C54 C53 1.361 . S
C54 C55 1.369 . S
C55 C54 1.369 . S
C55 C56 1.404 1_456 S
C56 H39 0.940 . S
C56 C55 1.404 1_654 S
C56 C57 1.402 . S
C57 H40 0.959 . S
C57 C52 1.368 1_655 S
C57 C56 1.402 . S
C58 P32 1.819 1_556 S
C58 C59 1.391 . S
C58 C63 1.391 . S
C59 H41 0.941 1_556 S
C59 C58 1.391 . S
C59 C60 1.396 . S
C60 H44 0.939 . S
C60 C59 1.396 . S
C60 C61 1.397 . S
C61 C60 1.397 . S
C61 C62 1.385 1_455 S
C62 H45 0.940 . S
C62 C61 1.385 1_655 S
C62 C63 1.388 1_655 S
C63 H42 0.929 1_455 S
C63 C58 1.391 . S
C63 C62 1.388 1_455 S
P64 O75 1.490 . S
P64 C78 1.812 . S
P64 C84 1.803 . S
P64 C90 1.819 1_554 S
H65 C79 0.941 . S
H66 C80 0.939 . S
H67 C82 0.940 . S
H68 C83 0.940 . S
H69 C85 0.939 . S
H70 C86 0.942 . S
H71 C88 0.940 . S
H72 C89 0.939 . S
H73 C91 0.941 1_554 S
H74 C95 0.939 . S
O75 P64 1.490 . S
H76 C92 0.939 . S
H77 C94 0.940 . S
C78 P64 1.812 . S
C78 C79 1.389 . S
C78 C83 1.391 . S
C79 H65 0.941 . S
C79 C78 1.389 . S
C79 C80 1.397 . S
C80 H66 0.939 . S
C80 C79 1.397 . S
C80 C81 1.378 . S
C81 C80 1.378 . S
C81 C82 1.378 . S
C82 H67 0.940 . S
C82 C81 1.378 . S
C82 C83 1.396 . S
C83 H68 0.940 . S
C83 C78 1.391 . S
C83 C82 1.396 . S
C84 P64 1.803 . S
C84 C85 1.378 1_554 S
C84 C89 1.400 . S
C85 H69 0.939 . S
C85 C84 1.378 1_556 S
C85 C86 1.361 . S
C86 H70 0.942 . S
C86 C85 1.361 . S
C86 C87 1.369 . S
C87 C86 1.369 . S
C87 C88 1.404 1_556 S
C88 H71 0.940 . S
C88 C87 1.404 1_554 S
C88 C89 1.389 . S
C89 H72 0.939 . S
C89 C84 1.400 . S
C89 C88 1.389 . S
C90 P64 1.819 1_556 S
C90 C91 1.391 . S
C90 C95 1.391 . S
C91 H73 0.941 1_556 S
C91 C90 1.391 . S
C91 C92 1.396 . S
C92 H76 0.939 . S
C92 C91 1.396 . S
C92 C93 1.397 . S
C93 C92 1.397 . S
C93 C94 1.385 . S
C94 H77 0.940 . S
C94 C93 1.385 . S
C94 C95 1.388 . S
C95 H74 0.939 . S
C95 C90 1.391 . S
C95 C94 1.388 . S
P96 O107 1.490 . S
P96 C110 1.812 . S
P96 C116 1.803 . S
P96 C122 1.819 1_554 S
H97 C111 0.941 . S
H98 C112 0.939 . S
H99 C114 0.940 . S
H100 C115 0.940 . S
H101 C117 0.939 . S
H102 C118 0.942 . S
H103 C120 0.940 . S
H104 C121 0.939 . S
H105 C123 0.941 1_554 S
H106 C127 0.939 . S
O107 P96 1.490 . S
H108 C124 0.939 . S
H109 C126 0.940 . S
C110 P96 1.812 . S
C110 C111 1.389 . S
C110 C115 1.391 . S
C111 H97 0.941 . S
C111 C110 1.389 . S
C111 C112 1.397 . S
C112 H98 0.939 . S
C112 C111 1.397 . S
C112 C113 1.378 . S
C113 C112 1.378 . S
C113 C114 1.378 . S
C114 H99 0.940 . S
C114 C113 1.378 . S
C114 C115 1.396 . S
C115 H100 0.940 . S
C115 C110 1.391 . S
C115 C114 1.396 . S
C116 P96 1.803 . S
C116 C117 1.378 1_554 S
C116 C121 1.400 . S
C117 H101 0.939 . S
C117 C116 1.378 1_556 S
C117 C118 1.361 . S
C118 H102 0.942 . S
C118 C117 1.361 . S
C118 C119 1.374 . S
C119 C118 1.374 . S
C119 C120 1.395 1_556 S
C120 H103 0.940 . S
C120 C119 1.395 1_554 S
C120 C121 1.389 . S
C121 H104 0.939 . S
C121 C116 1.400 . S
C121 C120 1.389 . S
C122 P96 1.819 1_556 S
C122 C123 1.391 . S
C122 C127 1.391 . S
C123 H105 0.941 1_556 S
C123 C122 1.391 . S
C123 C124 1.396 . S
C124 H108 0.939 . S
C124 C123 1.396 . S
C124 C125 1.397 . S
C125 C124 1.397 . S
C125 C126 1.385 . S
C126 H109 0.940 . S
C126 C125 1.385 . S
C126 C127 1.388 . S
C127 H106 0.939 . S
C127 C122 1.391 . S
C127 C126 1.388 . S
P128 O139 1.490 . S
P128 C142 1.812 . S
P128 C148 1.803 . S
P128 C154 1.819 . S
H129 C143 0.941 . S
H130 C144 0.939 1_556 S
H131 C146 0.940 . S
H132 C147 0.940 . S
H133 C149 0.939 . S
H134 C150 0.942 . S
H135 C152 0.940 . S
H136 C153 0.939 . S
H137 C155 0.941 . S
H138 C159 0.939 . S
O139 P128 1.490 . S
H140 C156 0.939 . S
H141 C158 0.940 . S
C142 P128 1.812 . S
C142 C143 1.389 . S
C142 C147 1.391 . S
C143 H129 0.941 . S
C143 C142 1.389 . S
C143 C144 1.397 . S
C144 H130 0.939 1_554 S
C144 C143 1.397 . S
C144 C145 1.378 . S
C145 C144 1.378 . S
C145 C146 1.378 . S
C146 H131 0.940 . S
C146 C145 1.378 . S
C146 C147 1.396 . S
C147 H132 0.940 . S
C147 C142 1.391 . S
C147 C146 1.396 . S
C148 P128 1.803 . S
C148 C149 1.378 . S
C148 C153 1.400 . S
C149 H133 0.939 . S
C149 C148 1.378 . S
C149 C150 1.361 . S
C150 H134 0.942 . S
C150 C149 1.361 . S
C150 C151 1.369 . S
C151 C150 1.369 . S
C151 C152 1.404 . S
C152 H135 0.940 . S
C152 C151 1.404 . S
C152 C153 1.389 . S
C153 H136 0.939 . S
C153 C148 1.400 . S
C153 C152 1.389 . S
C154 P128 1.819 . S
C154 C155 1.391 . S
C154 C159 1.391 . S
C155 H137 0.941 . S
C155 C154 1.391 . S
C155 C156 1.396 . S
C156 H140 0.939 . S
C156 C155 1.396 . S
C156 C157 1.397 . S
C157 C156 1.397 . S
C157 C158 1.385 . S
C158 H141 0.940 . S
C158 C157 1.385 . S
C158 C159 1.388 . S
C159 H138 0.939 . S
C159 C154 1.391 . S
C159 C158 1.388 . S
P160 O171 1.490 . S
P160 C174 1.812 . S
P160 C180 1.803 . S
P160 C186 1.819 . S
H161 C175 0.941 . S
H162 C176 0.939 . S
H163 C178 0.940 . S
H164 C179 0.943 . S
H165 C181 0.939 . S
H166 C182 0.942 . S
H167 C184 0.940 . S
H168 C185 0.951 . S
H169 C187 0.941 . S
H170 C191 0.933 1_655 S
O171 P160 1.490 . S
H172 C188 0.939 . S
H173 C190 0.940 . S
C174 P160 1.812 . S
C174 C175 1.389 . S
C174 C179 1.387 1_455 S
C175 H161 0.941 . S
C175 C174 1.389 . S
C175 C176 1.397 1_554 S
C176 H162 0.939 . S
C176 C175 1.397 1_556 S
C176 C177 1.378 . S
C177 C176 1.378 . S
C177 C178 1.378 1_456 S
C178 H163 0.940 . S
C178 C177 1.378 1_654 S
C178 C179 1.398 . S
C179 H164 0.943 . S
C179 C174 1.387 1_655 S
C179 C178 1.398 . S
C180 P160 1.803 . S
C180 C181 1.378 . S
C180 C185 1.380 1_455 S
C181 H165 0.939 . S
C181 C180 1.378 . S
C181 C182 1.361 . S
C182 H166 0.942 . S
C182 C181 1.361 . S
C182 C183 1.369 . S
C183 C182 1.369 . S
C183 C184 1.404 1_455 S
C184 H167 0.940 . S
C184 C183 1.404 1_655 S
C184 C185 1.397 . S
C185 H168 0.951 . S
C185 C180 1.380 1_655 S
C185 C184 1.397 . S
C186 P160 1.819 . S
C186 C187 1.391 . S
C186 C191 1.391 . S
C187 H169 0.941 . S
C187 C186 1.391 . S
C187 C188 1.396 . S
C188 H172 0.939 . S
C188 C187 1.396 . S
C188 C189 1.397 . S
C189 C188 1.397 . S
C189 C190 1.385 1_455 S
C190 H173 0.940 . S
C190 C189 1.385 1_655 S
C190 C191 1.388 1_655 S
C191 H170 0.933 1_455 S
C191 C186 1.391 . S
C191 C190 1.388 1_455 S
P192 O203 1.490 . S
P192 C206 1.812 . S
P192 C212 1.803 . S
P192 C218 1.819 . S
H193 C207 0.941 . S
H194 C208 0.939 1_556 S
H195 C210 0.940 . S
H196 C211 0.940 . S
H197 C213 0.939 . S
H198 C214 0.942 . S
H199 C216 0.940 . S
H200 C217 0.939 . S
H201 C219 0.941 . S
H202 C223 0.939 . S
O203 P192 1.490 . S
H204 C220 0.939 . S
H205 C222 0.940 . S
C206 P192 1.812 . S
C206 C207 1.389 . S
C206 C211 1.391 . S
C207 H193 0.941 . S
C207 C206 1.389 . S
C207 C208 1.397 . S
C208 H194 0.939 1_554 S
C208 C207 1.397 . S
C208 C209 1.378 1_554 S
C209 C208 1.378 1_556 S
C209 C210 1.378 1_556 S
C210 H195 0.940 . S
C210 C209 1.378 1_554 S
C210 C211 1.396 . S
C211 H196 0.940 . S
C211 C206 1.391 . S
C211 C210 1.396 . S
C212 P192 1.803 . S
C212 C213 1.378 . S
C212 C217 1.400 . S
C213 H197 0.939 . S
C213 C212 1.378 . S
C213 C214 1.361 . S
C214 H198 0.942 . S
C214 C213 1.361 . S
C214 C215 1.369 . S
C215 C214 1.369 . S
C215 C216 1.404 . S
C216 H199 0.940 . S
C216 C215 1.404 . S
C216 C217 1.389 . S
C217 H200 0.939 . S
C217 C212 1.400 . S
C217 C216 1.389 . S
C218 P192 1.819 . S
C218 C219 1.391 . S
C218 C223 1.391 . S
C219 H201 0.941 . S
C219 C218 1.391 . S
C219 C220 1.396 . S
C220 H204 0.939 . S
C220 C219 1.396 . S
C220 C221 1.397 . S
C221 C220 1.397 . S
C221 C222 1.385 . S
C222 H205 0.940 . S
C222 C221 1.385 . S
C222 C223 1.388 . S
C223 H202 0.939 . S
C223 C218 1.391 . S
C223 C222 1.388 . S
P224 O235 1.490 . S
P224 C238 1.812 . S
P224 C244 1.803 . S
P224 C250 1.819 . S
H225 C239 0.941 . S
H226 C240 0.939 . S
H227 C242 0.940 . S
H228 C243 0.940 . S
H229 C245 0.939 . S
H230 C246 0.942 . S
H231 C248 0.940 . S
H232 C249 0.939 . S
H233 C251 0.941 . S
H234 C255 0.939 . S
O235 P224 1.490 . S
H236 C252 0.939 . S
H237 C254 0.940 . S
C238 P224 1.812 . S
C238 C239 1.389 . S
C238 C243 1.391 . S
C239 H225 0.941 . S
C239 C238 1.389 . S
C239 C240 1.397 1_554 S
C240 H226 0.939 . S
C240 C239 1.397 1_556 S
C240 C241 1.378 . S
C241 C240 1.378 . S
C241 C242 1.378 1_556 S
C242 H227 0.940 . S
C242 C241 1.378 1_554 S
C242 C243 1.396 . S
C243 H228 0.940 . S
C243 C238 1.391 . S
C243 C242 1.396 . S
C244 P224 1.803 . S
C244 C245 1.378 . S
C244 C249 1.400 . S
C245 H229 0.939 . S
C245 C244 1.378 . S
C245 C246 1.361 . S
C246 H230 0.942 . S
C246 C245 1.361 . S
C246 C247 1.369 . S
C247 C246 1.369 . S
C247 C248 1.404 . S
C248 H231 0.940 . S
C248 C247 1.404 . S
C248 C249 1.389 . S
C249 H232 0.939 . S
C249 C244 1.400 . S
C249 C248 1.389 . S
C250 P224 1.819 . S
C250 C251 1.391 . S
C250 C255 1.391 . S
C251 H233 0.941 . S
C251 C250 1.391 . S
C251 C252 1.396 . S
C252 H236 0.939 . S
C252 C251 1.396 . S
C252 C253 1.397 . S
C253 C252 1.397 . S
C253 C254 1.385 . S
C254 H237 0.940 . S
C254 C253 1.385 . S
C254 C255 1.388 . S
C255 H234 0.939 . S
C255 C250 1.391 . S
C255 C254 1.388 . S
Zn256 O262 1.969 . S
Zn256 O263 1.965 1_655 S
Zn256 O267 2.024 1_655 S
Zn256 O272 1.969 . S
Zn257 O264 1.969 . S
Zn257 O270 1.969 . S
Zn257 O271 1.965 1_455 S
Zn257 O273 2.024 1_455 S
C258 O259 1.229 1_455 S
C258 O267 1.058 . S
O259 C258 1.229 1_655 S
C260 O261 1.229 1_655 S
C260 O273 1.058 . S
O261 C260 1.229 1_455 S
O262 Zn256 1.969 . S
O262 C265 1.267 . S
O263 Zn256 1.965 1_455 S
O263 C274 1.260 . S
O264 Zn257 1.969 . S
O264 C274 1.258 1_565 S
C265 O262 1.267 . S
C265 O266 1.228 1_655 S
O266 C265 1.228 1_455 S
O267 Zn256 2.024 1_455 S
O267 C258 1.058 . S
C268 O269 1.228 1_455 S
C268 O270 1.267 . S
O269 C268 1.228 1_655 S
O270 Zn257 1.969 . S
O270 C268 1.267 . S
O271 Zn257 1.965 1_655 S
O271 C275 1.260 1_565 S
O272 Zn256 1.969 . S
O272 C275 1.258 . S
O273 Zn257 2.024 1_655 S
O273 C260 1.058 . S
C274 O263 1.260 . S
C274 O264 1.258 1_545 S
C275 O271 1.260 1_545 S
C275 O272 1.258 . S
Zn276 O282 1.969 . S
Zn276 O283 1.965 . S
Zn276 O287 2.024 . S
Zn276 O292 1.969 1_545 S
Zn277 O284 1.974 1_565 S
Zn277 O290 1.971 1_565 S
Zn277 O291 1.963 . S
Zn277 O293 2.021 . S
C278 O279 1.229 . S
C278 O287 1.058 . S
O279 C278 1.229 . S
C280 O281 1.226 . S
C280 O293 1.058 . S
O281 C280 1.226 . S
O282 Zn276 1.969 . S
O282 C285 1.267 . S
O283 Zn276 1.965 . S
O283 C294 1.260 . S
O284 Zn277 1.974 1_545 S
O284 C294 1.258 . S
C285 O282 1.267 . S
C285 O286 1.228 . S
O286 C285 1.228 . S
O287 Zn276 2.024 . S
O287 C278 1.058 . S
C288 O289 1.228 . S
C288 O290 1.267 1_565 S
O289 C288 1.228 . S
O290 Zn277 1.971 1_545 S
O290 C288 1.267 1_545 S
O291 Zn277 1.963 . S
O291 C295 1.260 . S
O292 Zn276 1.969 1_565 S
O292 C295 1.258 . S
O293 Zn277 2.021 . S
O293 C280 1.058 . S
C294 O283 1.260 . S
C294 O284 1.258 . S
C295 O291 1.260 . S
C295 O292 1.258 . S
Zn296 O302 1.969 . S
Zn296 O303 1.965 . S
Zn296 O307 2.024 . S
Zn296 O312 1.969 . S
Zn297 O304 1.969 . S
Zn297 O310 1.969 . S
Zn297 O311 1.965 . S
Zn297 O313 2.024 . S
C298 O299 1.229 . S
C298 O307 1.058 . S
O299 C298 1.229 . S
C300 O301 1.229 . S
C300 O313 1.058 . S
O301 C300 1.229 . S
O302 Zn296 1.969 . S
O302 C305 1.267 . S
O303 Zn296 1.965 . S
O303 C314 1.260 . S
O304 Zn297 1.969 . S
O304 C314 1.258 . S
C305 O302 1.267 . S
C305 O306 1.228 . S
O306 C305 1.228 . S
O307 Zn296 2.024 . S
O307 C298 1.058 . S
C308 O309 1.228 . S
C308 O310 1.267 . S
O309 C308 1.228 . S
O310 Zn297 1.969 . S
O310 C308 1.267 . S
O311 Zn297 1.965 . S
O311 C315 1.260 . S
O312 Zn296 1.969 . S
O312 C315 1.258 . S
O313 Zn297 2.024 . S
O313 C300 1.058 . S
C314 O303 1.260 . S
C314 O304 1.258 . S
C315 O311 1.260 . S
C315 O312 1.258 . S
Zn316 O322 1.969 . S
Zn316 O323 1.965 . S
Zn316 O327 2.024 . S
Zn316 O332 1.969 . S
Zn317 O324 1.969 . S
Zn317 O330 1.969 . S
Zn317 O331 1.965 . S
Zn317 O333 2.024 . S
C318 O319 1.229 . S
C318 O327 1.058 . S
O319 C318 1.229 . S
C320 O321 1.229 . S
C320 O333 1.058 . S
O321 C320 1.229 . S
O322 Zn316 1.969 . S
O322 C325 1.267 . S
O323 Zn316 1.965 . S
O323 C334 1.260 1_455 S
O324 Zn317 1.969 . S
O324 C334 1.258 . S
C325 O322 1.267 . S
C325 O326 1.228 . S
O326 C325 1.228 . S
O327 Zn316 2.024 . S
O327 C318 1.058 . S
C328 O329 1.228 . S
C328 O330 1.267 . S
O329 C328 1.228 . S
O330 Zn317 1.969 . S
O330 C328 1.267 . S
O331 Zn317 1.965 . S
O331 C335 1.260 1_655 S
O332 Zn316 1.969 . S
O332 C335 1.258 . S
O333 Zn317 2.024 . S
O333 C320 1.058 . S
C334 O323 1.260 1_655 S
C334 O324 1.258 . S
C335 O331 1.260 1_455 S
C335 O332 1.258 . S
H336 C344 0.929 . S
H337 C346 0.930 . S
H338 C348 0.930 . S
H339 C351 0.929 . S
H340 C354 0.930 . S
H341 C356 0.960 . S
H342 C356 0.960 . S
H343 C356 0.960 . S
C344 H336 0.929 . S
C344 C345 1.377 . S
C344 C346 1.384 . S
C345 C344 1.377 . S
C345 C351 1.390 . S
C346 H337 0.930 . S
C346 C344 1.384 . S
C346 C347 1.372 . S
C347 C346 1.372 . S
C347 C348 1.400 . S
C347 C352 1.490 . S
C348 H338 0.930 . S
C348 C347 1.400 . S
C348 C351 1.386 . S
H349 C365 0.930 . S
H350 C366 0.931 . S
C351 H339 0.929 . S
C351 C345 1.390 . S
C351 C348 1.386 . S
C352 C347 1.490 . S
C352 C354 1.395 . S
C352 C355 1.403 . S
H353 C359 0.930 . S
C354 H340 0.930 . S
C354 C352 1.395 . S
C354 C357 1.403 . S
C355 C352 1.403 . S
C355 C356 1.524 . S
C355 C359 1.400 . S
C356 H341 0.960 . S
C356 H342 0.960 . S
C356 H343 0.960 . S
C356 C355 1.524 . S
C357 C354 1.403 . S
C357 C358 1.392 . S
C357 C361 1.495 . S
C358 C357 1.392 . S
C358 C359 1.385 . S
C358 C360 1.478 . S
C359 H353 0.930 . S
C359 C355 1.400 . S
C359 C358 1.385 . S
C360 C358 1.478 . S
C360 C362 1.381 . S
C360 C366 1.383 . S
C361 C357 1.495 . S
C361 H367 0.959 . S
C361 H368 0.961 . S
C361 H369 0.960 . S
C362 C360 1.381 . S
C362 C363 1.394 . S
C362 H370 0.930 . S
C363 C362 1.394 . S
C363 C364 1.383 . S
C363 H371 0.929 1_545 S
C364 C363 1.383 . S
C364 C365 1.377 . S
C365 H349 0.930 . S
C365 C364 1.377 . S
C365 C366 1.379 . S
C366 H350 0.931 . S
C366 C360 1.383 . S
C366 C365 1.379 . S
H367 C361 0.959 . S
H368 C361 0.961 . S
H369 C361 0.960 . S
H370 C362 0.930 . S
H371 C363 0.929 1_565 S
H372 C380 0.929 . S
H373 C382 0.930 . S
H374 C384 0.930 . S
H375 C387 0.929 . S
H376 C390 0.930 . S
H377 C392 0.960 . S
H378 C392 0.960 . S
H379 C392 0.960 . S
C380 H372 0.929 . S
C380 C381 1.377 . S
C380 C382 1.384 . S
C381 C380 1.377 . S
C381 C387 1.390 . S
C382 H373 0.930 . S
C382 C380 1.384 . S
C382 C383 1.372 . S
C383 C382 1.372 . S
C383 C384 1.400 . S
C383 C388 1.490 . S
C384 H374 0.930 . S
C384 C383 1.400 . S
C384 C387 1.386 . S
H385 C401 0.930 . S
H386 C402 0.931 . S
C387 H375 0.929 . S
C387 C381 1.390 . S
C387 C384 1.386 . S
C388 C383 1.490 . S
C388 C390 1.395 . S
C388 C391 1.403 . S
H389 C395 0.930 . S
C390 H376 0.930 . S
C390 C388 1.395 . S
C390 C393 1.403 . S
C391 C388 1.403 . S
C391 C392 1.524 . S
C391 C395 1.400 . S
C392 H377 0.960 . S
C392 H378 0.960 . S
C392 H379 0.960 . S
C392 C391 1.524 . S
C393 C390 1.403 . S
C393 C394 1.392 . S
C393 C397 1.495 . S
C394 C393 1.392 . S
C394 C395 1.385 . S
C394 C396 1.478 . S
C395 H389 0.930 . S
C395 C391 1.400 . S
C395 C394 1.385 . S
C396 C394 1.478 . S
C396 C398 1.381 . S
C396 C402 1.383 . S
C397 C393 1.495 . S
C397 H403 0.959 . S
C397 H404 0.961 . S
C397 H405 0.960 . S
C398 C396 1.381 . S
C398 C399 1.394 . S
C398 H406 0.930 . S
C399 C398 1.394 . S
C399 C400 1.383 . S
C399 H407 0.929 . S
C400 C399 1.383 . S
C400 C401 1.377 . S
C401 H385 0.930 . S
C401 C400 1.377 . S
C401 C402 1.379 . S
C402 H386 0.931 . S
C402 C396 1.383 . S
C402 C401 1.379 . S
H403 C397 0.959 . S
H404 C397 0.961 . S
H405 C397 0.960 . S
H406 C398 0.930 . S
H407 C399 0.929 . S
H408 C416 0.929 . S
H409 C418 0.930 . S
H410 C420 0.930 . S
H411 C423 0.929 . S
H412 C426 0.930 . S
H413 C428 0.960 . S
H414 C428 0.960 . S
H415 C428 0.960 . S
C416 H408 0.929 . S
C416 C417 1.377 . S
C416 C418 1.384 . S
C417 C416 1.377 . S
C417 C423 1.390 . S
C418 H409 0.930 . S
C418 C416 1.384 . S
C418 C419 1.372 . S
C419 C418 1.372 . S
C419 C420 1.400 . S
C419 C424 1.490 . S
C420 H410 0.930 . S
C420 C419 1.400 . S
C420 C423 1.386 . S
H421 C437 0.930 . S
H422 C438 0.931 . S
C423 H411 0.929 . S
C423 C417 1.390 . S
C423 C420 1.386 . S
C424 C419 1.490 . S
C424 C426 1.395 . S
C424 C427 1.403 . S
H425 C431 0.930 . S
C426 H412 0.930 . S
C426 C424 1.395 . S
C426 C429 1.403 . S
C427 C424 1.403 . S
C427 C428 1.524 . S
C427 C431 1.400 . S
C428 H413 0.960 . S
C428 H414 0.960 . S
C428 H415 0.960 . S
C428 C427 1.524 . S
C429 C426 1.403 . S
C429 C430 1.392 . S
C429 C433 1.495 . S
C430 C429 1.392 . S
C430 C431 1.385 . S
C430 C432 1.478 . S
C431 H425 0.930 . S
C431 C427 1.400 . S
C431 C430 1.385 . S
C432 C430 1.478 . S
C432 C434 1.381 . S
C432 C438 1.383 . S
C433 C429 1.495 . S
C433 H439 0.959 . S
C433 H440 0.961 . S
C433 H441 0.960 . S
C434 C432 1.381 . S
C434 C435 1.394 . S
C434 H442 0.930 . S
C435 C434 1.394 . S
C435 C436 1.383 . S
C435 H443 0.929 . S
C436 C435 1.383 . S
C436 C437 1.377 . S
C437 H421 0.930 . S
C437 C436 1.377 . S
C437 C438 1.379 . S
C438 H422 0.931 . S
C438 C432 1.383 . S
C438 C437 1.379 . S
H439 C433 0.959 . S
H440 C433 0.961 . S
H441 C433 0.960 . S
H442 C434 0.930 . S
H443 C435 0.929 . S
H444 C452 0.929 . S
H445 C454 0.930 . S
H446 C456 0.930 . S
H447 C459 0.929 . S
H448 C462 0.930 . S
H449 C464 0.960 . S
H450 C464 0.960 . S
H451 C464 0.960 . S
C452 H444 0.929 . S
C452 C453 1.374 1_455 S
C452 C454 1.384 . S
C453 C452 1.374 1_655 S
C453 C459 1.394 . S
C454 H445 0.930 . S
C454 C452 1.384 . S
C454 C455 1.356 1_455 S
C455 C454 1.356 1_655 S
C455 C456 1.416 . S
C455 C460 1.490 . S
C456 H446 0.930 . S
C456 C455 1.416 . S
C456 C459 1.386 . S
H457 C473 0.930 . S
H458 C474 0.931 . S
C459 H447 0.929 . S
C459 C453 1.394 . S
C459 C456 1.386 . S
C460 C455 1.490 . S
C460 C462 1.377 1_655 S
C460 C463 1.420 . S
H461 C467 0.930 . S
C462 H448 0.930 . S
C462 C460 1.377 1_455 S
C462 C465 1.403 . S
C463 C460 1.420 . S
C463 C464 1.524 . S
C463 C467 1.400 . S
C464 H449 0.960 . S
C464 H450 0.960 . S
C464 H451 0.960 . S
C464 C463 1.524 . S
C465 C462 1.403 . S
C465 C466 1.392 . S
C465 C469 1.495 . S
C466 C465 1.392 . S
C466 C467 1.385 1_455 S
C466 C468 1.478 . S
C467 H461 0.930 . S
C467 C463 1.400 . S
C467 C466 1.385 1_655 S
C468 C466 1.478 . S
C468 C470 1.381 . S
C468 C474 1.383 1_455 S
C469 C465 1.495 . S
C469 H475 0.959 . S
C469 H476 0.961 . S
C469 H477 0.960 . S
C470 C468 1.381 . S
C470 C471 1.394 . S
C470 H478 0.930 . S
C471 C470 1.394 . S
C471 C472 1.383 1_455 S
C471 H479 0.929 . S
C472 C471 1.383 1_655 S
C472 C473 1.377 . S
C473 H457 0.930 . S
C473 C472 1.377 . S
C473 C474 1.379 . S
C474 H458 0.931 . S
C474 C468 1.383 1_655 S
C474 C473 1.379 . S
H475 C469 0.959 . S
H476 C469 0.961 . S
H477 C469 0.960 . S
H478 C470 0.930 . S
H479 C471 0.929 . S
H480 C488 0.929 . S
H481 C490 0.930 . S
H482 C492 0.930 . S
H483 C495 0.929 . S
H484 C498 0.930 . S
H485 C500 0.960 1_545 S
H486 C500 0.960 . S
H487 C500 0.960 . S
C488 H480 0.929 . S
C488 C489 1.377 . S
C488 C490 1.384 . S
C489 C488 1.377 . S
C489 C495 1.390 . S
C490 H481 0.930 . S
C490 C488 1.384 . S
C490 C491 1.372 . S
C491 C490 1.372 . S
C491 C492 1.400 . S
C491 C496 1.490 . S
C492 H482 0.930 . S
C492 C491 1.400 . S
C492 C495 1.386 . S
H493 C509 0.934 . S
H494 C510 0.931 . S
C495 H483 0.929 . S
C495 C489 1.390 . S
C495 C492 1.386 . S
C496 C491 1.490 . S
C496 C498 1.395 . S
C496 C499 1.403 . S
H497 C503 0.930 . S
C498 H484 0.930 . S
C498 C496 1.395 . S
C498 C501 1.403 . S
C499 C496 1.403 . S
C499 C500 1.524 . S
C499 C503 1.400 . S
C500 H485 0.960 1_565 S
C500 H486 0.960 . S
C500 H487 0.960 . S
C500 C499 1.524 . S
C501 C498 1.403 . S
C501 C502 1.392 . S
C501 C505 1.495 . S
C502 C501 1.392 . S
C502 C503 1.385 . S
C502 C504 1.478 . S
C503 H497 0.930 . S
C503 C499 1.400 . S
C503 C502 1.385 . S
C504 C502 1.478 . S
C504 C506 1.381 . S
C504 C510 1.383 . S
C505 C501 1.495 . S
C505 H511 0.959 . S
C505 H512 0.961 . S
C505 H513 0.960 . S
C506 C504 1.381 . S
C506 C507 1.394 . S
C506 H514 0.930 . S
C507 C506 1.394 . S
C507 C508 1.383 . S
C507 H515 0.929 . S
C508 C507 1.383 . S
C508 C509 1.374 1_565 S
C509 H493 0.934 . S
C509 C508 1.374 1_545 S
C509 C510 1.377 1_545 S
C510 H494 0.931 . S
C510 C504 1.383 . S
C510 C509 1.377 1_565 S
H511 C505 0.959 . S
H512 C505 0.961 . S
H513 C505 0.960 . S
H514 C506 0.930 . S
H515 C507 0.929 . S
H516 C524 0.929 . S
H517 C526 0.930 . S
H518 C528 0.930 . S
H519 C531 0.929 . S
H520 C534 0.930 . S
H521 C536 0.960 . S
H522 C536 0.960 . S
H523 C536 0.960 . S
C524 H516 0.929 . S
C524 C525 1.377 . S
C524 C526 1.384 . S
C525 C524 1.377 . S
C525 C531 1.390 . S
C526 H517 0.930 . S
C526 C524 1.384 . S
C526 C527 1.372 . S
C527 C526 1.372 . S
C527 C528 1.400 . S
C527 C532 1.490 . S
C528 H518 0.930 . S
C528 C527 1.400 . S
C528 C531 1.386 . S
H529 C545 0.930 . S
H530 C546 0.931 . S
C531 H519 0.929 . S
C531 C525 1.390 . S
C531 C528 1.386 . S
C532 C527 1.490 . S
C532 C534 1.395 . S
C532 C535 1.403 . S
H533 C539 0.930 . S
C534 H520 0.930 . S
C534 C532 1.395 . S
C534 C537 1.403 . S
C535 C532 1.403 . S
C535 C536 1.524 . S
C535 C539 1.400 . S
C536 H521 0.960 . S
C536 H522 0.960 . S
C536 H523 0.960 . S
C536 C535 1.524 . S
C537 C534 1.403 . S
C537 C538 1.392 . S
C537 C541 1.495 . S
C538 C537 1.392 . S
C538 C539 1.385 . S
C538 C540 1.478 . S
C539 H533 0.930 . S
C539 C535 1.400 . S
C539 C538 1.385 . S
C540 C538 1.478 . S
C540 C542 1.381 . S
C540 C546 1.383 . S
C541 C537 1.495 . S
C541 H547 0.959 . S
C541 H548 0.961 . S
C541 H549 0.960 . S
C542 C540 1.381 . S
C542 C543 1.394 . S
C542 H550 0.930 . S
C543 C542 1.394 . S
C543 C544 1.383 . S
C543 H551 0.929 . S
C544 C543 1.383 . S
C544 C545 1.377 . S
C545 H529 0.930 . S
C545 C544 1.377 . S
C545 C546 1.379 . S
C546 H530 0.931 . S
C546 C540 1.383 . S
C546 C545 1.379 . S
H547 C541 0.959 . S
H548 C541 0.961 . S
H549 C541 0.960 . S
H550 C542 0.930 . S
H551 C543 0.929 . S
H552 C560 0.929 1_554 S
H553 C562 0.930 . S
H554 C564 0.930 . S
H555 C567 0.929 . S
H556 C570 0.930 . S
H557 C572 0.960 . S
H558 C572 0.960 . S
H559 C572 0.960 . S
C560 H552 0.929 1_556 S
C560 C561 1.377 . S
C560 C562 1.384 . S
C561 C560 1.377 . S
C561 C567 1.390 . S
C562 H553 0.930 . S
C562 C560 1.384 . S
C562 C563 1.372 . S
C563 C562 1.372 . S
C563 C564 1.400 . S
C563 C568 1.490 . S
C564 H554 0.930 . S
C564 C563 1.400 . S
C564 C567 1.386 . S
H565 C581 0.930 . S
H566 C582 0.931 . S
C567 H555 0.929 . S
C567 C561 1.390 . S
C567 C564 1.386 . S
C568 C563 1.490 . S
C568 C570 1.395 . S
C568 C571 1.403 . S
H569 C575 0.930 . S
C570 H556 0.930 . S
C570 C568 1.395 . S
C570 C573 1.403 . S
C571 C568 1.403 . S
C571 C572 1.524 . S
C571 C575 1.400 . S
C572 H557 0.960 . S
C572 H558 0.960 . S
C572 H559 0.960 . S
C572 C571 1.524 . S
C573 C570 1.403 . S
C573 C574 1.392 . S
C573 C577 1.495 . S
C574 C573 1.392 . S
C574 C575 1.385 . S
C574 C576 1.478 . S
C575 H569 0.930 . S
C575 C571 1.400 . S
C575 C574 1.385 . S
C576 C574 1.478 . S
C576 C578 1.381 . S
C576 C582 1.383 . S
C577 C573 1.495 . S
C577 H583 0.959 . S
C577 H584 0.961 . S
C577 H585 0.960 . S
C578 C576 1.381 . S
C578 C579 1.394 . S
C578 H586 0.930 . S
C579 C578 1.394 . S
C579 C580 1.383 . S
C579 H587 0.929 . S
C580 C579 1.383 . S
C580 C581 1.377 . S
C581 H565 0.930 . S
C581 C580 1.377 . S
C581 C582 1.379 . S
C582 H566 0.931 . S
C582 C576 1.383 . S
C582 C581 1.379 . S
H583 C577 0.959 . S
H584 C577 0.961 . S
H585 C577 0.960 . S
H586 C578 0.930 . S
H587 C579 0.929 . S
H588 C596 0.939 . S
H589 C598 0.930 . S
H590 C600 0.930 . S
H591 C603 0.929 . S
H592 C606 0.930 . S
H593 C608 0.960 . S
H594 C608 0.960 . S
H595 C608 0.960 1_655 S
C596 H588 0.939 . S
C596 C597 1.393 . S
C596 C598 1.384 . S
C597 C596 1.393 . S
C597 C603 1.375 1_455 S
C598 H589 0.930 . S
C598 C596 1.384 . S
C598 C599 1.372 . S
C599 C598 1.372 . S
C599 C600 1.400 1_455 S
C599 C604 1.490 . S
C600 H590 0.930 . S
C600 C599 1.400 1_655 S
C600 C603 1.386 . S
H601 C617 0.930 . S
H602 C618 0.931 . S
C603 H591 0.929 . S
C603 C597 1.375 1_655 S
C603 C600 1.386 . S
C604 C599 1.490 . S
C604 C606 1.395 . S
C604 C607 1.403 . S
H605 C611 0.930 . S
C606 H592 0.930 . S
C606 C604 1.395 . S
C606 C609 1.403 . S
C607 C604 1.403 . S
C607 C608 1.524 . S
C607 C611 1.400 . S
C608 H593 0.960 . S
C608 H594 0.960 . S
C608 H595 0.960 1_455 S
C608 C607 1.524 . S
C609 C606 1.403 . S
C609 C610 1.392 . S
C609 C613 1.495 . S
C610 C609 1.392 . S
C610 C611 1.385 . S
C610 C612 1.478 . S
C611 H605 0.930 . S
C611 C607 1.400 . S
C611 C610 1.385 . S
C612 C610 1.478 . S
C612 C614 1.381 . S
C612 C618 1.383 1_455 S
C613 C609 1.495 . S
C613 H619 0.961 . S
C613 H620 0.961 1_455 S
C613 H621 0.960 . S
C614 C612 1.381 . S
C614 C615 1.394 . S
C614 H622 0.930 . S
C615 C614 1.394 . S
C615 C616 1.383 . S
C615 H623 0.929 . S
C616 C615 1.383 . S
C616 C617 1.377 1_455 S
C617 H601 0.930 . S
C617 C616 1.377 1_655 S
C617 C618 1.379 . S
C618 H602 0.931 . S
C618 C612 1.383 1_655 S
C618 C617 1.379 . S
H619 C613 0.961 . S
H620 C613 0.961 1_655 S
H621 C613 0.960 . S
H622 C614 0.930 . S
H623 C615 0.929 . S
H624 C632 0.929 . S
H625 C634 0.930 . S
H626 C636 0.930 . S
H627 C639 0.929 . S
H628 C642 0.930 . S
H629 C644 0.960 . S
H630 C644 0.960 . S
H631 C644 0.960 . S
C632 H624 0.929 . S
C632 C633 1.397 . S
C632 C634 1.384 . S
C633 C632 1.397 . S
C633 C639 1.368 1_455 S
C634 H625 0.930 . S
C634 C632 1.384 . S
C634 C635 1.372 1_455 S
C635 C634 1.372 1_655 S
C635 C636 1.400 . S
C635 C640 1.490 . S
C636 H626 0.930 . S
C636 C635 1.400 . S
C636 C639 1.386 . S
H637 C653 0.930 . S
H638 C654 0.931 . S
C639 H627 0.929 . S
C639 C633 1.368 1_655 S
C639 C636 1.386 . S
C640 C635 1.490 . S
C640 C642 1.395 . S
C640 C643 1.403 1_655 S
H641 C647 0.930 . S
C642 H628 0.930 . S
C642 C640 1.395 . S
C642 C645 1.403 . S
C643 C640 1.403 1_455 S
C643 C644 1.524 . S
C643 C647 1.400 . S
C644 H629 0.960 . S
C644 H630 0.960 . S
C644 H631 0.960 . S
C644 C643 1.524 . S
C645 C642 1.403 . S
C645 C646 1.392 . S
C645 C649 1.495 . S
C646 C645 1.392 . S
C646 C647 1.385 1_655 S
C646 C648 1.478 . S
C647 H641 0.930 . S
C647 C643 1.400 . S
C647 C646 1.385 1_455 S
C648 C646 1.478 . S
C648 C650 1.381 . S
C648 C654 1.383 . S
C649 C645 1.495 . S
C649 H655 0.959 . S
C649 H656 0.961 . S
C649 H657 0.960 . S
C650 C648 1.381 . S
C650 C651 1.394 . S
C650 H658 0.930 1_655 S
C651 C650 1.394 . S
C651 C652 1.383 . S
C651 H659 0.929 1_655 S
C652 C651 1.383 . S
C652 C653 1.377 . S
C653 H637 0.930 . S
C653 C652 1.377 . S
C653 C654 1.379 . S
C654 H638 0.931 . S
C654 C648 1.383 . S
C654 C653 1.379 . S
H655 C649 0.959 . S
H656 C649 0.961 . S
H657 C649 0.960 . S
H658 C650 0.930 1_455 S
H659 C651 0.929 1_455 S
H660 C668 0.929 . S
H661 C670 0.930 . S
H662 C672 0.930 . S
H663 C675 0.929 . S
H664 C678 0.930 . S
H665 C680 0.960 . S
H666 C680 0.960 . S
H667 C680 0.960 . S
C668 H660 0.929 . S
C668 C669 1.377 . S
C668 C670 1.384 . S
C669 C668 1.377 . S
C669 C675 1.390 . S
C670 H661 0.930 . S
C670 C668 1.384 . S
C670 C671 1.372 . S
C671 C670 1.372 . S
C671 C672 1.400 . S
C671 C676 1.490 . S
C672 H662 0.930 . S
C672 C671 1.400 . S
C672 C675 1.386 . S
H673 C689 0.930 . S
H674 C690 0.931 . S
C675 H663 0.929 . S
C675 C669 1.390 . S
C675 C672 1.386 . S
C676 C671 1.490 . S
C676 C678 1.395 . S
C676 C679 1.403 . S
H677 C683 0.930 . S
C678 H664 0.930 . S
C678 C676 1.395 . S
C678 C681 1.403 . S
C679 C676 1.403 . S
C679 C680 1.524 . S
C679 C683 1.400 . S
C680 H665 0.960 . S
C680 H666 0.960 . S
C680 H667 0.960 . S
C680 C679 1.524 . S
C681 C678 1.403 . S
C681 C682 1.392 . S
C681 C685 1.495 . S
C682 C681 1.392 . S
C682 C683 1.385 . S
C682 C684 1.478 . S
C683 H677 0.930 . S
C683 C679 1.400 . S
C683 C682 1.385 . S
C684 C682 1.478 . S
C684 C686 1.381 . S
C684 C690 1.383 . S
C685 C681 1.495 . S
C685 H691 0.959 . S
C685 H692 0.961 . S
C685 H693 0.960 . S
C686 C684 1.381 . S
C686 C687 1.394 . S
C686 H694 0.930 . S
C687 C686 1.394 . S
C687 C688 1.383 . S
C687 H695 0.929 . S
C688 C687 1.383 . S
C688 C689 1.377 . S
C689 H673 0.930 . S
C689 C688 1.377 . S
C689 C690 1.379 . S
C690 H674 0.931 . S
C690 C684 1.383 . S
C690 C689 1.379 . S
H691 C685 0.959 . S
H692 C685 0.961 . S
H693 C685 0.960 . S
H694 C686 0.930 . S
H695 C687 0.929 . S
H696 C704 0.929 . S
H697 C706 0.930 . S
H698 C708 0.930 . S
H699 C711 0.929 . S
H700 C714 0.930 . S
H701 C716 0.960 . S
H702 C716 0.960 . S
H703 C716 0.960 . S
C704 H696 0.929 . S
C704 C705 1.377 . S
C704 C706 1.384 . S
C705 C704 1.377 . S
C705 C711 1.390 . S
C706 H697 0.930 . S
C706 C704 1.384 . S
C706 C707 1.372 . S
C707 C706 1.372 . S
C707 C708 1.400 . S
C707 C712 1.490 . S
C708 H698 0.930 . S
C708 C707 1.400 . S
C708 C711 1.386 . S
H709 C725 0.930 . S
H710 C726 0.931 . S
C711 H699 0.929 . S
C711 C705 1.390 . S
C711 C708 1.386 . S
C712 C707 1.490 . S
C712 C714 1.395 . S
C712 C715 1.403 . S
H713 C719 0.930 . S
C714 H700 0.930 . S
C714 C712 1.395 . S
C714 C717 1.403 . S
C715 C712 1.403 . S
C715 C716 1.524 . S
C715 C719 1.400 . S
C716 H701 0.960 . S
C716 H702 0.960 . S
C716 H703 0.960 . S
C716 C715 1.524 . S
C717 C714 1.403 . S
C717 C718 1.392 . S
C717 C721 1.495 . S
C718 C717 1.392 . S
C718 C719 1.385 . S
C718 C720 1.478 . S
C719 H713 0.930 . S
C719 C715 1.400 . S
C719 C718 1.385 . S
C720 C718 1.478 . S
C720 C722 1.381 . S
C720 C726 1.383 . S
C721 C717 1.495 . S
C721 H727 0.959 . S
C721 H728 0.961 . S
C721 H729 0.960 . S
C722 C720 1.381 . S
C722 C723 1.394 . S
C722 H730 0.930 . S
C723 C722 1.394 . S
C723 C724 1.383 . S
C723 H731 0.929 . S
C724 C723 1.383 . S
C724 C725 1.377 . S
C725 H709 0.930 . S
C725 C724 1.377 . S
C725 C726 1.379 . S
C726 H710 0.931 . S
C726 C720 1.383 . S
C726 C725 1.379 . S
H727 C721 0.959 . S
H728 C721 0.961 . S
H729 C721 0.960 . S
H730 C722 0.930 . S
H731 C723 0.929 . S
H732 C740 0.929 . S
H733 C742 0.930 . S
H734 C744 0.930 . S
H735 C747 0.929 . S
H736 C750 0.930 . S
H737 C752 0.960 . S
H738 C752 0.960 . S
H739 C752 0.960 . S
C740 H732 0.929 . S
C740 C741 1.377 . S
C740 C742 1.384 . S
C741 C740 1.377 . S
C741 C747 1.390 . S
C742 H733 0.930 . S
C742 C740 1.384 . S
C742 C743 1.372 . S
C743 C742 1.372 . S
C743 C744 1.400 . S
C743 C748 1.490 . S
C744 H734 0.930 . S
C744 C743 1.400 . S
C744 C747 1.386 . S
H745 C761 0.930 . S
H746 C762 0.931 . S
C747 H735 0.929 . S
C747 C741 1.390 . S
C747 C744 1.386 . S
C748 C743 1.490 . S
C748 C750 1.395 . S
C748 C751 1.403 . S
H749 C755 0.930 . S
C750 H736 0.930 . S
C750 C748 1.395 . S
C750 C753 1.403 . S
C751 C748 1.403 . S
C751 C752 1.524 . S
C751 C755 1.400 . S
C752 H737 0.960 . S
C752 H738 0.960 . S
C752 H739 0.960 . S
C752 C751 1.524 . S
C753 C750 1.403 . S
C753 C754 1.392 . S
C753 C757 1.495 . S
C754 C753 1.392 . S
C754 C755 1.385 . S
C754 C756 1.478 . S
C755 H749 0.930 . S
C755 C751 1.400 . S
C755 C754 1.385 . S
C756 C754 1.478 . S
C756 C758 1.381 . S
C756 C762 1.383 . S
C757 C753 1.495 . S
C757 H763 0.959 . S
C757 H764 0.961 . S
C757 H765 0.960 . S
C758 C756 1.381 . S
C758 C759 1.394 . S
C758 H766 0.930 . S
C759 C758 1.394 . S
C759 C760 1.383 . S
C759 H767 0.929 . S
C760 C759 1.383 . S
C760 C761 1.377 . S
C761 H745 0.930 . S
C761 C760 1.377 . S
C761 C762 1.379 . S
C762 H746 0.931 . S
C762 C756 1.383 . S
C762 C761 1.379 . S
H763 C757 0.959 . S
H764 C757 0.961 . S
H765 C757 0.960 . S
H766 C758 0.930 . S
H767 C759 0.929 . S
H768 C776 0.929 . S
H769 C778 0.930 . S
H770 C780 0.930 . S
H771 C783 0.929 . S
H772 C786 0.930 . S
H773 C788 0.960 . S
H774 C788 0.960 . S
H775 C788 0.960 . S
C776 H768 0.929 . S
C776 C777 1.356 1_455 S
C776 C778 1.384 . S
C777 C776 1.356 1_655 S
C777 C783 1.409 . S
C778 H769 0.930 . S
C778 C776 1.384 . S
C778 C779 1.372 . S
C779 C778 1.372 . S
C779 C780 1.400 1_455 S
C779 C784 1.490 . S
C780 H770 0.930 . S
C780 C779 1.400 1_655 S
C780 C783 1.386 . S
H781 C797 0.930 . S
H782 C798 0.931 . S
C783 H771 0.929 . S
C783 C777 1.409 . S
C783 C780 1.386 . S
C784 C779 1.490 . S
C784 C786 1.395 . S
C784 C787 1.403 1_455 S
H785 C791 0.930 . S
C786 H772 0.930 . S
C786 C784 1.395 . S
C786 C789 1.403 . S
C787 C784 1.403 1_655 S
C787 C788 1.524 . S
C787 C791 1.400 . S
C788 H773 0.960 . S
C788 H774 0.960 . S
C788 H775 0.960 . S
C788 C787 1.524 . S
C789 C786 1.403 . S
C789 C790 1.392 . S
C789 C793 1.495 . S
C790 C789 1.392 . S
C790 C791 1.385 1_455 S
C790 C792 1.478 . S
C791 H785 0.930 . S
C791 C787 1.400 . S
C791 C790 1.385 1_655 S
C792 C790 1.478 . S
C792 C794 1.381 . S
C792 C798 1.383 1_455 S
C793 C789 1.495 . S
C793 H799 0.959 . S
C793 H800 0.961 . S
C793 H801 0.960 . S
C794 C792 1.381 . S
C794 C795 1.394 . S
C794 H802 0.930 . S
C795 C794 1.394 . S
C795 C796 1.383 . S
C795 H803 0.929 . S
C796 C795 1.383 . S
C796 C797 1.377 1_455 S
C797 H781 0.930 . S
C797 C796 1.377 1_655 S
C797 C798 1.379 . S
C798 H782 0.931 . S
C798 C792 1.383 1_655 S
C798 C797 1.379 . S
H799 C793 0.959 . S
H800 C793 0.961 . S
H801 C793 0.960 . S
H802 C794 0.930 . S
H803 C795 0.929 . S
H804 C812 0.929 . S
H805 C814 0.930 . S
H806 C816 0.930 . S
H807 C819 0.929 . S
H808 C822 0.930 . S
H809 C824 0.960 . S
H810 C824 0.960 . S
H811 C824 0.960 . S
C812 H804 0.929 . S
C812 C813 1.377 . S
C812 C814 1.384 . S
C813 C812 1.377 . S
C813 C819 1.390 . S
C814 H805 0.930 . S
C814 C812 1.384 . S
C814 C815 1.372 . S
C815 C814 1.372 . S
C815 C816 1.400 . S
C815 C820 1.490 . S
C816 H806 0.930 . S
C816 C815 1.400 . S
C816 C819 1.386 . S
H817 C833 0.930 . S
H818 C834 0.929 . S
C819 H807 0.929 . S
C819 C813 1.390 . S
C819 C816 1.386 . S
C820 C815 1.490 . S
C820 C822 1.395 . S
C820 C823 1.403 . S
H821 C827 0.930 . S
C822 H808 0.930 . S
C822 C820 1.395 . S
C822 C825 1.403 . S
C823 C820 1.403 . S
C823 C824 1.524 . S
C823 C827 1.400 . S
C824 H809 0.960 . S
C824 H810 0.960 . S
C824 H811 0.960 . S
C824 C823 1.524 . S
C825 C822 1.403 . S
C825 C826 1.392 . S
C825 C829 1.495 . S
C826 C825 1.392 . S
C826 C827 1.385 . S
C826 C828 1.478 . S
C827 H821 0.930 . S
C827 C823 1.400 . S
C827 C826 1.385 . S
C828 C826 1.478 . S
C828 C830 1.381 . S
C828 C834 1.386 1_565 S
C829 C825 1.495 . S
C829 H835 0.959 . S
C829 H836 0.961 . S
C829 H837 0.960 . S
C830 C828 1.381 . S
C830 C831 1.394 . S
C830 H838 0.930 . S
C831 C830 1.394 . S
C831 C832 1.383 . S
C831 H839 0.929 . S
C832 C831 1.383 . S
C832 C833 1.377 1_565 S
C833 H817 0.930 . S
C833 C832 1.377 1_545 S
C833 C834 1.378 . S
C834 H818 0.929 . S
C834 C828 1.386 1_545 S
C834 C833 1.378 . S
H835 C829 0.959 . S
H836 C829 0.961 . S
H837 C829 0.960 . S
H838 C830 0.930 . S
H839 C831 0.929 . S
H840 C848 0.929 . S
H841 C850 0.930 . S
H842 C852 0.930 . S
H843 C855 0.929 . S
H844 C858 0.930 . S
H845 C860 0.960 . S
H846 C860 0.960 . S
H847 C860 0.960 . S
C848 H840 0.929 . S
C848 C849 1.377 . S
C848 C850 1.384 . S
C849 C848 1.377 . S
C849 C855 1.390 . S
C850 H841 0.930 . S
C850 C848 1.384 . S
C850 C851 1.372 . S
C851 C850 1.372 . S
C851 C852 1.400 . S
C851 C856 1.490 . S
C852 H842 0.930 . S
C852 C851 1.400 . S
C852 C855 1.386 . S
H853 C869 0.930 . S
H854 C870 0.931 . S
C855 H843 0.929 . S
C855 C849 1.390 . S
C855 C852 1.386 . S
C856 C851 1.490 . S
C856 C858 1.395 . S
C856 C859 1.403 . S
H857 C863 0.930 . S
C858 H844 0.930 . S
C858 C856 1.395 . S
C858 C861 1.403 . S
C859 C856 1.403 . S
C859 C860 1.524 . S
C859 C863 1.400 . S
C860 H845 0.960 . S
C860 H846 0.960 . S
C860 H847 0.960 . S
C860 C859 1.524 . S
C861 C858 1.403 . S
C861 C862 1.392 . S
C861 C865 1.495 . S
C862 C861 1.392 . S
C862 C863 1.385 . S
C862 C864 1.478 . S
C863 H857 0.930 . S
C863 C859 1.400 . S
C863 C862 1.385 . S
C864 C862 1.478 . S
C864 C866 1.381 . S
C864 C870 1.383 . S
C865 C861 1.495 . S
C865 H871 0.959 . S
C865 H872 0.961 . S
C865 H873 0.960 . S
C866 C864 1.381 . S
C866 C867 1.394 . S
C866 H874 0.930 . S
C867 C866 1.394 . S
C867 C868 1.383 . S
C867 H875 0.929 . S
C868 C867 1.383 . S
C868 C869 1.377 . S
C869 H853 0.930 . S
C869 C868 1.377 . S
C869 C870 1.379 . S
C870 H854 0.931 . S
C870 C864 1.383 . S
C870 C869 1.379 . S
H871 C865 0.959 . S
H872 C865 0.961 . S
H873 C865 0.960 . S
H874 C866 0.930 . S
H875 C867 0.929 . S
H876 C884 0.929 . S
H877 C886 0.930 . S
H878 C888 0.930 . S
H879 C891 0.929 . S
H880 C894 0.930 . S
H881 C896 0.960 . S
H882 C896 0.960 . S
H883 C896 0.960 . S
C884 H876 0.929 . S
C884 C885 1.377 . S
C884 C886 1.384 . S
C885 C884 1.377 . S
C885 C891 1.390 . S
C886 H877 0.930 . S
C886 C884 1.384 . S
C886 C887 1.372 . S
C887 C886 1.372 . S
C887 C888 1.400 . S
C887 C892 1.490 . S
C888 H878 0.930 . S
C888 C887 1.400 . S
C888 C891 1.386 . S
H889 C905 0.930 . S
H890 C906 0.931 . S
C891 H879 0.929 . S
C891 C885 1.390 . S
C891 C888 1.386 . S
C892 C887 1.490 . S
C892 C894 1.395 . S
C892 C895 1.403 . S
H893 C899 0.930 . S
C894 H880 0.930 . S
C894 C892 1.395 . S
C894 C897 1.403 . S
C895 C892 1.403 . S
C895 C896 1.524 . S
C895 C899 1.400 . S
C896 H881 0.960 . S
C896 H882 0.960 . S
C896 H883 0.960 . S
C896 C895 1.524 . S
C897 C894 1.403 . S
C897 C898 1.392 . S
C897 C901 1.495 . S
C898 C897 1.392 . S
C898 C899 1.385 . S
C898 C900 1.478 . S
C899 H893 0.930 . S
C899 C895 1.400 . S
C899 C898 1.385 . S
C900 C898 1.478 . S
C900 C902 1.381 . S
C900 C906 1.383 . S
C901 C897 1.495 . S
C901 H907 0.959 . S
C901 H908 0.961 . S
C901 H909 0.960 . S
C902 C900 1.381 . S
C902 C903 1.394 . S
C902 H910 0.930 . S
C903 C902 1.394 . S
C903 C904 1.383 . S
C903 H911 0.929 . S
C904 C903 1.383 . S
C904 C905 1.377 . S
C905 H889 0.930 . S
C905 C904 1.377 . S
C905 C906 1.379 . S
C906 H890 0.931 . S
C906 C900 1.383 . S
C906 C905 1.379 . S
H907 C901 0.959 . S
H908 C901 0.961 . S
H909 C901 0.960 . S
H910 C902 0.930 . S
H911 C903 0.929 . S
H912 C920 0.929 . S
H913 C922 0.930 . S
H914 C924 0.930 . S
H915 C927 0.929 1_554 S
H916 C930 0.930 . S
H917 C932 0.960 . S
H918 C932 0.960 . S
H919 C932 0.960 . S
C920 H912 0.929 . S
C920 C921 1.374 1_655 S
C920 C922 1.384 . S
C921 C920 1.374 1_455 S
C921 C927 1.394 . S
C922 H913 0.930 . S
C922 C920 1.384 . S
C922 C923 1.372 1_655 S
C923 C922 1.372 1_455 S
C923 C924 1.400 . S
C923 C928 1.490 . S
C924 H914 0.930 . S
C924 C923 1.400 . S
C924 C927 1.386 . S
H925 C941 0.930 . S
H926 C942 0.931 . S
C927 H915 0.929 1_556 S
C927 C921 1.394 . S
C927 C924 1.386 . S
C928 C923 1.490 . S
C928 C930 1.395 . S
C928 C931 1.403 1_455 S
H929 C935 0.930 . S
C930 H916 0.930 . S
C930 C928 1.395 . S
C930 C933 1.403 . S
C931 C928 1.403 1_655 S
C931 C932 1.524 . S
C931 C935 1.400 . S
C932 H917 0.960 . S
C932 H918 0.960 . S
C932 H919 0.960 . S
C932 C931 1.524 . S
C933 C930 1.403 . S
C933 C934 1.392 . S
C933 C937 1.495 . S
C934 C933 1.392 . S
C934 C935 1.385 1_455 S
C934 C936 1.478 . S
C935 H929 0.930 . S
C935 C931 1.400 . S
C935 C934 1.385 1_655 S
C936 C934 1.478 . S
C936 C938 1.381 . S
C936 C942 1.383 . S
C937 C933 1.495 . S
C937 H943 0.959 . S
C937 H944 0.961 . S
C937 H945 0.960 . S
C938 C936 1.381 . S
C938 C939 1.395 . S
C938 H946 0.930 1_455 S
C939 C938 1.395 . S
C939 C940 1.395 . S
C939 H947 0.918 1_455 S
C940 C939 1.395 . S
C940 C941 1.377 . S
C941 H925 0.930 . S
C941 C940 1.377 . S
C941 C942 1.379 . S
C942 H926 0.931 . S
C942 C936 1.383 . S
C942 C941 1.379 . S
H943 C937 0.959 . S
H944 C937 0.961 . S
H945 C937 0.960 . S
H946 C938 0.930 1_655 S
H947 C939 0.918 1_655 S
H948 C956 0.929 . S
H949 C958 0.930 . S
H950 C960 0.930 . S
H951 C963 0.929 . S
H952 C966 0.930 . S
H953 C968 0.960 . S
H954 C968 0.960 . S
H955 C968 0.960 . S
C956 H948 0.929 . S
C956 C957 1.377 . S
C956 C958 1.384 . S
C957 C956 1.377 . S
C957 C963 1.390 . S
C958 H949 0.930 . S
C958 C956 1.384 . S
C958 C959 1.372 . S
C959 C958 1.372 . S
C959 C960 1.400 . S
C959 C964 1.490 . S
C960 H950 0.930 . S
C960 C959 1.400 . S
C960 C963 1.386 . S
H961 C977 0.930 . S
H962 C978 0.931 . S
C963 H951 0.929 . S
C963 C957 1.390 . S
C963 C960 1.386 . S
C964 C959 1.490 . S
C964 C966 1.395 . S
C964 C967 1.403 . S
H965 C971 0.930 . S
C966 H952 0.930 . S
C966 C964 1.395 . S
C966 C969 1.403 . S
C967 C964 1.403 . S
C967 C968 1.524 . S
C967 C971 1.400 . S
C968 H953 0.960 . S
C968 H954 0.960 . S
C968 H955 0.960 . S
C968 C967 1.524 . S
C969 C966 1.403 . S
C969 C970 1.392 . S
C969 C973 1.495 . S
C970 C969 1.392 . S
C970 C971 1.385 . S
C970 C972 1.478 . S
C971 H965 0.930 . S
C971 C967 1.400 . S
C971 C970 1.385 . S
C972 C970 1.478 . S
C972 C974 1.381 . S
C972 C978 1.383 . S
C973 C969 1.495 . S
C973 H979 0.959 . S
C973 H980 0.961 . S
C973 H981 0.960 . S
C974 C972 1.381 . S
C974 C975 1.394 . S
C974 H982 0.930 . S
C975 C974 1.394 . S
C975 C976 1.383 . S
C975 H983 0.929 . S
C976 C975 1.383 . S
C976 C977 1.377 . S
C977 H961 0.930 . S
C977 C976 1.377 . S
C977 C978 1.379 . S
C978 H962 0.931 . S
C978 C972 1.383 . S
C978 C977 1.379 . S
H979 C973 0.959 . S
H980 C973 0.961 . S
H981 C973 0.960 . S
H982 C974 0.930 . S
H983 C975 0.929 . S
H984 C992 0.929 . S
H985 C994 0.930 . S
H986 C996 0.930 . S
H987 C999 0.929 . S
H988 C1002 0.930 . S
H989 C1004 0.960 . S
H990 C1004 0.960 . S
H991 C1004 0.960 . S
C992 H984 0.929 . S
C992 C993 1.377 . S
C992 C994 1.384 . S
C993 C992 1.377 . S
C993 C999 1.390 . S
C994 H985 0.930 . S
C994 C992 1.384 . S
C994 C995 1.372 . S
C995 C994 1.372 . S
C995 C996 1.400 . S
C995 C1000 1.490 . S
C996 H986 0.930 . S
C996 C995 1.400 . S
C996 C999 1.386 . S
H997 C1013 0.930 . S
H998 C1014 0.931 . S
C999 H987 0.929 . S
C999 C993 1.390 . S
C999 C996 1.386 . S
C1000 C995 1.490 . S
C1000 C1002 1.395 . S
C1000 C1003 1.403 . S
H1001 C1007 0.930 . S
C1002 H988 0.930 . S
C1002 C1000 1.395 . S
C1002 C1005 1.403 . S
C1003 C1000 1.403 . S
C1003 C1004 1.524 . S
C1003 C1007 1.400 . S
C1004 H989 0.960 . S
C1004 H990 0.960 . S
C1004 H991 0.960 . S
C1004 C1003 1.524 . S
C1005 C1002 1.403 . S
C1005 C1006 1.392 . S
C1005 C1009 1.495 . S
C1006 C1005 1.392 . S
C1006 C1007 1.385 . S
C1006 C1008 1.478 . S
C1007 H1001 0.930 . S
C1007 C1003 1.400 . S
C1007 C1006 1.385 . S
C1008 C1006 1.478 . S
C1008 C1010 1.381 . S
C1008 C1014 1.383 . S
C1009 C1005 1.495 . S
C1009 H1015 0.959 . S
C1009 H1016 0.961 . S
C1009 H1017 0.960 . S
C1010 C1008 1.381 . S
C1010 C1011 1.394 . S
C1010 H1018 0.930 . S
C1011 C1010 1.394 . S
C1011 C1012 1.383 . S
C1011 H1019 0.929 . S
C1012 C1011 1.383 . S
C1012 C1013 1.377 . S
C1013 H997 0.930 . S
C1013 C1012 1.377 . S
C1013 C1014 1.379 . S
C1014 H998 0.931 . S
C1014 C1008 1.383 . S
C1014 C1013 1.379 . S
H1015 C1009 0.959 . S
H1016 C1009 0.961 . S
H1017 C1009 0.960 . S
H1018 C1010 0.930 . S
H1019 C1011 0.929 . S
H1020 C1028 0.929 1_554 S
H1021 C1030 0.930 . S
H1022 C1032 0.930 . S
H1023 C1035 0.929 . S
H1024 C1038 0.930 . S
H1025 C1040 0.960 . S
H1026 C1040 0.960 . S
H1027 C1040 0.960 . S
C1028 H1020 0.929 1_556 S
C1028 C1029 1.377 . S
C1028 C1030 1.384 . S
C1029 C1028 1.377 . S
C1029 C1035 1.390 . S
C1030 H1021 0.930 . S
C1030 C1028 1.384 . S
C1030 C1031 1.372 . S
C1031 C1030 1.372 . S
C1031 C1032 1.400 . S
C1031 C1036 1.490 . S
C1032 H1022 0.930 . S
C1032 C1031 1.400 . S
C1032 C1035 1.386 . S
H1033 C1049 0.930 . S
H1034 C1050 0.931 . S
C1035 H1023 0.929 . S
C1035 C1029 1.390 . S
C1035 C1032 1.386 . S
C1036 C1031 1.490 . S
C1036 C1038 1.395 . S
C1036 C1039 1.403 . S
H1037 C1043 0.930 . S
C1038 H1024 0.930 . S
C1038 C1036 1.395 . S
C1038 C1041 1.403 . S
C1039 C1036 1.403 . S
C1039 C1040 1.524 . S
C1039 C1043 1.400 . S
C1040 H1025 0.960 . S
C1040 H1026 0.960 . S
C1040 H1027 0.960 . S
C1040 C1039 1.524 . S
C1041 C1038 1.403 . S
C1041 C1042 1.392 . S
C1041 C1045 1.495 . S
C1042 C1041 1.392 . S
C1042 C1043 1.385 . S
C1042 C1044 1.478 . S
C1043 H1037 0.930 . S
C1043 C1039 1.400 . S
C1043 C1042 1.385 . S
C1044 C1042 1.478 . S
C1044 C1046 1.381 . S
C1044 C1050 1.383 . S
C1045 C1041 1.495 . S
C1045 H1051 0.959 . S
C1045 H1052 0.961 . S
C1045 H1053 0.960 . S
C1046 C1044 1.381 . S
C1046 C1047 1.394 . S
C1046 H1054 0.930 . S
C1047 C1046 1.394 . S
C1047 C1048 1.383 . S
C1047 H1055 0.929 . S
C1048 C1047 1.383 . S
C1048 C1049 1.377 . S
C1049 H1033 0.930 . S
C1049 C1048 1.377 . S
C1049 C1050 1.379 . S
C1050 H1034 0.931 . S
C1050 C1044 1.383 . S
C1050 C1049 1.379 . S
H1051 C1045 0.959 . S
H1052 C1045 0.961 . S
H1053 C1045 0.960 . S
H1054 C1046 0.930 . S
H1055 C1047 0.929 . S
H1056 C1064 0.929 . S
H1057 C1066 0.930 . S
H1058 C1068 0.930 . S
H1059 C1071 0.929 . S
H1060 C1074 0.930 . S
H1061 C1076 0.960 . S
H1062 C1076 0.960 . S
H1063 C1076 0.960 . S
C1064 H1056 0.929 . S
C1064 C1065 1.391 . S
C1064 C1066 1.384 . S
C1065 C1064 1.391 . S
C1065 C1071 1.381 1_655 S
C1066 H1057 0.930 . S
C1066 C1064 1.384 . S
C1066 C1067 1.372 . S
C1067 C1066 1.372 . S
C1067 C1068 1.400 1_655 S
C1067 C1072 1.490 . S
C1068 H1058 0.930 . S
C1068 C1067 1.400 1_455 S
C1068 C1071 1.386 . S
H1069 C1085 0.930 . S
H1070 C1086 0.931 . S
C1071 H1059 0.929 . S
C1071 C1065 1.381 1_455 S
C1071 C1068 1.386 . S
C1072 C1067 1.490 . S
C1072 C1074 1.395 1_655 S
C1072 C1075 1.403 . S
H1073 C1079 0.930 . S
C1074 H1060 0.930 . S
C1074 C1072 1.395 1_455 S
C1074 C1077 1.403 . S
C1075 C1072 1.403 . S
C1075 C1076 1.524 . S
C1075 C1079 1.400 . S
C1076 H1061 0.960 . S
C1076 H1062 0.960 . S
C1076 H1063 0.960 . S
C1076 C1075 1.524 . S
C1077 C1074 1.403 . S
C1077 C1078 1.392 1_455 S
C1077 C1081 1.495 . S
C1078 C1077 1.392 1_655 S
C1078 C1079 1.385 . S
C1078 C1080 1.478 . S
C1079 H1073 0.930 . S
C1079 C1075 1.400 . S
C1079 C1078 1.385 . S
C1080 C1078 1.478 . S
C1080 C1082 1.381 . S
C1080 C1086 1.383 1_655 S
C1081 C1077 1.495 . S
C1081 H1087 0.959 . S
C1081 H1088 0.961 . S
C1081 H1089 0.960 . S
C1082 C1080 1.381 . S
C1082 C1083 1.394 . S
C1082 H1090 0.930 . S
C1083 C1082 1.394 . S
C1083 C1084 1.383 . S
C1083 H1091 0.929 . S
C1084 C1083 1.383 . S
C1084 C1085 1.377 1_655 S
C1085 H1069 0.930 . S
C1085 C1084 1.377 1_455 S
C1085 C1086 1.379 . S
C1086 H1070 0.931 . S
C1086 C1080 1.383 1_455 S
C1086 C1085 1.379 . S
H1087 C1081 0.959 . S
H1088 C1081 0.961 . S
H1089 C1081 0.960 . S
H1090 C1082 0.930 . S
H1091 C1083 0.929 . S
H1092 C1100 0.929 . S
H1093 C1102 0.930 . S
H1094 C1104 0.930 . S
H1095 C1107 0.929 . S
H1096 C1110 0.930 . S
H1097 C1112 0.960 . S
H1098 C1112 0.960 . S
H1099 C1112 0.960 . S
C1100 H1092 0.929 . S
C1100 C1101 1.377 . S
C1100 C1102 1.384 . S
C1101 C1100 1.377 . S
C1101 C1107 1.390 . S
C1102 H1093 0.930 . S
C1102 C1100 1.384 . S
C1102 C1103 1.372 . S
C1103 C1102 1.372 . S
C1103 C1104 1.400 . S
C1103 C1108 1.490 . S
C1104 H1094 0.930 . S
C1104 C1103 1.400 . S
C1104 C1107 1.386 . S
H1105 C1121 0.930 . S
H1106 C1122 0.931 . S
C1107 H1095 0.929 . S
C1107 C1101 1.390 . S
C1107 C1104 1.386 . S
C1108 C1103 1.490 . S
C1108 C1110 1.395 . S
C1108 C1111 1.403 . S
H1109 C1115 0.930 . S
C1110 H1096 0.930 . S
C1110 C1108 1.395 . S
C1110 C1113 1.403 . S
C1111 C1108 1.403 . S
C1111 C1112 1.524 . S
C1111 C1115 1.400 . S
C1112 H1097 0.960 . S
C1112 H1098 0.960 . S
C1112 H1099 0.960 . S
C1112 C1111 1.524 . S
C1113 C1110 1.403 . S
C1113 C1114 1.392 . S
C1113 C1117 1.495 . S
C1114 C1113 1.392 . S
C1114 C1115 1.385 . S
C1114 C1116 1.478 . S
C1115 H1109 0.930 . S
C1115 C1111 1.400 . S
C1115 C1114 1.385 . S
C1116 C1114 1.478 . S
C1116 C1118 1.381 . S
C1116 C1122 1.383 . S
C1117 C1113 1.495 . S
C1117 H1123 0.959 . S
C1117 H1124 0.961 . S
C1117 H1125 0.960 . S
C1118 C1116 1.381 . S
C1118 C1119 1.394 . S
C1118 H1126 0.930 . S
C1119 C1118 1.394 . S
C1119 C1120 1.383 . S
C1119 H1127 0.929 . S
C1120 C1119 1.383 . S
C1120 C1121 1.377 . S
C1121 H1105 0.930 . S
C1121 C1120 1.377 . S
C1121 C1122 1.379 . S
C1122 H1106 0.931 . S
C1122 C1116 1.383 . S
C1122 C1121 1.379 . S
H1123 C1117 0.959 . S
H1124 C1117 0.961 . S
H1125 C1117 0.960 . S
H1126 C1118 0.930 . S
H1127 C1119 0.929 . S
H1128 C1136 0.929 . S
H1129 C1138 0.930 . S
H1130 C1140 0.930 . S
H1131 C1143 0.929 . S
H1132 C1146 0.930 . S
H1133 C1148 0.960 . S
H1134 C1148 0.960 . S
H1135 C1148 0.960 . S
C1136 H1128 0.929 . S
C1136 C1137 1.377 . S
C1136 C1138 1.384 . S
C1137 C1136 1.377 . S
C1137 C1143 1.390 . S
C1138 H1129 0.930 . S
C1138 C1136 1.384 . S
C1138 C1139 1.372 . S
C1139 C1138 1.372 . S
C1139 C1140 1.400 . S
C1139 C1144 1.490 . S
C1140 H1130 0.930 . S
C1140 C1139 1.400 . S
C1140 C1143 1.386 . S
H1141 C1157 0.930 . S
H1142 C1158 0.931 . S
C1143 H1131 0.929 . S
C1143 C1137 1.390 . S
C1143 C1140 1.386 . S
C1144 C1139 1.490 . S
C1144 C1146 1.395 . S
C1144 C1147 1.403 . S
H1145 C1151 0.930 . S
C1146 H1132 0.930 . S
C1146 C1144 1.395 . S
C1146 C1149 1.403 . S
C1147 C1144 1.403 . S
C1147 C1148 1.524 . S
C1147 C1151 1.400 . S
C1148 H1133 0.960 . S
C1148 H1134 0.960 . S
C1148 H1135 0.960 . S
C1148 C1147 1.524 . S
C1149 C1146 1.403 . S
C1149 C1150 1.392 . S
C1149 C1153 1.495 . S
C1150 C1149 1.392 . S
C1150 C1151 1.385 . S
C1150 C1152 1.478 . S
C1151 H1145 0.930 . S
C1151 C1147 1.400 . S
C1151 C1150 1.385 . S
C1152 C1150 1.478 . S
C1152 C1154 1.381 . S
C1152 C1158 1.383 . S
C1153 C1149 1.495 . S
C1153 H1159 0.959 . S
C1153 H1160 0.961 . S
C1153 H1161 0.960 . S
C1154 C1152 1.381 . S
C1154 C1155 1.394 . S
C1154 H1162 0.930 . S
C1155 C1154 1.394 . S
C1155 C1156 1.383 . S
C1155 H1163 0.929 . S
C1156 C1155 1.383 . S
C1156 C1157 1.377 . S
C1157 H1141 0.930 . S
C1157 C1156 1.377 . S
C1157 C1158 1.379 . S
C1158 H1142 0.931 . S
C1158 C1152 1.383 . S
C1158 C1157 1.379 . S
H1159 C1153 0.959 . S
H1160 C1153 0.961 . S
H1161 C1153 0.960 . S
H1162 C1154 0.930 . S
H1163 C1155 0.929 . S
H1164 C1172 0.929 . S
H1165 C1174 0.930 . S
H1166 C1176 0.930 . S
H1167 C1179 0.929 . S
H1168 C1182 0.930 . S
H1169 C1184 0.960 . S
H1170 C1184 0.960 . S
H1171 C1184 0.960 . S
C1172 H1164 0.929 . S
C1172 C1173 1.377 . S
C1172 C1174 1.384 . S
C1173 C1172 1.377 . S
C1173 C1179 1.390 . S
C1174 H1165 0.930 . S
C1174 C1172 1.384 . S
C1174 C1175 1.372 . S
C1175 C1174 1.372 . S
C1175 C1176 1.400 . S
C1175 C1180 1.490 . S
C1176 H1166 0.930 . S
C1176 C1175 1.400 . S
C1176 C1179 1.386 . S
H1177 C1193 0.930 . S
H1178 C1194 0.931 . S
C1179 H1167 0.929 . S
C1179 C1173 1.390 . S
C1179 C1176 1.386 . S
C1180 C1175 1.490 . S
C1180 C1182 1.395 . S
C1180 C1183 1.403 . S
H1181 C1187 0.930 . S
C1182 H1168 0.930 . S
C1182 C1180 1.395 . S
C1182 C1185 1.403 . S
C1183 C1180 1.403 . S
C1183 C1184 1.524 . S
C1183 C1187 1.400 . S
C1184 H1169 0.960 . S
C1184 H1170 0.960 . S
C1184 H1171 0.960 . S
C1184 C1183 1.524 . S
C1185 C1182 1.403 . S
C1185 C1186 1.392 . S
C1185 C1189 1.495 . S
C1186 C1185 1.392 . S
C1186 C1187 1.385 . S
C1186 C1188 1.478 . S
C1187 H1181 0.930 . S
C1187 C1183 1.400 . S
C1187 C1186 1.385 . S
C1188 C1186 1.478 . S
C1188 C1190 1.381 . S
C1188 C1194 1.383 . S
C1189 C1185 1.495 . S
C1189 H1195 0.959 . S
C1189 H1196 0.961 . S
C1189 H1197 0.960 . S
C1190 C1188 1.381 . S
C1190 C1191 1.394 . S
C1190 H1198 0.930 . S
C1191 C1190 1.394 . S
C1191 C1192 1.383 . S
C1191 H1199 0.929 . S
C1192 C1191 1.383 . S
C1192 C1193 1.377 . S
C1193 H1177 0.930 . S
C1193 C1192 1.377 . S
C1193 C1194 1.379 . S
C1194 H1178 0.931 . S
C1194 C1188 1.383 . S
C1194 C1193 1.379 . S
H1195 C1189 0.959 . S
H1196 C1189 0.961 . S
H1197 C1189 0.960 . S
H1198 C1190 0.930 . S
H1199 C1191 0.929 . S
C345 C215 1.668 . S
C364 C274 1.656 . S
C400 C294 1.365 . S
C381 C247 1.363 . S
C436 C314 1.633 . S
C417 C151 1.637 . S
C472 C334 1.361 . S
C453 C183 1.359 1_655 S
C508 C275 1.656 1_565 S
C489 C87 1.566 . S
C525 C119 1.404 . S
C544 C295 1.343 . S
C561 C23 1.527 . S
C580 C315 1.611 . S
C597 C55 1.355 . S
C616 C335 1.331 . S
C652 C265 0.508 . S
C633 C189 0.441 . S
C688 C285 0.534 . S
C669 C221 0.531 . S
C724 C305 0.446 . S
C705 C253 0.507 . S
C741 C157 0.468 . S
C760 C325 0.601 . S
C777 C61 0.431 1_655 S
C796 C268 0.501 . S
C832 C288 0.658 . S
C813 C93 0.646 . S
C868 C308 0.451 . S
C849 C125 0.479 . S
C885 C29 0.614 . S
C904 C328 0.523 . S
C921 C177 1.761 . S
C940 C258 1.714 . S
C957 C209 1.849 . S
C976 C278 1.801 . S
C1012 C298 1.600 . S
C993 C241 1.640 . S
C1048 C318 1.869 . S
C1029 C145 1.949 1_556 S
C1065 C49 1.759 1_655 S
C1084 C260 1.687 . S
C1120 C280 1.738 . S
C1101 C81 1.769 . S
C1156 C300 1.658 . S
C1137 C113 1.701 . S
C1173 C17 1.869 . S
C1192 C320 1.904 . S
