# Generated by pormake.
# Topology eea, (3,6)-cn, num edge types: 1
# Building blocks:
#     Node 0, Type 0, BuildingBlock: BELTOD_clean_linker_0, # of connection points: 3
#     Node 1, Type 0, BuildingBlock: BELTOD_clean_linker_0, # of connection points: 3
#     Node 2, Type 0, BuildingBlock: BELTOD_clean_linker_0, # of connection points: 3
#     Node 3, Type 0, BuildingBlock: BELTOD_clean_linker_0, # of connection points: 3
#     Node 4, Type 0, BuildingBlock: BELTOD_clean_linker_0, # of connection points: 3
#     Node 5, Type 0, BuildingBlock: BELTOD_clean_linker_0, # of connection points: 3
#     Node 6, Type 0, BuildingBlock: BELTOD_clean_linker_0, # of connection points: 3
#     Node 7, Type 0, BuildingBlock: BELTOD_clean_linker_0, # of connection points: 3
#     Node 8, Type 0, BuildingBlock: BELTOD_clean_linker_0, # of connection points: 3
#     Node 9, Type 0, BuildingBlock: BELTOD_clean_linker_0, # of connection points: 3
#     Node 10, Type 0, BuildingBlock: BELTOD_clean_linker_0, # of connection points: 3
#     Node 11, Type 0, BuildingBlock: BELTOD_clean_linker_0, # of connection points: 3
#     Node 12, Type 0, BuildingBlock: BELTOD_clean_linker_0, # of connection points: 3
#     Node 13, Type 0, BuildingBlock: BELTOD_clean_linker_0, # of connection points: 3
#     Node 14, Type 0, BuildingBlock: BELTOD_clean_linker_0, # of connection points: 3
#     Node 15, Type 0, BuildingBlock: BELTOD_clean_linker_0, # of connection points: 3
#     Node 16, Type 0, BuildingBlock: BELTOD_clean_linker_0, # of connection points: 3
#     Node 17, Type 0, BuildingBlock: BELTOD_clean_linker_0, # of connection points: 3
#     Node 18, Type 1, BuildingBlock: CUWYAW_clean_sbu_0, # of connection points: 6
#     Node 19, Type 1, BuildingBlock: CUWYAW_clean_sbu_0, # of connection points: 6
#     Node 20, Type 1, BuildingBlock: CUWYAW_clean_sbu_0, # of connection points: 6
#     Node 21, Type 1, BuildingBlock: CUWYAW_clean_sbu_0, # of connection points: 6
#     Node 22, Type 1, BuildingBlock: CUWYAW_clean_sbu_0, # of connection points: 6
#     Node 23, Type 1, BuildingBlock: CUWYAW_clean_sbu_0, # of connection points: 6
#     Node 24, Type 1, BuildingBlock: CUWYAW_clean_sbu_0, # of connection points: 6
#     Node 25, Type 1, BuildingBlock: CUWYAW_clean_sbu_0, # of connection points: 6
#     Node 26, Type 1, BuildingBlock: CUWYAW_clean_sbu_0, # of connection points: 6
#     Edge 27, Type (0, 1), BuildingBlock: AJUNOK_clean_linker_0, # of connection points: 2
#     Edge 28, Type (0, 1), BuildingBlock: AJUNOK_clean_linker_0, # of connection points: 2
#     Edge 29, Type (0, 1), BuildingBlock: AJUNOK_clean_linker_0, # of connection points: 2
#     Edge 30, Type (0, 1), BuildingBlock: AJUNOK_clean_linker_0, # of connection points: 2
#     Edge 31, Type (0, 1), BuildingBlock: AJUNOK_clean_linker_0, # of connection points: 2
#     Edge 32, Type (0, 1), BuildingBlock: AJUNOK_clean_linker_0, # of connection points: 2
#     Edge 33, Type (0, 1), BuildingBlock: AJUNOK_clean_linker_0, # of connection points: 2
#     Edge 34, Type (0, 1), BuildingBlock: AJUNOK_clean_linker_0, # of connection points: 2
#     Edge 35, Type (0, 1), BuildingBlock: AJUNOK_clean_linker_0, # of connection points: 2
#     Edge 36, Type (0, 1), BuildingBlock: AJUNOK_clean_linker_0, # of connection points: 2
#     Edge 37, Type (0, 1), BuildingBlock: AJUNOK_clean_linker_0, # of connection points: 2
#     Edge 38, Type (0, 1), BuildingBlock: AJUNOK_clean_linker_0, # of connection points: 2
#     Edge 39, Type (0, 1), BuildingBlock: AJUNOK_clean_linker_0, # of connection points: 2
#     Edge 40, Type (0, 1), BuildingBlock: AJUNOK_clean_linker_0, # of connection points: 2
#     Edge 41, Type (0, 1), BuildingBlock: AJUNOK_clean_linker_0, # of connection points: 2
#     Edge 42, Type (0, 1), BuildingBlock: AJUNOK_clean_linker_0, # of connection points: 2
#     Edge 43, Type (0, 1), BuildingBlock: AJUNOK_clean_linker_0, # of connection points: 2
#     Edge 44, Type (0, 1), BuildingBlock: AJUNOK_clean_linker_0, # of connection points: 2
#     Edge 45, Type (0, 1), BuildingBlock: AJUNOK_clean_linker_0, # of connection points: 2
#     Edge 46, Type (0, 1), BuildingBlock: AJUNOK_clean_linker_0, # of connection points: 2
#     Edge 47, Type (0, 1), BuildingBlock: AJUNOK_clean_linker_0, # of connection points: 2
#     Edge 48, Type (0, 1), BuildingBlock: AJUNOK_clean_linker_0, # of connection points: 2
#     Edge 49, Type (0, 1), BuildingBlock: AJUNOK_clean_linker_0, # of connection points: 2
#     Edge 50, Type (0, 1), BuildingBlock: AJUNOK_clean_linker_0, # of connection points: 2
#     Edge 51, Type (0, 1), BuildingBlock: AJUNOK_clean_linker_0, # of connection points: 2
#     Edge 52, Type (0, 1), BuildingBlock: AJUNOK_clean_linker_0, # of connection points: 2
#     Edge 53, Type (0, 1), BuildingBlock: AJUNOK_clean_linker_0, # of connection points: 2
#     Edge 54, Type (0, 1), BuildingBlock: AJUNOK_clean_linker_0, # of connection points: 2
#     Edge 55, Type (0, 1), BuildingBlock: AJUNOK_clean_linker_0, # of connection points: 2
#     Edge 56, Type (0, 1), BuildingBlock: AJUNOK_clean_linker_0, # of connection points: 2
#     Edge 57, Type (0, 1), BuildingBlock: AJUNOK_clean_linker_0, # of connection points: 2
#     Edge 58, Type (0, 1), BuildingBlock: AJUNOK_clean_linker_0, # of connection points: 2
#     Edge 59, Type (0, 1), BuildingBlock: AJUNOK_clean_linker_0, # of connection points: 2
#     Edge 60, Type (0, 1), BuildingBlock: AJUNOK_clean_linker_0, # of connection points: 2
#     Edge 61, Type (0, 1), BuildingBlock: AJUNOK_clean_linker_0, # of connection points: 2
#     Edge 62, Type (0, 1), BuildingBlock: AJUNOK_clean_linker_0, # of connection points: 2
#     Edge 63, Type (0, 1), BuildingBlock: AJUNOK_clean_linker_0, # of connection points: 2
#     Edge 64, Type (0, 1), BuildingBlock: AJUNOK_clean_linker_0, # of connection points: 2
#     Edge 65, Type (0, 1), BuildingBlock: AJUNOK_clean_linker_0, # of connection points: 2
#     Edge 66, Type (0, 1), BuildingBlock: AJUNOK_clean_linker_0, # of connection points: 2
#     Edge 67, Type (0, 1), BuildingBlock: AJUNOK_clean_linker_0, # of connection points: 2
#     Edge 68, Type (0, 1), BuildingBlock: AJUNOK_clean_linker_0, # of connection points: 2
#     Edge 69, Type (0, 1), BuildingBlock: AJUNOK_clean_linker_0, # of connection points: 2
#     Edge 70, Type (0, 1), BuildingBlock: AJUNOK_clean_linker_0, # of connection points: 2
#     Edge 71, Type (0, 1), BuildingBlock: AJUNOK_clean_linker_0, # of connection points: 2
#     Edge 72, Type (0, 1), BuildingBlock: AJUNOK_clean_linker_0, # of connection points: 2
#     Edge 73, Type (0, 1), BuildingBlock: AJUNOK_clean_linker_0, # of connection points: 2
#     Edge 74, Type (0, 1), BuildingBlock: AJUNOK_clean_linker_0, # of connection points: 2
#     Edge 75, Type (0, 1), BuildingBlock: AJUNOK_clean_linker_0, # of connection points: 2
#     Edge 76, Type (0, 1), BuildingBlock: AJUNOK_clean_linker_0, # of connection points: 2
#     Edge 77, Type (0, 1), BuildingBlock: AJUNOK_clean_linker_0, # of connection points: 2
#     Edge 78, Type (0, 1), BuildingBlock: AJUNOK_clean_linker_0, # of connection points: 2
#     Edge 79, Type (0, 1), BuildingBlock: AJUNOK_clean_linker_0, # of connection points: 2
#     Edge 80, Type (0, 1), BuildingBlock: AJUNOK_clean_linker_0, # of connection points: 2
# Relax obj value: 0.032
# Max RMSD: 0.127
# Mean RMSD: 0.095
data_MOF--net-eea--node1-CUWYAW_clean_sbu_0--node2-BELTOD_clean_linker_0--edge1-AJUNOK_clean_linker_0
_symmetry_space_group_name_H-M    P1
_symmetry_Int_Tables_number       1
_symmetry_cell_setting            triclinic
loop_
_symmetry_equiv_pos_as_xyz
'x, y, z'
_cell_length_a     44.755741
_cell_length_b     44.180716
_cell_length_c     68.429335
_cell_angle_alpha  93.948325
_cell_angle_beta   93.334223
_cell_angle_gamma 119.95548
loop_
_atom_site_label
_atom_site_type_symbol
_atom_site_fract_x
_atom_site_fract_y
_atom_site_fract_z
_atom_type_partial_charge
P0 P 0.27339 0.15152 0.40342 0.0
H1 H 0.29373 0.11617 0.37387 0.0
H2 H 0.26606 0.05544 0.35869 0.0
H3 H 0.18071 0.02701 0.39387 0.0
H4 H 0.20831 0.08825 0.40878 0.0
H5 H 0.27098 0.21242 0.42086 0.0
H6 H 0.24339 0.24445 0.40874 0.0
H7 H 0.19482 0.16731 0.35764 0.0
H8 H 0.2219 0.13513 0.36992 0.0
H9 H 0.33245 0.16131 0.42898 0.0
H10 H 0.22953 0.14272 0.43541 0.0
O11 O 0.31181 0.17489 0.39492 0.0
H12 H 0.34242 0.16124 0.46444 0.0
H13 H 0.23957 0.14303 0.47114 0.0
C14 C 0.25313 0.10662 0.39253 0.0
C15 C 0.26908 0.09695 0.37834 0.0
C16 C 0.25328 0.06222 0.36969 0.0
C17 C 0.22116 0.03656 0.37503 0.0
C18 C 0.20519 0.04635 0.38925 0.0
C19 C 0.22106 0.0812 0.3979 0.0
C20 C 0.24797 0.17103 0.39651 0.0
C21 C 0.25366 0.2019 0.40732 0.0
C22 C 0.23817 0.22034 0.4003 0.0
C23 C 0.21723 0.20847 0.38217 0.0
C24 C 0.2106 0.17686 0.37174 0.0
C25 C 0.22608 0.15845 0.37877 0.0
C26 C 0.28058 0.15287 0.42967 0.0
C27 C 0.31219 0.15777 0.43808 0.0
C28 C 0.31793 0.15789 0.45836 0.0
C29 C 0.29204 0.1529 0.47058 0.0
C30 C 0.26005 0.14725 0.46205 0.0
C31 C 0.25436 0.1472 0.44171 0.0
P32 P 0.91393 0.10457 0.42708 0.0
H33 H 0.9126 0.0611 0.39295 0.0
H34 H 0.86582 0.00991 0.37248 0.0
H35 H 0.79054 0.01844 0.40556 0.0
H36 H 0.83754 0.07086 0.42548 0.0
H37 H 0.96915 0.17466 0.44272 0.0
H38 H 0.0116 0.22391 0.42677 0.0
H39 H 0.95699 0.16981 0.36987 0.0
H40 H 0.9138 0.12119 0.38589 0.0
H41 H 0.89271 0.06322 0.45986 0.0
H42 H 0.90041 0.15952 0.44411 0.0
O43 O 0.94165 0.09081 0.43265 0.0
H44 H 0.87223 0.07067 0.49118 0.0
H45 H 0.87991 0.16719 0.47561 0.0
C46 C 0.87861 0.0695 0.41087 0.0
C47 C 0.88602 0.05218 0.39568 0.0
C48 C 0.85927 0.02271 0.38414 0.0
C49 C 0.82457 0.00953 0.38782 0.0
C50 C 0.81706 0.02784 0.40251 0.0
C51 C 0.84393 0.05772 0.41394 0.0
C52 C 0.93822 0.14419 0.41557 0.0
C53 C 0.96557 0.17388 0.42686 0.0
C54 C 0.99002 0.20185 0.41772 0.0
C55 C 0.98798 0.20028 0.39705 0.0
C56 C 0.95922 0.17167 0.38581 0.0
C57 C 0.93457 0.14376 0.395 0.0
C58 C 0.89885 0.11123 0.44991 0.0
C59 C 0.89019 0.08611 0.46322 0.0
C60 C 0.87832 0.09027 0.48104 0.0
C61 C 0.87489 0.11971 0.4859 0.0
C62 C 0.88297 0.14461 0.47237 0.0
C63 C 0.89463 0.14024 0.4544 0.0
P64 P 0.86392 0.7186 0.41676 0.0
H65 H 0.81514 0.69371 0.38115 0.0
H66 H 0.7802 0.71559 0.36566 0.0
H67 H 0.82327 0.80338 0.41124 0.0
H68 H 0.85772 0.78077 0.427 0.0
H69 H 0.9171 0.69879 0.41759 0.0
H70 H 0.97223 0.72187 0.40315 0.0
H71 H 0.95986 0.80589 0.38317 0.0
H72 H 0.90502 0.78303 0.39769 0.0
H73 H 0.8094 0.70872 0.44113 0.0
H74 H 0.91584 0.73381 0.45046 0.0
O75 O 0.84462 0.67571 0.40915 0.0
H76 H 0.80429 0.70455 0.47629 0.0
H77 H 0.91077 0.72959 0.48578 0.0
C78 C 0.83861 0.73535 0.40537 0.0
C79 C 0.81703 0.7176 0.38787 0.0
C80 C 0.79731 0.73033 0.37891 0.0
C81 C 0.79926 0.7614 0.38713 0.0
C82 C 0.82114 0.7793 0.40463 0.0
C83 C 0.84082 0.76645 0.41362 0.0
C84 C 0.90677 0.73899 0.40866 0.0
C85 C 0.92648 0.72247 0.41034 0.0
C86 C 0.95792 0.73561 0.40208 0.0
C87 C 0.96998 0.76531 0.39177 0.0
C88 C 0.95081 0.78256 0.39071 0.0
C89 C 0.91952 0.76959 0.39914 0.0
C90 C 0.86317 0.72217 0.44314 0.0
C91 C 0.83197 0.7142 0.4508 0.0
C92 C 0.82902 0.71175 0.47091 0.0
C93 C 0.85705 0.71655 0.48376 0.0
C94 C 0.88862 0.72539 0.47617 0.0
C95 C 0.89161 0.72805 0.45599 0.0
P96 P 0.13428 0.27815 0.59933 0.0
H97 H 0.11334 0.2605 0.63823 0.0
H98 H 0.05817 0.239 0.65217 0.0
H99 H 0.00789 0.23242 0.59494 0.0
H100 H 0.06314 0.25288 0.58089 0.0
H101 H 0.20655 0.29979 0.59703 0.0
H102 H 0.24238 0.27496 0.60731 0.0
H103 H 0.15236 0.18594 0.62525 0.0
H104 H 0.1164 0.21046 0.61457 0.0
H105 H 0.14047 0.3337 0.57621 0.0
H106 H 0.12419 0.22904 0.56492 0.0
O107 O 0.15651 0.31904 0.61076 0.0
H108 H 0.14613 0.3414 0.54139 0.0
H109 H 0.12887 0.23621 0.52976 0.0
C110 C 0.09231 0.25783 0.60848 0.0
C111 C 0.09033 0.25383 0.62859 0.0
C112 C 0.05886 0.24197 0.6366 0.0
C113 C 0.02879 0.23463 0.62473 0.0
C114 C 0.03062 0.23784 0.60445 0.0
C115 C 0.06219 0.24952 0.5964 0.0
C116 C 0.159 0.25738 0.60541 0.0
C117 C 0.19445 0.27475 0.603 0.0
C118 C 0.21484 0.26048 0.60875 0.0
C119 C 0.20008 0.22858 0.61708 0.0
C120 C 0.16434 0.21069 0.61897 0.0
C121 C 0.14384 0.22478 0.61296 0.0
C122 C 0.13265 0.28109 0.57319 0.0
C123 C 0.13768 0.31218 0.56618 0.0
C124 C 0.14074 0.31649 0.54622 0.0
C125 C 0.1386 0.28966 0.53286 0.0
C126 C 0.13155 0.2577 0.53978 0.0
C127 C 0.12859 0.25346 0.55981 0.0
P128 P 0.8296 0.91049 0.58759 0.0
H129 H 0.86714 0.98662 0.58764 0.0
H130 H 0.86549 0.03386 0.60748 0.0
H131 H 0.78 0.95675 0.63551 0.0
H132 H 0.78116 0.90954 0.61517 0.0
H133 H 0.79558 0.8333 0.57894 0.0
H134 H 0.79186 0.78801 0.59927 0.0
H135 H 0.84103 0.86663 0.64966 0.0
H136 H 0.84533 0.91159 0.62938 0.0
H137 H 0.84641 0.90482 0.54739 0.0
H138 H 0.75582 0.88383 0.57618 0.0
O139 O 0.87121 0.92768 0.58374 0.0
H140 H 0.81287 0.89022 0.51529 0.0
H141 H 0.72176 0.86846 0.54389 0.0
C142 C 0.82491 0.94467 0.60035 0.0
C143 C 0.84777 0.97986 0.59788 0.0
C144 C 0.84682 0.00681 0.60923 0.0
C145 C 0.82281 0.999 0.62315 0.0
C146 C 0.79858 0.9636 0.62477 0.0
C147 C 0.79945 0.93662 0.61331 0.0
C148 C 0.82006 0.8757 0.60277 0.0
C149 C 0.8047 0.84056 0.59448 0.0
C150 C 0.8025 0.8147 0.60609 0.0
C151 C 0.81601 0.82385 0.62604 0.0
C152 C 0.83039 0.85887 0.63433 0.0
C153 C 0.83262 0.88454 0.62278 0.0
C154 C 0.80366 0.89584 0.56414 0.0
C155 C 0.81919 0.89675 0.54682 0.0
C156 C 0.79997 0.88824 0.52845 0.0
C157 C 0.76484 0.87867 0.52709 0.0
C158 C 0.74898 0.87646 0.54452 0.0
C159 C 0.76831 0.88501 0.56293 0.0
P160 P 0.1291 0.84472 0.60089 0.0
H161 H 0.19042 0.88133 0.62989 0.0
H162 H 0.22448 0.94218 0.64499 0.0
H163 H 0.15977 0.96897 0.6096 0.0
H164 H 0.12509 0.90764 0.59487 0.0
H165 H 0.06277 0.78397 0.58368 0.0
H166 H 0.00588 0.75317 0.59634 0.0
H167 H 0.04334 0.8343 0.64542 0.0
H168 H 0.09988 0.86448 0.63305 0.0
H169 H 0.17072 0.82603 0.5773 0.0
H170 H 0.09582 0.85906 0.56722 0.0
O171 O 0.14462 0.8213 0.61093 0.0
H172 H 0.18051 0.82828 0.54263 0.0
H173 H 0.10657 0.86267 0.5324 0.0
C174 C 0.15527 0.89 0.61122 0.0
C175 C 0.18353 0.90023 0.62533 0.0
C176 C 0.20304 0.93504 0.63393 0.0
C177 C 0.19461 0.96025 0.6286 0.0
C178 C 0.16649 0.94999 0.61426 0.0
C179 C 0.14692 0.91507 0.60568 0.0
C180 C 0.0854 0.82684 0.60721 0.0
C181 C 0.05839 0.79558 0.59686 0.0
C182 C 0.02599 0.77799 0.60411 0.0
C183 C 0.02048 0.79122 0.62196 0.0
C184 C 0.0471 0.82335 0.63175 0.0
C185 C 0.07934 0.84081 0.62454 0.0
C186 C 0.13238 0.84218 0.57481 0.0
C187 C 0.15613 0.8335 0.56759 0.0
C188 C 0.16203 0.83519 0.54779 0.0
C189 C 0.14484 0.84636 0.5349 0.0
C190 C 0.12022 0.85404 0.54203 0.0
C191 C 0.11413 0.85207 0.56189 0.0
P192 P 0.93851 0.48112 0.73517 0.0
H193 H 0.96081 0.44569 0.70689 0.0
H194 H 0.93451 0.38462 0.69249 0.0
H195 H 0.84696 0.35626 0.72582 0.0
H196 H 0.87309 0.41776 0.73987 0.0
H197 H 0.9353 0.54192 0.75178 0.0
H198 H 0.90744 0.57326 0.73905 0.0
H199 H 0.86077 0.49583 0.688 0.0
H200 H 0.88822 0.46429 0.70089 0.0
H201 H 0.99658 0.49277 0.76243 0.0
H202 H 0.89181 0.4709 0.76572 0.0
O203 O 0.97756 0.50464 0.72743 0.0
H204 H 0.00392 0.4925 0.79807 0.0
H205 H 0.89911 0.4708 0.80155 0.0
C206 C 0.91895 0.43617 0.72452 0.0
C207 C 0.93592 0.42642 0.71108 0.0
C208 C 0.92092 0.3915 0.70289 0.0
C209 C 0.88863 0.36574 0.70797 0.0
C210 C 0.87159 0.37565 0.7214 0.0
C211 C 0.88663 0.41067 0.72956 0.0
C212 C 0.9133 0.50043 0.72748 0.0
C213 C 0.91841 0.53122 0.73809 0.0
C214 C 0.90276 0.54927 0.73073 0.0
C215 C 0.88221 0.53707 0.71248 0.0
C216 C 0.87626 0.50561 0.70218 0.0
C217 C 0.89194 0.48759 0.70956 0.0
C218 C 0.94387 0.48245 0.76152 0.0
C219 C 0.97527 0.48827 0.77086 0.0
C220 C 0.97944 0.48812 0.79121 0.0
C221 C 0.95209 0.48164 0.80254 0.0
C222 C 0.9205 0.47556 0.79313 0.0
C223 C 0.9164 0.47584 0.77272 0.0
P224 P 0.58124 0.43003 0.76072 0.0
H225 H 0.57267 0.41185 0.71815 0.0
H226 H 0.52622 0.36321 0.69594 0.0
H227 H 0.4632 0.32844 0.74409 0.0
H228 H 0.50957 0.37747 0.76628 0.0
H229 H 0.65608 0.47557 0.76616 0.0
H230 H 0.69638 0.52585 0.75018 0.0
H231 H 0.61028 0.52223 0.71596 0.0
H232 H 0.56971 0.47135 0.73207 0.0
H233 H 0.60206 0.42995 0.80199 0.0
H234 H 0.53247 0.45401 0.76951 0.0
O235 O 0.60322 0.40966 0.76581 0.0
H236 H 0.58157 0.43959 0.83276 0.0
H237 H 0.51206 0.46425 0.80052 0.0
C238 C 0.54431 0.39902 0.74378 0.0
C239 C 0.54847 0.39453 0.72384 0.0
C240 C 0.52206 0.36651 0.7112 0.0
C241 C 0.49125 0.342 0.71837 0.0
C242 C 0.48656 0.34717 0.73817 0.0
C243 C 0.51306 0.37528 0.75083 0.0
C244 C 0.60996 0.46931 0.75003 0.0
C245 C 0.64576 0.48566 0.75533 0.0
C246 C 0.66879 0.5146 0.74628 0.0
C247 C 0.65647 0.5281 0.73188 0.0
C248 C 0.62046 0.51226 0.72694 0.0
C249 C 0.59732 0.48329 0.73615 0.0
C250 C 0.56848 0.44088 0.78344 0.0
C251 C 0.58262 0.4377 0.80148 0.0
C252 C 0.57108 0.44349 0.81912 0.0
C253 C 0.54533 0.45284 0.81907 0.0
C254 C 0.53183 0.45691 0.80098 0.0
C255 C 0.54353 0.45122 0.7833 0.0
P256 P 0.53041 0.04147 0.74697 0.0
H257 H 0.46901 0.01155 0.71813 0.0
H258 H 0.43416 0.03513 0.70466 0.0
H259 H 0.4995 0.13348 0.74119 0.0
H260 H 0.53426 0.10949 0.75486 0.0
H261 H 0.59722 0.05283 0.76438 0.0
H262 H 0.65443 0.07824 0.75226 0.0
H263 H 0.6161 0.1078 0.70202 0.0
H264 H 0.55902 0.08208 0.71404 0.0
H265 H 0.48714 0.9842 0.76925 0.0
H266 H 0.56594 0.09355 0.78207 0.0
O267 O 0.51453 1.0007 0.736 0.0
H268 H 0.48109 0.9799 0.80429 0.0
H269 H 0.55992 0.08932 0.81749 0.0
C270 C 0.50413 0.05872 0.7376 0.0
C271 C 0.47581 0.03811 0.72337 0.0
C272 C 0.45596 0.05166 0.7156 0.0
C273 C 0.46397 0.08606 0.72195 0.0
C274 C 0.49235 0.10667 0.73627 0.0
C275 C 0.51228 0.09307 0.74403 0.0
C276 C 0.57408 0.06648 0.74045 0.0
C277 C 0.6014 0.06568 0.75106 0.0
C278 C 0.63408 0.08016 0.7441 0.0
C279 C 0.63981 0.09526 0.72625 0.0
C280 C 0.61246 0.09638 0.71581 0.0
C281 C 0.57991 0.082 0.72281 0.0
C282 C 0.52759 0.03898 0.77307 0.0
C283 C 0.50353 0.00721 0.77963 0.0
C284 C 0.50013 0.00473 0.79969 0.0
C285 C 0.52054 0.03408 0.81365 0.0
C286 C 0.54409 0.06622 0.80704 0.0
C287 C 0.54762 0.06863 0.78687 0.0
P288 P 0.79055 0.61221 0.93206 0.0
H289 H 0.76353 0.57371 0.9658 0.0
H290 H 0.70696 0.5488 0.97841 0.0
H291 H 0.66589 0.57232 0.9267 0.0
H292 H 0.72237 0.59638 0.91385 0.0
H293 H 0.86359 0.64758 0.94708 0.0
H294 H 0.90204 0.62635 0.95814 0.0
H295 H 0.81789 0.51921 0.94444 0.0
H296 H 0.77941 0.54071 0.9332 0.0
H297 H 0.78371 0.66165 0.90889 0.0
H298 H 0.79976 0.57371 0.89816 0.0
O299 O 0.80659 0.65212 0.94426 0.0
H300 H 0.79209 0.67363 0.87466 0.0
H301 H 0.80885 0.58606 0.86394 0.0
C302 C 0.74711 0.58633 0.9387 0.0
C303 C 0.74212 0.57251 0.95685 0.0
C304 C 0.70989 0.55871 0.96417 0.0
C305 C 0.6822 0.55921 0.95369 0.0
C306 C 0.68675 0.57155 0.93508 0.0
C307 C 0.71905 0.58525 0.92771 0.0
C308 C 0.81846 0.59572 0.93977 0.0
C309 C 0.85332 0.61952 0.94649 0.0
C310 C 0.8753 0.60738 0.95277 0.0
C311 C 0.86295 0.57116 0.95217 0.0
C312 C 0.82819 0.54727 0.94489 0.0
C313 C 0.80613 0.5595 0.93866 0.0
C314 C 0.79194 0.61734 0.90619 0.0
C315 C 0.78891 0.64484 0.89915 0.0
C316 C 0.79385 0.65175 0.87963 0.0
C317 C 0.80194 0.63128 0.86681 0.0
C318 C 0.80287 0.60239 0.87356 0.0
C319 C 0.79784 0.59543 0.89314 0.0
P320 P 0.49802 0.247 0.92327 0.0
H321 H 0.53861 0.29362 0.95853 0.0
H322 H 0.53211 0.33616 0.97997 0.0
H323 H 0.4355 0.30659 0.94576 0.0
H324 H 0.44209 0.26394 0.92432 0.0
H325 H 0.5183 0.19481 0.9148 0.0
H326 H 0.51442 0.14699 0.93267 0.0
H327 H 0.45419 0.16532 0.97389 0.0
H328 H 0.45762 0.21276 0.9558 0.0
H329 H 0.49905 0.29321 0.89506 0.0
H330 H 0.44485 0.18157 0.89915 0.0
O331 O 0.53997 0.26791 0.91979 0.0
H332 H 0.4686 0.28283 0.86225 0.0
H333 H 0.41426 0.17107 0.86625 0.0
C334 C 0.49124 0.2762 0.93963 0.0
C335 C 0.51593 0.29613 0.95572 0.0
C336 C 0.51204 0.32019 0.96805 0.0
C337 C 0.48322 0.32453 0.96455 0.0
C338 C 0.45802 0.30383 0.9487 0.0
C339 C 0.46183 0.27955 0.93644 0.0
C340 C 0.489 0.20783 0.93426 0.0
C341 C 0.50375 0.18814 0.92748 0.0
C342 C 0.50155 0.1609 0.93768 0.0
C343 C 0.48457 0.15301 0.95484 0.0
C344 C 0.4675 0.17099 0.96073 0.0
C345 C 0.46968 0.19825 0.95048 0.0
C346 C 0.47407 0.23822 0.89954 0.0
C347 C 0.48041 0.26649 0.88893 0.0
C348 C 0.46293 0.26056 0.87026 0.0
C349 C 0.43887 0.22618 0.86186 0.0
C350 C 0.4327 0.19781 0.87246 0.0
C351 C 0.45009 0.20381 0.89125 0.0
P352 P 0.80069 0.18574 0.93794 0.0
H353 H 0.79462 0.22183 0.97366 0.0
H354 H 0.82583 0.28346 0.98782 0.0
H355 H 0.88345 0.31195 0.93718 0.0
H356 H 0.85256 0.25032 0.92319 0.0
H357 H 0.76193 0.11648 0.95143 0.0
H358 H 0.70465 0.08453 0.96302 0.0
H359 H 0.68612 0.16861 0.95045 0.0
H360 H 0.74337 0.2002 0.93844 0.0
H361 H 0.82994 0.15279 0.91304 0.0
H362 H 0.77387 0.20776 0.90512 0.0
O363 O 0.8244 0.17088 0.94886 0.0
H364 H 0.83693 0.15139 0.87794 0.0
H365 H 0.78133 0.20696 0.86988 0.0
C366 C 0.82043 0.23156 0.94707 0.0
C367 C 0.81333 0.24143 0.96536 0.0
C368 C 0.83112 0.27666 0.97343 0.0
C369 C 0.85666 0.30254 0.96344 0.0
C370 C 0.8637 0.29256 0.94512 0.0
C371 C 0.84586 0.25735 0.93705 0.0
C372 C 0.75707 0.16095 0.94442 0.0
C373 C 0.74546 0.12793 0.951 0.0
C374 C 0.71277 0.10974 0.95767 0.0
C375 C 0.69098 0.12414 0.95772 0.0
C376 C 0.70218 0.15667 0.95038 0.0
C377 C 0.73493 0.17483 0.94364 0.0
C378 C 0.80146 0.18049 0.91168 0.0
C379 C 0.81874 0.1642 0.90372 0.0
C380 C 0.82285 0.16351 0.88365 0.0
C381 C 0.80968 0.17905 0.87116 0.0
C382 C 0.79128 0.19428 0.87907 0.0
C383 C 0.78712 0.19489 0.89919 0.0
P384 P 0.59956 0.8117 0.06907 0.0
H385 H 0.61903 0.77612 0.03922 0.0
H386 H 0.59068 0.71533 0.02398 0.0
H387 H 0.50337 0.68899 0.05724 0.0
H388 H 0.5317 0.75026 0.07221 0.0
H389 H 0.61891 0.85733 0.03786 0.0
H390 H 0.5942 0.8899 0.02322 0.0
H391 H 0.51292 0.84947 0.06175 0.0
H392 H 0.53752 0.8161 0.07616 0.0
H393 H 0.59917 0.76287 0.09571 0.0
H394 H 0.60087 0.86161 0.10033 0.0
O395 O 0.64128 0.83138 0.06511 0.0
H396 H 0.60588 0.76594 0.13153 0.0
H397 H 0.60683 0.86441 0.13634 0.0
C398 C 0.5776 0.76748 0.05701 0.0
C399 C 0.59373 0.75736 0.04318 0.0
C400 C 0.57756 0.72261 0.03452 0.0
C401 C 0.54487 0.69745 0.03945 0.0
C402 C 0.52837 0.70792 0.05298 0.0
C403 C 0.54458 0.74279 0.06161 0.0
C404 C 0.58066 0.83525 0.05852 0.0
C405 C 0.59593 0.85564 0.0433 0.0
C406 C 0.58185 0.87431 0.03497 0.0
C407 C 0.55217 0.8729 0.04171 0.0
C408 C 0.53602 0.85127 0.05643 0.0
C409 C 0.55014 0.83243 0.06473 0.0
C410 C 0.59855 0.81152 0.09532 0.0
C411 C 0.59996 0.78473 0.10441 0.0
C412 C 0.60385 0.78651 0.12491 0.0
C413 C 0.60696 0.81545 0.13672 0.0
C414 C 0.60484 0.84197 0.12759 0.0
C415 C 0.60102 0.84018 0.10702 0.0
P416 P 0.25047 0.76723 0.09492 0.0
H417 H 0.21781 0.69134 0.09403 0.0
H418 H 0.16883 0.64231 0.07334 0.0
H419 H 0.15068 0.71566 0.04359 0.0
H420 H 0.19944 0.76475 0.0647 0.0
H421 H 0.28614 0.84386 0.10589 0.0
H422 H 0.32457 0.89341 0.08852 0.0
H423 H 0.30555 0.82132 0.03709 0.0
H424 H 0.26663 0.77218 0.05433 0.0
H425 H 0.26351 0.75682 0.13554 0.0
H426 H 0.20758 0.79812 0.10446 0.0
O427 O 0.27833 0.75341 0.09996 0.0
H428 H 0.24281 0.76618 0.16627 0.0
H429 H 0.18713 0.80823 0.13548 0.0
C430 C 0.21279 0.73162 0.08048 0.0
C431 C 0.20321 0.69689 0.08312 0.0
C432 C 0.17521 0.66891 0.07132 0.0
C433 C 0.15606 0.67517 0.05679 0.0
C434 C 0.16475 0.71003 0.05479 0.0
C435 C 0.19281 0.73808 0.06668 0.0
C436 C 0.27277 0.80438 0.08123 0.0
C437 C 0.2893 0.83883 0.09066 0.0
C438 C 0.31147 0.86712 0.08076 0.0
C439 C 0.3178 0.86137 0.06132 0.0
C440 C 0.30049 0.82683 0.05181 0.0
C441 C 0.2783 0.79865 0.0617 0.0
C442 C 0.23749 0.77728 0.11776 0.0
C443 C 0.24725 0.76851 0.13537 0.0
C444 C 0.23553 0.77403 0.153 0.0
C445 C 0.21379 0.78845 0.15336 0.0
C446 C 0.20396 0.79717 0.13565 0.0
C447 C 0.21573 0.7916 0.11797 0.0
P448 P 0.19146 0.38212 0.08233 0.0
H449 H 0.13606 0.3557 0.04984 0.0
H450 H 0.10176 0.37953 0.03589 0.0
H451 H 0.16048 0.47402 0.07655 0.0
H452 H 0.19388 0.44928 0.09099 0.0
H453 H 0.24215 0.3591 0.08306 0.0
H454 H 0.29685 0.37939 0.06852 0.0
H455 H 0.28744 0.46363 0.04627 0.0
H456 H 0.23288 0.44344 0.06085 0.0
H457 H 0.13948 0.37539 0.10795 0.0
H458 H 0.24516 0.39758 0.11515 0.0
O459 O 0.16989 0.33895 0.07524 0.0
H460 H 0.1367 0.3732 0.14339 0.0
H461 H 0.24247 0.39547 0.15073 0.0
C462 C 0.16713 0.40051 0.07165 0.0
C463 C 0.14143 0.38143 0.05587 0.0
C464 C 0.12195 0.39519 0.04782 0.0
C465 C 0.12804 0.42847 0.05528 0.0
C466 C 0.15449 0.44792 0.07082 0.0
C467 C 0.17377 0.43396 0.07898 0.0
C468 C 0.23346 0.39983 0.07323 0.0
C469 C 0.25207 0.38223 0.07528 0.0
C470 C 0.28329 0.39381 0.06697 0.0
C471 C 0.2964 0.42315 0.05632 0.0
C472 C 0.27781 0.44086 0.05433 0.0
C473 C 0.2467 0.42942 0.06281 0.0
C474 C 0.19264 0.38708 0.10884 0.0
C475 C 0.16239 0.3806 0.1172 0.0
C476 C 0.16079 0.37931 0.13748 0.0
C477 C 0.18926 0.3839 0.14983 0.0
C478 C 0.21995 0.39138 0.14153 0.0
C479 C 0.22158 0.39282 0.12118 0.0
P480 P 0.46375 0.94759 0.26598 0.0
H481 H 0.44141 0.9332 0.30487 0.0
H482 H 0.38494 0.90957 0.31757 0.0
H483 H 0.33613 0.89371 0.2585 0.0
H484 H 0.39266 0.91658 0.24582 0.0
H485 H 0.53565 0.96869 0.26287 0.0
H486 H 0.57179 0.94434 0.27333 0.0
H487 H 0.48275 0.85688 0.29318 0.0
H488 H 0.44655 0.88109 0.2825 0.0
H489 H 0.47969 0.0066 0.24331 0.0
H490 H 0.44652 0.89664 0.23128 0.0
O491 O 0.48514 0.98812 0.2779 0.0
H492 H 0.48529 0.01359 0.20847 0.0
H493 H 0.45094 0.90318 0.19603 0.0
C494 C 0.42122 0.92624 0.2744 0.0
C495 C 0.41846 0.92403 0.29461 0.0
C496 C 0.38622 0.91076 0.30186 0.0
C497 C 0.35604 0.89964 0.28905 0.0
C498 C 0.35879 0.90143 0.26871 0.0
C499 C 0.39116 0.91464 0.26145 0.0
C500 C 0.48857 0.92701 0.27215 0.0
C501 C 0.52381 0.94406 0.26928 0.0
C502 C 0.54439 0.93006 0.27515 0.0
C503 C 0.53001 0.89871 0.28402 0.0
C504 C 0.49446 0.88119 0.28646 0.0
C505 C 0.4738 0.89508 0.2804 0.0
C506 C 0.46315 0.9512 0.2399 0.0
C507 C 0.47319 0.98381 0.23313 0.0
C508 C 0.47622 0.98774 0.21314 0.0
C509 C 0.46906 0.95907 0.19949 0.0
C510 C 0.45747 0.92597 0.20623 0.0
C511 C 0.45463 0.92212 0.22631 0.0
P512 P 0.1662 0.58041 0.25577 0.0
H513 H 0.21326 0.63562 0.28645 0.0
H514 H 0.20825 0.67945 0.30743 0.0
H515 H 0.10211 0.63549 0.28235 0.0
H516 H 0.1076 0.59193 0.26094 0.0
H517 H 0.18323 0.52606 0.24644 0.0
H518 H 0.1797 0.47846 0.26441 0.0
H519 H 0.1267 0.50224 0.30829 0.0
H520 H 0.12982 0.5495 0.29016 0.0
H521 H 0.16653 0.62518 0.22687 0.0
H522 H 0.11003 0.51449 0.23353 0.0
O523 O 0.2076 0.60019 0.25117 0.0
H524 H 0.13483 0.61336 0.19431 0.0
H525 H 0.07874 0.50241 0.20075 0.0
C526 C 0.16103 0.61099 0.27194 0.0
C527 C 0.18887 0.63531 0.28549 0.0
C528 C 0.18583 0.66011 0.29763 0.0
C529 C 0.15463 0.66065 0.2967 0.0
C530 C 0.12646 0.63571 0.28335 0.0
C531 C 0.12958 0.61087 0.27114 0.0
C532 C 0.15751 0.54175 0.26721 0.0
C533 C 0.17034 0.52064 0.25976 0.0
C534 C 0.16834 0.49353 0.27 0.0
C535 C 0.15346 0.48718 0.28787 0.0
C536 C 0.13833 0.50668 0.29455 0.0
C537 C 0.14034 0.53384 0.28427 0.0
C538 C 0.14064 0.57076 0.23255 0.0
C539 C 0.14718 0.59835 0.22133 0.0
C540 C 0.12921 0.59156 0.20273 0.0
C541 C 0.10433 0.55698 0.19503 0.0
C542 C 0.09746 0.52936 0.20644 0.0
C543 C 0.11547 0.53622 0.22512 0.0
P544 P 0.46731 0.51198 0.26784 0.0
H545 H 0.52867 0.55198 0.29656 0.0
H546 H 0.56143 0.61383 0.31007 0.0
H547 H 0.49482 0.63517 0.27245 0.0
H548 H 0.46161 0.57287 0.25917 0.0
H549 H 0.40075 0.44957 0.25244 0.0
H550 H 0.34436 0.42024 0.26575 0.0
H551 H 0.3834 0.50464 0.31309 0.0
H552 H 0.43942 0.53348 0.30003 0.0
H553 H 0.51491 0.50243 0.24477 0.0
H554 H 0.42588 0.51458 0.23362 0.0
O555 O 0.48454 0.49036 0.2783 0.0
H556 H 0.52209 0.50195 0.20971 0.0
H557 H 0.4326 0.5135 0.19822 0.0
C558 C 0.49279 0.55793 0.27684 0.0
C559 C 0.52115 0.56992 0.29113 0.0
C560 C 0.5399 0.60528 0.29882 0.0
C561 C 0.53049 0.62921 0.29241 0.0
C562 C 0.50228 0.61718 0.27788 0.0
C563 C 0.48354 0.58174 0.27017 0.0
C564 C 0.4241 0.49405 0.27499 0.0
C565 C 0.39686 0.46215 0.2654 0.0
C566 C 0.36474 0.44541 0.27301 0.0
C567 C 0.35976 0.46009 0.29053 0.0
C568 C 0.38672 0.49261 0.29969 0.0
C569 C 0.41867 0.50927 0.29208 0.0
C570 C 0.46932 0.50759 0.2417 0.0
C571 C 0.49636 0.50412 0.23469 0.0
C572 C 0.50038 0.50371 0.21462 0.0
C573 C 0.47746 0.50693 0.20117 0.0
C574 C 0.45044 0.51065 0.20826 0.0
C575 C 0.44645 0.51106 0.22841 0.0
C576 C 0.54137 0.03498 0.06601 0.0
Eu577 Eu 0.51695 0.02497 0.02919 0.0
C578 C 0.52836 0.02073 0.08459 0.0
C579 C 0.53399 0.04413 0.10118 0.0
C580 C 0.52192 0.03155 0.11897 0.0
C581 C 0.50425 0.99529 0.12057 0.0
C582 C 0.49842 0.97176 0.10394 0.0
C583 C 0.51025 0.98435 0.08605 0.0
C584 C 0.49981 0.06659 0.01029 0.0
C585 C 0.43347 0.96655 0.02411 0.0
C586 C 0.45239 0.98576 0.9511 0.0
Eu587 Eu 0.4768 0.99366 0.98781 0.0
C588 C 0.46635 0.99703 0.93222 0.0
C589 C 0.49847 0.00105 0.92813 0.0
C590 C 0.51031 0.00987 0.9097 0.0
C591 C 0.4903 0.01493 0.89508 0.0
C592 C 0.45882 0.01218 0.89952 0.0
C593 C 0.44693 0.00321 0.9179 0.0
C594 C 0.4987 0.95436 0.00582 0.0
C595 C 0.5613 0.04919 0.99287 0.0
O596 O 0.54432 0.01425 0.0526 0.0
O597 O 0.52901 0.05348 0.05852 0.0
O598 O 0.52808 0.07826 0.02201 0.0
O599 O 0.48059 0.03377 0.01034 0.0
O600 O 0.46386 0.98147 0.03491 0.0
O601 O 0.43088 0.9713 0.00535 0.0
O602 O 0.45532 0.01038 0.96418 0.0
O603 O 0.45895 0.96319 0.95891 0.0
O604 O 0.46944 0.94074 0.9947 0.0
O605 O 0.51523 0.98719 0.0059 0.0
O606 O 0.53131 0.03414 0.98158 0.0
O607 O 0.56305 0.04589 0.01191 0.0
H608 H 0.54782 0.07224 0.10039 0.0
H609 H 0.52689 0.05023 0.1316 0.0
H610 H 0.48451 0.94366 0.10475 0.0
H611 H 0.5052 0.96565 0.07341 0.0
H612 H 0.51419 0.99694 0.93907 0.0
H613 H 0.535 0.01252 0.90683 0.0
H614 H 0.44285 0.01589 0.88854 0.0
H615 H 0.42221 1.00049 0.92082 0.0
C616 C 0.988 0.5295 0.05872 0.0
Eu617 Eu 0.98822 0.50869 0.02222 0.0
C618 C 0.00513 0.53155 0.07829 0.0
C619 C 0.99663 0.50117 0.08752 0.0
C620 C 0.01249 0.50387 0.10627 0.0
C621 C 0.03707 0.53692 0.11613 0.0
C622 C 0.04588 0.5672 0.1068 0.0
C623 C 0.02993 0.56455 0.08811 0.0
C624 C 0.94352 0.44476 0.00244 0.0
C625 C 0.04124 0.47825 0.01946 0.0
C626 C 0.00812 0.47093 0.94598 0.0
Eu627 Eu 0.00737 0.49343 0.98205 0.0
C628 C 0.99786 0.47344 0.92557 0.0
C629 C 0.02204 0.482 0.91178 0.0
C630 C 0.01305 0.48399 0.89223 0.0
C631 C 0.97962 0.47734 0.88607 0.0
C632 C 0.95542 0.46901 0.89993 0.0
C633 C 0.96444 0.46698 0.91952 0.0
C634 C 0.05367 0.55651 1.002 0.0
C635 C 0.95462 0.5249 0.9852 0.0
O636 O 0.00779 0.55049 0.04655 0.0
O637 O 0.96533 0.49824 0.04996 0.0
O638 O 0.93358 0.46323 0.01279 0.0
O639 O 0.97607 0.46008 0.00371 0.0
O640 O 0.03152 0.49737 0.03008 0.0
O641 O 0.03063 0.46854 1.00046 0.0
O642 O 0.98333 0.45313 0.95691 0.0
O643 O 0.03394 0.4996 0.95562 0.0
O644 O 0.06229 0.53755 0.99105 0.0
O645 O 0.02111 0.54235 1.00094 0.0
O646 O 0.96608 0.50786 0.97409 0.0
O647 O 0.96334 0.53238 0.00442 0.0
H648 H 0.97772 0.47531 0.08032 0.0
H649 H 0.0057 0.4801 0.11303 0.0
H650 H 0.06468 0.593 0.11414 0.0
H651 H 0.03684 0.58838 0.08138 0.0
H652 H 0.0479 0.48692 0.91612 0.0
H653 H 0.03214 0.49021 0.88184 0.0
H654 H 0.92963 0.46426 0.89563 0.0
H655 H 0.94528 0.46024 0.92988 0.0
C656 C 0.44655 0.47281 0.9455 0.0
Eu657 Eu 0.46961 0.49155 0.98269 0.0
C658 C 0.45948 0.46668 0.92723 0.0
C659 C 0.44625 0.47089 0.90921 0.0
C660 C 0.46017 0.46826 0.89184 0.0
C661 C 0.48775 0.46153 0.8922 0.0
C662 C 0.50047 0.45653 0.91027 0.0
C663 C 0.48654 0.45924 0.92765 0.0
C664 C 0.4882 0.55417 0.00306 0.0
C665 C 0.55369 0.52109 0.98881 0.0
C666 C 0.53816 0.54172 0.06143 0.0
Eu667 Eu 0.5107 0.50976 0.02629 0.0
C668 C 0.52969 0.53451 0.08162 0.0
C669 C 0.50418 0.50098 0.08549 0.0
C670 C 0.49474 0.49501 0.10459 0.0
C671 C 0.51069 0.52249 0.1201 0.0
C672 C 0.53636 0.55598 0.11611 0.0
C673 C 0.54576 0.56192 0.09702 0.0
C674 C 0.48791 0.44221 0.01071 0.0
C675 C 0.42544 0.47205 0.02007 0.0
O676 O 0.4397 0.45019 0.95843 0.0
O677 O 0.46266 0.50546 0.9536 0.0
O678 O 0.45966 0.53605 0.99133 0.0
O679 O 0.50587 0.53924 0.00271 0.0
O680 O 0.52388 0.5027 0.97729 0.0
O681 O 0.55517 0.5309 0.00775 0.0
O682 O 0.51648 0.54717 0.05063 0.0
O683 O 0.54765 0.52163 0.05186 0.0
O684 O 0.506 0.45563 0.02783 0.0
O685 O 0.48257 0.46506 0.00419 0.0
O686 O 0.45493 0.49067 0.03176 0.0
O687 O 0.4242 0.46579 1.00067 0.0
H688 H 0.42556 0.47695 0.90863 0.0
H689 H 0.44992 0.47235 0.87818 0.0
H690 H 0.52122 0.4506 0.91096 0.0
H691 H 0.49722 0.45602 0.94143 0.0
H692 H 0.49124 0.47961 0.07368 0.0
H693 H 0.47447 0.4691 0.10714 0.0
H694 H 0.5492 0.57759 0.12778 0.0
H695 H 0.56532 0.58803 0.09423 0.0
C696 C 0.21163 0.37447 0.40091 0.0
Eu697 Eu 0.18779 0.36218 0.36387 0.0
C698 C 0.19923 0.35886 0.4193 0.0
C699 C 0.19881 0.38012 0.43536 0.0
C700 C 0.18693 0.36614 0.45289 0.0
C701 C 0.17549 0.33064 0.45481 0.0
C702 C 0.17583 0.30926 0.43873 0.0
C703 C 0.1875 0.32319 0.42109 0.0
C704 C 0.17063 0.4025 0.34362 0.0
C705 C 0.10527 0.30128 0.35908 0.0
C706 C 0.12292 0.31872 0.28585 0.0
Eu707 Eu 0.14763 0.32866 0.32264 0.0
C708 C 0.13592 0.33089 0.26687 0.0
C709 C 0.12617 0.30592 0.25041 0.0
C710 C 0.1379 0.31637 0.23222 0.0
C711 C 0.15966 0.35209 0.23006 0.0
C712 C 0.16929 0.37723 0.24651 0.0
C713 C 0.15773 0.36672 0.26481 0.0
C714 C 0.16858 0.28995 0.342 0.0
C715 C 0.23233 0.38364 0.32756 0.0
O716 O 0.21838 0.3564 0.38771 0.0
O717 O 0.19585 0.38966 0.3931 0.0
O718 O 0.19911 0.41481 0.35524 0.0
O719 O 0.15142 0.36989 0.34431 0.0
O720 O 0.13576 0.31752 0.36976 0.0
O721 O 0.10178 0.30565 0.34033 0.0
O722 O 0.12264 0.34158 0.29899 0.0
O723 O 0.13283 0.29849 0.29362 0.0
O724 O 0.13957 0.27607 0.3306 0.0
O725 O 0.18551 0.32266 0.34156 0.0
O726 O 0.20237 0.36862 0.31618 0.0
O727 O 0.23378 0.38149 0.34672 0.0
H728 H 0.20773 0.40765 0.43434 0.0
H729 H 0.18718 0.38327 0.4651 0.0
H730 H 0.1668 0.28171 0.43976 0.0
H731 H 0.18726 0.30605 0.4089 0.0
H732 H 0.10928 0.2782 0.25162 0.0
H733 H 0.12946 0.29649 0.21971 0.0
H734 H 0.18596 0.40494 0.24522 0.0
H735 H 0.16579 0.38658 0.2773 0.0
C736 C 0.64849 0.84876 0.39039 0.0
Eu737 Eu 0.65395 0.83374 0.35375 0.0
C738 C 0.66502 0.85171 0.41016 0.0
C739 C 0.64585 0.8468 0.42631 0.0
C740 C 0.66104 0.85003 0.44533 0.0
C741 C 0.69577 0.85843 0.44851 0.0
C742 C 0.71475 0.86264 0.43221 0.0
C743 C 0.69949 0.85933 0.41316 0.0
C744 C 0.61172 0.77225 0.33092 0.0
C745 C 0.70993 0.807 0.35018 0.0
C746 C 0.68254 0.81048 0.27716 0.0
Eu747 Eu 0.67769 0.82585 0.31381 0.0
C748 C 0.66957 0.81308 0.25746 0.0
C749 C 0.6923 0.82409 0.24285 0.0
C750 C 0.68086 0.82682 0.22399 0.0
C751 C 0.64644 0.81864 0.21941 0.0
C752 C 0.62359 0.80748 0.23404 0.0
C753 C 0.63511 0.80492 0.25299 0.0
C754 C 0.72186 0.88558 0.33705 0.0
C755 C 0.62182 0.8531 0.3174 0.0
O756 O 0.66707 0.8725 0.37901 0.0
O757 O 0.63065 0.8171 0.38099 0.0
O758 O 0.60035 0.78861 0.34191 0.0
O759 O 0.6443 0.78816 0.33317 0.0
O760 O 0.69794 0.82321 0.3615 0.0
O761 O 0.70109 0.7999 0.33096 0.0
O762 O 0.65987 0.78787 0.28767 0.0
O763 O 0.70486 0.84025 0.28756 0.0
O764 O 0.73176 0.86837 0.32561 0.0
O765 O 0.6893 0.8718 0.33491 0.0
O766 O 0.63564 0.839 0.30601 0.0
O767 O 0.628 0.85743 0.33677 0.0
H768 H 0.61911 0.84056 0.42422 0.0
H769 H 0.64558 0.84586 0.45755 0.0
H770 H 0.74156 0.8691 0.43426 0.0
H771 H 0.71464 0.86298 0.40082 0.0
H772 H 0.71892 0.83039 0.246 0.0
H773 H 0.6988 0.83469 0.21287 0.0
H774 H 0.59691 0.80093 0.23084 0.0
H775 H 0.61712 0.79654 0.26408 0.0
C776 C 0.11937 0.81389 0.28045 0.0
Eu777 Eu 0.14302 0.83 0.31773 0.0
C778 C 0.13109 0.80711 0.26184 0.0
C779 C 0.12199 0.81714 0.24451 0.0
C780 C 0.13502 0.8136 0.22695 0.0
C781 C 0.15754 0.80009 0.22646 0.0
C782 C 0.16588 0.78918 0.24375 0.0
C783 C 0.15294 0.79285 0.26133 0.0
C784 C 0.16338 0.89393 0.33715 0.0
C785 C 0.22552 0.85752 0.32245 0.0
C786 C 0.20757 0.87266 0.39493 0.0
Eu787 Eu 0.18179 0.84615 0.35864 0.0
C788 C 0.19636 0.86859 0.41485 0.0
C789 C 0.17189 0.83572 0.4202 0.0
C790 C 0.16272 0.83254 0.43949 0.0
C791 C 0.17783 0.86217 0.45368 0.0
C792 C 0.20129 0.89519 0.44801 0.0
C793 C 0.21058 0.89831 0.4288 0.0
C794 C 0.16502 0.78272 0.34064 0.0
C795 C 0.09699 0.81236 0.3537 0.0
O796 O 0.1111 0.79056 0.29298 0.0
O797 O 0.13739 0.84611 0.28902 0.0
O798 O 0.13348 0.87469 0.32689 0.0
O799 O 0.18092 0.87896 0.33633 0.0
O800 O 0.19536 0.83648 0.31187 0.0
O801 O 0.22704 0.87053 0.3407 0.0
O802 O 0.19433 0.88613 0.38322 0.0
O803 O 0.20957 0.84667 0.38597 0.0
O804 O 0.1922 0.80177 0.35321 0.0
O805 O 0.14583 0.7962 0.33951 0.0
O806 O 0.12653 0.82792 0.36538 0.0
O807 O 0.09603 0.8071 0.33437 0.0
H808 H 0.10531 0.82838 0.24465 0.0
H809 H 0.12818 0.82224 0.21386 0.0
H810 H 0.18248 0.77788 0.24366 0.0
H811 H 0.16036 0.785 0.27454 0.0
H812 H 0.16022 0.81249 0.40955 0.0
H813 H 0.14445 0.80681 0.44343 0.0
H814 H 0.21259 0.91864 0.45846 0.0
H815 H 0.22911 0.92396 0.42486 0.0
C816 C 0.87502 0.70124 0.73208 0.0
Eu817 Eu 0.84987 0.6898 0.69532 0.0
C818 C 0.86162 0.68943 0.7511 0.0
C819 C 0.85181 0.70926 0.76325 0.0
C820 C 0.84056 0.69913 0.78157 0.0
C821 C 0.83923 0.66918 0.78827 0.0
C822 C 0.84827 0.64887 0.776 0.0
C823 C 0.85951 0.65897 0.75763 0.0
C824 C 0.83278 0.73071 0.67571 0.0
C825 C 0.76628 0.63232 0.6916 0.0
C826 C 0.78433 0.64437 0.61778 0.0
Eu827 Eu 0.80911 0.65613 0.65469 0.0
C828 C 0.79754 0.6573 0.599 0.0
C829 C 0.7885 0.63295 0.58232 0.0
C830 C 0.80095 0.64425 0.56439 0.0
C831 C 0.82271 0.68019 0.56275 0.0
C832 C 0.83159 0.70468 0.57942 0.0
C833 C 0.8193 0.69333 0.59745 0.0
C834 C 0.83048 0.61764 0.67395 0.0
C835 C 0.89344 0.71135 0.65879 0.0
O836 O 0.8753 0.67797 0.71927 0.0
O837 O 0.8656 0.72147 0.72382 0.0
O838 O 0.86144 0.74257 0.68711 0.0
O839 O 0.81321 0.69801 0.67617 0.0
O840 O 0.79677 0.64876 0.70227 0.0
O841 O 0.76318 0.63381 0.67239 0.0
O842 O 0.78224 0.66629 0.63073 0.0
O843 O 0.79597 0.62574 0.62582 0.0
O844 O 0.80077 0.60378 0.66329 0.0
O845 O 0.84754 0.65022 0.67311 0.0
O846 O 0.86319 0.69716 0.64779 0.0
O847 O 0.89526 0.70814 0.67779 0.0
H848 H 0.85313 0.73286 0.7587 0.0
H849 H 0.83311 0.7149 0.79058 0.0
H850 H 0.84756 0.62571 0.78084 0.0
H851 H 0.86701 0.64316 0.74869 0.0
H852 H 0.77172 0.60509 0.58318 0.0
H853 H 0.79315 0.62487 0.55169 0.0
H854 H 0.84827 0.73253 0.57852 0.0
H855 H 0.82686 0.71268 0.61014 0.0
C856 C 0.32122 0.18621 0.72447 0.0
Eu857 Eu 0.32434 0.16612 0.68831 0.0
C858 C 0.33886 0.19211 0.74431 0.0
C859 C 0.31995 0.1874 0.76056 0.0
C860 C 0.33598 0.19288 0.77962 0.0
C861 C 0.37124 0.20319 0.78271 0.0
C862 C 0.39011 0.20754 0.76638 0.0
C863 C 0.37405 0.20216 0.74728 0.0
C864 C 0.28012 0.10247 0.66798 0.0
C865 C 0.37779 0.13637 0.68594 0.0
C866 C 0.3443 0.12864 0.61218 0.0
Eu867 Eu 0.34454 0.1517 0.64831 0.0
C868 C 0.33532 0.13358 0.59212 0.0
C869 C 0.33772 0.16531 0.58787 0.0
C870 C 0.32958 0.1696 0.56859 0.0
C871 C 0.31893 0.14224 0.55328 0.0
C872 C 0.31597 0.11031 0.55771 0.0
C873 C 0.32415 0.10606 0.57697 0.0
C874 C 0.39081 0.21435 0.66854 0.0
C875 C 0.29131 0.18274 0.65101 0.0
O876 O 0.33878 0.20801 0.71196 0.0
O877 O 0.30321 0.15356 0.71648 0.0
O878 O 0.26986 0.12069 0.67827 0.0
O879 O 0.31266 0.11789 0.66959 0.0
O880 O 0.36842 0.156 0.69641 0.0
O881 O 0.36689 0.12626 0.66698 0.0
O882 O 0.31838 0.11253 0.62269 0.0
O883 O 0.37146 0.15544 0.62233 0.0
O884 O 0.39928 0.19586 0.65707 0.0
O885 O 0.35823 0.20044 0.6675 0.0
O886 O 0.30489 0.16796 0.6399 0.0
O887 O 0.29764 0.18796 0.67039 0.0
H888 H 0.29272 0.17946 0.7585 0.0
H889 H 0.32077 0.18881 0.79195 0.0
H890 H 0.41734 0.21552 0.76842 0.0
H891 H 0.38907 0.2059 0.73488 0.0
H892 H 0.34603 0.18678 0.59943 0.0
H893 H 0.3315 0.19426 0.56566 0.0
H894 H 0.30796 0.08884 0.5462 0.0
H895 H 0.32203 0.08135 0.58001 0.0
C896 C 0.79053 0.13361 0.61859 0.0
Eu897 Eu 0.81512 0.15729 0.65536 0.0
C898 C 0.8041 0.13296 0.59941 0.0
C899 C 0.81262 0.16038 0.58757 0.0
C900 C 0.82462 0.15932 0.56927 0.0
C901 C 0.82826 0.13076 0.56237 0.0
C902 C 0.81951 0.10321 0.57411 0.0
C903 C 0.80753 0.10427 0.59242 0.0
C904 C 0.83421 0.22186 0.67316 0.0
C905 C 0.8997 0.1918 0.66008 0.0
C906 C 0.88072 0.20239 0.73291 0.0
Eu907 Eu 0.85535 0.17694 0.69645 0.0
C908 C 0.86789 0.1986 0.75242 0.0
C909 C 0.83835 0.16761 0.75623 0.0
C910 C 0.82721 0.16425 0.77507 0.0
C911 C 0.84529 0.19195 0.79034 0.0
C912 C 0.87448 0.22312 0.78629 0.0
C913 C 0.88564 0.2264 0.7675 0.0
C914 C 0.83828 0.11315 0.67846 0.0
C915 C 0.77046 0.14242 0.6918 0.0
O916 O 0.79371 0.11455 0.63146 0.0
O917 O 0.79658 0.16408 0.62676 0.0
O918 O 0.80487 0.20206 0.66238 0.0
O919 O 0.85238 0.20749 0.67322 0.0
O920 O 0.86983 0.17086 0.64912 0.0
O921 O 0.9007 0.20255 0.67875 0.0
O922 O 0.87023 0.21782 0.72091 0.0
O923 O 0.88064 0.17508 0.72411 0.0
O924 O 0.86696 0.1333 0.68976 0.0
O925 O 0.81919 0.1266 0.67831 0.0
O926 O 0.80042 0.1608 0.70301 0.0
O927 O 0.76901 0.13375 0.67273 0.0
H928 H 0.80975 0.1826 0.59236 0.0
H929 H 0.83046 0.18054 0.56035 0.0
H930 H 0.82206 0.08087 0.56915 0.0
H931 H 0.80083 0.08251 0.60106 0.0
H932 H 0.82416 0.14589 0.74472 0.0
H933 H 0.80498 0.13971 0.7778 0.0
H934 H 0.88877 0.24497 0.79772 0.0
H935 H 0.90835 0.25059 0.76478 0.0
C936 C 0.37812 0.91242 0.06246 0.0
C937 C 0.34535 0.89054 0.05186 0.0
C938 C 0.40588 0.93755 0.05347 0.0
C939 C 0.4022 0.94202 0.03343 0.0
H940 H 0.38283 0.90921 0.07768 0.0
H941 H 0.4307 0.95295 0.06232 0.0
S942 S 0.32053 0.89362 0.99966 0.0
N943 N 0.30986 0.87673 0.02068 0.0
N944 N 0.36211 0.92378 0.00362 0.0
C945 C 0.36911 0.92128 0.02284 0.0
C946 C 0.34074 0.89557 0.03206 0.0
C947 C 0.10028 0.44004 0.02608 0.0
C948 C 0.10684 0.44263 0.04667 0.0
C949 C 0.0793 0.45182 0.01749 0.0
C950 C 0.06402 0.46682 0.02912 0.0
H951 H 0.11154 0.42885 0.01647 0.0
H952 H 0.07511 0.44911 1.00157 0.0
S953 S 0.07248 0.47898 0.08387 0.0
N954 N 0.09581 0.46067 0.07853 0.0
N955 N 0.05691 0.48344 0.06248 0.0
C956 C 0.07062 0.46989 0.04978 0.0
C957 C 0.0919 0.45769 0.05852 0.0
C958 C 0.54876 0.64367 0.03117 0.0
C959 C 0.52889 0.66024 0.0309 0.0
C960 C 0.53504 0.60909 0.02251 0.0
C961 C 0.50092 0.58975 0.01318 0.0
H962 H 0.57524 0.6576 0.0381 0.0
H963 H 0.55156 0.59768 0.02286 0.0
S964 S 0.43795 0.62089 0.00863 0.0
N965 N 0.47326 0.65467 0.02067 0.0
N966 N 0.44727 0.5894 0.00451 0.0
C967 C 0.48051 0.60573 0.01307 0.0
C968 C 0.49452 0.64102 0.02194 0.0
C969 C 0.91425 0.35612 0.97416 0.0
C970 C 0.87787 0.33938 0.97277 0.0
C971 C 0.93513 0.39027 0.98365 0.0
C972 C 0.92047 0.40912 0.99207 0.0
H973 H 0.92673 0.34241 0.96822 0.0
H974 H 0.96303 0.40178 0.9846 0.0
S975 S 0.82654 0.37799 0.99132 0.0
N976 N 0.82798 0.3447 0.97982 0.0
N977 N 0.86731 0.40908 0.99772 0.0
C978 C 0.88413 0.39299 0.99049 0.0
C979 C 0.86281 0.35807 0.98085 0.0
C980 C 0.61708 0.52612 0.95239 0.0
C981 C 0.64967 0.5495 0.96283 0.0
C982 C 0.58624 0.5171 0.96086 0.0
C983 C 0.58677 0.53127 0.98009 0.0
H984 H 0.61541 0.51445 0.93762 0.0
H985 H 0.56186 0.49871 0.95226 0.0
S986 S 0.66578 0.59623 0.0129 0.0
N987 N 0.68072 0.58832 0.99287 0.0
N988 N 0.62319 0.57144 0.00888 0.0
C989 C 0.61935 0.55521 0.99053 0.0
C990 C 0.65064 0.56429 0.98189 0.0
C991 C 0.45906 0.10116 0.97443 0.0
C992 C 0.48828 0.12936 0.96788 0.0
C993 C 0.46277 0.08019 0.98783 0.0
C994 C 0.49582 0.0874 0.99544 0.0
H995 H 0.43323 0.09541 0.96923 0.0
H996 H 0.43972 0.0588 0.99263 0.0
S997 S 0.58042 0.15788 0.98263 0.0
N998 N 0.55119 0.16284 0.96967 0.0
N999 N 0.5582 0.12408 0.99498 0.0
C1000 C 0.52515 0.1153 0.98881 0.0
C1001 C 0.52137 0.13612 0.97498 0.0
C1002 C 0.65669 0.09394 0.98499 0.0
C1003 C 0.65751 0.10584 0.96637 0.0
C1004 C 0.62558 0.07615 0.99352 0.0
C1005 C 0.59394 0.06925 0.98371 0.0
H1006 H 0.68037 0.09858 0.99312 0.0
H1007 H 0.62638 0.06731 0.00782 0.0
S1008 S 0.58215 0.09553 0.9347 0.0
N1009 N 0.62411 0.10985 0.93841 0.0
N1010 N 0.56556 0.0766 0.95443 0.0
C1011 C 0.59443 0.08132 0.96511 0.0
C1012 C 0.62622 0.09963 0.95648 0.0
C1013 C 0.90457 0.5728 0.97879 0.0
C1014 C 0.88614 0.55875 0.95999 0.0
C1015 C 0.92662 0.56174 0.98668 0.0
C1016 C 0.93147 0.53634 0.97605 0.0
H1017 H 0.9016 0.59229 0.9876 0.0
H1018 H 0.94006 0.5734 1.00127 0.0
S1019 S 0.88966 0.49192 0.92586 0.0
N1020 N 0.8745 0.51858 0.93071 0.0
N1021 N 0.91589 0.49758 0.94552 0.0
C1022 C 0.91335 0.52223 0.95712 0.0
C1023 C 0.89065 0.5334 0.94912 0.0
C1024 C 0.4762 0.37734 0.96755 0.0
C1025 C 0.4807 0.35213 0.97671 0.0
C1026 C 0.47735 0.40581 0.97871 0.0
C1027 C 0.48278 0.40998 0.99937 0.0
H1028 H 0.47321 0.37587 0.95162 0.0
H1029 H 0.47556 0.42548 0.97106 0.0
S1030 S 0.49269 0.34943 0.03051 0.0
N1031 N 0.48838 0.33181 0.00769 0.0
N1032 N 0.49056 0.38539 0.02863 0.0
C1033 C 0.48604 0.38429 0.00873 0.0
C1034 C 0.48498 0.35534 0.9974 0.0
C1035 C 0.13698 0.62139 0.03344 0.0
C1036 C 0.12901 0.64539 0.04287 0.0
C1037 C 0.11245 0.59307 0.02013 0.0
C1038 C 0.07884 0.58742 0.01577 0.0
H1039 H 0.16258 0.6247 0.03624 0.0
H1040 H 0.11986 0.57525 0.01334 0.0
S1041 S 0.04479 0.64265 0.03635 0.0
N1042 N 0.08504 0.66163 0.04697 0.0
N1043 N 0.03893 0.60849 0.0216 0.0
C1044 C 0.07046 0.61126 0.02495 0.0
C1045 C 0.09556 0.64026 0.03856 0.0
C1046 C 0.33066 0.43974 0.0271 0.0
C1047 C 0.32937 0.43519 0.04726 0.0
C1048 C 0.36157 0.45088 0.01829 0.0
C1049 C 0.39249 0.45842 0.02937 0.0
H1050 H 0.30752 0.4344 0.01805 0.0
H1051 H 0.36133 0.45421 0.00275 0.0
S1052 S 0.40262 0.45074 0.08283 0.0
N1053 N 0.36148 0.43909 0.07806 0.0
N1054 N 0.41945 0.45998 0.06171 0.0
C1055 C 0.39139 0.45386 0.04958 0.0
C1056 C 0.35989 0.44224 0.05846 0.0
C1057 C 0.50332 0.87869 0.02609 0.0
C1058 C 0.53849 0.89431 0.03341 0.0
C1059 C 0.49055 0.89829 0.0172 0.0
C1060 C 0.51245 0.93421 0.01548 0.0
H1061 H 0.48574 0.85096 0.02687 0.0
H1062 H 0.46337 0.8852 0.01159 0.0
S1063 S 0.60629 0.98778 0.03315 0.0
N1064 N 0.59461 0.94809 0.03915 0.0
N1065 N 0.57094 0.98467 0.02212 0.0
C1066 C 0.54753 0.95021 0.02304 0.0
C1067 C 0.56047 0.93032 0.03208 0.0
C1068 C 0.01292 0.24336 0.37192 0.0
C1069 C 0.01776 0.22616 0.38734 0.0
C1070 C 0.04118 0.26749 0.36259 0.0
C1071 C 0.07516 0.27519 0.3684 0.0
H1072 H 0.98719 0.23839 0.36719 0.0
H1073 H 0.03646 0.28054 0.35098 0.0
S1074 S 0.10079 0.23331 0.40608 0.0
N1075 N 0.05859 0.21595 0.40659 0.0
N1076 N 0.11141 0.26108 0.38933 0.0
C1077 C 0.08004 0.25725 0.38339 0.0
C1078 C 0.05144 0.23281 0.39278 0.0
C1079 C 0.75786 0.78403 0.38875 0.0
C1080 C 0.77804 0.77469 0.37758 0.0
C1081 C 0.73622 0.79481 0.37983 0.0
C1082 C 0.73382 0.79653 0.35936 0.0
H1083 H 0.75819 0.78223 0.40447 0.0
H1084 H 0.72079 0.8012 0.38903 0.0
S1085 S 0.78463 0.77889 0.32393 0.0
N1086 N 0.79663 0.77085 0.3453 0.0
N1087 N 0.75578 0.79063 0.32844 0.0
C1088 C 0.75474 0.78831 0.34812 0.0
C1089 C 0.77686 0.7775 0.35724 0.0
C1090 C 0.22513 0.98332 0.36507 0.0
C1091 C 0.20504 0.99962 0.36594 0.0
C1092 C 0.2112 0.94901 0.35592 0.0
C1093 C 0.17664 0.92964 0.34725 0.0
H1094 H 0.2519 0.99723 0.37151 0.0
H1095 H 0.22784 0.93775 0.3555 0.0
S1096 S 0.11312 0.96029 0.34546 0.0
N1097 N 0.14885 0.9939 0.35728 0.0
N1098 N 0.12248 0.92911 0.34022 0.0
C1099 C 0.1561 0.94542 0.34816 0.0
C1100 C 0.17032 0.98045 0.35751 0.0
C1101 C 0.5867 0.68492 0.30246 0.0
C1102 C 0.55026 0.66655 0.30106 0.0
C1103 C 0.60622 0.71939 0.31173 0.0
C1104 C 0.59008 0.73679 0.32005 0.0
H1105 H 0.60026 0.67241 0.29648 0.0
H1106 H 0.63424 0.73219 0.31271 0.0
S1107 S 0.49535 0.70057 0.31997 0.0
N1108 N 0.49871 0.66843 0.3085 0.0
N1109 N 0.53548 0.73347 0.32582 0.0
C1110 C 0.55365 0.71906 0.31839 0.0
C1111 C 0.53372 0.68389 0.30889 0.0
C1112 C 0.32045 0.9081 0.31344 0.0
C1113 C 0.32226 0.88801 0.29715 0.0
C1114 C 0.28916 0.89792 0.32152 0.0
C1115 C 0.25826 0.86729 0.3136 0.0
H1116 H 0.34341 0.93218 0.3199 0.0
H1117 H 0.28918 0.9145 0.33395 0.0
S1118 S 0.24949 0.80406 0.27185 0.0
N1119 N 0.29077 0.8351 0.27399 0.0
N1120 N 0.23183 0.81602 0.28904 0.0
C1121 C 0.25971 0.84675 0.2974 0.0
C1122 C 0.29169 0.8571 0.2892 0.0
C1123 C 0.12865 0.4365 0.30828 0.0
C1124 C 0.15749 0.4635 0.30071 0.0
C1125 C 0.13282 0.41588 0.32174 0.0
C1126 C 0.16602 0.42235 0.32841 0.0
H1127 H 0.10281 0.43153 0.3039 0.0
H1128 H 0.11011 0.39553 0.32741 0.0
S1129 S 0.2496 0.489 0.31246 0.0
N1130 N 0.22009 0.49461 0.30032 0.0
N1131 N 0.22797 0.45654 0.3258 0.0
C1132 C 0.1949 0.44881 0.32066 0.0
C1133 C 0.19062 0.46923 0.30675 0.0
C1134 C 0.29489 0.42833 0.28961 0.0
C1135 C 0.32751 0.44051 0.30007 0.0
C1136 C 0.26427 0.41006 0.29861 0.0
C1137 C 0.26515 0.40308 0.31839 0.0
H1138 H 0.29307 0.43334 0.27443 0.0
H1139 H 0.23978 0.40157 0.29 0.0
S1140 S 0.3444 0.42738 0.35161 0.0
N1141 N 0.35903 0.44298 0.33081 0.0
N1142 N 0.30182 0.40877 0.3478 0.0
C1143 C 0.29776 0.41477 0.32888 0.0
C1144 C 0.32883 0.43342 0.3197 0.0
C1145 C 0.55287 0.87906 0.31159 0.0
C1146 C 0.55253 0.88552 0.29177 0.0
C1147 C 0.57539 0.86868 0.31969 0.0
C1148 C 0.5982 0.86393 0.30824 0.0
H1149 H 0.53611 0.88281 0.32104 0.0
H1150 H 0.57478 0.86428 0.33507 0.0
S1151 S 0.60629 0.87626 0.25524 0.0
N1152 N 0.57612 0.8856 0.26069 0.0
N1153 N 0.61843 0.86597 0.2758 0.0
C1154 C 0.59764 0.86973 0.28825 0.0
C1155 C 0.57488 0.88061 0.28007 0.0
C1156 C 0.14015 0.70866 0.30021 0.0
C1157 C 0.15244 0.68845 0.30894 0.0
C1158 C 0.14231 0.73809 0.31092 0.0
C1159 C 0.1571 0.74849 0.33059 0.0
H1160 H 0.13035 0.70275 0.28475 0.0
H1161 H 0.1342 0.75384 0.30343 0.0
S1162 S 0.18792 0.70133 0.36114 0.0
N1163 N 0.17573 0.67834 0.33919 0.0
N1164 N 0.18076 0.73424 0.35903 0.0
C1165 C 0.16767 0.72742 0.33978 0.0
C1166 C 0.16508 0.69725 0.32903 0.0
C1167 C 0.76617 0.97436 0.36791 0.0
C1168 C 0.79662 0.97641 0.3765 0.0
C1169 C 0.74104 0.94417 0.35574 0.0
C1170 C 0.74588 0.91541 0.35163 0.0
H1171 H 0.76232 0.99665 0.37004 0.0
H1172 H 0.71848 0.94393 0.34886 0.0
S1173 S 0.81767 0.905 0.37323 0.0
N1174 N 0.82742 0.94488 0.38224 0.0
N1175 N 0.78101 0.88901 0.35881 0.0
C1176 C 0.77517 0.91639 0.36092 0.0
C1177 C 0.80036 0.94669 0.37351 0.0
C1178 C 0.03302 0.78427 0.3923 0.0
C1179 C 0.00205 0.77763 0.38177 0.0
C1180 C 0.0635 0.79559 0.3831 0.0
C1181 C 0.06412 0.80017 0.36291 0.0
H1182 H 0.03376 0.78098 0.40783 0.0
H1183 H 0.0867 0.80047 0.39192 0.0
S1184 S 0.9894 0.78551 0.3287 0.0
N1185 N 0.97355 0.77598 0.35007 0.0
N1186 N 0.03066 0.79704 0.3327 0.0
C1187 C 0.03315 0.79336 0.35219 0.0
C1188 C 0.00222 0.78221 0.36163 0.0
C1189 C 0.16975 0.21522 0.36555 0.0
C1190 C 0.20468 0.23029 0.37325 0.0
C1191 C 0.15812 0.23483 0.35565 0.0
C1192 C 0.18107 0.2701 0.35304 0.0
H1193 H 0.15135 0.188 0.36708 0.0
H1194 H 0.13104 0.22221 0.34993 0.0
S1195 S 0.27537 0.32134 0.36967 0.0
N1196 N 0.2622 0.28234 0.37718 0.0
N1197 N 0.24046 0.31908 0.35858 0.0
C1198 C 0.21599 0.28552 0.36076 0.0
C1199 C 0.22777 0.26564 0.37087 0.0
C1200 C 0.67972 0.55466 0.70091 0.0
C1201 C 0.6816 0.5577 0.72163 0.0
C1202 C 0.70624 0.57999 0.6911 0.0
C1203 C 0.73557 0.60922 0.70169 0.0
H1204 H 0.6585 0.53166 0.69225 0.0
H1205 H 0.70457 0.57563 0.6752 0.0
S1206 S 0.74992 0.63204 0.75607 0.0
N1207 N 0.71295 0.59426 0.75225 0.0
N1208 N 0.76265 0.64169 0.73404 0.0
C1209 C 0.73648 0.61365 0.72237 0.0
C1210 C 0.70957 0.58794 0.73228 0.0
C1211 C 0.4356 0.09674 0.6927 0.0
C1212 C 0.44293 0.10029 0.71327 0.0
C1213 C 0.41485 0.10876 0.68407 0.0
C1214 C 0.40044 0.12479 0.69565 0.0
H1215 H 0.4461 0.08461 0.68315 0.0
H1216 H 0.4101 0.10535 0.66815 0.0
S1217 S 0.41087 0.13921 0.75039 0.0
N1218 N 0.43363 0.12025 0.74508 0.0
N1219 N 0.39471 0.14299 0.72899 0.0
C1220 C 0.4077 0.12862 0.7163 0.0
C1221 C 0.42892 0.11638 0.72507 0.0
C1222 C 0.8941 0.31287 0.69978 0.0
C1223 C 0.87344 0.32857 0.69954 0.0
C1224 C 0.88097 0.27822 0.6914 0.0
C1225 C 0.84666 0.25792 0.68242 0.0
H1226 H 0.9207 0.32749 0.70652 0.0
H1227 H 0.89803 0.26743 0.69183 0.0
S1228 S 0.78189 0.28675 0.67783 0.0
N1229 N 0.81701 0.3213 0.68949 0.0
N1230 N 0.79213 0.25589 0.67391 0.0
C1231 C 0.82556 0.27313 0.68222 0.0
C1232 C 0.83897 0.30849 0.69078 0.0
C1233 C 0.25193 0.01431 0.6394 0.0
C1234 C 0.21552 0.99714 0.63797 0.0
C1235 C 0.27246 0.0485 0.64892 0.0
C1236 C 0.25742 0.0669 0.65741 0.0
H1237 H 0.2647 0.00117 0.63313 0.0
H1238 H 0.30039 0.06041 0.64979 0.0
S1239 S 0.16327 0.03379 0.65775 0.0
N1240 N 0.1652 0.00104 0.64593 0.0
N1241 N 0.20389 0.06562 0.66362 0.0
C1242 C 0.22105 0.05028 0.65591 0.0
C1243 C 0.20008 0.01536 0.6462 0.0
C1244 C 0.96438 0.1955 0.62509 0.0
C1245 C 0.99596 0.22463 0.63366 0.0
C1246 C 0.93337 0.18524 0.63363 0.0
C1247 C 0.93272 0.20369 0.6511 0.0
H1248 H 0.96372 0.18015 0.61185 0.0
H1249 H 0.90984 0.16233 0.62662 0.0
S1250 S 0.00785 0.28405 0.67821 0.0
N1251 N 0.02418 0.27335 0.65975 0.0
N1252 N 0.96626 0.25394 0.67592 0.0
C1253 C 0.96403 0.23334 0.65956 0.0
C1254 C 0.99551 0.24383 0.65082 0.0
C1255 C 0.85136 0.80773 0.64757 0.0
C1256 C 0.81888 0.79833 0.63786 0.0
C1257 C 0.85527 0.78539 0.65959 0.0
C1258 C 0.82688 0.75266 0.66243 0.0
H1259 H 0.87406 0.83269 0.64586 0.0
H1260 H 0.88092 0.79398 0.66671 0.0
S1261 S 0.73612 0.71571 0.64051 0.0
N1262 N 0.75769 0.75403 0.63176 0.0
N1263 N 0.76499 0.71196 0.65472 0.0
C1264 C 0.79422 0.74262 0.65268 0.0
C1265 C 0.79025 0.76545 0.64027 0.0
C1266 C 0.95552 0.7583 0.62099 0.0
C1267 C 0.98824 0.77035 0.6313 0.0
C1268 C 0.92498 0.73917 0.62996 0.0
C1269 C 0.92608 0.73118 0.64951 0.0
H1270 H 0.95356 0.76417 0.60602 0.0
H1271 H 0.90039 0.73087 0.62151 0.0
S1272 S 0.00568 0.75419 0.68203 0.0
N1273 N 0.02007 0.77118 0.66149 0.0
N1274 N 0.96308 0.7354 0.67839 0.0
C1275 C 0.9588 0.74249 0.65975 0.0
C1276 C 0.98975 0.762 0.65063 0.0
C1277 C 0.22255 0.20886 0.64475 0.0
C1278 C 0.2224 0.21525 0.62493 0.0
C1279 C 0.24494 0.19843 0.65297 0.0
C1280 C 0.26779 0.19351 0.64163 0.0
H1281 H 0.20575 0.21272 0.65411 0.0
H1282 H 0.2442 0.19412 0.66837 0.0
S1283 S 0.27611 0.20538 0.58861 0.0
N1284 N 0.24613 0.21509 0.59394 0.0
N1285 N 0.28803 0.19506 0.60924 0.0
C1286 C 0.26732 0.19912 0.62162 0.0
C1287 C 0.24475 0.21016 0.61332 0.0
C1288 C 0.85792 0.05273 0.64706 0.0
C1289 C 0.8254 0.02772 0.63709 0.0
C1290 C 0.86155 0.07984 0.66061 0.0
C1291 C 0.83284 0.08318 0.66468 0.0
H1292 H 0.88079 0.05114 0.64452 0.0
H1293 H 0.88721 0.09858 0.66777 0.0
S1294 S 0.74195 0.02448 0.64274 0.0
N1295 N 0.76387 0.00805 0.63221 0.0
N1296 N 0.77065 0.05883 0.65806 0.0
C1297 C 0.80009 0.05826 0.65499 0.0
C1298 C 0.79637 0.03055 0.64113 0.0
C1299 C 0.4303 0.29933 0.70321 0.0
C1300 C 0.46563 0.30945 0.70568 0.0
C1301 C 0.40604 0.26851 0.69114 0.0
C1302 C 0.41632 0.24671 0.68131 0.0
H1303 H 0.42147 0.31556 0.71045 0.0
H1304 H 0.37918 0.2619 0.68939 0.0
S1305 S 0.50528 0.25996 0.68457 0.0
N1306 N 0.50923 0.29414 0.69838 0.0
N1307 N 0.46397 0.23649 0.67582 0.0
C1308 C 0.45147 0.25624 0.68405 0.0
C1309 C 0.47604 0.28753 0.69622 0.0
C1310 C 0.67406 0.09685 0.69821 0.0
C1311 C 0.67352 0.10801 0.71788 0.0
C1312 C 0.7054 0.10804 0.68995 0.0
C1313 C 0.7376 0.13098 0.70101 0.0
H1314 H 0.65001 0.0789 0.68915 0.0
H1315 H 0.70426 0.0984 0.67478 0.0
S1316 S 0.75011 0.16956 0.75297 0.0
N1317 N 0.70767 0.14429 0.74802 0.0
N1318 N 0.76662 0.16548 0.73268 0.0
C1319 C 0.73734 0.14265 0.72071 0.0
C1320 C 0.70535 0.13111 0.7291 0.0
C1321 C 0.834 0.54277 0.69595 0.0
C1322 C 0.86907 0.55832 0.70345 0.0
C1323 C 0.82159 0.56221 0.68655 0.0
C1324 C 0.8439 0.59778 0.68422 0.0
H1325 H 0.81604 0.51538 0.69738 0.0
H1326 H 0.79439 0.54926 0.68103 0.0
S1327 S 0.93847 0.65005 0.70012 0.0
N1328 N 0.92615 0.61093 0.70724 0.0
N1329 N 0.90303 0.64735 0.68952 0.0
C1330 C 0.87907 0.61354 0.69154 0.0
C1331 C 0.89161 0.59383 0.70118 0.0
C1332 C 0.46406 0.98491 0.1688 0.0
C1333 C 0.47508 0.96453 0.1785 0.0
C1334 C 0.47272 0.99384 0.14983 0.0
C1335 C 0.49251 0.98252 0.13976 0.0
H1336 H 0.44911 0.9946 0.17606 0.0
H1337 H 0.46429 0.01019 0.1431 0.0
S1338 S 0.52794 0.92874 0.15847 0.0
N1339 N 0.50701 0.93335 0.17648 0.0
N1340 N 0.52269 0.94966 0.1407 0.0
C1341 C 0.50286 0.96128 0.14898 0.0
C1342 C 0.49427 0.95238 0.16838 0.0
C1343 C 0.10598 0.56504 0.15924 0.0
C1344 C 0.08647 0.55004 0.17491 0.0
C1345 C 0.08982 0.56021 0.14022 0.0
C1346 C 0.05354 0.54013 0.13616 0.0
H1347 H 0.13402 0.58068 0.1617 0.0
H1348 H 0.10583 0.5723 0.1286 0.0
S1349 S 0.99059 0.49641 0.17213 0.0
N1350 N 0.0289 0.51497 0.1852 0.0
N1351 N 0.99847 0.50577 0.14937 0.0
C1352 C 0.0337 0.52475 0.15163 0.0
C1353 C 0.05017 0.52972 0.17102 0.0
C1354 C 0.48475 0.5364 0.17039 0.0
C1355 C 0.48326 0.50863 0.18001 0.0
C1356 C 0.49323 0.54041 0.15097 0.0
C1357 C 0.50034 0.51667 0.14037 0.0
H1358 H 0.4803 0.5558 0.17812 0.0
H1359 H 0.49441 0.5624 0.14422 0.0
S1360 S 0.49829 0.43853 0.15856 0.0
N1361 N 0.48802 0.45607 0.1772 0.0
N1362 N 0.50462 0.46397 0.14083 0.0
C1363 C 0.49812 0.4883 0.14966 0.0
C1364 C 0.48951 0.48423 0.16944 0.0
C1365 C 0.98633 0.5088 0.83543 0.0
C1366 C 0.95685 0.48107 0.82412 0.0
C1367 C 0.99294 0.50778 0.85556 0.0
C1368 C 0.97036 0.47895 0.86514 0.0
H1369 H 0.00462 0.53135 0.82862 0.0
H1370 H 0.01612 0.5296 0.86366 0.0
S1371 S 0.88999 0.39926 0.84201 0.0
N1372 N 0.90499 0.42387 0.82386 0.0
N1373 N 0.91749 0.42184 0.86174 0.0
C1374 C 0.94046 0.4513 0.85407 0.0
C1375 C 0.9337 0.45238 0.83355 0.0
C1376 C 0.49535 0.43856 0.83878 0.0
C1377 C 0.5314 0.45653 0.83774 0.0
C1378 C 0.48152 0.44024 0.85643 0.0
C1379 C 0.50318 0.45998 0.87373 0.0
H1380 H 0.47769 0.42248 0.82594 0.0
H1381 H 0.45362 0.42555 0.85659 0.0
S1382 S 0.59924 0.51428 0.87839 0.0
N1383 N 0.58842 0.49623 0.85526 0.0
N1384 N 0.56243 0.49955 0.88839 0.0
C1385 C 0.53926 0.47857 0.87281 0.0
C1386 C 0.55334 0.47682 0.85483 0.0
C1387 C 0.50893 0.0539 0.84619 0.0
C1388 C 0.51629 0.03097 0.83496 0.0
C1389 C 0.50127 0.04905 0.86576 0.0
C1390 C 0.50118 0.02139 0.87491 0.0
H1391 H 0.50791 0.07501 0.83959 0.0
H1392 H 0.49497 0.06682 0.87374 0.0
S1393 S 0.52064 0.95533 0.85218 0.0
N1394 N 0.5246 0.98064 0.83469 0.0
N1395 N 0.51004 0.97139 0.87133 0.0
C1396 C 0.50959 0.99901 0.86401 0.0
C1397 C 0.51714 0.0038 0.84409 0.0
C1398 C 0.13042 0.31241 0.50157 0.0
C1399 C 0.14545 0.29613 0.51206 0.0
C1400 C 0.13947 0.32247 0.48282 0.0
C1401 C 0.16379 0.31652 0.47376 0.0
H1402 H 0.11194 0.31799 0.50806 0.0
H1403 H 0.12771 0.3355 0.47546 0.0
S1404 S 0.21085 0.27505 0.49489 0.0
N1405 N 0.18597 0.27459 0.51191 0.0
N1406 N 0.20259 0.29314 0.47657 0.0
C1407 C 0.17829 0.2994 0.4838 0.0
C1408 C 0.16922 0.28928 0.50295 0.0
C1409 C 0.74724 0.85065 0.49209 0.0
C1410 C 0.74549 0.87241 0.50746 0.0
C1411 C 0.73094 0.84609 0.47311 0.0
C1412 C 0.71228 0.8631 0.4688 0.0
H1413 H 0.76138 0.83709 0.49476 0.0
H1414 H 0.73286 0.82901 0.46174 0.0
S1415 S 0.70179 0.92466 0.5035 0.0
N1416 N 0.7248 0.91223 0.51689 0.0
N1417 N 0.69415 0.90364 0.48124 0.0
C1418 C 0.71037 0.88497 0.48402 0.0
C1419 C 0.72695 0.88961 0.50333 0.0
C1420 C 0.1272 0.83636 0.49843 0.0
C1421 C 0.15356 0.85109 0.51429 0.0
C1422 C 0.13517 0.83988 0.47886 0.0
C1423 C 0.16979 0.85858 0.47447 0.0
H1424 H 0.10023 0.82159 0.50116 0.0
H1425 H 0.11409 0.82812 0.46709 0.0
S1426 S 0.2483 0.90264 0.5107 0.0
N1427 N 0.21561 0.88583 0.52429 0.0
N1428 N 0.23059 0.89167 0.48762 0.0
C1429 C 0.19634 0.87356 0.49021 0.0
C1430 C 0.18824 0.86999 0.51008 0.0
C1431 C 0.5955 0.78965 0.16882 0.0
C1432 C 0.61473 0.8186 0.15841 0.0
C1433 C 0.60497 0.79047 0.18883 0.0
C1434 C 0.63422 0.82014 0.19909 0.0
H1435 H 0.57343 0.76587 0.16132 0.0
H1436 H 0.59017 0.76716 0.1961 0.0
S1437 S 0.69186 0.90363 0.17904 0.0
N1438 N 0.66345 0.87837 0.16014 0.0
N1439 N 0.68087 0.88002 0.19782 0.0
C1440 C 0.6528 0.84977 0.18909 0.0
C1441 C 0.64312 0.849 0.16875 0.0
C1442 C 0.16458 0.7802 0.17248 0.0
C1443 C 0.20029 0.79294 0.17205 0.0
C1444 C 0.15098 0.78264 0.1901 0.0
C1445 C 0.17256 0.79786 0.20797 0.0
H1446 H 0.14689 0.76758 0.15916 0.0
H1447 H 0.12327 0.77202 0.18979 0.0
S1448 S 0.26826 0.8382 0.21449 0.0
N1449 N 0.25725 0.82337 0.19084 0.0
N1450 N 0.23166 0.82791 0.22392 0.0
C1451 C 0.20839 0.81134 0.20768 0.0
C1452 C 0.22225 0.80891 0.18975 0.0
C1453 C 0.17174 0.39507 0.18259 0.0
C1454 C 0.18573 0.37856 0.17102 0.0
C1455 C 0.16478 0.38754 0.20199 0.0
C1456 C 0.17108 0.36285 0.21044 0.0
H1457 H 0.16555 0.41349 0.17646 0.0
H1458 H 0.15313 0.40013 0.21015 0.0
S1459 S 0.2091 0.31366 0.18682 0.0
N1460 N 0.20676 0.33733 0.16977 0.0
N1461 N 0.19388 0.32341 0.20619 0.0
C1462 C 0.18607 0.34701 0.19927 0.0
C1463 C 0.19339 0.35484 0.1796 0.0
C1464 C 0.79563 0.6162 0.83014 0.0
C1465 C 0.81131 0.64128 0.84682 0.0
C1466 C 0.80464 0.62536 0.81121 0.0
C1467 C 0.82968 0.6599 0.80834 0.0
H1468 H 0.77607 0.58939 0.83171 0.0
H1469 H 0.79172 0.60537 0.79871 0.0
S1470 S 0.88068 0.73438 0.84741 0.0
N1471 N 0.85457 0.70148 0.85936 0.0
N1472 N 0.87151 0.71863 0.8239 0.0
C1473 C 0.84591 0.68502 0.82495 0.0
C1474 C 0.83673 0.67573 0.84415 0.0
C1475 C 0.42197 0.19697 0.82717 0.0
C1476 C 0.42076 0.22004 0.84191 0.0
C1477 C 0.40618 0.1919 0.80797 0.0
C1478 C 0.38825 0.20935 0.80297 0.0
H1479 H 0.43569 0.18319 0.83042 0.0
H1480 H 0.40773 0.17397 0.79701 0.0
S1481 S 0.37721 0.27211 0.83627 0.0
N1482 N 0.39992 0.26013 0.85028 0.0
N1483 N 0.37032 0.25066 0.81421 0.0
C1484 C 0.38665 0.23227 0.81761 0.0
C1485 C 0.40292 0.23763 0.83707 0.0
C1486 C 0.85186 0.19406 0.84604 0.0
C1487 C 0.81752 0.1815 0.85033 0.0
C1488 C 0.86045 0.19733 0.82665 0.0
C1489 C 0.83503 0.18801 0.81071 0.0
H1490 H 0.87242 0.20187 0.85782 0.0
H1491 H 0.88725 0.20699 0.82411 0.0
S1492 S 0.74119 0.15344 0.81396 0.0
N1493 N 0.7578 0.15925 0.83704 0.0
N1494 N 0.77403 0.16582 0.80053 0.0
C1495 C 0.80053 0.17526 0.81476 0.0
C1496 C 0.79178 0.17203 0.83457 0.0
C1497 C 0.27424 0.12365 0.50132 0.0
C1498 C 0.2981 0.15222 0.49206 0.0
C1499 C 0.28087 0.12095 0.52122 0.0
C1500 C 0.31145 0.14688 0.53263 0.0
H1501 H 0.25075 0.1027 0.49298 0.0
H1502 H 0.26205 0.09822 0.52769 0.0
S1503 S 0.38136 0.22781 0.51556 0.0
N1504 N 0.35268 0.20777 0.49599 0.0
N1505 N 0.36542 0.20245 0.53329 0.0
C1506 C 0.33506 0.17606 0.52367 0.0
C1507 C 0.32835 0.17875 0.50341 0.0
C1508 C 0.83268 0.09586 0.51096 0.0
C1509 C 0.86277 0.12396 0.50508 0.0
C1510 C 0.82163 0.0984 0.52943 0.0
C1511 C 0.84028 0.12913 0.54275 0.0
H1512 H 0.81754 0.07167 0.50119 0.0
H1513 H 0.7982 0.07616 0.5333 0.0
S1514 S 0.92188 0.20941 0.53488 0.0
N1515 N 0.91165 0.18303 0.51424 0.0
N1516 N 0.89097 0.1878 0.54904 0.0
C1517 C 0.87042 0.15744 0.53705 0.0
C1518 C 0.88163 0.15486 0.5182 0.0
C1519 C 0.83709 0.72549 0.51608 0.0
C1520 C 0.85218 0.70998 0.50469 0.0
C1521 C 0.82893 0.71682 0.53517 0.0
C1522 C 0.83508 0.69191 0.54346 0.0
H1523 H 0.831 0.74404 0.51003 0.0
H1524 H 0.81652 0.72871 0.54322 0.0
S1525 S 0.87554 0.64494 0.5202 0.0
N1526 N 0.87401 0.66941 0.50342 0.0
N1527 N 0.8588 0.65326 0.53929 0.0
C1528 C 0.85108 0.677 0.53248 0.0
C1529 C 0.85964 0.68603 0.51312 0.0
loop_
_geom_bond_atom_site_label_1
_geom_bond_atom_site_label_2
_geom_bond_distance
_geom_bond_site_symmetry_2
_ccdc_geom_bond_type
P0 O11 1.490 . S
P0 C14 1.812 . S
P0 C20 1.803 . S
P0 C26 1.819 . S
H1 C15 0.941 . S
H2 C16 0.939 . S
H3 C18 0.940 . S
H4 C19 0.940 . S
H5 C21 0.939 . S
H6 C22 0.942 . S
H7 C24 0.940 . S
H8 C25 0.939 . S
H9 C27 0.941 . S
H10 C31 0.939 . S
O11 P0 1.490 . S
H12 C28 0.939 . S
H13 C30 0.940 . S
C14 P0 1.812 . S
C14 C15 1.389 . S
C14 C19 1.391 . S
C15 H1 0.941 . S
C15 C14 1.389 . S
C15 C16 1.397 . S
C16 H2 0.939 . S
C16 C15 1.397 . S
C16 C17 1.378 . S
C17 C16 1.378 . S
C17 C18 1.378 . S
C18 H3 0.940 . S
C18 C17 1.378 . S
C18 C19 1.396 . S
C19 H4 0.940 . S
C19 C14 1.391 . S
C19 C18 1.396 . S
C20 P0 1.803 . S
C20 C21 1.378 . S
C20 C25 1.400 . S
C21 H5 0.939 . S
C21 C20 1.378 . S
C21 C22 1.361 . S
C22 H6 0.942 . S
C22 C21 1.361 . S
C22 C23 1.369 . S
C23 C22 1.369 . S
C23 C24 1.404 . S
C24 H7 0.940 . S
C24 C23 1.404 . S
C24 C25 1.389 . S
C25 H8 0.939 . S
C25 C20 1.400 . S
C25 C24 1.389 . S
C26 P0 1.819 . S
C26 C27 1.391 . S
C26 C31 1.391 . S
C27 H9 0.941 . S
C27 C26 1.391 . S
C27 C28 1.396 . S
C28 H12 0.939 . S
C28 C27 1.396 . S
C28 C29 1.397 . S
C29 C28 1.397 . S
C29 C30 1.385 . S
C30 H13 0.940 . S
C30 C29 1.385 . S
C30 C31 1.388 . S
C31 H10 0.939 . S
C31 C26 1.391 . S
C31 C30 1.388 . S
P32 O43 1.490 . S
P32 C46 1.812 . S
P32 C52 1.803 . S
P32 C58 1.819 . S
H33 C47 0.941 . S
H34 C48 0.939 . S
H35 C50 0.940 . S
H36 C51 0.940 . S
H37 C53 0.939 . S
H38 C54 0.930 1_455 S
H39 C56 0.940 . S
H40 C57 0.939 . S
H41 C59 0.941 . S
H42 C63 0.939 . S
O43 P32 1.490 . S
H44 C60 0.939 . S
H45 C62 0.940 . S
C46 P32 1.812 . S
C46 C47 1.389 . S
C46 C51 1.391 . S
C47 H33 0.941 . S
C47 C46 1.389 . S
C47 C48 1.397 . S
C48 H34 0.939 . S
C48 C47 1.397 . S
C48 C49 1.378 . S
C49 C48 1.378 . S
C49 C50 1.378 . S
C50 H35 0.940 . S
C50 C49 1.378 . S
C50 C51 1.396 . S
C51 H36 0.940 . S
C51 C46 1.391 . S
C51 C50 1.396 . S
C52 P32 1.803 . S
C52 C53 1.378 . S
C52 C57 1.400 . S
C53 H37 0.939 . S
C53 C52 1.378 . S
C53 C54 1.361 . S
C54 H38 0.930 1_655 S
C54 C53 1.361 . S
C54 C55 1.369 . S
C55 C54 1.369 . S
C55 C56 1.404 . S
C56 H39 0.940 . S
C56 C55 1.404 . S
C56 C57 1.389 . S
C57 H40 0.939 . S
C57 C52 1.400 . S
C57 C56 1.389 . S
C58 P32 1.819 . S
C58 C59 1.391 . S
C58 C63 1.391 . S
C59 H41 0.941 . S
C59 C58 1.391 . S
C59 C60 1.396 . S
C60 H44 0.939 . S
C60 C59 1.396 . S
C60 C61 1.397 . S
C61 C60 1.397 . S
C61 C62 1.385 . S
C62 H45 0.940 . S
C62 C61 1.385 . S
C62 C63 1.388 . S
C63 H42 0.939 . S
C63 C58 1.391 . S
C63 C62 1.388 . S
P64 O75 1.490 . S
P64 C78 1.812 . S
P64 C84 1.803 . S
P64 C90 1.819 . S
H65 C79 0.941 . S
H66 C80 0.939 . S
H67 C82 0.940 . S
H68 C83 0.940 . S
H69 C85 0.939 . S
H70 C86 0.942 . S
H71 C88 0.940 . S
H72 C89 0.939 . S
H73 C91 0.941 . S
H74 C95 0.939 . S
O75 P64 1.490 . S
H76 C92 0.939 . S
H77 C94 0.940 . S
C78 P64 1.812 . S
C78 C79 1.389 . S
C78 C83 1.391 . S
C79 H65 0.941 . S
C79 C78 1.389 . S
C79 C80 1.397 . S
C80 H66 0.939 . S
C80 C79 1.397 . S
C80 C81 1.378 . S
C81 C80 1.378 . S
C81 C82 1.378 . S
C82 H67 0.940 . S
C82 C81 1.378 . S
C82 C83 1.396 . S
C83 H68 0.940 . S
C83 C78 1.391 . S
C83 C82 1.396 . S
C84 P64 1.803 . S
C84 C85 1.378 . S
C84 C89 1.400 . S
C85 H69 0.939 . S
C85 C84 1.378 . S
C85 C86 1.361 . S
C86 H70 0.942 . S
C86 C85 1.361 . S
C86 C87 1.369 . S
C87 C86 1.369 . S
C87 C88 1.404 . S
C88 H71 0.940 . S
C88 C87 1.404 . S
C88 C89 1.389 . S
C89 H72 0.939 . S
C89 C84 1.400 . S
C89 C88 1.389 . S
C90 P64 1.819 . S
C90 C91 1.391 . S
C90 C95 1.391 . S
C91 H73 0.941 . S
C91 C90 1.391 . S
C91 C92 1.396 . S
C92 H76 0.939 . S
C92 C91 1.396 . S
C92 C93 1.397 . S
C93 C92 1.397 . S
C93 C94 1.385 . S
C94 H77 0.940 . S
C94 C93 1.385 . S
C94 C95 1.388 . S
C95 H74 0.939 . S
C95 C90 1.391 . S
C95 C94 1.388 . S
P96 O107 1.490 . S
P96 C110 1.812 . S
P96 C116 1.803 . S
P96 C122 1.819 . S
H97 C111 0.941 . S
H98 C112 0.939 . S
H99 C114 0.940 . S
H100 C115 0.940 . S
H101 C117 0.939 . S
H102 C118 0.942 . S
H103 C120 0.940 . S
H104 C121 0.939 . S
H105 C123 0.941 . S
H106 C127 0.939 . S
O107 P96 1.490 . S
H108 C124 0.939 . S
H109 C126 0.940 . S
C110 P96 1.812 . S
C110 C111 1.389 . S
C110 C115 1.391 . S
C111 H97 0.941 . S
C111 C110 1.389 . S
C111 C112 1.397 . S
C112 H98 0.939 . S
C112 C111 1.397 . S
C112 C113 1.378 . S
C113 C112 1.378 . S
C113 C114 1.378 . S
C114 H99 0.940 . S
C114 C113 1.378 . S
C114 C115 1.396 . S
C115 H100 0.940 . S
C115 C110 1.391 . S
C115 C114 1.396 . S
C116 P96 1.803 . S
C116 C117 1.378 . S
C116 C121 1.400 . S
C117 H101 0.939 . S
C117 C116 1.378 . S
C117 C118 1.361 . S
C118 H102 0.942 . S
C118 C117 1.361 . S
C118 C119 1.369 . S
C119 C118 1.369 . S
C119 C120 1.404 . S
C120 H103 0.940 . S
C120 C119 1.404 . S
C120 C121 1.389 . S
C121 H104 0.939 . S
C121 C116 1.400 . S
C121 C120 1.389 . S
C122 P96 1.819 . S
C122 C123 1.391 . S
C122 C127 1.391 . S
C123 H105 0.941 . S
C123 C122 1.391 . S
C123 C124 1.396 . S
C124 H108 0.939 . S
C124 C123 1.396 . S
C124 C125 1.397 . S
C125 C124 1.397 . S
C125 C126 1.385 . S
C126 H109 0.940 . S
C126 C125 1.385 . S
C126 C127 1.388 . S
C127 H106 0.939 . S
C127 C122 1.391 . S
C127 C126 1.388 . S
P128 O139 1.490 . S
P128 C142 1.812 . S
P128 C148 1.803 . S
P128 C154 1.819 . S
H129 C143 0.941 . S
H130 C144 0.939 . S
H131 C146 0.940 . S
H132 C147 0.940 . S
H133 C149 0.939 . S
H134 C150 0.942 . S
H135 C152 0.940 . S
H136 C153 0.939 . S
H137 C155 0.941 . S
H138 C159 0.939 . S
O139 P128 1.490 . S
H140 C156 0.939 . S
H141 C158 0.940 . S
C142 P128 1.812 . S
C142 C143 1.389 . S
C142 C147 1.391 . S
C143 H129 0.941 . S
C143 C142 1.389 . S
C143 C144 1.397 . S
C144 H130 0.939 . S
C144 C143 1.397 . S
C144 C145 1.378 . S
C145 C144 1.378 . S
C145 C146 1.378 . S
C146 H131 0.940 . S
C146 C145 1.378 . S
C146 C147 1.396 . S
C147 H132 0.940 . S
C147 C142 1.391 . S
C147 C146 1.396 . S
C148 P128 1.803 . S
C148 C149 1.378 . S
C148 C153 1.400 . S
C149 H133 0.939 . S
C149 C148 1.378 . S
C149 C150 1.361 . S
C150 H134 0.942 . S
C150 C149 1.361 . S
C150 C151 1.369 . S
C151 C150 1.369 . S
C151 C152 1.404 . S
C152 H135 0.940 . S
C152 C151 1.404 . S
C152 C153 1.389 . S
C153 H136 0.939 . S
C153 C148 1.400 . S
C153 C152 1.389 . S
C154 P128 1.819 . S
C154 C155 1.391 . S
C154 C159 1.391 . S
C155 H137 0.941 . S
C155 C154 1.391 . S
C155 C156 1.396 . S
C156 H140 0.939 . S
C156 C155 1.396 . S
C156 C157 1.397 . S
C157 C156 1.397 . S
C157 C158 1.385 . S
C158 H141 0.940 . S
C158 C157 1.385 . S
C158 C159 1.388 . S
C159 H138 0.939 . S
C159 C154 1.391 . S
C159 C158 1.388 . S
P160 O171 1.490 . S
P160 C174 1.812 . S
P160 C180 1.803 . S
P160 C186 1.819 . S
H161 C175 0.941 . S
H162 C176 0.939 . S
H163 C178 0.940 . S
H164 C179 0.940 . S
H165 C181 0.939 . S
H166 C182 0.942 . S
H167 C184 0.940 . S
H168 C185 0.939 . S
H169 C187 0.941 . S
H170 C191 0.939 . S
O171 P160 1.490 . S
H172 C188 0.939 . S
H173 C190 0.940 . S
C174 P160 1.812 . S
C174 C175 1.389 . S
C174 C179 1.391 . S
C175 H161 0.941 . S
C175 C174 1.389 . S
C175 C176 1.397 . S
C176 H162 0.939 . S
C176 C175 1.397 . S
C176 C177 1.378 . S
C177 C176 1.378 . S
C177 C178 1.378 . S
C178 H163 0.940 . S
C178 C177 1.378 . S
C178 C179 1.396 . S
C179 H164 0.940 . S
C179 C174 1.391 . S
C179 C178 1.396 . S
C180 P160 1.803 . S
C180 C181 1.378 . S
C180 C185 1.400 . S
C181 H165 0.939 . S
C181 C180 1.378 . S
C181 C182 1.361 . S
C182 H166 0.942 . S
C182 C181 1.361 . S
C182 C183 1.369 . S
C183 C182 1.369 . S
C183 C184 1.404 . S
C184 H167 0.940 . S
C184 C183 1.404 . S
C184 C185 1.389 . S
C185 H168 0.939 . S
C185 C180 1.400 . S
C185 C184 1.389 . S
C186 P160 1.819 . S
C186 C187 1.391 . S
C186 C191 1.391 . S
C187 H169 0.941 . S
C187 C186 1.391 . S
C187 C188 1.396 . S
C188 H172 0.939 . S
C188 C187 1.396 . S
C188 C189 1.397 . S
C189 C188 1.397 . S
C189 C190 1.385 . S
C190 H173 0.940 . S
C190 C189 1.385 . S
C190 C191 1.388 . S
C191 H170 0.939 . S
C191 C186 1.391 . S
C191 C190 1.388 . S
P192 O203 1.490 . S
P192 C206 1.812 1_455 S
P192 C212 1.803 1_455 S
P192 C218 1.814 1_455 S
H193 C207 0.941 1_455 S
H194 C208 0.939 . S
H195 C210 0.940 . S
H196 C211 0.940 . S
H197 C213 0.939 1_455 S
H198 C214 0.942 . S
H199 C216 0.940 . S
H200 C217 0.939 . S
H201 C219 0.941 . S
H202 C223 0.939 . S
O203 P192 1.490 . S
H204 C220 0.939 . S
H205 C222 0.940 . S
C206 P192 1.812 1_655 S
C206 C207 1.389 . S
C206 C211 1.391 . S
C207 H193 0.941 1_655 S
C207 C206 1.389 . S
C207 C208 1.397 . S
C208 H194 0.939 . S
C208 C207 1.397 . S
C208 C209 1.378 . S
C209 C208 1.378 . S
C209 C210 1.378 . S
C210 H195 0.940 . S
C210 C209 1.378 . S
C210 C211 1.396 . S
C211 H196 0.940 . S
C211 C206 1.391 . S
C211 C210 1.396 . S
C212 P192 1.803 1_655 S
C212 C213 1.378 . S
C212 C217 1.400 . S
C213 H197 0.939 1_655 S
C213 C212 1.378 . S
C213 C214 1.361 . S
C214 H198 0.942 . S
C214 C213 1.361 . S
C214 C215 1.369 . S
C215 C214 1.369 . S
C215 C216 1.404 . S
C216 H199 0.940 . S
C216 C215 1.404 . S
C216 C217 1.389 . S
C217 H200 0.939 . S
C217 C212 1.400 . S
C217 C216 1.389 . S
C218 P192 1.814 1_655 S
C218 C219 1.369 1_655 S
C218 C223 1.418 . S
C219 H201 0.941 . S
C219 C218 1.369 1_455 S
C219 C220 1.396 . S
C220 H204 0.939 . S
C220 C219 1.396 . S
C220 C221 1.397 1_455 S
C221 C220 1.397 1_655 S
C221 C222 1.385 . S
C222 H205 0.940 . S
C222 C221 1.385 . S
C222 C223 1.388 . S
C223 H202 0.939 . S
C223 C218 1.418 . S
C223 C222 1.388 . S
P224 O235 1.490 . S
P224 C238 1.812 . S
P224 C244 1.803 . S
P224 C250 1.819 . S
H225 C239 0.941 . S
H226 C240 0.939 . S
H227 C242 0.940 . S
H228 C243 0.940 . S
H229 C245 0.939 . S
H230 C246 0.942 . S
H231 C248 0.940 . S
H232 C249 0.939 . S
H233 C251 0.941 . S
H234 C255 0.939 . S
O235 P224 1.490 . S
H236 C252 0.939 . S
H237 C254 0.940 . S
C238 P224 1.812 . S
C238 C239 1.389 . S
C238 C243 1.391 . S
C239 H225 0.941 . S
C239 C238 1.389 . S
C239 C240 1.397 . S
C240 H226 0.939 . S
C240 C239 1.397 . S
C240 C241 1.378 . S
C241 C240 1.378 . S
C241 C242 1.378 . S
C242 H227 0.940 . S
C242 C241 1.378 . S
C242 C243 1.396 . S
C243 H228 0.940 . S
C243 C238 1.391 . S
C243 C242 1.396 . S
C244 P224 1.803 . S
C244 C245 1.378 . S
C244 C249 1.400 . S
C245 H229 0.939 . S
C245 C244 1.378 . S
C245 C246 1.361 . S
C246 H230 0.942 . S
C246 C245 1.361 . S
C246 C247 1.369 . S
C247 C246 1.369 . S
C247 C248 1.404 . S
C248 H231 0.940 . S
C248 C247 1.404 . S
C248 C249 1.389 . S
C249 H232 0.939 . S
C249 C244 1.400 . S
C249 C248 1.389 . S
C250 P224 1.819 . S
C250 C251 1.391 . S
C250 C255 1.391 . S
C251 H233 0.941 . S
C251 C250 1.391 . S
C251 C252 1.396 . S
C252 H236 0.939 . S
C252 C251 1.396 . S
C252 C253 1.397 . S
C253 C252 1.397 . S
C253 C254 1.385 . S
C254 H237 0.940 . S
C254 C253 1.385 . S
C254 C255 1.388 . S
C255 H234 0.939 . S
C255 C250 1.391 . S
C255 C254 1.388 . S
P256 O267 1.490 1_545 S
P256 C270 1.812 . S
P256 C276 1.803 . S
P256 C282 1.819 . S
H257 C271 0.941 . S
H258 C272 0.939 . S
H259 C274 0.940 . S
H260 C275 0.940 . S
H261 C277 0.939 . S
H262 C278 0.942 . S
H263 C280 0.940 . S
H264 C281 0.939 . S
H265 C283 0.941 1_565 S
H266 C287 0.939 . S
O267 P256 1.490 1_565 S
H268 C284 0.940 1_565 S
H269 C286 0.940 . S
C270 P256 1.812 . S
C270 C271 1.389 . S
C270 C275 1.391 . S
C271 H257 0.941 . S
C271 C270 1.389 . S
C271 C272 1.397 . S
C272 H258 0.939 . S
C272 C271 1.397 . S
C272 C273 1.378 . S
C273 C272 1.378 . S
C273 C274 1.378 . S
C274 H259 0.940 . S
C274 C273 1.378 . S
C274 C275 1.396 . S
C275 H260 0.940 . S
C275 C270 1.391 . S
C275 C274 1.396 . S
C276 P256 1.803 . S
C276 C277 1.378 . S
C276 C281 1.400 . S
C277 H261 0.939 . S
C277 C276 1.378 . S
C277 C278 1.361 . S
C278 H262 0.942 . S
C278 C277 1.361 . S
C278 C279 1.369 . S
C279 C278 1.369 . S
C279 C280 1.404 . S
C280 H263 0.940 . S
C280 C279 1.404 . S
C280 C281 1.389 . S
C281 H264 0.939 . S
C281 C276 1.400 . S
C281 C280 1.389 . S
C282 P256 1.819 . S
C282 C283 1.391 . S
C282 C287 1.391 . S
C283 H265 0.941 1_545 S
C283 C282 1.391 . S
C283 C284 1.396 . S
C284 H268 0.940 1_545 S
C284 C283 1.396 . S
C284 C285 1.397 . S
C285 C284 1.397 . S
C285 C286 1.385 . S
C286 H269 0.940 . S
C286 C285 1.385 . S
C286 C287 1.388 . S
C287 H266 0.939 . S
C287 C282 1.391 . S
C287 C286 1.388 . S
P288 O299 1.490 . S
P288 C302 1.812 . S
P288 C308 1.803 . S
P288 C314 1.819 . S
H289 C303 0.941 . S
H290 C304 0.939 . S
H291 C306 0.940 . S
H292 C307 0.940 . S
H293 C309 0.939 . S
H294 C310 0.942 . S
H295 C312 0.940 . S
H296 C313 0.939 . S
H297 C315 0.941 . S
H298 C319 0.939 . S
O299 P288 1.490 . S
H300 C316 0.939 . S
H301 C318 0.940 . S
C302 P288 1.812 . S
C302 C303 1.389 . S
C302 C307 1.391 . S
C303 H289 0.941 . S
C303 C302 1.389 . S
C303 C304 1.397 . S
C304 H290 0.939 . S
C304 C303 1.397 . S
C304 C305 1.378 . S
C305 C304 1.378 . S
C305 C306 1.378 . S
C306 H291 0.940 . S
C306 C305 1.378 . S
C306 C307 1.396 . S
C307 H292 0.940 . S
C307 C302 1.391 . S
C307 C306 1.396 . S
C308 P288 1.803 . S
C308 C309 1.378 . S
C308 C313 1.400 . S
C309 H293 0.939 . S
C309 C308 1.378 . S
C309 C310 1.361 . S
C310 H294 0.942 . S
C310 C309 1.361 . S
C310 C311 1.369 . S
C311 C310 1.369 . S
C311 C312 1.404 . S
C312 H295 0.940 . S
C312 C311 1.404 . S
C312 C313 1.389 . S
C313 H296 0.939 . S
C313 C308 1.400 . S
C313 C312 1.389 . S
C314 P288 1.819 . S
C314 C315 1.391 . S
C314 C319 1.391 . S
C315 H297 0.941 . S
C315 C314 1.391 . S
C315 C316 1.396 . S
C316 H300 0.939 . S
C316 C315 1.396 . S
C316 C317 1.397 . S
C317 C316 1.397 . S
C317 C318 1.385 . S
C318 H301 0.940 . S
C318 C317 1.385 . S
C318 C319 1.388 . S
C319 H298 0.939 . S
C319 C314 1.391 . S
C319 C318 1.388 . S
P320 O331 1.490 . S
P320 C334 1.812 . S
P320 C340 1.803 . S
P320 C346 1.819 . S
H321 C335 0.941 . S
H322 C336 0.939 . S
H323 C338 0.940 . S
H324 C339 0.940 . S
H325 C341 0.939 . S
H326 C342 0.942 . S
H327 C344 0.940 . S
H328 C345 0.939 . S
H329 C347 0.941 . S
H330 C351 0.939 . S
O331 P320 1.490 . S
H332 C348 0.939 . S
H333 C350 0.940 . S
C334 P320 1.812 . S
C334 C335 1.389 . S
C334 C339 1.391 . S
C335 H321 0.941 . S
C335 C334 1.389 . S
C335 C336 1.397 . S
C336 H322 0.939 . S
C336 C335 1.397 . S
C336 C337 1.378 . S
C337 C336 1.378 . S
C337 C338 1.378 . S
C338 H323 0.940 . S
C338 C337 1.378 . S
C338 C339 1.396 . S
C339 H324 0.940 . S
C339 C334 1.391 . S
C339 C338 1.396 . S
C340 P320 1.803 . S
C340 C341 1.378 . S
C340 C345 1.400 . S
C341 H325 0.939 . S
C341 C340 1.378 . S
C341 C342 1.361 . S
C342 H326 0.942 . S
C342 C341 1.361 . S
C342 C343 1.369 . S
C343 C342 1.369 . S
C343 C344 1.404 . S
C344 H327 0.940 . S
C344 C343 1.404 . S
C344 C345 1.389 . S
C345 H328 0.939 . S
C345 C340 1.400 . S
C345 C344 1.389 . S
C346 P320 1.819 . S
C346 C347 1.391 . S
C346 C351 1.391 . S
C347 H329 0.941 . S
C347 C346 1.391 . S
C347 C348 1.396 . S
C348 H332 0.939 . S
C348 C347 1.396 . S
C348 C349 1.397 . S
C349 C348 1.397 . S
C349 C350 1.385 . S
C350 H333 0.940 . S
C350 C349 1.385 . S
C350 C351 1.388 . S
C351 H330 0.939 . S
C351 C346 1.391 . S
C351 C350 1.388 . S
P352 O363 1.490 . S
P352 C366 1.812 . S
P352 C372 1.803 . S
P352 C378 1.819 . S
H353 C367 0.941 . S
H354 C368 0.939 . S
H355 C370 0.940 . S
H356 C371 0.940 . S
H357 C373 0.939 . S
H358 C374 0.942 . S
H359 C376 0.940 . S
H360 C377 0.939 . S
H361 C379 0.941 . S
H362 C383 0.939 . S
O363 P352 1.490 . S
H364 C380 0.939 . S
H365 C382 0.940 . S
C366 P352 1.812 . S
C366 C367 1.389 . S
C366 C371 1.391 . S
C367 H353 0.941 . S
C367 C366 1.389 . S
C367 C368 1.397 . S
C368 H354 0.939 . S
C368 C367 1.397 . S
C368 C369 1.378 . S
C369 C368 1.378 . S
C369 C370 1.378 . S
C370 H355 0.940 . S
C370 C369 1.378 . S
C370 C371 1.396 . S
C371 H356 0.940 . S
C371 C366 1.391 . S
C371 C370 1.396 . S
C372 P352 1.803 . S
C372 C373 1.378 . S
C372 C377 1.400 . S
C373 H357 0.939 . S
C373 C372 1.378 . S
C373 C374 1.361 . S
C374 H358 0.942 . S
C374 C373 1.361 . S
C374 C375 1.369 . S
C375 C374 1.369 . S
C375 C376 1.404 . S
C376 H359 0.940 . S
C376 C375 1.404 . S
C376 C377 1.389 . S
C377 H360 0.939 . S
C377 C372 1.400 . S
C377 C376 1.389 . S
C378 P352 1.819 . S
C378 C379 1.391 . S
C378 C383 1.391 . S
C379 H361 0.941 . S
C379 C378 1.391 . S
C379 C380 1.396 . S
C380 H364 0.939 . S
C380 C379 1.396 . S
C380 C381 1.397 . S
C381 C380 1.397 . S
C381 C382 1.385 . S
C382 H365 0.940 . S
C382 C381 1.385 . S
C382 C383 1.388 . S
C383 H362 0.939 . S
C383 C378 1.391 . S
C383 C382 1.388 . S
P384 O395 1.490 . S
P384 C398 1.812 . S
P384 C404 1.803 . S
P384 C410 1.819 . S
H385 C399 0.941 . S
H386 C400 0.939 . S
H387 C402 0.940 . S
H388 C403 0.940 . S
H389 C405 0.939 . S
H390 C406 0.942 . S
H391 C408 0.940 . S
H392 C409 0.939 . S
H393 C411 0.941 . S
H394 C415 0.939 . S
O395 P384 1.490 . S
H396 C412 0.939 . S
H397 C414 0.940 . S
C398 P384 1.812 . S
C398 C399 1.389 . S
C398 C403 1.391 . S
C399 H385 0.941 . S
C399 C398 1.389 . S
C399 C400 1.397 . S
C400 H386 0.939 . S
C400 C399 1.397 . S
C400 C401 1.378 . S
C401 C400 1.378 . S
C401 C402 1.378 . S
C402 H387 0.940 . S
C402 C401 1.378 . S
C402 C403 1.396 . S
C403 H388 0.940 . S
C403 C398 1.391 . S
C403 C402 1.396 . S
C404 P384 1.803 . S
C404 C405 1.378 . S
C404 C409 1.400 . S
C405 H389 0.939 . S
C405 C404 1.378 . S
C405 C406 1.361 . S
C406 H390 0.942 . S
C406 C405 1.361 . S
C406 C407 1.369 . S
C407 C406 1.369 . S
C407 C408 1.404 . S
C408 H391 0.940 . S
C408 C407 1.404 . S
C408 C409 1.389 . S
C409 H392 0.939 . S
C409 C404 1.400 . S
C409 C408 1.389 . S
C410 P384 1.819 . S
C410 C411 1.391 . S
C410 C415 1.391 . S
C411 H393 0.941 . S
C411 C410 1.391 . S
C411 C412 1.396 . S
C412 H396 0.939 . S
C412 C411 1.396 . S
C412 C413 1.397 . S
C413 C412 1.397 . S
C413 C414 1.385 . S
C414 H397 0.940 . S
C414 C413 1.385 . S
C414 C415 1.388 . S
C415 H394 0.939 . S
C415 C410 1.391 . S
C415 C414 1.388 . S
P416 O427 1.490 . S
P416 C430 1.812 . S
P416 C436 1.803 . S
P416 C442 1.819 . S
H417 C431 0.941 . S
H418 C432 0.939 . S
H419 C434 0.940 . S
H420 C435 0.940 . S
H421 C437 0.939 . S
H422 C438 0.942 . S
H423 C440 0.940 . S
H424 C441 0.939 . S
H425 C443 0.941 . S
H426 C447 0.939 . S
O427 P416 1.490 . S
H428 C444 0.939 . S
H429 C446 0.940 . S
C430 P416 1.812 . S
C430 C431 1.389 . S
C430 C435 1.391 . S
C431 H417 0.941 . S
C431 C430 1.389 . S
C431 C432 1.397 . S
C432 H418 0.939 . S
C432 C431 1.397 . S
C432 C433 1.378 . S
C433 C432 1.378 . S
C433 C434 1.378 . S
C434 H419 0.940 . S
C434 C433 1.378 . S
C434 C435 1.396 . S
C435 H420 0.940 . S
C435 C430 1.391 . S
C435 C434 1.396 . S
C436 P416 1.803 . S
C436 C437 1.378 . S
C436 C441 1.400 . S
C437 H421 0.939 . S
C437 C436 1.378 . S
C437 C438 1.361 . S
C438 H422 0.942 . S
C438 C437 1.361 . S
C438 C439 1.369 . S
C439 C438 1.369 . S
C439 C440 1.404 . S
C440 H423 0.940 . S
C440 C439 1.404 . S
C440 C441 1.389 . S
C441 H424 0.939 . S
C441 C436 1.400 . S
C441 C440 1.389 . S
C442 P416 1.819 . S
C442 C443 1.391 . S
C442 C447 1.391 . S
C443 H425 0.941 . S
C443 C442 1.391 . S
C443 C444 1.396 . S
C444 H428 0.939 . S
C444 C443 1.396 . S
C444 C445 1.397 . S
C445 C444 1.397 . S
C445 C446 1.385 . S
C446 H429 0.940 . S
C446 C445 1.385 . S
C446 C447 1.388 . S
C447 H426 0.939 . S
C447 C442 1.391 . S
C447 C446 1.388 . S
P448 O459 1.490 . S
P448 C462 1.812 . S
P448 C468 1.803 . S
P448 C474 1.819 . S
H449 C463 0.941 . S
H450 C464 0.939 . S
H451 C466 0.940 . S
H452 C467 0.940 . S
H453 C469 0.939 . S
H454 C470 0.942 . S
H455 C472 0.940 . S
H456 C473 0.939 . S
H457 C475 0.941 . S
H458 C479 0.939 . S
O459 P448 1.490 . S
H460 C476 0.939 . S
H461 C478 0.940 . S
C462 P448 1.812 . S
C462 C463 1.389 . S
C462 C467 1.391 . S
C463 H449 0.941 . S
C463 C462 1.389 . S
C463 C464 1.397 . S
C464 H450 0.939 . S
C464 C463 1.397 . S
C464 C465 1.378 . S
C465 C464 1.378 . S
C465 C466 1.378 . S
C466 H451 0.940 . S
C466 C465 1.378 . S
C466 C467 1.396 . S
C467 H452 0.940 . S
C467 C462 1.391 . S
C467 C466 1.396 . S
C468 P448 1.803 . S
C468 C469 1.378 . S
C468 C473 1.400 . S
C469 H453 0.939 . S
C469 C468 1.378 . S
C469 C470 1.361 . S
C470 H454 0.942 . S
C470 C469 1.361 . S
C470 C471 1.369 . S
C471 C470 1.369 . S
C471 C472 1.404 . S
C472 H455 0.940 . S
C472 C471 1.404 . S
C472 C473 1.389 . S
C473 H456 0.939 . S
C473 C468 1.400 . S
C473 C472 1.389 . S
C474 P448 1.819 . S
C474 C475 1.391 . S
C474 C479 1.391 . S
C475 H457 0.941 . S
C475 C474 1.391 . S
C475 C476 1.396 . S
C476 H460 0.939 . S
C476 C475 1.396 . S
C476 C477 1.397 . S
C477 C476 1.397 . S
C477 C478 1.385 . S
C478 H461 0.940 . S
C478 C477 1.385 . S
C478 C479 1.388 . S
C479 H458 0.939 . S
C479 C474 1.391 . S
C479 C478 1.388 . S
P480 O491 1.490 1_565 S
P480 C494 1.812 . S
P480 C500 1.803 . S
P480 C506 1.819 . S
H481 C495 0.941 . S
H482 C496 0.939 . S
H483 C498 0.940 . S
H484 C499 0.940 . S
H485 C501 0.939 . S
H486 C502 0.942 . S
H487 C504 0.940 . S
H488 C505 0.939 . S
H489 C507 0.941 1_545 S
H490 C511 0.939 . S
O491 P480 1.490 1_545 S
H492 C508 0.939 1_545 S
H493 C510 0.940 . S
C494 P480 1.812 . S
C494 C495 1.389 . S
C494 C499 1.391 . S
C495 H481 0.941 . S
C495 C494 1.389 . S
C495 C496 1.397 . S
C496 H482 0.939 . S
C496 C495 1.397 . S
C496 C497 1.378 . S
C497 C496 1.378 . S
C497 C498 1.378 . S
C498 H483 0.940 . S
C498 C497 1.378 . S
C498 C499 1.396 . S
C499 H484 0.940 . S
C499 C494 1.391 . S
C499 C498 1.396 . S
C500 P480 1.803 . S
C500 C501 1.378 . S
C500 C505 1.400 . S
C501 H485 0.939 . S
C501 C500 1.378 . S
C501 C502 1.361 . S
C502 H486 0.942 . S
C502 C501 1.361 . S
C502 C503 1.369 . S
C503 C502 1.369 . S
C503 C504 1.404 . S
C504 H487 0.940 . S
C504 C503 1.404 . S
C504 C505 1.389 . S
C505 H488 0.939 . S
C505 C500 1.400 . S
C505 C504 1.389 . S
C506 P480 1.819 . S
C506 C507 1.391 . S
C506 C511 1.391 . S
C507 H489 0.941 1_565 S
C507 C506 1.391 . S
C507 C508 1.396 . S
C508 H492 0.939 1_565 S
C508 C507 1.396 . S
C508 C509 1.397 . S
C509 C508 1.397 . S
C509 C510 1.385 . S
C510 H493 0.940 . S
C510 C509 1.385 . S
C510 C511 1.388 . S
C511 H490 0.939 . S
C511 C506 1.391 . S
C511 C510 1.388 . S
P512 O523 1.490 . S
P512 C526 1.812 . S
P512 C532 1.803 . S
P512 C538 1.819 . S
H513 C527 0.941 . S
H514 C528 0.939 . S
H515 C530 0.940 . S
H516 C531 0.940 . S
H517 C533 0.939 . S
H518 C534 0.942 . S
H519 C536 0.940 . S
H520 C537 0.939 . S
H521 C539 0.941 . S
H522 C543 0.939 . S
O523 P512 1.490 . S
H524 C540 0.939 . S
H525 C542 0.940 1_655 S
C526 P512 1.812 . S
C526 C527 1.389 . S
C526 C531 1.391 . S
C527 H513 0.941 . S
C527 C526 1.389 . S
C527 C528 1.397 . S
C528 H514 0.939 . S
C528 C527 1.397 . S
C528 C529 1.378 . S
C529 C528 1.378 . S
C529 C530 1.378 . S
C530 H515 0.940 . S
C530 C529 1.378 . S
C530 C531 1.396 . S
C531 H516 0.940 . S
C531 C526 1.391 . S
C531 C530 1.396 . S
C532 P512 1.803 . S
C532 C533 1.378 . S
C532 C537 1.400 . S
C533 H517 0.939 . S
C533 C532 1.378 . S
C533 C534 1.361 . S
C534 H518 0.942 . S
C534 C533 1.361 . S
C534 C535 1.369 . S
C535 C534 1.369 . S
C535 C536 1.404 . S
C536 H519 0.940 . S
C536 C535 1.404 . S
C536 C537 1.389 . S
C537 H520 0.939 . S
C537 C532 1.400 . S
C537 C536 1.389 . S
C538 P512 1.819 . S
C538 C539 1.391 . S
C538 C543 1.391 . S
C539 H521 0.941 . S
C539 C538 1.391 . S
C539 C540 1.396 . S
C540 H524 0.939 . S
C540 C539 1.396 . S
C540 C541 1.397 . S
C541 C540 1.397 . S
C541 C542 1.385 . S
C542 H525 0.940 1_455 S
C542 C541 1.385 . S
C542 C543 1.388 . S
C543 H522 0.939 . S
C543 C538 1.391 . S
C543 C542 1.388 . S
P544 O555 1.490 . S
P544 C558 1.812 . S
P544 C564 1.803 . S
P544 C570 1.819 . S
H545 C559 0.941 . S
H546 C560 0.939 . S
H547 C562 0.940 . S
H548 C563 0.940 . S
H549 C565 0.939 . S
H550 C566 0.942 . S
H551 C568 0.940 . S
H552 C569 0.939 . S
H553 C571 0.941 . S
H554 C575 0.939 . S
O555 P544 1.490 . S
H556 C572 0.939 . S
H557 C574 0.940 . S
C558 P544 1.812 . S
C558 C559 1.389 . S
C558 C563 1.391 . S
C559 H545 0.941 . S
C559 C558 1.389 . S
C559 C560 1.397 . S
C560 H546 0.939 . S
C560 C559 1.397 . S
C560 C561 1.378 . S
C561 C560 1.378 . S
C561 C562 1.378 . S
C562 H547 0.940 . S
C562 C561 1.378 . S
C562 C563 1.396 . S
C563 H548 0.940 . S
C563 C558 1.391 . S
C563 C562 1.396 . S
C564 P544 1.803 . S
C564 C565 1.378 . S
C564 C569 1.400 . S
C565 H549 0.939 . S
C565 C564 1.378 . S
C565 C566 1.361 . S
C566 H550 0.942 . S
C566 C565 1.361 . S
C566 C567 1.369 . S
C567 C566 1.369 . S
C567 C568 1.404 . S
C568 H551 0.940 . S
C568 C567 1.404 . S
C568 C569 1.389 . S
C569 H552 0.939 . S
C569 C564 1.400 . S
C569 C568 1.389 . S
C570 P544 1.819 . S
C570 C571 1.391 . S
C570 C575 1.391 . S
C571 H553 0.941 . S
C571 C570 1.391 . S
C571 C572 1.396 . S
C572 H556 0.939 . S
C572 C571 1.396 . S
C572 C573 1.397 . S
C573 C572 1.397 . S
C573 C574 1.385 . S
C574 H557 0.940 . S
C574 C573 1.385 . S
C574 C575 1.388 . S
C575 H554 0.939 . S
C575 C570 1.391 . S
C575 C574 1.388 . S
C576 Eu577 2.835 . S
C576 C578 1.500 . S
C576 O596 1.257 1_545 S
C576 O597 1.260 . S
Eu577 C576 2.835 . S
Eu577 O596 2.473 1_545 S
Eu577 O597 2.480 . S
Eu577 O598 2.430 . S
Eu577 O599 2.670 1_554 S
Eu577 O600 2.394 1_545 S
Eu577 O605 2.355 1_545 S
Eu577 O607 2.374 . S
C578 C576 1.500 . S
C578 C579 1.377 . S
C578 C583 1.377 1_545 S
C579 C578 1.377 . S
C579 C580 1.395 . S
C579 H608 0.931 . S
C580 C579 1.395 . S
C580 C581 1.383 1_545 S
C580 H609 0.931 . S
C581 C580 1.383 1_565 S
C581 C582 1.394 . S
C582 C581 1.394 . S
C582 C583 1.378 . S
C582 H610 0.931 . S
C583 C578 1.377 1_565 S
C583 C582 1.378 . S
C583 H611 0.931 . S
C584 O598 1.285 . S
C584 O599 1.261 1_554 S
C585 O600 1.251 . S
C585 O601 1.251 1_554 S
C586 Eu587 2.835 . S
C586 C588 1.500 . S
C586 O602 1.257 1_565 S
C586 O603 1.260 . S
Eu587 C586 2.835 . S
Eu587 O599 2.355 1_565 S
Eu587 O601 2.374 . S
Eu587 O602 2.473 1_565 S
Eu587 O603 2.480 . S
Eu587 O604 2.430 . S
Eu587 O605 2.670 1_556 S
Eu587 O606 2.394 1_565 S
C588 C586 1.500 . S
C588 C589 1.377 . S
C588 C593 1.377 1_565 S
C589 C588 1.377 . S
C589 C590 1.395 . S
C589 H612 0.931 . S
C590 C589 1.395 . S
C590 C591 1.383 1_565 S
C590 H613 0.931 . S
C591 C590 1.383 1_545 S
C591 C592 1.394 . S
C592 C591 1.394 . S
C592 C593 1.378 . S
C592 H614 0.931 . S
C593 C588 1.377 1_545 S
C593 C592 1.378 . S
C593 H615 0.931 . S
C594 O604 1.259 1_554 S
C594 O605 1.270 . S
C595 O606 1.251 . S
C595 O607 1.251 1_556 S
O596 C576 1.257 1_565 S
O596 Eu577 2.473 1_565 S
O597 C576 1.260 . S
O597 Eu577 2.480 . S
O598 Eu577 2.430 . S
O598 C584 1.285 . S
O599 Eu577 2.670 1_556 S
O599 C584 1.261 1_556 S
O599 Eu587 2.355 1_545 S
O600 Eu577 2.394 1_565 S
O600 C585 1.251 . S
O601 C585 1.251 1_556 S
O601 Eu587 2.374 . S
O602 C586 1.257 1_545 S
O602 Eu587 2.473 1_545 S
O603 C586 1.260 . S
O603 Eu587 2.480 . S
O604 Eu587 2.430 . S
O604 C594 1.259 1_556 S
O605 Eu577 2.355 1_565 S
O605 Eu587 2.670 1_554 S
O605 C594 1.270 . S
O606 Eu587 2.394 1_545 S
O606 C595 1.251 . S
O607 Eu577 2.374 . S
O607 C595 1.251 1_554 S
H608 C579 0.931 . S
H609 C580 0.931 . S
H610 C582 0.931 . S
H611 C583 0.931 . S
H612 C589 0.931 . S
H613 C590 0.931 . S
H614 C592 0.931 . S
H615 C593 0.931 . S
C616 Eu617 2.835 . S
C616 C618 1.500 1_655 S
C616 O636 1.257 1_655 S
C616 O637 1.260 . S
Eu617 C616 2.835 . S
Eu617 O636 2.473 1_655 S
Eu617 O637 2.480 . S
Eu617 O638 2.430 . S
Eu617 O639 2.670 1_554 S
Eu617 O640 2.394 1_655 S
Eu617 O645 2.355 1_655 S
Eu617 O647 2.374 . S
C618 C616 1.500 1_455 S
C618 C619 1.377 1_455 S
C618 C623 1.377 . S
C619 C618 1.377 1_655 S
C619 C620 1.395 . S
C619 H648 0.931 . S
C620 C619 1.395 . S
C620 C621 1.383 1_655 S
C620 H649 0.931 . S
C621 C620 1.383 1_455 S
C621 C622 1.394 . S
C622 C621 1.394 . S
C622 C623 1.378 . S
C622 H650 0.931 . S
C623 C618 1.377 . S
C623 C622 1.378 . S
C623 H651 0.931 . S
C624 O638 1.259 1_556 S
C624 O639 1.270 . S
C625 O640 1.251 . S
C625 O641 1.251 . S
C626 Eu627 2.835 . S
C626 C628 1.500 1_455 S
C626 O642 1.257 1_455 S
C626 O643 1.260 . S
Eu627 C626 2.835 . S
Eu627 O639 2.355 1_455 S
Eu627 O641 2.374 1_556 S
Eu627 O642 2.473 1_455 S
Eu627 O643 2.480 . S
Eu627 O644 2.430 . S
Eu627 O645 2.670 1_556 S
Eu627 O646 2.394 1_455 S
C628 C626 1.500 1_655 S
C628 C629 1.377 1_655 S
C628 C633 1.377 . S
C629 C628 1.377 1_455 S
C629 C630 1.395 . S
C629 H652 0.931 . S
C630 C629 1.395 . S
C630 C631 1.383 1_455 S
C630 H653 0.931 . S
C631 C630 1.383 1_655 S
C631 C632 1.394 . S
C632 C631 1.394 . S
C632 C633 1.378 . S
C632 H654 0.931 . S
C633 C628 1.377 . S
C633 C632 1.378 . S
C633 H655 0.931 . S
C634 O644 1.259 1_554 S
C634 O645 1.270 . S
C635 O646 1.251 . S
C635 O647 1.251 1_556 S
O636 C616 1.257 1_455 S
O636 Eu617 2.473 1_455 S
O637 C616 1.260 . S
O637 Eu617 2.480 . S
O638 Eu617 2.430 . S
O638 C624 1.259 1_554 S
O639 Eu617 2.670 1_556 S
O639 C624 1.270 . S
O639 Eu627 2.355 1_655 S
O640 Eu617 2.394 1_455 S
O640 C625 1.251 . S
O641 C625 1.251 . S
O641 Eu627 2.374 1_554 S
O642 C626 1.257 1_655 S
O642 Eu627 2.473 1_655 S
O643 C626 1.260 . S
O643 Eu627 2.480 . S
O644 Eu627 2.430 . S
O644 C634 1.259 1_556 S
O645 Eu617 2.355 1_455 S
O645 Eu627 2.670 1_554 S
O645 C634 1.270 . S
O646 Eu627 2.394 1_655 S
O646 C635 1.251 . S
O647 Eu617 2.374 . S
O647 C635 1.251 1_554 S
H648 C619 0.931 . S
H649 C620 0.931 . S
H650 C622 0.931 . S
H651 C623 0.931 . S
H652 C629 0.931 . S
H653 C630 0.931 . S
H654 C632 0.931 . S
H655 C633 0.931 . S
C656 Eu657 2.835 . S
C656 C658 1.500 . S
C656 O676 1.257 . S
C656 O677 1.260 . S
Eu657 C656 2.835 . S
Eu657 O676 2.473 . S
Eu657 O677 2.480 . S
Eu657 O678 2.430 . S
Eu657 O679 2.670 1_556 S
Eu657 O680 2.394 . S
Eu657 O685 2.355 . S
Eu657 O687 2.354 1_556 S
C658 C656 1.500 . S
C658 C659 1.377 . S
C658 C663 1.377 . S
C659 C658 1.377 . S
C659 C660 1.395 . S
C659 H688 0.931 . S
C660 C659 1.395 . S
C660 C661 1.383 . S
C660 H689 0.931 . S
C661 C660 1.383 . S
C661 C662 1.394 . S
C662 C661 1.394 . S
C662 C663 1.378 . S
C662 H690 0.931 . S
C663 C658 1.377 . S
C663 C662 1.378 . S
C663 H691 0.931 . S
C664 O678 1.259 1_554 S
C664 O679 1.270 . S
C665 O680 1.251 . S
C665 O681 1.251 1_556 S
C666 Eu667 2.835 . S
C666 C668 1.500 . S
C666 O682 1.257 . S
C666 O683 1.260 . S
Eu667 C666 2.835 . S
Eu667 O679 2.355 . S
Eu667 O681 2.374 . S
Eu667 O682 2.473 . S
Eu667 O683 2.480 . S
Eu667 O684 2.430 . S
Eu667 O685 2.670 1_554 S
Eu667 O686 2.394 . S
C668 C666 1.500 . S
C668 C669 1.377 . S
C668 C673 1.377 . S
C669 C668 1.377 . S
C669 C670 1.395 . S
C669 H692 0.931 . S
C670 C669 1.395 . S
C670 C671 1.383 . S
C670 H693 0.931 . S
C671 C670 1.383 . S
C671 C672 1.394 . S
C672 C671 1.394 . S
C672 C673 1.378 . S
C672 H694 0.931 . S
C673 C668 1.377 . S
C673 C672 1.378 . S
C673 H695 0.931 . S
C674 O684 1.259 1_556 S
C674 O685 1.270 . S
C675 O686 1.251 . S
C675 O687 1.277 . S
O676 C656 1.257 . S
O676 Eu657 2.473 . S
O677 C656 1.260 . S
O677 Eu657 2.480 . S
O678 Eu657 2.430 . S
O678 C664 1.259 1_556 S
O679 Eu657 2.670 1_554 S
O679 C664 1.270 . S
O679 Eu667 2.355 . S
O680 Eu657 2.394 . S
O680 C665 1.251 . S
O681 C665 1.251 1_554 S
O681 Eu667 2.374 . S
O682 C666 1.257 . S
O682 Eu667 2.473 . S
O683 C666 1.260 . S
O683 Eu667 2.480 . S
O684 Eu667 2.430 . S
O684 C674 1.259 1_554 S
O685 Eu657 2.355 . S
O685 Eu667 2.670 1_556 S
O685 C674 1.270 . S
O686 Eu667 2.394 . S
O686 C675 1.251 . S
O687 Eu657 2.354 1_554 S
O687 C675 1.277 . S
H688 C659 0.931 . S
H689 C660 0.931 . S
H690 C662 0.931 . S
H691 C663 0.931 . S
H692 C669 0.931 . S
H693 C670 0.931 . S
H694 C672 0.931 . S
H695 C673 0.931 . S
C696 Eu697 2.835 . S
C696 C698 1.500 . S
C696 O716 1.257 . S
C696 O717 1.260 . S
Eu697 C696 2.835 . S
Eu697 O716 2.473 . S
Eu697 O717 2.480 . S
Eu697 O718 2.430 . S
Eu697 O719 2.670 . S
Eu697 O720 2.394 . S
Eu697 O725 2.355 . S
Eu697 O727 2.374 . S
C698 C696 1.500 . S
C698 C699 1.377 . S
C698 C703 1.377 . S
C699 C698 1.377 . S
C699 C700 1.395 . S
C699 H728 0.931 . S
C700 C699 1.395 . S
C700 C701 1.383 . S
C700 H729 0.931 . S
C701 C700 1.383 . S
C701 C702 1.394 . S
C702 C701 1.394 . S
C702 C703 1.378 . S
C702 H730 0.931 . S
C703 C698 1.377 . S
C703 C702 1.378 . S
C703 H731 0.931 . S
C704 O718 1.259 . S
C704 O719 1.270 . S
C705 O720 1.251 . S
C705 O721 1.251 . S
C706 Eu707 2.835 . S
C706 C708 1.500 . S
C706 O722 1.257 . S
C706 O723 1.260 . S
Eu707 C706 2.835 . S
Eu707 O719 2.355 . S
Eu707 O721 2.374 . S
Eu707 O722 2.473 . S
Eu707 O723 2.480 . S
Eu707 O724 2.430 . S
Eu707 O725 2.670 . S
Eu707 O726 2.394 . S
C708 C706 1.500 . S
C708 C709 1.377 . S
C708 C713 1.377 . S
C709 C708 1.377 . S
C709 C710 1.395 . S
C709 H732 0.931 . S
C710 C709 1.395 . S
C710 C711 1.383 . S
C710 H733 0.931 . S
C711 C710 1.383 . S
C711 C712 1.394 . S
C712 C711 1.394 . S
C712 C713 1.378 . S
C712 H734 0.931 . S
C713 C708 1.377 . S
C713 C712 1.378 . S
C713 H735 0.931 . S
C714 O724 1.259 . S
C714 O725 1.270 . S
C715 O726 1.251 . S
C715 O727 1.251 . S
O716 C696 1.257 . S
O716 Eu697 2.473 . S
O717 C696 1.260 . S
O717 Eu697 2.480 . S
O718 Eu697 2.430 . S
O718 C704 1.259 . S
O719 Eu697 2.670 . S
O719 C704 1.270 . S
O719 Eu707 2.355 . S
O720 Eu697 2.394 . S
O720 C705 1.251 . S
O721 C705 1.251 . S
O721 Eu707 2.374 . S
O722 C706 1.257 . S
O722 Eu707 2.473 . S
O723 C706 1.260 . S
O723 Eu707 2.480 . S
O724 Eu707 2.430 . S
O724 C714 1.259 . S
O725 Eu697 2.355 . S
O725 Eu707 2.670 . S
O725 C714 1.270 . S
O726 Eu707 2.394 . S
O726 C715 1.251 . S
O727 Eu697 2.374 . S
O727 C715 1.251 . S
H728 C699 0.931 . S
H729 C700 0.931 . S
H730 C702 0.931 . S
H731 C703 0.931 . S
H732 C709 0.931 . S
H733 C710 0.931 . S
H734 C712 0.931 . S
H735 C713 0.931 . S
C736 Eu737 2.835 . S
C736 C738 1.500 . S
C736 O756 1.257 . S
C736 O757 1.260 . S
Eu737 C736 2.835 . S
Eu737 O756 2.473 . S
Eu737 O757 2.480 . S
Eu737 O758 2.430 . S
Eu737 O759 2.670 . S
Eu737 O760 2.394 . S
Eu737 O765 2.355 . S
Eu737 O767 2.374 . S
C738 C736 1.500 . S
C738 C739 1.377 . S
C738 C743 1.377 . S
C739 C738 1.377 . S
C739 C740 1.395 . S
C739 H768 0.931 . S
C740 C739 1.395 . S
C740 C741 1.383 . S
C740 H769 0.931 . S
C741 C740 1.383 . S
C741 C742 1.394 . S
C742 C741 1.394 . S
C742 C743 1.378 . S
C742 H770 0.931 . S
C743 C738 1.377 . S
C743 C742 1.378 . S
C743 H771 0.931 . S
C744 O758 1.259 . S
C744 O759 1.270 . S
C745 O760 1.251 . S
C745 O761 1.251 . S
C746 Eu747 2.835 . S
C746 C748 1.500 . S
C746 O762 1.257 . S
C746 O763 1.260 . S
Eu747 C746 2.835 . S
Eu747 O759 2.355 . S
Eu747 O761 2.374 . S
Eu747 O762 2.473 . S
Eu747 O763 2.480 . S
Eu747 O764 2.430 . S
Eu747 O765 2.670 . S
Eu747 O766 2.394 . S
C748 C746 1.500 . S
C748 C749 1.377 . S
C748 C753 1.377 . S
C749 C748 1.377 . S
C749 C750 1.395 . S
C749 H772 0.931 . S
C750 C749 1.395 . S
C750 C751 1.383 . S
C750 H773 0.931 . S
C751 C750 1.383 . S
C751 C752 1.394 . S
C752 C751 1.394 . S
C752 C753 1.378 . S
C752 H774 0.931 . S
C753 C748 1.377 . S
C753 C752 1.378 . S
C753 H775 0.931 . S
C754 O764 1.259 . S
C754 O765 1.270 . S
C755 O766 1.251 . S
C755 O767 1.251 . S
O756 C736 1.257 . S
O756 Eu737 2.473 . S
O757 C736 1.260 . S
O757 Eu737 2.480 . S
O758 Eu737 2.430 . S
O758 C744 1.259 . S
O759 Eu737 2.670 . S
O759 C744 1.270 . S
O759 Eu747 2.355 . S
O760 Eu737 2.394 . S
O760 C745 1.251 . S
O761 C745 1.251 . S
O761 Eu747 2.374 . S
O762 C746 1.257 . S
O762 Eu747 2.473 . S
O763 C746 1.260 . S
O763 Eu747 2.480 . S
O764 Eu747 2.430 . S
O764 C754 1.259 . S
O765 Eu737 2.355 . S
O765 Eu747 2.670 . S
O765 C754 1.270 . S
O766 Eu747 2.394 . S
O766 C755 1.251 . S
O767 Eu737 2.374 . S
O767 C755 1.251 . S
H768 C739 0.931 . S
H769 C740 0.931 . S
H770 C742 0.931 . S
H771 C743 0.931 . S
H772 C749 0.931 . S
H773 C750 0.931 . S
H774 C752 0.931 . S
H775 C753 0.931 . S
C776 Eu777 2.835 . S
C776 C778 1.500 . S
C776 O796 1.257 . S
C776 O797 1.260 . S
Eu777 C776 2.835 . S
Eu777 O796 2.473 . S
Eu777 O797 2.480 . S
Eu777 O798 2.430 . S
Eu777 O799 2.670 . S
Eu777 O800 2.394 . S
Eu777 O805 2.355 . S
Eu777 O807 2.374 . S
C778 C776 1.500 . S
C778 C779 1.377 . S
C778 C783 1.377 . S
C779 C778 1.377 . S
C779 C780 1.395 . S
C779 H808 0.931 . S
C780 C779 1.395 . S
C780 C781 1.383 . S
C780 H809 0.931 . S
C781 C780 1.383 . S
C781 C782 1.394 . S
C782 C781 1.394 . S
C782 C783 1.378 . S
C782 H810 0.931 . S
C783 C778 1.377 . S
C783 C782 1.378 . S
C783 H811 0.931 . S
C784 O798 1.259 . S
C784 O799 1.270 . S
C785 O800 1.251 . S
C785 O801 1.251 . S
C786 Eu787 2.835 . S
C786 C788 1.500 . S
C786 O802 1.257 . S
C786 O803 1.260 . S
Eu787 C786 2.835 . S
Eu787 O799 2.355 . S
Eu787 O801 2.374 . S
Eu787 O802 2.473 . S
Eu787 O803 2.480 . S
Eu787 O804 2.430 . S
Eu787 O805 2.670 . S
Eu787 O806 2.394 . S
C788 C786 1.500 . S
C788 C789 1.377 . S
C788 C793 1.377 . S
C789 C788 1.377 . S
C789 C790 1.395 . S
C789 H812 0.931 . S
C790 C789 1.395 . S
C790 C791 1.383 . S
C790 H813 0.931 . S
C791 C790 1.383 . S
C791 C792 1.394 . S
C792 C791 1.394 . S
C792 C793 1.378 . S
C792 H814 0.931 . S
C793 C788 1.377 . S
C793 C792 1.378 . S
C793 H815 0.931 . S
C794 O804 1.259 . S
C794 O805 1.270 . S
C795 O806 1.251 . S
C795 O807 1.251 . S
O796 C776 1.257 . S
O796 Eu777 2.473 . S
O797 C776 1.260 . S
O797 Eu777 2.480 . S
O798 Eu777 2.430 . S
O798 C784 1.259 . S
O799 Eu777 2.670 . S
O799 C784 1.270 . S
O799 Eu787 2.355 . S
O800 Eu777 2.394 . S
O800 C785 1.251 . S
O801 C785 1.251 . S
O801 Eu787 2.374 . S
O802 C786 1.257 . S
O802 Eu787 2.473 . S
O803 C786 1.260 . S
O803 Eu787 2.480 . S
O804 Eu787 2.430 . S
O804 C794 1.259 . S
O805 Eu777 2.355 . S
O805 Eu787 2.670 . S
O805 C794 1.270 . S
O806 Eu787 2.394 . S
O806 C795 1.251 . S
O807 Eu777 2.374 . S
O807 C795 1.251 . S
H808 C779 0.931 . S
H809 C780 0.931 . S
H810 C782 0.931 . S
H811 C783 0.931 . S
H812 C789 0.931 . S
H813 C790 0.931 . S
H814 C792 0.931 . S
H815 C793 0.931 . S
C816 Eu817 2.835 . S
C816 C818 1.500 . S
C816 O836 1.257 . S
C816 O837 1.260 . S
Eu817 C816 2.835 . S
Eu817 O836 2.473 . S
Eu817 O837 2.480 . S
Eu817 O838 2.430 . S
Eu817 O839 2.670 . S
Eu817 O840 2.394 . S
Eu817 O845 2.355 . S
Eu817 O847 2.374 . S
C818 C816 1.500 . S
C818 C819 1.377 . S
C818 C823 1.377 . S
C819 C818 1.377 . S
C819 C820 1.395 . S
C819 H848 0.931 . S
C820 C819 1.395 . S
C820 C821 1.383 . S
C820 H849 0.931 . S
C821 C820 1.383 . S
C821 C822 1.394 . S
C822 C821 1.394 . S
C822 C823 1.378 . S
C822 H850 0.931 . S
C823 C818 1.377 . S
C823 C822 1.378 . S
C823 H851 0.931 . S
C824 O838 1.259 . S
C824 O839 1.270 . S
C825 O840 1.251 . S
C825 O841 1.251 . S
C826 Eu827 2.835 . S
C826 C828 1.500 . S
C826 O842 1.257 . S
C826 O843 1.260 . S
Eu827 C826 2.835 . S
Eu827 O839 2.355 . S
Eu827 O841 2.374 . S
Eu827 O842 2.473 . S
Eu827 O843 2.480 . S
Eu827 O844 2.430 . S
Eu827 O845 2.670 . S
Eu827 O846 2.394 . S
C828 C826 1.500 . S
C828 C829 1.377 . S
C828 C833 1.377 . S
C829 C828 1.377 . S
C829 C830 1.395 . S
C829 H852 0.931 . S
C830 C829 1.395 . S
C830 C831 1.383 . S
C830 H853 0.931 . S
C831 C830 1.383 . S
C831 C832 1.394 . S
C832 C831 1.394 . S
C832 C833 1.378 . S
C832 H854 0.931 . S
C833 C828 1.377 . S
C833 C832 1.378 . S
C833 H855 0.931 . S
C834 O844 1.259 . S
C834 O845 1.270 . S
C835 O846 1.251 . S
C835 O847 1.251 . S
O836 C816 1.257 . S
O836 Eu817 2.473 . S
O837 C816 1.260 . S
O837 Eu817 2.480 . S
O838 Eu817 2.430 . S
O838 C824 1.259 . S
O839 Eu817 2.670 . S
O839 C824 1.270 . S
O839 Eu827 2.355 . S
O840 Eu817 2.394 . S
O840 C825 1.251 . S
O841 C825 1.251 . S
O841 Eu827 2.374 . S
O842 C826 1.257 . S
O842 Eu827 2.473 . S
O843 C826 1.260 . S
O843 Eu827 2.480 . S
O844 Eu827 2.430 . S
O844 C834 1.259 . S
O845 Eu817 2.355 . S
O845 Eu827 2.670 . S
O845 C834 1.270 . S
O846 Eu827 2.394 . S
O846 C835 1.251 . S
O847 Eu817 2.374 . S
O847 C835 1.251 . S
H848 C819 0.931 . S
H849 C820 0.931 . S
H850 C822 0.931 . S
H851 C823 0.931 . S
H852 C829 0.931 . S
H853 C830 0.931 . S
H854 C832 0.931 . S
H855 C833 0.931 . S
C856 Eu857 2.835 . S
C856 C858 1.500 . S
C856 O876 1.257 . S
C856 O877 1.260 . S
Eu857 C856 2.835 . S
Eu857 O876 2.473 . S
Eu857 O877 2.480 . S
Eu857 O878 2.430 . S
Eu857 O879 2.670 . S
Eu857 O880 2.394 . S
Eu857 O885 2.355 . S
Eu857 O887 2.374 . S
C858 C856 1.500 . S
C858 C859 1.377 . S
C858 C863 1.377 . S
C859 C858 1.377 . S
C859 C860 1.395 . S
C859 H888 0.931 . S
C860 C859 1.395 . S
C860 C861 1.383 . S
C860 H889 0.931 . S
C861 C860 1.383 . S
C861 C862 1.394 . S
C862 C861 1.394 . S
C862 C863 1.378 . S
C862 H890 0.931 . S
C863 C858 1.377 . S
C863 C862 1.378 . S
C863 H891 0.931 . S
C864 O878 1.259 . S
C864 O879 1.270 . S
C865 O880 1.251 . S
C865 O881 1.251 . S
C866 Eu867 2.835 . S
C866 C868 1.500 . S
C866 O882 1.257 . S
C866 O883 1.260 . S
Eu867 C866 2.835 . S
Eu867 O879 2.355 . S
Eu867 O881 2.374 . S
Eu867 O882 2.473 . S
Eu867 O883 2.480 . S
Eu867 O884 2.430 . S
Eu867 O885 2.670 . S
Eu867 O886 2.394 . S
C868 C866 1.500 . S
C868 C869 1.377 . S
C868 C873 1.377 . S
C869 C868 1.377 . S
C869 C870 1.395 . S
C869 H892 0.931 . S
C870 C869 1.395 . S
C870 C871 1.383 . S
C870 H893 0.931 . S
C871 C870 1.383 . S
C871 C872 1.394 . S
C872 C871 1.394 . S
C872 C873 1.378 . S
C872 H894 0.931 . S
C873 C868 1.377 . S
C873 C872 1.378 . S
C873 H895 0.931 . S
C874 O884 1.259 . S
C874 O885 1.270 . S
C875 O886 1.251 . S
C875 O887 1.251 . S
O876 C856 1.257 . S
O876 Eu857 2.473 . S
O877 C856 1.260 . S
O877 Eu857 2.480 . S
O878 Eu857 2.430 . S
O878 C864 1.259 . S
O879 Eu857 2.670 . S
O879 C864 1.270 . S
O879 Eu867 2.355 . S
O880 Eu857 2.394 . S
O880 C865 1.251 . S
O881 C865 1.251 . S
O881 Eu867 2.374 . S
O882 C866 1.257 . S
O882 Eu867 2.473 . S
O883 C866 1.260 . S
O883 Eu867 2.480 . S
O884 Eu867 2.430 . S
O884 C874 1.259 . S
O885 Eu857 2.355 . S
O885 Eu867 2.670 . S
O885 C874 1.270 . S
O886 Eu867 2.394 . S
O886 C875 1.251 . S
O887 Eu857 2.374 . S
O887 C875 1.251 . S
H888 C859 0.931 . S
H889 C860 0.931 . S
H890 C862 0.931 . S
H891 C863 0.931 . S
H892 C869 0.931 . S
H893 C870 0.931 . S
H894 C872 0.931 . S
H895 C873 0.931 . S
C896 Eu897 2.835 . S
C896 C898 1.500 . S
C896 O916 1.257 . S
C896 O917 1.260 . S
Eu897 C896 2.835 . S
Eu897 O916 2.473 . S
Eu897 O917 2.480 . S
Eu897 O918 2.430 . S
Eu897 O919 2.670 . S
Eu897 O920 2.394 . S
Eu897 O925 2.355 . S
Eu897 O927 2.374 . S
C898 C896 1.500 . S
C898 C899 1.377 . S
C898 C903 1.377 . S
C899 C898 1.377 . S
C899 C900 1.395 . S
C899 H928 0.931 . S
C900 C899 1.395 . S
C900 C901 1.383 . S
C900 H929 0.931 . S
C901 C900 1.383 . S
C901 C902 1.394 . S
C902 C901 1.394 . S
C902 C903 1.378 . S
C902 H930 0.931 . S
C903 C898 1.377 . S
C903 C902 1.378 . S
C903 H931 0.931 . S
C904 O918 1.259 . S
C904 O919 1.270 . S
C905 O920 1.251 . S
C905 O921 1.251 . S
C906 Eu907 2.835 . S
C906 C908 1.500 . S
C906 O922 1.257 . S
C906 O923 1.260 . S
Eu907 C906 2.835 . S
Eu907 O919 2.355 . S
Eu907 O921 2.374 . S
Eu907 O922 2.473 . S
Eu907 O923 2.480 . S
Eu907 O924 2.430 . S
Eu907 O925 2.670 . S
Eu907 O926 2.394 . S
C908 C906 1.500 . S
C908 C909 1.377 . S
C908 C913 1.377 . S
C909 C908 1.377 . S
C909 C910 1.395 . S
C909 H932 0.931 . S
C910 C909 1.395 . S
C910 C911 1.383 . S
C910 H933 0.931 . S
C911 C910 1.383 . S
C911 C912 1.394 . S
C912 C911 1.394 . S
C912 C913 1.378 . S
C912 H934 0.931 . S
C913 C908 1.377 . S
C913 C912 1.378 . S
C913 H935 0.931 . S
C914 O924 1.259 . S
C914 O925 1.270 . S
C915 O926 1.251 . S
C915 O927 1.251 . S
O916 C896 1.257 . S
O916 Eu897 2.473 . S
O917 C896 1.260 . S
O917 Eu897 2.480 . S
O918 Eu897 2.430 . S
O918 C904 1.259 . S
O919 Eu897 2.670 . S
O919 C904 1.270 . S
O919 Eu907 2.355 . S
O920 Eu897 2.394 . S
O920 C905 1.251 . S
O921 C905 1.251 . S
O921 Eu907 2.374 . S
O922 C906 1.257 . S
O922 Eu907 2.473 . S
O923 C906 1.260 . S
O923 Eu907 2.480 . S
O924 Eu907 2.430 . S
O924 C914 1.259 . S
O925 Eu897 2.355 . S
O925 Eu907 2.670 . S
O925 C914 1.270 . S
O926 Eu907 2.394 . S
O926 C915 1.251 . S
O927 Eu897 2.374 . S
O927 C915 1.251 . S
H928 C899 0.931 . S
H929 C900 0.931 . S
H930 C902 0.931 . S
H931 C903 0.931 . S
H932 C909 0.931 . S
H933 C910 0.931 . S
H934 C912 0.931 . S
H935 C913 0.931 . S
C936 C937 1.369 . S
C936 C938 1.419 . S
C936 H940 0.930 . S
C937 C936 1.369 . S
C937 C946 1.429 . S
C938 C936 1.419 . S
C938 C939 1.363 . S
C938 H941 0.929 . S
C939 C938 1.363 . S
C939 C945 1.428 . S
H940 C936 0.930 . S
H941 C938 0.929 . S
S942 N943 1.613 1_556 S
S942 N944 1.610 . S
N943 S942 1.613 1_554 S
N943 C946 1.350 . S
N944 S942 1.610 . S
N944 C945 1.351 1_556 S
C945 C939 1.428 . S
C945 N944 1.351 1_554 S
C945 C946 1.434 . S
C946 C937 1.429 . S
C946 N943 1.350 . S
C946 C945 1.434 . S
C947 C948 1.369 . S
C947 C949 1.419 . S
C947 H951 0.930 . S
C948 C947 1.369 . S
C948 C957 1.429 . S
C949 C947 1.419 . S
C949 C950 1.363 . S
C949 H952 0.929 . S
C950 C949 1.363 . S
C950 C956 1.428 . S
H951 C947 0.930 . S
H952 C949 0.929 . S
S953 N954 1.613 . S
S953 N955 1.610 . S
N954 S953 1.613 . S
N954 C957 1.350 . S
N955 S953 1.610 . S
N955 C956 1.351 . S
C956 C950 1.428 . S
C956 N955 1.351 . S
C956 C957 1.434 . S
C957 C948 1.429 . S
C957 N954 1.350 . S
C957 C956 1.434 . S
C958 C959 1.369 . S
C958 C960 1.419 . S
C958 H962 0.930 . S
C959 C958 1.369 . S
C959 C968 1.429 . S
C960 C958 1.419 . S
C960 C961 1.363 . S
C960 H963 0.929 . S
C961 C960 1.363 . S
C961 C967 1.428 . S
H962 C958 0.930 . S
H963 C960 0.929 . S
S964 N965 1.613 . S
S964 N966 1.610 . S
N965 S964 1.613 . S
N965 C968 1.350 . S
N966 S964 1.610 . S
N966 C967 1.351 . S
C967 C961 1.428 . S
C967 N966 1.351 . S
C967 C968 1.434 . S
C968 C959 1.429 . S
C968 N965 1.350 . S
C968 C967 1.434 . S
C969 C970 1.369 . S
C969 C971 1.419 . S
C969 H973 0.930 . S
C970 C969 1.369 . S
C970 C979 1.429 . S
C971 C969 1.419 . S
C971 C972 1.363 . S
C971 H974 0.929 . S
C972 C971 1.363 . S
C972 C978 1.428 1_556 S
H973 C969 0.930 . S
H974 C971 0.929 . S
S975 N976 1.613 . S
S975 N977 1.610 . S
N976 S975 1.613 . S
N976 C979 1.350 1_554 S
N977 S975 1.610 . S
N977 C978 1.351 . S
C978 C972 1.428 1_554 S
C978 N977 1.351 . S
C978 C979 1.434 1_554 S
C979 C970 1.429 . S
C979 N976 1.350 1_556 S
C979 C978 1.434 1_556 S
C980 C981 1.369 . S
C980 C982 1.419 . S
C980 H984 0.930 . S
C981 C980 1.369 . S
C981 C990 1.429 . S
C982 C980 1.419 . S
C982 C983 1.363 . S
C982 H985 0.929 . S
C983 C982 1.363 . S
C983 C989 1.428 . S
H984 C980 0.930 . S
H985 C982 0.929 . S
S986 N987 1.613 1_554 S
S986 N988 1.610 . S
N987 S986 1.613 1_556 S
N987 C990 1.350 . S
N988 S986 1.610 . S
N988 C989 1.351 1_554 S
C989 C983 1.428 . S
C989 N988 1.351 1_556 S
C989 C990 1.434 . S
C990 C981 1.429 . S
C990 N987 1.350 . S
C990 C989 1.434 . S
C991 C992 1.369 . S
C991 C993 1.419 . S
C991 H995 0.930 . S
C992 C991 1.369 . S
C992 C1001 1.429 . S
C993 C991 1.419 . S
C993 C994 1.363 . S
C993 H996 0.929 . S
C994 C993 1.363 . S
C994 C1000 1.428 . S
H995 C991 0.930 . S
H996 C993 0.929 . S
S997 N998 1.613 . S
S997 N999 1.610 . S
N998 S997 1.613 . S
N998 C1001 1.350 . S
N999 S997 1.610 . S
N999 C1000 1.351 . S
C1000 C994 1.428 . S
C1000 N999 1.351 . S
C1000 C1001 1.434 . S
C1001 C992 1.429 . S
C1001 N998 1.350 . S
C1001 C1000 1.434 . S
C1002 C1003 1.369 . S
C1002 C1004 1.419 . S
C1002 H1006 0.930 . S
C1003 C1002 1.369 . S
C1003 C1012 1.429 . S
C1004 C1002 1.419 . S
C1004 C1005 1.363 . S
C1004 H1007 0.929 . S
C1005 C1004 1.363 . S
C1005 C1011 1.428 . S
H1006 C1002 0.930 . S
H1007 C1004 0.929 . S
S1008 N1009 1.613 . S
S1008 N1010 1.610 . S
N1009 S1008 1.613 . S
N1009 C1012 1.350 . S
N1010 S1008 1.610 . S
N1010 C1011 1.351 . S
C1011 C1005 1.428 . S
C1011 N1010 1.351 . S
C1011 C1012 1.434 . S
C1012 C1003 1.429 . S
C1012 N1009 1.350 . S
C1012 C1011 1.434 . S
C1013 C1014 1.369 . S
C1013 C1015 1.419 . S
C1013 H1017 0.930 . S
C1014 C1013 1.369 . S
C1014 C1023 1.429 . S
C1015 C1013 1.419 . S
C1015 C1016 1.363 . S
C1015 H1018 0.929 . S
C1016 C1015 1.363 . S
C1016 C1022 1.428 . S
H1017 C1013 0.930 . S
H1018 C1015 0.929 . S
S1019 N1020 1.613 . S
S1019 N1021 1.610 . S
N1020 S1019 1.613 . S
N1020 C1023 1.350 . S
N1021 S1019 1.610 . S
N1021 C1022 1.351 . S
C1022 C1016 1.428 . S
C1022 N1021 1.351 . S
C1022 C1023 1.434 . S
C1023 C1014 1.429 . S
C1023 N1020 1.350 . S
C1023 C1022 1.434 . S
C1024 C1025 1.369 . S
C1024 C1026 1.419 . S
C1024 H1028 0.930 . S
C1025 C1024 1.369 . S
C1025 C1034 1.429 . S
C1026 C1024 1.419 . S
C1026 C1027 1.363 . S
C1026 H1029 0.929 . S
C1027 C1026 1.363 . S
C1027 C1033 1.428 . S
H1028 C1024 0.930 . S
H1029 C1026 0.929 . S
S1030 N1031 1.613 . S
S1030 N1032 1.610 . S
N1031 S1030 1.613 . S
N1031 C1034 1.350 1_554 S
N1032 S1030 1.610 . S
N1032 C1033 1.351 1_554 S
C1033 C1027 1.428 . S
C1033 N1032 1.351 1_556 S
C1033 C1034 1.434 . S
C1034 C1025 1.429 . S
C1034 N1031 1.350 1_556 S
C1034 C1033 1.434 . S
C1035 C1036 1.369 . S
C1035 C1037 1.419 . S
C1035 H1039 0.930 . S
C1036 C1035 1.369 . S
C1036 C1045 1.429 . S
C1037 C1035 1.419 . S
C1037 C1038 1.363 . S
C1037 H1040 0.950 . S
C1038 C1037 1.363 . S
C1038 C1044 1.428 . S
H1039 C1035 0.930 . S
H1040 C1037 0.950 . S
S1041 N1042 1.613 . S
S1041 N1043 1.610 . S
N1042 S1041 1.613 . S
N1042 C1045 1.350 . S
N1043 S1041 1.610 . S
N1043 C1044 1.351 . S
C1044 C1038 1.428 . S
C1044 N1043 1.351 . S
C1044 C1045 1.434 . S
C1045 C1036 1.429 . S
C1045 N1042 1.350 . S
C1045 C1044 1.434 . S
C1046 C1047 1.369 . S
C1046 C1048 1.419 . S
C1046 H1050 0.930 . S
C1047 C1046 1.369 . S
C1047 C1056 1.429 . S
C1048 C1046 1.419 . S
C1048 C1049 1.363 . S
C1048 H1051 0.929 . S
C1049 C1048 1.363 . S
C1049 C1055 1.428 . S
H1050 C1046 0.930 . S
H1051 C1048 0.929 . S
S1052 N1053 1.613 . S
S1052 N1054 1.610 . S
N1053 S1052 1.613 . S
N1053 C1056 1.350 . S
N1054 S1052 1.610 . S
N1054 C1055 1.351 . S
C1055 C1049 1.428 . S
C1055 N1054 1.351 . S
C1055 C1056 1.434 . S
C1056 C1047 1.429 . S
C1056 N1053 1.350 . S
C1056 C1055 1.434 . S
C1057 C1058 1.369 . S
C1057 C1059 1.419 . S
C1057 H1061 0.930 . S
C1058 C1057 1.369 . S
C1058 C1067 1.429 . S
C1059 C1057 1.419 . S
C1059 C1060 1.363 . S
C1059 H1062 0.929 . S
C1060 C1059 1.363 . S
C1060 C1066 1.428 . S
H1061 C1057 0.930 . S
H1062 C1059 0.929 . S
S1063 N1064 1.613 1_545 S
S1063 N1065 1.610 . S
N1064 S1063 1.613 1_565 S
N1064 C1067 1.350 . S
N1065 S1063 1.610 . S
N1065 C1066 1.351 1_545 S
C1066 C1060 1.428 . S
C1066 N1065 1.351 1_565 S
C1066 C1067 1.434 . S
C1067 C1058 1.429 . S
C1067 N1064 1.350 . S
C1067 C1066 1.434 . S
C1068 C1069 1.369 1_455 S
C1068 C1070 1.419 . S
C1068 H1072 0.930 . S
C1069 C1068 1.369 1_655 S
C1069 C1078 1.429 1_655 S
C1070 C1068 1.419 . S
C1070 C1071 1.363 . S
C1070 H1073 0.929 . S
C1071 C1070 1.363 . S
C1071 C1077 1.428 . S
H1072 C1068 0.930 . S
H1073 C1070 0.929 . S
S1074 N1075 1.597 1_455 S
S1074 N1076 1.610 . S
N1075 S1074 1.597 1_655 S
N1075 C1078 1.350 1_655 S
N1076 S1074 1.610 . S
N1076 C1077 1.351 . S
C1077 C1071 1.428 . S
C1077 N1076 1.351 . S
C1077 C1078 1.434 . S
C1078 C1069 1.429 1_455 S
C1078 N1075 1.350 1_455 S
C1078 C1077 1.434 . S
C1079 C1080 1.369 . S
C1079 C1081 1.419 . S
C1079 H1083 0.930 . S
C1080 C1079 1.369 . S
C1080 C1089 1.429 . S
C1081 C1079 1.419 . S
C1081 C1082 1.363 . S
C1081 H1084 0.929 . S
C1082 C1081 1.363 . S
C1082 C1088 1.428 . S
H1083 C1079 0.930 . S
H1084 C1081 0.929 . S
S1085 N1086 1.613 . S
S1085 N1087 1.610 . S
N1086 S1085 1.613 . S
N1086 C1089 1.350 . S
N1087 S1085 1.610 . S
N1087 C1088 1.351 . S
C1088 C1082 1.428 . S
C1088 N1087 1.351 . S
C1088 C1089 1.434 . S
C1089 C1080 1.429 . S
C1089 N1086 1.350 . S
C1089 C1088 1.434 . S
C1090 C1091 1.369 1_565 S
C1090 C1092 1.419 . S
C1090 H1094 0.930 1_565 S
C1091 C1090 1.369 1_545 S
C1091 C1100 1.429 . S
C1092 C1090 1.419 . S
C1092 C1093 1.363 . S
C1092 H1095 0.929 . S
C1093 C1092 1.363 . S
C1093 C1099 1.428 . S
H1094 C1090 0.930 1_545 S
H1095 C1092 0.929 . S
S1096 N1097 1.613 1_565 S
S1096 N1098 1.610 . S
N1097 S1096 1.613 1_545 S
N1097 C1100 1.350 . S
N1098 S1096 1.610 . S
N1098 C1099 1.351 . S
C1099 C1093 1.428 . S
C1099 N1098 1.351 . S
C1099 C1100 1.434 1_565 S
C1100 C1091 1.429 . S
C1100 N1097 1.350 . S
C1100 C1099 1.434 1_545 S
C1101 C1102 1.369 . S
C1101 C1103 1.419 . S
C1101 H1105 0.930 . S
C1102 C1101 1.369 . S
C1102 C1111 1.429 . S
C1103 C1101 1.419 . S
C1103 C1104 1.363 . S
C1103 H1106 0.929 . S
C1104 C1103 1.363 . S
C1104 C1110 1.428 . S
H1105 C1101 0.930 . S
H1106 C1103 0.929 . S
S1107 N1108 1.613 . S
S1107 N1109 1.610 . S
N1108 S1107 1.613 . S
N1108 C1111 1.350 . S
N1109 S1107 1.610 . S
N1109 C1110 1.351 . S
C1110 C1104 1.428 . S
C1110 N1109 1.351 . S
C1110 C1111 1.434 . S
C1111 C1102 1.429 . S
C1111 N1108 1.350 . S
C1111 C1110 1.434 . S
C1112 C1113 1.369 . S
C1112 C1114 1.419 . S
C1112 H1116 0.930 . S
C1113 C1112 1.369 . S
C1113 C1122 1.429 . S
C1114 C1112 1.419 . S
C1114 C1115 1.363 . S
C1114 H1117 0.929 . S
C1115 C1114 1.363 . S
C1115 C1121 1.428 . S
H1116 C1112 0.930 . S
H1117 C1114 0.929 . S
S1118 N1119 1.613 . S
S1118 N1120 1.610 . S
N1119 S1118 1.613 . S
N1119 C1122 1.350 . S
N1120 S1118 1.610 . S
N1120 C1121 1.351 . S
C1121 C1115 1.428 . S
C1121 N1120 1.351 . S
C1121 C1122 1.434 . S
C1122 C1113 1.429 . S
C1122 N1119 1.350 . S
C1122 C1121 1.434 . S
C1123 C1124 1.369 . S
C1123 C1125 1.419 . S
C1123 H1127 0.930 . S
C1124 C1123 1.369 . S
C1124 C1133 1.429 . S
C1125 C1123 1.419 . S
C1125 C1126 1.363 . S
C1125 H1128 0.929 . S
C1126 C1125 1.363 . S
C1126 C1132 1.428 . S
H1127 C1123 0.930 . S
H1128 C1125 0.929 . S
S1129 N1130 1.613 . S
S1129 N1131 1.610 . S
N1130 S1129 1.613 . S
N1130 C1133 1.350 . S
N1131 S1129 1.610 . S
N1131 C1132 1.351 . S
C1132 C1126 1.428 . S
C1132 N1131 1.351 . S
C1132 C1133 1.434 . S
C1133 C1124 1.429 . S
C1133 N1130 1.350 . S
C1133 C1132 1.434 . S
C1134 C1135 1.369 . S
C1134 C1136 1.419 . S
C1134 H1138 0.930 . S
C1135 C1134 1.369 . S
C1135 C1144 1.429 . S
C1136 C1134 1.419 . S
C1136 C1137 1.363 . S
C1136 H1139 0.929 . S
C1137 C1136 1.363 . S
C1137 C1143 1.428 . S
H1138 C1134 0.930 . S
H1139 C1136 0.929 . S
S1140 N1141 1.613 . S
S1140 N1142 1.610 . S
N1141 S1140 1.613 . S
N1141 C1144 1.350 . S
N1142 S1140 1.610 . S
N1142 C1143 1.351 . S
C1143 C1137 1.428 . S
C1143 N1142 1.351 . S
C1143 C1144 1.434 . S
C1144 C1135 1.429 . S
C1144 N1141 1.350 . S
C1144 C1143 1.434 . S
C1145 C1146 1.369 . S
C1145 C1147 1.419 . S
C1145 H1149 0.930 . S
C1146 C1145 1.369 . S
C1146 C1155 1.429 . S
C1147 C1145 1.419 . S
C1147 C1148 1.363 . S
C1147 H1150 0.929 . S
C1148 C1147 1.363 . S
C1148 C1154 1.428 . S
H1149 C1145 0.930 . S
H1150 C1147 0.929 . S
S1151 N1152 1.613 . S
S1151 N1153 1.610 . S
N1152 S1151 1.613 . S
N1152 C1155 1.350 . S
N1153 S1151 1.610 . S
N1153 C1154 1.351 . S
C1154 C1148 1.428 . S
C1154 N1153 1.351 . S
C1154 C1155 1.434 . S
C1155 C1146 1.429 . S
C1155 N1152 1.350 . S
C1155 C1154 1.434 . S
C1156 C1157 1.369 . S
C1156 C1158 1.419 . S
C1156 H1160 0.930 . S
C1157 C1156 1.369 . S
C1157 C1166 1.429 . S
C1158 C1156 1.419 . S
C1158 C1159 1.363 . S
C1158 H1161 0.929 . S
C1159 C1158 1.363 . S
C1159 C1165 1.428 . S
H1160 C1156 0.930 . S
H1161 C1158 0.929 . S
S1162 N1163 1.613 . S
S1162 N1164 1.610 . S
N1163 S1162 1.613 . S
N1163 C1166 1.350 . S
N1164 S1162 1.610 . S
N1164 C1165 1.351 . S
C1165 C1159 1.428 . S
C1165 N1164 1.351 . S
C1165 C1166 1.434 . S
C1166 C1157 1.429 . S
C1166 N1163 1.350 . S
C1166 C1165 1.434 . S
C1167 C1168 1.369 1_565 S
C1167 C1169 1.419 . S
C1167 H1171 0.930 1_565 S
C1168 C1167 1.369 1_545 S
C1168 C1177 1.429 1_545 S
C1169 C1167 1.419 . S
C1169 C1170 1.363 . S
C1169 H1172 0.929 . S
C1170 C1169 1.363 . S
C1170 C1176 1.428 . S
H1171 C1167 0.930 1_545 S
H1172 C1169 0.929 . S
S1173 N1174 1.613 1_565 S
S1173 N1175 1.610 . S
N1174 S1173 1.613 1_545 S
N1174 C1177 1.350 1_545 S
N1175 S1173 1.610 . S
N1175 C1176 1.351 . S
C1176 C1170 1.428 . S
C1176 N1175 1.351 . S
C1176 C1177 1.434 . S
C1177 C1168 1.429 1_565 S
C1177 N1174 1.350 1_565 S
C1177 C1176 1.434 . S
C1178 C1179 1.369 . S
C1178 C1180 1.419 . S
C1178 H1182 0.930 . S
C1179 C1178 1.369 . S
C1179 C1188 1.429 . S
C1180 C1178 1.419 . S
C1180 C1181 1.363 . S
C1180 H1183 0.929 . S
C1181 C1180 1.363 . S
C1181 C1187 1.428 . S
H1182 C1178 0.930 . S
H1183 C1180 0.929 . S
S1184 N1185 1.613 1_455 S
S1184 N1186 1.610 . S
N1185 S1184 1.613 1_655 S
N1185 C1188 1.350 1_655 S
N1186 S1184 1.610 . S
N1186 C1187 1.351 . S
C1187 C1181 1.428 . S
C1187 N1186 1.351 . S
C1187 C1188 1.434 . S
C1188 C1179 1.429 . S
C1188 N1185 1.350 1_455 S
C1188 C1187 1.434 . S
C1189 C1190 1.369 . S
C1189 C1191 1.419 . S
C1189 H1193 0.930 . S
C1190 C1189 1.369 . S
C1190 C1199 1.429 . S
C1191 C1189 1.419 . S
C1191 C1192 1.363 . S
C1191 H1194 0.929 . S
C1192 C1191 1.363 . S
C1192 C1198 1.428 . S
H1193 C1189 0.930 . S
H1194 C1191 0.929 . S
S1195 N1196 1.613 . S
S1195 N1197 1.610 . S
N1196 S1195 1.613 . S
N1196 C1199 1.350 . S
N1197 S1195 1.610 . S
N1197 C1198 1.351 . S
C1198 C1192 1.428 . S
C1198 N1197 1.351 . S
C1198 C1199 1.434 . S
C1199 C1190 1.429 . S
C1199 N1196 1.350 . S
C1199 C1198 1.434 . S
C1200 C1201 1.369 . S
C1200 C1202 1.419 . S
C1200 H1204 0.930 . S
C1201 C1200 1.369 . S
C1201 C1210 1.429 . S
C1202 C1200 1.419 . S
C1202 C1203 1.363 . S
C1202 H1205 0.929 . S
C1203 C1202 1.363 . S
C1203 C1209 1.428 . S
H1204 C1200 0.930 . S
H1205 C1202 0.929 . S
S1206 N1207 1.613 . S
S1206 N1208 1.610 . S
N1207 S1206 1.613 . S
N1207 C1210 1.350 . S
N1208 S1206 1.610 . S
N1208 C1209 1.351 . S
C1209 C1203 1.428 . S
C1209 N1208 1.351 . S
C1209 C1210 1.434 . S
C1210 C1201 1.429 . S
C1210 N1207 1.350 . S
C1210 C1209 1.434 . S
C1211 C1212 1.369 . S
C1211 C1213 1.419 . S
C1211 H1215 0.930 . S
C1212 C1211 1.369 . S
C1212 C1221 1.429 . S
C1213 C1211 1.419 . S
C1213 C1214 1.363 . S
C1213 H1216 0.929 . S
C1214 C1213 1.363 . S
C1214 C1220 1.428 . S
H1215 C1211 0.930 . S
H1216 C1213 0.929 . S
S1217 N1218 1.613 . S
S1217 N1219 1.610 . S
N1218 S1217 1.613 . S
N1218 C1221 1.350 . S
N1219 S1217 1.610 . S
N1219 C1220 1.351 . S
C1220 C1214 1.428 . S
C1220 N1219 1.351 . S
C1220 C1221 1.434 . S
C1221 C1212 1.429 . S
C1221 N1218 1.350 . S
C1221 C1220 1.434 . S
C1222 C1223 1.369 . S
C1222 C1224 1.419 . S
C1222 H1226 0.930 . S
C1223 C1222 1.369 . S
C1223 C1232 1.429 . S
C1224 C1222 1.419 . S
C1224 C1225 1.363 . S
C1224 H1227 0.929 . S
C1225 C1224 1.363 . S
C1225 C1231 1.428 . S
H1226 C1222 0.930 . S
H1227 C1224 0.929 . S
S1228 N1229 1.613 . S
S1228 N1230 1.610 . S
N1229 S1228 1.613 . S
N1229 C1232 1.350 . S
N1230 S1228 1.610 . S
N1230 C1231 1.351 . S
C1231 C1225 1.428 . S
C1231 N1230 1.351 . S
C1231 C1232 1.434 . S
C1232 C1223 1.429 . S
C1232 N1229 1.350 . S
C1232 C1231 1.434 . S
C1233 C1234 1.369 1_545 S
C1233 C1235 1.419 . S
C1233 H1237 0.930 1_545 S
C1234 C1233 1.369 1_565 S
C1234 C1243 1.429 1_565 S
C1235 C1233 1.419 . S
C1235 C1236 1.363 . S
C1235 H1238 0.929 . S
C1236 C1235 1.363 . S
C1236 C1242 1.428 . S
H1237 C1233 0.930 1_565 S
H1238 C1235 0.929 . S
S1239 N1240 1.613 1_545 S
S1239 N1241 1.610 . S
N1240 S1239 1.613 1_565 S
N1240 C1243 1.350 1_565 S
N1241 S1239 1.610 . S
N1241 C1242 1.351 . S
C1242 C1236 1.428 . S
C1242 N1241 1.351 . S
C1242 C1243 1.434 . S
C1243 C1234 1.429 1_545 S
C1243 N1240 1.350 1_545 S
C1243 C1242 1.434 . S
C1244 C1245 1.369 . S
C1244 C1246 1.419 . S
C1244 H1248 0.930 . S
C1245 C1244 1.369 . S
C1245 C1254 1.429 . S
C1246 C1244 1.419 . S
C1246 C1247 1.363 . S
C1246 H1249 0.929 . S
C1247 C1246 1.363 . S
C1247 C1253 1.428 . S
H1248 C1244 0.930 . S
H1249 C1246 0.929 . S
S1250 N1251 1.613 . S
S1250 N1252 1.610 . S
N1251 S1250 1.613 . S
N1251 C1254 1.350 . S
N1252 S1250 1.610 . S
N1252 C1253 1.351 . S
C1253 C1247 1.428 . S
C1253 N1252 1.351 . S
C1253 C1254 1.434 . S
C1254 C1245 1.429 . S
C1254 N1251 1.350 . S
C1254 C1253 1.434 . S
C1255 C1256 1.369 . S
C1255 C1257 1.419 . S
C1255 H1259 0.930 . S
C1256 C1255 1.369 . S
C1256 C1265 1.429 . S
C1257 C1255 1.419 . S
C1257 C1258 1.363 . S
C1257 H1260 0.929 . S
C1258 C1257 1.363 . S
C1258 C1264 1.428 . S
H1259 C1255 0.930 . S
H1260 C1257 0.929 . S
S1261 N1262 1.613 . S
S1261 N1263 1.610 . S
N1262 S1261 1.613 . S
N1262 C1265 1.350 . S
N1263 S1261 1.610 . S
N1263 C1264 1.351 . S
C1264 C1258 1.428 . S
C1264 N1263 1.351 . S
C1264 C1265 1.434 . S
C1265 C1256 1.429 . S
C1265 N1262 1.350 . S
C1265 C1264 1.434 . S
C1266 C1267 1.369 1_655 S
C1266 C1268 1.419 . S
C1266 H1270 0.930 . S
C1267 C1266 1.369 1_455 S
C1267 C1276 1.429 1_455 S
C1268 C1266 1.419 . S
C1268 C1269 1.363 . S
C1268 H1271 0.929 . S
C1269 C1268 1.363 . S
C1269 C1275 1.428 . S
H1270 C1266 0.930 . S
H1271 C1268 0.929 . S
S1272 N1273 1.613 1_655 S
S1272 N1274 1.610 . S
N1273 S1272 1.613 1_455 S
N1273 C1276 1.350 1_455 S
N1274 S1272 1.610 . S
N1274 C1275 1.351 . S
C1275 C1269 1.428 . S
C1275 N1274 1.351 . S
C1275 C1276 1.434 . S
C1276 C1267 1.429 1_655 S
C1276 N1273 1.350 1_655 S
C1276 C1275 1.434 . S
C1277 C1278 1.369 . S
C1277 C1279 1.419 . S
C1277 H1281 0.930 . S
C1278 C1277 1.369 . S
C1278 C1287 1.429 . S
C1279 C1277 1.419 . S
C1279 C1280 1.363 . S
C1279 H1282 0.929 . S
C1280 C1279 1.363 . S
C1280 C1286 1.428 . S
H1281 C1277 0.930 . S
H1282 C1279 0.929 . S
S1283 N1284 1.613 . S
S1283 N1285 1.610 . S
N1284 S1283 1.613 . S
N1284 C1287 1.350 . S
N1285 S1283 1.610 . S
N1285 C1286 1.351 . S
C1286 C1280 1.428 . S
C1286 N1285 1.351 . S
C1286 C1287 1.434 . S
C1287 C1278 1.429 . S
C1287 N1284 1.350 . S
C1287 C1286 1.434 . S
C1288 C1289 1.369 . S
C1288 C1290 1.414 1_565 S
C1288 H1292 0.936 . S
C1289 C1288 1.369 . S
C1289 C1298 1.429 1_565 S
C1290 C1288 1.414 1_545 S
C1290 C1291 1.363 . S
C1290 H1293 0.929 . S
C1291 C1290 1.363 . S
C1291 C1297 1.428 . S
H1292 C1288 0.936 . S
H1293 C1290 0.929 . S
S1294 N1295 1.613 1_545 S
S1294 N1296 1.610 . S
N1295 S1294 1.613 1_565 S
N1295 C1298 1.350 1_565 S
N1296 S1294 1.610 . S
N1296 C1297 1.351 . S
C1297 C1291 1.428 . S
C1297 N1296 1.351 . S
C1297 C1298 1.434 . S
C1298 C1289 1.429 1_545 S
C1298 N1295 1.350 1_545 S
C1298 C1297 1.434 . S
C1299 C1300 1.369 . S
C1299 C1301 1.419 . S
C1299 H1303 0.930 . S
C1300 C1299 1.369 . S
C1300 C1309 1.429 . S
C1301 C1299 1.419 . S
C1301 C1302 1.363 . S
C1301 H1304 0.929 . S
C1302 C1301 1.363 . S
C1302 C1308 1.428 . S
H1303 C1299 0.930 . S
H1304 C1301 0.929 . S
S1305 N1306 1.613 . S
S1305 N1307 1.610 . S
N1306 S1305 1.613 . S
N1306 C1309 1.350 . S
N1307 S1305 1.610 . S
N1307 C1308 1.351 . S
C1308 C1302 1.428 . S
C1308 N1307 1.351 . S
C1308 C1309 1.434 . S
C1309 C1300 1.429 . S
C1309 N1306 1.350 . S
C1309 C1308 1.434 . S
C1310 C1311 1.369 . S
C1310 C1312 1.419 . S
C1310 H1314 0.930 . S
C1311 C1310 1.369 . S
C1311 C1320 1.429 . S
C1312 C1310 1.419 . S
C1312 C1313 1.363 . S
C1312 H1315 0.929 . S
C1313 C1312 1.363 . S
C1313 C1319 1.428 . S
H1314 C1310 0.930 . S
H1315 C1312 0.929 . S
S1316 N1317 1.613 . S
S1316 N1318 1.610 . S
N1317 S1316 1.613 . S
N1317 C1320 1.350 . S
N1318 S1316 1.610 . S
N1318 C1319 1.351 . S
C1319 C1313 1.428 . S
C1319 N1318 1.351 . S
C1319 C1320 1.434 . S
C1320 C1311 1.429 . S
C1320 N1317 1.350 . S
C1320 C1319 1.434 . S
C1321 C1322 1.369 . S
C1321 C1323 1.419 . S
C1321 H1325 0.930 . S
C1322 C1321 1.369 . S
C1322 C1331 1.429 . S
C1323 C1321 1.419 . S
C1323 C1324 1.363 . S
C1323 H1326 0.929 . S
C1324 C1323 1.363 . S
C1324 C1330 1.428 . S
H1325 C1321 0.930 . S
H1326 C1323 0.929 . S
S1327 N1328 1.613 . S
S1327 N1329 1.610 . S
N1328 S1327 1.613 . S
N1328 C1331 1.350 . S
N1329 S1327 1.610 . S
N1329 C1330 1.351 . S
C1330 C1324 1.428 . S
C1330 N1329 1.351 . S
C1330 C1331 1.434 . S
C1331 C1322 1.429 . S
C1331 N1328 1.350 . S
C1331 C1330 1.434 . S
C1332 C1333 1.369 . S
C1332 C1334 1.419 . S
C1332 H1336 0.930 . S
C1333 C1332 1.369 . S
C1333 C1342 1.429 . S
C1334 C1332 1.419 . S
C1334 C1335 1.363 . S
C1334 H1337 0.929 . S
C1335 C1334 1.363 . S
C1335 C1341 1.428 . S
H1336 C1332 0.930 . S
H1337 C1334 0.929 . S
S1338 N1339 1.613 . S
S1338 N1340 1.610 . S
N1339 S1338 1.613 . S
N1339 C1342 1.350 . S
N1340 S1338 1.610 . S
N1340 C1341 1.351 . S
C1341 C1335 1.428 . S
C1341 N1340 1.351 . S
C1341 C1342 1.434 . S
C1342 C1333 1.429 . S
C1342 N1339 1.350 . S
C1342 C1341 1.434 . S
C1343 C1344 1.369 . S
C1343 C1345 1.419 . S
C1343 H1347 0.930 . S
C1344 C1343 1.369 . S
C1344 C1353 1.429 1_455 S
C1345 C1343 1.419 . S
C1345 C1346 1.363 . S
C1345 H1348 0.929 . S
C1346 C1345 1.363 . S
C1346 C1352 1.428 1_455 S
H1347 C1343 0.930 . S
H1348 C1345 0.929 . S
S1349 N1350 1.613 . S
S1349 N1351 1.610 . S
N1350 S1349 1.613 . S
N1350 C1353 1.350 . S
N1351 S1349 1.610 . S
N1351 C1352 1.351 . S
C1352 C1346 1.428 1_655 S
C1352 N1351 1.351 . S
C1352 C1353 1.434 . S
C1353 C1344 1.429 1_655 S
C1353 N1350 1.350 . S
C1353 C1352 1.434 . S
C1354 C1355 1.369 . S
C1354 C1356 1.419 . S
C1354 H1358 0.930 . S
C1355 C1354 1.369 . S
C1355 C1364 1.429 . S
C1356 C1354 1.419 . S
C1356 C1357 1.363 . S
C1356 H1359 0.929 . S
C1357 C1356 1.363 . S
C1357 C1363 1.428 . S
H1358 C1354 0.930 . S
H1359 C1356 0.929 . S
S1360 N1361 1.613 . S
S1360 N1362 1.610 . S
N1361 S1360 1.613 . S
N1361 C1364 1.350 . S
N1362 S1360 1.610 . S
N1362 C1363 1.351 . S
C1363 C1357 1.428 . S
C1363 N1362 1.351 . S
C1363 C1364 1.434 . S
C1364 C1355 1.429 . S
C1364 N1361 1.350 . S
C1364 C1363 1.434 . S
C1365 C1366 1.369 1_455 S
C1365 C1367 1.419 . S
C1365 H1369 0.930 . S
C1366 C1365 1.369 1_655 S
C1366 C1375 1.429 . S
C1367 C1365 1.419 . S
C1367 C1368 1.363 1_455 S
C1367 H1370 0.929 . S
C1368 C1367 1.363 1_655 S
C1368 C1374 1.428 . S
H1369 C1365 0.930 . S
H1370 C1367 0.929 . S
S1371 N1372 1.613 . S
S1371 N1373 1.610 . S
N1372 S1371 1.613 . S
N1372 C1375 1.350 . S
N1373 S1371 1.610 . S
N1373 C1374 1.351 . S
C1374 C1368 1.428 . S
C1374 N1373 1.351 . S
C1374 C1375 1.434 . S
C1375 C1366 1.429 . S
C1375 N1372 1.350 . S
C1375 C1374 1.434 . S
C1376 C1377 1.369 . S
C1376 C1378 1.419 . S
C1376 H1380 0.930 . S
C1377 C1376 1.369 . S
C1377 C1386 1.429 . S
C1378 C1376 1.419 . S
C1378 C1379 1.363 . S
C1378 H1381 0.929 . S
C1379 C1378 1.363 . S
C1379 C1385 1.428 . S
H1380 C1376 0.930 . S
H1381 C1378 0.929 . S
S1382 N1383 1.613 . S
S1382 N1384 1.610 . S
N1383 S1382 1.613 . S
N1383 C1386 1.350 . S
N1384 S1382 1.610 . S
N1384 C1385 1.351 . S
C1385 C1379 1.428 . S
C1385 N1384 1.351 . S
C1385 C1386 1.434 . S
C1386 C1377 1.429 . S
C1386 N1383 1.350 . S
C1386 C1385 1.434 . S
C1387 C1388 1.369 . S
C1387 C1389 1.419 . S
C1387 H1391 0.930 . S
C1388 C1387 1.369 . S
C1388 C1397 1.429 . S
C1389 C1387 1.419 . S
C1389 C1390 1.363 . S
C1389 H1392 0.929 . S
C1390 C1389 1.363 . S
C1390 C1396 1.428 1_545 S
H1391 C1387 0.930 . S
H1392 C1389 0.929 . S
S1393 N1394 1.613 . S
S1393 N1395 1.610 . S
N1394 S1393 1.613 . S
N1394 C1397 1.350 1_565 S
N1395 S1393 1.610 . S
N1395 C1396 1.351 . S
C1396 C1390 1.428 1_565 S
C1396 N1395 1.351 . S
C1396 C1397 1.434 1_565 S
C1397 C1388 1.429 . S
C1397 N1394 1.350 1_545 S
C1397 C1396 1.434 1_545 S
C1398 C1399 1.369 . S
C1398 C1400 1.419 . S
C1398 H1402 0.930 . S
C1399 C1398 1.369 . S
C1399 C1408 1.429 . S
C1400 C1398 1.419 . S
C1400 C1401 1.363 . S
C1400 H1403 0.929 . S
C1401 C1400 1.363 . S
C1401 C1407 1.428 . S
H1402 C1398 0.930 . S
H1403 C1400 0.929 . S
S1404 N1405 1.613 . S
S1404 N1406 1.610 . S
N1405 S1404 1.613 . S
N1405 C1408 1.350 . S
N1406 S1404 1.610 . S
N1406 C1407 1.351 . S
C1407 C1401 1.428 . S
C1407 N1406 1.351 . S
C1407 C1408 1.434 . S
C1408 C1399 1.429 . S
C1408 N1405 1.350 . S
C1408 C1407 1.434 . S
C1409 C1410 1.369 . S
C1409 C1411 1.419 . S
C1409 H1413 0.930 . S
C1410 C1409 1.369 . S
C1410 C1419 1.429 . S
C1411 C1409 1.419 . S
C1411 C1412 1.363 . S
C1411 H1414 0.929 . S
C1412 C1411 1.363 . S
C1412 C1418 1.428 . S
H1413 C1409 0.930 . S
H1414 C1411 0.929 . S
S1415 N1416 1.613 . S
S1415 N1417 1.610 . S
N1416 S1415 1.613 . S
N1416 C1419 1.350 . S
N1417 S1415 1.610 . S
N1417 C1418 1.351 . S
C1418 C1412 1.428 . S
C1418 N1417 1.351 . S
C1418 C1419 1.434 . S
C1419 C1410 1.429 . S
C1419 N1416 1.350 . S
C1419 C1418 1.434 . S
C1420 C1421 1.369 . S
C1420 C1422 1.419 . S
C1420 H1424 0.930 . S
C1421 C1420 1.369 . S
C1421 C1430 1.429 . S
C1422 C1420 1.419 . S
C1422 C1423 1.363 . S
C1422 H1425 0.929 . S
C1423 C1422 1.363 . S
C1423 C1429 1.428 . S
H1424 C1420 0.930 . S
H1425 C1422 0.929 . S
S1426 N1427 1.613 . S
S1426 N1428 1.610 . S
N1427 S1426 1.613 . S
N1427 C1430 1.350 . S
N1428 S1426 1.610 . S
N1428 C1429 1.351 . S
C1429 C1423 1.428 . S
C1429 N1428 1.351 . S
C1429 C1430 1.434 . S
C1430 C1421 1.429 . S
C1430 N1427 1.350 . S
C1430 C1429 1.434 . S
C1431 C1432 1.369 . S
C1431 C1433 1.419 . S
C1431 H1435 0.930 . S
C1432 C1431 1.369 . S
C1432 C1441 1.429 . S
C1433 C1431 1.419 . S
C1433 C1434 1.363 . S
C1433 H1436 0.929 . S
C1434 C1433 1.363 . S
C1434 C1440 1.428 . S
H1435 C1431 0.930 . S
H1436 C1433 0.929 . S
S1437 N1438 1.613 . S
S1437 N1439 1.610 . S
N1438 S1437 1.613 . S
N1438 C1441 1.350 . S
N1439 S1437 1.610 . S
N1439 C1440 1.351 . S
C1440 C1434 1.428 . S
C1440 N1439 1.351 . S
C1440 C1441 1.434 . S
C1441 C1432 1.429 . S
C1441 N1438 1.350 . S
C1441 C1440 1.434 . S
C1442 C1443 1.369 . S
C1442 C1444 1.419 . S
C1442 H1446 0.930 . S
C1443 C1442 1.369 . S
C1443 C1452 1.429 . S
C1444 C1442 1.419 . S
C1444 C1445 1.363 . S
C1444 H1447 0.929 . S
C1445 C1444 1.363 . S
C1445 C1451 1.428 . S
H1446 C1442 0.930 . S
H1447 C1444 0.929 . S
S1448 N1449 1.613 . S
S1448 N1450 1.610 . S
N1449 S1448 1.613 . S
N1449 C1452 1.350 . S
N1450 S1448 1.610 . S
N1450 C1451 1.351 . S
C1451 C1445 1.428 . S
C1451 N1450 1.351 . S
C1451 C1452 1.434 . S
C1452 C1443 1.429 . S
C1452 N1449 1.350 . S
C1452 C1451 1.434 . S
C1453 C1454 1.369 . S
C1453 C1455 1.419 . S
C1453 H1457 0.930 . S
C1454 C1453 1.369 . S
C1454 C1463 1.429 . S
C1455 C1453 1.419 . S
C1455 C1456 1.363 . S
C1455 H1458 0.929 . S
C1456 C1455 1.363 . S
C1456 C1462 1.428 . S
H1457 C1453 0.930 . S
H1458 C1455 0.929 . S
S1459 N1460 1.613 . S
S1459 N1461 1.610 . S
N1460 S1459 1.613 . S
N1460 C1463 1.350 . S
N1461 S1459 1.610 . S
N1461 C1462 1.351 . S
C1462 C1456 1.428 . S
C1462 N1461 1.351 . S
C1462 C1463 1.434 . S
C1463 C1454 1.429 . S
C1463 N1460 1.350 . S
C1463 C1462 1.434 . S
C1464 C1465 1.369 . S
C1464 C1466 1.419 . S
C1464 H1468 0.930 . S
C1465 C1464 1.369 . S
C1465 C1474 1.429 . S
C1466 C1464 1.419 . S
C1466 C1467 1.363 . S
C1466 H1469 0.929 . S
C1467 C1466 1.363 . S
C1467 C1473 1.428 . S
H1468 C1464 0.930 . S
H1469 C1466 0.929 . S
S1470 N1471 1.613 . S
S1470 N1472 1.610 . S
N1471 S1470 1.613 . S
N1471 C1474 1.350 . S
N1472 S1470 1.610 . S
N1472 C1473 1.351 . S
C1473 C1467 1.428 . S
C1473 N1472 1.351 . S
C1473 C1474 1.434 . S
C1474 C1465 1.429 . S
C1474 N1471 1.350 . S
C1474 C1473 1.434 . S
C1475 C1476 1.369 . S
C1475 C1477 1.419 . S
C1475 H1479 0.930 . S
C1476 C1475 1.369 . S
C1476 C1485 1.429 . S
C1477 C1475 1.419 . S
C1477 C1478 1.363 . S
C1477 H1480 0.929 . S
C1478 C1477 1.363 . S
C1478 C1484 1.428 . S
H1479 C1475 0.930 . S
H1480 C1477 0.929 . S
S1481 N1482 1.613 . S
S1481 N1483 1.610 . S
N1482 S1481 1.613 . S
N1482 C1485 1.350 . S
N1483 S1481 1.610 . S
N1483 C1484 1.351 . S
C1484 C1478 1.428 . S
C1484 N1483 1.351 . S
C1484 C1485 1.434 . S
C1485 C1476 1.429 . S
C1485 N1482 1.350 . S
C1485 C1484 1.434 . S
C1486 C1487 1.369 . S
C1486 C1488 1.419 . S
C1486 H1490 0.930 . S
C1487 C1486 1.369 . S
C1487 C1496 1.429 . S
C1488 C1486 1.419 . S
C1488 C1489 1.363 . S
C1488 H1491 0.929 . S
C1489 C1488 1.363 . S
C1489 C1495 1.428 . S
H1490 C1486 0.930 . S
H1491 C1488 0.929 . S
S1492 N1493 1.613 . S
S1492 N1494 1.610 . S
N1493 S1492 1.613 . S
N1493 C1496 1.350 . S
N1494 S1492 1.610 . S
N1494 C1495 1.351 . S
C1495 C1489 1.428 . S
C1495 N1494 1.351 . S
C1495 C1496 1.434 . S
C1496 C1487 1.429 . S
C1496 N1493 1.350 . S
C1496 C1495 1.434 . S
C1497 C1498 1.369 . S
C1497 C1499 1.419 . S
C1497 H1501 0.930 . S
C1498 C1497 1.369 . S
C1498 C1507 1.429 . S
C1499 C1497 1.419 . S
C1499 C1500 1.363 . S
C1499 H1502 0.929 . S
C1500 C1499 1.363 . S
C1500 C1506 1.428 . S
H1501 C1497 0.930 . S
H1502 C1499 0.929 . S
S1503 N1504 1.613 . S
S1503 N1505 1.610 . S
N1504 S1503 1.613 . S
N1504 C1507 1.350 . S
N1505 S1503 1.610 . S
N1505 C1506 1.351 . S
C1506 C1500 1.428 . S
C1506 N1505 1.351 . S
C1506 C1507 1.434 . S
C1507 C1498 1.429 . S
C1507 N1504 1.350 . S
C1507 C1506 1.434 . S
C1508 C1509 1.369 . S
C1508 C1510 1.419 . S
C1508 H1512 0.930 . S
C1509 C1508 1.369 . S
C1509 C1518 1.429 . S
C1510 C1508 1.419 . S
C1510 C1511 1.363 . S
C1510 H1513 0.929 . S
C1511 C1510 1.363 . S
C1511 C1517 1.428 . S
H1512 C1508 0.930 . S
H1513 C1510 0.929 . S
S1514 N1515 1.613 . S
S1514 N1516 1.610 . S
N1515 S1514 1.613 . S
N1515 C1518 1.350 . S
N1516 S1514 1.610 . S
N1516 C1517 1.351 . S
C1517 C1511 1.428 . S
C1517 N1516 1.351 . S
C1517 C1518 1.434 . S
C1518 C1509 1.429 . S
C1518 N1515 1.350 . S
C1518 C1517 1.434 . S
C1519 C1520 1.369 . S
C1519 C1521 1.419 . S
C1519 H1523 0.930 . S
C1520 C1519 1.369 . S
C1520 C1529 1.429 . S
C1521 C1519 1.419 . S
C1521 C1522 1.363 . S
C1521 H1524 0.929 . S
C1522 C1521 1.363 . S
C1522 C1528 1.428 . S
H1523 C1519 0.930 . S
H1524 C1521 0.929 . S
S1525 N1526 1.613 . S
S1525 N1527 1.610 . S
N1526 S1525 1.613 . S
N1526 C1529 1.350 . S
N1527 S1525 1.610 . S
N1527 C1528 1.351 . S
C1528 C1522 1.428 . S
C1528 N1527 1.351 . S
C1528 C1529 1.434 . S
C1529 C1520 1.429 . S
C1529 N1526 1.350 . S
C1529 C1528 1.434 . S
C937 C439 1.524 . S
C939 C585 1.610 . S
C948 C465 1.787 . S
C950 C625 1.734 . S
C959 C401 1.763 . S
C961 C664 1.721 . S
C970 C369 1.617 . S
C972 C624 1.569 . S
C983 C665 1.512 . S
C981 C305 1.551 . S
C992 C343 1.325 . S
C994 C584 1.485 1_556 S
C1005 C595 1.646 . S
C1003 C375 1.719 . S
C1016 C635 1.704 . S
C1014 C311 1.757 . S
C1025 C337 1.594 . S
C1027 C674 1.719 . S
C1036 C433 1.477 . S
C1038 C634 1.576 . S
C1047 C471 1.526 . S
C1049 C675 1.480 . S
C1060 C594 1.529 . S
C1058 C407 1.549 . S
C1071 C705 1.616 . S
C1069 C55 1.513 . S
C1080 C81 1.787 . S
C1082 C745 1.735 . S
C1091 C17 1.763 . S
C1093 C784 1.721 . S
C1102 C561 1.615 . S
C1104 C744 1.574 . S
C1113 C497 1.553 . S
C1115 C785 1.518 . S
C1124 C535 1.325 . S
C1126 C704 1.494 . S
C1135 C567 1.719 . S
C1137 C715 1.643 . S
C1146 C503 1.757 . S
C1148 C755 1.703 . S
C1159 C794 1.719 . S
C1157 C529 1.595 . S
C1168 C49 1.472 . S
C1170 C754 1.573 . S
C1181 C795 1.484 . S
C1179 C87 1.523 1_455 S
C1190 C23 1.550 . S
C1192 C714 1.526 . S
C1203 C825 1.610 . S
C1201 C247 1.525 . S
C1212 C273 1.787 . S
C1214 C865 1.734 . S
C1225 C904 1.717 . S
C1223 C209 1.765 . S
C1236 C864 1.572 . S
C1234 C177 1.615 . S
C1247 C905 1.512 . S
C1245 C113 1.552 1_655 S
C1256 C151 1.333 . S
C1258 C824 1.496 . S
C1267 C183 1.719 . S
C1269 C835 1.643 . S
C1278 C119 1.756 . S
C1280 C875 1.702 . S
C1291 C914 1.724 . S
C1289 C145 1.597 . S
C1300 C241 1.473 . S
C1302 C874 1.571 . S
C1311 C279 1.527 . S
C1313 C915 1.481 . S
C1322 C215 1.550 . S
C1324 C834 1.526 . S
C1333 C509 1.415 . S
C1335 C581 1.429 . S
C1346 C621 1.767 . S
C1344 C541 1.651 . S
C1355 C573 1.555 . S
C1357 C671 1.561 . S
C1366 C221 1.797 . S
C1368 C631 1.785 . S
C1377 C253 1.459 . S
C1379 C661 1.541 . S
C1390 C591 1.426 . S
C1388 C285 1.406 . S
C1399 C125 1.416 . S
C1401 C701 1.428 . S
C1410 C157 1.652 . S
C1412 C741 1.767 . S
C1421 C189 1.556 . S
C1423 C791 1.562 . S
C1432 C413 1.796 . S
C1434 C751 1.785 . S
C1445 C781 1.541 . S
C1443 C445 1.459 . S
C1454 C477 1.402 . S
C1456 C711 1.429 . S
C1465 C317 1.412 . S
C1467 C821 1.431 . S
C1476 C349 1.654 . S
C1478 C861 1.766 . S
C1489 C911 1.562 . S
C1487 C381 1.555 . S
C1498 C29 1.797 . S
C1500 C871 1.782 . S
C1509 C61 1.464 . S
C1511 C901 1.541 . S
C1520 C93 1.402 . S
C1522 C831 1.429 . S
