# Generated by pormake.
# Topology ctn, (3,4)-cn, num edge types: 1
# Building blocks:
#     Node 0, Type 0, BuildingBlock: BELTOD_clean_linker_0, # of connection points: 3
#     Node 1, Type 0, BuildingBlock: BELTOD_clean_linker_0, # of connection points: 3
#     Node 2, Type 0, BuildingBlock: BELTOD_clean_linker_0, # of connection points: 3
#     Node 3, Type 0, BuildingBlock: BELTOD_clean_linker_0, # of connection points: 3
#     Node 4, Type 0, BuildingBlock: BELTOD_clean_linker_0, # of connection points: 3
#     Node 5, Type 0, BuildingBlock: BELTOD_clean_linker_0, # of connection points: 3
#     Node 6, Type 0, BuildingBlock: BELTOD_clean_linker_0, # of connection points: 3
#     Node 7, Type 0, BuildingBlock: BELTOD_clean_linker_0, # of connection points: 3
#     Node 8, Type 0, BuildingBlock: BELTOD_clean_linker_0, # of connection points: 3
#     Node 9, Type 0, BuildingBlock: BELTOD_clean_linker_0, # of connection points: 3
#     Node 10, Type 0, BuildingBlock: BELTOD_clean_linker_0, # of connection points: 3
#     Node 11, Type 0, BuildingBlock: BELTOD_clean_linker_0, # of connection points: 3
#     Node 12, Type 0, BuildingBlock: BELTOD_clean_linker_0, # of connection points: 3
#     Node 13, Type 0, BuildingBlock: BELTOD_clean_linker_0, # of connection points: 3
#     Node 14, Type 0, BuildingBlock: BELTOD_clean_linker_0, # of connection points: 3
#     Node 15, Type 0, BuildingBlock: BELTOD_clean_linker_0, # of connection points: 3
#     Node 16, Type 1, BuildingBlock: KUFVIS_clean_sbu_0, # of connection points: 4
#     Node 17, Type 1, BuildingBlock: KUFVIS_clean_sbu_0, # of connection points: 4
#     Node 18, Type 1, BuildingBlock: KUFVIS_clean_sbu_0, # of connection points: 4
#     Node 19, Type 1, BuildingBlock: KUFVIS_clean_sbu_0, # of connection points: 4
#     Node 20, Type 1, BuildingBlock: KUFVIS_clean_sbu_0, # of connection points: 4
#     Node 21, Type 1, BuildingBlock: KUFVIS_clean_sbu_0, # of connection points: 4
#     Node 22, Type 1, BuildingBlock: KUFVIS_clean_sbu_0, # of connection points: 4
#     Node 23, Type 1, BuildingBlock: KUFVIS_clean_sbu_0, # of connection points: 4
#     Node 24, Type 1, BuildingBlock: KUFVIS_clean_sbu_0, # of connection points: 4
#     Node 25, Type 1, BuildingBlock: KUFVIS_clean_sbu_0, # of connection points: 4
#     Node 26, Type 1, BuildingBlock: KUFVIS_clean_sbu_0, # of connection points: 4
#     Node 27, Type 1, BuildingBlock: KUFVIS_clean_sbu_0, # of connection points: 4
#     Edge 28, Type (0, 1), BuildingBlock: TEMPAE_clean_linker_10, # of connection points: 2
#     Edge 29, Type (0, 1), BuildingBlock: TEMPAE_clean_linker_10, # of connection points: 2
#     Edge 30, Type (0, 1), BuildingBlock: TEMPAE_clean_linker_10, # of connection points: 2
#     Edge 31, Type (0, 1), BuildingBlock: TEMPAE_clean_linker_10, # of connection points: 2
#     Edge 32, Type (0, 1), BuildingBlock: TEMPAE_clean_linker_10, # of connection points: 2
#     Edge 33, Type (0, 1), BuildingBlock: TEMPAE_clean_linker_10, # of connection points: 2
#     Edge 34, Type (0, 1), BuildingBlock: TEMPAE_clean_linker_10, # of connection points: 2
#     Edge 35, Type (0, 1), BuildingBlock: TEMPAE_clean_linker_10, # of connection points: 2
#     Edge 36, Type (0, 1), BuildingBlock: TEMPAE_clean_linker_10, # of connection points: 2
#     Edge 37, Type (0, 1), BuildingBlock: TEMPAE_clean_linker_10, # of connection points: 2
#     Edge 38, Type (0, 1), BuildingBlock: TEMPAE_clean_linker_10, # of connection points: 2
#     Edge 39, Type (0, 1), BuildingBlock: TEMPAE_clean_linker_10, # of connection points: 2
#     Edge 40, Type (0, 1), BuildingBlock: TEMPAE_clean_linker_10, # of connection points: 2
#     Edge 41, Type (0, 1), BuildingBlock: TEMPAE_clean_linker_10, # of connection points: 2
#     Edge 42, Type (0, 1), BuildingBlock: TEMPAE_clean_linker_10, # of connection points: 2
#     Edge 43, Type (0, 1), BuildingBlock: TEMPAE_clean_linker_10, # of connection points: 2
#     Edge 44, Type (0, 1), BuildingBlock: TEMPAE_clean_linker_10, # of connection points: 2
#     Edge 45, Type (0, 1), BuildingBlock: TEMPAE_clean_linker_10, # of connection points: 2
#     Edge 46, Type (0, 1), BuildingBlock: TEMPAE_clean_linker_10, # of connection points: 2
#     Edge 47, Type (0, 1), BuildingBlock: TEMPAE_clean_linker_10, # of connection points: 2
#     Edge 48, Type (0, 1), BuildingBlock: TEMPAE_clean_linker_10, # of connection points: 2
#     Edge 49, Type (0, 1), BuildingBlock: TEMPAE_clean_linker_10, # of connection points: 2
#     Edge 50, Type (0, 1), BuildingBlock: TEMPAE_clean_linker_10, # of connection points: 2
#     Edge 51, Type (0, 1), BuildingBlock: TEMPAE_clean_linker_10, # of connection points: 2
#     Edge 52, Type (0, 1), BuildingBlock: TEMPAE_clean_linker_10, # of connection points: 2
#     Edge 53, Type (0, 1), BuildingBlock: TEMPAE_clean_linker_10, # of connection points: 2
#     Edge 54, Type (0, 1), BuildingBlock: TEMPAE_clean_linker_10, # of connection points: 2
#     Edge 55, Type (0, 1), BuildingBlock: TEMPAE_clean_linker_10, # of connection points: 2
#     Edge 56, Type (0, 1), BuildingBlock: TEMPAE_clean_linker_10, # of connection points: 2
#     Edge 57, Type (0, 1), BuildingBlock: TEMPAE_clean_linker_10, # of connection points: 2
#     Edge 58, Type (0, 1), BuildingBlock: TEMPAE_clean_linker_10, # of connection points: 2
#     Edge 59, Type (0, 1), BuildingBlock: TEMPAE_clean_linker_10, # of connection points: 2
#     Edge 60, Type (0, 1), BuildingBlock: TEMPAE_clean_linker_10, # of connection points: 2
#     Edge 61, Type (0, 1), BuildingBlock: TEMPAE_clean_linker_10, # of connection points: 2
#     Edge 62, Type (0, 1), BuildingBlock: TEMPAE_clean_linker_10, # of connection points: 2
#     Edge 63, Type (0, 1), BuildingBlock: TEMPAE_clean_linker_10, # of connection points: 2
#     Edge 64, Type (0, 1), BuildingBlock: TEMPAE_clean_linker_10, # of connection points: 2
#     Edge 65, Type (0, 1), BuildingBlock: TEMPAE_clean_linker_10, # of connection points: 2
#     Edge 66, Type (0, 1), BuildingBlock: TEMPAE_clean_linker_10, # of connection points: 2
#     Edge 67, Type (0, 1), BuildingBlock: TEMPAE_clean_linker_10, # of connection points: 2
#     Edge 68, Type (0, 1), BuildingBlock: TEMPAE_clean_linker_10, # of connection points: 2
#     Edge 69, Type (0, 1), BuildingBlock: TEMPAE_clean_linker_10, # of connection points: 2
#     Edge 70, Type (0, 1), BuildingBlock: TEMPAE_clean_linker_10, # of connection points: 2
#     Edge 71, Type (0, 1), BuildingBlock: TEMPAE_clean_linker_10, # of connection points: 2
#     Edge 72, Type (0, 1), BuildingBlock: TEMPAE_clean_linker_10, # of connection points: 2
#     Edge 73, Type (0, 1), BuildingBlock: TEMPAE_clean_linker_10, # of connection points: 2
#     Edge 74, Type (0, 1), BuildingBlock: TEMPAE_clean_linker_10, # of connection points: 2
#     Edge 75, Type (0, 1), BuildingBlock: TEMPAE_clean_linker_10, # of connection points: 2
# Relax obj value: 0.013
# Max RMSD: 0.066
# Mean RMSD: 0.034
data_MOF--net-ctn--node1-KUFVIS_clean_sbu_0--node2-BELTOD_clean_linker_0--edge1-TEMPAE_clean_linker_10
_symmetry_space_group_name_H-M    P1
_symmetry_Int_Tables_number       1
_symmetry_cell_setting            triclinic
loop_
_symmetry_equiv_pos_as_xyz
'x, y, z'
_cell_length_a     62.233723
_cell_length_b     62.529755
_cell_length_c     62.293016
_cell_angle_alpha  90.281279
_cell_angle_beta   90.402352
_cell_angle_gamma 92.400123
loop_
_atom_site_label
_atom_site_type_symbol
_atom_site_fract_x
_atom_site_fract_y
_atom_site_fract_z
_atom_type_partial_charge
P0 P 0.06921 0.07051 0.06975 0.0
H1 H 0.04888 0.08861 0.10725 0.0
H2 H 0.0213 0.07478 0.13185 0.0
H3 H 0.01433 0.01676 0.09407 0.0
H4 H 0.04202 0.0308 0.06938 0.0
H5 H 0.07565 0.05074 0.0271 0.0
H6 H 0.09978 0.02316 0.01499 0.0
H7 H 0.12173 0.01512 0.08029 0.0
H8 H 0.09777 0.04274 0.0922 0.0
H9 H 0.08768 0.10755 0.04737 0.0
H10 H 0.02888 0.06863 0.04447 0.0
O11 O 0.08546 0.08639 0.08485 0.0
H12 H 0.07364 0.13131 0.02012 0.0
H13 H 0.01461 0.09251 0.01716 0.0
C14 C 0.04779 0.06054 0.08677 0.0
C15 C 0.04144 0.07291 0.10424 0.0
C16 C 0.02572 0.06496 0.11834 0.0
C17 C 0.01584 0.04456 0.11507 0.0
C18 C 0.02164 0.03253 0.09701 0.0
C19 C 0.03752 0.04048 0.08296 0.0
C20 C 0.08517 0.04896 0.06052 0.0
C21 C 0.08557 0.04296 0.03881 0.0
C22 C 0.09929 0.02712 0.03192 0.0
C23 C 0.11285 0.01712 0.04666 0.0
C24 C 0.1118 0.02277 0.06849 0.0
C25 C 0.09804 0.03848 0.07533 0.0
C26 C 0.05914 0.08661 0.04827 0.0
C27 C 0.07172 0.10411 0.04085 0.0
C28 C 0.06365 0.11774 0.02532 0.0
C29 C 0.04288 0.11399 0.01671 0.0
C30 C 0.03066 0.09583 0.02349 0.0
C31 C 0.03874 0.08224 0.03917 0.0
P32 P 0.33793 0.6802 0.16943 0.0
H33 H 0.3478 0.72677 0.17346 0.0
H34 H 0.33616 0.75732 0.15264 0.0
H35 H 0.29702 0.71437 0.11251 0.0
H36 H 0.30815 0.68413 0.13385 0.0
H37 H 0.38277 0.67377 0.18151 0.0
H38 H 0.40344 0.68132 0.2143 0.0
H39 H 0.34797 0.70928 0.24273 0.0
H40 H 0.32727 0.70144 0.20985 0.0
H41 H 0.3305 0.63369 0.16741 0.0
H42 H 0.29589 0.68842 0.18781 0.0
O43 O 0.35328 0.66714 0.15232 0.0
H44 H 0.29975 0.61007 0.17665 0.0
H45 H 0.26541 0.66488 0.19806 0.0
C46 C 0.32853 0.70321 0.15543 0.0
C47 C 0.33645 0.72398 0.16041 0.0
C48 C 0.32993 0.74144 0.14832 0.0
C49 C 0.31557 0.73838 0.13088 0.0
C50 C 0.30773 0.71746 0.12605 0.0
C51 C 0.31416 0.7001 0.13819 0.0
C52 C 0.35343 0.68697 0.19325 0.0
C53 C 0.37504 0.6816 0.19473 0.0
C54 C 0.3869 0.68601 0.21349 0.0
C55 C 0.37735 0.69585 0.23117 0.0
C56 C 0.35571 0.7014 0.22952 0.0
C57 C 0.34388 0.69702 0.2107 0.0
C58 C 0.31536 0.66282 0.17668 0.0
C59 C 0.31629 0.64062 0.17397 0.0
C60 C 0.29874 0.6271 0.17946 0.0
C61 C 0.28 0.63552 0.18806 0.0
C62 C 0.27937 0.65783 0.19111 0.0
C63 C 0.29687 0.67133 0.18543 0.0
P64 P 0.98271 0.49275 0.01898 0.0
H65 H 0.99223 0.47897 0.97538 0.0
H66 H 0.9932 0.44381 0.95825 0.0
H67 H 0.97104 0.41413 0.01702 0.0
H68 H 0.97023 0.44953 0.03413 0.0
H69 H 0.96476 0.51919 0.98567 0.0
H70 H 0.931 0.53718 0.98196 0.0
H71 H 0.90992 0.51086 0.04271 0.0
H72 H 0.94351 0.49195 0.04567 0.0
H73 H 0.01474 0.46626 0.03876 0.0
H74 H 0.97488 0.51752 0.05845 0.0
O75 O 1.00073 0.50823 0.00592 0.0
H76 H 0.03237 0.4671 0.07395 0.0
H77 H 0.99228 0.51818 0.0938 0.0
C78 C 0.98161 0.4668 0.00615 0.0
C79 C 0.98754 0.46492 0.98458 0.0
C80 C 0.98798 0.44479 0.97477 0.0
C81 C 0.9824 0.42613 0.98633 0.0
C82 C 0.97581 0.42816 0.0078 0.0
C83 C 0.97523 0.44836 0.01756 0.0
C84 C 0.95698 0.50486 0.01632 0.0
C85 C 0.95288 0.51728 0.99821 0.0
C86 C 0.93355 0.52769 0.99617 0.0
C87 C 0.9178 0.52596 0.01226 0.0
C88 C 0.9216 0.51263 0.02998 0.0
C89 C 0.94092 0.50197 0.03184 0.0
C90 C 0.99281 0.4912 0.04617 0.0
C91 C 0.00928 0.47725 0.05084 0.0
C92 C 0.01952 0.47788 0.0709 0.0
C93 C 0.01358 0.49259 0.08668 0.0
C94 C 0.99689 0.50639 0.0821 0.0
C95 C 0.98683 0.50592 0.0619 0.0
P96 P 0.66955 0.83084 0.18088 0.0
H97 H 0.70443 0.84781 0.15439 0.0
H98 H 0.73564 0.87195 0.16172 0.0
H99 H 0.71616 0.87713 0.22788 0.0
H100 H 0.68514 0.8528 0.22055 0.0
H101 H 0.64601 0.80022 0.15327 0.0
H102 H 0.65701 0.76957 0.13201 0.0
H103 H 0.7215 0.77792 0.15761 0.0
H104 H 0.71033 0.80837 0.17907 0.0
H105 H 0.63791 0.85451 0.20429 0.0
H106 H 0.66703 0.79337 0.20944 0.0
O107 O 0.65402 0.84401 0.16396 0.0
H108 H 0.6153 0.84586 0.23527 0.0
H109 H 0.64455 0.78463 0.24058 0.0
C110 C 0.69262 0.84827 0.18695 0.0
C111 C 0.70696 0.85403 0.17051 0.0
C112 C 0.72477 0.8678 0.1747 0.0
C113 C 0.72832 0.87639 0.19537 0.0
C114 C 0.71372 0.87086 0.21176 0.0
C115 C 0.69604 0.85685 0.2076 0.0
C116 C 0.67747 0.80691 0.16728 0.0
C117 C 0.66247 0.79533 0.15445 0.0
C118 C 0.66874 0.77775 0.14241 0.0
C119 C 0.69018 0.77149 0.14299 0.0
C120 C 0.70496 0.78259 0.15661 0.0
C121 C 0.69859 0.80002 0.16884 0.0
C122 C 0.65383 0.82443 0.20434 0.0
C123 C 0.63945 0.83923 0.21214 0.0
C124 C 0.62666 0.83433 0.22995 0.0
C125 C 0.62804 0.8145 0.24032 0.0
C126 C 0.64288 0.7999 0.23274 0.0
C127 C 0.65577 0.80489 0.21497 0.0
P128 P 0.05967 0.93689 0.45573 0.0
H129 H 0.10424 0.94861 0.4447 0.0
H130 H 0.12961 0.97659 0.45761 0.0
H131 H 0.08241 0.99745 0.50285 0.0
H132 H 0.05688 0.96931 0.48962 0.0
H133 H 0.08109 0.9037 0.47873 0.0
H134 H 0.06936 0.87794 0.50594 0.0
H135 H 0.0068 0.90548 0.50683 0.0
H136 H 0.01906 0.93183 0.48014 0.0
H137 H 0.05205 0.98077 0.4409 0.0
H138 H 0.01999 0.91835 0.4374 0.0
O139 O 0.07226 0.9219 0.43793 0.0
H140 H 0.02476 0.99503 0.41717 0.0
H141 H 0.99288 0.93237 0.4134 0.0
C142 C 0.07867 0.95688 0.46624 0.0
C143 C 0.09935 0.95904 0.45753 0.0
C144 C 0.11394 0.97499 0.46503 0.0
C145 C 0.10808 0.9892 0.48133 0.0
C146 C 0.08737 0.98683 0.49019 0.0
C147 C 0.0728 0.97075 0.48273 0.0
C148 C 0.0508 0.91931 0.47703 0.0
C149 C 0.06487 0.90425 0.48485 0.0
C150 C 0.05806 0.88941 0.50031 0.0
C151 C 0.03696 0.88929 0.50829 0.0
C152 C 0.02314 0.90506 0.50104 0.0
C153 C 0.03007 0.92004 0.48562 0.0
C154 C 0.03782 0.94855 0.44134 0.0
C155 C 0.03891 0.9702 0.43544 0.0
C156 C 0.02337 0.97832 0.42168 0.0
C157 C 0.00656 0.96488 0.4134 0.0
C158 C 0.00531 0.94331 0.41978 0.0
C159 C 0.02085 0.93523 0.43349 0.0
P160 P 0.21507 0.70646 0.79617 0.0
H161 H 0.21778 0.75242 0.80285 0.0
H162 H 0.22046 0.77502 0.83467 0.0
H163 H 0.22047 0.71876 0.8747 0.0
H164 H 0.21707 0.6961 0.84256 0.0
H165 H 0.25533 0.69461 0.77667 0.0
H166 H 0.27564 0.66214 0.77739 0.0
H167 H 0.22913 0.63286 0.82038 0.0
H168 H 0.20814 0.66542 0.81902 0.0
H169 H 0.17716 0.73164 0.80223 0.0
H170 H 0.19187 0.67129 0.77322 0.0
O171 O 0.22532 0.7211 0.77607 0.0
H172 H 0.14148 0.72923 0.78627 0.0
H173 H 0.15563 0.66824 0.75783 0.0
C174 C 0.21775 0.72254 0.82024 0.0
C175 C 0.21854 0.74487 0.81843 0.0
C176 C 0.22011 0.75782 0.8367 0.0
C177 C 0.22102 0.74873 0.85728 0.0
C178 C 0.21976 0.72628 0.85911 0.0
C179 C 0.21803 0.71329 0.84071 0.0
C180 C 0.23013 0.68244 0.79772 0.0
C181 C 0.24932 0.68126 0.78621 0.0
C182 C 0.26097 0.66269 0.78661 0.0
C183 C 0.25388 0.64504 0.79887 0.0
C184 C 0.23492 0.64633 0.81086 0.0
C185 C 0.22299 0.66488 0.81011 0.0
C186 C 0.18714 0.70145 0.78932 0.0
C187 C 0.17247 0.71744 0.79308 0.0
C188 C 0.15192 0.71601 0.78391 0.0
C189 C 0.14557 0.69855 0.77066 0.0
C190 C 0.16003 0.68205 0.7677 0.0
C191 C 0.1807 0.68362 0.77676 0.0
P192 P 0.99782 0.51108 0.49134 0.0
H193 H 0.03976 0.49932 0.47583 0.0
H194 H 0.05615 0.4995 0.44038 0.0
H195 H 0.99875 0.52551 0.41338 0.0
H196 H 0.9823 0.52513 0.44911 0.0
H197 H 0.02467 0.52708 0.52709 0.0
H198 H 0.02651 0.56097 0.54666 0.0
H199 H 0.9799 0.58639 0.50302 0.0
H200 H 0.97817 0.55219 0.48328 0.0
H201 H 0.9718 0.48334 0.46213 0.0
H202 H 0.96295 0.51752 0.52148 0.0
O203 O 0.01077 0.49342 0.50608 0.0
H204 H 0.93502 0.46841 0.46411 0.0
H205 H 0.92645 0.50198 0.52409 0.0
C206 C 0.00964 0.51178 0.46501 0.0
C207 C 0.03062 0.50498 0.4623 0.0
C208 C 0.04005 0.50522 0.44202 0.0
C209 C 0.02872 0.51241 0.42403 0.0
C210 C 0.00776 0.51956 0.42687 0.0
C211 C 0.99838 0.51943 0.44726 0.0
C212 C 1.00106 0.53704 0.50391 0.0
C213 C 0.01497 0.53995 0.52155 0.0
C214 C 0.01598 0.55934 0.53277 0.0
C215 C 0.00315 0.57625 0.52652 0.0
C216 C 0.99001 0.57367 0.50815 0.0
C217 C 0.98895 0.55415 0.49694 0.0
C218 C 0.9699 0.50214 0.49126 0.0
C219 C 0.96183 0.48795 0.4754 0.0
C220 C 0.94085 0.47914 0.47676 0.0
C221 C 0.92769 0.48394 0.4943 0.0
C222 C 0.93592 0.49821 0.51016 0.0
C223 C 0.95683 0.50713 0.50868 0.0
P224 P 0.8301 0.84124 0.83342 0.0
H225 H 0.84837 0.86326 0.79612 0.0
H226 H 0.87164 0.85177 0.76697 0.0
H227 H 0.86928 0.78766 0.79257 0.0
H228 H 0.84629 0.79914 0.82152 0.0
H229 H 0.8016 0.86864 0.85658 0.0
H230 H 0.77067 0.889 0.8457 0.0
H231 H 0.7746 0.86293 0.78157 0.0
H232 H 0.80556 0.84259 0.79259 0.0
H233 H 0.85067 0.82602 0.87249 0.0
H234 H 0.79544 0.80799 0.83328 0.0
O235 O 0.84573 0.85925 0.84667 0.0
H236 H 0.84263 0.79576 0.89622 0.0
H237 H 0.78712 0.77772 0.8571 0.0
C238 C 0.84543 0.83208 0.81092 0.0
C239 C 0.8527 0.84668 0.79529 0.0
C240 C 0.86597 0.84011 0.77864 0.0
C241 C 0.87242 0.81884 0.77756 0.0
C242 C 0.86485 0.80422 0.79314 0.0
C243 C 0.85151 0.81077 0.80965 0.0
C244 C 0.80615 0.85445 0.82531 0.0
C245 C 0.79571 0.86721 0.8402 0.0
C246 C 0.77795 0.87875 0.83399 0.0
C247 C 0.77026 0.87774 0.81271 0.0
C248 C 0.78035 0.86433 0.79798 0.0
C249 C 0.79806 0.85267 0.80428 0.0
C250 C 0.82336 0.81951 0.85141 0.0
C251 C 0.83664 0.81569 0.86913 0.0
C252 C 0.83204 0.79836 0.88269 0.0
C253 C 0.8142 0.78435 0.87861 0.0
C254 C 0.80109 0.78809 0.8606 0.0
C255 C 0.80567 0.80551 0.8471 0.0
P256 P 0.33094 0.34194 0.33414 0.0
H257 H 0.34654 0.36342 0.29535 0.0
H258 H 0.36998 0.35236 0.26617 0.0
H259 H 0.37324 0.28979 0.2948 0.0
H260 H 0.35012 0.3009 0.32381 0.0
H261 H 0.30437 0.37179 0.35656 0.0
H262 H 0.27328 0.39194 0.34579 0.0
H263 H 0.27351 0.3614 0.28343 0.0
H264 H 0.30468 0.34126 0.29437 0.0
H265 H 0.34972 0.32693 0.37425 0.0
H266 H 0.29694 0.30811 0.33214 0.0
O267 O 0.34671 0.35957 0.34773 0.0
H268 H 0.34085 0.29655 0.39756 0.0
H269 H 0.28776 0.27774 0.35554 0.0
C270 C 0.34628 0.33293 0.3116 0.0
C271 C 0.3521 0.34724 0.29515 0.0
C272 C 0.36549 0.34091 0.27851 0.0
C273 C 0.37356 0.32024 0.27823 0.0
C274 C 0.36753 0.30592 0.29469 0.0
C275 C 0.35409 0.31222 0.31122 0.0
C276 C 0.30715 0.35544 0.32611 0.0
C277 C 0.29769 0.36939 0.34059 0.0
C278 C 0.27982 0.38079 0.33445 0.0
C279 C 0.27101 0.37841 0.31368 0.0
C280 C 0.28014 0.36385 0.29942 0.0
C281 C 0.29796 0.35233 0.30566 0.0
C282 C 0.3237 0.32001 0.35171 0.0
C283 C 0.33606 0.31638 0.37014 0.0
C284 C 0.33097 0.29899 0.38347 0.0
C285 C 0.31355 0.28475 0.37847 0.0
C286 C 0.30139 0.2883 0.35976 0.0
C287 C 0.30646 0.30576 0.34648 0.0
P288 P 0.48149 0.99313 0.51785 0.0
H289 H 0.48286 0.9786 0.47341 0.0
H290 H 0.48375 0.94316 0.45687 0.0
H291 H 0.47637 0.91411 0.51936 0.0
H292 H 0.47589 0.94975 0.53581 0.0
H293 H 0.47111 0.03772 0.52227 0.0
H294 H 0.43759 0.05654 0.51959 0.0
H295 H 0.40249 0.99618 0.50963 0.0
H296 H 0.43619 0.9774 0.5127 0.0
H297 H 0.5224 0.97822 0.53277 0.0
H298 H 0.46691 0.0059 0.5611 0.0
O299 O 0.49853 0.008 0.503 0.0
H300 H 0.5406 0.97914 0.56766 0.0
H301 H 0.48521 0.00732 0.59603 0.0
C302 C 0.4797 0.9668 0.50585 0.0
C303 C 0.48134 0.9646 0.48354 0.0
C304 C 0.48174 0.94429 0.47409 0.0
C305 C 0.48034 0.92574 0.48679 0.0
C306 C 0.47792 0.92805 0.50914 0.0
C307 C 0.47751 0.94842 0.51857 0.0
C308 C 0.45618 0.00622 0.51742 0.0
C309 C 0.45618 0.02853 0.51958 0.0
C310 C 0.43701 0.03928 0.5179 0.0
C311 C 0.41735 0.02792 0.51409 0.0
C312 C 0.41732 0.00542 0.51262 0.0
C313 C 0.4366 0.99466 0.51428 0.0
C314 C 0.49338 0.99208 0.5443 0.0
C315 C 0.51409 0.98439 0.54656 0.0
C316 C 0.52453 0.98506 0.56649 0.0
C317 C 0.51447 0.99351 0.58462 0.0
C318 C 0.49337 1.00059 0.58243 0.0
C319 C 0.48292 0.99989 0.56242 0.0
P320 P 0.16939 0.33193 0.67826 0.0
H321 H 0.17633 0.37855 0.67727 0.0
H322 H 0.20729 0.40229 0.6864 0.0
H323 H 0.24209 0.34775 0.70757 0.0
H324 H 0.21118 0.32408 0.69796 0.0
H325 H 0.1525 0.28749 0.67269 0.0
H326 H 0.16335 0.25823 0.64969 0.0
H327 H 0.21843 0.29699 0.62893 0.0
H328 H 0.20682 0.32648 0.65101 0.0
H329 H 0.12426 0.31813 0.68129 0.0
H330 H 0.17779 0.32889 0.72492 0.0
O331 O 0.1543 0.34512 0.66095 0.0
H332 H 0.10084 0.30904 0.71156 0.0
H333 H 0.15442 0.31988 0.75524 0.0
C334 C 0.19163 0.34953 0.68658 0.0
C335 C 0.19062 0.37171 0.68389 0.0
C336 C 0.20829 0.38529 0.68924 0.0
C337 C 0.22725 0.3769 0.69751 0.0
C338 C 0.2279 0.35469 0.70083 0.0
C339 C 0.21022 0.34114 0.69546 0.0
C340 C 0.17909 0.30909 0.66402 0.0
C341 C 0.16707 0.28961 0.66345 0.0
C342 C 0.17338 0.27279 0.6503 0.0
C343 C 0.19181 0.27516 0.63739 0.0
C344 C 0.204 0.29461 0.63838 0.0
C345 C 0.19754 0.31146 0.65131 0.0
C346 C 0.15272 0.32441 0.70081 0.0
C347 C 0.13099 0.3185 0.69738 0.0
C348 C 0.11764 0.31322 0.71468 0.0
C349 C 0.12577 0.31385 0.7358 0.0
C350 C 0.14764 0.31953 0.73917 0.0
C351 C 0.16104 0.3246 0.72181 0.0
P352 P 0.83578 0.17952 0.66915 0.0
H353 H 0.82643 0.18331 0.62356 0.0
H354 H 0.81618 0.21312 0.60096 0.0
H355 H 0.81935 0.25518 0.65618 0.0
H356 H 0.82954 0.22525 0.67876 0.0
H357 H 0.88192 0.17872 0.67849 0.0
H358 H 0.90328 0.18702 0.71067 0.0
H359 H 0.84622 0.20738 0.74283 0.0
H360 H 0.82484 0.19827 0.71071 0.0
H361 H 0.79201 0.17425 0.65106 0.0
H362 H 0.82765 0.1499 0.70464 0.0
O363 O 0.85015 0.16325 0.65416 0.0
H364 H 0.76105 0.15125 0.66062 0.0
H365 H 0.7964 0.12753 0.71489 0.0
C366 C 0.82902 0.20207 0.6528 0.0
C367 C 0.82506 0.19897 0.6308 0.0
C368 C 0.81906 0.21599 0.61792 0.0
C369 C 0.81698 0.2365 0.62679 0.0
C370 C 0.82105 0.2396 0.64886 0.0
C371 C 0.82684 0.22247 0.6618 0.0
C372 C 0.85175 0.18765 0.6923 0.0
C373 C 0.874 0.18501 0.69244 0.0
C374 C 0.88625 0.18991 0.71085 0.0
C375 C 0.87648 0.19775 0.72945 0.0
C376 C 0.85422 0.20098 0.72897 0.0
C377 C 0.84199 0.19596 0.71056 0.0
C378 C 0.81204 0.16426 0.67744 0.0
C379 C 0.79309 0.16431 0.66515 0.0
C380 C 0.77529 0.15113 0.67069 0.0
C381 C 0.77612 0.13755 0.68861 0.0
C382 C 0.79521 0.13757 0.70086 0.0
C383 C 0.81304 0.15062 0.69518 0.0
P384 P 0.56803 0.56748 0.57026 0.0
H385 H 0.54812 0.58623 0.60763 0.0
H386 H 0.52053 0.57299 0.63252 0.0
H387 H 0.51278 0.51455 0.5955 0.0
H388 H 0.54048 0.528 0.57051 0.0
H389 H 0.5723 0.54657 0.52784 0.0
H390 H 0.59585 0.51869 0.5152 0.0
H391 H 0.62111 0.51239 0.57952 0.0
H392 H 0.59771 0.54028 0.59195 0.0
H393 H 0.58704 0.60406 0.54756 0.0
H394 H 0.5273 0.5666 0.54565 0.0
O395 O 0.58469 0.58309 0.58521 0.0
H396 H 0.57312 0.62827 0.52065 0.0
H397 H 0.51316 0.5909 0.51866 0.0
C398 C 0.54664 0.5579 0.58751 0.0
C399 C 0.5405 0.57056 0.60485 0.0
C400 C 0.52478 0.56295 0.61911 0.0
C401 C 0.51468 0.54261 0.61614 0.0
C402 C 0.52027 0.53028 0.59821 0.0
C403 C 0.53615 0.53789 0.58399 0.0
C404 C 0.58355 0.5457 0.56077 0.0
C405 C 0.58282 0.5391 0.53921 0.0
C406 C 0.59621 0.5231 0.53204 0.0
C407 C 0.61053 0.51352 0.54632 0.0
C408 C 0.61057 0.51972 0.56805 0.0
C409 C 0.59714 0.53559 0.57518 0.0
C410 C 0.55804 0.58382 0.54893 0.0
C411 C 0.57091 0.60103 0.54132 0.0
C412 C 0.56291 0.61491 0.52599 0.0
C413 C 0.54192 0.6117 0.51776 0.0
C414 C 0.52938 0.59381 0.52471 0.0
C415 C 0.5374 0.57997 0.54019 0.0
P416 P 0.5603 0.4404 0.95797 0.0
H417 H 0.59401 0.4407 0.99084 0.0
H418 H 0.61881 0.46896 0.00482 0.0
H419 H 0.58764 0.51504 0.96498 0.0
H420 H 0.56263 0.48708 0.95185 0.0
H421 H 0.54406 0.3965 0.95325 0.0
H422 H 0.5299 0.3699 0.97863 0.0
H423 H 0.5357 0.41684 0.02971 0.0
H424 H 0.54939 0.44357 0.004 0.0
H425 H 0.56177 0.4536 0.91331 0.0
H426 H 0.51493 0.45071 0.96397 0.0
O427 O 0.57714 0.42669 0.943 0.0
H428 H 0.53502 0.46728 0.88873 0.0
H429 H 0.48794 0.46475 0.93944 0.0
C430 C 0.57623 0.46178 0.97057 0.0
C431 C 0.59225 0.45701 0.98553 0.0
C432 C 0.60658 0.47314 0.99332 0.0
C433 C 0.60528 0.49434 0.98605 0.0
C434 C 0.58892 0.49903 0.97129 0.0
C435 C 0.57457 0.48294 0.96365 0.0
C436 C 0.54827 0.42181 0.97685 0.0
C437 C 0.5422 0.40109 0.9699 0.0
C438 C 0.53419 0.38587 0.98445 0.0
C439 C 0.53199 0.39112 0.00629 0.0
C440 C 0.53717 0.41227 0.01302 0.0
C441 C 0.54517 0.42752 0.99837 0.0
C442 C 0.54018 0.45067 0.94028 0.0
C443 C 0.54567 0.4559 0.91913 0.0
C444 C 0.53041 0.46399 0.90516 0.0
C445 C 0.50931 0.46714 0.91211 0.0
C446 C 0.50398 0.46229 0.93352 0.0
C447 C 0.51936 0.45425 0.94755 0.0
P448 P 0.71823 0.20354 0.2979 0.0
H449 H 0.72306 0.24952 0.30388 0.0
H450 H 0.71993 0.2729 0.33491 0.0
H451 H 0.70421 0.21793 0.37453 0.0
H452 H 0.70816 0.19444 0.34323 0.0
H453 H 0.70601 0.15911 0.28553 0.0
H454 H 0.72533 0.12601 0.28816 0.0
H455 H 0.77597 0.15962 0.32419 0.0
H456 H 0.7562 0.19244 0.32204 0.0
H457 H 0.7054 0.20339 0.25279 0.0
H458 H 0.67409 0.19765 0.31414 0.0
O459 O 0.73526 0.21604 0.28108 0.0
H460 H 0.67049 0.20318 0.23479 0.0
H461 H 0.63892 0.197 0.29617 0.0
C462 C 0.71627 0.22025 0.32136 0.0
C463 C 0.71913 0.24245 0.31927 0.0
C464 C 0.71705 0.25585 0.33703 0.0
C465 C 0.71167 0.24735 0.35727 0.0
C466 C 0.7086 0.225 0.35927 0.0
C467 C 0.71082 0.21156 0.34141 0.0
C468 C 0.72957 0.17819 0.3038 0.0
C469 C 0.72097 0.15923 0.29451 0.0
C470 C 0.73217 0.14032 0.29584 0.0
C471 C 0.75234 0.14013 0.30622 0.0
C472 C 0.76039 0.15903 0.31632 0.0
C473 C 0.74911 0.17786 0.31507 0.0
C474 C 0.69233 0.20099 0.28482 0.0
C475 C 0.69098 0.20191 0.26239 0.0
C476 C 0.67097 0.20161 0.25209 0.0
C477 C 0.65186 0.20022 0.26404 0.0
C478 C 0.65331 0.19846 0.28653 0.0
C479 C 0.6734 0.19875 0.29682 0.0
P480 P 0.49971 0.01184 0.99315 0.0
H481 H 0.54287 0.0048 0.97782 0.0
H482 H 0.55873 0.00429 0.9421 0.0
H483 H 0.49782 0.02063 0.91431 0.0
H484 H 0.48198 0.0211 0.9503 0.0
H485 H 0.52628 0.02846 0.02881 0.0
H486 H 0.52774 0.06252 0.04804 0.0
H487 H 0.48093 0.08704 0.00404 0.0
H488 H 0.47968 0.05268 0.98457 0.0
H489 H 0.47545 0.98007 0.96692 0.0
H490 H 0.4636 0.02066 0.02136 0.0
O491 O 0.51336 0.99461 0.00776 0.0
H492 H 0.43901 0.96431 0.96944 0.0
H493 H 0.42737 0.00453 0.02442 0.0
C494 C 0.51113 0.01247 0.96664 0.0
C495 C 0.53289 0.00823 0.96406 0.0
C496 C 0.54198 0.00806 0.94363 0.0
C497 C 0.52949 0.01224 0.92535 0.0
C498 C 0.50775 0.01698 0.92805 0.0
C499 C 0.49871 0.01732 0.94858 0.0
C500 C 0.50264 0.03795 0.00545 0.0
C501 C 0.51645 0.04117 0.02312 0.0
C502 C 0.51724 0.06066 0.03415 0.0
C503 C 0.50423 0.07736 0.02773 0.0
C504 C 0.49117 0.07448 0.00933 0.0
C505 C 0.49039 0.05487 0.99826 0.0
C506 C 0.47202 0.00211 0.99343 0.0
C507 C 0.46489 0.98588 0.97918 0.0
C508 C 0.44412 0.97664 0.98087 0.0
C509 C 0.4302 0.98314 0.99716 0.0
C510 C 0.43748 0.9994 0.01146 0.0
C511 C 0.45823 0.00868 0.00968 0.0
Mn512 Mn 0.25058 0.87532 0.00545 0.0
Mn513 Mn 0.24825 0.89975 0.95751 0.0
C514 C 0.23263 0.85817 0.97667 0.0
C515 C 0.26768 0.85337 0.02995 0.0
C516 C 0.2224 0.91294 0.99622 0.0
O517 O 0.27487 0.89843 0.00738 0.0
O518 O 0.27428 0.91043 0.97334 0.0
C519 C 0.28661 0.88326 0.93623 0.0
N520 N 0.26497 0.8857 0.93655 0.0
C521 C 0.26088 0.87156 0.90073 0.0
C522 C 0.28312 0.86888 0.89997 0.0
C523 C 0.29601 0.87455 0.91789 0.0
C524 C 0.25234 0.87964 0.91968 0.0
H525 H 0.29663 0.88812 0.94977 0.0
C526 C 0.28277 0.90984 0.99211 0.0
O527 O 0.25439 0.86755 0.03617 0.0
O528 O 0.27151 0.85234 0.00952 0.0
N529 N 0.22386 0.89067 0.94042 0.0
C530 C 0.20271 0.89449 0.94363 0.0
C531 C 0.18758 0.88916 0.92744 0.0
C532 C 0.1944 0.88046 0.90794 0.0
C533 C 0.21629 0.87706 0.90485 0.0
C534 C 0.23058 0.88232 0.92171 0.0
H535 H 0.19742 0.90165 0.95837 0.0
O536 O 0.22823 0.85297 0.99636 0.0
O537 O 0.24716 0.87351 0.97462 0.0
O538 O 0.22776 0.89776 0.00842 0.0
O539 O 0.23004 0.91563 0.97744 0.0
C540 C 0.22455 0.86913 0.88552 0.0
C541 C 0.24685 0.86663 0.88338 0.0
H542 H 0.29046 0.86248 0.88574 0.0
H543 H 0.31319 0.87254 0.91744 0.0
H544 H 0.17074 0.89199 0.92989 0.0
H545 H 0.18271 0.87659 0.8954 0.0
H546 H 0.21391 0.86506 0.87214 0.0
H547 H 0.25303 0.86072 0.86836 0.0
Mn548 Mn 0.13873 0.50777 0.25097 0.0
Mn549 Mn 0.11908 0.5573 0.24986 0.0
C550 C 0.1575 0.53532 0.23344 0.0
C551 C 0.15936 0.48167 0.26699 0.0
C552 C 0.10233 0.52112 0.22094 0.0
O553 O 0.11669 0.50646 0.27506 0.0
O554 O 0.10523 0.54003 0.27305 0.0
C555 C 0.13608 0.57294 0.29187 0.0
N556 N 0.13419 0.57535 0.27023 0.0
C557 C 0.15325 0.6096 0.27164 0.0
C558 C 0.15535 0.60753 0.29396 0.0
C559 C 0.14683 0.58906 0.30409 0.0
C560 C 0.14258 0.59291 0.26029 0.0
H561 H 0.12939 0.55886 0.29975 0.0
C562 C 0.10502 0.52144 0.28162 0.0
O563 O 0.14383 0.47658 0.25366 0.0
O564 O 0.16243 0.50185 0.27151 0.0
N565 N 0.13104 0.57613 0.22857 0.0
C566 C 0.12882 0.57501 0.20682 0.0
C567 C 0.13678 0.59207 0.19421 0.0
C568 C 0.14666 0.6102 0.2041 0.0
C569 C 0.14897 0.6109 0.22651 0.0
C570 C 0.14074 0.59341 0.23823 0.0
H571 H 0.12095 0.56125 0.19916 0.0
O572 O 0.16047 0.51546 0.22861 0.0
O573 O 0.14365 0.5386 0.24856 0.0
O574 O 0.11462 0.50695 0.22819 0.0
O575 O 0.10272 0.54033 0.22801 0.0
C576 C 0.1591 0.62824 0.23768 0.0
C577 C 0.16142 0.62751 0.26021 0.0
H578 H 0.16355 0.61998 0.30345 0.0
H579 H 0.14843 0.58732 0.3213 0.0
H580 H 0.13509 0.59137 0.17691 0.0
H581 H 0.15247 0.62346 0.19433 0.0
H582 H 0.1654 0.64212 0.22909 0.0
H583 H 0.16959 0.64076 0.26856 0.0
Mn584 Mn 0.75221 0.63175 0.00639 0.0
Mn585 Mn 0.70754 0.65065 0.98326 0.0
C586 C 0.72004 0.61136 0.00694 0.0
C587 C 0.78424 0.61337 0.00512 0.0
C588 C 0.72448 0.66578 0.0267 0.0
O589 O 0.76445 0.65598 0.98744 0.0
O590 O 0.73359 0.66599 0.97221 0.0
C591 C 0.71481 0.63596 0.93875 0.0
N592 N 0.70198 0.63676 0.95633 0.0
C593 C 0.67253 0.61887 0.93743 0.0
C594 C 0.68539 0.61786 0.91908 0.0
C595 C 0.70668 0.62631 0.9198 0.0
C596 C 0.68165 0.62831 0.95594 0.0
H597 H 0.73106 0.64275 0.93919 0.0
C598 C 0.75403 0.66769 0.9746 0.0
O599 O 0.78088 0.62763 0.01977 0.0
O600 O 0.7692 0.61017 0.99075 0.0
N601 N 0.68077 0.63764 0.99212 0.0
C602 C 0.67086 0.63918 0.01146 0.0
C603 C 0.64941 0.63165 0.01349 0.0
C604 C 0.63832 0.62295 0.99556 0.0
C605 C 0.64897 0.62121 0.9759 0.0
C606 C 0.67031 0.62904 0.97484 0.0
H607 H 0.67914 0.64644 0.02512 0.0
O608 O 0.73527 0.6081 0.02073 0.0
O609 O 0.72414 0.62629 0.99286 0.0
O610 O 0.74042 0.65364 0.0275 0.0
O611 O 0.7114 0.66596 0.01084 0.0
C612 C 0.6392 0.61224 0.95726 0.0
C613 C 0.65104 0.61086 0.9381 0.0
H614 H 0.67912 0.61059 0.90438 0.0
H615 H 0.71671 0.62558 0.90571 0.0
H616 H 0.64132 0.63292 0.02874 0.0
H617 H 0.62161 0.61767 0.99708 0.0
H618 H 0.62264 0.60618 0.95752 0.0
H619 H 0.64347 0.60362 0.92398 0.0
Mn620 Mn 0.87474 0.99886 0.25816 0.0
Mn621 Mn 0.89369 0.94953 0.25101 0.0
C622 C 0.8549 0.97323 0.2385 0.0
C623 C 0.85521 0.02412 0.27663 0.0
C624 C 0.90997 0.98817 0.22597 0.0
O625 O 0.89756 0.9976 0.28183 0.0
O626 O 0.90873 0.96442 0.27538 0.0
C627 C 0.87851 0.92994 0.29166 0.0
N628 N 0.87932 0.92969 0.26981 0.0
C629 C 0.86004 0.89557 0.26814 0.0
C630 C 0.85905 0.89541 0.29062 0.0
C631 C 0.86822 0.91274 0.30242 0.0
C632 C 0.8703 0.91325 0.2583 0.0
H633 H 0.88573 0.94312 0.30079 0.0
C634 C 0.90948 0.98199 0.28609 0.0
O635 O 0.87069 0.02973 0.26374 0.0
O636 O 0.85163 0.00373 0.27955 0.0
N637 N 0.88051 0.93301 0.22822 0.0
C638 C 0.88164 0.93632 0.20665 0.0
C639 C 0.87269 0.92076 0.19253 0.0
C640 C 0.863 0.90183 0.20071 0.0
C641 C 0.86196 0.89883 0.22298 0.0
C642 C 0.87104 0.91495 0.23626 0.0
H643 H 0.88942 0.95067 0.2003 0.0
O644 O 0.8522 0.99348 0.23561 0.0
O645 O 0.86928 0.96846 0.25278 0.0
O646 O 0.89806 0.00148 0.23516 0.0
O647 O 0.90953 0.96831 0.2306 0.0
C648 C 0.85226 0.8805 0.23254 0.0
C649 C 0.85114 0.87895 0.25509 0.0
H650 H 0.8512 0.88213 0.29898 0.0
H651 H 0.86748 0.91276 0.31977 0.0
H652 H 0.87346 0.92322 0.17536 0.0
H653 H 0.85637 0.88975 0.18975 0.0
H654 H 0.84542 0.86757 0.22271 0.0
H655 H 0.84327 0.86496 0.26224 0.0
Mn656 Mn 0.25023 0.13077 0.50382 0.0
Mn657 Mn 0.20538 0.1491 0.48053 0.0
C658 C 0.21824 0.11007 0.50415 0.0
C659 C 0.28247 0.1127 0.50296 0.0
C660 C 0.22158 0.16415 0.52416 0.0
O661 O 0.2624 0.1549 0.48481 0.0
O662 O 0.23136 0.16532 0.47036 0.0
C663 C 0.21417 0.13551 0.43595 0.0
N664 N 0.20086 0.13563 0.45321 0.0
C665 C 0.17245 0.11714 0.43332 0.0
C666 C 0.18581 0.11683 0.4153 0.0
C667 C 0.20682 0.12593 0.41667 0.0
C668 C 0.1808 0.12656 0.45219 0.0
H669 H 0.23021 0.14276 0.43689 0.0
C670 C 0.25183 0.16697 0.47249 0.0
O671 O 0.27887 0.12707 0.51743 0.0
O672 O 0.26751 0.10917 0.48857 0.0
N673 N 0.17869 0.13524 0.48846 0.0
C674 C 0.16823 0.13613 0.50755 0.0
C675 C 0.14694 0.12795 0.50891 0.0
C676 C 0.13657 0.11924 0.49057 0.0
C677 C 0.14779 0.11816 0.47118 0.0
C678 C 0.16893 0.12664 0.47079 0.0
H679 H 0.17596 0.14332 0.52155 0.0
O680 O 0.23331 0.10709 0.51819 0.0
O681 O 0.22232 0.12498 0.49006 0.0
O682 O 0.23817 0.15285 0.52457 0.0
O683 O 0.20819 0.16377 0.50855 0.0
C684 C 0.13878 0.1092 0.45218 0.0
C685 C 0.15118 0.10847 0.43333 0.0
H686 H 0.18013 0.10962 0.40035 0.0
H687 H 0.21724 0.12574 0.40284 0.0
H688 H 0.13842 0.12868 0.52396 0.0
H689 H 0.11998 0.11343 0.49159 0.0
H690 H 0.12239 0.10265 0.45192 0.0
H691 H 0.14419 0.10123 0.41892 0.0
Mn692 Mn 0.37342 0.4999 0.76001 0.0
Mn693 Mn 0.39247 0.4505 0.75386 0.0
C694 C 0.35384 0.47394 0.74056 0.0
C695 C 0.35365 0.52545 0.77777 0.0
C696 C 0.40879 0.48856 0.72812 0.0
O697 O 0.39593 0.49907 0.78398 0.0
O698 O 0.40768 0.46608 0.77771 0.0
C699 C 0.37737 0.43221 0.79513 0.0
N700 N 0.37815 0.43126 0.7733 0.0
C701 C 0.35871 0.3972 0.77272 0.0
C702 C 0.35775 0.39776 0.7952 0.0
C703 C 0.36701 0.41541 0.80644 0.0
C704 C 0.36901 0.41452 0.76232 0.0
H705 H 0.38466 0.44564 0.80384 0.0
C706 C 0.4082 0.48375 0.78821 0.0
O707 O 0.36933 0.53087 0.76504 0.0
O708 O 0.34998 0.50511 0.78094 0.0
N709 N 0.37924 0.43328 0.73162 0.0
C710 C 0.38049 0.43583 0.70995 0.0
C711 C 0.3716 0.41978 0.69632 0.0
C712 C 0.36189 0.40116 0.70512 0.0
C713 C 0.36071 0.39895 0.72748 0.0
C714 C 0.36974 0.41551 0.74023 0.0
H715 H 0.38832 0.44993 0.70313 0.0
O716 O 0.35117 0.49413 0.73725 0.0
O717 O 0.36804 0.46942 0.75511 0.0
O718 O 0.39707 0.50209 0.73726 0.0
O719 O 0.40815 0.46873 0.73288 0.0
C720 C 0.35097 0.38096 0.73762 0.0
C721 C 0.34978 0.38018 0.76021 0.0
H722 H 0.34987 0.38477 0.80398 0.0
H723 H 0.3663 0.41598 0.82378 0.0
H724 H 0.37248 0.42163 0.67909 0.0
H725 H 0.35534 0.38869 0.69454 0.0
H726 H 0.34416 0.3677 0.72821 0.0
H727 H 0.34188 0.36645 0.7678 0.0
Mn728 Mn 0.7499 0.37397 0.50327 0.0
Mn729 Mn 0.74696 0.39848 0.45525 0.0
C730 C 0.73225 0.35673 0.47465 0.0
C731 C 0.76715 0.35227 0.52791 0.0
C732 C 0.71997 0.41036 0.49358 0.0
O733 O 0.77372 0.39746 0.50541 0.0
O734 O 0.77175 0.41086 0.47198 0.0
C735 C 0.78728 0.3848 0.43541 0.0
N736 N 0.76548 0.38596 0.43482 0.0
C737 C 0.76362 0.37074 0.39928 0.0
C738 C 0.78606 0.36943 0.39947 0.0
C739 C 0.79792 0.37636 0.41767 0.0
C740 C 0.75389 0.3791 0.41751 0.0
H741 H 0.79647 0.39035 0.44927 0.0
C742 C 0.7806 0.41 0.49057 0.0
O743 O 0.7535 0.36616 0.534 0.0
O744 O 0.77127 0.3514 0.50752 0.0
N745 N 0.72387 0.38774 0.43731 0.0
C746 C 0.70228 0.3889 0.44027 0.0
C747 C 0.68806 0.38202 0.42381 0.0
C748 C 0.6962 0.37429 0.40441 0.0
C749 C 0.71848 0.37306 0.40182 0.0
C750 C 0.73185 0.38007 0.41881 0.0
H751 H 0.69598 0.39517 0.45502 0.0
O752 O 0.72783 0.35142 0.4943 0.0
O753 O 0.74674 0.37213 0.47234 0.0
O754 O 0.72665 0.39605 0.50618 0.0
O755 O 0.72694 0.41284 0.47451 0.0
C756 C 0.72796 0.36516 0.38306 0.0
C757 C 0.7505 0.36389 0.38184 0.0
H758 H 0.79433 0.36299 0.38579 0.0
H759 H 0.81524 0.37535 0.41795 0.0
H760 H 0.67088 0.38288 0.42597 0.0
H761 H 0.68517 0.36918 0.39168 0.0
H762 H 0.71807 0.35991 0.36952 0.0
H763 H 0.75757 0.35747 0.36746 0.0
Mn764 Mn 0.63728 0.00717 0.75086 0.0
Mn765 Mn 0.61635 0.05614 0.75097 0.0
C766 C 0.65526 0.03557 0.73391 0.0
C767 C 0.65846 0.98115 0.76627 0.0
C768 C 0.60049 0.02033 0.72116 0.0
O769 O 0.61524 0.00473 0.77495 0.0
O770 O 0.60292 0.038 0.77368 0.0
C771 C 0.6332 0.07093 0.79332 0.0
N772 N 0.63117 0.07391 0.77177 0.0
C773 C 0.64983 0.10832 0.77404 0.0
C774 C 0.65206 0.10567 0.79628 0.0
C775 C 0.64381 0.08683 0.80593 0.0
C776 C 0.63934 0.09181 0.76227 0.0
H777 H 0.62672 0.05655 0.80084 0.0
C778 C 0.60315 0.01924 0.78181 0.0
O779 O 0.64308 0.97608 0.75277 0.0
O780 O 0.66111 1.00126 0.77128 0.0
N781 N 0.6278 0.07581 0.73016 0.0
C782 C 0.62522 0.0754 0.70842 0.0
C783 C 0.6328 0.09296 0.69628 0.0
C784 C 0.6426 0.11088 0.70663 0.0
C785 C 0.64515 0.1109 0.72901 0.0
C786 C 0.63735 0.09292 0.74026 0.0
H787 H 0.61732 0.06184 0.70044 0.0
O788 O 0.65885 0.01594 0.72867 0.0
O789 O 0.64138 0.03811 0.74915 0.0
O790 O 0.61322 0.00637 0.72804 0.0
O791 O 0.60031 0.03934 0.72874 0.0
C792 C 0.65506 0.12807 0.74063 0.0
C793 C 0.65762 0.12668 0.76309 0.0
H794 H 0.66013 0.11796 0.80607 0.0
H795 H 0.64551 0.08463 0.82308 0.0
H796 H 0.63086 0.09281 0.679 0.0
H797 H 0.64809 0.12453 0.69722 0.0
H798 H 0.66094 0.14236 0.73244 0.0
H799 H 0.66562 0.13982 0.77178 0.0
Mn800 Mn 0.99781 0.25385 0.87584 0.0
Mn801 Mn 0.94856 0.24734 0.89775 0.0
C802 C 0.97065 0.23453 0.85767 0.0
C803 C 0.02326 0.27209 0.85459 0.0
C804 C 0.9869 0.2227 0.91244 0.0
O805 O 0.99796 0.27759 0.89854 0.0
O806 O 0.96421 0.27252 0.911 0.0
C807 C 0.92912 0.28686 0.88215 0.0
N808 N 0.92871 0.26512 0.88358 0.0
C809 C 0.89481 0.26195 0.86479 0.0
C810 C 0.89482 0.28431 0.86318 0.0
C811 C 0.91211 0.29681 0.87181 0.0
C812 C 0.91226 0.25294 0.87516 0.0
H813 H 0.94231 0.29654 0.88887 0.0
C814 C 0.98247 0.28281 0.91064 0.0
O815 O 0.02886 0.25917 0.86967 0.0
O816 O 0.00285 0.27517 0.85247 0.0
N817 N 0.93163 0.2238 0.88603 0.0
C818 C 0.93485 0.20245 0.88757 0.0
C819 C 0.9194 0.1877 0.87902 0.0
C820 C 0.90072 0.19506 0.86924 0.0
C821 C 0.89779 0.21713 0.86782 0.0
C822 C 0.91378 0.23105 0.87651 0.0
H823 H 0.94909 0.19671 0.89527 0.0
O824 O 0.99072 0.23135 0.85369 0.0
O825 O 0.96708 0.24875 0.87237 0.0
O826 O 1.00013 0.231 0.89904 0.0
O827 O 0.96733 0.22791 0.91349 0.0
C828 C 0.87967 0.22585 0.85805 0.0
C829 C 0.87827 0.24824 0.85637 0.0
H830 H 0.88172 0.29204 0.85524 0.0
H831 H 0.91227 0.31407 0.87057 0.0
H832 H 0.92183 0.1707 0.88008 0.0
H833 H 0.88879 0.18363 0.86276 0.0
H834 H 0.86678 0.21549 0.85168 0.0
H835 H 0.86445 0.25474 0.84845 0.0
Mn836 Mn 0.49747 0.75264 0.37774 0.0
Mn837 Mn 0.44828 0.74643 0.39982 0.0
C838 C 0.47027 0.73312 0.35988 0.0
C839 C 0.52288 0.77074 0.3563 0.0
C840 C 0.48657 0.72183 0.41465 0.0
O841 O 0.49767 0.77667 0.40011 0.0
O842 O 0.46405 0.77162 0.41293 0.0
C843 C 0.42912 0.78594 0.38382 0.0
N844 N 0.42856 0.76421 0.38546 0.0
C845 C 0.39481 0.76108 0.3664 0.0
C846 C 0.39498 0.78343 0.36458 0.0
C847 C 0.41226 0.7959 0.37324 0.0
C848 C 0.41212 0.75205 0.377 0.0
H849 H 0.44232 0.7956 0.39055 0.0
C850 C 0.4823 0.78192 0.41234 0.0
O851 O 0.52853 0.75801 0.37152 0.0
O852 O 0.50244 0.77363 0.35407 0.0
N853 N 0.43123 0.72289 0.38827 0.0
C854 C 0.43428 0.70152 0.39007 0.0
C855 C 0.4188 0.68679 0.38155 0.0
C856 C 0.40024 0.69418 0.37155 0.0
C857 C 0.39746 0.71625 0.3699 0.0
C858 C 0.4135 0.73016 0.37856 0.0
H859 H 0.44842 0.69576 0.39792 0.0
O860 O 0.49031 0.72986 0.35587 0.0
O861 O 0.46676 0.74752 0.37441 0.0
O862 O 0.49981 0.73008 0.40123 0.0
O863 O 0.46698 0.72701 0.41566 0.0
C864 C 0.37948 0.72501 0.35993 0.0
C865 C 0.37824 0.74739 0.35798 0.0
H866 H 0.38199 0.79117 0.35646 0.0
H867 H 0.41254 0.81315 0.37184 0.0
H868 H 0.42109 0.66978 0.38281 0.0
H869 H 0.38829 0.68277 0.36509 0.0
H870 H 0.36655 0.71466 0.35359 0.0
H871 H 0.36453 0.7539 0.34989 0.0
Mn872 Mn 0.9998 0.74183 0.63697 0.0
Mn873 Mn 0.97221 0.70016 0.65965 0.0
C874 C 1.00044 0.70802 0.62122 0.0
C875 C 0.00205 0.77186 0.61473 0.0
C876 C 0.01528 0.71769 0.67649 0.0
O877 O 0.97974 0.75659 0.65762 0.0
O878 O 0.96104 0.72765 0.66976 0.0
C879 C 0.93002 0.70625 0.63875 0.0
N880 N 0.94651 0.69346 0.64364 0.0
C881 C 0.92765 0.66263 0.62831 0.0
C882 C 0.9104 0.67545 0.62314 0.0
C883 C 0.91167 0.69739 0.62824 0.0
C884 C 0.94568 0.67247 0.63835 0.0
H885 H 0.93085 0.72306 0.64294 0.0
C886 C 0.96474 0.7479 0.66887 0.0
O887 O 0.01519 0.76952 0.63071 0.0
O888 O 0.98721 0.75685 0.61183 0.0
N889 N 0.98066 0.67221 0.65177 0.0
C890 C 0.99897 0.66229 0.65726 0.0
C891 C 1.00009 0.64015 0.654 0.0
C892 C 0.98231 0.62844 0.64535 0.0
C893 C 0.96388 0.63909 0.63919 0.0
C894 C 0.96361 0.66112 0.64306 0.0
H895 H 0.01245 0.67111 0.66449 0.0
O896 O 0.0152 0.72267 0.61712 0.0
O897 O 0.9852 0.71369 0.63404 0.0
O898 O 0.01806 0.73204 0.66221 0.0
O899 O 0.99852 0.70524 0.67726 0.0
C900 C 0.94565 0.62868 0.62967 0.0
C901 C 0.92766 0.64049 0.62397 0.0
H902 H 0.89613 0.66862 0.61524 0.0
H903 H 0.89845 0.70739 0.62428 0.0
H904 H 0.01445 0.63206 0.65854 0.0
H905 H 0.98304 0.61127 0.64342 0.0
H906 H 0.94537 0.61162 0.62648 0.0
H907 H 0.91388 0.63238 0.61636 0.0
Mn908 Mn 0.50039 0.24404 0.13652 0.0
Mn909 Mn 0.47445 0.20216 0.16059 0.0
C910 C 0.50123 0.21008 0.12113 0.0
C911 C 0.50137 0.27388 0.11402 0.0
C912 C 0.51773 0.22076 0.17577 0.0
O913 O 0.48067 0.25863 0.15767 0.0
O914 O 0.46295 0.2295 0.17066 0.0
C915 C 0.43148 0.20699 0.14091 0.0
N916 N 0.44843 0.19465 0.14544 0.0
C917 C 0.42987 0.16325 0.13097 0.0
C918 C 0.41216 0.17558 0.12617 0.0
C919 C 0.41303 0.19758 0.13102 0.0
C920 C 0.44796 0.17362 0.14037 0.0
H921 H 0.43202 0.22383 0.1449 0.0
C922 C 0.46617 0.24978 0.16943 0.0
O923 O 0.51502 0.27193 0.12962 0.0
O924 O 0.48675 0.25856 0.11163 0.0
N925 N 0.48333 0.17433 0.15283 0.0
C926 C 0.502 0.16489 0.15802 0.0
C927 C 0.50355 0.14277 0.15494 0.0
C928 C 0.48583 0.13058 0.14683 0.0
C929 C 0.46698 0.14071 0.14106 0.0
C930 C 0.46631 0.16276 0.14469 0.0
H931 H 0.51542 0.17407 0.16494 0.0
O932 O 0.51553 0.22497 0.11637 0.0
O933 O 0.4863 0.2156 0.13439 0.0
O934 O 0.51972 0.23488 0.16118 0.0
O935 O 0.50119 0.20811 0.17735 0.0
C936 C 0.44872 0.12978 0.13219 0.0
C937 C 0.43028 0.14109 0.12686 0.0
H938 H 0.39782 0.16833 0.11876 0.0
H939 H 0.39944 0.20721 0.12735 0.0
H940 H 0.51822 0.13506 0.15923 0.0
H941 H 0.48692 0.11342 0.14504 0.0
H942 H 0.44874 0.1127 0.12921 0.0
H943 H 0.41647 0.13258 0.11974 0.0
C944 C 0.21213 0.75861 0.89546 0.0
C945 C 0.22357 0.76289 0.8765 0.0
C946 C 0.21376 0.77279 0.91309 0.0
C947 C 0.22665 0.79195 0.9115 0.0
C948 C 0.23903 0.7957 0.89279 0.0
C949 C 0.23739 0.78114 0.87567 0.0
C950 C 0.20198 0.7671 0.93351 0.0
C951 C 0.2545 0.81473 0.89045 0.0
C952 C 0.21226 0.83922 0.94674 0.0
C953 C 0.23033 0.8413 0.96014 0.0
C954 C 0.21087 0.82329 0.93069 0.0
C955 C 0.22714 0.8081 0.92925 0.0
C956 C 0.24469 0.80937 0.94385 0.0
C957 C 0.24632 0.82627 0.95874 0.0
C958 C 0.19259 0.82339 0.91464 0.0
C959 C 0.26208 0.79327 0.94344 0.0
H960 H 0.20162 0.7444 0.8964 0.0
H961 H 0.24705 0.78414 0.86149 0.0
H962 H 0.21326 0.76832 0.9474 0.0
H963 H 0.18916 0.77853 0.93643 0.0
H964 H 0.19451 0.75065 0.93294 0.0
H965 H 0.25278 0.82179 0.87424 0.0
H966 H 0.25237 0.82725 0.90274 0.0
H967 H 0.2712 0.80927 0.89172 0.0
H968 H 0.19952 0.85032 0.94846 0.0
H969 H 0.26007 0.82762 0.96953 0.0
H970 H 0.18408 0.8075 0.91378 0.0
H971 H 0.19917 0.82684 0.89844 0.0
H972 H 0.18074 0.83558 0.9186 0.0
H973 H 0.25512 0.77683 0.94074 0.0
H974 H 0.27158 0.79351 0.95861 0.0
H975 H 0.27324 0.7971 0.93006 0.0
C976 C 0.02737 0.50511 0.38431 0.0
C977 C 0.0389 0.51255 0.40248 0.0
C978 C 0.037 0.50495 0.36395 0.0
C979 C 0.05862 0.51256 0.3617 0.0
C980 C 0.07034 0.52004 0.38001 0.0
C981 C 0.06036 0.51991 0.40015 0.0
C982 C 0.02402 0.49676 0.34484 0.0
C983 C 0.09334 0.52852 0.37829 0.0
C984 C 0.09217 0.49903 0.31293 0.0
C985 C 0.09147 0.518 0.30101 0.0
C986 C 0.08095 0.4967 0.33237 0.0
C987 C 0.06879 0.51374 0.34012 0.0
C988 C 0.06741 0.53259 0.32781 0.0
C989 C 0.07869 0.53447 0.30846 0.0
C990 C 0.0827 0.4763 0.34499 0.0
C991 C 0.05465 0.55115 0.33547 0.0
H992 H 0.01087 0.49916 0.38605 0.0
H993 H 0.06928 0.52592 0.41407 0.0
H994 H 0.02243 0.50976 0.33295 0.0
H995 H 0.03244 0.48368 0.33677 0.0
H996 H 0.00766 0.49067 0.34939 0.0
H997 H 0.1004 0.53319 0.39415 0.0
H998 H 0.10339 0.51623 0.37095 0.0
H999 H 0.09415 0.5427 0.36765 0.0
H1000 H 0.10193 0.48619 0.30737 0.0
H1001 H 0.07788 0.54919 0.29943 0.0
H1002 H 0.06645 0.46968 0.34919 0.0
H1003 H 0.09146 0.47975 0.36028 0.0
H1004 H 0.09131 0.46392 0.33601 0.0
H1005 H 0.03791 0.54565 0.33914 0.0
H1006 H 0.05418 0.56419 0.32345 0.0
H1007 H 0.06188 0.55782 0.35054 0.0
C1008 C 0.80257 0.74596 0.88501 0.0
C1009 C 0.80903 0.76614 0.89328 0.0
C1010 C 0.79627 0.72906 0.89868 0.0
C1011 C 0.79628 0.73243 0.92118 0.0
C1012 C 0.80362 0.75251 0.92967 0.0
C1013 C 0.80993 0.7691 0.91563 0.0
C1014 C 0.78869 0.70787 0.88897 0.0
C1015 C 0.80373 0.75685 0.95353 0.0
C1016 C 0.75374 0.70059 0.95213 0.0
C1017 C 0.76555 0.68446 0.9617 0.0
C1018 C 0.76365 0.71632 0.93921 0.0
C1019 C 0.78603 0.716 0.93554 0.0
C1020 C 0.7982 0.69997 0.9453 0.0
C1021 C 0.78783 0.68441 0.95838 0.0
C1022 C 0.75005 0.73321 0.92933 0.0
C1023 C 0.82209 0.69908 0.94165 0.0
H1024 H 0.80221 0.74344 0.86778 0.0
H1025 H 0.81477 0.78468 0.92216 0.0
H1026 H 0.79671 0.69453 0.89699 0.0
H1027 H 0.77113 0.70537 0.89149 0.0
H1028 H 0.79188 0.70705 0.87146 0.0
H1029 H 0.81214 0.77235 0.95769 0.0
H1030 H 0.78693 0.75722 0.95933 0.0
H1031 H 0.81161 0.74386 0.96227 0.0
H1032 H 0.73655 0.70101 0.95472 0.0
H1033 H 0.79708 0.67201 0.96565 0.0
H1034 H 0.75079 0.73221 0.91157 0.0
H1035 H 0.75639 0.7494 0.93411 0.0
H1036 H 0.73292 0.73151 0.9342 0.0
H1037 H 0.82522 0.69662 0.92432 0.0
H1038 H 0.82937 0.686 0.95083 0.0
H1039 H 0.83025 0.71452 0.94638 0.0
C1040 C 0.96956 0.96598 0.39711 0.0
C1041 C 0.99136 0.97269 0.39687 0.0
C1042 C 0.95574 0.97064 0.37999 0.0
C1043 C 0.96389 0.98232 0.36218 0.0
C1044 C 0.9855 0.99035 0.36249 0.0
C1045 C 0.99899 0.9854 0.3798 0.0
C1046 C 0.93278 0.96186 0.38037 0.0
C1047 C 0.99481 0.00293 0.34388 0.0
C1048 C 0.93865 0.96691 0.30846 0.0
C1049 C 0.92438 0.98338 0.30489 0.0
C1050 C 0.95177 0.96669 0.3268 0.0
C1051 C 0.95077 0.9834 0.34211 0.0
C1052 C 0.93691 1.00043 0.33843 0.0
C1053 C 0.92384 1.00023 0.31985 0.0
C1054 C 0.96636 0.94823 0.33001 0.0
C1055 C 0.93552 0.01858 0.35435 0.0
H1056 H 0.96344 0.95651 0.41043 0.0
H1057 H 0.01583 0.99055 0.37935 0.0
H1058 H 0.92155 0.97448 0.376 0.0
H1059 H 0.93065 0.94882 0.3683 0.0
H1060 H 0.92823 0.95537 0.39635 0.0
H1061 H 0.01072 0.0107 0.34792 0.0
H1062 H 0.99684 0.99203 0.33 0.0
H1063 H 0.98375 0.01543 0.33876 0.0
H1064 H 0.93939 0.95384 0.29703 0.0
H1065 H 0.9129 0.01303 0.3173 0.0
H1066 H 0.96175 0.9394 0.3448 0.0
H1067 H 0.98325 0.95431 0.33215 0.0
H1068 H 0.96566 0.93679 0.31629 0.0
H1069 H 0.92897 0.01237 0.36973 0.0
H1070 H 0.92508 0.03132 0.34848 0.0
H1071 H 0.95179 0.02575 0.35781 0.0
C1072 C 0.20539 0.26318 0.60159 0.0
C1073 C 0.19766 0.25792 0.62211 0.0
C1074 C 0.21023 0.24724 0.58665 0.0
C1075 C 0.20697 0.22542 0.59217 0.0
C1076 C 0.19943 0.21993 0.6129 0.0
C1077 C 0.19497 0.23623 0.62765 0.0
C1078 C 0.21834 0.25379 0.56475 0.0
C1079 C 0.19565 0.19684 0.61934 0.0
C1080 C 0.19737 0.18748 0.54498 0.0
C1081 C 0.21764 0.17876 0.54246 0.0
C1082 C 0.19354 0.20213 0.5615 0.0
C1083 C 0.21044 0.20848 0.57578 0.0
C1084 C 0.23082 0.19946 0.57364 0.0
C1085 C 0.23415 0.18461 0.55709 0.0
C1086 C 0.17149 0.21117 0.56338 0.0
C1087 C 0.24929 0.20599 0.58843 0.0
H1088 H 0.20717 0.27982 0.59692 0.0
H1089 H 0.18931 0.23195 0.64353 0.0
H1090 H 0.2335 0.2458 0.56116 0.0
H1091 H 0.20639 0.2486 0.55228 0.0
H1092 H 0.22132 0.27138 0.56345 0.0
H1093 H 0.19047 0.19521 0.6363 0.0
H1094 H 0.18307 0.18912 0.60884 0.0
H1095 H 0.21053 0.18795 0.61712 0.0
H1096 H 0.18443 0.18296 0.53391 0.0
H1097 H 0.24987 0.17803 0.55526 0.0
H1098 H 0.17253 0.22865 0.56036 0.0
H1099 H 0.16527 0.20884 0.57989 0.0
H1100 H 0.15975 0.20361 0.55184 0.0
H1101 H 0.2536 0.22324 0.58626 0.0
H1102 H 0.26379 0.19668 0.58538 0.0
H1103 H 0.2445 0.20378 0.60542 0.0
C1104 C 0.4793 0.52415 0.6254 0.0
C1105 C 0.49882 0.53418 0.63208 0.0
C1106 C 0.46413 0.51649 0.64045 0.0
C1107 C 0.46869 0.51872 0.66269 0.0
C1108 C 0.48847 0.52863 0.66949 0.0
C1109 C 0.50323 0.53629 0.65413 0.0
C1110 C 0.44315 0.50618 0.63257 0.0
C1111 C 0.49406 0.53112 0.69303 0.0
C1112 C 0.4232 0.51717 0.70324 0.0
C1113 C 0.42384 0.49618 0.71106 0.0
C1114 C 0.43743 0.52458 0.68723 0.0
C1115 C 0.45282 0.51075 0.67892 0.0
C1116 C 0.45348 0.48952 0.68661 0.0
C1117 C 0.43896 0.48247 0.7025 0.0
C1118 C 0.43611 0.54729 0.67934 0.0
C1119 C 0.46975 0.47433 0.67828 0.0
H1120 H 0.47574 0.52264 0.60839 0.0
H1121 H 0.51842 0.54374 0.65938 0.0
H1122 H 0.44128 0.48961 0.63877 0.0
H1123 H 0.42949 0.51517 0.63878 0.0
H1124 H 0.44208 0.50562 0.61476 0.0
H1125 H 0.51021 0.53899 0.69566 0.0
H1126 H 0.48193 0.54077 0.70116 0.0
H1127 H 0.49371 0.5152 0.70084 0.0
H1128 H 0.41154 0.52789 0.70959 0.0
H1129 H 0.43964 0.46623 0.70837 0.0
H1130 H 0.4338 0.54735 0.66166 0.0
H1131 H 0.45141 0.55638 0.6829 0.0
H1132 H 0.42273 0.55577 0.68686 0.0
H1133 H 0.46814 0.47262 0.6606 0.0
H1134 H 0.4679 0.4582 0.68561 0.0
H1135 H 0.48627 0.4809 0.6817 0.0
C1136 C 0.79304 0.25146 0.59861 0.0
C1137 C 0.81032 0.25446 0.61303 0.0
C1138 C 0.78669 0.2681 0.58524 0.0
C1139 C 0.79802 0.28821 0.58612 0.0
C1140 C 0.81547 0.29136 0.60067 0.0
C1141 C 0.82134 0.27448 0.61405 0.0
C1142 C 0.7678 0.26415 0.57017 0.0
C1143 C 0.82809 0.31249 0.60194 0.0
C1144 C 0.79226 0.32321 0.53677 0.0
C1145 C 0.77646 0.33715 0.54333 0.0
C1146 C 0.79996 0.30767 0.55078 0.0
C1147 C 0.79149 0.30587 0.57177 0.0
C1148 C 0.77593 0.32025 0.57865 0.0
C1149 C 0.76869 0.33578 0.56439 0.0
C1150 C 0.81675 0.29281 0.54292 0.0
C1151 C 0.76637 0.31877 0.60084 0.0
H1152 H 0.78431 0.2361 0.59796 0.0
H1153 H 0.83483 0.27681 0.62503 0.0
H1154 H 0.75526 0.2758 0.57349 0.0
H1155 H 0.77299 0.26658 0.55333 0.0
H1156 H 0.76051 0.2477 0.57166 0.0
H1157 H 0.84122 0.31237 0.6141 0.0
H1158 H 0.8352 0.31636 0.58607 0.0
H1159 H 0.81723 0.32551 0.60603 0.0
H1160 H 0.79841 0.32421 0.52055 0.0
H1161 H 0.75645 0.34645 0.56959 0.0
H1162 H 0.80984 0.27617 0.5422 0.0
H1163 H 0.83056 0.29293 0.55429 0.0
H1164 H 0.82279 0.29724 0.52673 0.0
H1165 H 0.75742 0.30316 0.60264 0.0
H1166 H 0.7552 0.33178 0.60408 0.0
H1167 H 0.7793 0.31948 0.61319 0.0
C1168 C 0.54796 0.00326 0.60571 0.0
C1169 C 0.52636 0.99583 0.60542 0.0
C1170 C 0.55937 0.00614 0.6251 0.0
C1171 C 0.54898 0.00148 0.64478 0.0
C1172 C 0.52726 0.99374 0.64463 0.0
C1173 C 0.51619 0.99105 0.62496 0.0
C1174 C 0.58246 0.01457 0.62452 0.0
C1175 C 0.51565 0.9885 0.66527 0.0
C1176 C 0.58575 0.99435 0.69315 0.0
C1177 C 0.58595 0.01476 0.70268 0.0
C1178 C 0.57328 0.98956 0.67468 0.0
C1179 C 0.56072 0.00556 0.66546 0.0
C1180 C 0.56035 0.02598 0.67534 0.0
C1181 C 0.57291 0.03031 0.69379 0.0
C1182 C 0.57403 0.96757 0.66467 0.0
C1183 C 0.54722 0.04351 0.66602 0.0
H1184 H 0.55586 0.00733 0.59074 0.0
H1185 H 0.49958 0.98509 0.62487 0.0
H1186 H 0.58402 0.03018 0.63305 0.0
H1187 H 0.59299 0.0034 0.63297 0.0
H1188 H 0.58841 0.01677 0.60787 0.0
H1189 H 0.49902 0.98192 0.66239 0.0
H1190 H 0.52464 0.97668 0.67459 0.0
H1191 H 0.51488 0.00313 0.67533 0.0
H1192 H 0.59568 0.98217 0.69985 0.0
H1193 H 0.57283 0.04614 0.70094 0.0
H1194 H 0.58153 0.96881 0.6486 0.0
H1195 H 0.5575 0.96057 0.66234 0.0
H1196 H 0.58335 0.95647 0.6746 0.0
H1197 H 0.55335 0.04787 0.64988 0.0
H1198 H 0.54775 0.05813 0.67625 0.0
H1199 H 0.5302 0.03781 0.664 0.0
C1200 C 0.88093 0.19675 0.76956 0.0
C1201 C 0.88939 0.20212 0.74938 0.0
C1202 C 0.89288 0.20063 0.78848 0.0
C1203 C 0.91385 0.21026 0.7873 0.0
C1204 C 0.92261 0.21545 0.76695 0.0
C1205 C 0.91028 0.2114 0.74828 0.0
C1206 C 0.88248 0.19501 0.80959 0.0
C1207 C 0.94501 0.22545 0.7649 0.0
C1208 C 0.93988 0.24188 0.83348 0.0
C1209 C 0.95405 0.22722 0.84193 0.0
C1210 C 0.92582 0.23615 0.81651 0.0
C1211 C 0.92656 0.21552 0.80717 0.0
C1212 C 0.94058 0.2005 0.81593 0.0
C1213 C 0.95426 0.20658 0.83317 0.0
C1214 C 0.91061 0.25239 0.80813 0.0
C1215 C 0.94155 0.17823 0.80667 0.0
H1216 H 0.86494 0.18928 0.77062 0.0
H1217 H 0.91691 0.21583 0.73282 0.0
H1218 H 0.8944 0.19194 0.82238 0.0
H1219 H 0.87275 0.20858 0.81462 0.0
H1220 H 0.87141 0.18068 0.80791 0.0
H1221 H 0.94982 0.22769 0.74789 0.0
H1222 H 0.94593 0.24127 0.77307 0.0
H1223 H 0.95681 0.21525 0.77291 0.0
H1224 H 0.94029 0.25812 0.83969 0.0
H1225 H 0.96547 0.19534 0.83951 0.0
H1226 H 0.89389 0.24549 0.80821 0.0
H1227 H 0.91463 0.25645 0.79127 0.0
H1228 H 0.91127 0.26737 0.81782 0.0
H1229 H 0.92527 0.17026 0.8067 0.0
H1230 H 0.95271 0.16819 0.81578 0.0
H1231 H 0.9469 0.17913 0.78973 0.0
C1232 C 0.47131 0.89938 0.45716 0.0
C1233 C 0.48177 0.90414 0.47675 0.0
C1234 C 0.4728 0.87925 0.4473 0.0
C1235 C 0.48501 0.8634 0.45726 0.0
C1236 C 0.49565 0.86808 0.47699 0.0
C1237 C 0.49391 0.88838 0.48649 0.0
C1238 C 0.46111 0.87488 0.42631 0.0
C1239 C 0.5088 0.85162 0.48812 0.0
C1240 C 0.46943 0.80612 0.44127 0.0
C1241 C 0.48475 0.80179 0.42553 0.0
C1242 C 0.46982 0.82579 0.45222 0.0
C1243 C 0.48586 0.84168 0.44733 0.0
C1244 C 0.50189 0.83717 0.43209 0.0
C1245 C 0.50118 0.81726 0.42142 0.0
C1246 C 0.45253 0.82985 0.46847 0.0
C1247 C 0.51928 0.8537 0.42645 0.0
H1248 H 0.46167 0.91133 0.44964 0.0
H1249 H 0.50232 0.89201 0.50145 0.0
H1250 H 0.47259 0.8698 0.41392 0.0
H1251 H 0.44896 0.86156 0.42832 0.0
H1252 H 0.45285 0.88911 0.42032 0.0
H1253 H 0.51641 0.85789 0.50319 0.0
H1254 H 0.49842 0.83732 0.49201 0.0
H1255 H 0.52159 0.84625 0.47728 0.0
H1256 H 0.45675 0.79426 0.44476 0.0
H1257 H 0.51306 0.81415 0.40927 0.0
H1258 H 0.4423 0.84276 0.46265 0.0
H1259 H 0.45988 0.83535 0.48391 0.0
H1260 H 0.44207 0.81535 0.4715 0.0
H1261 H 0.51196 0.8675 0.41849 0.0
H1262 H 0.53146 0.84719 0.41552 0.0
H1263 H 0.52752 0.85987 0.4412 0.0
C1264 C 0.1117 0.3219 0.77251 0.0
C1265 C 0.11138 0.30873 0.75419 0.0
C1266 C 0.09779 0.3175 0.78976 0.0
C1267 C 0.08337 0.29939 0.78876 0.0
C1268 C 0.08313 0.28595 0.77038 0.0
C1269 C 0.09705 0.29084 0.7533 0.0
C1270 C 0.09839 0.33232 0.80898 0.0
C1271 C 0.06819 0.26632 0.76878 0.0
C1272 C 0.06049 0.27448 0.83969 0.0
C1273 C 0.03925 0.28116 0.83922 0.0
C1274 C 0.07521 0.28079 0.82371 0.0
C1275 C 0.06859 0.29428 0.80693 0.0
C1276 C 0.04745 0.30185 0.8069 0.0
C1277 C 0.033 0.29512 0.82299 0.0
C1278 C 0.09756 0.27229 0.82428 0.0
C1279 C 0.03986 0.31646 0.78944 0.0
H1280 H 0.12258 0.33589 0.77317 0.0
H1281 H 0.09692 0.28048 0.73928 0.0
H1282 H 0.08234 0.33902 0.81133 0.0
H1283 H 0.10223 0.3233 0.82371 0.0
H1284 H 0.11047 0.34578 0.80724 0.0
H1285 H 0.0701 0.25744 0.75346 0.0
H1286 H 0.07129 0.25537 0.78231 0.0
H1287 H 0.05124 0.271 0.77001 0.0
H1288 H 0.06547 0.26367 0.85215 0.0
H1289 H 0.01663 0.3004 0.82255 0.0
H1290 H 0.1098 0.28565 0.8233 0.0
H1291 H 0.09982 0.26175 0.81017 0.0
H1292 H 0.1006 0.263 0.83908 0.0
H1293 H 0.05126 0.33047 0.78776 0.0
H1294 H 0.02358 0.32231 0.79265 0.0
H1295 H 0.03942 0.3078 0.77385 0.0
C1296 C 0.53612 0.64944 0.50647 0.0
C1297 C 0.53305 0.6274 0.50253 0.0
C1298 C 0.52813 0.66459 0.49225 0.0
C1299 C 0.51688 0.65758 0.4735 0.0
C1300 C 0.5136 0.63536 0.46946 0.0
C1301 C 0.52164 0.62052 0.48408 0.0
C1302 C 0.53178 0.68811 0.49729 0.0
C1303 C 0.50184 0.62725 0.44956 0.0
C1304 C 0.48087 0.69709 0.44601 0.0
C1305 C 0.49421 0.7052 0.4296 0.0
C1306 C 0.48795 0.68146 0.46027 0.0
C1307 C 0.50882 0.67359 0.45803 0.0
C1308 C 0.52228 0.6815 0.44137 0.0
C1309 C 0.51486 0.69722 0.42743 0.0
C1310 C 0.47316 0.67355 0.47791 0.0
C1311 C 0.5446 0.67344 0.43835 0.0
H1312 H 0.54462 0.65486 0.52087 0.0
H1313 H 0.51935 0.60353 0.48086 0.0
H1314 H 0.54122 0.69601 0.48429 0.0
H1315 H 0.51614 0.69596 0.49809 0.0
H1316 H 0.54049 0.69092 0.51274 0.0
H1317 H 0.5004 0.60949 0.44889 0.0
H1318 H 0.48547 0.63361 0.44897 0.0
H1319 H 0.51044 0.63309 0.43504 0.0
H1320 H 0.46489 0.70306 0.44787 0.0
H1321 H 0.5253 0.70322 0.41476 0.0
H1322 H 0.48069 0.67713 0.49379 0.0
H1323 H 0.47058 0.65592 0.47674 0.0
H1324 H 0.45727 0.68099 0.47727 0.0
H1325 H 0.55455 0.67712 0.45285 0.0
H1326 H 0.55281 0.68069 0.4242 0.0
H1327 H 0.54379 0.65578 0.4363 0.0
C1328 C 0.90438 0.79894 0.76575 0.0
C1329 C 0.88723 0.81184 0.76051 0.0
C1330 C 0.91772 0.79095 0.7498 0.0
C1331 C 0.91378 0.79589 0.728 0.0
C1332 C 0.897 0.80957 0.72265 0.0
C1333 C 0.88394 0.81744 0.73899 0.0
C1334 C 0.93553 0.77655 0.75624 0.0
C1335 C 0.89224 0.81514 0.6996 0.0
C1336 C 0.95786 0.78214 0.68867 0.0
C1337 C 0.95092 0.76148 0.68209 0.0
C1338 C 0.9456 0.79396 0.70307 0.0
C1339 C 0.92589 0.78495 0.71086 0.0
C1340 C 0.91836 0.76455 0.70343 0.0
C1341 C 0.93097 0.75308 0.68924 0.0
C1342 C 0.95415 0.81566 0.71065 0.0
C1343 C 0.89734 0.75443 0.71112 0.0
H1344 H 0.90726 0.79491 0.78241 0.0
H1345 H 0.87066 0.82735 0.73483 0.0
H1346 H 0.93192 0.76013 0.74998 0.0
H1347 H 0.95098 0.78231 0.74911 0.0
H1348 H 0.93758 0.77568 0.77394 0.0
H1349 H 0.88019 0.82769 0.69827 0.0
H1350 H 0.90717 0.82079 0.69139 0.0
H1351 H 0.88596 0.80063 0.69093 0.0
H1352 H 0.97324 0.78874 0.68323 0.0
H1353 H 0.92529 0.73726 0.68402 0.0
H1354 H 0.95854 0.81485 0.72791 0.0
H1355 H 0.94159 0.82764 0.70906 0.0
H1356 H 0.96857 0.8213 0.70154 0.0
H1357 H 0.89848 0.7511 0.72856 0.0
H1358 H 0.89303 0.73919 0.70259 0.0
H1359 H 0.88412 0.76557 0.70878 0.0
C1360 C 0.01632 0.87743 0.54116 0.0
C1361 C 0.02945 0.87247 0.52374 0.0
C1362 C 0.0099 0.86171 0.55617 0.0
C1363 C 0.01689 0.84057 0.5538 0.0
C1364 C 0.02975 0.83537 0.53601 0.0
C1365 C 0.03575 0.85131 0.52119 0.0
C1366 C 0.99606 0.86785 0.57483 0.0
C1367 C 0.03759 0.81304 0.53288 0.0
C1368 C 0.02239 0.80484 0.60249 0.0
C1369 C 0.0047 0.79035 0.60001 0.0
C1370 C 0.02618 0.82158 0.5879 0.0
C1371 C 0.01184 0.82406 0.57043 0.0
C1372 C 0.99354 0.80994 0.56822 0.0
C1373 C 0.99023 0.79318 0.58298 0.0
C1374 C 0.04595 0.83618 0.59079 0.0
C1375 C 0.97777 0.8122 0.54993 0.0
H1376 H 0.01147 0.89373 0.54338 0.0
H1377 H 0.04547 0.84716 0.50754 0.0
H1378 H 0.9817 0.85679 0.57584 0.0
H1379 H 0.00523 0.86639 0.59006 0.0
H1380 H 0.99066 0.88451 0.57354 0.0
H1381 H 0.04694 0.81145 0.51787 0.0
H1382 H 0.04795 0.80877 0.54665 0.0
H1383 H 0.02377 0.80126 0.53239 0.0
H1384 H 0.03365 0.80281 0.61561 0.0
H1385 H 0.97648 0.78211 0.581 0.0
H1386 H 0.04141 0.85314 0.59116 0.0
H1387 H 0.05687 0.83429 0.57697 0.0
H1388 H 0.05494 0.83277 0.60578 0.0
H1389 H 0.97223 0.82882 0.54929 0.0
H1390 H 0.96351 0.80102 0.55139 0.0
H1391 H 0.9858 0.80898 0.53447 0.0
C1392 C 0.10646 0.7071 0.76783 0.0
C1393 C 0.12481 0.69866 0.75854 0.0
C1394 C 0.08761 0.70963 0.75573 0.0
C1395 C 0.08694 0.70331 0.73388 0.0
C1396 C 0.10504 0.69391 0.72466 0.0
C1397 C 0.12376 0.69184 0.73703 0.0
C1398 C 0.06867 0.71978 0.76613 0.0
C1399 C 0.1049 0.68675 0.70147 0.0
C1400 C 0.0333 0.69583 0.70455 0.0
C1401 C 0.03283 0.71464 0.69233 0.0
C1402 C 0.05066 0.69203 0.71836 0.0
C1403 C 0.06781 0.70753 0.72028 0.0
C1404 C 0.0671 0.72683 0.70855 0.0
C1405 C 0.04971 0.73009 0.69463 0.0
C1406 C 0.05094 0.67115 0.73042 0.0
C1407 C 0.08493 0.7439 0.71038 0.0
H1408 H 0.10694 0.71209 0.78451 0.0
H1409 H 0.13788 0.68562 0.72953 0.0
H1410 H 0.06565 0.73523 0.7582 0.0
H1411 H 0.05393 0.70936 0.76402 0.0
H1412 H 0.07133 0.7228 0.78355 0.0
H1413 H 0.11959 0.67821 0.69721 0.0
H1414 H 0.09061 0.67602 0.69809 0.0
H1415 H 0.1038 0.70087 0.69085 0.0
H1416 H 0.02038 0.68376 0.70292 0.0
H1417 H 0.04945 0.74474 0.68542 0.0
H1418 H 0.05301 0.67424 0.74788 0.0
H1419 H 0.06483 0.66194 0.72514 0.0
H1420 H 0.03598 0.66112 0.72783 0.0
H1421 H 0.08755 0.74853 0.72745 0.0
H1422 H 0.08142 0.75846 0.70106 0.0
H1423 H 0.10018 0.73753 0.70445 0.0
C1424 C 0.00379 0.61633 0.53143 0.0
C1425 C 0.0024 0.59572 0.54022 0.0
C1426 C 0.00333 0.63463 0.5447 0.0
C1427 C 1.00105 0.6322 0.56722 0.0
C1428 C 0.99954 0.61136 0.57599 0.0
C1429 C 1.00016 0.59347 0.56245 0.0
C1430 C 0.00561 0.65653 0.5347 0.0
C1431 C 0.99656 0.60776 0.59963 0.0
C1432 C 0.01938 0.67777 0.60479 0.0
C1433 C 1.00005 0.68763 0.60902 0.0
C1434 C 0.01994 0.6598 0.5912 0.0
C1435 C 1.00064 0.65137 0.58166 0.0
C1436 C 0.98102 0.66122 0.58601 0.0
C1437 C 0.98105 0.67953 0.59925 0.0
C1438 C 0.04122 0.64994 0.58689 0.0
C1439 C 0.96002 0.65252 0.57656 0.0
H1440 H 0.00564 0.61814 0.51423 0.0
H1441 H 0.99858 0.57757 0.56928 0.0
H1442 H 0.99133 0.66587 0.53841 0.0
H1443 H 0.01985 0.66541 0.54163 0.0
H1444 H 0.00744 0.6557 0.51699 0.0
H1445 H 0.0075 0.61863 0.60916 0.0
H1446 H 0.97976 0.61123 0.60365 0.0
H1447 H 0.99942 0.591 0.60435 0.0
H1448 H 0.03418 0.68433 0.61195 0.0
H1449 H 0.96629 0.68778 0.60162 0.0
H1450 H 0.04429 0.64965 0.56936 0.0
H1451 H 0.04075 0.63312 0.59251 0.0
H1452 H 0.05486 0.6588 0.595 0.0
H1453 H 0.96073 0.65285 0.55879 0.0
H1454 H 0.94613 0.66178 0.58183 0.0
H1455 H 0.95722 0.63557 0.58136 0.0
C1456 C 0.76781 0.88517 0.19303 0.0
C1457 C 0.7474 0.8908 0.19988 0.0
C1458 C 0.78614 0.89822 0.19773 0.0
C1459 C 0.78405 0.91742 0.20954 0.0
C1460 C 0.76334 0.92352 0.2159 0.0
C1461 C 0.74529 0.91003 0.21117 0.0
C1462 C 0.80779 0.89087 0.19086 0.0
C1463 C 0.76027 0.94423 0.22785 0.0
C1464 C 0.82987 0.94155 0.24359 0.0
C1465 C 0.83857 0.95747 0.2301 0.0
C1466 C 0.81281 0.92775 0.23669 0.0
C1467 C 0.80348 0.93066 0.21616 0.0
C1468 C 0.81206 0.94692 0.20254 0.0
C1469 C 0.82958 0.96008 0.20966 0.0
C1470 C 0.80445 0.91037 0.25156 0.0
C1471 C 0.80226 0.95087 0.18076 0.0
H1472 H 0.76952 0.8702 0.18446 0.0
H1473 H 0.72947 0.91458 0.2162 0.0
H1474 H 0.81795 0.90434 0.18449 0.0
H1475 H 0.81607 0.88447 0.20507 0.0
H1476 H 0.8064 0.87802 0.17848 0.0
H1477 H 0.74302 0.94741 0.2302 0.0
H1478 H 0.76821 0.94369 0.24382 0.0
H1479 H 0.76795 0.95782 0.21895 0.0
H1480 H 0.83604 0.94025 0.25982 0.0
H1481 H 0.83596 0.97277 0.19942 0.0
H1482 H 0.80478 0.8946 0.24335 0.0
H1483 H 0.78749 0.91306 0.25576 0.0
H1484 H 0.81401 0.90971 0.26664 0.0
H1485 H 0.80215 0.93606 0.17089 0.0
H1486 H 0.81108 0.96386 0.17193 0.0
H1487 H 0.78529 0.95529 0.18264 0.0
C1488 C 0.76695 0.10952 0.28552 0.0
C1489 C 0.76583 0.12101 0.30487 0.0
C1490 C 0.78109 0.09278 0.28316 0.0
C1491 C 0.79462 0.0874 0.30051 0.0
C1492 C 0.79312 0.09843 0.32031 0.0
C1493 C 0.77873 0.11508 0.32227 0.0
C1494 C 0.78214 0.08141 0.26176 0.0
C1495 C 0.80722 0.09313 0.3392 0.0
C1496 C 0.82127 0.03397 0.29503 0.0
C1497 C 0.84098 0.04026 0.2857 0.0
C1498 C 0.80631 0.0492 0.30081 0.0
C1499 C 0.81125 0.07122 0.29728 0.0
C1500 C 0.8316 0.07769 0.28894 0.0
C1501 C 0.84617 0.06214 0.28319 0.0
C1502 C 0.7848 0.04165 0.30966 0.0
C1503 C 0.83761 0.101 0.2851 0.0
H1504 H 0.75737 0.11415 0.27185 0.0
H1505 H 0.7778 0.12366 0.33737 0.0
H1506 H 0.79811 0.08478 0.25441 0.0
H1507 H 0.78027 0.06384 0.26399 0.0
H1508 H 0.76953 0.08647 0.25037 0.0
H1509 H 0.80298 0.10203 0.35394 0.0
H1510 H 0.80591 0.07572 0.34257 0.0
H1511 H 0.82429 0.09714 0.33533 0.0
H1512 H 0.81712 0.01709 0.29699 0.0
H1513 H 0.86141 0.06715 0.27611 0.0
H1514 H 0.77199 0.04454 0.29766 0.0
H1515 H 0.78102 0.05083 0.32434 0.0
H1516 H 0.78429 0.02432 0.31356 0.0
H1517 H 0.8272 0.10728 0.27224 0.0
H1518 H 0.85466 0.10351 0.28024 0.0
H1519 H 0.83491 0.11057 0.29981 0.0
C1520 C 0.40521 0.95054 0.99629 0.0
C1521 C 0.40836 0.9727 0.99942 0.0
C1522 C 0.38461 0.94059 0.99731 0.0
C1523 C 0.36666 0.95304 0.00172 0.0
C1524 C 0.36979 0.97527 0.0057 0.0
C1525 C 0.39058 0.98485 0.00442 0.0
C1526 C 0.38197 0.91685 0.99288 0.0
C1527 C 0.35108 0.98909 0.01052 0.0
C1528 C 0.31351 0.93244 0.97788 0.0
C1529 C 0.30353 0.92214 0.99542 0.0
C1530 C 0.33381 0.9428 0.97989 0.0
C1531 C 0.3445 0.94315 1.0 0.0
C1532 C 0.33437 0.93338 0.01797 0.0
C1533 C 0.31403 0.92288 0.01546 0.0
C1534 C 0.34408 0.95288 0.96026 0.0
C1535 C 0.34521 0.93365 0.03972 0.0
H1536 H 0.41889 0.94093 0.99291 0.0
H1537 H 0.39279 0.00199 0.00673 0.0
H1538 H 0.37292 0.9088 0.00605 0.0
H1539 H 0.3725 0.9141 0.97789 0.0
H1540 H 0.39766 0.90921 0.99111 0.0
H1541 H 0.35641 0.00558 0.01544 0.0
H1542 H 0.34069 0.99011 0.99604 0.0
H1543 H 0.34106 0.98185 0.02347 0.0
H1544 H 0.30569 0.93202 0.96228 0.0
H1545 H 0.3065 0.91503 0.02912 0.0
H1546 H 0.35921 0.9449 0.95653 0.0
H1547 H 0.34834 0.97002 0.96339 0.0
H1548 H 0.33338 0.9517 0.94592 0.0
H1549 H 0.36012 0.92455 0.03899 0.0
H1550 H 0.33467 0.92652 0.05235 0.0
H1551 H 0.34998 0.95031 0.04445 0.0
C1552 C 0.2535 0.40191 0.28674 0.0
C1553 C 0.25293 0.39172 0.30676 0.0
C1554 C 0.23736 0.41573 0.28056 0.0
C1555 C 0.22012 0.41938 0.29466 0.0
C1556 C 0.21914 0.4087 0.31465 0.0
C1557 C 0.23559 0.39507 0.32049 0.0
C1558 C 0.23908 0.42689 0.25916 0.0
C1559 C 0.20093 0.41198 0.33005 0.0
C1560 C 0.192 0.47181 0.28784 0.0
C1561 C 0.17388 0.46543 0.27549 0.0
C1562 C 0.20693 0.45692 0.29451 0.0
C1563 C 0.20364 0.43506 0.28882 0.0
C1564 C 0.18505 0.42841 0.2769 0.0
C1565 C 0.17043 0.44368 0.27033 0.0
C1566 C 0.22654 0.46469 0.30717 0.0
C1567 C 0.18087 0.40525 0.27066 0.0
H1568 H 0.26697 0.39961 0.27615 0.0
H1569 H 0.23491 0.38705 0.33587 0.0
H1570 H 0.2242 0.42366 0.24957 0.0
H1571 H 0.24077 0.44445 0.26172 0.0
H1572 H 0.25304 0.42172 0.2497 0.0
H1573 H 0.20193 0.40167 0.34447 0.0
H1574 H 0.20116 0.42895 0.33536 0.0
H1575 H 0.18526 0.40848 0.3219 0.0
H1576 H 0.19482 0.48857 0.29189 0.0
H1577 H 0.15646 0.43861 0.26082 0.0
H1578 H 0.24128 0.46164 0.29791 0.0
H1579 H 0.2276 0.45574 0.32244 0.0
H1580 H 0.22637 0.48207 0.31093 0.0
H1581 H 0.1937 0.40008 0.25975 0.0
H1582 H 0.16508 0.40247 0.26247 0.0
H1583 H 0.18132 0.39495 0.2851 0.0
C1584 C 0.11584 0.02782 0.49044 0.0
C1585 C 0.12321 0.00708 0.48809 0.0
C1586 C 0.13016 0.04527 0.49478 0.0
C1587 C 0.15248 0.04201 0.49669 0.0
C1588 C 0.15989 0.02093 0.49537 0.0
C1589 C 0.1452 0.00375 0.49098 0.0
C1590 C 0.12134 0.06726 0.496 0.0
C1591 C 0.18344 0.01657 0.49805 0.0
C1592 C 0.19409 0.08575 0.48204 0.0
C1593 C 0.19998 0.09424 0.50217 0.0
C1594 C 0.17801 0.06941 0.48 0.0
C1595 C 0.16825 0.06063 0.49865 0.0
C1596 C 0.17436 0.06899 0.51909 0.0
C1597 C 0.19014 0.08572 0.52059 0.0
C1598 C 0.17175 0.06125 0.45789 0.0
C1599 C 0.16463 0.05988 0.53937 0.0
H1600 H 0.09892 0.0306 0.488 0.0
H1601 H 0.15096 0.98769 0.48957 0.0
H1602 H 0.12993 0.0773 0.5083 0.0
H1603 H 0.12352 0.07498 0.48017 0.0
H1604 H 0.10388 0.06664 0.49971 0.0
H1605 H 0.18633 0.99917 0.49852 0.0
H1606 H 0.19268 0.02375 0.48453 0.0
H1607 H 0.18985 0.02411 0.51307 0.0
H1608 H 0.20242 0.09159 0.46788 0.0
H1609 H 0.19506 0.09196 0.53621 0.0
H1610 H 0.15413 0.06228 0.45547 0.0
H1611 H 0.1756 0.04417 0.45629 0.0
H1612 H 0.18016 0.07041 0.44498 0.0
H1613 H 0.14688 0.06091 0.53883 0.0
H1614 H 0.17087 0.06836 0.55399 0.0
H1615 H 0.16817 0.04269 0.54068 0.0
C1616 C 0.73627 0.13048 0.69239 0.0
C1617 C 0.75724 0.12329 0.69438 0.0
C1618 C 0.71834 0.11725 0.69777 0.0
C1619 C 0.72137 0.09642 0.70572 0.0
C1620 C 0.74248 0.08898 0.70761 0.0
C1621 C 0.76012 0.10245 0.70185 0.0
C1622 C 0.69621 0.1258 0.69535 0.0
C1623 C 0.74646 0.06677 0.71576 0.0
C1624 C 0.67988 0.06735 0.74078 0.0
C1625 C 0.66992 0.05298 0.72616 0.0
C1626 C 0.69588 0.08234 0.73411 0.0
C1627 C 0.7026 0.08243 0.71242 0.0
C1628 C 0.69237 0.06806 0.69754 0.0
C1629 C 0.67621 0.05344 0.70462 0.0
C1630 C 0.70613 0.09754 0.75046 0.0
C1631 C 0.69908 0.06754 0.67431 0.0
H1632 H 0.73383 0.14663 0.68694 0.0
H1633 H 0.77621 0.09654 0.70304 0.0
H1634 H 0.68546 0.11416 0.68653 0.0
H1635 H 0.6894 0.1281 0.71151 0.0
H1636 H 0.69637 0.14135 0.6868 0.0
H1637 H 0.76381 0.06326 0.71592 0.0
H1638 H 0.74017 0.06496 0.73231 0.0
H1639 H 0.73771 0.05465 0.70555 0.0
H1640 H 0.67564 0.06641 0.7576 0.0
H1641 H 0.66876 0.04202 0.69341 0.0
H1642 H 0.7053 0.11427 0.74477 0.0
H1643 H 0.72338 0.09415 0.75247 0.0
H1644 H 0.69823 0.09625 0.76636 0.0
H1645 H 0.69871 0.08379 0.66729 0.0
H1646 H 0.68857 0.05645 0.6645 0.0
H1647 H 0.71588 0.06235 0.67321 0.0
C1648 C 0.3971 0.05856 0.49926 0.0
C1649 C 0.39712 0.03966 0.51135 0.0
C1650 C 0.37842 0.07024 0.49702 0.0
C1651 C 0.35919 0.0629 0.5071 0.0
C1652 C 0.35898 0.04365 0.51903 0.0
C1653 C 0.37791 0.03225 0.52098 0.0
C1654 C 0.37934 0.0906 0.48406 0.0
C1655 C 0.33884 0.03531 0.53009 0.0
C1656 C 0.31758 0.10393 0.51999 0.0
C1657 C 0.30235 0.10035 0.5035 0.0
C1658 C 0.33608 0.09185 0.52134 0.0
C1659 C 0.33954 0.07579 0.50579 0.0
C1660 C 0.32433 0.0722 0.48898 0.0
C1661 C 0.30591 0.08449 0.48805 0.0
C1662 C 0.35188 0.09623 0.53951 0.0
C1663 C 0.32747 0.05529 0.47204 0.0
H1664 H 0.41175 0.06422 0.49144 0.0
H1665 H 0.3778 0.01777 0.53048 0.0
H1666 H 0.36698 0.08968 0.47114 0.0
H1667 H 0.3757 0.10439 0.4945 0.0
H1668 H 0.39535 0.09378 0.47666 0.0
H1669 H 0.34108 0.0197 0.53808 0.0
H1670 H 0.33393 0.04704 0.54234 0.0
H1671 H 0.32543 0.03334 0.51832 0.0
H1672 H 0.31497 0.1161 0.53203 0.0
H1673 H 0.29423 0.08158 0.47528 0.0
H1674 H 0.36796 0.10076 0.53297 0.0
H1675 H 0.35362 0.08151 0.54914 0.0
H1676 H 0.34683 0.10925 0.55032 0.0
H1677 H 0.34292 0.05853 0.46366 0.0
H1678 H 0.31426 0.05457 0.45994 0.0
H1679 H 0.32835 0.03935 0.47969 0.0
C1680 C 0.6476 0.4994 0.54525 0.0
C1681 C 0.626 0.49772 0.53858 0.0
C1682 C 0.66256 0.48484 0.53804 0.0
C1683 C 0.65579 0.46805 0.52391 0.0
C1684 C 0.63398 0.46615 0.51721 0.0
C1685 C 0.61937 0.48108 0.52454 0.0
C1686 C 0.6857 0.4876 0.54537 0.0
C1687 C 0.62609 0.44836 0.50231 0.0
C1688 C 0.69858 0.44326 0.48955 0.0
C1689 C 0.70325 0.42485 0.50126 0.0
C1690 C 0.68307 0.45731 0.49664 0.0
C1691 C 0.6717 0.4528 0.51581 0.0
C1692 C 0.67607 0.43411 0.52755 0.0
C1693 C 0.69186 0.42043 0.52022 0.0
C1694 C 0.67908 0.47718 0.48377 0.0
C1695 C 0.66414 0.42862 0.54795 0.0
H1696 H 0.6529 0.5124 0.55585 0.0
H1697 H 0.60267 0.47959 0.51948 0.0
H1698 H 0.69074 0.4729 0.55356 0.0
H1699 H 0.6963 0.49008 0.53127 0.0
H1700 H 0.68833 0.50139 0.55653 0.0
H1701 H 0.60856 0.44881 0.499 0.0
H1702 H 0.63479 0.44952 0.48684 0.0
H1703 H 0.62954 0.43261 0.5094 0.0
H1704 H 0.70727 0.4469 0.47491 0.0
H1705 H 0.6952 0.4062 0.52931 0.0
H1706 H 0.68271 0.49164 0.49376 0.0
H1707 H 0.66188 0.47744 0.47902 0.0
H1708 H 0.68903 0.47822 0.46905 0.0
H1709 H 0.6674 0.44135 0.56015 0.0
H1710 H 0.66881 0.41309 0.55477 0.0
H1711 H 0.64655 0.42785 0.54483 0.0
C1712 C 0.71809 0.25666 0.39625 0.0
C1713 C 0.70978 0.26197 0.37606 0.0
C1714 C 0.71861 0.27152 0.41328 0.0
C1715 C 0.71121 0.29238 0.40989 0.0
C1716 C 0.70135 0.29722 0.39003 0.0
C1717 C 0.70064 0.28194 0.37349 0.0
C1718 C 0.72775 0.26511 0.43471 0.0
C1719 C 0.69181 0.31851 0.38552 0.0
C1720 C 0.70557 0.33147 0.45657 0.0
C1721 C 0.72598 0.34181 0.45701 0.0
C1722 C 0.70041 0.31532 0.44134 0.0
C1723 C 0.71602 0.30956 0.42614 0.0
C1724 C 0.73657 0.32018 0.42645 0.0
C1725 C 0.74145 0.33574 0.44223 0.0
C1726 C 0.67839 0.30432 0.44157 0.0
C1727 C 0.75348 0.31506 0.41014 0.0
H1728 H 0.72498 0.2412 0.39855 0.0
H1729 H 0.6933 0.28591 0.35826 0.0
H1730 H 0.74389 0.273 0.43712 0.0
H1731 H 0.71735 0.27043 0.44795 0.0
H1732 H 0.72935 0.24753 0.43587 0.0
H1733 H 0.69431 0.33027 0.39869 0.0
H1734 H 0.69872 0.3253 0.37053 0.0
H1735 H 0.67424 0.31602 0.38272 0.0
H1736 H 0.69376 0.3358 0.46836 0.0
H1737 H 0.7576 0.34285 0.44328 0.0
H1738 H 0.67985 0.2867 0.44216 0.0
H1739 H 0.66964 0.30802 0.42655 0.0
H1740 H 0.66868 0.30942 0.45544 0.0
H1741 H 0.75788 0.29814 0.41166 0.0
H1742 H 0.76834 0.32536 0.41207 0.0
H1743 H 0.74696 0.31712 0.39368 0.0
C1744 C 0.5596 0.02145 0.9001 0.0
C1745 C 0.53924 0.01169 0.90362 0.0
C1746 C 0.56917 0.02099 0.87977 0.0
C1747 C 0.55817 0.01042 0.86251 0.0
C1748 C 0.53769 1.00035 0.86599 0.0
C1749 C 0.52842 1.00119 0.88649 0.0
C1750 C 0.59092 0.03215 0.8767 0.0
C1751 C 0.52552 0.98883 0.84803 0.0
C1752 C 0.57466 0.03013 0.80731 0.0
C1753 C 0.58971 0.01517 0.80114 0.0
C1754 C 0.56368 0.02826 0.82683 0.0
C1755 C 0.56774 0.01098 0.84063 0.0
C1756 C 0.58211 0.99524 0.83411 0.0
C1757 C 0.59293 0.9975 0.81443 0.0
C1758 C 0.54843 0.04537 0.8331 0.0
C1759 C 0.58677 0.9765 0.84835 0.0
H1760 H 0.56794 0.02979 0.91321 0.0
H1761 H 0.5128 0.99339 0.88919 0.0
H1762 H 0.60244 0.02075 0.87021 0.0
H1763 H 0.5896 0.04521 0.86482 0.0
H1764 H 0.59762 0.0391 0.89189 0.0
H1765 H 0.51016 0.98109 0.85356 0.0
H1766 H 0.52191 1.00028 0.83508 0.0
H1767 H 0.53555 0.9764 0.84092 0.0
H1768 H 0.57183 0.04375 0.79714 0.0
H1769 H 0.6045 0.98585 0.80986 0.0
H1770 H 0.55498 0.05435 0.84727 0.0
H1771 H 0.53263 0.03801 0.83774 0.0
H1772 H 0.54586 0.05692 0.81992 0.0
H1773 H 0.59552 0.98232 0.86296 0.0
H1774 H 0.59667 0.9646 0.84013 0.0
H1775 H 0.57154 0.96839 0.85367 0.0
C1776 C 0.30759 0.26945 0.41525 0.0
C1777 C 0.30783 0.26649 0.39291 0.0
C1778 C 0.30087 0.25277 0.42901 0.0
C1779 C 0.29424 0.23261 0.42023 0.0
C1780 C 0.29529 0.22926 0.39776 0.0
C1781 C 0.302 0.24625 0.38437 0.0
C1782 C 0.29985 0.25707 0.45284 0.0
C1783 C 0.28848 0.20798 0.38776 0.0
C1784 C 0.28568 0.18442 0.45714 0.0
C1785 C 0.26328 0.18394 0.45977 0.0
C1786 C 0.29611 0.20019 0.44437 0.0
C1787 C 0.28386 0.2159 0.43418 0.0
C1788 C 0.26133 0.21566 0.43708 0.0
C1789 C 0.25137 0.19973 0.44973 0.0
C1790 C 0.32015 0.19992 0.44156 0.0
C1791 C 0.24765 0.23218 0.42668 0.0
H1792 H 0.31191 0.28508 0.42197 0.0
H1793 H 0.30251 0.24373 0.36716 0.0
H1794 H 0.2828 0.25693 0.45794 0.0
H1795 H 0.30776 0.24431 0.4619 0.0
H1796 H 0.30765 0.27278 0.45734 0.0
H1797 H 0.29226 0.2073 0.37037 0.0
H1798 H 0.29653 0.19479 0.39601 0.0
H1799 H 0.27089 0.20509 0.38969 0.0
H1800 H 0.29502 0.1723 0.46476 0.0
H1801 H 0.23409 0.19971 0.45174 0.0
H1802 H 0.32776 0.21549 0.44671 0.0
H1803 H 0.32397 0.19773 0.42434 0.0
H1804 H 0.32744 0.18694 0.45089 0.0
H1805 H 0.25337 0.2485 0.4317 0.0
H1806 H 0.23038 0.23 0.43089 0.0
H1807 H 0.2491 0.23125 0.40897 0.0
C1808 C 0.49818 0.49028 0.88145 0.0
C1809 C 0.49285 0.47441 0.8966 0.0
C1810 C 0.48385 0.49515 0.86483 0.0
C1811 C 0.4637 0.48387 0.86329 0.0
C1812 C 0.45767 0.46884 0.87934 0.0
C1813 C 0.47231 0.46429 0.89579 0.0
C1814 C 0.49085 0.51139 0.84817 0.0
C1815 C 0.43631 0.45649 0.87833 0.0
C1816 C 0.42051 0.50021 0.82349 0.0
C1817 C 0.42342 0.48562 0.80667 0.0
C1818 C 0.43376 0.50023 0.84193 0.0
C1819 C 0.45033 0.48542 0.84345 0.0
C1820 C 0.4538 0.47125 0.82616 0.0
C1821 C 0.44033 0.47151 0.80808 0.0
C1822 C 0.4296 0.51559 0.86004 0.0
C1823 C 0.47141 0.45533 0.82698 0.0
H1824 H 0.51385 0.4985 0.88223 0.0
H1825 H 0.46808 0.45193 0.90734 0.0
H1826 H 0.49429 0.50303 0.8329 0.0
H1827 H 0.47784 0.52254 0.84485 0.0
H1828 H 0.50555 0.52086 0.85322 0.0
H1829 H 0.43293 0.44745 0.89332 0.0
H1830 H 0.42305 0.46745 0.8754 0.0
H1831 H 0.43633 0.44494 0.86474 0.0
H1832 H 0.40745 0.51111 0.82258 0.0
H1833 H 0.44291 0.46033 0.79509 0.0
H1834 H 0.4447 0.52448 0.86481 0.0
H1835 H 0.42385 0.50651 0.87428 0.0
H1836 H 0.41738 0.5273 0.85565 0.0
H1837 H 0.48718 0.46375 0.83008 0.0
H1838 H 0.47249 0.44599 0.81184 0.0
H1839 H 0.46842 0.44399 0.84038 0.0
C1840 C 0.71569 0.75765 0.11585 0.0
C1841 C 0.69727 0.7543 0.12843 0.0
C1842 C 0.72142 0.74254 0.10037 0.0
C1843 C 0.70852 0.72352 0.09756 0.0
C1844 C 0.69043 0.71963 0.11088 0.0
C1845 C 0.68494 0.73513 0.12605 0.0
C1846 C 0.74067 0.74743 0.08634 0.0
C1847 C 0.67645 0.69941 0.1086 0.0
C1848 C 0.70675 0.6974 0.0424 0.0
C1849 C 0.72073 0.68053 0.04494 0.0
C1850 C 0.7028 0.71151 0.05934 0.0
C1851 C 0.71286 0.70861 0.07951 0.0
C1852 C 0.72693 0.6916 0.08228 0.0
C1853 C 0.73082 0.67784 0.06492 0.0
C1854 C 0.68788 0.7296 0.05562 0.0
C1855 C 0.73775 0.68786 0.10362 0.0
H1856 H 0.72515 0.77254 0.11747 0.0
H1857 H 0.67081 0.73239 0.13591 0.0
H1858 H 0.75155 0.73383 0.08639 0.0
H1859 H 0.73524 0.74966 0.06952 0.0
H1860 H 0.74994 0.76212 0.09161 0.0
H1861 H 0.66422 0.69789 0.12147 0.0
H1862 H 0.66801 0.69933 0.09285 0.0
H1863 H 0.68648 0.68516 0.10899 0.0
H1864 H 0.69895 0.69974 0.02702 0.0
H1865 H 0.74155 0.6648 0.0671 0.0
H1866 H 0.69642 0.74517 0.05912 0.0
H1867 H 0.67402 0.72811 0.06669 0.0
H1868 H 0.68163 0.72987 0.03887 0.0
H1869 H 0.74774 0.70224 0.1084 0.0
H1870 H 0.74815 0.67385 0.1032 0.0
H1871 H 0.72543 0.68521 0.11622 0.0
C1872 C 0.98061 0.02562 0.12394 0.0
C1873 C 0.99999 0.03576 0.13083 0.0
C1874 C 0.96545 0.0176 0.13882 0.0
C1875 C 0.96988 0.01958 0.1611 0.0
C1876 C 0.98953 0.0296 0.16812 0.0
C1877 C 0.00429 0.03762 0.15292 0.0
C1878 C 0.9446 0.00718 0.13072 0.0
C1879 C 0.995 0.03184 0.19171 0.0
C1880 C 0.92421 0.01715 0.20143 0.0
C1881 C 0.92501 0.99609 0.20903 0.0
C1882 C 0.93844 0.02487 0.18557 0.0
C1883 C 0.954 0.01128 0.17717 0.0
C1884 C 0.95482 0.98997 0.18462 0.0
C1885 C 0.94029 0.98262 0.20037 0.0
C1886 C 0.93695 0.04764 0.17792 0.0
C1887 C 0.97127 0.97503 0.17618 0.0
H1888 H 0.97713 0.0243 0.1069 0.0
H1889 H 0.01938 0.04516 0.15833 0.0
H1890 H 0.94285 0.99053 0.13673 0.0
H1891 H 0.93082 0.01596 0.13696 0.0
H1892 H 0.94363 0.00681 0.11291 0.0
H1893 H 0.01107 0.03982 0.1945 0.0
H1894 H 0.98274 0.04128 0.1999 0.0
H1895 H 0.99475 0.01582 0.19931 0.0
H1896 H 0.91242 0.02769 0.20786 0.0
H1897 H 0.9411 0.96632 0.20607 0.0
H1898 H 0.93474 0.04789 0.16024 0.0
H1899 H 0.95216 0.05683 0.18167 0.0
H1900 H 0.92344 0.05591 0.18547 0.0
H1901 H 0.96977 0.97353 0.15847 0.0
H1902 H 0.96951 0.9588 0.1833 0.0
H1903 H 0.98771 0.9817 0.17976 0.0
C1904 C 0.32425 0.77307 0.11179 0.0
C1905 C 0.30916 0.75673 0.11737 0.0
C1906 C 0.31861 0.78986 0.09821 0.0
C1907 C 0.29743 0.79026 0.08981 0.0
C1908 C 0.28205 0.77403 0.09561 0.0
C1909 C 0.28805 0.75758 0.1094 0.0
C1910 C 0.33542 0.80698 0.09254 0.0
C1911 C 0.25929 0.77384 0.08699 0.0
C1912 C 0.27496 0.84135 0.0675 0.0
C1913 C 0.27694 0.83818 0.04531 0.0
C1914 C 0.2822 0.82623 0.08221 0.0
C1915 C 0.29138 0.80733 0.07453 0.0
C1916 C 0.29385 0.80428 0.05215 0.0
C1917 C 0.28673 0.8198 0.03782 0.0
C1918 C 0.27957 0.83023 0.10595 0.0
C1919 C 0.30336 0.78426 0.04329 0.0
H1920 H 0.34066 0.77247 0.11762 0.0
H1921 H 0.27615 0.74529 0.1139 0.0
H1922 H 0.3386 0.80651 0.07505 0.0
H1923 H 0.32947 0.82304 0.09631 0.0
H1924 H 0.35082 0.80501 0.10129 0.0
H1925 H 0.24922 0.76016 0.09318 0.0
H1926 H 0.25165 0.78893 0.09141 0.0
H1927 H 0.25944 0.77289 0.0692 0.0
H1928 H 0.2675 0.85556 0.07341 0.0
H1929 H 0.28824 0.8172 0.02068 0.0
H1930 H 0.29517 0.82871 0.11443 0.0
H1931 H 0.26813 0.81802 0.11273 0.0
H1932 H 0.2735 0.84635 0.10936 0.0
H1933 H 0.31947 0.78207 0.05049 0.0
H1934 H 0.30494 0.78469 0.02554 0.0
H1935 H 0.29302 0.77008 0.04765 0.0
C1936 C 0.04832 0.49617 0.10709 0.0
C1937 C 0.02578 0.49457 0.10724 0.0
C1938 C 0.06018 0.49931 0.12618 0.0
C1939 C 0.04927 0.50058 0.14599 0.0
C1940 C 0.02652 0.49836 0.14632 0.0
C1941 C 0.01503 0.49559 0.12691 0.0
C1942 C 0.08438 0.50197 0.12504 0.0
C1943 C 0.01431 0.49927 0.16713 0.0
C1944 C 0.08345 0.49414 0.19639 0.0
C1945 C 0.08762 0.51552 0.20264 0.0
C1946 C 0.07042 0.48896 0.17839 0.0
C1947 C 0.06167 0.50555 0.16612 0.0
C1948 C 0.06557 0.52712 0.17252 0.0
C1949 C 0.07829 0.53182 0.19076 0.0
C1950 C 0.06631 0.46575 0.17229 0.0
C1951 C 0.05682 0.54533 0.15973 0.0
H1952 H 0.05668 0.49564 0.0919 0.0
H1953 H 0.99761 0.4942 0.12709 0.0
H1954 H 0.08962 0.51817 0.13088 0.0
H1955 H 0.09198 0.49021 0.13564 0.0
H1956 H 0.09046 0.49987 0.10847 0.0
H1957 H 0.99681 0.49568 0.16483 0.0
H1958 H 0.02069 0.48768 0.17875 0.0
H1959 H 0.01656 0.51544 0.17442 0.0
H1960 H 0.09043 0.48141 0.20551 0.0
H1961 H 0.08138 0.54841 0.19535 0.0
H1962 H 0.07368 0.46253 0.1565 0.0
H1963 H 0.04877 0.46211 0.17061 0.0
H1964 H 0.073 0.45471 0.1843 0.0
H1965 H 0.06335 0.54509 0.1432 0.0
H1966 H 0.06099 0.56121 0.16708 0.0
H1967 H 0.03907 0.54342 0.15835 0.0
C1968 C 0.41121 0.70826 0.25047 0.0
C1969 C 0.38989 0.70012 0.25129 0.0
C1970 C 0.42318 0.71245 0.26934 0.0
C1971 C 0.41365 0.70837 0.28959 0.0
C1972 C 0.39225 0.6998 0.29048 0.0
C1973 C 0.3806 0.69594 0.27136 0.0
C1974 C 0.44598 0.72152 0.26759 0.0
C1975 C 0.38111 0.6953 0.31147 0.0
C1976 C 0.45333 0.70482 0.33609 0.0
C1977 C 0.4536 0.72572 0.34426 0.0
C1978 C 0.43956 0.69859 0.31897 0.0
C1979 C 0.42607 0.71375 0.30962 0.0
C1980 C 0.42577 0.73466 0.31839 0.0
C1981 C 0.43979 0.74048 0.33537 0.0
C1982 C 0.43989 0.67599 0.31045 0.0
C1983 C 0.4112 0.75111 0.30933 0.0
H1984 H 0.41845 0.71174 0.23503 0.0
H1985 H 0.36421 0.68942 0.27216 0.0
H1986 H 0.44735 0.73748 0.27546 0.0
H1987 H 0.45715 0.71102 0.27609 0.0
H1988 H 0.45124 0.72321 0.25066 0.0
H1989 H 0.36918 0.68166 0.30987 0.0
H1990 H 0.39256 0.69173 0.32454 0.0
H1991 H 0.37223 0.70962 0.31603 0.0
H1992 H 0.46421 0.69349 0.34283 0.0
H1993 H 0.44051 0.75686 0.3412 0.0
H1994 H 0.44582 0.67615 0.29369 0.0
H1995 H 0.42333 0.66866 0.31017 0.0
H1996 H 0.45032 0.66579 0.32026 0.0
H1997 H 0.41563 0.75464 0.29245 0.0
H1998 H 0.4121 0.76631 0.31866 0.0
H1999 H 0.3943 0.74469 0.30926 0.0
C2000 C 0.97604 0.40124 0.95498 0.0
C2001 C 0.98367 0.40468 0.97602 0.0
C2002 C 0.97723 0.38116 0.94496 0.0
C2003 C 0.98634 0.36406 0.95619 0.0
C2004 C 0.99427 0.36747 0.97735 0.0
C2005 C 0.99278 0.38771 0.98703 0.0
C2006 C 0.96838 0.37815 0.92246 0.0
C2007 C 0.0042 0.34969 0.98981 0.0
C2008 C 0.96802 0.30828 0.93761 0.0
C2009 C 0.9848 0.30264 0.92397 0.0
C2010 C 0.96865 0.32791 0.94862 0.0
C2011 C 0.98653 0.34238 0.94609 0.0
C2012 C 0.00392 0.33652 0.93304 0.0
C2013 C 0.00285 0.31673 0.92211 0.0
C2014 C 0.94977 0.33349 0.96239 0.0
C2015 C 0.02333 0.35147 0.93005 0.0
H2016 H 0.96878 0.4142 0.94645 0.0
H2017 H 0.99898 0.39034 0.00318 0.0
H2018 H 0.98098 0.37219 0.91173 0.0
H2019 H 0.95494 0.36591 0.92246 0.0
H2020 H 0.96241 0.39321 0.91569 0.0
H2021 H 0.01035 0.35515 0.00579 0.0
H2022 H 0.99211 0.33638 0.99217 0.0
H2023 H 0.01767 0.34316 0.98062 0.0
H2024 H 0.95401 0.29756 0.93932 0.0
H2025 H 0.01591 0.31261 0.91166 0.0
H2026 H 0.94186 0.34751 0.95553 0.0
H2027 H 0.95535 0.33801 0.97881 0.0
H2028 H 0.93761 0.32003 0.96359 0.0
H2029 H 0.01852 0.36604 0.92147 0.0
H2030 H 0.03619 0.34393 0.92073 0.0
H2031 H 0.03002 0.3567 0.94587 0.0
C2032 C 0.60311 0.78862 0.2595 0.0
C2033 C 0.61357 0.8089 0.25856 0.0
C2034 C 0.58869 0.78336 0.27608 0.0
C2035 C 0.58467 0.79871 0.2922 0.0
C2036 C 0.59539 0.81912 0.29152 0.0
C2037 C 0.60966 0.82398 0.27468 0.0
C2038 C 0.57751 0.76145 0.27616 0.0
C2039 C 0.59169 0.83584 0.30851 0.0
C2040 C 0.53216 0.79062 0.32258 0.0
C2041 C 0.53889 0.77997 0.34105 0.0
C2042 C 0.54697 0.79732 0.3068 0.0
C2043 C 0.56906 0.79338 0.30962 0.0
C2044 C 0.57605 0.78337 0.32862 0.0
C2045 C 0.56088 0.77674 0.34407 0.0
C2046 C 0.53887 0.80793 0.28676 0.0
C2047 C 0.59947 0.77903 0.33232 0.0
H2048 H 0.60582 0.77699 0.24695 0.0
H2049 H 0.61788 0.8396 0.27418 0.0
H2050 H 0.58097 0.75316 0.29143 0.0
H2051 H 0.55984 0.76303 0.27515 0.0
H2052 H 0.58258 0.75126 0.2626 0.0
H2053 H 0.60156 0.8508 0.30588 0.0
H2054 H 0.57448 0.8398 0.30863 0.0
H2055 H 0.59558 0.82948 0.3246 0.0
H2056 H 0.5152 0.79315 0.32009 0.0
H2057 H 0.56623 0.76857 0.35832 0.0
H2058 H 0.54175 0.79763 0.2726 0.0
H2059 H 0.54781 0.8234 0.28416 0.0
H2060 H 0.52141 0.81089 0.28753 0.0
H2061 H 0.60481 0.76738 0.32018 0.0
H2062 H 0.60248 0.77248 0.34856 0.0
H2063 H 0.60952 0.79395 0.33034 0.0
C2064 C 0.02296 0.12219 0.98263 0.0
C2065 C 0.0339 0.1294 0.00123 0.0
C2066 C 0.01483 0.13675 0.96779 0.0
C2067 C 0.01754 0.15904 0.97175 0.0
C2068 C 0.02832 0.16638 0.99065 0.0
C2069 C 0.03641 0.15149 0.0051 0.0
C2070 C 0.00358 0.1283 0.94774 0.0
C2071 C 0.03136 0.18998 0.99561 0.0
C2072 C 0.01541 0.19849 0.92553 0.0
C2073 C 0.99457 0.2061 0.92739 0.0
C2074 C 0.02292 0.18292 0.93959 0.0
C2075 C 0.00937 0.17478 0.95606 0.0
C2076 C 0.98828 0.18222 0.95796 0.0
C2077 C 0.98112 0.19771 0.94359 0.0
C2078 C 0.04548 0.17533 0.93695 0.0
C2079 C 0.97337 0.17403 0.97537 0.0
H2080 H 0.02112 0.10514 0.97947 0.0
H2081 H 0.04454 0.15717 0.01961 0.0
H2082 H 0.98707 0.13428 0.94684 0.0
H2083 H 0.01229 0.13425 0.93334 0.0
H2084 H 0.00254 0.11052 0.94716 0.0
H2085 H 0.03978 0.19305 0.01117 0.0
H2086 H 0.04082 0.19802 0.98271 0.0
H2087 H 0.01552 0.19747 0.99611 0.0
H2088 H 0.02594 0.20471 0.91304 0.0
H2089 H 0.96499 0.20338 0.94521 0.0
H2090 H 0.04508 0.15767 0.93504 0.0
H2091 H 0.05515 0.17932 0.95156 0.0
H2092 H 0.05373 0.18266 0.92287 0.0
H2093 H 0.97125 0.15635 0.97427 0.0
H2094 H 0.95729 0.18105 0.97439 0.0
H2095 H 0.98052 0.17788 0.99136 0.0
C2096 C 0.40656 0.302 0.26638 0.0
C2097 C 0.38842 0.31353 0.26109 0.0
C2098 C 0.41993 0.29412 0.2504 0.0
C2099 C 0.41506 0.2978 0.22852 0.0
C2100 C 0.39731 0.31022 0.22308 0.0
C2101 C 0.38421 0.31797 0.23944 0.0
C2102 C 0.43876 0.28108 0.25693 0.0
C2103 C 0.39157 0.31446 0.19995 0.0
C2104 C 0.45849 0.28438 0.1883 0.0
C2105 C 0.4523 0.26321 0.18279 0.0
C2106 C 0.44617 0.29622 0.20265 0.0
C2107 C 0.42719 0.28668 0.21152 0.0
C2108 C 0.42041 0.26568 0.20524 0.0
C2109 C 0.43303 0.25424 0.19105 0.0
C2110 C 0.45389 0.31858 0.20895 0.0
C2111 C 0.40019 0.25495 0.21413 0.0
H2112 H 0.41016 0.2989 0.2831 0.0
H2113 H 0.37019 0.32682 0.23523 0.0
H2114 H 0.43586 0.26424 0.2516 0.0
H2115 H 0.45366 0.28726 0.24901 0.0
H2116 H 0.44145 0.28122 0.27458 0.0
H2117 H 0.37887 0.32635 0.19845 0.0
H2118 H 0.40597 0.32038 0.19102 0.0
H2119 H 0.38569 0.29932 0.19214 0.0
H2120 H 0.47333 0.29145 0.18199 0.0
H2121 H 0.42789 0.23801 0.18667 0.0
H2122 H 0.45885 0.31884 0.22609 0.0
H2123 H 0.44068 0.32984 0.20719 0.0
H2124 H 0.46775 0.32445 0.19914 0.0
H2125 H 0.40206 0.25264 0.23168 0.0
H2126 H 0.39641 0.2391 0.20655 0.0
H2127 H 0.38629 0.26522 0.21165 0.0
C2128 C 0.53385 0.3539 0.02072 0.0
C2129 C 0.52533 0.37429 0.02204 0.0
C2130 C 0.52838 0.33793 0.0357 0.0
C2131 C 0.51402 0.3424 0.05251 0.0
C2132 C 0.5051 0.36284 0.05381 0.0
C2133 C 0.5109 0.37856 0.03859 0.0
C2134 C 0.53839 0.31642 0.03381 0.0
C2135 C 0.48968 0.36818 0.07145 0.0
C2136 C 0.48943 0.29376 0.08135 0.0
C2137 C 0.50323 0.29232 0.09914 0.0
C2138 C 0.49226 0.31041 0.06638 0.0
C2139 C 0.50931 0.32593 0.06927 0.0
C2140 C 0.52284 0.3249 0.08756 0.0
C2141 C 0.51962 0.30815 0.10225 0.0
C2142 C 0.47744 0.31102 0.04713 0.0
C2143 C 0.54121 0.34109 0.09126 0.0
H2144 H 0.54528 0.35054 0.00822 0.0
H2145 H 0.50408 0.3942 0.03959 0.0
H2146 H 0.54848 0.31358 0.04819 0.0
H2147 H 0.52567 0.30346 0.03315 0.0
H2148 H 0.54858 0.31522 0.01931 0.0
H2149 H 0.4834 0.38445 0.06966 0.0
H2150 H 0.47591 0.35633 0.07155 0.0
H2151 H 0.49787 0.36725 0.08727 0.0
H2152 H 0.4767 0.28163 0.07886 0.0
H2153 H 0.53032 0.30724 0.11599 0.0
H2154 H 0.48666 0.30813 0.03229 0.0
H2155 H 0.47063 0.32707 0.04567 0.0
H2156 H 0.46399 0.29881 0.04806 0.0
H2157 H 0.55317 0.3398 0.07823 0.0
H2158 H 0.54948 0.33877 0.10688 0.0
H2159 H 0.53527 0.35756 0.0908 0.0
C2160 C 0.62672 0.1911 0.23333 0.0
C2161 C 0.63064 0.20156 0.25304 0.0
C2162 C 0.60753 0.19371 0.22186 0.0
C2163 C 0.59177 0.20705 0.23031 0.0
C2164 C 0.59529 0.21708 0.25053 0.0
C2165 C 0.61468 0.21424 0.26164 0.0
C2166 C 0.60437 0.18267 0.20038 0.0
C2167 C 0.57886 0.23137 0.26011 0.0
C2168 C 0.55451 0.23175 0.18967 0.0
C2169 C 0.53602 0.21815 0.19089 0.0
C2170 C 0.57256 0.22855 0.20272 0.0
C2171 C 0.57218 0.21135 0.21742 0.0
C2172 C 0.55343 0.19789 0.21917 0.0
C2173 C 0.53558 0.20144 0.2059 0.0
C2174 C 0.59225 0.2433 0.20039 0.0
C2175 C 0.55239 0.17943 0.23471 0.0
H2176 H 0.6388 0.18099 0.22674 0.0
H2177 H 0.61765 0.22258 0.27673 0.0
H2178 H 0.58903 0.17298 0.20017 0.0
H2179 H 0.6033 0.19482 0.18753 0.0
H2180 H 0.6177 0.17206 0.19652 0.0
H2181 H 0.58331 0.23673 0.27664 0.0
H2182 H 0.57725 0.24571 0.24991 0.0
H2183 H 0.56286 0.22287 0.26056 0.0
H2184 H 0.55508 0.24475 0.17822 0.0
H2185 H 0.52143 0.1908 0.20703 0.0
H2186 H 0.60599 0.23404 0.19482 0.0
H2187 H 0.59687 0.25048 0.21617 0.0
H2188 H 0.58967 0.25642 0.18881 0.0
H2189 H 0.56446 0.16765 0.23027 0.0
H2190 H 0.53626 0.17112 0.23492 0.0
H2191 H 0.55643 0.18518 0.25118 0.0
C2192 C 0.50412 0.11749 0.03225 0.0
C2193 C 0.50327 0.09696 0.04126 0.0
C2194 C 0.50355 0.1359 0.04536 0.0
C2195 C 0.50179 0.13368 0.06794 0.0
C2196 C 0.50081 0.11292 0.07694 0.0
C2197 C 0.50146 0.09492 0.06355 0.0
C2198 C 0.50519 0.15771 0.03509 0.0
C2199 C 0.49847 0.10955 0.10069 0.0
C2200 C 0.52028 0.17996 0.10458 0.0
C2201 C 0.50088 0.18953 0.1092 0.0
C2202 C 0.5208 0.16184 0.09118 0.0
C2203 C 0.5014 0.15298 0.08221 0.0
C2204 C 0.48171 0.16253 0.08698 0.0
C2205 C 0.48177 0.18097 0.10004 0.0
C2206 C 0.54215 0.15231 0.08643 0.0
C2207 C 0.46063 0.15338 0.07815 0.0
H2208 H 0.50563 0.11916 0.01501 0.0
H2209 H 0.50029 0.07908 0.07058 0.0
H2210 H 0.49086 0.16686 0.03911 0.0
H2211 H 0.51947 0.16689 0.04157 0.0
H2212 H 0.50655 0.15674 0.01735 0.0
H2213 H 0.50966 0.12052 0.10981 0.0
H2214 H 0.48179 0.11307 0.10513 0.0
H2215 H 0.50146 0.09284 0.10548 0.0
H2216 H 0.53515 0.18687 0.11127 0.0
H2217 H 0.46691 0.18898 0.10272 0.0
H2218 H 0.54481 0.15195 0.06884 0.0
H2219 H 0.54208 0.13553 0.09215 0.0
H2220 H 0.55583 0.16142 0.09419 0.0
H2221 H 0.46087 0.15355 0.06035 0.0
H2222 H 0.44671 0.16244 0.0837 0.0
H2223 H 0.45825 0.13645 0.08316 0.0
C2224 C 0.24431 0.41107 0.71235 0.0
C2225 C 0.24645 0.39117 0.70226 0.0
C2226 C 0.26243 0.42443 0.71722 0.0
C2227 C 0.28321 0.41769 0.71197 0.0
C2228 C 0.28538 0.39789 0.70126 0.0
C2229 C 0.26703 0.38486 0.69662 0.0
C2230 C 0.25934 0.44562 0.72826 0.0
C2231 C 0.30711 0.39004 0.69531 0.0
C2232 C 0.32904 0.46002 0.71161 0.0
C2233 C 0.3376 0.45801 0.73232 0.0
C2234 C 0.31163 0.44669 0.70454 0.0
C2235 C 0.30264 0.43098 0.71855 0.0
C2236 C 0.31154 0.42867 0.73935 0.0
C2237 C 0.32859 0.44254 0.74613 0.0
C2238 C 0.3024 0.44988 0.68238 0.0
C2239 C 0.30271 0.41191 0.75465 0.0
H2240 H 0.22847 0.41603 0.71685 0.0
H2241 H 0.2688 0.36969 0.68846 0.0
H2242 H 0.26685 0.44557 0.74446 0.0
H2243 H 0.26744 0.45877 0.71907 0.0
H2244 H 0.24208 0.44912 0.73 0.0
H2245 H 0.3059 0.37634 0.68389 0.0
H2246 H 0.31731 0.40304 0.68812 0.0
H2247 H 0.3152 0.38473 0.71009 0.0
H2248 H 0.3357 0.47234 0.70111 0.0
H2249 H 0.3345 0.44168 0.76249 0.0
H2250 H 0.28552 0.45477 0.68365 0.0
H2251 H 0.30214 0.43463 0.67319 0.0
H2252 H 0.31171 0.46227 0.67319 0.0
H2253 H 0.28571 0.41496 0.75841 0.0
H2254 H 0.31199 0.41166 0.76994 0.0
H2255 H 0.30298 0.39584 0.74703 0.0
C2256 C 0.27482 0.61717 0.81762 0.0
C2257 C 0.26631 0.62535 0.79861 0.0
C2258 C 0.28866 0.59994 0.81708 0.0
C2259 C 0.29371 0.59052 0.7971 0.0
C2260 C 0.28431 0.59817 0.77799 0.0
C2261 C 0.27091 0.61562 0.77897 0.0
C2262 C 0.29858 0.59245 0.83774 0.0
C2263 C 0.28892 0.58836 0.75639 0.0
C2264 C 0.34599 0.56339 0.78644 0.0
C2265 C 0.33927 0.54171 0.78625 0.0
C2266 C 0.3316 0.57937 0.79134 0.0
C2267 C 0.30983 0.57358 0.79574 0.0
C2268 C 0.3032 0.55165 0.79658 0.0
C2269 C 0.31807 0.53595 0.79201 0.0
C2270 C 0.33946 0.60254 0.7907 0.0
C2271 C 0.2801 0.54479 0.80094 0.0
H2272 H 0.27136 0.62484 0.83278 0.0
H2273 H 0.26419 0.6219 0.7643 0.0
H2274 H 0.2962 0.57485 0.83932 0.0
H2275 H 0.31618 0.59611 0.83755 0.0
H2276 H 0.29172 0.60025 0.85206 0.0
H2277 H 0.27902 0.59506 0.74333 0.0
H2278 H 0.30614 0.59128 0.75242 0.0
H2279 H 0.28578 0.57077 0.75685 0.0
H2280 H 0.36241 0.56792 0.78216 0.0
H2281 H 0.31276 0.51921 0.79178 0.0
H2282 H 0.33425 0.61115 0.80526 0.0
H2283 H 0.33232 0.61045 0.7766 0.0
H2284 H 0.35725 0.60427 0.78956 0.0
H2285 H 0.27411 0.55319 0.81528 0.0
H2286 H 0.27805 0.52725 0.80344 0.0
H2287 H 0.2699 0.54924 0.78711 0.0
C2288 C 0.88855 0.48528 0.50408 0.0
C2289 C 0.90574 0.47366 0.49631 0.0
C2290 C 0.86773 0.47582 0.50557 0.0
C2291 C 0.8639 0.45431 0.49892 0.0
C2292 C 0.88123 0.44237 0.4915 0.0
C2293 C 0.90191 0.45213 0.49041 0.0
C2294 C 0.8497 0.48904 0.51368 0.0
C2295 C 0.87783 0.41941 0.48415 0.0
C2296 C 0.8128 0.42188 0.51315 0.0
C2297 C 0.80082 0.42317 0.49404 0.0
C2298 C 0.83306 0.4326 0.51534 0.0
C2299 C 0.84158 0.44473 0.49798 0.0
C2300 C 0.82924 0.4467 0.479 0.0
C2301 C 0.80906 0.43603 0.47731 0.0
C2302 C 0.84564 0.43035 0.53595 0.0
C2303 C 0.83774 0.45939 0.46006 0.0
H2304 H 0.89126 0.50195 0.50853 0.0
H2305 H 0.91512 0.44285 0.48488 0.0
H2306 H 0.83816 0.49181 0.50042 0.0
H2307 H 0.8407 0.48033 0.52648 0.0
H2308 H 0.85564 0.50482 0.52012 0.0
H2309 H 0.89313 0.41205 0.47971 0.0
H2310 H 0.87003 0.40969 0.49699 0.0
H2311 H 0.86689 0.41866 0.47 0.0
H2312 H 0.80663 0.41206 0.5262 0.0
H2313 H 0.80002 0.43729 0.46246 0.0
H2314 H 0.85126 0.44633 0.54206 0.0
H2315 H 0.86014 0.4211 0.53286 0.0
H2316 H 0.83601 0.42207 0.5486 0.0
H2317 H 0.84258 0.47594 0.46512 0.0
H2318 H 0.82572 0.46022 0.44686 0.0
H2319 H 0.85228 0.45193 0.4537 0.0
C2320 C 0.73431 0.89362 0.8188 0.0
C2321 C 0.75239 0.89133 0.80577 0.0
C2322 C 0.71794 0.90735 0.81297 0.0
C2323 C 0.71974 0.9192 0.7937 0.0
C2324 C 0.73778 0.91669 0.78031 0.0
C2325 C 0.75383 0.90276 0.78648 0.0
C2326 C 0.69888 0.90941 0.82758 0.0
C2327 C 0.74039 0.92911 0.7597 0.0
C2328 C 0.67058 0.94343 0.76821 0.0
C2329 C 0.67316 0.96495 0.77456 0.0
C2330 C 0.68534 0.92825 0.77469 0.0
C2331 C 0.70314 0.93475 0.78781 0.0
C2332 C 0.70553 0.95635 0.79469 0.0
C2333 C 0.69052 0.97117 0.78801 0.0
C2334 C 0.68216 0.90537 0.76709 0.0
C2335 C 0.72426 0.96394 0.8087 0.0
H2336 H 0.73296 0.88465 0.83361 0.0
H2337 H 0.76787 0.90131 0.77646 0.0
H2338 H 0.69835 0.9261 0.83362 0.0
H2339 H 0.68372 0.90587 0.81853 0.0
H2340 H 0.69946 0.89847 0.84155 0.0
H2341 H 0.755 0.92485 0.75076 0.0
H2342 H 0.72613 0.92607 0.74916 0.0
H2343 H 0.74145 0.94652 0.76329 0.0
H2344 H 0.65722 0.93847 0.75783 0.0
H2345 H 0.69264 0.98775 0.79302 0.0
H2346 H 0.68207 0.89434 0.78099 0.0
H2347 H 0.69575 0.90112 0.75668 0.0
H2348 H 0.66692 0.90264 0.7579 0.0
H2349 H 0.72478 0.95421 0.82352 0.0
H2350 H 0.72339 0.98107 0.81332 0.0
H2351 H 0.73956 0.96179 0.80007 0.0
C2352 C 0.61508 0.53238 0.99632 0.0
C2353 C 0.62141 0.51139 0.99289 0.0
C2354 C 0.63025 0.54915 1.00041 0.0
C2355 C 0.65242 0.54494 1.00117 0.0
C2356 C 0.65885 0.52356 0.99907 0.0
C2357 C 0.64331 0.50708 0.99477 0.0
C2358 C 0.62237 0.57147 0.00254 0.0
C2359 C 0.68222 0.51815 1.00071 0.0
C2360 C 0.69482 0.58754 0.98542 0.0
C2361 C 0.70143 0.59591 0.00538 0.0
C2362 C 0.67833 0.57155 0.98381 0.0
C2363 C 0.66897 0.56291 0.00273 0.0
C2364 C 0.67596 0.571 0.023 0.0
C2365 C 0.69204 0.58747 0.02407 0.0
C2366 C 0.6711 0.56371 0.96186 0.0
C2367 C 0.6668 0.56191 0.04355 0.0
H2368 H 0.59818 0.53585 0.9954 0.0
H2369 H 0.64846 0.49095 0.9921 0.0
H2370 H 0.63237 0.5813 0.01395 0.0
H2371 H 0.62319 0.57909 0.98655 0.0
H2372 H 0.60539 0.57139 0.00792 0.0
H2373 H 0.68431 0.50061 0.00124 0.0
H2374 H 0.6911 0.52474 0.98668 0.0
H2375 H 0.68967 0.52557 0.01533 0.0
H2376 H 0.70287 0.59321 0.97104 0.0
H2377 H 0.69756 0.59355 0.03957 0.0
H2378 H 0.6535 0.56538 0.96003 0.0
H2379 H 0.67425 0.54648 0.96004 0.0
H2380 H 0.67943 0.57262 0.94874 0.0
H2381 H 0.64916 0.56383 0.04391 0.0
H2382 H 0.67411 0.56979 0.05803 0.0
H2383 H 0.66951 0.5445 0.04431 0.0
C2384 C 0.24014 0.62755 0.18973 0.0
C2385 C 0.26115 0.62117 0.19369 0.0
C2386 C 0.22221 0.61441 0.19524 0.0
C2387 C 0.22523 0.59432 0.20491 0.0
C2388 C 0.24639 0.58755 0.20853 0.0
C2389 C 0.26406 0.6011 0.20303 0.0
C2390 C 0.20004 0.62238 0.19123 0.0
C2391 C 0.25037 0.56602 0.21834 0.0
C2392 C 0.18249 0.56696 0.23981 0.0
C2393 C 0.17281 0.5521 0.2255 0.0
C2394 C 0.19884 0.58151 0.23304 0.0
C2395 C 0.20638 0.58048 0.21167 0.0
C2396 C 0.19669 0.56538 0.19716 0.0
C2397 C 0.17999 0.55139 0.20426 0.0
C2398 C 0.20843 0.5976 0.24892 0.0
C2399 C 0.20451 0.56346 0.17438 0.0
H2400 H 0.23767 0.64283 0.18217 0.0
H2401 H 0.28019 0.59606 0.20638 0.0
H2402 H 0.18953 0.60979 0.18348 0.0
H2403 H 0.19285 0.62642 0.20685 0.0
H2404 H 0.20031 0.6369 0.181 0.0
H2405 H 0.26775 0.56265 0.21902 0.0
H2406 H 0.24391 0.56537 0.23488 0.0
H2407 H 0.24182 0.55314 0.20892 0.0
H2408 H 0.17769 0.56681 0.25649 0.0
H2409 H 0.17283 0.53953 0.19333 0.0
H2410 H 0.20751 0.614 0.24235 0.0
H2411 H 0.22568 0.59461 0.25162 0.0
H2412 H 0.20011 0.59695 0.26463 0.0
H2413 H 0.20398 0.57913 0.16618 0.0
H2414 H 0.19478 0.55141 0.16491 0.0
H2415 H 0.22152 0.55878 0.17447 0.0
C2416 C 0.87794 0.52979 0.01768 0.0
C2417 C 0.89786 0.53845 0.01069 0.0
C2418 C 0.85923 0.54163 0.01651 0.0
C2419 C 0.86033 0.56259 0.00794 0.0
C2420 C 0.8803 0.57135 1.00066 0.0
C2421 C 0.89878 0.55929 0.00228 0.0
C2422 C 0.83828 0.53176 0.02462 0.0
C2423 C 0.8822 0.5936 0.99133 0.0
C2424 C 0.80864 0.58709 0.98833 0.0
C2425 C 0.80392 0.60072 0.00546 0.0
C2426 C 0.82697 0.57463 0.98887 0.0
C2427 C 0.84075 0.57562 0.00708 0.0
C2428 C 0.83601 0.58932 0.02443 0.0
C2429 C 0.81776 0.60178 0.02335 0.0
C2430 C 0.83161 0.56046 0.96991 0.0
C2431 C 0.85015 0.59072 0.04424 0.0
H2432 H 0.8769 0.51365 0.02394 0.0
H2433 H 0.91408 0.5664 0.99722 0.0
H2434 H 0.83197 0.54181 0.03768 0.0
H2435 H 0.82608 0.53117 0.01153 0.0
H2436 H 0.84008 0.5153 0.0308 0.0
H2437 H 0.89868 0.59774 0.98553 0.0
H2438 H 0.87073 0.59499 0.97773 0.0
H2439 H 0.87791 0.60554 0.00363 0.0
H2440 H 0.79805 0.58618 0.97444 0.0
H2441 H 0.81418 0.61216 0.03673 0.0
H2442 H 0.83204 0.54354 0.97512 0.0
H2443 H 0.84768 0.56495 0.9633 0.0
H2444 H 0.81941 0.5616 0.95691 0.0
H2445 H 0.8512 0.57465 0.05155 0.0
H2446 H 0.84406 0.60189 0.05648 0.0
H2447 H 0.86671 0.5962 0.03983 0.0
C2448 C 0.12256 0.98523 0.02452 0.0
C2449 C 0.12858 1.0014 0.03932 0.0
C2450 C 0.1374 0.97036 0.01757 0.0
C2451 C 0.15882 0.97182 0.02546 0.0
C2452 C 0.16499 0.98814 0.04036 0.0
C2453 C 0.14981 0.00267 0.04714 0.0
C2454 C 0.13015 0.95307 0.00181 0.0
C2455 C 0.18772 0.99042 0.04898 0.0
C2456 C 0.19391 0.92344 0.02224 0.0
C2457 C 0.20621 0.92802 0.00388 0.0
C2458 C 0.17825 0.9374 0.02929 0.0
C2459 C 0.17494 0.95653 0.01788 0.0
C2460 C 0.18734 0.9613 0.99941 0.0
C2461 C 0.20271 0.94697 0.99259 0.0
C2462 C 0.16522 0.93166 0.04895 0.0
C2463 C 0.18449 0.98164 0.98693 0.0
H2464 H 0.10614 0.98405 0.01857 0.0
H2465 H 0.15466 0.01532 0.05834 0.0
H2466 H 0.13975 0.9545 0.98691 0.0
H2467 H 0.13294 0.93708 0.00868 0.0
H2468 H 0.11285 0.95387 0.99751 0.0
H2469 H 0.1899 0.00389 0.06059 0.0
H2470 H 0.19212 0.97544 0.05706 0.0
H2471 H 0.19911 0.99312 0.03554 0.0
H2472 H 0.19634 0.9088 0.03101 0.0
H2473 H 0.21212 0.95073 0.97842 0.0
H2474 H 0.14782 0.93106 0.04487 0.0
H2475 H 0.1679 0.94416 0.06149 0.0
H2476 H 0.16941 0.91597 0.05576 0.0
H2477 H 0.16764 0.98229 0.9811 0.0
H2478 H 0.19539 0.98299 0.97291 0.0
H2479 H 0.18765 0.99574 0.99754 0.0
loop_
_geom_bond_atom_site_label_1
_geom_bond_atom_site_label_2
_geom_bond_distance
_geom_bond_site_symmetry_2
_ccdc_geom_bond_type
P0 O11 1.490 . S
P0 C14 1.812 . S
P0 C20 1.803 . S
P0 C26 1.819 . S
H1 C15 0.941 . S
H2 C16 0.939 . S
H3 C18 0.940 . S
H4 C19 0.940 . S
H5 C21 0.939 . S
H6 C22 0.942 . S
H7 C24 0.940 . S
H8 C25 0.939 . S
H9 C27 0.941 . S
H10 C31 0.939 . S
O11 P0 1.490 . S
H12 C28 0.939 . S
H13 C30 0.940 . S
C14 P0 1.812 . S
C14 C15 1.389 . S
C14 C19 1.391 . S
C15 H1 0.941 . S
C15 C14 1.389 . S
C15 C16 1.397 . S
C16 H2 0.939 . S
C16 C15 1.397 . S
C16 C17 1.378 1_455 S
C17 C16 1.378 1_655 S
C17 C18 1.378 . S
C18 H3 0.940 . S
C18 C17 1.378 . S
C18 C19 1.396 1_655 S
C19 H4 0.940 . S
C19 C14 1.391 . S
C19 C18 1.396 1_455 S
C20 P0 1.803 . S
C20 C21 1.378 . S
C20 C25 1.400 . S
C21 H5 0.939 . S
C21 C20 1.378 . S
C21 C22 1.361 . S
C22 H6 0.942 . S
C22 C21 1.361 . S
C22 C23 1.369 1_545 S
C23 C22 1.369 1_565 S
C23 C24 1.404 . S
C24 H7 0.940 . S
C24 C23 1.404 . S
C24 C25 1.389 1_565 S
C25 H8 0.939 . S
C25 C20 1.400 . S
C25 C24 1.389 1_545 S
C26 P0 1.819 . S
C26 C27 1.391 . S
C26 C31 1.391 . S
C27 H9 0.941 . S
C27 C26 1.391 . S
C27 C28 1.396 . S
C28 H12 0.939 . S
C28 C27 1.396 . S
C28 C29 1.397 1_554 S
C29 C28 1.397 1_556 S
C29 C30 1.385 . S
C30 H13 0.940 . S
C30 C29 1.385 . S
C30 C31 1.388 1_556 S
C31 H10 0.939 . S
C31 C26 1.391 . S
C31 C30 1.388 1_554 S
P32 O43 1.490 . S
P32 C46 1.812 . S
P32 C52 1.803 . S
P32 C58 1.819 . S
H33 C47 0.941 . S
H34 C48 0.939 . S
H35 C50 0.940 . S
H36 C51 0.940 . S
H37 C53 0.939 . S
H38 C54 0.942 . S
H39 C56 0.940 . S
H40 C57 0.939 . S
H41 C59 0.941 . S
H42 C63 0.939 . S
O43 P32 1.490 . S
H44 C60 0.939 . S
H45 C62 0.940 . S
C46 P32 1.812 . S
C46 C47 1.389 . S
C46 C51 1.391 . S
C47 H33 0.941 . S
C47 C46 1.389 . S
C47 C48 1.397 . S
C48 H34 0.939 . S
C48 C47 1.397 . S
C48 C49 1.378 . S
C49 C48 1.378 . S
C49 C50 1.378 . S
C50 H35 0.940 . S
C50 C49 1.378 . S
C50 C51 1.396 . S
C51 H36 0.940 . S
C51 C46 1.391 . S
C51 C50 1.396 . S
C52 P32 1.803 . S
C52 C53 1.378 . S
C52 C57 1.400 . S
C53 H37 0.939 . S
C53 C52 1.378 . S
C53 C54 1.361 . S
C54 H38 0.942 . S
C54 C53 1.361 . S
C54 C55 1.369 . S
C55 C54 1.369 . S
C55 C56 1.404 . S
C56 H39 0.940 . S
C56 C55 1.404 . S
C56 C57 1.389 . S
C57 H40 0.939 . S
C57 C52 1.400 . S
C57 C56 1.389 . S
C58 P32 1.819 . S
C58 C59 1.391 . S
C58 C63 1.391 . S
C59 H41 0.941 . S
C59 C58 1.391 . S
C59 C60 1.396 . S
C60 H44 0.939 . S
C60 C59 1.396 . S
C60 C61 1.397 . S
C61 C60 1.397 . S
C61 C62 1.385 . S
C62 H45 0.940 . S
C62 C61 1.385 . S
C62 C63 1.388 . S
C63 H42 0.939 . S
C63 C58 1.391 . S
C63 C62 1.388 . S
P64 O75 1.519 . S
P64 C78 1.812 . S
P64 C84 1.803 . S
P64 C90 1.819 . S
H65 C79 0.941 . S
H66 C80 0.939 . S
H67 C82 0.940 . S
H68 C83 0.940 . S
H69 C85 0.939 . S
H70 C86 0.942 . S
H71 C88 0.940 . S
H72 C89 0.939 . S
H73 C91 0.941 . S
H74 C95 0.939 . S
O75 P64 1.519 . S
H76 C92 0.939 . S
H77 C94 0.940 . S
C78 P64 1.812 . S
C78 C79 1.389 1_554 S
C78 C83 1.391 . S
C79 H65 0.941 . S
C79 C78 1.389 1_556 S
C79 C80 1.397 . S
C80 H66 0.939 . S
C80 C79 1.397 . S
C80 C81 1.378 . S
C81 C80 1.378 . S
C81 C82 1.378 1_556 S
C82 H67 0.940 . S
C82 C81 1.378 1_554 S
C82 C83 1.396 . S
C83 H68 0.940 . S
C83 C78 1.391 . S
C83 C82 1.396 . S
C84 P64 1.803 . S
C84 C85 1.378 . S
C84 C89 1.400 . S
C85 H69 0.939 . S
C85 C84 1.378 . S
C85 C86 1.361 . S
C86 H70 0.942 . S
C86 C85 1.361 . S
C86 C87 1.369 . S
C87 C86 1.369 . S
C87 C88 1.404 . S
C88 H71 0.940 . S
C88 C87 1.404 . S
C88 C89 1.389 . S
C89 H72 0.939 . S
C89 C84 1.400 . S
C89 C88 1.389 . S
C90 P64 1.819 . S
C90 C91 1.391 1_655 S
C90 C95 1.391 . S
C91 H73 0.941 . S
C91 C90 1.391 1_455 S
C91 C92 1.396 . S
C92 H76 0.939 . S
C92 C91 1.396 . S
C92 C93 1.397 . S
C93 C92 1.397 . S
C93 C94 1.385 1_455 S
C94 H77 0.940 . S
C94 C93 1.385 1_655 S
C94 C95 1.388 . S
C95 H74 0.939 . S
C95 C90 1.391 . S
C95 C94 1.388 . S
P96 O107 1.490 . S
P96 C110 1.812 . S
P96 C116 1.803 . S
P96 C122 1.819 . S
H97 C111 0.941 . S
H98 C112 0.939 . S
H99 C114 0.940 . S
H100 C115 0.940 . S
H101 C117 0.939 . S
H102 C118 0.942 . S
H103 C120 0.940 . S
H104 C121 0.939 . S
H105 C123 0.941 . S
H106 C127 0.939 . S
O107 P96 1.490 . S
H108 C124 0.939 . S
H109 C126 0.940 . S
C110 P96 1.812 . S
C110 C111 1.389 . S
C110 C115 1.391 . S
C111 H97 0.941 . S
C111 C110 1.389 . S
C111 C112 1.397 . S
C112 H98 0.939 . S
C112 C111 1.397 . S
C112 C113 1.378 . S
C113 C112 1.378 . S
C113 C114 1.378 . S
C114 H99 0.940 . S
C114 C113 1.378 . S
C114 C115 1.396 . S
C115 H100 0.940 . S
C115 C110 1.391 . S
C115 C114 1.396 . S
C116 P96 1.803 . S
C116 C117 1.378 . S
C116 C121 1.400 . S
C117 H101 0.939 . S
C117 C116 1.378 . S
C117 C118 1.361 . S
C118 H102 0.942 . S
C118 C117 1.361 . S
C118 C119 1.369 . S
C119 C118 1.369 . S
C119 C120 1.404 . S
C120 H103 0.940 . S
C120 C119 1.404 . S
C120 C121 1.389 . S
C121 H104 0.939 . S
C121 C116 1.400 . S
C121 C120 1.389 . S
C122 P96 1.819 . S
C122 C123 1.391 . S
C122 C127 1.391 . S
C123 H105 0.941 . S
C123 C122 1.391 . S
C123 C124 1.396 . S
C124 H108 0.939 . S
C124 C123 1.396 . S
C124 C125 1.397 . S
C125 C124 1.397 . S
C125 C126 1.385 . S
C126 H109 0.940 . S
C126 C125 1.385 . S
C126 C127 1.388 . S
C127 H106 0.939 . S
C127 C122 1.391 . S
C127 C126 1.388 . S
P128 O139 1.490 . S
P128 C142 1.812 . S
P128 C148 1.803 . S
P128 C154 1.819 . S
H129 C143 0.941 . S
H130 C144 0.939 . S
H131 C146 0.940 . S
H132 C147 0.940 . S
H133 C149 0.939 . S
H134 C150 0.942 . S
H135 C152 0.940 . S
H136 C153 0.939 . S
H137 C155 0.941 . S
H138 C159 0.939 . S
O139 P128 1.490 . S
H140 C156 0.939 . S
H141 C158 0.940 . S
C142 P128 1.812 . S
C142 C143 1.389 . S
C142 C147 1.391 . S
C143 H129 0.941 . S
C143 C142 1.389 . S
C143 C144 1.397 . S
C144 H130 0.939 . S
C144 C143 1.397 . S
C144 C145 1.378 1_565 S
C145 C144 1.378 1_545 S
C145 C146 1.378 . S
C146 H131 0.940 . S
C146 C145 1.378 . S
C146 C147 1.396 1_545 S
C147 H132 0.940 . S
C147 C142 1.391 . S
C147 C146 1.396 1_565 S
C148 P128 1.803 . S
C148 C149 1.378 . S
C148 C153 1.400 . S
C149 H133 0.939 . S
C149 C148 1.378 . S
C149 C150 1.361 . S
C150 H134 0.942 . S
C150 C149 1.361 . S
C150 C151 1.369 . S
C151 C150 1.369 . S
C151 C152 1.404 . S
C152 H135 0.940 . S
C152 C151 1.404 . S
C152 C153 1.389 . S
C153 H136 0.939 . S
C153 C148 1.400 . S
C153 C152 1.389 . S
C154 P128 1.819 . S
C154 C155 1.391 . S
C154 C159 1.391 . S
C155 H137 0.941 . S
C155 C154 1.391 . S
C155 C156 1.396 . S
C156 H140 0.939 . S
C156 C155 1.396 . S
C156 C157 1.397 1_455 S
C157 C156 1.397 1_655 S
C157 C158 1.385 . S
C158 H141 0.940 . S
C158 C157 1.385 . S
C158 C159 1.388 1_655 S
C159 H138 0.939 . S
C159 C154 1.391 . S
C159 C158 1.388 1_455 S
P160 O171 1.490 . S
P160 C174 1.812 . S
P160 C180 1.803 . S
P160 C186 1.819 . S
H161 C175 0.941 . S
H162 C176 0.939 . S
H163 C178 0.940 . S
H164 C179 0.940 . S
H165 C181 0.939 . S
H166 C182 0.942 . S
H167 C184 0.940 . S
H168 C185 0.939 . S
H169 C187 0.941 . S
H170 C191 0.939 . S
O171 P160 1.490 . S
H172 C188 0.939 . S
H173 C190 0.940 . S
C174 P160 1.812 . S
C174 C175 1.389 . S
C174 C179 1.391 . S
C175 H161 0.941 . S
C175 C174 1.389 . S
C175 C176 1.397 . S
C176 H162 0.939 . S
C176 C175 1.397 . S
C176 C177 1.378 . S
C177 C176 1.378 . S
C177 C178 1.378 . S
C178 H163 0.940 . S
C178 C177 1.378 . S
C178 C179 1.396 . S
C179 H164 0.940 . S
C179 C174 1.391 . S
C179 C178 1.396 . S
C180 P160 1.803 . S
C180 C181 1.378 . S
C180 C185 1.400 . S
C181 H165 0.939 . S
C181 C180 1.378 . S
C181 C182 1.361 . S
C182 H166 0.942 . S
C182 C181 1.361 . S
C182 C183 1.369 . S
C183 C182 1.369 . S
C183 C184 1.404 . S
C184 H167 0.940 . S
C184 C183 1.404 . S
C184 C185 1.389 . S
C185 H168 0.939 . S
C185 C180 1.400 . S
C185 C184 1.389 . S
C186 P160 1.819 . S
C186 C187 1.391 . S
C186 C191 1.391 . S
C187 H169 0.941 . S
C187 C186 1.391 . S
C187 C188 1.396 . S
C188 H172 0.939 . S
C188 C187 1.396 . S
C188 C189 1.397 . S
C189 C188 1.397 . S
C189 C190 1.385 . S
C190 H173 0.940 . S
C190 C189 1.385 . S
C190 C191 1.388 . S
C191 H170 0.939 . S
C191 C186 1.391 . S
C191 C190 1.388 . S
P192 O203 1.490 1_655 S
P192 C206 1.815 . S
P192 C212 1.803 . S
P192 C218 1.819 . S
H193 C207 0.941 . S
H194 C208 0.939 . S
H195 C210 0.940 . S
H196 C211 0.940 . S
H197 C213 0.939 . S
H198 C214 0.942 . S
H199 C216 0.940 . S
H200 C217 0.939 . S
H201 C219 0.941 . S
H202 C223 0.939 . S
O203 P192 1.490 1_455 S
H204 C220 0.939 . S
H205 C222 0.940 . S
C206 P192 1.815 . S
C206 C207 1.379 1_655 S
C206 C211 1.397 . S
C207 H193 0.941 . S
C207 C206 1.379 1_455 S
C207 C208 1.397 . S
C208 H194 0.939 . S
C208 C207 1.397 . S
C208 C209 1.378 . S
C209 C208 1.378 . S
C209 C210 1.378 1_455 S
C210 H195 0.940 . S
C210 C209 1.378 1_655 S
C210 C211 1.396 . S
C211 H196 0.940 . S
C211 C206 1.397 . S
C211 C210 1.396 . S
C212 P192 1.803 . S
C212 C213 1.378 . S
C212 C217 1.400 . S
C213 H197 0.939 . S
C213 C212 1.378 . S
C213 C214 1.361 . S
C214 H198 0.942 . S
C214 C213 1.361 . S
C214 C215 1.369 . S
C215 C214 1.369 . S
C215 C216 1.404 . S
C216 H199 0.940 . S
C216 C215 1.404 . S
C216 C217 1.389 . S
C217 H200 0.939 . S
C217 C212 1.400 . S
C217 C216 1.389 . S
C218 P192 1.819 . S
C218 C219 1.391 . S
C218 C223 1.391 . S
C219 H201 0.941 . S
C219 C218 1.391 . S
C219 C220 1.396 . S
C220 H204 0.939 . S
C220 C219 1.396 . S
C220 C221 1.397 . S
C221 C220 1.397 . S
C221 C222 1.385 . S
C222 H205 0.940 . S
C222 C221 1.385 . S
C222 C223 1.388 . S
C223 H202 0.939 . S
C223 C218 1.391 . S
C223 C222 1.388 . S
P224 O235 1.490 . S
P224 C238 1.812 . S
P224 C244 1.803 . S
P224 C250 1.819 . S
H225 C239 0.941 . S
H226 C240 0.939 . S
H227 C242 0.940 . S
H228 C243 0.940 . S
H229 C245 0.939 . S
H230 C246 0.942 . S
H231 C248 0.940 . S
H232 C249 0.939 . S
H233 C251 0.941 . S
H234 C255 0.939 . S
O235 P224 1.490 . S
H236 C252 0.939 . S
H237 C254 0.940 . S
C238 P224 1.812 . S
C238 C239 1.389 . S
C238 C243 1.391 . S
C239 H225 0.941 . S
C239 C238 1.389 . S
C239 C240 1.397 . S
C240 H226 0.939 . S
C240 C239 1.397 . S
C240 C241 1.378 . S
C241 C240 1.378 . S
C241 C242 1.378 . S
C242 H227 0.940 . S
C242 C241 1.378 . S
C242 C243 1.396 . S
C243 H228 0.940 . S
C243 C238 1.391 . S
C243 C242 1.396 . S
C244 P224 1.803 . S
C244 C245 1.378 . S
C244 C249 1.400 . S
C245 H229 0.939 . S
C245 C244 1.378 . S
C245 C246 1.361 . S
C246 H230 0.942 . S
C246 C245 1.361 . S
C246 C247 1.369 . S
C247 C246 1.369 . S
C247 C248 1.404 . S
C248 H231 0.940 . S
C248 C247 1.404 . S
C248 C249 1.389 . S
C249 H232 0.939 . S
C249 C244 1.400 . S
C249 C248 1.389 . S
C250 P224 1.819 . S
C250 C251 1.391 . S
C250 C255 1.391 . S
C251 H233 0.941 . S
C251 C250 1.391 . S
C251 C252 1.396 . S
C252 H236 0.939 . S
C252 C251 1.396 . S
C252 C253 1.397 . S
C253 C252 1.397 . S
C253 C254 1.385 . S
C254 H237 0.940 . S
C254 C253 1.385 . S
C254 C255 1.388 . S
C255 H234 0.939 . S
C255 C250 1.391 . S
C255 C254 1.388 . S
P256 O267 1.490 . S
P256 C270 1.812 . S
P256 C276 1.803 . S
P256 C282 1.819 . S
H257 C271 0.941 . S
H258 C272 0.939 . S
H259 C274 0.940 . S
H260 C275 0.940 . S
H261 C277 0.939 . S
H262 C278 0.942 . S
H263 C280 0.940 . S
H264 C281 0.939 . S
H265 C283 0.941 . S
H266 C287 0.939 . S
O267 P256 1.490 . S
H268 C284 0.939 . S
H269 C286 0.940 . S
C270 P256 1.812 . S
C270 C271 1.389 . S
C270 C275 1.391 . S
C271 H257 0.941 . S
C271 C270 1.389 . S
C271 C272 1.397 . S
C272 H258 0.939 . S
C272 C271 1.397 . S
C272 C273 1.378 . S
C273 C272 1.378 . S
C273 C274 1.378 . S
C274 H259 0.940 . S
C274 C273 1.378 . S
C274 C275 1.396 . S
C275 H260 0.940 . S
C275 C270 1.391 . S
C275 C274 1.396 . S
C276 P256 1.803 . S
C276 C277 1.378 . S
C276 C281 1.400 . S
C277 H261 0.939 . S
C277 C276 1.378 . S
C277 C278 1.361 . S
C278 H262 0.942 . S
C278 C277 1.361 . S
C278 C279 1.369 . S
C279 C278 1.369 . S
C279 C280 1.404 . S
C280 H263 0.940 . S
C280 C279 1.404 . S
C280 C281 1.389 . S
C281 H264 0.939 . S
C281 C276 1.400 . S
C281 C280 1.389 . S
C282 P256 1.819 . S
C282 C283 1.391 . S
C282 C287 1.391 . S
C283 H265 0.941 . S
C283 C282 1.391 . S
C283 C284 1.396 . S
C284 H268 0.939 . S
C284 C283 1.396 . S
C284 C285 1.397 . S
C285 C284 1.397 . S
C285 C286 1.385 . S
C286 H269 0.940 . S
C286 C285 1.385 . S
C286 C287 1.388 . S
C287 H266 0.939 . S
C287 C282 1.391 . S
C287 C286 1.388 . S
P288 O299 1.490 1_565 S
P288 C302 1.812 . S
P288 C308 1.803 . S
P288 C314 1.819 . S
H289 C303 0.941 . S
H290 C304 0.939 . S
H291 C306 0.940 . S
H292 C307 0.940 . S
H293 C309 0.939 . S
H294 C310 0.942 . S
H295 C312 0.940 . S
H296 C313 0.939 . S
H297 C315 0.941 . S
H298 C319 0.939 . S
O299 P288 1.490 1_545 S
H300 C316 0.939 . S
H301 C318 0.940 . S
C302 P288 1.812 . S
C302 C303 1.389 . S
C302 C307 1.391 . S
C303 H289 0.941 . S
C303 C302 1.389 . S
C303 C304 1.397 . S
C304 H290 0.939 . S
C304 C303 1.397 . S
C304 C305 1.378 . S
C305 C304 1.378 . S
C305 C306 1.378 . S
C306 H291 0.940 . S
C306 C305 1.378 . S
C306 C307 1.396 . S
C307 H292 0.940 . S
C307 C302 1.391 . S
C307 C306 1.396 . S
C308 P288 1.803 . S
C308 C309 1.378 1_565 S
C308 C313 1.400 . S
C309 H293 0.939 . S
C309 C308 1.378 1_545 S
C309 C310 1.361 . S
C310 H294 0.942 . S
C310 C309 1.361 . S
C310 C311 1.369 . S
C311 C310 1.369 . S
C311 C312 1.404 1_545 S
C312 H295 0.940 . S
C312 C311 1.404 1_565 S
C312 C313 1.389 . S
C313 H296 0.939 . S
C313 C308 1.400 . S
C313 C312 1.389 . S
C314 P288 1.819 . S
C314 C315 1.391 . S
C314 C319 1.391 . S
C315 H297 0.941 . S
C315 C314 1.391 . S
C315 C316 1.396 . S
C316 H300 0.939 . S
C316 C315 1.396 . S
C316 C317 1.397 . S
C317 C316 1.397 . S
C317 C318 1.385 . S
C318 H301 0.940 . S
C318 C317 1.385 . S
C318 C319 1.388 . S
C319 H298 0.939 . S
C319 C314 1.391 . S
C319 C318 1.388 . S
P320 O331 1.490 . S
P320 C334 1.812 . S
P320 C340 1.803 . S
P320 C346 1.819 . S
H321 C335 0.941 . S
H322 C336 0.939 . S
H323 C338 0.940 . S
H324 C339 0.940 . S
H325 C341 0.939 . S
H326 C342 0.942 . S
H327 C344 0.940 . S
H328 C345 0.939 . S
H329 C347 0.941 . S
H330 C351 0.939 . S
O331 P320 1.490 . S
H332 C348 0.939 . S
H333 C350 0.940 . S
C334 P320 1.812 . S
C334 C335 1.389 . S
C334 C339 1.391 . S
C335 H321 0.941 . S
C335 C334 1.389 . S
C335 C336 1.397 . S
C336 H322 0.939 . S
C336 C335 1.397 . S
C336 C337 1.378 . S
C337 C336 1.378 . S
C337 C338 1.378 . S
C338 H323 0.940 . S
C338 C337 1.378 . S
C338 C339 1.396 . S
C339 H324 0.940 . S
C339 C334 1.391 . S
C339 C338 1.396 . S
C340 P320 1.803 . S
C340 C341 1.378 . S
C340 C345 1.400 . S
C341 H325 0.939 . S
C341 C340 1.378 . S
C341 C342 1.361 . S
C342 H326 0.942 . S
C342 C341 1.361 . S
C342 C343 1.369 . S
C343 C342 1.369 . S
C343 C344 1.404 . S
C344 H327 0.940 . S
C344 C343 1.404 . S
C344 C345 1.389 . S
C345 H328 0.939 . S
C345 C340 1.400 . S
C345 C344 1.389 . S
C346 P320 1.819 . S
C346 C347 1.391 . S
C346 C351 1.391 . S
C347 H329 0.941 . S
C347 C346 1.391 . S
C347 C348 1.396 . S
C348 H332 0.939 . S
C348 C347 1.396 . S
C348 C349 1.397 . S
C349 C348 1.397 . S
C349 C350 1.385 . S
C350 H333 0.940 . S
C350 C349 1.385 . S
C350 C351 1.388 . S
C351 H330 0.939 . S
C351 C346 1.391 . S
C351 C350 1.388 . S
P352 O363 1.490 . S
P352 C366 1.812 . S
P352 C372 1.803 . S
P352 C378 1.819 . S
H353 C367 0.941 . S
H354 C368 0.939 . S
H355 C370 0.940 . S
H356 C371 0.940 . S
H357 C373 0.939 . S
H358 C374 0.942 . S
H359 C376 0.940 . S
H360 C377 0.939 . S
H361 C379 0.941 . S
H362 C383 0.939 . S
O363 P352 1.490 . S
H364 C380 0.939 . S
H365 C382 0.940 . S
C366 P352 1.812 . S
C366 C367 1.389 . S
C366 C371 1.391 . S
C367 H353 0.941 . S
C367 C366 1.389 . S
C367 C368 1.397 . S
C368 H354 0.939 . S
C368 C367 1.397 . S
C368 C369 1.378 . S
C369 C368 1.378 . S
C369 C370 1.378 . S
C370 H355 0.940 . S
C370 C369 1.378 . S
C370 C371 1.396 . S
C371 H356 0.940 . S
C371 C366 1.391 . S
C371 C370 1.396 . S
C372 P352 1.803 . S
C372 C373 1.378 . S
C372 C377 1.400 . S
C373 H357 0.939 . S
C373 C372 1.378 . S
C373 C374 1.361 . S
C374 H358 0.942 . S
C374 C373 1.361 . S
C374 C375 1.369 . S
C375 C374 1.369 . S
C375 C376 1.404 . S
C376 H359 0.940 . S
C376 C375 1.404 . S
C376 C377 1.389 . S
C377 H360 0.939 . S
C377 C372 1.400 . S
C377 C376 1.389 . S
C378 P352 1.819 . S
C378 C379 1.391 . S
C378 C383 1.391 . S
C379 H361 0.941 . S
C379 C378 1.391 . S
C379 C380 1.396 . S
C380 H364 0.939 . S
C380 C379 1.396 . S
C380 C381 1.397 . S
C381 C380 1.397 . S
C381 C382 1.385 . S
C382 H365 0.940 . S
C382 C381 1.385 . S
C382 C383 1.388 . S
C383 H362 0.939 . S
C383 C378 1.391 . S
C383 C382 1.388 . S
P384 O395 1.490 . S
P384 C398 1.812 . S
P384 C404 1.803 . S
P384 C410 1.819 . S
H385 C399 0.941 . S
H386 C400 0.939 . S
H387 C402 0.940 . S
H388 C403 0.940 . S
H389 C405 0.939 . S
H390 C406 0.942 . S
H391 C408 0.940 . S
H392 C409 0.939 . S
H393 C411 0.941 . S
H394 C415 0.939 . S
O395 P384 1.490 . S
H396 C412 0.939 . S
H397 C414 0.940 . S
C398 P384 1.812 . S
C398 C399 1.389 . S
C398 C403 1.391 . S
C399 H385 0.941 . S
C399 C398 1.389 . S
C399 C400 1.397 . S
C400 H386 0.939 . S
C400 C399 1.397 . S
C400 C401 1.378 . S
C401 C400 1.378 . S
C401 C402 1.378 . S
C402 H387 0.940 . S
C402 C401 1.378 . S
C402 C403 1.396 . S
C403 H388 0.940 . S
C403 C398 1.391 . S
C403 C402 1.396 . S
C404 P384 1.803 . S
C404 C405 1.378 . S
C404 C409 1.400 . S
C405 H389 0.939 . S
C405 C404 1.378 . S
C405 C406 1.361 . S
C406 H390 0.942 . S
C406 C405 1.361 . S
C406 C407 1.369 . S
C407 C406 1.369 . S
C407 C408 1.404 . S
C408 H391 0.940 . S
C408 C407 1.404 . S
C408 C409 1.389 . S
C409 H392 0.939 . S
C409 C404 1.400 . S
C409 C408 1.389 . S
C410 P384 1.819 . S
C410 C411 1.391 . S
C410 C415 1.391 . S
C411 H393 0.941 . S
C411 C410 1.391 . S
C411 C412 1.396 . S
C412 H396 0.939 . S
C412 C411 1.396 . S
C412 C413 1.397 . S
C413 C412 1.397 . S
C413 C414 1.385 . S
C414 H397 0.940 . S
C414 C413 1.385 . S
C414 C415 1.388 . S
C415 H394 0.939 . S
C415 C410 1.391 . S
C415 C414 1.388 . S
P416 O427 1.490 . S
P416 C430 1.812 . S
P416 C436 1.803 . S
P416 C442 1.819 . S
H417 C431 0.941 . S
H418 C432 0.939 . S
H419 C434 0.940 . S
H420 C435 0.940 . S
H421 C437 0.939 . S
H422 C438 0.942 . S
H423 C440 0.940 . S
H424 C441 0.939 . S
H425 C443 0.941 . S
H426 C447 0.939 . S
O427 P416 1.490 . S
H428 C444 0.939 . S
H429 C446 0.940 . S
C430 P416 1.812 . S
C430 C431 1.389 . S
C430 C435 1.391 . S
C431 H417 0.941 . S
C431 C430 1.389 . S
C431 C432 1.397 . S
C432 H418 0.939 . S
C432 C431 1.397 . S
C432 C433 1.378 . S
C433 C432 1.378 . S
C433 C434 1.378 . S
C434 H419 0.940 . S
C434 C433 1.378 . S
C434 C435 1.396 . S
C435 H420 0.940 . S
C435 C430 1.391 . S
C435 C434 1.396 . S
C436 P416 1.803 . S
C436 C437 1.378 . S
C436 C441 1.400 . S
C437 H421 0.939 . S
C437 C436 1.378 . S
C437 C438 1.361 . S
C438 H422 0.942 . S
C438 C437 1.361 . S
C438 C439 1.369 1_556 S
C439 C438 1.369 1_554 S
C439 C440 1.404 . S
C440 H423 0.940 . S
C440 C439 1.404 . S
C440 C441 1.389 1_554 S
C441 H424 0.939 . S
C441 C436 1.400 . S
C441 C440 1.389 1_556 S
C442 P416 1.819 . S
C442 C443 1.391 . S
C442 C447 1.391 . S
C443 H425 0.941 . S
C443 C442 1.391 . S
C443 C444 1.396 . S
C444 H428 0.939 . S
C444 C443 1.396 . S
C444 C445 1.397 . S
C445 C444 1.397 . S
C445 C446 1.385 . S
C446 H429 0.940 . S
C446 C445 1.385 . S
C446 C447 1.388 . S
C447 H426 0.939 . S
C447 C442 1.391 . S
C447 C446 1.388 . S
P448 O459 1.490 . S
P448 C462 1.812 . S
P448 C468 1.803 . S
P448 C474 1.819 . S
H449 C463 0.941 . S
H450 C464 0.939 . S
H451 C466 0.940 . S
H452 C467 0.940 . S
H453 C469 0.939 . S
H454 C470 0.942 . S
H455 C472 0.940 . S
H456 C473 0.939 . S
H457 C475 0.941 . S
H458 C479 0.939 . S
O459 P448 1.490 . S
H460 C476 0.939 . S
H461 C478 0.940 . S
C462 P448 1.812 . S
C462 C463 1.389 . S
C462 C467 1.391 . S
C463 H449 0.941 . S
C463 C462 1.389 . S
C463 C464 1.397 . S
C464 H450 0.939 . S
C464 C463 1.397 . S
C464 C465 1.378 . S
C465 C464 1.378 . S
C465 C466 1.378 . S
C466 H451 0.940 . S
C466 C465 1.378 . S
C466 C467 1.396 . S
C467 H452 0.940 . S
C467 C462 1.391 . S
C467 C466 1.396 . S
C468 P448 1.803 . S
C468 C469 1.378 . S
C468 C473 1.400 . S
C469 H453 0.939 . S
C469 C468 1.378 . S
C469 C470 1.361 . S
C470 H454 0.942 . S
C470 C469 1.361 . S
C470 C471 1.369 . S
C471 C470 1.369 . S
C471 C472 1.404 . S
C472 H455 0.940 . S
C472 C471 1.404 . S
C472 C473 1.389 . S
C473 H456 0.939 . S
C473 C468 1.400 . S
C473 C472 1.389 . S
C474 P448 1.819 . S
C474 C475 1.391 . S
C474 C479 1.391 . S
C475 H457 0.941 . S
C475 C474 1.391 . S
C475 C476 1.396 . S
C476 H460 0.939 . S
C476 C475 1.396 . S
C476 C477 1.397 . S
C477 C476 1.397 . S
C477 C478 1.385 . S
C478 H461 0.940 . S
C478 C477 1.385 . S
C478 C479 1.388 . S
C479 H458 0.939 . S
C479 C474 1.391 . S
C479 C478 1.388 . S
P480 O491 1.490 1_556 S
P480 C494 1.812 . S
P480 C500 1.803 1_556 S
P480 C506 1.819 . S
H481 C495 0.941 . S
H482 C496 0.939 . S
H483 C498 0.940 . S
H484 C499 0.940 . S
H485 C501 0.939 . S
H486 C502 0.942 . S
H487 C504 0.940 . S
H488 C505 0.939 . S
H489 C507 0.941 . S
H490 C511 0.939 . S
O491 P480 1.490 1_554 S
H492 C508 0.939 . S
H493 C510 0.940 . S
C494 P480 1.812 . S
C494 C495 1.389 . S
C494 C499 1.391 . S
C495 H481 0.941 . S
C495 C494 1.389 . S
C495 C496 1.397 . S
C496 H482 0.939 . S
C496 C495 1.397 . S
C496 C497 1.378 . S
C497 C496 1.378 . S
C497 C498 1.378 . S
C498 H483 0.940 . S
C498 C497 1.378 . S
C498 C499 1.396 . S
C499 H484 0.940 . S
C499 C494 1.391 . S
C499 C498 1.396 . S
C500 P480 1.803 1_554 S
C500 C501 1.378 . S
C500 C505 1.400 1_554 S
C501 H485 0.939 . S
C501 C500 1.378 . S
C501 C502 1.361 . S
C502 H486 0.942 . S
C502 C501 1.361 . S
C502 C503 1.369 . S
C503 C502 1.369 . S
C503 C504 1.404 1_554 S
C504 H487 0.940 . S
C504 C503 1.404 1_556 S
C504 C505 1.389 . S
C505 H488 0.939 . S
C505 C500 1.400 1_556 S
C505 C504 1.389 . S
C506 P480 1.819 . S
C506 C507 1.391 1_545 S
C506 C511 1.391 . S
C507 H489 0.941 . S
C507 C506 1.391 1_565 S
C507 C508 1.396 . S
C508 H492 0.939 . S
C508 C507 1.396 . S
C508 C509 1.397 . S
C509 C508 1.397 . S
C509 C510 1.385 1_565 S
C510 H493 0.940 . S
C510 C509 1.385 1_545 S
C510 C511 1.388 . S
C511 H490 0.939 . S
C511 C506 1.391 . S
C511 C510 1.388 . S
Mn512 O517 2.095 . S
Mn512 O527 2.162 . S
Mn512 O528 2.297 . S
Mn512 O536 2.385 1_554 S
Mn512 O537 2.209 1_554 S
Mn512 O538 2.094 . S
Mn513 O518 2.121 . S
Mn513 N520 2.257 . S
Mn513 N529 2.282 . S
Mn513 O537 2.215 . S
Mn513 O539 2.117 . S
C514 O536 1.234 . S
C514 O537 1.283 . S
C515 O527 1.281 . S
C515 O528 1.236 . S
C516 O538 1.240 . S
C516 O539 1.264 1_554 S
O517 Mn512 2.095 . S
O517 C526 1.251 . S
O518 Mn513 2.121 . S
O518 C526 1.257 1_556 S
C519 N520 1.326 . S
C519 C523 1.460 . S
C519 H525 0.929 . S
N520 Mn513 2.257 . S
N520 C519 1.326 . S
N520 C524 1.362 . S
C521 C522 1.258 . S
C521 C524 1.431 . S
C521 C541 1.449 . S
C522 C521 1.258 . S
C522 C523 1.477 . S
C522 H542 0.931 . S
C523 C519 1.460 . S
C523 C522 1.477 . S
C523 H543 0.930 . S
C524 N520 1.362 . S
C524 C521 1.431 . S
C524 C534 1.476 . S
H525 C519 0.929 . S
C526 O517 1.251 . S
C526 O518 1.257 1_554 S
O527 Mn512 2.162 . S
O527 C515 1.281 . S
O528 Mn512 2.297 . S
O528 C515 1.236 . S
N529 Mn513 2.282 . S
N529 C530 1.328 . S
N529 C534 1.318 . S
C530 N529 1.328 . S
C530 C531 1.457 . S
C530 H535 0.929 . S
C531 C530 1.457 . S
C531 C532 1.291 . S
C531 H544 0.931 . S
C532 C531 1.291 . S
C532 C533 1.373 . S
C532 H545 0.929 . S
C533 C532 1.373 . S
C533 C534 1.396 . S
C533 C540 1.403 . S
C534 C524 1.476 . S
C534 N529 1.318 . S
C534 C533 1.396 . S
H535 C530 0.929 . S
O536 Mn512 2.385 1_556 S
O536 C514 1.234 . S
O537 Mn512 2.209 1_556 S
O537 Mn513 2.215 . S
O537 C514 1.283 . S
O538 Mn512 2.094 . S
O538 C516 1.240 . S
O539 Mn513 2.117 . S
O539 C516 1.264 1_556 S
C540 C533 1.403 . S
C540 C541 1.399 . S
C540 H546 0.929 . S
C541 C521 1.449 . S
C541 C540 1.399 . S
C541 H547 0.930 . S
H542 C522 0.931 . S
H543 C523 0.930 . S
H544 C531 0.931 . S
H545 C532 0.929 . S
H546 C540 0.929 . S
H547 C541 0.930 . S
Mn548 O553 2.095 . S
Mn548 O563 2.162 . S
Mn548 O564 2.297 . S
Mn548 O572 2.385 . S
Mn548 O573 2.209 . S
Mn548 O574 2.094 . S
Mn549 O554 2.121 . S
Mn549 N556 2.257 . S
Mn549 N565 2.282 . S
Mn549 O573 2.215 . S
Mn549 O575 2.117 . S
C550 O572 1.234 . S
C550 O573 1.283 . S
C551 O563 1.281 . S
C551 O564 1.236 . S
C552 O574 1.240 . S
C552 O575 1.264 . S
O553 Mn548 2.095 . S
O553 C562 1.250 . S
O554 Mn549 2.121 . S
O554 C562 1.258 . S
C555 N556 1.326 . S
C555 C559 1.460 . S
C555 H561 0.929 . S
N556 Mn549 2.257 . S
N556 C555 1.326 . S
N556 C560 1.362 . S
C557 C558 1.258 . S
C557 C560 1.431 . S
C557 C577 1.449 . S
C558 C557 1.258 . S
C558 C559 1.477 . S
C558 H578 0.931 . S
C559 C555 1.460 . S
C559 C558 1.477 . S
C559 H579 0.930 . S
C560 N556 1.362 . S
C560 C557 1.431 . S
C560 C570 1.476 . S
H561 C555 0.929 . S
C562 O553 1.250 . S
C562 O554 1.258 . S
O563 Mn548 2.162 . S
O563 C551 1.281 . S
O564 Mn548 2.297 . S
O564 C551 1.236 . S
N565 Mn549 2.282 . S
N565 C566 1.328 . S
N565 C570 1.318 . S
C566 N565 1.328 . S
C566 C567 1.457 . S
C566 H571 0.929 . S
C567 C566 1.457 . S
C567 C568 1.291 . S
C567 H580 0.931 . S
C568 C567 1.291 . S
C568 C569 1.373 . S
C568 H581 0.929 . S
C569 C568 1.373 . S
C569 C570 1.396 . S
C569 C576 1.403 . S
C570 C560 1.476 . S
C570 N565 1.318 . S
C570 C569 1.396 . S
H571 C566 0.929 . S
O572 Mn548 2.385 . S
O572 C550 1.234 . S
O573 Mn548 2.209 . S
O573 Mn549 2.215 . S
O573 C550 1.283 . S
O574 Mn548 2.094 . S
O574 C552 1.240 . S
O575 Mn549 2.117 . S
O575 C552 1.264 . S
C576 C569 1.403 . S
C576 C577 1.399 . S
C576 H582 0.929 . S
C577 C557 1.449 . S
C577 C576 1.399 . S
C577 H583 0.930 . S
H578 C558 0.931 . S
H579 C559 0.930 . S
H580 C567 0.931 . S
H581 C568 0.929 . S
H582 C576 0.929 . S
H583 C577 0.930 . S
Mn584 O589 2.095 1_554 S
Mn584 O599 2.162 . S
Mn584 O600 2.297 1_554 S
Mn584 O608 2.385 . S
Mn584 O609 2.209 1_554 S
Mn584 O610 2.094 . S
Mn585 O590 2.121 . S
Mn585 N592 2.257 . S
Mn585 N601 2.282 . S
Mn585 O609 2.215 . S
Mn585 O611 2.117 1_556 S
C586 O608 1.218 1_556 S
C586 O609 1.294 . S
C587 O599 1.281 . S
C587 O600 1.236 1_554 S
C588 O610 1.240 . S
C588 O611 1.264 . S
O589 Mn584 2.095 1_556 S
O589 C598 1.250 . S
O590 Mn585 2.121 . S
O590 C598 1.258 . S
C591 N592 1.326 . S
C591 C595 1.460 . S
C591 H597 0.929 . S
N592 Mn585 2.257 . S
N592 C591 1.326 . S
N592 C596 1.362 . S
C593 C594 1.258 . S
C593 C596 1.431 . S
C593 C613 1.449 . S
C594 C593 1.258 . S
C594 C595 1.477 . S
C594 H614 0.931 . S
C595 C591 1.460 . S
C595 C594 1.477 . S
C595 H615 0.930 . S
C596 N592 1.362 . S
C596 C593 1.431 . S
C596 C606 1.476 . S
H597 C591 0.929 . S
C598 O589 1.250 . S
C598 O590 1.258 . S
O599 Mn584 2.162 . S
O599 C587 1.281 . S
O600 Mn584 2.297 1_556 S
O600 C587 1.236 1_556 S
N601 Mn585 2.282 . S
N601 C602 1.328 1_556 S
N601 C606 1.318 . S
C602 N601 1.328 1_554 S
C602 C603 1.457 . S
C602 H607 0.929 . S
C603 C602 1.457 . S
C603 C604 1.291 . S
C603 H616 0.931 . S
C604 C603 1.291 . S
C604 C605 1.373 1_554 S
C604 H617 0.929 . S
C605 C604 1.373 1_556 S
C605 C606 1.396 . S
C605 C612 1.403 . S
C606 C596 1.476 . S
C606 N601 1.318 . S
C606 C605 1.396 . S
H607 C602 0.929 . S
O608 Mn584 2.385 . S
O608 C586 1.218 1_554 S
O609 Mn584 2.209 1_556 S
O609 Mn585 2.215 . S
O609 C586 1.294 . S
O610 Mn584 2.094 . S
O610 C588 1.240 . S
O611 Mn585 2.117 1_554 S
O611 C588 1.264 . S
C612 C605 1.403 . S
C612 C613 1.399 . S
C612 H618 0.929 . S
C613 C593 1.449 . S
C613 C612 1.399 . S
C613 H619 0.930 . S
H614 C594 0.931 . S
H615 C595 0.930 . S
H616 C603 0.931 . S
H617 C604 0.929 . S
H618 C612 0.929 . S
H619 C613 0.930 . S
Mn620 O625 2.095 . S
Mn620 O635 2.162 . S
Mn620 O636 2.297 . S
Mn620 O644 2.385 1_545 S
Mn620 O645 2.209 1_545 S
Mn620 O646 2.094 . S
Mn621 O626 2.121 . S
Mn621 N628 2.257 . S
Mn621 N637 2.282 . S
Mn621 O645 2.215 . S
Mn621 O647 2.117 . S
C622 O644 1.234 . S
C622 O645 1.283 . S
C623 O635 1.281 . S
C623 O636 1.236 . S
C624 O646 1.240 . S
C624 O647 1.264 1_545 S
O625 Mn620 2.095 . S
O625 C634 1.248 . S
O626 Mn621 2.121 . S
O626 C634 1.261 1_565 S
C627 N628 1.326 . S
C627 C631 1.460 . S
C627 H633 0.929 . S
N628 Mn621 2.257 . S
N628 C627 1.326 . S
N628 C632 1.362 . S
C629 C630 1.258 . S
C629 C632 1.431 . S
C629 C649 1.449 . S
C630 C629 1.258 . S
C630 C631 1.477 . S
C630 H650 0.931 . S
C631 C627 1.460 . S
C631 C630 1.477 . S
C631 H651 0.930 . S
C632 N628 1.362 . S
C632 C629 1.431 . S
C632 C642 1.476 . S
H633 C627 0.929 . S
C634 O625 1.248 . S
C634 O626 1.261 1_545 S
O635 Mn620 2.162 . S
O635 C623 1.281 . S
O636 Mn620 2.297 . S
O636 C623 1.236 . S
N637 Mn621 2.282 . S
N637 C638 1.328 . S
N637 C642 1.318 . S
C638 N637 1.328 . S
C638 C639 1.457 . S
C638 H643 0.929 . S
C639 C638 1.457 . S
C639 C640 1.291 . S
C639 H652 0.931 . S
C640 C639 1.291 . S
C640 C641 1.373 . S
C640 H653 0.929 . S
C641 C640 1.373 . S
C641 C642 1.396 . S
C641 C648 1.403 . S
C642 C632 1.476 . S
C642 N637 1.318 . S
C642 C641 1.396 . S
H643 C638 0.929 . S
O644 Mn620 2.385 1_565 S
O644 C622 1.234 . S
O645 Mn620 2.209 1_565 S
O645 Mn621 2.215 . S
O645 C622 1.283 . S
O646 Mn620 2.094 . S
O646 C624 1.240 . S
O647 Mn621 2.117 . S
O647 C624 1.264 1_565 S
C648 C641 1.403 . S
C648 C649 1.399 . S
C648 H654 0.929 . S
C649 C629 1.449 . S
C649 C648 1.399 . S
C649 H655 0.930 . S
H650 C630 0.931 . S
H651 C631 0.930 . S
H652 C639 0.931 . S
H653 C640 0.929 . S
H654 C648 0.929 . S
H655 C649 0.930 . S
Mn656 O661 2.095 . S
Mn656 O671 2.162 . S
Mn656 O672 2.297 . S
Mn656 O680 2.385 . S
Mn656 O681 2.209 . S
Mn656 O682 2.094 . S
Mn657 O662 2.121 . S
Mn657 N664 2.257 . S
Mn657 N673 2.282 . S
Mn657 O681 2.215 . S
Mn657 O683 2.117 . S
C658 O680 1.234 . S
C658 O681 1.283 . S
C659 O671 1.281 . S
C659 O672 1.236 . S
C660 O682 1.240 . S
C660 O683 1.264 . S
O661 Mn656 2.095 . S
O661 C670 1.250 . S
O662 Mn657 2.121 . S
O662 C670 1.258 . S
C663 N664 1.326 . S
C663 C667 1.460 . S
C663 H669 0.929 . S
N664 Mn657 2.257 . S
N664 C663 1.326 . S
N664 C668 1.362 . S
C665 C666 1.258 . S
C665 C668 1.431 . S
C665 C685 1.449 . S
C666 C665 1.258 . S
C666 C667 1.477 . S
C666 H686 0.931 . S
C667 C663 1.460 . S
C667 C666 1.477 . S
C667 H687 0.930 . S
C668 N664 1.362 . S
C668 C665 1.431 . S
C668 C678 1.476 . S
H669 C663 0.929 . S
C670 O661 1.250 . S
C670 O662 1.258 . S
O671 Mn656 2.162 . S
O671 C659 1.281 . S
O672 Mn656 2.297 . S
O672 C659 1.236 . S
N673 Mn657 2.282 . S
N673 C674 1.328 . S
N673 C678 1.318 . S
C674 N673 1.328 . S
C674 C675 1.457 . S
C674 H679 0.929 . S
C675 C674 1.457 . S
C675 C676 1.291 . S
C675 H688 0.931 . S
C676 C675 1.291 . S
C676 C677 1.373 . S
C676 H689 0.929 . S
C677 C676 1.373 . S
C677 C678 1.396 . S
C677 C684 1.403 . S
C678 C668 1.476 . S
C678 N673 1.318 . S
C678 C677 1.396 . S
H679 C674 0.929 . S
O680 Mn656 2.385 . S
O680 C658 1.234 . S
O681 Mn656 2.209 . S
O681 Mn657 2.215 . S
O681 C658 1.283 . S
O682 Mn656 2.094 . S
O682 C660 1.240 . S
O683 Mn657 2.117 . S
O683 C660 1.264 . S
C684 C677 1.403 . S
C684 C685 1.399 . S
C684 H690 0.929 . S
C685 C665 1.449 . S
C685 C684 1.399 . S
C685 H691 0.930 . S
H686 C666 0.931 . S
H687 C667 0.930 . S
H688 C675 0.931 . S
H689 C676 0.929 . S
H690 C684 0.929 . S
H691 C685 0.930 . S
Mn692 O697 2.095 . S
Mn692 O707 2.162 . S
Mn692 O708 2.297 . S
Mn692 O716 2.385 . S
Mn692 O717 2.209 . S
Mn692 O718 2.094 . S
Mn693 O698 2.121 . S
Mn693 N700 2.257 . S
Mn693 N709 2.282 . S
Mn693 O717 2.215 . S
Mn693 O719 2.117 . S
C694 O716 1.234 . S
C694 O717 1.283 . S
C695 O707 1.281 . S
C695 O708 1.236 . S
C696 O718 1.240 . S
C696 O719 1.264 . S
O697 Mn692 2.095 . S
O697 C706 1.250 . S
O698 Mn693 2.121 . S
O698 C706 1.258 . S
C699 N700 1.326 . S
C699 C703 1.460 . S
C699 H705 0.929 . S
N700 Mn693 2.257 . S
N700 C699 1.326 . S
N700 C704 1.362 . S
C701 C702 1.258 . S
C701 C704 1.431 . S
C701 C721 1.449 . S
C702 C701 1.258 . S
C702 C703 1.477 . S
C702 H722 0.931 . S
C703 C699 1.460 . S
C703 C702 1.477 . S
C703 H723 0.930 . S
C704 N700 1.362 . S
C704 C701 1.431 . S
C704 C714 1.476 . S
H705 C699 0.929 . S
C706 O697 1.250 . S
C706 O698 1.258 . S
O707 Mn692 2.162 . S
O707 C695 1.281 . S
O708 Mn692 2.297 . S
O708 C695 1.236 . S
N709 Mn693 2.282 . S
N709 C710 1.328 . S
N709 C714 1.318 . S
C710 N709 1.328 . S
C710 C711 1.457 . S
C710 H715 0.929 . S
C711 C710 1.457 . S
C711 C712 1.291 . S
C711 H724 0.931 . S
C712 C711 1.291 . S
C712 C713 1.373 . S
C712 H725 0.929 . S
C713 C712 1.373 . S
C713 C714 1.396 . S
C713 C720 1.403 . S
C714 C704 1.476 . S
C714 N709 1.318 . S
C714 C713 1.396 . S
H715 C710 0.929 . S
O716 Mn692 2.385 . S
O716 C694 1.234 . S
O717 Mn692 2.209 . S
O717 Mn693 2.215 . S
O717 C694 1.283 . S
O718 Mn692 2.094 . S
O718 C696 1.240 . S
O719 Mn693 2.117 . S
O719 C696 1.264 . S
C720 C713 1.403 . S
C720 C721 1.399 . S
C720 H726 0.929 . S
C721 C701 1.449 . S
C721 C720 1.399 . S
C721 H727 0.930 . S
H722 C702 0.931 . S
H723 C703 0.930 . S
H724 C711 0.931 . S
H725 C712 0.929 . S
H726 C720 0.929 . S
H727 C721 0.930 . S
Mn728 O733 2.095 . S
Mn728 O743 2.162 . S
Mn728 O744 2.297 . S
Mn728 O752 2.385 . S
Mn728 O753 2.209 . S
Mn728 O754 2.094 . S
Mn729 O734 2.121 . S
Mn729 N736 2.257 . S
Mn729 N745 2.282 . S
Mn729 O753 2.215 . S
Mn729 O755 2.117 . S
C730 O752 1.234 . S
C730 O753 1.283 . S
C731 O743 1.281 . S
C731 O744 1.236 . S
C732 O754 1.240 . S
C732 O755 1.264 . S
O733 Mn728 2.095 . S
O733 C742 1.250 . S
O734 Mn729 2.121 . S
O734 C742 1.258 . S
C735 N736 1.326 . S
C735 C739 1.460 . S
C735 H741 0.929 . S
N736 Mn729 2.257 . S
N736 C735 1.326 . S
N736 C740 1.362 . S
C737 C738 1.258 . S
C737 C740 1.431 . S
C737 C757 1.449 . S
C738 C737 1.258 . S
C738 C739 1.477 . S
C738 H758 0.931 . S
C739 C735 1.460 . S
C739 C738 1.477 . S
C739 H759 0.930 . S
C740 N736 1.362 . S
C740 C737 1.431 . S
C740 C750 1.476 . S
H741 C735 0.929 . S
C742 O733 1.250 . S
C742 O734 1.258 . S
O743 Mn728 2.162 . S
O743 C731 1.281 . S
O744 Mn728 2.297 . S
O744 C731 1.236 . S
N745 Mn729 2.282 . S
N745 C746 1.328 . S
N745 C750 1.318 . S
C746 N745 1.328 . S
C746 C747 1.457 . S
C746 H751 0.929 . S
C747 C746 1.457 . S
C747 C748 1.291 . S
C747 H760 0.931 . S
C748 C747 1.291 . S
C748 C749 1.373 . S
C748 H761 0.929 . S
C749 C748 1.373 . S
C749 C750 1.396 . S
C749 C756 1.403 . S
C750 C740 1.476 . S
C750 N745 1.318 . S
C750 C749 1.396 . S
H751 C746 0.929 . S
O752 Mn728 2.385 . S
O752 C730 1.234 . S
O753 Mn728 2.209 . S
O753 Mn729 2.215 . S
O753 C730 1.283 . S
O754 Mn728 2.094 . S
O754 C732 1.240 . S
O755 Mn729 2.117 . S
O755 C732 1.264 . S
C756 C749 1.403 . S
C756 C757 1.399 . S
C756 H762 0.929 . S
C757 C737 1.449 . S
C757 C756 1.399 . S
C757 H763 0.930 . S
H758 C738 0.931 . S
H759 C739 0.930 . S
H760 C747 0.931 . S
H761 C748 0.929 . S
H762 C756 0.929 . S
H763 C757 0.930 . S
Mn764 O769 2.095 . S
Mn764 O779 2.162 . S
Mn764 O780 2.297 . S
Mn764 O788 2.385 1_565 S
Mn764 O789 2.209 1_565 S
Mn764 O790 2.094 . S
Mn765 O770 2.121 . S
Mn765 N772 2.257 . S
Mn765 N781 2.282 . S
Mn765 O789 2.215 . S
Mn765 O791 2.117 . S
C766 O788 1.234 . S
C766 O789 1.283 . S
C767 O779 1.281 . S
C767 O780 1.236 . S
C768 O790 1.207 1_545 S
C768 O791 1.307 . S
O769 Mn764 2.095 . S
O769 C778 1.250 1_565 S
O770 Mn765 2.121 . S
O770 C778 1.258 . S
C771 N772 1.326 . S
C771 C775 1.460 . S
C771 H777 0.929 . S
N772 Mn765 2.257 . S
N772 C771 1.326 . S
N772 C776 1.362 . S
C773 C774 1.258 . S
C773 C776 1.431 . S
C773 C793 1.449 . S
C774 C773 1.258 . S
C774 C775 1.477 . S
C774 H794 0.931 . S
C775 C771 1.460 . S
C775 C774 1.477 . S
C775 H795 0.930 . S
C776 N772 1.362 . S
C776 C773 1.431 . S
C776 C786 1.476 . S
H777 C771 0.929 . S
C778 O769 1.250 1_545 S
C778 O770 1.258 . S
O779 Mn764 2.162 . S
O779 C767 1.281 . S
O780 Mn764 2.297 . S
O780 C767 1.236 . S
N781 Mn765 2.282 . S
N781 C782 1.328 . S
N781 C786 1.318 . S
C782 N781 1.328 . S
C782 C783 1.457 . S
C782 H787 0.929 . S
C783 C782 1.457 . S
C783 C784 1.291 . S
C783 H796 0.931 . S
C784 C783 1.291 . S
C784 C785 1.373 . S
C784 H797 0.929 . S
C785 C784 1.373 . S
C785 C786 1.396 . S
C785 C792 1.403 . S
C786 C776 1.476 . S
C786 N781 1.318 . S
C786 C785 1.396 . S
H787 C782 0.929 . S
O788 Mn764 2.385 1_545 S
O788 C766 1.234 . S
O789 Mn764 2.209 1_545 S
O789 Mn765 2.215 . S
O789 C766 1.283 . S
O790 Mn764 2.094 . S
O790 C768 1.207 1_565 S
O791 Mn765 2.117 . S
O791 C768 1.307 . S
C792 C785 1.403 . S
C792 C793 1.399 . S
C792 H798 0.929 . S
C793 C773 1.449 . S
C793 C792 1.399 . S
C793 H799 0.930 . S
H794 C774 0.931 . S
H795 C775 0.930 . S
H796 C783 0.931 . S
H797 C784 0.929 . S
H798 C792 0.929 . S
H799 C793 0.930 . S
Mn800 O805 2.095 . S
Mn800 O815 2.162 . S
Mn800 O816 2.297 . S
Mn800 O824 2.385 1_455 S
Mn800 O825 2.209 1_455 S
Mn800 O826 2.094 . S
Mn801 O806 2.121 . S
Mn801 N808 2.257 . S
Mn801 N817 2.282 . S
Mn801 O825 2.215 . S
Mn801 O827 2.117 . S
C802 O824 1.234 . S
C802 O825 1.283 . S
C803 O815 1.281 . S
C803 O816 1.236 . S
C804 O826 1.240 . S
C804 O827 1.264 1_455 S
O805 Mn800 2.095 . S
O805 C814 1.237 1_455 S
O806 Mn801 2.121 . S
O806 C814 1.274 . S
C807 N808 1.326 . S
C807 C811 1.460 . S
C807 H813 0.929 . S
N808 Mn801 2.257 . S
N808 C807 1.326 . S
N808 C812 1.362 . S
C809 C810 1.258 . S
C809 C812 1.431 . S
C809 C829 1.449 . S
C810 C809 1.258 . S
C810 C811 1.477 . S
C810 H830 0.931 . S
C811 C807 1.460 . S
C811 C810 1.477 . S
C811 H831 0.930 . S
C812 N808 1.362 . S
C812 C809 1.431 . S
C812 C822 1.476 . S
H813 C807 0.929 . S
C814 O805 1.237 1_655 S
C814 O806 1.274 . S
O815 Mn800 2.162 . S
O815 C803 1.281 . S
O816 Mn800 2.297 . S
O816 C803 1.236 . S
N817 Mn801 2.282 . S
N817 C818 1.328 . S
N817 C822 1.318 . S
C818 N817 1.328 . S
C818 C819 1.457 . S
C818 H823 0.929 . S
C819 C818 1.457 . S
C819 C820 1.291 . S
C819 H832 0.931 . S
C820 C819 1.291 . S
C820 C821 1.373 . S
C820 H833 0.929 . S
C821 C820 1.373 . S
C821 C822 1.396 . S
C821 C828 1.403 . S
C822 C812 1.476 . S
C822 N817 1.318 . S
C822 C821 1.396 . S
H823 C818 0.929 . S
O824 Mn800 2.385 1_655 S
O824 C802 1.234 . S
O825 Mn800 2.209 1_655 S
O825 Mn801 2.215 . S
O825 C802 1.283 . S
O826 Mn800 2.094 . S
O826 C804 1.240 . S
O827 Mn801 2.117 . S
O827 C804 1.264 1_655 S
C828 C821 1.403 . S
C828 C829 1.399 . S
C828 H834 0.929 . S
C829 C809 1.449 . S
C829 C828 1.399 . S
C829 H835 0.930 . S
H830 C810 0.931 . S
H831 C811 0.930 . S
H832 C819 0.931 . S
H833 C820 0.929 . S
H834 C828 0.929 . S
H835 C829 0.930 . S
Mn836 O841 2.095 . S
Mn836 O851 2.162 . S
Mn836 O852 2.297 . S
Mn836 O860 2.385 . S
Mn836 O861 2.209 . S
Mn836 O862 2.094 . S
Mn837 O842 2.121 . S
Mn837 N844 2.257 . S
Mn837 N853 2.282 . S
Mn837 O861 2.215 . S
Mn837 O863 2.117 . S
C838 O860 1.234 . S
C838 O861 1.283 . S
C839 O851 1.281 . S
C839 O852 1.236 . S
C840 O862 1.240 . S
C840 O863 1.264 . S
O841 Mn836 2.095 . S
O841 C850 1.250 . S
O842 Mn837 2.121 . S
O842 C850 1.258 . S
C843 N844 1.326 . S
C843 C847 1.460 . S
C843 H849 0.929 . S
N844 Mn837 2.257 . S
N844 C843 1.326 . S
N844 C848 1.362 . S
C845 C846 1.258 . S
C845 C848 1.431 . S
C845 C865 1.449 . S
C846 C845 1.258 . S
C846 C847 1.477 . S
C846 H866 0.931 . S
C847 C843 1.460 . S
C847 C846 1.477 . S
C847 H867 0.930 . S
C848 N844 1.362 . S
C848 C845 1.431 . S
C848 C858 1.476 . S
H849 C843 0.929 . S
C850 O841 1.250 . S
C850 O842 1.258 . S
O851 Mn836 2.162 . S
O851 C839 1.281 . S
O852 Mn836 2.297 . S
O852 C839 1.236 . S
N853 Mn837 2.282 . S
N853 C854 1.328 . S
N853 C858 1.318 . S
C854 N853 1.328 . S
C854 C855 1.457 . S
C854 H859 0.929 . S
C855 C854 1.457 . S
C855 C856 1.291 . S
C855 H868 0.931 . S
C856 C855 1.291 . S
C856 C857 1.373 . S
C856 H869 0.929 . S
C857 C856 1.373 . S
C857 C858 1.396 . S
C857 C864 1.403 . S
C858 C848 1.476 . S
C858 N853 1.318 . S
C858 C857 1.396 . S
H859 C854 0.929 . S
O860 Mn836 2.385 . S
O860 C838 1.234 . S
O861 Mn836 2.209 . S
O861 Mn837 2.215 . S
O861 C838 1.283 . S
O862 Mn836 2.094 . S
O862 C840 1.240 . S
O863 Mn837 2.117 . S
O863 C840 1.264 . S
C864 C857 1.403 . S
C864 C865 1.399 . S
C864 H870 0.929 . S
C865 C845 1.449 . S
C865 C864 1.399 . S
C865 H871 0.930 . S
H866 C846 0.931 . S
H867 C847 0.930 . S
H868 C855 0.931 . S
H869 C856 0.929 . S
H870 C864 0.929 . S
H871 C865 0.930 . S
Mn872 O877 2.095 1_455 S
Mn872 O887 2.162 . S
Mn872 O888 2.297 1_455 S
Mn872 O896 2.385 . S
Mn872 O897 2.209 1_455 S
Mn872 O898 2.094 . S
Mn873 O878 2.121 . S
Mn873 N880 2.257 . S
Mn873 N889 2.273 1_655 S
Mn873 O897 2.215 . S
Mn873 O899 2.117 1_655 S
C874 O896 1.234 . S
C874 O897 1.283 1_455 S
C875 O887 1.281 . S
C875 O888 1.236 1_455 S
C876 O898 1.240 . S
C876 O899 1.264 . S
O877 Mn872 2.095 1_655 S
O877 C886 1.250 . S
O878 Mn873 2.121 . S
O878 C886 1.258 . S
C879 N880 1.326 . S
C879 C883 1.460 . S
C879 H885 0.929 . S
N880 Mn873 2.257 . S
N880 C879 1.326 . S
N880 C884 1.362 . S
C881 C882 1.258 . S
C881 C884 1.431 . S
C881 C901 1.449 . S
C882 C881 1.258 . S
C882 C883 1.477 . S
C882 H902 0.931 . S
C883 C879 1.460 . S
C883 C882 1.477 . S
C883 H903 0.930 . S
C884 N880 1.362 . S
C884 C881 1.431 . S
C884 C894 1.476 . S
H885 C879 0.929 . S
C886 O877 1.250 . S
C886 O878 1.258 . S
O887 Mn872 2.162 . S
O887 C875 1.281 . S
O888 Mn872 2.297 1_655 S
O888 C875 1.236 1_655 S
N889 Mn873 2.273 1_455 S
N889 C890 1.350 . S
N889 C894 1.303 1_455 S
C890 N889 1.350 . S
C890 C891 1.457 . S
C890 H895 0.929 . S
C891 C890 1.457 . S
C891 C892 1.291 . S
C891 H904 0.931 . S
C892 C891 1.291 . S
C892 C893 1.373 1_455 S
C892 H905 0.929 . S
C893 C892 1.373 1_655 S
C893 C894 1.396 . S
C893 C900 1.403 . S
C894 C884 1.476 . S
C894 N889 1.303 1_655 S
C894 C893 1.396 . S
H895 C890 0.929 . S
O896 Mn872 2.385 . S
O896 C874 1.234 . S
O897 Mn872 2.209 1_655 S
O897 Mn873 2.215 . S
O897 C874 1.283 1_655 S
O898 Mn872 2.094 . S
O898 C876 1.240 . S
O899 Mn873 2.117 1_455 S
O899 C876 1.264 . S
C900 C893 1.403 . S
C900 C901 1.399 . S
C900 H906 0.929 . S
C901 C881 1.449 . S
C901 C900 1.399 . S
C901 H907 0.930 . S
H902 C882 0.931 . S
H903 C883 0.930 . S
H904 C891 0.931 . S
H905 C892 0.929 . S
H906 C900 0.929 . S
H907 C901 0.930 . S
Mn908 O913 2.095 . S
Mn908 O923 2.162 . S
Mn908 O924 2.297 . S
Mn908 O932 2.385 . S
Mn908 O933 2.209 . S
Mn908 O934 2.094 . S
Mn909 O914 2.121 . S
Mn909 N916 2.257 . S
Mn909 N925 2.282 . S
Mn909 O933 2.215 . S
Mn909 O935 2.117 . S
C910 O932 1.234 . S
C910 O933 1.283 . S
C911 O923 1.281 . S
C911 O924 1.236 . S
C912 O934 1.240 . S
C912 O935 1.264 . S
O913 Mn908 2.095 . S
O913 C922 1.250 . S
O914 Mn909 2.121 . S
O914 C922 1.258 . S
C915 N916 1.326 . S
C915 C919 1.460 . S
C915 H921 0.929 . S
N916 Mn909 2.257 . S
N916 C915 1.326 . S
N916 C920 1.362 . S
C917 C918 1.258 . S
C917 C920 1.431 . S
C917 C937 1.449 . S
C918 C917 1.258 . S
C918 C919 1.477 . S
C918 H938 0.931 . S
C919 C915 1.460 . S
C919 C918 1.477 . S
C919 H939 0.930 . S
C920 N916 1.362 . S
C920 C917 1.431 . S
C920 C930 1.476 . S
H921 C915 0.929 . S
C922 O913 1.250 . S
C922 O914 1.258 . S
O923 Mn908 2.162 . S
O923 C911 1.281 . S
O924 Mn908 2.297 . S
O924 C911 1.236 . S
N925 Mn909 2.282 . S
N925 C926 1.328 . S
N925 C930 1.318 . S
C926 N925 1.328 . S
C926 C927 1.457 . S
C926 H931 0.929 . S
C927 C926 1.457 . S
C927 C928 1.291 . S
C927 H940 0.931 . S
C928 C927 1.291 . S
C928 C929 1.373 . S
C928 H941 0.929 . S
C929 C928 1.373 . S
C929 C930 1.396 . S
C929 C936 1.403 . S
C930 C920 1.476 . S
C930 N925 1.318 . S
C930 C929 1.396 . S
H931 C926 0.929 . S
O932 Mn908 2.385 . S
O932 C910 1.234 . S
O933 Mn908 2.209 . S
O933 Mn909 2.215 . S
O933 C910 1.283 . S
O934 Mn908 2.094 . S
O934 C912 1.240 . S
O935 Mn909 2.117 . S
O935 C912 1.264 . S
C936 C929 1.403 . S
C936 C937 1.399 . S
C936 H942 0.929 . S
C937 C917 1.449 . S
C937 C936 1.399 . S
C937 H943 0.930 . S
H938 C918 0.931 . S
H939 C919 0.930 . S
H940 C927 0.931 . S
H941 C928 0.929 . S
H942 C936 0.929 . S
H943 C937 0.930 . S
C944 C945 1.391 . S
C944 C946 1.394 . S
C944 H960 0.931 . S
C945 C944 1.391 . S
C945 C949 1.376 . S
C946 C944 1.394 . S
C946 C947 1.369 . S
C946 C950 1.531 . S
C947 C946 1.369 . S
C947 C948 1.410 . S
C947 C955 1.503 . S
C948 C947 1.410 . S
C948 C949 1.392 . S
C948 C951 1.511 . S
C949 C945 1.376 . S
C949 C948 1.392 . S
C949 H961 0.929 . S
C950 C946 1.531 . S
C950 H962 0.960 . S
C950 H963 0.962 . S
C950 H964 0.960 . S
C951 C948 1.511 . S
C951 H965 0.961 . S
C951 H966 0.961 . S
C951 H967 0.961 . S
C952 C953 1.370 . S
C952 C954 1.363 . S
C952 H968 0.931 . S
C953 C952 1.370 . S
C953 C957 1.408 . S
C954 C952 1.363 . S
C954 C955 1.370 . S
C954 C958 1.524 . S
C955 C947 1.503 . S
C955 C954 1.370 . S
C955 C956 1.403 . S
C956 C955 1.403 . S
C956 C957 1.404 . S
C956 C959 1.539 . S
C957 C953 1.408 . S
C957 C956 1.404 . S
C957 H969 0.930 . S
C958 C954 1.524 . S
C958 H970 0.956 . S
C958 H971 0.961 . S
C958 H972 0.961 . S
C959 C956 1.539 . S
C959 H973 0.958 . S
C959 H974 0.961 . S
C959 H975 0.960 . S
H960 C944 0.931 . S
H961 C949 0.929 . S
H962 C950 0.960 . S
H963 C950 0.962 . S
H964 C950 0.960 . S
H965 C951 0.961 . S
H966 C951 0.961 . S
H967 C951 0.961 . S
H968 C952 0.931 . S
H969 C957 0.930 . S
H970 C958 0.956 . S
H971 C958 0.961 . S
H972 C958 0.961 . S
H973 C959 0.958 . S
H974 C959 0.961 . S
H975 C959 0.960 . S
C976 C977 1.391 . S
C976 C978 1.394 . S
C976 H992 0.931 . S
C977 C976 1.391 . S
C977 C981 1.376 . S
C978 C976 1.394 . S
C978 C979 1.369 . S
C978 C982 1.531 . S
C979 C978 1.369 . S
C979 C980 1.410 . S
C979 C987 1.503 . S
C980 C979 1.410 . S
C980 C981 1.392 . S
C980 C983 1.511 . S
C981 C977 1.376 . S
C981 C980 1.392 . S
C981 H993 0.929 . S
C982 C978 1.531 . S
C982 H994 0.960 . S
C982 H995 0.962 . S
C982 H996 0.960 . S
C983 C980 1.511 . S
C983 H997 0.961 . S
C983 H998 0.961 . S
C983 H999 0.961 . S
C984 C985 1.370 . S
C984 C986 1.363 . S
C984 H1000 0.931 . S
C985 C984 1.370 . S
C985 C989 1.408 . S
C986 C984 1.363 . S
C986 C987 1.370 . S
C986 C990 1.524 . S
C987 C979 1.503 . S
C987 C986 1.370 . S
C987 C988 1.403 . S
C988 C987 1.403 . S
C988 C989 1.404 . S
C988 C991 1.539 . S
C989 C985 1.408 . S
C989 C988 1.404 . S
C989 H1001 0.930 . S
C990 C986 1.524 . S
C990 H1002 0.956 . S
C990 H1003 0.961 . S
C990 H1004 0.961 . S
C991 C988 1.539 . S
C991 H1005 0.958 . S
C991 H1006 0.961 . S
C991 H1007 0.960 . S
H992 C976 0.931 . S
H993 C981 0.929 . S
H994 C982 0.960 . S
H995 C982 0.962 . S
H996 C982 0.960 . S
H997 C983 0.961 . S
H998 C983 0.961 . S
H999 C983 0.961 . S
H1000 C984 0.931 . S
H1001 C989 0.930 . S
H1002 C990 0.956 . S
H1003 C990 0.961 . S
H1004 C990 0.961 . S
H1005 C991 0.958 . S
H1006 C991 0.961 . S
H1007 C991 0.960 . S
C1008 C1009 1.391 . S
C1008 C1010 1.394 . S
C1008 H1024 0.931 . S
C1009 C1008 1.391 . S
C1009 C1013 1.376 . S
C1010 C1008 1.394 . S
C1010 C1011 1.369 . S
C1010 C1014 1.531 . S
C1011 C1010 1.369 . S
C1011 C1012 1.410 . S
C1011 C1019 1.503 . S
C1012 C1011 1.410 . S
C1012 C1013 1.392 . S
C1012 C1015 1.511 . S
C1013 C1009 1.376 . S
C1013 C1012 1.392 . S
C1013 H1025 0.929 . S
C1014 C1010 1.531 . S
C1014 H1026 0.960 . S
C1014 H1027 0.962 . S
C1014 H1028 0.960 . S
C1015 C1012 1.511 . S
C1015 H1029 0.961 . S
C1015 H1030 0.961 . S
C1015 H1031 0.961 . S
C1016 C1017 1.370 . S
C1016 C1018 1.363 . S
C1016 H1032 0.931 . S
C1017 C1016 1.370 . S
C1017 C1021 1.408 . S
C1018 C1016 1.363 . S
C1018 C1019 1.370 . S
C1018 C1022 1.524 . S
C1019 C1011 1.503 . S
C1019 C1018 1.370 . S
C1019 C1020 1.403 . S
C1020 C1019 1.403 . S
C1020 C1021 1.404 . S
C1020 C1023 1.539 . S
C1021 C1017 1.408 . S
C1021 C1020 1.404 . S
C1021 H1033 0.930 . S
C1022 C1018 1.524 . S
C1022 H1034 0.956 . S
C1022 H1035 0.961 . S
C1022 H1036 0.961 . S
C1023 C1020 1.539 . S
C1023 H1037 0.958 . S
C1023 H1038 0.961 . S
C1023 H1039 0.960 . S
H1024 C1008 0.931 . S
H1025 C1013 0.929 . S
H1026 C1014 0.960 . S
H1027 C1014 0.962 . S
H1028 C1014 0.960 . S
H1029 C1015 0.961 . S
H1030 C1015 0.961 . S
H1031 C1015 0.961 . S
H1032 C1016 0.931 . S
H1033 C1021 0.930 . S
H1034 C1022 0.956 . S
H1035 C1022 0.961 . S
H1036 C1022 0.961 . S
H1037 C1023 0.958 . S
H1038 C1023 0.961 . S
H1039 C1023 0.960 . S
C1040 C1041 1.391 . S
C1040 C1042 1.394 1_565 S
C1040 H1056 0.931 1_565 S
C1041 C1040 1.391 . S
C1041 C1045 1.376 . S
C1042 C1040 1.394 1_545 S
C1042 C1043 1.369 1_545 S
C1042 C1046 1.531 . S
C1043 C1042 1.369 1_565 S
C1043 C1044 1.410 . S
C1043 C1051 1.503 . S
C1044 C1043 1.410 . S
C1044 C1045 1.392 . S
C1044 C1047 1.511 . S
C1045 C1041 1.376 . S
C1045 C1044 1.392 . S
C1045 H1057 0.929 . S
C1046 C1042 1.531 . S
C1046 H1058 0.960 . S
C1046 H1059 0.962 . S
C1046 H1060 0.960 . S
C1047 C1044 1.511 . S
C1047 H1061 0.961 . S
C1047 H1062 0.961 . S
C1047 H1063 0.961 . S
C1048 C1049 1.370 1_565 S
C1048 C1050 1.363 . S
C1048 H1064 0.931 . S
C1049 C1048 1.370 1_545 S
C1049 C1053 1.408 . S
C1050 C1048 1.363 . S
C1050 C1051 1.370 . S
C1050 C1054 1.524 . S
C1051 C1043 1.503 . S
C1051 C1050 1.370 . S
C1051 C1052 1.403 1_565 S
C1052 C1051 1.403 1_545 S
C1052 C1053 1.404 . S
C1052 C1055 1.539 . S
C1053 C1049 1.408 . S
C1053 C1052 1.404 . S
C1053 H1065 0.930 . S
C1054 C1050 1.524 . S
C1054 H1066 0.956 . S
C1054 H1067 0.961 . S
C1054 H1068 0.961 . S
C1055 C1052 1.539 . S
C1055 H1069 0.958 . S
C1055 H1070 0.961 . S
C1055 H1071 0.960 . S
H1056 C1040 0.931 1_545 S
H1057 C1045 0.929 . S
H1058 C1046 0.960 . S
H1059 C1046 0.962 . S
H1060 C1046 0.960 . S
H1061 C1047 0.961 . S
H1062 C1047 0.961 . S
H1063 C1047 0.961 . S
H1064 C1048 0.931 . S
H1065 C1053 0.930 . S
H1066 C1054 0.956 . S
H1067 C1054 0.961 . S
H1068 C1054 0.961 . S
H1069 C1055 0.958 . S
H1070 C1055 0.961 . S
H1071 C1055 0.960 . S
C1072 C1073 1.391 . S
C1072 C1074 1.394 . S
C1072 H1088 0.931 . S
C1073 C1072 1.391 . S
C1073 C1077 1.376 . S
C1074 C1072 1.394 . S
C1074 C1075 1.369 . S
C1074 C1078 1.531 . S
C1075 C1074 1.369 . S
C1075 C1076 1.410 . S
C1075 C1083 1.503 . S
C1076 C1075 1.410 . S
C1076 C1077 1.392 . S
C1076 C1079 1.511 . S
C1077 C1073 1.376 . S
C1077 C1076 1.392 . S
C1077 H1089 0.929 . S
C1078 C1074 1.531 . S
C1078 H1090 0.960 . S
C1078 H1091 0.962 . S
C1078 H1092 0.960 . S
C1079 C1076 1.511 . S
C1079 H1093 0.961 . S
C1079 H1094 0.961 . S
C1079 H1095 0.961 . S
C1080 C1081 1.370 . S
C1080 C1082 1.363 . S
C1080 H1096 0.931 . S
C1081 C1080 1.370 . S
C1081 C1085 1.408 . S
C1082 C1080 1.363 . S
C1082 C1083 1.370 . S
C1082 C1086 1.524 . S
C1083 C1075 1.503 . S
C1083 C1082 1.370 . S
C1083 C1084 1.403 . S
C1084 C1083 1.403 . S
C1084 C1085 1.404 . S
C1084 C1087 1.539 . S
C1085 C1081 1.408 . S
C1085 C1084 1.404 . S
C1085 H1097 0.930 . S
C1086 C1082 1.524 . S
C1086 H1098 0.956 . S
C1086 H1099 0.961 . S
C1086 H1100 0.961 . S
C1087 C1084 1.539 . S
C1087 H1101 0.958 . S
C1087 H1102 0.961 . S
C1087 H1103 0.960 . S
H1088 C1072 0.931 . S
H1089 C1077 0.929 . S
H1090 C1078 0.960 . S
H1091 C1078 0.962 . S
H1092 C1078 0.960 . S
H1093 C1079 0.961 . S
H1094 C1079 0.961 . S
H1095 C1079 0.961 . S
H1096 C1080 0.931 . S
H1097 C1085 0.930 . S
H1098 C1086 0.956 . S
H1099 C1086 0.961 . S
H1100 C1086 0.961 . S
H1101 C1087 0.958 . S
H1102 C1087 0.961 . S
H1103 C1087 0.960 . S
C1104 C1105 1.391 . S
C1104 C1106 1.394 . S
C1104 H1120 0.931 . S
C1105 C1104 1.391 . S
C1105 C1109 1.376 . S
C1106 C1104 1.394 . S
C1106 C1107 1.369 . S
C1106 C1110 1.531 . S
C1107 C1106 1.369 . S
C1107 C1108 1.410 . S
C1107 C1115 1.503 . S
C1108 C1107 1.410 . S
C1108 C1109 1.392 . S
C1108 C1111 1.511 . S
C1109 C1105 1.376 . S
C1109 C1108 1.392 . S
C1109 H1121 0.929 . S
C1110 C1106 1.531 . S
C1110 H1122 0.960 . S
C1110 H1123 0.962 . S
C1110 H1124 0.960 . S
C1111 C1108 1.511 . S
C1111 H1125 0.961 . S
C1111 H1126 0.961 . S
C1111 H1127 0.961 . S
C1112 C1113 1.370 . S
C1112 C1114 1.363 . S
C1112 H1128 0.931 . S
C1113 C1112 1.370 . S
C1113 C1117 1.408 . S
C1114 C1112 1.363 . S
C1114 C1115 1.370 . S
C1114 C1118 1.524 . S
C1115 C1107 1.503 . S
C1115 C1114 1.370 . S
C1115 C1116 1.403 . S
C1116 C1115 1.403 . S
C1116 C1117 1.404 . S
C1116 C1119 1.539 . S
C1117 C1113 1.408 . S
C1117 C1116 1.404 . S
C1117 H1129 0.930 . S
C1118 C1114 1.524 . S
C1118 H1130 0.956 . S
C1118 H1131 0.961 . S
C1118 H1132 0.961 . S
C1119 C1116 1.539 . S
C1119 H1133 0.958 . S
C1119 H1134 0.961 . S
C1119 H1135 0.960 . S
H1120 C1104 0.931 . S
H1121 C1109 0.929 . S
H1122 C1110 0.960 . S
H1123 C1110 0.962 . S
H1124 C1110 0.960 . S
H1125 C1111 0.961 . S
H1126 C1111 0.961 . S
H1127 C1111 0.961 . S
H1128 C1112 0.931 . S
H1129 C1117 0.930 . S
H1130 C1118 0.956 . S
H1131 C1118 0.961 . S
H1132 C1118 0.961 . S
H1133 C1119 0.958 . S
H1134 C1119 0.961 . S
H1135 C1119 0.960 . S
C1136 C1137 1.391 . S
C1136 C1138 1.394 . S
C1136 H1152 0.931 . S
C1137 C1136 1.391 . S
C1137 C1141 1.376 . S
C1138 C1136 1.394 . S
C1138 C1139 1.369 . S
C1138 C1142 1.531 . S
C1139 C1138 1.369 . S
C1139 C1140 1.410 . S
C1139 C1147 1.503 . S
C1140 C1139 1.410 . S
C1140 C1141 1.392 . S
C1140 C1143 1.511 . S
C1141 C1137 1.376 . S
C1141 C1140 1.392 . S
C1141 H1153 0.929 . S
C1142 C1138 1.531 . S
C1142 H1154 0.960 . S
C1142 H1155 0.962 . S
C1142 H1156 0.960 . S
C1143 C1140 1.511 . S
C1143 H1157 0.961 . S
C1143 H1158 0.961 . S
C1143 H1159 0.961 . S
C1144 C1145 1.370 . S
C1144 C1146 1.363 . S
C1144 H1160 0.931 . S
C1145 C1144 1.370 . S
C1145 C1149 1.408 . S
C1146 C1144 1.363 . S
C1146 C1147 1.370 . S
C1146 C1150 1.524 . S
C1147 C1139 1.503 . S
C1147 C1146 1.370 . S
C1147 C1148 1.403 . S
C1148 C1147 1.403 . S
C1148 C1149 1.404 . S
C1148 C1151 1.539 . S
C1149 C1145 1.408 . S
C1149 C1148 1.404 . S
C1149 H1161 0.930 . S
C1150 C1146 1.524 . S
C1150 H1162 0.956 . S
C1150 H1163 0.961 . S
C1150 H1164 0.961 . S
C1151 C1148 1.539 . S
C1151 H1165 0.958 . S
C1151 H1166 0.961 . S
C1151 H1167 0.960 . S
H1152 C1136 0.931 . S
H1153 C1141 0.929 . S
H1154 C1142 0.960 . S
H1155 C1142 0.962 . S
H1156 C1142 0.960 . S
H1157 C1143 0.961 . S
H1158 C1143 0.961 . S
H1159 C1143 0.961 . S
H1160 C1144 0.931 . S
H1161 C1149 0.930 . S
H1162 C1150 0.956 . S
H1163 C1150 0.961 . S
H1164 C1150 0.961 . S
H1165 C1151 0.958 . S
H1166 C1151 0.961 . S
H1167 C1151 0.960 . S
C1168 C1169 1.391 . S
C1168 C1170 1.394 . S
C1168 H1184 0.931 . S
C1169 C1168 1.391 . S
C1169 C1173 1.376 . S
C1170 C1168 1.394 . S
C1170 C1171 1.369 . S
C1170 C1174 1.531 . S
C1171 C1170 1.369 . S
C1171 C1172 1.410 . S
C1171 C1179 1.503 . S
C1172 C1171 1.410 . S
C1172 C1173 1.392 . S
C1172 C1175 1.525 . S
C1173 C1169 1.376 . S
C1173 C1172 1.392 . S
C1173 H1185 0.929 . S
C1174 C1170 1.531 . S
C1174 H1186 0.960 . S
C1174 H1187 0.962 . S
C1174 H1188 0.960 . S
C1175 C1172 1.525 . S
C1175 H1189 0.982 . S
C1175 H1190 0.981 . S
C1175 H1191 0.908 1_565 S
C1176 C1177 1.370 . S
C1176 C1178 1.363 . S
C1176 H1192 0.931 . S
C1177 C1176 1.370 . S
C1177 C1181 1.408 1_565 S
C1178 C1176 1.363 . S
C1178 C1179 1.370 . S
C1178 C1182 1.524 . S
C1179 C1171 1.503 . S
C1179 C1178 1.370 . S
C1179 C1180 1.403 1_565 S
C1180 C1179 1.403 1_545 S
C1180 C1181 1.404 . S
C1180 C1183 1.539 . S
C1181 C1177 1.408 1_545 S
C1181 C1180 1.404 . S
C1181 H1193 0.930 . S
C1182 C1178 1.524 . S
C1182 H1194 0.956 . S
C1182 H1195 0.961 . S
C1182 H1196 0.961 . S
C1183 C1180 1.539 . S
C1183 H1197 0.958 . S
C1183 H1198 0.961 . S
C1183 H1199 0.960 . S
H1184 C1168 0.931 . S
H1185 C1173 0.929 . S
H1186 C1174 0.960 . S
H1187 C1174 0.962 . S
H1188 C1174 0.960 . S
H1189 C1175 0.982 . S
H1190 C1175 0.981 . S
H1191 C1175 0.908 1_545 S
H1192 C1176 0.931 . S
H1193 C1181 0.930 . S
H1194 C1182 0.956 . S
H1195 C1182 0.961 . S
H1196 C1182 0.961 . S
H1197 C1183 0.958 . S
H1198 C1183 0.961 . S
H1199 C1183 0.960 . S
C1200 C1201 1.391 . S
C1200 C1202 1.394 . S
C1200 H1216 0.931 . S
C1201 C1200 1.391 . S
C1201 C1205 1.376 . S
C1202 C1200 1.394 . S
C1202 C1203 1.369 . S
C1202 C1206 1.531 . S
C1203 C1202 1.369 . S
C1203 C1204 1.410 . S
C1203 C1211 1.503 . S
C1204 C1203 1.410 . S
C1204 C1205 1.392 . S
C1204 C1207 1.511 . S
C1205 C1201 1.376 . S
C1205 C1204 1.392 . S
C1205 H1217 0.929 . S
C1206 C1202 1.531 . S
C1206 H1218 0.960 . S
C1206 H1219 0.962 . S
C1206 H1220 0.960 . S
C1207 C1204 1.511 . S
C1207 H1221 0.961 . S
C1207 H1222 0.961 . S
C1207 H1223 0.961 . S
C1208 C1209 1.370 . S
C1208 C1210 1.363 . S
C1208 H1224 0.931 . S
C1209 C1208 1.370 . S
C1209 C1213 1.408 . S
C1210 C1208 1.363 . S
C1210 C1211 1.370 . S
C1210 C1214 1.524 . S
C1211 C1203 1.503 . S
C1211 C1210 1.370 . S
C1211 C1212 1.403 . S
C1212 C1211 1.403 . S
C1212 C1213 1.404 . S
C1212 C1215 1.539 . S
C1213 C1209 1.408 . S
C1213 C1212 1.404 . S
C1213 H1225 0.930 . S
C1214 C1210 1.524 . S
C1214 H1226 0.956 . S
C1214 H1227 0.961 . S
C1214 H1228 0.961 . S
C1215 C1212 1.539 . S
C1215 H1229 0.958 . S
C1215 H1230 0.961 . S
C1215 H1231 0.960 . S
H1216 C1200 0.931 . S
H1217 C1205 0.929 . S
H1218 C1206 0.960 . S
H1219 C1206 0.962 . S
H1220 C1206 0.960 . S
H1221 C1207 0.961 . S
H1222 C1207 0.961 . S
H1223 C1207 0.961 . S
H1224 C1208 0.931 . S
H1225 C1213 0.930 . S
H1226 C1214 0.956 . S
H1227 C1214 0.961 . S
H1228 C1214 0.961 . S
H1229 C1215 0.958 . S
H1230 C1215 0.961 . S
H1231 C1215 0.960 . S
C1232 C1233 1.391 . S
C1232 C1234 1.394 . S
C1232 H1248 0.931 . S
C1233 C1232 1.391 . S
C1233 C1237 1.376 . S
C1234 C1232 1.394 . S
C1234 C1235 1.369 . S
C1234 C1238 1.531 . S
C1235 C1234 1.369 . S
C1235 C1236 1.410 . S
C1235 C1243 1.503 . S
C1236 C1235 1.410 . S
C1236 C1237 1.392 . S
C1236 C1239 1.511 . S
C1237 C1233 1.376 . S
C1237 C1236 1.392 . S
C1237 H1249 0.929 . S
C1238 C1234 1.531 . S
C1238 H1250 0.960 . S
C1238 H1251 0.962 . S
C1238 H1252 0.960 . S
C1239 C1236 1.511 . S
C1239 H1253 0.961 . S
C1239 H1254 0.961 . S
C1239 H1255 0.961 . S
C1240 C1241 1.370 . S
C1240 C1242 1.363 . S
C1240 H1256 0.931 . S
C1241 C1240 1.370 . S
C1241 C1245 1.408 . S
C1242 C1240 1.363 . S
C1242 C1243 1.370 . S
C1242 C1246 1.524 . S
C1243 C1235 1.503 . S
C1243 C1242 1.370 . S
C1243 C1244 1.403 . S
C1244 C1243 1.403 . S
C1244 C1245 1.404 . S
C1244 C1247 1.539 . S
C1245 C1241 1.408 . S
C1245 C1244 1.404 . S
C1245 H1257 0.930 . S
C1246 C1242 1.524 . S
C1246 H1258 0.956 . S
C1246 H1259 0.961 . S
C1246 H1260 0.961 . S
C1247 C1244 1.539 . S
C1247 H1261 0.958 . S
C1247 H1262 0.961 . S
C1247 H1263 0.960 . S
H1248 C1232 0.931 . S
H1249 C1237 0.929 . S
H1250 C1238 0.960 . S
H1251 C1238 0.962 . S
H1252 C1238 0.960 . S
H1253 C1239 0.961 . S
H1254 C1239 0.961 . S
H1255 C1239 0.961 . S
H1256 C1240 0.931 . S
H1257 C1245 0.930 . S
H1258 C1246 0.956 . S
H1259 C1246 0.961 . S
H1260 C1246 0.961 . S
H1261 C1247 0.958 . S
H1262 C1247 0.961 . S
H1263 C1247 0.960 . S
C1264 C1265 1.391 . S
C1264 C1266 1.394 . S
C1264 H1280 0.931 . S
C1265 C1264 1.391 . S
C1265 C1269 1.376 . S
C1266 C1264 1.394 . S
C1266 C1267 1.369 . S
C1266 C1270 1.531 . S
C1267 C1266 1.369 . S
C1267 C1268 1.410 . S
C1267 C1275 1.503 . S
C1268 C1267 1.410 . S
C1268 C1269 1.392 . S
C1268 C1271 1.511 . S
C1269 C1265 1.376 . S
C1269 C1268 1.392 . S
C1269 H1281 0.929 . S
C1270 C1266 1.531 . S
C1270 H1282 0.960 . S
C1270 H1283 0.962 . S
C1270 H1284 0.960 . S
C1271 C1268 1.511 . S
C1271 H1285 0.961 . S
C1271 H1286 0.961 . S
C1271 H1287 0.961 . S
C1272 C1273 1.370 . S
C1272 C1274 1.363 . S
C1272 H1288 0.931 . S
C1273 C1272 1.370 . S
C1273 C1277 1.408 . S
C1274 C1272 1.363 . S
C1274 C1275 1.370 . S
C1274 C1278 1.524 . S
C1275 C1267 1.503 . S
C1275 C1274 1.370 . S
C1275 C1276 1.403 . S
C1276 C1275 1.403 . S
C1276 C1277 1.404 . S
C1276 C1279 1.539 . S
C1277 C1273 1.408 . S
C1277 C1276 1.404 . S
C1277 H1289 0.930 . S
C1278 C1274 1.524 . S
C1278 H1290 0.956 . S
C1278 H1291 0.961 . S
C1278 H1292 0.961 . S
C1279 C1276 1.539 . S
C1279 H1293 0.958 . S
C1279 H1294 0.961 . S
C1279 H1295 0.960 . S
H1280 C1264 0.931 . S
H1281 C1269 0.929 . S
H1282 C1270 0.960 . S
H1283 C1270 0.962 . S
H1284 C1270 0.960 . S
H1285 C1271 0.961 . S
H1286 C1271 0.961 . S
H1287 C1271 0.961 . S
H1288 C1272 0.931 . S
H1289 C1277 0.930 . S
H1290 C1278 0.956 . S
H1291 C1278 0.961 . S
H1292 C1278 0.961 . S
H1293 C1279 0.958 . S
H1294 C1279 0.961 . S
H1295 C1279 0.960 . S
C1296 C1297 1.391 . S
C1296 C1298 1.394 . S
C1296 H1312 0.931 . S
C1297 C1296 1.391 . S
C1297 C1301 1.376 . S
C1298 C1296 1.394 . S
C1298 C1299 1.369 . S
C1298 C1302 1.531 . S
C1299 C1298 1.369 . S
C1299 C1300 1.410 . S
C1299 C1307 1.503 . S
C1300 C1299 1.410 . S
C1300 C1301 1.392 . S
C1300 C1303 1.511 . S
C1301 C1297 1.376 . S
C1301 C1300 1.392 . S
C1301 H1313 0.929 . S
C1302 C1298 1.531 . S
C1302 H1314 0.960 . S
C1302 H1315 0.962 . S
C1302 H1316 0.960 . S
C1303 C1300 1.511 . S
C1303 H1317 0.961 . S
C1303 H1318 0.961 . S
C1303 H1319 0.961 . S
C1304 C1305 1.370 . S
C1304 C1306 1.363 . S
C1304 H1320 0.931 . S
C1305 C1304 1.370 . S
C1305 C1309 1.408 . S
C1306 C1304 1.363 . S
C1306 C1307 1.370 . S
C1306 C1310 1.524 . S
C1307 C1299 1.503 . S
C1307 C1306 1.370 . S
C1307 C1308 1.403 . S
C1308 C1307 1.403 . S
C1308 C1309 1.404 . S
C1308 C1311 1.539 . S
C1309 C1305 1.408 . S
C1309 C1308 1.404 . S
C1309 H1321 0.930 . S
C1310 C1306 1.524 . S
C1310 H1322 0.956 . S
C1310 H1323 0.961 . S
C1310 H1324 0.961 . S
C1311 C1308 1.539 . S
C1311 H1325 0.958 . S
C1311 H1326 0.961 . S
C1311 H1327 0.960 . S
H1312 C1296 0.931 . S
H1313 C1301 0.929 . S
H1314 C1302 0.960 . S
H1315 C1302 0.962 . S
H1316 C1302 0.960 . S
H1317 C1303 0.961 . S
H1318 C1303 0.961 . S
H1319 C1303 0.961 . S
H1320 C1304 0.931 . S
H1321 C1309 0.930 . S
H1322 C1310 0.956 . S
H1323 C1310 0.961 . S
H1324 C1310 0.961 . S
H1325 C1311 0.958 . S
H1326 C1311 0.961 . S
H1327 C1311 0.960 . S
C1328 C1329 1.391 . S
C1328 C1330 1.394 . S
C1328 H1344 0.931 . S
C1329 C1328 1.391 . S
C1329 C1333 1.376 . S
C1330 C1328 1.394 . S
C1330 C1331 1.369 . S
C1330 C1334 1.531 . S
C1331 C1330 1.369 . S
C1331 C1332 1.410 . S
C1331 C1339 1.503 . S
C1332 C1331 1.410 . S
C1332 C1333 1.392 . S
C1332 C1335 1.511 . S
C1333 C1329 1.376 . S
C1333 C1332 1.392 . S
C1333 H1345 0.929 . S
C1334 C1330 1.531 . S
C1334 H1346 0.960 . S
C1334 H1347 0.962 . S
C1334 H1348 0.960 . S
C1335 C1332 1.511 . S
C1335 H1349 0.961 . S
C1335 H1350 0.961 . S
C1335 H1351 0.961 . S
C1336 C1337 1.370 . S
C1336 C1338 1.363 . S
C1336 H1352 0.931 . S
C1337 C1336 1.370 . S
C1337 C1341 1.408 . S
C1338 C1336 1.363 . S
C1338 C1339 1.370 . S
C1338 C1342 1.524 . S
C1339 C1331 1.503 . S
C1339 C1338 1.370 . S
C1339 C1340 1.403 . S
C1340 C1339 1.403 . S
C1340 C1341 1.404 . S
C1340 C1343 1.539 . S
C1341 C1337 1.408 . S
C1341 C1340 1.404 . S
C1341 H1353 0.930 . S
C1342 C1338 1.524 . S
C1342 H1354 0.956 . S
C1342 H1355 0.961 . S
C1342 H1356 0.961 . S
C1343 C1340 1.539 . S
C1343 H1357 0.958 . S
C1343 H1358 0.961 . S
C1343 H1359 0.960 . S
H1344 C1328 0.931 . S
H1345 C1333 0.929 . S
H1346 C1334 0.960 . S
H1347 C1334 0.962 . S
H1348 C1334 0.960 . S
H1349 C1335 0.961 . S
H1350 C1335 0.961 . S
H1351 C1335 0.961 . S
H1352 C1336 0.931 . S
H1353 C1341 0.930 . S
H1354 C1342 0.956 . S
H1355 C1342 0.961 . S
H1356 C1342 0.961 . S
H1357 C1343 0.958 . S
H1358 C1343 0.961 . S
H1359 C1343 0.960 . S
C1360 C1361 1.391 . S
C1360 C1362 1.394 . S
C1360 H1376 0.931 . S
C1361 C1360 1.391 . S
C1361 C1365 1.376 . S
C1362 C1360 1.394 . S
C1362 C1363 1.369 . S
C1362 C1366 1.531 . S
C1363 C1362 1.369 . S
C1363 C1364 1.410 . S
C1363 C1371 1.503 . S
C1364 C1363 1.410 . S
C1364 C1365 1.392 . S
C1364 C1367 1.511 . S
C1365 C1361 1.376 . S
C1365 C1364 1.392 . S
C1365 H1377 0.929 . S
C1366 C1362 1.531 . S
C1366 H1378 0.960 . S
C1366 H1379 0.962 . S
C1366 H1380 0.960 . S
C1367 C1364 1.511 . S
C1367 H1381 0.961 . S
C1367 H1382 0.961 . S
C1367 H1383 0.961 1_455 S
C1368 C1369 1.370 . S
C1368 C1370 1.363 . S
C1368 H1384 0.931 . S
C1369 C1368 1.370 . S
C1369 C1373 1.408 1_455 S
C1370 C1368 1.363 . S
C1370 C1371 1.370 . S
C1370 C1374 1.524 . S
C1371 C1363 1.503 . S
C1371 C1370 1.370 . S
C1371 C1372 1.403 1_455 S
C1372 C1371 1.403 1_655 S
C1372 C1373 1.404 . S
C1372 C1375 1.539 . S
C1373 C1369 1.408 1_655 S
C1373 C1372 1.404 . S
C1373 H1385 0.930 . S
C1374 C1370 1.524 . S
C1374 H1386 0.956 . S
C1374 H1387 0.961 . S
C1374 H1388 0.961 . S
C1375 C1372 1.539 . S
C1375 H1389 0.958 . S
C1375 H1390 0.961 . S
C1375 H1391 0.960 . S
H1376 C1360 0.931 . S
H1377 C1365 0.929 . S
H1378 C1366 0.960 . S
H1379 C1366 0.962 . S
H1380 C1366 0.960 . S
H1381 C1367 0.961 . S
H1382 C1367 0.961 . S
H1383 C1367 0.961 1_655 S
H1384 C1368 0.931 . S
H1385 C1373 0.930 . S
H1386 C1374 0.956 . S
H1387 C1374 0.961 . S
H1388 C1374 0.961 . S
H1389 C1375 0.958 . S
H1390 C1375 0.961 . S
H1391 C1375 0.960 . S
C1392 C1393 1.391 . S
C1392 C1394 1.394 . S
C1392 H1408 0.931 . S
C1393 C1392 1.391 . S
C1393 C1397 1.376 . S
C1394 C1392 1.394 . S
C1394 C1395 1.369 . S
C1394 C1398 1.531 . S
C1395 C1394 1.369 . S
C1395 C1396 1.410 . S
C1395 C1403 1.503 . S
C1396 C1395 1.410 . S
C1396 C1397 1.392 . S
C1396 C1399 1.511 . S
C1397 C1393 1.376 . S
C1397 C1396 1.392 . S
C1397 H1409 0.929 . S
C1398 C1394 1.531 . S
C1398 H1410 0.960 . S
C1398 H1411 0.962 . S
C1398 H1412 0.960 . S
C1399 C1396 1.511 . S
C1399 H1413 0.961 . S
C1399 H1414 0.961 . S
C1399 H1415 0.961 . S
C1400 C1401 1.370 . S
C1400 C1402 1.363 . S
C1400 H1416 0.931 . S
C1401 C1400 1.370 . S
C1401 C1405 1.408 . S
C1402 C1400 1.363 . S
C1402 C1403 1.370 . S
C1402 C1406 1.524 . S
C1403 C1395 1.503 . S
C1403 C1402 1.370 . S
C1403 C1404 1.403 . S
C1404 C1403 1.403 . S
C1404 C1405 1.404 . S
C1404 C1407 1.539 . S
C1405 C1401 1.408 . S
C1405 C1404 1.404 . S
C1405 H1417 0.930 . S
C1406 C1402 1.524 . S
C1406 H1418 0.956 . S
C1406 H1419 0.961 . S
C1406 H1420 0.961 . S
C1407 C1404 1.539 . S
C1407 H1421 0.958 . S
C1407 H1422 0.961 . S
C1407 H1423 0.960 . S
H1408 C1392 0.931 . S
H1409 C1397 0.929 . S
H1410 C1398 0.960 . S
H1411 C1398 0.962 . S
H1412 C1398 0.960 . S
H1413 C1399 0.961 . S
H1414 C1399 0.961 . S
H1415 C1399 0.961 . S
H1416 C1400 0.931 . S
H1417 C1405 0.930 . S
H1418 C1406 0.956 . S
H1419 C1406 0.961 . S
H1420 C1406 0.961 . S
H1421 C1407 0.958 . S
H1422 C1407 0.961 . S
H1423 C1407 0.960 . S
C1424 C1425 1.391 . S
C1424 C1426 1.394 . S
C1424 H1440 0.931 . S
C1425 C1424 1.391 . S
C1425 C1429 1.376 . S
C1426 C1424 1.394 . S
C1426 C1427 1.369 . S
C1426 C1430 1.531 1_655 S
C1427 C1426 1.369 . S
C1427 C1428 1.410 . S
C1427 C1435 1.503 . S
C1428 C1427 1.410 . S
C1428 C1429 1.392 . S
C1428 C1431 1.511 . S
C1429 C1425 1.376 . S
C1429 C1428 1.392 . S
C1429 H1441 0.929 . S
C1430 C1426 1.531 1_455 S
C1430 H1442 0.960 1_455 S
C1430 H1443 0.962 . S
C1430 H1444 0.969 . S
C1431 C1428 1.511 . S
C1431 H1445 0.961 . S
C1431 H1446 0.961 . S
C1431 H1447 0.961 . S
C1432 C1433 1.370 1_455 S
C1432 C1434 1.363 . S
C1432 H1448 0.931 . S
C1433 C1432 1.370 1_655 S
C1433 C1437 1.408 . S
C1434 C1432 1.363 . S
C1434 C1435 1.370 1_455 S
C1434 C1438 1.524 . S
C1435 C1427 1.503 . S
C1435 C1434 1.370 1_655 S
C1435 C1436 1.403 . S
C1436 C1435 1.403 . S
C1436 C1437 1.404 . S
C1436 C1439 1.539 . S
C1437 C1433 1.408 . S
C1437 C1436 1.404 . S
C1437 H1449 0.930 . S
C1438 C1434 1.524 . S
C1438 H1450 0.956 . S
C1438 H1451 0.961 . S
C1438 H1452 0.961 . S
C1439 C1436 1.539 . S
C1439 H1453 0.958 . S
C1439 H1454 0.961 . S
C1439 H1455 0.960 . S
H1440 C1424 0.931 . S
H1441 C1429 0.929 . S
H1442 C1430 0.960 1_655 S
H1443 C1430 0.962 . S
H1444 C1430 0.969 . S
H1445 C1431 0.961 . S
H1446 C1431 0.961 . S
H1447 C1431 0.961 . S
H1448 C1432 0.931 . S
H1449 C1437 0.930 . S
H1450 C1438 0.956 . S
H1451 C1438 0.961 . S
H1452 C1438 0.961 . S
H1453 C1439 0.958 . S
H1454 C1439 0.961 . S
H1455 C1439 0.960 . S
C1456 C1457 1.391 . S
C1456 C1458 1.394 . S
C1456 H1472 0.931 . S
C1457 C1456 1.391 . S
C1457 C1461 1.376 . S
C1458 C1456 1.394 . S
C1458 C1459 1.369 . S
C1458 C1462 1.531 . S
C1459 C1458 1.369 . S
C1459 C1460 1.410 . S
C1459 C1467 1.503 . S
C1460 C1459 1.410 . S
C1460 C1461 1.392 . S
C1460 C1463 1.511 . S
C1461 C1457 1.376 . S
C1461 C1460 1.392 . S
C1461 H1473 0.929 . S
C1462 C1458 1.531 . S
C1462 H1474 0.960 . S
C1462 H1475 0.962 . S
C1462 H1476 0.960 . S
C1463 C1460 1.511 . S
C1463 H1477 0.961 . S
C1463 H1478 0.961 . S
C1463 H1479 0.961 . S
C1464 C1465 1.370 . S
C1464 C1466 1.363 . S
C1464 H1480 0.931 . S
C1465 C1464 1.370 . S
C1465 C1469 1.408 . S
C1466 C1464 1.363 . S
C1466 C1467 1.370 . S
C1466 C1470 1.524 . S
C1467 C1459 1.503 . S
C1467 C1466 1.370 . S
C1467 C1468 1.403 . S
C1468 C1467 1.403 . S
C1468 C1469 1.404 . S
C1468 C1471 1.539 . S
C1469 C1465 1.408 . S
C1469 C1468 1.404 . S
C1469 H1481 0.930 . S
C1470 C1466 1.524 . S
C1470 H1482 0.956 . S
C1470 H1483 0.961 . S
C1470 H1484 0.961 . S
C1471 C1468 1.539 . S
C1471 H1485 0.958 . S
C1471 H1486 0.961 . S
C1471 H1487 0.960 . S
H1472 C1456 0.931 . S
H1473 C1461 0.929 . S
H1474 C1462 0.960 . S
H1475 C1462 0.962 . S
H1476 C1462 0.960 . S
H1477 C1463 0.961 . S
H1478 C1463 0.961 . S
H1479 C1463 0.961 . S
H1480 C1464 0.931 . S
H1481 C1469 0.930 . S
H1482 C1470 0.956 . S
H1483 C1470 0.961 . S
H1484 C1470 0.961 . S
H1485 C1471 0.958 . S
H1486 C1471 0.961 . S
H1487 C1471 0.960 . S
C1488 C1489 1.391 . S
C1488 C1490 1.394 . S
C1488 H1504 0.931 . S
C1489 C1488 1.391 . S
C1489 C1493 1.376 . S
C1490 C1488 1.394 . S
C1490 C1491 1.369 . S
C1490 C1494 1.531 . S
C1491 C1490 1.369 . S
C1491 C1492 1.410 . S
C1491 C1499 1.503 . S
C1492 C1491 1.410 . S
C1492 C1493 1.392 . S
C1492 C1495 1.511 . S
C1493 C1489 1.376 . S
C1493 C1492 1.392 . S
C1493 H1505 0.929 . S
C1494 C1490 1.531 . S
C1494 H1506 0.960 . S
C1494 H1507 0.962 . S
C1494 H1508 0.960 . S
C1495 C1492 1.511 . S
C1495 H1509 0.961 . S
C1495 H1510 0.961 . S
C1495 H1511 0.961 . S
C1496 C1497 1.370 . S
C1496 C1498 1.363 . S
C1496 H1512 0.931 . S
C1497 C1496 1.370 . S
C1497 C1501 1.408 . S
C1498 C1496 1.363 . S
C1498 C1499 1.370 . S
C1498 C1502 1.524 . S
C1499 C1491 1.503 . S
C1499 C1498 1.370 . S
C1499 C1500 1.403 . S
C1500 C1499 1.403 . S
C1500 C1501 1.404 . S
C1500 C1503 1.539 . S
C1501 C1497 1.408 . S
C1501 C1500 1.404 . S
C1501 H1513 0.930 . S
C1502 C1498 1.524 . S
C1502 H1514 0.956 . S
C1502 H1515 0.961 . S
C1502 H1516 0.961 . S
C1503 C1500 1.539 . S
C1503 H1517 0.958 . S
C1503 H1518 0.961 . S
C1503 H1519 0.960 . S
H1504 C1488 0.931 . S
H1505 C1493 0.929 . S
H1506 C1494 0.960 . S
H1507 C1494 0.962 . S
H1508 C1494 0.960 . S
H1509 C1495 0.961 . S
H1510 C1495 0.961 . S
H1511 C1495 0.961 . S
H1512 C1496 0.931 . S
H1513 C1501 0.930 . S
H1514 C1502 0.956 . S
H1515 C1502 0.961 . S
H1516 C1502 0.961 . S
H1517 C1503 0.958 . S
H1518 C1503 0.961 . S
H1519 C1503 0.960 . S
C1520 C1521 1.391 1_554 S
C1520 C1522 1.394 . S
C1520 H1536 0.931 . S
C1521 C1520 1.391 1_556 S
C1521 C1525 1.376 . S
C1522 C1520 1.394 . S
C1522 C1523 1.369 1_554 S
C1522 C1526 1.531 . S
C1523 C1522 1.369 1_556 S
C1523 C1524 1.410 . S
C1523 C1531 1.503 . S
C1524 C1523 1.410 . S
C1524 C1525 1.392 . S
C1524 C1527 1.511 . S
C1525 C1521 1.376 . S
C1525 C1524 1.392 . S
C1525 H1537 0.929 . S
C1526 C1522 1.531 . S
C1526 H1538 0.960 . S
C1526 H1539 0.962 . S
C1526 H1540 0.960 . S
C1527 C1524 1.511 . S
C1527 H1541 0.961 . S
C1527 H1542 0.961 . S
C1527 H1543 0.961 . S
C1528 C1529 1.370 1_556 S
C1528 C1530 1.363 . S
C1528 H1544 0.931 . S
C1529 C1528 1.370 1_554 S
C1529 C1533 1.408 . S
C1530 C1528 1.363 . S
C1530 C1531 1.370 . S
C1530 C1534 1.524 . S
C1531 C1523 1.503 . S
C1531 C1530 1.370 . S
C1531 C1532 1.403 1_556 S
C1532 C1531 1.403 1_554 S
C1532 C1533 1.404 . S
C1532 C1535 1.539 . S
C1533 C1529 1.408 . S
C1533 C1532 1.404 . S
C1533 H1545 0.930 . S
C1534 C1530 1.524 . S
C1534 H1546 0.956 . S
C1534 H1547 0.961 . S
C1534 H1548 0.961 . S
C1535 C1532 1.539 . S
C1535 H1549 0.958 . S
C1535 H1550 0.961 . S
C1535 H1551 0.964 . S
H1536 C1520 0.931 . S
H1537 C1525 0.929 . S
H1538 C1526 0.960 . S
H1539 C1526 0.962 . S
H1540 C1526 0.960 . S
H1541 C1527 0.961 . S
H1542 C1527 0.961 . S
H1543 C1527 0.961 . S
H1544 C1528 0.931 . S
H1545 C1533 0.930 . S
H1546 C1534 0.956 . S
H1547 C1534 0.961 . S
H1548 C1534 0.961 . S
H1549 C1535 0.958 . S
H1550 C1535 0.961 . S
H1551 C1535 0.964 . S
C1552 C1553 1.391 . S
C1552 C1554 1.394 . S
C1552 H1568 0.931 . S
C1553 C1552 1.391 . S
C1553 C1557 1.376 . S
C1554 C1552 1.394 . S
C1554 C1555 1.369 . S
C1554 C1558 1.531 . S
C1555 C1554 1.369 . S
C1555 C1556 1.410 . S
C1555 C1563 1.503 . S
C1556 C1555 1.410 . S
C1556 C1557 1.392 . S
C1556 C1559 1.511 . S
C1557 C1553 1.376 . S
C1557 C1556 1.392 . S
C1557 H1569 0.929 . S
C1558 C1554 1.531 . S
C1558 H1570 0.960 . S
C1558 H1571 0.962 . S
C1558 H1572 0.960 . S
C1559 C1556 1.511 . S
C1559 H1573 0.961 . S
C1559 H1574 0.961 . S
C1559 H1575 0.961 . S
C1560 C1561 1.370 . S
C1560 C1562 1.363 . S
C1560 H1576 0.931 . S
C1561 C1560 1.370 . S
C1561 C1565 1.408 . S
C1562 C1560 1.363 . S
C1562 C1563 1.370 . S
C1562 C1566 1.524 . S
C1563 C1555 1.503 . S
C1563 C1562 1.370 . S
C1563 C1564 1.403 . S
C1564 C1563 1.403 . S
C1564 C1565 1.404 . S
C1564 C1567 1.539 . S
C1565 C1561 1.408 . S
C1565 C1564 1.404 . S
C1565 H1577 0.930 . S
C1566 C1562 1.524 . S
C1566 H1578 0.956 . S
C1566 H1579 0.961 . S
C1566 H1580 0.961 . S
C1567 C1564 1.539 . S
C1567 H1581 0.958 . S
C1567 H1582 0.961 . S
C1567 H1583 0.960 . S
H1568 C1552 0.931 . S
H1569 C1557 0.929 . S
H1570 C1558 0.960 . S
H1571 C1558 0.962 . S
H1572 C1558 0.960 . S
H1573 C1559 0.961 . S
H1574 C1559 0.961 . S
H1575 C1559 0.961 . S
H1576 C1560 0.931 . S
H1577 C1565 0.930 . S
H1578 C1566 0.956 . S
H1579 C1566 0.961 . S
H1580 C1566 0.961 . S
H1581 C1567 0.958 . S
H1582 C1567 0.961 . S
H1583 C1567 0.960 . S
C1584 C1585 1.391 . S
C1584 C1586 1.394 . S
C1584 H1600 0.931 . S
C1585 C1584 1.391 . S
C1585 C1589 1.376 . S
C1586 C1584 1.394 . S
C1586 C1587 1.369 . S
C1586 C1590 1.531 . S
C1587 C1586 1.369 . S
C1587 C1588 1.410 . S
C1587 C1595 1.503 . S
C1588 C1587 1.410 . S
C1588 C1589 1.392 . S
C1588 C1591 1.511 . S
C1589 C1585 1.376 . S
C1589 C1588 1.392 . S
C1589 H1601 0.929 . S
C1590 C1586 1.531 . S
C1590 H1602 0.960 . S
C1590 H1603 0.962 . S
C1590 H1604 0.960 . S
C1591 C1588 1.511 . S
C1591 H1605 0.961 . S
C1591 H1606 0.961 . S
C1591 H1607 0.961 . S
C1592 C1593 1.370 . S
C1592 C1594 1.363 . S
C1592 H1608 0.931 . S
C1593 C1592 1.370 . S
C1593 C1597 1.408 . S
C1594 C1592 1.363 . S
C1594 C1595 1.370 . S
C1594 C1598 1.524 . S
C1595 C1587 1.503 . S
C1595 C1594 1.370 . S
C1595 C1596 1.403 . S
C1596 C1595 1.403 . S
C1596 C1597 1.404 . S
C1596 C1599 1.539 . S
C1597 C1593 1.408 . S
C1597 C1596 1.404 . S
C1597 H1609 0.930 . S
C1598 C1594 1.524 . S
C1598 H1610 0.956 . S
C1598 H1611 0.961 . S
C1598 H1612 0.961 . S
C1599 C1596 1.539 . S
C1599 H1613 0.958 . S
C1599 H1614 0.961 . S
C1599 H1615 0.960 . S
H1600 C1584 0.931 . S
H1601 C1589 0.929 . S
H1602 C1590 0.960 . S
H1603 C1590 0.962 . S
H1604 C1590 0.960 . S
H1605 C1591 0.961 . S
H1606 C1591 0.961 . S
H1607 C1591 0.961 . S
H1608 C1592 0.931 . S
H1609 C1597 0.930 . S
H1610 C1598 0.956 . S
H1611 C1598 0.961 . S
H1612 C1598 0.961 . S
H1613 C1599 0.958 . S
H1614 C1599 0.961 . S
H1615 C1599 0.960 . S
C1616 C1617 1.391 . S
C1616 C1618 1.394 . S
C1616 H1632 0.931 . S
C1617 C1616 1.391 . S
C1617 C1621 1.376 . S
C1618 C1616 1.394 . S
C1618 C1619 1.369 . S
C1618 C1622 1.531 . S
C1619 C1618 1.369 . S
C1619 C1620 1.410 . S
C1619 C1627 1.503 . S
C1620 C1619 1.410 . S
C1620 C1621 1.392 . S
C1620 C1623 1.511 . S
C1621 C1617 1.376 . S
C1621 C1620 1.392 . S
C1621 H1633 0.929 . S
C1622 C1618 1.531 . S
C1622 H1634 0.960 . S
C1622 H1635 0.962 . S
C1622 H1636 0.960 . S
C1623 C1620 1.511 . S
C1623 H1637 0.961 . S
C1623 H1638 0.961 . S
C1623 H1639 0.961 . S
C1624 C1625 1.370 . S
C1624 C1626 1.363 . S
C1624 H1640 0.931 . S
C1625 C1624 1.370 . S
C1625 C1629 1.408 . S
C1626 C1624 1.363 . S
C1626 C1627 1.370 . S
C1626 C1630 1.524 . S
C1627 C1619 1.503 . S
C1627 C1626 1.370 . S
C1627 C1628 1.403 . S
C1628 C1627 1.403 . S
C1628 C1629 1.404 . S
C1628 C1631 1.539 . S
C1629 C1625 1.408 . S
C1629 C1628 1.404 . S
C1629 H1641 0.930 . S
C1630 C1626 1.524 . S
C1630 H1642 0.956 . S
C1630 H1643 0.961 . S
C1630 H1644 0.961 . S
C1631 C1628 1.539 . S
C1631 H1645 0.958 . S
C1631 H1646 0.961 . S
C1631 H1647 0.960 . S
H1632 C1616 0.931 . S
H1633 C1621 0.929 . S
H1634 C1622 0.960 . S
H1635 C1622 0.962 . S
H1636 C1622 0.960 . S
H1637 C1623 0.961 . S
H1638 C1623 0.961 . S
H1639 C1623 0.961 . S
H1640 C1624 0.931 . S
H1641 C1629 0.930 . S
H1642 C1630 0.956 . S
H1643 C1630 0.961 . S
H1644 C1630 0.961 . S
H1645 C1631 0.958 . S
H1646 C1631 0.961 . S
H1647 C1631 0.960 . S
C1648 C1649 1.391 . S
C1648 C1650 1.394 . S
C1648 H1664 0.931 . S
C1649 C1648 1.391 . S
C1649 C1653 1.376 . S
C1650 C1648 1.394 . S
C1650 C1651 1.369 . S
C1650 C1654 1.531 . S
C1651 C1650 1.369 . S
C1651 C1652 1.410 . S
C1651 C1659 1.503 . S
C1652 C1651 1.410 . S
C1652 C1653 1.392 . S
C1652 C1655 1.511 . S
C1653 C1649 1.376 . S
C1653 C1652 1.392 . S
C1653 H1665 0.929 . S
C1654 C1650 1.531 . S
C1654 H1666 0.960 . S
C1654 H1667 0.962 . S
C1654 H1668 0.960 . S
C1655 C1652 1.511 . S
C1655 H1669 0.961 . S
C1655 H1670 0.961 . S
C1655 H1671 0.961 . S
C1656 C1657 1.370 . S
C1656 C1658 1.363 . S
C1656 H1672 0.931 . S
C1657 C1656 1.370 . S
C1657 C1661 1.408 . S
C1658 C1656 1.363 . S
C1658 C1659 1.370 . S
C1658 C1662 1.524 . S
C1659 C1651 1.503 . S
C1659 C1658 1.370 . S
C1659 C1660 1.403 . S
C1660 C1659 1.403 . S
C1660 C1661 1.404 . S
C1660 C1663 1.539 . S
C1661 C1657 1.408 . S
C1661 C1660 1.404 . S
C1661 H1673 0.930 . S
C1662 C1658 1.524 . S
C1662 H1674 0.956 . S
C1662 H1675 0.961 . S
C1662 H1676 0.961 . S
C1663 C1660 1.539 . S
C1663 H1677 0.958 . S
C1663 H1678 0.961 . S
C1663 H1679 0.960 . S
H1664 C1648 0.931 . S
H1665 C1653 0.929 . S
H1666 C1654 0.960 . S
H1667 C1654 0.962 . S
H1668 C1654 0.960 . S
H1669 C1655 0.961 . S
H1670 C1655 0.961 . S
H1671 C1655 0.961 . S
H1672 C1656 0.931 . S
H1673 C1661 0.930 . S
H1674 C1662 0.956 . S
H1675 C1662 0.961 . S
H1676 C1662 0.961 . S
H1677 C1663 0.958 . S
H1678 C1663 0.961 . S
H1679 C1663 0.960 . S
C1680 C1681 1.391 . S
C1680 C1682 1.394 . S
C1680 H1696 0.931 . S
C1681 C1680 1.391 . S
C1681 C1685 1.376 . S
C1682 C1680 1.394 . S
C1682 C1683 1.369 . S
C1682 C1686 1.531 . S
C1683 C1682 1.369 . S
C1683 C1684 1.410 . S
C1683 C1691 1.503 . S
C1684 C1683 1.410 . S
C1684 C1685 1.392 . S
C1684 C1687 1.511 . S
C1685 C1681 1.376 . S
C1685 C1684 1.392 . S
C1685 H1697 0.929 . S
C1686 C1682 1.531 . S
C1686 H1698 0.960 . S
C1686 H1699 0.962 . S
C1686 H1700 0.960 . S
C1687 C1684 1.511 . S
C1687 H1701 0.961 . S
C1687 H1702 0.961 . S
C1687 H1703 0.961 . S
C1688 C1689 1.370 . S
C1688 C1690 1.363 . S
C1688 H1704 0.931 . S
C1689 C1688 1.370 . S
C1689 C1693 1.408 . S
C1690 C1688 1.363 . S
C1690 C1691 1.370 . S
C1690 C1694 1.524 . S
C1691 C1683 1.503 . S
C1691 C1690 1.370 . S
C1691 C1692 1.403 . S
C1692 C1691 1.403 . S
C1692 C1693 1.404 . S
C1692 C1695 1.539 . S
C1693 C1689 1.408 . S
C1693 C1692 1.404 . S
C1693 H1705 0.930 . S
C1694 C1690 1.524 . S
C1694 H1706 0.956 . S
C1694 H1707 0.961 . S
C1694 H1708 0.961 . S
C1695 C1692 1.539 . S
C1695 H1709 0.958 . S
C1695 H1710 0.961 . S
C1695 H1711 0.960 . S
H1696 C1680 0.931 . S
H1697 C1685 0.929 . S
H1698 C1686 0.960 . S
H1699 C1686 0.962 . S
H1700 C1686 0.960 . S
H1701 C1687 0.961 . S
H1702 C1687 0.961 . S
H1703 C1687 0.961 . S
H1704 C1688 0.931 . S
H1705 C1693 0.930 . S
H1706 C1694 0.956 . S
H1707 C1694 0.961 . S
H1708 C1694 0.961 . S
H1709 C1695 0.958 . S
H1710 C1695 0.961 . S
H1711 C1695 0.960 . S
C1712 C1713 1.391 . S
C1712 C1714 1.394 . S
C1712 H1728 0.931 . S
C1713 C1712 1.391 . S
C1713 C1717 1.376 . S
C1714 C1712 1.394 . S
C1714 C1715 1.369 . S
C1714 C1718 1.531 . S
C1715 C1714 1.369 . S
C1715 C1716 1.410 . S
C1715 C1723 1.503 . S
C1716 C1715 1.410 . S
C1716 C1717 1.392 . S
C1716 C1719 1.511 . S
C1717 C1713 1.376 . S
C1717 C1716 1.392 . S
C1717 H1729 0.929 . S
C1718 C1714 1.531 . S
C1718 H1730 0.960 . S
C1718 H1731 0.962 . S
C1718 H1732 0.960 . S
C1719 C1716 1.511 . S
C1719 H1733 0.961 . S
C1719 H1734 0.961 . S
C1719 H1735 0.961 . S
C1720 C1721 1.370 . S
C1720 C1722 1.363 . S
C1720 H1736 0.931 . S
C1721 C1720 1.370 . S
C1721 C1725 1.408 . S
C1722 C1720 1.363 . S
C1722 C1723 1.370 . S
C1722 C1726 1.524 . S
C1723 C1715 1.503 . S
C1723 C1722 1.370 . S
C1723 C1724 1.403 . S
C1724 C1723 1.403 . S
C1724 C1725 1.404 . S
C1724 C1727 1.539 . S
C1725 C1721 1.408 . S
C1725 C1724 1.404 . S
C1725 H1737 0.930 . S
C1726 C1722 1.524 . S
C1726 H1738 0.956 . S
C1726 H1739 0.961 . S
C1726 H1740 0.961 . S
C1727 C1724 1.539 . S
C1727 H1741 0.958 . S
C1727 H1742 0.961 . S
C1727 H1743 0.960 . S
H1728 C1712 0.931 . S
H1729 C1717 0.929 . S
H1730 C1718 0.960 . S
H1731 C1718 0.962 . S
H1732 C1718 0.960 . S
H1733 C1719 0.961 . S
H1734 C1719 0.961 . S
H1735 C1719 0.961 . S
H1736 C1720 0.931 . S
H1737 C1725 0.930 . S
H1738 C1726 0.956 . S
H1739 C1726 0.961 . S
H1740 C1726 0.961 . S
H1741 C1727 0.958 . S
H1742 C1727 0.961 . S
H1743 C1727 0.960 . S
C1744 C1745 1.391 . S
C1744 C1746 1.394 . S
C1744 H1760 0.931 . S
C1745 C1744 1.391 . S
C1745 C1749 1.376 . S
C1746 C1744 1.394 . S
C1746 C1747 1.369 . S
C1746 C1750 1.531 . S
C1747 C1746 1.369 . S
C1747 C1748 1.410 1_545 S
C1747 C1755 1.503 . S
C1748 C1747 1.410 1_565 S
C1748 C1749 1.392 1_565 S
C1748 C1751 1.511 . S
C1749 C1745 1.376 . S
C1749 C1748 1.392 1_545 S
C1749 H1761 0.929 1_545 S
C1750 C1746 1.531 . S
C1750 H1762 0.960 . S
C1750 H1763 0.962 . S
C1750 H1764 0.960 . S
C1751 C1748 1.511 . S
C1751 H1765 0.961 . S
C1751 H1766 0.961 . S
C1751 H1767 0.961 . S
C1752 C1753 1.370 . S
C1752 C1754 1.363 . S
C1752 H1768 0.931 . S
C1753 C1752 1.370 . S
C1753 C1757 1.408 . S
C1754 C1752 1.363 . S
C1754 C1755 1.370 . S
C1754 C1758 1.524 . S
C1755 C1747 1.503 . S
C1755 C1754 1.370 . S
C1755 C1756 1.403 . S
C1756 C1755 1.403 . S
C1756 C1757 1.404 . S
C1756 C1759 1.545 . S
C1757 C1753 1.408 . S
C1757 C1756 1.404 . S
C1757 H1769 0.930 1_545 S
C1758 C1754 1.524 . S
C1758 H1770 0.956 . S
C1758 H1771 0.961 . S
C1758 H1772 0.961 . S
C1759 C1756 1.545 . S
C1759 H1773 0.977 . S
C1759 H1774 0.943 1_545 S
C1759 H1775 0.953 1_545 S
H1760 C1744 0.931 . S
H1761 C1749 0.929 1_565 S
H1762 C1750 0.960 . S
H1763 C1750 0.962 . S
H1764 C1750 0.960 . S
H1765 C1751 0.961 . S
H1766 C1751 0.961 . S
H1767 C1751 0.961 . S
H1768 C1752 0.931 . S
H1769 C1757 0.930 1_565 S
H1770 C1758 0.956 . S
H1771 C1758 0.961 . S
H1772 C1758 0.961 . S
H1773 C1759 0.977 . S
H1774 C1759 0.943 1_565 S
H1775 C1759 0.953 1_565 S
C1776 C1777 1.391 . S
C1776 C1778 1.394 . S
C1776 H1792 0.931 . S
C1777 C1776 1.391 . S
C1777 C1781 1.376 . S
C1778 C1776 1.394 . S
C1778 C1779 1.369 . S
C1778 C1782 1.531 . S
C1779 C1778 1.369 . S
C1779 C1780 1.410 . S
C1779 C1787 1.503 . S
C1780 C1779 1.410 . S
C1780 C1781 1.392 . S
C1780 C1783 1.511 . S
C1781 C1777 1.376 . S
C1781 C1780 1.392 . S
C1781 H1793 0.929 . S
C1782 C1778 1.531 . S
C1782 H1794 0.960 . S
C1782 H1795 0.962 . S
C1782 H1796 0.960 . S
C1783 C1780 1.511 . S
C1783 H1797 0.961 . S
C1783 H1798 0.961 . S
C1783 H1799 0.961 . S
C1784 C1785 1.370 . S
C1784 C1786 1.363 . S
C1784 H1800 0.931 . S
C1785 C1784 1.370 . S
C1785 C1789 1.408 . S
C1786 C1784 1.363 . S
C1786 C1787 1.370 . S
C1786 C1790 1.524 . S
C1787 C1779 1.503 . S
C1787 C1786 1.370 . S
C1787 C1788 1.403 . S
C1788 C1787 1.403 . S
C1788 C1789 1.404 . S
C1788 C1791 1.539 . S
C1789 C1785 1.408 . S
C1789 C1788 1.404 . S
C1789 H1801 0.930 . S
C1790 C1786 1.524 . S
C1790 H1802 0.956 . S
C1790 H1803 0.961 . S
C1790 H1804 0.961 . S
C1791 C1788 1.539 . S
C1791 H1805 0.958 . S
C1791 H1806 0.961 . S
C1791 H1807 0.960 . S
H1792 C1776 0.931 . S
H1793 C1781 0.929 . S
H1794 C1782 0.960 . S
H1795 C1782 0.962 . S
H1796 C1782 0.960 . S
H1797 C1783 0.961 . S
H1798 C1783 0.961 . S
H1799 C1783 0.961 . S
H1800 C1784 0.931 . S
H1801 C1789 0.930 . S
H1802 C1790 0.956 . S
H1803 C1790 0.961 . S
H1804 C1790 0.961 . S
H1805 C1791 0.958 . S
H1806 C1791 0.961 . S
H1807 C1791 0.960 . S
C1808 C1809 1.391 . S
C1808 C1810 1.394 . S
C1808 H1824 0.931 . S
C1809 C1808 1.391 . S
C1809 C1813 1.376 . S
C1810 C1808 1.394 . S
C1810 C1811 1.369 . S
C1810 C1814 1.531 . S
C1811 C1810 1.369 . S
C1811 C1812 1.410 . S
C1811 C1819 1.503 . S
C1812 C1811 1.410 . S
C1812 C1813 1.392 . S
C1812 C1815 1.511 . S
C1813 C1809 1.376 . S
C1813 C1812 1.392 . S
C1813 H1825 0.929 . S
C1814 C1810 1.531 . S
C1814 H1826 0.960 . S
C1814 H1827 0.962 . S
C1814 H1828 0.960 . S
C1815 C1812 1.511 . S
C1815 H1829 0.961 . S
C1815 H1830 0.961 . S
C1815 H1831 0.961 . S
C1816 C1817 1.370 . S
C1816 C1818 1.363 . S
C1816 H1832 0.931 . S
C1817 C1816 1.370 . S
C1817 C1821 1.408 . S
C1818 C1816 1.363 . S
C1818 C1819 1.370 . S
C1818 C1822 1.524 . S
C1819 C1811 1.503 . S
C1819 C1818 1.370 . S
C1819 C1820 1.403 . S
C1820 C1819 1.403 . S
C1820 C1821 1.404 . S
C1820 C1823 1.539 . S
C1821 C1817 1.408 . S
C1821 C1820 1.404 . S
C1821 H1833 0.930 . S
C1822 C1818 1.524 . S
C1822 H1834 0.956 . S
C1822 H1835 0.961 . S
C1822 H1836 0.961 . S
C1823 C1820 1.539 . S
C1823 H1837 0.958 . S
C1823 H1838 0.961 . S
C1823 H1839 0.960 . S
H1824 C1808 0.931 . S
H1825 C1813 0.929 . S
H1826 C1814 0.960 . S
H1827 C1814 0.962 . S
H1828 C1814 0.960 . S
H1829 C1815 0.961 . S
H1830 C1815 0.961 . S
H1831 C1815 0.961 . S
H1832 C1816 0.931 . S
H1833 C1821 0.930 . S
H1834 C1822 0.956 . S
H1835 C1822 0.961 . S
H1836 C1822 0.961 . S
H1837 C1823 0.958 . S
H1838 C1823 0.961 . S
H1839 C1823 0.960 . S
C1840 C1841 1.391 . S
C1840 C1842 1.394 . S
C1840 H1856 0.931 . S
C1841 C1840 1.391 . S
C1841 C1845 1.376 . S
C1842 C1840 1.394 . S
C1842 C1843 1.369 . S
C1842 C1846 1.531 . S
C1843 C1842 1.369 . S
C1843 C1844 1.410 . S
C1843 C1851 1.503 . S
C1844 C1843 1.410 . S
C1844 C1845 1.392 . S
C1844 C1847 1.511 . S
C1845 C1841 1.376 . S
C1845 C1844 1.392 . S
C1845 H1857 0.929 . S
C1846 C1842 1.531 . S
C1846 H1858 0.960 . S
C1846 H1859 0.962 . S
C1846 H1860 0.960 . S
C1847 C1844 1.511 . S
C1847 H1861 0.961 . S
C1847 H1862 0.961 . S
C1847 H1863 0.961 . S
C1848 C1849 1.370 . S
C1848 C1850 1.363 . S
C1848 H1864 0.931 . S
C1849 C1848 1.370 . S
C1849 C1853 1.408 . S
C1850 C1848 1.363 . S
C1850 C1851 1.370 . S
C1850 C1854 1.524 . S
C1851 C1843 1.503 . S
C1851 C1850 1.370 . S
C1851 C1852 1.403 . S
C1852 C1851 1.403 . S
C1852 C1853 1.404 . S
C1852 C1855 1.539 . S
C1853 C1849 1.408 . S
C1853 C1852 1.404 . S
C1853 H1865 0.930 . S
C1854 C1850 1.524 . S
C1854 H1866 0.956 . S
C1854 H1867 0.961 . S
C1854 H1868 0.961 . S
C1855 C1852 1.539 . S
C1855 H1869 0.958 . S
C1855 H1870 0.961 . S
C1855 H1871 0.960 . S
H1856 C1840 0.931 . S
H1857 C1845 0.929 . S
H1858 C1846 0.960 . S
H1859 C1846 0.962 . S
H1860 C1846 0.960 . S
H1861 C1847 0.961 . S
H1862 C1847 0.961 . S
H1863 C1847 0.961 . S
H1864 C1848 0.931 . S
H1865 C1853 0.930 . S
H1866 C1854 0.956 . S
H1867 C1854 0.961 . S
H1868 C1854 0.961 . S
H1869 C1855 0.958 . S
H1870 C1855 0.961 . S
H1871 C1855 0.960 . S
C1872 C1873 1.391 . S
C1872 C1874 1.394 . S
C1872 H1888 0.931 . S
C1873 C1872 1.391 . S
C1873 C1877 1.376 . S
C1874 C1872 1.394 . S
C1874 C1875 1.369 . S
C1874 C1878 1.531 . S
C1875 C1874 1.369 . S
C1875 C1876 1.410 . S
C1875 C1883 1.503 . S
C1876 C1875 1.410 . S
C1876 C1877 1.392 . S
C1876 C1879 1.511 . S
C1877 C1873 1.376 . S
C1877 C1876 1.392 . S
C1877 H1889 0.929 1_655 S
C1878 C1874 1.531 . S
C1878 H1890 0.960 . S
C1878 H1891 0.962 . S
C1878 H1892 0.960 . S
C1879 C1876 1.511 . S
C1879 H1893 0.946 1_655 S
C1879 H1894 0.961 . S
C1879 H1895 0.961 1_545 S
C1880 C1881 1.370 . S
C1880 C1882 1.363 . S
C1880 H1896 0.931 . S
C1881 C1880 1.370 . S
C1881 C1885 1.408 1_545 S
C1882 C1880 1.363 . S
C1882 C1883 1.370 . S
C1882 C1886 1.524 . S
C1883 C1875 1.503 . S
C1883 C1882 1.370 . S
C1883 C1884 1.403 1_545 S
C1884 C1883 1.403 1_565 S
C1884 C1885 1.404 . S
C1884 C1887 1.539 . S
C1885 C1881 1.408 1_565 S
C1885 C1884 1.404 . S
C1885 H1897 0.930 . S
C1886 C1882 1.524 . S
C1886 H1898 0.956 . S
C1886 H1899 0.961 . S
C1886 H1900 0.961 . S
C1887 C1884 1.539 . S
C1887 H1901 0.958 . S
C1887 H1902 0.961 . S
C1887 H1903 0.960 . S
H1888 C1872 0.931 . S
H1889 C1877 0.929 1_455 S
H1890 C1878 0.960 . S
H1891 C1878 0.962 . S
H1892 C1878 0.960 . S
H1893 C1879 0.946 1_455 S
H1894 C1879 0.961 . S
H1895 C1879 0.961 1_565 S
H1896 C1880 0.931 . S
H1897 C1885 0.930 . S
H1898 C1886 0.956 . S
H1899 C1886 0.961 . S
H1900 C1886 0.961 . S
H1901 C1887 0.958 . S
H1902 C1887 0.961 . S
H1903 C1887 0.960 . S
C1904 C1905 1.391 . S
C1904 C1906 1.394 . S
C1904 H1920 0.931 . S
C1905 C1904 1.391 . S
C1905 C1909 1.376 . S
C1906 C1904 1.394 . S
C1906 C1907 1.369 . S
C1906 C1910 1.531 . S
C1907 C1906 1.369 . S
C1907 C1908 1.410 . S
C1907 C1915 1.503 . S
C1908 C1907 1.410 . S
C1908 C1909 1.392 . S
C1908 C1911 1.511 . S
C1909 C1905 1.376 . S
C1909 C1908 1.392 . S
C1909 H1921 0.929 . S
C1910 C1906 1.531 . S
C1910 H1922 0.960 . S
C1910 H1923 0.962 . S
C1910 H1924 0.960 . S
C1911 C1908 1.511 . S
C1911 H1925 0.961 . S
C1911 H1926 0.961 . S
C1911 H1927 0.961 . S
C1912 C1913 1.370 . S
C1912 C1914 1.363 . S
C1912 H1928 0.931 . S
C1913 C1912 1.370 . S
C1913 C1917 1.408 . S
C1914 C1912 1.363 . S
C1914 C1915 1.370 . S
C1914 C1918 1.524 . S
C1915 C1907 1.503 . S
C1915 C1914 1.370 . S
C1915 C1916 1.403 . S
C1916 C1915 1.403 . S
C1916 C1917 1.404 . S
C1916 C1919 1.539 . S
C1917 C1913 1.408 . S
C1917 C1916 1.404 . S
C1917 H1929 0.930 . S
C1918 C1914 1.524 . S
C1918 H1930 0.956 . S
C1918 H1931 0.961 . S
C1918 H1932 0.961 . S
C1919 C1916 1.539 . S
C1919 H1933 0.958 . S
C1919 H1934 0.961 . S
C1919 H1935 0.960 . S
H1920 C1904 0.931 . S
H1921 C1909 0.929 . S
H1922 C1910 0.960 . S
H1923 C1910 0.962 . S
H1924 C1910 0.960 . S
H1925 C1911 0.961 . S
H1926 C1911 0.961 . S
H1927 C1911 0.961 . S
H1928 C1912 0.931 . S
H1929 C1917 0.930 . S
H1930 C1918 0.956 . S
H1931 C1918 0.961 . S
H1932 C1918 0.961 . S
H1933 C1919 0.958 . S
H1934 C1919 0.961 . S
H1935 C1919 0.960 . S
C1936 C1937 1.391 . S
C1936 C1938 1.394 . S
C1936 H1952 0.931 . S
C1937 C1936 1.391 . S
C1937 C1941 1.376 . S
C1938 C1936 1.394 . S
C1938 C1939 1.369 . S
C1938 C1942 1.531 . S
C1939 C1938 1.369 . S
C1939 C1940 1.410 . S
C1939 C1947 1.503 . S
C1940 C1939 1.410 . S
C1940 C1941 1.392 . S
C1940 C1943 1.511 . S
C1941 C1937 1.376 . S
C1941 C1940 1.392 . S
C1941 H1953 0.929 . S
C1942 C1938 1.531 . S
C1942 H1954 0.960 . S
C1942 H1955 0.962 . S
C1942 H1956 0.960 . S
C1943 C1940 1.511 . S
C1943 H1957 0.961 . S
C1943 H1958 0.961 . S
C1943 H1959 0.961 . S
C1944 C1945 1.370 . S
C1944 C1946 1.363 . S
C1944 H1960 0.931 . S
C1945 C1944 1.370 . S
C1945 C1949 1.408 . S
C1946 C1944 1.363 . S
C1946 C1947 1.370 . S
C1946 C1950 1.524 . S
C1947 C1939 1.503 . S
C1947 C1946 1.370 . S
C1947 C1948 1.403 . S
C1948 C1947 1.403 . S
C1948 C1949 1.404 . S
C1948 C1951 1.539 . S
C1949 C1945 1.408 . S
C1949 C1948 1.404 . S
C1949 H1961 0.930 . S
C1950 C1946 1.524 . S
C1950 H1962 0.956 . S
C1950 H1963 0.961 . S
C1950 H1964 0.961 . S
C1951 C1948 1.539 . S
C1951 H1965 0.958 . S
C1951 H1966 0.961 . S
C1951 H1967 0.960 . S
H1952 C1936 0.931 . S
H1953 C1941 0.929 . S
H1954 C1942 0.960 . S
H1955 C1942 0.962 . S
H1956 C1942 0.960 . S
H1957 C1943 0.961 . S
H1958 C1943 0.961 . S
H1959 C1943 0.961 . S
H1960 C1944 0.931 . S
H1961 C1949 0.930 . S
H1962 C1950 0.956 . S
H1963 C1950 0.961 . S
H1964 C1950 0.961 . S
H1965 C1951 0.958 . S
H1966 C1951 0.961 . S
H1967 C1951 0.960 . S
C1968 C1969 1.391 . S
C1968 C1970 1.394 . S
C1968 H1984 0.931 . S
C1969 C1968 1.391 . S
C1969 C1973 1.376 . S
C1970 C1968 1.394 . S
C1970 C1971 1.369 . S
C1970 C1974 1.531 . S
C1971 C1970 1.369 . S
C1971 C1972 1.410 . S
C1971 C1979 1.503 . S
C1972 C1971 1.410 . S
C1972 C1973 1.392 . S
C1972 C1975 1.511 . S
C1973 C1969 1.376 . S
C1973 C1972 1.392 . S
C1973 H1985 0.929 . S
C1974 C1970 1.531 . S
C1974 H1986 0.960 . S
C1974 H1987 0.962 . S
C1974 H1988 0.960 . S
C1975 C1972 1.511 . S
C1975 H1989 0.961 . S
C1975 H1990 0.961 . S
C1975 H1991 0.961 . S
C1976 C1977 1.370 . S
C1976 C1978 1.363 . S
C1976 H1992 0.931 . S
C1977 C1976 1.370 . S
C1977 C1981 1.408 . S
C1978 C1976 1.363 . S
C1978 C1979 1.370 . S
C1978 C1982 1.524 . S
C1979 C1971 1.503 . S
C1979 C1978 1.370 . S
C1979 C1980 1.403 . S
C1980 C1979 1.403 . S
C1980 C1981 1.404 . S
C1980 C1983 1.539 . S
C1981 C1977 1.408 . S
C1981 C1980 1.404 . S
C1981 H1993 0.930 . S
C1982 C1978 1.524 . S
C1982 H1994 0.956 . S
C1982 H1995 0.961 . S
C1982 H1996 0.961 . S
C1983 C1980 1.539 . S
C1983 H1997 0.958 . S
C1983 H1998 0.961 . S
C1983 H1999 0.960 . S
H1984 C1968 0.931 . S
H1985 C1973 0.929 . S
H1986 C1974 0.960 . S
H1987 C1974 0.962 . S
H1988 C1974 0.960 . S
H1989 C1975 0.961 . S
H1990 C1975 0.961 . S
H1991 C1975 0.961 . S
H1992 C1976 0.931 . S
H1993 C1981 0.930 . S
H1994 C1982 0.956 . S
H1995 C1982 0.961 . S
H1996 C1982 0.961 . S
H1997 C1983 0.958 . S
H1998 C1983 0.961 . S
H1999 C1983 0.960 . S
C2000 C2001 1.391 . S
C2000 C2002 1.394 . S
C2000 H2016 0.931 . S
C2001 C2000 1.391 . S
C2001 C2005 1.376 . S
C2002 C2000 1.394 . S
C2002 C2003 1.369 . S
C2002 C2006 1.531 . S
C2003 C2002 1.369 . S
C2003 C2004 1.410 1_655 S
C2003 C2011 1.503 . S
C2004 C2003 1.410 1_455 S
C2004 C2005 1.392 1_455 S
C2004 C2007 1.511 . S
C2005 C2001 1.376 . S
C2005 C2004 1.392 1_655 S
C2005 H2017 0.936 1_655 S
C2006 C2002 1.531 . S
C2006 H2018 0.960 . S
C2006 H2019 0.962 . S
C2006 H2020 0.960 . S
C2007 C2004 1.511 . S
C2007 H2021 0.961 . S
C2007 H2022 0.961 . S
C2007 H2023 0.961 . S
C2008 C2009 1.370 1_655 S
C2008 C2010 1.363 . S
C2008 H2024 0.931 . S
C2009 C2008 1.370 1_455 S
C2009 C2013 1.408 . S
C2010 C2008 1.363 . S
C2010 C2011 1.370 . S
C2010 C2014 1.524 . S
C2011 C2003 1.503 . S
C2011 C2010 1.370 . S
C2011 C2012 1.403 1_655 S
C2012 C2011 1.403 1_455 S
C2012 C2013 1.404 . S
C2012 C2015 1.539 . S
C2013 C2009 1.408 . S
C2013 C2012 1.404 . S
C2013 H2025 0.930 . S
C2014 C2010 1.524 . S
C2014 H2026 0.956 . S
C2014 H2027 0.961 . S
C2014 H2028 0.961 . S
C2015 C2012 1.539 . S
C2015 H2029 0.958 . S
C2015 H2030 0.961 . S
C2015 H2031 0.960 . S
H2016 C2000 0.931 . S
H2017 C2005 0.936 1_455 S
H2018 C2006 0.960 . S
H2019 C2006 0.962 . S
H2020 C2006 0.960 . S
H2021 C2007 0.961 . S
H2022 C2007 0.961 . S
H2023 C2007 0.961 . S
H2024 C2008 0.931 . S
H2025 C2013 0.930 . S
H2026 C2014 0.956 . S
H2027 C2014 0.961 . S
H2028 C2014 0.961 . S
H2029 C2015 0.958 . S
H2030 C2015 0.961 . S
H2031 C2015 0.960 . S
C2032 C2033 1.391 . S
C2032 C2034 1.394 . S
C2032 H2048 0.931 . S
C2033 C2032 1.391 . S
C2033 C2037 1.376 . S
C2034 C2032 1.394 . S
C2034 C2035 1.369 . S
C2034 C2038 1.531 . S
C2035 C2034 1.369 . S
C2035 C2036 1.410 . S
C2035 C2043 1.503 . S
C2036 C2035 1.410 . S
C2036 C2037 1.392 . S
C2036 C2039 1.511 . S
C2037 C2033 1.376 . S
C2037 C2036 1.392 . S
C2037 H2049 0.929 . S
C2038 C2034 1.531 . S
C2038 H2050 0.960 . S
C2038 H2051 0.962 . S
C2038 H2052 0.960 . S
C2039 C2036 1.511 . S
C2039 H2053 0.961 . S
C2039 H2054 0.961 . S
C2039 H2055 0.961 . S
C2040 C2041 1.370 . S
C2040 C2042 1.363 . S
C2040 H2056 0.931 . S
C2041 C2040 1.370 . S
C2041 C2045 1.408 . S
C2042 C2040 1.363 . S
C2042 C2043 1.370 . S
C2042 C2046 1.524 . S
C2043 C2035 1.503 . S
C2043 C2042 1.370 . S
C2043 C2044 1.403 . S
C2044 C2043 1.403 . S
C2044 C2045 1.404 . S
C2044 C2047 1.539 . S
C2045 C2041 1.408 . S
C2045 C2044 1.404 . S
C2045 H2057 0.930 . S
C2046 C2042 1.524 . S
C2046 H2058 0.956 . S
C2046 H2059 0.961 . S
C2046 H2060 0.961 . S
C2047 C2044 1.539 . S
C2047 H2061 0.958 . S
C2047 H2062 0.961 . S
C2047 H2063 0.960 . S
H2048 C2032 0.931 . S
H2049 C2037 0.929 . S
H2050 C2038 0.960 . S
H2051 C2038 0.962 . S
H2052 C2038 0.960 . S
H2053 C2039 0.961 . S
H2054 C2039 0.961 . S
H2055 C2039 0.961 . S
H2056 C2040 0.931 . S
H2057 C2045 0.930 . S
H2058 C2046 0.956 . S
H2059 C2046 0.961 . S
H2060 C2046 0.961 . S
H2061 C2047 0.958 . S
H2062 C2047 0.961 . S
H2063 C2047 0.960 . S
C2064 C2065 1.391 . S
C2064 C2066 1.394 . S
C2064 H2080 0.931 . S
C2065 C2064 1.391 . S
C2065 C2069 1.376 . S
C2066 C2064 1.394 . S
C2066 C2067 1.369 . S
C2066 C2070 1.531 . S
C2067 C2066 1.369 . S
C2067 C2068 1.410 . S
C2067 C2075 1.503 . S
C2068 C2067 1.410 . S
C2068 C2069 1.392 . S
C2068 C2071 1.511 . S
C2069 C2065 1.376 . S
C2069 C2068 1.392 . S
C2069 H2081 0.929 1_556 S
C2070 C2066 1.531 . S
C2070 H2082 0.960 . S
C2070 H2083 0.962 . S
C2070 H2084 0.960 . S
C2071 C2068 1.511 . S
C2071 H2085 0.961 1_556 S
C2071 H2086 0.961 . S
C2071 H2087 0.961 1_455 S
C2072 C2073 1.370 . S
C2072 C2074 1.363 . S
C2072 H2088 0.931 . S
C2073 C2072 1.370 . S
C2073 C2077 1.408 1_455 S
C2074 C2072 1.363 . S
C2074 C2075 1.370 . S
C2074 C2078 1.524 . S
C2075 C2067 1.503 . S
C2075 C2074 1.370 . S
C2075 C2076 1.403 1_455 S
C2076 C2075 1.403 1_655 S
C2076 C2077 1.404 . S
C2076 C2079 1.539 . S
C2077 C2073 1.408 1_655 S
C2077 C2076 1.404 . S
C2077 H2089 0.930 . S
C2078 C2074 1.524 . S
C2078 H2090 0.956 . S
C2078 H2091 0.961 . S
C2078 H2092 0.961 . S
C2079 C2076 1.539 . S
C2079 H2093 0.958 . S
C2079 H2094 0.961 . S
C2079 H2095 0.960 . S
H2080 C2064 0.931 . S
H2081 C2069 0.929 1_554 S
H2082 C2070 0.960 . S
H2083 C2070 0.962 . S
H2084 C2070 0.960 . S
H2085 C2071 0.961 1_554 S
H2086 C2071 0.961 . S
H2087 C2071 0.961 1_655 S
H2088 C2072 0.931 . S
H2089 C2077 0.930 . S
H2090 C2078 0.956 . S
H2091 C2078 0.961 . S
H2092 C2078 0.961 . S
H2093 C2079 0.958 . S
H2094 C2079 0.961 . S
H2095 C2079 0.960 . S
C2096 C2097 1.391 . S
C2096 C2098 1.394 . S
C2096 H2112 0.931 . S
C2097 C2096 1.391 . S
C2097 C2101 1.376 . S
C2098 C2096 1.394 . S
C2098 C2099 1.369 . S
C2098 C2102 1.531 . S
C2099 C2098 1.369 . S
C2099 C2100 1.410 . S
C2099 C2107 1.503 . S
C2100 C2099 1.410 . S
C2100 C2101 1.392 . S
C2100 C2103 1.511 . S
C2101 C2097 1.376 . S
C2101 C2100 1.392 . S
C2101 H2113 0.929 . S
C2102 C2098 1.531 . S
C2102 H2114 0.960 . S
C2102 H2115 0.962 . S
C2102 H2116 0.960 . S
C2103 C2100 1.511 . S
C2103 H2117 0.961 . S
C2103 H2118 0.961 . S
C2103 H2119 0.961 . S
C2104 C2105 1.370 . S
C2104 C2106 1.363 . S
C2104 H2120 0.931 . S
C2105 C2104 1.370 . S
C2105 C2109 1.408 . S
C2106 C2104 1.363 . S
C2106 C2107 1.370 . S
C2106 C2110 1.524 . S
C2107 C2099 1.503 . S
C2107 C2106 1.370 . S
C2107 C2108 1.403 . S
C2108 C2107 1.403 . S
C2108 C2109 1.404 . S
C2108 C2111 1.539 . S
C2109 C2105 1.408 . S
C2109 C2108 1.404 . S
C2109 H2121 0.930 . S
C2110 C2106 1.524 . S
C2110 H2122 0.956 . S
C2110 H2123 0.961 . S
C2110 H2124 0.961 . S
C2111 C2108 1.539 . S
C2111 H2125 0.958 . S
C2111 H2126 0.961 . S
C2111 H2127 0.960 . S
H2112 C2096 0.931 . S
H2113 C2101 0.929 . S
H2114 C2102 0.960 . S
H2115 C2102 0.962 . S
H2116 C2102 0.960 . S
H2117 C2103 0.961 . S
H2118 C2103 0.961 . S
H2119 C2103 0.961 . S
H2120 C2104 0.931 . S
H2121 C2109 0.930 . S
H2122 C2110 0.956 . S
H2123 C2110 0.961 . S
H2124 C2110 0.961 . S
H2125 C2111 0.958 . S
H2126 C2111 0.961 . S
H2127 C2111 0.960 . S
C2128 C2129 1.391 . S
C2128 C2130 1.394 . S
C2128 H2144 0.931 . S
C2129 C2128 1.391 . S
C2129 C2133 1.376 . S
C2130 C2128 1.394 . S
C2130 C2131 1.369 . S
C2130 C2134 1.531 . S
C2131 C2130 1.369 . S
C2131 C2132 1.410 . S
C2131 C2139 1.503 . S
C2132 C2131 1.410 . S
C2132 C2133 1.392 . S
C2132 C2135 1.511 . S
C2133 C2129 1.376 . S
C2133 C2132 1.392 . S
C2133 H2145 0.929 . S
C2134 C2130 1.531 . S
C2134 H2146 0.960 . S
C2134 H2147 0.962 . S
C2134 H2148 0.960 . S
C2135 C2132 1.511 . S
C2135 H2149 0.961 . S
C2135 H2150 0.961 . S
C2135 H2151 0.961 . S
C2136 C2137 1.370 . S
C2136 C2138 1.363 . S
C2136 H2152 0.931 . S
C2137 C2136 1.370 . S
C2137 C2141 1.408 . S
C2138 C2136 1.363 . S
C2138 C2139 1.370 . S
C2138 C2142 1.524 . S
C2139 C2131 1.503 . S
C2139 C2138 1.370 . S
C2139 C2140 1.403 . S
C2140 C2139 1.403 . S
C2140 C2141 1.404 . S
C2140 C2143 1.539 . S
C2141 C2137 1.408 . S
C2141 C2140 1.404 . S
C2141 H2153 0.930 . S
C2142 C2138 1.524 . S
C2142 H2154 0.956 . S
C2142 H2155 0.961 . S
C2142 H2156 0.961 . S
C2143 C2140 1.539 . S
C2143 H2157 0.958 . S
C2143 H2158 0.961 . S
C2143 H2159 0.960 . S
H2144 C2128 0.931 . S
H2145 C2133 0.929 . S
H2146 C2134 0.960 . S
H2147 C2134 0.962 . S
H2148 C2134 0.960 . S
H2149 C2135 0.961 . S
H2150 C2135 0.961 . S
H2151 C2135 0.961 . S
H2152 C2136 0.931 . S
H2153 C2141 0.930 . S
H2154 C2142 0.956 . S
H2155 C2142 0.961 . S
H2156 C2142 0.961 . S
H2157 C2143 0.958 . S
H2158 C2143 0.961 . S
H2159 C2143 0.960 . S
C2160 C2161 1.391 . S
C2160 C2162 1.394 . S
C2160 H2176 0.931 . S
C2161 C2160 1.391 . S
C2161 C2165 1.376 . S
C2162 C2160 1.394 . S
C2162 C2163 1.369 . S
C2162 C2166 1.531 . S
C2163 C2162 1.369 . S
C2163 C2164 1.410 . S
C2163 C2171 1.503 . S
C2164 C2163 1.410 . S
C2164 C2165 1.392 . S
C2164 C2167 1.511 . S
C2165 C2161 1.376 . S
C2165 C2164 1.392 . S
C2165 H2177 0.929 . S
C2166 C2162 1.531 . S
C2166 H2178 0.960 . S
C2166 H2179 0.962 . S
C2166 H2180 0.960 . S
C2167 C2164 1.511 . S
C2167 H2181 0.961 . S
C2167 H2182 0.961 . S
C2167 H2183 0.961 . S
C2168 C2169 1.370 . S
C2168 C2170 1.363 . S
C2168 H2184 0.931 . S
C2169 C2168 1.370 . S
C2169 C2173 1.408 . S
C2170 C2168 1.363 . S
C2170 C2171 1.370 . S
C2170 C2174 1.524 . S
C2171 C2163 1.503 . S
C2171 C2170 1.370 . S
C2171 C2172 1.403 . S
C2172 C2171 1.403 . S
C2172 C2173 1.404 . S
C2172 C2175 1.539 . S
C2173 C2169 1.408 . S
C2173 C2172 1.404 . S
C2173 H2185 0.930 . S
C2174 C2170 1.524 . S
C2174 H2186 0.956 . S
C2174 H2187 0.961 . S
C2174 H2188 0.961 . S
C2175 C2172 1.539 . S
C2175 H2189 0.958 . S
C2175 H2190 0.961 . S
C2175 H2191 0.960 . S
H2176 C2160 0.931 . S
H2177 C2165 0.929 . S
H2178 C2166 0.960 . S
H2179 C2166 0.962 . S
H2180 C2166 0.960 . S
H2181 C2167 0.961 . S
H2182 C2167 0.961 . S
H2183 C2167 0.961 . S
H2184 C2168 0.931 . S
H2185 C2173 0.930 . S
H2186 C2174 0.956 . S
H2187 C2174 0.961 . S
H2188 C2174 0.961 . S
H2189 C2175 0.958 . S
H2190 C2175 0.961 . S
H2191 C2175 0.960 . S
C2192 C2193 1.391 . S
C2192 C2194 1.394 . S
C2192 H2208 0.931 . S
C2193 C2192 1.391 . S
C2193 C2197 1.376 . S
C2194 C2192 1.394 . S
C2194 C2195 1.369 . S
C2194 C2198 1.531 . S
C2195 C2194 1.369 . S
C2195 C2196 1.410 . S
C2195 C2203 1.503 . S
C2196 C2195 1.410 . S
C2196 C2197 1.392 . S
C2196 C2199 1.511 . S
C2197 C2193 1.376 . S
C2197 C2196 1.392 . S
C2197 H2209 0.929 . S
C2198 C2194 1.531 . S
C2198 H2210 0.960 . S
C2198 H2211 0.962 . S
C2198 H2212 0.960 . S
C2199 C2196 1.511 . S
C2199 H2213 0.961 . S
C2199 H2214 0.961 . S
C2199 H2215 0.961 . S
C2200 C2201 1.370 . S
C2200 C2202 1.363 . S
C2200 H2216 0.931 . S
C2201 C2200 1.370 . S
C2201 C2205 1.408 . S
C2202 C2200 1.363 . S
C2202 C2203 1.370 . S
C2202 C2206 1.524 . S
C2203 C2195 1.503 . S
C2203 C2202 1.370 . S
C2203 C2204 1.403 . S
C2204 C2203 1.403 . S
C2204 C2205 1.404 . S
C2204 C2207 1.539 . S
C2205 C2201 1.408 . S
C2205 C2204 1.404 . S
C2205 H2217 0.930 . S
C2206 C2202 1.524 . S
C2206 H2218 0.956 . S
C2206 H2219 0.961 . S
C2206 H2220 0.961 . S
C2207 C2204 1.539 . S
C2207 H2221 0.958 . S
C2207 H2222 0.961 . S
C2207 H2223 0.960 . S
H2208 C2192 0.931 . S
H2209 C2197 0.929 . S
H2210 C2198 0.960 . S
H2211 C2198 0.962 . S
H2212 C2198 0.960 . S
H2213 C2199 0.961 . S
H2214 C2199 0.961 . S
H2215 C2199 0.961 . S
H2216 C2200 0.931 . S
H2217 C2205 0.930 . S
H2218 C2206 0.956 . S
H2219 C2206 0.961 . S
H2220 C2206 0.961 . S
H2221 C2207 0.958 . S
H2222 C2207 0.961 . S
H2223 C2207 0.960 . S
C2224 C2225 1.391 . S
C2224 C2226 1.394 . S
C2224 H2240 0.931 . S
C2225 C2224 1.391 . S
C2225 C2229 1.376 . S
C2226 C2224 1.394 . S
C2226 C2227 1.369 . S
C2226 C2230 1.531 . S
C2227 C2226 1.369 . S
C2227 C2228 1.410 . S
C2227 C2235 1.503 . S
C2228 C2227 1.410 . S
C2228 C2229 1.392 . S
C2228 C2231 1.511 . S
C2229 C2225 1.376 . S
C2229 C2228 1.392 . S
C2229 H2241 0.929 . S
C2230 C2226 1.531 . S
C2230 H2242 0.960 . S
C2230 H2243 0.962 . S
C2230 H2244 0.960 . S
C2231 C2228 1.511 . S
C2231 H2245 0.961 . S
C2231 H2246 0.961 . S
C2231 H2247 0.961 . S
C2232 C2233 1.370 . S
C2232 C2234 1.363 . S
C2232 H2248 0.931 . S
C2233 C2232 1.370 . S
C2233 C2237 1.408 . S
C2234 C2232 1.363 . S
C2234 C2235 1.370 . S
C2234 C2238 1.524 . S
C2235 C2227 1.503 . S
C2235 C2234 1.370 . S
C2235 C2236 1.403 . S
C2236 C2235 1.403 . S
C2236 C2237 1.404 . S
C2236 C2239 1.539 . S
C2237 C2233 1.408 . S
C2237 C2236 1.404 . S
C2237 H2249 0.930 . S
C2238 C2234 1.524 . S
C2238 H2250 0.956 . S
C2238 H2251 0.961 . S
C2238 H2252 0.961 . S
C2239 C2236 1.539 . S
C2239 H2253 0.958 . S
C2239 H2254 0.961 . S
C2239 H2255 0.960 . S
H2240 C2224 0.931 . S
H2241 C2229 0.929 . S
H2242 C2230 0.960 . S
H2243 C2230 0.962 . S
H2244 C2230 0.960 . S
H2245 C2231 0.961 . S
H2246 C2231 0.961 . S
H2247 C2231 0.961 . S
H2248 C2232 0.931 . S
H2249 C2237 0.930 . S
H2250 C2238 0.956 . S
H2251 C2238 0.961 . S
H2252 C2238 0.961 . S
H2253 C2239 0.958 . S
H2254 C2239 0.961 . S
H2255 C2239 0.960 . S
C2256 C2257 1.391 . S
C2256 C2258 1.394 . S
C2256 H2272 0.931 . S
C2257 C2256 1.391 . S
C2257 C2261 1.376 . S
C2258 C2256 1.394 . S
C2258 C2259 1.369 . S
C2258 C2262 1.531 . S
C2259 C2258 1.369 . S
C2259 C2260 1.410 . S
C2259 C2267 1.503 . S
C2260 C2259 1.410 . S
C2260 C2261 1.392 . S
C2260 C2263 1.511 . S
C2261 C2257 1.376 . S
C2261 C2260 1.392 . S
C2261 H2273 0.929 . S
C2262 C2258 1.531 . S
C2262 H2274 0.960 . S
C2262 H2275 0.962 . S
C2262 H2276 0.960 . S
C2263 C2260 1.511 . S
C2263 H2277 0.961 . S
C2263 H2278 0.961 . S
C2263 H2279 0.961 . S
C2264 C2265 1.370 . S
C2264 C2266 1.363 . S
C2264 H2280 0.931 . S
C2265 C2264 1.370 . S
C2265 C2269 1.408 . S
C2266 C2264 1.363 . S
C2266 C2267 1.370 . S
C2266 C2270 1.524 . S
C2267 C2259 1.503 . S
C2267 C2266 1.370 . S
C2267 C2268 1.403 . S
C2268 C2267 1.403 . S
C2268 C2269 1.404 . S
C2268 C2271 1.539 . S
C2269 C2265 1.408 . S
C2269 C2268 1.404 . S
C2269 H2281 0.930 . S
C2270 C2266 1.524 . S
C2270 H2282 0.956 . S
C2270 H2283 0.961 . S
C2270 H2284 0.961 . S
C2271 C2268 1.539 . S
C2271 H2285 0.958 . S
C2271 H2286 0.961 . S
C2271 H2287 0.960 . S
H2272 C2256 0.931 . S
H2273 C2261 0.929 . S
H2274 C2262 0.960 . S
H2275 C2262 0.962 . S
H2276 C2262 0.960 . S
H2277 C2263 0.961 . S
H2278 C2263 0.961 . S
H2279 C2263 0.961 . S
H2280 C2264 0.931 . S
H2281 C2269 0.930 . S
H2282 C2270 0.956 . S
H2283 C2270 0.961 . S
H2284 C2270 0.961 . S
H2285 C2271 0.958 . S
H2286 C2271 0.961 . S
H2287 C2271 0.960 . S
C2288 C2289 1.391 . S
C2288 C2290 1.394 . S
C2288 H2304 0.931 . S
C2289 C2288 1.391 . S
C2289 C2293 1.376 . S
C2290 C2288 1.394 . S
C2290 C2291 1.369 . S
C2290 C2294 1.531 . S
C2291 C2290 1.369 . S
C2291 C2292 1.410 . S
C2291 C2299 1.503 . S
C2292 C2291 1.410 . S
C2292 C2293 1.392 . S
C2292 C2295 1.511 . S
C2293 C2289 1.376 . S
C2293 C2292 1.392 . S
C2293 H2305 0.929 . S
C2294 C2290 1.531 . S
C2294 H2306 0.960 . S
C2294 H2307 0.962 . S
C2294 H2308 0.960 . S
C2295 C2292 1.511 . S
C2295 H2309 0.961 . S
C2295 H2310 0.961 . S
C2295 H2311 0.961 . S
C2296 C2297 1.370 . S
C2296 C2298 1.363 . S
C2296 H2312 0.931 . S
C2297 C2296 1.370 . S
C2297 C2301 1.408 . S
C2298 C2296 1.363 . S
C2298 C2299 1.370 . S
C2298 C2302 1.524 . S
C2299 C2291 1.503 . S
C2299 C2298 1.370 . S
C2299 C2300 1.403 . S
C2300 C2299 1.403 . S
C2300 C2301 1.404 . S
C2300 C2303 1.539 . S
C2301 C2297 1.408 . S
C2301 C2300 1.404 . S
C2301 H2313 0.930 . S
C2302 C2298 1.524 . S
C2302 H2314 0.956 . S
C2302 H2315 0.961 . S
C2302 H2316 0.961 . S
C2303 C2300 1.539 . S
C2303 H2317 0.958 . S
C2303 H2318 0.961 . S
C2303 H2319 0.960 . S
H2304 C2288 0.931 . S
H2305 C2293 0.929 . S
H2306 C2294 0.960 . S
H2307 C2294 0.962 . S
H2308 C2294 0.960 . S
H2309 C2295 0.961 . S
H2310 C2295 0.961 . S
H2311 C2295 0.961 . S
H2312 C2296 0.931 . S
H2313 C2301 0.930 . S
H2314 C2302 0.956 . S
H2315 C2302 0.961 . S
H2316 C2302 0.961 . S
H2317 C2303 0.958 . S
H2318 C2303 0.961 . S
H2319 C2303 0.960 . S
C2320 C2321 1.391 . S
C2320 C2322 1.394 . S
C2320 H2336 0.931 . S
C2321 C2320 1.391 . S
C2321 C2325 1.376 . S
C2322 C2320 1.394 . S
C2322 C2323 1.369 . S
C2322 C2326 1.531 . S
C2323 C2322 1.369 . S
C2323 C2324 1.410 . S
C2323 C2331 1.503 . S
C2324 C2323 1.410 . S
C2324 C2325 1.392 . S
C2324 C2327 1.511 . S
C2325 C2321 1.376 . S
C2325 C2324 1.392 . S
C2325 H2337 0.929 . S
C2326 C2322 1.531 . S
C2326 H2338 0.960 . S
C2326 H2339 0.962 . S
C2326 H2340 0.960 . S
C2327 C2324 1.511 . S
C2327 H2341 0.961 . S
C2327 H2342 0.961 . S
C2327 H2343 0.961 . S
C2328 C2329 1.370 . S
C2328 C2330 1.363 . S
C2328 H2344 0.931 . S
C2329 C2328 1.370 . S
C2329 C2333 1.408 . S
C2330 C2328 1.363 . S
C2330 C2331 1.370 . S
C2330 C2334 1.524 . S
C2331 C2323 1.503 . S
C2331 C2330 1.370 . S
C2331 C2332 1.403 . S
C2332 C2331 1.403 . S
C2332 C2333 1.404 . S
C2332 C2335 1.539 . S
C2333 C2329 1.408 . S
C2333 C2332 1.404 . S
C2333 H2345 0.930 . S
C2334 C2330 1.524 . S
C2334 H2346 0.956 . S
C2334 H2347 0.961 . S
C2334 H2348 0.961 . S
C2335 C2332 1.539 . S
C2335 H2349 0.958 . S
C2335 H2350 0.961 . S
C2335 H2351 0.960 . S
H2336 C2320 0.931 . S
H2337 C2325 0.929 . S
H2338 C2326 0.960 . S
H2339 C2326 0.962 . S
H2340 C2326 0.960 . S
H2341 C2327 0.961 . S
H2342 C2327 0.961 . S
H2343 C2327 0.961 . S
H2344 C2328 0.931 . S
H2345 C2333 0.930 . S
H2346 C2334 0.956 . S
H2347 C2334 0.961 . S
H2348 C2334 0.961 . S
H2349 C2335 0.958 . S
H2350 C2335 0.961 . S
H2351 C2335 0.960 . S
C2352 C2353 1.391 . S
C2352 C2354 1.394 . S
C2352 H2368 0.931 . S
C2353 C2352 1.391 . S
C2353 C2357 1.376 . S
C2354 C2352 1.394 . S
C2354 C2355 1.369 . S
C2354 C2358 1.545 . S
C2355 C2354 1.369 . S
C2355 C2356 1.410 . S
C2355 C2363 1.503 . S
C2356 C2355 1.410 . S
C2356 C2357 1.392 . S
C2356 C2359 1.511 . S
C2357 C2353 1.376 . S
C2357 C2356 1.392 . S
C2357 H2369 0.929 . S
C2358 C2354 1.545 . S
C2358 H2370 0.931 1_556 S
C2358 H2371 1.004 . S
C2358 H2372 0.936 1_556 S
C2359 C2356 1.511 . S
C2359 H2373 0.961 . S
C2359 H2374 0.961 . S
C2359 H2375 0.961 . S
C2360 C2361 1.370 . S
C2360 C2362 1.363 . S
C2360 H2376 0.931 . S
C2361 C2360 1.370 . S
C2361 C2365 1.408 1_556 S
C2362 C2360 1.363 . S
C2362 C2363 1.370 . S
C2362 C2366 1.524 . S
C2363 C2355 1.503 . S
C2363 C2362 1.370 . S
C2363 C2364 1.403 1_556 S
C2364 C2363 1.403 1_554 S
C2364 C2365 1.404 . S
C2364 C2367 1.539 . S
C2365 C2361 1.408 1_554 S
C2365 C2364 1.404 . S
C2365 H2377 0.930 . S
C2366 C2362 1.524 . S
C2366 H2378 0.956 . S
C2366 H2379 0.961 . S
C2366 H2380 0.961 . S
C2367 C2364 1.539 . S
C2367 H2381 0.958 . S
C2367 H2382 0.961 . S
C2367 H2383 0.960 . S
H2368 C2352 0.931 . S
H2369 C2357 0.929 . S
H2370 C2358 0.931 1_554 S
H2371 C2358 1.004 . S
H2372 C2358 0.936 1_554 S
H2373 C2359 0.961 . S
H2374 C2359 0.961 . S
H2375 C2359 0.961 . S
H2376 C2360 0.931 . S
H2377 C2365 0.930 . S
H2378 C2366 0.956 . S
H2379 C2366 0.961 . S
H2380 C2366 0.961 . S
H2381 C2367 0.958 . S
H2382 C2367 0.961 . S
H2383 C2367 0.960 . S
C2384 C2385 1.391 . S
C2384 C2386 1.394 . S
C2384 H2400 0.931 . S
C2385 C2384 1.391 . S
C2385 C2389 1.376 . S
C2386 C2384 1.394 . S
C2386 C2387 1.369 . S
C2386 C2390 1.531 . S
C2387 C2386 1.369 . S
C2387 C2388 1.410 . S
C2387 C2395 1.503 . S
C2388 C2387 1.410 . S
C2388 C2389 1.392 . S
C2388 C2391 1.511 . S
C2389 C2385 1.376 . S
C2389 C2388 1.392 . S
C2389 H2401 0.929 . S
C2390 C2386 1.531 . S
C2390 H2402 0.960 . S
C2390 H2403 0.962 . S
C2390 H2404 0.960 . S
C2391 C2388 1.511 . S
C2391 H2405 0.961 . S
C2391 H2406 0.961 . S
C2391 H2407 0.961 . S
C2392 C2393 1.370 . S
C2392 C2394 1.363 . S
C2392 H2408 0.931 . S
C2393 C2392 1.370 . S
C2393 C2397 1.408 . S
C2394 C2392 1.363 . S
C2394 C2395 1.370 . S
C2394 C2398 1.524 . S
C2395 C2387 1.503 . S
C2395 C2394 1.370 . S
C2395 C2396 1.403 . S
C2396 C2395 1.403 . S
C2396 C2397 1.404 . S
C2396 C2399 1.539 . S
C2397 C2393 1.408 . S
C2397 C2396 1.404 . S
C2397 H2409 0.930 . S
C2398 C2394 1.524 . S
C2398 H2410 0.956 . S
C2398 H2411 0.961 . S
C2398 H2412 0.961 . S
C2399 C2396 1.539 . S
C2399 H2413 0.958 . S
C2399 H2414 0.961 . S
C2399 H2415 0.960 . S
H2400 C2384 0.931 . S
H2401 C2389 0.929 . S
H2402 C2390 0.960 . S
H2403 C2390 0.962 . S
H2404 C2390 0.960 . S
H2405 C2391 0.961 . S
H2406 C2391 0.961 . S
H2407 C2391 0.961 . S
H2408 C2392 0.931 . S
H2409 C2397 0.930 . S
H2410 C2398 0.956 . S
H2411 C2398 0.961 . S
H2412 C2398 0.961 . S
H2413 C2399 0.958 . S
H2414 C2399 0.961 . S
H2415 C2399 0.960 . S
C2416 C2417 1.391 . S
C2416 C2418 1.394 . S
C2416 H2432 0.931 . S
C2417 C2416 1.391 . S
C2417 C2421 1.376 . S
C2418 C2416 1.394 . S
C2418 C2419 1.369 . S
C2418 C2422 1.531 . S
C2419 C2418 1.369 . S
C2419 C2420 1.410 . S
C2419 C2427 1.503 . S
C2420 C2419 1.410 . S
C2420 C2421 1.392 . S
C2420 C2423 1.511 . S
C2421 C2417 1.376 . S
C2421 C2420 1.392 . S
C2421 H2433 0.929 . S
C2422 C2418 1.531 . S
C2422 H2434 0.960 . S
C2422 H2435 0.962 1_554 S
C2422 H2436 0.960 . S
C2423 C2420 1.511 . S
C2423 H2437 0.961 . S
C2423 H2438 0.961 . S
C2423 H2439 0.961 . S
C2424 C2425 1.370 1_556 S
C2424 C2426 1.363 . S
C2424 H2440 0.931 . S
C2425 C2424 1.370 1_554 S
C2425 C2429 1.408 . S
C2426 C2424 1.363 . S
C2426 C2427 1.370 1_556 S
C2426 C2430 1.524 . S
C2427 C2419 1.503 . S
C2427 C2426 1.370 1_554 S
C2427 C2428 1.403 . S
C2428 C2427 1.403 . S
C2428 C2429 1.404 . S
C2428 C2431 1.539 . S
C2429 C2425 1.408 . S
C2429 C2428 1.404 . S
C2429 H2441 0.930 . S
C2430 C2426 1.524 . S
C2430 H2442 0.956 . S
C2430 H2443 0.961 . S
C2430 H2444 0.961 . S
C2431 C2428 1.539 . S
C2431 H2445 0.958 . S
C2431 H2446 0.961 . S
C2431 H2447 0.960 . S
H2432 C2416 0.931 . S
H2433 C2421 0.929 . S
H2434 C2422 0.960 . S
H2435 C2422 0.962 1_556 S
H2436 C2422 0.960 . S
H2437 C2423 0.961 . S
H2438 C2423 0.961 . S
H2439 C2423 0.961 . S
H2440 C2424 0.931 . S
H2441 C2429 0.930 . S
H2442 C2430 0.956 . S
H2443 C2430 0.961 . S
H2444 C2430 0.961 . S
H2445 C2431 0.958 . S
H2446 C2431 0.961 . S
H2447 C2431 0.960 . S
C2448 C2449 1.391 . S
C2448 C2450 1.399 . S
C2448 H2464 0.931 1_554 S
C2449 C2448 1.391 . S
C2449 C2453 1.376 . S
C2450 C2448 1.399 . S
C2450 C2451 1.399 . S
C2450 C2454 1.495 1_554 S
C2451 C2450 1.399 . S
C2451 C2452 1.410 . S
C2451 C2459 1.503 . S
C2452 C2451 1.410 . S
C2452 C2453 1.392 . S
C2452 C2455 1.511 . S
C2453 C2449 1.376 . S
C2453 C2452 1.392 . S
C2453 H2465 0.929 . S
C2454 C2450 1.495 1_556 S
C2454 H2466 0.960 . S
C2454 H2467 0.962 . S
C2454 H2468 0.960 . S
C2455 C2452 1.511 . S
C2455 H2469 0.961 . S
C2455 H2470 0.961 . S
C2455 H2471 0.961 . S
C2456 C2457 1.370 . S
C2456 C2458 1.363 . S
C2456 H2472 0.931 . S
C2457 C2456 1.370 . S
C2457 C2461 1.408 . S
C2458 C2456 1.363 . S
C2458 C2459 1.370 . S
C2458 C2462 1.524 . S
C2459 C2451 1.503 . S
C2459 C2458 1.370 . S
C2459 C2460 1.403 . S
C2460 C2459 1.403 . S
C2460 C2461 1.404 . S
C2460 C2463 1.539 . S
C2461 C2457 1.408 . S
C2461 C2460 1.404 . S
C2461 H2473 0.930 . S
C2462 C2458 1.524 . S
C2462 H2474 0.956 . S
C2462 H2475 0.961 . S
C2462 H2476 0.961 . S
C2463 C2460 1.539 . S
C2463 H2477 0.958 1_554 S
C2463 H2478 0.961 . S
C2463 H2479 0.960 . S
H2464 C2448 0.931 1_556 S
H2465 C2453 0.929 . S
H2466 C2454 0.960 . S
H2467 C2454 0.962 . S
H2468 C2454 0.960 . S
H2469 C2455 0.961 . S
H2470 C2455 0.961 . S
H2471 C2455 0.961 . S
H2472 C2456 0.931 . S
H2473 C2461 0.930 . S
H2474 C2462 0.956 . S
H2475 C2462 0.961 . S
H2476 C2462 0.961 . S
H2477 C2463 0.958 1_556 S
H2478 C2463 0.961 . S
H2479 C2463 0.960 . S
C953 C514 1.408 . S
C945 C177 1.378 . S
C985 C562 1.630 . S
C977 C209 1.672 . S
C1009 C253 1.378 . S
C1017 C598 1.341 . S
C1049 C634 1.580 . S
C1041 C157 1.589 . S
C1081 C660 1.476 . S
C1073 C343 1.484 . S
C1113 C696 1.564 . S
C1105 C401 1.532 . S
C1137 C369 1.515 . S
C1145 C731 1.514 . S
C1177 C768 1.596 1_565 S
C1169 C317 1.558 . S
C1201 C375 1.451 . S
C1209 C802 1.442 . S
C1241 C850 1.597 . S
C1233 C305 1.602 . S
C1265 C349 1.462 . S
C1273 C803 1.471 . S
C1305 C840 1.612 . S
C1297 C413 1.533 . S
C1329 C241 1.435 . S
C1337 C886 1.394 . S
C1361 C151 1.572 . S
C1369 C875 1.590 . S
C1393 C189 1.418 . S
C1401 C876 1.497 . S
C1425 C215 1.628 . S
C1433 C874 1.633 1_655 S
C1457 C113 1.439 . S
C1465 C622 1.421 . S
C1489 C471 1.344 . S
C1497 C623 1.439 . S
C1529 C526 1.596 . S
C1521 C509 1.623 . S
C1561 C551 1.463 . S
C1553 C279 1.459 . S
C1585 C145 1.563 . S
C1593 C658 1.575 . S
C1625 C766 1.505 . S
C1617 C381 1.507 . S
C1657 C659 1.606 . S
C1649 C311 1.578 . S
C1689 C732 1.597 . S
C1681 C407 1.562 . S
C1721 C730 1.413 . S
C1713 C465 1.356 . S
C1745 C497 1.652 . S
C1753 C778 1.648 . S
C1777 C285 1.372 . S
C1785 C670 1.311 . S
C1817 C706 1.570 . S
C1809 C445 1.570 . S
C1841 C119 1.486 . S
C1849 C588 1.480 . S
C1881 C624 1.563 . S
C1873 C17 1.535 . S
C1913 C515 1.514 . S
C1905 C49 1.513 . S
C1945 C552 1.604 . S
C1937 C93 1.574 . S
C1969 C55 1.456 . S
C1977 C838 1.451 . S
C2001 C81 1.604 . S
C2009 C814 1.597 1_455 S
C2033 C125 1.471 . S
C2041 C839 1.470 . S
C2065 C29 1.583 . S
C2073 C804 1.606 . S
C2105 C922 1.378 . S
C2097 C273 1.445 . S
C2137 C911 1.585 . S
C2129 C439 1.544 . S
C2169 C912 1.494 . S
C2161 C477 1.413 . S
C2193 C503 1.629 . S
C2201 C910 1.632 . S
C2225 C337 1.452 . S
C2233 C694 1.435 . S
C2265 C695 1.435 . S
C2257 C183 1.397 . S
C2297 C742 1.594 . S
C2289 C221 1.632 . S
C2329 C767 1.468 . S
C2321 C247 1.453 . S
C2353 C433 1.547 . S
C2361 C586 1.579 . S
C2393 C550 1.505 . S
C2385 C61 1.509 . S
C2417 C87 1.600 . S
C2425 C587 1.600 . S
C2457 C516 1.598 . S
C2449 C23 1.543 . S
