# Generated by pormake.
# Topology rtl, (3,6)-cn, num edge types: 1
# Building blocks:
#     Node 0, Type 0, BuildingBlock: CUQRIR_clean_linker_1, # of connection points: 3
#     Node 1, Type 0, BuildingBlock: CUQRIR_clean_linker_1, # of connection points: 3
#     Node 2, Type 0, BuildingBlock: CUQRIR_clean_linker_1, # of connection points: 3
#     Node 3, Type 0, BuildingBlock: CUQRIR_clean_linker_1, # of connection points: 3
#     Node 4, Type 1, BuildingBlock: KUMBOL_clean_sbu_1, # of connection points: 6
#     Node 5, Type 1, BuildingBlock: KUMBOL_clean_sbu_1, # of connection points: 6
#     Edge 6, Type (0, 1), BuildingBlock: ZUJKAS_clean_linker_0, # of connection points: 2
#     Edge 7, Type (0, 1), BuildingBlock: ZUJKAS_clean_linker_0, # of connection points: 2
#     Edge 8, Type (0, 1), BuildingBlock: ZUJKAS_clean_linker_0, # of connection points: 2
#     Edge 9, Type (0, 1), BuildingBlock: ZUJKAS_clean_linker_0, # of connection points: 2
#     Edge 10, Type (0, 1), BuildingBlock: ZUJKAS_clean_linker_0, # of connection points: 2
#     Edge 11, Type (0, 1), BuildingBlock: ZUJKAS_clean_linker_0, # of connection points: 2
#     Edge 12, Type (0, 1), BuildingBlock: ZUJKAS_clean_linker_0, # of connection points: 2
#     Edge 13, Type (0, 1), BuildingBlock: ZUJKAS_clean_linker_0, # of connection points: 2
#     Edge 14, Type (0, 1), BuildingBlock: ZUJKAS_clean_linker_0, # of connection points: 2
#     Edge 15, Type (0, 1), BuildingBlock: ZUJKAS_clean_linker_0, # of connection points: 2
#     Edge 16, Type (0, 1), BuildingBlock: ZUJKAS_clean_linker_0, # of connection points: 2
#     Edge 17, Type (0, 1), BuildingBlock: ZUJKAS_clean_linker_0, # of connection points: 2
# Relax obj value: 0.063
# Max RMSD: 0.212
# Mean RMSD: 0.168
data_MOF--net-rtl--node1-KUMBOL_clean_sbu_1--node2-CUQRIR_clean_linker_1--edge1-ZUJKAS_clean_linker_0
_symmetry_space_group_name_H-M    P1
_symmetry_Int_Tables_number       1
_symmetry_cell_setting            triclinic
loop_
_symmetry_equiv_pos_as_xyz
'x, y, z'
_cell_length_a     43.194241
_cell_length_b     43.294281
_cell_length_c     32.10773
_cell_angle_alpha  79.663697
_cell_angle_beta   98.851364
_cell_angle_gamma 90.897772
loop_
_atom_site_label
_atom_site_type_symbol
_atom_site_fract_x
_atom_site_fract_y
_atom_site_fract_z
_atom_type_partial_charge
C0 C 0.23448 0.80877 1.00368 0.0
N1 N 0.21301 0.8276 0.01339 0.0
N2 N 0.24793 0.78908 0.03922 0.0
C3 C 0.24145 0.80877 0.9592 0.0
C4 C 0.23371 0.7965 0.07098 0.0
N5 N 0.21214 0.81977 0.05514 0.0
C6 C 0.24031 0.7805 0.11711 0.0
H7 H 0.22436 0.7935 0.94335 0.0
H8 H 0.26542 0.79957 0.96012 0.0
H9 H 0.23903 0.83276 0.93975 0.0
H10 H 0.26431 0.77035 0.12551 0.0
H11 H 0.22352 0.76108 0.1225 0.0
H12 H 0.2373 0.79721 0.1387 0.0
C13 C 0.71812 0.72289 0.66137 0.0
N14 N 0.69555 0.7023 0.65067 0.0
N15 N 0.72842 0.73889 0.62586 0.0
C16 C 0.72848 0.72901 0.70602 0.0
C17 C 0.71129 0.7273 0.59325 0.0
N18 N 0.69105 0.70544 0.60824 0.0
C19 C 0.71616 0.73536 0.54711 0.0
H20 H 0.70893 0.72532 0.72506 0.0
H21 H 0.73721 0.7533 0.70542 0.0
H22 H 0.74775 0.71237 0.72206 0.0
H23 H 0.74036 0.74354 0.54444 0.0
H24 H 0.69948 0.75439 0.53019 0.0
H25 H 0.71165 0.71478 0.53092 0.0
C26 C 0.78761 0.19829 0.09019 0.0
N27 N 0.80929 0.17926 0.08119 0.0
N28 N 0.77431 0.21767 0.05418 0.0
C29 C 0.78152 0.19991 0.13471 0.0
C30 C 0.78903 0.21001 0.02299 0.0
N31 N 0.81052 0.1868 0.03951 0.0
C32 C 0.78084 0.22358 0.97611 0.0
H33 H 0.76316 0.18275 0.14321 0.0
H34 H 0.77328 0.22369 0.13662 0.0
H35 H 0.80298 0.19387 0.15855 0.0
H36 H 0.7965 0.24359 0.968 0.0
H37 H 0.75623 0.23225 0.9683 0.0
H38 H 0.78423 0.20582 0.95618 0.0
C39 C 0.30516 0.29099 0.42627 0.0
N40 N 0.32769 0.31171 0.43666 0.0
N41 N 0.2941 0.27611 0.46177 0.0
C42 C 0.29387 0.28537 0.38158 0.0
C43 C 0.31087 0.28822 0.49412 0.0
N44 N 0.33144 0.3096 0.47894 0.0
C45 C 0.30672 0.27991 0.54046 0.0
H46 H 0.27565 0.30324 0.36573 0.0
H47 H 0.28334 0.26185 0.38178 0.0
H48 H 0.31341 0.28768 0.36253 0.0
H49 H 0.29029 0.26022 0.5462 0.0
H50 H 0.29779 0.30085 0.5506 0.0
H51 H 0.32968 0.2733 0.56063 0.0
C52 C 0.96253 0.10006 0.51129 0.0
C53 C 0.91028 0.08751 0.47927 0.0
C54 C 0.93855 0.07847 0.50698 0.0
C55 C 0.90669 0.11817 0.45557 0.0
C56 C 0.95894 0.1309 0.48768 0.0
C57 C 0.93093 0.1398 0.45978 0.0
N58 N 0.9898 0.09053 0.53745 0.0
C59 C 0.01393 0.11085 0.54266 0.0
C60 C 0.98381 0.15176 0.49238 0.0
C61 C 0.01137 0.14172 0.52014 0.0
Gd62 Gd 0.03523 0.9736 0.52326 0.0
Gd63 Gd 0.99238 0.03814 0.57258 0.0
N64 N 0.94308 0.04857 0.5293 0.0
C65 C 0.88637 0.06549 0.47632 0.0
C66 C 0.91903 0.02775 0.52861 0.0
C67 C 0.89061 0.03565 0.5016 0.0
H68 H 0.92105 0.00534 0.54953 0.0
H69 H 0.87183 0.01882 0.50073 0.0
H70 H 0.10512 0.00624 0.55384 0.0
H71 H 0.03498 0.10338 0.56475 0.0
H72 H 0.15262 0.99216 0.60627 0.0
H73 H 0.86432 0.07151 0.45542 0.0
H74 H 0.88521 0.12542 0.43394 0.0
H75 H 0.99233 0.9087 0.52597 0.0
H76 H 0.98195 0.17565 0.47479 0.0
H77 H 0.03062 0.15775 0.52426 0.0
H78 H 0.13721 0.8848 0.66833 0.0
H79 H 0.92781 0.16334 0.44122 0.0
H80 H 0.04198 0.83543 0.61837 0.0
H81 H 0.9952 0.85399 0.56539 0.0
N82 N 0.03658 0.92095 0.55708 0.0
C83 C 0.06288 0.91107 0.58521 0.0
C84 C 0.01263 0.90087 0.54941 0.0
C85 C 0.04082 0.85943 0.60119 0.0
C86 C 0.01432 0.86984 0.57141 0.0
C87 C 0.06554 0.88009 0.60841 0.0
H88 H 0.0949 0.84716 0.65662 0.0
N89 N 0.08297 0.96249 0.57001 0.0
C90 C 0.08675 0.93241 0.59187 0.0
C91 C 0.13753 0.9451 0.62751 0.0
C92 C 0.11391 0.92311 0.62178 0.0
C93 C 0.10671 0.98343 0.57377 0.0
C94 C 0.13408 0.97526 0.60298 0.0
O95 O 0.99321 0.0468 0.50091 0.0
O96 O 0.99196 0.99771 0.48287 0.0
O97 O 0.06861 0.97835 0.47864 0.0
O98 O 0.03314 0.94288 0.47602 0.0
O99 O 0.97444 0.988 0.58168 0.0
O100 O 0.98325 0.96735 0.52265 0.0
O101 O 0.03234 0.96491 0.59434 0.0
O102 O 0.03651 0.01425 0.61062 0.0
O103 O 0.96482 0.02998 0.62475 0.0
O104 O 0.9925 0.07178 0.61533 0.0
O105 O 0.05197 0.02409 0.51217 0.0
O106 O 0.04424 0.04438 0.57174 0.0
C107 C 0.98599 0.028 0.47312 0.0
C108 C 0.96857 0.96743 0.55571 0.0
C109 C 0.04895 0.96708 0.4109 0.0
C110 C 0.05736 0.96149 0.33903 0.0
C111 C 0.02496 0.00425 0.34902 0.0
C112 C 0.03052 0.99396 0.3932 0.0
C113 C 0.03828 0.98822 0.32203 0.0
C114 C 0.06228 0.95078 0.38375 0.0
C115 C 0.05555 0.95721 0.45773 0.0
C116 C 0.11659 0.89228 0.64505 0.0
C117 C 0.0925 0.87083 0.63836 0.0
H118 H 0.15873 0.93889 0.65023 0.0
C119 C 0.04048 0.98378 0.62172 0.0
C120 C 0.05806 0.04481 0.53779 0.0
C121 C 0.98592 0.05054 0.68615 0.0
C122 C 0.97786 0.05649 0.75813 0.0
C123 C 0.02602 0.03272 0.74708 0.0
C124 C 0.01537 0.03688 0.70318 0.0
C125 C 1.00752 0.0425 0.77441 0.0
C126 C 0.96718 0.06029 0.71365 0.0
C127 C 0.97482 0.05497 0.63972 0.0
H128 H 0.01064 0.02497 0.33577 0.0
H129 H 0.0209 0.00726 0.41368 0.0
H130 H 0.03368 0.99677 0.2878 0.0
H131 H 0.07719 0.93045 0.39751 0.0
H132 H 0.04886 0.0222 0.75992 0.0
H133 H 0.0302 0.02974 0.68242 0.0
H134 H 0.01678 0.03968 0.8082 0.0
H135 H 0.94431 0.07065 0.70037 0.0
C136 C 0.59987 0.55775 0.03993 0.0
C137 C 0.58383 0.61204 0.0135 0.0
C138 C 0.57752 0.58154 0.03422 0.0
C139 C 0.61214 0.61789 0.99718 0.0
C140 C 0.62858 0.56366 0.02441 0.0
C141 C 0.63446 0.59379 1.00265 0.0
N142 N 0.5932 0.52856 0.06009 0.0
C143 C 0.61452 0.50456 0.06722 0.0
C144 C 0.6504 0.53901 0.03092 0.0
C145 C 0.64339 0.50938 0.05261 0.0
Gd146 Gd 0.47828 0.48932 0.99814 0.0
Gd147 Gd 0.5441 0.52241 0.08265 0.0
N148 N 0.55007 0.57506 0.04987 0.0
C149 C 0.56183 0.63597 1.01074 0.0
C150 C 0.5301 0.59898 0.05081 0.0
C151 C 0.53517 0.62953 0.03027 0.0
H152 H 0.51076 0.59506 0.06851 0.0
H153 H 0.51883 0.64822 0.0303 0.0
H154 H 0.50183 0.41559 0.04553 0.0
H155 H 0.6092 0.48173 0.08424 0.0
H156 H 0.47927 0.368 0.08288 0.0
H157 H 0.56581 0.65972 0.99512 0.0
H158 H 0.61721 0.64112 0.98082 0.0
H159 H 0.41914 0.5411 0.96451 0.0
H160 H 0.67272 0.54261 0.01943 0.0
H161 H 0.66019 0.49025 0.05803 0.0
H162 H 0.37109 0.39515 0.07602 0.0
H163 H 0.65627 0.59873 0.99014 0.0
H164 H 0.33625 0.4987 1.00588 0.0
H165 H 0.3628 0.54456 0.96957 0.0
N166 N 0.42457 0.49449 0.99933 0.0
C167 C 0.41034 0.46876 0.01855 0.0
C168 C 0.40789 0.52133 0.98138 0.0
C169 C 0.36102 0.49719 1.00409 0.0
C170 C 0.37594 0.52317 0.9837 0.0
C171 C 0.37816 0.4695 0.02169 0.0
H172 H 0.33953 0.44292 0.04527 0.0
N173 N 0.45947 0.44223 0.03388 0.0
C174 C 0.42819 0.44175 0.03595 0.0
C175 C 0.43298 0.38824 0.07426 0.0
C176 C 0.41423 0.41489 0.05683 0.0
C177 C 0.47757 0.41591 0.04936 0.0
C178 C 0.46471 0.38869 0.07017 0.0
O179 O 0.55262 0.5208 0.01494 0.0
O180 O 0.50472 0.53271 0.97445 0.0
O181 O 0.48825 0.46093 0.95237 0.0
O182 O 0.44887 0.4932 0.93597 0.0
O183 O 0.49411 0.54103 0.0725 0.0
O184 O 0.47595 0.5408 1.00117 0.0
O185 O 0.46908 0.48406 0.06687 0.0
O186 O 0.51744 0.48014 0.1097 0.0
O187 O 0.54209 0.54523 0.13733 0.0
O188 O 0.5803 0.51351 0.13863 0.0
O189 O 0.52634 0.46577 0.01345 0.0
O190 O 0.54868 0.47067 0.08256 0.0
C191 C 0.53536 0.53428 0.97931 0.0
C192 C 0.47473 0.55126 0.0369 0.0
C193 C 0.47406 0.48325 0.87952 0.0
C194 C 0.4703 0.47605 0.80511 0.0
C195 C 0.50288 0.51722 0.83073 0.0
C196 C 0.49448 0.50827 0.87139 0.0
C197 C 0.49094 0.50123 0.79776 0.0
C198 C 0.46192 0.46722 0.84633 0.0
C199 C 0.46569 0.47343 0.92263 0.0
C200 C 0.38218 0.41555 0.05997 0.0
C201 C 0.36421 0.44276 0.04247 0.0
H202 H 0.42315 0.36714 0.09059 0.0
C203 C 0.48702 0.47578 0.10416 0.0
C204 C 0.54668 0.45705 0.04868 0.0
C205 C 0.59093 0.55619 0.17533 0.0
C206 C 0.60917 0.5864 0.23167 0.0
C207 C 0.63372 0.59272 0.1674 0.0
C208 C 0.61364 0.57058 0.15165 0.0
C209 C 0.63152 0.60068 0.20704 0.0
C210 C 0.58891 0.56399 0.21556 0.0
C211 C 0.56887 0.53364 0.15796 0.0
H212 H 0.51864 0.53665 0.82475 0.0
H213 H 0.50387 0.52078 0.89653 0.0
H214 H 0.49754 0.50886 0.76635 0.0
H215 H 0.44639 0.44762 0.85283 0.0
H216 H 0.65116 0.60369 0.14887 0.0
H217 H 0.61599 0.56468 0.1211 0.0
H218 H 0.6477 0.61766 0.21878 0.0
H219 H 0.57136 0.553 0.23396 0.0
H220 H 0.29601 0.21652 0.44892 0.0
H221 H 0.255 0.17681 0.45822 0.0
H222 H 0.19655 0.24507 0.49286 0.0
H223 H 0.23744 0.2847 0.48278 0.0
H224 H 0.23025 0.15452 0.53234 0.0
H225 H 0.1368 0.20887 0.40271 0.0
H226 H 0.17713 0.22104 0.40559 0.0
H227 H 0.15219 0.23464 0.43869 0.0
C228 C 0.27412 0.22294 0.45781 0.0
C229 C 0.26944 0.25349 0.46468 0.0
C230 C 0.25084 0.20037 0.46332 0.0
C231 C 0.22251 0.20809 0.47564 0.0
C232 C 0.21789 0.23875 0.48243 0.0
H233 H 0.09022 0.08014 0.59261 0.0
H234 H 0.13019 0.11947 0.57722 0.0
C235 C 0.24117 0.26128 0.47689 0.0
C236 C 0.19843 0.18372 0.48336 0.0
H237 H 0.12186 0.16599 0.45293 0.0
C238 C 0.20659 0.15695 0.51485 0.0
C239 C 0.16765 0.18676 0.46022 0.0
C240 C 0.15791 0.21422 0.42462 0.0
C241 C 0.18466 0.13344 0.52438 0.0
C242 C 0.1536 0.13701 0.50225 0.0
C243 C 0.14559 0.16346 0.47018 0.0
C244 C 0.12917 0.11336 0.5116 0.0
C245 C 0.19503 0.10477 0.55766 0.0
C246 C 0.11484 0.09733 0.47957 0.0
C247 C 0.09184 0.075 0.48817 0.0
C248 C 0.08248 0.0685 0.52889 0.0
C249 C 0.09676 0.08473 0.56085 0.0
C250 C 0.11979 0.10703 0.55222 0.0
H251 H 0.22094 0.10185 0.56362 0.0
H252 H 0.18728 0.10723 0.5883 0.0
H253 H 0.18444 0.08319 0.5477 0.0
H254 H 0.12164 0.10194 0.44795 0.0
H255 H 0.08124 0.06301 0.46277 0.0
H256 H 0.239 0.73824 1.00192 0.0
H257 H 0.27787 0.69725 1.00256 0.0
H258 H 0.34616 0.74382 0.08207 0.0
H259 H 0.3073 0.78521 0.0803 0.0
H260 H 0.36964 0.72657 0.01456 0.0
H261 H 0.30969 0.62614 0.10044 0.0
H262 H 0.28562 0.64721 0.05372 0.0
H263 H 0.29852 0.66644 0.09845 0.0
C264 C 0.26229 0.7394 0.01971 0.0
C265 C 0.27028 0.76436 0.04158 0.0
C266 C 0.28437 0.71601 0.02031 0.0
C267 C 0.31475 0.71717 0.04303 0.0
C268 C 0.32278 0.74232 0.06466 0.0
H269 H 0.45266 0.56573 0.1062 0.0
H270 H 0.41459 0.60666 0.10735 0.0
C271 C 0.30067 0.76576 0.06392 0.0
C272 C 0.33844 0.69271 0.04304 0.0
H273 H 0.35313 0.61376 0.06872 0.0
C274 C 0.36611 0.70191 0.02656 0.0
C275 C 0.33394 0.6606 0.05915 0.0
C276 C 0.30549 0.64947 0.07933 0.0
C277 C 0.38921 0.67981 0.02514 0.0
C278 C 0.38421 0.64758 0.0399 0.0
C279 C 0.35676 0.63844 0.05699 0.0
C280 C 0.40745 0.623 0.03878 0.0
C281 C 0.41899 0.69122 1.00858 0.0
C282 C 0.41592 0.61845 0.99979 0.0
C283 C 0.43786 0.5952 0.99907 0.0
C284 C 0.45139 0.57583 0.03728 0.0
C285 C 0.4427 0.58033 0.07622 0.0
C286 C 0.42087 0.60362 0.07693 0.0
H287 H 0.42275 0.71657 1.00938 0.0
H288 H 0.43968 0.67773 0.02761 0.0
H289 H 0.41744 0.68796 0.97483 0.0
H290 H 0.40546 0.63278 0.96988 0.0
H291 H 0.44434 0.59253 0.96862 0.0
H292 H 0.72278 0.79637 0.57653 0.0
H293 H 0.76436 0.83498 0.56634 0.0
H294 H 0.82917 0.77375 0.65947 0.0
H295 H 0.78773 0.73462 0.66828 0.0
H296 H 0.79974 0.86715 0.62073 0.0
H297 H 0.87601 0.7904 0.55782 0.0
H298 H 0.83609 0.78058 0.56436 0.0
H299 H 0.8668 0.77391 0.6098 0.0
C300 C 0.74597 0.79124 0.59463 0.0
C301 C 0.75225 0.76253 0.62287 0.0
C302 C 0.76965 0.81328 0.58898 0.0
C303 C 0.80008 0.80704 0.61151 0.0
C304 C 0.80609 0.7788 0.64097 0.0
H305 H 0.94525 0.94846 0.63042 0.0
H306 H 0.90473 0.90961 0.6444 0.0
C307 C 0.7824 0.75665 0.64643 0.0
C308 C 0.82536 0.83015 0.60387 0.0
H309 H 0.89715 0.83921 0.57119 0.0
C310 C 0.82104 0.86104 0.6099 0.0
C311 C 0.85294 0.82232 0.58902 0.0
C312 C 0.8582 0.7901 0.57943 0.0
C313 C 0.84359 0.88421 0.60188 0.0
C314 C 0.87161 0.87612 0.58835 0.0
C315 C 0.87582 0.84532 0.58194 0.0
C316 C 0.89664 0.89939 0.58008 0.0
C317 C 0.8368 0.91731 0.60695 0.0
C318 C 0.90631 0.90593 0.53962 0.0
C319 C 0.92972 0.92796 0.53163 0.0
C320 C 0.94401 0.94378 0.56402 0.0
C321 C 0.9345 0.93693 0.60463 0.0
C322 C 0.91123 0.91481 0.61264 0.0
H323 H 0.81131 0.92149 0.60551 0.0
H324 H 0.84879 0.92131 0.63863 0.0
H325 H 0.84548 0.93478 0.58174 0.0
H326 H 0.89547 0.89424 0.51404 0.0
H327 H 0.93638 0.93282 0.49994 0.0
H328 H 0.77587 0.27878 0.01748 0.0
H329 H 0.73611 0.31933 0.01479 0.0
H330 H 0.67973 0.25013 0.08195 0.0
H331 H 0.71884 0.20947 0.08277 0.0
H332 H 0.6443 0.28807 0.0177 0.0
H333 H 0.72282 0.35988 0.11455 0.0
H334 H 0.73743 0.35393 0.06717 0.0
H335 H 0.73343 0.3209 0.1088 0.0
C336 C 0.75475 0.27232 0.03109 0.0
C337 C 0.75035 0.24119 0.05054 0.0
C338 C 0.73228 0.29548 0.03009 0.0
C339 C 0.70526 0.28792 0.04907 0.0
C340 C 0.7005 0.25659 0.06744 0.0
H341 H 0.58329 0.42251 0.11829 0.0
H342 H 0.62077 0.38061 0.11858 0.0
C343 C 0.72282 0.23344 0.0681 0.0
C344 C 0.68185 0.31252 0.04981 0.0
H345 H 0.67307 0.38233 0.08242 0.0
C346 C 0.65057 0.30864 0.03196 0.0
C347 C 0.68993 0.33908 0.06913 0.0
C348 C 0.72265 0.34361 0.0914 0.0
C349 C 0.62724 0.33077 0.03233 0.0
C350 C 0.63556 0.35798 0.05006 0.0
C351 C 0.66675 0.36163 0.06847 0.0
C352 C 0.61231 0.38294 0.04985 0.0
C353 C 0.59381 0.3244 0.01453 0.0
C354 C 0.59529 0.39838 0.01113 0.0
C355 C 0.57366 0.42209 0.0109 0.0
C356 C 0.56898 0.43124 0.04938 0.0
C357 C 0.58631 0.41601 0.08811 0.0
C358 C 0.60777 0.39208 0.08833 0.0
H359 H 0.58997 0.29896 0.01453 0.0
H360 H 0.57708 0.33276 0.03323 0.0
H361 H 0.58845 0.33692 0.98089 0.0
H362 H 0.59901 0.39239 0.98093 0.0
H363 H 0.56104 0.43361 0.98042 0.0
H364 H 0.17224 0.79013 0.10558 0.0
H365 H 0.14294 0.81353 0.1522 0.0
H366 H 0.17781 0.90483 0.10431 0.0
H367 H 0.20763 0.88122 0.05842 0.0
H368 H 0.17202 0.8485 0.21663 0.0
H369 H 0.08155 0.91848 0.09643 0.0
H370 H 0.10271 0.88618 0.08475 0.0
H371 H 0.1212 0.9235 0.08596 0.0
C372 C 0.17344 0.81519 0.105 0.0
C373 C 0.19222 0.83394 0.07876 0.0
C374 C 0.15668 0.82853 0.13142 0.0
C375 C 0.15807 0.86092 0.13153 0.0
C376 C 0.17605 0.87985 0.10426 0.0
H377 H 0.08728 0.98889 0.27312 0.0
H378 H 0.11145 0.96328 0.22406 0.0
C379 C 0.19298 0.86644 0.07803 0.0
C380 C 0.14234 0.87458 0.16208 0.0
H381 H 0.08556 0.92687 0.16801 0.0
C382 C 0.15295 0.86548 0.20611 0.0
C383 C 0.11765 0.89682 0.14816 0.0
C384 C 0.10484 0.90673 0.10128 0.0
C385 C 0.14006 0.87865 0.23664 0.0
C386 C 0.11529 0.90094 0.22277 0.0
C387 C 0.1045 0.90978 0.17866 0.0
C388 C 0.10082 0.91608 0.25328 0.0
C389 C 0.15384 0.86934 0.2833 0.0
C390 C 0.08664 0.8981 0.28604 0.0
C391 C 0.07293 0.91272 0.31437 0.0
C392 C 0.07269 0.94562 0.31001 0.0
C393 C 0.08676 0.96351 0.27704 0.0
C394 C 0.10065 0.94891 0.24902 0.0
H395 H 0.17774 0.85903 0.28735 0.0
H396 H 0.15506 0.88981 0.29992 0.0
H397 H 0.13878 0.85138 0.29918 0.0
H398 H 0.08581 0.87278 0.28937 0.0
H399 H 0.0619 0.89834 0.33907 0.0
H400 H 0.63286 0.70156 0.64731 0.0
H401 H 0.60322 0.67139 0.70036 0.0
H402 H 0.68926 0.62843 0.77181 0.0
H403 H 0.71877 0.6586 0.7187 0.0
H404 H 0.63233 0.5865 0.75634 0.0
H405 H 0.612 0.6912 0.82761 0.0
H406 H 0.60366 0.69515 0.77018 0.0
H407 H 0.64333 0.68933 0.79676 0.0
C408 C 0.64522 0.68529 0.67405 0.0
C409 C 0.67796 0.68237 0.67929 0.0
C410 C 0.62841 0.66828 0.70438 0.0
C411 C 0.64413 0.64795 0.74019 0.0
C412 C 0.67674 0.6441 0.7445 0.0
H413 H 0.59396 0.52364 0.96279 0.0
H414 H 0.61981 0.55135 0.90456 0.0
C415 C 0.69354 0.66129 0.71436 0.0
C416 C 0.6268 0.6315 0.77397 0.0
H417 H 0.59033 0.64352 0.85696 0.0
C418 C 0.62306 0.5989 0.77833 0.0
C419 C 0.61469 0.64783 0.80242 0.0
C420 C 0.61866 0.6828 0.79944 0.0
C421 C 0.60726 0.58216 0.81031 0.0
C422 C 0.5957 0.59839 0.83944 0.0
C423 C 0.59923 0.63108 0.83472 0.0
C424 C 0.58019 0.58189 0.87532 0.0
C425 C 0.60262 0.54736 0.81204 0.0
C426 C 0.54973 0.59057 0.87933 0.0
C427 C 0.53516 0.57519 0.91319 0.0
C428 C 0.55081 0.55086 0.94372 0.0
C429 C 0.58138 0.54242 0.9399 0.0
C430 C 0.59603 0.55796 0.90628 0.0
H431 H 0.60414 0.54052 0.78067 0.0
H432 H 0.62129 0.53434 0.83611 0.0
H433 H 0.57958 0.53995 0.82145 0.0
H434 H 0.53713 0.60912 0.85604 0.0
H435 H 0.51164 0.58232 0.9155 0.0
H436 H 0.7914 0.1291 0.13374 0.0
H437 H 0.82407 0.09872 0.19668 0.0
H438 H 0.90507 0.15086 0.16218 0.0
H439 H 0.8722 0.18103 0.09892 0.0
H440 H 0.91703 0.08501 0.19696 0.0
H441 H 0.85319 0.14538 0.29757 0.0
H442 H 0.82856 0.12495 0.26133 0.0
H443 H 0.85058 0.15817 0.24045 0.0
C444 C 0.81634 0.13337 0.13923 0.0
C445 C 0.82946 0.15731 0.11204 0.0
C446 C 0.8349 0.11625 0.17514 0.0
C447 C 0.86682 0.12304 0.18451 0.0
C448 C 0.88044 0.14539 0.15557 0.0
H449 H 0.98324 0.08947 0.43344 0.0
H450 H 0.95542 0.11185 0.3625 0.0
C451 C 0.86182 0.16246 0.11948 0.0
C452 C 0.8852 0.10885 0.22625 0.0
H453 H 0.88951 0.1056 0.33409 0.0
C454 C 0.91101 0.08938 0.22698 0.0
C455 C 0.87764 0.1152 0.26527 0.0
C456 C 0.85117 0.13728 0.26633 0.0
C457 C 0.92911 0.07554 0.26592 0.0
C458 C 0.92096 0.08121 0.30493 0.0
C459 C 0.89547 0.10107 0.3041 0.0
C460 C 0.93882 0.06724 0.34711 0.0
C461 C 0.9574 0.05583 0.26516 0.0
C462 C 0.93836 0.03477 0.36218 0.0
C463 C 0.95381 0.02195 0.40306 0.0
C464 C 0.96993 0.04142 0.4296 0.0
C465 C 0.97056 0.0739 0.41417 0.0
C466 C 0.95494 0.0867 0.37347 0.0
H467 H 0.96271 0.05683 0.23216 0.0
H468 H 0.97815 0.06402 0.28504 0.0
H469 H 0.95334 0.03098 0.27895 0.0
H470 H 0.92557 0.01941 0.34262 0.0
H471 H 0.95283 0.99684 0.41403 0.0
H472 H 0.32278 0.3708 0.47934 0.0
H473 H 0.35026 0.40114 0.53134 0.0
H474 H 0.41114 0.32146 0.58702 0.0
H475 H 0.38301 0.29119 0.53551 0.0
H476 H 0.38457 0.34314 0.64654 0.0
H477 H 0.43467 0.44296 0.54563 0.0
H478 H 0.39337 0.43861 0.52979 0.0
H479 H 0.42011 0.40833 0.52539 0.0
C480 C 0.34261 0.36031 0.50204 0.0
C481 C 0.35108 0.32895 0.50371 0.0
C482 C 0.35833 0.37754 0.53163 0.0
C483 C 0.38298 0.36369 0.56293 0.0
C484 C 0.39226 0.33268 0.56317 0.0
H485 H 0.50175 0.45755 0.74573 0.0
H486 H 0.4808 0.43024 0.6872 0.0
C487 C 0.37639 0.31546 0.5338 0.0
C488 C 0.39706 0.38024 0.59791 0.0
H489 H 0.43387 0.44751 0.61855 0.0
C490 C 0.39554 0.36587 0.64039 0.0
C491 C 0.41157 0.4098 0.58996 0.0
C492 C 0.41535 0.42572 0.54525 0.0
C493 C 0.40772 0.38037 0.67506 0.0
C494 C 0.42119 0.41044 0.66705 0.0
C495 C 0.42322 0.42462 0.62463 0.0
C496 C 0.43363 0.42735 0.70235 0.0
C497 C 0.40647 0.36309 0.71998 0.0
C498 C 0.41399 0.43511 0.73007 0.0
C499 C 0.42591 0.45067 0.76362 0.0
C500 C 0.45764 0.45911 0.76981 0.0
C501 C 0.47714 0.45164 0.74163 0.0
C502 C 0.46524 0.43597 0.70822 0.0
H503 H 0.40356 0.33743 0.72101 0.0
H504 H 0.42805 0.36695 0.74204 0.0
H505 H 0.38613 0.3719 0.73193 0.0
H506 H 0.38936 0.42933 0.72558 0.0
H507 H 0.41015 0.45657 0.78426 0.0
H508 H 0.69712 0.6435 0.61017 0.0
H509 H 0.67397 0.61515 0.55309 0.0
H510 H 0.61892 0.69739 0.49069 0.0
H511 H 0.6423 0.7256 0.54752 0.0
H512 H 0.59278 0.62313 0.4923 0.0
H513 H 0.70256 0.66355 0.42871 0.0
H514 H 0.70397 0.64819 0.48505 0.0
H515 H 0.68519 0.6853 0.4624 0.0
C516 C 0.67904 0.65486 0.5852 0.0
C517 C 0.67129 0.68652 0.58289 0.0
C518 C 0.66593 0.6388 0.55267 0.0
C519 C 0.64476 0.65425 0.51779 0.0
C520 C 0.63497 0.68502 0.51756 0.0
H521 H 0.6098 0.64502 0.25153 0.0
H522 H 0.615 0.65902 0.32266 0.0
C523 C 0.64824 0.70108 0.54987 0.0
C524 C 0.6375 0.6409 0.47814 0.0
H525 H 0.66599 0.63787 0.38559 0.0
C526 C 0.60881 0.62599 0.46903 0.0
C527 C 0.65842 0.64505 0.44788 0.0
C528 C 0.6893 0.66142 0.45611 0.0
C529 C 0.60035 0.61543 0.42983 0.0
C530 C 0.6212 0.61994 0.39935 0.0
C531 C 0.65004 0.63447 0.40897 0.0
C532 C 0.61344 0.61117 0.35635 0.0
C533 C 0.56887 0.60047 0.42068 0.0
C534 C 0.61016 0.57961 0.35154 0.0
C535 C 0.60717 0.57152 0.31073 0.0
C536 C 0.60777 0.59486 0.27422 0.0
C537 C 0.60969 0.62649 0.2791 0.0
C538 C 0.61254 0.63453 0.3197 0.0
H539 H 0.55316 0.60422 0.44371 0.0
H540 H 0.55721 0.61 0.38765 0.0
H541 H 0.57221 0.57481 0.42314 0.0
H542 H 0.61132 0.56115 0.37942 0.0
H543 H 0.60598 0.54694 0.30797 0.0
H544 H 0.81198 0.12525 0.03568 0.0
H545 H 0.84137 0.10009 0.99057 0.0
H546 H 0.88124 0.18947 0.94518 0.0
H547 H 0.85181 0.21446 0.99023 0.0
H548 H 0.83637 0.12119 0.89549 0.0
H549 H 0.95711 0.12452 0.98465 0.0
H550 H 0.92254 0.12618 1.0096 0.0
H551 H 0.93426 0.16022 0.97509 0.0
C552 C 0.82743 0.13924 0.01649 0.0
C553 C 0.82979 0.17164 0.01615 0.0
C554 C 0.84402 0.125 0.99068 0.0
C555 C 0.86354 0.14293 0.96472 0.0
C556 C 0.86649 0.1752 0.96524 0.0
H557 H 0.94174 0.11018 0.74354 0.0
H558 H 0.91259 0.12958 0.7934 0.0
C559 C 0.84969 0.18944 0.99073 0.0
C560 C 0.8797 0.12832 0.9355 0.0
H561 H 0.95212 0.10961 0.91643 0.0
C562 C 0.86166 0.11849 0.90011 0.0
C563 C 0.91265 0.12475 0.94182 0.0
C564 C 0.93291 0.13423 0.97998 0.0
C565 C 0.87582 0.10573 0.8703 0.0
C566 C 0.90883 0.10285 0.87606 0.0
C567 C 0.92682 0.11205 0.91198 0.0
C568 C 0.92518 0.09035 0.84512 0.0
C569 C 0.85543 0.09528 0.83297 0.0
C570 C 0.94191 0.06187 0.85769 0.0
C571 C 0.95833 0.05052 0.82915 0.0
C572 C 0.9587 0.06765 0.78754 0.0
C573 C 0.94161 0.09609 0.77499 0.0
C574 C 0.92502 0.10731 0.80351 0.0
H575 H 0.8305 0.09317 0.83776 0.0
H576 H 0.85675 0.11274 0.80345 0.0
H577 H 0.86376 0.07231 0.82785 0.0
H578 H 0.94227 0.04841 0.88965 0.0
H579 H 0.97076 0.0283 0.83977 0.0
H580 H 0.30478 0.3537 0.36633 0.0
H581 H 0.33467 0.38293 0.31323 0.0
H582 H 0.42072 0.34406 0.39001 0.0
H583 H 0.39058 0.314 0.44233 0.0
H584 H 0.3815 0.42712 0.31913 0.0
H585 H 0.426 0.31991 0.27416 0.0
H586 H 0.39483 0.31885 0.30589 0.0
H587 H 0.4349 0.32171 0.33016 0.0
C588 C 0.33006 0.35143 0.37164 0.0
C589 C 0.34545 0.33136 0.40792 0.0
C590 C 0.34713 0.3682 0.34151 0.0
C591 C 0.37991 0.36518 0.34715 0.0
C592 C 0.39541 0.34621 0.38447 0.0
H593 H 0.51565 0.44225 0.18082 0.0
H594 H 0.49067 0.41627 0.2412 0.0
C595 C 0.37829 0.32936 0.41455 0.0
C596 C 0.3976 0.38147 0.31349 0.0
H597 H 0.44457 0.36854 0.24161 0.0
C598 C 0.39532 0.41432 0.30223 0.0
C599 C 0.41562 0.36474 0.29137 0.0
C600 C 0.41785 0.32934 0.30063 0.0
C601 C 0.41063 0.43088 0.26962 0.0
C602 C 0.42835 0.41412 0.24724 0.0
C603 C 0.43102 0.38133 0.25888 0.0
C604 C 0.4435 0.43009 0.21078 0.0
C605 C 0.40795 0.46623 0.25964 0.0
C606 C 0.42525 0.44615 0.17345 0.0
C607 C 0.43942 0.46104 0.139 0.0
C608 C 0.47217 0.45997 0.14094 0.0
C609 C 0.4904 0.44367 0.17829 0.0
C610 C 0.47617 0.42873 0.21279 0.0
H611 H 0.40072 0.47588 0.28654 0.0
H612 H 0.43054 0.47691 0.25259 0.0
H613 H 0.38998 0.47334 0.23095 0.0
H614 H 0.39997 0.44705 0.17086 0.0
H615 H 0.42464 0.47359 0.11096 0.0
H616 H 0.15482 0.81486 0.97881 0.0
H617 H 0.1234 0.8462 0.91525 0.0
H618 H 0.19325 0.91859 0.91508 0.0
H619 H 0.2248 0.88667 0.97795 0.0
H620 H 0.09738 0.90675 0.89351 0.0
H621 H 0.192 0.89269 0.79883 0.0
H622 H 0.1916 0.87072 0.85208 0.0
H623 H 0.20425 0.91083 0.84464 0.0
C624 C 0.16282 0.83785 0.96563 0.0
C625 C 0.19187 0.84868 0.98285 0.0
C626 C 0.14508 0.85564 0.92939 0.0
C627 C 0.15632 0.88443 0.90993 0.0
C628 C 0.18444 0.89617 0.92906 0.0
H629 H 0.08453 0.0118 0.67279 0.0
H630 H 0.1123 0.98891 0.74397 0.0
C631 C 0.20224 0.87824 0.96509 0.0
C632 C 0.13981 0.90091 0.86807 0.0
H633 H 0.14844 0.92432 0.763 0.0
C634 C 0.10856 0.91066 0.86501 0.0
C635 C 0.15437 0.90573 0.83079 0.0
C636 C 0.18729 0.89421 0.83147 0.0
C637 C 0.0916 0.92534 0.82571 0.0
C638 C 0.10624 0.93017 0.7887 0.0
C639 C 0.13747 0.92068 0.79169 0.0
C640 C 0.08914 0.94414 0.74618 0.0
C641 C 0.05815 0.93569 0.82378 0.0
C642 C 0.06733 0.92629 0.72388 0.0
C643 C 0.05153 0.93923 0.68334 0.0
C644 C 0.05717 0.9703 0.66463 0.0
C645 C 0.07932 0.988 0.68685 0.0
C646 C 0.09526 0.97496 0.72732 0.0
H647 H 0.05154 0.93414 0.85618 0.0
H648 H 0.05452 0.96025 0.80629 0.0
H649 H 0.04222 0.92056 0.80587 0.0
H650 H 0.06268 0.90229 0.73779 0.0
H651 H 0.03474 0.925 0.66675 0.0
loop_
_geom_bond_atom_site_label_1
_geom_bond_atom_site_label_2
_geom_bond_distance
_geom_bond_site_symmetry_2
_ccdc_geom_bond_type
C0 N1 1.317 1_556 S
C0 N2 1.348 1_556 S
C0 C3 1.485 . S
N1 C0 1.317 1_554 S
N1 N5 1.370 . S
N2 C0 1.348 1_554 S
N2 C4 1.346 . S
C3 C0 1.485 . S
C3 H7 0.960 . S
C3 H8 0.961 . S
C3 H9 0.960 . S
C4 N2 1.346 . S
C4 N5 1.307 . S
C4 C6 1.486 . S
N5 N1 1.370 . S
N5 C4 1.307 . S
C6 C4 1.486 . S
C6 H10 0.960 . S
C6 H11 0.960 . S
C6 H12 0.959 . S
H7 C3 0.960 . S
H8 C3 0.961 . S
H9 C3 0.960 . S
H10 C6 0.960 . S
H11 C6 0.960 . S
H12 C6 0.959 . S
C13 N14 1.317 . S
C13 N15 1.348 . S
C13 C16 1.485 . S
N14 C13 1.317 . S
N14 N18 1.370 . S
N15 C13 1.348 . S
N15 C17 1.346 . S
C16 C13 1.485 . S
C16 H20 0.960 . S
C16 H21 0.961 . S
C16 H22 0.960 . S
C17 N15 1.346 . S
C17 N18 1.307 . S
C17 C19 1.486 . S
N18 N14 1.370 . S
N18 C17 1.307 . S
C19 C17 1.486 . S
C19 H23 0.960 . S
C19 H24 0.960 . S
C19 H25 0.959 . S
H20 C16 0.960 . S
H21 C16 0.961 . S
H22 C16 0.960 . S
H23 C19 0.960 . S
H24 C19 0.960 . S
H25 C19 0.959 . S
C26 N27 1.317 . S
C26 N28 1.348 . S
C26 C29 1.485 . S
N27 C26 1.317 . S
N27 N31 1.370 . S
N28 C26 1.348 . S
N28 C30 1.346 . S
C29 C26 1.485 . S
C29 H33 0.960 . S
C29 H34 0.961 . S
C29 H35 0.960 . S
C30 N28 1.346 . S
C30 N31 1.307 . S
C30 C32 1.486 1_554 S
N31 N27 1.370 . S
N31 C30 1.307 . S
C32 C30 1.486 1_556 S
C32 H36 0.960 . S
C32 H37 0.960 . S
C32 H38 0.959 . S
H33 C29 0.960 . S
H34 C29 0.961 . S
H35 C29 0.960 . S
H36 C32 0.960 . S
H37 C32 0.960 . S
H38 C32 0.959 . S
C39 N40 1.317 . S
C39 N41 1.348 . S
C39 C42 1.485 . S
N40 C39 1.317 . S
N40 N44 1.370 . S
N41 C39 1.348 . S
N41 C43 1.346 . S
C42 C39 1.485 . S
C42 H46 0.960 . S
C42 H47 0.961 . S
C42 H48 0.960 . S
C43 N41 1.346 . S
C43 N44 1.307 . S
C43 C45 1.486 . S
N44 N40 1.370 . S
N44 C43 1.307 . S
C45 C43 1.486 . S
C45 H49 0.960 . S
C45 H50 0.960 . S
C45 H51 0.959 . S
H46 C42 0.960 . S
H47 C42 0.961 . S
H48 C42 0.960 . S
H49 C45 0.960 . S
H50 C45 0.960 . S
H51 C45 0.959 . S
C52 C54 1.422 . S
C52 C56 1.415 . S
C52 N58 1.369 . S
C53 C54 1.421 . S
C53 C55 1.417 . S
C53 C65 1.422 . S
C54 C52 1.422 . S
C54 C53 1.421 . S
C54 N64 1.359 . S
C55 C53 1.417 . S
C55 C57 1.329 . S
C55 H74 0.930 . S
C56 C52 1.415 . S
C56 C57 1.437 . S
C56 C60 1.413 . S
C57 C55 1.329 . S
C57 C56 1.437 . S
C57 H79 0.929 . S
N58 C52 1.369 . S
N58 C59 1.338 1_655 S
N58 Gd63 2.622 . S
C59 N58 1.338 1_455 S
C59 C61 1.378 . S
C59 H71 0.929 . S
C60 C56 1.413 . S
C60 C61 1.348 1_655 S
C60 H76 0.931 . S
C61 C59 1.378 . S
C61 C60 1.348 1_455 S
C61 H77 0.930 . S
Gd62 N82 2.622 . S
Gd62 N89 2.570 . S
Gd62 O96 2.353 1_465 S
Gd62 O97 2.468 . S
Gd62 O98 2.427 . S
Gd62 O100 2.388 1_455 S
Gd62 O101 2.386 . S
Gd62 O105 2.307 1_565 S
Gd62 C115 2.805 . S
Gd63 N58 2.622 . S
Gd63 N64 2.570 . S
Gd63 O95 2.386 . S
Gd63 O99 2.307 1_545 S
Gd63 O102 2.353 1_655 S
Gd63 O103 2.468 . S
Gd63 O104 2.427 . S
Gd63 O106 2.388 1_655 S
Gd63 C127 2.805 . S
N64 C54 1.359 . S
N64 Gd63 2.570 . S
N64 C66 1.343 . S
C65 C53 1.422 . S
C65 C67 1.321 . S
C65 H73 0.931 . S
C66 N64 1.343 . S
C66 C67 1.390 . S
C66 H68 0.931 . S
C67 C65 1.321 . S
C67 C66 1.390 . S
C67 H69 0.930 . S
H68 C66 0.931 . S
H69 C67 0.930 . S
H70 C93 0.931 . S
H71 C59 0.929 . S
H72 C94 0.930 . S
H73 C65 0.931 . S
H74 C55 0.930 . S
H75 C84 0.929 1_655 S
H76 C60 0.931 . S
H77 C61 0.930 . S
H78 C116 0.930 . S
H79 C57 0.929 . S
H80 C85 0.931 . S
H81 C86 0.930 1_655 S
N82 Gd62 2.622 . S
N82 C83 1.369 . S
N82 C84 1.338 . S
C83 N82 1.369 . S
C83 C87 1.415 . S
C83 C90 1.422 . S
C84 H75 0.929 1_455 S
C84 N82 1.338 . S
C84 C86 1.378 . S
C85 H80 0.931 . S
C85 C86 1.348 . S
C85 C87 1.413 . S
C86 H81 0.930 1_455 S
C86 C84 1.378 . S
C86 C85 1.348 . S
C87 C83 1.415 . S
C87 C85 1.413 . S
C87 C117 1.437 . S
H88 C117 0.929 . S
N89 Gd62 2.570 . S
N89 C90 1.359 . S
N89 C93 1.343 . S
C90 C83 1.422 . S
C90 N89 1.359 . S
C90 C92 1.421 . S
C91 C92 1.422 . S
C91 C94 1.321 . S
C91 H118 0.931 . S
C92 C90 1.421 . S
C92 C91 1.422 . S
C92 C116 1.417 . S
C93 H70 0.931 . S
C93 N89 1.343 . S
C93 C94 1.390 . S
C94 H72 0.930 . S
C94 C91 1.321 . S
C94 C93 1.390 . S
O95 Gd63 2.386 . S
O95 C107 1.265 . S
O96 Gd62 2.353 1_645 S
O96 C107 1.242 . S
O97 Gd62 2.468 . S
O97 C115 1.263 . S
O98 Gd62 2.427 . S
O98 C115 1.252 . S
O99 Gd63 2.307 1_565 S
O99 C108 1.261 . S
O100 Gd62 2.388 1_655 S
O100 C108 1.252 . S
O101 Gd62 2.386 . S
O101 C119 1.265 . S
O102 Gd63 2.353 1_455 S
O102 C119 1.242 1_545 S
O103 Gd63 2.468 . S
O103 C127 1.263 . S
O104 Gd63 2.427 . S
O104 C127 1.252 . S
O105 Gd62 2.307 1_545 S
O105 C120 1.261 . S
O106 Gd63 2.388 1_455 S
O106 C120 1.252 . S
C107 O95 1.265 . S
C107 O96 1.242 . S
C108 O99 1.261 . S
C108 O100 1.252 . S
C109 C112 1.394 . S
C109 C114 1.370 . S
C109 C115 1.500 . S
C110 C113 1.383 . S
C110 C114 1.395 . S
C111 C112 1.396 . S
C111 C113 1.365 . S
C111 H128 0.929 . S
C112 C109 1.394 . S
C112 C111 1.396 . S
C112 H129 0.930 . S
C113 C110 1.383 . S
C113 C111 1.365 . S
C113 H130 0.931 . S
C114 C109 1.370 . S
C114 C110 1.395 . S
C114 H131 0.930 . S
C115 Gd62 2.805 . S
C115 O97 1.263 . S
C115 O98 1.252 . S
C115 C109 1.500 . S
C116 H78 0.930 . S
C116 C92 1.417 . S
C116 C117 1.329 . S
C117 C87 1.437 . S
C117 H88 0.929 . S
C117 C116 1.329 . S
H118 C91 0.931 . S
C119 O101 1.265 . S
C119 O102 1.242 1_565 S
C120 O105 1.261 . S
C120 O106 1.252 . S
C121 C124 1.394 . S
C121 C126 1.370 . S
C121 C127 1.500 . S
C122 C125 1.383 . S
C122 C126 1.395 . S
C123 C124 1.396 . S
C123 C125 1.365 . S
C123 H132 0.929 . S
C124 C121 1.394 . S
C124 C123 1.396 . S
C124 H133 0.930 . S
C125 C122 1.383 . S
C125 C123 1.365 . S
C125 H134 0.931 . S
C126 C121 1.370 . S
C126 C122 1.395 . S
C126 H135 0.930 . S
C127 Gd63 2.805 . S
C127 O103 1.263 . S
C127 O104 1.252 . S
C127 C121 1.500 . S
H128 C111 0.929 . S
H129 C112 0.930 . S
H130 C113 0.931 . S
H131 C114 0.930 . S
H132 C123 0.929 . S
H133 C124 0.930 . S
H134 C125 0.931 . S
H135 C126 0.930 . S
C136 C138 1.422 . S
C136 C140 1.415 . S
C136 N142 1.369 . S
C137 C138 1.421 . S
C137 C139 1.417 . S
C137 C149 1.422 . S
C138 C136 1.422 . S
C138 C137 1.421 . S
C138 N148 1.359 . S
C139 C137 1.417 . S
C139 C141 1.329 . S
C139 H158 0.930 . S
C140 C136 1.415 . S
C140 C141 1.437 . S
C140 C144 1.413 . S
C141 C139 1.329 . S
C141 C140 1.437 . S
C141 H163 0.929 . S
N142 C136 1.369 . S
N142 C143 1.338 . S
N142 Gd147 2.622 . S
C143 N142 1.338 . S
C143 C145 1.378 . S
C143 H155 0.929 . S
C144 C140 1.413 . S
C144 C145 1.348 . S
C144 H160 0.931 . S
C145 C143 1.378 . S
C145 C144 1.348 . S
C145 H161 0.930 . S
Gd146 N166 2.622 . S
Gd146 N173 2.570 1_556 S
Gd146 O180 2.353 . S
Gd146 O181 2.468 . S
Gd146 O182 2.427 . S
Gd146 O184 2.389 . S
Gd146 O185 2.386 1_556 S
Gd146 O189 2.307 1_556 S
Gd146 C199 2.805 . S
Gd147 N142 2.622 . S
Gd147 N148 2.570 . S
Gd147 O179 2.386 1_554 S
Gd147 O183 2.307 . S
Gd147 O186 2.353 . S
Gd147 O187 2.468 . S
Gd147 O188 2.427 . S
Gd147 O190 2.388 . S
Gd147 C211 2.805 . S
N148 C138 1.359 . S
N148 Gd147 2.570 . S
N148 C150 1.343 . S
C149 C137 1.422 . S
C149 C151 1.321 . S
C149 H157 0.931 . S
C150 N148 1.343 . S
C150 C151 1.390 . S
C150 H152 0.931 . S
C151 C149 1.321 . S
C151 C150 1.390 . S
C151 H153 0.930 . S
H152 C150 0.931 . S
H153 C151 0.930 . S
H154 C177 0.931 . S
H155 C143 0.929 . S
H156 C178 0.930 . S
H157 C149 0.931 . S
H158 C139 0.930 . S
H159 C168 0.929 . S
H160 C144 0.931 . S
H161 C145 0.930 . S
H162 C200 0.930 . S
H163 C141 0.929 . S
H164 C169 0.931 . S
H165 C170 0.930 . S
N166 Gd146 2.622 . S
N166 C167 1.369 1_556 S
N166 C168 1.338 . S
C167 N166 1.369 1_554 S
C167 C171 1.415 . S
C167 C174 1.422 . S
C168 H159 0.929 . S
C168 N166 1.338 . S
C168 C170 1.378 . S
C169 H164 0.931 . S
C169 C170 1.348 1_554 S
C169 C171 1.413 . S
C170 H165 0.930 . S
C170 C168 1.378 . S
C170 C169 1.348 1_556 S
C171 C167 1.415 . S
C171 C169 1.413 . S
C171 C201 1.437 . S
H172 C201 0.929 . S
N173 Gd146 2.570 1_554 S
N173 C174 1.359 . S
N173 C177 1.343 . S
C174 C167 1.422 . S
C174 N173 1.359 . S
C174 C176 1.421 . S
C175 C176 1.422 . S
C175 C178 1.321 . S
C175 H202 0.931 . S
C176 C174 1.421 . S
C176 C175 1.422 . S
C176 C200 1.417 . S
C177 H154 0.931 . S
C177 N173 1.343 . S
C177 C178 1.390 . S
C178 H156 0.930 . S
C178 C175 1.321 . S
C178 C177 1.390 . S
O179 Gd147 2.386 1_556 S
O179 C191 1.265 . S
O180 Gd146 2.353 . S
O180 C191 1.242 . S
O181 Gd146 2.468 . S
O181 C199 1.263 . S
O182 Gd146 2.427 . S
O182 C199 1.252 . S
O183 Gd147 2.307 . S
O183 C192 1.261 . S
O184 Gd146 2.389 . S
O184 C192 1.250 1_556 S
O185 Gd146 2.386 1_554 S
O185 C203 1.265 . S
O186 Gd147 2.353 . S
O186 C203 1.242 . S
O187 Gd147 2.468 . S
O187 C211 1.263 . S
O188 Gd147 2.427 . S
O188 C211 1.252 . S
O189 Gd146 2.307 1_554 S
O189 C204 1.261 . S
O190 Gd147 2.388 . S
O190 C204 1.252 . S
C191 O179 1.265 . S
C191 O180 1.242 . S
C192 O183 1.261 . S
C192 O184 1.250 1_554 S
C193 C196 1.394 . S
C193 C198 1.370 . S
C193 C199 1.500 . S
C194 C197 1.383 . S
C194 C198 1.395 . S
C195 C196 1.396 . S
C195 C197 1.365 . S
C195 H212 0.929 . S
C196 C193 1.394 . S
C196 C195 1.396 . S
C196 H213 0.930 . S
C197 C194 1.383 . S
C197 C195 1.365 . S
C197 H214 0.931 . S
C198 C193 1.370 . S
C198 C194 1.395 . S
C198 H215 0.930 . S
C199 Gd146 2.805 . S
C199 O181 1.263 . S
C199 O182 1.252 . S
C199 C193 1.500 . S
C200 H162 0.930 . S
C200 C176 1.417 . S
C200 C201 1.329 . S
C201 C171 1.437 . S
C201 H172 0.929 . S
C201 C200 1.329 . S
H202 C175 0.931 . S
C203 O185 1.265 . S
C203 O186 1.242 . S
C204 O189 1.261 . S
C204 O190 1.252 . S
C205 C208 1.394 . S
C205 C210 1.370 . S
C205 C211 1.500 . S
C206 C209 1.383 . S
C206 C210 1.395 . S
C207 C208 1.396 . S
C207 C209 1.365 . S
C207 H216 0.929 . S
C208 C205 1.394 . S
C208 C207 1.396 . S
C208 H217 0.930 . S
C209 C206 1.383 . S
C209 C207 1.365 . S
C209 H218 0.931 . S
C210 C205 1.370 . S
C210 C206 1.395 . S
C210 H219 0.930 . S
C211 Gd147 2.805 . S
C211 O187 1.263 . S
C211 O188 1.252 . S
C211 C205 1.500 . S
H212 C195 0.929 . S
H213 C196 0.930 . S
H214 C197 0.931 . S
H215 C198 0.930 . S
H216 C207 0.929 . S
H217 C208 0.930 . S
H218 C209 0.931 . S
H219 C210 0.930 . S
H220 C228 0.929 . S
H221 C230 0.930 . S
H222 C232 0.930 . S
H223 C235 0.929 . S
H224 C238 0.930 . S
H225 C240 0.960 . S
H226 C240 0.960 . S
H227 C240 0.960 . S
C228 H220 0.929 . S
C228 C229 1.377 . S
C228 C230 1.384 . S
C229 C228 1.377 . S
C229 C235 1.390 . S
C230 H221 0.930 . S
C230 C228 1.384 . S
C230 C231 1.372 . S
C231 C230 1.372 . S
C231 C232 1.400 . S
C231 C236 1.490 . S
C232 H222 0.930 . S
C232 C231 1.400 . S
C232 C235 1.386 . S
H233 C249 0.930 . S
H234 C250 0.931 . S
C235 H223 0.929 . S
C235 C229 1.390 . S
C235 C232 1.386 . S
C236 C231 1.490 . S
C236 C238 1.395 . S
C236 C239 1.403 . S
H237 C243 0.930 . S
C238 H224 0.930 . S
C238 C236 1.395 . S
C238 C241 1.403 . S
C239 C236 1.403 . S
C239 C240 1.524 . S
C239 C243 1.400 . S
C240 H225 0.960 . S
C240 H226 0.960 . S
C240 H227 0.960 . S
C240 C239 1.524 . S
C241 C238 1.403 . S
C241 C242 1.392 . S
C241 C245 1.495 . S
C242 C241 1.392 . S
C242 C243 1.385 . S
C242 C244 1.478 . S
C243 H237 0.930 . S
C243 C239 1.400 . S
C243 C242 1.385 . S
C244 C242 1.478 . S
C244 C246 1.381 . S
C244 C250 1.383 . S
C245 C241 1.495 . S
C245 H251 0.959 . S
C245 H252 0.961 . S
C245 H253 0.960 . S
C246 C244 1.381 . S
C246 C247 1.394 . S
C246 H254 0.930 . S
C247 C246 1.394 . S
C247 C248 1.383 . S
C247 H255 0.929 . S
C248 C247 1.383 . S
C248 C249 1.377 . S
C249 H233 0.930 . S
C249 C248 1.377 . S
C249 C250 1.379 . S
C250 H234 0.931 . S
C250 C244 1.383 . S
C250 C249 1.379 . S
H251 C245 0.959 . S
H252 C245 0.961 . S
H253 C245 0.960 . S
H254 C246 0.930 . S
H255 C247 0.929 . S
H256 C264 0.929 . S
H257 C266 0.930 . S
H258 C268 0.930 . S
H259 C271 0.929 . S
H260 C274 0.930 . S
H261 C276 0.960 . S
H262 C276 0.960 . S
H263 C276 0.960 . S
C264 H256 0.929 . S
C264 C265 1.377 1_556 S
C264 C266 1.384 . S
C265 C264 1.377 1_554 S
C265 C271 1.390 . S
C266 H257 0.930 . S
C266 C264 1.384 . S
C266 C267 1.372 1_556 S
C267 C266 1.372 1_554 S
C267 C268 1.400 . S
C267 C272 1.490 . S
C268 H258 0.930 . S
C268 C267 1.400 . S
C268 C271 1.386 . S
H269 C285 0.930 . S
H270 C286 0.931 . S
C271 H259 0.929 . S
C271 C265 1.390 . S
C271 C268 1.386 . S
C272 C267 1.490 . S
C272 C274 1.395 . S
C272 C275 1.403 . S
H273 C279 0.930 . S
C274 H260 0.930 . S
C274 C272 1.395 . S
C274 C277 1.403 . S
C275 C272 1.403 . S
C275 C276 1.524 . S
C275 C279 1.400 . S
C276 H261 0.960 . S
C276 H262 0.960 . S
C276 H263 0.960 . S
C276 C275 1.524 . S
C277 C274 1.403 . S
C277 C278 1.392 . S
C277 C281 1.495 1_554 S
C278 C277 1.392 . S
C278 C279 1.385 . S
C278 C280 1.478 . S
C279 H273 0.930 . S
C279 C275 1.400 . S
C279 C278 1.385 . S
C280 C278 1.478 . S
C280 C282 1.381 1_554 S
C280 C286 1.383 . S
C281 C277 1.495 1_556 S
C281 H287 0.959 . S
C281 H288 0.961 1_556 S
C281 H289 0.960 . S
C282 C280 1.381 1_556 S
C282 C283 1.394 . S
C282 H290 0.930 . S
C283 C282 1.394 . S
C283 C284 1.383 1_556 S
C283 H291 0.929 . S
C284 C283 1.383 1_554 S
C284 C285 1.377 . S
C285 H269 0.930 . S
C285 C284 1.377 . S
C285 C286 1.379 . S
C286 H270 0.931 . S
C286 C280 1.383 . S
C286 C285 1.379 . S
H287 C281 0.959 . S
H288 C281 0.961 1_554 S
H289 C281 0.960 . S
H290 C282 0.930 . S
H291 C283 0.929 . S
H292 C300 0.929 . S
H293 C302 0.930 . S
H294 C304 0.930 . S
H295 C307 0.929 . S
H296 C310 0.930 . S
H297 C312 0.960 . S
H298 C312 0.960 . S
H299 C312 0.960 . S
C300 H292 0.929 . S
C300 C301 1.377 . S
C300 C302 1.384 . S
C301 C300 1.377 . S
C301 C307 1.390 . S
C302 H293 0.930 . S
C302 C300 1.384 . S
C302 C303 1.372 . S
C303 C302 1.372 . S
C303 C304 1.400 . S
C303 C308 1.490 . S
C304 H294 0.930 . S
C304 C303 1.400 . S
C304 C307 1.386 . S
H305 C321 0.930 . S
H306 C322 0.931 . S
C307 H295 0.929 . S
C307 C301 1.390 . S
C307 C304 1.386 . S
C308 C303 1.490 . S
C308 C310 1.395 . S
C308 C311 1.403 . S
H309 C315 0.930 . S
C310 H296 0.930 . S
C310 C308 1.395 . S
C310 C313 1.403 . S
C311 C308 1.403 . S
C311 C312 1.524 . S
C311 C315 1.400 . S
C312 H297 0.960 . S
C312 H298 0.960 . S
C312 H299 0.960 . S
C312 C311 1.524 . S
C313 C310 1.403 . S
C313 C314 1.392 . S
C313 C317 1.495 . S
C314 C313 1.392 . S
C314 C315 1.385 . S
C314 C316 1.478 . S
C315 H309 0.930 . S
C315 C311 1.400 . S
C315 C314 1.385 . S
C316 C314 1.478 . S
C316 C318 1.381 . S
C316 C322 1.383 . S
C317 C313 1.495 . S
C317 H323 0.959 . S
C317 H324 0.961 . S
C317 H325 0.960 . S
C318 C316 1.381 . S
C318 C319 1.394 . S
C318 H326 0.930 . S
C319 C318 1.394 . S
C319 C320 1.383 . S
C319 H327 0.929 . S
C320 C319 1.383 . S
C320 C321 1.377 . S
C321 H305 0.930 . S
C321 C320 1.377 . S
C321 C322 1.379 . S
C322 H306 0.931 . S
C322 C316 1.383 . S
C322 C321 1.379 . S
H323 C317 0.959 . S
H324 C317 0.961 . S
H325 C317 0.960 . S
H326 C318 0.930 . S
H327 C319 0.929 . S
H328 C336 0.929 . S
H329 C338 0.930 . S
H330 C340 0.930 . S
H331 C343 0.929 . S
H332 C346 0.930 1_556 S
H333 C348 0.960 . S
H334 C348 0.960 . S
H335 C348 0.960 . S
C336 H328 0.929 . S
C336 C337 1.377 1_556 S
C336 C338 1.384 . S
C337 C336 1.377 1_554 S
C337 C343 1.390 . S
C338 H329 0.930 . S
C338 C336 1.384 . S
C338 C339 1.372 1_556 S
C339 C338 1.372 1_554 S
C339 C340 1.400 . S
C339 C344 1.490 . S
C340 H330 0.930 . S
C340 C339 1.400 . S
C340 C343 1.386 . S
H341 C357 0.930 . S
H342 C358 0.931 . S
C343 H331 0.929 . S
C343 C337 1.390 . S
C343 C340 1.386 . S
C344 C339 1.490 . S
C344 C346 1.395 . S
C344 C347 1.403 . S
H345 C351 0.930 . S
C346 H332 0.930 1_554 S
C346 C344 1.395 . S
C346 C349 1.403 . S
C347 C344 1.403 . S
C347 C348 1.524 . S
C347 C351 1.400 . S
C348 H333 0.960 . S
C348 H334 0.960 . S
C348 H335 0.960 . S
C348 C347 1.524 . S
C349 C346 1.403 . S
C349 C350 1.392 . S
C349 C353 1.495 1_554 S
C350 C349 1.392 . S
C350 C351 1.385 . S
C350 C352 1.478 . S
C351 H345 0.930 . S
C351 C347 1.400 . S
C351 C350 1.385 . S
C352 C350 1.478 . S
C352 C354 1.381 1_554 S
C352 C358 1.383 . S
C353 C349 1.495 1_556 S
C353 H359 0.959 . S
C353 H360 0.961 1_556 S
C353 H361 0.960 . S
C354 C352 1.381 1_556 S
C354 C355 1.394 . S
C354 H362 0.930 . S
C355 C354 1.394 . S
C355 C356 1.383 1_556 S
C355 H363 0.929 . S
C356 C355 1.383 1_554 S
C356 C357 1.377 . S
C357 H341 0.930 . S
C357 C356 1.377 . S
C357 C358 1.379 . S
C358 H342 0.931 . S
C358 C352 1.383 . S
C358 C357 1.379 . S
H359 C353 0.959 . S
H360 C353 0.961 1_554 S
H361 C353 0.960 . S
H362 C354 0.930 . S
H363 C355 0.929 . S
H364 C372 0.929 . S
H365 C374 0.930 . S
H366 C376 0.930 . S
H367 C379 0.929 . S
H368 C382 0.930 . S
H369 C384 0.960 . S
H370 C384 0.960 . S
H371 C384 0.960 . S
C372 H364 0.929 . S
C372 C373 1.377 . S
C372 C374 1.384 . S
C373 C372 1.377 . S
C373 C379 1.390 . S
C374 H365 0.930 . S
C374 C372 1.384 . S
C374 C375 1.372 . S
C375 C374 1.372 . S
C375 C376 1.400 . S
C375 C380 1.490 . S
C376 H366 0.930 . S
C376 C375 1.400 . S
C376 C379 1.386 . S
H377 C393 0.930 . S
H378 C394 0.931 . S
C379 H367 0.929 . S
C379 C373 1.390 . S
C379 C376 1.386 . S
C380 C375 1.490 . S
C380 C382 1.395 . S
C380 C383 1.403 . S
H381 C387 0.930 . S
C382 H368 0.930 . S
C382 C380 1.395 . S
C382 C385 1.403 . S
C383 C380 1.403 . S
C383 C384 1.524 . S
C383 C387 1.400 . S
C384 H369 0.960 . S
C384 H370 0.960 . S
C384 H371 0.960 . S
C384 C383 1.524 . S
C385 C382 1.403 . S
C385 C386 1.392 . S
C385 C389 1.495 . S
C386 C385 1.392 . S
C386 C387 1.385 . S
C386 C388 1.478 . S
C387 H381 0.930 . S
C387 C383 1.400 . S
C387 C386 1.385 . S
C388 C386 1.478 . S
C388 C390 1.381 . S
C388 C394 1.383 . S
C389 C385 1.495 . S
C389 H395 0.959 . S
C389 H396 0.961 . S
C389 H397 0.960 . S
C390 C388 1.381 . S
C390 C391 1.394 . S
C390 H398 0.930 . S
C391 C390 1.394 . S
C391 C392 1.383 . S
C391 H399 0.929 . S
C392 C391 1.383 . S
C392 C393 1.377 . S
C393 H377 0.930 . S
C393 C392 1.377 . S
C393 C394 1.379 . S
C394 H378 0.931 . S
C394 C388 1.383 . S
C394 C393 1.379 . S
H395 C389 0.959 . S
H396 C389 0.961 . S
H397 C389 0.960 . S
H398 C390 0.930 . S
H399 C391 0.929 . S
H400 C408 0.929 . S
H401 C410 0.930 . S
H402 C412 0.930 . S
H403 C415 0.929 . S
H404 C418 0.930 . S
H405 C420 0.960 . S
H406 C420 0.960 . S
H407 C420 0.960 . S
C408 H400 0.929 . S
C408 C409 1.377 . S
C408 C410 1.384 . S
C409 C408 1.377 . S
C409 C415 1.390 . S
C410 H401 0.930 . S
C410 C408 1.384 . S
C410 C411 1.372 . S
C411 C410 1.372 . S
C411 C412 1.400 . S
C411 C416 1.490 . S
C412 H402 0.930 . S
C412 C411 1.400 . S
C412 C415 1.386 . S
H413 C429 0.930 . S
H414 C430 0.931 . S
C415 H403 0.929 . S
C415 C409 1.390 . S
C415 C412 1.386 . S
C416 C411 1.490 . S
C416 C418 1.395 . S
C416 C419 1.403 . S
H417 C423 0.930 . S
C418 H404 0.930 . S
C418 C416 1.395 . S
C418 C421 1.403 . S
C419 C416 1.403 . S
C419 C420 1.524 . S
C419 C423 1.400 . S
C420 H405 0.960 . S
C420 H406 0.960 . S
C420 H407 0.960 . S
C420 C419 1.524 . S
C421 C418 1.403 . S
C421 C422 1.392 . S
C421 C425 1.495 . S
C422 C421 1.392 . S
C422 C423 1.385 . S
C422 C424 1.478 . S
C423 H417 0.930 . S
C423 C419 1.400 . S
C423 C422 1.385 . S
C424 C422 1.478 . S
C424 C426 1.381 . S
C424 C430 1.383 . S
C425 C421 1.495 . S
C425 H431 0.959 . S
C425 H432 0.961 . S
C425 H433 0.960 . S
C426 C424 1.381 . S
C426 C427 1.394 . S
C426 H434 0.930 . S
C427 C426 1.394 . S
C427 C428 1.383 . S
C427 H435 0.929 . S
C428 C427 1.383 . S
C428 C429 1.377 . S
C429 H413 0.930 . S
C429 C428 1.377 . S
C429 C430 1.379 . S
C430 H414 0.931 . S
C430 C424 1.383 . S
C430 C429 1.379 . S
H431 C425 0.959 . S
H432 C425 0.961 . S
H433 C425 0.960 . S
H434 C426 0.930 . S
H435 C427 0.929 . S
H436 C444 0.929 . S
H437 C446 0.930 . S
H438 C448 0.930 . S
H439 C451 0.929 . S
H440 C454 0.930 . S
H441 C456 0.960 . S
H442 C456 0.960 . S
H443 C456 0.960 . S
C444 H436 0.929 . S
C444 C445 1.377 . S
C444 C446 1.384 . S
C445 C444 1.377 . S
C445 C451 1.390 . S
C446 H437 0.930 . S
C446 C444 1.384 . S
C446 C447 1.372 . S
C447 C446 1.372 . S
C447 C448 1.400 . S
C447 C452 1.490 . S
C448 H438 0.930 . S
C448 C447 1.400 . S
C448 C451 1.386 . S
H449 C465 0.930 . S
H450 C466 0.931 . S
C451 H439 0.929 . S
C451 C445 1.390 . S
C451 C448 1.386 . S
C452 C447 1.490 . S
C452 C454 1.395 . S
C452 C455 1.403 . S
H453 C459 0.930 . S
C454 H440 0.930 . S
C454 C452 1.395 . S
C454 C457 1.403 . S
C455 C452 1.403 . S
C455 C456 1.524 . S
C455 C459 1.400 . S
C456 H441 0.960 . S
C456 H442 0.960 . S
C456 H443 0.960 . S
C456 C455 1.524 . S
C457 C454 1.403 . S
C457 C458 1.392 . S
C457 C461 1.495 . S
C458 C457 1.392 . S
C458 C459 1.385 . S
C458 C460 1.478 . S
C459 H453 0.930 . S
C459 C455 1.400 . S
C459 C458 1.385 . S
C460 C458 1.478 . S
C460 C462 1.381 . S
C460 C466 1.383 . S
C461 C457 1.495 . S
C461 H467 0.959 . S
C461 H468 0.961 . S
C461 H469 0.960 . S
C462 C460 1.381 . S
C462 C463 1.394 . S
C462 H470 0.930 . S
C463 C462 1.394 . S
C463 C464 1.383 . S
C463 H471 0.919 1_545 S
C464 C463 1.383 . S
C464 C465 1.377 . S
C465 H449 0.930 . S
C465 C464 1.377 . S
C465 C466 1.379 . S
C466 H450 0.931 . S
C466 C460 1.383 . S
C466 C465 1.379 . S
H467 C461 0.959 . S
H468 C461 0.961 . S
H469 C461 0.960 . S
H470 C462 0.930 . S
H471 C463 0.919 1_565 S
H472 C480 0.929 . S
H473 C482 0.930 . S
H474 C484 0.930 . S
H475 C487 0.929 . S
H476 C490 0.930 . S
H477 C492 0.960 . S
H478 C492 0.960 . S
H479 C492 0.960 . S
C480 H472 0.929 . S
C480 C481 1.377 . S
C480 C482 1.384 . S
C481 C480 1.377 . S
C481 C487 1.390 . S
C482 H473 0.930 . S
C482 C480 1.384 . S
C482 C483 1.372 . S
C483 C482 1.372 . S
C483 C484 1.400 . S
C483 C488 1.490 . S
C484 H474 0.930 . S
C484 C483 1.400 . S
C484 C487 1.386 . S
H485 C501 0.930 . S
H486 C502 0.931 . S
C487 H475 0.929 . S
C487 C481 1.390 . S
C487 C484 1.386 . S
C488 C483 1.490 . S
C488 C490 1.395 . S
C488 C491 1.403 . S
H489 C495 0.930 . S
C490 H476 0.930 . S
C490 C488 1.395 . S
C490 C493 1.403 . S
C491 C488 1.403 . S
C491 C492 1.524 . S
C491 C495 1.400 . S
C492 H477 0.960 . S
C492 H478 0.960 . S
C492 H479 0.960 . S
C492 C491 1.524 . S
C493 C490 1.403 . S
C493 C494 1.392 . S
C493 C497 1.495 . S
C494 C493 1.392 . S
C494 C495 1.385 . S
C494 C496 1.478 . S
C495 H489 0.930 . S
C495 C491 1.400 . S
C495 C494 1.385 . S
C496 C494 1.478 . S
C496 C498 1.381 . S
C496 C502 1.383 . S
C497 C493 1.495 . S
C497 H503 0.959 . S
C497 H504 0.961 . S
C497 H505 0.960 . S
C498 C496 1.381 . S
C498 C499 1.394 . S
C498 H506 0.930 . S
C499 C498 1.394 . S
C499 C500 1.383 . S
C499 H507 0.929 . S
C500 C499 1.383 . S
C500 C501 1.377 . S
C501 H485 0.930 . S
C501 C500 1.377 . S
C501 C502 1.379 . S
C502 H486 0.931 . S
C502 C496 1.383 . S
C502 C501 1.379 . S
H503 C497 0.959 . S
H504 C497 0.961 . S
H505 C497 0.960 . S
H506 C498 0.930 . S
H507 C499 0.929 . S
H508 C516 0.929 . S
H509 C518 0.930 . S
H510 C520 0.930 . S
H511 C523 0.929 . S
H512 C526 0.930 . S
H513 C528 0.960 . S
H514 C528 0.960 . S
H515 C528 0.960 . S
C516 H508 0.929 . S
C516 C517 1.377 . S
C516 C518 1.384 . S
C517 C516 1.377 . S
C517 C523 1.390 . S
C518 H509 0.930 . S
C518 C516 1.384 . S
C518 C519 1.372 . S
C519 C518 1.372 . S
C519 C520 1.400 . S
C519 C524 1.490 . S
C520 H510 0.930 . S
C520 C519 1.400 . S
C520 C523 1.386 . S
H521 C537 0.930 . S
H522 C538 0.931 . S
C523 H511 0.929 . S
C523 C517 1.390 . S
C523 C520 1.386 . S
C524 C519 1.490 . S
C524 C526 1.395 . S
C524 C527 1.403 . S
H525 C531 0.930 . S
C526 H512 0.930 . S
C526 C524 1.395 . S
C526 C529 1.403 . S
C527 C524 1.403 . S
C527 C528 1.524 . S
C527 C531 1.400 . S
C528 H513 0.960 . S
C528 H514 0.960 . S
C528 H515 0.960 . S
C528 C527 1.524 . S
C529 C526 1.403 . S
C529 C530 1.392 . S
C529 C533 1.495 . S
C530 C529 1.392 . S
C530 C531 1.385 . S
C530 C532 1.478 . S
C531 H525 0.930 . S
C531 C527 1.400 . S
C531 C530 1.385 . S
C532 C530 1.478 . S
C532 C534 1.381 . S
C532 C538 1.383 . S
C533 C529 1.495 . S
C533 H539 0.959 . S
C533 H540 0.961 . S
C533 H541 0.960 . S
C534 C532 1.381 . S
C534 C535 1.394 . S
C534 H542 0.930 . S
C535 C534 1.394 . S
C535 C536 1.383 . S
C535 H543 0.929 . S
C536 C535 1.383 . S
C536 C537 1.377 . S
C537 H521 0.930 . S
C537 C536 1.377 . S
C537 C538 1.379 . S
C538 H522 0.931 . S
C538 C532 1.383 . S
C538 C537 1.379 . S
H539 C533 0.959 . S
H540 C533 0.961 . S
H541 C533 0.960 . S
H542 C534 0.930 . S
H543 C535 0.929 . S
H544 C552 0.929 1_554 S
H545 C554 0.930 . S
H546 C556 0.930 . S
H547 C559 0.929 . S
H548 C562 0.930 . S
H549 C564 0.960 . S
H550 C564 0.960 . S
H551 C564 0.960 . S
C552 H544 0.929 1_556 S
C552 C553 1.377 . S
C552 C554 1.384 . S
C553 C552 1.377 . S
C553 C559 1.390 . S
C554 H545 0.930 . S
C554 C552 1.384 . S
C554 C555 1.372 . S
C555 C554 1.372 . S
C555 C556 1.400 . S
C555 C560 1.490 . S
C556 H546 0.930 . S
C556 C555 1.400 . S
C556 C559 1.386 . S
H557 C573 0.930 . S
H558 C574 0.931 . S
C559 H547 0.929 . S
C559 C553 1.390 . S
C559 C556 1.386 . S
C560 C555 1.490 . S
C560 C562 1.395 . S
C560 C563 1.403 . S
H561 C567 0.930 . S
C562 H548 0.930 . S
C562 C560 1.395 . S
C562 C565 1.403 . S
C563 C560 1.403 . S
C563 C564 1.524 . S
C563 C567 1.400 . S
C564 H549 0.960 . S
C564 H550 0.960 . S
C564 H551 0.960 . S
C564 C563 1.524 . S
C565 C562 1.403 . S
C565 C566 1.392 . S
C565 C569 1.495 . S
C566 C565 1.392 . S
C566 C567 1.385 . S
C566 C568 1.478 . S
C567 H561 0.930 . S
C567 C563 1.400 . S
C567 C566 1.385 . S
C568 C566 1.478 . S
C568 C570 1.381 . S
C568 C574 1.383 . S
C569 C565 1.495 . S
C569 H575 0.959 . S
C569 H576 0.961 . S
C569 H577 0.960 . S
C570 C568 1.381 . S
C570 C571 1.394 . S
C570 H578 0.930 . S
C571 C570 1.394 . S
C571 C572 1.383 . S
C571 H579 0.929 . S
C572 C571 1.383 . S
C572 C573 1.377 . S
C573 H557 0.930 . S
C573 C572 1.377 . S
C573 C574 1.379 . S
C574 H558 0.931 . S
C574 C568 1.383 . S
C574 C573 1.379 . S
H575 C569 0.959 . S
H576 C569 0.961 . S
H577 C569 0.960 . S
H578 C570 0.930 . S
H579 C571 0.929 . S
H580 C588 0.929 . S
H581 C590 0.930 . S
H582 C592 0.930 . S
H583 C595 0.929 . S
H584 C598 0.930 . S
H585 C600 0.960 . S
H586 C600 0.960 . S
H587 C600 0.960 . S
C588 H580 0.929 . S
C588 C589 1.377 . S
C588 C590 1.384 . S
C589 C588 1.377 . S
C589 C595 1.390 . S
C590 H581 0.930 . S
C590 C588 1.384 . S
C590 C591 1.372 . S
C591 C590 1.372 . S
C591 C592 1.400 . S
C591 C596 1.490 . S
C592 H582 0.930 . S
C592 C591 1.400 . S
C592 C595 1.386 . S
H593 C609 0.930 . S
H594 C610 0.931 . S
C595 H583 0.929 . S
C595 C589 1.390 . S
C595 C592 1.386 . S
C596 C591 1.490 . S
C596 C598 1.395 . S
C596 C599 1.403 . S
H597 C603 0.930 . S
C598 H584 0.930 . S
C598 C596 1.395 . S
C598 C601 1.403 . S
C599 C596 1.403 . S
C599 C600 1.524 . S
C599 C603 1.400 . S
C600 H585 0.960 . S
C600 H586 0.960 . S
C600 H587 0.960 . S
C600 C599 1.524 . S
C601 C598 1.403 . S
C601 C602 1.392 . S
C601 C605 1.495 . S
C602 C601 1.392 . S
C602 C603 1.385 . S
C602 C604 1.478 . S
C603 H597 0.930 . S
C603 C599 1.400 . S
C603 C602 1.385 . S
C604 C602 1.478 . S
C604 C606 1.381 . S
C604 C610 1.383 . S
C605 C601 1.495 . S
C605 H611 0.959 . S
C605 H612 0.961 . S
C605 H613 0.960 . S
C606 C604 1.381 . S
C606 C607 1.394 . S
C606 H614 0.930 . S
C607 C606 1.394 . S
C607 C608 1.383 . S
C607 H615 0.929 . S
C608 C607 1.383 . S
C608 C609 1.377 . S
C609 H593 0.930 . S
C609 C608 1.377 . S
C609 C610 1.379 . S
C610 H594 0.931 . S
C610 C604 1.383 . S
C610 C609 1.379 . S
H611 C605 0.959 . S
H612 C605 0.961 . S
H613 C605 0.960 . S
H614 C606 0.930 . S
H615 C607 0.929 . S
H616 C624 0.929 . S
H617 C626 0.930 . S
H618 C628 0.930 . S
H619 C631 0.929 . S
H620 C634 0.930 . S
H621 C636 0.960 . S
H622 C636 0.960 . S
H623 C636 0.960 . S
C624 H616 0.929 . S
C624 C625 1.377 . S
C624 C626 1.384 . S
C625 C624 1.377 . S
C625 C631 1.390 . S
C626 H617 0.930 . S
C626 C624 1.384 . S
C626 C627 1.372 . S
C627 C626 1.372 . S
C627 C628 1.400 . S
C627 C632 1.490 . S
C628 H618 0.930 . S
C628 C627 1.400 . S
C628 C631 1.386 . S
H629 C645 0.930 1_545 S
H630 C646 0.931 . S
C631 H619 0.929 . S
C631 C625 1.390 . S
C631 C628 1.386 . S
C632 C627 1.490 . S
C632 C634 1.395 . S
C632 C635 1.403 . S
H633 C639 0.930 . S
C634 H620 0.930 . S
C634 C632 1.395 . S
C634 C637 1.403 . S
C635 C632 1.403 . S
C635 C636 1.524 . S
C635 C639 1.400 . S
C636 H621 0.960 . S
C636 H622 0.960 . S
C636 H623 0.960 . S
C636 C635 1.524 . S
C637 C634 1.403 . S
C637 C638 1.392 . S
C637 C641 1.495 . S
C638 C637 1.392 . S
C638 C639 1.385 . S
C638 C640 1.478 . S
C639 H633 0.930 . S
C639 C635 1.400 . S
C639 C638 1.385 . S
C640 C638 1.478 . S
C640 C642 1.381 . S
C640 C646 1.383 . S
C641 C637 1.495 . S
C641 H647 0.959 . S
C641 H648 0.961 . S
C641 H649 0.960 . S
C642 C640 1.381 . S
C642 C643 1.394 . S
C642 H650 0.930 . S
C643 C642 1.394 . S
C643 C644 1.383 . S
C643 H651 0.929 . S
C644 C643 1.383 . S
C644 C645 1.377 . S
C645 H629 0.930 1_565 S
C645 C644 1.377 . S
C645 C646 1.379 . S
C646 H630 0.931 . S
C646 C640 1.383 . S
C646 C645 1.379 . S
H647 C641 0.959 . S
H648 C641 0.961 . S
H649 C641 0.960 . S
H650 C642 0.930 . S
H651 C643 0.929 . S
C248 C120 1.690 . S
C229 N41 1.724 . S
C265 N2 1.674 . S
C284 C192 1.650 . S
C301 N15 1.718 . S
C320 C108 1.707 . S
C337 N28 1.668 . S
C356 C204 1.662 . S
C392 C110 1.411 . S
C373 N5 1.616 . S
C428 C191 1.688 . S
C409 N14 1.686 . S
C445 N27 1.593 . S
C464 C107 1.620 . S
C481 N44 1.585 . S
C500 C194 1.448 . S
C536 C206 1.434 . S
C517 N18 1.583 . S
C572 C122 1.461 . S
C553 N31 1.616 1_556 S
C608 C203 1.685 . S
C589 N40 1.691 . S
C625 N1 1.601 1_556 S
C644 C119 1.618 . S
