# Generated by pormake.
# Topology wbl, (4,4)-cn, num edge types: 1
# Building blocks:
#     Node 0, Type 0, BuildingBlock: NAWXER_clean_linker_0, # of connection points: 4
#     Node 1, Type 0, BuildingBlock: NAWXER_clean_linker_0, # of connection points: 4
#     Node 2, Type 0, BuildingBlock: NAWXER_clean_linker_0, # of connection points: 4
#     Node 3, Type 0, BuildingBlock: NAWXER_clean_linker_0, # of connection points: 4
#     Node 4, Type 0, BuildingBlock: NAWXER_clean_linker_0, # of connection points: 4
#     Node 5, Type 0, BuildingBlock: NAWXER_clean_linker_0, # of connection points: 4
#     Node 6, Type 0, BuildingBlock: NAWXER_clean_linker_0, # of connection points: 4
#     Node 7, Type 0, BuildingBlock: NAWXER_clean_linker_0, # of connection points: 4
#     Node 8, Type 1, BuildingBlock: NAHDIM_clean_sbu_0, # of connection points: 4
#     Node 9, Type 1, BuildingBlock: NAHDIM_clean_sbu_0, # of connection points: 4
#     Node 10, Type 1, BuildingBlock: NAHDIM_clean_sbu_0, # of connection points: 4
#     Node 11, Type 1, BuildingBlock: NAHDIM_clean_sbu_0, # of connection points: 4
#     Node 12, Type 1, BuildingBlock: NAHDIM_clean_sbu_0, # of connection points: 4
#     Node 13, Type 1, BuildingBlock: NAHDIM_clean_sbu_0, # of connection points: 4
#     Node 14, Type 1, BuildingBlock: NAHDIM_clean_sbu_0, # of connection points: 4
#     Node 15, Type 1, BuildingBlock: NAHDIM_clean_sbu_0, # of connection points: 4
#     Edge 16, Type (0, 1), BuildingBlock: MIFKUJ_clean_linker_0, # of connection points: 2
#     Edge 17, Type (0, 1), BuildingBlock: MIFKUJ_clean_linker_0, # of connection points: 2
#     Edge 18, Type (0, 1), BuildingBlock: MIFKUJ_clean_linker_0, # of connection points: 2
#     Edge 19, Type (0, 1), BuildingBlock: MIFKUJ_clean_linker_0, # of connection points: 2
#     Edge 20, Type (0, 1), BuildingBlock: MIFKUJ_clean_linker_0, # of connection points: 2
#     Edge 21, Type (0, 1), BuildingBlock: MIFKUJ_clean_linker_0, # of connection points: 2
#     Edge 22, Type (0, 1), BuildingBlock: MIFKUJ_clean_linker_0, # of connection points: 2
#     Edge 23, Type (0, 1), BuildingBlock: MIFKUJ_clean_linker_0, # of connection points: 2
#     Edge 24, Type (0, 1), BuildingBlock: MIFKUJ_clean_linker_0, # of connection points: 2
#     Edge 25, Type (0, 1), BuildingBlock: MIFKUJ_clean_linker_0, # of connection points: 2
#     Edge 26, Type (0, 1), BuildingBlock: MIFKUJ_clean_linker_0, # of connection points: 2
#     Edge 27, Type (0, 1), BuildingBlock: MIFKUJ_clean_linker_0, # of connection points: 2
#     Edge 28, Type (0, 1), BuildingBlock: MIFKUJ_clean_linker_0, # of connection points: 2
#     Edge 29, Type (0, 1), BuildingBlock: MIFKUJ_clean_linker_0, # of connection points: 2
#     Edge 30, Type (0, 1), BuildingBlock: MIFKUJ_clean_linker_0, # of connection points: 2
#     Edge 31, Type (0, 1), BuildingBlock: MIFKUJ_clean_linker_0, # of connection points: 2
#     Edge 32, Type (0, 1), BuildingBlock: MIFKUJ_clean_linker_0, # of connection points: 2
#     Edge 33, Type (0, 1), BuildingBlock: MIFKUJ_clean_linker_0, # of connection points: 2
#     Edge 34, Type (0, 1), BuildingBlock: MIFKUJ_clean_linker_0, # of connection points: 2
#     Edge 35, Type (0, 1), BuildingBlock: MIFKUJ_clean_linker_0, # of connection points: 2
#     Edge 36, Type (0, 1), BuildingBlock: MIFKUJ_clean_linker_0, # of connection points: 2
#     Edge 37, Type (0, 1), BuildingBlock: MIFKUJ_clean_linker_0, # of connection points: 2
#     Edge 38, Type (0, 1), BuildingBlock: MIFKUJ_clean_linker_0, # of connection points: 2
#     Edge 39, Type (0, 1), BuildingBlock: MIFKUJ_clean_linker_0, # of connection points: 2
#     Edge 40, Type (0, 1), BuildingBlock: MIFKUJ_clean_linker_0, # of connection points: 2
#     Edge 41, Type (0, 1), BuildingBlock: MIFKUJ_clean_linker_0, # of connection points: 2
#     Edge 42, Type (0, 1), BuildingBlock: MIFKUJ_clean_linker_0, # of connection points: 2
#     Edge 43, Type (0, 1), BuildingBlock: MIFKUJ_clean_linker_0, # of connection points: 2
#     Edge 44, Type (0, 1), BuildingBlock: MIFKUJ_clean_linker_0, # of connection points: 2
#     Edge 45, Type (0, 1), BuildingBlock: MIFKUJ_clean_linker_0, # of connection points: 2
#     Edge 46, Type (0, 1), BuildingBlock: MIFKUJ_clean_linker_0, # of connection points: 2
#     Edge 47, Type (0, 1), BuildingBlock: MIFKUJ_clean_linker_0, # of connection points: 2
# Relax obj value: 0.156
# Max RMSD: 0.153
# Mean RMSD: 0.137
data_MOF--net-wbl--node1-NAHDIM_clean_sbu_0--node2-NAWXER_clean_linker_0--edge1-MIFKUJ_clean_linker_0
_symmetry_space_group_name_H-M    P1
_symmetry_Int_Tables_number       1
_symmetry_cell_setting            triclinic
loop_
_symmetry_equiv_pos_as_xyz
'x, y, z'
_cell_length_a     57.475113
_cell_length_b     55.666443
_cell_length_c     95.276487
_cell_angle_alpha  89.987453
_cell_angle_beta   90.004562
_cell_angle_gamma 89.934531
loop_
_atom_site_label
_atom_site_type_symbol
_atom_site_fract_x
_atom_site_fract_y
_atom_site_fract_z
_atom_type_partial_charge
C0 C 0.04154 0.93112 0.36951 0.0
C1 C 0.05718 0.94015 0.37954 0.0
C2 C 0.02907 0.94675 0.36085 0.0
C3 C 0.03209 0.97171 0.362 0.0
C4 C 0.06041 0.96512 0.38055 0.0
C5 C 0.04784 0.98075 0.37192 0.0
C6 C 0.01743 0.98844 0.3538 0.0
C7 C 0.06365 0.9538 0.32172 0.0
C8 C 0.0519 0.9382 0.31256 0.0
C9 C 0.05121 0.96903 0.3306 0.0
C10 C 0.02681 0.96899 0.33042 0.0
C11 C 0.02747 0.93799 0.31247 0.0
C12 C 0.01501 0.95351 0.32123 0.0
C13 C 0.01365 0.98601 0.33923 0.0
C14 C 0.9543 0.07294 0.32582 0.0
C15 C 0.93941 0.06239 0.31587 0.0
C16 C 0.96973 0.0588 0.3336 0.0
C17 C 0.97018 0.03373 0.33182 0.0
C18 C 0.94055 0.0374 0.31377 0.0
C19 C 0.95573 0.02326 0.32167 0.0
C20 C 0.98637 0.01829 0.3399 0.0
C21 C 0.94098 0.05145 0.37361 0.0
C22 C 0.95295 0.06858 0.38174 0.0
C23 C 0.95305 0.0363 0.36446 0.0
C24 C 0.97733 0.03782 0.36336 0.0
C25 C 0.9773 0.07022 0.38037 0.0
C26 C 0.98938 0.05476 0.37142 0.0
C27 C 0.99035 0.02086 0.35446 0.0
H28 H 0.03877 0.91196 0.36846 0.0
H29 H 0.01657 0.93933 0.35354 0.0
H30 H 0.07211 0.97262 0.38831 0.0
H31 H 0.05022 -5e-05 0.37311 0.0
H32 H 0.08249 0.95417 0.32203 0.0
H33 H 0.06066 0.98115 0.33742 0.0
H34 H 0.01807 0.92621 0.30543 0.0
H35 H 0.99617 0.9534 0.32087 0.0
H36 H 0.95389 0.09211 0.32775 0.0
H37 H 0.98138 0.06754 0.34091 0.0
H38 H 0.92979 0.0287 0.30595 0.0
H39 H 0.95606 0.00404 0.31989 0.0
H40 H 0.92233 0.04926 0.37454 0.0
H41 H 0.94351 0.023 0.35848 0.0
H42 H 0.98712 0.08346 0.38621 0.0
H43 H 0.00814 0.05613 0.37071 0.0
N44 N 0.00574 0.0059 0.36084 0.0
N45 N -0.00181 0.0009 0.33286 0.0
C46 C 0.92977 0.45052 0.62415 0.0
C47 C 0.94038 0.43623 0.63451 0.0
C48 C 0.94332 0.46484 0.61527 0.0
C49 C 0.9677 0.46473 0.61645 0.0
C50 C 0.96476 0.43588 0.63549 0.0
C51 C 0.97825 0.45003 0.62658 0.0
C52 C 0.98241 0.48127 0.60814 0.0
C53 C 0.94882 0.43207 0.57704 0.0
C54 C 0.93398 0.44367 0.56745 0.0
C55 C 0.96387 0.44533 0.5855 0.0
C56 C 0.96415 0.47049 0.58469 0.0
C57 C 0.93449 0.46886 0.56653 0.0
C58 C 0.94958 0.48215 0.57501 0.0
C59 C 0.98024 0.48464 0.59349 0.0
C60 C 0.06639 0.54241 0.5813 0.0
C61 C 0.05782 0.55999 0.57207 0.0
C62 C 0.05118 0.52689 0.58818 0.0
C63 C 0.02707 0.52886 0.58613 0.0
C64 C 0.03375 0.56119 0.56949 0.0
C65 C 0.01849 0.54566 0.57645 0.0
C66 C 0.0109 0.51342 0.59412 0.0
C67 C 0.041 0.56389 0.62626 0.0
C68 C 0.05608 0.55262 0.63582 0.0
C69 C 0.02725 0.5502 0.61721 0.0
C70 C 0.02828 0.52501 0.61765 0.0
C71 C 0.05734 0.52742 0.63609 0.0
C72 C 0.04334 0.51372 0.62717 0.0
C73 C 0.01267 0.51043 0.60878 0.0
H74 H 0.91099 0.45134 0.62329 0.0
H75 H 0.9347 0.47653 0.60782 0.0
H76 H 0.97341 0.42483 0.64326 0.0
H77 H 0.99701 0.44971 0.62773 0.0
H78 H 0.9487 0.4127 0.5781 0.0
H79 H 0.97538 0.4359 0.59262 0.0
H80 H 0.92346 0.47827 0.55912 0.0
H81 H 0.94977 0.50155 0.5741 0.0
H82 H 0.08489 0.5407 0.58324 0.0
H83 H 0.05828 0.51348 0.59523 0.0
H84 H 0.02666 0.5746 0.56245 0.0
H85 H -5e-05 0.54727 0.5746 0.0
H86 H 0.03976 0.5833 0.62585 0.0
H87 H 0.01545 0.55926 0.6101 0.0
H88 H 0.06865 0.51832 0.64348 0.0
H89 H 0.04422 0.4943 0.62773 0.0
N90 N -0.00145 0.49433 0.6152 0.0
N91 N 0.99457 0.50062 0.58702 0.0
C92 C 0.54863 0.43759 0.86765 0.0
C93 C 0.55996 0.44719 0.8794 0.0
C94 C 0.53574 0.45251 0.85878 0.0
C95 C 0.5347 0.47743 0.86123 0.0
C96 C 0.5587 0.47193 0.88202 0.0
C97 C 0.54628 0.48694 0.87297 0.0
C98 C 0.52002 0.49342 0.85244 0.0
C99 C 0.57168 0.46122 0.82277 0.0
C100 C 0.56172 0.44452 0.8135 0.0
C101 C 0.55759 0.47661 0.8306 0.0
C102 C 0.5333 0.47554 0.82928 0.0
C103 C 0.53741 0.44369 0.81205 0.0
C104 C 0.52331 0.4593 0.81978 0.0
C105 C 0.5183 0.49151 0.83769 0.0
C106 C 0.45641 0.57561 0.82256 0.0
C107 C 0.44287 0.56457 0.81209 0.0
C108 C 0.47176 0.56206 0.83073 0.0
C109 C 0.47344 0.53708 0.82885 0.0
C110 C 0.44533 0.53972 0.80987 0.0
C111 C 0.46043 0.52615 0.81816 0.0
C112 C 0.48936 0.52224 0.83747 0.0
C113 C 0.43949 0.55403 0.86947 0.0
C114 C 0.45038 0.57047 0.87858 0.0
C115 C 0.45274 0.53946 0.86058 0.0
C116 C 0.4771 0.54101 0.86066 0.0
C117 C 0.47481 0.57228 0.87834 0.0
C118 C 0.48802 0.55749 0.8696 0.0
C119 C 0.49143 0.52452 0.85218 0.0
H120 H 0.54904 0.41843 0.86565 0.0
H121 H 0.52607 0.44437 0.85028 0.0
H122 H 0.5672 0.47958 0.89113 0.0
H123 H 0.5455 0.506 0.87523 0.0
H124 H 0.59037 0.46211 0.82414 0.0
H125 H 0.56563 0.4893 0.83772 0.0
H126 H 0.52935 0.43112 0.80487 0.0
H127 H 0.50459 0.45838 0.81855 0.0
H128 H 0.45492 0.59468 0.82463 0.0
H129 H 0.48231 0.57118 0.83848 0.0
H130 H 0.43562 0.53069 0.80169 0.0
H131 H 0.46176 0.50699 0.81631 0.0
H132 H 0.42078 0.55184 0.86952 0.0
H133 H 0.44402 0.52654 0.85391 0.0
H134 H 0.48381 0.58504 0.88497 0.0
H135 H 0.50682 0.55892 0.86981 0.0
N136 N 0.50666 0.51006 0.85906 0.0
N137 N 0.50289 0.50577 0.8308 0.0
C138 C 0.46122 0.90574 0.0781 0.0
C139 C 0.44603 0.91705 0.06862 0.0
C140 C 0.47977 0.91838 0.08396 0.0
C141 C 0.48315 0.94272 0.08068 0.0
C142 C 0.45021 0.941 0.06473 0.0
C143 C 0.46866 0.95374 0.07072 0.0
C144 C 0.50134 0.95689 0.08787 0.0
C145 C 0.4494 0.93693 0.12124 0.0
C146 C 0.45844 0.92255 0.13208 0.0
C147 C 0.46426 0.94777 0.11153 0.0
C148 C 0.48842 0.94407 0.11232 0.0
C149 C 0.48263 0.91897 0.13288 0.0
C150 C 0.49747 0.92973 0.12313 0.0
C151 C 0.50444 0.95645 0.10258 0.0
C152 C 0.5667 0.03809 0.11538 0.0
C153 C 0.58042 0.02757 0.12595 0.0
C154 C 0.55306 0.02375 0.10658 0.0
C155 C 0.55317 -0.00136 0.1081 0.0
C156 C 0.58108 0.0024 0.12709 0.0
C157 C 0.56747 0.98811 0.11831 0.0
C158 C 0.53637 0.98347 0.10042 0.0
C159 C 0.58438 0.01647 0.06917 0.0
C160 C 0.57309 0.03117 0.05928 0.0
C161 C 0.57162 0.00054 0.07748 0.0
C162 C 0.54728 -0.00062 0.07625 0.0
C163 C 0.54892 0.02878 0.05746 0.0
C164 C 0.53617 0.01306 0.06586 0.0
C165 C 0.5331 0.98424 0.08572 0.0
H166 H 0.45868 0.88712 0.08103 0.0
H167 H 0.49121 0.90923 0.09125 0.0
H168 H 0.43877 0.9501 0.05741 0.0
H169 H 0.47111 0.97244 0.06793 0.0
H170 H 0.43088 0.94037 0.12051 0.0
H171 H 0.4569 0.95941 0.10358 0.0
H172 H 0.4901 0.90783 0.14104 0.0
H173 H 0.51606 0.92684 0.12401 0.0
H174 H 0.56558 0.05744 0.11437 0.0
H175 H 0.54168 0.03232 0.09902 0.0
H176 H 0.5917 0.99376 0.13501 0.0
H177 H 0.56769 0.96879 0.11972 0.0
H178 H 0.60297 0.01784 0.07085 0.0
H179 H 0.58074 0.98951 0.08506 0.0
H180 H 0.53975 0.0394 0.04969 0.0
H181 H 0.51747 0.01215 0.06451 0.0
N182 N 0.51563 0.97094 0.08002 0.0
N183 N 0.52197 0.96954 0.10823 0.0
C184 C 0.04969 0.55545 0.89549 0.0
C185 C 0.063 0.54598 0.88449 0.0
C186 C 0.03563 0.54041 0.90358 0.0
C187 C 0.03536 0.51546 0.90114 0.0
C188 C 0.06241 0.52122 0.88179 0.0
C189 C 0.04879 0.50607 0.8901 0.0
C190 C 0.01987 0.4993 0.90927 0.0
C191 C 0.06688 0.53265 0.94126 0.0
C192 C 0.0554 0.54959 0.94972 0.0
C193 C 0.05416 0.51688 0.93288 0.0
C194 C 0.02978 0.51777 0.93286 0.0
C195 C 0.03099 0.55028 0.94982 0.0
C196 C 0.01825 0.53426 0.94157 0.0
C197 C 0.01626 0.50139 0.92389 0.0
C198 C 0.95454 0.4165 0.93706 0.0
C199 C 0.93978 0.42755 0.94691 0.0
C200 C 0.97034 0.43017 0.92928 0.0
C201 C 0.9713 0.45522 0.93097 0.0
C202 C 0.94139 0.45253 0.9489 0.0
C203 C 0.95695 0.46619 0.94101 0.0
C204 C 0.98797 0.47016 0.92298 0.0
C205 C 0.94232 0.43706 0.88947 0.0
C206 C 0.95427 0.41993 0.88131 0.0
C207 C 0.95446 0.45236 0.8985 0.0
C208 C 0.97877 0.45093 0.89946 0.0
C209 C 0.97866 0.41846 0.88249 0.0
C210 C 0.99078 0.43401 0.89134 0.0
C211 C 0.99189 0.46772 0.90842 0.0
H212 H 0.04956 0.57461 0.89751 0.0
H213 H 0.02457 0.54845 0.91147 0.0
H214 H 0.07244 0.51366 0.87324 0.0
H215 H 0.04864 0.487 0.88784 0.0
H216 H 0.08571 0.53189 0.94094 0.0
H217 H 0.06335 0.50403 0.92637 0.0
H218 H 0.02179 0.56309 0.95635 0.0
H219 H -0.00058 0.53505 0.94175 0.0
H220 H 0.95375 0.39733 0.93522 0.0
H221 H 0.98187 0.42106 0.92204 0.0
H222 H 0.93072 0.46159 0.95663 0.0
H223 H 0.95767 0.48542 0.94271 0.0
H224 H 0.92364 0.43908 0.88867 0.0
H225 H 0.94493 0.46562 0.90452 0.0
H226 H 0.98845 0.40524 0.8766 0.0
H227 H 0.00957 0.43269 0.89195 0.0
N228 N 0.00768 0.48233 0.90213 0.0
N229 N 0.00032 0.48695 0.93014 0.0
C230 C 0.43733 0.55928 0.14094 0.0
C231 C 0.44731 0.57315 0.13019 0.0
C232 C 0.45144 0.54622 0.15016 0.0
C233 C 0.47581 0.54722 0.14898 0.0
C234 C 0.47166 0.57432 0.12913 0.0
C235 C 0.48575 0.56146 0.13841 0.0
C236 C 0.49106 0.5318 0.15771 0.0
C237 C 0.45539 0.58061 0.18847 0.0
C238 C 0.44008 0.5686 0.19758 0.0
C239 C 0.47092 0.56768 0.18013 0.0
C240 C 0.47139 0.54251 0.18075 0.0
C241 C 0.44057 0.54339 0.19818 0.0
C242 C 0.45628 0.53046 0.18992 0.0
C243 C 0.48828 0.52871 0.17233 0.0
C244 C 0.57252 0.46882 0.1874 0.0
C245 C 0.56225 0.45295 0.19706 0.0
C246 C 0.55874 0.48455 0.17954 0.0
C247 C 0.53442 0.48444 0.18104 0.0
C248 C 0.538 0.45366 0.19898 0.0
C249 C 0.52425 0.46929 0.19107 0.0
C250 C 0.51944 0.50036 0.1725 0.0
C251 C 0.55236 0.45026 0.14086 0.0
C252 C 0.5659 0.46176 0.13058 0.0
C253 C 0.53858 0.46371 0.15005 0.0
C254 C 0.53833 0.48891 0.14923 0.0
C255 C 0.56594 0.487 0.12998 0.0
C256 C 0.55218 0.50041 0.13916 0.0
C257 C 0.52209 0.50328 0.15786 0.0
H258 H 0.4186 0.55774 0.14185 0.0
H259 H 0.44324 0.53471 0.15786 0.0
H260 H 0.47983 0.58501 0.121 0.0
H261 H 0.50447 0.56238 0.13721 0.0
H262 H 0.45526 0.60004 0.18775 0.0
H263 H 0.48275 0.57735 0.17332 0.0
H264 H 0.4291 0.53373 0.20522 0.0
H265 H 0.45656 0.51104 0.19063 0.0
H266 H 0.59113 0.46868 0.18564 0.0
H267 H 0.56711 0.49666 0.17222 0.0
H268 H 0.5296 0.44203 0.20654 0.0
H269 H 0.50556 0.46919 0.19259 0.0
H270 H 0.55165 0.43085 0.14144 0.0
H271 H 0.52753 0.45438 0.15747 0.0
H272 H 0.57639 0.49639 0.12228 0.0
H273 H 0.55213 0.51982 0.13829 0.0
N274 N 0.50792 0.519 0.15109 0.0
N275 N 0.50251 0.51307 0.17914 0.0
C276 C 0.44443 0.93364 0.39373 0.0
C277 C 0.43038 0.94238 0.38275 0.0
C278 C 0.45826 0.94926 0.40159 0.0
C279 C 0.45772 0.97411 0.39901 0.0
C280 C 0.43064 0.96718 0.37985 0.0
C281 C 0.44411 0.98284 0.3879 0.0
C282 C 0.47194 0.99105 0.4074 0.0
C283 C 0.42345 0.9538 0.43653 0.0
C284 C 0.43461 0.93985 0.4468 0.0
C285 C 0.43593 0.97078 0.42886 0.0
C286 C 0.45996 0.97352 0.43101 0.0
C287 C 0.4583 0.94359 0.44957 0.0
C288 C 0.47091 0.96029 0.4417 0.0
C289 C 0.47376 0.99009 0.4222 0.0
C290 C 0.53378 0.07676 0.43515 0.0
C291 C 0.54792 0.06654 0.44562 0.0
C292 C 0.51835 0.0625 0.42749 0.0
C293 C 0.51718 0.03762 0.4299 0.0
C294 C 0.54587 0.04183 0.44844 0.0
C295 C 0.53069 0.02755 0.44065 0.0
C296 C 0.50149 0.02194 0.42168 0.0
C297 C 0.5505 0.05278 0.38902 0.0
C298 C 0.53928 0.06904 0.37992 0.0
C299 C 0.53757 0.0382 0.39806 0.0
C300 C 0.5132 0.03952 0.39812 0.0
C301 C 0.51482 0.07055 0.38027 0.0
C302 C 0.50193 0.05572 0.38915 0.0
C303 C 0.49929 0.02321 0.40694 0.0
H304 H 0.44466 0.91473 0.39638 0.0
H305 H 0.4693 0.94187 0.40973 0.0
H306 H 0.42064 0.97457 0.37124 0.0
H307 H 0.44377 0.00187 0.3855 0.0
H308 H 0.40505 0.95153 0.43444 0.0
H309 H 0.42688 0.98146 0.42108 0.0
H310 H 0.46717 0.93309 0.45752 0.0
H311 H 0.48935 0.9624 0.44369 0.0
H312 H 0.53492 0.09571 0.43267 0.0
H313 H 0.5074 0.07097 0.41967 0.0
H314 H 0.55602 0.03344 0.45667 0.0
H315 H 0.52977 0.00849 0.44292 0.0
H316 H 0.56923 0.05077 0.38889 0.0
H317 H 0.54655 0.0255 0.40477 0.0
H318 H 0.50556 0.08317 0.37367 0.0
H319 H 0.48311 0.05696 0.38907 0.0
N320 N 0.48458 0.0078 0.40038 0.0
N321 N 0.48866 0.00537 0.42872 0.0
C322 C 0.06874 0.95262 0.64166 0.0
C323 C 0.06023 0.93838 0.63062 0.0
C324 C 0.05332 0.96518 0.65035 0.0
C325 C 0.02915 0.96326 0.64831 0.0
C326 C 0.0361 0.93604 0.62883 0.0
C327 C 0.02075 0.94836 0.63757 0.0
C328 C 0.01245 0.97844 0.65615 0.0
C329 C 0.04538 0.9316 0.68881 0.0
C330 C 0.05953 0.94419 0.69832 0.0
C331 C 0.03046 0.94394 0.67979 0.0
C332 C 0.02944 0.96911 0.68009 0.0
C333 C 0.05851 0.96941 0.69862 0.0
C334 C 0.04336 0.98177 0.68967 0.0
C335 C 0.01319 0.98212 0.67082 0.0
C336 C 0.92118 0.03065 0.68085 0.0
C337 C 0.92734 0.04924 0.6901 0.0
C338 C 0.93831 0.01692 0.67427 0.0
C339 C 0.96196 0.02165 0.6767 0.0
C340 C 0.95104 0.0533 0.69295 0.0
C341 C 0.9682 0.03953 0.68635 0.0
C342 C 0.98011 0.00788 0.66921 0.0
C343 C 0.94628 0.0535 0.63568 0.0
C344 C 0.9341 0.04021 0.62549 0.0
C345 C 0.96064 0.04191 0.6454 0.0
C346 C 0.96305 0.01682 0.64513 0.0
C347 C 0.93626 0.01503 0.62546 0.0
C348 C 0.95077 0.0035 0.63509 0.0
C349 C 0.97963 0.00449 0.65454 0.0
H350 H 0.08729 0.95491 0.64314 0.0
H351 H 0.06033 0.9771 0.65827 0.0
H352 H 0.0291 0.92498 0.62049 0.0
H353 H 0.00221 0.94662 0.63575 0.0
H354 H 0.04595 0.91217 0.6883 0.0
H355 H 0.01955 0.93381 0.67266 0.0
H356 H 0.06911 0.9795 0.70594 0.0
H357 H 0.04262 0.0012 0.69013 0.0
H358 H 0.90308 0.02672 0.67868 0.0
H359 H 0.93306 0.00267 0.66721 0.0
H360 H 0.95636 0.06758 0.69997 0.0
H361 H 0.98636 0.04328 0.68847 0.0
H362 H 0.94536 0.07293 0.63588 0.0
H363 H 0.97038 0.0526 0.65286 0.0
H364 H 0.92683 0.00419 0.61794 0.0
H365 H 0.95244 0.98412 0.63469 0.0
N366 N 0.99569 0.9898 0.64862 0.0
N367 N 0.99701 0.99675 0.67681 0.0
C368 C 0.24307 0.67822 0.00449 0.0
O369 O 0.25838 0.66326 0.00982 0.0
O370 O 0.29816 0.69134 0.01929 0.0
Zn371 Zn 0.28363 0.70733 0.0023 0.0
O372 O 0.30039 0.6968 0.98481 0.0
C373 C 0.28128 0.75189 0.01636 0.0
O374 O 0.26979 0.73843 0.02532 0.0
O375 O 0.24973 0.69895 0.00063 0.0
C376 C 0.32233 0.69923 0.98401 0.0
O377 O 0.33355 0.70921 0.99452 0.0
C378 C 0.31007 0.67212 0.0185 0.0
O379 O 0.31223 0.66127 0.00633 0.0
O380 O 0.28802 0.74264 0.00487 0.0
C381 C 0.2414 0.82305 0.25275 0.0
O382 O 0.25704 0.83953 0.24986 0.0
O383 O 0.29857 0.81413 0.24071 0.0
Zn384 Zn 0.28271 0.79703 0.25683 0.0
O385 O 0.29386 0.81117 0.27514 0.0
C386 C 0.31315 0.7578 0.25597 0.0
O387 O 0.32761 0.77577 0.25786 0.0
O388 O 0.24821 0.80196 0.25577 0.0
C389 C 0.30035 0.7991 0.28577 0.0
O390 O 0.29933 0.77554 0.28543 0.0
C391 C 0.31642 0.82714 0.24279 0.0
O392 O 0.32414 0.83004 0.25565 0.0
O393 O 0.29146 0.76215 0.25544 0.0
C394 C 0.25893 0.80024 0.50996 0.0
O395 O 0.2516 0.80548 0.52266 0.0
O396 O 0.20078 0.80866 0.52145 0.0
Zn397 Zn 0.21026 0.78979 0.50433 0.0
O398 O 0.19386 0.80335 0.48748 0.0
C399 C 0.20511 0.74575 0.51886 0.0
O400 O 0.21788 0.75742 0.52804 0.0
O401 O 0.24452 0.79247 0.50093 0.0
C402 C 0.17234 0.79981 0.48527 0.0
O403 O 0.1605 0.78632 0.49405 0.0
C404 C 0.19286 0.82991 0.52048 0.0
O405 O 0.19166 0.84019 0.50809 0.0
O406 O 0.20035 0.75575 0.50724 0.0
C407 C 0.24199 0.6805 0.76138 0.0
O408 O 0.22466 0.66514 0.76085 0.0
O409 O 0.18868 0.69175 0.74554 0.0
Zn410 Zn 0.20311 0.70968 0.7618 0.0
O411 O 0.19058 0.69576 0.77984 0.0
C412 C 0.17478 0.75061 0.75777 0.0
O413 O 0.15918 0.7334 0.75746 0.0
O414 O 0.23738 0.70283 0.76164 0.0
C415 C 0.1776 0.70585 0.78889 0.0
O416 O 0.17116 0.72829 0.78711 0.0
C417 C 0.16903 0.68143 0.74661 0.0
O418 O 0.15764 0.68245 0.75855 0.0
O419 O 0.19599 0.74509 0.75978 0.0
C420 C 0.74951 0.18011 0.49747 0.0
O421 O 0.76677 0.16483 0.49605 0.0
O422 O 0.80008 0.18608 0.51937 0.0
Zn423 Zn 0.78814 0.20811 0.50402 0.0
O424 O 0.80538 0.20051 0.48613 0.0
C425 C 0.81141 0.24672 0.51743 0.0
O426 O 0.82304 0.22848 0.52266 0.0
O427 O 0.75405 0.2016 0.50099 0.0
C428 C 0.82732 0.20313 0.48549 0.0
O429 O 0.83842 0.21184 0.4964 0.0
C430 C 0.81084 0.16657 0.51681 0.0
O431 O 0.81382 0.15976 0.50374 0.0
O432 O 0.79435 0.24269 0.50928 0.0
C433 C 0.75126 0.31239 0.76052 0.0
O434 O 0.7684 0.32726 0.75779 0.0
O435 O 0.80387 0.29816 0.74327 0.0
Zn436 Zn 0.78931 0.28057 0.75969 0.0
O437 O 0.80625 0.2891 0.77743 0.0
C438 C 0.78577 0.23615 0.74482 0.0
O439 O 0.7738 0.24959 0.73607 0.0
O440 O 0.7557 0.29012 0.76171 0.0
C441 C 0.82779 0.28436 0.77859 0.0
O442 O 0.83845 0.27326 0.76825 0.0
C443 C 0.81705 0.31631 0.74485 0.0
O444 O 0.82097 0.32461 0.75753 0.0
O445 O 0.79318 0.24538 0.75615 0.0
C446 C 0.73805 0.31822 0.00126 0.0
O447 O 0.72081 0.33361 0.00014 0.0
O448 O 0.68582 0.30918 0.02121 0.0
Zn449 Zn 0.69915 0.28931 0.00528 0.0
O450 O 0.68423 0.29896 0.98695 0.0
C451 C 0.67476 0.24884 0.01568 0.0
O452 O 0.66134 0.26621 0.02033 0.0
O453 O 0.73337 0.29633 0.00373 0.0
C454 C 0.66236 0.29821 0.98502 0.0
O455 O 0.6489 0.29022 0.99513 0.0
C456 C 0.67489 0.32881 0.01935 0.0
O457 O 0.67225 0.3372 0.00656 0.0
O458 O 0.69309 0.25418 0.00891 0.0
C459 C 0.74052 0.17558 0.25937 0.0
O460 O 0.72316 0.1603 0.25999 0.0
O461 O 0.69098 0.18342 0.23721 0.0
Zn462 Zn 0.70205 0.20392 0.25349 0.0
O463 O 0.68513 0.19451 0.27123 0.0
C464 C 0.67802 0.24324 0.24144 0.0
O465 O 0.66633 0.22519 0.23606 0.0
O466 O 0.73614 0.19742 0.2565 0.0
C467 C 0.66316 0.19626 0.27237 0.0
O468 O 0.65106 0.20484 0.2618 0.0
C469 C 0.67949 0.16409 0.23873 0.0
O470 O 0.67488 0.15626 0.25143 0.0
O471 O 0.6954 0.23885 0.24929 0.0
H472 H 0.08696 0.95125 0.29507 0.0
H473 H 0.11144 0.92502 0.28074 0.0
H474 H 0.0718 0.86348 0.29432 0.0
H475 H 0.04708 0.88983 0.3087 0.0
H476 H 0.11966 0.85882 0.29823 0.0
H477 H 0.06796 0.87852 0.26112 0.0
H478 H 0.04411 0.90486 0.24608 0.0
H479 H 0.10555 0.94173 0.23225 0.0
H480 H 0.12977 0.91587 0.24737 0.0
H481 H 0.20472 0.79428 0.2602 0.0
H482 H 0.1652 0.80722 0.26612 0.0
H483 H 0.183 0.88014 0.25517 0.0
H484 H 0.22219 0.86734 0.24895 0.0
H485 H 0.13901 0.87075 0.24795 0.0
H486 H 0.18812 0.85949 0.28898 0.0
H487 H 0.2132 0.83605 0.30494 0.0
H488 H 0.15752 0.78615 0.3121 0.0
H489 H 0.1322 0.80918 0.29603 0.0
C490 C 0.08333 0.93216 0.29487 0.0
C491 C 0.06528 0.92248 0.30302 0.0
C492 C 0.09716 0.91724 0.2866 0.0
C493 C 0.09326 0.89236 0.28638 0.0
C494 C 0.07492 0.88267 0.29428 0.0
C495 C 0.06085 0.89768 0.30244 0.0
C496 C 0.10996 0.87657 0.27901 0.0
C497 C 0.12345 0.86085 0.28713 0.0
C498 C 0.11515 0.87969 0.26462 0.0
C499 C 0.10068 0.89528 0.25544 0.0
C500 C 0.07639 0.89235 0.25495 0.0
C501 C 0.0628 0.90719 0.2464 0.0
C502 C 0.07331 0.92497 0.23823 0.0
C503 C 0.09744 0.92794 0.23858 0.0
C504 C 0.11111 0.91316 0.24713 0.0
C505 C 0.20007 0.81299 0.2588 0.0
C506 C 0.21668 0.82987 0.25432 0.0
C507 C 0.1775 0.82035 0.2622 0.0
C508 C 0.17131 0.84471 0.26132 0.0
C509 C 0.18741 0.86126 0.25595 0.0
C510 C 0.20988 0.85391 0.25248 0.0
C511 C 0.14913 0.85363 0.26729 0.0
C512 C 0.13469 0.8681 0.25893 0.0
C513 C 0.14322 0.84968 0.28153 0.0
C514 C 0.1584 0.83584 0.29117 0.0
C515 C 0.1813 0.84341 0.29388 0.0
C516 C 0.19554 0.83022 0.30295 0.0
C517 C 0.18698 0.80957 0.30949 0.0
C518 C 0.16414 0.80211 0.307 0.0
C519 C 0.14984 0.81522 0.29791 0.0
H520 H 0.19803 0.79939 0.31652 0.0
H521 H 0.06276 0.93644 0.23161 0.0
H522 H 0.05882 0.57571 0.5448 0.0
H523 H 0.08527 0.60545 0.53452 0.0
H524 H 0.11958 0.61344 0.57452 0.0
H525 H 0.09302 0.58419 0.58489 0.0
H526 H 0.10899 0.65654 0.56254 0.0
H527 H 0.14498 0.58188 0.54868 0.0
H528 H 0.1462 0.5419 0.53757 0.0
H529 H 0.12906 0.57335 0.49772 0.0
H530 H 0.12742 0.61351 0.50864 0.0
H531 H 0.20785 0.72205 0.5439 0.0
H532 H 0.18427 0.68804 0.55158 0.0
H533 H 0.15223 0.68435 0.5107 0.0
H534 H 0.17586 0.71831 0.50286 0.0
H535 H 0.1608 0.63919 0.5221 0.0
H536 H 0.12458 0.71315 0.53527 0.0
H537 H 0.12273 0.75357 0.54577 0.0
H538 H 0.1387 0.72394 0.58625 0.0
H539 H 0.14105 0.68334 0.57594 0.0
C540 C 0.07197 0.58388 0.55139 0.0
C541 C 0.07394 0.57757 0.56563 0.0
C542 C 0.08716 0.60069 0.54549 0.0
C543 C 0.10448 0.61146 0.55375 0.0
C544 C 0.10638 0.60526 0.56797 0.0
C545 C 0.09131 0.58843 0.57384 0.0
C546 C 0.12032 0.6297 0.54775 0.0
C547 C 0.12053 0.65265 0.55382 0.0
C548 C 0.13482 0.62479 0.53609 0.0
C549 C 0.13583 0.60067 0.52951 0.0
C550 C 0.14127 0.58025 0.53757 0.0
C551 C 0.14208 0.55756 0.5313 0.0
C552 C 0.13765 0.55508 0.51696 0.0
C553 C 0.13246 0.5753 0.50884 0.0
C554 C 0.1316 0.59803 0.51506 0.0
C555 C 0.19608 0.71378 0.53645 0.0
C556 C 0.19351 0.72307 0.52282 0.0
C557 C 0.18259 0.69439 0.54088 0.0
C558 C 0.16627 0.684 0.53177 0.0
C559 C 0.16468 0.69222 0.51789 0.0
C560 C 0.17816 0.71166 0.51345 0.0
C561 C 0.14971 0.66583 0.53707 0.0
C562 C 0.14926 0.64301 0.53084 0.0
C563 C 0.13481 0.67088 0.54851 0.0
C564 C 0.13323 0.69523 0.5548 0.0
C565 C 0.12789 0.71527 0.54639 0.0
C566 C 0.12672 0.73822 0.55231 0.0
C567 C 0.13065 0.74134 0.56666 0.0
C568 C 0.1357 0.7215 0.57513 0.0
C569 C 0.13694 0.69851 0.56925 0.0
H570 H 0.12973 0.75912 0.57123 0.0
H571 H 0.13829 0.5375 0.51212 0.0
H572 H 0.44722 0.6107 0.80205 0.0
H573 H 0.41777 0.63453 0.78974 0.0
H574 H 0.37075 0.57426 0.79072 0.0
H575 H 0.39955 0.55063 0.80345 0.0
H576 H 0.3723 0.59853 0.76445 0.0
H577 H 0.36489 0.6155 0.81447 0.0
H578 H 0.37985 0.62921 0.83737 0.0
H579 H 0.39636 0.69801 0.8196 0.0
H580 H 0.38179 0.68456 0.79653 0.0
H581 H 0.25634 0.63397 0.76227 0.0
H582 H 0.29533 0.61891 0.76671 0.0
H583 H 0.32157 0.69149 0.7679 0.0
H584 H 0.28216 0.70686 0.76376 0.0
H585 H 0.33655 0.66718 0.78975 0.0
H586 H 0.33651 0.65291 0.74083 0.0
H587 H 0.32152 0.63941 0.71791 0.0
H588 H 0.31968 0.5666 0.73272 0.0
H589 H 0.33434 0.57967 0.75581 0.0
C590 C 0.43058 0.60253 0.79971 0.0
C591 C 0.42575 0.57874 0.80381 0.0
C592 C 0.41387 0.61612 0.79258 0.0
C593 C 0.39215 0.6061 0.78935 0.0
C594 C 0.38753 0.58221 0.79302 0.0
C595 C 0.40407 0.56871 0.80027 0.0
C596 C 0.37354 0.62074 0.7829 0.0
C597 C 0.36442 0.61356 0.76992 0.0
C598 C 0.36392 0.64083 0.78988 0.0
C599 C 0.37255 0.64893 0.80375 0.0
C600 C 0.37191 0.63348 0.81542 0.0
C601 C 0.38028 0.64121 0.82843 0.0
C602 C 0.38913 0.66444 0.82993 0.0
C603 C 0.38956 0.68001 0.81842 0.0
C604 C 0.38124 0.67234 0.80538 0.0
C605 C 0.27039 0.64679 0.7633 0.0
C606 C 0.26613 0.67163 0.76272 0.0
C607 C 0.29277 0.63812 0.76573 0.0
C608 C 0.31147 0.65404 0.76744 0.0
C609 C 0.3074 0.67888 0.76654 0.0
C610 C 0.2849 0.68762 0.76416 0.0
C611 C 0.33466 0.64453 0.77141 0.0
C612 C 0.3447 0.65262 0.78398 0.0
C613 C 0.3452 0.62536 0.76399 0.0
C614 C 0.33645 0.61732 0.75009 0.0
C615 C 0.33277 0.63403 0.73924 0.0
C616 C 0.32435 0.62645 0.72621 0.0
C617 C 0.31963 0.60217 0.72387 0.0
C618 C 0.32336 0.5854 0.73455 0.0
C619 C 0.33177 0.59289 0.7476 0.0
H620 H 0.3131 0.59634 0.71377 0.0
H621 H 0.3956 0.6704 0.84001 0.0
H622 H 0.43125 0.91386 0.04141 0.0
H623 H 0.39842 0.89048 0.03238 0.0
H624 H 0.38172 0.86788 0.07454 0.0
H625 H 0.41477 0.89077 0.08352 0.0
H626 H 0.38191 0.83095 0.05798 0.0
H627 H 0.34797 0.90945 0.05601 0.0
H628 H 0.34548 0.95231 0.04964 0.0
H629 H 0.34686 0.93378 0.0059 0.0
H630 H 0.34968 0.8908 0.01201 0.0
H631 H 0.27816 0.77271 0.04223 0.0
H632 H 0.30099 0.80662 0.05083 0.0
H633 H 0.3285 0.8181 0.00927 0.0
H634 H 0.30577 0.78414 0.00053 0.0
H635 H 0.3209 0.86175 0.02575 0.0
H636 H 0.35783 0.78347 0.0283 0.0
H637 H 0.35855 0.74062 0.03488 0.0
H638 H 0.35066 0.75962 0.0783 0.0
H639 H 0.3494 0.8026 0.07193 0.0
C640 C 0.42039 0.90408 0.04873 0.0
C641 C 0.42559 0.90395 0.06313 0.0
C642 C 0.4016 0.89082 0.04359 0.0
C643 C 0.38746 0.87759 0.0528 0.0
C644 C 0.39241 0.87788 0.06723 0.0
C645 C 0.41132 0.89089 0.07234 0.0
C646 C 0.36839 0.86225 0.04739 0.0
C647 C 0.36837 0.83787 0.05114 0.0
C648 C 0.35098 0.87108 0.03819 0.0
C649 C 0.34926 0.89691 0.03448 0.0
C650 C 0.34793 0.91452 0.04503 0.0
C651 C 0.34642 0.93884 0.04147 0.0
C652 C 0.34607 0.94577 0.02737 0.0
C653 C 0.34716 0.92839 0.01681 0.0
C654 C 0.34869 0.90404 0.02032 0.0
C655 C 0.28854 0.78283 0.03482 0.0
C656 C 0.29054 0.77545 0.02076 0.0
C657 C 0.30155 0.80221 0.03976 0.0
C658 C 0.31662 0.81454 0.03071 0.0
C659 C 0.31695 0.80873 0.0164 0.0
C660 C 0.30406 0.78924 0.01145 0.0
C661 C 0.33449 0.83078 0.03651 0.0
C662 C 0.33437 0.85511 0.03273 0.0
C663 C 0.35177 0.82201 0.04575 0.0
C664 C 0.35325 0.79622 0.04963 0.0
C665 C 0.35609 0.7785 0.03924 0.0
C666 C 0.3566 0.75419 0.04293 0.0
C667 C 0.35457 0.7474 0.057 0.0
C668 C 0.35217 0.76491 0.06741 0.0
C669 C 0.35155 0.78924 0.06376 0.0
H670 H 0.35487 0.72858 0.05983 0.0
H671 H 0.3449 0.9646 0.02463 0.0
H672 H 0.05052 0.59829 0.95102 0.0
H673 H 0.07589 0.62683 0.96332 0.0
H674 H 0.11635 0.5678 0.97968 0.0
H675 H 0.09113 0.5393 0.96743 0.0
H676 H 0.10814 0.60514 0.99944 0.0
H677 H 0.13407 0.5936 0.95111 0.0
H678 H 0.12812 0.59437 0.92547 0.0
H679 H 0.1122 0.66968 0.92734 0.0
H680 H 0.11771 0.66925 0.95306 0.0
H681 H 0.22449 0.63431 0.01017 0.0
H682 H 0.18613 0.61952 0.00378 0.0
H683 H 0.16841 0.68895 0.98666 0.0
H684 H 0.2072 0.70384 0.99278 0.0
H685 H 0.15837 0.65475 0.96857 0.0
H686 H 0.14122 0.66787 0.0165 0.0
H687 H 0.14709 0.66686 0.04212 0.0
H688 H 0.14586 0.58975 0.04145 0.0
H689 H 0.14033 0.59026 0.01579 0.0
C690 C 0.06459 0.59147 0.95746 0.0
C691 C 0.06906 0.56668 0.95822 0.0
C692 C 0.07904 0.60774 0.96443 0.0
C693 C 0.09799 0.59936 0.97233 0.0
C694 C 0.10175 0.57457 0.97366 0.0
C695 C 0.0875 0.55835 0.96658 0.0
C696 C 0.11525 0.61618 0.97823 0.0
C697 C 0.11915 0.61607 0.99275 0.0
C698 C 0.12898 0.63097 0.96947 0.0
C699 C 0.126 0.63133 0.95401 0.0
C700 C 0.12912 0.61028 0.94606 0.0
C701 C 0.12586 0.61066 0.93152 0.0
C702 C 0.11971 0.63204 0.92479 0.0
C703 C 0.1169 0.65312 0.93258 0.0
C704 C 0.12009 0.65282 0.94714 0.0
C705 C 0.21237 0.64658 0.00522 0.0
C706 C 0.21894 0.67022 0.00192 0.0
C707 C 0.19033 0.63814 0.00166 0.0
C708 C 0.17427 0.65322 0.99489 0.0
C709 C 0.18052 0.67705 0.99193 0.0
C710 C 0.20266 0.68552 0.99544 0.0
C711 C 0.15191 0.64319 0.98983 0.0
C712 C 0.14702 0.64449 0.97541 0.0
C713 C 0.13721 0.62959 0.99871 0.0
C714 C 0.14045 0.62913 0.01418 0.0
C715 C 0.14235 0.65069 0.02179 0.0
C716 C 0.1456 0.6502 0.03633 0.0
C717 C 0.14687 0.62825 0.04341 0.0
C718 C 0.14486 0.60674 0.03596 0.0
C719 C 0.14162 0.60712 0.02141 0.0
H720 H 0.14939 0.62792 0.05466 0.0
H721 H 0.11718 0.63226 0.91354 0.0
H722 H 0.45007 0.60764 0.21363 0.0
H723 H 0.42301 0.63222 0.22722 0.0
H724 H 0.36647 0.58548 0.21539 0.0
H725 H 0.39359 0.56084 0.20161 0.0
H726 H 0.35684 0.63309 0.21074 0.0
H727 H 0.38341 0.58544 0.24872 0.0
H728 H 0.41196 0.56479 0.2638 0.0
H729 H 0.44237 0.63257 0.27494 0.0
H730 H 0.41423 0.65364 0.25975 0.0
H731 H 0.28871 0.71694 0.2495 0.0
H732 H 0.30479 0.67754 0.24334 0.0
H733 H 0.37416 0.70426 0.25073 0.0
H734 H 0.35832 0.74333 0.25709 0.0
H735 H 0.36988 0.65879 0.25998 0.0
H736 H 0.35019 0.7042 0.21782 0.0
H737 H 0.32324 0.72564 0.20202 0.0
H738 H 0.28123 0.66219 0.19838 0.0
H739 H 0.30782 0.64048 0.21432 0.0
C740 C 0.43189 0.60255 0.21399 0.0
C741 C 0.42387 0.58245 0.20652 0.0
C742 C 0.4165 0.61643 0.22187 0.0
C743 C 0.3928 0.61049 0.22243 0.0
C744 C 0.38475 0.59022 0.21516 0.0
C745 C 0.40022 0.57617 0.20734 0.0
C746 C 0.37639 0.62678 0.22968 0.0
C747 C 0.35923 0.63824 0.22163 0.0
C748 C 0.37978 0.63368 0.24382 0.0
C749 C 0.39674 0.62112 0.25303 0.0
C750 C 0.39628 0.59595 0.2543 0.0
C751 C 0.41239 0.58416 0.26289 0.0
C752 C 0.42898 0.59736 0.27031 0.0
C753 C 0.42949 0.62238 0.26918 0.0
C754 C 0.41344 0.63426 0.2606 0.0
C755 C 0.30736 0.71429 0.25 0.0
C756 C 0.32228 0.73332 0.25362 0.0
C757 C 0.3165 0.6918 0.24646 0.0
C758 C 0.34068 0.68809 0.24642 0.0
C759 C 0.35545 0.70672 0.2507 0.0
C760 C 0.34636 0.72912 0.25425 0.0
C761 C 0.35101 0.66565 0.24086 0.0
C762 C 0.36702 0.65309 0.24923 0.0
C763 C 0.34672 0.65781 0.22697 0.0
C764 C 0.33078 0.67084 0.21739 0.0
C765 C 0.3351 0.6949 0.21373 0.0
C766 C 0.31991 0.70708 0.20474 0.0
C767 C 0.30049 0.69531 0.19924 0.0
C768 C 0.29625 0.67131 0.20268 0.0
C769 C 0.31136 0.65905 0.21169 0.0
H770 H 0.28875 0.70477 0.19227 0.0
H771 H 0.44144 0.5882 0.27695 0.0
H772 H 0.40992 0.90343 0.43534 0.0
H773 H 0.38518 0.87442 0.4475 0.0
H774 H 0.40439 0.90562 0.48732 0.0
H775 H 0.42993 0.93419 0.47512 0.0
H776 H 0.39937 0.85768 0.48977 0.0
H777 H 0.35458 0.9227 0.47103 0.0
H778 H 0.34101 0.95082 0.45277 0.0
H779 H 0.31468 0.89179 0.42853 0.0
H780 H 0.32842 0.86327 0.44656 0.0
H781 H 0.29181 0.82538 0.52474 0.0
H782 H 0.32724 0.84362 0.51528 0.0
H783 H 0.3146 0.80953 0.47536 0.0
H784 H 0.27926 0.79132 0.48465 0.0
H785 H 0.3172 0.85871 0.4738 0.0
H786 H 0.36094 0.79377 0.49423 0.0
H787 H 0.37394 0.76719 0.5134 0.0
H788 H 0.40076 0.828 0.53588 0.0
H789 H 0.38762 0.855 0.51693 0.0
C790 C 0.40901 0.90387 0.4467 0.0
C791 C 0.42145 0.92115 0.45433 0.0
C792 C 0.39493 0.88734 0.45363 0.0
C793 C 0.39255 0.88823 0.46829 0.0
C794 C 0.40592 0.9047 0.476 0.0
C795 C 0.42039 0.92102 0.46905 0.0
C796 C 0.37474 0.87329 0.47534 0.0
C797 C 0.38135 0.85804 0.48639 0.0
C798 C 0.35126 0.87371 0.47087 0.0
C799 C 0.34272 0.89084 0.46008 0.0
C800 C 0.34603 0.91571 0.46176 0.0
C801 C 0.3383 0.93172 0.45146 0.0
C802 C 0.32704 0.92309 0.43948 0.0
C803 C 0.32343 0.89844 0.4378 0.0
C804 C 0.33117 0.88234 0.44806 0.0
C805 C 0.29689 0.82128 0.51405 0.0
C806 C 0.28253 0.80724 0.50537 0.0
C807 C 0.31718 0.83165 0.50869 0.0
C808 C 0.32341 0.828 0.49461 0.0
C809 C 0.30999 0.81262 0.48624 0.0
C810 C 0.28978 0.80225 0.49158 0.0
C811 C 0.34186 0.84266 0.48803 0.0
C812 C 0.33526 0.85815 0.47713 0.0
C813 C 0.36515 0.84265 0.49282 0.0
C814 C 0.37309 0.82644 0.50421 0.0
C815 C 0.36942 0.80151 0.50332 0.0
C816 C 0.37686 0.78636 0.51413 0.0
C817 C 0.38812 0.79591 0.52587 0.0
C818 C 0.39202 0.82063 0.52679 0.0
C819 C 0.3846 0.83586 0.51601 0.0
H820 H 0.39386 0.78415 0.53423 0.0
H821 H 0.32107 0.93551 0.43151 0.0
H822 H 0.04844 0.90563 0.71446 0.0
H823 H 0.07454 0.88118 0.72874 0.0
H824 H 0.13181 0.92793 0.71827 0.0
H825 H 0.10561 0.95248 0.70376 0.0
H826 H 0.14209 0.8807 0.71384 0.0
H827 H 0.11321 0.92697 0.75155 0.0
H828 H 0.08402 0.94766 0.76616 0.0
H829 H 0.05161 0.88013 0.77565 0.0
H830 H 0.08037 0.85904 0.76092 0.0
H831 H 0.20239 0.79023 0.75343 0.0
H832 H 0.18942 0.83105 0.7475 0.0
H833 H 0.11792 0.80816 0.75064 0.0
H834 H 0.1306 0.76776 0.75664 0.0
H835 H 0.12406 0.85245 0.76202 0.0
H836 H 0.14612 0.80946 0.71912 0.0
H837 H 0.17408 0.78838 0.7038 0.0
H838 H 0.21866 0.85024 0.704 0.0
H839 H 0.19104 0.87157 0.71947 0.0
C840 C 0.06656 0.91081 0.71529 0.0
C841 C 0.07506 0.93083 0.70795 0.0
C842 C 0.08141 0.89699 0.72357 0.0
C843 C 0.10507 0.9029 0.7247 0.0
C844 C 0.11357 0.92319 0.71762 0.0
C845 C 0.09861 0.9372 0.70939 0.0
C846 C 0.12096 0.88639 0.73224 0.0
C847 C 0.13863 0.87502 0.72454 0.0
C848 C 0.11632 0.87887 0.74614 0.0
C849 C 0.09896 0.89142 0.75507 0.0
C850 C 0.09977 0.91653 0.75667 0.0
C851 C 0.08331 0.92833 0.76499 0.0
C852 C 0.06597 0.91522 0.77182 0.0
C853 C 0.06507 0.89026 0.77036 0.0
C854 C 0.08148 0.87837 0.76205 0.0
C855 C 0.18392 0.79403 0.75302 0.0
C856 C 0.16751 0.77573 0.75536 0.0
C857 C 0.17656 0.81732 0.74962 0.0
C858 C 0.15271 0.82256 0.74854 0.0
C859 C 0.1364 0.80453 0.75146 0.0
C860 C 0.1437 0.78137 0.75479 0.0
C861 C 0.14429 0.8461 0.74337 0.0
C862 C 0.12805 0.85876 0.75152 0.0
C863 C 0.15017 0.85477 0.72987 0.0
C864 C 0.16671 0.84196 0.72059 0.0
C865 C 0.16198 0.81847 0.71598 0.0
C866 C 0.17774 0.8065 0.70726 0.0
C867 C 0.19818 0.81793 0.70297 0.0
C868 C 0.20286 0.84138 0.70737 0.0
C869 C 0.18716 0.85342 0.71611 0.0
H870 H 0.21035 0.80864 0.69621 0.0
H871 H 0.05323 0.92439 0.77826 0.0
H872 H 0.55689 0.39597 0.81057 0.0
H873 H 0.58364 0.36819 0.79872 0.0
H874 H 0.62715 0.42787 0.78674 0.0
H875 H 0.60049 0.45564 0.79847 0.0
H876 H 0.62104 0.3941 0.76523 0.0
H877 H 0.64071 0.39695 0.81483 0.0
H878 H 0.63208 0.3926 0.84006 0.0
H879 H 0.61441 0.31847 0.83374 0.0
H880 H 0.62262 0.32248 0.8084 0.0
H881 H 0.73666 0.35865 0.75781 0.0
H882 H 0.69885 0.37529 0.7639 0.0
H883 H 0.67433 0.30464 0.77516 0.0
H884 H 0.71252 0.28774 0.76924 0.0
H885 H 0.6647 0.33684 0.79527 0.0
H886 H 0.65271 0.33251 0.74612 0.0
H887 H 0.66202 0.3373 0.72102 0.0
H888 H 0.66532 0.41384 0.7262 0.0
H889 H 0.65637 0.40951 0.75138 0.0
C890 C 0.57199 0.40313 0.80521 0.0
C891 C 0.57677 0.42789 0.80549 0.0
C892 C 0.58725 0.38729 0.79851 0.0
C893 C 0.60738 0.39603 0.79194 0.0
C894 C 0.61167 0.42082 0.79174 0.0
C895 C 0.59657 0.43661 0.79854 0.0
C896 C 0.62488 0.37943 0.78599 0.0
C897 C 0.63063 0.38155 0.77175 0.0
C898 C 0.63678 0.36256 0.79447 0.0
C899 C 0.63197 0.3601 0.8097 0.0
C900 C 0.63478 0.37978 0.8188 0.0
C901 C 0.63001 0.37737 0.83312 0.0
C902 C 0.62263 0.3553 0.83849 0.0
C903 C 0.62007 0.33557 0.82955 0.0
C904 C 0.62479 0.3379 0.81521 0.0
C905 C 0.7232 0.34654 0.76143 0.0
C906 C 0.72762 0.32188 0.76309 0.0
C907 C 0.7015 0.35608 0.76482 0.0
C908 C 0.68367 0.34117 0.76982 0.0
C909 C 0.68783 0.31643 0.77124 0.0
C910 C 0.70962 0.30682 0.76784 0.0
C911 C 0.66144 0.35198 0.77453 0.0
C912 C 0.65477 0.34884 0.78858 0.0
C913 C 0.64868 0.3679 0.76586 0.0
C914 C 0.65396 0.37066 0.75068 0.0
C915 C 0.65556 0.35036 0.74193 0.0
C916 C 0.66076 0.35299 0.72768 0.0
C917 C 0.66428 0.37586 0.72202 0.0
C918 C 0.66258 0.39614 0.7306 0.0
C919 C 0.6574 0.39361 0.74486 0.0
H920 H 0.66831 0.37786 0.71098 0.0
H921 H 0.61896 0.35348 0.84957 0.0
H922 H 0.61694 0.02842 0.04775 0.0
H923 H 0.63896 0.06089 0.03653 0.0
H924 H 0.58066 0.10878 0.04217 0.0
H925 H 0.55883 0.07684 0.05355 0.0
H926 H 0.60018 0.11357 0.01621 0.0
H927 H 0.62534 0.1089 0.06496 0.0
H928 H 0.64239 0.08831 0.08546 0.0
H929 H 0.70555 0.07606 0.06246 0.0
H930 H 0.68872 0.09632 0.04175 0.0
H931 H 0.63293 0.23247 0.02481 0.0
H932 H 0.62079 0.19097 0.02809 0.0
H933 H 0.68841 0.16626 0.01478 0.0
H934 H 0.70081 0.2081 0.01132 0.0
H935 H 0.671 0.14426 0.03999 0.0
H936 H 0.64743 0.15757 0.99286 0.0
H937 H 0.62973 0.17971 0.97314 0.0
H938 H 0.56308 0.1767 0.99342 0.0
H939 H 0.58043 0.15487 0.01337 0.0
C940 C 0.60884 0.04588 0.04659 0.0
C941 C 0.58611 0.05002 0.05155 0.0
C942 C 0.6214 0.06434 0.04013 0.0
C943 C 0.61143 0.08722 0.03856 0.0
C944 C 0.58858 0.09118 0.04316 0.0
C945 C 0.57609 0.07285 0.04964 0.0
C946 C 0.6249 0.10763 0.03284 0.0
C947 C 0.61571 0.12025 0.02136 0.0
C948 C 0.64556 0.11589 0.03932 0.0
C949 C 0.65568 0.10381 0.05176 0.0
C950 C 0.64279 0.10163 0.06425 0.0
C951 C 0.65242 0.09006 0.07591 0.0
C952 C 0.67501 0.0808 0.07525 0.0
C953 C 0.68803 0.08318 0.06294 0.0
C954 C 0.67846 0.0947 0.05124 0.0
C955 C 0.64529 0.21828 0.02257 0.0
C956 C 0.66784 0.22356 0.01779 0.0
C957 C 0.63826 0.19456 0.02438 0.0
C958 C 0.65363 0.17561 0.02152 0.0
C959 C 0.6763 0.1807 0.01695 0.0
C960 C 0.68331 0.20455 0.01497 0.0
C961 C 0.64573 0.15064 0.02371 0.0
C962 C 0.65592 0.13718 0.03453 0.0
C963 C 0.6259 0.14166 0.01668 0.0
C964 C 0.61528 0.15465 0.00465 0.0
C965 C 0.62902 0.16176 0.99316 0.0
C966 C 0.61905 0.17424 0.98194 0.0
C967 C 0.5953 0.17962 0.98204 0.0
C968 C 0.58147 0.1725 0.99335 0.0
C969 C 0.59137 0.16004 0.00462 0.0
H970 H 0.58761 0.18929 0.97333 0.0
H971 H 0.68244 0.07186 0.08429 0.0
H972 H 0.89492 0.05051 0.30851 0.0
H973 H 0.86701 0.07445 0.29531 0.0
H974 H 0.91662 0.13227 0.29242 0.0
H975 H 0.94522 0.108 0.30522 0.0
H976 H 0.87119 0.14634 0.3014 0.0
H977 H 0.90685 0.10393 0.26383 0.0
H978 H 0.92266 0.06869 0.25138 0.0
H979 H 0.85508 0.03589 0.2514 0.0
H980 H 0.83892 0.07076 0.26404 0.0
H981 H 0.78066 0.20236 0.26073 0.0
H982 H 0.81975 0.18803 0.26693 0.0
H983 H 0.79309 0.11597 0.27127 0.0
H984 H 0.75441 0.12993 0.26493 0.0
H985 H 0.83398 0.11569 0.25796 0.0
H986 H 0.80103 0.15305 0.29975 0.0
H987 H 0.78461 0.18688 0.31324 0.0
H988 H 0.8466 0.22799 0.3059 0.0
H989 H 0.86327 0.19447 0.29221 0.0
C990 C 0.90017 0.06811 0.30486 0.0
C991 C 0.92244 0.07721 0.30785 0.0
C992 C 0.88412 0.08182 0.29737 0.0
C993 C 0.88989 0.10499 0.29278 0.0
C994 C 0.91192 0.11437 0.29586 0.0
C995 C 0.92816 0.10052 0.30325 0.0
C996 C 0.87232 0.11941 0.28519 0.0
C997 C 0.86341 0.14005 0.29169 0.0
C998 C 0.8621 0.11096 0.27264 0.0
C999 C 0.87169 0.08995 0.26496 0.0
C1000 C 0.89538 0.08913 0.26127 0.0
C1001 C 0.90441 0.06923 0.25416 0.0
C1002 C 0.88989 0.05005 0.25062 0.0
C1003 C 0.86631 0.05076 0.25415 0.0
C1004 C 0.8572 0.07061 0.26127 0.0
C1005 C 0.78322 0.18344 0.26291 0.0
C1006 C 0.76442 0.1673 0.26243 0.0
C1007 C 0.80552 0.17531 0.26647 0.0
C1008 C 0.80927 0.15096 0.26965 0.0
C1009 C 0.79062 0.13481 0.26881 0.0
C1010 C 0.76846 0.14288 0.26525 0.0
C1011 C 0.8322 0.14204 0.27448 0.0
C1012 C 0.84215 0.12242 0.26744 0.0
C1013 C 0.84326 0.15131 0.2866 0.0
C1014 C 0.83325 0.17142 0.29481 0.0
C1015 C 0.81107 0.16939 0.30092 0.0
C1016 C 0.80173 0.18848 0.30861 0.0
C1017 C 0.81452 0.2096 0.31038 0.0
C1018 C 0.8367 0.21164 0.30449 0.0
C1019 C 0.84609 0.19261 0.29676 0.0
H1020 H 0.80727 0.22436 0.31635 0.0
H1021 H 0.89691 0.03466 0.24511 0.0
H1022 H 0.94386 0.40204 0.55364 0.0
H1023 H 0.91713 0.37633 0.54078 0.0
H1024 H 0.86162 0.42731 0.54759 0.0
H1025 H 0.88827 0.45282 0.56105 0.0
H1026 H 0.84734 0.384 0.55386 0.0
H1027 H 0.88311 0.41763 0.51417 0.0
H1028 H 0.91459 0.43256 0.49894 0.0
H1029 H 0.94322 0.36144 0.4962 0.0
H1030 H 0.91213 0.34611 0.51159 0.0
H1031 H 0.78719 0.28907 0.51478 0.0
H1032 H 0.802 0.3299 0.51915 0.0
H1033 H 0.86923 0.30046 0.52963 0.0
H1034 H 0.85461 0.25998 0.52565 0.0
H1035 H 0.86866 0.34168 0.50986 0.0
H1036 H 0.83741 0.31332 0.55523 0.0
H1037 H 0.8052 0.29925 0.57023 0.0
H1038 H 0.76632 0.36314 0.5607 0.0
H1039 H 0.79824 0.37742 0.54549 0.0
C1040 C 0.92599 0.40784 0.55239 0.0
C1041 C 0.91813 0.42935 0.55847 0.0
C1042 C 0.91077 0.39329 0.54484 0.0
C1043 C 0.88742 0.40005 0.54302 0.0
C1044 C 0.87961 0.42184 0.54877 0.0
C1045 C 0.89487 0.43643 0.55639 0.0
C1046 C 0.87102 0.38305 0.53628 0.0
C1047 C 0.85162 0.37528 0.544 0.0
C1048 C 0.87645 0.37168 0.52339 0.0
C1049 C 0.89526 0.38073 0.51409 0.0
C1050 C 0.89619 0.40518 0.5104 0.0
C1051 C 0.91397 0.41372 0.50172 0.0
C1052 C 0.9309 0.39796 0.49661 0.0
C1053 C 0.93007 0.37363 0.50015 0.0
C1054 C 0.91234 0.36499 0.50883 0.0
C1055 C 0.80511 0.2914 0.51801 0.0
C1056 C 0.81972 0.27139 0.51997 0.0
C1057 C 0.81351 0.31465 0.52046 0.0
C1058 C 0.8367 0.31805 0.52461 0.0
C1059 C 0.85132 0.29813 0.52633 0.0
C1060 C 0.84287 0.27501 0.52417 0.0
C1061 C 0.84599 0.34213 0.52782 0.0
C1062 C 0.86399 0.35114 0.51941 0.0
C1063 C 0.83909 0.35484 0.53994 0.0
C1064 C 0.82002 0.34626 0.54909 0.0
C1065 C 0.82189 0.32424 0.55623 0.0
C1066 C 0.80372 0.31626 0.56479 0.0
C1067 C 0.78369 0.33025 0.56638 0.0
C1068 C 0.78182 0.35229 0.55944 0.0
C1069 C 0.79994 0.36034 0.55085 0.0
H1070 H 0.76964 0.32404 0.57301 0.0
H1071 H 0.94465 0.40461 0.48989 0.0
H1072 H 0.54359 0.11321 0.45482 0.0
H1073 H 0.57316 0.13768 0.46658 0.0
H1074 H 0.62067 0.0777 0.46582 0.0
H1075 H 0.59177 0.05347 0.45366 0.0
H1076 H 0.61878 0.10154 0.49191 0.0
H1077 H 0.62608 0.11933 0.44202 0.0
H1078 H 0.61119 0.13342 0.41917 0.0
H1079 H 0.59477 0.20204 0.43723 0.0
H1080 H 0.6093 0.18821 0.46025 0.0
H1081 H 0.73484 0.13447 0.49281 0.0
H1082 H 0.69566 0.12082 0.48753 0.0
H1083 H 0.67018 0.19354 0.49076 0.0
H1084 H 0.70976 0.20755 0.49602 0.0
H1085 H 0.65461 0.17051 0.46699 0.0
H1086 H 0.65545 0.15478 0.51582 0.0
H1087 H 0.67108 0.14037 0.5384 0.0
H1088 H 0.67222 0.0681 0.52269 0.0
H1089 H 0.65692 0.08209 0.49993 0.0
C1090 C 0.56038 0.10528 0.45707 0.0
C1091 C 0.56527 0.08133 0.45329 0.0
C1092 C 0.57716 0.11923 0.46387 0.0
C1093 C 0.59901 0.10942 0.46707 0.0
C1094 C 0.6038 0.08548 0.46355 0.0
C1095 C 0.58719 0.07163 0.45665 0.0
C1096 C 0.61748 0.12411 0.47358 0.0
C1097 C 0.62663 0.11666 0.48651 0.0
C1098 C 0.62709 0.14431 0.46672 0.0
C1099 C 0.61847 0.15264 0.45288 0.0
C1100 C 0.6191 0.13735 0.44114 0.0
C1101 C 0.61077 0.1453 0.42816 0.0
C1102 C 0.60196 0.16858 0.42676 0.0
C1103 C 0.60155 0.18399 0.43834 0.0
C1104 C 0.60983 0.17611 0.45135 0.0
C1105 C 0.72095 0.14763 0.49249 0.0
C1106 C 0.72541 0.17211 0.49482 0.0
C1107 C 0.6985 0.13975 0.48957 0.0
C1108 C 0.67997 0.15612 0.48895 0.0
C1109 C 0.68426 0.18062 0.49129 0.0
C1110 C 0.70683 0.18856 0.4943 0.0
C1111 C 0.65653 0.14737 0.48509 0.0
C1112 C 0.64639 0.15589 0.47265 0.0
C1113 C 0.64599 0.12813 0.49242 0.0
C1114 C 0.6551 0.11953 0.50613 0.0
C1115 C 0.65917 0.13583 0.51714 0.0
C1116 C 0.66795 0.12773 0.52998 0.0
C1117 C 0.67266 0.10334 0.53197 0.0
C1118 C 0.66855 0.08699 0.52113 0.0
C1119 C 0.65978 0.09499 0.50827 0.0
H1120 H 0.67946 0.09711 0.54192 0.0
H1121 H 0.59551 0.17469 0.41671 0.0
H1122 H 0.92459 0.06611 0.71708 0.0
H1123 H 0.89563 0.09377 0.72678 0.0
H1124 H 0.85986 0.09498 0.68697 0.0
H1125 H 0.88909 0.06797 0.6771 0.0
H1126 H 0.86696 0.13933 0.69677 0.0
H1127 H 0.83674 0.06557 0.7151 0.0
H1128 H 0.83823 0.02694 0.72773 0.0
H1129 H 0.85716 0.06358 0.7657 0.0
H1130 H 0.85611 0.10242 0.75325 0.0
H1131 H 0.77542 0.21182 0.72067 0.0
H1132 H 0.79423 0.17537 0.71192 0.0
H1133 H 0.83394 0.17 0.75021 0.0
H1134 H 0.81495 0.2061 0.75916 0.0
H1135 H 0.82201 0.12589 0.74053 0.0
H1136 H 0.85648 0.19826 0.72211 0.0
H1137 H 0.85623 0.23734 0.70992 0.0
H1138 H 0.83085 0.2034 0.67246 0.0
H1139 H 0.83063 0.16414 0.68452 0.0
C1140 C 0.91055 0.07228 0.7104 0.0
C1141 C 0.90913 0.06486 0.69632 0.0
C1142 C 0.89388 0.08786 0.716 0.0
C1143 C 0.87546 0.09622 0.70763 0.0
C1144 C 0.87387 0.08863 0.69363 0.0
C1145 C 0.8905 0.07307 0.68803 0.0
C1146 C 0.85873 0.11411 0.71318 0.0
C1147 C 0.85678 0.13619 0.70618 0.0
C1148 C 0.84594 0.11023 0.72567 0.0
C1149 C 0.84653 0.0869 0.7332 0.0
C1150 C 0.8414 0.06538 0.72612 0.0
C1151 C 0.84213 0.04344 0.73325 0.0
C1152 C 0.84783 0.0428 0.7475 0.0
C1153 C 0.85276 0.0641 0.75466 0.0
C1154 C 0.85208 0.08609 0.74757 0.0
C1155 C 0.78781 0.20262 0.72735 0.0
C1156 C 0.79397 0.21207 0.74052 0.0
C1157 C 0.79857 0.18182 0.72232 0.0
C1158 C 0.81582 0.17029 0.73031 0.0
C1159 C 0.82076 0.17869 0.74386 0.0
C1160 C 0.80993 0.1994 0.74893 0.0
C1161 C 0.83029 0.15101 0.72409 0.0
C1162 C 0.83194 0.12881 0.731 0.0
C1163 C 0.843 0.15478 0.71156 0.0
C1164 C 0.84328 0.17833 0.70426 0.0
C1165 C 0.85068 0.19917 0.71131 0.0
C1166 C 0.85065 0.22134 0.70442 0.0
C1167 C 0.84346 0.22287 0.69044 0.0
C1168 C 0.83636 0.2022 0.6833 0.0
C1169 C 0.83632 0.17998 0.69016 0.0
H1170 H 0.84345 0.24005 0.68512 0.0
H1171 H 0.84839 0.0258 0.75301 0.0
H1172 H 0.8954 0.44048 0.9539 0.0
H1173 H 0.86692 0.4174 0.96713 0.0
H1174 H 0.91562 0.35877 0.97085 0.0
H1175 H 0.94477 0.38215 0.95798 0.0
H1176 H 0.87056 0.34517 0.96169 0.0
H1177 H 0.90531 0.38847 0.9992 0.0
H1178 H 0.92095 0.42397 0.01143 0.0
H1179 H 0.85359 0.45735 0.01027 0.0
H1180 H 0.8376 0.42221 0.99784 0.0
H1181 H 0.77809 0.29117 0.00112 0.0
H1182 H 0.8176 0.30506 0.99575 0.0
H1183 H 0.79172 0.37734 0.99063 0.0
H1184 H 0.7526 0.36381 0.99618 0.0
H1185 H 0.83214 0.37756 0.00433 0.0
H1186 H 0.80036 0.33952 0.96245 0.0
H1187 H 0.78404 0.30558 0.94904 0.0
H1188 H 0.84524 0.26375 0.95763 0.0
H1189 H 0.86179 0.29739 0.97124 0.0
C1190 C 0.90031 0.42288 0.95774 0.0
C1191 C 0.92248 0.41328 0.95495 0.0
C1192 C 0.88395 0.40967 0.96526 0.0
C1193 C 0.88931 0.38653 0.9701 0.0
C1194 C 0.91125 0.37666 0.96723 0.0
C1195 C 0.92779 0.39 0.9598 0.0
C1196 C 0.87138 0.37257 0.97763 0.0
C1197 C 0.86251 0.35184 0.97123 0.0
C1198 C 0.8608 0.38153 0.98996 0.0
C1199 C 0.87028 0.4027 0.99752 0.0
C1200 C 0.89386 0.40344 0.00147 0.0
C1201 C 0.90278 0.4235 0.00845 0.0
C1202 C 0.88828 0.44292 0.01161 0.0
C1203 C 0.86481 0.4423 0.00782 0.0
C1204 C 0.85579 0.42228 0.00082 0.0
C1205 C 0.78091 0.31005 0.99898 0.0
C1206 C 0.7622 0.32636 0.99896 0.0
C1207 C 0.80346 0.31794 0.99589 0.0
C1208 C 0.80754 0.3422 0.99267 0.0
C1209 C 0.78899 0.35856 0.99312 0.0
C1210 C 0.76657 0.35074 0.99622 0.0
C1211 C 0.83071 0.35073 0.98806 0.0
C1212 C 0.84058 0.37046 0.99503 0.0
C1213 C 0.84209 0.34098 0.97617 0.0
C1214 C 0.83215 0.32081 0.96801 0.0
C1215 C 0.81024 0.323 0.96157 0.0
C1216 C 0.80097 0.30384 0.95392 0.0
C1217 C 0.81356 0.28249 0.95253 0.0
C1218 C 0.83548 0.28028 0.95875 0.0
C1219 C 0.84481 0.29938 0.96643 0.0
H1220 H 0.80636 0.26768 0.94659 0.0
H1221 H 0.89523 0.45843 0.01702 0.0
H1222 H 0.60541 0.45898 0.209 0.0
H1223 H 0.62955 0.42826 0.22036 0.0
H1224 H 0.57559 0.37574 0.21355 0.0
H1225 H 0.55162 0.40604 0.2021 0.0
H1226 H 0.594 0.37206 0.23969 0.0
H1227 H 0.62185 0.37995 0.19161 0.0
H1228 H 0.63845 0.40235 0.17165 0.0
H1229 H 0.69878 0.41957 0.19624 0.0
H1230 H 0.68237 0.39751 0.21643 0.0
H1231 H 0.63659 0.25692 0.23038 0.0
H1232 H 0.62189 0.29751 0.22703 0.0
H1233 H 0.68566 0.3266 0.24371 0.0
H1234 H 0.70061 0.28561 0.2473 0.0
H1235 H 0.66868 0.34819 0.21752 0.0
H1236 H 0.64318 0.33178 0.26396 0.0
H1237 H 0.62611 0.30765 0.28304 0.0
H1238 H 0.5609 0.30533 0.2611 0.0
H1239 H 0.57768 0.32913 0.24177 0.0
C1240 C 0.59873 0.44087 0.20992 0.0
C1241 C 0.57659 0.43494 0.20464 0.0
C1242 C 0.6125 0.4234 0.21646 0.0
C1243 C 0.60437 0.39973 0.21775 0.0
C1244 C 0.58211 0.39395 0.21276 0.0
C1245 C 0.5684 0.41132 0.20625 0.0
C1246 C 0.61916 0.38046 0.22368 0.0
C1247 C 0.61037 0.36688 0.23489 0.0
C1248 C 0.64089 0.37421 0.2177 0.0
C1249 C 0.65076 0.38737 0.20557 0.0
C1250 C 0.63857 0.38868 0.19279 0.0
C1251 C 0.64795 0.40128 0.18144 0.0
C1252 C 0.66962 0.41245 0.18269 0.0
C1253 C 0.68197 0.41096 0.1953 0.0
C1254 C 0.67264 0.39842 0.2067 0.0
C1255 C 0.64759 0.27187 0.23333 0.0
C1256 C 0.66977 0.26806 0.23912 0.0
C1257 C 0.63909 0.29506 0.23147 0.0
C1258 C 0.65261 0.31496 0.23527 0.0
C1259 C 0.67497 0.31138 0.2408 0.0
C1260 C 0.68343 0.28803 0.24285 0.0
C1261 C 0.643 0.33931 0.23313 0.0
C1262 C 0.65271 0.35382 0.22264 0.0
C1263 C 0.62204 0.34637 0.23972 0.0
C1264 C 0.61175 0.33218 0.25137 0.0
C1265 C 0.62525 0.32599 0.26315 0.0
C1266 C 0.61561 0.31239 0.27402 0.0
C1267 C 0.59244 0.30494 0.27328 0.0
C1268 C 0.57884 0.31112 0.26167 0.0
C1269 C 0.5884 0.32471 0.25075 0.0
H1270 H 0.58501 0.2944 0.28171 0.0
H1271 H 0.67686 0.42219 0.17389 0.0
H1272 H 0.10288 0.94107 0.38758 0.0
H1273 H 0.12219 0.91494 0.40468 0.0
H1274 H 0.05814 0.87601 0.41079 0.0
H1275 H 0.03864 0.90229 0.39388 0.0
H1276 H 0.07889 0.88857 0.43566 0.0
H1277 H 0.10108 0.85094 0.39234 0.0
H1278 H 0.11743 0.84942 0.36843 0.0
H1279 H 0.18362 0.87293 0.38413 0.0
H1280 H 0.16757 0.87494 0.40812 0.0
H1281 H 0.12708 0.79497 0.4768 0.0
H1282 H 0.10738 0.81659 0.45787 0.0
H1283 H 0.17107 0.85412 0.44828 0.0
H1284 H 0.191 0.83224 0.46695 0.0
H1285 H 0.14966 0.84098 0.42477 0.0
H1286 H 0.12791 0.88065 0.46754 0.0
H1287 H 0.11229 0.88313 0.49161 0.0
H1288 H 0.04612 0.85735 0.47713 0.0
H1289 H 0.06146 0.85437 0.453 0.0
C1290 C 0.09294 0.92693 0.39257 0.0
C1291 C 0.06927 0.92368 0.38937 0.0
C1292 C 0.10401 0.91193 0.40226 0.0
C1293 C 0.09162 0.89344 0.40892 0.0
C1294 C 0.06801 0.89013 0.40573 0.0
C1295 C 0.05696 0.90502 0.39599 0.0
C1296 C 0.1031 0.87803 0.41954 0.0
C1297 C 0.09415 0.87785 0.43324 0.0
C1298 C 0.12334 0.86457 0.41643 0.0
C1299 C 0.13306 0.8633 0.40201 0.0
C1300 C 0.11907 0.85598 0.39068 0.0
C1301 C 0.12829 0.85499 0.37711 0.0
C1302 C 0.15154 0.86113 0.37476 0.0
C1303 C 0.16562 0.86821 0.38597 0.0
C1304 C 0.15647 0.86926 0.39956 0.0
C1305 C 0.13693 0.80772 0.47061 0.0
C1306 C 0.16057 0.81198 0.47343 0.0
C1307 C 0.12562 0.82013 0.45983 0.0
C1308 C 0.13768 0.83722 0.45179 0.0
C1309 C 0.16142 0.84103 0.45435 0.0
C1310 C 0.17277 0.82855 0.46507 0.0
C1311 C 0.12549 0.85155 0.44091 0.0
C1312 C 0.13432 0.85158 0.42718 0.0
C1313 C 0.10524 0.86506 0.44401 0.0
C1314 C 0.09591 0.86704 0.45849 0.0
C1315 C 0.11007 0.87534 0.46951 0.0
C1316 C 0.10127 0.87686 0.48316 0.0
C1317 C 0.07825 0.87033 0.4859 0.0
C1318 C 0.06396 0.86236 0.47499 0.0
C1319 C 0.0727 0.86076 0.46133 0.0
H1320 H 0.07147 0.87151 0.49648 0.0
H1321 H 0.15865 0.86035 0.36425 0.0
H1322 H 0.03991 0.58797 0.65289 0.0
H1323 H 0.06155 0.61071 0.67047 0.0
H1324 H 0.1244 0.57284 0.65912 0.0
H1325 H 0.10246 0.54939 0.64182 0.0
H1326 H 0.1222 0.57531 0.68596 0.0
H1327 H 0.11423 0.63316 0.64969 0.0
H1328 H 0.09431 0.65754 0.63172 0.0
H1329 H 0.05227 0.69058 0.66359 0.0
H1330 H 0.07171 0.66615 0.68174 0.0
H1331 H 0.19181 0.66239 0.72405 0.0
H1332 H 0.17461 0.64097 0.70406 0.0
H1333 H 0.1062 0.65135 0.72161 0.0
H1334 H 0.12324 0.67214 0.7418 0.0
H1335 H 0.1149 0.66383 0.69044 0.0
H1336 H 0.12287 0.60156 0.7262 0.0
H1337 H 0.14555 0.57801 0.74335 0.0
H1338 H 0.1916 0.55461 0.71058 0.0
H1339 H 0.16939 0.57839 0.69327 0.0
C1340 C 0.0584 0.5847 0.65406 0.0
C1341 C 0.06958 0.56707 0.64597 0.0
C1342 C 0.07078 0.59775 0.66407 0.0
C1343 C 0.09474 0.59384 0.66596 0.0
C1344 C 0.10596 0.57623 0.65783 0.0
C1345 C 0.09346 0.56288 0.64796 0.0
C1346 C 0.10775 0.60751 0.6768 0.0
C1347 C 0.12089 0.59471 0.68675 0.0
C1348 C 0.10602 0.63284 0.67794 0.0
C1349 C 0.09432 0.64767 0.66707 0.0
C1350 C 0.10062 0.6455 0.65286 0.0
C1351 C 0.08943 0.65935 0.64264 0.0
C1352 C 0.072 0.67556 0.64651 0.0
C1353 C 0.06577 0.678 0.66061 0.0
C1354 C 0.07689 0.66418 0.67087 0.0
C1355 C 0.1731 0.66011 0.72362 0.0
C1356 C 0.15883 0.66885 0.73446 0.0
C1357 C 0.16336 0.6479 0.71224 0.0
C1358 C 0.1392 0.64469 0.71143 0.0
C1359 C 0.12489 0.65375 0.72209 0.0
C1360 C 0.13465 0.66548 0.73362 0.0
C1361 C 0.1288 0.63152 0.69955 0.0
C1362 C 0.11626 0.64446 0.68946 0.0
C1363 C 0.13145 0.60642 0.69811 0.0
C1364 C 0.14466 0.59199 0.70848 0.0
C1365 C 0.13798 0.5916 0.72268 0.0
C1366 C 0.15071 0.57817 0.73242 0.0
C1367 C 0.17005 0.56489 0.72806 0.0
C1368 C 0.17664 0.56495 0.71395 0.0
C1369 C 0.16399 0.57839 0.70417 0.0
H1370 H 0.17988 0.55449 0.73562 0.0
H1371 H 0.06336 0.68627 0.63858 0.0
H1372 H 0.4619 0.58256 0.90556 0.0
H1373 H 0.43932 0.60589 0.92227 0.0
H1374 H 0.38405 0.61319 0.89191 0.0
H1375 H 0.40733 0.59117 0.87469 0.0
H1376 H 0.38922 0.65379 0.90515 0.0
H1377 H 0.38088 0.57247 0.91961 0.0
H1378 H 0.39341 0.53161 0.92617 0.0
H1379 H 0.4312 0.56 0.96132 0.0
H1380 H 0.41916 0.60109 0.95486 0.0
H1381 H 0.30509 0.68482 0.95863 0.0
H1382 H 0.32624 0.66455 0.93968 0.0
H1383 H 0.38958 0.66858 0.96381 0.0
H1384 H 0.36872 0.68914 0.9827 0.0
H1385 H 0.37782 0.62164 0.95324 0.0
H1386 H 0.38521 0.70389 0.93747 0.0
H1387 H 0.37016 0.7437 0.93062 0.0
H1388 H 0.33031 0.71142 0.8975 0.0
H1389 H 0.34488 0.67135 0.9043 0.0
C1390 C 0.44515 0.58945 0.90228 0.0
C1391 C 0.43649 0.58493 0.88872 0.0
C1392 C 0.43206 0.60252 0.91196 0.0
C1393 C 0.40976 0.61088 0.90846 0.0
C1394 C 0.40115 0.60676 0.89488 0.0
C1395 C 0.4144 0.59394 0.8851 0.0
C1396 C 0.39555 0.62389 0.91904 0.0
C1397 C 0.38644 0.64656 0.91559 0.0
C1398 C 0.39202 0.61459 0.93272 0.0
C1399 C 0.39927 0.58989 0.93667 0.0
C1400 C 0.392 0.57002 0.92868 0.0
C1401 C 0.399 0.54681 0.93239 0.0
C1402 C 0.41314 0.54321 0.94414 0.0
C1403 C 0.42026 0.56282 0.95222 0.0
C1404 C 0.41334 0.58607 0.94854 0.0
C1405 C 0.32358 0.6816 0.95983 0.0
C1406 C 0.33526 0.68856 0.97214 0.0
C1407 C 0.33561 0.67007 0.949 0.0
C1408 C 0.35943 0.66512 0.95038 0.0
C1409 C 0.37118 0.67228 0.96258 0.0
C1410 C 0.35926 0.68411 0.97332 0.0
C1411 C 0.37194 0.65155 0.93938 0.0
C1412 C 0.3806 0.62873 0.94276 0.0
C1413 C 0.37465 0.66052 0.9256 0.0
C1414 C 0.36594 0.6846 0.92149 0.0
C1415 C 0.37307 0.70525 0.92881 0.0
C1416 C 0.36466 0.72787 0.92492 0.0
C1417 C 0.34923 0.73008 0.91366 0.0
C1418 C 0.34223 0.70968 0.90624 0.0
C1419 C 0.35057 0.68701 0.9101 0.0
H1420 H 0.34275 0.74761 0.91066 0.0
H1421 H 0.41853 0.52523 0.94699 0.0
H1422 H 0.46499 0.92115 0.16042 0.0
H1423 H 0.43936 0.90387 0.17816 0.0
H1424 H 0.39077 0.88308 0.14586 0.0
H1425 H 0.41641 0.90045 0.12799 0.0
H1426 H 0.36857 0.90257 0.16798 0.0
H1427 H 0.4256 0.84137 0.16107 0.0
H1428 H 0.46509 0.82443 0.15898 0.0
H1429 H 0.47997 0.84498 0.20147 0.0
H1430 H 0.44065 0.86237 0.20376 0.0
H1431 H 0.30509 0.8255 0.21485 0.0
H1432 H 0.32772 0.84126 0.19512 0.0
H1433 H 0.37939 0.86808 0.22395 0.0
H1434 H 0.35704 0.85234 0.24368 0.0
H1435 H 0.3987 0.84303 0.20224 0.0
H1436 H 0.34184 0.90598 0.20847 0.0
H1437 H 0.30218 0.92263 0.21028 0.0
H1438 H 0.28669 0.89767 0.16868 0.0
H1439 H 0.32619 0.88057 0.16669 0.0
C1440 C 0.44897 0.91267 0.15707 0.0
C1441 C 0.44281 0.91197 0.1428 0.0
C1442 C 0.43431 0.90285 0.16722 0.0
C1443 C 0.41331 0.89188 0.16331 0.0
C1444 C 0.40692 0.89143 0.14909 0.0
C1445 C 0.42156 0.90136 0.13891 0.0
C1446 C 0.39806 0.88107 0.17414 0.0
C1447 C 0.37503 0.88925 0.17533 0.0
C1448 C 0.40659 0.86393 0.18384 0.0
C1449 C 0.43022 0.85335 0.18254 0.0
C1450 C 0.43734 0.84244 0.16993 0.0
C1451 C 0.45969 0.83273 0.16872 0.0
C1452 C 0.47505 0.83367 0.18008 0.0
C1453 C 0.46806 0.84428 0.19268 0.0
C1454 C 0.44573 0.85404 0.19395 0.0
C1455 C 0.3212 0.83488 0.21699 0.0
C1456 C 0.32928 0.83765 0.23083 0.0
C1457 C 0.33407 0.84392 0.20571 0.0
C1458 C 0.35518 0.8559 0.20809 0.0
C1459 C 0.36316 0.85884 0.22189 0.0
C1460 C 0.3503 0.8499 0.23316 0.0
C1461 C 0.36939 0.86485 0.19623 0.0
C1462 C 0.39221 0.85624 0.19483 0.0
C1463 C 0.36061 0.88146 0.18631 0.0
C1464 C 0.33688 0.89176 0.18749 0.0
C1465 C 0.32991 0.90386 0.19975 0.0
C1466 C 0.30747 0.91341 0.20081 0.0
C1467 C 0.2919 0.91114 0.18962 0.0
C1468 C 0.29876 0.89937 0.17735 0.0
C1469 C 0.32117 0.88976 0.17625 0.0
H1470 H 0.27454 0.91856 0.19046 0.0
H1471 H 0.49235 0.82615 0.17912 0.0
H1472 H 0.09972 0.57427 0.89165 0.0
H1473 H 0.12134 0.60177 0.87635 0.0
H1474 H 0.07655 0.58257 0.8417 0.0
H1475 H 0.05605 0.55403 0.85681 0.0
H1476 H 0.11689 0.58593 0.83218 0.0
H1477 H 0.07128 0.63708 0.86206 0.0
H1478 H 0.057 0.65285 0.88467 0.0
H1479 H 0.12636 0.67418 0.89579 0.0
H1480 H 0.14111 0.65825 0.87331 0.0
H1481 H 0.1389 0.71507 0.80468 0.0
H1482 H 0.12091 0.68861 0.82207 0.0
H1483 H 0.1775 0.63824 0.81728 0.0
H1484 H 0.19503 0.66412 0.79951 0.0
H1485 H 0.13105 0.67034 0.84654 0.0
H1486 H 0.15798 0.58165 0.81895 0.0
H1487 H 0.16755 0.56721 0.79515 0.0
H1488 H 0.12632 0.62375 0.77716 0.0
H1489 H 0.11623 0.6383 0.80084 0.0
C1490 C 0.09473 0.57591 0.88073 0.0
C1491 C 0.07637 0.56216 0.87531 0.0
C1492 C 0.10691 0.59172 0.87202 0.0
C1493 C 0.10034 0.59464 0.85789 0.0
C1494 C 0.08203 0.58066 0.85252 0.0
C1495 C 0.07028 0.56442 0.86113 0.0
C1496 C 0.11243 0.61214 0.84863 0.0
C1497 C 0.11997 0.60437 0.83537 0.0
C1498 C 0.1162 0.63637 0.85263 0.0
C1499 C 0.10732 0.64628 0.86606 0.0
C1500 C 0.0835 0.64503 0.86936 0.0
C1501 C 0.07533 0.654 0.88215 0.0
C1502 C 0.09078 0.66447 0.89167 0.0
C1503 C 0.11442 0.66607 0.8884 0.0
C1504 C 0.1227 0.65708 0.87564 0.0
C1505 C 0.1476 0.69847 0.80744 0.0
C1506 C 0.16819 0.69149 0.80061 0.0
C1507 C 0.13734 0.68338 0.81741 0.0
C1508 C 0.14761 0.66121 0.82078 0.0
C1509 C 0.16895 0.65497 0.81459 0.0
C1510 C 0.17899 0.66982 0.80447 0.0
C1511 C 0.13541 0.64405 0.83016 0.0
C1512 C 0.12797 0.65187 0.84342 0.0
C1513 C 0.13093 0.62008 0.82598 0.0
C1514 C 0.13657 0.6112 0.81168 0.0
C1515 C 0.15088 0.59093 0.80992 0.0
C1516 C 0.1564 0.58274 0.79644 0.0
C1517 C 0.14761 0.5946 0.78465 0.0
C1518 C 0.13319 0.61462 0.7863 0.0
C1519 C 0.12757 0.62286 0.79975 0.0
H1520 H 0.15194 0.58826 0.77423 0.0
H1521 H 0.08443 0.67135 0.90158 0.0
H1522 H 0.4085 0.60071 0.13469 0.0
H1523 H 0.38385 0.62007 0.11698 0.0
H1524 H 0.42768 0.59147 0.08419 0.0
H1525 H 0.45253 0.57263 0.10182 0.0
H1526 H 0.41766 0.63595 0.07851 0.0
H1527 H 0.37353 0.5667 0.09302 0.0
H1528 H 0.35369 0.54019 0.10995 0.0
H1529 H 0.30811 0.59795 0.12172 0.0
H1530 H 0.3279 0.6249 0.10497 0.0
H1531 H 0.34405 0.63796 0.01921 0.0
H1532 H 0.36597 0.62394 0.03961 0.0
H1533 H 0.3262 0.67097 0.0664 0.0
H1534 H 0.30429 0.68544 0.04597 0.0
H1535 H 0.33261 0.62111 0.07643 0.0
H1536 H 0.37606 0.68931 0.06028 0.0
H1537 H 0.39567 0.71442 0.04253 0.0
H1538 H 0.44242 0.65645 0.03304 0.0
H1539 H 0.42289 0.63091 0.05062 0.0
C1540 C 0.4128 0.59858 0.12369 0.0
C1541 C 0.43244 0.58523 0.11962 0.0
C1542 C 0.3987 0.60959 0.11359 0.0
C1543 C 0.40376 0.60703 0.09923 0.0
C1544 C 0.42346 0.5938 0.09519 0.0
C1545 C 0.43768 0.58307 0.10527 0.0
C1546 C 0.38867 0.61802 0.08831 0.0
C1547 C 0.3991 0.63251 0.07803 0.0
C1548 C 0.36432 0.61407 0.08783 0.0
C1549 C 0.35237 0.59788 0.09787 0.0
C1550 C 0.3594 0.57379 0.0993 0.0
C1551 C 0.34814 0.55869 0.10884 0.0
C1552 C 0.3297 0.5674 0.11693 0.0
C1553 C 0.32243 0.59124 0.11546 0.0
C1554 C 0.33365 0.60643 0.10594 0.0
C1555 C 0.33983 0.64524 0.02944 0.0
C1556 C 0.32244 0.66282 0.03098 0.0
C1557 C 0.35242 0.63726 0.04106 0.0
C1558 C 0.34772 0.64652 0.05446 0.0
C1559 C 0.33002 0.66363 0.05613 0.0
C1560 C 0.3176 0.67189 0.04445 0.0
C1561 C 0.36177 0.63853 0.06659 0.0
C1562 C 0.35113 0.62467 0.07707 0.0
C1563 C 0.38597 0.64283 0.06719 0.0
C1564 C 0.39787 0.65815 0.05667 0.0
C1565 C 0.39039 0.68187 0.05432 0.0
C1566 C 0.40151 0.69619 0.04431 0.0
C1567 C 0.42023 0.68701 0.03663 0.0
C1568 C 0.42791 0.66352 0.03898 0.0
C1569 C 0.41684 0.64913 0.04899 0.0
H1570 H 0.42882 0.69812 0.02888 0.0
H1571 H 0.321 0.55568 0.12432 0.0
H1572 H 0.44009 0.89583 0.37495 0.0
H1573 H 0.4163 0.86897 0.36084 0.0
H1574 H 0.36459 0.92467 0.35615 0.0
H1575 H 0.38728 0.95095 0.37129 0.0
H1576 H 0.34338 0.88476 0.35901 0.0
H1577 H 0.40665 0.91068 0.33003 0.0
H1578 H 0.44763 0.91743 0.32347 0.0
H1579 H 0.46069 0.84154 0.32539 0.0
H1580 H 0.41984 0.83436 0.33215 0.0
H1581 H 0.29521 0.84609 0.29321 0.0
H1582 H 0.31557 0.86759 0.31196 0.0
H1583 H 0.35056 0.80217 0.32392 0.0
H1584 H 0.3299 0.78036 0.30537 0.0
H1585 H 0.37995 0.84433 0.31817 0.0
H1586 H 0.31322 0.82012 0.34526 0.0
H1587 H 0.27122 0.81614 0.34997 0.0
H1588 H 0.26368 0.89288 0.34924 0.0
H1589 H 0.30559 0.89731 0.3443 0.0
C1590 C 0.42345 0.90229 0.37119 0.0
C1591 C 0.41577 0.92575 0.37423 0.0
C1592 C 0.40999 0.88697 0.36291 0.0
C1593 C 0.38887 0.89494 0.35713 0.0
C1594 C 0.3809 0.91812 0.36039 0.0
C1595 C 0.39411 0.93329 0.36891 0.0
C1596 C 0.37527 0.87936 0.34749 0.0
C1597 C 0.35138 0.87612 0.35002 0.0
C1598 C 0.38569 0.86776 0.33582 0.0
C1599 C 0.41026 0.87201 0.33175 0.0
C1600 C 0.41831 0.89545 0.32916 0.0
C1601 C 0.44151 0.89935 0.32539 0.0
C1602 C 0.45677 0.87993 0.32406 0.0
C1603 C 0.44886 0.85656 0.32646 0.0
C1604 C 0.42568 0.85257 0.33025 0.0
C1605 C 0.30702 0.83622 0.29995 0.0
C1606 C 0.31101 0.81157 0.29783 0.0
C1607 C 0.31856 0.8485 0.31066 0.0
C1608 C 0.33448 0.8364 0.31928 0.0
C1609 C 0.33825 0.81173 0.31736 0.0
C1610 C 0.32639 0.79932 0.30681 0.0
C1611 C 0.34824 0.84993 0.32971 0.0
C1612 C 0.37211 0.85283 0.32727 0.0
C1613 C 0.3377 0.86166 0.34122 0.0
C1614 C 0.31252 0.85903 0.34429 0.0
C1615 C 0.30257 0.83614 0.34598 0.0
C1616 C 0.27879 0.8338 0.34872 0.0
C1617 C 0.26478 0.85424 0.34987 0.0
C1618 C 0.27455 0.87706 0.34833 0.0
C1619 C 0.29832 0.8795 0.34558 0.0
H1620 H 0.24636 0.85239 0.35199 0.0
H1621 H 0.47473 0.88299 0.32113 0.0
H1622 H 0.099 0.91108 0.63587 0.0
H1623 H 0.12445 0.89164 0.61854 0.0
H1624 H 0.08321 0.92195 0.58504 0.0
H1625 H 0.05758 0.94073 0.60224 0.0
H1626 H 0.09104 0.87719 0.57971 0.0
H1627 H 0.13828 0.94393 0.59467 0.0
H1628 H 0.15907 0.96931 0.61176 0.0
H1629 H 0.20139 0.90917 0.62388 0.0
H1630 H 0.18063 0.88334 0.60697 0.0
H1631 H 0.16465 0.86928 0.52104 0.0
H1632 H 0.1452 0.8868 0.54142 0.0
H1633 H 0.1792 0.83558 0.56849 0.0
H1634 H 0.19857 0.8176 0.54809 0.0
H1635 H 0.1768 0.88721 0.57842 0.0
H1636 H 0.12932 0.82123 0.56219 0.0
H1637 H 0.1091 0.79769 0.54399 0.0
H1638 H 0.0675 0.85916 0.53332 0.0
H1639 H 0.08769 0.88316 0.55137 0.0
C1640 C 0.09553 0.91361 0.62479 0.0
C1641 C 0.07627 0.92721 0.62036 0.0
C1642 C 0.11007 0.90259 0.61491 0.0
C1643 C 0.10581 0.90543 0.60047 0.0
C1644 C 0.08676 0.91933 0.5961 0.0
C1645 C 0.07211 0.93004 0.60594 0.0
C1646 C 0.12068 0.89356 0.58977 0.0
C1647 C 0.10976 0.87959 0.57942 0.0
C1648 C 0.14521 0.89614 0.58952 0.0
C1649 C 0.15772 0.91164 0.59968 0.0
C1650 C 0.15189 0.93607 0.60106 0.0
C1651 C 0.16369 0.95055 0.6107 0.0
C1652 C 0.18149 0.94084 0.61893 0.0
C1653 C 0.18757 0.91665 0.61752 0.0
C1654 C 0.1758 0.90209 0.6079 0.0
C1655 C 0.16826 0.86191 0.53133 0.0
C1656 C 0.18303 0.84197 0.53295 0.0
C1657 C 0.15712 0.87194 0.54295 0.0
C1658 C 0.16075 0.86238 0.55639 0.0
C1659 C 0.17627 0.84318 0.55817 0.0
C1660 C 0.1872 0.8329 0.54651 0.0
C1661 C 0.14698 0.87147 0.56835 0.0
C1662 C 0.1581 0.88476 0.57889 0.0
C1663 C 0.12259 0.86853 0.56873 0.0
C1664 C 0.11014 0.85403 0.55805 0.0
C1665 C 0.11597 0.82977 0.5559 0.0
C1666 C 0.10449 0.81633 0.54563 0.0
C1667 C 0.08706 0.82693 0.53748 0.0
C1668 C 0.08101 0.85097 0.53963 0.0
C1669 C 0.09244 0.86449 0.5499 0.0
H1670 H 0.07822 0.81651 0.52952 0.0
H1671 H 0.19061 0.95208 0.62639 0.0
H1672 H 0.59888 0.42031 0.87501 0.0
H1673 H 0.61831 0.39365 0.89186 0.0
H1674 H 0.56576 0.41049 0.92278 0.0
H1675 H 0.54734 0.43819 0.9062 0.0
H1676 H 0.60446 0.40982 0.93512 0.0
H1677 H 0.56791 0.35547 0.90253 0.0
H1678 H 0.55937 0.33851 0.87917 0.0
H1679 H 0.63162 0.32136 0.87354 0.0
H1680 H 0.64063 0.33845 0.89681 0.0
H1681 H 0.61722 0.31174 0.98109 0.0
H1682 H 0.60132 0.33497 0.96154 0.0
H1683 H 0.66806 0.33339 0.94092 0.0
H1684 H 0.68433 0.31042 0.96058 0.0
H1685 H 0.62512 0.32579 0.9229 0.0
H1686 H 0.66 0.37969 0.95682 0.0
H1687 H 0.66616 0.39466 0.98089 0.0
H1688 H 0.59338 0.41102 0.98445 0.0
H1689 H 0.58671 0.39572 0.96047 0.0
C1690 C 0.59167 0.41828 0.88545 0.0
C1691 C 0.57176 0.43116 0.88942 0.0
C1692 C 0.60261 0.40294 0.89503 0.0
C1693 C 0.59329 0.39967 0.90855 0.0
C1694 C 0.57334 0.41269 0.91245 0.0
C1695 C 0.56278 0.42844 0.903 0.0
C1696 C 0.60432 0.38298 0.91877 0.0
C1697 C 0.6087 0.3914 0.93242 0.0
C1698 C 0.61039 0.35901 0.91527 0.0
C1699 C 0.60497 0.34844 0.90135 0.0
C1700 C 0.58199 0.34818 0.89628 0.0
C1701 C 0.57707 0.33853 0.88306 0.0
C1702 C 0.59495 0.3289 0.87487 0.0
C1703 C 0.61779 0.32883 0.8799 0.0
C1704 C 0.62281 0.33847 0.89311 0.0
C1705 C 0.62845 0.31597 0.9723 0.0
C1706 C 0.65208 0.30942 0.97241 0.0
C1707 C 0.61933 0.32923 0.96116 0.0
C1708 C 0.63359 0.33593 0.94988 0.0
C1709 C 0.65683 0.32831 0.94955 0.0
C1710 C 0.66608 0.31531 0.9608 0.0
C1711 C 0.62468 0.35267 0.93912 0.0
C1712 C 0.62085 0.34427 0.92545 0.0
C1713 C 0.61875 0.37655 0.94263 0.0
C1714 C 0.62283 0.38635 0.9569 0.0
C1715 C 0.64528 0.38632 0.96277 0.0
C1716 C 0.64887 0.39488 0.9764 0.0
C1717 C 0.63016 0.40373 0.98421 0.0
C1718 C 0.60785 0.40413 0.97839 0.0
C1719 C 0.60416 0.39553 0.96478 0.0
H1720 H 0.63297 0.41031 0.99476 0.0
H1721 H 0.59111 0.32148 0.86463 0.0
H1722 H 0.5818 0.02081 0.15423 0.0
H1723 H 0.59988 0.04632 0.1719 0.0
H1724 H 0.62347 0.09468 0.13953 0.0
H1725 H 0.60573 0.06877 0.12161 0.0
H1726 H 0.65731 0.08553 0.15983 0.0
H1727 H 0.57801 0.11058 0.15817 0.0
H1728 H 0.53542 0.10545 0.15802 0.0
H1729 H 0.53819 0.07427 0.19921 0.0
H1730 H 0.58087 0.07888 0.19952 0.0
H1731 H 0.68499 0.17572 0.21099 0.0
H1732 H 0.66927 0.15449 0.19061 0.0
H1733 H 0.63852 0.10162 0.218 0.0
H1734 H 0.65389 0.12282 0.23841 0.0
H1735 H 0.60804 0.11696 0.19848 0.0
H1736 H 0.68769 0.08933 0.19929 0.0
H1737 H 0.73033 0.09423 0.19931 0.0
H1738 H 0.72679 0.13063 0.15962 0.0
H1739 H 0.68407 0.12623 0.15946 0.0
C1740 C 0.59114 0.03666 0.15081 0.0
C1741 C 0.5924 0.04274 0.13651 0.0
C1742 C 0.60126 0.05135 0.16095 0.0
C1743 C 0.61275 0.07252 0.15703 0.0
C1744 C 0.61457 0.07844 0.14275 0.0
C1745 C 0.60434 0.06374 0.13256 0.0
C1746 C 0.62248 0.08846 0.16799 0.0
C1747 C 0.64652 0.0928 0.16816 0.0
C1748 C 0.60838 0.09762 0.17892 0.0
C1749 C 0.58268 0.09491 0.17882 0.0
C1750 C 0.56957 0.10246 0.16715 0.0
C1751 C 0.5454 0.09967 0.16705 0.0
C1752 C 0.53411 0.08949 0.17859 0.0
C1753 C 0.54697 0.08213 0.19027 0.0
C1754 C 0.57115 0.08486 0.19043 0.0
C1755 C 0.67497 0.15951 0.21267 0.0
C1756 C 0.67071 0.15093 0.22633 0.0
C1757 C 0.66606 0.14737 0.20101 0.0
C1758 C 0.65287 0.12639 0.20279 0.0
C1759 C 0.64864 0.11779 0.2164 0.0
C1760 C 0.65752 0.1299 0.22805 0.0
C1761 C 0.64298 0.11356 0.19054 0.0
C1762 C 0.61885 0.10989 0.1901 0.0
C1763 C 0.657 0.10508 0.17937 0.0
C1764 C 0.68267 0.10769 0.17944 0.0
C1765 C 0.69599 0.09856 0.19063 0.0
C1766 C 0.72017 0.10122 0.19065 0.0
C1767 C 0.73126 0.1128 0.17949 0.0
C1768 C 0.71818 0.1217 0.16827 0.0
C1769 C 0.69399 0.11912 0.1682 0.0
H1770 H 0.74998 0.11483 0.17953 0.0
H1771 H 0.5154 0.08735 0.17849 0.0
H1772 H 0.90915 0.08806 0.37905 0.0
H1773 H 0.88792 0.1122 0.39609 0.0
H1774 H 0.94706 0.11024 0.42398 0.0
H1775 H 0.96766 0.08438 0.40756 0.0
H1776 H 0.91061 0.10422 0.43861 0.0
H1777 H 0.93169 0.1612 0.40321 0.0
H1778 H 0.93466 0.17778 0.37927 0.0
H1779 H 0.86016 0.17958 0.37605 0.0
H1780 H 0.85674 0.16271 0.39991 0.0
H1781 H 0.8744 0.19846 0.48308 0.0
H1782 H 0.89592 0.17809 0.46445 0.0
H1783 H 0.83187 0.16522 0.44213 0.0
H1784 H 0.81007 0.18552 0.46077 0.0
H1785 H 0.87064 0.17969 0.42479 0.0
H1786 H 0.85119 0.12227 0.46113 0.0
H1787 H 0.85002 0.10868 0.48576 0.0
H1788 H 0.92463 0.11056 0.48767 0.0
H1789 H 0.92623 0.12459 0.4631 0.0
C1790 C 0.91758 0.09245 0.38888 0.0
C1791 C 0.94023 0.08423 0.39185 0.0
C1792 C 0.90552 0.10663 0.39854 0.0
C1793 C 0.91602 0.11347 0.41124 0.0
C1794 C 0.9386 0.10533 0.41423 0.0
C1795 C 0.9505 0.09077 0.40471 0.0
C1796 C 0.90334 0.12864 0.42155 0.0
C1797 C 0.90218 0.12088 0.43558 0.0
C1798 C 0.89198 0.15024 0.41763 0.0
C1799 C 0.89397 0.16048 0.40329 0.0
C1800 C 0.91594 0.16497 0.39735 0.0
C1801 C 0.9177 0.17445 0.38381 0.0
C1802 C 0.89761 0.17967 0.37613 0.0
C1803 C 0.87571 0.1755 0.382 0.0
C1804 C 0.87385 0.166 0.39554 0.0
C1805 C 0.86488 0.19161 0.47412 0.0
C1806 C 0.8405 0.19341 0.47345 0.0
C1807 C 0.87722 0.17995 0.46351 0.0
C1808 C 0.86541 0.16998 0.45203 0.0
C1809 C 0.84123 0.1728 0.45094 0.0
C1810 C 0.82883 0.18432 0.46162 0.0
C1811 C 0.87812 0.15522 0.44168 0.0
C1812 C 0.87919 0.16303 0.42771 0.0
C1813 C 0.88972 0.13389 0.44568 0.0
C1814 C 0.88882 0.12468 0.46031 0.0
C1815 C 0.86735 0.11991 0.46682 0.0
C1816 C 0.86661 0.11213 0.48077 0.0
C1817 C 0.88724 0.10881 0.48828 0.0
C1818 C 0.90866 0.11316 0.48184 0.0
C1819 C 0.9095 0.12101 0.4679 0.0
H1820 H 0.88662 0.10283 0.49909 0.0
H1821 H 0.89901 0.187 0.36564 0.0
H1822 H 0.94617 0.43463 0.6628 0.0
H1823 H 0.92366 0.4119 0.67992 0.0
H1824 H 0.87995 0.38451 0.64677 0.0
H1825 H 0.90239 0.40767 0.6295 0.0
H1826 H 0.85436 0.39679 0.669 0.0
H1827 H 0.92166 0.34887 0.66163 0.0
H1828 H 0.9635 0.33995 0.6593 0.0
H1829 H 0.97472 0.36138 0.70206 0.0
H1830 H 0.93298 0.37078 0.70459 0.0
H1831 H 0.80803 0.30847 0.71699 0.0
H1832 H 0.82739 0.32702 0.69679 0.0
H1833 H 0.87093 0.368 0.72479 0.0
H1834 H 0.85166 0.34976 0.745 0.0
H1835 H 0.89541 0.34442 0.70316 0.0
H1836 H 0.82749 0.39511 0.70923 0.0
H1837 H 0.78536 0.4029 0.71103 0.0
H1838 H 0.77509 0.37371 0.66978 0.0
H1839 H 0.81716 0.36542 0.66782 0.0
C1840 C 0.93188 0.42362 0.65913 0.0
C1841 C 0.92621 0.42266 0.6448 0.0
C1842 C 0.91902 0.41063 0.66892 0.0
C1843 C 0.90042 0.3961 0.66459 0.0
C1844 C 0.89432 0.39551 0.65032 0.0
C1845 C 0.90712 0.40872 0.64048 0.0
C1846 C 0.88742 0.38175 0.67511 0.0
C1847 C 0.86327 0.38498 0.6763 0.0
C1848 C 0.89906 0.36645 0.6847 0.0
C1849 C 0.92419 0.36069 0.68326 0.0
C1850 C 0.93307 0.35184 0.67051 0.0
C1851 C 0.95677 0.34668 0.66916 0.0
C1852 C 0.97177 0.35014 0.68052 0.0
C1853 C 0.96308 0.35872 0.69327 0.0
C1854 C 0.9394 0.36394 0.69467 0.0
C1855 C 0.82168 0.32148 0.71884 0.0
C1856 C 0.8283 0.32768 0.73258 0.0
C1857 C 0.83266 0.33208 0.7073 0.0
C1858 C 0.85051 0.3489 0.70933 0.0
C1859 C 0.8572 0.35503 0.72303 0.0
C1860 C 0.84609 0.34466 0.73455 0.0
C1861 C 0.86255 0.35999 0.69724 0.0
C1862 C 0.88651 0.35603 0.69574 0.0
C1863 C 0.85068 0.37434 0.68729 0.0
C1864 C 0.82542 0.37938 0.68845 0.0
C1865 C 0.81622 0.39014 0.7006 0.0
C1866 C 0.79236 0.39469 0.70164 0.0
C1867 C 0.77754 0.38873 0.69054 0.0
C1868 C 0.78658 0.37827 0.67837 0.0
C1869 C 0.81043 0.37366 0.67729 0.0
H1870 H 0.75907 0.39228 0.69136 0.0
H1871 H 0.99011 0.34613 0.67945 0.0
H1872 H 0.58235 0.08977 0.38357 0.0
H1873 H 0.60505 0.11223 0.36635 0.0
H1874 H 0.54924 0.10521 0.33633 0.0
H1875 H 0.52725 0.08127 0.35303 0.0
H1876 H 0.58767 0.09698 0.32381 0.0
H1877 H 0.56137 0.15903 0.35522 0.0
H1878 H 0.55615 0.17915 0.37807 0.0
H1879 H 0.63025 0.18349 0.38317 0.0
H1880 H 0.63591 0.16315 0.36041 0.0
H1881 H 0.61674 0.1877 0.27548 0.0
H1882 H 0.59738 0.16773 0.2951 0.0
H1883 H 0.66284 0.16229 0.31698 0.0
H1884 H 0.6825 0.18207 0.29729 0.0
H1885 H 0.62247 0.17659 0.33414 0.0
H1886 H 0.64755 0.11563 0.30153 0.0
H1887 H 0.65121 0.09753 0.27801 0.0
H1888 H 0.57684 0.09281 0.27481 0.0
H1889 H 0.57272 0.11129 0.29822 0.0
C1890 C 0.57498 0.09276 0.37325 0.0
C1891 C 0.55287 0.08371 0.36975 0.0
C1892 C 0.58788 0.10593 0.36347 0.0
C1893 C 0.57874 0.11075 0.35009 0.0
C1894 C 0.55666 0.10182 0.3466 0.0
C1895 C 0.54395 0.08836 0.35626 0.0
C1896 C 0.59227 0.12449 0.33951 0.0
C1897 C 0.59501 0.1145 0.32607 0.0
C1898 C 0.60242 0.14712 0.3425 0.0
C1899 C 0.59906 0.15936 0.35618 0.0
C1900 C 0.57655 0.16412 0.36126 0.0
C1901 C 0.57351 0.17559 0.37419 0.0
C1902 C 0.59285 0.18255 0.38208 0.0
C1903 C 0.61528 0.17807 0.37705 0.0
C1904 C 0.61842 0.1666 0.36413 0.0
C1905 C 0.62701 0.18253 0.28452 0.0
C1906 C 0.65118 0.1863 0.28479 0.0
C1907 C 0.61592 0.17111 0.2957 0.0
C1908 C 0.62875 0.16344 0.3074 0.0
C1909 C 0.65269 0.16811 0.30802 0.0
C1910 C 0.66387 0.1793 0.29675 0.0
C1911 C 0.6173 0.14921 0.31852 0.0
C1912 C 0.6151 0.15903 0.33199 0.0
C1913 C 0.60739 0.12655 0.31555 0.0
C1914 C 0.60983 0.11505 0.30157 0.0
C1915 C 0.63197 0.1109 0.29576 0.0
C1916 C 0.63413 0.10055 0.28246 0.0
C1917 C 0.61427 0.09407 0.27491 0.0
C1918 C 0.59221 0.09786 0.28066 0.0
C1919 C 0.58995 0.10826 0.29396 0.0
H1920 H 0.61597 0.08607 0.2646 0.0
H1921 H 0.59046 0.1915 0.39205 0.0
H1922 H 0.9063 0.08007 0.62851 0.0
H1923 H 0.88436 0.10106 0.61029 0.0
H1924 H 0.90704 0.04883 0.57974 0.0
H1925 H 0.93008 0.02861 0.59768 0.0
H1926 H 0.91036 0.09172 0.56909 0.0
H1927 H 0.85095 0.04874 0.59396 0.0
H1928 H 0.82857 0.03587 0.61472 0.0
H1929 H 0.80835 0.10892 0.62257 0.0
H1930 H 0.83088 0.12228 0.60196 0.0
H1931 H 0.8323 0.12291 0.51503 0.0
H1932 H 0.85128 0.10052 0.53386 0.0
H1933 H 0.83214 0.15578 0.56345 0.0
H1934 H 0.81262 0.17809 0.54471 0.0
H1935 H 0.82663 0.11142 0.57459 0.0
H1936 H 0.88682 0.15389 0.54942 0.0
H1937 H 0.90803 0.16574 0.52801 0.0
H1938 H 0.92591 0.09203 0.52022 0.0
H1939 H 0.90457 0.0797 0.54151 0.0
C1940 C 0.90679 0.07316 0.6179 0.0
C1941 C 0.91992 0.05257 0.6146 0.0
C1942 C 0.894 0.08502 0.60752 0.0
C1943 C 0.89377 0.07633 0.59368 0.0
C1944 C 0.90686 0.05582 0.59036 0.0
C1945 C 0.91982 0.0441 0.60068 0.0
C1946 C 0.88034 0.08886 0.58256 0.0
C1947 C 0.89198 0.09573 0.57024 0.0
C1948 C 0.85645 0.09454 0.58414 0.0
C1949 C 0.84279 0.08654 0.59649 0.0
C1950 C 0.84187 0.06209 0.60017 0.0
C1951 C 0.82914 0.0547 0.6119 0.0
C1952 C 0.81709 0.07157 0.61998 0.0
C1953 C 0.81771 0.09587 0.61631 0.0
C1954 C 0.83044 0.10336 0.6046 0.0
C1955 C 0.83196 0.13025 0.52556 0.0
C1956 C 0.82109 0.15236 0.52837 0.0
C1957 C 0.84289 0.11745 0.5363 0.0
C1958 C 0.84345 0.1267 0.55001 0.0
C1959 C 0.83196 0.14838 0.55294 0.0
C1960 C 0.82088 0.16112 0.54221 0.0
C1961 C 0.85666 0.11415 0.56117 0.0
C1962 C 0.84501 0.10736 0.57349 0.0
C1963 C 0.8805 0.10839 0.55956 0.0
C1964 C 0.89396 0.11586 0.547 0.0
C1965 C 0.89522 0.1402 0.54311 0.0
C1966 C 0.90726 0.147 0.531 0.0
C1967 C 0.91828 0.12964 0.52275 0.0
C1968 C 0.91738 0.10546 0.52663 0.0
C1969 C 0.90534 0.09855 0.53873 0.0
H1970 H 0.92753 0.13494 0.51335 0.0
H1971 H 0.80725 0.06582 0.62906 0.0
H1972 H 0.91096 0.39969 0.88458 0.0
H1973 H 0.88963 0.37501 0.86784 0.0
H1974 H 0.94768 0.37816 0.83917 0.0
H1975 H 0.96837 0.40437 0.85534 0.0
H1976 H 0.91031 0.38404 0.82516 0.0
H1977 H 0.93417 0.32689 0.85991 0.0
H1978 H 0.93838 0.31004 0.88372 0.0
H1979 H 0.86407 0.30645 0.88786 0.0
H1980 H 0.85941 0.32359 0.86414 0.0
H1981 H 0.87492 0.28916 0.78069 0.0
H1982 H 0.89665 0.30963 0.79923 0.0
H1983 H 0.83289 0.32216 0.82193 0.0
H1984 H 0.81091 0.30195 0.80335 0.0
H1985 H 0.87284 0.3073 0.83896 0.0
H1986 H 0.85036 0.36521 0.80356 0.0
H1987 H 0.84766 0.37987 0.77919 0.0
H1988 H 0.92217 0.3799 0.77598 0.0
H1989 H 0.9253 0.36478 0.80026 0.0
C1990 C 0.91912 0.39541 0.87465 0.0
C1991 C 0.94148 0.40405 0.87138 0.0
C1992 C 0.90701 0.38094 0.86516 0.0
C1993 C 0.91718 0.37433 0.85232 0.0
C1994 C 0.93948 0.38289 0.84903 0.0
C1995 C 0.95143 0.39767 0.8584 0.0
C1996 C 0.9044 0.35907 0.84212 0.0
C1997 C 0.90245 0.3671 0.82819 0.0
C1998 C 0.89371 0.33713 0.84605 0.0
C1999 C 0.89645 0.32674 0.8603 0.0
C2000 C 0.91873 0.32267 0.86594 0.0
C2001 C 0.92119 0.31304 0.87941 0.0
C2002 C 0.9015 0.30724 0.88731 0.0
C2003 C 0.8793 0.31098 0.88174 0.0
C2004 C 0.87674 0.32063 0.86827 0.0
C2005 C 0.86554 0.29594 0.78972 0.0
C2006 C 0.84118 0.29411 0.79052 0.0
C2007 C 0.87798 0.30765 0.80027 0.0
C2008 C 0.8663 0.3175 0.81185 0.0
C2009 C 0.84216 0.31464 0.81305 0.0
C2010 C 0.82965 0.30319 0.80241 0.0
C2011 C 0.87906 0.33229 0.82216 0.0
C2012 C 0.88087 0.32422 0.83605 0.0
C2013 C 0.8899 0.35402 0.81817 0.0
C2014 C 0.88805 0.36362 0.80368 0.0
C2015 C 0.86616 0.36816 0.79762 0.0
C2016 C 0.86455 0.37657 0.78383 0.0
C2017 C 0.88473 0.38075 0.77603 0.0
C2018 C 0.90656 0.37661 0.78203 0.0
C2019 C 0.90826 0.36813 0.79581 0.0
H2020 H 0.88345 0.38723 0.76534 0.0
H2021 H 0.90345 0.29978 0.89774 0.0
H2022 H 0.56864 0.47022 0.10244 0.0
H2023 H 0.58835 0.44614 0.08467 0.0
H2024 H 0.61118 0.39647 0.1166 0.0
H2025 H 0.59194 0.42096 0.13459 0.0
H2026 H 0.64576 0.40667 0.09757 0.0
H2027 H 0.56642 0.38154 0.09635 0.0
H2028 H 0.52386 0.38673 0.0952 0.0
H2029 H 0.53021 0.41985 0.05468 0.0
H2030 H 0.57287 0.41517 0.05567 0.0
H2031 H 0.67718 0.31678 0.04719 0.0
H2032 H 0.65969 0.33814 0.067 0.0
H2033 H 0.63247 0.39168 0.03865 0.0
H2034 H 0.64966 0.37038 0.0188 0.0
H2035 H 0.59988 0.37663 0.0571 0.0
H2036 H 0.6796 0.40334 0.05901 0.0
H2037 H 0.72215 0.39809 0.06035 0.0
H2038 H 0.71494 0.36135 0.09974 0.0
H2039 H 0.67229 0.3661 0.09854 0.0
C2040 C 0.57814 0.45438 0.10574 0.0
C2041 C 0.57874 0.4475 0.11993 0.0
C2042 C 0.5892 0.4405 0.09554 0.0
C2043 C 0.60094 0.41935 0.0993 0.0
C2044 C 0.6021 0.41268 0.11349 0.0
C2045 C 0.59098 0.42658 0.12372 0.0
C2046 C 0.61168 0.40416 0.0883 0.0
C2047 C 0.6357 0.39975 0.08883 0.0
C2048 C 0.59855 0.39545 0.07682 0.0
C2049 C 0.57287 0.39818 0.07614 0.0
C2050 C 0.55877 0.3901 0.08724 0.0
C2051 C 0.53462 0.39292 0.08661 0.0
C2052 C 0.52434 0.40366 0.07489 0.0
C2053 C 0.53819 0.41155 0.06376 0.0
C2054 C 0.56236 0.40879 0.06434 0.0
C2055 C 0.66754 0.33315 0.04518 0.0
C2056 C 0.66483 0.3419 0.03142 0.0
C2057 C 0.65763 0.34537 0.05652 0.0
C2058 C 0.64494 0.36659 0.0543 0.0
C2059 C 0.6422 0.37533 0.04059 0.0
C2060 C 0.6521 0.36316 0.02925 0.0
C2061 C 0.63406 0.37952 0.06621 0.0
C2062 C 0.60995 0.38343 0.06587 0.0
C2063 C 0.64711 0.38768 0.07787 0.0
C2064 C 0.67274 0.38484 0.07861 0.0
C2065 C 0.68707 0.39396 0.0679 0.0
C2066 C 0.71121 0.39111 0.06864 0.0
C2067 C 0.72124 0.37933 0.0801 0.0
C2068 C 0.70715 0.37043 0.09086 0.0
C2069 C 0.683 0.37322 0.09016 0.0
H2070 H 0.73993 0.37715 0.08066 0.0
H2071 H 0.50564 0.40583 0.07442 0.0
loop_
_geom_bond_atom_site_label_1
_geom_bond_atom_site_label_2
_geom_bond_distance
_geom_bond_site_symmetry_2
_ccdc_geom_bond_type
C0 C1 1.384 . S
C0 C2 1.384 . S
C0 H28 0.931 . S
C1 C0 1.384 . S
C1 C4 1.382 . S
C2 C0 1.384 . S
C2 C3 1.381 . S
C2 H29 0.930 . S
C3 C2 1.381 . S
C3 C5 1.381 . S
C3 C6 1.487 . S
C4 C1 1.382 . S
C4 C5 1.387 . S
C4 H30 0.930 . S
C5 C3 1.381 . S
C5 C4 1.387 . S
C5 H31 0.931 1_565 S
C6 C3 1.487 . S
C6 C13 1.399 . S
C6 N44 1.343 1_565 S
C7 C8 1.384 . S
C7 C9 1.384 . S
C7 H32 0.931 . S
C8 C7 1.384 . S
C8 C11 1.382 . S
C9 C7 1.384 . S
C9 C10 1.381 . S
C9 H33 0.930 . S
C10 C9 1.381 . S
C10 C12 1.381 . S
C10 C13 1.487 . S
C11 C8 1.382 . S
C11 C12 1.387 . S
C11 H34 0.930 . S
C12 C10 1.381 . S
C12 C11 1.387 . S
C12 H35 0.931 . S
C13 C6 1.399 . S
C13 C10 1.487 . S
C13 N45 1.343 1_455 S
C14 C15 1.384 . S
C14 C16 1.384 . S
C14 H36 0.931 . S
C15 C14 1.384 . S
C15 C18 1.382 . S
C16 C14 1.384 . S
C16 C17 1.381 . S
C16 H37 0.930 . S
C17 C16 1.381 . S
C17 C19 1.381 . S
C17 C20 1.487 . S
C18 C15 1.382 . S
C18 C19 1.387 . S
C18 H38 0.930 . S
C19 C17 1.381 . S
C19 C18 1.387 . S
C19 H39 0.931 1_545 S
C20 C17 1.487 . S
C20 C27 1.399 . S
C20 N45 1.343 1_545 S
C21 C22 1.384 . S
C21 C23 1.384 . S
C21 H40 0.931 . S
C22 C21 1.384 . S
C22 C25 1.382 . S
C23 C21 1.384 . S
C23 C24 1.381 . S
C23 H41 0.930 . S
C24 C23 1.381 . S
C24 C26 1.381 . S
C24 C27 1.487 . S
C25 C22 1.382 . S
C25 C26 1.387 . S
C25 H42 0.930 . S
C26 C24 1.381 . S
C26 C25 1.387 . S
C26 H43 0.931 . S
C27 C20 1.399 . S
C27 C24 1.487 . S
C27 N44 1.343 1_655 S
H28 C0 0.931 . S
H29 C2 0.930 . S
H30 C4 0.930 . S
H31 C5 0.931 1_545 S
H32 C7 0.931 . S
H33 C9 0.930 . S
H34 C11 0.930 . S
H35 C12 0.931 . S
H36 C14 0.931 . S
H37 C16 0.930 . S
H38 C18 0.930 . S
H39 C19 0.931 1_565 S
H40 C21 0.931 . S
H41 C23 0.930 . S
H42 C25 0.930 . S
H43 C26 0.931 . S
N44 C6 1.343 1_545 S
N44 C27 1.343 1_455 S
N45 C13 1.343 1_655 S
N45 C20 1.343 1_565 S
C46 C47 1.384 . S
C46 C48 1.384 . S
C46 H74 0.931 . S
C47 C46 1.384 . S
C47 C50 1.382 . S
C48 C46 1.384 . S
C48 C49 1.381 . S
C48 H75 0.930 . S
C49 C48 1.381 . S
C49 C51 1.381 . S
C49 C52 1.487 . S
C50 C47 1.382 . S
C50 C51 1.387 . S
C50 H76 0.930 . S
C51 C49 1.381 . S
C51 C50 1.387 . S
C51 H77 0.931 1_655 S
C52 C49 1.487 . S
C52 C59 1.399 . S
C52 N90 1.343 1_655 S
C53 C54 1.384 . S
C53 C55 1.384 . S
C53 H78 0.931 . S
C54 C53 1.384 . S
C54 C57 1.382 . S
C55 C53 1.384 . S
C55 C56 1.381 . S
C55 H79 0.930 . S
C56 C55 1.381 . S
C56 C58 1.381 . S
C56 C59 1.487 . S
C57 C54 1.382 . S
C57 C58 1.387 . S
C57 H80 0.930 . S
C58 C56 1.381 . S
C58 C57 1.387 . S
C58 H81 0.931 . S
C59 C52 1.399 . S
C59 C56 1.487 . S
C59 N91 1.343 . S
C60 C61 1.384 . S
C60 C62 1.384 . S
C60 H82 0.931 . S
C61 C60 1.384 . S
C61 C64 1.382 . S
C62 C60 1.384 . S
C62 C63 1.381 . S
C62 H83 0.930 . S
C63 C62 1.381 . S
C63 C65 1.381 . S
C63 C66 1.487 . S
C64 C61 1.382 . S
C64 C65 1.387 . S
C64 H84 0.930 . S
C65 C63 1.381 . S
C65 C64 1.387 . S
C65 H85 0.931 1_455 S
C66 C63 1.487 . S
C66 C73 1.399 . S
C66 N91 1.343 1_455 S
C67 C68 1.384 . S
C67 C69 1.384 . S
C67 H86 0.931 . S
C68 C67 1.384 . S
C68 C71 1.382 . S
C69 C67 1.384 . S
C69 C70 1.381 . S
C69 H87 0.930 . S
C70 C69 1.381 . S
C70 C72 1.381 . S
C70 C73 1.487 . S
C71 C68 1.382 . S
C71 C72 1.387 . S
C71 H88 0.930 . S
C72 C70 1.381 . S
C72 C71 1.387 . S
C72 H89 0.931 . S
C73 C66 1.399 . S
C73 C70 1.487 . S
C73 N90 1.343 . S
H74 C46 0.931 . S
H75 C48 0.930 . S
H76 C50 0.930 . S
H77 C51 0.931 1_455 S
H78 C53 0.931 . S
H79 C55 0.930 . S
H80 C57 0.930 . S
H81 C58 0.931 . S
H82 C60 0.931 . S
H83 C62 0.930 . S
H84 C64 0.930 . S
H85 C65 0.931 1_655 S
H86 C67 0.931 . S
H87 C69 0.930 . S
H88 C71 0.930 . S
H89 C72 0.931 . S
N90 C52 1.343 1_455 S
N90 C73 1.343 . S
N91 C59 1.343 . S
N91 C66 1.343 1_655 S
C92 C93 1.384 . S
C92 C94 1.384 . S
C92 H120 0.931 . S
C93 C92 1.384 . S
C93 C96 1.382 . S
C94 C92 1.384 . S
C94 C95 1.381 . S
C94 H121 0.930 . S
C95 C94 1.381 . S
C95 C97 1.381 . S
C95 C98 1.487 . S
C96 C93 1.382 . S
C96 C97 1.387 . S
C96 H122 0.930 . S
C97 C95 1.381 . S
C97 C96 1.387 . S
C97 H123 0.931 . S
C98 C95 1.487 . S
C98 C105 1.399 . S
C98 N136 1.343 . S
C99 C100 1.384 . S
C99 C101 1.384 . S
C99 H124 0.931 . S
C100 C99 1.384 . S
C100 C103 1.382 . S
C101 C99 1.384 . S
C101 C102 1.381 . S
C101 H125 0.930 . S
C102 C101 1.381 . S
C102 C104 1.381 . S
C102 C105 1.487 . S
C103 C100 1.382 . S
C103 C104 1.387 . S
C103 H126 0.930 . S
C104 C102 1.381 . S
C104 C103 1.387 . S
C104 H127 0.931 . S
C105 C98 1.399 . S
C105 C102 1.487 . S
C105 N137 1.343 . S
C106 C107 1.384 . S
C106 C108 1.384 . S
C106 H128 0.931 . S
C107 C106 1.384 . S
C107 C110 1.382 . S
C108 C106 1.384 . S
C108 C109 1.381 . S
C108 H129 0.930 . S
C109 C108 1.381 . S
C109 C111 1.381 . S
C109 C112 1.487 . S
C110 C107 1.382 . S
C110 C111 1.387 . S
C110 H130 0.930 . S
C111 C109 1.381 . S
C111 C110 1.387 . S
C111 H131 0.931 . S
C112 C109 1.487 . S
C112 C119 1.399 . S
C112 N137 1.343 . S
C113 C114 1.384 . S
C113 C115 1.384 . S
C113 H132 0.931 . S
C114 C113 1.384 . S
C114 C117 1.382 . S
C115 C113 1.384 . S
C115 C116 1.381 . S
C115 H133 0.930 . S
C116 C115 1.381 . S
C116 C118 1.381 . S
C116 C119 1.487 . S
C117 C114 1.382 . S
C117 C118 1.387 . S
C117 H134 0.930 . S
C118 C116 1.381 . S
C118 C117 1.387 . S
C118 H135 0.931 . S
C119 C112 1.399 . S
C119 C116 1.487 . S
C119 N136 1.343 . S
H120 C92 0.931 . S
H121 C94 0.930 . S
H122 C96 0.930 . S
H123 C97 0.931 . S
H124 C99 0.931 . S
H125 C101 0.930 . S
H126 C103 0.930 . S
H127 C104 0.931 . S
H128 C106 0.931 . S
H129 C108 0.930 . S
H130 C110 0.930 . S
H131 C111 0.931 . S
H132 C113 0.931 . S
H133 C115 0.930 . S
H134 C117 0.930 . S
H135 C118 0.931 . S
N136 C98 1.343 . S
N136 C119 1.343 . S
N137 C105 1.343 . S
N137 C112 1.343 . S
C138 C139 1.384 . S
C138 C140 1.384 . S
C138 H166 0.931 . S
C139 C138 1.384 . S
C139 C142 1.382 . S
C140 C138 1.384 . S
C140 C141 1.381 . S
C140 H167 0.930 . S
C141 C140 1.381 . S
C141 C143 1.381 . S
C141 C144 1.487 . S
C142 C139 1.382 . S
C142 C143 1.387 . S
C142 H168 0.930 . S
C143 C141 1.381 . S
C143 C142 1.387 . S
C143 H169 0.931 . S
C144 C141 1.487 . S
C144 C151 1.399 . S
C144 N182 1.343 1_565 S
C145 C146 1.384 . S
C145 C147 1.384 . S
C145 H170 0.931 . S
C146 C145 1.384 . S
C146 C149 1.382 . S
C147 C145 1.384 . S
C147 C148 1.381 . S
C147 H171 0.930 . S
C148 C147 1.381 . S
C148 C150 1.381 . S
C148 C151 1.487 . S
C149 C146 1.382 . S
C149 C150 1.387 . S
C149 H172 0.930 . S
C150 C148 1.381 . S
C150 C149 1.387 . S
C150 H173 0.931 . S
C151 C144 1.399 . S
C151 C148 1.487 . S
C151 N183 1.343 . S
C152 C153 1.384 . S
C152 C154 1.384 . S
C152 H174 0.931 . S
C153 C152 1.384 . S
C153 C156 1.382 . S
C154 C152 1.384 . S
C154 C155 1.381 . S
C154 H175 0.930 . S
C155 C154 1.381 . S
C155 C157 1.381 . S
C155 C158 1.487 . S
C156 C153 1.382 . S
C156 C157 1.387 . S
C156 H176 0.930 . S
C157 C155 1.381 . S
C157 C156 1.387 . S
C157 H177 0.931 . S
C158 C155 1.487 . S
C158 C165 1.399 . S
C158 N183 1.343 1_545 S
C159 C160 1.384 . S
C159 C161 1.384 . S
C159 H178 0.931 . S
C160 C159 1.384 . S
C160 C163 1.382 . S
C161 C159 1.384 . S
C161 C162 1.381 . S
C161 H179 0.930 . S
C162 C161 1.381 . S
C162 C164 1.381 . S
C162 C165 1.487 . S
C163 C160 1.382 . S
C163 C164 1.387 . S
C163 H180 0.930 . S
C164 C162 1.381 . S
C164 C163 1.387 . S
C164 H181 0.931 . S
C165 C158 1.399 . S
C165 C162 1.487 . S
C165 N182 1.343 . S
H166 C138 0.931 . S
H167 C140 0.930 . S
H168 C142 0.930 . S
H169 C143 0.931 . S
H170 C145 0.931 . S
H171 C147 0.930 . S
H172 C149 0.930 . S
H173 C150 0.931 . S
H174 C152 0.931 . S
H175 C154 0.930 . S
H176 C156 0.930 . S
H177 C157 0.931 . S
H178 C159 0.931 . S
H179 C161 0.930 . S
H180 C163 0.930 . S
H181 C164 0.931 . S
N182 C144 1.343 1_545 S
N182 C165 1.343 . S
N183 C151 1.343 . S
N183 C158 1.343 1_565 S
C184 C185 1.384 . S
C184 C186 1.384 . S
C184 H212 0.931 . S
C185 C184 1.384 . S
C185 C188 1.382 . S
C186 C184 1.384 . S
C186 C187 1.381 . S
C186 H213 0.930 . S
C187 C186 1.381 . S
C187 C189 1.381 . S
C187 C190 1.487 . S
C188 C185 1.382 . S
C188 C189 1.387 . S
C188 H214 0.930 . S
C189 C187 1.381 . S
C189 C188 1.387 . S
C189 H215 0.931 . S
C190 C187 1.487 . S
C190 C197 1.399 . S
C190 N228 1.343 . S
C191 C192 1.384 . S
C191 C193 1.384 . S
C191 H216 0.931 . S
C192 C191 1.384 . S
C192 C195 1.382 . S
C193 C191 1.384 . S
C193 C194 1.381 . S
C193 H217 0.930 . S
C194 C193 1.381 . S
C194 C196 1.381 . S
C194 C197 1.487 . S
C195 C192 1.382 . S
C195 C196 1.387 . S
C195 H218 0.930 . S
C196 C194 1.381 . S
C196 C195 1.387 . S
C196 H219 0.931 . S
C197 C190 1.399 . S
C197 C194 1.487 . S
C197 N229 1.343 1_455 S
C198 C199 1.384 . S
C198 C200 1.384 . S
C198 H220 0.931 . S
C199 C198 1.384 . S
C199 C202 1.382 . S
C200 C198 1.384 . S
C200 C201 1.381 . S
C200 H221 0.930 . S
C201 C200 1.381 . S
C201 C203 1.381 . S
C201 C204 1.487 . S
C202 C199 1.382 . S
C202 C203 1.387 . S
C202 H222 0.930 . S
C203 C201 1.381 . S
C203 C202 1.387 . S
C203 H223 0.931 . S
C204 C201 1.487 . S
C204 C211 1.399 . S
C204 N229 1.343 . S
C205 C206 1.384 . S
C205 C207 1.384 . S
C205 H224 0.931 . S
C206 C205 1.384 . S
C206 C209 1.382 . S
C207 C205 1.384 . S
C207 C208 1.381 . S
C207 H225 0.930 . S
C208 C207 1.381 . S
C208 C210 1.381 . S
C208 C211 1.487 . S
C209 C206 1.382 . S
C209 C210 1.387 . S
C209 H226 0.930 . S
C210 C208 1.381 . S
C210 C209 1.387 . S
C210 H227 0.931 . S
C211 C204 1.399 . S
C211 C208 1.487 . S
C211 N228 1.343 1_655 S
H212 C184 0.931 . S
H213 C186 0.930 . S
H214 C188 0.930 . S
H215 C189 0.931 . S
H216 C191 0.931 . S
H217 C193 0.930 . S
H218 C195 0.930 . S
H219 C196 0.931 . S
H220 C198 0.931 . S
H221 C200 0.930 . S
H222 C202 0.930 . S
H223 C203 0.931 . S
H224 C205 0.931 . S
H225 C207 0.930 . S
H226 C209 0.930 . S
H227 C210 0.931 . S
N228 C190 1.343 . S
N228 C211 1.343 1_455 S
N229 C197 1.343 1_655 S
N229 C204 1.343 . S
C230 C231 1.384 . S
C230 C232 1.384 . S
C230 H258 0.931 . S
C231 C230 1.384 . S
C231 C234 1.382 . S
C232 C230 1.384 . S
C232 C233 1.381 . S
C232 H259 0.930 . S
C233 C232 1.381 . S
C233 C235 1.381 . S
C233 C236 1.487 . S
C234 C231 1.382 . S
C234 C235 1.387 . S
C234 H260 0.930 . S
C235 C233 1.381 . S
C235 C234 1.387 . S
C235 H261 0.931 . S
C236 C233 1.487 . S
C236 C243 1.399 . S
C236 N274 1.343 . S
C237 C238 1.384 . S
C237 C239 1.384 . S
C237 H262 0.931 . S
C238 C237 1.384 . S
C238 C241 1.382 . S
C239 C237 1.384 . S
C239 C240 1.381 . S
C239 H263 0.930 . S
C240 C239 1.381 . S
C240 C242 1.381 . S
C240 C243 1.487 . S
C241 C238 1.382 . S
C241 C242 1.387 . S
C241 H264 0.930 . S
C242 C240 1.381 . S
C242 C241 1.387 . S
C242 H265 0.931 . S
C243 C236 1.399 . S
C243 C240 1.487 . S
C243 N275 1.343 . S
C244 C245 1.384 . S
C244 C246 1.384 . S
C244 H266 0.931 . S
C245 C244 1.384 . S
C245 C248 1.382 . S
C246 C244 1.384 . S
C246 C247 1.381 . S
C246 H267 0.930 . S
C247 C246 1.381 . S
C247 C249 1.381 . S
C247 C250 1.487 . S
C248 C245 1.382 . S
C248 C249 1.387 . S
C248 H268 0.930 . S
C249 C247 1.381 . S
C249 C248 1.387 . S
C249 H269 0.931 . S
C250 C247 1.487 . S
C250 C257 1.399 . S
C250 N275 1.343 . S
C251 C252 1.384 . S
C251 C253 1.384 . S
C251 H270 0.931 . S
C252 C251 1.384 . S
C252 C255 1.382 . S
C253 C251 1.384 . S
C253 C254 1.381 . S
C253 H271 0.930 . S
C254 C253 1.381 . S
C254 C256 1.381 . S
C254 C257 1.487 . S
C255 C252 1.382 . S
C255 C256 1.387 . S
C255 H272 0.930 . S
C256 C254 1.381 . S
C256 C255 1.387 . S
C256 H273 0.931 . S
C257 C250 1.399 . S
C257 C254 1.487 . S
C257 N274 1.343 . S
H258 C230 0.931 . S
H259 C232 0.930 . S
H260 C234 0.930 . S
H261 C235 0.931 . S
H262 C237 0.931 . S
H263 C239 0.930 . S
H264 C241 0.930 . S
H265 C242 0.931 . S
H266 C244 0.931 . S
H267 C246 0.930 . S
H268 C248 0.930 . S
H269 C249 0.931 . S
H270 C251 0.931 . S
H271 C253 0.930 . S
H272 C255 0.930 . S
H273 C256 0.931 . S
N274 C236 1.343 . S
N274 C257 1.343 . S
N275 C243 1.343 . S
N275 C250 1.343 . S
C276 C277 1.384 . S
C276 C278 1.384 . S
C276 H304 0.931 . S
C277 C276 1.384 . S
C277 C280 1.382 . S
C278 C276 1.384 . S
C278 C279 1.381 . S
C278 H305 0.930 . S
C279 C278 1.381 . S
C279 C281 1.381 . S
C279 C282 1.487 . S
C280 C277 1.382 . S
C280 C281 1.387 . S
C280 H306 0.930 . S
C281 C279 1.381 . S
C281 C280 1.387 . S
C281 H307 0.931 1_565 S
C282 C279 1.487 . S
C282 C289 1.399 . S
C282 N320 1.343 1_565 S
C283 C284 1.384 . S
C283 C285 1.384 . S
C283 H308 0.931 . S
C284 C283 1.384 . S
C284 C287 1.382 . S
C285 C283 1.384 . S
C285 C286 1.381 . S
C285 H309 0.930 . S
C286 C285 1.381 . S
C286 C288 1.381 . S
C286 C289 1.487 . S
C287 C284 1.382 . S
C287 C288 1.387 . S
C287 H310 0.930 . S
C288 C286 1.381 . S
C288 C287 1.387 . S
C288 H311 0.931 . S
C289 C282 1.399 . S
C289 C286 1.487 . S
C289 N321 1.343 . S
C290 C291 1.384 . S
C290 C292 1.384 . S
C290 H312 0.931 . S
C291 C290 1.384 . S
C291 C294 1.382 . S
C292 C290 1.384 . S
C292 C293 1.381 . S
C292 H313 0.930 . S
C293 C292 1.381 . S
C293 C295 1.381 . S
C293 C296 1.487 . S
C294 C291 1.382 . S
C294 C295 1.387 . S
C294 H314 0.930 . S
C295 C293 1.381 . S
C295 C294 1.387 . S
C295 H315 0.931 1_545 S
C296 C293 1.487 . S
C296 C303 1.399 . S
C296 N321 1.343 1_545 S
C297 C298 1.384 . S
C297 C299 1.384 . S
C297 H316 0.931 . S
C298 C297 1.384 . S
C298 C301 1.382 . S
C299 C297 1.384 . S
C299 C300 1.381 . S
C299 H317 0.930 . S
C300 C299 1.381 . S
C300 C302 1.381 . S
C300 C303 1.487 . S
C301 C298 1.382 . S
C301 C302 1.387 . S
C301 H318 0.930 . S
C302 C300 1.381 . S
C302 C301 1.387 . S
C302 H319 0.931 . S
C303 C296 1.399 . S
C303 C300 1.487 . S
C303 N320 1.343 . S
H304 C276 0.931 . S
H305 C278 0.930 . S
H306 C280 0.930 . S
H307 C281 0.931 1_545 S
H308 C283 0.931 . S
H309 C285 0.930 . S
H310 C287 0.930 . S
H311 C288 0.931 . S
H312 C290 0.931 . S
H313 C292 0.930 . S
H314 C294 0.930 . S
H315 C295 0.931 1_565 S
H316 C297 0.931 . S
H317 C299 0.930 . S
H318 C301 0.930 . S
H319 C302 0.931 . S
N320 C282 1.343 1_545 S
N320 C303 1.343 . S
N321 C289 1.343 . S
N321 C296 1.343 1_565 S
C322 C323 1.384 . S
C322 C324 1.384 . S
C322 H350 0.931 . S
C323 C322 1.384 . S
C323 C326 1.382 . S
C324 C322 1.384 . S
C324 C325 1.381 . S
C324 H351 0.930 . S
C325 C324 1.381 . S
C325 C327 1.381 . S
C325 C328 1.487 . S
C326 C323 1.382 . S
C326 C327 1.387 . S
C326 H352 0.930 . S
C327 C325 1.381 . S
C327 C326 1.387 . S
C327 H353 0.931 1_455 S
C328 C325 1.487 . S
C328 C335 1.399 . S
C328 N366 1.343 1_455 S
C329 C330 1.384 . S
C329 C331 1.384 . S
C329 H354 0.931 . S
C330 C329 1.384 . S
C330 C333 1.382 . S
C331 C329 1.384 . S
C331 C332 1.381 . S
C331 H355 0.930 . S
C332 C331 1.381 . S
C332 C334 1.381 . S
C332 C335 1.487 . S
C333 C330 1.382 . S
C333 C334 1.387 . S
C333 H356 0.930 . S
C334 C332 1.381 . S
C334 C333 1.387 . S
C334 H357 0.931 . S
C335 C328 1.399 . S
C335 C332 1.487 . S
C335 N367 1.343 1_565 S
C336 C337 1.384 . S
C336 C338 1.384 . S
C336 H358 0.931 . S
C337 C336 1.384 . S
C337 C340 1.382 . S
C338 C336 1.384 . S
C338 C339 1.381 . S
C338 H359 0.930 . S
C339 C338 1.381 . S
C339 C341 1.381 . S
C339 C342 1.487 . S
C340 C337 1.382 . S
C340 C341 1.387 . S
C340 H360 0.930 . S
C341 C339 1.381 . S
C341 C340 1.387 . S
C341 H361 0.931 1_655 S
C342 C339 1.487 . S
C342 C349 1.399 . S
C342 N367 1.343 1_655 S
C343 C344 1.384 . S
C343 C345 1.384 . S
C343 H362 0.931 . S
C344 C343 1.384 . S
C344 C347 1.382 . S
C345 C343 1.384 . S
C345 C346 1.381 . S
C345 H363 0.930 . S
C346 C345 1.381 . S
C346 C348 1.381 . S
C346 C349 1.487 . S
C347 C344 1.382 . S
C347 C348 1.387 . S
C347 H364 0.930 . S
C348 C346 1.381 . S
C348 C347 1.387 . S
C348 H365 0.931 . S
C349 C342 1.399 . S
C349 C346 1.487 . S
C349 N366 1.343 1_545 S
H350 C322 0.931 . S
H351 C324 0.930 . S
H352 C326 0.930 . S
H353 C327 0.931 1_655 S
H354 C329 0.931 . S
H355 C331 0.930 . S
H356 C333 0.930 . S
H357 C334 0.931 . S
H358 C336 0.931 . S
H359 C338 0.930 . S
H360 C340 0.930 . S
H361 C341 0.931 1_455 S
H362 C343 0.931 . S
H363 C345 0.930 . S
H364 C347 0.930 . S
H365 C348 0.931 . S
N366 C328 1.343 1_655 S
N366 C349 1.343 1_565 S
N367 C335 1.343 1_545 S
N367 C342 1.343 1_455 S
C368 O369 1.160 . S
C368 O375 1.185 . S
O369 C368 1.160 . S
O370 Zn371 1.899 . S
O370 C378 1.284 . S
Zn371 O370 1.899 . S
Zn371 O372 2.032 1_554 S
Zn371 O375 2.086 . S
Zn371 O380 1.977 . S
O372 Zn371 2.032 1_556 S
O372 C376 1.278 . S
C373 O374 1.203 . S
C373 O380 1.267 . S
O374 C373 1.203 . S
O375 C368 1.185 . S
O375 Zn371 2.086 . S
C376 O372 1.278 . S
C376 O377 1.211 . S
O377 C376 1.211 . S
C378 O370 1.284 . S
C378 O379 1.273 . S
O379 C378 1.273 . S
O380 Zn371 1.977 . S
O380 C373 1.267 . S
C381 O382 1.160 . S
C381 O388 1.185 . S
O382 C381 1.160 . S
O383 Zn384 1.899 . S
O383 C391 1.284 . S
Zn384 O383 1.899 . S
Zn384 O385 2.032 . S
Zn384 O388 2.086 . S
Zn384 O393 1.977 . S
O385 Zn384 2.032 . S
O385 C389 1.278 . S
C386 O387 1.203 . S
C386 O393 1.267 . S
O387 C386 1.203 . S
O388 C381 1.185 . S
O388 Zn384 2.086 . S
C389 O385 1.278 . S
C389 O390 1.211 . S
O390 C389 1.211 . S
C391 O383 1.284 . S
C391 O392 1.273 . S
O392 C391 1.273 . S
O393 Zn384 1.977 . S
O393 C386 1.267 . S
C394 O395 1.160 . S
C394 O401 1.185 . S
O395 C394 1.160 . S
O396 Zn397 1.899 . S
O396 C404 1.284 . S
Zn397 O396 1.899 . S
Zn397 O398 2.032 . S
Zn397 O401 2.086 . S
Zn397 O406 1.977 . S
O398 Zn397 2.032 . S
O398 C402 1.278 . S
C399 O400 1.203 . S
C399 O406 1.267 . S
O400 C399 1.203 . S
O401 C394 1.185 . S
O401 Zn397 2.086 . S
C402 O398 1.278 . S
C402 O403 1.211 . S
O403 C402 1.211 . S
C404 O396 1.284 . S
C404 O405 1.273 . S
O405 C404 1.273 . S
O406 Zn397 1.977 . S
O406 C399 1.267 . S
C407 O408 1.160 . S
C407 O414 1.185 . S
O408 C407 1.160 . S
O409 Zn410 1.899 . S
O409 C417 1.284 . S
Zn410 O409 1.899 . S
Zn410 O411 2.032 . S
Zn410 O414 2.086 . S
Zn410 O419 1.977 . S
O411 Zn410 2.032 . S
O411 C415 1.278 . S
C412 O413 1.203 . S
C412 O419 1.267 . S
O413 C412 1.203 . S
O414 C407 1.185 . S
O414 Zn410 2.086 . S
C415 O411 1.278 . S
C415 O416 1.211 . S
O416 C415 1.211 . S
C417 O409 1.284 . S
C417 O418 1.273 . S
O418 C417 1.273 . S
O419 Zn410 1.977 . S
O419 C412 1.267 . S
C420 O421 1.160 . S
C420 O427 1.185 . S
O421 C420 1.160 . S
O422 Zn423 1.899 . S
O422 C430 1.284 . S
Zn423 O422 1.899 . S
Zn423 O424 2.032 . S
Zn423 O427 2.086 . S
Zn423 O432 1.977 . S
O424 Zn423 2.032 . S
O424 C428 1.278 . S
C425 O426 1.203 . S
C425 O432 1.267 . S
O426 C425 1.203 . S
O427 C420 1.185 . S
O427 Zn423 2.086 . S
C428 O424 1.278 . S
C428 O429 1.211 . S
O429 C428 1.211 . S
C430 O422 1.284 . S
C430 O431 1.273 . S
O431 C430 1.273 . S
O432 Zn423 1.977 . S
O432 C425 1.267 . S
C433 O434 1.160 . S
C433 O440 1.185 . S
O434 C433 1.160 . S
O435 Zn436 1.899 . S
O435 C443 1.284 . S
Zn436 O435 1.899 . S
Zn436 O437 2.032 . S
Zn436 O440 2.086 . S
Zn436 O445 1.977 . S
O437 Zn436 2.032 . S
O437 C441 1.278 . S
C438 O439 1.203 . S
C438 O445 1.267 . S
O439 C438 1.203 . S
O440 C433 1.185 . S
O440 Zn436 2.086 . S
C441 O437 1.278 . S
C441 O442 1.211 . S
O442 C441 1.211 . S
C443 O435 1.284 . S
C443 O444 1.273 . S
O444 C443 1.273 . S
O445 Zn436 1.977 . S
O445 C438 1.267 . S
C446 O447 1.160 . S
C446 O453 1.185 . S
O447 C446 1.160 . S
O448 Zn449 1.899 . S
O448 C456 1.284 . S
Zn449 O448 1.899 . S
Zn449 O450 2.032 1_554 S
Zn449 O453 2.086 . S
Zn449 O458 1.977 . S
O450 Zn449 2.032 1_556 S
O450 C454 1.278 . S
C451 O452 1.203 . S
C451 O458 1.267 . S
O452 C451 1.203 . S
O453 C446 1.185 . S
O453 Zn449 2.086 . S
C454 O450 1.278 . S
C454 O455 1.211 . S
O455 C454 1.211 . S
C456 O448 1.284 . S
C456 O457 1.273 . S
O457 C456 1.273 . S
O458 Zn449 1.977 . S
O458 C451 1.267 . S
C459 O460 1.160 . S
C459 O466 1.185 . S
O460 C459 1.160 . S
O461 Zn462 1.899 . S
O461 C469 1.284 . S
Zn462 O461 1.899 . S
Zn462 O463 2.032 . S
Zn462 O466 2.086 . S
Zn462 O471 1.977 . S
O463 Zn462 2.032 . S
O463 C467 1.278 . S
C464 O465 1.203 . S
C464 O471 1.267 . S
O465 C464 1.203 . S
O466 C459 1.185 . S
O466 Zn462 2.086 . S
C467 O463 1.278 . S
C467 O468 1.211 . S
O468 C467 1.211 . S
C469 O461 1.284 . S
C469 O470 1.273 . S
O470 C469 1.273 . S
O471 Zn462 1.977 . S
O471 C464 1.267 . S
H472 C490 0.951 . S
H473 C492 0.951 . S
H474 C494 0.950 . S
H475 C495 0.950 . S
H476 C497 0.950 . S
H477 C500 0.950 . S
H478 C501 0.950 . S
H479 C503 0.950 . S
H480 C504 0.950 . S
H481 C505 0.951 . S
H482 C507 0.951 . S
H483 C509 0.950 . S
H484 C510 0.950 . S
H485 C512 0.950 . S
H486 C515 0.950 . S
H487 C516 0.950 . S
H488 C518 0.950 . S
H489 C519 0.950 . S
C490 H472 0.951 . S
C490 C491 1.366 . S
C490 C492 1.388 . S
C491 C490 1.366 . S
C491 C495 1.385 . S
C492 H473 0.951 . S
C492 C490 1.388 . S
C492 C493 1.366 . S
C493 C492 1.366 . S
C493 C494 1.414 . S
C493 C496 1.499 . S
C494 H474 0.950 . S
C494 C493 1.414 . S
C494 C495 1.374 . S
C495 H475 0.950 . S
C495 C491 1.385 . S
C495 C494 1.374 . S
C496 C493 1.499 . S
C496 C497 1.373 . S
C496 C498 1.389 . S
C497 H476 0.950 . S
C497 C496 1.373 . S
C497 C513 1.377 . S
C498 C496 1.389 . S
C498 C499 1.524 . S
C498 C512 1.377 . S
C499 C498 1.524 . S
C499 C500 1.397 . S
C499 C504 1.363 . S
C500 H477 0.950 . S
C500 C499 1.397 . S
C500 C501 1.334 . S
C501 H478 0.950 . S
C501 C500 1.334 . S
C501 C502 1.287 . S
C502 C501 1.287 . S
C502 C503 1.524 . S
C502 H521 0.913 . S
C503 H479 0.950 . S
C503 C502 1.524 . S
C503 C504 1.415 . S
C504 H480 0.950 . S
C504 C499 1.363 . S
C504 C503 1.415 . S
C505 H481 0.951 . S
C505 C506 1.366 . S
C505 C507 1.388 . S
C506 C505 1.366 . S
C506 C510 1.385 . S
C507 H482 0.951 . S
C507 C505 1.388 . S
C507 C508 1.366 . S
C508 C507 1.366 . S
C508 C509 1.414 . S
C508 C511 1.499 . S
C509 H483 0.950 . S
C509 C508 1.414 . S
C509 C510 1.374 . S
C510 H484 0.950 . S
C510 C506 1.385 . S
C510 C509 1.374 . S
C511 C508 1.499 . S
C511 C512 1.373 . S
C511 C513 1.389 . S
C512 H485 0.950 . S
C512 C498 1.377 . S
C512 C511 1.373 . S
C513 C497 1.377 . S
C513 C511 1.389 . S
C513 C514 1.524 . S
C514 C513 1.524 . S
C514 C515 1.397 . S
C514 C519 1.363 . S
C515 H486 0.950 . S
C515 C514 1.397 . S
C515 C516 1.334 . S
C516 H487 0.950 . S
C516 C515 1.334 . S
C516 C517 1.287 . S
C517 C516 1.287 . S
C517 C518 1.524 . S
C517 H520 0.999 . S
C518 H488 0.950 . S
C518 C517 1.524 . S
C518 C519 1.415 . S
C519 H489 0.950 . S
C519 C514 1.363 . S
C519 C518 1.415 . S
H520 C517 0.999 . S
H521 C502 0.913 . S
H522 C540 0.951 . S
H523 C542 0.951 . S
H524 C544 0.950 . S
H525 C545 0.950 . S
H526 C547 0.950 . S
H527 C550 0.950 . S
H528 C551 0.950 . S
H529 C553 0.950 . S
H530 C554 0.950 . S
H531 C555 0.951 . S
H532 C557 0.951 . S
H533 C559 0.950 . S
H534 C560 0.950 . S
H535 C562 0.950 . S
H536 C565 0.950 . S
H537 C566 0.950 . S
H538 C568 0.950 . S
H539 C569 0.950 . S
C540 H522 0.951 . S
C540 C541 1.366 . S
C540 C542 1.388 . S
C541 C540 1.366 . S
C541 C545 1.385 . S
C542 H523 0.951 . S
C542 C540 1.388 . S
C542 C543 1.366 . S
C543 C542 1.366 . S
C543 C544 1.414 . S
C543 C546 1.499 . S
C544 H524 0.950 . S
C544 C543 1.414 . S
C544 C545 1.374 . S
C545 H525 0.950 . S
C545 C541 1.385 . S
C545 C544 1.374 . S
C546 C543 1.499 . S
C546 C547 1.373 . S
C546 C548 1.389 . S
C547 H526 0.950 . S
C547 C546 1.373 . S
C547 C563 1.377 . S
C548 C546 1.389 . S
C548 C549 1.524 . S
C548 C562 1.377 . S
C549 C548 1.524 . S
C549 C550 1.397 . S
C549 C554 1.363 . S
C550 H527 0.950 . S
C550 C549 1.397 . S
C550 C551 1.334 . S
C551 H528 0.950 . S
C551 C550 1.334 . S
C551 C552 1.287 . S
C552 C551 1.287 . S
C552 C553 1.524 . S
C552 H571 0.913 . S
C553 H529 0.950 . S
C553 C552 1.524 . S
C553 C554 1.415 . S
C554 H530 0.950 . S
C554 C549 1.363 . S
C554 C553 1.415 . S
C555 H531 0.951 . S
C555 C556 1.366 . S
C555 C557 1.388 . S
C556 C555 1.366 . S
C556 C560 1.385 . S
C557 H532 0.951 . S
C557 C555 1.388 . S
C557 C558 1.366 . S
C558 C557 1.366 . S
C558 C559 1.414 . S
C558 C561 1.499 . S
C559 H533 0.950 . S
C559 C558 1.414 . S
C559 C560 1.374 . S
C560 H534 0.950 . S
C560 C556 1.385 . S
C560 C559 1.374 . S
C561 C558 1.499 . S
C561 C562 1.373 . S
C561 C563 1.389 . S
C562 H535 0.950 . S
C562 C548 1.377 . S
C562 C561 1.373 . S
C563 C547 1.377 . S
C563 C561 1.389 . S
C563 C564 1.524 . S
C564 C563 1.524 . S
C564 C565 1.397 . S
C564 C569 1.363 . S
C565 H536 0.950 . S
C565 C564 1.397 . S
C565 C566 1.334 . S
C566 H537 0.950 . S
C566 C565 1.334 . S
C566 C567 1.287 . S
C567 C566 1.287 . S
C567 C568 1.524 . S
C567 H570 0.999 . S
C568 H538 0.950 . S
C568 C567 1.524 . S
C568 C569 1.415 . S
C569 H539 0.950 . S
C569 C564 1.363 . S
C569 C568 1.415 . S
H570 C567 0.999 . S
H571 C552 0.913 . S
H572 C590 0.951 . S
H573 C592 0.951 . S
H574 C594 0.950 . S
H575 C595 0.950 . S
H576 C597 0.950 . S
H577 C600 0.950 . S
H578 C601 0.950 . S
H579 C603 0.950 . S
H580 C604 0.950 . S
H581 C605 0.951 . S
H582 C607 0.951 . S
H583 C609 0.950 . S
H584 C610 0.950 . S
H585 C612 0.950 . S
H586 C615 0.950 . S
H587 C616 0.950 . S
H588 C618 0.950 . S
H589 C619 0.950 . S
C590 H572 0.951 . S
C590 C591 1.366 . S
C590 C592 1.388 . S
C591 C590 1.366 . S
C591 C595 1.385 . S
C592 H573 0.951 . S
C592 C590 1.388 . S
C592 C593 1.366 . S
C593 C592 1.366 . S
C593 C594 1.414 . S
C593 C596 1.499 . S
C594 H574 0.950 . S
C594 C593 1.414 . S
C594 C595 1.374 . S
C595 H575 0.950 . S
C595 C591 1.385 . S
C595 C594 1.374 . S
C596 C593 1.499 . S
C596 C597 1.373 . S
C596 C598 1.389 . S
C597 H576 0.950 . S
C597 C596 1.373 . S
C597 C613 1.377 . S
C598 C596 1.389 . S
C598 C599 1.524 . S
C598 C612 1.377 . S
C599 C598 1.524 . S
C599 C600 1.397 . S
C599 C604 1.363 . S
C600 H577 0.950 . S
C600 C599 1.397 . S
C600 C601 1.334 . S
C601 H578 0.950 . S
C601 C600 1.334 . S
C601 C602 1.287 . S
C602 C601 1.287 . S
C602 C603 1.524 . S
C602 H621 0.913 . S
C603 H579 0.950 . S
C603 C602 1.524 . S
C603 C604 1.415 . S
C604 H580 0.950 . S
C604 C599 1.363 . S
C604 C603 1.415 . S
C605 H581 0.951 . S
C605 C606 1.366 . S
C605 C607 1.388 . S
C606 C605 1.366 . S
C606 C610 1.385 . S
C607 H582 0.951 . S
C607 C605 1.388 . S
C607 C608 1.366 . S
C608 C607 1.366 . S
C608 C609 1.414 . S
C608 C611 1.499 . S
C609 H583 0.950 . S
C609 C608 1.414 . S
C609 C610 1.374 . S
C610 H584 0.950 . S
C610 C606 1.385 . S
C610 C609 1.374 . S
C611 C608 1.499 . S
C611 C612 1.373 . S
C611 C613 1.389 . S
C612 H585 0.950 . S
C612 C598 1.377 . S
C612 C611 1.373 . S
C613 C597 1.377 . S
C613 C611 1.389 . S
C613 C614 1.524 . S
C614 C613 1.524 . S
C614 C615 1.397 . S
C614 C619 1.363 . S
C615 H586 0.950 . S
C615 C614 1.397 . S
C615 C616 1.334 . S
C616 H587 0.950 . S
C616 C615 1.334 . S
C616 C617 1.287 . S
C617 C616 1.287 . S
C617 C618 1.524 . S
C617 H620 0.999 . S
C618 H588 0.950 . S
C618 C617 1.524 . S
C618 C619 1.415 . S
C619 H589 0.950 . S
C619 C614 1.363 . S
C619 C618 1.415 . S
H620 C617 0.999 . S
H621 C602 0.913 . S
H622 C640 0.951 . S
H623 C642 0.951 . S
H624 C644 0.950 . S
H625 C645 0.950 . S
H626 C647 0.950 . S
H627 C650 0.950 . S
H628 C651 0.950 . S
H629 C653 0.950 . S
H630 C654 0.950 . S
H631 C655 0.951 . S
H632 C657 0.951 . S
H633 C659 0.950 . S
H634 C660 0.897 1_556 S
H635 C662 0.950 . S
H636 C665 0.950 . S
H637 C666 0.950 . S
H638 C668 0.950 . S
H639 C669 0.950 . S
C640 H622 0.951 . S
C640 C641 1.366 . S
C640 C642 1.388 . S
C641 C640 1.366 . S
C641 C645 1.385 . S
C642 H623 0.951 . S
C642 C640 1.388 . S
C642 C643 1.366 . S
C643 C642 1.366 . S
C643 C644 1.414 . S
C643 C646 1.499 . S
C644 H624 0.950 . S
C644 C643 1.414 . S
C644 C645 1.374 . S
C645 H625 0.950 . S
C645 C641 1.385 . S
C645 C644 1.374 . S
C646 C643 1.499 . S
C646 C647 1.373 . S
C646 C648 1.389 . S
C647 H626 0.950 . S
C647 C646 1.373 . S
C647 C663 1.377 . S
C648 C646 1.389 . S
C648 C649 1.524 . S
C648 C662 1.377 . S
C649 C648 1.524 . S
C649 C650 1.397 . S
C649 C654 1.363 . S
C650 H627 0.950 . S
C650 C649 1.397 . S
C650 C651 1.334 . S
C651 H628 0.950 . S
C651 C650 1.334 . S
C651 C652 1.287 . S
C652 C651 1.287 . S
C652 C653 1.524 . S
C652 H671 0.913 . S
C653 H629 0.950 . S
C653 C652 1.524 . S
C653 C654 1.415 . S
C654 H630 0.950 . S
C654 C649 1.363 . S
C654 C653 1.415 . S
C655 H631 0.951 . S
C655 C656 1.366 . S
C655 C657 1.388 . S
C656 C655 1.366 . S
C656 C660 1.385 . S
C657 H632 0.951 . S
C657 C655 1.388 . S
C657 C658 1.366 . S
C658 C657 1.366 . S
C658 C659 1.414 . S
C658 C661 1.499 . S
C659 H633 0.950 . S
C659 C658 1.414 . S
C659 C660 1.374 . S
C660 H634 0.897 1_554 S
C660 C656 1.385 . S
C660 C659 1.374 . S
C661 C658 1.499 . S
C661 C662 1.373 . S
C661 C663 1.389 . S
C662 H635 0.950 . S
C662 C648 1.377 . S
C662 C661 1.373 . S
C663 C647 1.377 . S
C663 C661 1.389 . S
C663 C664 1.524 . S
C664 C663 1.524 . S
C664 C665 1.397 . S
C664 C669 1.363 . S
C665 H636 0.950 . S
C665 C664 1.397 . S
C665 C666 1.334 . S
C666 H637 0.950 . S
C666 C665 1.334 . S
C666 C667 1.287 . S
C667 C666 1.287 . S
C667 C668 1.524 . S
C667 H670 0.999 . S
C668 H638 0.950 . S
C668 C667 1.524 . S
C668 C669 1.415 . S
C669 H639 0.950 . S
C669 C664 1.363 . S
C669 C668 1.415 . S
H670 C667 0.999 . S
H671 C652 0.913 . S
H672 C690 0.951 . S
H673 C692 0.951 . S
H674 C694 0.950 . S
H675 C695 0.950 . S
H676 C697 0.950 . S
H677 C700 0.950 . S
H678 C701 0.950 . S
H679 C703 0.950 . S
H680 C704 0.950 . S
H681 C705 0.950 . S
H682 C707 0.951 . S
H683 C709 0.950 . S
H684 C710 0.950 . S
H685 C712 0.950 . S
H686 C715 0.950 . S
H687 C716 0.950 . S
H688 C718 0.950 . S
H689 C719 0.950 . S
C690 H672 0.951 . S
C690 C691 1.366 . S
C690 C692 1.388 . S
C691 C690 1.366 . S
C691 C695 1.385 . S
C692 H673 0.951 . S
C692 C690 1.388 . S
C692 C693 1.366 . S
C693 C692 1.366 . S
C693 C694 1.414 . S
C693 C696 1.499 . S
C694 H674 0.950 . S
C694 C693 1.414 . S
C694 C695 1.374 . S
C695 H675 0.950 . S
C695 C691 1.385 . S
C695 C694 1.374 . S
C696 C693 1.499 . S
C696 C697 1.373 . S
C696 C698 1.389 . S
C697 H676 0.950 . S
C697 C696 1.373 . S
C697 C713 1.377 . S
C698 C696 1.389 . S
C698 C699 1.524 . S
C698 C712 1.377 . S
C699 C698 1.524 . S
C699 C700 1.397 . S
C699 C704 1.363 . S
C700 H677 0.950 . S
C700 C699 1.397 . S
C700 C701 1.334 . S
C701 H678 0.950 . S
C701 C700 1.334 . S
C701 C702 1.287 . S
C702 C701 1.287 . S
C702 C703 1.524 . S
C702 H721 0.913 . S
C703 H679 0.950 . S
C703 C702 1.524 . S
C703 C704 1.415 . S
C704 H680 0.950 . S
C704 C699 1.363 . S
C704 C703 1.415 . S
C705 H681 0.950 . S
C705 C706 1.366 . S
C705 C707 1.388 . S
C706 C705 1.366 . S
C706 C710 1.385 . S
C707 H682 0.951 . S
C707 C705 1.388 . S
C707 C708 1.366 . S
C708 C707 1.366 . S
C708 C709 1.414 . S
C708 C711 1.499 . S
C709 H683 0.950 . S
C709 C708 1.414 . S
C709 C710 1.374 . S
C710 H684 0.950 . S
C710 C706 1.385 . S
C710 C709 1.374 . S
C711 C708 1.499 . S
C711 C712 1.373 . S
C711 C713 1.389 . S
C712 H685 0.950 . S
C712 C698 1.377 . S
C712 C711 1.373 . S
C713 C697 1.377 . S
C713 C711 1.389 . S
C713 C714 1.524 1_556 S
C714 C713 1.524 1_554 S
C714 C715 1.397 . S
C714 C719 1.363 . S
C715 H686 0.950 . S
C715 C714 1.397 . S
C715 C716 1.334 . S
C716 H687 0.950 . S
C716 C715 1.334 . S
C716 C717 1.287 . S
C717 C716 1.287 . S
C717 C718 1.524 . S
C717 H720 0.999 . S
C718 H688 0.950 . S
C718 C717 1.524 . S
C718 C719 1.415 . S
C719 H689 0.950 . S
C719 C714 1.363 . S
C719 C718 1.415 . S
H720 C717 0.999 . S
H721 C702 0.913 . S
H722 C740 0.951 . S
H723 C742 0.951 . S
H724 C744 0.950 . S
H725 C745 0.950 . S
H726 C747 0.950 . S
H727 C750 0.950 . S
H728 C751 0.950 . S
H729 C753 0.950 . S
H730 C754 0.950 . S
H731 C755 0.951 . S
H732 C757 0.951 . S
H733 C759 0.950 . S
H734 C760 0.950 . S
H735 C762 0.950 . S
H736 C765 0.950 . S
H737 C766 0.950 . S
H738 C768 0.950 . S
H739 C769 0.950 . S
C740 H722 0.951 . S
C740 C741 1.366 . S
C740 C742 1.388 . S
C741 C740 1.366 . S
C741 C745 1.385 . S
C742 H723 0.951 . S
C742 C740 1.388 . S
C742 C743 1.366 . S
C743 C742 1.366 . S
C743 C744 1.414 . S
C743 C746 1.499 . S
C744 H724 0.950 . S
C744 C743 1.414 . S
C744 C745 1.374 . S
C745 H725 0.950 . S
C745 C741 1.385 . S
C745 C744 1.374 . S
C746 C743 1.499 . S
C746 C747 1.373 . S
C746 C748 1.389 . S
C747 H726 0.950 . S
C747 C746 1.373 . S
C747 C763 1.377 . S
C748 C746 1.389 . S
C748 C749 1.524 . S
C748 C762 1.377 . S
C749 C748 1.524 . S
C749 C750 1.397 . S
C749 C754 1.363 . S
C750 H727 0.950 . S
C750 C749 1.397 . S
C750 C751 1.334 . S
C751 H728 0.950 . S
C751 C750 1.334 . S
C751 C752 1.287 . S
C752 C751 1.287 . S
C752 C753 1.524 . S
C752 H771 0.913 . S
C753 H729 0.950 . S
C753 C752 1.524 . S
C753 C754 1.415 . S
C754 H730 0.950 . S
C754 C749 1.363 . S
C754 C753 1.415 . S
C755 H731 0.951 . S
C755 C756 1.366 . S
C755 C757 1.388 . S
C756 C755 1.366 . S
C756 C760 1.385 . S
C757 H732 0.951 . S
C757 C755 1.388 . S
C757 C758 1.366 . S
C758 C757 1.366 . S
C758 C759 1.414 . S
C758 C761 1.499 . S
C759 H733 0.950 . S
C759 C758 1.414 . S
C759 C760 1.374 . S
C760 H734 0.950 . S
C760 C756 1.385 . S
C760 C759 1.374 . S
C761 C758 1.499 . S
C761 C762 1.373 . S
C761 C763 1.389 . S
C762 H735 0.950 . S
C762 C748 1.377 . S
C762 C761 1.373 . S
C763 C747 1.377 . S
C763 C761 1.389 . S
C763 C764 1.524 . S
C764 C763 1.524 . S
C764 C765 1.397 . S
C764 C769 1.363 . S
C765 H736 0.950 . S
C765 C764 1.397 . S
C765 C766 1.334 . S
C766 H737 0.950 . S
C766 C765 1.334 . S
C766 C767 1.287 . S
C767 C766 1.287 . S
C767 C768 1.524 . S
C767 H770 0.999 . S
C768 H738 0.950 . S
C768 C767 1.524 . S
C768 C769 1.415 . S
C769 H739 0.950 . S
C769 C764 1.363 . S
C769 C768 1.415 . S
H770 C767 0.999 . S
H771 C752 0.913 . S
H772 C790 0.951 . S
H773 C792 0.951 . S
H774 C794 0.950 . S
H775 C795 0.950 . S
H776 C797 0.950 . S
H777 C800 0.950 . S
H778 C801 0.950 . S
H779 C803 0.950 . S
H780 C804 0.950 . S
H781 C805 0.951 . S
H782 C807 0.951 . S
H783 C809 0.950 . S
H784 C810 0.950 . S
H785 C812 0.950 . S
H786 C815 0.950 . S
H787 C816 0.950 . S
H788 C818 0.950 . S
H789 C819 0.950 . S
C790 H772 0.951 . S
C790 C791 1.366 . S
C790 C792 1.388 . S
C791 C790 1.366 . S
C791 C795 1.385 . S
C792 H773 0.951 . S
C792 C790 1.388 . S
C792 C793 1.366 . S
C793 C792 1.366 . S
C793 C794 1.414 . S
C793 C796 1.499 . S
C794 H774 0.950 . S
C794 C793 1.414 . S
C794 C795 1.374 . S
C795 H775 0.950 . S
C795 C791 1.385 . S
C795 C794 1.374 . S
C796 C793 1.499 . S
C796 C797 1.373 . S
C796 C798 1.389 . S
C797 H776 0.950 . S
C797 C796 1.373 . S
C797 C813 1.377 . S
C798 C796 1.389 . S
C798 C799 1.524 . S
C798 C812 1.377 . S
C799 C798 1.524 . S
C799 C800 1.397 . S
C799 C804 1.363 . S
C800 H777 0.950 . S
C800 C799 1.397 . S
C800 C801 1.334 . S
C801 H778 0.950 . S
C801 C800 1.334 . S
C801 C802 1.287 . S
C802 C801 1.287 . S
C802 C803 1.524 . S
C802 H821 0.913 . S
C803 H779 0.950 . S
C803 C802 1.524 . S
C803 C804 1.415 . S
C804 H780 0.950 . S
C804 C799 1.363 . S
C804 C803 1.415 . S
C805 H781 0.951 . S
C805 C806 1.366 . S
C805 C807 1.388 . S
C806 C805 1.366 . S
C806 C810 1.385 . S
C807 H782 0.951 . S
C807 C805 1.388 . S
C807 C808 1.366 . S
C808 C807 1.366 . S
C808 C809 1.414 . S
C808 C811 1.499 . S
C809 H783 0.950 . S
C809 C808 1.414 . S
C809 C810 1.374 . S
C810 H784 0.950 . S
C810 C806 1.385 . S
C810 C809 1.374 . S
C811 C808 1.499 . S
C811 C812 1.373 . S
C811 C813 1.389 . S
C812 H785 0.950 . S
C812 C798 1.377 . S
C812 C811 1.373 . S
C813 C797 1.377 . S
C813 C811 1.389 . S
C813 C814 1.524 . S
C814 C813 1.524 . S
C814 C815 1.397 . S
C814 C819 1.363 . S
C815 H786 0.950 . S
C815 C814 1.397 . S
C815 C816 1.334 . S
C816 H787 0.950 . S
C816 C815 1.334 . S
C816 C817 1.287 . S
C817 C816 1.287 . S
C817 C818 1.524 . S
C817 H820 0.999 . S
C818 H788 0.950 . S
C818 C817 1.524 . S
C818 C819 1.415 . S
C819 H789 0.950 . S
C819 C814 1.363 . S
C819 C818 1.415 . S
H820 C817 0.999 . S
H821 C802 0.913 . S
H822 C840 0.951 . S
H823 C842 0.951 . S
H824 C844 0.950 . S
H825 C845 0.950 . S
H826 C847 0.950 . S
H827 C850 0.950 . S
H828 C851 0.950 . S
H829 C853 0.950 . S
H830 C854 0.950 . S
H831 C855 0.951 . S
H832 C857 0.951 . S
H833 C859 0.950 . S
H834 C860 0.950 . S
H835 C862 0.950 . S
H836 C865 0.950 . S
H837 C866 0.950 . S
H838 C868 0.950 . S
H839 C869 0.950 . S
C840 H822 0.951 . S
C840 C841 1.366 . S
C840 C842 1.388 . S
C841 C840 1.366 . S
C841 C845 1.385 . S
C842 H823 0.951 . S
C842 C840 1.388 . S
C842 C843 1.366 . S
C843 C842 1.366 . S
C843 C844 1.414 . S
C843 C846 1.499 . S
C844 H824 0.950 . S
C844 C843 1.414 . S
C844 C845 1.374 . S
C845 H825 0.950 . S
C845 C841 1.385 . S
C845 C844 1.374 . S
C846 C843 1.499 . S
C846 C847 1.373 . S
C846 C848 1.389 . S
C847 H826 0.950 . S
C847 C846 1.373 . S
C847 C863 1.377 . S
C848 C846 1.389 . S
C848 C849 1.524 . S
C848 C862 1.377 . S
C849 C848 1.524 . S
C849 C850 1.397 . S
C849 C854 1.363 . S
C850 H827 0.950 . S
C850 C849 1.397 . S
C850 C851 1.334 . S
C851 H828 0.950 . S
C851 C850 1.334 . S
C851 C852 1.287 . S
C852 C851 1.287 . S
C852 C853 1.524 . S
C852 H871 0.913 . S
C853 H829 0.950 . S
C853 C852 1.524 . S
C853 C854 1.415 . S
C854 H830 0.950 . S
C854 C849 1.363 . S
C854 C853 1.415 . S
C855 H831 0.951 . S
C855 C856 1.366 . S
C855 C857 1.388 . S
C856 C855 1.366 . S
C856 C860 1.385 . S
C857 H832 0.951 . S
C857 C855 1.388 . S
C857 C858 1.366 . S
C858 C857 1.366 . S
C858 C859 1.414 . S
C858 C861 1.499 . S
C859 H833 0.950 . S
C859 C858 1.414 . S
C859 C860 1.374 . S
C860 H834 0.950 . S
C860 C856 1.385 . S
C860 C859 1.374 . S
C861 C858 1.499 . S
C861 C862 1.373 . S
C861 C863 1.389 . S
C862 H835 0.950 . S
C862 C848 1.377 . S
C862 C861 1.373 . S
C863 C847 1.377 . S
C863 C861 1.389 . S
C863 C864 1.524 . S
C864 C863 1.524 . S
C864 C865 1.397 . S
C864 C869 1.363 . S
C865 H836 0.950 . S
C865 C864 1.397 . S
C865 C866 1.334 . S
C866 H837 0.950 . S
C866 C865 1.334 . S
C866 C867 1.287 . S
C867 C866 1.287 . S
C867 C868 1.524 . S
C867 H870 0.999 . S
C868 H838 0.950 . S
C868 C867 1.524 . S
C868 C869 1.415 . S
C869 H839 0.950 . S
C869 C864 1.363 . S
C869 C868 1.415 . S
H870 C867 0.999 . S
H871 C852 0.913 . S
H872 C890 0.951 . S
H873 C892 0.951 . S
H874 C894 0.950 . S
H875 C895 0.950 . S
H876 C897 0.950 . S
H877 C900 0.950 . S
H878 C901 0.950 . S
H879 C903 0.950 . S
H880 C904 0.950 . S
H881 C905 0.951 . S
H882 C907 0.951 . S
H883 C909 0.950 . S
H884 C910 0.950 . S
H885 C912 0.950 . S
H886 C915 0.950 . S
H887 C916 0.950 . S
H888 C918 0.950 . S
H889 C919 0.950 . S
C890 H872 0.951 . S
C890 C891 1.366 . S
C890 C892 1.388 . S
C891 C890 1.366 . S
C891 C895 1.385 . S
C892 H873 0.951 . S
C892 C890 1.388 . S
C892 C893 1.366 . S
C893 C892 1.366 . S
C893 C894 1.414 . S
C893 C896 1.499 . S
C894 H874 0.950 . S
C894 C893 1.414 . S
C894 C895 1.374 . S
C895 H875 0.950 . S
C895 C891 1.385 . S
C895 C894 1.374 . S
C896 C893 1.499 . S
C896 C897 1.373 . S
C896 C898 1.389 . S
C897 H876 0.950 . S
C897 C896 1.373 . S
C897 C913 1.377 . S
C898 C896 1.389 . S
C898 C899 1.524 . S
C898 C912 1.377 . S
C899 C898 1.524 . S
C899 C900 1.397 . S
C899 C904 1.363 . S
C900 H877 0.950 . S
C900 C899 1.397 . S
C900 C901 1.334 . S
C901 H878 0.950 . S
C901 C900 1.334 . S
C901 C902 1.287 . S
C902 C901 1.287 . S
C902 C903 1.524 . S
C902 H921 0.913 . S
C903 H879 0.950 . S
C903 C902 1.524 . S
C903 C904 1.415 . S
C904 H880 0.950 . S
C904 C899 1.363 . S
C904 C903 1.415 . S
C905 H881 0.951 . S
C905 C906 1.366 . S
C905 C907 1.388 . S
C906 C905 1.366 . S
C906 C910 1.385 . S
C907 H882 0.951 . S
C907 C905 1.388 . S
C907 C908 1.366 . S
C908 C907 1.366 . S
C908 C909 1.414 . S
C908 C911 1.499 . S
C909 H883 0.950 . S
C909 C908 1.414 . S
C909 C910 1.374 . S
C910 H884 0.950 . S
C910 C906 1.385 . S
C910 C909 1.374 . S
C911 C908 1.499 . S
C911 C912 1.373 . S
C911 C913 1.389 . S
C912 H885 0.950 . S
C912 C898 1.377 . S
C912 C911 1.373 . S
C913 C897 1.377 . S
C913 C911 1.389 . S
C913 C914 1.524 . S
C914 C913 1.524 . S
C914 C915 1.397 . S
C914 C919 1.363 . S
C915 H886 0.950 . S
C915 C914 1.397 . S
C915 C916 1.334 . S
C916 H887 0.950 . S
C916 C915 1.334 . S
C916 C917 1.287 . S
C917 C916 1.287 . S
C917 C918 1.524 . S
C917 H920 0.999 . S
C918 H888 0.950 . S
C918 C917 1.524 . S
C918 C919 1.415 . S
C919 H889 0.950 . S
C919 C914 1.363 . S
C919 C918 1.415 . S
H920 C917 0.999 . S
H921 C902 0.913 . S
H922 C940 0.951 . S
H923 C942 0.951 . S
H924 C944 0.950 . S
H925 C945 0.950 . S
H926 C947 0.950 . S
H927 C950 0.950 . S
H928 C951 0.950 . S
H929 C953 0.950 . S
H930 C954 0.950 . S
H931 C955 0.951 . S
H932 C957 0.951 . S
H933 C959 0.950 . S
H934 C960 0.950 . S
H935 C962 0.950 . S
H936 C965 0.950 . S
H937 C966 0.950 . S
H938 C968 0.950 . S
H939 C969 0.950 . S
C940 H922 0.951 . S
C940 C941 1.366 . S
C940 C942 1.388 . S
C941 C940 1.366 . S
C941 C945 1.385 . S
C942 H923 0.951 . S
C942 C940 1.388 . S
C942 C943 1.366 . S
C943 C942 1.366 . S
C943 C944 1.414 . S
C943 C946 1.499 . S
C944 H924 0.950 . S
C944 C943 1.414 . S
C944 C945 1.374 . S
C945 H925 0.950 . S
C945 C941 1.385 . S
C945 C944 1.374 . S
C946 C943 1.499 . S
C946 C947 1.373 . S
C946 C948 1.389 . S
C947 H926 0.950 . S
C947 C946 1.373 . S
C947 C963 1.377 . S
C948 C946 1.389 . S
C948 C949 1.524 . S
C948 C962 1.377 . S
C949 C948 1.524 . S
C949 C950 1.397 . S
C949 C954 1.363 . S
C950 H927 0.950 . S
C950 C949 1.397 . S
C950 C951 1.334 . S
C951 H928 0.950 . S
C951 C950 1.334 . S
C951 C952 1.287 . S
C952 C951 1.287 . S
C952 C953 1.524 . S
C952 H971 0.913 . S
C953 H929 0.950 . S
C953 C952 1.524 . S
C953 C954 1.415 . S
C954 H930 0.950 . S
C954 C949 1.363 . S
C954 C953 1.415 . S
C955 H931 0.951 . S
C955 C956 1.366 . S
C955 C957 1.388 . S
C956 C955 1.366 . S
C956 C960 1.385 . S
C957 H932 0.951 . S
C957 C955 1.388 . S
C957 C958 1.366 . S
C958 C957 1.366 . S
C958 C959 1.414 . S
C958 C961 1.499 . S
C959 H933 0.950 . S
C959 C958 1.414 . S
C959 C960 1.374 . S
C960 H934 0.950 . S
C960 C956 1.385 . S
C960 C959 1.374 . S
C961 C958 1.499 . S
C961 C962 1.373 . S
C961 C963 1.389 . S
C962 H935 0.950 . S
C962 C948 1.377 . S
C962 C961 1.373 . S
C963 C947 1.377 . S
C963 C961 1.389 . S
C963 C964 1.524 . S
C964 C963 1.524 . S
C964 C965 1.397 1_554 S
C964 C969 1.363 . S
C965 H936 0.950 . S
C965 C964 1.397 1_556 S
C965 C966 1.334 . S
C966 H937 0.950 . S
C966 C965 1.334 . S
C966 C967 1.287 . S
C967 C966 1.287 . S
C967 C968 1.524 . S
C967 H970 0.999 . S
C968 H938 0.950 . S
C968 C967 1.524 . S
C968 C969 1.415 1_556 S
C969 H939 0.950 . S
C969 C964 1.363 . S
C969 C968 1.415 1_554 S
H970 C967 0.999 . S
H971 C952 0.913 . S
H972 C990 0.951 . S
H973 C992 0.951 . S
H974 C994 0.950 . S
H975 C995 0.950 . S
H976 C997 0.950 . S
H977 C1000 0.950 . S
H978 C1001 0.950 . S
H979 C1003 0.950 . S
H980 C1004 0.950 . S
H981 C1005 0.951 . S
H982 C1007 0.951 . S
H983 C1009 0.950 . S
H984 C1010 0.950 . S
H985 C1012 0.950 . S
H986 C1015 0.950 . S
H987 C1016 0.950 . S
H988 C1018 0.950 . S
H989 C1019 0.950 . S
C990 H972 0.951 . S
C990 C991 1.366 . S
C990 C992 1.388 . S
C991 C990 1.366 . S
C991 C995 1.385 . S
C992 H973 0.951 . S
C992 C990 1.388 . S
C992 C993 1.366 . S
C993 C992 1.366 . S
C993 C994 1.414 . S
C993 C996 1.499 . S
C994 H974 0.950 . S
C994 C993 1.414 . S
C994 C995 1.374 . S
C995 H975 0.950 . S
C995 C991 1.385 . S
C995 C994 1.374 . S
C996 C993 1.499 . S
C996 C997 1.373 . S
C996 C998 1.389 . S
C997 H976 0.950 . S
C997 C996 1.373 . S
C997 C1013 1.377 . S
C998 C996 1.389 . S
C998 C999 1.524 . S
C998 C1012 1.377 . S
C999 C998 1.524 . S
C999 C1000 1.397 . S
C999 C1004 1.363 . S
C1000 H977 0.950 . S
C1000 C999 1.397 . S
C1000 C1001 1.334 . S
C1001 H978 0.950 . S
C1001 C1000 1.334 . S
C1001 C1002 1.287 . S
C1002 C1001 1.287 . S
C1002 C1003 1.524 . S
C1002 H1021 0.913 . S
C1003 H979 0.950 . S
C1003 C1002 1.524 . S
C1003 C1004 1.415 . S
C1004 H980 0.950 . S
C1004 C999 1.363 . S
C1004 C1003 1.415 . S
C1005 H981 0.951 . S
C1005 C1006 1.366 . S
C1005 C1007 1.388 . S
C1006 C1005 1.366 . S
C1006 C1010 1.385 . S
C1007 H982 0.951 . S
C1007 C1005 1.388 . S
C1007 C1008 1.366 . S
C1008 C1007 1.366 . S
C1008 C1009 1.414 . S
C1008 C1011 1.499 . S
C1009 H983 0.950 . S
C1009 C1008 1.414 . S
C1009 C1010 1.374 . S
C1010 H984 0.950 . S
C1010 C1006 1.385 . S
C1010 C1009 1.374 . S
C1011 C1008 1.499 . S
C1011 C1012 1.373 . S
C1011 C1013 1.389 . S
C1012 H985 0.950 . S
C1012 C998 1.377 . S
C1012 C1011 1.373 . S
C1013 C997 1.377 . S
C1013 C1011 1.389 . S
C1013 C1014 1.524 . S
C1014 C1013 1.524 . S
C1014 C1015 1.397 . S
C1014 C1019 1.363 . S
C1015 H986 0.950 . S
C1015 C1014 1.397 . S
C1015 C1016 1.334 . S
C1016 H987 0.950 . S
C1016 C1015 1.334 . S
C1016 C1017 1.287 . S
C1017 C1016 1.287 . S
C1017 C1018 1.524 . S
C1017 H1020 0.999 . S
C1018 H988 0.950 . S
C1018 C1017 1.524 . S
C1018 C1019 1.415 . S
C1019 H989 0.950 . S
C1019 C1014 1.363 . S
C1019 C1018 1.415 . S
H1020 C1017 0.999 . S
H1021 C1002 0.913 . S
H1022 C1040 0.951 . S
H1023 C1042 0.951 . S
H1024 C1044 0.950 . S
H1025 C1045 0.950 . S
H1026 C1047 0.950 . S
H1027 C1050 0.950 . S
H1028 C1051 0.950 . S
H1029 C1053 0.950 . S
H1030 C1054 0.950 . S
H1031 C1055 0.951 . S
H1032 C1057 0.951 . S
H1033 C1059 0.950 . S
H1034 C1060 0.950 . S
H1035 C1062 0.950 . S
H1036 C1065 0.950 . S
H1037 C1066 0.950 . S
H1038 C1068 0.950 . S
H1039 C1069 0.950 . S
C1040 H1022 0.951 . S
C1040 C1041 1.366 . S
C1040 C1042 1.388 . S
C1041 C1040 1.366 . S
C1041 C1045 1.385 . S
C1042 H1023 0.951 . S
C1042 C1040 1.388 . S
C1042 C1043 1.366 . S
C1043 C1042 1.366 . S
C1043 C1044 1.414 . S
C1043 C1046 1.499 . S
C1044 H1024 0.950 . S
C1044 C1043 1.414 . S
C1044 C1045 1.374 . S
C1045 H1025 0.950 . S
C1045 C1041 1.385 . S
C1045 C1044 1.374 . S
C1046 C1043 1.499 . S
C1046 C1047 1.373 . S
C1046 C1048 1.389 . S
C1047 H1026 0.950 . S
C1047 C1046 1.373 . S
C1047 C1063 1.377 . S
C1048 C1046 1.389 . S
C1048 C1049 1.524 . S
C1048 C1062 1.377 . S
C1049 C1048 1.524 . S
C1049 C1050 1.397 . S
C1049 C1054 1.363 . S
C1050 H1027 0.950 . S
C1050 C1049 1.397 . S
C1050 C1051 1.334 . S
C1051 H1028 0.950 . S
C1051 C1050 1.334 . S
C1051 C1052 1.287 . S
C1052 C1051 1.287 . S
C1052 C1053 1.524 . S
C1052 H1071 0.913 . S
C1053 H1029 0.950 . S
C1053 C1052 1.524 . S
C1053 C1054 1.415 . S
C1054 H1030 0.950 . S
C1054 C1049 1.363 . S
C1054 C1053 1.415 . S
C1055 H1031 0.951 . S
C1055 C1056 1.366 . S
C1055 C1057 1.388 . S
C1056 C1055 1.366 . S
C1056 C1060 1.385 . S
C1057 H1032 0.951 . S
C1057 C1055 1.388 . S
C1057 C1058 1.366 . S
C1058 C1057 1.366 . S
C1058 C1059 1.414 . S
C1058 C1061 1.499 . S
C1059 H1033 0.950 . S
C1059 C1058 1.414 . S
C1059 C1060 1.374 . S
C1060 H1034 0.950 . S
C1060 C1056 1.385 . S
C1060 C1059 1.374 . S
C1061 C1058 1.499 . S
C1061 C1062 1.373 . S
C1061 C1063 1.389 . S
C1062 H1035 0.950 . S
C1062 C1048 1.377 . S
C1062 C1061 1.373 . S
C1063 C1047 1.377 . S
C1063 C1061 1.389 . S
C1063 C1064 1.524 . S
C1064 C1063 1.524 . S
C1064 C1065 1.397 . S
C1064 C1069 1.363 . S
C1065 H1036 0.950 . S
C1065 C1064 1.397 . S
C1065 C1066 1.334 . S
C1066 H1037 0.950 . S
C1066 C1065 1.334 . S
C1066 C1067 1.287 . S
C1067 C1066 1.287 . S
C1067 C1068 1.524 . S
C1067 H1070 0.999 . S
C1068 H1038 0.950 . S
C1068 C1067 1.524 . S
C1068 C1069 1.415 . S
C1069 H1039 0.950 . S
C1069 C1064 1.363 . S
C1069 C1068 1.415 . S
H1070 C1067 0.999 . S
H1071 C1052 0.913 . S
H1072 C1090 0.951 . S
H1073 C1092 0.951 . S
H1074 C1094 0.950 . S
H1075 C1095 0.950 . S
H1076 C1097 0.950 . S
H1077 C1100 0.950 . S
H1078 C1101 0.950 . S
H1079 C1103 0.950 . S
H1080 C1104 0.950 . S
H1081 C1105 0.951 . S
H1082 C1107 0.951 . S
H1083 C1109 0.950 . S
H1084 C1110 0.950 . S
H1085 C1112 0.950 . S
H1086 C1115 0.950 . S
H1087 C1116 0.950 . S
H1088 C1118 0.950 . S
H1089 C1119 0.950 . S
C1090 H1072 0.951 . S
C1090 C1091 1.366 . S
C1090 C1092 1.388 . S
C1091 C1090 1.366 . S
C1091 C1095 1.385 . S
C1092 H1073 0.951 . S
C1092 C1090 1.388 . S
C1092 C1093 1.366 . S
C1093 C1092 1.366 . S
C1093 C1094 1.414 . S
C1093 C1096 1.499 . S
C1094 H1074 0.950 . S
C1094 C1093 1.414 . S
C1094 C1095 1.374 . S
C1095 H1075 0.950 . S
C1095 C1091 1.385 . S
C1095 C1094 1.374 . S
C1096 C1093 1.499 . S
C1096 C1097 1.373 . S
C1096 C1098 1.389 . S
C1097 H1076 0.950 . S
C1097 C1096 1.373 . S
C1097 C1113 1.377 . S
C1098 C1096 1.389 . S
C1098 C1099 1.524 . S
C1098 C1112 1.377 . S
C1099 C1098 1.524 . S
C1099 C1100 1.397 . S
C1099 C1104 1.363 . S
C1100 H1077 0.950 . S
C1100 C1099 1.397 . S
C1100 C1101 1.334 . S
C1101 H1078 0.950 . S
C1101 C1100 1.334 . S
C1101 C1102 1.287 . S
C1102 C1101 1.287 . S
C1102 C1103 1.524 . S
C1102 H1121 0.913 . S
C1103 H1079 0.950 . S
C1103 C1102 1.524 . S
C1103 C1104 1.415 . S
C1104 H1080 0.950 . S
C1104 C1099 1.363 . S
C1104 C1103 1.415 . S
C1105 H1081 0.951 . S
C1105 C1106 1.366 . S
C1105 C1107 1.388 . S
C1106 C1105 1.366 . S
C1106 C1110 1.385 . S
C1107 H1082 0.951 . S
C1107 C1105 1.388 . S
C1107 C1108 1.366 . S
C1108 C1107 1.366 . S
C1108 C1109 1.414 . S
C1108 C1111 1.499 . S
C1109 H1083 0.950 . S
C1109 C1108 1.414 . S
C1109 C1110 1.374 . S
C1110 H1084 0.950 . S
C1110 C1106 1.385 . S
C1110 C1109 1.374 . S
C1111 C1108 1.499 . S
C1111 C1112 1.373 . S
C1111 C1113 1.389 . S
C1112 H1085 0.950 . S
C1112 C1098 1.377 . S
C1112 C1111 1.373 . S
C1113 C1097 1.377 . S
C1113 C1111 1.389 . S
C1113 C1114 1.524 . S
C1114 C1113 1.524 . S
C1114 C1115 1.397 . S
C1114 C1119 1.363 . S
C1115 H1086 0.950 . S
C1115 C1114 1.397 . S
C1115 C1116 1.334 . S
C1116 H1087 0.950 . S
C1116 C1115 1.334 . S
C1116 C1117 1.287 . S
C1117 C1116 1.287 . S
C1117 C1118 1.524 . S
C1117 H1120 0.999 . S
C1118 H1088 0.950 . S
C1118 C1117 1.524 . S
C1118 C1119 1.415 . S
C1119 H1089 0.950 . S
C1119 C1114 1.363 . S
C1119 C1118 1.415 . S
H1120 C1117 0.999 . S
H1121 C1102 0.913 . S
H1122 C1140 0.951 . S
H1123 C1142 0.951 . S
H1124 C1144 0.950 . S
H1125 C1145 0.950 . S
H1126 C1147 0.950 . S
H1127 C1150 0.950 . S
H1128 C1151 0.950 . S
H1129 C1153 0.950 . S
H1130 C1154 0.950 . S
H1131 C1155 0.951 . S
H1132 C1157 0.951 . S
H1133 C1159 0.950 . S
H1134 C1160 0.950 . S
H1135 C1162 0.950 . S
H1136 C1165 0.950 . S
H1137 C1166 0.950 . S
H1138 C1168 0.950 . S
H1139 C1169 0.950 . S
C1140 H1122 0.951 . S
C1140 C1141 1.366 . S
C1140 C1142 1.388 . S
C1141 C1140 1.366 . S
C1141 C1145 1.385 . S
C1142 H1123 0.951 . S
C1142 C1140 1.388 . S
C1142 C1143 1.366 . S
C1143 C1142 1.366 . S
C1143 C1144 1.414 . S
C1143 C1146 1.499 . S
C1144 H1124 0.950 . S
C1144 C1143 1.414 . S
C1144 C1145 1.374 . S
C1145 H1125 0.950 . S
C1145 C1141 1.385 . S
C1145 C1144 1.374 . S
C1146 C1143 1.499 . S
C1146 C1147 1.373 . S
C1146 C1148 1.389 . S
C1147 H1126 0.950 . S
C1147 C1146 1.373 . S
C1147 C1163 1.377 . S
C1148 C1146 1.389 . S
C1148 C1149 1.524 . S
C1148 C1162 1.377 . S
C1149 C1148 1.524 . S
C1149 C1150 1.397 . S
C1149 C1154 1.363 . S
C1150 H1127 0.950 . S
C1150 C1149 1.397 . S
C1150 C1151 1.334 . S
C1151 H1128 0.950 . S
C1151 C1150 1.334 . S
C1151 C1152 1.287 . S
C1152 C1151 1.287 . S
C1152 C1153 1.524 . S
C1152 H1171 0.913 . S
C1153 H1129 0.950 . S
C1153 C1152 1.524 . S
C1153 C1154 1.415 . S
C1154 H1130 0.950 . S
C1154 C1149 1.363 . S
C1154 C1153 1.415 . S
C1155 H1131 0.951 . S
C1155 C1156 1.366 . S
C1155 C1157 1.388 . S
C1156 C1155 1.366 . S
C1156 C1160 1.385 . S
C1157 H1132 0.951 . S
C1157 C1155 1.388 . S
C1157 C1158 1.366 . S
C1158 C1157 1.366 . S
C1158 C1159 1.414 . S
C1158 C1161 1.499 . S
C1159 H1133 0.950 . S
C1159 C1158 1.414 . S
C1159 C1160 1.374 . S
C1160 H1134 0.950 . S
C1160 C1156 1.385 . S
C1160 C1159 1.374 . S
C1161 C1158 1.499 . S
C1161 C1162 1.373 . S
C1161 C1163 1.389 . S
C1162 H1135 0.950 . S
C1162 C1148 1.377 . S
C1162 C1161 1.373 . S
C1163 C1147 1.377 . S
C1163 C1161 1.389 . S
C1163 C1164 1.524 . S
C1164 C1163 1.524 . S
C1164 C1165 1.397 . S
C1164 C1169 1.363 . S
C1165 H1136 0.950 . S
C1165 C1164 1.397 . S
C1165 C1166 1.334 . S
C1166 H1137 0.950 . S
C1166 C1165 1.334 . S
C1166 C1167 1.287 . S
C1167 C1166 1.287 . S
C1167 C1168 1.524 . S
C1167 H1170 0.999 . S
C1168 H1138 0.950 . S
C1168 C1167 1.524 . S
C1168 C1169 1.415 . S
C1169 H1139 0.950 . S
C1169 C1164 1.363 . S
C1169 C1168 1.415 . S
H1170 C1167 0.999 . S
H1171 C1152 0.913 . S
H1172 C1190 0.951 . S
H1173 C1192 0.951 . S
H1174 C1194 0.950 . S
H1175 C1195 0.950 . S
H1176 C1197 0.950 . S
H1177 C1200 0.958 . S
H1178 C1201 0.950 . S
H1179 C1203 0.950 . S
H1180 C1204 0.950 . S
H1181 C1205 0.940 1_554 S
H1182 C1207 0.951 . S
H1183 C1209 0.950 . S
H1184 C1210 0.950 . S
H1185 C1212 0.950 . S
H1186 C1215 0.950 . S
H1187 C1216 0.950 . S
H1188 C1218 0.950 . S
H1189 C1219 0.950 . S
C1190 H1172 0.951 . S
C1190 C1191 1.366 . S
C1190 C1192 1.388 . S
C1191 C1190 1.366 . S
C1191 C1195 1.385 . S
C1192 H1173 0.951 . S
C1192 C1190 1.388 . S
C1192 C1193 1.366 . S
C1193 C1192 1.366 . S
C1193 C1194 1.414 . S
C1193 C1196 1.499 . S
C1194 H1174 0.950 . S
C1194 C1193 1.414 . S
C1194 C1195 1.374 . S
C1195 H1175 0.950 . S
C1195 C1191 1.385 . S
C1195 C1194 1.374 . S
C1196 C1193 1.499 . S
C1196 C1197 1.373 . S
C1196 C1198 1.389 . S
C1197 H1176 0.950 . S
C1197 C1196 1.373 . S
C1197 C1213 1.377 . S
C1198 C1196 1.389 . S
C1198 C1199 1.524 . S
C1198 C1212 1.377 . S
C1199 C1198 1.524 . S
C1199 C1200 1.363 1_556 S
C1199 C1204 1.363 . S
C1200 H1177 0.958 . S
C1200 C1199 1.363 1_554 S
C1200 C1201 1.363 . S
C1201 H1178 0.950 . S
C1201 C1200 1.363 . S
C1201 C1202 1.287 . S
C1202 C1201 1.287 . S
C1202 C1203 1.524 1_554 S
C1202 H1221 0.913 . S
C1203 H1179 0.950 . S
C1203 C1202 1.524 1_556 S
C1203 C1204 1.415 . S
C1204 H1180 0.950 . S
C1204 C1199 1.363 . S
C1204 C1203 1.415 . S
C1205 H1181 0.940 1_556 S
C1205 C1206 1.369 . S
C1205 C1207 1.396 . S
C1206 C1205 1.369 . S
C1206 C1210 1.385 . S
C1207 H1182 0.951 . S
C1207 C1205 1.396 . S
C1207 C1208 1.366 . S
C1208 C1207 1.366 . S
C1208 C1209 1.414 . S
C1208 C1211 1.499 . S
C1209 H1183 0.950 . S
C1209 C1208 1.414 . S
C1209 C1210 1.374 . S
C1210 H1184 0.950 . S
C1210 C1206 1.385 . S
C1210 C1209 1.374 . S
C1211 C1208 1.499 . S
C1211 C1212 1.373 . S
C1211 C1213 1.389 . S
C1212 H1185 0.950 . S
C1212 C1198 1.377 . S
C1212 C1211 1.373 . S
C1213 C1197 1.377 . S
C1213 C1211 1.389 . S
C1213 C1214 1.524 . S
C1214 C1213 1.524 . S
C1214 C1215 1.397 . S
C1214 C1219 1.363 . S
C1215 H1186 0.950 . S
C1215 C1214 1.397 . S
C1215 C1216 1.334 . S
C1216 H1187 0.950 . S
C1216 C1215 1.334 . S
C1216 C1217 1.287 . S
C1217 C1216 1.287 . S
C1217 C1218 1.524 . S
C1217 H1220 0.999 . S
C1218 H1188 0.950 . S
C1218 C1217 1.524 . S
C1218 C1219 1.415 . S
C1219 H1189 0.950 . S
C1219 C1214 1.363 . S
C1219 C1218 1.415 . S
H1220 C1217 0.999 . S
H1221 C1202 0.913 . S
H1222 C1240 0.951 . S
H1223 C1242 0.951 . S
H1224 C1244 0.950 . S
H1225 C1245 0.950 . S
H1226 C1247 0.950 . S
H1227 C1250 0.950 . S
H1228 C1251 0.950 . S
H1229 C1253 0.950 . S
H1230 C1254 0.950 . S
H1231 C1255 0.951 . S
H1232 C1257 0.951 . S
H1233 C1259 0.950 . S
H1234 C1260 0.950 . S
H1235 C1262 0.950 . S
H1236 C1265 0.950 . S
H1237 C1266 0.950 . S
H1238 C1268 0.950 . S
H1239 C1269 0.950 . S
C1240 H1222 0.951 . S
C1240 C1241 1.366 . S
C1240 C1242 1.388 . S
C1241 C1240 1.366 . S
C1241 C1245 1.385 . S
C1242 H1223 0.951 . S
C1242 C1240 1.388 . S
C1242 C1243 1.366 . S
C1243 C1242 1.366 . S
C1243 C1244 1.414 . S
C1243 C1246 1.499 . S
C1244 H1224 0.950 . S
C1244 C1243 1.414 . S
C1244 C1245 1.374 . S
C1245 H1225 0.950 . S
C1245 C1241 1.385 . S
C1245 C1244 1.374 . S
C1246 C1243 1.499 . S
C1246 C1247 1.373 . S
C1246 C1248 1.389 . S
C1247 H1226 0.950 . S
C1247 C1246 1.373 . S
C1247 C1263 1.377 . S
C1248 C1246 1.389 . S
C1248 C1249 1.524 . S
C1248 C1262 1.377 . S
C1249 C1248 1.524 . S
C1249 C1250 1.397 . S
C1249 C1254 1.363 . S
C1250 H1227 0.950 . S
C1250 C1249 1.397 . S
C1250 C1251 1.334 . S
C1251 H1228 0.950 . S
C1251 C1250 1.334 . S
C1251 C1252 1.287 . S
C1252 C1251 1.287 . S
C1252 C1253 1.524 . S
C1252 H1271 0.913 . S
C1253 H1229 0.950 . S
C1253 C1252 1.524 . S
C1253 C1254 1.415 . S
C1254 H1230 0.950 . S
C1254 C1249 1.363 . S
C1254 C1253 1.415 . S
C1255 H1231 0.951 . S
C1255 C1256 1.366 . S
C1255 C1257 1.388 . S
C1256 C1255 1.366 . S
C1256 C1260 1.385 . S
C1257 H1232 0.951 . S
C1257 C1255 1.388 . S
C1257 C1258 1.366 . S
C1258 C1257 1.366 . S
C1258 C1259 1.414 . S
C1258 C1261 1.499 . S
C1259 H1233 0.950 . S
C1259 C1258 1.414 . S
C1259 C1260 1.374 . S
C1260 H1234 0.950 . S
C1260 C1256 1.385 . S
C1260 C1259 1.374 . S
C1261 C1258 1.499 . S
C1261 C1262 1.373 . S
C1261 C1263 1.389 . S
C1262 H1235 0.950 . S
C1262 C1248 1.377 . S
C1262 C1261 1.373 . S
C1263 C1247 1.377 . S
C1263 C1261 1.389 . S
C1263 C1264 1.524 . S
C1264 C1263 1.524 . S
C1264 C1265 1.397 . S
C1264 C1269 1.363 . S
C1265 H1236 0.950 . S
C1265 C1264 1.397 . S
C1265 C1266 1.334 . S
C1266 H1237 0.950 . S
C1266 C1265 1.334 . S
C1266 C1267 1.287 . S
C1267 C1266 1.287 . S
C1267 C1268 1.524 . S
C1267 H1270 0.999 . S
C1268 H1238 0.950 . S
C1268 C1267 1.524 . S
C1268 C1269 1.415 . S
C1269 H1239 0.950 . S
C1269 C1264 1.363 . S
C1269 C1268 1.415 . S
H1270 C1267 0.999 . S
H1271 C1252 0.913 . S
H1272 C1290 0.951 . S
H1273 C1292 0.951 . S
H1274 C1294 0.950 . S
H1275 C1295 0.950 . S
H1276 C1297 0.950 . S
H1277 C1300 0.950 . S
H1278 C1301 0.950 . S
H1279 C1303 0.950 . S
H1280 C1304 0.950 . S
H1281 C1305 0.951 . S
H1282 C1307 0.951 . S
H1283 C1309 0.950 . S
H1284 C1310 0.950 . S
H1285 C1312 0.950 . S
H1286 C1315 0.950 . S
H1287 C1316 0.950 . S
H1288 C1318 0.950 . S
H1289 C1319 0.950 . S
C1290 H1272 0.951 . S
C1290 C1291 1.366 . S
C1290 C1292 1.388 . S
C1291 C1290 1.366 . S
C1291 C1295 1.385 . S
C1292 H1273 0.951 . S
C1292 C1290 1.388 . S
C1292 C1293 1.366 . S
C1293 C1292 1.366 . S
C1293 C1294 1.414 . S
C1293 C1296 1.499 . S
C1294 H1274 0.950 . S
C1294 C1293 1.414 . S
C1294 C1295 1.374 . S
C1295 H1275 0.950 . S
C1295 C1291 1.385 . S
C1295 C1294 1.374 . S
C1296 C1293 1.499 . S
C1296 C1297 1.373 . S
C1296 C1298 1.389 . S
C1297 H1276 0.950 . S
C1297 C1296 1.373 . S
C1297 C1313 1.377 . S
C1298 C1296 1.389 . S
C1298 C1299 1.524 . S
C1298 C1312 1.377 . S
C1299 C1298 1.524 . S
C1299 C1300 1.397 . S
C1299 C1304 1.363 . S
C1300 H1277 0.950 . S
C1300 C1299 1.397 . S
C1300 C1301 1.334 . S
C1301 H1278 0.950 . S
C1301 C1300 1.334 . S
C1301 C1302 1.287 . S
C1302 C1301 1.287 . S
C1302 C1303 1.524 . S
C1302 H1321 0.913 . S
C1303 H1279 0.950 . S
C1303 C1302 1.524 . S
C1303 C1304 1.415 . S
C1304 H1280 0.950 . S
C1304 C1299 1.363 . S
C1304 C1303 1.415 . S
C1305 H1281 0.951 . S
C1305 C1306 1.366 . S
C1305 C1307 1.388 . S
C1306 C1305 1.366 . S
C1306 C1310 1.385 . S
C1307 H1282 0.951 . S
C1307 C1305 1.388 . S
C1307 C1308 1.366 . S
C1308 C1307 1.366 . S
C1308 C1309 1.414 . S
C1308 C1311 1.499 . S
C1309 H1283 0.950 . S
C1309 C1308 1.414 . S
C1309 C1310 1.374 . S
C1310 H1284 0.950 . S
C1310 C1306 1.385 . S
C1310 C1309 1.374 . S
C1311 C1308 1.499 . S
C1311 C1312 1.373 . S
C1311 C1313 1.389 . S
C1312 H1285 0.950 . S
C1312 C1298 1.377 . S
C1312 C1311 1.373 . S
C1313 C1297 1.377 . S
C1313 C1311 1.389 . S
C1313 C1314 1.524 . S
C1314 C1313 1.524 . S
C1314 C1315 1.397 . S
C1314 C1319 1.363 . S
C1315 H1286 0.950 . S
C1315 C1314 1.397 . S
C1315 C1316 1.334 . S
C1316 H1287 0.950 . S
C1316 C1315 1.334 . S
C1316 C1317 1.287 . S
C1317 C1316 1.287 . S
C1317 C1318 1.524 . S
C1317 H1320 0.999 . S
C1318 H1288 0.950 . S
C1318 C1317 1.524 . S
C1318 C1319 1.415 . S
C1319 H1289 0.950 . S
C1319 C1314 1.363 . S
C1319 C1318 1.415 . S
H1320 C1317 0.999 . S
H1321 C1302 0.913 . S
H1322 C1340 0.951 . S
H1323 C1342 0.951 . S
H1324 C1344 0.950 . S
H1325 C1345 0.950 . S
H1326 C1347 0.950 . S
H1327 C1350 0.950 . S
H1328 C1351 0.950 . S
H1329 C1353 0.950 . S
H1330 C1354 0.950 . S
H1331 C1355 0.951 . S
H1332 C1357 0.951 . S
H1333 C1359 0.950 . S
H1334 C1360 0.950 . S
H1335 C1362 0.950 . S
H1336 C1365 0.950 . S
H1337 C1366 0.950 . S
H1338 C1368 0.950 . S
H1339 C1369 0.950 . S
C1340 H1322 0.951 . S
C1340 C1341 1.366 . S
C1340 C1342 1.388 . S
C1341 C1340 1.366 . S
C1341 C1345 1.385 . S
C1342 H1323 0.951 . S
C1342 C1340 1.388 . S
C1342 C1343 1.366 . S
C1343 C1342 1.366 . S
C1343 C1344 1.414 . S
C1343 C1346 1.499 . S
C1344 H1324 0.950 . S
C1344 C1343 1.414 . S
C1344 C1345 1.374 . S
C1345 H1325 0.950 . S
C1345 C1341 1.385 . S
C1345 C1344 1.374 . S
C1346 C1343 1.499 . S
C1346 C1347 1.373 . S
C1346 C1348 1.389 . S
C1347 H1326 0.950 . S
C1347 C1346 1.373 . S
C1347 C1363 1.377 . S
C1348 C1346 1.389 . S
C1348 C1349 1.524 . S
C1348 C1362 1.377 . S
C1349 C1348 1.524 . S
C1349 C1350 1.397 . S
C1349 C1354 1.363 . S
C1350 H1327 0.950 . S
C1350 C1349 1.397 . S
C1350 C1351 1.334 . S
C1351 H1328 0.950 . S
C1351 C1350 1.334 . S
C1351 C1352 1.287 . S
C1352 C1351 1.287 . S
C1352 C1353 1.524 . S
C1352 H1371 0.913 . S
C1353 H1329 0.950 . S
C1353 C1352 1.524 . S
C1353 C1354 1.415 . S
C1354 H1330 0.950 . S
C1354 C1349 1.363 . S
C1354 C1353 1.415 . S
C1355 H1331 0.951 . S
C1355 C1356 1.366 . S
C1355 C1357 1.388 . S
C1356 C1355 1.366 . S
C1356 C1360 1.385 . S
C1357 H1332 0.951 . S
C1357 C1355 1.388 . S
C1357 C1358 1.366 . S
C1358 C1357 1.366 . S
C1358 C1359 1.414 . S
C1358 C1361 1.499 . S
C1359 H1333 0.950 . S
C1359 C1358 1.414 . S
C1359 C1360 1.374 . S
C1360 H1334 0.950 . S
C1360 C1356 1.385 . S
C1360 C1359 1.374 . S
C1361 C1358 1.499 . S
C1361 C1362 1.373 . S
C1361 C1363 1.389 . S
C1362 H1335 0.950 . S
C1362 C1348 1.377 . S
C1362 C1361 1.373 . S
C1363 C1347 1.377 . S
C1363 C1361 1.389 . S
C1363 C1364 1.524 . S
C1364 C1363 1.524 . S
C1364 C1365 1.397 . S
C1364 C1369 1.363 . S
C1365 H1336 0.950 . S
C1365 C1364 1.397 . S
C1365 C1366 1.334 . S
C1366 H1337 0.950 . S
C1366 C1365 1.334 . S
C1366 C1367 1.287 . S
C1367 C1366 1.287 . S
C1367 C1368 1.524 . S
C1367 H1370 0.999 . S
C1368 H1338 0.950 . S
C1368 C1367 1.524 . S
C1368 C1369 1.415 . S
C1369 H1339 0.950 . S
C1369 C1364 1.363 . S
C1369 C1368 1.415 . S
H1370 C1367 0.999 . S
H1371 C1352 0.913 . S
H1372 C1390 0.951 . S
H1373 C1392 0.951 . S
H1374 C1394 0.950 . S
H1375 C1395 0.950 . S
H1376 C1397 0.950 . S
H1377 C1400 0.950 . S
H1378 C1401 0.950 . S
H1379 C1403 0.950 . S
H1380 C1404 0.950 . S
H1381 C1405 0.951 . S
H1382 C1407 0.951 . S
H1383 C1409 0.950 . S
H1384 C1410 0.950 . S
H1385 C1412 0.950 . S
H1386 C1415 0.950 . S
H1387 C1416 0.950 . S
H1388 C1418 0.950 . S
H1389 C1419 0.950 . S
C1390 H1372 0.951 . S
C1390 C1391 1.366 . S
C1390 C1392 1.388 . S
C1391 C1390 1.366 . S
C1391 C1395 1.385 . S
C1392 H1373 0.951 . S
C1392 C1390 1.388 . S
C1392 C1393 1.366 . S
C1393 C1392 1.366 . S
C1393 C1394 1.414 . S
C1393 C1396 1.499 . S
C1394 H1374 0.950 . S
C1394 C1393 1.414 . S
C1394 C1395 1.374 . S
C1395 H1375 0.950 . S
C1395 C1391 1.385 . S
C1395 C1394 1.374 . S
C1396 C1393 1.499 . S
C1396 C1397 1.373 . S
C1396 C1398 1.389 . S
C1397 H1376 0.950 . S
C1397 C1396 1.373 . S
C1397 C1413 1.377 . S
C1398 C1396 1.389 . S
C1398 C1399 1.524 . S
C1398 C1412 1.377 . S
C1399 C1398 1.524 . S
C1399 C1400 1.397 . S
C1399 C1404 1.363 . S
C1400 H1377 0.950 . S
C1400 C1399 1.397 . S
C1400 C1401 1.334 . S
C1401 H1378 0.950 . S
C1401 C1400 1.334 . S
C1401 C1402 1.287 . S
C1402 C1401 1.287 . S
C1402 C1403 1.524 . S
C1402 H1421 0.913 . S
C1403 H1379 0.950 . S
C1403 C1402 1.524 . S
C1403 C1404 1.415 . S
C1404 H1380 0.950 . S
C1404 C1399 1.363 . S
C1404 C1403 1.415 . S
C1405 H1381 0.951 . S
C1405 C1406 1.366 . S
C1405 C1407 1.388 . S
C1406 C1405 1.366 . S
C1406 C1410 1.385 . S
C1407 H1382 0.951 . S
C1407 C1405 1.388 . S
C1407 C1408 1.366 . S
C1408 C1407 1.366 . S
C1408 C1409 1.414 . S
C1408 C1411 1.499 . S
C1409 H1383 0.950 . S
C1409 C1408 1.414 . S
C1409 C1410 1.374 . S
C1410 H1384 0.950 . S
C1410 C1406 1.385 . S
C1410 C1409 1.374 . S
C1411 C1408 1.499 . S
C1411 C1412 1.373 . S
C1411 C1413 1.389 . S
C1412 H1385 0.950 . S
C1412 C1398 1.377 . S
C1412 C1411 1.373 . S
C1413 C1397 1.377 . S
C1413 C1411 1.389 . S
C1413 C1414 1.524 . S
C1414 C1413 1.524 . S
C1414 C1415 1.397 . S
C1414 C1419 1.363 . S
C1415 H1386 0.950 . S
C1415 C1414 1.397 . S
C1415 C1416 1.334 . S
C1416 H1387 0.950 . S
C1416 C1415 1.334 . S
C1416 C1417 1.287 . S
C1417 C1416 1.287 . S
C1417 C1418 1.524 . S
C1417 H1420 0.999 . S
C1418 H1388 0.950 . S
C1418 C1417 1.524 . S
C1418 C1419 1.415 . S
C1419 H1389 0.950 . S
C1419 C1414 1.363 . S
C1419 C1418 1.415 . S
H1420 C1417 0.999 . S
H1421 C1402 0.913 . S
H1422 C1440 0.951 . S
H1423 C1442 0.951 . S
H1424 C1444 0.950 . S
H1425 C1445 0.950 . S
H1426 C1447 0.950 . S
H1427 C1450 0.950 . S
H1428 C1451 0.950 . S
H1429 C1453 0.950 . S
H1430 C1454 0.950 . S
H1431 C1455 0.951 . S
H1432 C1457 0.951 . S
H1433 C1459 0.950 . S
H1434 C1460 0.950 . S
H1435 C1462 0.950 . S
H1436 C1465 0.950 . S
H1437 C1466 0.950 . S
H1438 C1468 0.950 . S
H1439 C1469 0.950 . S
C1440 H1422 0.951 . S
C1440 C1441 1.366 . S
C1440 C1442 1.388 . S
C1441 C1440 1.366 . S
C1441 C1445 1.385 . S
C1442 H1423 0.951 . S
C1442 C1440 1.388 . S
C1442 C1443 1.366 . S
C1443 C1442 1.366 . S
C1443 C1444 1.414 . S
C1443 C1446 1.499 . S
C1444 H1424 0.950 . S
C1444 C1443 1.414 . S
C1444 C1445 1.374 . S
C1445 H1425 0.950 . S
C1445 C1441 1.385 . S
C1445 C1444 1.374 . S
C1446 C1443 1.499 . S
C1446 C1447 1.373 . S
C1446 C1448 1.389 . S
C1447 H1426 0.950 . S
C1447 C1446 1.373 . S
C1447 C1463 1.377 . S
C1448 C1446 1.389 . S
C1448 C1449 1.524 . S
C1448 C1462 1.377 . S
C1449 C1448 1.524 . S
C1449 C1450 1.397 . S
C1449 C1454 1.363 . S
C1450 H1427 0.950 . S
C1450 C1449 1.397 . S
C1450 C1451 1.334 . S
C1451 H1428 0.950 . S
C1451 C1450 1.334 . S
C1451 C1452 1.287 . S
C1452 C1451 1.287 . S
C1452 C1453 1.524 . S
C1452 H1471 0.913 . S
C1453 H1429 0.950 . S
C1453 C1452 1.524 . S
C1453 C1454 1.415 . S
C1454 H1430 0.950 . S
C1454 C1449 1.363 . S
C1454 C1453 1.415 . S
C1455 H1431 0.951 . S
C1455 C1456 1.366 . S
C1455 C1457 1.388 . S
C1456 C1455 1.366 . S
C1456 C1460 1.385 . S
C1457 H1432 0.951 . S
C1457 C1455 1.388 . S
C1457 C1458 1.366 . S
C1458 C1457 1.366 . S
C1458 C1459 1.414 . S
C1458 C1461 1.499 . S
C1459 H1433 0.950 . S
C1459 C1458 1.414 . S
C1459 C1460 1.374 . S
C1460 H1434 0.950 . S
C1460 C1456 1.385 . S
C1460 C1459 1.374 . S
C1461 C1458 1.499 . S
C1461 C1462 1.373 . S
C1461 C1463 1.389 . S
C1462 H1435 0.950 . S
C1462 C1448 1.377 . S
C1462 C1461 1.373 . S
C1463 C1447 1.377 . S
C1463 C1461 1.389 . S
C1463 C1464 1.524 . S
C1464 C1463 1.524 . S
C1464 C1465 1.397 . S
C1464 C1469 1.363 . S
C1465 H1436 0.950 . S
C1465 C1464 1.397 . S
C1465 C1466 1.334 . S
C1466 H1437 0.950 . S
C1466 C1465 1.334 . S
C1466 C1467 1.287 . S
C1467 C1466 1.287 . S
C1467 C1468 1.524 . S
C1467 H1470 0.999 . S
C1468 H1438 0.950 . S
C1468 C1467 1.524 . S
C1468 C1469 1.415 . S
C1469 H1439 0.950 . S
C1469 C1464 1.363 . S
C1469 C1468 1.415 . S
H1470 C1467 0.999 . S
H1471 C1452 0.913 . S
H1472 C1490 0.951 . S
H1473 C1492 0.951 . S
H1474 C1494 0.950 . S
H1475 C1495 0.950 . S
H1476 C1497 0.950 . S
H1477 C1500 0.950 . S
H1478 C1501 0.950 . S
H1479 C1503 0.950 . S
H1480 C1504 0.950 . S
H1481 C1505 0.951 . S
H1482 C1507 0.951 . S
H1483 C1509 0.950 . S
H1484 C1510 0.950 . S
H1485 C1512 0.950 . S
H1486 C1515 0.950 . S
H1487 C1516 0.950 . S
H1488 C1518 0.950 . S
H1489 C1519 0.950 . S
C1490 H1472 0.951 . S
C1490 C1491 1.366 . S
C1490 C1492 1.388 . S
C1491 C1490 1.366 . S
C1491 C1495 1.385 . S
C1492 H1473 0.951 . S
C1492 C1490 1.388 . S
C1492 C1493 1.366 . S
C1493 C1492 1.366 . S
C1493 C1494 1.414 . S
C1493 C1496 1.499 . S
C1494 H1474 0.950 . S
C1494 C1493 1.414 . S
C1494 C1495 1.374 . S
C1495 H1475 0.950 . S
C1495 C1491 1.385 . S
C1495 C1494 1.374 . S
C1496 C1493 1.499 . S
C1496 C1497 1.373 . S
C1496 C1498 1.389 . S
C1497 H1476 0.950 . S
C1497 C1496 1.373 . S
C1497 C1513 1.377 . S
C1498 C1496 1.389 . S
C1498 C1499 1.524 . S
C1498 C1512 1.377 . S
C1499 C1498 1.524 . S
C1499 C1500 1.397 . S
C1499 C1504 1.363 . S
C1500 H1477 0.950 . S
C1500 C1499 1.397 . S
C1500 C1501 1.334 . S
C1501 H1478 0.950 . S
C1501 C1500 1.334 . S
C1501 C1502 1.287 . S
C1502 C1501 1.287 . S
C1502 C1503 1.524 . S
C1502 H1521 0.913 . S
C1503 H1479 0.950 . S
C1503 C1502 1.524 . S
C1503 C1504 1.415 . S
C1504 H1480 0.950 . S
C1504 C1499 1.363 . S
C1504 C1503 1.415 . S
C1505 H1481 0.951 . S
C1505 C1506 1.366 . S
C1505 C1507 1.388 . S
C1506 C1505 1.366 . S
C1506 C1510 1.385 . S
C1507 H1482 0.951 . S
C1507 C1505 1.388 . S
C1507 C1508 1.366 . S
C1508 C1507 1.366 . S
C1508 C1509 1.414 . S
C1508 C1511 1.499 . S
C1509 H1483 0.950 . S
C1509 C1508 1.414 . S
C1509 C1510 1.374 . S
C1510 H1484 0.950 . S
C1510 C1506 1.385 . S
C1510 C1509 1.374 . S
C1511 C1508 1.499 . S
C1511 C1512 1.373 . S
C1511 C1513 1.389 . S
C1512 H1485 0.950 . S
C1512 C1498 1.377 . S
C1512 C1511 1.373 . S
C1513 C1497 1.377 . S
C1513 C1511 1.389 . S
C1513 C1514 1.524 . S
C1514 C1513 1.524 . S
C1514 C1515 1.397 . S
C1514 C1519 1.363 . S
C1515 H1486 0.950 . S
C1515 C1514 1.397 . S
C1515 C1516 1.334 . S
C1516 H1487 0.950 . S
C1516 C1515 1.334 . S
C1516 C1517 1.287 . S
C1517 C1516 1.287 . S
C1517 C1518 1.524 . S
C1517 H1520 0.999 . S
C1518 H1488 0.950 . S
C1518 C1517 1.524 . S
C1518 C1519 1.415 . S
C1519 H1489 0.950 . S
C1519 C1514 1.363 . S
C1519 C1518 1.415 . S
H1520 C1517 0.999 . S
H1521 C1502 0.913 . S
H1522 C1540 0.951 . S
H1523 C1542 0.951 . S
H1524 C1544 0.950 . S
H1525 C1545 0.950 . S
H1526 C1547 0.950 . S
H1527 C1550 0.950 . S
H1528 C1551 0.950 . S
H1529 C1553 0.950 . S
H1530 C1554 0.950 . S
H1531 C1555 0.951 . S
H1532 C1557 0.951 . S
H1533 C1559 0.950 . S
H1534 C1560 0.950 . S
H1535 C1562 0.950 . S
H1536 C1565 0.950 . S
H1537 C1566 0.950 . S
H1538 C1568 0.950 . S
H1539 C1569 0.950 . S
C1540 H1522 0.951 . S
C1540 C1541 1.366 . S
C1540 C1542 1.388 . S
C1541 C1540 1.366 . S
C1541 C1545 1.385 . S
C1542 H1523 0.951 . S
C1542 C1540 1.388 . S
C1542 C1543 1.366 . S
C1543 C1542 1.366 . S
C1543 C1544 1.414 . S
C1543 C1546 1.499 . S
C1544 H1524 0.950 . S
C1544 C1543 1.414 . S
C1544 C1545 1.374 . S
C1545 H1525 0.950 . S
C1545 C1541 1.385 . S
C1545 C1544 1.374 . S
C1546 C1543 1.499 . S
C1546 C1547 1.373 . S
C1546 C1548 1.389 . S
C1547 H1526 0.950 . S
C1547 C1546 1.373 . S
C1547 C1563 1.377 . S
C1548 C1546 1.389 . S
C1548 C1549 1.524 . S
C1548 C1562 1.377 . S
C1549 C1548 1.524 . S
C1549 C1550 1.397 . S
C1549 C1554 1.363 . S
C1550 H1527 0.950 . S
C1550 C1549 1.397 . S
C1550 C1551 1.334 . S
C1551 H1528 0.950 . S
C1551 C1550 1.334 . S
C1551 C1552 1.287 . S
C1552 C1551 1.287 . S
C1552 C1553 1.524 . S
C1552 H1571 0.913 . S
C1553 H1529 0.950 . S
C1553 C1552 1.524 . S
C1553 C1554 1.415 . S
C1554 H1530 0.950 . S
C1554 C1549 1.363 . S
C1554 C1553 1.415 . S
C1555 H1531 0.951 . S
C1555 C1556 1.366 . S
C1555 C1557 1.388 . S
C1556 C1555 1.366 . S
C1556 C1560 1.385 . S
C1557 H1532 0.951 . S
C1557 C1555 1.388 . S
C1557 C1558 1.366 . S
C1558 C1557 1.366 . S
C1558 C1559 1.414 . S
C1558 C1561 1.499 . S
C1559 H1533 0.950 . S
C1559 C1558 1.414 . S
C1559 C1560 1.374 . S
C1560 H1534 0.950 . S
C1560 C1556 1.385 . S
C1560 C1559 1.374 . S
C1561 C1558 1.499 . S
C1561 C1562 1.373 . S
C1561 C1563 1.389 . S
C1562 H1535 0.950 . S
C1562 C1548 1.377 . S
C1562 C1561 1.373 . S
C1563 C1547 1.377 . S
C1563 C1561 1.389 . S
C1563 C1564 1.524 . S
C1564 C1563 1.524 . S
C1564 C1565 1.397 . S
C1564 C1569 1.363 . S
C1565 H1536 0.950 . S
C1565 C1564 1.397 . S
C1565 C1566 1.334 . S
C1566 H1537 0.950 . S
C1566 C1565 1.334 . S
C1566 C1567 1.287 . S
C1567 C1566 1.287 . S
C1567 C1568 1.524 . S
C1567 H1570 0.999 . S
C1568 H1538 0.950 . S
C1568 C1567 1.524 . S
C1568 C1569 1.415 . S
C1569 H1539 0.950 . S
C1569 C1564 1.363 . S
C1569 C1568 1.415 . S
H1570 C1567 0.999 . S
H1571 C1552 0.913 . S
H1572 C1590 0.951 . S
H1573 C1592 0.951 . S
H1574 C1594 0.950 . S
H1575 C1595 0.950 . S
H1576 C1597 0.950 . S
H1577 C1600 0.950 . S
H1578 C1601 0.950 . S
H1579 C1603 0.950 . S
H1580 C1604 0.950 . S
H1581 C1605 0.951 . S
H1582 C1607 0.951 . S
H1583 C1609 0.950 . S
H1584 C1610 0.950 . S
H1585 C1612 0.950 . S
H1586 C1615 0.950 . S
H1587 C1616 0.950 . S
H1588 C1618 0.950 . S
H1589 C1619 0.950 . S
C1590 H1572 0.951 . S
C1590 C1591 1.366 . S
C1590 C1592 1.388 . S
C1591 C1590 1.366 . S
C1591 C1595 1.385 . S
C1592 H1573 0.951 . S
C1592 C1590 1.388 . S
C1592 C1593 1.366 . S
C1593 C1592 1.366 . S
C1593 C1594 1.414 . S
C1593 C1596 1.499 . S
C1594 H1574 0.950 . S
C1594 C1593 1.414 . S
C1594 C1595 1.374 . S
C1595 H1575 0.950 . S
C1595 C1591 1.385 . S
C1595 C1594 1.374 . S
C1596 C1593 1.499 . S
C1596 C1597 1.373 . S
C1596 C1598 1.389 . S
C1597 H1576 0.950 . S
C1597 C1596 1.373 . S
C1597 C1613 1.377 . S
C1598 C1596 1.389 . S
C1598 C1599 1.524 . S
C1598 C1612 1.377 . S
C1599 C1598 1.524 . S
C1599 C1600 1.397 . S
C1599 C1604 1.363 . S
C1600 H1577 0.950 . S
C1600 C1599 1.397 . S
C1600 C1601 1.334 . S
C1601 H1578 0.950 . S
C1601 C1600 1.334 . S
C1601 C1602 1.287 . S
C1602 C1601 1.287 . S
C1602 C1603 1.524 . S
C1602 H1621 0.913 . S
C1603 H1579 0.950 . S
C1603 C1602 1.524 . S
C1603 C1604 1.415 . S
C1604 H1580 0.950 . S
C1604 C1599 1.363 . S
C1604 C1603 1.415 . S
C1605 H1581 0.951 . S
C1605 C1606 1.366 . S
C1605 C1607 1.388 . S
C1606 C1605 1.366 . S
C1606 C1610 1.385 . S
C1607 H1582 0.951 . S
C1607 C1605 1.388 . S
C1607 C1608 1.366 . S
C1608 C1607 1.366 . S
C1608 C1609 1.414 . S
C1608 C1611 1.499 . S
C1609 H1583 0.950 . S
C1609 C1608 1.414 . S
C1609 C1610 1.374 . S
C1610 H1584 0.950 . S
C1610 C1606 1.385 . S
C1610 C1609 1.374 . S
C1611 C1608 1.499 . S
C1611 C1612 1.373 . S
C1611 C1613 1.389 . S
C1612 H1585 0.950 . S
C1612 C1598 1.377 . S
C1612 C1611 1.373 . S
C1613 C1597 1.377 . S
C1613 C1611 1.389 . S
C1613 C1614 1.524 . S
C1614 C1613 1.524 . S
C1614 C1615 1.397 . S
C1614 C1619 1.363 . S
C1615 H1586 0.950 . S
C1615 C1614 1.397 . S
C1615 C1616 1.334 . S
C1616 H1587 0.950 . S
C1616 C1615 1.334 . S
C1616 C1617 1.287 . S
C1617 C1616 1.287 . S
C1617 C1618 1.524 . S
C1617 H1620 0.999 . S
C1618 H1588 0.950 . S
C1618 C1617 1.524 . S
C1618 C1619 1.415 . S
C1619 H1589 0.950 . S
C1619 C1614 1.363 . S
C1619 C1618 1.415 . S
H1620 C1617 0.999 . S
H1621 C1602 0.913 . S
H1622 C1640 0.951 . S
H1623 C1642 0.951 . S
H1624 C1644 0.950 . S
H1625 C1645 0.950 . S
H1626 C1647 0.950 . S
H1627 C1650 0.950 . S
H1628 C1651 0.950 . S
H1629 C1653 0.950 . S
H1630 C1654 0.950 . S
H1631 C1655 0.951 . S
H1632 C1657 0.951 . S
H1633 C1659 0.950 . S
H1634 C1660 0.950 . S
H1635 C1662 0.950 . S
H1636 C1665 0.950 . S
H1637 C1666 0.950 . S
H1638 C1668 0.950 . S
H1639 C1669 0.950 . S
C1640 H1622 0.951 . S
C1640 C1641 1.366 . S
C1640 C1642 1.388 . S
C1641 C1640 1.366 . S
C1641 C1645 1.385 . S
C1642 H1623 0.951 . S
C1642 C1640 1.388 . S
C1642 C1643 1.366 . S
C1643 C1642 1.366 . S
C1643 C1644 1.414 . S
C1643 C1646 1.499 . S
C1644 H1624 0.950 . S
C1644 C1643 1.414 . S
C1644 C1645 1.374 . S
C1645 H1625 0.950 . S
C1645 C1641 1.385 . S
C1645 C1644 1.374 . S
C1646 C1643 1.499 . S
C1646 C1647 1.373 . S
C1646 C1648 1.389 . S
C1647 H1626 0.950 . S
C1647 C1646 1.373 . S
C1647 C1663 1.377 . S
C1648 C1646 1.389 . S
C1648 C1649 1.524 . S
C1648 C1662 1.377 . S
C1649 C1648 1.524 . S
C1649 C1650 1.397 . S
C1649 C1654 1.363 . S
C1650 H1627 0.950 . S
C1650 C1649 1.397 . S
C1650 C1651 1.334 . S
C1651 H1628 0.950 . S
C1651 C1650 1.334 . S
C1651 C1652 1.287 . S
C1652 C1651 1.287 . S
C1652 C1653 1.524 . S
C1652 H1671 0.913 . S
C1653 H1629 0.950 . S
C1653 C1652 1.524 . S
C1653 C1654 1.415 . S
C1654 H1630 0.950 . S
C1654 C1649 1.363 . S
C1654 C1653 1.415 . S
C1655 H1631 0.951 . S
C1655 C1656 1.366 . S
C1655 C1657 1.388 . S
C1656 C1655 1.366 . S
C1656 C1660 1.385 . S
C1657 H1632 0.951 . S
C1657 C1655 1.388 . S
C1657 C1658 1.366 . S
C1658 C1657 1.366 . S
C1658 C1659 1.414 . S
C1658 C1661 1.499 . S
C1659 H1633 0.950 . S
C1659 C1658 1.414 . S
C1659 C1660 1.374 . S
C1660 H1634 0.950 . S
C1660 C1656 1.385 . S
C1660 C1659 1.374 . S
C1661 C1658 1.499 . S
C1661 C1662 1.373 . S
C1661 C1663 1.389 . S
C1662 H1635 0.950 . S
C1662 C1648 1.377 . S
C1662 C1661 1.373 . S
C1663 C1647 1.377 . S
C1663 C1661 1.389 . S
C1663 C1664 1.524 . S
C1664 C1663 1.524 . S
C1664 C1665 1.397 . S
C1664 C1669 1.363 . S
C1665 H1636 0.950 . S
C1665 C1664 1.397 . S
C1665 C1666 1.334 . S
C1666 H1637 0.950 . S
C1666 C1665 1.334 . S
C1666 C1667 1.287 . S
C1667 C1666 1.287 . S
C1667 C1668 1.524 . S
C1667 H1670 0.999 . S
C1668 H1638 0.950 . S
C1668 C1667 1.524 . S
C1668 C1669 1.415 . S
C1669 H1639 0.950 . S
C1669 C1664 1.363 . S
C1669 C1668 1.415 . S
H1670 C1667 0.999 . S
H1671 C1652 0.913 . S
H1672 C1690 0.951 . S
H1673 C1692 0.951 . S
H1674 C1694 0.950 . S
H1675 C1695 0.950 . S
H1676 C1697 0.950 . S
H1677 C1700 0.950 . S
H1678 C1701 0.950 . S
H1679 C1703 0.950 . S
H1680 C1704 0.950 . S
H1681 C1705 0.951 . S
H1682 C1707 0.951 . S
H1683 C1709 0.950 . S
H1684 C1710 0.950 . S
H1685 C1712 0.950 . S
H1686 C1715 0.950 . S
H1687 C1716 0.950 . S
H1688 C1718 0.950 . S
H1689 C1719 0.950 . S
C1690 H1672 0.951 . S
C1690 C1691 1.366 . S
C1690 C1692 1.388 . S
C1691 C1690 1.366 . S
C1691 C1695 1.385 . S
C1692 H1673 0.951 . S
C1692 C1690 1.388 . S
C1692 C1693 1.366 . S
C1693 C1692 1.366 . S
C1693 C1694 1.414 . S
C1693 C1696 1.499 . S
C1694 H1674 0.950 . S
C1694 C1693 1.414 . S
C1694 C1695 1.374 . S
C1695 H1675 0.950 . S
C1695 C1691 1.385 . S
C1695 C1694 1.374 . S
C1696 C1693 1.499 . S
C1696 C1697 1.373 . S
C1696 C1698 1.389 . S
C1697 H1676 0.950 . S
C1697 C1696 1.373 . S
C1697 C1713 1.377 . S
C1698 C1696 1.389 . S
C1698 C1699 1.524 . S
C1698 C1712 1.377 . S
C1699 C1698 1.524 . S
C1699 C1700 1.397 . S
C1699 C1704 1.363 . S
C1700 H1677 0.950 . S
C1700 C1699 1.397 . S
C1700 C1701 1.334 . S
C1701 H1678 0.950 . S
C1701 C1700 1.334 . S
C1701 C1702 1.287 . S
C1702 C1701 1.287 . S
C1702 C1703 1.524 . S
C1702 H1721 0.913 . S
C1703 H1679 0.950 . S
C1703 C1702 1.524 . S
C1703 C1704 1.415 . S
C1704 H1680 0.950 . S
C1704 C1699 1.363 . S
C1704 C1703 1.415 . S
C1705 H1681 0.951 . S
C1705 C1706 1.366 . S
C1705 C1707 1.388 . S
C1706 C1705 1.366 . S
C1706 C1710 1.385 . S
C1707 H1682 0.951 . S
C1707 C1705 1.388 . S
C1707 C1708 1.366 . S
C1708 C1707 1.366 . S
C1708 C1709 1.414 . S
C1708 C1711 1.499 . S
C1709 H1683 0.950 . S
C1709 C1708 1.414 . S
C1709 C1710 1.374 . S
C1710 H1684 0.950 . S
C1710 C1706 1.385 . S
C1710 C1709 1.374 . S
C1711 C1708 1.499 . S
C1711 C1712 1.373 . S
C1711 C1713 1.389 . S
C1712 H1685 0.950 . S
C1712 C1698 1.377 . S
C1712 C1711 1.373 . S
C1713 C1697 1.377 . S
C1713 C1711 1.389 . S
C1713 C1714 1.524 . S
C1714 C1713 1.524 . S
C1714 C1715 1.397 . S
C1714 C1719 1.363 . S
C1715 H1686 0.950 . S
C1715 C1714 1.397 . S
C1715 C1716 1.334 . S
C1716 H1687 0.950 . S
C1716 C1715 1.334 . S
C1716 C1717 1.287 . S
C1717 C1716 1.287 . S
C1717 C1718 1.524 . S
C1717 H1720 0.999 . S
C1718 H1688 0.950 . S
C1718 C1717 1.524 . S
C1718 C1719 1.415 . S
C1719 H1689 0.950 . S
C1719 C1714 1.363 . S
C1719 C1718 1.415 . S
H1720 C1717 0.999 . S
H1721 C1702 0.913 . S
H1722 C1740 0.951 . S
H1723 C1742 0.951 . S
H1724 C1744 0.950 . S
H1725 C1745 0.950 . S
H1726 C1747 0.950 . S
H1727 C1750 0.950 . S
H1728 C1751 0.950 . S
H1729 C1753 0.950 . S
H1730 C1754 0.950 . S
H1731 C1755 0.951 . S
H1732 C1757 0.951 . S
H1733 C1759 0.950 . S
H1734 C1760 0.950 . S
H1735 C1762 0.950 . S
H1736 C1765 0.950 . S
H1737 C1766 0.950 . S
H1738 C1768 0.950 . S
H1739 C1769 0.950 . S
C1740 H1722 0.951 . S
C1740 C1741 1.366 . S
C1740 C1742 1.388 . S
C1741 C1740 1.366 . S
C1741 C1745 1.385 . S
C1742 H1723 0.951 . S
C1742 C1740 1.388 . S
C1742 C1743 1.366 . S
C1743 C1742 1.366 . S
C1743 C1744 1.414 . S
C1743 C1746 1.499 . S
C1744 H1724 0.950 . S
C1744 C1743 1.414 . S
C1744 C1745 1.374 . S
C1745 H1725 0.950 . S
C1745 C1741 1.385 . S
C1745 C1744 1.374 . S
C1746 C1743 1.499 . S
C1746 C1747 1.373 . S
C1746 C1748 1.389 . S
C1747 H1726 0.950 . S
C1747 C1746 1.373 . S
C1747 C1763 1.377 . S
C1748 C1746 1.389 . S
C1748 C1749 1.524 . S
C1748 C1762 1.377 . S
C1749 C1748 1.524 . S
C1749 C1750 1.397 . S
C1749 C1754 1.363 . S
C1750 H1727 0.950 . S
C1750 C1749 1.397 . S
C1750 C1751 1.334 . S
C1751 H1728 0.950 . S
C1751 C1750 1.334 . S
C1751 C1752 1.287 . S
C1752 C1751 1.287 . S
C1752 C1753 1.524 . S
C1752 H1771 0.913 . S
C1753 H1729 0.950 . S
C1753 C1752 1.524 . S
C1753 C1754 1.415 . S
C1754 H1730 0.950 . S
C1754 C1749 1.363 . S
C1754 C1753 1.415 . S
C1755 H1731 0.951 . S
C1755 C1756 1.366 . S
C1755 C1757 1.388 . S
C1756 C1755 1.366 . S
C1756 C1760 1.385 . S
C1757 H1732 0.951 . S
C1757 C1755 1.388 . S
C1757 C1758 1.366 . S
C1758 C1757 1.366 . S
C1758 C1759 1.414 . S
C1758 C1761 1.499 . S
C1759 H1733 0.950 . S
C1759 C1758 1.414 . S
C1759 C1760 1.374 . S
C1760 H1734 0.950 . S
C1760 C1756 1.385 . S
C1760 C1759 1.374 . S
C1761 C1758 1.499 . S
C1761 C1762 1.373 . S
C1761 C1763 1.389 . S
C1762 H1735 0.950 . S
C1762 C1748 1.377 . S
C1762 C1761 1.373 . S
C1763 C1747 1.377 . S
C1763 C1761 1.389 . S
C1763 C1764 1.524 . S
C1764 C1763 1.524 . S
C1764 C1765 1.397 . S
C1764 C1769 1.363 . S
C1765 H1736 0.950 . S
C1765 C1764 1.397 . S
C1765 C1766 1.334 . S
C1766 H1737 0.950 . S
C1766 C1765 1.334 . S
C1766 C1767 1.287 . S
C1767 C1766 1.287 . S
C1767 C1768 1.524 . S
C1767 H1770 0.999 . S
C1768 H1738 0.950 . S
C1768 C1767 1.524 . S
C1768 C1769 1.415 . S
C1769 H1739 0.950 . S
C1769 C1764 1.363 . S
C1769 C1768 1.415 . S
H1770 C1767 0.999 . S
H1771 C1752 0.913 . S
H1772 C1790 0.951 . S
H1773 C1792 0.951 . S
H1774 C1794 0.950 . S
H1775 C1795 0.950 . S
H1776 C1797 0.950 . S
H1777 C1800 0.950 . S
H1778 C1801 0.950 . S
H1779 C1803 0.950 . S
H1780 C1804 0.950 . S
H1781 C1805 0.951 . S
H1782 C1807 0.951 . S
H1783 C1809 0.950 . S
H1784 C1810 0.950 . S
H1785 C1812 0.950 . S
H1786 C1815 0.950 . S
H1787 C1816 0.950 . S
H1788 C1818 0.950 . S
H1789 C1819 0.950 . S
C1790 H1772 0.951 . S
C1790 C1791 1.366 . S
C1790 C1792 1.388 . S
C1791 C1790 1.366 . S
C1791 C1795 1.385 . S
C1792 H1773 0.951 . S
C1792 C1790 1.388 . S
C1792 C1793 1.366 . S
C1793 C1792 1.366 . S
C1793 C1794 1.414 . S
C1793 C1796 1.499 . S
C1794 H1774 0.950 . S
C1794 C1793 1.414 . S
C1794 C1795 1.374 . S
C1795 H1775 0.950 . S
C1795 C1791 1.385 . S
C1795 C1794 1.374 . S
C1796 C1793 1.499 . S
C1796 C1797 1.373 . S
C1796 C1798 1.389 . S
C1797 H1776 0.950 . S
C1797 C1796 1.373 . S
C1797 C1813 1.377 . S
C1798 C1796 1.389 . S
C1798 C1799 1.524 . S
C1798 C1812 1.377 . S
C1799 C1798 1.524 . S
C1799 C1800 1.397 . S
C1799 C1804 1.363 . S
C1800 H1777 0.950 . S
C1800 C1799 1.397 . S
C1800 C1801 1.334 . S
C1801 H1778 0.950 . S
C1801 C1800 1.334 . S
C1801 C1802 1.287 . S
C1802 C1801 1.287 . S
C1802 C1803 1.524 . S
C1802 H1821 0.913 . S
C1803 H1779 0.950 . S
C1803 C1802 1.524 . S
C1803 C1804 1.415 . S
C1804 H1780 0.950 . S
C1804 C1799 1.363 . S
C1804 C1803 1.415 . S
C1805 H1781 0.951 . S
C1805 C1806 1.366 . S
C1805 C1807 1.388 . S
C1806 C1805 1.366 . S
C1806 C1810 1.385 . S
C1807 H1782 0.951 . S
C1807 C1805 1.388 . S
C1807 C1808 1.366 . S
C1808 C1807 1.366 . S
C1808 C1809 1.414 . S
C1808 C1811 1.499 . S
C1809 H1783 0.950 . S
C1809 C1808 1.414 . S
C1809 C1810 1.374 . S
C1810 H1784 0.950 . S
C1810 C1806 1.385 . S
C1810 C1809 1.374 . S
C1811 C1808 1.499 . S
C1811 C1812 1.373 . S
C1811 C1813 1.389 . S
C1812 H1785 0.950 . S
C1812 C1798 1.377 . S
C1812 C1811 1.373 . S
C1813 C1797 1.377 . S
C1813 C1811 1.389 . S
C1813 C1814 1.524 . S
C1814 C1813 1.524 . S
C1814 C1815 1.397 . S
C1814 C1819 1.363 . S
C1815 H1786 0.950 . S
C1815 C1814 1.397 . S
C1815 C1816 1.334 . S
C1816 H1787 0.950 . S
C1816 C1815 1.334 . S
C1816 C1817 1.287 . S
C1817 C1816 1.287 . S
C1817 C1818 1.524 . S
C1817 H1820 0.999 . S
C1818 H1788 0.950 . S
C1818 C1817 1.524 . S
C1818 C1819 1.415 . S
C1819 H1789 0.950 . S
C1819 C1814 1.363 . S
C1819 C1818 1.415 . S
H1820 C1817 0.999 . S
H1821 C1802 0.913 . S
H1822 C1840 0.951 . S
H1823 C1842 0.951 . S
H1824 C1844 0.950 . S
H1825 C1845 0.950 . S
H1826 C1847 0.950 . S
H1827 C1850 0.950 . S
H1828 C1851 0.950 . S
H1829 C1853 0.950 . S
H1830 C1854 0.950 . S
H1831 C1855 0.951 . S
H1832 C1857 0.951 . S
H1833 C1859 0.950 . S
H1834 C1860 0.950 . S
H1835 C1862 0.950 . S
H1836 C1865 0.950 . S
H1837 C1866 0.950 . S
H1838 C1868 0.950 . S
H1839 C1869 0.950 . S
C1840 H1822 0.951 . S
C1840 C1841 1.366 . S
C1840 C1842 1.388 . S
C1841 C1840 1.366 . S
C1841 C1845 1.385 . S
C1842 H1823 0.951 . S
C1842 C1840 1.388 . S
C1842 C1843 1.366 . S
C1843 C1842 1.366 . S
C1843 C1844 1.414 . S
C1843 C1846 1.499 . S
C1844 H1824 0.950 . S
C1844 C1843 1.414 . S
C1844 C1845 1.374 . S
C1845 H1825 0.950 . S
C1845 C1841 1.385 . S
C1845 C1844 1.374 . S
C1846 C1843 1.499 . S
C1846 C1847 1.373 . S
C1846 C1848 1.389 . S
C1847 H1826 0.950 . S
C1847 C1846 1.373 . S
C1847 C1863 1.377 . S
C1848 C1846 1.389 . S
C1848 C1849 1.524 . S
C1848 C1862 1.377 . S
C1849 C1848 1.524 . S
C1849 C1850 1.397 . S
C1849 C1854 1.363 . S
C1850 H1827 0.950 . S
C1850 C1849 1.397 . S
C1850 C1851 1.334 . S
C1851 H1828 0.950 . S
C1851 C1850 1.334 . S
C1851 C1852 1.287 . S
C1852 C1851 1.287 . S
C1852 C1853 1.524 . S
C1852 H1871 0.913 . S
C1853 H1829 0.950 . S
C1853 C1852 1.524 . S
C1853 C1854 1.415 . S
C1854 H1830 0.950 . S
C1854 C1849 1.363 . S
C1854 C1853 1.415 . S
C1855 H1831 0.951 . S
C1855 C1856 1.366 . S
C1855 C1857 1.388 . S
C1856 C1855 1.366 . S
C1856 C1860 1.385 . S
C1857 H1832 0.951 . S
C1857 C1855 1.388 . S
C1857 C1858 1.366 . S
C1858 C1857 1.366 . S
C1858 C1859 1.414 . S
C1858 C1861 1.499 . S
C1859 H1833 0.950 . S
C1859 C1858 1.414 . S
C1859 C1860 1.374 . S
C1860 H1834 0.950 . S
C1860 C1856 1.385 . S
C1860 C1859 1.374 . S
C1861 C1858 1.499 . S
C1861 C1862 1.373 . S
C1861 C1863 1.389 . S
C1862 H1835 0.950 . S
C1862 C1848 1.377 . S
C1862 C1861 1.373 . S
C1863 C1847 1.377 . S
C1863 C1861 1.389 . S
C1863 C1864 1.524 . S
C1864 C1863 1.524 . S
C1864 C1865 1.397 . S
C1864 C1869 1.363 . S
C1865 H1836 0.950 . S
C1865 C1864 1.397 . S
C1865 C1866 1.334 . S
C1866 H1837 0.950 . S
C1866 C1865 1.334 . S
C1866 C1867 1.287 . S
C1867 C1866 1.287 . S
C1867 C1868 1.524 . S
C1867 H1870 0.999 . S
C1868 H1838 0.950 . S
C1868 C1867 1.524 . S
C1868 C1869 1.415 . S
C1869 H1839 0.950 . S
C1869 C1864 1.363 . S
C1869 C1868 1.415 . S
H1870 C1867 0.999 . S
H1871 C1852 0.913 . S
H1872 C1890 0.951 . S
H1873 C1892 0.951 . S
H1874 C1894 0.950 . S
H1875 C1895 0.950 . S
H1876 C1897 0.950 . S
H1877 C1900 0.950 . S
H1878 C1901 0.950 . S
H1879 C1903 0.950 . S
H1880 C1904 0.950 . S
H1881 C1905 0.951 . S
H1882 C1907 0.951 . S
H1883 C1909 0.950 . S
H1884 C1910 0.950 . S
H1885 C1912 0.950 . S
H1886 C1915 0.950 . S
H1887 C1916 0.950 . S
H1888 C1918 0.950 . S
H1889 C1919 0.950 . S
C1890 H1872 0.951 . S
C1890 C1891 1.366 . S
C1890 C1892 1.388 . S
C1891 C1890 1.366 . S
C1891 C1895 1.385 . S
C1892 H1873 0.951 . S
C1892 C1890 1.388 . S
C1892 C1893 1.366 . S
C1893 C1892 1.366 . S
C1893 C1894 1.414 . S
C1893 C1896 1.499 . S
C1894 H1874 0.950 . S
C1894 C1893 1.414 . S
C1894 C1895 1.374 . S
C1895 H1875 0.950 . S
C1895 C1891 1.385 . S
C1895 C1894 1.374 . S
C1896 C1893 1.499 . S
C1896 C1897 1.373 . S
C1896 C1898 1.389 . S
C1897 H1876 0.950 . S
C1897 C1896 1.373 . S
C1897 C1913 1.377 . S
C1898 C1896 1.389 . S
C1898 C1899 1.524 . S
C1898 C1912 1.377 . S
C1899 C1898 1.524 . S
C1899 C1900 1.397 . S
C1899 C1904 1.363 . S
C1900 H1877 0.950 . S
C1900 C1899 1.397 . S
C1900 C1901 1.334 . S
C1901 H1878 0.950 . S
C1901 C1900 1.334 . S
C1901 C1902 1.287 . S
C1902 C1901 1.287 . S
C1902 C1903 1.524 . S
C1902 H1921 0.913 . S
C1903 H1879 0.950 . S
C1903 C1902 1.524 . S
C1903 C1904 1.415 . S
C1904 H1880 0.950 . S
C1904 C1899 1.363 . S
C1904 C1903 1.415 . S
C1905 H1881 0.951 . S
C1905 C1906 1.366 . S
C1905 C1907 1.388 . S
C1906 C1905 1.366 . S
C1906 C1910 1.385 . S
C1907 H1882 0.951 . S
C1907 C1905 1.388 . S
C1907 C1908 1.366 . S
C1908 C1907 1.366 . S
C1908 C1909 1.414 . S
C1908 C1911 1.499 . S
C1909 H1883 0.950 . S
C1909 C1908 1.414 . S
C1909 C1910 1.374 . S
C1910 H1884 0.950 . S
C1910 C1906 1.385 . S
C1910 C1909 1.374 . S
C1911 C1908 1.499 . S
C1911 C1912 1.373 . S
C1911 C1913 1.389 . S
C1912 H1885 0.950 . S
C1912 C1898 1.377 . S
C1912 C1911 1.373 . S
C1913 C1897 1.377 . S
C1913 C1911 1.389 . S
C1913 C1914 1.524 . S
C1914 C1913 1.524 . S
C1914 C1915 1.397 . S
C1914 C1919 1.363 . S
C1915 H1886 0.950 . S
C1915 C1914 1.397 . S
C1915 C1916 1.334 . S
C1916 H1887 0.950 . S
C1916 C1915 1.334 . S
C1916 C1917 1.287 . S
C1917 C1916 1.287 . S
C1917 C1918 1.524 . S
C1917 H1920 0.999 . S
C1918 H1888 0.950 . S
C1918 C1917 1.524 . S
C1918 C1919 1.415 . S
C1919 H1889 0.950 . S
C1919 C1914 1.363 . S
C1919 C1918 1.415 . S
H1920 C1917 0.999 . S
H1921 C1902 0.913 . S
H1922 C1940 0.951 . S
H1923 C1942 0.951 . S
H1924 C1944 0.950 . S
H1925 C1945 0.950 . S
H1926 C1947 0.950 . S
H1927 C1950 0.950 . S
H1928 C1951 0.950 . S
H1929 C1953 0.950 . S
H1930 C1954 0.950 . S
H1931 C1955 0.951 . S
H1932 C1957 0.951 . S
H1933 C1959 0.950 . S
H1934 C1960 0.950 . S
H1935 C1962 0.950 . S
H1936 C1965 0.950 . S
H1937 C1966 0.950 . S
H1938 C1968 0.950 . S
H1939 C1969 0.950 . S
C1940 H1922 0.951 . S
C1940 C1941 1.366 . S
C1940 C1942 1.388 . S
C1941 C1940 1.366 . S
C1941 C1945 1.385 . S
C1942 H1923 0.951 . S
C1942 C1940 1.388 . S
C1942 C1943 1.366 . S
C1943 C1942 1.366 . S
C1943 C1944 1.414 . S
C1943 C1946 1.499 . S
C1944 H1924 0.950 . S
C1944 C1943 1.414 . S
C1944 C1945 1.374 . S
C1945 H1925 0.950 . S
C1945 C1941 1.385 . S
C1945 C1944 1.374 . S
C1946 C1943 1.499 . S
C1946 C1947 1.373 . S
C1946 C1948 1.389 . S
C1947 H1926 0.950 . S
C1947 C1946 1.373 . S
C1947 C1963 1.377 . S
C1948 C1946 1.389 . S
C1948 C1949 1.524 . S
C1948 C1962 1.377 . S
C1949 C1948 1.524 . S
C1949 C1950 1.397 . S
C1949 C1954 1.363 . S
C1950 H1927 0.950 . S
C1950 C1949 1.397 . S
C1950 C1951 1.334 . S
C1951 H1928 0.950 . S
C1951 C1950 1.334 . S
C1951 C1952 1.287 . S
C1952 C1951 1.287 . S
C1952 C1953 1.524 . S
C1952 H1971 0.913 . S
C1953 H1929 0.950 . S
C1953 C1952 1.524 . S
C1953 C1954 1.415 . S
C1954 H1930 0.950 . S
C1954 C1949 1.363 . S
C1954 C1953 1.415 . S
C1955 H1931 0.951 . S
C1955 C1956 1.366 . S
C1955 C1957 1.388 . S
C1956 C1955 1.366 . S
C1956 C1960 1.385 . S
C1957 H1932 0.951 . S
C1957 C1955 1.388 . S
C1957 C1958 1.366 . S
C1958 C1957 1.366 . S
C1958 C1959 1.414 . S
C1958 C1961 1.499 . S
C1959 H1933 0.950 . S
C1959 C1958 1.414 . S
C1959 C1960 1.374 . S
C1960 H1934 0.950 . S
C1960 C1956 1.385 . S
C1960 C1959 1.374 . S
C1961 C1958 1.499 . S
C1961 C1962 1.373 . S
C1961 C1963 1.389 . S
C1962 H1935 0.950 . S
C1962 C1948 1.377 . S
C1962 C1961 1.373 . S
C1963 C1947 1.377 . S
C1963 C1961 1.389 . S
C1963 C1964 1.524 . S
C1964 C1963 1.524 . S
C1964 C1965 1.397 . S
C1964 C1969 1.363 . S
C1965 H1936 0.950 . S
C1965 C1964 1.397 . S
C1965 C1966 1.334 . S
C1966 H1937 0.950 . S
C1966 C1965 1.334 . S
C1966 C1967 1.287 . S
C1967 C1966 1.287 . S
C1967 C1968 1.524 . S
C1967 H1970 0.999 . S
C1968 H1938 0.950 . S
C1968 C1967 1.524 . S
C1968 C1969 1.415 . S
C1969 H1939 0.950 . S
C1969 C1964 1.363 . S
C1969 C1968 1.415 . S
H1970 C1967 0.999 . S
H1971 C1952 0.913 . S
H1972 C1990 0.951 . S
H1973 C1992 0.951 . S
H1974 C1994 0.950 . S
H1975 C1995 0.950 . S
H1976 C1997 0.950 . S
H1977 C2000 0.950 . S
H1978 C2001 0.950 . S
H1979 C2003 0.950 . S
H1980 C2004 0.950 . S
H1981 C2005 0.951 . S
H1982 C2007 0.951 . S
H1983 C2009 0.950 . S
H1984 C2010 0.950 . S
H1985 C2012 0.950 . S
H1986 C2015 0.950 . S
H1987 C2016 0.950 . S
H1988 C2018 0.950 . S
H1989 C2019 0.950 . S
C1990 H1972 0.951 . S
C1990 C1991 1.366 . S
C1990 C1992 1.388 . S
C1991 C1990 1.366 . S
C1991 C1995 1.385 . S
C1992 H1973 0.951 . S
C1992 C1990 1.388 . S
C1992 C1993 1.366 . S
C1993 C1992 1.366 . S
C1993 C1994 1.414 . S
C1993 C1996 1.499 . S
C1994 H1974 0.950 . S
C1994 C1993 1.414 . S
C1994 C1995 1.374 . S
C1995 H1975 0.950 . S
C1995 C1991 1.385 . S
C1995 C1994 1.374 . S
C1996 C1993 1.499 . S
C1996 C1997 1.373 . S
C1996 C1998 1.389 . S
C1997 H1976 0.950 . S
C1997 C1996 1.373 . S
C1997 C2013 1.377 . S
C1998 C1996 1.389 . S
C1998 C1999 1.524 . S
C1998 C2012 1.377 . S
C1999 C1998 1.524 . S
C1999 C2000 1.397 . S
C1999 C2004 1.363 . S
C2000 H1977 0.950 . S
C2000 C1999 1.397 . S
C2000 C2001 1.334 . S
C2001 H1978 0.950 . S
C2001 C2000 1.334 . S
C2001 C2002 1.287 . S
C2002 C2001 1.287 . S
C2002 C2003 1.524 . S
C2002 H2021 0.913 . S
C2003 H1979 0.950 . S
C2003 C2002 1.524 . S
C2003 C2004 1.415 . S
C2004 H1980 0.950 . S
C2004 C1999 1.363 . S
C2004 C2003 1.415 . S
C2005 H1981 0.951 . S
C2005 C2006 1.366 . S
C2005 C2007 1.388 . S
C2006 C2005 1.366 . S
C2006 C2010 1.385 . S
C2007 H1982 0.951 . S
C2007 C2005 1.388 . S
C2007 C2008 1.366 . S
C2008 C2007 1.366 . S
C2008 C2009 1.414 . S
C2008 C2011 1.499 . S
C2009 H1983 0.950 . S
C2009 C2008 1.414 . S
C2009 C2010 1.374 . S
C2010 H1984 0.950 . S
C2010 C2006 1.385 . S
C2010 C2009 1.374 . S
C2011 C2008 1.499 . S
C2011 C2012 1.373 . S
C2011 C2013 1.389 . S
C2012 H1985 0.950 . S
C2012 C1998 1.377 . S
C2012 C2011 1.373 . S
C2013 C1997 1.377 . S
C2013 C2011 1.389 . S
C2013 C2014 1.524 . S
C2014 C2013 1.524 . S
C2014 C2015 1.397 . S
C2014 C2019 1.363 . S
C2015 H1986 0.950 . S
C2015 C2014 1.397 . S
C2015 C2016 1.334 . S
C2016 H1987 0.950 . S
C2016 C2015 1.334 . S
C2016 C2017 1.287 . S
C2017 C2016 1.287 . S
C2017 C2018 1.524 . S
C2017 H2020 0.999 . S
C2018 H1988 0.950 . S
C2018 C2017 1.524 . S
C2018 C2019 1.415 . S
C2019 H1989 0.950 . S
C2019 C2014 1.363 . S
C2019 C2018 1.415 . S
H2020 C2017 0.999 . S
H2021 C2002 0.913 . S
H2022 C2040 0.951 . S
H2023 C2042 0.951 . S
H2024 C2044 0.950 . S
H2025 C2045 0.950 . S
H2026 C2047 0.950 . S
H2027 C2050 0.950 . S
H2028 C2051 0.950 . S
H2029 C2053 0.950 . S
H2030 C2054 0.950 . S
H2031 C2055 0.951 . S
H2032 C2057 0.951 . S
H2033 C2059 0.950 . S
H2034 C2060 0.950 . S
H2035 C2062 0.950 . S
H2036 C2065 0.950 . S
H2037 C2066 0.950 . S
H2038 C2068 0.950 . S
H2039 C2069 0.950 . S
C2040 H2022 0.951 . S
C2040 C2041 1.366 . S
C2040 C2042 1.388 . S
C2041 C2040 1.366 . S
C2041 C2045 1.385 . S
C2042 H2023 0.951 . S
C2042 C2040 1.388 . S
C2042 C2043 1.366 . S
C2043 C2042 1.366 . S
C2043 C2044 1.414 . S
C2043 C2046 1.499 . S
C2044 H2024 0.950 . S
C2044 C2043 1.414 . S
C2044 C2045 1.374 . S
C2045 H2025 0.950 . S
C2045 C2041 1.385 . S
C2045 C2044 1.374 . S
C2046 C2043 1.499 . S
C2046 C2047 1.373 . S
C2046 C2048 1.389 . S
C2047 H2026 0.950 . S
C2047 C2046 1.373 . S
C2047 C2063 1.377 . S
C2048 C2046 1.389 . S
C2048 C2049 1.524 . S
C2048 C2062 1.377 . S
C2049 C2048 1.524 . S
C2049 C2050 1.397 . S
C2049 C2054 1.363 . S
C2050 H2027 0.950 . S
C2050 C2049 1.397 . S
C2050 C2051 1.334 . S
C2051 H2028 0.950 . S
C2051 C2050 1.334 . S
C2051 C2052 1.287 . S
C2052 C2051 1.287 . S
C2052 C2053 1.524 . S
C2052 H2071 0.913 . S
C2053 H2029 0.950 . S
C2053 C2052 1.524 . S
C2053 C2054 1.415 . S
C2054 H2030 0.950 . S
C2054 C2049 1.363 . S
C2054 C2053 1.415 . S
C2055 H2031 0.951 . S
C2055 C2056 1.366 . S
C2055 C2057 1.388 . S
C2056 C2055 1.366 . S
C2056 C2060 1.385 . S
C2057 H2032 0.951 . S
C2057 C2055 1.388 . S
C2057 C2058 1.366 . S
C2058 C2057 1.366 . S
C2058 C2059 1.414 . S
C2058 C2061 1.499 . S
C2059 H2033 0.950 . S
C2059 C2058 1.414 . S
C2059 C2060 1.374 . S
C2060 H2034 0.950 . S
C2060 C2056 1.385 . S
C2060 C2059 1.374 . S
C2061 C2058 1.499 . S
C2061 C2062 1.373 . S
C2061 C2063 1.389 . S
C2062 H2035 0.950 . S
C2062 C2048 1.377 . S
C2062 C2061 1.373 . S
C2063 C2047 1.377 . S
C2063 C2061 1.389 . S
C2063 C2064 1.524 . S
C2064 C2063 1.524 . S
C2064 C2065 1.397 . S
C2064 C2069 1.363 . S
C2065 H2036 0.950 . S
C2065 C2064 1.397 . S
C2065 C2066 1.334 . S
C2066 H2037 0.950 . S
C2066 C2065 1.334 . S
C2066 C2067 1.287 . S
C2067 C2066 1.287 . S
C2067 C2068 1.524 . S
C2067 H2070 0.999 . S
C2068 H2038 0.950 . S
C2068 C2067 1.524 . S
C2068 C2069 1.415 . S
C2069 H2039 0.950 . S
C2069 C2064 1.363 . S
C2069 C2068 1.415 . S
H2070 C2067 0.999 . S
H2071 C2052 0.913 . S
C506 C381 1.217 . S
C491 C8 1.246 . S
C556 C399 1.192 . S
C541 C61 1.235 . S
C606 C407 1.218 . S
C591 C107 1.246 . S
C641 C139 1.241 . S
C656 C373 1.197 . S
C691 C192 1.248 . S
C706 C368 1.213 1_556 S
C741 C238 1.240 . S
C756 C386 1.192 . S
C806 C394 1.217 . S
C791 C284 1.251 . S
C856 C412 1.191 . S
C841 C330 1.241 . S
C891 C100 1.248 . S
C906 C433 1.218 . S
C956 C451 1.191 . S
C941 C160 1.235 . S
C991 C15 1.246 . S
C1006 C459 1.221 . S
C1056 C425 1.191 . S
C1041 C54 1.243 . S
C1091 C291 1.246 . S
C1106 C420 1.217 . S
C1141 C337 1.238 . S
C1156 C438 1.188 . S
C1206 C446 1.217 1_556 S
C1191 C199 1.250 . S
C1241 C245 1.239 . S
C1256 C464 1.191 . S
C1306 C402 1.444 . S
C1291 C1 1.442 . S
C1356 C417 1.417 . S
C1341 C68 1.437 . S
C1391 C114 1.436 . S
C1406 C376 1.444 . S
C1441 C146 1.445 . S
C1456 C391 1.418 . S
C1491 C185 1.442 . S
C1506 C415 1.442 . S
C1556 C378 1.417 . S
C1541 C231 1.446 . S
C1606 C389 1.444 . S
C1591 C277 1.445 . S
C1656 C404 1.417 . S
C1641 C323 1.445 . S
C1706 C454 1.444 . S
C1691 C93 1.442 . S
C1756 C469 1.416 . S
C1741 C153 1.437 . S
C1791 C22 1.436 . S
C1806 C428 1.443 . S
C1856 C443 1.416 . S
C1841 C47 1.449 . S
C1906 C467 1.444 . S
C1891 C298 1.434 . S
C1941 C344 1.440 . S
C1956 C430 1.417 . S
C2006 C441 1.444 . S
C1991 C206 1.439 . S
C2056 C456 1.416 . S
C2041 C252 1.440 . S
