# Generated by pormake.
# Topology apo, (3,6)-cn, num edge types: 1
# Building blocks:
#     Node 0, Type 0, BuildingBlock: BETDAH_clean_linker_0, # of connection points: 3
#     Node 1, Type 0, BuildingBlock: BETDAH_clean_linker_0, # of connection points: 3
#     Node 2, Type 0, BuildingBlock: BETDAH_clean_linker_0, # of connection points: 3
#     Node 3, Type 0, BuildingBlock: BETDAH_clean_linker_0, # of connection points: 3
#     Node 4, Type 0, BuildingBlock: BETDAH_clean_linker_0, # of connection points: 3
#     Node 5, Type 0, BuildingBlock: BETDAH_clean_linker_0, # of connection points: 3
#     Node 6, Type 0, BuildingBlock: BETDAH_clean_linker_0, # of connection points: 3
#     Node 7, Type 0, BuildingBlock: BETDAH_clean_linker_0, # of connection points: 3
#     Node 8, Type 1, BuildingBlock: KUMJIN_clean_sbu_1, # of connection points: 6
#     Node 9, Type 1, BuildingBlock: KUMJIN_clean_sbu_1, # of connection points: 6
#     Node 10, Type 1, BuildingBlock: KUMJIN_clean_sbu_1, # of connection points: 6
#     Node 11, Type 1, BuildingBlock: KUMJIN_clean_sbu_1, # of connection points: 6
#     Edge 12, Type (0, 1), BuildingBlock: XIVTED_clean_linker_0, # of connection points: 2
#     Edge 13, Type (0, 1), BuildingBlock: XIVTED_clean_linker_0, # of connection points: 2
#     Edge 14, Type (0, 1), BuildingBlock: XIVTED_clean_linker_0, # of connection points: 2
#     Edge 15, Type (0, 1), BuildingBlock: XIVTED_clean_linker_0, # of connection points: 2
#     Edge 16, Type (0, 1), BuildingBlock: XIVTED_clean_linker_0, # of connection points: 2
#     Edge 17, Type (0, 1), BuildingBlock: XIVTED_clean_linker_0, # of connection points: 2
#     Edge 18, Type (0, 1), BuildingBlock: XIVTED_clean_linker_0, # of connection points: 2
#     Edge 19, Type (0, 1), BuildingBlock: XIVTED_clean_linker_0, # of connection points: 2
#     Edge 20, Type (0, 1), BuildingBlock: XIVTED_clean_linker_0, # of connection points: 2
#     Edge 21, Type (0, 1), BuildingBlock: XIVTED_clean_linker_0, # of connection points: 2
#     Edge 22, Type (0, 1), BuildingBlock: XIVTED_clean_linker_0, # of connection points: 2
#     Edge 23, Type (0, 1), BuildingBlock: XIVTED_clean_linker_0, # of connection points: 2
#     Edge 24, Type (0, 1), BuildingBlock: XIVTED_clean_linker_0, # of connection points: 2
#     Edge 25, Type (0, 1), BuildingBlock: XIVTED_clean_linker_0, # of connection points: 2
#     Edge 26, Type (0, 1), BuildingBlock: XIVTED_clean_linker_0, # of connection points: 2
#     Edge 27, Type (0, 1), BuildingBlock: XIVTED_clean_linker_0, # of connection points: 2
#     Edge 28, Type (0, 1), BuildingBlock: XIVTED_clean_linker_0, # of connection points: 2
#     Edge 29, Type (0, 1), BuildingBlock: XIVTED_clean_linker_0, # of connection points: 2
#     Edge 30, Type (0, 1), BuildingBlock: XIVTED_clean_linker_0, # of connection points: 2
#     Edge 31, Type (0, 1), BuildingBlock: XIVTED_clean_linker_0, # of connection points: 2
#     Edge 32, Type (0, 1), BuildingBlock: XIVTED_clean_linker_0, # of connection points: 2
#     Edge 33, Type (0, 1), BuildingBlock: XIVTED_clean_linker_0, # of connection points: 2
#     Edge 34, Type (0, 1), BuildingBlock: XIVTED_clean_linker_0, # of connection points: 2
#     Edge 35, Type (0, 1), BuildingBlock: XIVTED_clean_linker_0, # of connection points: 2
# Relax obj value: 0.037
# Max RMSD: 0.220
# Mean RMSD: 0.156
data_MOF--net-apo--node1-KUMJIN_clean_sbu_1--node2-BETDAH_clean_linker_0--edge1-XIVTED_clean_linker_0
_symmetry_space_group_name_H-M    P1
_symmetry_Int_Tables_number       1
_symmetry_cell_setting            triclinic
loop_
_symmetry_equiv_pos_as_xyz
'x, y, z'
_cell_length_a     27.447798
_cell_length_b     42.246737
_cell_length_c     52.27294
_cell_angle_alpha  89.464963
_cell_angle_beta   90.135261
_cell_angle_gamma 90.391002
loop_
_atom_site_label
_atom_site_type_symbol
_atom_site_fract_x
_atom_site_fract_y
_atom_site_fract_z
_atom_type_partial_charge
H0 H 0.34842 0.42824 0.42347 0.0
H1 H 0.33084 0.36263 0.36137 0.0
H2 H 0.31283 0.33074 0.43886 0.0
C3 C 0.33962 0.40478 0.41661 0.0
C4 C 0.33002 0.38051 0.43446 0.0
C5 C 0.341 0.39877 0.39016 0.0
C6 C 0.32878 0.36818 0.38152 0.0
C7 C 0.31801 0.34385 0.39918 0.0
C8 C 0.31946 0.35001 0.42546 0.0
N9 N 0.31359 0.31202 0.39121 0.0
C10 C 0.27573 0.30073 0.37605 0.0
H11 H 0.15151 0.08044 0.92205 0.0
H12 H 0.23878 0.13189 0.86686 0.0
H13 H 0.26235 0.14508 0.94725 0.0
C14 C 0.17975 0.09758 0.9176 0.0
C15 C 0.20421 0.11251 0.93782 0.0
C16 C 0.19174 0.10403 0.89183 0.0
C17 C 0.22894 0.12643 0.88646 0.0
C18 C 0.25412 0.14129 0.90665 0.0
C19 C 0.24182 0.13399 0.93199 0.0
N20 N 0.29355 0.16272 0.90272 0.0
C21 C 0.30461 0.17922 0.88032 0.0
H22 H 0.84947 0.09053 0.58477 0.0
H23 H 0.78136 0.14819 0.64226 0.0
H24 H 0.79434 0.18235 0.565 0.0
C25 C 0.83089 0.11195 0.5903 0.0
C26 C 0.8223 0.13543 0.57172 0.0
C27 C 0.81612 0.11609 0.61591 0.0
C28 C 0.79279 0.14449 0.62271 0.0
C29 C 0.78506 0.16833 0.60417 0.0
C30 C 0.79991 0.16359 0.57899 0.0
N31 N 0.76457 0.19811 0.60998 0.0
C32 C 0.73463 0.20464 0.63059 0.0
H33 H 0.64771 0.42513 0.08576 0.0
H34 H 0.69944 0.36312 0.14603 0.0
H35 H 0.68427 0.32887 0.06941 0.0
C36 C 0.66154 0.40246 0.09221 0.0
C37 C 0.66578 0.37799 0.0744 0.0
C38 C 0.67296 0.39748 0.11827 0.0
C39 C 0.69005 0.36747 0.12618 0.0
C40 C 0.69372 0.34273 0.10845 0.0
C41 C 0.68087 0.34807 0.08289 0.0
N42 N 0.70793 0.31169 0.11567 0.0
C43 C 0.74135 0.30424 0.13478 0.0
H44 H 0.64616 0.58596 0.58665 0.0
H45 H 0.73381 0.63904 0.63963 0.0
H46 H 0.74661 0.65699 0.55884 0.0
C47 C 0.67321 0.60425 0.59011 0.0
C48 C 0.69438 0.62064 0.56936 0.0
C49 C 0.68757 0.61048 0.6154 0.0
C50 C 0.72244 0.63432 0.62017 0.0
C51 C 0.74284 0.65163 0.59961 0.0
C52 C 0.72911 0.64435 0.57448 0.0
N53 N 0.7786 0.67573 0.60302 0.0
C54 C 0.79071 0.69045 0.6259 0.0
H55 H 0.85306 0.93949 0.08574 0.0
H56 H 0.79013 0.85122 0.06148 0.0
H57 H 0.79044 0.87524 0.14126 0.0
C58 C 0.83466 0.91732 0.09019 0.0
C59 C 0.82307 0.90995 0.11577 0.0
C60 C 0.82314 0.89632 0.07038 0.0
C61 C 0.79898 0.86788 0.07647 0.0
C62 C 0.7868 0.8601 0.10178 0.0
C63 C 0.79932 0.88108 0.12159 0.0
N64 N 0.76251 0.83073 0.10611 0.0
C65 C 0.74454 0.81917 0.12927 0.0
H66 H 0.14653 0.91402 0.42174 0.0
H67 H 0.26023 0.88911 0.36888 0.0
H68 H 0.25957 0.84967 0.44471 0.0
C69 C 0.17886 0.9006 0.41722 0.0
C70 C 0.19966 0.88097 0.43607 0.0
C71 C 0.20064 0.9041 0.39294 0.0
C72 C 0.24233 0.88626 0.38722 0.0
C73 C 0.26345 0.86674 0.40603 0.0
C74 C 0.24248 0.86457 0.43033 0.0
N75 N 0.30872 0.85181 0.40197 0.0
C76 C 0.3176 0.83151 0.3818 0.0
H77 H 0.33989 0.59319 0.92303 0.0
H78 H 0.31722 0.69286 0.9331 0.0
H79 H 0.3275 0.65545 0.85748 0.0
C80 C 0.33417 0.61653 0.9149 0.0
C81 C 0.33465 0.62073 0.88812 0.0
C82 C 0.32844 0.64229 0.93142 0.0
C83 C 0.32137 0.67256 0.9208 0.0
C84 C 0.31938 0.67702 0.89425 0.0
C85 C 0.32616 0.65123 0.87794 0.0
N86 N 0.31668 0.70821 0.88428 0.0
C87 C 0.27654 0.71935 0.87079 0.0
Eu88 Eu 0.06317 0.11802 0.22915 0.0
C89 C 0.87303 0.06113 0.26682 0.0
N90 N 0.88276 0.09251 0.26407 0.0
C91 C 0.80792 0.09987 0.24119 0.0
C92 C 0.831 0.04755 0.25581 0.0
C93 C 0.85032 0.1122 0.25229 0.0
C94 C 0.79851 0.06734 0.24266 0.0
C95 C 0.89532 0.01022 0.28486 0.0
C96 C 0.90495 0.04277 0.28107 0.0
C97 C 0.85469 0.99623 0.27295 0.0
C98 C 0.82256 0.01487 0.25849 0.0
Eu99 Eu 0.95616 0.11136 0.28206 0.0
N100 N 0.9437 0.05709 0.29247 0.0
C101 C 0.92582 0.99299 0.30125 0.0
C102 C 0.97046 0.04107 0.31035 0.0
C103 C 0.96292 0.00866 0.31449 0.0
H104 H 0.8578 0.1373 0.25108 0.0
H105 H 0.98523 0.99591 0.32817 0.0
H106 H 0.14406 0.0604 0.24547 0.0
H107 H 0.10524 0.24185 0.20887 0.0
H108 H 0.9972 0.05329 0.32181 0.0
H109 H 0.91971 0.96794 0.30467 0.0
H110 H 0.05772 0.19178 0.2065 0.0
H111 H 0.78266 0.11542 0.23141 0.0
H112 H 0.84707 0.97119 0.2754 0.0
H113 H 0.7908 1.00389 0.24987 0.0
H114 H 0.22279 0.05621 0.26788 0.0
H115 H 0.76577 0.05782 0.23393 0.0
H116 H 0.18213 0.24356 0.23373 0.0
N117 N 0.1417 0.11072 0.24745 0.0
C118 C 0.16794 0.13753 0.25186 0.0
C119 C 0.20742 0.07927 0.2639 0.0
C120 C 0.2141 0.13628 0.26374 0.0
C121 C 0.16225 0.08175 0.25164 0.0
C122 C 0.233 0.10668 0.27051 0.0
N123 N 0.10703 0.16616 0.23005 0.0
C124 C 0.09142 0.19252 0.21723 0.0
C125 C 0.17858 0.19396 0.24451 0.0
C126 C 0.15049 0.16604 0.24244 0.0
C127 C 0.16156 0.22164 0.23263 0.0
C128 C 0.11818 0.22077 0.21856 0.0
H129 H 0.2683 0.10469 0.27969 0.0
H130 H 0.27604 0.16391 0.2768 0.0
H131 H 0.24489 0.21447 0.25993 0.0
O132 O 0.04238 0.11766 0.18873 0.0
O133 O 0.04955 0.1585 0.25675 0.0
O134 O 0.02918 0.13228 0.29354 0.0
O135 O 0.11667 0.10815 0.19952 0.0
O136 O 0.99359 0.14496 0.2193 0.0
O137 O 0.95097 0.1553 0.25694 0.0
O138 O 0.92213 0.10635 0.31973 0.0
O139 O 0.946 0.09565 0.2407 0.0
O140 O 0.0187 0.0729 0.23188 0.0
O141 O 0.91963 0.15123 0.29987 0.0
O142 O 0.03132 0.09303 0.29274 0.0
O143 O 0.06126 0.07389 0.25486 0.0
C144 C 0.05093 0.15596 0.28175 0.0
C145 C 0.087 0.08311 0.16269 0.0
C146 C 0.10408 0.06458 0.11948 0.0
C147 C 0.09497 0.03333 0.12797 0.0
C148 C 0.07775 0.0519 0.1707 0.0
C149 C 0.08158 0.02716 0.15333 0.0
C150 C 0.09952 0.0894 0.13715 0.0
C151 C 0.96063 0.16065 0.23253 0.0
C152 C 0.08531 0.10929 0.18089 0.0
C153 C 0.24082 0.16437 0.26739 0.0
C154 C 0.22315 0.19316 0.25773 0.0
C155 C 0.97112 0.07284 0.23033 0.0
C156 C 0.93239 0.15189 0.34467 0.0
C157 C 0.93584 0.15568 0.39127 0.0
C158 C 0.97454 0.1775 0.38893 0.0
C159 C 0.97095 0.17388 0.34284 0.0
C160 C 0.91477 0.14303 0.36895 0.0
C161 C 0.99179 0.18657 0.36486 0.0
C162 C 0.05886 0.07328 0.28002 0.0
C163 C 0.913 0.13639 0.32156 0.0
H164 H 0.09895 0.0135 0.1152 0.0
H165 H 0.0681 0.0467 0.19038 0.0
H166 H 0.07475 1.00306 0.15962 0.0
H167 H 0.10554 0.11373 0.13116 0.0
H168 H 0.99107 0.18791 0.40574 0.0
H169 H 0.98537 0.18105 0.32441 0.0
H170 H 0.88552 0.12574 0.37045 0.0
H171 H 0.02154 0.20342 0.36326 0.0
Eu172 Eu 0.44244 0.39993 0.73029 0.0
C173 C 0.64515 0.44645 0.7576 0.0
N174 N 0.62941 0.41588 0.75644 0.0
C175 C 0.70011 0.40165 0.73248 0.0
C176 C 0.68884 0.45592 0.74551 0.0
C177 C 0.65637 0.39339 0.74454 0.0
C178 C 0.71634 0.43306 0.73288 0.0
C179 C 0.63185 0.50044 0.7713 0.0
C180 C 0.61664 0.46849 0.77027 0.0
C181 C 0.67484 0.51003 0.75883 0.0
C182 C 0.7033 0.48784 0.74605 0.0
Eu183 Eu 0.55689 0.40389 0.7786 0.0
N184 N 0.57491 0.45864 0.7821 0.0
C185 C 0.60409 0.52171 0.78542 0.0
C186 C 0.55074 0.47864 0.79791 0.0
C187 C 0.56391 0.5106 0.7992 0.0
H188 H 0.64417 0.36906 0.74449 0.0
H189 H 0.5438 0.52647 0.81135 0.0
H190 H 0.36484 0.45913 0.74161 0.0
H191 H 0.41027 0.27207 0.72836 0.0
H192 H 0.52265 0.46991 0.81042 0.0
H193 H 0.61455 0.54642 0.78668 0.0
H194 H 0.45794 0.32127 0.72315 0.0
H195 H 0.7213 0.3838 0.72292 0.0
H196 H 0.68679 0.53452 0.75929 0.0
H197 H 0.73652 0.49559 0.73666 0.0
H198 H 0.27932 0.46591 0.75512 0.0
H199 H 0.7501 0.43942 0.72337 0.0
H200 H 0.32403 0.2744 0.74179 0.0
N201 N 0.36086 0.40894 0.74199 0.0
C202 C 0.33223 0.3828 0.74502 0.0
C203 C 0.29383 0.44241 0.75251 0.0
C204 C 0.28303 0.38554 0.75232 0.0
C205 C 0.34237 0.43852 0.7452 0.0
C206 C 0.26407 0.41581 0.75621 0.0
N207 N 0.40017 0.3512 0.73449 0.0
C208 C 0.42071 0.32266 0.72933 0.0
C209 C 0.32344 0.32557 0.74387 0.0
C210 C 0.3522 0.35313 0.74082 0.0
C211 C 0.34486 0.29613 0.73957 0.0
C212 C 0.3936 0.2947 0.73208 0.0
H213 H 0.22645 0.4189 0.76184 0.0
H214 H 0.21653 0.35977 0.76116 0.0
H215 H 0.25192 0.3073 0.75381 0.0
O216 O 0.45668 0.38998 0.69006 0.0
O217 O 0.43201 0.37407 0.76814 0.0
O218 O 0.5075 0.36113 0.78536 0.0
O219 O 0.39364 0.4174 0.70037 0.0
O220 O 0.50999 0.37103 0.72056 0.0
O221 O 0.55196 0.35775 0.75771 0.0
O222 O 0.57366 0.41014 0.81995 0.0
O223 O 0.56152 0.42123 0.73696 0.0
O224 O 0.4881 0.4445 0.73048 0.0
O225 O 0.617 0.37886 0.7961 0.0
O226 O 0.4837 0.42298 0.79198 0.0
O227 O 0.44975 0.44342 0.75505 0.0
C228 C 0.46007 0.35683 0.78307 0.0
C229 C 0.42838 0.42752 0.65994 0.0
C230 C 0.41949 0.43898 0.6143 0.0
C231 C 0.44363 0.4681 0.61795 0.0
C232 C 0.45225 0.45663 0.66323 0.0
C233 C 0.45997 0.47676 0.64227 0.0
C234 C 0.41219 0.41874 0.63552 0.0
C235 C 0.54037 0.35292 0.73365 0.0
C236 C 0.41947 0.40616 0.68175 0.0
C237 C 0.25437 0.35812 0.75549 0.0
C238 C 0.27451 0.32823 0.75128 0.0
C239 C 0.53533 0.4443 0.72724 0.0
C240 C 0.6448 0.38373 0.83961 0.0
C241 C 0.66682 0.3835 0.88491 0.0
C242 C 0.7134 0.37256 0.87851 0.0
C243 C 0.69157 0.37253 0.83375 0.0
C244 C 0.63232 0.38892 0.86537 0.0
C245 C 0.72551 0.36695 0.8531 0.0
C246 C 0.45358 0.44248 0.78015 0.0
C247 C 0.61087 0.39126 0.81848 0.0
H248 H 0.45038 0.48401 0.60197 0.0
H249 H 0.46459 0.46378 0.68197 0.0
H250 H 0.47862 0.49917 0.64489 0.0
H251 H 0.39317 0.39637 0.63317 0.0
H252 H 0.74034 0.36805 0.89326 0.0
H253 H 0.70227 0.36852 0.81411 0.0
H254 H 0.59645 0.39762 0.87016 0.0
H255 H 0.76146 0.35845 0.84837 0.0
Eu256 Eu 0.04403 0.90164 0.72601 0.0
C257 C 0.84877 0.85541 0.77036 0.0
N258 N 0.86399 0.88552 0.76551 0.0
C259 C 0.78873 0.89707 0.74423 0.0
C260 C 0.80329 0.84453 0.76131 0.0
C261 C 0.83433 0.90671 0.7534 0.0
C262 C 0.77333 0.86576 0.74796 0.0
C263 C 0.86412 0.80411 0.78976 0.0
C264 C 0.87895 0.83551 0.78438 0.0
C265 C 0.81957 0.79281 0.78004 0.0
C266 C 0.78919 0.81299 0.7659 0.0
Eu267 Eu 0.94111 0.90009 0.78155 0.0
N268 N 0.92175 0.8472 0.79366 0.0
C269 C 0.89387 0.78526 0.80533 0.0
C270 C 0.94881 0.82967 0.81046 0.0
C271 C 0.93597 0.79828 0.81607 0.0
H272 H 0.84617 0.93094 0.75064 0.0
H273 H 0.95815 0.78433 0.82902 0.0
H274 H 0.1273 0.84674 0.74393 0.0
H275 H 0.07797 0.02407 0.69771 0.0
H276 H 0.97978 0.83989 0.82012 0.0
H277 H 0.88378 0.76102 0.8099 0.0
H278 H 0.0312 0.97375 0.7011 0.0
H279 H 0.76553 0.91376 0.73426 0.0
H280 H 0.80782 0.76867 0.7838 0.0
H281 H 0.75461 0.80407 0.75886 0.0
H282 H 0.20925 0.8452 0.76314 0.0
H283 H 0.7381 0.85831 0.74071 0.0
H284 H 0.15982 0.02823 0.71748 0.0
N285 N 0.12464 0.89699 0.74208 0.0
C286 C 0.15118 0.92424 0.74312 0.0
C287 C 0.19305 0.86769 0.75805 0.0
C288 C 0.19924 0.9244 0.75276 0.0
C289 C 0.14598 0.86869 0.7478 0.0
C290 C 0.2195 0.89576 0.76101 0.0
N291 N 0.08572 0.95048 0.72301 0.0
C292 C 0.06689 0.97561 0.70978 0.0
C293 C 0.15942 0.97978 0.73145 0.0
C294 C 0.13158 0.95164 0.73274 0.0
C295 C 0.13951 0.00621 0.71897 0.0
C296 C 0.09329 1.00397 0.70779 0.0
H297 H 0.25626 0.89487 0.76857 0.0
H298 H 0.26299 0.95343 0.76041 0.0
H299 H 0.22815 1.0019 0.74164 0.0
O300 O 0.02527 0.90667 0.68563 0.0
O301 O 0.03829 0.94328 0.75352 0.0
O302 O 0.01689 0.91799 0.79054 0.0
O303 O 0.09196 0.88332 0.69623 0.0
O304 O 0.97081 0.92358 0.71698 0.0
O305 O 0.94039 0.94326 0.75495 0.0
O306 O 0.91242 0.89829 0.82064 0.0
O307 O 0.92564 0.87965 0.74209 0.0
O308 O 0.99786 0.8572 0.73082 0.0
O309 O 0.90728 0.94146 0.79853 0.0
O310 O 0.0149 0.87821 0.79122 0.0
O311 O 0.04332 0.85866 0.75288 0.0
C312 C 0.03756 0.94191 0.77862 0.0
C313 C 0.0541 0.86796 0.65761 0.0
C314 C 0.06276 0.8518 0.61313 0.0
C315 C 0.03359 0.82501 0.61841 0.0
C316 C 0.02539 0.84106 0.66258 0.0
C317 C 0.0152 0.81969 0.64302 0.0
C318 C 0.07283 0.87319 0.63297 0.0
C319 C 0.9453 0.94436 0.72984 0.0
C320 C 0.06323 0.89152 0.67754 0.0
C321 C 0.2262 0.9528 0.75285 0.0
C322 C 0.20641 0.9804 0.74212 0.0
C323 C 0.95005 0.85664 0.73147 0.0
C324 C 0.9185 0.94633 0.84347 0.0
C325 C 0.92181 0.95283 0.89 0.0
C326 C 0.95024 0.98035 0.88638 0.0
C327 C 0.94675 0.97398 0.84046 0.0
C328 C 0.90597 0.93596 0.86831 0.0
C329 C 0.96251 0.99078 0.86181 0.0
C330 C 0.04116 0.85796 0.77809 0.0
C331 C 0.90171 0.92822 0.82095 0.0
H332 H 0.02555 0.80796 0.60362 0.0
H333 H 0.01067 0.83677 0.68147 0.0
H334 H 0.99292 0.79897 0.64694 0.0
H335 H 0.09445 0.89429 0.62917 0.0
H336 H 0.96239 0.9942 0.90254 0.0
H337 H 0.95685 0.98266 0.82164 0.0
H338 H 0.8844 0.91455 0.87069 0.0
H339 H 0.98424 0.01206 0.85931 0.0
Eu340 Eu 0.45902 0.61916 0.2276 0.0
C341 C 0.66293 0.65508 0.27184 0.0
N342 N 0.64433 0.626 0.26659 0.0
C343 C 0.71827 0.6116 0.24558 0.0
C344 C 0.70968 0.66403 0.2632 0.0
C345 C 0.67155 0.60389 0.25439 0.0
C346 C 0.73724 0.64191 0.24976 0.0
C347 C 0.65371 0.70598 0.29217 0.0
C348 C 0.63518 0.67572 0.28614 0.0
C349 C 0.69948 0.71551 0.28276 0.0
C350 C 0.72746 0.69455 0.26836 0.0
Eu351 Eu 0.56554 0.61463 0.28194 0.0
N352 N 0.59127 0.66566 0.29521 0.0
C353 C 0.62637 0.72539 0.30815 0.0
C354 C 0.56652 0.68349 0.31246 0.0
C355 C 0.58299 0.71385 0.31869 0.0
H356 H 0.65693 0.58043 0.25127 0.0
H357 H 0.56263 0.72813 0.33196 0.0
H358 H 0.38129 0.6723 0.25356 0.0
H359 H 0.41781 0.49952 0.19618 0.0
H360 H 0.53458 0.67423 0.32194 0.0
H361 H 0.6393 0.74879 0.31323 0.0
H362 H 0.46592 0.54923 0.19941 0.0
H363 H 0.73956 0.5942 0.23555 0.0
H364 H 0.71408 0.73877 0.28701 0.0
H365 H 0.76306 0.70202 0.26162 0.0
H366 H 0.30393 0.67206 0.27712 0.0
H367 H 0.77335 0.64787 0.24282 0.0
H368 H 0.33982 0.49399 0.21956 0.0
N369 N 0.38274 0.62233 0.24887 0.0
C370 C 0.35578 0.59516 0.24977 0.0
C371 C 0.31853 0.65011 0.26999 0.0
C372 C 0.30988 0.59421 0.26187 0.0
C373 C 0.36327 0.65001 0.25726 0.0
C374 C 0.2921 0.62196 0.27274 0.0
N375 N 0.41612 0.57076 0.22481 0.0
C376 C 0.43203 0.54673 0.20975 0.0
C377 C 0.34387 0.54101 0.23566 0.0
C378 C 0.37242 0.56881 0.23689 0.0
C379 C 0.36079 0.51572 0.22106 0.0
C380 C 0.40484 0.51873 0.20784 0.0
H381 H 0.25705 0.62222 0.28222 0.0
H382 H 0.24716 0.56485 0.27115 0.0
H383 H 0.27692 0.51829 0.24816 0.0
O384 O 0.46425 0.61566 0.18575 0.0
O385 O 0.46519 0.57612 0.25429 0.0
O386 O 0.4879 0.60102 0.29057 0.0
O387 O 0.40909 0.64475 0.20255 0.0
O388 O 0.52948 0.59528 0.21609 0.0
O389 O 0.56192 0.57381 0.2536 0.0
O390 O 0.59522 0.61226 0.32105 0.0
O391 O 0.58278 0.63514 0.24256 0.0
O392 O 0.51268 0.66036 0.23026 0.0
O393 O 0.59003 0.56943 0.29794 0.0
O394 O 0.49483 0.63984 0.29173 0.0
O395 O 0.46736 0.66183 0.25375 0.0
C396 C 0.46753 0.57687 0.27932 0.0
C397 C 0.38791 0.61843 0.16459 0.0
C398 C 0.35567 0.60898 0.12163 0.0
C399 C 0.31555 0.59305 0.13264 0.0
C400 C 0.34706 0.60286 0.17499 0.0
C401 C 0.31145 0.59001 0.15911 0.0
C402 C 0.39208 0.62149 0.13786 0.0
C403 C 0.55534 0.57379 0.22852 0.0
C404 C 0.42523 0.63229 0.1816 0.0
C405 C 0.2823 0.56606 0.26178 0.0
C406 C 0.29917 0.53956 0.24862 0.0
C407 C 0.56049 0.65899 0.23146 0.0
C408 C 0.62372 0.56305 0.34086 0.0
C409 C 0.64502 0.55625 0.38614 0.0
C410 C 0.66371 0.52616 0.38048 0.0
C411 C 0.64216 0.53282 0.3359 0.0
C412 C 0.6254 0.57476 0.36604 0.0
C413 C 0.66218 0.51462 0.35559 0.0
C414 C 0.47202 0.6623 0.27884 0.0
C415 C 0.60258 0.58193 0.31969 0.0
H416 H 0.28648 0.58366 0.12084 0.0
H417 H 0.34211 0.60111 0.1954 0.0
H418 H 0.28007 0.57812 0.16737 0.0
H419 H 0.42344 0.63365 0.12978 0.0
H420 H 0.68009 0.51158 0.39527 0.0
H421 H 0.64142 0.52329 0.31673 0.0
H422 H 0.6105 0.59787 0.37004 0.0
H423 H 0.67668 0.49144 0.35154 0.0
H424 H 0.18674 0.89978 0.34074 0.0
H425 H 0.09336 0.07874 0.32843 0.0
H426 H 0.17424 0.96459 0.40364 0.0
H427 H 0.08643 0.01352 0.26554 0.0
H428 H 0.13091 0.03785 0.35484 0.0
H429 H 0.15689 0.94148 0.31162 0.0
C430 C 0.17778 0.92274 0.3484 0.0
C431 C 0.18241 0.92858 0.37472 0.0
C432 C 0.12146 0.03236 0.33525 0.0
C433 C 0.14872 0.9763 0.34161 0.0
C434 C 0.1001 0.05577 0.32014 0.0
C435 C 0.08643 0.04939 0.29486 0.0
C436 C 0.12931 1.00216 0.32509 0.0
C437 C 0.09651 0.01935 0.28498 0.0
C438 C 0.16069 0.94647 0.33181 0.0
C439 C 0.1703 0.95876 0.38362 0.0
N440 N 0.11705 0.99669 0.3002 0.0
N441 N 0.15409 0.98136 0.36715 0.0
H442 H 0.30153 0.60735 0.83919 0.0
H443 H 0.43808 0.44197 0.83172 0.0
H444 H 0.39864 0.57237 0.89808 0.0
H445 H 0.41243 0.49838 0.76378 0.0
H446 H 0.40489 0.48459 0.85756 0.0
H447 H 0.32552 0.56291 0.81211 0.0
C448 C 0.3277 0.59048 0.84652 0.0
C449 C 0.34752 0.59368 0.87123 0.0
C450 C 0.40608 0.48744 0.83696 0.0
C451 C 0.37387 0.54244 0.84057 0.0
C452 C 0.42488 0.46313 0.82218 0.0
C453 C 0.42823 0.46662 0.79553 0.0
C454 C 0.38977 0.51531 0.82503 0.0
C455 C 0.41016 0.49452 0.78423 0.0
C456 C 0.3411 0.56506 0.83108 0.0
C457 C 0.38095 0.57066 0.87963 0.0
N458 N 0.39177 0.51789 0.79906 0.0
N459 N 0.39274 0.54604 0.86443 0.0
H460 H 0.73679 0.56957 0.64661 0.0
H461 H 0.50041 0.5039 0.71897 0.0
H462 H 0.59284 0.60458 0.63038 0.0
H463 H 0.62293 0.44437 0.70197 0.0
H464 H 0.53891 0.54701 0.69452 0.0
H465 H 0.701 0.52992 0.676 0.0
C466 C 0.69778 0.56932 0.64973 0.0
C467 C 0.66761 0.59034 0.63626 0.0
C468 C 0.55751 0.52458 0.69636 0.0
C469 C 0.62664 0.54527 0.66949 0.0
C470 C 0.53556 0.49994 0.71022 0.0
C471 C 0.55877 0.47056 0.71272 0.0
C472 C 0.60335 0.52001 0.68522 0.0
C473 C 0.60429 0.46683 0.701 0.0
C474 C 0.6774 0.54657 0.66622 0.0
C475 C 0.61722 0.5888 0.64055 0.0
N476 N 0.62529 0.49132 0.68788 0.0
N477 N 0.59827 0.56666 0.65683 0.0
H478 H 0.79972 0.97238 0.11872 0.0
H479 H 0.99981 0.01167 0.22408 0.0
H480 H 0.87975 0.89929 0.15818 0.0
H481 H 0.88598 0.07689 0.20329 0.0
H482 H 0.95876 0.97049 0.19903 0.0
H483 H 0.83209 0.01135 0.14881 0.0
C484 C 0.82368 0.96454 0.13398 0.0
C485 C 0.83712 0.93264 0.13603 0.0
C486 C 0.94253 0.99373 0.20013 0.0
C487 C 0.87515 0.97715 0.17021 0.0
C488 C 0.9661 0.01727 0.21425 0.0
C489 C 0.94615 0.04767 0.21573 0.0
C490 C 0.89918 1.00084 0.187 0.0
C491 C 0.90234 0.05367 0.20278 0.0
C492 C 0.84215 0.98675 0.15113 0.0
C493 C 0.8683 0.92365 0.15609 0.0
N494 N 0.88052 0.03056 0.18879 0.0
N495 N 0.88683 0.94588 0.17222 0.0
H496 H 0.84776 0.12289 0.66573 0.0
H497 H 0.91653 0.94123 0.68014 0.0
H498 H 0.80877 0.0518 0.61041 0.0
H499 H 0.91528 1.00334 0.7452 0.0
H500 H 0.87874 0.98254 0.65431 0.0
H501 H 0.87296 0.08074 0.69543 0.0
C502 C 0.84382 0.09847 0.65993 0.0
C503 C 0.82671 0.09097 0.63533 0.0
C504 C 0.88631 0.98717 0.67428 0.0
C505 C 0.85625 0.04272 0.66907 0.0
C506 C 0.90813 0.9636 0.68904 0.0
C507 C 0.9193 0.9689 0.71485 0.0
C508 C 0.87612 0.01663 0.68518 0.0
C509 C 0.90715 0.99828 0.72537 0.0
C510 C 0.85843 0.07444 0.67687 0.0
C511 C 0.82285 0.05884 0.62887 0.0
N512 N 0.88669 0.02124 0.7104 0.0
N513 N 0.83794 0.03603 0.64549 0.0
H514 H 0.63826 0.39254 0.16766 0.0
H515 H 0.57798 0.57503 0.17767 0.0
H516 H 0.68748 0.46159 0.11184 0.0
H517 H 0.58499 0.515 0.24482 0.0
H518 H 0.61309 0.53251 0.15247 0.0
H519 H 0.61538 0.43576 0.19598 0.0
C520 C 0.64501 0.41668 0.16145 0.0
C521 C 0.66432 0.42327 0.13705 0.0
C522 C 0.60729 0.52869 0.17276 0.0
C523 C 0.63693 0.47286 0.16922 0.0
C524 C 0.58699 0.5529 0.18714 0.0
C525 C 0.57843 0.54854 0.21339 0.0
C526 C 0.61833 0.4996 0.18455 0.0
C527 C 0.59114 0.5194 0.22464 0.0
C528 C 0.63162 0.44136 0.17761 0.0
C529 C 0.67153 0.45521 0.13009 0.0
N530 N 0.60997 0.49588 0.2101 0.0
N531 N 0.65727 0.47872 0.14591 0.0
H532 H 0.31198 0.41232 0.34039 0.0
H533 H 0.46428 0.57249 0.33143 0.0
H534 H 0.41386 0.44214 0.39868 0.0
H535 H 0.42983 0.51971 0.26341 0.0
H536 H 0.43334 0.52854 0.3574 0.0
H537 H 0.34312 0.45492 0.31234 0.0
C538 C 0.34077 0.42766 0.34733 0.0
C539 C 0.35948 0.42385 0.37224 0.0
C540 C 0.43228 0.52667 0.33676 0.0
C541 C 0.39442 0.47279 0.34045 0.0
C542 C 0.44988 0.55178 0.32188 0.0
C543 C 0.44886 0.55009 0.29509 0.0
C544 C 0.41289 0.49973 0.32485 0.0
C545 C 0.43002 0.52245 0.28391 0.0
C546 C 0.35837 0.45197 0.33134 0.0
C547 C 0.39682 0.44464 0.3801 0.0
N548 N 0.41236 0.4984 0.29883 0.0
N549 N 0.4126 0.46827 0.36441 0.0
H550 H 0.22979 0.08218 0.8463 0.0
H551 H 0.04912 0.94409 0.8306 0.0
H552 H 0.09625 0.08347 0.88995 0.0
H553 H 0.07559 0.99896 0.76197 0.0
H554 H 0.08466 0.98706 0.85577 0.0
H555 H 0.19103 0.04493 0.81655 0.0
C556 C 0.1923 0.07516 0.84952 0.0
C557 C 0.16683 0.08562 0.87118 0.0
C558 C 0.08305 0.98938 0.83512 0.0
C559 C 0.12346 0.0422 0.83778 0.0
C560 C 0.06286 0.96494 0.82071 0.0
C561 C 0.05999 0.96763 0.79394 0.0
C562 C 0.10175 0.01635 0.82271 0.0
C563 C 0.07835 0.9954 0.78236 0.0
C564 C 0.17046 0.05373 0.83262 0.0
C565 C 0.11827 0.07525 0.87424 0.0
N566 N 0.09904 0.01861 0.79676 0.0
N567 N 0.09862 0.05359 0.85813 0.0
H568 H 0.20256 0.15345 0.9785 0.0
H569 H 0.07529 0.03369 0.07562 0.0
H570 H 0.17463 0.05567 0.95938 0.0
H571 H 0.16687 0.11081 0.1013 0.0
H572 H 0.10097 0.04477 0.03174 0.0
H573 H 0.17941 0.14163 0.02268 0.0
C574 C 0.19196 0.12945 0.98351 0.0
C575 C 0.19062 0.10557 0.96496 0.0
C576 C 0.11537 0.05919 0.04706 0.0
C577 C 0.16271 0.09222 0.0155 0.0
C578 C 0.10098 0.0528 0.0722 0.0
C579 C 0.11885 0.07126 0.09246 0.0
C580 C 0.14724 0.08455 0.04197 0.0
C581 C 0.15119 0.09624 0.08645 0.0
C582 C 0.17847 0.12282 0.00875 0.0
C583 C 0.17537 0.07509 0.97272 0.0
N584 N 0.1641 0.10224 0.06178 0.0
N585 N 0.16174 0.06936 0.99732 0.0
H586 H 0.37271 0.34251 0.47095 0.0
H587 H 0.37342 0.47589 0.57835 0.0
H588 H 0.30186 0.43282 0.46158 0.0
H589 H 0.42556 0.38096 0.59139 0.0
H590 H 0.34649 0.46046 0.5356 0.0
H591 H 0.3901 0.35548 0.51545 0.0
C592 C 0.36005 0.36486 0.47831 0.0
C593 C 0.33594 0.38665 0.46234 0.0
C594 C 0.3636 0.44294 0.54785 0.0
C595 C 0.35691 0.402 0.51329 0.0
C596 C 0.37932 0.45181 0.57219 0.0
C597 C 0.40199 0.42973 0.58846 0.0
C598 C 0.37089 0.41179 0.53955 0.0
C599 C 0.40792 0.39871 0.5796 0.0
C600 C 0.3704 0.37237 0.50372 0.0
C601 C 0.32128 0.41549 0.47299 0.0
N602 N 0.39275 0.39072 0.55571 0.0
N603 N 0.33232 0.42241 0.49769 0.0
H604 H 0.69677 0.42787 0.04479 0.0
H605 H 0.59443 0.35612 0.91363 0.0
H606 H 0.61326 0.34115 0.04106 0.0
H607 H 0.71441 0.42217 0.91806 0.0
H608 H 0.58561 0.35869 0.96041 0.0
H609 H 0.688 0.43421 0.99841 0.0
C610 C 0.67594 0.41042 0.03426 0.0
C611 C 0.65612 0.38378 0.04676 0.0
C612 C 0.61337 0.37297 0.95106 0.0
C613 C 0.64611 0.39082 0.9937 0.0
C614 C 0.61812 0.37168 0.92444 0.0
C615 C 0.65531 0.38886 0.91216 0.0
C616 C 0.64571 0.39184 0.96532 0.0
C617 C 0.68547 0.40845 0.92694 0.0
C618 C 0.67119 0.41396 0.00779 0.0
C619 C 0.62977 0.36179 0.03211 0.0
N620 N 0.68017 0.40931 0.95275 0.0
N621 N 0.62571 0.36571 0.00634 0.0
H622 H 0.91067 0.11565 0.55365 0.0
H623 H 0.84101 0.15039 0.40706 0.0
H624 H 0.7688 0.14649 0.52852 0.0
H625 H 0.98879 0.14029 0.43407 0.0
H626 H 0.81172 0.13956 0.45048 0.0
H627 H 0.93748 0.11508 0.50891 0.0
C628 C 0.885 0.12183 0.53867 0.0
C629 C 0.83762 0.13142 0.54475 0.0
C630 C 0.85055 0.13951 0.44687 0.0
C631 C 0.86796 0.13101 0.49369 0.0
C632 C 0.86726 0.14551 0.42207 0.0
C633 C 0.91742 0.14656 0.41701 0.0
C634 C 0.88423 0.13433 0.46674 0.0
C635 C 0.94983 0.14025 0.43723 0.0
C636 C 0.90036 0.12171 0.51319 0.0
C637 C 0.80587 0.1394 0.52465 0.0
N638 N 0.9327 0.13454 0.46122 0.0
N639 N 0.82166 0.13915 0.50005 0.0
H640 H 0.76911 0.88783 0.02659 0.0
H641 H 0.97899 0.95292 0.93316 0.0
H642 H 0.90924 0.92152 0.05271 0.0
H643 H 0.83429 0.92851 0.90716 0.0
H644 H 0.95527 0.93859 0.97672 0.0
H645 H 0.7935 0.89961 0.98249 0.0
C646 C 0.80508 0.89759 0.02306 0.0
C647 C 0.83712 0.90375 0.04345 0.0
C648 C 0.92867 0.93631 0.96151 0.0
C649 C 0.86524 0.91742 0.99294 0.0
C650 C 0.94214 0.94462 0.93659 0.0
C651 C 0.9085 0.94221 0.91638 0.0
C652 C 0.88115 0.92539 0.96643 0.0
C653 C 0.8616 0.93057 0.92203 0.0
C654 C 0.8189 0.90444 0.99787 0.0
C655 C 0.88307 0.91677 0.03768 0.0
N656 N 0.84928 0.92272 0.9465 0.0
N657 N 0.89573 0.9231 0.01301 0.0
H658 H 0.6765 0.5614 0.55007 0.0
H659 H 0.66554 0.61642 0.40356 0.0
H660 H 0.68503 0.65969 0.52693 0.0
H661 H 0.62729 0.5225 0.43022 0.0
H662 H 0.67312 0.6333 0.44817 0.0
H663 H 0.65923 0.54712 0.50599 0.0
C664 C 0.67415 0.58011 0.53583 0.0
C665 C 0.68215 0.61189 0.54245 0.0
C666 C 0.66283 0.60905 0.4442 0.0
C667 C 0.66339 0.59543 0.49141 0.0
C668 C 0.65825 0.59942 0.41873 0.0
C669 C 0.64634 0.56784 0.41302 0.0
C670 C 0.65563 0.58694 0.46412 0.0
C671 C 0.63771 0.54686 0.43357 0.0
C672 C 0.66458 0.57186 0.51053 0.0
C673 C 0.67981 0.63484 0.52279 0.0
N674 N 0.64285 0.55671 0.4581 0.0
N675 N 0.67088 0.62616 0.49818 0.0
H676 H 0.29217 0.59318 0.96062 0.0
H677 H 0.38459 0.66182 0.09431 0.0
H678 H 0.37412 0.68041 0.96665 0.0
H679 H 0.33102 0.56639 0.08441 0.0
H680 H 0.37976 0.67004 0.04795 0.0
H681 H 0.30302 0.58431 0.00643 0.0
C682 C 0.31259 0.61045 0.97153 0.0
C683 C 0.33238 0.63755 0.95963 0.0
C684 C 0.36933 0.64726 0.05595 0.0
C685 C 0.34449 0.62767 0.01236 0.0
C686 C 0.37244 0.64245 0.08241 0.0
C687 C 0.35779 0.61344 0.09337 0.0
C688 C 0.35121 0.62295 0.04034 0.0
C689 C 0.34175 0.58936 0.07693 0.0
C690 C 0.31869 0.60539 0.99775 0.0
C691 C 0.35764 0.65939 0.97498 0.0
N692 N 0.33858 0.59474 0.05133 0.0
N693 N 0.36295 0.65398 1.00053 0.0
H694 H 0.10333 0.87328 0.44894 0.0
H695 H 0.15477 0.87137 0.59997 0.0
H696 H 0.24649 0.88292 0.48234 0.0
H697 H 0.01628 0.84512 0.56688 0.0
H698 H 0.18721 0.88024 0.55699 0.0
H699 H 0.06896 0.86753 0.492 0.0
C700 C 0.12747 0.87436 0.46534 0.0
C701 C 0.17789 0.87837 0.46203 0.0
C702 C 0.14971 0.87254 0.5591 0.0
C703 C 0.1389 0.87173 0.51131 0.0
C704 C 0.13108 0.86764 0.58365 0.0
C705 C 0.08274 0.85742 0.58705 0.0
C706 C 0.11976 0.86738 0.53769 0.0
C707 C 0.05393 0.85262 0.56515 0.0
C708 C 0.10789 0.8709 0.48988 0.0
C709 C 0.20751 0.87938 0.48396 0.0
N710 N 0.07284 0.85769 0.54142 0.0
N711 N 0.1876 0.8761 0.50761 0.0
H712 H 0.23843 0.31165 0.32839 0.0
H713 H 0.09178 0.14707 0.32893 0.0
H714 H 0.22966 0.249 0.39371 0.0
H715 H 0.07508 0.21721 0.2692 0.0
H716 H 0.14306 0.18415 0.35264 0.0
H717 H 0.17968 0.27752 0.30569 0.0
C718 C 0.22361 0.29088 0.33797 0.0
C719 C 0.23837 0.28297 0.36285 0.0
C720 C 0.12828 0.1915 0.33432 0.0
C721 C 0.17218 0.24385 0.33721 0.0
C722 C 0.09892 0.17032 0.32079 0.0
C723 C 0.08005 0.17885 0.29677 0.0
C724 C 0.13902 0.22147 0.32377 0.0
C725 C 0.09018 0.20937 0.28728 0.0
C726 C 0.19025 0.27142 0.32508 0.0
C727 C 0.21879 0.25581 0.37451 0.0
N728 N 0.11931 0.2295 0.30067 0.0
N729 N 0.1869 0.23712 0.36156 0.0
H730 H 0.39374 0.17802 0.85893 0.0
H731 H 0.36437 0.351 0.79672 0.0
H732 H 0.26023 0.23088 0.86043 0.0
H733 H 0.50143 0.30182 0.80094 0.0
H734 H 0.32417 0.30547 0.81669 0.0
H735 H 0.43182 0.22066 0.83361 0.0
C736 C 0.37219 0.19835 0.85333 0.0
C737 C 0.3238 0.20099 0.86136 0.0
C738 C 0.36304 0.30458 0.81331 0.0
C739 C 0.36718 0.25014 0.83316 0.0
C740 C 0.38608 0.33059 0.80186 0.0
C741 C 0.4364 0.33022 0.79706 0.0
C742 C 0.39045 0.27788 0.82021 0.0
C743 C 0.46266 0.30325 0.80446 0.0
C744 C 0.394 0.2228 0.83913 0.0
C745 C 0.29753 0.22794 0.85422 0.0
N746 N 0.43937 0.27815 0.81563 0.0
N747 N 0.31964 0.2516 0.84062 0.0
H748 H 0.64334 0.22221 0.61987 0.0
H749 H 0.60935 0.31208 0.75265 0.0
H750 H 0.75013 0.2198 0.68033 0.0
H751 H 0.52675 0.33321 0.68421 0.0
H752 H 0.6524 0.27087 0.7295 0.0
H753 H 0.59079 0.25476 0.64665 0.0
C754 C 0.65506 0.228 0.63909 0.0
C755 C 0.7006 0.21833 0.64816 0.0
C756 C 0.62468 0.28445 0.71962 0.0
C757 C 0.64159 0.25593 0.67861 0.0
C758 C 0.60001 0.30802 0.7328 0.0
C759 C 0.56469 0.32654 0.72029 0.0
C760 C 0.61362 0.27901 0.69382 0.0
C761 C 0.55398 0.31984 0.69462 0.0
C762 C 0.62536 0.24676 0.65426 0.0
C763 C 0.71486 0.2267 0.67291 0.0
N764 N 0.57843 0.2967 0.68223 0.0
N765 N 0.68548 0.24525 0.68731 0.0
H766 H 0.73263 0.28964 0.18526 0.0
H767 H 0.97141 0.18237 0.18313 0.0
H768 H 0.8308 0.28556 0.12126 0.0
H769 H 0.88534 0.19632 0.25113 0.0
H770 H 0.92214 0.22181 0.16085 0.0
H771 H 0.79004 0.25776 0.21068 0.0
C772 C 0.76682 0.28253 0.17681 0.0
C773 C 0.77754 0.29024 0.15136 0.0
C774 C 0.91418 0.21638 0.18069 0.0
C775 C 0.84253 0.25333 0.17981 0.0
C776 C 0.94229 0.19375 0.19346 0.0
C777 C 0.9324 0.18568 0.21906 0.0
C778 C 0.87548 0.23099 0.19348 0.0
C779 C 0.89424 0.2015 0.23137 0.0
C780 C 0.79943 0.26423 0.19121 0.0
C781 C 0.82168 0.28017 0.14098 0.0
N782 N 0.86699 0.22317 0.21842 0.0
N783 N 0.85243 0.262 0.15517 0.0
H784 H 0.87411 0.68332 0.65286 0.0
H785 H 0.85806 0.85768 0.71122 0.0
H786 H 0.74982 0.74397 0.6434 0.0
H787 H 0.98185 0.79666 0.72182 0.0
H788 H 0.81509 0.81477 0.68947 0.0
H789 H 0.91124 0.72251 0.68147 0.0
C790 C 0.85426 0.70465 0.65733 0.0
C791 C 0.80882 0.71048 0.64612 0.0
C792 C 0.85154 0.81063 0.69666 0.0
C793 C 0.85125 0.75569 0.67816 0.0
C794 C 0.87598 0.8351 0.70923 0.0
C795 C 0.92344 0.83068 0.71852 0.0
C796 C 0.87491 0.78151 0.69305 0.0
C797 C 0.94533 0.80114 0.71487 0.0
C798 C 0.87553 0.7271 0.67348 0.0
C799 C 0.78478 0.7386 0.65199 0.0
N800 N 0.92099 0.77774 0.70235 0.0
N801 N 0.80642 0.7603 0.66749 0.0
H802 H 0.6561 0.82855 0.15067 0.0
H803 H 0.65402 0.65548 0.21392 0.0
H804 H 0.78055 0.76707 0.15229 0.0
H805 H 0.53347 0.71985 0.21984 0.0
H806 H 0.70238 0.69736 0.19367 0.0
H807 H 0.6122 0.79101 0.17864 0.0
C808 C 0.67448 0.80747 0.15749 0.0
C809 C 0.72196 0.80085 0.14954 0.0
C810 C 0.66548 0.70249 0.19952 0.0
C811 C 0.67191 0.75748 0.18074 0.0
C812 C 0.63793 0.67858 0.21126 0.0
C813 C 0.58985 0.68425 0.21889 0.0
C814 C 0.6446 0.7323 0.19492 0.0
C815 C 0.57038 0.71441 0.21419 0.0
C816 C 0.64939 0.78595 0.17327 0.0
C817 C 0.74406 0.77305 0.15833 0.0
N818 N 0.59774 0.73726 0.20243 0.0
N819 N 0.71873 0.75223 0.1733 0.0
H820 H 0.34944 0.83859 0.33285 0.0
H821 H 0.43673 0.65833 0.32747 0.0
H822 H 0.32126 0.76942 0.39211 0.0
H823 H 0.4485 0.72234 0.26298 0.0
H824 H 0.39405 0.69912 0.35118 0.0
H825 H 0.3843 0.79668 0.30621 0.0
C826 C 0.35 0.81444 0.34 0.0
C827 C 0.33248 0.80711 0.36447 0.0
C828 C 0.4058 0.70432 0.33182 0.0
C829 C 0.37279 0.75949 0.33467 0.0
C830 C 0.43046 0.68108 0.31834 0.0
C831 C 0.44639 0.68706 0.29329 0.0
C832 C 0.39724 0.73394 0.32028 0.0
C833 C 0.43677 0.71681 0.28228 0.0
C834 C 0.36999 0.7906 0.32492 0.0
C835 C 0.3343 0.77576 0.37319 0.0
N836 N 0.413 0.73924 0.29589 0.0
N837 N 0.35441 0.75311 0.35838 0.0
H838 H 0.21905 0.76308 0.89179 0.0
H839 H 0.07691 0.80145 0.76101 0.0
H840 H 0.24505 0.71314 0.82174 0.0
H841 H 0.07328 0.86098 0.82758 0.0
H842 H 0.13062 0.76489 0.78412 0.0
H843 H 0.15698 0.79486 0.86991 0.0
C844 C 0.21109 0.75864 0.87182 0.0
C845 C 0.23673 0.73562 0.85843 0.0
C846 C 0.11793 0.7859 0.79368 0.0
C847 C 0.16647 0.77192 0.83319 0.0
C848 C 0.0874 0.80682 0.78049 0.0
C849 C 0.07115 0.83456 0.79226 0.0
C850 C 0.13191 0.79257 0.81894 0.0
C851 C 0.08505 0.83997 0.8177 0.0
C852 C 0.17591 0.77682 0.8593 0.0
C853 C 0.22567 0.73072 0.83262 0.0
N854 N 0.11473 0.81927 0.83014 0.0
N855 N 0.19137 0.74885 0.82074 0.0
loop_
_geom_bond_atom_site_label_1
_geom_bond_atom_site_label_2
_geom_bond_distance
_geom_bond_site_symmetry_2
_ccdc_geom_bond_type
H0 C3 0.929 . S
H1 C6 0.929 . S
H2 C8 0.930 . S
C3 H0 0.929 . S
C3 C4 1.398 . S
C3 C5 1.396 . S
C4 C3 1.398 . S
C4 C8 1.407 . S
C5 C3 1.396 . S
C5 C6 1.394 . S
C6 H1 0.929 . S
C6 C5 1.394 . S
C6 C7 1.382 . S
C7 C6 1.382 . S
C7 C8 1.392 . S
C7 N9 1.420 . S
C8 H2 0.930 . S
C8 C4 1.407 . S
C8 C7 1.392 . S
N9 C7 1.420 . S
N9 C10 1.244 . S
C10 N9 1.244 . S
H11 C14 0.929 . S
H12 C17 0.929 . S
H13 C19 0.930 . S
C14 H11 0.929 . S
C14 C15 1.398 . S
C14 C16 1.396 . S
C15 C14 1.398 . S
C15 C19 1.407 . S
C16 C14 1.396 . S
C16 C17 1.394 . S
C17 H12 0.929 . S
C17 C16 1.394 . S
C17 C18 1.382 . S
C18 C17 1.382 . S
C18 C19 1.392 . S
C18 N20 1.420 . S
C19 H13 0.930 . S
C19 C15 1.407 . S
C19 C18 1.392 . S
N20 C18 1.420 . S
N20 C21 1.244 . S
C21 N20 1.244 . S
H22 C25 0.929 . S
H23 C28 0.929 . S
H24 C30 0.930 . S
C25 H22 0.929 . S
C25 C26 1.398 . S
C25 C27 1.396 . S
C26 C25 1.398 . S
C26 C30 1.407 . S
C27 C25 1.396 . S
C27 C28 1.394 . S
C28 H23 0.929 . S
C28 C27 1.394 . S
C28 C29 1.382 . S
C29 C28 1.382 . S
C29 C30 1.392 . S
C29 N31 1.420 . S
C30 H24 0.930 . S
C30 C26 1.407 . S
C30 C29 1.392 . S
N31 C29 1.420 . S
N31 C32 1.244 . S
C32 N31 1.244 . S
H33 C36 0.929 . S
H34 C39 0.929 . S
H35 C41 0.930 . S
C36 H33 0.929 . S
C36 C37 1.398 . S
C36 C38 1.396 . S
C37 C36 1.398 . S
C37 C41 1.407 . S
C38 C36 1.396 . S
C38 C39 1.394 . S
C39 H34 0.929 . S
C39 C38 1.394 . S
C39 C40 1.382 . S
C40 C39 1.382 . S
C40 C41 1.392 . S
C40 N42 1.420 . S
C41 H35 0.930 . S
C41 C37 1.407 . S
C41 C40 1.392 . S
N42 C40 1.420 . S
N42 C43 1.244 . S
C43 N42 1.244 . S
H44 C47 0.929 . S
H45 C50 0.929 . S
H46 C52 0.930 . S
C47 H44 0.929 . S
C47 C48 1.398 . S
C47 C49 1.396 . S
C48 C47 1.398 . S
C48 C52 1.407 . S
C49 C47 1.396 . S
C49 C50 1.394 . S
C50 H45 0.929 . S
C50 C49 1.394 . S
C50 C51 1.382 . S
C51 C50 1.382 . S
C51 C52 1.392 . S
C51 N53 1.420 . S
C52 H46 0.930 . S
C52 C48 1.407 . S
C52 C51 1.392 . S
N53 C51 1.420 . S
N53 C54 1.244 . S
C54 N53 1.244 . S
H55 C58 0.929 . S
H56 C61 0.929 . S
H57 C63 0.930 . S
C58 H55 0.929 . S
C58 C59 1.398 . S
C58 C60 1.396 . S
C59 C58 1.398 . S
C59 C63 1.407 . S
C60 C58 1.396 . S
C60 C61 1.394 . S
C61 H56 0.929 . S
C61 C60 1.394 . S
C61 C62 1.382 . S
C62 C61 1.382 . S
C62 C63 1.392 . S
C62 N64 1.420 . S
C63 H57 0.930 . S
C63 C59 1.407 . S
C63 C62 1.392 . S
N64 C62 1.420 . S
N64 C65 1.244 . S
C65 N64 1.244 . S
H66 C69 0.929 . S
H67 C72 0.929 . S
H68 C74 0.930 . S
C69 H66 0.929 . S
C69 C70 1.398 . S
C69 C71 1.396 . S
C70 C69 1.398 . S
C70 C74 1.407 . S
C71 C69 1.396 . S
C71 C72 1.394 . S
C72 H67 0.929 . S
C72 C71 1.394 . S
C72 C73 1.382 . S
C73 C72 1.382 . S
C73 C74 1.392 . S
C73 N75 1.420 . S
C74 H68 0.930 . S
C74 C70 1.407 . S
C74 C73 1.392 . S
N75 C73 1.420 . S
N75 C76 1.244 . S
C76 N75 1.244 . S
H77 C80 0.929 . S
H78 C83 0.929 . S
H79 C85 0.930 . S
C80 H77 0.929 . S
C80 C81 1.398 . S
C80 C82 1.396 . S
C81 C80 1.398 . S
C81 C85 1.407 . S
C82 C80 1.396 . S
C82 C83 1.394 . S
C83 H78 0.929 . S
C83 C82 1.394 . S
C83 C84 1.382 . S
C84 C83 1.382 . S
C84 C85 1.392 . S
C84 N86 1.420 . S
C85 H79 0.930 . S
C85 C81 1.407 . S
C85 C84 1.392 . S
N86 C84 1.420 . S
N86 C87 1.244 . S
C87 N86 1.244 . S
Eu88 N117 2.600 . S
Eu88 N123 2.562 . S
Eu88 O132 2.462 . S
Eu88 O133 2.373 . S
Eu88 O135 2.432 . S
Eu88 O136 2.291 . S
Eu88 O140 2.335 . S
Eu88 O143 2.372 . S
Eu88 C152 2.787 . S
C89 N90 1.365 . S
C89 C92 1.405 . S
C89 C96 1.448 . S
N90 C89 1.365 . S
N90 C93 1.319 . S
N90 Eu99 2.600 . S
C91 C93 1.397 . S
C91 C94 1.367 . S
C91 H111 0.931 . S
C92 C89 1.405 . S
C92 C94 1.403 . S
C92 C98 1.439 . S
C93 N90 1.319 . S
C93 C91 1.397 . S
C93 H104 0.930 . S
C94 C91 1.367 . S
C94 C92 1.403 . S
C94 H115 0.929 . S
C95 C96 1.430 . S
C95 C97 1.387 . S
C95 C101 1.404 1_545 S
C96 C89 1.448 . S
C96 C95 1.430 . S
C96 N100 1.351 . S
C97 C95 1.387 . S
C97 C98 1.374 . S
C97 H112 0.931 . S
C98 C92 1.439 . S
C98 C97 1.374 . S
C98 H113 0.931 . S
Eu99 N90 2.600 . S
Eu99 N100 2.562 . S
Eu99 O134 2.335 1_655 S
Eu99 O137 2.372 . S
Eu99 O138 2.462 . S
Eu99 O139 2.373 . S
Eu99 O141 2.432 . S
Eu99 O142 2.291 1_655 S
Eu99 C163 2.787 . S
N100 C96 1.351 . S
N100 Eu99 2.562 . S
N100 C102 1.325 . S
C101 C95 1.404 1_565 S
C101 C103 1.366 . S
C101 H109 0.930 . S
C102 N100 1.325 . S
C102 C103 1.416 1_545 S
C102 H108 0.929 . S
C103 C101 1.366 . S
C103 C102 1.416 1_565 S
C103 H105 0.930 . S
H104 C93 0.930 . S
H105 C103 0.930 . S
H106 C121 0.930 . S
H107 C128 0.930 . S
H108 C102 0.929 . S
H109 C101 0.930 . S
H110 C124 0.929 . S
H111 C91 0.931 . S
H112 C97 0.931 . S
H113 C98 0.931 . S
H114 C119 0.931 . S
H115 C94 0.929 . S
H116 C127 0.930 . S
N117 Eu88 2.600 . S
N117 C118 1.365 . S
N117 C121 1.319 . S
C118 N117 1.365 . S
C118 C120 1.405 . S
C118 C126 1.448 . S
C119 H114 0.931 . S
C119 C121 1.397 . S
C119 C122 1.367 . S
C120 C118 1.405 . S
C120 C122 1.403 . S
C120 C153 1.439 . S
C121 H106 0.930 . S
C121 N117 1.319 . S
C121 C119 1.397 . S
C122 C119 1.367 . S
C122 C120 1.403 . S
C122 H129 0.929 . S
N123 Eu88 2.562 . S
N123 C124 1.325 . S
N123 C126 1.351 . S
C124 H110 0.929 . S
C124 N123 1.325 . S
C124 C128 1.416 . S
C125 C126 1.430 . S
C125 C127 1.404 . S
C125 C154 1.387 . S
C126 C118 1.448 . S
C126 N123 1.351 . S
C126 C125 1.430 . S
C127 H116 0.930 . S
C127 C125 1.404 . S
C127 C128 1.366 . S
C128 H107 0.930 . S
C128 C124 1.416 . S
C128 C127 1.366 . S
H129 C122 0.929 . S
H130 C153 0.931 . S
H131 C154 0.931 . S
O132 Eu88 2.462 . S
O132 C152 1.252 . S
O133 Eu88 2.373 . S
O133 C144 1.249 . S
O134 Eu99 2.335 1_455 S
O134 C144 1.264 . S
O135 Eu88 2.432 . S
O135 C152 1.268 . S
O136 Eu88 2.291 . S
O136 C151 1.255 1_455 S
O137 Eu99 2.372 . S
O137 C151 1.257 . S
O138 Eu99 2.462 . S
O138 C163 1.252 . S
O139 Eu99 2.373 . S
O139 C155 1.249 . S
O140 Eu88 2.335 . S
O140 C155 1.264 1_455 S
O141 Eu99 2.432 . S
O141 C163 1.268 . S
O142 Eu99 2.291 1_455 S
O142 C162 1.255 . S
O143 Eu88 2.372 . S
O143 C162 1.257 . S
C144 O133 1.249 . S
C144 O134 1.264 . S
C145 C148 1.382 . S
C145 C150 1.390 . S
C145 C152 1.506 . S
C146 C147 1.398 . S
C146 C150 1.392 . S
C147 C146 1.398 . S
C147 C149 1.372 . S
C147 H164 0.931 . S
C148 C145 1.382 . S
C148 C149 1.390 . S
C148 H165 0.931 . S
C149 C147 1.372 . S
C149 C148 1.390 . S
C149 H166 0.929 . S
C150 C145 1.390 . S
C150 C146 1.392 . S
C150 H167 0.930 . S
C151 O136 1.255 1_655 S
C151 O137 1.257 . S
C152 Eu88 2.787 . S
C152 O132 1.252 . S
C152 O135 1.268 . S
C152 C145 1.506 . S
C153 C120 1.439 . S
C153 H130 0.931 . S
C153 C154 1.374 . S
C154 C125 1.387 . S
C154 H131 0.931 . S
C154 C153 1.374 . S
C155 O139 1.249 . S
C155 O140 1.264 1_655 S
C156 C159 1.382 . S
C156 C160 1.390 . S
C156 C163 1.506 . S
C157 C158 1.398 . S
C157 C160 1.392 . S
C158 C157 1.398 . S
C158 C161 1.372 . S
C158 H168 0.931 . S
C159 C156 1.382 . S
C159 C161 1.390 . S
C159 H169 0.931 . S
C160 C156 1.390 . S
C160 C157 1.392 . S
C160 H170 0.930 . S
C161 C158 1.372 . S
C161 C159 1.390 . S
C161 H171 0.929 . S
C162 O142 1.255 . S
C162 O143 1.257 . S
C163 Eu99 2.787 . S
C163 O138 1.252 . S
C163 O141 1.268 . S
C163 C156 1.506 . S
H164 C147 0.931 . S
H165 C148 0.931 . S
H166 C149 0.929 . S
H167 C150 0.930 . S
H168 C158 0.931 . S
H169 C159 0.931 . S
H170 C160 0.930 . S
H171 C161 0.929 . S
Eu172 N201 2.600 . S
Eu172 N207 2.562 . S
Eu172 O216 2.462 . S
Eu172 O217 2.373 . S
Eu172 O219 2.432 . S
Eu172 O220 2.291 . S
Eu172 O224 2.335 . S
Eu172 O227 2.372 . S
Eu172 C236 2.787 . S
C173 N174 1.365 . S
C173 C176 1.405 . S
C173 C180 1.448 . S
N174 C173 1.365 . S
N174 C177 1.319 . S
N174 Eu183 2.600 . S
C175 C177 1.397 . S
C175 C178 1.367 . S
C175 H195 0.931 . S
C176 C173 1.405 . S
C176 C178 1.403 . S
C176 C182 1.439 . S
C177 N174 1.319 . S
C177 C175 1.397 . S
C177 H188 0.930 . S
C178 C175 1.367 . S
C178 C176 1.403 . S
C178 H199 0.929 . S
C179 C180 1.430 . S
C179 C181 1.387 . S
C179 C185 1.404 . S
C180 C173 1.448 . S
C180 C179 1.430 . S
C180 N184 1.351 . S
C181 C179 1.387 . S
C181 C182 1.374 . S
C181 H196 0.931 . S
C182 C176 1.439 . S
C182 C181 1.374 . S
C182 H197 0.931 . S
Eu183 N174 2.600 . S
Eu183 N184 2.562 . S
Eu183 O218 2.335 . S
Eu183 O221 2.372 . S
Eu183 O222 2.462 . S
Eu183 O223 2.373 . S
Eu183 O225 2.432 . S
Eu183 O226 2.291 . S
Eu183 C247 2.787 . S
N184 C180 1.351 . S
N184 Eu183 2.562 . S
N184 C186 1.325 . S
C185 C179 1.404 . S
C185 C187 1.366 . S
C185 H193 0.930 . S
C186 N184 1.325 . S
C186 C187 1.416 . S
C186 H192 0.929 . S
C187 C185 1.366 . S
C187 C186 1.416 . S
C187 H189 0.930 . S
H188 C177 0.930 . S
H189 C187 0.930 . S
H190 C205 0.930 . S
H191 C212 0.930 . S
H192 C186 0.929 . S
H193 C185 0.930 . S
H194 C208 0.929 . S
H195 C175 0.931 . S
H196 C181 0.931 . S
H197 C182 0.931 . S
H198 C203 0.931 . S
H199 C178 0.929 . S
H200 C211 0.930 . S
N201 Eu172 2.600 . S
N201 C202 1.365 . S
N201 C205 1.319 . S
C202 N201 1.365 . S
C202 C204 1.405 . S
C202 C210 1.448 . S
C203 H198 0.931 . S
C203 C205 1.397 . S
C203 C206 1.367 . S
C204 C202 1.405 . S
C204 C206 1.403 . S
C204 C237 1.439 . S
C205 H190 0.930 . S
C205 N201 1.319 . S
C205 C203 1.397 . S
C206 C203 1.367 . S
C206 C204 1.403 . S
C206 H213 0.929 . S
N207 Eu172 2.562 . S
N207 C208 1.325 . S
N207 C210 1.351 . S
C208 H194 0.929 . S
C208 N207 1.325 . S
C208 C212 1.416 . S
C209 C210 1.430 . S
C209 C211 1.404 . S
C209 C238 1.387 . S
C210 C202 1.448 . S
C210 N207 1.351 . S
C210 C209 1.430 . S
C211 H200 0.930 . S
C211 C209 1.404 . S
C211 C212 1.366 . S
C212 H191 0.930 . S
C212 C208 1.416 . S
C212 C211 1.366 . S
H213 C206 0.929 . S
H214 C237 0.931 . S
H215 C238 0.931 . S
O216 Eu172 2.462 . S
O216 C236 1.252 . S
O217 Eu172 2.373 . S
O217 C228 1.249 . S
O218 Eu183 2.335 . S
O218 C228 1.264 . S
O219 Eu172 2.432 . S
O219 C236 1.268 . S
O220 Eu172 2.291 . S
O220 C235 1.255 . S
O221 Eu183 2.372 . S
O221 C235 1.257 . S
O222 Eu183 2.462 . S
O222 C247 1.252 . S
O223 Eu183 2.373 . S
O223 C239 1.249 . S
O224 Eu172 2.335 . S
O224 C239 1.264 . S
O225 Eu183 2.432 . S
O225 C247 1.268 . S
O226 Eu183 2.291 . S
O226 C246 1.255 . S
O227 Eu172 2.372 . S
O227 C246 1.257 . S
C228 O217 1.249 . S
C228 O218 1.264 . S
C229 C232 1.382 . S
C229 C234 1.390 . S
C229 C236 1.506 . S
C230 C231 1.398 . S
C230 C234 1.392 . S
C231 C230 1.398 . S
C231 C233 1.372 . S
C231 H248 0.931 . S
C232 C229 1.382 . S
C232 C233 1.390 . S
C232 H249 0.931 . S
C233 C231 1.372 . S
C233 C232 1.390 . S
C233 H250 0.929 . S
C234 C229 1.390 . S
C234 C230 1.392 . S
C234 H251 0.930 . S
C235 O220 1.255 . S
C235 O221 1.257 . S
C236 Eu172 2.787 . S
C236 O216 1.252 . S
C236 O219 1.268 . S
C236 C229 1.506 . S
C237 C204 1.439 . S
C237 H214 0.931 . S
C237 C238 1.374 . S
C238 C209 1.387 . S
C238 H215 0.931 . S
C238 C237 1.374 . S
C239 O223 1.249 . S
C239 O224 1.264 . S
C240 C243 1.382 . S
C240 C244 1.390 . S
C240 C247 1.506 . S
C241 C242 1.398 . S
C241 C244 1.392 . S
C242 C241 1.398 . S
C242 C245 1.372 . S
C242 H252 0.931 . S
C243 C240 1.382 . S
C243 C245 1.390 . S
C243 H253 0.931 . S
C244 C240 1.390 . S
C244 C241 1.392 . S
C244 H254 0.930 . S
C245 C242 1.372 . S
C245 C243 1.390 . S
C245 H255 0.929 . S
C246 O226 1.255 . S
C246 O227 1.257 . S
C247 Eu183 2.787 . S
C247 O222 1.252 . S
C247 O225 1.268 . S
C247 C240 1.506 . S
H248 C231 0.931 . S
H249 C232 0.931 . S
H250 C233 0.929 . S
H251 C234 0.930 . S
H252 C242 0.931 . S
H253 C243 0.931 . S
H254 C244 0.930 . S
H255 C245 0.929 . S
Eu256 N285 2.600 . S
Eu256 N291 2.562 . S
Eu256 O300 2.462 . S
Eu256 O301 2.373 . S
Eu256 O303 2.432 . S
Eu256 O304 2.310 . S
Eu256 O308 2.341 . S
Eu256 O311 2.372 . S
Eu256 C320 2.787 . S
C257 N258 1.365 . S
C257 C260 1.405 . S
C257 C264 1.448 . S
N258 C257 1.365 . S
N258 C261 1.319 . S
N258 Eu267 2.600 . S
C259 C261 1.397 . S
C259 C262 1.367 . S
C259 H279 0.931 . S
C260 C257 1.405 . S
C260 C262 1.403 . S
C260 C266 1.439 . S
C261 N258 1.319 . S
C261 C259 1.397 . S
C261 H272 0.930 . S
C262 C259 1.367 . S
C262 C260 1.403 . S
C262 H283 0.929 . S
C263 C264 1.430 . S
C263 C265 1.387 . S
C263 C269 1.404 . S
C264 C257 1.448 . S
C264 C263 1.430 . S
C264 N268 1.351 . S
C265 C263 1.387 . S
C265 C266 1.374 . S
C265 H280 0.931 . S
C266 C260 1.439 . S
C266 C265 1.374 . S
C266 H281 0.931 . S
Eu267 N258 2.600 . S
Eu267 N268 2.562 . S
Eu267 O302 2.335 1_655 S
Eu267 O305 2.372 . S
Eu267 O306 2.462 . S
Eu267 O307 2.373 . S
Eu267 O309 2.432 . S
Eu267 O310 2.291 1_655 S
Eu267 C331 2.787 . S
N268 C264 1.351 . S
N268 Eu267 2.562 . S
N268 C270 1.325 . S
C269 C263 1.404 . S
C269 C271 1.366 . S
C269 H277 0.930 . S
C270 N268 1.325 . S
C270 C271 1.416 . S
C270 H276 0.929 . S
C271 C269 1.366 . S
C271 C270 1.416 . S
C271 H273 0.930 . S
H272 C261 0.930 . S
H273 C271 0.930 . S
H274 C289 0.930 . S
H275 C296 0.930 . S
H276 C270 0.929 . S
H277 C269 0.930 . S
H278 C292 0.929 . S
H279 C259 0.931 . S
H280 C265 0.931 . S
H281 C266 0.931 . S
H282 C287 0.931 . S
H283 C262 0.929 . S
H284 C295 0.930 . S
N285 Eu256 2.600 . S
N285 C286 1.365 . S
N285 C289 1.319 . S
C286 N285 1.365 . S
C286 C288 1.405 . S
C286 C294 1.448 . S
C287 H282 0.931 . S
C287 C289 1.397 . S
C287 C290 1.367 . S
C288 C286 1.405 . S
C288 C290 1.403 . S
C288 C321 1.439 . S
C289 H274 0.930 . S
C289 N285 1.319 . S
C289 C287 1.397 . S
C290 C287 1.367 . S
C290 C288 1.403 . S
C290 H297 0.929 . S
N291 Eu256 2.562 . S
N291 C292 1.325 . S
N291 C294 1.351 . S
C292 H278 0.929 . S
C292 N291 1.325 . S
C292 C296 1.416 1_565 S
C293 C294 1.430 . S
C293 C295 1.404 1_565 S
C293 C322 1.387 . S
C294 C286 1.448 . S
C294 N291 1.351 . S
C294 C293 1.430 . S
C295 H284 0.930 . S
C295 C293 1.404 1_545 S
C295 C296 1.366 . S
C296 H275 0.930 . S
C296 C292 1.416 1_545 S
C296 C295 1.366 . S
H297 C290 0.929 . S
H298 C321 0.931 . S
H299 C322 0.931 . S
O300 Eu256 2.462 . S
O300 C320 1.252 . S
O301 Eu256 2.373 . S
O301 C312 1.249 . S
O302 Eu267 2.335 1_455 S
O302 C312 1.264 . S
O303 Eu256 2.432 . S
O303 C320 1.268 . S
O304 Eu256 2.310 . S
O304 C319 1.233 1_455 S
O305 Eu267 2.372 . S
O305 C319 1.257 . S
O306 Eu267 2.462 . S
O306 C331 1.252 . S
O307 Eu267 2.373 . S
O307 C323 1.249 . S
O308 Eu256 2.341 . S
O308 C323 1.256 1_455 S
O309 Eu267 2.432 . S
O309 C331 1.268 . S
O310 Eu267 2.291 1_455 S
O310 C330 1.255 . S
O311 Eu256 2.372 . S
O311 C330 1.257 . S
C312 O301 1.249 . S
C312 O302 1.264 . S
C313 C316 1.382 . S
C313 C318 1.390 . S
C313 C320 1.506 . S
C314 C315 1.398 . S
C314 C318 1.392 . S
C315 C314 1.398 . S
C315 C317 1.372 . S
C315 H332 0.931 . S
C316 C313 1.382 . S
C316 C317 1.390 . S
C316 H333 0.931 . S
C317 C315 1.372 . S
C317 C316 1.390 . S
C317 H334 0.929 . S
C318 C313 1.390 . S
C318 C314 1.392 . S
C318 H335 0.930 . S
C319 O304 1.233 1_655 S
C319 O305 1.257 . S
C320 Eu256 2.787 . S
C320 O300 1.252 . S
C320 O303 1.268 . S
C320 C313 1.506 . S
C321 C288 1.439 . S
C321 H298 0.931 . S
C321 C322 1.374 . S
C322 C293 1.387 . S
C322 H299 0.931 . S
C322 C321 1.374 . S
C323 O307 1.249 . S
C323 O308 1.256 1_655 S
C324 C327 1.382 . S
C324 C328 1.390 . S
C324 C331 1.506 . S
C325 C326 1.398 . S
C325 C328 1.392 . S
C326 C325 1.398 . S
C326 C329 1.372 . S
C326 H336 0.931 . S
C327 C324 1.382 . S
C327 C329 1.390 . S
C327 H337 0.931 . S
C328 C324 1.390 . S
C328 C325 1.392 . S
C328 H338 0.930 . S
C329 C326 1.372 . S
C329 C327 1.390 . S
C329 H339 0.929 . S
C330 O310 1.255 . S
C330 O311 1.257 . S
C331 Eu267 2.787 . S
C331 O306 1.252 . S
C331 O309 1.268 . S
C331 C324 1.506 . S
H332 C315 0.931 . S
H333 C316 0.931 . S
H334 C317 0.929 . S
H335 C318 0.930 . S
H336 C326 0.931 . S
H337 C327 0.931 . S
H338 C328 0.930 . S
H339 C329 0.929 . S
Eu340 N369 2.600 . S
Eu340 N375 2.562 . S
Eu340 O384 2.462 . S
Eu340 O385 2.373 . S
Eu340 O387 2.432 . S
Eu340 O388 2.291 . S
Eu340 O392 2.335 . S
Eu340 O395 2.372 . S
Eu340 C404 2.787 . S
C341 N342 1.365 . S
C341 C344 1.405 . S
C341 C348 1.448 . S
N342 C341 1.365 . S
N342 C345 1.319 . S
N342 Eu351 2.600 . S
C343 C345 1.397 . S
C343 C346 1.367 . S
C343 H363 0.931 . S
C344 C341 1.405 . S
C344 C346 1.403 . S
C344 C350 1.439 . S
C345 N342 1.319 . S
C345 C343 1.397 . S
C345 H356 0.930 . S
C346 C343 1.367 . S
C346 C344 1.403 . S
C346 H367 0.929 . S
C347 C348 1.430 . S
C347 C349 1.387 . S
C347 C353 1.404 . S
C348 C341 1.448 . S
C348 C347 1.430 . S
C348 N352 1.351 . S
C349 C347 1.387 . S
C349 C350 1.374 . S
C349 H364 0.931 . S
C350 C344 1.439 . S
C350 C349 1.374 . S
C350 H365 0.931 . S
Eu351 N342 2.600 . S
Eu351 N352 2.562 . S
Eu351 O386 2.335 . S
Eu351 O389 2.372 . S
Eu351 O390 2.462 . S
Eu351 O391 2.373 . S
Eu351 O393 2.432 . S
Eu351 O394 2.291 . S
Eu351 C415 2.787 . S
N352 C348 1.351 . S
N352 Eu351 2.562 . S
N352 C354 1.325 . S
C353 C347 1.404 . S
C353 C355 1.366 . S
C353 H361 0.930 . S
C354 N352 1.325 . S
C354 C355 1.416 . S
C354 H360 0.929 . S
C355 C353 1.366 . S
C355 C354 1.416 . S
C355 H357 0.930 . S
H356 C345 0.930 . S
H357 C355 0.930 . S
H358 C373 0.930 . S
H359 C380 0.930 . S
H360 C354 0.929 . S
H361 C353 0.930 . S
H362 C376 0.929 . S
H363 C343 0.931 . S
H364 C349 0.931 . S
H365 C350 0.931 . S
H366 C371 0.931 . S
H367 C346 0.929 . S
H368 C379 0.930 . S
N369 Eu340 2.600 . S
N369 C370 1.365 . S
N369 C373 1.319 . S
C370 N369 1.365 . S
C370 C372 1.405 . S
C370 C378 1.448 . S
C371 H366 0.931 . S
C371 C373 1.397 . S
C371 C374 1.367 . S
C372 C370 1.405 . S
C372 C374 1.403 . S
C372 C405 1.439 . S
C373 H358 0.930 . S
C373 N369 1.319 . S
C373 C371 1.397 . S
C374 C371 1.367 . S
C374 C372 1.403 . S
C374 H381 0.929 . S
N375 Eu340 2.562 . S
N375 C376 1.325 . S
N375 C378 1.351 . S
C376 H362 0.929 . S
C376 N375 1.325 . S
C376 C380 1.416 . S
C377 C378 1.430 . S
C377 C379 1.404 . S
C377 C406 1.387 . S
C378 C370 1.448 . S
C378 N375 1.351 . S
C378 C377 1.430 . S
C379 H368 0.930 . S
C379 C377 1.404 . S
C379 C380 1.366 . S
C380 H359 0.930 . S
C380 C376 1.416 . S
C380 C379 1.366 . S
H381 C374 0.929 . S
H382 C405 0.931 . S
H383 C406 0.931 . S
O384 Eu340 2.462 . S
O384 C404 1.252 . S
O385 Eu340 2.373 . S
O385 C396 1.249 . S
O386 Eu351 2.335 . S
O386 C396 1.264 . S
O387 Eu340 2.432 . S
O387 C404 1.268 . S
O388 Eu340 2.291 . S
O388 C403 1.255 . S
O389 Eu351 2.372 . S
O389 C403 1.257 . S
O390 Eu351 2.462 . S
O390 C415 1.252 . S
O391 Eu351 2.373 . S
O391 C407 1.249 . S
O392 Eu340 2.335 . S
O392 C407 1.264 . S
O393 Eu351 2.432 . S
O393 C415 1.268 . S
O394 Eu351 2.291 . S
O394 C414 1.255 . S
O395 Eu340 2.372 . S
O395 C414 1.257 . S
C396 O385 1.249 . S
C396 O386 1.264 . S
C397 C400 1.382 . S
C397 C402 1.390 . S
C397 C404 1.506 . S
C398 C399 1.398 . S
C398 C402 1.392 . S
C399 C398 1.398 . S
C399 C401 1.372 . S
C399 H416 0.931 . S
C400 C397 1.382 . S
C400 C401 1.390 . S
C400 H417 0.931 . S
C401 C399 1.372 . S
C401 C400 1.390 . S
C401 H418 0.929 . S
C402 C397 1.390 . S
C402 C398 1.392 . S
C402 H419 0.930 . S
C403 O388 1.255 . S
C403 O389 1.257 . S
C404 Eu340 2.787 . S
C404 O384 1.252 . S
C404 O387 1.268 . S
C404 C397 1.506 . S
C405 C372 1.439 . S
C405 H382 0.931 . S
C405 C406 1.374 . S
C406 C377 1.387 . S
C406 H383 0.931 . S
C406 C405 1.374 . S
C407 O391 1.249 . S
C407 O392 1.264 . S
C408 C411 1.382 . S
C408 C412 1.390 . S
C408 C415 1.506 . S
C409 C410 1.398 . S
C409 C412 1.392 . S
C410 C409 1.398 . S
C410 C413 1.372 . S
C410 H420 0.931 . S
C411 C408 1.382 . S
C411 C413 1.390 . S
C411 H421 0.931 . S
C412 C408 1.390 . S
C412 C409 1.392 . S
C412 H422 0.930 . S
C413 C410 1.372 . S
C413 C411 1.390 . S
C413 H423 0.929 . S
C414 O394 1.255 . S
C414 O395 1.257 . S
C415 Eu351 2.787 . S
C415 O390 1.252 . S
C415 O393 1.268 . S
C415 C408 1.506 . S
H416 C399 0.931 . S
H417 C400 0.931 . S
H418 C401 0.929 . S
H419 C402 0.930 . S
H420 C410 0.931 . S
H421 C411 0.931 . S
H422 C412 0.930 . S
H423 C413 0.929 . S
H424 C430 0.930 . S
H425 C434 0.930 . S
H426 C439 0.929 . S
H427 C437 0.926 1_565 S
H428 C432 0.929 . S
H429 C438 0.929 . S
C430 H424 0.930 . S
C430 C431 1.367 . S
C430 C438 1.378 . S
C431 C430 1.367 . S
C431 C439 1.433 . S
C432 H428 0.929 . S
C432 C434 1.378 . S
C432 C436 1.350 1_545 S
C433 C436 1.463 . S
C433 C438 1.350 . S
C433 N441 1.427 . S
C434 H425 0.930 . S
C434 C432 1.378 . S
C434 C435 1.367 . S
C435 C434 1.367 . S
C435 C437 1.445 . S
C436 C432 1.350 1_565 S
C436 C433 1.463 . S
C436 N440 1.427 . S
C437 H427 0.926 1_545 S
C437 C435 1.445 . S
C437 N440 1.375 1_545 S
C438 H429 0.929 . S
C438 C430 1.378 . S
C438 C433 1.350 . S
C439 H426 0.929 . S
C439 C431 1.433 . S
C439 N441 1.384 . S
N440 C436 1.427 . S
N440 C437 1.375 1_565 S
N441 C433 1.427 . S
N441 C439 1.384 . S
H442 C448 0.930 . S
H443 C452 0.930 . S
H444 C457 0.929 . S
H445 C455 0.929 . S
H446 C450 0.929 . S
H447 C456 0.929 . S
C448 H442 0.930 . S
C448 C449 1.367 . S
C448 C456 1.378 . S
C449 C448 1.367 . S
C449 C457 1.433 . S
C450 H446 0.929 . S
C450 C452 1.378 . S
C450 C454 1.350 . S
C451 C454 1.463 . S
C451 C456 1.350 . S
C451 N459 1.427 . S
C452 H443 0.930 . S
C452 C450 1.378 . S
C452 C453 1.367 . S
C453 C452 1.367 . S
C453 C455 1.433 . S
C454 C450 1.350 . S
C454 C451 1.463 . S
C454 N458 1.427 . S
C455 H445 0.929 . S
C455 C453 1.433 . S
C455 N458 1.384 . S
C456 H447 0.929 . S
C456 C448 1.378 . S
C456 C451 1.350 . S
C457 H444 0.929 . S
C457 C449 1.433 . S
C457 N459 1.384 . S
N458 C454 1.427 . S
N458 C455 1.384 . S
N459 C451 1.427 . S
N459 C457 1.384 . S
H460 C466 0.930 . S
H461 C470 0.930 . S
H462 C475 0.929 . S
H463 C473 0.929 . S
H464 C468 0.929 . S
H465 C474 0.929 . S
C466 H460 0.930 . S
C466 C467 1.367 . S
C466 C474 1.378 . S
C467 C466 1.367 . S
C467 C475 1.433 . S
C468 H464 0.929 . S
C468 C470 1.378 . S
C468 C472 1.350 . S
C469 C472 1.463 . S
C469 C474 1.350 . S
C469 N477 1.427 . S
C470 H461 0.930 . S
C470 C468 1.378 . S
C470 C471 1.367 . S
C471 C470 1.367 . S
C471 C473 1.433 . S
C472 C468 1.350 . S
C472 C469 1.463 . S
C472 N476 1.427 . S
C473 H463 0.929 . S
C473 C471 1.433 . S
C473 N476 1.384 . S
C474 H465 0.929 . S
C474 C466 1.378 . S
C474 C469 1.350 . S
C475 H462 0.929 . S
C475 C467 1.433 . S
C475 N477 1.384 . S
N476 C472 1.427 . S
N476 C473 1.384 . S
N477 C469 1.427 . S
N477 C475 1.384 . S
H478 C484 0.930 . S
H479 C488 0.930 1_565 S
H480 C493 0.929 . S
H481 C491 0.929 . S
H482 C486 0.929 . S
H483 C492 0.948 . S
C484 H478 0.930 . S
C484 C485 1.367 . S
C484 C492 1.378 . S
C485 C484 1.367 . S
C485 C493 1.433 . S
C486 H482 0.929 . S
C486 C488 1.378 1_565 S
C486 C490 1.350 . S
C487 C490 1.463 . S
C487 C492 1.350 . S
C487 N495 1.427 . S
C488 H479 0.930 1_545 S
C488 C486 1.378 1_545 S
C488 C489 1.367 . S
C489 C488 1.367 . S
C489 C491 1.433 . S
C490 C486 1.350 . S
C490 C487 1.463 . S
C490 N494 1.427 1_565 S
C491 H481 0.929 . S
C491 C489 1.433 . S
C491 N494 1.384 . S
C492 H483 0.948 . S
C492 C484 1.378 . S
C492 C487 1.350 . S
C493 H480 0.929 . S
C493 C485 1.433 . S
C493 N495 1.384 . S
N494 C490 1.427 1_545 S
N494 C491 1.384 . S
N495 C487 1.427 . S
N495 C493 1.384 . S
H496 C502 0.930 . S
H497 C506 0.930 . S
H498 C511 0.929 . S
H499 C509 0.929 . S
H500 C504 0.929 . S
H501 C510 0.929 . S
C502 H496 0.930 . S
C502 C503 1.367 . S
C502 C510 1.378 . S
C503 C502 1.367 . S
C503 C511 1.433 . S
C504 H500 0.929 . S
C504 C506 1.378 . S
C504 C508 1.350 1_565 S
C505 C508 1.463 . S
C505 C510 1.350 . S
C505 N513 1.427 . S
C506 H497 0.930 . S
C506 C504 1.378 . S
C506 C507 1.367 . S
C507 C506 1.367 . S
C507 C509 1.433 . S
C508 C504 1.350 1_545 S
C508 C505 1.463 . S
C508 N512 1.427 . S
C509 H499 0.929 . S
C509 C507 1.433 . S
C509 N512 1.384 1_565 S
C510 H501 0.929 . S
C510 C502 1.378 . S
C510 C505 1.350 . S
C511 H498 0.929 . S
C511 C503 1.433 . S
C511 N513 1.384 . S
N512 C508 1.427 . S
N512 C509 1.384 1_545 S
N513 C505 1.427 . S
N513 C511 1.384 . S
H514 C520 0.930 . S
H515 C524 0.930 . S
H516 C529 0.929 . S
H517 C527 0.929 . S
H518 C522 0.929 . S
H519 C528 0.929 . S
C520 H514 0.930 . S
C520 C521 1.367 . S
C520 C528 1.378 . S
C521 C520 1.367 . S
C521 C529 1.433 . S
C522 H518 0.929 . S
C522 C524 1.378 . S
C522 C526 1.350 . S
C523 C526 1.463 . S
C523 C528 1.350 . S
C523 N531 1.427 . S
C524 H515 0.930 . S
C524 C522 1.378 . S
C524 C525 1.367 . S
C525 C524 1.367 . S
C525 C527 1.433 . S
C526 C522 1.350 . S
C526 C523 1.463 . S
C526 N530 1.427 . S
C527 H517 0.929 . S
C527 C525 1.433 . S
C527 N530 1.384 . S
C528 H519 0.929 . S
C528 C520 1.378 . S
C528 C523 1.350 . S
C529 H516 0.929 . S
C529 C521 1.433 . S
C529 N531 1.384 . S
N530 C526 1.427 . S
N530 C527 1.384 . S
N531 C523 1.427 . S
N531 C529 1.384 . S
H532 C538 0.930 . S
H533 C542 0.930 . S
H534 C547 0.929 . S
H535 C545 0.929 . S
H536 C540 0.929 . S
H537 C546 0.929 . S
C538 H532 0.930 . S
C538 C539 1.367 . S
C538 C546 1.378 . S
C539 C538 1.367 . S
C539 C547 1.433 . S
C540 H536 0.929 . S
C540 C542 1.378 . S
C540 C544 1.350 . S
C541 C544 1.463 . S
C541 C546 1.350 . S
C541 N549 1.427 . S
C542 H533 0.930 . S
C542 C540 1.378 . S
C542 C543 1.367 . S
C543 C542 1.367 . S
C543 C545 1.433 . S
C544 C540 1.350 . S
C544 C541 1.463 . S
C544 N548 1.427 . S
C545 H535 0.929 . S
C545 C543 1.433 . S
C545 N548 1.384 . S
C546 H537 0.929 . S
C546 C538 1.378 . S
C546 C541 1.350 . S
C547 H534 0.929 . S
C547 C539 1.433 . S
C547 N549 1.384 . S
N548 C544 1.427 . S
N548 C545 1.384 . S
N549 C541 1.427 . S
N549 C547 1.384 . S
H550 C556 0.930 . S
H551 C560 0.930 . S
H552 C565 0.929 . S
H553 C563 0.929 . S
H554 C558 0.934 . S
H555 C564 0.929 . S
C556 H550 0.930 . S
C556 C557 1.367 . S
C556 C564 1.378 . S
C557 C556 1.367 . S
C557 C565 1.433 . S
C558 H554 0.934 . S
C558 C560 1.378 . S
C558 C562 1.350 1_565 S
C559 C562 1.463 . S
C559 C564 1.350 . S
C559 N567 1.427 . S
C560 H551 0.930 . S
C560 C558 1.378 . S
C560 C561 1.367 . S
C561 C560 1.367 . S
C561 C563 1.433 . S
C562 C558 1.350 1_545 S
C562 C559 1.463 . S
C562 N566 1.427 . S
C563 H553 0.929 . S
C563 C561 1.433 . S
C563 N566 1.384 1_565 S
C564 H555 0.929 . S
C564 C556 1.378 . S
C564 C559 1.350 . S
C565 H552 0.929 . S
C565 C557 1.433 . S
C565 N567 1.384 . S
N566 C562 1.427 . S
N566 C563 1.384 1_545 S
N567 C559 1.427 . S
N567 C565 1.384 . S
H568 C574 0.930 . S
H569 C578 0.930 . S
H570 C583 0.929 . S
H571 C581 0.929 . S
H572 C576 0.929 . S
H573 C582 0.914 1_554 S
C574 H568 0.930 . S
C574 C575 1.367 . S
C574 C582 1.378 . S
C575 C574 1.367 . S
C575 C583 1.433 . S
C576 H572 0.929 . S
C576 C578 1.378 . S
C576 C580 1.350 . S
C577 C580 1.463 . S
C577 C582 1.350 1_554 S
C577 N585 1.427 . S
C578 H569 0.930 . S
C578 C576 1.378 . S
C578 C579 1.367 . S
C579 C578 1.367 . S
C579 C581 1.433 . S
C580 C576 1.350 . S
C580 C577 1.463 . S
C580 N584 1.427 . S
C581 H571 0.929 . S
C581 C579 1.433 . S
C581 N584 1.384 . S
C582 H573 0.914 1_556 S
C582 C574 1.378 . S
C582 C577 1.350 1_556 S
C583 H570 0.929 . S
C583 C575 1.433 . S
C583 N585 1.384 1_556 S
N584 C580 1.427 . S
N584 C581 1.384 . S
N585 C577 1.427 . S
N585 C583 1.384 1_554 S
H586 C592 0.930 . S
H587 C596 0.930 . S
H588 C601 0.929 . S
H589 C599 0.929 . S
H590 C594 0.929 . S
H591 C600 0.929 . S
C592 H586 0.930 . S
C592 C593 1.367 . S
C592 C600 1.378 . S
C593 C592 1.367 . S
C593 C601 1.433 . S
C594 H590 0.929 . S
C594 C596 1.378 . S
C594 C598 1.350 . S
C595 C598 1.463 . S
C595 C600 1.350 . S
C595 N603 1.427 . S
C596 H587 0.930 . S
C596 C594 1.378 . S
C596 C597 1.367 . S
C597 C596 1.367 . S
C597 C599 1.433 . S
C598 C594 1.350 . S
C598 C595 1.463 . S
C598 N602 1.427 . S
C599 H589 0.929 . S
C599 C597 1.433 . S
C599 N602 1.384 . S
C600 H591 0.929 . S
C600 C592 1.378 . S
C600 C595 1.350 . S
C601 H588 0.929 . S
C601 C593 1.433 . S
C601 N603 1.384 . S
N602 C598 1.427 . S
N602 C599 1.384 . S
N603 C595 1.427 . S
N603 C601 1.384 . S
H604 C610 0.930 . S
H605 C614 0.930 . S
H606 C619 0.929 . S
H607 C617 0.929 . S
H608 C612 0.929 . S
H609 C618 0.929 1_556 S
C610 H604 0.930 . S
C610 C611 1.367 . S
C610 C618 1.378 . S
C611 C610 1.367 . S
C611 C619 1.433 . S
C612 H608 0.929 . S
C612 C614 1.378 . S
C612 C616 1.350 . S
C613 C616 1.463 . S
C613 C618 1.350 1_556 S
C613 N621 1.427 1_556 S
C614 H605 0.930 . S
C614 C612 1.378 . S
C614 C615 1.367 . S
C615 C614 1.367 . S
C615 C617 1.433 . S
C616 C612 1.350 . S
C616 C613 1.463 . S
C616 N620 1.427 . S
C617 H607 0.929 . S
C617 C615 1.433 . S
C617 N620 1.384 . S
C618 H609 0.929 1_554 S
C618 C610 1.378 . S
C618 C613 1.350 1_554 S
C619 H606 0.929 . S
C619 C611 1.433 . S
C619 N621 1.384 . S
N620 C616 1.427 . S
N620 C617 1.384 . S
N621 C613 1.427 1_554 S
N621 C619 1.384 . S
H622 C628 0.930 . S
H623 C632 0.930 . S
H624 C637 0.929 . S
H625 C635 0.929 . S
H626 C630 0.929 . S
H627 C636 0.929 . S
C628 H622 0.930 . S
C628 C629 1.367 . S
C628 C636 1.378 . S
C629 C628 1.367 . S
C629 C637 1.433 . S
C630 H626 0.929 . S
C630 C632 1.378 . S
C630 C634 1.350 . S
C631 C634 1.463 . S
C631 C636 1.350 . S
C631 N639 1.427 . S
C632 H623 0.930 . S
C632 C630 1.378 . S
C632 C633 1.367 . S
C633 C632 1.367 . S
C633 C635 1.433 . S
C634 C630 1.350 . S
C634 C631 1.463 . S
C634 N638 1.427 . S
C635 H625 0.929 . S
C635 C633 1.433 . S
C635 N638 1.384 . S
C636 H627 0.929 . S
C636 C628 1.378 . S
C636 C631 1.350 . S
C637 H624 0.929 . S
C637 C629 1.433 . S
C637 N639 1.384 . S
N638 C634 1.427 . S
N638 C635 1.384 . S
N639 C631 1.427 . S
N639 C637 1.384 . S
H640 C646 0.930 . S
H641 C650 0.930 . S
H642 C655 0.929 . S
H643 C653 0.929 . S
H644 C648 0.929 . S
H645 C654 0.951 . S
C646 H640 0.930 . S
C646 C647 1.367 . S
C646 C654 1.353 1_554 S
C647 C646 1.367 . S
C647 C655 1.433 . S
C648 H644 0.929 . S
C648 C650 1.378 . S
C648 C652 1.350 . S
C649 C652 1.463 . S
C649 C654 1.353 . S
C649 N657 1.427 1_556 S
C650 H641 0.930 . S
C650 C648 1.378 . S
C650 C651 1.367 . S
C651 C650 1.367 . S
C651 C653 1.433 . S
C652 C648 1.350 . S
C652 C649 1.463 . S
C652 N656 1.427 . S
C653 H643 0.929 . S
C653 C651 1.433 . S
C653 N656 1.384 . S
C654 H645 0.951 . S
C654 C646 1.353 1_556 S
C654 C649 1.353 . S
C655 H642 0.929 . S
C655 C647 1.433 . S
C655 N657 1.384 . S
N656 C652 1.427 . S
N656 C653 1.384 . S
N657 C649 1.427 1_554 S
N657 C655 1.384 . S
H658 C664 0.930 . S
H659 C668 0.930 . S
H660 C673 0.929 . S
H661 C671 0.929 . S
H662 C666 0.929 . S
H663 C672 0.929 . S
C664 H658 0.930 . S
C664 C665 1.367 . S
C664 C672 1.378 . S
C665 C664 1.367 . S
C665 C673 1.433 . S
C666 H662 0.929 . S
C666 C668 1.378 . S
C666 C670 1.350 . S
C667 C670 1.463 . S
C667 C672 1.350 . S
C667 N675 1.427 . S
C668 H659 0.930 . S
C668 C666 1.378 . S
C668 C669 1.367 . S
C669 C668 1.367 . S
C669 C671 1.433 . S
C670 C666 1.350 . S
C670 C667 1.463 . S
C670 N674 1.427 . S
C671 H661 0.929 . S
C671 C669 1.433 . S
C671 N674 1.384 . S
C672 H663 0.929 . S
C672 C664 1.378 . S
C672 C667 1.350 . S
C673 H660 0.929 . S
C673 C665 1.433 . S
C673 N675 1.384 . S
N674 C670 1.427 . S
N674 C671 1.384 . S
N675 C667 1.427 . S
N675 C673 1.384 . S
H676 C682 0.930 . S
H677 C686 0.930 . S
H678 C691 0.929 . S
H679 C689 0.929 . S
H680 C684 0.929 . S
H681 C690 0.929 . S
C682 H676 0.930 . S
C682 C683 1.367 . S
C682 C690 1.378 . S
C683 C682 1.367 . S
C683 C691 1.433 . S
C684 H680 0.929 . S
C684 C686 1.378 . S
C684 C688 1.350 . S
C685 C688 1.463 . S
C685 C690 1.350 1_554 S
C685 N693 1.427 1_554 S
C686 H677 0.930 . S
C686 C684 1.378 . S
C686 C687 1.367 . S
C687 C686 1.367 . S
C687 C689 1.433 . S
C688 C684 1.350 . S
C688 C685 1.463 . S
C688 N692 1.427 . S
C689 H679 0.929 . S
C689 C687 1.433 . S
C689 N692 1.384 . S
C690 H681 0.929 . S
C690 C682 1.378 . S
C690 C685 1.350 1_556 S
C691 H678 0.929 . S
C691 C683 1.433 . S
C691 N693 1.384 . S
N692 C688 1.427 . S
N692 C689 1.384 . S
N693 C685 1.427 1_556 S
N693 C691 1.384 . S
H694 C700 0.930 . S
H695 C704 0.930 . S
H696 C709 0.929 . S
H697 C707 0.929 . S
H698 C702 0.929 . S
H699 C708 0.929 . S
C700 H694 0.930 . S
C700 C701 1.367 . S
C700 C708 1.378 . S
C701 C700 1.367 . S
C701 C709 1.433 . S
C702 H698 0.929 . S
C702 C704 1.378 . S
C702 C706 1.350 . S
C703 C706 1.463 . S
C703 C708 1.350 . S
C703 N711 1.427 . S
C704 H695 0.930 . S
C704 C702 1.378 . S
C704 C705 1.367 . S
C705 C704 1.367 . S
C705 C707 1.433 . S
C706 C702 1.350 . S
C706 C703 1.463 . S
C706 N710 1.427 . S
C707 H697 0.929 . S
C707 C705 1.433 . S
C707 N710 1.384 . S
C708 H699 0.929 . S
C708 C700 1.378 . S
C708 C703 1.350 . S
C709 H696 0.929 . S
C709 C701 1.433 . S
C709 N711 1.384 . S
N710 C706 1.427 . S
N710 C707 1.384 . S
N711 C703 1.427 . S
N711 C709 1.384 . S
H712 C718 0.930 . S
H713 C722 0.930 . S
H714 C727 0.929 . S
H715 C725 0.929 . S
H716 C720 0.929 . S
H717 C726 0.929 . S
C718 H712 0.930 . S
C718 C719 1.367 . S
C718 C726 1.378 . S
C719 C718 1.367 . S
C719 C727 1.433 . S
C720 H716 0.929 . S
C720 C722 1.378 . S
C720 C724 1.350 . S
C721 C724 1.463 . S
C721 C726 1.350 . S
C721 N729 1.427 . S
C722 H713 0.930 . S
C722 C720 1.378 . S
C722 C723 1.367 . S
C723 C722 1.367 . S
C723 C725 1.433 . S
C724 C720 1.350 . S
C724 C721 1.463 . S
C724 N728 1.427 . S
C725 H715 0.929 . S
C725 C723 1.433 . S
C725 N728 1.384 . S
C726 H717 0.929 . S
C726 C718 1.378 . S
C726 C721 1.350 . S
C727 H714 0.929 . S
C727 C719 1.433 . S
C727 N729 1.384 . S
N728 C724 1.427 . S
N728 C725 1.384 . S
N729 C721 1.427 . S
N729 C727 1.384 . S
H730 C736 0.930 . S
H731 C740 0.930 . S
H732 C745 0.929 . S
H733 C743 0.929 . S
H734 C738 0.929 . S
H735 C744 0.929 . S
C736 H730 0.930 . S
C736 C737 1.367 . S
C736 C744 1.378 . S
C737 C736 1.367 . S
C737 C745 1.433 . S
C738 H734 0.929 . S
C738 C740 1.378 . S
C738 C742 1.350 . S
C739 C742 1.463 . S
C739 C744 1.350 . S
C739 N747 1.427 . S
C740 H731 0.930 . S
C740 C738 1.378 . S
C740 C741 1.367 . S
C741 C740 1.367 . S
C741 C743 1.433 . S
C742 C738 1.350 . S
C742 C739 1.463 . S
C742 N746 1.427 . S
C743 H733 0.929 . S
C743 C741 1.433 . S
C743 N746 1.384 . S
C744 H735 0.929 . S
C744 C736 1.378 . S
C744 C739 1.350 . S
C745 H732 0.929 . S
C745 C737 1.433 . S
C745 N747 1.384 . S
N746 C742 1.427 . S
N746 C743 1.384 . S
N747 C739 1.427 . S
N747 C745 1.384 . S
H748 C754 0.930 . S
H749 C758 0.930 . S
H750 C763 0.929 . S
H751 C761 0.929 . S
H752 C756 0.929 . S
H753 C762 0.929 . S
C754 H748 0.930 . S
C754 C755 1.367 . S
C754 C762 1.378 . S
C755 C754 1.367 . S
C755 C763 1.433 . S
C756 H752 0.929 . S
C756 C758 1.378 . S
C756 C760 1.350 . S
C757 C760 1.463 . S
C757 C762 1.350 . S
C757 N765 1.427 . S
C758 H749 0.930 . S
C758 C756 1.378 . S
C758 C759 1.367 . S
C759 C758 1.367 . S
C759 C761 1.433 . S
C760 C756 1.350 . S
C760 C757 1.463 . S
C760 N764 1.427 . S
C761 H751 0.929 . S
C761 C759 1.433 . S
C761 N764 1.384 . S
C762 H753 0.929 . S
C762 C754 1.378 . S
C762 C757 1.350 . S
C763 H750 0.929 . S
C763 C755 1.433 . S
C763 N765 1.384 . S
N764 C760 1.427 . S
N764 C761 1.384 . S
N765 C757 1.427 . S
N765 C763 1.384 . S
H766 C772 0.930 . S
H767 C776 0.930 . S
H768 C781 0.929 . S
H769 C779 0.929 . S
H770 C774 0.929 . S
H771 C780 0.929 . S
C772 H766 0.930 . S
C772 C773 1.367 . S
C772 C780 1.378 . S
C773 C772 1.367 . S
C773 C781 1.433 . S
C774 H770 0.929 . S
C774 C776 1.378 . S
C774 C778 1.350 . S
C775 C778 1.463 . S
C775 C780 1.350 . S
C775 N783 1.427 . S
C776 H767 0.930 . S
C776 C774 1.378 . S
C776 C777 1.367 . S
C777 C776 1.367 . S
C777 C779 1.433 . S
C778 C774 1.350 . S
C778 C775 1.463 . S
C778 N782 1.427 . S
C779 H769 0.929 . S
C779 C777 1.433 . S
C779 N782 1.384 . S
C780 H771 0.929 . S
C780 C772 1.378 . S
C780 C775 1.350 . S
C781 H768 0.929 . S
C781 C773 1.433 . S
C781 N783 1.384 . S
N782 C778 1.427 . S
N782 C779 1.384 . S
N783 C775 1.427 . S
N783 C781 1.384 . S
H784 C790 0.930 . S
H785 C794 0.930 . S
H786 C799 0.929 . S
H787 C797 0.929 . S
H788 C792 0.929 . S
H789 C798 0.929 . S
C790 H784 0.930 . S
C790 C791 1.367 . S
C790 C798 1.378 . S
C791 C790 1.367 . S
C791 C799 1.433 . S
C792 H788 0.929 . S
C792 C794 1.378 . S
C792 C796 1.350 . S
C793 C796 1.463 . S
C793 C798 1.350 . S
C793 N801 1.427 . S
C794 H785 0.930 . S
C794 C792 1.378 . S
C794 C795 1.367 . S
C795 C794 1.367 . S
C795 C797 1.433 . S
C796 C792 1.350 . S
C796 C793 1.463 . S
C796 N800 1.427 . S
C797 H787 0.929 . S
C797 C795 1.433 . S
C797 N800 1.384 . S
C798 H789 0.929 . S
C798 C790 1.378 . S
C798 C793 1.350 . S
C799 H786 0.929 . S
C799 C791 1.433 . S
C799 N801 1.384 . S
N800 C796 1.427 . S
N800 C797 1.384 . S
N801 C793 1.427 . S
N801 C799 1.384 . S
H802 C808 0.930 . S
H803 C812 0.930 . S
H804 C817 0.929 . S
H805 C815 0.929 . S
H806 C810 0.929 . S
H807 C816 0.929 . S
C808 H802 0.930 . S
C808 C809 1.367 . S
C808 C816 1.378 . S
C809 C808 1.367 . S
C809 C817 1.433 . S
C810 H806 0.929 . S
C810 C812 1.378 . S
C810 C814 1.350 . S
C811 C814 1.463 . S
C811 C816 1.350 . S
C811 N819 1.427 . S
C812 H803 0.930 . S
C812 C810 1.378 . S
C812 C813 1.367 . S
C813 C812 1.367 . S
C813 C815 1.433 . S
C814 C810 1.350 . S
C814 C811 1.463 . S
C814 N818 1.427 . S
C815 H805 0.929 . S
C815 C813 1.433 . S
C815 N818 1.384 . S
C816 H807 0.929 . S
C816 C808 1.378 . S
C816 C811 1.350 . S
C817 H804 0.929 . S
C817 C809 1.433 . S
C817 N819 1.384 . S
N818 C814 1.427 . S
N818 C815 1.384 . S
N819 C811 1.427 . S
N819 C817 1.384 . S
H820 C826 0.930 . S
H821 C830 0.930 . S
H822 C835 0.929 . S
H823 C833 0.929 . S
H824 C828 0.929 . S
H825 C834 0.929 . S
C826 H820 0.930 . S
C826 C827 1.367 . S
C826 C834 1.378 . S
C827 C826 1.367 . S
C827 C835 1.433 . S
C828 H824 0.929 . S
C828 C830 1.378 . S
C828 C832 1.350 . S
C829 C832 1.463 . S
C829 C834 1.350 . S
C829 N837 1.427 . S
C830 H821 0.930 . S
C830 C828 1.378 . S
C830 C831 1.367 . S
C831 C830 1.367 . S
C831 C833 1.433 . S
C832 C828 1.350 . S
C832 C829 1.463 . S
C832 N836 1.427 . S
C833 H823 0.929 . S
C833 C831 1.433 . S
C833 N836 1.384 . S
C834 H825 0.929 . S
C834 C826 1.378 . S
C834 C829 1.350 . S
C835 H822 0.929 . S
C835 C827 1.433 . S
C835 N837 1.384 . S
N836 C832 1.427 . S
N836 C833 1.384 . S
N837 C829 1.427 . S
N837 C835 1.384 . S
H838 C844 0.930 . S
H839 C848 0.930 . S
H840 C853 0.929 . S
H841 C851 0.929 . S
H842 C846 0.929 . S
H843 C852 0.929 . S
C844 H838 0.930 . S
C844 C845 1.367 . S
C844 C852 1.378 . S
C845 C844 1.367 . S
C845 C853 1.433 . S
C846 H842 0.929 . S
C846 C848 1.378 . S
C846 C850 1.350 . S
C847 C850 1.463 . S
C847 C852 1.350 . S
C847 N855 1.427 . S
C848 H839 0.930 . S
C848 C846 1.378 . S
C848 C849 1.367 . S
C849 C848 1.367 . S
C849 C851 1.433 . S
C850 C846 1.350 . S
C850 C847 1.463 . S
C850 N854 1.427 . S
C851 H841 0.929 . S
C851 C849 1.433 . S
C851 N854 1.384 . S
C852 H843 0.929 . S
C852 C844 1.378 . S
C852 C847 1.350 . S
C853 H840 0.929 . S
C853 C845 1.433 . S
C853 N855 1.384 . S
N854 C850 1.427 . S
N854 C851 1.384 . S
N855 C847 1.427 . S
N855 C853 1.384 . S
C431 C71 1.666 . S
C435 C162 1.652 . S
C453 C246 1.632 . S
C449 C81 1.638 . S
C471 C239 1.660 . S
C467 C49 1.660 . S
C485 C59 1.636 . S
C489 C155 1.635 . S
C507 C319 1.657 . S
C503 C27 1.666 . S
C525 C403 1.694 . S
C521 C38 1.704 . S
C539 C5 1.660 . S
C543 C396 1.658 . S
C557 C16 1.699 . S
C561 C312 1.700 . S
C579 C146 1.394 . S
C575 C15 1.559 . S
C597 C230 1.409 . S
C593 C4 1.573 . S
C615 C241 1.366 . S
C611 C37 1.569 . S
C633 C157 1.366 . S
C629 C26 1.578 . S
C651 C325 1.470 . S
C647 C60 1.615 . S
C665 C48 1.637 . S
C669 C409 1.478 . S
C687 C398 1.405 . S
C683 C82 1.614 . S
C701 C70 1.643 . S
C705 C314 1.414 . S
C723 C144 1.498 . S
C719 C10 1.486 . S
C741 C228 1.544 . S
C737 C21 1.540 . S
C755 C32 1.489 . S
C759 C235 1.464 . S
C777 C151 1.520 . S
C773 C43 1.531 . S
C795 C323 1.589 . S
C791 C54 1.575 . S
C809 C65 1.545 . S
C813 C407 1.541 . S
C827 C76 1.572 . S
C831 C414 1.570 . S
C845 C87 1.540 . S
C849 C330 1.512 . S
