# Generated by pormake.
# Topology pyr, (3,6)-cn, num edge types: 1
# Building blocks:
#     Node 0, Type 0, BuildingBlock: ESEHIV_clean_linker_0, # of connection points: 3
#     Node 1, Type 0, BuildingBlock: ESEHIV_clean_linker_0, # of connection points: 3
#     Node 2, Type 0, BuildingBlock: ESEHIV_clean_linker_0, # of connection points: 3
#     Node 3, Type 0, BuildingBlock: ESEHIV_clean_linker_0, # of connection points: 3
#     Node 4, Type 0, BuildingBlock: ESEHIV_clean_linker_0, # of connection points: 3
#     Node 5, Type 0, BuildingBlock: ESEHIV_clean_linker_0, # of connection points: 3
#     Node 6, Type 0, BuildingBlock: ESEHIV_clean_linker_0, # of connection points: 3
#     Node 7, Type 0, BuildingBlock: ESEHIV_clean_linker_0, # of connection points: 3
#     Node 8, Type 1, BuildingBlock: LEVNOQ01_clean_sbu_1, # of connection points: 6
#     Node 9, Type 1, BuildingBlock: LEVNOQ01_clean_sbu_1, # of connection points: 6
#     Node 10, Type 1, BuildingBlock: LEVNOQ01_clean_sbu_1, # of connection points: 6
#     Node 11, Type 1, BuildingBlock: LEVNOQ01_clean_sbu_1, # of connection points: 6
#     Edge 12, Type (0, 1), BuildingBlock: MIFKUJ_clean_linker_0, # of connection points: 2
#     Edge 13, Type (0, 1), BuildingBlock: MIFKUJ_clean_linker_0, # of connection points: 2
#     Edge 14, Type (0, 1), BuildingBlock: MIFKUJ_clean_linker_0, # of connection points: 2
#     Edge 15, Type (0, 1), BuildingBlock: MIFKUJ_clean_linker_0, # of connection points: 2
#     Edge 16, Type (0, 1), BuildingBlock: MIFKUJ_clean_linker_0, # of connection points: 2
#     Edge 17, Type (0, 1), BuildingBlock: MIFKUJ_clean_linker_0, # of connection points: 2
#     Edge 18, Type (0, 1), BuildingBlock: MIFKUJ_clean_linker_0, # of connection points: 2
#     Edge 19, Type (0, 1), BuildingBlock: MIFKUJ_clean_linker_0, # of connection points: 2
#     Edge 20, Type (0, 1), BuildingBlock: MIFKUJ_clean_linker_0, # of connection points: 2
#     Edge 21, Type (0, 1), BuildingBlock: MIFKUJ_clean_linker_0, # of connection points: 2
#     Edge 22, Type (0, 1), BuildingBlock: MIFKUJ_clean_linker_0, # of connection points: 2
#     Edge 23, Type (0, 1), BuildingBlock: MIFKUJ_clean_linker_0, # of connection points: 2
#     Edge 24, Type (0, 1), BuildingBlock: MIFKUJ_clean_linker_0, # of connection points: 2
#     Edge 25, Type (0, 1), BuildingBlock: MIFKUJ_clean_linker_0, # of connection points: 2
#     Edge 26, Type (0, 1), BuildingBlock: MIFKUJ_clean_linker_0, # of connection points: 2
#     Edge 27, Type (0, 1), BuildingBlock: MIFKUJ_clean_linker_0, # of connection points: 2
#     Edge 28, Type (0, 1), BuildingBlock: MIFKUJ_clean_linker_0, # of connection points: 2
#     Edge 29, Type (0, 1), BuildingBlock: MIFKUJ_clean_linker_0, # of connection points: 2
#     Edge 30, Type (0, 1), BuildingBlock: MIFKUJ_clean_linker_0, # of connection points: 2
#     Edge 31, Type (0, 1), BuildingBlock: MIFKUJ_clean_linker_0, # of connection points: 2
#     Edge 32, Type (0, 1), BuildingBlock: MIFKUJ_clean_linker_0, # of connection points: 2
#     Edge 33, Type (0, 1), BuildingBlock: MIFKUJ_clean_linker_0, # of connection points: 2
#     Edge 34, Type (0, 1), BuildingBlock: MIFKUJ_clean_linker_0, # of connection points: 2
#     Edge 35, Type (0, 1), BuildingBlock: MIFKUJ_clean_linker_0, # of connection points: 2
# Relax obj value: 0.035
# Max RMSD: 0.110
# Mean RMSD: 0.045
data_MOF--net-pry--node1-LEVNOQ01_clean_sbu_1--node2-ESEHIV_clean_linker_0--edge1-MIFKUJ_clean_linker_0
_symmetry_space_group_name_H-M    P1
_symmetry_Int_Tables_number       1
_symmetry_cell_setting            triclinic
loop_
_symmetry_equiv_pos_as_xyz
'x, y, z'
_cell_length_a     46.468204
_cell_length_b     44.907928
_cell_length_c     44.833804
_cell_angle_alpha  92.336665
_cell_angle_beta   91.101226
_cell_angle_gamma 93.546719
loop_
_atom_site_label
_atom_site_type_symbol
_atom_site_fract_x
_atom_site_fract_y
_atom_site_fract_z
_atom_type_partial_charge
H0 H 0.11235 0.1805 0.16779 0.0
H1 H 0.17451 0.11329 0.16619 0.0
H2 H 0.17378 0.17723 0.09732 0.0
C3 C 0.13017 0.1701 0.15717 0.0
C4 C 0.14149 0.18171 0.13087 0.0
C5 C 0.14194 0.1454 0.17006 0.0
C6 C 0.16499 0.13198 0.15607 0.0
C7 C 0.17685 0.14351 0.13 0.0
C8 C 0.16499 0.16843 0.11762 0.0
H9 H 0.33857 0.9175 0.64565 0.0
H10 H 0.40403 0.85402 0.65428 0.0
H11 H 0.33573 0.8381 0.58866 0.0
C12 C 0.34793 0.89688 0.63871 0.0
C13 C 0.33438 0.87879 0.61559 0.0
C14 C 0.37302 0.88811 0.6532 0.0
C15 C 0.38501 0.86151 0.6432 0.0
C16 C 0.37171 0.84348 0.61993 0.0
C17 C 0.34618 0.85203 0.60654 0.0
H18 H 0.65803 0.33653 0.9038 0.0
H19 H 0.66816 0.41685 0.85463 0.0
H20 H 0.61771 0.34065 0.81715 0.0
C21 C 0.65334 0.34902 0.88433 0.0
C22 C 0.63587 0.33529 0.8611 0.0
C23 C 0.66546 0.37834 0.8822 0.0
C24 C 0.65923 0.39417 0.85664 0.0
C25 C 0.64231 0.3805 0.83307 0.0
C26 C 0.63067 0.35118 0.83548 0.0
H27 H 0.85672 0.63855 0.43833 0.0
H28 H 0.91234 0.63836 0.36274 0.0
H29 H 0.83993 0.5744 0.36506 0.0
C30 C 0.86286 0.62848 0.41721 0.0
C31 C 0.8454 0.60476 0.40376 0.0
C32 C 0.88718 0.64067 0.40275 0.0
C33 C 0.89381 0.62902 0.37429 0.0
C34 C 0.8768 0.60515 0.36068 0.0
C35 C 0.853 0.59281 0.3757 0.0
H36 H 0.82744 0.90179 0.83866 0.0
H37 H 0.88954 0.8348 0.83974 0.0
H38 H 0.83323 0.8456 0.91385 0.0
C39 C 0.83772 0.88441 0.85017 0.0
C40 C 0.82773 0.87592 0.87822 0.0
C41 C 0.86002 0.86979 0.83612 0.0
C42 C 0.87221 0.84607 0.85032 0.0
C43 C 0.86264 0.83716 0.87836 0.0
C44 C 0.84065 0.85244 0.89227 0.0
H45 H 0.59465 0.14744 0.366 0.0
H46 H 0.66399 0.0888 0.37141 0.0
H47 H 0.65868 0.16093 0.43682 0.0
C48 C 0.61388 0.14084 0.37741 0.0
C49 C 0.62446 0.1569 0.40332 0.0
C50 C 0.62797 0.11625 0.3659 0.0
C51 C 0.65263 0.10728 0.38072 0.0
C52 C 0.66389 0.12352 0.40622 0.0
C53 C 0.64965 0.14815 0.41745 0.0
H54 H 0.32837 0.67757 0.10485 0.0
H55 H 0.32214 0.60656 0.16634 0.0
H56 H 0.3831 0.68151 0.18358 0.0
C57 C 0.33596 0.66754 0.12488 0.0
C58 C 0.35747 0.68285 0.14305 0.0
C59 C 0.32319 0.63998 0.13299 0.0
C60 C 0.33182 0.62786 0.15988 0.0
C61 C 0.35346 0.64277 0.17811 0.0
C62 C 0.3663 0.67011 0.1695 0.0
H63 H 0.08443 0.36464 0.65453 0.0
H64 H 0.13497 0.3628 0.57504 0.0
H65 H 0.16027 0.42376 0.64864 0.0
C66 C 0.1025 0.37317 0.64176 0.0
C67 C 0.12156 0.39583 0.65459 0.0
C68 C 0.10679 0.36144 0.61275 0.0
C69 C 0.13072 0.37247 0.59694 0.0
C70 C 0.15013 0.39487 0.60964 0.0
C71 C 0.14505 0.40697 0.6383 0.0
O72 O 0.00383 0.00784 0.58529 0.0
Mg73 Mg 0.03607 0.02705 0.55885 0.0
O74 O 0.98214 0.98312 0.54649 0.0
Mg75 Mg 0.00167 0.00173 0.5018 0.0
O76 O 0.01887 0.04731 0.52331 0.0
O77 O 0.04291 0.07232 0.56116 0.0
O78 O 0.02318 0.02221 0.45779 0.0
O79 O 0.95824 0.02545 0.49706 0.0
Mg80 Mg 0.9752 0.98349 0.44872 0.0
O81 O 0.98283 0.95412 0.48178 0.0
O82 O 0.00816 0.99277 0.41974 0.0
O83 O 0.94186 0.01273 0.45169 0.0
O84 O 0.958 0.94246 0.4389 0.0
C85 C 0.0681 0.98206 0.52445 0.0
C86 C 0.98459 0.98897 0.57466 0.0
C87 C 0.02886 0.07242 0.53608 0.0
C88 C 0.02475 0.01399 0.43021 0.0
C89 C 0.93965 0.02728 0.47608 0.0
C90 C 0.96887 0.93442 0.46375 0.0
O91 O 0.07017 0.00136 0.54587 0.0
O92 O 0.04544 0.97843 0.50776 0.0
O93 O 0.46796 0.08159 0.03354 0.0
Mg94 Mg 0.51292 0.08223 0.02829 0.0
O95 O 0.45988 0.03387 0.01946 0.0
Mg96 Mg 0.50454 0.01576 0.00476 0.0
O97 O 0.52258 0.06124 0.9891 0.0
O98 O 0.53209 0.1101 -0.00123 0.0
O99 O 0.5524 0.00181 0.99013 0.0
O100 O 0.48437 0.01005 0.95631 0.0
Mg101 Mg 0.51253 0.96406 0.98923 0.0
O102 O 0.48192 0.96994 0.0209 0.0
O103 O 0.55318 0.95676 0.00627 0.0
O104 O 0.50947 0.97239 0.94312 0.0
O105 O 0.48642 0.92741 0.99358 0.0
C106 C 0.53751 0.04176 0.07071 0.0
C107 C 0.45071 0.05877 0.029 0.0
C108 C 0.53265 0.08705 0.9807 0.0
C109 C 0.56672 0.97942 0.99671 0.0
C110 C 0.493 0.99234 0.936 0.0
C111 C 0.47434 0.94192 0.01474 0.0
O112 O 0.53828 0.06868 0.06338 0.0
O113 O 0.52462 0.02103 0.05406 0.0
O114 O 0.45112 0.53533 0.54367 0.0
Mg115 Mg 0.46922 0.4929 0.54666 0.0
O116 O 0.48708 0.54971 0.51577 0.0
Mg117 Mg 0.49598 0.50092 0.50204 0.0
O118 O 0.51247 0.4902 0.55164 0.0
O119 O 0.48131 0.49079 0.58949 0.0
O120 O 0.50458 0.44923 0.49246 0.0
O121 O 0.5449 0.51644 0.4994 0.0
Mg122 Mg 0.51024 0.48346 0.44907 0.0
O123 O 0.48313 0.51734 0.45394 0.0
O124 O 0.49132 0.44029 0.44591 0.0
O125 O 0.55469 0.48952 0.45944 0.0
O126 O 0.50372 0.50374 0.41083 0.0
C127 C 0.43254 0.46389 0.51157 0.0
C128 C 0.46542 0.55606 0.53117 0.0
C129 C 0.50715 0.48901 0.58002 0.0
C130 C 0.49818 0.43049 0.47078 0.0
C131 C 0.56325 0.50668 0.48127 0.0
C132 C 0.48634 0.51994 0.42535 0.0
O133 O 0.44497 0.45318 0.53346 0.0
O134 O 0.44515 0.48621 0.49953 0.0
O135 O 0.04374 0.47603 0.04566 0.0
Mg136 Mg 0.02029 0.51532 0.04964 0.0
O137 O 0.01031 0.45772 0.01387 0.0
Mg138 Mg 0.99414 0.50428 0.002 0.0
O139 O 0.97618 0.51417 0.05149 0.0
O140 O 0.0064 0.5162 0.09158 0.0
O141 O 0.97792 0.55176 0.99084 0.0
O142 O 0.94664 0.47995 -0.00012 0.0
Mg143 Mg 0.96929 0.4972 0.95041 0.0
O144 O 0.01288 0.49379 0.95323 0.0
O145 O 0.95046 0.53844 0.95178 0.0
O146 O 0.94356 0.4586 0.95527 0.0
O147 O 0.98712 0.49491 0.91025 0.0
C148 C 0.05337 0.54951 0.0182 0.0
C149 C 0.03218 0.45395 0.03052 0.0
C150 C 0.9807 0.51607 0.08034 0.0
C151 C 0.96007 0.55845 0.97057 0.0
C152 C 0.93368 0.46134 0.98107 0.0
C153 C 0.01131 0.49249 0.92412 0.0
O154 O 0.04151 0.5568 0.04215 0.0
O155 O 0.04201 0.52739 0.00254 0.0
H156 H 0.13154 0.17771 0.22135 0.0
H157 H 0.11422 0.15888 0.26884 0.0
H158 H 0.11003 0.06893 0.2308 0.0
H159 H 0.12747 0.0876 0.18335 0.0
H160 H 0.06026 0.08345 0.26176 0.0
H161 H 0.16344 0.08969 0.27644 0.0
H162 H 0.21205 0.11509 0.27788 0.0
H163 H 0.18575 0.17762 0.34549 0.0
H164 H 0.1368 0.15282 0.34413 0.0
H165 H 0.04679 0.99073 0.37974 0.0
H166 H 0.06948 0.01748 0.33942 0.0
H167 H 0.06791 0.10024 0.39145 0.0
H168 H 0.04511 0.07322 0.43255 0.0
H169 H 0.11891 0.09495 0.35576 0.0
H170 H 0.0164 0.08695 0.34329 0.0
H171 H 0.96791 0.06129 0.34198 0.0
H172 H 0.99253 0.00285 0.26999 0.0
H173 H 0.04135 0.02787 0.27118 0.0
C174 C 0.12676 0.15394 0.2231 0.0
C175 C 0.13081 0.13411 0.19864 0.0
C176 C 0.11707 0.14321 0.25027 0.0
C177 C 0.11099 0.1125 0.25339 0.0
C178 C 0.11465 0.09271 0.22888 0.0
C179 C 0.1247 0.10337 0.20185 0.0
C180 C 0.10048 0.10089 0.28205 0.0
C181 C 0.07317 0.08579 0.28224 0.0
C182 C 0.11697 0.10476 0.309 0.0
C183 C 0.14637 0.11963 0.30992 0.0
C184 C 0.16794 0.10903 0.29141 0.0
C185 C 0.19557 0.12328 0.29225 0.0
C186 C 0.20196 0.14802 0.31169 0.0
C187 C 0.18075 0.15849 0.3304 0.0
C188 C 0.15306 0.14434 0.32961 0.0
C189 C 0.05173 0.01456 0.38294 0.0
C190 C 0.04382 0.02994 0.40918 0.0
C191 C 0.06467 0.02983 0.35981 0.0
C192 C 0.06979 0.06092 0.36215 0.0
C193 C 0.06395 0.07623 0.38916 0.0
C194 C 0.05103 0.0608 0.41261 0.0
C195 C 0.07891 0.07706 0.33526 0.0
C196 C 0.10586 0.09298 0.33536 0.0
C197 C 0.06205 0.07411 0.3085 0.0
C198 C 0.03261 0.05916 0.30748 0.0
C199 C 0.01155 0.06849 0.32732 0.0
C200 C 0.98399 0.05407 0.32658 0.0
C201 C 0.97716 0.03041 0.30595 0.0
C202 C -0.00214 0.02117 0.28597 0.0
C203 C 0.02547 0.03548 0.28664 0.0
H204 H 0.95581 0.01928 0.30542 0.0
H205 H 0.22337 0.15902 0.31232 0.0
H206 H 0.34474 0.9164 0.6984 0.0
H207 H 0.36557 0.94132 0.74398 0.0
H208 H 0.45085 0.92328 0.71477 0.0
H209 H 0.43034 0.89914 0.66866 0.0
H210 H 0.43965 0.90493 0.77195 0.0
H211 H 0.43047 0.99285 0.71552 0.0
H212 H 0.40446 0.02754 0.68519 0.0
H213 H 0.34681 0.0427 0.75718 0.0
H214 H 0.37224 0.00775 0.78782 0.0
H215 H 0.52174 0.97755 0.88614 0.0
H216 H 0.50155 0.96742 0.83586 0.0
H217 H 0.41899 0.99478 0.86532 0.0
H218 H 0.43961 0.00617 0.91571 0.0
H219 H 0.42736 0.00922 0.80814 0.0
H220 H 0.43378 0.9212 0.86391 0.0
H221 H 0.45784 0.88584 0.89521 0.0
H222 H 0.51755 0.86923 0.82544 0.0
H223 H 0.49406 0.90482 0.79386 0.0
C224 C 0.36798 0.91834 0.70124 0.0
C225 C 0.38582 0.9056 0.67977 0.0
C226 C 0.37984 0.93251 0.72743 0.0
C227 C 0.40976 0.93418 0.73275 0.0
C228 C 0.42768 0.92213 0.71115 0.0
C229 C 0.41588 0.90819 0.68486 0.0
C230 C 0.42227 0.94673 0.76165 0.0
C231 C 0.43735 0.92787 0.77963 0.0
C232 C 0.41831 0.97633 0.77217 0.0
C233 C 0.40309 -0.00255 0.75385 0.0
C234 C 0.41209 0.00338 0.7248 0.0
C235 C 0.39749 0.02313 0.70757 0.0
C236 C 0.37395 0.03725 0.71922 0.0
C237 C 0.36502 0.03172 0.74817 0.0
C238 C 0.37954 0.01196 0.76549 0.0
C239 C 0.49946 0.9821 0.88173 0.0
C240 C 0.48212 0.99234 0.90484 0.0
C241 C 0.48789 0.97615 0.85302 0.0
C242 C 0.45852 0.97946 0.84701 0.0
C243 C 0.44165 0.99182 0.8695 0.0
C244 C 0.45343 -0.00163 0.89824 0.0
C245 C 0.44518 0.96753 0.81818 0.0
C246 C 0.42976 0.98633 0.80037 0.0
C247 C 0.44842 0.93767 0.80789 0.0
C248 C 0.46231 0.91587 0.82663 0.0
C249 C 0.45214 0.91012 0.85531 0.0
C250 C 0.46566 0.89003 0.87309 0.0
C251 C 0.48926 0.87535 0.86235 0.0
C252 C 0.4993 0.88065 0.83374 0.0
C253 C 0.48586 0.90075 0.81588 0.0
H254 H 0.49973 0.85984 0.87616 0.0
H255 H 0.36267 0.05254 0.70585 0.0
H256 H 0.62094 0.43529 0.82851 0.0
H257 H 0.60619 0.45868 0.78258 0.0
H258 H 0.63675 0.385 0.72998 0.0
H259 H 0.65126 0.3614 0.77583 0.0
H260 H 0.64755 0.445 0.70533 0.0
H261 H 0.57239 0.3781 0.74232 0.0
H262 H 0.54031 0.35788 0.78078 0.0
H263 H 0.50411 0.44312 0.79291 0.0
H264 H 0.53642 0.464 0.75489 0.0
H265 H 0.55401 0.45504 0.5747 0.0
H266 H 0.58575 0.44144 0.61587 0.0
H267 H 0.54359 0.50144 0.67605 0.0
H268 H 0.51157 0.51419 0.63552 0.0
H269 H 0.54116 0.44723 0.69585 0.0
H270 H 0.61452 0.51392 0.65651 0.0
H271 H 0.64646 0.53391 0.61782 0.0
H272 H 0.68565 0.44996 0.60917 0.0
H273 H 0.65361 0.4293 0.6475 0.0
C274 C 0.62503 0.42446 0.80711 0.0
C275 C 0.6369 0.39648 0.80556 0.0
C276 C 0.61667 0.43779 0.78097 0.0
C277 C 0.62038 0.42345 0.75302 0.0
C278 C 0.63388 0.39641 0.75137 0.0
C279 C 0.64188 0.38288 0.7775 0.0
C280 C 0.60688 0.43471 0.72599 0.0
C281 C 0.6243 0.44538 0.70301 0.0
C282 C 0.5766 0.43523 0.72325 0.0
C283 C 0.55709 0.42271 0.74605 0.0
C284 C 0.55782 0.39262 0.75343 0.0
C285 C 0.53956 0.38102 0.7751 0.0
C286 C 0.52025 0.39923 0.78935 0.0
C287 C 0.51913 0.42906 0.7819 0.0
C288 C 0.53741 0.44079 0.7603 0.0
C289 C 0.55215 0.4658 0.59659 0.0
C290 C 0.53021 0.48529 0.60219 0.0
C291 C 0.57025 0.45809 0.62005 0.0
C292 C 0.56685 0.47028 0.64908 0.0
C293 C 0.54639 0.49153 0.65393 0.0
C294 C 0.52813 0.49881 0.63077 0.0
C295 C 0.58174 0.45851 0.6752 0.0
C296 C 0.56447 0.44726 0.69803 0.0
C297 C 0.61208 0.45755 0.67763 0.0
C298 C 0.63144 0.46996 0.65466 0.0
C299 C 0.62977 0.49963 0.64617 0.0
C300 C 0.64793 0.5111 0.62434 0.0
C301 C 0.66801 0.49319 0.61098 0.0
C302 C 0.67004 0.46379 0.6195 0.0
C303 C 0.6519 0.4522 0.6413 0.0
H304 H 0.68205 0.50211 0.59408 0.0
H305 H 0.5061 0.39021 0.8061 0.0
H306 H 0.88154 0.63702 0.31048 0.0
H307 H 0.89149 0.61835 0.25969 0.0
H308 H 0.89673 0.5295 0.29156 0.0
H309 H 0.88601 0.54795 0.34227 0.0
H310 H 0.9455 0.55441 0.2556 0.0
H311 H 0.84236 0.53665 0.25458 0.0
H312 H 0.79231 0.55052 0.26115 0.0
H313 H 0.8036 0.61634 0.19482 0.0
H314 H 0.85393 0.60318 0.18821 0.0
H315 H 0.96582 0.47796 0.12289 0.0
H316 H 0.93935 0.4899 0.16795 0.0
H317 H 0.91884 0.57399 0.13223 0.0
H318 H 0.94475 0.56151 0.08651 0.0
H319 H 0.87592 0.55136 0.16988 0.0
H320 H 0.97826 0.5722 0.17197 0.0
H321 H 0.02897 0.56077 0.16506 0.0
H322 H 0.02042 0.4929 0.22963 0.0
H323 H 0.96945 0.50359 0.23653 0.0
C324 C 0.88479 0.61351 0.30656 0.0
C325 C 0.88314 0.59388 0.33017 0.0
C326 C 0.89027 0.60288 0.27761 0.0
C327 C 0.89466 0.57256 0.27195 0.0
C328 C 0.89325 0.55295 0.29554 0.0
C329 C 0.88716 0.56346 0.32438 0.0
C330 C 0.90204 0.56163 0.24163 0.0
C331 C 0.93017 0.55326 0.23696 0.0
C332 C 0.88224 0.56117 0.21721 0.0
C333 C 0.85203 0.56918 0.22117 0.0
C334 C 0.83429 0.55432 0.24164 0.0
C335 C 0.80584 0.562 0.24531 0.0
C336 C 0.79481 0.58437 0.22848 0.0
C337 C 0.8122 0.59905 0.20789 0.0
C338 C 0.84068 0.59148 0.20415 0.0
C339 C 0.95449 0.49834 0.12411 0.0
C340 C 0.95709 0.51879 0.10136 0.0
C341 C 0.93959 0.50527 0.14992 0.0
C342 C 0.92775 0.53314 0.15373 0.0
C343 C 0.9279 0.55239 0.12976 0.0
C344 C 0.94254 0.54523 0.10363 0.0
C345 C 0.91931 0.54368 0.18394 0.0
C346 C 0.89117 0.55227 0.18857 0.0
C347 C 0.93923 0.54479 0.20839 0.0
C348 C 0.96995 0.53848 0.20453 0.0
C349 C 0.98712 0.55468 0.18452 0.0
C350 C 0.01592 0.54835 0.18063 0.0
C351 C 0.02789 0.52607 0.19684 0.0
C352 C 0.0111 0.51012 0.21704 0.0
C353 C 0.98226 0.51631 0.22097 0.0
H354 H 0.05019 0.5212 0.1938 0.0
H355 H 0.77277 0.59026 0.23134 0.0
H356 H 0.18533 0.08432 0.118 0.0
H357 H 0.22772 0.06287 0.09598 0.0
H358 H 0.26846 0.15139 0.09012 0.0
H359 H 0.22595 0.17281 0.11128 0.0
H360 H 0.27711 0.12079 0.04121 0.0
H361 H 0.2846 0.10037 0.14682 0.0
H362 H 0.26746 0.07856 0.19339 0.0
H363 H 0.26314 0.99096 0.15076 0.0
H364 H 0.27993 0.01232 0.10382 0.0
H365 H 0.42498 0.11011 0.04288 0.0
H366 H 0.37509 0.11656 0.05485 0.0
H367 H 0.35533 0.0218 0.04174 0.0
H368 H 0.40611 0.01489 0.02981 0.0
H369 H 0.33135 0.04593 0.09351 0.0
H370 H 0.33193 0.06659 0.99027 0.0
H371 H 0.35043 0.08907 0.94461 0.0
H372 H 0.34027 0.17677 0.98321 0.0
H373 H 0.32209 0.15485 0.02928 0.0
C374 C 0.20339 0.09914 0.11201 0.0
C375 C 0.20231 0.13026 0.11635 0.0
C376 C 0.22764 0.08686 0.0995 0.0
C377 C 0.25154 0.10544 0.09165 0.0
C378 C 0.25032 0.13653 0.09583 0.0
C379 C 0.22599 0.14879 0.10793 0.0
C380 C 0.278 0.09294 0.07917 0.0
C381 C 0.28899 0.10452 0.05278 0.0
C382 C 0.29306 0.07078 0.09348 0.0
C383 C 0.28319 0.05797 0.12175 0.0
C384 C 0.27981 0.07648 0.14734 0.0
C385 C 0.27019 0.0642 0.1738 0.0
C386 C 0.26413 0.03341 0.17501 0.0
C387 C 0.26778 0.01482 0.14978 0.0
C388 C 0.27736 0.02699 0.12325 0.0
C389 C 0.4102 0.09047 0.04237 0.0
C390 C 0.4197 0.06192 0.03526 0.0
C391 C 0.38151 0.09429 0.04912 0.0
C392 C 0.36132 0.06977 0.0488 0.0
C393 C 0.37055 0.04108 0.04195 0.0
C394 C 0.39951 0.03718 0.03503 0.0
C395 C 0.3309 0.07477 0.05633 0.0
C396 C 0.31914 0.06175 0.08168 0.0
C397 C 0.31513 0.09572 0.04114 0.0
C398 C 0.32573 0.10904 0.0133 0.0
C399 C 0.33378 0.09067 0.9891 0.0
C400 C 0.34419 0.10332 0.96312 0.0
C401 C 0.34654 0.13433 0.96102 0.0
C402 C 0.33842 0.15276 0.98486 0.0
C403 C 0.328 0.14023 0.01089 0.0
H404 H 0.35463 0.14408 0.9409 0.0
H405 H 0.25668 0.02394 0.19551 0.0
H406 H 0.32691 0.92758 0.583 0.0
H407 H 0.28239 0.94141 0.5584 0.0
H408 H 0.23678 0.86357 0.59229 0.0
H409 H 0.28178 0.84891 0.61529 0.0
H410 H 0.21758 0.87054 0.5392 0.0
H411 H 0.23465 0.93729 0.62536 0.0
H412 H 0.26276 0.97431 0.65812 0.0
H413 H 0.26811 0.03523 0.58677 0.0
H414 H 0.24034 -0.00159 0.55347 0.0
H415 H 0.07554 0.92576 0.54151 0.0
H416 H 0.12219 0.90385 0.54806 0.0
H417 H 0.16412 0.97828 0.50461 0.0
H418 H 0.11758 0.00036 0.49876 0.0
H419 H 0.1861 0.97287 0.55881 0.0
H420 H 0.16289 0.90577 0.47449 0.0
H421 H 0.13264 0.86819 0.4445 0.0
H422 H 0.13599 0.80718 0.51558 0.0
H423 H 0.16584 0.84457 0.54623 0.0
C424 C 0.30731 0.91352 0.58507 0.0
C425 C 0.3075 0.88742 0.60118 0.0
C426 C 0.28187 0.92141 0.57113 0.0
C427 C 0.25597 0.90388 0.57397 0.0
C428 C 0.25639 0.8775 0.58975 0.0
C429 C 0.28199 0.86923 0.60304 0.0
C430 C 0.2283 0.91344 0.56133 0.0
C431 C 0.21058 0.89285 0.54369 0.0
C432 C 0.21926 0.94268 0.56674 0.0
C433 C 0.23566 0.96499 0.58685 0.0
C434 C 0.24196 0.95852 0.61662 0.0
C435 C 0.25782 0.97947 0.63528 0.0
C436 C 0.26728 0.00707 0.62451 0.0
C437 C 0.26081 0.01383 0.59507 0.0
C438 C 0.24499 0.99294 0.5763 0.0
C439 C 0.09459 0.93662 0.5322 0.0
C440 C 0.09314 0.9644 0.51924 0.0
C441 C 0.12125 0.92421 0.53602 0.0
C442 C 0.14671 0.93944 0.52684 0.0
C443 C 0.1448 0.96614 0.51186 0.0
C444 C 0.11824 0.9786 0.50825 0.0
C445 C 0.17538 0.93004 0.53661 0.0
C446 C 0.19323 0.95066 0.55396 0.0
C447 C 0.1842 0.90073 0.5313 0.0
C448 C 0.16647 0.87809 0.51275 0.0
C449 C 0.15702 0.88443 0.48382 0.0
C450 C 0.13996 0.86314 0.46669 0.0
C451 C 0.1324 0.83532 0.47813 0.0
C452 C 0.14188 0.82873 0.50674 0.0
C453 C 0.15889 0.84996 0.52399 0.0
H454 H 0.11923 0.81886 0.46482 0.0
H455 H 0.27958 0.02325 0.63899 0.0
H456 H 0.66465 0.37272 0.94327 0.0
H457 H 0.70425 0.38636 0.97921 0.0
H458 H 0.75373 0.42656 0.90942 0.0
H459 H 0.71522 0.41214 0.87328 0.0
H460 H 0.76554 0.36488 0.96138 0.0
H461 H 0.76337 0.47931 0.93375 0.0
H462 H 0.73297 0.52259 0.93397 0.0
H463 H 0.70367 0.50198 0.02149 0.0
H464 H 0.73361 0.45837 0.02147 0.0
H465 H 0.90458 0.41841 0.94633 0.0
H466 H 0.85427 0.40206 0.94855 0.0
H467 H 0.84676 0.45376 0.03105 0.0
H468 H 0.89764 0.47171 0.02808 0.0
H469 H 0.80573 0.46586 0.99503 0.0
H470 H 0.83619 0.37358 0.02683 0.0
H471 H 0.86588 0.32999 0.02819 0.0
H472 H 0.83851 0.30354 0.93848 0.0
H473 H 0.809 0.34714 0.93637 0.0
C474 C 0.68385 0.38474 0.93562 0.0
C475 C 0.68678 0.3911 0.90524 0.0
C476 C 0.70627 0.39276 0.95627 0.0
C477 C 0.73164 0.40775 0.94695 0.0
C478 C 0.73399 0.41555 0.91712 0.0
C479 C 0.71185 0.40731 0.89646 0.0
C480 C 0.75759 0.41141 0.96653 0.0
C481 C 0.77434 0.38677 0.96933 0.0
C482 C 0.7684 0.43972 0.97772 0.0
C483 C 0.75047 0.46568 0.97753 0.0
C484 C 0.75032 0.48402 0.95293 0.0
C485 C 0.73318 0.50855 0.95301 0.0
C486 C 0.71637 0.51501 0.97771 0.0
C487 C 0.71662 0.49691 0.00234 0.0
C488 C 0.73359 0.47226 0.00227 0.0
C489 C 0.89253 0.42591 0.96538 0.0
C490 C 0.90508 0.44664 0.98687 0.0
C491 C 0.86365 0.41618 0.96682 0.0
C492 C 0.84662 0.42622 0.99023 0.0
C493 C 0.85949 0.44557 0.01284 0.0
C494 C 0.88858 0.45568 0.01121 0.0
C495 C 0.8149 0.41947 0.98825 0.0
C496 C 0.79693 0.44355 0.98855 0.0
C497 C 0.80291 0.39035 0.98023 0.0
C498 C 0.82026 0.36367 0.98152 0.0
C499 C 0.83653 0.35851 0.00737 0.0
C500 C 0.85336 0.33379 0.00826 0.0
C501 C 0.85405 0.314 0.98346 0.0
C502 C 0.83788 0.31884 0.95772 0.0
C503 C 0.82102 0.34351 0.9567 0.0
H504 H 0.86713 0.2949 0.98418 0.0
H505 H 0.70318 0.53405 0.97778 0.0
H506 H 0.83538 0.59736 0.46345 0.0
H507 H 0.78944 0.58363 0.48657 0.0
H508 H 0.74813 0.57334 0.39943 0.0
H509 H 0.79332 0.58866 0.37637 0.0
H510 H 0.71603 0.6032 0.4349 0.0
H511 H 0.76697 0.51286 0.44173 0.0
H512 H 0.80684 0.48259 0.45695 0.0
H513 H 0.79245 0.50574 0.54911 0.0
H514 H 0.7527 0.53646 0.53439 0.0
H515 H 0.60641 0.48688 0.44719 0.0
H516 H 0.65626 0.50654 0.4463 0.0
H517 H 0.64124 0.56789 0.51997 0.0
H518 H 0.5905 0.5486 0.52079 0.0
H519 H 0.70207 0.51862 0.50207 0.0
H520 H 0.65105 0.61369 0.49035 0.0
H521 H 0.6093 0.63864 0.47047 0.0
H522 H 0.62333 0.60052 0.38294 0.0
H523 H 0.66492 0.57505 0.40248 0.0
C524 C 0.81647 0.59233 0.44921 0.0
C525 C 0.81815 0.59409 0.41799 0.0
C526 C 0.79027 0.5842 0.46248 0.0
C527 C 0.76531 0.5773 0.44476 0.0
C528 C 0.76706 0.57863 0.41361 0.0
C529 C 0.79309 0.58701 0.40039 0.0
C530 C 0.73709 0.56925 0.4583 0.0
C531 C 0.7132 0.58492 0.44989 0.0
C532 C 0.7332 0.54561 0.47814 0.0
C533 C 0.75714 0.52727 0.48695 0.0
C534 C 0.77249 0.51171 0.46523 0.0
C535 C 0.79502 0.49443 0.47376 0.0
C536 C 0.80225 0.49234 0.50397 0.0
C537 C 0.78689 0.50745 0.52572 0.0
C538 C 0.76435 0.52479 0.51729 0.0
C539 C 0.61358 0.50435 0.4635 0.0
C540 C 0.59429 0.51644 0.48384 0.0
C541 C 0.64219 0.51543 0.46301 0.0
C542 C 0.65227 0.53873 0.48288 0.0
C543 C 0.63367 0.54997 0.50433 0.0
C544 C 0.60477 0.53892 0.50478 0.0
C545 C 0.68146 0.55263 0.47863 0.0
C546 C 0.7054 0.53775 0.48822 0.0
C547 C 0.6855 0.5768 0.4597 0.0
C548 C 0.6608 0.5923 0.4479 0.0
C549 C 0.64504 0.61048 0.46693 0.0
C550 C 0.62146 0.62474 0.45572 0.0
C551 C 0.61361 0.62111 0.42548 0.0
C552 C 0.62939 0.60328 0.40636 0.0
C553 C 0.65296 0.58894 0.41749 0.0
H554 H 0.59535 0.63216 0.41684 0.0
H555 H 0.81969 0.47893 0.51054 0.0
H556 H 0.17057 0.23223 0.11263 0.0
H557 H 0.15036 0.27639 0.09212 0.0
H558 H 0.06458 0.23502 0.09831 0.0
H559 H 0.0847 0.19079 0.11916 0.0
H560 H 0.07703 0.265 0.04215 0.0
H561 H 0.08195 0.28291 0.14885 0.0
H562 H 0.10615 0.28559 0.19839 0.0
H563 H 0.16823 0.35214 0.16864 0.0
H564 H 0.14465 0.3495 0.11874 0.0
H565 H 0.00245 0.39916 0.0246 0.0
H566 H 0.01972 0.35091 0.03824 0.0
H567 H 0.10426 0.3932 0.05818 0.0
H568 H 0.08672 0.44134 0.04562 0.0
H569 H 0.09027 0.36074 0.10143 0.0
H570 H 0.08718 0.34351 0.99506 0.0
H571 H 0.06522 0.34041 0.94442 0.0
H572 H 0.00251 0.27308 0.9714 0.0
H573 H 0.02387 0.27607 0.02234 0.0
C574 C 0.14743 0.23245 0.10939 0.0
C575 C 0.1292 0.20811 0.11759 0.0
C576 C 0.13591 0.25768 0.09773 0.0
C577 C 0.10597 0.25898 0.09372 0.0
C578 C 0.08774 0.23442 0.10116 0.0
C579 C 0.09923 0.20932 0.11327 0.0
C580 C 0.09381 0.2866 0.08312 0.0
C581 C 0.07954 0.28592 0.05519 0.0
C582 C 0.09766 0.31393 0.09989 0.0
C583 C 0.1117 0.3158 0.12998 0.0
C584 C 0.1009 0.29794 0.15279 0.0
C585 C 0.11448 0.29948 0.18095 0.0
C586 C 0.13876 0.31897 0.18664 0.0
C587 C 0.14945 0.33702 0.1642 0.0
C588 C 0.13597 0.33553 0.13597 0.0
C589 C 0.02482 0.39798 0.03141 0.0
C590 C 0.04322 0.42403 0.03424 0.0
C591 C 0.03474 0.37036 0.03918 0.0
C592 C 0.06341 0.36822 0.04925 0.0
C593 C 0.08201 0.39414 0.05078 0.0
C594 C 0.07201 0.42169 0.04352 0.0
C595 C 0.07377 0.33959 0.05997 0.0
C596 C 0.08766 0.33997 0.08815 0.0
C597 C 0.0698 0.31211 0.0432 0.0
C598 C 0.05693 0.31025 0.0126 0.0
C599 C 0.06856 0.32822 0.99026 0.0
C600 C 0.05625 0.32645 0.96149 0.0
C601 C 0.03244 0.30662 0.95473 0.0
C602 C 0.02093 0.28847 0.97669 0.0
C603 C 0.03314 0.29017 0.00551 0.0
H604 H 0.02294 0.30528 0.93244 0.0
H605 H 0.14925 0.32013 0.20846 0.0
H606 H 0.58178 0.31229 0.84402 0.0
H607 H 0.56165 0.26108 0.84816 0.0
H608 H 0.64175 0.2369 0.88797 0.0
H609 H 0.66247 0.28759 0.88254 0.0
H610 H 0.62049 0.19316 0.85057 0.0
H611 H 0.58387 0.25488 0.9304 0.0
H612 H 0.55838 0.29681 0.95233 0.0
H613 H 0.4807 0.26513 0.90468 0.0
H614 H 0.50587 0.22321 0.88215 0.0
H615 H 0.58796 0.09657 0.9653 0.0
H616 H 0.60313 0.12861 0.92518 0.0
H617 H 0.51575 0.12411 0.89015 0.0
H618 H 0.50067 0.09178 0.93045 0.0
H619 H 0.53355 0.17896 0.91205 0.0
H620 H 0.57041 0.10874 0.84357 0.0
H621 H 0.59758 0.06594 0.82679 0.0
H622 H 0.67673 0.11223 0.85806 0.0
H623 H 0.65004 0.15515 0.87546 0.0
C624 C 0.59526 0.29595 0.85322 0.0
C625 C 0.62367 0.3041 0.86321 0.0
C626 C 0.58366 0.26673 0.85573 0.0
C627 C 0.6001 0.24523 0.86863 0.0
C628 C 0.62867 0.25312 0.87792 0.0
C629 C 0.64035 0.28223 0.87521 0.0
C630 C 0.58723 0.21499 0.87422 0.0
C631 C 0.60147 0.18994 0.86401 0.0
C632 C 0.56191 0.21082 0.89098 0.0
C633 C 0.54686 0.2362 0.90423 0.0
C634 C 0.56143 0.25704 0.92436 0.0
C635 C 0.54703 0.28076 0.93695 0.0
C636 C 0.51797 0.2837 0.9298 0.0
C637 C 0.50324 0.26288 0.91011 0.0
C638 C 0.51755 0.23915 0.89742 0.0
C639 C 0.57245 0.10079 0.94785 0.0
C640 C 0.54327 0.09176 0.9507 0.0
C641 C 0.58108 0.11921 0.92493 0.0
C642 C 0.5605 0.12901 0.9048 0.0
C643 C 0.53196 0.11677 0.90542 0.0
C644 C 0.52339 0.0981 0.92827 0.0
C645 C 0.56728 0.15698 0.88921 0.0
C646 C 0.55198 0.18185 0.8977 0.0
C647 C 0.59189 0.16093 0.87141 0.0
C648 C 0.60815 0.13519 0.8609 0.0
C649 C 0.59359 0.10974 0.84706 0.0
C650 C 0.60892 0.08545 0.8374 0.0
C651 C 0.63886 0.08636 0.84137 0.0
C652 C 0.65354 0.11157 0.85497 0.0
C653 C 0.63832 0.13593 0.86468 0.0
H654 H 0.65069 0.06752 0.83388 0.0
H655 H 0.50685 0.30206 0.9396 0.0
H656 H 0.90513 0.6496 0.46123 0.0
H657 H 0.92923 0.69482 0.48493 0.0
H658 H 0.93197 0.73585 0.3996 0.0
H659 H 0.90795 0.69091 0.37587 0.0
H660 H 0.98103 0.75049 0.4318 0.0
H661 H 0.8772 0.74676 0.44799 0.0
H662 H 0.83185 0.7238 0.46682 0.0
H663 H 0.86837 0.72732 0.55571 0.0
H664 H 0.9141 0.74995 0.53728 0.0
H665 H 0.93104 0.8932 0.43697 0.0
H666 H 0.92748 0.83974 0.44271 0.0
H667 H 0.99343 0.84872 0.512 0.0
H668 H -0.0023 0.90325 0.50598 0.0
H669 H 0.92151 0.80475 0.50408 0.0
H670 H 0.02599 0.81489 0.48553 0.0
H671 H 0.06776 0.84123 0.46289 0.0
H672 H 0.02718 0.8276 0.37613 0.0
H673 H 0.98489 0.80172 0.39843 0.0
C674 C 0.91107 0.66821 0.44751 0.0
C675 C 0.90442 0.66676 0.4167 0.0
C676 C 0.92496 0.69396 0.46106 0.0
C677 C 0.9322 0.71881 0.44408 0.0
C678 C 0.92676 0.71688 0.41312 0.0
C679 C 0.913 0.69115 0.39957 0.0
C680 C 0.94294 0.74783 0.45851 0.0
C681 C 0.96835 0.76207 0.44814 0.0
C682 C 0.92668 0.76291 0.48014 0.0
C683 C 0.89913 0.74966 0.49123 0.0
C684 C 0.87559 0.74245 0.47152 0.0
C685 C 0.84983 0.72952 0.48211 0.0
C686 C 0.84726 0.72401 0.51243 0.0
C687 C 0.87042 0.73153 0.53223 0.0
C688 C 0.89626 0.7444 0.52172 0.0
C689 C 0.9448 0.88408 0.45362 0.0
C690 C 0.96502 0.9025 0.47071 0.0
C691 C 0.94258 0.85344 0.45695 0.0
C692 C 0.96038 0.84032 0.47748 0.0
C693 C 0.9797 0.85854 0.49581 0.0
C694 C 0.98203 0.88959 0.49243 0.0
C695 C 0.95934 0.80736 0.47715 0.0
C696 C 0.93526 0.79241 0.48941 0.0
C697 C 0.97675 0.79163 0.45727 0.0
C698 C 0.00226 0.80662 0.44367 0.0
C699 C 0.02592 0.81773 0.46166 0.0
C700 C 0.04969 0.83252 0.44889 0.0
C701 C 0.05014 0.83609 0.41808 0.0
C702 C 0.02681 0.82483 0.39999 0.0
C703 C 0.00294 0.81009 0.41268 0.0
H704 H 0.06857 0.84754 0.40824 0.0
H705 H 0.8273 0.71399 0.5206 0.0
H706 H 0.42635 0.83549 0.60124 0.0
H707 H 0.44618 0.78847 0.58374 0.0
H708 H 0.36469 0.7411 0.59956 0.0
H709 H 0.34463 0.78802 0.61633 0.0
H710 H 0.41785 0.71638 0.62445 0.0
H711 H 0.37578 0.75217 0.53355 0.0
H712 H 0.36992 0.78931 0.49525 0.0
H713 H 0.45984 0.78792 0.47526 0.0
H714 H 0.46633 0.75107 0.51382 0.0
H715 H 0.41693 0.57496 0.55698 0.0
H716 H 0.40551 0.62594 0.56993 0.0
H717 H 0.48449 0.65925 0.53058 0.0
H718 H 0.49603 0.60784 0.51703 0.0
H719 H 0.43967 0.69405 0.51819 0.0
H720 H 0.48222 0.65601 0.60448 0.0
H721 H 0.4904 0.61985 0.6432 0.0
H722 H 0.40386 0.62718 0.67328 0.0
H723 H 0.39499 0.66306 0.63442 0.0
C724 C 0.41277 0.81497 0.60097 0.0
C725 C 0.38401 0.81522 0.61004 0.0
C726 C 0.42404 0.78827 0.59091 0.0
C727 C 0.40682 0.76146 0.59033 0.0
C728 C 0.37825 0.76163 0.59984 0.0
C729 C 0.36682 0.78836 0.6093 0.0
C730 C 0.4185 0.733 0.58014 0.0
C731 C 0.42246 0.71136 0.60121 0.0
C732 C 0.42552 0.72708 0.55002 0.0
C733 C 0.42162 0.74918 0.52684 0.0
C734 C 0.39437 0.76003 0.52123 0.0
C735 C 0.39092 0.78097 0.49942 0.0
C736 C 0.41451 0.79106 0.4829 0.0
C737 C 0.4416 0.78014 0.48811 0.0
C738 C 0.44517 0.75923 0.50994 0.0
C739 C 0.43186 0.59305 0.55085 0.0
C740 C 0.45758 0.5873 0.53627 0.0
C741 C 0.42532 0.62223 0.55837 0.0
C742 C 0.44445 0.64635 0.55181 0.0
C743 C 0.46955 0.6409 0.53604 0.0
C744 C 0.4761 0.61155 0.52834 0.0
C745 C 0.43826 0.67698 0.5624 0.0
C746 C 0.43543 0.69911 0.5415 0.0
C747 C 0.43267 0.68358 0.59284 0.0
C748 C 0.43788 0.66207 0.61636 0.0
C749 C 0.46486 0.64974 0.6192 0.0
C750 C 0.46963 0.62932 0.6412 0.0
C751 C 0.44765 0.62118 0.66065 0.0
C752 C 0.42086 0.63349 0.65818 0.0
C753 C 0.41596 0.65391 0.63619 0.0
H754 H 0.45138 0.60536 0.67768 0.0
H755 H 0.41179 0.80725 0.46601 0.0
H756 H 0.87227 0.83427 0.78729 0.0
H757 H 0.88877 0.85005 0.73852 0.0
H758 H 0.88748 0.94229 0.76912 0.0
H759 H 0.87081 0.92665 0.81775 0.0
H760 H 0.86492 0.9355 0.71472 0.0
H761 H 0.95092 0.90559 0.76374 0.0
H762 H 0.98115 0.8712 0.78984 0.0
H763 H 0.97323 0.8091 0.71429 0.0
H764 H 0.94261 0.84299 0.68788 0.0
H765 H 0.96578 0.0127 0.62651 0.0
H766 H 0.93893 0.98741 0.66529 0.0
H767 H 0.93367 0.90568 0.61098 0.0
H768 H 0.96043 0.9313 0.57142 0.0
H769 H 0.95527 0.90092 0.67179 0.0
H770 H 0.8742 0.93645 0.62051 0.0
H771 H 0.84609 0.97339 0.5955 0.0
H772 H 0.84708 0.0277 0.67662 0.0
H773 H 0.87558 0.99131 0.70203 0.0
C774 C 0.87572 0.85791 0.78368 0.0
C775 C 0.87029 0.87921 0.80645 0.0
C776 C 0.88511 0.86691 0.75576 0.0
C777 C 0.88961 0.89739 0.75014 0.0
C778 C 0.88404 0.91866 0.77281 0.0
C779 C 0.8745 0.90969 0.80063 0.0
C780 C 0.90029 0.90733 0.7208 0.0
C781 C 0.88476 0.92802 0.70544 0.0
C782 C 0.92577 0.89702 0.70818 0.0
C783 C 0.94419 0.87665 0.72399 0.0
C784 C 0.95543 0.88449 0.75279 0.0
C785 C 0.97267 0.86511 0.76762 0.0
C786 C 0.97902 0.83793 0.75377 0.0
C787 C 0.96823 0.83012 0.72502 0.0
C788 C 0.95095 0.84941 0.7101 0.0
C789 C 0.95856 0.98944 0.62257 0.0
C790 C 0.9652 0.97394 0.59595 0.0
C791 C 0.94315 0.97504 0.64474 0.0
C792 C 0.93426 0.94471 0.64101 0.0
C793 C 0.94031 0.92916 0.61422 0.0
C794 C 0.95538 0.94381 0.59162 0.0
C795 C 0.92017 0.9294 0.66612 0.0
C796 C 0.93512 0.90786 0.68078 0.0
C797 C 0.89436 0.93919 0.67831 0.0
C798 C 0.87717 0.96118 0.66315 0.0
C799 C 0.86862 0.95638 0.63297 0.0
C800 C 0.85258 0.9772 0.61873 0.0
C801 C 0.84482 0.00287 0.63446 0.0
C802 C 0.8531 0.00778 0.66447 0.0
C803 C 0.86916 0.98704 0.67882 0.0
H804 H 0.83231 0.01888 0.62343 0.0
H805 H 0.99238 0.82296 0.76529 0.0
H806 H 0.62454 0.14245 0.3129 0.0
H807 H 0.60805 0.11968 0.26473 0.0
H808 H 0.59208 0.03494 0.30552 0.0
H809 H 0.61027 0.05763 0.35371 0.0
H810 H 0.61272 0.02502 0.25302 0.0
H811 H 0.5358 0.08119 0.28752 0.0
H812 H 0.51234 0.12484 0.30864 0.0
H813 H 0.53802 0.17549 0.23336 0.0
H814 H 0.562 0.1323 0.21198 0.0
H815 H 0.51882 0.00063 0.11121 0.0
H816 H 0.53335 0.00146 0.1645 0.0
H817 H 0.59846 0.07154 0.14961 0.0
H818 H 0.58441 0.07074 0.09697 0.0
H819 H 0.54397 0.07938 0.19285 0.0
H820 H 0.62796 0.0222 0.16478 0.0
H821 H 0.64861 0.97651 0.14448 0.0
H822 H 0.60341 0.92473 0.2093 0.0
H823 H 0.58216 0.97011 0.22966 0.0
C824 C 0.6175 0.11896 0.31152 0.0
C825 C 0.61826 0.10181 0.33692 0.0
C826 C 0.60791 0.10597 0.28406 0.0
C827 C 0.59793 0.07574 0.28158 0.0
C828 C 0.59939 0.05834 0.30688 0.0
C829 C 0.60966 0.07126 0.33435 0.0
C830 C 0.58609 0.06275 0.25246 0.0
C831 C 0.59727 0.03666 0.24016 0.0
C832 C 0.56556 0.07752 0.23563 0.0
C833 C 0.55081 0.10349 0.2482 0.0
C834 C 0.53656 0.10168 0.27553 0.0
C835 C 0.52316 0.12634 0.28755 0.0
C836 C 0.52371 0.15293 0.27237 0.0
C837 C 0.5376 0.15488 0.24509 0.0
C838 C 0.55105 0.13029 0.23298 0.0
C839 C 0.53694 0.01534 0.11918 0.0
C840 C 0.55034 0.03582 0.1001 0.0
C841 C 0.54511 0.01588 0.14955 0.0
C842 C 0.56689 0.03664 0.16083 0.0
C843 C 0.58166 0.05534 0.14126 0.0
C844 C 0.57357 0.05485 0.1112 0.0
C845 C 0.57161 0.04273 0.19324 0.0
C846 C 0.55891 0.0675 0.20615 0.0
C847 C 0.59027 0.02652 0.21065 0.0
C848 C 0.60315 -0.00058 0.19842 0.0
C849 C 0.62215 0.00101 0.17445 0.0
C850 C 0.63404 0.97519 0.163 0.0
C851 C 0.62724 0.94771 0.17551 0.0
C852 C 0.60861 0.94601 0.19957 0.0
C853 C 0.59665 0.97177 0.21108 0.0
H854 H 0.63647 0.92774 0.16663 0.0
H855 H 0.51335 0.17201 0.28173 0.0
H856 H 0.31992 0.62356 0.22372 0.0
H857 H 0.33626 0.60391 0.27117 0.0
H858 H 0.42437 0.61332 0.24264 0.0
H859 H 0.40824 0.6332 0.19555 0.0
H860 H 0.40713 0.55675 0.26642 0.0
H861 H 0.40364 0.66338 0.28855 0.0
H862 H 0.37896 0.7104 0.29204 0.0
H863 H 0.31894 0.6718 0.35341 0.0
H864 H 0.34305 0.62435 0.34992 0.0
H865 H 0.50484 0.55218 0.3794 0.0
H866 H 0.47509 0.57609 0.34323 0.0
H867 H 0.39978 0.55648 0.39546 0.0
H868 H 0.4299 0.53284 0.43246 0.0
H869 H 0.40118 0.61363 0.36326 0.0
H870 H 0.40793 0.50854 0.3455 0.0
H871 H 0.43338 0.46198 0.34255 0.0
H872 H 0.48608 0.49687 0.27284 0.0
H873 H 0.46125 0.54387 0.27573 0.0
C874 C 0.34274 0.62124 0.22764 0.0
C875 C 0.3629 0.62988 0.20617 0.0
C876 C 0.352 0.61021 0.25468 0.0
C877 C 0.38148 0.60735 0.26031 0.0
C878 C 0.40153 0.61544 0.23863 0.0
C879 C 0.39235 0.62685 0.21187 0.0
C880 C 0.39182 0.59588 0.28871 0.0
C881 C 0.40578 0.56913 0.28759 0.0
C882 C 0.38922 0.61167 0.3164 0.0
C883 C 0.3749 0.64022 0.31868 0.0
C884 C 0.38501 0.66483 0.30257 0.0
C885 C 0.37116 0.69157 0.30459 0.0
C886 C 0.34733 0.69406 0.32286 0.0
C887 C 0.33736 0.66982 0.33922 0.0
C888 C 0.35111 0.643 0.33724 0.0
C889 C 0.48208 0.55374 0.38365 0.0
C890 C 0.46949 0.54037 0.40837 0.0
C891 C 0.46514 0.5674 0.36302 0.0
C892 C 0.43523 0.56743 0.36644 0.0
C893 C 0.42286 0.55654 0.39249 0.0
C894 C 0.44002 0.5431 0.41353 0.0
C895 C 0.4172 0.57498 0.34068 0.0
C896 C 0.40184 0.60087 0.34223 0.0
C897 C 0.41825 0.5583 0.31329 0.0
C898 C 0.43281 0.52979 0.31095 0.0
C899 C 0.42505 0.50635 0.32965 0.0
C900 C 0.43936 0.47987 0.32799 0.0
C901 C 0.46136 0.47648 0.30754 0.0
C902 C 0.46903 0.49953 0.28866 0.0
C903 C 0.45481 0.52608 0.29027 0.0
H904 H 0.47243 0.45597 0.3063 0.0
H905 H 0.33663 0.71478 0.3244 0.0
H906 H 0.12601 0.36368 0.70414 0.0
H907 H 0.11945 0.38046 0.7561 0.0
H908 H 0.10143 0.46802 0.72692 0.0
H909 H 0.10974 0.45155 0.6751 0.0
H910 H 0.13084 0.47455 0.77618 0.0
H911 H 0.0471 0.41156 0.74407 0.0
H912 H 0.02106 0.36534 0.72387 0.0
H913 H 0.05462 0.31671 0.79593 0.0
H914 H 0.08116 0.3626 0.81634 0.0
H915 H 0.02773 0.52329 0.87659 0.0
H916 H 0.06003 0.50747 0.83768 0.0
H917 H 0.08274 0.43346 0.88994 0.0
H918 H 0.05026 0.44964 0.92938 0.0
H919 H 0.0595 0.41622 0.83488 0.0
H920 H 0.13484 0.48547 0.87171 0.0
H921 H 0.15643 0.53413 0.89106 0.0
H922 H 0.13373 0.57408 0.80917 0.0
H923 H 0.11161 0.52578 0.78946 0.0
C924 C 0.1208 0.38653 0.709 0.0
C925 C 0.11804 0.40632 0.68585 0.0
C926 C 0.11696 0.3961 0.73862 0.0
C927 C 0.10932 0.42536 0.74549 0.0
C928 C 0.10727 0.44534 0.72227 0.0
C929 C 0.11182 0.43594 0.6927 0.0
C930 C 0.10229 0.43488 0.77657 0.0
C931 C 0.11515 0.46185 0.78897 0.0
C932 C 0.0824 0.41797 0.79371 0.0
C933 C 0.06639 0.39041 0.7815 0.0
C934 C 0.04908 0.39096 0.75547 0.0
C935 C 0.03422 0.36484 0.74401 0.0
C936 C 0.03627 0.33809 0.75855 0.0
C937 C 0.05311 0.33743 0.78465 0.0
C938 C 0.06806 0.36348 0.79618 0.0
C939 C 0.04049 0.50432 0.88027 0.0
C940 C 0.03663 0.48764 0.90584 0.0
C941 C 0.05902 0.49533 0.85807 0.0
C942 C 0.07387 0.46931 0.86089 0.0
C943 C 0.07159 0.45372 0.88743 0.0
C944 C 0.05324 0.46303 0.90999 0.0
C945 C 0.08751 0.45621 0.83417 0.0
C946 C 0.07577 0.42856 0.82245 0.0
C947 C 0.1079 0.47285 0.81748 0.0
C948 C 0.12147 0.50194 0.82913 0.0
C949 C 0.1343 0.50465 0.85787 0.0
C950 C 0.14665 0.53219 0.86891 0.0
C951 C 0.14644 0.55718 0.85136 0.0
C952 C 0.13391 0.55469 0.82272 0.0
C953 C 0.12151 0.52721 0.81159 0.0
H954 H 0.15601 0.57848 0.85995 0.0
H955 H 0.02474 0.31789 0.74964 0.0
H956 H 0.81561 0.93519 0.87775 0.0
H957 H 0.77341 0.9584 0.89747 0.0
H958 H 0.74225 0.87397 0.9311 0.0
H959 H 0.78331 0.85021 0.90977 0.0
H960 H 0.69993 0.89801 0.90577 0.0
H961 H 0.77428 0.9344 0.9767 0.0
H962 H 0.82087 0.95975 0.99297 0.0
H963 H 0.79533 0.04132 0.95656 0.0
H964 H 0.74871 0.01632 0.93973 0.0
H965 H 0.60217 0.93692 0.0133 0.0
H966 H 0.64888 0.92654 0.99308 0.0
H967 H 0.64805 0.00554 0.9417 0.0
H968 H 0.60055 0.01608 0.96168 0.0
H969 H 0.70582 0.98954 0.97206 0.0
H970 H 0.62936 0.95152 0.90374 0.0
H971 H 0.58239 0.92494 0.89116 0.0
H972 H 0.61253 0.84464 0.92619 0.0
H973 H 0.65954 0.8709 0.93946 0.0
C974 C 0.79969 0.92145 0.88914 0.0
C975 C 0.80302 0.89072 0.89208 0.0
C976 C 0.77569 0.9349 0.90078 0.0
C977 C 0.75468 0.91808 0.91612 0.0
C978 C 0.75812 0.88751 0.9194 0.0
C979 C 0.7819 0.87399 0.90748 0.0
C980 C 0.72859 0.93187 0.92797 0.0
C981 C 0.70139 0.91791 0.92041 0.0
C982 C 0.73018 0.95834 0.94649 0.0
C983 C 0.75815 0.97341 0.95667 0.0
C984 C 0.77869 0.95768 0.97196 0.0
C985 C 0.80509 0.972 0.98132 0.0
C986 C 0.81109 0.0021 0.97573 0.0
C987 C 0.79067 0.01798 0.96084 0.0
C988 C 0.76425 0.00376 0.9514 0.0
C989 C 0.61201 0.95249 0.9981 0.0
C990 C 0.5974 0.97715 0.9888 0.0
C991 C 0.63879 0.94649 0.98661 0.0
C992 C 0.65172 0.96506 0.96568 0.0
C993 C 0.63834 0.99094 0.95786 0.0
C994 C 0.61125 -0.00307 0.9693 0.0
C995 C 0.67763 0.95531 0.95015 0.0
C996 C 0.70461 0.96992 0.95705 0.0
C997 C 0.67597 0.92926 0.93123 0.0
C998 C 0.64789 0.91325 0.92281 0.0
C999 C 0.62589 0.92826 0.90898 0.0
C1000 C 0.59928 0.91324 0.90169 0.0
C1001 C 0.59446 0.88313 0.90792 0.0
C1002 C 0.61629 0.86796 0.92139 0.0
C1003 C 0.64293 0.8829 0.92877 0.0
H1004 H 0.57383 0.87155 0.90227 0.0
H1005 H 0.83154 0.01314 0.98299 0.0
H1006 H 0.71137 0.16116 0.41653 0.0
H1007 H 0.75886 0.14885 0.43545 0.0
H1008 H 0.72688 0.05766 0.44517 0.0
H1009 H 0.67937 0.06972 0.42552 0.0
H1010 H 0.76526 0.09148 0.49675 0.0
H1011 H 0.75943 0.06157 0.39056 0.0
H1012 H 0.74958 0.07121 0.3377 0.0
H1013 H 0.81314 0.14494 0.34238 0.0
H1014 H 0.823 0.13601 0.39547 0.0
H1015 H 0.89047 0.00899 0.50257 0.0
H1016 H 0.84382 0.03096 0.49785 0.0
H1017 H 0.88445 0.10522 0.45289 0.0
H1018 H 0.93091 0.08232 0.45653 0.0
H1019 H 0.84151 0.08414 0.42129 0.0
H1020 H 0.85239 0.11296 0.52394 0.0
H1021 H 0.86276 0.10747 0.57749 0.0
H1022 H 0.79185 0.04189 0.58162 0.0
H1023 H 0.78122 0.04672 0.52795 0.0
C1024 C 0.7144 0.13859 0.42308 0.0
C1025 C 0.69182 0.11634 0.41963 0.0
C1026 C 0.74145 0.13163 0.43385 0.0
C1027 C 0.7462 0.10243 0.44178 0.0
C1028 C 0.72345 0.08036 0.43933 0.0
C1029 C 0.6965 0.08719 0.42797 0.0
C1030 C 0.77553 0.09454 0.45036 0.0
C1031 C 0.78197 0.08952 0.48034 0.0
C1032 C 0.7974 0.09319 0.42902 0.0
C1033 C 0.79168 0.09836 0.39705 0.0
C1034 C 0.77108 0.08003 0.3804 0.0
C1035 C 0.76554 0.08532 0.35038 0.0
C1036 C 0.78065 0.10873 0.33671 0.0
C1037 C 0.80141 0.12685 0.35301 0.0
C1038 C 0.80699 0.12168 0.38306 0.0
C1039 C 0.88947 0.03051 0.49263 0.0
C1040 C 0.91408 0.04432 0.4803 0.0
C1041 C 0.86284 0.04311 0.48993 0.0
C1042 C 0.86053 0.06993 0.47517 0.0
C1043 C 0.88563 0.08453 0.46435 0.0
C1044 C 0.91218 0.07167 0.46666 0.0
C1045 C 0.83167 0.0807 0.46795 0.0
C1046 C 0.82513 0.08627 0.43803 0.0
C1047 C 0.80993 0.08305 0.48954 0.0
C1048 C 0.81614 0.08006 0.52185 0.0
C1049 C 0.83912 0.09721 0.5362 0.0
C1050 C 0.84502 0.09425 0.56659 0.0
C1051 C 0.82799 0.07433 0.58293 0.0
C1052 C 0.805 0.05733 0.56892 0.0
C1053 C 0.799 0.0602 0.53852 0.0
H1054 H 0.83257 0.07216 0.60647 0.0
H1055 H 0.77635 0.11279 0.31346 0.0
H1056 H 0.32223 0.63122 0.07223 0.0
H1057 H 0.28164 0.61114 0.0403 0.0
H1058 H 0.2313 0.59475 0.11851 0.0
H1059 H 0.27176 0.61455 0.15044 0.0
H1060 H 0.22117 0.55048 0.07706 0.0
H1061 H 0.22763 0.65945 0.08049 0.0
H1062 H 0.25277 0.70846 0.07276 0.0
H1063 H 0.26027 0.68529 0.97947 0.0
H1064 H 0.23552 0.63595 0.98678 0.0
H1065 H 0.0786 0.60273 0.03875 0.0
H1066 H 0.13027 0.61552 0.04383 0.0
H1067 H 0.14754 0.53514 0.99308 0.0
H1068 H 0.09562 0.5222 0.98781 0.0
H1069 H 0.17942 0.62298 0.01041 0.0
H1070 H 0.19976 0.50243 0.03554 0.0
H1071 H 0.17371 0.45555 0.04935 0.0
H1072 H 0.10941 0.50563 0.09257 0.0
H1073 H 0.13531 0.55275 0.07938 0.0
C1074 C 0.30255 0.62307 0.08257 0.0
C1075 C 0.3 0.62472 0.1138 0.0
C1076 C 0.27946 0.61155 0.06432 0.0
C1077 C 0.25335 0.60182 0.07703 0.0
C1078 C 0.25129 0.60206 0.10824 0.0
C1079 C 0.27441 0.61339 0.12648 0.0
C1080 C 0.22728 0.5937 0.05819 0.0
C1081 C 0.21232 0.56609 0.06204 0.0
C1082 C 0.21566 0.61412 0.03868 0.0
C1083 C 0.23003 0.64395 0.03423 0.0
C1084 C 0.23478 0.66478 0.05837 0.0
C1085 C 0.24895 0.6926 0.05406 0.0
C1086 C 0.25818 0.69995 0.02566 0.0
C1087 C 0.25316 0.67953 0.00147 0.0
C1088 C 0.23906 0.65165 0.00567 0.0
C1089 C 0.09336 0.58831 0.02777 0.0
C1090 C 0.08316 0.56127 0.0133 0.0
C1091 C 0.12289 0.59568 0.0306 0.0
C1092 C 0.14268 0.576 0.01927 0.0
C1093 C 0.13254 0.55048 0.00217 0.0
C1094 C 0.10289 0.5432 -0.00092 0.0
C1095 C 0.17311 0.58002 0.02976 0.0
C1096 C 0.18885 0.60687 0.02445 0.0
C1097 C 0.18523 0.55915 0.0484 0.0
C1098 C 0.16926 0.53102 0.05612 0.0
C1099 C 0.18005 0.50338 0.04796 0.0
C1100 C 0.16534 0.4768 0.05572 0.0
C1101 C 0.13992 0.47762 0.0718 0.0
C1102 C 0.12908 0.50503 0.08006 0.0
C1103 C 0.14374 0.53168 0.07242 0.0
H1104 H 0.12874 0.45702 0.07802 0.0
H1105 H 0.26916 0.72149 0.02237 0.0
H1106 H 0.17419 0.45109 0.60068 0.0
H1107 H 0.22006 0.46414 0.57644 0.0
H1108 H 0.23274 0.37061 0.56009 0.0
H1109 H 0.18726 0.3575 0.58415 0.0
H1110 H 0.27992 0.40365 0.5882 0.0
H1111 H 0.21402 0.40992 0.50393 0.0
H1112 H 0.17216 0.42909 0.47798 0.0
H1113 H 0.21084 0.51837 0.4879 0.0
H1114 H 0.25276 0.49978 0.51432 0.0
H1115 H 0.40511 0.40875 0.5095 0.0
H1116 H 0.35368 0.39746 0.5171 0.0
H1117 H 0.33898 0.49132 0.51489 0.0
H1118 H 0.39017 0.50239 0.50538 0.0
H1119 H 0.29185 0.46046 0.4961 0.0
H1120 H 0.35515 0.45814 0.58107 0.0
H1121 H 0.39699 0.44292 0.61011 0.0
H1122 H 0.3631 0.35168 0.60377 0.0
H1123 H 0.32125 0.3663 0.57428 0.0
C1124 C 0.18676 0.4334 0.59174 0.0
C1125 C 0.17713 0.40331 0.59411 0.0
C1126 C 0.21279 0.44086 0.57779 0.0
C1127 C 0.22961 0.4183 0.56632 0.0
C1128 C 0.21997 0.38831 0.56865 0.0
C1129 C 0.19392 0.38088 0.58225 0.0
C1130 C 0.25812 0.42561 0.55335 0.0
C1131 C 0.28251 0.41571 0.56783 0.0
C1132 C 0.26148 0.44236 0.52747 0.0
C1133 C 0.2364 0.45349 0.51137 0.0
C1134 C 0.21349 0.43367 0.50081 0.0
C1135 C 0.18977 0.44443 0.48597 0.0
C1136 C 0.1888 0.47494 0.48136 0.0
C1137 C 0.2116 0.49475 0.49151 0.0
C1138 C 0.23536 0.48411 0.5064 0.0
C1139 C 0.39063 0.42676 0.50938 0.0
C1140 C 0.40147 0.45639 0.507 0.0
C1141 C 0.36133 0.42038 0.51404 0.0
C1142 C 0.34265 0.44366 0.5177 0.0
C1143 C 0.35298 0.47301 0.51243 0.0
C1144 C 0.38222 0.47931 0.50689 0.0
C1145 C 0.31369 0.43782 0.53057 0.0
C1146 C 0.28928 0.44824 0.51635 0.0
C1147 C 0.31024 0.42211 0.55721 0.0
C1148 C 0.33522 0.41327 0.57523 0.0
C1149 C 0.35671 0.4348 0.58573 0.0
C1150 C 0.38042 0.42629 0.60227 0.0
C1151 C 0.38274 0.39634 0.60872 0.0
C1152 C 0.3613 0.37486 0.59871 0.0
C1153 C 0.33757 0.38325 0.5821 0.0
H1154 H 0.40111 0.38979 0.62152 0.0
H1155 H 0.17042 0.48322 0.46987 0.0
H1156 H 0.87266 0.78316 0.85176 0.0
H1157 H 0.89014 0.73925 0.87505 0.0
H1158 H 0.89707 0.78761 0.96021 0.0
H1159 H 0.87967 0.83194 0.93691 0.0
H1160 H 0.94532 0.75151 0.94693 0.0
H1161 H 0.84228 0.74193 0.95102 0.0
H1162 H 0.79262 0.74239 0.93075 0.0
H1163 H 0.80903 0.67117 0.86775 0.0
H1164 H 0.85896 0.67059 0.88734 0.0
H1165 H 0.96658 0.60744 0.01051 0.0
H1166 H 0.95052 0.65794 0.00297 0.0
H1167 H 0.91904 0.62957 0.91451 0.0
H1168 H 0.93391 0.57975 0.92213 0.0
H1169 H 0.88049 0.65939 0.94025 0.0
H1170 H 0.98469 0.67361 0.93043 0.0
H1171 H 0.03514 0.67354 0.94858 0.0
H1172 H 0.0174 0.73545 0.02043 0.0
H1173 H 0.96673 0.73559 0.00288 0.0
C1174 C 0.87825 0.78464 0.87536 0.0
C1175 C 0.87471 0.81103 0.89249 0.0
C1176 C 0.88811 0.75947 0.88868 0.0
C1177 C 0.89472 0.7601 0.91941 0.0
C1178 C 0.89206 0.78665 0.93648 0.0
C1179 C 0.88192 0.81184 0.92318 0.0
C1180 C 0.90316 0.73247 0.93354 0.0
C1181 C 0.93103 0.73144 0.94599 0.0
C1182 C 0.88455 0.70631 0.93218 0.0
C1183 C 0.85443 0.70636 0.92054 0.0
C1184 C 0.83537 0.7265 0.93271 0.0
C1185 C 0.80716 0.72677 0.92136 0.0
C1186 C 0.79769 0.70685 0.89795 0.0
C1187 C 0.8164 0.68658 0.88588 0.0
C1188 C 0.84464 0.68626 0.89713 0.0
C1189 C 0.95619 0.6121 0.98953 0.0
C1190 C 0.95134 0.58943 0.96706 0.0
C1191 C 0.94712 0.64098 0.98517 0.0
C1192 C 0.93352 0.64769 0.9581 0.0
C1193 C 0.92914 0.62506 0.93571 0.0
C1194 C 0.93776 0.59642 0.94014 0.0
C1195 C 0.92325 0.67782 0.9524 0.0
C1196 C 0.89479 0.67945 0.94167 0.0
C1197 C 0.94144 0.70436 0.95512 0.0
C1198 C 0.97187 0.70431 0.96558 0.0
C1199 C 0.99151 0.68702 0.95023 0.0
C1200 C 0.02014 0.687 0.96038 0.0
C1201 C 0.02945 0.7044 0.9857 0.0
C1202 C 0.01015 0.72193 0.00087 0.0
C1203 C 0.98148 0.72199 0.99082 0.0
H1204 H 0.05162 0.70435 0.99353 0.0
H1205 H 0.77584 0.70709 0.88918 0.0
H1206 H 0.37139 0.73244 0.17952 0.0
H1207 H 0.39101 0.78138 0.16498 0.0
H1208 H 0.39042 0.74938 0.07287 0.0
H1209 H 0.37237 0.70009 0.08738 0.0
H1210 H 0.43833 0.78126 0.08574 0.0
H1211 H 0.33678 0.79261 0.10269 0.0
H1212 H 0.293 0.79075 0.13299 0.0
H1213 H 0.33409 0.85426 0.1969 0.0
H1214 H 0.37826 0.8562 0.16714 0.0
H1215 H 0.43512 0.89834 0.99567 0.0
H1216 H 0.41208 0.86032 0.02609 0.0
H1217 H 0.44575 0.90785 0.10603 0.0
H1218 H 0.46877 0.94652 0.07542 0.0
H1219 H 0.38562 0.87224 0.10779 0.0
H1220 H 0.48659 0.86304 0.08611 0.0
H1221 H 0.5279 0.86528 0.05237 0.0
H1222 H 0.48544 0.79683 0.99467 0.0
H1223 H 0.44364 0.79458 0.02781 0.0
C1224 C 0.37588 0.73569 0.15623 0.0
C1225 C 0.37017 0.71238 0.13457 0.0
C1226 C 0.38678 0.76378 0.14792 0.0
C1227 C 0.39177 0.76916 0.11779 0.0
C1228 C 0.38662 0.74577 0.09625 0.0
C1229 C 0.37602 0.71767 0.10455 0.0
C1230 C 0.40219 0.79908 0.10827 0.0
C1231 C 0.42677 0.80109 0.09064 0.0
C1232 C 0.38754 0.82517 0.11522 0.0
C1233 C 0.36089 0.82431 0.13288 0.0
C1234 C 0.33652 0.80604 0.1233 0.0
C1235 C 0.31164 0.80499 0.14036 0.0
C1236 C 0.31079 0.82231 0.1669 0.0
C1237 C 0.3348 0.84082 0.17637 0.0
C1238 C 0.35975 0.84192 0.15941 0.0
C1239 C 0.43672 0.90129 0.01978 0.0
C1240 C 0.45394 0.92504 0.03329 0.0
C1241 C 0.42353 0.87962 0.0371 0.0
C1242 C 0.42767 0.88115 0.06817 0.0
C1243 C 0.44235 0.90643 0.08203 0.0
C1244 C 0.45543 0.92845 0.06458 0.0
C1245 C 0.42113 0.85394 0.08477 0.0
C1246 C 0.39744 0.85246 0.10361 0.0
C1247 C 0.43642 0.82816 0.07882 0.0
C1248 C 0.46193 0.82879 0.05935 0.0
C1249 C 0.486 0.84859 0.06614 0.0
C1250 C 0.5095 0.84986 0.04713 0.0
C1251 C 0.50928 0.83124 0.02137 0.0
C1252 C 0.48559 0.81124 0.01463 0.0
C1253 C 0.462 0.80994 0.03354 0.0
H1254 H 0.52748 0.83228 0.00666 0.0
H1255 H 0.29152 0.82146 0.18009 0.0
H1256 H 0.08483 0.31247 0.64118 0.0
H1257 H 0.06179 0.26668 0.6182 0.0
H1258 H 0.06496 0.30554 0.53187 0.0
H1259 H 0.08693 0.35206 0.55487 0.0
H1260 H 0.01607 0.26604 0.53767 0.0
H1261 H 0.11959 0.26796 0.55272 0.0
H1262 H 0.16433 0.27591 0.58326 0.0
H1263 H 0.13417 0.20756 0.64141 0.0
H1264 H 0.08903 0.19956 0.61148 0.0
H1265 H 0.06453 0.10235 0.49942 0.0
H1266 H 0.07002 0.15689 0.49886 0.0
H1267 H 0.99134 0.16289 0.54769 0.0
H1268 H 0.98584 0.10839 0.54798 0.0
H1269 H 0.07918 0.18262 0.55334 0.0
H1270 H 0.96777 0.23425 0.54262 0.0
H1271 H 0.92332 0.22684 0.51157 0.0
H1272 H 0.9709 0.18741 0.44063 0.0
H1273 H 0.0157 0.19498 0.47105 0.0
C1274 C 0.07975 0.31175 0.61748 0.0
C1275 C 0.0882 0.33579 0.59978 0.0
C1276 C 0.0667 0.28546 0.60434 0.0
C1277 C 0.06221 0.28255 0.57326 0.0
C1278 C 0.0684 0.30728 0.55586 0.0
C1279 C 0.08127 0.3337 0.56902 0.0
C1280 C 0.05503 0.25272 0.5587 0.0
C1281 C 0.02978 0.24772 0.54101 0.0
C1282 C 0.07338 0.22911 0.56246 0.0
C1283 C 0.10088 0.23329 0.57996 0.0
C1284 C 0.12247 0.2547 0.57208 0.0
C1285 C 0.14789 0.25923 0.58929 0.0
C1286 C 0.15208 0.24227 0.61428 0.0
C1287 C 0.1309 0.22068 0.62205 0.0
C1288 C 0.1054 0.21613 0.60496 0.0
C1289 C 0.04752 0.11535 0.50833 0.0
C1290 C 0.02463 0.1014 0.52346 0.0
C1291 C 0.05079 0.14648 0.50829 0.0
C1292 C 0.03125 0.16398 0.5235 0.0
C1293 C 0.00653 0.14991 0.53555 0.0
C1294 C 0.00329 0.11875 0.53558 0.0
C1295 C 0.03982 0.19547 0.53259 0.0
C1296 C 0.06546 0.20085 0.54954 0.0
C1297 C 0.02189 0.21927 0.52789 0.0
C1298 C 0.99508 0.21498 0.50926 0.0
C1299 C 0.96879 0.22414 0.52035 0.0
C1300 C 0.94352 0.21988 0.50286 0.0
C1301 C 0.94427 0.20658 0.47418 0.0
C1302 C 0.97032 0.1976 0.46289 0.0
C1303 C 0.99566 0.20182 0.48028 0.0
H1304 H 0.92468 0.20329 0.46069 0.0
H1305 H 0.17176 0.24583 0.6276 0.0
H1306 H 0.60144 0.20041 0.371 0.0
H1307 H 0.57849 0.24459 0.38971 0.0
H1308 H 0.5929 0.21909 0.48026 0.0
H1309 H 0.61486 0.17394 0.46161 0.0
H1310 H 0.54039 0.23976 0.47414 0.0
H1311 H 0.6358 0.27389 0.45125 0.0
H1312 H 0.67956 0.28012 0.42133 0.0
H1313 H 0.63225 0.32484 0.3552 0.0
H1314 H 0.58807 0.31847 0.3845 0.0
H1315 H 0.52581 0.40268 0.51579 0.0
H1316 H 0.54504 0.35288 0.51222 0.0
H1317 H 0.50523 0.33739 0.42493 0.0
H1318 H 0.48549 0.38636 0.4284 0.0
H1319 H 0.57432 0.33838 0.4375 0.0
H1320 H 0.47723 0.29666 0.46026 0.0
H1321 H 0.43528 0.29142 0.49293 0.0
H1322 H 0.48962 0.26295 0.5635 0.0
H1323 H 0.532 0.2685 0.53132 0.0
C1324 C 0.59938 0.20389 0.39489 0.0
C1325 C 0.61004 0.1836 0.4148 0.0
C1326 C 0.58654 0.22938 0.40558 0.0
C1327 C 0.5844 0.23541 0.43641 0.0
C1328 C 0.59447 0.21496 0.45639 0.0
C1329 C 0.60724 0.18932 0.44569 0.0
C1330 C 0.57186 0.26328 0.44752 0.0
C1331 C 0.54813 0.26136 0.46648 0.0
C1332 C 0.58201 0.29156 0.43774 0.0
C1333 C 0.60855 0.29549 0.41999 0.0
C1334 C 0.63466 0.28485 0.43022 0.0
C1335 C 0.65956 0.28844 0.41338 0.0
C1336 C 0.65867 0.30282 0.38635 0.0
C1337 C 0.6329 0.31369 0.37613 0.0
C1338 C 0.60792 0.31012 0.39287 0.0
C1339 C 0.5204 0.38828 0.49626 0.0
C1340 C 0.5044 0.39863 0.47223 0.0
C1341 C 0.53145 0.35992 0.49425 0.0
C1342 C 0.52657 0.3417 0.46825 0.0
C1343 C 0.50914 0.35121 0.44516 0.0
C1344 C 0.49791 0.37924 0.44723 0.0
C1345 C 0.54244 0.31455 0.4631 0.0
C1346 C 0.56692 0.31674 0.44537 0.0
C1347 C 0.53323 0.28673 0.47432 0.0
C1348 C 0.50781 0.28345 0.49358 0.0
C1349 C 0.48029 0.28968 0.48287 0.0
C1350 C 0.45642 0.28654 0.50125 0.0
C1351 C 0.4598 0.27698 0.53032 0.0
C1352 C 0.48705 0.27044 0.54101 0.0
C1353 C 0.51099 0.27357 0.52271 0.0
H1354 H 0.4413 0.27455 0.54451 0.0
H1355 H 0.67797 0.30558 0.37336 0.0
loop_
_geom_bond_atom_site_label_1
_geom_bond_atom_site_label_2
_geom_bond_distance
_geom_bond_site_symmetry_2
_ccdc_geom_bond_type
H0 C3 0.931 . S
H1 C6 0.928 . S
H2 C8 0.930 . S
C3 H0 0.931 . S
C3 C4 1.413 . S
C3 C5 1.360 . S
C4 C3 1.413 . S
C4 C8 1.429 . S
C5 C3 1.360 . S
C5 C6 1.372 . S
C6 H1 0.928 . S
C6 C5 1.372 . S
C6 C7 1.404 . S
C7 C6 1.404 . S
C7 C8 1.391 . S
C8 H2 0.930 . S
C8 C4 1.429 . S
C8 C7 1.391 . S
H9 C12 0.931 . S
H10 C15 0.928 . S
H11 C17 0.930 . S
C12 H9 0.931 . S
C12 C13 1.413 . S
C12 C14 1.360 . S
C13 C12 1.413 . S
C13 C17 1.429 . S
C14 C12 1.360 . S
C14 C15 1.372 . S
C15 H10 0.928 . S
C15 C14 1.372 . S
C15 C16 1.404 . S
C16 C15 1.404 . S
C16 C17 1.391 . S
C17 H11 0.930 . S
C17 C13 1.429 . S
C17 C16 1.391 . S
H18 C21 0.931 . S
H19 C24 0.928 . S
H20 C26 0.930 . S
C21 H18 0.931 . S
C21 C22 1.413 . S
C21 C23 1.360 . S
C22 C21 1.413 . S
C22 C26 1.429 . S
C23 C21 1.360 . S
C23 C24 1.372 . S
C24 H19 0.928 . S
C24 C23 1.372 . S
C24 C25 1.404 . S
C25 C24 1.404 . S
C25 C26 1.391 . S
C26 H20 0.930 . S
C26 C22 1.429 . S
C26 C25 1.391 . S
H27 C30 0.931 . S
H28 C33 0.928 . S
H29 C35 0.930 . S
C30 H27 0.931 . S
C30 C31 1.413 . S
C30 C32 1.360 . S
C31 C30 1.413 . S
C31 C35 1.429 . S
C32 C30 1.360 . S
C32 C33 1.372 . S
C33 H28 0.928 . S
C33 C32 1.372 . S
C33 C34 1.404 . S
C34 C33 1.404 . S
C34 C35 1.391 . S
C35 H29 0.930 . S
C35 C31 1.429 . S
C35 C34 1.391 . S
H36 C39 0.931 . S
H37 C42 0.928 . S
H38 C44 0.930 . S
C39 H36 0.931 . S
C39 C40 1.413 . S
C39 C41 1.360 . S
C40 C39 1.413 . S
C40 C44 1.429 . S
C41 C39 1.360 . S
C41 C42 1.372 . S
C42 H37 0.928 . S
C42 C41 1.372 . S
C42 C43 1.404 . S
C43 C42 1.404 . S
C43 C44 1.391 . S
C44 H38 0.930 . S
C44 C40 1.429 . S
C44 C43 1.391 . S
H45 C48 0.931 . S
H46 C51 0.928 . S
H47 C53 0.930 . S
C48 H45 0.931 . S
C48 C49 1.413 . S
C48 C50 1.360 . S
C49 C48 1.413 . S
C49 C53 1.429 . S
C50 C48 1.360 . S
C50 C51 1.372 . S
C51 H46 0.928 . S
C51 C50 1.372 . S
C51 C52 1.404 . S
C52 C51 1.404 . S
C52 C53 1.391 . S
C53 H47 0.930 . S
C53 C49 1.429 . S
C53 C52 1.391 . S
H54 C57 0.931 . S
H55 C60 0.928 . S
H56 C62 0.930 . S
C57 H54 0.931 . S
C57 C58 1.413 . S
C57 C59 1.360 . S
C58 C57 1.413 . S
C58 C62 1.429 . S
C59 C57 1.360 . S
C59 C60 1.372 . S
C60 H55 0.928 . S
C60 C59 1.372 . S
C60 C61 1.404 . S
C61 C60 1.404 . S
C61 C62 1.391 . S
C62 H56 0.930 . S
C62 C58 1.429 . S
C62 C61 1.391 . S
H63 C66 0.931 . S
H64 C69 0.928 . S
H65 C71 0.930 . S
C66 H63 0.931 . S
C66 C67 1.413 . S
C66 C68 1.360 . S
C67 C66 1.413 . S
C67 C71 1.429 . S
C68 C66 1.360 . S
C68 C69 1.372 . S
C69 H64 0.928 . S
C69 C68 1.372 . S
C69 C70 1.404 . S
C70 C69 1.404 . S
C70 C71 1.391 . S
C71 H65 0.930 . S
C71 C67 1.429 . S
C71 C70 1.391 . S
O72 Mg73 1.990 . S
O72 C86 1.253 1_445 S
Mg73 O72 1.990 . S
Mg73 O76 2.180 . S
Mg73 O77 2.117 . S
Mg73 O91 2.030 1_545 S
O74 Mg75 2.072 1_665 S
O74 C86 1.260 . S
Mg75 O74 2.072 1_445 S
Mg75 O76 2.099 . S
Mg75 O78 2.079 . S
Mg75 O79 2.072 1_455 S
Mg75 O81 2.099 1_445 S
Mg75 O92 2.079 1_545 S
O76 Mg73 2.180 . S
O76 Mg75 2.099 . S
O76 C87 1.279 . S
O77 Mg73 2.117 . S
O77 C87 1.250 . S
O78 Mg75 2.079 . S
O78 C88 1.264 . S
O79 Mg75 2.072 1_655 S
O79 C89 1.260 . S
Mg80 O81 2.180 . S
Mg80 O82 2.030 1_565 S
Mg80 O83 1.990 1_565 S
Mg80 O84 2.117 . S
O81 Mg75 2.099 1_665 S
O81 Mg80 2.180 . S
O81 C90 1.279 . S
O82 Mg80 2.030 1_545 S
O82 C88 1.248 1_655 S
O83 Mg80 1.990 1_545 S
O83 C89 1.253 . S
O84 Mg80 2.117 . S
O84 C90 1.250 . S
C85 O91 1.248 . S
C85 O92 1.264 . S
C86 O72 1.253 1_665 S
C86 O74 1.260 . S
C87 O76 1.279 . S
C87 O77 1.250 . S
C88 O78 1.264 . S
C88 O82 1.248 1_455 S
C89 O79 1.260 . S
C89 O83 1.253 . S
C90 O81 1.279 . S
C90 O84 1.250 . S
O91 Mg73 2.030 1_565 S
O91 C85 1.248 . S
O92 Mg75 2.079 1_565 S
O92 C85 1.264 . S
O93 Mg94 1.990 . S
O93 C107 1.253 . S
Mg94 O93 1.990 . S
Mg94 O97 2.194 . S
Mg94 O98 2.117 1_554 S
Mg94 O112 2.030 . S
O95 Mg96 2.072 . S
O95 C107 1.260 . S
Mg96 O95 2.072 . S
Mg96 O97 2.102 . S
Mg96 O99 2.079 1_554 S
Mg96 O100 2.072 1_554 S
Mg96 O102 2.099 1_545 S
Mg96 O113 2.079 . S
O97 Mg94 2.194 . S
O97 Mg96 2.102 . S
O97 C108 1.266 1_554 S
O98 Mg94 2.117 1_556 S
O98 C108 1.250 . S
O99 Mg96 2.079 1_556 S
O99 C109 1.264 1_545 S
O100 Mg96 2.072 1_556 S
O100 C110 1.260 1_545 S
Mg101 O102 2.180 1_556 S
Mg101 O103 2.030 . S
Mg101 O104 1.990 . S
Mg101 O105 2.117 1_556 S
O102 Mg96 2.099 1_565 S
O102 Mg101 2.180 1_554 S
O102 C111 1.279 . S
O103 Mg101 2.030 . S
O103 C109 1.248 . S
O104 Mg101 1.990 . S
O104 C110 1.253 . S
O105 Mg101 2.117 1_554 S
O105 C111 1.250 . S
C106 O112 1.248 . S
C106 O113 1.264 . S
C107 O93 1.253 . S
C107 O95 1.260 . S
C108 O97 1.266 1_556 S
C108 O98 1.250 . S
C109 O99 1.264 1_565 S
C109 O103 1.248 . S
C110 O100 1.260 1_565 S
C110 O104 1.253 . S
C111 O102 1.279 . S
C111 O105 1.250 . S
O112 Mg94 2.030 . S
O112 C106 1.248 . S
O113 Mg96 2.079 . S
O113 C106 1.264 . S
O114 Mg115 1.990 . S
O114 C128 1.253 . S
Mg115 O114 1.990 . S
Mg115 O118 2.180 . S
Mg115 O119 2.117 . S
Mg115 O133 2.030 . S
O116 Mg117 2.072 . S
O116 C128 1.260 . S
Mg117 O116 2.072 . S
Mg117 O118 2.099 . S
Mg117 O120 2.079 . S
Mg117 O121 2.072 . S
Mg117 O123 2.099 . S
Mg117 O134 2.079 . S
O118 Mg115 2.180 . S
O118 Mg117 2.099 . S
O118 C129 1.279 . S
O119 Mg115 2.117 . S
O119 C129 1.250 . S
O120 Mg117 2.079 . S
O120 C130 1.264 . S
O121 Mg117 2.072 . S
O121 C131 1.260 . S
Mg122 O123 2.180 . S
Mg122 O124 2.030 . S
Mg122 O125 1.990 . S
Mg122 O126 2.117 . S
O123 Mg117 2.099 . S
O123 Mg122 2.180 . S
O123 C132 1.279 . S
O124 Mg122 2.030 . S
O124 C130 1.248 . S
O125 Mg122 1.990 . S
O125 C131 1.253 . S
O126 Mg122 2.117 . S
O126 C132 1.250 . S
C127 O133 1.248 . S
C127 O134 1.264 . S
C128 O114 1.253 . S
C128 O116 1.260 . S
C129 O118 1.279 . S
C129 O119 1.250 . S
C130 O120 1.264 . S
C130 O124 1.248 . S
C131 O121 1.260 . S
C131 O125 1.253 . S
C132 O123 1.279 . S
C132 O126 1.250 . S
O133 Mg115 2.030 . S
O133 C127 1.248 . S
O134 Mg117 2.079 . S
O134 C127 1.264 . S
O135 Mg136 1.990 . S
O135 C149 1.253 . S
Mg136 O135 1.990 . S
Mg136 O139 2.180 1_455 S
Mg136 O140 2.117 1_455 S
Mg136 O154 2.030 . S
O137 Mg138 2.072 . S
O137 C149 1.260 . S
Mg138 O137 2.072 . S
Mg138 O139 2.099 1_455 S
Mg138 O141 2.079 1_454 S
Mg138 O142 2.072 1_455 S
Mg138 O144 2.099 1_554 S
Mg138 O155 2.079 . S
O139 Mg136 2.180 1_655 S
O139 Mg138 2.099 1_655 S
O139 C150 1.279 . S
O140 Mg136 2.117 1_655 S
O140 C150 1.250 . S
O141 Mg138 2.079 1_656 S
O141 C151 1.264 . S
O142 Mg138 2.072 1_655 S
O142 C152 1.260 1_554 S
Mg143 O144 2.180 1_655 S
Mg143 O145 2.030 . S
Mg143 O146 1.990 . S
Mg143 O147 2.117 . S
O144 Mg138 2.099 1_556 S
O144 Mg143 2.180 1_455 S
O144 C153 1.279 . S
O145 Mg143 2.030 . S
O145 C151 1.248 . S
O146 Mg143 1.990 . S
O146 C152 1.253 . S
O147 Mg143 2.117 . S
O147 C153 1.250 1_655 S
C148 O154 1.248 . S
C148 O155 1.264 . S
C149 O135 1.253 . S
C149 O137 1.260 . S
C150 O139 1.279 . S
C150 O140 1.250 . S
C151 O141 1.264 . S
C151 O145 1.248 . S
C152 O142 1.260 1_556 S
C152 O146 1.253 . S
C153 O144 1.279 . S
C153 O147 1.250 1_455 S
O154 Mg136 2.030 . S
O154 C148 1.248 . S
O155 Mg138 2.079 . S
O155 C148 1.264 . S
H156 C174 0.951 . S
H157 C176 0.951 . S
H158 C178 0.950 . S
H159 C179 0.950 . S
H160 C181 0.950 . S
H161 C184 0.950 . S
H162 C185 0.950 . S
H163 C187 0.950 . S
H164 C188 0.950 . S
H165 C189 0.951 . S
H166 C191 0.951 . S
H167 C193 0.950 . S
H168 C194 0.950 . S
H169 C196 0.950 . S
H170 C199 0.950 1_455 S
H171 C200 0.950 . S
H172 C202 0.950 . S
H173 C203 0.950 . S
C174 H156 0.951 . S
C174 C175 1.366 . S
C174 C176 1.388 . S
C175 C174 1.366 . S
C175 C179 1.385 . S
C176 H157 0.951 . S
C176 C174 1.388 . S
C176 C177 1.366 . S
C177 C176 1.366 . S
C177 C178 1.414 . S
C177 C180 1.499 . S
C178 H158 0.950 . S
C178 C177 1.414 . S
C178 C179 1.374 . S
C179 H159 0.950 . S
C179 C175 1.385 . S
C179 C178 1.374 . S
C180 C177 1.499 . S
C180 C181 1.373 . S
C180 C182 1.389 . S
C181 H160 0.950 . S
C181 C180 1.373 . S
C181 C197 1.377 . S
C182 C180 1.389 . S
C182 C183 1.524 . S
C182 C196 1.377 . S
C183 C182 1.524 . S
C183 C184 1.397 . S
C183 C188 1.363 . S
C184 H161 0.950 . S
C184 C183 1.397 . S
C184 C185 1.334 . S
C185 H162 0.950 . S
C185 C184 1.334 . S
C185 C186 1.287 . S
C186 C185 1.287 . S
C186 C187 1.524 . S
C186 H205 0.913 . S
C187 H163 0.950 . S
C187 C186 1.524 . S
C187 C188 1.415 . S
C188 H164 0.950 . S
C188 C183 1.363 . S
C188 C187 1.415 . S
C189 H165 0.951 . S
C189 C190 1.366 . S
C189 C191 1.388 . S
C190 C189 1.366 . S
C190 C194 1.385 . S
C191 H166 0.951 . S
C191 C189 1.388 . S
C191 C192 1.366 . S
C192 C191 1.366 . S
C192 C193 1.414 . S
C192 C195 1.499 . S
C193 H167 0.950 . S
C193 C192 1.414 . S
C193 C194 1.374 . S
C194 H168 0.950 . S
C194 C190 1.385 . S
C194 C193 1.374 . S
C195 C192 1.499 . S
C195 C196 1.373 . S
C195 C197 1.389 . S
C196 H169 0.950 . S
C196 C182 1.377 . S
C196 C195 1.373 . S
C197 C181 1.377 . S
C197 C195 1.389 . S
C197 C198 1.524 . S
C198 C197 1.524 . S
C198 C199 1.397 1_455 S
C198 C203 1.363 . S
C199 H170 0.950 1_655 S
C199 C198 1.397 1_655 S
C199 C200 1.334 . S
C200 H171 0.950 . S
C200 C199 1.334 . S
C200 C201 1.287 . S
C201 C200 1.287 . S
C201 C202 1.524 . S
C201 H204 0.999 . S
C202 H172 0.950 . S
C202 C201 1.524 . S
C202 C203 1.415 1_655 S
C203 H173 0.950 . S
C203 C198 1.363 . S
C203 C202 1.415 1_455 S
H204 C201 0.999 . S
H205 C186 0.913 . S
H206 C224 0.951 . S
H207 C226 0.951 . S
H208 C228 0.950 . S
H209 C229 0.950 . S
H210 C231 0.950 . S
H211 C234 0.950 . S
H212 C235 0.950 . S
H213 C237 0.950 . S
H214 C238 0.951 1_565 S
H215 C239 0.951 . S
H216 C241 0.951 . S
H217 C243 0.950 . S
H218 C244 0.947 1_545 S
H219 C246 0.950 . S
H220 C249 0.950 . S
H221 C250 0.950 . S
H222 C252 0.950 . S
H223 C253 0.950 . S
C224 H206 0.951 . S
C224 C225 1.366 . S
C224 C226 1.388 . S
C225 C224 1.366 . S
C225 C229 1.385 . S
C226 H207 0.951 . S
C226 C224 1.388 . S
C226 C227 1.366 . S
C227 C226 1.366 . S
C227 C228 1.414 . S
C227 C230 1.499 . S
C228 H208 0.950 . S
C228 C227 1.414 . S
C228 C229 1.374 . S
C229 H209 0.950 . S
C229 C225 1.385 . S
C229 C228 1.374 . S
C230 C227 1.499 . S
C230 C231 1.373 . S
C230 C232 1.389 . S
C231 H210 0.950 . S
C231 C230 1.373 . S
C231 C247 1.377 . S
C232 C230 1.389 . S
C232 C233 1.524 . S
C232 C246 1.377 . S
C233 C232 1.524 . S
C233 C234 1.397 . S
C233 C238 1.363 1_565 S
C234 H211 0.950 . S
C234 C233 1.397 . S
C234 C235 1.334 1_565 S
C235 H212 0.950 . S
C235 C234 1.334 1_545 S
C235 C236 1.287 . S
C236 C235 1.287 . S
C236 C237 1.524 . S
C236 H255 0.913 . S
C237 H213 0.950 . S
C237 C236 1.524 . S
C237 C238 1.415 . S
C238 H214 0.951 1_545 S
C238 C233 1.363 1_545 S
C238 C237 1.415 . S
C239 H215 0.951 . S
C239 C240 1.366 . S
C239 C241 1.388 . S
C240 C239 1.366 . S
C240 C244 1.385 . S
C241 H216 0.951 . S
C241 C239 1.388 . S
C241 C242 1.366 . S
C242 C241 1.366 . S
C242 C243 1.414 . S
C242 C245 1.499 . S
C243 H217 0.950 . S
C243 C242 1.414 . S
C243 C244 1.374 . S
C244 H218 0.947 1_565 S
C244 C240 1.385 . S
C244 C243 1.374 . S
C245 C242 1.499 . S
C245 C246 1.373 . S
C245 C247 1.389 . S
C246 H219 0.950 . S
C246 C232 1.377 . S
C246 C245 1.373 . S
C247 C231 1.377 . S
C247 C245 1.389 . S
C247 C248 1.524 . S
C248 C247 1.524 . S
C248 C249 1.397 . S
C248 C253 1.363 . S
C249 H220 0.950 . S
C249 C248 1.397 . S
C249 C250 1.334 . S
C250 H221 0.950 . S
C250 C249 1.334 . S
C250 C251 1.287 . S
C251 C250 1.287 . S
C251 C252 1.524 . S
C251 H254 0.999 . S
C252 H222 0.950 . S
C252 C251 1.524 . S
C252 C253 1.415 . S
C253 H223 0.950 . S
C253 C248 1.363 . S
C253 C252 1.415 . S
H254 C251 0.999 . S
H255 C236 0.913 . S
H256 C274 0.951 . S
H257 C276 0.951 . S
H258 C278 0.950 . S
H259 C279 0.950 . S
H260 C281 0.950 . S
H261 C284 0.950 . S
H262 C285 0.950 . S
H263 C287 0.950 . S
H264 C288 0.950 . S
H265 C289 0.951 . S
H266 C291 0.951 . S
H267 C293 0.950 . S
H268 C294 0.950 . S
H269 C296 0.950 . S
H270 C299 0.950 . S
H271 C300 0.950 . S
H272 C302 0.950 . S
H273 C303 0.950 . S
C274 H256 0.951 . S
C274 C275 1.366 . S
C274 C276 1.388 . S
C275 C274 1.366 . S
C275 C279 1.385 . S
C276 H257 0.951 . S
C276 C274 1.388 . S
C276 C277 1.366 . S
C277 C276 1.366 . S
C277 C278 1.414 . S
C277 C280 1.499 . S
C278 H258 0.950 . S
C278 C277 1.414 . S
C278 C279 1.374 . S
C279 H259 0.950 . S
C279 C275 1.385 . S
C279 C278 1.374 . S
C280 C277 1.499 . S
C280 C281 1.373 . S
C280 C282 1.389 . S
C281 H260 0.950 . S
C281 C280 1.373 . S
C281 C297 1.377 . S
C282 C280 1.389 . S
C282 C283 1.524 . S
C282 C296 1.377 . S
C283 C282 1.524 . S
C283 C284 1.397 . S
C283 C288 1.363 . S
C284 H261 0.950 . S
C284 C283 1.397 . S
C284 C285 1.334 . S
C285 H262 0.950 . S
C285 C284 1.334 . S
C285 C286 1.287 . S
C286 C285 1.287 . S
C286 C287 1.524 . S
C286 H305 0.913 . S
C287 H263 0.950 . S
C287 C286 1.524 . S
C287 C288 1.415 . S
C288 H264 0.950 . S
C288 C283 1.363 . S
C288 C287 1.415 . S
C289 H265 0.951 . S
C289 C290 1.366 . S
C289 C291 1.388 . S
C290 C289 1.366 . S
C290 C294 1.385 . S
C291 H266 0.951 . S
C291 C289 1.388 . S
C291 C292 1.366 . S
C292 C291 1.366 . S
C292 C293 1.414 . S
C292 C295 1.499 . S
C293 H267 0.950 . S
C293 C292 1.414 . S
C293 C294 1.374 . S
C294 H268 0.950 . S
C294 C290 1.385 . S
C294 C293 1.374 . S
C295 C292 1.499 . S
C295 C296 1.373 . S
C295 C297 1.389 . S
C296 H269 0.950 . S
C296 C282 1.377 . S
C296 C295 1.373 . S
C297 C281 1.377 . S
C297 C295 1.389 . S
C297 C298 1.524 . S
C298 C297 1.524 . S
C298 C299 1.397 . S
C298 C303 1.363 . S
C299 H270 0.950 . S
C299 C298 1.397 . S
C299 C300 1.334 . S
C300 H271 0.950 . S
C300 C299 1.334 . S
C300 C301 1.287 . S
C301 C300 1.287 . S
C301 C302 1.524 . S
C301 H304 0.999 . S
C302 H272 0.950 . S
C302 C301 1.524 . S
C302 C303 1.415 . S
C303 H273 0.950 . S
C303 C298 1.363 . S
C303 C302 1.415 . S
H304 C301 0.999 . S
H305 C286 0.913 . S
H306 C324 0.951 . S
H307 C326 0.951 . S
H308 C328 0.950 . S
H309 C329 0.950 . S
H310 C331 0.950 . S
H311 C334 0.950 . S
H312 C335 0.950 . S
H313 C337 0.950 . S
H314 C338 0.950 . S
H315 C339 0.951 . S
H316 C341 0.951 . S
H317 C343 0.950 . S
H318 C344 0.950 . S
H319 C346 0.950 . S
H320 C349 0.952 . S
H321 C350 0.950 . S
H322 C352 0.950 . S
H323 C353 0.950 1_655 S
C324 H306 0.951 . S
C324 C325 1.366 . S
C324 C326 1.388 . S
C325 C324 1.366 . S
C325 C329 1.385 . S
C326 H307 0.951 . S
C326 C324 1.388 . S
C326 C327 1.366 . S
C327 C326 1.366 . S
C327 C328 1.414 . S
C327 C330 1.499 . S
C328 H308 0.950 . S
C328 C327 1.414 . S
C328 C329 1.374 . S
C329 H309 0.950 . S
C329 C325 1.385 . S
C329 C328 1.374 . S
C330 C327 1.499 . S
C330 C331 1.373 . S
C330 C332 1.389 . S
C331 H310 0.950 . S
C331 C330 1.373 . S
C331 C347 1.377 . S
C332 C330 1.389 . S
C332 C333 1.524 . S
C332 C346 1.377 . S
C333 C332 1.524 . S
C333 C334 1.397 . S
C333 C338 1.363 . S
C334 H311 0.950 . S
C334 C333 1.397 . S
C334 C335 1.334 . S
C335 H312 0.950 . S
C335 C334 1.334 . S
C335 C336 1.287 . S
C336 C335 1.287 . S
C336 C337 1.524 . S
C336 H355 0.913 . S
C337 H313 0.950 . S
C337 C336 1.524 . S
C337 C338 1.415 . S
C338 H314 0.950 . S
C338 C333 1.363 . S
C338 C337 1.415 . S
C339 H315 0.951 . S
C339 C340 1.366 . S
C339 C341 1.388 . S
C340 C339 1.366 . S
C340 C344 1.385 . S
C341 H316 0.951 . S
C341 C339 1.388 . S
C341 C342 1.366 . S
C342 C341 1.366 . S
C342 C343 1.414 . S
C342 C345 1.499 . S
C343 H317 0.950 . S
C343 C342 1.414 . S
C343 C344 1.374 . S
C344 H318 0.950 . S
C344 C340 1.385 . S
C344 C343 1.374 . S
C345 C342 1.499 . S
C345 C346 1.373 . S
C345 C347 1.389 . S
C346 H319 0.950 . S
C346 C332 1.377 . S
C346 C345 1.373 . S
C347 C331 1.377 . S
C347 C345 1.389 . S
C347 C348 1.524 . S
C348 C347 1.524 . S
C348 C349 1.398 . S
C348 C353 1.363 1_655 S
C349 H320 0.952 . S
C349 C348 1.398 . S
C349 C350 1.331 1_655 S
C350 H321 0.950 . S
C350 C349 1.331 1_455 S
C350 C351 1.287 . S
C351 C350 1.287 . S
C351 C352 1.524 . S
C351 H354 0.999 . S
C352 H322 0.950 . S
C352 C351 1.524 . S
C352 C353 1.415 . S
C353 H323 0.950 1_455 S
C353 C348 1.363 1_455 S
C353 C352 1.415 . S
H354 C351 0.999 . S
H355 C336 0.913 . S
H356 C374 0.951 . S
H357 C376 0.951 . S
H358 C378 0.950 . S
H359 C379 0.950 . S
H360 C381 0.950 . S
H361 C384 0.950 . S
H362 C385 0.950 . S
H363 C387 0.950 . S
H364 C388 0.950 . S
H365 C389 0.951 . S
H366 C391 0.951 . S
H367 C393 0.950 . S
H368 C394 0.950 . S
H369 C396 0.950 . S
H370 C399 0.950 . S
H371 C400 0.950 . S
H372 C402 0.950 . S
H373 C403 0.950 . S
C374 H356 0.951 . S
C374 C375 1.366 . S
C374 C376 1.388 . S
C375 C374 1.366 . S
C375 C379 1.385 . S
C376 H357 0.951 . S
C376 C374 1.388 . S
C376 C377 1.366 . S
C377 C376 1.366 . S
C377 C378 1.414 . S
C377 C380 1.499 . S
C378 H358 0.950 . S
C378 C377 1.414 . S
C378 C379 1.374 . S
C379 H359 0.950 . S
C379 C375 1.385 . S
C379 C378 1.374 . S
C380 C377 1.499 . S
C380 C381 1.373 . S
C380 C382 1.389 . S
C381 H360 0.950 . S
C381 C380 1.373 . S
C381 C397 1.377 . S
C382 C380 1.389 . S
C382 C383 1.524 . S
C382 C396 1.377 . S
C383 C382 1.524 . S
C383 C384 1.397 . S
C383 C388 1.363 . S
C384 H361 0.950 . S
C384 C383 1.397 . S
C384 C385 1.334 . S
C385 H362 0.950 . S
C385 C384 1.334 . S
C385 C386 1.287 . S
C386 C385 1.287 . S
C386 C387 1.524 1_545 S
C386 H405 0.913 1_545 S
C387 H363 0.950 . S
C387 C386 1.524 1_565 S
C387 C388 1.415 1_565 S
C388 H364 0.950 . S
C388 C383 1.363 . S
C388 C387 1.415 1_545 S
C389 H365 0.951 . S
C389 C390 1.366 . S
C389 C391 1.388 . S
C390 C389 1.366 . S
C390 C394 1.385 . S
C391 H366 0.951 . S
C391 C389 1.388 . S
C391 C392 1.366 . S
C392 C391 1.366 . S
C392 C393 1.414 . S
C392 C395 1.499 . S
C393 H367 0.950 . S
C393 C392 1.414 . S
C393 C394 1.374 . S
C394 H368 0.950 . S
C394 C390 1.385 . S
C394 C393 1.374 . S
C395 C392 1.499 . S
C395 C396 1.373 . S
C395 C397 1.389 . S
C396 H369 0.950 . S
C396 C382 1.377 . S
C396 C395 1.373 . S
C397 C381 1.377 . S
C397 C395 1.389 . S
C397 C398 1.524 . S
C398 C397 1.524 . S
C398 C399 1.397 . S
C398 C403 1.363 . S
C399 H370 0.950 . S
C399 C398 1.397 . S
C399 C400 1.334 1_554 S
C400 H371 0.950 . S
C400 C399 1.334 1_556 S
C400 C401 1.287 . S
C401 C400 1.287 . S
C401 C402 1.524 1_556 S
C401 H404 0.999 . S
C402 H372 0.950 . S
C402 C401 1.524 1_554 S
C402 C403 1.415 . S
C403 H373 0.950 . S
C403 C398 1.363 . S
C403 C402 1.415 . S
H404 C401 0.999 . S
H405 C386 0.913 1_565 S
H406 C424 0.951 . S
H407 C426 0.951 . S
H408 C428 0.950 . S
H409 C429 0.950 . S
H410 C431 0.950 . S
H411 C434 0.950 . S
H412 C435 0.952 . S
H413 C437 0.950 . S
H414 C438 0.950 . S
H415 C439 0.951 . S
H416 C441 0.951 . S
H417 C443 0.950 . S
H418 C444 0.950 . S
H419 C446 0.950 . S
H420 C449 0.950 . S
H421 C450 0.950 . S
H422 C452 0.950 . S
H423 C453 0.950 . S
C424 H406 0.951 . S
C424 C425 1.366 . S
C424 C426 1.388 . S
C425 C424 1.366 . S
C425 C429 1.385 . S
C426 H407 0.951 . S
C426 C424 1.388 . S
C426 C427 1.366 . S
C427 C426 1.366 . S
C427 C428 1.414 . S
C427 C430 1.499 . S
C428 H408 0.950 . S
C428 C427 1.414 . S
C428 C429 1.374 . S
C429 H409 0.950 . S
C429 C425 1.385 . S
C429 C428 1.374 . S
C430 C427 1.499 . S
C430 C431 1.373 . S
C430 C432 1.389 . S
C431 H410 0.950 . S
C431 C430 1.373 . S
C431 C447 1.377 . S
C432 C430 1.389 . S
C432 C433 1.524 . S
C432 C446 1.377 . S
C433 C432 1.524 . S
C433 C434 1.397 . S
C433 C438 1.363 1_565 S
C434 H411 0.950 . S
C434 C433 1.397 . S
C434 C435 1.339 . S
C435 H412 0.952 . S
C435 C434 1.339 . S
C435 C436 1.280 1_565 S
C436 C435 1.280 1_545 S
C436 C437 1.524 . S
C436 H455 0.913 . S
C437 H413 0.950 . S
C437 C436 1.524 . S
C437 C438 1.415 . S
C438 H414 0.950 . S
C438 C433 1.363 1_545 S
C438 C437 1.415 . S
C439 H415 0.951 . S
C439 C440 1.366 . S
C439 C441 1.388 . S
C440 C439 1.366 . S
C440 C444 1.385 . S
C441 H416 0.951 . S
C441 C439 1.388 . S
C441 C442 1.366 . S
C442 C441 1.366 . S
C442 C443 1.414 . S
C442 C445 1.499 . S
C443 H417 0.950 . S
C443 C442 1.414 . S
C443 C444 1.374 . S
C444 H418 0.950 . S
C444 C440 1.385 . S
C444 C443 1.374 . S
C445 C442 1.499 . S
C445 C446 1.373 . S
C445 C447 1.389 . S
C446 H419 0.950 . S
C446 C432 1.377 . S
C446 C445 1.373 . S
C447 C431 1.377 . S
C447 C445 1.389 . S
C447 C448 1.524 . S
C448 C447 1.524 . S
C448 C449 1.397 . S
C448 C453 1.363 . S
C449 H420 0.950 . S
C449 C448 1.397 . S
C449 C450 1.334 . S
C450 H421 0.950 . S
C450 C449 1.334 . S
C450 C451 1.287 . S
C451 C450 1.287 . S
C451 C452 1.524 . S
C451 H454 0.999 . S
C452 H422 0.950 . S
C452 C451 1.524 . S
C452 C453 1.415 . S
C453 H423 0.950 . S
C453 C448 1.363 . S
C453 C452 1.415 . S
H454 C451 0.999 . S
H455 C436 0.913 . S
H456 C474 0.951 . S
H457 C476 0.951 . S
H458 C478 0.950 . S
H459 C479 0.950 . S
H460 C481 0.950 . S
H461 C484 0.950 . S
H462 C485 0.950 . S
H463 C487 0.939 1_554 S
H464 C488 0.950 1_554 S
H465 C489 0.951 . S
H466 C491 0.951 . S
H467 C493 0.950 1_554 S
H468 C494 0.950 . S
H469 C496 0.950 . S
H470 C499 0.950 . S
H471 C500 0.950 . S
H472 C502 0.950 . S
H473 C503 0.950 . S
C474 H456 0.951 . S
C474 C475 1.366 . S
C474 C476 1.388 . S
C475 C474 1.366 . S
C475 C479 1.385 . S
C476 H457 0.951 . S
C476 C474 1.388 . S
C476 C477 1.366 . S
C477 C476 1.366 . S
C477 C478 1.414 . S
C477 C480 1.499 . S
C478 H458 0.950 . S
C478 C477 1.414 . S
C478 C479 1.374 . S
C479 H459 0.950 . S
C479 C475 1.385 . S
C479 C478 1.374 . S
C480 C477 1.499 . S
C480 C481 1.373 . S
C480 C482 1.389 . S
C481 H460 0.950 . S
C481 C480 1.373 . S
C481 C497 1.377 . S
C482 C480 1.389 . S
C482 C483 1.524 . S
C482 C496 1.377 . S
C483 C482 1.524 . S
C483 C484 1.397 . S
C483 C488 1.363 . S
C484 H461 0.950 . S
C484 C483 1.397 . S
C484 C485 1.334 . S
C485 H462 0.950 . S
C485 C484 1.334 . S
C485 C486 1.287 . S
C486 C485 1.287 . S
C486 C487 1.532 . S
C486 H505 0.913 . S
C487 H463 0.939 1_556 S
C487 C486 1.532 . S
C487 C488 1.419 . S
C488 H464 0.950 1_556 S
C488 C483 1.363 . S
C488 C487 1.419 . S
C489 H465 0.951 . S
C489 C490 1.366 . S
C489 C491 1.388 . S
C490 C489 1.366 . S
C490 C494 1.385 1_556 S
C491 H466 0.951 . S
C491 C489 1.388 . S
C491 C492 1.366 . S
C492 C491 1.366 . S
C492 C493 1.414 . S
C492 C495 1.499 . S
C493 H467 0.950 1_556 S
C493 C492 1.414 . S
C493 C494 1.374 1_556 S
C494 H468 0.950 . S
C494 C490 1.385 1_554 S
C494 C493 1.374 1_554 S
C495 C492 1.499 . S
C495 C496 1.373 . S
C495 C497 1.389 . S
C496 H469 0.950 . S
C496 C482 1.377 . S
C496 C495 1.373 . S
C497 C481 1.377 . S
C497 C495 1.389 . S
C497 C498 1.524 . S
C498 C497 1.524 . S
C498 C499 1.397 . S
C498 C503 1.363 . S
C499 H470 0.950 . S
C499 C498 1.397 . S
C499 C500 1.334 . S
C500 H471 0.950 . S
C500 C499 1.334 . S
C500 C501 1.287 . S
C501 C500 1.287 . S
C501 C502 1.524 . S
C501 H504 0.999 . S
C502 H472 0.950 . S
C502 C501 1.524 . S
C502 C503 1.415 . S
C503 H473 0.950 . S
C503 C498 1.363 . S
C503 C502 1.415 . S
H504 C501 0.999 . S
H505 C486 0.913 . S
H506 C524 0.951 . S
H507 C526 0.951 . S
H508 C528 0.950 . S
H509 C529 0.950 . S
H510 C531 0.950 . S
H511 C534 0.950 . S
H512 C535 0.950 . S
H513 C537 0.950 . S
H514 C538 0.950 . S
H515 C539 0.951 . S
H516 C541 0.951 . S
H517 C543 0.950 . S
H518 C544 0.950 . S
H519 C546 0.950 . S
H520 C549 0.950 . S
H521 C550 0.950 . S
H522 C552 0.950 . S
H523 C553 0.950 . S
C524 H506 0.951 . S
C524 C525 1.366 . S
C524 C526 1.388 . S
C525 C524 1.366 . S
C525 C529 1.385 . S
C526 H507 0.951 . S
C526 C524 1.388 . S
C526 C527 1.366 . S
C527 C526 1.366 . S
C527 C528 1.414 . S
C527 C530 1.499 . S
C528 H508 0.950 . S
C528 C527 1.414 . S
C528 C529 1.374 . S
C529 H509 0.950 . S
C529 C525 1.385 . S
C529 C528 1.374 . S
C530 C527 1.499 . S
C530 C531 1.373 . S
C530 C532 1.389 . S
C531 H510 0.950 . S
C531 C530 1.373 . S
C531 C547 1.377 . S
C532 C530 1.389 . S
C532 C533 1.524 . S
C532 C546 1.377 . S
C533 C532 1.524 . S
C533 C534 1.397 . S
C533 C538 1.363 . S
C534 H511 0.950 . S
C534 C533 1.397 . S
C534 C535 1.334 . S
C535 H512 0.950 . S
C535 C534 1.334 . S
C535 C536 1.287 . S
C536 C535 1.287 . S
C536 C537 1.524 . S
C536 H555 0.913 . S
C537 H513 0.950 . S
C537 C536 1.524 . S
C537 C538 1.415 . S
C538 H514 0.950 . S
C538 C533 1.363 . S
C538 C537 1.415 . S
C539 H515 0.951 . S
C539 C540 1.366 . S
C539 C541 1.388 . S
C540 C539 1.366 . S
C540 C544 1.385 . S
C541 H516 0.951 . S
C541 C539 1.388 . S
C541 C542 1.366 . S
C542 C541 1.366 . S
C542 C543 1.414 . S
C542 C545 1.499 . S
C543 H517 0.950 . S
C543 C542 1.414 . S
C543 C544 1.374 . S
C544 H518 0.950 . S
C544 C540 1.385 . S
C544 C543 1.374 . S
C545 C542 1.499 . S
C545 C546 1.373 . S
C545 C547 1.389 . S
C546 H519 0.950 . S
C546 C532 1.377 . S
C546 C545 1.373 . S
C547 C531 1.377 . S
C547 C545 1.389 . S
C547 C548 1.524 . S
C548 C547 1.524 . S
C548 C549 1.397 . S
C548 C553 1.363 . S
C549 H520 0.950 . S
C549 C548 1.397 . S
C549 C550 1.334 . S
C550 H521 0.950 . S
C550 C549 1.334 . S
C550 C551 1.287 . S
C551 C550 1.287 . S
C551 C552 1.524 . S
C551 H554 0.999 . S
C552 H522 0.950 . S
C552 C551 1.524 . S
C552 C553 1.415 . S
C553 H523 0.950 . S
C553 C548 1.363 . S
C553 C552 1.415 . S
H554 C551 0.999 . S
H555 C536 0.913 . S
H556 C574 0.951 . S
H557 C576 0.951 . S
H558 C578 0.950 . S
H559 C579 0.950 . S
H560 C581 0.950 . S
H561 C584 0.950 . S
H562 C585 0.950 . S
H563 C587 0.950 . S
H564 C588 0.950 . S
H565 C589 0.913 1_655 S
H566 C591 0.951 . S
H567 C593 0.950 . S
H568 C594 0.950 . S
H569 C596 0.950 . S
H570 C599 0.950 . S
H571 C600 0.950 . S
H572 C602 0.950 . S
H573 C603 0.950 . S
C574 H556 0.951 . S
C574 C575 1.366 . S
C574 C576 1.388 . S
C575 C574 1.366 . S
C575 C579 1.385 . S
C576 H557 0.951 . S
C576 C574 1.388 . S
C576 C577 1.366 . S
C577 C576 1.366 . S
C577 C578 1.414 . S
C577 C580 1.499 . S
C578 H558 0.950 . S
C578 C577 1.414 . S
C578 C579 1.374 . S
C579 H559 0.950 . S
C579 C575 1.385 . S
C579 C578 1.374 . S
C580 C577 1.499 . S
C580 C581 1.373 . S
C580 C582 1.389 . S
C581 H560 0.950 . S
C581 C580 1.373 . S
C581 C597 1.377 . S
C582 C580 1.389 . S
C582 C583 1.524 . S
C582 C596 1.377 . S
C583 C582 1.524 . S
C583 C584 1.397 . S
C583 C588 1.363 . S
C584 H561 0.950 . S
C584 C583 1.397 . S
C584 C585 1.334 . S
C585 H562 0.950 . S
C585 C584 1.334 . S
C585 C586 1.287 . S
C586 C585 1.287 . S
C586 C587 1.524 . S
C586 H605 0.913 . S
C587 H563 0.950 . S
C587 C586 1.524 . S
C587 C588 1.415 . S
C588 H564 0.950 . S
C588 C583 1.363 . S
C588 C587 1.415 . S
C589 H565 0.913 1_455 S
C589 C590 1.366 . S
C589 C591 1.388 . S
C590 C589 1.366 . S
C590 C594 1.385 . S
C591 H566 0.951 . S
C591 C589 1.388 . S
C591 C592 1.366 . S
C592 C591 1.366 . S
C592 C593 1.414 . S
C592 C595 1.499 . S
C593 H567 0.950 . S
C593 C592 1.414 . S
C593 C594 1.374 . S
C594 H568 0.950 . S
C594 C590 1.385 . S
C594 C593 1.374 . S
C595 C592 1.499 . S
C595 C596 1.373 . S
C595 C597 1.389 . S
C596 H569 0.950 . S
C596 C582 1.377 . S
C596 C595 1.373 . S
C597 C581 1.377 . S
C597 C595 1.389 . S
C597 C598 1.524 . S
C598 C597 1.524 . S
C598 C599 1.397 1_554 S
C598 C603 1.363 . S
C599 H570 0.950 . S
C599 C598 1.397 1_556 S
C599 C600 1.334 . S
C600 H571 0.950 . S
C600 C599 1.334 . S
C600 C601 1.287 . S
C601 C600 1.287 . S
C601 C602 1.524 . S
C601 H604 0.999 . S
C602 H572 0.950 . S
C602 C601 1.524 . S
C602 C603 1.415 1_556 S
C603 H573 0.950 . S
C603 C598 1.363 . S
C603 C602 1.415 1_554 S
H604 C601 0.999 . S
H605 C586 0.913 . S
H606 C624 0.951 . S
H607 C626 0.951 . S
H608 C628 0.950 . S
H609 C629 0.950 . S
H610 C631 0.950 . S
H611 C634 0.950 . S
H612 C635 0.950 . S
H613 C637 0.950 . S
H614 C638 0.950 . S
H615 C639 0.951 . S
H616 C641 0.951 . S
H617 C643 0.950 . S
H618 C644 0.950 . S
H619 C646 0.950 . S
H620 C649 0.950 . S
H621 C650 0.950 . S
H622 C652 0.950 . S
H623 C653 0.950 . S
C624 H606 0.951 . S
C624 C625 1.366 . S
C624 C626 1.388 . S
C625 C624 1.366 . S
C625 C629 1.385 . S
C626 H607 0.951 . S
C626 C624 1.388 . S
C626 C627 1.366 . S
C627 C626 1.366 . S
C627 C628 1.414 . S
C627 C630 1.499 . S
C628 H608 0.950 . S
C628 C627 1.414 . S
C628 C629 1.374 . S
C629 H609 0.950 . S
C629 C625 1.385 . S
C629 C628 1.374 . S
C630 C627 1.499 . S
C630 C631 1.373 . S
C630 C632 1.389 . S
C631 H610 0.950 . S
C631 C630 1.373 . S
C631 C647 1.377 . S
C632 C630 1.389 . S
C632 C633 1.524 . S
C632 C646 1.377 . S
C633 C632 1.524 . S
C633 C634 1.397 . S
C633 C638 1.363 . S
C634 H611 0.950 . S
C634 C633 1.397 . S
C634 C635 1.334 . S
C635 H612 0.950 . S
C635 C634 1.334 . S
C635 C636 1.287 . S
C636 C635 1.287 . S
C636 C637 1.524 . S
C636 H655 0.913 . S
C637 H613 0.950 . S
C637 C636 1.524 . S
C637 C638 1.415 . S
C638 H614 0.950 . S
C638 C633 1.363 . S
C638 C637 1.415 . S
C639 H615 0.951 . S
C639 C640 1.366 . S
C639 C641 1.388 . S
C640 C639 1.366 . S
C640 C644 1.385 . S
C641 H616 0.951 . S
C641 C639 1.388 . S
C641 C642 1.366 . S
C642 C641 1.366 . S
C642 C643 1.414 . S
C642 C645 1.499 . S
C643 H617 0.950 . S
C643 C642 1.414 . S
C643 C644 1.374 . S
C644 H618 0.950 . S
C644 C640 1.385 . S
C644 C643 1.374 . S
C645 C642 1.499 . S
C645 C646 1.373 . S
C645 C647 1.389 . S
C646 H619 0.950 . S
C646 C632 1.377 . S
C646 C645 1.373 . S
C647 C631 1.377 . S
C647 C645 1.389 . S
C647 C648 1.524 . S
C648 C647 1.524 . S
C648 C649 1.397 . S
C648 C653 1.363 . S
C649 H620 0.950 . S
C649 C648 1.397 . S
C649 C650 1.334 . S
C650 H621 0.950 . S
C650 C649 1.334 . S
C650 C651 1.287 . S
C651 C650 1.287 . S
C651 C652 1.524 . S
C651 H654 0.999 . S
C652 H622 0.950 . S
C652 C651 1.524 . S
C652 C653 1.415 . S
C653 H623 0.950 . S
C653 C648 1.363 . S
C653 C652 1.415 . S
H654 C651 0.999 . S
H655 C636 0.913 . S
H656 C674 0.951 . S
H657 C676 0.951 . S
H658 C678 0.950 . S
H659 C679 0.950 . S
H660 C681 0.950 . S
H661 C684 0.950 . S
H662 C685 0.950 . S
H663 C687 0.950 . S
H664 C688 0.950 . S
H665 C689 0.951 . S
H666 C691 0.951 . S
H667 C693 0.950 . S
H668 C694 0.950 . S
H669 C696 0.950 . S
H670 C699 0.950 . S
H671 C700 0.950 . S
H672 C702 0.950 . S
H673 C703 0.950 . S
C674 H656 0.951 . S
C674 C675 1.366 . S
C674 C676 1.388 . S
C675 C674 1.366 . S
C675 C679 1.385 . S
C676 H657 0.951 . S
C676 C674 1.388 . S
C676 C677 1.366 . S
C677 C676 1.366 . S
C677 C678 1.414 . S
C677 C680 1.499 . S
C678 H658 0.950 . S
C678 C677 1.414 . S
C678 C679 1.374 . S
C679 H659 0.950 . S
C679 C675 1.385 . S
C679 C678 1.374 . S
C680 C677 1.499 . S
C680 C681 1.373 . S
C680 C682 1.389 . S
C681 H660 0.950 . S
C681 C680 1.373 . S
C681 C697 1.377 . S
C682 C680 1.389 . S
C682 C683 1.524 . S
C682 C696 1.377 . S
C683 C682 1.524 . S
C683 C684 1.397 . S
C683 C688 1.363 . S
C684 H661 0.950 . S
C684 C683 1.397 . S
C684 C685 1.334 . S
C685 H662 0.950 . S
C685 C684 1.334 . S
C685 C686 1.287 . S
C686 C685 1.287 . S
C686 C687 1.524 . S
C686 H705 0.913 . S
C687 H663 0.950 . S
C687 C686 1.524 . S
C687 C688 1.415 . S
C688 H664 0.950 . S
C688 C683 1.363 . S
C688 C687 1.415 . S
C689 H665 0.951 . S
C689 C690 1.366 . S
C689 C691 1.388 . S
C690 C689 1.366 . S
C690 C694 1.385 . S
C691 H666 0.951 . S
C691 C689 1.388 . S
C691 C692 1.366 . S
C692 C691 1.366 . S
C692 C693 1.414 . S
C692 C695 1.499 . S
C693 H667 0.950 . S
C693 C692 1.414 . S
C693 C694 1.374 . S
C694 H668 0.950 . S
C694 C690 1.385 . S
C694 C693 1.374 . S
C695 C692 1.499 . S
C695 C696 1.373 . S
C695 C697 1.389 . S
C696 H669 0.950 . S
C696 C682 1.377 . S
C696 C695 1.373 . S
C697 C681 1.377 . S
C697 C695 1.389 . S
C697 C698 1.524 . S
C698 C697 1.524 . S
C698 C699 1.397 1_655 S
C698 C703 1.363 . S
C699 H670 0.950 . S
C699 C698 1.397 1_455 S
C699 C700 1.334 . S
C700 H671 0.950 . S
C700 C699 1.334 . S
C700 C701 1.287 . S
C701 C700 1.287 . S
C701 C702 1.524 1_455 S
C701 H704 0.999 . S
C702 H672 0.950 . S
C702 C701 1.524 1_655 S
C702 C703 1.415 . S
C703 H673 0.950 . S
C703 C698 1.363 . S
C703 C702 1.415 . S
H704 C701 0.999 . S
H705 C686 0.913 . S
H706 C724 0.951 . S
H707 C726 0.951 . S
H708 C728 0.950 . S
H709 C729 0.950 . S
H710 C731 0.950 . S
H711 C734 0.950 . S
H712 C735 0.950 . S
H713 C737 0.950 . S
H714 C738 0.950 . S
H715 C739 0.951 . S
H716 C741 0.951 . S
H717 C743 0.950 . S
H718 C744 0.950 . S
H719 C746 0.950 . S
H720 C749 0.950 . S
H721 C750 0.950 . S
H722 C752 0.950 . S
H723 C753 0.950 . S
C724 H706 0.951 . S
C724 C725 1.366 . S
C724 C726 1.388 . S
C725 C724 1.366 . S
C725 C729 1.385 . S
C726 H707 0.951 . S
C726 C724 1.388 . S
C726 C727 1.366 . S
C727 C726 1.366 . S
C727 C728 1.414 . S
C727 C730 1.499 . S
C728 H708 0.950 . S
C728 C727 1.414 . S
C728 C729 1.374 . S
C729 H709 0.950 . S
C729 C725 1.385 . S
C729 C728 1.374 . S
C730 C727 1.499 . S
C730 C731 1.373 . S
C730 C732 1.389 . S
C731 H710 0.950 . S
C731 C730 1.373 . S
C731 C747 1.377 . S
C732 C730 1.389 . S
C732 C733 1.524 . S
C732 C746 1.377 . S
C733 C732 1.524 . S
C733 C734 1.397 . S
C733 C738 1.363 . S
C734 H711 0.950 . S
C734 C733 1.397 . S
C734 C735 1.334 . S
C735 H712 0.950 . S
C735 C734 1.334 . S
C735 C736 1.287 . S
C736 C735 1.287 . S
C736 C737 1.524 . S
C736 H755 0.913 . S
C737 H713 0.950 . S
C737 C736 1.524 . S
C737 C738 1.415 . S
C738 H714 0.950 . S
C738 C733 1.363 . S
C738 C737 1.415 . S
C739 H715 0.951 . S
C739 C740 1.366 . S
C739 C741 1.388 . S
C740 C739 1.366 . S
C740 C744 1.385 . S
C741 H716 0.951 . S
C741 C739 1.388 . S
C741 C742 1.366 . S
C742 C741 1.366 . S
C742 C743 1.414 . S
C742 C745 1.499 . S
C743 H717 0.950 . S
C743 C742 1.414 . S
C743 C744 1.374 . S
C744 H718 0.950 . S
C744 C740 1.385 . S
C744 C743 1.374 . S
C745 C742 1.499 . S
C745 C746 1.373 . S
C745 C747 1.389 . S
C746 H719 0.950 . S
C746 C732 1.377 . S
C746 C745 1.373 . S
C747 C731 1.377 . S
C747 C745 1.389 . S
C747 C748 1.524 . S
C748 C747 1.524 . S
C748 C749 1.397 . S
C748 C753 1.363 . S
C749 H720 0.950 . S
C749 C748 1.397 . S
C749 C750 1.334 . S
C750 H721 0.950 . S
C750 C749 1.334 . S
C750 C751 1.287 . S
C751 C750 1.287 . S
C751 C752 1.524 . S
C751 H754 0.999 . S
C752 H722 0.950 . S
C752 C751 1.524 . S
C752 C753 1.415 . S
C753 H723 0.950 . S
C753 C748 1.363 . S
C753 C752 1.415 . S
H754 C751 0.999 . S
H755 C736 0.913 . S
H756 C774 0.951 . S
H757 C776 0.951 . S
H758 C778 0.950 . S
H759 C779 0.950 . S
H760 C781 0.950 . S
H761 C784 0.950 . S
H762 C785 0.942 1_455 S
H763 C787 0.950 1_455 S
H764 C788 0.950 . S
H765 C789 0.951 1_545 S
H766 C791 0.951 . S
H767 C793 0.950 . S
H768 C794 0.950 . S
H769 C796 0.950 . S
H770 C799 0.950 . S
H771 C800 0.950 . S
H772 C802 0.950 . S
H773 C803 0.950 . S
C774 H756 0.951 . S
C774 C775 1.366 . S
C774 C776 1.388 . S
C775 C774 1.366 . S
C775 C779 1.385 . S
C776 H757 0.951 . S
C776 C774 1.388 . S
C776 C777 1.366 . S
C777 C776 1.366 . S
C777 C778 1.414 . S
C777 C780 1.499 . S
C778 H758 0.950 . S
C778 C777 1.414 . S
C778 C779 1.374 . S
C779 H759 0.950 . S
C779 C775 1.385 . S
C779 C778 1.374 . S
C780 C777 1.499 . S
C780 C781 1.373 . S
C780 C782 1.389 . S
C781 H760 0.950 . S
C781 C780 1.373 . S
C781 C797 1.377 . S
C782 C780 1.389 . S
C782 C783 1.524 . S
C782 C796 1.377 . S
C783 C782 1.524 . S
C783 C784 1.397 . S
C783 C788 1.363 . S
C784 H761 0.950 . S
C784 C783 1.397 . S
C784 C785 1.353 . S
C785 H762 0.942 1_655 S
C785 C784 1.353 . S
C785 C786 1.276 1_655 S
C786 C785 1.276 1_455 S
C786 C787 1.524 1_455 S
C786 H805 0.913 . S
C787 H763 0.950 1_655 S
C787 C786 1.524 1_655 S
C787 C788 1.415 . S
C788 H764 0.950 . S
C788 C783 1.363 . S
C788 C787 1.415 . S
C789 H765 0.951 1_565 S
C789 C790 1.366 . S
C789 C791 1.388 . S
C790 C789 1.366 . S
C790 C794 1.385 . S
C791 H766 0.951 . S
C791 C789 1.388 . S
C791 C792 1.366 . S
C792 C791 1.366 . S
C792 C793 1.414 . S
C792 C795 1.499 . S
C793 H767 0.950 . S
C793 C792 1.414 . S
C793 C794 1.374 . S
C794 H768 0.950 . S
C794 C790 1.385 . S
C794 C793 1.374 . S
C795 C792 1.499 . S
C795 C796 1.373 . S
C795 C797 1.389 . S
C796 H769 0.950 . S
C796 C782 1.377 . S
C796 C795 1.373 . S
C797 C781 1.377 . S
C797 C795 1.389 . S
C797 C798 1.524 . S
C798 C797 1.524 . S
C798 C799 1.397 . S
C798 C803 1.363 1_565 S
C799 H770 0.950 . S
C799 C798 1.397 . S
C799 C800 1.334 . S
C800 H771 0.950 . S
C800 C799 1.334 . S
C800 C801 1.287 1_565 S
C801 C800 1.287 1_545 S
C801 C802 1.524 . S
C801 H804 0.999 . S
C802 H772 0.950 . S
C802 C801 1.524 . S
C802 C803 1.415 . S
C803 H773 0.950 . S
C803 C798 1.363 1_545 S
C803 C802 1.415 . S
H804 C801 0.999 . S
H805 C786 0.913 . S
H806 C824 0.951 . S
H807 C826 0.951 . S
H808 C828 0.950 . S
H809 C829 0.950 . S
H810 C831 0.950 . S
H811 C834 0.950 . S
H812 C835 0.950 . S
H813 C837 0.950 . S
H814 C838 0.950 . S
H815 C839 0.951 . S
H816 C841 0.951 . S
H817 C843 0.950 . S
H818 C844 0.950 . S
H819 C846 0.950 . S
H820 C849 0.950 . S
H821 C850 0.950 . S
H822 C852 0.950 . S
H823 C853 0.953 . S
C824 H806 0.951 . S
C824 C825 1.366 . S
C824 C826 1.388 . S
C825 C824 1.366 . S
C825 C829 1.385 . S
C826 H807 0.951 . S
C826 C824 1.388 . S
C826 C827 1.366 . S
C827 C826 1.366 . S
C827 C828 1.414 . S
C827 C830 1.499 . S
C828 H808 0.950 . S
C828 C827 1.414 . S
C828 C829 1.374 . S
C829 H809 0.950 . S
C829 C825 1.385 . S
C829 C828 1.374 . S
C830 C827 1.499 . S
C830 C831 1.373 . S
C830 C832 1.389 . S
C831 H810 0.950 . S
C831 C830 1.373 . S
C831 C847 1.377 . S
C832 C830 1.389 . S
C832 C833 1.524 . S
C832 C846 1.377 . S
C833 C832 1.524 . S
C833 C834 1.397 . S
C833 C838 1.363 . S
C834 H811 0.950 . S
C834 C833 1.397 . S
C834 C835 1.334 . S
C835 H812 0.950 . S
C835 C834 1.334 . S
C835 C836 1.287 . S
C836 C835 1.287 . S
C836 C837 1.524 . S
C836 H855 0.913 . S
C837 H813 0.950 . S
C837 C836 1.524 . S
C837 C838 1.415 . S
C838 H814 0.950 . S
C838 C833 1.363 . S
C838 C837 1.415 . S
C839 H815 0.951 . S
C839 C840 1.366 . S
C839 C841 1.388 . S
C840 C839 1.366 . S
C840 C844 1.385 . S
C841 H816 0.951 . S
C841 C839 1.388 . S
C841 C842 1.366 . S
C842 C841 1.366 . S
C842 C843 1.414 . S
C842 C845 1.499 . S
C843 H817 0.950 . S
C843 C842 1.414 . S
C843 C844 1.374 . S
C844 H818 0.950 . S
C844 C840 1.385 . S
C844 C843 1.374 . S
C845 C842 1.499 . S
C845 C846 1.373 . S
C845 C847 1.389 . S
C846 H819 0.950 . S
C846 C832 1.377 . S
C846 C845 1.373 . S
C847 C831 1.377 . S
C847 C845 1.389 . S
C847 C848 1.524 . S
C848 C847 1.524 . S
C848 C849 1.397 . S
C848 C853 1.363 1_545 S
C849 H820 0.950 . S
C849 C848 1.397 . S
C849 C850 1.334 1_545 S
C850 H821 0.950 . S
C850 C849 1.334 1_565 S
C850 C851 1.287 . S
C851 C850 1.287 . S
C851 C852 1.524 . S
C851 H854 0.999 . S
C852 H822 0.950 . S
C852 C851 1.524 . S
C852 C853 1.415 . S
C853 H823 0.953 . S
C853 C848 1.363 1_565 S
C853 C852 1.415 . S
H854 C851 0.999 . S
H855 C836 0.913 . S
H856 C874 0.951 . S
H857 C876 0.951 . S
H858 C878 0.950 . S
H859 C879 0.950 . S
H860 C881 0.950 . S
H861 C884 0.950 . S
H862 C885 0.950 . S
H863 C887 0.950 . S
H864 C888 0.950 . S
H865 C889 0.951 . S
H866 C891 0.951 . S
H867 C893 0.950 . S
H868 C894 0.950 . S
H869 C896 0.950 . S
H870 C899 0.950 . S
H871 C900 0.950 . S
H872 C902 0.950 . S
H873 C903 0.950 . S
C874 H856 0.951 . S
C874 C875 1.366 . S
C874 C876 1.388 . S
C875 C874 1.366 . S
C875 C879 1.385 . S
C876 H857 0.951 . S
C876 C874 1.388 . S
C876 C877 1.366 . S
C877 C876 1.366 . S
C877 C878 1.414 . S
C877 C880 1.499 . S
C878 H858 0.950 . S
C878 C877 1.414 . S
C878 C879 1.374 . S
C879 H859 0.950 . S
C879 C875 1.385 . S
C879 C878 1.374 . S
C880 C877 1.499 . S
C880 C881 1.373 . S
C880 C882 1.389 . S
C881 H860 0.950 . S
C881 C880 1.373 . S
C881 C897 1.377 . S
C882 C880 1.389 . S
C882 C883 1.524 . S
C882 C896 1.377 . S
C883 C882 1.524 . S
C883 C884 1.397 . S
C883 C888 1.363 . S
C884 H861 0.950 . S
C884 C883 1.397 . S
C884 C885 1.334 . S
C885 H862 0.950 . S
C885 C884 1.334 . S
C885 C886 1.287 . S
C886 C885 1.287 . S
C886 C887 1.524 . S
C886 H905 0.913 . S
C887 H863 0.950 . S
C887 C886 1.524 . S
C887 C888 1.415 . S
C888 H864 0.950 . S
C888 C883 1.363 . S
C888 C887 1.415 . S
C889 H865 0.951 . S
C889 C890 1.366 . S
C889 C891 1.388 . S
C890 C889 1.366 . S
C890 C894 1.385 . S
C891 H866 0.951 . S
C891 C889 1.388 . S
C891 C892 1.366 . S
C892 C891 1.366 . S
C892 C893 1.414 . S
C892 C895 1.499 . S
C893 H867 0.950 . S
C893 C892 1.414 . S
C893 C894 1.374 . S
C894 H868 0.950 . S
C894 C890 1.385 . S
C894 C893 1.374 . S
C895 C892 1.499 . S
C895 C896 1.373 . S
C895 C897 1.389 . S
C896 H869 0.950 . S
C896 C882 1.377 . S
C896 C895 1.373 . S
C897 C881 1.377 . S
C897 C895 1.389 . S
C897 C898 1.524 . S
C898 C897 1.524 . S
C898 C899 1.397 . S
C898 C903 1.363 . S
C899 H870 0.950 . S
C899 C898 1.397 . S
C899 C900 1.334 . S
C900 H871 0.950 . S
C900 C899 1.334 . S
C900 C901 1.287 . S
C901 C900 1.287 . S
C901 C902 1.524 . S
C901 H904 0.999 . S
C902 H872 0.950 . S
C902 C901 1.524 . S
C902 C903 1.415 . S
C903 H873 0.950 . S
C903 C898 1.363 . S
C903 C902 1.415 . S
H904 C901 0.999 . S
H905 C886 0.913 . S
H906 C924 0.951 . S
H907 C926 0.951 . S
H908 C928 0.950 . S
H909 C929 0.950 . S
H910 C931 0.950 . S
H911 C934 0.950 . S
H912 C935 0.950 . S
H913 C937 0.950 . S
H914 C938 0.950 . S
H915 C939 0.951 . S
H916 C941 0.951 . S
H917 C943 0.950 . S
H918 C944 0.950 . S
H919 C946 0.950 . S
H920 C949 0.950 . S
H921 C950 0.950 . S
H922 C952 0.950 . S
H923 C953 0.950 . S
C924 H906 0.951 . S
C924 C925 1.366 . S
C924 C926 1.388 . S
C925 C924 1.366 . S
C925 C929 1.385 . S
C926 H907 0.951 . S
C926 C924 1.388 . S
C926 C927 1.366 . S
C927 C926 1.366 . S
C927 C928 1.414 . S
C927 C930 1.499 . S
C928 H908 0.950 . S
C928 C927 1.414 . S
C928 C929 1.374 . S
C929 H909 0.950 . S
C929 C925 1.385 . S
C929 C928 1.374 . S
C930 C927 1.499 . S
C930 C931 1.373 . S
C930 C932 1.389 . S
C931 H910 0.950 . S
C931 C930 1.373 . S
C931 C947 1.377 . S
C932 C930 1.389 . S
C932 C933 1.524 . S
C932 C946 1.377 . S
C933 C932 1.524 . S
C933 C934 1.397 . S
C933 C938 1.363 . S
C934 H911 0.950 . S
C934 C933 1.397 . S
C934 C935 1.334 . S
C935 H912 0.950 . S
C935 C934 1.334 . S
C935 C936 1.287 . S
C936 C935 1.287 . S
C936 C937 1.524 . S
C936 H955 0.913 . S
C937 H913 0.950 . S
C937 C936 1.524 . S
C937 C938 1.415 . S
C938 H914 0.950 . S
C938 C933 1.363 . S
C938 C937 1.415 . S
C939 H915 0.951 . S
C939 C940 1.366 . S
C939 C941 1.388 . S
C940 C939 1.366 . S
C940 C944 1.385 . S
C941 H916 0.951 . S
C941 C939 1.388 . S
C941 C942 1.366 . S
C942 C941 1.366 . S
C942 C943 1.414 . S
C942 C945 1.499 . S
C943 H917 0.950 . S
C943 C942 1.414 . S
C943 C944 1.374 . S
C944 H918 0.950 . S
C944 C940 1.385 . S
C944 C943 1.374 . S
C945 C942 1.499 . S
C945 C946 1.373 . S
C945 C947 1.389 . S
C946 H919 0.950 . S
C946 C932 1.377 . S
C946 C945 1.373 . S
C947 C931 1.377 . S
C947 C945 1.389 . S
C947 C948 1.524 . S
C948 C947 1.524 . S
C948 C949 1.397 . S
C948 C953 1.363 . S
C949 H920 0.950 . S
C949 C948 1.397 . S
C949 C950 1.334 . S
C950 H921 0.950 . S
C950 C949 1.334 . S
C950 C951 1.287 . S
C951 C950 1.287 . S
C951 C952 1.524 . S
C951 H954 0.999 . S
C952 H922 0.950 . S
C952 C951 1.524 . S
C952 C953 1.415 . S
C953 H923 0.950 . S
C953 C948 1.363 . S
C953 C952 1.415 . S
H954 C951 0.999 . S
H955 C936 0.913 . S
H956 C974 0.951 . S
H957 C976 0.951 . S
H958 C978 0.950 . S
H959 C979 0.950 . S
H960 C981 0.950 . S
H961 C984 0.950 . S
H962 C985 0.950 . S
H963 C987 0.950 . S
H964 C988 0.950 . S
H965 C989 0.951 . S
H966 C991 0.951 . S
H967 C993 0.950 . S
H968 C994 0.950 1_545 S
H969 C996 0.950 . S
H970 C999 0.950 . S
H971 C1000 0.950 . S
H972 C1002 0.950 . S
H973 C1003 0.950 . S
C974 H956 0.951 . S
C974 C975 1.366 . S
C974 C976 1.388 . S
C975 C974 1.366 . S
C975 C979 1.385 . S
C976 H957 0.951 . S
C976 C974 1.388 . S
C976 C977 1.366 . S
C977 C976 1.366 . S
C977 C978 1.414 . S
C977 C980 1.499 . S
C978 H958 0.950 . S
C978 C977 1.414 . S
C978 C979 1.374 . S
C979 H959 0.950 . S
C979 C975 1.385 . S
C979 C978 1.374 . S
C980 C977 1.499 . S
C980 C981 1.373 . S
C980 C982 1.389 . S
C981 H960 0.950 . S
C981 C980 1.373 . S
C981 C997 1.377 . S
C982 C980 1.389 . S
C982 C983 1.524 . S
C982 C996 1.377 . S
C983 C982 1.524 . S
C983 C984 1.397 . S
C983 C988 1.363 1_565 S
C984 H961 0.950 . S
C984 C983 1.397 . S
C984 C985 1.334 . S
C985 H962 0.950 . S
C985 C984 1.334 . S
C985 C986 1.287 1_565 S
C986 C985 1.287 1_545 S
C986 C987 1.524 . S
C986 H1005 0.913 . S
C987 H963 0.950 . S
C987 C986 1.524 . S
C987 C988 1.415 . S
C988 H964 0.950 . S
C988 C983 1.363 1_545 S
C988 C987 1.415 . S
C989 H965 0.951 . S
C989 C990 1.366 . S
C989 C991 1.388 . S
C990 C989 1.366 . S
C990 C994 1.385 . S
C991 H966 0.951 . S
C991 C989 1.388 . S
C991 C992 1.366 . S
C992 C991 1.366 . S
C992 C993 1.414 . S
C992 C995 1.499 . S
C993 H967 0.950 . S
C993 C992 1.414 . S
C993 C994 1.374 . S
C994 H968 0.950 1_565 S
C994 C990 1.385 . S
C994 C993 1.374 . S
C995 C992 1.499 . S
C995 C996 1.373 . S
C995 C997 1.389 . S
C996 H969 0.950 . S
C996 C982 1.377 . S
C996 C995 1.373 . S
C997 C981 1.377 . S
C997 C995 1.389 . S
C997 C998 1.524 . S
C998 C997 1.524 . S
C998 C999 1.397 . S
C998 C1003 1.363 . S
C999 H970 0.950 . S
C999 C998 1.397 . S
C999 C1000 1.334 . S
C1000 H971 0.950 . S
C1000 C999 1.334 . S
C1000 C1001 1.287 . S
C1001 C1000 1.287 . S
C1001 C1002 1.524 . S
C1001 H1004 0.999 . S
C1002 H972 0.950 . S
C1002 C1001 1.524 . S
C1002 C1003 1.415 . S
C1003 H973 0.950 . S
C1003 C998 1.363 . S
C1003 C1002 1.415 . S
H1004 C1001 0.999 . S
H1005 C986 0.913 . S
H1006 C1024 0.951 . S
H1007 C1026 0.951 . S
H1008 C1028 0.950 . S
H1009 C1029 0.950 . S
H1010 C1031 0.950 . S
H1011 C1034 0.950 . S
H1012 C1035 0.950 . S
H1013 C1037 0.950 . S
H1014 C1038 0.950 . S
H1015 C1039 0.951 . S
H1016 C1041 0.951 . S
H1017 C1043 0.950 . S
H1018 C1044 0.950 . S
H1019 C1046 0.950 . S
H1020 C1049 0.950 . S
H1021 C1050 0.950 . S
H1022 C1052 0.950 . S
H1023 C1053 0.950 . S
C1024 H1006 0.951 . S
C1024 C1025 1.366 . S
C1024 C1026 1.388 . S
C1025 C1024 1.366 . S
C1025 C1029 1.385 . S
C1026 H1007 0.951 . S
C1026 C1024 1.388 . S
C1026 C1027 1.366 . S
C1027 C1026 1.366 . S
C1027 C1028 1.414 . S
C1027 C1030 1.499 . S
C1028 H1008 0.950 . S
C1028 C1027 1.414 . S
C1028 C1029 1.374 . S
C1029 H1009 0.950 . S
C1029 C1025 1.385 . S
C1029 C1028 1.374 . S
C1030 C1027 1.499 . S
C1030 C1031 1.373 . S
C1030 C1032 1.389 . S
C1031 H1010 0.950 . S
C1031 C1030 1.373 . S
C1031 C1047 1.377 . S
C1032 C1030 1.389 . S
C1032 C1033 1.524 . S
C1032 C1046 1.377 . S
C1033 C1032 1.524 . S
C1033 C1034 1.397 . S
C1033 C1038 1.363 . S
C1034 H1011 0.950 . S
C1034 C1033 1.397 . S
C1034 C1035 1.334 . S
C1035 H1012 0.950 . S
C1035 C1034 1.334 . S
C1035 C1036 1.287 . S
C1036 C1035 1.287 . S
C1036 C1037 1.524 . S
C1036 H1055 0.913 . S
C1037 H1013 0.950 . S
C1037 C1036 1.524 . S
C1037 C1038 1.415 . S
C1038 H1014 0.950 . S
C1038 C1033 1.363 . S
C1038 C1037 1.415 . S
C1039 H1015 0.951 . S
C1039 C1040 1.366 . S
C1039 C1041 1.388 . S
C1040 C1039 1.366 . S
C1040 C1044 1.385 . S
C1041 H1016 0.951 . S
C1041 C1039 1.388 . S
C1041 C1042 1.366 . S
C1042 C1041 1.366 . S
C1042 C1043 1.414 . S
C1042 C1045 1.499 . S
C1043 H1017 0.950 . S
C1043 C1042 1.414 . S
C1043 C1044 1.374 . S
C1044 H1018 0.950 . S
C1044 C1040 1.385 . S
C1044 C1043 1.374 . S
C1045 C1042 1.499 . S
C1045 C1046 1.373 . S
C1045 C1047 1.389 . S
C1046 H1019 0.950 . S
C1046 C1032 1.377 . S
C1046 C1045 1.373 . S
C1047 C1031 1.377 . S
C1047 C1045 1.389 . S
C1047 C1048 1.524 . S
C1048 C1047 1.524 . S
C1048 C1049 1.397 . S
C1048 C1053 1.363 . S
C1049 H1020 0.950 . S
C1049 C1048 1.397 . S
C1049 C1050 1.334 . S
C1050 H1021 0.950 . S
C1050 C1049 1.334 . S
C1050 C1051 1.287 . S
C1051 C1050 1.287 . S
C1051 C1052 1.524 . S
C1051 H1054 0.999 . S
C1052 H1022 0.950 . S
C1052 C1051 1.524 . S
C1052 C1053 1.415 . S
C1053 H1023 0.950 . S
C1053 C1048 1.363 . S
C1053 C1052 1.415 . S
H1054 C1051 0.999 . S
H1055 C1036 0.913 . S
H1056 C1074 0.951 . S
H1057 C1076 0.951 . S
H1058 C1078 0.950 . S
H1059 C1079 0.950 . S
H1060 C1081 0.950 . S
H1061 C1084 0.950 . S
H1062 C1085 0.950 . S
H1063 C1087 0.950 1_556 S
H1064 C1088 0.950 . S
H1065 C1089 0.951 . S
H1066 C1091 0.951 . S
H1067 C1093 0.950 . S
H1068 C1094 0.950 1_556 S
H1069 C1096 0.950 . S
H1070 C1099 0.950 . S
H1071 C1100 0.950 . S
H1072 C1102 0.950 . S
H1073 C1103 0.950 . S
C1074 H1056 0.951 . S
C1074 C1075 1.366 . S
C1074 C1076 1.388 . S
C1075 C1074 1.366 . S
C1075 C1079 1.385 . S
C1076 H1057 0.951 . S
C1076 C1074 1.388 . S
C1076 C1077 1.366 . S
C1077 C1076 1.366 . S
C1077 C1078 1.414 . S
C1077 C1080 1.499 . S
C1078 H1058 0.950 . S
C1078 C1077 1.414 . S
C1078 C1079 1.374 . S
C1079 H1059 0.950 . S
C1079 C1075 1.385 . S
C1079 C1078 1.374 . S
C1080 C1077 1.499 . S
C1080 C1081 1.373 . S
C1080 C1082 1.389 . S
C1081 H1060 0.950 . S
C1081 C1080 1.373 . S
C1081 C1097 1.377 . S
C1082 C1080 1.389 . S
C1082 C1083 1.524 . S
C1082 C1096 1.377 . S
C1083 C1082 1.524 . S
C1083 C1084 1.397 . S
C1083 C1088 1.363 . S
C1084 H1061 0.950 . S
C1084 C1083 1.397 . S
C1084 C1085 1.334 . S
C1085 H1062 0.950 . S
C1085 C1084 1.334 . S
C1085 C1086 1.287 . S
C1086 C1085 1.287 . S
C1086 C1087 1.524 . S
C1086 H1105 0.913 . S
C1087 H1063 0.950 1_554 S
C1087 C1086 1.524 . S
C1087 C1088 1.415 . S
C1088 H1064 0.950 . S
C1088 C1083 1.363 . S
C1088 C1087 1.415 . S
C1089 H1065 0.951 . S
C1089 C1090 1.366 . S
C1089 C1091 1.388 . S
C1090 C1089 1.366 . S
C1090 C1094 1.385 . S
C1091 H1066 0.951 . S
C1091 C1089 1.388 . S
C1091 C1092 1.366 . S
C1092 C1091 1.366 . S
C1092 C1093 1.414 . S
C1092 C1095 1.499 . S
C1093 H1067 0.950 . S
C1093 C1092 1.414 . S
C1093 C1094 1.374 . S
C1094 H1068 0.950 1_554 S
C1094 C1090 1.385 . S
C1094 C1093 1.374 . S
C1095 C1092 1.499 . S
C1095 C1096 1.373 . S
C1095 C1097 1.389 . S
C1096 H1069 0.950 . S
C1096 C1082 1.377 . S
C1096 C1095 1.373 . S
C1097 C1081 1.377 . S
C1097 C1095 1.389 . S
C1097 C1098 1.524 . S
C1098 C1097 1.524 . S
C1098 C1099 1.397 . S
C1098 C1103 1.363 . S
C1099 H1070 0.950 . S
C1099 C1098 1.397 . S
C1099 C1100 1.334 . S
C1100 H1071 0.950 . S
C1100 C1099 1.334 . S
C1100 C1101 1.287 . S
C1101 C1100 1.287 . S
C1101 C1102 1.524 . S
C1101 H1104 0.999 . S
C1102 H1072 0.950 . S
C1102 C1101 1.524 . S
C1102 C1103 1.415 . S
C1103 H1073 0.950 . S
C1103 C1098 1.363 . S
C1103 C1102 1.415 . S
H1104 C1101 0.999 . S
H1105 C1086 0.913 . S
H1106 C1124 0.951 . S
H1107 C1126 0.951 . S
H1108 C1128 0.950 . S
H1109 C1129 0.950 . S
H1110 C1131 0.950 . S
H1111 C1134 0.950 . S
H1112 C1135 0.950 . S
H1113 C1137 0.950 . S
H1114 C1138 0.950 . S
H1115 C1139 0.951 . S
H1116 C1141 0.951 . S
H1117 C1143 0.950 . S
H1118 C1144 0.950 . S
H1119 C1146 0.950 . S
H1120 C1149 0.950 . S
H1121 C1150 0.950 . S
H1122 C1152 0.950 . S
H1123 C1153 0.950 . S
C1124 H1106 0.951 . S
C1124 C1125 1.366 . S
C1124 C1126 1.388 . S
C1125 C1124 1.366 . S
C1125 C1129 1.385 . S
C1126 H1107 0.951 . S
C1126 C1124 1.388 . S
C1126 C1127 1.366 . S
C1127 C1126 1.366 . S
C1127 C1128 1.414 . S
C1127 C1130 1.499 . S
C1128 H1108 0.950 . S
C1128 C1127 1.414 . S
C1128 C1129 1.374 . S
C1129 H1109 0.950 . S
C1129 C1125 1.385 . S
C1129 C1128 1.374 . S
C1130 C1127 1.499 . S
C1130 C1131 1.373 . S
C1130 C1132 1.389 . S
C1131 H1110 0.950 . S
C1131 C1130 1.373 . S
C1131 C1147 1.377 . S
C1132 C1130 1.389 . S
C1132 C1133 1.524 . S
C1132 C1146 1.377 . S
C1133 C1132 1.524 . S
C1133 C1134 1.397 . S
C1133 C1138 1.363 . S
C1134 H1111 0.950 . S
C1134 C1133 1.397 . S
C1134 C1135 1.334 . S
C1135 H1112 0.950 . S
C1135 C1134 1.334 . S
C1135 C1136 1.287 . S
C1136 C1135 1.287 . S
C1136 C1137 1.524 . S
C1136 H1155 0.913 . S
C1137 H1113 0.950 . S
C1137 C1136 1.524 . S
C1137 C1138 1.415 . S
C1138 H1114 0.950 . S
C1138 C1133 1.363 . S
C1138 C1137 1.415 . S
C1139 H1115 0.951 . S
C1139 C1140 1.366 . S
C1139 C1141 1.388 . S
C1140 C1139 1.366 . S
C1140 C1144 1.385 . S
C1141 H1116 0.951 . S
C1141 C1139 1.388 . S
C1141 C1142 1.366 . S
C1142 C1141 1.366 . S
C1142 C1143 1.414 . S
C1142 C1145 1.499 . S
C1143 H1117 0.950 . S
C1143 C1142 1.414 . S
C1143 C1144 1.374 . S
C1144 H1118 0.950 . S
C1144 C1140 1.385 . S
C1144 C1143 1.374 . S
C1145 C1142 1.499 . S
C1145 C1146 1.373 . S
C1145 C1147 1.389 . S
C1146 H1119 0.950 . S
C1146 C1132 1.377 . S
C1146 C1145 1.373 . S
C1147 C1131 1.377 . S
C1147 C1145 1.389 . S
C1147 C1148 1.524 . S
C1148 C1147 1.524 . S
C1148 C1149 1.397 . S
C1148 C1153 1.363 . S
C1149 H1120 0.950 . S
C1149 C1148 1.397 . S
C1149 C1150 1.334 . S
C1150 H1121 0.950 . S
C1150 C1149 1.334 . S
C1150 C1151 1.287 . S
C1151 C1150 1.287 . S
C1151 C1152 1.524 . S
C1151 H1154 0.999 . S
C1152 H1122 0.950 . S
C1152 C1151 1.524 . S
C1152 C1153 1.415 . S
C1153 H1123 0.950 . S
C1153 C1148 1.363 . S
C1153 C1152 1.415 . S
H1154 C1151 0.999 . S
H1155 C1136 0.913 . S
H1156 C1174 0.951 . S
H1157 C1176 0.951 . S
H1158 C1178 0.950 . S
H1159 C1179 0.950 . S
H1160 C1181 0.950 . S
H1161 C1184 0.950 . S
H1162 C1185 0.950 . S
H1163 C1187 0.950 . S
H1164 C1188 0.950 . S
H1165 C1189 0.951 1_554 S
H1166 C1191 0.951 1_554 S
H1167 C1193 0.950 . S
H1168 C1194 0.950 . S
H1169 C1196 0.950 . S
H1170 C1199 0.950 . S
H1171 C1200 0.950 . S
H1172 C1202 0.950 . S
H1173 C1203 0.939 1_554 S
C1174 H1156 0.951 . S
C1174 C1175 1.366 . S
C1174 C1176 1.388 . S
C1175 C1174 1.366 . S
C1175 C1179 1.385 . S
C1176 H1157 0.951 . S
C1176 C1174 1.388 . S
C1176 C1177 1.366 . S
C1177 C1176 1.366 . S
C1177 C1178 1.414 . S
C1177 C1180 1.499 . S
C1178 H1158 0.950 . S
C1178 C1177 1.414 . S
C1178 C1179 1.374 . S
C1179 H1159 0.950 . S
C1179 C1175 1.385 . S
C1179 C1178 1.374 . S
C1180 C1177 1.499 . S
C1180 C1181 1.373 . S
C1180 C1182 1.389 . S
C1181 H1160 0.950 . S
C1181 C1180 1.373 . S
C1181 C1197 1.377 . S
C1182 C1180 1.389 . S
C1182 C1183 1.524 . S
C1182 C1196 1.377 . S
C1183 C1182 1.524 . S
C1183 C1184 1.397 . S
C1183 C1188 1.363 . S
C1184 H1161 0.950 . S
C1184 C1183 1.397 . S
C1184 C1185 1.334 . S
C1185 H1162 0.950 . S
C1185 C1184 1.334 . S
C1185 C1186 1.287 . S
C1186 C1185 1.287 . S
C1186 C1187 1.524 . S
C1186 H1205 0.913 . S
C1187 H1163 0.950 . S
C1187 C1186 1.524 . S
C1187 C1188 1.415 . S
C1188 H1164 0.950 . S
C1188 C1183 1.363 . S
C1188 C1187 1.415 . S
C1189 H1165 0.951 1_556 S
C1189 C1190 1.366 . S
C1189 C1191 1.388 . S
C1190 C1189 1.366 . S
C1190 C1194 1.385 . S
C1191 H1166 0.951 1_556 S
C1191 C1189 1.388 . S
C1191 C1192 1.366 . S
C1192 C1191 1.366 . S
C1192 C1193 1.414 . S
C1192 C1195 1.499 . S
C1193 H1167 0.950 . S
C1193 C1192 1.414 . S
C1193 C1194 1.374 . S
C1194 H1168 0.950 . S
C1194 C1190 1.385 . S
C1194 C1193 1.374 . S
C1195 C1192 1.499 . S
C1195 C1196 1.373 . S
C1195 C1197 1.389 . S
C1196 H1169 0.950 . S
C1196 C1182 1.377 . S
C1196 C1195 1.373 . S
C1197 C1181 1.377 . S
C1197 C1195 1.389 . S
C1197 C1198 1.524 . S
C1198 C1197 1.524 . S
C1198 C1199 1.397 1_655 S
C1198 C1203 1.391 . S
C1199 H1170 0.950 . S
C1199 C1198 1.397 1_455 S
C1199 C1200 1.334 . S
C1200 H1171 0.950 . S
C1200 C1199 1.334 . S
C1200 C1201 1.287 . S
C1201 C1200 1.287 . S
C1201 C1202 1.524 1_556 S
C1201 H1204 0.999 1_556 S
C1202 H1172 0.950 . S
C1202 C1201 1.524 1_554 S
C1202 C1203 1.399 1_454 S
C1203 H1173 0.939 1_556 S
C1203 C1198 1.391 . S
C1203 C1202 1.399 1_656 S
H1204 C1201 0.999 1_554 S
H1205 C1186 0.913 . S
H1206 C1224 0.951 . S
H1207 C1226 0.951 . S
H1208 C1228 0.950 . S
H1209 C1229 0.950 . S
H1210 C1231 0.950 . S
H1211 C1234 0.950 . S
H1212 C1235 0.950 . S
H1213 C1237 0.950 . S
H1214 C1238 0.950 . S
H1215 C1239 0.951 . S
H1216 C1241 0.951 . S
H1217 C1243 0.950 . S
H1218 C1244 0.950 . S
H1219 C1246 0.950 . S
H1220 C1249 0.950 . S
H1221 C1250 0.950 . S
H1222 C1252 0.950 . S
H1223 C1253 0.950 . S
C1224 H1206 0.951 . S
C1224 C1225 1.366 . S
C1224 C1226 1.388 . S
C1225 C1224 1.366 . S
C1225 C1229 1.385 . S
C1226 H1207 0.951 . S
C1226 C1224 1.388 . S
C1226 C1227 1.366 . S
C1227 C1226 1.366 . S
C1227 C1228 1.414 . S
C1227 C1230 1.499 . S
C1228 H1208 0.950 . S
C1228 C1227 1.414 . S
C1228 C1229 1.374 . S
C1229 H1209 0.950 . S
C1229 C1225 1.385 . S
C1229 C1228 1.374 . S
C1230 C1227 1.499 . S
C1230 C1231 1.373 . S
C1230 C1232 1.389 . S
C1231 H1210 0.950 . S
C1231 C1230 1.373 . S
C1231 C1247 1.377 . S
C1232 C1230 1.389 . S
C1232 C1233 1.524 . S
C1232 C1246 1.377 . S
C1233 C1232 1.524 . S
C1233 C1234 1.397 . S
C1233 C1238 1.363 . S
C1234 H1211 0.950 . S
C1234 C1233 1.397 . S
C1234 C1235 1.334 . S
C1235 H1212 0.950 . S
C1235 C1234 1.334 . S
C1235 C1236 1.287 . S
C1236 C1235 1.287 . S
C1236 C1237 1.524 . S
C1236 H1255 0.913 . S
C1237 H1213 0.950 . S
C1237 C1236 1.524 . S
C1237 C1238 1.415 . S
C1238 H1214 0.950 . S
C1238 C1233 1.363 . S
C1238 C1237 1.415 . S
C1239 H1215 0.951 . S
C1239 C1240 1.366 . S
C1239 C1241 1.388 . S
C1240 C1239 1.366 . S
C1240 C1244 1.385 . S
C1241 H1216 0.951 . S
C1241 C1239 1.388 . S
C1241 C1242 1.366 . S
C1242 C1241 1.366 . S
C1242 C1243 1.414 . S
C1242 C1245 1.499 . S
C1243 H1217 0.950 . S
C1243 C1242 1.414 . S
C1243 C1244 1.374 . S
C1244 H1218 0.950 . S
C1244 C1240 1.385 . S
C1244 C1243 1.374 . S
C1245 C1242 1.499 . S
C1245 C1246 1.373 . S
C1245 C1247 1.389 . S
C1246 H1219 0.950 . S
C1246 C1232 1.377 . S
C1246 C1245 1.373 . S
C1247 C1231 1.377 . S
C1247 C1245 1.389 . S
C1247 C1248 1.524 . S
C1248 C1247 1.524 . S
C1248 C1249 1.397 . S
C1248 C1253 1.363 . S
C1249 H1220 0.950 . S
C1249 C1248 1.397 . S
C1249 C1250 1.334 . S
C1250 H1221 0.950 . S
C1250 C1249 1.334 . S
C1250 C1251 1.287 1_554 S
C1251 C1250 1.287 1_556 S
C1251 C1252 1.524 . S
C1251 H1254 0.999 . S
C1252 H1222 0.950 . S
C1252 C1251 1.524 . S
C1252 C1253 1.415 1_556 S
C1253 H1223 0.950 . S
C1253 C1248 1.363 . S
C1253 C1252 1.415 1_554 S
H1254 C1251 0.999 . S
H1255 C1236 0.913 . S
H1256 C1274 0.951 . S
H1257 C1276 0.951 . S
H1258 C1278 0.950 . S
H1259 C1279 0.950 . S
H1260 C1281 0.950 . S
H1261 C1284 0.950 . S
H1262 C1285 0.950 . S
H1263 C1287 0.950 . S
H1264 C1288 0.950 . S
H1265 C1289 0.951 . S
H1266 C1291 0.951 . S
H1267 C1293 0.950 . S
H1268 C1294 0.950 . S
H1269 C1296 0.950 . S
H1270 C1299 0.950 . S
H1271 C1300 0.950 . S
H1272 C1302 0.950 . S
H1273 C1303 0.950 . S
C1274 H1256 0.951 . S
C1274 C1275 1.366 . S
C1274 C1276 1.388 . S
C1275 C1274 1.366 . S
C1275 C1279 1.385 . S
C1276 H1257 0.951 . S
C1276 C1274 1.388 . S
C1276 C1277 1.366 . S
C1277 C1276 1.366 . S
C1277 C1278 1.414 . S
C1277 C1280 1.499 . S
C1278 H1258 0.950 . S
C1278 C1277 1.414 . S
C1278 C1279 1.374 . S
C1279 H1259 0.950 . S
C1279 C1275 1.385 . S
C1279 C1278 1.374 . S
C1280 C1277 1.499 . S
C1280 C1281 1.373 . S
C1280 C1282 1.389 . S
C1281 H1260 0.950 . S
C1281 C1280 1.373 . S
C1281 C1297 1.377 . S
C1282 C1280 1.389 . S
C1282 C1283 1.524 . S
C1282 C1296 1.377 . S
C1283 C1282 1.524 . S
C1283 C1284 1.397 . S
C1283 C1288 1.363 . S
C1284 H1261 0.950 . S
C1284 C1283 1.397 . S
C1284 C1285 1.334 . S
C1285 H1262 0.950 . S
C1285 C1284 1.334 . S
C1285 C1286 1.287 . S
C1286 C1285 1.287 . S
C1286 C1287 1.524 . S
C1286 H1305 0.913 . S
C1287 H1263 0.950 . S
C1287 C1286 1.524 . S
C1287 C1288 1.415 . S
C1288 H1264 0.950 . S
C1288 C1283 1.363 . S
C1288 C1287 1.415 . S
C1289 H1265 0.951 . S
C1289 C1290 1.366 . S
C1289 C1291 1.388 . S
C1290 C1289 1.366 . S
C1290 C1294 1.385 . S
C1291 H1266 0.951 . S
C1291 C1289 1.388 . S
C1291 C1292 1.366 . S
C1292 C1291 1.366 . S
C1292 C1293 1.414 . S
C1292 C1295 1.499 . S
C1293 H1267 0.950 . S
C1293 C1292 1.414 . S
C1293 C1294 1.374 . S
C1294 H1268 0.950 . S
C1294 C1290 1.385 . S
C1294 C1293 1.374 . S
C1295 C1292 1.499 . S
C1295 C1296 1.373 . S
C1295 C1297 1.389 . S
C1296 H1269 0.950 . S
C1296 C1282 1.377 . S
C1296 C1295 1.373 . S
C1297 C1281 1.377 . S
C1297 C1295 1.389 . S
C1297 C1298 1.524 . S
C1298 C1297 1.524 . S
C1298 C1299 1.397 1_455 S
C1298 C1303 1.363 . S
C1299 H1270 0.950 . S
C1299 C1298 1.397 1_655 S
C1299 C1300 1.334 . S
C1300 H1271 0.950 . S
C1300 C1299 1.334 . S
C1300 C1301 1.287 . S
C1301 C1300 1.287 . S
C1301 C1302 1.524 . S
C1301 H1304 0.999 . S
C1302 H1272 0.950 . S
C1302 C1301 1.524 . S
C1302 C1303 1.415 1_655 S
C1303 H1273 0.950 . S
C1303 C1298 1.363 . S
C1303 C1302 1.415 1_455 S
H1304 C1301 0.999 . S
H1305 C1286 0.913 . S
H1306 C1324 0.951 . S
H1307 C1326 0.951 . S
H1308 C1328 0.950 . S
H1309 C1329 0.950 . S
H1310 C1331 0.950 . S
H1311 C1334 0.950 . S
H1312 C1335 0.950 . S
H1313 C1337 0.950 . S
H1314 C1338 0.950 . S
H1315 C1339 0.951 . S
H1316 C1341 0.951 . S
H1317 C1343 0.950 . S
H1318 C1344 0.950 . S
H1319 C1346 0.950 . S
H1320 C1349 0.950 . S
H1321 C1350 0.950 . S
H1322 C1352 0.950 . S
H1323 C1353 0.950 . S
C1324 H1306 0.951 . S
C1324 C1325 1.366 . S
C1324 C1326 1.388 . S
C1325 C1324 1.366 . S
C1325 C1329 1.385 . S
C1326 H1307 0.951 . S
C1326 C1324 1.388 . S
C1326 C1327 1.366 . S
C1327 C1326 1.366 . S
C1327 C1328 1.414 . S
C1327 C1330 1.499 . S
C1328 H1308 0.950 . S
C1328 C1327 1.414 . S
C1328 C1329 1.374 . S
C1329 H1309 0.950 . S
C1329 C1325 1.385 . S
C1329 C1328 1.374 . S
C1330 C1327 1.499 . S
C1330 C1331 1.373 . S
C1330 C1332 1.389 . S
C1331 H1310 0.950 . S
C1331 C1330 1.373 . S
C1331 C1347 1.377 . S
C1332 C1330 1.389 . S
C1332 C1333 1.524 . S
C1332 C1346 1.377 . S
C1333 C1332 1.524 . S
C1333 C1334 1.397 . S
C1333 C1338 1.363 . S
C1334 H1311 0.950 . S
C1334 C1333 1.397 . S
C1334 C1335 1.334 . S
C1335 H1312 0.950 . S
C1335 C1334 1.334 . S
C1335 C1336 1.287 . S
C1336 C1335 1.287 . S
C1336 C1337 1.524 . S
C1336 H1355 0.913 . S
C1337 H1313 0.950 . S
C1337 C1336 1.524 . S
C1337 C1338 1.415 . S
C1338 H1314 0.950 . S
C1338 C1333 1.363 . S
C1338 C1337 1.415 . S
C1339 H1315 0.951 . S
C1339 C1340 1.366 . S
C1339 C1341 1.388 . S
C1340 C1339 1.366 . S
C1340 C1344 1.385 . S
C1341 H1316 0.951 . S
C1341 C1339 1.388 . S
C1341 C1342 1.366 . S
C1342 C1341 1.366 . S
C1342 C1343 1.414 . S
C1342 C1345 1.499 . S
C1343 H1317 0.950 . S
C1343 C1342 1.414 . S
C1343 C1344 1.374 . S
C1344 H1318 0.950 . S
C1344 C1340 1.385 . S
C1344 C1343 1.374 . S
C1345 C1342 1.499 . S
C1345 C1346 1.373 . S
C1345 C1347 1.389 . S
C1346 H1319 0.950 . S
C1346 C1332 1.377 . S
C1346 C1345 1.373 . S
C1347 C1331 1.377 . S
C1347 C1345 1.389 . S
C1347 C1348 1.524 . S
C1348 C1347 1.524 . S
C1348 C1349 1.397 . S
C1348 C1353 1.363 . S
C1349 H1320 0.950 . S
C1349 C1348 1.397 . S
C1349 C1350 1.334 . S
C1350 H1321 0.950 . S
C1350 C1349 1.334 . S
C1350 C1351 1.287 . S
C1351 C1350 1.287 . S
C1351 C1352 1.524 . S
C1351 H1354 0.999 . S
C1352 H1322 0.950 . S
C1352 C1351 1.524 . S
C1352 C1353 1.415 . S
C1353 H1323 0.950 . S
C1353 C1348 1.363 . S
C1353 C1352 1.415 . S
H1354 C1351 0.999 . S
H1355 C1336 0.913 . S
C175 C5 1.606 . S
C190 C88 1.568 . S
C225 C14 1.466 . S
C240 C110 1.398 . S
C290 C129 1.196 . S
C275 C25 1.412 . S
C325 C34 1.729 . S
C340 C150 1.445 . S
C390 C107 1.724 . S
C375 C7 1.781 . S
C440 C85 1.625 . S
C425 C13 1.679 . S
C490 C152 1.259 . S
C475 C23 1.328 . S
C540 C131 1.346 . S
C525 C31 1.403 . S
C575 C4 1.730 . S
C590 C149 1.666 . S
C640 C108 1.306 . S
C625 C22 1.568 . S
C675 C32 1.604 . S
C690 C90 1.401 . S
C725 C16 1.464 . S
C740 C128 1.428 . S
C790 C86 1.550 . S
C775 C41 1.605 . S
C825 C50 1.304 . S
C840 C106 1.257 . S
C875 C61 1.478 . S
C890 C132 1.264 . S
C925 C67 1.650 . S
C940 C153 1.370 . S
C975 C40 1.733 . S
C990 C109 1.688 . S
C1040 C89 1.670 . S
C1025 C52 1.740 . S
C1090 C148 1.187 . S
C1075 C59 1.239 . S
C1140 C127 1.437 . S
C1125 C70 1.492 . S
C1175 C43 1.536 . S
C1190 C151 1.487 . S
C1240 C111 1.261 . S
C1225 C58 1.489 . S
C1290 C87 1.233 . S
C1275 C68 1.418 . S
C1325 C49 1.411 . S
C1340 C130 1.373 . S
