# Generated by pormake.
# Topology wbl, (4,4)-cn, num edge types: 1
# Building blocks:
#     Node 0, Type 0, BuildingBlock: MIFKUJ_clean_linker_1, # of connection points: 4
#     Node 1, Type 0, BuildingBlock: MIFKUJ_clean_linker_1, # of connection points: 4
#     Node 2, Type 0, BuildingBlock: MIFKUJ_clean_linker_1, # of connection points: 4
#     Node 3, Type 0, BuildingBlock: MIFKUJ_clean_linker_1, # of connection points: 4
#     Node 4, Type 0, BuildingBlock: MIFKUJ_clean_linker_1, # of connection points: 4
#     Node 5, Type 0, BuildingBlock: MIFKUJ_clean_linker_1, # of connection points: 4
#     Node 6, Type 0, BuildingBlock: MIFKUJ_clean_linker_1, # of connection points: 4
#     Node 7, Type 0, BuildingBlock: MIFKUJ_clean_linker_1, # of connection points: 4
#     Node 8, Type 1, BuildingBlock: QUQFOY_clean_sbu_1, # of connection points: 4
#     Node 9, Type 1, BuildingBlock: QUQFOY_clean_sbu_1, # of connection points: 4
#     Node 10, Type 1, BuildingBlock: QUQFOY_clean_sbu_1, # of connection points: 4
#     Node 11, Type 1, BuildingBlock: QUQFOY_clean_sbu_1, # of connection points: 4
#     Node 12, Type 1, BuildingBlock: QUQFOY_clean_sbu_1, # of connection points: 4
#     Node 13, Type 1, BuildingBlock: QUQFOY_clean_sbu_1, # of connection points: 4
#     Node 14, Type 1, BuildingBlock: QUQFOY_clean_sbu_1, # of connection points: 4
#     Node 15, Type 1, BuildingBlock: QUQFOY_clean_sbu_1, # of connection points: 4
#     Edge 16, Type (0, 1), BuildingBlock: MIFKUJ_clean_linker_0, # of connection points: 2
#     Edge 17, Type (0, 1), BuildingBlock: MIFKUJ_clean_linker_0, # of connection points: 2
#     Edge 18, Type (0, 1), BuildingBlock: MIFKUJ_clean_linker_0, # of connection points: 2
#     Edge 19, Type (0, 1), BuildingBlock: MIFKUJ_clean_linker_0, # of connection points: 2
#     Edge 20, Type (0, 1), BuildingBlock: MIFKUJ_clean_linker_0, # of connection points: 2
#     Edge 21, Type (0, 1), BuildingBlock: MIFKUJ_clean_linker_0, # of connection points: 2
#     Edge 22, Type (0, 1), BuildingBlock: MIFKUJ_clean_linker_0, # of connection points: 2
#     Edge 23, Type (0, 1), BuildingBlock: MIFKUJ_clean_linker_0, # of connection points: 2
#     Edge 24, Type (0, 1), BuildingBlock: MIFKUJ_clean_linker_0, # of connection points: 2
#     Edge 25, Type (0, 1), BuildingBlock: MIFKUJ_clean_linker_0, # of connection points: 2
#     Edge 26, Type (0, 1), BuildingBlock: MIFKUJ_clean_linker_0, # of connection points: 2
#     Edge 27, Type (0, 1), BuildingBlock: MIFKUJ_clean_linker_0, # of connection points: 2
#     Edge 28, Type (0, 1), BuildingBlock: MIFKUJ_clean_linker_0, # of connection points: 2
#     Edge 29, Type (0, 1), BuildingBlock: MIFKUJ_clean_linker_0, # of connection points: 2
#     Edge 30, Type (0, 1), BuildingBlock: MIFKUJ_clean_linker_0, # of connection points: 2
#     Edge 31, Type (0, 1), BuildingBlock: MIFKUJ_clean_linker_0, # of connection points: 2
#     Edge 32, Type (0, 1), BuildingBlock: MIFKUJ_clean_linker_0, # of connection points: 2
#     Edge 33, Type (0, 1), BuildingBlock: MIFKUJ_clean_linker_0, # of connection points: 2
#     Edge 34, Type (0, 1), BuildingBlock: MIFKUJ_clean_linker_0, # of connection points: 2
#     Edge 35, Type (0, 1), BuildingBlock: MIFKUJ_clean_linker_0, # of connection points: 2
#     Edge 36, Type (0, 1), BuildingBlock: MIFKUJ_clean_linker_0, # of connection points: 2
#     Edge 37, Type (0, 1), BuildingBlock: MIFKUJ_clean_linker_0, # of connection points: 2
#     Edge 38, Type (0, 1), BuildingBlock: MIFKUJ_clean_linker_0, # of connection points: 2
#     Edge 39, Type (0, 1), BuildingBlock: MIFKUJ_clean_linker_0, # of connection points: 2
#     Edge 40, Type (0, 1), BuildingBlock: MIFKUJ_clean_linker_0, # of connection points: 2
#     Edge 41, Type (0, 1), BuildingBlock: MIFKUJ_clean_linker_0, # of connection points: 2
#     Edge 42, Type (0, 1), BuildingBlock: MIFKUJ_clean_linker_0, # of connection points: 2
#     Edge 43, Type (0, 1), BuildingBlock: MIFKUJ_clean_linker_0, # of connection points: 2
#     Edge 44, Type (0, 1), BuildingBlock: MIFKUJ_clean_linker_0, # of connection points: 2
#     Edge 45, Type (0, 1), BuildingBlock: MIFKUJ_clean_linker_0, # of connection points: 2
#     Edge 46, Type (0, 1), BuildingBlock: MIFKUJ_clean_linker_0, # of connection points: 2
#     Edge 47, Type (0, 1), BuildingBlock: MIFKUJ_clean_linker_0, # of connection points: 2
# Relax obj value: 0.175
# Max RMSD: 0.212
# Mean RMSD: 0.160
data_MOF--net-wbl--node1-QUQFOY_clean_sbu_1--node2-MIFKUJ_clean_linker_1--edge1-MIFKUJ_clean_linker_0
_symmetry_space_group_name_H-M    P1
_symmetry_Int_Tables_number       1
_symmetry_cell_setting            triclinic
loop_
_symmetry_equiv_pos_as_xyz
'x, y, z'
_cell_length_a     56.983123
_cell_length_b     56.975602
_cell_length_c     95.351438
_cell_angle_alpha  93.353339
_cell_angle_beta   93.327391
_cell_angle_gamma 90.326083
loop_
_atom_site_label
_atom_site_type_symbol
_atom_site_fract_x
_atom_site_fract_y
_atom_site_fract_z
_atom_type_partial_charge
H0 H 0.14839 0.12828 0.37987 0.0
H1 H 0.12331 0.15288 0.39456 0.0
H2 H 0.0638 0.10793 0.38132 0.0
H3 H 0.0891 0.08311 0.36694 0.0
H4 H 0.15766 0.08033 0.38169 0.0
H5 H 0.12016 0.13123 0.34779 0.0
H6 H 0.08425 0.1477 0.33721 0.0
H7 H 0.06153 0.07796 0.32165 0.0
H8 H 0.0969 0.06155 0.33279 0.0
H9 H 0.15272 0.02006 0.33093 0.0
H10 H 0.1785 0.99425 0.31755 0.0
H11 H 0.23809 0.03822 0.33228 0.0
H12 H 0.21228 0.06331 0.34604 0.0
H13 H 0.143 0.06668 0.33006 0.0
H14 H 0.17457 0.01434 0.36176 0.0
H15 H 0.20005 0.99135 0.37695 0.0
H16 H 0.22678 0.05551 0.39881 0.0
H17 H 0.20251 0.07843 0.38288 0.0
C18 C 0.12057 0.10399 0.37224 0.0
C19 C 0.12993 0.12376 0.38015 0.0
C20 C 0.11555 0.1379 0.38843 0.0
C21 C 0.09156 0.1324 0.38907 0.0
C22 C 0.08225 0.11253 0.38114 0.0
C23 C 0.09663 0.09843 0.37284 0.0
C24 C 0.13598 0.08898 0.36356 0.0
C25 C 0.15489 0.07775 0.37035 0.0
C26 C 0.13142 0.08468 0.34889 0.0
C27 C 0.11101 0.09513 0.34127 0.0
C28 C 0.10742 0.11951 0.3421 0.0
C29 C 0.08699 0.12892 0.33594 0.0
C30 C 0.06992 0.11411 0.32871 0.0
C31 C 0.0741 0.0898 0.32739 0.0
C32 C 0.09443 0.08041 0.33362 0.0
C33 C 0.18065 0.04343 0.33957 0.0
C34 C 0.17134 0.02413 0.3312 0.0
C35 C 0.18611 0.00948 0.3235 0.0
C36 C 0.21044 0.01406 0.32386 0.0
C37 C 0.21955 0.03383 0.33198 0.0
C38 C 0.20482 0.04829 0.3398 0.0
C39 C 0.16515 0.05842 0.34815 0.0
C40 C 0.14619 0.0696 0.34135 0.0
C41 C 0.16924 0.06207 0.3629 0.0
C42 C 0.18673 0.0482 0.37105 0.0
C43 C 0.18654 0.02353 0.36947 0.0
C44 C 0.20089 0.01034 0.37835 0.0
C45 C 0.21536 0.0215 0.38924 0.0
C46 C 0.21616 0.04624 0.39045 0.0
C47 C 0.20205 0.05942 0.38143 0.0
H48 H 0.03322 0.59361 0.57284 0.0
H49 H 0.01624 0.56045 0.55833 0.0
H50 H 0.94694 0.58981 0.56232 0.0
H51 H 0.96414 0.62268 0.57719 0.0
H52 H 0.03379 0.64137 0.57186 0.0
H53 H 0.00452 0.58315 0.60034 0.0
H54 H 0.97762 0.55668 0.61081 0.0
H55 H 0.93596 0.61611 0.62426 0.0
H56 H 0.9624 0.64243 0.61317 0.0
H57 H 0.01444 0.69525 0.62416 0.0
H58 H 0.03551 0.71853 0.64339 0.0
H59 H 0.1004 0.68491 0.63275 0.0
H60 H 0.07929 0.66146 0.61375 0.0
H61 H 0.00863 0.64906 0.62086 0.0
H62 H 0.04344 0.70754 0.5944 0.0
H63 H 0.07626 0.73162 0.58801 0.0
H64 H 0.11111 0.66908 0.57227 0.0
H65 H 0.07867 0.64499 0.5793 0.0
C66 C -9e-05 0.61043 0.57622 0.0
C67 C 0.01442 0.59311 0.57037 0.0
C68 C 0.00465 0.57419 0.56201 0.0
C69 C 0.98017 0.57234 0.55922 0.0
C70 C 0.96581 0.59045 0.56447 0.0
C71 C 0.9756 0.60931 0.57292 0.0
C72 C 0.01015 0.6286 0.58656 0.0
C73 C 0.02831 0.64308 0.58258 0.0
C74 C 0.00275 0.63101 0.60048 0.0
C75 C 0.98533 0.61477 0.60582 0.0
C76 C 0.98925 0.59044 0.60521 0.0
C77 C 0.974 0.57534 0.61135 0.0
C78 C 0.9547 0.58428 0.61845 0.0
C79 C 0.95047 0.6086 0.61873 0.0
C80 C 0.96568 0.62369 0.6125 0.0
C81 C 0.04531 0.67683 0.61738 0.0
C82 C 0.03322 0.69298 0.62594 0.0
C83 C 0.04525 0.70624 0.63691 0.0
C84 C 0.06961 0.70362 0.63951 0.0
C85 C 0.08171 0.68762 0.63084 0.0
C86 C 0.06965 0.67422 0.61997 0.0
C87 C 0.03236 0.66182 0.60621 0.0
C88 C 0.0137 0.64785 0.61005 0.0
C89 C 0.03952 0.65968 0.59222 0.0
C90 C 0.0587 0.67444 0.58746 0.0
C91 C 0.0582 0.69901 0.58962 0.0
C92 C 0.07689 0.71277 0.58584 0.0
C93 C 0.09637 0.70227 0.57965 0.0
C94 C 0.09657 0.67769 0.57721 0.0
C95 C 0.0779 0.66392 0.58107 0.0
H96 H 0.50896 0.57119 0.8767 0.0
H97 H 0.48502 0.58994 0.89446 0.0
H98 H 0.42228 0.57328 0.86807 0.0
H99 H 0.4464 0.55409 0.85028 0.0
H100 H 0.51021 0.52731 0.86716 0.0
H101 H 0.49405 0.60157 0.84698 0.0
H102 H 0.46659 0.63197 0.83969 0.0
H103 H 0.43325 0.58242 0.80858 0.0
H104 H 0.46043 0.55191 0.81621 0.0
H105 H 0.52456 0.49234 0.81282 0.0
H106 H 0.55712 0.4778 0.79914 0.0
H107 H 0.60195 0.5331 0.81919 0.0
H108 H 0.56975 0.54636 0.83334 0.0
H109 H 0.5102 0.54965 0.81765 0.0
H110 H 0.53376 0.47584 0.8384 0.0
H111 H 0.5603 0.44778 0.8494 0.0
H112 H 0.58194 0.50141 0.88161 0.0
H113 H 0.55657 0.52952 0.8701 0.0
C114 C 0.47951 0.56122 0.86215 0.0
C115 C 0.49004 0.57145 0.87473 0.0
C116 C 0.47635 0.58214 0.88488 0.0
C117 C 0.45178 0.58292 0.88268 0.0
C118 C 0.44119 0.57305 0.86998 0.0
C119 C 0.45495 0.5621 0.85984 0.0
C120 C 0.49451 0.54938 0.8517 0.0
C121 C 0.51019 0.53222 0.85633 0.0
C122 C 0.49427 0.55552 0.83752 0.0
C123 C 0.47901 0.57442 0.83226 0.0
C124 C 0.48085 0.5973 0.83856 0.0
C125 C 0.46528 0.61469 0.83431 0.0
C126 C 0.44766 0.60955 0.82362 0.0
C127 C 0.44641 0.58682 0.81699 0.0
C128 C 0.46202 0.56943 0.82125 0.0
C129 C 0.54496 0.52018 0.82415 0.0
C130 C 0.54146 0.50125 0.81418 0.0
C131 C 0.56007 0.4931 0.80632 0.0
C132 C 0.58235 0.5041 0.80812 0.0
C133 C 0.58532 0.52374 0.81775 0.0
C134 C 0.56688 0.53153 0.82577 0.0
C135 C 0.52612 0.52796 0.83327 0.0
C136 C 0.50983 0.54443 0.82839 0.0
C137 C 0.5262 0.52164 0.84737 0.0
C138 C 0.5434 0.50488 0.85331 0.0
C139 C 0.54476 0.4817 0.84759 0.0
C140 C 0.55969 0.46557 0.85402 0.0
C141 C 0.57334 0.47227 0.86641 0.0
C142 C 0.57213 0.49565 0.87195 0.0
C143 C 0.55741 0.51175 0.86545 0.0
H144 H 0.58379 0.98094 0.06923 0.0
H145 H 0.55261 0.95269 0.0617 0.0
H146 H 0.50293 0.99536 0.08424 0.0
H147 H 0.53456 0.02312 0.09212 0.0
H148 H 0.58873 0.03029 0.06646 0.0
H149 H 0.57808 0.97446 0.10239 0.0
H150 H 0.55754 0.95462 0.1203 0.0
H151 H 0.54857 0.02137 0.14308 0.0
H152 H 0.5682 0.0413 0.12493 0.0
H153 H 0.61915 0.09707 0.09699 0.0
H154 H 0.6474 0.12428 0.10989 0.0
H155 H 0.68786 0.06523 0.12383 0.0
H156 H 0.6596 0.03821 0.11098 0.0
H157 H 0.61119 0.03845 0.11759 0.0
H158 H 0.59366 0.07907 0.06517 0.0
H159 H 0.61448 0.10404 0.04994 0.0
H160 H 0.67968 0.06976 0.0616 0.0
H161 H 0.65873 0.04534 0.07712 0.0
C162 C 0.56147 0.00394 0.08131 0.0
C163 C 0.5661 0.98431 0.07238 0.0
C164 C 0.5482 0.96824 0.06804 0.0
C165 C 0.52522 0.97167 0.0724 0.0
C166 C 0.52049 0.99194 0.0809 0.0
C167 C 0.53848 0.00791 0.08533 0.0
C168 C 0.58103 0.01946 0.08702 0.0
C169 C 0.59362 0.03207 0.07764 0.0
C170 C 0.58734 0.0218 0.10162 0.0
C171 C 0.57447 0.00945 0.11219 0.0
C172 C 0.57125 0.98491 0.11106 0.0
C173 C 0.5596 0.97357 0.12131 0.0
C174 C 0.55151 0.98651 0.13304 0.0
C175 C 0.55477 0.011 0.13417 0.0
C176 C 0.56601 0.02236 0.12382 0.0
C177 C 0.63736 0.06568 0.10307 0.0
C178 C 0.63441 0.09006 0.10257 0.0
C179 C 0.65046 0.10554 0.10996 0.0
C180 C 0.66979 0.09684 0.11783 0.0
C181 C 0.6733 0.07243 0.1177 0.0
C182 C 0.65712 0.05698 0.11046 0.0
C183 C 0.61869 0.0493 0.09708 0.0
C184 C 0.60625 0.03657 0.10641 0.0
C185 C 0.6123 0.04709 0.08253 0.0
C186 C 0.62471 0.06056 0.07236 0.0
C187 C 0.6124 0.07679 0.0643 0.0
C188 C 0.62433 0.09096 0.05554 0.0
C189 C 0.64881 0.08901 0.05457 0.0
C190 C 0.66092 0.07204 0.06228 0.0
C191 C 0.64898 0.058 0.07111 0.0
H192 H 0.01041 0.67337 0.9343 0.0
H193 H 0.03633 0.6992 0.92249 0.0
H194 H 0.09545 0.65543 0.93358 0.0
H195 H 0.06928 0.62941 0.94518 0.0
H196 H 0.00404 0.62588 0.92589 0.0
H197 H 0.03604 0.67241 0.96685 0.0
H198 H 0.06914 0.68741 0.98212 0.0
H199 H 0.08416 0.61673 0.99414 0.0
H200 H 0.05264 0.6017 0.97779 0.0
H201 H 0.00424 0.55945 0.96955 0.0
H202 H 0.97885 0.5285 0.97715 0.0
H203 H 0.91807 0.56359 0.95926 0.0
H204 H 0.94345 0.59498 0.95228 0.0
H205 H 0.00892 0.60437 0.9756 0.0
H206 H 0.9889 0.55615 0.93504 0.0
H207 H 0.96619 0.53421 0.91615 0.0
H208 H 0.93702 0.59925 0.90202 0.0
H209 H 0.95869 0.62093 0.92154 0.0
C210 C 0.03794 0.64955 0.94066 0.0
C211 C 0.02901 0.66954 0.93435 0.0
C212 C 0.04387 0.68437 0.92769 0.0
C213 C 0.06793 0.67934 0.9271 0.0
C214 C 0.07696 0.65966 0.93378 0.0
C215 C 0.06208 0.64488 0.94049 0.0
C216 C 0.02163 0.63262 0.94632 0.0
C217 C 0.00476 0.62152 0.93684 0.0
C218 C 0.02356 0.62607 0.96045 0.0
C219 C 0.04216 0.63582 0.97081 0.0
C220 C 0.0467 0.6601 0.9726 0.0
C221 C 0.06545 0.66872 0.98159 0.0
C222 C 0.07966 0.6533 0.98932 0.0
C223 C 0.07415 0.62913 0.98809 0.0
C224 C 0.05582 0.6205 0.97885 0.0
C225 C 0.97576 0.57945 0.96026 0.0
C226 C 0.98541 0.56061 0.96743 0.0
C227 C 0.9709 0.54279 0.97162 0.0
C228 C 0.94644 0.54347 0.96873 0.0
C229 C 0.9368 0.56261 0.96177 0.0
C230 C 0.95131 0.58048 0.95766 0.0
C231 C 0.99136 0.59765 0.95516 0.0
C232 C 0.008 0.609 0.96471 0.0
C233 C 0.99008 0.60364 0.94094 0.0
C234 C 0.97527 0.5902 0.92986 0.0
C235 C 0.97716 0.56565 0.92811 0.0
C236 C 0.96439 0.55313 0.91715 0.0
C237 C 0.94982 0.56493 0.90749 0.0
C238 C 0.94775 0.58951 0.90937 0.0
C239 C 0.96033 0.60199 0.92045 0.0
H240 H 0.58012 0.55551 0.20891 0.0
H241 H 0.56328 0.58975 0.22094 0.0
H242 H 0.49915 0.55019 0.22507 0.0
H243 H 0.51576 0.51666 0.21202 0.0
H244 H 0.58051 0.50214 0.21795 0.0
H245 H 0.55984 0.55625 0.1821 0.0
H246 H 0.53484 0.58341 0.16924 0.0
H247 H 0.48192 0.52888 0.1613 0.0
H248 H 0.50692 0.50189 0.17451 0.0
H249 H 0.5562 0.44275 0.16684 0.0
H250 H 0.57452 0.41735 0.14908 0.0
H251 H 0.64243 0.44758 0.16251 0.0
H252 H 0.62406 0.47288 0.1802 0.0
H253 H 0.55503 0.48943 0.16739 0.0
H254 H 0.58195 0.4331 0.20044 0.0
H255 H 0.61035 0.40759 0.21221 0.0
H256 H 0.65418 0.46807 0.225 0.0
H257 H 0.62583 0.49348 0.21312 0.0
C258 C 0.54908 0.53376 0.20958 0.0
C259 C 0.56251 0.55427 0.21255 0.0
C260 C 0.55285 0.57377 0.21954 0.0
C261 C 0.52973 0.57291 0.22402 0.0
C262 C 0.51676 0.55179 0.22153 0.0
C263 C 0.52628 0.53249 0.21422 0.0
C264 C 0.55841 0.51422 0.20083 0.0
C265 C 0.57505 0.49928 0.20688 0.0
C266 C 0.55094 0.5105 0.18652 0.0
C267 C 0.5351 0.52716 0.17938 0.0
C268 C 0.54266 0.55029 0.17783 0.0
C269 C 0.52846 0.56571 0.17037 0.0
C270 C 0.50644 0.55826 0.16423 0.0
C271 C 0.49868 0.5352 0.16604 0.0
C272 C 0.51298 0.51973 0.17349 0.0
C273 C 0.58876 0.4596 0.17492 0.0
C274 C 0.57508 0.44365 0.16608 0.0
C275 C 0.58555 0.42922 0.15591 0.0
C276 C 0.60991 0.43053 0.15436 0.0
C277 C 0.62368 0.4459 0.16357 0.0
C278 C 0.61319 0.46037 0.17371 0.0
C279 C 0.57732 0.477 0.18443 0.0
C280 C 0.56022 0.49174 0.17852 0.0
C281 C 0.58461 0.48065 0.19885 0.0
C282 C 0.60186 0.46515 0.20585 0.0
C283 C 0.59773 0.44083 0.20572 0.0
C284 C 0.61385 0.42632 0.21254 0.0
C285 C 0.63444 0.43588 0.21953 0.0
C286 C 0.63855 0.46022 0.2196 0.0
C287 C 0.62233 0.47475 0.2129 0.0
H288 H 0.59894 0.98484 0.43441 0.0
H289 H 0.5704 0.95872 0.42101 0.0
H290 H 0.51497 0.00754 0.43034 0.0
H291 H 0.5436 0.03344 0.44405 0.0
H292 H 0.60407 0.03385 0.42636 0.0
H293 H 0.58455 0.98785 0.46441 0.0
H294 H 0.55817 0.97052 0.48012 0.0
H295 H 0.54271 0.03991 0.49796 0.0
H296 H 0.56742 0.0572 0.48123 0.0
H297 H 0.6181 0.10245 0.47367 0.0
H298 H 0.64832 0.13072 0.4832 0.0
H299 H 0.70141 0.08875 0.46329 0.0
H300 H 0.67136 0.06023 0.45432 0.0
H301 H 0.61122 0.05661 0.47746 0.0
H302 H 0.62278 0.10272 0.43782 0.0
H303 H 0.64343 0.12207 0.41986 0.0
H304 H 0.67314 0.05534 0.40645 0.0
H305 H 0.65184 0.0361 0.42416 0.0
C306 C 0.57329 0.01096 0.44022 0.0
C307 C 0.58055 0.98963 0.43383 0.0
C308 C 0.56425 0.97471 0.42626 0.0
C309 C 0.54054 0.98117 0.42469 0.0
C310 C 0.53317 0.00222 0.43144 0.0
C311 C 0.54943 0.01694 0.43926 0.0
C312 C 0.59104 0.02796 0.44662 0.0
C313 C 0.60584 0.0386 0.43757 0.0
C314 C 0.59267 0.03467 0.46118 0.0
C315 C 0.5775 0.02391 0.47129 0.0
C316 C 0.57506 0.9994 0.47146 0.0
C317 C 0.56029 0.98945 0.48073 0.0
C318 C 0.54811 0.00375 0.49037 0.0
C319 C 0.5513 0.02829 0.49051 0.0
C320 C 0.56569 0.03824 0.48103 0.0
C321 C 0.64246 0.07938 0.46317 0.0
C322 C 0.63629 0.0993 0.47147 0.0
C323 C 0.65353 0.11553 0.4768 0.0
C324 C 0.67726 0.11201 0.47398 0.0
C325 C 0.68336 0.09186 0.46581 0.0
C326 C 0.66616 0.07566 0.46053 0.0
C327 C 0.62421 0.06245 0.45718 0.0
C328 C 0.60935 0.05185 0.46626 0.0
C329 C 0.62212 0.05602 0.44262 0.0
C330 C 0.6358 0.06798 0.43231 0.0
C331 C 0.63391 0.09233 0.43107 0.0
C332 C 0.64582 0.10338 0.42083 0.0
C333 C 0.65989 0.09027 0.41163 0.0
C334 C 0.66211 0.06593 0.41315 0.0
C335 C 0.65005 0.05489 0.42331 0.0
H336 H 0.09336 0.19386 0.72427 0.0
H337 H 0.06234 0.22109 0.73068 0.0
H338 H 0.01212 0.16342 0.72711 0.0
H339 H 0.04312 0.13677 0.71973 0.0
H340 H 0.0997 0.13477 0.73519 0.0
H341 H 0.09011 0.19327 0.69757 0.0
H342 H 0.06732 0.21483 0.67999 0.0
H343 H 0.03451 0.14978 0.66332 0.0
H344 H 0.05684 0.12843 0.68113 0.0
H345 H 0.10662 0.07992 0.6839 0.0
H346 H 0.13256 0.05554 0.66985 0.0
H347 H 0.19303 0.08795 0.69289 0.0
H348 H 0.16676 0.11198 0.70721 0.0
H349 H 0.10698 0.12796 0.6835 0.0
H350 H 0.10862 0.06999 0.71745 0.0
H351 H 0.12668 0.04129 0.73273 0.0
H352 H 0.16867 0.09654 0.7549 0.0
H353 H 0.1503 0.12537 0.73956 0.0
C354 C 0.07038 0.16347 0.72144 0.0
C355 C 0.07568 0.18715 0.72503 0.0
C356 C 0.05789 0.20264 0.72879 0.0
C357 C 0.03454 0.19457 0.72932 0.0
C358 C 0.0297 0.17043 0.72648 0.0
C359 C 0.04743 0.15508 0.72245 0.0
C360 C 0.08812 0.14797 0.71525 0.0
C361 C 0.10177 0.13364 0.72394 0.0
C362 C 0.08992 0.14578 0.70054 0.0
C363 C 0.07491 0.1593 0.69076 0.0
C364 C 0.07748 0.18378 0.69041 0.0
C365 C 0.06454 0.19605 0.68034 0.0
C366 C 0.04923 0.18393 0.6703 0.0
C367 C 0.04632 0.15951 0.67089 0.0
C368 C 0.05903 0.14732 0.68104 0.0
C369 C 0.13478 0.09784 0.69652 0.0
C370 C 0.12545 0.0815 0.68608 0.0
C371 C 0.14032 0.0677 0.67799 0.0
C372 C 0.16488 0.07016 0.68005 0.0
C373 C 0.17421 0.08561 0.69106 0.0
C374 C 0.15924 0.09936 0.69924 0.0
C375 C 0.11897 0.1149 0.7034 0.0
C376 C 0.1055 0.12947 0.69481 0.0
C377 C 0.11694 0.11682 0.71812 0.0
C378 C 0.12828 0.09972 0.72734 0.0
C379 C 0.12174 0.07592 0.72559 0.0
C380 C 0.13191 0.0596 0.73438 0.0
C381 C 0.14896 0.06676 0.74503 0.0
C382 C 0.1556 0.09061 0.74675 0.0
C383 C 0.14513 0.10703 0.73804 0.0
O384 O 0.35711 0.71715 0.00691 0.0
Cd385 Cd 0.34766 0.73341 0.02563 0.0
Cd386 Cd 0.38643 0.71115 0.03659 0.0
O387 O 0.38459 0.69515 0.01657 0.0
O388 O 0.3144 0.7429 0.02269 0.0
O389 O 0.326 0.71533 0.037 0.0
C390 C 0.30917 0.72726 0.03127 0.0
C391 C 0.39699 0.68795 0.05536 0.0
C392 C 0.37219 0.7009 0.00581 0.0
C393 C 0.38663 0.76429 0.03816 0.0
O394 O 0.3982 0.74549 0.03953 0.0
O395 O 0.36535 0.7634 0.03342 0.0
O396 O 0.41195 0.69394 0.04658 0.0
O397 O 0.37552 0.69466 0.05331 0.0
O398 O 0.42937 0.84619 0.29802 0.0
Cd399 Cd 0.4147 0.83688 0.27819 0.0
Cd400 Cd 0.4542 0.85361 0.26968 0.0
O401 O 0.45533 0.8697 0.28972 0.0
O402 O 0.38007 0.83718 0.27944 0.0
O403 O 0.39968 0.86305 0.26798 0.0
C404 C 0.38002 0.85593 0.27246 0.0
C405 C 0.46318 0.87579 0.25086 0.0
C406 C 0.44492 0.86227 0.30005 0.0
C407 C 0.44581 0.80156 0.26581 0.0
O408 O 0.46109 0.81802 0.26707 0.0
O409 O 0.42458 0.80581 0.26835 0.0
O410 O 0.47925 0.86953 0.25992 0.0
O411 O 0.44169 0.86984 0.25262 0.0
O412 O 0.30048 0.90274 0.51952 0.0
Cd413 Cd 0.31228 0.89173 0.53888 0.0
Cd414 Cd 0.28161 0.92205 0.54864 0.0
O415 O 0.28497 0.93472 0.52903 0.0
O416 O 0.3456 0.88257 0.5376 0.0
O417 O 0.3341 0.91437 0.54987 0.0
C418 C 0.35096 0.90175 0.54502 0.0
C419 C 0.27545 0.9491 0.56747 0.0
C420 C 0.29129 0.92281 0.51822 0.0
C421 C 0.27179 0.87015 0.5504 0.0
O422 O 0.26358 0.8908 0.55 0.0
O423 O 0.29306 0.86636 0.54776 0.0
O424 O 0.25984 0.94499 0.55732 0.0
O425 O 0.29528 0.93837 0.56676 0.0
O426 O 0.21726 0.79878 0.76671 0.0
Cd427 Cd 0.2351 0.81116 0.78515 0.0
Cd428 Cd 0.20822 0.77878 0.79663 0.0
O429 O 0.19059 0.77894 0.77712 0.0
O430 O 0.24678 0.84311 0.78182 0.0
O431 O 0.21905 0.83637 0.79651 0.0
C432 C 0.23162 0.85121 0.79036 0.0
C433 C 0.18614 0.77351 0.81617 0.0
C434 C 0.19824 0.7869 0.76606 0.0
C435 C 0.261 0.77155 0.79693 0.0
O436 O 0.24068 0.76295 0.79822 0.0
O437 O 0.26321 0.79217 0.79277 0.0
O438 O 0.18924 0.75674 0.80684 0.0
O439 O 0.19494 0.7939 0.81419 0.0
O440 O 0.9268 0.28385 0.54334 0.0
Cd441 Cd 0.90978 0.29502 0.52524 0.0
Cd442 Cd 0.93277 0.25585 0.51335 0.0
O443 O 0.9483 0.25616 0.53341 0.0
O444 O 0.89864 0.32688 0.53098 0.0
O445 O 0.92516 0.32058 0.51517 0.0
C446 C 0.91298 0.33526 0.52255 0.0
C447 C 0.95617 0.24451 0.49476 0.0
C448 C 0.94261 0.26829 0.54428 0.0
C449 C 0.87936 0.25616 0.51193 0.0
O450 O 0.89826 0.24488 0.51026 0.0
O451 O 0.87998 0.27723 0.51708 0.0
O452 O 0.94904 0.22969 0.50329 0.0
O453 O 0.95045 0.26626 0.49693 0.0
O454 O 0.84936 0.42749 0.77748 0.0
Cd455 Cd 0.83484 0.411 0.75909 0.0
Cd456 Cd 0.86666 0.43643 0.74733 0.0
O457 O 0.86767 0.4547 0.76665 0.0
O458 O 0.8025 0.4012 0.76295 0.0
O459 O 0.81024 0.42929 0.74867 0.0
C460 C 0.795 0.41745 0.75498 0.0
C461 C 0.86963 0.45754 0.72721 0.0
C462 C 0.86095 0.44667 0.77793 0.0
C463 C 0.87279 0.38379 0.7468 0.0
O464 O 0.88232 0.40384 0.74601 0.0
O465 O 0.85184 0.38223 0.75053 0.0
O466 O 0.88737 0.45485 0.73594 0.0
O467 O 0.84964 0.44882 0.73011 0.0
O468 O 0.73573 0.34382 0.02723 0.0
Cd469 Cd 0.75018 0.33234 0.00871 0.0
Cd470 Cd 0.72089 0.36393 0.99789 0.0
O471 O 0.70609 0.36221 0.01702 0.0
O472 O 0.76259 0.3007 0.01222 0.0
O473 O 0.73242 0.3068 0.99717 0.0
C474 C 0.74589 0.29221 0.00365 0.0
C475 C 0.6963 0.36814 0.97775 0.0
C476 C 0.71628 0.35448 0.028 0.0
C477 C 0.77327 0.37318 0.99807 0.0
O478 O 0.7526 0.38139 0.9973 0.0
O479 O 0.77663 0.3521 0.00127 0.0
O480 O 0.69977 0.38499 0.98724 0.0
O481 O 0.70612 0.3482 0.97992 0.0
O482 O 0.7999 0.21059 0.24573 0.0
Cd483 Cd 0.80989 0.22718 0.26489 0.0
Cd484 Cd 0.79182 0.18897 0.27537 0.0
O485 O 0.77852 0.18364 0.2548 0.0
O486 O 0.81083 0.26121 0.26172 0.0
O487 O 0.78465 0.24487 0.27456 0.0
C488 C 0.7923 0.26327 0.26886 0.0
C489 C 0.76765 0.18077 0.29347 0.0
C490 C 0.78532 0.19359 0.24414 0.0
C491 C 0.84417 0.19756 0.27982 0.0
O492 O 0.82706 0.18321 0.28007 0.0
O493 O 0.84096 0.21763 0.27494 0.0
O494 O 0.77589 0.1643 0.28538 0.0
O495 O 0.7726 0.20226 0.29107 0.0
H496 H 0.25474 0.00056 0.33242 0.0
H497 H 0.28085 0.97404 0.32002 0.0
H498 H 0.22794 0.96282 0.28599 0.0
H499 H 0.2022 0.99065 0.29794 0.0
H500 H 0.27709 0.92996 0.31363 0.0
H501 H 0.25451 0.94798 0.25533 0.0
H502 H 0.24072 0.98054 0.24109 0.0
H503 H 0.27011 0.03072 0.27274 0.0
H504 H 0.28433 0.99847 0.28708 0.0
H505 H 0.33489 0.84264 0.27629 0.0
H506 H 0.30187 0.86875 0.28055 0.0
H507 H 0.34429 0.92836 0.2715 0.0
H508 H 0.37713 0.90225 0.26677 0.0
H509 H 0.29878 0.9361 0.2643 0.0
H510 H 0.3442 0.91068 0.30473 0.0
H511 H 0.36232 0.88139 0.31995 0.0
H512 H 0.29418 0.85243 0.32605 0.0
H513 H 0.27569 0.88137 0.31069 0.0
C514 C 0.24878 0.99291 0.32216 0.0
C515 C 0.22637 0.99792 0.31616 0.0
C516 C 0.26366 0.97748 0.31514 0.0
C517 C 0.25645 0.9665 0.30203 0.0
C518 C 0.23406 0.97133 0.29601 0.0
C519 C 0.21923 0.98703 0.30295 0.0
C520 C 0.27226 0.94948 0.29499 0.0
C521 C 0.28169 0.9313 0.30281 0.0
C522 C 0.27849 0.95127 0.28092 0.0
C523 C 0.27022 0.9708 0.27234 0.0
C524 C 0.25808 0.96596 0.25922 0.0
C525 C 0.25018 0.98436 0.25114 0.0
C526 C 0.25446 0.00768 0.25603 0.0
C527 C 0.26672 0.01265 0.26899 0.0
C528 C 0.27467 0.99432 0.27711 0.0
C529 C 0.33695 0.86122 0.27478 0.0
C530 C 0.3587 0.87048 0.27145 0.0
C531 C 0.31808 0.87612 0.27724 0.0
C532 C 0.32086 0.90055 0.27672 0.0
C533 C 0.34181 0.90957 0.27204 0.0
C534 C 0.3606 0.89462 0.26936 0.0
C535 C 0.30352 0.91676 0.28298 0.0
C536 C 0.29384 0.93468 0.27504 0.0
C537 C 0.29757 0.91527 0.29711 0.0
C538 C 0.3086 0.898 0.30645 0.0
C539 C 0.33311 0.89797 0.30925 0.0
C540 C 0.34344 0.88144 0.3179 0.0
C541 C 0.32942 0.86502 0.32393 0.0
C542 C 0.30502 0.86513 0.32135 0.0
C543 C 0.2946 0.88159 0.31268 0.0
H544 H 0.33744 0.85224 0.33062 0.0
H545 H 0.24832 0.0219 0.24976 0.0
H546 H 0.09465 0.74498 0.56796 0.0
H547 H 0.12751 0.76971 0.56246 0.0
H548 H 0.17634 0.7173 0.57665 0.0
H549 H 0.14347 0.69287 0.58284 0.0
H550 H 0.19084 0.75958 0.58638 0.0
H551 H 0.16589 0.72517 0.54141 0.0
H552 H 0.13804 0.71265 0.5216 0.0
H553 H 0.11981 0.78462 0.51585 0.0
H554 H 0.14731 0.79757 0.53576 0.0
H555 H 0.2837 0.82507 0.5566 0.0
H556 H 0.25685 0.79283 0.5611 0.0
H557 H 0.19767 0.8388 0.55526 0.0
H558 H 0.22413 0.87097 0.55093 0.0
H559 H 0.19273 0.79472 0.54005 0.0
H560 H 0.21524 0.82762 0.58714 0.0
H561 H 0.24373 0.83926 0.6068 0.0
H562 H 0.26799 0.76812 0.60782 0.0
H563 H 0.23983 0.75613 0.58802 0.0
C564 C 0.11236 0.73876 0.57002 0.0
C565 C 0.11641 0.71693 0.57584 0.0
C566 C 0.13115 0.75279 0.56671 0.0
C567 C 0.15439 0.74518 0.56893 0.0
C568 C 0.15854 0.72344 0.57476 0.0
C569 C 0.13973 0.70942 0.57817 0.0
C570 C 0.17425 0.76037 0.5655 0.0
C571 C 0.19152 0.76687 0.57615 0.0
C572 C 0.17509 0.77 0.55218 0.0
C573 C 0.15857 0.76232 0.54015 0.0
C574 C 0.15582 0.73832 0.53599 0.0
C575 C 0.14011 0.73115 0.52473 0.0
C576 C 0.12713 0.74782 0.51748 0.0
C577 C 0.12987 0.77172 0.52147 0.0
C578 C 0.14555 0.77899 0.53273 0.0
C579 C 0.26497 0.82828 0.55631 0.0
C580 C 0.25604 0.85058 0.55343 0.0
C581 C 0.2497 0.80989 0.5589 0.0
C582 C 0.22533 0.81351 0.55849 0.0
C583 C 0.21643 0.83568 0.55557 0.0
C584 C 0.23162 0.85407 0.55317 0.0
C585 C 0.20879 0.79433 0.56103 0.0
C586 C 0.19221 0.78707 0.55019 0.0
C587 C 0.20875 0.78384 0.57409 0.0
C588 C 0.22566 0.79105 0.58598 0.0
C589 C 0.22681 0.81451 0.59146 0.0
C590 C 0.24286 0.82116 0.60266 0.0
C591 C 0.25772 0.80446 0.60853 0.0
C592 C 0.25651 0.78105 0.60324 0.0
C593 C 0.2405 0.77432 0.59204 0.0
H594 H 0.27013 0.80963 0.6172 0.0
H595 H 0.11498 0.74223 0.50877 0.0
H596 H 0.45517 0.65634 0.82003 0.0
H597 H 0.42567 0.68613 0.81474 0.0
H598 H 0.37098 0.63324 0.81348 0.0
H599 H 0.40029 0.60345 0.81877 0.0
H600 H 0.36444 0.66108 0.7921 0.0
H601 H 0.38135 0.67147 0.84214 0.0
H602 H 0.40671 0.67843 0.86385 0.0
H603 H 0.42836 0.74515 0.85 0.0
H604 H 0.40335 0.73843 0.8281 0.0
H605 H 0.26183 0.72528 0.80274 0.0
H606 H 0.29605 0.70046 0.80638 0.0
H607 H 0.3419 0.75946 0.80134 0.0
H608 H 0.30757 0.78465 0.7976 0.0
H609 H 0.35562 0.73159 0.82441 0.0
H610 H 0.33515 0.7217 0.77497 0.0
H611 H 0.30835 0.71417 0.75393 0.0
H612 H 0.29211 0.64563 0.76739 0.0
H613 H 0.31855 0.65288 0.78863 0.0
C614 C 0.43684 0.6511 0.81866 0.0
C615 C 0.43005 0.62754 0.81982 0.0
C616 C 0.42002 0.66812 0.81563 0.0
C617 C 0.3961 0.66194 0.81385 0.0
C618 C 0.38935 0.63838 0.81477 0.0
C619 C 0.40613 0.62136 0.81775 0.0
C620 C 0.37796 0.67993 0.81114 0.0
C621 C 0.36243 0.6764 0.79923 0.0
C622 C 0.3757 0.70024 0.82025 0.0
C623 C 0.39071 0.70432 0.83341 0.0
C624 C 0.39168 0.68754 0.84367 0.0
C625 C 0.40596 0.69145 0.85602 0.0
C626 C 0.4192 0.71219 0.85828 0.0
C627 C 0.41813 0.72908 0.84822 0.0
C628 C 0.4039 0.72523 0.83584 0.0
C629 C 0.27915 0.7331 0.80245 0.0
C630 C 0.28195 0.75695 0.7998 0.0
C631 C 0.29869 0.71884 0.80449 0.0
C632 C 0.32145 0.72809 0.80396 0.0
C633 C 0.32443 0.75202 0.80173 0.0
C634 C 0.30482 0.76633 0.79956 0.0
C635 C 0.34194 0.71244 0.80554 0.0
C636 C 0.35788 0.71641 0.81721 0.0
C637 C 0.34449 0.69242 0.79628 0.0
C638 C 0.32871 0.68791 0.78345 0.0
C639 C 0.32573 0.70509 0.7735 0.0
C640 C 0.31063 0.70086 0.76153 0.0
C641 C 0.2985 0.67946 0.75934 0.0
C642 C 0.3015 0.66221 0.7691 0.0
C643 C 0.31657 0.66636 0.78111 0.0
H644 H 0.28681 0.67622 0.75006 0.0
H645 H 0.43024 0.71519 0.86785 0.0
H646 H 0.51763 0.94527 0.04753 0.0
H647 H 0.48984 0.91281 0.04239 0.0
H648 H 0.46221 0.92518 0.08334 0.0
H649 H 0.49099 0.95667 0.08892 0.0
H650 H 0.46909 0.88111 0.07908 0.0
H651 H 0.43063 0.93869 0.0521 0.0
H652 H 0.42683 0.96944 0.03498 0.0
H653 H 0.44535 0.91975 0.00193 0.0
H654 H 0.44958 0.88877 0.01888 0.0
H655 H 0.36659 0.80793 0.03874 0.0
H656 H 0.38582 0.84578 0.04543 0.0
H657 H 0.45185 0.81055 0.0527 0.0
H658 H 0.43277 0.77272 0.04636 0.0
H659 H 0.42 0.86894 0.03452 0.0
H660 H 0.48382 0.83773 0.07942 0.0
H661 H 0.48451 0.80861 0.09759 0.0
H662 H 0.4091 0.80911 0.09693 0.0
H663 H 0.40797 0.83847 0.07891 0.0
C664 C 0.5057 0.94107 0.05547 0.0
C665 C 0.50666 0.95356 0.06867 0.0
C666 C 0.48956 0.92269 0.05244 0.0
C667 C 0.47371 0.91669 0.06242 0.0
C668 C 0.47421 0.92952 0.07545 0.0
C669 C 0.49054 0.94772 0.07857 0.0
C670 C 0.45775 0.89607 0.05959 0.0
C671 C 0.45825 0.87856 0.06937 0.0
C672 C 0.4432 0.89288 0.04706 0.0
C673 C 0.44057 0.91144 0.0368 0.0
C674 C 0.43404 0.93435 0.0412 0.0
C675 C 0.43179 0.95182 0.03152 0.0
C676 C 0.43588 0.94656 0.01738 0.0
C677 C 0.44219 0.9238 0.01288 0.0
C678 C 0.44448 0.90627 0.02252 0.0
C679 C 0.3852 0.80824 0.04181 0.0
C680 C 0.39812 0.78728 0.04209 0.0
C681 C 0.39616 0.82989 0.04559 0.0
C682 C 0.42019 0.83096 0.04974 0.0
C683 C 0.43318 0.8101 0.04981 0.0
C684 C 0.42224 0.78848 0.04612 0.0
C685 C 0.4319 0.85384 0.05383 0.0
C686 C 0.43064 0.87169 0.04429 0.0
C687 C 0.44529 0.85762 0.06674 0.0
C688 C 0.44582 0.84017 0.07773 0.0
C689 C 0.46739 0.83171 0.0832 0.0
C690 C 0.46786 0.81514 0.09347 0.0
C691 C 0.44686 0.80697 0.09839 0.0
C692 C 0.42535 0.8154 0.09308 0.0
C693 C 0.42479 0.83198 0.08283 0.0
H694 H 0.44726 0.79413 0.10632 0.0
H695 H 0.43414 0.96011 0.0099 0.0
H696 H 0.12184 0.63107 0.99373 0.0
H697 H 0.15719 0.64626 0.00676 0.0
H698 H 0.1221 0.71133 0.01686 0.0
H699 H 0.08588 0.69579 0.00459 0.0
H700 H 0.167 0.71298 0.00207 0.0
H701 H 0.13394 0.68352 0.04276 0.0
H702 H 0.11522 0.65365 0.05623 0.0
H703 H 0.17473 0.60859 0.05148 0.0
H704 H 0.19366 0.63804 0.03779 0.0
H705 H 0.27304 0.75807 0.03228 0.0
H706 H 0.23105 0.7485 0.03109 0.0
H707 H 0.24745 0.67471 0.03227 0.0
H708 H 0.28943 0.68447 0.03444 0.0
H709 H 0.20851 0.68142 0.04404 0.0
H710 H 0.23803 0.70392 0.00046 0.0
H711 H 0.25756 0.72981 0.98477 0.0
H712 H 0.20594 0.78305 0.99218 0.0
H713 H 0.18627 0.75755 0.00806 0.0
C714 C 0.1212 0.64832 0.99908 0.0
C715 C 0.1008 0.66214 0.99805 0.0
C716 C 0.14155 0.65701 0.00647 0.0
C717 C 0.14213 0.67981 0.0128 0.0
C718 C 0.12188 0.69363 0.01204 0.0
C719 C 0.10129 0.68477 0.00488 0.0
C720 C 0.16465 0.68981 0.01895 0.0
C721 C 0.17588 0.70658 0.01146 0.0
C722 C 0.17643 0.68067 0.03087 0.0
C723 C 0.16514 0.66295 0.03915 0.0
C724 C 0.14295 0.66716 0.04448 0.0
C725 C 0.13232 0.65032 0.05218 0.0
C726 C 0.14376 0.62922 0.05468 0.0
C727 C 0.16588 0.62494 0.04952 0.0
C728 C 0.17658 0.64172 0.04181 0.0
C729 C 0.26759 0.73988 0.03267 0.0
C730 C 0.28434 0.72195 0.0333 0.0
C731 C 0.24363 0.7344 0.0319 0.0
C732 C 0.23605 0.71082 0.03109 0.0
C733 C 0.25281 0.69303 0.03277 0.0
C734 C 0.2768 0.69859 0.034 0.0
C735 C 0.21111 0.70453 0.02707 0.0
C736 C 0.19948 0.68831 0.03485 0.0
C737 C 0.19912 0.71364 0.01513 0.0
C738 C 0.21087 0.72897 0.00557 0.0
C739 C 0.23095 0.72122 0.99881 0.0
C740 C 0.24203 0.7358 0.98988 0.0
C741 C 0.23304 0.75809 0.98751 0.0
C742 C 0.21291 0.7658 0.99404 0.0
C743 C 0.20179 0.7513 0.00301 0.0
H744 H 0.24164 0.76936 0.98059 0.0
H745 H 0.1355 0.6162 0.06065 0.0
H746 H 0.48352 0.58659 0.22149 0.0
H747 H 0.46655 0.62305 0.23052 0.0
H748 H 0.53445 0.64553 0.24906 0.0
H749 H 0.55111 0.60806 0.24135 0.0
H750 H 0.50296 0.66037 0.2654 0.0
H751 H 0.51107 0.66161 0.21526 0.0
H752 H 0.50453 0.64547 0.19075 0.0
H753 H 0.42995 0.65235 0.19365 0.0
H754 H 0.43603 0.66817 0.21826 0.0
H755 H 0.49032 0.78414 0.26541 0.0
H756 H 0.50193 0.74372 0.25938 0.0
H757 H 0.42916 0.72377 0.25086 0.0
H758 H 0.4173 0.76415 0.25701 0.0
H759 H 0.46013 0.70705 0.22992 0.0
H760 H 0.45328 0.70858 0.27997 0.0
H761 H 0.46083 0.72419 0.30449 0.0
H762 H 0.53484 0.71305 0.30129 0.0
H763 H 0.52776 0.69769 0.27667 0.0
C764 C 0.4948 0.59888 0.22785 0.0
C765 C 0.51887 0.59434 0.23049 0.0
C766 C 0.48509 0.61999 0.23281 0.0
C767 C 0.49937 0.63739 0.24007 0.0
C768 C 0.52311 0.63251 0.24332 0.0
C769 C 0.5327 0.61115 0.2387 0.0
C770 C 0.48996 0.66106 0.24374 0.0
C771 C 0.4938 0.67063 0.25759 0.0
C772 C 0.47759 0.67435 0.23362 0.0
C773 C 0.47399 0.66584 0.21864 0.0
C774 C 0.49327 0.65963 0.21067 0.0
C775 C 0.48965 0.6505 0.19678 0.0
C776 C 0.46683 0.64777 0.19068 0.0
C777 C 0.4476 0.6544 0.19841 0.0
C778 C 0.45113 0.66346 0.21232 0.0
C779 C 0.47677 0.7712 0.26221 0.0
C780 C 0.45288 0.77732 0.26172 0.0
C781 C 0.48344 0.74812 0.25883 0.0
C782 C 0.46637 0.73082 0.25479 0.0
C783 C 0.44255 0.73692 0.25399 0.0
C784 C 0.43583 0.75996 0.25754 0.0
C785 C 0.47349 0.70632 0.25147 0.0
C786 C 0.4692 0.69667 0.2377 0.0
C787 C 0.48571 0.69309 0.26159 0.0
C788 C 0.49 0.70219 0.27643 0.0
C789 C 0.47119 0.70964 0.28445 0.0
C790 C 0.47538 0.71841 0.29838 0.0
C791 C 0.49831 0.71966 0.30444 0.0
C792 C 0.51709 0.71209 0.29659 0.0
C793 C 0.513 0.70333 0.28265 0.0
H794 H 0.50152 0.72645 0.31522 0.0
H795 H 0.46404 0.64054 0.17996 0.0
H796 H 0.5066 0.02181 0.49944 0.0
H797 H 0.47856 0.00338 0.51383 0.0
H798 H 0.52287 0.94262 0.51652 0.0
H799 H 0.55194 0.96144 0.5029 0.0
H800 H 0.47146 0.93726 0.50476 0.0
H801 H 0.52105 0.96803 0.54443 0.0
H802 H 0.54312 0.99934 0.55857 0.0
H803 H 0.47939 0.038 0.56359 0.0
H804 H 0.45698 0.00707 0.54929 0.0
H805 H 0.39094 0.87671 0.54108 0.0
H806 H 0.42956 0.89271 0.53676 0.0
H807 H 0.40445 0.96298 0.54575 0.0
H808 H 0.36608 0.94702 0.55062 0.0
H809 H 0.44961 0.96156 0.55309 0.0
H810 H 0.40115 0.93829 0.5119 0.0
H811 H 0.37637 0.91169 0.49586 0.0
H812 H 0.43425 0.86438 0.49152 0.0
H813 H 0.45933 0.89065 0.50764 0.0
C814 C 0.51087 0.00484 0.5034 0.0
C815 C 0.53164 0.99314 0.49989 0.0
C816 C 0.49469 0.99429 0.51158 0.0
C817 C 0.49876 0.97173 0.51623 0.0
C818 C 0.51952 0.96009 0.51301 0.0
C819 C 0.53597 0.97081 0.50507 0.0
C820 C 0.48025 0.95956 0.52332 0.0
C821 C 0.46701 0.94212 0.51545 0.0
C822 C 0.47396 0.96676 0.53702 0.0
C823 C 0.48737 0.98532 0.54567 0.0
C824 C 0.51177 0.98331 0.54843 0.0
C825 C 0.52434 0.00097 0.5565 0.0
C826 C 0.51267 0.02067 0.56195 0.0
C827 C 0.48841 0.02273 0.55936 0.0
C828 C 0.47576 0.00513 0.55128 0.0
C829 C 0.39388 0.89552 0.54255 0.0
C830 C 0.37542 0.91065 0.54598 0.0
C831 C 0.41591 0.90465 0.54001 0.0
C832 C 0.41967 0.92908 0.5405 0.0
C833 C 0.40192 0.94408 0.5452 0.0
C834 C 0.37997 0.93492 0.54799 0.0
C835 C 0.44082 0.93902 0.53455 0.0
C836 C 0.45438 0.95625 0.54252 0.0
C837 C 0.44704 0.93219 0.52073 0.0
C838 C 0.43201 0.91627 0.5111 0.0
C839 C 0.40853 0.92212 0.50761 0.0
C840 C 0.39444 0.90713 0.49849 0.0
C841 C 0.4037 0.88631 0.49272 0.0
C842 C 0.42709 0.88048 0.49603 0.0
C843 C 0.44125 0.89542 0.50514 0.0
H844 H 0.39278 0.87473 0.48566 0.0
H845 H 0.52243 0.03432 0.56819 0.0
H846 H 0.12706 0.03318 0.75889 0.0
H847 H 0.14536 0.00115 0.77149 0.0
H848 H 0.21403 0.02813 0.76382 0.0
H849 H 0.19576 0.0603 0.75121 0.0
H850 H 0.20661 0.98104 0.75485 0.0
H851 H 0.19779 0.03057 0.79643 0.0
H852 H 0.17646 0.05631 0.81294 0.0
H853 H 0.12924 0.99954 0.81957 0.0
H854 H 0.15008 0.97354 0.80294 0.0
H855 H 0.26171 0.88681 0.78565 0.0
H856 H 0.2518 0.92805 0.78301 0.0
H857 H 0.18106 0.91414 0.79437 0.0
H858 H 0.19122 0.87307 0.79764 0.0
H859 H 0.19327 0.95762 0.80309 0.0
H860 H 0.196 0.91067 0.75966 0.0
H861 H 0.21391 0.88397 0.74208 0.0
H862 H 0.26842 0.93489 0.73763 0.0
H863 H 0.25099 0.96177 0.75534 0.0
C864 C 0.14606 0.03244 0.76007 0.0
C865 C 0.16003 0.0491 0.75403 0.0
C866 C 0.15648 0.01427 0.76735 0.0
C867 C 0.18104 0.01237 0.76864 0.0
C868 C 0.19504 0.0294 0.76299 0.0
C869 C 0.18462 0.04776 0.75585 0.0
C870 C 0.19187 0.99125 0.77454 0.0
C871 C 0.20421 0.97619 0.76552 0.0
C872 C 0.18793 0.98459 0.78828 0.0
C873 C 0.17542 0.00015 0.79835 0.0
C874 C 0.18275 0.02362 0.80132 0.0
C875 C 0.17076 0.03825 0.81072 0.0
C876 C 0.15148 0.02958 0.81728 0.0
C877 C 0.14418 0.00624 0.81448 0.0
C878 C 0.15609 0.99154 0.80508 0.0
C879 C 0.24422 0.8927 0.78794 0.0
C880 C 0.22713 0.87671 0.79167 0.0
C881 C 0.23855 0.91624 0.78637 0.0
C882 C 0.21549 0.92403 0.78808 0.0
C883 C 0.19892 0.90851 0.7929 0.0
C884 C 0.20474 0.88503 0.79476 0.0
C885 C 0.208 0.94738 0.78337 0.0
C886 C 0.19611 0.96272 0.79253 0.0
C887 C 0.21189 0.95418 0.76962 0.0
C888 C 0.22236 0.93809 0.75894 0.0
C889 C 0.2119 0.91609 0.755 0.0
C890 C 0.22195 0.90094 0.74501 0.0
C891 C 0.24233 0.9077 0.73877 0.0
C892 C 0.25267 0.92966 0.74249 0.0
C893 C 0.24271 0.94486 0.7525 0.0
H894 H 0.25009 0.89595 0.73103 0.0
H895 H 0.14223 0.04093 0.82455 0.0
H896 H 0.62845 0.50251 0.81784 0.0
H897 H 0.66186 0.48782 0.80545 0.0
H898 H 0.61598 0.46746 0.76912 0.0
H899 H 0.58252 0.48396 0.78109 0.0
H900 H 0.67289 0.44711 0.7971 0.0
H901 H 0.64666 0.46629 0.73926 0.0
H902 H 0.62376 0.49522 0.72602 0.0
H903 H 0.63535 0.54681 0.76043 0.0
H904 H 0.65856 0.51829 0.77379 0.0
H905 H 0.75744 0.38955 0.75927 0.0
H906 H 0.71776 0.40254 0.76412 0.0
H907 H 0.73699 0.47365 0.75602 0.0
H908 H 0.77634 0.46048 0.75046 0.0
H909 H 0.69226 0.46749 0.7492 0.0
H910 H 0.743 0.45331 0.78965 0.0
H911 H 0.76974 0.43037 0.80473 0.0
H912 H 0.71509 0.37919 0.80824 0.0
H913 H 0.6881 0.40174 0.79305 0.0
C914 C 0.62541 0.49548 0.80709 0.0
C915 C 0.60268 0.49473 0.80045 0.0
C916 C 0.64458 0.48673 0.80006 0.0
C917 C 0.64156 0.47663 0.78629 0.0
C918 C 0.61888 0.47552 0.77965 0.0
C919 C 0.59967 0.48467 0.7866 0.0
C920 C 0.66221 0.46677 0.7792 0.0
C921 C 0.67699 0.45154 0.78659 0.0
C922 C 0.66788 0.47272 0.76556 0.0
C923 C 0.65409 0.49005 0.75758 0.0
C924 C 0.64436 0.48382 0.74398 0.0
C925 C 0.63133 0.50015 0.73646 0.0
C926 C 0.62803 0.52281 0.7424 0.0
C927 C 0.63783 0.52922 0.75586 0.0
C928 C 0.6509 0.51297 0.76342 0.0
C929 C 0.75296 0.40782 0.75812 0.0
C930 C 0.77 0.42408 0.75467 0.0
C931 C 0.73033 0.41525 0.76096 0.0
C932 C 0.72461 0.4392 0.76087 0.0
C933 C 0.74101 0.45511 0.75625 0.0
C934 C 0.76352 0.44757 0.75308 0.0
C935 C 0.70286 0.44802 0.76716 0.0
C936 C 0.6879 0.46293 0.75963 0.0
C937 C 0.69748 0.44264 0.78095 0.0
C938 C 0.71363 0.42905 0.79009 0.0
C939 C 0.73674 0.43708 0.79356 0.0
C940 C 0.75193 0.42417 0.80214 0.0
C941 C 0.74414 0.4033 0.8074 0.0
C942 C 0.72111 0.39534 0.80413 0.0
C943 C 0.70586 0.40818 0.79555 0.0
H944 H 0.75592 0.39332 0.81404 0.0
H945 H 0.61792 0.53541 0.73657 0.0
H946 H 0.63523 0.10617 0.02901 0.0
H947 H 0.65468 0.13678 0.01688 0.0
H948 H 0.71151 0.13943 0.04889 0.0
H949 H 0.69165 0.10982 0.06144 0.0
H950 H 0.69642 0.18163 0.0449 0.0
H951 H 0.71808 0.11626 0.01464 0.0
H952 H 0.71157 0.08051 0.99902 0.0
H953 H 0.6682 0.11929 0.97036 0.0
H954 H 0.6742 0.15523 0.98592 0.0
H955 H 0.77159 0.25778 0.0157 0.0
H956 H 0.75779 0.21846 0.0201 0.0
H957 H 0.69394 0.22954 0.99494 0.0
H958 H 0.70757 0.26916 0.99049 0.0
H959 H 0.71294 0.17994 0.9943 0.0
H960 H 0.68938 0.24431 0.02585 0.0
H961 H 0.69725 0.28014 0.04125 0.0
H962 H 0.74537 0.24206 0.06759 0.0
H963 H 0.73811 0.2061 0.05217 0.0
C964 C 0.65189 0.11325 0.03347 0.0
C965 C 0.66179 0.10559 0.04626 0.0
C966 C 0.66314 0.13054 0.02641 0.0
C967 C 0.68466 0.14031 0.03191 0.0
C968 C 0.69494 0.13212 0.04442 0.0
C969 C 0.68364 0.115 0.05153 0.0
C970 C 0.69549 0.16043 0.02537 0.0
C971 C 0.70034 0.18101 0.03388 0.0
C972 C 0.70004 0.15997 0.0109 0.0
C973 C 0.69641 0.13839 0.00152 0.0
C974 C 0.70699 0.11713 0.00507 0.0
C975 C 0.70343 0.09683 0.99621 0.0
C976 C 0.68943 0.09761 0.98372 0.0
C977 C 0.67902 0.1187 0.98005 0.0
C978 C 0.68251 0.13905 0.98887 0.0
C979 C 0.75492 0.25166 0.01072 0.0
C980 C 0.74045 0.26675 0.00297 0.0
C981 C 0.74711 0.22914 0.01323 0.0
C982 C 0.72474 0.22132 0.008 0.0
C983 C 0.71128 0.23534 0.99905 0.0
C984 C 0.71907 0.25798 0.99656 0.0
C985 C 0.71402 0.20067 0.01392 0.0
C986 C 0.70907 0.18025 0.00531 0.0
C987 C 0.70938 0.20114 0.02834 0.0
C988 C 0.7134 0.2226 0.03778 0.0
C989 C 0.70178 0.24363 0.03486 0.0
C990 C 0.70611 0.26395 0.0436 0.0
C991 C 0.72185 0.26339 0.05537 0.0
C992 C 0.73322 0.24248 0.05845 0.0
C993 C 0.729 0.22212 0.04972 0.0
H994 H 0.72518 0.27914 0.06211 0.0
H995 H 0.68669 0.08188 0.97688 0.0
H996 H 0.02587 0.09537 0.32961 0.0
H997 H 0.98881 0.11109 0.32031 0.0
H998 H 0.02563 0.17076 0.30605 0.0
H999 H 0.06302 0.1549 0.31513 0.0
H1000 H 0.98576 0.18325 0.31992 0.0
H1001 H 0.00654 0.12885 0.28256 0.0
H1002 H 0.01885 0.0907 0.27196 0.0
H1003 H 0.95669 0.05776 0.28538 0.0
H1004 H 0.94416 0.09566 0.29624 0.0
H1005 H 0.88563 0.22201 0.27909 0.0
H1006 H 0.92497 0.20937 0.28687 0.0
H1007 H 0.89578 0.14476 0.30006 0.0
H1008 H 0.85654 0.15702 0.29213 0.0
H1009 H 0.93344 0.13633 0.28538 0.0
H1010 H 0.91371 0.18934 0.32393 0.0
H1011 H 0.90122 0.22692 0.33519 0.0
H1012 H 0.96096 0.2619 0.32014 0.0
H1013 H 0.97364 0.22455 0.30863 0.0
C1014 C 0.02618 0.11166 0.32432 0.0
C1015 C 0.04744 0.12378 0.323 0.0
C1016 C 0.00496 0.12067 0.31907 0.0
C1017 C 0.00454 0.14194 0.31237 0.0
C1018 C 0.02563 0.15429 0.31118 0.0
C1019 C 0.04694 0.14524 0.31641 0.0
C1020 C 0.98195 0.15128 0.30675 0.0
C1021 C 0.97447 0.17321 0.31218 0.0
C1022 C 0.96708 0.13788 0.2969 0.0
C1023 C 0.97451 0.11507 0.29032 0.0
C1024 C 0.99558 0.11344 0.28334 0.0
C1025 C 0.00259 0.09186 0.27727 0.0
C1026 C 0.98859 0.07181 0.27802 0.0
C1027 C 0.96753 0.07331 0.28482 0.0
C1028 C 0.96045 0.09483 0.29092 0.0
C1029 C 0.88757 0.20515 0.2837 0.0
C1030 C 0.86793 0.19051 0.28498 0.0
C1031 C 0.91006 0.19799 0.28818 0.0
C1032 C 0.91327 0.17619 0.29412 0.0
C1033 C 0.8937 0.16163 0.29547 0.0
C1034 C 0.87126 0.16871 0.29096 0.0
C1035 C 0.93704 0.16818 0.29869 0.0
C1036 C 0.94478 0.14648 0.29304 0.0
C1037 C 0.95207 0.18174 0.30839 0.0
C1038 C 0.94447 0.20421 0.31529 0.0
C1039 C 0.92407 0.20509 0.32292 0.0
C1040 C 0.91698 0.22634 0.32937 0.0
C1041 C 0.93024 0.2468 0.32834 0.0
C1042 C 0.95067 0.24604 0.3209 0.0
C1043 C 0.95783 0.22484 0.31443 0.0
H1044 H 0.92473 0.26323 0.33335 0.0
H1045 H 0.99404 0.05513 0.27331 0.0
H1046 H 0.99648 0.54594 0.5368 0.0
H1047 H 0.9823 0.50724 0.52747 0.0
H1048 H 0.92562 0.51116 0.55559 0.0
H1049 H 0.94033 0.54916 0.56547 0.0
H1050 H 0.94835 0.47177 0.55793 0.0
H1051 H 0.91645 0.51409 0.51925 0.0
H1052 H 0.91752 0.54098 0.49995 0.0
H1053 H 0.96743 0.49651 0.47956 0.0
H1054 H 0.9669 0.46949 0.49884 0.0
H1055 H 0.8869 0.36955 0.53499 0.0
H1056 H 0.89593 0.41148 0.53787 0.0
H1057 H 0.95612 0.40132 0.51286 0.0
H1058 H 0.94707 0.35911 0.50979 0.0
H1059 H 0.93226 0.44364 0.50805 0.0
H1060 H 0.96429 0.40182 0.54691 0.0
H1061 H 0.96362 0.37525 0.56638 0.0
H1062 H 0.91377 0.41981 0.58676 0.0
H1063 H 0.91375 0.44639 0.56725 0.0
C1064 C 0.98091 0.53862 0.54095 0.0
C1065 C 0.96966 0.55063 0.55197 0.0
C1066 C 0.97266 0.51661 0.53547 0.0
C1067 C 0.95283 0.50632 0.54079 0.0
C1068 C 0.94095 0.51876 0.55132 0.0
C1069 C 0.94927 0.54064 0.55687 0.0
C1070 C 0.94576 0.48174 0.53645 0.0
C1071 C 0.94441 0.46577 0.54703 0.0
C1072 C 0.9415 0.47369 0.52219 0.0
C1073 C 0.9418 0.48988 0.51056 0.0
C1074 C 0.9278 0.51014 0.51071 0.0
C1075 C 0.92828 0.52538 0.49976 0.0
C1076 C 0.94258 0.52049 0.48856 0.0
C1077 C 0.95638 0.50029 0.48826 0.0
C1078 C 0.95598 0.48499 0.49918 0.0
C1079 C 0.90186 0.37623 0.52989 0.0
C1080 C 0.91648 0.36096 0.52232 0.0
C1081 C 0.90699 0.40021 0.53156 0.0
C1082 C 0.92692 0.40939 0.52579 0.0
C1083 C 0.9407 0.39452 0.51743 0.0
C1084 C 0.93553 0.37043 0.51572 0.0
C1085 C 0.93437 0.434 0.52958 0.0
C1086 C 0.93603 0.44982 0.51893 0.0
C1087 C 0.93894 0.44203 0.54381 0.0
C1088 C 0.93881 0.42595 0.55552 0.0
C1089 C 0.95298 0.40582 0.55546 0.0
C1090 C 0.95275 0.39077 0.56651 0.0
C1091 C 0.9386 0.39579 0.57778 0.0
C1092 C 0.92467 0.4159 0.57801 0.0
C1093 C 0.92476 0.43095 0.56695 0.0
H1094 H 0.93848 0.38414 0.58634 0.0
H1095 H 0.94292 0.53232 0.48009 0.0
H1096 H 0.67489 0.16013 0.4751 0.0
H1097 H 0.70607 0.18837 0.48306 0.0
H1098 H 0.75256 0.13116 0.49251 0.0
H1099 H 0.72126 0.10294 0.48517 0.0
H1100 H 0.75731 0.16511 0.51258 0.0
H1101 H 0.75474 0.15994 0.46185 0.0
H1102 H 0.73597 0.16213 0.438 0.0
H1103 H 0.72038 0.23496 0.44688 0.0
H1104 H 0.73878 0.23309 0.47086 0.0
H1105 H 0.87146 0.20916 0.50701 0.0
H1106 H 0.83385 0.1889 0.5019 0.0
H1107 H 0.79797 0.25533 0.50339 0.0
H1108 H 0.8357 0.27594 0.50874 0.0
H1109 H 0.7845 0.22187 0.4793 0.0
H1110 H 0.79233 0.22673 0.52973 0.0
H1111 H 0.8131 0.22302 0.55289 0.0
H1112 H 0.82082 0.14887 0.54374 0.0
H1113 H 0.8004 0.1522 0.52042 0.0
C1114 C 0.69164 0.15359 0.47909 0.0
C1115 C 0.69567 0.12928 0.4794 0.0
C1116 C 0.7095 0.16974 0.4835 0.0
C1117 C 0.73173 0.16186 0.48819 0.0
C1118 C 0.73556 0.13764 0.48889 0.0
C1119 C 0.71772 0.12152 0.48455 0.0
C1120 C 0.75135 0.17863 0.49204 0.0
C1121 C 0.76328 0.17745 0.50527 0.0
C1122 C 0.75883 0.19512 0.48263 0.0
C1123 C 0.74787 0.1963 0.4682 0.0
C1124 C 0.74714 0.17637 0.45875 0.0
C1125 C 0.73659 0.17756 0.44521 0.0
C1126 C 0.72692 0.19865 0.44094 0.0
C1127 C 0.72783 0.21862 0.4502 0.0
C1128 C 0.73832 0.21751 0.46377 0.0
C1129 C 0.85562 0.21954 0.5062 0.0
C1130 C 0.85655 0.24417 0.50831 0.0
C1131 C 0.83416 0.20791 0.50333 0.0
C1132 C 0.81322 0.22065 0.50238 0.0
C1133 C 0.81401 0.24526 0.50413 0.0
C1134 C 0.83553 0.25695 0.50721 0.0
C1135 C 0.79061 0.20792 0.49968 0.0
C1136 C 0.77819 0.20983 0.48668 0.0
C1137 C 0.78283 0.19188 0.50921 0.0
C1138 C 0.79497 0.18976 0.52328 0.0
C1139 C 0.79862 0.20967 0.5326 0.0
C1140 C 0.8103 0.20762 0.54577 0.0
C1141 C 0.81832 0.18573 0.54977 0.0
C1142 C 0.81461 0.16582 0.54062 0.0
C1143 C 0.80295 0.16777 0.52743 0.0
H1144 H 0.82736 0.18418 0.55997 0.0
H1145 H 0.71876 0.19954 0.43045 0.0
H1146 H 0.98912 0.1929 0.71787 0.0
H1147 H 0.95821 0.22156 0.72133 0.0
H1148 H 0.00554 0.26429 0.74925 0.0
H1149 H 0.03594 0.2347 0.74686 0.0
H1150 H 0.96481 0.26624 0.75898 0.0
H1151 H 0.9933 0.2744 0.71286 0.0
H1152 H 0.00293 0.26047 0.6889 0.0
H1153 H 0.93057 0.24156 0.67895 0.0
H1154 H 0.92059 0.25509 0.70286 0.0
H1155 H 0.92041 0.38065 0.74707 0.0
H1156 H 0.94395 0.34523 0.74401 0.0
H1157 H 0.88078 0.30315 0.7372 0.0
H1158 H 0.85687 0.33859 0.74064 0.0
H1159 H 0.92528 0.29862 0.71664 0.0
H1160 H 0.89813 0.29299 0.76392 0.0
H1161 H 0.89081 0.30961 0.78772 0.0
H1162 H 0.96407 0.32713 0.79498 0.0
H1163 H 0.97174 0.31093 0.77112 0.0
C1164 C 0.99287 0.20806 0.72504 0.0
C1165 C 0.01522 0.21146 0.73202 0.0
C1166 C 0.97521 0.22468 0.72682 0.0
C1167 C 0.97968 0.24541 0.73527 0.0
C1168 C 0.00169 0.24853 0.74258 0.0
C1169 C 0.0192 0.23169 0.74105 0.0
C1170 C 0.96171 0.26413 0.73628 0.0
C1171 C 0.95628 0.27329 0.74969 0.0
C1172 C 0.95027 0.27328 0.72419 0.0
C1173 C 0.95624 0.26554 0.7097 0.0
C1174 C 0.97947 0.26716 0.70557 0.0
C1175 C 0.985 0.25934 0.69199 0.0
C1176 C 0.9674 0.25007 0.6824 0.0
C1177 C 0.94422 0.24871 0.68636 0.0
C1178 C 0.93861 0.25646 0.69992 0.0
C1179 C 0.91145 0.36391 0.74483 0.0
C1180 C 0.88677 0.36239 0.74412 0.0
C1181 C 0.92494 0.34373 0.74311 0.0
C1182 C 0.91403 0.32172 0.74042 0.0
C1183 C 0.88942 0.32008 0.73928 0.0
C1184 C 0.87584 0.34028 0.74128 0.0
C1185 C 0.92866 0.30051 0.73926 0.0
C1186 C 0.93359 0.29112 0.72586 0.0
C1187 C 0.93998 0.29143 0.75132 0.0
C1188 C 0.93545 0.30099 0.76569 0.0
C1189 C 0.91263 0.30061 0.77054 0.0
C1190 C 0.90843 0.3099 0.78405 0.0
C1191 C 0.92695 0.31948 0.79284 0.0
C1192 C 0.94973 0.31973 0.78815 0.0
C1193 C 0.95402 0.31048 0.77464 0.0
H1194 H 0.92367 0.32666 0.8033 0.0
H1195 H 0.97173 0.24398 0.6719 0.0
H1196 H 0.90312 0.54722 0.97959 0.0
H1197 H 0.87719 0.51552 0.98546 0.0
H1198 H 0.92911 0.46444 0.97353 0.0
H1199 H 0.95477 0.49608 0.96699 0.0
H1200 H 0.88697 0.45055 0.96322 0.0
H1201 H 0.91946 0.47775 0.00833 0.0
H1202 H 0.93138 0.50666 0.02772 0.0
H1203 H 0.85938 0.52663 0.03152 0.0
H1204 H 0.84704 0.49807 0.012 0.0
H1205 H 0.81879 0.36068 0.99344 0.0
H1206 H 0.85165 0.38699 0.9893 0.0
H1207 H 0.80587 0.44674 0.9931 0.0
H1208 H 0.77306 0.42079 0.99706 0.0
H1209 H 0.84934 0.45232 0.00891 0.0
H1210 H 0.81838 0.42757 0.96182 0.0
H1211 H 0.80707 0.39819 0.94255 0.0
H1212 H 0.8778 0.3725 0.9432 0.0
H1213 H 0.88945 0.40155 0.96261 0.0
C1214 C 0.90899 0.52925 0.97811 0.0
C1215 C 0.93103 0.52421 0.97282 0.0
C1216 C 0.89426 0.51114 0.98164 0.0
C1217 C 0.90137 0.48761 0.98014 0.0
C1218 C 0.92334 0.48248 0.97485 0.0
C1219 C 0.93806 0.5006 0.97124 0.0
C1220 C 0.88544 0.46845 0.98371 0.0
C1221 C 0.87913 0.45068 0.97332 0.0
C1222 C 0.87503 0.4687 0.99684 0.0
C1223 C 0.88234 0.48587 0.00863 0.0
C1224 C 0.90618 0.48842 0.01323 0.0
C1225 C 0.91301 0.50473 0.02426 0.0
C1226 C 0.89615 0.5185 0.03083 0.0
C1227 C 0.87242 0.51595 0.02641 0.0
C1228 C 0.86549 0.49969 0.01538 0.0
C1229 C 0.81576 0.37942 0.99339 0.0
C1230 C 0.79332 0.38865 0.99554 0.0
C1231 C 0.83451 0.39438 0.99101 0.0
C1232 C 0.8311 0.41875 0.9909 0.0
C1233 C 0.80882 0.42798 0.99318 0.0
C1234 C 0.79008 0.41308 0.99538 0.0
C1235 C 0.85058 0.4349 0.98833 0.0
C1236 C 0.85754 0.45206 0.99891 0.0
C1237 C 0.86171 0.43395 0.97544 0.0
C1238 C 0.85471 0.41652 0.96378 0.0
C1239 C 0.83146 0.4155 0.95794 0.0
C1240 C 0.825 0.39895 0.94698 0.0
C1241 C 0.84169 0.38343 0.94169 0.0
C1242 C 0.86489 0.3845 0.94733 0.0
C1243 C 0.87143 0.40101 0.95831 0.0
H1244 H 0.83666 0.37064 0.93319 0.0
H1245 H 0.90147 0.53111 0.03937 0.0
H1246 H 0.62551 0.40107 0.23706 0.0
H1247 H 0.65391 0.37491 0.24831 0.0
H1248 H 0.71044 0.40977 0.22937 0.0
H1249 H 0.68212 0.43587 0.21802 0.0
H1250 H 0.71157 0.36108 0.22564 0.0
H1251 H 0.70411 0.41976 0.26338 0.0
H1252 H 0.68264 0.44492 0.28012 0.0
H1253 H 0.65494 0.38368 0.29779 0.0
H1254 H 0.67599 0.35813 0.28101 0.0
H1255 H 0.80515 0.30509 0.25896 0.0
H1256 H 0.77945 0.33796 0.25379 0.0
H1257 H 0.72262 0.30392 0.27289 0.0
H1258 H 0.74831 0.27092 0.27824 0.0
H1259 H 0.72198 0.35305 0.27719 0.0
H1260 H 0.72665 0.29447 0.2394 0.0
H1261 H 0.74681 0.26803 0.22271 0.0
H1262 H 0.77733 0.32756 0.2047 0.0
H1263 H 0.75779 0.35437 0.22154 0.0
C1264 C 0.644 0.40313 0.23531 0.0
C1265 C 0.65163 0.42046 0.22666 0.0
C1266 C 0.66019 0.38833 0.24182 0.0
C1267 C 0.68427 0.39056 0.23975 0.0
C1268 C 0.69194 0.40786 0.23114 0.0
C1269 C 0.67578 0.42281 0.22473 0.0
C1270 C 0.70133 0.3741 0.24602 0.0
C1271 C 0.71415 0.35962 0.23692 0.0
C1272 C 0.70407 0.3717 0.26072 0.0
C1273 C 0.69145 0.38703 0.27085 0.0
C1274 C 0.69328 0.41165 0.27075 0.0
C1275 C 0.68122 0.42599 0.28027 0.0
C1276 C 0.66739 0.41591 0.28999 0.0
C1277 C 0.66564 0.39146 0.29024 0.0
C1278 C 0.67765 0.37705 0.28074 0.0
C1279 C 0.78737 0.30482 0.2624 0.0
C1280 C 0.77864 0.28523 0.26881 0.0
C1281 C 0.7727 0.32362 0.25941 0.0
C1282 C 0.74904 0.32309 0.26269 0.0
C1283 C 0.74082 0.30458 0.27022 0.0
C1284 C 0.75553 0.28573 0.27325 0.0
C1285 C 0.73237 0.34029 0.25679 0.0
C1286 C 0.71953 0.35472 0.26593 0.0
C1287 C 0.72934 0.34249 0.24208 0.0
C1288 C 0.74098 0.32643 0.23185 0.0
C1289 C 0.73784 0.30193 0.23198 0.0
C1290 C 0.74915 0.28687 0.22249 0.0
C1291 C 0.76339 0.2961 0.21267 0.0
C1292 C 0.76633 0.32043 0.21233 0.0
C1293 C 0.75517 0.33557 0.22186 0.0
H1294 H 0.77206 0.28441 0.2053 0.0
H1295 H 0.65807 0.42704 0.29735 0.0
H1296 H 0.19971 0.98154 0.40048 0.0
H1297 H 0.21704 0.96194 0.42051 0.0
H1298 H 0.27532 0.01093 0.42356 0.0
H1299 H 0.25877 0.02995 0.40291 0.0
H1300 H 0.28953 0.9675 0.43091 0.0
H1301 H 0.22842 0.02194 0.44262 0.0
H1302 H 0.18872 0.03886 0.44042 0.0
H1303 H 0.1585 0.97327 0.45068 0.0
H1304 H 0.19802 0.95585 0.45274 0.0
H1305 H 0.27706 0.9669 0.51227 0.0
H1306 H 0.26854 0.98218 0.4892 0.0
H1307 H 0.28734 0.91554 0.46925 0.0
H1308 H 0.29645 0.90021 0.49238 0.0
H1309 H 0.23595 0.96833 0.47016 0.0
H1310 H 0.30727 0.92526 0.43649 0.0
H1311 H 0.34802 0.91126 0.43967 0.0
H1312 H 0.36046 0.96019 0.47534 0.0
H1313 H 0.31994 0.97476 0.47223 0.0
C1314 C 0.2166 0.98775 0.40505 0.0
C1315 C 0.22768 0.00758 0.40013 0.0
C1316 C 0.22639 0.97661 0.41662 0.0
C1317 C 0.24719 0.9853 0.42371 0.0
C1318 C 0.25915 0.00405 0.4183 0.0
C1319 C 0.2495 0.01508 0.4066 0.0
C1320 C 0.25502 0.97645 0.43752 0.0
C1321 C 0.27784 0.96759 0.4395 0.0
C1322 C 0.23991 0.97704 0.4488 0.0
C1323 C 0.21615 0.98754 0.44771 0.0
C1324 C 0.21329 0.01109 0.44432 0.0
C1325 C 0.19083 0.02077 0.44311 0.0
C1326 C 0.1711 0.00713 0.44538 0.0
C1327 C 0.1738 0.9838 0.44891 0.0
C1328 C 0.19622 0.97402 0.45011 0.0
C1329 C 0.27957 0.9555 0.50299 0.0
C1330 C 0.28734 0.93229 0.50417 0.0
C1331 C 0.27466 0.96427 0.4898 0.0
C1332 C 0.27735 0.95004 0.4775 0.0
C1333 C 0.28544 0.92695 0.4786 0.0
C1334 C 0.29054 0.91818 0.49183 0.0
C1335 C 0.27045 0.95916 0.46361 0.0
C1336 C 0.2477 0.96809 0.46159 0.0
C1337 C 0.28585 0.95909 0.45247 0.0
C1338 C 0.31047 0.95091 0.45421 0.0
C1339 C 0.31874 0.93312 0.44496 0.0
C1340 C 0.3418 0.92507 0.44676 0.0
C1341 C 0.35679 0.93477 0.45773 0.0
C1342 C 0.34881 0.95264 0.46688 0.0
C1343 C 0.32579 0.96078 0.46511 0.0
H1344 H 0.37461 0.92847 0.45913 0.0
H1345 H 0.15372 0.01466 0.44443 0.0
H1346 H 0.11187 0.72673 0.63996 0.0
H1347 H 0.13397 0.74556 0.66042 0.0
H1348 H 0.0782 0.72811 0.68685 0.0
H1349 H 0.05592 0.70963 0.66642 0.0
H1350 H 0.09473 0.77085 0.69425 0.0
H1351 H 0.12839 0.69455 0.68466 0.0
H1352 H 0.14671 0.66338 0.67006 0.0
H1353 H 0.20486 0.70938 0.66423 0.0
H1354 H 0.1867 0.74094 0.67865 0.0
H1355 H 0.15421 0.7678 0.76138 0.0
H1356 H 0.13281 0.75857 0.73879 0.0
H1357 H 0.19071 0.78543 0.71712 0.0
H1358 H 0.21234 0.7948 0.73973 0.0
H1359 H 0.17486 0.74163 0.70621 0.0
H1360 H 0.14223 0.81669 0.71827 0.0
H1361 H 0.12365 0.84675 0.73352 0.0
H1362 H 0.06323 0.80193 0.73544 0.0
H1363 H 0.0816 0.77143 0.72036 0.0
C1364 C 0.10431 0.72702 0.65014 0.0
C1365 C 0.08224 0.7166 0.65162 0.0
C1366 C 0.11694 0.73776 0.66181 0.0
C1367 C 0.10791 0.73792 0.67521 0.0
C1368 C 0.08552 0.72822 0.67662 0.0
C1369 C 0.07279 0.71769 0.66493 0.0
C1370 C 0.12208 0.74727 0.68788 0.0
C1371 C 0.11218 0.76434 0.69692 0.0
C1372 C 0.14508 0.73917 0.69121 0.0
C1373 C 0.15606 0.72018 0.6826 0.0
C1374 C 0.145 0.69807 0.68018 0.0
C1375 C 0.15536 0.68033 0.67195 0.0
C1376 C 0.1769 0.68442 0.66618 0.0
C1377 C 0.18815 0.70625 0.66868 0.0
C1378 C 0.17784 0.72407 0.67688 0.0
C1379 C 0.1624 0.77186 0.75183 0.0
C1380 C 0.18501 0.78201 0.75236 0.0
C1381 C 0.15007 0.76668 0.73893 0.0
C1382 C 0.16011 0.7715 0.7263 0.0
C1383 C 0.18265 0.78166 0.72677 0.0
C1384 C 0.19494 0.78703 0.73969 0.0
C1385 C 0.14736 0.76495 0.71265 0.0
C1386 C 0.15753 0.74836 0.70345 0.0
C1387 C 0.12455 0.77335 0.70924 0.0
C1388 C 0.11339 0.79169 0.71827 0.0
C1389 C 0.12506 0.81316 0.72204 0.0
C1390 C 0.11455 0.83029 0.73063 0.0
C1391 C 0.09229 0.82624 0.73547 0.0
C1392 C 0.08048 0.80505 0.73169 0.0
C1393 C 0.09092 0.78784 0.72311 0.0
H1394 H 0.08418 0.83953 0.74213 0.0
H1395 H 0.1849 0.67066 0.65982 0.0
H1396 H 0.45587 0.57589 0.91066 0.0
H1397 H 0.43465 0.5955 0.92942 0.0
H1398 H 0.39398 0.63362 0.89881 0.0
H1399 H 0.41562 0.61419 0.87988 0.0
H1400 H 0.41169 0.66241 0.92069 0.0
H1401 H 0.36741 0.59155 0.91558 0.0
H1402 H 0.36036 0.54875 0.91297 0.0
H1403 H 0.39511 0.54064 0.95355 0.0
H1404 H 0.4027 0.58336 0.95633 0.0
H1405 H 0.3516 0.71043 0.98002 0.0
H1406 H 0.35791 0.69007 0.95721 0.0
H1407 H 0.40639 0.64313 0.97752 0.0
H1408 H 0.40015 0.66315 0.00027 0.0
H1409 H 0.37613 0.61968 0.95819 0.0
H1410 H 0.4261 0.68948 0.96089 0.0
H1411 H 0.43373 0.73222 0.96333 0.0
H1412 H 0.38768 0.74201 0.92692 0.0
H1413 H 0.37954 0.69932 0.92437 0.0
C1414 C 0.44236 0.58839 0.9079 0.0
C1415 C 0.43747 0.59362 0.89382 0.0
C1416 C 0.43008 0.59942 0.91862 0.0
C1417 C 0.41255 0.61583 0.9155 0.0
C1418 C 0.40735 0.6209 0.90142 0.0
C1419 C 0.41961 0.60973 0.89064 0.0
C1420 C 0.40092 0.62858 0.92716 0.0
C1421 C 0.40336 0.65313 0.92872 0.0
C1422 C 0.3903 0.61643 0.9377 0.0
C1423 C 0.38573 0.59069 0.93613 0.0
C1424 C 0.3737 0.58063 0.92391 0.0
C1425 C 0.36959 0.55638 0.92241 0.0
C1426 C 0.37731 0.54198 0.93308 0.0
C1427 C 0.38913 0.55182 0.94529 0.0
C1428 C 0.39331 0.57606 0.94685 0.0
C1429 C 0.36355 0.69572 0.97964 0.0
C1430 C 0.37547 0.6885 0.99197 0.0
C1431 C 0.36714 0.68415 0.96659 0.0
C1432 C 0.38271 0.66518 0.96568 0.0
C1433 C 0.39426 0.65769 0.978 0.0
C1434 C 0.39075 0.66926 0.991 0.0
C1435 C 0.38767 0.65335 0.95192 0.0
C1436 C 0.38395 0.62898 0.94999 0.0
C1437 C 0.39706 0.66566 0.94103 0.0
C1438 C 0.40198 0.69128 0.94255 0.0
C1439 C 0.41745 0.70078 0.95348 0.0
C1440 C 0.42189 0.72498 0.95487 0.0
C1441 C 0.41113 0.73983 0.94531 0.0
C1442 C 0.39595 0.73049 0.93433 0.0
C1443 C 0.39143 0.7063 0.9329 0.0
H1444 H 0.4146 0.75857 0.9464 0.0
H1445 H 0.3741 0.52321 0.9319 0.0
H1446 H 0.56335 0.99127 0.16108 0.0
H1447 H 0.54573 0.97128 0.18 0.0
H1448 H 0.49724 0.93496 0.14966 0.0
H1449 H 0.51514 0.9547 0.13057 0.0
H1450 H 0.47742 0.95771 0.17579 0.0
H1451 H 0.5365 0.90349 0.16035 0.0
H1452 H 0.57633 0.89231 0.15384 0.0
H1453 H 0.60431 0.91533 0.19517 0.0
H1454 H 0.56467 0.92701 0.20187 0.0
H1455 H 0.43773 0.87942 0.22584 0.0
H1456 H 0.45034 0.89756 0.20483 0.0
H1457 H 0.51541 0.91961 0.22735 0.0
H1458 H 0.50333 0.90065 0.24808 0.0
H1459 H 0.52499 0.90178 0.20326 0.0
H1460 H 0.4683 0.95832 0.21881 0.0
H1461 H 0.42956 0.97207 0.22594 0.0
H1462 H 0.39815 0.94784 0.18563 0.0
H1463 H 0.43669 0.93367 0.17832 0.0
C1464 C 0.54887 0.9791 0.15846 0.0
C1465 C 0.54056 0.97449 0.1444 0.0
C1466 C 0.53888 0.96768 0.16924 0.0
C1467 C 0.52023 0.95169 0.16618 0.0
C1468 C 0.51161 0.94729 0.15218 0.0
C1469 C 0.52189 0.95843 0.14133 0.0
C1470 C 0.51021 0.93932 0.1777 0.0
C1471 C 0.48758 0.94516 0.18169 0.0
C1472 C 0.5238 0.92346 0.18554 0.0
C1473 C 0.54764 0.91632 0.18157 0.0
C1474 C 0.55117 0.90637 0.16801 0.0
C1475 C 0.57371 0.8999 0.16429 0.0
C1476 C 0.59285 0.90316 0.17407 0.0
C1477 C 0.58947 0.91284 0.1876 0.0
C1478 C 0.56697 0.91937 0.19137 0.0
C1479 C 0.45461 0.88836 0.22632 0.0
C1480 C 0.46957 0.8886 0.23858 0.0
C1481 C 0.46179 0.89879 0.21432 0.0
C1482 C 0.4838 0.91014 0.21449 0.0
C1483 C 0.49842 0.91087 0.22689 0.0
C1484 C 0.49146 0.90009 0.23876 0.0
C1485 C 0.49219 0.92045 0.20168 0.0
C1486 C 0.51461 0.9142 0.19738 0.0
C1487 C 0.47849 0.9362 0.19371 0.0
C1488 C 0.45532 0.9447 0.19808 0.0
C1489 C 0.4531 0.95575 0.21151 0.0
C1490 C 0.43119 0.96366 0.21558 0.0
C1491 C 0.41139 0.96076 0.20626 0.0
C1492 C 0.41349 0.95003 0.19284 0.0
C1493 C 0.43536 0.94207 0.18873 0.0
H1494 H 0.39445 0.9669 0.20943 0.0
H1495 H 0.61029 0.89813 0.17117 0.0
H1496 H 0.07 0.72734 0.92597 0.0
H1497 H 0.09225 0.74995 0.91003 0.0
H1498 H 0.12149 0.68562 0.89268 0.0
H1499 H 0.09961 0.6631 0.90862 0.0
H1500 H 0.15408 0.71866 0.89539 0.0
H1501 H 0.07306 0.713 0.8768 0.0
H1502 H 0.03029 0.71883 0.87765 0.0
H1503 H 0.04122 0.79343 0.88398 0.0
H1504 H 0.0841 0.78798 0.88334 0.0
H1505 H 0.17387 0.73087 0.82484 0.0
H1506 H 0.15598 0.7221 0.84653 0.0
H1507 H 0.15274 0.79613 0.85842 0.0
H1508 H 0.17119 0.80522 0.83661 0.0
H1509 H 0.10944 0.76685 0.86146 0.0
H1510 H 0.19132 0.77111 0.87549 0.0
H1511 H 0.23343 0.7632 0.8731 0.0
H1512 H 0.22023 0.68906 0.87404 0.0
H1513 H 0.17796 0.69649 0.87622 0.0
C1514 C 0.08132 0.71809 0.91881 0.0
C1515 C 0.08302 0.69344 0.91852 0.0
C1516 C 0.094 0.73101 0.90971 0.0
C1517 C 0.10831 0.71946 0.90002 0.0
C1518 C 0.11063 0.69495 0.90008 0.0
C1519 C 0.09815 0.68208 0.90923 0.0
C1520 C 0.12012 0.73247 0.88931 0.0
C1521 C 0.1443 0.72921 0.88799 0.0
C1522 C 0.10751 0.74679 0.87986 0.0
C1523 C 0.08177 0.75006 0.88021 0.0
C1524 C 0.06634 0.73062 0.87848 0.0
C1525 C 0.04208 0.73386 0.87891 0.0
C1526 C 0.03305 0.75648 0.88092 0.0
C1527 C 0.04825 0.77591 0.88246 0.0
C1528 C 0.07252 0.77277 0.88206 0.0
C1529 C 0.16929 0.74538 0.83199 0.0
C1530 C 0.17399 0.76877 0.82902 0.0
C1531 C 0.15913 0.7403 0.84441 0.0
C1532 C 0.15327 0.75846 0.85409 0.0
C1533 C 0.15727 0.78191 0.85105 0.0
C1534 C 0.16779 0.78704 0.83864 0.0
C1535 C 0.14313 0.75237 0.86736 0.0
C1536 C 0.1193 0.75686 0.86912 0.0
C1537 C 0.15597 0.73894 0.87712 0.0
C1538 C 0.18143 0.73437 0.87594 0.0
C1539 C 0.19736 0.75311 0.87509 0.0
C1540 C 0.22127 0.74871 0.87379 0.0
C1541 C 0.22949 0.72564 0.8734 0.0
C1542 C 0.21383 0.70692 0.87434 0.0
C1543 C 0.18989 0.71122 0.87563 0.0
H1544 H 0.24801 0.72228 0.87239 0.0
H1545 H 0.01426 0.75895 0.88124 0.0
H1546 H 0.52216 0.58532 0.14408 0.0
H1547 H 0.49923 0.60971 0.12834 0.0
H1548 H 0.43592 0.59124 0.14804 0.0
H1549 H 0.45894 0.56634 0.16378 0.0
H1550 H 0.42859 0.58778 0.12052 0.0
H1551 H 0.46022 0.64823 0.15303 0.0
H1552 H 0.49053 0.6706 0.16789 0.0
H1553 H 0.52766 0.68445 0.13134 0.0
H1554 H 0.49767 0.66216 0.11624 0.0
H1555 H 0.37038 0.67177 0.07605 0.0
H1556 H 0.38453 0.65143 0.0969 0.0
H1557 H 0.45528 0.65411 0.08323 0.0
H1558 H 0.44146 0.67427 0.06256 0.0
H1559 H 0.4529 0.66875 0.11095 0.0
H1560 H 0.42363 0.60395 0.07917 0.0
H1561 H 0.39312 0.58203 0.06427 0.0
H1562 H 0.35107 0.57686 0.09993 0.0
H1563 H 0.38123 0.59903 0.11501 0.0
C1564 C 0.50342 0.58674 0.14524 0.0
C1565 C 0.49237 0.57402 0.15523 0.0
C1566 C 0.4903 0.60076 0.13624 0.0
C1567 C 0.46587 0.6027 0.13715 0.0
C1568 C 0.45476 0.59011 0.14718 0.0
C1569 C 0.4679 0.57587 0.15614 0.0
C1570 C 0.45202 0.61676 0.12701 0.0
C1571 C 0.43355 0.6057 0.11866 0.0
C1572 C 0.45859 0.64006 0.12445 0.0
C1573 C 0.47675 0.65339 0.13351 0.0
C1574 C 0.47494 0.65591 0.14817 0.0
C1575 C 0.49204 0.66859 0.15664 0.0
C1576 C 0.51104 0.67883 0.15058 0.0
C1577 C 0.51294 0.6765 0.13602 0.0
C1578 C 0.49586 0.66391 0.1275 0.0
C1579 C 0.38892 0.66788 0.07747 0.0
C1580 C 0.40479 0.67464 0.06765 0.0
C1581 C 0.39696 0.65627 0.08937 0.0
C1582 C 0.42097 0.6513 0.09161 0.0
C1583 C 0.43672 0.65789 0.08175 0.0
C1584 C 0.42873 0.66934 0.06989 0.0
C1585 C 0.43012 0.63947 0.10422 0.0
C1586 C 0.44765 0.65102 0.11304 0.0
C1587 C 0.42263 0.6167 0.10723 0.0
C1588 C 0.40453 0.60341 0.09817 0.0
C1589 C 0.40778 0.59833 0.0838 0.0
C1590 C 0.39057 0.58582 0.07533 0.0
C1591 C 0.37013 0.57813 0.08114 0.0
C1592 C 0.36688 0.58287 0.09544 0.0
C1593 C 0.38403 0.5954 0.10395 0.0
H1594 H 0.35683 0.56843 0.07457 0.0
H1595 H 0.52425 0.68862 0.15715 0.0
H1596 H 0.51392 0.99695 0.40279 0.0
H1597 H 0.49191 0.97356 0.38421 0.0
H1598 H 0.50836 0.91042 0.40561 0.0
H1599 H 0.53153 0.93391 0.42391 0.0
H1600 H 0.51629 0.90232 0.38027 0.0
H1601 H 0.45003 0.93393 0.40174 0.0
H1602 H 0.42458 0.96375 0.41269 0.0
H1603 H 0.41865 0.9992 0.37415 0.0
H1604 H 0.44434 0.9698 0.36301 0.0
H1605 H 0.44028 0.84211 0.32511 0.0
H1606 H 0.4513 0.85939 0.34882 0.0
H1607 H 0.47279 0.92334 0.33098 0.0
H1608 H 0.46257 0.90603 0.3073 0.0
H1609 H 0.44068 0.92548 0.35677 0.0
H1610 H 0.51421 0.89483 0.33807 0.0
H1611 H 0.53781 0.8626 0.32795 0.0
H1612 H 0.52605 0.82178 0.36339 0.0
H1613 H 0.50208 0.8537 0.37361 0.0
C1614 C 0.51237 0.97814 0.40368 0.0
C1615 C 0.52429 0.9672 0.41478 0.0
C1616 C 0.49967 0.96474 0.39308 0.0
C1617 C 0.49808 0.94016 0.39355 0.0
C1618 C 0.50928 0.92932 0.40498 0.0
C1619 C 0.52243 0.94271 0.41544 0.0
C1620 C 0.48674 0.92581 0.38144 0.0
C1621 C 0.49946 0.90713 0.37539 0.0
C1622 C 0.46478 0.93192 0.37494 0.0
C1623 C 0.44925 0.94969 0.38156 0.0
C1624 C 0.44344 0.94817 0.39562 0.0
C1625 C 0.42894 0.96499 0.40186 0.0
C1626 C 0.42003 0.98337 0.39412 0.0
C1627 C 0.42556 0.98495 0.38012 0.0
C1628 C 0.44006 0.96818 0.37383 0.0
C1629 C 0.44728 0.85988 0.32627 0.0
C1630 C 0.45072 0.8727 0.31438 0.0
C1631 C 0.45351 0.86969 0.33978 0.0
C1632 C 0.46274 0.89261 0.34156 0.0
C1633 C 0.46558 0.90565 0.32976 0.0
C1634 C 0.45989 0.89568 0.31626 0.0
C1635 C 0.47059 0.90278 0.35565 0.0
C1636 C 0.45721 0.92057 0.36197 0.0
C1637 C 0.49161 0.89553 0.3626 0.0
C1638 C 0.50612 0.87648 0.3565 0.0
C1639 C 0.51646 0.87888 0.34362 0.0
C1640 C 0.52994 0.8607 0.33789 0.0
C1641 C 0.53335 0.84012 0.34499 0.0
C1642 C 0.52335 0.83771 0.35788 0.0
C1643 C 0.50982 0.85584 0.36365 0.0
H1644 H 0.54381 0.82606 0.34054 0.0
H1645 H 0.40881 0.99638 0.39897 0.0
H1646 H 0.15806 0.06495 0.65158 0.0
H1647 H 0.1822 0.04372 0.63495 0.0
H1648 H 0.23155 0.02707 0.66885 0.0
H1649 H 0.20708 0.04821 0.68578 0.0
H1650 H 0.25292 0.04119 0.64396 0.0
H1651 H 0.19683 0.98524 0.65698 0.0
H1652 H 0.1575 0.97071 0.66192 0.0
H1653 H 0.13306 0.98006 0.61918 0.0
H1654 H 0.17215 0.995 0.61403 0.0
H1655 H 0.29981 0.95458 0.59325 0.0
H1656 H 0.28643 0.97537 0.61461 0.0
H1657 H 0.22473 0.99829 0.59101 0.0
H1658 H 0.23776 0.97762 0.56984 0.0
H1659 H 0.21386 0.97621 0.61427 0.0
H1660 H 0.26852 0.03635 0.60215 0.0
H1661 H 0.30754 0.05174 0.59723 0.0
H1662 H 0.33476 0.03426 0.63821 0.0
H1663 H 0.29594 0.01847 0.64331 0.0
C1664 C 0.1739 0.0566 0.65557 0.0
C1665 C 0.18039 0.05787 0.67005 0.0
C1666 C 0.18778 0.04461 0.64603 0.0
C1667 C 0.20847 0.03357 0.6507 0.0
C1668 C 0.21559 0.03546 0.66507 0.0
C1669 C 0.2016 0.0475 0.6747 0.0
C1670 C 0.22186 0.01944 0.64042 0.0
C1671 C 0.24464 0.02664 0.63764 0.0
C1672 C 0.21093 0.00059 0.63215 0.0
C1673 C 0.18742 0.99136 0.63515 0.0
C1674 C 0.18304 0.98434 0.64866 0.0
C1675 C 0.16078 0.97602 0.65149 0.0
C1676 C 0.14278 0.9745 0.64088 0.0
C1677 C 0.14702 0.98125 0.6274 0.0
C1678 C 0.16924 0.98961 0.62451 0.0
C1679 C 0.28362 0.96442 0.59259 0.0
C1680 C 0.26972 0.96429 0.5799 0.0
C1681 C 0.27601 0.97627 0.60479 0.0
C1682 C 0.2545 0.98822 0.6044 0.0
C1683 C 0.24127 0.989 0.59157 0.0
C1684 C 0.24879 0.9772 0.57946 0.0
C1685 C 0.24457 0.99855 0.61738 0.0
C1686 C 0.22238 0.99048 0.62072 0.0
C1687 C 0.25611 0.0165 0.62612 0.0
C1688 C 0.27942 0.02595 0.62304 0.0
C1689 C 0.28289 0.03558 0.61006 0.0
C1690 C 0.30495 0.04442 0.60725 0.0
C1691 C 0.32364 0.0439 0.61738 0.0
C1692 C 0.32029 0.0346 0.63036 0.0
C1693 C 0.29826 0.02571 0.63322 0.0
H1694 H 0.34071 0.05077 0.61519 0.0
H1695 H 0.12556 0.96805 0.6431 0.0
H1696 H 0.56297 0.42583 0.86991 0.0
H1697 H 0.58452 0.39894 0.88487 0.0
H1698 H 0.63692 0.45285 0.89603 0.0
H1699 H 0.61646 0.47915 0.88036 0.0
H1700 H 0.65767 0.41303 0.89484 0.0
H1701 H 0.58768 0.44242 0.91631 0.0
H1702 H 0.54504 0.44867 0.91766 0.0
H1703 H 0.53311 0.37401 0.91489 0.0
H1704 H 0.57569 0.36734 0.91336 0.0
H1705 H 0.68401 0.41036 0.96802 0.0
H1706 H 0.66346 0.41826 0.94569 0.0
H1707 H 0.65679 0.34388 0.93501 0.0
H1708 H 0.67811 0.33565 0.9574 0.0
H1709 H 0.61255 0.38329 0.9332 0.0
H1710 H 0.68702 0.35656 0.91603 0.0
H1711 H 0.73033 0.35493 0.91726 0.0
H1712 H 0.7341 0.42977 0.91435 0.0
H1713 H 0.6908 0.43187 0.91334 0.0
C1714 C 0.57943 0.43177 0.87523 0.0
C1715 C 0.58775 0.45486 0.87409 0.0
C1716 C 0.5916 0.41643 0.88393 0.0
C1717 C 0.61205 0.42403 0.89187 0.0
C1718 C 0.62109 0.44657 0.89011 0.0
C1719 C 0.60917 0.46175 0.88126 0.0
C1720 C 0.62325 0.40947 0.90281 0.0
C1721 C 0.64771 0.40636 0.90314 0.0
C1722 C 0.61033 0.40041 0.9136 0.0
C1723 C 0.58478 0.4044 0.91453 0.0
C1724 C 0.57593 0.42735 0.91589 0.0
C1725 C 0.55179 0.43097 0.9167 0.0
C1726 C 0.53637 0.41175 0.91631 0.0
C1727 C 0.54507 0.38887 0.91515 0.0
C1728 C 0.5692 0.38517 0.91431 0.0
C1729 C 0.67812 0.3956 0.961 0.0
C1730 C 0.68267 0.37236 0.96448 0.0
C1731 C 0.66644 0.40018 0.94823 0.0
C1732 C 0.65879 0.38166 0.93875 0.0
C1733 C 0.66271 0.35836 0.94224 0.0
C1734 C 0.67485 0.35372 0.95499 0.0
C1735 C 0.64679 0.38733 0.92525 0.0
C1736 C 0.62226 0.38908 0.92455 0.0
C1737 C 0.65966 0.39559 0.91429 0.0
C1738 C 0.68568 0.39437 0.91472 0.0
C1739 C 0.69709 0.37269 0.91578 0.0
C1740 C 0.72163 0.37168 0.91641 0.0
C1741 C 0.73496 0.39224 0.91592 0.0
C1742 C 0.72376 0.41386 0.91475 0.0
C1743 C 0.69922 0.41496 0.91412 0.0
H1744 H 0.75396 0.39143 0.91641 0.0
H1745 H 0.51768 0.41458 0.91694 0.0
H1746 H 0.71782 0.09811 0.12129 0.0
H1747 H 0.74156 0.11937 0.14026 0.0
H1748 H 0.67883 0.15155 0.15553 0.0
H1749 H 0.65524 0.13089 0.13644 0.0
H1750 H 0.71451 0.18137 0.16003 0.0
H1751 H 0.70008 0.0994 0.16785 0.0
H1752 H 0.70145 0.05674 0.16186 0.0
H1753 H 0.7768 0.06017 0.16229 0.0
H1754 H 0.77582 0.10294 0.16809 0.0
H1755 H 0.75375 0.15806 0.23702 0.0
H1756 H 0.73737 0.14538 0.2136 0.0
H1757 H 0.77912 0.19789 0.19544 0.0
H1758 H 0.79538 0.21102 0.21893 0.0
H1759 H 0.75726 0.12712 0.19118 0.0
H1760 H 0.74741 0.21647 0.16597 0.0
H1761 H 0.74166 0.25834 0.173 0.0
H1762 H 0.70826 0.2389 0.20989 0.0
H1763 H 0.71352 0.19693 0.20299 0.0
C1764 C 0.70924 0.11014 0.12854 0.0
C1765 C 0.6847 0.11272 0.12749 0.0
C1766 C 0.72277 0.12224 0.13936 0.0
C1767 C 0.7119 0.13666 0.14949 0.0
C1768 C 0.68761 0.14052 0.14785 0.0
C1769 C 0.67413 0.1287 0.13693 0.0
C1770 C 0.7251 0.14556 0.16262 0.0
C1771 C 0.72409 0.16957 0.16677 0.0
C1772 C 0.73724 0.13011 0.17155 0.0
C1773 C 0.73786 0.10437 0.16825 0.0
C1774 C 0.71692 0.09106 0.16659 0.0
C1775 C 0.71763 0.06687 0.16323 0.0
C1776 C 0.7392 0.05576 0.16166 0.0
C1777 C 0.7601 0.06881 0.16349 0.0
C1778 C 0.75949 0.09302 0.16681 0.0
C1779 C 0.75949 0.16694 0.22807 0.0
C1780 C 0.77586 0.18558 0.22986 0.0
C1781 C 0.75015 0.15961 0.21467 0.0
C1782 C 0.75692 0.17077 0.20278 0.0
C1783 C 0.77345 0.18922 0.20449 0.0
C1784 C 0.78279 0.19662 0.21792 0.0
C1785 C 0.74652 0.1629 0.18867 0.0
C1786 C 0.74809 0.13904 0.18432 0.0
C1787 C 0.7344 0.17841 0.17977 0.0
C1788 C 0.73112 0.20358 0.18403 0.0
C1789 C 0.73881 0.22114 0.17557 0.0
C1790 C 0.73563 0.24488 0.17952 0.0
C1791 C 0.72463 0.25126 0.19188 0.0
C1792 C 0.71682 0.23392 0.20033 0.0
C1793 C 0.71994 0.21016 0.19641 0.0
H1794 H 0.7221 0.26964 0.19489 0.0
H1795 H 0.73971 0.03703 0.15906 0.0
H1796 H 0.05901 0.1171 0.40644 0.0
H1797 H 0.03491 0.14071 0.42209 0.0
H1798 H 0.06591 0.20412 0.40842 0.0
H1799 H 0.09024 0.18047 0.39271 0.0
H1800 H 0.06427 0.20644 0.43621 0.0
H1801 H 0.00928 0.1886 0.39779 0.0
H1802 H 0.98731 0.16393 0.37933 0.0
H1803 H 0.95689 0.12454 0.41087 0.0
H1804 H 0.97895 0.14875 0.42953 0.0
H1805 H 0.97891 0.27106 0.47641 0.0
H1806 H 0.00115 0.25655 0.45638 0.0
H1807 H 0.98614 0.18512 0.46589 0.0
H1808 H 0.96419 0.1993 0.4858 0.0
H1809 H 0.97833 0.19308 0.43747 0.0
H1810 H 0.03836 0.20851 0.47539 0.0
H1811 H 0.06044 0.23381 0.49352 0.0
H1812 H 0.08072 0.27935 0.4619 0.0
H1813 H 0.05848 0.25445 0.44361 0.0
C1814 C 0.06048 0.13607 0.4066 0.0
C1815 C 0.07645 0.14691 0.39828 0.0
C1816 C 0.04668 0.14957 0.41556 0.0
C1817 C 0.04833 0.17423 0.41628 0.0
C1818 C 0.0643 0.18514 0.40801 0.0
C1819 C 0.07822 0.17161 0.39907 0.0
C1820 C 0.03394 0.18837 0.42609 0.0
C1821 C 0.0454 0.20389 0.43629 0.0
C1822 C 0.00932 0.185 0.42626 0.0
C1823 C 0.99591 0.17042 0.41507 0.0
C1824 C 0.99803 0.17457 0.4008 0.0
C1825 C 0.98554 0.16068 0.39029 0.0
C1826 C 0.97074 0.14265 0.39392 0.0
C1827 C 0.96837 0.13851 0.40807 0.0
C1828 C 0.98084 0.15233 0.41862 0.0
C1829 C 0.9804 0.25228 0.47422 0.0
C1830 C 0.96986 0.23633 0.48272 0.0
C1831 C 0.9931 0.24403 0.4628 0.0
C1832 C 0.99526 0.21976 0.45968 0.0
C1833 C 0.9846 0.20391 0.46809 0.0
C1834 C 0.97216 0.21208 0.47952 0.0
C1835 C 0.0088 0.21048 0.44778 0.0
C1836 C 0.99713 0.19591 0.43719 0.0
C1837 C 0.03315 0.21489 0.44718 0.0
C1838 C 0.04651 0.22981 0.45817 0.0
C1839 C 0.04735 0.22404 0.47233 0.0
C1840 C 0.05993 0.23827 0.48262 0.0
C1841 C 0.07191 0.25822 0.47887 0.0
C1842 C 0.07139 0.26392 0.4648 0.0
C1843 C 0.05881 0.24976 0.45446 0.0
H1844 H 0.08165 0.26921 0.48685 0.0
H1845 H 0.96109 0.13192 0.38577 0.0
H1846 H 0.97007 0.54902 0.63469 0.0
H1847 H 0.94723 0.52499 0.64924 0.0
H1848 H 0.88386 0.56021 0.63556 0.0
H1849 H 0.90677 0.58446 0.62077 0.0
H1850 H 0.88657 0.55818 0.66333 0.0
H1851 H 0.89164 0.50246 0.62525 0.0
H1852 H 0.90952 0.47892 0.60622 0.0
H1853 H 0.95504 0.44608 0.63659 0.0
H1854 H 0.93769 0.46966 0.65581 0.0
H1855 H 0.83569 0.4753 0.70912 0.0
H1856 H 0.84196 0.49486 0.68726 0.0
H1857 H 0.91673 0.48529 0.69376 0.0
H1858 H 0.91076 0.46632 0.71552 0.0
H1859 H 0.89723 0.4721 0.66566 0.0
H1860 H 0.89623 0.53594 0.70255 0.0
H1861 H 0.87709 0.55948 0.72112 0.0
H1862 H 0.82092 0.57604 0.69144 0.0
H1863 H 0.83961 0.55232 0.67273 0.0
C1864 C 0.9512 0.55133 0.63447 0.0
C1865 C 0.94024 0.56858 0.62648 0.0
C1866 C 0.93813 0.53754 0.64282 0.0
C1867 C 0.91375 0.54052 0.64333 0.0
C1868 C 0.90263 0.55755 0.63527 0.0
C1869 C 0.91576 0.57142 0.62688 0.0
C1870 C 0.90054 0.52691 0.65315 0.0
C1871 C 0.88834 0.53926 0.66359 0.0
C1872 C 0.90277 0.50221 0.65351 0.0
C1873 C 0.91338 0.48794 0.64199 0.0
C1874 C 0.90558 0.49035 0.62788 0.0
C1875 C 0.9156 0.47697 0.61705 0.0
C1876 C 0.93341 0.46103 0.62019 0.0
C1877 C 0.94122 0.45842 0.63417 0.0
C1878 C 0.93126 0.47176 0.64504 0.0
C1879 C 0.85343 0.47741 0.70585 0.0
C1880 C 0.87274 0.4694 0.71406 0.0
C1881 C 0.85697 0.48852 0.69339 0.0
C1882 C 0.8798 0.49138 0.68892 0.0
C1883 C 0.89898 0.48312 0.69701 0.0
C1884 C 0.89552 0.47243 0.7095 0.0
C1885 C 0.88431 0.50356 0.67604 0.0
C1886 C 0.89486 0.4909 0.66507 0.0
C1887 C 0.88028 0.52787 0.67508 0.0
C1888 C 0.86912 0.54211 0.68631 0.0
C1889 C 0.87968 0.54441 0.70003 0.0
C1890 C 0.86895 0.55783 0.71056 0.0
C1891 C 0.84775 0.56917 0.70747 0.0
C1892 C 0.8373 0.56719 0.69383 0.0
C1893 C 0.84795 0.55377 0.68326 0.0
H1894 H 0.83947 0.57956 0.71564 0.0
H1895 H 0.94113 0.45067 0.61179 0.0
H1896 H 0.68091 0.13401 0.4125 0.0
H1897 H 0.69917 0.15274 0.39333 0.0
H1898 H 0.68388 0.09108 0.36585 0.0
H1899 H 0.66501 0.07253 0.38471 0.0
H1900 H 0.73011 0.10737 0.36522 0.0
H1901 H 0.65079 0.13819 0.36276 0.0
H1902 H 0.61709 0.15912 0.37253 0.0
H1903 H 0.65966 0.22133 0.38103 0.0
H1904 H 0.69372 0.20064 0.37147 0.0
H1905 H 0.74642 0.13906 0.2974 0.0
H1906 H 0.72806 0.12725 0.31836 0.0
H1907 H 0.74068 0.19656 0.33817 0.0
H1908 H 0.75857 0.20877 0.31691 0.0
H1909 H 0.69894 0.17987 0.34477 0.0
H1910 H 0.77726 0.15143 0.34607 0.0
H1911 H 0.81207 0.13144 0.33707 0.0
H1912 H 0.77368 0.06613 0.33214 0.0
H1913 H 0.7385 0.08581 0.34092 0.0
C1914 C 0.68121 0.12451 0.40234 0.0
C1915 C 0.67151 0.1017 0.40018 0.0
C1916 C 0.69173 0.13523 0.39142 0.0
C1917 C 0.6928 0.1233 0.37817 0.0
C1918 C 0.68333 0.10052 0.37602 0.0
C1919 C 0.67268 0.08989 0.38686 0.0
C1920 C 0.70387 0.1343 0.36647 0.0
C1921 C 0.7232 0.12312 0.36067 0.0
C1922 C 0.69537 0.15533 0.36092 0.0
C1923 C 0.67486 0.1678 0.36655 0.0
C1924 C 0.65301 0.15628 0.36682 0.0
C1925 C 0.63384 0.1681 0.37229 0.0
C1926 C 0.63625 0.19152 0.37743 0.0
C1927 C 0.65783 0.20318 0.37706 0.0
C1928 C 0.67707 0.19142 0.37161 0.0
C1929 C 0.74508 0.15189 0.30615 0.0
C1930 C 0.75416 0.17477 0.30557 0.0
C1931 C 0.73468 0.14508 0.31816 0.0
C1932 C 0.73356 0.16083 0.32999 0.0
C1933 C 0.74154 0.18406 0.32921 0.0
C1934 C 0.75173 0.19101 0.31707 0.0
C1935 C 0.72481 0.15253 0.34323 0.0
C1936 C 0.70602 0.16425 0.34938 0.0
C1937 C 0.73401 0.13212 0.34926 0.0
C1938 C 0.75518 0.12015 0.34406 0.0
C1939 C 0.77619 0.13284 0.34298 0.0
C1940 C 0.79599 0.12156 0.33793 0.0
C1941 C 0.79507 0.09754 0.33401 0.0
C1942 C 0.77436 0.08474 0.33517 0.0
C1943 C 0.75449 0.09594 0.3402 0.0
H1944 H 0.81043 0.08884 0.3301 0.0
H1945 H 0.62138 0.20065 0.38167 0.0
H1946 H 0.02417 0.22496 0.6715 0.0
H1947 H 0.00601 0.24521 0.65156 0.0
H1948 H 0.031 0.19098 0.62278 0.0
H1949 H 0.04899 0.17081 0.64252 0.0
H1950 H 0.03993 0.2365 0.61487 0.0
H1951 H 0.97622 0.19039 0.63126 0.0
H1952 H 0.94853 0.17844 0.6485 0.0
H1953 H 0.92174 0.2487 0.65194 0.0
H1954 H 0.94971 0.26122 0.63498 0.0
H1955 H 0.97574 0.23531 0.55022 0.0
H1956 H 0.99416 0.22724 0.5731 0.0
H1957 H 0.95472 0.28325 0.59274 0.0
H1958 H 0.9358 0.29125 0.56982 0.0
H1959 H 0.95355 0.24476 0.60739 0.0
H1960 H 0.01336 0.29017 0.58909 0.0
H1961 H 0.04036 0.30265 0.5716 0.0
H1962 H 0.07426 0.23556 0.57181 0.0
H1963 H 0.04724 0.22253 0.58915 0.0
C1964 C 0.02574 0.21745 0.6609 0.0
C1965 C 0.03782 0.19626 0.65852 0.0
C1966 C 0.01536 0.22896 0.64956 0.0
C1967 C 0.01719 0.21954 0.63572 0.0
C1968 C 0.02944 0.19854 0.63338 0.0
C1969 C 0.03952 0.18694 0.64466 0.0
C1970 C 0.00636 0.23122 0.62351 0.0
C1971 C 0.02104 0.23829 0.61319 0.0
C1972 C 0.98179 0.23429 0.62162 0.0
C1973 C 0.96531 0.22682 0.63201 0.0
C1974 C 0.96467 0.20337 0.63585 0.0
C1975 C 0.94888 0.19648 0.64555 0.0
C1976 C 0.93343 0.21281 0.65134 0.0
C1977 C 0.93375 0.23607 0.64746 0.0
C1978 C 0.94961 0.24309 0.63784 0.0
C1979 C 0.97102 0.24604 0.55937 0.0
C1980 C 0.95429 0.26395 0.55816 0.0
C1981 C 0.98169 0.24148 0.57245 0.0
C1982 C 0.97607 0.25487 0.58461 0.0
C1983 C 0.95938 0.27277 0.58348 0.0
C1984 C 0.94862 0.27733 0.57037 0.0
C1985 C 0.98708 0.24937 0.5985 0.0
C1986 C 0.97247 0.24349 0.60915 0.0
C1987 C 0.01175 0.24755 0.60077 0.0
C1988 C 0.02816 0.25532 0.59037 0.0
C1989 C 0.02646 0.27801 0.58534 0.0
C1990 C 0.04179 0.28519 0.57546 0.0
C1991 C 0.05899 0.26989 0.57058 0.0
C1992 C 0.06093 0.24739 0.5756 0.0
C1993 C 0.04563 0.24011 0.58547 0.0
H1994 H 0.07084 0.27549 0.56293 0.0
H1995 H 0.92118 0.20742 0.65882 0.0
H1996 H 0.96698 0.52813 0.8915 0.0
H1997 H 0.94865 0.50819 0.87035 0.0
H1998 H 0.88809 0.55286 0.87347 0.0
H1999 H 0.90579 0.57214 0.89518 0.0
H2000 H 0.87457 0.50938 0.86487 0.0
H2001 H 0.93081 0.56482 0.85128 0.0
H2002 H 0.9695 0.58446 0.85135 0.0
H2003 H 0.00046 0.51966 0.83676 0.0
H2004 H 0.962 0.49955 0.83678 0.0
H2005 H 0.87609 0.49213 0.78234 0.0
H2006 H 0.88738 0.51322 0.80473 0.0
H2007 H 0.87187 0.45138 0.82672 0.0
H2008 H 0.85969 0.43044 0.80434 0.0
H2009 H 0.92138 0.50649 0.82252 0.0
H2010 H 0.85713 0.46628 0.85998 0.0
H2011 H 0.8166 0.45054 0.85902 0.0
H2012 H 0.79778 0.49237 0.82413 0.0
H2013 H 0.83808 0.50861 0.82501 0.0
C2014 C 0.94954 0.53343 0.88792 0.0
C2015 C 0.93793 0.55187 0.89505 0.0
C2016 C 0.93918 0.52215 0.8757 0.0
C2017 C 0.91719 0.52932 0.87018 0.0
C2018 C 0.90514 0.54713 0.8775 0.0
C2019 C 0.91541 0.5583 0.88983 0.0
C2020 C 0.90734 0.5189 0.85644 0.0
C2021 C 0.88476 0.50874 0.85559 0.0
C2022 C 0.92041 0.51859 0.84425 0.0
C2023 C 0.94356 0.53064 0.84415 0.0
C2024 C 0.9459 0.55472 0.84818 0.0
C2025 C 0.96778 0.56594 0.84819 0.0
C2026 C 0.98743 0.5533 0.84409 0.0
C2027 C 0.98523 0.52942 0.83994 0.0
C2028 C 0.96339 0.51811 0.83993 0.0
C2029 C 0.8749 0.48306 0.79195 0.0
C2030 C 0.86702 0.4596 0.79157 0.0
C2031 C 0.88139 0.49514 0.80475 0.0
C2032 C 0.88035 0.48399 0.81745 0.0
C2033 C 0.8724 0.46056 0.81711 0.0
C2034 C 0.86556 0.44855 0.8043 0.0
C2035 C 0.88869 0.49657 0.83093 0.0
C2036 C 0.91108 0.50713 0.83175 0.0
C2037 C 0.87512 0.49782 0.84294 0.0
C2038 C 0.85071 0.48848 0.84248 0.0
C2039 C 0.84431 0.4722 0.85215 0.0
C2040 C 0.82138 0.46318 0.85161 0.0
C2041 C 0.80465 0.47039 0.84149 0.0
C2042 C 0.81078 0.48673 0.83193 0.0
C2043 C 0.83367 0.49583 0.83243 0.0
H2044 H 0.78692 0.46335 0.84107 0.0
H2045 H 0.00436 0.56202 0.84411 0.0
H2046 H 0.59267 0.42519 0.12709 0.0
H2047 H 0.61155 0.40654 0.1071 0.0
H2048 H 0.67058 0.388 0.13454 0.0
H2049 H 0.65172 0.40684 0.15468 0.0
H2050 H 0.68527 0.40725 0.11204 0.0
H2051 H 0.63171 0.34569 0.11969 0.0
H2052 H 0.59354 0.32753 0.12381 0.0
H2053 H 0.56518 0.34904 0.08391 0.0
H2054 H 0.60309 0.36764 0.07964 0.0
H2055 H 0.7349 0.34407 0.05404 0.0
H2056 H 0.71759 0.35174 0.07674 0.0
H2057 H 0.65626 0.38077 0.05574 0.0
H2058 H 0.67333 0.37319 0.03304 0.0
H2059 H 0.64517 0.35119 0.07657 0.0
H2060 H 0.6976 0.41671 0.07071 0.0
H2061 H 0.73586 0.43487 0.06674 0.0
H2062 H 0.76651 0.40484 0.10373 0.0
H2063 H 0.72847 0.38623 0.10781 0.0
C2064 C 0.60943 0.4167 0.12894 0.0
C2065 C 0.62065 0.41738 0.14249 0.0
C2066 C 0.62023 0.40604 0.11749 0.0
C2067 C 0.64236 0.39558 0.11933 0.0
C2068 C 0.65348 0.39592 0.13287 0.0
C2069 C 0.64272 0.4067 0.14436 0.0
C2070 C 0.65437 0.38571 0.10693 0.0
C2071 C 0.6767 0.39457 0.10445 0.0
C2072 C 0.64307 0.36946 0.0969 0.0
C2073 C 0.62023 0.3582 0.09939 0.0
C2074 C 0.61729 0.34669 0.11184 0.0
C2075 C 0.59571 0.3363 0.11419 0.0
C2076 C 0.57694 0.33716 0.10414 0.0
C2077 C 0.57974 0.34839 0.09169 0.0
C2078 C 0.60129 0.35883 0.08929 0.0
C2079 C 0.71768 0.352 0.05424 0.0
C2080 C 0.70558 0.3582 0.04173 0.0
C2081 C 0.70785 0.35638 0.06722 0.0
C2082 C 0.68574 0.36697 0.06791 0.0
C2083 C 0.67334 0.37256 0.05543 0.0
C2084 C 0.6832 0.36832 0.04246 0.0
C2085 C 0.67574 0.37308 0.08163 0.0
C2086 C 0.65383 0.36353 0.08432 0.0
C2087 C 0.68745 0.3886 0.09189 0.0
C2088 C 0.71028 0.39985 0.08947 0.0
C2089 C 0.71255 0.41382 0.07793 0.0
C2090 C 0.73418 0.42422 0.07567 0.0
C2091 C 0.75362 0.42095 0.08495 0.0
C2092 C 0.75145 0.40732 0.09653 0.0
C2093 C 0.72986 0.39685 0.09883 0.0
H2094 H 0.77035 0.42902 0.08319 0.0
H2095 H 0.56024 0.3291 0.10598 0.0
loop_
_geom_bond_atom_site_label_1
_geom_bond_atom_site_label_2
_geom_bond_distance
_geom_bond_site_symmetry_2
_ccdc_geom_bond_type
H0 C19 0.949 . S
H1 C20 0.950 . S
H2 C22 0.950 . S
H3 C23 0.950 . S
H4 C25 0.950 . S
H5 C28 0.950 . S
H6 C29 0.950 . S
H7 C31 0.951 . S
H8 C32 0.949 . S
H9 C34 0.949 . S
H10 C35 0.950 . S
H11 C37 0.950 . S
H12 C38 0.950 . S
H13 C40 0.950 . S
H14 C43 0.950 . S
H15 C44 0.950 . S
H16 C46 0.951 . S
H17 C47 0.949 . S
C18 C19 1.376 . S
C18 C23 1.386 . S
C18 C24 1.483 . S
C19 H0 0.949 . S
C19 C18 1.376 . S
C19 C20 1.397 . S
C20 H1 0.950 . S
C20 C19 1.397 . S
C20 C21 1.391 . S
C21 C20 1.391 . S
C21 C22 1.405 . S
C22 H2 0.950 . S
C22 C21 1.405 . S
C22 C23 1.367 . S
C23 H3 0.950 . S
C23 C18 1.386 . S
C23 C22 1.367 . S
C24 C18 1.483 . S
C24 C25 1.382 . S
C24 C26 1.403 . S
C25 H4 0.950 . S
C25 C24 1.382 . S
C25 C41 1.411 . S
C26 C24 1.403 . S
C26 C27 1.489 . S
C26 C40 1.411 . S
C27 C26 1.489 . S
C27 C28 1.383 . S
C27 C32 1.382 . S
C28 H5 0.950 . S
C28 C27 1.383 . S
C28 C29 1.395 . S
C29 H6 0.950 . S
C29 C28 1.395 . S
C29 C30 1.288 . S
C30 C29 1.288 . S
C30 C31 1.392 . S
C31 H7 0.951 . S
C31 C30 1.392 . S
C31 C32 1.392 . S
C32 H8 0.949 . S
C32 C27 1.382 . S
C32 C31 1.392 . S
C33 C34 1.376 1_545 S
C33 C38 1.386 . S
C33 C39 1.483 . S
C34 H9 0.949 . S
C34 C33 1.376 1_565 S
C34 C35 1.397 . S
C35 H10 0.950 . S
C35 C34 1.397 . S
C35 C36 1.391 . S
C36 C35 1.391 . S
C36 C37 1.405 1_565 S
C37 H11 0.950 . S
C37 C36 1.405 1_545 S
C37 C38 1.367 . S
C38 H12 0.950 . S
C38 C33 1.386 . S
C38 C37 1.367 . S
C39 C33 1.483 . S
C39 C40 1.382 . S
C39 C41 1.403 . S
C40 H13 0.950 . S
C40 C26 1.411 . S
C40 C39 1.382 . S
C41 C25 1.411 . S
C41 C39 1.403 . S
C41 C42 1.489 . S
C42 C41 1.489 . S
C42 C43 1.383 1_545 S
C42 C47 1.382 . S
C43 H14 0.950 . S
C43 C42 1.383 1_565 S
C43 C44 1.395 . S
C44 H15 0.950 . S
C44 C43 1.395 . S
C44 C45 1.265 1_565 S
C45 C44 1.265 1_545 S
C45 C46 1.438 . S
C46 H16 0.951 . S
C46 C45 1.438 . S
C46 C47 1.392 . S
C47 H17 0.949 . S
C47 C42 1.382 . S
C47 C46 1.392 . S
H48 C67 0.949 . S
H49 C68 0.950 . S
H50 C70 0.950 . S
H51 C71 0.950 . S
H52 C73 0.950 . S
H53 C76 0.950 . S
H54 C77 0.950 . S
H55 C79 0.951 . S
H56 C80 0.949 . S
H57 C82 0.949 . S
H58 C83 0.950 . S
H59 C85 0.950 . S
H60 C86 0.950 . S
H61 C88 0.950 . S
H62 C91 0.950 . S
H63 C92 0.950 . S
H64 C94 0.951 . S
H65 C95 0.949 . S
C66 C67 1.376 . S
C66 C71 1.386 1_455 S
C66 C72 1.483 . S
C67 H48 0.949 . S
C67 C66 1.376 . S
C67 C68 1.397 . S
C68 H49 0.950 . S
C68 C67 1.397 . S
C68 C69 1.411 . S
C69 C68 1.411 . S
C69 C70 1.393 1_455 S
C70 H50 0.950 . S
C70 C69 1.393 1_655 S
C70 C71 1.367 . S
C71 H51 0.950 . S
C71 C66 1.386 1_655 S
C71 C70 1.367 . S
C72 C66 1.483 . S
C72 C73 1.382 . S
C72 C74 1.403 . S
C73 H52 0.950 . S
C73 C72 1.382 . S
C73 C89 1.411 . S
C74 C72 1.403 . S
C74 C75 1.489 . S
C74 C88 1.411 . S
C75 C74 1.489 . S
C75 C76 1.383 . S
C75 C80 1.382 1_455 S
C76 H53 0.950 . S
C76 C75 1.383 . S
C76 C77 1.395 1_455 S
C77 H54 0.950 . S
C77 C76 1.395 1_655 S
C77 C78 1.288 . S
C78 C77 1.288 . S
C78 C79 1.392 . S
C79 H55 0.951 . S
C79 C78 1.392 . S
C79 C80 1.392 . S
C80 H56 0.949 . S
C80 C75 1.382 1_655 S
C80 C79 1.392 . S
C81 C82 1.376 . S
C81 C86 1.386 . S
C81 C87 1.483 . S
C82 H57 0.949 . S
C82 C81 1.376 . S
C82 C83 1.397 . S
C83 H58 0.950 . S
C83 C82 1.397 . S
C83 C84 1.391 . S
C84 C83 1.391 . S
C84 C85 1.405 . S
C85 H59 0.950 . S
C85 C84 1.405 . S
C85 C86 1.367 . S
C86 H60 0.950 . S
C86 C81 1.386 . S
C86 C85 1.367 . S
C87 C81 1.483 . S
C87 C88 1.382 . S
C87 C89 1.403 . S
C88 H61 0.950 . S
C88 C74 1.411 . S
C88 C87 1.382 . S
C89 C73 1.411 . S
C89 C87 1.403 . S
C89 C90 1.489 . S
C90 C89 1.489 . S
C90 C91 1.383 . S
C90 C95 1.382 . S
C91 H62 0.950 . S
C91 C90 1.383 . S
C91 C92 1.395 . S
C92 H63 0.950 . S
C92 C91 1.395 . S
C92 C93 1.288 . S
C93 C92 1.288 . S
C93 C94 1.392 . S
C94 H64 0.951 . S
C94 C93 1.392 . S
C94 C95 1.392 . S
C95 H65 0.949 . S
C95 C90 1.382 . S
C95 C94 1.392 . S
H96 C115 0.949 . S
H97 C116 0.950 . S
H98 C118 0.950 . S
H99 C119 0.950 . S
H100 C121 0.950 . S
H101 C124 0.950 . S
H102 C125 0.950 . S
H103 C127 0.951 . S
H104 C128 0.949 . S
H105 C130 0.949 . S
H106 C131 0.950 . S
H107 C133 0.950 . S
H108 C134 0.950 . S
H109 C136 0.950 . S
H110 C139 0.950 . S
H111 C140 0.950 . S
H112 C142 0.951 . S
H113 C143 0.949 . S
C114 C115 1.376 . S
C114 C119 1.386 . S
C114 C120 1.483 . S
C115 H96 0.949 . S
C115 C114 1.376 . S
C115 C116 1.397 . S
C116 H97 0.950 . S
C116 C115 1.397 . S
C116 C117 1.391 . S
C117 C116 1.391 . S
C117 C118 1.405 . S
C118 H98 0.950 . S
C118 C117 1.405 . S
C118 C119 1.367 . S
C119 H99 0.950 . S
C119 C114 1.386 . S
C119 C118 1.367 . S
C120 C114 1.483 . S
C120 C121 1.382 . S
C120 C122 1.403 . S
C121 H100 0.950 . S
C121 C120 1.382 . S
C121 C137 1.411 . S
C122 C120 1.403 . S
C122 C123 1.489 . S
C122 C136 1.411 . S
C123 C122 1.489 . S
C123 C124 1.383 . S
C123 C128 1.382 . S
C124 H101 0.950 . S
C124 C123 1.383 . S
C124 C125 1.395 . S
C125 H102 0.950 . S
C125 C124 1.395 . S
C125 C126 1.288 . S
C126 C125 1.288 . S
C126 C127 1.392 . S
C127 H103 0.951 . S
C127 C126 1.392 . S
C127 C128 1.392 . S
C128 H104 0.949 . S
C128 C123 1.382 . S
C128 C127 1.392 . S
C129 C130 1.376 . S
C129 C134 1.386 . S
C129 C135 1.483 . S
C130 H105 0.949 . S
C130 C129 1.376 . S
C130 C131 1.397 . S
C131 H106 0.950 . S
C131 C130 1.397 . S
C131 C132 1.391 . S
C132 C131 1.391 . S
C132 C133 1.405 . S
C133 H107 0.950 . S
C133 C132 1.405 . S
C133 C134 1.367 . S
C134 H108 0.950 . S
C134 C129 1.386 . S
C134 C133 1.367 . S
C135 C129 1.483 . S
C135 C136 1.382 . S
C135 C137 1.403 . S
C136 H109 0.950 . S
C136 C122 1.411 . S
C136 C135 1.382 . S
C137 C121 1.411 . S
C137 C135 1.403 . S
C137 C138 1.489 . S
C138 C137 1.489 . S
C138 C139 1.383 . S
C138 C143 1.382 . S
C139 H110 0.950 . S
C139 C138 1.383 . S
C139 C140 1.395 . S
C140 H111 0.950 . S
C140 C139 1.395 . S
C140 C141 1.288 . S
C141 C140 1.288 . S
C141 C142 1.392 . S
C142 H112 0.951 . S
C142 C141 1.392 . S
C142 C143 1.392 . S
C143 H113 0.949 . S
C143 C138 1.382 . S
C143 C142 1.392 . S
H144 C163 0.949 . S
H145 C164 0.950 . S
H146 C166 0.950 . S
H147 C167 0.950 . S
H148 C169 0.950 . S
H149 C172 0.950 . S
H150 C173 0.950 . S
H151 C175 0.951 . S
H152 C176 0.949 . S
H153 C178 0.949 . S
H154 C179 0.950 . S
H155 C181 0.950 . S
H156 C182 0.950 . S
H157 C184 0.950 . S
H158 C187 0.950 . S
H159 C188 0.950 . S
H160 C190 0.951 . S
H161 C191 0.949 . S
C162 C163 1.376 . S
C162 C167 1.386 . S
C162 C168 1.483 . S
C163 H144 0.949 . S
C163 C162 1.376 . S
C163 C164 1.397 . S
C164 H145 0.950 . S
C164 C163 1.397 . S
C164 C165 1.391 . S
C165 C164 1.391 . S
C165 C166 1.405 . S
C166 H146 0.950 . S
C166 C165 1.405 . S
C166 C167 1.367 . S
C167 H147 0.950 . S
C167 C162 1.386 . S
C167 C166 1.367 . S
C168 C162 1.483 . S
C168 C169 1.382 . S
C168 C170 1.403 . S
C169 H148 0.950 . S
C169 C168 1.382 . S
C169 C185 1.411 1_565 S
C170 C168 1.403 . S
C170 C171 1.489 . S
C170 C184 1.411 1_565 S
C171 C170 1.489 . S
C171 C172 1.383 . S
C171 C176 1.382 . S
C172 H149 0.950 . S
C172 C171 1.383 . S
C172 C173 1.395 . S
C173 H150 0.950 . S
C173 C172 1.395 . S
C173 C174 1.288 . S
C174 C173 1.288 . S
C174 C175 1.392 . S
C175 H151 0.951 . S
C175 C174 1.392 . S
C175 C176 1.392 . S
C176 H152 0.949 . S
C176 C171 1.382 . S
C176 C175 1.392 . S
C177 C178 1.376 . S
C177 C182 1.386 . S
C177 C183 1.483 . S
C178 H153 0.949 . S
C178 C177 1.376 . S
C178 C179 1.397 . S
C179 H154 0.950 . S
C179 C178 1.397 . S
C179 C180 1.391 . S
C180 C179 1.391 . S
C180 C181 1.405 . S
C181 H155 0.950 . S
C181 C180 1.405 . S
C181 C182 1.367 . S
C182 H156 0.950 . S
C182 C177 1.386 . S
C182 C181 1.367 . S
C183 C177 1.483 . S
C183 C184 1.382 . S
C183 C185 1.403 . S
C184 H157 0.950 . S
C184 C170 1.411 1_545 S
C184 C183 1.382 . S
C185 C169 1.411 1_545 S
C185 C183 1.403 . S
C185 C186 1.489 . S
C186 C185 1.489 . S
C186 C187 1.383 . S
C186 C191 1.382 . S
C187 H158 0.950 . S
C187 C186 1.383 . S
C187 C188 1.395 . S
C188 H159 0.950 . S
C188 C187 1.395 . S
C188 C189 1.288 . S
C189 C188 1.288 . S
C189 C190 1.392 . S
C190 H160 0.951 . S
C190 C189 1.392 . S
C190 C191 1.392 . S
C191 H161 0.949 . S
C191 C186 1.382 . S
C191 C190 1.392 . S
H192 C211 0.949 . S
H193 C212 0.950 . S
H194 C214 0.950 . S
H195 C215 0.950 . S
H196 C217 0.950 . S
H197 C220 0.950 . S
H198 C221 0.950 . S
H199 C223 0.951 . S
H200 C224 0.949 . S
H201 C226 0.949 . S
H202 C227 0.950 . S
H203 C229 0.950 . S
H204 C230 0.950 . S
H205 C232 0.950 . S
H206 C235 0.950 . S
H207 C236 0.950 . S
H208 C238 0.951 . S
H209 C239 0.949 . S
C210 C211 1.376 . S
C210 C215 1.386 . S
C210 C216 1.483 . S
C211 H192 0.949 . S
C211 C210 1.376 . S
C211 C212 1.397 . S
C212 H193 0.950 . S
C212 C211 1.397 . S
C212 C213 1.391 . S
C213 C212 1.391 . S
C213 C214 1.405 . S
C214 H194 0.950 . S
C214 C213 1.405 . S
C214 C215 1.367 . S
C215 H195 0.950 . S
C215 C210 1.386 . S
C215 C214 1.367 . S
C216 C210 1.483 . S
C216 C217 1.382 1_455 S
C216 C218 1.403 . S
C217 H196 0.950 . S
C217 C216 1.382 1_655 S
C217 C233 1.411 . S
C218 C216 1.403 . S
C218 C219 1.489 . S
C218 C232 1.411 . S
C219 C218 1.489 . S
C219 C220 1.383 . S
C219 C224 1.382 . S
C220 H197 0.950 . S
C220 C219 1.383 . S
C220 C221 1.395 . S
C221 H198 0.950 . S
C221 C220 1.395 . S
C221 C222 1.288 . S
C222 C221 1.288 . S
C222 C223 1.392 . S
C223 H199 0.951 . S
C223 C222 1.392 . S
C223 C224 1.392 . S
C224 H200 0.949 . S
C224 C219 1.382 . S
C224 C223 1.392 . S
C225 C226 1.376 . S
C225 C230 1.386 . S
C225 C231 1.483 . S
C226 H201 0.949 . S
C226 C225 1.376 . S
C226 C227 1.397 . S
C227 H202 0.950 . S
C227 C226 1.397 . S
C227 C228 1.391 . S
C228 C227 1.391 . S
C228 C229 1.405 . S
C229 H203 0.950 . S
C229 C228 1.405 . S
C229 C230 1.367 . S
C230 H204 0.950 . S
C230 C225 1.386 . S
C230 C229 1.367 . S
C231 C225 1.483 . S
C231 C232 1.382 1_655 S
C231 C233 1.403 . S
C232 H205 0.950 . S
C232 C218 1.411 . S
C232 C231 1.382 1_455 S
C233 C217 1.411 . S
C233 C231 1.403 . S
C233 C234 1.489 . S
C234 C233 1.489 . S
C234 C235 1.383 . S
C234 C239 1.382 . S
C235 H206 0.950 . S
C235 C234 1.383 . S
C235 C236 1.395 . S
C236 H207 0.950 . S
C236 C235 1.395 . S
C236 C237 1.288 . S
C237 C236 1.288 . S
C237 C238 1.392 . S
C238 H208 0.951 . S
C238 C237 1.392 . S
C238 C239 1.392 . S
C239 H209 0.949 . S
C239 C234 1.382 . S
C239 C238 1.392 . S
H240 C259 0.949 . S
H241 C260 0.950 . S
H242 C262 0.950 . S
H243 C263 0.950 . S
H244 C265 0.950 . S
H245 C268 0.950 . S
H246 C269 0.950 . S
H247 C271 0.951 . S
H248 C272 0.949 . S
H249 C274 0.949 . S
H250 C275 0.950 . S
H251 C277 0.950 . S
H252 C278 0.950 . S
H253 C280 0.950 . S
H254 C283 0.950 . S
H255 C284 0.950 . S
H256 C286 0.951 . S
H257 C287 0.949 . S
C258 C259 1.376 . S
C258 C263 1.386 . S
C258 C264 1.483 . S
C259 H240 0.949 . S
C259 C258 1.376 . S
C259 C260 1.397 . S
C260 H241 0.950 . S
C260 C259 1.397 . S
C260 C261 1.391 . S
C261 C260 1.391 . S
C261 C262 1.405 . S
C262 H242 0.950 . S
C262 C261 1.405 . S
C262 C263 1.367 . S
C263 H243 0.950 . S
C263 C258 1.386 . S
C263 C262 1.367 . S
C264 C258 1.483 . S
C264 C265 1.382 . S
C264 C266 1.403 . S
C265 H244 0.950 . S
C265 C264 1.382 . S
C265 C281 1.411 . S
C266 C264 1.403 . S
C266 C267 1.489 . S
C266 C280 1.411 . S
C267 C266 1.489 . S
C267 C268 1.383 . S
C267 C272 1.382 . S
C268 H245 0.950 . S
C268 C267 1.383 . S
C268 C269 1.395 . S
C269 H246 0.950 . S
C269 C268 1.395 . S
C269 C270 1.288 . S
C270 C269 1.288 . S
C270 C271 1.392 . S
C271 H247 0.951 . S
C271 C270 1.392 . S
C271 C272 1.392 . S
C272 H248 0.949 . S
C272 C267 1.382 . S
C272 C271 1.392 . S
C273 C274 1.376 . S
C273 C278 1.386 . S
C273 C279 1.483 . S
C274 H249 0.949 . S
C274 C273 1.376 . S
C274 C275 1.397 . S
C275 H250 0.950 . S
C275 C274 1.397 . S
C275 C276 1.391 . S
C276 C275 1.391 . S
C276 C277 1.405 . S
C277 H251 0.950 . S
C277 C276 1.405 . S
C277 C278 1.367 . S
C278 H252 0.950 . S
C278 C273 1.386 . S
C278 C277 1.367 . S
C279 C273 1.483 . S
C279 C280 1.382 . S
C279 C281 1.403 . S
C280 H253 0.950 . S
C280 C266 1.411 . S
C280 C279 1.382 . S
C281 C265 1.411 . S
C281 C279 1.403 . S
C281 C282 1.489 . S
C282 C281 1.489 . S
C282 C283 1.383 . S
C282 C287 1.382 . S
C283 H254 0.950 . S
C283 C282 1.383 . S
C283 C284 1.395 . S
C284 H255 0.950 . S
C284 C283 1.395 . S
C284 C285 1.288 . S
C285 C284 1.288 . S
C285 C286 1.392 . S
C286 H256 0.951 . S
C286 C285 1.392 . S
C286 C287 1.392 . S
C287 H257 0.949 . S
C287 C282 1.382 . S
C287 C286 1.392 . S
H288 C307 0.949 . S
H289 C308 0.950 . S
H290 C310 0.950 . S
H291 C311 0.950 1_545 S
H292 C313 0.950 . S
H293 C316 0.950 . S
H294 C317 0.950 . S
H295 C319 0.951 . S
H296 C320 0.949 . S
H297 C322 0.949 . S
H298 C323 0.950 . S
H299 C325 0.950 . S
H300 C326 0.950 . S
H301 C328 0.950 . S
H302 C331 0.950 . S
H303 C332 0.950 . S
H304 C334 0.951 . S
H305 C335 0.949 . S
C306 C307 1.376 . S
C306 C311 1.386 . S
C306 C312 1.483 1_565 S
C307 H288 0.949 . S
C307 C306 1.376 . S
C307 C308 1.397 . S
C308 H289 0.950 . S
C308 C307 1.397 . S
C308 C309 1.391 . S
C309 C308 1.391 . S
C309 C310 1.405 . S
C310 H290 0.950 . S
C310 C309 1.405 . S
C310 C311 1.367 . S
C311 H291 0.950 1_565 S
C311 C306 1.386 . S
C311 C310 1.367 . S
C312 C306 1.483 1_545 S
C312 C313 1.382 . S
C312 C314 1.403 . S
C313 H292 0.950 . S
C313 C312 1.382 . S
C313 C329 1.411 . S
C314 C312 1.403 . S
C314 C315 1.489 . S
C314 C328 1.411 . S
C315 C314 1.489 . S
C315 C316 1.383 1_545 S
C315 C320 1.382 . S
C316 H293 0.950 . S
C316 C315 1.383 1_565 S
C316 C317 1.395 . S
C317 H294 0.950 . S
C317 C316 1.395 . S
C317 C318 1.288 . S
C318 C317 1.288 . S
C318 C319 1.392 1_565 S
C319 H295 0.951 . S
C319 C318 1.392 1_545 S
C319 C320 1.392 . S
C320 H296 0.949 . S
C320 C315 1.382 . S
C320 C319 1.392 . S
C321 C322 1.376 . S
C321 C326 1.386 . S
C321 C327 1.483 . S
C322 H297 0.949 . S
C322 C321 1.376 . S
C322 C323 1.397 . S
C323 H298 0.950 . S
C323 C322 1.397 . S
C323 C324 1.391 . S
C324 C323 1.391 . S
C324 C325 1.405 . S
C325 H299 0.950 . S
C325 C324 1.405 . S
C325 C326 1.367 . S
C326 H300 0.950 . S
C326 C321 1.386 . S
C326 C325 1.367 . S
C327 C321 1.483 . S
C327 C328 1.382 . S
C327 C329 1.403 . S
C328 H301 0.950 . S
C328 C314 1.411 . S
C328 C327 1.382 . S
C329 C313 1.411 . S
C329 C327 1.403 . S
C329 C330 1.489 . S
C330 C329 1.489 . S
C330 C331 1.383 . S
C330 C335 1.382 . S
C331 H302 0.950 . S
C331 C330 1.383 . S
C331 C332 1.395 . S
C332 H303 0.950 . S
C332 C331 1.395 . S
C332 C333 1.288 . S
C333 C332 1.288 . S
C333 C334 1.392 . S
C334 H304 0.951 . S
C334 C333 1.392 . S
C334 C335 1.392 . S
C335 H305 0.949 . S
C335 C330 1.382 . S
C335 C334 1.392 . S
H336 C355 0.949 . S
H337 C356 0.950 . S
H338 C358 0.950 . S
H339 C359 0.950 . S
H340 C361 0.950 . S
H341 C364 0.950 . S
H342 C365 0.950 . S
H343 C367 0.951 . S
H344 C368 0.949 . S
H345 C370 0.949 . S
H346 C371 0.950 . S
H347 C373 0.950 . S
H348 C374 0.950 . S
H349 C376 0.950 . S
H350 C379 0.950 . S
H351 C380 0.950 . S
H352 C382 0.951 . S
H353 C383 0.949 . S
C354 C355 1.376 . S
C354 C359 1.386 . S
C354 C360 1.483 . S
C355 H336 0.949 . S
C355 C354 1.376 . S
C355 C356 1.397 . S
C356 H337 0.950 . S
C356 C355 1.397 . S
C356 C357 1.391 . S
C357 C356 1.391 . S
C357 C358 1.405 . S
C358 H338 0.950 . S
C358 C357 1.405 . S
C358 C359 1.367 . S
C359 H339 0.950 . S
C359 C354 1.386 . S
C359 C358 1.367 . S
C360 C354 1.483 . S
C360 C361 1.382 . S
C360 C362 1.403 . S
C361 H340 0.950 . S
C361 C360 1.382 . S
C361 C377 1.411 . S
C362 C360 1.403 . S
C362 C363 1.489 . S
C362 C376 1.411 . S
C363 C362 1.489 . S
C363 C364 1.383 . S
C363 C368 1.382 . S
C364 H341 0.950 . S
C364 C363 1.383 . S
C364 C365 1.395 . S
C365 H342 0.950 . S
C365 C364 1.395 . S
C365 C366 1.288 . S
C366 C365 1.288 . S
C366 C367 1.392 . S
C367 H343 0.951 . S
C367 C366 1.392 . S
C367 C368 1.392 . S
C368 H344 0.949 . S
C368 C363 1.382 . S
C368 C367 1.392 . S
C369 C370 1.376 . S
C369 C374 1.386 . S
C369 C375 1.483 . S
C370 H345 0.949 . S
C370 C369 1.376 . S
C370 C371 1.397 . S
C371 H346 0.950 . S
C371 C370 1.397 . S
C371 C372 1.391 . S
C372 C371 1.391 . S
C372 C373 1.405 . S
C373 H347 0.950 . S
C373 C372 1.405 . S
C373 C374 1.367 . S
C374 H348 0.950 . S
C374 C369 1.386 . S
C374 C373 1.367 . S
C375 C369 1.483 . S
C375 C376 1.382 . S
C375 C377 1.403 . S
C376 H349 0.950 . S
C376 C362 1.411 . S
C376 C375 1.382 . S
C377 C361 1.411 . S
C377 C375 1.403 . S
C377 C378 1.489 . S
C378 C377 1.489 . S
C378 C379 1.383 . S
C378 C383 1.382 . S
C379 H350 0.950 . S
C379 C378 1.383 . S
C379 C380 1.395 . S
C380 H351 0.950 . S
C380 C379 1.395 . S
C380 C381 1.288 . S
C381 C380 1.288 . S
C381 C382 1.392 . S
C382 H352 0.951 . S
C382 C381 1.392 . S
C382 C383 1.392 . S
C383 H353 0.949 . S
C383 C378 1.382 . S
C383 C382 1.392 . S
O384 Cd385 2.223 . S
O384 C392 1.315 . S
Cd385 O384 2.223 . S
Cd385 O388 2.297 . S
Cd385 O389 2.439 . S
Cd385 O395 2.240 . S
Cd386 O387 2.240 . S
Cd386 O394 2.223 . S
Cd386 O396 2.297 . S
Cd386 O397 2.439 . S
O387 Cd386 2.240 . S
O387 C392 1.279 . S
O388 Cd385 2.297 . S
O388 C390 1.247 . S
O389 Cd385 2.439 . S
O389 C390 1.208 . S
C390 O388 1.247 . S
C390 O389 1.208 . S
C391 O396 1.247 . S
C391 O397 1.208 . S
C392 O384 1.315 . S
C392 O387 1.279 . S
C393 O394 1.315 . S
C393 O395 1.279 . S
O394 Cd386 2.223 . S
O394 C393 1.315 . S
O395 Cd385 2.240 . S
O395 C393 1.279 . S
O396 Cd386 2.297 . S
O396 C391 1.247 . S
O397 Cd386 2.439 . S
O397 C391 1.208 . S
O398 Cd399 2.223 . S
O398 C406 1.315 . S
Cd399 O398 2.223 . S
Cd399 O402 2.297 . S
Cd399 O403 2.439 . S
Cd399 O409 2.240 . S
Cd400 O401 2.240 . S
Cd400 O408 2.223 . S
Cd400 O410 2.297 . S
Cd400 O411 2.439 . S
O401 Cd400 2.240 . S
O401 C406 1.279 . S
O402 Cd399 2.297 . S
O402 C404 1.247 . S
O403 Cd399 2.439 . S
O403 C404 1.208 . S
C404 O402 1.247 . S
C404 O403 1.208 . S
C405 O410 1.247 . S
C405 O411 1.208 . S
C406 O398 1.315 . S
C406 O401 1.279 . S
C407 O408 1.315 . S
C407 O409 1.279 . S
O408 Cd400 2.223 . S
O408 C407 1.315 . S
O409 Cd399 2.240 . S
O409 C407 1.279 . S
O410 Cd400 2.297 . S
O410 C405 1.247 . S
O411 Cd400 2.439 . S
O411 C405 1.208 . S
O412 Cd413 2.223 . S
O412 C420 1.315 . S
Cd413 O412 2.223 . S
Cd413 O416 2.297 . S
Cd413 O417 2.439 . S
Cd413 O423 2.240 . S
Cd414 O415 2.240 . S
Cd414 O422 2.223 . S
Cd414 O424 2.297 . S
Cd414 O425 2.439 . S
O415 Cd414 2.240 . S
O415 C420 1.279 . S
O416 Cd413 2.297 . S
O416 C418 1.247 . S
O417 Cd413 2.439 . S
O417 C418 1.208 . S
C418 O416 1.247 . S
C418 O417 1.208 . S
C419 O424 1.247 . S
C419 O425 1.208 . S
C420 O412 1.315 . S
C420 O415 1.279 . S
C421 O422 1.315 . S
C421 O423 1.279 . S
O422 Cd414 2.223 . S
O422 C421 1.315 . S
O423 Cd413 2.240 . S
O423 C421 1.279 . S
O424 Cd414 2.297 . S
O424 C419 1.247 . S
O425 Cd414 2.439 . S
O425 C419 1.208 . S
O426 Cd427 2.223 . S
O426 C434 1.315 . S
Cd427 O426 2.223 . S
Cd427 O430 2.297 . S
Cd427 O431 2.439 . S
Cd427 O437 2.240 . S
Cd428 O429 2.240 . S
Cd428 O436 2.223 . S
Cd428 O438 2.297 . S
Cd428 O439 2.439 . S
O429 Cd428 2.240 . S
O429 C434 1.279 . S
O430 Cd427 2.297 . S
O430 C432 1.247 . S
O431 Cd427 2.439 . S
O431 C432 1.208 . S
C432 O430 1.247 . S
C432 O431 1.208 . S
C433 O438 1.247 . S
C433 O439 1.208 . S
C434 O426 1.315 . S
C434 O429 1.279 . S
C435 O436 1.315 . S
C435 O437 1.279 . S
O436 Cd428 2.223 . S
O436 C435 1.315 . S
O437 Cd427 2.240 . S
O437 C435 1.279 . S
O438 Cd428 2.297 . S
O438 C433 1.247 . S
O439 Cd428 2.439 . S
O439 C433 1.208 . S
O440 Cd441 2.223 . S
O440 C448 1.315 . S
Cd441 O440 2.223 . S
Cd441 O444 2.297 . S
Cd441 O445 2.439 . S
Cd441 O451 2.240 . S
Cd442 O443 2.240 . S
Cd442 O450 2.223 . S
Cd442 O452 2.297 . S
Cd442 O453 2.439 . S
O443 Cd442 2.240 . S
O443 C448 1.279 . S
O444 Cd441 2.297 . S
O444 C446 1.247 . S
O445 Cd441 2.439 . S
O445 C446 1.208 . S
C446 O444 1.247 . S
C446 O445 1.208 . S
C447 O452 1.247 . S
C447 O453 1.208 . S
C448 O440 1.315 . S
C448 O443 1.279 . S
C449 O450 1.315 . S
C449 O451 1.279 . S
O450 Cd442 2.223 . S
O450 C449 1.315 . S
O451 Cd441 2.240 . S
O451 C449 1.279 . S
O452 Cd442 2.297 . S
O452 C447 1.247 . S
O453 Cd442 2.439 . S
O453 C447 1.208 . S
O454 Cd455 2.223 . S
O454 C462 1.315 . S
Cd455 O454 2.223 . S
Cd455 O458 2.297 . S
Cd455 O459 2.439 . S
Cd455 O465 2.240 . S
Cd456 O457 2.240 . S
Cd456 O464 2.223 . S
Cd456 O466 2.297 . S
Cd456 O467 2.439 . S
O457 Cd456 2.240 . S
O457 C462 1.279 . S
O458 Cd455 2.297 . S
O458 C460 1.247 . S
O459 Cd455 2.439 . S
O459 C460 1.208 . S
C460 O458 1.247 . S
C460 O459 1.208 . S
C461 O466 1.247 . S
C461 O467 1.208 . S
C462 O454 1.315 . S
C462 O457 1.279 . S
C463 O464 1.315 . S
C463 O465 1.279 . S
O464 Cd456 2.223 . S
O464 C463 1.315 . S
O465 Cd455 2.240 . S
O465 C463 1.279 . S
O466 Cd456 2.297 . S
O466 C461 1.247 . S
O467 Cd456 2.439 . S
O467 C461 1.208 . S
O468 Cd469 2.223 . S
O468 C476 1.315 . S
Cd469 O468 2.223 . S
Cd469 O472 2.297 . S
Cd469 O473 2.439 . S
Cd469 O479 2.240 1_554 S
Cd470 O471 2.240 1_556 S
Cd470 O478 2.223 . S
Cd470 O480 2.297 . S
Cd470 O481 2.439 . S
O471 Cd470 2.240 1_554 S
O471 C476 1.279 . S
O472 Cd469 2.297 . S
O472 C474 1.247 . S
O473 Cd469 2.439 . S
O473 C474 1.208 . S
C474 O472 1.247 . S
C474 O473 1.208 . S
C475 O480 1.247 . S
C475 O481 1.208 . S
C476 O468 1.315 . S
C476 O471 1.279 . S
C477 O478 1.315 . S
C477 O479 1.279 . S
O478 Cd470 2.223 . S
O478 C477 1.315 . S
O479 Cd469 2.240 1_556 S
O479 C477 1.279 . S
O480 Cd470 2.297 . S
O480 C475 1.247 . S
O481 Cd470 2.439 . S
O481 C475 1.208 . S
O482 Cd483 2.223 . S
O482 C490 1.315 . S
Cd483 O482 2.223 . S
Cd483 O486 2.297 . S
Cd483 O487 2.439 . S
Cd483 O493 2.240 . S
Cd484 O485 2.240 . S
Cd484 O492 2.223 . S
Cd484 O494 2.297 . S
Cd484 O495 2.439 . S
O485 Cd484 2.240 . S
O485 C490 1.279 . S
O486 Cd483 2.297 . S
O486 C488 1.247 . S
O487 Cd483 2.439 . S
O487 C488 1.208 . S
C488 O486 1.247 . S
C488 O487 1.208 . S
C489 O494 1.247 . S
C489 O495 1.208 . S
C490 O482 1.315 . S
C490 O485 1.279 . S
C491 O492 1.315 . S
C491 O493 1.279 . S
O492 Cd484 2.223 . S
O492 C491 1.315 . S
O493 Cd483 2.240 . S
O493 C491 1.279 . S
O494 Cd484 2.297 . S
O494 C489 1.247 . S
O495 Cd484 2.439 . S
O495 C489 1.208 . S
H496 C514 0.951 . S
H497 C516 0.951 . S
H498 C518 0.950 . S
H499 C519 0.950 . S
H500 C521 0.950 . S
H501 C524 0.950 . S
H502 C525 0.934 1_545 S
H503 C527 0.950 . S
H504 C528 0.950 . S
H505 C529 0.951 . S
H506 C531 0.951 . S
H507 C533 0.950 . S
H508 C534 0.950 . S
H509 C536 0.950 . S
H510 C539 0.950 . S
H511 C540 0.950 . S
H512 C542 0.950 . S
H513 C543 0.950 . S
C514 H496 0.951 . S
C514 C515 1.366 . S
C514 C516 1.388 . S
C515 C514 1.366 . S
C515 C519 1.385 . S
C516 H497 0.951 . S
C516 C514 1.388 . S
C516 C517 1.366 . S
C517 C516 1.366 . S
C517 C518 1.414 . S
C517 C520 1.499 . S
C518 H498 0.950 . S
C518 C517 1.414 . S
C518 C519 1.374 . S
C519 H499 0.950 . S
C519 C515 1.385 . S
C519 C518 1.374 . S
C520 C517 1.499 . S
C520 C521 1.373 . S
C520 C522 1.389 . S
C521 H500 0.950 . S
C521 C520 1.373 . S
C521 C537 1.377 . S
C522 C520 1.389 . S
C522 C523 1.524 . S
C522 C536 1.377 . S
C523 C522 1.524 . S
C523 C524 1.397 . S
C523 C528 1.363 . S
C524 H501 0.950 . S
C524 C523 1.397 . S
C524 C525 1.380 . S
C525 H502 0.934 1_565 S
C525 C524 1.380 . S
C525 C526 1.260 1_565 S
C526 C525 1.260 1_545 S
C526 C527 1.524 . S
C526 H545 0.913 . S
C527 H503 0.950 . S
C527 C526 1.524 . S
C527 C528 1.415 1_545 S
C528 H504 0.950 . S
C528 C523 1.363 . S
C528 C527 1.415 1_565 S
C529 H505 0.951 . S
C529 C530 1.366 . S
C529 C531 1.388 . S
C530 C529 1.366 . S
C530 C534 1.385 . S
C531 H506 0.951 . S
C531 C529 1.388 . S
C531 C532 1.366 . S
C532 C531 1.366 . S
C532 C533 1.414 . S
C532 C535 1.499 . S
C533 H507 0.950 . S
C533 C532 1.414 . S
C533 C534 1.374 . S
C534 H508 0.950 . S
C534 C530 1.385 . S
C534 C533 1.374 . S
C535 C532 1.499 . S
C535 C536 1.373 . S
C535 C537 1.389 . S
C536 H509 0.950 . S
C536 C522 1.377 . S
C536 C535 1.373 . S
C537 C521 1.377 . S
C537 C535 1.389 . S
C537 C538 1.524 . S
C538 C537 1.524 . S
C538 C539 1.397 . S
C538 C543 1.363 . S
C539 H510 0.950 . S
C539 C538 1.397 . S
C539 C540 1.334 . S
C540 H511 0.950 . S
C540 C539 1.334 . S
C540 C541 1.287 . S
C541 C540 1.287 . S
C541 C542 1.524 . S
C541 H544 0.999 . S
C542 H512 0.950 . S
C542 C541 1.524 . S
C542 C543 1.415 . S
C543 H513 0.950 . S
C543 C538 1.363 . S
C543 C542 1.415 . S
H544 C541 0.999 . S
H545 C526 0.913 . S
H546 C564 0.951 . S
H547 C566 0.951 . S
H548 C568 0.950 . S
H549 C569 0.950 . S
H550 C571 0.950 . S
H551 C574 0.950 . S
H552 C575 0.950 . S
H553 C577 0.950 . S
H554 C578 0.950 . S
H555 C579 0.951 . S
H556 C581 0.951 . S
H557 C583 0.950 . S
H558 C584 0.950 . S
H559 C586 0.950 . S
H560 C589 0.950 . S
H561 C590 0.950 . S
H562 C592 0.950 . S
H563 C593 0.950 . S
C564 H546 0.951 . S
C564 C565 1.366 . S
C564 C566 1.388 . S
C565 C564 1.366 . S
C565 C569 1.385 . S
C566 H547 0.951 . S
C566 C564 1.388 . S
C566 C567 1.366 . S
C567 C566 1.366 . S
C567 C568 1.414 . S
C567 C570 1.499 . S
C568 H548 0.950 . S
C568 C567 1.414 . S
C568 C569 1.374 . S
C569 H549 0.950 . S
C569 C565 1.385 . S
C569 C568 1.374 . S
C570 C567 1.499 . S
C570 C571 1.373 . S
C570 C572 1.389 . S
C571 H550 0.950 . S
C571 C570 1.373 . S
C571 C587 1.377 . S
C572 C570 1.389 . S
C572 C573 1.524 . S
C572 C586 1.377 . S
C573 C572 1.524 . S
C573 C574 1.397 . S
C573 C578 1.363 . S
C574 H551 0.950 . S
C574 C573 1.397 . S
C574 C575 1.334 . S
C575 H552 0.950 . S
C575 C574 1.334 . S
C575 C576 1.287 . S
C576 C575 1.287 . S
C576 C577 1.524 . S
C576 H595 0.913 . S
C577 H553 0.950 . S
C577 C576 1.524 . S
C577 C578 1.415 . S
C578 H554 0.950 . S
C578 C573 1.363 . S
C578 C577 1.415 . S
C579 H555 0.951 . S
C579 C580 1.366 . S
C579 C581 1.388 . S
C580 C579 1.366 . S
C580 C584 1.385 . S
C581 H556 0.951 . S
C581 C579 1.388 . S
C581 C582 1.366 . S
C582 C581 1.366 . S
C582 C583 1.414 . S
C582 C585 1.499 . S
C583 H557 0.950 . S
C583 C582 1.414 . S
C583 C584 1.374 . S
C584 H558 0.950 . S
C584 C580 1.385 . S
C584 C583 1.374 . S
C585 C582 1.499 . S
C585 C586 1.373 . S
C585 C587 1.389 . S
C586 H559 0.950 . S
C586 C572 1.377 . S
C586 C585 1.373 . S
C587 C571 1.377 . S
C587 C585 1.389 . S
C587 C588 1.524 . S
C588 C587 1.524 . S
C588 C589 1.397 . S
C588 C593 1.363 . S
C589 H560 0.950 . S
C589 C588 1.397 . S
C589 C590 1.334 . S
C590 H561 0.950 . S
C590 C589 1.334 . S
C590 C591 1.287 . S
C591 C590 1.287 . S
C591 C592 1.524 . S
C591 H594 0.999 . S
C592 H562 0.950 . S
C592 C591 1.524 . S
C592 C593 1.415 . S
C593 H563 0.950 . S
C593 C588 1.363 . S
C593 C592 1.415 . S
H594 C591 0.999 . S
H595 C576 0.913 . S
H596 C614 0.951 . S
H597 C616 0.951 . S
H598 C618 0.950 . S
H599 C619 0.950 . S
H600 C621 0.950 . S
H601 C624 0.950 . S
H602 C625 0.950 . S
H603 C627 0.950 . S
H604 C628 0.950 . S
H605 C629 0.951 . S
H606 C631 0.951 . S
H607 C633 0.950 . S
H608 C634 0.950 . S
H609 C636 0.950 . S
H610 C639 0.950 . S
H611 C640 0.950 . S
H612 C642 0.950 . S
H613 C643 0.950 . S
C614 H596 0.951 . S
C614 C615 1.366 . S
C614 C616 1.388 . S
C615 C614 1.366 . S
C615 C619 1.385 . S
C616 H597 0.951 . S
C616 C614 1.388 . S
C616 C617 1.366 . S
C617 C616 1.366 . S
C617 C618 1.414 . S
C617 C620 1.499 . S
C618 H598 0.950 . S
C618 C617 1.414 . S
C618 C619 1.374 . S
C619 H599 0.950 . S
C619 C615 1.385 . S
C619 C618 1.374 . S
C620 C617 1.499 . S
C620 C621 1.373 . S
C620 C622 1.389 . S
C621 H600 0.950 . S
C621 C620 1.373 . S
C621 C637 1.377 . S
C622 C620 1.389 . S
C622 C623 1.524 . S
C622 C636 1.377 . S
C623 C622 1.524 . S
C623 C624 1.397 . S
C623 C628 1.363 . S
C624 H601 0.950 . S
C624 C623 1.397 . S
C624 C625 1.334 . S
C625 H602 0.950 . S
C625 C624 1.334 . S
C625 C626 1.287 . S
C626 C625 1.287 . S
C626 C627 1.524 . S
C626 H645 0.913 . S
C627 H603 0.950 . S
C627 C626 1.524 . S
C627 C628 1.415 . S
C628 H604 0.950 . S
C628 C623 1.363 . S
C628 C627 1.415 . S
C629 H605 0.951 . S
C629 C630 1.366 . S
C629 C631 1.388 . S
C630 C629 1.366 . S
C630 C634 1.385 . S
C631 H606 0.951 . S
C631 C629 1.388 . S
C631 C632 1.366 . S
C632 C631 1.366 . S
C632 C633 1.414 . S
C632 C635 1.499 . S
C633 H607 0.950 . S
C633 C632 1.414 . S
C633 C634 1.374 . S
C634 H608 0.950 . S
C634 C630 1.385 . S
C634 C633 1.374 . S
C635 C632 1.499 . S
C635 C636 1.373 . S
C635 C637 1.389 . S
C636 H609 0.950 . S
C636 C622 1.377 . S
C636 C635 1.373 . S
C637 C621 1.377 . S
C637 C635 1.389 . S
C637 C638 1.524 . S
C638 C637 1.524 . S
C638 C639 1.397 . S
C638 C643 1.363 . S
C639 H610 0.950 . S
C639 C638 1.397 . S
C639 C640 1.334 . S
C640 H611 0.950 . S
C640 C639 1.334 . S
C640 C641 1.287 . S
C641 C640 1.287 . S
C641 C642 1.524 . S
C641 H644 0.999 . S
C642 H612 0.950 . S
C642 C641 1.524 . S
C642 C643 1.415 . S
C643 H613 0.950 . S
C643 C638 1.363 . S
C643 C642 1.415 . S
H644 C641 0.999 . S
H645 C626 0.913 . S
H646 C664 0.951 . S
H647 C666 0.951 . S
H648 C668 0.950 . S
H649 C669 0.950 . S
H650 C671 0.950 . S
H651 C674 0.950 . S
H652 C675 0.950 . S
H653 C677 0.950 1_556 S
H654 C678 0.950 . S
H655 C679 0.951 . S
H656 C681 0.951 . S
H657 C683 0.950 . S
H658 C684 0.950 . S
H659 C686 0.950 . S
H660 C689 0.950 . S
H661 C690 0.950 . S
H662 C692 0.950 . S
H663 C693 0.950 . S
C664 H646 0.951 . S
C664 C665 1.366 . S
C664 C666 1.388 . S
C665 C664 1.366 . S
C665 C669 1.385 . S
C666 H647 0.951 . S
C666 C664 1.388 . S
C666 C667 1.366 . S
C667 C666 1.366 . S
C667 C668 1.414 . S
C667 C670 1.499 . S
C668 H648 0.950 . S
C668 C667 1.414 . S
C668 C669 1.374 . S
C669 H649 0.950 . S
C669 C665 1.385 . S
C669 C668 1.374 . S
C670 C667 1.499 . S
C670 C671 1.373 . S
C670 C672 1.389 . S
C671 H650 0.950 . S
C671 C670 1.373 . S
C671 C687 1.377 . S
C672 C670 1.389 . S
C672 C673 1.524 . S
C672 C686 1.377 . S
C673 C672 1.524 . S
C673 C674 1.397 . S
C673 C678 1.363 . S
C674 H651 0.950 . S
C674 C673 1.397 . S
C674 C675 1.334 . S
C675 H652 0.950 . S
C675 C674 1.334 . S
C675 C676 1.287 . S
C676 C675 1.287 . S
C676 C677 1.524 . S
C676 H695 0.975 . S
C677 H653 0.950 1_554 S
C677 C676 1.524 . S
C677 C678 1.415 . S
C678 H654 0.950 . S
C678 C673 1.363 . S
C678 C677 1.415 . S
C679 H655 0.951 . S
C679 C680 1.366 . S
C679 C681 1.388 . S
C680 C679 1.366 . S
C680 C684 1.385 . S
C681 H656 0.951 . S
C681 C679 1.388 . S
C681 C682 1.366 . S
C682 C681 1.366 . S
C682 C683 1.414 . S
C682 C685 1.499 . S
C683 H657 0.950 . S
C683 C682 1.414 . S
C683 C684 1.374 . S
C684 H658 0.950 . S
C684 C680 1.385 . S
C684 C683 1.374 . S
C685 C682 1.499 . S
C685 C686 1.373 . S
C685 C687 1.389 . S
C686 H659 0.950 . S
C686 C672 1.377 . S
C686 C685 1.373 . S
C687 C671 1.377 . S
C687 C685 1.389 . S
C687 C688 1.524 . S
C688 C687 1.524 . S
C688 C689 1.397 . S
C688 C693 1.363 . S
C689 H660 0.950 . S
C689 C688 1.397 . S
C689 C690 1.334 . S
C690 H661 0.950 . S
C690 C689 1.334 . S
C690 C691 1.287 . S
C691 C690 1.287 . S
C691 C692 1.524 . S
C691 H694 0.999 . S
C692 H662 0.950 . S
C692 C691 1.524 . S
C692 C693 1.415 . S
C693 H663 0.950 . S
C693 C688 1.363 . S
C693 C692 1.415 . S
H694 C691 0.999 . S
H695 C676 0.975 . S
H696 C714 0.951 . S
H697 C716 0.951 . S
H698 C718 0.950 . S
H699 C719 0.950 . S
H700 C721 0.950 . S
H701 C724 0.950 . S
H702 C725 0.950 . S
H703 C727 0.950 . S
H704 C728 0.950 . S
H705 C729 0.951 . S
H706 C731 0.951 . S
H707 C733 0.950 . S
H708 C734 0.950 . S
H709 C736 0.950 . S
H710 C739 0.955 . S
H711 C740 0.950 . S
H712 C742 0.950 . S
H713 C743 0.950 . S
C714 H696 0.951 . S
C714 C715 1.366 . S
C714 C716 1.388 . S
C715 C714 1.366 . S
C715 C719 1.385 1_556 S
C716 H697 0.951 . S
C716 C714 1.388 . S
C716 C717 1.366 1_556 S
C717 C716 1.366 1_554 S
C717 C718 1.414 . S
C717 C720 1.499 . S
C718 H698 0.950 . S
C718 C717 1.414 . S
C718 C719 1.374 . S
C719 H699 0.950 . S
C719 C715 1.385 1_554 S
C719 C718 1.374 . S
C720 C717 1.499 . S
C720 C721 1.373 . S
C720 C722 1.389 . S
C721 H700 0.950 . S
C721 C720 1.373 . S
C721 C737 1.377 . S
C722 C720 1.389 . S
C722 C723 1.524 . S
C722 C736 1.377 . S
C723 C722 1.524 . S
C723 C724 1.397 . S
C723 C728 1.363 . S
C724 H701 0.950 . S
C724 C723 1.397 . S
C724 C725 1.334 . S
C725 H702 0.950 . S
C725 C724 1.334 . S
C725 C726 1.287 . S
C726 C725 1.287 . S
C726 C727 1.524 . S
C726 H745 0.913 . S
C727 H703 0.950 . S
C727 C726 1.524 . S
C727 C728 1.415 . S
C728 H704 0.950 . S
C728 C723 1.363 . S
C728 C727 1.415 . S
C729 H705 0.951 . S
C729 C730 1.366 . S
C729 C731 1.388 . S
C730 C729 1.366 . S
C730 C734 1.385 . S
C731 H706 0.951 . S
C731 C729 1.388 . S
C731 C732 1.366 . S
C732 C731 1.366 . S
C732 C733 1.414 . S
C732 C735 1.499 . S
C733 H707 0.950 . S
C733 C732 1.414 . S
C733 C734 1.374 . S
C734 H708 0.950 . S
C734 C730 1.385 . S
C734 C733 1.374 . S
C735 C732 1.499 . S
C735 C736 1.373 . S
C735 C737 1.389 . S
C736 H709 0.950 . S
C736 C722 1.377 . S
C736 C735 1.373 . S
C737 C721 1.377 . S
C737 C735 1.389 . S
C737 C738 1.524 . S
C738 C737 1.524 . S
C738 C739 1.386 1_554 S
C738 C743 1.363 . S
C739 H710 0.955 . S
C739 C738 1.386 1_556 S
C739 C740 1.339 . S
C740 H711 0.950 . S
C740 C739 1.339 . S
C740 C741 1.280 1_556 S
C741 C740 1.280 1_554 S
C741 C742 1.540 . S
C741 H744 0.993 1_554 S
C742 H712 0.950 . S
C742 C741 1.540 . S
C742 C743 1.415 . S
C743 H713 0.950 . S
C743 C738 1.363 . S
C743 C742 1.415 . S
H744 C741 0.993 1_556 S
H745 C726 0.913 . S
H746 C764 0.951 . S
H747 C766 0.951 . S
H748 C768 0.950 . S
H749 C769 0.950 . S
H750 C771 0.950 . S
H751 C774 0.950 . S
H752 C775 0.950 . S
H753 C777 0.950 . S
H754 C778 0.950 . S
H755 C779 0.951 . S
H756 C781 0.951 . S
H757 C783 0.950 . S
H758 C784 0.950 . S
H759 C786 0.950 . S
H760 C789 0.950 . S
H761 C790 0.950 . S
H762 C792 0.950 . S
H763 C793 0.950 . S
C764 H746 0.951 . S
C764 C765 1.366 . S
C764 C766 1.388 . S
C765 C764 1.366 . S
C765 C769 1.385 . S
C766 H747 0.951 . S
C766 C764 1.388 . S
C766 C767 1.366 . S
C767 C766 1.366 . S
C767 C768 1.414 . S
C767 C770 1.499 . S
C768 H748 0.950 . S
C768 C767 1.414 . S
C768 C769 1.374 . S
C769 H749 0.950 . S
C769 C765 1.385 . S
C769 C768 1.374 . S
C770 C767 1.499 . S
C770 C771 1.373 . S
C770 C772 1.389 . S
C771 H750 0.950 . S
C771 C770 1.373 . S
C771 C787 1.377 . S
C772 C770 1.389 . S
C772 C773 1.524 . S
C772 C786 1.377 . S
C773 C772 1.524 . S
C773 C774 1.397 . S
C773 C778 1.363 . S
C774 H751 0.950 . S
C774 C773 1.397 . S
C774 C775 1.334 . S
C775 H752 0.950 . S
C775 C774 1.334 . S
C775 C776 1.287 . S
C776 C775 1.287 . S
C776 C777 1.524 . S
C776 H795 0.913 . S
C777 H753 0.950 . S
C777 C776 1.524 . S
C777 C778 1.415 . S
C778 H754 0.950 . S
C778 C773 1.363 . S
C778 C777 1.415 . S
C779 H755 0.951 . S
C779 C780 1.366 . S
C779 C781 1.388 . S
C780 C779 1.366 . S
C780 C784 1.385 . S
C781 H756 0.951 . S
C781 C779 1.388 . S
C781 C782 1.366 . S
C782 C781 1.366 . S
C782 C783 1.414 . S
C782 C785 1.499 . S
C783 H757 0.950 . S
C783 C782 1.414 . S
C783 C784 1.374 . S
C784 H758 0.950 . S
C784 C780 1.385 . S
C784 C783 1.374 . S
C785 C782 1.499 . S
C785 C786 1.373 . S
C785 C787 1.389 . S
C786 H759 0.950 . S
C786 C772 1.377 . S
C786 C785 1.373 . S
C787 C771 1.377 . S
C787 C785 1.389 . S
C787 C788 1.524 . S
C788 C787 1.524 . S
C788 C789 1.397 . S
C788 C793 1.363 . S
C789 H760 0.950 . S
C789 C788 1.397 . S
C789 C790 1.334 . S
C790 H761 0.950 . S
C790 C789 1.334 . S
C790 C791 1.287 . S
C791 C790 1.287 . S
C791 C792 1.524 . S
C791 H794 0.999 . S
C792 H762 0.950 . S
C792 C791 1.524 . S
C792 C793 1.415 . S
C793 H763 0.950 . S
C793 C788 1.363 . S
C793 C792 1.415 . S
H794 C791 0.999 . S
H795 C776 0.913 . S
H796 C814 0.951 1_545 S
H797 C816 0.951 . S
H798 C818 0.950 . S
H799 C819 0.950 . S
H800 C821 0.950 . S
H801 C824 0.950 . S
H802 C825 0.950 . S
H803 C827 0.950 . S
H804 C828 0.950 . S
H805 C829 0.951 . S
H806 C831 0.951 . S
H807 C833 0.950 . S
H808 C834 0.950 . S
H809 C836 0.950 . S
H810 C839 0.950 . S
H811 C840 0.950 . S
H812 C842 0.950 . S
H813 C843 0.950 . S
C814 H796 0.951 1_565 S
C814 C815 1.366 . S
C814 C816 1.388 . S
C815 C814 1.366 . S
C815 C819 1.385 . S
C816 H797 0.951 . S
C816 C814 1.388 . S
C816 C817 1.366 . S
C817 C816 1.366 . S
C817 C818 1.414 . S
C817 C820 1.499 . S
C818 H798 0.950 . S
C818 C817 1.414 . S
C818 C819 1.374 . S
C819 H799 0.950 . S
C819 C815 1.385 . S
C819 C818 1.374 . S
C820 C817 1.499 . S
C820 C821 1.373 . S
C820 C822 1.389 . S
C821 H800 0.950 . S
C821 C820 1.373 . S
C821 C837 1.377 . S
C822 C820 1.389 . S
C822 C823 1.524 . S
C822 C836 1.377 . S
C823 C822 1.524 . S
C823 C824 1.397 . S
C823 C828 1.363 1_565 S
C824 H801 0.950 . S
C824 C823 1.397 . S
C824 C825 1.334 1_565 S
C825 H802 0.950 . S
C825 C824 1.334 1_545 S
C825 C826 1.287 . S
C826 C825 1.287 . S
C826 C827 1.524 . S
C826 H845 0.913 . S
C827 H803 0.950 . S
C827 C826 1.524 . S
C827 C828 1.415 . S
C828 H804 0.950 . S
C828 C823 1.363 1_545 S
C828 C827 1.415 . S
C829 H805 0.951 . S
C829 C830 1.366 . S
C829 C831 1.388 . S
C830 C829 1.366 . S
C830 C834 1.385 . S
C831 H806 0.951 . S
C831 C829 1.388 . S
C831 C832 1.366 . S
C832 C831 1.366 . S
C832 C833 1.414 . S
C832 C835 1.499 . S
C833 H807 0.950 . S
C833 C832 1.414 . S
C833 C834 1.374 . S
C834 H808 0.950 . S
C834 C830 1.385 . S
C834 C833 1.374 . S
C835 C832 1.499 . S
C835 C836 1.373 . S
C835 C837 1.389 . S
C836 H809 0.950 . S
C836 C822 1.377 . S
C836 C835 1.373 . S
C837 C821 1.377 . S
C837 C835 1.389 . S
C837 C838 1.524 . S
C838 C837 1.524 . S
C838 C839 1.397 . S
C838 C843 1.363 . S
C839 H810 0.950 . S
C839 C838 1.397 . S
C839 C840 1.334 . S
C840 H811 0.950 . S
C840 C839 1.334 . S
C840 C841 1.287 . S
C841 C840 1.287 . S
C841 C842 1.524 . S
C841 H844 0.999 . S
C842 H812 0.950 . S
C842 C841 1.524 . S
C842 C843 1.415 . S
C843 H813 0.950 . S
C843 C838 1.363 . S
C843 C842 1.415 . S
H844 C841 0.999 . S
H845 C826 0.913 . S
H846 C864 0.951 . S
H847 C866 0.951 . S
H848 C868 0.950 . S
H849 C869 0.950 . S
H850 C871 0.950 1_545 S
H851 C874 0.950 . S
H852 C875 0.950 . S
H853 C877 0.950 . S
H854 C878 0.912 1_565 S
H855 C879 0.951 . S
H856 C881 0.951 . S
H857 C883 0.950 . S
H858 C884 0.950 . S
H859 C886 0.950 . S
H860 C889 0.950 . S
H861 C890 0.950 . S
H862 C892 0.950 . S
H863 C893 0.950 . S
C864 H846 0.951 . S
C864 C865 1.366 . S
C864 C866 1.388 . S
C865 C864 1.366 . S
C865 C869 1.385 . S
C866 H847 0.951 . S
C866 C864 1.388 . S
C866 C867 1.366 . S
C867 C866 1.366 . S
C867 C868 1.414 . S
C867 C870 1.499 . S
C868 H848 0.950 . S
C868 C867 1.414 . S
C868 C869 1.374 . S
C869 H849 0.950 . S
C869 C865 1.385 . S
C869 C868 1.374 . S
C870 C867 1.499 . S
C870 C871 1.373 1_545 S
C870 C872 1.389 1_545 S
C871 H850 0.950 1_565 S
C871 C870 1.373 1_565 S
C871 C887 1.377 . S
C872 C870 1.389 1_565 S
C872 C873 1.524 1_565 S
C872 C886 1.377 . S
C873 C872 1.524 1_545 S
C873 C874 1.397 . S
C873 C878 1.383 . S
C874 H851 0.950 . S
C874 C873 1.397 . S
C874 C875 1.334 . S
C875 H852 0.950 . S
C875 C874 1.334 . S
C875 C876 1.287 . S
C876 C875 1.287 . S
C876 C877 1.524 . S
C876 H895 0.913 . S
C877 H853 0.950 . S
C877 C876 1.524 . S
C877 C878 1.435 . S
C878 H854 0.912 1_545 S
C878 C873 1.383 . S
C878 C877 1.435 . S
C879 H855 0.951 . S
C879 C880 1.366 . S
C879 C881 1.388 . S
C880 C879 1.366 . S
C880 C884 1.385 . S
C881 H856 0.951 . S
C881 C879 1.388 . S
C881 C882 1.366 . S
C882 C881 1.366 . S
C882 C883 1.414 . S
C882 C885 1.499 . S
C883 H857 0.950 . S
C883 C882 1.414 . S
C883 C884 1.374 . S
C884 H858 0.950 . S
C884 C880 1.385 . S
C884 C883 1.374 . S
C885 C882 1.499 . S
C885 C886 1.373 . S
C885 C887 1.389 . S
C886 H859 0.950 . S
C886 C872 1.377 . S
C886 C885 1.373 . S
C887 C871 1.377 . S
C887 C885 1.389 . S
C887 C888 1.524 . S
C888 C887 1.524 . S
C888 C889 1.397 . S
C888 C893 1.363 . S
C889 H860 0.950 . S
C889 C888 1.397 . S
C889 C890 1.334 . S
C890 H861 0.950 . S
C890 C889 1.334 . S
C890 C891 1.287 . S
C891 C890 1.287 . S
C891 C892 1.524 . S
C891 H894 0.999 . S
C892 H862 0.950 . S
C892 C891 1.524 . S
C892 C893 1.415 . S
C893 H863 0.950 . S
C893 C888 1.363 . S
C893 C892 1.415 . S
H894 C891 0.999 . S
H895 C876 0.913 . S
H896 C914 0.951 . S
H897 C916 0.951 . S
H898 C918 0.950 . S
H899 C919 0.950 . S
H900 C921 0.950 . S
H901 C924 0.950 . S
H902 C925 0.950 . S
H903 C927 0.950 . S
H904 C928 0.950 . S
H905 C929 0.951 . S
H906 C931 0.951 . S
H907 C933 0.950 . S
H908 C934 0.950 . S
H909 C936 0.950 . S
H910 C939 0.950 . S
H911 C940 0.950 . S
H912 C942 0.950 . S
H913 C943 0.950 . S
C914 H896 0.951 . S
C914 C915 1.366 . S
C914 C916 1.388 . S
C915 C914 1.366 . S
C915 C919 1.385 . S
C916 H897 0.951 . S
C916 C914 1.388 . S
C916 C917 1.366 . S
C917 C916 1.366 . S
C917 C918 1.414 . S
C917 C920 1.499 . S
C918 H898 0.950 . S
C918 C917 1.414 . S
C918 C919 1.374 . S
C919 H899 0.950 . S
C919 C915 1.385 . S
C919 C918 1.374 . S
C920 C917 1.499 . S
C920 C921 1.373 . S
C920 C922 1.389 . S
C921 H900 0.950 . S
C921 C920 1.373 . S
C921 C937 1.377 . S
C922 C920 1.389 . S
C922 C923 1.524 . S
C922 C936 1.377 . S
C923 C922 1.524 . S
C923 C924 1.397 . S
C923 C928 1.363 . S
C924 H901 0.950 . S
C924 C923 1.397 . S
C924 C925 1.334 . S
C925 H902 0.950 . S
C925 C924 1.334 . S
C925 C926 1.287 . S
C926 C925 1.287 . S
C926 C927 1.524 . S
C926 H945 0.913 . S
C927 H903 0.950 . S
C927 C926 1.524 . S
C927 C928 1.415 . S
C928 H904 0.950 . S
C928 C923 1.363 . S
C928 C927 1.415 . S
C929 H905 0.951 . S
C929 C930 1.366 . S
C929 C931 1.388 . S
C930 C929 1.366 . S
C930 C934 1.385 . S
C931 H906 0.951 . S
C931 C929 1.388 . S
C931 C932 1.366 . S
C932 C931 1.366 . S
C932 C933 1.414 . S
C932 C935 1.499 . S
C933 H907 0.950 . S
C933 C932 1.414 . S
C933 C934 1.374 . S
C934 H908 0.950 . S
C934 C930 1.385 . S
C934 C933 1.374 . S
C935 C932 1.499 . S
C935 C936 1.373 . S
C935 C937 1.389 . S
C936 H909 0.950 . S
C936 C922 1.377 . S
C936 C935 1.373 . S
C937 C921 1.377 . S
C937 C935 1.389 . S
C937 C938 1.524 . S
C938 C937 1.524 . S
C938 C939 1.397 . S
C938 C943 1.363 . S
C939 H910 0.950 . S
C939 C938 1.397 . S
C939 C940 1.334 . S
C940 H911 0.950 . S
C940 C939 1.334 . S
C940 C941 1.287 . S
C941 C940 1.287 . S
C941 C942 1.524 . S
C941 H944 0.999 . S
C942 H912 0.950 . S
C942 C941 1.524 . S
C942 C943 1.415 . S
C943 H913 0.950 . S
C943 C938 1.363 . S
C943 C942 1.415 . S
H944 C941 0.999 . S
H945 C926 0.913 . S
H946 C964 0.951 . S
H947 C966 0.951 . S
H948 C968 0.950 . S
H949 C969 0.950 . S
H950 C971 0.950 . S
H951 C974 0.950 . S
H952 C975 0.950 1_554 S
H953 C977 0.950 . S
H954 C978 0.951 . S
H955 C979 0.951 . S
H956 C981 0.951 . S
H957 C983 0.950 . S
H958 C984 0.950 . S
H959 C986 0.950 . S
H960 C989 0.950 . S
H961 C990 0.950 . S
H962 C992 0.950 . S
H963 C993 0.950 . S
C964 H946 0.951 . S
C964 C965 1.366 . S
C964 C966 1.388 . S
C965 C964 1.366 . S
C965 C969 1.385 . S
C966 H947 0.951 . S
C966 C964 1.388 . S
C966 C967 1.366 . S
C967 C966 1.366 . S
C967 C968 1.414 . S
C967 C970 1.499 . S
C968 H948 0.950 . S
C968 C967 1.414 . S
C968 C969 1.374 . S
C969 H949 0.950 . S
C969 C965 1.385 . S
C969 C968 1.374 . S
C970 C967 1.499 . S
C970 C971 1.373 . S
C970 C972 1.389 . S
C971 H950 0.950 . S
C971 C970 1.373 . S
C971 C987 1.377 . S
C972 C970 1.389 . S
C972 C973 1.524 . S
C972 C986 1.377 . S
C973 C972 1.524 . S
C973 C974 1.397 . S
C973 C978 1.358 . S
C974 H951 0.950 . S
C974 C973 1.397 . S
C974 C975 1.334 1_554 S
C975 H952 0.950 1_556 S
C975 C974 1.334 1_556 S
C975 C976 1.287 . S
C976 C975 1.287 . S
C976 C977 1.524 . S
C976 H995 0.913 . S
C977 H953 0.950 . S
C977 C976 1.524 . S
C977 C978 1.420 1_556 S
C978 H954 0.951 . S
C978 C973 1.358 . S
C978 C977 1.420 1_554 S
C979 H955 0.951 . S
C979 C980 1.366 . S
C979 C981 1.388 . S
C980 C979 1.366 . S
C980 C984 1.385 . S
C981 H956 0.951 . S
C981 C979 1.388 . S
C981 C982 1.366 . S
C982 C981 1.366 . S
C982 C983 1.414 . S
C982 C985 1.499 . S
C983 H957 0.950 . S
C983 C982 1.414 . S
C983 C984 1.374 . S
C984 H958 0.950 . S
C984 C980 1.385 . S
C984 C983 1.374 . S
C985 C982 1.499 . S
C985 C986 1.373 . S
C985 C987 1.389 . S
C986 H959 0.950 . S
C986 C972 1.377 . S
C986 C985 1.373 . S
C987 C971 1.377 . S
C987 C985 1.389 . S
C987 C988 1.524 . S
C988 C987 1.524 . S
C988 C989 1.397 . S
C988 C993 1.363 . S
C989 H960 0.950 . S
C989 C988 1.397 . S
C989 C990 1.334 . S
C990 H961 0.950 . S
C990 C989 1.334 . S
C990 C991 1.287 . S
C991 C990 1.287 . S
C991 C992 1.524 . S
C991 H994 0.999 . S
C992 H962 0.950 . S
C992 C991 1.524 . S
C992 C993 1.415 . S
C993 H963 0.950 . S
C993 C988 1.363 . S
C993 C992 1.415 . S
H994 C991 0.999 . S
H995 C976 0.913 . S
H996 C1014 0.951 . S
H997 C1016 0.951 . S
H998 C1018 0.950 . S
H999 C1019 0.950 . S
H1000 C1021 0.950 . S
H1001 C1024 0.950 . S
H1002 C1025 0.950 . S
H1003 C1027 0.950 . S
H1004 C1028 0.950 . S
H1005 C1029 0.951 . S
H1006 C1031 0.951 . S
H1007 C1033 0.950 . S
H1008 C1034 0.950 . S
H1009 C1036 0.950 . S
H1010 C1039 0.950 . S
H1011 C1040 0.950 . S
H1012 C1042 0.950 . S
H1013 C1043 0.950 . S
C1014 H996 0.951 . S
C1014 C1015 1.366 . S
C1014 C1016 1.388 1_455 S
C1015 C1014 1.366 . S
C1015 C1019 1.385 . S
C1016 H997 0.951 . S
C1016 C1014 1.388 1_655 S
C1016 C1017 1.366 . S
C1017 C1016 1.366 . S
C1017 C1018 1.414 1_655 S
C1017 C1020 1.499 . S
C1018 H998 0.950 . S
C1018 C1017 1.414 1_455 S
C1018 C1019 1.374 . S
C1019 H999 0.950 . S
C1019 C1015 1.385 . S
C1019 C1018 1.374 . S
C1020 C1017 1.499 . S
C1020 C1021 1.373 . S
C1020 C1022 1.389 . S
C1021 H1000 0.950 . S
C1021 C1020 1.373 . S
C1021 C1037 1.377 . S
C1022 C1020 1.389 . S
C1022 C1023 1.524 . S
C1022 C1036 1.377 . S
C1023 C1022 1.524 . S
C1023 C1024 1.397 . S
C1023 C1028 1.363 . S
C1024 H1001 0.950 . S
C1024 C1023 1.397 . S
C1024 C1025 1.334 . S
C1025 H1002 0.950 . S
C1025 C1024 1.334 . S
C1025 C1026 1.287 . S
C1026 C1025 1.287 . S
C1026 C1027 1.524 . S
C1026 H1045 0.913 . S
C1027 H1003 0.950 . S
C1027 C1026 1.524 . S
C1027 C1028 1.415 . S
C1028 H1004 0.950 . S
C1028 C1023 1.363 . S
C1028 C1027 1.415 . S
C1029 H1005 0.951 . S
C1029 C1030 1.366 . S
C1029 C1031 1.388 . S
C1030 C1029 1.366 . S
C1030 C1034 1.385 . S
C1031 H1006 0.951 . S
C1031 C1029 1.388 . S
C1031 C1032 1.366 . S
C1032 C1031 1.366 . S
C1032 C1033 1.414 . S
C1032 C1035 1.499 . S
C1033 H1007 0.950 . S
C1033 C1032 1.414 . S
C1033 C1034 1.374 . S
C1034 H1008 0.950 . S
C1034 C1030 1.385 . S
C1034 C1033 1.374 . S
C1035 C1032 1.499 . S
C1035 C1036 1.373 . S
C1035 C1037 1.389 . S
C1036 H1009 0.950 . S
C1036 C1022 1.377 . S
C1036 C1035 1.373 . S
C1037 C1021 1.377 . S
C1037 C1035 1.389 . S
C1037 C1038 1.524 . S
C1038 C1037 1.524 . S
C1038 C1039 1.397 . S
C1038 C1043 1.363 . S
C1039 H1010 0.950 . S
C1039 C1038 1.397 . S
C1039 C1040 1.334 . S
C1040 H1011 0.950 . S
C1040 C1039 1.334 . S
C1040 C1041 1.287 . S
C1041 C1040 1.287 . S
C1041 C1042 1.524 . S
C1041 H1044 0.999 . S
C1042 H1012 0.950 . S
C1042 C1041 1.524 . S
C1042 C1043 1.415 . S
C1043 H1013 0.950 . S
C1043 C1038 1.363 . S
C1043 C1042 1.415 . S
H1044 C1041 0.999 . S
H1045 C1026 0.913 . S
H1046 C1064 0.951 . S
H1047 C1066 0.981 . S
H1048 C1068 0.950 . S
H1049 C1069 0.950 . S
H1050 C1071 0.950 . S
H1051 C1074 0.950 . S
H1052 C1075 0.950 . S
H1053 C1077 0.950 . S
H1054 C1078 0.950 . S
H1055 C1079 0.951 . S
H1056 C1081 0.951 . S
H1057 C1083 0.950 . S
H1058 C1084 0.950 . S
H1059 C1086 0.950 . S
H1060 C1089 0.950 . S
H1061 C1090 0.950 . S
H1062 C1092 0.950 . S
H1063 C1093 0.950 . S
C1064 H1046 0.951 . S
C1064 C1065 1.366 1_455 S
C1064 C1066 1.400 . S
C1065 C1064 1.366 1_655 S
C1065 C1069 1.385 . S
C1066 H1047 0.981 . S
C1066 C1064 1.400 . S
C1066 C1067 1.324 1_455 S
C1067 C1066 1.324 1_655 S
C1067 C1068 1.414 . S
C1067 C1070 1.499 . S
C1068 H1048 0.950 . S
C1068 C1067 1.414 . S
C1068 C1069 1.374 . S
C1069 H1049 0.950 . S
C1069 C1065 1.385 . S
C1069 C1068 1.374 . S
C1070 C1067 1.499 . S
C1070 C1071 1.373 . S
C1070 C1072 1.389 . S
C1071 H1050 0.950 . S
C1071 C1070 1.373 . S
C1071 C1087 1.377 . S
C1072 C1070 1.389 . S
C1072 C1073 1.524 . S
C1072 C1086 1.377 . S
C1073 C1072 1.524 . S
C1073 C1074 1.397 . S
C1073 C1078 1.363 1_655 S
C1074 H1051 0.950 . S
C1074 C1073 1.397 . S
C1074 C1075 1.334 . S
C1075 H1052 0.950 . S
C1075 C1074 1.334 . S
C1075 C1076 1.287 1_655 S
C1076 C1075 1.287 1_455 S
C1076 C1077 1.524 . S
C1076 H1095 0.913 . S
C1077 H1053 0.950 . S
C1077 C1076 1.524 . S
C1077 C1078 1.415 . S
C1078 H1054 0.950 . S
C1078 C1073 1.363 1_455 S
C1078 C1077 1.415 . S
C1079 H1055 0.951 . S
C1079 C1080 1.366 . S
C1079 C1081 1.388 . S
C1080 C1079 1.366 . S
C1080 C1084 1.385 . S
C1081 H1056 0.951 . S
C1081 C1079 1.388 . S
C1081 C1082 1.366 . S
C1082 C1081 1.366 . S
C1082 C1083 1.414 . S
C1082 C1085 1.499 . S
C1083 H1057 0.950 . S
C1083 C1082 1.414 . S
C1083 C1084 1.374 . S
C1084 H1058 0.950 . S
C1084 C1080 1.385 . S
C1084 C1083 1.374 . S
C1085 C1082 1.499 . S
C1085 C1086 1.373 . S
C1085 C1087 1.389 . S
C1086 H1059 0.950 . S
C1086 C1072 1.377 . S
C1086 C1085 1.373 . S
C1087 C1071 1.377 . S
C1087 C1085 1.389 . S
C1087 C1088 1.524 . S
C1088 C1087 1.524 . S
C1088 C1089 1.397 . S
C1088 C1093 1.363 . S
C1089 H1060 0.950 . S
C1089 C1088 1.397 . S
C1089 C1090 1.334 . S
C1090 H1061 0.950 . S
C1090 C1089 1.334 . S
C1090 C1091 1.287 . S
C1091 C1090 1.287 . S
C1091 C1092 1.524 . S
C1091 H1094 0.999 . S
C1092 H1062 0.950 . S
C1092 C1091 1.524 . S
C1092 C1093 1.415 . S
C1093 H1063 0.950 . S
C1093 C1088 1.363 . S
C1093 C1092 1.415 . S
H1094 C1091 0.999 . S
H1095 C1076 0.913 . S
H1096 C1114 0.951 . S
H1097 C1116 0.951 . S
H1098 C1118 0.950 . S
H1099 C1119 0.950 . S
H1100 C1121 0.950 . S
H1101 C1124 0.950 . S
H1102 C1125 0.950 . S
H1103 C1127 0.950 . S
H1104 C1128 0.950 . S
H1105 C1129 0.951 . S
H1106 C1131 0.951 . S
H1107 C1133 0.950 . S
H1108 C1134 0.950 . S
H1109 C1136 0.950 . S
H1110 C1139 0.950 . S
H1111 C1140 0.950 . S
H1112 C1142 0.950 . S
H1113 C1143 0.950 . S
C1114 H1096 0.951 . S
C1114 C1115 1.366 . S
C1114 C1116 1.388 . S
C1115 C1114 1.366 . S
C1115 C1119 1.385 . S
C1116 H1097 0.951 . S
C1116 C1114 1.388 . S
C1116 C1117 1.366 . S
C1117 C1116 1.366 . S
C1117 C1118 1.414 . S
C1117 C1120 1.499 . S
C1118 H1098 0.950 . S
C1118 C1117 1.414 . S
C1118 C1119 1.374 . S
C1119 H1099 0.950 . S
C1119 C1115 1.385 . S
C1119 C1118 1.374 . S
C1120 C1117 1.499 . S
C1120 C1121 1.373 . S
C1120 C1122 1.389 . S
C1121 H1100 0.950 . S
C1121 C1120 1.373 . S
C1121 C1137 1.377 . S
C1122 C1120 1.389 . S
C1122 C1123 1.524 . S
C1122 C1136 1.377 . S
C1123 C1122 1.524 . S
C1123 C1124 1.397 . S
C1123 C1128 1.363 . S
C1124 H1101 0.950 . S
C1124 C1123 1.397 . S
C1124 C1125 1.334 . S
C1125 H1102 0.950 . S
C1125 C1124 1.334 . S
C1125 C1126 1.287 . S
C1126 C1125 1.287 . S
C1126 C1127 1.524 . S
C1126 H1145 0.913 . S
C1127 H1103 0.950 . S
C1127 C1126 1.524 . S
C1127 C1128 1.415 . S
C1128 H1104 0.950 . S
C1128 C1123 1.363 . S
C1128 C1127 1.415 . S
C1129 H1105 0.951 . S
C1129 C1130 1.366 . S
C1129 C1131 1.388 . S
C1130 C1129 1.366 . S
C1130 C1134 1.385 . S
C1131 H1106 0.951 . S
C1131 C1129 1.388 . S
C1131 C1132 1.366 . S
C1132 C1131 1.366 . S
C1132 C1133 1.414 . S
C1132 C1135 1.499 . S
C1133 H1107 0.950 . S
C1133 C1132 1.414 . S
C1133 C1134 1.374 . S
C1134 H1108 0.950 . S
C1134 C1130 1.385 . S
C1134 C1133 1.374 . S
C1135 C1132 1.499 . S
C1135 C1136 1.373 . S
C1135 C1137 1.389 . S
C1136 H1109 0.950 . S
C1136 C1122 1.377 . S
C1136 C1135 1.373 . S
C1137 C1121 1.377 . S
C1137 C1135 1.389 . S
C1137 C1138 1.524 . S
C1138 C1137 1.524 . S
C1138 C1139 1.397 . S
C1138 C1143 1.363 . S
C1139 H1110 0.950 . S
C1139 C1138 1.397 . S
C1139 C1140 1.334 . S
C1140 H1111 0.950 . S
C1140 C1139 1.334 . S
C1140 C1141 1.287 . S
C1141 C1140 1.287 . S
C1141 C1142 1.524 . S
C1141 H1144 0.999 . S
C1142 H1112 0.950 . S
C1142 C1141 1.524 . S
C1142 C1143 1.415 . S
C1143 H1113 0.950 . S
C1143 C1138 1.363 . S
C1143 C1142 1.415 . S
H1144 C1141 0.999 . S
H1145 C1126 0.913 . S
H1146 C1164 0.951 . S
H1147 C1166 0.951 . S
H1148 C1168 0.951 . S
H1149 C1169 0.950 . S
H1150 C1171 0.950 . S
H1151 C1174 0.950 . S
H1152 C1175 0.950 . S
H1153 C1177 0.950 . S
H1154 C1178 0.950 . S
H1155 C1179 0.951 . S
H1156 C1181 0.951 . S
H1157 C1183 0.950 . S
H1158 C1184 0.950 . S
H1159 C1186 0.950 . S
H1160 C1189 0.950 . S
H1161 C1190 0.950 . S
H1162 C1192 0.950 . S
H1163 C1193 0.950 . S
C1164 H1146 0.951 . S
C1164 C1165 1.366 1_655 S
C1164 C1166 1.388 . S
C1165 C1164 1.366 1_455 S
C1165 C1169 1.385 . S
C1166 H1147 0.951 . S
C1166 C1164 1.388 . S
C1166 C1167 1.366 . S
C1167 C1166 1.366 . S
C1167 C1168 1.436 . S
C1167 C1170 1.499 . S
C1168 H1148 0.951 . S
C1168 C1167 1.436 . S
C1168 C1169 1.351 1_655 S
C1169 H1149 0.950 . S
C1169 C1165 1.385 . S
C1169 C1168 1.351 1_455 S
C1170 C1167 1.499 . S
C1170 C1171 1.373 . S
C1170 C1172 1.389 . S
C1171 H1150 0.950 . S
C1171 C1170 1.373 . S
C1171 C1187 1.377 . S
C1172 C1170 1.389 . S
C1172 C1173 1.524 . S
C1172 C1186 1.377 . S
C1173 C1172 1.524 . S
C1173 C1174 1.397 . S
C1173 C1178 1.363 . S
C1174 H1151 0.950 . S
C1174 C1173 1.397 . S
C1174 C1175 1.334 1_655 S
C1175 H1152 0.950 . S
C1175 C1174 1.334 1_455 S
C1175 C1176 1.287 1_455 S
C1176 C1175 1.287 1_655 S
C1176 C1177 1.524 . S
C1176 H1195 0.920 . S
C1177 H1153 0.950 . S
C1177 C1176 1.524 . S
C1177 C1178 1.415 . S
C1178 H1154 0.950 . S
C1178 C1173 1.363 . S
C1178 C1177 1.415 . S
C1179 H1155 0.951 . S
C1179 C1180 1.366 . S
C1179 C1181 1.388 . S
C1180 C1179 1.366 . S
C1180 C1184 1.385 . S
C1181 H1156 0.951 . S
C1181 C1179 1.388 . S
C1181 C1182 1.366 . S
C1182 C1181 1.366 . S
C1182 C1183 1.414 . S
C1182 C1185 1.499 . S
C1183 H1157 0.950 . S
C1183 C1182 1.414 . S
C1183 C1184 1.374 . S
C1184 H1158 0.950 . S
C1184 C1180 1.385 . S
C1184 C1183 1.374 . S
C1185 C1182 1.499 . S
C1185 C1186 1.373 . S
C1185 C1187 1.389 . S
C1186 H1159 0.950 . S
C1186 C1172 1.377 . S
C1186 C1185 1.373 . S
C1187 C1171 1.377 . S
C1187 C1185 1.389 . S
C1187 C1188 1.524 . S
C1188 C1187 1.524 . S
C1188 C1189 1.397 . S
C1188 C1193 1.363 . S
C1189 H1160 0.950 . S
C1189 C1188 1.397 . S
C1189 C1190 1.334 . S
C1190 H1161 0.950 . S
C1190 C1189 1.334 . S
C1190 C1191 1.287 . S
C1191 C1190 1.287 . S
C1191 C1192 1.524 . S
C1191 H1194 0.999 . S
C1192 H1162 0.950 . S
C1192 C1191 1.524 . S
C1192 C1193 1.415 . S
C1193 H1163 0.950 . S
C1193 C1188 1.363 . S
C1193 C1192 1.415 . S
H1194 C1191 0.999 . S
H1195 C1176 0.920 . S
H1196 C1214 0.951 . S
H1197 C1216 0.951 . S
H1198 C1218 0.950 . S
H1199 C1219 0.950 . S
H1200 C1221 0.950 . S
H1201 C1224 0.950 . S
H1202 C1225 0.950 . S
H1203 C1227 0.950 . S
H1204 C1228 0.917 1_556 S
H1205 C1229 0.965 . S
H1206 C1231 0.951 . S
H1207 C1233 0.950 . S
H1208 C1234 0.950 . S
H1209 C1236 0.950 1_554 S
H1210 C1239 0.950 . S
H1211 C1240 0.950 . S
H1212 C1242 0.950 . S
H1213 C1243 0.950 . S
C1214 H1196 0.951 . S
C1214 C1215 1.366 . S
C1214 C1216 1.388 . S
C1215 C1214 1.366 . S
C1215 C1219 1.385 . S
C1216 H1197 0.951 . S
C1216 C1214 1.388 . S
C1216 C1217 1.366 . S
C1217 C1216 1.366 . S
C1217 C1218 1.414 . S
C1217 C1220 1.499 . S
C1218 H1198 0.950 . S
C1218 C1217 1.414 . S
C1218 C1219 1.374 . S
C1219 H1199 0.950 . S
C1219 C1215 1.385 . S
C1219 C1218 1.374 . S
C1220 C1217 1.499 . S
C1220 C1221 1.373 . S
C1220 C1222 1.389 . S
C1221 H1200 0.950 . S
C1221 C1220 1.373 . S
C1221 C1237 1.377 . S
C1222 C1220 1.389 . S
C1222 C1223 1.524 1_556 S
C1222 C1236 1.377 . S
C1223 C1222 1.524 1_554 S
C1223 C1224 1.397 . S
C1223 C1228 1.363 . S
C1224 H1201 0.950 . S
C1224 C1223 1.397 . S
C1224 C1225 1.334 . S
C1225 H1202 0.950 . S
C1225 C1224 1.334 . S
C1225 C1226 1.287 . S
C1226 C1225 1.287 . S
C1226 C1227 1.524 . S
C1226 H1245 0.913 . S
C1227 H1203 0.950 . S
C1227 C1226 1.524 . S
C1227 C1228 1.415 . S
C1228 H1204 0.917 1_554 S
C1228 C1223 1.363 . S
C1228 C1227 1.415 . S
C1229 H1205 0.965 . S
C1229 C1230 1.366 . S
C1229 C1231 1.388 . S
C1230 C1229 1.366 . S
C1230 C1234 1.385 . S
C1231 H1206 0.951 . S
C1231 C1229 1.388 . S
C1231 C1232 1.366 . S
C1232 C1231 1.366 . S
C1232 C1233 1.414 . S
C1232 C1235 1.499 . S
C1233 H1207 0.950 . S
C1233 C1232 1.414 . S
C1233 C1234 1.374 . S
C1234 H1208 0.950 . S
C1234 C1230 1.385 . S
C1234 C1233 1.374 . S
C1235 C1232 1.499 . S
C1235 C1236 1.373 . S
C1235 C1237 1.389 . S
C1236 H1209 0.950 1_556 S
C1236 C1222 1.377 . S
C1236 C1235 1.373 . S
C1237 C1221 1.377 . S
C1237 C1235 1.389 . S
C1237 C1238 1.524 . S
C1238 C1237 1.524 . S
C1238 C1239 1.397 . S
C1238 C1243 1.363 . S
C1239 H1210 0.950 . S
C1239 C1238 1.397 . S
C1239 C1240 1.334 . S
C1240 H1211 0.950 . S
C1240 C1239 1.334 . S
C1240 C1241 1.287 . S
C1241 C1240 1.287 . S
C1241 C1242 1.524 . S
C1241 H1244 0.999 . S
C1242 H1212 0.950 . S
C1242 C1241 1.524 . S
C1242 C1243 1.415 . S
C1243 H1213 0.950 . S
C1243 C1238 1.363 . S
C1243 C1242 1.415 . S
H1244 C1241 0.999 . S
H1245 C1226 0.913 . S
H1246 C1264 0.951 . S
H1247 C1266 0.951 . S
H1248 C1268 0.950 . S
H1249 C1269 0.950 . S
H1250 C1271 0.950 . S
H1251 C1274 0.950 . S
H1252 C1275 0.950 . S
H1253 C1277 0.950 . S
H1254 C1278 0.950 . S
H1255 C1279 0.951 . S
H1256 C1281 0.951 . S
H1257 C1283 0.950 . S
H1258 C1284 0.950 . S
H1259 C1286 0.950 . S
H1260 C1289 0.950 . S
H1261 C1290 0.950 . S
H1262 C1292 0.950 . S
H1263 C1293 0.950 . S
C1264 H1246 0.951 . S
C1264 C1265 1.366 . S
C1264 C1266 1.388 . S
C1265 C1264 1.366 . S
C1265 C1269 1.385 . S
C1266 H1247 0.951 . S
C1266 C1264 1.388 . S
C1266 C1267 1.366 . S
C1267 C1266 1.366 . S
C1267 C1268 1.414 . S
C1267 C1270 1.499 . S
C1268 H1248 0.950 . S
C1268 C1267 1.414 . S
C1268 C1269 1.374 . S
C1269 H1249 0.950 . S
C1269 C1265 1.385 . S
C1269 C1268 1.374 . S
C1270 C1267 1.499 . S
C1270 C1271 1.373 . S
C1270 C1272 1.389 . S
C1271 H1250 0.950 . S
C1271 C1270 1.373 . S
C1271 C1287 1.377 . S
C1272 C1270 1.389 . S
C1272 C1273 1.524 . S
C1272 C1286 1.377 . S
C1273 C1272 1.524 . S
C1273 C1274 1.397 . S
C1273 C1278 1.363 . S
C1274 H1251 0.950 . S
C1274 C1273 1.397 . S
C1274 C1275 1.334 . S
C1275 H1252 0.950 . S
C1275 C1274 1.334 . S
C1275 C1276 1.287 . S
C1276 C1275 1.287 . S
C1276 C1277 1.524 . S
C1276 H1295 0.913 . S
C1277 H1253 0.950 . S
C1277 C1276 1.524 . S
C1277 C1278 1.415 . S
C1278 H1254 0.950 . S
C1278 C1273 1.363 . S
C1278 C1277 1.415 . S
C1279 H1255 0.951 . S
C1279 C1280 1.366 . S
C1279 C1281 1.388 . S
C1280 C1279 1.366 . S
C1280 C1284 1.385 . S
C1281 H1256 0.951 . S
C1281 C1279 1.388 . S
C1281 C1282 1.366 . S
C1282 C1281 1.366 . S
C1282 C1283 1.414 . S
C1282 C1285 1.499 . S
C1283 H1257 0.950 . S
C1283 C1282 1.414 . S
C1283 C1284 1.374 . S
C1284 H1258 0.950 . S
C1284 C1280 1.385 . S
C1284 C1283 1.374 . S
C1285 C1282 1.499 . S
C1285 C1286 1.373 . S
C1285 C1287 1.389 . S
C1286 H1259 0.950 . S
C1286 C1272 1.377 . S
C1286 C1285 1.373 . S
C1287 C1271 1.377 . S
C1287 C1285 1.389 . S
C1287 C1288 1.524 . S
C1288 C1287 1.524 . S
C1288 C1289 1.397 . S
C1288 C1293 1.363 . S
C1289 H1260 0.950 . S
C1289 C1288 1.397 . S
C1289 C1290 1.334 . S
C1290 H1261 0.950 . S
C1290 C1289 1.334 . S
C1290 C1291 1.287 . S
C1291 C1290 1.287 . S
C1291 C1292 1.524 . S
C1291 H1294 0.999 . S
C1292 H1262 0.950 . S
C1292 C1291 1.524 . S
C1292 C1293 1.415 . S
C1293 H1263 0.950 . S
C1293 C1288 1.363 . S
C1293 C1292 1.415 . S
H1294 C1291 0.999 . S
H1295 C1276 0.913 . S
H1296 C1314 0.951 . S
H1297 C1316 0.951 . S
H1298 C1318 0.950 1_545 S
H1299 C1319 1.000 . S
H1300 C1321 0.950 . S
H1301 C1324 0.950 . S
H1302 C1325 0.950 . S
H1303 C1327 0.950 . S
H1304 C1328 0.950 . S
H1305 C1329 0.951 . S
H1306 C1331 0.951 . S
H1307 C1333 0.950 . S
H1308 C1334 0.950 . S
H1309 C1336 0.950 . S
H1310 C1339 0.950 . S
H1311 C1340 0.950 . S
H1312 C1342 0.950 1_545 S
H1313 C1343 0.950 . S
C1314 H1296 0.951 . S
C1314 C1315 1.366 . S
C1314 C1316 1.388 . S
C1315 C1314 1.366 . S
C1315 C1319 1.355 1_565 S
C1316 H1297 0.951 . S
C1316 C1314 1.388 . S
C1316 C1317 1.366 . S
C1317 C1316 1.366 . S
C1317 C1318 1.414 . S
C1317 C1320 1.499 . S
C1318 H1298 0.950 1_565 S
C1318 C1317 1.414 . S
C1318 C1319 1.355 1_565 S
C1319 H1299 1.000 . S
C1319 C1315 1.355 1_545 S
C1319 C1318 1.355 1_545 S
C1320 C1317 1.499 . S
C1320 C1321 1.373 . S
C1320 C1322 1.389 . S
C1321 H1300 0.950 . S
C1321 C1320 1.373 . S
C1321 C1337 1.377 . S
C1322 C1320 1.389 . S
C1322 C1323 1.524 . S
C1322 C1336 1.377 . S
C1323 C1322 1.524 . S
C1323 C1324 1.397 . S
C1323 C1328 1.363 . S
C1324 H1301 0.950 . S
C1324 C1323 1.397 . S
C1324 C1325 1.334 . S
C1325 H1302 0.950 . S
C1325 C1324 1.334 . S
C1325 C1326 1.287 . S
C1326 C1325 1.287 . S
C1326 C1327 1.524 . S
C1326 H1345 0.913 . S
C1327 H1303 0.950 . S
C1327 C1326 1.524 . S
C1327 C1328 1.415 . S
C1328 H1304 0.950 . S
C1328 C1323 1.363 . S
C1328 C1327 1.415 . S
C1329 H1305 0.951 . S
C1329 C1330 1.366 . S
C1329 C1331 1.388 . S
C1330 C1329 1.366 . S
C1330 C1334 1.385 . S
C1331 H1306 0.951 . S
C1331 C1329 1.388 . S
C1331 C1332 1.366 . S
C1332 C1331 1.366 . S
C1332 C1333 1.414 . S
C1332 C1335 1.499 . S
C1333 H1307 0.950 . S
C1333 C1332 1.414 . S
C1333 C1334 1.374 . S
C1334 H1308 0.950 . S
C1334 C1330 1.385 . S
C1334 C1333 1.374 . S
C1335 C1332 1.499 . S
C1335 C1336 1.373 . S
C1335 C1337 1.389 . S
C1336 H1309 0.950 . S
C1336 C1322 1.377 . S
C1336 C1335 1.373 . S
C1337 C1321 1.377 . S
C1337 C1335 1.389 . S
C1337 C1338 1.524 . S
C1338 C1337 1.524 . S
C1338 C1339 1.397 . S
C1338 C1343 1.363 . S
C1339 H1310 0.950 . S
C1339 C1338 1.397 . S
C1339 C1340 1.334 . S
C1340 H1311 0.950 . S
C1340 C1339 1.334 . S
C1340 C1341 1.287 . S
C1341 C1340 1.287 . S
C1341 C1342 1.524 . S
C1341 H1344 0.999 . S
C1342 H1312 0.950 1_565 S
C1342 C1341 1.524 . S
C1342 C1343 1.415 . S
C1343 H1313 0.950 . S
C1343 C1338 1.363 . S
C1343 C1342 1.415 . S
H1344 C1341 0.999 . S
H1345 C1326 0.913 . S
H1346 C1364 0.951 . S
H1347 C1366 0.951 . S
H1348 C1368 0.950 . S
H1349 C1369 0.950 . S
H1350 C1371 0.950 . S
H1351 C1374 0.950 . S
H1352 C1375 0.950 . S
H1353 C1377 0.950 . S
H1354 C1378 0.950 . S
H1355 C1379 0.951 . S
H1356 C1381 0.951 . S
H1357 C1383 0.950 . S
H1358 C1384 0.950 . S
H1359 C1386 0.950 . S
H1360 C1389 0.950 . S
H1361 C1390 0.950 . S
H1362 C1392 0.950 . S
H1363 C1393 0.950 . S
C1364 H1346 0.951 . S
C1364 C1365 1.366 . S
C1364 C1366 1.388 . S
C1365 C1364 1.366 . S
C1365 C1369 1.385 . S
C1366 H1347 0.951 . S
C1366 C1364 1.388 . S
C1366 C1367 1.366 . S
C1367 C1366 1.366 . S
C1367 C1368 1.414 . S
C1367 C1370 1.499 . S
C1368 H1348 0.950 . S
C1368 C1367 1.414 . S
C1368 C1369 1.374 . S
C1369 H1349 0.950 . S
C1369 C1365 1.385 . S
C1369 C1368 1.374 . S
C1370 C1367 1.499 . S
C1370 C1371 1.373 . S
C1370 C1372 1.389 . S
C1371 H1350 0.950 . S
C1371 C1370 1.373 . S
C1371 C1387 1.377 . S
C1372 C1370 1.389 . S
C1372 C1373 1.524 . S
C1372 C1386 1.377 . S
C1373 C1372 1.524 . S
C1373 C1374 1.397 . S
C1373 C1378 1.363 . S
C1374 H1351 0.950 . S
C1374 C1373 1.397 . S
C1374 C1375 1.334 . S
C1375 H1352 0.950 . S
C1375 C1374 1.334 . S
C1375 C1376 1.287 . S
C1376 C1375 1.287 . S
C1376 C1377 1.524 . S
C1376 H1395 0.913 . S
C1377 H1353 0.950 . S
C1377 C1376 1.524 . S
C1377 C1378 1.415 . S
C1378 H1354 0.950 . S
C1378 C1373 1.363 . S
C1378 C1377 1.415 . S
C1379 H1355 0.951 . S
C1379 C1380 1.366 . S
C1379 C1381 1.388 . S
C1380 C1379 1.366 . S
C1380 C1384 1.385 . S
C1381 H1356 0.951 . S
C1381 C1379 1.388 . S
C1381 C1382 1.366 . S
C1382 C1381 1.366 . S
C1382 C1383 1.414 . S
C1382 C1385 1.499 . S
C1383 H1357 0.950 . S
C1383 C1382 1.414 . S
C1383 C1384 1.374 . S
C1384 H1358 0.950 . S
C1384 C1380 1.385 . S
C1384 C1383 1.374 . S
C1385 C1382 1.499 . S
C1385 C1386 1.373 . S
C1385 C1387 1.389 . S
C1386 H1359 0.950 . S
C1386 C1372 1.377 . S
C1386 C1385 1.373 . S
C1387 C1371 1.377 . S
C1387 C1385 1.389 . S
C1387 C1388 1.524 . S
C1388 C1387 1.524 . S
C1388 C1389 1.397 . S
C1388 C1393 1.363 . S
C1389 H1360 0.950 . S
C1389 C1388 1.397 . S
C1389 C1390 1.334 . S
C1390 H1361 0.950 . S
C1390 C1389 1.334 . S
C1390 C1391 1.287 . S
C1391 C1390 1.287 . S
C1391 C1392 1.524 . S
C1391 H1394 0.999 . S
C1392 H1362 0.950 . S
C1392 C1391 1.524 . S
C1392 C1393 1.415 . S
C1393 H1363 0.950 . S
C1393 C1388 1.363 . S
C1393 C1392 1.415 . S
H1394 C1391 0.999 . S
H1395 C1376 0.913 . S
H1396 C1414 0.951 . S
H1397 C1416 0.951 . S
H1398 C1418 0.950 . S
H1399 C1419 0.950 . S
H1400 C1421 0.950 . S
H1401 C1424 0.950 . S
H1402 C1425 0.950 . S
H1403 C1427 0.950 . S
H1404 C1428 0.950 . S
H1405 C1429 0.951 . S
H1406 C1431 0.951 . S
H1407 C1433 0.950 . S
H1408 C1434 0.950 1_554 S
H1409 C1436 0.950 . S
H1410 C1439 0.950 . S
H1411 C1440 0.950 . S
H1412 C1442 0.950 . S
H1413 C1443 0.950 . S
C1414 H1396 0.951 . S
C1414 C1415 1.366 . S
C1414 C1416 1.388 . S
C1415 C1414 1.366 . S
C1415 C1419 1.385 . S
C1416 H1397 0.951 . S
C1416 C1414 1.388 . S
C1416 C1417 1.366 . S
C1417 C1416 1.366 . S
C1417 C1418 1.414 . S
C1417 C1420 1.499 . S
C1418 H1398 0.950 . S
C1418 C1417 1.414 . S
C1418 C1419 1.374 . S
C1419 H1399 0.950 . S
C1419 C1415 1.385 . S
C1419 C1418 1.374 . S
C1420 C1417 1.499 . S
C1420 C1421 1.373 . S
C1420 C1422 1.389 . S
C1421 H1400 0.950 . S
C1421 C1420 1.373 . S
C1421 C1437 1.377 . S
C1422 C1420 1.389 . S
C1422 C1423 1.524 . S
C1422 C1436 1.377 . S
C1423 C1422 1.524 . S
C1423 C1424 1.397 . S
C1423 C1428 1.363 . S
C1424 H1401 0.950 . S
C1424 C1423 1.397 . S
C1424 C1425 1.334 . S
C1425 H1402 0.950 . S
C1425 C1424 1.334 . S
C1425 C1426 1.287 . S
C1426 C1425 1.287 . S
C1426 C1427 1.524 . S
C1426 H1445 0.913 . S
C1427 H1403 0.950 . S
C1427 C1426 1.524 . S
C1427 C1428 1.415 . S
C1428 H1404 0.950 . S
C1428 C1423 1.363 . S
C1428 C1427 1.415 . S
C1429 H1405 0.951 . S
C1429 C1430 1.366 . S
C1429 C1431 1.388 . S
C1430 C1429 1.366 . S
C1430 C1434 1.385 . S
C1431 H1406 0.951 . S
C1431 C1429 1.388 . S
C1431 C1432 1.366 . S
C1432 C1431 1.366 . S
C1432 C1433 1.414 . S
C1432 C1435 1.499 . S
C1433 H1407 0.950 . S
C1433 C1432 1.414 . S
C1433 C1434 1.374 . S
C1434 H1408 0.950 1_556 S
C1434 C1430 1.385 . S
C1434 C1433 1.374 . S
C1435 C1432 1.499 . S
C1435 C1436 1.373 . S
C1435 C1437 1.389 . S
C1436 H1409 0.950 . S
C1436 C1422 1.377 . S
C1436 C1435 1.373 . S
C1437 C1421 1.377 . S
C1437 C1435 1.389 . S
C1437 C1438 1.524 . S
C1438 C1437 1.524 . S
C1438 C1439 1.397 . S
C1438 C1443 1.363 . S
C1439 H1410 0.950 . S
C1439 C1438 1.397 . S
C1439 C1440 1.334 . S
C1440 H1411 0.950 . S
C1440 C1439 1.334 . S
C1440 C1441 1.287 . S
C1441 C1440 1.287 . S
C1441 C1442 1.524 . S
C1441 H1444 0.999 . S
C1442 H1412 0.950 . S
C1442 C1441 1.524 . S
C1442 C1443 1.415 . S
C1443 H1413 0.950 . S
C1443 C1438 1.363 . S
C1443 C1442 1.415 . S
H1444 C1441 0.999 . S
H1445 C1426 0.913 . S
H1446 C1464 0.951 . S
H1447 C1466 0.951 . S
H1448 C1468 0.950 . S
H1449 C1469 0.950 . S
H1450 C1471 0.950 . S
H1451 C1474 0.950 . S
H1452 C1475 0.950 . S
H1453 C1477 0.950 . S
H1454 C1478 0.950 . S
H1455 C1479 0.951 . S
H1456 C1481 0.951 . S
H1457 C1483 0.950 . S
H1458 C1484 0.950 . S
H1459 C1486 0.950 . S
H1460 C1489 0.950 . S
H1461 C1490 0.950 . S
H1462 C1492 0.950 . S
H1463 C1493 0.950 . S
C1464 H1446 0.951 . S
C1464 C1465 1.366 . S
C1464 C1466 1.388 . S
C1465 C1464 1.366 . S
C1465 C1469 1.385 . S
C1466 H1447 0.951 . S
C1466 C1464 1.388 . S
C1466 C1467 1.366 . S
C1467 C1466 1.366 . S
C1467 C1468 1.414 . S
C1467 C1470 1.499 . S
C1468 H1448 0.950 . S
C1468 C1467 1.414 . S
C1468 C1469 1.374 . S
C1469 H1449 0.950 . S
C1469 C1465 1.385 . S
C1469 C1468 1.374 . S
C1470 C1467 1.499 . S
C1470 C1471 1.373 . S
C1470 C1472 1.389 . S
C1471 H1450 0.950 . S
C1471 C1470 1.373 . S
C1471 C1487 1.377 . S
C1472 C1470 1.389 . S
C1472 C1473 1.524 . S
C1472 C1486 1.377 . S
C1473 C1472 1.524 . S
C1473 C1474 1.397 . S
C1473 C1478 1.363 . S
C1474 H1451 0.950 . S
C1474 C1473 1.397 . S
C1474 C1475 1.334 . S
C1475 H1452 0.950 . S
C1475 C1474 1.334 . S
C1475 C1476 1.287 . S
C1476 C1475 1.287 . S
C1476 C1477 1.524 . S
C1476 H1495 0.913 . S
C1477 H1453 0.950 . S
C1477 C1476 1.524 . S
C1477 C1478 1.415 . S
C1478 H1454 0.950 . S
C1478 C1473 1.363 . S
C1478 C1477 1.415 . S
C1479 H1455 0.951 . S
C1479 C1480 1.366 . S
C1479 C1481 1.388 . S
C1480 C1479 1.366 . S
C1480 C1484 1.385 . S
C1481 H1456 0.951 . S
C1481 C1479 1.388 . S
C1481 C1482 1.366 . S
C1482 C1481 1.366 . S
C1482 C1483 1.414 . S
C1482 C1485 1.499 . S
C1483 H1457 0.950 . S
C1483 C1482 1.414 . S
C1483 C1484 1.374 . S
C1484 H1458 0.950 . S
C1484 C1480 1.385 . S
C1484 C1483 1.374 . S
C1485 C1482 1.499 . S
C1485 C1486 1.373 . S
C1485 C1487 1.389 . S
C1486 H1459 0.950 . S
C1486 C1472 1.377 . S
C1486 C1485 1.373 . S
C1487 C1471 1.377 . S
C1487 C1485 1.389 . S
C1487 C1488 1.524 . S
C1488 C1487 1.524 . S
C1488 C1489 1.397 . S
C1488 C1493 1.363 . S
C1489 H1460 0.950 . S
C1489 C1488 1.397 . S
C1489 C1490 1.334 . S
C1490 H1461 0.950 . S
C1490 C1489 1.334 . S
C1490 C1491 1.287 . S
C1491 C1490 1.287 . S
C1491 C1492 1.524 . S
C1491 H1494 0.999 . S
C1492 H1462 0.950 . S
C1492 C1491 1.524 . S
C1492 C1493 1.415 . S
C1493 H1463 0.950 . S
C1493 C1488 1.363 . S
C1493 C1492 1.415 . S
H1494 C1491 0.999 . S
H1495 C1476 0.913 . S
H1496 C1514 0.951 . S
H1497 C1516 0.951 . S
H1498 C1518 0.950 . S
H1499 C1519 0.950 . S
H1500 C1521 0.950 . S
H1501 C1524 0.950 . S
H1502 C1525 0.950 . S
H1503 C1527 0.950 . S
H1504 C1528 0.950 . S
H1505 C1529 0.951 . S
H1506 C1531 0.951 . S
H1507 C1533 0.950 . S
H1508 C1534 0.950 . S
H1509 C1536 0.950 . S
H1510 C1539 0.950 . S
H1511 C1540 0.950 . S
H1512 C1542 0.950 . S
H1513 C1543 0.950 . S
C1514 H1496 0.951 . S
C1514 C1515 1.366 . S
C1514 C1516 1.388 . S
C1515 C1514 1.366 . S
C1515 C1519 1.385 . S
C1516 H1497 0.951 . S
C1516 C1514 1.388 . S
C1516 C1517 1.366 . S
C1517 C1516 1.366 . S
C1517 C1518 1.414 . S
C1517 C1520 1.499 . S
C1518 H1498 0.950 . S
C1518 C1517 1.414 . S
C1518 C1519 1.374 . S
C1519 H1499 0.950 . S
C1519 C1515 1.385 . S
C1519 C1518 1.374 . S
C1520 C1517 1.499 . S
C1520 C1521 1.373 . S
C1520 C1522 1.389 . S
C1521 H1500 0.950 . S
C1521 C1520 1.373 . S
C1521 C1537 1.377 . S
C1522 C1520 1.389 . S
C1522 C1523 1.524 . S
C1522 C1536 1.377 . S
C1523 C1522 1.524 . S
C1523 C1524 1.397 . S
C1523 C1528 1.363 . S
C1524 H1501 0.950 . S
C1524 C1523 1.397 . S
C1524 C1525 1.334 . S
C1525 H1502 0.950 . S
C1525 C1524 1.334 . S
C1525 C1526 1.287 . S
C1526 C1525 1.287 . S
C1526 C1527 1.524 . S
C1526 H1545 0.913 . S
C1527 H1503 0.950 . S
C1527 C1526 1.524 . S
C1527 C1528 1.415 . S
C1528 H1504 0.950 . S
C1528 C1523 1.363 . S
C1528 C1527 1.415 . S
C1529 H1505 0.951 . S
C1529 C1530 1.366 . S
C1529 C1531 1.388 . S
C1530 C1529 1.366 . S
C1530 C1534 1.385 . S
C1531 H1506 0.951 . S
C1531 C1529 1.388 . S
C1531 C1532 1.366 . S
C1532 C1531 1.366 . S
C1532 C1533 1.414 . S
C1532 C1535 1.499 . S
C1533 H1507 0.950 . S
C1533 C1532 1.414 . S
C1533 C1534 1.374 . S
C1534 H1508 0.950 . S
C1534 C1530 1.385 . S
C1534 C1533 1.374 . S
C1535 C1532 1.499 . S
C1535 C1536 1.373 . S
C1535 C1537 1.389 . S
C1536 H1509 0.950 . S
C1536 C1522 1.377 . S
C1536 C1535 1.373 . S
C1537 C1521 1.377 . S
C1537 C1535 1.389 . S
C1537 C1538 1.524 . S
C1538 C1537 1.524 . S
C1538 C1539 1.397 . S
C1538 C1543 1.363 . S
C1539 H1510 0.950 . S
C1539 C1538 1.397 . S
C1539 C1540 1.334 . S
C1540 H1511 0.950 . S
C1540 C1539 1.334 . S
C1540 C1541 1.287 . S
C1541 C1540 1.287 . S
C1541 C1542 1.524 . S
C1541 H1544 0.999 . S
C1542 H1512 0.950 . S
C1542 C1541 1.524 . S
C1542 C1543 1.415 . S
C1543 H1513 0.950 . S
C1543 C1538 1.363 . S
C1543 C1542 1.415 . S
H1544 C1541 0.999 . S
H1545 C1526 0.913 . S
H1546 C1564 0.951 . S
H1547 C1566 0.951 . S
H1548 C1568 0.950 . S
H1549 C1569 0.950 . S
H1550 C1571 0.950 . S
H1551 C1574 0.950 . S
H1552 C1575 0.950 . S
H1553 C1577 0.950 . S
H1554 C1578 0.950 . S
H1555 C1579 0.951 . S
H1556 C1581 0.951 . S
H1557 C1583 0.950 . S
H1558 C1584 0.950 . S
H1559 C1586 0.950 . S
H1560 C1589 0.950 . S
H1561 C1590 0.950 . S
H1562 C1592 0.950 . S
H1563 C1593 0.950 . S
C1564 H1546 0.951 . S
C1564 C1565 1.366 . S
C1564 C1566 1.388 . S
C1565 C1564 1.366 . S
C1565 C1569 1.385 . S
C1566 H1547 0.951 . S
C1566 C1564 1.388 . S
C1566 C1567 1.366 . S
C1567 C1566 1.366 . S
C1567 C1568 1.414 . S
C1567 C1570 1.499 . S
C1568 H1548 0.950 . S
C1568 C1567 1.414 . S
C1568 C1569 1.374 . S
C1569 H1549 0.950 . S
C1569 C1565 1.385 . S
C1569 C1568 1.374 . S
C1570 C1567 1.499 . S
C1570 C1571 1.373 . S
C1570 C1572 1.389 . S
C1571 H1550 0.950 . S
C1571 C1570 1.373 . S
C1571 C1587 1.377 . S
C1572 C1570 1.389 . S
C1572 C1573 1.524 . S
C1572 C1586 1.377 . S
C1573 C1572 1.524 . S
C1573 C1574 1.397 . S
C1573 C1578 1.363 . S
C1574 H1551 0.950 . S
C1574 C1573 1.397 . S
C1574 C1575 1.334 . S
C1575 H1552 0.950 . S
C1575 C1574 1.334 . S
C1575 C1576 1.287 . S
C1576 C1575 1.287 . S
C1576 C1577 1.524 . S
C1576 H1595 0.913 . S
C1577 H1553 0.950 . S
C1577 C1576 1.524 . S
C1577 C1578 1.415 . S
C1578 H1554 0.950 . S
C1578 C1573 1.363 . S
C1578 C1577 1.415 . S
C1579 H1555 0.951 . S
C1579 C1580 1.366 . S
C1579 C1581 1.388 . S
C1580 C1579 1.366 . S
C1580 C1584 1.385 . S
C1581 H1556 0.951 . S
C1581 C1579 1.388 . S
C1581 C1582 1.366 . S
C1582 C1581 1.366 . S
C1582 C1583 1.414 . S
C1582 C1585 1.499 . S
C1583 H1557 0.950 . S
C1583 C1582 1.414 . S
C1583 C1584 1.374 . S
C1584 H1558 0.950 . S
C1584 C1580 1.385 . S
C1584 C1583 1.374 . S
C1585 C1582 1.499 . S
C1585 C1586 1.373 . S
C1585 C1587 1.389 . S
C1586 H1559 0.950 . S
C1586 C1572 1.377 . S
C1586 C1585 1.373 . S
C1587 C1571 1.377 . S
C1587 C1585 1.389 . S
C1587 C1588 1.524 . S
C1588 C1587 1.524 . S
C1588 C1589 1.397 . S
C1588 C1593 1.363 . S
C1589 H1560 0.950 . S
C1589 C1588 1.397 . S
C1589 C1590 1.334 . S
C1590 H1561 0.950 . S
C1590 C1589 1.334 . S
C1590 C1591 1.287 . S
C1591 C1590 1.287 . S
C1591 C1592 1.524 . S
C1591 H1594 0.999 . S
C1592 H1562 0.950 . S
C1592 C1591 1.524 . S
C1592 C1593 1.415 . S
C1593 H1563 0.950 . S
C1593 C1588 1.363 . S
C1593 C1592 1.415 . S
H1594 C1591 0.999 . S
H1595 C1576 0.913 . S
H1596 C1614 0.951 . S
H1597 C1616 0.951 . S
H1598 C1618 0.950 . S
H1599 C1619 0.950 . S
H1600 C1621 0.950 . S
H1601 C1624 0.950 . S
H1602 C1625 0.950 . S
H1603 C1627 0.950 . S
H1604 C1628 0.950 . S
H1605 C1629 0.951 . S
H1606 C1631 0.951 . S
H1607 C1633 0.950 . S
H1608 C1634 0.950 . S
H1609 C1636 0.950 . S
H1610 C1639 0.950 . S
H1611 C1640 0.950 . S
H1612 C1642 0.950 . S
H1613 C1643 0.950 . S
C1614 H1596 0.951 . S
C1614 C1615 1.366 . S
C1614 C1616 1.388 . S
C1615 C1614 1.366 . S
C1615 C1619 1.385 . S
C1616 H1597 0.951 . S
C1616 C1614 1.388 . S
C1616 C1617 1.366 . S
C1617 C1616 1.366 . S
C1617 C1618 1.414 . S
C1617 C1620 1.499 . S
C1618 H1598 0.950 . S
C1618 C1617 1.414 . S
C1618 C1619 1.374 . S
C1619 H1599 0.950 . S
C1619 C1615 1.385 . S
C1619 C1618 1.374 . S
C1620 C1617 1.499 . S
C1620 C1621 1.373 . S
C1620 C1622 1.389 . S
C1621 H1600 0.950 . S
C1621 C1620 1.373 . S
C1621 C1637 1.377 . S
C1622 C1620 1.389 . S
C1622 C1623 1.524 . S
C1622 C1636 1.377 . S
C1623 C1622 1.524 . S
C1623 C1624 1.397 . S
C1623 C1628 1.363 . S
C1624 H1601 0.950 . S
C1624 C1623 1.397 . S
C1624 C1625 1.334 . S
C1625 H1602 0.950 . S
C1625 C1624 1.334 . S
C1625 C1626 1.287 . S
C1626 C1625 1.287 . S
C1626 C1627 1.524 . S
C1626 H1645 0.913 1_565 S
C1627 H1603 0.950 . S
C1627 C1626 1.524 . S
C1627 C1628 1.415 . S
C1628 H1604 0.950 . S
C1628 C1623 1.363 . S
C1628 C1627 1.415 . S
C1629 H1605 0.951 . S
C1629 C1630 1.366 . S
C1629 C1631 1.388 . S
C1630 C1629 1.366 . S
C1630 C1634 1.385 . S
C1631 H1606 0.951 . S
C1631 C1629 1.388 . S
C1631 C1632 1.366 . S
C1632 C1631 1.366 . S
C1632 C1633 1.414 . S
C1632 C1635 1.499 . S
C1633 H1607 0.950 . S
C1633 C1632 1.414 . S
C1633 C1634 1.374 . S
C1634 H1608 0.950 . S
C1634 C1630 1.385 . S
C1634 C1633 1.374 . S
C1635 C1632 1.499 . S
C1635 C1636 1.373 . S
C1635 C1637 1.389 . S
C1636 H1609 0.950 . S
C1636 C1622 1.377 . S
C1636 C1635 1.373 . S
C1637 C1621 1.377 . S
C1637 C1635 1.389 . S
C1637 C1638 1.524 . S
C1638 C1637 1.524 . S
C1638 C1639 1.397 . S
C1638 C1643 1.363 . S
C1639 H1610 0.950 . S
C1639 C1638 1.397 . S
C1639 C1640 1.334 . S
C1640 H1611 0.950 . S
C1640 C1639 1.334 . S
C1640 C1641 1.287 . S
C1641 C1640 1.287 . S
C1641 C1642 1.524 . S
C1641 H1644 0.999 . S
C1642 H1612 0.950 . S
C1642 C1641 1.524 . S
C1642 C1643 1.415 . S
C1643 H1613 0.950 . S
C1643 C1638 1.363 . S
C1643 C1642 1.415 . S
H1644 C1641 0.999 . S
H1645 C1626 0.913 1_545 S
H1646 C1664 0.951 . S
H1647 C1666 0.951 . S
H1648 C1668 0.950 . S
H1649 C1669 0.950 . S
H1650 C1671 0.950 . S
H1651 C1674 0.950 . S
H1652 C1675 0.950 . S
H1653 C1677 0.950 . S
H1654 C1678 0.950 . S
H1655 C1679 0.951 . S
H1656 C1681 0.951 . S
H1657 C1683 0.950 . S
H1658 C1684 0.950 . S
H1659 C1686 0.950 . S
H1660 C1689 0.950 . S
H1661 C1690 0.950 . S
H1662 C1692 0.950 . S
H1663 C1693 0.950 . S
C1664 H1646 0.951 . S
C1664 C1665 1.366 . S
C1664 C1666 1.388 . S
C1665 C1664 1.366 . S
C1665 C1669 1.385 . S
C1666 H1647 0.951 . S
C1666 C1664 1.388 . S
C1666 C1667 1.366 . S
C1667 C1666 1.366 . S
C1667 C1668 1.414 . S
C1667 C1670 1.499 . S
C1668 H1648 0.950 . S
C1668 C1667 1.414 . S
C1668 C1669 1.374 . S
C1669 H1649 0.950 . S
C1669 C1665 1.385 . S
C1669 C1668 1.374 . S
C1670 C1667 1.499 . S
C1670 C1671 1.373 . S
C1670 C1672 1.389 . S
C1671 H1650 0.950 . S
C1671 C1670 1.373 . S
C1671 C1687 1.377 . S
C1672 C1670 1.389 . S
C1672 C1673 1.524 1_545 S
C1672 C1686 1.377 1_545 S
C1673 C1672 1.524 1_565 S
C1673 C1674 1.397 . S
C1673 C1678 1.363 . S
C1674 H1651 0.950 . S
C1674 C1673 1.397 . S
C1674 C1675 1.334 . S
C1675 H1652 0.950 . S
C1675 C1674 1.334 . S
C1675 C1676 1.287 . S
C1676 C1675 1.287 . S
C1676 C1677 1.524 . S
C1676 H1695 0.913 . S
C1677 H1653 0.950 . S
C1677 C1676 1.524 . S
C1677 C1678 1.415 . S
C1678 H1654 0.950 . S
C1678 C1673 1.363 . S
C1678 C1677 1.415 . S
C1679 H1655 0.951 . S
C1679 C1680 1.366 . S
C1679 C1681 1.388 . S
C1680 C1679 1.366 . S
C1680 C1684 1.385 . S
C1681 H1656 0.951 . S
C1681 C1679 1.388 . S
C1681 C1682 1.366 . S
C1682 C1681 1.366 . S
C1682 C1683 1.414 . S
C1682 C1685 1.499 . S
C1683 H1657 0.950 . S
C1683 C1682 1.414 . S
C1683 C1684 1.374 . S
C1684 H1658 0.950 . S
C1684 C1680 1.385 . S
C1684 C1683 1.374 . S
C1685 C1682 1.499 . S
C1685 C1686 1.373 . S
C1685 C1687 1.389 1_565 S
C1686 H1659 0.950 . S
C1686 C1672 1.377 1_565 S
C1686 C1685 1.373 . S
C1687 C1671 1.377 . S
C1687 C1685 1.389 1_545 S
C1687 C1688 1.524 . S
C1688 C1687 1.524 . S
C1688 C1689 1.397 . S
C1688 C1693 1.363 . S
C1689 H1660 0.950 . S
C1689 C1688 1.397 . S
C1689 C1690 1.334 . S
C1690 H1661 0.950 . S
C1690 C1689 1.334 . S
C1690 C1691 1.287 . S
C1691 C1690 1.287 . S
C1691 C1692 1.524 . S
C1691 H1694 0.999 . S
C1692 H1662 0.950 . S
C1692 C1691 1.524 . S
C1692 C1693 1.415 . S
C1693 H1663 0.950 . S
C1693 C1688 1.363 . S
C1693 C1692 1.415 . S
H1694 C1691 0.999 . S
H1695 C1676 0.913 . S
H1696 C1714 0.951 . S
H1697 C1716 0.951 . S
H1698 C1718 0.950 . S
H1699 C1719 0.950 . S
H1700 C1721 0.950 . S
H1701 C1724 0.950 . S
H1702 C1725 0.950 . S
H1703 C1727 0.950 . S
H1704 C1728 0.950 . S
H1705 C1729 0.951 . S
H1706 C1731 0.951 . S
H1707 C1733 0.950 . S
H1708 C1734 0.950 . S
H1709 C1736 0.950 . S
H1710 C1739 0.950 . S
H1711 C1740 0.950 . S
H1712 C1742 0.950 . S
H1713 C1743 0.950 . S
C1714 H1696 0.951 . S
C1714 C1715 1.366 . S
C1714 C1716 1.388 . S
C1715 C1714 1.366 . S
C1715 C1719 1.385 . S
C1716 H1697 0.951 . S
C1716 C1714 1.388 . S
C1716 C1717 1.366 . S
C1717 C1716 1.366 . S
C1717 C1718 1.414 . S
C1717 C1720 1.499 . S
C1718 H1698 0.950 . S
C1718 C1717 1.414 . S
C1718 C1719 1.374 . S
C1719 H1699 0.950 . S
C1719 C1715 1.385 . S
C1719 C1718 1.374 . S
C1720 C1717 1.499 . S
C1720 C1721 1.373 . S
C1720 C1722 1.389 . S
C1721 H1700 0.950 . S
C1721 C1720 1.373 . S
C1721 C1737 1.377 . S
C1722 C1720 1.389 . S
C1722 C1723 1.524 . S
C1722 C1736 1.377 . S
C1723 C1722 1.524 . S
C1723 C1724 1.397 . S
C1723 C1728 1.363 . S
C1724 H1701 0.950 . S
C1724 C1723 1.397 . S
C1724 C1725 1.334 . S
C1725 H1702 0.950 . S
C1725 C1724 1.334 . S
C1725 C1726 1.287 . S
C1726 C1725 1.287 . S
C1726 C1727 1.524 . S
C1726 H1745 0.913 . S
C1727 H1703 0.950 . S
C1727 C1726 1.524 . S
C1727 C1728 1.415 . S
C1728 H1704 0.950 . S
C1728 C1723 1.363 . S
C1728 C1727 1.415 . S
C1729 H1705 0.951 . S
C1729 C1730 1.366 . S
C1729 C1731 1.388 . S
C1730 C1729 1.366 . S
C1730 C1734 1.385 . S
C1731 H1706 0.951 . S
C1731 C1729 1.388 . S
C1731 C1732 1.366 . S
C1732 C1731 1.366 . S
C1732 C1733 1.414 . S
C1732 C1735 1.499 . S
C1733 H1707 0.950 . S
C1733 C1732 1.414 . S
C1733 C1734 1.374 . S
C1734 H1708 0.950 . S
C1734 C1730 1.385 . S
C1734 C1733 1.374 . S
C1735 C1732 1.499 . S
C1735 C1736 1.373 . S
C1735 C1737 1.389 . S
C1736 H1709 0.950 . S
C1736 C1722 1.377 . S
C1736 C1735 1.373 . S
C1737 C1721 1.377 . S
C1737 C1735 1.389 . S
C1737 C1738 1.524 . S
C1738 C1737 1.524 . S
C1738 C1739 1.397 . S
C1738 C1743 1.363 . S
C1739 H1710 0.950 . S
C1739 C1738 1.397 . S
C1739 C1740 1.334 . S
C1740 H1711 0.950 . S
C1740 C1739 1.334 . S
C1740 C1741 1.287 . S
C1741 C1740 1.287 . S
C1741 C1742 1.524 . S
C1741 H1744 0.999 . S
C1742 H1712 0.950 . S
C1742 C1741 1.524 . S
C1742 C1743 1.415 . S
C1743 H1713 0.950 . S
C1743 C1738 1.363 . S
C1743 C1742 1.415 . S
H1744 C1741 0.999 . S
H1745 C1726 0.913 . S
H1746 C1764 0.951 . S
H1747 C1766 0.951 . S
H1748 C1768 0.950 . S
H1749 C1769 0.950 . S
H1750 C1771 0.950 . S
H1751 C1774 0.950 . S
H1752 C1775 0.950 . S
H1753 C1777 0.950 . S
H1754 C1778 0.950 . S
H1755 C1779 0.951 . S
H1756 C1781 0.951 . S
H1757 C1783 0.950 . S
H1758 C1784 0.950 . S
H1759 C1786 0.950 . S
H1760 C1789 0.950 . S
H1761 C1790 0.950 . S
H1762 C1792 0.950 . S
H1763 C1793 0.950 . S
C1764 H1746 0.951 . S
C1764 C1765 1.366 . S
C1764 C1766 1.388 . S
C1765 C1764 1.366 . S
C1765 C1769 1.385 . S
C1766 H1747 0.951 . S
C1766 C1764 1.388 . S
C1766 C1767 1.366 . S
C1767 C1766 1.366 . S
C1767 C1768 1.414 . S
C1767 C1770 1.499 . S
C1768 H1748 0.950 . S
C1768 C1767 1.414 . S
C1768 C1769 1.374 . S
C1769 H1749 0.950 . S
C1769 C1765 1.385 . S
C1769 C1768 1.374 . S
C1770 C1767 1.499 . S
C1770 C1771 1.373 . S
C1770 C1772 1.389 . S
C1771 H1750 0.950 . S
C1771 C1770 1.373 . S
C1771 C1787 1.377 . S
C1772 C1770 1.389 . S
C1772 C1773 1.524 . S
C1772 C1786 1.377 . S
C1773 C1772 1.524 . S
C1773 C1774 1.397 . S
C1773 C1778 1.363 . S
C1774 H1751 0.950 . S
C1774 C1773 1.397 . S
C1774 C1775 1.334 . S
C1775 H1752 0.950 . S
C1775 C1774 1.334 . S
C1775 C1776 1.287 . S
C1776 C1775 1.287 . S
C1776 C1777 1.524 . S
C1776 H1795 0.913 . S
C1777 H1753 0.950 . S
C1777 C1776 1.524 . S
C1777 C1778 1.415 . S
C1778 H1754 0.950 . S
C1778 C1773 1.363 . S
C1778 C1777 1.415 . S
C1779 H1755 0.951 . S
C1779 C1780 1.366 . S
C1779 C1781 1.388 . S
C1780 C1779 1.366 . S
C1780 C1784 1.385 . S
C1781 H1756 0.951 . S
C1781 C1779 1.388 . S
C1781 C1782 1.366 . S
C1782 C1781 1.366 . S
C1782 C1783 1.414 . S
C1782 C1785 1.499 . S
C1783 H1757 0.950 . S
C1783 C1782 1.414 . S
C1783 C1784 1.374 . S
C1784 H1758 0.950 . S
C1784 C1780 1.385 . S
C1784 C1783 1.374 . S
C1785 C1782 1.499 . S
C1785 C1786 1.373 . S
C1785 C1787 1.389 . S
C1786 H1759 0.950 . S
C1786 C1772 1.377 . S
C1786 C1785 1.373 . S
C1787 C1771 1.377 . S
C1787 C1785 1.389 . S
C1787 C1788 1.524 . S
C1788 C1787 1.524 . S
C1788 C1789 1.397 . S
C1788 C1793 1.363 . S
C1789 H1760 0.950 . S
C1789 C1788 1.397 . S
C1789 C1790 1.334 . S
C1790 H1761 0.950 . S
C1790 C1789 1.334 . S
C1790 C1791 1.287 . S
C1791 C1790 1.287 . S
C1791 C1792 1.524 . S
C1791 H1794 0.999 . S
C1792 H1762 0.950 . S
C1792 C1791 1.524 . S
C1792 C1793 1.415 . S
C1793 H1763 0.950 . S
C1793 C1788 1.363 . S
C1793 C1792 1.415 . S
H1794 C1791 0.999 . S
H1795 C1776 0.913 . S
H1796 C1814 0.951 . S
H1797 C1816 0.951 . S
H1798 C1818 0.950 . S
H1799 C1819 0.950 . S
H1800 C1821 0.950 . S
H1801 C1824 0.950 . S
H1802 C1825 0.950 . S
H1803 C1827 0.950 . S
H1804 C1828 0.950 . S
H1805 C1829 0.951 . S
H1806 C1831 0.951 . S
H1807 C1833 0.950 . S
H1808 C1834 0.950 . S
H1809 C1836 0.950 . S
H1810 C1839 0.941 1_655 S
H1811 C1840 0.950 . S
H1812 C1842 0.950 . S
H1813 C1843 0.950 . S
C1814 H1796 0.951 . S
C1814 C1815 1.366 . S
C1814 C1816 1.388 1_455 S
C1815 C1814 1.366 . S
C1815 C1819 1.385 . S
C1816 H1797 0.951 . S
C1816 C1814 1.388 1_655 S
C1816 C1817 1.366 1_655 S
C1817 C1816 1.366 1_455 S
C1817 C1818 1.414 . S
C1817 C1820 1.499 1_455 S
C1818 H1798 0.950 . S
C1818 C1817 1.414 . S
C1818 C1819 1.374 . S
C1819 H1799 0.950 . S
C1819 C1815 1.385 . S
C1819 C1818 1.374 . S
C1820 C1817 1.499 1_655 S
C1820 C1821 1.373 1_655 S
C1820 C1822 1.389 . S
C1821 H1800 0.950 . S
C1821 C1820 1.373 1_455 S
C1821 C1837 1.377 1_455 S
C1822 C1820 1.389 . S
C1822 C1823 1.524 . S
C1822 C1836 1.377 . S
C1823 C1822 1.524 . S
C1823 C1824 1.397 . S
C1823 C1828 1.363 . S
C1824 H1801 0.950 . S
C1824 C1823 1.397 . S
C1824 C1825 1.334 . S
C1825 H1802 0.950 . S
C1825 C1824 1.334 . S
C1825 C1826 1.287 . S
C1826 C1825 1.287 . S
C1826 C1827 1.524 . S
C1826 H1845 0.913 . S
C1827 H1803 0.950 . S
C1827 C1826 1.524 . S
C1827 C1828 1.415 . S
C1828 H1804 0.950 . S
C1828 C1823 1.363 . S
C1828 C1827 1.415 . S
C1829 H1805 0.951 . S
C1829 C1830 1.366 . S
C1829 C1831 1.388 . S
C1830 C1829 1.366 . S
C1830 C1834 1.385 . S
C1831 H1806 0.951 . S
C1831 C1829 1.388 . S
C1831 C1832 1.366 . S
C1832 C1831 1.366 . S
C1832 C1833 1.414 . S
C1832 C1835 1.499 . S
C1833 H1807 0.950 . S
C1833 C1832 1.414 . S
C1833 C1834 1.374 . S
C1834 H1808 0.950 . S
C1834 C1830 1.385 . S
C1834 C1833 1.374 . S
C1835 C1832 1.499 . S
C1835 C1836 1.373 . S
C1835 C1837 1.388 . S
C1836 H1809 0.950 . S
C1836 C1822 1.377 . S
C1836 C1835 1.373 . S
C1837 C1821 1.377 1_655 S
C1837 C1835 1.388 . S
C1837 C1838 1.525 1_655 S
C1838 C1837 1.525 1_455 S
C1838 C1839 1.397 . S
C1838 C1843 1.363 . S
C1839 H1810 0.941 1_455 S
C1839 C1838 1.397 . S
C1839 C1840 1.334 . S
C1840 H1811 0.950 . S
C1840 C1839 1.334 . S
C1840 C1841 1.287 . S
C1841 C1840 1.287 . S
C1841 C1842 1.524 . S
C1841 H1844 0.999 . S
C1842 H1812 0.950 . S
C1842 C1841 1.524 . S
C1842 C1843 1.415 . S
C1843 H1813 0.950 . S
C1843 C1838 1.363 . S
C1843 C1842 1.415 . S
H1844 C1841 0.999 . S
H1845 C1826 0.913 . S
H1846 C1864 0.951 . S
H1847 C1866 0.951 . S
H1848 C1868 0.950 . S
H1849 C1869 0.950 . S
H1850 C1871 0.950 . S
H1851 C1874 0.950 . S
H1852 C1875 0.950 . S
H1853 C1877 0.950 . S
H1854 C1878 0.950 . S
H1855 C1879 0.951 . S
H1856 C1881 0.951 . S
H1857 C1883 0.950 . S
H1858 C1884 0.950 . S
H1859 C1886 0.950 . S
H1860 C1889 0.950 . S
H1861 C1890 0.950 . S
H1862 C1892 0.950 . S
H1863 C1893 0.950 . S
C1864 H1846 0.951 . S
C1864 C1865 1.366 . S
C1864 C1866 1.388 . S
C1865 C1864 1.366 . S
C1865 C1869 1.385 . S
C1866 H1847 0.951 . S
C1866 C1864 1.388 . S
C1866 C1867 1.366 . S
C1867 C1866 1.366 . S
C1867 C1868 1.414 . S
C1867 C1870 1.499 . S
C1868 H1848 0.950 . S
C1868 C1867 1.414 . S
C1868 C1869 1.374 . S
C1869 H1849 0.950 . S
C1869 C1865 1.385 . S
C1869 C1868 1.374 . S
C1870 C1867 1.499 . S
C1870 C1871 1.373 . S
C1870 C1872 1.389 . S
C1871 H1850 0.950 . S
C1871 C1870 1.373 . S
C1871 C1887 1.377 . S
C1872 C1870 1.389 . S
C1872 C1873 1.524 . S
C1872 C1886 1.377 . S
C1873 C1872 1.524 . S
C1873 C1874 1.397 . S
C1873 C1878 1.363 . S
C1874 H1851 0.950 . S
C1874 C1873 1.397 . S
C1874 C1875 1.334 . S
C1875 H1852 0.950 . S
C1875 C1874 1.334 . S
C1875 C1876 1.287 . S
C1876 C1875 1.287 . S
C1876 C1877 1.524 . S
C1876 H1895 0.913 . S
C1877 H1853 0.950 . S
C1877 C1876 1.524 . S
C1877 C1878 1.415 . S
C1878 H1854 0.950 . S
C1878 C1873 1.363 . S
C1878 C1877 1.415 . S
C1879 H1855 0.951 . S
C1879 C1880 1.366 . S
C1879 C1881 1.388 . S
C1880 C1879 1.366 . S
C1880 C1884 1.385 . S
C1881 H1856 0.951 . S
C1881 C1879 1.388 . S
C1881 C1882 1.366 . S
C1882 C1881 1.366 . S
C1882 C1883 1.414 . S
C1882 C1885 1.499 . S
C1883 H1857 0.950 . S
C1883 C1882 1.414 . S
C1883 C1884 1.374 . S
C1884 H1858 0.950 . S
C1884 C1880 1.385 . S
C1884 C1883 1.374 . S
C1885 C1882 1.499 . S
C1885 C1886 1.373 . S
C1885 C1887 1.389 . S
C1886 H1859 0.950 . S
C1886 C1872 1.377 . S
C1886 C1885 1.373 . S
C1887 C1871 1.377 . S
C1887 C1885 1.389 . S
C1887 C1888 1.524 . S
C1888 C1887 1.524 . S
C1888 C1889 1.397 . S
C1888 C1893 1.363 . S
C1889 H1860 0.950 . S
C1889 C1888 1.397 . S
C1889 C1890 1.334 . S
C1890 H1861 0.950 . S
C1890 C1889 1.334 . S
C1890 C1891 1.287 . S
C1891 C1890 1.287 . S
C1891 C1892 1.524 . S
C1891 H1894 0.999 . S
C1892 H1862 0.950 . S
C1892 C1891 1.524 . S
C1892 C1893 1.415 . S
C1893 H1863 0.950 . S
C1893 C1888 1.363 . S
C1893 C1892 1.415 . S
H1894 C1891 0.999 . S
H1895 C1876 0.913 . S
H1896 C1914 0.951 . S
H1897 C1916 0.951 . S
H1898 C1918 0.950 . S
H1899 C1919 0.950 . S
H1900 C1921 0.950 . S
H1901 C1924 0.950 . S
H1902 C1925 0.950 . S
H1903 C1927 0.950 . S
H1904 C1928 0.950 . S
H1905 C1929 0.951 . S
H1906 C1931 0.951 . S
H1907 C1933 0.950 . S
H1908 C1934 0.950 . S
H1909 C1936 0.950 . S
H1910 C1939 0.950 . S
H1911 C1940 0.950 . S
H1912 C1942 0.950 . S
H1913 C1943 0.950 . S
C1914 H1896 0.951 . S
C1914 C1915 1.366 . S
C1914 C1916 1.388 . S
C1915 C1914 1.366 . S
C1915 C1919 1.385 . S
C1916 H1897 0.951 . S
C1916 C1914 1.388 . S
C1916 C1917 1.366 . S
C1917 C1916 1.366 . S
C1917 C1918 1.414 . S
C1917 C1920 1.499 . S
C1918 H1898 0.950 . S
C1918 C1917 1.414 . S
C1918 C1919 1.374 . S
C1919 H1899 0.950 . S
C1919 C1915 1.385 . S
C1919 C1918 1.374 . S
C1920 C1917 1.499 . S
C1920 C1921 1.373 . S
C1920 C1922 1.389 . S
C1921 H1900 0.950 . S
C1921 C1920 1.373 . S
C1921 C1937 1.377 . S
C1922 C1920 1.389 . S
C1922 C1923 1.524 . S
C1922 C1936 1.377 . S
C1923 C1922 1.524 . S
C1923 C1924 1.397 . S
C1923 C1928 1.363 . S
C1924 H1901 0.950 . S
C1924 C1923 1.397 . S
C1924 C1925 1.334 . S
C1925 H1902 0.950 . S
C1925 C1924 1.334 . S
C1925 C1926 1.287 . S
C1926 C1925 1.287 . S
C1926 C1927 1.524 . S
C1926 H1945 0.913 . S
C1927 H1903 0.950 . S
C1927 C1926 1.524 . S
C1927 C1928 1.415 . S
C1928 H1904 0.950 . S
C1928 C1923 1.363 . S
C1928 C1927 1.415 . S
C1929 H1905 0.951 . S
C1929 C1930 1.366 . S
C1929 C1931 1.388 . S
C1930 C1929 1.366 . S
C1930 C1934 1.385 . S
C1931 H1906 0.951 . S
C1931 C1929 1.388 . S
C1931 C1932 1.366 . S
C1932 C1931 1.366 . S
C1932 C1933 1.414 . S
C1932 C1935 1.499 . S
C1933 H1907 0.950 . S
C1933 C1932 1.414 . S
C1933 C1934 1.374 . S
C1934 H1908 0.950 . S
C1934 C1930 1.385 . S
C1934 C1933 1.374 . S
C1935 C1932 1.499 . S
C1935 C1936 1.373 . S
C1935 C1937 1.389 . S
C1936 H1909 0.950 . S
C1936 C1922 1.377 . S
C1936 C1935 1.373 . S
C1937 C1921 1.377 . S
C1937 C1935 1.389 . S
C1937 C1938 1.524 . S
C1938 C1937 1.524 . S
C1938 C1939 1.397 . S
C1938 C1943 1.363 . S
C1939 H1910 0.950 . S
C1939 C1938 1.397 . S
C1939 C1940 1.334 . S
C1940 H1911 0.950 . S
C1940 C1939 1.334 . S
C1940 C1941 1.287 . S
C1941 C1940 1.287 . S
C1941 C1942 1.524 . S
C1941 H1944 0.999 . S
C1942 H1912 0.950 . S
C1942 C1941 1.524 . S
C1942 C1943 1.415 . S
C1943 H1913 0.950 . S
C1943 C1938 1.363 . S
C1943 C1942 1.415 . S
H1944 C1941 0.999 . S
H1945 C1926 0.913 . S
H1946 C1964 0.951 . S
H1947 C1966 0.951 . S
H1948 C1968 0.950 . S
H1949 C1969 0.950 . S
H1950 C1971 0.950 . S
H1951 C1974 0.950 . S
H1952 C1975 0.950 . S
H1953 C1977 0.950 . S
H1954 C1978 0.950 . S
H1955 C1979 0.951 . S
H1956 C1981 0.951 . S
H1957 C1983 0.950 . S
H1958 C1984 0.950 . S
H1959 C1986 0.950 . S
H1960 C1989 0.950 . S
H1961 C1990 0.950 . S
H1962 C1992 0.950 . S
H1963 C1993 0.950 . S
C1964 H1946 0.951 . S
C1964 C1965 1.366 . S
C1964 C1966 1.388 . S
C1965 C1964 1.366 . S
C1965 C1969 1.385 . S
C1966 H1947 0.951 . S
C1966 C1964 1.388 . S
C1966 C1967 1.366 . S
C1967 C1966 1.366 . S
C1967 C1968 1.414 . S
C1967 C1970 1.499 1_455 S
C1968 H1948 0.950 . S
C1968 C1967 1.414 . S
C1968 C1969 1.374 . S
C1969 H1949 0.950 . S
C1969 C1965 1.385 . S
C1969 C1968 1.374 . S
C1970 C1967 1.499 1_655 S
C1970 C1971 1.373 1_655 S
C1970 C1972 1.389 . S
C1971 H1950 0.950 . S
C1971 C1970 1.373 1_455 S
C1971 C1987 1.377 1_455 S
C1972 C1970 1.389 . S
C1972 C1973 1.524 . S
C1972 C1986 1.377 . S
C1973 C1972 1.524 . S
C1973 C1974 1.397 . S
C1973 C1978 1.363 . S
C1974 H1951 0.950 . S
C1974 C1973 1.397 . S
C1974 C1975 1.334 . S
C1975 H1952 0.950 . S
C1975 C1974 1.334 . S
C1975 C1976 1.287 . S
C1976 C1975 1.287 . S
C1976 C1977 1.524 . S
C1976 H1995 0.913 . S
C1977 H1953 0.950 . S
C1977 C1976 1.524 . S
C1977 C1978 1.415 . S
C1978 H1954 0.950 . S
C1978 C1973 1.363 . S
C1978 C1977 1.415 . S
C1979 H1955 0.951 . S
C1979 C1980 1.366 . S
C1979 C1981 1.388 . S
C1980 C1979 1.366 . S
C1980 C1984 1.385 . S
C1981 H1956 0.951 . S
C1981 C1979 1.388 . S
C1981 C1982 1.366 . S
C1982 C1981 1.366 . S
C1982 C1983 1.414 . S
C1982 C1985 1.499 . S
C1983 H1957 0.950 . S
C1983 C1982 1.414 . S
C1983 C1984 1.374 . S
C1984 H1958 0.950 . S
C1984 C1980 1.385 . S
C1984 C1983 1.374 . S
C1985 C1982 1.499 . S
C1985 C1986 1.373 . S
C1985 C1987 1.389 . S
C1986 H1959 0.950 . S
C1986 C1972 1.377 . S
C1986 C1985 1.373 . S
C1987 C1971 1.377 1_655 S
C1987 C1985 1.389 . S
C1987 C1988 1.524 1_655 S
C1988 C1987 1.524 1_455 S
C1988 C1989 1.397 . S
C1988 C1993 1.363 . S
C1989 H1960 0.950 . S
C1989 C1988 1.397 . S
C1989 C1990 1.334 . S
C1990 H1961 0.950 . S
C1990 C1989 1.334 . S
C1990 C1991 1.287 . S
C1991 C1990 1.287 . S
C1991 C1992 1.524 . S
C1991 H1994 0.999 . S
C1992 H1962 0.950 . S
C1992 C1991 1.524 . S
C1992 C1993 1.415 . S
C1993 H1963 0.950 . S
C1993 C1988 1.363 . S
C1993 C1992 1.415 . S
H1994 C1991 0.999 . S
H1995 C1976 0.913 . S
H1996 C2014 0.951 . S
H1997 C2016 0.951 . S
H1998 C2018 0.950 . S
H1999 C2019 0.950 . S
H2000 C2021 0.950 . S
H2001 C2024 0.950 . S
H2002 C2025 0.950 . S
H2003 C2027 0.950 . S
H2004 C2028 0.950 . S
H2005 C2029 0.951 . S
H2006 C2031 0.951 . S
H2007 C2033 0.950 . S
H2008 C2034 0.950 . S
H2009 C2036 0.950 . S
H2010 C2039 0.950 . S
H2011 C2040 0.950 . S
H2012 C2042 0.950 . S
H2013 C2043 0.950 . S
C2014 H1996 0.951 . S
C2014 C2015 1.366 . S
C2014 C2016 1.388 . S
C2015 C2014 1.366 . S
C2015 C2019 1.385 . S
C2016 H1997 0.951 . S
C2016 C2014 1.388 . S
C2016 C2017 1.366 . S
C2017 C2016 1.366 . S
C2017 C2018 1.414 . S
C2017 C2020 1.499 . S
C2018 H1998 0.950 . S
C2018 C2017 1.414 . S
C2018 C2019 1.374 . S
C2019 H1999 0.950 . S
C2019 C2015 1.385 . S
C2019 C2018 1.374 . S
C2020 C2017 1.499 . S
C2020 C2021 1.373 . S
C2020 C2022 1.389 . S
C2021 H2000 0.950 . S
C2021 C2020 1.373 . S
C2021 C2037 1.377 . S
C2022 C2020 1.389 . S
C2022 C2023 1.524 . S
C2022 C2036 1.377 . S
C2023 C2022 1.524 . S
C2023 C2024 1.397 . S
C2023 C2028 1.363 . S
C2024 H2001 0.950 . S
C2024 C2023 1.397 . S
C2024 C2025 1.334 . S
C2025 H2002 0.950 . S
C2025 C2024 1.334 . S
C2025 C2026 1.287 . S
C2026 C2025 1.287 . S
C2026 C2027 1.524 . S
C2026 H2045 0.913 . S
C2027 H2003 0.950 . S
C2027 C2026 1.524 . S
C2027 C2028 1.415 . S
C2028 H2004 0.950 . S
C2028 C2023 1.363 . S
C2028 C2027 1.415 . S
C2029 H2005 0.951 . S
C2029 C2030 1.366 . S
C2029 C2031 1.388 . S
C2030 C2029 1.366 . S
C2030 C2034 1.385 . S
C2031 H2006 0.951 . S
C2031 C2029 1.388 . S
C2031 C2032 1.366 . S
C2032 C2031 1.366 . S
C2032 C2033 1.414 . S
C2032 C2035 1.499 . S
C2033 H2007 0.950 . S
C2033 C2032 1.414 . S
C2033 C2034 1.374 . S
C2034 H2008 0.950 . S
C2034 C2030 1.385 . S
C2034 C2033 1.374 . S
C2035 C2032 1.499 . S
C2035 C2036 1.373 . S
C2035 C2037 1.389 . S
C2036 H2009 0.950 . S
C2036 C2022 1.377 . S
C2036 C2035 1.373 . S
C2037 C2021 1.377 . S
C2037 C2035 1.389 . S
C2037 C2038 1.524 . S
C2038 C2037 1.524 . S
C2038 C2039 1.397 . S
C2038 C2043 1.363 . S
C2039 H2010 0.950 . S
C2039 C2038 1.397 . S
C2039 C2040 1.334 . S
C2040 H2011 0.950 . S
C2040 C2039 1.334 . S
C2040 C2041 1.287 . S
C2041 C2040 1.287 . S
C2041 C2042 1.524 . S
C2041 H2044 0.999 . S
C2042 H2012 0.950 . S
C2042 C2041 1.524 . S
C2042 C2043 1.415 . S
C2043 H2013 0.950 . S
C2043 C2038 1.363 . S
C2043 C2042 1.415 . S
H2044 C2041 0.999 . S
H2045 C2026 0.913 . S
H2046 C2064 0.951 . S
H2047 C2066 0.951 . S
H2048 C2068 0.950 . S
H2049 C2069 0.950 . S
H2050 C2071 0.950 . S
H2051 C2074 0.950 . S
H2052 C2075 0.950 . S
H2053 C2077 0.950 . S
H2054 C2078 0.950 . S
H2055 C2079 0.951 . S
H2056 C2081 0.951 . S
H2057 C2083 0.950 . S
H2058 C2084 0.950 . S
H2059 C2086 0.950 . S
H2060 C2089 0.950 . S
H2061 C2090 0.950 . S
H2062 C2092 0.950 . S
H2063 C2093 0.950 . S
C2064 H2046 0.951 . S
C2064 C2065 1.366 . S
C2064 C2066 1.388 . S
C2065 C2064 1.366 . S
C2065 C2069 1.385 . S
C2066 H2047 0.951 . S
C2066 C2064 1.388 . S
C2066 C2067 1.366 . S
C2067 C2066 1.366 . S
C2067 C2068 1.414 . S
C2067 C2070 1.499 . S
C2068 H2048 0.950 . S
C2068 C2067 1.414 . S
C2068 C2069 1.374 . S
C2069 H2049 0.950 . S
C2069 C2065 1.385 . S
C2069 C2068 1.374 . S
C2070 C2067 1.499 . S
C2070 C2071 1.373 . S
C2070 C2072 1.389 . S
C2071 H2050 0.950 . S
C2071 C2070 1.373 . S
C2071 C2087 1.377 . S
C2072 C2070 1.389 . S
C2072 C2073 1.524 . S
C2072 C2086 1.377 . S
C2073 C2072 1.524 . S
C2073 C2074 1.397 . S
C2073 C2078 1.363 . S
C2074 H2051 0.950 . S
C2074 C2073 1.397 . S
C2074 C2075 1.334 . S
C2075 H2052 0.950 . S
C2075 C2074 1.334 . S
C2075 C2076 1.287 . S
C2076 C2075 1.287 . S
C2076 C2077 1.524 . S
C2076 H2095 0.913 . S
C2077 H2053 0.950 . S
C2077 C2076 1.524 . S
C2077 C2078 1.415 . S
C2078 H2054 0.950 . S
C2078 C2073 1.363 . S
C2078 C2077 1.415 . S
C2079 H2055 0.951 . S
C2079 C2080 1.366 . S
C2079 C2081 1.388 . S
C2080 C2079 1.366 . S
C2080 C2084 1.385 . S
C2081 H2056 0.951 . S
C2081 C2079 1.388 . S
C2081 C2082 1.366 . S
C2082 C2081 1.366 . S
C2082 C2083 1.414 . S
C2082 C2085 1.499 . S
C2083 H2057 0.950 . S
C2083 C2082 1.414 . S
C2083 C2084 1.374 . S
C2084 H2058 0.950 . S
C2084 C2080 1.385 . S
C2084 C2083 1.374 . S
C2085 C2082 1.499 . S
C2085 C2086 1.373 . S
C2085 C2087 1.389 . S
C2086 H2059 0.950 . S
C2086 C2072 1.377 . S
C2086 C2085 1.373 . S
C2087 C2071 1.377 . S
C2087 C2085 1.389 . S
C2087 C2088 1.524 . S
C2088 C2087 1.524 . S
C2088 C2089 1.397 . S
C2088 C2093 1.363 . S
C2089 H2060 0.950 . S
C2089 C2088 1.397 . S
C2089 C2090 1.334 . S
C2090 H2061 0.950 . S
C2090 C2089 1.334 . S
C2090 C2091 1.287 . S
C2091 C2090 1.287 . S
C2091 C2092 1.524 . S
C2091 H2094 0.999 . S
C2092 H2062 0.950 . S
C2092 C2091 1.524 . S
C2092 C2093 1.415 . S
C2093 H2063 0.950 . S
C2093 C2088 1.363 . S
C2093 C2092 1.415 . S
H2094 C2091 0.999 . S
H2095 C2076 0.913 . S
C530 C404 1.262 . S
C515 C36 1.246 . S
C580 C421 1.336 . S
C565 C93 1.364 . S
C630 C435 1.483 . S
C615 C126 1.520 . S
C665 C165 1.241 . S
C680 C393 1.229 . S
C715 C222 1.196 . S
C730 C390 1.228 . S
C765 C261 1.040 . S
C780 C407 1.030 . S
C830 C418 1.489 . S
C815 C318 1.459 . S
C880 C432 1.333 . S
C865 C381 1.337 . S
C915 C132 1.318 . S
C930 C460 1.332 . S
C980 C474 1.490 . S
C965 C189 1.500 . S
C1015 C30 1.045 . S
C1030 C491 1.031 . S
C1080 C446 1.226 . S
C1065 C69 1.188 1_655 S
C1115 C324 1.237 . S
C1130 C449 1.228 . S
C1165 C357 1.506 . S
C1180 C463 1.483 . S
C1230 C477 1.335 . S
C1215 C228 1.359 . S
C1265 C285 1.257 . S
C1280 C488 1.262 . S
C1330 C420 2.027 . S
C1315 C45 1.996 1_565 S
C1380 C434 2.094 . S
C1365 C84 2.095 . S
C1415 C117 1.996 . S
C1430 C392 2.012 1_556 S
C1465 C174 1.843 . S
C1480 C405 1.782 . S
C1515 C213 1.712 . S
C1530 C433 1.581 . S
C1580 C391 1.515 . S
C1565 C270 1.618 . S
C1630 C406 1.908 . S
C1615 C309 1.918 . S
C1680 C419 1.705 . S
C1665 C372 1.827 . S
C1730 C475 1.704 . S
C1715 C141 1.809 . S
C1780 C490 1.908 . S
C1765 C180 1.915 . S
C1815 C21 1.640 . S
C1830 C447 1.516 . S
C1880 C461 1.580 . S
C1865 C78 1.699 . S
C1930 C489 1.782 . S
C1915 C333 1.896 . S
C1965 C366 1.960 . S
C1980 C448 2.011 . S
C2030 C462 2.093 . S
C2015 C237 2.094 . S
C2080 C476 2.027 . S
C2065 C276 2.031 . S
