# Generated by pormake.
# Topology zzz, (3,6)-cn, num edge types: 1
# Building blocks:
#     Node 0, Type 0, BuildingBlock: CUQRIR_clean_linker_1, # of connection points: 3
#     Node 1, Type 0, BuildingBlock: CUQRIR_clean_linker_1, # of connection points: 3
#     Node 2, Type 0, BuildingBlock: CUQRIR_clean_linker_1, # of connection points: 3
#     Node 3, Type 0, BuildingBlock: CUQRIR_clean_linker_1, # of connection points: 3
#     Node 4, Type 0, BuildingBlock: CUQRIR_clean_linker_1, # of connection points: 3
#     Node 5, Type 0, BuildingBlock: CUQRIR_clean_linker_1, # of connection points: 3
#     Node 6, Type 0, BuildingBlock: CUQRIR_clean_linker_1, # of connection points: 3
#     Node 7, Type 0, BuildingBlock: CUQRIR_clean_linker_1, # of connection points: 3
#     Node 8, Type 1, BuildingBlock: CUWYAW_clean_sbu_0, # of connection points: 6
#     Node 9, Type 1, BuildingBlock: CUWYAW_clean_sbu_0, # of connection points: 6
#     Node 10, Type 1, BuildingBlock: CUWYAW_clean_sbu_0, # of connection points: 6
#     Node 11, Type 1, BuildingBlock: CUWYAW_clean_sbu_0, # of connection points: 6
#     Edge 12, Type (0, 1), BuildingBlock: XIVTED_clean_linker_0, # of connection points: 2
#     Edge 13, Type (0, 1), BuildingBlock: XIVTED_clean_linker_0, # of connection points: 2
#     Edge 14, Type (0, 1), BuildingBlock: XIVTED_clean_linker_0, # of connection points: 2
#     Edge 15, Type (0, 1), BuildingBlock: XIVTED_clean_linker_0, # of connection points: 2
#     Edge 16, Type (0, 1), BuildingBlock: XIVTED_clean_linker_0, # of connection points: 2
#     Edge 17, Type (0, 1), BuildingBlock: XIVTED_clean_linker_0, # of connection points: 2
#     Edge 18, Type (0, 1), BuildingBlock: XIVTED_clean_linker_0, # of connection points: 2
#     Edge 19, Type (0, 1), BuildingBlock: XIVTED_clean_linker_0, # of connection points: 2
#     Edge 20, Type (0, 1), BuildingBlock: XIVTED_clean_linker_0, # of connection points: 2
#     Edge 21, Type (0, 1), BuildingBlock: XIVTED_clean_linker_0, # of connection points: 2
#     Edge 22, Type (0, 1), BuildingBlock: XIVTED_clean_linker_0, # of connection points: 2
#     Edge 23, Type (0, 1), BuildingBlock: XIVTED_clean_linker_0, # of connection points: 2
#     Edge 24, Type (0, 1), BuildingBlock: XIVTED_clean_linker_0, # of connection points: 2
#     Edge 25, Type (0, 1), BuildingBlock: XIVTED_clean_linker_0, # of connection points: 2
#     Edge 26, Type (0, 1), BuildingBlock: XIVTED_clean_linker_0, # of connection points: 2
#     Edge 27, Type (0, 1), BuildingBlock: XIVTED_clean_linker_0, # of connection points: 2
#     Edge 28, Type (0, 1), BuildingBlock: XIVTED_clean_linker_0, # of connection points: 2
#     Edge 29, Type (0, 1), BuildingBlock: XIVTED_clean_linker_0, # of connection points: 2
#     Edge 30, Type (0, 1), BuildingBlock: XIVTED_clean_linker_0, # of connection points: 2
#     Edge 31, Type (0, 1), BuildingBlock: XIVTED_clean_linker_0, # of connection points: 2
#     Edge 32, Type (0, 1), BuildingBlock: XIVTED_clean_linker_0, # of connection points: 2
#     Edge 33, Type (0, 1), BuildingBlock: XIVTED_clean_linker_0, # of connection points: 2
#     Edge 34, Type (0, 1), BuildingBlock: XIVTED_clean_linker_0, # of connection points: 2
#     Edge 35, Type (0, 1), BuildingBlock: XIVTED_clean_linker_0, # of connection points: 2
# Relax obj value: 0.303
# Max RMSD: 0.170
# Mean RMSD: 0.135
data_MOF--net-zzz--node1-CUWYAW_clean_sbu_0--node2-CUQRIR_clean_linker_1--edge1-XIVTED_clean_linker_0
_symmetry_space_group_name_H-M    P1
_symmetry_Int_Tables_number       1
_symmetry_cell_setting            triclinic
loop_
_symmetry_equiv_pos_as_xyz
'x, y, z'
_cell_length_a     47.844532
_cell_length_b     47.929898
_cell_length_c     12.806903
_cell_angle_alpha  89.935705
_cell_angle_beta   90.132035
_cell_angle_gamma 89.947355
loop_
_atom_site_label
_atom_site_type_symbol
_atom_site_fract_x
_atom_site_fract_y
_atom_site_fract_z
_atom_type_partial_charge
C0 C 0.74789 0.52645 0.39766 0.0
N1 N 0.76925 0.51066 0.43521 0.0
N2 N 0.72732 0.51013 0.35683 0.0
C3 C 0.74824 0.5577 0.39259 0.0
C4 C 0.73728 0.48386 0.36997 0.0
N5 N 0.76278 0.48412 0.4166 0.0
C6 C 0.72309 0.45815 0.32841 0.0
H7 H 0.7586 0.56641 0.46297 0.0
H8 H 0.7267 0.56612 0.38561 0.0
H9 H 0.76041 0.56426 0.32314 0.0
H10 H 0.72417 0.45824 0.24185 0.0
H11 H 0.70069 0.45825 0.35051 0.0
H12 H 0.73295 0.43882 0.3589 0.0
C13 C 1.02073 0.75787 0.38937 0.0
N14 N 0.03573 0.7796 0.42814 0.0
N15 N 0.03788 0.7381 0.34777 0.0
C16 C 0.98944 0.75696 0.38484 0.0
C17 C 0.06379 0.74899 0.36131 0.0
N18 N 0.06253 0.77413 0.40958 0.0
C19 C 0.09007 0.73608 0.31881 0.0
H20 H 0.98036 0.7673 0.45446 0.0
H21 H 0.98192 0.7351 0.3797 0.0
H22 H 0.98229 0.76844 0.31439 0.0
H23 H 0.08998 0.73791 0.23242 0.0
H24 H 0.09079 0.71356 0.33854 0.0
H25 H 0.10902 0.74639 0.35052 0.0
C26 C 0.78769 0.03034 0.38601 0.0
N27 N 0.76656 1.01512 0.42801 0.0
N28 N 0.80744 1.01343 0.34298 0.0
C29 C 0.78798 0.06157 0.38017 0.0
C30 C 0.79716 0.98743 0.35924 0.0
N31 N 0.7723 0.98838 0.40986 0.0
C32 C 0.81017 0.96128 0.31617 0.0
H33 H 0.77557 0.06829 0.31129 0.0
H34 H 0.80965 0.06946 0.37152 0.0
H35 H 0.77822 0.07066 0.45097 0.0
H36 H 0.79954 0.94227 0.34549 0.0
H37 H 0.83255 0.96028 0.33852 0.0
H38 H 0.80906 0.96179 0.22962 0.0
C39 C 0.51547 0.80312 0.38469 0.0
N40 N 0.50043 0.78207 0.42798 0.0
N41 N 0.49833 0.8233 0.34545 0.0
C42 C 0.54668 0.80307 0.37475 0.0
C43 C 0.47232 0.81337 0.36526 0.0
N44 N 0.47357 0.78842 0.41503 0.0
C45 C 0.44581 0.82686 0.32685 0.0
H46 H 0.55639 0.79261 0.44318 0.0
H47 H 0.55479 0.82467 0.36743 0.0
H48 H 0.55254 0.79122 0.30369 0.0
H49 H 0.44568 0.82689 0.24019 0.0
H50 H 0.44498 0.84888 0.35304 0.0
H51 H 0.42696 0.81591 0.356 0.0
C52 C 0.29622 0.52813 0.1612 0.0
N53 N 0.27531 0.5438 0.11972 0.0
N54 N 0.31714 0.54459 0.19852 0.0
C55 C 0.29514 0.49703 0.17304 0.0
C56 C 0.30782 0.57084 0.17943 0.0
N57 N 0.28243 0.57043 0.13216 0.0
C58 C 0.32246 0.59682 0.21602 0.0
H59 H 0.28309 0.49184 0.2444 0.0
H60 H 0.31649 0.4882 0.18086 0.0
H61 H 0.28431 0.48749 0.10517 0.0
H62 H 0.34489 0.59594 0.19459 0.0
H63 H 0.32122 0.59802 0.30242 0.0
H64 H 0.31303 0.61586 0.18139 0.0
C65 C 1.01846 0.30314 0.16348 0.0
N66 N 0.03295 0.28061 0.12889 0.0
N67 N 0.03573 0.32165 0.21231 0.0
C68 C 0.9874 0.30642 0.15336 0.0
C69 C 0.06119 0.30913 0.207 0.0
N70 N 0.0595 0.28436 0.15636 0.0
C71 C 0.08723 0.32016 0.25858 0.0
H72 H 0.98137 0.32877 0.15514 0.0
H73 H 0.97716 0.29554 0.21953 0.0
H74 H 0.97991 0.29672 0.07978 0.0
H75 H 0.08279 0.32533 0.34137 0.0
H76 H 0.0938 0.33963 0.21886 0.0
H77 H 0.10485 0.30518 0.25458 0.0
C78 C 0.24324 0.03018 0.17775 0.0
N79 N 0.26424 1.01415 0.13907 0.0
N80 N 0.22255 1.01407 0.21886 0.0
C81 C 0.24396 0.06141 0.18273 0.0
C82 C 0.23208 0.98769 0.20486 0.0
N83 N 0.25739 0.98768 0.15722 0.0
C84 C 0.21768 0.96209 0.24631 0.0
H85 H 0.25611 0.0678 0.25261 0.0
H86 H 0.22251 0.07008 0.18904 0.0
H87 H 0.2545 0.07004 0.11269 0.0
H88 H 0.19527 0.96241 0.22413 0.0
H89 H 0.21885 0.96211 0.33287 0.0
H90 H 0.22731 0.94268 0.21584 0.0
C91 C 0.51967 0.26019 0.18867 0.0
N92 N 0.53644 0.28012 0.14677 0.0
N93 N 0.53511 0.23896 0.22982 0.0
C94 C 0.48853 0.26256 0.19717 0.0
C95 C 0.56184 0.24708 0.21274 0.0
N96 N 0.56272 0.27206 0.163 0.0
C97 C 0.58704 0.23176 0.2537 0.0
H98 H 0.47884 0.24164 0.20527 0.0
H99 H 0.47982 0.27344 0.12777 0.0
H100 H 0.48336 0.27508 0.26736 0.0
H101 H 0.58534 0.20922 0.23535 0.0
H102 H 0.58783 0.23387 0.33994 0.0
H103 H 0.60666 0.24002 0.21961 0.0
C104 C 1.00282 0.05641 0.46972 0.0
Eu105 Eu 1.00168 0.04095 0.66339 0.0
C106 C 1.02465 0.07182 0.41339 0.0
C107 C 0.02944 0.06732 0.30683 0.0
C108 C 0.0497 0.083 0.25398 0.0
C109 C 0.06531 0.10361 0.30693 0.0
C110 C 0.06133 0.10666 0.4153 0.0
C111 C 0.04147 0.09082 0.46777 0.0
C112 C 0.96031 0.0319 0.80904 0.0
C113 C 1.01414 0.08706 0.84164 0.0
C114 C 0.03327 1.0095 0.08727 0.0
Eu115 Eu 0.02714 1.02147 0.89065 0.0
C116 C 0.05247 0.99411 0.15585 0.0
C117 C 0.08083 0.99092 0.13073 0.0
C118 C 0.09776 0.973 0.18963 0.0
C119 C 0.08643 0.95768 0.27331 0.0
C120 C 0.05854 0.96281 0.3027 0.0
C121 C 0.04177 0.9809 0.24456 0.0
C122 C 0.06827 0.03077 0.74339 0.0
C123 C 1.01361 0.9741 0.71189 0.0
O124 O 1.00983 0.03125 0.49989 0.0
O125 O 0.98962 0.0705 0.54243 0.0
O126 O 0.95532 0.03924 0.71269 0.0
O127 O 0.98634 0.02905 0.81775 0.0
O128 O 1.01491 0.08183 0.73984 0.0
O129 O 1.01376 0.06668 0.91177 0.0
O130 O 1.01814 0.99437 0.02305 0.0
O131 O 0.04307 0.0323 0.04412 0.0
O132 O 0.07336 1.02214 0.83788 0.0
O133 O 0.04229 0.03421 0.73729 0.0
O134 O 1.02005 0.97916 0.81162 0.0
O135 O 1.00705 0.99414 0.64419 0.0
H136 H 1.01716 0.05213 0.26419 0.0
H137 H 0.0525 0.07954 0.17119 0.0
H138 H 0.07232 0.12241 0.45968 0.0
H139 H 0.03868 0.09412 0.55075 0.0
H140 H 0.08958 1.00127 0.06307 0.0
H141 H 0.11928 0.97001 0.16611 0.0
H142 H 0.04888 0.95127 0.36562 0.0
H143 H 1.01998 0.9834 0.26565 0.0
C144 C 0.49321 1.01306 0.47402 0.0
Eu145 Eu 0.50605 1.01861 0.6699 0.0
C146 C 0.47704 0.99388 0.40836 0.0
C147 C 0.4724 0.96616 0.43907 0.0
C148 C 0.45405 0.9493 0.38221 0.0
C149 C 0.43978 0.96004 0.29466 0.0
C150 C 0.44618 0.98724 0.26046 0.0
C151 C 0.46467 1.00396 0.31678 0.0
C152 C 0.51433 0.97695 0.81577 0.0
C153 C 0.45931 0.03188 0.85125 0.0
C154 C 0.54296 0.04242 0.09032 0.0
Eu155 Eu 0.52651 0.04292 0.8972 0.0
C156 C 0.55769 1.02106 0.15103 0.0
C157 C 0.56934 0.02747 0.24814 0.0
C158 C 0.58632 1.00799 0.29908 0.0
C159 C 0.5915 0.98154 0.25488 0.0
C160 C 0.57786 0.97464 0.16087 0.0
C161 C 0.56184 0.99451 0.10818 0.0
C162 C 0.51701 0.08482 0.75372 0.0
C163 C 0.57211 0.03076 0.71664 0.0
O164 O 0.47868 0.02856 0.53888 0.0
O165 O 0.51614 1.00291 0.51566 0.0
O166 O 0.50576 0.97231 0.72099 0.0
O167 O 0.5186 1.00272 0.82276 0.0
O168 O 0.464 0.02632 0.7506 0.0
O169 O 0.47972 0.03737 0.91893 0.0
O170 O 0.51752 0.03584 0.06148 0.0
O171 O 0.55757 0.05373 0.01481 0.0
O172 O 0.52418 0.08945 0.85038 0.0
O173 O 0.51452 0.05888 0.74373 0.0
O174 O 0.56726 0.02965 0.8187 0.0
O175 O 0.5514 0.03143 0.64762 0.0
H176 H 0.48206 0.95791 0.5092 0.0
H177 H 0.45008 0.92829 0.40965 0.0
H178 H 0.4354 0.99647 0.19466 0.0
H179 H 0.46821 0.02526 0.29163 0.0
H180 H 0.56651 0.04799 0.28199 0.0
H181 H 0.59682 1.01446 0.36946 0.0
H182 H 0.58065 0.95442 0.12483 0.0
H183 H 0.55371 0.98959 0.03161 0.0
C184 C 0.54315 0.50745 0.46833 0.0
Eu185 Eu 0.53641 0.52044 0.66342 0.0
C186 C 0.56077 0.48989 0.40121 0.0
C187 C 0.58983 0.48793 0.41563 0.0
C188 C 0.60554 0.46915 0.35613 0.0
C189 C 0.59239 0.45182 0.28215 0.0
C190 C 0.5635 0.45513 0.2645 0.0
C191 C 0.54794 0.47404 0.32306 0.0
C192 C 0.57609 0.52662 0.8182 0.0
C193 C 0.52376 0.47361 0.84205 0.0
C194 C 0.5015 0.55351 0.08152 0.0
Eu195 Eu 0.50917 0.54002 0.88757 0.0
C196 C 0.4827 0.57189 0.13985 0.0
C197 C 0.46903 0.59394 0.08935 0.0
C198 C 0.45269 0.61255 0.14642 0.0
C199 C 0.44945 0.60931 0.25518 0.0
C200 C 0.46205 0.58617 0.30424 0.0
C201 C 0.47861 0.56766 0.24697 0.0
C202 C 0.46939 0.53319 0.73358 0.0
C203 C 0.52146 0.58695 0.70931 0.0
O204 O 0.52565 0.49431 0.5302 0.0
O205 O 0.55512 0.52906 0.51258 0.0
O206 O 0.58196 0.51918 0.72305 0.0
O207 O 0.55017 0.53059 0.82174 0.0
O208 O 0.52763 0.47829 0.74046 0.0
O209 O 0.51975 0.4941 0.9103 0.0
O210 O 0.51984 0.56592 0.0209 0.0
O211 O 0.48964 0.53183 0.03762 0.0
O212 O 0.46361 0.54076 0.82857 0.0
O213 O 0.49538 0.5297 0.72935 0.0
O214 O 0.51747 0.58222 0.81071 0.0
O215 O 0.52587 0.56649 0.64119 0.0
H216 H 0.60028 0.50022 0.47495 0.0
H217 H 0.62776 0.46742 0.37099 0.0
H218 H 0.55239 0.44184 0.21029 0.0
H219 H 0.52558 0.47542 0.31025 0.0
H220 H 0.47177 0.59732 1.0063 0.0
H221 H 0.44392 0.63031 0.10563 0.0
H222 H 0.45982 0.5828 0.38738 0.0
H223 H 0.48875 0.55043 0.28679 0.0
C224 C 0.04526 0.5517 0.47864 0.0
Eu225 Eu 0.03141 0.54272 0.67225 0.0
C226 C 0.06398 0.57074 0.42267 0.0
C227 C 0.06035 0.57542 0.31544 0.0
C228 C 0.0799 0.59122 0.25979 0.0
C229 C 0.10349 0.60241 0.31067 0.0
C230 C 0.10602 0.59885 0.41958 0.0
C231 C 0.0864 0.5833 0.47497 0.0
C232 C 1.02437 0.58363 0.82171 0.0
C233 C 0.07907 0.5307 0.84466 0.0
C234 C 1.00418 0.50123 0.07753 0.0
Eu235 Eu 1.01213 0.51564 0.88396 0.0
C236 C 0.98554 0.48413 0.14266 0.0
C237 C 0.97927 0.45631 0.11732 0.0
C238 C 0.95974 0.4414 0.17617 0.0
C239 C 0.94588 0.45416 0.26043 0.0
C240 C 0.9536 0.48144 0.2891 0.0
C241 C 0.97329 0.4962 0.23098 0.0
C242 C 1.01302 0.48019 0.71713 0.0
C243 C 0.96485 0.53072 0.71614 0.0
O244 O 0.0575 0.53312 0.53844 0.0
O245 O 1.02341 0.56311 0.52269 0.0
O246 O 0.03245 0.58846 0.72682 0.0
O247 O 1.02055 0.55778 0.82956 0.0
O248 O 0.07427 0.53702 0.7454 0.0
O249 O 0.05858 0.52414 0.90985 0.0
O250 O 0.99322 0.52376 0.03567 0.0
O251 O 1.02112 0.488 0.01428 0.0
O252 O 0.99574 0.47813 0.79478 0.0
O253 O 0.03047 0.49943 0.73576 0.0
O254 O 0.9699 0.52887 0.81796 0.0
O255 O 0.98551 0.53187 0.64739 0.0
H256 H 0.04289 0.56613 0.27414 0.0
H257 H 0.07701 0.59386 0.17649 0.0
H258 H 0.12404 0.6066 0.46172 0.0
H259 H 0.08939 0.58007 0.55804 0.0
H260 H 0.98875 0.44635 0.05028 0.0
H261 H 0.95466 0.42028 0.153 0.0
H262 H 0.94319 0.49218 0.35235 0.0
H263 H 0.97813 0.51751 0.25262 0.0
H264 H 0.22586 0.039 0.40753 0.0
H265 H 0.06117 0.02722 0.5289 0.0
H266 H 0.16703 1.00629 0.18489 0.0
H267 H 0.12436 0.03733 0.76535 0.0
H268 H 0.09788 0.02678 0.3946 0.0
H269 H 0.18741 0.04635 0.53165 0.0
C270 C 0.2047 0.03392 0.38428 0.0
C271 C 0.19956 1.0222 0.28588 0.0
C272 C 0.10369 0.02937 0.47581 0.0
C273 C 0.15533 0.03009 0.42782 0.0
C274 C 0.08265 0.02988 0.55241 0.0
C275 C 0.08957 0.03256 0.65857 0.0
C276 C 0.13195 0.0319 0.50553 0.0
C277 C 0.11799 0.03524 0.68456 0.0
C278 C 0.18277 0.03784 0.45528 0.0
C279 C 0.17179 1.01546 0.26004 0.0
N280 N 0.13801 0.0349 0.60901 0.0
N281 N 0.15075 1.01942 0.33045 0.0
H282 H 0.51353 0.24368 0.42381 0.0
H283 H 0.51619 0.07825 0.53928 0.0
H284 H 0.5383 0.18335 0.19372 0.0
H285 H 0.51363 0.14112 0.77932 0.0
H286 H 0.51687 0.11548 0.40628 0.0
H287 H 0.50553 0.20557 0.54922 0.0
C288 C 0.5167 0.22229 0.39934 0.0
C289 C 0.52636 0.21656 0.29838 0.0
C290 C 0.51592 0.1211 0.48806 0.0
C291 C 0.51771 0.17273 0.44147 0.0
C292 C 0.51538 0.09985 0.56395 0.0
C293 C 0.51483 0.10657 0.67069 0.0
C294 C 0.51557 0.14931 0.519 0.0
C295 C 0.51409 0.13495 0.69805 0.0
C296 C 0.5124 0.20055 0.47097 0.0
C297 C 0.53069 0.18852 0.2708 0.0
N298 N 0.51446 0.15516 0.6231 0.0
N299 N 0.5264 0.16768 0.34179 0.0
H300 H 0.31298 0.52277 0.39201 0.0
H301 H 0.47772 0.53029 0.51927 0.0
H302 H 0.37283 0.55077 0.16495 0.0
H303 H 0.41308 0.53094 0.75314 0.0
H304 H 0.44119 0.52902 0.3826 0.0
H305 H 0.35105 0.5165 0.51908 0.0
C306 C 0.33429 0.52704 0.36859 0.0
C307 C 0.33986 0.53713 0.26809 0.0
C308 C 0.43511 0.52938 0.46395 0.0
C309 C 0.38363 0.53043 0.41309 0.0
C310 C 0.45592 0.52989 0.54187 0.0
C311 C 0.44844 0.53072 0.64787 0.0
C312 C 0.40668 0.52948 0.49236 0.0
C313 C 0.41985 0.53042 0.67255 0.0
C314 C 0.35599 0.52373 0.44114 0.0
C315 C 0.36778 0.54286 0.2418 0.0
N316 N 0.40013 0.52982 0.59583 0.0
N317 N 0.38864 0.5395 0.31379 0.0
H318 H 0.99758 0.32598 0.36817 0.0
H319 H 0.05122 0.47644 0.55553 0.0
H320 H 0.05823 0.37354 0.19583 0.0
H321 H 0.9787 0.4357 0.68358 0.0
H322 H 0.05427 0.43959 0.42233 0.0
H323 H 0.98988 0.36633 0.48248 0.0
C324 C 1.00896 0.34509 0.35344 0.0
C325 C 0.02866 0.34632 0.27255 0.0
C326 C 0.03759 0.43881 0.47921 0.0
C327 C 1.0206 0.39257 0.4052 0.0
C328 C 0.03585 0.45989 0.55527 0.0
C329 C 1.01478 0.45915 0.63143 0.0
C330 C 1.01829 0.41661 0.47976 0.0
C331 C 0.99544 0.43709 0.62708 0.0
C332 C 1.00475 0.3681 0.41923 0.0
C333 C 0.04321 0.37152 0.25835 0.0
N334 N 0.99778 0.4167 0.55351 0.0
N335 N 0.03911 0.39349 0.32435 0.0
H336 H 0.80396 0.03928 0.15547 0.0
H337 H 0.96711 1.01838 0.01789 0.0
H338 H 0.86263 1.00253 0.37017 0.0
H339 H 0.90435 0.04162 0.79222 0.0
H340 H 0.93061 1.01623 0.15301 0.0
H341 H 0.84181 0.04511 0.02762 0.0
C342 C 0.82499 0.03295 0.17618 0.0
C343 C 0.83025 1.02058 0.27353 0.0
C344 C 0.92483 1.02177 0.07387 0.0
C345 C 0.87376 0.02662 0.12708 0.0
C346 C 0.94568 1.02291 0.99663 0.0
C347 C 0.93881 0.02994 0.89318 0.0
C348 C 0.89686 0.02798 0.04786 0.0
C349 C 0.91066 0.03594 0.87064 0.0
C350 C 0.84656 0.03598 0.10297 0.0
C351 C 0.85778 1.0122 0.29591 0.0
N352 N 0.89086 0.03486 0.94691 0.0
N353 N 0.87845 1.01529 0.22342 0.0
H354 H 0.48699 0.878 0.37964 0.0
H355 H 0.53049 0.92298 0.79756 0.0
H356 H 0.52411 0.82197 0.15743 0.0
H357 H 0.49899 0.98153 0.02331 0.0
H358 H 0.52972 0.88634 0.93088 0.0
H359 H 0.49304 0.91669 0.25503 0.0
C360 C 0.49669 0.87397 0.30486 0.0
C361 C 0.50513 0.84679 0.27872 0.0
C362 C 0.52322 0.90722 0.95205 0.0
C363 C 0.5118 0.89085 0.13491 0.0
C364 C 0.52366 0.92817 0.87579 0.0
C365 C 0.51537 0.95549 0.89986 0.0
C366 C 0.51386 0.91334 0.0535 0.0
C367 C 0.50621 0.96091 1.00205 0.0
C368 C 0.50009 0.89602 0.2337 0.0
C369 C 0.5176 0.84265 0.18093 0.0
N370 N 0.50565 0.94005 0.07498 0.0
N371 N 0.52036 0.86432 0.1125 0.0
H372 H 0.73134 0.53476 0.16807 0.0
H373 H 0.56718 0.52361 0.0319 0.0
H374 H 0.67171 0.50213 0.38707 0.0
H375 H 0.63229 0.53205 0.8021 0.0
H376 H 0.60327 0.52247 0.17019 0.0
H377 H 0.69346 0.54171 0.04081 0.0
C378 C 0.7101 0.52962 0.18981 0.0
C379 C 0.70456 0.51805 0.2881 0.0
C380 C 0.60958 0.52484 0.08951 0.0
C381 C 0.66098 0.52543 0.14251 0.0
C382 C 0.58899 0.52562 0.01071 0.0
C383 C 0.59675 0.52802 0.90527 0.0
C384 C 0.63806 0.52702 0.06265 0.0
C385 C 0.62534 0.53018 0.88221 0.0
C386 C 0.6885 0.53329 0.11703 0.0
C387 C 0.67673 0.51119 0.31202 0.0
N388 N 0.64482 0.52974 0.95982 0.0
N389 N 0.65598 0.51491 0.23981 0.0
H390 H 0.0475 0.68326 0.38685 0.0
H391 H 1.0194 0.63946 0.79462 0.0
H392 H 1.01374 0.7394 0.1568 0.0
H393 H 0.02583 0.5776 0.03789 0.0
H394 H 1.01929 0.67613 0.92685 0.0
H395 H 0.04144 0.64418 0.26346 0.0
C396 C 0.03836 0.68719 0.31082 0.0
C397 C 0.03084 0.71449 0.28207 0.0
C398 C 1.0205 0.65458 0.95189 0.0
C399 C 1.02443 0.67014 0.13951 0.0
C400 C 1.02061 0.63356 0.87619 0.0
C401 C 1.02248 0.60534 0.90493 0.0
C402 C 1.02284 0.64762 0.05815 0.0
C403 C 1.02409 0.59905 0.01213 0.0
C404 C 0.03496 0.66495 0.24038 0.0
C405 C 1.01945 0.71862 0.18227 0.0
N406 N 1.02452 0.62001 0.08477 0.0
N407 N 1.01686 0.69682 0.11449 0.0
H408 H 0.08089 0.25723 0.9898 0.0
H409 H 0.0572 0.12378 0.1076 0.0
H410 H 0.08234 0.25994 0.32541 0.0
H411 H 0.11239 0.13248 0.37262 0.0
H412 H 0.07257 0.1687 0.04396 0.0
H413 H 0.09851 0.20907 0.99615 0.0
C414 C 0.0861 0.248 0.06454 0.0
C415 C 0.07971 0.26211 0.15728 0.0
C416 C 0.08212 0.16045 0.11422 0.0
C417 C 0.09942 0.20752 0.16561 0.0
C418 C 0.07319 0.13459 0.15118 0.0
C419 C 0.08212 0.12486 0.24929 0.0
C420 C 0.09975 0.17688 0.17669 0.0
C421 C 0.10346 0.13988 0.29999 0.0
C422 C 0.09591 0.22056 0.06822 0.0
C423 C 0.08697 0.24961 0.25236 0.0
N424 N 0.11066 0.1657 0.26554 0.0
N425 N 0.09595 0.22276 0.25425 0.0
H426 H 0.27383 0.95768 0.32408 0.0
H427 H 0.42055 0.95883 0.09088 0.0
H428 H 0.28779 0.96801 0.99453 0.0
H429 H 0.40131 0.9285 0.4002 0.0
H430 H 0.37233 0.94974 0.03881 0.0
H431 H 0.3181 0.93319 0.33914 0.0
C432 C 0.28575 0.95371 0.25392 0.0
C433 C 0.27753 0.96533 0.15833 0.0
C434 C 0.37891 0.94418 0.11708 0.0
C435 C 0.3292 0.93892 0.1757 0.0
C436 C 0.40646 0.94955 0.14714 0.0
C437 C 0.41481 0.94556 0.25143 0.0
C438 C 0.35963 0.93491 0.19208 0.0
C439 C 0.39591 0.93248 0.31948 0.0
C440 C 0.3113 0.94 0.26253 0.0
C441 C 0.29392 0.95991 0.07006 0.0
N442 N 0.36905 0.92832 0.28939 0.0
N443 N 0.31954 0.94796 0.08132 0.0
H444 H 0.59341 0.28856 0.32731 0.0
H445 H 0.63274 0.4188 0.37323 0.0
H446 H 0.58335 0.30014 0.99633 0.0
H447 H 0.58605 0.42849 0.08641 0.0
H448 H 0.64413 0.37133 0.32299 0.0
H449 H 0.61889 0.332 0.33741 0.0
C450 C 0.59792 0.29966 0.25565 0.0
C451 C 0.58598 0.29109 0.1612 0.0
C452 C 0.63149 0.38384 0.27068 0.0
C453 C 0.61442 0.34172 0.17168 0.0
C454 C 0.62535 0.41129 0.29843 0.0
C455 C 0.60711 0.42734 0.23653 0.0
C456 C 0.61861 0.37219 0.18224 0.0
C457 C 0.59887 0.41638 0.13949 0.0
C458 C 0.61246 0.32475 0.26115 0.0
C459 C 0.59188 0.3065 0.07088 0.0
N460 N 0.60392 0.38918 0.11683 0.0
N461 N 0.60484 0.33165 0.0788 0.0
H462 H 0.252 0.58779 0.96567 0.0
H463 H 0.13945 0.64496 0.36563 0.0
H464 H 0.2662 0.60288 0.29267 0.0
H465 H 0.12263 0.58628 0.11754 0.0
H466 H 0.18632 0.65199 0.29462 0.0
H467 H 0.20589 0.61007 0.98083 0.0
C468 C 0.2459 0.59698 0.03936 0.0
C469 C 0.26241 0.59289 0.12871 0.0
C470 C 0.17192 0.63831 0.25411 0.0
C471 C 0.21059 0.6189 0.146 0.0
C472 C 0.14526 0.63404 0.29494 0.0
C473 C 0.12742 0.614 0.25042 0.0
C474 C 0.18058 0.62278 0.16732 0.0
C475 C 0.13571 0.60152 0.15609 0.0
C476 C 0.21971 0.60963 0.04794 0.0
C477 C 0.254 0.60552 0.22212 0.0
N478 N 0.16196 0.60563 0.11899 0.0
N479 N 0.22838 0.6175 0.22895 0.0
H480 H 0.08113 0.80399 0.57516 0.0
H481 H 0.12018 0.92095 0.16874 0.0
H482 H 0.09112 0.79336 0.24381 0.0
H483 H 0.08606 0.93693 0.47497 0.0
H484 H 0.13071 0.8735 0.22188 0.0
H485 H 0.10267 0.85037 0.56158 0.0
C486 C 0.08894 0.81103 0.50038 0.0
C487 C 0.08389 0.79529 0.41009 0.0
C488 C 0.12159 0.8876 0.27843 0.0
C489 C 0.10862 0.84772 0.39383 0.0
C490 C 0.11576 0.91494 0.2485 0.0
C491 C 0.10124 0.93285 0.31624 0.0
C492 C 0.11255 0.87796 0.37612 0.0
C493 C 0.09624 0.92353 0.41866 0.0
C494 C 0.10115 0.83741 0.49258 0.0
C495 C 0.09463 0.80493 0.31511 0.0
N496 N 0.10115 0.89645 0.44464 0.0
N497 N 0.10601 0.83078 0.30905 0.0
H498 H 0.74154 0.96872 0.57201 0.0
H499 H 0.62665 0.9467 0.14544 0.0
H500 H 0.75369 0.96096 0.24053 0.0
H501 H 0.6099 0.97522 0.45952 0.0
H502 H 0.67146 0.92943 0.20295 0.0
H503 H 0.69401 0.95012 0.55153 0.0
C504 C 0.73458 0.96193 0.49571 0.0
C505 C 0.75101 0.96717 0.40731 0.0
C506 C 0.65773 0.93892 0.25998 0.0
C507 C 0.69741 0.94557 0.38331 0.0
C508 C 0.63176 0.9487 0.22738 0.0
C509 C 0.61457 0.96368 0.29647 0.0
C510 C 0.66706 0.94481 0.36142 0.0
C511 C 0.62296 0.96519 0.40177 0.0
C512 C 0.70754 0.95135 0.48401 0.0
C513 C 0.74155 0.95746 0.31049 0.0
N514 N 0.64902 0.95673 0.43036 0.0
N515 N 0.71513 0.94768 0.30068 0.0
H516 H 0.45579 0.76116 0.58763 0.0
H517 H 0.46463 0.62775 0.45028 0.0
H518 H 0.44282 0.76827 0.25622 0.0
H519 H 0.40514 0.64367 0.20316 0.0
H520 H 0.45456 0.67315 0.52286 0.0
H521 H 0.43434 0.71463 0.58371 0.0
C522 C 0.44735 0.75329 0.51491 0.0
C523 C 0.45165 0.76798 0.42167 0.0
C524 C 0.44279 0.66642 0.45517 0.0
C525 C 0.42773 0.71516 0.41577 0.0
C526 C 0.44866 0.64028 0.41302 0.0
C527 C 0.43667 0.63221 0.31748 0.0
C528 C 0.42511 0.68478 0.40053 0.0
C529 C 0.41598 0.64956 0.27404 0.0
C530 C 0.43538 0.72674 0.51243 0.0
C531 C 0.44005 0.75737 0.32951 0.0
N532 N 0.4116 0.67546 0.31369 0.0
N533 N 0.42914 0.73127 0.32837 0.0
H534 H 0.77845 0.4547 0.24775 0.0
H535 H 0.92749 0.45611 0.46467 0.0
H536 H 0.79494 0.46488 0.57598 0.0
H537 H 0.90559 0.42351 0.16106 0.0
H538 H 0.87943 0.44843 0.52159 0.0
H539 H 0.82287 0.43083 0.22827 0.0
C540 C 0.79096 0.4508 0.31676 0.0
C541 C 0.78332 0.46214 0.41327 0.0
C542 C 0.88538 0.44209 0.4436 0.0
C543 C 0.83519 0.43645 0.39067 0.0
C544 C 0.91282 0.44667 0.41075 0.0
C545 C 0.92043 0.44141 0.30665 0.0
C546 C 0.86546 0.43237 0.37154 0.0
C547 C 0.90077 0.4283 0.24156 0.0
C548 C 0.81661 0.43746 0.30556 0.0
C549 C 0.80054 0.45691 0.49985 0.0
N550 N 0.87406 0.42489 0.27428 0.0
N551 N 0.82621 0.44529 0.486 0.0
H552 H 1.02022 0.23425 0.2383 0.0
H553 H 1.02147 0.13612 0.73021 0.0
H554 H 1.02395 0.26703 0.92635 0.0
H555 H 1.00488 0.10587 0.04135 0.0
H556 H 1.02149 0.18405 0.79815 0.0
H557 H 1.01299 0.18724 0.1667 0.0
C558 C 1.01852 0.23156 0.15459 0.0
C559 C 1.02201 0.25456 0.08812 0.0
C560 C 1.01768 0.16692 0.8514 0.0
C561 C 1.01471 0.20064 1.00455 0.0
C562 C 1.0177 0.13947 0.81261 0.0
C563 C 1.01339 0.11665 0.87993 0.0
C564 C 1.0133 0.17181 0.95855 0.0
C565 C 1.00853 0.12257 0.98606 0.0
C566 C 1.01473 0.20471 0.11347 0.0
C567 C 1.02069 0.24989 0.98 0.0
N568 N 1.00875 0.14937 0.0218 0.0
N569 N 1.01741 0.2235 0.94155 0.0
H570 H 0.27715 0.02785 0.94007 0.0
H571 H 0.4425 0.03395 0.056 0.0
H572 H 0.313 1.01819 0.24587 0.0
H573 H 0.40868 0.02861 0.74407 0.0
H574 H 0.39518 0.0325 0.12606 0.0
H575 H 0.32449 0.03341 0.86699 0.0
C576 C 0.29503 0.02774 0.99203 0.0
C577 C 0.29119 1.02315 0.0993 0.0
C578 C 0.39799 0.03174 0.04224 0.0
C579 C 0.34556 0.02872 0.01644 0.0
C580 C 0.42517 0.03259 1.0017 0.0
C581 C 0.42994 0.03142 0.89326 0.0
C582 C 0.37492 0.03001 0.97448 0.0
C583 C 0.40627 0.02955 0.828 0.0
C584 C 0.32206 0.0305 0.95032 0.0
C585 C 0.31508 1.02228 0.16313 0.0
N586 N 0.37991 0.029 0.86946 0.0
N587 N 0.34113 0.02494 0.1209 0.0
H588 H 0.53528 0.32872 0.25349 0.0
H589 H 0.5253 0.42325 0.73456 0.0
H590 H 0.52239 0.2938 0.94838 0.0
H591 H 0.52331 0.45673 0.04708 0.0
H592 H 0.52545 0.37589 0.80893 0.0
H593 H 0.53144 0.37585 0.1785 0.0
C594 C 0.53078 0.3311 0.17106 0.0
C595 C 0.52848 0.30742 0.10735 0.0
C596 C 0.52491 0.39364 0.8611 0.0
C597 C 0.52492 0.36132 0.01946 0.0
C598 C 0.52493 0.42076 0.81859 0.0
C599 C 0.52425 0.44431 0.88412 0.0
C600 C 0.52444 0.38984 0.97023 0.0
C601 C 0.52375 0.43946 0.99273 0.0
C602 C 0.52889 0.35796 0.12783 0.0
C603 C 0.52364 0.31156 1.00024 0.0
N604 N 0.52394 0.413 0.03191 0.0
N605 N 0.5222 0.33791 0.95954 0.0
H606 H 0.26098 0.52811 0.92441 0.0
H607 H 0.09623 0.52923 0.04956 0.0
H608 H 0.22744 0.54129 0.23134 0.0
H609 H 0.12912 0.53256 0.73639 0.0
H610 H 0.14393 0.52873 0.11796 0.0
H611 H 0.21307 0.52355 0.85538 0.0
C612 C 0.24345 0.52912 0.9776 0.0
C613 C 0.24808 0.53455 0.08383 0.0
C614 C 0.14079 0.52947 0.03424 0.0
C615 C 0.19315 0.5302 1.00563 0.0
C616 C 0.11343 0.52975 0.99479 0.0
C617 C 0.10838 0.5309 0.88651 0.0
C618 C 0.16362 0.53008 0.96542 0.0
C619 C 0.13181 0.53174 0.82027 0.0
C620 C 0.21612 0.52697 0.93818 0.0
C621 C 0.22469 0.53657 0.14936 0.0
N622 N 0.15829 0.53122 0.86064 0.0
N623 N 0.19831 0.53452 0.10931 0.0
H624 H 1.02241 0.79227 0.62767 0.0
H625 H 1.01069 0.95679 0.50787 0.0
H626 H 0.02861 0.82768 0.32032 0.0
H627 H 1.01848 0.92391 0.82037 0.0
H628 H 1.01276 0.90945 0.43908 0.0
H629 H 1.01552 0.83945 0.70004 0.0
C630 C 1.02142 0.80998 0.57526 0.0
C631 C 0.02547 0.80608 0.46774 0.0
C632 C 1.0139 0.91246 0.52277 0.0
C633 C 1.01842 0.86029 0.54973 0.0
C634 C 1.01268 0.93966 0.56258 0.0
C635 C 1.01436 0.9447 0.67079 0.0
C636 C 1.01654 0.88964 0.59104 0.0
C637 C 1.01711 0.92128 0.7366 0.0
C638 C 1.01791 0.83694 0.61654 0.0
C639 C 0.02495 0.82978 0.40329 0.0
N640 N 1.01804 0.89488 0.69584 0.0
N641 N 1.02162 0.85577 0.4451 0.0
H642 H 0.75418 0.02509 0.63028 0.0
H643 H 0.58953 0.04283 0.51823 0.0
H644 H 0.71841 0.02488 0.32229 0.0
H645 H 0.62228 1.02186 0.82215 0.0
H646 H 0.63707 0.04269 0.44856 0.0
H647 H 0.70704 0.03098 0.70472 0.0
C648 C 0.73641 0.02723 0.57839 0.0
C649 C 0.74019 0.02508 0.47003 0.0
C650 C 0.63394 0.03805 0.53047 0.0
C651 C 0.68604 0.0311 0.5542 0.0
C652 C 0.60668 0.03796 0.57046 0.0
C653 C 0.60156 0.03177 0.67611 0.0
C654 C 0.65671 0.03222 0.59637 0.0
C655 C 0.62498 0.02654 0.7401 0.0
C656 C 0.70948 0.03015 0.62075 0.0
C657 C 0.71641 0.02706 0.40603 0.0
N658 N 0.65142 0.02681 0.6993 0.0
N659 N 0.69044 0.02985 0.44889 0.0
H660 H 0.5154 0.76881 0.6256 0.0
H661 H 0.52193 0.60413 0.50432 0.0
H662 H 0.50519 0.73395 0.31903 0.0
H663 H 0.51863 0.63716 0.81737 0.0
H664 H 0.52034 0.65158 0.4355 0.0
H665 H 0.52197 0.7214 0.6967 0.0
C666 C 0.51544 0.75115 0.57298 0.0
C667 C 0.5104 0.75528 0.46609 0.0
C668 C 0.52008 0.64855 0.5193 0.0
C669 C 0.51706 0.70083 0.54672 0.0
C670 C 0.52101 0.6213 0.5591 0.0
C671 C 0.52048 0.61629 0.66752 0.0
C672 C 0.51873 0.67141 0.58772 0.0
C673 C 0.51906 0.63976 0.73344 0.0
C674 C 0.51877 0.72407 0.61358 0.0
C675 C 0.50967 0.73165 0.40145 0.0
N676 N 0.51827 0.66617 0.69265 0.0
N677 N 0.51285 0.70554 0.44261 0.0
H678 H 0.78262 0.52596 0.63222 0.0
H679 H 0.94771 0.52632 0.51229 0.0
H680 H 0.81761 0.51418 0.32673 0.0
H681 H 0.91451 0.53308 0.8242 0.0
H682 H 0.90023 0.52446 0.44347 0.0
H683 H 0.83014 0.53232 0.70339 0.0
C684 C 0.80035 0.52552 0.57987 0.0
C685 C 0.79625 0.52006 0.47332 0.0
C686 C 0.9032 0.5265 0.52696 0.0
C687 C 0.85079 0.52648 0.55403 0.0
C688 C 0.93047 0.52757 0.56674 0.0
C689 C 0.93543 0.52996 0.67482 0.0
C690 C 0.88026 0.52801 0.59504 0.0
C691 C 0.91191 0.53127 0.74052 0.0
C692 C 0.82748 0.52878 0.6205 0.0
C693 C 0.81992 0.51887 0.40894 0.0
N694 N 0.88545 0.53032 0.6997 0.0
N695 N 0.84607 0.52188 0.4502 0.0
loop_
_geom_bond_atom_site_label_1
_geom_bond_atom_site_label_2
_geom_bond_distance
_geom_bond_site_symmetry_2
_ccdc_geom_bond_type
C0 N1 1.317 . S
C0 N2 1.348 . S
C0 C3 1.485 . S
N1 C0 1.317 . S
N1 N5 1.370 . S
N2 C0 1.348 . S
N2 C4 1.346 . S
C3 C0 1.485 . S
C3 H7 0.960 . S
C3 H8 0.961 . S
C3 H9 0.960 . S
C4 N2 1.346 . S
C4 N5 1.307 . S
C4 C6 1.486 . S
N5 N1 1.370 . S
N5 C4 1.307 . S
C6 C4 1.486 . S
C6 H10 0.960 . S
C6 H11 0.960 . S
C6 H12 0.959 . S
H7 C3 0.960 . S
H8 C3 0.961 . S
H9 C3 0.960 . S
H10 C6 0.960 . S
H11 C6 0.960 . S
H12 C6 0.959 . S
C13 N14 1.317 . S
C13 N15 1.350 . S
C13 C16 1.485 . S
N14 C13 1.317 . S
N14 N18 1.371 . S
N15 C13 1.350 . S
N15 C17 1.345 1_655 S
C16 C13 1.485 . S
C16 H20 0.960 1_655 S
C16 H21 0.961 . S
C16 H22 0.960 . S
C17 N15 1.345 1_455 S
C17 N18 1.307 1_455 S
C17 C19 1.486 . S
N18 N14 1.371 . S
N18 C17 1.307 1_655 S
C19 C17 1.486 . S
C19 H23 0.922 1_455 S
C19 H24 0.991 . S
C19 H25 0.967 . S
H20 C16 0.960 1_455 S
H21 C16 0.961 . S
H22 C16 0.960 . S
H23 C19 0.922 1_655 S
H24 C19 0.991 . S
H25 C19 0.967 . S
C26 N27 1.317 . S
C26 N28 1.350 . S
C26 C29 1.485 . S
N27 C26 1.317 . S
N27 N31 1.371 . S
N28 C26 1.350 . S
N28 C30 1.345 1_565 S
C29 C26 1.485 . S
C29 H33 0.960 1_565 S
C29 H34 0.961 . S
C29 H35 0.960 . S
C30 N28 1.345 1_545 S
C30 N31 1.307 1_545 S
C30 C32 1.486 . S
N31 N27 1.371 . S
N31 C30 1.307 1_565 S
C32 C30 1.486 . S
C32 H36 0.922 1_545 S
C32 H37 0.991 . S
C32 H38 0.967 . S
H33 C29 0.960 1_545 S
H34 C29 0.961 . S
H35 C29 0.960 . S
H36 C32 0.922 1_565 S
H37 C32 0.991 . S
H38 C32 0.967 . S
C39 N40 1.317 . S
C39 N41 1.348 . S
C39 C42 1.485 . S
N40 C39 1.317 . S
N40 N44 1.370 . S
N41 C39 1.348 . S
N41 C43 1.346 . S
C42 C39 1.485 . S
C42 H46 0.960 . S
C42 H47 0.961 . S
C42 H48 0.960 . S
C43 N41 1.346 . S
C43 N44 1.307 . S
C43 C45 1.486 . S
N44 N40 1.370 . S
N44 C43 1.307 . S
C45 C43 1.486 . S
C45 H49 0.960 . S
C45 H50 0.960 . S
C45 H51 0.959 . S
H46 C42 0.960 . S
H47 C42 0.961 . S
H48 C42 0.960 . S
H49 C45 0.960 . S
H50 C45 0.960 . S
H51 C45 0.959 . S
C52 N53 1.317 1_556 S
C52 N54 1.348 1_556 S
C52 C55 1.485 . S
N53 C52 1.317 1_554 S
N53 N57 1.374 . S
N54 C52 1.348 1_554 S
N54 C56 1.346 . S
C55 C52 1.485 . S
C55 H59 0.960 . S
C55 H60 0.961 . S
C55 H61 0.960 . S
C56 N54 1.346 . S
C56 N57 1.307 . S
C56 C58 1.486 . S
N57 N53 1.374 . S
N57 C56 1.307 . S
C58 C56 1.486 . S
C58 H62 0.960 . S
C58 H63 0.960 . S
C58 H64 0.959 . S
H59 C55 0.960 . S
H60 C55 0.961 . S
H61 C55 0.960 . S
H62 C58 0.960 . S
H63 C58 0.960 . S
H64 C58 0.959 . S
C65 N66 1.317 1_556 S
C65 N67 1.350 1_556 S
C65 C68 1.485 . S
N66 C65 1.317 1_554 S
N66 N70 1.370 . S
N67 C65 1.350 1_554 S
N67 C69 1.345 1_655 S
C68 C65 1.485 . S
C68 H72 0.960 1_655 S
C68 H73 0.961 . S
C68 H74 0.960 . S
C69 N67 1.345 1_455 S
C69 N70 1.307 1_455 S
C69 C71 1.486 . S
N70 N66 1.370 . S
N70 C69 1.307 1_655 S
C71 C69 1.486 . S
C71 H75 0.960 1_455 S
C71 H76 0.960 . S
C71 H77 0.959 . S
H72 C68 0.960 1_455 S
H73 C68 0.961 . S
H74 C68 0.960 . S
H75 C71 0.960 1_655 S
H76 C71 0.960 . S
H77 C71 0.959 . S
C78 N79 1.317 1_556 S
C78 N80 1.350 1_556 S
C78 C81 1.485 . S
N79 C78 1.317 1_554 S
N79 N83 1.370 . S
N80 C78 1.350 1_554 S
N80 C82 1.345 1_565 S
C81 C78 1.485 . S
C81 H85 0.960 1_565 S
C81 H86 0.961 . S
C81 H87 0.960 . S
C82 N80 1.345 1_545 S
C82 N83 1.307 1_545 S
C82 C84 1.487 . S
N83 N79 1.370 . S
N83 C82 1.307 1_565 S
C84 C82 1.487 . S
C84 H88 0.960 1_545 S
C84 H89 0.960 . S
C84 H90 0.959 . S
H85 C81 0.960 1_545 S
H86 C81 0.961 . S
H87 C81 0.960 . S
H88 C84 0.960 1_565 S
H89 C84 0.960 . S
H90 C84 0.959 . S
C91 N92 1.317 . S
C91 N93 1.348 1_556 S
C91 C94 1.485 . S
N92 C91 1.317 . S
N92 N96 1.370 1_556 S
N93 C91 1.348 1_554 S
N93 C95 1.346 . S
C94 C91 1.485 . S
C94 H98 0.960 . S
C94 H99 0.961 . S
C94 H100 0.960 . S
C95 N93 1.346 . S
C95 N96 1.307 . S
C95 C97 1.486 . S
N96 N92 1.370 1_554 S
N96 C95 1.307 . S
C97 C95 1.486 . S
C97 H101 0.960 . S
C97 H102 0.960 . S
C97 H103 0.959 . S
H98 C94 0.960 . S
H99 C94 0.961 . S
H100 C94 0.960 . S
H101 C97 0.960 . S
H102 C97 0.960 . S
H103 C97 0.959 . S
C104 Eu105 2.835 . S
C104 C106 1.500 . S
C104 O124 1.257 . S
C104 O125 1.260 . S
Eu105 C104 2.835 . S
Eu105 O124 2.473 . S
Eu105 O125 2.480 . S
Eu105 O126 2.430 . S
Eu105 O127 2.670 1_545 S
Eu105 O128 2.394 . S
Eu105 O133 2.355 1_655 S
Eu105 O135 2.374 1_545 S
C106 C104 1.500 . S
C106 C107 1.377 . S
C106 C111 1.377 . S
C107 C106 1.377 . S
C107 C108 1.395 . S
C107 H136 0.931 . S
C108 C107 1.395 . S
C108 C109 1.383 . S
C108 H137 0.931 . S
C109 C108 1.383 . S
C109 C110 1.394 . S
C110 C109 1.394 . S
C110 C111 1.378 . S
C110 H138 0.931 1_655 S
C111 C106 1.377 . S
C111 C110 1.378 . S
C111 H139 0.931 1_655 S
C112 O126 1.259 . S
C112 O127 1.270 1_545 S
C113 O128 1.251 1_455 S
C113 O129 1.251 . S
C114 Eu115 2.835 . S
C114 C116 1.500 1_556 S
C114 O130 1.257 . S
C114 O131 1.260 . S
Eu115 C114 2.835 . S
Eu115 O127 2.355 1_455 S
Eu115 O129 2.374 1_565 S
Eu115 O130 2.473 . S
Eu115 O131 2.480 . S
Eu115 O132 2.430 . S
Eu115 O133 2.670 1_565 S
Eu115 O134 2.394 . S
C116 C114 1.500 1_554 S
C116 C117 1.377 . S
C116 C121 1.377 . S
C117 C116 1.377 . S
C117 C118 1.395 . S
C117 H140 0.931 . S
C118 C117 1.395 . S
C118 C119 1.383 . S
C118 H141 0.931 . S
C119 C118 1.383 . S
C119 C120 1.394 . S
C120 C119 1.394 . S
C120 C121 1.378 . S
C120 H142 0.931 1_455 S
C121 C116 1.377 . S
C121 C120 1.378 . S
C121 H143 0.931 1_455 S
C122 O132 1.259 . S
C122 O133 1.270 1_565 S
C123 O134 1.251 1_655 S
C123 O135 1.251 . S
O124 C104 1.257 . S
O124 Eu105 2.473 . S
O125 C104 1.260 . S
O125 Eu105 2.480 . S
O126 Eu105 2.430 . S
O126 C112 1.259 . S
O127 Eu105 2.670 1_565 S
O127 C112 1.270 1_565 S
O127 Eu115 2.355 1_655 S
O128 Eu105 2.394 . S
O128 C113 1.251 1_655 S
O129 C113 1.251 . S
O129 Eu115 2.374 1_545 S
O130 C114 1.257 . S
O130 Eu115 2.473 . S
O131 C114 1.260 . S
O131 Eu115 2.480 . S
O132 Eu115 2.430 . S
O132 C122 1.259 . S
O133 Eu105 2.355 1_455 S
O133 Eu115 2.670 1_545 S
O133 C122 1.270 1_545 S
O134 Eu115 2.394 . S
O134 C123 1.251 1_455 S
O135 Eu105 2.374 1_565 S
O135 C123 1.251 . S
H136 C107 0.931 . S
H137 C108 0.931 . S
H138 C110 0.931 1_455 S
H139 C111 0.931 1_455 S
H140 C117 0.931 . S
H141 C118 0.931 . S
H142 C120 0.931 1_655 S
H143 C121 0.931 1_655 S
C144 Eu145 2.835 . S
C144 C146 1.500 . S
C144 O164 1.257 . S
C144 O165 1.260 . S
Eu145 C144 2.835 . S
Eu145 O164 2.473 . S
Eu145 O165 2.480 . S
Eu145 O166 2.430 . S
Eu145 O167 2.670 . S
Eu145 O168 2.394 . S
Eu145 O173 2.355 1_565 S
Eu145 O175 2.374 . S
C146 C144 1.500 . S
C146 C147 1.377 . S
C146 C151 1.377 . S
C147 C146 1.377 . S
C147 C148 1.395 . S
C147 H176 0.931 . S
C148 C147 1.395 . S
C148 C149 1.383 . S
C148 H177 0.931 . S
C149 C148 1.383 . S
C149 C150 1.394 . S
C150 C149 1.394 . S
C150 C151 1.378 . S
C150 H178 0.931 1_565 S
C151 C146 1.377 . S
C151 C150 1.378 . S
C151 H179 0.931 1_565 S
C152 O166 1.259 . S
C152 O167 1.270 . S
C153 O168 1.251 1_545 S
C153 O169 1.251 . S
C154 Eu155 2.835 . S
C154 C156 1.500 1_556 S
C154 O170 1.257 . S
C154 O171 1.260 . S
Eu155 C154 2.835 . S
Eu155 O167 2.355 1_545 S
Eu155 O169 2.374 . S
Eu155 O170 2.473 . S
Eu155 O171 2.480 . S
Eu155 O172 2.430 . S
Eu155 O173 2.670 . S
Eu155 O174 2.394 . S
C156 C154 1.500 1_554 S
C156 C157 1.377 . S
C156 C161 1.377 . S
C157 C156 1.377 . S
C157 C158 1.395 . S
C157 H180 0.931 . S
C158 C157 1.395 . S
C158 C159 1.383 . S
C158 H181 0.931 . S
C159 C158 1.383 . S
C159 C160 1.394 . S
C160 C159 1.394 . S
C160 C161 1.378 . S
C160 H182 0.931 1_545 S
C161 C156 1.377 . S
C161 C160 1.378 . S
C161 H183 0.931 1_545 S
C162 O172 1.259 . S
C162 O173 1.270 . S
C163 O174 1.251 1_565 S
C163 O175 1.251 . S
O164 C144 1.257 . S
O164 Eu145 2.473 . S
O165 C144 1.260 . S
O165 Eu145 2.480 . S
O166 Eu145 2.430 . S
O166 C152 1.259 . S
O167 Eu145 2.670 . S
O167 C152 1.270 . S
O167 Eu155 2.355 1_565 S
O168 Eu145 2.394 . S
O168 C153 1.251 1_565 S
O169 C153 1.251 . S
O169 Eu155 2.374 . S
O170 C154 1.257 . S
O170 Eu155 2.473 . S
O171 C154 1.260 . S
O171 Eu155 2.480 . S
O172 Eu155 2.430 . S
O172 C162 1.259 . S
O173 Eu145 2.355 1_545 S
O173 Eu155 2.670 . S
O173 C162 1.270 . S
O174 Eu155 2.394 . S
O174 C163 1.251 1_545 S
O175 Eu145 2.374 . S
O175 C163 1.251 . S
H176 C147 0.931 . S
H177 C148 0.931 . S
H178 C150 0.931 1_545 S
H179 C151 0.931 1_545 S
H180 C157 0.931 . S
H181 C158 0.931 . S
H182 C160 0.931 1_565 S
H183 C161 0.931 1_565 S
C184 Eu185 2.835 . S
C184 C186 1.500 . S
C184 O204 1.257 . S
C184 O205 1.260 . S
Eu185 C184 2.835 . S
Eu185 O204 2.473 . S
Eu185 O205 2.480 . S
Eu185 O206 2.430 . S
Eu185 O207 2.670 . S
Eu185 O208 2.394 . S
Eu185 O213 2.355 . S
Eu185 O215 2.374 . S
C186 C184 1.500 . S
C186 C187 1.377 . S
C186 C191 1.377 . S
C187 C186 1.377 . S
C187 C188 1.395 . S
C187 H216 0.931 . S
C188 C187 1.395 . S
C188 C189 1.383 . S
C188 H217 0.931 . S
C189 C188 1.383 . S
C189 C190 1.394 . S
C190 C189 1.394 . S
C190 C191 1.378 . S
C190 H218 0.931 . S
C191 C186 1.377 . S
C191 C190 1.378 . S
C191 H219 0.931 . S
C192 O206 1.259 . S
C192 O207 1.270 . S
C193 O208 1.251 . S
C193 O209 1.251 . S
C194 Eu195 2.835 . S
C194 C196 1.500 1_556 S
C194 O210 1.257 . S
C194 O211 1.260 . S
Eu195 C194 2.835 . S
Eu195 O207 2.355 . S
Eu195 O209 2.374 . S
Eu195 O210 2.473 . S
Eu195 O211 2.480 . S
Eu195 O212 2.430 . S
Eu195 O213 2.670 . S
Eu195 O214 2.394 . S
C196 C194 1.500 1_554 S
C196 C197 1.377 . S
C196 C201 1.377 . S
C197 C196 1.377 . S
C197 C198 1.395 . S
C197 H220 0.931 . S
C198 C197 1.395 . S
C198 C199 1.383 . S
C198 H221 0.931 . S
C199 C198 1.383 . S
C199 C200 1.394 . S
C200 C199 1.394 . S
C200 C201 1.378 . S
C200 H222 0.931 . S
C201 C196 1.377 . S
C201 C200 1.378 . S
C201 H223 0.931 . S
C202 O212 1.259 . S
C202 O213 1.270 . S
C203 O214 1.251 . S
C203 O215 1.251 . S
O204 C184 1.257 . S
O204 Eu185 2.473 . S
O205 C184 1.260 . S
O205 Eu185 2.480 . S
O206 Eu185 2.430 . S
O206 C192 1.259 . S
O207 Eu185 2.670 . S
O207 C192 1.270 . S
O207 Eu195 2.355 . S
O208 Eu185 2.394 . S
O208 C193 1.251 . S
O209 C193 1.251 . S
O209 Eu195 2.374 . S
O210 C194 1.257 . S
O210 Eu195 2.473 . S
O211 C194 1.260 . S
O211 Eu195 2.480 . S
O212 Eu195 2.430 . S
O212 C202 1.259 . S
O213 Eu185 2.355 . S
O213 Eu195 2.670 . S
O213 C202 1.270 . S
O214 Eu195 2.394 . S
O214 C203 1.251 . S
O215 Eu185 2.374 . S
O215 C203 1.251 . S
H216 C187 0.931 . S
H217 C188 0.931 . S
H218 C190 0.931 . S
H219 C191 0.931 . S
H220 C197 0.931 . S
H221 C198 0.931 . S
H222 C200 0.931 . S
H223 C201 0.931 . S
C224 Eu225 2.835 . S
C224 C226 1.500 . S
C224 O244 1.257 . S
C224 O245 1.260 . S
Eu225 C224 2.835 . S
Eu225 O244 2.473 . S
Eu225 O245 2.480 . S
Eu225 O246 2.430 . S
Eu225 O247 2.670 1_455 S
Eu225 O248 2.394 . S
Eu225 O253 2.355 . S
Eu225 O255 2.374 1_455 S
C226 C224 1.500 . S
C226 C227 1.377 . S
C226 C231 1.377 . S
C227 C226 1.377 . S
C227 C228 1.395 . S
C227 H256 0.931 . S
C228 C227 1.395 . S
C228 C229 1.383 . S
C228 H257 0.931 . S
C229 C228 1.383 . S
C229 C230 1.394 . S
C230 C229 1.394 . S
C230 C231 1.378 . S
C230 H258 0.931 . S
C231 C226 1.377 . S
C231 C230 1.378 . S
C231 H259 0.931 . S
C232 O246 1.268 . S
C232 O247 1.263 1_455 S
C233 O248 1.251 . S
C233 O249 1.251 . S
C234 Eu235 2.835 . S
C234 C236 1.500 1_556 S
C234 O250 1.257 . S
C234 O251 1.260 . S
Eu235 C234 2.835 . S
Eu235 O247 2.355 . S
Eu235 O249 2.374 1_655 S
Eu235 O250 2.473 . S
Eu235 O251 2.480 . S
Eu235 O252 2.430 . S
Eu235 O253 2.670 1_655 S
Eu235 O254 2.394 . S
C236 C234 1.500 1_554 S
C236 C237 1.377 . S
C236 C241 1.377 . S
C237 C236 1.377 . S
C237 C238 1.395 . S
C237 H260 0.931 . S
C238 C237 1.395 . S
C238 C239 1.383 . S
C238 H261 0.931 . S
C239 C238 1.383 . S
C239 C240 1.394 . S
C240 C239 1.394 . S
C240 C241 1.378 . S
C240 H262 0.931 . S
C241 C236 1.377 . S
C241 C240 1.378 . S
C241 H263 0.931 . S
C242 O252 1.264 . S
C242 O253 1.266 1_655 S
C243 O254 1.251 . S
C243 O255 1.251 . S
O244 C224 1.257 . S
O244 Eu225 2.473 . S
O245 C224 1.260 . S
O245 Eu225 2.480 . S
O246 Eu225 2.430 . S
O246 C232 1.268 . S
O247 Eu225 2.670 1_655 S
O247 C232 1.263 1_655 S
O247 Eu235 2.355 . S
O248 Eu225 2.394 . S
O248 C233 1.251 . S
O249 C233 1.251 . S
O249 Eu235 2.374 1_455 S
O250 C234 1.257 . S
O250 Eu235 2.473 . S
O251 C234 1.260 . S
O251 Eu235 2.480 . S
O252 Eu235 2.430 . S
O252 C242 1.264 . S
O253 Eu225 2.355 . S
O253 Eu235 2.670 1_455 S
O253 C242 1.266 1_455 S
O254 Eu235 2.394 . S
O254 C243 1.251 . S
O255 Eu225 2.374 1_655 S
O255 C243 1.251 . S
H256 C227 0.931 . S
H257 C228 0.931 . S
H258 C230 0.931 . S
H259 C231 0.931 . S
H260 C237 0.931 . S
H261 C238 0.931 . S
H262 C240 0.931 . S
H263 C241 0.931 . S
H264 C270 0.930 . S
H265 C274 0.930 . S
H266 C279 0.929 . S
H267 C277 0.929 . S
H268 C272 0.929 . S
H269 C278 0.929 . S
C270 H264 0.930 . S
C270 C271 1.386 . S
C270 C278 1.378 . S
C271 C270 1.386 . S
C271 C279 1.414 1_545 S
C272 H268 0.929 . S
C272 C274 1.378 . S
C272 C276 1.372 . S
C273 C276 1.461 1_545 S
C273 C278 1.377 . S
C273 N281 1.400 1_545 S
C274 H265 0.930 . S
C274 C272 1.378 . S
C274 C275 1.381 . S
C275 C274 1.381 . S
C275 C277 1.419 1_565 S
C276 C272 1.372 . S
C276 C273 1.461 1_565 S
C276 N280 1.405 1_565 S
C277 H267 0.929 . S
C277 C275 1.419 1_545 S
C277 N280 1.384 . S
C278 H269 0.929 . S
C278 C270 1.378 . S
C278 C273 1.377 . S
C279 H266 0.929 . S
C279 C271 1.414 1_565 S
C279 N281 1.384 . S
N280 C276 1.405 1_545 S
N280 C277 1.384 . S
N281 C273 1.400 1_565 S
N281 C279 1.384 . S
H282 C288 0.930 . S
H283 C292 0.930 . S
H284 C297 0.929 . S
H285 C295 0.929 . S
H286 C290 0.929 . S
H287 C296 0.929 . S
C288 H282 0.930 . S
C288 C289 1.367 . S
C288 C296 1.378 . S
C289 C288 1.367 . S
C289 C297 1.433 . S
C290 H286 0.929 . S
C290 C292 1.378 . S
C290 C294 1.350 . S
C291 C294 1.463 . S
C291 C296 1.350 . S
C291 N299 1.427 . S
C292 H283 0.930 . S
C292 C290 1.378 . S
C292 C293 1.367 . S
C293 C292 1.367 . S
C293 C295 1.433 . S
C294 C290 1.350 . S
C294 C291 1.463 . S
C294 N298 1.427 . S
C295 H285 0.929 . S
C295 C293 1.433 . S
C295 N298 1.384 . S
C296 H287 0.929 . S
C296 C288 1.378 . S
C296 C291 1.350 . S
C297 H284 0.929 . S
C297 C289 1.433 . S
C297 N299 1.384 . S
N298 C294 1.427 . S
N298 C295 1.384 . S
N299 C291 1.427 . S
N299 C297 1.384 . S
H300 C306 0.930 . S
H301 C310 0.930 . S
H302 C315 0.929 . S
H303 C313 0.929 . S
H304 C308 0.929 . S
H305 C314 0.929 . S
C306 H300 0.930 . S
C306 C307 1.367 . S
C306 C314 1.378 . S
C307 C306 1.367 . S
C307 C315 1.433 . S
C308 H304 0.929 . S
C308 C310 1.378 . S
C308 C312 1.350 . S
C309 C312 1.463 . S
C309 C314 1.350 . S
C309 N317 1.427 . S
C310 H301 0.930 . S
C310 C308 1.378 . S
C310 C311 1.367 . S
C311 C310 1.367 . S
C311 C313 1.433 . S
C312 C308 1.350 . S
C312 C309 1.463 . S
C312 N316 1.427 . S
C313 H303 0.929 . S
C313 C311 1.433 . S
C313 N316 1.384 . S
C314 H305 0.929 . S
C314 C306 1.378 . S
C314 C309 1.350 . S
C315 H302 0.929 . S
C315 C307 1.433 . S
C315 N317 1.384 . S
N316 C312 1.427 . S
N316 C313 1.384 . S
N317 C309 1.427 . S
N317 C315 1.384 . S
H318 C324 0.930 . S
H319 C328 0.930 . S
H320 C333 0.929 . S
H321 C331 0.929 . S
H322 C326 0.929 . S
H323 C332 0.929 . S
C324 H318 0.930 . S
C324 C325 1.375 . S
C324 C332 1.378 . S
C325 C324 1.375 . S
C325 C333 1.425 1_655 S
C326 H322 0.929 . S
C326 C328 1.378 . S
C326 C330 1.350 . S
C327 C330 1.462 1_655 S
C327 C332 1.357 . S
C327 N335 1.420 1_655 S
C328 H319 0.930 . S
C328 C326 1.378 . S
C328 C329 1.367 . S
C329 C328 1.367 . S
C329 C331 1.433 1_455 S
C330 C326 1.350 . S
C330 C327 1.462 1_455 S
C330 N334 1.427 1_455 S
C331 H321 0.929 . S
C331 C329 1.433 1_655 S
C331 N334 1.384 . S
C332 H323 0.929 . S
C332 C324 1.378 . S
C332 C327 1.357 . S
C333 H320 0.929 . S
C333 C325 1.425 1_455 S
C333 N335 1.384 . S
N334 C330 1.427 1_655 S
N334 C331 1.384 . S
N335 C327 1.420 1_455 S
N335 C333 1.384 . S
H336 C342 0.930 . S
H337 C346 0.930 . S
H338 C351 0.929 . S
H339 C349 0.929 . S
H340 C344 0.929 . S
H341 C350 0.929 . S
C342 H336 0.930 . S
C342 C343 1.386 . S
C342 C350 1.378 . S
C343 C342 1.386 . S
C343 C351 1.414 1_545 S
C344 H340 0.929 . S
C344 C346 1.378 1_554 S
C344 C348 1.368 . S
C345 C348 1.460 1_545 S
C345 C350 1.379 . S
C345 N353 1.398 1_545 S
C346 H337 0.930 . S
C346 C344 1.378 1_556 S
C346 C347 1.376 . S
C347 C346 1.376 . S
C347 C349 1.424 1_566 S
C348 C344 1.368 . S
C348 C345 1.460 1_565 S
C348 N352 1.409 1_565 S
C349 H339 0.929 . S
C349 C347 1.424 1_544 S
C349 N352 1.384 . S
C350 H341 0.929 . S
C350 C342 1.378 . S
C350 C345 1.379 . S
C351 H338 0.929 . S
C351 C343 1.414 1_565 S
C351 N353 1.384 . S
N352 C348 1.409 1_545 S
N352 C349 1.384 . S
N353 C345 1.398 1_565 S
N353 C351 1.384 . S
H354 C360 0.930 . S
H355 C364 0.930 . S
H356 C369 0.929 . S
H357 C367 0.929 . S
H358 C362 0.929 . S
H359 C368 0.929 . S
C360 H354 0.930 . S
C360 C361 1.367 . S
C360 C368 1.378 . S
C361 C360 1.367 . S
C361 C369 1.433 . S
C362 H358 0.929 . S
C362 C364 1.378 . S
C362 C366 1.350 . S
C363 C366 1.463 . S
C363 C368 1.350 . S
C363 N371 1.427 . S
C364 H355 0.930 . S
C364 C362 1.378 . S
C364 C365 1.367 1_554 S
C365 C364 1.367 1_556 S
C365 C367 1.433 . S
C366 C362 1.350 . S
C366 C363 1.463 . S
C366 N370 1.427 . S
C367 H357 0.929 . S
C367 C365 1.433 . S
C367 N370 1.384 1_556 S
C368 H359 0.929 . S
C368 C360 1.378 . S
C368 C363 1.350 . S
C369 H356 0.929 . S
C369 C361 1.433 . S
C369 N371 1.384 . S
N370 C366 1.427 . S
N370 C367 1.384 1_554 S
N371 C363 1.427 . S
N371 C369 1.384 . S
H372 C378 0.930 . S
H373 C382 0.930 . S
H374 C387 0.929 . S
H375 C385 0.925 1_556 S
H376 C380 0.929 . S
H377 C386 0.929 . S
C378 H372 0.930 . S
C378 C379 1.367 . S
C378 C386 1.378 . S
C379 C378 1.367 . S
C379 C387 1.433 . S
C380 H376 0.929 . S
C380 C382 1.378 . S
C380 C384 1.350 . S
C381 C384 1.463 . S
C381 C386 1.350 . S
C381 N389 1.427 . S
C382 H373 0.930 . S
C382 C380 1.378 . S
C382 C383 1.367 1_554 S
C383 C382 1.367 1_556 S
C383 C385 1.431 1_556 S
C384 C380 1.350 . S
C384 C381 1.463 . S
C384 N388 1.427 . S
C385 H375 0.925 1_554 S
C385 C383 1.431 1_554 S
C385 N388 1.389 . S
C386 H377 0.929 . S
C386 C378 1.378 . S
C386 C381 1.350 . S
C387 H374 0.929 . S
C387 C379 1.433 . S
C387 N389 1.384 . S
N388 C384 1.427 . S
N388 C385 1.389 . S
N389 C381 1.427 . S
N389 C387 1.384 . S
H390 C396 0.930 . S
H391 C400 0.930 . S
H392 C405 0.929 . S
H393 C403 0.929 . S
H394 C398 0.929 . S
H395 C404 0.929 . S
C396 H390 0.930 . S
C396 C397 1.376 . S
C396 C404 1.378 . S
C397 C396 1.376 . S
C397 C405 1.424 1_455 S
C398 H394 0.929 . S
C398 C400 1.378 1_554 S
C398 C402 1.350 . S
C399 C402 1.462 1_455 S
C399 C404 1.358 . S
C399 N407 1.419 1_455 S
C400 H391 0.930 . S
C400 C398 1.378 1_556 S
C400 C401 1.367 . S
C401 C400 1.367 . S
C401 C403 1.433 1_656 S
C402 C398 1.350 . S
C402 C399 1.462 1_655 S
C402 N406 1.427 1_655 S
C403 H393 0.929 . S
C403 C401 1.433 1_454 S
C403 N406 1.384 . S
C404 H395 0.929 . S
C404 C396 1.378 . S
C404 C399 1.358 . S
C405 H392 0.929 . S
C405 C397 1.424 1_655 S
C405 N407 1.384 . S
N406 C402 1.427 1_455 S
N406 C403 1.384 . S
N407 C399 1.419 1_655 S
N407 C405 1.384 . S
H408 C414 0.930 . S
H409 C418 0.930 . S
H410 C423 0.929 . S
H411 C421 0.929 . S
H412 C416 0.929 . S
H413 C422 0.929 . S
C414 H408 0.930 . S
C414 C415 1.367 . S
C414 C422 1.378 . S
C415 C414 1.367 . S
C415 C423 1.433 1_455 S
C416 H412 0.929 . S
C416 C418 1.378 . S
C416 C420 1.350 . S
C417 C420 1.463 . S
C417 C422 1.350 1_655 S
C417 N425 1.427 . S
C418 H409 0.930 . S
C418 C416 1.378 . S
C418 C419 1.367 . S
C419 C418 1.367 . S
C419 C421 1.433 . S
C420 C416 1.350 . S
C420 C417 1.463 . S
C420 N424 1.427 . S
C421 H411 0.929 . S
C421 C419 1.433 . S
C421 N424 1.384 . S
C422 H413 0.929 . S
C422 C414 1.378 . S
C422 C417 1.350 1_455 S
C423 H410 0.929 . S
C423 C415 1.433 1_655 S
C423 N425 1.384 . S
N424 C420 1.427 . S
N424 C421 1.384 . S
N425 C417 1.427 . S
N425 C423 1.384 . S
H426 C432 0.930 . S
H427 C436 0.930 . S
H428 C441 0.929 1_556 S
H429 C439 0.929 . S
H430 C434 0.929 . S
H431 C440 0.929 . S
C432 H426 0.930 . S
C432 C433 1.367 . S
C432 C440 1.378 . S
C433 C432 1.367 . S
C433 C441 1.433 1_545 S
C434 H430 0.929 . S
C434 C436 1.378 . S
C434 C438 1.350 . S
C435 C438 1.463 . S
C435 C440 1.350 1_565 S
C435 N443 1.427 . S
C436 H427 0.930 . S
C436 C434 1.378 . S
C436 C437 1.367 . S
C437 C436 1.367 . S
C437 C439 1.433 . S
C438 C434 1.350 . S
C438 C435 1.463 . S
C438 N442 1.427 . S
C439 H429 0.929 . S
C439 C437 1.433 . S
C439 N442 1.384 . S
C440 H431 0.929 . S
C440 C432 1.378 . S
C440 C435 1.350 1_545 S
C441 H428 0.929 1_554 S
C441 C433 1.433 1_565 S
C441 N443 1.384 . S
N442 C438 1.427 . S
N442 C439 1.384 . S
N443 C435 1.427 . S
N443 C441 1.384 . S
H444 C450 0.930 . S
H445 C454 0.930 . S
H446 C459 0.929 . S
H447 C457 0.929 . S
H448 C452 0.929 . S
H449 C458 0.929 . S
C450 H444 0.930 . S
C450 C451 1.367 . S
C450 C458 1.378 . S
C451 C450 1.367 . S
C451 C459 1.433 . S
C452 H448 0.929 . S
C452 C454 1.378 . S
C452 C456 1.350 . S
C453 C456 1.463 . S
C453 C458 1.350 . S
C453 N461 1.427 . S
C454 H445 0.930 . S
C454 C452 1.378 . S
C454 C455 1.367 . S
C455 C454 1.367 . S
C455 C457 1.433 . S
C456 C452 1.350 . S
C456 C453 1.463 . S
C456 N460 1.427 . S
C457 H447 0.929 . S
C457 C455 1.433 . S
C457 N460 1.384 . S
C458 H449 0.929 . S
C458 C450 1.378 . S
C458 C453 1.350 . S
C459 H446 0.929 . S
C459 C451 1.433 . S
C459 N461 1.384 . S
N460 C456 1.427 . S
N460 C457 1.384 . S
N461 C453 1.427 . S
N461 C459 1.384 . S
H462 C468 0.930 . S
H463 C472 0.930 . S
H464 C477 0.929 . S
H465 C475 0.929 . S
H466 C470 0.929 . S
H467 C476 0.929 . S
C468 H462 0.930 . S
C468 C469 1.367 . S
C468 C476 1.378 . S
C469 C468 1.367 . S
C469 C477 1.433 . S
C470 H466 0.929 . S
C470 C472 1.378 . S
C470 C474 1.350 . S
C471 C474 1.463 . S
C471 C476 1.350 . S
C471 N479 1.427 . S
C472 H463 0.930 . S
C472 C470 1.378 . S
C472 C473 1.367 . S
C473 C472 1.367 . S
C473 C475 1.433 . S
C474 C470 1.350 . S
C474 C471 1.463 . S
C474 N478 1.427 . S
C475 H465 0.929 . S
C475 C473 1.433 . S
C475 N478 1.384 . S
C476 H467 0.929 . S
C476 C468 1.378 . S
C476 C471 1.350 . S
C477 H464 0.929 . S
C477 C469 1.433 . S
C477 N479 1.384 . S
N478 C474 1.427 . S
N478 C475 1.384 . S
N479 C471 1.427 . S
N479 C477 1.384 . S
H480 C486 0.930 . S
H481 C490 0.930 . S
H482 C495 0.929 . S
H483 C493 0.929 . S
H484 C488 0.929 1_655 S
H485 C494 0.929 . S
C486 H480 0.930 . S
C486 C487 1.367 1_455 S
C486 C494 1.378 . S
C487 C486 1.367 1_655 S
C487 C495 1.433 . S
C488 H484 0.929 1_455 S
C488 C490 1.378 . S
C488 C492 1.350 . S
C489 C492 1.463 . S
C489 C494 1.350 . S
C489 N497 1.427 1_455 S
C490 H481 0.930 . S
C490 C488 1.378 . S
C490 C491 1.367 . S
C491 C490 1.367 . S
C491 C493 1.433 . S
C492 C488 1.350 . S
C492 C489 1.463 . S
C492 N496 1.427 . S
C493 H483 0.929 . S
C493 C491 1.433 . S
C493 N496 1.384 . S
C494 H485 0.929 . S
C494 C486 1.378 . S
C494 C489 1.350 . S
C495 H482 0.929 . S
C495 C487 1.433 . S
C495 N497 1.384 . S
N496 C492 1.427 . S
N496 C493 1.384 . S
N497 C489 1.427 1_655 S
N497 C495 1.384 . S
H498 C504 0.930 . S
H499 C508 0.930 . S
H500 C513 0.924 1_565 S
H501 C511 0.929 . S
H502 C506 0.929 . S
H503 C512 0.929 . S
C504 H498 0.930 . S
C504 C505 1.367 1_545 S
C504 C512 1.378 . S
C505 C504 1.367 1_565 S
C505 C513 1.431 1_565 S
C506 H502 0.929 . S
C506 C508 1.378 . S
C506 C510 1.350 . S
C507 C510 1.463 . S
C507 C512 1.350 . S
C507 N515 1.427 . S
C508 H499 0.930 . S
C508 C506 1.378 . S
C508 C509 1.367 . S
C509 C508 1.367 . S
C509 C511 1.433 . S
C510 C506 1.350 . S
C510 C507 1.463 . S
C510 N514 1.427 . S
C511 H501 0.929 . S
C511 C509 1.433 . S
C511 N514 1.384 . S
C512 H503 0.929 . S
C512 C504 1.378 . S
C512 C507 1.350 . S
C513 H500 0.924 1_545 S
C513 C505 1.431 1_545 S
C513 N515 1.392 . S
N514 C510 1.427 . S
N514 C511 1.384 . S
N515 C507 1.427 . S
N515 C513 1.392 . S
H516 C522 0.930 . S
H517 C526 0.930 . S
H518 C531 0.929 . S
H519 C529 0.929 . S
H520 C524 0.929 . S
H521 C530 0.929 . S
C522 H516 0.930 . S
C522 C523 1.367 . S
C522 C530 1.378 . S
C523 C522 1.367 . S
C523 C531 1.433 . S
C524 H520 0.929 . S
C524 C526 1.378 . S
C524 C528 1.350 . S
C525 C528 1.463 . S
C525 C530 1.350 . S
C525 N533 1.427 . S
C526 H517 0.930 . S
C526 C524 1.378 . S
C526 C527 1.367 . S
C527 C526 1.367 . S
C527 C529 1.433 . S
C528 C524 1.350 . S
C528 C525 1.463 . S
C528 N532 1.427 . S
C529 H519 0.929 . S
C529 C527 1.433 . S
C529 N532 1.384 . S
C530 H521 0.929 . S
C530 C522 1.378 . S
C530 C525 1.350 . S
C531 H518 0.929 . S
C531 C523 1.433 . S
C531 N533 1.384 . S
N532 C528 1.427 . S
N532 C529 1.384 . S
N533 C525 1.427 . S
N533 C531 1.384 . S
H534 C540 0.930 . S
H535 C544 0.930 . S
H536 C549 0.929 . S
H537 C547 0.929 . S
H538 C542 0.929 . S
H539 C548 0.929 . S
C540 H534 0.930 . S
C540 C541 1.367 . S
C540 C548 1.378 . S
C541 C540 1.367 . S
C541 C549 1.433 . S
C542 H538 0.929 . S
C542 C544 1.378 . S
C542 C546 1.350 . S
C543 C546 1.463 . S
C543 C548 1.350 . S
C543 N551 1.427 . S
C544 H535 0.930 . S
C544 C542 1.378 . S
C544 C545 1.367 . S
C545 C544 1.367 . S
C545 C547 1.433 . S
C546 C542 1.350 . S
C546 C543 1.463 . S
C546 N550 1.427 . S
C547 H537 0.929 . S
C547 C545 1.433 . S
C547 N550 1.384 . S
C548 H539 0.929 . S
C548 C540 1.378 . S
C548 C543 1.350 . S
C549 H536 0.929 . S
C549 C541 1.433 . S
C549 N551 1.384 . S
N550 C546 1.427 . S
N550 C547 1.384 . S
N551 C543 1.427 . S
N551 C549 1.384 . S
H552 C558 0.930 . S
H553 C562 0.930 . S
H554 C567 0.929 . S
H555 C565 0.929 1_654 S
H556 C560 0.929 . S
H557 C566 0.929 . S
C558 H552 0.930 . S
C558 C559 1.367 1_654 S
C558 C566 1.378 . S
C559 C558 1.367 1_456 S
C559 C567 1.433 . S
C560 H556 0.929 . S
C560 C562 1.378 . S
C560 C564 1.350 . S
C561 C564 1.463 . S
C561 C566 1.350 1_456 S
C561 N569 1.427 . S
C562 H553 0.930 . S
C562 C560 1.378 . S
C562 C563 1.367 . S
C563 C562 1.367 . S
C563 C565 1.433 . S
C564 C560 1.350 . S
C564 C561 1.463 . S
C564 N568 1.427 . S
C565 H555 0.929 1_456 S
C565 C563 1.433 . S
C565 N568 1.384 . S
C566 H557 0.929 . S
C566 C558 1.378 . S
C566 C561 1.350 1_654 S
C567 H554 0.929 . S
C567 C559 1.433 . S
C567 N569 1.384 . S
N568 C564 1.427 . S
N568 C565 1.384 . S
N569 C561 1.427 . S
N569 C567 1.384 . S
H570 C576 0.930 . S
H571 C580 0.930 . S
H572 C585 0.929 . S
H573 C583 0.929 . S
H574 C578 0.929 . S
H575 C584 0.929 . S
C576 H570 0.930 . S
C576 C577 1.367 1_565 S
C576 C584 1.378 . S
C577 C576 1.367 1_545 S
C577 C585 1.433 . S
C578 H574 0.929 . S
C578 C580 1.378 . S
C578 C582 1.350 . S
C579 C582 1.463 . S
C579 C584 1.350 1_545 S
C579 N587 1.427 . S
C580 H571 0.930 . S
C580 C578 1.378 . S
C580 C581 1.367 . S
C581 C580 1.367 . S
C581 C583 1.433 1_545 S
C582 C578 1.350 . S
C582 C579 1.463 . S
C582 N586 1.427 1_545 S
C583 H573 0.929 . S
C583 C581 1.433 1_565 S
C583 N586 1.384 . S
C584 H575 0.929 . S
C584 C576 1.378 . S
C584 C579 1.350 1_565 S
C585 H572 0.929 . S
C585 C577 1.433 . S
C585 N587 1.384 . S
N586 C582 1.427 1_565 S
N586 C583 1.384 . S
N587 C579 1.427 . S
N587 C585 1.384 . S
H588 C594 0.930 1_554 S
H589 C598 0.930 . S
H590 C603 0.929 . S
H591 C601 0.929 . S
H592 C596 0.929 . S
H593 C602 0.929 . S
C594 H588 0.930 1_556 S
C594 C595 1.367 . S
C594 C602 1.378 . S
C595 C594 1.367 . S
C595 C603 1.433 . S
C596 H592 0.929 . S
C596 C598 1.378 . S
C596 C600 1.350 . S
C597 C600 1.463 . S
C597 C602 1.350 . S
C597 N605 1.427 . S
C598 H589 0.930 . S
C598 C596 1.378 . S
C598 C599 1.367 . S
C599 C598 1.367 . S
C599 C601 1.433 . S
C600 C596 1.350 . S
C600 C597 1.463 . S
C600 N604 1.427 . S
C601 H591 0.929 . S
C601 C599 1.433 . S
C601 N604 1.384 . S
C602 H593 0.929 . S
C602 C594 1.378 . S
C602 C597 1.350 . S
C603 H590 0.929 . S
C603 C595 1.433 . S
C603 N605 1.384 . S
N604 C600 1.427 . S
N604 C601 1.384 . S
N605 C597 1.427 . S
N605 C603 1.384 . S
H606 C612 0.930 . S
H607 C616 0.930 . S
H608 C621 0.929 1_554 S
H609 C619 0.929 . S
H610 C614 0.929 . S
H611 C620 0.929 . S
C612 H606 0.930 . S
C612 C613 1.367 . S
C612 C620 1.378 . S
C613 C612 1.367 . S
C613 C621 1.433 . S
C614 H610 0.929 . S
C614 C616 1.378 . S
C614 C618 1.350 . S
C615 C618 1.463 . S
C615 C620 1.350 . S
C615 N623 1.427 . S
C616 H607 0.930 . S
C616 C614 1.378 . S
C616 C617 1.367 . S
C617 C616 1.367 . S
C617 C619 1.433 . S
C618 C614 1.350 . S
C618 C615 1.463 . S
C618 N622 1.427 . S
C619 H609 0.929 . S
C619 C617 1.433 . S
C619 N622 1.384 . S
C620 H611 0.929 . S
C620 C612 1.378 . S
C620 C615 1.350 . S
C621 H608 0.929 1_556 S
C621 C613 1.433 . S
C621 N623 1.384 . S
N622 C618 1.427 . S
N622 C619 1.384 . S
N623 C615 1.427 . S
N623 C621 1.384 . S
H624 C630 0.930 . S
H625 C634 0.930 . S
H626 C639 0.929 . S
H627 C637 0.929 . S
H628 C632 0.929 . S
H629 C638 0.929 . S
C630 H624 0.930 . S
C630 C631 1.367 1_455 S
C630 C638 1.378 . S
C631 C630 1.367 1_655 S
C631 C639 1.433 . S
C632 H628 0.929 . S
C632 C634 1.378 . S
C632 C636 1.350 . S
C633 C636 1.463 . S
C633 C638 1.350 1_655 S
C633 N641 1.427 . S
C634 H625 0.930 . S
C634 C632 1.378 . S
C634 C635 1.367 . S
C635 C634 1.367 . S
C635 C637 1.433 1_655 S
C636 C632 1.350 . S
C636 C633 1.463 . S
C636 N640 1.427 1_655 S
C637 H627 0.929 . S
C637 C635 1.433 1_455 S
C637 N640 1.384 . S
C638 H629 0.929 . S
C638 C630 1.378 . S
C638 C633 1.350 1_455 S
C639 H626 0.929 . S
C639 C631 1.433 . S
C639 N641 1.384 . S
N640 C636 1.427 1_455 S
N640 C637 1.384 . S
N641 C633 1.427 . S
N641 C639 1.384 . S
H642 C648 0.930 . S
H643 C652 0.923 1_545 S
H644 C657 0.929 . S
H645 C655 0.929 . S
H646 C650 0.929 1_545 S
H647 C656 0.929 . S
C648 H642 0.930 . S
C648 C649 1.367 . S
C648 C656 1.378 . S
C649 C648 1.367 . S
C649 C657 1.433 1_565 S
C650 H646 0.929 1_565 S
C650 C652 1.378 . S
C650 C654 1.350 . S
C651 C654 1.463 . S
C651 C656 1.350 . S
C651 N659 1.427 1_565 S
C652 H643 0.923 1_565 S
C652 C650 1.378 . S
C652 C653 1.367 . S
C653 C652 1.367 . S
C653 C655 1.433 . S
C654 C650 1.350 . S
C654 C651 1.463 . S
C654 N658 1.427 . S
C655 H645 0.929 . S
C655 C653 1.433 . S
C655 N658 1.384 . S
C656 H647 0.929 . S
C656 C648 1.378 . S
C656 C651 1.350 . S
C657 H644 0.929 . S
C657 C649 1.433 1_545 S
C657 N659 1.384 . S
N658 C654 1.427 . S
N658 C655 1.384 . S
N659 C651 1.427 1_545 S
N659 C657 1.384 . S
H660 C666 0.930 . S
H661 C670 0.930 . S
H662 C675 0.929 . S
H663 C673 0.929 . S
H664 C668 0.929 . S
H665 C674 0.929 . S
C666 H660 0.930 . S
C666 C667 1.367 . S
C666 C674 1.378 . S
C667 C666 1.367 . S
C667 C675 1.433 . S
C668 H664 0.929 . S
C668 C670 1.378 . S
C668 C672 1.350 . S
C669 C672 1.463 . S
C669 C674 1.350 . S
C669 N677 1.427 . S
C670 H661 0.930 . S
C670 C668 1.378 . S
C670 C671 1.367 . S
C671 C670 1.367 . S
C671 C673 1.433 . S
C672 C668 1.350 . S
C672 C669 1.463 . S
C672 N676 1.427 . S
C673 H663 0.929 . S
C673 C671 1.433 . S
C673 N676 1.384 . S
C674 H665 0.929 . S
C674 C666 1.378 . S
C674 C669 1.350 . S
C675 H662 0.929 . S
C675 C667 1.433 . S
C675 N677 1.384 . S
N676 C672 1.427 . S
N676 C673 1.384 . S
N677 C669 1.427 . S
N677 C675 1.384 . S
H678 C684 0.930 . S
H679 C688 0.930 . S
H680 C693 0.929 . S
H681 C691 0.929 . S
H682 C686 0.929 . S
H683 C692 0.929 . S
C684 H678 0.930 . S
C684 C685 1.367 . S
C684 C692 1.378 . S
C685 C684 1.367 . S
C685 C693 1.433 . S
C686 H682 0.929 . S
C686 C688 1.378 . S
C686 C690 1.350 . S
C687 C690 1.463 . S
C687 C692 1.350 . S
C687 N695 1.427 . S
C688 H679 0.930 . S
C688 C686 1.378 . S
C688 C689 1.367 . S
C689 C688 1.367 . S
C689 C691 1.433 . S
C690 C686 1.350 . S
C690 C687 1.463 . S
C690 N694 1.427 . S
C691 H681 0.929 . S
C691 C689 1.433 . S
C691 N694 1.384 . S
C692 H683 0.929 . S
C692 C684 1.378 . S
C692 C687 1.350 . S
C693 H680 0.929 . S
C693 C685 1.433 . S
C693 N695 1.384 . S
N694 C690 1.427 . S
N694 C691 1.384 . S
N695 C687 1.427 . S
N695 C693 1.384 . S
C271 N80 1.897 1_545 S
C275 C122 1.984 . S
C293 C162 1.998 . S
C289 N93 1.919 . S
C311 C202 2.008 . S
C307 N54 1.932 . S
C329 C242 1.996 1_455 S
C325 N67 1.914 . S
C347 C112 1.986 1_565 S
C343 N28 1.908 1_545 S
C361 N41 1.908 . S
C365 C152 2.004 . S
C379 N2 1.921 . S
C383 C192 2.008 . S
C397 N15 1.915 1_455 S
C401 C232 1.997 1_655 S
C419 C109 0.447 . S
C415 N70 0.418 1_455 S
C437 C149 0.465 . S
C433 N83 0.429 1_545 S
C455 C189 0.465 . S
C451 N96 0.442 . S
C469 N57 0.410 . S
C473 C229 0.427 . S
C487 N18 0.403 . S
C491 C119 0.424 . S
C509 C159 0.445 . S
C505 N31 0.425 . S
C527 C199 0.442 . S
C523 N44 0.422 . S
C541 N5 0.415 . S
C545 C239 0.465 . S
C559 N66 2.188 1_456 S
C563 C113 2.268 . S
C577 N79 2.156 1_546 S
C581 C153 2.237 . S
C599 C193 2.211 . S
C595 N92 2.137 . S
C617 C233 2.255 . S
C613 N53 2.176 1_556 S
C631 N14 2.195 . S
C635 C123 2.280 . S
C653 C163 2.232 . S
C649 N27 2.156 . S
C671 C203 2.216 . S
C667 N40 2.134 . S
C685 N1 2.172 . S
C689 C243 2.260 . S
