# Generated by pormake.
# Topology pto, (3,4)-cn, num edge types: 1
# Building blocks:
#     Node 0, Type 0, BuildingBlock: BETDAH_clean_linker_0, # of connection points: 3
#     Node 1, Type 0, BuildingBlock: BETDAH_clean_linker_0, # of connection points: 3
#     Node 2, Type 0, BuildingBlock: BETDAH_clean_linker_0, # of connection points: 3
#     Node 3, Type 0, BuildingBlock: BETDAH_clean_linker_0, # of connection points: 3
#     Node 4, Type 0, BuildingBlock: BETDAH_clean_linker_0, # of connection points: 3
#     Node 5, Type 0, BuildingBlock: BETDAH_clean_linker_0, # of connection points: 3
#     Node 6, Type 0, BuildingBlock: BETDAH_clean_linker_0, # of connection points: 3
#     Node 7, Type 0, BuildingBlock: BETDAH_clean_linker_0, # of connection points: 3
#     Node 8, Type 1, BuildingBlock: KOZSID_clean_sbu_0, # of connection points: 4
#     Node 9, Type 1, BuildingBlock: KOZSID_clean_sbu_0, # of connection points: 4
#     Node 10, Type 1, BuildingBlock: KOZSID_clean_sbu_0, # of connection points: 4
#     Node 11, Type 1, BuildingBlock: KOZSID_clean_sbu_0, # of connection points: 4
#     Node 12, Type 1, BuildingBlock: KOZSID_clean_sbu_0, # of connection points: 4
#     Node 13, Type 1, BuildingBlock: KOZSID_clean_sbu_0, # of connection points: 4
#     Edge 14, Type (0, 1), BuildingBlock: TEMPAE_clean_linker_10, # of connection points: 2
#     Edge 15, Type (0, 1), BuildingBlock: TEMPAE_clean_linker_10, # of connection points: 2
#     Edge 16, Type (0, 1), BuildingBlock: TEMPAE_clean_linker_10, # of connection points: 2
#     Edge 17, Type (0, 1), BuildingBlock: TEMPAE_clean_linker_10, # of connection points: 2
#     Edge 18, Type (0, 1), BuildingBlock: TEMPAE_clean_linker_10, # of connection points: 2
#     Edge 19, Type (0, 1), BuildingBlock: TEMPAE_clean_linker_10, # of connection points: 2
#     Edge 20, Type (0, 1), BuildingBlock: TEMPAE_clean_linker_10, # of connection points: 2
#     Edge 21, Type (0, 1), BuildingBlock: TEMPAE_clean_linker_10, # of connection points: 2
#     Edge 22, Type (0, 1), BuildingBlock: TEMPAE_clean_linker_10, # of connection points: 2
#     Edge 23, Type (0, 1), BuildingBlock: TEMPAE_clean_linker_10, # of connection points: 2
#     Edge 24, Type (0, 1), BuildingBlock: TEMPAE_clean_linker_10, # of connection points: 2
#     Edge 25, Type (0, 1), BuildingBlock: TEMPAE_clean_linker_10, # of connection points: 2
#     Edge 26, Type (0, 1), BuildingBlock: TEMPAE_clean_linker_10, # of connection points: 2
#     Edge 27, Type (0, 1), BuildingBlock: TEMPAE_clean_linker_10, # of connection points: 2
#     Edge 28, Type (0, 1), BuildingBlock: TEMPAE_clean_linker_10, # of connection points: 2
#     Edge 29, Type (0, 1), BuildingBlock: TEMPAE_clean_linker_10, # of connection points: 2
#     Edge 30, Type (0, 1), BuildingBlock: TEMPAE_clean_linker_10, # of connection points: 2
#     Edge 31, Type (0, 1), BuildingBlock: TEMPAE_clean_linker_10, # of connection points: 2
#     Edge 32, Type (0, 1), BuildingBlock: TEMPAE_clean_linker_10, # of connection points: 2
#     Edge 33, Type (0, 1), BuildingBlock: TEMPAE_clean_linker_10, # of connection points: 2
#     Edge 34, Type (0, 1), BuildingBlock: TEMPAE_clean_linker_10, # of connection points: 2
#     Edge 35, Type (0, 1), BuildingBlock: TEMPAE_clean_linker_10, # of connection points: 2
#     Edge 36, Type (0, 1), BuildingBlock: TEMPAE_clean_linker_10, # of connection points: 2
#     Edge 37, Type (0, 1), BuildingBlock: TEMPAE_clean_linker_10, # of connection points: 2
# Relax obj value: 0.010
# Max RMSD: 0.120
# Mean RMSD: 0.061
data_MOF--net-pto--node1-KOZSID_clean_sbu_0--node2-BETDAH_clean_linker_0--edge1-TEMPAE_clean_linker_10
_symmetry_space_group_name_H-M    P1
_symmetry_Int_Tables_number       1
_symmetry_cell_setting            triclinic
loop_
_symmetry_equiv_pos_as_xyz
'x, y, z'
_cell_length_a     38.889853
_cell_length_b     50.620423
_cell_length_c     45.396801
_cell_angle_alpha  102.52498
_cell_angle_beta   93.721115
_cell_angle_gamma 103.64193
loop_
_atom_site_label
_atom_site_type_symbol
_atom_site_fract_x
_atom_site_fract_y
_atom_site_fract_z
_atom_type_partial_charge
H0 H 0.34751 0.22163 0.40151 0.0
H1 H 0.31571 0.2985 0.40823 0.0
H2 H 0.29825 0.25397 0.47867 0.0
C3 C 0.33553 0.23742 0.41358 0.0
C4 C 0.3227 0.23476 0.44126 0.0
C5 C 0.33322 0.26038 0.40147 0.0
C6 C 0.31768 0.28079 0.41742 0.0
C7 C 0.30493 0.27833 0.44527 0.0
C8 C 0.30774 0.25548 0.457 0.0
N9 N 0.28963 0.29854 0.46249 0.0
C10 C 0.27769 0.31869 0.45137 0.0
H11 H 0.27063 0.72835 0.79774 0.0
H12 H 0.30669 0.79389 0.75166 0.0
H13 H 0.21516 0.72574 0.71188 0.0
C14 C 0.26736 0.73792 0.77893 0.0
C15 C 0.23938 0.72442 0.75552 0.0
C16 C 0.29168 0.76308 0.77803 0.0
C17 C 0.28812 0.77456 0.75271 0.0
C18 C 0.26057 0.76082 0.72869 0.0
C19 C 0.2366 0.73585 0.73023 0.0
N20 N 0.25611 0.77115 0.70241 0.0
C21 C 0.27104 0.79832 0.70015 0.0
H22 H 0.86944 0.74752 0.39731 0.0
H23 H 0.81604 0.76622 0.32128 0.0
H24 H 0.86084 0.69536 0.30717 0.0
C25 C 0.86007 0.74235 0.37324 0.0
C26 C 0.86764 0.7193 0.35377 0.0
C27 C 0.84157 0.75945 0.36167 0.0
C28 C 0.83041 0.7532 0.33027 0.0
C29 C 0.83751 0.73004 0.31065 0.0
C30 C 0.85599 0.71336 0.32254 0.0
N31 N 0.82674 0.72273 0.27884 0.0
C32 C 0.80589 0.73567 0.26371 0.0
H33 H 0.79438 0.25746 0.83586 0.0
H34 H 0.77532 0.20053 0.89428 0.0
H35 H 0.80948 0.28867 0.9334 0.0
C36 C 0.79403 0.25393 0.85854 0.0
C37 C 0.80444 0.27686 0.88404 0.0
C38 C 0.78431 0.22628 0.86181 0.0
C39 C 0.78204 0.22167 0.89109 0.0
C40 C 0.78953 0.24424 0.91661 0.0
C41 C 0.8012 0.27172 0.91318 0.0
N42 N 0.78894 0.23884 0.94588 0.0
C43 C 0.76397 0.24566 0.96465 0.0
H44 H 0.77807 0.71726 0.82593 0.0
H45 H 0.85025 0.73894 0.76194 0.0
H46 H 0.78182 0.79163 0.79351 0.0
C47 C 0.78891 0.73099 0.81165 0.0
C48 C 0.77687 0.75517 0.81199 0.0
C49 C 0.81535 0.72476 0.79367 0.0
C50 C 0.82928 0.74294 0.77551 0.0
C51 C 0.81715 0.76676 0.77499 0.0
C52 C 0.791 0.773 0.79342 0.0
N53 N 0.83271 0.7841 0.7561 0.0
C54 C 0.8213 0.80661 0.75002 0.0
H55 H 0.78323 0.31386 0.41979 0.0
H56 H 0.82373 0.31156 0.50915 0.0
H57 H 0.74178 0.24195 0.45536 0.0
C58 C 0.78361 0.30269 0.43762 0.0
C59 C 0.75995 0.27617 0.43392 0.0
C60 C 0.80711 0.3155 0.46434 0.0
C61 C 0.80588 0.30193 0.48824 0.0
C62 C 0.78283 0.27535 0.48499 0.0
C63 C 0.7599 0.26236 0.45774 0.0
N64 N 0.78268 0.26278 0.51002 0.0
C65 C 0.77807 0.23427 0.50745 0.0
H66 H 0.31956 0.24143 0.85909 0.0
H67 H 0.32927 0.32951 0.89299 0.0
H68 H 0.29217 0.29053 0.79906 0.0
C69 C 0.31616 0.26119 0.8555 0.0
C70 C 0.30451 0.26289 0.82617 0.0
C71 C 0.32515 0.28503 0.87991 0.0
C72 C 0.32134 0.31065 0.8748 0.0
C73 C 0.30883 0.31246 0.84588 0.0
C74 C 0.30058 0.28868 0.8216 0.0
N75 N 0.30894 0.33899 0.84062 0.0
C76 C 0.2779 0.34775 0.83788 0.0
H77 H 0.26656 0.76174 0.35876 0.0
H78 H 0.31799 0.79182 0.28676 0.0
H79 H 0.26329 0.70498 0.27267 0.0
C80 C 0.27371 0.75785 0.33583 0.0
C81 C 0.26258 0.73065 0.31722 0.0
C82 C 0.29336 0.78021 0.32511 0.0
C83 C 0.30313 0.77482 0.29546 0.0
C84 C 0.29198 0.74757 0.27655 0.0
C85 C 0.27154 0.72586 0.28744 0.0
N86 N 0.29931 0.74118 0.246 0.0
C87 C 0.32778 0.75606 0.23434 0.0
C88 C 0.12563 0.57345 0.42861 0.0
C89 C 0.15196 0.5934 0.4493 0.0
C90 C 0.14976 0.58614 0.47669 0.0
C91 C 0.12239 0.56223 0.47116 0.0
N92 N 0.10729 0.5541 0.44206 0.0
Co93 Co 0.06718 0.52096 0.42414 0.0
N94 N 0.05269 0.51848 0.46476 0.0
C95 C 0.0731 0.53068 0.49163 0.0
C96 C 0.05605 0.52511 0.51599 0.0
C97 C 0.02306 0.50807 0.50364 0.0
C98 C 0.02192 0.50402 0.4723 0.0
N99 N 0.02718 0.48771 0.40605 0.0
C100 C 0.99858 0.47573 0.41843 0.0
C101 C 0.97772 0.45187 0.3979 0.0
C102 C 0.99413 0.44882 0.37204 0.0
C103 C 0.02399 0.47082 0.37809 0.0
N104 N 0.08194 0.52341 0.38363 0.0
C105 C 0.0731 0.50281 0.35803 0.0
C106 C 0.08667 0.51107 0.33335 0.0
C107 C 0.10532 0.53853 0.34421 0.0
C108 C 0.10227 0.5454 0.37508 0.0
N109 N 0.09845 0.4964 0.42774 0.0
C110 C 0.1424 0.46031 0.4312 0.0
C111 C 0.15434 0.48463 0.42082 0.0
C112 C 0.13203 0.50238 0.41932 0.0
C113 C 0.10807 0.45461 0.44002 0.0
C114 C 0.08663 0.47286 0.43815 0.0
N115 N 0.03607 0.54553 0.4204 0.0
C116 C 0.99473 0.55993 0.38955 0.0
C117 C 0.99555 0.58322 0.41313 0.0
C118 C 0.01647 0.58675 0.44074 0.0
C119 C 0.03647 0.5677 0.4439 0.0
C120 C 0.015 0.54136 0.39368 0.0
H121 H 0.05275 0.5712 0.46521 0.0
H122 H 0.01425 0.52394 0.37494 0.0
H123 H 0.14193 0.52091 0.41119 0.0
H124 H 0.06031 0.46771 0.4449 0.0
C125 C 0.10587 0.55013 0.49326 0.0
C126 C 0.12023 0.57229 0.39607 0.0
C127 C 0.99285 0.48413 0.45047 0.0
C128 C 0.04673 0.47834 0.35694 0.0
H129 H 0.17075 0.61126 0.44504 0.0
H130 H 0.16522 0.59765 0.49827 0.0
H131 H 0.06602 0.53305 0.53988 0.0
H132 H 0.00247 0.49921 0.51625 0.0
H133 H 0.95365 0.43767 0.40143 0.0
H134 H 0.98497 0.43279 0.35114 0.0
H135 H 0.08206 0.49908 0.30998 0.0
H136 H 0.11931 0.55189 0.33082 0.0
H137 H 0.18084 0.49005 0.41412 0.0
H138 H 0.09752 0.43589 0.44782 0.0
H139 H 0.97936 0.55645 0.36766 0.0
H140 H 0.01755 0.60416 0.45977 0.0
C141 C 0.0705 0.55535 0.82483 0.0
C142 C 0.09441 0.57572 0.84721 0.0
C143 C 0.0846 0.57158 0.87448 0.0
C144 C 0.05539 0.54908 0.8673 0.0
N145 N 0.04596 0.53847 0.83704 0.0
Co146 Co 0.00503 0.50572 0.81674 0.0
N147 N 0.98877 0.50137 0.85685 0.0
C148 C 0.00251 0.51832 0.88453 0.0
C149 C 0.98477 0.5109 0.90779 0.0
C150 C 0.95824 0.48765 0.89422 0.0
C151 C 0.96164 0.48202 0.86337 0.0
N152 N 0.96508 0.47217 0.79656 0.0
C153 C 0.94196 0.45428 0.8089 0.0
C154 C 0.92103 0.43186 0.78659 0.0
C155 C 0.93086 0.43594 0.75933 0.0
C156 C 0.95746 0.46023 0.7664 0.0
N157 N 0.02037 0.5109 0.77654 0.0
C158 C 0.00465 0.49557 0.74865 0.0
C159 C 0.02009 0.50482 0.72522 0.0
C160 C 0.04702 0.52774 0.73892 0.0
C161 C 0.04638 0.53112 0.77003 0.0
N162 N 0.03662 0.4804 0.81913 0.0
C163 C 0.08358 0.44598 0.82222 0.0
C164 C 0.06443 0.44482 0.79464 0.0
C165 C 0.04125 0.46199 0.79363 0.0
C166 C 0.07823 0.46427 0.84833 0.0
C167 C 0.05483 0.48112 0.8463 0.0
N168 N 0.97367 0.53121 0.81426 0.0
C169 C 0.92847 0.54508 0.78635 0.0
C170 C 0.93386 0.57005 0.80848 0.0
C171 C 0.95846 0.5748 0.83402 0.0
C172 C 0.97763 0.55516 0.83659 0.0
C173 C 0.94864 0.52613 0.7896 0.0
H174 H 0.99584 0.56009 0.85669 0.0
H175 H 0.94394 0.50779 0.77159 0.0
H176 H 0.02751 0.46008 0.77191 0.0
H177 H 0.05222 0.49477 0.86699 0.0
C178 C 0.03388 0.53953 0.88823 0.0
C179 C 0.07086 0.55398 0.79241 0.0
C180 C 0.9396 0.45731 0.84148 0.0
C181 C 0.97603 0.47217 0.74525 0.0
H182 H 0.11608 0.5924 0.84423 0.0
H183 H 0.09649 0.58418 0.89686 0.0
H184 H 0.99097 0.52077 0.93183 0.0
H185 H 0.93905 0.47579 0.90582 0.0
H186 H 0.90109 0.41402 0.78946 0.0
H187 H 0.92033 0.42249 0.73703 0.0
H188 H 0.01262 0.49598 0.70106 0.0
H189 H 0.06503 0.5406 0.72734 0.0
H190 H 0.06721 0.43065 0.77384 0.0
H191 H 0.09267 0.46613 0.87021 0.0
H192 H 0.90958 0.54056 0.76618 0.0
H193 H 0.96297 0.59368 0.85201 0.0
C194 C 0.35341 0.99019 0.61999 0.0
C195 C 0.38504 0.98895 0.63499 0.0
C196 C 0.41148 0.00916 0.62859 0.0
C197 C 0.3946 0.02154 0.61013 0.0
N198 N 0.35892 0.01052 0.60435 0.0
Co199 Co 0.32418 0.02254 0.57877 0.0
N200 N 0.36352 0.05059 0.56734 0.0
C201 C 0.39895 0.05477 0.57483 0.0
C202 C 0.41958 0.07476 0.56283 0.0
C203 C 0.39594 0.08395 0.54669 0.0
C204 C 0.3621 0.06909 0.55001 0.0
N205 N 0.28927 0.03551 0.55447 0.0
C206 C 0.29475 0.05635 0.53956 0.0
C207 C 0.26278 0.05972 0.52739 0.0
C208 C 0.23619 0.04023 0.53471 0.0
C209 C 0.25329 0.02631 0.55107 0.0
N210 N 0.285 0.9935 0.58897 0.0
C211 C 0.24976 0.98765 0.57938 0.0
C212 C 0.22938 0.966 0.5892 0.0
C213 C 0.25302 0.95718 0.60574 0.0
C214 C 0.28663 0.97404 0.60501 0.0
N215 N 0.31976 0.05103 0.61509 0.0
C216 C 0.31267 0.09487 0.66275 0.0
C217 C 0.28299 0.07356 0.64775 0.0
C218 C 0.2871 0.05203 0.62426 0.0
C219 C 0.34616 0.0932 0.65426 0.0
C220 C 0.34909 0.0712 0.63073 0.0
N221 N 0.32855 0.99426 0.54225 0.0
C222 C 0.30234 0.96187 0.49426 0.0
C223 C 0.33432 0.95446 0.49009 0.0
C224 C 0.36342 0.96718 0.5124 0.0
C225 C 0.3601 0.98713 0.53798 0.0
C226 C 0.29993 0.9814 0.52042 0.0
H227 H 0.38341 0.9964 0.55398 0.0
H228 H 0.27451 0.98556 0.52251 0.0
H229 H 0.26334 0.03667 0.61364 0.0
H230 H 0.37533 0.07127 0.62525 0.0
C231 C 0.41183 0.04135 0.59524 0.0
C232 C 0.31918 0.97067 0.61991 0.0
C233 C 0.32952 0.07374 0.53676 0.0
C234 C 0.23645 0.00375 0.56242 0.0
H235 H 0.38879 0.97446 0.64852 0.0
H236 H 0.43979 0.01362 0.63566 0.0
H237 H 0.44836 0.08221 0.56599 0.0
H238 H 0.40281 0.10002 0.53421 0.0
H239 H 0.25897 0.07477 0.51466 0.0
H240 H 0.20778 0.03663 0.52878 0.0
H241 H 0.20071 0.95774 0.585 0.0
H242 H 0.24626 0.94028 0.61713 0.0
H243 H 0.25656 0.07347 0.65399 0.0
H244 H 0.37003 0.10919 0.66509 0.0
H245 H 0.27893 0.95207 0.47773 0.0
H246 H 0.3887 0.96191 0.51001 0.0
C247 C 0.52272 0.8179 0.08098 0.0
C248 C 0.52114 0.84442 0.09624 0.0
C249 C 0.54638 0.86308 0.08635 0.0
C250 C 0.56169 0.84699 0.06555 0.0
N251 N 0.54774 0.81914 0.06149 0.0
Co252 Co 0.56144 0.78838 0.03259 0.0
N253 N 0.60056 0.81581 0.02 0.0
C254 C 0.6109 0.84384 0.03146 0.0
C255 C 0.63875 0.85718 0.01858 0.0
C256 C 0.64661 0.83646 0.99753 0.0
C257 C 0.62284 0.81161 0.9987 0.0
N258 N 0.57396 0.75768 0.0026 0.0
C259 C 0.59777 0.75909 0.98209 0.0
C260 C 0.59629 0.73281 0.96404 0.0
C261 C 0.57054 0.71414 0.97338 0.0
C262 C 0.55768 0.73 0.99635 0.0
N263 N 0.52352 0.76081 0.04629 0.0
C264 C 0.51549 0.73256 0.0369 0.0
C265 C 0.49002 0.71899 0.05175 0.0
C266 C 0.48142 0.73978 0.07211 0.0
C267 C 0.502 0.76498 0.06824 0.0
N268 N 0.52685 0.7913 0.99997 0.0
C269 C 0.48082 0.79367 0.95033 0.0
C270 C 0.47651 0.7694 0.96119 0.0
C271 C 0.4997 0.7686 0.98553 0.0
C272 C 0.50792 0.81711 0.96561 0.0
C273 C 0.53015 0.81558 0.99036 0.0
N274 N 0.59602 0.78538 0.06512 0.0
C275 C 0.62329 0.75685 0.09068 0.0
C276 C 0.64202 0.78033 0.11312 0.0
C277 C 0.63797 0.80652 0.11071 0.0
C278 C 0.61506 0.80856 0.0867 0.0
C279 C 0.60074 0.75982 0.06713 0.0
H280 H 0.61293 0.82908 0.08623 0.0
H281 H 0.58727 0.74104 0.05091 0.0
H282 H 0.4952 0.7492 0.99201 0.0
H283 H 0.5501 0.83423 0.00109 0.0
C284 C 0.59136 0.85724 0.05172 0.0
C285 C 0.50038 0.79224 0.0862 0.0
C286 C 0.62169 0.78475 0.97839 0.0
C287 C 0.53133 0.71943 0.01322 0.0
H288 H 0.50389 0.8497 0.11313 0.0
H289 H 0.55337 0.88568 0.094 0.0
H290 H 0.65106 0.87943 0.02322 0.0
H291 H 0.66698 0.83935 0.98253 0.0
H292 H 0.61202 0.72768 0.94585 0.0
H293 H 0.56214 0.69167 0.96444 0.0
H294 H 0.47902 0.69665 0.04822 0.0
H295 H 0.46225 0.73664 0.08808 0.0
H296 H 0.45525 0.75089 0.95101 0.0
H297 H 0.51255 0.83648 0.95825 0.0
H298 H 0.62617 0.73616 0.09108 0.0
H299 H 0.65189 0.82535 0.12755 0.0
C300 C 0.82533 0.9711 0.63509 0.0
C301 C 0.85899 0.97087 0.64713 0.0
C302 C 0.88295 0.98996 0.63667 0.0
C303 C 0.86271 0.00078 0.61898 0.0
N304 N 0.82719 0.98991 0.61767 0.0
Co305 Co 0.78833 0.99924 0.59385 0.0
N306 N 0.8235 0.02919 0.58079 0.0
C307 C 0.8593 0.03686 0.5882 0.0
C308 C 0.8762 0.05936 0.57772 0.0
C309 C 0.84954 0.06692 0.56325 0.0
C310 C 0.81783 0.04838 0.5656 0.0
N311 N 0.74965 0.00784 0.56907 0.0
C312 C 0.75117 0.02847 0.55413 0.0
C313 C 0.71802 0.02706 0.53968 0.0
C314 C 0.69456 0.00499 0.54616 0.0
C315 C 0.71468 0.99419 0.56401 0.0
N316 N 0.75293 0.97039 0.60818 0.0
C317 C 0.71708 0.96313 0.60107 0.0
C318 C 0.69961 0.94315 0.61479 0.0
C319 C 0.72582 0.93736 0.63183 0.0
C320 C 0.75793 0.95422 0.62748 0.0
N321 N 0.78354 0.02783 0.62968 0.0
C322 C 0.77697 0.06814 0.68103 0.0
C323 C 0.74694 0.05164 0.66116 0.0
C324 C 0.75077 0.03166 0.63586 0.0
C325 C 0.81032 0.06425 0.67463 0.0
C326 C 0.813 0.04424 0.64899 0.0
N327 N 0.79325 0.9703 0.5579 0.0
C328 C 0.76919 0.92576 0.52155 0.0
C329 C 0.80221 0.92653 0.51081 0.0
C330 C 0.83024 0.95019 0.52324 0.0
C331 C 0.82526 0.97154 0.54652 0.0
C332 C 0.76526 0.94774 0.54463 0.0
H333 H 0.84799 0.98859 0.55509 0.0
H334 H 0.7394 0.94564 0.55162 0.0
H335 H 0.72689 0.01948 0.62163 0.0
H336 H 0.8392 0.04245 0.64519 0.0
C337 C 0.87612 0.02268 0.60536 0.0
C338 C 0.79248 0.95324 0.64114 0.0
C339 C 0.78292 0.05054 0.5542 0.0
C340 C 0.70088 0.97416 0.57992 0.0
H341 H 0.86556 0.95838 0.66216 0.0
H342 H 0.91169 0.99568 0.64185 0.0
H343 H 0.90445 0.06942 0.58079 0.0
H344 H 0.853 0.08442 0.55265 0.0
H345 H 0.71138 0.04105 0.52657 0.0
H346 H 0.66597 0.99846 0.53984 0.0
H347 H 0.67126 0.93356 0.61226 0.0
H348 H 0.72176 0.92208 0.6455 0.0
H349 H 0.72052 0.05385 0.66533 0.0
H350 H 0.8344 0.07689 0.68912 0.0
H351 H 0.74654 0.90792 0.51284 0.0
H352 H 0.85614 0.9523 0.51521 0.0
C353 C 0.48127 0.29473 0.21139 0.0
C354 C 0.48144 0.3209 0.22892 0.0
C355 C 0.50804 0.33979 0.22072 0.0
C356 C 0.52258 0.32411 0.19885 0.0
N357 N 0.50648 0.29639 0.19212 0.0
Co358 Co 0.5209 0.26581 0.1635 0.0
N359 N 0.56135 0.29345 0.15268 0.0
C360 C 0.56986 0.32166 0.16274 0.0
C361 C 0.5982 0.33521 0.15058 0.0
C362 C 0.60819 0.31447 0.13127 0.0
C363 C 0.5852 0.28936 0.13276 0.0
N364 N 0.53623 0.23513 0.13589 0.0
C365 C 0.56331 0.23647 0.11842 0.0
C366 C 0.56469 0.21001 0.10274 0.0
C367 C 0.53756 0.1913 0.11059 0.0
C368 C 0.52119 0.20728 0.13049 0.0
N369 N 0.4796 0.23832 0.17335 0.0
C370 C 0.46904 0.2104 0.16121 0.0
C371 C 0.43984 0.19702 0.17259 0.0
C372 C 0.43145 0.21759 0.19348 0.0
C373 C 0.45623 0.24237 0.19368 0.0
N374 N 0.48967 0.2696 0.12903 0.0
C375 C 0.44774 0.2751 0.07868 0.0
C376 C 0.4505 0.24882 0.08187 0.0
C377 C 0.47131 0.24657 0.107 0.0
C378 C 0.46584 0.29855 0.10144 0.0
C379 C 0.48644 0.29536 0.12619 0.0
N380 N 0.552 0.26197 0.19798 0.0
C381 C 0.56777 0.23417 0.23135 0.0
C382 C 0.59347 0.2573 0.24915 0.0
C383 C 0.59849 0.28264 0.24032 0.0
C384 C 0.57751 0.28455 0.21511 0.0
C385 C 0.54781 0.23687 0.20594 0.0
H386 H 0.58231 0.3046 0.21006 0.0
H387 H 0.52884 0.2184 0.1933 0.0
H388 H 0.47242 0.22596 0.10782 0.0
H389 H 0.49969 0.31409 0.14256 0.0
C390 C 0.55149 0.33473 0.18441 0.0
C391 C 0.45778 0.26884 0.21483 0.0
C392 C 0.5872 0.26224 0.11484 0.0
C393 C 0.48974 0.19699 0.14217 0.0
H394 H 0.46449 0.32575 0.24622 0.0
H395 H 0.51622 0.36221 0.22999 0.0
H396 H 0.61023 0.3575 0.15528 0.0
H397 H 0.62995 0.3175 0.11763 0.0
H398 H 0.58288 0.20477 0.08674 0.0
H399 H 0.52999 0.16878 0.10206 0.0
H400 H 0.42714 0.17481 0.16729 0.0
H401 H 0.41021 0.21462 0.20767 0.0
H402 H 0.43736 0.23001 0.06468 0.0
H403 H 0.46414 0.31935 0.10026 0.0
H404 H 0.56249 0.21407 0.23717 0.0
H405 H 0.61865 0.30109 0.2527 0.0
C406 C 0.22757 0.33159 0.42779 0.0
C407 C 0.26204 0.3396 0.44321 0.0
C408 C 0.2097 0.35181 0.42358 0.0
C409 C 0.22687 0.38059 0.43524 0.0
C410 C 0.26242 0.38866 0.4497 0.0
C411 C 0.2796 0.36795 0.45362 0.0
C412 C 0.17185 0.34234 0.40804 0.0
C413 C 0.28166 0.41909 0.4623 0.0
C414 C 0.18537 0.43376 0.40892 0.0
C415 C 0.16534 0.44082 0.43268 0.0
C416 C 0.206 0.41449 0.40959 0.0
C417 C 0.20656 0.402 0.43459 0.0
C418 C 0.18687 0.40939 0.45885 0.0
C419 C 0.16658 0.42872 0.45761 0.0
C420 C 0.22666 0.40713 0.38332 0.0
C421 C 0.18687 0.3966 0.48598 0.0
H422 H 0.2141 0.30952 0.42001 0.0
H423 H 0.30627 0.37392 0.46576 0.0
H424 H 0.15348 0.34778 0.42472 0.0
H425 H 0.16889 0.35333 0.38975 0.0
H426 H 0.16345 0.3194 0.39805 0.0
H427 H 0.31022 0.42193 0.47024 0.0
H428 H 0.27988 0.43117 0.44483 0.0
H429 H 0.26876 0.42813 0.48175 0.0
H430 H 0.18425 0.4428 0.38942 0.0
H431 H 0.15166 0.43442 0.47628 0.0
H432 H 0.21644 0.3846 0.37189 0.0
H433 H 0.25518 0.41062 0.39174 0.0
H434 H 0.22471 0.41963 0.36626 0.0
H435 H 0.17607 0.37356 0.47847 0.0
H436 H 0.17067 0.40499 0.5032 0.0
H437 H 0.21454 0.40066 0.49696 0.0
C438 C 0.20017 0.69703 0.78593 0.0
C439 C 0.213 0.69867 0.75802 0.0
C440 C 0.17638 0.67267 0.78931 0.0
C441 C 0.16479 0.64936 0.7641 0.0
C442 C 0.177 0.65099 0.73567 0.0
C443 C 0.20104 0.67564 0.73297 0.0
C444 C 0.16394 0.6718 0.82002 0.0
C445 C 0.16506 0.62657 0.70826 0.0
C446 C 0.13149 0.57972 0.78459 0.0
C447 C 0.09472 0.57695 0.78234 0.0
C448 C 0.1546 0.60272 0.7776 0.0
C449 C 0.1404 0.62321 0.76794 0.0
C450 C 0.10301 0.61975 0.7644 0.0
C451 C 0.08057 0.59662 0.77176 0.0
C452 C 0.19428 0.60571 0.78179 0.0
C453 C 0.08683 0.64099 0.75396 0.0
H454 H 0.20873 0.71493 0.80524 0.0
H455 H 0.21105 0.67666 0.7114 0.0
H456 H 0.13444 0.66732 0.81808 0.0
H457 H 0.17161 0.65464 0.82826 0.0
H458 H 0.17539 0.69177 0.8373 0.0
H459 H 0.17585 0.63158 0.68749 0.0
H460 H 0.17391 0.60836 0.71272 0.0
H461 H 0.13552 0.62012 0.70385 0.0
H462 H 0.14214 0.56427 0.79268 0.0
H463 H 0.052 0.59423 0.77 0.0
H464 H 0.20719 0.62427 0.80048 0.0
H465 H 0.20597 0.6092 0.76087 0.0
H466 H 0.20081 0.587 0.78733 0.0
H467 H 0.09455 0.66107 0.77149 0.0
H468 H 0.05727 0.63395 0.74977 0.0
H469 H 0.09718 0.64521 0.73278 0.0
C470 C 0.91322 0.69133 0.3492 0.0
C471 C 0.88771 0.70134 0.3657 0.0
C472 C 0.93081 0.67296 0.35892 0.0
C473 C 0.92312 0.66459 0.38607 0.0
C474 C 0.89828 0.67528 0.40341 0.0
C475 C 0.88076 0.69345 0.39296 0.0
C476 C 0.9571 0.66204 0.33974 0.0
C477 C 0.88967 0.66706 0.43265 0.0
C478 C 0.94178 0.59534 0.39153 0.0
C479 C 0.97569 0.6041 0.40843 0.0
C480 C 0.92395 0.61482 0.38484 0.0
C481 C 0.94023 0.64383 0.39553 0.0
C482 C 0.97385 0.65284 0.41355 0.0
C483 C 0.99124 0.63289 0.41966 0.0
C484 C 0.88816 0.60434 0.36549 0.0
C485 C 0.99199 0.68358 0.42554 0.0
H486 H 0.91937 0.69778 0.32847 0.0
H487 H 0.86093 0.70088 0.40576 0.0
H488 H 0.98343 0.66699 0.35351 0.0
H489 H 0.94785 0.63891 0.33183 0.0
H490 H 0.96062 0.67103 0.31955 0.0
H491 H 0.87151 0.67858 0.44446 0.0
H492 H 0.87686 0.64428 0.4278 0.0
H493 H 0.91452 0.67114 0.44824 0.0
H494 H 0.92924 0.57316 0.38322 0.0
H495 H 0.01759 0.63991 0.43244 0.0
H496 H 0.89018 0.611 0.3438 0.0
H497 H 0.86811 0.61361 0.37723 0.0
H498 H 0.87836 0.58116 0.36018 0.0
H499 H 0.99933 0.69317 0.4063 0.0
H500 H 0.01652 0.68714 0.4414 0.0
H501 H 0.97354 0.69462 0.43752 0.0
C502 C 0.81874 0.32984 0.90043 0.0
C503 C 0.82154 0.30542 0.88001 0.0
C504 C 0.83654 0.35657 0.89735 0.0
C505 C 0.85659 0.359 0.87269 0.0
C506 C 0.85882 0.33458 0.85163 0.0
C507 C 0.84211 0.30826 0.85596 0.0
C508 C 0.83453 0.38216 0.9208 0.0
C509 C 0.87935 0.33619 0.82462 0.0
C510 C 0.88029 0.42539 0.84418 0.0
C511 C 0.91723 0.43414 0.85259 0.0
C512 C 0.85973 0.40148 0.85159 0.0
C513 C 0.87639 0.38684 0.86899 0.0
C514 C 0.91323 0.39706 0.87965 0.0
C515 C 0.93335 0.42031 0.87083 0.0
C516 C 0.8208 0.39084 0.839 0.0
C517 C 0.93179 0.38268 0.89915 0.0
H518 H 0.80278 0.32816 0.91895 0.0
H519 H 0.8459 0.28987 0.84058 0.0
H520 H 0.86175 0.39402 0.93179 0.0
H521 H 0.82332 0.39631 0.90976 0.0
H522 H 0.8179 0.37675 0.93869 0.0
H523 H 0.87569 0.31535 0.80884 0.0
H524 H 0.87072 0.35031 0.81178 0.0
H525 H 0.9082 0.34503 0.83254 0.0
H526 H 0.86782 0.43649 0.83053 0.0
H527 H 0.9619 0.42732 0.87761 0.0
H528 H 0.8042 0.38626 0.85712 0.0
H529 H 0.81676 0.37095 0.8215 0.0
H530 H 0.81116 0.40603 0.82842 0.0
H531 H 0.91586 0.37776 0.91758 0.0
H532 H 0.95882 0.3957 0.90949 0.0
H533 H 0.93453 0.3626 0.88509 0.0
C534 C 0.29532 0.19613 0.46539 0.0
C535 C 0.32486 0.21042 0.45388 0.0
C536 C 0.29707 0.17351 0.47809 0.0
C537 C 0.32921 0.16505 0.47944 0.0
C538 C 0.35906 0.17921 0.4676 0.0
C539 C 0.35649 0.2017 0.45487 0.0
C540 C 0.26458 0.15878 0.49024 0.0
C541 C 0.39382 0.17085 0.46882 0.0
C542 C 0.34149 0.12481 0.53912 0.0
C543 C 0.33158 0.0972 0.5217 0.0
C544 C 0.34173 0.14721 0.5255 0.0
C545 C 0.33162 0.14168 0.49377 0.0
C546 C 0.32231 0.11374 0.47602 0.0
C547 C 0.32253 0.09177 0.49025 0.0
C548 C 0.352 0.1767 0.54515 0.0
C549 C 0.31126 0.10702 0.44219 0.0
H550 H 0.27069 0.20258 0.46429 0.0
H551 H 0.37948 0.21286 0.44624 0.0
H552 H 0.25692 0.13615 0.47886 0.0
H553 H 0.27075 0.16059 0.51491 0.0
H554 H 0.24139 0.16754 0.48682 0.0
H555 H 0.41427 0.18361 0.45804 0.0
H556 H 0.4044 0.1733 0.49282 0.0
H557 H 0.38941 0.14846 0.45716 0.0
H558 H 0.34846 0.12878 0.56348 0.0
H559 H 0.31497 0.07028 0.47695 0.0
H560 H 0.32886 0.18597 0.54474 0.0
H561 H 0.3737 0.18997 0.53608 0.0
H562 H 0.36099 0.17751 0.56914 0.0
H563 H 0.28657 0.11363 0.43769 0.0
H564 H 0.30628 0.08432 0.4315 0.0
H565 H 0.3322 0.11883 0.43106 0.0
C566 C 0.31449 0.77599 0.8334 0.0
C567 C 0.32112 0.77625 0.80342 0.0
C568 C 0.34248 0.78289 0.85699 0.0
C569 C 0.37808 0.79115 0.85072 0.0
C570 C 0.38484 0.79403 0.82112 0.0
C571 C 0.35626 0.78627 0.79769 0.0
C572 C 0.33397 0.77929 0.88811 0.0
C573 C 0.42236 0.80368 0.81377 0.0
C574 C 0.44615 0.81839 0.92141 0.0
C575 C 0.45711 0.79421 0.92335 0.0
C576 C 0.42204 0.8183 0.89689 0.0
C577 C 0.40781 0.79325 0.8742 0.0
C578 C 0.41966 0.7691 0.87545 0.0
C579 C 0.44451 0.77002 0.89967 0.0
C580 C 0.41085 0.84471 0.89586 0.0
C581 C 0.40493 0.74183 0.8519 0.0
H582 H 0.28732 0.76907 0.83819 0.0
H583 H 0.36168 0.78665 0.77464 0.0
H584 H 0.3441 0.76184 0.89327 0.0
H585 H 0.34743 0.79846 0.90581 0.0
H586 H 0.30488 0.77459 0.88976 0.0
H587 H 0.42275 0.80986 0.79173 0.0
H588 H 0.43809 0.82169 0.83195 0.0
H589 H 0.43578 0.78647 0.81237 0.0
H590 H 0.45549 0.83722 0.9395 0.0
H591 H 0.45363 0.75148 0.90025 0.0
H592 H 0.38316 0.84247 0.90154 0.0
H593 H 0.41117 0.84842 0.87265 0.0
H594 H 0.42843 0.86334 0.91221 0.0
H595 H 0.37578 0.73443 0.85239 0.0
H596 H 0.4176 0.72515 0.85573 0.0
H597 H 0.40896 0.74496 0.82882 0.0
C598 C 0.84225 0.81027 0.3754 0.0
C599 C 0.83438 0.78402 0.38244 0.0
C600 C 0.83672 0.83389 0.39537 0.0
C601 C 0.82256 0.83108 0.42282 0.0
C602 C 0.81396 0.80449 0.42975 0.0
C603 C 0.8202 0.78133 0.40957 0.0
C604 C 0.84671 0.86193 0.38738 0.0
C605 C 0.79835 0.80056 0.45858 0.0
C606 C 0.83982 0.89455 0.4895 0.0
C607 C 0.8077 0.90256 0.48756 0.0
C608 C 0.8452 0.87167 0.46828 0.0
C609 C 0.81762 0.85605 0.44474 0.0
C610 C 0.78517 0.86399 0.44253 0.0
C611 C 0.78068 0.88724 0.46382 0.0
C612 C 0.88032 0.86402 0.47128 0.0
C613 C 0.75503 0.84772 0.41786 0.0
H614 H 0.85353 0.81246 0.35457 0.0
H615 H 0.81375 0.76099 0.41489 0.0
H616 H 0.82331 0.87091 0.38714 0.0
H617 H 0.86767 0.87678 0.40494 0.0
H618 H 0.85673 0.86048 0.36487 0.0
H619 H 0.79192 0.77834 0.46006 0.0
H620 H 0.81745 0.81333 0.47866 0.0
H621 H 0.77367 0.80794 0.45987 0.0
H622 H 0.86065 0.90583 0.50801 0.0
H623 H 0.75599 0.89345 0.46176 0.0
H624 H 0.89239 0.86338 0.44973 0.0
H625 H 0.87586 0.8428 0.47562 0.0
H626 H 0.89964 0.87904 0.49003 0.0
H627 H 0.76412 0.84753 0.39518 0.0
H628 H 0.73149 0.85662 0.41924 0.0
H629 H 0.74665 0.82564 0.41957 0.0
C630 C 0.74237 0.27499 0.00643 0.0
C631 C 0.73744 0.24976 0.98473 0.0
C632 C 0.71773 0.27831 0.02739 0.0
C633 C 0.68774 0.25575 0.02651 0.0
C634 C 0.68253 0.23039 0.00411 0.0
C635 C 0.70755 0.22771 0.98345 0.0
C636 C 0.72413 0.30567 0.05085 0.0
C637 C 0.65095 0.20588 0.0024 0.0
C638 C 0.64358 0.25172 0.09826 0.0
C639 C 0.61324 0.26095 0.09237 0.0
C640 C 0.66827 0.25021 0.07713 0.0
C641 C 0.66241 0.25825 0.04958 0.0
C642 C 0.63187 0.2679 0.04377 0.0
C643 C 0.60757 0.26911 0.0653 0.0
C644 C 0.70044 0.23977 0.08415 0.0
C645 C 0.6247 0.27669 0.01474 0.0
H646 H 0.76574 0.29194 0.00729 0.0
H647 H 0.70405 0.20818 0.96659 0.0
H648 H 0.70047 0.31427 0.04979 0.0
H649 H 0.72813 0.30212 0.07396 0.0
H650 H 0.74783 0.32153 0.04765 0.0
H651 H 0.65018 0.18797 0.98302 0.0
H652 H 0.65196 0.19868 0.02377 0.0
H653 H 0.62577 0.21235 1.00002 0.0
H654 H 0.64781 0.24557 0.11938 0.0
H655 H 0.58401 0.27631 0.06099 0.0
H656 H 0.72522 0.25573 0.08344 0.0
H657 H 0.70009 0.22061 0.06664 0.0
H658 H 0.70142 0.23485 0.10683 0.0
H659 H 0.64766 0.29347 0.01217 0.0
H660 H 0.60026 0.28442 0.01409 0.0
H661 H 0.62163 0.25873 0.99492 0.0
C662 C 0.25553 0.83919 0.68816 0.0
C663 C 0.28169 0.82552 0.69366 0.0
C664 C 0.26412 0.86402 0.67814 0.0
C665 C 0.29977 0.87532 0.67357 0.0
C666 C 0.32654 0.86195 0.68018 0.0
C667 C 0.3171 0.83701 0.69007 0.0
C668 C 0.23476 0.87753 0.67129 0.0
C669 C 0.36484 0.87345 0.67576 0.0
C670 C 0.30978 0.9194 0.61532 0.0
C671 C 0.31734 0.9465 0.63389 0.0
C672 C 0.30514 0.89606 0.62801 0.0
C673 C 0.30829 0.90004 0.66005 0.0
C674 C 0.31707 0.92755 0.67889 0.0
C675 C 0.32133 0.95051 0.66554 0.0
C676 C 0.29565 0.86712 0.6071 0.0
C677 C 0.32084 0.93265 0.71309 0.0
H678 H 0.22809 0.82999 0.69081 0.0
H679 H 0.33716 0.82612 0.6942 0.0
H680 H 0.2419 0.89986 0.68379 0.0
H681 H 0.23144 0.8769 0.64667 0.0
H682 H 0.20882 0.86691 0.67753 0.0
H683 H 0.38286 0.86199 0.68435 0.0
H684 H 0.36694 0.8719 0.65121 0.0
H685 H 0.37417 0.89594 0.68758 0.0
H686 H 0.30671 0.91651 0.59082 0.0
H687 H 0.32709 0.9716 0.67975 0.0
H688 H 0.26856 0.85558 0.61005 0.0
H689 H 0.31447 0.85511 0.61296 0.0
H690 H 0.29615 0.8677 0.5828 0.0
H691 H 0.29464 0.92438 0.7205 0.0
H692 H 0.33065 0.95526 0.72447 0.0
H693 H 0.33952 0.92134 0.72088 0.0
C694 C 0.76317 0.76353 0.2562 0.0
C695 C 0.78402 0.74576 0.24417 0.0
C696 C 0.74027 0.77186 0.23683 0.0
C697 C 0.73829 0.76194 0.20489 0.0
C698 C 0.76 0.74436 0.19285 0.0
C699 C 0.78265 0.73649 0.21271 0.0
C700 C 0.71765 0.79069 0.25048 0.0
C701 C 0.75864 0.73324 0.159 0.0
C702 C 0.65496 0.75486 0.1524 0.0
C703 C 0.66567 0.77725 0.1386 0.0
C704 C 0.67787 0.75028 0.17484 0.0
C705 C 0.71235 0.76861 0.18387 0.0
C706 C 0.72283 0.79191 0.17096 0.0
C707 C 0.69938 0.79594 0.14843 0.0
C708 C 0.6656 0.72522 0.18808 0.0
C709 C 0.75933 0.81197 0.18007 0.0
H710 H 0.76438 0.77055 0.28067 0.0
H711 H 0.79888 0.72264 0.20363 0.0
H712 H 0.72155 0.80922 0.24056 0.0
H713 H 0.68905 0.77931 0.24495 0.0
H714 H 0.72396 0.79799 0.27559 0.0
H715 H 0.77825 0.72068 0.15333 0.0
H716 H 0.73156 0.71987 0.1495 0.0
H717 H 0.76402 0.7508 0.14756 0.0
H718 H 0.62867 0.74066 0.14539 0.0
H719 H 0.70795 0.81319 0.13778 0.0
H720 H 0.66903 0.73179 0.21327 0.0
H721 H 0.68221 0.71031 0.18158 0.0
H722 H 0.63722 0.71405 0.18008 0.0
H723 H 0.76481 0.81935 0.20518 0.0
H724 H 0.76217 0.83044 0.17008 0.0
H725 H 0.77992 0.80102 0.17239 0.0
C726 C 0.75279 0.17764 0.8315 0.0
C727 C 0.77967 0.20244 0.83485 0.0
C728 C 0.74946 0.15474 0.80664 0.0
C729 C 0.77353 0.15675 0.78463 0.0
C730 C 0.8004 0.18182 0.7877 0.0
C731 C 0.80325 0.20425 0.81279 0.0
C732 C 0.72053 0.12829 0.80413 0.0
C733 C 0.82664 0.18481 0.76474 0.0
C734 C 0.79322 0.09217 0.73621 0.0
C735 C 0.77382 0.08952 0.70812 0.0
C736 C 0.79229 0.11334 0.76161 0.0
C737 C 0.77161 0.13244 0.75881 0.0
C738 C 0.75118 0.12941 0.73074 0.0
C739 C 0.75245 0.10791 0.70572 0.0
C740 C 0.81426 0.11574 0.79121 0.0
C741 C 0.72904 0.1495 0.72682 0.0
H742 H 0.73432 0.17615 0.84831 0.0
H743 H 0.8246 0.22307 0.81549 0.0
H744 H 0.70346 0.12279 0.78202 0.0
H745 H 0.73265 0.11063 0.80479 0.0
H746 H 0.70341 0.13032 0.82273 0.0
H747 H 0.84501 0.20612 0.76977 0.0
H748 H 0.84278 0.1694 0.76447 0.0
H749 H 0.81219 0.18028 0.74159 0.0
H750 H 0.80935 0.07772 0.73826 0.0
H751 H 0.73763 0.10608 0.68399 0.0
H752 H 0.79734 0.11629 0.80998 0.0
H753 H 0.83551 0.13564 0.79693 0.0
H754 H 0.82695 0.09812 0.79018 0.0
H755 H 0.71103 0.15102 0.74474 0.0
H756 H 0.71273 0.14311 0.70422 0.0
H757 H 0.74679 0.17074 0.72934 0.0
C758 C 0.37007 0.28868 0.37027 0.0
C759 C 0.34799 0.26314 0.3726 0.0
C760 C 0.38676 0.29085 0.34406 0.0
C761 C 0.38111 0.26695 0.3196 0.0
C762 C 0.35784 0.24138 0.3214 0.0
C763 C 0.3416 0.23979 0.34789 0.0
C764 C 0.41145 0.31846 0.34298 0.0
C765 C 0.35091 0.21549 0.29571 0.0
C766 C 0.40531 0.27561 0.24177 0.0
C767 C 0.43822 0.26895 0.24175 0.0
C768 C 0.38644 0.2753 0.2671 0.0
C769 C 0.40104 0.26818 0.29283 0.0
C770 C 0.43452 0.26163 0.2928 0.0
C771 C 0.45269 0.26204 0.26715 0.0
C772 C 0.35082 0.28231 0.26626 0.0
C773 C 0.45101 0.25398 0.31976 0.0
H774 H 0.37533 0.30672 0.3894 0.0
H775 H 0.32412 0.22012 0.34942 0.0
H776 H 0.43911 0.31624 0.34227 0.0
H777 H 0.40386 0.3247 0.32202 0.0
H778 H 0.41116 0.33549 0.36299 0.0
H779 H 0.33054 0.19771 0.29996 0.0
H780 H 0.34181 0.22003 0.27411 0.0
H781 H 0.376 0.20896 0.29255 0.0
H782 H 0.39436 0.2809 0.2219 0.0
H783 H 0.47823 0.2569 0.26683 0.0
H784 H 0.35128 0.3001 0.28562 0.0
H785 H 0.32971 0.26418 0.26874 0.0
H786 H 0.34353 0.2879 0.24476 0.0
H787 H 0.45403 0.27105 0.34048 0.0
H788 H 0.47756 0.25005 0.31633 0.0
H789 H 0.43324 0.23489 0.32399 0.0
C790 C 0.83843 0.68422 0.76821 0.0
C791 C 0.82947 0.69998 0.79469 0.0
C792 C 0.85391 0.66196 0.76921 0.0
C793 C 0.86009 0.65497 0.79728 0.0
C794 C 0.85005 0.67014 0.8239 0.0
C795 C 0.83516 0.69258 0.82234 0.0
C796 C 0.86451 0.64641 0.74036 0.0
C797 C 0.8559 0.66316 0.85423 0.0
C798 C 0.87766 0.58412 0.79732 0.0
C799 C 0.91477 0.59146 0.80475 0.0
C800 C 0.85941 0.60455 0.79473 0.0
C801 C 0.87887 0.63284 0.79918 0.0
C802 C 0.91645 0.6402 0.80606 0.0
C803 C 0.9339 0.61945 0.80898 0.0
C804 C 0.8193 0.59598 0.7878 0.0
C805 C 0.93824 0.67002 0.81046 0.0
H806 H 0.83357 0.68939 0.74663 0.0
H807 H 0.82888 0.70481 0.84303 0.0
H808 H 0.89381 0.64923 0.74279 0.0
H809 H 0.85196 0.62365 0.7362 0.0
H810 H 0.85675 0.65377 0.72019 0.0
H811 H 0.84412 0.67551 0.87228 0.0
H812 H 0.84404 0.64056 0.85229 0.0
H813 H 0.88489 0.66741 0.86138 0.0
H814 H 0.86286 0.56249 0.79422 0.0
H815 H 0.96266 0.62507 0.81433 0.0
H816 H 0.81103 0.60215 0.76698 0.0
H817 H 0.80737 0.60705 0.8067 0.0
H818 H 0.80818 0.57307 0.78449 0.0
H819 H 0.93294 0.67786 0.79005 0.0
H820 H 0.96732 0.67208 0.81465 0.0
H821 H 0.93038 0.68372 0.83001 0.0
C822 C 0.84022 0.36433 0.49299 0.0
C823 C 0.83352 0.34261 0.46655 0.0
C824 C 0.86509 0.38998 0.49479 0.0
C825 C 0.88367 0.39385 0.46961 0.0
C826 C 0.87697 0.37198 0.44291 0.0
C827 C 0.8521 0.34667 0.44175 0.0
C828 C 0.87159 0.41287 0.52359 0.0
C829 C 0.89636 0.37519 0.41558 0.0
C830 C 0.92878 0.46394 0.4549 0.0
C831 C 0.96467 0.46478 0.46166 0.0
C832 C 0.90172 0.44191 0.45955 0.0
C833 C 0.91105 0.4203 0.47102 0.0
C834 C 0.94733 0.42217 0.47973 0.0
C835 C 0.97375 0.44434 0.47474 0.0
C836 C 0.86337 0.44067 0.45 0.0
C837 C 0.95845 0.39963 0.49204 0.0
H838 H 0.82572 0.36138 0.51212 0.0
H839 H 0.8475 0.32981 0.42145 0.0
H840 H 0.89995 0.41826 0.5334 0.0
H841 H 0.86629 0.43208 0.51841 0.0
H842 H 0.85455 0.40672 0.54095 0.0
H843 H 0.88754 0.35634 0.39637 0.0
H844 H 0.89192 0.39349 0.40763 0.0
H845 H 0.92548 0.37913 0.42192 0.0
H846 H 0.92199 0.47967 0.44444 0.0
H847 H 0.00164 0.44487 0.47947 0.0
H848 H 0.84637 0.43502 0.46754 0.0
H849 H 0.8534 0.42418 0.42868 0.0
H850 H 0.86025 0.46088 0.44591 0.0
H851 H 0.94204 0.39408 0.50996 0.0
H852 H 0.98702 0.40612 0.50163 0.0
H853 H 0.95412 0.38045 0.47346 0.0
C854 C 0.25281 0.38832 0.84961 0.0
C855 C 0.24812 0.35996 0.83608 0.0
C856 C 0.2248 0.40116 0.8474 0.0
C857 C 0.19137 0.38513 0.83123 0.0
C858 C 0.18649 0.35625 0.81782 0.0
C859 C 0.2151 0.34397 0.82038 0.0
C860 C 0.23113 0.43197 0.862 0.0
C861 C 0.15126 0.33849 0.80046 0.0
C862 C 0.11239 0.41587 0.84769 0.0
C863 C 0.10973 0.4289 0.82362 0.0
C864 C 0.13819 0.40089 0.85003 0.0
C865 C 0.16197 0.39892 0.82779 0.0
C866 C 0.15891 0.41149 0.80308 0.0
C867 C 0.13286 0.42631 0.8013 0.0
C868 C 0.1405 0.38767 0.87663 0.0
C869 C 0.18385 0.40998 0.77897 0.0
H870 H 0.27858 0.40054 0.86171 0.0
H871 H 0.21176 0.32197 0.80993 0.0
H872 H 0.22716 0.44346 0.84438 0.0
H873 H 0.21157 0.43518 0.87828 0.0
H874 H 0.25844 0.44128 0.87429 0.0
H875 H 0.15147 0.3162 0.79227 0.0
H876 H 0.12962 0.33962 0.81508 0.0
H877 H 0.14477 0.34666 0.78058 0.0
H878 H 0.09428 0.41744 0.86479 0.0
H879 H 0.13129 0.43659 0.78284 0.0
H880 H 0.16652 0.39762 0.89091 0.0
H881 H 0.1391 0.36509 0.86842 0.0
H882 H 0.11886 0.38983 0.89107 0.0
H883 H 0.21155 0.42102 0.78937 0.0
H884 H 0.17673 0.41955 0.76038 0.0
H885 H 0.1835 0.38786 0.769 0.0
C886 C 0.21232 0.68746 0.31037 0.0
C887 C 0.2413 0.70742 0.32888 0.0
C888 C 0.19196 0.66555 0.32118 0.0
C889 C 0.20058 0.66372 0.35133 0.0
C890 C 0.22958 0.68389 0.37021 0.0
C891 C 0.24973 0.70538 0.35871 0.0
C892 C 0.16134 0.64429 0.30032 0.0
C893 C 0.2395 0.68267 0.40253 0.0
C894 C 0.12977 0.62047 0.38785 0.0
C895 C 0.14056 0.59563 0.38437 0.0
C896 C 0.14911 0.64293 0.37723 0.0
C897 C 0.17982 0.64026 0.36286 0.0
C898 C 0.19089 0.61517 0.35962 0.0
C899 C 0.17128 0.59323 0.37074 0.0
C900 C 0.13678 0.66949 0.38146 0.0
C901 C 0.22338 0.61148 0.34436 0.0
H902 H 0.20527 0.68911 0.28747 0.0
H903 H 0.27239 0.72044 0.37302 0.0
H904 H 0.16564 0.62303 0.29751 0.0
H905 H 0.13612 0.64406 0.31049 0.0
H906 H 0.15811 0.64868 0.2775 0.0
H907 H 0.26199 0.70055 0.4146 0.0
H908 H 0.2162 0.68267 0.4154 0.0
H909 H 0.24715 0.66292 0.40264 0.0
H910 H 0.1062 0.62225 0.39884 0.0
H911 H 0.17981 0.57407 0.36869 0.0
H912 H 0.131 0.67394 0.35904 0.0
H913 H 0.15825 0.68745 0.39489 0.0
H914 H 0.11248 0.66821 0.39323 0.0
H915 H 0.22029 0.61438 0.32089 0.0
H916 H 0.22805 0.59048 0.34328 0.0
H917 H 0.24737 0.62763 0.35685 0.0
C918 C 0.78072 0.82674 0.72317 0.0
C919 C 0.81357 0.82985 0.73976 0.0
C920 C 0.775 0.8477 0.70901 0.0
C921 C 0.80299 0.87206 0.71143 0.0
C922 C 0.83574 0.87564 0.72933 0.0
C923 C 0.84064 0.85439 0.74327 0.0
C924 C 0.73967 0.84317 0.69029 0.0
C925 C 0.86624 0.90125 0.73246 0.0
C926 C 0.80661 0.90887 0.64673 0.0
C927 C 0.79443 0.93226 0.65913 0.0
C928 C 0.80923 0.88901 0.66346 0.0
C929 C 0.7992 0.89265 0.69326 0.0
C930 C 0.78647 0.91619 0.70573 0.0
C931 C 0.78432 0.93582 0.68848 0.0
C932 C 0.82306 0.86429 0.64936 0.0
C933 C 0.77543 0.92073 0.73732 0.0
H934 H 0.75999 0.80751 0.72035 0.0
H935 H 0.86615 0.8565 0.75596 0.0
H936 H 0.72899 0.86182 0.69668 0.0
H937 H 0.74346 0.84023 0.66589 0.0
H938 H 0.7196 0.82453 0.69312 0.0
H939 H 0.88884 0.90189 0.74911 0.0
H940 H 0.87607 0.90143 0.71008 0.0
H941 H 0.85709 0.92056 0.73973 0.0
H942 H 0.81429 0.90626 0.62394 0.0
H943 H 0.77487 0.95402 0.69789 0.0
H944 H 0.80305 0.84447 0.6488 0.0
H945 H 0.84759 0.86443 0.66338 0.0
H946 H 0.8293 0.86438 0.62584 0.0
H947 H 0.75444 0.90227 0.7392 0.0
H948 H 0.76517 0.93968 0.74334 0.0
H949 H 0.7985 0.92297 0.75421 0.0
C950 C 0.69821 0.25297 0.40671 0.0
C951 C 0.73455 0.26427 0.40555 0.0
C952 C 0.67313 0.24704 0.38085 0.0
C953 C 0.68468 0.25298 0.35347 0.0
C954 C 0.72157 0.26241 0.35165 0.0
C955 C 0.74602 0.26755 0.37757 0.0
C956 C 0.63411 0.23614 0.38341 0.0
C957 C 0.73512 0.2692 0.32302 0.0
C958 C 0.62572 0.23076 0.27756 0.0
C959 C 0.61484 0.25521 0.27671 0.0
C960 C 0.647 0.22914 0.30303 0.0
C961 C 0.65845 0.25273 0.32794 0.0
C962 C 0.64694 0.2772 0.32755 0.0
C963 C 0.62496 0.27799 0.30219 0.0
C964 C 0.65803 0.20246 0.3029 0.0
C965 C 0.65881 0.30297 0.35352 0.0
H966 H 0.68909 0.25032 0.42819 0.0
H967 H 0.77418 0.27559 0.37633 0.0
H968 H 0.62063 0.25329 0.38451 0.0
H969 H 0.62099 0.21923 0.36313 0.0
H970 H 0.63005 0.22798 0.4041 0.0
H971 H 0.76467 0.27414 0.32456 0.0
H972 H 0.72377 0.25143 0.30311 0.0
H973 H 0.72641 0.28754 0.31876 0.0
H974 H 0.61841 0.21305 0.25802 0.0
H975 H 0.61593 0.29668 0.3023 0.0
H976 H 0.65371 0.19627 0.32464 0.0
H977 H 0.6869 0.20588 0.30073 0.0
H978 H 0.64309 0.1849 0.28383 0.0
H979 H 0.65127 0.29774 0.37511 0.0
H980 H 0.64699 0.32015 0.34993 0.0
H981 H 0.68829 0.31075 0.35625 0.0
C982 C 0.31645 0.24141 0.77406 0.0
C983 C 0.3 0.23833 0.80014 0.0
C984 C 0.31645 0.21798 0.7509 0.0
C985 C 0.29941 0.19084 0.75382 0.0
C986 C 0.28145 0.18769 0.7795 0.0
C987 C 0.28208 0.21147 0.80241 0.0
C988 C 0.33602 0.22221 0.72394 0.0
C989 C 0.2626 0.15913 0.78325 0.0
C990 C 0.28007 0.13101 0.68301 0.0
C991 C 0.30864 0.11894 0.68658 0.0
C992 C 0.27642 0.15417 0.70488 0.0
C993 C 0.3021 0.16572 0.73086 0.0
C994 C 0.33085 0.15356 0.73472 0.0
C995 C 0.3337 0.13028 0.71262 0.0
C996 C 0.24534 0.16649 0.70001 0.0
C997 C 0.35881 0.16529 0.76212 0.0
H998 H 0.33073 0.26208 0.77237 0.0
H999 H 0.26908 0.20904 0.82242 0.0
H1000 H 0.35907 0.21281 0.724 0.0
H1001 H 0.31831 0.21144 0.70243 0.0
H1002 H 0.34598 0.24471 0.72414 0.0
H1003 H 0.24775 0.1604 0.8034 0.0
H1004 H 0.24364 0.1474 0.7627 0.0
H1005 H 0.28234 0.1469 0.78583 0.0
H1006 H 0.26087 0.12269 0.66277 0.0
H1007 H 0.35553 0.12087 0.71582 0.0
H1008 H 0.25525 0.18839 0.69806 0.0
H1009 H 0.23009 0.1671 0.71987 0.0
H1010 H 0.22693 0.1544 0.6792 0.0
H1011 H 0.37215 0.18745 0.76304 0.0
H1012 H 0.37943 0.15336 0.76179 0.0
H1013 H 0.34609 0.16497 0.78326 0.0
C1014 C 0.36407 0.79318 0.21342 0.0
C1015 C 0.3563 0.7659 0.21751 0.0
C1016 C 0.38924 0.80146 0.19407 0.0
C1017 C 0.40643 0.78179 0.17843 0.0
C1018 C 0.39915 0.75442 0.18336 0.0
C1019 C 0.37416 0.74685 0.20291 0.0
C1020 C 0.39656 0.83086 0.1896 0.0
C1021 C 0.41673 0.73277 0.16707 0.0
C1022 C 0.43933 0.78557 0.10227 0.0
C1023 C 0.47629 0.79357 0.11027 0.0
C1024 C 0.41614 0.78305 0.1245 0.0
C1025 C 0.4304 0.78891 0.15545 0.0
C1026 C 0.46778 0.79859 0.16372 0.0
C1027 C 0.49036 0.80068 0.14094 0.0
C1028 C 0.37651 0.77252 0.11466 0.0
C1029 C 0.484 0.80531 0.19644 0.0
H1030 H 0.34989 0.80776 0.22471 0.0
H1031 H 0.36776 0.72568 0.2061 0.0
H1032 H 0.42568 0.8406 0.19293 0.0
H1033 H 0.38657 0.83027 0.16595 0.0
H1034 H 0.38356 0.8443 0.20547 0.0
H1035 H 0.40918 0.7128 0.17434 0.0
H1036 H 0.40901 0.72832 0.14218 0.0
H1037 H 0.44616 0.74085 0.17132 0.0
H1038 H 0.42869 0.78017 0.07844 0.0
H1039 H 0.51905 0.8069 0.14694 0.0
H1040 H 0.36209 0.78635 0.12828 0.0
H1041 H 0.3668 0.75132 0.11871 0.0
H1042 H 0.3696 0.77131 0.09018 0.0
H1043 H 0.47018 0.81887 0.21122 0.0
H1044 H 0.5129 0.81594 0.19949 0.0
H1045 H 0.48062 0.78566 0.20428 0.0
C1046 C 0.80843 0.20153 0.5232 0.0
C1047 C 0.7778 0.20624 0.50973 0.0
C1048 C 0.80834 0.17523 0.52851 0.0
C1049 C 0.77677 0.15318 0.52008 0.0
C1050 C 0.74596 0.15775 0.50567 0.0
C1051 C 0.74681 0.1844 0.50074 0.0
C1052 C 0.84172 0.1713 0.54398 0.0
C1053 C 0.7119 0.13473 0.49623 0.0
C1054 C 0.78801 0.07985 0.51603 0.0
C1055 C 0.77946 0.07607 0.54455 0.0
C1056 C 0.78626 0.10455 0.50732 0.0
C1057 C 0.77579 0.12584 0.52773 0.0
C1058 C 0.76636 0.12168 0.55634 0.0
C1059 C 0.76825 0.09675 0.56437 0.0
C1060 C 0.79643 0.10815 0.47664 0.0
C1061 C 0.75522 0.14386 0.57882 0.0
H1062 H 0.83228 0.21867 0.53025 0.0
H1063 H 0.72311 0.1883 0.49045 0.0
H1064 H 0.83651 0.16647 0.56623 0.0
H1065 H 0.84958 0.1533 0.53005 0.0
H1066 H 0.86444 0.1902 0.5479 0.0
H1067 H 0.69105 0.14113 0.48363 0.0
H1068 H 0.71718 0.11582 0.48167 0.0
H1069 H 0.70141 0.12874 0.51665 0.0
H1070 H 0.79655 0.06363 0.50078 0.0
H1071 H 0.76161 0.09357 0.5864 0.0
H1072 H 0.82065 0.1257 0.47966 0.0
H1073 H 0.77482 0.11361 0.46393 0.0
H1074 H 0.80182 0.08896 0.46271 0.0
H1075 H 0.77759 0.16302 0.58582 0.0
H1076 H 0.74722 0.13684 0.59949 0.0
H1077 H 0.73257 0.14969 0.56807 0.0
C1078 C 0.33113 0.2978 0.93704 0.0
C1079 C 0.34093 0.28357 0.91008 0.0
C1080 C 0.34676 0.29716 0.96559 0.0
C1081 C 0.37273 0.28191 0.96717 0.0
C1082 C 0.3825 0.26733 0.94006 0.0
C1083 C 0.36661 0.26843 0.91189 0.0
C1084 C 0.33571 0.31299 0.99403 0.0
C1085 C 0.41011 0.25082 0.94078 0.0
C1086 C 0.44066 0.2996 0.03706 0.0
C1087 C 0.42713 0.278 0.0513 0.0
C1088 C 0.42262 0.30164 0.01018 0.0
C1089 C 0.39035 0.2815 0.9971 0.0
C1090 C 0.37606 0.26007 0.01173 0.0
C1091 C 0.39458 0.25861 0.03868 0.0
C1092 C 0.43868 0.32484 0.99528 0.0
C1093 C 0.3417 0.23822 0.99848 0.0
H1094 H 0.31109 0.30934 0.93581 0.0
H1095 H 0.37487 0.25784 0.89121 0.0
H1096 H 0.3255 0.2985 0.00847 0.0
H1097 H 0.35917 0.32906 0.00754 0.0
H1098 H 0.31477 0.32351 0.9889 0.0
H1099 H 0.41401 0.24005 0.91766 0.0
H1100 H 0.43604 0.26498 0.95226 0.0
H1101 H 0.40206 0.23489 0.9541 0.0
H1102 H 0.46599 0.31448 0.04641 0.0
H1103 H 0.38364 0.24213 0.0498 0.0
H1104 H 0.41878 0.33647 0.99095 0.0
H1105 H 0.4464 0.31577 0.97294 0.0
H1106 H 0.46265 0.33987 0.00937 0.0
H1107 H 0.3201 0.24844 0.99455 0.0
H1108 H 0.33319 0.22383 0.01347 0.0
H1109 H 0.34507 0.22564 0.9761 0.0
C1110 C 0.33647 0.82718 0.34789 0.0
C1111 C 0.30242 0.809 0.34511 0.0
C1112 C 0.34583 0.85324 0.36919 0.0
C1113 C 0.3207 0.86099 0.38834 0.0
C1114 C 0.28592 0.84317 0.38475 0.0
C1115 C 0.27712 0.81766 0.36296 0.0
C1116 C 0.38288 0.87203 0.37188 0.0
C1117 C 0.25827 0.85054 0.40471 0.0
C1118 C 0.34698 0.90879 0.46733 0.0
C1119 C 0.33635 0.93247 0.46332 0.0
C1120 C 0.34399 0.88586 0.44266 0.0
C1121 C 0.33068 0.88695 0.41325 0.0
C1122 C 0.32235 0.91168 0.4088 0.0
C1123 C 0.32484 0.93403 0.43399 0.0
C1124 C 0.35262 0.85975 0.44849 0.0
C1125 C 0.30893 0.91395 0.37773 0.0
H1126 H 0.35615 0.82066 0.33417 0.0
H1127 H 0.25042 0.80412 0.36032 0.0
H1128 H 0.38162 0.89373 0.37197 0.0
H1129 H 0.39808 0.87283 0.39372 0.0
H1130 H 0.39773 0.8646 0.35303 0.0
H1131 H 0.23236 0.83445 0.39879 0.0
H1132 H 0.26802 0.85278 0.42888 0.0
H1133 H 0.2537 0.87092 0.40268 0.0
H1134 H 0.3557 0.90755 0.49006 0.0
H1135 H 0.31697 0.95252 0.4309 0.0
H1136 H 0.37022 0.85231 0.43211 0.0
H1137 H 0.32765 0.84282 0.44514 0.0
H1138 H 0.36584 0.86319 0.47194 0.0
H1139 H 0.32532 0.90602 0.36046 0.0
H1140 H 0.30924 0.93585 0.37726 0.0
H1141 H 0.28115 0.90086 0.37104 0.0
C1142 C 0.75759 0.78898 0.85245 0.0
C1143 C 0.75095 0.76218 0.83311 0.0
C1144 C 0.73587 0.79476 0.87532 0.0
C1145 C 0.70679 0.77325 0.87879 0.0
C1146 C 0.69898 0.74656 0.85837 0.0
C1147 C 0.72117 0.74134 0.83582 0.0
C1148 C 0.74505 0.82349 0.89664 0.0
C1149 C 0.66801 0.72314 0.86111 0.0
C1150 C 0.67566 0.77446 0.95655 0.0
C1151 C 0.64457 0.78345 0.9535 0.0
C1152 C 0.69659 0.77166 0.93258 0.0
C1153 C 0.68597 0.77795 0.90497 0.0
C1154 C 0.65481 0.78757 0.90211 0.0
C1155 C 0.63443 0.79023 0.92652 0.0
C1156 C 0.72964 0.76141 0.93658 0.0
C1157 C 0.64258 0.79441 0.87308 0.0
H1158 H 0.78074 0.80508 0.85061 0.0
H1159 H 0.7157 0.72069 0.82065 0.0
H1160 H 0.72116 0.83188 0.89822 0.0
H1161 H 0.75404 0.82203 0.91981 0.0
H1162 H 0.76649 0.83855 0.8893 0.0
H1163 H 0.66402 0.70426 0.84214 0.0
H1164 H 0.67272 0.71717 0.88285 0.0
H1165 H 0.64308 0.73019 0.86149 0.0
H1166 H 0.68324 0.76926 0.97757 0.0
H1167 H 0.61022 0.79713 0.92441 0.0
H1168 H 0.75316 0.77646 0.93186 0.0
H1169 H 0.72667 0.7411 0.92005 0.0
H1170 H 0.73497 0.75855 0.95987 0.0
H1171 H 0.66432 0.80993 0.86676 0.0
H1172 H 0.61875 0.8029 0.87505 0.0
H1173 H 0.636 0.77526 0.85424 0.0
loop_
_geom_bond_atom_site_label_1
_geom_bond_atom_site_label_2
_geom_bond_distance
_geom_bond_site_symmetry_2
_ccdc_geom_bond_type
H0 C3 0.929 . S
H1 C6 0.929 . S
H2 C8 0.930 . S
C3 H0 0.929 . S
C3 C4 1.398 . S
C3 C5 1.396 . S
C4 C3 1.398 . S
C4 C8 1.407 . S
C5 C3 1.396 . S
C5 C6 1.394 . S
C6 H1 0.929 . S
C6 C5 1.394 . S
C6 C7 1.382 . S
C7 C6 1.382 . S
C7 C8 1.392 . S
C7 N9 1.420 . S
C8 H2 0.930 . S
C8 C4 1.407 . S
C8 C7 1.392 . S
N9 C7 1.420 . S
N9 C10 1.244 . S
C10 N9 1.244 . S
H11 C14 0.929 . S
H12 C17 0.929 . S
H13 C19 0.930 . S
C14 H11 0.929 . S
C14 C15 1.398 . S
C14 C16 1.396 . S
C15 C14 1.398 . S
C15 C19 1.407 . S
C16 C14 1.396 . S
C16 C17 1.394 . S
C17 H12 0.929 . S
C17 C16 1.394 . S
C17 C18 1.382 . S
C18 C17 1.382 . S
C18 C19 1.392 . S
C18 N20 1.420 . S
C19 H13 0.930 . S
C19 C15 1.407 . S
C19 C18 1.392 . S
N20 C18 1.420 . S
N20 C21 1.244 . S
C21 N20 1.244 . S
H22 C25 0.929 . S
H23 C28 0.929 . S
H24 C30 0.930 . S
C25 H22 0.929 . S
C25 C26 1.398 . S
C25 C27 1.396 . S
C26 C25 1.398 . S
C26 C30 1.407 . S
C27 C25 1.396 . S
C27 C28 1.394 . S
C28 H23 0.929 . S
C28 C27 1.394 . S
C28 C29 1.382 . S
C29 C28 1.382 . S
C29 C30 1.392 . S
C29 N31 1.420 . S
C30 H24 0.930 . S
C30 C26 1.407 . S
C30 C29 1.392 . S
N31 C29 1.420 . S
N31 C32 1.244 . S
C32 N31 1.244 . S
H33 C36 0.929 . S
H34 C39 0.929 . S
H35 C41 0.930 . S
C36 H33 0.929 . S
C36 C37 1.398 . S
C36 C38 1.396 . S
C37 C36 1.398 . S
C37 C41 1.407 . S
C38 C36 1.396 . S
C38 C39 1.394 . S
C39 H34 0.929 . S
C39 C38 1.394 . S
C39 C40 1.382 . S
C40 C39 1.382 . S
C40 C41 1.392 . S
C40 N42 1.420 . S
C41 H35 0.930 . S
C41 C37 1.407 . S
C41 C40 1.392 . S
N42 C40 1.420 . S
N42 C43 1.244 . S
C43 N42 1.244 . S
H44 C47 0.929 . S
H45 C50 0.929 . S
H46 C52 0.930 . S
C47 H44 0.929 . S
C47 C48 1.398 . S
C47 C49 1.396 . S
C48 C47 1.398 . S
C48 C52 1.407 . S
C49 C47 1.396 . S
C49 C50 1.394 . S
C50 H45 0.929 . S
C50 C49 1.394 . S
C50 C51 1.382 . S
C51 C50 1.382 . S
C51 C52 1.392 . S
C51 N53 1.420 . S
C52 H46 0.930 . S
C52 C48 1.407 . S
C52 C51 1.392 . S
N53 C51 1.420 . S
N53 C54 1.244 . S
C54 N53 1.244 . S
H55 C58 0.929 . S
H56 C61 0.929 . S
H57 C63 0.930 . S
C58 H55 0.929 . S
C58 C59 1.398 . S
C58 C60 1.396 . S
C59 C58 1.398 . S
C59 C63 1.407 . S
C60 C58 1.396 . S
C60 C61 1.394 . S
C61 H56 0.929 . S
C61 C60 1.394 . S
C61 C62 1.382 . S
C62 C61 1.382 . S
C62 C63 1.392 . S
C62 N64 1.420 . S
C63 H57 0.930 . S
C63 C59 1.407 . S
C63 C62 1.392 . S
N64 C62 1.420 . S
N64 C65 1.244 . S
C65 N64 1.244 . S
H66 C69 0.929 . S
H67 C72 0.929 . S
H68 C74 0.930 . S
C69 H66 0.929 . S
C69 C70 1.398 . S
C69 C71 1.396 . S
C70 C69 1.398 . S
C70 C74 1.407 . S
C71 C69 1.396 . S
C71 C72 1.394 . S
C72 H67 0.929 . S
C72 C71 1.394 . S
C72 C73 1.382 . S
C73 C72 1.382 . S
C73 C74 1.392 . S
C73 N75 1.420 . S
C74 H68 0.930 . S
C74 C70 1.407 . S
C74 C73 1.392 . S
N75 C73 1.420 . S
N75 C76 1.244 . S
C76 N75 1.244 . S
H77 C80 0.929 . S
H78 C83 0.929 . S
H79 C85 0.930 . S
C80 H77 0.929 . S
C80 C81 1.398 . S
C80 C82 1.396 . S
C81 C80 1.398 . S
C81 C85 1.407 . S
C82 C80 1.396 . S
C82 C83 1.394 . S
C83 H78 0.929 . S
C83 C82 1.394 . S
C83 C84 1.382 . S
C84 C83 1.382 . S
C84 C85 1.392 . S
C84 N86 1.420 . S
C85 H79 0.930 . S
C85 C81 1.407 . S
C85 C84 1.392 . S
N86 C84 1.420 . S
N86 C87 1.244 . S
C87 N86 1.244 . S
C88 C89 1.443 . S
C88 N92 1.376 . S
C88 C126 1.389 . S
C89 C88 1.443 . S
C89 C90 1.340 . S
C89 H129 0.951 . S
C90 C89 1.340 . S
C90 C91 1.439 . S
C90 H130 0.950 . S
C91 C90 1.439 . S
C91 N92 1.374 . S
C91 C125 1.395 . S
N92 C88 1.376 . S
N92 C91 1.374 . S
N92 Co93 2.008 . S
Co93 N92 2.008 . S
Co93 N94 1.995 . S
Co93 N99 2.008 . S
Co93 N104 1.995 . S
Co93 N109 2.282 . S
Co93 N115 2.282 . S
N94 Co93 1.995 . S
N94 C95 1.376 . S
N94 C98 1.383 . S
C95 N94 1.376 . S
C95 C96 1.446 . S
C95 C125 1.391 . S
C96 C95 1.446 . S
C96 C97 1.339 . S
C96 H131 0.949 . S
C97 C96 1.339 . S
C97 C98 1.439 . S
C97 H132 0.949 . S
C98 N94 1.383 . S
C98 C97 1.439 . S
C98 C127 1.392 . S
N99 Co93 2.008 . S
N99 C100 1.376 . S
N99 C103 1.374 . S
C100 N99 1.376 . S
C100 C101 1.443 1_455 S
C100 C127 1.389 . S
C101 C100 1.443 1_655 S
C101 C102 1.340 . S
C101 H133 0.951 . S
C102 C101 1.340 . S
C102 C103 1.439 1_655 S
C102 H134 0.950 . S
C103 N99 1.374 . S
C103 C102 1.439 1_455 S
C103 C128 1.395 . S
N104 Co93 1.995 . S
N104 C105 1.376 . S
N104 C108 1.383 . S
C105 N104 1.376 . S
C105 C106 1.446 . S
C105 C128 1.391 . S
C106 C105 1.446 . S
C106 C107 1.339 . S
C106 H135 0.949 . S
C107 C106 1.339 . S
C107 C108 1.439 . S
C107 H136 0.950 . S
C108 N104 1.383 . S
C108 C107 1.439 . S
C108 C126 1.392 . S
N109 Co93 2.282 . S
N109 C112 1.332 . S
N109 C114 1.332 . S
C110 C111 1.386 . S
C110 C113 1.388 . S
C111 C110 1.386 . S
C111 C112 1.382 . S
C111 H137 0.950 . S
C112 N109 1.332 . S
C112 C111 1.382 . S
C112 H123 0.952 . S
C113 C110 1.388 . S
C113 C114 1.382 . S
C113 H138 0.950 . S
C114 N109 1.332 . S
C114 C113 1.382 . S
C114 H124 0.948 . S
N115 Co93 2.282 . S
N115 C119 1.332 . S
N115 C120 1.332 . S
C116 C117 1.388 . S
C116 C120 1.382 1_655 S
C116 H139 0.950 . S
C117 C116 1.388 . S
C117 C118 1.386 . S
C118 C117 1.386 . S
C118 C119 1.382 1_655 S
C118 H140 0.950 . S
C119 N115 1.332 . S
C119 C118 1.382 1_455 S
C119 H121 0.952 . S
C120 N115 1.332 . S
C120 C116 1.382 1_455 S
C120 H122 0.948 . S
H121 C119 0.952 . S
H122 C120 0.948 . S
H123 C112 0.952 . S
H124 C114 0.948 . S
C125 C91 1.395 . S
C125 C95 1.391 . S
C126 C88 1.389 . S
C126 C108 1.392 . S
C127 C98 1.392 . S
C127 C100 1.389 . S
C128 C103 1.395 . S
C128 C105 1.391 . S
H129 C89 0.951 . S
H130 C90 0.950 . S
H131 C96 0.949 . S
H132 C97 0.949 . S
H133 C101 0.951 . S
H134 C102 0.950 . S
H135 C106 0.949 . S
H136 C107 0.950 . S
H137 C111 0.950 . S
H138 C113 0.950 . S
H139 C116 0.950 . S
H140 C118 0.950 . S
C141 C142 1.443 . S
C141 N145 1.376 . S
C141 C179 1.389 . S
C142 C141 1.443 . S
C142 C143 1.340 . S
C142 H182 0.951 . S
C143 C142 1.340 . S
C143 C144 1.439 . S
C143 H183 0.950 . S
C144 C143 1.439 . S
C144 N145 1.374 . S
C144 C178 1.395 . S
N145 C141 1.376 . S
N145 C144 1.374 . S
N145 Co146 2.008 . S
Co146 N145 2.008 . S
Co146 N147 1.995 1_455 S
Co146 N152 2.008 1_455 S
Co146 N157 1.995 . S
Co146 N162 2.282 . S
Co146 N168 2.282 1_455 S
N147 Co146 1.995 1_655 S
N147 C148 1.376 . S
N147 C151 1.383 . S
C148 N147 1.376 . S
C148 C149 1.446 . S
C148 C178 1.391 1_655 S
C149 C148 1.446 . S
C149 C150 1.339 . S
C149 H184 0.949 . S
C150 C149 1.339 . S
C150 C151 1.439 . S
C150 H185 0.950 . S
C151 N147 1.383 . S
C151 C150 1.439 . S
C151 C180 1.392 . S
N152 Co146 2.008 1_655 S
N152 C153 1.376 . S
N152 C156 1.374 . S
C153 N152 1.376 . S
C153 C154 1.443 . S
C153 C180 1.389 . S
C154 C153 1.443 . S
C154 C155 1.340 . S
C154 H186 0.951 . S
C155 C154 1.340 . S
C155 C156 1.439 . S
C155 H187 0.950 . S
C156 N152 1.374 . S
C156 C155 1.439 . S
C156 C181 1.395 . S
N157 Co146 1.995 . S
N157 C158 1.376 . S
N157 C161 1.383 . S
C158 N157 1.376 . S
C158 C159 1.446 . S
C158 C181 1.391 1_455 S
C159 C158 1.446 . S
C159 C160 1.339 . S
C159 H188 0.949 . S
C160 C159 1.339 . S
C160 C161 1.439 . S
C160 H189 0.950 . S
C161 N157 1.383 . S
C161 C160 1.439 . S
C161 C179 1.392 . S
N162 Co146 2.282 . S
N162 C165 1.332 . S
N162 C167 1.332 . S
C163 C164 1.386 . S
C163 C166 1.388 . S
C164 C163 1.386 . S
C164 C165 1.382 . S
C164 H190 0.950 . S
C165 N162 1.332 . S
C165 C164 1.382 . S
C165 H176 0.952 . S
C166 C163 1.388 . S
C166 C167 1.382 . S
C166 H191 0.950 . S
C167 N162 1.332 . S
C167 C166 1.382 . S
C167 H177 0.948 . S
N168 Co146 2.282 1_655 S
N168 C172 1.332 . S
N168 C173 1.332 . S
C169 C170 1.388 . S
C169 C173 1.382 . S
C169 H192 0.950 . S
C170 C169 1.388 . S
C170 C171 1.386 . S
C171 C170 1.386 . S
C171 C172 1.382 . S
C171 H193 0.950 . S
C172 N168 1.332 . S
C172 C171 1.382 . S
C172 H174 0.952 . S
C173 N168 1.332 . S
C173 C169 1.382 . S
C173 H175 0.948 . S
H174 C172 0.952 . S
H175 C173 0.948 . S
H176 C165 0.952 . S
H177 C167 0.948 . S
C178 C144 1.395 . S
C178 C148 1.391 1_455 S
C179 C141 1.389 . S
C179 C161 1.392 . S
C180 C151 1.392 . S
C180 C153 1.389 . S
C181 C156 1.395 . S
C181 C158 1.391 1_655 S
H182 C142 0.951 . S
H183 C143 0.950 . S
H184 C149 0.949 . S
H185 C150 0.950 . S
H186 C154 0.951 . S
H187 C155 0.950 . S
H188 C159 0.949 . S
H189 C160 0.950 . S
H190 C164 0.950 . S
H191 C166 0.950 . S
H192 C169 0.950 . S
H193 C171 0.950 . S
C194 C195 1.443 . S
C194 N198 1.376 1_565 S
C194 C232 1.389 . S
C195 C194 1.443 . S
C195 C196 1.340 1_565 S
C195 H235 0.951 . S
C196 C195 1.340 1_545 S
C196 C197 1.439 . S
C196 H236 0.950 . S
C197 C196 1.439 . S
C197 N198 1.374 . S
C197 C231 1.395 . S
N198 C194 1.376 1_545 S
N198 C197 1.374 . S
N198 Co199 2.008 . S
Co199 N198 2.008 . S
Co199 N200 1.995 . S
Co199 N205 2.008 . S
Co199 N210 1.995 . S
Co199 N215 2.282 . S
Co199 N221 2.282 1_545 S
N200 Co199 1.995 . S
N200 C201 1.376 . S
N200 C204 1.383 . S
C201 N200 1.376 . S
C201 C202 1.446 . S
C201 C231 1.391 . S
C202 C201 1.446 . S
C202 C203 1.339 . S
C202 H237 0.949 . S
C203 C202 1.339 . S
C203 C204 1.439 . S
C203 H238 0.950 . S
C204 N200 1.383 . S
C204 C203 1.439 . S
C204 C233 1.392 . S
N205 Co199 2.008 . S
N205 C206 1.376 . S
N205 C209 1.374 . S
C206 N205 1.376 . S
C206 C207 1.443 . S
C206 C233 1.389 . S
C207 C206 1.443 . S
C207 C208 1.340 . S
C207 H239 0.951 . S
C208 C207 1.340 . S
C208 C209 1.439 . S
C208 H240 0.950 . S
C209 N205 1.374 . S
C209 C208 1.439 . S
C209 C234 1.395 . S
N210 Co199 1.995 . S
N210 C211 1.375 . S
N210 C214 1.383 1_545 S
C211 N210 1.375 . S
C211 C212 1.441 1_545 S
C211 C234 1.396 . S
C212 C211 1.441 1_565 S
C212 C213 1.339 . S
C212 H241 0.949 . S
C213 C212 1.339 . S
C213 C214 1.439 . S
C213 H242 0.950 . S
C214 N210 1.383 1_565 S
C214 C213 1.439 . S
C214 C232 1.392 . S
N215 Co199 2.282 . S
N215 C218 1.332 . S
N215 C220 1.332 . S
C216 C217 1.386 . S
C216 C219 1.388 . S
C217 C216 1.386 . S
C217 C218 1.382 . S
C217 H243 0.950 . S
C218 N215 1.332 . S
C218 C217 1.382 . S
C218 H229 0.952 . S
C219 C216 1.388 . S
C219 C220 1.382 . S
C219 H244 0.950 . S
C220 N215 1.332 . S
C220 C219 1.382 . S
C220 H230 0.948 . S
N221 Co199 2.282 1_565 S
N221 C225 1.332 . S
N221 C226 1.332 . S
C222 C223 1.388 . S
C222 C226 1.382 . S
C222 H245 0.950 . S
C223 C222 1.388 . S
C223 C224 1.386 . S
C224 C223 1.386 . S
C224 C225 1.382 . S
C224 H246 0.950 . S
C225 N221 1.332 . S
C225 C224 1.382 . S
C225 H227 0.952 1_565 S
C226 N221 1.332 . S
C226 C222 1.382 . S
C226 H228 0.948 . S
H227 C225 0.952 1_545 S
H228 C226 0.948 . S
H229 C218 0.952 . S
H230 C220 0.948 . S
C231 C197 1.395 . S
C231 C201 1.391 . S
C232 C194 1.389 . S
C232 C214 1.392 . S
C233 C204 1.392 . S
C233 C206 1.389 . S
C234 C209 1.395 . S
C234 C211 1.396 . S
H235 C195 0.951 . S
H236 C196 0.950 . S
H237 C202 0.949 . S
H238 C203 0.950 . S
H239 C207 0.951 . S
H240 C208 0.950 . S
H241 C212 0.949 . S
H242 C213 0.950 . S
H243 C217 0.950 . S
H244 C219 0.950 . S
H245 C222 0.950 . S
H246 C224 0.950 . S
C247 C248 1.443 . S
C247 N251 1.376 . S
C247 C285 1.389 . S
C248 C247 1.443 . S
C248 C249 1.340 . S
C248 H288 0.951 . S
C249 C248 1.340 . S
C249 C250 1.439 . S
C249 H289 0.950 . S
C250 C249 1.439 . S
C250 N251 1.374 . S
C250 C284 1.395 . S
N251 C247 1.376 . S
N251 C250 1.374 . S
N251 Co252 2.016 . S
Co252 N251 2.016 . S
Co252 N253 1.988 1_554 S
Co252 N258 2.000 1_554 S
Co252 N263 2.001 . S
Co252 N268 2.273 1_554 S
Co252 N274 2.292 . S
N253 Co252 1.988 1_556 S
N253 C254 1.374 1_556 S
N253 C257 1.383 . S
C254 N253 1.374 1_554 S
C254 C255 1.436 1_554 S
C254 C284 1.401 . S
C255 C254 1.436 1_556 S
C255 C256 1.339 . S
C255 H290 0.949 . S
C256 C255 1.339 . S
C256 C257 1.439 . S
C256 H291 0.950 . S
C257 N253 1.383 . S
C257 C256 1.439 . S
C257 C286 1.392 . S
N258 Co252 2.000 1_556 S
N258 C259 1.376 . S
N258 C262 1.374 . S
C259 N258 1.376 . S
C259 C260 1.443 . S
C259 C286 1.389 . S
C260 C259 1.443 . S
C260 C261 1.340 . S
C260 H292 0.951 . S
C261 C260 1.340 . S
C261 C262 1.439 . S
C261 H293 0.950 . S
C262 N258 1.374 . S
C262 C261 1.439 . S
C262 C287 1.395 . S
N263 Co252 2.001 . S
N263 C264 1.378 . S
N263 C267 1.383 . S
C264 N263 1.378 . S
C264 C265 1.455 . S
C264 C287 1.382 1_554 S
C265 C264 1.455 . S
C265 C266 1.339 . S
C265 H294 0.949 . S
C266 C265 1.339 . S
C266 C267 1.439 . S
C266 H295 0.950 . S
C267 N263 1.383 . S
C267 C266 1.439 . S
C267 C285 1.392 . S
N268 Co252 2.273 1_556 S
N268 C271 1.332 . S
N268 C273 1.332 . S
C269 C270 1.386 . S
C269 C272 1.388 . S
C270 C269 1.386 . S
C270 C271 1.382 . S
C270 H296 0.950 . S
C271 N268 1.332 . S
C271 C270 1.382 . S
C271 H282 0.952 . S
C272 C269 1.388 . S
C272 C273 1.382 . S
C272 H297 0.950 . S
C273 N268 1.332 . S
C273 C272 1.382 . S
C273 H283 0.948 . S
N274 Co252 2.292 . S
N274 C278 1.332 . S
N274 C279 1.332 . S
C275 C276 1.388 . S
C275 C279 1.382 . S
C275 H298 0.950 . S
C276 C275 1.388 . S
C276 C277 1.386 . S
C277 C276 1.386 . S
C277 C278 1.382 . S
C277 H299 0.950 . S
C278 N274 1.332 . S
C278 C277 1.382 . S
C278 H280 0.952 . S
C279 N274 1.332 . S
C279 C275 1.382 . S
C279 H281 0.948 . S
H280 C278 0.952 . S
H281 C279 0.948 . S
H282 C271 0.952 . S
H283 C273 0.948 . S
C284 C250 1.395 . S
C284 C254 1.401 . S
C285 C247 1.389 . S
C285 C267 1.392 . S
C286 C257 1.392 . S
C286 C259 1.389 . S
C287 C262 1.395 . S
C287 C264 1.382 1_556 S
H288 C248 0.951 . S
H289 C249 0.950 . S
H290 C255 0.949 . S
H291 C256 0.950 . S
H292 C260 0.951 . S
H293 C261 0.950 . S
H294 C265 0.949 . S
H295 C266 0.950 . S
H296 C270 0.950 . S
H297 C272 0.950 . S
H298 C275 0.950 . S
H299 C277 0.950 . S
C300 C301 1.443 . S
C300 N304 1.376 1_565 S
C300 C338 1.389 . S
C301 C300 1.443 . S
C301 C302 1.340 1_565 S
C301 H341 0.951 . S
C302 C301 1.340 1_545 S
C302 C303 1.439 . S
C302 H342 0.950 1_655 S
C303 C302 1.439 . S
C303 N304 1.374 . S
C303 C337 1.395 . S
N304 C300 1.376 1_545 S
N304 C303 1.374 . S
N304 Co305 2.008 . S
Co305 N304 2.008 . S
Co305 N306 1.995 . S
Co305 N311 2.008 . S
Co305 N316 1.995 . S
Co305 N321 2.282 . S
Co305 N327 2.282 . S
N306 Co305 1.995 . S
N306 C307 1.376 . S
N306 C310 1.383 . S
C307 N306 1.376 . S
C307 C308 1.446 . S
C307 C337 1.391 . S
C308 C307 1.446 . S
C308 C309 1.339 . S
C308 H343 0.949 1_655 S
C309 C308 1.339 . S
C309 C310 1.439 . S
C309 H344 0.950 . S
C310 N306 1.383 . S
C310 C309 1.439 . S
C310 C339 1.392 . S
N311 Co305 2.008 . S
N311 C312 1.376 . S
N311 C315 1.374 . S
C312 N311 1.376 . S
C312 C313 1.443 . S
C312 C339 1.389 . S
C313 C312 1.443 . S
C313 C314 1.340 . S
C313 H345 0.951 . S
C314 C313 1.340 . S
C314 C315 1.439 . S
C314 H346 0.950 . S
C315 N311 1.374 . S
C315 C314 1.439 . S
C315 C340 1.395 . S
N316 Co305 1.995 . S
N316 C317 1.376 . S
N316 C320 1.383 1_545 S
C317 N316 1.376 . S
C317 C318 1.446 1_545 S
C317 C340 1.391 . S
C318 C317 1.446 1_565 S
C318 C319 1.339 . S
C318 H347 0.949 . S
C319 C318 1.339 . S
C319 C320 1.439 . S
C319 H348 0.950 . S
C320 N316 1.383 1_565 S
C320 C319 1.439 . S
C320 C338 1.392 . S
N321 Co305 2.282 . S
N321 C324 1.332 . S
N321 C326 1.332 . S
C322 C323 1.386 . S
C322 C325 1.388 . S
C323 C322 1.386 . S
C323 C324 1.382 . S
C323 H349 0.950 . S
C324 N321 1.332 . S
C324 C323 1.382 . S
C324 H335 0.952 . S
C325 C322 1.388 . S
C325 C326 1.382 . S
C325 H350 0.950 . S
C326 N321 1.332 . S
C326 C325 1.382 . S
C326 H336 0.948 . S
N327 Co305 2.282 . S
N327 C331 1.332 . S
N327 C332 1.332 1_545 S
C328 C329 1.388 . S
C328 C332 1.382 . S
C328 H351 0.950 . S
C329 C328 1.388 . S
C329 C330 1.386 . S
C330 C329 1.386 . S
C330 C331 1.382 1_565 S
C330 H352 0.950 . S
C331 N327 1.332 . S
C331 C330 1.382 1_545 S
C331 H333 0.952 . S
C332 N327 1.332 1_565 S
C332 C328 1.382 . S
C332 H334 0.948 . S
H333 C331 0.952 . S
H334 C332 0.948 . S
H335 C324 0.952 . S
H336 C326 0.948 . S
C337 C303 1.395 . S
C337 C307 1.391 . S
C338 C300 1.389 . S
C338 C320 1.392 . S
C339 C310 1.392 . S
C339 C312 1.389 . S
C340 C315 1.395 . S
C340 C317 1.391 . S
H341 C301 0.951 . S
H342 C302 0.950 1_455 S
H343 C308 0.949 1_455 S
H344 C309 0.950 . S
H345 C313 0.951 . S
H346 C314 0.950 . S
H347 C318 0.949 . S
H348 C319 0.950 . S
H349 C323 0.950 . S
H350 C325 0.950 . S
H351 C328 0.950 . S
H352 C330 0.950 . S
C353 C354 1.443 . S
C353 N357 1.376 . S
C353 C391 1.389 . S
C354 C353 1.443 . S
C354 C355 1.340 . S
C354 H394 0.951 . S
C355 C354 1.340 . S
C355 C356 1.439 . S
C355 H395 0.950 . S
C356 C355 1.439 . S
C356 N357 1.374 . S
C356 C390 1.395 . S
N357 C353 1.376 . S
N357 C356 1.374 . S
N357 Co358 2.008 . S
Co358 N357 2.008 . S
Co358 N359 1.995 . S
Co358 N364 2.008 . S
Co358 N369 1.995 . S
Co358 N374 2.282 . S
Co358 N380 2.282 . S
N359 Co358 1.995 . S
N359 C360 1.376 . S
N359 C363 1.383 . S
C360 N359 1.376 . S
C360 C361 1.446 . S
C360 C390 1.391 . S
C361 C360 1.446 . S
C361 C362 1.339 . S
C361 H396 0.949 . S
C362 C361 1.339 . S
C362 C363 1.439 . S
C362 H397 0.950 . S
C363 N359 1.383 . S
C363 C362 1.439 . S
C363 C392 1.392 . S
N364 Co358 2.008 . S
N364 C365 1.376 . S
N364 C368 1.374 . S
C365 N364 1.376 . S
C365 C366 1.443 . S
C365 C392 1.389 . S
C366 C365 1.443 . S
C366 C367 1.340 . S
C366 H398 0.951 . S
C367 C366 1.340 . S
C367 C368 1.439 . S
C367 H399 0.950 . S
C368 N364 1.374 . S
C368 C367 1.439 . S
C368 C393 1.395 . S
N369 Co358 1.995 . S
N369 C370 1.376 . S
N369 C373 1.383 . S
C370 N369 1.376 . S
C370 C371 1.446 . S
C370 C393 1.391 . S
C371 C370 1.446 . S
C371 C372 1.339 . S
C371 H400 0.949 . S
C372 C371 1.339 . S
C372 C373 1.439 . S
C372 H401 0.950 . S
C373 N369 1.383 . S
C373 C372 1.439 . S
C373 C391 1.392 . S
N374 Co358 2.282 . S
N374 C377 1.332 . S
N374 C379 1.332 . S
C375 C376 1.386 . S
C375 C378 1.388 . S
C376 C375 1.386 . S
C376 C377 1.382 . S
C376 H402 0.950 . S
C377 N374 1.332 . S
C377 C376 1.382 . S
C377 H388 0.952 . S
C378 C375 1.388 . S
C378 C379 1.382 . S
C378 H403 0.950 . S
C379 N374 1.332 . S
C379 C378 1.382 . S
C379 H389 0.948 . S
N380 Co358 2.282 . S
N380 C384 1.332 . S
N380 C385 1.332 . S
C381 C382 1.388 . S
C381 C385 1.382 . S
C381 H404 0.950 . S
C382 C381 1.388 . S
C382 C383 1.386 . S
C383 C382 1.386 . S
C383 C384 1.382 . S
C383 H405 0.950 . S
C384 N380 1.332 . S
C384 C383 1.382 . S
C384 H386 0.952 . S
C385 N380 1.332 . S
C385 C381 1.382 . S
C385 H387 0.948 . S
H386 C384 0.952 . S
H387 C385 0.948 . S
H388 C377 0.952 . S
H389 C379 0.948 . S
C390 C356 1.395 . S
C390 C360 1.391 . S
C391 C353 1.389 . S
C391 C373 1.392 . S
C392 C363 1.392 . S
C392 C365 1.389 . S
C393 C368 1.395 . S
C393 C370 1.391 . S
H394 C354 0.951 . S
H395 C355 0.950 . S
H396 C361 0.949 . S
H397 C362 0.950 . S
H398 C366 0.951 . S
H399 C367 0.950 . S
H400 C371 0.949 . S
H401 C372 0.950 . S
H402 C376 0.950 . S
H403 C378 0.950 . S
H404 C381 0.950 . S
H405 C383 0.950 . S
C406 C407 1.391 . S
C406 C408 1.394 . S
C406 H422 0.931 . S
C407 C406 1.391 . S
C407 C411 1.376 . S
C408 C406 1.394 . S
C408 C409 1.369 . S
C408 C412 1.531 . S
C409 C408 1.369 . S
C409 C410 1.410 . S
C409 C417 1.503 . S
C410 C409 1.410 . S
C410 C411 1.392 . S
C410 C413 1.511 . S
C411 C407 1.376 . S
C411 C410 1.392 . S
C411 H423 0.929 . S
C412 C408 1.531 . S
C412 H424 0.960 . S
C412 H425 0.962 . S
C412 H426 0.960 . S
C413 C410 1.511 . S
C413 H427 0.961 . S
C413 H428 0.961 . S
C413 H429 0.961 . S
C414 C415 1.370 . S
C414 C416 1.363 . S
C414 H430 0.931 . S
C415 C414 1.370 . S
C415 C419 1.408 . S
C416 C414 1.363 . S
C416 C417 1.370 . S
C416 C420 1.524 . S
C417 C409 1.503 . S
C417 C416 1.370 . S
C417 C418 1.403 . S
C418 C417 1.403 . S
C418 C419 1.404 . S
C418 C421 1.539 . S
C419 C415 1.408 . S
C419 C418 1.404 . S
C419 H431 0.930 . S
C420 C416 1.524 . S
C420 H432 0.956 . S
C420 H433 0.961 . S
C420 H434 0.961 . S
C421 C418 1.539 . S
C421 H435 0.958 . S
C421 H436 0.961 . S
C421 H437 0.960 . S
H422 C406 0.931 . S
H423 C411 0.929 . S
H424 C412 0.960 . S
H425 C412 0.962 . S
H426 C412 0.960 . S
H427 C413 0.961 . S
H428 C413 0.961 . S
H429 C413 0.961 . S
H430 C414 0.931 . S
H431 C419 0.930 . S
H432 C420 0.956 . S
H433 C420 0.961 . S
H434 C420 0.961 . S
H435 C421 0.958 . S
H436 C421 0.961 . S
H437 C421 0.960 . S
C438 C439 1.391 . S
C438 C440 1.394 . S
C438 H454 0.931 . S
C439 C438 1.391 . S
C439 C443 1.376 . S
C440 C438 1.394 . S
C440 C441 1.369 . S
C440 C444 1.531 . S
C441 C440 1.369 . S
C441 C442 1.410 . S
C441 C449 1.503 . S
C442 C441 1.410 . S
C442 C443 1.392 . S
C442 C445 1.511 . S
C443 C439 1.376 . S
C443 C442 1.392 . S
C443 H455 0.929 . S
C444 C440 1.531 . S
C444 H456 0.960 . S
C444 H457 0.962 . S
C444 H458 0.960 . S
C445 C442 1.511 . S
C445 H459 0.961 . S
C445 H460 0.961 . S
C445 H461 0.961 . S
C446 C447 1.370 . S
C446 C448 1.363 . S
C446 H462 0.931 . S
C447 C446 1.370 . S
C447 C451 1.408 . S
C448 C446 1.363 . S
C448 C449 1.370 . S
C448 C452 1.524 . S
C449 C441 1.503 . S
C449 C448 1.370 . S
C449 C450 1.403 . S
C450 C449 1.403 . S
C450 C451 1.404 . S
C450 C453 1.539 . S
C451 C447 1.408 . S
C451 C450 1.404 . S
C451 H463 0.930 . S
C452 C448 1.524 . S
C452 H464 0.956 . S
C452 H465 0.961 . S
C452 H466 0.961 . S
C453 C450 1.539 . S
C453 H467 0.958 . S
C453 H468 0.961 . S
C453 H469 0.960 . S
H454 C438 0.931 . S
H455 C443 0.929 . S
H456 C444 0.960 . S
H457 C444 0.962 . S
H458 C444 0.960 . S
H459 C445 0.961 . S
H460 C445 0.961 . S
H461 C445 0.961 . S
H462 C446 0.931 . S
H463 C451 0.930 . S
H464 C452 0.956 . S
H465 C452 0.961 . S
H466 C452 0.961 . S
H467 C453 0.958 . S
H468 C453 0.961 . S
H469 C453 0.960 . S
C470 C471 1.391 . S
C470 C472 1.394 . S
C470 H486 0.931 . S
C471 C470 1.391 . S
C471 C475 1.376 . S
C472 C470 1.394 . S
C472 C473 1.369 . S
C472 C476 1.531 . S
C473 C472 1.369 . S
C473 C474 1.410 . S
C473 C481 1.503 . S
C474 C473 1.410 . S
C474 C475 1.392 . S
C474 C477 1.511 . S
C475 C471 1.376 . S
C475 C474 1.392 . S
C475 H487 0.929 . S
C476 C472 1.531 . S
C476 H488 0.960 . S
C476 H489 0.962 . S
C476 H490 0.960 . S
C477 C474 1.511 . S
C477 H491 0.961 . S
C477 H492 0.961 . S
C477 H493 0.961 . S
C478 C479 1.370 . S
C478 C480 1.363 . S
C478 H494 0.931 . S
C479 C478 1.370 . S
C479 C483 1.408 . S
C480 C478 1.363 . S
C480 C481 1.370 . S
C480 C484 1.524 . S
C481 C473 1.503 . S
C481 C480 1.370 . S
C481 C482 1.403 . S
C482 C481 1.403 . S
C482 C483 1.404 . S
C482 C485 1.539 . S
C483 C479 1.408 . S
C483 C482 1.404 . S
C483 H495 0.930 . S
C484 C480 1.524 . S
C484 H496 0.956 . S
C484 H497 0.961 . S
C484 H498 0.961 . S
C485 C482 1.539 . S
C485 H499 0.958 . S
C485 H500 0.961 . S
C485 H501 0.960 . S
H486 C470 0.931 . S
H487 C475 0.929 . S
H488 C476 0.960 . S
H489 C476 0.962 . S
H490 C476 0.960 . S
H491 C477 0.961 . S
H492 C477 0.961 . S
H493 C477 0.961 . S
H494 C478 0.931 . S
H495 C483 0.930 . S
H496 C484 0.956 . S
H497 C484 0.961 . S
H498 C484 0.961 . S
H499 C485 0.958 . S
H500 C485 0.961 . S
H501 C485 0.960 . S
C502 C503 1.391 . S
C502 C504 1.394 . S
C502 H518 0.931 . S
C503 C502 1.391 . S
C503 C507 1.376 . S
C504 C502 1.394 . S
C504 C505 1.369 . S
C504 C508 1.531 . S
C505 C504 1.369 . S
C505 C506 1.410 . S
C505 C513 1.503 . S
C506 C505 1.410 . S
C506 C507 1.392 . S
C506 C509 1.511 . S
C507 C503 1.376 . S
C507 C506 1.392 . S
C507 H519 0.929 . S
C508 C504 1.531 . S
C508 H520 0.960 . S
C508 H521 0.962 . S
C508 H522 0.960 . S
C509 C506 1.511 . S
C509 H523 0.961 . S
C509 H524 0.961 . S
C509 H525 0.961 . S
C510 C511 1.370 . S
C510 C512 1.363 . S
C510 H526 0.931 . S
C511 C510 1.370 . S
C511 C515 1.408 . S
C512 C510 1.363 . S
C512 C513 1.370 . S
C512 C516 1.524 . S
C513 C505 1.503 . S
C513 C512 1.370 . S
C513 C514 1.403 . S
C514 C513 1.403 . S
C514 C515 1.404 . S
C514 C517 1.539 . S
C515 C511 1.408 . S
C515 C514 1.404 . S
C515 H527 0.930 . S
C516 C512 1.524 . S
C516 H528 0.956 . S
C516 H529 0.961 . S
C516 H530 0.961 . S
C517 C514 1.539 . S
C517 H531 0.958 . S
C517 H532 0.961 . S
C517 H533 0.960 . S
H518 C502 0.931 . S
H519 C507 0.929 . S
H520 C508 0.960 . S
H521 C508 0.962 . S
H522 C508 0.960 . S
H523 C509 0.961 . S
H524 C509 0.961 . S
H525 C509 0.961 . S
H526 C510 0.931 . S
H527 C515 0.930 . S
H528 C516 0.956 . S
H529 C516 0.961 . S
H530 C516 0.961 . S
H531 C517 0.958 . S
H532 C517 0.961 . S
H533 C517 0.960 . S
C534 C535 1.391 . S
C534 C536 1.394 . S
C534 H550 0.931 . S
C535 C534 1.391 . S
C535 C539 1.376 . S
C536 C534 1.394 . S
C536 C537 1.369 . S
C536 C540 1.531 . S
C537 C536 1.369 . S
C537 C538 1.410 . S
C537 C545 1.503 . S
C538 C537 1.410 . S
C538 C539 1.392 . S
C538 C541 1.511 . S
C539 C535 1.376 . S
C539 C538 1.392 . S
C539 H551 0.929 . S
C540 C536 1.531 . S
C540 H552 0.960 . S
C540 H553 0.962 . S
C540 H554 0.960 . S
C541 C538 1.511 . S
C541 H555 0.961 . S
C541 H556 0.961 . S
C541 H557 0.961 . S
C542 C543 1.370 . S
C542 C544 1.363 . S
C542 H558 0.931 . S
C543 C542 1.370 . S
C543 C547 1.408 . S
C544 C542 1.363 . S
C544 C545 1.370 . S
C544 C548 1.524 . S
C545 C537 1.503 . S
C545 C544 1.370 . S
C545 C546 1.403 . S
C546 C545 1.403 . S
C546 C547 1.404 . S
C546 C549 1.539 . S
C547 C543 1.408 . S
C547 C546 1.404 . S
C547 H559 0.930 . S
C548 C544 1.524 . S
C548 H560 0.956 . S
C548 H561 0.961 . S
C548 H562 0.961 . S
C549 C546 1.539 . S
C549 H563 0.958 . S
C549 H564 0.961 . S
C549 H565 0.960 . S
H550 C534 0.931 . S
H551 C539 0.929 . S
H552 C540 0.960 . S
H553 C540 0.962 . S
H554 C540 0.960 . S
H555 C541 0.961 . S
H556 C541 0.961 . S
H557 C541 0.961 . S
H558 C542 0.931 . S
H559 C547 0.930 . S
H560 C548 0.956 . S
H561 C548 0.961 . S
H562 C548 0.961 . S
H563 C549 0.958 . S
H564 C549 0.961 . S
H565 C549 0.960 . S
C566 C567 1.391 . S
C566 C568 1.394 . S
C566 H582 0.931 . S
C567 C566 1.391 . S
C567 C571 1.376 . S
C568 C566 1.394 . S
C568 C569 1.369 . S
C568 C572 1.531 . S
C569 C568 1.369 . S
C569 C570 1.410 . S
C569 C577 1.503 . S
C570 C569 1.410 . S
C570 C571 1.392 . S
C570 C573 1.511 . S
C571 C567 1.376 . S
C571 C570 1.392 . S
C571 H583 0.929 . S
C572 C568 1.531 . S
C572 H584 0.960 . S
C572 H585 0.962 . S
C572 H586 0.960 . S
C573 C570 1.511 . S
C573 H587 0.961 . S
C573 H588 0.961 . S
C573 H589 0.961 . S
C574 C575 1.370 . S
C574 C576 1.363 . S
C574 H590 0.931 . S
C575 C574 1.370 . S
C575 C579 1.408 . S
C576 C574 1.363 . S
C576 C577 1.370 . S
C576 C580 1.524 . S
C577 C569 1.503 . S
C577 C576 1.370 . S
C577 C578 1.403 . S
C578 C577 1.403 . S
C578 C579 1.404 . S
C578 C581 1.539 . S
C579 C575 1.408 . S
C579 C578 1.404 . S
C579 H591 0.930 . S
C580 C576 1.524 . S
C580 H592 0.956 . S
C580 H593 0.961 . S
C580 H594 0.961 . S
C581 C578 1.539 . S
C581 H595 0.958 . S
C581 H596 0.961 . S
C581 H597 0.960 . S
H582 C566 0.931 . S
H583 C571 0.929 . S
H584 C572 0.960 . S
H585 C572 0.962 . S
H586 C572 0.960 . S
H587 C573 0.961 . S
H588 C573 0.961 . S
H589 C573 0.961 . S
H590 C574 0.931 . S
H591 C579 0.930 . S
H592 C580 0.956 . S
H593 C580 0.961 . S
H594 C580 0.961 . S
H595 C581 0.958 . S
H596 C581 0.961 . S
H597 C581 0.960 . S
C598 C599 1.391 . S
C598 C600 1.394 . S
C598 H614 0.931 . S
C599 C598 1.391 . S
C599 C603 1.376 . S
C600 C598 1.394 . S
C600 C601 1.369 . S
C600 C604 1.531 . S
C601 C600 1.369 . S
C601 C602 1.410 . S
C601 C609 1.503 . S
C602 C601 1.410 . S
C602 C603 1.392 . S
C602 C605 1.511 . S
C603 C599 1.376 . S
C603 C602 1.392 . S
C603 H615 0.929 . S
C604 C600 1.531 . S
C604 H616 0.960 . S
C604 H617 0.962 . S
C604 H618 0.960 . S
C605 C602 1.511 . S
C605 H619 0.961 . S
C605 H620 0.961 . S
C605 H621 0.961 . S
C606 C607 1.370 . S
C606 C608 1.363 . S
C606 H622 0.931 . S
C607 C606 1.370 . S
C607 C611 1.408 . S
C608 C606 1.363 . S
C608 C609 1.370 . S
C608 C612 1.524 . S
C609 C601 1.503 . S
C609 C608 1.370 . S
C609 C610 1.403 . S
C610 C609 1.403 . S
C610 C611 1.404 . S
C610 C613 1.539 . S
C611 C607 1.408 . S
C611 C610 1.404 . S
C611 H623 0.930 . S
C612 C608 1.524 . S
C612 H624 0.956 . S
C612 H625 0.961 . S
C612 H626 0.961 . S
C613 C610 1.539 . S
C613 H627 0.958 . S
C613 H628 0.961 . S
C613 H629 0.960 . S
H614 C598 0.931 . S
H615 C603 0.929 . S
H616 C604 0.960 . S
H617 C604 0.962 . S
H618 C604 0.960 . S
H619 C605 0.961 . S
H620 C605 0.961 . S
H621 C605 0.961 . S
H622 C606 0.931 . S
H623 C611 0.930 . S
H624 C612 0.956 . S
H625 C612 0.961 . S
H626 C612 0.961 . S
H627 C613 0.958 . S
H628 C613 0.961 . S
H629 C613 0.960 . S
C630 C631 1.391 . S
C630 C632 1.394 1_556 S
C630 H646 0.931 . S
C631 C630 1.391 . S
C631 C635 1.376 . S
C632 C630 1.394 1_554 S
C632 C633 1.369 1_554 S
C632 C636 1.531 . S
C633 C632 1.369 1_556 S
C633 C634 1.410 . S
C633 C641 1.503 1_556 S
C634 C633 1.410 . S
C634 C635 1.392 . S
C634 C637 1.511 . S
C635 C631 1.376 . S
C635 C634 1.392 . S
C635 H647 0.929 . S
C636 C632 1.531 . S
C636 H648 0.960 . S
C636 H649 0.962 . S
C636 H650 0.960 . S
C637 C634 1.511 . S
C637 H651 0.961 . S
C637 H652 0.961 . S
C637 H653 0.961 . S
C638 C639 1.370 . S
C638 C640 1.363 . S
C638 H654 0.931 . S
C639 C638 1.370 . S
C639 C643 1.408 . S
C640 C638 1.363 . S
C640 C641 1.370 . S
C640 C644 1.524 . S
C641 C633 1.503 1_554 S
C641 C640 1.370 . S
C641 C642 1.403 . S
C642 C641 1.403 . S
C642 C643 1.404 . S
C642 C645 1.527 1_554 S
C643 C639 1.408 . S
C643 C642 1.404 . S
C643 H655 0.930 . S
C644 C640 1.524 . S
C644 H656 0.956 . S
C644 H657 0.961 . S
C644 H658 0.961 . S
C645 C642 1.527 1_556 S
C645 H659 0.957 1_556 S
C645 H660 0.961 . S
C645 H661 0.973 . S
H646 C630 0.931 . S
H647 C635 0.929 . S
H648 C636 0.960 . S
H649 C636 0.962 . S
H650 C636 0.960 . S
H651 C637 0.961 . S
H652 C637 0.961 . S
H653 C637 0.961 . S
H654 C638 0.931 . S
H655 C643 0.930 . S
H656 C644 0.956 . S
H657 C644 0.961 . S
H658 C644 0.961 . S
H659 C645 0.957 1_554 S
H660 C645 0.961 . S
H661 C645 0.973 . S
C662 C663 1.391 . S
C662 C664 1.394 . S
C662 H678 0.931 . S
C663 C662 1.391 . S
C663 C667 1.376 . S
C664 C662 1.394 . S
C664 C665 1.369 . S
C664 C668 1.531 . S
C665 C664 1.369 . S
C665 C666 1.410 . S
C665 C673 1.503 . S
C666 C665 1.410 . S
C666 C667 1.392 . S
C666 C669 1.511 . S
C667 C663 1.376 . S
C667 C666 1.392 . S
C667 H679 0.929 . S
C668 C664 1.531 . S
C668 H680 0.960 . S
C668 H681 0.962 . S
C668 H682 0.960 . S
C669 C666 1.511 . S
C669 H683 0.961 . S
C669 H684 0.961 . S
C669 H685 0.961 . S
C670 C671 1.370 . S
C670 C672 1.363 . S
C670 H686 0.931 . S
C671 C670 1.370 . S
C671 C675 1.408 . S
C672 C670 1.363 . S
C672 C673 1.370 . S
C672 C676 1.524 . S
C673 C665 1.503 . S
C673 C672 1.370 . S
C673 C674 1.403 . S
C674 C673 1.403 . S
C674 C675 1.404 . S
C674 C677 1.539 . S
C675 C671 1.408 . S
C675 C674 1.404 . S
C675 H687 0.930 . S
C676 C672 1.524 . S
C676 H688 0.956 . S
C676 H689 0.961 . S
C676 H690 0.961 . S
C677 C674 1.539 . S
C677 H691 0.958 . S
C677 H692 0.961 . S
C677 H693 0.960 . S
H678 C662 0.931 . S
H679 C667 0.929 . S
H680 C668 0.960 . S
H681 C668 0.962 . S
H682 C668 0.960 . S
H683 C669 0.961 . S
H684 C669 0.961 . S
H685 C669 0.961 . S
H686 C670 0.931 . S
H687 C675 0.930 . S
H688 C676 0.956 . S
H689 C676 0.961 . S
H690 C676 0.961 . S
H691 C677 0.958 . S
H692 C677 0.961 . S
H693 C677 0.960 . S
C694 C695 1.391 . S
C694 C696 1.394 . S
C694 H710 0.931 . S
C695 C694 1.391 . S
C695 C699 1.376 . S
C696 C694 1.394 . S
C696 C697 1.369 . S
C696 C700 1.531 . S
C697 C696 1.369 . S
C697 C698 1.410 . S
C697 C705 1.503 . S
C698 C697 1.410 . S
C698 C699 1.392 . S
C698 C701 1.511 . S
C699 C695 1.376 . S
C699 C698 1.392 . S
C699 H711 0.929 . S
C700 C696 1.531 . S
C700 H712 0.960 . S
C700 H713 0.962 . S
C700 H714 0.960 . S
C701 C698 1.511 . S
C701 H715 0.961 . S
C701 H716 0.961 . S
C701 H717 0.961 . S
C702 C703 1.370 . S
C702 C704 1.363 . S
C702 H718 0.931 . S
C703 C702 1.370 . S
C703 C707 1.408 . S
C704 C702 1.363 . S
C704 C705 1.370 . S
C704 C708 1.524 . S
C705 C697 1.503 . S
C705 C704 1.370 . S
C705 C706 1.403 . S
C706 C705 1.403 . S
C706 C707 1.404 . S
C706 C709 1.539 . S
C707 C703 1.408 . S
C707 C706 1.404 . S
C707 H719 0.930 . S
C708 C704 1.524 . S
C708 H720 0.956 . S
C708 H721 0.961 . S
C708 H722 0.961 . S
C709 C706 1.539 . S
C709 H723 0.958 . S
C709 H724 0.961 . S
C709 H725 0.960 . S
H710 C694 0.931 . S
H711 C699 0.929 . S
H712 C700 0.960 . S
H713 C700 0.962 . S
H714 C700 0.960 . S
H715 C701 0.961 . S
H716 C701 0.961 . S
H717 C701 0.961 . S
H718 C702 0.931 . S
H719 C707 0.930 . S
H720 C708 0.956 . S
H721 C708 0.961 . S
H722 C708 0.961 . S
H723 C709 0.958 . S
H724 C709 0.961 . S
H725 C709 0.960 . S
C726 C727 1.391 . S
C726 C728 1.394 . S
C726 H742 0.931 . S
C727 C726 1.391 . S
C727 C731 1.376 . S
C728 C726 1.394 . S
C728 C729 1.369 . S
C728 C732 1.531 . S
C729 C728 1.369 . S
C729 C730 1.410 . S
C729 C737 1.503 . S
C730 C729 1.410 . S
C730 C731 1.392 . S
C730 C733 1.511 . S
C731 C727 1.376 . S
C731 C730 1.392 . S
C731 H743 0.929 . S
C732 C728 1.531 . S
C732 H744 0.960 . S
C732 H745 0.962 . S
C732 H746 0.960 . S
C733 C730 1.511 . S
C733 H747 0.961 . S
C733 H748 0.961 . S
C733 H749 0.961 . S
C734 C735 1.370 . S
C734 C736 1.363 . S
C734 H750 0.931 . S
C735 C734 1.370 . S
C735 C739 1.408 . S
C736 C734 1.363 . S
C736 C737 1.370 . S
C736 C740 1.524 . S
C737 C729 1.503 . S
C737 C736 1.370 . S
C737 C738 1.403 . S
C738 C737 1.403 . S
C738 C739 1.404 . S
C738 C741 1.539 . S
C739 C735 1.408 . S
C739 C738 1.404 . S
C739 H751 0.930 . S
C740 C736 1.524 . S
C740 H752 0.956 . S
C740 H753 0.961 . S
C740 H754 0.961 . S
C741 C738 1.539 . S
C741 H755 0.958 . S
C741 H756 0.961 . S
C741 H757 0.960 . S
H742 C726 0.931 . S
H743 C731 0.929 . S
H744 C732 0.960 . S
H745 C732 0.962 . S
H746 C732 0.960 . S
H747 C733 0.961 . S
H748 C733 0.961 . S
H749 C733 0.961 . S
H750 C734 0.931 . S
H751 C739 0.930 . S
H752 C740 0.956 . S
H753 C740 0.961 . S
H754 C740 0.961 . S
H755 C741 0.958 . S
H756 C741 0.961 . S
H757 C741 0.960 . S
C758 C759 1.391 . S
C758 C760 1.394 . S
C758 H774 0.931 . S
C759 C758 1.391 . S
C759 C763 1.376 . S
C760 C758 1.394 . S
C760 C761 1.369 . S
C760 C764 1.531 . S
C761 C760 1.369 . S
C761 C762 1.410 . S
C761 C769 1.503 . S
C762 C761 1.410 . S
C762 C763 1.392 . S
C762 C765 1.511 . S
C763 C759 1.376 . S
C763 C762 1.392 . S
C763 H775 0.929 . S
C764 C760 1.531 . S
C764 H776 0.960 . S
C764 H777 0.962 . S
C764 H778 0.960 . S
C765 C762 1.511 . S
C765 H779 0.961 . S
C765 H780 0.961 . S
C765 H781 0.961 . S
C766 C767 1.370 . S
C766 C768 1.363 . S
C766 H782 0.931 . S
C767 C766 1.370 . S
C767 C771 1.408 . S
C768 C766 1.363 . S
C768 C769 1.370 . S
C768 C772 1.524 . S
C769 C761 1.503 . S
C769 C768 1.370 . S
C769 C770 1.403 . S
C770 C769 1.403 . S
C770 C771 1.404 . S
C770 C773 1.539 . S
C771 C767 1.408 . S
C771 C770 1.404 . S
C771 H783 0.930 . S
C772 C768 1.524 . S
C772 H784 0.956 . S
C772 H785 0.961 . S
C772 H786 0.961 . S
C773 C770 1.539 . S
C773 H787 0.958 . S
C773 H788 0.961 . S
C773 H789 0.960 . S
H774 C758 0.931 . S
H775 C763 0.929 . S
H776 C764 0.960 . S
H777 C764 0.962 . S
H778 C764 0.960 . S
H779 C765 0.961 . S
H780 C765 0.961 . S
H781 C765 0.961 . S
H782 C766 0.931 . S
H783 C771 0.930 . S
H784 C772 0.956 . S
H785 C772 0.961 . S
H786 C772 0.961 . S
H787 C773 0.958 . S
H788 C773 0.961 . S
H789 C773 0.960 . S
C790 C791 1.391 . S
C790 C792 1.394 . S
C790 H806 0.931 . S
C791 C790 1.391 . S
C791 C795 1.376 . S
C792 C790 1.394 . S
C792 C793 1.369 . S
C792 C796 1.531 . S
C793 C792 1.369 . S
C793 C794 1.410 . S
C793 C801 1.503 . S
C794 C793 1.410 . S
C794 C795 1.392 . S
C794 C797 1.511 . S
C795 C791 1.376 . S
C795 C794 1.392 . S
C795 H807 0.929 . S
C796 C792 1.531 . S
C796 H808 0.960 . S
C796 H809 0.962 . S
C796 H810 0.960 . S
C797 C794 1.511 . S
C797 H811 0.961 . S
C797 H812 0.961 . S
C797 H813 0.961 . S
C798 C799 1.370 . S
C798 C800 1.363 . S
C798 H814 0.931 . S
C799 C798 1.370 . S
C799 C803 1.408 . S
C800 C798 1.363 . S
C800 C801 1.370 . S
C800 C804 1.524 . S
C801 C793 1.503 . S
C801 C800 1.370 . S
C801 C802 1.403 . S
C802 C801 1.403 . S
C802 C803 1.404 . S
C802 C805 1.539 . S
C803 C799 1.408 . S
C803 C802 1.404 . S
C803 H815 0.930 . S
C804 C800 1.524 . S
C804 H816 0.956 . S
C804 H817 0.961 . S
C804 H818 0.961 . S
C805 C802 1.539 . S
C805 H819 0.958 . S
C805 H820 0.961 . S
C805 H821 0.960 . S
H806 C790 0.931 . S
H807 C795 0.929 . S
H808 C796 0.960 . S
H809 C796 0.962 . S
H810 C796 0.960 . S
H811 C797 0.961 . S
H812 C797 0.961 . S
H813 C797 0.961 . S
H814 C798 0.931 . S
H815 C803 0.930 . S
H816 C804 0.956 . S
H817 C804 0.961 . S
H818 C804 0.961 . S
H819 C805 0.958 . S
H820 C805 0.961 . S
H821 C805 0.960 . S
C822 C823 1.391 . S
C822 C824 1.394 . S
C822 H838 0.931 . S
C823 C822 1.391 . S
C823 C827 1.376 . S
C824 C822 1.394 . S
C824 C825 1.369 . S
C824 C828 1.531 . S
C825 C824 1.369 . S
C825 C826 1.410 . S
C825 C833 1.503 . S
C826 C825 1.410 . S
C826 C827 1.392 . S
C826 C829 1.511 . S
C827 C823 1.376 . S
C827 C826 1.392 . S
C827 H839 0.929 . S
C828 C824 1.531 . S
C828 H840 0.960 . S
C828 H841 0.962 . S
C828 H842 0.960 . S
C829 C826 1.511 . S
C829 H843 0.961 . S
C829 H844 0.961 . S
C829 H845 0.961 . S
C830 C831 1.370 . S
C830 C832 1.363 . S
C830 H846 0.931 . S
C831 C830 1.370 . S
C831 C835 1.408 . S
C832 C830 1.363 . S
C832 C833 1.370 . S
C832 C836 1.524 . S
C833 C825 1.503 . S
C833 C832 1.370 . S
C833 C834 1.403 . S
C834 C833 1.403 . S
C834 C835 1.404 . S
C834 C837 1.539 . S
C835 C831 1.408 . S
C835 C834 1.404 . S
C835 H847 0.930 . S
C836 C832 1.524 . S
C836 H848 0.956 . S
C836 H849 0.961 . S
C836 H850 0.961 . S
C837 C834 1.539 . S
C837 H851 0.958 . S
C837 H852 0.961 . S
C837 H853 0.960 . S
H838 C822 0.931 . S
H839 C827 0.929 . S
H840 C828 0.960 . S
H841 C828 0.962 . S
H842 C828 0.960 . S
H843 C829 0.961 . S
H844 C829 0.961 . S
H845 C829 0.961 . S
H846 C830 0.931 . S
H847 C835 0.930 . S
H848 C836 0.956 . S
H849 C836 0.961 . S
H850 C836 0.961 . S
H851 C837 0.958 . S
H852 C837 0.961 . S
H853 C837 0.960 . S
C854 C855 1.391 . S
C854 C856 1.394 . S
C854 H870 0.931 . S
C855 C854 1.391 . S
C855 C859 1.376 . S
C856 C854 1.394 . S
C856 C857 1.369 . S
C856 C860 1.531 . S
C857 C856 1.369 . S
C857 C858 1.410 . S
C857 C865 1.503 . S
C858 C857 1.410 . S
C858 C859 1.392 . S
C858 C861 1.511 . S
C859 C855 1.376 . S
C859 C858 1.392 . S
C859 H871 0.929 . S
C860 C856 1.531 . S
C860 H872 0.960 . S
C860 H873 0.962 . S
C860 H874 0.960 . S
C861 C858 1.511 . S
C861 H875 0.961 . S
C861 H876 0.961 . S
C861 H877 0.961 . S
C862 C863 1.370 . S
C862 C864 1.363 . S
C862 H878 0.931 . S
C863 C862 1.370 . S
C863 C867 1.408 . S
C864 C862 1.363 . S
C864 C865 1.370 . S
C864 C868 1.524 . S
C865 C857 1.503 . S
C865 C864 1.370 . S
C865 C866 1.403 . S
C866 C865 1.403 . S
C866 C867 1.404 . S
C866 C869 1.539 . S
C867 C863 1.408 . S
C867 C866 1.404 . S
C867 H879 0.930 . S
C868 C864 1.524 . S
C868 H880 0.956 . S
C868 H881 0.961 . S
C868 H882 0.961 . S
C869 C866 1.539 . S
C869 H883 0.958 . S
C869 H884 0.961 . S
C869 H885 0.960 . S
H870 C854 0.931 . S
H871 C859 0.929 . S
H872 C860 0.960 . S
H873 C860 0.962 . S
H874 C860 0.960 . S
H875 C861 0.961 . S
H876 C861 0.961 . S
H877 C861 0.961 . S
H878 C862 0.931 . S
H879 C867 0.930 . S
H880 C868 0.956 . S
H881 C868 0.961 . S
H882 C868 0.961 . S
H883 C869 0.958 . S
H884 C869 0.961 . S
H885 C869 0.960 . S
C886 C887 1.391 . S
C886 C888 1.394 . S
C886 H902 0.931 . S
C887 C886 1.391 . S
C887 C891 1.376 . S
C888 C886 1.394 . S
C888 C889 1.369 . S
C888 C892 1.531 . S
C889 C888 1.369 . S
C889 C890 1.410 . S
C889 C897 1.503 . S
C890 C889 1.410 . S
C890 C891 1.392 . S
C890 C893 1.511 . S
C891 C887 1.376 . S
C891 C890 1.392 . S
C891 H903 0.929 . S
C892 C888 1.531 . S
C892 H904 0.960 . S
C892 H905 0.962 . S
C892 H906 0.960 . S
C893 C890 1.511 . S
C893 H907 0.961 . S
C893 H908 0.961 . S
C893 H909 0.961 . S
C894 C895 1.370 . S
C894 C896 1.363 . S
C894 H910 0.931 . S
C895 C894 1.370 . S
C895 C899 1.408 . S
C896 C894 1.363 . S
C896 C897 1.370 . S
C896 C900 1.524 . S
C897 C889 1.503 . S
C897 C896 1.370 . S
C897 C898 1.403 . S
C898 C897 1.403 . S
C898 C899 1.404 . S
C898 C901 1.539 . S
C899 C895 1.408 . S
C899 C898 1.404 . S
C899 H911 0.930 . S
C900 C896 1.524 . S
C900 H912 0.956 . S
C900 H913 0.961 . S
C900 H914 0.961 . S
C901 C898 1.539 . S
C901 H915 0.958 . S
C901 H916 0.961 . S
C901 H917 0.960 . S
H902 C886 0.931 . S
H903 C891 0.929 . S
H904 C892 0.960 . S
H905 C892 0.962 . S
H906 C892 0.960 . S
H907 C893 0.961 . S
H908 C893 0.961 . S
H909 C893 0.961 . S
H910 C894 0.931 . S
H911 C899 0.930 . S
H912 C900 0.956 . S
H913 C900 0.961 . S
H914 C900 0.961 . S
H915 C901 0.958 . S
H916 C901 0.961 . S
H917 C901 0.960 . S
C918 C919 1.391 . S
C918 C920 1.394 . S
C918 H934 0.931 . S
C919 C918 1.391 . S
C919 C923 1.376 . S
C920 C918 1.394 . S
C920 C921 1.369 . S
C920 C924 1.531 . S
C921 C920 1.369 . S
C921 C922 1.410 . S
C921 C929 1.503 . S
C922 C921 1.410 . S
C922 C923 1.392 . S
C922 C925 1.511 . S
C923 C919 1.376 . S
C923 C922 1.392 . S
C923 H935 0.929 . S
C924 C920 1.531 . S
C924 H936 0.960 . S
C924 H937 0.962 . S
C924 H938 0.960 . S
C925 C922 1.511 . S
C925 H939 0.961 . S
C925 H940 0.961 . S
C925 H941 0.961 . S
C926 C927 1.370 . S
C926 C928 1.363 . S
C926 H942 0.931 . S
C927 C926 1.370 . S
C927 C931 1.408 . S
C928 C926 1.363 . S
C928 C929 1.370 . S
C928 C932 1.524 . S
C929 C921 1.503 . S
C929 C928 1.370 . S
C929 C930 1.403 . S
C930 C929 1.403 . S
C930 C931 1.404 . S
C930 C933 1.539 . S
C931 C927 1.408 . S
C931 C930 1.404 . S
C931 H943 0.930 . S
C932 C928 1.524 . S
C932 H944 0.956 . S
C932 H945 0.961 . S
C932 H946 0.961 . S
C933 C930 1.539 . S
C933 H947 0.958 . S
C933 H948 0.961 . S
C933 H949 0.960 . S
H934 C918 0.931 . S
H935 C923 0.929 . S
H936 C924 0.960 . S
H937 C924 0.962 . S
H938 C924 0.960 . S
H939 C925 0.961 . S
H940 C925 0.961 . S
H941 C925 0.961 . S
H942 C926 0.931 . S
H943 C931 0.930 . S
H944 C932 0.956 . S
H945 C932 0.961 . S
H946 C932 0.961 . S
H947 C933 0.958 . S
H948 C933 0.961 . S
H949 C933 0.960 . S
C950 C951 1.391 . S
C950 C952 1.394 . S
C950 H966 0.931 . S
C951 C950 1.391 . S
C951 C955 1.376 . S
C952 C950 1.394 . S
C952 C953 1.369 . S
C952 C956 1.531 . S
C953 C952 1.369 . S
C953 C954 1.410 . S
C953 C961 1.503 . S
C954 C953 1.410 . S
C954 C955 1.392 . S
C954 C957 1.511 . S
C955 C951 1.376 . S
C955 C954 1.392 . S
C955 H967 0.929 . S
C956 C952 1.531 . S
C956 H968 0.960 . S
C956 H969 0.962 . S
C956 H970 0.960 . S
C957 C954 1.511 . S
C957 H971 0.961 . S
C957 H972 0.961 . S
C957 H973 0.961 . S
C958 C959 1.370 . S
C958 C960 1.363 . S
C958 H974 0.931 . S
C959 C958 1.370 . S
C959 C963 1.408 . S
C960 C958 1.363 . S
C960 C961 1.370 . S
C960 C964 1.524 . S
C961 C953 1.503 . S
C961 C960 1.370 . S
C961 C962 1.403 . S
C962 C961 1.403 . S
C962 C963 1.404 . S
C962 C965 1.539 . S
C963 C959 1.408 . S
C963 C962 1.404 . S
C963 H975 0.930 . S
C964 C960 1.524 . S
C964 H976 0.956 . S
C964 H977 0.961 . S
C964 H978 0.961 . S
C965 C962 1.539 . S
C965 H979 0.958 . S
C965 H980 0.961 . S
C965 H981 0.960 . S
H966 C950 0.931 . S
H967 C955 0.929 . S
H968 C956 0.960 . S
H969 C956 0.962 . S
H970 C956 0.960 . S
H971 C957 0.961 . S
H972 C957 0.961 . S
H973 C957 0.961 . S
H974 C958 0.931 . S
H975 C963 0.930 . S
H976 C964 0.956 . S
H977 C964 0.961 . S
H978 C964 0.961 . S
H979 C965 0.958 . S
H980 C965 0.961 . S
H981 C965 0.960 . S
C982 C983 1.391 . S
C982 C984 1.394 . S
C982 H998 0.931 . S
C983 C982 1.391 . S
C983 C987 1.376 . S
C984 C982 1.394 . S
C984 C985 1.369 . S
C984 C988 1.531 . S
C985 C984 1.369 . S
C985 C986 1.410 . S
C985 C993 1.503 . S
C986 C985 1.410 . S
C986 C987 1.392 . S
C986 C989 1.511 . S
C987 C983 1.376 . S
C987 C986 1.392 . S
C987 H999 0.929 . S
C988 C984 1.531 . S
C988 H1000 0.960 . S
C988 H1001 0.962 . S
C988 H1002 0.960 . S
C989 C986 1.511 . S
C989 H1003 0.961 . S
C989 H1004 0.961 . S
C989 H1005 0.961 . S
C990 C991 1.370 . S
C990 C992 1.363 . S
C990 H1006 0.931 . S
C991 C990 1.370 . S
C991 C995 1.408 . S
C992 C990 1.363 . S
C992 C993 1.370 . S
C992 C996 1.524 . S
C993 C985 1.503 . S
C993 C992 1.370 . S
C993 C994 1.403 . S
C994 C993 1.403 . S
C994 C995 1.404 . S
C994 C997 1.539 . S
C995 C991 1.408 . S
C995 C994 1.404 . S
C995 H1007 0.930 . S
C996 C992 1.524 . S
C996 H1008 0.956 . S
C996 H1009 0.961 . S
C996 H1010 0.961 . S
C997 C994 1.539 . S
C997 H1011 0.958 . S
C997 H1012 0.961 . S
C997 H1013 0.960 . S
H998 C982 0.931 . S
H999 C987 0.929 . S
H1000 C988 0.960 . S
H1001 C988 0.962 . S
H1002 C988 0.960 . S
H1003 C989 0.961 . S
H1004 C989 0.961 . S
H1005 C989 0.961 . S
H1006 C990 0.931 . S
H1007 C995 0.930 . S
H1008 C996 0.956 . S
H1009 C996 0.961 . S
H1010 C996 0.961 . S
H1011 C997 0.958 . S
H1012 C997 0.961 . S
H1013 C997 0.960 . S
C1014 C1015 1.391 . S
C1014 C1016 1.394 . S
C1014 H1030 0.931 . S
C1015 C1014 1.391 . S
C1015 C1019 1.376 . S
C1016 C1014 1.394 . S
C1016 C1017 1.369 . S
C1016 C1020 1.531 . S
C1017 C1016 1.369 . S
C1017 C1018 1.410 . S
C1017 C1025 1.503 . S
C1018 C1017 1.410 . S
C1018 C1019 1.392 . S
C1018 C1021 1.511 . S
C1019 C1015 1.376 . S
C1019 C1018 1.392 . S
C1019 H1031 0.929 . S
C1020 C1016 1.531 . S
C1020 H1032 0.960 . S
C1020 H1033 0.962 . S
C1020 H1034 0.960 . S
C1021 C1018 1.511 . S
C1021 H1035 0.961 . S
C1021 H1036 0.961 . S
C1021 H1037 0.961 . S
C1022 C1023 1.370 . S
C1022 C1024 1.363 . S
C1022 H1038 0.931 . S
C1023 C1022 1.370 . S
C1023 C1027 1.408 . S
C1024 C1022 1.363 . S
C1024 C1025 1.370 . S
C1024 C1028 1.524 . S
C1025 C1017 1.503 . S
C1025 C1024 1.370 . S
C1025 C1026 1.403 . S
C1026 C1025 1.403 . S
C1026 C1027 1.404 . S
C1026 C1029 1.539 . S
C1027 C1023 1.408 . S
C1027 C1026 1.404 . S
C1027 H1039 0.930 . S
C1028 C1024 1.524 . S
C1028 H1040 0.956 . S
C1028 H1041 0.961 . S
C1028 H1042 0.961 . S
C1029 C1026 1.539 . S
C1029 H1043 0.958 . S
C1029 H1044 0.961 . S
C1029 H1045 0.960 . S
H1030 C1014 0.931 . S
H1031 C1019 0.929 . S
H1032 C1020 0.960 . S
H1033 C1020 0.962 . S
H1034 C1020 0.960 . S
H1035 C1021 0.961 . S
H1036 C1021 0.961 . S
H1037 C1021 0.961 . S
H1038 C1022 0.931 . S
H1039 C1027 0.930 . S
H1040 C1028 0.956 . S
H1041 C1028 0.961 . S
H1042 C1028 0.961 . S
H1043 C1029 0.958 . S
H1044 C1029 0.961 . S
H1045 C1029 0.960 . S
C1046 C1047 1.391 . S
C1046 C1048 1.394 . S
C1046 H1062 0.931 . S
C1047 C1046 1.391 . S
C1047 C1051 1.376 . S
C1048 C1046 1.394 . S
C1048 C1049 1.369 . S
C1048 C1052 1.531 . S
C1049 C1048 1.369 . S
C1049 C1050 1.410 . S
C1049 C1057 1.503 . S
C1050 C1049 1.410 . S
C1050 C1051 1.392 . S
C1050 C1053 1.511 . S
C1051 C1047 1.376 . S
C1051 C1050 1.392 . S
C1051 H1063 0.929 . S
C1052 C1048 1.531 . S
C1052 H1064 0.960 . S
C1052 H1065 0.962 . S
C1052 H1066 0.960 . S
C1053 C1050 1.511 . S
C1053 H1067 0.961 . S
C1053 H1068 0.961 . S
C1053 H1069 0.961 . S
C1054 C1055 1.370 . S
C1054 C1056 1.363 . S
C1054 H1070 0.931 . S
C1055 C1054 1.370 . S
C1055 C1059 1.408 . S
C1056 C1054 1.363 . S
C1056 C1057 1.370 . S
C1056 C1060 1.524 . S
C1057 C1049 1.503 . S
C1057 C1056 1.370 . S
C1057 C1058 1.403 . S
C1058 C1057 1.403 . S
C1058 C1059 1.404 . S
C1058 C1061 1.539 . S
C1059 C1055 1.408 . S
C1059 C1058 1.404 . S
C1059 H1071 0.930 . S
C1060 C1056 1.524 . S
C1060 H1072 0.956 . S
C1060 H1073 0.961 . S
C1060 H1074 0.961 . S
C1061 C1058 1.539 . S
C1061 H1075 0.958 . S
C1061 H1076 0.961 . S
C1061 H1077 0.960 . S
H1062 C1046 0.931 . S
H1063 C1051 0.929 . S
H1064 C1052 0.960 . S
H1065 C1052 0.962 . S
H1066 C1052 0.960 . S
H1067 C1053 0.961 . S
H1068 C1053 0.961 . S
H1069 C1053 0.961 . S
H1070 C1054 0.931 . S
H1071 C1059 0.930 . S
H1072 C1060 0.956 . S
H1073 C1060 0.961 . S
H1074 C1060 0.961 . S
H1075 C1061 0.958 . S
H1076 C1061 0.961 . S
H1077 C1061 0.960 . S
C1078 C1079 1.391 . S
C1078 C1080 1.394 . S
C1078 H1094 0.931 . S
C1079 C1078 1.391 . S
C1079 C1083 1.376 . S
C1080 C1078 1.394 . S
C1080 C1081 1.369 . S
C1080 C1084 1.531 . S
C1081 C1080 1.369 . S
C1081 C1082 1.410 . S
C1081 C1089 1.503 . S
C1082 C1081 1.410 . S
C1082 C1083 1.392 . S
C1082 C1085 1.511 . S
C1083 C1079 1.376 . S
C1083 C1082 1.392 . S
C1083 H1095 0.929 . S
C1084 C1080 1.531 . S
C1084 H1096 0.960 1_556 S
C1084 H1097 0.962 1_556 S
C1084 H1098 0.960 . S
C1085 C1082 1.511 . S
C1085 H1099 0.961 . S
C1085 H1100 0.961 . S
C1085 H1101 0.961 . S
C1086 C1087 1.370 . S
C1086 C1088 1.363 1_554 S
C1086 H1102 0.931 . S
C1087 C1086 1.370 . S
C1087 C1091 1.408 . S
C1088 C1086 1.363 1_556 S
C1088 C1089 1.370 . S
C1088 C1092 1.524 . S
C1089 C1081 1.503 . S
C1089 C1088 1.370 . S
C1089 C1090 1.403 . S
C1090 C1089 1.403 . S
C1090 C1091 1.404 1_556 S
C1090 C1093 1.539 . S
C1091 C1087 1.408 . S
C1091 C1090 1.404 1_554 S
C1091 H1103 0.930 . S
C1092 C1088 1.524 . S
C1092 H1104 0.956 . S
C1092 H1105 0.961 . S
C1092 H1106 0.961 . S
C1093 C1090 1.539 . S
C1093 H1107 0.958 . S
C1093 H1108 0.961 . S
C1093 H1109 0.960 . S
H1094 C1078 0.931 . S
H1095 C1083 0.929 . S
H1096 C1084 0.960 1_554 S
H1097 C1084 0.962 1_554 S
H1098 C1084 0.960 . S
H1099 C1085 0.961 . S
H1100 C1085 0.961 . S
H1101 C1085 0.961 . S
H1102 C1086 0.931 . S
H1103 C1091 0.930 . S
H1104 C1092 0.956 . S
H1105 C1092 0.961 . S
H1106 C1092 0.961 . S
H1107 C1093 0.958 . S
H1108 C1093 0.961 . S
H1109 C1093 0.960 . S
C1110 C1111 1.391 . S
C1110 C1112 1.394 . S
C1110 H1126 0.931 . S
C1111 C1110 1.391 . S
C1111 C1115 1.376 . S
C1112 C1110 1.394 . S
C1112 C1113 1.369 . S
C1112 C1116 1.531 . S
C1113 C1112 1.369 . S
C1113 C1114 1.410 . S
C1113 C1121 1.503 . S
C1114 C1113 1.410 . S
C1114 C1115 1.392 . S
C1114 C1117 1.511 . S
C1115 C1111 1.376 . S
C1115 C1114 1.392 . S
C1115 H1127 0.929 . S
C1116 C1112 1.531 . S
C1116 H1128 0.960 . S
C1116 H1129 0.962 . S
C1116 H1130 0.960 . S
C1117 C1114 1.511 . S
C1117 H1131 0.961 . S
C1117 H1132 0.961 . S
C1117 H1133 0.961 . S
C1118 C1119 1.370 . S
C1118 C1120 1.363 . S
C1118 H1134 0.931 . S
C1119 C1118 1.370 . S
C1119 C1123 1.408 . S
C1120 C1118 1.363 . S
C1120 C1121 1.370 . S
C1120 C1124 1.524 . S
C1121 C1113 1.503 . S
C1121 C1120 1.370 . S
C1121 C1122 1.403 . S
C1122 C1121 1.403 . S
C1122 C1123 1.404 . S
C1122 C1125 1.539 . S
C1123 C1119 1.408 . S
C1123 C1122 1.404 . S
C1123 H1135 0.930 . S
C1124 C1120 1.524 . S
C1124 H1136 0.956 . S
C1124 H1137 0.961 . S
C1124 H1138 0.961 . S
C1125 C1122 1.539 . S
C1125 H1139 0.958 . S
C1125 H1140 0.961 . S
C1125 H1141 0.960 . S
H1126 C1110 0.931 . S
H1127 C1115 0.929 . S
H1128 C1116 0.960 . S
H1129 C1116 0.962 . S
H1130 C1116 0.960 . S
H1131 C1117 0.961 . S
H1132 C1117 0.961 . S
H1133 C1117 0.961 . S
H1134 C1118 0.931 . S
H1135 C1123 0.930 . S
H1136 C1124 0.956 . S
H1137 C1124 0.961 . S
H1138 C1124 0.961 . S
H1139 C1125 0.958 . S
H1140 C1125 0.961 . S
H1141 C1125 0.960 . S
C1142 C1143 1.391 . S
C1142 C1144 1.394 . S
C1142 H1158 0.931 . S
C1143 C1142 1.391 . S
C1143 C1147 1.376 . S
C1144 C1142 1.394 . S
C1144 C1145 1.369 . S
C1144 C1148 1.531 . S
C1145 C1144 1.369 . S
C1145 C1146 1.410 . S
C1145 C1153 1.503 . S
C1146 C1145 1.410 . S
C1146 C1147 1.392 . S
C1146 C1149 1.511 . S
C1147 C1143 1.376 . S
C1147 C1146 1.392 . S
C1147 H1159 0.929 . S
C1148 C1144 1.531 . S
C1148 H1160 0.960 . S
C1148 H1161 0.962 . S
C1148 H1162 0.960 . S
C1149 C1146 1.511 . S
C1149 H1163 0.961 . S
C1149 H1164 0.961 . S
C1149 H1165 0.961 . S
C1150 C1151 1.370 . S
C1150 C1152 1.363 . S
C1150 H1166 0.931 . S
C1151 C1150 1.370 . S
C1151 C1155 1.408 . S
C1152 C1150 1.363 . S
C1152 C1153 1.370 . S
C1152 C1156 1.524 . S
C1153 C1145 1.503 . S
C1153 C1152 1.370 . S
C1153 C1154 1.403 . S
C1154 C1153 1.403 . S
C1154 C1155 1.404 . S
C1154 C1157 1.539 . S
C1155 C1151 1.408 . S
C1155 C1154 1.404 . S
C1155 H1167 0.930 . S
C1156 C1152 1.524 . S
C1156 H1168 0.956 . S
C1156 H1169 0.961 . S
C1156 H1170 0.961 . S
C1157 C1154 1.539 . S
C1157 H1171 0.958 . S
C1157 H1172 0.961 . S
C1157 H1173 0.960 . S
H1158 C1142 0.931 . S
H1159 C1147 0.929 . S
H1160 C1148 0.960 . S
H1161 C1148 0.962 . S
H1162 C1148 0.960 . S
H1163 C1149 0.961 . S
H1164 C1149 0.961 . S
H1165 C1149 0.961 . S
H1166 C1150 0.931 . S
H1167 C1155 0.930 . S
H1168 C1156 0.956 . S
H1169 C1156 0.961 . S
H1170 C1156 0.961 . S
H1171 C1157 0.958 . S
H1172 C1157 0.961 . S
H1173 C1157 0.960 . S
C415 C110 1.664 . S
C407 C10 1.666 . S
C447 C179 1.461 . S
C439 C15 1.419 . S
C479 C117 1.657 . S
C471 C26 1.648 . S
C511 C180 1.465 . S
C503 C37 1.448 . S
C543 C233 1.775 . S
C535 C4 1.761 . S
C575 C269 1.485 . S
C567 C16 1.433 . S
C599 C27 1.769 . S
C607 C329 1.745 . S
C639 C392 1.491 . S
C631 C43 1.492 . S
C671 C232 1.589 . S
C663 C21 1.550 . S
C695 C32 1.436 . S
C703 C276 1.430 . S
C735 C322 1.756 . S
C727 C38 1.752 . S
C767 C391 1.703 . S
C759 C5 1.690 . S
C791 C49 1.484 . S
C799 C170 1.513 . S
C831 C127 1.747 1_655 S
C823 C60 1.765 . S
C855 C76 1.493 . S
C863 C163 1.494 . S
C887 C81 1.720 . S
C895 C126 1.714 . S
C927 C338 1.530 . S
C919 C54 1.523 . S
C959 C382 1.700 . S
C951 C59 1.712 . S
C991 C216 1.596 . S
C983 C70 1.579 . S
C1015 C87 1.628 . S
C1023 C285 1.623 . S
C1055 C339 1.655 . S
C1047 C65 1.682 . S
C1087 C375 1.743 . S
C1079 C71 1.707 . S
C1119 C223 1.577 . S
C1111 C82 1.592 . S
C1143 C48 1.559 . S
C1151 C286 1.554 . S
