# Generated by pormake.
# Topology pyr, (3,6)-cn, num edge types: 1
# Building blocks:
#     Node 0, Type 0, BuildingBlock: VETTIZ_charged_linker_0, # of connection points: 3
#     Node 1, Type 0, BuildingBlock: VETTIZ_charged_linker_0, # of connection points: 3
#     Node 2, Type 0, BuildingBlock: VETTIZ_charged_linker_0, # of connection points: 3
#     Node 3, Type 0, BuildingBlock: VETTIZ_charged_linker_0, # of connection points: 3
#     Node 4, Type 0, BuildingBlock: VETTIZ_charged_linker_0, # of connection points: 3
#     Node 5, Type 0, BuildingBlock: VETTIZ_charged_linker_0, # of connection points: 3
#     Node 6, Type 0, BuildingBlock: VETTIZ_charged_linker_0, # of connection points: 3
#     Node 7, Type 0, BuildingBlock: VETTIZ_charged_linker_0, # of connection points: 3
#     Node 8, Type 1, BuildingBlock: MIFKUJ_clean_sbu_0, # of connection points: 6
#     Node 9, Type 1, BuildingBlock: MIFKUJ_clean_sbu_0, # of connection points: 6
#     Node 10, Type 1, BuildingBlock: MIFKUJ_clean_sbu_0, # of connection points: 6
#     Node 11, Type 1, BuildingBlock: MIFKUJ_clean_sbu_0, # of connection points: 6
#     Edge 12, Type (0, 1), BuildingBlock: XIVTED_clean_linker_0, # of connection points: 2
#     Edge 13, Type (0, 1), BuildingBlock: XIVTED_clean_linker_0, # of connection points: 2
#     Edge 14, Type (0, 1), BuildingBlock: XIVTED_clean_linker_0, # of connection points: 2
#     Edge 15, Type (0, 1), BuildingBlock: XIVTED_clean_linker_0, # of connection points: 2
#     Edge 16, Type (0, 1), BuildingBlock: XIVTED_clean_linker_0, # of connection points: 2
#     Edge 17, Type (0, 1), BuildingBlock: XIVTED_clean_linker_0, # of connection points: 2
#     Edge 18, Type (0, 1), BuildingBlock: XIVTED_clean_linker_0, # of connection points: 2
#     Edge 19, Type (0, 1), BuildingBlock: XIVTED_clean_linker_0, # of connection points: 2
#     Edge 20, Type (0, 1), BuildingBlock: XIVTED_clean_linker_0, # of connection points: 2
#     Edge 21, Type (0, 1), BuildingBlock: XIVTED_clean_linker_0, # of connection points: 2
#     Edge 22, Type (0, 1), BuildingBlock: XIVTED_clean_linker_0, # of connection points: 2
#     Edge 23, Type (0, 1), BuildingBlock: XIVTED_clean_linker_0, # of connection points: 2
#     Edge 24, Type (0, 1), BuildingBlock: XIVTED_clean_linker_0, # of connection points: 2
#     Edge 25, Type (0, 1), BuildingBlock: XIVTED_clean_linker_0, # of connection points: 2
#     Edge 26, Type (0, 1), BuildingBlock: XIVTED_clean_linker_0, # of connection points: 2
#     Edge 27, Type (0, 1), BuildingBlock: XIVTED_clean_linker_0, # of connection points: 2
#     Edge 28, Type (0, 1), BuildingBlock: XIVTED_clean_linker_0, # of connection points: 2
#     Edge 29, Type (0, 1), BuildingBlock: XIVTED_clean_linker_0, # of connection points: 2
#     Edge 30, Type (0, 1), BuildingBlock: XIVTED_clean_linker_0, # of connection points: 2
#     Edge 31, Type (0, 1), BuildingBlock: XIVTED_clean_linker_0, # of connection points: 2
#     Edge 32, Type (0, 1), BuildingBlock: XIVTED_clean_linker_0, # of connection points: 2
#     Edge 33, Type (0, 1), BuildingBlock: XIVTED_clean_linker_0, # of connection points: 2
#     Edge 34, Type (0, 1), BuildingBlock: XIVTED_clean_linker_0, # of connection points: 2
#     Edge 35, Type (0, 1), BuildingBlock: XIVTED_clean_linker_0, # of connection points: 2
# Relax obj value: 0.027
# Max RMSD: 0.079
# Mean RMSD: 0.047
data_MOF--net-pyr--node1-MIFKUJ_clean_sbu_0--node2-VETTIZ_charged_linker_0--edge1-XIVTED_clean_linker_0
_symmetry_space_group_name_H-M    P1
_symmetry_Int_Tables_number       1
_symmetry_cell_setting            triclinic
loop_
_symmetry_equiv_pos_as_xyz
'x, y, z'
_cell_length_a     47.953639
_cell_length_b     43.201049
_cell_length_c     46.55044
_cell_angle_alpha  86.07837
_cell_angle_beta   88.709093
_cell_angle_gamma 95.831524
loop_
_atom_site_label
_atom_site_type_symbol
_atom_site_fract_x
_atom_site_fract_y
_atom_site_fract_z
_atom_type_partial_charge
C0 C 0.17891 0.13972 0.30808 0.0
C1 C 0.15733 0.15308 0.32234 0.0
C2 C 0.15119 0.18324 0.31269 0.0
C3 C 0.1836 0.18353 0.27223 0.0
C4 C 0.19193 0.15553 0.2832 0.0
C5 C 0.21473 0.14475 0.26465 0.0
H6 H 0.28713 0.15952 0.13713 0.0
C7 C 0.19834 0.19211 0.24432 0.0
C8 C 0.21725 0.17 0.23999 0.0
H9 H 0.29624 0.09354 0.20969 0.0
H10 H 0.26204 0.11745 0.23731 0.0
H11 H 0.2878 0.21917 0.17317 0.0
H12 H 0.2206 0.15731 0.14282 0.0
H13 H 0.21156 0.19544 0.1364 0.0
H14 H 0.24274 0.18446 0.1193 0.0
H15 H 0.27773 0.22129 0.13626 0.0
H16 H 0.26128 0.24252 0.16294 0.0
C17 C 0.24183 0.14505 0.2822 0.0
C18 C 0.20416 0.11239 0.25444 0.0
C19 C 0.16059 0.27293 0.17556 0.0
C20 C 0.16745 0.28328 0.14673 0.0
C21 C 0.19151 0.27348 0.13353 0.0
C22 C 0.20745 0.2524 0.14821 0.0
C23 C 0.19925 0.24081 0.17638 0.0
C24 C 0.17674 0.25186 0.18992 0.0
C25 C 0.17146 0.2375 0.22013 0.0
C26 C 0.19385 0.21496 0.222 0.0
C27 C 0.20975 0.21675 0.19618 0.0
C28 C 0.17642 0.26357 0.24136 0.0
C29 C 0.14142 0.22033 0.22196 0.0
C30 C 0.28218 0.15042 0.15911 0.0
C31 C 0.29443 0.12449 0.17112 0.0
C32 C 0.28684 0.11318 0.19969 0.0
C33 C 0.26712 0.12722 0.21579 0.0
C34 C 0.25476 0.15278 0.20321 0.0
C35 C 0.26269 0.1642 0.17547 0.0
C36 C 0.24759 0.19159 0.16552 0.0
C37 C 0.22961 0.19514 0.19206 0.0
C38 C 0.23354 0.17206 0.21393 0.0
C39 C 0.26958 0.22021 0.15887 0.0
C40 C 0.22976 0.18206 0.13954 0.0
H41 H 0.15799 0.22091 0.28103 0.0
H42 H 0.18457 0.11687 0.31521 0.0
H43 H 0.18234 0.11237 0.24681 0.0
H44 H 0.21668 0.10563 0.23618 0.0
H45 H 0.20417 0.09396 0.27228 0.0
H46 H 0.24234 0.16268 0.29857 0.0
H47 H 0.24349 0.12199 0.29377 0.0
H48 H 0.26099 0.15183 0.2686 0.0
H49 H 0.14233 0.27999 0.18644 0.0
H50 H 0.19784 0.28179 0.11164 0.0
H51 H 0.22516 0.24538 0.13677 0.0
H52 H 0.18903 0.28469 0.23118 0.0
H53 H 0.15628 0.27102 0.24924 0.0
H54 H 0.18866 0.25621 0.2601 0.0
H55 H 0.13796 0.20548 0.20349 0.0
H56 H 0.1371 0.20463 0.24152 0.0
H57 H 0.12544 0.23725 0.22133 0.0
H58 H 0.13557 0.1947 0.32393 0.0
C59 C 0.16423 0.1985 0.28778 0.0
C60 C 0.25205 0.87061 0.63397 0.0
C61 C 0.23712 0.89207 0.6477 0.0
C62 C 0.24727 0.90362 0.67353 0.0
C63 C 0.28626 0.87209 0.67164 0.0
C64 C 0.27639 0.86101 0.64623 0.0
C65 C 0.2946 0.83839 0.6342 0.0
H66 H 0.40516 0.7538 0.64843 0.0
C67 C 0.31191 0.85713 0.67866 0.0
C68 C 0.31689 0.8374 0.65675 0.0
H69 H 0.34768 0.75765 0.57819 0.0
H70 H 0.32354 0.79562 0.60145 0.0
H71 H 0.41411 0.82805 0.65269 0.0
H72 H 0.36007 0.75522 0.69941 0.0
H73 H 0.37336 0.78096 0.7246 0.0
H74 H 0.39723 0.7606 0.70425 0.0
H75 H 0.42695 0.80185 0.67966 0.0
H76 H 0.4133 0.83749 0.68873 0.0
C77 C 0.30693 0.8525 0.6045 0.0
C78 C 0.27668 0.80655 0.6333 0.0
C79 C 0.36391 0.88108 0.76999 0.0
C80 C 0.38774 0.86985 0.78242 0.0
C81 C 0.40156 0.84762 0.76832 0.0
C82 C 0.39188 0.83672 0.74234 0.0
C83 C 0.36804 0.84808 0.73021 0.0
C84 C 0.35441 0.86982 0.74401 0.0
C85 C 0.32917 0.87883 0.72803 0.0
C86 C 0.33018 0.85921 0.70223 0.0
C87 C 0.35302 0.84128 0.70366 0.0
C88 C 0.33389 0.9142 0.71905 0.0
C89 C 0.30278 0.86891 0.74761 0.0
C90 C 0.38757 0.76304 0.63787 0.0
C91 C 0.3782 0.75228 0.61152 0.0
C92 C 0.35503 0.76489 0.59876 0.0
C93 C 0.34109 0.78716 0.61223 0.0
C94 C 0.35037 0.79717 0.63878 0.0
C95 C 0.37347 0.78546 0.65097 0.0
C96 C 0.38073 0.79946 0.67891 0.0
C97 C 0.35799 0.82124 0.68156 0.0
C98 C 0.34017 0.81958 0.65812 0.0
C99 C 0.41036 0.81753 0.67511 0.0
C100 C 0.37796 0.77284 0.70319 0.0
H101 H 0.27828 0.90328 0.7053 0.0
H102 H 0.24515 0.8617 0.61383 0.0
H103 H 0.26275 0.80172 0.65289 0.0
H104 H 0.28933 0.78662 0.63315 0.0
H105 H 0.26314 0.80633 0.61425 0.0
H106 H 0.30949 0.87844 0.60361 0.0
H107 H 0.29303 0.84547 0.58679 0.0
H108 H 0.32823 0.84604 0.59994 0.0
H109 H 0.35266 0.89793 0.78043 0.0
H110 H 0.42018 0.83891 0.7772 0.0
H111 H 0.40338 0.81988 0.73273 0.0
H112 H 0.35623 0.92128 0.71258 0.0
H113 H 0.3285 0.92822 0.73713 0.0
H114 H 0.32189 0.92096 0.70008 0.0
H115 H 0.30497 0.84669 0.76052 0.0
H116 H 0.28357 0.86411 0.73536 0.0
H117 H 0.29937 0.8869 0.76291 0.0
H118 H 0.23607 0.92001 0.68466 0.0
C119 C 0.27171 0.89374 0.68557 0.0
C120 C 0.62705 0.2617 0.87964 0.0
C121 C 0.6017 0.24677 0.8703 0.0
C122 C 0.58945 0.25984 0.84562 0.0
C123 C 0.62762 0.30148 0.84001 0.0
C124 C 0.63956 0.28882 0.86425 0.0
C125 C 0.66657 0.30731 0.87122 0.0
H126 H 0.76551 0.4289 0.83884 0.0
C127 C 0.6461 0.32954 0.82888 0.0
C128 C 0.66895 0.33309 0.8471 0.0
H129 H 0.76267 0.3583 0.90973 0.0
H130 H 0.71877 0.33458 0.89381 0.0
H131 H 0.69903 0.43932 0.84278 0.0
H132 H 0.74392 0.38097 0.79033 0.0
H133 H 0.72029 0.39997 0.76871 0.0
H134 H 0.74831 0.42279 0.78518 0.0
H135 H 0.72301 0.4553 0.81409 0.0
H136 H 0.68692 0.44253 0.8074 0.0
C137 C 0.6627 0.32022 0.90116 0.0
C138 C 0.69047 0.28586 0.86919 0.0
C139 C 0.61992 0.39119 0.73835 0.0
C140 C 0.63265 0.41779 0.72209 0.0
C141 C 0.65803 0.43261 0.73169 0.0
C142 C 0.67057 0.42094 0.75669 0.0
C143 C 0.65767 0.3941 0.77244 0.0
C144 C 0.6327 0.37982 0.76314 0.0
C145 C 0.62182 0.35155 0.7823 0.0
C146 C 0.64431 0.35108 0.80467 0.0
C147 C 0.66538 0.37603 0.7989 0.0
C148 C 0.59311 0.35754 0.79561 0.0
C149 C 0.62085 0.3227 0.76414 0.0
C150 C 0.75551 0.40821 0.85082 0.0
C151 C 0.76773 0.39565 0.87577 0.0
C152 C 0.75368 0.36889 0.89081 0.0
C153 C 0.72818 0.35493 0.88137 0.0
C154 C 0.71632 0.36765 0.85648 0.0
C155 C 0.72988 0.39391 0.84164 0.0
C156 C 0.71387 0.40413 0.81569 0.0
C157 C 0.68861 0.37961 0.81742 0.0
C158 C 0.69028 0.35828 0.84138 0.0
C159 C 0.70531 0.43714 0.81991 0.0
C160 C 0.73247 0.40214 0.78842 0.0
H161 H 0.59184 0.29559 0.81186 0.0
H162 H 0.63693 0.25266 0.89869 0.0
H163 H 0.68682 0.26991 0.85156 0.0
H164 H 0.71116 0.29886 0.86378 0.0
H165 H 0.69184 0.2712 0.88956 0.0
H166 H 0.64082 0.32596 0.90461 0.0
H167 H 0.6671 0.30287 0.91876 0.0
H168 H 0.67589 0.34232 0.90358 0.0
H169 H 0.6002 0.37943 0.73207 0.0
H170 H 0.66851 0.45294 0.71957 0.0
H171 H 0.68994 0.43315 0.7627 0.0
H172 H 0.59291 0.38249 0.80012 0.0
H173 H 0.57583 0.35176 0.78075 0.0
H174 H 0.58824 0.34447 0.81664 0.0
H175 H 0.63861 0.32505 0.74807 0.0
H176 H 0.62317 0.30082 0.77715 0.0
H177 H 0.60109 0.31987 0.75214 0.0
H178 H 0.57018 0.24873 0.83763 0.0
C179 C 0.60221 0.28702 0.83051 0.0
C180 C 0.89519 0.73182 0.33787 0.0
C181 C 0.88546 0.7434 0.36339 0.0
C182 C 0.85923 0.73082 0.37558 0.0
C183 C 0.85332 0.69501 0.33793 0.0
C184 C 0.87885 0.70753 0.32564 0.0
C185 C 0.88621 0.69158 0.2991 0.0
H186 H 0.85755 0.57252 0.21348 0.0
C187 C 0.84181 0.66969 0.32052 0.0
C188 C 0.86092 0.66745 0.29769 0.0
H189 H 0.92688 0.6455 0.20542 0.0
H190 H 0.90815 0.6695 0.24557 0.0
H191 H 0.8517 0.56363 0.28386 0.0
H192 H 0.81219 0.62014 0.22009 0.0
H193 H 0.78724 0.60961 0.24813 0.0
H194 H 0.80038 0.57964 0.22789 0.0
H195 H 0.82887 0.54801 0.25712 0.0
H196 H 0.81505 0.55937 0.29053 0.0
C197 C 0.91356 0.67623 0.30479 0.0
C198 C 0.88824 0.71598 0.27293 0.0
C199 C 0.74889 0.60838 0.35148 0.0
C200 C 0.73211 0.58398 0.33978 0.0
C201 C 0.74172 0.57207 0.31422 0.0
C202 C 0.76752 0.58397 0.30089 0.0
C203 C 0.78394 0.60828 0.31299 0.0
C204 C 0.77431 0.62029 0.33766 0.0
C205 C 0.79389 0.64685 0.34699 0.0
C206 C 0.81688 0.6489 0.32382 0.0
C207 C 0.8112 0.62601 0.30416 0.0
C208 C 0.8046 0.63708 0.37714 0.0
C209 C 0.77807 0.67649 0.34582 0.0
C210 C 0.86873 0.59377 0.22008 0.0
C211 C 0.89432 0.60641 0.20637 0.0
C212 C 0.90779 0.63431 0.216 0.0
C213 C 0.89674 0.64851 0.23927 0.0
C214 C 0.8717 0.63506 0.25313 0.0
C215 C 0.85773 0.60861 0.24303 0.0
C216 C 0.83029 0.59895 0.25915 0.0
C217 C 0.83078 0.6232 0.28134 0.0
C218 C 0.85529 0.64408 0.2779 0.0
C219 C 0.83127 0.56566 0.27339 0.0
C220 C 0.80615 0.60196 0.23785 0.0
H221 H 0.82348 0.6983 0.37353 0.0
H222 H 0.91528 0.74098 0.32801 0.0
H223 H 0.8738 0.73419 0.27591 0.0
H224 H 0.8817 0.70569 0.25273 0.0
H225 H 0.90982 0.72795 0.26983 0.0
H226 H 0.91295 0.66468 0.32694 0.0
H227 H 0.93212 0.69394 0.30283 0.0
H228 H 0.91691 0.65773 0.29032 0.0
H229 H 0.74266 0.61797 0.37123 0.0
H230 H 0.72918 0.55373 0.30423 0.0
H231 H 0.77368 0.5738 0.28164 0.0
H232 H 0.80699 0.61167 0.37924 0.0
H233 H 0.78973 0.64192 0.39451 0.0
H234 H 0.82564 0.64851 0.38127 0.0
H235 H 0.76278 0.67619 0.32818 0.0
H236 H 0.79208 0.69823 0.34091 0.0
H237 H 0.7662 0.67824 0.36631 0.0
H238 H 0.85097 0.73973 0.39488 0.0
C239 C 0.84316 0.70682 0.36303 0.0
C240 C 0.83285 0.72734 0.85696 0.0
C241 C 0.85754 0.71648 0.84636 0.0
C242 C 0.86848 0.72822 0.81893 0.0
C243 C 0.83192 0.7628 0.81438 0.0
C244 C 0.82056 0.75057 0.84076 0.0
C245 C 0.79552 0.76637 0.84977 0.0
H246 H 0.71534 0.88529 0.82698 0.0
C247 C 0.81581 0.78853 0.80429 0.0
C248 C 0.79446 0.79084 0.8249 0.0
H249 H 0.70652 0.81219 0.89588 0.0
H250 H 0.74496 0.78838 0.87514 0.0
H251 H 0.72505 0.83819 0.77529 0.0
H252 H 0.77947 0.89692 0.82576 0.0
H253 H 0.79547 0.89861 0.79137 0.0
H254 H 0.76148 0.91258 0.79559 0.0
H255 H 0.72731 0.88003 0.77195 0.0
H256 H 0.75085 0.859 0.75194 0.0
C257 C 0.76938 0.74202 0.85125 0.0
C258 C 0.80207 0.78122 0.87855 0.0
C259 C 0.8481 0.85431 0.71303 0.0
C260 C 0.84044 0.8826 0.7007 0.0
C261 C 0.81815 0.89637 0.71308 0.0
C262 C 0.80356 0.88198 0.73768 0.0
C263 C 0.8118 0.85389 0.75023 0.0
C264 C 0.83381 0.84063 0.73793 0.0
C265 C 0.8413 0.81234 0.75546 0.0
C266 C 0.81973 0.81035 0.78002 0.0
C267 C 0.80239 0.83453 0.77671 0.0
C268 C 0.83676 0.78396 0.73688 0.0
C269 C 0.87176 0.81921 0.76581 0.0
C270 C 0.72135 0.8639 0.83743 0.0
C271 C 0.70787 0.85069 0.86318 0.0
C272 C 0.71681 0.82313 0.87628 0.0
C273 C 0.73905 0.80924 0.86412 0.0
C274 C 0.75261 0.82311 0.83866 0.0
C275 C 0.74342 0.84973 0.82556 0.0
C276 C 0.76004 0.86113 0.79848 0.0
C277 C 0.78069 0.83688 0.79742 0.0
C278 C 0.77647 0.81486 0.82115 0.0
C279 C 0.73991 0.8598 0.77294 0.0
C280 C 0.77481 0.89409 0.80272 0.0
H281 H 0.86533 0.75941 0.7824 0.0
H282 H 0.82356 0.71843 0.87768 0.0
H283 H 0.82413 0.79211 0.87827 0.0
H284 H 0.78914 0.80019 0.88281 0.0
H285 H 0.79929 0.76337 0.89701 0.0
H286 H 0.77114 0.72456 0.83498 0.0
H287 H 0.76681 0.72914 0.87279 0.0
H288 H 0.74986 0.75255 0.84612 0.0
H289 H 0.86566 0.84376 0.70417 0.0
H290 H 0.81219 0.91833 0.70378 0.0
H291 H 0.7868 0.89357 0.74625 0.0
H292 H 0.81713 0.78471 0.72467 0.0
H293 H 0.8544 0.78384 0.72102 0.0
H294 H 0.83422 0.76142 0.74986 0.0
H295 H 0.87793 0.8447 0.76638 0.0
H296 H 0.8744 0.80977 0.78816 0.0
H297 H 0.88712 0.80989 0.75134 0.0
H298 H 0.88757 0.72061 0.81026 0.0
C299 C 0.85571 0.75111 0.80286 0.0
C300 C 0.74858 0.12331 0.36589 0.0
C301 C 0.76126 0.09969 0.35276 0.0
C302 C 0.74918 0.08736 0.32808 0.0
C303 C 0.71246 0.12185 0.33015 0.0
C304 C 0.72434 0.13397 0.35429 0.0
C305 C 0.70828 0.15888 0.36571 0.0
H306 H 0.59599 0.24168 0.35711 0.0
C307 C 0.68742 0.13804 0.3236 0.0
C308 C 0.6849 0.15983 0.34435 0.0
H309 H 0.66191 0.24755 0.41911 0.0
H310 H 0.68478 0.20852 0.39569 0.0
H311 H 0.59021 0.16647 0.35371 0.0
H312 H 0.63559 0.24352 0.30393 0.0
H313 H 0.62798 0.21492 0.27946 0.0
H314 H 0.59961 0.23133 0.29729 0.0
H315 H 0.57404 0.19482 0.3315 0.0
H316 H 0.58555 0.16059 0.317 0.0
C317 C 0.69704 0.14746 0.39649 0.0
C318 C 0.72781 0.18985 0.36399 0.0
C319 C 0.62723 0.10855 0.23891 0.0
C320 C 0.60335 0.12051 0.22715 0.0
C321 C 0.59272 0.1459 0.23973 0.0
C322 C 0.60491 0.15845 0.26391 0.0
C323 C 0.6283 0.14587 0.27569 0.0
C324 C 0.63944 0.12174 0.26294 0.0
C325 C 0.66532 0.11261 0.2777 0.0
C326 C 0.66748 0.13496 0.3016 0.0
C327 C 0.64551 0.15405 0.30045 0.0
C328 C 0.65949 0.0782 0.28976 0.0
C329 C 0.69043 0.11898 0.2558 0.0
C330 C 0.61548 0.23485 0.36559 0.0
C331 C 0.62694 0.24773 0.39021 0.0
C332 C 0.65222 0.23768 0.40055 0.0
C333 C 0.66562 0.21512 0.38678 0.0
C334 C 0.65375 0.20243 0.3623 0.0
C335 C 0.62922 0.21258 0.35198 0.0
C336 C 0.61998 0.19731 0.32527 0.0
C337 C 0.6427 0.17578 0.32157 0.0
C338 C 0.66235 0.17875 0.34336 0.0
C339 C 0.59084 0.1789 0.33193 0.0
C340 C 0.62057 0.22293 0.30012 0.0
H341 H 0.71667 0.08786 0.29802 0.0
H342 H 0.75749 0.13358 0.38465 0.0
H343 H 0.74208 0.19169 0.34462 0.0
H344 H 0.71625 0.21068 0.36163 0.0
H345 H 0.74106 0.19143 0.38321 0.0
H346 H 0.69036 0.12196 0.39789 0.0
H347 H 0.71345 0.15179 0.41262 0.0
H348 H 0.67822 0.15826 0.40298 0.0
H349 H 0.63611 0.08916 0.22989 0.0
H350 H 0.57502 0.15645 0.23073 0.0
H351 H 0.5956 0.17751 0.27246 0.0
H352 H 0.6377 0.0734 0.29887 0.0
H353 H 0.66191 0.06199 0.27256 0.0
H354 H 0.67308 0.07221 0.30769 0.0
H355 H 0.68787 0.13947 0.24062 0.0
H356 H 0.71056 0.12507 0.26614 0.0
H357 H 0.69233 0.09865 0.24278 0.0
H358 H 0.7583 0.06889 0.31775 0.0
C359 C 0.72489 0.0983 0.31673 0.0
C360 C 0.38345 0.61059 0.27148 0.0
C361 C 0.37226 0.58335 0.28777 0.0
C362 C 0.34766 0.56674 0.27824 0.0
C363 C 0.34583 0.60478 0.23739 0.0
C364 C 0.37002 0.6208 0.2467 0.0
C365 C 0.37948 0.64948 0.22752 0.0
H366 H 0.36067 0.74516 0.11012 0.0
C367 C 0.33726 0.62199 0.21077 0.0
C368 C 0.35708 0.6482 0.20506 0.0
H369 H 0.42635 0.75454 0.1721 0.0
H370 H 0.40667 0.70699 0.19824 0.0
H371 H 0.31092 0.7259 0.15657 0.0
H372 H 0.36099 0.67281 0.10488 0.0
H373 H 0.32696 0.65349 0.10595 0.0
H374 H 0.33307 0.69308 0.09031 0.0
H375 H 0.30608 0.7231 0.1187 0.0
H376 H 0.28812 0.69509 0.14514 0.0
C377 C 0.3786 0.67827 0.24555 0.0
C378 C 0.40879 0.64551 0.21438 0.0
C379 C 0.24945 0.58373 0.15718 0.0
C380 C 0.23733 0.59532 0.13175 0.0
C381 C 0.25032 0.62285 0.11708 0.0
C382 C 0.27476 0.63842 0.12717 0.0
C383 C 0.28669 0.62658 0.15236 0.0
C384 C 0.27416 0.59965 0.167 0.0
C385 C 0.29032 0.59065 0.19331 0.0
C386 C 0.3144 0.6167 0.19196 0.0
C387 C 0.31196 0.63764 0.16787 0.0
C388 C 0.27104 0.59138 0.22026 0.0
C389 C 0.30082 0.55848 0.18937 0.0
C390 C 0.37071 0.73718 0.12947 0.0
C391 C 0.39518 0.7538 0.13895 0.0
C392 C 0.40773 0.74209 0.16401 0.0
C393 C 0.39613 0.71451 0.17933 0.0
C394 C 0.37161 0.69828 0.16961 0.0
C395 C 0.35936 0.70971 0.14506 0.0
C396 C 0.3334 0.68949 0.13791 0.0
C397 C 0.33202 0.66404 0.16225 0.0
C398 C 0.35443 0.66929 0.18074 0.0
C399 C 0.30821 0.70925 0.13939 0.0
C400 C 0.33856 0.6766 0.10816 0.0
H401 H 0.31569 0.56377 0.24724 0.0
H402 H 0.40255 0.62372 0.27767 0.0
H403 H 0.41047 0.62076 0.20997 0.0
H404 H 0.41314 0.6587 0.19333 0.0
H405 H 0.42567 0.65253 0.2293 0.0
H406 H 0.36092 0.67465 0.26174 0.0
H407 H 0.39828 0.68278 0.2574 0.0
H408 H 0.37481 0.69965 0.23246 0.0
H409 H 0.24015 0.56255 0.16894 0.0
H410 H 0.2413 0.63274 0.09786 0.0
H411 H 0.28338 0.65922 0.11489 0.0
H412 H 0.25895 0.61205 0.21842 0.0
H413 H 0.25576 0.57018 0.22285 0.0
H414 H 0.28277 0.5935 0.24026 0.0
H415 H 0.30821 0.55693 0.16674 0.0
H416 H 0.31895 0.55414 0.20268 0.0
H417 H 0.28377 0.53935 0.19441 0.0
H418 H 0.33837 0.54581 0.29039 0.0
C419 C 0.3344 0.57731 0.25323 0.0
C420 C 0.11357 0.27434 0.64554 0.0
C421 C 0.12515 0.26182 0.62131 0.0
C422 C 0.15292 0.27244 0.61218 0.0
C423 C 0.15676 0.30801 0.65015 0.0
C424 C 0.12975 0.29737 0.6596 0.0
C425 C 0.12102 0.31331 0.6857 0.0
H426 H 0.1524 0.42142 0.78256 0.0
C427 C 0.16784 0.33224 0.66893 0.0
C428 C 0.14712 0.33553 0.68992 0.0
H429 H 0.07642 0.35894 0.77834 0.0
H430 H 0.09538 0.33678 0.7369 0.0
H431 H 0.15955 0.43898 0.7138 0.0
H432 H 0.19516 0.3704 0.76957 0.0
H433 H 0.22182 0.38867 0.74579 0.0
H434 H 0.20498 0.41153 0.77071 0.0
H435 H 0.18592 0.44959 0.73912 0.0
H436 H 0.19505 0.43908 0.70354 0.0
C437 C 0.09545 0.33102 0.67779 0.0
C438 C 0.11542 0.28828 0.71119 0.0
C439 C 0.26472 0.38795 0.64642 0.0
C440 C 0.28065 0.41279 0.65828 0.0
C441 C 0.26975 0.42559 0.68274 0.0
C442 C 0.24321 0.41421 0.69473 0.0
C443 C 0.22733 0.38976 0.68214 0.0
C444 C 0.23831 0.37705 0.65847 0.0
C445 C 0.2186 0.35167 0.64742 0.0
C446 C 0.1938 0.35123 0.66825 0.0
C447 C 0.19895 0.37345 0.68863 0.0
C448 C 0.21125 0.36212 0.61616 0.0
C449 C 0.23265 0.32085 0.65048 0.0
C450 C 0.13975 0.40316 0.77255 0.0
C451 C 0.11285 0.39195 0.78382 0.0
C452 C 0.09731 0.36778 0.77035 0.0
C453 C 0.1083 0.35502 0.74617 0.0
C454 C 0.1352 0.36644 0.73521 0.0
C455 C 0.15049 0.39006 0.74843 0.0
C456 C 0.17885 0.39901 0.734 0.0
C457 C 0.17808 0.37681 0.71005 0.0
C458 C 0.15237 0.35786 0.71077 0.0
C459 C 0.18021 0.43351 0.72208 0.0
C460 C 0.20156 0.39233 0.75606 0.0
H461 H 0.18962 0.30231 0.6182 0.0
H462 H 0.09233 0.26669 0.65321 0.0
H463 H 0.12987 0.2698 0.70987 0.0
H464 H 0.11932 0.29777 0.73233 0.0
H465 H 0.09362 0.27679 0.71119 0.0
H466 H 0.09812 0.34224 0.65553 0.0
H467 H 0.07583 0.31488 0.67875 0.0
H468 H 0.09268 0.35024 0.69167 0.0
H469 H 0.27256 0.37712 0.62798 0.0
H470 H 0.28147 0.44489 0.69223 0.0
H471 H 0.23596 0.42509 0.71315 0.0
H472 H 0.21095 0.38788 0.61339 0.0
H473 H 0.22688 0.35556 0.60031 0.0
H474 H 0.19007 0.35264 0.61022 0.0
H475 H 0.24607 0.32019 0.66966 0.0
H476 H 0.21733 0.29996 0.65407 0.0
H477 H 0.24619 0.31826 0.6313 0.0
H478 H 0.16275 0.26268 0.59419 0.0
C479 C 0.16868 0.29537 0.62638 0.0
Zn480 Zn 0.03161 0.00689 0.52713 0.0
Zn481 Zn 0.97006 0.99321 0.47448 0.0
C482 C 0.05506 0.07097 0.5268 0.0
O483 O 0.07426 0.06119 0.51007 0.0
C484 C 0.95453 0.93077 0.46304 0.0
O485 O 0.93778 0.93417 0.48503 0.0
O486 O 0.06424 0.99008 0.54698 0.0
O487 O 0.99654 0.98608 0.54737 0.0
O488 O 0.96195 0.98161 0.5165 0.0
C489 C 0.06681 0.9611 0.55045 0.0
O490 O 0.04758 0.94103 0.54053 0.0
O491 O 0.03412 0.05211 0.5357 0.0
C492 C 0.93433 0.01726 0.43229 0.0
O493 O 0.95475 0.01073 0.41515 0.0
O494 O 0.93621 0.01194 0.45933 0.0
O495 O 0.00295 0.02434 0.46312 0.0
O496 O 0.03718 0.00235 0.48449 0.0
O497 O 0.972 0.95362 0.45387 0.0
C498 C 0.97105 0.97847 0.54182 0.0
C499 C 0.02895 0.02268 0.46654 0.0
Zn500 Zn 0.51975 0.98214 0.99067 0.0
Zn501 Zn 0.47411 0.01506 0.01382 0.0
C502 C 0.48614 0.94272 0.95649 0.0
O503 O 0.49857 0.92234 0.97258 0.0
C504 C 0.50328 0.05234 0.05227 0.0
O505 O 0.48789 0.0721 0.03909 0.0
O506 O 0.55357 0.96212 0.97837 0.0
O507 O 0.5313 0.02846 0.98754 0.0
O508 O 0.48897 0.03996 0.97711 0.0
C509 C 0.56139 0.96716 0.95207 0.0
O510 O 0.54809 0.98611 0.93529 0.0
O511 O 0.4913 0.97155 0.96044 0.0
C512 C 0.42874 0.01988 0.05177 0.0
O513 O 0.43922 0.99522 0.06346 0.0
O514 O 0.43966 0.03292 0.02827 0.0
O515 O 0.46333 0.96847 0.01539 0.0
O516 O 0.50552 0.95977 0.0285 0.0
O517 O 0.50218 0.02463 0.04447 0.0
C518 C 0.51543 0.04685 0.97531 0.0
C519 C 0.47929 0.9516 0.02941 0.0
Zn520 Zn 0.51428 0.47224 0.48839 0.0
Zn521 Zn 0.49947 0.53056 0.51594 0.0
C522 C 0.55285 0.49463 0.44364 0.0
O523 O 0.53594 0.47435 0.43088 0.0
C524 C 0.46289 0.50155 0.56053 0.0
O525 O 0.48107 0.51822 0.57542 0.0
O526 O 0.52004 0.42955 0.4758 0.0
O527 O 0.51773 0.46876 0.53175 0.0
O528 O 0.53478 0.51747 0.53475 0.0
C529 C 0.5403 0.41639 0.48665 0.0
O530 O 0.55487 0.42996 0.50671 0.0
O531 O 0.54755 0.49957 0.46975 0.0
C532 C 0.46755 0.57987 0.52277 0.0
O533 O 0.45173 0.56152 0.50698 0.0
O534 O 0.49161 0.57225 0.52951 0.0
O535 O 0.49573 0.53472 0.47245 0.0
O536 O 0.47915 0.48575 0.47 0.0
O537 O 0.46676 0.5017 0.53339 0.0
C538 C 0.53325 0.48901 0.54427 0.0
C539 C 0.48017 0.51411 0.46034 0.0
Zn540 Zn 0.99359 0.51994 0.97948 0.0
Zn541 Zn 0.01702 0.46852 0.02001 0.0
C542 C 0.95362 0.48746 0.94614 0.0
O543 O 0.97133 0.50209 0.92658 0.0
C544 C 0.05507 0.50033 0.05583 0.0
O545 O 0.03641 0.4854 0.07429 0.0
O546 O 0.98385 0.55897 0.95802 0.0
O547 O 0.9963 0.53017 0.02118 0.0
O548 O 0.98208 0.48248 0.03832 0.0
C549 C 0.96353 0.57165 0.96857 0.0
O550 O 0.95221 0.56039 0.99358 0.0
O551 O 0.95915 0.48968 0.97264 0.0
C552 C 0.04657 0.41687 0.03104 0.0
O553 O 0.05772 0.42845 0.00607 0.0
O554 O 0.02623 0.42933 0.04185 0.0
O555 O 0.01681 0.4584 0.97808 0.0
O556 O 0.02733 0.50621 0.95917 0.0
O557 O 0.05096 0.49863 0.02898 0.0
C558 C 0.98323 0.51171 0.04048 0.0
C559 C 0.02803 0.47706 0.95783 0.0
H560 H 0.10077 0.15167 0.3301 0.0
H561 H 0.08612 0.02086 0.46096 0.0
H562 H 0.17256 0.11229 0.36633 0.0
H563 H 0.01812 0.06968 0.4277 0.0
H564 H 0.11862 0.0535 0.42721 0.0
H565 H 0.07075 0.12136 0.36646 0.0
C566 C 0.11035 0.13698 0.346 0.0
C567 C 0.13938 0.13492 0.34531 0.0
C568 C 0.09659 0.05704 0.42743 0.0
C569 C 0.10468 0.09918 0.38691 0.0
C570 C 0.07803 0.03843 0.44664 0.0
C571 C 0.0493 0.0424 0.44705 0.0
C572 C 0.08626 0.07962 0.40851 0.0
C573 C 0.04001 0.06557 0.42809 0.0
C574 C 0.09308 0.11939 0.3667 0.0
C575 C 0.1503 0.11454 0.36598 0.0
N576 N 0.05839 0.08316 0.4096 0.0
N577 N 0.13291 0.09738 0.38597 0.0
H578 H 0.39369 0.92991 0.79904 0.0
H579 H 0.46923 0.88281 0.94489 0.0
H580 H 0.40617 0.83553 0.82836 0.0
H581 H 0.46162 0.97827 0.91483 0.0
H582 H 0.44214 0.8652 0.90439 0.0
H583 H 0.41438 0.94813 0.84331 0.0
C584 C 0.40052 0.913 0.81492 0.0
C585 C 0.39846 0.88118 0.80989 0.0
C586 C 0.44625 0.89002 0.90666 0.0
C587 C 0.42228 0.90184 0.86042 0.0
C588 C 0.46174 0.90011 0.92983 0.0
C589 C 0.46792 0.93209 0.93314 0.0
C590 C 0.43687 0.91201 0.88648 0.0
C591 C 0.45744 0.95339 0.91304 0.0
C592 C 0.41245 0.92342 0.8401 0.0
C593 C 0.40782 0.86032 0.8311 0.0
N594 N 0.44257 0.94297 0.89042 0.0
N595 N 0.4194 0.87103 0.85533 0.0
H596 H 0.62922 0.47876 0.70129 0.0
H597 H 0.53634 0.42967 0.56746 0.0
H598 H 0.60612 0.38367 0.68113 0.0
H599 H 0.56548 0.52547 0.5802 0.0
H600 H 0.56134 0.41308 0.60976 0.0
H601 H 0.60616 0.49689 0.65768 0.0
C602 C 0.6195 0.46166 0.68767 0.0
C603 C 0.61952 0.42956 0.69517 0.0
C604 C 0.56238 0.43776 0.60337 0.0
C605 C 0.59276 0.45025 0.64528 0.0
C606 C 0.54802 0.44731 0.57913 0.0
C607 C 0.54875 0.4791 0.57011 0.0
C608 C 0.57762 0.46006 0.61906 0.0
C609 C 0.56433 0.50073 0.58628 0.0
C610 C 0.6062 0.47207 0.66283 0.0
C611 C 0.60624 0.40861 0.67671 0.0
N612 N 0.57808 0.49083 0.61 0.0
N613 N 0.59341 0.4193 0.6528 0.0
H614 H 0.86764 0.57127 0.16541 0.0
H615 H 1.00134 0.56486 0.06559 0.0
H616 H 0.95033 0.60534 0.19202 0.0
H617 H 0.93642 0.48771 0.07262 0.0
H618 H 0.97971 0.5867 0.10681 0.0
H619 H 0.88938 0.5462 0.12637 0.0
C620 C 0.89029 0.57341 0.16336 0.0
C621 C 0.90703 0.59077 0.1823 0.0
C622 C 0.97028 0.56494 0.09935 0.0
C623 C 0.93184 0.56285 0.13685 0.0
C624 C 0.9825 0.55256 0.07582 0.0
C625 C 0.97063 0.52444 0.06579 0.0
C626 C 0.9456 0.54955 0.11245 0.0
C627 C 0.94628 0.50935 0.07987 0.0
C628 C 0.90261 0.55916 0.1409 0.0
C629 C 0.93633 0.59306 0.17776 0.0
N630 N 0.93431 0.5223 0.10234 0.0
N631 N 0.94773 0.57958 0.15537 0.0
H632 H 0.33494 0.15194 0.13219 0.0
H633 H 0.39543 0.99327 0.09694 0.0
H634 H 0.29977 0.06184 0.16978 0.0
H635 H 0.41262 0.07879 0.04308 0.0
H636 H 0.3623 0.0184 0.12586 0.0
H637 H 0.36598 0.12605 0.10164 0.0
C638 C 0.33362 0.12671 0.13397 0.0
C639 C 0.31453 0.10907 0.15356 0.0
C640 C 0.37316 0.03159 0.10759 0.0
C641 C 0.35041 0.07932 0.11884 0.0
C642 C 0.39207 0.01728 0.09107 0.0
C643 C 0.4068 0.034 0.06759 0.0
C644 C 0.36922 0.06297 0.10082 0.0
C645 C 0.40161 0.06501 0.06093 0.0
C646 C 0.35142 0.11196 0.11654 0.0
C647 C 0.31433 0.07646 0.15531 0.0
N648 N 0.3834 0.0786 0.07763 0.0
N649 N 0.33201 0.06265 0.1382 0.0
H650 H 0.22069 0.95116 0.64293 0.0
H651 H 0.08007 0.9011 0.56039 0.0
H652 H 0.19458 0.85654 0.62333 0.0
H653 H 0.1092 0.99644 0.57511 0.0
H654 H 0.12081 0.88399 0.58523 0.0
H655 H 0.17862 0.96782 0.62039 0.0
C656 C 0.206 0.93385 0.63409 0.0
C657 C 0.21123 0.90242 0.63494 0.0
C658 C 0.11827 0.90865 0.58304 0.0
C659 C 0.16314 0.92137 0.60884 0.0
C660 C 0.095 0.91844 0.56885 0.0
C661 C 0.09123 0.95026 0.56559 0.0
C662 C 0.1379 0.93083 0.5941 0.0
C663 C 0.11127 0.97167 0.57705 0.0
C664 C 0.18207 0.9434 0.62106 0.0
C665 C 0.19161 0.88108 0.6228 0.0
N666 N 0.13372 0.96157 0.59076 0.0
N667 N 0.16847 0.89095 0.61024 0.0
H668 H 0.81458 0.4202 0.84351 0.0
H669 H 0.90799 0.46109 0.97978 0.0
H670 H 0.78366 0.40323 0.93155 0.0
H671 H 0.93756 0.47797 0.89129 0.0
H672 H 0.86265 0.43867 0.96296 0.0
H673 H 0.85979 0.44137 0.86091 0.0
C674 C 0.81717 0.42113 0.86649 0.0
C675 C 0.79515 0.40979 0.88603 0.0
C676 C 0.87913 0.44719 0.94726 0.0
C677 C 0.84726 0.43372 0.90624 0.0
C678 C 0.90506 0.45987 0.95687 0.0
C679 C 0.92667 0.4715 0.93696 0.0
C680 C 0.87475 0.44613 0.91752 0.0
C681 C 0.92157 0.4694 0.90749 0.0
C682 C 0.84313 0.43302 0.87646 0.0
C683 C 0.80007 0.41124 0.91564 0.0
N684 N 0.89622 0.45711 0.89872 0.0
N685 N 0.82552 0.42293 0.92481 0.0
H686 H 0.70735 0.52334 0.34297 0.0
H687 H 0.58628 0.54735 0.456 0.0
H688 H 0.69458 0.61469 0.37018 0.0
H689 H 0.57836 0.47487 0.39644 0.0
H690 H 0.6297 0.56992 0.43012 0.0
H691 H 0.66327 0.50254 0.36754 0.0
C692 C 0.69529 0.53917 0.35382 0.0
C693 C 0.70495 0.57095 0.35434 0.0
C694 C 0.61831 0.54914 0.42274 0.0
C695 C 0.65473 0.54684 0.38336 0.0
C696 C 0.59366 0.53623 0.43751 0.0
C697 C 0.57868 0.50928 0.42828 0.0
C698 C 0.62828 0.53456 0.39904 0.0
C699 C 0.58913 0.49579 0.40418 0.0
C700 C 0.67018 0.52715 0.36804 0.0
C701 C 0.68848 0.58995 0.36956 0.0
N702 N 0.61339 0.50841 0.39056 0.0
N703 N 0.6643 0.57757 0.3836 0.0
H704 H 0.13831 0.33036 0.16518 0.0
H705 H 0.08132 0.37676 0.01092 0.0
H706 H 0.15335 0.28 0.09023 0.0
H707 H 0.04447 0.40405 0.08953 0.0
H708 H 0.10963 0.34287 0.03937 0.0
H709 H 0.10591 0.35997 0.13757 0.0
C710 C 0.13478 0.32542 0.14298 0.0
C711 C 0.14873 0.30266 0.13003 0.0
C712 C 0.09512 0.35599 0.05041 0.0
C713 C 0.1119 0.33674 0.09828 0.0
C714 C 0.07895 0.3753 0.03419 0.0
C715 C 0.06058 0.39321 0.04793 0.0
C716 C 0.09326 0.35499 0.08059 0.0
C717 C 0.05829 0.39047 0.07812 0.0
C718 C 0.11628 0.34236 0.12725 0.0
C719 C 0.14359 0.29771 0.10102 0.0
N720 N 0.07474 0.37198 0.0935 0.0
N721 N 0.12569 0.31468 0.08612 0.0
H722 H 0.54551 0.22901 0.8817 0.0
H723 H 0.57105 0.06646 0.96548 0.0
H724 H 0.62723 0.19755 0.8945 0.0
H725 H 0.48859 0.09439 0.94937 0.0
H726 H 0.59173 0.11487 0.94015 0.0
H727 H 0.52413 0.18045 0.90674 0.0
C728 C 0.55899 0.21188 0.88963 0.0
C729 C 0.58829 0.21751 0.88591 0.0
C730 C 0.56911 0.11048 0.9421 0.0
C731 C 0.56385 0.16186 0.91494 0.0
C732 C 0.55724 0.08277 0.95662 0.0
C733 C 0.52797 0.07625 0.95962 0.0
C734 C 0.55169 0.13207 0.93044 0.0
C735 C 0.51123 0.09837 0.94758 0.0
C736 C 0.54673 0.1842 0.90407 0.0
C737 C 0.60461 0.19456 0.89715 0.0
N738 N 0.52332 0.12529 0.93356 0.0
N739 N 0.59219 0.16783 0.91109 0.0
H740 H 0.89506 0.74597 0.42069 0.0
H741 H 0.97003 0.92083 0.40735 0.0
H742 H 0.91406 0.79763 0.33879 0.0
H743 H 0.93091 0.87418 0.48513 0.0
H744 H 0.95851 0.87298 0.38238 0.0
H745 H 0.91736 0.78975 0.44496 0.0
C746 C 0.90404 0.76655 0.40779 0.0
C747 C 0.9022 0.76841 0.37771 0.0
C748 C 0.95276 0.87322 0.40499 0.0
C749 C 0.92795 0.81872 0.40541 0.0
C750 C 0.95943 0.90041 0.41926 0.0
C751 C 0.95117 0.9015 0.44827 0.0
C752 C 0.93808 0.847 0.42003 0.0
C753 C 0.9374 0.87447 0.46268 0.0
C754 C 0.91685 0.79152 0.42166 0.0
C755 C 0.91492 0.79531 0.36204 0.0
N756 N 0.93123 0.84844 0.4484 0.0
N757 N 0.927 0.81963 0.3761 0.0
H758 H 0.35333 0.70381 0.58309 0.0
H759 H 0.49363 0.62345 0.55651 0.0
H760 H 0.43444 0.74395 0.60853 0.0
H761 H 0.41536 0.59837 0.51571 0.0
H762 H 0.47263 0.66651 0.5776 0.0
H763 H 0.37591 0.66354 0.56024 0.0
C764 C 0.37594 0.70439 0.58366 0.0
C765 C 0.39197 0.72756 0.59763 0.0
C766 C 0.46017 0.65164 0.56388 0.0
C767 C 0.41802 0.68087 0.57186 0.0
C768 C 0.47213 0.62709 0.55185 0.0
C769 C 0.45621 0.60722 0.53437 0.0
C770 C 0.43207 0.65611 0.55857 0.0
C771 C 0.42845 0.61301 0.52906 0.0
C772 C 0.38883 0.68122 0.57071 0.0
C773 C 0.42117 0.72643 0.59828 0.0
N774 N 0.41726 0.63677 0.54123 0.0
N775 N 0.43326 0.70345 0.58561 0.0
H776 H 0.84694 0.8618 0.64741 0.0
H777 H 0.97617 0.98396 0.59982 0.0
H778 H 0.87218 0.93851 0.69881 0.0
H779 H 0.92071 0.94357 0.53745 0.0
H780 H 0.94261 0.9622 0.63832 0.0
H781 H 0.87819 0.88646 0.60795 0.0
C782 C 0.85892 0.884 0.65015 0.0
C783 C 0.85701 0.89844 0.67603 0.0
C784 C 0.93789 0.95825 0.61614 0.0
C785 C 0.89304 0.9261 0.63179 0.0
C786 C 0.95704 0.97043 0.59422 0.0
C787 C 0.95127 0.96544 0.56538 0.0
C788 C 0.91318 0.94042 0.60914 0.0
C789 C 0.92605 0.94795 0.55934 0.0
C790 C 0.87665 0.898 0.62778 0.0
C791 C 0.87301 0.92698 0.67891 0.0
N792 N 0.90805 0.93579 0.58107 0.0
N793 N 0.89069 0.9398 0.6571 0.0
H794 H 0.62746 0.09574 0.18048 0.0
H795 H 0.49308 0.09803 0.087 0.0
H796 H 0.54722 0.11408 0.21606 0.0
H797 H 0.54919 0.02756 0.07526 0.0
H798 H 0.51794 0.11235 0.13009 0.0
H799 H 0.60369 0.07685 0.13794 0.0
C800 C 0.60491 0.09558 0.17959 0.0
C801 C 0.58944 0.10705 0.20187 0.0
C802 C 0.52481 0.09376 0.11806 0.0
C803 C 0.56251 0.08634 0.15298 0.0
C804 C 0.5108 0.08572 0.09338 0.0
C805 C 0.51912 0.06156 0.07761 0.0
C806 C 0.54769 0.07802 0.12672 0.0
C807 C 0.5421 0.04624 0.08698 0.0
C808 C 0.59146 0.08493 0.15524 0.0
C809 C 0.56026 0.10651 0.19917 0.0
N810 N 0.55583 0.05491 0.11091 0.0
N811 N 0.54784 0.09676 0.17505 0.0
H812 H 0.39689 0.61917 0.32865 0.0
H813 H 0.44863 0.47619 0.42538 0.0
H814 H 0.37989 0.52326 0.30818 0.0
H815 H 0.47311 0.5731 0.43807 0.0
H816 H 0.42113 0.49232 0.38421 0.0
H817 H 0.4224 0.60208 0.37053 0.0
C818 C 0.39858 0.59447 0.33284 0.0
C819 C 0.38638 0.5727 0.3145 0.0
C820 C 0.43253 0.51003 0.39601 0.0
C821 C 0.41551 0.55281 0.36305 0.0
C822 C 0.44824 0.50085 0.41956 0.0
C823 C 0.46334 0.5233 0.43525 0.0
C824 C 0.43173 0.54192 0.38813 0.0
C825 C 0.46197 0.55491 0.42662 0.0
C826 C 0.4131 0.5847 0.35693 0.0
C827 C 0.38876 0.54093 0.32169 0.0
N828 N 0.44648 0.56322 0.40375 0.0
N829 N 0.40312 0.53197 0.3453 0.0
H830 H 0.11531 0.45339 0.79636 0.0
H831 H 0.03095 0.4159 0.94734 0.0
H832 H 0.08351 0.36067 0.83004 0.0
H833 H 0.05469 0.50952 0.91034 0.0
H834 H 0.05198 0.39543 0.90539 0.0
H835 H 0.09535 0.47449 0.83883 0.0
C836 C 0.10426 0.43745 0.81275 0.0
C837 C 0.10103 0.40519 0.80957 0.0
C838 C 0.0526 0.42046 0.90639 0.0
C839 C 0.07798 0.42922 0.85818 0.0
C840 C 0.0406 0.43221 0.9304 0.0
C841 C 0.04099 0.46454 0.93242 0.0
C842 C 0.06523 0.44112 0.88413 0.0
C843 C 0.05386 0.48444 0.90973 0.0
C844 C 0.09272 0.44953 0.83691 0.0
C845 C 0.0862 0.38571 0.83136 0.0
N846 N 0.06548 0.47241 0.88655 0.0
N847 N 0.07528 0.39801 0.8547 0.0
H848 H 0.66586 0.87872 0.83616 0.0
H849 H 0.59553 0.92903 0.98078 0.0
H850 H 0.69783 0.85797 0.92053 0.0
H851 H 0.57741 0.96619 0.89553 0.0
H852 H 0.63066 0.89938 0.95953 0.0
H853 H 0.63043 0.90708 0.85805 0.0
C854 C 0.66549 0.88018 0.8593 0.0
C855 C 0.68503 0.86613 0.87649 0.0
C856 C 0.61903 0.91411 0.94553 0.0
C857 C 0.64424 0.89832 0.90175 0.0
C858 C 0.599 0.93105 0.95762 0.0
C859 C 0.58355 0.95015 0.93989 0.0
C860 C 0.62343 0.91612 0.9155 0.0
C861 C 0.58888 0.95185 0.91004 0.0
C862 C 0.64518 0.89631 0.87179 0.0
C863 C 0.68306 0.86818 0.90645 0.0
N864 N 0.60829 0.93496 0.89879 0.0
N865 N 0.66306 0.88406 0.91813 0.0
H866 H 0.77294 0.0874 0.40952 0.0
H867 H 0.92339 0.03076 0.37559 0.0
H868 H 0.80791 0.08499 0.32354 0.0
H869 H 0.88815 0.03291 0.46152 0.0
H870 H 0.88151 0.05116 0.35612 0.0
H871 H 0.8153 0.06817 0.42898 0.0
C872 C 0.7896 0.08299 0.39473 0.0
C873 C 0.78686 0.08785 0.36484 0.0
C874 C 0.88294 0.0472 0.37924 0.0
C875 C 0.83536 0.06549 0.38698 0.0
C876 C 0.90687 0.03555 0.39038 0.0
C877 C 0.90928 0.03008 0.42025 0.0
C878 C 0.86123 0.05343 0.39807 0.0
C879 C 0.88719 0.03675 0.43836 0.0
C880 C 0.81373 0.07184 0.40585 0.0
C881 C 0.80896 0.08123 0.34671 0.0
N882 N 0.8641 0.04805 0.42698 0.0
N883 N 0.83228 0.07043 0.35806 0.0
H884 H 0.22504 0.58598 0.07545 0.0
H885 H 0.06786 0.50933 0.11171 0.0
H886 H 0.18968 0.56879 0.16182 0.0
H887 H 0.10258 0.52663 0.02508 0.0
H888 H 0.11215 0.53135 0.13019 0.0
H889 H 0.18073 0.56407 0.05664 0.0
C890 C 0.20795 0.57761 0.09052 0.0
C891 C 0.21113 0.57951 0.12034 0.0
C892 C 0.11013 0.53045 0.10713 0.0
C893 C 0.16013 0.55413 0.09878 0.0
C894 C 0.08475 0.51792 0.09649 0.0
C895 C 0.08139 0.51605 0.06671 0.0
C896 C 0.13257 0.54124 0.08796 0.0
C897 C 0.10413 0.52765 0.04817 0.0
C898 C 0.18263 0.56501 0.07971 0.0
C899 C 0.18835 0.56766 0.13873 0.0
N900 N 0.12876 0.53965 0.05909 0.0
N901 N 0.16383 0.55564 0.12765 0.0
H902 H 0.32947 0.43278 0.68454 0.0
H903 H 0.41734 0.47175 0.53563 0.0
H904 H 0.29454 0.42184 0.6007 0.0
H905 H 0.44944 0.49513 0.61819 0.0
H906 H 0.37339 0.44917 0.55969 0.0
H907 H 0.37457 0.45267 0.6611 0.0
C908 C 0.33121 0.43469 0.66123 0.0
C909 C 0.30815 0.42548 0.64461 0.0
C910 C 0.39009 0.45915 0.57256 0.0
C911 C 0.35981 0.44781 0.61766 0.0
C912 C 0.41524 0.47192 0.55883 0.0
C913 C 0.43706 0.48548 0.57489 0.0
C914 C 0.38674 0.45985 0.60258 0.0
C915 C 0.43313 0.48505 0.60492 0.0
C916 C 0.35702 0.44586 0.64787 0.0
C917 C 0.31181 0.42811 0.61446 0.0
N918 N 0.40843 0.47254 0.61778 0.0
N919 N 0.3371 0.43897 0.602 0.0
H920 H 0.88591 0.66837 0.82913 0.0
H921 H 0.92619 0.61006 0.98722 0.0
H922 H 0.86448 0.71465 0.90476 0.0
H923 H 0.96979 0.58707 0.91064 0.0
H924 H 0.90041 0.64569 0.95756 0.0
H925 H 0.91348 0.63488 0.85893 0.0
C926 C 0.88701 0.67158 0.85196 0.0
C927 C 0.87284 0.69448 0.86439 0.0
C928 C 0.91579 0.63304 0.94729 0.0
C929 C 0.90409 0.6559 0.89864 0.0
C930 C 0.93051 0.61273 0.96419 0.0
C931 C 0.95014 0.59562 0.95135 0.0
C932 C 0.92045 0.63587 0.91731 0.0
C933 C 0.95494 0.59995 0.92142 0.0
C934 C 0.90273 0.6524 0.86895 0.0
C935 C 0.87462 0.69704 0.89424 0.0
N936 N 0.93997 0.61946 0.90536 0.0
N937 N 0.88992 0.67796 0.91034 0.0
H938 H 0.36751 0.80055 0.11333 0.0
H939 H 0.50753 0.90749 0.05842 0.0
H940 H 0.45084 0.77443 0.12795 0.0
H941 H 0.42403 0.92919 0.03793 0.0
H942 H 0.4873 0.85947 0.08526 0.0
H943 H 0.38795 0.84841 0.08671 0.0
C944 C 0.39011 0.80474 0.11082 0.0
C945 C 0.40744 0.78326 0.1229 0.0
C946 C 0.47341 0.87474 0.07488 0.0
C947 C 0.43107 0.83845 0.09264 0.0
C948 C 0.48495 0.9022 0.05957 0.0
C949 C 0.46746 0.92244 0.04586 0.0
C950 C 0.44415 0.86746 0.0766 0.0
C951 C 0.43834 0.9143 0.04808 0.0
C952 C 0.40179 0.83222 0.09572 0.0
C953 C 0.43663 0.79041 0.11935 0.0
N954 N 0.42763 0.8875 0.06315 0.0
N955 N 0.4475 0.81734 0.10455 0.0
H956 H 0.1244 0.25583 0.5631 0.0
H957 H 0.03018 0.0917 0.57442 0.0
H958 H 0.08913 0.21178 0.64371 0.0
H959 H 0.09099 0.12086 0.50561 0.0
H960 H 0.0427 0.14105 0.59628 0.0
H961 H 0.10319 0.2118 0.53827 0.0
C962 C 0.11212 0.23696 0.57561 0.0
C963 C 0.10908 0.23725 0.60569 0.0
C964 C 0.05305 0.13671 0.57625 0.0
C965 C 0.08428 0.18701 0.57717 0.0
C966 C 0.04585 0.10867 0.56366 0.0
C967 C 0.05977 0.10208 0.53827 0.0
C968 C 0.07401 0.15846 0.56311 0.0
C969 C 0.07994 0.12487 0.52533 0.0
C970 C 0.09993 0.2119 0.56136 0.0
C971 C 0.0921 0.21258 0.62055 0.0
N972 N 0.08651 0.15201 0.53794 0.0
N973 N 0.08052 0.1883 0.60616 0.0
H974 H 0.59857 0.2945 0.3656 0.0
H975 H 0.57546 0.37654 0.51047 0.0
H976 H 0.62261 0.25563 0.44828 0.0
H977 H 0.52739 0.39327 0.43471 0.0
H978 H 0.5951 0.33387 0.48771 0.0
H979 H 0.57468 0.33289 0.39001 0.0
C980 C 0.59866 0.29378 0.38889 0.0
C981 C 0.61264 0.27159 0.40485 0.0
C982 C 0.58004 0.34668 0.4762 0.0
C983 C 0.58572 0.3161 0.43288 0.0
C984 C 0.56884 0.37104 0.48915 0.0
C985 C 0.54982 0.38849 0.47442 0.0
C986 C 0.57251 0.34009 0.44813 0.0
C987 C 0.54192 0.38034 0.44687 0.0
C988 C 0.58507 0.31584 0.40279 0.0
C989 C 0.61254 0.2725 0.43498 0.0
N990 N 0.55355 0.35693 0.43447 0.0
N991 N 0.59941 0.29447 0.448 0.0
loop_
_geom_bond_atom_site_label_1
_geom_bond_atom_site_label_2
_geom_bond_distance
_geom_bond_site_symmetry_2
_ccdc_geom_bond_type
C0 C1 1.391 . S
C0 C4 1.391 . S
C0 H42 0.948 . S
C1 C0 1.391 . S
C1 C2 1.391 . S
C2 C1 1.391 . S
C2 H58 0.947 . S
C2 C59 1.392 . S
C3 C4 1.391 . S
C3 C7 1.397 . S
C3 C59 1.419 . S
C4 C0 1.391 . S
C4 C3 1.391 . S
C4 C5 1.399 . S
C5 C4 1.399 . S
C5 C8 1.396 . S
C5 C17 1.453 . S
C5 C18 1.684 . S
H6 C30 0.948 . S
C7 C3 1.397 . S
C7 C8 1.394 . S
C7 C26 1.723 . S
C8 C5 1.396 . S
C8 C7 1.394 . S
C8 C38 1.723 . S
H9 C32 0.947 . S
H10 C33 0.948 . S
H11 C39 0.982 . S
H12 C40 0.979 . S
H13 C40 0.980 . S
H14 C40 0.983 . S
H15 C39 0.979 . S
H16 C39 0.977 . S
C17 C5 1.453 . S
C17 H46 0.982 . S
C17 H47 0.979 . S
C17 H48 0.977 . S
C18 C5 1.684 . S
C18 H43 0.979 . S
C18 H44 0.980 . S
C18 H45 0.983 . S
C19 C20 1.391 . S
C19 C24 1.391 . S
C19 H49 0.948 . S
C20 C19 1.391 . S
C20 C21 1.391 . S
C21 C20 1.391 . S
C21 C22 1.392 . S
C21 H50 0.947 . S
C22 C21 1.392 . S
C22 C23 1.419 . S
C22 H51 0.948 . S
C23 C22 1.419 . S
C23 C24 1.391 . S
C23 C27 1.397 . S
C24 C19 1.391 . S
C24 C23 1.391 . S
C24 C25 1.399 . S
C25 C24 1.399 . S
C25 C26 1.396 . S
C25 C28 1.453 . S
C25 C29 1.684 . S
C26 C7 1.723 . S
C26 C25 1.396 . S
C26 C27 1.394 . S
C27 C23 1.397 . S
C27 C26 1.394 . S
C27 C37 1.723 . S
C28 C25 1.453 . S
C28 H52 0.982 . S
C28 H53 0.979 . S
C28 H54 0.977 . S
C29 C25 1.684 . S
C29 H55 0.979 . S
C29 H56 0.980 . S
C29 H57 0.983 . S
C30 H6 0.948 . S
C30 C31 1.391 . S
C30 C35 1.391 . S
C31 C30 1.391 . S
C31 C32 1.391 . S
C32 H9 0.947 . S
C32 C31 1.391 . S
C32 C33 1.392 . S
C33 H10 0.948 . S
C33 C32 1.392 . S
C33 C34 1.419 . S
C34 C33 1.419 . S
C34 C35 1.391 . S
C34 C38 1.397 . S
C35 C30 1.391 . S
C35 C34 1.391 . S
C35 C36 1.399 . S
C36 C35 1.399 . S
C36 C37 1.396 . S
C36 C39 1.453 . S
C36 C40 1.684 . S
C37 C27 1.723 . S
C37 C36 1.396 . S
C37 C38 1.394 . S
C38 C8 1.723 . S
C38 C34 1.397 . S
C38 C37 1.394 . S
C39 H11 0.982 . S
C39 H15 0.979 . S
C39 H16 0.977 . S
C39 C36 1.453 . S
C40 H12 0.979 . S
C40 H13 0.980 . S
C40 H14 0.983 . S
C40 C36 1.684 . S
H41 C59 0.948 . S
H42 C0 0.948 . S
H43 C18 0.979 . S
H44 C18 0.980 . S
H45 C18 0.983 . S
H46 C17 0.982 . S
H47 C17 0.979 . S
H48 C17 0.977 . S
H49 C19 0.948 . S
H50 C21 0.947 . S
H51 C22 0.948 . S
H52 C28 0.982 . S
H53 C28 0.979 . S
H54 C28 0.977 . S
H55 C29 0.979 . S
H56 C29 0.980 . S
H57 C29 0.983 . S
H58 C2 0.947 . S
C59 C2 1.392 . S
C59 C3 1.419 . S
C59 H41 0.948 . S
C60 C61 1.391 . S
C60 C64 1.391 . S
C60 H102 0.948 . S
C61 C60 1.391 . S
C61 C62 1.391 . S
C62 C61 1.391 . S
C62 H118 0.947 . S
C62 C119 1.392 . S
C63 C64 1.391 . S
C63 C67 1.397 . S
C63 C119 1.419 . S
C64 C60 1.391 . S
C64 C63 1.391 . S
C64 C65 1.399 . S
C65 C64 1.399 . S
C65 C68 1.396 . S
C65 C77 1.453 . S
C65 C78 1.684 . S
H66 C90 0.948 . S
C67 C63 1.397 . S
C67 C68 1.394 . S
C67 C86 1.723 . S
C68 C65 1.396 . S
C68 C67 1.394 . S
C68 C98 1.723 . S
H69 C92 0.947 . S
H70 C93 0.948 . S
H71 C99 0.982 . S
H72 C100 0.979 . S
H73 C100 0.980 . S
H74 C100 0.983 . S
H75 C99 0.979 . S
H76 C99 0.977 . S
C77 C65 1.453 . S
C77 H106 0.982 . S
C77 H107 0.979 . S
C77 H108 0.977 . S
C78 C65 1.684 . S
C78 H103 0.979 . S
C78 H104 0.980 . S
C78 H105 0.983 . S
C79 C80 1.391 . S
C79 C84 1.391 . S
C79 H109 0.948 . S
C80 C79 1.391 . S
C80 C81 1.391 . S
C81 C80 1.391 . S
C81 C82 1.392 . S
C81 H110 0.947 . S
C82 C81 1.392 . S
C82 C83 1.419 . S
C82 H111 0.948 . S
C83 C82 1.419 . S
C83 C84 1.391 . S
C83 C87 1.397 . S
C84 C79 1.391 . S
C84 C83 1.391 . S
C84 C85 1.399 . S
C85 C84 1.399 . S
C85 C86 1.396 . S
C85 C88 1.453 . S
C85 C89 1.684 . S
C86 C67 1.723 . S
C86 C85 1.396 . S
C86 C87 1.394 . S
C87 C83 1.397 . S
C87 C86 1.394 . S
C87 C97 1.723 . S
C88 C85 1.453 . S
C88 H112 0.982 . S
C88 H113 0.979 . S
C88 H114 0.977 . S
C89 C85 1.684 . S
C89 H115 0.979 . S
C89 H116 0.980 . S
C89 H117 0.983 . S
C90 H66 0.948 . S
C90 C91 1.391 . S
C90 C95 1.391 . S
C91 C90 1.391 . S
C91 C92 1.391 . S
C92 H69 0.947 . S
C92 C91 1.391 . S
C92 C93 1.392 . S
C93 H70 0.948 . S
C93 C92 1.392 . S
C93 C94 1.419 . S
C94 C93 1.419 . S
C94 C95 1.391 . S
C94 C98 1.397 . S
C95 C90 1.391 . S
C95 C94 1.391 . S
C95 C96 1.399 . S
C96 C95 1.399 . S
C96 C97 1.396 . S
C96 C99 1.453 . S
C96 C100 1.684 . S
C97 C87 1.723 . S
C97 C96 1.396 . S
C97 C98 1.394 . S
C98 C68 1.723 . S
C98 C94 1.397 . S
C98 C97 1.394 . S
C99 H71 0.982 . S
C99 H75 0.979 . S
C99 H76 0.977 . S
C99 C96 1.453 . S
C100 H72 0.979 . S
C100 H73 0.980 . S
C100 H74 0.983 . S
C100 C96 1.684 . S
H101 C119 0.948 . S
H102 C60 0.948 . S
H103 C78 0.979 . S
H104 C78 0.980 . S
H105 C78 0.983 . S
H106 C77 0.982 . S
H107 C77 0.979 . S
H108 C77 0.977 . S
H109 C79 0.948 . S
H110 C81 0.947 . S
H111 C82 0.948 . S
H112 C88 0.982 . S
H113 C88 0.979 . S
H114 C88 0.977 . S
H115 C89 0.979 . S
H116 C89 0.980 . S
H117 C89 0.983 . S
H118 C62 0.947 . S
C119 C62 1.392 . S
C119 C63 1.419 . S
C119 H101 0.948 . S
C120 C121 1.391 . S
C120 C124 1.391 . S
C120 H162 0.948 . S
C121 C120 1.391 . S
C121 C122 1.391 . S
C122 C121 1.391 . S
C122 H178 0.947 . S
C122 C179 1.392 . S
C123 C124 1.391 . S
C123 C127 1.397 . S
C123 C179 1.419 . S
C124 C120 1.391 . S
C124 C123 1.391 . S
C124 C125 1.399 . S
C125 C124 1.399 . S
C125 C128 1.396 . S
C125 C137 1.453 . S
C125 C138 1.684 . S
H126 C150 0.948 . S
C127 C123 1.397 . S
C127 C128 1.394 . S
C127 C146 1.723 . S
C128 C125 1.396 . S
C128 C127 1.394 . S
C128 C158 1.723 . S
H129 C152 0.947 . S
H130 C153 0.948 . S
H131 C159 0.982 . S
H132 C160 0.979 . S
H133 C160 0.980 . S
H134 C160 0.983 . S
H135 C159 0.979 . S
H136 C159 0.977 . S
C137 C125 1.453 . S
C137 H166 0.982 . S
C137 H167 0.979 . S
C137 H168 0.977 . S
C138 C125 1.684 . S
C138 H163 0.979 . S
C138 H164 0.980 . S
C138 H165 0.983 . S
C139 C140 1.391 . S
C139 C144 1.391 . S
C139 H169 0.948 . S
C140 C139 1.391 . S
C140 C141 1.391 . S
C141 C140 1.391 . S
C141 C142 1.392 . S
C141 H170 0.947 . S
C142 C141 1.392 . S
C142 C143 1.419 . S
C142 H171 0.948 . S
C143 C142 1.419 . S
C143 C144 1.391 . S
C143 C147 1.397 . S
C144 C139 1.391 . S
C144 C143 1.391 . S
C144 C145 1.399 . S
C145 C144 1.399 . S
C145 C146 1.396 . S
C145 C148 1.453 . S
C145 C149 1.684 . S
C146 C127 1.723 . S
C146 C145 1.396 . S
C146 C147 1.394 . S
C147 C143 1.397 . S
C147 C146 1.394 . S
C147 C157 1.723 . S
C148 C145 1.453 . S
C148 H172 0.982 . S
C148 H173 0.979 . S
C148 H174 0.977 . S
C149 C145 1.684 . S
C149 H175 0.979 . S
C149 H176 0.980 . S
C149 H177 0.983 . S
C150 H126 0.948 . S
C150 C151 1.391 . S
C150 C155 1.391 . S
C151 C150 1.391 . S
C151 C152 1.391 . S
C152 H129 0.947 . S
C152 C151 1.391 . S
C152 C153 1.392 . S
C153 H130 0.948 . S
C153 C152 1.392 . S
C153 C154 1.419 . S
C154 C153 1.419 . S
C154 C155 1.391 . S
C154 C158 1.397 . S
C155 C150 1.391 . S
C155 C154 1.391 . S
C155 C156 1.399 . S
C156 C155 1.399 . S
C156 C157 1.396 . S
C156 C159 1.453 . S
C156 C160 1.684 . S
C157 C147 1.723 . S
C157 C156 1.396 . S
C157 C158 1.394 . S
C158 C128 1.723 . S
C158 C154 1.397 . S
C158 C157 1.394 . S
C159 H131 0.982 . S
C159 H135 0.979 . S
C159 H136 0.977 . S
C159 C156 1.453 . S
C160 H132 0.979 . S
C160 H133 0.980 . S
C160 H134 0.983 . S
C160 C156 1.684 . S
H161 C179 0.948 . S
H162 C120 0.948 . S
H163 C138 0.979 . S
H164 C138 0.980 . S
H165 C138 0.983 . S
H166 C137 0.982 . S
H167 C137 0.979 . S
H168 C137 0.977 . S
H169 C139 0.948 . S
H170 C141 0.947 . S
H171 C142 0.948 . S
H172 C148 0.982 . S
H173 C148 0.979 . S
H174 C148 0.977 . S
H175 C149 0.979 . S
H176 C149 0.980 . S
H177 C149 0.983 . S
H178 C122 0.947 . S
C179 C122 1.392 . S
C179 C123 1.419 . S
C179 H161 0.948 . S
C180 C181 1.391 . S
C180 C184 1.391 . S
C180 H222 0.948 . S
C181 C180 1.391 . S
C181 C182 1.391 . S
C182 C181 1.391 . S
C182 H238 0.947 . S
C182 C239 1.392 . S
C183 C184 1.391 . S
C183 C187 1.397 . S
C183 C239 1.419 . S
C184 C180 1.391 . S
C184 C183 1.391 . S
C184 C185 1.399 . S
C185 C184 1.399 . S
C185 C188 1.396 . S
C185 C197 1.453 . S
C185 C198 1.684 . S
H186 C210 0.948 . S
C187 C183 1.397 . S
C187 C188 1.394 . S
C187 C206 1.723 . S
C188 C185 1.396 . S
C188 C187 1.394 . S
C188 C218 1.723 . S
H189 C212 0.947 . S
H190 C213 0.948 . S
H191 C219 0.982 . S
H192 C220 0.979 . S
H193 C220 0.980 . S
H194 C220 0.983 . S
H195 C219 0.979 . S
H196 C219 0.977 . S
C197 C185 1.453 . S
C197 H226 0.982 . S
C197 H227 0.979 . S
C197 H228 0.977 . S
C198 C185 1.684 . S
C198 H223 0.979 . S
C198 H224 0.980 . S
C198 H225 0.983 . S
C199 C200 1.391 . S
C199 C204 1.391 . S
C199 H229 0.948 . S
C200 C199 1.391 . S
C200 C201 1.391 . S
C201 C200 1.391 . S
C201 C202 1.392 . S
C201 H230 0.947 . S
C202 C201 1.392 . S
C202 C203 1.419 . S
C202 H231 0.948 . S
C203 C202 1.419 . S
C203 C204 1.391 . S
C203 C207 1.397 . S
C204 C199 1.391 . S
C204 C203 1.391 . S
C204 C205 1.399 . S
C205 C204 1.399 . S
C205 C206 1.396 . S
C205 C208 1.453 . S
C205 C209 1.684 . S
C206 C187 1.723 . S
C206 C205 1.396 . S
C206 C207 1.394 . S
C207 C203 1.397 . S
C207 C206 1.394 . S
C207 C217 1.723 . S
C208 C205 1.453 . S
C208 H232 0.982 . S
C208 H233 0.979 . S
C208 H234 0.977 . S
C209 C205 1.684 . S
C209 H235 0.979 . S
C209 H236 0.980 . S
C209 H237 0.983 . S
C210 H186 0.948 . S
C210 C211 1.391 . S
C210 C215 1.391 . S
C211 C210 1.391 . S
C211 C212 1.391 . S
C212 H189 0.947 . S
C212 C211 1.391 . S
C212 C213 1.392 . S
C213 H190 0.948 . S
C213 C212 1.392 . S
C213 C214 1.419 . S
C214 C213 1.419 . S
C214 C215 1.391 . S
C214 C218 1.397 . S
C215 C210 1.391 . S
C215 C214 1.391 . S
C215 C216 1.399 . S
C216 C215 1.399 . S
C216 C217 1.396 . S
C216 C219 1.453 . S
C216 C220 1.684 . S
C217 C207 1.723 . S
C217 C216 1.396 . S
C217 C218 1.394 . S
C218 C188 1.723 . S
C218 C214 1.397 . S
C218 C217 1.394 . S
C219 H191 0.982 . S
C219 H195 0.979 . S
C219 H196 0.977 . S
C219 C216 1.453 . S
C220 H192 0.979 . S
C220 H193 0.980 . S
C220 H194 0.983 . S
C220 C216 1.684 . S
H221 C239 0.948 . S
H222 C180 0.948 . S
H223 C198 0.979 . S
H224 C198 0.980 . S
H225 C198 0.983 . S
H226 C197 0.982 . S
H227 C197 0.979 . S
H228 C197 0.977 . S
H229 C199 0.948 . S
H230 C201 0.947 . S
H231 C202 0.948 . S
H232 C208 0.982 . S
H233 C208 0.979 . S
H234 C208 0.977 . S
H235 C209 0.979 . S
H236 C209 0.980 . S
H237 C209 0.983 . S
H238 C182 0.947 . S
C239 C182 1.392 . S
C239 C183 1.419 . S
C239 H221 0.948 . S
C240 C241 1.391 . S
C240 C244 1.391 . S
C240 H282 0.948 . S
C241 C240 1.391 . S
C241 C242 1.391 . S
C242 C241 1.391 . S
C242 H298 0.947 . S
C242 C299 1.392 . S
C243 C244 1.391 . S
C243 C247 1.397 . S
C243 C299 1.419 . S
C244 C240 1.391 . S
C244 C243 1.391 . S
C244 C245 1.399 . S
C245 C244 1.399 . S
C245 C248 1.396 . S
C245 C257 1.453 . S
C245 C258 1.684 . S
H246 C270 0.948 . S
C247 C243 1.397 . S
C247 C248 1.394 . S
C247 C266 1.723 . S
C248 C245 1.396 . S
C248 C247 1.394 . S
C248 C278 1.723 . S
H249 C272 0.947 . S
H250 C273 0.948 . S
H251 C279 0.982 . S
H252 C280 0.979 . S
H253 C280 0.980 . S
H254 C280 0.983 . S
H255 C279 0.979 . S
H256 C279 0.977 . S
C257 C245 1.453 . S
C257 H286 0.982 . S
C257 H287 0.979 . S
C257 H288 0.977 . S
C258 C245 1.684 . S
C258 H283 0.979 . S
C258 H284 0.980 . S
C258 H285 0.983 . S
C259 C260 1.391 . S
C259 C264 1.391 . S
C259 H289 0.948 . S
C260 C259 1.391 . S
C260 C261 1.391 . S
C261 C260 1.391 . S
C261 C262 1.392 . S
C261 H290 0.947 . S
C262 C261 1.392 . S
C262 C263 1.419 . S
C262 H291 0.948 . S
C263 C262 1.419 . S
C263 C264 1.391 . S
C263 C267 1.397 . S
C264 C259 1.391 . S
C264 C263 1.391 . S
C264 C265 1.399 . S
C265 C264 1.399 . S
C265 C266 1.396 . S
C265 C268 1.453 . S
C265 C269 1.684 . S
C266 C247 1.723 . S
C266 C265 1.396 . S
C266 C267 1.394 . S
C267 C263 1.397 . S
C267 C266 1.394 . S
C267 C277 1.723 . S
C268 C265 1.453 . S
C268 H292 0.982 . S
C268 H293 0.979 . S
C268 H294 0.977 . S
C269 C265 1.684 . S
C269 H295 0.979 . S
C269 H296 0.980 . S
C269 H297 0.983 . S
C270 H246 0.948 . S
C270 C271 1.391 . S
C270 C275 1.391 . S
C271 C270 1.391 . S
C271 C272 1.391 . S
C272 H249 0.947 . S
C272 C271 1.391 . S
C272 C273 1.392 . S
C273 H250 0.948 . S
C273 C272 1.392 . S
C273 C274 1.419 . S
C274 C273 1.419 . S
C274 C275 1.391 . S
C274 C278 1.397 . S
C275 C270 1.391 . S
C275 C274 1.391 . S
C275 C276 1.399 . S
C276 C275 1.399 . S
C276 C277 1.396 . S
C276 C279 1.453 . S
C276 C280 1.684 . S
C277 C267 1.723 . S
C277 C276 1.396 . S
C277 C278 1.394 . S
C278 C248 1.723 . S
C278 C274 1.397 . S
C278 C277 1.394 . S
C279 H251 0.982 . S
C279 H255 0.979 . S
C279 H256 0.977 . S
C279 C276 1.453 . S
C280 H252 0.979 . S
C280 H253 0.980 . S
C280 H254 0.983 . S
C280 C276 1.684 . S
H281 C299 0.948 . S
H282 C240 0.948 . S
H283 C258 0.979 . S
H284 C258 0.980 . S
H285 C258 0.983 . S
H286 C257 0.982 . S
H287 C257 0.979 . S
H288 C257 0.977 . S
H289 C259 0.948 . S
H290 C261 0.947 . S
H291 C262 0.948 . S
H292 C268 0.982 . S
H293 C268 0.979 . S
H294 C268 0.977 . S
H295 C269 0.979 . S
H296 C269 0.980 . S
H297 C269 0.983 . S
H298 C242 0.947 . S
C299 C242 1.392 . S
C299 C243 1.419 . S
C299 H281 0.948 . S
C300 C301 1.391 . S
C300 C304 1.391 . S
C300 H342 0.948 . S
C301 C300 1.391 . S
C301 C302 1.391 . S
C302 C301 1.391 . S
C302 H358 0.947 . S
C302 C359 1.392 . S
C303 C304 1.391 . S
C303 C307 1.397 . S
C303 C359 1.419 . S
C304 C300 1.391 . S
C304 C303 1.391 . S
C304 C305 1.399 . S
C305 C304 1.399 . S
C305 C308 1.396 . S
C305 C317 1.453 . S
C305 C318 1.684 . S
H306 C330 0.948 . S
C307 C303 1.397 . S
C307 C308 1.394 . S
C307 C326 1.723 . S
C308 C305 1.396 . S
C308 C307 1.394 . S
C308 C338 1.723 . S
H309 C332 0.947 . S
H310 C333 0.948 . S
H311 C339 0.982 . S
H312 C340 0.979 . S
H313 C340 0.980 . S
H314 C340 0.983 . S
H315 C339 0.979 . S
H316 C339 0.977 . S
C317 C305 1.453 . S
C317 H346 0.982 . S
C317 H347 0.979 . S
C317 H348 0.977 . S
C318 C305 1.684 . S
C318 H343 0.979 . S
C318 H344 0.980 . S
C318 H345 0.983 . S
C319 C320 1.391 . S
C319 C324 1.391 . S
C319 H349 0.948 . S
C320 C319 1.391 . S
C320 C321 1.391 . S
C321 C320 1.391 . S
C321 C322 1.392 . S
C321 H350 0.947 . S
C322 C321 1.392 . S
C322 C323 1.419 . S
C322 H351 0.948 . S
C323 C322 1.419 . S
C323 C324 1.391 . S
C323 C327 1.397 . S
C324 C319 1.391 . S
C324 C323 1.391 . S
C324 C325 1.399 . S
C325 C324 1.399 . S
C325 C326 1.396 . S
C325 C328 1.453 . S
C325 C329 1.684 . S
C326 C307 1.723 . S
C326 C325 1.396 . S
C326 C327 1.394 . S
C327 C323 1.397 . S
C327 C326 1.394 . S
C327 C337 1.723 . S
C328 C325 1.453 . S
C328 H352 0.982 . S
C328 H353 0.979 . S
C328 H354 0.977 . S
C329 C325 1.684 . S
C329 H355 0.979 . S
C329 H356 0.980 . S
C329 H357 0.983 . S
C330 H306 0.948 . S
C330 C331 1.391 . S
C330 C335 1.391 . S
C331 C330 1.391 . S
C331 C332 1.391 . S
C332 H309 0.947 . S
C332 C331 1.391 . S
C332 C333 1.392 . S
C333 H310 0.948 . S
C333 C332 1.392 . S
C333 C334 1.419 . S
C334 C333 1.419 . S
C334 C335 1.391 . S
C334 C338 1.397 . S
C335 C330 1.391 . S
C335 C334 1.391 . S
C335 C336 1.399 . S
C336 C335 1.399 . S
C336 C337 1.396 . S
C336 C339 1.453 . S
C336 C340 1.684 . S
C337 C327 1.723 . S
C337 C336 1.396 . S
C337 C338 1.394 . S
C338 C308 1.723 . S
C338 C334 1.397 . S
C338 C337 1.394 . S
C339 H311 0.982 . S
C339 H315 0.979 . S
C339 H316 0.977 . S
C339 C336 1.453 . S
C340 H312 0.979 . S
C340 H313 0.980 . S
C340 H314 0.983 . S
C340 C336 1.684 . S
H341 C359 0.948 . S
H342 C300 0.948 . S
H343 C318 0.979 . S
H344 C318 0.980 . S
H345 C318 0.983 . S
H346 C317 0.982 . S
H347 C317 0.979 . S
H348 C317 0.977 . S
H349 C319 0.948 . S
H350 C321 0.947 . S
H351 C322 0.948 . S
H352 C328 0.982 . S
H353 C328 0.979 . S
H354 C328 0.977 . S
H355 C329 0.979 . S
H356 C329 0.980 . S
H357 C329 0.983 . S
H358 C302 0.947 . S
C359 C302 1.392 . S
C359 C303 1.419 . S
C359 H341 0.948 . S
C360 C361 1.391 . S
C360 C364 1.391 . S
C360 H402 0.948 . S
C361 C360 1.391 . S
C361 C362 1.391 . S
C362 C361 1.391 . S
C362 H418 0.947 . S
C362 C419 1.392 . S
C363 C364 1.391 . S
C363 C367 1.397 . S
C363 C419 1.419 . S
C364 C360 1.391 . S
C364 C363 1.391 . S
C364 C365 1.399 . S
C365 C364 1.399 . S
C365 C368 1.396 . S
C365 C377 1.453 . S
C365 C378 1.684 . S
H366 C390 0.948 . S
C367 C363 1.397 . S
C367 C368 1.394 . S
C367 C386 1.723 . S
C368 C365 1.396 . S
C368 C367 1.394 . S
C368 C398 1.723 . S
H369 C392 0.947 . S
H370 C393 0.948 . S
H371 C399 0.982 . S
H372 C400 0.979 . S
H373 C400 0.980 . S
H374 C400 0.983 . S
H375 C399 0.979 . S
H376 C399 0.977 . S
C377 C365 1.453 . S
C377 H406 0.982 . S
C377 H407 0.979 . S
C377 H408 0.977 . S
C378 C365 1.684 . S
C378 H403 0.979 . S
C378 H404 0.980 . S
C378 H405 0.983 . S
C379 C380 1.391 . S
C379 C384 1.391 . S
C379 H409 0.948 . S
C380 C379 1.391 . S
C380 C381 1.391 . S
C381 C380 1.391 . S
C381 C382 1.392 . S
C381 H410 0.947 . S
C382 C381 1.392 . S
C382 C383 1.419 . S
C382 H411 0.948 . S
C383 C382 1.419 . S
C383 C384 1.391 . S
C383 C387 1.397 . S
C384 C379 1.391 . S
C384 C383 1.391 . S
C384 C385 1.399 . S
C385 C384 1.399 . S
C385 C386 1.396 . S
C385 C388 1.453 . S
C385 C389 1.684 . S
C386 C367 1.723 . S
C386 C385 1.396 . S
C386 C387 1.394 . S
C387 C383 1.397 . S
C387 C386 1.394 . S
C387 C397 1.723 . S
C388 C385 1.453 . S
C388 H412 0.982 . S
C388 H413 0.979 . S
C388 H414 0.977 . S
C389 C385 1.684 . S
C389 H415 0.979 . S
C389 H416 0.980 . S
C389 H417 0.983 . S
C390 H366 0.948 . S
C390 C391 1.391 . S
C390 C395 1.391 . S
C391 C390 1.391 . S
C391 C392 1.391 . S
C392 H369 0.947 . S
C392 C391 1.391 . S
C392 C393 1.392 . S
C393 H370 0.948 . S
C393 C392 1.392 . S
C393 C394 1.419 . S
C394 C393 1.419 . S
C394 C395 1.391 . S
C394 C398 1.397 . S
C395 C390 1.391 . S
C395 C394 1.391 . S
C395 C396 1.399 . S
C396 C395 1.399 . S
C396 C397 1.396 . S
C396 C399 1.453 . S
C396 C400 1.684 . S
C397 C387 1.723 . S
C397 C396 1.396 . S
C397 C398 1.394 . S
C398 C368 1.723 . S
C398 C394 1.397 . S
C398 C397 1.394 . S
C399 H371 0.982 . S
C399 H375 0.979 . S
C399 H376 0.977 . S
C399 C396 1.453 . S
C400 H372 0.979 . S
C400 H373 0.980 . S
C400 H374 0.983 . S
C400 C396 1.684 . S
H401 C419 0.948 . S
H402 C360 0.948 . S
H403 C378 0.979 . S
H404 C378 0.980 . S
H405 C378 0.983 . S
H406 C377 0.982 . S
H407 C377 0.979 . S
H408 C377 0.977 . S
H409 C379 0.948 . S
H410 C381 0.947 . S
H411 C382 0.948 . S
H412 C388 0.982 . S
H413 C388 0.979 . S
H414 C388 0.977 . S
H415 C389 0.979 . S
H416 C389 0.980 . S
H417 C389 0.983 . S
H418 C362 0.947 . S
C419 C362 1.392 . S
C419 C363 1.419 . S
C419 H401 0.948 . S
C420 C421 1.391 . S
C420 C424 1.391 . S
C420 H462 0.948 . S
C421 C420 1.391 . S
C421 C422 1.391 . S
C422 C421 1.391 . S
C422 H478 0.947 . S
C422 C479 1.392 . S
C423 C424 1.391 . S
C423 C427 1.397 . S
C423 C479 1.419 . S
C424 C420 1.391 . S
C424 C423 1.391 . S
C424 C425 1.399 . S
C425 C424 1.399 . S
C425 C428 1.396 . S
C425 C437 1.453 . S
C425 C438 1.684 . S
H426 C450 0.948 . S
C427 C423 1.397 . S
C427 C428 1.394 . S
C427 C446 1.723 . S
C428 C425 1.396 . S
C428 C427 1.394 . S
C428 C458 1.723 . S
H429 C452 0.947 . S
H430 C453 0.948 . S
H431 C459 0.982 . S
H432 C460 0.979 . S
H433 C460 0.980 . S
H434 C460 0.983 . S
H435 C459 0.979 . S
H436 C459 0.977 . S
C437 C425 1.453 . S
C437 H466 0.982 . S
C437 H467 0.979 . S
C437 H468 0.977 . S
C438 C425 1.684 . S
C438 H463 0.979 . S
C438 H464 0.980 . S
C438 H465 0.983 . S
C439 C440 1.391 . S
C439 C444 1.391 . S
C439 H469 0.948 . S
C440 C439 1.391 . S
C440 C441 1.391 . S
C441 C440 1.391 . S
C441 C442 1.392 . S
C441 H470 0.947 . S
C442 C441 1.392 . S
C442 C443 1.419 . S
C442 H471 0.948 . S
C443 C442 1.419 . S
C443 C444 1.391 . S
C443 C447 1.397 . S
C444 C439 1.391 . S
C444 C443 1.391 . S
C444 C445 1.399 . S
C445 C444 1.399 . S
C445 C446 1.396 . S
C445 C448 1.453 . S
C445 C449 1.684 . S
C446 C427 1.723 . S
C446 C445 1.396 . S
C446 C447 1.394 . S
C447 C443 1.397 . S
C447 C446 1.394 . S
C447 C457 1.723 . S
C448 C445 1.453 . S
C448 H472 0.982 . S
C448 H473 0.979 . S
C448 H474 0.977 . S
C449 C445 1.684 . S
C449 H475 0.979 . S
C449 H476 0.980 . S
C449 H477 0.983 . S
C450 H426 0.948 . S
C450 C451 1.391 . S
C450 C455 1.391 . S
C451 C450 1.391 . S
C451 C452 1.391 . S
C452 H429 0.947 . S
C452 C451 1.391 . S
C452 C453 1.392 . S
C453 H430 0.948 . S
C453 C452 1.392 . S
C453 C454 1.419 . S
C454 C453 1.419 . S
C454 C455 1.391 . S
C454 C458 1.397 . S
C455 C450 1.391 . S
C455 C454 1.391 . S
C455 C456 1.399 . S
C456 C455 1.399 . S
C456 C457 1.396 . S
C456 C459 1.453 . S
C456 C460 1.684 . S
C457 C447 1.723 . S
C457 C456 1.396 . S
C457 C458 1.394 . S
C458 C428 1.723 . S
C458 C454 1.397 . S
C458 C457 1.394 . S
C459 H431 0.982 . S
C459 H435 0.979 . S
C459 H436 0.977 . S
C459 C456 1.453 . S
C460 H432 0.979 . S
C460 H433 0.980 . S
C460 H434 0.983 . S
C460 C456 1.684 . S
H461 C479 0.948 . S
H462 C420 0.948 . S
H463 C438 0.979 . S
H464 C438 0.980 . S
H465 C438 0.983 . S
H466 C437 0.982 . S
H467 C437 0.979 . S
H468 C437 0.977 . S
H469 C439 0.948 . S
H470 C441 0.947 . S
H471 C442 0.948 . S
H472 C448 0.982 . S
H473 C448 0.979 . S
H474 C448 0.977 . S
H475 C449 0.979 . S
H476 C449 0.980 . S
H477 C449 0.983 . S
H478 C422 0.947 . S
C479 C422 1.392 . S
C479 C423 1.419 . S
C479 H461 0.948 . S
Zn480 O486 1.969 1_545 S
Zn480 O487 1.965 1_545 S
Zn480 O491 2.024 . S
Zn480 O496 1.969 . S
Zn481 O488 1.969 . S
Zn481 O494 1.969 1_565 S
Zn481 O495 1.965 1_565 S
Zn481 O497 2.024 . S
C482 O483 1.229 . S
C482 O491 1.058 . S
O483 C482 1.229 . S
C484 O485 1.229 . S
C484 O497 1.058 . S
O485 C484 1.229 . S
O486 Zn480 1.969 1_565 S
O486 C489 1.267 . S
O487 Zn480 1.965 1_565 S
O487 C498 1.260 1_455 S
O488 Zn481 1.969 . S
O488 C498 1.258 . S
C489 O486 1.267 . S
C489 O490 1.228 . S
O490 C489 1.228 . S
O491 Zn480 2.024 . S
O491 C482 1.058 . S
C492 O493 1.228 . S
C492 O494 1.267 . S
O493 C492 1.228 . S
O494 Zn481 1.969 1_545 S
O494 C492 1.267 . S
O495 Zn481 1.965 1_545 S
O495 C499 1.260 1_655 S
O496 Zn480 1.969 . S
O496 C499 1.258 . S
O497 Zn481 2.024 . S
O497 C484 1.058 . S
C498 O487 1.260 1_655 S
C498 O488 1.258 . S
C499 O495 1.260 1_455 S
C499 O496 1.258 . S
Zn500 O506 1.969 . S
Zn500 O507 1.965 1_565 S
Zn500 O511 2.024 . S
Zn500 O516 1.969 . S
Zn501 O508 1.969 . S
Zn501 O514 1.969 . S
Zn501 O515 1.965 1_545 S
Zn501 O517 2.024 . S
C502 O503 1.229 . S
C502 O511 1.058 . S
O503 C502 1.229 . S
C504 O505 1.229 . S
C504 O517 1.058 . S
O505 C504 1.229 . S
O506 Zn500 1.969 . S
O506 C509 1.267 . S
O507 Zn500 1.965 1_545 S
O507 C518 1.260 . S
O508 Zn501 1.969 . S
O508 C518 1.258 1_554 S
C509 O506 1.267 . S
C509 O510 1.228 . S
O510 C509 1.228 . S
O511 Zn500 2.024 . S
O511 C502 1.058 . S
C512 O513 1.228 . S
C512 O514 1.267 . S
O513 C512 1.228 . S
O514 Zn501 1.969 . S
O514 C512 1.267 . S
O515 Zn501 1.965 1_565 S
O515 C519 1.260 . S
O516 Zn500 1.969 . S
O516 C519 1.258 1_556 S
O517 Zn501 2.024 . S
O517 C504 1.058 . S
C518 O507 1.260 . S
C518 O508 1.258 1_556 S
C519 O515 1.260 . S
C519 O516 1.258 1_554 S
Zn520 O526 1.969 . S
Zn520 O527 1.965 . S
Zn520 O531 2.024 . S
Zn520 O536 1.969 . S
Zn521 O528 1.969 . S
Zn521 O534 1.969 . S
Zn521 O535 1.965 . S
Zn521 O537 2.024 . S
C522 O523 1.229 . S
C522 O531 1.058 . S
O523 C522 1.229 . S
C524 O525 1.229 . S
C524 O537 1.058 . S
O525 C524 1.229 . S
O526 Zn520 1.969 . S
O526 C529 1.267 . S
O527 Zn520 1.965 . S
O527 C538 1.260 . S
O528 Zn521 1.969 . S
O528 C538 1.258 . S
C529 O526 1.267 . S
C529 O530 1.228 . S
O530 C529 1.228 . S
O531 Zn520 2.024 . S
O531 C522 1.058 . S
C532 O533 1.228 . S
C532 O534 1.267 . S
O533 C532 1.228 . S
O534 Zn521 1.969 . S
O534 C532 1.267 . S
O535 Zn521 1.965 . S
O535 C539 1.260 . S
O536 Zn520 1.969 . S
O536 C539 1.258 . S
O537 Zn521 2.024 . S
O537 C524 1.058 . S
C538 O527 1.260 . S
C538 O528 1.258 . S
C539 O535 1.260 . S
C539 O536 1.258 . S
Zn540 O546 1.969 . S
Zn540 O547 1.965 1_556 S
Zn540 O551 2.024 . S
Zn540 O556 1.984 . S
Zn541 O548 1.999 . S
Zn541 O554 1.969 . S
Zn541 O555 1.965 1_554 S
Zn541 O557 2.024 . S
C542 O543 1.229 . S
C542 O551 1.058 . S
O543 C542 1.229 . S
C544 O545 1.229 . S
C544 O557 1.058 . S
O545 C544 1.229 . S
O546 Zn540 1.969 . S
O546 C549 1.267 . S
O547 Zn540 1.965 1_554 S
O547 C558 1.260 . S
O548 Zn541 1.999 . S
O548 C558 1.228 1_455 S
C549 O546 1.267 . S
C549 O550 1.228 . S
O550 C549 1.228 . S
O551 Zn540 2.024 . S
O551 C542 1.058 . S
C552 O553 1.228 . S
C552 O554 1.267 . S
O553 C552 1.228 . S
O554 Zn541 1.969 . S
O554 C552 1.267 . S
O555 Zn541 1.965 1_556 S
O555 C559 1.260 . S
O556 Zn540 1.984 . S
O556 C559 1.243 1_655 S
O557 Zn541 2.024 . S
O557 C544 1.058 . S
C558 O547 1.260 . S
C558 O548 1.228 1_655 S
C559 O555 1.260 . S
C559 O556 1.243 1_455 S
H560 C566 0.930 . S
H561 C570 0.930 . S
H562 C575 0.929 . S
H563 C573 0.929 . S
H564 C568 0.929 . S
H565 C574 0.929 . S
C566 H560 0.930 . S
C566 C567 1.367 . S
C566 C574 1.378 . S
C567 C566 1.367 . S
C567 C575 1.433 . S
C568 H564 0.929 . S
C568 C570 1.378 . S
C568 C572 1.350 . S
C569 C572 1.463 . S
C569 C574 1.350 . S
C569 N577 1.427 . S
C570 H561 0.930 . S
C570 C568 1.378 . S
C570 C571 1.367 . S
C571 C570 1.367 . S
C571 C573 1.433 . S
C572 C568 1.350 . S
C572 C569 1.463 . S
C572 N576 1.427 . S
C573 H563 0.929 . S
C573 C571 1.433 . S
C573 N576 1.384 . S
C574 H565 0.929 . S
C574 C566 1.378 . S
C574 C569 1.350 . S
C575 H562 0.929 . S
C575 C567 1.433 . S
C575 N577 1.384 . S
N576 C572 1.427 . S
N576 C573 1.384 . S
N577 C569 1.427 . S
N577 C575 1.384 . S
H578 C584 0.930 . S
H579 C588 0.930 . S
H580 C593 0.929 . S
H581 C591 0.929 . S
H582 C586 0.929 . S
H583 C592 0.929 . S
C584 H578 0.930 . S
C584 C585 1.367 . S
C584 C592 1.378 . S
C585 C584 1.367 . S
C585 C593 1.433 . S
C586 H582 0.929 . S
C586 C588 1.378 . S
C586 C590 1.350 . S
C587 C590 1.463 . S
C587 C592 1.350 . S
C587 N595 1.427 . S
C588 H579 0.930 . S
C588 C586 1.378 . S
C588 C589 1.367 . S
C589 C588 1.367 . S
C589 C591 1.433 . S
C590 C586 1.350 . S
C590 C587 1.463 . S
C590 N594 1.427 . S
C591 H581 0.929 . S
C591 C589 1.433 . S
C591 N594 1.384 . S
C592 H583 0.929 . S
C592 C584 1.378 . S
C592 C587 1.350 . S
C593 H580 0.929 . S
C593 C585 1.433 . S
C593 N595 1.384 . S
N594 C590 1.427 . S
N594 C591 1.384 . S
N595 C587 1.427 . S
N595 C593 1.384 . S
H596 C602 0.930 . S
H597 C606 0.930 . S
H598 C611 0.929 . S
H599 C609 0.929 . S
H600 C604 0.929 . S
H601 C610 0.929 . S
C602 H596 0.930 . S
C602 C603 1.367 . S
C602 C610 1.378 . S
C603 C602 1.367 . S
C603 C611 1.433 . S
C604 H600 0.929 . S
C604 C606 1.378 . S
C604 C608 1.350 . S
C605 C608 1.463 . S
C605 C610 1.350 . S
C605 N613 1.427 . S
C606 H597 0.930 . S
C606 C604 1.378 . S
C606 C607 1.367 . S
C607 C606 1.367 . S
C607 C609 1.433 . S
C608 C604 1.350 . S
C608 C605 1.463 . S
C608 N612 1.427 . S
C609 H599 0.929 . S
C609 C607 1.433 . S
C609 N612 1.384 . S
C610 H601 0.929 . S
C610 C602 1.378 . S
C610 C605 1.350 . S
C611 H598 0.929 . S
C611 C603 1.433 . S
C611 N613 1.384 . S
N612 C608 1.427 . S
N612 C609 1.384 . S
N613 C605 1.427 . S
N613 C611 1.384 . S
H614 C620 0.930 . S
H615 C624 0.930 . S
H616 C629 0.929 . S
H617 C627 0.929 . S
H618 C622 0.929 . S
H619 C628 0.929 . S
C620 H614 0.930 . S
C620 C621 1.367 . S
C620 C628 1.378 . S
C621 C620 1.367 . S
C621 C629 1.433 . S
C622 H618 0.929 . S
C622 C624 1.378 . S
C622 C626 1.350 . S
C623 C626 1.463 . S
C623 C628 1.350 . S
C623 N631 1.427 . S
C624 H615 0.930 . S
C624 C622 1.378 . S
C624 C625 1.367 . S
C625 C624 1.367 . S
C625 C627 1.433 . S
C626 C622 1.350 . S
C626 C623 1.463 . S
C626 N630 1.427 . S
C627 H617 0.929 . S
C627 C625 1.433 . S
C627 N630 1.384 . S
C628 H619 0.929 . S
C628 C620 1.378 . S
C628 C623 1.350 . S
C629 H616 0.929 . S
C629 C621 1.433 . S
C629 N631 1.384 . S
N630 C626 1.427 . S
N630 C627 1.384 . S
N631 C623 1.427 . S
N631 C629 1.384 . S
H632 C638 0.930 . S
H633 C642 0.930 . S
H634 C647 0.929 . S
H635 C645 0.929 . S
H636 C640 0.929 . S
H637 C646 0.929 . S
C638 H632 0.930 . S
C638 C639 1.367 . S
C638 C646 1.378 . S
C639 C638 1.367 . S
C639 C647 1.433 . S
C640 H636 0.929 . S
C640 C642 1.378 . S
C640 C644 1.350 . S
C641 C644 1.463 . S
C641 C646 1.350 . S
C641 N649 1.427 . S
C642 H633 0.930 . S
C642 C640 1.378 . S
C642 C643 1.367 . S
C643 C642 1.367 . S
C643 C645 1.433 . S
C644 C640 1.350 . S
C644 C641 1.463 . S
C644 N648 1.427 . S
C645 H635 0.929 . S
C645 C643 1.433 . S
C645 N648 1.384 . S
C646 H637 0.929 . S
C646 C638 1.378 . S
C646 C641 1.350 . S
C647 H634 0.929 . S
C647 C639 1.433 . S
C647 N649 1.384 . S
N648 C644 1.427 . S
N648 C645 1.384 . S
N649 C641 1.427 . S
N649 C647 1.384 . S
H650 C656 0.930 . S
H651 C660 0.930 . S
H652 C665 0.929 . S
H653 C663 0.929 . S
H654 C658 0.929 . S
H655 C664 0.929 . S
C656 H650 0.930 . S
C656 C657 1.367 . S
C656 C664 1.378 . S
C657 C656 1.367 . S
C657 C665 1.433 . S
C658 H654 0.929 . S
C658 C660 1.378 . S
C658 C662 1.350 . S
C659 C662 1.463 . S
C659 C664 1.350 . S
C659 N667 1.427 . S
C660 H651 0.930 . S
C660 C658 1.378 . S
C660 C661 1.367 . S
C661 C660 1.367 . S
C661 C663 1.433 . S
C662 C658 1.350 . S
C662 C659 1.463 . S
C662 N666 1.427 . S
C663 H653 0.929 . S
C663 C661 1.433 . S
C663 N666 1.384 . S
C664 H655 0.929 . S
C664 C656 1.378 . S
C664 C659 1.350 . S
C665 H652 0.929 . S
C665 C657 1.433 . S
C665 N667 1.384 . S
N666 C662 1.427 . S
N666 C663 1.384 . S
N667 C659 1.427 . S
N667 C665 1.384 . S
H668 C674 0.930 . S
H669 C678 0.930 . S
H670 C683 0.929 . S
H671 C681 0.929 . S
H672 C676 0.929 . S
H673 C682 0.929 . S
C674 H668 0.930 . S
C674 C675 1.367 . S
C674 C682 1.378 . S
C675 C674 1.367 . S
C675 C683 1.433 . S
C676 H672 0.929 . S
C676 C678 1.378 . S
C676 C680 1.350 . S
C677 C680 1.463 . S
C677 C682 1.350 . S
C677 N685 1.427 . S
C678 H669 0.930 . S
C678 C676 1.378 . S
C678 C679 1.367 . S
C679 C678 1.367 . S
C679 C681 1.433 . S
C680 C676 1.350 . S
C680 C677 1.463 . S
C680 N684 1.427 . S
C681 H671 0.929 . S
C681 C679 1.433 . S
C681 N684 1.384 . S
C682 H673 0.929 . S
C682 C674 1.378 . S
C682 C677 1.350 . S
C683 H670 0.929 . S
C683 C675 1.433 . S
C683 N685 1.384 . S
N684 C680 1.427 . S
N684 C681 1.384 . S
N685 C677 1.427 . S
N685 C683 1.384 . S
H686 C692 0.930 . S
H687 C696 0.930 . S
H688 C701 0.929 . S
H689 C699 0.929 . S
H690 C694 0.929 . S
H691 C700 0.929 . S
C692 H686 0.930 . S
C692 C693 1.367 . S
C692 C700 1.378 . S
C693 C692 1.367 . S
C693 C701 1.433 . S
C694 H690 0.929 . S
C694 C696 1.378 . S
C694 C698 1.350 . S
C695 C698 1.463 . S
C695 C700 1.350 . S
C695 N703 1.427 . S
C696 H687 0.930 . S
C696 C694 1.378 . S
C696 C697 1.367 . S
C697 C696 1.367 . S
C697 C699 1.433 . S
C698 C694 1.350 . S
C698 C695 1.463 . S
C698 N702 1.427 . S
C699 H689 0.929 . S
C699 C697 1.433 . S
C699 N702 1.384 . S
C700 H691 0.929 . S
C700 C692 1.378 . S
C700 C695 1.350 . S
C701 H688 0.929 . S
C701 C693 1.433 . S
C701 N703 1.384 . S
N702 C698 1.427 . S
N702 C699 1.384 . S
N703 C695 1.427 . S
N703 C701 1.384 . S
H704 C710 0.930 . S
H705 C714 0.930 . S
H706 C719 0.929 . S
H707 C717 0.929 . S
H708 C712 0.929 . S
H709 C718 0.929 . S
C710 H704 0.930 . S
C710 C711 1.367 . S
C710 C718 1.378 . S
C711 C710 1.367 . S
C711 C719 1.433 . S
C712 H708 0.929 . S
C712 C714 1.378 . S
C712 C716 1.350 . S
C713 C716 1.463 . S
C713 C718 1.350 . S
C713 N721 1.427 . S
C714 H705 0.930 . S
C714 C712 1.378 . S
C714 C715 1.367 . S
C715 C714 1.367 . S
C715 C717 1.433 . S
C716 C712 1.350 . S
C716 C713 1.463 . S
C716 N720 1.427 . S
C717 H707 0.929 . S
C717 C715 1.433 . S
C717 N720 1.384 . S
C718 H709 0.929 . S
C718 C710 1.378 . S
C718 C713 1.350 . S
C719 H706 0.929 . S
C719 C711 1.433 . S
C719 N721 1.384 . S
N720 C716 1.427 . S
N720 C717 1.384 . S
N721 C713 1.427 . S
N721 C719 1.384 . S
H722 C728 0.930 . S
H723 C732 0.930 . S
H724 C737 0.929 . S
H725 C735 0.929 . S
H726 C730 0.929 . S
H727 C736 0.929 . S
C728 H722 0.930 . S
C728 C729 1.367 . S
C728 C736 1.378 . S
C729 C728 1.367 . S
C729 C737 1.433 . S
C730 H726 0.929 . S
C730 C732 1.378 . S
C730 C734 1.350 . S
C731 C734 1.463 . S
C731 C736 1.350 . S
C731 N739 1.427 . S
C732 H723 0.930 . S
C732 C730 1.378 . S
C732 C733 1.367 . S
C733 C732 1.367 . S
C733 C735 1.433 . S
C734 C730 1.350 . S
C734 C731 1.463 . S
C734 N738 1.427 . S
C735 H725 0.929 . S
C735 C733 1.433 . S
C735 N738 1.384 . S
C736 H727 0.929 . S
C736 C728 1.378 . S
C736 C731 1.350 . S
C737 H724 0.929 . S
C737 C729 1.433 . S
C737 N739 1.384 . S
N738 C734 1.427 . S
N738 C735 1.384 . S
N739 C731 1.427 . S
N739 C737 1.384 . S
H740 C746 0.930 . S
H741 C750 0.930 . S
H742 C755 0.929 . S
H743 C753 0.929 . S
H744 C748 0.929 . S
H745 C754 0.929 . S
C746 H740 0.930 . S
C746 C747 1.367 . S
C746 C754 1.378 . S
C747 C746 1.367 . S
C747 C755 1.433 . S
C748 H744 0.929 . S
C748 C750 1.378 . S
C748 C752 1.350 . S
C749 C752 1.463 . S
C749 C754 1.350 . S
C749 N757 1.427 . S
C750 H741 0.930 . S
C750 C748 1.378 . S
C750 C751 1.367 . S
C751 C750 1.367 . S
C751 C753 1.433 . S
C752 C748 1.350 . S
C752 C749 1.463 . S
C752 N756 1.427 . S
C753 H743 0.929 . S
C753 C751 1.433 . S
C753 N756 1.384 . S
C754 H745 0.929 . S
C754 C746 1.378 . S
C754 C749 1.350 . S
C755 H742 0.929 . S
C755 C747 1.433 . S
C755 N757 1.384 . S
N756 C752 1.427 . S
N756 C753 1.384 . S
N757 C749 1.427 . S
N757 C755 1.384 . S
H758 C764 0.930 . S
H759 C768 0.930 . S
H760 C773 0.929 . S
H761 C771 0.929 . S
H762 C766 0.929 . S
H763 C772 0.929 . S
C764 H758 0.930 . S
C764 C765 1.367 . S
C764 C772 1.378 . S
C765 C764 1.367 . S
C765 C773 1.433 . S
C766 H762 0.929 . S
C766 C768 1.378 . S
C766 C770 1.350 . S
C767 C770 1.463 . S
C767 C772 1.350 . S
C767 N775 1.427 . S
C768 H759 0.930 . S
C768 C766 1.378 . S
C768 C769 1.367 . S
C769 C768 1.367 . S
C769 C771 1.433 . S
C770 C766 1.350 . S
C770 C767 1.463 . S
C770 N774 1.427 . S
C771 H761 0.929 . S
C771 C769 1.433 . S
C771 N774 1.384 . S
C772 H763 0.929 . S
C772 C764 1.378 . S
C772 C767 1.350 . S
C773 H760 0.929 . S
C773 C765 1.433 . S
C773 N775 1.384 . S
N774 C770 1.427 . S
N774 C771 1.384 . S
N775 C767 1.427 . S
N775 C773 1.384 . S
H776 C782 0.930 . S
H777 C786 0.930 . S
H778 C791 0.929 . S
H779 C789 0.929 . S
H780 C784 0.929 . S
H781 C790 0.929 . S
C782 H776 0.930 . S
C782 C783 1.367 . S
C782 C790 1.378 . S
C783 C782 1.367 . S
C783 C791 1.433 . S
C784 H780 0.929 . S
C784 C786 1.378 . S
C784 C788 1.350 . S
C785 C788 1.463 . S
C785 C790 1.350 . S
C785 N793 1.427 . S
C786 H777 0.930 . S
C786 C784 1.378 . S
C786 C787 1.367 . S
C787 C786 1.367 . S
C787 C789 1.433 . S
C788 C784 1.350 . S
C788 C785 1.463 . S
C788 N792 1.427 . S
C789 H779 0.929 . S
C789 C787 1.433 . S
C789 N792 1.384 . S
C790 H781 0.929 . S
C790 C782 1.378 . S
C790 C785 1.350 . S
C791 H778 0.929 . S
C791 C783 1.433 . S
C791 N793 1.384 . S
N792 C788 1.427 . S
N792 C789 1.384 . S
N793 C785 1.427 . S
N793 C791 1.384 . S
H794 C800 0.930 . S
H795 C804 0.930 . S
H796 C809 0.929 . S
H797 C807 0.929 . S
H798 C802 0.929 . S
H799 C808 0.929 . S
C800 H794 0.930 . S
C800 C801 1.367 . S
C800 C808 1.378 . S
C801 C800 1.367 . S
C801 C809 1.433 . S
C802 H798 0.929 . S
C802 C804 1.378 . S
C802 C806 1.350 . S
C803 C806 1.463 . S
C803 C808 1.350 . S
C803 N811 1.427 . S
C804 H795 0.930 . S
C804 C802 1.378 . S
C804 C805 1.367 . S
C805 C804 1.367 . S
C805 C807 1.433 . S
C806 C802 1.350 . S
C806 C803 1.463 . S
C806 N810 1.427 . S
C807 H797 0.929 . S
C807 C805 1.433 . S
C807 N810 1.384 . S
C808 H799 0.929 . S
C808 C800 1.378 . S
C808 C803 1.350 . S
C809 H796 0.929 . S
C809 C801 1.433 . S
C809 N811 1.384 . S
N810 C806 1.427 . S
N810 C807 1.384 . S
N811 C803 1.427 . S
N811 C809 1.384 . S
H812 C818 0.930 . S
H813 C822 0.930 . S
H814 C827 0.929 . S
H815 C825 0.929 . S
H816 C820 0.929 . S
H817 C826 0.929 . S
C818 H812 0.930 . S
C818 C819 1.367 . S
C818 C826 1.378 . S
C819 C818 1.367 . S
C819 C827 1.433 . S
C820 H816 0.929 . S
C820 C822 1.378 . S
C820 C824 1.350 . S
C821 C824 1.463 . S
C821 C826 1.350 . S
C821 N829 1.427 . S
C822 H813 0.930 . S
C822 C820 1.378 . S
C822 C823 1.367 . S
C823 C822 1.367 . S
C823 C825 1.433 . S
C824 C820 1.350 . S
C824 C821 1.463 . S
C824 N828 1.427 . S
C825 H815 0.929 . S
C825 C823 1.433 . S
C825 N828 1.384 . S
C826 H817 0.929 . S
C826 C818 1.378 . S
C826 C821 1.350 . S
C827 H814 0.929 . S
C827 C819 1.433 . S
C827 N829 1.384 . S
N828 C824 1.427 . S
N828 C825 1.384 . S
N829 C821 1.427 . S
N829 C827 1.384 . S
H830 C836 0.930 . S
H831 C840 0.930 . S
H832 C845 0.929 . S
H833 C843 0.929 . S
H834 C838 0.929 . S
H835 C844 0.929 . S
C836 H830 0.930 . S
C836 C837 1.367 . S
C836 C844 1.378 . S
C837 C836 1.367 . S
C837 C845 1.433 . S
C838 H834 0.929 . S
C838 C840 1.378 . S
C838 C842 1.350 . S
C839 C842 1.463 . S
C839 C844 1.350 . S
C839 N847 1.427 . S
C840 H831 0.930 . S
C840 C838 1.378 . S
C840 C841 1.367 . S
C841 C840 1.367 . S
C841 C843 1.433 . S
C842 C838 1.350 . S
C842 C839 1.463 . S
C842 N846 1.427 . S
C843 H833 0.929 . S
C843 C841 1.433 . S
C843 N846 1.384 . S
C844 H835 0.929 . S
C844 C836 1.378 . S
C844 C839 1.350 . S
C845 H832 0.929 . S
C845 C837 1.433 . S
C845 N847 1.384 . S
N846 C842 1.427 . S
N846 C843 1.384 . S
N847 C839 1.427 . S
N847 C845 1.384 . S
H848 C854 0.930 . S
H849 C858 0.930 . S
H850 C863 0.929 . S
H851 C861 0.929 . S
H852 C856 0.929 . S
H853 C862 0.929 . S
C854 H848 0.930 . S
C854 C855 1.367 . S
C854 C862 1.378 . S
C855 C854 1.367 . S
C855 C863 1.433 . S
C856 H852 0.929 . S
C856 C858 1.378 . S
C856 C860 1.350 . S
C857 C860 1.463 . S
C857 C862 1.350 . S
C857 N865 1.427 . S
C858 H849 0.930 . S
C858 C856 1.378 . S
C858 C859 1.367 . S
C859 C858 1.367 . S
C859 C861 1.433 . S
C860 C856 1.350 . S
C860 C857 1.463 . S
C860 N864 1.427 . S
C861 H851 0.929 . S
C861 C859 1.433 . S
C861 N864 1.384 . S
C862 H853 0.929 . S
C862 C854 1.378 . S
C862 C857 1.350 . S
C863 H850 0.929 . S
C863 C855 1.433 . S
C863 N865 1.384 . S
N864 C860 1.427 . S
N864 C861 1.384 . S
N865 C857 1.427 . S
N865 C863 1.384 . S
H866 C872 0.930 . S
H867 C876 0.930 . S
H868 C881 0.929 . S
H869 C879 0.929 . S
H870 C874 0.929 . S
H871 C880 0.929 . S
C872 H866 0.930 . S
C872 C873 1.367 . S
C872 C880 1.378 . S
C873 C872 1.367 . S
C873 C881 1.433 . S
C874 H870 0.929 . S
C874 C876 1.378 . S
C874 C878 1.350 . S
C875 C878 1.463 . S
C875 C880 1.350 . S
C875 N883 1.427 . S
C876 H867 0.930 . S
C876 C874 1.378 . S
C876 C877 1.367 . S
C877 C876 1.367 . S
C877 C879 1.433 . S
C878 C874 1.350 . S
C878 C875 1.463 . S
C878 N882 1.427 . S
C879 H869 0.929 . S
C879 C877 1.433 . S
C879 N882 1.384 . S
C880 H871 0.929 . S
C880 C872 1.378 . S
C880 C875 1.350 . S
C881 H868 0.929 . S
C881 C873 1.433 . S
C881 N883 1.384 . S
N882 C878 1.427 . S
N882 C879 1.384 . S
N883 C875 1.427 . S
N883 C881 1.384 . S
H884 C890 0.930 . S
H885 C894 0.930 . S
H886 C899 0.929 . S
H887 C897 0.929 . S
H888 C892 0.929 . S
H889 C898 0.929 . S
C890 H884 0.930 . S
C890 C891 1.367 . S
C890 C898 1.378 . S
C891 C890 1.367 . S
C891 C899 1.433 . S
C892 H888 0.929 . S
C892 C894 1.378 . S
C892 C896 1.350 . S
C893 C896 1.463 . S
C893 C898 1.350 . S
C893 N901 1.427 . S
C894 H885 0.930 . S
C894 C892 1.378 . S
C894 C895 1.367 . S
C895 C894 1.367 . S
C895 C897 1.433 . S
C896 C892 1.350 . S
C896 C893 1.463 . S
C896 N900 1.427 . S
C897 H887 0.929 . S
C897 C895 1.433 . S
C897 N900 1.384 . S
C898 H889 0.929 . S
C898 C890 1.378 . S
C898 C893 1.350 . S
C899 H886 0.929 . S
C899 C891 1.433 . S
C899 N901 1.384 . S
N900 C896 1.427 . S
N900 C897 1.384 . S
N901 C893 1.427 . S
N901 C899 1.384 . S
H902 C908 0.930 . S
H903 C912 0.930 . S
H904 C917 0.929 . S
H905 C915 0.929 . S
H906 C910 0.929 . S
H907 C916 0.929 . S
C908 H902 0.930 . S
C908 C909 1.367 . S
C908 C916 1.378 . S
C909 C908 1.367 . S
C909 C917 1.433 . S
C910 H906 0.929 . S
C910 C912 1.378 . S
C910 C914 1.350 . S
C911 C914 1.463 . S
C911 C916 1.350 . S
C911 N919 1.427 . S
C912 H903 0.930 . S
C912 C910 1.378 . S
C912 C913 1.367 . S
C913 C912 1.367 . S
C913 C915 1.433 . S
C914 C910 1.350 . S
C914 C911 1.463 . S
C914 N918 1.427 . S
C915 H905 0.929 . S
C915 C913 1.433 . S
C915 N918 1.384 . S
C916 H907 0.929 . S
C916 C908 1.378 . S
C916 C911 1.350 . S
C917 H904 0.929 . S
C917 C909 1.433 . S
C917 N919 1.384 . S
N918 C914 1.427 . S
N918 C915 1.384 . S
N919 C911 1.427 . S
N919 C917 1.384 . S
H920 C926 0.930 . S
H921 C930 0.930 . S
H922 C935 0.929 . S
H923 C933 0.929 . S
H924 C928 0.929 . S
H925 C934 0.929 . S
C926 H920 0.930 . S
C926 C927 1.367 . S
C926 C934 1.378 . S
C927 C926 1.367 . S
C927 C935 1.433 . S
C928 H924 0.929 . S
C928 C930 1.378 . S
C928 C932 1.350 . S
C929 C932 1.463 . S
C929 C934 1.350 . S
C929 N937 1.427 . S
C930 H921 0.930 . S
C930 C928 1.378 . S
C930 C931 1.367 . S
C931 C930 1.367 . S
C931 C933 1.433 . S
C932 C928 1.350 . S
C932 C929 1.463 . S
C932 N936 1.427 . S
C933 H923 0.929 . S
C933 C931 1.433 . S
C933 N936 1.384 . S
C934 H925 0.929 . S
C934 C926 1.378 . S
C934 C929 1.350 . S
C935 H922 0.929 . S
C935 C927 1.433 . S
C935 N937 1.384 . S
N936 C932 1.427 . S
N936 C933 1.384 . S
N937 C929 1.427 . S
N937 C935 1.384 . S
H938 C944 0.930 . S
H939 C948 0.930 . S
H940 C953 0.929 . S
H941 C951 0.929 . S
H942 C946 0.929 . S
H943 C952 0.929 . S
C944 H938 0.930 . S
C944 C945 1.367 . S
C944 C952 1.378 . S
C945 C944 1.367 . S
C945 C953 1.433 . S
C946 H942 0.929 . S
C946 C948 1.378 . S
C946 C950 1.350 . S
C947 C950 1.463 . S
C947 C952 1.350 . S
C947 N955 1.427 . S
C948 H939 0.930 . S
C948 C946 1.378 . S
C948 C949 1.367 . S
C949 C948 1.367 . S
C949 C951 1.433 . S
C950 C946 1.350 . S
C950 C947 1.463 . S
C950 N954 1.427 . S
C951 H941 0.929 . S
C951 C949 1.433 . S
C951 N954 1.384 . S
C952 H943 0.929 . S
C952 C944 1.378 . S
C952 C947 1.350 . S
C953 H940 0.929 . S
C953 C945 1.433 . S
C953 N955 1.384 . S
N954 C950 1.427 . S
N954 C951 1.384 . S
N955 C947 1.427 . S
N955 C953 1.384 . S
H956 C962 0.930 . S
H957 C966 0.930 . S
H958 C971 0.929 . S
H959 C969 0.929 . S
H960 C964 0.929 . S
H961 C970 0.929 . S
C962 H956 0.930 . S
C962 C963 1.367 . S
C962 C970 1.378 . S
C963 C962 1.367 . S
C963 C971 1.433 . S
C964 H960 0.929 . S
C964 C966 1.378 . S
C964 C968 1.350 . S
C965 C968 1.463 . S
C965 C970 1.350 . S
C965 N973 1.427 . S
C966 H957 0.930 . S
C966 C964 1.378 . S
C966 C967 1.367 . S
C967 C966 1.367 . S
C967 C969 1.433 . S
C968 C964 1.350 . S
C968 C965 1.463 . S
C968 N972 1.427 . S
C969 H959 0.929 . S
C969 C967 1.433 . S
C969 N972 1.384 . S
C970 H961 0.929 . S
C970 C962 1.378 . S
C970 C965 1.350 . S
C971 H958 0.929 . S
C971 C963 1.433 . S
C971 N973 1.384 . S
N972 C968 1.427 . S
N972 C969 1.384 . S
N973 C965 1.427 . S
N973 C971 1.384 . S
H974 C980 0.930 . S
H975 C984 0.930 . S
H976 C989 0.929 . S
H977 C987 0.929 . S
H978 C982 0.929 . S
H979 C988 0.929 . S
C980 H974 0.930 . S
C980 C981 1.367 . S
C980 C988 1.378 . S
C981 C980 1.367 . S
C981 C989 1.433 . S
C982 H978 0.929 . S
C982 C984 1.378 . S
C982 C986 1.350 . S
C983 C986 1.463 . S
C983 C988 1.350 . S
C983 N991 1.427 . S
C984 H975 0.930 . S
C984 C982 1.378 . S
C984 C985 1.367 . S
C985 C984 1.367 . S
C985 C987 1.433 . S
C986 C982 1.350 . S
C986 C983 1.463 . S
C986 N990 1.427 . S
C987 H977 0.929 . S
C987 C985 1.433 . S
C987 N990 1.384 . S
C988 H979 0.929 . S
C988 C980 1.378 . S
C988 C983 1.350 . S
C989 H976 0.929 . S
C989 C981 1.433 . S
C989 N991 1.384 . S
N990 C986 1.427 . S
N990 C987 1.384 . S
N991 C983 1.427 . S
N991 C989 1.384 . S
C567 C1 1.446 . S
C571 C499 1.479 . S
C585 C80 1.281 . S
C589 C502 1.244 . S
C607 C538 1.756 . S
C603 C140 1.772 . S
C621 C211 1.664 . S
C625 C558 1.648 . S
C643 C512 1.682 . S
C639 C31 1.688 . S
C661 C489 1.512 . S
C657 C61 1.510 . S
C679 C542 1.550 . S
C675 C151 1.628 . S
C697 C522 1.401 . S
C693 C200 1.495 . S
C711 C20 1.343 . S
C715 C552 1.318 . S
C733 C518 1.616 . S
C729 C121 1.624 . S
C747 C181 1.613 . S
C751 C484 1.591 . S
C765 C91 1.317 . S
C769 C532 1.315 . S
C787 C498 1.488 . S
C783 C260 1.490 . S
C801 C320 1.281 . S
C805 C504 1.244 . S
C819 C361 1.764 . S
C823 C539 1.752 . S
C837 C451 1.661 . S
C841 C559 1.653 . S
C855 C271 1.677 . S
C859 C509 1.690 . S
C877 C492 1.505 . S
C873 C301 1.515 . S
C895 C544 1.557 . S
C891 C380 1.615 . S
C913 C524 1.405 . S
C909 C440 1.496 . S
C927 C241 1.318 . S
C931 C549 1.309 . S
C949 C519 1.614 . S
C945 C391 1.617 . S
C967 C482 1.592 . S
C963 C421 1.612 . S
C981 C331 1.322 . S
C985 C529 1.311 . S
