# Generated by pormake.
# Topology rtl, (3,6)-cn, num edge types: 1
# Building blocks:
#     Node 0, Type 0, BuildingBlock: BELTOD_clean_linker_0, # of connection points: 3
#     Node 1, Type 0, BuildingBlock: BELTOD_clean_linker_0, # of connection points: 3
#     Node 2, Type 0, BuildingBlock: BELTOD_clean_linker_0, # of connection points: 3
#     Node 3, Type 0, BuildingBlock: BELTOD_clean_linker_0, # of connection points: 3
#     Node 4, Type 1, BuildingBlock: KUMJIN_clean_sbu_1, # of connection points: 6
#     Node 5, Type 1, BuildingBlock: KUMJIN_clean_sbu_1, # of connection points: 6
#     Edge 6, Type (0, 1), BuildingBlock: XUDNAN_clean_linker_2, # of connection points: 2
#     Edge 7, Type (0, 1), BuildingBlock: XUDNAN_clean_linker_2, # of connection points: 2
#     Edge 8, Type (0, 1), BuildingBlock: XUDNAN_clean_linker_2, # of connection points: 2
#     Edge 9, Type (0, 1), BuildingBlock: XUDNAN_clean_linker_2, # of connection points: 2
#     Edge 10, Type (0, 1), BuildingBlock: XUDNAN_clean_linker_2, # of connection points: 2
#     Edge 11, Type (0, 1), BuildingBlock: XUDNAN_clean_linker_2, # of connection points: 2
#     Edge 12, Type (0, 1), BuildingBlock: XUDNAN_clean_linker_2, # of connection points: 2
#     Edge 13, Type (0, 1), BuildingBlock: XUDNAN_clean_linker_2, # of connection points: 2
#     Edge 14, Type (0, 1), BuildingBlock: XUDNAN_clean_linker_2, # of connection points: 2
#     Edge 15, Type (0, 1), BuildingBlock: XUDNAN_clean_linker_2, # of connection points: 2
#     Edge 16, Type (0, 1), BuildingBlock: XUDNAN_clean_linker_2, # of connection points: 2
#     Edge 17, Type (0, 1), BuildingBlock: XUDNAN_clean_linker_2, # of connection points: 2
# Relax obj value: 0.019
# Max RMSD: 0.099
# Mean RMSD: 0.063
data_MOF--net-rtl--node1-KUMJIN_clean_sbu_1--node2-BELTOD_clean_linker_0--edge1-XUDNAN_clean_linker_2
_symmetry_space_group_name_H-M    P1
_symmetry_Int_Tables_number       1
_symmetry_cell_setting            triclinic
loop_
_symmetry_equiv_pos_as_xyz
'x, y, z'
_cell_length_a     37.199494
_cell_length_b     37.756718
_cell_length_c     32.635762
_cell_angle_alpha  78.83751
_cell_angle_beta   99.606256
_cell_angle_gamma 90.5417
loop_
_atom_site_label
_atom_site_type_symbol
_atom_site_fract_x
_atom_site_fract_y
_atom_site_fract_z
_atom_type_partial_charge
P0 P 0.27381 0.89845 0.01758 0.0
H1 H 0.28893 0.88902 0.10994 0.0
H2 H 0.25127 0.89646 0.16253 0.0
H3 H 0.15892 0.92666 0.06209 0.0
H4 H 0.19603 0.91758 0.01051 0.0
H5 H 0.33177 0.87319 0.98017 0.0
H6 H 0.36361 0.81462 0.9908 0.0
H7 H 0.29815 0.77 0.0849 0.0
H8 H 0.26569 0.82819 0.07343 0.0
H9 H 0.25756 0.96289 0.95066 0.0
H10 H 0.22895 0.85062 0.97114 0.0
O11 O 0.30525 0.93017 0.01935 0.0
H12 H 0.21601 0.9739 0.88245 0.0
H13 H 0.18738 0.86152 0.90321 0.0
C14 C 0.24533 0.9022 0.05634 0.0
C15 C 0.26044 0.89682 0.09944 0.0
C16 C 0.2389 0.90152 0.12941 0.0
C17 C 0.20187 0.91223 0.11671 0.0
C18 C 0.18703 0.91774 0.07333 0.0
C19 C 0.20846 0.91269 0.04355 0.0
C20 C 0.29702 0.85526 0.02673 0.0
C21 C 0.32427 0.85077 0.00308 0.0
C22 C 0.34221 0.81734 0.00887 0.0
C23 C 0.33333 0.78801 0.03873 0.0
C24 C 0.30562 0.79239 0.06194 0.0
C25 C 0.28727 0.82568 0.05561 0.0
C26 C 0.24681 0.9058 0.96545 0.0
C27 C 0.24293 0.94049 0.94007 0.0
C28 C 0.21925 0.94676 0.90118 0.0
C29 C 0.19868 0.91851 0.88763 0.0
C30 C 0.20292 0.88374 0.91302 0.0
C31 C 0.22679 0.87746 0.95165 0.0
P32 P 0.69008 0.69674 0.61524 0.0
H33 H 0.71159 0.68223 0.539 0.0
H34 H 0.67706 0.67154 0.47218 0.0
H35 H 0.57676 0.69761 0.51082 0.0
H36 H 0.61158 0.70809 0.57851 0.0
H37 H 0.74412 0.7191 0.67883 0.0
H38 H 0.7835 0.77091 0.67792 0.0
H39 H 0.72595 0.81915 0.55344 0.0
H40 H 0.68729 0.76624 0.55417 0.0
H41 H 0.6784 0.62861 0.66986 0.0
H42 H 0.6427 0.73962 0.65191 0.0
O43 O 0.72316 0.66521 0.62455 0.0
H44 H 0.6468 0.61275 0.72995 0.0
H45 H 0.60888 0.72371 0.71089 0.0
C46 C 0.66406 0.69503 0.56404 0.0
C47 C 0.68224 0.68613 0.53303 0.0
C48 C 0.66258 0.68024 0.49482 0.0
C49 C 0.62443 0.68374 0.48671 0.0
C50 C 0.60623 0.69494 0.51655 0.0
C51 C 0.62605 0.70067 0.55517 0.0
C52 C 0.71293 0.73877 0.61662 0.0
C53 C 0.73954 0.74113 0.65167 0.0
C54 C 0.76196 0.77096 0.65112 0.0
C55 C 0.75802 0.79932 0.61553 0.0
C56 C 0.73009 0.79758 0.58109 0.0
C57 C 0.70775 0.76746 0.58161 0.0
C58 C 0.66349 0.68541 0.65704 0.0
C59 C 0.66337 0.64958 0.67868 0.0
C60 C 0.6448 0.64044 0.71289 0.0
C61 C 0.62523 0.66689 0.72575 0.0
C62 C 0.62427 0.70269 0.70269 0.0
C63 C 0.64335 0.71186 0.6687 0.0
P64 P 0.79761 0.17425 0.04546 0.0
H65 H 0.79173 0.20459 0.95652 0.0
H66 H 0.79533 0.17869 0.89461 0.0
H67 H 0.80241 0.07157 0.97244 0.0
H68 H 0.79942 0.09808 0.03485 0.0
H69 H 0.77984 0.22488 0.09564 0.0
H70 H 0.72754 0.2655 0.08853 0.0
H71 H 0.6715 0.21745 0.98643 0.0
H72 H 0.72417 0.17723 0.99344 0.0
H73 H 0.86795 0.1484 0.09476 0.0
H74 H 0.75463 0.13276 0.10559 0.0
O75 O 0.83019 0.20485 0.04203 0.0
H76 H 0.88598 0.11439 0.16709 0.0
H77 H 0.77272 0.09815 0.17811 0.0
C78 C 0.79559 0.1533 1.00017 0.0
C79 C 0.79356 0.17549 0.96017 0.0
C80 C 0.79527 0.16056 0.92469 0.0
C81 C 0.79898 0.12298 0.92846 0.0
C82 C 0.79978 0.10062 0.96855 0.0
C83 C 0.798 0.11571 0.0042 0.0
C84 C 0.75616 0.19869 0.0445 0.0
C85 C 0.75604 0.22277 0.07216 0.0
C86 C 0.72599 0.2458 0.06824 0.0
C87 C 0.69551 0.24505 0.03651 0.0
C88 C 0.69487 0.21916 0.01063 0.0
C89 C 0.72497 0.1961 0.01464 0.0
C90 C 0.81001 0.14371 0.09533 0.0
C91 C 0.84697 0.13731 0.11256 0.0
C92 C 0.85725 0.11803 0.15383 0.0
C93 C 0.83067 0.10431 0.17815 0.0
C94 C 0.79363 0.10868 0.15988 0.0
C95 C 0.78333 0.1284 0.11862 0.0
P96 P 0.38209 0.25385 0.47907 0.0
H97 H 0.4134 0.22463 0.56672 0.0
H98 H 0.42498 0.25057 0.63044 0.0
H99 H 0.37955 0.35299 0.55745 0.0
H100 H 0.36896 0.32686 0.49349 0.0
H101 H 0.35217 0.19692 0.43604 0.0
H102 H 0.2944 0.16531 0.43341 0.0
H103 H 0.25831 0.23114 0.51388 0.0
H104 H 0.31612 0.26303 0.51608 0.0
H105 H 0.43811 0.30518 0.45701 0.0
H106 H 0.3363 0.27054 0.39432 0.0
O107 O 0.41391 0.22162 0.48472 0.0
H108 H 0.45023 0.33938 0.38905 0.0
H109 H 0.34814 0.30461 0.32665 0.0
C110 C 0.39116 0.27408 0.52527 0.0
C111 C 0.40632 0.25279 0.56435 0.0
C112 C 0.41259 0.26758 0.60089 0.0
C113 C 0.40339 0.30394 0.59914 0.0
C114 C 0.38767 0.3251 0.55983 0.0
C115 C 0.38148 0.31022 0.52323 0.0
C116 C 0.3386 0.23211 0.47646 0.0
C117 C 0.33181 0.20464 0.45304 0.0
C118 C 0.29876 0.18668 0.45146 0.0
C119 C 0.27193 0.1957 0.47357 0.0
C120 C 0.2787 0.22338 0.49694 0.0
C121 C 0.31168 0.2417 0.49806 0.0
C122 C 0.38628 0.28534 0.43092 0.0
C123 C 0.41793 0.30566 0.42883 0.0
C124 C 0.42483 0.32522 0.38995 0.0
C125 C 0.40034 0.32441 0.35235 0.0
C126 C 0.36784 0.30535 0.35493 0.0
C127 C 0.36092 0.28596 0.3938 0.0
Eu128 Eu 0.02646 0.96845 0.51167 0.0
C129 C 0.94968 0.11975 0.49542 0.0
N130 N 0.98252 0.10753 0.51892 0.0
C131 C 0.00808 0.1657 0.50013 0.0
C132 C 0.945 0.15572 0.47296 0.0
C133 C 0.01143 0.12992 0.5221 0.0
C134 C 0.97476 0.17865 0.47539 0.0
C135 C 0.88629 0.10825 0.46957 0.0
C136 C 0.92051 0.09625 0.49377 0.0
C137 C 0.88159 0.14412 0.44741 0.0
C138 C 0.91083 0.16775 0.44906 0.0
Eu139 Eu 0.98387 0.04761 0.55659 0.0
N140 N 0.92583 0.06146 0.51513 0.0
C141 C 0.85773 0.08383 0.46847 0.0
C142 C 0.8978 0.03796 0.5156 0.0
C143 C 0.86348 0.04859 0.49176 0.0
H144 H 0.03688 0.12058 0.54239 0.0
H145 H 0.8414 0.02972 0.49164 0.0
H146 H 0.97612 0.89419 0.51987 0.0
H147 H 0.17062 0.98506 0.57191 0.0
H148 H 0.90185 0.01109 0.53435 0.0
H149 H 0.83106 0.092 0.45012 0.0
H150 H 0.10975 0.00389 0.53122 0.0
H151 H 0.03106 0.1834 0.50268 0.0
H152 H 0.85545 0.15383 0.42872 0.0
H153 H 0.90674 0.19532 0.43168 0.0
H154 H 0.98329 0.82973 0.5542 0.0
H155 H 0.97222 0.20647 0.45862 0.0
H156 H 0.18204 0.92207 0.61084 0.0
N157 N 0.03056 0.90672 0.54333 0.0
C158 C 0.06347 0.89424 0.56618 0.0
C159 C 0.00601 0.84761 0.55795 0.0
C160 C 0.06889 0.85759 0.58593 0.0
C161 C 1.00195 0.88415 0.53883 0.0
C162 C 0.03961 0.83426 0.58163 0.0
N163 N 0.08601 0.95323 0.54946 0.0
C164 C 0.11393 0.97686 0.54919 0.0
C165 C 0.1267 0.90582 0.59206 0.0
C166 C 0.09206 0.91809 0.56921 0.0
C167 C 0.15504 0.93043 0.59357 0.0
C168 C 0.14868 0.96603 0.57174 0.0
H169 H 0.04271 0.80589 0.59625 0.0
H170 H 0.10797 0.81728 0.6244 0.0
H171 H 0.15853 0.8595 0.62982 0.0
O172 O 0.05111 0.98256 0.45443 0.0
O173 O 0.04016 0.96526 0.58285 0.0
O174 O 0.03725 0.02347 0.59579 0.0
O175 O 0.02219 0.93266 0.46611 0.0
O176 O 0.04188 0.02728 0.49263 0.0
O177 O 0.04294 0.05482 0.5498 0.0
O178 O 0.94917 0.04225 0.60515 0.0
O179 O 0.97226 0.04768 0.48521 0.0
O180 O 0.96949 0.98769 0.48257 0.0
O181 O 0.98457 0.08807 0.5962 0.0
O182 O 0.96946 0.98969 0.58143 0.0
O183 O 0.96936 0.95885 0.52684 0.0
C184 C 0.04758 0.98926 0.60715 0.0
C185 C 0.07079 0.9335 0.42789 0.0
C186 C 0.10287 0.92336 0.37173 0.0
C187 C 0.12555 0.89749 0.40123 0.0
C188 C 0.0935 0.90734 0.45681 0.0
C189 C 0.1207 0.88943 0.44347 0.0
C190 C 0.07534 0.94127 0.38518 0.0
C191 C 0.05582 0.05038 0.51603 0.0
C192 C 0.04207 0.95248 0.44175 0.0
C193 C 0.1033 0.84535 0.60902 0.0
C194 C 0.1321 0.8694 0.61212 0.0
C195 C 0.96054 0.02132 0.46575 0.0
C196 C 0.96646 0.07081 0.66367 0.0
C197 C 0.93957 0.07151 0.72689 0.0
C198 C 0.97477 0.0744 0.74966 0.0
C199 C 1.00133 0.07339 0.68697 0.0
C200 C 0.9358 0.06951 0.68381 0.0
C201 C 0.00536 0.07515 0.72982 0.0
C202 C 0.95796 0.96353 0.56159 0.0
C203 C 0.96075 0.07164 0.61785 0.0
H204 H 0.14655 0.883 0.39134 0.0
H205 H 0.09009 0.90056 0.48958 0.0
H206 H 0.13795 0.86911 0.46589 0.0
H207 H 0.05766 0.9612 0.36256 0.0
H208 H 0.97868 0.07701 0.78257 0.0
H209 H 0.02531 0.07455 0.67198 0.0
H210 H 0.90893 0.06737 0.66565 0.0
H211 H 0.03224 0.0777 0.74759 0.0
Eu212 Eu 0.46194 0.49453 0.9923 0.0
C213 C 0.6184 0.54841 0.0494 0.0
N214 N 0.60295 0.51627 0.0628 0.0
C215 C 0.65804 0.48435 0.06159 0.0
C216 C 0.65423 0.54939 0.04036 0.0
C217 C 0.62261 0.48463 0.07049 0.0
C218 C 0.67381 0.51681 0.04609 0.0
C219 C 0.6146 0.61412 0.03275 0.0
C220 C 0.59864 0.58063 0.04545 0.0
C221 C 0.65 0.61496 0.02299 0.0
C222 C 0.6697 0.58275 0.02671 0.0
Eu223 Eu 0.54425 0.52103 0.07957 0.0
N224 N 0.56401 0.57924 0.05429 0.0
C225 C 0.59478 0.64587 0.03104 0.0
C226 C 0.54503 0.61001 0.05396 0.0
C227 C 0.56009 0.6438 0.04231 0.0
H228 H 0.61163 0.45959 0.08465 0.0
H229 H 0.54489 0.66821 0.04187 0.0
H230 H 0.3922 0.55332 0.98913 0.0
H231 H 0.45938 0.34841 0.01092 0.0
H232 H 0.51868 0.60855 0.06357 0.0
H233 H 0.60623 0.67211 0.02169 0.0
H234 H 0.48466 0.40943 0.99398 0.0
H235 H 0.6734 0.45915 0.06741 0.0
H236 H 0.6626 0.64047 0.013 0.0
H237 H 0.69715 0.58395 0.01955 0.0
H238 H 0.33137 0.55174 0.00895 0.0
H239 H 0.70143 0.51649 0.0396 0.0
H240 H 0.39932 0.34132 0.03443 0.0
N241 N 0.40247 0.49668 0.00914 0.0
C242 C 0.3874 0.4641 0.02107 0.0
C243 C 0.34708 0.52691 0.01328 0.0
C244 C 0.35185 0.46183 0.03103 0.0
C245 C 0.38215 0.52778 0.0031 0.0
C246 C 0.33205 0.49383 0.02792 0.0
N247 N 0.44036 0.43579 0.00998 0.0
C248 C 0.45881 0.40628 0.00498 0.0
C249 C 0.39093 0.3987 0.03035 0.0
C250 C 0.40661 0.43282 0.02076 0.0
C251 C 0.41046 0.368 0.02736 0.0
C252 C 0.4444 0.37187 0.01417 0.0
H253 H 0.30464 0.49323 0.03518 0.0
H254 H 0.3095 0.42562 0.05018 0.0
H255 H 0.34375 0.37036 0.04964 0.0
O256 O 0.47415 0.47817 0.93416 0.0
O257 O 0.47334 0.45784 0.05748 0.0
O258 O 0.49453 0.495 0.10395 0.0
O259 O 0.42143 0.50309 0.93515 0.0
O260 O 0.52064 0.47561 0.99824 0.0
O261 O 0.54608 0.4636 0.06875 0.0
O262 O 0.55657 0.55208 0.13025 0.0
O263 O 0.54652 0.53846 0.00869 0.0
O264 O 0.48702 0.54871 0.9748 0.0
O265 O 0.57975 0.49731 0.13896 0.0
O266 O 0.48837 0.54457 0.0778 0.0
O267 O 0.45632 0.54996 0.00951 0.0
C268 C 0.47818 0.46561 0.09557 0.0
C269 C 0.42937 0.48944 0.86823 0.0
C270 C 0.42275 0.46043 0.80671 0.0
C271 C 0.40288 0.49107 0.78233 0.0
C272 C 0.40944 0.5196 0.8432 0.0
C273 C 0.39639 0.52039 0.80048 0.0
C274 C 0.4361 0.45981 0.84993 0.0
C275 C 0.5401 0.45464 0.03119 0.0
C276 C 0.44183 0.48895 0.91355 0.0
C277 C 0.33667 0.42783 0.04222 0.0
C278 C 0.35614 0.39635 0.04183 0.0
C279 C 0.52203 0.55366 0.97629 0.0
C280 C 0.59702 0.52966 0.19677 0.0
C281 C 0.60351 0.55698 0.2596 0.0
C282 C 0.6378 0.5394 0.27385 0.0
C283 C 0.63096 0.51199 0.21211 0.0
C284 C 0.5834 0.5525 0.22043 0.0
C285 C 0.65132 0.5171 0.25029 0.0
C286 C 0.46372 0.56061 0.04621 0.0
C287 C 0.5779 0.52657 0.1544 0.0
H288 H 0.3916 0.4921 0.74928 0.0
H289 H 0.4039 0.54259 0.85674 0.0
H290 H 0.38085 0.54367 0.78143 0.0
H291 H 0.45128 0.43636 0.86927 0.0
H292 H 0.65444 0.54317 0.3032 0.0
H293 H 0.64226 0.49503 0.19394 0.0
H294 H 0.55723 0.56635 0.20868 0.0
H295 H 0.67782 0.50395 0.26155 0.0
H296 H 0.23705 0.16582 0.53971 0.0
H297 H 0.22819 0.18164 0.4031 0.0
H298 H 0.17114 0.14757 0.39927 0.0
H299 H 0.20453 0.0748 0.55367 0.0
H300 H 0.18029 0.07945 0.59582 0.0
H301 H 0.21996 0.10597 0.58796 0.0
H302 H 0.18203 0.16461 0.58183 0.0
H303 H 0.14229 0.13818 0.5897 0.0
H304 H 0.1407 0.17342 0.5434 0.0
H305 H 0.11675 0.11027 0.41008 0.0
H306 H 0.06726 0.0724 0.43489 0.0
H307 H 0.11006 0.08126 0.56451 0.0
C308 C 0.22279 0.16245 0.509 0.0
C309 C 0.23694 0.17641 0.47163 0.0
C310 C 0.21792 0.17095 0.43208 0.0
C311 C 0.18547 0.15176 0.42959 0.0
C312 C 0.17243 0.13808 0.46696 0.0
C313 C 0.19043 0.14308 0.50596 0.0
C314 C 0.17101 0.12446 0.54133 0.0
C315 C 0.1954 0.09439 0.57147 0.0
C316 C 0.15825 0.15181 0.56548 0.0
C317 C 0.13899 0.10882 0.51598 0.0
C318 C 0.14059 0.11676 0.47318 0.0
C319 C 0.11502 0.10407 0.44347 0.0
C320 C 0.08708 0.08254 0.45786 0.0
C321 C 0.08471 0.07425 0.5015 0.0
C322 C 0.1109 0.08777 0.53087 0.0
H323 H 0.34361 0.74493 0.98238 0.0
H324 H 0.37013 0.75364 0.11454 0.0
H325 H 0.40587 0.69636 0.13025 0.0
H326 H 0.33299 0.6473 0.0035 0.0
H327 H 0.35204 0.64055 0.95825 0.0
H328 H 0.3287 0.6825 0.95685 0.0
H329 H 0.38583 0.71789 0.93865 0.0
H330 H 0.40923 0.67607 0.93984 0.0
H331 H 0.42921 0.70676 0.97278 0.0
H332 H 0.43808 0.63903 0.13207 0.0
H333 H 0.46584 0.58395 0.12047 0.0
H334 H 0.41947 0.61131 0.98657 0.0
C335 C 0.35706 0.73466 0.01454 0.0
C336 C 0.3542 0.75346 0.04741 0.0
C337 C 0.37182 0.73932 0.08916 0.0
C338 C 0.39221 0.70695 0.0983 0.0
C339 C 0.39431 0.68886 0.06539 0.0
C340 C 0.37715 0.70198 0.02437 0.0
C341 C 0.38334 0.67654 0.99527 0.0
C342 C 0.34711 0.6608 0.97741 0.0
C343 C 0.4031 0.69545 0.95954 0.0
C344 C 0.40744 0.64766 0.02622 0.0
C345 C 0.41303 0.65528 0.0665 0.0
C346 C 0.43386 0.63267 0.1007 0.0
C347 C 0.44951 0.60135 0.09369 0.0
C348 C 0.44463 0.59291 0.05263 0.0
C349 C 0.42326 0.61654 0.01845 0.0
H350 H 0.78832 0.83306 0.54698 0.0
H351 H 0.7885 0.83269 0.68022 0.0
H352 H 0.83887 0.87549 0.68017 0.0
H353 H 0.88116 0.83541 0.54822 0.0
H354 H 0.87998 0.86666 0.49864 0.0
H355 H 0.84153 0.83862 0.50732 0.0
H356 H 0.7988 0.89526 0.49099 0.0
H357 H 0.8371 0.92347 0.48151 0.0
H358 H 0.80984 0.9312 0.51981 0.0
H359 H 0.89191 0.9144 0.66753 0.0
H360 H 0.94229 0.95017 0.64167 0.0
H361 H 0.90739 0.92619 0.51644 0.0
C362 C 0.7982 0.84269 0.57588 0.0
C363 C 0.78457 0.82912 0.61375 0.0
C364 C 0.79886 0.84209 0.65101 0.0
C365 C 0.82733 0.86661 0.65126 0.0
C366 C 0.84088 0.87845 0.61384 0.0
C367 C 0.82643 0.86749 0.57661 0.0
C368 C 0.84671 0.88377 0.54105 0.0
C369 C 0.86333 0.85434 0.52276 0.0
C370 C 0.82162 0.90997 0.50628 0.0
C371 C 0.87594 0.90395 0.56474 0.0
C372 C 0.87166 0.90102 0.6065 0.0
C373 C 0.89536 0.91718 0.6348 0.0
C374 C 0.92394 0.93732 0.61986 0.0
C375 C 0.92881 0.94073 0.57717 0.0
C376 C 0.90456 0.92365 0.54937 0.0
H377 H 0.66396 0.27406 0.09384 0.0
H378 H 0.66268 0.28173 0.95909 0.0
H379 H 0.61971 0.3336 0.94359 0.0
H380 H 0.56711 0.30216 0.08464 0.0
H381 H 0.57718 0.32726 0.12669 0.0
H382 H 0.60467 0.28804 0.12727 0.0
H383 H 0.66268 0.32662 0.13239 0.0
H384 H 0.63536 0.36595 0.13147 0.0
H385 H 0.66495 0.36681 0.09283 0.0
H386 H 0.58181 0.38739 0.94235 0.0
H387 H 0.54918 0.43936 0.95528 0.0
H388 H 0.5749 0.39826 0.09095 0.0
C389 C 0.65425 0.28638 0.06106 0.0
C390 C 0.66647 0.27356 0.02766 0.0
C391 C 0.65314 0.29046 0.98519 0.0
C392 C 0.62889 0.32014 0.97604 0.0
C393 C 0.61803 0.33252 0.00966 0.0
C394 C 0.62994 0.31608 0.05132 0.0
C395 C 0.61525 0.33595 0.08145 0.0
C396 C 0.58953 0.31192 0.10649 0.0
C397 C 0.64643 0.34964 0.11128 0.0
C398 C 0.59443 0.36688 0.05018 0.0
C399 C 0.59609 0.36403 0.00896 0.0
C400 C 0.57995 0.38976 0.97445 0.0
C401 C 0.56152 0.41924 0.98219 0.0
C402 C 0.5595 0.42294 0.02415 0.0
C403 C 0.57607 0.39624 0.05855 0.0
H404 H 0.222 0.93896 0.19006 0.0
H405 H 0.12931 0.89688 0.11586 0.0
H406 H 0.09124 0.90492 0.16837 0.0
H407 H 0.2063 0.89264 0.2882 0.0
H408 H 0.22066 0.92837 0.31633 0.0
H409 H 0.23893 0.92485 0.26961 0.0
H410 H 0.21737 0.99079 0.23615 0.0
H411 H 0.19854 0.99429 0.28271 0.0
H412 H 0.17003 0.00348 0.2313 0.0
H413 H 0.06415 0.91302 0.23152 0.0
H414 H 0.05269 0.91369 0.30402 0.0
H415 H 0.16383 0.94602 0.33915 0.0
C416 C 0.19369 0.93149 0.18464 0.0
C417 C 0.17873 0.91763 0.14832 0.0
C418 C 0.14138 0.90843 0.14268 0.0
C419 C 0.11945 0.91285 0.17243 0.0
C420 C 0.13514 0.92641 0.20786 0.0
C421 C 0.1715 0.93533 0.21425 0.0
C422 C 0.18262 0.946 0.25691 0.0
C423 C 0.21396 0.92148 0.28437 0.0
C424 C 0.19274 0.98602 0.25143 0.0
C425 C 0.14741 0.93971 0.27446 0.0
C426 C 0.11996 0.92966 0.2451 0.0
C427 C 0.08533 0.92115 0.25464 0.0
C428 C 0.079 0.92171 0.29573 0.0
C429 C 0.10741 0.92994 0.32679 0.0
C430 C 0.14168 0.93987 0.31569 0.0
H431 H 0.5925 0.60284 0.7549 0.0
H432 H 0.61815 0.7086 0.78452 0.0
H433 H 0.59097 0.69204 0.84915 0.0
H434 H 0.5078 0.59084 0.79662 0.0
H435 H 0.51658 0.54349 0.81828 0.0
H436 H 0.53499 0.56456 0.77205 0.0
H437 H 0.60011 0.54289 0.81016 0.0
H438 H 0.58189 0.52168 0.85641 0.0
H439 H 0.61733 0.55428 0.86087 0.0
H440 H 0.56085 0.66434 0.91052 0.0
H441 H 0.53438 0.62529 0.9673 0.0
H442 H 0.53559 0.53534 0.90328 0.0
C443 C 0.5926 0.62262 0.77488 0.0
C444 C 0.60728 0.6573 0.76398 0.0
C445 C 0.60629 0.68226 0.79119 0.0
C446 C 0.59113 0.67301 0.82828 0.0
C447 C 0.5773 0.63857 0.8381 0.0
C448 C 0.57814 0.61364 0.81241 0.0
C449 C 0.56326 0.57776 0.83149 0.0
C450 C 0.5286 0.56863 0.80291 0.0
C451 C 0.5924 0.54737 0.84026 0.0
C452 C 0.5545 0.58629 0.87228 0.0
C453 C 0.56219 0.62175 0.87501 0.0
C454 C 0.55536 0.63637 0.90907 0.0
C455 C 0.54085 0.61397 0.94149 0.0
C456 C 0.53453 0.57727 0.94035 0.0
C457 C 0.54086 0.56332 0.90504 0.0
H458 H 0.87289 0.13295 0.2394 0.0
H459 H 0.81403 0.03694 0.21742 0.0
H460 H 0.83702 0.00668 0.29158 0.0
H461 H 0.95142 0.09063 0.30144 0.0
H462 H 0.95836 0.12159 0.33757 0.0
H463 H 0.93456 0.13666 0.28438 0.0
H464 H 0.87838 0.15686 0.31317 0.0
H465 H 0.90345 0.14289 0.36599 0.0
H466 H 0.85891 0.12514 0.3518 0.0
H467 H 0.87155 0.98523 0.36482 0.0
H468 H 0.91327 0.97428 0.43329 0.0
H469 H 0.94783 0.08543 0.40872 0.0
C470 C 0.86454 0.1057 0.25051 0.0
C471 C 0.84188 0.08704 0.22304 0.0
C472 C 0.83126 0.05155 0.23832 0.0
C473 C 0.84414 0.03428 0.28025 0.0
C474 C 0.86692 0.05327 0.30645 0.0
C475 C 0.87663 0.08836 0.29236 0.0
C476 C 0.9025 0.10231 0.32634 0.0
C477 C 0.93886 0.11343 0.31153 0.0
C478 C 0.8847 0.13365 0.34015 0.0
C479 C 0.90722 0.069 0.36115 0.0
C480 C 0.88617 0.04115 0.34916 0.0
C481 C 0.88773 0.00697 0.3748 0.0
C482 C 0.91171 1.00098 0.4135 0.0
C483 C 0.93381 0.02903 0.42618 0.0
C484 C 0.93099 0.06363 0.39997 0.0
H485 H 0.42782 0.37154 0.60722 0.0
H486 H 0.39317 0.27198 0.67944 0.0
H487 H 0.40242 0.29864 0.74368 0.0
H488 H 0.49613 0.39478 0.69248 0.0
H489 H 0.48499 0.44236 0.67673 0.0
H490 H 0.47962 0.41406 0.63762 0.0
H491 H 0.41176 0.43477 0.6141 0.0
H492 H 0.41701 0.46335 0.65274 0.0
H493 H 0.38206 0.42995 0.65311 0.0
H494 H 0.41043 0.3384 0.79883 0.0
H495 H 0.41293 0.38862 0.83804 0.0
H496 H 0.4421 0.46163 0.72935 0.0
C497 C 0.42228 0.35523 0.63653 0.0
C498 C 0.40991 0.31958 0.6382 0.0
C499 C 0.40326 0.29915 0.67741 0.0
C500 C 0.40839 0.31408 0.71411 0.0
C501 C 0.42037 0.34942 0.71123 0.0
C502 C 0.42722 0.36969 0.67337 0.0
C503 C 0.43747 0.40777 0.67783 0.0
C504 C 0.4769 0.41517 0.67074 0.0
C505 C 0.41046 0.43558 0.64767 0.0
C506 C 0.43397 0.40625 0.72364 0.0
C507 C 0.42475 0.37223 0.74272 0.0
C508 C 0.41807 0.36504 0.78434 0.0
C509 C 0.41974 0.39366 0.80646 0.0
C510 C 0.42762 0.42902 0.78669 0.0
C511 C 0.43589 0.43491 0.74524 0.0
H512 H 0.61789 0.61479 0.47819 0.0
H513 H 0.58911 0.72391 0.4116 0.0
H514 H 0.56828 0.70119 0.34513 0.0
H515 H 0.65792 0.5903 0.4033 0.0
H516 H 0.64363 0.54408 0.41065 0.0
H517 H 0.64743 0.56778 0.45374 0.0
H518 H 0.58007 0.55431 0.46106 0.0
H519 H 0.57598 0.53025 0.41793 0.0
H520 H 0.54461 0.56696 0.41563 0.0
H521 H 0.56284 0.66705 0.28379 0.0
H522 H 0.57332 0.62609 0.23568 0.0
H523 H 0.60426 0.53966 0.34422 0.0
C524 C 0.60569 0.6336 0.44992 0.0
C525 C 0.60441 0.67083 0.44971 0.0
C526 C 0.58954 0.69514 0.41218 0.0
C527 C 0.57774 0.68242 0.37444 0.0
C528 C 0.58076 0.64538 0.37522 0.0
C529 C 0.59394 0.62134 0.41237 0.0
C530 C 0.59932 0.58381 0.40451 0.0
C531 C 0.63943 0.57077 0.41888 0.0
C532 C 0.57344 0.55727 0.42606 0.0
C533 C 0.58884 0.59054 0.35693 0.0
C534 C 0.57761 0.62599 0.34033 0.0
C535 C 0.57075 0.63906 0.29658 0.0
C536 C 0.57669 0.61563 0.26945 0.0
C537 C 0.58976 0.57976 0.28634 0.0
C538 C 0.5943 0.56695 0.33045 0.0
H539 H 0.8485 0.07024 0.92714 0.0
H540 H 0.76557 0.14343 0.84562 0.0
H541 H 0.78629 0.12885 0.78279 0.0
H542 H 0.91649 0.09246 0.87561 0.0
H543 H 0.93669 0.04824 0.88093 0.0
H544 H 0.90994 0.05677 0.91905 0.0
H545 H 0.86775 0.00412 0.90432 0.0
H546 H 0.89473 0.99501 0.86628 0.0
H547 H 0.84624 0.0031 0.85083 0.0
H548 H 0.82397 0.11702 0.73049 0.0
H549 H 0.87432 0.10761 0.69311 0.0
H550 H 0.93144 0.03968 0.80778 0.0
C551 C 0.83353 0.08185 0.89612 0.0
C552 C 0.8055 0.10805 0.89132 0.0
C553 C 0.78736 0.12353 0.85008 0.0
C554 C 0.79872 0.11515 0.81417 0.0
C555 C 0.82775 0.09064 0.81997 0.0
C556 C 0.84442 0.07357 0.85995 0.0
C557 C 0.87772 0.05167 0.85772 0.0
C558 C 0.91221 0.06301 0.88491 0.0
C559 C 0.87121 0.01106 0.87054 0.0
C560 C 0.8792 0.06199 0.81087 0.0
C561 C 0.84948 0.08348 0.78939 0.0
C562 C 0.84683 0.09936 0.7467 0.0
C563 C 0.87563 0.09382 0.72568 0.0
C564 C 0.90693 0.07285 0.74749 0.0
C565 C 0.90799 0.05592 0.79027 0.0
H566 H 0.43068 0.39084 0.32793 0.0
H567 H 0.39233 0.29443 0.28184 0.0
H568 H 0.40913 0.31978 0.21237 0.0
H569 H 0.39933 0.45422 0.23122 0.0
H570 H 0.43839 0.48264 0.23636 0.0
H571 H 0.42396 0.45682 0.28301 0.0
H572 H 0.48858 0.42734 0.30733 0.0
H573 H 0.50315 0.45301 0.26064 0.0
H574 H 0.50801 0.40448 0.27224 0.0
H575 H 0.43229 0.35381 0.14923 0.0
H576 H 0.4559 0.39669 0.09402 0.0
H577 H 0.47578 0.47359 0.1778 0.0
C578 C 0.42591 0.37507 0.30322 0.0
C579 C 0.40991 0.3407 0.31031 0.0
C580 C 0.40395 0.32103 0.27704 0.0
C581 C 0.4137 0.33506 0.23754 0.0
C582 C 0.42934 0.36891 0.2316 0.0
C583 C 0.43524 0.38885 0.2633 0.0
C584 C 0.45194 0.42487 0.24801 0.0
C585 C 0.4269 0.45651 0.24975 0.0
C586 C 0.49019 0.42758 0.27358 0.0
C587 C 0.45397 0.42219 0.20263 0.0
C588 C 0.44128 0.3894 0.1942 0.0
C589 C 0.44157 0.37988 0.15518 0.0
C590 C 0.4546 0.40473 0.12367 0.0
C591 C 0.46625 0.43924 0.13057 0.0
C592 C 0.46642 0.44776 0.17103 0.0
H593 H 0.20779 0.95276 0.80775 0.0
H594 H 0.12739 0.90045 0.87981 0.0
H595 H 0.08037 0.91259 0.81543 0.0
H596 H 0.15009 0.0232 0.74085 0.0
H597 H 0.16916 0.02155 0.69394 0.0
H598 H 0.19678 0.00832 0.7455 0.0
H599 H 0.2103 0.94594 0.72827 0.0
H600 H 0.18293 0.95945 0.67657 0.0
H601 H 0.17281 0.91868 0.7112 0.0
H602 H 0.04211 0.93064 0.74434 0.0
H603 H 0.0145 0.95378 0.66956 0.0
H604 H 0.11902 0.9947 0.64272 0.0
C605 C 0.18024 0.94395 0.80979 0.0
C606 C 0.17108 0.9256 0.84856 0.0
C607 C 0.13492 0.91419 0.85022 0.0
C608 C 0.10807 0.92106 0.81392 0.0
C609 C 0.11793 0.93906 0.77614 0.0
C610 C 0.15314 0.95019 0.77363 0.0
C611 C 0.15641 0.96863 0.72881 0.0
C612 C 0.16884 0.00775 0.72721 0.0
C613 C 0.18213 0.94687 0.71012 0.0
C614 C 0.11727 0.96721 0.70695 0.0
C615 C 0.09569 0.94961 0.73483 0.0
C616 C 0.05867 0.94447 0.7222 0.0
C617 C 0.04324 0.95767 0.67989 0.0
C618 C 0.06474 0.97606 0.65111 0.0
C619 C 0.10216 0.9809 0.66459 0.0
loop_
_geom_bond_atom_site_label_1
_geom_bond_atom_site_label_2
_geom_bond_distance
_geom_bond_site_symmetry_2
_ccdc_geom_bond_type
P0 O11 1.490 . S
P0 C14 1.812 . S
P0 C20 1.803 . S
P0 C26 1.819 1_554 S
H1 C15 0.941 . S
H2 C16 0.939 . S
H3 C18 0.940 . S
H4 C19 0.940 . S
H5 C21 0.939 . S
H6 C22 0.942 . S
H7 C24 0.940 . S
H8 C25 0.939 . S
H9 C27 0.941 . S
H10 C31 0.939 . S
O11 P0 1.490 . S
H12 C28 0.939 . S
H13 C30 0.940 . S
C14 P0 1.812 . S
C14 C15 1.389 . S
C14 C19 1.391 . S
C15 H1 0.941 . S
C15 C14 1.389 . S
C15 C16 1.397 . S
C16 H2 0.939 . S
C16 C15 1.397 . S
C16 C17 1.378 . S
C17 C16 1.378 . S
C17 C18 1.378 . S
C18 H3 0.940 . S
C18 C17 1.378 . S
C18 C19 1.396 . S
C19 H4 0.940 . S
C19 C14 1.391 . S
C19 C18 1.396 . S
C20 P0 1.803 . S
C20 C21 1.378 . S
C20 C25 1.400 . S
C21 H5 0.939 . S
C21 C20 1.378 . S
C21 C22 1.361 . S
C22 H6 0.942 . S
C22 C21 1.361 . S
C22 C23 1.369 . S
C23 C22 1.369 . S
C23 C24 1.404 . S
C24 H7 0.940 . S
C24 C23 1.404 . S
C24 C25 1.389 . S
C25 H8 0.939 . S
C25 C20 1.400 . S
C25 C24 1.389 . S
C26 P0 1.819 1_556 S
C26 C27 1.391 . S
C26 C31 1.391 . S
C27 H9 0.941 . S
C27 C26 1.391 . S
C27 C28 1.396 . S
C28 H12 0.939 . S
C28 C27 1.396 . S
C28 C29 1.397 . S
C29 C28 1.397 . S
C29 C30 1.385 . S
C30 H13 0.940 . S
C30 C29 1.385 . S
C30 C31 1.388 . S
C31 H10 0.939 . S
C31 C26 1.391 . S
C31 C30 1.388 . S
P32 O43 1.490 . S
P32 C46 1.812 . S
P32 C52 1.803 . S
P32 C58 1.819 . S
H33 C47 0.941 . S
H34 C48 0.939 . S
H35 C50 0.940 . S
H36 C51 0.940 . S
H37 C53 0.939 . S
H38 C54 0.942 . S
H39 C56 0.940 . S
H40 C57 0.939 . S
H41 C59 0.941 . S
H42 C63 0.939 . S
O43 P32 1.490 . S
H44 C60 0.939 . S
H45 C62 0.940 . S
C46 P32 1.812 . S
C46 C47 1.389 . S
C46 C51 1.391 . S
C47 H33 0.941 . S
C47 C46 1.389 . S
C47 C48 1.397 . S
C48 H34 0.939 . S
C48 C47 1.397 . S
C48 C49 1.378 . S
C49 C48 1.378 . S
C49 C50 1.378 . S
C50 H35 0.940 . S
C50 C49 1.378 . S
C50 C51 1.396 . S
C51 H36 0.940 . S
C51 C46 1.391 . S
C51 C50 1.396 . S
C52 P32 1.803 . S
C52 C53 1.378 . S
C52 C57 1.400 . S
C53 H37 0.939 . S
C53 C52 1.378 . S
C53 C54 1.361 . S
C54 H38 0.942 . S
C54 C53 1.361 . S
C54 C55 1.369 . S
C55 C54 1.369 . S
C55 C56 1.404 . S
C56 H39 0.940 . S
C56 C55 1.404 . S
C56 C57 1.389 . S
C57 H40 0.939 . S
C57 C52 1.400 . S
C57 C56 1.389 . S
C58 P32 1.819 . S
C58 C59 1.391 . S
C58 C63 1.391 . S
C59 H41 0.941 . S
C59 C58 1.391 . S
C59 C60 1.396 . S
C60 H44 0.939 . S
C60 C59 1.396 . S
C60 C61 1.397 . S
C61 C60 1.397 . S
C61 C62 1.385 . S
C62 H45 0.940 . S
C62 C61 1.385 . S
C62 C63 1.388 . S
C63 H42 0.939 . S
C63 C58 1.391 . S
C63 C62 1.388 . S
P64 O75 1.490 . S
P64 C78 1.812 . S
P64 C84 1.803 . S
P64 C90 1.819 . S
H65 C79 0.941 . S
H66 C80 0.939 . S
H67 C82 0.940 . S
H68 C83 0.940 . S
H69 C85 0.939 . S
H70 C86 0.942 . S
H71 C88 0.940 . S
H72 C89 0.939 . S
H73 C91 0.941 . S
H74 C95 0.939 . S
O75 P64 1.490 . S
H76 C92 0.939 . S
H77 C94 0.940 . S
C78 P64 1.812 . S
C78 C79 1.389 1_554 S
C78 C83 1.391 . S
C79 H65 0.941 . S
C79 C78 1.389 1_556 S
C79 C80 1.397 . S
C80 H66 0.939 . S
C80 C79 1.397 . S
C80 C81 1.378 . S
C81 C80 1.378 . S
C81 C82 1.378 . S
C82 H67 0.940 . S
C82 C81 1.378 . S
C82 C83 1.396 1_556 S
C83 H68 0.940 . S
C83 C78 1.391 . S
C83 C82 1.396 1_554 S
C84 P64 1.803 . S
C84 C85 1.378 . S
C84 C89 1.400 . S
C85 H69 0.939 . S
C85 C84 1.378 . S
C85 C86 1.361 . S
C86 H70 0.942 . S
C86 C85 1.361 . S
C86 C87 1.369 . S
C87 C86 1.369 . S
C87 C88 1.404 . S
C88 H71 0.940 . S
C88 C87 1.404 . S
C88 C89 1.389 . S
C89 H72 0.939 . S
C89 C84 1.400 . S
C89 C88 1.389 . S
C90 P64 1.819 . S
C90 C91 1.391 . S
C90 C95 1.391 . S
C91 H73 0.941 . S
C91 C90 1.391 . S
C91 C92 1.396 . S
C92 H76 0.939 . S
C92 C91 1.396 . S
C92 C93 1.397 . S
C93 C92 1.397 . S
C93 C94 1.385 . S
C94 H77 0.940 . S
C94 C93 1.385 . S
C94 C95 1.388 . S
C95 H74 0.939 . S
C95 C90 1.391 . S
C95 C94 1.388 . S
P96 O107 1.490 . S
P96 C110 1.812 . S
P96 C116 1.803 . S
P96 C122 1.819 . S
H97 C111 0.941 . S
H98 C112 0.939 . S
H99 C114 0.940 . S
H100 C115 0.940 . S
H101 C117 0.939 . S
H102 C118 0.942 . S
H103 C120 0.940 . S
H104 C121 0.939 . S
H105 C123 0.941 . S
H106 C127 0.939 . S
O107 P96 1.490 . S
H108 C124 0.939 . S
H109 C126 0.940 . S
C110 P96 1.812 . S
C110 C111 1.389 . S
C110 C115 1.391 . S
C111 H97 0.941 . S
C111 C110 1.389 . S
C111 C112 1.397 . S
C112 H98 0.939 . S
C112 C111 1.397 . S
C112 C113 1.378 . S
C113 C112 1.378 . S
C113 C114 1.378 . S
C114 H99 0.940 . S
C114 C113 1.378 . S
C114 C115 1.396 . S
C115 H100 0.940 . S
C115 C110 1.391 . S
C115 C114 1.396 . S
C116 P96 1.803 . S
C116 C117 1.378 . S
C116 C121 1.400 . S
C117 H101 0.939 . S
C117 C116 1.378 . S
C117 C118 1.361 . S
C118 H102 0.942 . S
C118 C117 1.361 . S
C118 C119 1.369 . S
C119 C118 1.369 . S
C119 C120 1.404 . S
C120 H103 0.940 . S
C120 C119 1.404 . S
C120 C121 1.389 . S
C121 H104 0.939 . S
C121 C116 1.400 . S
C121 C120 1.389 . S
C122 P96 1.819 . S
C122 C123 1.391 . S
C122 C127 1.391 . S
C123 H105 0.941 . S
C123 C122 1.391 . S
C123 C124 1.396 . S
C124 H108 0.939 . S
C124 C123 1.396 . S
C124 C125 1.397 . S
C125 C124 1.397 . S
C125 C126 1.385 . S
C126 H109 0.940 . S
C126 C125 1.385 . S
C126 C127 1.388 . S
C127 H106 0.939 . S
C127 C122 1.391 . S
C127 C126 1.388 . S
Eu128 N157 2.600 . S
Eu128 N163 2.562 . S
Eu128 O172 2.462 . S
Eu128 O173 2.373 . S
Eu128 O175 2.432 . S
Eu128 O176 2.291 1_565 S
Eu128 O180 2.336 1_465 S
Eu128 O183 2.372 1_455 S
Eu128 C192 2.787 . S
C129 N130 1.365 . S
C129 C132 1.405 . S
C129 C136 1.448 . S
N130 C129 1.365 . S
N130 C133 1.311 1_655 S
N130 Eu139 2.600 . S
C131 C133 1.398 1_655 S
C131 C134 1.367 . S
C131 H151 0.931 1_655 S
C132 C129 1.405 . S
C132 C134 1.403 . S
C132 C138 1.439 . S
C133 N130 1.311 1_455 S
C133 C131 1.398 1_455 S
C133 H144 0.938 . S
C134 C131 1.367 . S
C134 C132 1.403 . S
C134 H155 0.929 . S
C135 C136 1.430 . S
C135 C137 1.387 . S
C135 C141 1.404 . S
C136 C129 1.448 . S
C136 C135 1.430 . S
C136 N140 1.351 . S
C137 C135 1.387 . S
C137 C138 1.374 . S
C137 H152 0.931 . S
C138 C132 1.439 . S
C138 C137 1.374 . S
C138 H153 0.931 . S
Eu139 N130 2.600 . S
Eu139 N140 2.562 . S
Eu139 O174 2.335 1_655 S
Eu139 O177 2.372 1_655 S
Eu139 O178 2.462 . S
Eu139 O179 2.373 . S
Eu139 O181 2.432 . S
Eu139 O182 2.291 1_545 S
Eu139 C203 2.787 . S
N140 C136 1.351 . S
N140 Eu139 2.562 . S
N140 C142 1.325 . S
C141 C135 1.404 . S
C141 C143 1.366 . S
C141 H149 0.930 . S
C142 N140 1.325 . S
C142 C143 1.416 . S
C142 H148 0.929 . S
C143 C141 1.366 . S
C143 C142 1.416 . S
C143 H145 0.930 . S
H144 C133 0.938 . S
H145 C143 0.930 . S
H146 C161 0.930 1_655 S
H147 C168 0.930 . S
H148 C142 0.929 . S
H149 C141 0.930 . S
H150 C164 0.929 . S
H151 C131 0.931 1_455 S
H152 C137 0.931 . S
H153 C138 0.931 . S
H154 C159 0.931 1_655 S
H155 C134 0.929 . S
H156 C167 0.930 . S
N157 Eu128 2.600 . S
N157 C158 1.365 . S
N157 C161 1.319 . S
C158 N157 1.365 . S
C158 C160 1.405 . S
C158 C166 1.448 . S
C159 H154 0.931 1_455 S
C159 C161 1.397 . S
C159 C162 1.367 . S
C160 C158 1.405 . S
C160 C162 1.403 . S
C160 C193 1.439 . S
C161 H146 0.930 1_455 S
C161 N157 1.319 . S
C161 C159 1.397 . S
C162 C159 1.367 . S
C162 C160 1.403 . S
C162 H169 0.929 . S
N163 Eu128 2.562 . S
N163 C164 1.325 . S
N163 C166 1.351 . S
C164 H150 0.929 . S
C164 N163 1.325 . S
C164 C168 1.416 . S
C165 C166 1.430 . S
C165 C167 1.404 . S
C165 C194 1.387 . S
C166 C158 1.448 . S
C166 N163 1.351 . S
C166 C165 1.430 . S
C167 H156 0.930 . S
C167 C165 1.404 . S
C167 C168 1.366 . S
C168 H147 0.930 . S
C168 C164 1.416 . S
C168 C167 1.366 . S
H169 C162 0.929 . S
H170 C193 0.931 . S
H171 C194 0.931 . S
O172 Eu128 2.462 . S
O172 C192 1.252 . S
O173 Eu128 2.373 . S
O173 C184 1.249 . S
O174 Eu139 2.335 1_455 S
O174 C184 1.264 1_545 S
O175 Eu128 2.432 . S
O175 C192 1.268 . S
O176 Eu128 2.291 1_545 S
O176 C191 1.255 . S
O177 Eu139 2.372 1_455 S
O177 C191 1.257 . S
O178 Eu139 2.462 . S
O178 C203 1.252 . S
O179 Eu139 2.373 . S
O179 C195 1.249 . S
O180 Eu128 2.336 1_645 S
O180 C195 1.262 . S
O181 Eu139 2.432 . S
O181 C203 1.268 . S
O182 Eu139 2.291 1_565 S
O182 C202 1.255 . S
O183 Eu128 2.372 1_655 S
O183 C202 1.257 . S
C184 O173 1.249 . S
C184 O174 1.264 1_565 S
C185 C188 1.382 . S
C185 C190 1.390 . S
C185 C192 1.506 . S
C186 C187 1.398 . S
C186 C190 1.392 . S
C187 C186 1.398 . S
C187 C189 1.372 . S
C187 H204 0.931 . S
C188 C185 1.382 . S
C188 C189 1.390 . S
C188 H205 0.931 . S
C189 C187 1.372 . S
C189 C188 1.390 . S
C189 H206 0.929 . S
C190 C185 1.390 . S
C190 C186 1.392 . S
C190 H207 0.930 . S
C191 O176 1.255 . S
C191 O177 1.257 . S
C192 Eu128 2.787 . S
C192 O172 1.252 . S
C192 O175 1.268 . S
C192 C185 1.506 . S
C193 C160 1.439 . S
C193 H170 0.931 . S
C193 C194 1.374 . S
C194 C165 1.387 . S
C194 H171 0.931 . S
C194 C193 1.374 . S
C195 O179 1.249 . S
C195 O180 1.262 . S
C196 C199 1.382 . S
C196 C200 1.390 . S
C196 C203 1.506 . S
C197 C198 1.398 . S
C197 C200 1.392 . S
C198 C197 1.398 . S
C198 C201 1.372 . S
C198 H208 0.931 . S
C199 C196 1.382 . S
C199 C201 1.390 . S
C199 H209 0.931 . S
C200 C196 1.390 . S
C200 C197 1.392 . S
C200 H210 0.930 . S
C201 C198 1.372 . S
C201 C199 1.390 . S
C201 H211 0.929 . S
C202 O182 1.255 . S
C202 O183 1.257 . S
C203 Eu139 2.787 . S
C203 O178 1.252 . S
C203 O181 1.268 . S
C203 C196 1.506 . S
H204 C187 0.931 . S
H205 C188 0.931 . S
H206 C189 0.929 . S
H207 C190 0.930 . S
H208 C198 0.931 . S
H209 C199 0.931 . S
H210 C200 0.930 . S
H211 C201 0.929 . S
Eu212 N241 2.600 . S
Eu212 N247 2.562 1_556 S
Eu212 O256 2.462 . S
Eu212 O257 2.373 1_556 S
Eu212 O259 2.432 . S
Eu212 O260 2.291 1_556 S
Eu212 O264 2.335 . S
Eu212 O267 2.366 1_556 S
Eu212 C276 2.787 . S
C213 N214 1.365 . S
C213 C216 1.405 . S
C213 C220 1.448 . S
N214 C213 1.365 . S
N214 C217 1.319 . S
N214 Eu223 2.600 . S
C215 C217 1.397 . S
C215 C218 1.367 . S
C215 H235 0.931 . S
C216 C213 1.405 . S
C216 C218 1.403 . S
C216 C222 1.439 . S
C217 N214 1.319 . S
C217 C215 1.397 . S
C217 H228 0.930 . S
C218 C215 1.367 . S
C218 C216 1.403 . S
C218 H239 0.929 . S
C219 C220 1.430 . S
C219 C221 1.387 . S
C219 C225 1.404 . S
C220 C213 1.448 . S
C220 C219 1.430 . S
C220 N224 1.351 . S
C221 C219 1.387 . S
C221 C222 1.374 . S
C221 H236 0.931 . S
C222 C216 1.439 . S
C222 C221 1.374 . S
C222 H237 0.931 . S
Eu223 N214 2.600 . S
Eu223 N224 2.562 . S
Eu223 O258 2.335 . S
Eu223 O261 2.372 . S
Eu223 O262 2.462 . S
Eu223 O263 2.362 1_554 S
Eu223 O265 2.432 . S
Eu223 O266 2.291 . S
Eu223 C287 2.787 . S
N224 C220 1.351 . S
N224 Eu223 2.562 . S
N224 C226 1.325 . S
C225 C219 1.404 . S
C225 C227 1.366 . S
C225 H233 0.930 . S
C226 N224 1.325 . S
C226 C227 1.416 . S
C226 H232 0.929 . S
C227 C225 1.366 . S
C227 C226 1.416 . S
C227 H229 0.930 . S
H228 C217 0.930 . S
H229 C227 0.930 . S
H230 C245 0.930 . S
H231 C252 0.930 . S
H232 C226 0.929 . S
H233 C225 0.930 . S
H234 C248 0.929 . S
H235 C215 0.931 . S
H236 C221 0.931 . S
H237 C222 0.931 . S
H238 C243 0.931 . S
H239 C218 0.929 . S
H240 C251 0.930 . S
N241 Eu212 2.600 . S
N241 C242 1.365 1_556 S
N241 C245 1.319 . S
C242 N241 1.365 1_554 S
C242 C244 1.405 . S
C242 C250 1.448 . S
C243 H238 0.931 . S
C243 C245 1.397 . S
C243 C246 1.367 1_556 S
C244 C242 1.405 . S
C244 C246 1.403 . S
C244 C277 1.439 . S
C245 H230 0.930 . S
C245 N241 1.319 . S
C245 C243 1.397 . S
C246 C243 1.367 1_554 S
C246 C244 1.403 . S
C246 H253 0.929 . S
N247 Eu212 2.562 1_554 S
N247 C248 1.325 . S
N247 C250 1.351 . S
C248 H234 0.929 . S
C248 N247 1.325 . S
C248 C252 1.416 . S
C249 C250 1.430 . S
C249 C251 1.404 . S
C249 C278 1.387 . S
C250 C242 1.448 . S
C250 N247 1.351 . S
C250 C249 1.430 . S
C251 H240 0.930 . S
C251 C249 1.404 . S
C251 C252 1.366 . S
C252 H231 0.930 . S
C252 C248 1.416 . S
C252 C251 1.366 . S
H253 C246 0.929 . S
H254 C277 0.931 . S
H255 C278 0.931 . S
O256 Eu212 2.462 . S
O256 C276 1.252 . S
O257 Eu212 2.373 1_554 S
O257 C268 1.249 . S
O258 Eu223 2.335 . S
O258 C268 1.264 . S
O259 Eu212 2.432 . S
O259 C276 1.268 . S
O260 Eu212 2.291 1_554 S
O260 C275 1.255 . S
O261 Eu223 2.372 . S
O261 C275 1.257 . S
O262 Eu223 2.462 . S
O262 C287 1.252 . S
O263 Eu223 2.362 1_556 S
O263 C279 1.257 . S
O264 Eu212 2.335 . S
O264 C279 1.264 . S
O265 Eu223 2.432 . S
O265 C287 1.268 . S
O266 Eu223 2.291 . S
O266 C286 1.255 . S
O267 Eu212 2.366 1_554 S
O267 C286 1.269 . S
C268 O257 1.249 . S
C268 O258 1.264 . S
C269 C272 1.382 . S
C269 C274 1.390 . S
C269 C276 1.506 . S
C270 C271 1.398 . S
C270 C274 1.392 . S
C271 C270 1.398 . S
C271 C273 1.372 . S
C271 H288 0.931 . S
C272 C269 1.382 . S
C272 C273 1.390 . S
C272 H289 0.931 . S
C273 C271 1.372 . S
C273 C272 1.390 . S
C273 H290 0.929 . S
C274 C269 1.390 . S
C274 C270 1.392 . S
C274 H291 0.930 . S
C275 O260 1.255 . S
C275 O261 1.257 . S
C276 Eu212 2.787 . S
C276 O256 1.252 . S
C276 O259 1.268 . S
C276 C269 1.506 . S
C277 C244 1.439 . S
C277 H254 0.931 . S
C277 C278 1.374 . S
C278 C249 1.387 . S
C278 H255 0.931 . S
C278 C277 1.374 . S
C279 O263 1.257 . S
C279 O264 1.264 . S
C280 C283 1.382 . S
C280 C284 1.390 . S
C280 C287 1.506 . S
C281 C282 1.398 . S
C281 C284 1.392 . S
C282 C281 1.398 . S
C282 C285 1.372 . S
C282 H292 0.931 . S
C283 C280 1.382 . S
C283 C285 1.390 . S
C283 H293 0.931 . S
C284 C280 1.390 . S
C284 C281 1.392 . S
C284 H294 0.930 . S
C285 C282 1.372 . S
C285 C283 1.390 . S
C285 H295 0.929 . S
C286 O266 1.255 . S
C286 O267 1.269 . S
C287 Eu223 2.787 . S
C287 O262 1.252 . S
C287 O265 1.268 . S
C287 C280 1.506 . S
H288 C271 0.931 . S
H289 C272 0.931 . S
H290 C273 0.929 . S
H291 C274 0.930 . S
H292 C282 0.931 . S
H293 C283 0.931 . S
H294 C284 0.930 . S
H295 C285 0.929 . S
H296 C308 0.930 . S
H297 C310 0.930 . S
H298 C311 0.930 . S
H299 C315 0.959 . S
H300 C315 0.959 . S
H301 C315 0.961 . S
H302 C316 0.960 . S
H303 C316 0.961 . S
H304 C316 0.959 . S
H305 C319 0.929 . S
H306 C320 0.931 . S
H307 C322 0.930 . S
C308 H296 0.930 . S
C308 C309 1.399 . S
C308 C313 1.399 . S
C309 C308 1.399 . S
C309 C310 1.376 . S
C310 H297 0.930 . S
C310 C309 1.376 . S
C310 C311 1.388 . S
C311 H298 0.930 . S
C311 C310 1.388 . S
C311 C312 1.390 . S
C312 C311 1.390 . S
C312 C313 1.394 . S
C312 C318 1.465 . S
C313 C308 1.399 . S
C313 C312 1.394 . S
C313 C314 1.516 . S
C314 C313 1.516 . S
C314 C315 1.502 . S
C314 C316 1.561 . S
C314 C317 1.526 . S
C315 H299 0.959 . S
C315 H300 0.959 . S
C315 H301 0.961 . S
C315 C314 1.502 . S
C316 H302 0.960 . S
C316 H303 0.961 . S
C316 H304 0.959 . S
C316 C314 1.561 . S
C317 C314 1.526 . S
C317 C318 1.396 . S
C317 C322 1.390 . S
C318 C312 1.465 . S
C318 C317 1.396 . S
C318 C319 1.399 . S
C319 H305 0.929 . S
C319 C318 1.399 . S
C319 C320 1.385 . S
C320 H306 0.931 . S
C320 C319 1.385 . S
C320 C321 1.389 . S
C321 C320 1.389 . S
C321 C322 1.387 . S
C322 H307 0.930 . S
C322 C317 1.390 . S
C322 C321 1.387 . S
H323 C335 0.930 1_556 S
H324 C337 0.930 . S
H325 C338 0.930 . S
H326 C342 0.959 1_554 S
H327 C342 0.959 . S
H328 C342 0.961 . S
H329 C343 0.960 . S
H330 C343 0.961 . S
H331 C343 0.959 . S
H332 C346 0.929 . S
H333 C347 0.931 . S
H334 C349 0.930 1_556 S
C335 H323 0.930 1_554 S
C335 C336 1.399 . S
C335 C340 1.399 . S
C336 C335 1.399 . S
C336 C337 1.376 . S
C337 H324 0.930 . S
C337 C336 1.376 . S
C337 C338 1.388 . S
C338 H325 0.930 . S
C338 C337 1.388 . S
C338 C339 1.390 . S
C339 C338 1.390 . S
C339 C340 1.394 . S
C339 C345 1.465 . S
C340 C335 1.399 . S
C340 C339 1.394 . S
C340 C341 1.516 1_554 S
C341 C340 1.516 1_556 S
C341 C342 1.502 . S
C341 C343 1.561 . S
C341 C344 1.526 1_556 S
C342 H326 0.959 1_556 S
C342 H327 0.959 . S
C342 H328 0.961 . S
C342 C341 1.502 . S
C343 H329 0.960 . S
C343 H330 0.961 . S
C343 H331 0.959 . S
C343 C341 1.561 . S
C344 C341 1.526 1_554 S
C344 C345 1.396 . S
C344 C349 1.390 . S
C345 C339 1.465 . S
C345 C344 1.396 . S
C345 C346 1.399 . S
C346 H332 0.929 . S
C346 C345 1.399 . S
C346 C347 1.385 . S
C347 H333 0.931 . S
C347 C346 1.385 . S
C347 C348 1.389 . S
C348 C347 1.389 . S
C348 C349 1.387 . S
C349 H334 0.930 1_554 S
C349 C344 1.390 . S
C349 C348 1.387 . S
H350 C362 0.930 . S
H351 C364 0.930 . S
H352 C365 0.930 . S
H353 C369 0.959 . S
H354 C369 0.959 . S
H355 C369 0.961 . S
H356 C370 0.960 . S
H357 C370 0.961 . S
H358 C370 0.959 . S
H359 C373 0.929 . S
H360 C374 0.931 . S
H361 C376 0.930 . S
C362 H350 0.930 . S
C362 C363 1.399 . S
C362 C367 1.399 . S
C363 C362 1.399 . S
C363 C364 1.376 . S
C364 H351 0.930 . S
C364 C363 1.376 . S
C364 C365 1.388 . S
C365 H352 0.930 . S
C365 C364 1.388 . S
C365 C366 1.390 . S
C366 C365 1.390 . S
C366 C367 1.394 . S
C366 C372 1.465 . S
C367 C362 1.399 . S
C367 C366 1.394 . S
C367 C368 1.516 . S
C368 C367 1.516 . S
C368 C369 1.502 . S
C368 C370 1.561 . S
C368 C371 1.526 . S
C369 H353 0.959 . S
C369 H354 0.959 . S
C369 H355 0.961 . S
C369 C368 1.502 . S
C370 H356 0.960 . S
C370 H357 0.961 . S
C370 H358 0.959 . S
C370 C368 1.561 . S
C371 C368 1.526 . S
C371 C372 1.396 . S
C371 C376 1.390 . S
C372 C366 1.465 . S
C372 C371 1.396 . S
C372 C373 1.399 . S
C373 H359 0.929 . S
C373 C372 1.399 . S
C373 C374 1.385 . S
C374 H360 0.931 . S
C374 C373 1.385 . S
C374 C375 1.389 . S
C375 C374 1.389 . S
C375 C376 1.387 . S
C376 H361 0.930 . S
C376 C371 1.390 . S
C376 C375 1.387 . S
H377 C389 0.930 . S
H378 C391 0.930 . S
H379 C392 0.930 . S
H380 C396 0.959 . S
H381 C396 0.959 . S
H382 C396 0.961 . S
H383 C397 0.960 . S
H384 C397 0.961 . S
H385 C397 0.959 . S
H386 C400 0.929 . S
H387 C401 0.931 . S
H388 C403 0.930 . S
C389 H377 0.930 . S
C389 C390 1.399 . S
C389 C394 1.399 . S
C390 C389 1.399 . S
C390 C391 1.376 1_554 S
C391 H378 0.930 . S
C391 C390 1.376 1_556 S
C391 C392 1.388 . S
C392 H379 0.930 . S
C392 C391 1.388 . S
C392 C393 1.390 1_556 S
C393 C392 1.390 1_554 S
C393 C394 1.394 . S
C393 C399 1.465 . S
C394 C389 1.399 . S
C394 C393 1.394 . S
C394 C395 1.516 . S
C395 C394 1.516 . S
C395 C396 1.502 . S
C395 C397 1.561 . S
C395 C398 1.526 . S
C396 H380 0.959 . S
C396 H381 0.959 . S
C396 H382 0.961 . S
C396 C395 1.502 . S
C397 H383 0.960 . S
C397 H384 0.961 . S
C397 H385 0.959 . S
C397 C395 1.561 . S
C398 C395 1.526 . S
C398 C399 1.396 . S
C398 C403 1.390 . S
C399 C393 1.465 . S
C399 C398 1.396 . S
C399 C400 1.399 1_554 S
C400 H386 0.929 . S
C400 C399 1.399 1_556 S
C400 C401 1.385 . S
C401 H387 0.931 . S
C401 C400 1.385 . S
C401 C402 1.389 1_556 S
C402 C401 1.389 1_554 S
C402 C403 1.387 . S
C403 H388 0.930 . S
C403 C398 1.390 . S
C403 C402 1.387 . S
H404 C416 0.930 . S
H405 C418 0.930 . S
H406 C419 0.930 . S
H407 C423 0.959 . S
H408 C423 0.959 . S
H409 C423 0.961 . S
H410 C424 0.960 . S
H411 C424 0.961 . S
H412 C424 0.959 . S
H413 C427 0.929 . S
H414 C428 0.931 . S
H415 C430 0.930 . S
C416 H404 0.930 . S
C416 C417 1.399 . S
C416 C421 1.399 . S
C417 C416 1.399 . S
C417 C418 1.376 . S
C418 H405 0.930 . S
C418 C417 1.376 . S
C418 C419 1.388 . S
C419 H406 0.930 . S
C419 C418 1.388 . S
C419 C420 1.390 . S
C420 C419 1.390 . S
C420 C421 1.394 . S
C420 C426 1.465 . S
C421 C416 1.399 . S
C421 C420 1.394 . S
C421 C422 1.516 . S
C422 C421 1.516 . S
C422 C423 1.502 . S
C422 C424 1.561 1_565 S
C422 C425 1.526 . S
C423 H407 0.959 . S
C423 H408 0.959 . S
C423 H409 0.961 . S
C423 C422 1.502 . S
C424 H410 0.960 . S
C424 H411 0.961 . S
C424 H412 0.959 . S
C424 C422 1.561 1_545 S
C425 C422 1.526 . S
C425 C426 1.396 . S
C425 C430 1.390 . S
C426 C420 1.465 . S
C426 C425 1.396 . S
C426 C427 1.399 . S
C427 H413 0.929 . S
C427 C426 1.399 . S
C427 C428 1.385 . S
C428 H414 0.931 . S
C428 C427 1.385 . S
C428 C429 1.389 . S
C429 C428 1.389 . S
C429 C430 1.387 . S
C430 H415 0.930 . S
C430 C425 1.390 . S
C430 C429 1.387 . S
H431 C443 0.930 . S
H432 C445 0.930 . S
H433 C446 0.930 . S
H434 C450 0.959 . S
H435 C450 0.959 . S
H436 C450 0.961 . S
H437 C451 0.960 . S
H438 C451 0.961 . S
H439 C451 0.959 . S
H440 C454 0.929 . S
H441 C455 0.931 . S
H442 C457 0.930 . S
C443 H431 0.930 . S
C443 C444 1.399 . S
C443 C448 1.399 . S
C444 C443 1.399 . S
C444 C445 1.376 . S
C445 H432 0.930 . S
C445 C444 1.376 . S
C445 C446 1.388 . S
C446 H433 0.930 . S
C446 C445 1.388 . S
C446 C447 1.390 . S
C447 C446 1.390 . S
C447 C448 1.394 . S
C447 C453 1.465 . S
C448 C443 1.399 . S
C448 C447 1.394 . S
C448 C449 1.516 . S
C449 C448 1.516 . S
C449 C450 1.502 . S
C449 C451 1.561 . S
C449 C452 1.526 . S
C450 H434 0.959 . S
C450 H435 0.959 . S
C450 H436 0.961 . S
C450 C449 1.502 . S
C451 H437 0.960 . S
C451 H438 0.961 . S
C451 H439 0.959 . S
C451 C449 1.561 . S
C452 C449 1.526 . S
C452 C453 1.396 . S
C452 C457 1.390 . S
C453 C447 1.465 . S
C453 C452 1.396 . S
C453 C454 1.399 . S
C454 H440 0.929 . S
C454 C453 1.399 . S
C454 C455 1.385 . S
C455 H441 0.931 . S
C455 C454 1.385 . S
C455 C456 1.389 . S
C456 C455 1.389 . S
C456 C457 1.387 . S
C457 H442 0.930 . S
C457 C452 1.390 . S
C457 C456 1.387 . S
H458 C470 0.930 . S
H459 C472 0.930 . S
H460 C473 0.930 1_565 S
H461 C477 0.959 . S
H462 C477 0.959 . S
H463 C477 0.961 . S
H464 C478 0.960 . S
H465 C478 0.961 . S
H466 C478 0.959 . S
H467 C481 0.929 1_565 S
H468 C482 0.931 1_565 S
H469 C484 0.930 . S
C470 H458 0.930 . S
C470 C471 1.399 . S
C470 C475 1.399 . S
C471 C470 1.399 . S
C471 C472 1.376 . S
C472 H459 0.930 . S
C472 C471 1.376 . S
C472 C473 1.388 . S
C473 H460 0.930 1_545 S
C473 C472 1.388 . S
C473 C474 1.390 . S
C474 C473 1.390 . S
C474 C475 1.394 . S
C474 C480 1.465 . S
C475 C470 1.399 . S
C475 C474 1.394 . S
C475 C476 1.516 . S
C476 C475 1.516 . S
C476 C477 1.502 . S
C476 C478 1.561 . S
C476 C479 1.526 . S
C477 H461 0.959 . S
C477 H462 0.959 . S
C477 H463 0.961 . S
C477 C476 1.502 . S
C478 H464 0.960 . S
C478 H465 0.961 . S
C478 H466 0.959 . S
C478 C476 1.561 . S
C479 C476 1.526 . S
C479 C480 1.396 . S
C479 C484 1.390 . S
C480 C474 1.465 . S
C480 C479 1.396 . S
C480 C481 1.399 . S
C481 H467 0.929 1_545 S
C481 C480 1.399 . S
C481 C482 1.385 . S
C482 H468 0.931 1_545 S
C482 C481 1.385 . S
C482 C483 1.389 . S
C483 C482 1.389 . S
C483 C484 1.387 . S
C484 H469 0.930 . S
C484 C479 1.390 . S
C484 C483 1.387 . S
H485 C497 0.930 . S
H486 C499 0.930 . S
H487 C500 0.930 . S
H488 C504 0.959 . S
H489 C504 0.959 . S
H490 C504 0.961 . S
H491 C505 0.960 . S
H492 C505 0.961 . S
H493 C505 0.959 . S
H494 C508 0.929 . S
H495 C509 0.931 . S
H496 C511 0.930 . S
C497 H485 0.930 . S
C497 C498 1.399 . S
C497 C502 1.399 . S
C498 C497 1.399 . S
C498 C499 1.376 . S
C499 H486 0.930 . S
C499 C498 1.376 . S
C499 C500 1.388 . S
C500 H487 0.930 . S
C500 C499 1.388 . S
C500 C501 1.390 . S
C501 C500 1.390 . S
C501 C502 1.394 . S
C501 C507 1.465 . S
C502 C497 1.399 . S
C502 C501 1.394 . S
C502 C503 1.516 . S
C503 C502 1.516 . S
C503 C504 1.502 . S
C503 C505 1.561 . S
C503 C506 1.526 . S
C504 H488 0.959 . S
C504 H489 0.959 . S
C504 H490 0.961 . S
C504 C503 1.502 . S
C505 H491 0.960 . S
C505 H492 0.961 . S
C505 H493 0.959 . S
C505 C503 1.561 . S
C506 C503 1.526 . S
C506 C507 1.396 . S
C506 C511 1.390 . S
C507 C501 1.465 . S
C507 C506 1.396 . S
C507 C508 1.399 . S
C508 H494 0.929 . S
C508 C507 1.399 . S
C508 C509 1.385 . S
C509 H495 0.931 . S
C509 C508 1.385 . S
C509 C510 1.389 . S
C510 C509 1.389 . S
C510 C511 1.387 . S
C511 H496 0.930 . S
C511 C506 1.390 . S
C511 C510 1.387 . S
H512 C524 0.930 . S
H513 C526 0.930 . S
H514 C527 0.930 . S
H515 C531 0.959 . S
H516 C531 0.959 . S
H517 C531 0.961 . S
H518 C532 0.960 . S
H519 C532 0.961 . S
H520 C532 0.959 . S
H521 C535 0.929 . S
H522 C536 0.931 . S
H523 C538 0.930 . S
C524 H512 0.930 . S
C524 C525 1.399 . S
C524 C529 1.399 . S
C525 C524 1.399 . S
C525 C526 1.376 . S
C526 H513 0.930 . S
C526 C525 1.376 . S
C526 C527 1.388 . S
C527 H514 0.930 . S
C527 C526 1.388 . S
C527 C528 1.390 . S
C528 C527 1.390 . S
C528 C529 1.394 . S
C528 C534 1.465 . S
C529 C524 1.399 . S
C529 C528 1.394 . S
C529 C530 1.516 . S
C530 C529 1.516 . S
C530 C531 1.502 . S
C530 C532 1.561 . S
C530 C533 1.526 . S
C531 H515 0.959 . S
C531 H516 0.959 . S
C531 H517 0.961 . S
C531 C530 1.502 . S
C532 H518 0.960 . S
C532 H519 0.961 . S
C532 H520 0.959 . S
C532 C530 1.561 . S
C533 C530 1.526 . S
C533 C534 1.396 . S
C533 C538 1.390 . S
C534 C528 1.465 . S
C534 C533 1.396 . S
C534 C535 1.399 . S
C535 H521 0.929 . S
C535 C534 1.399 . S
C535 C536 1.385 . S
C536 H522 0.931 . S
C536 C535 1.385 . S
C536 C537 1.389 . S
C537 C536 1.389 . S
C537 C538 1.387 . S
C538 H523 0.930 . S
C538 C533 1.390 . S
C538 C537 1.387 . S
H539 C551 0.930 . S
H540 C553 0.930 . S
H541 C554 0.930 . S
H542 C558 0.959 . S
H543 C558 0.959 . S
H544 C558 0.961 . S
H545 C559 0.960 . S
H546 C559 0.961 . S
H547 C559 0.959 1_545 S
H548 C562 0.929 . S
H549 C563 0.931 . S
H550 C565 0.930 . S
C551 H539 0.930 . S
C551 C552 1.399 . S
C551 C556 1.399 . S
C552 C551 1.399 . S
C552 C553 1.376 . S
C553 H540 0.930 . S
C553 C552 1.376 . S
C553 C554 1.388 . S
C554 H541 0.930 . S
C554 C553 1.388 . S
C554 C555 1.390 . S
C555 C554 1.390 . S
C555 C556 1.394 . S
C555 C561 1.465 . S
C556 C551 1.399 . S
C556 C555 1.394 . S
C556 C557 1.516 . S
C557 C556 1.516 . S
C557 C558 1.502 . S
C557 C559 1.561 1_545 S
C557 C560 1.526 . S
C558 H542 0.959 . S
C558 H543 0.959 . S
C558 H544 0.961 . S
C558 C557 1.502 . S
C559 H545 0.960 . S
C559 H546 0.961 . S
C559 H547 0.959 1_565 S
C559 C557 1.561 1_565 S
C560 C557 1.526 . S
C560 C561 1.396 . S
C560 C565 1.390 . S
C561 C555 1.465 . S
C561 C560 1.396 . S
C561 C562 1.399 . S
C562 H548 0.929 . S
C562 C561 1.399 . S
C562 C563 1.385 . S
C563 H549 0.931 . S
C563 C562 1.385 . S
C563 C564 1.389 . S
C564 C563 1.389 . S
C564 C565 1.387 . S
C565 H550 0.930 . S
C565 C560 1.390 . S
C565 C564 1.387 . S
H566 C578 0.930 . S
H567 C580 0.930 . S
H568 C581 0.930 . S
H569 C585 0.959 . S
H570 C585 0.959 . S
H571 C585 0.961 . S
H572 C586 0.960 . S
H573 C586 0.961 . S
H574 C586 0.959 . S
H575 C589 0.929 . S
H576 C590 0.931 . S
H577 C592 0.930 . S
C578 H566 0.930 . S
C578 C579 1.399 . S
C578 C583 1.399 . S
C579 C578 1.399 . S
C579 C580 1.376 . S
C580 H567 0.930 . S
C580 C579 1.376 . S
C580 C581 1.388 . S
C581 H568 0.930 . S
C581 C580 1.388 . S
C581 C582 1.390 . S
C582 C581 1.390 . S
C582 C583 1.394 . S
C582 C588 1.465 . S
C583 C578 1.399 . S
C583 C582 1.394 . S
C583 C584 1.516 . S
C584 C583 1.516 . S
C584 C585 1.502 . S
C584 C586 1.561 . S
C584 C587 1.526 . S
C585 H569 0.959 . S
C585 H570 0.959 . S
C585 H571 0.961 . S
C585 C584 1.502 . S
C586 H572 0.960 . S
C586 H573 0.961 . S
C586 H574 0.959 . S
C586 C584 1.561 . S
C587 C584 1.526 . S
C587 C588 1.396 . S
C587 C592 1.390 . S
C588 C582 1.465 . S
C588 C587 1.396 . S
C588 C589 1.399 . S
C589 H575 0.929 . S
C589 C588 1.399 . S
C589 C590 1.385 . S
C590 H576 0.931 . S
C590 C589 1.385 . S
C590 C591 1.389 . S
C591 C590 1.389 . S
C591 C592 1.387 . S
C592 H577 0.930 . S
C592 C587 1.390 . S
C592 C591 1.387 . S
H593 C605 0.930 . S
H594 C607 0.930 . S
H595 C608 0.930 . S
H596 C612 0.959 1_545 S
H597 C612 0.959 1_545 S
H598 C612 0.961 . S
H599 C613 0.960 . S
H600 C613 0.961 . S
H601 C613 0.959 . S
H602 C616 0.929 . S
H603 C617 0.931 . S
H604 C619 0.930 . S
C605 H593 0.930 . S
C605 C606 1.399 . S
C605 C610 1.399 . S
C606 C605 1.399 . S
C606 C607 1.376 . S
C607 H594 0.930 . S
C607 C606 1.376 . S
C607 C608 1.388 . S
C608 H595 0.930 . S
C608 C607 1.388 . S
C608 C609 1.390 . S
C609 C608 1.390 . S
C609 C610 1.394 . S
C609 C615 1.465 . S
C610 C605 1.399 . S
C610 C609 1.394 . S
C610 C611 1.516 . S
C611 C610 1.516 . S
C611 C612 1.502 . S
C611 C613 1.561 . S
C611 C614 1.526 . S
C612 H596 0.959 1_565 S
C612 H597 0.959 1_565 S
C612 H598 0.961 . S
C612 C611 1.502 . S
C613 H599 0.960 . S
C613 H600 0.961 . S
C613 H601 0.959 . S
C613 C611 1.561 . S
C614 C611 1.526 . S
C614 C615 1.396 . S
C614 C619 1.390 . S
C615 C609 1.465 . S
C615 C614 1.396 . S
C615 C616 1.399 . S
C616 H602 0.929 . S
C616 C615 1.399 . S
C616 C617 1.385 . S
C617 H603 0.931 . S
C617 C616 1.385 . S
C617 C618 1.389 . S
C618 C617 1.389 . S
C618 C619 1.387 . S
C619 H604 0.930 . S
C619 C614 1.390 . S
C619 C618 1.387 . S
C321 C191 1.637 . S
C309 C119 1.636 . S
C336 C23 1.604 . S
C348 C286 1.604 . S
C363 C55 1.588 . S
C375 C202 1.639 . S
C390 C87 1.500 . S
C402 C275 1.610 . S
C429 C186 1.343 . S
C417 C17 1.548 . S
C456 C279 1.600 . S
C444 C61 1.535 . S
C471 C93 1.540 . S
C483 C195 1.592 . S
C498 C113 1.505 . S
C510 C270 1.397 . S
C537 C281 1.450 . S
C525 C49 1.522 . S
C564 C197 1.372 . S
C552 C81 1.496 . S
C591 C268 1.601 . S
C579 C125 1.580 . S
C606 C29 1.596 . S
C618 C184 1.592 . S
