# Generated by pormake.
# Topology zzz, (3,6)-cn, num edge types: 1
# Building blocks:
#     Node 0, Type 0, BuildingBlock: QEWDON_clean_linker_0, # of connection points: 3
#     Node 1, Type 0, BuildingBlock: QEWDON_clean_linker_0, # of connection points: 3
#     Node 2, Type 0, BuildingBlock: QEWDON_clean_linker_0, # of connection points: 3
#     Node 3, Type 0, BuildingBlock: QEWDON_clean_linker_0, # of connection points: 3
#     Node 4, Type 0, BuildingBlock: QEWDON_clean_linker_0, # of connection points: 3
#     Node 5, Type 0, BuildingBlock: QEWDON_clean_linker_0, # of connection points: 3
#     Node 6, Type 0, BuildingBlock: QEWDON_clean_linker_0, # of connection points: 3
#     Node 7, Type 0, BuildingBlock: QEWDON_clean_linker_0, # of connection points: 3
#     Node 8, Type 1, BuildingBlock: BETGAK_clean_sbu_0, # of connection points: 6
#     Node 9, Type 1, BuildingBlock: BETGAK_clean_sbu_0, # of connection points: 6
#     Node 10, Type 1, BuildingBlock: BETGAK_clean_sbu_0, # of connection points: 6
#     Node 11, Type 1, BuildingBlock: BETGAK_clean_sbu_0, # of connection points: 6
#     Edge 12, Type (0, 1), BuildingBlock: TEMPAE_clean_linker_10, # of connection points: 2
#     Edge 13, Type (0, 1), BuildingBlock: TEMPAE_clean_linker_10, # of connection points: 2
#     Edge 14, Type (0, 1), BuildingBlock: TEMPAE_clean_linker_10, # of connection points: 2
#     Edge 15, Type (0, 1), BuildingBlock: TEMPAE_clean_linker_10, # of connection points: 2
#     Edge 16, Type (0, 1), BuildingBlock: TEMPAE_clean_linker_10, # of connection points: 2
#     Edge 17, Type (0, 1), BuildingBlock: TEMPAE_clean_linker_10, # of connection points: 2
#     Edge 18, Type (0, 1), BuildingBlock: TEMPAE_clean_linker_10, # of connection points: 2
#     Edge 19, Type (0, 1), BuildingBlock: TEMPAE_clean_linker_10, # of connection points: 2
#     Edge 20, Type (0, 1), BuildingBlock: TEMPAE_clean_linker_10, # of connection points: 2
#     Edge 21, Type (0, 1), BuildingBlock: TEMPAE_clean_linker_10, # of connection points: 2
#     Edge 22, Type (0, 1), BuildingBlock: TEMPAE_clean_linker_10, # of connection points: 2
#     Edge 23, Type (0, 1), BuildingBlock: TEMPAE_clean_linker_10, # of connection points: 2
#     Edge 24, Type (0, 1), BuildingBlock: TEMPAE_clean_linker_10, # of connection points: 2
#     Edge 25, Type (0, 1), BuildingBlock: TEMPAE_clean_linker_10, # of connection points: 2
#     Edge 26, Type (0, 1), BuildingBlock: TEMPAE_clean_linker_10, # of connection points: 2
#     Edge 27, Type (0, 1), BuildingBlock: TEMPAE_clean_linker_10, # of connection points: 2
#     Edge 28, Type (0, 1), BuildingBlock: TEMPAE_clean_linker_10, # of connection points: 2
#     Edge 29, Type (0, 1), BuildingBlock: TEMPAE_clean_linker_10, # of connection points: 2
#     Edge 30, Type (0, 1), BuildingBlock: TEMPAE_clean_linker_10, # of connection points: 2
#     Edge 31, Type (0, 1), BuildingBlock: TEMPAE_clean_linker_10, # of connection points: 2
#     Edge 32, Type (0, 1), BuildingBlock: TEMPAE_clean_linker_10, # of connection points: 2
#     Edge 33, Type (0, 1), BuildingBlock: TEMPAE_clean_linker_10, # of connection points: 2
#     Edge 34, Type (0, 1), BuildingBlock: TEMPAE_clean_linker_10, # of connection points: 2
#     Edge 35, Type (0, 1), BuildingBlock: TEMPAE_clean_linker_10, # of connection points: 2
# Relax obj value: 0.179
# Max RMSD: 0.177
# Mean RMSD: 0.123
data_MOF--net-zzz--node1-BETGAK_clean_sbu_0--node2-QEWDON_clean_linker_0--edge1-TEMPAE_clean_linker_10
_symmetry_space_group_name_H-M    P1
_symmetry_Int_Tables_number       1
_symmetry_cell_setting            triclinic
loop_
_symmetry_equiv_pos_as_xyz
'x, y, z'
_cell_length_a     56.583707
_cell_length_b     56.660918
_cell_length_c     13.021151
_cell_angle_alpha  89.87609
_cell_angle_beta   89.925631
_cell_angle_gamma 90.097512
loop_
_atom_site_label
_atom_site_type_symbol
_atom_site_fract_x
_atom_site_fract_y
_atom_site_fract_z
_atom_type_partial_charge
H0 H 0.75952 0.49724 0.24047 0.0
C1 C 0.773 0.50405 0.2912 0.0
C2 C 0.79416 0.49137 0.29971 0.0
C3 C 0.76951 0.52509 0.34765 0.0
H4 H 0.82789 0.48916 0.37343 0.0
C5 C 0.81176 0.49922 0.36652 0.0
C6 C 0.81034 0.52102 0.41533 0.0
C7 C 0.78899 0.5339 0.40705 0.0
C8 C 0.74578 0.53761 0.34475 0.0
H9 H 0.78803 0.55095 0.44401 0.0
C10 C 0.72904 0.5347 0.26319 0.0
C11 C 0.70673 0.5462 0.26541 0.0
C12 C 0.73916 0.55206 0.42792 0.0
H13 H 0.7505 0.55422 0.494 0.0
C14 C 0.71742 0.56357 0.4295 0.0
H15 H 0.73325 0.52401 0.19701 0.0
C16 C 0.70141 0.56076 0.34933 0.0
H17 H 0.68452 0.56967 0.35406 0.0
H18 H 0.71278 0.57456 0.49437 0.0
H19 H 0.04194 0.76961 0.20116 0.0
C20 C 0.04132 0.78053 0.26912 0.0
C21 C 0.05514 0.80101 0.2708 0.0
C22 C 0.02593 0.77508 0.35156 0.0
H23 H 0.06366 0.83273 0.3506 0.0
C24 C 0.05355 0.81653 0.35351 0.0
C25 C 0.03713 0.81331 0.43216 0.0
C26 C 0.02359 0.79221 0.43232 0.0
C27 C 1.01131 0.75256 0.34809 0.0
H28 H 1.0115 0.78941 0.49548 0.0
C29 C 1.01803 0.73245 0.28813 0.0
C30 C 1.00323 0.71219 0.28079 0.0
C31 C 0.98973 0.7513 0.40195 0.0
H32 H 0.98311 0.76605 0.44568 0.0
C33 C 0.9757 0.73108 0.39857 0.0
H34 H 0.03447 0.73252 0.2457 0.0
C35 C 0.9823 0.71181 0.33901 0.0
H36 H 0.97081 0.6965 0.33832 0.0
H37 H 0.95929 0.7305 0.44136 0.0
H38 H 0.79564 0.99933 0.2461 0.0
C39 C 0.78247 1.00357 0.30329 0.0
C40 C 0.76022 0.99291 0.29414 0.0
C41 C 0.78741 1.01946 0.38415 0.0
H42 H 0.72586 0.98874 0.36276 0.0
C43 C 0.74305 0.99701 0.36957 0.0
C44 C 0.7462 1.01372 0.44651 0.0
C45 C 0.76841 0.02529 0.45309 0.0
C46 C 0.8123 0.02928 0.3969 0.0
H47 H 0.77069 0.0386 0.51163 0.0
C48 C 0.8293 0.02994 0.31507 0.0
C49 C 0.85291 0.03776 0.33154 0.0
C50 C 0.81983 0.03686 0.49452 0.0
H51 H 0.80824 0.03603 0.56049 0.0
C52 C 0.84282 0.04494 0.51051 0.0
H53 H 0.82439 0.02479 0.23816 0.0
C54 C 0.85917 0.04534 0.43046 0.0
H55 H 0.87703 0.05113 0.44692 0.0
H56 H 0.84817 0.05053 0.58648 0.0
H57 H 0.50044 0.79095 0.20215 0.0
C58 C 0.50703 0.7787 0.2591 0.0
C59 C 0.50414 0.75454 0.2413 0.0
C60 C 0.51759 0.78681 0.35089 0.0
H61 H 0.50805 0.71951 0.30207 0.0
C62 C 0.51099 0.73816 0.31576 0.0
C63 C 0.52058 0.74511 0.40907 0.0
C64 C 0.52443 0.76954 0.42626 0.0
C65 C 0.51955 0.81316 0.36979 0.0
H66 H 0.53237 0.77485 0.4981 0.0
C67 C 0.52097 0.83007 0.28801 0.0
C68 C 0.52029 0.85475 0.30772 0.0
C69 C 0.51835 0.82181 0.47096 0.0
H70 H 0.51657 0.81 0.53585 0.0
C71 C 0.51852 0.84598 0.49069 0.0
H72 H 0.52213 0.82424 0.20912 0.0
C73 C 0.51933 0.86225 0.41038 0.0
H74 H 0.51923 0.88089 0.42886 0.0
H75 H 0.51757 0.85219 0.56916 0.0
H76 H 0.29232 0.49563 0.22439 0.0
C77 C 0.27914 0.49965 0.16681 0.0
C78 C 0.25683 0.48917 0.17623 0.0
C79 C 0.28443 0.51469 0.08333 0.0
H80 H 0.22265 0.48487 0.10721 0.0
C81 C 0.23981 0.49313 0.10002 0.0
C82 C 0.24326 0.50948 0.02118 0.0
C83 C 0.26577 0.52044 0.01298 0.0
C84 C 0.3097 0.52259 0.06671 0.0
H85 H 0.26877 0.533 0.95158 0.0
C86 C 0.32618 0.52543 0.14912 0.0
C87 C 0.3507 0.52946 0.1303 0.0
C88 C 0.31818 0.52484 0.96572 0.0
H89 H 0.30662 0.52233 0.9005 0.0
C90 C 0.34203 0.52901 0.94648 0.0
H91 H 0.31995 0.52457 0.22756 0.0
C92 C 0.35811 0.53088 0.02702 0.0
H93 H 0.37656 0.53287 0.00704 0.0
H94 H 0.34827 0.5301 0.86796 0.0
H95 H 1.00036 0.29082 0.26167 0.0
C96 C 1.00635 0.27815 0.20527 0.0
C97 C 1.00121 0.25426 0.22107 0.0
C98 C 1.0185 0.28556 0.11577 0.0
H99 H 1.00304 0.21922 0.15989 0.0
C100 C 1.00749 0.2376 0.14717 0.0
C101 C 1.01878 0.24392 0.05638 0.0
C102 C 0.02486 0.26797 0.04131 0.0
C103 C 0.02271 0.31164 0.09757 0.0
H104 H 0.03409 0.27282 0.97157 0.0
C105 C 0.02551 0.32822 0.17955 0.0
C106 C 0.02807 0.35282 0.15986 0.0
C107 C 0.02258 0.32044 0.99642 0.0
H108 H 1.01972 0.30889 0.93156 0.0
C109 C 0.0252 0.34447 0.97673 0.0
H110 H 0.02604 0.32209 0.25826 0.0
C111 C 0.0278 0.36047 0.05701 0.0
H112 H 0.0291 0.37904 0.0381 0.0
H113 H 0.02479 0.35084 0.89829 0.0
H114 H 0.2633 1.0001 0.24068 0.0
C115 C 0.27585 1.00661 0.18455 0.0
C116 C 0.29991 1.00308 0.20297 0.0
C117 C 0.26817 1.01766 0.09305 0.0
H118 H 0.33518 1.00656 0.14427 0.0
C119 C 0.31663 1.00986 0.12964 0.0
C120 C 0.31015 1.01984 0.03632 0.0
C121 C 0.28579 0.0243 0.01845 0.0
C122 C 0.24184 1.02015 0.07346 0.0
H123 H 0.28078 0.03251 0.94667 0.0
C124 C 0.22481 0.02177 0.15481 0.0
C125 C 0.20011 1.02132 0.13442 0.0
C126 C 0.23329 1.01909 0.97209 0.0
H127 H 0.24518 1.01723 0.90757 0.0
C128 C 0.20909 1.01942 0.95176 0.0
H129 H 0.23056 0.02287 0.23386 0.0
C130 C 0.1927 1.02033 0.03166 0.0
H131 H 0.17405 1.02027 0.01286 0.0
H132 H 0.20295 1.0185 0.87315 0.0
H133 H 0.49763 0.26632 0.23328 0.0
C134 C 0.49952 0.27767 0.1669 0.0
C135 C 0.48576 0.29818 0.16312 0.0
C136 C 0.51699 0.27303 0.0922 0.0
H137 H 0.4783 0.32987 0.07803 0.0
C138 C 0.48858 0.3138 0.08011 0.0
C139 C 0.50691 0.31133 0.00899 0.0
C140 C 0.52093 0.2906 0.01421 0.0
C141 C 0.53253 0.25132 0.10471 0.0
H142 H 0.53474 0.28848 0.95763 0.0
C143 C 0.52526 0.23104 0.16305 0.0
C144 C 0.54112 0.21222 0.18422 0.0
C145 C 0.55565 0.25134 0.06447 0.0
H146 H 0.56259 0.26626 0.02233 0.0
C147 C 0.57086 0.23237 0.08105 0.0
H148 H 0.5076 0.22994 0.19448 0.0
C149 C 0.56381 0.21317 0.14066 0.0
H150 H 0.57629 0.19898 0.15322 0.0
H151 H 0.58855 0.23283 0.04929 0.0
La152 La 0.03907 0.0238 0.84075 0.0
La153 La 1.01439 0.03557 0.62682 0.0
C154 C 0.04831 1.01287 0.02245 0.0
C155 C 0.06387 0.99441 0.06324 0.0
C156 C 0.08513 0.98872 0.01302 0.0
C157 C 0.09642 0.96731 0.03327 0.0
C158 C 0.08651 0.9512 0.10333 0.0
C159 C 0.06636 0.958 0.15978 0.0
C160 C 0.05522 0.97944 0.14007 0.0
C161 C 0.07046 0.02476 0.6841 0.0
C162 C 0.02576 0.9818 0.68891 0.0
C163 C 1.00506 0.04621 0.4447 0.0
C164 C 0.9889 0.06402 0.40243 0.0
C165 C 0.96695 0.0685 0.44931 0.0
C166 C 0.95467 0.08928 0.42738 0.0
C167 C 0.96428 0.106 0.35924 0.0
C168 C 0.98515 0.10027 0.30547 0.0
C169 C 0.99727 0.07944 0.32672 0.0
C170 C 0.98288 0.03437 0.78281 0.0
C171 C 0.02761 0.07755 0.77988 0.0
O172 O 0.05863 0.03051 0.97434 0.0
O173 O 0.02988 1.00472 0.97254 0.0
O174 O 0.07546 1.01979 0.77868 0.0
O175 O 0.04861 0.02891 0.68441 0.0
O176 O 0.03021 0.98825 0.78521 0.0
O177 O 1.02183 0.99747 0.61441 0.0
O178 O 0.99526 0.02827 0.49268 0.0
O179 O 0.02311 0.05501 0.49522 0.0
O180 O 0.97789 0.03898 0.68787 0.0
O181 O 1.00482 0.03065 0.78335 0.0
O182 O 0.02295 0.07122 0.68347 0.0
O183 O 0.0318 0.06182 0.85379 0.0
H184 H 0.09222 1.00005 0.95343 0.0
H185 H 0.11216 0.96285 0.99013 0.0
H186 H 0.05795 0.94602 0.21343 0.0
H187 H 0.03877 0.98344 0.17904 0.0
H188 H 0.96 0.05678 0.50777 0.0
H189 H 0.93841 0.0929 0.46841 0.0
H190 H 0.99335 0.11273 0.25324 0.0
H191 H 1.01418 0.07633 0.28998 0.0
La192 La 0.53106 0.04158 0.81521 0.0
La193 La 0.52071 1.01743 0.61053 0.0
C194 C 0.54852 0.05132 0.98652 0.0
C195 C 0.57176 0.04391 0.02698 0.0
C196 C 0.59167 0.05845 0.01275 0.0
C197 C 0.61436 0.04935 0.02609 0.0
C198 C 0.6174 0.02556 0.05242 0.0
C199 C 0.59767 1.01153 0.0745 0.0
C200 C 0.57499 1.02078 0.06374 0.0
C201 C 0.51962 0.07049 0.6617 0.0
C202 C 0.5743 0.02645 0.66862 0.0
C203 C 0.5089 1.00867 0.42949 0.0
C204 C 0.49042 0.9929 0.38971 0.0
C205 C 0.48588 0.97098 0.43682 0.0
C206 C 0.46486 0.95889 0.41678 0.0
C207 C 0.44803 0.96859 0.34983 0.0
C208 C 0.45366 0.98953 0.29636 0.0
C209 C 0.47469 1.00152 0.31603 0.0
C210 C 0.52275 0.98483 0.76083 0.0
C211 C 0.47796 0.02966 0.7657 0.0
O212 O 0.54929 0.06575 0.90778 0.0
O213 O 0.53297 0.03441 0.97305 0.0
O214 O 0.51383 0.07352 0.75732 0.0
O215 O 0.53218 0.05205 0.65577 0.0
O216 O 0.56693 0.0316 0.76286 0.0
O217 O 0.559 0.02245 0.59355 0.0
O218 O 0.52684 0.99845 0.47515 0.0
O219 O 0.50089 0.02689 0.48107 0.0
O220 O 0.51801 0.98043 0.66577 0.0
O221 O 0.5258 1.00681 0.76505 0.0
O222 O 0.48474 0.0256 0.66925 0.0
O223 O 0.49356 0.03403 0.83927 0.0
H224 H 0.58976 0.07647 0.98598 0.0
H225 H 0.62952 0.06056 0.01139 0.0
H226 H 0.59986 0.99334 0.09837 0.0
H227 H 0.56001 1.00944 0.07935 0.0
H228 H 0.49782 0.96384 0.49374 0.0
H229 H 0.46126 0.94262 0.45773 0.0
H230 H 0.44104 0.99778 0.24528 0.0
H231 H 0.47782 1.01843 0.2793 0.0
La232 La 0.5139 0.53518 0.81928 0.0
La233 La 0.53645 0.52397 0.61322 0.0
C234 C 0.49948 0.54234 0.99839 0.0
C235 C 0.4847 0.56176 0.03692 0.0
C236 C 0.46438 0.5689 0.983 0.0
C237 C 0.45411 0.59083 0.00248 0.0
C238 C 0.46411 0.6061 0.07538 0.0
C239 C 0.48319 0.59792 0.13527 0.0
C240 C 0.49328 0.57592 0.11647 0.0
C241 C 0.48459 0.53617 0.66009 0.0
C242 C 0.52881 0.57783 0.67494 0.0
C243 C 0.54066 0.51085 0.43097 0.0
C244 C 0.53249 0.48816 0.38821 0.0
C245 C 0.54719 0.4682 0.39541 0.0
C246 C 0.53765 0.44562 0.38738 0.0
C247 C 0.51338 0.4427 0.37106 0.0
C248 C 0.49916 0.46243 0.35283 0.0
C249 C 0.50868 0.48509 0.36055 0.0
C250 C 0.57063 0.53073 0.75352 0.0
C251 C 0.52494 0.48126 0.76337 0.0
O252 O 0.48924 0.52755 0.93516 0.0
O253 O 0.5205 0.54882 0.96612 0.0
O254 O 0.48386 0.55031 0.73771 0.0
O255 O 0.50115 0.52145 0.67481 0.0
O256 O 0.52477 0.57092 0.77111 0.0
O257 O 0.53166 0.56233 0.59955 0.0
O258 O 0.55755 0.50896 0.49903 0.0
O259 O 0.52415 0.5256 0.46095 0.0
O260 O 0.57414 0.52662 0.65709 0.0
O261 O 0.54854 0.53169 0.76471 0.0
O262 O 0.52917 0.48793 0.66749 0.0
O263 O 0.52101 0.49706 0.83665 0.0
H264 H 0.45726 0.55827 0.92133 0.0
H265 H 0.43911 0.59628 0.95672 0.0
H266 H 0.49167 0.60919 0.19131 0.0
H267 H 0.50897 0.57081 0.15863 0.0
H268 H 0.56573 0.46995 0.41466 0.0
H269 H 0.54898 0.43045 0.39893 0.0
H270 H 0.48065 0.46019 0.33487 0.0
H271 H 0.49712 0.50014 0.3512 0.0
La272 La 1.02065 0.51589 0.83521 0.0
La273 La 0.03039 0.54173 0.63997 0.0
C274 C 1.00388 0.49979 1.00051 0.0
C275 C 0.98304 0.48518 0.02195 0.0
C276 C 0.97817 0.47799 0.12244 0.0
C277 C 0.95731 0.46577 0.14447 0.0
C278 C 0.94065 0.46118 0.0665 0.0
C279 C 0.94643 0.4671 0.96461 0.0
C280 C 0.96757 0.4788 0.94251 0.0
C281 C 0.03223 0.48823 0.67858 0.0
C282 C 0.97727 0.53334 0.68984 0.0
C283 C 0.0449 0.5454 0.45957 0.0
C284 C 0.06657 0.53426 0.42058 0.0
C285 C 0.08566 0.54867 0.3925 0.0
C286 C 0.10837 0.53931 0.38684 0.0
C287 C 0.11235 0.51527 0.40796 0.0
C288 C 0.09304 0.50053 0.42926 0.0
C289 C 0.07033 0.50993 0.43523 0.0
C290 C 0.02747 0.57404 0.78801 0.0
C291 C 0.07269 0.52901 0.79129 0.0
O292 O 1.02049 0.48941 0.948 0.0
O293 O 0.9996 0.52109 0.96624 0.0
O294 O 0.03893 0.48509 0.77238 0.0
O295 O 1.01918 0.50634 0.67617 0.0
O296 O 0.98475 0.51986 0.76724 0.0
O297 O 0.99218 0.54509 0.6304 0.0
O298 O 0.04875 0.56149 0.52943 0.0
O299 O 0.02761 0.53119 0.48567 0.0
O300 O 0.03017 0.57856 0.69112 0.0
O301 O 0.0253 0.55188 0.79726 0.0
O302 O 0.06562 0.53037 0.69439 0.0
O303 O 0.05685 0.52745 0.86596 0.0
H304 H 0.99016 0.48248 0.18416 0.0
H305 H 0.95369 0.46093 0.22344 0.0
H306 H 0.93407 0.46402 0.90262 0.0
H307 H 0.97139 0.48359 0.86383 0.0
H308 H 0.08328 0.56751 0.38227 0.0
H309 H 0.12297 0.55113 0.37042 0.0
H310 H 0.09554 0.48184 0.44336 0.0
H311 H 0.05599 0.49833 0.457 0.0
C312 C 0.16297 1.00463 0.21481 0.0
C313 C 0.18155 1.02119 0.21773 0.0
C314 C 0.14427 1.00504 0.28674 0.0
C315 C 0.14354 0.0228 0.36333 0.0
C316 C 0.16224 0.03961 0.36668 0.0
C317 C 0.18107 0.03846 0.29491 0.0
C318 C 0.12524 0.98637 0.2804 0.0
C319 C 0.1622 0.05906 0.44558 0.0
C320 C 0.0844 0.0349 0.50257 0.0
C321 C 0.08788 0.02357 0.59728 0.0
C322 C 0.10225 0.0349 0.42579 0.0
C323 C 0.12402 0.02297 0.44313 0.0
C324 C 0.1272 1.01098 0.53773 0.0
C325 C 0.10934 1.01165 0.61329 0.0
C326 C 0.09798 0.04804 0.32673 0.0
C327 C 0.14955 0.99734 0.55948 0.0
H328 H 0.1631 0.99118 0.15575 0.0
H329 H 0.19506 0.05153 0.29723 0.0
H330 H 0.12246 0.97798 0.35655 0.0
H331 H 0.10828 0.99461 0.25745 0.0
H332 H 0.12962 0.97238 0.22386 0.0
H333 H 0.1773 0.07141 0.43555 0.0
H334 H 0.14548 0.06921 0.44041 0.0
H335 H 0.16305 0.05138 0.52391 0.0
H336 H 0.06806 0.04432 0.48953 0.0
H337 H 0.11226 1.00272 0.68588 0.0
H338 H 0.09858 0.0356 0.26115 0.0
H339 H 0.11218 0.06129 0.31434 0.0
H340 H 0.08063 0.05719 0.32614 0.0
H341 H 0.15246 0.98396 0.49867 0.0
H342 H 0.149 0.98823 0.63508 0.0
H343 H 0.16498 1.00944 0.55841 0.0
C344 C 0.51419 0.17872 0.24422 0.0
C345 C 0.5351 0.19191 0.25484 0.0
C346 C 0.50988 0.15839 0.30529 0.0
C347 C 0.52667 0.15111 0.38008 0.0
C348 C 0.54749 0.16477 0.39255 0.0
C349 C 0.55143 0.18477 0.33014 0.0
C350 C 0.48751 0.14442 0.28854 0.0
C351 C 0.5658 0.15818 0.47183 0.0
C352 C 0.5096 0.11217 0.61023 0.0
C353 C 0.51942 0.09019 0.58436 0.0
C354 C 0.51112 0.13178 0.54339 0.0
C355 C 0.52258 0.12957 0.44692 0.0
C356 C 0.53173 0.10714 0.41861 0.0
C357 C 0.53012 0.08781 0.48753 0.0
C358 C 0.50121 0.15517 0.57802 0.0
C359 C 0.54389 0.10371 0.31658 0.0
H360 H 0.50153 0.18388 0.18604 0.0
H361 H 0.56751 0.19491 0.34027 0.0
H362 H 0.49199 0.12613 0.2654 0.0
H363 H 0.47731 0.14323 0.3612 0.0
H364 H 0.47608 0.15238 0.22849 0.0
H365 H 0.58091 0.17072 0.47302 0.0
H366 H 0.55763 0.15777 0.54933 0.0
H367 H 0.57268 0.14023 0.456 0.0
H368 H 0.50123 0.11428 0.68455 0.0
H369 H 0.53771 0.07095 0.4664 0.0
H370 H 0.48913 0.16243 0.51887 0.0
H371 H 0.51583 0.16805 0.58786 0.0
H372 H 0.49143 0.15371 0.6518 0.0
H373 H 0.53258 0.11039 0.25336 0.0
H374 H 0.54812 0.08488 0.30168 0.0
H375 H 0.56057 0.11402 0.31492 0.0
C376 C 0.39005 0.54434 0.20014 0.0
C377 C 0.369 0.53135 0.21542 0.0
C378 C 0.4086 0.54426 0.27246 0.0
C379 C 0.40597 0.53192 0.36644 0.0
C380 C 0.38445 0.51968 0.38522 0.0
C381 C 0.36648 0.51925 0.30947 0.0
C382 C 0.43136 0.55695 0.2467 0.0
C383 C 0.38065 0.50655 0.48476 0.0
C384 C 0.46236 0.51536 0.51636 0.0
C385 C 0.46483 0.5345 0.58369 0.0
C386 C 0.44307 0.51392 0.44719 0.0
C387 C 0.42575 0.53209 0.44461 0.0
C388 C 0.42794 0.55112 0.51445 0.0
C389 C 0.44738 0.55216 0.58202 0.0
C390 C 0.44173 0.49295 0.37639 0.0
C391 C 0.4096 0.57042 0.51845 0.0
H392 H 0.39233 0.5546 0.13063 0.0
H393 H 0.35069 0.50891 0.32348 0.0
H394 H 0.43518 0.57067 0.30497 0.0
H395 H 0.44627 0.54423 0.24789 0.0
H396 H 0.43076 0.5655 0.17001 0.0
H397 H 0.36248 0.49924 0.49124 0.0
H398 H 0.39346 0.4918 0.49044 0.0
H399 H 0.38391 0.51846 0.55082 0.0
H400 H 0.47537 0.50136 0.51836 0.0
H401 H 0.44886 0.56694 0.6344 0.0
H402 H 0.45352 0.49611 0.3096 0.0
H403 H 0.42367 0.48962 0.34688 0.0
H404 H 0.44782 0.4768 0.41674 0.0
H405 H 0.40959 0.58041 0.44512 0.0
H406 H 0.4128 0.58301 0.58224 0.0
H407 H 0.39173 0.56261 0.52807 0.0
C408 C 0.04549 0.39071 0.23024 0.0
C409 C 0.03044 0.37109 0.24378 0.0
C410 C 0.04601 0.40957 0.30077 0.0
C411 C 0.03132 0.40902 0.38898 0.0
C412 C 1.01668 0.38894 0.40534 0.0
C413 C 1.0164 0.3703 0.3329 0.0
C414 C 0.06201 0.43039 0.27962 0.0
C415 C 1.00087 0.38738 0.49847 0.0
C416 C 0.04777 0.44947 0.61424 0.0
C417 C 0.03236 0.46867 0.60138 0.0
C418 C 0.04753 0.43003 0.54659 0.0
C419 C 0.03137 0.42949 0.46342 0.0
C420 C 1.0158 0.4489 0.44988 0.0
C421 C 1.01652 0.46824 0.51851 0.0
C422 C 0.06458 0.40998 0.56446 0.0
C423 C 0.99824 0.44921 0.36291 0.0
H424 H 0.0568 0.39149 0.16311 0.0
H425 H 1.00456 0.35548 0.34442 0.0
H426 H 0.0513 0.44666 0.27123 0.0
H427 H 0.07418 0.4332 0.34523 0.0
H428 H 0.07271 0.42801 0.20879 0.0
H429 H 0.99118 0.37034 0.50255 0.0
H430 H 1.01148 0.38947 0.56948 0.0
H431 H 0.98782 0.40197 0.49687 0.0
H432 H 0.06008 0.44959 0.67795 0.0
H433 H 1.00444 0.48287 0.50813 0.0
H434 H 0.07624 0.40787 0.49656 0.0
H435 H 0.0547 0.3932 0.57435 0.0
H436 H 0.0758 0.41284 0.63327 0.0
H437 H 1.00773 0.44837 0.28839 0.0
H438 H 0.98702 0.46527 0.36394 0.0
H439 H 0.98662 0.43346 0.36744 0.0
C440 C 0.87485 1.01795 0.18458 0.0
C441 C 0.87161 0.03762 0.24854 0.0
C442 C 0.89383 1.01685 0.11369 0.0
C443 C 0.90997 0.03601 0.10461 0.0
C444 C 0.9066 0.05603 0.16819 0.0
C445 C 0.88767 0.05654 0.23901 0.0
C446 C 0.89677 0.995 0.04896 0.0
C447 C 0.92293 0.0771 0.16103 0.0
C448 C 0.97021 0.02755 0.96926 0.0
C449 C 0.9652 0.03508 0.86886 0.0
C450 C 0.95254 0.02764 0.04681 0.0
C451 C 0.92932 0.03579 0.02414 0.0
C452 C 0.92447 0.04387 0.9233 0.0
C453 C 0.94226 0.04323 0.84754 0.0
C454 C 0.95866 1.01882 0.15284 0.0
C455 C 0.90037 0.05328 0.89506 0.0
H456 H 0.86292 1.00306 0.19202 0.0
H457 H 0.88538 0.07195 0.28721 0.0
H458 H 0.89496 0.99958 0.96648 0.0
H459 H 0.91475 0.98761 0.05982 0.0
H460 H 0.88355 0.98115 0.06819 0.0
H461 H 0.91799 0.09132 0.21557 0.0
H462 H 0.94137 0.07165 0.17732 0.0
H463 H 0.92264 0.0844 0.08189 0.0
H464 H 0.98778 1.02132 0.98697 0.0
H465 H 0.93811 0.04926 0.77058 0.0
H466 H 0.94626 1.00455 0.17584 0.0
H467 H 0.95669 0.03329 0.2094 0.0
H468 H 0.97702 1.01199 0.15724 0.0
H469 H 0.88682 0.03932 0.90588 0.0
H470 H 0.89957 0.05955 0.81424 0.0
H471 H 0.89561 0.06814 0.94642 0.0
C472 C 0.50419 0.89228 0.22934 0.0
C473 C 0.51999 0.87313 0.22371 0.0
C474 C 0.50459 0.9108 0.1567 0.0
C475 C 0.52135 0.91058 0.07571 0.0
C476 C 0.53737 0.89131 0.06939 0.0
C477 C 0.53634 0.87277 0.14248 0.0
C478 C 0.48721 0.93083 0.1677 0.0
C479 C 0.55608 0.89066 0.98687 0.0
C480 C 0.5092 0.94584 0.82979 0.0
C481 C 0.5219 0.96686 0.84525 0.0
C482 C 0.50867 0.92774 0.90427 0.0
C483 C 0.52173 0.93017 0.99651 0.0
C484 C 0.53472 0.9514 0.01252 0.0
C485 C 0.53439 0.96956 0.93738 0.0
C486 C 0.4939 0.90602 0.88433 0.0
C487 C 0.54895 0.95528 0.10887 0.0
H488 H 0.4914 0.89281 0.29132 0.0
H489 H 0.54888 0.85837 0.13802 0.0
H490 H 0.49686 0.94725 0.18775 0.0
H491 H 0.47794 0.93404 0.09392 0.0
H492 H 0.4738 0.92731 0.22822 0.0
H493 H 0.56759 0.87486 0.99327 0.0
H494 H 0.54769 0.89071 0.90993 0.0
H495 H 0.56727 0.90674 0.99193 0.0
H496 H 0.49942 0.94357 0.75894 0.0
H497 H 0.54447 0.98554 0.94925 0.0
H498 H 0.48088 0.90358 0.94733 0.0
H499 H 0.50533 0.89013 0.88316 0.0
H500 H 0.48421 0.90705 0.81031 0.0
H501 H 0.53812 0.96538 0.16459 0.0
H502 H 0.56504 0.96581 0.09196 0.0
H503 H 0.55446 0.93851 0.14575 0.0
C504 C 0.67979 0.52086 0.15548 0.0
C505 C 0.68832 0.54325 0.18304 0.0
C506 C 0.66018 0.51828 0.08887 0.0
C507 C 0.6489 0.53855 0.04713 0.0
C508 C 0.6579 0.56115 0.07277 0.0
C509 C 0.67725 0.56321 0.14049 0.0
C510 C 0.65122 0.49383 0.06463 0.0
C511 C 0.64699 0.58329 0.02904 0.0
C512 C 0.61358 0.53285 0.79749 0.0
C513 C 0.58998 0.5332 0.83132 0.0
C514 C 0.63269 0.53438 0.86649 0.0
C515 C 0.62838 0.53623 0.97337 0.0
C516 C 0.60453 0.53654 0.00842 0.0
C517 C 0.58564 0.53507 0.93713 0.0
C518 C 0.65759 0.53414 0.82452 0.0
C519 C 0.59898 0.53839 0.12142 0.0
H520 H 0.68792 0.50535 0.18906 0.0
H521 H 0.68366 0.5806 0.16119 0.0
H522 H 0.63247 0.49217 0.0886 0.0
H523 H 0.6519 0.49075 0.98058 0.0
H524 H 0.66166 0.47986 0.10369 0.0
H525 H 0.65609 0.59954 0.05578 0.0
H526 H 0.64769 0.58281 0.94391 0.0
H527 H 0.6281 0.5843 0.05139 0.0
H528 H 0.61723 0.53135 0.71601 0.0
H529 H 0.56754 0.53515 0.96427 0.0
H530 H 0.66762 0.51925 0.85845 0.0
H531 H 0.66687 0.55065 0.84625 0.0
H532 H 0.65803 0.53245 0.73956 0.0
H533 H 0.60748 0.52365 0.16367 0.0
H534 H 0.57967 0.53797 0.1369 0.0
H535 H 0.60636 0.55506 0.15252 0.0
C536 C 0.03129 0.68185 0.20231 0.0
C537 C 1.00853 0.69158 0.21097 0.0
C538 C 0.03562 0.66171 0.14062 0.0
C539 C 1.01682 0.65093 0.08539 0.0
C540 C 0.9939 0.66079 0.09357 0.0
C541 C 0.9901 0.68084 0.15528 0.0
C542 C 0.06037 0.65198 0.1342 0.0
C543 C 0.97329 0.65033 0.03569 0.0
C544 C 0.0286 0.61657 0.83806 0.0
C545 C 0.0256 0.5929 0.86821 0.0
C546 C 0.02649 0.63532 0.9082 0.0
C547 C 1.0212 0.63062 0.0126 0.0
C548 C 1.01858 0.60669 0.04445 0.0
C549 C 1.02082 0.58812 0.97202 0.0
C550 C 0.0294 0.66032 0.86956 0.0
C551 C 1.01298 0.60074 0.15475 0.0
H552 H 0.04567 0.68973 0.24518 0.0
H553 H 0.9725 0.68829 0.15914 0.0
H554 H 0.06039 0.63306 0.15641 0.0
H555 H 0.06684 0.65306 0.05387 0.0
H556 H 0.07289 0.66166 0.18452 0.0
H557 H 0.95634 0.65925 0.05397 0.0
H558 H 0.97648 0.65178 0.95182 0.0
H559 H 0.97149 0.63128 0.05412 0.0
H560 H 0.03243 0.62056 0.7583 0.0
H561 H 1.01857 0.56996 0.99639 0.0
H562 H 0.04295 0.66972 0.91552 0.0
H563 H 1.01253 0.67005 0.8787 0.0
H564 H 0.03468 0.66102 0.78739 0.0
H565 H 0.02607 0.60916 0.20648 0.0
H566 H 1.01295 0.58141 0.16906 0.0
H567 H 0.99535 0.60789 0.17526 0.0
C568 C 0.9634 0.24426 0.30395 0.0
C569 C 0.9881 0.24523 0.31068 0.0
C570 C 0.95113 0.22419 0.33889 0.0
C571 C 0.9642 0.20477 0.37668 0.0
C572 C 0.98839 0.20786 0.40174 0.0
C573 C 0.99989 0.22861 0.37134 0.0
C574 C 0.92491 0.22235 0.32043 0.0
C575 C 1.00308 0.18793 0.44466 0.0
C576 C 0.94909 0.14226 0.44788 0.0
C577 C 0.95538 0.13068 0.35643 0.0
C578 C 0.94835 0.16701 0.45259 0.0
C579 C 0.955 0.18031 0.36513 0.0
C580 C 0.95807 0.16864 0.2695 0.0
C581 C 0.95766 0.14397 0.26629 0.0
C582 C 0.9428 0.17858 0.55402 0.0
C583 C 0.96531 0.18146 0.17256 0.0
H584 H 0.95415 0.25738 0.25861 0.0
H585 H 1.01898 0.22972 0.37779 0.0
H586 H 0.91631 0.21133 0.38046 0.0
H587 H 0.91656 0.24007 0.31933 0.0
H588 H 0.9217 0.2139 0.24491 0.0
H589 H 1.02102 0.19388 0.46769 0.0
H590 H 0.9943 0.17999 0.51246 0.0
H591 H 1.00498 0.1739 0.3858 0.0
H592 H 0.94677 0.13226 0.51821 0.0
H593 H 0.96149 0.1351 0.19444 0.0
H594 H 0.93772 0.19737 0.54478 0.0
H595 H 0.95848 0.17757 0.60493 0.0
H596 H 0.9282 0.16902 0.59329 0.0
H597 H 0.95814 0.19958 0.1681 0.0
H598 H 0.9595 0.1717 0.10311 0.0
H599 H 0.98487 0.18248 0.17019 0.0
C600 C 0.30998 0.96589 0.29038 0.0
C601 C 0.30901 0.99058 0.29386 0.0
C602 C 0.32994 0.95394 0.32791 0.0
C603 C 0.34922 0.96732 0.36516 0.0
C604 C 0.34603 0.9916 0.38714 0.0
C605 C 0.32542 1.00283 0.35384 0.0
C606 C 0.3319 0.92768 0.31225 0.0
C607 C 0.36583 1.00664 0.42906 0.0
C608 C 0.41174 0.95322 0.43862 0.0
C609 C 0.42341 0.95947 0.3471 0.0
C610 C 0.38696 0.95211 0.44281 0.0
C611 C 0.37376 0.95831 0.35466 0.0
C612 C 0.38558 0.96131 0.25912 0.0
C613 C 0.41028 0.96136 0.25655 0.0
C614 C 0.37521 0.94678 0.54432 0.0
C615 C 0.37282 0.968 0.16149 0.0
H616 H 0.29699 0.95631 0.24557 0.0
H617 H 0.3243 0.02193 0.35775 0.0
H618 H 0.34048 0.92413 0.23717 0.0
H619 H 0.34287 0.91948 0.37326 0.0
H620 H 0.31418 0.91921 0.3118 0.0
H621 H 0.35957 0.02438 0.45291 0.0
H622 H 0.37418 0.99797 0.49598 0.0
H623 H 0.37962 1.00896 0.36911 0.0
H624 H 0.42167 0.95123 0.50921 0.0
H625 H 0.41927 0.96521 0.1848 0.0
H626 H 0.35663 0.94091 0.53458 0.0
H627 H 0.3754 0.96281 0.59306 0.0
H628 H 0.38514 0.93287 0.58613 0.0
H629 H 0.35488 0.96032 0.15682 0.0
H630 H 0.38291 0.96235 0.09255 0.0
H631 H 0.37133 0.9875 0.15834 0.0
C632 C 0.45485 0.32306 0.24427 0.0
C633 C 0.47377 0.30733 0.25681 0.0
C634 C 0.45516 0.34474 0.29598 0.0
C635 C 0.47349 0.34919 0.36721 0.0
C636 C 0.48731 0.33012 0.40322 0.0
C637 C 0.48736 0.30907 0.34669 0.0
C638 C 0.4392 0.36417 0.25807 0.0
C639 C 0.50575 0.33357 0.48529 0.0
C640 C 0.51066 0.40258 0.30041 0.0
C641 C 0.50301 0.41897 0.3723 0.0
C642 C 0.50105 0.37992 0.29806 0.0
C643 C 0.48369 0.3733 0.37199 0.0
C644 C 0.47634 0.38977 0.44705 0.0
C645 C 0.48596 0.41265 0.44557 0.0
C646 C 0.50893 0.36368 0.21284 0.0
C647 C 0.4587 0.3832 0.52933 0.0
H648 H 0.44314 0.32089 0.17906 0.0
H649 H 0.50114 0.29627 0.36184 0.0
H650 H 0.43529 0.37715 0.3193 0.0
H651 H 0.44814 0.37365 0.19415 0.0
H652 H 0.4223 0.35688 0.22834 0.0
H653 H 0.51044 0.31653 0.52234 0.0
H654 H 0.52199 0.34104 0.44991 0.0
H655 H 0.49955 0.34604 0.54493 0.0
H656 H 0.52395 0.40772 0.24465 0.0
H657 H 0.4805 0.42549 0.50248 0.0
H658 H 0.4945 0.36241 0.15575 0.0
H659 H 0.51294 0.34577 0.24196 0.0
H660 H 0.52491 0.37033 0.17242 0.0
H661 H 0.44293 0.3746 0.49543 0.0
H662 H 0.45291 0.39877 0.57454 0.0
H663 H 0.4668 0.37026 0.5826 0.0
C664 C 0.23282 0.45933 0.26766 0.0
C665 C 0.24866 0.47834 0.27376 0.0
C666 C 0.21166 0.45997 0.32365 0.0
C667 C 0.20766 0.47906 0.39133 0.0
C668 C 0.22688 0.49367 0.41975 0.0
C669 C 0.2475 0.49316 0.35972 0.0
C670 C 0.19209 0.4432 0.29436 0.0
C671 C 0.22388 0.51313 0.49735 0.0
C672 C 0.15188 0.51262 0.3278 0.0
C673 C 0.13663 0.50575 0.40647 0.0
C674 C 0.17504 0.50441 0.32357 0.0
C675 C 0.1833 0.48855 0.40024 0.0
C676 C 0.168 0.48156 0.48087 0.0
C677 C 0.14474 0.49028 0.48308 0.0
C678 C 0.18985 0.51215 0.23299 0.0
C679 C 0.17622 0.46531 0.56551 0.0
H680 H 0.23442 0.44704 0.20428 0.0
H681 H 0.26036 0.50723 0.36826 0.0
H682 H 0.18038 0.43931 0.36061 0.0
H683 H 0.1812 0.45145 0.23319 0.0
H684 H 0.19929 0.42637 0.26406 0.0
H685 H 0.24119 0.51866 0.52959 0.0
H686 H 0.21575 0.52867 0.45922 0.0
H687 H 0.21207 0.50752 0.56096 0.0
H688 H 0.14554 0.52433 0.26806 0.0
H689 H 0.13304 0.48533 0.54556 0.0
H690 H 0.18818 0.49863 0.17204 0.0
H691 H 0.2087 0.51438 0.25291 0.0
H692 H 0.18359 0.52915 0.20034 0.0
H693 H 0.18674 0.45045 0.53447 0.0
H694 H 0.16117 0.45804 0.61043 0.0
H695 H 0.18784 0.47529 0.6185 0.0
C696 C 0.0539 0.82537 0.11739 0.0
C697 C 0.0673 0.81024 0.17912 0.0
C698 C 0.06372 0.84646 0.08067 0.0
C699 C 0.08782 0.85148 0.10104 0.0
C700 C 0.10246 0.83352 0.14144 0.0
C701 C 0.09189 0.81315 0.1828 0.0
C702 C 0.04739 0.86482 0.03576 0.0
C703 C 0.12864 0.83729 0.15487 0.0
C704 C 0.10012 0.91403 0.01678 0.0
C705 C 0.0946 0.92628 0.10751 0.0
C706 C 0.10108 0.88926 0.01557 0.0
C707 C 0.09543 0.87659 0.10606 0.0
C708 C 0.09258 0.889 0.19997 0.0
C709 C 0.09279 0.91366 0.1996 0.0
C710 C 0.1061 0.87696 0.91526 0.0
C711 C 0.08614 0.87671 0.29916 0.0
H712 H 0.03489 0.82291 0.11396 0.0
H713 H 0.10234 0.80125 0.22955 0.0
H714 H 0.04464 0.87916 0.09253 0.0
H715 H 0.05529 0.87281 0.96609 0.0
H716 H 0.02987 0.85732 0.01519 0.0
H717 H 0.13818 0.82018 0.15824 0.0
H718 H 0.13597 0.84811 0.09109 0.0
H719 H 0.13195 0.8468 0.22785 0.0
H720 H 0.10191 0.92353 0.94487 0.0
H721 H 0.08947 0.92307 0.2706 0.0
H722 H 0.08991 0.87687 0.86735 0.0
H723 H 0.112 0.85847 0.92678 0.0
H724 H 0.11992 0.88667 0.87151 0.0
H725 H 0.06712 0.87195 0.29668 0.0
H726 H 0.08899 0.88823 0.36695 0.0
H727 H 0.09654 0.8604 0.31048 0.0
C728 C 0.73531 0.96401 0.20256 0.0
C729 C 0.75203 0.98228 0.19636 0.0
C730 C 0.7138 0.96623 0.15009 0.0
C731 C 0.71067 0.98559 0.08267 0.0
C732 C 0.73058 0.99908 0.05252 0.0
C733 C 0.75138 0.9973 0.11069 0.0
C734 C 0.69335 0.95082 0.18267 0.0
C735 C 0.72849 1.01859 0.9742 0.0
C736 C 0.64859 0.99854 0.98626 0.0
C737 C 0.6412 1.01542 0.05782 0.0
C738 C 0.67141 0.98887 0.99149 0.0
C739 C 0.68674 0.99601 0.07139 0.0
C740 C 0.67904 1.01311 0.14396 0.0
C741 C 0.65643 0.02273 0.13529 0.0
C742 C 0.67919 0.97153 0.91052 0.0
C743 C 0.69395 1.02061 0.23438 0.0
H744 H 0.73655 0.95143 0.26523 0.0
H745 H 0.76495 1.01067 0.10117 0.0
H746 H 0.68333 0.95993 0.24432 0.0
H747 H 0.68104 0.94752 0.11814 0.0
H748 H 0.69958 0.93362 0.21345 0.0
H749 H 0.74599 0.02307 0.9406 0.0
H750 H 0.71619 1.01357 0.9116 0.0
H751 H 0.72138 0.03462 0.01208 0.0
H752 H 0.63665 0.99325 0.92537 0.0
H753 H 0.65038 0.03571 0.19049 0.0
H754 H 0.68895 0.95651 0.94476 0.0
H755 H 0.69143 0.98055 0.85662 0.0
H756 H 0.66398 0.96451 0.86611 0.0
H757 H 0.68751 0.03729 0.26926 0.0
H758 H 0.71271 0.02318 0.21288 0.0
H759 H 0.69291 1.00666 0.29398 0.0
C760 C 0.46753 0.74434 0.14906 0.0
C761 C 0.49227 0.745 0.14982 0.0
C762 C 0.45562 0.72475 0.10796 0.0
C763 C 0.46903 0.70546 0.07128 0.0
C764 C 0.49366 0.70825 0.05503 0.0
C765 C 0.50491 0.72851 0.09203 0.0
C766 C 0.42914 0.72321 0.1186 0.0
C767 C 0.50888 0.6883 0.01622 0.0
C768 C 0.4594 0.64399 0.17111 0.0
C769 C 0.45741 0.63148 0.07892 0.0
C770 C 0.46093 0.66862 0.17118 0.0
C771 C 0.45933 0.68111 0.0768 0.0
C772 C 0.45337 0.66882 0.98612 0.0
C773 C 0.45297 0.64405 0.98763 0.0
C774 C 0.46746 0.68068 0.27065 0.0
C775 C 0.44979 0.68157 0.88548 0.0
H776 H 0.4577 0.75735 0.19259 0.0
H777 H 0.52407 0.72931 0.092 0.0
H778 H 0.42133 0.71219 0.05694 0.0
H779 H 0.4246 0.71503 0.19358 0.0
H780 H 0.42103 0.74105 0.11625 0.0
H781 H 0.51119 0.67508 0.07849 0.0
H782 H 0.50047 0.67925 0.95053 0.0
H783 H 0.52666 0.69457 0.99202 0.0
H784 H 0.46181 0.63444 0.24257 0.0
H785 H 0.45108 0.63471 0.91559 0.0
H786 H 0.45803 0.69764 0.28004 0.0
H787 H 0.48671 0.68438 0.27018 0.0
H788 H 0.46353 0.66941 0.33853 0.0
H789 H 0.44166 0.69917 0.89753 0.0
H790 H 0.43842 0.67114 0.83282 0.0
H791 H 0.46709 0.68426 0.84715 0.0
C792 C 0.81023 0.48207 0.13043 0.0
C793 C 0.80141 0.47345 0.2238 0.0
C794 C 0.83018 0.47171 0.08518 0.0
C795 C 0.84074 0.45191 0.13325 0.0
C796 C 0.82829 0.44001 0.21223 0.0
C797 C 0.80891 0.45126 0.25872 0.0
C798 C 0.84218 0.4844 0.99739 0.0
C799 C 0.83767 0.41752 0.25849 0.0
C800 C 0.90236 0.43979 0.02816 0.0
C801 C 0.91606 0.45411 0.09315 0.0
C802 C 0.87788 0.43707 0.04434 0.0
C803 C 0.86691 0.44928 0.12626 0.0
C804 C 0.88111 0.46214 0.19638 0.0
C805 C 0.90532 0.46442 0.17878 0.0
C806 C 0.86395 0.42205 0.97051 0.0
C807 C 0.87063 0.47541 0.28565 0.0
H808 H 0.80419 0.49907 0.10257 0.0
H809 H 0.80184 0.44432 0.33012 0.0
H810 H 0.85793 0.49395 0.02662 0.0
H811 H 0.84827 0.47162 0.93877 0.0
H812 H 0.83026 0.49739 0.96001 0.0
H813 H 0.82324 0.40709 0.29472 0.0
H814 H 0.84656 0.40657 0.19931 0.0
H815 H 0.85083 0.42181 0.31877 0.0
H816 H 0.91058 0.43129 0.96274 0.0
H817 H 0.91552 0.47582 0.22874 0.0
H818 H 0.86106 0.43207 0.89835 0.0
H819 H 0.84654 0.41665 0.00214 0.0
H820 H 0.87411 0.40595 0.95022 0.0
H821 H 0.88429 0.48335 0.33596 0.0
H822 H 0.85973 0.46347 0.33371 0.0
H823 H 0.85923 0.48972 0.25557 0.0
C824 C 0.04446 0.21338 0.96972 0.0
C825 C 0.02239 0.2244 0.98009 0.0
C826 C 0.0465 0.19053 0.92637 0.0
C827 C 0.02597 0.17809 0.89398 0.0
C828 C 1.00385 0.18978 0.89911 0.0
C829 C 1.00238 0.21263 0.94152 0.0
C830 C 0.0705 0.17906 0.92158 0.0
C831 C 0.9814 0.17751 0.8663 0.0
C832 C 0.02952 0.12114 0.73286 0.0
C833 C 0.02755 0.10334 0.80799 0.0
C834 C 0.02953 0.14538 0.75948 0.0
C835 C 0.02715 0.15229 0.86379 0.0
C836 C 0.02499 0.13439 0.93974 0.0
C837 C 0.0254 0.11034 0.9112 0.0
C838 C 0.03226 0.16363 0.67581 0.0
C839 C 1.02164 0.1406 0.05154 0.0
H840 H 0.05992 0.22194 0.00177 0.0
H841 H 0.98517 0.22071 0.95154 0.0
H842 H 0.07143 0.16467 0.97934 0.0
H843 H 0.07342 0.17103 0.84497 0.0
H844 H 0.08497 0.19183 0.93717 0.0
H845 H 0.98327 0.17057 0.78713 0.0
H846 H 0.97795 0.16222 0.91759 0.0
H847 H 0.96583 0.18942 0.86891 0.0
H848 H 0.0313 0.11612 0.65296 0.0
H849 H 0.0236 0.09694 0.97026 0.0
H850 H 0.03255 0.15562 0.59804 0.0
H851 H 0.04897 0.17355 0.6874 0.0
H852 H 1.01762 0.1766 0.67953 0.0
H853 H 0.0356 0.15303 0.07704 0.0
H854 H 1.02201 0.12479 0.10213 0.0
H855 H 1.00439 0.14957 0.06175 0.0
C856 C 0.3419 1.00352 0.923 0.0
C857 C 0.32992 0.02348 0.96041 0.0
C858 C 0.365 1.00503 0.882 0.0
C859 C 0.37679 0.02713 0.87731 0.0
C860 C 0.36421 0.0476 0.90896 0.0
C861 C 0.34112 0.04552 0.95088 0.0
C862 C 0.37737 0.98263 0.85015 0.0
C863 C 0.37573 0.07159 0.9047 0.0
C864 C 0.44474 0.02703 0.89616 0.0
C865 C 0.45201 0.02927 0.79315 0.0
C866 C 0.42057 0.02639 0.92408 0.0
C867 C 0.40276 0.02841 0.84775 0.0
C868 C 0.40995 0.03086 0.74363 0.0
C869 C 0.43432 0.03108 0.71763 0.0
C870 C 0.41413 0.02301 0.03573 0.0
C871 C 0.39187 0.03349 0.65948 0.0
H872 H 0.33377 0.98631 0.93285 0.0
H873 H 0.33247 0.06094 0.98242 0.0
H874 H 0.38494 0.98459 0.77197 0.0
H875 H 0.39227 0.97907 0.90332 0.0
H876 H 0.36533 0.96712 0.85085 0.0
H877 H 0.36292 0.08601 0.92 0.0
H878 H 0.39001 0.07253 0.96285 0.0
H879 H 0.38395 0.07456 0.82833 0.0
H880 H 0.45804 0.02537 0.95557 0.0
H881 H 0.4395 0.03294 0.63787 0.0
H882 H 0.40516 1.00573 0.04578 0.0
H883 H 0.40158 0.03688 0.06085 0.0
H884 H 0.42985 0.02347 0.08668 0.0
H885 H 0.37864 1.01905 0.66401 0.0
H886 H 0.40004 0.03342 0.58186 0.0
H887 H 0.38219 0.05034 0.66971 0.0
C888 C 0.49372 0.34497 0.89445 0.0
C889 C 0.51233 0.33255 0.94183 0.0
C890 C 0.4966 0.36823 0.85692 0.0
C891 C 0.51884 0.3797 0.8647 0.0
C892 C 0.53817 0.36664 0.90529 0.0
C893 C 0.53468 0.34341 0.94373 0.0
C894 C 0.47521 0.3811 0.81647 0.0
C895 C 0.56235 0.37768 0.91335 0.0
C896 C 0.52763 0.43785 0.71341 0.0
C897 C 0.52398 0.45522 0.78915 0.0
C898 C 0.52638 0.41341 0.73665 0.0
C899 C 0.52124 0.40576 0.83832 0.0
C900 C 0.51746 0.42322 0.91477 0.0
C901 C 0.51898 0.44749 0.88964 0.0
C902 C 0.53024 0.39573 0.65177 0.0
C903 C 0.51161 0.41623 0.02374 0.0
H904 H 0.47631 0.33696 0.89245 0.0
H905 H 0.54916 0.33435 0.98125 0.0
H906 H 0.46853 0.3932 0.87677 0.0
H907 H 0.47972 0.39198 0.74836 0.0
H908 H 0.46075 0.36874 0.79552 0.0
H909 H 0.57613 0.36449 0.93305 0.0
H910 H 0.56723 0.38642 0.83992 0.0
H911 H 0.56217 0.39145 0.97378 0.0
H912 H 0.53137 0.44333 0.63525 0.0
H913 H 0.51602 0.46048 0.94924 0.0
H914 H 0.51379 0.38547 0.63894 0.0
H915 H 0.5442 0.383 0.67419 0.0
H916 H 0.53539 0.4043 0.57821 0.0
H917 H 0.49562 0.40485 0.02519 0.0
H918 H 0.50849 0.43174 0.07401 0.0
H919 H 0.52638 0.40579 0.0561 0.0
C920 C 0.21186 0.53785 0.95662 0.0
C921 C 0.22197 0.51521 0.95586 0.0
C922 C 0.18844 0.54174 0.92143 0.0
C923 C 0.17448 0.52255 0.88539 0.0
C924 C 0.18515 0.49997 0.87916 0.0
C925 C 0.20857 0.49665 0.91363 0.0
C926 C 0.17817 0.56622 0.92846 0.0
C927 C 0.17128 0.47872 0.84381 0.0
C928 C 0.10674 0.52397 0.91614 0.0
C929 C 0.09877 0.52822 0.81555 0.0
C930 C 0.1311 0.52242 0.93964 0.0
C931 C 0.14837 0.52551 0.8614 0.0
C932 C 0.14047 0.53013 0.75981 0.0
C933 C 0.11594 0.53129 0.73811 0.0
C934 C 0.13836 0.5172 0.04869 0.0
C935 C 0.15798 0.53359 0.67357 0.0
H936 H 0.22169 0.55225 0.99087 0.0
H937 H 0.21597 0.47901 0.91377 0.0
H938 H 0.16891 0.57089 0.85618 0.0
H939 H 0.16495 0.56676 0.99138 0.0
H940 H 0.19195 0.57973 0.94404 0.0
H941 H 0.18302 0.46377 0.82311 0.0
H942 H 0.1594 0.47285 0.9068 0.0
H943 H 0.16004 0.48309 0.77675 0.0
H944 H 0.09387 0.5215 0.97694 0.0
H945 H 0.11025 0.53457 0.65992 0.0
H946 H 0.14923 0.53198 0.07838 0.0
H947 H 0.14942 0.50105 0.05129 0.0
H948 H 0.12294 0.51466 0.10046 0.0
H949 H 0.14921 0.53774 0.59942 0.0
H950 H 0.16873 0.5174 0.66391 0.0
H951 H 0.17034 0.54815 0.69275 0.0
C952 C 0.0529 0.84635 0.54222 0.0
C953 C 0.03325 0.83397 0.50329 0.0
C954 C 0.05091 0.86952 0.58082 0.0
C955 C 0.02857 0.8808 0.58336 0.0
C956 C 1.00835 0.8677 0.55231 0.0
C957 C 1.01092 0.84459 0.51217 0.0
C958 C 0.07306 0.88247 0.61257 0.0
C959 C 0.98408 0.87863 0.55577 0.0
C960 C 0.02415 0.93844 0.73902 0.0
C961 C 0.02583 0.95592 0.66234 0.0
C962 C 0.02445 0.91409 0.71465 0.0
C963 C 0.02682 0.90672 0.61095 0.0
C964 C 0.02859 0.9243 0.53333 0.0
C965 C 0.02788 0.94849 0.5597 0.0
C966 C 1.0221 0.89621 0.80011 0.0
C967 C 0.03186 0.91758 0.42207 0.0
H968 H 0.07027 0.83842 0.53602 0.0
H969 H 0.99563 0.83549 0.48139 0.0
H970 H 0.07633 0.89737 0.55893 0.0
H971 H 0.07089 0.89007 0.69042 0.0
H972 H 0.08885 0.87084 0.61258 0.0
H973 H 0.96992 0.86544 0.54154 0.0
H974 H 0.98097 0.88702 0.6315 0.0
H975 H 0.98282 0.89267 0.49652 0.0
H976 H 0.02242 0.94378 0.81855 0.0
H977 H 0.02942 0.96164 0.49949 0.0
H978 H 0.03667 0.88318 0.79632 0.0
H979 H 1.00531 0.88629 0.79081 0.0
H980 H 1.02219 0.90456 0.87723 0.0
H981 H 0.04893 0.90823 0.4126 0.0
H982 H 0.03178 0.93318 0.37024 0.0
H983 H 1.01767 0.90529 0.39762 0.0
C984 C 0.71291 0.04088 0.50089 0.0
C985 C 0.7247 1.01919 0.51081 0.0
C986 C 0.68912 0.04364 0.53352 0.0
C987 C 0.6765 0.02419 0.57614 0.0
C988 C 0.68879 1.00265 0.59099 0.0
C989 C 0.71254 1.0005 0.559 0.0
C990 C 0.67705 0.06701 0.51635 0.0
C991 C 0.67636 0.9811 0.63285 0.0
C992 C 0.61741 0.03179 0.72077 0.0
C993 C 0.6005 0.02599 0.64546 0.0
C994 C 0.64197 0.0318 0.69887 0.0
C995 C 0.65022 0.0257 0.59936 0.0
C996 C 0.63326 1.01982 0.52319 0.0
C997 C 0.60884 1.02012 0.54682 0.0
C998 C 0.65921 0.03818 0.78262 0.0
C999 C 0.64095 1.01306 0.41622 0.0
H1000 H 0.72174 0.05525 0.46124 0.0
H1001 H 0.72119 0.98349 0.56502 0.0
H1002 H 0.66421 0.06532 0.45247 0.0
H1003 H 0.66703 0.07232 0.58584 0.0
H1004 H 0.68985 0.08121 0.49656 0.0
H1005 H 0.68908 0.96764 0.66089 0.0
H1006 H 0.66418 0.98579 0.69632 0.0
H1007 H 0.66561 0.97303 0.57089 0.0
H1008 H 0.61147 0.03641 0.79725 0.0
H1009 H 0.59621 1.01563 0.48744 0.0
H1010 H 0.67075 0.0529 0.75681 0.0
H1011 H 0.67085 0.02289 0.79916 0.0
H1012 H 0.6502 0.04349 0.85463 0.0
H1013 H 0.65136 0.02765 0.38174 0.0
H1014 H 0.62576 1.00909 0.36508 0.0
H1015 H 0.65262 0.99735 0.41942 0.0
C1016 C 0.50469 0.71422 0.52785 0.0
C1017 C 0.52453 0.72572 0.48588 0.0
C1018 C 0.50615 0.6912 0.56918 0.0
C1019 C 0.52805 0.67902 0.56909 0.0
C1020 C 0.54847 0.69117 0.53315 0.0
C1021 C 0.54644 0.71418 0.49118 0.0
C1022 C 0.48376 0.67926 0.60531 0.0
C1023 C 0.57227 0.67924 0.53259 0.0
C1024 C 0.53228 0.62113 0.72496 0.0
C1025 C 0.52927 0.60378 0.64893 0.0
C1026 C 0.5324 0.64552 0.70025 0.0
C1027 C 0.52903 0.65304 0.59712 0.0
C1028 C 0.52582 0.63557 0.52033 0.0
C1029 C 0.5262 0.61136 0.54682 0.0
C1030 C 0.53626 0.66329 0.78462 0.0
C1031 C 0.5215 0.64244 0.40981 0.0
H1032 H 0.48755 0.72261 0.52105 0.0
H1033 H 0.56172 0.7225 0.45606 0.0
H1034 H 0.47821 0.66599 0.54753 0.0
H1035 H 0.48673 0.66977 0.67877 0.0
H1036 H 0.46909 0.69202 0.61599 0.0
H1037 H 0.58683 0.69184 0.5154 0.0
H1038 H 0.57574 0.67074 0.60792 0.0
H1039 H 0.57242 0.66516 0.47352 0.0
H1040 H 0.53474 0.61567 0.80402 0.0
H1041 H 0.5236 0.59832 0.48714 0.0
H1042 H 0.52211 0.67681 0.78336 0.0
H1043 H 0.55326 0.67261 0.77164 0.0
H1044 H 0.53669 0.65492 0.86183 0.0
H1045 H 0.51943 0.62687 0.35892 0.0
H1046 H 0.53638 0.65336 0.38083 0.0
H1047 H 0.50527 0.65332 0.40446 0.0
C1048 C 0.85323 0.53142 0.40202 0.0
C1049 C 0.83276 0.53015 0.4632 0.0
C1050 C 0.87596 0.53342 0.44525 0.0
C1051 C 0.87862 0.53507 0.55326 0.0
C1052 C 0.85787 0.53561 0.61531 0.0
C1053 C 0.83525 0.5328 0.5698 0.0
C1054 C 0.89722 0.53252 0.37505 0.0
C1055 C 0.85958 0.53823 0.73027 0.0
C1056 C 0.93775 0.51344 0.66428 0.0
C1057 C 0.95145 0.53412 0.66443 0.0
C1058 C 0.914 0.51357 0.63041 0.0
C1059 C 0.90314 0.53508 0.59989 0.0
C1060 C 0.91661 0.55621 0.60548 0.0
C1061 C 0.94064 0.55539 0.63505 0.0
C1062 C 0.90089 0.49043 0.62247 0.0
C1063 C 0.90574 0.57973 0.57881 0.0
H1064 H 0.85148 0.52947 0.31957 0.0
H1065 H 0.81966 0.53157 0.61801 0.0
H1066 H 0.90728 0.54927 0.38002 0.0
H1067 H 0.90927 0.51811 0.39936 0.0
H1068 H 0.89225 0.5296 0.29354 0.0
H1069 H 0.84225 0.5428 0.76513 0.0
H1070 H 0.8657 0.5214 0.76466 0.0
H1071 H 0.87265 0.55208 0.75066 0.0
H1072 H 0.94598 0.49691 0.68607 0.0
H1073 H 0.951 0.5715 0.63575 0.0
H1074 H 0.89603 0.48713 0.54116 0.0
H1075 H 0.88424 0.49118 0.6673 0.0
H1076 H 0.91156 0.4753 0.65068 0.0
H1077 H 0.90296 0.58093 0.49471 0.0
H1078 H 0.91712 0.59474 0.6027 0.0
H1079 H 0.88819 0.58155 0.61622 0.0
loop_
_geom_bond_atom_site_label_1
_geom_bond_atom_site_label_2
_geom_bond_distance
_geom_bond_site_symmetry_2
_ccdc_geom_bond_type
H0 C1 0.949 . S
C1 H0 0.949 . S
C1 C2 1.395 . S
C1 C3 1.391 . S
C2 C1 1.395 . S
C2 C5 1.390 . S
C3 C1 1.391 . S
C3 C7 1.387 . S
C3 C8 1.491 . S
H4 C5 0.950 . S
C5 C2 1.390 . S
C5 H4 0.950 . S
C5 C6 1.378 . S
C6 C5 1.378 . S
C6 C7 1.409 . S
C7 C3 1.387 . S
C7 C6 1.409 . S
C7 H9 0.951 . S
C8 C3 1.491 . S
C8 C10 1.382 . S
C8 C12 1.404 . S
H9 C7 0.951 . S
C10 C8 1.382 . S
C10 C11 1.390 . S
C10 H15 0.949 . S
C11 C10 1.390 . S
C11 C16 1.399 . S
C12 C8 1.404 . S
C12 H13 0.950 . S
C12 C14 1.375 . S
H13 C12 0.950 . S
C14 C12 1.375 . S
C14 C16 1.382 . S
C14 H18 0.950 . S
H15 C10 0.949 . S
C16 C11 1.399 . S
C16 C14 1.382 . S
C16 H17 0.952 . S
H17 C16 0.952 . S
H18 C14 0.950 . S
H19 C20 0.949 . S
C20 H19 0.949 . S
C20 C21 1.395 . S
C20 C22 1.391 . S
C21 C20 1.395 . S
C21 C24 1.390 1_655 S
C22 C20 1.391 . S
C22 C26 1.387 . S
C22 C27 1.491 . S
H23 C24 0.950 . S
C24 C21 1.390 1_455 S
C24 H23 0.950 . S
C24 C25 1.377 1_455 S
C25 C24 1.377 1_655 S
C25 C26 1.413 . S
C26 C22 1.387 . S
C26 C25 1.413 . S
C26 H28 0.951 . S
C27 C22 1.491 . S
C27 C29 1.382 . S
C27 C31 1.404 . S
H28 C26 0.951 . S
C29 C27 1.382 . S
C29 C30 1.390 . S
C29 H34 0.949 1_655 S
C30 C29 1.390 . S
C30 C35 1.399 . S
C31 C27 1.404 . S
C31 H32 0.950 . S
C31 C33 1.375 . S
H32 C31 0.950 . S
C33 C31 1.375 . S
C33 C35 1.382 . S
C33 H37 0.950 . S
H34 C29 0.949 1_455 S
C35 C30 1.399 . S
C35 C33 1.382 . S
C35 H36 0.952 . S
H36 C35 0.952 . S
H37 C33 0.950 . S
H38 C39 0.949 . S
C39 H38 0.949 . S
C39 C40 1.395 . S
C39 C41 1.391 . S
C40 C39 1.395 . S
C40 C43 1.390 1_565 S
C41 C39 1.391 . S
C41 C45 1.387 . S
C41 C46 1.491 . S
H42 C43 0.950 . S
C43 C40 1.390 1_545 S
C43 H42 0.950 . S
C43 C44 1.377 1_545 S
C44 C43 1.377 1_565 S
C44 C45 1.413 . S
C45 C41 1.387 . S
C45 C44 1.413 . S
C45 H47 0.951 . S
C46 C41 1.491 . S
C46 C48 1.382 . S
C46 C50 1.404 . S
H47 C45 0.951 . S
C48 C46 1.382 . S
C48 C49 1.390 . S
C48 H53 0.949 1_565 S
C49 C48 1.390 . S
C49 C54 1.399 . S
C50 C46 1.404 . S
C50 H51 0.950 . S
C50 C52 1.375 . S
H51 C50 0.950 . S
C52 C50 1.375 . S
C52 C54 1.382 . S
C52 H56 0.950 . S
H53 C48 0.949 1_545 S
C54 C49 1.399 . S
C54 C52 1.382 . S
C54 H55 0.952 . S
H55 C54 0.952 . S
H56 C52 0.950 . S
H57 C58 0.949 . S
C58 H57 0.949 . S
C58 C59 1.395 . S
C58 C60 1.391 . S
C59 C58 1.395 . S
C59 C62 1.390 . S
C60 C58 1.391 . S
C60 C64 1.387 . S
C60 C65 1.491 . S
H61 C62 0.950 . S
C62 C59 1.390 . S
C62 H61 0.950 . S
C62 C63 1.378 . S
C63 C62 1.378 . S
C63 C64 1.409 . S
C64 C60 1.387 . S
C64 C63 1.409 . S
C64 H66 0.951 . S
C65 C60 1.491 . S
C65 C67 1.382 . S
C65 C69 1.404 . S
H66 C64 0.951 . S
C67 C65 1.382 . S
C67 C68 1.390 . S
C67 H72 0.949 . S
C68 C67 1.390 . S
C68 C73 1.399 . S
C69 C65 1.404 . S
C69 H70 0.950 . S
C69 C71 1.375 . S
H70 C69 0.950 . S
C71 C69 1.375 . S
C71 C73 1.382 . S
C71 H75 0.950 . S
H72 C67 0.949 . S
C73 C68 1.399 . S
C73 C71 1.382 . S
C73 H74 0.952 . S
H74 C73 0.952 . S
H75 C71 0.950 . S
H76 C77 0.949 . S
C77 H76 0.949 . S
C77 C78 1.395 . S
C77 C79 1.391 1_554 S
C78 C77 1.395 . S
C78 C81 1.390 1_554 S
C79 C77 1.391 1_556 S
C79 C83 1.387 . S
C79 C84 1.491 . S
H80 C81 0.950 . S
C81 C78 1.390 1_556 S
C81 H80 0.950 . S
C81 C82 1.378 . S
C82 C81 1.378 . S
C82 C83 1.409 . S
C83 C79 1.387 . S
C83 C82 1.409 . S
C83 H85 0.951 . S
C84 C79 1.491 . S
C84 C86 1.382 1_556 S
C84 C88 1.404 . S
H85 C83 0.951 . S
C86 C84 1.382 1_554 S
C86 C87 1.390 . S
C86 H91 0.949 . S
C87 C86 1.390 . S
C87 C92 1.399 1_554 S
C88 C84 1.404 . S
C88 H89 0.950 . S
C88 C90 1.375 . S
H89 C88 0.950 . S
C90 C88 1.375 . S
C90 C92 1.382 . S
C90 H94 0.950 . S
H91 C86 0.949 . S
C92 C87 1.399 1_556 S
C92 C90 1.382 . S
C92 H93 0.952 . S
H93 C92 0.952 . S
H94 C90 0.950 . S
H95 C96 0.949 . S
C96 H95 0.949 . S
C96 C97 1.395 1_655 S
C96 C98 1.391 1_554 S
C97 C96 1.395 1_455 S
C97 C100 1.390 1_554 S
C98 C96 1.391 1_556 S
C98 C102 1.387 . S
C98 C103 1.491 . S
H99 C100 0.950 . S
C100 C97 1.390 1_556 S
C100 H99 0.950 . S
C100 C101 1.377 1_455 S
C101 C100 1.377 1_655 S
C101 C102 1.411 . S
C102 C98 1.387 . S
C102 C101 1.411 . S
C102 H104 0.951 . S
C103 C98 1.491 . S
C103 C105 1.402 1_556 S
C103 C107 1.404 . S
H104 C102 0.951 . S
C105 C103 1.402 1_554 S
C105 C106 1.400 . S
C105 H110 0.920 1_655 S
C106 C105 1.400 . S
C106 C111 1.399 1_554 S
C107 C103 1.404 . S
C107 H108 0.950 . S
C107 C109 1.375 . S
H108 C107 0.950 . S
C109 C107 1.375 . S
C109 C111 1.382 . S
C109 H113 0.950 . S
H110 C105 0.920 1_455 S
C111 C106 1.399 1_556 S
C111 C109 1.382 . S
C111 H112 0.952 . S
H112 C111 0.952 . S
H113 C109 0.950 . S
H114 C115 0.949 . S
C115 H114 0.949 . S
C115 C116 1.395 1_565 S
C115 C117 1.391 1_554 S
C116 C115 1.395 1_545 S
C116 C119 1.390 1_554 S
C117 C115 1.391 1_556 S
C117 C121 1.387 . S
C117 C122 1.491 . S
H118 C119 0.950 . S
C119 C116 1.390 1_556 S
C119 H118 0.950 . S
C119 C120 1.377 1_545 S
C120 C119 1.377 1_565 S
C120 C121 1.411 . S
C121 C117 1.387 . S
C121 C120 1.411 . S
C121 H123 0.951 . S
C122 C117 1.491 . S
C122 C124 1.402 1_556 S
C122 C126 1.404 . S
H123 C121 0.951 . S
C124 C122 1.402 1_554 S
C124 C125 1.400 . S
C124 H129 0.920 1_565 S
C125 C124 1.400 . S
C125 C130 1.399 1_554 S
C126 C122 1.404 . S
C126 H127 0.950 . S
C126 C128 1.375 . S
H127 C126 0.950 . S
C128 C126 1.375 . S
C128 C130 1.382 . S
C128 H132 0.950 . S
H129 C124 0.920 1_545 S
C130 C125 1.399 1_556 S
C130 C128 1.382 . S
C130 H131 0.952 . S
H131 C130 0.952 . S
H132 C128 0.950 . S
H133 C134 0.949 . S
C134 H133 0.949 . S
C134 C135 1.395 . S
C134 C136 1.391 1_554 S
C135 C134 1.395 . S
C135 C138 1.390 1_554 S
C136 C134 1.391 1_556 S
C136 C140 1.387 . S
C136 C141 1.491 . S
H137 C138 0.950 . S
C138 C135 1.390 1_556 S
C138 H137 0.950 . S
C138 C139 1.378 . S
C139 C138 1.378 . S
C139 C140 1.409 . S
C140 C136 1.387 . S
C140 C139 1.409 . S
C140 H142 0.951 . S
C141 C136 1.491 . S
C141 C143 1.382 1_556 S
C141 C145 1.404 . S
H142 C140 0.951 . S
C143 C141 1.382 1_554 S
C143 C144 1.390 . S
C143 H148 0.949 . S
C144 C143 1.390 . S
C144 C149 1.399 1_554 S
C145 C141 1.404 . S
C145 H146 0.950 . S
C145 C147 1.375 . S
H146 C145 0.950 . S
C147 C145 1.375 . S
C147 C149 1.382 . S
C147 H151 0.950 . S
H148 C143 0.949 . S
C149 C144 1.399 1_556 S
C149 C147 1.382 . S
C149 H150 0.952 . S
H150 C149 0.952 . S
H151 C147 0.950 . S
La152 C154 2.928 . S
La152 O172 2.521 . S
La152 O173 2.627 1_455 S
La152 O174 2.554 . S
La152 O175 2.757 1_565 S
La152 O176 2.470 . S
La152 O181 2.482 1_455 S
La152 O183 2.503 1_565 S
La153 C163 2.928 . S
La153 O175 2.482 1_655 S
La153 O177 2.503 1_545 S
La153 O178 2.521 . S
La153 O179 2.622 1_655 S
La153 O180 2.554 . S
La153 O181 2.757 1_545 S
La153 O182 2.470 . S
C154 La152 2.928 . S
C154 C155 1.503 1_556 S
C154 O172 1.261 . S
C154 O173 1.240 1_455 S
C155 C154 1.503 1_554 S
C155 C156 1.394 . S
C155 C160 1.373 . S
C156 C155 1.394 . S
C156 C157 1.380 . S
C156 H184 0.930 . S
C157 C156 1.380 . S
C157 C158 1.376 . S
C157 H185 0.930 . S
C158 C157 1.376 . S
C158 C159 1.370 . S
C159 C158 1.370 . S
C159 C160 1.396 . S
C159 H186 0.929 1_455 S
C160 C155 1.373 . S
C160 C159 1.396 . S
C160 H187 0.929 1_455 S
C161 O174 1.267 . S
C161 O175 1.273 1_565 S
C162 O176 1.258 1_655 S
C162 O177 1.256 . S
C163 La153 2.928 . S
C163 C164 1.503 . S
C163 O178 1.261 . S
C163 O179 1.229 1_655 S
C164 C163 1.503 . S
C164 C165 1.394 . S
C164 C169 1.373 . S
C165 C164 1.394 . S
C165 C166 1.380 . S
C165 H188 0.930 . S
C166 C165 1.380 . S
C166 C167 1.376 . S
C166 H189 0.930 . S
C167 C166 1.376 . S
C167 C168 1.370 . S
C168 C167 1.370 . S
C168 C169 1.396 . S
C168 H190 0.929 1_655 S
C169 C164 1.373 . S
C169 C168 1.396 . S
C169 H191 0.929 1_655 S
C170 O180 1.240 . S
C170 O181 1.289 1_545 S
C171 O182 1.258 1_455 S
C171 O183 1.256 . S
O172 La152 2.521 . S
O172 C154 1.261 . S
O173 La152 2.627 1_655 S
O173 C154 1.240 1_655 S
O174 La152 2.554 . S
O174 C161 1.267 . S
O175 La152 2.757 1_545 S
O175 La153 2.482 1_455 S
O175 C161 1.273 1_545 S
O176 La152 2.470 . S
O176 C162 1.258 1_455 S
O177 La153 2.503 1_565 S
O177 C162 1.256 . S
O178 La153 2.521 . S
O178 C163 1.261 . S
O179 La153 2.622 1_455 S
O179 C163 1.229 1_455 S
O180 La153 2.554 . S
O180 C170 1.240 . S
O181 La152 2.482 1_655 S
O181 La153 2.757 1_565 S
O181 C170 1.289 1_565 S
O182 La153 2.470 . S
O182 C171 1.258 1_655 S
O183 La152 2.503 1_545 S
O183 C171 1.256 . S
H184 C156 0.930 . S
H185 C157 0.930 . S
H186 C159 0.929 1_655 S
H187 C160 0.929 1_655 S
H188 C165 0.930 . S
H189 C166 0.930 . S
H190 C168 0.929 1_455 S
H191 C169 0.929 1_455 S
La192 C194 2.928 . S
La192 O212 2.521 . S
La192 O213 2.625 1_545 S
La192 O214 2.554 . S
La192 O215 2.757 . S
La192 O216 2.470 . S
La192 O221 2.482 1_545 S
La192 O223 2.503 . S
La193 C203 2.928 . S
La193 O215 2.482 1_565 S
La193 O217 2.503 . S
La193 O218 2.521 . S
La193 O219 2.621 1_565 S
La193 O220 2.554 . S
La193 O221 2.757 . S
La193 O222 2.470 . S
C194 La192 2.928 . S
C194 C195 1.503 1_556 S
C194 O212 1.261 . S
C194 O213 1.237 1_545 S
C195 C194 1.503 1_554 S
C195 C196 1.394 . S
C195 C200 1.373 . S
C196 C195 1.394 . S
C196 C197 1.380 . S
C196 H224 0.930 . S
C197 C196 1.380 . S
C197 C198 1.376 . S
C197 H225 0.930 . S
C198 C197 1.376 . S
C198 C199 1.370 . S
C199 C198 1.370 . S
C199 C200 1.396 . S
C199 H226 0.929 1_545 S
C200 C195 1.373 . S
C200 C199 1.396 . S
C200 H227 0.929 1_545 S
C201 O214 1.240 . S
C201 O215 1.289 . S
C202 O216 1.258 1_565 S
C202 O217 1.256 . S
C203 La193 2.928 . S
C203 C204 1.503 . S
C203 O218 1.261 . S
C203 O219 1.226 1_565 S
C204 C203 1.503 . S
C204 C205 1.394 . S
C204 C209 1.373 . S
C205 C204 1.394 . S
C205 C206 1.380 . S
C205 H228 0.930 . S
C206 C205 1.380 . S
C206 C207 1.376 . S
C206 H229 0.930 . S
C207 C206 1.376 . S
C207 C208 1.370 . S
C208 C207 1.370 . S
C208 C209 1.396 . S
C208 H230 0.929 1_565 S
C209 C204 1.373 . S
C209 C208 1.396 . S
C209 H231 0.929 1_565 S
C210 O220 1.240 . S
C210 O221 1.289 . S
C211 O222 1.258 1_545 S
C211 O223 1.256 . S
O212 La192 2.521 . S
O212 C194 1.261 . S
O213 La192 2.625 1_565 S
O213 C194 1.237 1_565 S
O214 La192 2.554 . S
O214 C201 1.240 . S
O215 La192 2.757 . S
O215 La193 2.482 1_545 S
O215 C201 1.289 . S
O216 La192 2.470 . S
O216 C202 1.258 1_545 S
O217 La193 2.503 . S
O217 C202 1.256 . S
O218 La193 2.521 . S
O218 C203 1.261 . S
O219 La193 2.621 1_545 S
O219 C203 1.226 1_545 S
O220 La193 2.554 . S
O220 C210 1.240 . S
O221 La192 2.482 1_565 S
O221 La193 2.757 . S
O221 C210 1.289 . S
O222 La193 2.470 . S
O222 C211 1.258 1_565 S
O223 La192 2.503 . S
O223 C211 1.256 . S
H224 C196 0.930 . S
H225 C197 0.930 . S
H226 C199 0.929 1_565 S
H227 C200 0.929 1_565 S
H228 C205 0.930 . S
H229 C206 0.930 . S
H230 C208 0.929 1_545 S
H231 C209 0.929 1_545 S
La232 C234 2.928 . S
La232 O252 2.521 . S
La232 O253 2.628 . S
La232 O254 2.554 . S
La232 O255 2.757 . S
La232 O256 2.470 . S
La232 O261 2.482 . S
La232 O263 2.503 . S
La233 C243 2.928 . S
La233 O255 2.482 . S
La233 O257 2.503 . S
La233 O258 2.521 . S
La233 O259 2.628 . S
La233 O260 2.554 . S
La233 O261 2.757 . S
La233 O262 2.470 . S
C234 La232 2.928 . S
C234 C235 1.503 1_556 S
C234 O252 1.261 . S
C234 O253 1.243 . S
C235 C234 1.503 1_554 S
C235 C236 1.394 . S
C235 C240 1.373 . S
C236 C235 1.394 . S
C236 C237 1.380 . S
C236 H264 0.930 . S
C237 C236 1.380 . S
C237 C238 1.376 . S
C237 H265 0.930 . S
C238 C237 1.376 . S
C238 C239 1.370 . S
C239 C238 1.370 . S
C239 C240 1.396 . S
C239 H266 0.929 . S
C240 C235 1.373 . S
C240 C239 1.396 . S
C240 H267 0.929 . S
C241 O254 1.240 . S
C241 O255 1.289 . S
C242 O256 1.258 . S
C242 O257 1.256 . S
C243 La233 2.928 . S
C243 C244 1.503 . S
C243 O258 1.261 . S
C243 O259 1.243 . S
C244 C243 1.503 . S
C244 C245 1.394 . S
C244 C249 1.373 . S
C245 C244 1.394 . S
C245 C246 1.380 . S
C245 H268 0.930 . S
C246 C245 1.380 . S
C246 C247 1.376 . S
C246 H269 0.930 . S
C247 C246 1.376 . S
C247 C248 1.370 . S
C248 C247 1.370 . S
C248 C249 1.396 . S
C248 H270 0.929 . S
C249 C244 1.373 . S
C249 C248 1.396 . S
C249 H271 0.929 . S
C250 O260 1.240 . S
C250 O261 1.289 . S
C251 O262 1.258 . S
C251 O263 1.256 . S
O252 La232 2.521 . S
O252 C234 1.261 . S
O253 La232 2.628 . S
O253 C234 1.243 . S
O254 La232 2.554 . S
O254 C241 1.240 . S
O255 La232 2.757 . S
O255 La233 2.482 . S
O255 C241 1.289 . S
O256 La232 2.470 . S
O256 C242 1.258 . S
O257 La233 2.503 . S
O257 C242 1.256 . S
O258 La233 2.521 . S
O258 C243 1.261 . S
O259 La233 2.628 . S
O259 C243 1.243 . S
O260 La233 2.554 . S
O260 C250 1.240 . S
O261 La232 2.482 . S
O261 La233 2.757 . S
O261 C250 1.289 . S
O262 La233 2.470 . S
O262 C251 1.258 . S
O263 La232 2.503 . S
O263 C251 1.256 . S
H264 C236 0.930 . S
H265 C237 0.930 . S
H266 C239 0.929 . S
H267 C240 0.929 . S
H268 C245 0.930 . S
H269 C246 0.930 . S
H270 C248 0.929 . S
H271 C249 0.929 . S
La272 C274 2.928 . S
La272 O292 2.521 . S
La272 O293 2.628 . S
La272 O294 2.554 . S
La272 O295 2.757 1_655 S
La272 O296 2.470 . S
La272 O301 2.482 . S
La272 O303 2.503 1_655 S
La273 C283 2.928 . S
La273 O295 2.482 . S
La273 O297 2.503 1_455 S
La273 O298 2.521 . S
La273 O299 2.628 . S
La273 O300 2.554 . S
La273 O301 2.757 1_455 S
La273 O302 2.470 . S
C274 La272 2.928 . S
C274 C275 1.503 1_556 S
C274 O292 1.261 . S
C274 O293 1.243 . S
C275 C274 1.503 1_554 S
C275 C276 1.394 . S
C275 C280 1.373 . S
C276 C275 1.394 . S
C276 C277 1.380 . S
C276 H304 0.930 . S
C277 C276 1.380 . S
C277 C278 1.376 . S
C277 H305 0.930 . S
C278 C277 1.376 . S
C278 C279 1.370 . S
C279 C278 1.370 . S
C279 C280 1.396 . S
C279 H306 0.929 . S
C280 C275 1.373 . S
C280 C279 1.396 . S
C280 H307 0.929 . S
C281 O294 1.262 . S
C281 O295 1.276 1_655 S
C282 O296 1.258 . S
C282 O297 1.256 . S
C283 La273 2.928 . S
C283 C284 1.503 . S
C283 O298 1.261 . S
C283 O299 1.243 . S
C284 C283 1.503 . S
C284 C285 1.394 . S
C284 C289 1.373 . S
C285 C284 1.394 . S
C285 C286 1.380 . S
C285 H308 0.930 . S
C286 C285 1.380 . S
C286 C287 1.376 . S
C286 H309 0.930 . S
C287 C286 1.376 . S
C287 C288 1.370 . S
C288 C287 1.370 . S
C288 C289 1.396 . S
C288 H310 0.929 . S
C289 C284 1.373 . S
C289 C288 1.396 . S
C289 H311 0.929 . S
C290 O300 1.240 . S
C290 O301 1.289 1_455 S
C291 O302 1.258 . S
C291 O303 1.256 . S
O292 La272 2.521 . S
O292 C274 1.261 . S
O293 La272 2.628 . S
O293 C274 1.243 . S
O294 La272 2.554 . S
O294 C281 1.262 . S
O295 La272 2.757 1_455 S
O295 La273 2.482 . S
O295 C281 1.276 1_455 S
O296 La272 2.470 . S
O296 C282 1.258 . S
O297 La273 2.503 1_655 S
O297 C282 1.256 . S
O298 La273 2.521 . S
O298 C283 1.261 . S
O299 La273 2.628 . S
O299 C283 1.243 . S
O300 La273 2.554 . S
O300 C290 1.240 . S
O301 La272 2.482 . S
O301 La273 2.757 1_655 S
O301 C290 1.289 1_655 S
O302 La273 2.470 . S
O302 C291 1.258 . S
O303 La272 2.503 1_455 S
O303 C291 1.256 . S
H304 C276 0.930 . S
H305 C277 0.930 . S
H306 C279 0.929 . S
H307 C280 0.929 . S
H308 C285 0.930 . S
H309 C286 0.930 . S
H310 C288 0.929 . S
H311 C289 0.929 . S
C312 C313 1.395 1_565 S
C312 C314 1.394 . S
C312 H328 0.931 . S
C313 C312 1.395 1_545 S
C313 C317 1.372 . S
C314 C312 1.394 . S
C314 C315 1.384 . S
C314 C318 1.531 . S
C315 C314 1.384 . S
C315 C316 1.394 1_565 S
C315 C323 1.503 1_565 S
C316 C315 1.394 1_545 S
C316 C317 1.392 . S
C316 C319 1.511 . S
C317 C313 1.372 . S
C317 C316 1.392 . S
C317 H329 0.929 . S
C318 C314 1.531 . S
C318 H330 0.960 . S
C318 H331 0.962 . S
C318 H332 0.960 . S
C319 C316 1.511 . S
C319 H333 0.961 . S
C319 H334 0.961 . S
C319 H335 0.961 . S
C320 C321 1.370 . S
C320 C322 1.363 . S
C320 H336 0.931 . S
C321 C320 1.370 . S
C321 C325 1.408 1_545 S
C322 C320 1.363 . S
C322 C323 1.371 . S
C322 C326 1.524 . S
C323 C315 1.503 1_545 S
C323 C322 1.371 . S
C323 C324 1.402 1_545 S
C324 C323 1.402 1_565 S
C324 C325 1.404 . S
C324 C327 1.539 . S
C325 C321 1.408 1_565 S
C325 C324 1.404 . S
C325 H337 0.930 . S
C326 C322 1.524 . S
C326 H338 0.956 1_545 S
C326 H339 0.961 . S
C326 H340 0.961 . S
C327 C324 1.539 . S
C327 H341 0.958 . S
C327 H342 0.961 1_565 S
C327 H343 0.960 1_565 S
H328 C312 0.931 . S
H329 C317 0.929 . S
H330 C318 0.960 . S
H331 C318 0.962 . S
H332 C318 0.960 . S
H333 C319 0.961 . S
H334 C319 0.961 . S
H335 C319 0.961 . S
H336 C320 0.931 . S
H337 C325 0.930 . S
H338 C326 0.956 1_565 S
H339 C326 0.961 . S
H340 C326 0.961 . S
H341 C327 0.958 . S
H342 C327 0.961 1_545 S
H343 C327 0.960 1_545 S
C344 C345 1.391 . S
C344 C346 1.394 . S
C344 H360 0.931 . S
C345 C344 1.391 . S
C345 C349 1.376 . S
C346 C344 1.394 . S
C346 C347 1.369 . S
C346 C350 1.531 . S
C347 C346 1.369 . S
C347 C348 1.410 . S
C347 C355 1.503 . S
C348 C347 1.410 . S
C348 C349 1.392 . S
C348 C351 1.511 . S
C349 C345 1.376 . S
C349 C348 1.392 . S
C349 H361 0.929 . S
C350 C346 1.531 . S
C350 H362 0.960 . S
C350 H363 0.962 . S
C350 H364 0.960 . S
C351 C348 1.511 . S
C351 H365 0.961 . S
C351 H366 0.961 . S
C351 H367 0.961 . S
C352 C353 1.370 . S
C352 C354 1.363 . S
C352 H368 0.931 . S
C353 C352 1.370 . S
C353 C357 1.408 . S
C354 C352 1.363 . S
C354 C355 1.370 . S
C354 C358 1.524 . S
C355 C347 1.503 . S
C355 C354 1.370 . S
C355 C356 1.403 . S
C356 C355 1.403 . S
C356 C357 1.404 . S
C356 C359 1.539 . S
C357 C353 1.408 . S
C357 C356 1.404 . S
C357 H369 0.930 . S
C358 C354 1.524 . S
C358 H370 0.956 . S
C358 H371 0.961 . S
C358 H372 0.961 . S
C359 C356 1.539 . S
C359 H373 0.958 . S
C359 H374 0.961 . S
C359 H375 0.960 . S
H360 C344 0.931 . S
H361 C349 0.929 . S
H362 C350 0.960 . S
H363 C350 0.962 . S
H364 C350 0.960 . S
H365 C351 0.961 . S
H366 C351 0.961 . S
H367 C351 0.961 . S
H368 C352 0.931 . S
H369 C357 0.930 . S
H370 C358 0.956 . S
H371 C358 0.961 . S
H372 C358 0.961 . S
H373 C359 0.958 . S
H374 C359 0.961 . S
H375 C359 0.960 . S
C376 C377 1.391 . S
C376 C378 1.394 . S
C376 H392 0.931 . S
C377 C376 1.391 . S
C377 C381 1.376 . S
C378 C376 1.394 . S
C378 C379 1.369 . S
C378 C382 1.531 . S
C379 C378 1.369 . S
C379 C380 1.410 . S
C379 C387 1.503 . S
C380 C379 1.410 . S
C380 C381 1.392 . S
C380 C383 1.511 . S
C381 C377 1.376 . S
C381 C380 1.392 . S
C381 H393 0.929 . S
C382 C378 1.531 . S
C382 H394 0.960 . S
C382 H395 0.962 . S
C382 H396 0.960 . S
C383 C380 1.511 . S
C383 H397 0.961 . S
C383 H398 0.961 . S
C383 H399 0.961 . S
C384 C385 1.370 . S
C384 C386 1.363 . S
C384 H400 0.931 . S
C385 C384 1.370 . S
C385 C389 1.408 . S
C386 C384 1.363 . S
C386 C387 1.370 . S
C386 C390 1.524 . S
C387 C379 1.503 . S
C387 C386 1.370 . S
C387 C388 1.403 . S
C388 C387 1.403 . S
C388 C389 1.404 . S
C388 C391 1.539 . S
C389 C385 1.408 . S
C389 C388 1.404 . S
C389 H401 0.930 . S
C390 C386 1.524 . S
C390 H402 0.956 . S
C390 H403 0.961 . S
C390 H404 0.961 . S
C391 C388 1.539 . S
C391 H405 0.958 . S
C391 H406 0.961 . S
C391 H407 0.960 . S
H392 C376 0.931 . S
H393 C381 0.929 . S
H394 C382 0.960 . S
H395 C382 0.962 . S
H396 C382 0.960 . S
H397 C383 0.961 . S
H398 C383 0.961 . S
H399 C383 0.961 . S
H400 C384 0.931 . S
H401 C389 0.930 . S
H402 C390 0.956 . S
H403 C390 0.961 . S
H404 C390 0.961 . S
H405 C391 0.958 . S
H406 C391 0.961 . S
H407 C391 0.960 . S
C408 C409 1.391 1_455 S
C408 C410 1.394 . S
C408 H424 0.931 . S
C409 C408 1.391 1_655 S
C409 C413 1.376 . S
C410 C408 1.394 . S
C410 C411 1.369 1_455 S
C410 C414 1.531 . S
C411 C410 1.369 1_655 S
C411 C412 1.410 . S
C411 C419 1.503 . S
C412 C411 1.410 . S
C412 C413 1.392 . S
C412 C415 1.511 . S
C413 C409 1.376 . S
C413 C412 1.392 . S
C413 H425 0.929 . S
C414 C410 1.531 . S
C414 H426 0.960 . S
C414 H427 0.962 . S
C414 H428 0.960 . S
C415 C412 1.511 . S
C415 H429 0.961 . S
C415 H430 0.961 . S
C415 H431 0.961 . S
C416 C417 1.390 . S
C416 C418 1.363 . S
C416 H432 0.931 . S
C417 C416 1.390 . S
C417 C421 1.388 1_455 S
C418 C416 1.363 . S
C418 C419 1.370 1_455 S
C418 C422 1.524 . S
C419 C411 1.503 . S
C419 C418 1.370 1_655 S
C419 C420 1.403 . S
C420 C419 1.403 . S
C420 C421 1.404 . S
C420 C423 1.539 . S
C421 C417 1.388 1_655 S
C421 C420 1.404 . S
C421 H433 0.930 . S
C422 C418 1.524 . S
C422 H434 0.956 . S
C422 H435 0.961 . S
C422 H436 0.961 . S
C423 C420 1.539 . S
C423 H437 0.958 . S
C423 H438 0.961 . S
C423 H439 0.960 . S
H424 C408 0.931 . S
H425 C413 0.929 . S
H426 C414 0.960 . S
H427 C414 0.962 . S
H428 C414 0.960 . S
H429 C415 0.961 . S
H430 C415 0.961 . S
H431 C415 0.961 . S
H432 C416 0.931 . S
H433 C421 0.930 . S
H434 C422 0.956 . S
H435 C422 0.961 . S
H436 C422 0.961 . S
H437 C423 0.958 . S
H438 C423 0.961 . S
H439 C423 0.960 . S
C440 C441 1.391 1_565 S
C440 C442 1.394 . S
C440 H456 0.931 . S
C441 C440 1.391 1_545 S
C441 C445 1.376 . S
C442 C440 1.394 . S
C442 C443 1.369 1_565 S
C442 C446 1.531 . S
C443 C442 1.369 1_545 S
C443 C444 1.410 . S
C443 C451 1.503 . S
C444 C443 1.410 . S
C444 C445 1.392 . S
C444 C447 1.511 . S
C445 C441 1.376 . S
C445 C444 1.392 . S
C445 H457 0.929 . S
C446 C442 1.531 . S
C446 H458 0.960 1_554 S
C446 H459 0.962 . S
C446 H460 0.960 . S
C447 C444 1.511 . S
C447 H461 0.961 . S
C447 H462 0.961 . S
C447 H463 0.961 . S
C448 C449 1.377 . S
C448 C450 1.363 1_556 S
C448 H464 0.931 . S
C449 C448 1.377 . S
C449 C453 1.401 1_565 S
C450 C448 1.363 1_554 S
C450 C451 1.370 1_565 S
C450 C454 1.524 . S
C451 C443 1.503 . S
C451 C450 1.370 1_545 S
C451 C452 1.403 1_554 S
C452 C451 1.403 1_556 S
C452 C453 1.404 . S
C452 C455 1.539 . S
C453 C449 1.401 1_545 S
C453 C452 1.404 . S
C453 H465 0.930 . S
C454 C450 1.524 . S
C454 H466 0.956 . S
C454 H467 0.961 . S
C454 H468 0.961 . S
C455 C452 1.539 . S
C455 H469 0.958 . S
C455 H470 0.961 . S
C455 H471 0.960 1_556 S
H456 C440 0.931 . S
H457 C445 0.929 . S
H458 C446 0.960 1_556 S
H459 C446 0.962 . S
H460 C446 0.960 . S
H461 C447 0.961 . S
H462 C447 0.961 . S
H463 C447 0.961 . S
H464 C448 0.931 . S
H465 C453 0.930 . S
H466 C454 0.956 . S
H467 C454 0.961 . S
H468 C454 0.961 . S
H469 C455 0.958 . S
H470 C455 0.961 . S
H471 C455 0.960 1_554 S
C472 C473 1.391 . S
C472 C474 1.394 . S
C472 H488 0.931 . S
C473 C472 1.391 . S
C473 C477 1.376 . S
C474 C472 1.394 . S
C474 C475 1.369 . S
C474 C478 1.531 . S
C475 C474 1.369 . S
C475 C476 1.410 . S
C475 C483 1.503 . S
C476 C475 1.410 . S
C476 C477 1.392 . S
C476 C479 1.511 . S
C477 C473 1.376 . S
C477 C476 1.392 . S
C477 H489 0.929 . S
C478 C474 1.531 . S
C478 H490 0.960 . S
C478 H491 0.962 . S
C478 H492 0.960 . S
C479 C476 1.511 . S
C479 H493 0.961 . S
C479 H494 0.961 1_554 S
C479 H495 0.961 . S
C480 C481 1.370 . S
C480 C482 1.363 1_556 S
C480 H496 0.931 . S
C481 C480 1.370 . S
C481 C485 1.408 . S
C482 C480 1.363 1_554 S
C482 C483 1.370 . S
C482 C486 1.524 . S
C483 C475 1.503 . S
C483 C482 1.370 . S
C483 C484 1.403 . S
C484 C483 1.403 . S
C484 C485 1.404 1_554 S
C484 C487 1.539 . S
C485 C481 1.408 . S
C485 C484 1.404 1_556 S
C485 H497 0.930 . S
C486 C482 1.524 . S
C486 H498 0.956 . S
C486 H499 0.961 . S
C486 H500 0.961 1_554 S
C487 C484 1.539 . S
C487 H501 0.958 . S
C487 H502 0.961 . S
C487 H503 0.960 . S
H488 C472 0.931 . S
H489 C477 0.929 . S
H490 C478 0.960 . S
H491 C478 0.962 . S
H492 C478 0.960 . S
H493 C479 0.961 . S
H494 C479 0.961 1_556 S
H495 C479 0.961 . S
H496 C480 0.931 . S
H497 C485 0.930 . S
H498 C486 0.956 . S
H499 C486 0.961 . S
H500 C486 0.961 1_556 S
H501 C487 0.958 . S
H502 C487 0.961 . S
H503 C487 0.960 . S
C504 C505 1.391 . S
C504 C506 1.394 . S
C504 H520 0.931 . S
C505 C504 1.391 . S
C505 C509 1.376 . S
C506 C504 1.394 . S
C506 C507 1.369 . S
C506 C510 1.531 . S
C507 C506 1.369 . S
C507 C508 1.410 . S
C507 C515 1.503 . S
C508 C507 1.410 . S
C508 C509 1.392 . S
C508 C511 1.511 . S
C509 C505 1.376 . S
C509 C508 1.392 . S
C509 H521 0.929 . S
C510 C506 1.531 . S
C510 H522 0.960 . S
C510 H523 0.962 . S
C510 H524 0.960 . S
C511 C508 1.511 . S
C511 H525 0.961 . S
C511 H526 0.961 1_554 S
C511 H527 0.961 . S
C512 C513 1.370 . S
C512 C514 1.363 1_556 S
C512 H528 0.931 . S
C513 C512 1.370 . S
C513 C517 1.408 . S
C514 C512 1.363 1_554 S
C514 C515 1.370 . S
C514 C518 1.524 . S
C515 C507 1.503 . S
C515 C514 1.370 . S
C515 C516 1.403 . S
C516 C515 1.403 . S
C516 C517 1.404 1_554 S
C516 C519 1.539 . S
C517 C513 1.408 . S
C517 C516 1.404 1_556 S
C517 H529 0.930 . S
C518 C514 1.524 . S
C518 H530 0.956 . S
C518 H531 0.961 . S
C518 H532 0.961 1_554 S
C519 C516 1.539 . S
C519 H533 0.958 . S
C519 H534 0.961 . S
C519 H535 0.960 . S
H520 C504 0.931 . S
H521 C509 0.929 . S
H522 C510 0.960 . S
H523 C510 0.962 . S
H524 C510 0.960 . S
H525 C511 0.961 . S
H526 C511 0.961 1_556 S
H527 C511 0.961 . S
H528 C512 0.931 . S
H529 C517 0.930 . S
H530 C518 0.956 . S
H531 C518 0.961 . S
H532 C518 0.961 1_556 S
H533 C519 0.958 . S
H534 C519 0.961 . S
H535 C519 0.960 . S
C536 C537 1.391 1_455 S
C536 C538 1.394 . S
C536 H552 0.931 . S
C537 C536 1.391 1_655 S
C537 C541 1.376 . S
C538 C536 1.394 . S
C538 C539 1.369 1_455 S
C538 C542 1.531 . S
C539 C538 1.369 1_655 S
C539 C540 1.410 . S
C539 C547 1.503 . S
C540 C539 1.410 . S
C540 C541 1.392 . S
C540 C543 1.511 . S
C541 C537 1.376 . S
C541 C540 1.392 . S
C541 H553 0.929 . S
C542 C538 1.531 . S
C542 H554 0.960 . S
C542 H555 0.962 . S
C542 H556 0.960 . S
C543 C540 1.511 . S
C543 H557 0.961 . S
C543 H558 0.961 . S
C543 H559 0.961 . S
C544 C545 1.370 1_455 S
C544 C546 1.363 . S
C544 H560 0.931 . S
C545 C544 1.370 1_655 S
C545 C549 1.408 . S
C546 C544 1.363 . S
C546 C547 1.370 1_456 S
C546 C550 1.524 . S
C547 C539 1.503 . S
C547 C546 1.370 1_654 S
C547 C548 1.403 . S
C548 C547 1.403 . S
C548 C549 1.404 1_554 S
C548 C551 1.539 . S
C549 C545 1.408 . S
C549 C548 1.404 1_556 S
C549 H561 0.930 . S
C550 C546 1.524 . S
C550 H562 0.956 1_556 S
C550 H563 0.961 . S
C550 H564 0.961 . S
C551 C548 1.539 . S
C551 H565 0.958 . S
C551 H566 0.961 . S
C551 H567 0.960 . S
H552 C536 0.931 . S
H553 C541 0.929 . S
H554 C542 0.960 . S
H555 C542 0.962 . S
H556 C542 0.960 . S
H557 C543 0.961 . S
H558 C543 0.961 . S
H559 C543 0.961 . S
H560 C544 0.931 . S
H561 C549 0.930 . S
H562 C550 0.956 1_554 S
H563 C550 0.961 . S
H564 C550 0.961 . S
H565 C551 0.958 . S
H566 C551 0.961 . S
H567 C551 0.960 . S
C568 C569 1.391 1_655 S
C568 C570 1.394 . S
C568 H584 0.931 . S
C569 C568 1.391 1_455 S
C569 C573 1.376 . S
C570 C568 1.394 . S
C570 C571 1.369 . S
C570 C574 1.531 . S
C571 C570 1.369 . S
C571 C572 1.410 1_655 S
C571 C579 1.503 . S
C572 C571 1.410 1_455 S
C572 C573 1.392 . S
C572 C575 1.511 . S
C573 C569 1.376 . S
C573 C572 1.392 . S
C573 H585 0.929 . S
C574 C570 1.531 . S
C574 H586 0.960 . S
C574 H587 0.962 . S
C574 H588 0.960 . S
C575 C572 1.511 . S
C575 H589 0.961 . S
C575 H590 0.961 . S
C575 H591 0.961 . S
C576 C577 1.370 . S
C576 C578 1.363 . S
C576 H592 0.931 . S
C577 C576 1.370 . S
C577 C581 1.408 . S
C578 C576 1.363 . S
C578 C579 1.370 . S
C578 C582 1.524 . S
C579 C571 1.503 . S
C579 C578 1.370 . S
C579 C580 1.403 . S
C580 C579 1.403 . S
C580 C581 1.404 . S
C580 C583 1.539 . S
C581 C577 1.408 . S
C581 C580 1.404 . S
C581 H593 0.930 . S
C582 C578 1.524 . S
C582 H594 0.956 . S
C582 H595 0.961 . S
C582 H596 0.961 . S
C583 C580 1.539 . S
C583 H597 0.958 . S
C583 H598 0.961 . S
C583 H599 0.960 1_655 S
H584 C568 0.931 . S
H585 C573 0.929 . S
H586 C574 0.960 . S
H587 C574 0.962 . S
H588 C574 0.960 . S
H589 C575 0.961 . S
H590 C575 0.961 . S
H591 C575 0.961 . S
H592 C576 0.931 . S
H593 C581 0.930 . S
H594 C582 0.956 . S
H595 C582 0.961 . S
H596 C582 0.961 . S
H597 C583 0.958 . S
H598 C583 0.961 . S
H599 C583 0.960 1_455 S
C600 C601 1.391 1_565 S
C600 C602 1.394 . S
C600 H616 0.931 . S
C601 C600 1.391 1_545 S
C601 C605 1.376 . S
C602 C600 1.394 . S
C602 C603 1.369 . S
C602 C606 1.531 . S
C603 C602 1.369 . S
C603 C604 1.410 1_565 S
C603 C611 1.503 . S
C604 C603 1.410 1_545 S
C604 C605 1.392 . S
C604 C607 1.511 . S
C605 C601 1.376 . S
C605 C604 1.392 . S
C605 H617 0.929 . S
C606 C602 1.531 . S
C606 H618 0.960 . S
C606 H619 0.962 . S
C606 H620 0.960 . S
C607 C604 1.511 . S
C607 H621 0.961 . S
C607 H622 0.961 . S
C607 H623 0.961 . S
C608 C609 1.370 . S
C608 C610 1.363 . S
C608 H624 0.931 . S
C609 C608 1.370 . S
C609 C613 1.408 . S
C610 C608 1.363 . S
C610 C611 1.370 . S
C610 C614 1.524 . S
C611 C603 1.503 . S
C611 C610 1.370 . S
C611 C612 1.403 . S
C612 C611 1.403 . S
C612 C613 1.404 . S
C612 C615 1.539 1_565 S
C613 C609 1.408 . S
C613 C612 1.404 . S
C613 H625 0.930 . S
C614 C610 1.524 . S
C614 H626 0.956 . S
C614 H627 0.961 . S
C614 H628 0.961 . S
C615 C612 1.539 1_545 S
C615 H629 0.958 1_545 S
C615 H630 0.961 . S
C615 H631 0.960 . S
H616 C600 0.931 . S
H617 C605 0.929 . S
H618 C606 0.960 . S
H619 C606 0.962 . S
H620 C606 0.960 . S
H621 C607 0.961 . S
H622 C607 0.961 . S
H623 C607 0.961 . S
H624 C608 0.931 . S
H625 C613 0.930 . S
H626 C614 0.956 . S
H627 C614 0.961 . S
H628 C614 0.961 . S
H629 C615 0.958 1_565 S
H630 C615 0.961 . S
H631 C615 0.960 . S
C632 C633 1.391 . S
C632 C634 1.394 . S
C632 H648 0.931 1_554 S
C633 C632 1.391 . S
C633 C637 1.376 . S
C634 C632 1.394 . S
C634 C635 1.369 . S
C634 C638 1.531 . S
C635 C634 1.369 . S
C635 C636 1.410 . S
C635 C643 1.503 . S
C636 C635 1.410 . S
C636 C637 1.392 . S
C636 C639 1.511 . S
C637 C633 1.376 . S
C637 C636 1.392 . S
C637 H649 0.929 . S
C638 C634 1.531 . S
C638 H650 0.960 . S
C638 H651 0.962 . S
C638 H652 0.962 . S
C639 C636 1.511 . S
C639 H653 0.961 . S
C639 H654 0.961 . S
C639 H655 0.961 . S
C640 C641 1.370 . S
C640 C642 1.363 . S
C640 H656 0.931 . S
C641 C640 1.370 . S
C641 C645 1.408 . S
C642 C640 1.363 . S
C642 C643 1.370 . S
C642 C646 1.524 . S
C643 C635 1.503 . S
C643 C642 1.370 . S
C643 C644 1.403 . S
C644 C643 1.403 . S
C644 C645 1.404 . S
C644 C647 1.539 . S
C645 C641 1.408 . S
C645 C644 1.404 . S
C645 H657 0.930 . S
C646 C642 1.524 . S
C646 H658 0.956 . S
C646 H659 0.961 . S
C646 H660 0.961 . S
C647 C644 1.539 . S
C647 H661 0.958 . S
C647 H662 0.961 . S
C647 H663 0.960 . S
H648 C632 0.931 1_556 S
H649 C637 0.929 . S
H650 C638 0.960 . S
H651 C638 0.962 . S
H652 C638 0.962 . S
H653 C639 0.961 . S
H654 C639 0.961 . S
H655 C639 0.961 . S
H656 C640 0.931 . S
H657 C645 0.930 . S
H658 C646 0.956 . S
H659 C646 0.961 . S
H660 C646 0.961 . S
H661 C647 0.958 . S
H662 C647 0.961 . S
H663 C647 0.960 . S
C664 C665 1.391 . S
C664 C666 1.394 . S
C664 H680 0.931 1_554 S
C665 C664 1.391 . S
C665 C669 1.376 . S
C666 C664 1.394 . S
C666 C667 1.369 . S
C666 C670 1.531 . S
C667 C666 1.369 . S
C667 C668 1.410 . S
C667 C675 1.503 . S
C668 C667 1.410 . S
C668 C669 1.392 . S
C668 C671 1.511 . S
C669 C665 1.376 . S
C669 C668 1.392 . S
C669 H681 0.929 . S
C670 C666 1.531 . S
C670 H682 0.960 . S
C670 H683 0.962 . S
C670 H684 0.960 . S
C671 C668 1.511 . S
C671 H685 0.961 . S
C671 H686 0.961 . S
C671 H687 0.961 . S
C672 C673 1.370 . S
C672 C674 1.363 . S
C672 H688 0.931 . S
C673 C672 1.370 . S
C673 C677 1.408 . S
C674 C672 1.363 . S
C674 C675 1.370 . S
C674 C678 1.524 . S
C675 C667 1.503 . S
C675 C674 1.370 . S
C675 C676 1.403 . S
C676 C675 1.403 . S
C676 C677 1.404 . S
C676 C679 1.539 . S
C677 C673 1.408 . S
C677 C676 1.404 . S
C677 H689 0.930 . S
C678 C674 1.524 . S
C678 H690 0.956 . S
C678 H691 0.961 . S
C678 H692 0.961 . S
C679 C676 1.539 . S
C679 H693 0.958 . S
C679 H694 0.961 . S
C679 H695 0.960 . S
H680 C664 0.931 1_556 S
H681 C669 0.929 . S
H682 C670 0.960 . S
H683 C670 0.962 . S
H684 C670 0.960 . S
H685 C671 0.961 . S
H686 C671 0.961 . S
H687 C671 0.961 . S
H688 C672 0.931 . S
H689 C677 0.930 . S
H690 C678 0.956 . S
H691 C678 0.961 . S
H692 C678 0.961 . S
H693 C679 0.958 . S
H694 C679 0.961 . S
H695 C679 0.960 . S
C696 C697 1.391 . S
C696 C698 1.408 . S
C696 H712 0.919 1_455 S
C697 C696 1.391 . S
C697 C701 1.386 . S
C698 C696 1.408 . S
C698 C699 1.369 . S
C698 C702 1.531 . S
C699 C698 1.369 . S
C699 C700 1.410 . S
C699 C707 1.503 . S
C700 C699 1.410 . S
C700 C701 1.392 . S
C700 C703 1.511 . S
C701 C697 1.386 . S
C701 C700 1.392 . S
C701 H713 0.929 . S
C702 C698 1.531 . S
C702 H714 0.960 . S
C702 H715 0.962 1_455 S
C702 H716 0.960 . S
C703 C700 1.511 . S
C703 H717 0.961 . S
C703 H718 0.961 . S
C703 H719 0.961 . S
C704 C705 1.370 . S
C704 C706 1.363 . S
C704 H720 0.931 1_455 S
C705 C704 1.370 . S
C705 C709 1.408 . S
C706 C704 1.363 . S
C706 C707 1.370 . S
C706 C710 1.524 1_455 S
C707 C699 1.503 . S
C707 C706 1.370 . S
C707 C708 1.403 . S
C708 C707 1.403 . S
C708 C709 1.404 . S
C708 C711 1.539 . S
C709 C705 1.408 . S
C709 C708 1.404 . S
C709 H721 0.930 . S
C710 C706 1.524 1_655 S
C710 H722 0.956 . S
C710 H723 0.961 . S
C710 H724 0.961 . S
C711 C708 1.539 . S
C711 H725 0.958 . S
C711 H726 0.961 . S
C711 H727 0.960 . S
H712 C696 0.919 1_655 S
H713 C701 0.929 . S
H714 C702 0.960 . S
H715 C702 0.962 1_655 S
H716 C702 0.960 . S
H717 C703 0.961 . S
H718 C703 0.961 . S
H719 C703 0.961 . S
H720 C704 0.931 1_655 S
H721 C709 0.930 . S
H722 C710 0.956 . S
H723 C710 0.961 . S
H724 C710 0.961 . S
H725 C711 0.958 . S
H726 C711 0.961 . S
H727 C711 0.960 . S
C728 C729 1.387 1_565 S
C728 C730 1.394 1_565 S
C728 H744 0.931 . S
C729 C728 1.387 1_545 S
C729 C733 1.393 . S
C730 C728 1.394 1_545 S
C730 C731 1.369 . S
C730 C734 1.531 . S
C731 C730 1.369 . S
C731 C732 1.410 . S
C731 C739 1.503 . S
C732 C731 1.410 . S
C732 C733 1.392 . S
C732 C735 1.511 . S
C733 C729 1.393 . S
C733 C732 1.392 . S
C733 H745 0.929 . S
C734 C730 1.531 . S
C734 H746 0.960 . S
C734 H747 0.962 1_545 S
C734 H748 0.960 . S
C735 C732 1.511 . S
C735 H749 0.961 . S
C735 H750 0.961 . S
C735 H751 0.961 . S
C736 C737 1.370 . S
C736 C738 1.363 . S
C736 H752 0.924 1_545 S
C737 C736 1.370 . S
C737 C741 1.408 . S
C738 C736 1.363 . S
C738 C739 1.370 . S
C738 C742 1.524 1_545 S
C739 C731 1.503 . S
C739 C738 1.370 . S
C739 C740 1.403 . S
C740 C739 1.403 . S
C740 C741 1.404 . S
C740 C743 1.539 . S
C741 C737 1.408 . S
C741 C740 1.404 . S
C741 H753 0.930 . S
C742 C738 1.524 1_565 S
C742 H754 0.956 . S
C742 H755 0.961 . S
C742 H756 0.961 . S
C743 C740 1.539 . S
C743 H757 0.958 . S
C743 H758 0.961 . S
C743 H759 0.960 . S
H744 C728 0.931 . S
H745 C733 0.929 . S
H746 C734 0.960 . S
H747 C734 0.962 1_565 S
H748 C734 0.960 . S
H749 C735 0.961 . S
H750 C735 0.961 . S
H751 C735 0.961 . S
H752 C736 0.924 1_565 S
H753 C741 0.930 . S
H754 C742 0.956 . S
H755 C742 0.961 . S
H756 C742 0.961 . S
H757 C743 0.958 . S
H758 C743 0.961 . S
H759 C743 0.960 . S
C760 C761 1.391 . S
C760 C762 1.394 . S
C760 H776 0.931 . S
C761 C760 1.391 . S
C761 C765 1.376 . S
C762 C760 1.394 . S
C762 C763 1.369 . S
C762 C766 1.531 . S
C763 C762 1.369 . S
C763 C764 1.410 . S
C763 C771 1.503 . S
C764 C763 1.410 . S
C764 C765 1.392 . S
C764 C767 1.511 . S
C765 C761 1.376 . S
C765 C764 1.392 . S
C765 H777 0.929 . S
C766 C762 1.531 . S
C766 H778 0.960 . S
C766 H779 0.962 . S
C766 H780 0.960 . S
C767 C764 1.511 . S
C767 H781 0.961 . S
C767 H782 0.961 . S
C767 H783 0.961 . S
C768 C769 1.370 . S
C768 C770 1.363 . S
C768 H784 0.931 . S
C769 C768 1.370 . S
C769 C773 1.408 . S
C770 C768 1.363 . S
C770 C771 1.370 . S
C770 C774 1.524 . S
C771 C763 1.503 . S
C771 C770 1.370 . S
C771 C772 1.403 . S
C772 C771 1.403 . S
C772 C773 1.404 . S
C772 C775 1.539 . S
C773 C769 1.408 . S
C773 C772 1.404 . S
C773 H785 0.930 1_554 S
C774 C770 1.524 . S
C774 H786 0.956 . S
C774 H787 0.961 . S
C774 H788 0.961 . S
C775 C772 1.539 . S
C775 H789 0.958 . S
C775 H790 0.961 1_554 S
C775 H791 0.960 . S
H776 C760 0.931 . S
H777 C765 0.929 . S
H778 C766 0.960 . S
H779 C766 0.962 . S
H780 C766 0.960 . S
H781 C767 0.961 . S
H782 C767 0.961 . S
H783 C767 0.961 . S
H784 C768 0.931 . S
H785 C773 0.930 1_556 S
H786 C774 0.956 . S
H787 C774 0.961 . S
H788 C774 0.961 . S
H789 C775 0.958 . S
H790 C775 0.961 1_556 S
H791 C775 0.960 . S
C792 C793 1.391 . S
C792 C794 1.394 . S
C792 H808 0.931 . S
C793 C792 1.391 . S
C793 C797 1.376 . S
C794 C792 1.394 . S
C794 C795 1.369 . S
C794 C798 1.531 . S
C795 C794 1.369 . S
C795 C796 1.410 . S
C795 C803 1.503 . S
C796 C795 1.410 . S
C796 C797 1.392 . S
C796 C799 1.511 . S
C797 C793 1.376 . S
C797 C796 1.392 . S
C797 H809 0.929 . S
C798 C794 1.531 . S
C798 H810 0.960 . S
C798 H811 0.962 . S
C798 H812 0.960 . S
C799 C796 1.511 . S
C799 H813 0.961 . S
C799 H814 0.961 . S
C799 H815 0.961 . S
C800 C801 1.370 . S
C800 C802 1.363 . S
C800 H816 0.931 . S
C801 C800 1.370 . S
C801 C805 1.408 . S
C802 C800 1.363 . S
C802 C803 1.370 . S
C802 C806 1.524 . S
C803 C795 1.503 . S
C803 C802 1.370 . S
C803 C804 1.403 . S
C804 C803 1.403 . S
C804 C805 1.404 . S
C804 C807 1.539 . S
C805 C801 1.408 . S
C805 C804 1.404 . S
C805 H817 0.930 . S
C806 C802 1.524 . S
C806 H818 0.956 . S
C806 H819 0.961 . S
C806 H820 0.961 . S
C807 C804 1.539 . S
C807 H821 0.958 . S
C807 H822 0.961 . S
C807 H823 0.960 . S
H808 C792 0.931 . S
H809 C797 0.929 . S
H810 C798 0.960 . S
H811 C798 0.962 . S
H812 C798 0.960 . S
H813 C799 0.961 . S
H814 C799 0.961 . S
H815 C799 0.961 . S
H816 C800 0.931 . S
H817 C805 0.930 . S
H818 C806 0.956 . S
H819 C806 0.961 . S
H820 C806 0.961 . S
H821 C807 0.958 . S
H822 C807 0.961 . S
H823 C807 0.960 . S
C824 C825 1.391 . S
C824 C826 1.394 . S
C824 H840 0.931 . S
C825 C824 1.391 . S
C825 C829 1.376 1_455 S
C826 C824 1.394 . S
C826 C827 1.369 . S
C826 C830 1.531 . S
C827 C826 1.369 . S
C827 C828 1.410 1_455 S
C827 C835 1.503 . S
C828 C827 1.410 1_655 S
C828 C829 1.392 . S
C828 C831 1.511 . S
C829 C825 1.376 1_655 S
C829 C828 1.392 . S
C829 H841 0.929 . S
C830 C826 1.531 . S
C830 H842 0.960 . S
C830 H843 0.962 . S
C830 H844 0.960 . S
C831 C828 1.511 . S
C831 H845 0.961 . S
C831 H846 0.961 . S
C831 H847 0.961 . S
C832 C833 1.370 . S
C832 C834 1.363 . S
C832 H848 0.931 . S
C833 C832 1.370 . S
C833 C837 1.408 . S
C834 C832 1.363 . S
C834 C835 1.370 . S
C834 C838 1.524 . S
C835 C827 1.503 . S
C835 C834 1.370 . S
C835 C836 1.403 . S
C836 C835 1.403 . S
C836 C837 1.404 . S
C836 C839 1.539 1_556 S
C837 C833 1.408 . S
C837 C836 1.404 . S
C837 H849 0.930 . S
C838 C834 1.524 . S
C838 H850 0.956 . S
C838 H851 0.961 1_455 S
C838 H852 0.961 1_455 S
C839 C836 1.539 1_554 S
C839 H853 0.958 . S
C839 H854 0.961 . S
C839 H855 0.960 . S
H840 C824 0.931 . S
H841 C829 0.929 . S
H842 C830 0.960 . S
H843 C830 0.962 . S
H844 C830 0.960 . S
H845 C831 0.961 . S
H846 C831 0.961 . S
H847 C831 0.961 . S
H848 C832 0.931 . S
H849 C837 0.930 . S
H850 C838 0.956 . S
H851 C838 0.961 1_655 S
H852 C838 0.961 1_655 S
H853 C839 0.958 . S
H854 C839 0.961 . S
H855 C839 0.960 . S
C856 C857 1.391 1_565 S
C856 C858 1.394 . S
C856 H872 0.931 . S
C857 C856 1.391 1_545 S
C857 C861 1.376 . S
C858 C856 1.394 . S
C858 C859 1.369 1_565 S
C858 C862 1.531 . S
C859 C858 1.369 1_545 S
C859 C860 1.410 . S
C859 C867 1.503 . S
C860 C859 1.410 . S
C860 C861 1.392 . S
C860 C863 1.511 . S
C861 C857 1.376 . S
C861 C860 1.392 . S
C861 H873 0.929 . S
C862 C858 1.531 . S
C862 H874 0.960 . S
C862 H875 0.962 . S
C862 H876 0.960 . S
C863 C860 1.511 . S
C863 H877 0.961 . S
C863 H878 0.961 . S
C863 H879 0.961 . S
C864 C865 1.370 . S
C864 C866 1.363 . S
C864 H880 0.925 1_545 S
C865 C864 1.370 . S
C865 C869 1.408 . S
C866 C864 1.363 . S
C866 C867 1.370 . S
C866 C870 1.524 1_545 S
C867 C859 1.503 . S
C867 C866 1.370 . S
C867 C868 1.403 . S
C868 C867 1.403 . S
C868 C869 1.404 . S
C868 C871 1.539 . S
C869 C865 1.408 . S
C869 C868 1.404 . S
C869 H881 0.930 . S
C870 C866 1.524 1_565 S
C870 H882 0.956 . S
C870 H883 0.960 1_566 S
C870 H884 0.961 1_556 S
C871 C868 1.539 . S
C871 H885 0.958 . S
C871 H886 0.961 . S
C871 H887 0.960 . S
H872 C856 0.931 . S
H873 C861 0.929 . S
H874 C862 0.960 . S
H875 C862 0.962 . S
H876 C862 0.960 . S
H877 C863 0.961 . S
H878 C863 0.961 . S
H879 C863 0.961 . S
H880 C864 0.925 1_565 S
H881 C869 0.930 . S
H882 C870 0.956 . S
H883 C870 0.960 1_544 S
H884 C870 0.961 1_554 S
H885 C871 0.958 . S
H886 C871 0.961 . S
H887 C871 0.960 . S
C888 C889 1.391 . S
C888 C890 1.394 . S
C888 H904 0.931 . S
C889 C888 1.391 . S
C889 C893 1.376 . S
C890 C888 1.394 . S
C890 C891 1.369 . S
C890 C894 1.531 . S
C891 C890 1.369 . S
C891 C892 1.410 . S
C891 C899 1.503 . S
C892 C891 1.410 . S
C892 C893 1.392 . S
C892 C895 1.511 1_556 S
C893 C889 1.376 . S
C893 C892 1.392 . S
C893 H905 0.929 . S
C894 C890 1.531 . S
C894 H906 0.960 . S
C894 H907 0.962 . S
C894 H908 0.960 . S
C895 C892 1.511 1_554 S
C895 H909 0.961 . S
C895 H910 0.961 1_554 S
C895 H911 0.961 . S
C896 C897 1.370 . S
C896 C898 1.363 . S
C896 H912 0.931 . S
C897 C896 1.370 . S
C897 C901 1.408 . S
C898 C896 1.363 . S
C898 C899 1.370 . S
C898 C902 1.524 . S
C899 C891 1.503 . S
C899 C898 1.370 . S
C899 C900 1.403 . S
C900 C899 1.403 . S
C900 C901 1.404 . S
C900 C903 1.539 . S
C901 C897 1.408 . S
C901 C900 1.404 . S
C901 H913 0.930 . S
C902 C898 1.524 . S
C902 H914 0.956 . S
C902 H915 0.961 . S
C902 H916 0.961 . S
C903 C900 1.539 . S
C903 H917 0.958 . S
C903 H918 0.961 . S
C903 H919 0.960 . S
H904 C888 0.931 . S
H905 C893 0.929 . S
H906 C894 0.960 . S
H907 C894 0.962 . S
H908 C894 0.960 . S
H909 C895 0.961 . S
H910 C895 0.961 1_556 S
H911 C895 0.961 . S
H912 C896 0.931 . S
H913 C901 0.930 . S
H914 C902 0.956 . S
H915 C902 0.961 . S
H916 C902 0.961 . S
H917 C903 0.958 . S
H918 C903 0.961 . S
H919 C903 0.960 . S
C920 C921 1.391 . S
C920 C922 1.394 . S
C920 H936 0.931 . S
C921 C920 1.391 . S
C921 C925 1.376 . S
C922 C920 1.394 . S
C922 C923 1.369 . S
C922 C926 1.531 . S
C923 C922 1.369 . S
C923 C924 1.410 . S
C923 C931 1.503 . S
C924 C923 1.410 . S
C924 C925 1.392 . S
C924 C927 1.511 . S
C925 C921 1.376 . S
C925 C924 1.392 . S
C925 H937 0.929 . S
C926 C922 1.531 . S
C926 H938 0.960 . S
C926 H939 0.962 . S
C926 H940 0.960 . S
C927 C924 1.511 . S
C927 H941 0.961 . S
C927 H942 0.961 . S
C927 H943 0.961 . S
C928 C929 1.370 . S
C928 C930 1.363 . S
C928 H944 0.931 . S
C929 C928 1.370 . S
C929 C933 1.408 . S
C930 C928 1.363 . S
C930 C931 1.370 . S
C930 C934 1.524 . S
C931 C923 1.503 . S
C931 C930 1.370 . S
C931 C932 1.403 . S
C932 C931 1.403 . S
C932 C933 1.404 . S
C932 C935 1.539 . S
C933 C929 1.408 . S
C933 C932 1.404 . S
C933 H945 0.930 . S
C934 C930 1.524 . S
C934 H946 0.956 . S
C934 H947 0.961 . S
C934 H948 0.961 1_556 S
C935 C932 1.539 . S
C935 H949 0.958 . S
C935 H950 0.961 . S
C935 H951 0.960 . S
H936 C920 0.931 . S
H937 C925 0.929 . S
H938 C926 0.960 . S
H939 C926 0.962 . S
H940 C926 0.960 . S
H941 C927 0.961 . S
H942 C927 0.961 . S
H943 C927 0.961 . S
H944 C928 0.931 . S
H945 C933 0.930 . S
H946 C934 0.956 . S
H947 C934 0.961 . S
H948 C934 0.961 1_554 S
H949 C935 0.958 . S
H950 C935 0.961 . S
H951 C935 0.960 . S
C952 C953 1.390 1_655 S
C952 C954 1.394 . S
C952 H968 0.931 . S
C953 C952 1.390 1_455 S
C953 C957 1.377 . S
C954 C952 1.394 . S
C954 C955 1.366 1_655 S
C954 C958 1.531 . S
C955 C954 1.366 1_455 S
C955 C956 1.413 . S
C955 C963 1.501 1_455 S
C956 C955 1.413 . S
C956 C957 1.392 . S
C956 C959 1.511 . S
C957 C953 1.377 . S
C957 C956 1.392 . S
C957 H969 0.929 . S
C958 C954 1.531 . S
C958 H970 0.960 1_655 S
C958 H971 0.962 . S
C958 H972 0.960 . S
C959 C956 1.511 . S
C959 H973 0.961 . S
C959 H974 0.959 . S
C959 H975 0.961 . S
C960 C961 1.370 . S
C960 C962 1.363 . S
C960 H976 0.931 . S
C961 C960 1.370 . S
C961 C965 1.408 1_655 S
C962 C960 1.363 . S
C962 C963 1.370 . S
C962 C966 1.524 . S
C963 C955 1.501 1_655 S
C963 C962 1.370 . S
C963 C964 1.403 1_655 S
C964 C963 1.403 1_455 S
C964 C965 1.404 . S
C964 C967 1.539 . S
C965 C961 1.408 1_455 S
C965 C964 1.404 . S
C965 H977 0.930 . S
C966 C962 1.524 . S
C966 H978 0.956 . S
C966 H979 0.961 . S
C966 H980 0.961 . S
C967 C964 1.539 . S
C967 H981 0.958 . S
C967 H982 0.961 . S
C967 H983 0.960 . S
H968 C952 0.931 . S
H969 C957 0.929 . S
H970 C958 0.960 1_455 S
H971 C958 0.962 . S
H972 C958 0.960 . S
H973 C959 0.961 . S
H974 C959 0.959 . S
H975 C959 0.961 . S
H976 C960 0.931 . S
H977 C965 0.930 . S
H978 C966 0.956 . S
H979 C966 0.961 . S
H980 C966 0.961 . S
H981 C967 0.958 . S
H982 C967 0.961 . S
H983 C967 0.960 . S
C984 C985 1.391 1_545 S
C984 C986 1.394 . S
C984 H1000 0.931 . S
C985 C984 1.391 1_565 S
C985 C989 1.376 . S
C986 C984 1.394 . S
C986 C987 1.369 1_545 S
C986 C990 1.531 . S
C987 C986 1.369 1_565 S
C987 C988 1.410 . S
C987 C995 1.503 . S
C988 C987 1.410 . S
C988 C989 1.392 . S
C988 C991 1.511 . S
C989 C985 1.376 . S
C989 C988 1.392 . S
C989 H1001 0.929 . S
C990 C986 1.531 . S
C990 H1002 0.960 . S
C990 H1003 0.962 . S
C990 H1004 0.960 . S
C991 C988 1.511 . S
C991 H1005 0.961 . S
C991 H1006 0.961 . S
C991 H1007 0.961 . S
C992 C993 1.370 1_545 S
C992 C994 1.363 . S
C992 H1008 0.931 . S
C993 C992 1.370 1_565 S
C993 C997 1.408 . S
C994 C992 1.363 . S
C994 C995 1.370 1_545 S
C994 C998 1.524 . S
C995 C987 1.503 . S
C995 C994 1.370 1_565 S
C995 C996 1.403 . S
C996 C995 1.403 . S
C996 C997 1.404 . S
C996 C999 1.539 . S
C997 C993 1.408 . S
C997 C996 1.404 . S
C997 H1009 0.930 . S
C998 C994 1.524 . S
C998 H1010 0.956 . S
C998 H1011 0.961 . S
C998 H1012 0.961 . S
C999 C996 1.539 . S
C999 H1013 0.958 . S
C999 H1014 0.961 . S
C999 H1015 0.960 . S
H1000 C984 0.931 . S
H1001 C989 0.929 . S
H1002 C990 0.960 . S
H1003 C990 0.962 . S
H1004 C990 0.960 . S
H1005 C991 0.961 . S
H1006 C991 0.961 . S
H1007 C991 0.961 . S
H1008 C992 0.931 . S
H1009 C997 0.930 . S
H1010 C998 0.956 . S
H1011 C998 0.961 . S
H1012 C998 0.961 . S
H1013 C999 0.958 . S
H1014 C999 0.961 . S
H1015 C999 0.960 . S
C1016 C1017 1.391 . S
C1016 C1018 1.394 . S
C1016 H1032 0.931 . S
C1017 C1016 1.391 . S
C1017 C1021 1.376 . S
C1018 C1016 1.394 . S
C1018 C1019 1.369 . S
C1018 C1022 1.531 . S
C1019 C1018 1.369 . S
C1019 C1020 1.410 . S
C1019 C1027 1.503 . S
C1020 C1019 1.410 . S
C1020 C1021 1.392 . S
C1020 C1023 1.511 . S
C1021 C1017 1.376 . S
C1021 C1020 1.392 . S
C1021 H1033 0.929 . S
C1022 C1018 1.531 . S
C1022 H1034 0.960 . S
C1022 H1035 0.962 . S
C1022 H1036 0.960 . S
C1023 C1020 1.511 . S
C1023 H1037 0.961 . S
C1023 H1038 0.961 . S
C1023 H1039 0.961 . S
C1024 C1025 1.370 . S
C1024 C1026 1.363 . S
C1024 H1040 0.931 . S
C1025 C1024 1.370 . S
C1025 C1029 1.408 . S
C1026 C1024 1.363 . S
C1026 C1027 1.370 . S
C1026 C1030 1.524 . S
C1027 C1019 1.503 . S
C1027 C1026 1.370 . S
C1027 C1028 1.403 . S
C1028 C1027 1.403 . S
C1028 C1029 1.404 . S
C1028 C1031 1.539 . S
C1029 C1025 1.408 . S
C1029 C1028 1.404 . S
C1029 H1041 0.930 . S
C1030 C1026 1.524 . S
C1030 H1042 0.956 . S
C1030 H1043 0.961 . S
C1030 H1044 0.961 . S
C1031 C1028 1.539 . S
C1031 H1045 0.958 . S
C1031 H1046 0.961 . S
C1031 H1047 0.960 . S
H1032 C1016 0.931 . S
H1033 C1021 0.929 . S
H1034 C1022 0.960 . S
H1035 C1022 0.962 . S
H1036 C1022 0.960 . S
H1037 C1023 0.961 . S
H1038 C1023 0.961 . S
H1039 C1023 0.961 . S
H1040 C1024 0.931 . S
H1041 C1029 0.930 . S
H1042 C1030 0.956 . S
H1043 C1030 0.961 . S
H1044 C1030 0.961 . S
H1045 C1031 0.958 . S
H1046 C1031 0.961 . S
H1047 C1031 0.960 . S
C1048 C1049 1.391 . S
C1048 C1050 1.394 . S
C1048 H1064 0.931 . S
C1049 C1048 1.391 . S
C1049 C1053 1.376 . S
C1050 C1048 1.394 . S
C1050 C1051 1.369 . S
C1050 C1054 1.531 . S
C1051 C1050 1.369 . S
C1051 C1052 1.410 . S
C1051 C1059 1.503 . S
C1052 C1051 1.410 . S
C1052 C1053 1.392 . S
C1052 C1055 1.511 . S
C1053 C1049 1.376 . S
C1053 C1052 1.392 . S
C1053 H1065 0.929 . S
C1054 C1050 1.531 . S
C1054 H1066 0.960 . S
C1054 H1067 0.962 . S
C1054 H1068 0.960 . S
C1055 C1052 1.511 . S
C1055 H1069 0.961 . S
C1055 H1070 0.961 . S
C1055 H1071 0.961 . S
C1056 C1057 1.370 . S
C1056 C1058 1.363 . S
C1056 H1072 0.931 . S
C1057 C1056 1.370 . S
C1057 C1061 1.408 . S
C1058 C1056 1.363 . S
C1058 C1059 1.370 . S
C1058 C1062 1.524 . S
C1059 C1051 1.503 . S
C1059 C1058 1.370 . S
C1059 C1060 1.403 . S
C1060 C1059 1.403 . S
C1060 C1061 1.404 . S
C1060 C1063 1.539 . S
C1061 C1057 1.408 . S
C1061 C1060 1.404 . S
C1061 H1073 0.930 . S
C1062 C1058 1.524 . S
C1062 H1074 0.956 . S
C1062 H1075 0.961 . S
C1062 H1076 0.961 . S
C1063 C1060 1.539 . S
C1063 H1077 0.958 . S
C1063 H1078 0.961 . S
C1063 H1079 0.960 . S
H1064 C1048 0.931 . S
H1065 C1053 0.929 . S
H1066 C1054 0.960 . S
H1067 C1054 0.962 . S
H1068 C1054 0.960 . S
H1069 C1055 0.961 . S
H1070 C1055 0.961 . S
H1071 C1055 0.961 . S
H1072 C1056 0.931 . S
H1073 C1061 0.930 . S
H1074 C1062 0.956 . S
H1075 C1062 0.961 . S
H1076 C1062 0.961 . S
H1077 C1063 0.958 . S
H1078 C1063 0.961 . S
H1079 C1063 0.960 . S
C313 C125 1.912 1_545 S
C321 C161 1.945 1_545 S
C353 C201 1.959 . S
C345 C144 1.907 . S
C385 C241 1.955 . S
C377 C87 1.911 . S
C417 C281 1.953 1_455 S
C409 C106 1.898 . S
C449 C170 1.949 1_565 S
C441 C49 1.932 1_545 S
C473 C68 1.887 . S
C481 C210 1.965 . S
C505 C11 1.889 . S
C513 C250 1.963 . S
C537 C30 1.893 . S
C545 C290 1.961 1_655 S
C577 C167 0.524 . S
C569 C97 0.484 . S
C609 C207 0.519 . S
C601 C116 0.505 . S
C641 C247 0.501 . S
C633 C135 0.632 . S
C665 C78 0.630 . S
C673 C287 0.494 . S
C697 C21 0.515 1_455 S
C705 C158 0.555 . S
C737 C198 0.558 . S
C729 C40 0.504 1_545 S
C769 C238 0.528 . S
C761 C59 0.639 . S
C793 C2 0.471 . S
C801 C278 0.557 . S
C825 C101 2.028 1_455 S
C833 C171 2.276 . S
C857 C120 2.093 1_545 S
C865 C211 2.278 . S
C897 C251 2.277 . S
C889 C139 2.037 . S
C929 C291 2.279 . S
C921 C82 2.094 . S
C953 C25 2.072 1_455 S
C961 C162 2.282 . S
C993 C202 2.280 . S
C985 C44 2.027 . S
C1025 C242 2.277 . S
C1017 C63 2.025 . S
C1049 C6 2.044 . S
C1057 C282 2.291 . S
