# Generated by pormake.
# Topology apo, (3,6)-cn, num edge types: 1
# Building blocks:
#     Node 0, Type 0, BuildingBlock: KAKCAD_clean_linker_0, # of connection points: 3
#     Node 1, Type 0, BuildingBlock: KAKCAD_clean_linker_0, # of connection points: 3
#     Node 2, Type 0, BuildingBlock: KAKCAD_clean_linker_0, # of connection points: 3
#     Node 3, Type 0, BuildingBlock: KAKCAD_clean_linker_0, # of connection points: 3
#     Node 4, Type 0, BuildingBlock: KAKCAD_clean_linker_0, # of connection points: 3
#     Node 5, Type 0, BuildingBlock: KAKCAD_clean_linker_0, # of connection points: 3
#     Node 6, Type 0, BuildingBlock: KAKCAD_clean_linker_0, # of connection points: 3
#     Node 7, Type 0, BuildingBlock: KAKCAD_clean_linker_0, # of connection points: 3
#     Node 8, Type 1, BuildingBlock: KUMJIN_clean_sbu_1, # of connection points: 6
#     Node 9, Type 1, BuildingBlock: KUMJIN_clean_sbu_1, # of connection points: 6
#     Node 10, Type 1, BuildingBlock: KUMJIN_clean_sbu_1, # of connection points: 6
#     Node 11, Type 1, BuildingBlock: KUMJIN_clean_sbu_1, # of connection points: 6
#     Edge 12, Type (0, 1), BuildingBlock: ZUJKAS_clean_linker_0, # of connection points: 2
#     Edge 13, Type (0, 1), BuildingBlock: ZUJKAS_clean_linker_0, # of connection points: 2
#     Edge 14, Type (0, 1), BuildingBlock: ZUJKAS_clean_linker_0, # of connection points: 2
#     Edge 15, Type (0, 1), BuildingBlock: ZUJKAS_clean_linker_0, # of connection points: 2
#     Edge 16, Type (0, 1), BuildingBlock: ZUJKAS_clean_linker_0, # of connection points: 2
#     Edge 17, Type (0, 1), BuildingBlock: ZUJKAS_clean_linker_0, # of connection points: 2
#     Edge 18, Type (0, 1), BuildingBlock: ZUJKAS_clean_linker_0, # of connection points: 2
#     Edge 19, Type (0, 1), BuildingBlock: ZUJKAS_clean_linker_0, # of connection points: 2
#     Edge 20, Type (0, 1), BuildingBlock: ZUJKAS_clean_linker_0, # of connection points: 2
#     Edge 21, Type (0, 1), BuildingBlock: ZUJKAS_clean_linker_0, # of connection points: 2
#     Edge 22, Type (0, 1), BuildingBlock: ZUJKAS_clean_linker_0, # of connection points: 2
#     Edge 23, Type (0, 1), BuildingBlock: ZUJKAS_clean_linker_0, # of connection points: 2
#     Edge 24, Type (0, 1), BuildingBlock: ZUJKAS_clean_linker_0, # of connection points: 2
#     Edge 25, Type (0, 1), BuildingBlock: ZUJKAS_clean_linker_0, # of connection points: 2
#     Edge 26, Type (0, 1), BuildingBlock: ZUJKAS_clean_linker_0, # of connection points: 2
#     Edge 27, Type (0, 1), BuildingBlock: ZUJKAS_clean_linker_0, # of connection points: 2
#     Edge 28, Type (0, 1), BuildingBlock: ZUJKAS_clean_linker_0, # of connection points: 2
#     Edge 29, Type (0, 1), BuildingBlock: ZUJKAS_clean_linker_0, # of connection points: 2
#     Edge 30, Type (0, 1), BuildingBlock: ZUJKAS_clean_linker_0, # of connection points: 2
#     Edge 31, Type (0, 1), BuildingBlock: ZUJKAS_clean_linker_0, # of connection points: 2
#     Edge 32, Type (0, 1), BuildingBlock: ZUJKAS_clean_linker_0, # of connection points: 2
#     Edge 33, Type (0, 1), BuildingBlock: ZUJKAS_clean_linker_0, # of connection points: 2
#     Edge 34, Type (0, 1), BuildingBlock: ZUJKAS_clean_linker_0, # of connection points: 2
#     Edge 35, Type (0, 1), BuildingBlock: ZUJKAS_clean_linker_0, # of connection points: 2
# Relax obj value: 0.010
# Max RMSD: 0.087
# Mean RMSD: 0.069
data_MOF--net-apo--node1-KUMJIN_clean_sbu_1--node2-KAKCAD_clean_linker_0--edge1-ZUJKAS_clean_linker_0
_symmetry_space_group_name_H-M    P1
_symmetry_Int_Tables_number       1
_symmetry_cell_setting            triclinic
loop_
_symmetry_equiv_pos_as_xyz
'x, y, z'
_cell_length_a     36.175075
_cell_length_b     65.572411
_cell_length_c     77.797744
_cell_angle_alpha  89.952313
_cell_angle_beta   89.987749
_cell_angle_gamma 90.471821
loop_
_atom_site_label
_atom_site_type_symbol
_atom_site_fract_x
_atom_site_fract_y
_atom_site_fract_z
_atom_type_partial_charge
C0 C 0.28183 0.44753 0.37847 0.0
C1 C 0.31991 0.45224 0.3783 0.0
C2 C 0.26828 0.43098 0.38799 0.0
C3 C 0.29237 0.41904 0.39782 0.0
C4 C 0.33027 0.42375 0.39781 0.0
C5 C 0.34394 0.44002 0.38805 0.0
C6 C 0.27818 0.40163 0.40807 0.0
C7 C 0.25656 0.38635 0.40032 0.0
C8 C 0.24463 0.36922 0.40978 0.0
C9 C 0.2539 0.36785 0.42732 0.0
C10 C 0.27548 0.3831 0.43526 0.0
C11 C 0.28749 0.39991 0.42549 0.0
C12 C 0.28673 0.38125 0.45356 0.0
C13 C 0.26132 0.37505 0.46624 0.0
C14 C 0.32324 0.38582 0.45845 0.0
C15 C 0.33413 0.38431 0.47561 0.0
C16 C 0.30876 0.37829 0.48838 0.0
C17 C 0.22444 0.35231 0.40102 0.0
C18 C 0.19716 0.35646 0.38864 0.0
C19 C 0.23365 0.33188 0.40434 0.0
C20 C 0.21673 0.31603 0.39517 0.0
C21 C 0.19005 0.32023 0.38257 0.0
C22 C 0.18007 0.34059 0.37956 0.0
C23 C 0.27218 0.37364 0.48348 0.0
H24 H 0.2623 0.45674 0.37141 0.0
H25 H 0.23888 0.42771 0.38792 0.0
H26 H 0.34945 0.41459 0.40514 0.0
H27 H 0.37348 0.44278 0.38798 0.0
H28 H 0.25049 0.3874 0.3867 0.0
H29 H 0.30389 0.41185 0.43148 0.0
H30 H 0.24494 0.35471 0.43473 0.0
H31 H 0.23288 0.37162 0.46288 0.0
H32 H 0.34366 0.39028 0.44895 0.0
H33 H 0.36271 0.38756 0.47879 0.0
H34 H 0.1892 0.37201 0.38588 0.0
H35 H 0.25478 0.32814 0.41365 0.0
H36 H 0.25179 0.36918 0.49298 0.0
H37 H 0.15975 0.34428 0.36984 0.0
H38 H 0.22471 0.30046 0.39785 0.0
C39 C 0.22966 0.05247 0.87715 0.0
C40 C 0.19211 0.04698 0.87827 0.0
C41 C 0.24353 0.06906 0.88657 0.0
C42 C 0.22024 0.08016 0.89753 0.0
C43 C 0.18281 0.0744 0.89881 0.0
C44 C 0.16883 0.0581 0.88916 0.0
C45 C 0.23467 0.09777 0.9076 0.0
C46 C 0.25579 0.11318 0.89964 0.0
C47 C 0.26788 0.13043 0.90893 0.0
C48 C 0.25883 0.1319 0.92652 0.0
C49 C 0.23772 0.11657 0.9347 0.0
C50 C 0.22599 0.09956 0.92511 0.0
C51 C 0.22657 0.11852 0.95307 0.0
C52 C 0.25166 0.12555 0.96562 0.0
C53 C 0.19037 0.11329 0.95817 0.0
C54 C 0.17942 0.11519 0.9753 0.0
C55 C 0.20443 0.12221 0.98774 0.0
C56 C 0.2886 0.14719 0.90002 0.0
C57 C 0.31532 0.14272 0.88747 0.0
C58 C 0.28093 0.16779 0.9035 0.0
C59 C 0.29884 0.18345 0.89438 0.0
C60 C 0.32494 0.17895 0.88153 0.0
C61 C 0.33325 0.15835 0.87838 0.0
C62 C 0.24071 0.12726 0.98285 0.0
H63 H 0.24807 0.04416 0.86876 0.0
H64 H 0.27252 0.0731 0.88541 0.0
H65 H 0.16416 0.08274 0.90707 0.0
H66 H 0.1398 0.0541 0.89025 0.0
H67 H 0.26149 0.11209 0.886 0.0
H68 H 0.21021 0.08751 0.93132 0.0
H69 H 0.26776 0.14513 0.93381 0.0
H70 H 0.2798 0.12954 0.96215 0.0
H71 H 0.17021 0.10804 0.94885 0.0
H72 H 0.1513 0.11122 0.97886 0.0
H73 H 0.32247 0.12707 0.88465 0.0
H74 H 0.26019 0.17186 0.91291 0.0
H75 H 0.26037 0.13276 0.99231 0.0
H76 H 0.35373 0.15424 0.86887 0.0
H77 H 0.29131 0.19908 0.89705 0.0
C78 C 0.79027 0.05833 0.63395 0.0
C79 C 0.82512 0.05016 0.63013 0.0
C80 C 0.77636 0.07455 0.62437 0.0
C81 C 0.7972 0.08315 0.61091 0.0
C82 C 0.83214 0.07502 0.60716 0.0
C83 C 0.84578 0.05861 0.61655 0.0
C84 C 0.78268 0.10055 0.60081 0.0
C85 C 0.76256 0.11608 0.60884 0.0
C86 C 0.74913 0.13274 0.59937 0.0
C87 C 0.75692 0.13396 0.58167 0.0
C88 C 0.77801 0.11885 0.57362 0.0
C89 C 0.78986 0.102 0.58316 0.0
C90 C 0.78974 0.12094 0.5555 0.0
C91 C 0.7644 0.12596 0.54254 0.0
C92 C 0.82679 0.11747 0.55109 0.0
C93 C 0.83823 0.11857 0.53402 0.0
C94 C 0.81283 0.12302 0.52092 0.0
C95 C 0.72863 0.14921 0.60828 0.0
C96 C 0.70417 0.1445 0.62183 0.0
C97 C 0.73465 0.16981 0.6039 0.0
C98 C 0.71734 0.1853 0.61313 0.0
C99 C 0.69391 0.18044 0.62688 0.0
C100 C 0.68713 0.16001 0.63111 0.0
C101 C 0.77581 0.12691 0.52537 0.0
H102 H 0.77384 0.05239 0.64448 0.0
H103 H 0.74918 0.08027 0.62749 0.0
H104 H 0.84926 0.08144 0.59707 0.0
H105 H 0.87252 0.05253 0.61311 0.0
H106 H 0.75848 0.11556 0.62262 0.0
H107 H 0.80486 0.08997 0.57672 0.0
H108 H 0.74732 0.14683 0.57421 0.0
H109 H 0.73564 0.12863 0.54563 0.0
H110 H 0.84706 0.11398 0.56089 0.0
H111 H 0.86711 0.11604 0.53114 0.0
H112 H 0.69841 0.12882 0.62538 0.0
H113 H 0.75365 0.17404 0.59373 0.0
H114 H 0.75548 0.13024 0.51558 0.0
H115 H 0.66908 0.15608 0.64175 0.0
H116 H 0.72289 0.20108 0.6098 0.0
C117 C 0.72413 0.44464 0.13351 0.0
C118 C 0.68761 0.45125 0.13117 0.0
C119 C 0.73755 0.42801 0.12425 0.0
C120 C 0.7148 0.41779 0.11236 0.0
C121 C 0.67838 0.42451 0.10993 0.0
C122 C 0.6649 0.44102 0.11928 0.0
C123 C 0.72908 0.40026 0.1024 0.0
C124 C 0.74909 0.38477 0.11054 0.0
C125 C 0.76312 0.36813 0.10117 0.0
C126 C 0.75582 0.36712 0.08336 0.0
C127 C 0.73455 0.38215 0.07519 0.0
C128 C 0.72207 0.39884 0.08476 0.0
C129 C 0.72369 0.38015 0.05685 0.0
C130 C 0.74889 0.3735 0.04433 0.0
C131 C 0.68749 0.38499 0.05179 0.0
C132 C 0.67679 0.38342 0.03465 0.0
C133 C 0.70188 0.37683 0.0221 0.0
C134 C 0.78427 0.35169 0.11014 0.0
C135 C 0.80497 0.35608 0.12503 0.0
C136 C 0.7833 0.33137 0.10426 0.0
C137 C 0.8021 0.316 0.11306 0.0
C138 C 0.82157 0.32032 0.12832 0.0
C139 C 0.82271 0.34063 0.13412 0.0
C140 C 0.7381 0.3719 0.0271 0.0
H141 H 0.74216 0.45213 0.1427 0.0
H142 H 0.76583 0.42327 0.12626 0.0
H143 H 0.66014 0.41683 0.10094 0.0
H144 H 0.63673 0.44589 0.11711 0.0
H145 H 0.75262 0.38552 0.12434 0.0
H146 H 0.70693 0.4109 0.07842 0.0
H147 H 0.76608 0.35451 0.07583 0.0
H148 H 0.77703 0.36979 0.0478 0.0
H149 H 0.66721 0.38988 0.06113 0.0
H150 H 0.64885 0.38761 0.03119 0.0
H151 H 0.80751 0.3715 0.12986 0.0
H152 H 0.76742 0.32708 0.09303 0.0
H153 H 0.75799 0.36664 0.01772 0.0
H154 H 0.83672 0.34471 0.14593 0.0
H155 H 0.80107 0.3007 0.10788 0.0
C156 C 0.68864 0.56714 0.63511 0.0
C157 C 0.69207 0.54708 0.62896 0.0
C158 C 0.70226 0.58363 0.6256 0.0
C159 C 0.71956 0.58054 0.60965 0.0
C160 C 0.72266 0.56053 0.60336 0.0
C161 C 0.70914 0.54398 0.61293 0.0
C162 C 0.73388 0.59825 0.59965 0.0
C163 C 0.75285 0.61416 0.60802 0.0
C164 C 0.76438 0.63172 0.59905 0.0
C165 C 0.75719 0.63305 0.58131 0.0
C166 C 0.73849 0.61716 0.57265 0.0
C167 C 0.72718 0.59978 0.58193 0.0
C168 C 0.7285 0.61915 0.55419 0.0
C169 C 0.713 0.63732 0.54799 0.0
C170 C 0.73248 0.60259 0.54286 0.0
C171 C 0.72074 0.6041 0.52576 0.0
C172 C 0.70426 0.62207 0.51979 0.0
C173 C 0.78289 0.64877 0.60848 0.0
C174 C 0.77037 0.65441 0.6249 0.0
C175 C 0.8134 0.65926 0.60142 0.0
C176 C 0.83146 0.67467 0.61077 0.0
C177 C 0.81938 0.67997 0.62737 0.0
C178 C 0.78833 0.66977 0.6342 0.0
C179 C 0.70076 0.6387 0.53099 0.0
H180 H 0.67491 0.57018 0.6472 0.0
H181 H 0.69873 0.59889 0.63065 0.0
H182 H 0.73606 0.55765 0.59116 0.0
H183 H 0.7126 0.52873 0.60788 0.0
H184 H 0.75885 0.61278 0.62162 0.0
H185 H 0.71158 0.58785 0.5755 0.0
H186 H 0.76553 0.6466 0.57428 0.0
H187 H 0.70924 0.65027 0.55642 0.0
H188 H 0.74448 0.58843 0.54725 0.0
H189 H 0.72363 0.59106 0.51734 0.0
H190 H 0.74642 0.64702 0.63058 0.0
H191 H 0.82391 0.65521 0.58885 0.0
H192 H 0.68836 0.65275 0.5266 0.0
H193 H 0.7776 0.67375 0.64674 0.0
H194 H 0.85542 0.68209 0.60513 0.0
C195 C 0.77316 0.87178 0.02549 0.0
C196 C 0.80825 0.87903 0.02043 0.0
C197 C 0.76144 0.87362 0.04256 0.0
C198 C 0.78456 0.88276 0.05491 0.0
C199 C 0.81962 0.88995 0.04982 0.0
C200 C 0.8312 0.88824 0.0328 0.0
C201 C 0.77255 0.88494 0.07308 0.0
C202 C 0.75406 0.86896 0.08168 0.0
C203 C 0.74519 0.87062 0.09924 0.0
C204 C 0.75529 0.88853 0.10811 0.0
C205 C 0.77418 0.90451 0.09978 0.0
C206 C 0.78163 0.90276 0.08216 0.0
C207 C 0.78828 0.92242 0.10962 0.0
C208 C 0.76807 0.93051 0.12346 0.0
C209 C 0.823 0.93109 0.1056 0.0
C210 C 0.83708 0.9474 0.11514 0.0
C211 C 0.81712 0.95507 0.12908 0.0
C212 C 0.72721 0.85333 0.10862 0.0
C213 C 0.70001 0.84106 0.10071 0.0
C214 C 0.73725 0.84897 0.12569 0.0
C215 C 0.72032 0.83305 0.13468 0.0
C216 C 0.69335 0.82067 0.12679 0.0
C217 C 0.68335 0.82488 0.10967 0.0
C218 C 0.78258 0.94657 0.13321 0.0
H219 H 0.75493 0.86441 0.01633 0.0
H220 H 0.73418 0.86806 0.04605 0.0
H221 H 0.83841 0.89678 0.05904 0.0
H222 H 0.85815 0.89427 0.02935 0.0
H223 H 0.74809 0.85491 0.07487 0.0
H224 H 0.7949 0.91533 0.07546 0.0
H225 H 0.74916 0.88985 0.12168 0.0
H226 H 0.74105 0.92448 0.12678 0.0
H227 H 0.83983 0.925 0.09534 0.0
H228 H 0.86399 0.9537 0.11191 0.0
H229 H 0.69131 0.84405 0.08764 0.0
H230 H 0.75857 0.85773 0.13217 0.0
H231 H 0.7668 0.95243 0.14394 0.0
H232 H 0.66293 0.81556 0.10312 0.0
H233 H 0.72831 0.83055 0.14792 0.0
C234 C 0.18999 0.93106 0.36896 0.0
C235 C 0.18839 0.95068 0.3762 0.0
C236 C 0.20338 0.91464 0.37846 0.0
C237 C 0.21584 0.91739 0.39542 0.0
C238 C 0.21465 0.93704 0.40264 0.0
C239 C 0.20105 0.95349 0.39314 0.0
C240 C 0.22939 0.89969 0.40556 0.0
C241 C 0.2508 0.88461 0.39768 0.0
C242 C 0.26136 0.86692 0.40662 0.0
C243 C 0.25213 0.8652 0.42418 0.0
C244 C 0.23172 0.88053 0.43256 0.0
C245 C 0.21987 0.89746 0.42294 0.0
C246 C 0.22194 0.87887 0.45121 0.0
C247 C 0.21443 0.85985 0.45891 0.0
C248 C 0.21923 0.89651 0.46143 0.0
C249 C 0.20807 0.89526 0.47859 0.0
C250 C 0.20015 0.87629 0.48626 0.0
C251 C 0.28106 0.85021 0.39734 0.0
C252 C 0.2738 0.84654 0.37979 0.0
C253 C 0.30705 0.83774 0.40573 0.0
C254 C 0.32523 0.8222 0.3968 0.0
C255 C 0.31845 0.81915 0.37923 0.0
C256 C 0.29266 0.83143 0.37082 0.0
C257 C 0.20406 0.85857 0.47621 0.0
H258 H 0.18102 0.92836 0.35588 0.0
H259 H 0.20342 0.89969 0.37256 0.0
H260 H 0.22435 0.93975 0.41561 0.0
H261 H 0.19992 0.96834 0.39919 0.0
H262 H 0.25937 0.88677 0.38447 0.0
H263 H 0.20218 0.9087 0.42884 0.0
H264 H 0.26057 0.85187 0.43131 0.0
H265 H 0.21577 0.84589 0.45153 0.0
H266 H 0.22557 0.91143 0.45619 0.0
H267 H 0.205 0.90933 0.4857 0.0
H268 H 0.25322 0.8552 0.3729 0.0
H269 H 0.3139 0.84012 0.41912 0.0
H270 H 0.19902 0.84361 0.48166 0.0
H271 H 0.28667 0.82911 0.35731 0.0
H272 H 0.34512 0.81284 0.4035 0.0
C273 C 0.27506 0.62788 0.98115 0.0
C274 C 0.31121 0.62304 0.98615 0.0
C275 C 0.26485 0.62693 0.96379 0.0
C276 C 0.29056 0.62085 0.95127 0.0
C277 C 0.32679 0.61614 0.95642 0.0
C278 C 0.33703 0.61731 0.97369 0.0
C279 C 0.27977 0.61885 0.93293 0.0
C280 C 0.26024 0.6344 0.92449 0.0
C281 C 0.25176 0.63279 0.90686 0.0
C282 C 0.26257 0.61516 0.89789 0.0
C283 C 0.2822 0.59953 0.90611 0.0
C284 C 0.29035 0.60149 0.92366 0.0
C285 C 0.29554 0.58158 0.89623 0.0
C286 C 0.27343 0.5725 0.88344 0.0
C287 C 0.33104 0.57373 0.89924 0.0
C288 C 0.34425 0.55738 0.88959 0.0
C289 C 0.32238 0.54853 0.87661 0.0
C290 C 0.23295 0.64973 0.89753 0.0
C291 C 0.20456 0.66102 0.90532 0.0
C292 C 0.24321 0.65461 0.88056 0.0
C293 C 0.22502 0.6699 0.87147 0.0
C294 C 0.1963 0.68095 0.87913 0.0
C295 C 0.18654 0.67652 0.89624 0.0
C296 C 0.28674 0.5562 0.87372 0.0
H297 H 0.25484 0.63241 0.99065 0.0
H298 H 0.23673 0.63054 0.96019 0.0
H299 H 0.34731 0.61163 0.94705 0.0
H300 H 0.36508 0.61361 0.97735 0.0
H301 H 0.25305 0.64807 0.9315 0.0
H302 H 0.3048 0.58933 0.93023 0.0
H303 H 0.25623 0.61371 0.88434 0.0
H304 H 0.24574 0.57793 0.88097 0.0
H305 H 0.3491 0.58055 0.90877 0.0
H306 H 0.37202 0.55202 0.89197 0.0
H307 H 0.1957 0.65763 0.91832 0.0
H308 H 0.26562 0.64673 0.87426 0.0
H309 H 0.26902 0.54952 0.86397 0.0
H310 H 0.16439 0.68472 0.90247 0.0
H311 H 0.23378 0.67323 0.85845 0.0
Eu312 Eu 0.04747 0.13612 0.23831 0.0
C313 C 0.88083 0.1219 0.2587 0.0
N314 N 0.90053 0.13967 0.25888 0.0
C315 C 0.84893 0.15773 0.24731 0.0
C316 C 0.84404 0.12147 0.25274 0.0
C317 C 0.88524 0.15748 0.25343 0.0
C318 C 0.82821 0.13966 0.24698 0.0
C319 C 0.87766 0.08547 0.2644 0.0
C320 C 0.89768 0.10402 0.26435 0.0
C321 C 0.84091 0.08506 0.25857 0.0
C322 C 0.82419 0.10297 0.25274 0.0
Eu323 Eu 0.96017 0.1377 0.2707 0.0
N324 N 0.93353 0.10476 0.26977 0.0
C325 C 0.895 0.06791 0.27054 0.0
C326 C 0.94987 0.0879 0.27652 0.0
C327 C 0.93114 0.06918 0.27675 0.0
H328 H 0.90068 0.17162 0.2542 0.0
H329 H 0.94437 0.0558 0.282 0.0
H330 H 0.10606 0.10173 0.25495 0.0
H331 H 0.06779 0.21716 0.22457 0.0
H332 H 0.97681 0.08887 0.28225 0.0
H333 H 0.88048 0.05339 0.27085 0.0
H334 H 0.0336 0.18462 0.22538 0.0
H335 H 0.83681 0.1719 0.24303 0.0
H336 H 0.82511 0.07095 0.25857 0.0
H337 H 0.79582 0.10238 0.24829 0.0
H338 H 0.17008 0.10076 0.2658 0.0
H339 H 0.79999 0.13994 0.24233 0.0
H340 H 0.1322 0.21889 0.23515 0.0
N341 N 0.10763 0.13353 0.2496 0.0
C342 C 0.12846 0.15088 0.24905 0.0
C343 C 0.15864 0.11498 0.26124 0.0
C344 C 0.16543 0.15091 0.2548 0.0
C345 C 0.12218 0.11564 0.25534 0.0
C346 C 0.18035 0.13268 0.261 0.0
N347 N 0.07659 0.16843 0.23778 0.0
C348 C 0.06085 0.18534 0.23081 0.0
C349 C 0.13358 0.18698 0.24231 0.0
C350 C 0.11259 0.16877 0.24293 0.0
C351 C 0.11696 0.20462 0.23589 0.0
C352 C 0.08054 0.20374 0.23 0.0
H353 H 0.20865 0.13209 0.26552 0.0
H354 H 0.21475 0.16934 0.25855 0.0
H355 H 0.18695 0.20086 0.24757 0.0
O356 O 0.0493 0.14054 0.20972 0.0
O357 O 0.05621 0.15255 0.26402 0.0
O358 O 0.99873 0.16486 0.27129 0.0
O359 O 0.08427 0.11839 0.22281 0.0
O360 O 0.99535 0.15258 0.22969 0.0
O361 O 0.96942 0.16595 0.25448 0.0
O362 O 0.95839 0.13199 0.29855 0.0
O363 O 0.95192 0.12355 0.24426 0.0
O364 O 0.00829 0.10921 0.23911 0.0
O365 O 0.91917 0.15245 0.28678 0.0
O366 O 0.01289 0.12224 0.27992 0.0
O367 O 0.03787 0.10863 0.25526 0.0
C368 C 0.03481 0.16466 0.2731 0.0
C369 C 0.09538 0.1212 0.1925 0.0
C370 C 0.10303 0.12014 0.16128 0.0
C371 C 0.13605 0.10935 0.16348 0.0
C372 C 0.12881 0.11053 0.19422 0.0
C373 C 0.14887 0.10468 0.17983 0.0
C374 C 0.08264 0.12627 0.17585 0.0
C375 C 0.97425 0.16584 0.2377 0.0
C376 C 0.07532 0.12696 0.20837 0.0
C377 C 0.18629 0.16905 0.25422 0.0
C378 C 0.17043 0.18701 0.24798 0.0
C379 C 0.97282 0.11047 0.23621 0.0
C380 C 0.92922 0.1564 0.31674 0.0
C381 C 0.91764 0.15792 0.34757 0.0
C382 C 0.91579 0.17924 0.34653 0.0
C383 C 0.92783 0.1778 0.31596 0.0
C384 C 0.92466 0.14653 0.33268 0.0
C385 C 0.92121 0.18911 0.33082 0.0
C386 C 0.03522 0.10955 0.27206 0.0
C387 C 0.9304 0.14404 0.30097 0.0
H388 H 0.15227 0.10475 0.15245 0.0
H389 H 0.13973 0.10672 0.20677 0.0
H390 H 0.17455 0.09652 0.18136 0.0
H391 H 0.05724 0.13471 0.17424 0.0
H392 H 0.90986 0.18821 0.35788 0.0
H393 H 0.9308 0.18573 0.30381 0.0
H394 H 0.92494 0.13 0.33337 0.0
H395 H 0.91951 0.20556 0.3301 0.0
Eu396 Eu 0.46469 0.36258 0.73796 0.0
C397 C 0.63241 0.37926 0.75895 0.0
N398 N 0.61319 0.36133 0.75929 0.0
C399 C 0.66666 0.34355 0.74912 0.0
C400 C 0.66925 0.38007 0.75296 0.0
C401 C 0.63047 0.34348 0.75541 0.0
C402 C 0.68594 0.36198 0.7476 0.0
C403 C 0.63668 0.415 0.76708 0.0
C404 C 0.61641 0.39658 0.76597 0.0
C405 C 0.67264 0.41605 0.76034 0.0
C406 C 0.68888 0.39863 0.7533 0.0
Eu407 Eu 0.55283 0.36287 0.77106 0.0
N408 N 0.58159 0.39518 0.77248 0.0
C409 C 0.62062 0.43165 0.77542 0.0
C410 C 0.56686 0.41087 0.78166 0.0
C411 C 0.58576 0.42948 0.78295 0.0
H412 H 0.61709 0.32908 0.75791 0.0
H413 H 0.57363 0.44204 0.78993 0.0
H414 H 0.40607 0.39779 0.75299 0.0
H415 H 0.44245 0.2811 0.72597 0.0
H416 H 0.54061 0.40896 0.78801 0.0
H417 H 0.63535 0.44605 0.77655 0.0
H418 H 0.47776 0.31324 0.7262 0.0
H419 H 0.68001 0.32934 0.74591 0.0
H420 H 0.68852 0.43011 0.76096 0.0
H421 H 0.71709 0.39953 0.74866 0.0
H422 H 0.34245 0.39945 0.76412 0.0
H423 H 0.71424 0.36195 0.74304 0.0
H424 H 0.37823 0.28014 0.73681 0.0
N425 N 0.405 0.36565 0.74964 0.0
C426 C 0.38403 0.34835 0.74972 0.0
C427 C 0.35392 0.38495 0.76032 0.0
C428 C 0.34706 0.34871 0.75551 0.0
C429 C 0.39027 0.3839 0.75432 0.0
C430 C 0.33226 0.36726 0.76102 0.0
N431 N 0.43486 0.33038 0.73787 0.0
C432 C 0.45023 0.31308 0.73139 0.0
C433 C 0.37789 0.31218 0.7435 0.0
C434 C 0.39931 0.33027 0.74369 0.0
C435 C 0.39382 0.29432 0.73719 0.0
C436 C 0.43009 0.29479 0.73108 0.0
H437 H 0.30397 0.36815 0.76551 0.0
H438 H 0.29737 0.33071 0.75972 0.0
H439 H 0.32434 0.29876 0.74926 0.0
O440 O 0.44419 0.35591 0.71194 0.0
O441 O 0.4589 0.34739 0.76426 0.0
O442 O 0.51709 0.33449 0.76896 0.0
O443 O 0.44142 0.38701 0.72227 0.0
O444 O 0.51386 0.34449 0.72901 0.0
O445 O 0.55327 0.33629 0.75183 0.0
O446 O 0.54306 0.36299 0.79917 0.0
O447 O 0.54608 0.38935 0.7525 0.0
O448 O 0.52171 0.3727 0.72944 0.0
O449 O 0.59558 0.35333 0.78873 0.0
O450 O 0.49808 0.37667 0.77903 0.0
O451 O 0.47273 0.39072 0.75455 0.0
C452 C 0.48126 0.33424 0.77157 0.0
C453 C 0.4178 0.38194 0.69322 0.0
C454 C 0.40817 0.3796 0.66219 0.0
C455 C 0.38599 0.39704 0.66295 0.0
C456 C 0.39555 0.39938 0.69359 0.0
C457 C 0.37963 0.40679 0.67855 0.0
C458 C 0.42387 0.37187 0.67741 0.0
C459 C 0.54111 0.33398 0.73585 0.0
C460 C 0.4349 0.37481 0.70935 0.0
C461 C 0.32583 0.33069 0.75536 0.0
C462 C 0.34119 0.3125 0.74939 0.0
C463 C 0.54003 0.38812 0.73593 0.0
C464 C 0.58567 0.34582 0.81822 0.0
C465 C 0.59807 0.34672 0.84899 0.0
C466 C 0.61366 0.32724 0.84791 0.0
C467 C 0.60127 0.32628 0.81736 0.0
C468 C 0.5841 0.356 0.83411 0.0
C469 C 0.61521 0.31709 0.83218 0.0
C470 C 0.47926 0.39107 0.77121 0.0
C471 C 0.57666 0.35719 0.80249 0.0
H472 H 0.37357 0.40313 0.65137 0.0
H473 H 0.39033 0.40728 0.70556 0.0
H474 H 0.36243 0.4202 0.67896 0.0
H475 H 0.44117 0.35847 0.67687 0.0
H476 H 0.62532 0.32009 0.85922 0.0
H477 H 0.60371 0.31841 0.80519 0.0
H478 H 0.57316 0.37133 0.83482 0.0
H479 H 0.6279 0.30223 0.83142 0.0
Eu480 Eu 0.05397 0.86278 0.73687 0.0
C481 C 0.8819 0.84702 0.76017 0.0
N482 N 0.9016 0.86475 0.76002 0.0
C483 C 0.84804 0.88282 0.75019 0.0
C484 C 0.84477 0.84641 0.75458 0.0
C485 C 0.88462 0.88271 0.75594 0.0
C486 C 0.82819 0.86454 0.74923 0.0
C487 C 0.87776 0.81129 0.76816 0.0
C488 C 0.89806 0.82969 0.767 0.0
C489 C 0.84141 0.81039 0.76184 0.0
C490 C 0.82494 0.82792 0.75509 0.0
Eu491 Eu 0.96367 0.86274 0.76989 0.0
N492 N 0.93319 0.83101 0.77312 0.0
C493 C 0.89429 0.79445 0.77602 0.0
C494 C 0.94876 0.81499 0.7816 0.0
C495 C 0.92979 0.79639 0.78295 0.0
H496 H 0.89926 0.89708 0.75712 0.0
H497 H 0.94249 0.78358 0.78936 0.0
H498 H 0.1096 0.82726 0.75415 0.0
H499 H 0.09183 0.93974 0.71517 0.0
H500 H 0.97603 0.81654 0.78709 0.0
H501 H 0.8796 0.78004 0.77714 0.0
H502 H 0.05528 0.90799 0.71552 0.0
H503 H 0.8351 0.89705 0.74665 0.0
H504 H 0.82549 0.79635 0.7625 0.0
H505 H 0.79653 0.82714 0.75071 0.0
H506 H 0.1699 0.82551 0.76873 0.0
H507 H 0.79972 0.8647 0.7449 0.0
H508 H 0.14975 0.94216 0.73194 0.0
N509 N 0.11258 0.85926 0.74999 0.0
C510 C 0.13436 0.87626 0.75048 0.0
C511 C 0.16002 0.83995 0.76388 0.0
C512 C 0.1695 0.87586 0.75833 0.0
C513 C 0.12549 0.84107 0.75588 0.0
C514 C 0.18194 0.85748 0.76532 0.0
N515 N 0.08892 0.89345 0.73424 0.0
C516 C 0.07896 0.90928 0.72386 0.0
C517 C 0.14483 0.91147 0.74204 0.0
C518 C 0.12208 0.89388 0.74247 0.0
C519 C 0.13303 0.9284 0.73262 0.0
C520 C 0.10029 0.92713 0.72321 0.0
H521 H 0.20882 0.85654 0.7714 0.0
H522 H 0.21846 0.89362 0.76461 0.0
H523 H 0.19687 0.92478 0.75033 0.0
O524 O 0.06767 0.86779 0.70968 0.0
O525 O 0.06132 0.87731 0.76313 0.0
O526 O 0.00301 0.88976 0.76697 0.0
O527 O 0.07962 0.83847 0.72179 0.0
O528 O 0.01232 0.88753 0.73121 0.0
O529 O 0.95708 0.88299 0.74652 0.0
O530 O 0.96382 0.85993 0.79852 0.0
O531 O 0.96958 0.83569 0.75194 0.0
O532 O 0.99631 0.85208 0.72916 0.0
O533 O 0.93229 0.88352 0.78539 0.0
O534 O 0.01843 0.8498 0.77853 0.0
O535 O 0.04367 0.83515 0.75423 0.0
C536 C 0.03829 0.88965 0.77086 0.0
C537 C 0.09704 0.84226 0.69159 0.0
C538 C 0.10626 0.84502 0.66052 0.0
C539 C 0.1283 0.82751 0.66107 0.0
C540 C 0.11919 0.82478 0.69173 0.0
C541 C 0.13482 0.81755 0.67658 0.0
C542 C 0.0909 0.85258 0.67587 0.0
C543 C 0.97756 0.89186 0.73464 0.0
C544 C 0.08146 0.84969 0.70796 0.0
C545 C 0.19149 0.89361 0.75855 0.0
C546 C 0.17918 0.91137 0.75044 0.0
C547 C 0.97855 0.8363 0.73559 0.0
C548 C 0.92818 0.88434 0.81612 0.0
C549 C 0.91444 0.88261 0.84672 0.0
C550 C 0.89981 0.90233 0.84597 0.0
C551 C 0.91338 0.90413 0.81571 0.0
C552 C 0.92878 0.87352 0.83178 0.0
C553 C 0.89934 0.91302 0.83054 0.0
C554 C 0.03822 0.8356 0.77103 0.0
C555 C 0.94151 0.87535 0.79991 0.0
H556 H 0.14075 0.82162 0.64944 0.0
H557 H 0.12477 0.81677 0.70363 0.0
H558 H 0.15209 0.80415 0.67684 0.0
H559 H 0.07401 0.86615 0.67552 0.0
H560 H 0.88853 0.90942 0.85739 0.0
H561 H 0.91252 0.91282 0.80387 0.0
H562 H 0.93975 0.8582 0.83231 0.0
H563 H 0.88789 0.92821 0.83006 0.0
Eu564 Eu 0.46056 0.63961 0.23635 0.0
C565 C 0.62894 0.6507 0.25968 0.0
N566 N 0.60802 0.63341 0.25881 0.0
C567 C 0.65901 0.61505 0.24696 0.0
C568 C 0.66596 0.65081 0.25398 0.0
C569 C 0.62246 0.61566 0.25276 0.0
C570 C 0.68085 0.63271 0.24755 0.0
C571 C 0.634 0.68671 0.26676 0.0
C572 C 0.61303 0.6685 0.26594 0.0
C573 C 0.67093 0.68681 0.26117 0.0
C574 C 0.68684 0.66893 0.2548 0.0
Eu575 Eu 0.54737 0.63596 0.26949 0.0
N576 N 0.57686 0.66813 0.27084 0.0
C577 C 0.61719 0.70429 0.27315 0.0
C578 C 0.56086 0.68499 0.27772 0.0
C579 C 0.58056 0.70338 0.27878 0.0
H580 H 0.60606 0.60183 0.25272 0.0
H581 H 0.56761 0.71677 0.28413 0.0
H582 H 0.40225 0.67334 0.25417 0.0
H583 H 0.43916 0.55983 0.21901 0.0
H584 H 0.53331 0.68425 0.28281 0.0
H585 H 0.63239 0.71857 0.274 0.0
H586 H 0.47364 0.59232 0.22124 0.0
H587 H 0.67038 0.60095 0.24216 0.0
H588 H 0.68742 0.70066 0.2617 0.0
H589 H 0.71533 0.6693 0.25049 0.0
H590 H 0.33841 0.67382 0.26532 0.0
H591 H 0.70918 0.63218 0.24306 0.0
H592 H 0.37477 0.55758 0.22964 0.0
N593 N 0.40011 0.64195 0.24736 0.0
C594 C 0.37909 0.62472 0.24618 0.0
C595 C 0.34958 0.65989 0.26006 0.0
C596 C 0.34228 0.62442 0.25214 0.0
C597 C 0.38589 0.6595 0.25393 0.0
C598 C 0.32769 0.64227 0.2592 0.0
N599 N 0.43087 0.60762 0.23442 0.0
C600 C 0.44643 0.59118 0.22668 0.0
C601 C 0.37363 0.58904 0.23806 0.0
C602 C 0.39476 0.60714 0.23937 0.0
C603 C 0.39011 0.57176 0.23093 0.0
C604 C 0.42655 0.57291 0.22504 0.0
H605 H 0.29955 0.64264 0.26395 0.0
H606 H 0.29298 0.60584 0.25549 0.0
H607 H 0.32029 0.57496 0.24305 0.0
O608 O 0.46106 0.6362 0.20805 0.0
O609 O 0.45041 0.62224 0.26141 0.0
O610 O 0.50761 0.60942 0.26749 0.0
O611 O 0.42397 0.65784 0.22053 0.0
O612 O 0.51301 0.62377 0.22719 0.0
O613 O 0.53783 0.60927 0.25164 0.0
O614 O 0.5475 0.63935 0.29794 0.0
O615 O 0.55714 0.65333 0.2443 0.0
O616 O 0.49983 0.66625 0.23857 0.0
O617 O 0.58288 0.61712 0.2851 0.0
O618 O 0.49487 0.65149 0.27869 0.0
O619 O 0.46975 0.66633 0.25441 0.0
C620 C 0.47199 0.61019 0.27035 0.0
C621 C 0.41952 0.65596 0.18945 0.0
C622 C 0.41148 0.65187 0.15843 0.0
C623 C 0.38762 0.66865 0.15839 0.0
C624 C 0.39542 0.67267 0.18897 0.0
C625 C 0.37961 0.67891 0.17356 0.0
C626 C 0.42737 0.64539 0.17404 0.0
C627 C 0.53487 0.61065 0.23486 0.0
C628 C 0.43492 0.64961 0.20622 0.0
C629 C 0.3213 0.60635 0.25097 0.0
C630 C 0.33688 0.58875 0.2439 0.0
C631 C 0.53543 0.66568 0.23567 0.0
C632 C 0.58708 0.61752 0.31603 0.0
C633 C 0.59945 0.62089 0.34674 0.0
C634 C 0.61688 0.60186 0.34655 0.0
C635 C 0.60469 0.59847 0.31624 0.0
C636 C 0.58429 0.62878 0.33145 0.0
C637 C 0.6194 0.59073 0.3314 0.0
C638 C 0.47355 0.66502 0.27121 0.0
C639 C 0.5722 0.62508 0.29954 0.0
H640 H 0.37482 0.67371 0.14655 0.0
H641 H 0.3886 0.68096 0.20057 0.0
H642 H 0.36098 0.69174 0.17337 0.0
H643 H 0.44554 0.63233 0.17417 0.0
H644 H 0.62864 0.59561 0.35822 0.0
H645 H 0.60705 0.58943 0.30465 0.0
H646 H 0.5709 0.6435 0.33154 0.0
H647 H 0.63289 0.57606 0.3314 0.0
H648 H 0.21317 0.9904 0.37518 0.0
H649 H 0.18794 0.01866 0.35842 0.0
H650 H 0.10542 0.97823 0.33701 0.0
H651 H 0.12918 0.95021 0.35428 0.0
H652 H 0.18213 0.02272 0.32356 0.0
H653 H 0.04284 0.02518 0.35311 0.0
H654 H 0.08049 0.01121 0.36258 0.0
H655 H 0.0542 0.00035 0.34515 0.0
C656 C 0.18925 0.98759 0.36714 0.0
C657 C 0.17317 0.96801 0.36613 0.0
C658 C 0.17505 0.00373 0.35747 0.0
C659 C 0.14445 0.00063 0.34666 0.0
C660 C 0.12855 0.98109 0.34553 0.0
H661 H 0.03706 0.06876 0.26628 0.0
H662 H 0.06585 0.04265 0.28447 0.0
C663 C 0.14255 0.965 0.35524 0.0
C664 C 0.12978 0.0176 0.33614 0.0
H665 H 0.05078 0.04359 0.32684 0.0
C666 C 0.15351 0.0274 0.32439 0.0
C667 C 0.09243 0.02378 0.3373 0.0
C668 C 0.06611 0.01473 0.35034 0.0
C669 C 0.14056 0.04281 0.31344 0.0
C670 C 0.10309 0.04848 0.31431 0.0
C671 C 0.07948 0.03899 0.32619 0.0
C672 C 0.0877 0.06427 0.30292 0.0
C673 C 0.16666 0.05282 0.30082 0.0
C674 C 0.09053 0.08492 0.30741 0.0
C675 C 0.0735 0.09975 0.29728 0.0
C676 C 0.05406 0.09406 0.28242 0.0
C677 C 0.05217 0.07343 0.27767 0.0
C678 C 0.0685 0.05858 0.288 0.0
H679 H 0.19453 0.04584 0.30102 0.0
H680 H 0.1552 0.05166 0.28761 0.0
H681 H 0.16945 0.06928 0.30393 0.0
H682 H 0.10535 0.08951 0.31889 0.0
H683 H 0.07559 0.11564 0.301 0.0
H684 H 0.31658 0.54393 0.84178 0.0
H685 H 0.34258 0.51686 0.82395 0.0
H686 H 0.38873 0.48861 0.86908 0.0
H687 H 0.36214 0.51537 0.88707 0.0
H688 H 0.41874 0.50647 0.82119 0.0
H689 H 0.33324 0.4415 0.84489 0.0
H690 H 0.32069 0.46776 0.84846 0.0
H691 H 0.35608 0.45617 0.8613 0.0
C692 C 0.33176 0.53178 0.84795 0.0
C693 C 0.33716 0.53175 0.86586 0.0
C694 C 0.3468 0.51642 0.83773 0.0
C695 C 0.36722 0.50064 0.84522 0.0
C696 C 0.3726 0.5005 0.86308 0.0
H697 H 0.47795 0.39381 0.80622 0.0
H698 H 0.45265 0.42114 0.82376 0.0
C699 C 0.35768 0.5159 0.87331 0.0
C700 C 0.38387 0.4847 0.83427 0.0
H701 H 0.38257 0.43358 0.82616 0.0
C702 C 0.41078 0.49053 0.82219 0.0
C703 C 0.37353 0.46394 0.83573 0.0
C704 C 0.34409 0.45691 0.84818 0.0
C705 C 0.42815 0.47607 0.8117 0.0
C706 C 0.41757 0.4553 0.81304 0.0
C707 C 0.39062 0.4495 0.82513 0.0
C708 C 0.43421 0.43922 0.80217 0.0
C709 C 0.45834 0.48313 0.79964 0.0
C710 C 0.43229 0.44028 0.78416 0.0
C711 C 0.44733 0.4248 0.77405 0.0
C712 C 0.46371 0.40771 0.78177 0.0
C713 C 0.46541 0.40669 0.79982 0.0
C714 C 0.4509 0.42229 0.80989 0.0
H715 H 0.47031 0.49803 0.80369 0.0
H716 H 0.48093 0.4718 0.7989 0.0
H717 H 0.44662 0.48511 0.78657 0.0
H718 H 0.41882 0.45297 0.77791 0.0
H719 H 0.44596 0.42622 0.7602 0.0
H720 H 0.65619 0.51253 0.61753 0.0
H721 H 0.63059 0.48458 0.63487 0.0
H722 H 0.66929 0.51417 0.68101 0.0
H723 H 0.69565 0.5419 0.66385 0.0
H724 H 0.6675 0.45835 0.66003 0.0
H725 H 0.55604 0.50543 0.68844 0.0
H726 H 0.58066 0.51282 0.66919 0.0
H727 H 0.60177 0.51622 0.68989 0.0
C728 C 0.65968 0.51299 0.63135 0.0
C729 C 0.6777 0.5296 0.6393 0.0
C730 C 0.64487 0.49705 0.64123 0.0
C731 C 0.64757 0.49751 0.65921 0.0
C732 C 0.66631 0.51375 0.66715 0.0
H733 H 0.5736 0.42419 0.7447 0.0
H734 H 0.60077 0.4497 0.72556 0.0
C735 C 0.68124 0.52962 0.65732 0.0
C736 C 0.63053 0.48115 0.66977 0.0
H737 H 0.56444 0.47249 0.7003 0.0
C738 C 0.64478 0.46135 0.66875 0.0
C739 C 0.60094 0.48519 0.68111 0.0
C740 C 0.58365 0.50601 0.68218 0.0
C741 C 0.63085 0.44556 0.67919 0.0
C742 C 0.60151 0.44967 0.69067 0.0
C743 C 0.587 0.46942 0.69151 0.0
C744 C 0.58582 0.43379 0.70218 0.0
C745 C 0.64837 0.42478 0.67826 0.0
C746 C 0.56807 0.41647 0.6954 0.0
C747 C 0.55309 0.40165 0.70636 0.0
C748 C 0.55538 0.40396 0.72431 0.0
C749 C 0.57235 0.4216 0.73101 0.0
C750 C 0.58757 0.43631 0.72006 0.0
H751 H 0.67547 0.42527 0.67154 0.0
H752 H 0.65244 0.41841 0.69135 0.0
H753 H 0.62984 0.41425 0.67109 0.0
H754 H 0.56555 0.41449 0.68163 0.0
H755 H 0.53975 0.38839 0.70075 0.0
H756 H 0.82823 0.99453 0.11972 0.0
H757 H 0.85517 0.02204 0.13734 0.0
H758 H 0.86914 0.97981 0.17935 0.0
H759 H 0.84161 0.95243 0.16187 0.0
H760 H 0.8278 0.03427 0.17252 0.0
H761 H 0.97363 0.00817 0.1702 0.0
H762 H 0.9396 0.0006 0.1544 0.0
H763 H 0.93934 0.98907 0.17532 0.0
C764 C 0.83708 0.99125 0.13273 0.0
C765 C 0.83291 0.97158 0.13959 0.0
C766 C 0.85239 0.00686 0.14273 0.0
C767 C 0.86432 0.00281 0.15953 0.0
C768 C 0.86028 0.98311 0.16635 0.0
H769 H 0.97199 0.06963 0.24088 0.0
H770 H 0.94341 0.04391 0.2221 0.0
C771 C 0.84448 0.96759 0.15645 0.0
C772 C 0.88022 0.01928 0.17015 0.0
H773 H 0.96013 0.03518 0.18929 0.0
C774 C 0.85675 0.03462 0.17614 0.0
C775 C 0.91793 0.0195 0.1748 0.0
C776 C 0.94429 0.00356 0.16828 0.0
C777 C 0.86986 0.04997 0.18716 0.0
C778 C 0.90763 0.05018 0.19191 0.0
C779 C 0.93117 0.03494 0.18567 0.0
C780 C 0.9233 0.06584 0.20354 0.0
C781 C 0.84287 0.06537 0.19408 0.0
C782 C 0.92131 0.08665 0.19936 0.0
C783 C 0.93665 0.10129 0.21031 0.0
C784 C 0.9552 0.09522 0.22523 0.0
C785 C 0.95772 0.07449 0.22935 0.0
C786 C 0.94155 0.05988 0.21865 0.0
H787 H 0.81383 0.0599 0.19296 0.0
H788 H 0.84866 0.0689 0.20778 0.0
H789 H 0.84542 0.07971 0.18658 0.0
H790 H 0.90838 0.09155 0.18752 0.0
H791 H 0.93498 0.11728 0.20691 0.0
H792 H 0.89669 0.04456 0.64042 0.0
H793 H 0.92121 0.01672 0.65769 0.0
H794 H 0.81209 0.99009 0.66147 0.0
H795 H 0.78757 0.01722 0.64336 0.0
H796 H 0.90081 0.0073 0.69084 0.0
H797 H 0.8742 0.94153 0.6475 0.0
H798 H 0.87212 0.96762 0.64017 0.0
H799 H 0.83424 0.95663 0.65206 0.0
C800 C 0.87798 0.03256 0.64458 0.0
C801 C 0.84015 0.03309 0.64043 0.0
C802 C 0.89202 0.01676 0.65456 0.0
C803 C 0.86852 0.00127 0.66064 0.0
C804 C 0.83079 0.00172 0.6566 0.0
H805 H 0.90718 0.89342 0.72247 0.0
H806 H 0.87889 0.92113 0.70616 0.0
C807 C 0.81675 0.01741 0.64646 0.0
C808 C 0.88326 0.98525 0.67198 0.0
H809 H 0.89475 0.93393 0.67561 0.0
C810 C 0.89959 0.99124 0.68754 0.0
C811 C 0.88127 0.96436 0.66763 0.0
C812 C 0.86481 0.95711 0.65087 0.0
C813 C 0.91366 0.97684 0.69906 0.0
C814 C 0.91221 0.95592 0.6946 0.0
C815 C 0.89571 0.94996 0.67904 0.0
C816 C 0.92846 0.93992 0.70559 0.0
C817 C 0.92914 0.98428 0.71597 0.0
C818 C 0.96551 0.94134 0.71079 0.0
C819 C 0.98111 0.92592 0.72066 0.0
C820 C 0.96051 0.90841 0.72481 0.0
C821 C 0.9235 0.9069 0.71957 0.0
C822 C 0.9075 0.9226 0.71012 0.0
H823 H 0.91653 0.99898 0.71985 0.0
H824 H 0.9245 0.97301 0.72642 0.0
H825 H 0.95931 0.98699 0.71458 0.0
H826 H 0.98255 0.95427 0.70712 0.0
H827 H 0.00911 0.92788 0.72519 0.0
H828 H 0.72118 0.48797 0.13776 0.0
H829 H 0.69732 0.51608 0.15525 0.0
H830 H 0.59733 0.48168 0.16481 0.0
H831 H 0.62104 0.45348 0.14753 0.0
H832 H 0.62396 0.53742 0.15073 0.0
H833 H 0.6418 0.49766 0.21334 0.0
H834 H 0.66659 0.49029 0.19418 0.0
H835 H 0.61868 0.48358 0.19661 0.0
C836 C 0.69419 0.48638 0.14366 0.0
C837 C 0.67301 0.46851 0.14135 0.0
C838 C 0.68056 0.50246 0.15354 0.0
C839 C 0.64578 0.5008 0.16139 0.0
C840 C 0.62438 0.48313 0.15893 0.0
H841 H 0.52044 0.5701 0.23476 0.0
H842 H 0.54764 0.54431 0.21602 0.0
C843 C 0.63785 0.46711 0.14898 0.0
C844 C 0.63186 0.51746 0.17232 0.0
H845 H 0.61111 0.52923 0.21384 0.0
C846 C 0.6212 0.53577 0.16455 0.0
C847 C 0.62823 0.51506 0.19027 0.0
C848 C 0.63962 0.49566 0.19919 0.0
C849 C 0.60575 0.55164 0.17423 0.0
C850 C 0.60226 0.54935 0.19231 0.0
C851 C 0.61368 0.53106 0.20004 0.0
C852 C 0.58564 0.56528 0.20343 0.0
C853 C 0.59198 0.57023 0.16482 0.0
C854 C 0.59804 0.58566 0.2028 0.0
C855 C 0.5811 0.60055 0.21288 0.0
C856 C 0.5528 0.59509 0.22432 0.0
C857 C 0.54186 0.57462 0.22575 0.0
C858 C 0.55758 0.5599 0.21514 0.0
H859 H 0.58607 0.56683 0.15109 0.0
H860 H 0.56645 0.57626 0.1708 0.0
H861 H 0.61363 0.5823 0.16514 0.0
H862 H 0.62078 0.59009 0.19453 0.0
H863 H 0.59053 0.61625 0.212 0.0
H864 H 0.29511 0.4663 0.34701 0.0
H865 H 0.32012 0.49448 0.32991 0.0
H866 H 0.40401 0.5053 0.36819 0.0
H867 H 0.37826 0.4779 0.3859 0.0
H868 H 0.33869 0.53969 0.34471 0.0
H869 H 0.45303 0.49369 0.31701 0.0
H870 H 0.41041 0.48208 0.32441 0.0
H871 H 0.44335 0.49159 0.33968 0.0
C872 C 0.31844 0.47485 0.35203 0.0
C873 C 0.33464 0.46965 0.3679 0.0
C874 C 0.33284 0.49085 0.34214 0.0
C875 C 0.36395 0.50178 0.34779 0.0
C876 C 0.38007 0.49688 0.36361 0.0
H877 H 0.50717 0.58884 0.29552 0.0
H878 H 0.48047 0.56372 0.31525 0.0
C879 C 0.36545 0.48106 0.37362 0.0
C880 C 0.37999 0.51814 0.33702 0.0
H881 H 0.45028 0.52823 0.30901 0.0
C882 C 0.36308 0.53728 0.33688 0.0
C883 C 0.41194 0.51486 0.32703 0.0
C884 C 0.43088 0.49445 0.32688 0.0
C885 C 0.37756 0.55342 0.32701 0.0
C886 C 0.40913 0.55005 0.31663 0.0
C887 C 0.42609 0.53084 0.31692 0.0
C888 C 0.42485 0.56606 0.30518 0.0
C889 C 0.35935 0.574 0.32821 0.0
C890 C 0.40255 0.57584 0.29298 0.0
C891 C 0.41755 0.59063 0.28205 0.0
C892 C 0.45549 0.5953 0.2825 0.0
C893 C 0.47788 0.58541 0.29465 0.0
C894 C 0.46266 0.57103 0.30594 0.0
H895 H 0.34417 0.57575 0.34053 0.0
H896 H 0.37991 0.5866 0.3271 0.0
H897 H 0.33896 0.57552 0.31764 0.0
H898 H 0.37356 0.5719 0.29175 0.0
H899 H 0.39938 0.59812 0.27313 0.0
H900 H 0.21376 0.00715 0.87792 0.0
H901 H 0.18769 0.97914 0.86056 0.0
H902 H 0.11057 0.02088 0.83758 0.0
H903 H 0.13605 0.04876 0.8551 0.0
H904 H 0.10626 0.9663 0.85847 0.0
H905 H 0.1696 0.99202 0.79692 0.0
H906 H 0.18756 0.99957 0.81765 0.0
H907 H 0.1466 0.01128 0.80934 0.0
C908 C 0.19129 0.01027 0.86912 0.0
C909 C 0.17688 0.03005 0.86777 0.0
C910 C 0.17637 0.99431 0.8593 0.0
C911 C 0.14737 0.998 0.84774 0.0
C912 C 0.13303 0.01776 0.84639 0.0
H913 H 0.01123 0.9275 0.77787 0.0
H914 H 0.03753 0.9532 0.79739 0.0
C915 C 0.1475 0.03362 0.85639 0.0
C916 C 0.13214 0.98132 0.83694 0.0
H917 H 0.12561 0.96513 0.79531 0.0
C918 C 0.11065 0.96593 0.84468 0.0
C919 C 0.13799 0.98092 0.81897 0.0
C920 C 0.16191 0.99672 0.81016 0.0
C921 C 0.09416 0.95037 0.8348 0.0
C922 C 0.09961 0.95019 0.81682 0.0
C923 C 0.12142 0.96542 0.80911 0.0
C924 C 0.08285 0.9343 0.80572 0.0
C925 C 0.0705 0.93437 0.84347 0.0
C926 C 0.09985 0.91528 0.80392 0.0
C927 C 0.0853 0.90074 0.79257 0.0
C928 C 0.05319 0.9049 0.78306 0.0
C929 C 0.03584 0.92384 0.78514 0.0
C930 C 0.0508 0.93851 0.79625 0.0
H931 H 0.06664 0.9375 0.85739 0.0
H932 H 0.04296 0.93355 0.83719 0.0
H933 H 0.0836 0.91922 0.84201 0.0
H934 H 0.12466 0.91181 0.81111 0.0
H935 H 0.09907 0.8862 0.7913 0.0
H936 H 0.1586 0.15115 1.00009 0.0
H937 H 0.13438 0.15435 0.02945 0.0
H938 H 0.19617 0.10131 0.04469 0.0
H939 H 0.22122 0.09852 0.01541 0.0
H940 H 0.09196 0.12657 0.04767 0.0
H941 H 0.22388 0.14215 0.08186 0.0
H942 H 0.21979 0.14402 0.05878 0.0
H943 H 0.22433 0.11951 0.06892 0.0
C944 C 0.16727 0.14038 0.00983 0.0
C945 C 0.19193 0.12474 0.00568 0.0
C946 C 0.15337 0.14215 0.02653 0.0
C947 C 0.16374 0.12822 0.03933 0.0
C948 C 0.18842 0.11251 0.03514 0.0
H949 H 0.07825 0.09392 0.13696 0.0
H950 H 0.08521 0.09867 0.10593 0.0
C951 C 0.20264 0.11088 0.01845 0.0
C952 C 0.14786 0.12981 0.0569 0.0
H953 H 0.17129 0.13494 0.09919 0.0
C954 C 0.10927 0.12855 0.05893 0.0
C955 C 0.17043 0.1326 0.07158 0.0
C956 C 0.21188 0.13484 0.07022 0.0
C957 C 0.0928 0.12938 0.0753 0.0
C958 C 0.11548 0.13158 0.08996 0.0
C959 C 0.15393 0.13336 0.0879 0.0
C960 C 0.10067 0.13053 0.10773 0.0
C961 C 0.05134 0.12789 0.07688 0.0
C962 C 0.10529 0.14712 0.11897 0.0
C963 C 0.10089 0.14446 0.13674 0.0
C964 C 0.09222 0.12512 0.14344 0.0
C965 C 0.08423 0.10906 0.13205 0.0
C966 C 0.08837 0.11175 0.11432 0.0
H967 H 0.03737 0.12971 0.06426 0.0
H968 H 0.04362 0.11274 0.08221 0.0
H969 H 0.041 0.13969 0.08587 0.0
H970 H 0.115 0.1617 0.11413 0.0
H971 H 0.10788 0.15695 0.14528 0.0
H972 H 0.28876 0.34937 0.51232 0.0
H973 H 0.31088 0.34615 0.54192 0.0
H974 H 0.37998 0.39944 0.53497 0.0
H975 H 0.35649 0.40347 0.50584 0.0
H976 H 0.38033 0.3398 0.55388 0.0
H977 H 0.32871 0.41328 0.57897 0.0
H978 H 0.31414 0.40314 0.5585 0.0
H979 H 0.35752 0.41663 0.56042 0.0
C980 C 0.30808 0.36065 0.5172 0.0
C981 C 0.32085 0.37667 0.50663 0.0
C982 C 0.321 0.35866 0.53407 0.0
C983 C 0.34686 0.37265 0.54074 0.0
C984 C 0.35956 0.38865 0.53025 0.0
H985 H 0.45501 0.39286 0.63745 0.0
H986 H 0.44713 0.38696 0.60659 0.0
C987 C 0.34643 0.39077 0.51347 0.0
C988 C 0.36117 0.37034 0.55853 0.0
H989 H 0.37201 0.39582 0.59644 0.0
C990 C 0.37835 0.35199 0.56324 0.0
C991 C 0.35849 0.38624 0.57074 0.0
C992 C 0.33838 0.40584 0.56697 0.0
C993 C 0.3935 0.3493 0.57974 0.0
C994 C 0.3914 0.36537 0.59176 0.0
C995 C 0.3741 0.38362 0.58707 0.0
C996 C 0.40501 0.36364 0.60968 0.0
C997 C 0.41211 0.32951 0.58416 0.0
C998 C 0.38554 0.35161 0.62164 0.0
C999 C 0.39016 0.35494 0.6393 0.0
C1000 C 0.4143 0.37031 0.64515 0.0
C1001 C 0.43661 0.38075 0.63322 0.0
C1002 C 0.43199 0.37744 0.61561 0.0
H1003 H 0.41742 0.32009 0.57257 0.0
H1004 H 0.43872 0.33247 0.59086 0.0
H1005 H 0.3941 0.32061 0.59301 0.0
H1006 H 0.36423 0.34109 0.61734 0.0
H1007 H 0.37225 0.34697 0.64827 0.0
H1008 H 0.74023 0.38865 0.99335 0.0
H1009 H 0.71881 0.38781 0.96348 0.0
H1010 H 0.61554 0.36084 0.97989 0.0
H1011 H 0.63674 0.36151 0.0097 0.0
H1012 H 0.6961 0.35453 0.94376 0.0
H1013 H 0.58182 0.40982 0.95141 0.0
H1014 H 0.61812 0.40702 0.96715 0.0
H1015 H 0.58055 0.38893 0.96635 0.0
C1016 C 0.71308 0.3824 0.99057 0.0
C1017 C 0.69002 0.37534 0.00389 0.0
C1018 C 0.70079 0.38207 0.97354 0.0
C1019 C 0.66524 0.37475 0.96956 0.0
C1020 C 0.64262 0.36713 0.98275 0.0
H1021 H 0.55642 0.3384 0.87707 0.0
H1022 H 0.56957 0.34933 0.90663 0.0
C1023 C 0.65483 0.36747 0.99976 0.0
C1024 C 0.65223 0.37447 0.95154 0.0
H1025 H 0.58406 0.39161 0.92487 0.0
C1026 C 0.67187 0.36282 0.93958 0.0
C1027 C 0.62047 0.38525 0.94619 0.0
C1028 C 0.59915 0.39862 0.95839 0.0
C1029 C 0.66013 0.36125 0.92247 0.0
C1030 C 0.62825 0.37187 0.91715 0.0
C1031 C 0.60865 0.38365 0.92903 0.0
C1032 C 0.61423 0.36973 0.89942 0.0
C1033 C 0.68129 0.3478 0.91026 0.0
C1034 C 0.63373 0.37848 0.88563 0.0
C1035 C 0.62602 0.37239 0.86877 0.0
C1036 C 0.59889 0.35743 0.86563 0.0
C1037 C 0.57736 0.35001 0.8793 0.0
C1038 C 0.58484 0.35623 0.89611 0.0
H1039 H 0.7023 0.33845 0.91698 0.0
H1040 H 0.66206 0.33743 0.90328 0.0
H1041 H 0.69563 0.35745 0.90057 0.0
H1042 H 0.65652 0.38893 0.888 0.0
H1043 H 0.6431 0.37816 0.85838 0.0
H1044 H 0.79206 0.14961 0.49556 0.0
H1045 H 0.81364 0.15068 0.46581 0.0
H1046 H 0.88486 0.09954 0.47564 0.0
H1047 H 0.86192 0.0976 0.50509 0.0
H1048 H 0.88396 0.15719 0.45441 0.0
H1049 H 0.83326 0.0814 0.4322 0.0
H1050 H 0.81805 0.09273 0.45209 0.0
H1051 H 0.86249 0.08077 0.45082 0.0
C1052 C 0.81173 0.13832 0.49131 0.0
C1053 C 0.82519 0.1235 0.50272 0.0
C1054 C 0.82428 0.13906 0.47434 0.0
C1055 C 0.85051 0.12503 0.46846 0.0
C1056 C 0.86408 0.11026 0.4798 0.0
H1057 H 0.9671 0.14156 0.37 0.0
H1058 H 0.95446 0.13035 0.3997 0.0
C1059 C 0.8513 0.10938 0.49672 0.0
C1060 C 0.86446 0.12641 0.4506 0.0
H1061 H 0.86875 0.10082 0.4124 0.0
C1062 C 0.88086 0.14482 0.44526 0.0
C1063 C 0.86048 0.11018 0.43873 0.0
C1064 C 0.84235 0.0902 0.44366 0.0
C1065 C 0.89261 0.14762 0.42826 0.0
C1066 C 0.88797 0.13158 0.41634 0.0
C1067 C 0.87246 0.11298 0.4217 0.0
C1068 C 0.89543 0.13491 0.3979 0.0
C1069 C 0.90869 0.16796 0.4229 0.0
C1070 C 0.86628 0.14063 0.3871 0.0
C1071 C 0.87346 0.14716 0.37034 0.0
C1072 C 0.90985 0.14783 0.36412 0.0
C1073 C 0.93884 0.14101 0.37459 0.0
C1074 C 0.93167 0.13464 0.39146 0.0
H1075 H 0.90986 0.17901 0.43371 0.0
H1076 H 0.9371 0.16582 0.41786 0.0
H1077 H 0.89181 0.17456 0.41239 0.0
H1078 H 0.8382 0.14101 0.39193 0.0
H1079 H 0.85081 0.15244 0.36244 0.0
H1080 H 0.76842 0.88367 0.99066 0.0
H1081 H 0.79026 0.87957 0.9611 0.0
H1082 H 0.89972 0.86649 0.97984 0.0
H1083 H 0.87786 0.86953 0.00936 0.0
H1084 H 0.84485 0.90091 0.94399 0.0
H1085 H 0.88048 0.81883 0.94771 0.0
H1086 H 0.8526 0.8313 0.96376 0.0
H1087 H 0.90206 0.83429 0.96394 0.0
C1088 C 0.79699 0.87957 0.98851 0.0
C1089 C 0.82129 0.87678 1.00241 0.0
C1090 C 0.80948 0.8774 0.97161 0.0
C1091 C 0.84644 0.87234 0.96831 0.0
C1092 C 0.8709 0.86992 0.98211 0.0
H1093 H 0.96449 0.8854 0.87243 0.0
H1094 H 0.95094 0.87949 0.90296 0.0
C1095 C 0.85842 0.87195 0.99899 0.0
C1096 C 0.85966 0.87009 0.9504 0.0
H1097 H 0.89961 0.83659 0.92246 0.0
C1098 C 0.85672 0.88684 0.93928 0.0
C1099 C 0.87503 0.85166 0.94429 0.0
C1100 C 0.87747 0.83292 0.95549 0.0
C1101 C 0.86913 0.88572 0.92224 0.0
C1102 C 0.88494 0.86742 0.91624 0.0
C1103 C 0.88773 0.85061 0.92725 0.0
C1104 C 0.89744 0.86565 0.89827 0.0
C1105 C 0.86513 0.90404 0.91065 0.0
C1106 C 0.87266 0.85874 0.88566 0.0
C1107 C 0.88048 0.86197 0.86827 0.0
C1108 C 0.91319 0.87207 0.8634 0.0
C1109 C 0.93948 0.87721 0.87596 0.0
C1110 C 0.93165 0.87398 0.89334 0.0
H1111 H 0.85105 0.91691 0.91714 0.0
H1112 H 0.89285 0.90932 0.90633 0.0
H1113 H 0.84909 0.89977 0.89901 0.0
H1114 H 0.84602 0.85242 0.8893 0.0
H1115 H 0.85954 0.85832 0.85878 0.0
H1116 H 0.63423 0.63106 0.50991 0.0
H1117 H 0.61017 0.63392 0.48055 0.0
H1118 H 0.71826 0.61999 0.46045 0.0
H1119 H 0.74187 0.61625 0.48983 0.0
H1120 H 0.62818 0.65969 0.45537 0.0
H1121 H 0.65614 0.58094 0.43342 0.0
H1122 H 0.65921 0.58822 0.45573 0.0
H1123 H 0.6969 0.59357 0.44123 0.0
C1124 C 0.65269 0.62849 0.49917 0.0
C1125 C 0.68981 0.62339 0.50204 0.0
C1126 C 0.63898 0.63014 0.48244 0.0
C1127 C 0.66223 0.62691 0.46826 0.0
C1128 C 0.6995 0.622 0.47115 0.0
H1129 H 0.6525 0.64556 0.35997 0.0
H1130 H 0.66279 0.65132 0.39074 0.0
C1131 C 0.71305 0.61998 0.4879 0.0
C1132 C 0.64771 0.62925 0.45049 0.0
H1133 H 0.64075 0.60512 0.41172 0.0
C1134 C 0.6307 0.64769 0.44587 0.0
C1135 C 0.65059 0.61351 0.43811 0.0
C1136 C 0.66635 0.59288 0.44241 0.0
C1137 C 0.61757 0.651 0.42909 0.0
C1138 C 0.6217 0.63554 0.41669 0.0
C1139 C 0.63792 0.61699 0.42134 0.0
C1140 C 0.61043 0.63818 0.39857 0.0
C1141 C 0.59958 0.67093 0.42457 0.0
C1142 C 0.57678 0.62987 0.39283 0.0
C1143 C 0.57075 0.62675 0.37525 0.0
C1144 C 0.59839 0.63183 0.36328 0.0
C1145 C 0.63049 0.64195 0.36895 0.0
C1146 C 0.63648 0.64511 0.38651 0.0
H1147 H 0.59745 0.68127 0.43583 0.0
H1148 H 0.61581 0.6787 0.41434 0.0
H1149 H 0.57143 0.66799 0.41939 0.0
H1150 H 0.55656 0.62425 0.40199 0.0
H1151 H 0.54617 0.61853 0.37117 0.0
H1152 H 0.29833 0.59484 0.01112 0.0
H1153 H 0.32073 0.59563 0.04101 0.0
H1154 H 0.37268 0.65402 0.03148 0.0
H1155 H 0.35042 0.65315 1.00167 0.0
H1156 H 0.39649 0.59934 0.05297 0.0
H1157 H 0.30821 0.6632 0.07472 0.0
H1158 H 0.29863 0.64884 0.05541 0.0
H1159 H 0.33375 0.66839 0.05538 0.0
C1160 C 0.31423 0.60788 0.01556 0.0
C1161 C 0.32248 0.62405 0.00433 0.0
C1162 C 0.32717 0.60827 0.03252 0.0
C1163 C 0.34812 0.62495 0.03847 0.0
C1164 C 0.35621 0.64112 0.0272 0.0
H1165 H 0.44831 0.66705 0.131 0.0
H1166 H 0.43891 0.65665 0.10111 0.0
C1167 C 0.34354 0.64065 0.01023 0.0
C1168 C 0.36172 0.62554 0.05644 0.0
H1169 H 0.35679 0.65338 0.09338 0.0
C1170 C 0.38764 0.61103 0.06189 0.0
C1171 C 0.34997 0.64075 0.06803 0.0
C1172 C 0.32086 0.65609 0.06319 0.0
C1173 C 0.40294 0.61178 0.07852 0.0
C1174 C 0.39188 0.62735 0.08988 0.0
C1175 C 0.36547 0.64156 0.08453 0.0
C1176 C 0.40711 0.62963 0.10746 0.0
C1177 C 0.43146 0.59636 0.08377 0.0
C1178 C 0.39402 0.61724 0.12092 0.0
C1179 C 0.39953 0.62314 0.13807 0.0
C1180 C 0.41806 0.64152 0.14184 0.0
C1181 C 0.43429 0.65272 0.12838 0.0
C1182 C 0.4288 0.64684 0.11132 0.0
H1183 H 0.43949 0.58629 0.07294 0.0
H1184 H 0.45653 0.60429 0.08871 0.0
H1185 H 0.42026 0.58676 0.09434 0.0
H1186 H 0.37686 0.60402 0.11817 0.0
H1187 H 0.38628 0.61445 0.14822 0.0
H1188 H 0.15087 0.84886 0.50055 0.0
H1189 H 0.12917 0.84722 0.53022 0.0
H1190 H 0.1959 0.89977 0.54296 0.0
H1191 H 0.21953 0.90099 0.51357 0.0
H1192 H 0.17935 0.8455 0.56157 0.0
H1193 H 0.08417 0.91174 0.55922 0.0
H1194 H 0.09761 0.89786 0.54018 0.0
H1195 H 0.12977 0.91502 0.55023 0.0
C1196 C 0.16153 0.85993 0.50963 0.0
C1197 C 0.18705 0.8751 0.50447 0.0
C1198 C 0.14867 0.85909 0.52657 0.0
C1199 C 0.16047 0.87358 0.53866 0.0
C1200 C 0.18596 0.88867 0.5337 0.0
H1201 H 0.13368 0.88164 0.64928 0.0
H1202 H 0.14176 0.89153 0.61898 0.0
C1203 C 0.1993 0.88937 0.51683 0.0
C1204 C 0.14729 0.87234 0.55665 0.0
H1205 H 0.09131 0.89533 0.58618 0.0
C1206 C 0.16008 0.85636 0.56695 0.0
C1207 C 0.12228 0.88662 0.56359 0.0
C1208 C 0.10734 0.90377 0.55278 0.0
C1209 C 0.14871 0.85432 0.5841 0.0
C1210 C 0.12331 0.86842 0.59105 0.0
C1211 C 0.11066 0.88454 0.58079 0.0
C1212 C 0.10991 0.86614 0.60896 0.0
C1213 C 0.16422 0.83716 0.59478 0.0
C1214 C 0.08749 0.84936 0.61331 0.0
C1215 C 0.08295 0.84373 0.63051 0.0
C1216 C 0.10048 0.85488 0.64362 0.0
C1217 C 0.11965 0.87292 0.63939 0.0
C1218 C 0.12437 0.87852 0.62211 0.0
H1219 H 0.18868 0.8301 0.58861 0.0
H1220 H 0.17231 0.84273 0.60774 0.0
H1221 H 0.1427 0.82517 0.59647 0.0
H1222 H 0.07597 0.83968 0.60335 0.0
H1223 H 0.0682 0.82971 0.63348 0.0
H1224 H 0.22612 0.28914 0.36665 0.0
H1225 H 0.19961 0.26231 0.34848 0.0
H1226 H 0.09055 0.28636 0.35721 0.0
H1227 H 0.11711 0.31358 0.37499 0.0
H1228 H 0.15117 0.23227 0.35486 0.0
H1229 H 0.09181 0.28396 0.30582 0.0
H1230 H 0.12333 0.29288 0.32217 0.0
H1231 H 0.07515 0.28895 0.32709 0.0
C1232 C 0.19647 0.28865 0.36472 0.0
C1233 C 0.17368 0.30351 0.37214 0.0
C1234 C 0.18137 0.27335 0.35432 0.0
C1235 C 0.14316 0.27254 0.35118 0.0
C1236 C 0.12021 0.28702 0.359 0.0
H1237 H 0.99923 0.19186 0.29371 0.0
H1238 H 0.02641 0.21701 0.31308 0.0
C1239 C 0.13537 0.3025 0.36923 0.0
C1240 C 0.12749 0.25646 0.3398 0.0
H1241 H 0.07513 0.24895 0.30378 0.0
C1242 C 0.13472 0.23593 0.34363 0.0
C1243 C 0.10607 0.26123 0.32512 0.0
C1244 C 0.09891 0.28295 0.31968 0.0
C1245 C 0.1206 0.22005 0.33338 0.0
C1246 C 0.09896 0.22486 0.31883 0.0
C1247 C 0.09171 0.24534 0.31498 0.0
C1248 C 0.08297 0.20889 0.30752 0.0
C1249 C 0.12822 0.19825 0.3384 0.0
C1250 C 0.10581 0.19592 0.29796 0.0
C1251 C 0.09034 0.18133 0.28692 0.0
C1252 C 0.05175 0.17972 0.28501 0.0
C1253 C 0.02906 0.19273 0.2947 0.0
C1254 C 0.04452 0.20716 0.30581 0.0
H1255 H 0.13846 0.19704 0.35182 0.0
H1256 H 0.10289 0.1887 0.33706 0.0
H1257 H 0.14964 0.19195 0.32973 0.0
H1258 H 0.13561 0.19721 0.2989 0.0
H1259 H 0.10865 0.17142 0.2799 0.0
H1260 H 0.34821 0.21712 0.89207 0.0
H1261 H 0.37446 0.24459 0.87441 0.0
H1262 H 0.3694 0.20564 0.82985 0.0
H1263 H 0.34161 0.17855 0.84712 0.0
H1264 H 0.43766 0.24734 0.85523 0.0
H1265 H 0.31595 0.25535 0.81273 0.0
H1266 H 0.31439 0.24077 0.83239 0.0
H1267 H 0.33304 0.22976 0.81308 0.0
C1268 C 0.35223 0.21446 0.87847 0.0
C1269 C 0.34247 0.19556 0.87105 0.0
C1270 C 0.36755 0.23016 0.86841 0.0
C1271 C 0.37328 0.22736 0.85071 0.0
C1272 C 0.36448 0.20837 0.84338 0.0
H1273 H 0.47129 0.29378 0.76601 0.0
H1274 H 0.44543 0.26841 0.78607 0.0
C1275 C 0.34904 0.19274 0.85338 0.0
C1276 C 0.38845 0.24419 0.83984 0.0
H1277 H 0.37162 0.27165 0.80331 0.0
C1278 C 0.42306 0.25279 0.84398 0.0
C1279 C 0.36931 0.25147 0.8252 0.0
C1280 C 0.33095 0.24402 0.82067 0.0
C1281 C 0.43951 0.2679 0.83353 0.0
C1282 C 0.42083 0.2746 0.81862 0.0
C1283 C 0.38602 0.26632 0.81467 0.0
C1284 C 0.43712 0.28996 0.80674 0.0
C1285 C 0.47715 0.27625 0.83822 0.0
C1286 C 0.44049 0.31051 0.81165 0.0
C1287 C 0.45455 0.32502 0.80008 0.0
C1288 C 0.46579 0.31911 0.78357 0.0
C1289 C 0.46268 0.29859 0.7787 0.0
C1290 C 0.44806 0.28416 0.79014 0.0
H1291 H 0.49045 0.26724 0.84859 0.0
H1292 H 0.49556 0.27641 0.8268 0.0
H1293 H 0.47436 0.29222 0.84273 0.0
H1294 H 0.43187 0.31533 0.82433 0.0
H1295 H 0.45694 0.34081 0.80406 0.0
H1296 H 0.7243 0.19783 0.655 0.0
H1297 H 0.69773 0.22472 0.67306 0.0
H1298 H 0.60161 0.22637 0.64025 0.0
H1299 H 0.62818 0.19932 0.62226 0.0
H1300 H 0.6746 0.26487 0.66255 0.0
H1301 H 0.55979 0.21767 0.6895 0.0
H1302 H 0.59962 0.20657 0.67922 0.0
H1303 H 0.56387 0.21789 0.66647 0.0
C1304 C 0.69753 0.20402 0.65173 0.0
C1305 C 0.67803 0.19671 0.63741 0.0
C1306 C 0.68245 0.2193 0.66196 0.0
C1307 C 0.64763 0.22733 0.65803 0.0
C1308 C 0.6283 0.22013 0.64358 0.0
H1309 H 0.5302 0.32924 0.70138 0.0
H1310 H 0.55682 0.3038 0.6824 0.0
C1311 C 0.64342 0.20483 0.63333 0.0
C1312 C 0.63171 0.24325 0.66911 0.0
H1313 H 0.56152 0.2525 0.69729 0.0
C1314 C 0.64989 0.26221 0.67014 0.0
C1315 C 0.59953 0.2396 0.67899 0.0
C1316 C 0.5796 0.2193 0.67866 0.0
C1317 C 0.6365 0.2777 0.68082 0.0
C1318 C 0.60452 0.27397 0.69073 0.0
C1319 C 0.58621 0.25511 0.68966 0.0
C1320 C 0.58942 0.28959 0.70226 0.0
C1321 C 0.65653 0.29794 0.6816 0.0
C1322 C 0.59865 0.28967 0.71975 0.0
C1323 C 0.58292 0.30396 0.73082 0.0
C1324 C 0.55833 0.31863 0.72446 0.0
C1325 C 0.5493 0.31836 0.70681 0.0
C1326 C 0.56454 0.30389 0.69586 0.0
H1327 H 0.68091 0.29849 0.67292 0.0
H1328 H 0.63738 0.31037 0.67798 0.0
H1329 H 0.66585 0.30089 0.69497 0.0
H1330 H 0.6176 0.27848 0.72485 0.0
H1331 H 0.58937 0.30313 0.74436 0.0
H1332 H 0.88441 0.32271 0.1484 0.0
H1333 H 0.91032 0.29636 0.16684 0.0
H1334 H 0.8279 0.25354 0.14913 0.0
H1335 H 0.79997 0.28 0.13146 0.0
H1336 H 0.85739 0.27034 0.19275 0.0
H1337 H 0.94202 0.22877 0.14449 0.0
H1338 H 0.9317 0.25557 0.14223 0.0
H1339 H 0.89618 0.23686 0.13861 0.0
C1340 C 0.87129 0.30782 0.14849 0.0
C1341 C 0.83963 0.30374 0.13844 0.0
C1342 C 0.88652 0.29271 0.15893 0.0
C1343 C 0.87101 0.2731 0.15926 0.0
C1344 C 0.84029 0.26864 0.14893 0.0
H1345 H 0.93407 0.16038 0.20874 0.0
H1346 H 0.90695 0.18681 0.19046 0.0
C1347 C 0.82459 0.28382 0.13871 0.0
C1348 C 0.88576 0.25752 0.17106 0.0
H1349 H 0.94017 0.21538 0.17256 0.0
C1350 C 0.87556 0.2583 0.18842 0.0
C1351 C 0.90912 0.24188 0.16522 0.0
C1352 C 0.92069 0.2406 0.14664 0.0
C1353 C 0.88774 0.24355 0.20016 0.0
C1354 C 0.91165 0.22796 0.19441 0.0
C1355 C 0.92188 0.2273 0.17698 0.0
C1356 C 0.92617 0.21204 0.20614 0.0
C1357 C 0.87393 0.24452 0.21845 0.0
C1358 C 0.94572 0.21739 0.22112 0.0
C1359 C 0.96016 0.20228 0.23181 0.0
C1360 C 0.95647 0.18166 0.22732 0.0
C1361 C 0.93726 0.17626 0.21234 0.0
C1362 C 0.9219 0.19132 0.20192 0.0
H1363 H 0.84775 0.25319 0.21939 0.0
H1364 H 0.8692 0.22902 0.22382 0.0
H1365 H 0.89482 0.25247 0.22652 0.0
H1366 H 0.95051 0.23324 0.22436 0.0
H1367 H 0.9755 0.20671 0.24319 0.0
H1368 H 0.83391 0.67971 0.66194 0.0
H1369 H 0.86264 0.70652 0.67922 0.0
H1370 H 0.88033 0.74263 0.63356 0.0
H1371 H 0.84984 0.71629 0.61625 0.0
H1372 H 0.93035 0.72285 0.6792 0.0
H1373 H 0.82922 0.78328 0.66378 0.0
H1374 H 0.8216 0.75692 0.6581 0.0
H1375 H 0.85121 0.77286 0.64512 0.0
C1376 C 0.84338 0.69348 0.65556 0.0
C1377 C 0.83895 0.69593 0.6377 0.0
C1378 C 0.86014 0.70874 0.66547 0.0
C1379 C 0.87298 0.72683 0.65779 0.0
C1380 C 0.86979 0.72907 0.63988 0.0
H1381 H 0.98355 0.83444 0.70043 0.0
H1382 H 0.95957 0.80768 0.6814 0.0
C1383 C 0.85278 0.71383 0.62995 0.0
C1384 C 0.88981 0.7432 0.6686 0.0
H1385 H 0.88205 0.79343 0.67979 0.0
C1386 C 0.91971 0.73826 0.67933 0.0
C1387 C 0.87588 0.76334 0.66887 0.0
C1388 C 0.84249 0.76941 0.65849 0.0
C1389 C 0.93615 0.75289 0.69017 0.0
C1390 C 0.92233 0.77299 0.69034 0.0
C1391 C 0.89271 0.77802 0.67954 0.0
C1392 C 0.93766 0.78892 0.70195 0.0
C1393 C 0.96841 0.74681 0.70128 0.0
C1394 C 0.93316 0.78729 0.71981 0.0
C1395 C 0.94673 0.80256 0.73071 0.0
C1396 C 0.96491 0.81988 0.72399 0.0
C1397 C 0.96958 0.82139 0.70607 0.0
C1398 C 0.95589 0.80611 0.69516 0.0
H1399 H 0.98044 0.73206 0.69717 0.0
H1400 H 0.99038 0.75873 0.70097 0.0
H1401 H 0.95894 0.74516 0.71479 0.0
H1402 H 0.91879 0.77427 0.72531 0.0
H1403 H 0.94292 0.80075 0.74441 0.0
H1404 H 0.72649 0.79486 0.14966 0.0
H1405 H 0.69753 0.76833 0.16715 0.0
H1406 H 0.59238 0.78037 0.14332 0.0
H1407 H 0.62088 0.80749 0.12603 0.0
H1408 H 0.63699 0.77435 0.19052 0.0
H1409 H 0.60525 0.71733 0.13956 0.0
H1410 H 0.63851 0.73771 0.13653 0.0
H1411 H 0.58993 0.74294 0.13559 0.0
C1412 C 0.69714 0.79203 0.14816 0.0
C1413 C 0.676 0.80351 0.13651 0.0
C1414 C 0.68072 0.77673 0.15811 0.0
C1415 C 0.64293 0.77233 0.15646 0.0
C1416 C 0.62174 0.78338 0.14461 0.0
H1417 H 0.49839 0.69074 0.21379 0.0
H1418 H 0.5241 0.71679 0.19467 0.0
C1419 C 0.63812 0.79884 0.13471 0.0
C1420 C 0.62568 0.75675 0.16773 0.0
H1421 H 0.5843 0.70974 0.16767 0.0
C1422 C 0.6255 0.76021 0.18554 0.0
C1423 C 0.61066 0.73837 0.16115 0.0
C1424 C 0.61122 0.73368 0.14218 0.0
C1425 C 0.61064 0.74575 0.19696 0.0
C1426 C 0.59604 0.72731 0.1904 0.0
C1427 C 0.59573 0.72392 0.1726 0.0
C1428 C 0.58086 0.71136 0.20188 0.0
C1429 C 0.61024 0.7503 0.21597 0.0
C1430 C 0.60445 0.69949 0.21203 0.0
C1431 C 0.58993 0.68436 0.22283 0.0
C1432 C 0.55153 0.68113 0.22389 0.0
C1433 C 0.52809 0.69298 0.21351 0.0
C1434 C 0.54266 0.70786 0.20253 0.0
H1435 H 0.61743 0.76647 0.21873 0.0
H1436 H 0.58253 0.74686 0.22146 0.0
H1437 H 0.63054 0.74041 0.22258 0.0
H1438 H 0.6341 0.70188 0.21152 0.0
H1439 H 0.60881 0.67529 0.23032 0.0
H1440 H 0.3657 0.82444 0.35246 0.0
H1441 H 0.39435 0.79788 0.33473 0.0
H1442 H 0.34248 0.75147 0.36602 0.0
H1443 H 0.31432 0.77805 0.38397 0.0
H1444 H 0.44119 0.76214 0.34586 0.0
H1445 H 0.30778 0.74212 0.31421 0.0
H1446 H 0.31525 0.76607 0.32518 0.0
H1447 H 0.30745 0.74316 0.33733 0.0
C1448 C 0.36083 0.80855 0.35561 0.0
C1449 C 0.33797 0.80317 0.36951 0.0
C1450 C 0.37717 0.79345 0.34554 0.0
C1451 C 0.37026 0.77278 0.34903 0.0
C1452 C 0.34799 0.76737 0.36313 0.0
H1453 H 0.43943 0.6597 0.30192 0.0
H1454 H 0.41476 0.68624 0.32093 0.0
C1455 C 0.3321 0.78249 0.37337 0.0
C1456 C 0.38518 0.75691 0.3375 0.0
H1457 H 0.35941 0.7219 0.3072 0.0
C1458 C 0.42339 0.75334 0.33739 0.0
C1459 C 0.36182 0.7456 0.3264 0.0
C1460 C 0.32079 0.74944 0.3256 0.0
C1461 C 0.43874 0.73845 0.32661 0.0
C1462 C 0.41528 0.72708 0.31565 0.0
C1463 C 0.37717 0.73069 0.31569 0.0
C1464 C 0.42983 0.71121 0.30409 0.0
C1465 C 0.47982 0.73474 0.32704 0.0
C1466 C 0.44573 0.71658 0.28826 0.0
C1467 C 0.45899 0.70146 0.27725 0.0
C1468 C 0.45716 0.68086 0.28214 0.0
C1469 C 0.44122 0.67553 0.29797 0.0
C1470 C 0.42724 0.69061 0.3088 0.0
H1471 H 0.49385 0.74359 0.33736 0.0
H1472 H 0.48525 0.71826 0.32903 0.0
H1473 H 0.49211 0.73913 0.31448 0.0
H1474 H 0.44791 0.73245 0.28447 0.0
H1475 H 0.47167 0.70589 0.26518 0.0
H1476 H 0.17667 0.71938 0.88955 0.0
H1477 H 0.14735 0.74611 0.87228 0.0
H1478 H 0.14358 0.70547 0.82876 0.0
H1479 H 0.172 0.67868 0.84597 0.0
H1480 H 0.17443 0.76375 0.84217 0.0
H1481 H 0.03834 0.72709 0.83037 0.0
H1482 H 0.06956 0.71844 0.84689 0.0
H1483 H 0.07639 0.71095 0.82488 0.0
C1484 C 0.16901 0.71606 0.87639 0.0
C1485 C 0.17673 0.69692 0.86912 0.0
C1486 C 0.15247 0.73137 0.86651 0.0
C1487 C 0.14289 0.72772 0.84928 0.0
C1488 C 0.15014 0.70854 0.84209 0.0
H1489 H 0.06381 0.79769 0.76217 0.0
H1490 H 0.09075 0.77202 0.78138 0.0
C1491 C 0.16676 0.69331 0.8519 0.0
C1492 C 0.12704 0.74416 0.83846 0.0
H1493 H 0.05397 0.75543 0.81239 0.0
C1494 C 0.14794 0.76203 0.83579 0.0
C1495 C 0.09243 0.7419 0.83016 0.0
C1496 C 0.06768 0.72365 0.83333 0.0
C1497 C 0.13567 0.77741 0.82461 0.0
C1498 C 0.10154 0.77487 0.81598 0.0
C1499 C 0.08037 0.75718 0.81886 0.0
C1500 C 0.08682 0.79065 0.80424 0.0
C1501 C 0.15963 0.79605 0.82177 0.0
C1502 C 0.07564 0.80953 0.81076 0.0
C1503 C 0.06028 0.82413 0.79988 0.0
C1504 C 0.05579 0.82016 0.78222 0.0
C1505 C 0.0672 0.80126 0.77567 0.0
C1506 C 0.08246 0.78658 0.78662 0.0
H1507 H 0.18815 0.7939 0.82671 0.0
H1508 H 0.16107 0.79991 0.80788 0.0
H1509 H 0.14734 0.80922 0.82859 0.0
H1510 H 0.07828 0.81286 0.82434 0.0
H1511 H 0.05182 0.83854 0.80536 0.0
loop_
_geom_bond_atom_site_label_1
_geom_bond_atom_site_label_2
_geom_bond_distance
_geom_bond_site_symmetry_2
_ccdc_geom_bond_type
C0 C1 1.386 . S
C0 C2 1.397 . S
C0 H24 0.931 . S
C1 C0 1.386 . S
C1 C5 1.397 . S
C2 C0 1.397 . S
C2 C3 1.384 . S
C2 H25 0.930 . S
C3 C2 1.384 . S
C3 C4 1.377 . S
C3 C6 1.481 . S
C4 C3 1.377 . S
C4 C5 1.389 . S
C4 H26 0.929 . S
C5 C1 1.397 . S
C5 C4 1.389 . S
C5 H27 0.931 . S
C6 C3 1.481 . S
C6 C7 1.387 . S
C6 C11 1.390 . S
C7 C6 1.387 . S
C7 C8 1.401 . S
C7 H28 0.930 . S
C8 C7 1.401 . S
C8 C9 1.376 . S
C8 C17 1.511 . S
C9 C8 1.376 . S
C9 C10 1.392 . S
C9 H30 0.931 . S
C10 C9 1.392 . S
C10 C11 1.361 . S
C10 C12 1.500 . S
C11 C6 1.390 . S
C11 C10 1.361 . S
C11 H29 0.931 . S
C12 C10 1.500 . S
C12 C13 1.371 . S
C12 C14 1.365 . S
C13 C12 1.371 . S
C13 C23 1.386 . S
C13 H31 0.931 . S
C14 C12 1.365 . S
C14 C15 1.409 . S
C14 H32 0.929 . S
C15 C14 1.409 . S
C15 C16 1.380 . S
C15 H33 0.930 . S
C16 C15 1.380 . S
C16 C23 1.357 . S
C17 C8 1.511 . S
C17 C18 1.341 . S
C17 C19 1.371 . S
C18 C17 1.341 . S
C18 C22 1.394 . S
C18 H34 0.930 . S
C19 C17 1.371 . S
C19 C20 1.392 . S
C19 H35 0.931 . S
C20 C19 1.392 . S
C20 C21 1.331 . S
C20 H38 0.932 . S
C21 C20 1.331 . S
C21 C22 1.336 . S
C22 C18 1.394 . S
C22 C21 1.336 . S
C22 H37 0.929 . S
C23 C13 1.386 . S
C23 C16 1.357 . S
C23 H36 0.928 . S
H24 C0 0.931 . S
H25 C2 0.930 . S
H26 C4 0.929 . S
H27 C5 0.931 . S
H28 C7 0.930 . S
H29 C11 0.931 . S
H30 C9 0.931 . S
H31 C13 0.931 . S
H32 C14 0.929 . S
H33 C15 0.930 . S
H34 C18 0.930 . S
H35 C19 0.931 . S
H36 C23 0.928 . S
H37 C22 0.929 . S
H38 C20 0.932 . S
C39 C40 1.386 . S
C39 C41 1.397 . S
C39 H63 0.931 . S
C40 C39 1.386 . S
C40 C44 1.397 . S
C41 C39 1.397 . S
C41 C42 1.384 . S
C41 H64 0.930 . S
C42 C41 1.384 . S
C42 C43 1.377 . S
C42 C45 1.481 . S
C43 C42 1.377 . S
C43 C44 1.389 . S
C43 H65 0.929 . S
C44 C40 1.397 . S
C44 C43 1.389 . S
C44 H66 0.931 . S
C45 C42 1.481 . S
C45 C46 1.387 . S
C45 C50 1.390 . S
C46 C45 1.387 . S
C46 C47 1.401 . S
C46 H67 0.930 . S
C47 C46 1.401 . S
C47 C48 1.376 . S
C47 C56 1.511 . S
C48 C47 1.376 . S
C48 C49 1.392 . S
C48 H69 0.931 . S
C49 C48 1.392 . S
C49 C50 1.361 . S
C49 C51 1.500 . S
C50 C45 1.390 . S
C50 C49 1.361 . S
C50 H68 0.931 . S
C51 C49 1.500 . S
C51 C52 1.371 . S
C51 C53 1.365 . S
C52 C51 1.371 . S
C52 C62 1.386 . S
C52 H70 0.931 . S
C53 C51 1.365 . S
C53 C54 1.409 . S
C53 H71 0.929 . S
C54 C53 1.409 . S
C54 C55 1.380 . S
C54 H72 0.930 . S
C55 C54 1.380 . S
C55 C62 1.357 . S
C56 C47 1.511 . S
C56 C57 1.341 . S
C56 C58 1.371 . S
C57 C56 1.341 . S
C57 C61 1.394 . S
C57 H73 0.930 . S
C58 C56 1.371 . S
C58 C59 1.392 . S
C58 H74 0.931 . S
C59 C58 1.392 . S
C59 C60 1.331 . S
C59 H77 0.932 . S
C60 C59 1.331 . S
C60 C61 1.336 . S
C61 C57 1.394 . S
C61 C60 1.336 . S
C61 H76 0.929 . S
C62 C52 1.386 . S
C62 C55 1.357 . S
C62 H75 0.928 . S
H63 C39 0.931 . S
H64 C41 0.930 . S
H65 C43 0.929 . S
H66 C44 0.931 . S
H67 C46 0.930 . S
H68 C50 0.931 . S
H69 C48 0.931 . S
H70 C52 0.931 . S
H71 C53 0.929 . S
H72 C54 0.930 . S
H73 C57 0.930 . S
H74 C58 0.931 . S
H75 C62 0.928 . S
H76 C61 0.929 . S
H77 C59 0.932 . S
C78 C79 1.386 . S
C78 C80 1.397 . S
C78 H102 0.931 . S
C79 C78 1.386 . S
C79 C83 1.397 . S
C80 C78 1.397 . S
C80 C81 1.384 . S
C80 H103 0.930 . S
C81 C80 1.384 . S
C81 C82 1.377 . S
C81 C84 1.481 . S
C82 C81 1.377 . S
C82 C83 1.389 . S
C82 H104 0.929 . S
C83 C79 1.397 . S
C83 C82 1.389 . S
C83 H105 0.931 . S
C84 C81 1.481 . S
C84 C85 1.387 . S
C84 C89 1.390 . S
C85 C84 1.387 . S
C85 C86 1.401 . S
C85 H106 0.930 . S
C86 C85 1.401 . S
C86 C87 1.376 . S
C86 C95 1.511 . S
C87 C86 1.376 . S
C87 C88 1.392 . S
C87 H108 0.931 . S
C88 C87 1.392 . S
C88 C89 1.361 . S
C88 C90 1.500 . S
C89 C84 1.390 . S
C89 C88 1.361 . S
C89 H107 0.931 . S
C90 C88 1.500 . S
C90 C91 1.371 . S
C90 C92 1.365 . S
C91 C90 1.371 . S
C91 C101 1.386 . S
C91 H109 0.931 . S
C92 C90 1.365 . S
C92 C93 1.409 . S
C92 H110 0.929 . S
C93 C92 1.409 . S
C93 C94 1.380 . S
C93 H111 0.930 . S
C94 C93 1.380 . S
C94 C101 1.357 . S
C95 C86 1.511 . S
C95 C96 1.341 . S
C95 C97 1.371 . S
C96 C95 1.341 . S
C96 C100 1.394 . S
C96 H112 0.930 . S
C97 C95 1.371 . S
C97 C98 1.392 . S
C97 H113 0.931 . S
C98 C97 1.392 . S
C98 C99 1.331 . S
C98 H116 0.932 . S
C99 C98 1.331 . S
C99 C100 1.336 . S
C100 C96 1.394 . S
C100 C99 1.336 . S
C100 H115 0.929 . S
C101 C91 1.386 . S
C101 C94 1.357 . S
C101 H114 0.928 . S
H102 C78 0.931 . S
H103 C80 0.930 . S
H104 C82 0.929 . S
H105 C83 0.931 . S
H106 C85 0.930 . S
H107 C89 0.931 . S
H108 C87 0.931 . S
H109 C91 0.931 . S
H110 C92 0.929 . S
H111 C93 0.930 . S
H112 C96 0.930 . S
H113 C97 0.931 . S
H114 C101 0.928 . S
H115 C100 0.929 . S
H116 C98 0.932 . S
C117 C118 1.386 . S
C117 C119 1.397 . S
C117 H141 0.931 . S
C118 C117 1.386 . S
C118 C122 1.397 . S
C119 C117 1.397 . S
C119 C120 1.384 . S
C119 H142 0.930 . S
C120 C119 1.384 . S
C120 C121 1.377 . S
C120 C123 1.481 . S
C121 C120 1.377 . S
C121 C122 1.389 . S
C121 H143 0.929 . S
C122 C118 1.397 . S
C122 C121 1.389 . S
C122 H144 0.931 . S
C123 C120 1.481 . S
C123 C124 1.387 . S
C123 C128 1.390 . S
C124 C123 1.387 . S
C124 C125 1.401 . S
C124 H145 0.930 . S
C125 C124 1.401 . S
C125 C126 1.376 . S
C125 C134 1.511 . S
C126 C125 1.376 . S
C126 C127 1.392 . S
C126 H147 0.931 . S
C127 C126 1.392 . S
C127 C128 1.361 . S
C127 C129 1.500 . S
C128 C123 1.390 . S
C128 C127 1.361 . S
C128 H146 0.931 . S
C129 C127 1.500 . S
C129 C130 1.371 . S
C129 C131 1.365 . S
C130 C129 1.371 . S
C130 C140 1.386 . S
C130 H148 0.931 . S
C131 C129 1.365 . S
C131 C132 1.409 . S
C131 H149 0.929 . S
C132 C131 1.409 . S
C132 C133 1.380 . S
C132 H150 0.930 . S
C133 C132 1.380 . S
C133 C140 1.357 . S
C134 C125 1.511 . S
C134 C135 1.341 . S
C134 C136 1.371 . S
C135 C134 1.341 . S
C135 C139 1.394 . S
C135 H151 0.930 . S
C136 C134 1.371 . S
C136 C137 1.392 . S
C136 H152 0.931 . S
C137 C136 1.392 . S
C137 C138 1.331 . S
C137 H155 0.932 . S
C138 C137 1.331 . S
C138 C139 1.336 . S
C139 C135 1.394 . S
C139 C138 1.336 . S
C139 H154 0.929 . S
C140 C130 1.386 . S
C140 C133 1.357 . S
C140 H153 0.928 . S
H141 C117 0.931 . S
H142 C119 0.930 . S
H143 C121 0.929 . S
H144 C122 0.931 . S
H145 C124 0.930 . S
H146 C128 0.931 . S
H147 C126 0.931 . S
H148 C130 0.931 . S
H149 C131 0.929 . S
H150 C132 0.930 . S
H151 C135 0.930 . S
H152 C136 0.931 . S
H153 C140 0.928 . S
H154 C139 0.929 . S
H155 C137 0.932 . S
C156 C157 1.386 . S
C156 C158 1.397 . S
C156 H180 0.931 . S
C157 C156 1.386 . S
C157 C161 1.397 . S
C158 C156 1.397 . S
C158 C159 1.384 . S
C158 H181 0.930 . S
C159 C158 1.384 . S
C159 C160 1.377 . S
C159 C162 1.481 . S
C160 C159 1.377 . S
C160 C161 1.389 . S
C160 H182 0.929 . S
C161 C157 1.397 . S
C161 C160 1.389 . S
C161 H183 0.931 . S
C162 C159 1.481 . S
C162 C163 1.387 . S
C162 C167 1.390 . S
C163 C162 1.387 . S
C163 C164 1.401 . S
C163 H184 0.930 . S
C164 C163 1.401 . S
C164 C165 1.376 . S
C164 C173 1.511 . S
C165 C164 1.376 . S
C165 C166 1.392 . S
C165 H186 0.931 . S
C166 C165 1.392 . S
C166 C167 1.361 . S
C166 C168 1.500 . S
C167 C162 1.390 . S
C167 C166 1.361 . S
C167 H185 0.931 . S
C168 C166 1.500 . S
C168 C169 1.371 . S
C168 C170 1.365 . S
C169 C168 1.371 . S
C169 C179 1.386 . S
C169 H187 0.931 . S
C170 C168 1.365 . S
C170 C171 1.409 . S
C170 H188 0.929 . S
C171 C170 1.409 . S
C171 C172 1.380 . S
C171 H189 0.930 . S
C172 C171 1.380 . S
C172 C179 1.357 . S
C173 C164 1.511 . S
C173 C174 1.341 . S
C173 C175 1.371 . S
C174 C173 1.341 . S
C174 C178 1.394 . S
C174 H190 0.930 . S
C175 C173 1.371 . S
C175 C176 1.392 . S
C175 H191 0.931 . S
C176 C175 1.392 . S
C176 C177 1.331 . S
C176 H194 0.932 . S
C177 C176 1.331 . S
C177 C178 1.336 . S
C178 C174 1.394 . S
C178 C177 1.336 . S
C178 H193 0.929 . S
C179 C169 1.386 . S
C179 C172 1.357 . S
C179 H192 0.928 . S
H180 C156 0.931 . S
H181 C158 0.930 . S
H182 C160 0.929 . S
H183 C161 0.931 . S
H184 C163 0.930 . S
H185 C167 0.931 . S
H186 C165 0.931 . S
H187 C169 0.931 . S
H188 C170 0.929 . S
H189 C171 0.930 . S
H190 C174 0.930 . S
H191 C175 0.931 . S
H192 C179 0.928 . S
H193 C178 0.929 . S
H194 C176 0.932 . S
C195 C196 1.386 . S
C195 C197 1.397 . S
C195 H219 0.931 . S
C196 C195 1.386 . S
C196 C200 1.397 . S
C197 C195 1.397 . S
C197 C198 1.384 . S
C197 H220 0.930 . S
C198 C197 1.384 . S
C198 C199 1.377 . S
C198 C201 1.481 . S
C199 C198 1.377 . S
C199 C200 1.389 . S
C199 H221 0.929 . S
C200 C196 1.397 . S
C200 C199 1.389 . S
C200 H222 0.931 . S
C201 C198 1.481 . S
C201 C202 1.387 . S
C201 C206 1.390 . S
C202 C201 1.387 . S
C202 C203 1.401 . S
C202 H223 0.930 . S
C203 C202 1.401 . S
C203 C204 1.376 . S
C203 C212 1.511 . S
C204 C203 1.376 . S
C204 C205 1.392 . S
C204 H225 0.931 . S
C205 C204 1.392 . S
C205 C206 1.361 . S
C205 C207 1.500 . S
C206 C201 1.390 . S
C206 C205 1.361 . S
C206 H224 0.931 . S
C207 C205 1.500 . S
C207 C208 1.371 . S
C207 C209 1.365 . S
C208 C207 1.371 . S
C208 C218 1.386 . S
C208 H226 0.931 . S
C209 C207 1.365 . S
C209 C210 1.409 . S
C209 H227 0.929 . S
C210 C209 1.409 . S
C210 C211 1.380 . S
C210 H228 0.930 . S
C211 C210 1.380 . S
C211 C218 1.357 . S
C212 C203 1.511 . S
C212 C213 1.341 . S
C212 C214 1.371 . S
C213 C212 1.341 . S
C213 C217 1.394 . S
C213 H229 0.930 . S
C214 C212 1.371 . S
C214 C215 1.392 . S
C214 H230 0.931 . S
C215 C214 1.392 . S
C215 C216 1.331 . S
C215 H233 0.932 . S
C216 C215 1.331 . S
C216 C217 1.336 . S
C217 C213 1.394 . S
C217 C216 1.336 . S
C217 H232 0.929 . S
C218 C208 1.386 . S
C218 C211 1.357 . S
C218 H231 0.928 . S
H219 C195 0.931 . S
H220 C197 0.930 . S
H221 C199 0.929 . S
H222 C200 0.931 . S
H223 C202 0.930 . S
H224 C206 0.931 . S
H225 C204 0.931 . S
H226 C208 0.931 . S
H227 C209 0.929 . S
H228 C210 0.930 . S
H229 C213 0.930 . S
H230 C214 0.931 . S
H231 C218 0.928 . S
H232 C217 0.929 . S
H233 C215 0.932 . S
C234 C235 1.386 . S
C234 C236 1.397 . S
C234 H258 0.931 . S
C235 C234 1.386 . S
C235 C239 1.397 . S
C236 C234 1.397 . S
C236 C237 1.384 . S
C236 H259 0.930 . S
C237 C236 1.384 . S
C237 C238 1.377 . S
C237 C240 1.481 . S
C238 C237 1.377 . S
C238 C239 1.389 . S
C238 H260 0.929 . S
C239 C235 1.397 . S
C239 C238 1.389 . S
C239 H261 0.931 . S
C240 C237 1.481 . S
C240 C241 1.387 . S
C240 C245 1.390 . S
C241 C240 1.387 . S
C241 C242 1.401 . S
C241 H262 0.930 . S
C242 C241 1.401 . S
C242 C243 1.376 . S
C242 C251 1.511 . S
C243 C242 1.376 . S
C243 C244 1.392 . S
C243 H264 0.931 . S
C244 C243 1.392 . S
C244 C245 1.361 . S
C244 C246 1.500 . S
C245 C240 1.390 . S
C245 C244 1.361 . S
C245 H263 0.931 . S
C246 C244 1.500 . S
C246 C247 1.371 . S
C246 C248 1.365 . S
C247 C246 1.371 . S
C247 C257 1.386 . S
C247 H265 0.931 . S
C248 C246 1.365 . S
C248 C249 1.409 . S
C248 H266 0.929 . S
C249 C248 1.409 . S
C249 C250 1.380 . S
C249 H267 0.930 . S
C250 C249 1.380 . S
C250 C257 1.357 . S
C251 C242 1.511 . S
C251 C252 1.341 . S
C251 C253 1.371 . S
C252 C251 1.341 . S
C252 C256 1.394 . S
C252 H268 0.930 . S
C253 C251 1.371 . S
C253 C254 1.392 . S
C253 H269 0.931 . S
C254 C253 1.392 . S
C254 C255 1.331 . S
C254 H272 0.932 . S
C255 C254 1.331 . S
C255 C256 1.336 . S
C256 C252 1.394 . S
C256 C255 1.336 . S
C256 H271 0.929 . S
C257 C247 1.386 . S
C257 C250 1.357 . S
C257 H270 0.928 . S
H258 C234 0.931 . S
H259 C236 0.930 . S
H260 C238 0.929 . S
H261 C239 0.931 . S
H262 C241 0.930 . S
H263 C245 0.931 . S
H264 C243 0.931 . S
H265 C247 0.931 . S
H266 C248 0.929 . S
H267 C249 0.930 . S
H268 C252 0.930 . S
H269 C253 0.931 . S
H270 C257 0.928 . S
H271 C256 0.929 . S
H272 C254 0.932 . S
C273 C274 1.386 . S
C273 C275 1.397 . S
C273 H297 0.931 . S
C274 C273 1.386 . S
C274 C278 1.397 . S
C275 C273 1.397 . S
C275 C276 1.384 . S
C275 H298 0.930 . S
C276 C275 1.384 . S
C276 C277 1.377 . S
C276 C279 1.481 . S
C277 C276 1.377 . S
C277 C278 1.389 . S
C277 H299 0.929 . S
C278 C274 1.397 . S
C278 C277 1.389 . S
C278 H300 0.931 . S
C279 C276 1.481 . S
C279 C280 1.387 . S
C279 C284 1.390 . S
C280 C279 1.387 . S
C280 C281 1.401 . S
C280 H301 0.930 . S
C281 C280 1.401 . S
C281 C282 1.376 . S
C281 C290 1.511 . S
C282 C281 1.376 . S
C282 C283 1.392 . S
C282 H303 0.931 . S
C283 C282 1.392 . S
C283 C284 1.361 . S
C283 C285 1.500 . S
C284 C279 1.390 . S
C284 C283 1.361 . S
C284 H302 0.931 . S
C285 C283 1.500 . S
C285 C286 1.371 . S
C285 C287 1.365 . S
C286 C285 1.371 . S
C286 C296 1.386 . S
C286 H304 0.931 . S
C287 C285 1.365 . S
C287 C288 1.409 . S
C287 H305 0.929 . S
C288 C287 1.409 . S
C288 C289 1.380 . S
C288 H306 0.930 . S
C289 C288 1.380 . S
C289 C296 1.357 . S
C290 C281 1.511 . S
C290 C291 1.341 . S
C290 C292 1.371 . S
C291 C290 1.341 . S
C291 C295 1.394 . S
C291 H307 0.930 . S
C292 C290 1.371 . S
C292 C293 1.392 . S
C292 H308 0.931 . S
C293 C292 1.392 . S
C293 C294 1.331 . S
C293 H311 0.932 . S
C294 C293 1.331 . S
C294 C295 1.336 . S
C295 C291 1.394 . S
C295 C294 1.336 . S
C295 H310 0.929 . S
C296 C286 1.386 . S
C296 C289 1.357 . S
C296 H309 0.928 . S
H297 C273 0.931 . S
H298 C275 0.930 . S
H299 C277 0.929 . S
H300 C278 0.931 . S
H301 C280 0.930 . S
H302 C284 0.931 . S
H303 C282 0.931 . S
H304 C286 0.931 . S
H305 C287 0.929 . S
H306 C288 0.930 . S
H307 C291 0.930 . S
H308 C292 0.931 . S
H309 C296 0.928 . S
H310 C295 0.929 . S
H311 C293 0.932 . S
Eu312 N341 2.600 . S
Eu312 N347 2.562 . S
Eu312 O356 2.462 . S
Eu312 O357 2.373 . S
Eu312 O359 2.432 . S
Eu312 O360 2.291 . S
Eu312 O364 2.335 . S
Eu312 O367 2.372 . S
Eu312 C376 2.787 . S
C313 N314 1.365 . S
C313 C316 1.405 . S
C313 C320 1.448 . S
N314 C313 1.365 . S
N314 C317 1.319 . S
N314 Eu323 2.600 . S
C315 C317 1.397 . S
C315 C318 1.367 . S
C315 H335 0.931 . S
C316 C313 1.405 . S
C316 C318 1.403 . S
C316 C322 1.439 . S
C317 N314 1.319 . S
C317 C315 1.397 . S
C317 H328 0.930 . S
C318 C315 1.367 . S
C318 C316 1.403 . S
C318 H339 0.929 . S
C319 C320 1.430 . S
C319 C321 1.387 . S
C319 C325 1.404 . S
C320 C313 1.448 . S
C320 C319 1.430 . S
C320 N324 1.351 . S
C321 C319 1.387 . S
C321 C322 1.374 . S
C321 H336 0.931 . S
C322 C316 1.439 . S
C322 C321 1.374 . S
C322 H337 0.931 . S
Eu323 N314 2.600 . S
Eu323 N324 2.562 . S
Eu323 O358 2.335 1_655 S
Eu323 O361 2.372 . S
Eu323 O362 2.462 . S
Eu323 O363 2.373 . S
Eu323 O365 2.432 . S
Eu323 O366 2.291 1_655 S
Eu323 C387 2.787 . S
N324 C320 1.351 . S
N324 Eu323 2.562 . S
N324 C326 1.325 . S
C325 C319 1.404 . S
C325 C327 1.366 . S
C325 H333 0.930 . S
C326 N324 1.325 . S
C326 C327 1.416 . S
C326 H332 0.929 . S
C327 C325 1.366 . S
C327 C326 1.416 . S
C327 H329 0.930 . S
H328 C317 0.930 . S
H329 C327 0.930 . S
H330 C345 0.930 . S
H331 C352 0.930 . S
H332 C326 0.929 . S
H333 C325 0.930 . S
H334 C348 0.929 . S
H335 C315 0.931 . S
H336 C321 0.931 . S
H337 C322 0.931 . S
H338 C343 0.931 . S
H339 C318 0.929 . S
H340 C351 0.930 . S
N341 Eu312 2.600 . S
N341 C342 1.365 . S
N341 C345 1.319 . S
C342 N341 1.365 . S
C342 C344 1.405 . S
C342 C350 1.448 . S
C343 H338 0.931 . S
C343 C345 1.397 . S
C343 C346 1.367 . S
C344 C342 1.405 . S
C344 C346 1.403 . S
C344 C377 1.439 . S
C345 H330 0.930 . S
C345 N341 1.319 . S
C345 C343 1.397 . S
C346 C343 1.367 . S
C346 C344 1.403 . S
C346 H353 0.929 . S
N347 Eu312 2.562 . S
N347 C348 1.325 . S
N347 C350 1.351 . S
C348 H334 0.929 . S
C348 N347 1.325 . S
C348 C352 1.416 . S
C349 C350 1.430 . S
C349 C351 1.404 . S
C349 C378 1.387 . S
C350 C342 1.448 . S
C350 N347 1.351 . S
C350 C349 1.430 . S
C351 H340 0.930 . S
C351 C349 1.404 . S
C351 C352 1.366 . S
C352 H331 0.930 . S
C352 C348 1.416 . S
C352 C351 1.366 . S
H353 C346 0.929 . S
H354 C377 0.931 . S
H355 C378 0.931 . S
O356 Eu312 2.462 . S
O356 C376 1.252 . S
O357 Eu312 2.373 . S
O357 C368 1.249 . S
O358 Eu323 2.335 1_455 S
O358 C368 1.264 . S
O359 Eu312 2.432 . S
O359 C376 1.268 . S
O360 Eu312 2.291 . S
O360 C375 1.255 1_455 S
O361 Eu323 2.372 . S
O361 C375 1.257 . S
O362 Eu323 2.462 . S
O362 C387 1.252 . S
O363 Eu323 2.373 . S
O363 C379 1.249 . S
O364 Eu312 2.335 . S
O364 C379 1.264 1_455 S
O365 Eu323 2.432 . S
O365 C387 1.268 . S
O366 Eu323 2.291 1_455 S
O366 C386 1.255 . S
O367 Eu312 2.372 . S
O367 C386 1.257 . S
C368 O357 1.249 . S
C368 O358 1.264 . S
C369 C372 1.382 . S
C369 C374 1.390 . S
C369 C376 1.506 . S
C370 C371 1.398 . S
C370 C374 1.392 . S
C371 C370 1.398 . S
C371 C373 1.372 . S
C371 H388 0.931 . S
C372 C369 1.382 . S
C372 C373 1.390 . S
C372 H389 0.931 . S
C373 C371 1.372 . S
C373 C372 1.390 . S
C373 H390 0.929 . S
C374 C369 1.390 . S
C374 C370 1.392 . S
C374 H391 0.930 . S
C375 O360 1.255 1_655 S
C375 O361 1.257 . S
C376 Eu312 2.787 . S
C376 O356 1.252 . S
C376 O359 1.268 . S
C376 C369 1.506 . S
C377 C344 1.439 . S
C377 H354 0.931 . S
C377 C378 1.374 . S
C378 C349 1.387 . S
C378 H355 0.931 . S
C378 C377 1.374 . S
C379 O363 1.249 . S
C379 O364 1.264 1_655 S
C380 C383 1.382 . S
C380 C384 1.390 . S
C380 C387 1.506 . S
C381 C382 1.398 . S
C381 C384 1.392 . S
C382 C381 1.398 . S
C382 C385 1.372 . S
C382 H392 0.931 . S
C383 C380 1.382 . S
C383 C385 1.390 . S
C383 H393 0.931 . S
C384 C380 1.390 . S
C384 C381 1.392 . S
C384 H394 0.930 . S
C385 C382 1.372 . S
C385 C383 1.390 . S
C385 H395 0.929 . S
C386 O366 1.255 . S
C386 O367 1.257 . S
C387 Eu323 2.787 . S
C387 O362 1.252 . S
C387 O365 1.268 . S
C387 C380 1.506 . S
H388 C371 0.931 . S
H389 C372 0.931 . S
H390 C373 0.929 . S
H391 C374 0.930 . S
H392 C382 0.931 . S
H393 C383 0.931 . S
H394 C384 0.930 . S
H395 C385 0.929 . S
Eu396 N425 2.600 . S
Eu396 N431 2.562 . S
Eu396 O440 2.462 . S
Eu396 O441 2.373 . S
Eu396 O443 2.432 . S
Eu396 O444 2.291 . S
Eu396 O448 2.335 . S
Eu396 O451 2.372 . S
Eu396 C460 2.787 . S
C397 N398 1.365 . S
C397 C400 1.405 . S
C397 C404 1.448 . S
N398 C397 1.365 . S
N398 C401 1.319 . S
N398 Eu407 2.600 . S
C399 C401 1.397 . S
C399 C402 1.367 . S
C399 H419 0.931 . S
C400 C397 1.405 . S
C400 C402 1.403 . S
C400 C406 1.439 . S
C401 N398 1.319 . S
C401 C399 1.397 . S
C401 H412 0.930 . S
C402 C399 1.367 . S
C402 C400 1.403 . S
C402 H423 0.929 . S
C403 C404 1.430 . S
C403 C405 1.387 . S
C403 C409 1.404 . S
C404 C397 1.448 . S
C404 C403 1.430 . S
C404 N408 1.351 . S
C405 C403 1.387 . S
C405 C406 1.374 . S
C405 H420 0.931 . S
C406 C400 1.439 . S
C406 C405 1.374 . S
C406 H421 0.931 . S
Eu407 N398 2.600 . S
Eu407 N408 2.562 . S
Eu407 O442 2.335 . S
Eu407 O445 2.372 . S
Eu407 O446 2.462 . S
Eu407 O447 2.373 . S
Eu407 O449 2.432 . S
Eu407 O450 2.291 . S
Eu407 C471 2.787 . S
N408 C404 1.351 . S
N408 Eu407 2.562 . S
N408 C410 1.325 . S
C409 C403 1.404 . S
C409 C411 1.366 . S
C409 H417 0.930 . S
C410 N408 1.325 . S
C410 C411 1.416 . S
C410 H416 0.929 . S
C411 C409 1.366 . S
C411 C410 1.416 . S
C411 H413 0.930 . S
H412 C401 0.930 . S
H413 C411 0.930 . S
H414 C429 0.930 . S
H415 C436 0.930 . S
H416 C410 0.929 . S
H417 C409 0.930 . S
H418 C432 0.929 . S
H419 C399 0.931 . S
H420 C405 0.931 . S
H421 C406 0.931 . S
H422 C427 0.931 . S
H423 C402 0.929 . S
H424 C435 0.930 . S
N425 Eu396 2.600 . S
N425 C426 1.365 . S
N425 C429 1.319 . S
C426 N425 1.365 . S
C426 C428 1.405 . S
C426 C434 1.448 . S
C427 H422 0.931 . S
C427 C429 1.397 . S
C427 C430 1.367 . S
C428 C426 1.405 . S
C428 C430 1.403 . S
C428 C461 1.439 . S
C429 H414 0.930 . S
C429 N425 1.319 . S
C429 C427 1.397 . S
C430 C427 1.367 . S
C430 C428 1.403 . S
C430 H437 0.929 . S
N431 Eu396 2.562 . S
N431 C432 1.325 . S
N431 C434 1.351 . S
C432 H418 0.929 . S
C432 N431 1.325 . S
C432 C436 1.416 . S
C433 C434 1.430 . S
C433 C435 1.404 . S
C433 C462 1.387 . S
C434 C426 1.448 . S
C434 N431 1.351 . S
C434 C433 1.430 . S
C435 H424 0.930 . S
C435 C433 1.404 . S
C435 C436 1.366 . S
C436 H415 0.930 . S
C436 C432 1.416 . S
C436 C435 1.366 . S
H437 C430 0.929 . S
H438 C461 0.931 . S
H439 C462 0.931 . S
O440 Eu396 2.462 . S
O440 C460 1.252 . S
O441 Eu396 2.373 . S
O441 C452 1.249 . S
O442 Eu407 2.335 . S
O442 C452 1.264 . S
O443 Eu396 2.432 . S
O443 C460 1.268 . S
O444 Eu396 2.291 . S
O444 C459 1.255 . S
O445 Eu407 2.372 . S
O445 C459 1.257 . S
O446 Eu407 2.462 . S
O446 C471 1.252 . S
O447 Eu407 2.373 . S
O447 C463 1.249 . S
O448 Eu396 2.335 . S
O448 C463 1.264 . S
O449 Eu407 2.432 . S
O449 C471 1.268 . S
O450 Eu407 2.291 . S
O450 C470 1.255 . S
O451 Eu396 2.372 . S
O451 C470 1.257 . S
C452 O441 1.249 . S
C452 O442 1.264 . S
C453 C456 1.382 . S
C453 C458 1.390 . S
C453 C460 1.506 . S
C454 C455 1.398 . S
C454 C458 1.392 . S
C455 C454 1.398 . S
C455 C457 1.372 . S
C455 H472 0.931 . S
C456 C453 1.382 . S
C456 C457 1.390 . S
C456 H473 0.931 . S
C457 C455 1.372 . S
C457 C456 1.390 . S
C457 H474 0.929 . S
C458 C453 1.390 . S
C458 C454 1.392 . S
C458 H475 0.930 . S
C459 O444 1.255 . S
C459 O445 1.257 . S
C460 Eu396 2.787 . S
C460 O440 1.252 . S
C460 O443 1.268 . S
C460 C453 1.506 . S
C461 C428 1.439 . S
C461 H438 0.931 . S
C461 C462 1.374 . S
C462 C433 1.387 . S
C462 H439 0.931 . S
C462 C461 1.374 . S
C463 O447 1.249 . S
C463 O448 1.264 . S
C464 C467 1.382 . S
C464 C468 1.390 . S
C464 C471 1.506 . S
C465 C466 1.398 . S
C465 C468 1.392 . S
C466 C465 1.398 . S
C466 C469 1.372 . S
C466 H476 0.931 . S
C467 C464 1.382 . S
C467 C469 1.390 . S
C467 H477 0.931 . S
C468 C464 1.390 . S
C468 C465 1.392 . S
C468 H478 0.930 . S
C469 C466 1.372 . S
C469 C467 1.390 . S
C469 H479 0.929 . S
C470 O450 1.255 . S
C470 O451 1.257 . S
C471 Eu407 2.787 . S
C471 O446 1.252 . S
C471 O449 1.268 . S
C471 C464 1.506 . S
H472 C455 0.931 . S
H473 C456 0.931 . S
H474 C457 0.929 . S
H475 C458 0.930 . S
H476 C466 0.931 . S
H477 C467 0.931 . S
H478 C468 0.930 . S
H479 C469 0.929 . S
Eu480 N509 2.600 . S
Eu480 N515 2.562 . S
Eu480 O524 2.462 . S
Eu480 O525 2.373 . S
Eu480 O527 2.432 . S
Eu480 O528 2.291 . S
Eu480 O532 2.335 . S
Eu480 O535 2.372 . S
Eu480 C544 2.787 . S
C481 N482 1.365 . S
C481 C484 1.405 . S
C481 C488 1.448 . S
N482 C481 1.365 . S
N482 C485 1.319 . S
N482 Eu491 2.600 . S
C483 C485 1.397 . S
C483 C486 1.367 . S
C483 H503 0.931 . S
C484 C481 1.405 . S
C484 C486 1.403 . S
C484 C490 1.439 . S
C485 N482 1.319 . S
C485 C483 1.397 . S
C485 H496 0.930 . S
C486 C483 1.367 . S
C486 C484 1.403 . S
C486 H507 0.929 . S
C487 C488 1.430 . S
C487 C489 1.387 . S
C487 C493 1.404 . S
C488 C481 1.448 . S
C488 C487 1.430 . S
C488 N492 1.351 . S
C489 C487 1.387 . S
C489 C490 1.374 . S
C489 H504 0.931 . S
C490 C484 1.439 . S
C490 C489 1.374 . S
C490 H505 0.931 . S
Eu491 N482 2.600 . S
Eu491 N492 2.562 . S
Eu491 O526 2.335 1_655 S
Eu491 O529 2.372 . S
Eu491 O530 2.462 . S
Eu491 O531 2.373 . S
Eu491 O533 2.432 . S
Eu491 O534 2.291 1_655 S
Eu491 C555 2.787 . S
N492 C488 1.351 . S
N492 Eu491 2.562 . S
N492 C494 1.325 . S
C493 C487 1.404 . S
C493 C495 1.366 . S
C493 H501 0.930 . S
C494 N492 1.325 . S
C494 C495 1.416 . S
C494 H500 0.929 . S
C495 C493 1.366 . S
C495 C494 1.416 . S
C495 H497 0.930 . S
H496 C485 0.930 . S
H497 C495 0.930 . S
H498 C513 0.930 . S
H499 C520 0.930 . S
H500 C494 0.929 . S
H501 C493 0.930 . S
H502 C516 0.929 . S
H503 C483 0.931 . S
H504 C489 0.931 . S
H505 C490 0.931 . S
H506 C511 0.931 . S
H507 C486 0.929 . S
H508 C519 0.930 . S
N509 Eu480 2.600 . S
N509 C510 1.365 . S
N509 C513 1.319 . S
C510 N509 1.365 . S
C510 C512 1.405 . S
C510 C518 1.448 . S
C511 H506 0.931 . S
C511 C513 1.397 . S
C511 C514 1.367 . S
C512 C510 1.405 . S
C512 C514 1.403 . S
C512 C545 1.439 . S
C513 H498 0.930 . S
C513 N509 1.319 . S
C513 C511 1.397 . S
C514 C511 1.367 . S
C514 C512 1.403 . S
C514 H521 0.929 . S
N515 Eu480 2.562 . S
N515 C516 1.325 . S
N515 C518 1.351 . S
C516 H502 0.929 . S
C516 N515 1.325 . S
C516 C520 1.416 . S
C517 C518 1.430 . S
C517 C519 1.404 . S
C517 C546 1.387 . S
C518 C510 1.448 . S
C518 N515 1.351 . S
C518 C517 1.430 . S
C519 H508 0.930 . S
C519 C517 1.404 . S
C519 C520 1.366 . S
C520 H499 0.930 . S
C520 C516 1.416 . S
C520 C519 1.366 . S
H521 C514 0.929 . S
H522 C545 0.931 . S
H523 C546 0.931 . S
O524 Eu480 2.462 . S
O524 C544 1.252 . S
O525 Eu480 2.373 . S
O525 C536 1.249 . S
O526 Eu491 2.335 1_455 S
O526 C536 1.264 . S
O527 Eu480 2.432 . S
O527 C544 1.268 . S
O528 Eu480 2.291 . S
O528 C543 1.255 1_455 S
O529 Eu491 2.372 . S
O529 C543 1.257 . S
O530 Eu491 2.462 . S
O530 C555 1.252 . S
O531 Eu491 2.373 . S
O531 C547 1.249 . S
O532 Eu480 2.335 . S
O532 C547 1.264 1_455 S
O533 Eu491 2.432 . S
O533 C555 1.268 . S
O534 Eu491 2.291 1_455 S
O534 C554 1.255 . S
O535 Eu480 2.372 . S
O535 C554 1.257 . S
C536 O525 1.249 . S
C536 O526 1.264 . S
C537 C540 1.382 . S
C537 C542 1.390 . S
C537 C544 1.506 . S
C538 C539 1.398 . S
C538 C542 1.392 . S
C539 C538 1.398 . S
C539 C541 1.372 . S
C539 H556 0.931 . S
C540 C537 1.382 . S
C540 C541 1.390 . S
C540 H557 0.931 . S
C541 C539 1.372 . S
C541 C540 1.390 . S
C541 H558 0.929 . S
C542 C537 1.390 . S
C542 C538 1.392 . S
C542 H559 0.930 . S
C543 O528 1.255 1_655 S
C543 O529 1.257 . S
C544 Eu480 2.787 . S
C544 O524 1.252 . S
C544 O527 1.268 . S
C544 C537 1.506 . S
C545 C512 1.439 . S
C545 H522 0.931 . S
C545 C546 1.374 . S
C546 C517 1.387 . S
C546 H523 0.931 . S
C546 C545 1.374 . S
C547 O531 1.249 . S
C547 O532 1.264 1_655 S
C548 C551 1.382 . S
C548 C552 1.390 . S
C548 C555 1.506 . S
C549 C550 1.398 . S
C549 C552 1.392 . S
C550 C549 1.398 . S
C550 C553 1.372 . S
C550 H560 0.931 . S
C551 C548 1.382 . S
C551 C553 1.390 . S
C551 H561 0.931 . S
C552 C548 1.390 . S
C552 C549 1.392 . S
C552 H562 0.930 . S
C553 C550 1.372 . S
C553 C551 1.390 . S
C553 H563 0.929 . S
C554 O534 1.255 . S
C554 O535 1.257 . S
C555 Eu491 2.787 . S
C555 O530 1.252 . S
C555 O533 1.268 . S
C555 C548 1.506 . S
H556 C539 0.931 . S
H557 C540 0.931 . S
H558 C541 0.929 . S
H559 C542 0.930 . S
H560 C550 0.931 . S
H561 C551 0.931 . S
H562 C552 0.930 . S
H563 C553 0.929 . S
Eu564 N593 2.600 . S
Eu564 N599 2.562 . S
Eu564 O608 2.462 . S
Eu564 O609 2.373 . S
Eu564 O611 2.432 . S
Eu564 O612 2.291 . S
Eu564 O616 2.335 . S
Eu564 O619 2.372 . S
Eu564 C628 2.787 . S
C565 N566 1.365 . S
C565 C568 1.405 . S
C565 C572 1.448 . S
N566 C565 1.365 . S
N566 C569 1.319 . S
N566 Eu575 2.600 . S
C567 C569 1.397 . S
C567 C570 1.367 . S
C567 H587 0.931 . S
C568 C565 1.405 . S
C568 C570 1.403 . S
C568 C574 1.439 . S
C569 N566 1.319 . S
C569 C567 1.397 . S
C569 H580 0.930 . S
C570 C567 1.367 . S
C570 C568 1.403 . S
C570 H591 0.929 . S
C571 C572 1.430 . S
C571 C573 1.387 . S
C571 C577 1.404 . S
C572 C565 1.448 . S
C572 C571 1.430 . S
C572 N576 1.351 . S
C573 C571 1.387 . S
C573 C574 1.374 . S
C573 H588 0.931 . S
C574 C568 1.439 . S
C574 C573 1.374 . S
C574 H589 0.931 . S
Eu575 N566 2.600 . S
Eu575 N576 2.562 . S
Eu575 O610 2.335 . S
Eu575 O613 2.372 . S
Eu575 O614 2.462 . S
Eu575 O615 2.373 . S
Eu575 O617 2.432 . S
Eu575 O618 2.291 . S
Eu575 C639 2.787 . S
N576 C572 1.351 . S
N576 Eu575 2.562 . S
N576 C578 1.325 . S
C577 C571 1.404 . S
C577 C579 1.366 . S
C577 H585 0.930 . S
C578 N576 1.325 . S
C578 C579 1.416 . S
C578 H584 0.929 . S
C579 C577 1.366 . S
C579 C578 1.416 . S
C579 H581 0.930 . S
H580 C569 0.930 . S
H581 C579 0.930 . S
H582 C597 0.930 . S
H583 C604 0.930 . S
H584 C578 0.929 . S
H585 C577 0.930 . S
H586 C600 0.929 . S
H587 C567 0.931 . S
H588 C573 0.931 . S
H589 C574 0.931 . S
H590 C595 0.931 . S
H591 C570 0.929 . S
H592 C603 0.930 . S
N593 Eu564 2.600 . S
N593 C594 1.365 . S
N593 C597 1.319 . S
C594 N593 1.365 . S
C594 C596 1.405 . S
C594 C602 1.448 . S
C595 H590 0.931 . S
C595 C597 1.397 . S
C595 C598 1.367 . S
C596 C594 1.405 . S
C596 C598 1.403 . S
C596 C629 1.439 . S
C597 H582 0.930 . S
C597 N593 1.319 . S
C597 C595 1.397 . S
C598 C595 1.367 . S
C598 C596 1.403 . S
C598 H605 0.929 . S
N599 Eu564 2.562 . S
N599 C600 1.325 . S
N599 C602 1.351 . S
C600 H586 0.929 . S
C600 N599 1.325 . S
C600 C604 1.416 . S
C601 C602 1.430 . S
C601 C603 1.404 . S
C601 C630 1.387 . S
C602 C594 1.448 . S
C602 N599 1.351 . S
C602 C601 1.430 . S
C603 H592 0.930 . S
C603 C601 1.404 . S
C603 C604 1.366 . S
C604 H583 0.930 . S
C604 C600 1.416 . S
C604 C603 1.366 . S
H605 C598 0.929 . S
H606 C629 0.931 . S
H607 C630 0.931 . S
O608 Eu564 2.462 . S
O608 C628 1.252 . S
O609 Eu564 2.373 . S
O609 C620 1.249 . S
O610 Eu575 2.335 . S
O610 C620 1.264 . S
O611 Eu564 2.432 . S
O611 C628 1.268 . S
O612 Eu564 2.291 . S
O612 C627 1.255 . S
O613 Eu575 2.372 . S
O613 C627 1.257 . S
O614 Eu575 2.462 . S
O614 C639 1.252 . S
O615 Eu575 2.373 . S
O615 C631 1.249 . S
O616 Eu564 2.335 . S
O616 C631 1.264 . S
O617 Eu575 2.432 . S
O617 C639 1.268 . S
O618 Eu575 2.291 . S
O618 C638 1.255 . S
O619 Eu564 2.372 . S
O619 C638 1.257 . S
C620 O609 1.249 . S
C620 O610 1.264 . S
C621 C624 1.382 . S
C621 C626 1.390 . S
C621 C628 1.506 . S
C622 C623 1.398 . S
C622 C626 1.392 . S
C623 C622 1.398 . S
C623 C625 1.372 . S
C623 H640 0.931 . S
C624 C621 1.382 . S
C624 C625 1.390 . S
C624 H641 0.931 . S
C625 C623 1.372 . S
C625 C624 1.390 . S
C625 H642 0.929 . S
C626 C621 1.390 . S
C626 C622 1.392 . S
C626 H643 0.930 . S
C627 O612 1.255 . S
C627 O613 1.257 . S
C628 Eu564 2.787 . S
C628 O608 1.252 . S
C628 O611 1.268 . S
C628 C621 1.506 . S
C629 C596 1.439 . S
C629 H606 0.931 . S
C629 C630 1.374 . S
C630 C601 1.387 . S
C630 H607 0.931 . S
C630 C629 1.374 . S
C631 O615 1.249 . S
C631 O616 1.264 . S
C632 C635 1.382 . S
C632 C636 1.390 . S
C632 C639 1.506 . S
C633 C634 1.398 . S
C633 C636 1.392 . S
C634 C633 1.398 . S
C634 C637 1.372 . S
C634 H644 0.931 . S
C635 C632 1.382 . S
C635 C637 1.390 . S
C635 H645 0.931 . S
C636 C632 1.390 . S
C636 C633 1.392 . S
C636 H646 0.930 . S
C637 C634 1.372 . S
C637 C635 1.390 . S
C637 H647 0.929 . S
C638 O618 1.255 . S
C638 O619 1.257 . S
C639 Eu575 2.787 . S
C639 O614 1.252 . S
C639 O617 1.268 . S
C639 C632 1.506 . S
H640 C623 0.931 . S
H641 C624 0.931 . S
H642 C625 0.929 . S
H643 C626 0.930 . S
H644 C634 0.931 . S
H645 C635 0.931 . S
H646 C636 0.930 . S
H647 C637 0.929 . S
H648 C656 0.929 . S
H649 C658 0.930 . S
H650 C660 0.930 . S
H651 C663 0.929 . S
H652 C666 0.930 . S
H653 C668 0.960 . S
H654 C668 0.960 . S
H655 C668 0.920 1_565 S
C656 H648 0.929 . S
C656 C657 1.377 . S
C656 C658 1.384 1_565 S
C657 C656 1.377 . S
C657 C663 1.390 . S
C658 H649 0.930 . S
C658 C656 1.384 1_545 S
C658 C659 1.378 . S
C659 C658 1.378 . S
C659 C660 1.371 1_545 S
C659 C664 1.512 . S
C660 H650 0.930 . S
C660 C659 1.371 1_565 S
C660 C663 1.386 . S
H661 C677 0.930 . S
H662 C678 0.931 . S
C663 H651 0.929 . S
C663 C657 1.390 . S
C663 C660 1.386 . S
C664 C659 1.512 . S
C664 C666 1.395 . S
C664 C667 1.403 . S
H665 C671 0.930 . S
C666 H652 0.930 . S
C666 C664 1.395 . S
C666 C669 1.403 . S
C667 C664 1.403 . S
C667 C668 1.524 . S
C667 C671 1.400 . S
C668 H653 0.960 . S
C668 H654 0.960 . S
C668 H655 0.920 1_545 S
C668 C667 1.524 . S
C669 C666 1.403 . S
C669 C670 1.392 . S
C669 C673 1.495 . S
C670 C669 1.392 . S
C670 C671 1.385 . S
C670 C672 1.478 . S
C671 H665 0.930 . S
C671 C667 1.400 . S
C671 C670 1.385 . S
C672 C670 1.478 . S
C672 C674 1.381 . S
C672 C678 1.383 . S
C673 C669 1.495 . S
C673 H679 0.959 . S
C673 H680 0.961 . S
C673 H681 0.960 . S
C674 C672 1.381 . S
C674 C675 1.394 . S
C674 H682 0.930 . S
C675 C674 1.394 . S
C675 C676 1.383 . S
C675 H683 0.929 . S
C676 C675 1.383 . S
C676 C677 1.377 . S
C677 H661 0.930 . S
C677 C676 1.377 . S
C677 C678 1.379 . S
C678 H662 0.931 . S
C678 C672 1.383 . S
C678 C677 1.379 . S
H679 C673 0.959 . S
H680 C673 0.961 . S
H681 C673 0.960 . S
H682 C674 0.930 . S
H683 C675 0.929 . S
H684 C692 0.929 . S
H685 C694 0.930 . S
H686 C696 0.930 . S
H687 C699 0.929 . S
H688 C702 0.930 . S
H689 C704 0.960 . S
H690 C704 0.960 . S
H691 C704 0.960 . S
C692 H684 0.929 . S
C692 C693 1.377 . S
C692 C694 1.384 . S
C693 C692 1.377 . S
C693 C699 1.390 . S
C694 H685 0.930 . S
C694 C692 1.384 . S
C694 C695 1.372 . S
C695 C694 1.372 . S
C695 C696 1.400 . S
C695 C700 1.490 . S
C696 H686 0.930 . S
C696 C695 1.400 . S
C696 C699 1.386 . S
H697 C713 0.930 . S
H698 C714 0.931 . S
C699 H687 0.929 . S
C699 C693 1.390 . S
C699 C696 1.386 . S
C700 C695 1.490 . S
C700 C702 1.395 . S
C700 C703 1.403 . S
H701 C707 0.930 . S
C702 H688 0.930 . S
C702 C700 1.395 . S
C702 C705 1.403 . S
C703 C700 1.403 . S
C703 C704 1.524 . S
C703 C707 1.400 . S
C704 H689 0.960 . S
C704 H690 0.960 . S
C704 H691 0.960 . S
C704 C703 1.524 . S
C705 C702 1.403 . S
C705 C706 1.392 . S
C705 C709 1.495 . S
C706 C705 1.392 . S
C706 C707 1.385 . S
C706 C708 1.478 . S
C707 H701 0.930 . S
C707 C703 1.400 . S
C707 C706 1.385 . S
C708 C706 1.478 . S
C708 C710 1.381 . S
C708 C714 1.383 . S
C709 C705 1.495 . S
C709 H715 0.959 . S
C709 H716 0.961 . S
C709 H717 0.960 . S
C710 C708 1.381 . S
C710 C711 1.394 . S
C710 H718 0.930 . S
C711 C710 1.394 . S
C711 C712 1.383 . S
C711 H719 0.929 . S
C712 C711 1.383 . S
C712 C713 1.377 . S
C713 H697 0.930 . S
C713 C712 1.377 . S
C713 C714 1.379 . S
C714 H698 0.931 . S
C714 C708 1.383 . S
C714 C713 1.379 . S
H715 C709 0.959 . S
H716 C709 0.961 . S
H717 C709 0.960 . S
H718 C710 0.930 . S
H719 C711 0.929 . S
H720 C728 0.929 . S
H721 C730 0.930 . S
H722 C732 0.930 . S
H723 C735 0.929 . S
H724 C738 0.930 . S
H725 C740 0.960 . S
H726 C740 0.960 . S
H727 C740 0.960 . S
C728 H720 0.929 . S
C728 C729 1.377 . S
C728 C730 1.384 . S
C729 C728 1.377 . S
C729 C735 1.390 . S
C730 H721 0.930 . S
C730 C728 1.384 . S
C730 C731 1.372 . S
C731 C730 1.372 . S
C731 C732 1.400 . S
C731 C736 1.490 . S
C732 H722 0.930 . S
C732 C731 1.400 . S
C732 C735 1.386 . S
H733 C749 0.930 . S
H734 C750 0.931 . S
C735 H723 0.929 . S
C735 C729 1.390 . S
C735 C732 1.386 . S
C736 C731 1.490 . S
C736 C738 1.395 . S
C736 C739 1.403 . S
H737 C743 0.930 . S
C738 H724 0.930 . S
C738 C736 1.395 . S
C738 C741 1.403 . S
C739 C736 1.403 . S
C739 C740 1.524 . S
C739 C743 1.400 . S
C740 H725 0.960 . S
C740 H726 0.960 . S
C740 H727 0.960 . S
C740 C739 1.524 . S
C741 C738 1.403 . S
C741 C742 1.392 . S
C741 C745 1.495 . S
C742 C741 1.392 . S
C742 C743 1.385 . S
C742 C744 1.478 . S
C743 H737 0.930 . S
C743 C739 1.400 . S
C743 C742 1.385 . S
C744 C742 1.478 . S
C744 C746 1.381 . S
C744 C750 1.383 . S
C745 C741 1.495 . S
C745 H751 0.959 . S
C745 H752 0.961 . S
C745 H753 0.960 . S
C746 C744 1.381 . S
C746 C747 1.394 . S
C746 H754 0.930 . S
C747 C746 1.394 . S
C747 C748 1.383 . S
C747 H755 0.929 . S
C748 C747 1.383 . S
C748 C749 1.377 . S
C749 H733 0.930 . S
C749 C748 1.377 . S
C749 C750 1.379 . S
C750 H734 0.931 . S
C750 C744 1.383 . S
C750 C749 1.379 . S
H751 C745 0.959 . S
H752 C745 0.961 . S
H753 C745 0.960 . S
H754 C746 0.930 . S
H755 C747 0.929 . S
H756 C764 0.929 . S
H757 C766 0.930 . S
H758 C768 0.930 . S
H759 C771 0.929 . S
H760 C774 0.930 . S
H761 C776 0.960 . S
H762 C776 0.960 . S
H763 C776 0.960 1_565 S
C764 H756 0.929 . S
C764 C765 1.377 . S
C764 C766 1.384 1_565 S
C765 C764 1.377 . S
C765 C771 1.390 . S
C766 H757 0.930 . S
C766 C764 1.384 1_545 S
C766 C767 1.372 . S
C767 C766 1.372 . S
C767 C768 1.400 1_545 S
C767 C772 1.490 . S
C768 H758 0.930 . S
C768 C767 1.400 1_565 S
C768 C771 1.386 . S
H769 C785 0.930 . S
H770 C786 0.931 . S
C771 H759 0.929 . S
C771 C765 1.390 . S
C771 C768 1.386 . S
C772 C767 1.490 . S
C772 C774 1.395 . S
C772 C775 1.403 . S
H773 C779 0.930 . S
C774 H760 0.930 . S
C774 C772 1.395 . S
C774 C777 1.403 . S
C775 C772 1.403 . S
C775 C776 1.524 . S
C775 C779 1.400 . S
C776 H761 0.960 . S
C776 H762 0.960 . S
C776 H763 0.960 1_545 S
C776 C775 1.524 . S
C777 C774 1.403 . S
C777 C778 1.392 . S
C777 C781 1.495 . S
C778 C777 1.392 . S
C778 C779 1.385 . S
C778 C780 1.478 . S
C779 H773 0.930 . S
C779 C775 1.400 . S
C779 C778 1.385 . S
C780 C778 1.478 . S
C780 C782 1.381 . S
C780 C786 1.383 . S
C781 C777 1.495 . S
C781 H787 0.959 . S
C781 H788 0.961 . S
C781 H789 0.960 . S
C782 C780 1.381 . S
C782 C783 1.394 . S
C782 H790 0.930 . S
C783 C782 1.394 . S
C783 C784 1.383 . S
C783 H791 0.929 . S
C784 C783 1.383 . S
C784 C785 1.377 . S
C785 H769 0.930 . S
C785 C784 1.377 . S
C785 C786 1.379 . S
C786 H770 0.931 . S
C786 C780 1.383 . S
C786 C785 1.379 . S
H787 C781 0.959 . S
H788 C781 0.961 . S
H789 C781 0.960 . S
H790 C782 0.930 . S
H791 C783 0.929 . S
H792 C800 0.929 . S
H793 C802 0.930 . S
H794 C804 0.930 1_565 S
H795 C807 0.929 . S
H796 C810 0.930 1_545 S
H797 C812 0.960 . S
H798 C812 0.960 . S
H799 C812 0.960 . S
C800 H792 0.929 . S
C800 C801 1.377 . S
C800 C802 1.384 . S
C801 C800 1.377 . S
C801 C807 1.390 . S
C802 H793 0.930 . S
C802 C800 1.384 . S
C802 C803 1.392 . S
C803 C802 1.392 . S
C803 C804 1.401 . S
C803 C808 1.470 1_545 S
C804 H794 0.930 1_545 S
C804 C803 1.401 . S
C804 C807 1.386 . S
H805 C821 0.930 . S
H806 C822 0.931 . S
C807 H795 0.929 . S
C807 C801 1.390 . S
C807 C804 1.386 . S
C808 C803 1.470 1_565 S
C808 C810 1.395 . S
C808 C811 1.403 . S
H809 C815 0.930 . S
C810 H796 0.930 1_565 S
C810 C808 1.395 . S
C810 C813 1.403 . S
C811 C808 1.403 . S
C811 C812 1.524 . S
C811 C815 1.400 . S
C812 H797 0.960 . S
C812 H798 0.960 . S
C812 H799 0.960 . S
C812 C811 1.524 . S
C813 C810 1.403 . S
C813 C814 1.392 . S
C813 C817 1.495 . S
C814 C813 1.392 . S
C814 C815 1.385 . S
C814 C816 1.478 . S
C815 H809 0.930 . S
C815 C811 1.400 . S
C815 C814 1.385 . S
C816 C814 1.478 . S
C816 C818 1.381 . S
C816 C822 1.383 . S
C817 C813 1.495 . S
C817 H823 0.997 . S
C817 H824 0.961 . S
C817 H825 0.960 . S
C818 C816 1.381 . S
C818 C819 1.394 . S
C818 H826 0.930 . S
C819 C818 1.394 . S
C819 C820 1.383 . S
C819 H827 0.929 1_655 S
C820 C819 1.383 . S
C820 C821 1.377 . S
C821 H805 0.930 . S
C821 C820 1.377 . S
C821 C822 1.379 . S
C822 H806 0.931 . S
C822 C816 1.383 . S
C822 C821 1.379 . S
H823 C817 0.997 . S
H824 C817 0.961 . S
H825 C817 0.960 . S
H826 C818 0.930 . S
H827 C819 0.929 1_455 S
H828 C836 0.929 . S
H829 C838 0.930 . S
H830 C840 0.930 . S
H831 C843 0.929 . S
H832 C846 0.930 . S
H833 C848 0.960 . S
H834 C848 0.960 . S
H835 C848 0.960 . S
C836 H828 0.929 . S
C836 C837 1.377 . S
C836 C838 1.384 . S
C837 C836 1.377 . S
C837 C843 1.390 . S
C838 H829 0.930 . S
C838 C836 1.384 . S
C838 C839 1.372 . S
C839 C838 1.372 . S
C839 C840 1.400 . S
C839 C844 1.490 . S
C840 H830 0.930 . S
C840 C839 1.400 . S
C840 C843 1.386 . S
H841 C857 0.930 . S
H842 C858 0.931 . S
C843 H831 0.929 . S
C843 C837 1.390 . S
C843 C840 1.386 . S
C844 C839 1.490 . S
C844 C846 1.395 . S
C844 C847 1.403 . S
H845 C851 0.930 . S
C846 H832 0.930 . S
C846 C844 1.395 . S
C846 C849 1.403 . S
C847 C844 1.403 . S
C847 C848 1.524 . S
C847 C851 1.400 . S
C848 H833 0.960 . S
C848 H834 0.960 . S
C848 H835 0.960 . S
C848 C847 1.524 . S
C849 C846 1.403 . S
C849 C850 1.392 . S
C849 C853 1.495 . S
C850 C849 1.392 . S
C850 C851 1.385 . S
C850 C852 1.478 . S
C851 H845 0.930 . S
C851 C847 1.400 . S
C851 C850 1.385 . S
C852 C850 1.478 . S
C852 C854 1.381 . S
C852 C858 1.383 . S
C853 C849 1.495 . S
C853 H859 0.959 . S
C853 H860 0.961 . S
C853 H861 0.960 . S
C854 C852 1.381 . S
C854 C855 1.394 . S
C854 H862 0.930 . S
C855 C854 1.394 . S
C855 C856 1.383 . S
C855 H863 0.929 . S
C856 C855 1.383 . S
C856 C857 1.377 . S
C857 H841 0.930 . S
C857 C856 1.377 . S
C857 C858 1.379 . S
C858 H842 0.931 . S
C858 C852 1.383 . S
C858 C857 1.379 . S
H859 C853 0.959 . S
H860 C853 0.961 . S
H861 C853 0.960 . S
H862 C854 0.930 . S
H863 C855 0.929 . S
H864 C872 0.929 . S
H865 C874 0.930 . S
H866 C876 0.930 . S
H867 C879 0.929 . S
H868 C882 0.930 . S
H869 C884 0.960 . S
H870 C884 0.960 . S
H871 C884 0.960 . S
C872 H864 0.929 . S
C872 C873 1.377 . S
C872 C874 1.384 . S
C873 C872 1.377 . S
C873 C879 1.390 . S
C874 H865 0.930 . S
C874 C872 1.384 . S
C874 C875 1.372 . S
C875 C874 1.372 . S
C875 C876 1.400 . S
C875 C880 1.490 . S
C876 H866 0.930 . S
C876 C875 1.400 . S
C876 C879 1.386 . S
H877 C893 0.930 . S
H878 C894 0.931 . S
C879 H867 0.929 . S
C879 C873 1.390 . S
C879 C876 1.386 . S
C880 C875 1.490 . S
C880 C882 1.395 . S
C880 C883 1.403 . S
H881 C887 0.930 . S
C882 H868 0.930 . S
C882 C880 1.395 . S
C882 C885 1.403 . S
C883 C880 1.403 . S
C883 C884 1.524 . S
C883 C887 1.400 . S
C884 H869 0.960 . S
C884 H870 0.960 . S
C884 H871 0.960 . S
C884 C883 1.524 . S
C885 C882 1.403 . S
C885 C886 1.392 . S
C885 C889 1.495 . S
C886 C885 1.392 . S
C886 C887 1.385 . S
C886 C888 1.478 . S
C887 H881 0.930 . S
C887 C883 1.400 . S
C887 C886 1.385 . S
C888 C886 1.478 . S
C888 C890 1.381 . S
C888 C894 1.383 . S
C889 C885 1.495 . S
C889 H895 0.959 . S
C889 H896 0.961 . S
C889 H897 0.960 . S
C890 C888 1.381 . S
C890 C891 1.394 . S
C890 H898 0.930 . S
C891 C890 1.394 . S
C891 C892 1.383 . S
C891 H899 0.929 . S
C892 C891 1.383 . S
C892 C893 1.377 . S
C893 H877 0.930 . S
C893 C892 1.377 . S
C893 C894 1.379 . S
C894 H878 0.931 . S
C894 C888 1.383 . S
C894 C893 1.379 . S
H895 C889 0.959 . S
H896 C889 0.961 . S
H897 C889 0.960 . S
H898 C890 0.930 . S
H899 C891 0.929 . S
H900 C908 0.929 . S
H901 C910 0.930 . S
H902 C912 0.930 . S
H903 C915 0.929 . S
H904 C918 0.930 . S
H905 C920 0.960 . S
H906 C920 0.960 . S
H907 C920 0.960 1_545 S
C908 H900 0.929 . S
C908 C909 1.377 . S
C908 C910 1.384 1_545 S
C909 C908 1.377 . S
C909 C915 1.390 . S
C910 H901 0.930 . S
C910 C908 1.384 1_565 S
C910 C911 1.372 . S
C911 C910 1.372 . S
C911 C912 1.400 1_565 S
C911 C916 1.490 . S
C912 H902 0.930 . S
C912 C911 1.400 1_545 S
C912 C915 1.386 . S
H913 C929 0.930 . S
H914 C930 0.931 . S
C915 H903 0.929 . S
C915 C909 1.390 . S
C915 C912 1.386 . S
C916 C911 1.490 . S
C916 C918 1.395 . S
C916 C919 1.403 . S
H917 C923 0.930 . S
C918 H904 0.930 . S
C918 C916 1.395 . S
C918 C921 1.403 . S
C919 C916 1.403 . S
C919 C920 1.524 . S
C919 C923 1.400 . S
C920 H905 0.960 . S
C920 H906 0.960 . S
C920 H907 0.960 1_565 S
C920 C919 1.524 . S
C921 C918 1.403 . S
C921 C922 1.392 . S
C921 C925 1.495 . S
C922 C921 1.392 . S
C922 C923 1.385 . S
C922 C924 1.478 . S
C923 H917 0.930 . S
C923 C919 1.400 . S
C923 C922 1.385 . S
C924 C922 1.478 . S
C924 C926 1.381 . S
C924 C930 1.383 . S
C925 C921 1.495 . S
C925 H931 0.959 . S
C925 H932 0.961 . S
C925 H933 0.960 . S
C926 C924 1.381 . S
C926 C927 1.394 . S
C926 H934 0.930 . S
C927 C926 1.394 . S
C927 C928 1.383 . S
C927 H935 0.929 . S
C928 C927 1.383 . S
C928 C929 1.377 . S
C929 H913 0.930 . S
C929 C928 1.377 . S
C929 C930 1.379 . S
C930 H914 0.931 . S
C930 C924 1.383 . S
C930 C929 1.379 . S
H931 C925 0.959 . S
H932 C925 0.961 . S
H933 C925 0.960 . S
H934 C926 0.930 . S
H935 C927 0.929 . S
H936 C944 0.929 1_556 S
H937 C946 0.930 . S
H938 C948 0.930 . S
H939 C951 0.929 . S
H940 C954 0.930 . S
H941 C956 0.960 . S
H942 C956 0.960 . S
H943 C956 0.960 . S
C944 H936 0.929 1_554 S
C944 C945 1.377 . S
C944 C946 1.384 . S
C945 C944 1.377 . S
C945 C951 1.390 . S
C946 H937 0.930 . S
C946 C944 1.384 . S
C946 C947 1.372 . S
C947 C946 1.372 . S
C947 C948 1.400 . S
C947 C952 1.490 . S
C948 H938 0.930 . S
C948 C947 1.400 . S
C948 C951 1.386 . S
H949 C965 0.930 . S
H950 C966 0.931 . S
C951 H939 0.929 . S
C951 C945 1.390 . S
C951 C948 1.386 . S
C952 C947 1.490 . S
C952 C954 1.395 . S
C952 C955 1.403 . S
H953 C959 0.930 . S
C954 H940 0.930 . S
C954 C952 1.395 . S
C954 C957 1.403 . S
C955 C952 1.403 . S
C955 C956 1.524 . S
C955 C959 1.400 . S
C956 H941 0.960 . S
C956 H942 0.960 . S
C956 H943 0.960 . S
C956 C955 1.524 . S
C957 C954 1.403 . S
C957 C958 1.392 . S
C957 C961 1.495 . S
C958 C957 1.392 . S
C958 C959 1.385 . S
C958 C960 1.478 . S
C959 H953 0.930 . S
C959 C955 1.400 . S
C959 C958 1.385 . S
C960 C958 1.478 . S
C960 C962 1.381 . S
C960 C966 1.383 . S
C961 C957 1.495 . S
C961 H967 0.959 . S
C961 H968 0.961 . S
C961 H969 0.960 . S
C962 C960 1.381 . S
C962 C963 1.394 . S
C962 H970 0.930 . S
C963 C962 1.394 . S
C963 C964 1.383 . S
C963 H971 0.929 . S
C964 C963 1.383 . S
C964 C965 1.377 . S
C965 H949 0.930 . S
C965 C964 1.377 . S
C965 C966 1.379 . S
C966 H950 0.931 . S
C966 C960 1.383 . S
C966 C965 1.379 . S
H967 C961 0.959 . S
H968 C961 0.961 . S
H969 C961 0.960 . S
H970 C962 0.930 . S
H971 C963 0.929 . S
H972 C980 0.929 . S
H973 C982 0.930 . S
H974 C984 0.930 . S
H975 C987 0.929 . S
H976 C990 0.930 . S
H977 C992 0.960 . S
H978 C992 0.960 . S
H979 C992 0.960 . S
C980 H972 0.929 . S
C980 C981 1.377 . S
C980 C982 1.384 . S
C981 C980 1.377 . S
C981 C987 1.390 . S
C982 H973 0.930 . S
C982 C980 1.384 . S
C982 C983 1.372 . S
C983 C982 1.372 . S
C983 C984 1.400 . S
C983 C988 1.490 . S
C984 H974 0.930 . S
C984 C983 1.400 . S
C984 C987 1.386 . S
H985 C1001 0.930 . S
H986 C1002 0.931 . S
C987 H975 0.929 . S
C987 C981 1.390 . S
C987 C984 1.386 . S
C988 C983 1.490 . S
C988 C990 1.395 . S
C988 C991 1.403 . S
H989 C995 0.930 . S
C990 H976 0.930 . S
C990 C988 1.395 . S
C990 C993 1.403 . S
C991 C988 1.403 . S
C991 C992 1.524 . S
C991 C995 1.400 . S
C992 H977 0.960 . S
C992 H978 0.960 . S
C992 H979 0.960 . S
C992 C991 1.524 . S
C993 C990 1.403 . S
C993 C994 1.392 . S
C993 C997 1.495 . S
C994 C993 1.392 . S
C994 C995 1.385 . S
C994 C996 1.478 . S
C995 H989 0.930 . S
C995 C991 1.400 . S
C995 C994 1.385 . S
C996 C994 1.478 . S
C996 C998 1.381 . S
C996 C1002 1.383 . S
C997 C993 1.495 . S
C997 H1003 0.959 . S
C997 H1004 0.961 . S
C997 H1005 0.960 . S
C998 C996 1.381 . S
C998 C999 1.394 . S
C998 H1006 0.930 . S
C999 C998 1.394 . S
C999 C1000 1.383 . S
C999 H1007 0.929 . S
C1000 C999 1.383 . S
C1000 C1001 1.377 . S
C1001 H985 0.930 . S
C1001 C1000 1.377 . S
C1001 C1002 1.379 . S
C1002 H986 0.931 . S
C1002 C996 1.383 . S
C1002 C1001 1.379 . S
H1003 C997 0.959 . S
H1004 C997 0.961 . S
H1005 C997 0.960 . S
H1006 C998 0.930 . S
H1007 C999 0.929 . S
H1008 C1016 0.929 . S
H1009 C1018 0.930 . S
H1010 C1020 0.930 . S
H1011 C1023 0.929 1_554 S
H1012 C1026 0.930 . S
H1013 C1028 0.960 . S
H1014 C1028 0.960 . S
H1015 C1028 0.960 . S
C1016 H1008 0.929 . S
C1016 C1017 1.380 . S
C1016 C1018 1.384 . S
C1017 C1016 1.380 . S
C1017 C1023 1.390 . S
C1018 H1009 0.930 . S
C1018 C1016 1.384 . S
C1018 C1019 1.372 . S
C1019 C1018 1.372 . S
C1019 C1020 1.400 . S
C1019 C1024 1.490 . S
C1020 H1010 0.930 . S
C1020 C1019 1.400 . S
C1020 C1023 1.386 . S
H1021 C1037 0.930 . S
H1022 C1038 0.931 . S
C1023 H1011 0.929 1_556 S
C1023 C1017 1.390 . S
C1023 C1020 1.386 . S
C1024 C1019 1.490 . S
C1024 C1026 1.395 . S
C1024 C1027 1.403 . S
H1025 C1031 0.930 . S
C1026 H1012 0.930 . S
C1026 C1024 1.395 . S
C1026 C1029 1.403 . S
C1027 C1024 1.403 . S
C1027 C1028 1.524 . S
C1027 C1031 1.400 . S
C1028 H1013 0.960 . S
C1028 H1014 0.960 . S
C1028 H1015 0.960 . S
C1028 C1027 1.524 . S
C1029 C1026 1.403 . S
C1029 C1030 1.392 . S
C1029 C1033 1.495 . S
C1030 C1029 1.392 . S
C1030 C1031 1.385 . S
C1030 C1032 1.478 . S
C1031 H1025 0.930 . S
C1031 C1027 1.400 . S
C1031 C1030 1.385 . S
C1032 C1030 1.478 . S
C1032 C1034 1.381 . S
C1032 C1038 1.383 . S
C1033 C1029 1.495 . S
C1033 H1039 0.959 . S
C1033 H1040 0.961 . S
C1033 H1041 0.960 . S
C1034 C1032 1.381 . S
C1034 C1035 1.394 . S
C1034 H1042 0.930 . S
C1035 C1034 1.394 . S
C1035 C1036 1.383 . S
C1035 H1043 0.929 . S
C1036 C1035 1.383 . S
C1036 C1037 1.377 . S
C1037 H1021 0.930 . S
C1037 C1036 1.377 . S
C1037 C1038 1.379 . S
C1038 H1022 0.931 . S
C1038 C1032 1.383 . S
C1038 C1037 1.379 . S
H1039 C1033 0.959 . S
H1040 C1033 0.961 . S
H1041 C1033 0.960 . S
H1042 C1034 0.930 . S
H1043 C1035 0.929 . S
H1044 C1052 0.929 . S
H1045 C1054 0.930 . S
H1046 C1056 0.930 . S
H1047 C1059 0.929 . S
H1048 C1062 0.930 . S
H1049 C1064 0.960 . S
H1050 C1064 0.960 . S
H1051 C1064 0.960 . S
C1052 H1044 0.929 . S
C1052 C1053 1.377 . S
C1052 C1054 1.384 . S
C1053 C1052 1.377 . S
C1053 C1059 1.390 . S
C1054 H1045 0.930 . S
C1054 C1052 1.384 . S
C1054 C1055 1.372 . S
C1055 C1054 1.372 . S
C1055 C1056 1.400 . S
C1055 C1060 1.490 . S
C1056 H1046 0.930 . S
C1056 C1055 1.400 . S
C1056 C1059 1.386 . S
H1057 C1073 0.930 . S
H1058 C1074 0.931 . S
C1059 H1047 0.929 . S
C1059 C1053 1.390 . S
C1059 C1056 1.386 . S
C1060 C1055 1.490 . S
C1060 C1062 1.395 . S
C1060 C1063 1.403 . S
H1061 C1067 0.930 . S
C1062 H1048 0.930 . S
C1062 C1060 1.395 . S
C1062 C1065 1.403 . S
C1063 C1060 1.403 . S
C1063 C1064 1.524 . S
C1063 C1067 1.400 . S
C1064 H1049 0.960 . S
C1064 H1050 0.960 . S
C1064 H1051 0.960 . S
C1064 C1063 1.524 . S
C1065 C1062 1.403 . S
C1065 C1066 1.392 . S
C1065 C1069 1.495 . S
C1066 C1065 1.392 . S
C1066 C1067 1.385 . S
C1066 C1068 1.478 . S
C1067 H1061 0.930 . S
C1067 C1063 1.400 . S
C1067 C1066 1.385 . S
C1068 C1066 1.478 . S
C1068 C1070 1.381 . S
C1068 C1074 1.383 . S
C1069 C1065 1.495 . S
C1069 H1075 0.959 . S
C1069 H1076 0.961 . S
C1069 H1077 0.960 . S
C1070 C1068 1.381 . S
C1070 C1071 1.394 . S
C1070 H1078 0.930 . S
C1071 C1070 1.394 . S
C1071 C1072 1.383 . S
C1071 H1079 0.929 . S
C1072 C1071 1.383 . S
C1072 C1073 1.377 . S
C1073 H1057 0.930 . S
C1073 C1072 1.377 . S
C1073 C1074 1.379 . S
C1074 H1058 0.931 . S
C1074 C1068 1.383 . S
C1074 C1073 1.379 . S
H1075 C1069 0.959 . S
H1076 C1069 0.961 . S
H1077 C1069 0.960 . S
H1078 C1070 0.930 . S
H1079 C1071 0.929 . S
H1080 C1088 0.929 . S
H1081 C1090 0.930 . S
H1082 C1092 0.930 . S
H1083 C1095 0.929 1_554 S
H1084 C1098 0.930 . S
H1085 C1100 0.960 . S
H1086 C1100 0.960 . S
H1087 C1100 0.960 . S
C1088 H1080 0.929 . S
C1088 C1089 1.377 . S
C1088 C1090 1.384 . S
C1089 C1088 1.377 . S
C1089 C1095 1.390 . S
C1090 H1081 0.930 . S
C1090 C1088 1.384 . S
C1090 C1091 1.372 . S
C1091 C1090 1.372 . S
C1091 C1092 1.400 . S
C1091 C1096 1.490 . S
C1092 H1082 0.930 . S
C1092 C1091 1.400 . S
C1092 C1095 1.386 . S
H1093 C1109 0.930 . S
H1094 C1110 0.931 . S
C1095 H1083 0.929 1_556 S
C1095 C1089 1.390 . S
C1095 C1092 1.386 . S
C1096 C1091 1.490 . S
C1096 C1098 1.395 . S
C1096 C1099 1.403 . S
H1097 C1103 0.930 . S
C1098 H1084 0.930 . S
C1098 C1096 1.395 . S
C1098 C1101 1.403 . S
C1099 C1096 1.403 . S
C1099 C1100 1.524 . S
C1099 C1103 1.400 . S
C1100 H1085 0.960 . S
C1100 H1086 0.960 . S
C1100 H1087 0.960 . S
C1100 C1099 1.524 . S
C1101 C1098 1.403 . S
C1101 C1102 1.392 . S
C1101 C1105 1.495 . S
C1102 C1101 1.392 . S
C1102 C1103 1.385 . S
C1102 C1104 1.478 . S
C1103 H1097 0.930 . S
C1103 C1099 1.400 . S
C1103 C1102 1.385 . S
C1104 C1102 1.478 . S
C1104 C1106 1.381 . S
C1104 C1110 1.383 . S
C1105 C1101 1.495 . S
C1105 H1111 0.959 . S
C1105 H1112 0.961 . S
C1105 H1113 0.960 . S
C1106 C1104 1.381 . S
C1106 C1107 1.394 . S
C1106 H1114 0.930 . S
C1107 C1106 1.394 . S
C1107 C1108 1.383 . S
C1107 H1115 0.929 . S
C1108 C1107 1.383 . S
C1108 C1109 1.377 . S
C1109 H1093 0.930 . S
C1109 C1108 1.377 . S
C1109 C1110 1.379 . S
C1110 H1094 0.931 . S
C1110 C1104 1.383 . S
C1110 C1109 1.379 . S
H1111 C1105 0.959 . S
H1112 C1105 0.961 . S
H1113 C1105 0.960 . S
H1114 C1106 0.930 . S
H1115 C1107 0.929 . S
H1116 C1124 0.929 . S
H1117 C1126 0.930 . S
H1118 C1128 0.930 . S
H1119 C1131 0.929 . S
H1120 C1134 0.930 . S
H1121 C1136 0.960 . S
H1122 C1136 0.960 . S
H1123 C1136 0.960 . S
C1124 H1116 0.929 . S
C1124 C1125 1.377 . S
C1124 C1126 1.384 . S
C1125 C1124 1.377 . S
C1125 C1131 1.390 . S
C1126 H1117 0.930 . S
C1126 C1124 1.384 . S
C1126 C1127 1.372 . S
C1127 C1126 1.372 . S
C1127 C1128 1.400 . S
C1127 C1132 1.490 . S
C1128 H1118 0.930 . S
C1128 C1127 1.400 . S
C1128 C1131 1.386 . S
H1129 C1145 0.930 . S
H1130 C1146 0.931 . S
C1131 H1119 0.929 . S
C1131 C1125 1.390 . S
C1131 C1128 1.386 . S
C1132 C1127 1.490 . S
C1132 C1134 1.395 . S
C1132 C1135 1.403 . S
H1133 C1139 0.930 . S
C1134 H1120 0.930 . S
C1134 C1132 1.395 . S
C1134 C1137 1.403 . S
C1135 C1132 1.403 . S
C1135 C1136 1.524 . S
C1135 C1139 1.400 . S
C1136 H1121 0.960 . S
C1136 H1122 0.960 . S
C1136 H1123 0.960 . S
C1136 C1135 1.524 . S
C1137 C1134 1.403 . S
C1137 C1138 1.392 . S
C1137 C1141 1.495 . S
C1138 C1137 1.392 . S
C1138 C1139 1.385 . S
C1138 C1140 1.478 . S
C1139 H1133 0.930 . S
C1139 C1135 1.400 . S
C1139 C1138 1.385 . S
C1140 C1138 1.478 . S
C1140 C1142 1.381 . S
C1140 C1146 1.383 . S
C1141 C1137 1.495 . S
C1141 H1147 0.959 . S
C1141 H1148 0.961 . S
C1141 H1149 0.960 . S
C1142 C1140 1.381 . S
C1142 C1143 1.394 . S
C1142 H1150 0.930 . S
C1143 C1142 1.394 . S
C1143 C1144 1.383 . S
C1143 H1151 0.929 . S
C1144 C1143 1.383 . S
C1144 C1145 1.377 . S
C1145 H1129 0.930 . S
C1145 C1144 1.377 . S
C1145 C1146 1.379 . S
C1146 H1130 0.931 . S
C1146 C1140 1.383 . S
C1146 C1145 1.379 . S
H1147 C1141 0.959 . S
H1148 C1141 0.961 . S
H1149 C1141 0.960 . S
H1150 C1142 0.930 . S
H1151 C1143 0.929 . S
H1152 C1160 0.929 . S
H1153 C1162 0.930 . S
H1154 C1164 0.930 . S
H1155 C1167 0.929 1_556 S
H1156 C1170 0.930 . S
H1157 C1172 0.960 . S
H1158 C1172 0.960 . S
H1159 C1172 0.960 . S
C1160 H1152 0.929 . S
C1160 C1161 1.379 1_554 S
C1160 C1162 1.384 . S
C1161 C1160 1.379 1_556 S
C1161 C1167 1.391 1_556 S
C1162 H1153 0.930 . S
C1162 C1160 1.384 . S
C1162 C1163 1.372 . S
C1163 C1162 1.372 . S
C1163 C1164 1.400 . S
C1163 C1168 1.490 . S
C1164 H1154 0.930 . S
C1164 C1163 1.400 . S
C1164 C1167 1.386 . S
H1165 C1181 0.930 . S
H1166 C1182 0.931 . S
C1167 H1155 0.929 1_554 S
C1167 C1161 1.391 1_554 S
C1167 C1164 1.386 . S
C1168 C1163 1.490 . S
C1168 C1170 1.395 . S
C1168 C1171 1.403 . S
H1169 C1175 0.930 . S
C1170 H1156 0.930 . S
C1170 C1168 1.395 . S
C1170 C1173 1.403 . S
C1171 C1168 1.403 . S
C1171 C1172 1.524 . S
C1171 C1175 1.400 . S
C1172 H1157 0.960 . S
C1172 H1158 0.960 . S
C1172 H1159 0.960 . S
C1172 C1171 1.524 . S
C1173 C1170 1.403 . S
C1173 C1174 1.392 . S
C1173 C1177 1.495 . S
C1174 C1173 1.392 . S
C1174 C1175 1.385 . S
C1174 C1176 1.478 . S
C1175 H1169 0.930 . S
C1175 C1171 1.400 . S
C1175 C1174 1.385 . S
C1176 C1174 1.478 . S
C1176 C1178 1.381 . S
C1176 C1182 1.383 . S
C1177 C1173 1.495 . S
C1177 H1183 0.959 . S
C1177 H1184 0.961 . S
C1177 H1185 0.960 . S
C1178 C1176 1.381 . S
C1178 C1179 1.394 . S
C1178 H1186 0.930 . S
C1179 C1178 1.394 . S
C1179 C1180 1.383 . S
C1179 H1187 0.929 . S
C1180 C1179 1.383 . S
C1180 C1181 1.377 . S
C1181 H1165 0.930 . S
C1181 C1180 1.377 . S
C1181 C1182 1.379 . S
C1182 H1166 0.931 . S
C1182 C1176 1.383 . S
C1182 C1181 1.379 . S
H1183 C1177 0.959 . S
H1184 C1177 0.961 . S
H1185 C1177 0.960 . S
H1186 C1178 0.930 . S
H1187 C1179 0.929 . S
H1188 C1196 0.929 . S
H1189 C1198 0.930 . S
H1190 C1200 0.930 . S
H1191 C1203 0.929 . S
H1192 C1206 0.930 . S
H1193 C1208 0.960 . S
H1194 C1208 0.960 . S
H1195 C1208 0.960 . S
C1196 H1188 0.929 . S
C1196 C1197 1.377 . S
C1196 C1198 1.384 . S
C1197 C1196 1.377 . S
C1197 C1203 1.390 . S
C1198 H1189 0.930 . S
C1198 C1196 1.384 . S
C1198 C1199 1.372 . S
C1199 C1198 1.372 . S
C1199 C1200 1.400 . S
C1199 C1204 1.490 . S
C1200 H1190 0.930 . S
C1200 C1199 1.400 . S
C1200 C1203 1.386 . S
H1201 C1217 0.930 . S
H1202 C1218 0.931 . S
C1203 H1191 0.929 . S
C1203 C1197 1.390 . S
C1203 C1200 1.386 . S
C1204 C1199 1.490 . S
C1204 C1206 1.395 . S
C1204 C1207 1.403 . S
H1205 C1211 0.930 . S
C1206 H1192 0.930 . S
C1206 C1204 1.395 . S
C1206 C1209 1.403 . S
C1207 C1204 1.403 . S
C1207 C1208 1.524 . S
C1207 C1211 1.400 . S
C1208 H1193 0.960 . S
C1208 H1194 0.960 . S
C1208 H1195 0.960 . S
C1208 C1207 1.524 . S
C1209 C1206 1.403 . S
C1209 C1210 1.392 . S
C1209 C1213 1.495 . S
C1210 C1209 1.392 . S
C1210 C1211 1.385 . S
C1210 C1212 1.478 . S
C1211 H1205 0.930 . S
C1211 C1207 1.400 . S
C1211 C1210 1.385 . S
C1212 C1210 1.478 . S
C1212 C1214 1.381 . S
C1212 C1218 1.383 . S
C1213 C1209 1.495 . S
C1213 H1219 0.959 . S
C1213 H1220 0.961 . S
C1213 H1221 0.960 . S
C1214 C1212 1.381 . S
C1214 C1215 1.394 . S
C1214 H1222 0.930 . S
C1215 C1214 1.394 . S
C1215 C1216 1.383 . S
C1215 H1223 0.929 . S
C1216 C1215 1.383 . S
C1216 C1217 1.377 . S
C1217 H1201 0.930 . S
C1217 C1216 1.377 . S
C1217 C1218 1.379 . S
C1218 H1202 0.931 . S
C1218 C1212 1.383 . S
C1218 C1217 1.379 . S
H1219 C1213 0.959 . S
H1220 C1213 0.961 . S
H1221 C1213 0.960 . S
H1222 C1214 0.930 . S
H1223 C1215 0.929 . S
H1224 C1232 0.929 . S
H1225 C1234 0.930 . S
H1226 C1236 0.930 . S
H1227 C1239 0.929 . S
H1228 C1242 0.930 . S
H1229 C1244 0.960 . S
H1230 C1244 0.960 . S
H1231 C1244 0.960 . S
C1232 H1224 0.929 . S
C1232 C1233 1.377 . S
C1232 C1234 1.384 . S
C1233 C1232 1.377 . S
C1233 C1239 1.390 . S
C1234 H1225 0.930 . S
C1234 C1232 1.384 . S
C1234 C1235 1.372 . S
C1235 C1234 1.372 . S
C1235 C1236 1.400 . S
C1235 C1240 1.490 . S
C1236 H1226 0.930 . S
C1236 C1235 1.400 . S
C1236 C1239 1.386 . S
H1237 C1253 0.930 . S
H1238 C1254 0.931 . S
C1239 H1227 0.929 . S
C1239 C1233 1.390 . S
C1239 C1236 1.386 . S
C1240 C1235 1.490 . S
C1240 C1242 1.395 . S
C1240 C1243 1.403 . S
H1241 C1247 0.930 . S
C1242 H1228 0.930 . S
C1242 C1240 1.395 . S
C1242 C1245 1.403 . S
C1243 C1240 1.403 . S
C1243 C1244 1.524 . S
C1243 C1247 1.400 . S
C1244 H1229 0.960 . S
C1244 H1230 0.960 . S
C1244 H1231 0.960 . S
C1244 C1243 1.524 . S
C1245 C1242 1.403 . S
C1245 C1246 1.392 . S
C1245 C1249 1.495 . S
C1246 C1245 1.392 . S
C1246 C1247 1.385 . S
C1246 C1248 1.478 . S
C1247 H1241 0.930 . S
C1247 C1243 1.400 . S
C1247 C1246 1.385 . S
C1248 C1246 1.478 . S
C1248 C1250 1.381 . S
C1248 C1254 1.383 . S
C1249 C1245 1.495 . S
C1249 H1255 0.959 . S
C1249 H1256 0.961 . S
C1249 H1257 0.960 . S
C1250 C1248 1.381 . S
C1250 C1251 1.394 . S
C1250 H1258 0.930 . S
C1251 C1250 1.394 . S
C1251 C1252 1.383 . S
C1251 H1259 0.929 . S
C1252 C1251 1.383 . S
C1252 C1253 1.377 . S
C1253 H1237 0.930 . S
C1253 C1252 1.377 . S
C1253 C1254 1.379 . S
C1254 H1238 0.931 . S
C1254 C1248 1.383 . S
C1254 C1253 1.379 . S
H1255 C1249 0.959 . S
H1256 C1249 0.961 . S
H1257 C1249 0.960 . S
H1258 C1250 0.930 . S
H1259 C1251 0.929 . S
H1260 C1268 0.929 . S
H1261 C1270 0.930 . S
H1262 C1272 0.930 . S
H1263 C1275 0.929 . S
H1264 C1278 0.930 . S
H1265 C1280 0.960 . S
H1266 C1280 0.960 . S
H1267 C1280 0.960 . S
C1268 H1260 0.929 . S
C1268 C1269 1.377 . S
C1268 C1270 1.384 . S
C1269 C1268 1.377 . S
C1269 C1275 1.390 . S
C1270 H1261 0.930 . S
C1270 C1268 1.384 . S
C1270 C1271 1.372 . S
C1271 C1270 1.372 . S
C1271 C1272 1.400 . S
C1271 C1276 1.490 . S
C1272 H1262 0.930 . S
C1272 C1271 1.400 . S
C1272 C1275 1.386 . S
H1273 C1289 0.930 . S
H1274 C1290 0.931 . S
C1275 H1263 0.929 . S
C1275 C1269 1.390 . S
C1275 C1272 1.386 . S
C1276 C1271 1.490 . S
C1276 C1278 1.395 . S
C1276 C1279 1.403 . S
H1277 C1283 0.930 . S
C1278 H1264 0.930 . S
C1278 C1276 1.395 . S
C1278 C1281 1.403 . S
C1279 C1276 1.403 . S
C1279 C1280 1.524 . S
C1279 C1283 1.400 . S
C1280 H1265 0.960 . S
C1280 H1266 0.960 . S
C1280 H1267 0.960 . S
C1280 C1279 1.524 . S
C1281 C1278 1.403 . S
C1281 C1282 1.392 . S
C1281 C1285 1.495 . S
C1282 C1281 1.392 . S
C1282 C1283 1.385 . S
C1282 C1284 1.478 . S
C1283 H1277 0.930 . S
C1283 C1279 1.400 . S
C1283 C1282 1.385 . S
C1284 C1282 1.478 . S
C1284 C1286 1.381 . S
C1284 C1290 1.383 . S
C1285 C1281 1.495 . S
C1285 H1291 0.959 . S
C1285 H1292 0.961 . S
C1285 H1293 0.960 . S
C1286 C1284 1.381 . S
C1286 C1287 1.394 . S
C1286 H1294 0.930 . S
C1287 C1286 1.394 . S
C1287 C1288 1.383 . S
C1287 H1295 0.929 . S
C1288 C1287 1.383 . S
C1288 C1289 1.377 . S
C1289 H1273 0.930 . S
C1289 C1288 1.377 . S
C1289 C1290 1.379 . S
C1290 H1274 0.931 . S
C1290 C1284 1.383 . S
C1290 C1289 1.379 . S
H1291 C1285 0.959 . S
H1292 C1285 0.961 . S
H1293 C1285 0.960 . S
H1294 C1286 0.930 . S
H1295 C1287 0.929 . S
H1296 C1304 0.929 . S
H1297 C1306 0.930 . S
H1298 C1308 0.930 . S
H1299 C1311 0.929 . S
H1300 C1314 0.930 . S
H1301 C1316 0.960 . S
H1302 C1316 0.960 . S
H1303 C1316 0.960 . S
C1304 H1296 0.929 . S
C1304 C1305 1.377 . S
C1304 C1306 1.384 . S
C1305 C1304 1.377 . S
C1305 C1311 1.390 . S
C1306 H1297 0.930 . S
C1306 C1304 1.384 . S
C1306 C1307 1.372 . S
C1307 C1306 1.372 . S
C1307 C1308 1.400 . S
C1307 C1312 1.490 . S
C1308 H1298 0.930 . S
C1308 C1307 1.400 . S
C1308 C1311 1.386 . S
H1309 C1325 0.930 . S
H1310 C1326 0.931 . S
C1311 H1299 0.929 . S
C1311 C1305 1.390 . S
C1311 C1308 1.386 . S
C1312 C1307 1.490 . S
C1312 C1314 1.395 . S
C1312 C1315 1.403 . S
H1313 C1319 0.930 . S
C1314 H1300 0.930 . S
C1314 C1312 1.395 . S
C1314 C1317 1.403 . S
C1315 C1312 1.403 . S
C1315 C1316 1.524 . S
C1315 C1319 1.400 . S
C1316 H1301 0.960 . S
C1316 H1302 0.960 . S
C1316 H1303 0.960 . S
C1316 C1315 1.524 . S
C1317 C1314 1.403 . S
C1317 C1318 1.392 . S
C1317 C1321 1.495 . S
C1318 C1317 1.392 . S
C1318 C1319 1.385 . S
C1318 C1320 1.478 . S
C1319 H1313 0.930 . S
C1319 C1315 1.400 . S
C1319 C1318 1.385 . S
C1320 C1318 1.478 . S
C1320 C1322 1.381 . S
C1320 C1326 1.383 . S
C1321 C1317 1.495 . S
C1321 H1327 0.959 . S
C1321 H1328 0.961 . S
C1321 H1329 0.960 . S
C1322 C1320 1.381 . S
C1322 C1323 1.394 . S
C1322 H1330 0.930 . S
C1323 C1322 1.394 . S
C1323 C1324 1.383 . S
C1323 H1331 0.929 . S
C1324 C1323 1.383 . S
C1324 C1325 1.377 . S
C1325 H1309 0.930 . S
C1325 C1324 1.377 . S
C1325 C1326 1.379 . S
C1326 H1310 0.931 . S
C1326 C1320 1.383 . S
C1326 C1325 1.379 . S
H1327 C1321 0.959 . S
H1328 C1321 0.961 . S
H1329 C1321 0.960 . S
H1330 C1322 0.930 . S
H1331 C1323 0.929 . S
H1332 C1340 0.929 . S
H1333 C1342 0.930 . S
H1334 C1344 0.930 . S
H1335 C1347 0.929 . S
H1336 C1350 0.930 . S
H1337 C1352 0.960 . S
H1338 C1352 0.960 . S
H1339 C1352 0.960 . S
C1340 H1332 0.929 . S
C1340 C1341 1.377 . S
C1340 C1342 1.384 . S
C1341 C1340 1.377 . S
C1341 C1347 1.390 . S
C1342 H1333 0.930 . S
C1342 C1340 1.384 . S
C1342 C1343 1.372 . S
C1343 C1342 1.372 . S
C1343 C1344 1.400 . S
C1343 C1348 1.490 . S
C1344 H1334 0.930 . S
C1344 C1343 1.400 . S
C1344 C1347 1.386 . S
H1345 C1361 0.930 . S
H1346 C1362 0.931 . S
C1347 H1335 0.929 . S
C1347 C1341 1.390 . S
C1347 C1344 1.386 . S
C1348 C1343 1.490 . S
C1348 C1350 1.395 . S
C1348 C1351 1.403 . S
H1349 C1355 0.930 . S
C1350 H1336 0.930 . S
C1350 C1348 1.395 . S
C1350 C1353 1.403 . S
C1351 C1348 1.403 . S
C1351 C1352 1.524 . S
C1351 C1355 1.400 . S
C1352 H1337 0.960 . S
C1352 H1338 0.960 . S
C1352 H1339 0.960 . S
C1352 C1351 1.524 . S
C1353 C1350 1.403 . S
C1353 C1354 1.392 . S
C1353 C1357 1.495 . S
C1354 C1353 1.392 . S
C1354 C1355 1.385 . S
C1354 C1356 1.478 . S
C1355 H1349 0.930 . S
C1355 C1351 1.400 . S
C1355 C1354 1.385 . S
C1356 C1354 1.478 . S
C1356 C1358 1.381 . S
C1356 C1362 1.383 . S
C1357 C1353 1.495 . S
C1357 H1363 0.959 . S
C1357 H1364 0.961 . S
C1357 H1365 0.960 . S
C1358 C1356 1.381 . S
C1358 C1359 1.394 . S
C1358 H1366 0.930 . S
C1359 C1358 1.394 . S
C1359 C1360 1.383 . S
C1359 H1367 0.929 . S
C1360 C1359 1.383 . S
C1360 C1361 1.377 . S
C1361 H1345 0.930 . S
C1361 C1360 1.377 . S
C1361 C1362 1.379 . S
C1362 H1346 0.931 . S
C1362 C1356 1.383 . S
C1362 C1361 1.379 . S
H1363 C1357 0.959 . S
H1364 C1357 0.961 . S
H1365 C1357 0.960 . S
H1366 C1358 0.930 . S
H1367 C1359 0.929 . S
H1368 C1376 0.929 . S
H1369 C1378 0.930 . S
H1370 C1380 0.930 . S
H1371 C1383 0.929 . S
H1372 C1386 0.930 . S
H1373 C1388 0.960 . S
H1374 C1388 0.960 . S
H1375 C1388 0.960 . S
C1376 H1368 0.929 . S
C1376 C1377 1.377 . S
C1376 C1378 1.384 . S
C1377 C1376 1.377 . S
C1377 C1383 1.390 . S
C1378 H1369 0.930 . S
C1378 C1376 1.384 . S
C1378 C1379 1.372 . S
C1379 C1378 1.372 . S
C1379 C1380 1.400 . S
C1379 C1384 1.490 . S
C1380 H1370 0.930 . S
C1380 C1379 1.400 . S
C1380 C1383 1.386 . S
H1381 C1397 0.930 . S
H1382 C1398 0.931 . S
C1383 H1371 0.929 . S
C1383 C1377 1.390 . S
C1383 C1380 1.386 . S
C1384 C1379 1.490 . S
C1384 C1386 1.395 . S
C1384 C1387 1.403 . S
H1385 C1391 0.930 . S
C1386 H1372 0.930 . S
C1386 C1384 1.395 . S
C1386 C1389 1.403 . S
C1387 C1384 1.403 . S
C1387 C1388 1.524 . S
C1387 C1391 1.400 . S
C1388 H1373 0.960 . S
C1388 H1374 0.960 . S
C1388 H1375 0.960 . S
C1388 C1387 1.524 . S
C1389 C1386 1.403 . S
C1389 C1390 1.392 . S
C1389 C1393 1.495 . S
C1390 C1389 1.392 . S
C1390 C1391 1.385 . S
C1390 C1392 1.478 . S
C1391 H1385 0.930 . S
C1391 C1387 1.400 . S
C1391 C1390 1.385 . S
C1392 C1390 1.478 . S
C1392 C1394 1.381 . S
C1392 C1398 1.383 . S
C1393 C1389 1.495 . S
C1393 H1399 0.959 . S
C1393 H1400 0.961 . S
C1393 H1401 0.960 . S
C1394 C1392 1.381 . S
C1394 C1395 1.394 . S
C1394 H1402 0.930 . S
C1395 C1394 1.394 . S
C1395 C1396 1.383 . S
C1395 H1403 0.929 . S
C1396 C1395 1.383 . S
C1396 C1397 1.377 . S
C1397 H1381 0.930 . S
C1397 C1396 1.377 . S
C1397 C1398 1.379 . S
C1398 H1382 0.931 . S
C1398 C1392 1.383 . S
C1398 C1397 1.379 . S
H1399 C1393 0.959 . S
H1400 C1393 0.961 . S
H1401 C1393 0.960 . S
H1402 C1394 0.930 . S
H1403 C1395 0.929 . S
H1404 C1412 0.929 . S
H1405 C1414 0.930 . S
H1406 C1416 0.930 . S
H1407 C1419 0.929 . S
H1408 C1422 0.930 . S
H1409 C1424 0.960 . S
H1410 C1424 0.960 . S
H1411 C1424 0.960 . S
C1412 H1404 0.929 . S
C1412 C1413 1.377 . S
C1412 C1414 1.384 . S
C1413 C1412 1.377 . S
C1413 C1419 1.390 . S
C1414 H1405 0.930 . S
C1414 C1412 1.384 . S
C1414 C1415 1.372 . S
C1415 C1414 1.372 . S
C1415 C1416 1.400 . S
C1415 C1420 1.490 . S
C1416 H1406 0.930 . S
C1416 C1415 1.400 . S
C1416 C1419 1.386 . S
H1417 C1433 0.930 . S
H1418 C1434 0.931 . S
C1419 H1407 0.929 . S
C1419 C1413 1.390 . S
C1419 C1416 1.386 . S
C1420 C1415 1.490 . S
C1420 C1422 1.395 . S
C1420 C1423 1.403 . S
H1421 C1427 0.930 . S
C1422 H1408 0.930 . S
C1422 C1420 1.395 . S
C1422 C1425 1.403 . S
C1423 C1420 1.403 . S
C1423 C1424 1.524 . S
C1423 C1427 1.400 . S
C1424 H1409 0.960 . S
C1424 H1410 0.960 . S
C1424 H1411 0.960 . S
C1424 C1423 1.524 . S
C1425 C1422 1.403 . S
C1425 C1426 1.392 . S
C1425 C1429 1.495 . S
C1426 C1425 1.392 . S
C1426 C1427 1.385 . S
C1426 C1428 1.478 . S
C1427 H1421 0.930 . S
C1427 C1423 1.400 . S
C1427 C1426 1.385 . S
C1428 C1426 1.478 . S
C1428 C1430 1.381 . S
C1428 C1434 1.383 . S
C1429 C1425 1.495 . S
C1429 H1435 0.959 . S
C1429 H1436 0.961 . S
C1429 H1437 0.960 . S
C1430 C1428 1.381 . S
C1430 C1431 1.394 . S
C1430 H1438 0.930 . S
C1431 C1430 1.394 . S
C1431 C1432 1.383 . S
C1431 H1439 0.929 . S
C1432 C1431 1.383 . S
C1432 C1433 1.377 . S
C1433 H1417 0.930 . S
C1433 C1432 1.377 . S
C1433 C1434 1.379 . S
C1434 H1418 0.931 . S
C1434 C1428 1.383 . S
C1434 C1433 1.379 . S
H1435 C1429 0.959 . S
H1436 C1429 0.961 . S
H1437 C1429 0.960 . S
H1438 C1430 0.930 . S
H1439 C1431 0.929 . S
H1440 C1448 0.929 . S
H1441 C1450 0.930 . S
H1442 C1452 0.930 . S
H1443 C1455 0.929 . S
H1444 C1458 0.930 . S
H1445 C1460 0.960 . S
H1446 C1460 0.960 . S
H1447 C1460 0.960 . S
C1448 H1440 0.929 . S
C1448 C1449 1.377 . S
C1448 C1450 1.384 . S
C1449 C1448 1.377 . S
C1449 C1455 1.390 . S
C1450 H1441 0.930 . S
C1450 C1448 1.384 . S
C1450 C1451 1.372 . S
C1451 C1450 1.372 . S
C1451 C1452 1.400 . S
C1451 C1456 1.490 . S
C1452 H1442 0.930 . S
C1452 C1451 1.400 . S
C1452 C1455 1.386 . S
H1453 C1469 0.930 . S
H1454 C1470 0.931 . S
C1455 H1443 0.929 . S
C1455 C1449 1.390 . S
C1455 C1452 1.386 . S
C1456 C1451 1.490 . S
C1456 C1458 1.395 . S
C1456 C1459 1.403 . S
H1457 C1463 0.930 . S
C1458 H1444 0.930 . S
C1458 C1456 1.395 . S
C1458 C1461 1.403 . S
C1459 C1456 1.403 . S
C1459 C1460 1.524 . S
C1459 C1463 1.400 . S
C1460 H1445 0.960 . S
C1460 H1446 0.960 . S
C1460 H1447 0.960 . S
C1460 C1459 1.524 . S
C1461 C1458 1.403 . S
C1461 C1462 1.392 . S
C1461 C1465 1.495 . S
C1462 C1461 1.392 . S
C1462 C1463 1.385 . S
C1462 C1464 1.478 . S
C1463 H1457 0.930 . S
C1463 C1459 1.400 . S
C1463 C1462 1.385 . S
C1464 C1462 1.478 . S
C1464 C1466 1.381 . S
C1464 C1470 1.383 . S
C1465 C1461 1.495 . S
C1465 H1471 0.959 . S
C1465 H1472 0.961 . S
C1465 H1473 0.960 . S
C1466 C1464 1.381 . S
C1466 C1467 1.394 . S
C1466 H1474 0.930 . S
C1467 C1466 1.394 . S
C1467 C1468 1.383 . S
C1467 H1475 0.929 . S
C1468 C1467 1.383 . S
C1468 C1469 1.377 . S
C1469 H1453 0.930 . S
C1469 C1468 1.377 . S
C1469 C1470 1.379 . S
C1470 H1454 0.931 . S
C1470 C1464 1.383 . S
C1470 C1469 1.379 . S
H1471 C1465 0.959 . S
H1472 C1465 0.961 . S
H1473 C1465 0.960 . S
H1474 C1466 0.930 . S
H1475 C1467 0.929 . S
H1476 C1484 0.929 . S
H1477 C1486 0.930 . S
H1478 C1488 0.930 . S
H1479 C1491 0.929 . S
H1480 C1494 0.930 . S
H1481 C1496 0.960 . S
H1482 C1496 0.960 . S
H1483 C1496 0.960 . S
C1484 H1476 0.929 . S
C1484 C1485 1.377 . S
C1484 C1486 1.384 . S
C1485 C1484 1.377 . S
C1485 C1491 1.390 . S
C1486 H1477 0.930 . S
C1486 C1484 1.384 . S
C1486 C1487 1.372 . S
C1487 C1486 1.372 . S
C1487 C1488 1.400 . S
C1487 C1492 1.490 . S
C1488 H1478 0.930 . S
C1488 C1487 1.400 . S
C1488 C1491 1.386 . S
H1489 C1505 0.930 . S
H1490 C1506 0.931 . S
C1491 H1479 0.929 . S
C1491 C1485 1.390 . S
C1491 C1488 1.386 . S
C1492 C1487 1.490 . S
C1492 C1494 1.395 . S
C1492 C1495 1.403 . S
H1493 C1499 0.930 . S
C1494 H1480 0.930 . S
C1494 C1492 1.395 . S
C1494 C1497 1.403 . S
C1495 C1492 1.403 . S
C1495 C1496 1.524 . S
C1495 C1499 1.400 . S
C1496 H1481 0.960 . S
C1496 H1482 0.960 . S
C1496 H1483 0.960 . S
C1496 C1495 1.524 . S
C1497 C1494 1.403 . S
C1497 C1498 1.392 . S
C1497 C1501 1.495 . S
C1498 C1497 1.392 . S
C1498 C1499 1.385 . S
C1498 C1500 1.478 . S
C1499 H1493 0.930 . S
C1499 C1495 1.400 . S
C1499 C1498 1.385 . S
C1500 C1498 1.478 . S
C1500 C1502 1.381 . S
C1500 C1506 1.383 . S
C1501 C1497 1.495 . S
C1501 H1507 0.959 . S
C1501 H1508 0.961 . S
C1501 H1509 0.960 . S
C1502 C1500 1.381 . S
C1502 C1503 1.394 . S
C1502 H1510 0.930 . S
C1503 C1502 1.394 . S
C1503 C1504 1.383 . S
C1503 H1511 0.929 . S
C1504 C1503 1.383 . S
C1504 C1505 1.377 . S
C1505 H1489 0.930 . S
C1505 C1504 1.377 . S
C1505 C1506 1.379 . S
C1506 H1490 0.931 . S
C1506 C1500 1.383 . S
C1506 C1505 1.379 . S
H1507 C1501 0.959 . S
H1508 C1501 0.961 . S
H1509 C1501 0.960 . S
H1510 C1502 0.930 . S
H1511 C1503 0.929 . S
C657 C235 1.474 . S
C676 C386 1.446 . S
C712 C470 1.442 . S
C693 C289 1.471 . S
C748 C463 1.453 . S
C729 C157 1.462 . S
C765 C211 1.461 . S
C784 C379 1.453 . S
C820 C543 1.439 . S
C801 C79 1.474 . S
C856 C627 1.473 . S
C837 C118 1.477 . S
C873 C1 1.463 . S
C892 C620 1.452 . S
C909 C40 1.468 . S
C928 C536 1.459 . S
C964 C370 1.372 . S
C945 C55 1.516 1_554 S
C1000 C454 1.386 . S
C981 C16 1.518 . S
C1036 C465 1.360 . S
C1017 C133 1.535 1_556 S
C1072 C381 1.390 . S
C1053 C94 1.540 . S
C1108 C549 1.308 . S
C1089 C196 1.524 1_556 S
C1125 C172 1.521 . S
C1144 C633 1.387 . S
C1180 C622 1.445 . S
C1161 C274 1.543 . S
C1197 C250 1.543 . S
C1216 C538 1.364 . S
C1252 C368 1.577 . S
C1233 C21 1.585 . S
C1288 C452 1.588 . S
C1269 C60 1.591 . S
C1305 C99 1.577 . S
C1324 C459 1.569 . S
C1360 C375 1.553 . S
C1341 C138 1.583 . S
C1396 C547 1.598 . S
C1377 C177 1.588 . S
C1413 C216 1.589 . S
C1432 C631 1.597 . S
C1449 C255 1.581 . S
C1468 C638 1.576 . S
C1485 C294 1.582 . S
C1504 C554 1.570 . S
