# Generated by pormake.
# Topology pth, (4,4)-cn, num edge types: 1
# Building blocks:
#     Node 0, Type 0, BuildingBlock: QUQFOY_clean_sbu_3, # of connection points: 4
#     Node 1, Type 0, BuildingBlock: QUQFOY_clean_sbu_3, # of connection points: 4
#     Node 2, Type 0, BuildingBlock: QUQFOY_clean_sbu_3, # of connection points: 4
#     Node 3, Type 1, BuildingBlock: MIFKUJ_clean_linker_1, # of connection points: 4
#     Node 4, Type 1, BuildingBlock: MIFKUJ_clean_linker_1, # of connection points: 4
#     Node 5, Type 1, BuildingBlock: MIFKUJ_clean_linker_1, # of connection points: 4
#     Edge 6, Type (0, 1), BuildingBlock: XUDNAN_clean_linker_2, # of connection points: 2
#     Edge 7, Type (0, 1), BuildingBlock: XUDNAN_clean_linker_2, # of connection points: 2
#     Edge 8, Type (0, 1), BuildingBlock: XUDNAN_clean_linker_2, # of connection points: 2
#     Edge 9, Type (0, 1), BuildingBlock: XUDNAN_clean_linker_2, # of connection points: 2
#     Edge 10, Type (0, 1), BuildingBlock: XUDNAN_clean_linker_2, # of connection points: 2
#     Edge 11, Type (0, 1), BuildingBlock: XUDNAN_clean_linker_2, # of connection points: 2
#     Edge 12, Type (0, 1), BuildingBlock: XUDNAN_clean_linker_2, # of connection points: 2
#     Edge 13, Type (0, 1), BuildingBlock: XUDNAN_clean_linker_2, # of connection points: 2
#     Edge 14, Type (0, 1), BuildingBlock: XUDNAN_clean_linker_2, # of connection points: 2
#     Edge 15, Type (0, 1), BuildingBlock: XUDNAN_clean_linker_2, # of connection points: 2
#     Edge 16, Type (0, 1), BuildingBlock: XUDNAN_clean_linker_2, # of connection points: 2
#     Edge 17, Type (0, 1), BuildingBlock: XUDNAN_clean_linker_2, # of connection points: 2
# Relax obj value: 0.016
# Max RMSD: 0.073
# Mean RMSD: 0.058
data_MOF--net-pth--node1-QUQFOY_clean_sbu_3--node2-MIFKUJ_clean_linker_1--edge1-XUDNAN_clean_linker_2
_symmetry_space_group_name_H-M    P1
_symmetry_Int_Tables_number       1
_symmetry_cell_setting            triclinic
loop_
_symmetry_equiv_pos_as_xyz
'x, y, z'
_cell_length_a     29.854601
_cell_length_b     29.621082
_cell_length_c     65.848021
_cell_angle_alpha  89.974764
_cell_angle_beta   90.765759
_cell_angle_gamma 120.84335
loop_
_atom_site_label
_atom_site_type_symbol
_atom_site_fract_x
_atom_site_fract_y
_atom_site_fract_z
_atom_type_partial_charge
C0 C 0.99013 0.13484 0.06606 0.0
O1 O 0.9722 0.14335 0.04985 0.0
Cd2 Cd 0.95867 0.09571 0.01869 0.0
O3 O 0.00329 0.10016 0.06643 0.0
Cd4 Cd 0.00723 0.03757 0.04244 0.0
C5 C 0.08404 0.13159 0.00813 0.0
O6 O 0.92103 0.00444 0.02727 0.0
O7 O 0.9684 0.97799 0.01306 0.0
O8 O 0.98489 0.97196 0.06915 0.0
C9 C 0.92463 0.97513 0.01418 0.0
O10 O 0.0441 0.13417 0.00312 0.0
C11 C 0.02826 0.97373 0.06898 0.0
O12 O 0.08186 0.10183 0.02254 0.0
O13 O 0.06168 0.00477 0.05636 0.0
C14 C 0.14398 0.08916 0.39892 0.0
O15 O 0.16585 0.11657 0.38335 0.0
Cd16 Cd 0.11984 0.12366 0.355 0.0
O17 O 0.09461 0.06587 0.40097 0.0
Cd18 Cd 0.01784 0.06108 0.38265 0.0
C19 C 0.0308 0.99312 0.34406 0.0
O20 O 0.06618 0.15117 0.3708 0.0
O21 O 0.98785 0.10597 0.35897 0.0
O22 O 0.99328 0.06623 0.41738 0.0
C23 C 0.0302 0.14983 0.36 0.0
O24 O 0.07224 0.03578 0.33956 0.0
C25 C 0.94485 0.03397 0.4148 0.0
O26 O 0.00378 0.99078 0.35926 0.0
O27 O 0.92994 0.01376 0.3972 0.0
C28 C 0.94728 0.09548 0.69012 0.0
O29 O 0.95671 0.11903 0.70713 0.0
Cd30 Cd 0.00311 0.10472 0.73399 0.0
O31 O 0.96778 0.06815 0.68582 0.0
Cd32 Cd 0.03313 0.04915 0.70105 0.0
C33 C 0.9417 0.96885 0.73377 0.0
O34 O 0.08738 0.12617 0.72294 0.0
O35 O 0.09054 0.05604 0.72885 0.0
O36 O 0.0872 0.0867 0.67166 0.0
C37 C 0.10827 0.10433 0.73259 0.0
O38 O 0.95154 0.01156 0.74239 0.0
C39 C 0.09112 0.04724 0.66717 0.0
O40 O 0.96381 0.96959 0.71722 0.0
O41 O 0.06554 0.00638 0.67798 0.0
H42 H 0.08212 0.51741 0.17381 0.0
H43 H 0.08141 0.44647 0.15451 0.0
H44 H 0.95113 0.33178 0.18938 0.0
H45 H 0.95024 0.40264 0.20809 0.0
H46 H 0.01927 0.549 0.17559 0.0
H47 H 0.09174 0.49132 0.22598 0.0
H48 H 0.10422 0.43422 0.24925 0.0
H49 H 0.9575 0.38944 0.27751 0.0
H50 H 0.94473 0.44597 0.2539 0.0
H51 H 0.93049 0.57372 0.2485 0.0
H52 H 0.92266 0.63819 0.26844 0.0
H53 H 0.06189 0.76297 0.24064 0.0
H54 H 0.07191 0.6975 0.22209 0.0
H55 H 0.00315 0.55005 0.25034 0.0
H56 H 0.94934 0.63219 0.1975 0.0
H57 H 0.96349 0.70661 0.17664 0.0
H58 H 0.10355 0.71831 0.153 0.0
H59 H 0.09129 0.64709 0.17491 0.0
C60 C 0.01649 0.46558 0.19256 0.0
C61 C 0.05325 0.47705 0.17731 0.0
C62 C 0.05295 0.43657 0.16632 0.0
C63 C 0.01633 0.38381 0.17055 0.0
C64 C 0.98018 0.37218 0.18603 0.0
C65 C 0.97984 0.41269 0.19677 0.0
C66 C 0.01506 0.50888 0.20342 0.0
C67 C 0.01636 0.54956 0.19198 0.0
C68 C 0.01132 0.5098 0.22479 0.0
C69 C 0.01714 0.47265 0.23812 0.0
C70 C 0.06188 0.46862 0.23698 0.0
C71 C 0.06919 0.43635 0.25041 0.0
C72 C 0.03194 0.40754 0.26526 0.0
C73 C 0.98665 0.41081 0.26611 0.0
C74 C 0.97947 0.44332 0.25273 0.0
C75 C 0.00137 0.63062 0.23355 0.0
C76 C 0.95947 0.61499 0.24674 0.0
C77 C 0.95467 0.65216 0.25798 0.0
C78 C 0.99129 0.70619 0.2561 0.0
C79 C 0.03317 0.72182 0.24273 0.0
C80 C 0.03855 0.68439 0.23181 0.0
C81 C 0.00673 0.58994 0.22249 0.0
C82 C 0.00587 0.54944 0.23394 0.0
C83 C 0.01346 0.59076 0.20119 0.0
C84 C 0.01973 0.6345 0.18808 0.0
C85 C 0.98349 0.65138 0.18804 0.0
C86 C 0.99133 0.6936 0.17588 0.0
C87 C 0.03503 0.71909 0.16321 0.0
C88 C 0.07025 0.70088 0.16291 0.0
C89 C 0.06288 0.65947 0.17528 0.0
H90 H 0.58585 0.03394 0.49998 0.0
H91 H 0.65853 0.0343 0.48329 0.0
H92 H 0.65497 0.92551 0.52779 0.0
H93 H 0.58061 0.92341 0.54408 0.0
H94 H 0.49215 0.96922 0.50555 0.0
H95 H 0.63045 0.07632 0.55138 0.0
H96 H 0.70681 0.10546 0.57375 0.0
H97 H 0.62084 0.96498 0.60946 0.0
H98 H 0.54401 0.93629 0.58718 0.0
H99 H 0.39138 0.93839 0.58363 0.0
H100 H 0.33194 0.95814 0.60113 0.0
H101 H 0.3691 0.08363 0.55856 0.0
H102 H 0.4324 0.06729 0.54278 0.0
H103 H 0.49492 -0.001 0.57975 0.0
H104 H 0.3456 0.93247 0.52987 0.0
H105 H 0.29182 0.95712 0.50953 0.0
H106 H 0.42944 0.07144 0.47781 0.0
H107 H 0.48275 0.04893 0.49859 0.0
C108 C 0.57774 0.97893 0.52343 0.0
C109 C 0.60002 0.00945 0.50602 0.0
C110 C 0.64162 0.00971 0.49648 0.0
C111 C 0.66231 0.97996 0.50427 0.0
C112 C 0.63997 0.94914 0.52159 0.0
C113 C 0.59768 0.94816 0.53095 0.0
C114 C 0.53414 0.98002 0.53369 0.0
C115 C 0.49265 0.97553 0.52181 0.0
C116 C 0.53492 0.98892 0.55483 0.0
C117 C 0.58179 0.00404 0.5676 0.0
C118 C 0.62823 0.05156 0.56391 0.0
C119 C 0.67165 0.06825 0.57671 0.0
C120 C 0.66956 0.03742 0.59328 0.0
C121 C 0.62346 0.9892 0.59668 0.0
C122 C 0.57964 0.97293 0.58405 0.0
C123 C 0.41556 0.00046 0.56155 0.0
C124 C 0.38681 0.97034 0.57817 0.0
C125 C 0.3522 0.98134 0.58802 0.0
C126 C 0.34497 0.0224 0.58131 0.0
C127 C 0.37387 0.0523 0.56455 0.0
C128 C 0.40956 0.04229 0.55514 0.0
C129 C 0.45344 0.98951 0.55153 0.0
C130 C 0.49348 0.99115 0.56358 0.0
C131 C 0.45351 0.9824 0.53022 0.0
C132 C 0.41842 0.98949 0.51604 0.0
C133 C 0.36398 0.96256 0.51842 0.0
C134 C 0.33328 0.97647 0.50674 0.0
C135 C 0.35663 0.0171 0.49241 0.0
C136 C 0.41046 0.04105 0.48912 0.0
C137 C 0.44095 0.02763 0.50083 0.0
H138 H 0.50787 0.415 0.84064 0.0
H139 H 0.44236 0.33885 0.82104 0.0
H140 H 0.32373 0.37176 0.83974 0.0
H141 H 0.38955 0.44831 0.85907 0.0
H142 H 0.53941 0.51648 0.83526 0.0
H143 H 0.47024 0.39483 0.88878 0.0
H144 H 0.40627 0.3273 0.91113 0.0
H145 H 0.3554 0.4336 0.9297 0.0
H146 H 0.41872 0.50067 0.9069 0.0
H147 H 0.55845 0.66658 0.88777 0.0
H148 H 0.61606 0.74347 0.90873 0.0
H149 H 0.71632 0.67997 0.9197 0.0
H150 H 0.6598 0.60485 0.89775 0.0
H151 H 0.52246 0.5498 0.90776 0.0
H152 H 0.59364 0.66923 0.84954 0.0
H153 H 0.65908 0.72969 0.82575 0.0
H154 H 0.71377 0.62098 0.81818 0.0
H155 H 0.6475 0.56037 0.84172 0.0
C156 C 0.45351 0.43709 0.85139 0.0
C157 C 0.4677 0.40561 0.84059 0.0
C158 C 0.43021 0.36198 0.82951 0.0
C159 C 0.37796 0.34942 0.82887 0.0
C160 C 0.36378 0.38077 0.83984 0.0
C161 C 0.40122 0.42419 0.85102 0.0
C162 C 0.49372 0.48497 0.86223 0.0
C163 C 0.53601 0.52342 0.85119 0.0
C164 C 0.48914 0.49413 0.88297 0.0
C165 C 0.44895 0.45266 0.89602 0.0
C166 C 0.44483 0.40337 0.89745 0.0
C167 C 0.40864 0.36499 0.9104 0.0
C168 C 0.37588 0.37516 0.92222 0.0
C169 C 0.37972 0.42439 0.92063 0.0
C170 C 0.4161 0.46286 0.90772 0.0
C171 C 0.60525 0.6305 0.89118 0.0
C172 C 0.59352 0.67002 0.89438 0.0
C173 C 0.62623 0.71361 0.90655 0.0
C174 C 0.67066 0.71782 0.91618 0.0
C175 C 0.68298 0.67864 0.91237 0.0
C176 C 0.65061 0.63546 0.89991 0.0
C177 C 0.56721 0.5814 0.88063 0.0
C178 C 0.52558 0.54265 0.89182 0.0
C179 C 0.57298 0.57148 0.86017 0.0
C180 C 0.61613 0.61062 0.84755 0.0
C181 C 0.62045 0.65897 0.84307 0.0
C182 C 0.65787 0.69345 0.82943 0.0
C183 C 0.69162 0.68012 0.81997 0.0
C184 C 0.68789 0.63211 0.82491 0.0
C185 C 0.65035 0.59762 0.83849 0.0
H186 H -0.00545 0.22924 0.06851 0.0
H187 H -0.00078 0.11031 0.10546 0.0
H188 H 0.00725 0.16136 0.13643 0.0
H189 H 0.0898 0.34054 0.09827 0.0
H190 H 0.0572 0.37708 0.09469 0.0
H191 H 0.05143 0.33088 0.07556 0.0
H192 H 0.95062 0.28241 0.07779 0.0
H193 H 0.95607 0.32844 0.09692 0.0
H194 H 0.92011 0.25892 0.10203 0.0
H195 H 0.01068 0.22388 0.16346 0.0
H196 H 0.01498 0.29586 0.18421 0.0
H197 H 0.01252 0.37526 0.12926 0.0
C198 C -0.00283 0.21384 0.08311 0.0
C199 C -0.00407 0.16565 0.0846 0.0
C200 C 0.00012 0.14719 0.10398 0.0
C201 C 0.00459 0.17583 0.12164 0.0
C202 C 0.00549 0.22314 0.11962 0.0
C203 C 0.00242 0.24224 0.10082 0.0
C204 C 0.00518 0.29452 0.10271 0.0
C205 C 0.0538 0.33834 0.09219 0.0
C206 C 0.95501 0.29082 0.09437 0.0
C207 C 0.00968 0.30162 0.12553 0.0
C208 C 0.00947 0.25991 0.13506 0.0
C209 C 0.01135 0.25695 0.15616 0.0
C210 C 0.0136 0.29778 0.16781 0.0
C211 C 0.01455 0.3411 0.15828 0.0
C212 C 0.01271 0.34295 0.13689 0.0
H213 H 0.84046 -0.00102 0.4116 0.0
H214 H 0.96605 0.0431 0.45551 0.0
H215 H 0.90525 0.02703 0.48346 0.0
H216 H 0.78529 0.06377 0.43668 0.0
H217 H 0.71863 0.01509 0.43036 0.0
H218 H 0.77038 0.02433 0.41396 0.0
H219 H 0.74019 0.92553 0.41707 0.0
H220 H 0.68824 0.91597 0.43348 0.0
H221 H 0.73423 0.89739 0.44188 0.0
H222 H 0.83161 0.00921 0.50654 0.0
H223 H 0.75217 -0.00258 0.52289 0.0
H224 H 0.67601 0.96957 0.46386 0.0
C225 C 0.85486 0.00432 0.42712 0.0
C226 C 0.90774 0.02171 0.43145 0.0
C227 C 0.92557 0.02958 0.4519 0.0
C228 C 0.89131 0.02036 0.46786 0.0
C229 C 0.83949 0.00379 0.46309 0.0
C230 C 0.8214 0.99621 0.44321 0.0
C231 C 0.76503 0.9824 0.44212 0.0
C232 C 0.75955 0.02388 0.43007 0.0
C233 C 0.72985 0.92702 0.43311 0.0
C234 C 0.7545 0.98407 0.46446 0.0
C235 C 0.79765 0.9956 0.47633 0.0
C236 C 0.79749 -6e-05 0.49741 0.0
C237 C 0.75223 0.993 0.50657 0.0
C238 C 0.70814 0.98263 0.49462 0.0
C239 C 0.7093 0.97767 0.47332 0.0
H240 H 0.89379 0.95485 0.77027 0.0
H241 H 0.90526 0.86842 0.71932 0.0
H242 H 0.84311 0.78472 0.73597 0.0
H243 H 0.88735 0.86717 0.80923 0.0
H244 H 0.84174 0.87508 0.82424 0.0
H245 H 0.8869 0.92776 0.80824 0.0
H246 H 0.80982 0.92915 0.79026 0.0
H247 H 0.76443 0.87647 0.80621 0.0
H248 H 0.75762 0.86951 0.77897 0.0
H249 H 0.7786 0.7105 0.75825 0.0
H250 H 0.71726 0.65195 0.78416 0.0
H251 H 0.75084 0.78811 0.82068 0.0
C252 C 0.88333 0.91842 0.76252 0.0
C253 C 0.90441 0.91827 0.74343 0.0
C254 C 0.88966 0.86957 0.73393 0.0
C255 C 0.8544 0.82185 0.74327 0.0
C256 C 0.83446 0.82359 0.76211 0.0
C257 C 0.84851 0.87068 0.77161 0.0
C258 C 0.82174 0.8621 0.7918 0.0
C259 C 0.86183 0.88434 0.80941 0.0
C260 C 0.7863 0.8857 0.79179 0.0
C261 C 0.79015 0.8027 0.79219 0.0
C262 C 0.79797 0.78115 0.77495 0.0
C263 C 0.77246 0.72698 0.77186 0.0
C264 C 0.73795 0.69403 0.78675 0.0
C265 C 0.72932 0.71534 0.80454 0.0
C266 C 0.75609 0.77049 0.8072 0.0
H267 H 0.95826 0.88423 0.08898 0.0
H268 H 0.12402 0.99141 0.08066 0.0
H269 H 0.14359 0.93976 0.10484 0.0
H270 H 0.96349 0.85903 0.14224 0.0
H271 H 0.91439 0.79026 0.14028 0.0
H272 H 0.91319 0.83656 0.12286 0.0
H273 H 0.91482 0.78207 0.0924 0.0
H274 H 0.91567 0.73544 0.10972 0.0
H275 H 0.96599 0.7669 0.09105 0.0
H276 H 0.14507 0.87827 0.13061 0.0
H277 H 0.129 0.80657 0.15383 0.0
H278 H 0.96203 0.7349 0.14328 0.0
C279 C -0.00134 0.8969 0.09233 0.0
C280 C 0.0397 0.942 0.08308 0.0
C281 C 0.09204 0.95696 0.08758 0.0
C282 C 0.10352 0.92803 0.10135 0.0
C283 C 0.06218 0.88388 0.11027 0.0
C284 C 0.0108 0.86793 0.10577 0.0
C285 C 0.97374 0.81764 0.11676 0.0
C286 C 0.93917 0.82643 0.1314 0.0
C287 C 0.94062 0.77287 0.10158 0.0
C288 C 0.01234 0.80795 0.12822 0.0
C289 C 0.06308 0.84695 0.12442 0.0
C290 C 0.10551 0.84711 0.1335 0.0
C291 C 0.09589 0.80585 0.14657 0.0
C292 C 0.04421 0.7643 0.15024 0.0
C293 C 0.00199 0.76597 0.14101 0.0
H294 H 0.13193 0.00338 0.41995 0.0
H295 H 0.23165 0.17235 0.41427 0.0
H296 H 0.2915 0.17233 0.44046 0.0
H297 H 0.15409 0.9943 0.47503 0.0
H298 H 0.15616 0.93491 0.47203 0.0
H299 H 0.11693 0.94843 0.45489 0.0
H300 H 0.16512 0.93898 0.42425 0.0
H301 H 0.20439 0.92544 0.44127 0.0
H302 H 0.23529 0.97856 0.4234 0.0
H303 H 0.34237 0.1546 0.46546 0.0
H304 H 0.38662 0.11949 0.48613 0.0
H305 H 0.25858 0.96048 0.47432 0.0
C306 C 0.16584 0.04032 0.42462 0.0
C307 C 0.17714 0.08803 0.41539 0.0
C308 C 0.22247 0.13555 0.42131 0.0
C309 C 0.25644 0.13595 0.43622 0.0
C310 C 0.24482 0.08833 0.44487 0.0
C311 C 0.20098 0.04125 0.43923 0.0
C312 C 0.20091 0.99525 0.44947 0.0
C313 C 0.15424 0.96653 0.4637 0.0
C314 C 0.20148 0.95734 0.43365 0.0
C315 C 0.252 0.02392 0.46139 0.0
C316 C 0.27597 0.07763 0.45875 0.0
C317 C 0.32409 0.11262 0.46764 0.0
C318 C 0.3491 0.09221 0.47922 0.0
C319 C 0.32647 0.0372 0.48158 0.0
C320 C 0.27669 0.00269 0.47288 0.0
H321 H 0.14818 0.20553 0.74643 0.0
H322 H 0.16177 0.06735 0.75391 0.0
H323 H 0.23101 0.11438 0.77985 0.0
H324 H 0.28445 0.30098 0.7517 0.0
H325 H 0.27445 0.34744 0.76559 0.0
H326 H 0.22543 0.30265 0.74778 0.0
H327 H 0.15632 0.26906 0.77609 0.0
H328 H 0.20518 0.31367 0.79401 0.0
H329 H 0.16802 0.2443 0.79933 0.0
H330 H 0.29996 0.17682 0.80441 0.0
H331 H 0.36344 0.25053 0.82625 0.0
H332 H 0.30449 0.34761 0.80296 0.0
C333 C 0.16569 0.18516 0.75354 0.0
C334 C 0.14962 0.13279 0.74815 0.0
C335 C 0.17343 0.10746 0.75782 0.0
C336 C 0.21279 0.13382 0.77257 0.0
C337 C 0.22772 0.1854 0.77754 0.0
C338 C 0.2049 0.21081 0.76836 0.0
C339 C 0.22835 0.26642 0.77641 0.0
C340 C 0.25474 0.30674 0.75935 0.0
C341 C 0.187 0.27377 0.7871 0.0
C342 C 0.26811 0.26835 0.79145 0.0
C343 C 0.26714 0.22123 0.79186 0.0
C344 C 0.30103 0.21389 0.80427 0.0
C345 C 0.33705 0.25597 0.81653 0.0
C346 C 0.33874 0.30463 0.81632 0.0
C347 C 0.30357 0.31061 0.80366 0.0
H348 H 0.88424 0.02181 0.66174 0.0
H349 H 0.92704 0.17511 0.68607 0.0
H350 H 0.86333 0.17856 0.66272 0.0
H351 H 0.86038 0.04421 0.60929 0.0
H352 H 0.80476 0.97881 0.60602 0.0
H353 H 0.85668 0.9903 0.62344 0.0
H354 H 0.78997 0.94856 0.65244 0.0
H355 H 0.7379 0.9371 0.63513 0.0
H356 H 0.74827 0.97418 0.6582 0.0
H357 H 0.79459 0.16497 0.63702 0.0
H358 H 0.72113 0.13269 0.61235 0.0
H359 H 0.71898 0.98582 0.60633 0.0
C360 C 0.88073 0.05643 0.66191 0.0
C361 C 0.91091 0.0985 0.67553 0.0
C362 C 0.90437 0.14258 0.67569 0.0
C363 C 0.86844 0.14494 0.66246 0.0
C364 C 0.8389 0.10258 0.64936 0.0
C365 C 0.8443 0.05896 0.64909 0.0
C366 C 0.8054 0.01731 0.63449 0.0
C367 C 0.8335 0.00708 0.61729 0.0
C368 C 0.76819 0.96628 0.64574 0.0
C369 C 0.77714 0.04425 0.62665 0.0
C370 C 0.79758 0.09371 0.63521 0.0
C371 C 0.77824 0.12632 0.63022 0.0
C372 C 0.73671 0.10777 0.61619 0.0
C373 C 0.71454 0.05685 0.60754 0.0
C374 C 0.73509 0.02478 0.61286 0.0
H375 H 0.9243 0.91719 0.98152 0.0
H376 H 0.8247 0.9549 0.01607 0.0
H377 H 0.74988 0.89597 0.99389 0.0
H378 H 0.86487 0.91054 0.93208 0.0
H379 H 0.87134 0.85662 0.92322 0.0
H380 H 0.91755 0.90285 0.9415 0.0
H381 H 0.89744 0.82631 0.96593 0.0
H382 H 0.85118 0.77988 0.94775 0.0
H383 H 0.83099 0.78174 0.97326 0.0
H384 H 0.68517 0.82981 0.96924 0.0
H385 H 0.6348 0.76181 0.94338 0.0
H386 H 0.77716 0.77032 0.92349 0.0
C387 C 0.88679 0.9132 0.98437 0.0
C388 C 0.88028 0.94057 0.00055 0.0
C389 C 0.83061 0.93437 0.00376 0.0
C390 C 0.78788 0.90102 0.99123 0.0
C391 C 0.79556 0.8745 0.97547 0.0
C392 C 0.84378 0.88038 0.97191 0.0
C393 C 0.84125 0.84683 0.95405 0.0
C394 C 0.8758 0.88128 0.93668 0.0
C395 C 0.85608 0.80629 0.96065 0.0
C396 C 0.78388 0.82053 0.94837 0.0
C397 C 0.75833 0.83716 0.9609 0.0
C398 C 0.70487 0.81704 0.95913 0.0
C399 C 0.67664 0.77864 0.94423 0.0
C400 C 0.70188 0.76084 0.93114 0.0
C401 C 0.75643 0.78265 0.93325 0.0
H402 H 0.09269 0.96764 0.3227 0.0
H403 H 0.93117 0.91195 0.33697 0.0
H404 H 0.90309 0.83401 0.31491 0.0
H405 H 0.07341 0.92467 0.27063 0.0
H406 H 0.12099 0.90447 0.27179 0.0
H407 H 0.12821 0.95678 0.28804 0.0
H408 H 0.13176 0.90658 0.3197 0.0
H409 H 0.12495 0.85434 0.30353 0.0
H410 H 0.07964 0.83996 0.3238 0.0
H411 H 0.89291 0.76419 0.29024 0.0
H412 H 0.90112 0.70249 0.26779 0.0
H413 H 0.0701 0.79988 0.27247 0.0
C414 C 0.05139 0.93915 0.32108 0.0
C415 C 0.01397 0.94591 0.33134 0.0
C416 C 0.96038 0.90739 0.3292 0.0
C417 C 0.94411 0.86322 0.31665 0.0
C418 C 0.98202 0.85785 0.30665 0.0
C419 C 0.03459 0.89435 0.30898 0.0
C420 C 0.06756 0.87799 0.29742 0.0
C421 C 0.09941 0.91839 0.281 0.0
C422 C 0.10306 0.86918 0.31198 0.0
C423 C 0.0253 0.82675 0.28808 0.0
C424 C 0.97626 0.81617 0.29338 0.0
C425 C 0.93115 0.77167 0.28623 0.0
C426 C 0.93632 0.73659 0.27358 0.0
C427 C 0.9863 0.74557 0.26846 0.0
C428 C 0.03124 0.79171 0.27579 0.0
H429 H 0.10619 0.96885 0.65224 0.0
H430 H 0.15957 0.13497 0.64654 0.0
H431 H 0.22747 0.14546 0.62299 0.0
H432 H 0.22948 0.98088 0.65208 0.0
H433 H 0.21029 0.9229 0.63694 0.0
H434 H 0.16295 0.92677 0.65232 0.0
H435 H 0.10353 0.90866 0.62064 0.0
H436 H 0.15047 0.90415 0.60518 0.0
H437 H 0.12966 0.94974 0.59861 0.0
H438 H 0.2955 0.14073 0.60347 0.0
H439 H 0.3547 0.11948 0.5862 0.0
H440 H 0.2535 0.95463 0.6015 0.0
C441 C 0.13161 0.00719 0.64576 0.0
C442 C 0.12752 0.05108 0.65127 0.0
C443 C 0.16173 0.10068 0.64253 0.0
C444 C 0.20058 0.10714 0.62914 0.0
C445 C 0.20435 0.06348 0.62438 0.0
C446 C 0.17035 0.01425 0.63209 0.0
C447 C 0.18381 0.9742 0.62467 0.0
C448 C 0.19744 0.94977 0.64257 0.0
C449 C 0.13921 0.93167 0.61149 0.0
C450 C 0.23146 0.00901 0.61207 0.0
C451 C 0.24259 0.06033 0.61218 0.0
C452 C 0.28647 0.1004 0.60279 0.0
C453 C 0.31976 0.08769 0.59283 0.0
C454 C 0.30877 0.03505 0.59199 0.0
C455 C 0.26364 0.99531 0.60178 0.0
H456 H 0.10473 0.20526 0.97875 0.0
H457 H 0.17527 0.13084 0.01251 0.0
H458 H 0.2574 0.18452 0.99403 0.0
H459 H 0.1655 0.21357 0.93103 0.0
H460 H 0.17411 0.27676 0.92477 0.0
H461 H 0.12083 0.23216 0.94055 0.0
H462 H 0.1522 0.30405 0.96853 0.0
H463 H 0.2056 0.34886 0.95285 0.0
H464 H 0.21829 0.33453 0.97816 0.0
H465 H 0.33182 0.24633 0.97177 0.0
H466 H 0.39352 0.31289 0.94789 0.0
H467 H 0.27407 0.3467 0.92883 0.0
C468 C 0.13735 0.20007 0.98227 0.0
C469 C 0.13344 0.16368 -0.00291 0.0
C470 C 0.17725 0.15841 0.00125 0.0
C471 C 0.22406 0.1887 0.99081 0.0
C472 C 0.2265 0.22416 0.97632 0.0
C473 C 0.18434 0.23005 0.97208 0.0
C474 C 0.19722 0.27127 0.95596 0.0
C475 C 0.16234 0.24697 0.93695 0.0
C476 C 0.19309 0.31741 0.96438 0.0
C477 C 0.25327 0.28771 0.95179 0.0
C478 C 0.26939 0.25997 0.96363 0.0
C479 C 0.31959 0.26821 0.96239 0.0
C480 C 0.35424 0.30587 0.9487 0.0
C481 C 0.3386 0.33493 0.93647 0.0
C482 C 0.28736 0.32553 0.93811 0.0
H483 H 0.96111 0.15772 0.3343 0.0
H484 H 0.12051 0.24479 0.35751 0.0
H485 H 0.13786 0.31998 0.33595 0.0
H486 H 0.99001 0.20296 0.28306 0.0
H487 H 0.93234 0.20723 0.27944 0.0
H488 H 0.93179 0.16038 0.29702 0.0
H489 H 0.90329 0.19954 0.3258 0.0
H490 H 0.90362 0.24644 0.30828 0.0
H491 H 0.94189 0.26892 0.33144 0.0
H492 H 0.13893 0.3847 0.31134 0.0
H493 H 0.12265 0.43625 0.286 0.0
H494 H 0.96259 0.30776 0.27869 0.0
C495 C -0.00043 0.19271 0.33492 0.0
C496 C 0.03947 0.19538 0.34759 0.0
C497 C 0.08931 0.24184 0.34794 0.0
C498 C 0.09959 0.28476 0.33573 0.0
C499 C 0.05959 0.28071 0.3233 0.0
C500 C 0.0105 0.23605 0.32285 0.0
C501 C 0.97457 0.24193 0.30802 0.0
C502 C 0.95611 0.20067 0.29087 0.0
C503 C 0.9281 0.23905 0.31905 0.0
C504 C 0.01124 0.29678 0.30017 0.0
C505 C 0.06011 0.31834 0.30916 0.0
C506 C 0.10081 0.36829 0.3042 0.0
C507 C 0.09129 0.3971 0.28969 0.0
C508 C 0.04143 0.37597 0.28033 0.0
C509 C 0.00096 0.32512 0.28572 0.0
loop_
_geom_bond_atom_site_label_1
_geom_bond_atom_site_label_2
_geom_bond_distance
_geom_bond_site_symmetry_2
_ccdc_geom_bond_type
C0 O1 1.306 1_455 S
C0 O3 1.160 . S
O1 C0 1.306 1_655 S
O1 Cd2 2.228 . S
Cd2 O1 2.228 . S
Cd2 O6 2.273 . S
Cd2 O10 2.277 1_655 S
O3 C0 1.160 . S
O3 Cd4 2.203 . S
Cd4 O3 2.203 . S
Cd4 O6 2.411 1_455 S
Cd4 O7 2.333 1_445 S
Cd4 O8 2.354 1_545 S
Cd4 O12 2.277 . S
Cd4 O13 2.356 1_545 S
C5 O10 1.209 . S
C5 O12 1.226 . S
O6 Cd2 2.273 . S
O6 Cd4 2.411 1_655 S
O6 C9 1.320 1_545 S
O7 Cd4 2.333 1_665 S
O7 C9 1.214 . S
O8 Cd4 2.354 1_565 S
O8 C11 1.276 . S
C9 O6 1.320 1_565 S
C9 O7 1.214 . S
O10 Cd2 2.277 1_455 S
O10 C5 1.209 . S
C11 O8 1.276 . S
C11 O13 1.282 . S
O12 Cd4 2.277 . S
O12 C5 1.226 . S
O13 Cd4 2.356 1_565 S
O13 C11 1.282 . S
C14 O15 1.306 . S
C14 O17 1.160 . S
O15 C14 1.306 . S
O15 Cd16 2.228 . S
Cd16 O15 2.228 . S
Cd16 O20 2.273 . S
Cd16 O24 2.277 . S
O17 C14 1.160 . S
O17 Cd18 2.203 . S
Cd18 O17 2.203 . S
Cd18 O20 2.411 . S
Cd18 O21 2.333 1_455 S
Cd18 O22 2.352 1_455 S
Cd18 O26 2.277 1_445 S
Cd18 O27 2.356 1_445 S
C19 O24 1.209 1_565 S
C19 O26 1.226 1_455 S
O20 Cd16 2.273 . S
O20 Cd18 2.411 . S
O20 C23 1.320 . S
O21 Cd18 2.333 1_655 S
O21 C23 1.214 1_655 S
O22 Cd18 2.352 1_655 S
O22 C25 1.258 . S
C23 O20 1.320 . S
C23 O21 1.214 1_455 S
O24 Cd16 2.277 . S
O24 C19 1.209 1_545 S
C25 O22 1.258 . S
C25 O27 1.282 1_545 S
O26 Cd18 2.277 1_665 S
O26 C19 1.226 1_655 S
O27 Cd18 2.356 1_665 S
O27 C25 1.282 1_565 S
C28 O29 1.306 . S
C28 O31 1.160 . S
O29 C28 1.306 . S
O29 Cd30 2.228 . S
Cd30 O29 2.228 . S
Cd30 O34 2.273 1_655 S
Cd30 O38 2.277 . S
O31 C28 1.160 . S
O31 Cd32 2.203 1_655 S
Cd32 O31 2.203 1_455 S
Cd32 O34 2.411 . S
Cd32 O35 2.333 . S
Cd32 O36 2.352 . S
Cd32 O40 2.277 1_445 S
Cd32 O41 2.350 1_545 S
C33 O38 1.209 1_565 S
C33 O40 1.226 . S
O34 Cd30 2.273 1_455 S
O34 Cd32 2.411 . S
O34 C37 1.320 . S
O35 Cd32 2.333 . S
O35 C37 1.214 . S
O36 Cd32 2.352 . S
O36 C39 1.258 . S
C37 O34 1.320 . S
C37 O35 1.214 . S
O38 Cd30 2.277 . S
O38 C33 1.209 1_545 S
C39 O36 1.258 . S
C39 O41 1.277 1_545 S
O40 Cd32 2.277 1_665 S
O40 C33 1.226 . S
O41 Cd32 2.350 1_565 S
O41 C39 1.277 1_565 S
H42 C61 0.949 . S
H43 C62 0.950 . S
H44 C64 0.950 1_655 S
H45 C65 0.950 1_655 S
H46 C67 0.950 . S
H47 C70 0.950 . S
H48 C71 0.950 . S
H49 C73 0.951 . S
H50 C74 0.949 . S
H51 C76 0.949 . S
H52 C77 0.950 . S
H53 C79 0.950 . S
H54 C80 0.950 . S
H55 C82 0.950 . S
H56 C85 0.950 1_655 S
H57 C86 0.950 1_655 S
H58 C88 0.951 . S
H59 C89 0.949 . S
C60 C61 1.376 . S
C60 C65 1.386 . S
C60 C66 1.483 . S
C61 H42 0.949 . S
C61 C60 1.376 . S
C61 C62 1.397 . S
C62 H43 0.950 . S
C62 C61 1.397 . S
C62 C63 1.391 . S
C63 C62 1.391 . S
C63 C64 1.405 . S
C64 H44 0.950 1_455 S
C64 C63 1.405 . S
C64 C65 1.367 . S
C65 H45 0.950 1_455 S
C65 C60 1.386 . S
C65 C64 1.367 . S
C66 C60 1.483 . S
C66 C67 1.382 . S
C66 C68 1.403 . S
C67 H46 0.950 . S
C67 C66 1.382 . S
C67 C83 1.411 . S
C68 C66 1.403 . S
C68 C69 1.489 . S
C68 C82 1.411 . S
C69 C68 1.489 . S
C69 C70 1.383 . S
C69 C74 1.382 1_455 S
C70 H47 0.950 . S
C70 C69 1.383 . S
C70 C71 1.395 . S
C71 H48 0.950 . S
C71 C70 1.395 . S
C71 C72 1.288 . S
C72 C71 1.288 . S
C72 C73 1.392 1_455 S
C73 H49 0.951 . S
C73 C72 1.392 1_655 S
C73 C74 1.392 . S
C74 H50 0.949 . S
C74 C69 1.382 1_655 S
C74 C73 1.392 . S
C75 C76 1.376 1_455 S
C75 C80 1.386 . S
C75 C81 1.483 . S
C76 H51 0.949 . S
C76 C75 1.376 1_655 S
C76 C77 1.397 . S
C77 H52 0.950 . S
C77 C76 1.397 . S
C77 C78 1.391 1_655 S
C78 C77 1.391 1_455 S
C78 C79 1.405 . S
C79 H53 0.950 . S
C79 C78 1.405 . S
C79 C80 1.367 . S
C80 H54 0.950 . S
C80 C75 1.386 . S
C80 C79 1.367 . S
C81 C75 1.483 . S
C81 C82 1.382 . S
C81 C83 1.403 . S
C82 H55 0.950 . S
C82 C68 1.411 . S
C82 C81 1.382 . S
C83 C67 1.411 . S
C83 C81 1.403 . S
C83 C84 1.489 . S
C84 C83 1.489 . S
C84 C85 1.383 . S
C84 C89 1.382 . S
C85 H56 0.950 1_455 S
C85 C84 1.383 . S
C85 C86 1.395 . S
C86 H57 0.950 1_455 S
C86 C85 1.395 . S
C86 C87 1.288 . S
C87 C86 1.288 . S
C87 C88 1.392 . S
C88 H58 0.951 . S
C88 C87 1.392 . S
C88 C89 1.392 . S
C89 H59 0.949 . S
C89 C84 1.382 . S
C89 C88 1.392 . S
H90 C109 0.949 . S
H91 C110 0.950 . S
H92 C112 0.975 . S
H93 C113 0.950 1_565 S
H94 C115 0.950 . S
H95 C118 0.950 . S
H96 C119 0.950 . S
H97 C121 0.951 . S
H98 C122 0.949 . S
H99 C124 0.949 . S
H100 C125 0.950 . S
H101 C127 0.950 . S
H102 C128 0.950 . S
H103 C130 0.950 . S
H104 C133 0.950 1_565 S
H105 C134 0.950 1_565 S
H106 C136 0.951 . S
H107 C137 0.949 . S
C108 C109 1.376 . S
C108 C113 1.386 . S
C108 C114 1.483 . S
C109 H90 0.949 . S
C109 C108 1.376 . S
C109 C110 1.397 . S
C110 H91 0.950 . S
C110 C109 1.397 . S
C110 C111 1.391 . S
C111 C110 1.391 . S
C111 C112 1.391 1_545 S
C112 H92 0.975 . S
C112 C111 1.391 1_565 S
C112 C113 1.356 1_565 S
C113 H93 0.950 1_545 S
C113 C108 1.386 . S
C113 C112 1.356 1_545 S
C114 C108 1.483 . S
C114 C115 1.382 . S
C114 C116 1.403 . S
C115 H94 0.950 . S
C115 C114 1.382 . S
C115 C131 1.411 . S
C116 C114 1.403 . S
C116 C117 1.489 . S
C116 C130 1.411 . S
C117 C116 1.489 . S
C117 C118 1.383 . S
C117 C122 1.382 1_545 S
C118 H95 0.950 . S
C118 C117 1.383 . S
C118 C119 1.395 . S
C119 H96 0.950 . S
C119 C118 1.395 . S
C119 C120 1.288 . S
C120 C119 1.288 . S
C120 C121 1.392 1_545 S
C121 H97 0.951 . S
C121 C120 1.392 1_565 S
C121 C122 1.392 . S
C122 H98 0.949 . S
C122 C117 1.382 1_565 S
C122 C121 1.392 . S
C123 C124 1.376 1_545 S
C123 C128 1.386 . S
C123 C129 1.483 . S
C124 H99 0.949 . S
C124 C123 1.376 1_565 S
C124 C125 1.397 . S
C125 H100 0.950 . S
C125 C124 1.397 . S
C125 C126 1.391 1_565 S
C126 C125 1.391 1_545 S
C126 C127 1.405 . S
C127 H101 0.950 . S
C127 C126 1.405 . S
C127 C128 1.367 . S
C128 H102 0.950 . S
C128 C123 1.386 . S
C128 C127 1.367 . S
C129 C123 1.483 . S
C129 C130 1.382 . S
C129 C131 1.403 . S
C130 H103 0.950 . S
C130 C116 1.411 . S
C130 C129 1.382 . S
C131 C115 1.411 . S
C131 C129 1.403 . S
C131 C132 1.489 . S
C132 C131 1.489 . S
C132 C133 1.383 . S
C132 C137 1.382 . S
C133 H104 0.950 1_545 S
C133 C132 1.383 . S
C133 C134 1.395 . S
C134 H105 0.950 1_545 S
C134 C133 1.395 . S
C134 C135 1.288 . S
C135 C134 1.288 . S
C135 C136 1.392 . S
C136 H106 0.951 . S
C136 C135 1.392 . S
C136 C137 1.392 . S
C137 H107 0.949 . S
C137 C132 1.382 . S
C137 C136 1.392 . S
H138 C157 0.949 . S
H139 C158 0.950 . S
H140 C160 0.950 . S
H141 C161 0.950 . S
H142 C163 0.950 . S
H143 C166 0.950 . S
H144 C167 0.950 . S
H145 C169 0.951 . S
H146 C170 0.949 . S
H147 C172 0.949 . S
H148 C173 0.950 . S
H149 C175 0.950 . S
H150 C176 0.950 . S
H151 C178 0.950 . S
H152 C181 0.950 . S
H153 C182 0.950 . S
H154 C184 0.951 . S
H155 C185 0.949 . S
C156 C157 1.376 . S
C156 C161 1.386 . S
C156 C162 1.483 . S
C157 H138 0.949 . S
C157 C156 1.376 . S
C157 C158 1.397 . S
C158 H139 0.950 . S
C158 C157 1.397 . S
C158 C159 1.391 . S
C159 C158 1.391 . S
C159 C160 1.405 . S
C160 H140 0.950 . S
C160 C159 1.405 . S
C160 C161 1.367 . S
C161 H141 0.950 . S
C161 C156 1.386 . S
C161 C160 1.367 . S
C162 C156 1.483 . S
C162 C163 1.382 . S
C162 C164 1.403 . S
C163 H142 0.950 . S
C163 C162 1.382 . S
C163 C179 1.411 . S
C164 C162 1.403 . S
C164 C165 1.489 . S
C164 C178 1.411 . S
C165 C164 1.489 . S
C165 C166 1.383 . S
C165 C170 1.382 . S
C166 H143 0.950 . S
C166 C165 1.383 . S
C166 C167 1.395 . S
C167 H144 0.950 . S
C167 C166 1.395 . S
C167 C168 1.288 . S
C168 C167 1.288 . S
C168 C169 1.392 . S
C169 H145 0.951 . S
C169 C168 1.392 . S
C169 C170 1.392 . S
C170 H146 0.949 . S
C170 C165 1.382 . S
C170 C169 1.392 . S
C171 C172 1.376 . S
C171 C176 1.386 . S
C171 C177 1.483 . S
C172 H147 0.949 . S
C172 C171 1.376 . S
C172 C173 1.397 . S
C173 H148 0.950 . S
C173 C172 1.397 . S
C173 C174 1.391 . S
C174 C173 1.391 . S
C174 C175 1.405 . S
C175 H149 0.950 . S
C175 C174 1.405 . S
C175 C176 1.367 . S
C176 H150 0.950 . S
C176 C171 1.386 . S
C176 C175 1.367 . S
C177 C171 1.483 . S
C177 C178 1.382 . S
C177 C179 1.403 . S
C178 H151 0.950 . S
C178 C164 1.411 . S
C178 C177 1.382 . S
C179 C163 1.411 . S
C179 C177 1.403 . S
C179 C180 1.489 . S
C180 C179 1.489 . S
C180 C181 1.383 . S
C180 C185 1.382 . S
C181 H152 0.950 . S
C181 C180 1.383 . S
C181 C182 1.395 . S
C182 H153 0.950 . S
C182 C181 1.395 . S
C182 C183 1.288 . S
C183 C182 1.288 . S
C183 C184 1.392 . S
C184 H154 0.951 . S
C184 C183 1.392 . S
C184 C185 1.392 . S
C185 H155 0.949 . S
C185 C180 1.382 . S
C185 C184 1.392 . S
H186 C198 0.930 . S
H187 C200 0.930 . S
H188 C201 0.930 . S
H189 C205 0.959 . S
H190 C205 0.959 . S
H191 C205 0.961 . S
H192 C206 0.960 . S
H193 C206 0.961 . S
H194 C206 0.959 1_655 S
H195 C209 0.929 1_655 S
H196 C210 0.931 . S
H197 C212 0.930 . S
C198 H186 0.930 . S
C198 C199 1.399 . S
C198 C203 1.399 . S
C199 C198 1.399 . S
C199 C200 1.374 1_455 S
C200 H187 0.930 . S
C200 C199 1.374 1_655 S
C200 C201 1.391 . S
C201 H188 0.930 . S
C201 C200 1.391 . S
C201 C202 1.390 1_655 S
C202 C201 1.390 1_455 S
C202 C203 1.394 . S
C202 C208 1.465 . S
C203 C198 1.399 . S
C203 C202 1.394 . S
C203 C204 1.516 . S
C204 C203 1.516 . S
C204 C205 1.502 . S
C204 C206 1.561 . S
C204 C207 1.526 . S
C205 H189 0.959 . S
C205 H190 0.959 . S
C205 H191 0.961 . S
C205 C204 1.502 . S
C206 H192 0.960 . S
C206 H193 0.961 . S
C206 H194 0.959 1_455 S
C206 C204 1.561 . S
C207 C204 1.526 . S
C207 C208 1.396 . S
C207 C212 1.390 . S
C208 C202 1.465 . S
C208 C207 1.396 . S
C208 C209 1.399 . S
C209 H195 0.929 1_455 S
C209 C208 1.399 . S
C209 C210 1.385 . S
C210 H196 0.931 . S
C210 C209 1.385 . S
C210 C211 1.389 . S
C211 C210 1.389 . S
C211 C212 1.387 . S
C212 H197 0.930 . S
C212 C207 1.390 . S
C212 C211 1.387 . S
H213 C225 0.947 . S
H214 C227 0.930 . S
H215 C228 0.930 . S
H216 C232 0.959 . S
H217 C232 0.959 . S
H218 C232 0.961 . S
H219 C233 0.960 . S
H220 C233 0.961 . S
H221 C233 0.959 . S
H222 C236 0.929 . S
H223 C237 0.931 . S
H224 C239 0.930 1_565 S
C225 H213 0.947 . S
C225 C226 1.395 1_565 S
C225 C230 1.387 1_565 S
C226 C225 1.395 1_545 S
C226 C227 1.376 . S
C227 H214 0.930 . S
C227 C226 1.376 . S
C227 C228 1.388 . S
C228 H215 0.930 . S
C228 C227 1.388 . S
C228 C229 1.390 . S
C229 C228 1.390 . S
C229 C230 1.394 . S
C229 C235 1.465 . S
C230 C225 1.387 1_545 S
C230 C229 1.394 . S
C230 C231 1.516 1_545 S
C231 C230 1.516 1_565 S
C231 C232 1.502 . S
C231 C233 1.561 . S
C231 C234 1.526 1_565 S
C232 H216 0.959 . S
C232 H217 0.959 . S
C232 H218 0.961 . S
C232 C231 1.502 . S
C233 H219 0.960 . S
C233 H220 0.961 . S
C233 H221 0.959 . S
C233 C231 1.561 . S
C234 C231 1.526 1_545 S
C234 C235 1.396 . S
C234 C239 1.390 . S
C235 C229 1.465 . S
C235 C234 1.396 . S
C235 C236 1.399 . S
C236 H222 0.929 . S
C236 C235 1.399 . S
C236 C237 1.385 . S
C237 H223 0.931 . S
C237 C236 1.385 . S
C237 C238 1.389 . S
C238 C237 1.389 . S
C238 C239 1.387 . S
C239 H224 0.930 1_545 S
C239 C234 1.390 . S
C239 C238 1.387 . S
H240 C252 0.930 . S
H241 C254 0.930 . S
H242 C255 0.930 . S
H243 C259 0.959 . S
H244 C259 0.959 . S
H245 C259 0.961 . S
H246 C260 0.960 . S
H247 C260 0.961 . S
H248 C260 0.959 . S
H249 C263 0.929 . S
H250 C264 0.931 . S
H251 C266 0.930 . S
C252 H240 0.930 . S
C252 C253 1.399 . S
C252 C257 1.399 . S
C253 C252 1.399 . S
C253 C254 1.376 . S
C254 H241 0.930 . S
C254 C253 1.376 . S
C254 C255 1.388 . S
C255 H242 0.930 . S
C255 C254 1.388 . S
C255 C256 1.390 . S
C256 C255 1.390 . S
C256 C257 1.394 . S
C256 C262 1.465 . S
C257 C252 1.399 . S
C257 C256 1.394 . S
C257 C258 1.516 . S
C258 C257 1.516 . S
C258 C259 1.502 . S
C258 C260 1.561 . S
C258 C261 1.526 . S
C259 H243 0.959 . S
C259 H244 0.959 . S
C259 H245 0.961 . S
C259 C258 1.502 . S
C260 H246 0.960 . S
C260 H247 0.961 . S
C260 H248 0.959 . S
C260 C258 1.561 . S
C261 C258 1.526 . S
C261 C262 1.396 . S
C261 C266 1.390 . S
C262 C256 1.465 . S
C262 C261 1.396 . S
C262 C263 1.399 . S
C263 H249 0.929 . S
C263 C262 1.399 . S
C263 C264 1.385 . S
C264 H250 0.931 . S
C264 C263 1.385 . S
C264 C265 1.389 . S
C265 C264 1.389 . S
C265 C266 1.387 . S
C266 H251 0.930 . S
C266 C261 1.390 . S
C266 C265 1.387 . S
H267 C279 0.930 1_655 S
H268 C281 0.930 . S
H269 C282 0.930 . S
H270 C286 0.959 . S
H271 C286 0.959 . S
H272 C286 0.961 . S
H273 C287 0.960 . S
H274 C287 0.961 1_655 S
H275 C287 0.959 . S
H276 C290 0.929 . S
H277 C291 0.931 . S
H278 C293 0.930 1_655 S
C279 H267 0.930 1_455 S
C279 C280 1.399 . S
C279 C284 1.399 . S
C280 C279 1.399 . S
C280 C281 1.376 . S
C281 H268 0.930 . S
C281 C280 1.376 . S
C281 C282 1.388 . S
C282 H269 0.930 . S
C282 C281 1.388 . S
C282 C283 1.390 . S
C283 C282 1.390 . S
C283 C284 1.394 . S
C283 C289 1.465 . S
C284 C279 1.399 . S
C284 C283 1.394 . S
C284 C285 1.518 1_455 S
C285 C284 1.518 1_655 S
C285 C286 1.520 . S
C285 C287 1.550 1_655 S
C285 C288 1.514 1_655 S
C286 H270 0.959 . S
C286 H271 0.959 . S
C286 H272 0.961 . S
C286 C285 1.520 . S
C287 H273 0.960 . S
C287 H274 0.961 1_455 S
C287 H275 0.959 . S
C287 C285 1.550 1_455 S
C288 C285 1.514 1_455 S
C288 C289 1.396 . S
C288 C293 1.390 . S
C289 C283 1.465 . S
C289 C288 1.396 . S
C289 C290 1.399 . S
C290 H276 0.929 . S
C290 C289 1.399 . S
C290 C291 1.385 . S
C291 H277 0.931 . S
C291 C290 1.385 . S
C291 C292 1.389 . S
C292 C291 1.389 . S
C292 C293 1.387 . S
C293 H278 0.930 1_455 S
C293 C288 1.390 . S
C293 C292 1.387 . S
H294 C306 0.930 1_565 S
H295 C308 0.930 . S
H296 C309 0.930 . S
H297 C313 0.959 . S
H298 C313 0.959 . S
H299 C313 0.961 . S
H300 C314 0.960 . S
H301 C314 0.961 . S
H302 C314 0.959 . S
H303 C317 0.929 . S
H304 C318 0.931 . S
H305 C320 0.930 1_565 S
C306 H294 0.930 1_545 S
C306 C307 1.399 . S
C306 C311 1.399 . S
C307 C306 1.399 . S
C307 C308 1.376 . S
C308 H295 0.930 . S
C308 C307 1.376 . S
C308 C309 1.388 . S
C309 H296 0.930 . S
C309 C308 1.388 . S
C309 C310 1.390 . S
C310 C309 1.390 . S
C310 C311 1.394 . S
C310 C316 1.465 . S
C311 C306 1.399 . S
C311 C310 1.394 . S
C311 C312 1.516 1_545 S
C312 C311 1.516 1_565 S
C312 C313 1.502 . S
C312 C314 1.561 . S
C312 C315 1.526 1_565 S
C313 H297 0.959 . S
C313 H298 0.959 . S
C313 H299 0.961 . S
C313 C312 1.502 . S
C314 H300 0.960 . S
C314 H301 0.961 . S
C314 H302 0.959 . S
C314 C312 1.561 . S
C315 C312 1.526 1_545 S
C315 C316 1.396 . S
C315 C320 1.390 . S
C316 C310 1.465 . S
C316 C315 1.396 . S
C316 C317 1.399 . S
C317 H303 0.929 . S
C317 C316 1.399 . S
C317 C318 1.385 . S
C318 H304 0.931 . S
C318 C317 1.385 . S
C318 C319 1.389 . S
C319 C318 1.389 . S
C319 C320 1.387 . S
C320 H305 0.930 1_545 S
C320 C315 1.390 . S
C320 C319 1.387 . S
H321 C333 0.930 . S
H322 C335 0.930 . S
H323 C336 0.930 . S
H324 C340 0.959 . S
H325 C340 0.959 . S
H326 C340 0.961 . S
H327 C341 0.960 . S
H328 C341 0.961 . S
H329 C341 0.959 . S
H330 C344 0.929 . S
H331 C345 0.931 . S
H332 C347 0.930 . S
C333 H321 0.930 . S
C333 C334 1.399 . S
C333 C338 1.399 . S
C334 C333 1.399 . S
C334 C335 1.376 . S
C335 H322 0.930 . S
C335 C334 1.376 . S
C335 C336 1.388 . S
C336 H323 0.930 . S
C336 C335 1.388 . S
C336 C337 1.390 . S
C337 C336 1.390 . S
C337 C338 1.394 . S
C337 C343 1.465 . S
C338 C333 1.399 . S
C338 C337 1.394 . S
C338 C339 1.516 . S
C339 C338 1.516 . S
C339 C340 1.502 . S
C339 C341 1.561 . S
C339 C342 1.526 . S
C340 H324 0.959 . S
C340 H325 0.959 . S
C340 H326 0.961 . S
C340 C339 1.502 . S
C341 H327 0.960 . S
C341 H328 0.961 . S
C341 H329 0.959 . S
C341 C339 1.561 . S
C342 C339 1.526 . S
C342 C343 1.396 . S
C342 C347 1.390 . S
C343 C337 1.465 . S
C343 C342 1.396 . S
C343 C344 1.399 . S
C344 H330 0.929 . S
C344 C343 1.399 . S
C344 C345 1.385 . S
C345 H331 0.931 . S
C345 C344 1.385 . S
C345 C346 1.389 . S
C346 C345 1.389 . S
C346 C347 1.387 . S
C347 H332 0.930 . S
C347 C342 1.390 . S
C347 C346 1.387 . S
H348 C360 0.930 1_565 S
H349 C362 0.930 . S
H350 C363 0.930 . S
H351 C367 0.959 . S
H352 C367 0.959 . S
H353 C367 0.961 . S
H354 C368 0.960 . S
H355 C368 0.961 . S
H356 C368 0.959 . S
H357 C371 0.929 . S
H358 C372 0.931 . S
H359 C374 0.930 1_565 S
C360 H348 0.930 1_545 S
C360 C361 1.399 . S
C360 C365 1.399 . S
C361 C360 1.399 . S
C361 C362 1.376 . S
C362 H349 0.930 . S
C362 C361 1.376 . S
C362 C363 1.388 . S
C363 H350 0.930 . S
C363 C362 1.388 . S
C363 C364 1.390 . S
C364 C363 1.390 . S
C364 C365 1.394 . S
C364 C370 1.465 . S
C365 C360 1.399 . S
C365 C364 1.394 . S
C365 C366 1.516 1_545 S
C366 C365 1.516 1_565 S
C366 C367 1.502 . S
C366 C368 1.561 . S
C366 C369 1.526 1_565 S
C367 H351 0.959 . S
C367 H352 0.959 . S
C367 H353 0.961 . S
C367 C366 1.502 . S
C368 H354 0.960 . S
C368 H355 0.961 . S
C368 H356 0.959 . S
C368 C366 1.561 . S
C369 C366 1.526 1_545 S
C369 C370 1.396 . S
C369 C374 1.390 . S
C370 C364 1.465 . S
C370 C369 1.396 . S
C370 C371 1.399 . S
C371 H357 0.929 . S
C371 C370 1.399 . S
C371 C372 1.385 . S
C372 H358 0.931 . S
C372 C371 1.385 . S
C372 C373 1.389 . S
C373 C372 1.389 . S
C373 C374 1.387 . S
C374 H359 0.930 1_545 S
C374 C369 1.390 . S
C374 C373 1.387 . S
H375 C387 0.930 . S
H376 C389 0.930 . S
H377 C390 0.930 . S
H378 C394 0.959 . S
H379 C394 0.959 . S
H380 C394 0.961 . S
H381 C395 0.960 . S
H382 C395 0.961 . S
H383 C395 0.959 . S
H384 C398 0.929 . S
H385 C399 0.931 . S
H386 C401 0.930 . S
C387 H375 0.930 . S
C387 C388 1.399 1_556 S
C387 C392 1.399 . S
C388 C387 1.399 1_554 S
C388 C389 1.376 . S
C389 H376 0.930 . S
C389 C388 1.376 . S
C389 C390 1.388 . S
C390 H377 0.930 . S
C390 C389 1.388 . S
C390 C391 1.390 1_554 S
C391 C390 1.390 1_556 S
C391 C392 1.394 . S
C391 C397 1.465 . S
C392 C387 1.399 . S
C392 C391 1.394 . S
C392 C393 1.516 . S
C393 C392 1.516 . S
C393 C394 1.502 . S
C393 C395 1.561 . S
C393 C396 1.526 . S
C394 H378 0.959 . S
C394 H379 0.959 . S
C394 H380 0.961 . S
C394 C393 1.502 . S
C395 H381 0.960 . S
C395 H382 0.961 . S
C395 H383 0.959 . S
C395 C393 1.561 . S
C396 C393 1.526 . S
C396 C397 1.396 . S
C396 C401 1.390 . S
C397 C391 1.465 . S
C397 C396 1.396 . S
C397 C398 1.399 . S
C398 H384 0.929 . S
C398 C397 1.399 . S
C398 C399 1.385 . S
C399 H385 0.931 . S
C399 C398 1.385 . S
C399 C400 1.389 . S
C400 C399 1.389 . S
C400 C401 1.387 . S
C401 H386 0.930 . S
C401 C396 1.390 . S
C401 C400 1.387 . S
H402 C414 0.930 . S
H403 C416 0.930 . S
H404 C417 0.930 . S
H405 C421 0.959 . S
H406 C421 0.959 . S
H407 C421 0.961 . S
H408 C422 0.960 . S
H409 C422 0.961 . S
H410 C422 0.959 . S
H411 C425 0.929 . S
H412 C426 0.931 . S
H413 C428 0.930 . S
C414 H402 0.930 . S
C414 C415 1.399 . S
C414 C419 1.399 . S
C415 C414 1.399 . S
C415 C416 1.376 1_455 S
C416 H403 0.930 . S
C416 C415 1.376 1_655 S
C416 C417 1.388 . S
C417 H404 0.930 . S
C417 C416 1.388 . S
C417 C418 1.375 1_655 S
C418 C417 1.375 1_455 S
C418 C419 1.404 . S
C418 C424 1.473 . S
C419 C414 1.399 . S
C419 C418 1.404 . S
C419 C420 1.516 . S
C420 C419 1.516 . S
C420 C421 1.502 . S
C420 C422 1.561 . S
C420 C423 1.526 . S
C421 H405 0.959 . S
C421 H406 0.959 . S
C421 H407 0.961 . S
C421 C420 1.502 . S
C422 H408 0.960 . S
C422 H409 0.961 . S
C422 H410 0.959 . S
C422 C420 1.561 . S
C423 C420 1.526 . S
C423 C424 1.396 . S
C423 C428 1.390 . S
C424 C418 1.473 . S
C424 C423 1.396 . S
C424 C425 1.399 1_455 S
C425 H411 0.929 . S
C425 C424 1.399 1_655 S
C425 C426 1.385 . S
C426 H412 0.931 . S
C426 C425 1.385 . S
C426 C427 1.389 1_655 S
C427 C426 1.389 1_455 S
C427 C428 1.387 . S
C428 H413 0.930 . S
C428 C423 1.390 . S
C428 C427 1.387 . S
H429 C441 0.930 1_565 S
H430 C443 0.930 . S
H431 C444 0.930 . S
H432 C448 0.959 . S
H433 C448 0.959 . S
H434 C448 0.961 . S
H435 C449 0.960 . S
H436 C449 0.961 . S
H437 C449 0.959 . S
H438 C452 0.929 . S
H439 C453 0.931 . S
H440 C455 0.930 1_565 S
C441 H429 0.930 1_545 S
C441 C442 1.399 . S
C441 C446 1.399 . S
C442 C441 1.399 . S
C442 C443 1.376 . S
C443 H430 0.930 . S
C443 C442 1.376 . S
C443 C444 1.388 . S
C444 H431 0.930 . S
C444 C443 1.388 . S
C444 C445 1.390 . S
C445 C444 1.390 . S
C445 C446 1.394 . S
C445 C451 1.465 . S
C446 C441 1.399 . S
C446 C445 1.394 . S
C446 C447 1.516 1_545 S
C447 C446 1.516 1_565 S
C447 C448 1.502 . S
C447 C449 1.561 . S
C447 C450 1.526 1_565 S
C448 H432 0.959 . S
C448 H433 0.959 . S
C448 H434 0.961 . S
C448 C447 1.502 . S
C449 H435 0.960 . S
C449 H436 0.961 . S
C449 H437 0.959 . S
C449 C447 1.561 . S
C450 C447 1.526 1_545 S
C450 C451 1.396 . S
C450 C455 1.390 . S
C451 C445 1.465 . S
C451 C450 1.396 . S
C451 C452 1.399 . S
C452 H438 0.929 . S
C452 C451 1.399 . S
C452 C453 1.385 . S
C453 H439 0.931 . S
C453 C452 1.385 . S
C453 C454 1.389 . S
C454 C453 1.389 . S
C454 C455 1.387 . S
C455 H440 0.930 1_545 S
C455 C450 1.390 . S
C455 C454 1.387 . S
H456 C468 0.930 . S
H457 C470 0.930 . S
H458 C471 0.930 . S
H459 C475 0.959 . S
H460 C475 0.959 . S
H461 C475 0.961 . S
H462 C476 0.960 . S
H463 C476 0.961 . S
H464 C476 0.959 . S
H465 C479 0.929 . S
H466 C480 0.931 . S
H467 C482 0.930 . S
C468 H456 0.930 . S
C468 C469 1.399 1_556 S
C468 C473 1.399 . S
C469 C468 1.399 1_554 S
C469 C470 1.376 . S
C470 H457 0.930 . S
C470 C469 1.376 . S
C470 C471 1.388 . S
C471 H458 0.930 . S
C471 C470 1.388 . S
C471 C472 1.390 1_554 S
C472 C471 1.390 1_556 S
C472 C473 1.394 . S
C472 C478 1.465 . S
C473 C468 1.399 . S
C473 C472 1.394 . S
C473 C474 1.516 . S
C474 C473 1.516 . S
C474 C475 1.502 . S
C474 C476 1.561 . S
C474 C477 1.526 . S
C475 H459 0.959 . S
C475 H460 0.959 . S
C475 H461 0.961 . S
C475 C474 1.502 . S
C476 H462 0.960 . S
C476 H463 0.961 . S
C476 H464 0.959 . S
C476 C474 1.561 . S
C477 C474 1.526 . S
C477 C478 1.396 . S
C477 C482 1.390 . S
C478 C472 1.465 . S
C478 C477 1.396 . S
C478 C479 1.399 . S
C479 H465 0.929 . S
C479 C478 1.399 . S
C479 C480 1.385 . S
C480 H466 0.931 . S
C480 C479 1.385 . S
C480 C481 1.389 . S
C481 C480 1.389 . S
C481 C482 1.387 . S
C482 H467 0.930 . S
C482 C477 1.390 . S
C482 C481 1.387 . S
H483 C495 0.930 . S
H484 C497 0.930 . S
H485 C498 0.930 . S
H486 C502 0.959 . S
H487 C502 0.959 . S
H488 C502 0.961 . S
H489 C503 0.960 . S
H490 C503 0.961 . S
H491 C503 0.959 . S
H492 C506 0.929 . S
H493 C507 0.931 . S
H494 C509 0.930 . S
C495 H483 0.930 . S
C495 C496 1.399 . S
C495 C500 1.399 . S
C496 C495 1.399 . S
C496 C497 1.376 . S
C497 H484 0.930 . S
C497 C496 1.376 . S
C497 C498 1.388 . S
C498 H485 0.930 . S
C498 C497 1.388 . S
C498 C499 1.390 . S
C499 C498 1.390 . S
C499 C500 1.394 . S
C499 C505 1.465 . S
C500 C495 1.399 . S
C500 C499 1.394 . S
C500 C501 1.516 . S
C501 C500 1.516 . S
C501 C502 1.502 . S
C501 C503 1.561 1_455 S
C501 C504 1.526 . S
C502 H486 0.959 . S
C502 H487 0.959 . S
C502 H488 0.961 . S
C502 C501 1.502 . S
C503 H489 0.960 . S
C503 H490 0.961 . S
C503 H491 0.959 . S
C503 C501 1.561 1_655 S
C504 C501 1.526 . S
C504 C505 1.396 . S
C504 C509 1.390 . S
C505 C499 1.465 . S
C505 C504 1.396 . S
C505 C506 1.399 . S
C506 H492 0.929 . S
C506 C505 1.399 . S
C506 C507 1.385 . S
C507 H493 0.931 . S
C507 C506 1.385 . S
C507 C508 1.389 . S
C508 C507 1.389 . S
C508 C509 1.387 . S
C509 H494 0.930 . S
C509 C504 1.390 . S
C509 C508 1.387 . S
C211 C63 1.461 . S
C199 C0 1.465 . S
C226 C25 1.505 . S
C238 C111 1.498 . S
C253 C33 1.521 . S
C265 C183 1.501 . S
C280 C11 1.457 . S
C292 C87 1.449 . S
C319 C135 1.472 . S
C307 C14 1.480 . S
C334 C37 1.535 . S
C346 C159 1.530 . S
C373 C120 1.495 . S
C361 C28 1.477 . S
C388 C9 1.514 . S
C400 C174 1.529 . S
C427 C78 1.544 . S
C415 C19 1.560 . S
C454 C126 1.505 . S
C442 C39 1.504 . S
C481 C168 1.516 . S
C469 C5 1.517 . S
C496 C23 1.548 . S
C508 C72 1.553 . S
