# Generated by pormake.
# Topology eea, (3,6)-cn, num edge types: 1
# Building blocks:
#     Node 0, Type 0, BuildingBlock: MIDCAF_clean_linker_0, # of connection points: 3
#     Node 1, Type 0, BuildingBlock: MIDCAF_clean_linker_0, # of connection points: 3
#     Node 2, Type 0, BuildingBlock: MIDCAF_clean_linker_0, # of connection points: 3
#     Node 3, Type 0, BuildingBlock: MIDCAF_clean_linker_0, # of connection points: 3
#     Node 4, Type 0, BuildingBlock: MIDCAF_clean_linker_0, # of connection points: 3
#     Node 5, Type 0, BuildingBlock: MIDCAF_clean_linker_0, # of connection points: 3
#     Node 6, Type 0, BuildingBlock: MIDCAF_clean_linker_0, # of connection points: 3
#     Node 7, Type 0, BuildingBlock: MIDCAF_clean_linker_0, # of connection points: 3
#     Node 8, Type 0, BuildingBlock: MIDCAF_clean_linker_0, # of connection points: 3
#     Node 9, Type 0, BuildingBlock: MIDCAF_clean_linker_0, # of connection points: 3
#     Node 10, Type 0, BuildingBlock: MIDCAF_clean_linker_0, # of connection points: 3
#     Node 11, Type 0, BuildingBlock: MIDCAF_clean_linker_0, # of connection points: 3
#     Node 12, Type 0, BuildingBlock: MIDCAF_clean_linker_0, # of connection points: 3
#     Node 13, Type 0, BuildingBlock: MIDCAF_clean_linker_0, # of connection points: 3
#     Node 14, Type 0, BuildingBlock: MIDCAF_clean_linker_0, # of connection points: 3
#     Node 15, Type 0, BuildingBlock: MIDCAF_clean_linker_0, # of connection points: 3
#     Node 16, Type 0, BuildingBlock: MIDCAF_clean_linker_0, # of connection points: 3
#     Node 17, Type 0, BuildingBlock: MIDCAF_clean_linker_0, # of connection points: 3
#     Node 18, Type 1, BuildingBlock: CUWYAW_clean_sbu_0, # of connection points: 6
#     Node 19, Type 1, BuildingBlock: CUWYAW_clean_sbu_0, # of connection points: 6
#     Node 20, Type 1, BuildingBlock: CUWYAW_clean_sbu_0, # of connection points: 6
#     Node 21, Type 1, BuildingBlock: CUWYAW_clean_sbu_0, # of connection points: 6
#     Node 22, Type 1, BuildingBlock: CUWYAW_clean_sbu_0, # of connection points: 6
#     Node 23, Type 1, BuildingBlock: CUWYAW_clean_sbu_0, # of connection points: 6
#     Node 24, Type 1, BuildingBlock: CUWYAW_clean_sbu_0, # of connection points: 6
#     Node 25, Type 1, BuildingBlock: CUWYAW_clean_sbu_0, # of connection points: 6
#     Node 26, Type 1, BuildingBlock: CUWYAW_clean_sbu_0, # of connection points: 6
#     Edge 27, Type (0, 1), BuildingBlock: TEMPAE_clean_linker_10, # of connection points: 2
#     Edge 28, Type (0, 1), BuildingBlock: TEMPAE_clean_linker_10, # of connection points: 2
#     Edge 29, Type (0, 1), BuildingBlock: TEMPAE_clean_linker_10, # of connection points: 2
#     Edge 30, Type (0, 1), BuildingBlock: TEMPAE_clean_linker_10, # of connection points: 2
#     Edge 31, Type (0, 1), BuildingBlock: TEMPAE_clean_linker_10, # of connection points: 2
#     Edge 32, Type (0, 1), BuildingBlock: TEMPAE_clean_linker_10, # of connection points: 2
#     Edge 33, Type (0, 1), BuildingBlock: TEMPAE_clean_linker_10, # of connection points: 2
#     Edge 34, Type (0, 1), BuildingBlock: TEMPAE_clean_linker_10, # of connection points: 2
#     Edge 35, Type (0, 1), BuildingBlock: TEMPAE_clean_linker_10, # of connection points: 2
#     Edge 36, Type (0, 1), BuildingBlock: TEMPAE_clean_linker_10, # of connection points: 2
#     Edge 37, Type (0, 1), BuildingBlock: TEMPAE_clean_linker_10, # of connection points: 2
#     Edge 38, Type (0, 1), BuildingBlock: TEMPAE_clean_linker_10, # of connection points: 2
#     Edge 39, Type (0, 1), BuildingBlock: TEMPAE_clean_linker_10, # of connection points: 2
#     Edge 40, Type (0, 1), BuildingBlock: TEMPAE_clean_linker_10, # of connection points: 2
#     Edge 41, Type (0, 1), BuildingBlock: TEMPAE_clean_linker_10, # of connection points: 2
#     Edge 42, Type (0, 1), BuildingBlock: TEMPAE_clean_linker_10, # of connection points: 2
#     Edge 43, Type (0, 1), BuildingBlock: TEMPAE_clean_linker_10, # of connection points: 2
#     Edge 44, Type (0, 1), BuildingBlock: TEMPAE_clean_linker_10, # of connection points: 2
#     Edge 45, Type (0, 1), BuildingBlock: TEMPAE_clean_linker_10, # of connection points: 2
#     Edge 46, Type (0, 1), BuildingBlock: TEMPAE_clean_linker_10, # of connection points: 2
#     Edge 47, Type (0, 1), BuildingBlock: TEMPAE_clean_linker_10, # of connection points: 2
#     Edge 48, Type (0, 1), BuildingBlock: TEMPAE_clean_linker_10, # of connection points: 2
#     Edge 49, Type (0, 1), BuildingBlock: TEMPAE_clean_linker_10, # of connection points: 2
#     Edge 50, Type (0, 1), BuildingBlock: TEMPAE_clean_linker_10, # of connection points: 2
#     Edge 51, Type (0, 1), BuildingBlock: TEMPAE_clean_linker_10, # of connection points: 2
#     Edge 52, Type (0, 1), BuildingBlock: TEMPAE_clean_linker_10, # of connection points: 2
#     Edge 53, Type (0, 1), BuildingBlock: TEMPAE_clean_linker_10, # of connection points: 2
#     Edge 54, Type (0, 1), BuildingBlock: TEMPAE_clean_linker_10, # of connection points: 2
#     Edge 55, Type (0, 1), BuildingBlock: TEMPAE_clean_linker_10, # of connection points: 2
#     Edge 56, Type (0, 1), BuildingBlock: TEMPAE_clean_linker_10, # of connection points: 2
#     Edge 57, Type (0, 1), BuildingBlock: TEMPAE_clean_linker_10, # of connection points: 2
#     Edge 58, Type (0, 1), BuildingBlock: TEMPAE_clean_linker_10, # of connection points: 2
#     Edge 59, Type (0, 1), BuildingBlock: TEMPAE_clean_linker_10, # of connection points: 2
#     Edge 60, Type (0, 1), BuildingBlock: TEMPAE_clean_linker_10, # of connection points: 2
#     Edge 61, Type (0, 1), BuildingBlock: TEMPAE_clean_linker_10, # of connection points: 2
#     Edge 62, Type (0, 1), BuildingBlock: TEMPAE_clean_linker_10, # of connection points: 2
#     Edge 63, Type (0, 1), BuildingBlock: TEMPAE_clean_linker_10, # of connection points: 2
#     Edge 64, Type (0, 1), BuildingBlock: TEMPAE_clean_linker_10, # of connection points: 2
#     Edge 65, Type (0, 1), BuildingBlock: TEMPAE_clean_linker_10, # of connection points: 2
#     Edge 66, Type (0, 1), BuildingBlock: TEMPAE_clean_linker_10, # of connection points: 2
#     Edge 67, Type (0, 1), BuildingBlock: TEMPAE_clean_linker_10, # of connection points: 2
#     Edge 68, Type (0, 1), BuildingBlock: TEMPAE_clean_linker_10, # of connection points: 2
#     Edge 69, Type (0, 1), BuildingBlock: TEMPAE_clean_linker_10, # of connection points: 2
#     Edge 70, Type (0, 1), BuildingBlock: TEMPAE_clean_linker_10, # of connection points: 2
#     Edge 71, Type (0, 1), BuildingBlock: TEMPAE_clean_linker_10, # of connection points: 2
#     Edge 72, Type (0, 1), BuildingBlock: TEMPAE_clean_linker_10, # of connection points: 2
#     Edge 73, Type (0, 1), BuildingBlock: TEMPAE_clean_linker_10, # of connection points: 2
#     Edge 74, Type (0, 1), BuildingBlock: TEMPAE_clean_linker_10, # of connection points: 2
#     Edge 75, Type (0, 1), BuildingBlock: TEMPAE_clean_linker_10, # of connection points: 2
#     Edge 76, Type (0, 1), BuildingBlock: TEMPAE_clean_linker_10, # of connection points: 2
#     Edge 77, Type (0, 1), BuildingBlock: TEMPAE_clean_linker_10, # of connection points: 2
#     Edge 78, Type (0, 1), BuildingBlock: TEMPAE_clean_linker_10, # of connection points: 2
#     Edge 79, Type (0, 1), BuildingBlock: TEMPAE_clean_linker_10, # of connection points: 2
#     Edge 80, Type (0, 1), BuildingBlock: TEMPAE_clean_linker_10, # of connection points: 2
# Relax obj value: 0.035
# Max RMSD: 0.133
# Mean RMSD: 0.075
data_MOF--net-eea--node1-CUWYAW_clean_sbu_0--node2-MIDCAF_clean_linker_0--edge1-TEMPAE_clean_linker_10
_symmetry_space_group_name_H-M    P1
_symmetry_Int_Tables_number       1
_symmetry_cell_setting            triclinic
loop_
_symmetry_equiv_pos_as_xyz
'x, y, z'
_cell_length_a     62.804158
_cell_length_b     62.484186
_cell_length_c     91.184869
_cell_angle_alpha  93.492239
_cell_angle_beta   93.423591
_cell_angle_gamma 119.85288
loop_
_atom_site_label
_atom_site_type_symbol
_atom_site_fract_x
_atom_site_fract_y
_atom_site_fract_z
_atom_type_partial_charge
C0 C 0.19285 0.02567 0.40519 0.0
C1 C 0.20154 0.02823 0.39117 0.0
C2 C 0.21315 0.05195 0.38615 0.0
C3 C 0.21545 0.0724 0.39478 0.0
H4 H 0.2273 0.14551 0.39322 0.0
H5 H 0.22426 0.17679 0.38011 0.0
H6 H 0.1893 0.19078 0.41599 0.0
H7 H 0.19353 0.16031 0.4294 0.0
H8 H 0.21639 0.14754 0.46194 0.0
H9 H 0.22238 0.14878 0.48875 0.0
H10 H 0.21236 0.07502 0.48385 0.0
H11 H 0.20581 0.07345 0.45727 0.0
H12 H 0.18842 0.04347 0.42458 0.0
H13 H 0.18335 0.00769 0.40933 0.0
H14 H 0.22054 0.05479 0.37556 0.0
H15 H 0.2243 0.09037 0.39056 0.0
N16 N 0.20975 0.11063 0.41133 0.0
N17 N 0.21042 0.12967 0.43451 0.0
N18 N 0.20841 0.0911 0.43264 0.0
C19 C 0.21053 0.12989 0.4196 0.0
C20 C 0.20955 0.11035 0.44111 0.0
C21 C 0.20852 0.0911 0.41778 0.0
C22 C 0.21047 0.15032 0.41228 0.0
C23 C 0.21918 0.15545 0.39836 0.0
C24 C 0.21728 0.17329 0.39081 0.0
C25 C 0.20617 0.18609 0.39686 0.0
C26 C 0.19819 0.1815 0.41103 0.0
C27 C 0.2005 0.16394 0.41871 0.0
C28 C 0.21086 0.1105 0.4574 0.0
C29 C 0.21511 0.13145 0.46659 0.0
C30 C 0.21865 0.13222 0.48195 0.0
C31 C 0.21794 0.11204 0.48842 0.0
C32 C 0.21271 0.09076 0.47925 0.0
C33 C 0.20918 0.08998 0.46395 0.0
C34 C 0.20665 0.0697 0.40873 0.0
C35 C 0.19559 0.04619 0.41392 0.0
C36 C 0.97801 0.19338 0.41514 0.0
C37 C 0.98072 0.18931 0.40019 0.0
C38 C 0.96145 0.16847 0.39152 0.0
C39 C 0.94014 0.15201 0.39764 0.0
H40 H 0.88086 0.08038 0.38987 0.0
H41 H 0.85104 0.04061 0.37621 0.0
H42 H 0.80109 0.02718 0.40963 0.0
H43 H 0.83097 0.06648 0.42346 0.0
H44 H 0.84752 0.10016 0.4518 0.0
H45 H 0.8395 0.10666 0.47682 0.0
H46 H 0.91196 0.17189 0.48529 0.0
H47 H 0.92038 0.16518 0.46006 0.0
H48 H 0.9552 0.18059 0.43283 0.0
H49 H 0.9926 0.20911 0.42217 0.0
H50 H 0.96268 0.16499 0.37991 0.0
H51 H 0.92574 0.13622 0.39056 0.0
N52 N 0.89771 0.11674 0.41088 0.0
N53 N 0.8729 0.10579 0.43035 0.0
N54 N 0.91052 0.14337 0.43293 0.0
C55 C 0.87677 0.10038 0.4165 0.0
C56 C 0.88956 0.12713 0.43866 0.0
C57 C 0.91467 0.13831 0.41899 0.0
C58 C 0.85842 0.07665 0.40782 0.0
C59 C 0.86351 0.06898 0.3943 0.0
C60 C 0.84636 0.04621 0.38643 0.0
C61 C 0.82372 0.03065 0.39186 0.0
C62 C 0.81853 0.03849 0.40527 0.0
C63 C 0.83567 0.06115 0.41316 0.0
C64 C 0.88468 0.13211 0.45386 0.0
C65 C 0.86184 0.11599 0.4589 0.0
C66 C 0.8571 0.11981 0.47326 0.0
C67 C 0.87502 0.13987 0.48303 0.0
C68 C 0.89784 0.15617 0.47803 0.0
C69 C 0.9026 0.15239 0.46356 0.0
C70 C 0.93741 0.156 0.41259 0.0
C71 C 0.95659 0.17694 0.42126 0.0
C72 C 0.82929 0.79928 0.42318 0.0
C73 C 0.82852 0.80235 0.40807 0.0
C74 C 0.8474 0.80327 0.40008 0.0
C75 C 0.8664 0.80075 0.40703 0.0
H76 H 0.93361 0.80659 0.40157 0.0
H77 H 0.96795 0.81116 0.38845 0.0
H78 H 0.99554 0.78931 0.42575 0.0
H79 H 0.96087 0.7843 0.4389 0.0
H80 H 0.93165 0.77273 0.4685 0.0
H81 H 0.92441 0.75792 0.49301 0.0
H82 H 0.85615 0.75909 0.49067 0.0
H83 H 0.86302 0.77351 0.46644 0.0
H84 H 0.84798 0.79421 0.44175 0.0
H85 H 0.8153 0.79897 0.42971 0.0
H86 H 0.84721 0.8054 0.38839 0.0
H87 H 0.88045 0.80117 0.40052 0.0
N88 N 0.90575 0.79608 0.42245 0.0
N89 N 0.92081 0.78514 0.44321 0.0
N90 N 0.88422 0.7865 0.44336 0.0
C91 C 0.92318 0.79208 0.42923 0.0
C92 C 0.90128 0.78233 0.45033 0.0
C93 C 0.88622 0.79337 0.42948 0.0
C94 C 0.94437 0.79506 0.42134 0.0
C95 C 0.94693 0.80274 0.40704 0.0
C96 C 0.96675 0.80552 0.39952 0.0
C97 C 0.98453 0.80068 0.40607 0.0
C98 C 0.98201 0.79296 0.42034 0.0
C99 C 0.96218 0.79021 0.42791 0.0
C100 C 0.89788 0.77419 0.4654 0.0
C101 C 0.91513 0.76986 0.47324 0.0
C102 C 0.91106 0.76149 0.48729 0.0
C103 C 0.88959 0.75712 0.49367 0.0
C104 C 0.87264 0.76185 0.48593 0.0
C105 C 0.87672 0.77028 0.47202 0.0
C106 C 0.86686 0.79718 0.4221 0.0
C107 C 0.84817 0.79669 0.4301 0.0
C108 C 0.03421 0.22547 0.58478 0.0
C109 C 0.02357 0.20777 0.59492 0.0
C110 C 0.03263 0.19151 0.59706 0.0
C111 C 0.05229 0.19344 0.58973 0.0
H112 H 0.1249 0.20506 0.60275 0.0
H113 H 0.15586 0.19891 0.61608 0.0
H114 H 0.1855 0.19489 0.57508 0.0
H115 H 0.15513 0.20192 0.56183 0.0
H116 H 0.14215 0.22281 0.5351 0.0
H117 H 0.15098 0.23704 0.51088 0.0
H118 H 0.09393 0.25648 0.51085 0.0
H119 H 0.08511 0.24243 0.53539 0.0
H120 H 0.06164 0.24103 0.5696 0.0
H121 H 0.02799 0.23852 0.58294 0.0
H122 H 0.02451 0.17712 0.60438 0.0
H123 H 0.05894 0.18078 0.59179 0.0
N124 N 0.10019 0.20774 0.57964 0.0
N125 N 0.12365 0.2172 0.55954 0.0
N126 N 0.08862 0.22158 0.55887 0.0
C127 C 0.1199 0.20958 0.57323 0.0
C128 C 0.10818 0.22323 0.55226 0.0
C129 C 0.08446 0.21364 0.57254 0.0
C130 C 0.13761 0.20415 0.58123 0.0
C131 C 0.13793 0.20272 0.59656 0.0
C132 C 0.15563 0.19908 0.6042 0.0
C133 C 0.17328 0.19653 0.59667 0.0
C134 C 0.17252 0.19729 0.58128 0.0
C135 C 0.15499 0.20118 0.57366 0.0
C136 C 0.11291 0.23149 0.53727 0.0
C137 C 0.13137 0.23006 0.53 0.0
C138 C 0.13635 0.23805 0.51602 0.0
C139 C 0.12307 0.24776 0.50891 0.0
C140 C 0.10456 0.2492 0.51611 0.0
C141 C 0.09945 0.24104 0.53013 0.0
C142 C 0.06304 0.21127 0.57977 0.0
C143 C 0.05358 0.22702 0.57717 0.0
C144 C 0.82392 0.82653 0.59696 0.0
C145 C 0.81979 0.82332 0.61189 0.0
C146 C 0.80997 0.83642 0.61921 0.0
C147 C 0.80539 0.85302 0.61203 0.0
H148 H 0.82626 0.9295 0.62057 0.0
H149 H 0.83228 0.96635 0.63518 0.0
H150 H 0.79511 0.98105 0.59913 0.0
H151 H 0.78993 0.94475 0.58431 0.0
H152 H 0.79772 0.92513 0.55209 0.0
H153 H 0.78512 0.92066 0.52587 0.0
H154 H 0.77021 0.84511 0.52216 0.0
H155 H 0.78269 0.84942 0.5486 0.0
H156 H 0.82265 0.8453 0.57828 0.0
H157 H 0.83167 0.81696 0.591 0.0
H158 H 0.8058 0.83391 0.63054 0.0
H159 H 0.79817 0.86304 0.61809 0.0
N160 N 0.80824 0.89499 0.59842 0.0
N161 N 0.79956 0.90978 0.57725 0.0
N162 N 0.80088 0.87284 0.57516 0.0
C163 C 0.80499 0.91239 0.5921 0.0
C164 C 0.79746 0.89011 0.56869 0.0
C165 C 0.80621 0.87519 0.59005 0.0
C166 C 0.80771 0.93421 0.60123 0.0
C167 C 0.81929 0.94054 0.61576 0.0
C168 C 0.82263 0.96163 0.62419 0.0
C169 C 0.81423 0.97675 0.61834 0.0
C170 C 0.80224 0.97013 0.6039 0.0
C171 C 0.79915 0.9492 0.59542 0.0
C172 C 0.79112 0.88758 0.55251 0.0
C173 C 0.7919 0.90756 0.54573 0.0
C174 C 0.78486 0.90509 0.53065 0.0
C175 C 0.77674 0.88256 0.52196 0.0
C176 C 0.77627 0.86265 0.52863 0.0
C177 C 0.78352 0.86518 0.54375 0.0
C178 C 0.80998 0.85658 0.59724 0.0
C179 C 0.81886 0.84285 0.58968 0.0
C180 C 0.16849 0.98038 0.59388 0.0
C181 C 0.17283 0.98028 0.6092 0.0
C182 C 0.15944 0.95779 0.61545 0.0
C183 C 0.14225 0.93609 0.60665 0.0
H184 H 0.05736 0.87785 0.59769 0.0
H185 H 0.02301 0.84578 0.60874 0.0
H186 H 0.03501 0.79005 0.58649 0.0
H187 H 0.06826 0.82235 0.57454 0.0
H188 H 0.08652 0.84698 0.53865 0.0
H189 H 0.09596 0.84288 0.51336 0.0
H190 H 0.15433 0.91956 0.51893 0.0
H191 H 0.14536 0.92364 0.54409 0.0
H192 H 0.14899 0.95924 0.57327 0.0
H193 H 0.17795 0.99736 0.58866 0.0
H194 H 0.16255 0.95671 0.62712 0.0
H195 H 0.13249 0.91907 0.6118 0.0
N196 N 0.10195 0.89418 0.58753 0.0
N197 N 0.09107 0.86949 0.56481 0.0
N198 N 0.12521 0.90994 0.56768 0.0
C199 C 0.08673 0.87247 0.57904 0.0
C200 C 0.11028 0.88832 0.55903 0.0
C201 C 0.1213 0.91295 0.58193 0.0
C202 C 0.06549 0.85256 0.58532 0.0
C203 C 0.05251 0.8587 0.59512 0.0
C204 C 0.03293 0.84023 0.60158 0.0
C205 C 0.02626 0.81513 0.5988 0.0
C206 C 0.03922 0.80903 0.58882 0.0
C207 C 0.05842 0.82753 0.58201 0.0
C208 C 0.11525 0.88559 0.5435 0.0
C209 C 0.10135 0.86297 0.53448 0.0
C210 C 0.10667 0.86064 0.51996 0.0
C211 C 0.12601 0.88085 0.51417 0.0
C212 C 0.13961 0.9035 0.52312 0.0
C213 C 0.13434 0.90584 0.53758 0.0
C214 C 0.13843 0.9362 0.59134 0.0
C215 C 0.15171 0.95855 0.58504 0.0
C216 C 0.85225 0.35328 0.73785 0.0
C217 C 0.86038 0.35551 0.72367 0.0
C218 C 0.87104 0.37892 0.71827 0.0
C219 C 0.87314 0.39942 0.72672 0.0
H220 H 0.88274 0.47014 0.72379 0.0
H221 H 0.88062 0.50182 0.71066 0.0
H222 H 0.85362 0.52245 0.74837 0.0
H223 H 0.85675 0.49134 0.76176 0.0
H224 H 0.87794 0.47722 0.7936 0.0
H225 H 0.88499 0.4794 0.82042 0.0
H226 H 0.87361 0.40509 0.8162 0.0
H227 H 0.86603 0.40261 0.78963 0.0
H228 H 0.84817 0.37145 0.75722 0.0
H229 H 0.8435 0.33551 0.74229 0.0
H230 H 0.87796 0.38151 0.70754 0.0
H231 H 0.88137 0.41716 0.72223 0.0
N232 N 0.86821 0.43803 0.74318 0.0
N233 N 0.87026 0.45814 0.76627 0.0
N234 N 0.86774 0.41932 0.76471 0.0
C235 C 0.86961 0.45773 0.75131 0.0
C236 C 0.86948 0.43899 0.77306 0.0
C237 C 0.86712 0.41871 0.7498 0.0
C238 C 0.86975 0.47811 0.74378 0.0
C239 C 0.87648 0.48153 0.72932 0.0
C240 C 0.87512 0.49962 0.72175 0.0
C241 C 0.86664 0.51452 0.72836 0.0
C242 C 0.86048 0.51151 0.74298 0.0
C243 C 0.86217 0.49359 0.75064 0.0
C244 C 0.87162 0.43982 0.7894 0.0
C245 C 0.87661 0.46123 0.7984 0.0
C246 C 0.88077 0.46254 0.81377 0.0
C247 C 0.87993 0.44246 0.82044 0.0
C248 C 0.87407 0.42078 0.81146 0.0
C249 C 0.86993 0.41946 0.79616 0.0
C250 C 0.86506 0.3971 0.74088 0.0
C251 C 0.85478 0.37387 0.7464 0.0
C252 C 0.65502 0.5276 0.75005 0.0
C253 C 0.65622 0.52736 0.73467 0.0
C254 C 0.63549 0.5094 0.72531 0.0
C255 C 0.61437 0.49188 0.73113 0.0
H256 H 0.55758 0.41852 0.72116 0.0
H257 H 0.5281 0.3802 0.70602 0.0
H258 H 0.47842 0.36077 0.74002 0.0
H259 H 0.508 0.3986 0.7553 0.0
H260 H 0.52783 0.42544 0.78635 0.0
H261 H 0.51839 0.43041 0.81125 0.0
H262 H 0.58277 0.50375 0.81831 0.0
H263 H 0.59267 0.4987 0.79324 0.0
H264 H 0.63351 0.51076 0.76776 0.0
H265 H 0.6707 0.54095 0.75761 0.0
H266 H 0.63546 0.50894 0.71342 0.0
H267 H 0.59884 0.47833 0.72353 0.0
N268 N 0.57407 0.45215 0.74373 0.0
N269 N 0.54962 0.43796 0.76323 0.0
N270 N 0.58671 0.47609 0.7668 0.0
C271 C 0.55343 0.43453 0.74902 0.0
C272 C 0.56605 0.45858 0.77222 0.0
C273 C 0.5908 0.47298 0.75252 0.0
C274 C 0.53528 0.41166 0.7395 0.0
C275 C 0.54036 0.40611 0.72541 0.0
C276 C 0.5234 0.38418 0.71669 0.0
C277 C 0.50093 0.36734 0.72183 0.0
C278 C 0.49573 0.37308 0.73583 0.0
C279 C 0.51269 0.39491 0.74456 0.0
C280 C 0.56098 0.46174 0.78768 0.0
C281 C 0.5401 0.44269 0.79313 0.0
C282 C 0.53456 0.44556 0.80744 0.0
C283 C 0.54966 0.46757 0.81672 0.0
C284 C 0.57083 0.48652 0.81144 0.0
C285 C 0.57643 0.48364 0.79705 0.0
C286 C 0.61321 0.49199 0.74648 0.0
C287 C 0.63371 0.5102 0.75588 0.0
C288 C 0.50419 0.13625 0.75612 0.0
C289 C 0.50539 0.14154 0.74135 0.0
C290 C 0.52576 0.14449 0.73418 0.0
C291 C 0.5442 0.14155 0.74152 0.0
H292 H 0.61994 0.15904 0.74305 0.0
H293 H 0.65472 0.16362 0.7304 0.0
H294 H 0.65822 0.1087 0.75549 0.0
H295 H 0.62413 0.1051 0.76867 0.0
H296 H 0.60143 0.10399 0.80241 0.0
H297 H 0.59155 0.0865 0.82608 0.0
H298 H 0.52386 0.08877 0.82242 0.0
H299 H 0.53333 0.10582 0.799 0.0
H300 H 0.52078 0.12895 0.77479 0.0
H301 H 0.48899 0.13433 0.76205 0.0
H302 H 0.5271 0.14841 0.72275 0.0
H303 H 0.55938 0.14344 0.73558 0.0
N304 N 0.58134 0.13404 0.75736 0.0
N305 N 0.59341 0.11946 0.77759 0.0
N306 N 0.55737 0.12192 0.77718 0.0
C307 C 0.59758 0.12848 0.76419 0.0
C308 C 0.57331 0.11627 0.78419 0.0
C309 C 0.56113 0.13076 0.76381 0.0
C310 C 0.61922 0.13165 0.75684 0.0
C311 C 0.62819 0.148 0.74591 0.0
C312 C 0.64806 0.15049 0.73857 0.0
C313 C 0.65922 0.13634 0.74177 0.0
C314 C 0.65037 0.12016 0.75284 0.0
C315 C 0.63072 0.11798 0.76037 0.0
C316 C 0.56814 0.10622 0.79871 0.0
C317 C 0.58445 0.10075 0.80667 0.0
C318 C 0.57887 0.09085 0.82024 0.0
C319 C 0.55683 0.08606 0.826 0.0
C320 C 0.54078 0.09184 0.81813 0.0
C321 C 0.54634 0.10177 0.8047 0.0
C322 C 0.54264 0.13559 0.75619 0.0
C323 C 0.52255 0.13329 0.76345 0.0
C324 C 0.68802 0.54496 0.91103 0.0
C325 C 0.68356 0.5361 0.92498 0.0
C326 C 0.7 0.52996 0.93203 0.0
C327 C 0.72034 0.53243 0.92528 0.0
H328 H 0.78706 0.5363 0.93491 0.0
H329 H 0.8179 0.53048 0.94867 0.0
H330 H 0.84888 0.52686 0.90816 0.0
H331 H 0.81859 0.53346 0.89446 0.0
H332 H 0.80109 0.54728 0.86589 0.0
H333 H 0.81062 0.56167 0.84171 0.0
H334 H 0.75772 0.58662 0.84255 0.0
H335 H 0.74818 0.57234 0.86699 0.0
H336 H 0.71121 0.55407 0.89342 0.0
H337 H 0.67557 0.5497 0.9053 0.0
H338 H 0.69726 0.52344 0.94288 0.0
H339 H 0.73253 0.52746 0.9311 0.0
N340 N 0.7627 0.53857 0.9116 0.0
N341 N 0.78554 0.5464 0.89126 0.0
N342 N 0.74992 0.54978 0.89012 0.0
C343 C 0.78234 0.5401 0.90525 0.0
C344 C 0.76951 0.55132 0.88361 0.0
C345 C 0.74633 0.54327 0.90412 0.0
C346 C 0.80039 0.53548 0.91357 0.0
C347 C 0.80039 0.53419 0.92891 0.0
C348 C 0.81802 0.53073 0.93681 0.0
C349 C 0.83594 0.52828 0.92953 0.0
C350 C 0.83565 0.52914 0.91416 0.0
C351 C 0.81816 0.5328 0.90628 0.0
C352 C 0.77394 0.55876 0.86845 0.0
C353 C 0.79134 0.55571 0.86095 0.0
C354 C 0.79669 0.56378 0.84701 0.0
C355 C 0.78489 0.57523 0.84022 0.0
C356 C 0.7672 0.57799 0.84757 0.0
C357 C 0.76167 0.5697 0.86153 0.0
C358 C 0.72479 0.54107 0.91126 0.0
C359 C 0.70839 0.54734 0.90421 0.0
C360 C 0.43338 0.13079 0.93434 0.0
C361 C 0.44824 0.13911 0.94793 0.0
C362 C 0.45579 0.16302 0.95458 0.0
C363 C 0.4484 0.17813 0.94794 0.0
H364 H 0.45018 0.24386 0.95578 0.0
H365 H 0.46183 0.28431 0.96824 0.0
H366 H 0.42149 0.29619 0.9327 0.0
H367 H 0.41022 0.25603 0.92004 0.0
H368 H 0.38762 0.2186 0.89224 0.0
H369 H 0.37339 0.21212 0.86618 0.0
H370 H 0.38744 0.15129 0.86034 0.0
H371 H 0.40223 0.15801 0.88653 0.0
H372 H 0.41448 0.13893 0.91722 0.0
H373 H 0.42703 0.11236 0.929 0.0
H374 H 0.46762 0.1702 0.9649 0.0
H375 H 0.45462 0.19643 0.95343 0.0
N376 N 0.4302 0.20754 0.93502 0.0
N377 N 0.41211 0.21622 0.91481 0.0
N378 N 0.41426 0.17977 0.91343 0.0
C379 C 0.42345 0.22273 0.92879 0.0
C380 C 0.40742 0.19484 0.90704 0.0
C381 C 0.42559 0.18598 0.92746 0.0
C382 C 0.42937 0.24668 0.93684 0.0
C383 C 0.44366 0.255 0.95063 0.0
C384 C 0.45026 0.27816 0.95783 0.0
C385 C 0.44267 0.2935 0.95143 0.0
C386 C 0.42796 0.28498 0.9378 0.0
C387 C 0.4214 0.26186 0.93059 0.0
C388 C 0.39634 0.18899 0.89149 0.0
C389 C 0.38753 0.20367 0.88548 0.0
C390 C 0.37915 0.19984 0.87053 0.0
C391 C 0.37934 0.18123 0.86119 0.0
C392 C 0.38733 0.16595 0.86725 0.0
C393 C 0.39567 0.16973 0.88227 0.0
C394 C 0.4334 0.1698 0.9344 0.0
C395 C 0.42607 0.14599 0.92763 0.0
C396 C 0.82644 0.31133 0.92581 0.0
C397 C 0.83115 0.31013 0.94094 0.0
C398 C 0.81776 0.28718 0.9467 0.0
C399 C 0.80011 0.2661 0.93763 0.0
H400 H 0.72995 0.20426 0.9378 0.0
H401 H 0.69534 0.17156 0.94832 0.0
H402 H 0.67252 0.1258 0.90662 0.0
H403 H 0.7075 0.15858 0.89595 0.0
H404 H 0.74507 0.18037 0.86931 0.0
H405 H 0.75543 0.17775 0.84408 0.0
H406 H 0.80244 0.25745 0.84808 0.0
H407 H 0.79267 0.26005 0.87323 0.0
H408 H 0.80604 0.29168 0.90507 0.0
H409 H 0.83594 0.3287 0.92099 0.0
H410 H 0.82117 0.28531 0.9582 0.0
H411 H 0.79028 0.24872 0.94241 0.0
N412 N 0.75892 0.22555 0.91841 0.0
N413 N 0.74546 0.20292 0.89495 0.0
N414 N 0.78023 0.24297 0.89817 0.0
C415 C 0.74255 0.20461 0.90959 0.0
C416 C 0.7643 0.22212 0.88918 0.0
C417 C 0.77776 0.24478 0.91279 0.0
C418 C 0.72158 0.18418 0.91597 0.0
C419 C 0.71768 0.18727 0.9308 0.0
C420 C 0.69769 0.16855 0.93684 0.0
C421 C 0.68108 0.14618 0.92827 0.0
C422 C 0.68509 0.14282 0.91351 0.0
C423 C 0.70508 0.16166 0.9074 0.0
C424 C 0.76828 0.22037 0.87338 0.0
C425 C 0.75742 0.19734 0.86474 0.0
C426 C 0.7633 0.19584 0.85026 0.0
C427 C 0.78004 0.21737 0.84413 0.0
C428 C 0.78996 0.24045 0.85257 0.0
C429 C 0.78424 0.24193 0.86701 0.0
C430 C 0.79576 0.2673 0.9225 0.0
C431 C 0.80914 0.29012 0.91668 0.0
C432 C 0.5669 0.71228 0.06729 0.0
C433 C 0.55535 0.70618 0.05276 0.0
C434 C 0.54895 0.72257 0.0466 0.0
C435 C 0.55354 0.74426 0.05487 0.0
H436 H 0.5769 0.82301 0.05321 0.0
H437 H 0.56797 0.85104 0.04038 0.0
H438 H 0.53804 0.86486 0.07898 0.0
H439 H 0.54824 0.83766 0.09208 0.0
H440 H 0.58498 0.83233 0.12292 0.0
H441 H 0.59399 0.83472 0.14961 0.0
H442 H 0.5801 0.7595 0.14489 0.0
H443 H 0.57174 0.75724 0.11839 0.0
H444 H 0.57988 0.73778 0.08685 0.0
H445 H 0.57251 0.70033 0.07229 0.0
H446 H 0.53971 0.71831 0.03551 0.0
H447 H 0.54789 0.75618 0.04987 0.0
N448 N 0.56502 0.78974 0.07236 0.0
N449 N 0.57069 0.81092 0.09573 0.0
N450 N 0.57168 0.77383 0.0936 0.0
C451 C 0.56665 0.8093 0.08078 0.0
C452 C 0.57335 0.79323 0.10221 0.0
C453 C 0.56748 0.77191 0.07869 0.0
C454 C 0.56305 0.82798 0.07359 0.0
C455 C 0.56861 0.8322 0.059 0.0
C456 C 0.56331 0.84816 0.05161 0.0
C457 C 0.55181 0.85988 0.05852 0.0
C458 C 0.54704 0.8563 0.07333 0.0
C459 C 0.55279 0.84065 0.08084 0.0
C460 C 0.57784 0.79468 0.11847 0.0
C461 C 0.58379 0.81629 0.12759 0.0
C462 C 0.58884 0.81763 0.14289 0.0
C463 C 0.58797 0.79737 0.14934 0.0
C464 C 0.58145 0.77562 0.14024 0.0
C465 C 0.57655 0.77432 0.12501 0.0
C466 C 0.56438 0.74994 0.06955 0.0
C467 C 0.57126 0.73384 0.07562 0.0
C468 C 0.31326 0.85632 0.08167 0.0
C469 C 0.31625 0.85304 0.06668 0.0
C470 C 0.29702 0.83272 0.05765 0.0
C471 C 0.27549 0.81598 0.06345 0.0
H472 H 0.21653 0.74551 0.05406 0.0
H473 H 0.18729 0.70668 0.03934 0.0
H474 H 0.13657 0.68928 0.07264 0.0
H475 H 0.16591 0.72771 0.08753 0.0
H476 H 0.18174 0.76021 0.11674 0.0
H477 H 0.17222 0.76701 0.14134 0.0
H478 H 0.24228 0.83527 0.14959 0.0
H479 H 0.2522 0.82832 0.12484 0.0
H480 H 0.28995 0.84262 0.09908 0.0
H481 H 0.3278 0.87164 0.08897 0.0
H482 H 0.29843 0.82987 0.046 0.0
H483 H 0.26113 0.80063 0.05608 0.0
N484 N 0.23285 0.77983 0.07602 0.0
N485 N 0.2071 0.76795 0.09503 0.0
N486 N 0.24465 0.80566 0.09831 0.0
C487 C 0.21164 0.76312 0.08122 0.0
C488 C 0.22342 0.78909 0.10366 0.0
C489 C 0.24946 0.80115 0.08445 0.0
C490 C 0.19368 0.73978 0.07204 0.0
C491 C 0.19915 0.73344 0.05826 0.0
C492 C 0.18232 0.71122 0.04977 0.0
C493 C 0.15961 0.69484 0.05482 0.0
C494 C 0.15406 0.70128 0.06853 0.0
C495 C 0.17088 0.72343 0.07704 0.0
C496 C 0.21779 0.79372 0.11873 0.0
C497 C 0.19522 0.77674 0.12371 0.0
C498 C 0.18963 0.7807 0.13783 0.0
C499 C 0.2064 0.80176 0.14739 0.0
C500 C 0.22903 0.81878 0.14249 0.0
C501 C 0.23465 0.81484 0.12829 0.0
C502 C 0.27246 0.81917 0.07844 0.0
C503 C 0.29158 0.83961 0.08748 0.0
C504 C 0.16222 0.45967 0.08809 0.0
C505 C 0.16335 0.46536 0.07339 0.0
C506 C 0.18384 0.46886 0.06616 0.0
C507 C 0.20263 0.46637 0.07343 0.0
H508 H 0.27116 0.47504 0.06953 0.0
H509 H 0.3063 0.48082 0.05687 0.0
H510 H 0.33038 0.45333 0.09279 0.0
H511 H 0.29491 0.44716 0.1055 0.0
H512 H 0.26436 0.43396 0.13461 0.0
H513 H 0.2559 0.41753 0.15865 0.0
H514 H 0.18829 0.41995 0.15616 0.0
H515 H 0.19635 0.43595 0.13238 0.0
H516 H 0.1793 0.45265 0.10665 0.0
H517 H 0.14689 0.45727 0.09404 0.0
H518 H 0.18513 0.47305 0.05479 0.0
H519 H 0.21801 0.46889 0.06748 0.0
N520 N 0.24086 0.46048 0.08912 0.0
N521 N 0.2552 0.44886 0.10985 0.0
N522 N 0.21798 0.44909 0.10943 0.0
C523 C 0.25826 0.45664 0.09609 0.0
C524 C 0.23504 0.4451 0.1166 0.0
C525 C 0.22066 0.45675 0.09574 0.0
C526 C 0.28009 0.46059 0.08857 0.0
C527 C 0.28388 0.47021 0.0748 0.0
C528 C 0.30416 0.4737 0.06755 0.0
C529 C 0.32116 0.4676 0.07384 0.0
C530 C 0.31747 0.458 0.0876 0.0
C531 C 0.29719 0.4546 0.09492 0.0
C532 C 0.23098 0.43612 0.13145 0.0
C533 C 0.24773 0.43103 0.13922 0.0
C534 C 0.24296 0.42172 0.153 0.0
C535 C 0.2213 0.4172 0.15918 0.0
C536 C 0.2049 0.42278 0.15155 0.0
C537 C 0.20965 0.43211 0.1379 0.0
C538 C 0.20131 0.46031 0.08808 0.0
C539 C 0.18094 0.45716 0.09534 0.0
C540 C 0.35501 0.88396 0.24512 0.0
C541 C 0.35137 0.87674 0.25949 0.0
C542 C 0.36923 0.87323 0.26722 0.0
C543 C 0.39009 0.87657 0.26071 0.0
H544 H 0.45178 0.87146 0.26909 0.0
H545 H 0.48196 0.86444 0.28273 0.0
H546 H 0.52405 0.8799 0.24508 0.0
H547 H 0.49428 0.88737 0.23151 0.0
H548 H 0.4758 0.89815 0.20302 0.0
H549 H 0.4846 0.91176 0.17866 0.0
H550 H 0.42378 0.92573 0.17665 0.0
H551 H 0.41496 0.91232 0.20133 0.0
H552 H 0.37806 0.89268 0.22745 0.0
H553 H 0.34148 0.88664 0.23883 0.0
H554 H 0.36722 0.8681 0.2784 0.0
H555 H 0.40338 0.87363 0.26707 0.0
N556 N 0.43231 0.88225 0.24699 0.0
N557 N 0.45615 0.89182 0.22707 0.0
N558 N 0.41977 0.89379 0.22555 0.0
C559 C 0.45253 0.88478 0.2409 0.0
C560 C 0.43997 0.89637 0.2193 0.0
C561 C 0.41581 0.88668 0.23942 0.0
C562 C 0.47057 0.88006 0.24919 0.0
C563 C 0.46745 0.87337 0.2637 0.0
C564 C 0.48468 0.8692 0.2715 0.0
C565 C 0.50541 0.87166 0.26499 0.0
C566 C 0.50846 0.8782 0.25048 0.0
C567 C 0.49127 0.88236 0.24268 0.0
C568 C 0.44465 0.90414 0.20421 0.0
C569 C 0.46417 0.90405 0.19746 0.0
C570 C 0.46916 0.9117 0.1834 0.0
C571 C 0.45481 0.91969 0.1757 0.0
C572 C 0.43524 0.91979 0.18237 0.0
C573 C 0.43013 0.91199 0.19647 0.0
C574 C 0.39371 0.88356 0.24629 0.0
C575 C 0.37594 0.88731 0.23858 0.0
C576 C 0.10368 0.46639 0.26731 0.0
C577 C 0.11817 0.47417 0.28102 0.0
C578 C 0.12549 0.49782 0.28802 0.0
C579 C 0.11824 0.51319 0.28159 0.0
H580 H 0.1205 0.57922 0.28998 0.0
H581 H 0.13203 0.61943 0.3028 0.0
H582 H 0.09204 0.63213 0.26744 0.0
H583 H 0.08089 0.59224 0.25444 0.0
H584 H 0.05961 0.55621 0.22606 0.0
H585 H 0.04489 0.54961 0.20006 0.0
H586 H 0.0563 0.48705 0.19431 0.0
H587 H 0.07155 0.49384 0.22041 0.0
H588 H 0.0852 0.47521 0.25031 0.0
H589 H 0.09751 0.44818 0.26171 0.0
H590 H 0.13703 0.50458 0.29845 0.0
H591 H 0.12428 0.53128 0.28735 0.0
N592 N 0.10062 0.5433 0.26893 0.0
N593 N 0.08278 0.55255 0.24884 0.0
N594 N 0.08476 0.51601 0.24714 0.0
C595 C 0.09402 0.55871 0.26285 0.0
C596 C 0.07808 0.53128 0.2409 0.0
C597 C 0.09599 0.52187 0.26119 0.0
C598 C 0.09989 0.5825 0.27111 0.0
C599 C 0.11404 0.5905 0.28495 0.0
C600 C 0.12057 0.61352 0.29235 0.0
C601 C 0.11306 0.62902 0.2861 0.0
C602 C 0.09847 0.6208 0.27243 0.0
C603 C 0.09198 0.59783 0.26502 0.0
C604 C 0.06701 0.5257 0.22535 0.0
C605 C 0.05886 0.5409 0.21934 0.0
C606 C 0.05021 0.53702 0.20442 0.0
C607 C 0.04947 0.51784 0.19513 0.0
C608 C 0.05691 0.50215 0.20118 0.0
C609 C 0.06553 0.50598 0.21616 0.0
C610 C 0.10362 0.50541 0.26793 0.0
C611 C 0.09651 0.48186 0.26083 0.0
C612 C 0.49498 0.64038 0.25943 0.0
C613 C 0.49928 0.64006 0.27473 0.0
C614 C 0.48654 0.61728 0.28078 0.0
C615 C 0.4698 0.59557 0.27185 0.0
H616 H 0.39905 0.53411 0.2717 0.0
H617 H 0.3639 0.50211 0.28221 0.0
H618 H 0.34338 0.45387 0.24164 0.0
H619 H 0.37893 0.48598 0.23099 0.0
H620 H 0.41165 0.50812 0.20318 0.0
H621 H 0.42168 0.5038 0.17805 0.0
H622 H 0.48202 0.57953 0.1843 0.0
H623 H 0.4724 0.58387 0.20926 0.0
H624 H 0.47579 0.61943 0.23872 0.0
H625 H 0.50398 0.65754 0.25435 0.0
H626 H 0.48971 0.61605 0.29242 0.0
H627 H 0.46037 0.57838 0.27687 0.0
N628 N 0.42924 0.55406 0.25271 0.0
N629 N 0.41708 0.53019 0.22967 0.0
N630 N 0.45192 0.57019 0.23272 0.0
C631 C 0.41331 0.53272 0.24408 0.0
C632 C 0.43644 0.54892 0.22392 0.0
C633 C 0.44851 0.57287 0.2471 0.0
C634 C 0.39191 0.51274 0.25043 0.0
C635 C 0.38717 0.51673 0.26494 0.0
C636 C 0.36687 0.49841 0.27098 0.0
C637 C 0.35075 0.47554 0.26272 0.0
C638 C 0.35556 0.4713 0.24829 0.0
C639 C 0.37587 0.48975 0.24218 0.0
C640 C 0.44131 0.54627 0.20835 0.0
C641 C 0.42698 0.52388 0.19917 0.0
C642 C 0.43266 0.52141 0.18475 0.0
C643 C 0.4528 0.54125 0.17925 0.0
C644 C 0.46668 0.56375 0.1883 0.0
C645 C 0.46104 0.56624 0.20264 0.0
C646 C 0.4658 0.59595 0.25659 0.0
C647 C 0.47866 0.61854 0.25045 0.0
C648 C 0.5432 0.0128 0.03822 0.0
Eu649 Eu 0.52039 0.00745 0.01237 0.0
C650 C 0.53396 0.00425 0.05243 0.0
C651 C 0.51181 0.00247 0.05618 0.0
C652 C 0.50253 0.99343 0.06938 0.0
C653 C 0.51507 0.98572 0.07906 0.0
C654 C 0.53716 0.98731 0.07518 0.0
C655 C 0.54652 0.99653 0.06198 0.0
C656 C 0.50411 0.03659 0.00166 0.0
C657 C 0.46076 0.96926 0.01415 0.0
C658 C 0.4611 0.9786 0.9582 0.0
Eu659 Eu 0.48382 0.98497 0.98418 0.0
C660 C 0.46987 0.99125 0.94489 0.0
C661 C 0.46554 0.97708 0.93138 0.0
C662 C 0.47665 0.98855 0.91909 0.0
C663 C 0.49227 0.01443 0.9201 0.0
C664 C 0.49587 0.02871 0.93351 0.0
C665 C 0.48488 0.01722 0.94582 0.0
C666 C 0.49981 0.95595 0.99542 0.0
C667 C 0.54295 0.02368 0.98234 0.0
O668 O 0.53899 0.99529 0.02789 0.0
O669 O 0.53894 0.02971 0.03331 0.0
O670 O 0.52638 0.04524 0.00792 0.0
O671 O 0.49132 0.01354 0.00221 0.0
O672 O 0.48381 0.97953 0.02032 0.0
O673 O 0.45549 0.97146 0.00028 0.0
O674 O 0.45972 0.99177 0.96945 0.0
O675 O 0.47079 0.96521 0.96209 0.0
O676 O 0.47734 0.9474 0.98954 0.0
O677 O 0.51273 0.97883 0.99439 0.0
O678 O 0.51982 0.01454 0.97661 0.0
O679 O 0.54834 0.02031 0.99593 0.0
H680 H 0.50158 0.00801 0.04887 0.0
H681 H 0.48562 0.99269 0.07205 0.0
H682 H 0.54704 0.98107 0.08222 0.0
H683 H 0.56341 0.99736 0.05915 0.0
H684 H 0.45415 0.95705 0.93046 0.0
H685 H 0.47322 0.97714 0.90882 0.0
H686 H 0.50793 0.04866 0.93463 0.0
H687 H 0.48882 0.02861 0.95618 0.0
C688 C 0.9983 0.53284 0.0419 0.0
Eu689 Eu 0.99332 0.50752 0.01691 0.0
C690 C 0.0045 0.53091 0.05732 0.0
C691 C 0.00823 0.51146 0.06098 0.0
C692 C 0.01339 0.50919 0.07571 0.0
C693 C 0.01479 0.52629 0.08704 0.0
C694 C 0.01127 0.54591 0.08327 0.0
C695 C 0.00618 0.5482 0.06851 0.0
C696 C 0.95813 0.45986 0.00841 0.0
C697 C 0.02866 0.48222 0.01896 0.0
C698 C 0.9951 0.45838 0.96376 0.0
Eu699 Eu 0.00147 0.48341 0.98906 0.0
C700 C 0.98066 0.45534 0.94973 0.0
C701 C 0.97467 0.47344 0.94634 0.0
C702 C 0.96074 0.47051 0.9331 0.0
C703 C 0.95255 0.44941 0.92296 0.0
C704 C 0.95835 0.43115 0.9265 0.0
C705 C 0.97229 0.4341 0.93981 0.0
C706 C 0.03615 0.53129 0.99749 0.0
C707 C 0.96586 0.50777 0.98709 0.0
O708 O 0.01606 0.53903 0.03335 0.0
O709 O 0.97712 0.51464 0.03568 0.0
O710 O 0.95358 0.47636 0.01433 0.0
O711 O 0.98104 0.46888 0.00825 0.0
O712 O 0.02213 0.49767 0.02499 0.0
O713 O 0.0203 0.4713 0.00535 0.0
O714 O 0.98221 0.44852 0.97473 0.0
O715 O 0.01397 0.48063 0.96767 0.0
O716 O 0.04125 0.5149 0.99198 0.0
O717 O 0.01321 0.522 0.99757 0.0
O718 O 0.97053 0.49052 0.98181 0.0
O719 O 0.97669 0.521 -7e-05 0.0
H720 H 0.00693 0.49791 0.05244 0.0
H721 H 0.01636 0.4941 0.07824 0.0
H722 H 0.01197 0.55922 0.09176 0.0
H723 H 0.00327 0.56327 0.06584 0.0
H724 H 0.98097 0.49001 0.95387 0.0
H725 H 0.95691 0.48509 0.93065 0.0
H726 H 0.952 0.4145 0.91904 0.0
H727 H 0.97649 0.41981 0.94235 0.0
C728 C 0.46163 0.4735 0.95804 0.0
Eu729 Eu 0.48392 0.49418 0.98421 0.0
C730 C 0.47074 0.47142 0.94377 0.0
C731 C 0.46371 0.47954 0.93136 0.0
C732 C 0.47389 0.47991 0.91809 0.0
C733 C 0.49125 0.47207 0.91696 0.0
C734 C 0.49782 0.46335 0.9293 0.0
C735 C 0.48775 0.46312 0.9426 0.0
C736 C 0.50076 0.54143 0.99524 0.0
C737 C 0.54343 0.5152 0.98263 0.0
C738 C 0.54227 0.53263 0.03878 0.0
Eu739 Eu 0.51986 0.51216 0.01259 0.0
C740 C 0.53333 0.53549 0.05296 0.0
C741 C 0.54072 0.52831 0.06565 0.0
C742 C 0.53058 0.5285 0.07885 0.0
C743 C 0.51284 0.53591 0.07962 0.0
C744 C 0.50598 0.54379 0.06698 0.0
C745 C 0.51605 0.54349 0.05375 0.0
C746 C 0.50305 0.46495 0.00143 0.0
C747 C 0.46045 0.49146 0.01418 0.0
O748 O 0.46437 0.46118 0.96841 0.0
O749 O 0.46705 0.49589 0.96304 0.0
O750 O 0.47843 0.52697 0.98899 0.0
O751 O 0.51329 0.5308 0.99466 0.0
O752 O 0.52044 0.50126 0.97641 0.0
O753 O 0.5485 0.52463 0.99661 0.0
O754 O 0.54034 0.54518 0.02831 0.0
O755 O 0.53585 0.50987 0.03393 0.0
O756 O 0.52542 0.47943 0.00762 0.0
O757 O 0.4905 0.47554 0.00215 0.0
O758 O 0.48346 0.50558 0.02033 0.0
O759 O 0.45533 0.48175 0.00025 0.0
H760 H 0.45067 0.48605 0.93201 0.0
H761 H 0.46816 0.48634 0.9087 0.0
H762 H 0.51126 0.45734 0.92881 0.0
H763 H 0.49373 0.45698 0.95203 0.0
H764 H 0.55399 0.52206 0.06528 0.0
H765 H 0.5366 0.52277 0.08847 0.0
H766 H 0.49226 0.54946 0.06717 0.0
H767 H 0.50982 0.54894 0.04408 0.0
C768 C 0.21044 0.34928 0.37329 0.0
Eu769 Eu 0.18739 0.34148 0.34716 0.0
C770 C 0.20281 0.33771 0.38702 0.0
C771 C 0.21306 0.35205 0.40068 0.0
C772 C 0.20422 0.34185 0.41375 0.0
C773 C 0.18484 0.31717 0.41334 0.0
C774 C 0.17494 0.30275 0.39962 0.0
C775 C 0.1839 0.31289 0.38658 0.0
C776 C 0.17241 0.37023 0.33442 0.0
C777 C 0.12771 0.30321 0.34833 0.0
C778 C 0.13006 0.30942 0.29215 0.0
Eu779 Eu 0.1519 0.3173 0.31858 0.0
C780 C 0.13896 0.32215 0.27888 0.0
C781 C 0.13469 0.3081 0.26534 0.0
C782 C 0.14566 0.31972 0.25305 0.0
C783 C 0.16111 0.34563 0.2541 0.0
C784 C 0.16478 0.35977 0.26758 0.0
C785 C 0.1539 0.34813 0.27988 0.0
C786 C 0.16657 0.28864 0.33179 0.0
C787 C 0.21108 0.35619 0.31715 0.0
O788 O 0.21153 0.33541 0.36232 0.0
O789 O 0.19994 0.3618 0.36911 0.0
O790 O 0.19435 0.37897 0.34122 0.0
O791 O 0.1592 0.34738 0.33551 0.0
O792 O 0.15058 0.3131 0.35477 0.0
O793 O 0.12307 0.30532 0.33434 0.0
O794 O 0.12725 0.32212 0.30308 0.0
O795 O 0.14076 0.2972 0.29657 0.0
O796 O 0.14453 0.28001 0.32518 0.0
O797 O 0.1799 0.31132 0.33031 0.0
O798 O 0.18812 0.34609 0.31093 0.0
O799 O 0.21607 0.35429 0.33114 0.0
H800 H 0.22751 0.3713 0.4012 0.0
H801 H 0.21205 0.35349 0.42414 0.0
H802 H 0.16029 0.2836 0.39896 0.0
H803 H 0.17576 0.30145 0.37614 0.0
H804 H 0.12337 0.28805 0.26437 0.0
H805 H 0.14217 0.30839 0.24274 0.0
H806 H 0.17673 0.37974 0.26875 0.0
H807 H 0.15781 0.35941 0.29028 0.0
C808 C 0.65556 0.8614 0.37932 0.0
Eu809 Eu 0.65363 0.83955 0.35369 0.0
C810 C 0.67076 0.86735 0.39349 0.0
C811 C 0.65955 0.86401 0.40663 0.0
C812 C 0.67303 0.86718 0.42012 0.0
C813 C 0.69803 0.8738 0.42072 0.0
C814 C 0.70939 0.87773 0.40753 0.0
C815 C 0.69586 0.87447 0.39402 0.0
C816 C 0.61901 0.79309 0.34249 0.0
C817 C 0.69046 0.81652 0.35592 0.0
C818 C 0.6623 0.79556 0.30048 0.0
Eu819 Eu 0.665 0.81864 0.32581 0.0
C820 C 0.65198 0.79447 0.28536 0.0
C821 C 0.6673 0.80005 0.27393 0.0
C822 C 0.65869 0.80124 0.25972 0.0
C823 C 0.63452 0.79668 0.25665 0.0
C824 C 0.61891 0.79039 0.268 0.0
C825 C 0.62762 0.78948 0.28229 0.0
C826 C 0.69946 0.86552 0.33645 0.0
C827 C 0.62933 0.84331 0.32329 0.0
O828 O 0.66672 0.87348 0.36833 0.0
O829 O 0.6405 0.83774 0.3754 0.0
O830 O 0.61377 0.80931 0.3481 0.0
O831 O 0.642 0.80179 0.34364 0.0
O832 O 0.68468 0.83279 0.36155 0.0
O833 O 0.68132 0.80476 0.34257 0.0
O834 O 0.64661 0.78531 0.31022 0.0
O835 O 0.68141 0.81693 0.30573 0.0
O836 O 0.70483 0.84962 0.33048 0.0
O837 O 0.67644 0.85644 0.33573 0.0
O838 O 0.63648 0.82844 0.31718 0.0
O839 O 0.6363 0.85296 0.33722 0.0
H840 H 0.64016 0.8583 0.40641 0.0
H841 H 0.66365 0.8637 0.43005 0.0
H842 H 0.7287 0.88319 0.40766 0.0
H843 H 0.7049 0.87707 0.38398 0.0
H844 H 0.68612 0.80395 0.27607 0.0
H845 H 0.67097 0.80573 0.2511 0.0
H846 H 0.60019 0.78678 0.26592 0.0
H847 H 0.61544 0.7853 0.29094 0.0
C848 C 0.12504 0.8035 0.29128 0.0
Eu849 Eu 0.14756 0.82614 0.31713 0.0
C850 C 0.13392 0.80477 0.27663 0.0
C851 C 0.15604 0.82552 0.27375 0.0
C852 C 0.1651 0.82633 0.26006 0.0
C853 C 0.15217 0.80641 0.24894 0.0
C854 C 0.12995 0.78567 0.25187 0.0
C855 C 0.12095 0.78485 0.26562 0.0
C856 C 0.16203 0.87331 0.32716 0.0
C857 C 0.20761 0.8505 0.3153 0.0
C858 C 0.20678 0.87047 0.37101 0.0
Eu859 Eu 0.18405 0.84741 0.34529 0.0
C860 C 0.19836 0.87342 0.38535 0.0
C861 C 0.20802 0.86852 0.39813 0.0
C862 C 0.19877 0.86901 0.41162 0.0
C863 C 0.1797 0.8745 0.41261 0.0
C864 C 0.17049 0.88009 0.39986 0.0
C865 C 0.17963 0.87941 0.38633 0.0
C866 C 0.16905 0.79998 0.33539 0.0
C867 C 0.12432 0.8235 0.34716 0.0
O868 O 0.13321 0.79381 0.30086 0.0
O869 O 0.12566 0.82356 0.29698 0.0
O870 O 0.13985 0.85758 0.32117 0.0
O871 O 0.17564 0.86386 0.32679 0.0
O872 O 0.18471 0.83566 0.30915 0.0
O873 O 0.21245 0.86031 0.32918 0.0
O874 O 0.20283 0.88148 0.36028 0.0
O875 O 0.20194 0.84802 0.36667 0.0
O876 O 0.19137 0.8156 0.34127 0.0
O877 O 0.15567 0.80968 0.33573 0.0
O878 O 0.14718 0.8394 0.353 0.0
O879 O 0.11955 0.81244 0.33356 0.0
H880 H 0.16644 0.84104 0.28216 0.0
H881 H 0.18244 0.8424 0.25826 0.0
H882 H 0.11939 0.77015 0.2435 0.0
H883 H 0.10391 0.76865 0.26768 0.0
H884 H 0.22244 0.86384 0.39761 0.0
H885 H 0.20653 0.86504 0.4213 0.0
H886 H 0.15575 0.8843 0.40026 0.0
H887 H 0.17168 0.88308 0.37661 0.0
C888 C 0.88785 0.68308 0.70907 0.0
Eu889 Eu 0.86496 0.67966 0.68359 0.0
C890 C 0.87882 0.6708 0.72243 0.0
C891 C 0.88917 0.6839 0.73642 0.0
C892 C 0.87866 0.67335 0.74909 0.0
C893 C 0.85749 0.64961 0.74793 0.0
C894 C 0.84755 0.63639 0.7339 0.0
C895 C 0.85815 0.64683 0.72127 0.0
C896 C 0.85448 0.71327 0.67323 0.0
C897 C 0.80477 0.64642 0.68578 0.0
C898 C 0.80577 0.65853 0.63011 0.0
Eu899 Eu 0.82747 0.66118 0.65583 0.0
C900 C 0.81623 0.66953 0.61662 0.0
C901 C 0.83944 0.67333 0.61352 0.0
C902 C 0.84994 0.68472 0.6011 0.0
C903 C 0.83736 0.69239 0.59145 0.0
C904 C 0.81417 0.68871 0.59463 0.0
C905 C 0.80373 0.67743 0.60716 0.0
C906 C 0.83826 0.62772 0.66623 0.0
C907 C 0.88734 0.69458 0.65342 0.0
O908 O 0.88671 0.66887 0.69751 0.0
O909 O 0.88023 0.69842 0.70577 0.0
O910 O 0.8763 0.71891 0.67898 0.0
O911 O 0.83922 0.69071 0.67401 0.0
O912 O 0.8275 0.65304 0.69131 0.0
O913 O 0.80012 0.65125 0.67245 0.0
O914 O 0.80866 0.67436 0.64121 0.0
O915 O 0.8103 0.6413 0.63414 0.0
O916 O 0.81637 0.62195 0.66051 0.0
O917 O 0.85335 0.65028 0.66537 0.0
O918 O 0.86452 0.68741 0.648 0.0
O919 O 0.89248 0.69046 0.66686 0.0
H920 H 0.90496 0.70254 0.7375 0.0
H921 H 0.88662 0.68408 0.75975 0.0
H922 H 0.8316 0.61791 0.73268 0.0
H923 H 0.8499 0.63631 0.71059 0.0
H924 H 0.84955 0.66753 0.6207 0.0
H925 H 0.86797 0.68763 0.59909 0.0
H926 H 0.80395 0.69425 0.58733 0.0
H927 H 0.78594 0.6749 0.60945 0.0
C928 C 0.33843 0.2057 0.70835 0.0
Eu929 Eu 0.33401 0.18053 0.68341 0.0
C930 C 0.34352 0.20291 0.72378 0.0
C931 C 0.34729 0.1834 0.72724 0.0
C932 C 0.35124 0.18012 0.74195 0.0
C933 C 0.35132 0.19622 0.75345 0.0
C934 C 0.34777 0.21592 0.74989 0.0
C935 C 0.34391 0.21923 0.73514 0.0
C936 C 0.29917 0.13261 0.67517 0.0
C937 C 0.37002 0.15603 0.68585 0.0
C938 C 0.33643 0.13089 0.63074 0.0
Eu939 Eu 0.34254 0.15631 0.65584 0.0
C940 C 0.32136 0.12693 0.61683 0.0
C941 C 0.31447 0.14436 0.61334 0.0
C942 C 0.29982 0.14053 0.60026 0.0
C943 C 0.2918 0.11919 0.59037 0.0
C944 C 0.29858 0.10164 0.59397 0.0
C945 C 0.31321 0.10548 0.60713 0.0
C946 C 0.37701 0.20435 0.66407 0.0
C947 C 0.30644 0.18003 0.65352 0.0
O948 O 0.3566 0.21159 0.70016 0.0
O949 O 0.31725 0.18812 0.70172 0.0
O950 O 0.29441 0.14905 0.68093 0.0
O951 O 0.32212 0.14184 0.67504 0.0
O952 O 0.36314 0.17128 0.69173 0.0
O953 O 0.3618 0.1449 0.67228 0.0
O954 O 0.32409 0.12101 0.6419 0.0
O955 O 0.35478 0.15353 0.63437 0.0
O956 O 0.38221 0.18796 0.65869 0.0
O957 O 0.35404 0.19499 0.66411 0.0
O958 O 0.31116 0.16269 0.64848 0.0
O959 O 0.31745 0.19371 0.66621 0.0
H960 H 0.34694 0.17056 0.71857 0.0
H961 H 0.35427 0.16501 0.74432 0.0
H962 H 0.34746 0.22846 0.7585 0.0
H963 H 0.34091 0.2343 0.73262 0.0
H964 H 0.32062 0.16111 0.62067 0.0
H965 H 0.29528 0.1546 0.59774 0.0
H966 H 0.29243 0.08486 0.58667 0.0
H967 H 0.31813 0.0917 0.60975 0.0
C968 C 0.80061 0.1296 0.62956 0.0
Eu969 Eu 0.82241 0.15569 0.65481 0.0
C970 C 0.80921 0.13143 0.61482 0.0
C971 C 0.83164 0.15202 0.61222 0.0
C972 C 0.8401 0.15385 0.59829 0.0
C973 C 0.82617 0.1352 0.58663 0.0
C974 C 0.8037 0.11452 0.58931 0.0
C975 C 0.79534 0.11263 0.60333 0.0
C976 C 0.83328 0.20289 0.66205 0.0
C977 C 0.88269 0.1838 0.65295 0.0
C978 C 0.88032 0.20909 0.70776 0.0
Eu979 Eu 0.85912 0.18304 0.68249 0.0
C980 C 0.87012 0.21248 0.72126 0.0
C981 C 0.88085 0.21211 0.73509 0.0
C982 C 0.86968 0.21234 0.74785 0.0
C983 C 0.8475 0.21286 0.747 0.0
C984 C 0.83708 0.21379 0.73316 0.0
C985 C 0.84829 0.21362 0.7204 0.0
C986 C 0.84792 0.13573 0.67518 0.0
C987 C 0.79929 0.15603 0.68418 0.0
O988 O 0.81164 0.12304 0.63941 0.0
O989 O 0.79814 0.14815 0.63474 0.0
O990 O 0.8116 0.18523 0.6565 0.0
O991 O 0.84832 0.19511 0.66265 0.0
O992 O 0.86017 0.16634 0.64746 0.0
O993 O 0.88713 0.19615 0.66611 0.0
O994 O 0.8765 0.21853 0.69614 0.0
O995 O 0.87665 0.18674 0.70458 0.0
O996 O 0.86986 0.1534 0.68041 0.0
O997 O 0.83297 0.14361 0.6747 0.0
O998 O 0.82157 0.17459 0.68909 0.0
O999 O 0.79523 0.14196 0.67174 0.0
H1000 H 0.84261 0.16677 0.62095 0.0
H1001 H 0.85765 0.16981 0.59669 0.0
H1002 H 0.79238 0.09996 0.58054 0.0
H1003 H 0.77799 0.0966 0.60516 0.0
H1004 H 0.89759 0.21108 0.73597 0.0
H1005 H 0.87833 0.21195 0.7584 0.0
H1006 H 0.81993 0.21404 0.73213 0.0
H1007 H 0.83965 0.21393 0.70985 0.0
C1008 C 0.35036 0.8964 0.06427 0.0
C1009 C 0.33913 0.87075 0.06032 0.0
C1010 C 0.37108 0.91329 0.05766 0.0
C1011 C 0.38068 0.90433 0.04676 0.0
C1012 C 0.36984 0.87846 0.043 0.0
C1013 C 0.3493 0.86201 0.04987 0.0
C1014 C 0.38233 0.94075 0.06206 0.0
C1015 C 0.37962 0.86816 0.03148 0.0
C1016 C 0.41585 0.94588 0.01777 0.0
C1017 C 0.44038 0.95377 0.0229 0.0
C1018 C 0.3963 0.93016 0.02559 0.0
C1019 C 0.40138 0.92196 0.03879 0.0
C1020 C 0.42612 0.92997 0.04408 0.0
C1021 C 0.44534 0.94592 0.03613 0.0
C1022 C 0.37015 0.92195 0.01957 0.0
C1023 C 0.43227 0.92142 0.05801 0.0
H1024 H 0.34255 0.90336 0.07224 0.0
H1025 H 0.3411 0.84222 0.04698 0.0
H1026 H 0.40234 0.94922 0.06557 0.0
H1027 H 0.38049 0.94995 0.05243 0.0
H1028 H 0.37343 0.94467 0.07121 0.0
H1029 H 0.36971 0.84756 0.03024 0.0
H1030 H 0.37773 0.87454 0.02064 0.0
H1031 H 0.39955 0.87519 0.03442 0.0
H1032 H 0.41186 0.95189 0.00759 0.0
H1033 H 0.46423 0.95177 0.04013 0.0
H1034 H 0.36082 0.92686 0.02799 0.0
H1035 H 0.35954 0.90148 0.01702 0.0
H1036 H 0.36935 0.93053 0.00938 0.0
H1037 H 0.42623 0.92812 0.06756 0.0
H1038 H 0.45234 0.92824 0.06016 0.0
H1039 H 0.42216 0.90086 0.05728 0.0
C1040 C 0.14822 0.48653 0.05671 0.0
C1041 C 0.14302 0.46734 0.06563 0.0
C1042 C 0.12915 0.48862 0.04938 0.0
C1043 C 0.10428 0.47108 0.05102 0.0
C1044 C 0.0989 0.45171 0.06003 0.0
C1045 C 0.11833 0.45005 0.06721 0.0
C1046 C 0.13559 0.50958 0.03989 0.0
C1047 C 0.07261 0.43265 0.06201 0.0
C1048 C 0.0562 0.48955 0.04198 0.0
C1049 C 0.04676 0.47798 0.02754 0.0
C1050 C 0.07463 0.48711 0.04986 0.0
C1051 C 0.08391 0.47285 0.04312 0.0
C1052 C 0.07411 0.4607 0.02869 0.0
C1053 C 0.05563 0.46338 0.02108 0.0
C1054 C 0.08452 0.50023 0.06527 0.0
C1055 C 0.08351 0.44529 0.02117 0.0
H1056 H 0.16726 0.50012 0.0556 0.0
H1057 H 0.11417 0.43497 0.07392 0.0
H1058 H 0.12724 0.50197 0.02836 0.0
H1059 H 0.12782 0.52109 0.04395 0.0
H1060 H 0.15584 0.52171 0.03982 0.0
H1061 H 0.07158 0.41899 0.06961 0.0
H1062 H 0.0629 0.44198 0.06645 0.0
H1063 H 0.06254 0.42248 0.05116 0.0
H1064 H 0.0495 0.50087 0.04708 0.0
H1065 H 0.04848 0.45437 0.00994 0.0
H1066 H 0.10435 0.51437 0.06551 0.0
H1067 H 0.08315 0.48682 0.07312 0.0
H1068 H 0.07447 0.50956 0.06919 0.0
H1069 H 0.1034 0.45716 0.01984 0.0
H1070 H 0.07339 0.43639 0.0101 0.0
H1071 H 0.08177 0.4306 0.02808 0.0
C1072 C 0.54025 0.66054 0.05119 0.0
C1073 C 0.54917 0.68242 0.04422 0.0
C1074 C 0.53331 0.63778 0.04316 0.0
C1075 C 0.53503 0.63682 0.02776 0.0
C1076 C 0.54431 0.65882 0.02067 0.0
C1077 C 0.55142 0.68138 0.02901 0.0
C1078 C 0.52371 0.61468 0.0511 0.0
C1079 C 0.54633 0.65846 0.00425 0.0
C1080 C 0.53459 0.58102 0.00854 0.0
C1081 C 0.50973 0.56622 0.00298 0.0
C1082 C 0.54312 0.60407 0.01667 0.0
C1083 C 0.52643 0.61265 0.01899 0.0
C1084 C 0.50141 0.59801 0.01306 0.0
C1085 C 0.49333 0.57488 0.00516 0.0
C1086 C 0.56987 0.61905 0.02295 0.0
C1087 C 0.48314 0.60668 0.0152 0.0
H1088 H 0.5381 0.66106 0.06288 0.0
H1089 H 0.5587 0.69824 0.02358 0.0
H1090 H 0.50422 0.60139 0.04686 0.0
H1091 H 0.53444 0.60529 0.04895 0.0
H1092 H 0.52472 0.61879 0.06323 0.0
H1093 H 0.55431 0.67726 0.00047 0.0
H1094 H 0.55802 0.65052 0.00125 0.0
H1095 H 0.52778 0.64638 0.99815 0.0
H1096 H 0.54736 0.57448 0.00665 0.0
H1097 H 0.47409 0.56344 0.00082 0.0
H1098 H 0.57111 0.62208 0.03516 0.0
H1099 H 0.57873 0.63758 0.01881 0.0
H1100 H 0.58046 0.60978 0.02005 0.0
H1101 H 0.48148 0.60913 0.02715 0.0
H1102 H 0.46453 0.59341 0.0095 0.0
H1103 H 0.48979 0.62499 0.01095 0.0
C1104 C 0.87171 0.35039 0.94522 0.0
C1105 C 0.84999 0.33264 0.95065 0.0
C1106 C 0.88954 0.37162 0.95427 0.0
C1107 C 0.88593 0.37491 0.96922 0.0
C1108 C 0.86419 0.3571 0.97481 0.0
C1109 C 0.84638 0.33638 0.96543 0.0
C1110 C 0.91228 0.39049 0.94784 0.0
C1111 C 0.85978 0.35988 0.99073 0.0
C1112 C 0.94198 0.41696 0.99652 0.0
C1113 C 0.93961 0.438 0.99863 0.0
C1114 C 0.92456 0.3962 0.98699 0.0
C1115 C 0.90486 0.39695 0.97908 0.0
C1116 C 0.90289 0.41855 0.98088 0.0
C1117 C 0.92006 0.43866 0.99086 0.0
C1118 C 0.92708 0.37338 0.98551 0.0
C1119 C 0.88276 0.4205 0.97221 0.0
H1120 H 0.87499 0.3476 0.93392 0.0
H1121 H 0.82951 0.32318 0.9697 0.0
H1122 H 0.91426 0.40916 0.94958 0.0
H1123 H 0.92899 0.39171 0.95357 0.0
H1124 H 0.91174 0.38579 0.93582 0.0
H1125 H 0.84227 0.34398 0.99348 0.0
H1126 H 0.87526 0.36145 0.99816 0.0
H1127 H 0.85913 0.37716 0.99308 0.0
H1128 H 0.95727 0.41665 0.0025 0.0
H1129 H 0.91855 0.45519 0.9923 0.0
H1130 H 0.92891 0.36898 0.97385 0.0
H1131 H 0.9102 0.35721 0.98865 0.0
H1132 H 0.94331 0.37573 0.99255 0.0
H1133 H 0.88318 0.41681 0.96021 0.0
H1134 H 0.88462 0.43908 0.97435 0.0
H1135 H 0.86444 0.40628 0.97511 0.0
C1136 C 0.65589 0.55208 0.9327 0.0
C1137 C 0.66191 0.53326 0.93229 0.0
C1138 C 0.63628 0.55009 0.94031 0.0
C1139 C 0.62237 0.52874 0.94763 0.0
C1140 C 0.62798 0.50942 0.94693 0.0
C1141 C 0.64769 0.51193 0.93929 0.0
C1142 C 0.63069 0.57097 0.94074 0.0
C1143 C 0.61337 0.48623 0.95443 0.0
C1144 C 0.58835 0.53185 0.98003 0.0
C1145 C 0.56386 0.51993 0.97355 0.0
C1146 C 0.60764 0.53533 0.97162 0.0
C1147 C 0.60233 0.52678 0.95637 0.0
C1148 C 0.57775 0.51537 0.94968 0.0
C1149 C 0.55882 0.51198 0.95836 0.0
C1150 C 0.63365 0.54767 0.97914 0.0
C1151 C 0.57125 0.50601 0.93345 0.0
H1152 H 0.66692 0.56866 0.92739 0.0
H1153 H 0.65202 0.49714 0.93879 0.0
H1154 H 0.61115 0.56376 0.93648 0.0
H1155 H 0.63321 0.57906 0.95232 0.0
H1156 H 0.64274 0.58596 0.9341 0.0
H1157 H 0.61979 0.47271 0.95258 0.0
H1158 H 0.61493 0.49115 0.9665 0.0
H1159 H 0.59353 0.47709 0.95028 0.0
H1160 H 0.59244 0.53809 0.99173 0.0
H1161 H 0.54 0.5029 0.95321 0.0
H1162 H 0.64613 0.56369 0.97333 0.0
H1163 H 0.64052 0.53439 0.9786 0.0
H1164 H 0.63486 0.55428 0.99091 0.0
H1165 H 0.58465 0.51972 0.92669 0.0
H1166 H 0.55242 0.50193 0.92943 0.0
H1167 H 0.57202 0.4887 0.9316 0.0
C1168 C 0.45582 0.12233 0.97065 0.0
C1169 C 0.45573 0.12295 0.95529 0.0
C1170 C 0.46359 0.10791 0.97792 0.0
C1171 C 0.47123 0.09351 0.96963 0.0
C1172 C 0.47081 0.09366 0.9541 0.0
C1173 C 0.46312 0.10845 0.94711 0.0
C1174 C 0.46377 0.10821 0.99451 0.0
C1175 C 0.47866 0.07834 0.9449 0.0
C1176 C 0.51276 0.07526 0.9906 0.0
C1177 C 0.49577 0.05113 0.99347 0.0
C1178 C 0.50509 0.08913 0.9826 0.0
C1179 C 0.47986 0.07852 0.97733 0.0
C1180 C 0.46269 0.05402 0.98006 0.0
C1181 C 0.47085 0.04069 0.98822 0.0
C1182 C 0.52391 0.11524 0.97994 0.0
C1183 C 0.43569 0.042 0.97451 0.0
H1184 H 0.44968 0.13308 0.97702 0.0
H1185 H 0.46331 0.109 0.93526 0.0
H1186 H 0.45178 0.08916 0.99751 0.0
H1187 H 0.48274 0.11471 -0.00036 0.0
H1188 H 0.45729 0.12045 0.99933 0.0
H1189 H 0.47709 0.08035 0.93293 0.0
H1190 H 0.49807 0.08393 0.94852 0.0
H1191 H 0.46713 0.05845 0.94654 0.0
H1192 H 0.53208 0.08329 0.9946 0.0
H1193 H 0.45766 0.0221 0.99058 0.0
H1194 H 0.51913 0.12856 0.98522 0.0
H1195 H 0.5237 0.11719 0.96793 0.0
H1196 H 0.54292 0.12048 0.98439 0.0
H1197 H 0.42759 0.05243 0.97974 0.0
H1198 H 0.42499 0.02237 0.97693 0.0
H1199 H 0.43353 0.04261 0.96241 0.0
C1200 C 0.64565 0.13303 0.94358 0.0
C1201 C 0.65966 0.12661 0.93484 0.0
C1202 C 0.62621 0.11513 0.95056 0.0
C1203 C 0.62066 0.09015 0.94882 0.0
C1204 C 0.63432 0.0834 0.93971 0.0
C1205 C 0.65364 0.10171 0.93279 0.0
C1206 C 0.61182 0.12302 0.95998 0.0
C1207 C 0.62877 0.05691 0.93749 0.0
C1208 C 0.58782 0.05166 0.97952 0.0
C1209 C 0.56311 0.03916 0.97339 0.0
C1210 C 0.60681 0.06772 0.97145 0.0
C1211 C 0.60098 0.07136 0.9569 0.0
C1212 C 0.57618 0.05812 0.95046 0.0
C1213 C 0.55757 0.04228 0.9588 0.0
C1214 C 0.63305 0.08139 0.97867 0.0
C1215 C 0.56907 0.06137 0.93498 0.0
H1216 H 0.64994 0.15217 0.94499 0.0
H1217 H 0.66447 0.09666 0.9261 0.0
H1218 H 0.59189 0.11211 0.95597 0.0
H1219 H 0.61381 0.11919 0.97156 0.0
H1220 H 0.61808 0.14306 0.95992 0.0
H1221 H 0.64058 0.05455 0.92971 0.0
H1222 H 0.63166 0.05084 0.94824 0.0
H1223 H 0.60913 0.04447 0.93316 0.0
H1224 H 0.59232 0.04935 0.99075 0.0
H1225 H 0.53858 0.03262 0.95389 0.0
H1226 H 0.63991 0.10162 0.98001 0.0
H1227 H 0.64524 0.07838 0.97155 0.0
H1228 H 0.63472 0.07541 0.9897 0.0
H1229 H 0.56925 0.07922 0.93508 0.0
H1230 H 0.55032 0.04621 0.93056 0.0
H1231 H 0.58239 0.06196 0.92733 0.0
C1232 C 0.87955 0.53746 0.93445 0.0
C1233 C 0.85507 0.52518 0.93796 0.0
C1234 C 0.89783 0.53478 0.9423 0.0
C1235 C 0.89155 0.51967 0.95407 0.0
C1236 C 0.86692 0.50724 0.95771 0.0
C1237 C 0.84895 0.51007 0.94958 0.0
C1238 C 0.92388 0.54814 0.93803 0.0
C1239 C 0.85954 0.49089 0.97017 0.0
C1240 C 0.9333 0.49489 0.96602 0.0
C1241 C 0.94731 0.51134 0.97854 0.0
C1242 C 0.91507 0.49735 0.95797 0.0
C1243 C 0.91075 0.51678 0.96253 0.0
C1244 C 0.92478 0.53346 0.97516 0.0
C1245 C 0.94291 0.53053 0.98303 0.0
C1246 C 0.90051 0.47916 0.94458 0.0
C1247 C 0.92054 0.5543 0.98038 0.0
H1248 H 0.88454 0.54947 0.92565 0.0
H1249 H 0.83002 0.50021 0.95222 0.0
H1250 H 0.93672 0.56087 0.94755 0.0
H1251 H 0.9298 0.53456 0.93505 0.0
H1252 H 0.9257 0.55908 0.92854 0.0
H1253 H 0.83966 0.48271 0.97169 0.0
H1254 H 0.86347 0.4756 0.96797 0.0
H1255 H 0.87061 0.50178 0.98065 0.0
H1256 H 0.93634 0.47981 0.96254 0.0
H1257 H 0.95358 0.54325 0.99272 0.0
H1258 H 0.90471 0.48904 0.9345 0.0
H1259 H 0.88042 0.47082 0.94537 0.0
H1260 H 0.90481 0.46396 0.94325 0.0
H1261 H 0.92355 0.56663 0.97153 0.0
H1262 H 0.93296 0.56563 0.99043 0.0
H1263 H 0.90113 0.54664 0.98287 0.0
C1264 C 0.45053 0.3222 0.97411 0.0
C1265 C 0.45054 0.31854 0.95878 0.0
C1266 C 0.45858 0.34589 0.98123 0.0
C1267 C 0.46678 0.36637 0.97281 0.0
C1268 C 0.46656 0.36279 0.95732 0.0
C1269 C 0.45849 0.33891 0.95049 0.0
C1270 C 0.45851 0.34904 0.99778 0.0
C1271 C 0.47517 0.38423 0.94799 0.0
C1272 C 0.46861 0.42453 0.98937 0.0
C1273 C 0.49371 0.43969 0.9943 0.0
C1274 C 0.45957 0.40061 0.9823 0.0
C1275 C 0.47604 0.39166 0.98026 0.0
C1276 C 0.50139 0.40687 0.98532 0.0
C1277 C 0.50994 0.43076 0.99229 0.0
C1278 C 0.43243 0.38496 0.97698 0.0
C1279 C 0.5195 0.39794 0.98334 0.0
H1280 H 0.44408 0.30649 0.98054 0.0
H1281 H 0.45886 0.33627 0.93867 0.0
H1282 H 0.47754 0.36194 0.003 0.0
H1283 H 0.44707 0.35739 0.00055 0.0
H1284 H 0.45125 0.33116 0.00269 0.0
H1285 H 0.47306 0.37817 0.93602 0.0
H1286 H 0.46457 0.39388 0.9497 0.0
H1287 H 0.49489 0.39797 0.95142 0.0
H1288 H 0.45602 0.43138 0.99104 0.0
H1289 H 0.52937 0.44251 0.9961 0.0
H1290 H 0.42414 0.36746 0.98231 0.0
H1291 H 0.43 0.3798 0.96489 0.0
H1292 H 0.42212 0.39472 0.9794 0.0
H1293 H 0.51373 0.38077 0.98882 0.0
H1294 H 0.53858 0.41202 0.98798 0.0
H1295 H 0.51962 0.39325 0.97143 0.0
C1296 C 0.12894 0.64924 0.05277 0.0
C1297 C 0.14179 0.67105 0.0459 0.0
C1298 C 0.11187 0.6267 0.04454 0.0
C1299 C 0.10763 0.6259 0.02904 0.0
C1300 C 0.1206 0.64778 0.02201 0.0
C1301 C 0.13749 0.67011 0.03053 0.0
C1302 C 0.09837 0.60373 0.05242 0.0
C1303 C 0.11652 0.64763 0.00551 0.0
C1304 C 0.07958 0.56285 0.00681 0.0
C1305 C 0.05465 0.55606 0.00471 0.0
C1306 C 0.09714 0.58575 0.01451 0.0
C1307 C 0.08949 0.60215 0.02022 0.0
C1308 C 0.06438 0.59553 0.01785 0.0
C1309 C 0.04726 0.57258 0.01006 0.0
C1310 C 0.12376 0.59218 0.01679 0.0
C1311 C 0.05549 0.61245 0.02383 0.0
H1312 H 0.13243 0.64972 0.0646 0.0
H1313 H 0.14709 0.68693 0.02517 0.0
H1314 H 0.07815 0.59601 0.05036 0.0
H1315 H 0.10231 0.58924 0.04805 0.0
H1316 H 0.10367 0.60752 0.06454 0.0
H1317 H 0.12833 0.66615 0.00172 0.0
H1318 H 0.12047 0.63408 -0.00031 0.0
H1319 H 0.09691 0.64164 0.00221 0.0
H1320 H 0.08532 0.55008 0.00268 0.0
H1321 H 0.02798 0.56738 0.00837 0.0
H1322 H 0.12957 0.59424 0.02877 0.0
H1323 H 0.13584 0.61022 0.01257 0.0
H1324 H 0.12684 0.57782 0.01116 0.0
H1325 H 0.05879 0.61521 0.03607 0.0
H1326 H 0.03551 0.60492 0.0206 0.0
H1327 H 0.06603 0.63096 0.01979 0.0
C1328 C 0.35604 0.49263 0.05898 0.0
C1329 C 0.34248 0.47104 0.0659 0.0
C1330 C 0.37554 0.49574 0.05091 0.0
C1331 C 0.38161 0.47676 0.04968 0.0
C1332 C 0.36828 0.45509 0.05684 0.0
C1333 C 0.34888 0.45249 0.06488 0.0
C1334 C 0.38951 0.51924 0.04357 0.0
C1335 C 0.37435 0.43454 0.05586 0.0
C1336 C 0.41555 0.47491 0.0169 0.0
C1337 C 0.44007 0.48678 0.02331 0.0
C1338 C 0.3963 0.47122 0.02541 0.0
C1339 C 0.40169 0.47949 0.0407 0.0
C1340 C 0.42633 0.491 0.0473 0.0
C1341 C 0.44521 0.4946 0.03852 0.0
C1342 C 0.37023 0.45883 0.018 0.0
C1343 C 0.43293 0.50006 0.06357 0.0
H1344 H 0.35142 0.50719 0.05992 0.0
H1345 H 0.33834 0.43567 0.0701 0.0
H1346 H 0.40942 0.52874 0.04761 0.0
H1347 H 0.38787 0.51467 0.03146 0.0
H1348 H 0.38265 0.53233 0.04572 0.0
H1349 H 0.36256 0.4191 0.06231 0.0
H1350 H 0.37189 0.42701 0.04416 0.0
H1351 H 0.39397 0.44194 0.06002 0.0
H1352 H 0.41138 0.4688 0.00518 0.0
H1353 H 0.46406 0.50365 0.04362 0.0
H1354 H 0.36305 0.47183 0.01895 0.0
H1355 H 0.358 0.4424 0.0236 0.0
H1356 H 0.36901 0.45279 0.00611 0.0
H1357 H 0.43158 0.517 0.06567 0.0
H1358 H 0.45198 0.50463 0.06744 0.0
H1359 H 0.41991 0.48594 0.07029 0.0
C1360 C 0.53448 0.86703 0.0351 0.0
C1361 C 0.5439 0.87477 0.05001 0.0
C1362 C 0.5273 0.88085 0.02672 0.0
C1363 C 0.52901 0.90271 0.03346 0.0
C1364 C 0.53792 0.91042 0.04858 0.0
C1365 C 0.54546 0.89646 0.05666 0.0
C1366 C 0.51803 0.8721 0.01059 0.0
C1367 C 0.53964 0.93348 0.05617 0.0
C1368 C 0.53207 0.94905 0.00748 0.0
C1369 C 0.50727 0.94258 0.00526 0.0
C1370 C 0.53953 0.93655 0.0169 0.0
C1371 C 0.52177 0.91756 0.0245 0.0
C1372 C 0.4968 0.9116 0.02267 0.0
C1373 C 0.48978 0.92398 0.01288 0.0
C1374 C 0.56626 0.94321 0.01843 0.0
C1375 C 0.47747 0.89198 0.0309 0.0
H1376 H 0.53253 0.84998 0.02994 0.0
H1377 H 0.55287 0.90272 0.06813 0.0
H1378 H 0.49887 0.86845 0.00851 0.0
H1379 H 0.5296 0.8868 0.00366 0.0
H1380 H 0.51827 0.85493 0.00696 0.0
H1381 H 0.54553 0.93613 0.06819 0.0
H1382 H 0.55306 0.95003 0.05111 0.0
H1383 H 0.52152 0.93255 0.05465 0.0
H1384 H 0.54556 0.96361 0.00162 0.0
H1385 H 0.47065 0.91938 0.01136 0.0
H1386 H 0.56771 0.92694 0.01433 0.0
H1387 H 0.57383 0.94814 0.03022 0.0
H1388 H 0.57787 0.95901 0.01216 0.0
H1389 H 0.47467 0.87351 0.02698 0.0
H1390 H 0.45945 0.89131 0.02935 0.0
H1391 H 0.48372 0.89549 0.04289 0.0
C1392 C 0.01371 0.19749 0.38345 0.0
C1393 C 0.00342 0.20668 0.39355 0.0
C1394 C 0.03441 0.21358 0.37656 0.0
C1395 C 0.04525 0.23954 0.3799 0.0
C1396 C 0.0354 0.24897 0.39036 0.0
C1397 C 0.01455 0.23244 0.39702 0.0
C1398 C 0.04459 0.2028 0.36562 0.0
C1399 C 0.04665 0.27653 0.39432 0.0
C1400 C 0.11081 0.28032 0.37032 0.0
C1401 C 0.10674 0.28798 0.3568 0.0
C1402 C 0.091 0.26465 0.37801 0.0
C1403 C 0.06654 0.25675 0.37216 0.0
C1404 C 0.06232 0.26471 0.35863 0.0
C1405 C 0.08245 0.28015 0.3511 0.0
C1406 C 0.0963 0.25657 0.39238 0.0
C1407 C 0.03649 0.25657 0.35199 0.0
H1408 H 0.00558 0.17762 0.38093 0.0
H1409 H 0.00664 0.23974 0.4047 0.0
H1410 H 0.04382 0.20928 0.35464 0.0
H1411 H 0.06427 0.20937 0.36918 0.0
H1412 H 0.03425 0.18219 0.36439 0.0
H1413 H 0.03716 0.28088 0.40292 0.0
H1414 H 0.06643 0.2849 0.39841 0.0
H1415 H 0.04571 0.28547 0.38435 0.0
H1416 H 0.12947 0.28615 0.3748 0.0
H1417 H 0.07909 0.28597 0.34068 0.0
H1418 H 0.08395 0.23637 0.39276 0.0
H1419 H 0.09281 0.26634 0.40167 0.0
H1420 H 0.11569 0.26078 0.39412 0.0
H1421 H 0.02582 0.23606 0.34963 0.0
H1422 H 0.03637 0.26488 0.34158 0.0
H1423 H 0.0268 0.26183 0.35997 0.0
C1424 C 0.81231 0.82146 0.39043 0.0
C1425 C 0.80785 0.8042 0.40068 0.0
C1426 C 0.79289 0.82336 0.38343 0.0
C1427 C 0.76845 0.80764 0.38677 0.0
C1428 C 0.76382 0.79028 0.39714 0.0
C1429 C 0.78356 0.78871 0.40394 0.0
C1430 C 0.79852 0.84224 0.3725 0.0
C1431 C 0.738 0.77324 0.40099 0.0
C1432 C 0.72114 0.82719 0.37789 0.0
C1433 C 0.70921 0.813 0.36433 0.0
C1434 C 0.74036 0.82553 0.38538 0.0
C1435 C 0.74766 0.80913 0.37922 0.0
C1436 C 0.73536 0.79438 0.36571 0.0
C1437 C 0.7163 0.7965 0.35842 0.0
C1438 C 0.75293 0.84145 0.39982 0.0
C1439 C 0.74266 0.7767 0.35881 0.0
H1440 H 0.83106 0.83372 0.38802 0.0
H1441 H 0.77992 0.77508 0.41168 0.0
H1442 H 0.78829 0.83278 0.36156 0.0
H1443 H 0.79223 0.85526 0.37616 0.0
H1444 H 0.81853 0.85312 0.37116 0.0
H1445 H 0.73758 0.76095 0.40942 0.0
H1446 H 0.72992 0.78432 0.40526 0.0
H1447 H 0.72605 0.76149 0.39093 0.0
H1448 H 0.7158 0.83996 0.38256 0.0
H1449 H 0.70721 0.78546 0.34796 0.0
H1450 H 0.77327 0.85155 0.39968 0.0
H1451 H 0.74856 0.82948 0.40897 0.0
H1452 H 0.747 0.85522 0.40221 0.0
H1453 H 0.76214 0.78717 0.35631 0.0
H1454 H 0.73085 0.76611 0.34844 0.0
H1455 H 0.74141 0.76335 0.36668 0.0
C1456 C 0.19886 0.98666 0.38792 0.0
C1457 C 0.19773 0.00611 0.38166 0.0
C1458 C 0.19372 0.96504 0.37918 0.0
C1459 C 0.18786 0.96305 0.36375 0.0
C1460 C 0.18745 0.98286 0.35728 0.0
C1461 C 0.1921 0.00401 0.36632 0.0
C1462 C 0.19388 0.94406 0.3865 0.0
C1463 C 0.18159 0.98152 0.34082 0.0
C1464 C 0.19339 0.91513 0.33923 0.0
C1465 C 0.16865 0.89645 0.33619 0.0
C1466 C 0.19997 0.93701 0.34817 0.0
C1467 C 0.18133 0.93992 0.3544 0.0
C1468 C 0.15631 0.92087 0.35151 0.0
C1469 C 0.15024 0.89945 0.34227 0.0
C1470 C 0.22679 0.95704 0.3509 0.0
C1471 C 0.13598 0.92305 0.35824 0.0
H1472 H 0.20363 0.98822 0.39971 0.0
H1473 H 0.19073 0.01865 0.36135 0.0
H1474 H 0.175 0.92762 0.38508 0.0
H1475 H 0.20609 0.93852 0.3812 0.0
H1476 H 0.2001 0.94904 0.39851 0.0
H1477 H 0.18359 0.99915 0.33742 0.0
H1478 H 0.19397 0.97709 0.33477 0.0
H1479 H 0.16238 0.96639 0.33739 0.0
H1480 H 0.20758 0.91267 0.33452 0.0
H1481 H 0.13112 0.88477 0.34008 0.0
H1482 H 0.23291 0.96071 0.36291 0.0
H1483 H 0.22919 0.97458 0.34712 0.0
H1484 H 0.23897 0.95196 0.34511 0.0
H1485 H 0.13981 0.92619 0.37045 0.0
H1486 H 0.11758 0.9062 0.35526 0.0
H1487 H 0.1353 0.93927 0.35449 0.0
C1488 C 0.53837 0.68175 0.27904 0.0
C1489 C 0.51692 0.66329 0.28434 0.0
C1490 C 0.55513 0.70359 0.28803 0.0
C1491 C 0.55067 0.70684 0.3028 0.0
C1492 C 0.52917 0.68836 0.30825 0.0
C1493 C 0.51243 0.66702 0.29892 0.0
C1494 C 0.57751 0.72326 0.2817 0.0
C1495 C 0.52395 0.69101 0.32401 0.0
C1496 C 0.60503 0.75068 0.33067 0.0
C1497 C 0.60148 0.77103 0.33248 0.0
C1498 C 0.58861 0.72963 0.32101 0.0
C1499 C 0.56865 0.72935 0.3127 0.0
C1500 C 0.56547 0.75024 0.31422 0.0
C1501 C 0.58173 0.77072 0.32429 0.0
C1502 C 0.59245 0.7076 0.31982 0.0
C1503 C 0.54493 0.751 0.3052 0.0
H1504 H 0.54232 0.67906 0.2679 0.0
H1505 H 0.4957 0.6533 0.30308 0.0
H1506 H 0.57669 0.7406 0.28184 0.0
H1507 H 0.59464 0.72765 0.28858 0.0
H1508 H 0.57879 0.71754 0.27016 0.0
H1509 H 0.50667 0.67469 0.32664 0.0
H1510 H 0.53949 0.69339 0.33174 0.0
H1511 H 0.52237 0.70782 0.32606 0.0
H1512 H 0.62046 0.75111 0.33697 0.0
H1513 H 0.57933 0.78674 0.32551 0.0
H1514 H 0.59489 0.70341 0.30825 0.0
H1515 H 0.57588 0.69097 0.32285 0.0
H1516 H 0.6088 0.71077 0.3271 0.0
H1517 H 0.54569 0.74712 0.29327 0.0
H1518 H 0.54595 0.76925 0.30704 0.0
H1519 H 0.52679 0.73638 0.30808 0.0
C1520 C 0.31678 0.85261 0.27471 0.0
C1521 C 0.32909 0.87285 0.2665 0.0
C1522 C 0.29651 0.84926 0.28206 0.0
C1523 C 0.28825 0.86653 0.28115 0.0
C1524 C 0.30019 0.88668 0.27259 0.0
C1525 C 0.32049 0.88961 0.26537 0.0
C1526 C 0.28417 0.82744 0.29099 0.0
C1527 C 0.29186 0.90543 0.27134 0.0
C1528 C 0.22355 0.84535 0.29157 0.0
C1529 C 0.2283 0.85579 0.30632 0.0
C1530 C 0.24287 0.84924 0.2831 0.0
C1531 C 0.26759 0.86381 0.28955 0.0
C1532 C 0.27255 0.8748 0.30432 0.0
C1533 C 0.25287 0.87069 0.31252 0.0
C1534 C 0.2368 0.83732 0.26736 0.0
C1535 C 0.29868 0.89042 0.31159 0.0
H1536 H 0.32303 0.83932 0.27541 0.0
H1537 H 0.33004 0.9054 0.25915 0.0
H1538 H 0.28569 0.83416 0.30276 0.0
H1539 H 0.26422 0.81608 0.28709 0.0
H1540 H 0.29246 0.81536 0.29027 0.0
H1541 H 0.30234 0.91935 0.26369 0.0
H1542 H 0.27193 0.89592 0.26736 0.0
H1543 H 0.29429 0.91532 0.28238 0.0
H1544 H 0.20467 0.83378 0.28666 0.0
H1545 H 0.25677 0.87887 0.32387 0.0
H1546 H 0.24358 0.82402 0.26618 0.0
H1547 H 0.24631 0.85163 0.25976 0.0
H1548 H 0.21666 0.82727 0.26383 0.0
H1549 H 0.30755 0.8789 0.31223 0.0
H1550 H 0.29947 0.89855 0.32292 0.0
H1551 H 0.30971 0.9057 0.30487 0.0
C1552 C 0.13322 0.44365 0.2798 0.0
C1553 C 0.1255 0.45771 0.28814 0.0
C1554 C 0.14073 0.42855 0.28657 0.0
C1555 C 0.14064 0.42764 0.30205 0.0
C1556 C 0.13265 0.44158 0.31049 0.0
C1557 C 0.12507 0.45632 0.30343 0.0
C1558 C 0.14899 0.41376 0.27722 0.0
C1559 C 0.13226 0.44105 0.32702 0.0
C1560 C 0.13973 0.37419 0.32012 0.0
C1561 C 0.16446 0.38468 0.32582 0.0
C1562 C 0.13186 0.38767 0.31189 0.0
C1563 C 0.14911 0.41236 0.30954 0.0
C1564 C 0.17419 0.42294 0.31515 0.0
C1565 C 0.18158 0.40892 0.32322 0.0
C1566 C 0.10501 0.37567 0.30597 0.0
C1567 C 0.19309 0.44924 0.3129 0.0
H1568 H 0.13381 0.44479 0.26801 0.0
H1569 H 0.11868 0.46673 0.30991 0.0
H1570 H 0.16851 0.41973 0.2808 0.0
H1571 H 0.13784 0.39377 0.27875 0.0
H1572 H 0.14732 0.41595 0.26528 0.0
H1573 H 0.12553 0.45299 0.33197 0.0
H1574 H 0.12018 0.42178 0.32965 0.0
H1575 H 0.15109 0.44742 0.33232 0.0
H1576 H 0.12643 0.35551 0.32226 0.0
H1577 H 0.20075 0.41699 0.32757 0.0
H1578 H 0.10333 0.37708 0.29393 0.0
H1579 H 0.09652 0.38557 0.31136 0.0
H1580 H 0.09435 0.3558 0.3079 0.0
H1581 H 0.19311 0.45176 0.30097 0.0
H1582 H 0.21203 0.45431 0.3174 0.0
H1583 H 0.18822 0.46232 0.31841 0.0
C1584 C 0.31452 0.46314 0.27728 0.0
C1585 C 0.32906 0.45636 0.2693 0.0
C1586 C 0.29489 0.44568 0.28435 0.0
C1587 C 0.28966 0.42081 0.28348 0.0
C1588 C 0.30384 0.41367 0.27513 0.0
C1589 C 0.32336 0.43153 0.26811 0.0
C1590 C 0.27998 0.45397 0.29296 0.0
C1591 C 0.2987 0.38728 0.27387 0.0
C1592 C 0.25605 0.38443 0.31469 0.0
C1593 C 0.23151 0.37123 0.30826 0.0
C1594 C 0.27525 0.40006 0.30659 0.0
C1595 C 0.2698 0.40256 0.2917 0.0
C1596 C 0.24519 0.38868 0.285 0.0
C1597 C 0.22637 0.37325 0.29336 0.0
C1598 C 0.30129 0.41447 0.31411 0.0
C1599 C 0.2385 0.39076 0.26916 0.0
H1600 H 0.31858 0.4822 0.27802 0.0
H1601 H 0.33461 0.42622 0.26202 0.0
H1602 H 0.26014 0.4426 0.28879 0.0
H1603 H 0.28174 0.45113 0.30476 0.0
H1604 H 0.28599 0.47383 0.29221 0.0
H1605 H 0.31081 0.38452 0.26654 0.0
H1606 H 0.30149 0.38218 0.28498 0.0
H1607 H 0.27917 0.37437 0.26951 0.0
H1608 H 0.26025 0.38298 0.32616 0.0
H1609 H 0.20752 0.36306 0.28822 0.0
H1610 H 0.30787 0.43464 0.3148 0.0
H1611 H 0.31387 0.41116 0.30754 0.0
H1612 H 0.30268 0.4094 0.32545 0.0
H1613 H 0.23938 0.40883 0.26844 0.0
H1614 H 0.21959 0.37574 0.26488 0.0
H1615 H 0.25174 0.39012 0.26188 0.0
C1616 C 0.54924 0.88372 0.2727 0.0
C1617 C 0.52393 0.86758 0.27331 0.0
C1618 C 0.56698 0.88016 0.2805 0.0
C1619 C 0.55921 0.86 0.28915 0.0
C1620 C 0.5337 0.84358 0.28978 0.0
C1621 C 0.51636 0.84757 0.28185 0.0
C1622 C 0.59402 0.89805 0.27956 0.0
C1623 C 0.52474 0.82182 0.29886 0.0
C1624 C 0.60356 0.83748 0.29973 0.0
C1625 C 0.61222 0.84845 0.31434 0.0
C1626 C 0.58648 0.84127 0.29135 0.0
C1627 C 0.57778 0.8563 0.29774 0.0
C1628 C 0.58661 0.86763 0.31241 0.0
C1629 C 0.60374 0.86358 0.32053 0.0
C1630 C 0.57751 0.82892 0.27572 0.0
C1631 C 0.57774 0.88378 0.31959 0.0
H1632 H 0.55522 0.8994 0.26627 0.0
H1633 H 0.49683 0.83485 0.28221 0.0
H1634 H 0.60329 0.90733 0.29072 0.0
H1635 H 0.60311 0.88784 0.27548 0.0
H1636 H 0.59699 0.91252 0.27212 0.0
H1637 H 0.50427 0.81065 0.29808 0.0
H1638 H 0.53188 0.80957 0.29515 0.0
H1639 H 0.53193 0.82853 0.31064 0.0
H1640 H 0.60992 0.8257 0.29485 0.0
H1641 H 0.61027 0.87211 0.33181 0.0
H1642 H 0.5803 0.84291 0.26798 0.0
H1643 H 0.55742 0.81541 0.27487 0.0
H1644 H 0.58715 0.81898 0.27211 0.0
H1645 H 0.58151 0.89936 0.31295 0.0
H1646 H 0.58672 0.89155 0.33101 0.0
H1647 H 0.55747 0.87284 0.31998 0.0
C1648 C 0.12061 0.65731 0.30896 0.0
C1649 C 0.12086 0.65394 0.29363 0.0
C1650 C 0.12826 0.68084 0.31619 0.0
C1651 C 0.13629 0.70145 0.30789 0.0
C1652 C 0.13648 0.69817 0.29242 0.0
C1653 C 0.12881 0.67446 0.28548 0.0
C1654 C 0.12773 0.68366 0.33271 0.0
C1655 C 0.14493 0.71973 0.2832 0.0
C1656 C 0.13566 0.75864 0.32378 0.0
C1657 C 0.16061 0.77458 0.32881 0.0
C1658 C 0.12744 0.73469 0.31703 0.0
C1659 C 0.1446 0.72652 0.31538 0.0
C1660 C 0.16978 0.74245 0.32063 0.0
C1661 C 0.1775 0.76636 0.32729 0.0
C1662 C 0.10047 0.71826 0.31152 0.0
C1663 C 0.1886 0.73435 0.31906 0.0
H1664 H 0.1142 0.64148 0.31528 0.0
H1665 H 0.1294 0.67205 0.27367 0.0
H1666 H 0.14651 0.69707 0.33809 0.0
H1667 H 0.1156 0.69123 0.33537 0.0
H1668 H 0.121 0.66578 0.33755 0.0
H1669 H 0.14363 0.71398 0.27126 0.0
H1670 H 0.13361 0.72867 0.28461 0.0
H1671 H 0.16436 0.73397 0.28698 0.0
H1672 H 0.12255 0.76495 0.32505 0.0
H1673 H 0.19681 0.7787 0.33118 0.0
H1674 H 0.09265 0.70063 0.3167 0.0
H1675 H 0.09842 0.71344 0.29941 0.0
H1676 H 0.08945 0.72727 0.31392 0.0
H1677 H 0.18303 0.71715 0.32445 0.0
H1678 H 0.20736 0.74879 0.32401 0.0
H1679 H 0.18945 0.73003 0.3072 0.0
C1680 C 0.79253 0.98535 0.39121 0.0
C1681 C 0.80554 0.0063 0.38363 0.0
C1682 C 0.7751 0.96232 0.38361 0.0
C1683 C 0.77069 0.96016 0.36805 0.0
C1684 C 0.7838 0.98116 0.36031 0.0
C1685 C 0.80102 0.00399 0.3682 0.0
C1686 C 0.76141 0.9403 0.39223 0.0
C1687 C 0.77955 0.97952 0.34371 0.0
C1688 C 0.74242 0.8962 0.34699 0.0
C1689 C 0.7177 0.88987 0.34424 0.0
C1690 C 0.7599 0.91906 0.35474 0.0
C1691 C 0.75239 0.93588 0.35983 0.0
C1692 C 0.7274 0.92954 0.35705 0.0
C1693 C 0.71036 0.90661 0.34921 0.0
C1694 C 0.78637 0.92516 0.35752 0.0
C1695 C 0.71867 0.94694 0.36239 0.0
H1696 H 0.79616 0.98689 0.40311 0.0
H1697 H 0.81072 0.02015 0.36228 0.0
H1698 H 0.74123 0.93281 0.39016 0.0
H1699 H 0.76495 0.92523 0.38849 0.0
H1700 H 0.76689 0.94512 0.40432 0.0
H1701 H 0.7914 0.99753 0.33935 0.0
H1702 H 0.78336 0.96543 0.33849 0.0
H1703 H 0.75995 0.97344 0.34031 0.0
H1704 H 0.74809 0.8832 0.34319 0.0
H1705 H 0.69126 0.90179 0.34695 0.0
H1706 H 0.79209 0.9285 0.36957 0.0
H1707 H 0.7987 0.94247 0.35266 0.0
H1708 H 0.78921 0.91008 0.35276 0.0
H1709 H 0.72252 0.95098 0.37458 0.0
H1710 H 0.69859 0.93914 0.35936 0.0
H1711 H 0.72892 0.96485 0.35763 0.0
C1712 C 0.01291 0.78582 0.39796 0.0
C1713 C 0.00554 0.80365 0.39796 0.0
C1714 C 0.03229 0.78812 0.39 0.0
C1715 C 0.0446 0.80875 0.38184 0.0
C1716 C 0.03745 0.82696 0.38194 0.0
C1717 C 0.01802 0.82418 0.38998 0.0
C1718 C 0.03954 0.76845 0.39025 0.0
C1719 C 0.05029 0.84935 0.3735 0.0
C1720 C 0.10876 0.8281 0.3711 0.0
C1721 C 0.10375 0.81854 0.35616 0.0
C1722 C 0.08967 0.82455 0.37969 0.0
C1723 C 0.06493 0.81133 0.37315 0.0
C1724 C 0.05969 0.80127 0.35816 0.0
C1725 C 0.07915 0.80493 0.34986 0.0
C1726 C 0.09613 0.83554 0.39564 0.0
C1727 C 0.03353 0.78704 0.35082 0.0
H1728 H 0.00321 0.7698 0.40398 0.0
H1729 H 0.01268 0.83823 0.39012 0.0
H1730 H 0.03733 0.75976 0.37886 0.0
H1731 H 0.05929 0.777 0.39449 0.0
H1732 H 0.0283 0.75368 0.39725 0.0
H1733 H 0.04248 0.8618 0.37469 0.0
H1734 H 0.07025 0.8601 0.37747 0.0
H1735 H 0.04872 0.84332 0.36159 0.0
H1736 H 0.12767 0.83855 0.37612 0.0
H1737 H 0.07509 0.7975 0.33834 0.0
H1738 H 0.08366 0.82203 0.40286 0.0
H1739 H 0.09376 0.85199 0.39677 0.0
H1740 H 0.11548 0.84144 0.39969 0.0
H1741 H 0.02197 0.77132 0.35712 0.0
H1742 H 0.03247 0.77966 0.33924 0.0
H1743 H 0.02545 0.79931 0.35082 0.0
C1744 C 0.20374 0.22489 0.39489 0.0
C1745 C 0.20178 0.20313 0.38808 0.0
C1746 C 0.19868 0.24047 0.3867 0.0
C1747 C 0.19163 0.23419 0.37132 0.0
C1748 C 0.19001 0.2125 0.36434 0.0
C1749 C 0.19486 0.19715 0.37281 0.0
C1750 C 0.20006 0.26308 0.39466 0.0
C1751 C 0.18285 0.20531 0.34791 0.0
C1752 C 0.15475 0.25672 0.34945 0.0
C1753 C 0.17314 0.27554 0.34239 0.0
C1754 C 0.16072 0.24406 0.3596 0.0
C1755 C 0.18555 0.2499 0.36236 0.0
C1756 C 0.20427 0.2694 0.35555 0.0
C1757 C 0.19784 0.28219 0.34573 0.0
C1758 C 0.1404 0.22414 0.36714 0.0
C1759 C 0.23096 0.27626 0.35831 0.0
H1760 H 0.20925 0.22982 0.40666 0.0
H1761 H 0.19272 0.18014 0.36745 0.0
H1762 H 0.20815 0.27916 0.38807 0.0
H1763 H 0.18109 0.2588 0.39645 0.0
H1764 H 0.21106 0.26847 0.40563 0.0
H1765 H 0.18351 0.18844 0.34409 0.0
H1766 H 0.16386 0.20176 0.34506 0.0
H1767 H 0.1954 0.22076 0.34175 0.0
H1768 H 0.1357 0.25205 0.34713 0.0
H1769 H 0.21205 0.29698 0.34036 0.0
H1770 H 0.14539 0.22746 0.37927 0.0
H1771 H 0.13806 0.20578 0.36341 0.0
H1772 H 0.12246 0.22337 0.36477 0.0
H1773 H 0.23697 0.28043 0.37034 0.0
H1774 H 0.24339 0.2926 0.35268 0.0
H1775 H 0.23304 0.26033 0.35432 0.0
C1776 C 0.69279 0.57036 0.73462 0.0
C1777 C 0.67893 0.54559 0.72833 0.0
C1778 C 0.71387 0.58773 0.72848 0.0
C1779 C 0.72113 0.58027 0.71564 0.0
C1780 C 0.70742 0.55528 0.70934 0.0
C1781 C 0.68664 0.53825 0.7158 0.0
C1782 C 0.72827 0.61414 0.73564 0.0
C1783 C 0.71467 0.54653 0.69571 0.0
C1784 C 0.76035 0.62785 0.69033 0.0
C1785 C 0.78379 0.63105 0.6942 0.0
C1786 C 0.73993 0.61186 0.69749 0.0
C1787 C 0.74294 0.59854 0.70868 0.0
C1788 C 0.76659 0.60188 0.71274 0.0
C1789 C 0.78676 0.61825 0.70554 0.0
C1790 C 0.71498 0.60872 0.69281 0.0
C1791 C 0.77046 0.58776 0.72448 0.0
H1792 H 0.68692 0.57633 0.7442 0.0
H1793 H 0.67648 0.51907 0.71104 0.0
H1794 H 0.74772 0.61932 0.73875 0.0
H1795 H 0.72849 0.62698 0.72769 0.0
H1796 H 0.7204 0.61692 0.74569 0.0
H1797 H 0.70212 0.52645 0.6922 0.0
H1798 H 0.71445 0.55717 0.68645 0.0
H1799 H 0.73376 0.54999 0.6978 0.0
H1800 H 0.7579 0.63767 0.68159 0.0
H1801 H 0.80469 0.62034 0.70849 0.0
H1802 H 0.70712 0.61259 0.70253 0.0
H1803 H 0.70205 0.58924 0.68819 0.0
H1804 H 0.7159 0.62116 0.68437 0.0
H1805 H 0.76667 0.59355 0.73529 0.0
H1806 H 0.78949 0.59085 0.72552 0.0
H1807 H 0.7574 0.56756 0.72195 0.0
C1808 C 0.4903 0.16223 0.72424 0.0
C1809 C 0.4851 0.14337 0.73342 0.0
C1810 C 0.4712 0.16408 0.71673 0.0
C1811 C 0.44634 0.14662 0.71844 0.0
C1812 C 0.44097 0.12756 0.72769 0.0
C1813 C 0.46041 0.12615 0.73506 0.0
C1814 C 0.47761 0.18471 0.70698 0.0
C1815 C 0.41469 0.10857 0.72974 0.0
C1816 C 0.39788 0.16437 0.70889 0.0
C1817 C 0.38837 0.15231 0.69456 0.0
C1818 C 0.41653 0.16241 0.71687 0.0
C1819 C 0.42593 0.14811 0.71036 0.0
C1820 C 0.41609 0.13549 0.69604 0.0
C1821 C 0.39742 0.13772 0.68831 0.0
C1822 C 0.42646 0.17603 0.73217 0.0
C1823 C 0.42562 0.11999 0.68876 0.0
H1824 H 0.50933 0.17575 0.72307 0.0
H1825 H 0.45627 0.1113 0.74196 0.0
H1826 H 0.4693 0.17677 0.69548 0.0
H1827 H 0.46978 0.19628 0.71081 0.0
H1828 H 0.49786 0.19685 0.7069 0.0
H1829 H 0.41368 0.09516 0.73753 0.0
H1830 H 0.40494 0.11798 0.73399 0.0
H1831 H 0.40465 0.0981 0.71895 0.0
H1832 H 0.39105 0.1757 0.71382 0.0
H1833 H 0.39022 0.12833 0.67725 0.0
H1834 H 0.4463 0.1901 0.73233 0.0
H1835 H 0.42508 0.16291 0.74023 0.0
H1836 H 0.41644 0.18552 0.73588 0.0
H1837 H 0.4455 0.13185 0.68744 0.0
H1838 H 0.41553 0.11081 0.67773 0.0
H1839 H 0.42391 0.10551 0.69585 0.0
C1840 C 0.86016 0.31512 0.72107 0.0
C1841 C 0.85738 0.33345 0.7145 0.0
C1842 C 0.8565 0.29383 0.71262 0.0
C1843 C 0.8504 0.29099 0.69717 0.0
C1844 C 0.84804 0.30958 0.6904 0.0
C1845 C 0.8513 0.33044 0.69915 0.0
C1846 C 0.85853 0.27408 0.72029 0.0
C1847 C 0.84182 0.30731 0.67391 0.0
C1848 C 0.86153 0.24608 0.6735 0.0
C1849 C 0.83761 0.22571 0.67053 0.0
C1850 C 0.86598 0.26756 0.68211 0.0
C1851 C 0.84604 0.26836 0.68808 0.0
C1852 C 0.82187 0.24762 0.68524 0.0
C1853 C 0.81789 0.22665 0.6763 0.0
C1854 C 0.89197 0.28936 0.68485 0.0
C1855 C 0.80023 0.24751 0.69171 0.0
H1856 H 0.86524 0.31738 0.73287 0.0
H1857 H 0.84865 0.3442 0.69396 0.0
H1858 H 0.84018 0.25693 0.71914 0.0
H1859 H 0.87141 0.26944 0.71503 0.0
H1860 H 0.86495 0.27977 0.73224 0.0
H1861 H 0.84177 0.32394 0.67028 0.0
H1862 H 0.85535 0.30457 0.66799 0.0
H1863 H 0.82335 0.29081 0.67056 0.0
H1864 H 0.87675 0.24521 0.66905 0.0
H1865 H 0.79942 0.2107 0.67416 0.0
H1866 H 0.898 0.29349 0.69688 0.0
H1867 H 0.89257 0.30612 0.68096 0.0
H1868 H 0.90532 0.28592 0.67918 0.0
H1869 H 0.80412 0.2518 0.70389 0.0
H1870 H 0.78289 0.22936 0.68912 0.0
H1871 H 0.7973 0.26214 0.68735 0.0
C1872 C 0.21313 0.02086 0.61305 0.0
C1873 C 0.19141 0.00337 0.6186 0.0
C1874 C 0.23084 0.04251 0.62183 0.0
C1875 C 0.22713 0.04649 0.63667 0.0
C1876 C 0.20536 0.02899 0.64238 0.0
C1877 C 0.18764 0.00787 0.63323 0.0
C1878 C 0.25357 0.06106 0.61526 0.0
C1879 C 0.20085 0.03249 0.6582 0.0
C1880 C 0.28317 0.08944 0.66378 0.0
C1881 C 0.28078 0.11051 0.66551 0.0
C1882 C 0.26576 0.06838 0.65444 0.0
C1883 C 0.24607 0.06886 0.64631 0.0
C1884 C 0.24411 0.09049 0.6477 0.0
C1885 C 0.26124 0.1109 0.65752 0.0
C1886 C 0.26823 0.04552 0.65344 0.0
C1887 C 0.22405 0.09217 0.63877 0.0
H1888 H 0.21657 0.01752 0.60188 0.0
H1889 H 0.17075 0.99492 0.63759 0.0
H1890 H 0.25558 0.07976 0.6167 0.0
H1891 H 0.27027 0.06243 0.6211 0.0
H1892 H 0.25299 0.05592 0.6033 0.0
H1893 H 0.18329 0.0168 0.66106 0.0
H1894 H 0.21627 0.03432 0.6658 0.0
H1895 H 0.20024 0.04986 0.66016 0.0
H1896 H 0.29843 0.08933 0.66993 0.0
H1897 H 0.25971 0.12744 0.65867 0.0
H1898 H 0.2701 0.04065 0.64187 0.0
H1899 H 0.25132 0.02955 0.6567 0.0
H1900 H 0.28443 0.04809 0.66062 0.0
H1901 H 0.22461 0.08816 0.62682 0.0
H1902 H 0.22586 0.11077 0.64063 0.0
H1903 H 0.20568 0.07805 0.64166 0.0
C1904 C 0.98523 0.21081 0.59695 0.0
C1905 C 0.00331 0.20628 0.60339 0.0
C1906 C 0.96581 0.20881 0.60478 0.0
C1907 C 0.96406 0.2015 0.61926 0.0
C1908 C 0.98227 0.19706 0.62586 0.0
C1909 C 0.00183 0.19989 0.61796 0.0
C1910 C 0.94699 0.21417 0.59749 0.0
C1911 C 0.98082 0.1888 0.64118 0.0
C1912 C 0.92498 0.21208 0.64584 0.0
C1913 C 0.90332 0.18886 0.64409 0.0
C1914 C 0.94461 0.21678 0.63743 0.0
C1915 C 0.94273 0.19756 0.62738 0.0
C1916 C 0.92084 0.17409 0.62558 0.0
C1917 C 0.90129 0.17014 0.63382 0.0
C1918 C 0.9674 0.24224 0.63934 0.0
C1919 C 0.9183 0.15291 0.61526 0.0
H1920 H 0.98593 0.21548 0.58568 0.0
H1921 H 0.01597 0.19701 0.62325 0.0
H1922 H 0.92869 0.19695 0.59568 0.0
H1923 H 0.94498 0.2278 0.60479 0.0
H1924 H 0.95206 0.22158 0.58668 0.0
H1925 H 0.99633 0.18584 0.64467 0.0
H1926 H 0.98099 0.20283 0.64931 0.0
H1927 H 0.9632 0.1712 0.64155 0.0
H1928 H 0.92647 0.22666 0.65366 0.0
H1929 H 0.8846 0.15209 0.63249 0.0
H1930 H 0.97163 0.24959 0.62846 0.0
H1931 H 0.9835 0.24107 0.64393 0.0
H1932 H 0.96527 0.25561 0.64682 0.0
H1933 H 0.92094 0.15829 0.60386 0.0
H1934 H 0.89999 0.13585 0.6151 0.0
H1935 H 0.93284 0.14853 0.61868 0.0
C1936 C 0.83558 0.81354 0.63496 0.0
C1937 C 0.82611 0.80687 0.62001 0.0
C1938 C 0.84053 0.7979 0.64307 0.0
C1939 C 0.83655 0.77523 0.63601 0.0
C1940 C 0.82784 0.76868 0.62081 0.0
C1941 C 0.8225 0.78447 0.61301 0.0
C1942 C 0.84963 0.80547 0.65929 0.0
C1943 C 0.82388 0.74487 0.61285 0.0
C1944 C 0.86905 0.74675 0.6565 0.0
C1945 C 0.84985 0.72886 0.66359 0.0
C1946 C 0.86474 0.76122 0.64691 0.0
C1947 C 0.84084 0.75818 0.64476 0.0
C1948 C 0.82136 0.73996 0.65185 0.0
C1949 C 0.82606 0.72528 0.66106 0.0
C1950 C 0.8858 0.77987 0.63918 0.0
C1951 C 0.79571 0.73641 0.65001 0.0
H1952 H 0.83916 0.83109 0.64039 0.0
H1953 H 0.81506 0.779 0.60152 0.0
H1954 H 0.83659 0.79121 0.66595 0.0
H1955 H 0.86779 0.8067 0.66149 0.0
H1956 H 0.8516 0.82364 0.66315 0.0
H1957 H 0.81746 0.7427 0.60095 0.0
H1958 H 0.84132 0.74435 0.61383 0.0
H1959 H 0.81002 0.72874 0.61802 0.0
H1960 H 0.88738 0.74916 0.65827 0.0
H1961 H 0.81123 0.7113 0.66651 0.0
H1962 H 0.88997 0.79891 0.64293 0.0
H1963 H 0.88051 0.77674 0.62709 0.0
H1964 H 0.90285 0.77883 0.64134 0.0
H1965 H 0.79627 0.75373 0.65426 0.0
H1966 H 0.78249 0.72098 0.65597 0.0
H1967 H 0.78867 0.73251 0.63814 0.0
C1968 C 0.00214 0.80137 0.62082 0.0
C1969 C 0.00615 0.79566 0.60646 0.0
C1970 C 0.9827 0.78383 0.62797 0.0
C1971 C 0.96736 0.75952 0.6209 0.0
C1972 C 0.9717 0.75324 0.60665 0.0
C1973 C 0.99076 0.77145 0.59951 0.0
C1974 C 0.97833 0.79149 0.64302 0.0
C1975 C 0.95605 0.72735 0.59888 0.0
C1976 C 0.93074 0.7117 0.64684 0.0
C1977 C 0.90754 0.70969 0.64449 0.0
C1978 C 0.95011 0.72696 0.6387 0.0
C1979 C 0.94633 0.74106 0.62832 0.0
C1980 C 0.92279 0.73876 0.62577 0.0
C1981 C 0.90365 0.72291 0.63376 0.0
C1982 C 0.97471 0.72829 0.64137 0.0
C1983 C 0.91803 0.75383 0.61508 0.0
H1984 H 0.01422 0.81965 0.62658 0.0
H1985 H 0.99329 0.76673 0.58838 0.0
H1986 H 0.95928 0.78834 0.64272 0.0
H1987 H 0.98006 0.77996 0.65127 0.0
H1988 H 0.99151 0.81132 0.64685 0.0
H1989 H 0.96311 0.72486 0.5884 0.0
H1990 H 0.95541 0.71351 0.60618 0.0
H1991 H 0.93682 0.72326 0.59632 0.0
H1992 H 0.93374 0.70133 0.65502 0.0
H1993 H 0.8858 0.7216 0.63194 0.0
H1994 H 0.9888 0.74704 0.64656 0.0
H1995 H 0.98096 0.72522 0.63072 0.0
H1996 H 0.97394 0.71439 0.64868 0.0
H1997 H 0.92926 0.77383 0.61917 0.0
H1998 H 0.89829 0.74864 0.61367 0.0
H1999 H 0.92369 0.75141 0.60411 0.0
C2000 C 0.21706 0.20593 0.60099 0.0
C2001 C 0.19279 0.1937 0.60488 0.0
C2002 C 0.23575 0.20372 0.60871 0.0
C2003 C 0.23014 0.1892 0.62074 0.0
C2004 C 0.20572 0.17677 0.62473 0.0
C2005 C 0.18731 0.17907 0.61671 0.0
C2006 C 0.26154 0.21703 0.60403 0.0
C2007 C 0.19905 0.16101 0.63748 0.0
C2008 C 0.27311 0.16586 0.63276 0.0
C2009 C 0.28744 0.18297 0.64498 0.0
C2010 C 0.25435 0.16761 0.62481 0.0
C2011 C 0.24984 0.187 0.62914 0.0
C2012 C 0.26421 0.20434 0.64145 0.0
C2013 C 0.28285 0.2021 0.64925 0.0
C2014 C 0.23945 0.14872 0.61176 0.0
C2015 C 0.25977 0.22515 0.64644 0.0
H2016 H 0.22159 0.2176 0.59202 0.0
H2017 H 0.16856 0.16923 0.61965 0.0
H2018 H 0.27464 0.2303 0.61329 0.0
H2019 H 0.26758 0.20348 0.60123 0.0
H2020 H 0.26279 0.22736 0.59432 0.0
H2021 H 0.17924 0.15269 0.63923 0.0
H2022 H 0.20321 0.14585 0.63545 0.0
H2023 H 0.21037 0.17241 0.64779 0.0
H2024 H 0.27629 0.15081 0.62947 0.0
H2025 H 0.29376 0.21531 0.65871 0.0
H2026 H 0.24345 0.15797 0.60144 0.0
H2027 H 0.21941 0.14056 0.61267 0.0
H2028 H 0.24367 0.13344 0.61078 0.0
H2029 H 0.26222 0.23697 0.63736 0.0
H2030 H 0.27246 0.23701 0.65627 0.0
H2031 H 0.24047 0.2174 0.64917 0.0
C2032 C 0.81617 0.99976 0.64243 0.0
C2033 C 0.81831 0.99955 0.62719 0.0
C2034 C 0.82062 0.02133 0.65095 0.0
C2035 C 0.82706 0.04312 0.64404 0.0
C2036 C 0.8289 0.04298 0.62864 0.0
C2037 C 0.82469 0.02126 0.62043 0.0
C2038 C 0.8186 0.02085 0.66736 0.0
C2039 C 0.83552 0.06585 0.62086 0.0
C2040 C 0.81806 0.09351 0.66284 0.0
C2041 C 0.84233 0.11132 0.66827 0.0
C2042 C 0.81275 0.07108 0.65504 0.0
C2043 C 0.83215 0.06622 0.65291 0.0
C2044 C 0.85658 0.08379 0.65887 0.0
C2045 C 0.8614 0.10622 0.66644 0.0
C2046 C 0.78652 0.05294 0.64869 0.0
C2047 C 0.87771 0.07915 0.65695 0.0
H2048 H 0.81086 0.983 0.64772 0.0
H2049 H 0.8268 0.02145 0.60872 0.0
H2050 H 0.83644 0.03501 0.67352 0.0
H2051 H 0.80451 0.02564 0.67036 0.0
H2052 H 0.81353 0.00244 0.67105 0.0
H2053 H 0.83535 0.06241 0.60875 0.0
H2054 H 0.82236 0.07241 0.62289 0.0
H2055 H 0.85418 0.08107 0.62535 0.0
H2056 H 0.80327 0.09737 0.66437 0.0
H2057 H 0.88018 0.11997 0.67068 0.0
H2058 H 0.78041 0.03445 0.65256 0.0
H2059 H 0.78554 0.05063 0.63646 0.0
H2060 H 0.77345 0.05913 0.65179 0.0
H2061 H 0.87349 0.06117 0.66097 0.0
H2062 H 0.89535 0.09406 0.66297 0.0
H2063 H 0.88025 0.07791 0.64506 0.0
C2064 C 0.47831 0.34323 0.69744 0.0
C2065 C 0.48302 0.34374 0.71274 0.0
C2066 C 0.46129 0.32107 0.68881 0.0
C2067 C 0.44861 0.29893 0.69564 0.0
C2068 C 0.45329 0.29929 0.71105 0.0
C2069 C 0.47049 0.32165 0.7194 0.0
C2070 C 0.45679 0.32137 0.67239 0.0
C2071 C 0.44011 0.27604 0.71874 0.0
C2072 C 0.38805 0.2455 0.67688 0.0
C2073 C 0.39549 0.22918 0.67123 0.0
C2074 C 0.40522 0.26846 0.68467 0.0
C2075 C 0.43043 0.2753 0.6867 0.0
C2076 C 0.43811 0.25915 0.68064 0.0
C2077 C 0.42051 0.23623 0.67299 0.0
C2078 C 0.39628 0.28509 0.69104 0.0
C2079 C 0.46484 0.26582 0.68254 0.0
H2080 H 0.48767 0.36025 0.69224 0.0
H2081 H 0.47431 0.32177 0.73116 0.0
H2082 H 0.46074 0.30807 0.66624 0.0
H2083 H 0.4371 0.31531 0.66932 0.0
H2084 H 0.46839 0.34006 0.66874 0.0
H2085 H 0.44563 0.27952 0.73084 0.0
H2086 H 0.41985 0.26819 0.71685 0.0
H2087 H 0.44412 0.26177 0.71406 0.0
H2088 H 0.3687 0.24012 0.67546 0.0
H2089 H 0.4263 0.22363 0.66861 0.0
H2090 H 0.40662 0.30375 0.68715 0.0
H2091 H 0.3998 0.28754 0.70327 0.0
H2092 H 0.37623 0.27748 0.68798 0.0
H2093 H 0.47665 0.28407 0.67847 0.0
H2094 H 0.46795 0.25175 0.67656 0.0
H2095 H 0.47095 0.26754 0.69444 0.0
C2096 C 0.6796 0.14156 0.71831 0.0
C2097 C 0.67972 0.13826 0.73341 0.0
C2098 C 0.69897 0.14403 0.71034 0.0
C2099 C 0.71873 0.14254 0.7175 0.0
C2100 C 0.71884 0.13876 0.73265 0.0
C2101 C 0.69946 0.1369 0.74046 0.0
C2102 C 0.69845 0.14856 0.69427 0.0
C2103 C 0.73952 0.13689 0.74065 0.0
C2104 C 0.75778 0.12859 0.6926 0.0
C2105 C 0.77858 0.15216 0.69266 0.0
C2106 C 0.73837 0.12504 0.70095 0.0
C2107 C 0.73962 0.14569 0.7092 0.0
C2108 C 0.76055 0.16957 0.70916 0.0
C2109 C 0.77984 0.17245 0.70099 0.0
C2110 C 0.71659 0.09922 0.701 0.0
C2111 C 0.7624 0.19217 0.7175 0.0
H2112 H 0.66425 0.14212 0.71265 0.0
H2113 H 0.7 0.13473 0.75215 0.0
H2114 H 0.71521 0.16619 0.69255 0.0
H2115 H 0.69861 0.13349 0.68729 0.0
H2116 H 0.68192 0.14963 0.69039 0.0
H2117 H 0.73617 0.13255 0.75221 0.0
H2118 H 0.74184 0.12226 0.73471 0.0
H2119 H 0.75717 0.15464 0.74084 0.0
H2120 H 0.75687 0.11287 0.68623 0.0
H2121 H 0.79573 0.19079 0.70088 0.0
H2122 H 0.6995 0.09848 0.6963 0.0
H2123 H 0.71394 0.09437 0.71251 0.0
H2124 H 0.71892 0.08501 0.69452 0.0
H2125 H 0.74701 0.19479 0.71325 0.0
H2126 H 0.78013 0.20935 0.7165 0.0
H2127 H 0.76067 0.18957 0.72938 0.0
C2128 C 0.86897 0.55566 0.72664 0.0
C2129 C 0.86347 0.53249 0.71982 0.0
C2130 C 0.86561 0.57249 0.7187 0.0
C2131 C 0.8565 0.56601 0.70355 0.0
C2132 C 0.85119 0.54278 0.69656 0.0
C2133 C 0.85453 0.52626 0.70479 0.0
C2134 C 0.87101 0.59673 0.72678 0.0
C2135 C 0.84181 0.5353 0.68037 0.0
C2136 C 0.82416 0.59508 0.68352 0.0
C2137 C 0.84307 0.61236 0.67598 0.0
C2138 C 0.82862 0.58078 0.69318 0.0
C2139 C 0.85232 0.58322 0.69486 0.0
C2140 C 0.87157 0.60099 0.68743 0.0
C2141 C 0.86677 0.6156 0.6782 0.0
C2142 C 0.80802 0.56308 0.70156 0.0
C2143 C 0.89711 0.60427 0.68908 0.0
H2144 H 0.87606 0.56076 0.73821 0.0
H2145 H 0.84974 0.50824 0.69946 0.0
H2146 H 0.87786 0.61198 0.71956 0.0
H2147 H 0.85368 0.59425 0.73078 0.0
H2148 H 0.88479 0.60232 0.73656 0.0
H2149 H 0.83951 0.517 0.67646 0.0
H2150 H 0.82373 0.53433 0.67836 0.0
H2151 H 0.8548 0.54945 0.67365 0.0
H2152 H 0.80596 0.59306 0.68208 0.0
H2153 H 0.88143 0.62924 0.67249 0.0
H2154 H 0.81406 0.56724 0.71359 0.0
H2155 H 0.80352 0.54375 0.69834 0.0
H2156 H 0.79101 0.56421 0.69951 0.0
H2157 H 0.90454 0.60884 0.7009 0.0
H2158 H 0.91015 0.61919 0.68274 0.0
H2159 H 0.89623 0.58664 0.68518 0.0
C2160 C 0.46191 0.95042 0.15741 0.0
C2161 C 0.46083 0.92837 0.16089 0.0
C2162 C 0.4696 0.95983 0.14391 0.0
C2163 C 0.47631 0.94683 0.13365 0.0
C2164 C 0.47451 0.92417 0.13692 0.0
C2165 C 0.4668 0.91522 0.1505 0.0
C2166 C 0.47123 0.98402 0.14078 0.0
C2167 C 0.48132 0.90967 0.12623 0.0
C2168 C 0.4796 0.96056 0.09359 0.0
C2169 C 0.50509 0.976 0.09311 0.0
C2170 C 0.46991 0.95116 0.10673 0.0
C2171 C 0.48611 0.95733 0.11974 0.0
C2172 C 0.51182 0.97308 0.1194 0.0
C2173 C 0.52099 0.98224 0.10611 0.0
C2174 C 0.44239 0.93436 0.10664 0.0
C2175 C 0.52968 0.98016 0.13308 0.0
H2176 H 0.45752 0.96075 0.16546 0.0
H2177 H 0.46563 0.89797 0.15305 0.0
H2178 H 0.49073 0.99818 0.13988 0.0
H2179 H 0.46058 0.98163 0.13005 0.0
H2180 H 0.46415 0.99118 0.14955 0.0
H2181 H 0.47792 0.89187 0.13018 0.0
H2182 H 0.47057 0.90563 0.11531 0.0
H2183 H 0.50114 0.92091 0.12456 0.0
H2184 H 0.46719 0.95551 0.08361 0.0
H2185 H 0.54065 0.99453 0.10593 0.0
H2186 H 0.43529 0.94147 0.1154 0.0
H2187 H 0.43833 0.91559 0.10906 0.0
H2188 H 0.43217 0.93264 0.09585 0.0
H2189 H 0.52474 0.98927 0.142 0.0
H2190 H 0.54908 0.99293 0.13103 0.0
H2191 H 0.52846 0.96325 0.13717 0.0
C2192 C 0.02235 0.51802 0.17391 0.0
C2193 C 0.04229 0.5153 0.17904 0.0
C2194 C 0.01694 0.51824 0.1588 0.0
C2195 C 0.03182 0.51566 0.14858 0.0
C2196 C 0.05139 0.51197 0.15363 0.0
C2197 C 0.05641 0.51185 0.16881 0.0
C2198 C 0.99581 0.52206 0.15381 0.0
C2199 C 0.06762 0.50909 0.14305 0.0
C2200 C 0.00755 0.49998 0.10794 0.0
C2201 C 0.01951 0.52345 0.10275 0.0
C2202 C 0.0115 0.4971 0.12282 0.0
C2203 C 0.02776 0.5182 0.13272 0.0
C2204 C 0.04001 0.54191 0.12754 0.0
C2205 C 0.03575 0.54424 0.11261 0.0
C2206 C 0.9981 0.47154 0.12797 0.0
C2207 C 0.05754 0.56484 0.13778 0.0
H2208 H 0.01117 0.52033 0.18176 0.0
H2209 H 0.072 0.51001 0.17273 0.0
H2210 H 0.00305 0.53993 0.14892 0.0
H2211 H 0.98309 0.50715 0.1451 0.0
H2212 H 0.98514 0.5223 0.16304 0.0
H2213 H 0.08094 0.50463 0.14862 0.0
H2214 H 0.05617 0.49419 0.13402 0.0
H2215 H 0.07814 0.52655 0.13788 0.0
H2216 H 0.99473 0.48388 0.10041 0.0
H2217 H 0.0453 0.56237 0.10861 0.0
H2218 H 0.9861 0.47113 0.13652 0.0
H2219 H 0.01157 0.46694 0.13313 0.0
H2220 H 0.9865 0.45696 0.11879 0.0
H2221 H 0.04769 0.56739 0.14682 0.0
H2222 H 0.06574 0.58188 0.13197 0.0
H2223 H 0.0727 0.56267 0.14295 0.0
C2224 C 0.48482 0.54799 0.16218 0.0
C2225 C 0.45988 0.53859 0.16426 0.0
C2226 C 0.49216 0.54664 0.1481 0.0
C2227 C 0.47412 0.53558 0.13574 0.0
C2228 C 0.44885 0.52567 0.13777 0.0
C2229 C 0.44201 0.52726 0.15203 0.0
C2230 C 0.51928 0.55723 0.14643 0.0
C2231 C 0.42911 0.51374 0.12485 0.0
C2232 C 0.498 0.55474 0.09865 0.0
C2233 C 0.50141 0.53514 0.09354 0.0
C2234 C 0.48834 0.55473 0.11215 0.0
C2235 C 0.48194 0.53464 0.12074 0.0
C2236 C 0.48462 0.51444 0.11542 0.0
C2237 C 0.4943 0.51493 0.10188 0.0
C2238 C 0.48577 0.57662 0.11746 0.0
C2239 C 0.47789 0.49261 0.12421 0.0
H2240 H 0.49868 0.55637 0.17162 0.0
H2241 H 0.42273 0.52012 0.15356 0.0
H2242 H 0.52244 0.54261 0.14133 0.0
H2243 H 0.52543 0.57213 0.13896 0.0
H2244 H 0.53094 0.56503 0.15717 0.0
H2245 H 0.41025 0.50636 0.12832 0.0
H2246 H 0.43215 0.5275 0.11689 0.0
H2247 H 0.43018 0.49833 0.1189 0.0
H2248 H 0.50357 0.57047 0.0923 0.0
H2249 H 0.49641 0.49948 0.09785 0.0
H2250 H 0.49855 0.58658 0.1276 0.0
H2251 H 0.46676 0.57019 0.12038 0.0
H2252 H 0.48993 0.58991 0.10903 0.0
H2253 H 0.49011 0.49886 0.13473 0.0
H2254 H 0.47963 0.47771 0.11811 0.0
H2255 H 0.45866 0.48472 0.12707 0.0
C2256 C 0.9077 0.46604 0.84352 0.0
C2257 C 0.88691 0.44452 0.83654 0.0
C2258 C 0.91651 0.46708 0.8582 0.0
C2259 C 0.90429 0.44606 0.86606 0.0
C2260 C 0.88259 0.42474 0.85933 0.0
C2261 C 0.87412 0.42424 0.84466 0.0
C2262 C 0.93965 0.49022 0.86504 0.0
C2263 C 0.869 0.402 0.86738 0.0
C2264 C 0.9445 0.43848 0.89555 0.0
C2265 C 0.93892 0.44707 0.90851 0.0
C2266 C 0.93295 0.4376 0.88171 0.0
C2267 C 0.91548 0.44564 0.88078 0.0
C2268 C 0.9094 0.4539 0.89382 0.0
C2269 C 0.92115 0.45444 0.90754 0.0
C2270 C 0.93988 0.4286 0.86804 0.0
C2271 C 0.89088 0.46262 0.89327 0.0
H2272 H 0.91783 0.48169 0.8373 0.0
H2273 H 0.8578 0.4077 0.8394 0.0
H2274 H 0.93672 0.49637 0.87603 0.0
H2275 H 0.95486 0.48615 0.86674 0.0
H2276 H 0.94556 0.50573 0.858 0.0
H2277 H 0.8512 0.38787 0.86113 0.0
H2278 H 0.88066 0.39349 0.86921 0.0
H2279 H 0.86529 0.40716 0.8784 0.0
H2280 H 0.95846 0.4331 0.89617 0.0
H2281 H 0.9165 0.46077 0.91752 0.0
H2282 H 0.94842 0.44381 0.86086 0.0
H2283 H 0.92312 0.41316 0.86159 0.0
H2284 H 0.95306 0.42207 0.87072 0.0
H2285 H 0.8976 0.47911 0.88703 0.0
H2286 H 0.88754 0.4676 0.90447 0.0
H2287 H 0.87307 0.44796 0.88734 0.0
C2288 C 0.56084 0.48069 0.84403 0.0
C2289 C 0.54293 0.47057 0.83177 0.0
C2290 C 0.55425 0.4823 0.85835 0.0
C2291 C 0.52918 0.47359 0.86044 0.0
C2292 C 0.51113 0.46385 0.84808 0.0
C2293 C 0.51823 0.46253 0.83392 0.0
C2294 C 0.57401 0.49289 0.87127 0.0
C2295 C 0.48423 0.4545 0.84981 0.0
C2296 C 0.50482 0.4531 0.89725 0.0
C2297 C 0.50248 0.47311 0.90294 0.0
C2298 C 0.51421 0.45335 0.88363 0.0
C2299 C 0.52153 0.47414 0.87554 0.0
C2300 C 0.51997 0.49473 0.88146 0.0
C2301 C 0.51043 0.49395 0.89507 0.0
C2302 C 0.5155 0.43099 0.87766 0.0
C2303 C 0.52778 0.51733 0.87323 0.0
H2304 H 0.57992 0.48678 0.84246 0.0
H2305 H 0.50437 0.45513 0.82448 0.0
H2306 H 0.57364 0.50835 0.87769 0.0
H2307 H 0.57037 0.47844 0.87883 0.0
H2308 H 0.59277 0.49984 0.86774 0.0
H2309 H 0.47255 0.44778 0.83905 0.0
H2310 H 0.47726 0.43907 0.85692 0.0
H2311 H 0.48204 0.46949 0.85536 0.0
H2312 H 0.49858 0.43689 0.90324 0.0
H2313 H 0.5091 0.50966 0.89956 0.0
H2314 H 0.53435 0.43673 0.87471 0.0
H2315 H 0.50267 0.42208 0.86742 0.0
H2316 H 0.51056 0.417 0.88571 0.0
H2317 H 0.54689 0.52454 0.87028 0.0
H2318 H 0.52695 0.53242 0.87979 0.0
H2319 H 0.5156 0.51218 0.86276 0.0
C2320 C 0.56722 0.08408 0.85272 0.0
C2321 C 0.55011 0.07489 0.8401 0.0
C2322 C 0.56016 0.07491 0.86638 0.0
C2323 C 0.53546 0.05615 0.86736 0.0
C2324 C 0.51839 0.04627 0.85453 0.0
C2325 C 0.52593 0.05574 0.84107 0.0
C2326 C 0.57887 0.08579 0.87984 0.0
C2327 C 0.49195 0.02608 0.85508 0.0
C2328 C 0.51633 0.01586 0.89894 0.0
C2329 C 0.50508 0.02634 0.90726 0.0
C2330 C 0.52735 0.02606 0.88627 0.0
C2331 C 0.527 0.04718 0.8818 0.0
C2332 C 0.51653 0.05842 0.89048 0.0
C2333 C 0.50573 0.04788 0.90314 0.0
C2334 C 0.53855 0.01371 0.87738 0.0
C2335 C 0.51579 0.08095 0.88605 0.0
H2336 H 0.58589 0.09897 0.85202 0.0
H2337 H 0.51278 0.0483 0.83128 0.0
H2338 H 0.57332 0.09569 0.88787 0.0
H2339 H 0.57951 0.07081 0.88543 0.0
H2340 H 0.59769 0.099 0.87704 0.0
H2341 H 0.4812 0.01994 0.84401 0.0
H2342 H 0.49139 0.00978 0.85964 0.0
H2343 H 0.48274 0.03285 0.86253 0.0
H2344 H 0.51635 0.99952 0.90229 0.0
H2345 H 0.49702 0.05601 0.90954 0.0
H2346 H 0.55752 0.02759 0.87521 0.0
H2347 H 0.52747 0.00543 0.86651 0.0
H2348 H 0.53932 0.99884 0.88306 0.0
H2349 H 0.53448 0.09569 0.88403 0.0
H2350 H 0.50879 0.08861 0.8946 0.0
H2351 H 0.50363 0.07594 0.87558 0.0
C2352 C 0.13355 0.2431 0.48329 0.0
C2353 C 0.12915 0.25684 0.4942 0.0
C2354 C 0.14139 0.25234 0.4698 0.0
C2355 C 0.14494 0.27592 0.46714 0.0
C2356 C 0.13979 0.28956 0.47792 0.0
C2357 C 0.13192 0.27983 0.49132 0.0
C2358 C 0.14649 0.23715 0.45853 0.0
C2359 C 0.14336 0.31478 0.47547 0.0
C2360 C 0.19041 0.31092 0.43987 0.0
C2361 C 0.17461 0.30664 0.42713 0.0
C2362 C 0.18096 0.30116 0.45299 0.0
C2363 C 0.15509 0.28675 0.45337 0.0
C2364 C 0.13904 0.28242 0.44056 0.0
C2365 C 0.149 0.29246 0.4276 0.0
C2366 C 0.19868 0.30613 0.46642 0.0
C2367 C 0.11136 0.26716 0.44054 0.0
H2368 H 0.13108 0.22514 0.48538 0.0
H2369 H 0.12875 0.29062 0.49977 0.0
H2370 H 0.13584 0.23443 0.44776 0.0
H2371 H 0.16634 0.24722 0.45677 0.0
H2372 H 0.1417 0.21867 0.46201 0.0
H2373 H 0.13718 0.32235 0.48456 0.0
H2374 H 0.16316 0.32797 0.47463 0.0
H2375 H 0.13299 0.31373 0.46491 0.0
H2376 H 0.21022 0.32166 0.43952 0.0
H2377 H 0.13672 0.2895 0.41787 0.0
H2378 H 0.19617 0.28835 0.46983 0.0
H2379 H 0.19473 0.31534 0.4758 0.0
H2380 H 0.21825 0.31806 0.46437 0.0
H2381 H 0.10599 0.24816 0.44324 0.0
H2382 H 0.10142 0.26576 0.42972 0.0
H2383 H 0.10516 0.27548 0.44918 0.0
C2384 C 0.78064 0.89862 0.49717 0.0
C2385 C 0.76767 0.87973 0.50616 0.0
C2386 C 0.77096 0.89746 0.48269 0.0
C2387 C 0.7477 0.87698 0.4771 0.0
C2388 C 0.73498 0.85737 0.4859 0.0
C2389 C 0.74516 0.85896 0.50033 0.0
C2390 C 0.78519 0.9186 0.47358 0.0
C2391 C 0.71008 0.83526 0.48034 0.0
C2392 C 0.70887 0.88702 0.44788 0.0
C2393 C 0.71182 0.87571 0.43501 0.0
C2394 C 0.72062 0.8877 0.46161 0.0
C2395 C 0.73581 0.87694 0.46249 0.0
C2396 C 0.73927 0.86592 0.4495 0.0
C2397 C 0.72715 0.86537 0.43592 0.0
C2398 C 0.7165 0.89966 0.47521 0.0
C2399 C 0.75537 0.85432 0.45 0.0
H2400 H 0.79822 0.91455 0.50158 0.0
H2401 H 0.73497 0.84443 0.50727 0.0
H2402 H 0.78715 0.91138 0.46263 0.0
H2403 H 0.7749 0.92851 0.47161 0.0
H2404 H 0.80387 0.93214 0.47909 0.0
H2405 H 0.70349 0.82075 0.4881 0.0
H2406 H 0.69632 0.84134 0.47875 0.0
H2407 H 0.71091 0.82692 0.46945 0.0
H2408 H 0.69731 0.89533 0.44722 0.0
H2409 H 0.72919 0.85625 0.42605 0.0
H2410 H 0.73442 0.91487 0.4807 0.0
H2411 H 0.70804 0.88584 0.48324 0.0
H2412 H 0.7043 0.90737 0.47261 0.0
H2413 H 0.77408 0.86792 0.4554 0.0
H2414 H 0.75715 0.84765 0.43881 0.0
H2415 H 0.7475 0.83839 0.45672 0.0
C2416 C 0.11389 0.86605 0.48709 0.0
C2417 C 0.13239 0.87847 0.49893 0.0
C2418 C 0.11993 0.86447 0.47261 0.0
C2419 C 0.14505 0.87555 0.46995 0.0
C2420 C 0.16377 0.88788 0.48188 0.0
C2421 C 0.15722 0.88913 0.4962 0.0
C2422 C 0.09947 0.85113 0.46016 0.0
C2423 C 0.19077 0.89982 0.47952 0.0
C2424 C 0.16431 0.85478 0.43572 0.0
C2425 C 0.16934 0.87405 0.42688 0.0
C2426 C 0.15564 0.85463 0.44956 0.0
C2427 C 0.15196 0.87426 0.45472 0.0
C2428 C 0.15633 0.8934 0.44567 0.0
C2429 C 0.16492 0.89304 0.43184 0.0
C2430 C 0.15101 0.83378 0.45882 0.0
C2431 C 0.15269 0.91468 0.45081 0.0
H2432 H 0.09469 0.85796 0.48909 0.0
H2433 H 0.17161 0.89837 0.50533 0.0
H2434 H 0.10118 0.86413 0.45194 0.0
H2435 H 0.10104 0.83592 0.45435 0.0
H2436 H 0.08088 0.84317 0.4641 0.0
H2437 H 0.20306 0.90881 0.48996 0.0
H2438 H 0.19473 0.88568 0.47455 0.0
H2439 H 0.19538 0.91402 0.47166 0.0
H2440 H 0.16724 0.83981 0.43181 0.0
H2441 H 0.1689 0.90803 0.42508 0.0
H2442 H 0.13203 0.82512 0.4622 0.0
H2443 H 0.16397 0.84125 0.46907 0.0
H2444 H 0.15338 0.81919 0.45286 0.0
H2445 H 0.13385 0.90753 0.45421 0.0
H2446 H 0.15544 0.92726 0.44211 0.0
H2447 H 0.16595 0.92563 0.46062 0.0
C2448 C 0.60869 0.78892 0.17062 0.0
C2449 C 0.59429 0.79885 0.16547 0.0
C2450 C 0.61428 0.78934 0.18577 0.0
C2451 C 0.60548 0.80019 0.19605 0.0
C2452 C 0.59126 0.81061 0.19096 0.0
C2453 C 0.58578 0.80978 0.1757 0.0
C2454 C 0.6296 0.7781 0.19076 0.0
C2455 C 0.58173 0.82248 0.20163 0.0
C2456 C 0.60319 0.77972 0.23452 0.0
C2457 C 0.62584 0.79863 0.24161 0.0
C2458 C 0.59583 0.78044 0.2198 0.0
C2459 C 0.61145 0.80065 0.21211 0.0
C2460 C 0.63381 0.82034 0.21945 0.0
C2461 C 0.64079 0.81903 0.23411 0.0
C2462 C 0.57191 0.75904 0.21229 0.0
C2463 C 0.65082 0.84233 0.21167 0.0
H2464 H 0.61575 0.78089 0.16278 0.0
H2465 H 0.57448 0.81731 0.17179 0.0
H2466 H 0.64676 0.79243 0.19746 0.0
H2467 H 0.61922 0.76324 0.19789 0.0
H2468 H 0.63473 0.7701 0.18134 0.0
H2469 H 0.57132 0.83016 0.19589 0.0
H2470 H 0.56944 0.80862 0.20876 0.0
H2471 H 0.59733 0.83767 0.20901 0.0
H2472 H 0.59166 0.76389 0.24029 0.0
H2473 H 0.65813 0.83388 0.23968 0.0
H2474 H 0.57592 0.74891 0.20347 0.0
H2475 H 0.56051 0.76597 0.20695 0.0
H2476 H 0.56097 0.74575 0.22013 0.0
H2477 H 0.65852 0.83622 0.20278 0.0
H2478 H 0.6664 0.85707 0.21932 0.0
H2479 H 0.64044 0.8504 0.20639 0.0
C2480 C 0.17626 0.80063 0.16455 0.0
C2481 C 0.20016 0.80553 0.16245 0.0
C2482 C 0.16936 0.80211 0.17875 0.0
C2483 C 0.18682 0.80875 0.19119 0.0
C2484 C 0.21123 0.81451 0.18915 0.0
C2485 C 0.21762 0.81283 0.17479 0.0
C2486 C 0.1432 0.79596 0.18045 0.0
C2487 C 0.23037 0.82175 0.20216 0.0
C2488 C 0.17205 0.82924 0.22742 0.0
C2489 C 0.16183 0.80729 0.23435 0.0
C2490 C 0.18076 0.83017 0.21351 0.0
C2491 C 0.17913 0.8086 0.20633 0.0
C2492 C 0.16918 0.78649 0.21335 0.0
C2493 C 0.1607 0.78612 0.22728 0.0
C2494 C 0.19127 0.85409 0.20638 0.0
C2495 C 0.16716 0.76311 0.20606 0.0
H2496 H 0.16281 0.79541 0.15504 0.0
H2497 H 0.23606 0.81645 0.17325 0.0
H2498 H 0.13395 0.77943 0.1866 0.0
H2499 H 0.1432 0.81154 0.18697 0.0
H2500 H 0.13215 0.7921 0.16964 0.0
H2501 H 0.24889 0.82713 0.19868 0.0
H2502 H 0.2318 0.83749 0.20935 0.0
H2503 H 0.2247 0.80598 0.20893 0.0
H2504 H 0.17276 0.84561 0.23273 0.0
H2505 H 0.15325 0.76922 0.23268 0.0
H2506 H 0.17957 0.85139 0.19605 0.0
H2507 H 0.21001 0.85955 0.20331 0.0
H2508 H 0.19241 0.86954 0.21374 0.0
H2509 H 0.15496 0.75707 0.19553 0.0
H2510 H 0.15963 0.74766 0.21317 0.0
H2511 H 0.18557 0.76673 0.20332 0.0
C2512 C 0.23289 0.41558 0.18578 0.0
C2513 C 0.21524 0.40632 0.17342 0.0
C2514 C 0.22651 0.40653 0.19955 0.0
C2515 C 0.20196 0.38777 0.2009 0.0
C2516 C 0.18433 0.37786 0.18834 0.0
C2517 C 0.19119 0.38722 0.17477 0.0
C2518 C 0.24581 0.41746 0.21272 0.0
C2519 C 0.15802 0.35767 0.18928 0.0
C2520 C 0.18448 0.34739 0.23248 0.0
C2521 C 0.17351 0.35775 0.24117 0.0
C2522 C 0.19489 0.35767 0.21968 0.0
C2523 C 0.19426 0.37879 0.21546 0.0
C2524 C 0.18413 0.38994 0.22453 0.0
C2525 C 0.1739 0.37929 0.23729 0.0
C2526 C 0.20572 0.34538 0.21038 0.0
C2527 C 0.18311 0.41247 0.22039 0.0
H2528 H 0.25147 0.43042 0.18479 0.0
H2529 H 0.17761 0.37971 0.16517 0.0
H2530 H 0.24055 0.42725 0.22102 0.0
H2531 H 0.24687 0.40252 0.2181 0.0
H2532 H 0.26439 0.43079 0.20964 0.0
H2533 H 0.14675 0.35154 0.17838 0.0
H2534 H 0.15773 0.34136 0.19366 0.0
H2535 H 0.1492 0.36444 0.19705 0.0
H2536 H 0.1847 0.33105 0.23563 0.0
H2537 H 0.1654 0.38733 0.24396 0.0
H2538 H 0.22448 0.3593 0.20792 0.0
H2539 H 0.19413 0.33706 0.19967 0.0
H2540 H 0.20686 0.33055 0.21589 0.0
H2541 H 0.2016 0.4272 0.21806 0.0
H2542 H 0.17658 0.42013 0.22923 0.0
H2543 H 0.17041 0.40744 0.21016 0.0
C2544 C 0.79531 0.57119 0.8145 0.0
C2545 C 0.79201 0.58517 0.82582 0.0
C2546 C 0.80446 0.58125 0.8014 0.0
C2547 C 0.81053 0.60593 0.7996 0.0
C2548 C 0.8064 0.61984 0.81075 0.0
C2549 C 0.79713 0.60926 0.82374 0.0
C2550 C 0.80833 0.56574 0.78968 0.0
C2551 C 0.81257 0.64618 0.80919 0.0
C2552 C 0.85972 0.64045 0.77416 0.0
C2553 C 0.84548 0.63876 0.76124 0.0
C2554 C 0.84855 0.63002 0.78675 0.0
C2555 C 0.8225 0.61762 0.78642 0.0
C2556 C 0.80802 0.61609 0.77347 0.0
C2557 C 0.81969 0.62662 0.76102 0.0
C2558 C 0.86462 0.63205 0.80037 0.0
C2559 C 0.78021 0.60305 0.77266 0.0
H2560 H 0.79104 0.55243 0.816 0.0
H2561 H 0.79481 0.62022 0.8325 0.0
H2562 H 0.7988 0.5651 0.77888 0.0
H2563 H 0.8283 0.57433 0.78834 0.0
H2564 H 0.80143 0.54645 0.79243 0.0
H2565 H 0.80686 0.65394 0.81844 0.0
H2566 H 0.83276 0.65813 0.80886 0.0
H2567 H 0.80339 0.64704 0.79864 0.0
H2568 H 0.87963 0.64958 0.77434 0.0
H2569 H 0.80861 0.62558 0.75112 0.0
H2570 H 0.86 0.61324 0.80309 0.0
H2571 H 0.86106 0.6412 0.80996 0.0
H2572 H 0.8846 0.64276 0.79893 0.0
H2573 H 0.77268 0.58277 0.77254 0.0
H2574 H 0.77193 0.60648 0.76261 0.0
H2575 H 0.77428 0.60916 0.78252 0.0
C2576 C 0.35267 0.18135 0.83969 0.0
C2577 C 0.37278 0.17908 0.84506 0.0
C2578 C 0.34805 0.18238 0.82459 0.0
C2579 C 0.3639 0.18105 0.81463 0.0
C2580 C 0.38357 0.17766 0.81989 0.0
C2581 C 0.38779 0.17673 0.83505 0.0
C2582 C 0.32679 0.18584 0.81938 0.0
C2583 C 0.40081 0.17608 0.80958 0.0
C2584 C 0.34267 0.16826 0.77358 0.0
C2585 C 0.35474 0.19226 0.76909 0.0
C2586 C 0.34556 0.16427 0.78836 0.0
C2587 C 0.36083 0.18478 0.79889 0.0
C2588 C 0.37312 0.20903 0.79443 0.0
C2589 C 0.36995 0.21247 0.77958 0.0
C2590 C 0.33216 0.13816 0.79272 0.0
C2591 C 0.3896 0.23137 0.80536 0.0
H2592 H 0.3408 0.1828 0.84736 0.0
H2593 H 0.40352 0.17524 0.83915 0.0
H2594 H 0.334 0.20418 0.81507 0.0
H2595 H 0.31492 0.1715 0.81018 0.0
H2596 H 0.31522 0.18484 0.82836 0.0
H2597 H 0.41397 0.17148 0.81522 0.0
H2598 H 0.39013 0.16182 0.80012 0.0
H2599 H 0.41152 0.1941 0.80501 0.0
H2600 H 0.33063 0.1526 0.76555 0.0
H2601 H 0.37958 0.23101 0.77615 0.0
H2602 H 0.31944 0.13672 0.80104 0.0
H2603 H 0.34558 0.13353 0.79793 0.0
H2604 H 0.32133 0.12419 0.78313 0.0
H2605 H 0.37888 0.23276 0.81424 0.0
H2606 H 0.39787 0.24896 0.8001 0.0
H2607 H 0.40473 0.22927 0.81068 0.0
C2608 C 0.77139 0.19983 0.81742 0.0
C2609 C 0.78821 0.21587 0.8293 0.0
C2610 C 0.77924 0.19836 0.80345 0.0
C2611 C 0.80448 0.21328 0.80135 0.0
C2612 C 0.8215 0.22951 0.81328 0.0
C2613 C 0.81319 0.23052 0.82709 0.0
C2614 C 0.76058 0.18082 0.79097 0.0
C2615 C 0.8486 0.24567 0.81151 0.0
C2616 C 0.83307 0.19554 0.77085 0.0
C2617 C 0.83512 0.21202 0.76051 0.0
C2618 C 0.8223 0.19513 0.78395 0.0
C2619 C 0.81344 0.21168 0.78681 0.0
C2620 C 0.81482 0.22788 0.77622 0.0
C2621 C 0.8256 0.22782 0.76317 0.0
C2622 C 0.821 0.17743 0.7949 0.0
C2623 C 0.80567 0.24586 0.7789 0.0
H2624 H 0.75204 0.1886 0.81901 0.0
H2625 H 0.82641 0.24259 0.83626 0.0
H2626 H 0.76049 0.19124 0.78157 0.0
H2627 H 0.76576 0.16711 0.7869 0.0
H2628 H 0.74161 0.17064 0.79437 0.0
H2629 H 0.85931 0.25777 0.82179 0.0
H2630 H 0.85654 0.23389 0.80837 0.0
H2631 H 0.85096 0.25759 0.8025 0.0
H2632 H 0.83996 0.18294 0.7687 0.0
H2633 H 0.82724 0.24068 0.75524 0.0
H2634 H 0.80182 0.1662 0.79777 0.0
H2635 H 0.83276 0.18808 0.80525 0.0
H2636 H 0.82724 0.16468 0.79059 0.0
H2637 H 0.78636 0.23591 0.78174 0.0
H2638 H 0.80646 0.25596 0.76915 0.0
H2639 H 0.81707 0.25965 0.78844 0.0
C2640 C 0.21195 0.09306 0.51238 0.0
C2641 C 0.2246 0.1137 0.50452 0.0
C2642 C 0.22035 0.0932 0.52701 0.0
C2643 C 0.24182 0.11455 0.53393 0.0
C2644 C 0.25384 0.13593 0.52635 0.0
C2645 C 0.24512 0.13523 0.51171 0.0
C2646 C 0.20697 0.0701 0.53478 0.0
C2647 C 0.27673 0.15911 0.53341 0.0
C2648 C 0.25904 0.12255 0.57531 0.0
C2649 C 0.2774 0.11597 0.57608 0.0
C2650 C 0.24684 0.12167 0.5617 0.0
C2651 C 0.25306 0.11386 0.54856 0.0
C2652 C 0.27096 0.10638 0.54929 0.0
C2653 C 0.28296 0.1076 0.56304 0.0
C2654 C 0.22783 0.12977 0.56135 0.0
C2655 C 0.27803 0.09784 0.53551 0.0
H2656 H 0.19584 0.07651 0.50694 0.0
H2657 H 0.25515 0.15117 0.50568 0.0
H2658 H 0.21882 0.06174 0.53636 0.0
H2659 H 0.20319 0.07477 0.54589 0.0
H2660 H 0.18924 0.05601 0.52844 0.0
H2661 H 0.2825 0.17485 0.52657 0.0
H2662 H 0.27357 0.16477 0.54446 0.0
H2663 H 0.29215 0.15531 0.53502 0.0
H2664 H 0.2544 0.12867 0.58536 0.0
H2665 H 0.29734 0.10278 0.56351 0.0
H2666 H 0.2103 0.11518 0.55511 0.0
H2667 H 0.23444 0.14671 0.55554 0.0
H2668 H 0.22401 0.13384 0.57261 0.0
H2669 H 0.26135 0.08246 0.52896 0.0
H2670 H 0.29133 0.09142 0.53805 0.0
H2671 H 0.28649 0.11329 0.52847 0.0
C2672 C 0.88751 0.14816 0.51036 0.0
C2673 C 0.86987 0.143 0.49846 0.0
C2674 C 0.88184 0.14858 0.52501 0.0
C2675 C 0.85795 0.14368 0.52779 0.0
C2676 C 0.8404 0.1394 0.51584 0.0
C2677 C 0.84659 0.13918 0.50134 0.0
C2678 C 0.9011 0.1534 0.53749 0.0
C2679 C 0.81477 0.13424 0.51834 0.0
C2680 C 0.83241 0.11676 0.56319 0.0
C2681 C 0.83494 0.13752 0.57169 0.0
C2682 C 0.84016 0.11861 0.54897 0.0
C2683 C 0.85082 0.14182 0.54313 0.0
C2684 C 0.8538 0.16294 0.55172 0.0
C2685 C 0.84574 0.16052 0.56587 0.0
C2686 C 0.83665 0.09565 0.54012 0.0
C2687 C 0.86513 0.188 0.54587 0.0
H2688 H 0.90547 0.15094 0.50822 0.0
H2689 H 0.83303 0.13563 0.49219 0.0
H2690 H 0.9034 0.16844 0.54571 0.0
H2691 H 0.89497 0.1365 0.54329 0.0
H2692 H 0.9193 0.15868 0.53354 0.0
H2693 H 0.80369 0.13244 0.5079 0.0
H2694 H 0.80491 0.11678 0.52361 0.0
H2695 H 0.81585 0.14933 0.52598 0.0
H2696 H 0.82446 0.09903 0.56769 0.0
H2697 H 0.84748 0.17661 0.57228 0.0
H2698 H 0.85462 0.0988 0.53681 0.0
H2699 H 0.82432 0.09157 0.52984 0.0
H2700 H 0.82854 0.07913 0.54638 0.0
H2701 H 0.88353 0.19316 0.54232 0.0
H2702 H 0.86725 0.20283 0.55422 0.0
H2703 H 0.85341 0.18719 0.53602 0.0
C2704 C 0.9025 0.75775 0.52037 0.0
C2705 C 0.88437 0.74734 0.50825 0.0
C2706 C 0.89694 0.7497 0.53444 0.0
C2707 C 0.87274 0.73075 0.53634 0.0
C2708 C 0.8546 0.71973 0.52404 0.0
C2709 C 0.86064 0.72816 0.51016 0.0
C2710 C 0.91674 0.76183 0.54731 0.0
C2711 C 0.82865 0.6993 0.52557 0.0
C2712 C 0.85892 0.69302 0.56912 0.0
C2713 C 0.84809 0.70346 0.57788 0.0
C2714 C 0.86793 0.70235 0.55583 0.0
C2715 C 0.86601 0.72257 0.55118 0.0
C2716 C 0.85583 0.73371 0.56021 0.0
C2717 C 0.84696 0.72399 0.57345 0.0
C2718 C 0.87862 0.68994 0.54651 0.0
C2719 C 0.85359 0.7554 0.55565 0.0
H2720 H 0.92082 0.77269 0.51894 0.0
H2721 H 0.84668 0.71979 0.50076 0.0
H2722 H 0.91128 0.77143 0.55561 0.0
H2723 H 0.91887 0.74757 0.55284 0.0
H2724 H 0.93489 0.77554 0.54388 0.0
H2725 H 0.81691 0.69227 0.51483 0.0
H2726 H 0.82907 0.68356 0.53031 0.0
H2727 H 0.81989 0.70621 0.53329 0.0
H2728 H 0.85965 0.677 0.57241 0.0
H2729 H 0.839 0.73239 0.5803 0.0
H2730 H 0.89693 0.70394 0.54347 0.0
H2731 H 0.8664 0.68071 0.53608 0.0
H2732 H 0.88071 0.67583 0.55227 0.0
H2733 H 0.87171 0.77041 0.55301 0.0
H2734 H 0.84689 0.76305 0.56439 0.0
H2735 H 0.84054 0.74946 0.5455 0.0
loop_
_geom_bond_atom_site_label_1
_geom_bond_atom_site_label_2
_geom_bond_distance
_geom_bond_site_symmetry_2
_ccdc_geom_bond_type
C0 C1 1.384 . S
C0 H13 0.947 . S
C0 C35 1.382 . S
C1 C0 1.384 . S
C1 C2 1.378 . S
C2 C1 1.378 . S
C2 C3 1.378 . S
C2 H14 0.952 . S
C3 C2 1.378 . S
C3 H15 0.950 . S
C3 C34 1.383 . S
H4 C23 0.947 . S
H5 C24 0.946 . S
H6 C26 0.953 . S
H7 C27 0.945 . S
H8 C29 0.952 . S
H9 C30 0.949 . S
H10 C32 0.950 . S
H11 C33 0.948 . S
H12 C35 0.951 . S
H13 C0 0.947 . S
H14 C2 0.952 . S
H15 C3 0.950 . S
N16 C19 1.382 . S
N16 C21 1.363 . S
N17 C19 1.371 . S
N17 C20 1.372 . S
N18 C20 1.361 . S
N18 C21 1.377 . S
C19 N16 1.382 . S
C19 N17 1.371 . S
C19 C22 1.480 . S
C20 N17 1.372 . S
C20 N18 1.361 . S
C20 C28 1.457 . S
C21 N16 1.363 . S
C21 N18 1.377 . S
C21 C34 1.479 . S
C22 C19 1.480 . S
C22 C23 1.383 . S
C22 C27 1.385 . S
C23 H4 0.947 . S
C23 C22 1.383 . S
C23 C24 1.388 . S
C24 H5 0.946 . S
C24 C23 1.388 . S
C24 C25 1.384 . S
C25 C24 1.384 . S
C25 C26 1.377 . S
C26 H6 0.953 . S
C26 C25 1.377 . S
C26 C27 1.369 . S
C27 H7 0.945 . S
C27 C22 1.385 . S
C27 C26 1.369 . S
C28 C20 1.457 . S
C28 C29 1.372 . S
C28 C33 1.364 . S
C29 H8 0.952 . S
C29 C28 1.372 . S
C29 C30 1.389 . S
C30 H9 0.949 . S
C30 C29 1.389 . S
C30 C31 1.387 . S
C31 C30 1.387 . S
C31 C32 1.372 . S
C32 H10 0.950 . S
C32 C31 1.372 . S
C32 C33 1.379 . S
C33 H11 0.948 . S
C33 C28 1.364 . S
C33 C32 1.379 . S
C34 C3 1.383 . S
C34 C21 1.479 . S
C34 C35 1.398 . S
C35 C0 1.382 . S
C35 H12 0.951 . S
C35 C34 1.398 . S
C36 C37 1.384 . S
C36 H49 0.947 . S
C36 C71 1.382 . S
C37 C36 1.384 . S
C37 C38 1.378 . S
C38 C37 1.378 . S
C38 C39 1.378 . S
C38 H50 0.952 . S
C39 C38 1.378 . S
C39 H51 0.950 . S
C39 C70 1.383 . S
H40 C59 0.947 . S
H41 C60 0.946 . S
H42 C62 0.953 . S
H43 C63 0.945 . S
H44 C65 0.952 . S
H45 C66 0.949 . S
H46 C68 0.950 . S
H47 C69 0.948 . S
H48 C71 0.951 . S
H49 C36 0.947 . S
H50 C38 0.952 . S
H51 C39 0.950 . S
N52 C55 1.382 . S
N52 C57 1.363 . S
N53 C55 1.371 . S
N53 C56 1.372 . S
N54 C56 1.361 . S
N54 C57 1.377 . S
C55 N52 1.382 . S
C55 N53 1.371 . S
C55 C58 1.480 . S
C56 N53 1.372 . S
C56 N54 1.361 . S
C56 C64 1.457 . S
C57 N52 1.363 . S
C57 N54 1.377 . S
C57 C70 1.479 . S
C58 C55 1.480 . S
C58 C59 1.383 . S
C58 C63 1.385 . S
C59 H40 0.947 . S
C59 C58 1.383 . S
C59 C60 1.388 . S
C60 H41 0.946 . S
C60 C59 1.388 . S
C60 C61 1.384 . S
C61 C60 1.384 . S
C61 C62 1.377 . S
C62 H42 0.953 . S
C62 C61 1.377 . S
C62 C63 1.369 . S
C63 H43 0.945 . S
C63 C58 1.385 . S
C63 C62 1.369 . S
C64 C56 1.457 . S
C64 C65 1.372 . S
C64 C69 1.364 . S
C65 H44 0.952 . S
C65 C64 1.372 . S
C65 C66 1.389 . S
C66 H45 0.949 . S
C66 C65 1.389 . S
C66 C67 1.387 . S
C67 C66 1.387 . S
C67 C68 1.372 . S
C68 H46 0.950 . S
C68 C67 1.372 . S
C68 C69 1.379 . S
C69 H47 0.948 . S
C69 C64 1.364 . S
C69 C68 1.379 . S
C70 C39 1.383 . S
C70 C57 1.479 . S
C70 C71 1.398 . S
C71 C36 1.382 . S
C71 H48 0.951 . S
C71 C70 1.398 . S
C72 C73 1.384 . S
C72 H85 0.947 . S
C72 C107 1.382 . S
C73 C72 1.384 . S
C73 C74 1.378 . S
C74 C73 1.378 . S
C74 C75 1.378 . S
C74 H86 0.952 . S
C75 C74 1.378 . S
C75 H87 0.950 . S
C75 C106 1.383 . S
H76 C95 0.947 . S
H77 C96 0.946 . S
H78 C98 0.953 . S
H79 C99 0.945 . S
H80 C101 0.952 . S
H81 C102 0.949 . S
H82 C104 0.950 . S
H83 C105 0.948 . S
H84 C107 0.951 . S
H85 C72 0.947 . S
H86 C74 0.952 . S
H87 C75 0.950 . S
N88 C91 1.382 . S
N88 C93 1.363 . S
N89 C91 1.371 . S
N89 C92 1.372 . S
N90 C92 1.361 . S
N90 C93 1.377 . S
C91 N88 1.382 . S
C91 N89 1.371 . S
C91 C94 1.480 . S
C92 N89 1.372 . S
C92 N90 1.361 . S
C92 C100 1.457 . S
C93 N88 1.363 . S
C93 N90 1.377 . S
C93 C106 1.479 . S
C94 C91 1.480 . S
C94 C95 1.383 . S
C94 C99 1.385 . S
C95 H76 0.947 . S
C95 C94 1.383 . S
C95 C96 1.388 . S
C96 H77 0.946 . S
C96 C95 1.388 . S
C96 C97 1.384 . S
C97 C96 1.384 . S
C97 C98 1.377 . S
C98 H78 0.953 . S
C98 C97 1.377 . S
C98 C99 1.369 . S
C99 H79 0.945 . S
C99 C94 1.385 . S
C99 C98 1.369 . S
C100 C92 1.457 . S
C100 C101 1.372 . S
C100 C105 1.364 . S
C101 H80 0.952 . S
C101 C100 1.372 . S
C101 C102 1.389 . S
C102 H81 0.949 . S
C102 C101 1.389 . S
C102 C103 1.387 . S
C103 C102 1.387 . S
C103 C104 1.372 . S
C104 H82 0.950 . S
C104 C103 1.372 . S
C104 C105 1.379 . S
C105 H83 0.948 . S
C105 C100 1.364 . S
C105 C104 1.379 . S
C106 C75 1.383 . S
C106 C93 1.479 . S
C106 C107 1.398 . S
C107 C72 1.382 . S
C107 H84 0.951 . S
C107 C106 1.398 . S
C108 C109 1.384 . S
C108 H121 0.947 . S
C108 C143 1.382 . S
C109 C108 1.384 . S
C109 C110 1.378 . S
C110 C109 1.378 . S
C110 C111 1.378 . S
C110 H122 0.952 . S
C111 C110 1.378 . S
C111 H123 0.950 . S
C111 C142 1.383 . S
H112 C131 0.947 . S
H113 C132 0.946 . S
H114 C134 0.953 . S
H115 C135 0.945 . S
H116 C137 0.952 . S
H117 C138 0.949 . S
H118 C140 0.950 . S
H119 C141 0.948 . S
H120 C143 0.951 . S
H121 C108 0.947 . S
H122 C110 0.952 . S
H123 C111 0.950 . S
N124 C127 1.382 . S
N124 C129 1.363 . S
N125 C127 1.371 . S
N125 C128 1.372 . S
N126 C128 1.361 . S
N126 C129 1.377 . S
C127 N124 1.382 . S
C127 N125 1.371 . S
C127 C130 1.480 . S
C128 N125 1.372 . S
C128 N126 1.361 . S
C128 C136 1.457 . S
C129 N124 1.363 . S
C129 N126 1.377 . S
C129 C142 1.479 . S
C130 C127 1.480 . S
C130 C131 1.383 . S
C130 C135 1.385 . S
C131 H112 0.947 . S
C131 C130 1.383 . S
C131 C132 1.388 . S
C132 H113 0.946 . S
C132 C131 1.388 . S
C132 C133 1.384 . S
C133 C132 1.384 . S
C133 C134 1.377 . S
C134 H114 0.953 . S
C134 C133 1.377 . S
C134 C135 1.369 . S
C135 H115 0.945 . S
C135 C130 1.385 . S
C135 C134 1.369 . S
C136 C128 1.457 . S
C136 C137 1.372 . S
C136 C141 1.364 . S
C137 H116 0.952 . S
C137 C136 1.372 . S
C137 C138 1.389 . S
C138 H117 0.949 . S
C138 C137 1.389 . S
C138 C139 1.387 . S
C139 C138 1.387 . S
C139 C140 1.372 . S
C140 H118 0.950 . S
C140 C139 1.372 . S
C140 C141 1.379 . S
C141 H119 0.948 . S
C141 C136 1.364 . S
C141 C140 1.379 . S
C142 C111 1.383 . S
C142 C129 1.479 . S
C142 C143 1.398 . S
C143 C108 1.382 . S
C143 H120 0.951 . S
C143 C142 1.398 . S
C144 C145 1.384 . S
C144 H157 0.947 . S
C144 C179 1.382 . S
C145 C144 1.384 . S
C145 C146 1.378 . S
C146 C145 1.378 . S
C146 C147 1.378 . S
C146 H158 0.952 . S
C147 C146 1.378 . S
C147 H159 0.950 . S
C147 C178 1.383 . S
H148 C167 0.947 . S
H149 C168 0.946 . S
H150 C170 0.953 . S
H151 C171 0.945 . S
H152 C173 0.952 . S
H153 C174 0.949 . S
H154 C176 0.950 . S
H155 C177 0.948 . S
H156 C179 0.951 . S
H157 C144 0.947 . S
H158 C146 0.952 . S
H159 C147 0.950 . S
N160 C163 1.382 . S
N160 C165 1.363 . S
N161 C163 1.371 . S
N161 C164 1.372 . S
N162 C164 1.361 . S
N162 C165 1.377 . S
C163 N160 1.382 . S
C163 N161 1.371 . S
C163 C166 1.480 . S
C164 N161 1.372 . S
C164 N162 1.361 . S
C164 C172 1.457 . S
C165 N160 1.363 . S
C165 N162 1.377 . S
C165 C178 1.479 . S
C166 C163 1.480 . S
C166 C167 1.383 . S
C166 C171 1.385 . S
C167 H148 0.947 . S
C167 C166 1.383 . S
C167 C168 1.388 . S
C168 H149 0.946 . S
C168 C167 1.388 . S
C168 C169 1.384 . S
C169 C168 1.384 . S
C169 C170 1.377 . S
C170 H150 0.953 . S
C170 C169 1.377 . S
C170 C171 1.369 . S
C171 H151 0.945 . S
C171 C166 1.385 . S
C171 C170 1.369 . S
C172 C164 1.457 . S
C172 C173 1.372 . S
C172 C177 1.364 . S
C173 H152 0.952 . S
C173 C172 1.372 . S
C173 C174 1.389 . S
C174 H153 0.949 . S
C174 C173 1.389 . S
C174 C175 1.387 . S
C175 C174 1.387 . S
C175 C176 1.372 . S
C176 H154 0.950 . S
C176 C175 1.372 . S
C176 C177 1.379 . S
C177 H155 0.948 . S
C177 C172 1.364 . S
C177 C176 1.379 . S
C178 C147 1.383 . S
C178 C165 1.479 . S
C178 C179 1.398 . S
C179 C144 1.382 . S
C179 H156 0.951 . S
C179 C178 1.398 . S
C180 C181 1.384 . S
C180 H193 0.947 . S
C180 C215 1.382 . S
C181 C180 1.384 . S
C181 C182 1.378 . S
C182 C181 1.378 . S
C182 C183 1.378 . S
C182 H194 0.952 . S
C183 C182 1.378 . S
C183 H195 0.950 . S
C183 C214 1.383 . S
H184 C203 0.947 . S
H185 C204 0.946 . S
H186 C206 0.953 . S
H187 C207 0.945 . S
H188 C209 0.952 . S
H189 C210 0.949 . S
H190 C212 0.950 . S
H191 C213 0.948 . S
H192 C215 0.951 . S
H193 C180 0.947 . S
H194 C182 0.952 . S
H195 C183 0.950 . S
N196 C199 1.382 . S
N196 C201 1.363 . S
N197 C199 1.371 . S
N197 C200 1.372 . S
N198 C200 1.361 . S
N198 C201 1.377 . S
C199 N196 1.382 . S
C199 N197 1.371 . S
C199 C202 1.480 . S
C200 N197 1.372 . S
C200 N198 1.361 . S
C200 C208 1.457 . S
C201 N196 1.363 . S
C201 N198 1.377 . S
C201 C214 1.479 . S
C202 C199 1.480 . S
C202 C203 1.383 . S
C202 C207 1.385 . S
C203 H184 0.947 . S
C203 C202 1.383 . S
C203 C204 1.388 . S
C204 H185 0.946 . S
C204 C203 1.388 . S
C204 C205 1.384 . S
C205 C204 1.384 . S
C205 C206 1.377 . S
C206 H186 0.953 . S
C206 C205 1.377 . S
C206 C207 1.369 . S
C207 H187 0.945 . S
C207 C202 1.385 . S
C207 C206 1.369 . S
C208 C200 1.457 . S
C208 C209 1.372 . S
C208 C213 1.364 . S
C209 H188 0.952 . S
C209 C208 1.372 . S
C209 C210 1.389 . S
C210 H189 0.949 . S
C210 C209 1.389 . S
C210 C211 1.387 . S
C211 C210 1.387 . S
C211 C212 1.372 . S
C212 H190 0.950 . S
C212 C211 1.372 . S
C212 C213 1.379 . S
C213 H191 0.948 . S
C213 C208 1.364 . S
C213 C212 1.379 . S
C214 C183 1.383 . S
C214 C201 1.479 . S
C214 C215 1.398 . S
C215 C180 1.382 . S
C215 H192 0.951 . S
C215 C214 1.398 . S
C216 C217 1.384 . S
C216 H229 0.947 . S
C216 C251 1.382 . S
C217 C216 1.384 . S
C217 C218 1.378 . S
C218 C217 1.378 . S
C218 C219 1.378 . S
C218 H230 0.952 . S
C219 C218 1.378 . S
C219 H231 0.950 . S
C219 C250 1.383 . S
H220 C239 0.947 . S
H221 C240 0.946 . S
H222 C242 0.953 . S
H223 C243 0.945 . S
H224 C245 0.952 . S
H225 C246 0.949 . S
H226 C248 0.950 . S
H227 C249 0.948 . S
H228 C251 0.951 . S
H229 C216 0.947 . S
H230 C218 0.952 . S
H231 C219 0.950 . S
N232 C235 1.382 . S
N232 C237 1.363 . S
N233 C235 1.371 . S
N233 C236 1.372 . S
N234 C236 1.361 . S
N234 C237 1.377 . S
C235 N232 1.382 . S
C235 N233 1.371 . S
C235 C238 1.480 . S
C236 N233 1.372 . S
C236 N234 1.361 . S
C236 C244 1.457 . S
C237 N232 1.363 . S
C237 N234 1.377 . S
C237 C250 1.479 . S
C238 C235 1.480 . S
C238 C239 1.383 . S
C238 C243 1.385 . S
C239 H220 0.947 . S
C239 C238 1.383 . S
C239 C240 1.388 . S
C240 H221 0.946 . S
C240 C239 1.388 . S
C240 C241 1.384 . S
C241 C240 1.384 . S
C241 C242 1.377 . S
C242 H222 0.953 . S
C242 C241 1.377 . S
C242 C243 1.369 . S
C243 H223 0.945 . S
C243 C238 1.385 . S
C243 C242 1.369 . S
C244 C236 1.457 . S
C244 C245 1.372 . S
C244 C249 1.364 . S
C245 H224 0.952 . S
C245 C244 1.372 . S
C245 C246 1.389 . S
C246 H225 0.949 . S
C246 C245 1.389 . S
C246 C247 1.387 . S
C247 C246 1.387 . S
C247 C248 1.372 . S
C248 H226 0.950 . S
C248 C247 1.372 . S
C248 C249 1.379 . S
C249 H227 0.948 . S
C249 C244 1.364 . S
C249 C248 1.379 . S
C250 C219 1.383 . S
C250 C237 1.479 . S
C250 C251 1.398 . S
C251 C216 1.382 . S
C251 H228 0.951 . S
C251 C250 1.398 . S
C252 C253 1.384 . S
C252 H265 0.947 . S
C252 C287 1.382 . S
C253 C252 1.384 . S
C253 C254 1.378 . S
C254 C253 1.378 . S
C254 C255 1.378 . S
C254 H266 0.952 . S
C255 C254 1.378 . S
C255 H267 0.950 . S
C255 C286 1.383 . S
H256 C275 0.947 . S
H257 C276 0.946 . S
H258 C278 0.953 . S
H259 C279 0.945 . S
H260 C281 0.952 . S
H261 C282 0.949 . S
H262 C284 0.950 . S
H263 C285 0.948 . S
H264 C287 0.951 . S
H265 C252 0.947 . S
H266 C254 0.952 . S
H267 C255 0.950 . S
N268 C271 1.382 . S
N268 C273 1.363 . S
N269 C271 1.371 . S
N269 C272 1.372 . S
N270 C272 1.361 . S
N270 C273 1.377 . S
C271 N268 1.382 . S
C271 N269 1.371 . S
C271 C274 1.480 . S
C272 N269 1.372 . S
C272 N270 1.361 . S
C272 C280 1.457 . S
C273 N268 1.363 . S
C273 N270 1.377 . S
C273 C286 1.479 . S
C274 C271 1.480 . S
C274 C275 1.383 . S
C274 C279 1.385 . S
C275 H256 0.947 . S
C275 C274 1.383 . S
C275 C276 1.388 . S
C276 H257 0.946 . S
C276 C275 1.388 . S
C276 C277 1.384 . S
C277 C276 1.384 . S
C277 C278 1.377 . S
C278 H258 0.953 . S
C278 C277 1.377 . S
C278 C279 1.369 . S
C279 H259 0.945 . S
C279 C274 1.385 . S
C279 C278 1.369 . S
C280 C272 1.457 . S
C280 C281 1.372 . S
C280 C285 1.364 . S
C281 H260 0.952 . S
C281 C280 1.372 . S
C281 C282 1.389 . S
C282 H261 0.949 . S
C282 C281 1.389 . S
C282 C283 1.387 . S
C283 C282 1.387 . S
C283 C284 1.372 . S
C284 H262 0.950 . S
C284 C283 1.372 . S
C284 C285 1.379 . S
C285 H263 0.948 . S
C285 C280 1.364 . S
C285 C284 1.379 . S
C286 C255 1.383 . S
C286 C273 1.479 . S
C286 C287 1.398 . S
C287 C252 1.382 . S
C287 H264 0.951 . S
C287 C286 1.398 . S
C288 C289 1.384 . S
C288 H301 0.947 . S
C288 C323 1.382 . S
C289 C288 1.384 . S
C289 C290 1.378 . S
C290 C289 1.378 . S
C290 C291 1.378 . S
C290 H302 0.952 . S
C291 C290 1.378 . S
C291 H303 0.950 . S
C291 C322 1.383 . S
H292 C311 0.947 . S
H293 C312 0.946 . S
H294 C314 0.953 . S
H295 C315 0.945 . S
H296 C317 0.952 . S
H297 C318 0.949 . S
H298 C320 0.950 . S
H299 C321 0.948 . S
H300 C323 0.951 . S
H301 C288 0.947 . S
H302 C290 0.952 . S
H303 C291 0.950 . S
N304 C307 1.382 . S
N304 C309 1.363 . S
N305 C307 1.371 . S
N305 C308 1.372 . S
N306 C308 1.361 . S
N306 C309 1.377 . S
C307 N304 1.382 . S
C307 N305 1.371 . S
C307 C310 1.480 . S
C308 N305 1.372 . S
C308 N306 1.361 . S
C308 C316 1.457 . S
C309 N304 1.363 . S
C309 N306 1.377 . S
C309 C322 1.479 . S
C310 C307 1.480 . S
C310 C311 1.383 . S
C310 C315 1.385 . S
C311 H292 0.947 . S
C311 C310 1.383 . S
C311 C312 1.388 . S
C312 H293 0.946 . S
C312 C311 1.388 . S
C312 C313 1.384 . S
C313 C312 1.384 . S
C313 C314 1.377 . S
C314 H294 0.953 . S
C314 C313 1.377 . S
C314 C315 1.369 . S
C315 H295 0.945 . S
C315 C310 1.385 . S
C315 C314 1.369 . S
C316 C308 1.457 . S
C316 C317 1.372 . S
C316 C321 1.364 . S
C317 H296 0.952 . S
C317 C316 1.372 . S
C317 C318 1.389 . S
C318 H297 0.949 . S
C318 C317 1.389 . S
C318 C319 1.387 . S
C319 C318 1.387 . S
C319 C320 1.372 . S
C320 H298 0.950 . S
C320 C319 1.372 . S
C320 C321 1.379 . S
C321 H299 0.948 . S
C321 C316 1.364 . S
C321 C320 1.379 . S
C322 C291 1.383 . S
C322 C309 1.479 . S
C322 C323 1.398 . S
C323 C288 1.382 . S
C323 H300 0.951 . S
C323 C322 1.398 . S
C324 C325 1.384 . S
C324 H337 0.947 . S
C324 C359 1.382 . S
C325 C324 1.384 . S
C325 C326 1.378 . S
C326 C325 1.378 . S
C326 C327 1.378 . S
C326 H338 0.952 . S
C327 C326 1.378 . S
C327 H339 0.950 . S
C327 C358 1.383 . S
H328 C347 0.947 . S
H329 C348 0.946 . S
H330 C350 0.953 . S
H331 C351 0.945 . S
H332 C353 0.952 . S
H333 C354 0.949 . S
H334 C356 0.950 . S
H335 C357 0.948 . S
H336 C359 0.951 . S
H337 C324 0.947 . S
H338 C326 0.952 . S
H339 C327 0.950 . S
N340 C343 1.382 . S
N340 C345 1.363 . S
N341 C343 1.371 . S
N341 C344 1.372 . S
N342 C344 1.361 . S
N342 C345 1.377 . S
C343 N340 1.382 . S
C343 N341 1.371 . S
C343 C346 1.480 . S
C344 N341 1.372 . S
C344 N342 1.361 . S
C344 C352 1.457 . S
C345 N340 1.363 . S
C345 N342 1.377 . S
C345 C358 1.479 . S
C346 C343 1.480 . S
C346 C347 1.383 . S
C346 C351 1.385 . S
C347 H328 0.947 . S
C347 C346 1.383 . S
C347 C348 1.388 . S
C348 H329 0.946 . S
C348 C347 1.388 . S
C348 C349 1.384 . S
C349 C348 1.384 . S
C349 C350 1.377 . S
C350 H330 0.953 . S
C350 C349 1.377 . S
C350 C351 1.369 . S
C351 H331 0.945 . S
C351 C346 1.385 . S
C351 C350 1.369 . S
C352 C344 1.457 . S
C352 C353 1.372 . S
C352 C357 1.364 . S
C353 H332 0.952 . S
C353 C352 1.372 . S
C353 C354 1.389 . S
C354 H333 0.949 . S
C354 C353 1.389 . S
C354 C355 1.387 . S
C355 C354 1.387 . S
C355 C356 1.372 . S
C356 H334 0.950 . S
C356 C355 1.372 . S
C356 C357 1.379 . S
C357 H335 0.948 . S
C357 C352 1.364 . S
C357 C356 1.379 . S
C358 C327 1.383 . S
C358 C345 1.479 . S
C358 C359 1.398 . S
C359 C324 1.382 . S
C359 H336 0.951 . S
C359 C358 1.398 . S
C360 C361 1.384 . S
C360 H373 0.947 . S
C360 C395 1.382 . S
C361 C360 1.384 . S
C361 C362 1.378 . S
C362 C361 1.378 . S
C362 C363 1.378 . S
C362 H374 0.952 . S
C363 C362 1.378 . S
C363 H375 0.950 . S
C363 C394 1.383 . S
H364 C383 0.947 . S
H365 C384 0.946 . S
H366 C386 0.953 . S
H367 C387 0.945 . S
H368 C389 0.952 . S
H369 C390 0.949 . S
H370 C392 0.950 . S
H371 C393 0.948 . S
H372 C395 0.951 . S
H373 C360 0.947 . S
H374 C362 0.952 . S
H375 C363 0.950 . S
N376 C379 1.382 . S
N376 C381 1.363 . S
N377 C379 1.371 . S
N377 C380 1.372 . S
N378 C380 1.361 . S
N378 C381 1.377 . S
C379 N376 1.382 . S
C379 N377 1.371 . S
C379 C382 1.480 . S
C380 N377 1.372 . S
C380 N378 1.361 . S
C380 C388 1.457 . S
C381 N376 1.363 . S
C381 N378 1.377 . S
C381 C394 1.479 . S
C382 C379 1.480 . S
C382 C383 1.383 . S
C382 C387 1.385 . S
C383 H364 0.947 . S
C383 C382 1.383 . S
C383 C384 1.388 . S
C384 H365 0.946 . S
C384 C383 1.388 . S
C384 C385 1.384 . S
C385 C384 1.384 . S
C385 C386 1.377 . S
C386 H366 0.953 . S
C386 C385 1.377 . S
C386 C387 1.369 . S
C387 H367 0.945 . S
C387 C382 1.385 . S
C387 C386 1.369 . S
C388 C380 1.457 . S
C388 C389 1.372 . S
C388 C393 1.364 . S
C389 H368 0.952 . S
C389 C388 1.372 . S
C389 C390 1.389 . S
C390 H369 0.949 . S
C390 C389 1.389 . S
C390 C391 1.387 . S
C391 C390 1.387 . S
C391 C392 1.372 . S
C392 H370 0.950 . S
C392 C391 1.372 . S
C392 C393 1.379 . S
C393 H371 0.948 . S
C393 C388 1.364 . S
C393 C392 1.379 . S
C394 C363 1.383 . S
C394 C381 1.479 . S
C394 C395 1.398 . S
C395 C360 1.382 . S
C395 H372 0.951 . S
C395 C394 1.398 . S
C396 C397 1.384 . S
C396 H409 0.947 . S
C396 C431 1.382 . S
C397 C396 1.384 . S
C397 C398 1.378 . S
C398 C397 1.378 . S
C398 C399 1.378 . S
C398 H410 0.952 . S
C399 C398 1.378 . S
C399 H411 0.950 . S
C399 C430 1.383 . S
H400 C419 0.947 . S
H401 C420 0.946 . S
H402 C422 0.953 . S
H403 C423 0.945 . S
H404 C425 0.952 . S
H405 C426 0.949 . S
H406 C428 0.950 . S
H407 C429 0.948 . S
H408 C431 0.951 . S
H409 C396 0.947 . S
H410 C398 0.952 . S
H411 C399 0.950 . S
N412 C415 1.382 . S
N412 C417 1.363 . S
N413 C415 1.371 . S
N413 C416 1.372 . S
N414 C416 1.361 . S
N414 C417 1.377 . S
C415 N412 1.382 . S
C415 N413 1.371 . S
C415 C418 1.480 . S
C416 N413 1.372 . S
C416 N414 1.361 . S
C416 C424 1.457 . S
C417 N412 1.363 . S
C417 N414 1.377 . S
C417 C430 1.479 . S
C418 C415 1.480 . S
C418 C419 1.383 . S
C418 C423 1.385 . S
C419 H400 0.947 . S
C419 C418 1.383 . S
C419 C420 1.388 . S
C420 H401 0.946 . S
C420 C419 1.388 . S
C420 C421 1.384 . S
C421 C420 1.384 . S
C421 C422 1.377 . S
C422 H402 0.953 . S
C422 C421 1.377 . S
C422 C423 1.369 . S
C423 H403 0.945 . S
C423 C418 1.385 . S
C423 C422 1.369 . S
C424 C416 1.457 . S
C424 C425 1.372 . S
C424 C429 1.364 . S
C425 H404 0.952 . S
C425 C424 1.372 . S
C425 C426 1.389 . S
C426 H405 0.949 . S
C426 C425 1.389 . S
C426 C427 1.387 . S
C427 C426 1.387 . S
C427 C428 1.372 . S
C428 H406 0.950 . S
C428 C427 1.372 . S
C428 C429 1.379 . S
C429 H407 0.948 . S
C429 C424 1.364 . S
C429 C428 1.379 . S
C430 C399 1.383 . S
C430 C417 1.479 . S
C430 C431 1.398 . S
C431 C396 1.382 . S
C431 H408 0.951 . S
C431 C430 1.398 . S
C432 C433 1.384 . S
C432 H445 0.947 . S
C432 C467 1.382 . S
C433 C432 1.384 . S
C433 C434 1.378 . S
C434 C433 1.378 . S
C434 C435 1.378 . S
C434 H446 0.952 . S
C435 C434 1.378 . S
C435 H447 0.950 . S
C435 C466 1.383 . S
H436 C455 0.947 . S
H437 C456 0.946 . S
H438 C458 0.953 . S
H439 C459 0.945 . S
H440 C461 0.952 . S
H441 C462 0.949 . S
H442 C464 0.950 . S
H443 C465 0.948 . S
H444 C467 0.951 . S
H445 C432 0.947 . S
H446 C434 0.952 . S
H447 C435 0.950 . S
N448 C451 1.382 . S
N448 C453 1.363 . S
N449 C451 1.371 . S
N449 C452 1.372 . S
N450 C452 1.361 . S
N450 C453 1.377 . S
C451 N448 1.382 . S
C451 N449 1.371 . S
C451 C454 1.480 . S
C452 N449 1.372 . S
C452 N450 1.361 . S
C452 C460 1.457 . S
C453 N448 1.363 . S
C453 N450 1.377 . S
C453 C466 1.479 . S
C454 C451 1.480 . S
C454 C455 1.383 . S
C454 C459 1.385 . S
C455 H436 0.947 . S
C455 C454 1.383 . S
C455 C456 1.388 . S
C456 H437 0.946 . S
C456 C455 1.388 . S
C456 C457 1.384 . S
C457 C456 1.384 . S
C457 C458 1.377 . S
C458 H438 0.953 . S
C458 C457 1.377 . S
C458 C459 1.369 . S
C459 H439 0.945 . S
C459 C454 1.385 . S
C459 C458 1.369 . S
C460 C452 1.457 . S
C460 C461 1.372 . S
C460 C465 1.364 . S
C461 H440 0.952 . S
C461 C460 1.372 . S
C461 C462 1.389 . S
C462 H441 0.949 . S
C462 C461 1.389 . S
C462 C463 1.387 . S
C463 C462 1.387 . S
C463 C464 1.372 . S
C464 H442 0.950 . S
C464 C463 1.372 . S
C464 C465 1.379 . S
C465 H443 0.948 . S
C465 C460 1.364 . S
C465 C464 1.379 . S
C466 C435 1.383 . S
C466 C453 1.479 . S
C466 C467 1.398 . S
C467 C432 1.382 . S
C467 H444 0.951 . S
C467 C466 1.398 . S
C468 C469 1.384 . S
C468 H481 0.947 . S
C468 C503 1.382 . S
C469 C468 1.384 . S
C469 C470 1.378 . S
C470 C469 1.378 . S
C470 C471 1.378 . S
C470 H482 0.952 . S
C471 C470 1.378 . S
C471 H483 0.950 . S
C471 C502 1.383 . S
H472 C491 0.947 . S
H473 C492 0.946 . S
H474 C494 0.953 . S
H475 C495 0.945 . S
H476 C497 0.952 . S
H477 C498 0.949 . S
H478 C500 0.950 . S
H479 C501 0.948 . S
H480 C503 0.951 . S
H481 C468 0.947 . S
H482 C470 0.952 . S
H483 C471 0.950 . S
N484 C487 1.382 . S
N484 C489 1.363 . S
N485 C487 1.371 . S
N485 C488 1.372 . S
N486 C488 1.361 . S
N486 C489 1.377 . S
C487 N484 1.382 . S
C487 N485 1.371 . S
C487 C490 1.480 . S
C488 N485 1.372 . S
C488 N486 1.361 . S
C488 C496 1.457 . S
C489 N484 1.363 . S
C489 N486 1.377 . S
C489 C502 1.479 . S
C490 C487 1.480 . S
C490 C491 1.383 . S
C490 C495 1.385 . S
C491 H472 0.947 . S
C491 C490 1.383 . S
C491 C492 1.388 . S
C492 H473 0.946 . S
C492 C491 1.388 . S
C492 C493 1.384 . S
C493 C492 1.384 . S
C493 C494 1.377 . S
C494 H474 0.953 . S
C494 C493 1.377 . S
C494 C495 1.369 . S
C495 H475 0.945 . S
C495 C490 1.385 . S
C495 C494 1.369 . S
C496 C488 1.457 . S
C496 C497 1.372 . S
C496 C501 1.364 . S
C497 H476 0.952 . S
C497 C496 1.372 . S
C497 C498 1.389 . S
C498 H477 0.949 . S
C498 C497 1.389 . S
C498 C499 1.387 . S
C499 C498 1.387 . S
C499 C500 1.372 . S
C500 H478 0.950 . S
C500 C499 1.372 . S
C500 C501 1.379 . S
C501 H479 0.948 . S
C501 C496 1.364 . S
C501 C500 1.379 . S
C502 C471 1.383 . S
C502 C489 1.479 . S
C502 C503 1.398 . S
C503 C468 1.382 . S
C503 H480 0.951 . S
C503 C502 1.398 . S
C504 C505 1.384 . S
C504 H517 0.947 . S
C504 C539 1.382 . S
C505 C504 1.384 . S
C505 C506 1.378 . S
C506 C505 1.378 . S
C506 C507 1.378 . S
C506 H518 0.952 . S
C507 C506 1.378 . S
C507 H519 0.950 . S
C507 C538 1.383 . S
H508 C527 0.947 . S
H509 C528 0.946 . S
H510 C530 0.953 . S
H511 C531 0.945 . S
H512 C533 0.952 . S
H513 C534 0.949 . S
H514 C536 0.950 . S
H515 C537 0.948 . S
H516 C539 0.951 . S
H517 C504 0.947 . S
H518 C506 0.952 . S
H519 C507 0.950 . S
N520 C523 1.382 . S
N520 C525 1.363 . S
N521 C523 1.371 . S
N521 C524 1.372 . S
N522 C524 1.361 . S
N522 C525 1.377 . S
C523 N520 1.382 . S
C523 N521 1.371 . S
C523 C526 1.480 . S
C524 N521 1.372 . S
C524 N522 1.361 . S
C524 C532 1.457 . S
C525 N520 1.363 . S
C525 N522 1.377 . S
C525 C538 1.479 . S
C526 C523 1.480 . S
C526 C527 1.383 . S
C526 C531 1.385 . S
C527 H508 0.947 . S
C527 C526 1.383 . S
C527 C528 1.388 . S
C528 H509 0.946 . S
C528 C527 1.388 . S
C528 C529 1.384 . S
C529 C528 1.384 . S
C529 C530 1.377 . S
C530 H510 0.953 . S
C530 C529 1.377 . S
C530 C531 1.369 . S
C531 H511 0.945 . S
C531 C526 1.385 . S
C531 C530 1.369 . S
C532 C524 1.457 . S
C532 C533 1.372 . S
C532 C537 1.364 . S
C533 H512 0.952 . S
C533 C532 1.372 . S
C533 C534 1.389 . S
C534 H513 0.949 . S
C534 C533 1.389 . S
C534 C535 1.387 . S
C535 C534 1.387 . S
C535 C536 1.372 . S
C536 H514 0.950 . S
C536 C535 1.372 . S
C536 C537 1.379 . S
C537 H515 0.948 . S
C537 C532 1.364 . S
C537 C536 1.379 . S
C538 C507 1.383 . S
C538 C525 1.479 . S
C538 C539 1.398 . S
C539 C504 1.382 . S
C539 H516 0.951 . S
C539 C538 1.398 . S
C540 C541 1.384 . S
C540 H553 0.947 . S
C540 C575 1.382 . S
C541 C540 1.384 . S
C541 C542 1.378 . S
C542 C541 1.378 . S
C542 C543 1.378 . S
C542 H554 0.952 . S
C543 C542 1.378 . S
C543 H555 0.950 . S
C543 C574 1.383 . S
H544 C563 0.947 . S
H545 C564 0.946 . S
H546 C566 0.953 . S
H547 C567 0.945 . S
H548 C569 0.952 . S
H549 C570 0.949 . S
H550 C572 0.950 . S
H551 C573 0.948 . S
H552 C575 0.951 . S
H553 C540 0.947 . S
H554 C542 0.952 . S
H555 C543 0.950 . S
N556 C559 1.382 . S
N556 C561 1.363 . S
N557 C559 1.371 . S
N557 C560 1.372 . S
N558 C560 1.361 . S
N558 C561 1.377 . S
C559 N556 1.382 . S
C559 N557 1.371 . S
C559 C562 1.480 . S
C560 N557 1.372 . S
C560 N558 1.361 . S
C560 C568 1.457 . S
C561 N556 1.363 . S
C561 N558 1.377 . S
C561 C574 1.479 . S
C562 C559 1.480 . S
C562 C563 1.383 . S
C562 C567 1.385 . S
C563 H544 0.947 . S
C563 C562 1.383 . S
C563 C564 1.388 . S
C564 H545 0.946 . S
C564 C563 1.388 . S
C564 C565 1.384 . S
C565 C564 1.384 . S
C565 C566 1.377 . S
C566 H546 0.953 . S
C566 C565 1.377 . S
C566 C567 1.369 . S
C567 H547 0.945 . S
C567 C562 1.385 . S
C567 C566 1.369 . S
C568 C560 1.457 . S
C568 C569 1.372 . S
C568 C573 1.364 . S
C569 H548 0.952 . S
C569 C568 1.372 . S
C569 C570 1.389 . S
C570 H549 0.949 . S
C570 C569 1.389 . S
C570 C571 1.387 . S
C571 C570 1.387 . S
C571 C572 1.372 . S
C572 H550 0.950 . S
C572 C571 1.372 . S
C572 C573 1.379 . S
C573 H551 0.948 . S
C573 C568 1.364 . S
C573 C572 1.379 . S
C574 C543 1.383 . S
C574 C561 1.479 . S
C574 C575 1.398 . S
C575 C540 1.382 . S
C575 H552 0.951 . S
C575 C574 1.398 . S
C576 C577 1.384 . S
C576 H589 0.947 . S
C576 C611 1.382 . S
C577 C576 1.384 . S
C577 C578 1.378 . S
C578 C577 1.378 . S
C578 C579 1.378 . S
C578 H590 0.952 . S
C579 C578 1.378 . S
C579 H591 0.950 . S
C579 C610 1.383 . S
H580 C599 0.947 . S
H581 C600 0.946 . S
H582 C602 0.953 . S
H583 C603 0.945 . S
H584 C605 0.952 . S
H585 C606 0.949 . S
H586 C608 0.950 . S
H587 C609 0.948 . S
H588 C611 0.951 . S
H589 C576 0.947 . S
H590 C578 0.952 . S
H591 C579 0.950 . S
N592 C595 1.382 . S
N592 C597 1.363 . S
N593 C595 1.371 . S
N593 C596 1.372 . S
N594 C596 1.361 . S
N594 C597 1.377 . S
C595 N592 1.382 . S
C595 N593 1.371 . S
C595 C598 1.480 . S
C596 N593 1.372 . S
C596 N594 1.361 . S
C596 C604 1.457 . S
C597 N592 1.363 . S
C597 N594 1.377 . S
C597 C610 1.479 . S
C598 C595 1.480 . S
C598 C599 1.383 . S
C598 C603 1.385 . S
C599 H580 0.947 . S
C599 C598 1.383 . S
C599 C600 1.388 . S
C600 H581 0.946 . S
C600 C599 1.388 . S
C600 C601 1.384 . S
C601 C600 1.384 . S
C601 C602 1.377 . S
C602 H582 0.953 . S
C602 C601 1.377 . S
C602 C603 1.369 . S
C603 H583 0.945 . S
C603 C598 1.385 . S
C603 C602 1.369 . S
C604 C596 1.457 . S
C604 C605 1.372 . S
C604 C609 1.364 . S
C605 H584 0.952 . S
C605 C604 1.372 . S
C605 C606 1.389 . S
C606 H585 0.949 . S
C606 C605 1.389 . S
C606 C607 1.387 . S
C607 C606 1.387 . S
C607 C608 1.372 . S
C608 H586 0.950 . S
C608 C607 1.372 . S
C608 C609 1.379 . S
C609 H587 0.948 . S
C609 C604 1.364 . S
C609 C608 1.379 . S
C610 C579 1.383 . S
C610 C597 1.479 . S
C610 C611 1.398 . S
C611 C576 1.382 . S
C611 H588 0.951 . S
C611 C610 1.398 . S
C612 C613 1.384 . S
C612 H625 0.947 . S
C612 C647 1.382 . S
C613 C612 1.384 . S
C613 C614 1.378 . S
C614 C613 1.378 . S
C614 C615 1.378 . S
C614 H626 0.952 . S
C615 C614 1.378 . S
C615 H627 0.950 . S
C615 C646 1.383 . S
H616 C635 0.947 . S
H617 C636 0.946 . S
H618 C638 0.953 . S
H619 C639 0.945 . S
H620 C641 0.952 . S
H621 C642 0.949 . S
H622 C644 0.950 . S
H623 C645 0.948 . S
H624 C647 0.951 . S
H625 C612 0.947 . S
H626 C614 0.952 . S
H627 C615 0.950 . S
N628 C631 1.382 . S
N628 C633 1.363 . S
N629 C631 1.371 . S
N629 C632 1.372 . S
N630 C632 1.361 . S
N630 C633 1.377 . S
C631 N628 1.382 . S
C631 N629 1.371 . S
C631 C634 1.480 . S
C632 N629 1.372 . S
C632 N630 1.361 . S
C632 C640 1.457 . S
C633 N628 1.363 . S
C633 N630 1.377 . S
C633 C646 1.479 . S
C634 C631 1.480 . S
C634 C635 1.383 . S
C634 C639 1.385 . S
C635 H616 0.947 . S
C635 C634 1.383 . S
C635 C636 1.388 . S
C636 H617 0.946 . S
C636 C635 1.388 . S
C636 C637 1.384 . S
C637 C636 1.384 . S
C637 C638 1.377 . S
C638 H618 0.953 . S
C638 C637 1.377 . S
C638 C639 1.369 . S
C639 H619 0.945 . S
C639 C634 1.385 . S
C639 C638 1.369 . S
C640 C632 1.457 . S
C640 C641 1.372 . S
C640 C645 1.364 . S
C641 H620 0.952 . S
C641 C640 1.372 . S
C641 C642 1.389 . S
C642 H621 0.949 . S
C642 C641 1.389 . S
C642 C643 1.387 . S
C643 C642 1.387 . S
C643 C644 1.372 . S
C644 H622 0.950 . S
C644 C643 1.372 . S
C644 C645 1.379 . S
C645 H623 0.948 . S
C645 C640 1.364 . S
C645 C644 1.379 . S
C646 C615 1.383 . S
C646 C633 1.479 . S
C646 C647 1.398 . S
C647 C612 1.382 . S
C647 H624 0.951 . S
C647 C646 1.398 . S
C648 Eu649 2.835 . S
C648 C650 1.500 . S
C648 O668 1.257 1_545 S
C648 O669 1.260 . S
Eu649 C648 2.835 . S
Eu649 O668 2.473 1_545 S
Eu649 O669 2.480 . S
Eu649 O670 2.430 . S
Eu649 O671 2.670 1_554 S
Eu649 O672 2.394 1_545 S
Eu649 O677 2.355 1_545 S
Eu649 O679 2.374 . S
C650 C648 1.500 . S
C650 C651 1.377 . S
C650 C655 1.377 1_545 S
C651 C650 1.377 . S
C651 C652 1.395 . S
C651 H680 0.931 . S
C652 C651 1.395 . S
C652 C653 1.383 1_545 S
C652 H681 0.931 . S
C653 C652 1.383 1_565 S
C653 C654 1.394 . S
C654 C653 1.394 . S
C654 C655 1.378 . S
C654 H682 0.931 . S
C655 C650 1.377 1_565 S
C655 C654 1.378 . S
C655 H683 0.931 . S
C656 O670 1.218 1_556 S
C656 O671 1.286 . S
C657 O672 1.251 . S
C657 O673 1.251 1_554 S
C658 Eu659 2.835 . S
C658 C660 1.500 . S
C658 O674 1.257 1_565 S
C658 O675 1.260 . S
Eu659 C658 2.835 . S
Eu659 O671 2.355 1_565 S
Eu659 O673 2.374 . S
Eu659 O674 2.473 1_565 S
Eu659 O675 2.480 . S
Eu659 O676 2.430 . S
Eu659 O677 2.670 1_556 S
Eu659 O678 2.394 1_565 S
C660 C658 1.500 . S
C660 C661 1.377 . S
C660 C665 1.377 1_565 S
C661 C660 1.377 . S
C661 C662 1.395 . S
C661 H684 0.931 . S
C662 C661 1.395 . S
C662 C663 1.383 1_565 S
C662 H685 0.931 . S
C663 C662 1.383 1_545 S
C663 C664 1.394 . S
C664 C663 1.394 . S
C664 C665 1.378 . S
C664 H686 0.931 . S
C665 C660 1.377 1_545 S
C665 C664 1.378 . S
C665 H687 0.931 . S
C666 O676 1.259 1_554 S
C666 O677 1.270 . S
C667 O678 1.251 . S
C667 O679 1.251 1_556 S
O668 C648 1.257 1_565 S
O668 Eu649 2.473 1_565 S
O669 C648 1.260 . S
O669 Eu649 2.480 . S
O670 Eu649 2.430 . S
O670 C656 1.218 1_554 S
O671 Eu649 2.670 1_556 S
O671 C656 1.286 . S
O671 Eu659 2.355 1_545 S
O672 Eu649 2.394 1_565 S
O672 C657 1.251 . S
O673 C657 1.251 1_556 S
O673 Eu659 2.374 . S
O674 C658 1.257 1_545 S
O674 Eu659 2.473 1_545 S
O675 C658 1.260 . S
O675 Eu659 2.480 . S
O676 Eu659 2.430 . S
O676 C666 1.259 1_556 S
O677 Eu649 2.355 1_565 S
O677 Eu659 2.670 1_554 S
O677 C666 1.270 . S
O678 Eu659 2.394 1_545 S
O678 C667 1.251 . S
O679 Eu649 2.374 . S
O679 C667 1.251 1_554 S
H680 C651 0.931 . S
H681 C652 0.931 . S
H682 C654 0.931 . S
H683 C655 0.931 . S
H684 C661 0.931 . S
H685 C662 0.931 . S
H686 C664 0.931 . S
H687 C665 0.931 . S
C688 Eu689 2.835 . S
C688 C690 1.500 1_655 S
C688 O708 1.257 1_655 S
C688 O709 1.260 . S
Eu689 C688 2.835 . S
Eu689 O708 2.473 1_655 S
Eu689 O709 2.480 . S
Eu689 O710 2.430 . S
Eu689 O711 2.670 1_554 S
Eu689 O712 2.394 1_655 S
Eu689 O717 2.355 1_655 S
Eu689 O719 2.374 . S
C690 C688 1.500 1_455 S
C690 C691 1.377 1_455 S
C690 C695 1.377 . S
C691 C690 1.377 1_655 S
C691 C692 1.395 . S
C691 H720 0.931 . S
C692 C691 1.395 . S
C692 C693 1.383 1_655 S
C692 H721 0.931 . S
C693 C692 1.383 1_455 S
C693 C694 1.394 . S
C694 C693 1.394 . S
C694 C695 1.378 . S
C694 H722 0.931 . S
C695 C690 1.377 . S
C695 C694 1.378 . S
C695 H723 0.931 . S
C696 O710 1.259 1_556 S
C696 O711 1.270 . S
C697 O712 1.251 . S
C697 O713 1.251 . S
C698 Eu699 2.835 . S
C698 C700 1.500 1_455 S
C698 O714 1.257 1_455 S
C698 O715 1.260 . S
Eu699 C698 2.835 . S
Eu699 O711 2.355 1_455 S
Eu699 O713 2.374 1_556 S
Eu699 O714 2.473 1_455 S
Eu699 O715 2.480 . S
Eu699 O716 2.430 . S
Eu699 O717 2.670 1_556 S
Eu699 O718 2.394 1_455 S
C700 C698 1.500 1_655 S
C700 C701 1.377 1_655 S
C700 C705 1.377 . S
C701 C700 1.377 1_455 S
C701 C702 1.395 . S
C701 H724 0.931 . S
C702 C701 1.395 . S
C702 C703 1.383 1_455 S
C702 H725 0.931 . S
C703 C702 1.383 1_655 S
C703 C704 1.394 . S
C704 C703 1.394 . S
C704 C705 1.378 . S
C704 H726 0.931 . S
C705 C700 1.377 . S
C705 C704 1.378 . S
C705 H727 0.931 . S
C706 O716 1.259 1_554 S
C706 O717 1.270 . S
C707 O718 1.251 . S
C707 O719 1.251 1_556 S
O708 C688 1.257 1_455 S
O708 Eu689 2.473 1_455 S
O709 C688 1.260 . S
O709 Eu689 2.480 . S
O710 Eu689 2.430 . S
O710 C696 1.259 1_554 S
O711 Eu689 2.670 1_556 S
O711 C696 1.270 . S
O711 Eu699 2.355 1_655 S
O712 Eu689 2.394 1_455 S
O712 C697 1.251 . S
O713 C697 1.251 . S
O713 Eu699 2.374 1_554 S
O714 C698 1.257 1_655 S
O714 Eu699 2.473 1_655 S
O715 C698 1.260 . S
O715 Eu699 2.480 . S
O716 Eu699 2.430 . S
O716 C706 1.259 1_556 S
O717 Eu689 2.355 1_455 S
O717 Eu699 2.670 1_554 S
O717 C706 1.270 . S
O718 Eu699 2.394 1_655 S
O718 C707 1.251 . S
O719 Eu689 2.374 . S
O719 C707 1.251 1_554 S
H720 C691 0.931 . S
H721 C692 0.931 . S
H722 C694 0.931 . S
H723 C695 0.931 . S
H724 C701 0.931 . S
H725 C702 0.931 . S
H726 C704 0.931 . S
H727 C705 0.931 . S
C728 Eu729 2.835 . S
C728 C730 1.500 . S
C728 O748 1.257 . S
C728 O749 1.260 . S
Eu729 C728 2.835 . S
Eu729 O748 2.473 . S
Eu729 O749 2.480 . S
Eu729 O750 2.430 . S
Eu729 O751 2.670 1_556 S
Eu729 O752 2.394 . S
Eu729 O757 2.355 . S
Eu729 O759 2.378 1_556 S
C730 C728 1.500 . S
C730 C731 1.377 . S
C730 C735 1.377 . S
C731 C730 1.377 . S
C731 C732 1.395 . S
C731 H760 0.931 . S
C732 C731 1.395 . S
C732 C733 1.383 . S
C732 H761 0.931 . S
C733 C732 1.383 . S
C733 C734 1.394 . S
C734 C733 1.394 . S
C734 C735 1.378 . S
C734 H762 0.931 . S
C735 C730 1.377 . S
C735 C734 1.378 . S
C735 H763 0.931 . S
C736 O750 1.259 1_554 S
C736 O751 1.270 . S
C737 O752 1.251 . S
C737 O753 1.251 1_556 S
C738 Eu739 2.835 . S
C738 C740 1.500 . S
C738 O754 1.257 . S
C738 O755 1.260 . S
Eu739 C738 2.835 . S
Eu739 O751 2.355 . S
Eu739 O753 2.374 . S
Eu739 O754 2.473 . S
Eu739 O755 2.480 . S
Eu739 O756 2.430 . S
Eu739 O757 2.670 1_554 S
Eu739 O758 2.394 . S
C740 C738 1.500 . S
C740 C741 1.377 . S
C740 C745 1.377 . S
C741 C740 1.377 . S
C741 C742 1.395 . S
C741 H764 0.931 . S
C742 C741 1.395 . S
C742 C743 1.383 . S
C742 H765 0.931 . S
C743 C742 1.383 . S
C743 C744 1.394 . S
C744 C743 1.394 . S
C744 C745 1.378 . S
C744 H766 0.931 . S
C745 C740 1.377 . S
C745 C744 1.378 . S
C745 H767 0.931 . S
C746 O756 1.259 1_556 S
C746 O757 1.270 . S
C747 O758 1.251 . S
C747 O759 1.246 . S
O748 C728 1.257 . S
O748 Eu729 2.473 . S
O749 C728 1.260 . S
O749 Eu729 2.480 . S
O750 Eu729 2.430 . S
O750 C736 1.259 1_556 S
O751 Eu729 2.670 1_554 S
O751 C736 1.270 . S
O751 Eu739 2.355 . S
O752 Eu729 2.394 . S
O752 C737 1.251 . S
O753 C737 1.251 1_554 S
O753 Eu739 2.374 . S
O754 C738 1.257 . S
O754 Eu739 2.473 . S
O755 C738 1.260 . S
O755 Eu739 2.480 . S
O756 Eu739 2.430 . S
O756 C746 1.259 1_554 S
O757 Eu729 2.355 . S
O757 Eu739 2.670 1_556 S
O757 C746 1.270 . S
O758 Eu739 2.394 . S
O758 C747 1.251 . S
O759 Eu729 2.378 1_554 S
O759 C747 1.246 . S
H760 C731 0.931 . S
H761 C732 0.931 . S
H762 C734 0.931 . S
H763 C735 0.931 . S
H764 C741 0.931 . S
H765 C742 0.931 . S
H766 C744 0.931 . S
H767 C745 0.931 . S
C768 Eu769 2.835 . S
C768 C770 1.500 . S
C768 O788 1.257 . S
C768 O789 1.260 . S
Eu769 C768 2.835 . S
Eu769 O788 2.473 . S
Eu769 O789 2.480 . S
Eu769 O790 2.430 . S
Eu769 O791 2.670 . S
Eu769 O792 2.394 . S
Eu769 O797 2.355 . S
Eu769 O799 2.374 . S
C770 C768 1.500 . S
C770 C771 1.377 . S
C770 C775 1.377 . S
C771 C770 1.377 . S
C771 C772 1.395 . S
C771 H800 0.931 . S
C772 C771 1.395 . S
C772 C773 1.383 . S
C772 H801 0.931 . S
C773 C772 1.383 . S
C773 C774 1.394 . S
C774 C773 1.394 . S
C774 C775 1.378 . S
C774 H802 0.931 . S
C775 C770 1.377 . S
C775 C774 1.378 . S
C775 H803 0.931 . S
C776 O790 1.259 . S
C776 O791 1.270 . S
C777 O792 1.251 . S
C777 O793 1.251 . S
C778 Eu779 2.835 . S
C778 C780 1.500 . S
C778 O794 1.257 . S
C778 O795 1.260 . S
Eu779 C778 2.835 . S
Eu779 O791 2.355 . S
Eu779 O793 2.374 . S
Eu779 O794 2.473 . S
Eu779 O795 2.480 . S
Eu779 O796 2.430 . S
Eu779 O797 2.670 . S
Eu779 O798 2.394 . S
C780 C778 1.500 . S
C780 C781 1.377 . S
C780 C785 1.377 . S
C781 C780 1.377 . S
C781 C782 1.395 . S
C781 H804 0.931 . S
C782 C781 1.395 . S
C782 C783 1.383 . S
C782 H805 0.931 . S
C783 C782 1.383 . S
C783 C784 1.394 . S
C784 C783 1.394 . S
C784 C785 1.378 . S
C784 H806 0.931 . S
C785 C780 1.377 . S
C785 C784 1.378 . S
C785 H807 0.931 . S
C786 O796 1.259 . S
C786 O797 1.270 . S
C787 O798 1.251 . S
C787 O799 1.251 . S
O788 C768 1.257 . S
O788 Eu769 2.473 . S
O789 C768 1.260 . S
O789 Eu769 2.480 . S
O790 Eu769 2.430 . S
O790 C776 1.259 . S
O791 Eu769 2.670 . S
O791 C776 1.270 . S
O791 Eu779 2.355 . S
O792 Eu769 2.394 . S
O792 C777 1.251 . S
O793 C777 1.251 . S
O793 Eu779 2.374 . S
O794 C778 1.257 . S
O794 Eu779 2.473 . S
O795 C778 1.260 . S
O795 Eu779 2.480 . S
O796 Eu779 2.430 . S
O796 C786 1.259 . S
O797 Eu769 2.355 . S
O797 Eu779 2.670 . S
O797 C786 1.270 . S
O798 Eu779 2.394 . S
O798 C787 1.251 . S
O799 Eu769 2.374 . S
O799 C787 1.251 . S
H800 C771 0.931 . S
H801 C772 0.931 . S
H802 C774 0.931 . S
H803 C775 0.931 . S
H804 C781 0.931 . S
H805 C782 0.931 . S
H806 C784 0.931 . S
H807 C785 0.931 . S
C808 Eu809 2.835 . S
C808 C810 1.500 . S
C808 O828 1.257 . S
C808 O829 1.260 . S
Eu809 C808 2.835 . S
Eu809 O828 2.473 . S
Eu809 O829 2.480 . S
Eu809 O830 2.430 . S
Eu809 O831 2.670 . S
Eu809 O832 2.394 . S
Eu809 O837 2.355 . S
Eu809 O839 2.374 . S
C810 C808 1.500 . S
C810 C811 1.377 . S
C810 C815 1.377 . S
C811 C810 1.377 . S
C811 C812 1.395 . S
C811 H840 0.931 . S
C812 C811 1.395 . S
C812 C813 1.383 . S
C812 H841 0.931 . S
C813 C812 1.383 . S
C813 C814 1.394 . S
C814 C813 1.394 . S
C814 C815 1.378 . S
C814 H842 0.931 . S
C815 C810 1.377 . S
C815 C814 1.378 . S
C815 H843 0.931 . S
C816 O830 1.259 . S
C816 O831 1.270 . S
C817 O832 1.251 . S
C817 O833 1.251 . S
C818 Eu819 2.835 . S
C818 C820 1.500 . S
C818 O834 1.257 . S
C818 O835 1.260 . S
Eu819 C818 2.835 . S
Eu819 O831 2.355 . S
Eu819 O833 2.374 . S
Eu819 O834 2.473 . S
Eu819 O835 2.480 . S
Eu819 O836 2.430 . S
Eu819 O837 2.670 . S
Eu819 O838 2.394 . S
C820 C818 1.500 . S
C820 C821 1.377 . S
C820 C825 1.377 . S
C821 C820 1.377 . S
C821 C822 1.395 . S
C821 H844 0.931 . S
C822 C821 1.395 . S
C822 C823 1.383 . S
C822 H845 0.931 . S
C823 C822 1.383 . S
C823 C824 1.394 . S
C824 C823 1.394 . S
C824 C825 1.378 . S
C824 H846 0.931 . S
C825 C820 1.377 . S
C825 C824 1.378 . S
C825 H847 0.931 . S
C826 O836 1.259 . S
C826 O837 1.270 . S
C827 O838 1.251 . S
C827 O839 1.251 . S
O828 C808 1.257 . S
O828 Eu809 2.473 . S
O829 C808 1.260 . S
O829 Eu809 2.480 . S
O830 Eu809 2.430 . S
O830 C816 1.259 . S
O831 Eu809 2.670 . S
O831 C816 1.270 . S
O831 Eu819 2.355 . S
O832 Eu809 2.394 . S
O832 C817 1.251 . S
O833 C817 1.251 . S
O833 Eu819 2.374 . S
O834 C818 1.257 . S
O834 Eu819 2.473 . S
O835 C818 1.260 . S
O835 Eu819 2.480 . S
O836 Eu819 2.430 . S
O836 C826 1.259 . S
O837 Eu809 2.355 . S
O837 Eu819 2.670 . S
O837 C826 1.270 . S
O838 Eu819 2.394 . S
O838 C827 1.251 . S
O839 Eu809 2.374 . S
O839 C827 1.251 . S
H840 C811 0.931 . S
H841 C812 0.931 . S
H842 C814 0.931 . S
H843 C815 0.931 . S
H844 C821 0.931 . S
H845 C822 0.931 . S
H846 C824 0.931 . S
H847 C825 0.931 . S
C848 Eu849 2.835 . S
C848 C850 1.500 . S
C848 O868 1.257 . S
C848 O869 1.260 . S
Eu849 C848 2.835 . S
Eu849 O868 2.473 . S
Eu849 O869 2.480 . S
Eu849 O870 2.430 . S
Eu849 O871 2.670 . S
Eu849 O872 2.394 . S
Eu849 O877 2.355 . S
Eu849 O879 2.374 . S
C850 C848 1.500 . S
C850 C851 1.377 . S
C850 C855 1.377 . S
C851 C850 1.377 . S
C851 C852 1.395 . S
C851 H880 0.931 . S
C852 C851 1.395 . S
C852 C853 1.383 . S
C852 H881 0.931 . S
C853 C852 1.383 . S
C853 C854 1.394 . S
C854 C853 1.394 . S
C854 C855 1.378 . S
C854 H882 0.931 . S
C855 C850 1.377 . S
C855 C854 1.378 . S
C855 H883 0.931 . S
C856 O870 1.259 . S
C856 O871 1.270 . S
C857 O872 1.251 . S
C857 O873 1.251 . S
C858 Eu859 2.835 . S
C858 C860 1.500 . S
C858 O874 1.257 . S
C858 O875 1.260 . S
Eu859 C858 2.835 . S
Eu859 O871 2.355 . S
Eu859 O873 2.374 . S
Eu859 O874 2.473 . S
Eu859 O875 2.480 . S
Eu859 O876 2.430 . S
Eu859 O877 2.670 . S
Eu859 O878 2.394 . S
C860 C858 1.500 . S
C860 C861 1.377 . S
C860 C865 1.377 . S
C861 C860 1.377 . S
C861 C862 1.395 . S
C861 H884 0.931 . S
C862 C861 1.395 . S
C862 C863 1.383 . S
C862 H885 0.931 . S
C863 C862 1.383 . S
C863 C864 1.394 . S
C864 C863 1.394 . S
C864 C865 1.378 . S
C864 H886 0.931 . S
C865 C860 1.377 . S
C865 C864 1.378 . S
C865 H887 0.931 . S
C866 O876 1.259 . S
C866 O877 1.270 . S
C867 O878 1.251 . S
C867 O879 1.251 . S
O868 C848 1.257 . S
O868 Eu849 2.473 . S
O869 C848 1.260 . S
O869 Eu849 2.480 . S
O870 Eu849 2.430 . S
O870 C856 1.259 . S
O871 Eu849 2.670 . S
O871 C856 1.270 . S
O871 Eu859 2.355 . S
O872 Eu849 2.394 . S
O872 C857 1.251 . S
O873 C857 1.251 . S
O873 Eu859 2.374 . S
O874 C858 1.257 . S
O874 Eu859 2.473 . S
O875 C858 1.260 . S
O875 Eu859 2.480 . S
O876 Eu859 2.430 . S
O876 C866 1.259 . S
O877 Eu849 2.355 . S
O877 Eu859 2.670 . S
O877 C866 1.270 . S
O878 Eu859 2.394 . S
O878 C867 1.251 . S
O879 Eu849 2.374 . S
O879 C867 1.251 . S
H880 C851 0.931 . S
H881 C852 0.931 . S
H882 C854 0.931 . S
H883 C855 0.931 . S
H884 C861 0.931 . S
H885 C862 0.931 . S
H886 C864 0.931 . S
H887 C865 0.931 . S
C888 Eu889 2.835 . S
C888 C890 1.500 . S
C888 O908 1.257 . S
C888 O909 1.260 . S
Eu889 C888 2.835 . S
Eu889 O908 2.473 . S
Eu889 O909 2.480 . S
Eu889 O910 2.430 . S
Eu889 O911 2.670 . S
Eu889 O912 2.394 . S
Eu889 O917 2.355 . S
Eu889 O919 2.374 . S
C890 C888 1.500 . S
C890 C891 1.377 . S
C890 C895 1.377 . S
C891 C890 1.377 . S
C891 C892 1.395 . S
C891 H920 0.931 . S
C892 C891 1.395 . S
C892 C893 1.383 . S
C892 H921 0.931 . S
C893 C892 1.383 . S
C893 C894 1.394 . S
C894 C893 1.394 . S
C894 C895 1.378 . S
C894 H922 0.931 . S
C895 C890 1.377 . S
C895 C894 1.378 . S
C895 H923 0.931 . S
C896 O910 1.259 . S
C896 O911 1.270 . S
C897 O912 1.251 . S
C897 O913 1.251 . S
C898 Eu899 2.835 . S
C898 C900 1.500 . S
C898 O914 1.257 . S
C898 O915 1.260 . S
Eu899 C898 2.835 . S
Eu899 O911 2.355 . S
Eu899 O913 2.374 . S
Eu899 O914 2.473 . S
Eu899 O915 2.480 . S
Eu899 O916 2.430 . S
Eu899 O917 2.670 . S
Eu899 O918 2.394 . S
C900 C898 1.500 . S
C900 C901 1.377 . S
C900 C905 1.377 . S
C901 C900 1.377 . S
C901 C902 1.395 . S
C901 H924 0.931 . S
C902 C901 1.395 . S
C902 C903 1.383 . S
C902 H925 0.931 . S
C903 C902 1.383 . S
C903 C904 1.394 . S
C904 C903 1.394 . S
C904 C905 1.378 . S
C904 H926 0.931 . S
C905 C900 1.377 . S
C905 C904 1.378 . S
C905 H927 0.931 . S
C906 O916 1.259 . S
C906 O917 1.270 . S
C907 O918 1.251 . S
C907 O919 1.251 . S
O908 C888 1.257 . S
O908 Eu889 2.473 . S
O909 C888 1.260 . S
O909 Eu889 2.480 . S
O910 Eu889 2.430 . S
O910 C896 1.259 . S
O911 Eu889 2.670 . S
O911 C896 1.270 . S
O911 Eu899 2.355 . S
O912 Eu889 2.394 . S
O912 C897 1.251 . S
O913 C897 1.251 . S
O913 Eu899 2.374 . S
O914 C898 1.257 . S
O914 Eu899 2.473 . S
O915 C898 1.260 . S
O915 Eu899 2.480 . S
O916 Eu899 2.430 . S
O916 C906 1.259 . S
O917 Eu889 2.355 . S
O917 Eu899 2.670 . S
O917 C906 1.270 . S
O918 Eu899 2.394 . S
O918 C907 1.251 . S
O919 Eu889 2.374 . S
O919 C907 1.251 . S
H920 C891 0.931 . S
H921 C892 0.931 . S
H922 C894 0.931 . S
H923 C895 0.931 . S
H924 C901 0.931 . S
H925 C902 0.931 . S
H926 C904 0.931 . S
H927 C905 0.931 . S
C928 Eu929 2.835 . S
C928 C930 1.500 . S
C928 O948 1.257 . S
C928 O949 1.260 . S
Eu929 C928 2.835 . S
Eu929 O948 2.473 . S
Eu929 O949 2.480 . S
Eu929 O950 2.430 . S
Eu929 O951 2.670 . S
Eu929 O952 2.394 . S
Eu929 O957 2.355 . S
Eu929 O959 2.374 . S
C930 C928 1.500 . S
C930 C931 1.377 . S
C930 C935 1.377 . S
C931 C930 1.377 . S
C931 C932 1.395 . S
C931 H960 0.931 . S
C932 C931 1.395 . S
C932 C933 1.383 . S
C932 H961 0.931 . S
C933 C932 1.383 . S
C933 C934 1.394 . S
C934 C933 1.394 . S
C934 C935 1.378 . S
C934 H962 0.931 . S
C935 C930 1.377 . S
C935 C934 1.378 . S
C935 H963 0.931 . S
C936 O950 1.259 . S
C936 O951 1.270 . S
C937 O952 1.251 . S
C937 O953 1.251 . S
C938 Eu939 2.835 . S
C938 C940 1.500 . S
C938 O954 1.257 . S
C938 O955 1.260 . S
Eu939 C938 2.835 . S
Eu939 O951 2.355 . S
Eu939 O953 2.374 . S
Eu939 O954 2.473 . S
Eu939 O955 2.480 . S
Eu939 O956 2.430 . S
Eu939 O957 2.670 . S
Eu939 O958 2.394 . S
C940 C938 1.500 . S
C940 C941 1.377 . S
C940 C945 1.377 . S
C941 C940 1.377 . S
C941 C942 1.395 . S
C941 H964 0.931 . S
C942 C941 1.395 . S
C942 C943 1.383 . S
C942 H965 0.931 . S
C943 C942 1.383 . S
C943 C944 1.394 . S
C944 C943 1.394 . S
C944 C945 1.378 . S
C944 H966 0.931 . S
C945 C940 1.377 . S
C945 C944 1.378 . S
C945 H967 0.931 . S
C946 O956 1.259 . S
C946 O957 1.270 . S
C947 O958 1.251 . S
C947 O959 1.251 . S
O948 C928 1.257 . S
O948 Eu929 2.473 . S
O949 C928 1.260 . S
O949 Eu929 2.480 . S
O950 Eu929 2.430 . S
O950 C936 1.259 . S
O951 Eu929 2.670 . S
O951 C936 1.270 . S
O951 Eu939 2.355 . S
O952 Eu929 2.394 . S
O952 C937 1.251 . S
O953 C937 1.251 . S
O953 Eu939 2.374 . S
O954 C938 1.257 . S
O954 Eu939 2.473 . S
O955 C938 1.260 . S
O955 Eu939 2.480 . S
O956 Eu939 2.430 . S
O956 C946 1.259 . S
O957 Eu929 2.355 . S
O957 Eu939 2.670 . S
O957 C946 1.270 . S
O958 Eu939 2.394 . S
O958 C947 1.251 . S
O959 Eu929 2.374 . S
O959 C947 1.251 . S
H960 C931 0.931 . S
H961 C932 0.931 . S
H962 C934 0.931 . S
H963 C935 0.931 . S
H964 C941 0.931 . S
H965 C942 0.931 . S
H966 C944 0.931 . S
H967 C945 0.931 . S
C968 Eu969 2.835 . S
C968 C970 1.500 . S
C968 O988 1.257 . S
C968 O989 1.260 . S
Eu969 C968 2.835 . S
Eu969 O988 2.473 . S
Eu969 O989 2.480 . S
Eu969 O990 2.430 . S
Eu969 O991 2.670 . S
Eu969 O992 2.394 . S
Eu969 O997 2.355 . S
Eu969 O999 2.374 . S
C970 C968 1.500 . S
C970 C971 1.377 . S
C970 C975 1.377 . S
C971 C970 1.377 . S
C971 C972 1.395 . S
C971 H1000 0.931 . S
C972 C971 1.395 . S
C972 C973 1.383 . S
C972 H1001 0.931 . S
C973 C972 1.383 . S
C973 C974 1.394 . S
C974 C973 1.394 . S
C974 C975 1.378 . S
C974 H1002 0.931 . S
C975 C970 1.377 . S
C975 C974 1.378 . S
C975 H1003 0.931 . S
C976 O990 1.259 . S
C976 O991 1.270 . S
C977 O992 1.251 . S
C977 O993 1.251 . S
C978 Eu979 2.835 . S
C978 C980 1.500 . S
C978 O994 1.257 . S
C978 O995 1.260 . S
Eu979 C978 2.835 . S
Eu979 O991 2.355 . S
Eu979 O993 2.374 . S
Eu979 O994 2.473 . S
Eu979 O995 2.480 . S
Eu979 O996 2.430 . S
Eu979 O997 2.670 . S
Eu979 O998 2.394 . S
C980 C978 1.500 . S
C980 C981 1.377 . S
C980 C985 1.377 . S
C981 C980 1.377 . S
C981 C982 1.395 . S
C981 H1004 0.931 . S
C982 C981 1.395 . S
C982 C983 1.383 . S
C982 H1005 0.931 . S
C983 C982 1.383 . S
C983 C984 1.394 . S
C984 C983 1.394 . S
C984 C985 1.378 . S
C984 H1006 0.931 . S
C985 C980 1.377 . S
C985 C984 1.378 . S
C985 H1007 0.931 . S
C986 O996 1.259 . S
C986 O997 1.270 . S
C987 O998 1.251 . S
C987 O999 1.251 . S
O988 C968 1.257 . S
O988 Eu969 2.473 . S
O989 C968 1.260 . S
O989 Eu969 2.480 . S
O990 Eu969 2.430 . S
O990 C976 1.259 . S
O991 Eu969 2.670 . S
O991 C976 1.270 . S
O991 Eu979 2.355 . S
O992 Eu969 2.394 . S
O992 C977 1.251 . S
O993 C977 1.251 . S
O993 Eu979 2.374 . S
O994 C978 1.257 . S
O994 Eu979 2.473 . S
O995 C978 1.260 . S
O995 Eu979 2.480 . S
O996 Eu979 2.430 . S
O996 C986 1.259 . S
O997 Eu969 2.355 . S
O997 Eu979 2.670 . S
O997 C986 1.270 . S
O998 Eu979 2.394 . S
O998 C987 1.251 . S
O999 Eu969 2.374 . S
O999 C987 1.251 . S
H1000 C971 0.931 . S
H1001 C972 0.931 . S
H1002 C974 0.931 . S
H1003 C975 0.931 . S
H1004 C981 0.931 . S
H1005 C982 0.931 . S
H1006 C984 0.931 . S
H1007 C985 0.931 . S
C1008 C1009 1.391 . S
C1008 C1010 1.394 . S
C1008 H1024 0.931 . S
C1009 C1008 1.391 . S
C1009 C1013 1.376 . S
C1010 C1008 1.394 . S
C1010 C1011 1.369 . S
C1010 C1014 1.531 . S
C1011 C1010 1.369 . S
C1011 C1012 1.410 . S
C1011 C1019 1.503 . S
C1012 C1011 1.410 . S
C1012 C1013 1.392 . S
C1012 C1015 1.511 . S
C1013 C1009 1.376 . S
C1013 C1012 1.392 . S
C1013 H1025 0.929 . S
C1014 C1010 1.531 . S
C1014 H1026 0.960 . S
C1014 H1027 0.962 . S
C1014 H1028 0.960 . S
C1015 C1012 1.511 . S
C1015 H1029 0.961 . S
C1015 H1030 0.961 . S
C1015 H1031 0.961 . S
C1016 C1017 1.370 . S
C1016 C1018 1.363 . S
C1016 H1032 0.931 . S
C1017 C1016 1.370 . S
C1017 C1021 1.408 . S
C1018 C1016 1.363 . S
C1018 C1019 1.370 . S
C1018 C1022 1.524 . S
C1019 C1011 1.503 . S
C1019 C1018 1.370 . S
C1019 C1020 1.403 . S
C1020 C1019 1.403 . S
C1020 C1021 1.404 . S
C1020 C1023 1.539 . S
C1021 C1017 1.408 . S
C1021 C1020 1.404 . S
C1021 H1033 0.930 . S
C1022 C1018 1.524 . S
C1022 H1034 0.956 . S
C1022 H1035 0.961 . S
C1022 H1036 0.961 . S
C1023 C1020 1.539 . S
C1023 H1037 0.958 . S
C1023 H1038 0.961 . S
C1023 H1039 0.960 . S
H1024 C1008 0.931 . S
H1025 C1013 0.929 . S
H1026 C1014 0.960 . S
H1027 C1014 0.962 . S
H1028 C1014 0.960 . S
H1029 C1015 0.961 . S
H1030 C1015 0.961 . S
H1031 C1015 0.961 . S
H1032 C1016 0.931 . S
H1033 C1021 0.930 . S
H1034 C1022 0.956 . S
H1035 C1022 0.961 . S
H1036 C1022 0.961 . S
H1037 C1023 0.958 . S
H1038 C1023 0.961 . S
H1039 C1023 0.960 . S
C1040 C1041 1.391 . S
C1040 C1042 1.394 . S
C1040 H1056 0.931 . S
C1041 C1040 1.391 . S
C1041 C1045 1.376 . S
C1042 C1040 1.394 . S
C1042 C1043 1.369 . S
C1042 C1046 1.531 . S
C1043 C1042 1.369 . S
C1043 C1044 1.410 . S
C1043 C1051 1.503 . S
C1044 C1043 1.410 . S
C1044 C1045 1.392 . S
C1044 C1047 1.511 . S
C1045 C1041 1.376 . S
C1045 C1044 1.392 . S
C1045 H1057 0.929 . S
C1046 C1042 1.531 . S
C1046 H1058 0.960 . S
C1046 H1059 0.962 . S
C1046 H1060 0.960 . S
C1047 C1044 1.511 . S
C1047 H1061 0.961 . S
C1047 H1062 0.961 . S
C1047 H1063 0.961 . S
C1048 C1049 1.370 . S
C1048 C1050 1.363 . S
C1048 H1064 0.931 . S
C1049 C1048 1.370 . S
C1049 C1053 1.408 . S
C1050 C1048 1.363 . S
C1050 C1051 1.370 . S
C1050 C1054 1.524 . S
C1051 C1043 1.503 . S
C1051 C1050 1.370 . S
C1051 C1052 1.403 . S
C1052 C1051 1.403 . S
C1052 C1053 1.404 . S
C1052 C1055 1.539 . S
C1053 C1049 1.408 . S
C1053 C1052 1.404 . S
C1053 H1065 0.930 . S
C1054 C1050 1.524 . S
C1054 H1066 0.956 . S
C1054 H1067 0.961 . S
C1054 H1068 0.961 . S
C1055 C1052 1.539 . S
C1055 H1069 0.958 . S
C1055 H1070 0.961 . S
C1055 H1071 0.960 . S
H1056 C1040 0.931 . S
H1057 C1045 0.929 . S
H1058 C1046 0.960 . S
H1059 C1046 0.962 . S
H1060 C1046 0.960 . S
H1061 C1047 0.961 . S
H1062 C1047 0.961 . S
H1063 C1047 0.961 . S
H1064 C1048 0.931 . S
H1065 C1053 0.930 . S
H1066 C1054 0.956 . S
H1067 C1054 0.961 . S
H1068 C1054 0.961 . S
H1069 C1055 0.958 . S
H1070 C1055 0.961 . S
H1071 C1055 0.960 . S
C1072 C1073 1.391 . S
C1072 C1074 1.394 . S
C1072 H1088 0.931 . S
C1073 C1072 1.391 . S
C1073 C1077 1.376 . S
C1074 C1072 1.394 . S
C1074 C1075 1.369 . S
C1074 C1078 1.531 . S
C1075 C1074 1.369 . S
C1075 C1076 1.410 . S
C1075 C1083 1.503 . S
C1076 C1075 1.410 . S
C1076 C1077 1.392 . S
C1076 C1079 1.510 1_554 S
C1077 C1073 1.376 . S
C1077 C1076 1.392 . S
C1077 H1089 0.929 . S
C1078 C1074 1.531 . S
C1078 H1090 0.960 . S
C1078 H1091 0.962 . S
C1078 H1092 0.960 . S
C1079 C1076 1.510 1_556 S
C1079 H1093 0.960 . S
C1079 H1094 0.961 1_556 S
C1079 H1095 0.962 . S
C1080 C1081 1.370 . S
C1080 C1082 1.363 . S
C1080 H1096 0.931 . S
C1081 C1080 1.370 . S
C1081 C1085 1.408 . S
C1082 C1080 1.363 . S
C1082 C1083 1.370 . S
C1082 C1086 1.524 . S
C1083 C1075 1.503 . S
C1083 C1082 1.370 . S
C1083 C1084 1.403 . S
C1084 C1083 1.403 . S
C1084 C1085 1.404 . S
C1084 C1087 1.539 1_554 S
C1085 C1081 1.408 . S
C1085 C1084 1.404 . S
C1085 H1097 0.930 1_554 S
C1086 C1082 1.524 . S
C1086 H1098 0.956 . S
C1086 H1099 0.961 . S
C1086 H1100 0.961 . S
C1087 C1084 1.539 1_556 S
C1087 H1101 0.958 . S
C1087 H1102 0.961 . S
C1087 H1103 0.960 . S
H1088 C1072 0.931 . S
H1089 C1077 0.929 . S
H1090 C1078 0.960 . S
H1091 C1078 0.962 . S
H1092 C1078 0.960 . S
H1093 C1079 0.960 . S
H1094 C1079 0.961 1_554 S
H1095 C1079 0.962 . S
H1096 C1080 0.931 . S
H1097 C1085 0.930 1_556 S
H1098 C1086 0.956 . S
H1099 C1086 0.961 . S
H1100 C1086 0.961 . S
H1101 C1087 0.958 . S
H1102 C1087 0.961 . S
H1103 C1087 0.960 . S
C1104 C1105 1.391 . S
C1104 C1106 1.394 . S
C1104 H1120 0.931 . S
C1105 C1104 1.391 . S
C1105 C1109 1.376 . S
C1106 C1104 1.394 . S
C1106 C1107 1.369 . S
C1106 C1110 1.531 . S
C1107 C1106 1.369 . S
C1107 C1108 1.410 . S
C1107 C1115 1.503 . S
C1108 C1107 1.410 . S
C1108 C1109 1.392 . S
C1108 C1111 1.511 . S
C1109 C1105 1.376 . S
C1109 C1108 1.392 . S
C1109 H1121 0.929 . S
C1110 C1106 1.531 . S
C1110 H1122 0.960 . S
C1110 H1123 0.962 . S
C1110 H1124 0.960 . S
C1111 C1108 1.511 . S
C1111 H1125 0.961 . S
C1111 H1126 0.961 . S
C1111 H1127 0.961 . S
C1112 C1113 1.370 . S
C1112 C1114 1.363 . S
C1112 H1128 0.931 1_556 S
C1113 C1112 1.370 . S
C1113 C1117 1.408 . S
C1114 C1112 1.363 . S
C1114 C1115 1.370 . S
C1114 C1118 1.524 1_556 S
C1115 C1107 1.503 . S
C1115 C1114 1.370 . S
C1115 C1116 1.403 . S
C1116 C1115 1.403 . S
C1116 C1117 1.404 . S
C1116 C1119 1.539 . S
C1117 C1113 1.408 . S
C1117 C1116 1.404 . S
C1117 H1129 0.930 . S
C1118 C1114 1.524 1_554 S
C1118 H1130 0.956 . S
C1118 H1131 0.961 . S
C1118 H1132 0.961 . S
C1119 C1116 1.539 . S
C1119 H1133 0.958 . S
C1119 H1134 0.961 . S
C1119 H1135 0.960 . S
H1120 C1104 0.931 . S
H1121 C1109 0.929 . S
H1122 C1110 0.960 . S
H1123 C1110 0.962 . S
H1124 C1110 0.960 . S
H1125 C1111 0.961 . S
H1126 C1111 0.961 . S
H1127 C1111 0.961 . S
H1128 C1112 0.931 1_554 S
H1129 C1117 0.930 . S
H1130 C1118 0.956 . S
H1131 C1118 0.961 . S
H1132 C1118 0.961 . S
H1133 C1119 0.958 . S
H1134 C1119 0.961 . S
H1135 C1119 0.960 . S
C1136 C1137 1.391 . S
C1136 C1138 1.394 . S
C1136 H1152 0.931 . S
C1137 C1136 1.391 . S
C1137 C1141 1.376 . S
C1138 C1136 1.394 . S
C1138 C1139 1.369 . S
C1138 C1142 1.531 . S
C1139 C1138 1.369 . S
C1139 C1140 1.410 . S
C1139 C1147 1.503 . S
C1140 C1139 1.410 . S
C1140 C1141 1.392 . S
C1140 C1143 1.511 . S
C1141 C1137 1.376 . S
C1141 C1140 1.392 . S
C1141 H1153 0.929 . S
C1142 C1138 1.531 . S
C1142 H1154 0.960 . S
C1142 H1155 0.962 . S
C1142 H1156 0.960 . S
C1143 C1140 1.511 . S
C1143 H1157 0.961 . S
C1143 H1158 0.961 . S
C1143 H1159 0.961 . S
C1144 C1145 1.370 . S
C1144 C1146 1.363 . S
C1144 H1160 0.931 . S
C1145 C1144 1.370 . S
C1145 C1149 1.408 . S
C1146 C1144 1.363 . S
C1146 C1147 1.370 . S
C1146 C1150 1.524 . S
C1147 C1139 1.503 . S
C1147 C1146 1.370 . S
C1147 C1148 1.403 . S
C1148 C1147 1.403 . S
C1148 C1149 1.404 . S
C1148 C1151 1.539 . S
C1149 C1145 1.408 . S
C1149 C1148 1.404 . S
C1149 H1161 0.930 . S
C1150 C1146 1.524 . S
C1150 H1162 0.956 . S
C1150 H1163 0.961 . S
C1150 H1164 0.961 . S
C1151 C1148 1.539 . S
C1151 H1165 0.958 . S
C1151 H1166 0.961 . S
C1151 H1167 0.960 . S
H1152 C1136 0.931 . S
H1153 C1141 0.929 . S
H1154 C1142 0.960 . S
H1155 C1142 0.962 . S
H1156 C1142 0.960 . S
H1157 C1143 0.961 . S
H1158 C1143 0.961 . S
H1159 C1143 0.961 . S
H1160 C1144 0.931 . S
H1161 C1149 0.930 . S
H1162 C1150 0.956 . S
H1163 C1150 0.961 . S
H1164 C1150 0.961 . S
H1165 C1151 0.958 . S
H1166 C1151 0.961 . S
H1167 C1151 0.960 . S
C1168 C1169 1.391 . S
C1168 C1170 1.394 . S
C1168 H1184 0.931 . S
C1169 C1168 1.391 . S
C1169 C1173 1.376 . S
C1170 C1168 1.394 . S
C1170 C1171 1.369 . S
C1170 C1174 1.531 . S
C1171 C1170 1.369 . S
C1171 C1172 1.410 . S
C1171 C1179 1.503 . S
C1172 C1171 1.410 . S
C1172 C1173 1.392 . S
C1172 C1175 1.511 . S
C1173 C1169 1.376 . S
C1173 C1172 1.392 . S
C1173 H1185 0.929 . S
C1174 C1170 1.531 . S
C1174 H1186 0.960 . S
C1174 H1187 0.962 1_556 S
C1174 H1188 0.960 . S
C1175 C1172 1.511 . S
C1175 H1189 0.961 . S
C1175 H1190 0.961 . S
C1175 H1191 0.961 . S
C1176 C1177 1.369 . S
C1176 C1178 1.362 . S
C1176 H1192 0.933 1_556 S
C1177 C1176 1.369 . S
C1177 C1181 1.408 . S
C1178 C1176 1.362 . S
C1178 C1179 1.370 . S
C1178 C1182 1.524 1_556 S
C1179 C1171 1.503 . S
C1179 C1178 1.370 . S
C1179 C1180 1.403 . S
C1180 C1179 1.403 . S
C1180 C1181 1.404 . S
C1180 C1183 1.539 . S
C1181 C1177 1.408 . S
C1181 C1180 1.404 . S
C1181 H1193 0.930 . S
C1182 C1178 1.524 1_554 S
C1182 H1194 0.956 . S
C1182 H1195 0.961 1_554 S
C1182 H1196 0.961 . S
C1183 C1180 1.539 . S
C1183 H1197 0.958 . S
C1183 H1198 0.961 . S
C1183 H1199 0.960 . S
H1184 C1168 0.931 . S
H1185 C1173 0.929 . S
H1186 C1174 0.960 . S
H1187 C1174 0.962 1_554 S
H1188 C1174 0.960 . S
H1189 C1175 0.961 . S
H1190 C1175 0.961 . S
H1191 C1175 0.961 . S
H1192 C1176 0.933 1_554 S
H1193 C1181 0.930 . S
H1194 C1182 0.956 . S
H1195 C1182 0.961 1_556 S
H1196 C1182 0.961 . S
H1197 C1183 0.958 . S
H1198 C1183 0.961 . S
H1199 C1183 0.960 . S
C1200 C1201 1.391 . S
C1200 C1202 1.394 . S
C1200 H1216 0.931 . S
C1201 C1200 1.391 . S
C1201 C1205 1.376 . S
C1202 C1200 1.394 . S
C1202 C1203 1.369 . S
C1202 C1206 1.531 . S
C1203 C1202 1.369 . S
C1203 C1204 1.410 . S
C1203 C1211 1.503 . S
C1204 C1203 1.410 . S
C1204 C1205 1.392 . S
C1204 C1207 1.511 . S
C1205 C1201 1.376 . S
C1205 C1204 1.392 . S
C1205 H1217 0.929 . S
C1206 C1202 1.531 . S
C1206 H1218 0.960 . S
C1206 H1219 0.962 1_556 S
C1206 H1220 0.960 . S
C1207 C1204 1.511 . S
C1207 H1221 0.961 . S
C1207 H1222 0.961 . S
C1207 H1223 0.961 . S
C1208 C1209 1.370 . S
C1208 C1210 1.363 . S
C1208 H1224 0.931 . S
C1209 C1208 1.370 . S
C1209 C1213 1.408 . S
C1210 C1208 1.363 . S
C1210 C1211 1.370 . S
C1210 C1214 1.524 . S
C1211 C1203 1.503 . S
C1211 C1210 1.370 . S
C1211 C1212 1.403 . S
C1212 C1211 1.403 . S
C1212 C1213 1.404 . S
C1212 C1215 1.539 . S
C1213 C1209 1.408 . S
C1213 C1212 1.404 . S
C1213 H1225 0.930 . S
C1214 C1210 1.524 . S
C1214 H1226 0.956 . S
C1214 H1227 0.961 . S
C1214 H1228 0.961 . S
C1215 C1212 1.539 . S
C1215 H1229 0.958 . S
C1215 H1230 0.961 . S
C1215 H1231 0.960 . S
H1216 C1200 0.931 . S
H1217 C1205 0.929 . S
H1218 C1206 0.960 . S
H1219 C1206 0.962 1_554 S
H1220 C1206 0.960 . S
H1221 C1207 0.961 . S
H1222 C1207 0.961 . S
H1223 C1207 0.961 . S
H1224 C1208 0.931 . S
H1225 C1213 0.930 . S
H1226 C1214 0.956 . S
H1227 C1214 0.961 . S
H1228 C1214 0.961 . S
H1229 C1215 0.958 . S
H1230 C1215 0.961 . S
H1231 C1215 0.960 . S
C1232 C1233 1.391 . S
C1232 C1234 1.394 . S
C1232 H1248 0.931 . S
C1233 C1232 1.391 . S
C1233 C1237 1.376 . S
C1234 C1232 1.394 . S
C1234 C1235 1.369 . S
C1234 C1238 1.531 . S
C1235 C1234 1.369 . S
C1235 C1236 1.410 . S
C1235 C1243 1.503 . S
C1236 C1235 1.410 . S
C1236 C1237 1.392 . S
C1236 C1239 1.511 . S
C1237 C1233 1.376 . S
C1237 C1236 1.392 . S
C1237 H1249 0.929 . S
C1238 C1234 1.531 . S
C1238 H1250 0.960 . S
C1238 H1251 0.962 . S
C1238 H1252 0.960 . S
C1239 C1236 1.511 . S
C1239 H1253 0.961 . S
C1239 H1254 0.961 . S
C1239 H1255 0.961 . S
C1240 C1241 1.370 . S
C1240 C1242 1.363 . S
C1240 H1256 0.931 . S
C1241 C1240 1.370 . S
C1241 C1245 1.408 . S
C1242 C1240 1.363 . S
C1242 C1243 1.370 . S
C1242 C1246 1.524 . S
C1243 C1235 1.503 . S
C1243 C1242 1.370 . S
C1243 C1244 1.403 . S
C1244 C1243 1.403 . S
C1244 C1245 1.404 . S
C1244 C1247 1.539 1_556 S
C1245 C1241 1.408 . S
C1245 C1244 1.404 . S
C1245 H1257 0.930 1_556 S
C1246 C1242 1.524 . S
C1246 H1258 0.956 . S
C1246 H1259 0.961 . S
C1246 H1260 0.961 . S
C1247 C1244 1.539 1_554 S
C1247 H1261 0.958 . S
C1247 H1262 0.961 . S
C1247 H1263 0.960 1_554 S
H1248 C1232 0.931 . S
H1249 C1237 0.929 . S
H1250 C1238 0.960 . S
H1251 C1238 0.962 . S
H1252 C1238 0.960 . S
H1253 C1239 0.961 . S
H1254 C1239 0.961 . S
H1255 C1239 0.961 . S
H1256 C1240 0.931 . S
H1257 C1245 0.930 1_554 S
H1258 C1246 0.956 . S
H1259 C1246 0.961 . S
H1260 C1246 0.961 . S
H1261 C1247 0.958 . S
H1262 C1247 0.961 . S
H1263 C1247 0.960 1_556 S
C1264 C1265 1.391 . S
C1264 C1266 1.394 . S
C1264 H1280 0.931 . S
C1265 C1264 1.391 . S
C1265 C1269 1.376 . S
C1266 C1264 1.394 . S
C1266 C1267 1.369 . S
C1266 C1270 1.531 . S
C1267 C1266 1.369 . S
C1267 C1268 1.410 . S
C1267 C1275 1.503 . S
C1268 C1267 1.410 . S
C1268 C1269 1.392 . S
C1268 C1271 1.511 . S
C1269 C1265 1.376 . S
C1269 C1268 1.392 . S
C1269 H1281 0.929 . S
C1270 C1266 1.531 . S
C1270 H1282 0.960 1_556 S
C1270 H1283 0.962 . S
C1270 H1284 0.960 1_556 S
C1271 C1268 1.511 . S
C1271 H1285 0.961 . S
C1271 H1286 0.961 . S
C1271 H1287 0.961 . S
C1272 C1273 1.370 . S
C1272 C1274 1.363 . S
C1272 H1288 0.931 . S
C1273 C1272 1.370 . S
C1273 C1277 1.408 1_556 S
C1274 C1272 1.363 . S
C1274 C1275 1.370 . S
C1274 C1278 1.524 . S
C1275 C1267 1.503 . S
C1275 C1274 1.370 . S
C1275 C1276 1.403 1_556 S
C1276 C1275 1.403 1_554 S
C1276 C1277 1.404 . S
C1276 C1279 1.539 . S
C1277 C1273 1.408 1_554 S
C1277 C1276 1.404 . S
C1277 H1289 0.930 . S
C1278 C1274 1.524 . S
C1278 H1290 0.956 . S
C1278 H1291 0.961 . S
C1278 H1292 0.961 . S
C1279 C1276 1.539 . S
C1279 H1293 0.958 . S
C1279 H1294 0.961 . S
C1279 H1295 0.960 . S
H1280 C1264 0.931 . S
H1281 C1269 0.929 . S
H1282 C1270 0.960 1_554 S
H1283 C1270 0.962 . S
H1284 C1270 0.960 1_554 S
H1285 C1271 0.961 . S
H1286 C1271 0.961 . S
H1287 C1271 0.961 . S
H1288 C1272 0.931 . S
H1289 C1277 0.930 . S
H1290 C1278 0.956 . S
H1291 C1278 0.961 . S
H1292 C1278 0.961 . S
H1293 C1279 0.958 . S
H1294 C1279 0.961 . S
H1295 C1279 0.960 . S
C1296 C1297 1.391 . S
C1296 C1298 1.394 . S
C1296 H1312 0.931 . S
C1297 C1296 1.391 . S
C1297 C1301 1.376 . S
C1298 C1296 1.394 . S
C1298 C1299 1.369 . S
C1298 C1302 1.531 . S
C1299 C1298 1.369 . S
C1299 C1300 1.410 . S
C1299 C1307 1.503 . S
C1300 C1299 1.410 . S
C1300 C1301 1.392 . S
C1300 C1303 1.511 . S
C1301 C1297 1.376 . S
C1301 C1300 1.392 . S
C1301 H1313 0.929 . S
C1302 C1298 1.531 . S
C1302 H1314 0.960 . S
C1302 H1315 0.962 . S
C1302 H1316 0.960 . S
C1303 C1300 1.511 . S
C1303 H1317 0.961 . S
C1303 H1318 0.961 . S
C1303 H1319 0.961 . S
C1304 C1305 1.370 . S
C1304 C1306 1.363 . S
C1304 H1320 0.931 1_554 S
C1305 C1304 1.370 . S
C1305 C1309 1.408 . S
C1306 C1304 1.363 . S
C1306 C1307 1.370 . S
C1306 C1310 1.494 1_554 S
C1307 C1299 1.503 . S
C1307 C1306 1.370 . S
C1307 C1308 1.403 . S
C1308 C1307 1.403 . S
C1308 C1309 1.404 . S
C1308 C1311 1.539 . S
C1309 C1305 1.408 . S
C1309 C1308 1.404 . S
C1309 H1321 0.930 . S
C1310 C1306 1.494 1_556 S
C1310 H1322 0.946 1_556 S
C1310 H1323 0.967 . S
C1310 H1324 0.997 . S
C1311 C1308 1.539 . S
C1311 H1325 0.958 . S
C1311 H1326 0.961 . S
C1311 H1327 0.960 . S
H1312 C1296 0.931 . S
H1313 C1301 0.929 . S
H1314 C1302 0.960 . S
H1315 C1302 0.962 . S
H1316 C1302 0.960 . S
H1317 C1303 0.961 . S
H1318 C1303 0.961 . S
H1319 C1303 0.961 . S
H1320 C1304 0.931 1_556 S
H1321 C1309 0.930 . S
H1322 C1310 0.946 1_554 S
H1323 C1310 0.967 . S
H1324 C1310 0.997 . S
H1325 C1311 0.958 . S
H1326 C1311 0.961 . S
H1327 C1311 0.960 . S
C1328 C1329 1.391 . S
C1328 C1330 1.394 . S
C1328 H1344 0.931 . S
C1329 C1328 1.391 . S
C1329 C1333 1.376 . S
C1330 C1328 1.394 . S
C1330 C1331 1.369 . S
C1330 C1334 1.531 . S
C1331 C1330 1.369 . S
C1331 C1332 1.410 . S
C1331 C1339 1.503 . S
C1332 C1331 1.410 . S
C1332 C1333 1.392 . S
C1332 C1335 1.511 . S
C1333 C1329 1.376 . S
C1333 C1332 1.392 . S
C1333 H1345 0.929 . S
C1334 C1330 1.531 . S
C1334 H1346 0.960 . S
C1334 H1347 0.962 . S
C1334 H1348 0.960 . S
C1335 C1332 1.511 . S
C1335 H1349 0.961 . S
C1335 H1350 0.961 . S
C1335 H1351 0.961 . S
C1336 C1337 1.370 . S
C1336 C1338 1.363 . S
C1336 H1352 0.931 . S
C1337 C1336 1.370 . S
C1337 C1341 1.408 . S
C1338 C1336 1.363 . S
C1338 C1339 1.370 . S
C1338 C1342 1.524 . S
C1339 C1331 1.503 . S
C1339 C1338 1.370 . S
C1339 C1340 1.403 . S
C1340 C1339 1.403 . S
C1340 C1341 1.404 . S
C1340 C1343 1.539 . S
C1341 C1337 1.408 . S
C1341 C1340 1.404 . S
C1341 H1353 0.930 . S
C1342 C1338 1.524 . S
C1342 H1354 0.956 . S
C1342 H1355 0.961 . S
C1342 H1356 0.961 . S
C1343 C1340 1.539 . S
C1343 H1357 0.958 . S
C1343 H1358 0.961 . S
C1343 H1359 0.960 . S
H1344 C1328 0.931 . S
H1345 C1333 0.929 . S
H1346 C1334 0.960 . S
H1347 C1334 0.962 . S
H1348 C1334 0.960 . S
H1349 C1335 0.961 . S
H1350 C1335 0.961 . S
H1351 C1335 0.961 . S
H1352 C1336 0.931 . S
H1353 C1341 0.930 . S
H1354 C1342 0.956 . S
H1355 C1342 0.961 . S
H1356 C1342 0.961 . S
H1357 C1343 0.958 . S
H1358 C1343 0.961 . S
H1359 C1343 0.960 . S
C1360 C1361 1.391 . S
C1360 C1362 1.394 . S
C1360 H1376 0.931 . S
C1361 C1360 1.391 . S
C1361 C1365 1.376 . S
C1362 C1360 1.394 . S
C1362 C1363 1.369 . S
C1362 C1366 1.531 . S
C1363 C1362 1.369 . S
C1363 C1364 1.410 . S
C1363 C1371 1.503 . S
C1364 C1363 1.410 . S
C1364 C1365 1.392 . S
C1364 C1367 1.511 . S
C1365 C1361 1.376 . S
C1365 C1364 1.392 . S
C1365 H1377 0.929 . S
C1366 C1362 1.531 . S
C1366 H1378 0.960 . S
C1366 H1379 0.962 1_554 S
C1366 H1380 0.960 1_554 S
C1367 C1364 1.511 . S
C1367 H1381 0.961 . S
C1367 H1382 0.961 . S
C1367 H1383 0.961 . S
C1368 C1369 1.370 . S
C1368 C1370 1.363 . S
C1368 H1384 0.925 . S
C1369 C1368 1.370 . S
C1369 C1373 1.408 . S
C1370 C1368 1.363 . S
C1370 C1371 1.370 . S
C1370 C1374 1.524 . S
C1371 C1363 1.503 . S
C1371 C1370 1.370 . S
C1371 C1372 1.403 . S
C1372 C1371 1.403 . S
C1372 C1373 1.404 . S
C1372 C1375 1.539 . S
C1373 C1369 1.408 . S
C1373 C1372 1.404 . S
C1373 H1385 0.930 . S
C1374 C1370 1.524 . S
C1374 H1386 0.956 1_554 S
C1374 H1387 0.961 . S
C1374 H1388 0.966 . S
C1375 C1372 1.539 . S
C1375 H1389 0.958 . S
C1375 H1390 0.961 . S
C1375 H1391 0.960 . S
H1376 C1360 0.931 . S
H1377 C1365 0.929 . S
H1378 C1366 0.960 . S
H1379 C1366 0.962 1_556 S
H1380 C1366 0.960 1_556 S
H1381 C1367 0.961 . S
H1382 C1367 0.961 . S
H1383 C1367 0.961 . S
H1384 C1368 0.925 . S
H1385 C1373 0.930 . S
H1386 C1374 0.956 1_556 S
H1387 C1374 0.961 . S
H1388 C1374 0.966 . S
H1389 C1375 0.958 . S
H1390 C1375 0.961 . S
H1391 C1375 0.960 . S
C1392 C1393 1.391 . S
C1392 C1394 1.394 1_655 S
C1392 H1408 0.931 . S
C1393 C1392 1.391 . S
C1393 C1397 1.376 . S
C1394 C1392 1.394 1_455 S
C1394 C1395 1.369 . S
C1394 C1398 1.531 . S
C1395 C1394 1.369 . S
C1395 C1396 1.410 . S
C1395 C1403 1.503 . S
C1396 C1395 1.410 . S
C1396 C1397 1.392 1_455 S
C1396 C1399 1.511 . S
C1397 C1393 1.376 . S
C1397 C1396 1.392 1_655 S
C1397 H1409 0.929 . S
C1398 C1394 1.531 . S
C1398 H1410 0.960 . S
C1398 H1411 0.962 . S
C1398 H1412 0.960 1_455 S
C1399 C1396 1.511 . S
C1399 H1413 0.961 . S
C1399 H1414 0.961 . S
C1399 H1415 0.961 . S
C1400 C1401 1.370 . S
C1400 C1402 1.363 . S
C1400 H1416 0.931 . S
C1401 C1400 1.370 . S
C1401 C1405 1.408 . S
C1402 C1400 1.363 . S
C1402 C1403 1.370 . S
C1402 C1406 1.524 . S
C1403 C1395 1.503 . S
C1403 C1402 1.370 . S
C1403 C1404 1.403 . S
C1404 C1403 1.403 . S
C1404 C1405 1.404 . S
C1404 C1407 1.539 . S
C1405 C1401 1.408 . S
C1405 C1404 1.404 . S
C1405 H1417 0.930 . S
C1406 C1402 1.524 . S
C1406 H1418 0.956 . S
C1406 H1419 0.961 . S
C1406 H1420 0.961 . S
C1407 C1404 1.539 . S
C1407 H1421 0.958 . S
C1407 H1422 0.961 . S
C1407 H1423 0.960 . S
H1408 C1392 0.931 . S
H1409 C1397 0.929 . S
H1410 C1398 0.960 . S
H1411 C1398 0.962 . S
H1412 C1398 0.960 1_655 S
H1413 C1399 0.961 . S
H1414 C1399 0.961 . S
H1415 C1399 0.961 . S
H1416 C1400 0.931 . S
H1417 C1405 0.930 . S
H1418 C1406 0.956 . S
H1419 C1406 0.961 . S
H1420 C1406 0.961 . S
H1421 C1407 0.958 . S
H1422 C1407 0.961 . S
H1423 C1407 0.960 . S
C1424 C1425 1.391 . S
C1424 C1426 1.394 . S
C1424 H1440 0.931 . S
C1425 C1424 1.391 . S
C1425 C1429 1.376 . S
C1426 C1424 1.394 . S
C1426 C1427 1.369 . S
C1426 C1430 1.531 . S
C1427 C1426 1.369 . S
C1427 C1428 1.410 . S
C1427 C1435 1.503 . S
C1428 C1427 1.410 . S
C1428 C1429 1.392 . S
C1428 C1431 1.511 . S
C1429 C1425 1.376 . S
C1429 C1428 1.392 . S
C1429 H1441 0.929 . S
C1430 C1426 1.531 . S
C1430 H1442 0.960 . S
C1430 H1443 0.962 . S
C1430 H1444 0.960 . S
C1431 C1428 1.511 . S
C1431 H1445 0.961 . S
C1431 H1446 0.961 . S
C1431 H1447 0.961 . S
C1432 C1433 1.370 . S
C1432 C1434 1.363 . S
C1432 H1448 0.931 . S
C1433 C1432 1.370 . S
C1433 C1437 1.408 . S
C1434 C1432 1.363 . S
C1434 C1435 1.370 . S
C1434 C1438 1.524 . S
C1435 C1427 1.503 . S
C1435 C1434 1.370 . S
C1435 C1436 1.403 . S
C1436 C1435 1.403 . S
C1436 C1437 1.404 . S
C1436 C1439 1.539 . S
C1437 C1433 1.408 . S
C1437 C1436 1.404 . S
C1437 H1449 0.930 . S
C1438 C1434 1.524 . S
C1438 H1450 0.956 . S
C1438 H1451 0.961 . S
C1438 H1452 0.961 . S
C1439 C1436 1.539 . S
C1439 H1453 0.958 . S
C1439 H1454 0.961 . S
C1439 H1455 0.960 . S
H1440 C1424 0.931 . S
H1441 C1429 0.929 . S
H1442 C1430 0.960 . S
H1443 C1430 0.962 . S
H1444 C1430 0.960 . S
H1445 C1431 0.961 . S
H1446 C1431 0.961 . S
H1447 C1431 0.961 . S
H1448 C1432 0.931 . S
H1449 C1437 0.930 . S
H1450 C1438 0.956 . S
H1451 C1438 0.961 . S
H1452 C1438 0.961 . S
H1453 C1439 0.958 . S
H1454 C1439 0.961 . S
H1455 C1439 0.960 . S
C1456 C1457 1.391 . S
C1456 C1458 1.394 . S
C1456 H1472 0.931 . S
C1457 C1456 1.391 . S
C1457 C1461 1.376 . S
C1458 C1456 1.394 . S
C1458 C1459 1.369 1_545 S
C1458 C1462 1.531 1_545 S
C1459 C1458 1.369 1_565 S
C1459 C1460 1.410 1_565 S
C1459 C1467 1.503 . S
C1460 C1459 1.410 1_545 S
C1460 C1461 1.392 . S
C1460 C1463 1.511 1_545 S
C1461 C1457 1.376 . S
C1461 C1460 1.392 . S
C1461 H1473 0.929 . S
C1462 C1458 1.531 1_565 S
C1462 H1474 0.960 . S
C1462 H1475 0.962 . S
C1462 H1476 0.960 . S
C1463 C1460 1.511 1_565 S
C1463 H1477 0.961 1_565 S
C1463 H1478 0.961 . S
C1463 H1479 0.961 . S
C1464 C1465 1.370 . S
C1464 C1466 1.363 . S
C1464 H1480 0.931 . S
C1465 C1464 1.370 . S
C1465 C1469 1.408 . S
C1466 C1464 1.363 . S
C1466 C1467 1.370 . S
C1466 C1470 1.524 . S
C1467 C1459 1.503 . S
C1467 C1466 1.370 . S
C1467 C1468 1.403 . S
C1468 C1467 1.403 . S
C1468 C1469 1.404 . S
C1468 C1471 1.539 . S
C1469 C1465 1.408 . S
C1469 C1468 1.404 . S
C1469 H1481 0.930 . S
C1470 C1466 1.524 . S
C1470 H1482 0.956 . S
C1470 H1483 0.961 . S
C1470 H1484 0.961 . S
C1471 C1468 1.539 . S
C1471 H1485 0.958 . S
C1471 H1486 0.961 . S
C1471 H1487 0.960 . S
H1472 C1456 0.931 . S
H1473 C1461 0.929 . S
H1474 C1462 0.960 . S
H1475 C1462 0.962 . S
H1476 C1462 0.960 . S
H1477 C1463 0.961 1_545 S
H1478 C1463 0.961 . S
H1479 C1463 0.961 . S
H1480 C1464 0.931 . S
H1481 C1469 0.930 . S
H1482 C1470 0.956 . S
H1483 C1470 0.961 . S
H1484 C1470 0.961 . S
H1485 C1471 0.958 . S
H1486 C1471 0.961 . S
H1487 C1471 0.960 . S
C1488 C1489 1.391 . S
C1488 C1490 1.394 . S
C1488 H1504 0.931 . S
C1489 C1488 1.391 . S
C1489 C1493 1.376 . S
C1490 C1488 1.394 . S
C1490 C1491 1.369 . S
C1490 C1494 1.531 . S
C1491 C1490 1.369 . S
C1491 C1492 1.410 . S
C1491 C1499 1.503 . S
C1492 C1491 1.410 . S
C1492 C1493 1.392 . S
C1492 C1495 1.511 . S
C1493 C1489 1.376 . S
C1493 C1492 1.392 . S
C1493 H1505 0.929 . S
C1494 C1490 1.531 . S
C1494 H1506 0.960 . S
C1494 H1507 0.962 . S
C1494 H1508 0.960 . S
C1495 C1492 1.511 . S
C1495 H1509 0.961 . S
C1495 H1510 0.961 . S
C1495 H1511 0.961 . S
C1496 C1497 1.370 . S
C1496 C1498 1.363 . S
C1496 H1512 0.931 . S
C1497 C1496 1.370 . S
C1497 C1501 1.408 . S
C1498 C1496 1.363 . S
C1498 C1499 1.370 . S
C1498 C1502 1.524 . S
C1499 C1491 1.503 . S
C1499 C1498 1.370 . S
C1499 C1500 1.403 . S
C1500 C1499 1.403 . S
C1500 C1501 1.404 . S
C1500 C1503 1.539 . S
C1501 C1497 1.408 . S
C1501 C1500 1.404 . S
C1501 H1513 0.930 . S
C1502 C1498 1.524 . S
C1502 H1514 0.956 . S
C1502 H1515 0.961 . S
C1502 H1516 0.961 . S
C1503 C1500 1.539 . S
C1503 H1517 0.958 . S
C1503 H1518 0.961 . S
C1503 H1519 0.960 . S
H1504 C1488 0.931 . S
H1505 C1493 0.929 . S
H1506 C1494 0.960 . S
H1507 C1494 0.962 . S
H1508 C1494 0.960 . S
H1509 C1495 0.961 . S
H1510 C1495 0.961 . S
H1511 C1495 0.961 . S
H1512 C1496 0.931 . S
H1513 C1501 0.930 . S
H1514 C1502 0.956 . S
H1515 C1502 0.961 . S
H1516 C1502 0.961 . S
H1517 C1503 0.958 . S
H1518 C1503 0.961 . S
H1519 C1503 0.960 . S
C1520 C1521 1.391 . S
C1520 C1522 1.394 . S
C1520 H1536 0.931 . S
C1521 C1520 1.391 . S
C1521 C1525 1.376 . S
C1522 C1520 1.394 . S
C1522 C1523 1.369 . S
C1522 C1526 1.531 . S
C1523 C1522 1.369 . S
C1523 C1524 1.410 . S
C1523 C1531 1.503 . S
C1524 C1523 1.410 . S
C1524 C1525 1.392 . S
C1524 C1527 1.511 . S
C1525 C1521 1.376 . S
C1525 C1524 1.392 . S
C1525 H1537 0.929 . S
C1526 C1522 1.531 . S
C1526 H1538 0.960 . S
C1526 H1539 0.962 . S
C1526 H1540 0.960 . S
C1527 C1524 1.511 . S
C1527 H1541 0.961 . S
C1527 H1542 0.961 . S
C1527 H1543 0.961 . S
C1528 C1529 1.370 . S
C1528 C1530 1.363 . S
C1528 H1544 0.931 . S
C1529 C1528 1.370 . S
C1529 C1533 1.408 . S
C1530 C1528 1.363 . S
C1530 C1531 1.370 . S
C1530 C1534 1.524 . S
C1531 C1523 1.503 . S
C1531 C1530 1.370 . S
C1531 C1532 1.403 . S
C1532 C1531 1.403 . S
C1532 C1533 1.404 . S
C1532 C1535 1.539 . S
C1533 C1529 1.408 . S
C1533 C1532 1.404 . S
C1533 H1545 0.930 . S
C1534 C1530 1.524 . S
C1534 H1546 0.956 . S
C1534 H1547 0.961 . S
C1534 H1548 0.961 . S
C1535 C1532 1.539 . S
C1535 H1549 0.958 . S
C1535 H1550 0.961 . S
C1535 H1551 0.960 . S
H1536 C1520 0.931 . S
H1537 C1525 0.929 . S
H1538 C1526 0.960 . S
H1539 C1526 0.962 . S
H1540 C1526 0.960 . S
H1541 C1527 0.961 . S
H1542 C1527 0.961 . S
H1543 C1527 0.961 . S
H1544 C1528 0.931 . S
H1545 C1533 0.930 . S
H1546 C1534 0.956 . S
H1547 C1534 0.961 . S
H1548 C1534 0.961 . S
H1549 C1535 0.958 . S
H1550 C1535 0.961 . S
H1551 C1535 0.960 . S
C1552 C1553 1.391 . S
C1552 C1554 1.394 . S
C1552 H1568 0.931 . S
C1553 C1552 1.391 . S
C1553 C1557 1.376 . S
C1554 C1552 1.394 . S
C1554 C1555 1.369 . S
C1554 C1558 1.531 . S
C1555 C1554 1.369 . S
C1555 C1556 1.410 . S
C1555 C1563 1.503 . S
C1556 C1555 1.410 . S
C1556 C1557 1.392 . S
C1556 C1559 1.511 . S
C1557 C1553 1.376 . S
C1557 C1556 1.392 . S
C1557 H1569 0.929 . S
C1558 C1554 1.531 . S
C1558 H1570 0.960 . S
C1558 H1571 0.962 . S
C1558 H1572 0.960 . S
C1559 C1556 1.511 . S
C1559 H1573 0.961 . S
C1559 H1574 0.961 . S
C1559 H1575 0.961 . S
C1560 C1561 1.370 . S
C1560 C1562 1.363 . S
C1560 H1576 0.931 . S
C1561 C1560 1.370 . S
C1561 C1565 1.408 . S
C1562 C1560 1.363 . S
C1562 C1563 1.370 . S
C1562 C1566 1.524 . S
C1563 C1555 1.503 . S
C1563 C1562 1.370 . S
C1563 C1564 1.403 . S
C1564 C1563 1.403 . S
C1564 C1565 1.404 . S
C1564 C1567 1.539 . S
C1565 C1561 1.408 . S
C1565 C1564 1.404 . S
C1565 H1577 0.930 . S
C1566 C1562 1.524 . S
C1566 H1578 0.956 . S
C1566 H1579 0.961 . S
C1566 H1580 0.961 . S
C1567 C1564 1.539 . S
C1567 H1581 0.958 . S
C1567 H1582 0.961 . S
C1567 H1583 0.960 . S
H1568 C1552 0.931 . S
H1569 C1557 0.929 . S
H1570 C1558 0.960 . S
H1571 C1558 0.962 . S
H1572 C1558 0.960 . S
H1573 C1559 0.961 . S
H1574 C1559 0.961 . S
H1575 C1559 0.961 . S
H1576 C1560 0.931 . S
H1577 C1565 0.930 . S
H1578 C1566 0.956 . S
H1579 C1566 0.961 . S
H1580 C1566 0.961 . S
H1581 C1567 0.958 . S
H1582 C1567 0.961 . S
H1583 C1567 0.960 . S
C1584 C1585 1.391 . S
C1584 C1586 1.394 . S
C1584 H1600 0.931 . S
C1585 C1584 1.391 . S
C1585 C1589 1.376 . S
C1586 C1584 1.394 . S
C1586 C1587 1.369 . S
C1586 C1590 1.531 . S
C1587 C1586 1.369 . S
C1587 C1588 1.410 . S
C1587 C1595 1.503 . S
C1588 C1587 1.410 . S
C1588 C1589 1.392 . S
C1588 C1591 1.511 . S
C1589 C1585 1.376 . S
C1589 C1588 1.392 . S
C1589 H1601 0.929 . S
C1590 C1586 1.531 . S
C1590 H1602 0.960 . S
C1590 H1603 0.962 . S
C1590 H1604 0.960 . S
C1591 C1588 1.511 . S
C1591 H1605 0.961 . S
C1591 H1606 0.961 . S
C1591 H1607 0.961 . S
C1592 C1593 1.370 . S
C1592 C1594 1.363 . S
C1592 H1608 0.931 . S
C1593 C1592 1.370 . S
C1593 C1597 1.408 . S
C1594 C1592 1.363 . S
C1594 C1595 1.370 . S
C1594 C1598 1.524 . S
C1595 C1587 1.503 . S
C1595 C1594 1.370 . S
C1595 C1596 1.403 . S
C1596 C1595 1.403 . S
C1596 C1597 1.404 . S
C1596 C1599 1.539 . S
C1597 C1593 1.408 . S
C1597 C1596 1.404 . S
C1597 H1609 0.930 . S
C1598 C1594 1.524 . S
C1598 H1610 0.956 . S
C1598 H1611 0.961 . S
C1598 H1612 0.961 . S
C1599 C1596 1.539 . S
C1599 H1613 0.958 . S
C1599 H1614 0.961 . S
C1599 H1615 0.960 . S
H1600 C1584 0.931 . S
H1601 C1589 0.929 . S
H1602 C1590 0.960 . S
H1603 C1590 0.962 . S
H1604 C1590 0.960 . S
H1605 C1591 0.961 . S
H1606 C1591 0.961 . S
H1607 C1591 0.961 . S
H1608 C1592 0.931 . S
H1609 C1597 0.930 . S
H1610 C1598 0.956 . S
H1611 C1598 0.961 . S
H1612 C1598 0.961 . S
H1613 C1599 0.958 . S
H1614 C1599 0.961 . S
H1615 C1599 0.960 . S
C1616 C1617 1.391 . S
C1616 C1618 1.394 . S
C1616 H1632 0.931 . S
C1617 C1616 1.391 . S
C1617 C1621 1.376 . S
C1618 C1616 1.394 . S
C1618 C1619 1.369 . S
C1618 C1622 1.531 . S
C1619 C1618 1.369 . S
C1619 C1620 1.410 . S
C1619 C1627 1.503 . S
C1620 C1619 1.410 . S
C1620 C1621 1.392 . S
C1620 C1623 1.511 . S
C1621 C1617 1.376 . S
C1621 C1620 1.392 . S
C1621 H1633 0.929 . S
C1622 C1618 1.531 . S
C1622 H1634 0.960 . S
C1622 H1635 0.962 . S
C1622 H1636 0.960 . S
C1623 C1620 1.511 . S
C1623 H1637 0.961 . S
C1623 H1638 0.961 . S
C1623 H1639 0.961 . S
C1624 C1625 1.370 . S
C1624 C1626 1.363 . S
C1624 H1640 0.931 . S
C1625 C1624 1.370 . S
C1625 C1629 1.408 . S
C1626 C1624 1.363 . S
C1626 C1627 1.370 . S
C1626 C1630 1.524 . S
C1627 C1619 1.503 . S
C1627 C1626 1.370 . S
C1627 C1628 1.403 . S
C1628 C1627 1.403 . S
C1628 C1629 1.404 . S
C1628 C1631 1.539 . S
C1629 C1625 1.408 . S
C1629 C1628 1.404 . S
C1629 H1641 0.930 . S
C1630 C1626 1.524 . S
C1630 H1642 0.956 . S
C1630 H1643 0.961 . S
C1630 H1644 0.961 . S
C1631 C1628 1.539 . S
C1631 H1645 0.958 . S
C1631 H1646 0.961 . S
C1631 H1647 0.960 . S
H1632 C1616 0.931 . S
H1633 C1621 0.929 . S
H1634 C1622 0.960 . S
H1635 C1622 0.962 . S
H1636 C1622 0.960 . S
H1637 C1623 0.961 . S
H1638 C1623 0.961 . S
H1639 C1623 0.961 . S
H1640 C1624 0.931 . S
H1641 C1629 0.930 . S
H1642 C1630 0.956 . S
H1643 C1630 0.961 . S
H1644 C1630 0.961 . S
H1645 C1631 0.958 . S
H1646 C1631 0.961 . S
H1647 C1631 0.960 . S
C1648 C1649 1.391 . S
C1648 C1650 1.394 . S
C1648 H1664 0.931 . S
C1649 C1648 1.391 . S
C1649 C1653 1.376 . S
C1650 C1648 1.394 . S
C1650 C1651 1.369 . S
C1650 C1654 1.531 . S
C1651 C1650 1.369 . S
C1651 C1652 1.410 . S
C1651 C1659 1.503 . S
C1652 C1651 1.410 . S
C1652 C1653 1.392 . S
C1652 C1655 1.511 . S
C1653 C1649 1.376 . S
C1653 C1652 1.392 . S
C1653 H1665 0.929 . S
C1654 C1650 1.531 . S
C1654 H1666 0.960 . S
C1654 H1667 0.962 . S
C1654 H1668 0.960 . S
C1655 C1652 1.511 . S
C1655 H1669 0.961 . S
C1655 H1670 0.961 . S
C1655 H1671 0.961 . S
C1656 C1657 1.370 . S
C1656 C1658 1.363 . S
C1656 H1672 0.931 . S
C1657 C1656 1.370 . S
C1657 C1661 1.408 . S
C1658 C1656 1.363 . S
C1658 C1659 1.370 . S
C1658 C1662 1.524 . S
C1659 C1651 1.503 . S
C1659 C1658 1.370 . S
C1659 C1660 1.403 . S
C1660 C1659 1.403 . S
C1660 C1661 1.404 . S
C1660 C1663 1.539 . S
C1661 C1657 1.408 . S
C1661 C1660 1.404 . S
C1661 H1673 0.930 . S
C1662 C1658 1.524 . S
C1662 H1674 0.956 . S
C1662 H1675 0.961 . S
C1662 H1676 0.961 . S
C1663 C1660 1.539 . S
C1663 H1677 0.958 . S
C1663 H1678 0.961 . S
C1663 H1679 0.960 . S
H1664 C1648 0.931 . S
H1665 C1653 0.929 . S
H1666 C1654 0.960 . S
H1667 C1654 0.962 . S
H1668 C1654 0.960 . S
H1669 C1655 0.961 . S
H1670 C1655 0.961 . S
H1671 C1655 0.961 . S
H1672 C1656 0.931 . S
H1673 C1661 0.930 . S
H1674 C1662 0.956 . S
H1675 C1662 0.961 . S
H1676 C1662 0.961 . S
H1677 C1663 0.958 . S
H1678 C1663 0.961 . S
H1679 C1663 0.960 . S
C1680 C1681 1.391 . S
C1680 C1682 1.394 1_545 S
C1680 H1696 0.931 . S
C1681 C1680 1.391 . S
C1681 C1685 1.376 . S
C1682 C1680 1.394 1_565 S
C1682 C1683 1.369 . S
C1682 C1686 1.531 . S
C1683 C1682 1.369 . S
C1683 C1684 1.410 . S
C1683 C1691 1.503 . S
C1684 C1683 1.410 . S
C1684 C1685 1.392 1_565 S
C1684 C1687 1.511 . S
C1685 C1681 1.376 . S
C1685 C1684 1.392 1_545 S
C1685 H1697 0.929 . S
C1686 C1682 1.531 . S
C1686 H1698 0.960 . S
C1686 H1699 0.962 . S
C1686 H1700 0.960 . S
C1687 C1684 1.511 . S
C1687 H1701 0.961 . S
C1687 H1702 0.961 . S
C1687 H1703 0.961 . S
C1688 C1689 1.370 . S
C1688 C1690 1.363 . S
C1688 H1704 0.931 . S
C1689 C1688 1.370 . S
C1689 C1693 1.408 . S
C1690 C1688 1.363 . S
C1690 C1691 1.370 . S
C1690 C1694 1.524 . S
C1691 C1683 1.503 . S
C1691 C1690 1.370 . S
C1691 C1692 1.403 . S
C1692 C1691 1.403 . S
C1692 C1693 1.404 . S
C1692 C1695 1.539 . S
C1693 C1689 1.408 . S
C1693 C1692 1.404 . S
C1693 H1705 0.930 . S
C1694 C1690 1.524 . S
C1694 H1706 0.956 . S
C1694 H1707 0.961 . S
C1694 H1708 0.961 . S
C1695 C1692 1.539 . S
C1695 H1709 0.958 . S
C1695 H1710 0.961 . S
C1695 H1711 0.960 . S
H1696 C1680 0.931 . S
H1697 C1685 0.929 . S
H1698 C1686 0.960 . S
H1699 C1686 0.962 . S
H1700 C1686 0.960 . S
H1701 C1687 0.961 . S
H1702 C1687 0.961 . S
H1703 C1687 0.961 . S
H1704 C1688 0.931 . S
H1705 C1693 0.930 . S
H1706 C1694 0.956 . S
H1707 C1694 0.961 . S
H1708 C1694 0.961 . S
H1709 C1695 0.958 . S
H1710 C1695 0.961 . S
H1711 C1695 0.960 . S
C1712 C1713 1.391 . S
C1712 C1714 1.394 1_655 S
C1712 H1728 0.931 . S
C1713 C1712 1.391 . S
C1713 C1717 1.376 1_655 S
C1714 C1712 1.394 1_455 S
C1714 C1715 1.369 . S
C1714 C1718 1.531 . S
C1715 C1714 1.369 . S
C1715 C1716 1.410 . S
C1715 C1723 1.503 . S
C1716 C1715 1.410 . S
C1716 C1717 1.392 . S
C1716 C1719 1.511 . S
C1717 C1713 1.376 1_455 S
C1717 C1716 1.392 . S
C1717 H1729 0.929 . S
C1718 C1714 1.531 . S
C1718 H1730 0.960 . S
C1718 H1731 0.962 . S
C1718 H1732 0.960 1_455 S
C1719 C1716 1.511 . S
C1719 H1733 0.961 . S
C1719 H1734 0.961 . S
C1719 H1735 0.961 . S
C1720 C1721 1.370 . S
C1720 C1722 1.363 . S
C1720 H1736 0.931 . S
C1721 C1720 1.370 . S
C1721 C1725 1.408 . S
C1722 C1720 1.363 . S
C1722 C1723 1.370 . S
C1722 C1726 1.524 . S
C1723 C1715 1.503 . S
C1723 C1722 1.370 . S
C1723 C1724 1.403 . S
C1724 C1723 1.403 . S
C1724 C1725 1.404 . S
C1724 C1727 1.539 . S
C1725 C1721 1.408 . S
C1725 C1724 1.404 . S
C1725 H1737 0.930 . S
C1726 C1722 1.524 . S
C1726 H1738 0.956 . S
C1726 H1739 0.961 . S
C1726 H1740 0.961 . S
C1727 C1724 1.539 . S
C1727 H1741 0.958 . S
C1727 H1742 0.961 . S
C1727 H1743 0.960 . S
H1728 C1712 0.931 . S
H1729 C1717 0.929 . S
H1730 C1718 0.960 . S
H1731 C1718 0.962 . S
H1732 C1718 0.960 1_655 S
H1733 C1719 0.961 . S
H1734 C1719 0.961 . S
H1735 C1719 0.961 . S
H1736 C1720 0.931 . S
H1737 C1725 0.930 . S
H1738 C1726 0.956 . S
H1739 C1726 0.961 . S
H1740 C1726 0.961 . S
H1741 C1727 0.958 . S
H1742 C1727 0.961 . S
H1743 C1727 0.960 . S
C1744 C1745 1.391 . S
C1744 C1746 1.394 . S
C1744 H1760 0.931 . S
C1745 C1744 1.391 . S
C1745 C1749 1.376 . S
C1746 C1744 1.394 . S
C1746 C1747 1.369 . S
C1746 C1750 1.531 . S
C1747 C1746 1.369 . S
C1747 C1748 1.410 . S
C1747 C1755 1.503 . S
C1748 C1747 1.410 . S
C1748 C1749 1.392 . S
C1748 C1751 1.511 . S
C1749 C1745 1.376 . S
C1749 C1748 1.392 . S
C1749 H1761 0.929 . S
C1750 C1746 1.531 . S
C1750 H1762 0.960 . S
C1750 H1763 0.962 . S
C1750 H1764 0.960 . S
C1751 C1748 1.511 . S
C1751 H1765 0.961 . S
C1751 H1766 0.961 . S
C1751 H1767 0.961 . S
C1752 C1753 1.370 . S
C1752 C1754 1.363 . S
C1752 H1768 0.931 . S
C1753 C1752 1.370 . S
C1753 C1757 1.408 . S
C1754 C1752 1.363 . S
C1754 C1755 1.370 . S
C1754 C1758 1.524 . S
C1755 C1747 1.503 . S
C1755 C1754 1.370 . S
C1755 C1756 1.403 . S
C1756 C1755 1.403 . S
C1756 C1757 1.404 . S
C1756 C1759 1.539 . S
C1757 C1753 1.408 . S
C1757 C1756 1.404 . S
C1757 H1769 0.930 . S
C1758 C1754 1.524 . S
C1758 H1770 0.956 . S
C1758 H1771 0.961 . S
C1758 H1772 0.961 . S
C1759 C1756 1.539 . S
C1759 H1773 0.958 . S
C1759 H1774 0.961 . S
C1759 H1775 0.960 . S
H1760 C1744 0.931 . S
H1761 C1749 0.929 . S
H1762 C1750 0.960 . S
H1763 C1750 0.962 . S
H1764 C1750 0.960 . S
H1765 C1751 0.961 . S
H1766 C1751 0.961 . S
H1767 C1751 0.961 . S
H1768 C1752 0.931 . S
H1769 C1757 0.930 . S
H1770 C1758 0.956 . S
H1771 C1758 0.961 . S
H1772 C1758 0.961 . S
H1773 C1759 0.958 . S
H1774 C1759 0.961 . S
H1775 C1759 0.960 . S
C1776 C1777 1.391 . S
C1776 C1778 1.394 . S
C1776 H1792 0.931 . S
C1777 C1776 1.391 . S
C1777 C1781 1.376 . S
C1778 C1776 1.394 . S
C1778 C1779 1.369 . S
C1778 C1782 1.531 . S
C1779 C1778 1.369 . S
C1779 C1780 1.410 . S
C1779 C1787 1.503 . S
C1780 C1779 1.410 . S
C1780 C1781 1.392 . S
C1780 C1783 1.511 . S
C1781 C1777 1.376 . S
C1781 C1780 1.392 . S
C1781 H1793 0.929 . S
C1782 C1778 1.531 . S
C1782 H1794 0.960 . S
C1782 H1795 0.962 . S
C1782 H1796 0.960 . S
C1783 C1780 1.511 . S
C1783 H1797 0.961 . S
C1783 H1798 0.961 . S
C1783 H1799 0.961 . S
C1784 C1785 1.370 . S
C1784 C1786 1.363 . S
C1784 H1800 0.931 . S
C1785 C1784 1.370 . S
C1785 C1789 1.408 . S
C1786 C1784 1.363 . S
C1786 C1787 1.370 . S
C1786 C1790 1.524 . S
C1787 C1779 1.503 . S
C1787 C1786 1.370 . S
C1787 C1788 1.403 . S
C1788 C1787 1.403 . S
C1788 C1789 1.404 . S
C1788 C1791 1.539 . S
C1789 C1785 1.408 . S
C1789 C1788 1.404 . S
C1789 H1801 0.930 . S
C1790 C1786 1.524 . S
C1790 H1802 0.956 . S
C1790 H1803 0.961 . S
C1790 H1804 0.961 . S
C1791 C1788 1.539 . S
C1791 H1805 0.958 . S
C1791 H1806 0.961 . S
C1791 H1807 0.960 . S
H1792 C1776 0.931 . S
H1793 C1781 0.929 . S
H1794 C1782 0.960 . S
H1795 C1782 0.962 . S
H1796 C1782 0.960 . S
H1797 C1783 0.961 . S
H1798 C1783 0.961 . S
H1799 C1783 0.961 . S
H1800 C1784 0.931 . S
H1801 C1789 0.930 . S
H1802 C1790 0.956 . S
H1803 C1790 0.961 . S
H1804 C1790 0.961 . S
H1805 C1791 0.958 . S
H1806 C1791 0.961 . S
H1807 C1791 0.960 . S
C1808 C1809 1.391 . S
C1808 C1810 1.394 . S
C1808 H1824 0.931 . S
C1809 C1808 1.391 . S
C1809 C1813 1.376 . S
C1810 C1808 1.394 . S
C1810 C1811 1.369 . S
C1810 C1814 1.531 . S
C1811 C1810 1.369 . S
C1811 C1812 1.410 . S
C1811 C1819 1.503 . S
C1812 C1811 1.410 . S
C1812 C1813 1.392 . S
C1812 C1815 1.511 . S
C1813 C1809 1.376 . S
C1813 C1812 1.392 . S
C1813 H1825 0.929 . S
C1814 C1810 1.531 . S
C1814 H1826 0.960 . S
C1814 H1827 0.962 . S
C1814 H1828 0.960 . S
C1815 C1812 1.511 . S
C1815 H1829 0.961 . S
C1815 H1830 0.961 . S
C1815 H1831 0.961 . S
C1816 C1817 1.370 . S
C1816 C1818 1.363 . S
C1816 H1832 0.931 . S
C1817 C1816 1.370 . S
C1817 C1821 1.408 . S
C1818 C1816 1.363 . S
C1818 C1819 1.370 . S
C1818 C1822 1.524 . S
C1819 C1811 1.503 . S
C1819 C1818 1.370 . S
C1819 C1820 1.403 . S
C1820 C1819 1.403 . S
C1820 C1821 1.404 . S
C1820 C1823 1.539 . S
C1821 C1817 1.408 . S
C1821 C1820 1.404 . S
C1821 H1833 0.930 . S
C1822 C1818 1.524 . S
C1822 H1834 0.956 . S
C1822 H1835 0.961 . S
C1822 H1836 0.961 . S
C1823 C1820 1.539 . S
C1823 H1837 0.958 . S
C1823 H1838 0.961 . S
C1823 H1839 0.960 . S
H1824 C1808 0.931 . S
H1825 C1813 0.929 . S
H1826 C1814 0.960 . S
H1827 C1814 0.962 . S
H1828 C1814 0.960 . S
H1829 C1815 0.961 . S
H1830 C1815 0.961 . S
H1831 C1815 0.961 . S
H1832 C1816 0.931 . S
H1833 C1821 0.930 . S
H1834 C1822 0.956 . S
H1835 C1822 0.961 . S
H1836 C1822 0.961 . S
H1837 C1823 0.958 . S
H1838 C1823 0.961 . S
H1839 C1823 0.960 . S
C1840 C1841 1.391 . S
C1840 C1842 1.394 . S
C1840 H1856 0.931 . S
C1841 C1840 1.391 . S
C1841 C1845 1.376 . S
C1842 C1840 1.394 . S
C1842 C1843 1.369 . S
C1842 C1846 1.531 . S
C1843 C1842 1.369 . S
C1843 C1844 1.410 . S
C1843 C1851 1.503 . S
C1844 C1843 1.410 . S
C1844 C1845 1.392 . S
C1844 C1847 1.511 . S
C1845 C1841 1.376 . S
C1845 C1844 1.392 . S
C1845 H1857 0.929 . S
C1846 C1842 1.531 . S
C1846 H1858 0.960 . S
C1846 H1859 0.962 . S
C1846 H1860 0.960 . S
C1847 C1844 1.511 . S
C1847 H1861 0.961 . S
C1847 H1862 0.961 . S
C1847 H1863 0.961 . S
C1848 C1849 1.370 . S
C1848 C1850 1.363 . S
C1848 H1864 0.931 . S
C1849 C1848 1.370 . S
C1849 C1853 1.408 . S
C1850 C1848 1.363 . S
C1850 C1851 1.370 . S
C1850 C1854 1.524 . S
C1851 C1843 1.503 . S
C1851 C1850 1.370 . S
C1851 C1852 1.403 . S
C1852 C1851 1.403 . S
C1852 C1853 1.404 . S
C1852 C1855 1.539 . S
C1853 C1849 1.408 . S
C1853 C1852 1.404 . S
C1853 H1865 0.930 . S
C1854 C1850 1.524 . S
C1854 H1866 0.956 . S
C1854 H1867 0.961 . S
C1854 H1868 0.961 . S
C1855 C1852 1.539 . S
C1855 H1869 0.958 . S
C1855 H1870 0.961 . S
C1855 H1871 0.960 . S
H1856 C1840 0.931 . S
H1857 C1845 0.929 . S
H1858 C1846 0.960 . S
H1859 C1846 0.962 . S
H1860 C1846 0.960 . S
H1861 C1847 0.961 . S
H1862 C1847 0.961 . S
H1863 C1847 0.961 . S
H1864 C1848 0.931 . S
H1865 C1853 0.930 . S
H1866 C1854 0.956 . S
H1867 C1854 0.961 . S
H1868 C1854 0.961 . S
H1869 C1855 0.958 . S
H1870 C1855 0.961 . S
H1871 C1855 0.960 . S
C1872 C1873 1.391 . S
C1872 C1874 1.394 1_565 S
C1872 H1888 0.931 . S
C1873 C1872 1.391 . S
C1873 C1877 1.376 . S
C1874 C1872 1.394 1_545 S
C1874 C1875 1.369 . S
C1874 C1878 1.531 . S
C1875 C1874 1.369 . S
C1875 C1876 1.422 . S
C1875 C1883 1.503 . S
C1876 C1875 1.422 . S
C1876 C1877 1.350 1_545 S
C1876 C1879 1.541 . S
C1877 C1873 1.376 . S
C1877 C1876 1.350 1_565 S
C1877 H1889 0.929 . S
C1878 C1874 1.531 . S
C1878 H1890 0.960 . S
C1878 H1891 0.962 . S
C1878 H1892 0.960 . S
C1879 C1876 1.541 . S
C1879 H1893 0.973 . S
C1879 H1894 0.961 . S
C1879 H1895 0.961 . S
C1880 C1881 1.370 . S
C1880 C1882 1.363 . S
C1880 H1896 0.931 . S
C1881 C1880 1.370 . S
C1881 C1885 1.408 . S
C1882 C1880 1.363 . S
C1882 C1883 1.370 . S
C1882 C1886 1.524 . S
C1883 C1875 1.503 . S
C1883 C1882 1.370 . S
C1883 C1884 1.403 . S
C1884 C1883 1.403 . S
C1884 C1885 1.404 . S
C1884 C1887 1.539 . S
C1885 C1881 1.408 . S
C1885 C1884 1.404 . S
C1885 H1897 0.930 . S
C1886 C1882 1.524 . S
C1886 H1898 0.956 . S
C1886 H1899 0.961 . S
C1886 H1900 0.961 . S
C1887 C1884 1.539 . S
C1887 H1901 0.958 . S
C1887 H1902 0.961 . S
C1887 H1903 0.960 . S
H1888 C1872 0.931 . S
H1889 C1877 0.929 . S
H1890 C1878 0.960 . S
H1891 C1878 0.962 . S
H1892 C1878 0.960 . S
H1893 C1879 0.973 . S
H1894 C1879 0.961 . S
H1895 C1879 0.961 . S
H1896 C1880 0.931 . S
H1897 C1885 0.930 . S
H1898 C1886 0.956 . S
H1899 C1886 0.961 . S
H1900 C1886 0.961 . S
H1901 C1887 0.958 . S
H1902 C1887 0.961 . S
H1903 C1887 0.960 . S
C1904 C1905 1.391 1_655 S
C1904 C1906 1.394 . S
C1904 H1920 0.931 . S
C1905 C1904 1.391 1_455 S
C1905 C1909 1.376 . S
C1906 C1904 1.394 . S
C1906 C1907 1.369 . S
C1906 C1910 1.531 . S
C1907 C1906 1.369 . S
C1907 C1908 1.410 . S
C1907 C1915 1.503 . S
C1908 C1907 1.410 . S
C1908 C1909 1.392 1_655 S
C1908 C1911 1.511 . S
C1909 C1905 1.376 . S
C1909 C1908 1.392 1_455 S
C1909 H1921 0.929 . S
C1910 C1906 1.531 . S
C1910 H1922 0.960 . S
C1910 H1923 0.962 . S
C1910 H1924 0.960 . S
C1911 C1908 1.511 . S
C1911 H1925 0.961 1_655 S
C1911 H1926 0.961 . S
C1911 H1927 0.961 . S
C1912 C1913 1.370 . S
C1912 C1914 1.363 . S
C1912 H1928 0.931 . S
C1913 C1912 1.370 . S
C1913 C1917 1.408 . S
C1914 C1912 1.363 . S
C1914 C1915 1.370 . S
C1914 C1918 1.524 . S
C1915 C1907 1.503 . S
C1915 C1914 1.370 . S
C1915 C1916 1.403 . S
C1916 C1915 1.403 . S
C1916 C1917 1.404 . S
C1916 C1919 1.539 . S
C1917 C1913 1.408 . S
C1917 C1916 1.404 . S
C1917 H1929 0.930 . S
C1918 C1914 1.524 . S
C1918 H1930 0.956 . S
C1918 H1931 0.961 . S
C1918 H1932 0.961 . S
C1919 C1916 1.539 . S
C1919 H1933 0.958 . S
C1919 H1934 0.961 . S
C1919 H1935 0.960 . S
H1920 C1904 0.931 . S
H1921 C1909 0.929 . S
H1922 C1910 0.960 . S
H1923 C1910 0.962 . S
H1924 C1910 0.960 . S
H1925 C1911 0.961 1_455 S
H1926 C1911 0.961 . S
H1927 C1911 0.961 . S
H1928 C1912 0.931 . S
H1929 C1917 0.930 . S
H1930 C1918 0.956 . S
H1931 C1918 0.961 . S
H1932 C1918 0.961 . S
H1933 C1919 0.958 . S
H1934 C1919 0.961 . S
H1935 C1919 0.960 . S
C1936 C1937 1.391 . S
C1936 C1938 1.394 . S
C1936 H1952 0.931 . S
C1937 C1936 1.391 . S
C1937 C1941 1.376 . S
C1938 C1936 1.394 . S
C1938 C1939 1.369 . S
C1938 C1942 1.531 . S
C1939 C1938 1.369 . S
C1939 C1940 1.410 . S
C1939 C1947 1.503 . S
C1940 C1939 1.410 . S
C1940 C1941 1.392 . S
C1940 C1943 1.511 . S
C1941 C1937 1.376 . S
C1941 C1940 1.392 . S
C1941 H1953 0.929 . S
C1942 C1938 1.531 . S
C1942 H1954 0.960 . S
C1942 H1955 0.962 . S
C1942 H1956 0.960 . S
C1943 C1940 1.511 . S
C1943 H1957 0.961 . S
C1943 H1958 0.961 . S
C1943 H1959 0.961 . S
C1944 C1945 1.370 . S
C1944 C1946 1.363 . S
C1944 H1960 0.931 . S
C1945 C1944 1.370 . S
C1945 C1949 1.408 . S
C1946 C1944 1.363 . S
C1946 C1947 1.370 . S
C1946 C1950 1.524 . S
C1947 C1939 1.503 . S
C1947 C1946 1.370 . S
C1947 C1948 1.403 . S
C1948 C1947 1.403 . S
C1948 C1949 1.404 . S
C1948 C1951 1.539 . S
C1949 C1945 1.408 . S
C1949 C1948 1.404 . S
C1949 H1961 0.930 . S
C1950 C1946 1.524 . S
C1950 H1962 0.956 . S
C1950 H1963 0.961 . S
C1950 H1964 0.961 . S
C1951 C1948 1.539 . S
C1951 H1965 0.958 . S
C1951 H1966 0.961 . S
C1951 H1967 0.960 . S
H1952 C1936 0.931 . S
H1953 C1941 0.929 . S
H1954 C1942 0.960 . S
H1955 C1942 0.962 . S
H1956 C1942 0.960 . S
H1957 C1943 0.961 . S
H1958 C1943 0.961 . S
H1959 C1943 0.961 . S
H1960 C1944 0.931 . S
H1961 C1949 0.930 . S
H1962 C1950 0.956 . S
H1963 C1950 0.961 . S
H1964 C1950 0.961 . S
H1965 C1951 0.958 . S
H1966 C1951 0.961 . S
H1967 C1951 0.960 . S
C1968 C1969 1.391 . S
C1968 C1970 1.394 1_455 S
C1968 H1984 0.931 . S
C1969 C1968 1.391 . S
C1969 C1973 1.376 . S
C1970 C1968 1.394 1_655 S
C1970 C1971 1.369 . S
C1970 C1974 1.531 . S
C1971 C1970 1.369 . S
C1971 C1972 1.410 . S
C1971 C1979 1.503 . S
C1972 C1971 1.410 . S
C1972 C1973 1.392 1_655 S
C1972 C1975 1.511 . S
C1973 C1969 1.376 . S
C1973 C1972 1.392 1_455 S
C1973 H1985 0.929 . S
C1974 C1970 1.531 . S
C1974 H1986 0.960 . S
C1974 H1987 0.962 . S
C1974 H1988 0.960 1_655 S
C1975 C1972 1.511 . S
C1975 H1989 0.961 . S
C1975 H1990 0.961 . S
C1975 H1991 0.961 . S
C1976 C1977 1.370 . S
C1976 C1978 1.363 . S
C1976 H1992 0.931 . S
C1977 C1976 1.370 . S
C1977 C1981 1.408 . S
C1978 C1976 1.363 . S
C1978 C1979 1.370 . S
C1978 C1982 1.524 . S
C1979 C1971 1.503 . S
C1979 C1978 1.370 . S
C1979 C1980 1.403 . S
C1980 C1979 1.403 . S
C1980 C1981 1.404 . S
C1980 C1983 1.539 . S
C1981 C1977 1.408 . S
C1981 C1980 1.404 . S
C1981 H1993 0.930 . S
C1982 C1978 1.524 . S
C1982 H1994 0.956 . S
C1982 H1995 0.961 . S
C1982 H1996 0.961 . S
C1983 C1980 1.539 . S
C1983 H1997 0.958 . S
C1983 H1998 0.961 . S
C1983 H1999 0.960 . S
H1984 C1968 0.931 . S
H1985 C1973 0.929 . S
H1986 C1974 0.960 . S
H1987 C1974 0.962 . S
H1988 C1974 0.960 1_455 S
H1989 C1975 0.961 . S
H1990 C1975 0.961 . S
H1991 C1975 0.961 . S
H1992 C1976 0.931 . S
H1993 C1981 0.930 . S
H1994 C1982 0.956 . S
H1995 C1982 0.961 . S
H1996 C1982 0.961 . S
H1997 C1983 0.958 . S
H1998 C1983 0.961 . S
H1999 C1983 0.960 . S
C2000 C2001 1.391 . S
C2000 C2002 1.394 . S
C2000 H2016 0.931 . S
C2001 C2000 1.391 . S
C2001 C2005 1.376 . S
C2002 C2000 1.394 . S
C2002 C2003 1.369 . S
C2002 C2006 1.531 . S
C2003 C2002 1.369 . S
C2003 C2004 1.410 . S
C2003 C2011 1.503 . S
C2004 C2003 1.410 . S
C2004 C2005 1.392 . S
C2004 C2007 1.511 . S
C2005 C2001 1.376 . S
C2005 C2004 1.392 . S
C2005 H2017 0.929 . S
C2006 C2002 1.531 . S
C2006 H2018 0.960 . S
C2006 H2019 0.962 . S
C2006 H2020 0.960 . S
C2007 C2004 1.511 . S
C2007 H2021 0.961 . S
C2007 H2022 0.961 . S
C2007 H2023 0.961 . S
C2008 C2009 1.370 . S
C2008 C2010 1.363 . S
C2008 H2024 0.931 . S
C2009 C2008 1.370 . S
C2009 C2013 1.408 . S
C2010 C2008 1.363 . S
C2010 C2011 1.370 . S
C2010 C2014 1.524 . S
C2011 C2003 1.503 . S
C2011 C2010 1.370 . S
C2011 C2012 1.403 . S
C2012 C2011 1.403 . S
C2012 C2013 1.404 . S
C2012 C2015 1.539 . S
C2013 C2009 1.408 . S
C2013 C2012 1.404 . S
C2013 H2025 0.930 . S
C2014 C2010 1.524 . S
C2014 H2026 0.956 . S
C2014 H2027 0.961 . S
C2014 H2028 0.961 . S
C2015 C2012 1.539 . S
C2015 H2029 0.958 . S
C2015 H2030 0.961 . S
C2015 H2031 0.960 . S
H2016 C2000 0.931 . S
H2017 C2005 0.929 . S
H2018 C2006 0.960 . S
H2019 C2006 0.962 . S
H2020 C2006 0.960 . S
H2021 C2007 0.961 . S
H2022 C2007 0.961 . S
H2023 C2007 0.961 . S
H2024 C2008 0.931 . S
H2025 C2013 0.930 . S
H2026 C2014 0.956 . S
H2027 C2014 0.961 . S
H2028 C2014 0.961 . S
H2029 C2015 0.958 . S
H2030 C2015 0.961 . S
H2031 C2015 0.960 . S
C2032 C2033 1.391 . S
C2032 C2034 1.394 . S
C2032 H2048 0.931 . S
C2033 C2032 1.391 . S
C2033 C2037 1.376 . S
C2034 C2032 1.394 . S
C2034 C2035 1.369 1_565 S
C2034 C2038 1.531 1_565 S
C2035 C2034 1.369 1_545 S
C2035 C2036 1.410 1_545 S
C2035 C2043 1.503 . S
C2036 C2035 1.410 1_565 S
C2036 C2037 1.392 . S
C2036 C2039 1.511 1_565 S
C2037 C2033 1.376 . S
C2037 C2036 1.392 . S
C2037 H2049 0.929 . S
C2038 C2034 1.531 1_545 S
C2038 H2050 0.960 . S
C2038 H2051 0.962 . S
C2038 H2052 0.980 . S
C2039 C2036 1.511 1_545 S
C2039 H2053 0.961 . S
C2039 H2054 0.961 . S
C2039 H2055 0.961 . S
C2040 C2041 1.370 . S
C2040 C2042 1.363 . S
C2040 H2056 0.931 . S
C2041 C2040 1.370 . S
C2041 C2045 1.408 . S
C2042 C2040 1.363 . S
C2042 C2043 1.370 . S
C2042 C2046 1.524 . S
C2043 C2035 1.503 . S
C2043 C2042 1.370 . S
C2043 C2044 1.403 . S
C2044 C2043 1.403 . S
C2044 C2045 1.404 . S
C2044 C2047 1.539 . S
C2045 C2041 1.408 . S
C2045 C2044 1.404 . S
C2045 H2057 0.930 . S
C2046 C2042 1.524 . S
C2046 H2058 0.956 . S
C2046 H2059 0.961 . S
C2046 H2060 0.961 . S
C2047 C2044 1.539 . S
C2047 H2061 0.958 . S
C2047 H2062 0.961 . S
C2047 H2063 0.960 . S
H2048 C2032 0.931 . S
H2049 C2037 0.929 . S
H2050 C2038 0.960 . S
H2051 C2038 0.962 . S
H2052 C2038 0.980 . S
H2053 C2039 0.961 . S
H2054 C2039 0.961 . S
H2055 C2039 0.961 . S
H2056 C2040 0.931 . S
H2057 C2045 0.930 . S
H2058 C2046 0.956 . S
H2059 C2046 0.961 . S
H2060 C2046 0.961 . S
H2061 C2047 0.958 . S
H2062 C2047 0.961 . S
H2063 C2047 0.960 . S
C2064 C2065 1.391 . S
C2064 C2066 1.394 . S
C2064 H2080 0.931 . S
C2065 C2064 1.391 . S
C2065 C2069 1.376 . S
C2066 C2064 1.394 . S
C2066 C2067 1.369 . S
C2066 C2070 1.531 . S
C2067 C2066 1.369 . S
C2067 C2068 1.410 . S
C2067 C2075 1.503 . S
C2068 C2067 1.410 . S
C2068 C2069 1.392 . S
C2068 C2071 1.511 . S
C2069 C2065 1.376 . S
C2069 C2068 1.392 . S
C2069 H2081 0.929 . S
C2070 C2066 1.531 . S
C2070 H2082 0.960 . S
C2070 H2083 0.962 . S
C2070 H2084 0.960 . S
C2071 C2068 1.511 . S
C2071 H2085 0.961 . S
C2071 H2086 0.961 . S
C2071 H2087 0.961 . S
C2072 C2073 1.370 . S
C2072 C2074 1.363 . S
C2072 H2088 0.931 . S
C2073 C2072 1.370 . S
C2073 C2077 1.408 . S
C2074 C2072 1.363 . S
C2074 C2075 1.370 . S
C2074 C2078 1.524 . S
C2075 C2067 1.503 . S
C2075 C2074 1.370 . S
C2075 C2076 1.403 . S
C2076 C2075 1.403 . S
C2076 C2077 1.404 . S
C2076 C2079 1.539 . S
C2077 C2073 1.408 . S
C2077 C2076 1.404 . S
C2077 H2089 0.930 . S
C2078 C2074 1.524 . S
C2078 H2090 0.956 . S
C2078 H2091 0.961 . S
C2078 H2092 0.961 . S
C2079 C2076 1.539 . S
C2079 H2093 0.958 . S
C2079 H2094 0.961 . S
C2079 H2095 0.960 . S
H2080 C2064 0.931 . S
H2081 C2069 0.929 . S
H2082 C2070 0.960 . S
H2083 C2070 0.962 . S
H2084 C2070 0.960 . S
H2085 C2071 0.961 . S
H2086 C2071 0.961 . S
H2087 C2071 0.961 . S
H2088 C2072 0.931 . S
H2089 C2077 0.930 . S
H2090 C2078 0.956 . S
H2091 C2078 0.961 . S
H2092 C2078 0.961 . S
H2093 C2079 0.958 . S
H2094 C2079 0.961 . S
H2095 C2079 0.960 . S
C2096 C2097 1.391 . S
C2096 C2098 1.394 . S
C2096 H2112 0.931 . S
C2097 C2096 1.391 . S
C2097 C2101 1.376 . S
C2098 C2096 1.394 . S
C2098 C2099 1.369 . S
C2098 C2102 1.531 . S
C2099 C2098 1.369 . S
C2099 C2100 1.410 . S
C2099 C2107 1.503 . S
C2100 C2099 1.410 . S
C2100 C2101 1.392 . S
C2100 C2103 1.511 . S
C2101 C2097 1.376 . S
C2101 C2100 1.392 . S
C2101 H2113 0.929 . S
C2102 C2098 1.531 . S
C2102 H2114 0.960 . S
C2102 H2115 0.962 . S
C2102 H2116 0.960 . S
C2103 C2100 1.511 . S
C2103 H2117 0.961 . S
C2103 H2118 0.961 . S
C2103 H2119 0.961 . S
C2104 C2105 1.370 . S
C2104 C2106 1.363 . S
C2104 H2120 0.931 . S
C2105 C2104 1.370 . S
C2105 C2109 1.408 . S
C2106 C2104 1.363 . S
C2106 C2107 1.370 . S
C2106 C2110 1.524 . S
C2107 C2099 1.503 . S
C2107 C2106 1.370 . S
C2107 C2108 1.403 . S
C2108 C2107 1.403 . S
C2108 C2109 1.404 . S
C2108 C2111 1.539 . S
C2109 C2105 1.408 . S
C2109 C2108 1.404 . S
C2109 H2121 0.930 . S
C2110 C2106 1.524 . S
C2110 H2122 0.956 . S
C2110 H2123 0.961 . S
C2110 H2124 0.961 . S
C2111 C2108 1.539 . S
C2111 H2125 0.958 . S
C2111 H2126 0.961 . S
C2111 H2127 0.960 . S
H2112 C2096 0.931 . S
H2113 C2101 0.929 . S
H2114 C2102 0.960 . S
H2115 C2102 0.962 . S
H2116 C2102 0.960 . S
H2117 C2103 0.961 . S
H2118 C2103 0.961 . S
H2119 C2103 0.961 . S
H2120 C2104 0.931 . S
H2121 C2109 0.930 . S
H2122 C2110 0.956 . S
H2123 C2110 0.961 . S
H2124 C2110 0.961 . S
H2125 C2111 0.958 . S
H2126 C2111 0.961 . S
H2127 C2111 0.960 . S
C2128 C2129 1.391 . S
C2128 C2130 1.394 . S
C2128 H2144 0.931 . S
C2129 C2128 1.391 . S
C2129 C2133 1.376 . S
C2130 C2128 1.394 . S
C2130 C2131 1.369 . S
C2130 C2134 1.531 . S
C2131 C2130 1.369 . S
C2131 C2132 1.410 . S
C2131 C2139 1.503 . S
C2132 C2131 1.410 . S
C2132 C2133 1.392 . S
C2132 C2135 1.511 . S
C2133 C2129 1.376 . S
C2133 C2132 1.392 . S
C2133 H2145 0.929 . S
C2134 C2130 1.531 . S
C2134 H2146 0.960 . S
C2134 H2147 0.962 . S
C2134 H2148 0.960 . S
C2135 C2132 1.511 . S
C2135 H2149 0.961 . S
C2135 H2150 0.961 . S
C2135 H2151 0.961 . S
C2136 C2137 1.370 . S
C2136 C2138 1.363 . S
C2136 H2152 0.931 . S
C2137 C2136 1.370 . S
C2137 C2141 1.408 . S
C2138 C2136 1.363 . S
C2138 C2139 1.370 . S
C2138 C2142 1.524 . S
C2139 C2131 1.503 . S
C2139 C2138 1.370 . S
C2139 C2140 1.403 . S
C2140 C2139 1.403 . S
C2140 C2141 1.404 . S
C2140 C2143 1.539 . S
C2141 C2137 1.408 . S
C2141 C2140 1.404 . S
C2141 H2153 0.930 . S
C2142 C2138 1.524 . S
C2142 H2154 0.956 . S
C2142 H2155 0.961 . S
C2142 H2156 0.961 . S
C2143 C2140 1.539 . S
C2143 H2157 0.958 . S
C2143 H2158 0.961 . S
C2143 H2159 0.960 . S
H2144 C2128 0.931 . S
H2145 C2133 0.929 . S
H2146 C2134 0.960 . S
H2147 C2134 0.962 . S
H2148 C2134 0.960 . S
H2149 C2135 0.961 . S
H2150 C2135 0.961 . S
H2151 C2135 0.961 . S
H2152 C2136 0.931 . S
H2153 C2141 0.930 . S
H2154 C2142 0.956 . S
H2155 C2142 0.961 . S
H2156 C2142 0.961 . S
H2157 C2143 0.958 . S
H2158 C2143 0.961 . S
H2159 C2143 0.960 . S
C2160 C2161 1.391 . S
C2160 C2162 1.394 . S
C2160 H2176 0.931 1_565 S
C2161 C2160 1.391 . S
C2161 C2165 1.376 . S
C2162 C2160 1.394 . S
C2162 C2163 1.369 . S
C2162 C2166 1.531 1_565 S
C2163 C2162 1.369 . S
C2163 C2164 1.410 . S
C2163 C2171 1.503 . S
C2164 C2163 1.410 . S
C2164 C2165 1.392 . S
C2164 C2167 1.511 . S
C2165 C2161 1.376 . S
C2165 C2164 1.392 . S
C2165 H2177 0.929 . S
C2166 C2162 1.531 1_545 S
C2166 H2178 0.960 . S
C2166 H2179 0.962 . S
C2166 H2180 0.960 . S
C2167 C2164 1.511 . S
C2167 H2181 0.961 . S
C2167 H2182 0.961 . S
C2167 H2183 0.961 . S
C2168 C2169 1.370 . S
C2168 C2170 1.363 . S
C2168 H2184 0.931 . S
C2169 C2168 1.370 . S
C2169 C2173 1.408 . S
C2170 C2168 1.363 . S
C2170 C2171 1.370 . S
C2170 C2174 1.524 . S
C2171 C2163 1.503 . S
C2171 C2170 1.370 . S
C2171 C2172 1.403 . S
C2172 C2171 1.403 . S
C2172 C2173 1.404 . S
C2172 C2175 1.539 . S
C2173 C2169 1.408 . S
C2173 C2172 1.404 . S
C2173 H2185 0.930 . S
C2174 C2170 1.524 . S
C2174 H2186 0.956 . S
C2174 H2187 0.961 . S
C2174 H2188 0.961 . S
C2175 C2172 1.539 . S
C2175 H2189 0.958 . S
C2175 H2190 0.961 . S
C2175 H2191 0.960 . S
H2176 C2160 0.931 1_545 S
H2177 C2165 0.929 . S
H2178 C2166 0.960 . S
H2179 C2166 0.962 . S
H2180 C2166 0.960 . S
H2181 C2167 0.961 . S
H2182 C2167 0.961 . S
H2183 C2167 0.961 . S
H2184 C2168 0.931 . S
H2185 C2173 0.930 . S
H2186 C2174 0.956 . S
H2187 C2174 0.961 . S
H2188 C2174 0.961 . S
H2189 C2175 0.958 . S
H2190 C2175 0.961 . S
H2191 C2175 0.960 . S
C2192 C2193 1.391 . S
C2192 C2194 1.394 . S
C2192 H2208 0.931 . S
C2193 C2192 1.391 . S
C2193 C2197 1.376 . S
C2194 C2192 1.394 . S
C2194 C2195 1.369 . S
C2194 C2198 1.531 . S
C2195 C2194 1.369 . S
C2195 C2196 1.410 . S
C2195 C2203 1.503 . S
C2196 C2195 1.410 . S
C2196 C2197 1.392 . S
C2196 C2199 1.511 . S
C2197 C2193 1.376 . S
C2197 C2196 1.392 . S
C2197 H2209 0.929 . S
C2198 C2194 1.531 . S
C2198 H2210 0.960 . S
C2198 H2211 1.008 . S
C2198 H2212 0.960 . S
C2199 C2196 1.511 . S
C2199 H2213 0.961 . S
C2199 H2214 0.961 . S
C2199 H2215 0.961 . S
C2200 C2201 1.370 1_655 S
C2200 C2202 1.363 . S
C2200 H2216 0.931 . S
C2201 C2200 1.370 1_455 S
C2201 C2205 1.408 . S
C2202 C2200 1.363 . S
C2202 C2203 1.370 1_655 S
C2202 C2206 1.524 . S
C2203 C2195 1.503 . S
C2203 C2202 1.370 1_455 S
C2203 C2204 1.403 . S
C2204 C2203 1.403 . S
C2204 C2205 1.404 . S
C2204 C2207 1.539 . S
C2205 C2201 1.408 . S
C2205 C2204 1.404 . S
C2205 H2217 0.930 . S
C2206 C2202 1.524 . S
C2206 H2218 0.956 . S
C2206 H2219 0.961 . S
C2206 H2220 0.961 . S
C2207 C2204 1.539 . S
C2207 H2221 0.958 . S
C2207 H2222 0.961 . S
C2207 H2223 0.960 . S
H2208 C2192 0.931 . S
H2209 C2197 0.929 . S
H2210 C2198 0.960 . S
H2211 C2198 1.008 . S
H2212 C2198 0.960 . S
H2213 C2199 0.961 . S
H2214 C2199 0.961 . S
H2215 C2199 0.961 . S
H2216 C2200 0.931 . S
H2217 C2205 0.930 . S
H2218 C2206 0.956 . S
H2219 C2206 0.961 . S
H2220 C2206 0.961 . S
H2221 C2207 0.958 . S
H2222 C2207 0.961 . S
H2223 C2207 0.960 . S
C2224 C2225 1.391 . S
C2224 C2226 1.394 . S
C2224 H2240 0.931 . S
C2225 C2224 1.391 . S
C2225 C2229 1.376 . S
C2226 C2224 1.394 . S
C2226 C2227 1.369 . S
C2226 C2230 1.531 . S
C2227 C2226 1.369 . S
C2227 C2228 1.410 . S
C2227 C2235 1.503 . S
C2228 C2227 1.410 . S
C2228 C2229 1.392 . S
C2228 C2231 1.511 . S
C2229 C2225 1.376 . S
C2229 C2228 1.392 . S
C2229 H2241 0.929 . S
C2230 C2226 1.531 . S
C2230 H2242 0.960 . S
C2230 H2243 0.962 . S
C2230 H2244 0.960 . S
C2231 C2228 1.511 . S
C2231 H2245 0.961 . S
C2231 H2246 0.961 . S
C2231 H2247 0.961 . S
C2232 C2233 1.370 . S
C2232 C2234 1.363 . S
C2232 H2248 0.931 . S
C2233 C2232 1.370 . S
C2233 C2237 1.408 . S
C2234 C2232 1.363 . S
C2234 C2235 1.370 . S
C2234 C2238 1.524 . S
C2235 C2227 1.503 . S
C2235 C2234 1.370 . S
C2235 C2236 1.403 . S
C2236 C2235 1.403 . S
C2236 C2237 1.404 . S
C2236 C2239 1.539 . S
C2237 C2233 1.408 . S
C2237 C2236 1.404 . S
C2237 H2249 0.930 . S
C2238 C2234 1.524 . S
C2238 H2250 0.956 . S
C2238 H2251 0.961 . S
C2238 H2252 0.961 . S
C2239 C2236 1.539 . S
C2239 H2253 0.958 . S
C2239 H2254 0.961 . S
C2239 H2255 0.960 . S
H2240 C2224 0.931 . S
H2241 C2229 0.929 . S
H2242 C2230 0.960 . S
H2243 C2230 0.962 . S
H2244 C2230 0.960 . S
H2245 C2231 0.961 . S
H2246 C2231 0.961 . S
H2247 C2231 0.961 . S
H2248 C2232 0.931 . S
H2249 C2237 0.930 . S
H2250 C2238 0.956 . S
H2251 C2238 0.961 . S
H2252 C2238 0.961 . S
H2253 C2239 0.958 . S
H2254 C2239 0.961 . S
H2255 C2239 0.960 . S
C2256 C2257 1.391 1_455 S
C2256 C2258 1.394 . S
C2256 H2272 0.931 . S
C2257 C2256 1.391 1_655 S
C2257 C2261 1.376 . S
C2258 C2256 1.394 . S
C2258 C2259 1.369 1_455 S
C2258 C2262 1.531 . S
C2259 C2258 1.369 1_655 S
C2259 C2260 1.410 . S
C2259 C2267 1.503 . S
C2260 C2259 1.410 . S
C2260 C2261 1.392 . S
C2260 C2263 1.511 . S
C2261 C2257 1.376 . S
C2261 C2260 1.392 . S
C2261 H2273 0.929 . S
C2262 C2258 1.531 . S
C2262 H2274 0.960 . S
C2262 H2275 0.962 . S
C2262 H2276 0.960 . S
C2263 C2260 1.511 . S
C2263 H2277 0.961 . S
C2263 H2278 0.961 . S
C2263 H2279 0.961 . S
C2264 C2265 1.370 . S
C2264 C2266 1.363 . S
C2264 H2280 0.931 . S
C2265 C2264 1.370 . S
C2265 C2269 1.408 . S
C2266 C2264 1.363 . S
C2266 C2267 1.370 . S
C2266 C2270 1.524 . S
C2267 C2259 1.503 . S
C2267 C2266 1.370 . S
C2267 C2268 1.403 . S
C2268 C2267 1.403 . S
C2268 C2269 1.404 . S
C2268 C2271 1.539 . S
C2269 C2265 1.408 . S
C2269 C2268 1.404 . S
C2269 H2281 0.930 . S
C2270 C2266 1.524 . S
C2270 H2282 0.956 1_655 S
C2270 H2283 0.961 . S
C2270 H2284 0.961 . S
C2271 C2268 1.539 . S
C2271 H2285 0.977 . S
C2271 H2286 0.961 . S
C2271 H2287 0.960 . S
H2272 C2256 0.931 . S
H2273 C2261 0.929 . S
H2274 C2262 0.960 . S
H2275 C2262 0.962 . S
H2276 C2262 0.960 . S
H2277 C2263 0.961 . S
H2278 C2263 0.961 . S
H2279 C2263 0.961 . S
H2280 C2264 0.931 . S
H2281 C2269 0.930 . S
H2282 C2270 0.956 1_455 S
H2283 C2270 0.961 . S
H2284 C2270 0.961 . S
H2285 C2271 0.977 . S
H2286 C2271 0.961 . S
H2287 C2271 0.960 . S
C2288 C2289 1.391 . S
C2288 C2290 1.394 . S
C2288 H2304 0.931 . S
C2289 C2288 1.391 . S
C2289 C2293 1.376 . S
C2290 C2288 1.394 . S
C2290 C2291 1.369 . S
C2290 C2294 1.531 . S
C2291 C2290 1.369 . S
C2291 C2292 1.410 . S
C2291 C2299 1.503 . S
C2292 C2291 1.410 . S
C2292 C2293 1.392 . S
C2292 C2295 1.511 . S
C2293 C2289 1.376 . S
C2293 C2292 1.392 . S
C2293 H2305 0.929 . S
C2294 C2290 1.531 . S
C2294 H2306 0.960 . S
C2294 H2307 0.962 . S
C2294 H2308 0.960 . S
C2295 C2292 1.511 . S
C2295 H2309 0.961 . S
C2295 H2310 0.961 . S
C2295 H2311 0.961 . S
C2296 C2297 1.370 . S
C2296 C2298 1.363 . S
C2296 H2312 0.931 . S
C2297 C2296 1.370 . S
C2297 C2301 1.408 . S
C2298 C2296 1.363 . S
C2298 C2299 1.370 . S
C2298 C2302 1.524 . S
C2299 C2291 1.503 . S
C2299 C2298 1.370 . S
C2299 C2300 1.403 . S
C2300 C2299 1.403 . S
C2300 C2301 1.404 . S
C2300 C2303 1.539 . S
C2301 C2297 1.408 . S
C2301 C2300 1.404 . S
C2301 H2313 0.930 . S
C2302 C2298 1.524 . S
C2302 H2314 0.956 . S
C2302 H2315 0.961 . S
C2302 H2316 0.961 . S
C2303 C2300 1.539 . S
C2303 H2317 0.958 . S
C2303 H2318 0.961 . S
C2303 H2319 0.960 . S
H2304 C2288 0.931 . S
H2305 C2293 0.929 . S
H2306 C2294 0.960 . S
H2307 C2294 0.962 . S
H2308 C2294 0.960 . S
H2309 C2295 0.961 . S
H2310 C2295 0.961 . S
H2311 C2295 0.961 . S
H2312 C2296 0.931 . S
H2313 C2301 0.930 . S
H2314 C2302 0.956 . S
H2315 C2302 0.961 . S
H2316 C2302 0.961 . S
H2317 C2303 0.958 . S
H2318 C2303 0.961 . S
H2319 C2303 0.960 . S
C2320 C2321 1.391 . S
C2320 C2322 1.394 . S
C2320 H2336 0.931 . S
C2321 C2320 1.391 . S
C2321 C2325 1.376 . S
C2322 C2320 1.394 . S
C2322 C2323 1.369 . S
C2322 C2326 1.531 . S
C2323 C2322 1.369 . S
C2323 C2324 1.410 . S
C2323 C2331 1.503 . S
C2324 C2323 1.410 . S
C2324 C2325 1.392 . S
C2324 C2327 1.511 1_545 S
C2325 C2321 1.376 . S
C2325 C2324 1.392 . S
C2325 H2337 0.929 1_545 S
C2326 C2322 1.531 . S
C2326 H2338 0.960 . S
C2326 H2339 0.962 . S
C2326 H2340 0.960 . S
C2327 C2324 1.511 1_565 S
C2327 H2341 0.961 . S
C2327 H2342 0.961 . S
C2327 H2343 0.961 . S
C2328 C2329 1.370 . S
C2328 C2330 1.363 . S
C2328 H2344 0.931 . S
C2329 C2328 1.370 . S
C2329 C2333 1.408 . S
C2330 C2328 1.363 . S
C2330 C2331 1.370 . S
C2330 C2334 1.524 . S
C2331 C2323 1.503 . S
C2331 C2330 1.370 . S
C2331 C2332 1.403 . S
C2332 C2331 1.403 . S
C2332 C2333 1.404 . S
C2332 C2335 1.539 . S
C2333 C2329 1.408 . S
C2333 C2332 1.404 . S
C2333 H2345 0.930 . S
C2334 C2330 1.524 . S
C2334 H2346 0.956 . S
C2334 H2347 0.961 . S
C2334 H2348 0.961 . S
C2335 C2332 1.539 . S
C2335 H2349 0.958 . S
C2335 H2350 0.961 . S
C2335 H2351 0.960 . S
H2336 C2320 0.931 . S
H2337 C2325 0.929 1_565 S
H2338 C2326 0.960 . S
H2339 C2326 0.962 . S
H2340 C2326 0.960 . S
H2341 C2327 0.961 . S
H2342 C2327 0.961 . S
H2343 C2327 0.961 . S
H2344 C2328 0.931 . S
H2345 C2333 0.930 . S
H2346 C2334 0.956 . S
H2347 C2334 0.961 . S
H2348 C2334 0.961 . S
H2349 C2335 0.958 . S
H2350 C2335 0.961 . S
H2351 C2335 0.960 . S
C2352 C2353 1.391 . S
C2352 C2354 1.394 . S
C2352 H2368 0.931 . S
C2353 C2352 1.391 . S
C2353 C2357 1.376 . S
C2354 C2352 1.394 . S
C2354 C2355 1.369 . S
C2354 C2358 1.531 . S
C2355 C2354 1.369 . S
C2355 C2356 1.410 . S
C2355 C2363 1.503 . S
C2356 C2355 1.410 . S
C2356 C2357 1.392 . S
C2356 C2359 1.511 . S
C2357 C2353 1.376 . S
C2357 C2356 1.392 . S
C2357 H2369 0.929 . S
C2358 C2354 1.531 . S
C2358 H2370 0.960 . S
C2358 H2371 0.962 . S
C2358 H2372 0.960 . S
C2359 C2356 1.511 . S
C2359 H2373 0.961 . S
C2359 H2374 0.961 . S
C2359 H2375 0.961 . S
C2360 C2361 1.370 . S
C2360 C2362 1.363 . S
C2360 H2376 0.931 . S
C2361 C2360 1.370 . S
C2361 C2365 1.408 . S
C2362 C2360 1.363 . S
C2362 C2363 1.370 . S
C2362 C2366 1.524 . S
C2363 C2355 1.503 . S
C2363 C2362 1.370 . S
C2363 C2364 1.403 . S
C2364 C2363 1.403 . S
C2364 C2365 1.404 . S
C2364 C2367 1.539 . S
C2365 C2361 1.408 . S
C2365 C2364 1.404 . S
C2365 H2377 0.930 . S
C2366 C2362 1.524 . S
C2366 H2378 0.956 . S
C2366 H2379 0.961 . S
C2366 H2380 0.961 . S
C2367 C2364 1.539 . S
C2367 H2381 0.958 . S
C2367 H2382 0.961 . S
C2367 H2383 0.960 . S
H2368 C2352 0.931 . S
H2369 C2357 0.929 . S
H2370 C2358 0.960 . S
H2371 C2358 0.962 . S
H2372 C2358 0.960 . S
H2373 C2359 0.961 . S
H2374 C2359 0.961 . S
H2375 C2359 0.961 . S
H2376 C2360 0.931 . S
H2377 C2365 0.930 . S
H2378 C2366 0.956 . S
H2379 C2366 0.961 . S
H2380 C2366 0.961 . S
H2381 C2367 0.958 . S
H2382 C2367 0.961 . S
H2383 C2367 0.960 . S
C2384 C2385 1.391 . S
C2384 C2386 1.394 . S
C2384 H2400 0.931 . S
C2385 C2384 1.391 . S
C2385 C2389 1.376 . S
C2386 C2384 1.394 . S
C2386 C2387 1.369 . S
C2386 C2390 1.531 . S
C2387 C2386 1.369 . S
C2387 C2388 1.410 . S
C2387 C2395 1.503 . S
C2388 C2387 1.410 . S
C2388 C2389 1.392 . S
C2388 C2391 1.511 . S
C2389 C2385 1.376 . S
C2389 C2388 1.392 . S
C2389 H2401 0.929 . S
C2390 C2386 1.531 . S
C2390 H2402 0.960 . S
C2390 H2403 0.962 . S
C2390 H2404 0.960 . S
C2391 C2388 1.511 . S
C2391 H2405 0.961 . S
C2391 H2406 0.961 . S
C2391 H2407 0.961 . S
C2392 C2393 1.370 . S
C2392 C2394 1.363 . S
C2392 H2408 0.931 . S
C2393 C2392 1.370 . S
C2393 C2397 1.408 . S
C2394 C2392 1.363 . S
C2394 C2395 1.370 . S
C2394 C2398 1.524 . S
C2395 C2387 1.503 . S
C2395 C2394 1.370 . S
C2395 C2396 1.403 . S
C2396 C2395 1.403 . S
C2396 C2397 1.404 . S
C2396 C2399 1.539 . S
C2397 C2393 1.408 . S
C2397 C2396 1.404 . S
C2397 H2409 0.930 . S
C2398 C2394 1.524 . S
C2398 H2410 0.956 . S
C2398 H2411 0.961 . S
C2398 H2412 0.961 . S
C2399 C2396 1.539 . S
C2399 H2413 0.958 . S
C2399 H2414 0.961 . S
C2399 H2415 0.960 . S
H2400 C2384 0.931 . S
H2401 C2389 0.929 . S
H2402 C2390 0.960 . S
H2403 C2390 0.962 . S
H2404 C2390 0.960 . S
H2405 C2391 0.961 . S
H2406 C2391 0.961 . S
H2407 C2391 0.961 . S
H2408 C2392 0.931 . S
H2409 C2397 0.930 . S
H2410 C2398 0.956 . S
H2411 C2398 0.961 . S
H2412 C2398 0.961 . S
H2413 C2399 0.958 . S
H2414 C2399 0.961 . S
H2415 C2399 0.960 . S
C2416 C2417 1.391 . S
C2416 C2418 1.394 . S
C2416 H2432 0.931 . S
C2417 C2416 1.391 . S
C2417 C2421 1.376 . S
C2418 C2416 1.394 . S
C2418 C2419 1.369 . S
C2418 C2422 1.531 . S
C2419 C2418 1.369 . S
C2419 C2420 1.410 . S
C2419 C2427 1.503 . S
C2420 C2419 1.410 . S
C2420 C2421 1.392 . S
C2420 C2423 1.511 . S
C2421 C2417 1.376 . S
C2421 C2420 1.392 . S
C2421 H2433 0.929 . S
C2422 C2418 1.531 . S
C2422 H2434 0.960 . S
C2422 H2435 0.962 . S
C2422 H2436 0.960 . S
C2423 C2420 1.511 . S
C2423 H2437 0.961 . S
C2423 H2438 0.961 . S
C2423 H2439 0.961 . S
C2424 C2425 1.370 . S
C2424 C2426 1.363 . S
C2424 H2440 0.931 . S
C2425 C2424 1.370 . S
C2425 C2429 1.408 . S
C2426 C2424 1.363 . S
C2426 C2427 1.370 . S
C2426 C2430 1.524 . S
C2427 C2419 1.503 . S
C2427 C2426 1.370 . S
C2427 C2428 1.403 . S
C2428 C2427 1.403 . S
C2428 C2429 1.404 . S
C2428 C2431 1.539 . S
C2429 C2425 1.408 . S
C2429 C2428 1.404 . S
C2429 H2441 0.930 . S
C2430 C2426 1.524 . S
C2430 H2442 0.956 . S
C2430 H2443 0.961 . S
C2430 H2444 0.961 . S
C2431 C2428 1.539 . S
C2431 H2445 0.958 . S
C2431 H2446 0.961 . S
C2431 H2447 0.960 . S
H2432 C2416 0.931 . S
H2433 C2421 0.929 . S
H2434 C2422 0.960 . S
H2435 C2422 0.962 . S
H2436 C2422 0.960 . S
H2437 C2423 0.961 . S
H2438 C2423 0.961 . S
H2439 C2423 0.961 . S
H2440 C2424 0.931 . S
H2441 C2429 0.930 . S
H2442 C2430 0.956 . S
H2443 C2430 0.961 . S
H2444 C2430 0.961 . S
H2445 C2431 0.958 . S
H2446 C2431 0.961 . S
H2447 C2431 0.960 . S
C2448 C2449 1.391 . S
C2448 C2450 1.394 . S
C2448 H2464 0.931 . S
C2449 C2448 1.391 . S
C2449 C2453 1.376 . S
C2450 C2448 1.394 . S
C2450 C2451 1.369 . S
C2450 C2454 1.531 . S
C2451 C2450 1.369 . S
C2451 C2452 1.410 . S
C2451 C2459 1.503 . S
C2452 C2451 1.410 . S
C2452 C2453 1.392 . S
C2452 C2455 1.511 . S
C2453 C2449 1.376 . S
C2453 C2452 1.392 . S
C2453 H2465 0.929 . S
C2454 C2450 1.531 . S
C2454 H2466 0.960 . S
C2454 H2467 0.962 . S
C2454 H2468 0.960 . S
C2455 C2452 1.511 . S
C2455 H2469 0.961 . S
C2455 H2470 0.961 . S
C2455 H2471 0.961 . S
C2456 C2457 1.370 . S
C2456 C2458 1.363 . S
C2456 H2472 0.931 . S
C2457 C2456 1.370 . S
C2457 C2461 1.408 . S
C2458 C2456 1.363 . S
C2458 C2459 1.370 . S
C2458 C2462 1.524 . S
C2459 C2451 1.503 . S
C2459 C2458 1.370 . S
C2459 C2460 1.403 . S
C2460 C2459 1.403 . S
C2460 C2461 1.404 . S
C2460 C2463 1.539 . S
C2461 C2457 1.408 . S
C2461 C2460 1.404 . S
C2461 H2473 0.930 . S
C2462 C2458 1.524 . S
C2462 H2474 0.956 . S
C2462 H2475 0.961 . S
C2462 H2476 0.961 . S
C2463 C2460 1.539 . S
C2463 H2477 0.958 . S
C2463 H2478 0.961 . S
C2463 H2479 0.960 . S
H2464 C2448 0.931 . S
H2465 C2453 0.929 . S
H2466 C2454 0.960 . S
H2467 C2454 0.962 . S
H2468 C2454 0.960 . S
H2469 C2455 0.961 . S
H2470 C2455 0.961 . S
H2471 C2455 0.961 . S
H2472 C2456 0.931 . S
H2473 C2461 0.930 . S
H2474 C2462 0.956 . S
H2475 C2462 0.961 . S
H2476 C2462 0.961 . S
H2477 C2463 0.958 . S
H2478 C2463 0.961 . S
H2479 C2463 0.960 . S
C2480 C2481 1.391 . S
C2480 C2482 1.394 . S
C2480 H2496 0.931 . S
C2481 C2480 1.391 . S
C2481 C2485 1.376 . S
C2482 C2480 1.394 . S
C2482 C2483 1.369 . S
C2482 C2486 1.531 . S
C2483 C2482 1.369 . S
C2483 C2484 1.410 . S
C2483 C2491 1.503 . S
C2484 C2483 1.410 . S
C2484 C2485 1.392 . S
C2484 C2487 1.511 . S
C2485 C2481 1.376 . S
C2485 C2484 1.392 . S
C2485 H2497 0.929 . S
C2486 C2482 1.531 . S
C2486 H2498 0.960 . S
C2486 H2499 0.962 . S
C2486 H2500 0.960 . S
C2487 C2484 1.511 . S
C2487 H2501 0.961 . S
C2487 H2502 0.961 . S
C2487 H2503 0.961 . S
C2488 C2489 1.370 . S
C2488 C2490 1.363 . S
C2488 H2504 0.931 . S
C2489 C2488 1.370 . S
C2489 C2493 1.408 . S
C2490 C2488 1.363 . S
C2490 C2491 1.370 . S
C2490 C2494 1.524 . S
C2491 C2483 1.503 . S
C2491 C2490 1.370 . S
C2491 C2492 1.403 . S
C2492 C2491 1.403 . S
C2492 C2493 1.404 . S
C2492 C2495 1.539 . S
C2493 C2489 1.408 . S
C2493 C2492 1.404 . S
C2493 H2505 0.930 . S
C2494 C2490 1.524 . S
C2494 H2506 0.956 . S
C2494 H2507 0.961 . S
C2494 H2508 0.961 . S
C2495 C2492 1.539 . S
C2495 H2509 0.958 . S
C2495 H2510 0.961 . S
C2495 H2511 0.960 . S
H2496 C2480 0.931 . S
H2497 C2485 0.929 . S
H2498 C2486 0.960 . S
H2499 C2486 0.962 . S
H2500 C2486 0.960 . S
H2501 C2487 0.961 . S
H2502 C2487 0.961 . S
H2503 C2487 0.961 . S
H2504 C2488 0.931 . S
H2505 C2493 0.930 . S
H2506 C2494 0.956 . S
H2507 C2494 0.961 . S
H2508 C2494 0.961 . S
H2509 C2495 0.958 . S
H2510 C2495 0.961 . S
H2511 C2495 0.960 . S
C2512 C2513 1.391 . S
C2512 C2514 1.394 . S
C2512 H2528 0.931 . S
C2513 C2512 1.391 . S
C2513 C2517 1.376 . S
C2514 C2512 1.394 . S
C2514 C2515 1.369 . S
C2514 C2518 1.531 . S
C2515 C2514 1.369 . S
C2515 C2516 1.410 . S
C2515 C2523 1.503 . S
C2516 C2515 1.410 . S
C2516 C2517 1.392 . S
C2516 C2519 1.511 . S
C2517 C2513 1.376 . S
C2517 C2516 1.392 . S
C2517 H2529 0.929 . S
C2518 C2514 1.531 . S
C2518 H2530 0.960 . S
C2518 H2531 0.962 . S
C2518 H2532 0.960 . S
C2519 C2516 1.511 . S
C2519 H2533 0.961 . S
C2519 H2534 0.961 . S
C2519 H2535 0.961 . S
C2520 C2521 1.370 . S
C2520 C2522 1.363 . S
C2520 H2536 0.931 . S
C2521 C2520 1.370 . S
C2521 C2525 1.408 . S
C2522 C2520 1.363 . S
C2522 C2523 1.370 . S
C2522 C2526 1.524 . S
C2523 C2515 1.503 . S
C2523 C2522 1.370 . S
C2523 C2524 1.403 . S
C2524 C2523 1.403 . S
C2524 C2525 1.404 . S
C2524 C2527 1.539 . S
C2525 C2521 1.408 . S
C2525 C2524 1.404 . S
C2525 H2537 0.930 . S
C2526 C2522 1.524 . S
C2526 H2538 0.956 . S
C2526 H2539 0.961 . S
C2526 H2540 0.961 . S
C2527 C2524 1.539 . S
C2527 H2541 0.958 . S
C2527 H2542 0.961 . S
C2527 H2543 0.960 . S
H2528 C2512 0.931 . S
H2529 C2517 0.929 . S
H2530 C2518 0.960 . S
H2531 C2518 0.962 . S
H2532 C2518 0.960 . S
H2533 C2519 0.961 . S
H2534 C2519 0.961 . S
H2535 C2519 0.961 . S
H2536 C2520 0.931 . S
H2537 C2525 0.930 . S
H2538 C2526 0.956 . S
H2539 C2526 0.961 . S
H2540 C2526 0.961 . S
H2541 C2527 0.958 . S
H2542 C2527 0.961 . S
H2543 C2527 0.960 . S
C2544 C2545 1.391 . S
C2544 C2546 1.394 . S
C2544 H2560 0.931 . S
C2545 C2544 1.391 . S
C2545 C2549 1.376 . S
C2546 C2544 1.394 . S
C2546 C2547 1.369 . S
C2546 C2550 1.531 . S
C2547 C2546 1.369 . S
C2547 C2548 1.410 . S
C2547 C2555 1.503 . S
C2548 C2547 1.410 . S
C2548 C2549 1.392 . S
C2548 C2551 1.511 . S
C2549 C2545 1.376 . S
C2549 C2548 1.392 . S
C2549 H2561 0.929 . S
C2550 C2546 1.531 . S
C2550 H2562 0.960 . S
C2550 H2563 0.962 . S
C2550 H2564 0.960 . S
C2551 C2548 1.511 . S
C2551 H2565 0.961 . S
C2551 H2566 0.961 . S
C2551 H2567 0.961 . S
C2552 C2553 1.370 . S
C2552 C2554 1.363 . S
C2552 H2568 0.931 . S
C2553 C2552 1.370 . S
C2553 C2557 1.408 . S
C2554 C2552 1.363 . S
C2554 C2555 1.370 . S
C2554 C2558 1.524 . S
C2555 C2547 1.503 . S
C2555 C2554 1.370 . S
C2555 C2556 1.403 . S
C2556 C2555 1.403 . S
C2556 C2557 1.404 . S
C2556 C2559 1.539 . S
C2557 C2553 1.408 . S
C2557 C2556 1.404 . S
C2557 H2569 0.930 . S
C2558 C2554 1.524 . S
C2558 H2570 0.956 . S
C2558 H2571 0.961 . S
C2558 H2572 0.961 . S
C2559 C2556 1.539 . S
C2559 H2573 0.958 . S
C2559 H2574 0.961 . S
C2559 H2575 0.960 . S
H2560 C2544 0.931 . S
H2561 C2549 0.929 . S
H2562 C2550 0.960 . S
H2563 C2550 0.962 . S
H2564 C2550 0.960 . S
H2565 C2551 0.961 . S
H2566 C2551 0.961 . S
H2567 C2551 0.961 . S
H2568 C2552 0.931 . S
H2569 C2557 0.930 . S
H2570 C2558 0.956 . S
H2571 C2558 0.961 . S
H2572 C2558 0.961 . S
H2573 C2559 0.958 . S
H2574 C2559 0.961 . S
H2575 C2559 0.960 . S
C2576 C2577 1.391 . S
C2576 C2578 1.394 . S
C2576 H2592 0.931 . S
C2577 C2576 1.391 . S
C2577 C2581 1.376 . S
C2578 C2576 1.394 . S
C2578 C2579 1.369 . S
C2578 C2582 1.531 . S
C2579 C2578 1.369 . S
C2579 C2580 1.410 . S
C2579 C2587 1.503 . S
C2580 C2579 1.410 . S
C2580 C2581 1.392 . S
C2580 C2583 1.511 . S
C2581 C2577 1.376 . S
C2581 C2580 1.392 . S
C2581 H2593 0.929 . S
C2582 C2578 1.531 . S
C2582 H2594 0.960 . S
C2582 H2595 0.962 . S
C2582 H2596 0.960 . S
C2583 C2580 1.511 . S
C2583 H2597 0.961 . S
C2583 H2598 0.961 . S
C2583 H2599 0.961 . S
C2584 C2585 1.370 . S
C2584 C2586 1.363 . S
C2584 H2600 0.931 . S
C2585 C2584 1.370 . S
C2585 C2589 1.408 . S
C2586 C2584 1.363 . S
C2586 C2587 1.370 . S
C2586 C2590 1.524 . S
C2587 C2579 1.503 . S
C2587 C2586 1.370 . S
C2587 C2588 1.403 . S
C2588 C2587 1.403 . S
C2588 C2589 1.404 . S
C2588 C2591 1.539 . S
C2589 C2585 1.408 . S
C2589 C2588 1.404 . S
C2589 H2601 0.930 . S
C2590 C2586 1.524 . S
C2590 H2602 0.956 . S
C2590 H2603 0.961 . S
C2590 H2604 0.961 . S
C2591 C2588 1.539 . S
C2591 H2605 0.958 . S
C2591 H2606 0.961 . S
C2591 H2607 0.960 . S
H2592 C2576 0.931 . S
H2593 C2581 0.929 . S
H2594 C2582 0.960 . S
H2595 C2582 0.962 . S
H2596 C2582 0.960 . S
H2597 C2583 0.961 . S
H2598 C2583 0.961 . S
H2599 C2583 0.961 . S
H2600 C2584 0.931 . S
H2601 C2589 0.930 . S
H2602 C2590 0.956 . S
H2603 C2590 0.961 . S
H2604 C2590 0.961 . S
H2605 C2591 0.958 . S
H2606 C2591 0.961 . S
H2607 C2591 0.960 . S
C2608 C2609 1.391 . S
C2608 C2610 1.394 . S
C2608 H2624 0.931 . S
C2609 C2608 1.391 . S
C2609 C2613 1.376 . S
C2610 C2608 1.394 . S
C2610 C2611 1.369 . S
C2610 C2614 1.531 . S
C2611 C2610 1.369 . S
C2611 C2612 1.410 . S
C2611 C2619 1.503 . S
C2612 C2611 1.410 . S
C2612 C2613 1.392 . S
C2612 C2615 1.511 . S
C2613 C2609 1.376 . S
C2613 C2612 1.392 . S
C2613 H2625 0.929 . S
C2614 C2610 1.531 . S
C2614 H2626 0.960 . S
C2614 H2627 0.962 . S
C2614 H2628 0.960 . S
C2615 C2612 1.511 . S
C2615 H2629 0.961 . S
C2615 H2630 0.961 . S
C2615 H2631 0.961 . S
C2616 C2617 1.370 . S
C2616 C2618 1.363 . S
C2616 H2632 0.931 . S
C2617 C2616 1.370 . S
C2617 C2621 1.408 . S
C2618 C2616 1.363 . S
C2618 C2619 1.370 . S
C2618 C2622 1.524 . S
C2619 C2611 1.503 . S
C2619 C2618 1.370 . S
C2619 C2620 1.403 . S
C2620 C2619 1.403 . S
C2620 C2621 1.404 . S
C2620 C2623 1.539 . S
C2621 C2617 1.408 . S
C2621 C2620 1.404 . S
C2621 H2633 0.930 . S
C2622 C2618 1.524 . S
C2622 H2634 0.956 . S
C2622 H2635 0.961 . S
C2622 H2636 0.961 . S
C2623 C2620 1.539 . S
C2623 H2637 0.958 . S
C2623 H2638 0.961 . S
C2623 H2639 0.960 . S
H2624 C2608 0.931 . S
H2625 C2613 0.929 . S
H2626 C2614 0.960 . S
H2627 C2614 0.962 . S
H2628 C2614 0.960 . S
H2629 C2615 0.961 . S
H2630 C2615 0.961 . S
H2631 C2615 0.961 . S
H2632 C2616 0.931 . S
H2633 C2621 0.930 . S
H2634 C2622 0.956 . S
H2635 C2622 0.961 . S
H2636 C2622 0.961 . S
H2637 C2623 0.958 . S
H2638 C2623 0.961 . S
H2639 C2623 0.960 . S
C2640 C2641 1.391 . S
C2640 C2642 1.394 . S
C2640 H2656 0.931 . S
C2641 C2640 1.391 . S
C2641 C2645 1.376 . S
C2642 C2640 1.394 . S
C2642 C2643 1.369 . S
C2642 C2646 1.531 . S
C2643 C2642 1.369 . S
C2643 C2644 1.410 . S
C2643 C2651 1.503 . S
C2644 C2643 1.410 . S
C2644 C2645 1.392 . S
C2644 C2647 1.511 . S
C2645 C2641 1.376 . S
C2645 C2644 1.392 . S
C2645 H2657 0.929 . S
C2646 C2642 1.531 . S
C2646 H2658 0.960 . S
C2646 H2659 0.962 . S
C2646 H2660 0.960 . S
C2647 C2644 1.511 . S
C2647 H2661 0.961 . S
C2647 H2662 0.961 . S
C2647 H2663 0.961 . S
C2648 C2649 1.370 . S
C2648 C2650 1.363 . S
C2648 H2664 0.931 . S
C2649 C2648 1.370 . S
C2649 C2653 1.408 . S
C2650 C2648 1.363 . S
C2650 C2651 1.370 . S
C2650 C2654 1.524 . S
C2651 C2643 1.503 . S
C2651 C2650 1.370 . S
C2651 C2652 1.403 . S
C2652 C2651 1.403 . S
C2652 C2653 1.404 . S
C2652 C2655 1.539 . S
C2653 C2649 1.408 . S
C2653 C2652 1.404 . S
C2653 H2665 0.930 . S
C2654 C2650 1.524 . S
C2654 H2666 0.956 . S
C2654 H2667 0.961 . S
C2654 H2668 0.961 . S
C2655 C2652 1.539 . S
C2655 H2669 0.958 . S
C2655 H2670 0.961 . S
C2655 H2671 0.960 . S
H2656 C2640 0.931 . S
H2657 C2645 0.929 . S
H2658 C2646 0.960 . S
H2659 C2646 0.962 . S
H2660 C2646 0.960 . S
H2661 C2647 0.961 . S
H2662 C2647 0.961 . S
H2663 C2647 0.961 . S
H2664 C2648 0.931 . S
H2665 C2653 0.930 . S
H2666 C2654 0.956 . S
H2667 C2654 0.961 . S
H2668 C2654 0.961 . S
H2669 C2655 0.958 . S
H2670 C2655 0.961 . S
H2671 C2655 0.960 . S
C2672 C2673 1.391 . S
C2672 C2674 1.394 . S
C2672 H2688 0.931 . S
C2673 C2672 1.391 . S
C2673 C2677 1.376 . S
C2674 C2672 1.394 . S
C2674 C2675 1.369 . S
C2674 C2678 1.531 . S
C2675 C2674 1.369 . S
C2675 C2676 1.410 . S
C2675 C2683 1.503 . S
C2676 C2675 1.410 . S
C2676 C2677 1.392 . S
C2676 C2679 1.511 . S
C2677 C2673 1.376 . S
C2677 C2676 1.392 . S
C2677 H2689 0.929 . S
C2678 C2674 1.531 . S
C2678 H2690 0.960 . S
C2678 H2691 0.962 . S
C2678 H2692 0.960 . S
C2679 C2676 1.511 . S
C2679 H2693 0.961 . S
C2679 H2694 0.961 . S
C2679 H2695 0.961 . S
C2680 C2681 1.370 . S
C2680 C2682 1.363 . S
C2680 H2696 0.931 . S
C2681 C2680 1.370 . S
C2681 C2685 1.408 . S
C2682 C2680 1.363 . S
C2682 C2683 1.370 . S
C2682 C2686 1.524 . S
C2683 C2675 1.503 . S
C2683 C2682 1.370 . S
C2683 C2684 1.403 . S
C2684 C2683 1.403 . S
C2684 C2685 1.404 . S
C2684 C2687 1.539 . S
C2685 C2681 1.408 . S
C2685 C2684 1.404 . S
C2685 H2697 0.930 . S
C2686 C2682 1.524 . S
C2686 H2698 0.956 . S
C2686 H2699 0.961 . S
C2686 H2700 0.961 . S
C2687 C2684 1.539 . S
C2687 H2701 0.958 . S
C2687 H2702 0.961 . S
C2687 H2703 0.960 . S
H2688 C2672 0.931 . S
H2689 C2677 0.929 . S
H2690 C2678 0.960 . S
H2691 C2678 0.962 . S
H2692 C2678 0.960 . S
H2693 C2679 0.961 . S
H2694 C2679 0.961 . S
H2695 C2679 0.961 . S
H2696 C2680 0.931 . S
H2697 C2685 0.930 . S
H2698 C2686 0.956 . S
H2699 C2686 0.961 . S
H2700 C2686 0.961 . S
H2701 C2687 0.958 . S
H2702 C2687 0.961 . S
H2703 C2687 0.960 . S
C2704 C2705 1.391 . S
C2704 C2706 1.394 . S
C2704 H2720 0.931 . S
C2705 C2704 1.391 . S
C2705 C2709 1.376 . S
C2706 C2704 1.394 . S
C2706 C2707 1.369 . S
C2706 C2710 1.531 . S
C2707 C2706 1.369 . S
C2707 C2708 1.410 . S
C2707 C2715 1.503 . S
C2708 C2707 1.410 . S
C2708 C2709 1.392 . S
C2708 C2711 1.511 . S
C2709 C2705 1.376 . S
C2709 C2708 1.392 . S
C2709 H2721 0.929 . S
C2710 C2706 1.531 . S
C2710 H2722 0.960 . S
C2710 H2723 0.962 . S
C2710 H2724 0.960 . S
C2711 C2708 1.511 . S
C2711 H2725 0.961 . S
C2711 H2726 0.961 . S
C2711 H2727 0.961 . S
C2712 C2713 1.370 . S
C2712 C2714 1.363 . S
C2712 H2728 0.931 . S
C2713 C2712 1.370 . S
C2713 C2717 1.408 . S
C2714 C2712 1.363 . S
C2714 C2715 1.370 . S
C2714 C2718 1.524 . S
C2715 C2707 1.503 . S
C2715 C2714 1.370 . S
C2715 C2716 1.403 . S
C2716 C2715 1.403 . S
C2716 C2717 1.404 . S
C2716 C2719 1.539 . S
C2717 C2713 1.408 . S
C2717 C2716 1.404 . S
C2717 H2729 0.930 . S
C2718 C2714 1.524 . S
C2718 H2730 0.956 . S
C2718 H2731 0.961 . S
C2718 H2732 0.961 . S
C2719 C2716 1.539 . S
C2719 H2733 0.958 . S
C2719 H2734 0.961 . S
C2719 H2735 0.960 . S
H2720 C2704 0.931 . S
H2721 C2709 0.929 . S
H2722 C2710 0.960 . S
H2723 C2710 0.962 . S
H2724 C2710 0.960 . S
H2725 C2711 0.961 . S
H2726 C2711 0.961 . S
H2727 C2711 0.961 . S
H2728 C2712 0.931 . S
H2729 C2717 0.930 . S
H2730 C2718 0.956 . S
H2731 C2718 0.961 . S
H2732 C2718 0.961 . S
H2733 C2719 0.958 . S
H2734 C2719 0.961 . S
H2735 C2719 0.960 . S
C1009 C469 1.659 . S
C1017 C657 1.657 . S
C1041 C505 1.793 . S
C1049 C697 1.746 . S
C1073 C433 1.755 . S
C1081 C736 1.732 . S
C1105 C397 1.570 . S
C1113 C696 1.571 . S
C1145 C737 1.445 . S
C1137 C325 1.483 . S
C1169 C361 1.444 . S
C1177 C656 1.477 . S
C1209 C667 1.657 . S
C1201 C421 1.667 . S
C1241 C707 1.748 . S
C1233 C349 1.791 . S
C1265 C385 1.762 . S
C1273 C746 1.733 . S
C1297 C493 1.566 . S
C1305 C706 1.574 . S
C1329 C529 1.468 . S
C1337 C747 1.458 . S
C1369 C666 1.456 . S
C1361 C457 1.418 . S
C1401 C777 1.634 . S
C1393 C37 1.689 . S
C1425 C73 1.778 . S
C1433 C817 1.760 . S
C1457 C1 1.733 . S
C1465 C856 1.746 . S
C1489 C613 1.567 . S
C1497 C816 1.569 . S
C1521 C541 1.453 . S
C1529 C857 1.458 . S
C1553 C577 1.433 . S
C1561 C776 1.438 . S
C1585 C637 1.669 . S
C1593 C787 1.652 . S
C1617 C565 1.791 . S
C1625 C827 1.746 . S
C1657 C866 1.733 . S
C1649 C601 1.760 . S
C1681 C61 1.561 . S
C1689 C826 1.573 . S
C1721 C867 1.456 . S
C1713 C97 1.470 . S
C1745 C25 1.466 . S
C1753 C786 1.441 . S
C1785 C897 1.643 . S
C1777 C253 1.686 . S
C1809 C289 1.793 . S
C1817 C937 1.746 . S
C1849 C976 1.741 . S
C1841 C217 1.734 . S
C1881 C936 1.565 . S
C1873 C181 1.566 . S
C1913 C977 1.460 . S
C1905 C109 1.454 . S
C1937 C145 1.448 . S
C1945 C896 1.438 . S
C1969 C205 1.668 . S
C1977 C907 1.657 . S
C2001 C133 1.789 . S
C2009 C947 1.753 . S
C2041 C986 1.734 . S
C2033 C169 1.762 . S
C2065 C277 1.594 . S
C2073 C946 1.553 . S
C2097 C313 1.466 . S
C2105 C987 1.460 . S
C2129 C241 1.465 . S
C2137 C906 1.440 . S
C2161 C571 1.333 . S
C2169 C653 1.324 . S
C2201 C693 1.865 . S
C2193 C607 1.846 . S
C2225 C643 1.581 . S
C2233 C743 1.582 . S
C2257 C247 1.856 . S
C2265 C703 1.863 . S
C2289 C283 1.583 . S
C2297 C733 1.583 . S
C2329 C663 1.324 . S
C2321 C319 1.326 . S
C2353 C139 1.332 . S
C2361 C773 1.328 . S
C2385 C175 1.847 . S
C2393 C813 1.865 . S
C2417 C211 1.566 . S
C2425 C863 1.582 . S
C2449 C463 1.860 . S
C2457 C823 1.862 . S
C2489 C853 1.584 . S
C2481 C499 1.571 . S
C2513 C535 1.331 . S
C2521 C783 1.322 . S
C2545 C355 1.332 . S
C2553 C893 1.328 . S
C2577 C391 1.847 . S
C2585 C933 1.864 . S
C2617 C983 1.582 . S
C2609 C427 1.565 . S
C2641 C31 1.855 . S
C2649 C943 1.857 . S
C2673 C67 1.583 . S
C2681 C973 1.582 . S
C2705 C103 1.332 . S
C2713 C903 1.322 . S
