# Generated by pormake.
# Topology eea, (3,6)-cn, num edge types: 1
# Building blocks:
#     Node 0, Type 0, BuildingBlock: VETTIZ_charged_linker_0, # of connection points: 3
#     Node 1, Type 0, BuildingBlock: VETTIZ_charged_linker_0, # of connection points: 3
#     Node 2, Type 0, BuildingBlock: VETTIZ_charged_linker_0, # of connection points: 3
#     Node 3, Type 0, BuildingBlock: VETTIZ_charged_linker_0, # of connection points: 3
#     Node 4, Type 0, BuildingBlock: VETTIZ_charged_linker_0, # of connection points: 3
#     Node 5, Type 0, BuildingBlock: VETTIZ_charged_linker_0, # of connection points: 3
#     Node 6, Type 0, BuildingBlock: VETTIZ_charged_linker_0, # of connection points: 3
#     Node 7, Type 0, BuildingBlock: VETTIZ_charged_linker_0, # of connection points: 3
#     Node 8, Type 0, BuildingBlock: VETTIZ_charged_linker_0, # of connection points: 3
#     Node 9, Type 0, BuildingBlock: VETTIZ_charged_linker_0, # of connection points: 3
#     Node 10, Type 0, BuildingBlock: VETTIZ_charged_linker_0, # of connection points: 3
#     Node 11, Type 0, BuildingBlock: VETTIZ_charged_linker_0, # of connection points: 3
#     Node 12, Type 0, BuildingBlock: VETTIZ_charged_linker_0, # of connection points: 3
#     Node 13, Type 0, BuildingBlock: VETTIZ_charged_linker_0, # of connection points: 3
#     Node 14, Type 0, BuildingBlock: VETTIZ_charged_linker_0, # of connection points: 3
#     Node 15, Type 0, BuildingBlock: VETTIZ_charged_linker_0, # of connection points: 3
#     Node 16, Type 0, BuildingBlock: VETTIZ_charged_linker_0, # of connection points: 3
#     Node 17, Type 0, BuildingBlock: VETTIZ_charged_linker_0, # of connection points: 3
#     Node 18, Type 1, BuildingBlock: KUMBOL_clean_sbu_0, # of connection points: 6
#     Node 19, Type 1, BuildingBlock: KUMBOL_clean_sbu_0, # of connection points: 6
#     Node 20, Type 1, BuildingBlock: KUMBOL_clean_sbu_0, # of connection points: 6
#     Node 21, Type 1, BuildingBlock: KUMBOL_clean_sbu_0, # of connection points: 6
#     Node 22, Type 1, BuildingBlock: KUMBOL_clean_sbu_0, # of connection points: 6
#     Node 23, Type 1, BuildingBlock: KUMBOL_clean_sbu_0, # of connection points: 6
#     Node 24, Type 1, BuildingBlock: KUMBOL_clean_sbu_0, # of connection points: 6
#     Node 25, Type 1, BuildingBlock: KUMBOL_clean_sbu_0, # of connection points: 6
#     Node 26, Type 1, BuildingBlock: KUMBOL_clean_sbu_0, # of connection points: 6
#     Edge 27, Type (0, 1), BuildingBlock: CIFDUS_clean_linker_0, # of connection points: 2
#     Edge 28, Type (0, 1), BuildingBlock: CIFDUS_clean_linker_0, # of connection points: 2
#     Edge 29, Type (0, 1), BuildingBlock: CIFDUS_clean_linker_0, # of connection points: 2
#     Edge 30, Type (0, 1), BuildingBlock: CIFDUS_clean_linker_0, # of connection points: 2
#     Edge 31, Type (0, 1), BuildingBlock: CIFDUS_clean_linker_0, # of connection points: 2
#     Edge 32, Type (0, 1), BuildingBlock: CIFDUS_clean_linker_0, # of connection points: 2
#     Edge 33, Type (0, 1), BuildingBlock: CIFDUS_clean_linker_0, # of connection points: 2
#     Edge 34, Type (0, 1), BuildingBlock: CIFDUS_clean_linker_0, # of connection points: 2
#     Edge 35, Type (0, 1), BuildingBlock: CIFDUS_clean_linker_0, # of connection points: 2
#     Edge 36, Type (0, 1), BuildingBlock: CIFDUS_clean_linker_0, # of connection points: 2
#     Edge 37, Type (0, 1), BuildingBlock: CIFDUS_clean_linker_0, # of connection points: 2
#     Edge 38, Type (0, 1), BuildingBlock: CIFDUS_clean_linker_0, # of connection points: 2
#     Edge 39, Type (0, 1), BuildingBlock: CIFDUS_clean_linker_0, # of connection points: 2
#     Edge 40, Type (0, 1), BuildingBlock: CIFDUS_clean_linker_0, # of connection points: 2
#     Edge 41, Type (0, 1), BuildingBlock: CIFDUS_clean_linker_0, # of connection points: 2
#     Edge 42, Type (0, 1), BuildingBlock: CIFDUS_clean_linker_0, # of connection points: 2
#     Edge 43, Type (0, 1), BuildingBlock: CIFDUS_clean_linker_0, # of connection points: 2
#     Edge 44, Type (0, 1), BuildingBlock: CIFDUS_clean_linker_0, # of connection points: 2
#     Edge 45, Type (0, 1), BuildingBlock: CIFDUS_clean_linker_0, # of connection points: 2
#     Edge 46, Type (0, 1), BuildingBlock: CIFDUS_clean_linker_0, # of connection points: 2
#     Edge 47, Type (0, 1), BuildingBlock: CIFDUS_clean_linker_0, # of connection points: 2
#     Edge 48, Type (0, 1), BuildingBlock: CIFDUS_clean_linker_0, # of connection points: 2
#     Edge 49, Type (0, 1), BuildingBlock: CIFDUS_clean_linker_0, # of connection points: 2
#     Edge 50, Type (0, 1), BuildingBlock: CIFDUS_clean_linker_0, # of connection points: 2
#     Edge 51, Type (0, 1), BuildingBlock: CIFDUS_clean_linker_0, # of connection points: 2
#     Edge 52, Type (0, 1), BuildingBlock: CIFDUS_clean_linker_0, # of connection points: 2
#     Edge 53, Type (0, 1), BuildingBlock: CIFDUS_clean_linker_0, # of connection points: 2
#     Edge 54, Type (0, 1), BuildingBlock: CIFDUS_clean_linker_0, # of connection points: 2
#     Edge 55, Type (0, 1), BuildingBlock: CIFDUS_clean_linker_0, # of connection points: 2
#     Edge 56, Type (0, 1), BuildingBlock: CIFDUS_clean_linker_0, # of connection points: 2
#     Edge 57, Type (0, 1), BuildingBlock: CIFDUS_clean_linker_0, # of connection points: 2
#     Edge 58, Type (0, 1), BuildingBlock: CIFDUS_clean_linker_0, # of connection points: 2
#     Edge 59, Type (0, 1), BuildingBlock: CIFDUS_clean_linker_0, # of connection points: 2
#     Edge 60, Type (0, 1), BuildingBlock: CIFDUS_clean_linker_0, # of connection points: 2
#     Edge 61, Type (0, 1), BuildingBlock: CIFDUS_clean_linker_0, # of connection points: 2
#     Edge 62, Type (0, 1), BuildingBlock: CIFDUS_clean_linker_0, # of connection points: 2
#     Edge 63, Type (0, 1), BuildingBlock: CIFDUS_clean_linker_0, # of connection points: 2
#     Edge 64, Type (0, 1), BuildingBlock: CIFDUS_clean_linker_0, # of connection points: 2
#     Edge 65, Type (0, 1), BuildingBlock: CIFDUS_clean_linker_0, # of connection points: 2
#     Edge 66, Type (0, 1), BuildingBlock: CIFDUS_clean_linker_0, # of connection points: 2
#     Edge 67, Type (0, 1), BuildingBlock: CIFDUS_clean_linker_0, # of connection points: 2
#     Edge 68, Type (0, 1), BuildingBlock: CIFDUS_clean_linker_0, # of connection points: 2
#     Edge 69, Type (0, 1), BuildingBlock: CIFDUS_clean_linker_0, # of connection points: 2
#     Edge 70, Type (0, 1), BuildingBlock: CIFDUS_clean_linker_0, # of connection points: 2
#     Edge 71, Type (0, 1), BuildingBlock: CIFDUS_clean_linker_0, # of connection points: 2
#     Edge 72, Type (0, 1), BuildingBlock: CIFDUS_clean_linker_0, # of connection points: 2
#     Edge 73, Type (0, 1), BuildingBlock: CIFDUS_clean_linker_0, # of connection points: 2
#     Edge 74, Type (0, 1), BuildingBlock: CIFDUS_clean_linker_0, # of connection points: 2
#     Edge 75, Type (0, 1), BuildingBlock: CIFDUS_clean_linker_0, # of connection points: 2
#     Edge 76, Type (0, 1), BuildingBlock: CIFDUS_clean_linker_0, # of connection points: 2
#     Edge 77, Type (0, 1), BuildingBlock: CIFDUS_clean_linker_0, # of connection points: 2
#     Edge 78, Type (0, 1), BuildingBlock: CIFDUS_clean_linker_0, # of connection points: 2
#     Edge 79, Type (0, 1), BuildingBlock: CIFDUS_clean_linker_0, # of connection points: 2
#     Edge 80, Type (0, 1), BuildingBlock: CIFDUS_clean_linker_0, # of connection points: 2
# Relax obj value: 0.009
# Max RMSD: 0.093
# Mean RMSD: 0.065
data_MOF--net-eea--node1-KUMBOL_clean_sbu_0--node2-VETTIZ_charged_linker_0--edge1-CIFDUS_clean_linker_0
_symmetry_space_group_name_H-M    P1
_symmetry_Int_Tables_number       1
_symmetry_cell_setting            triclinic
loop_
_symmetry_equiv_pos_as_xyz
'x, y, z'
_cell_length_a     55.246541
_cell_length_b     56.659717
_cell_length_c     80.34198
_cell_angle_alpha  89.820524
_cell_angle_beta   90.130475
_cell_angle_gamma 119.77385
loop_
_atom_site_label
_atom_site_type_symbol
_atom_site_fract_x
_atom_site_fract_y
_atom_site_fract_z
_atom_type_partial_charge
C0 C 0.21448 0.16702 0.39526 0.0
C1 C 0.22075 0.19328 0.4001 0.0
C2 C 0.23347 0.20319 0.41573 0.0
C3 C 0.23367 0.16118 0.42121 0.0
C4 C 0.22109 0.15144 0.40594 0.0
C5 C 0.21595 0.12324 0.40256 0.0
H6 H 0.22897 0.01556 0.42655 0.0
C7 C 0.2379 0.13993 0.42921 0.0
C8 C 0.22749 0.11764 0.41831 0.0
H9 H 0.19161 0.02488 0.38143 0.0
H10 H 0.20092 0.06913 0.39038 0.0
H11 H 0.28052 0.07582 0.42742 0.0
H12 H 0.19992 0.03823 0.45068 0.0
H13 H 0.22323 0.06141 0.46525 0.0
H14 H 0.22773 0.03351 0.45837 0.0
H15 H 0.27122 0.05232 0.44444 0.0
H16 H 0.28563 0.08827 0.44786 0.0
C17 C 0.23303 0.12449 0.38697 0.0
C18 C 0.18406 0.10398 0.40088 0.0
C19 C 0.28526 0.15642 0.48596 0.0
C20 C 0.29243 0.14039 0.49602 0.0
C21 C 0.28519 0.11402 0.49065 0.0
C22 C 0.27157 0.10394 0.47546 0.0
C23 C 0.26501 0.12029 0.46541 0.0
C24 C 0.27164 0.14599 0.47072 0.0
C25 C 0.26288 0.16031 0.45828 0.0
C26 C 0.25002 0.13895 0.44467 0.0
C27 C 0.25144 0.11563 0.44897 0.0
C28 C 0.28937 0.18616 0.45218 0.0
C29 C 0.24099 0.16587 0.46665 0.0
C30 C 0.22254 0.02699 0.41866 0.0
C31 C 0.20973 0.01671 0.40319 0.0
C32 C 0.20198 0.03249 0.39327 0.0
C33 C 0.20725 0.05816 0.39854 0.0
C34 C 0.2204 0.06828 0.41393 0.0
C35 C 0.22759 0.05265 0.42376 0.0
C36 C 0.24113 0.06655 0.4398 0.0
C37 C 0.24106 0.09319 0.43792 0.0
C38 C 0.22902 0.09414 0.42273 0.0
C39 C 0.27115 0.0709 0.44009 0.0
C40 C 0.2223 0.04909 0.45437 0.0
H41 H 0.24954 0.19602 0.43799 0.0
H42 H 0.20496 0.15884 0.3833 0.0
H43 H 0.17235 0.1105 0.40916 0.0
H44 H 0.17737 0.0829 0.40478 0.0
H45 H 0.17693 0.10383 0.38792 0.0
H46 H 0.25352 0.14363 0.38681 0.0
H47 H 0.2218 0.12388 0.37535 0.0
H48 H 0.23826 0.10807 0.38661 0.0
H49 H 0.29062 0.1768 0.48969 0.0
H50 H 0.28992 0.10104 0.49828 0.0
H51 H 0.2668 0.08377 0.47213 0.0
H52 H 0.30711 0.18224 0.45086 0.0
H53 H 0.29577 0.20315 0.46113 0.0
H54 H 0.28685 0.19297 0.43974 0.0
H55 H 0.22701 0.14867 0.47492 0.0
H56 H 0.22693 0.16771 0.45762 0.0
H57 H 0.25123 0.18455 0.47438 0.0
H58 H 0.23814 0.22317 0.41991 0.0
C59 C 0.23993 0.18732 0.42628 0.0
C60 C 0.97339 0.17955 0.39509 0.0
C61 C 0.99475 0.2047 0.40082 0.0
C62 C 0.99143 0.2147 0.4162 0.0
C63 C 0.94655 0.17382 0.42028 0.0
C64 C 0.9495 0.16469 0.40486 0.0
C65 C 0.92468 0.13792 0.40026 0.0
H66 H 0.79921 0.03096 0.42033 0.0
C67 C 0.91966 0.15277 0.42753 0.0
C68 C 0.90675 0.13187 0.41568 0.0
H69 H 0.84378 0.04681 0.37373 0.0
H70 H 0.88121 0.0885 0.38478 0.0
H71 H 0.85008 0.04783 0.44349 0.0
H72 H 0.81161 0.09276 0.42552 0.0
H73 H 0.81879 0.1004 0.44677 0.0
H74 H 0.79577 0.06576 0.44052 0.0
H75 H 0.81937 0.04482 0.45303 0.0
H76 H 0.85391 0.0702 0.45962 0.0
C77 C 0.93462 0.11695 0.39786 0.0
C78 C 0.91077 0.14237 0.38466 0.0
C79 C 0.8903 0.16197 0.48657 0.0
C80 C 0.86687 0.1446 0.49637 0.0
C81 C 0.84714 0.11913 0.48979 0.0
C82 C 0.84998 0.1114 0.47375 0.0
C83 C 0.87292 0.12912 0.46397 0.0
C84 C 0.89291 0.15378 0.47043 0.0
C85 C 0.91625 0.16943 0.45815 0.0
C86 C 0.9067 0.15015 0.4433 0.0
C87 C 0.88116 0.12669 0.44686 0.0
C88 C 0.94357 0.17308 0.46584 0.0
C89 C 0.91703 0.19647 0.45398 0.0
C90 C 0.81688 0.04354 0.41243 0.0
C91 C 0.81845 0.03544 0.39611 0.0
C92 C 0.84213 0.05231 0.3864 0.0
C93 C 0.8638 0.07668 0.39281 0.0
C94 C 0.86189 0.08447 0.40913 0.0
C95 C 0.83869 0.06802 0.41862 0.0
C96 C 0.84016 0.07961 0.43564 0.0
C97 C 0.86787 0.10598 0.4347 0.0
C98 C 0.88055 0.10863 0.41919 0.0
C99 C 0.84072 0.05965 0.44871 0.0
C100 C 0.81526 0.08482 0.43739 0.0
H101 H 0.96631 0.20781 0.43769 0.0
H102 H 0.97528 0.17158 0.38323 0.0
H103 H 0.91473 0.16362 0.38397 0.0
H104 H 0.88778 0.12969 0.38482 0.0
H105 H 0.91892 0.13837 0.37302 0.0
H106 H 0.95009 0.11951 0.40761 0.0
H107 H 0.94476 0.11956 0.38555 0.0
H108 H 0.91765 0.09569 0.39907 0.0
H109 H 0.90593 0.18165 0.4912 0.0
H110 H 0.82935 0.10496 0.49712 0.0
H111 H 0.83402 0.09184 0.46957 0.0
H112 H 0.93995 0.15385 0.47181 0.0
H113 H 0.95165 0.18917 0.47552 0.0
H114 H 0.96007 0.1781 0.45654 0.0
H115 H 0.89554 0.19338 0.45316 0.0
H116 H 0.92656 0.20483 0.44176 0.0
H117 H 0.92841 0.21198 0.46373 0.0
H118 H 0.00774 0.23407 0.42083 0.0
C119 C 0.9675 0.19934 0.42599 0.0
C120 C 0.95977 0.78435 0.39221 0.0
C121 C 0.9796 0.77797 0.39865 0.0
C122 C 0.97666 0.76845 0.41514 0.0
C123 C 0.93416 0.77055 0.41842 0.0
C124 C 0.93708 0.78025 0.40228 0.0
C125 C 0.91296 0.78427 0.39731 0.0
H126 H 0.7853 0.76797 0.4164 0.0
C127 C 0.90789 0.76737 0.42539 0.0
C128 C 0.8952 0.77531 0.41305 0.0
H129 H 0.83152 0.80055 0.37087 0.0
H130 H 0.87007 0.79626 0.38213 0.0
H131 H 0.80121 0.72075 0.42267 0.0
H132 H 0.83522 0.80299 0.4397 0.0
H133 H 0.8406 0.78556 0.45608 0.0
H134 H 0.80546 0.77542 0.44952 0.0
H135 H 0.7835 0.73178 0.43665 0.0
H136 H 0.80726 0.72113 0.44421 0.0
C137 C 0.89781 0.76535 0.38243 0.0
C138 C 0.92449 0.8148 0.39356 0.0
C139 C 0.87829 0.73069 0.48451 0.0
C140 C 0.85525 0.72598 0.49439 0.0
C141 C 0.8351 0.73162 0.4876 0.0
C142 C 0.83762 0.74151 0.47132 0.0
C143 C 0.86064 0.74605 0.46158 0.0
C144 C 0.88068 0.74095 0.46825 0.0
C145 C 0.90408 0.74778 0.45613 0.0
C146 C 0.89472 0.75778 0.44114 0.0
C147 C 0.86911 0.75638 0.44437 0.0
C148 C 0.90464 0.72126 0.45228 0.0
C149 C 0.93138 0.77072 0.46383 0.0
C150 C 0.80363 0.77395 0.40879 0.0
C151 C 0.80521 0.78416 0.39264 0.0
C152 C 0.82978 0.79249 0.38333 0.0
C153 C 0.85205 0.78987 0.38987 0.0
C154 C 0.84989 0.77908 0.40598 0.0
C155 C 0.82609 0.77185 0.41522 0.0
C156 C 0.82771 0.76218 0.43239 0.0
C157 C 0.85597 0.76386 0.43185 0.0
C158 C 0.86895 0.77355 0.41631 0.0
C159 C 0.80364 0.73246 0.43425 0.0
C160 C 0.82703 0.78234 0.44517 0.0
H161 H 0.95325 0.75737 0.43744 0.0
H162 H 0.96137 0.79141 0.37951 0.0
H163 H 0.94129 0.82764 0.40252 0.0
H164 H 0.90858 0.82103 0.39494 0.0
H165 H 0.93342 0.82007 0.38082 0.0
H166 H 0.89566 0.74496 0.38445 0.0
H167 H 0.90964 0.77381 0.37069 0.0
H168 H 0.87639 0.76158 0.38065 0.0
H169 H 0.89427 0.72679 0.4894 0.0
H170 H 0.81701 0.7279 0.49483 0.0
H171 H 0.82137 0.74507 0.46693 0.0
H172 H 0.88319 0.70338 0.4523 0.0
H173 H 0.91702 0.71745 0.46173 0.0
H174 H 0.91285 0.72125 0.43977 0.0
H175 H 0.92732 0.7853 0.47085 0.0
H176 H 0.94707 0.78326 0.45439 0.0
H177 H 0.94075 0.76234 0.47263 0.0
H178 H 0.99168 0.76345 0.42034 0.0
C179 C 0.95426 0.76487 0.42505 0.0
C180 C 0.17611 0.20001 0.62869 0.0
C181 C 0.20224 0.20509 0.62273 0.0
C182 C 0.21104 0.21694 0.60686 0.0
C183 C 0.16838 0.21877 0.60317 0.0
C184 C 0.15973 0.20733 0.61881 0.0
C185 C 0.13228 0.20516 0.62358 0.0
H186 H 0.0279 0.23187 0.60529 0.0
C187 C 0.14698 0.22458 0.59621 0.0
C188 C 0.12581 0.21686 0.60819 0.0
H189 H 0.03771 0.19493 0.65002 0.0
H190 H 0.0791 0.19668 0.63854 0.0
H191 H 0.0929 0.27664 0.60005 0.0
H192 H 0.04114 0.1961 0.58056 0.0
H193 H 0.06415 0.21523 0.56455 0.0
H194 H 0.03971 0.2249 0.57243 0.0
H195 H 0.06494 0.2682 0.58559 0.0
H196 H 0.09946 0.27744 0.57856 0.0
C197 C 0.13721 0.22302 0.63916 0.0
C198 C 0.11062 0.17475 0.62612 0.0
C199 C 0.15902 0.26455 0.53764 0.0
C200 C 0.14254 0.27178 0.52776 0.0
C201 C 0.11742 0.26835 0.53454 0.0
C202 C 0.10886 0.25799 0.55067 0.0
C203 C 0.12548 0.25084 0.56035 0.0
C204 C 0.15005 0.25405 0.55378 0.0
C205 C 0.16489 0.24515 0.56588 0.0
C206 C 0.14503 0.23579 0.58068 0.0
C207 C 0.12207 0.23937 0.5774 0.0
C208 C 0.19347 0.27024 0.57019 0.0
C209 C 0.16686 0.2213 0.55794 0.0
C210 C 0.03909 0.22435 0.61268 0.0
C211 C 0.02967 0.21358 0.6287 0.0
C212 C 0.04448 0.20334 0.63767 0.0
C213 C 0.06863 0.20455 0.63101 0.0
C214 C 0.07814 0.21599 0.61513 0.0
C215 C 0.06307 0.22521 0.60615 0.0
C216 C 0.07546 0.23571 0.58922 0.0
C217 C 0.101 0.23222 0.58969 0.0
C218 C 0.10264 0.22078 0.60494 0.0
C219 C 0.08353 0.26605 0.58812 0.0
C220 C 0.05409 0.21729 0.5759 0.0
H221 H 0.20225 0.23253 0.58509 0.0
H222 H 0.16898 0.19125 0.64093 0.0
H223 H 0.11347 0.162 0.61669 0.0
H224 H 0.08893 0.17036 0.62449 0.0
H225 H 0.11283 0.16761 0.63863 0.0
H226 H 0.15762 0.24218 0.63832 0.0
H227 H 0.13743 0.21221 0.65066 0.0
H228 H 0.12162 0.22963 0.64055 0.0
H229 H 0.17832 0.26668 0.53287 0.0
H230 H 0.10447 0.2741 0.52743 0.0
H231 H 0.08963 0.25609 0.55502 0.0
H232 H 0.19239 0.28932 0.56964 0.0
H233 H 0.20988 0.27245 0.56134 0.0
H234 H 0.2003 0.26958 0.58304 0.0
H235 H 0.14702 0.20713 0.55151 0.0
H236 H 0.17014 0.20868 0.56715 0.0
H237 H 0.18387 0.22884 0.54857 0.0
H238 H 0.23104 0.22098 0.60201 0.0
C239 C 0.19427 0.22362 0.59705 0.0
C240 C 0.78489 0.82614 0.6272 0.0
C241 C 0.7816 0.80162 0.62087 0.0
C242 C 0.77074 0.79367 0.60462 0.0
C243 C 0.76727 0.83452 0.6014 0.0
C244 C 0.77753 0.84204 0.61738 0.0
C245 C 0.77955 0.86837 0.62256 0.0
H246 H 0.76719 0.97801 0.60372 0.0
C247 C 0.76229 0.85605 0.59449 0.0
C248 C 0.76945 0.87584 0.60693 0.0
H249 H 0.79103 0.95789 0.65071 0.0
H250 H 0.78529 0.91637 0.63904 0.0
H251 H 0.80079 0.96121 0.58088 0.0
H252 H 0.71556 0.91671 0.59705 0.0
H253 H 0.71581 0.90984 0.57578 0.0
H254 H 0.72825 0.94432 0.58244 0.0
H255 H 0.77412 0.96596 0.57137 0.0
H256 H 0.7821 0.94048 0.56404 0.0
C257 C 0.81057 0.88896 0.6263 0.0
C258 C 0.7595 0.86255 0.63746 0.0
C259 C 0.72483 0.84976 0.53541 0.0
C260 C 0.71916 0.86752 0.52597 0.0
C261 C 0.72574 0.8929 0.53283 0.0
C262 C 0.73653 0.90006 0.54891 0.0
C263 C 0.74111 0.88182 0.55839 0.0
C264 C 0.73587 0.85737 0.55156 0.0
C265 C 0.74322 0.84122 0.56349 0.0
C266 C 0.75289 0.85972 0.57867 0.0
C267 C 0.75136 0.88336 0.57554 0.0
C268 C 0.76717 0.83825 0.5557 0.0
C269 C 0.71652 0.81386 0.56713 0.0
C270 C 0.77083 0.9645 0.61157 0.0
C271 C 0.77977 0.97141 0.62815 0.0
C272 C 0.7846 0.95333 0.63782 0.0
C273 C 0.78108 0.92909 0.63105 0.0
C274 C 0.77251 0.92267 0.6144 0.0
C275 C 0.76728 0.94011 0.60502 0.0
C276 C 0.75786 0.92972 0.58767 0.0
C277 C 0.75836 0.90316 0.58818 0.0
C278 C 0.76711 0.89927 0.60382 0.0
C279 C 0.7796 0.95036 0.57524 0.0
C280 C 0.72789 0.925 0.58543 0.0
H281 H 0.75544 0.8028 0.58265 0.0
H282 H 0.79342 0.83317 0.6395 0.0
H283 H 0.74157 0.84141 0.63707 0.0
H284 H 0.74975 0.87552 0.63735 0.0
H285 H 0.77037 0.86509 0.64953 0.0
H286 H 0.82444 0.88684 0.61713 0.0
H287 H 0.81658 0.88555 0.6389 0.0
H288 H 0.81561 0.91035 0.62527 0.0
H289 H 0.72021 0.83017 0.53052 0.0
H290 H 0.72252 0.90739 0.52572 0.0
H291 H 0.74074 0.91956 0.55335 0.0
H292 H 0.78234 0.85737 0.54929 0.0
H293 H 0.75901 0.82164 0.54636 0.0
H294 H 0.77956 0.83452 0.56504 0.0
H295 H 0.69823 0.8169 0.56854 0.0
H296 H 0.71773 0.80442 0.5789 0.0
H297 H 0.71192 0.79921 0.55681 0.0
H298 H 0.76746 0.77466 0.59947 0.0
C299 C 0.76362 0.80998 0.59487 0.0
C300 C 0.03218 0.82894 0.62799 0.0
C301 C 0.01314 0.80279 0.62219 0.0
C302 C 0.01777 0.79444 0.60658 0.0
C303 C 0.06004 0.83787 0.60287 0.0
C304 C 0.05559 0.84591 0.61827 0.0
C305 C 0.07892 0.87354 0.62313 0.0
H306 H 0.20738 0.98005 0.60794 0.0
C307 C 0.08667 0.86003 0.59614 0.0
C308 C 0.09796 0.88086 0.60807 0.0
H309 H 0.15359 0.96695 0.65023 0.0
H310 H 0.11778 0.92584 0.6379 0.0
H311 H 0.19216 0.91741 0.602 0.0
H312 H 0.15908 0.9658 0.58142 0.0
H313 H 0.15717 0.94369 0.56558 0.0
H314 H 0.1908 0.96841 0.5738 0.0
H315 H 0.21163 0.94628 0.58867 0.0
H316 H 0.1893 0.91299 0.58022 0.0
C317 C 0.09273 0.87016 0.6391 0.0
C318 C 0.06677 0.89285 0.62503 0.0
C319 C 0.11989 0.85165 0.53841 0.0
C320 C 0.14367 0.86889 0.5289 0.0
C321 C 0.16368 0.89397 0.53584 0.0
C322 C 0.16023 0.90165 0.55186 0.0
C323 C 0.13647 0.88418 0.56119 0.0
C324 C 0.11671 0.85969 0.55441 0.0
C325 C 0.09277 0.84374 0.56618 0.0
C326 C 0.10111 0.86298 0.58093 0.0
C327 C 0.12687 0.88655 0.57799 0.0
C328 C 0.09235 0.81692 0.5707 0.0
C329 C 0.06572 0.83967 0.55778 0.0
C330 C 0.18786 0.96849 0.61454 0.0
C331 C 0.18387 0.97669 0.63039 0.0
C332 C 0.15787 0.96085 0.63834 0.0
C333 C 0.13687 0.93696 0.63108 0.0
C334 C 0.14156 0.92863 0.61557 0.0
C335 C 0.16643 0.94462 0.60736 0.0
C336 C 0.16691 0.93325 0.59049 0.0
C337 C 0.13873 0.90724 0.59032 0.0
C338 C 0.12413 0.90456 0.60513 0.0
C339 C 0.19134 0.92724 0.59017 0.0
C340 C 0.16878 0.95379 0.57704 0.0
H341 H 0.04325 0.80431 0.58508 0.0
H342 H 0.02933 0.83572 0.64005 0.0
H343 H 0.0494 0.8875 0.61608 0.0
H344 H 0.08213 0.91426 0.62215 0.0
H345 H 0.05842 0.89163 0.63776 0.0
H346 H 0.09343 0.85087 0.63872 0.0
H347 H 0.08085 0.86956 0.65039 0.0
H348 H 0.11466 0.88621 0.64063 0.0
H349 H 0.10425 0.83208 0.53364 0.0
H350 H 0.18198 0.9079 0.5288 0.0
H351 H 0.17627 0.92093 0.55638 0.0
H352 H 0.11374 0.81965 0.57047 0.0
H353 H 0.0794 0.80048 0.56177 0.0
H354 H 0.08482 0.80992 0.58349 0.0
H355 H 0.06942 0.85876 0.55158 0.0
H356 H 0.04866 0.83454 0.5667 0.0
H357 H 0.05834 0.82352 0.54816 0.0
H358 H 1.00327 0.77438 0.60186 0.0
C359 C 0.04096 0.81185 0.59686 0.0
C360 C 0.89156 0.51221 0.73313 0.0
C361 C 0.89822 0.53691 0.74094 0.0
C362 C 0.91002 0.54201 0.75705 0.0
C363 C 0.90857 0.49854 0.75709 0.0
C364 C 0.89665 0.49337 0.74144 0.0
C365 C 0.88995 0.46589 0.73502 0.0
H366 H 0.89104 0.34821 0.74663 0.0
C367 C 0.91115 0.47479 0.76219 0.0
C368 C 0.9 0.45549 0.74935 0.0
H369 H 0.86019 0.37211 0.70399 0.0
H370 H 0.87241 0.41477 0.71727 0.0
H371 H 0.94637 0.40504 0.75064 0.0
H372 H 0.8663 0.37028 0.77449 0.0
H373 H 0.8915 0.38727 0.79 0.0
H374 H 0.89101 0.35931 0.77901 0.0
H375 H 0.93559 0.37906 0.76627 0.0
H376 H 0.95281 0.41466 0.77162 0.0
C377 C 0.90724 0.47011 0.719 0.0
C378 C 0.85795 0.44868 0.73256 0.0
C379 C 0.95899 0.4763 0.81675 0.0
C380 C 0.96499 0.45741 0.82444 0.0
C381 C 0.95579 0.43199 0.81677 0.0
C382 C 0.94138 0.42566 0.80162 0.0
C383 C 0.93602 0.4449 0.79395 0.0
C384 C 0.94455 0.46964 0.80156 0.0
C385 C 0.93673 0.48741 0.79158 0.0
C386 C 0.9226 0.46942 0.7766 0.0
C387 C 0.9223 0.44459 0.77809 0.0
C388 C 0.9639 0.51363 0.78671 0.0
C389 C 0.91612 0.49237 0.80202 0.0
C390 C 0.8871 0.36269 0.74007 0.0
C391 C 0.87471 0.35676 0.72419 0.0
C392 C 0.86947 0.37603 0.71628 0.0
C393 C 0.87674 0.40087 0.72399 0.0
C394 C 0.88939 0.40656 0.73979 0.0
C395 C 0.89432 0.38757 0.74754 0.0
C396 C 0.90826 0.39712 0.76418 0.0
C397 C 0.91072 0.42494 0.76522 0.0
C398 C 0.89966 0.43038 0.75092 0.0
C399 C 0.9372 0.39896 0.76331 0.0
C400 C 0.88849 0.37749 0.77771 0.0
H401 H 0.92427 0.52813 0.77734 0.0
H402 H 0.88277 0.50762 0.72072 0.0
H403 H 0.8467 0.45376 0.7421 0.0
H404 H 0.84989 0.42664 0.73412 0.0
H405 H 0.85165 0.45244 0.72013 0.0
H406 H 0.92836 0.4883 0.72017 0.0
H407 H 0.89695 0.47324 0.708 0.0
H408 H 0.91105 0.4531 0.71646 0.0
H409 H 0.96584 0.49606 0.82225 0.0
H410 H 0.95958 0.41684 0.82256 0.0
H411 H 0.93506 0.40601 0.79646 0.0
H412 H 0.98028 0.50874 0.78293 0.0
H413 H 0.97216 0.52798 0.79735 0.0
H414 H 0.96129 0.52426 0.77594 0.0
H415 H 0.90304 0.47462 0.81017 0.0
H416 H 0.90099 0.49484 0.79425 0.0
H417 H 0.9274 0.51045 0.81017 0.0
H418 H 0.9149 0.56058 0.76355 0.0
C419 C 0.91526 0.52303 0.76513 0.0
C420 C 0.63741 0.52238 0.7256 0.0
C421 C 0.65335 0.54884 0.73196 0.0
C422 C 0.64636 0.55488 0.74765 0.0
C423 C 0.60803 0.50863 0.75028 0.0
C424 C 0.61486 0.50275 0.73488 0.0
C425 C 0.5952 0.47396 0.72962 0.0
H426 H 0.48096 0.35223 0.74562 0.0
C427 C 0.58327 0.48381 0.75658 0.0
C428 C 0.57566 0.46344 0.74447 0.0
H429 H 0.53231 0.37676 0.70138 0.0
H430 H 0.56258 0.42071 0.71355 0.0
H431 H 0.53119 0.37907 0.77192 0.0
H432 H 0.4789 0.40633 0.7492 0.0
H433 H 0.4835 0.41726 0.76994 0.0
H434 H 0.46676 0.38136 0.76551 0.0
H435 H 0.49555 0.36619 0.77794 0.0
H436 H 0.52364 0.39613 0.78747 0.0
C437 C 0.61218 0.4591 0.7277 0.0
C438 C 0.58002 0.4748 0.71356 0.0
C439 C 0.54006 0.48423 0.81268 0.0
C440 C 0.51631 0.46429 0.82112 0.0
C441 C 0.50117 0.43804 0.81423 0.0
C442 C 0.509 0.43184 0.79904 0.0
C443 C 0.53219 0.4521 0.79047 0.0
C444 C 0.54752 0.47772 0.79735 0.0
C445 C 0.57132 0.49663 0.78621 0.0
C446 C 0.56755 0.47812 0.77155 0.0
C447 C 0.54455 0.4521 0.77417 0.0
C448 C 0.59894 0.5053 0.79562 0.0
C449 C 0.56677 0.52054 0.78112 0.0
C450 C 0.4986 0.3671 0.73847 0.0
C451 C 0.50408 0.36095 0.72245 0.0
C452 C 0.52767 0.38081 0.71379 0.0
C453 C 0.54513 0.40643 0.72084 0.0
C454 C 0.53897 0.41241 0.73672 0.0
C455 C 0.51612 0.39279 0.74528 0.0
C456 C 0.51245 0.4027 0.7619 0.0
C457 C 0.53673 0.43163 0.76187 0.0
C458 C 0.55222 0.43722 0.74712 0.0
C459 C 0.51563 0.38512 0.77561 0.0
C460 C 0.4839 0.40178 0.76182 0.0
H461 H 0.61973 0.54082 0.7687 0.0
H462 H 0.64205 0.51719 0.71351 0.0
H463 H 0.57667 0.49261 0.71359 0.0
H464 H 0.5589 0.45702 0.71231 0.0
H465 H 0.59237 0.4764 0.70229 0.0
H466 H 0.62829 0.46545 0.73763 0.0
H467 H 0.62306 0.46387 0.7155 0.0
H468 H 0.5993 0.43683 0.72903 0.0
H469 H 0.55203 0.50462 0.81762 0.0
H470 H 0.48309 0.42223 0.8206 0.0
H471 H 0.49641 0.41153 0.79447 0.0
H472 H 0.59782 0.48783 0.80265 0.0
H473 H 0.60335 0.52171 0.80469 0.0
H474 H 0.617 0.51211 0.78723 0.0
H475 H 0.54419 0.5135 0.77949 0.0
H476 H 0.5763 0.52963 0.76901 0.0
H477 H 0.57499 0.53669 0.79077 0.0
H478 H 0.65851 0.57504 0.75291 0.0
C479 C 0.62391 0.53494 0.75685 0.0
C480 C 0.63966 0.12938 0.72601 0.0
C481 C 0.66048 0.12383 0.73169 0.0
C482 C 0.65667 0.1105 0.74712 0.0
C483 C 0.61191 0.10814 0.75088 0.0
C484 C 0.61544 0.12103 0.73568 0.0
C485 C 0.59034 0.12363 0.7311 0.0
H486 H 0.45774 0.09436 0.74848 0.0
C487 C 0.58429 0.10157 0.7577 0.0
C488 C 0.57137 0.11038 0.74605 0.0
H489 H 0.50732 0.13702 0.70556 0.0
H490 H 0.54644 0.13392 0.71676 0.0
H491 H 0.47748 0.04941 0.75179 0.0
H492 H 0.50584 0.12745 0.77454 0.0
H493 H 0.50922 0.10695 0.78971 0.0
H494 H 0.47509 0.09757 0.78161 0.0
H495 H 0.45723 0.05598 0.76658 0.0
H496 H 0.48225 0.04629 0.77319 0.0
C497 C 0.5777 0.10737 0.71489 0.0
C498 C 0.59968 0.15422 0.72972 0.0
C499 C 0.55344 0.05624 0.81487 0.0
C500 C 0.52889 0.04742 0.82432 0.0
C501 C 0.50736 0.0511 0.81758 0.0
C502 C 0.51002 0.06302 0.80185 0.0
C503 C 0.53452 0.07155 0.79255 0.0
C504 C 0.55577 0.06817 0.7991 0.0
C505 C 0.5802 0.07831 0.78731 0.0
C506 C 0.57032 0.08882 0.77282 0.0
C507 C 0.54346 0.08465 0.77594 0.0
C508 C 0.5837 0.05381 0.7822 0.0
C509 C 0.60601 0.10154 0.79604 0.0
C510 C 0.47696 0.10284 0.74143 0.0
C511 C 0.47928 0.11562 0.726 0.0
C512 C 0.50495 0.12704 0.71746 0.0
C513 C 0.52759 0.12507 0.72395 0.0
C514 C 0.52473 0.11171 0.73925 0.0
C515 C 0.49983 0.10134 0.74784 0.0
C516 C 0.50085 0.08907 0.76429 0.0
C517 C 0.53008 0.09287 0.76395 0.0
C518 C 0.54401 0.10596 0.74918 0.0
C519 C 0.47821 0.05861 0.76413 0.0
C520 C 0.49739 0.10586 0.77835 0.0
H521 H 0.63124 0.09282 0.76837 0.0
H522 H 0.64184 0.13931 0.71413 0.0
H523 H 0.61544 0.16609 0.73943 0.0
H524 H 0.58244 0.15844 0.73183 0.0
H525 H 0.60923 0.16253 0.71739 0.0
H526 H 0.57818 0.08797 0.7151 0.0
H527 H 0.58965 0.11915 0.70381 0.0
H528 H 0.55557 0.10131 0.71315 0.0
H529 H 0.57032 0.05353 0.81949 0.0
H530 H 0.48842 0.04501 0.82457 0.0
H531 H 0.49279 0.06511 0.79753 0.0
H532 H 0.56331 0.03456 0.78222 0.0
H533 H 0.59779 0.05111 0.7909 0.0
H534 H 0.59156 0.05559 0.76935 0.0
H535 H 0.60026 0.11527 0.80267 0.0
H536 H 0.62266 0.11471 0.78728 0.0
H537 H 0.61478 0.09331 0.80537 0.0
H538 H 0.67245 0.10612 0.7518 0.0
C539 C 0.63271 0.10281 0.75674 0.0
C540 C 0.84701 0.54621 0.96036 0.0
C541 C 0.87333 0.55278 0.95382 0.0
C542 C 0.87967 0.56226 0.93729 0.0
C543 C 0.83483 0.55992 0.93426 0.0
C544 C 0.8282 0.55019 0.9504 0.0
C545 C 0.79995 0.54597 0.95547 0.0
H546 H 0.68877 0.56297 0.93743 0.0
C547 C 0.81166 0.56314 0.92744 0.0
C548 C 0.79107 0.55512 0.93985 0.0
H549 H 0.70206 0.52896 0.98235 0.0
H550 H 0.74466 0.53322 0.97074 0.0
H551 H 0.75199 0.60991 0.93157 0.0
H552 H 0.70436 0.52825 0.91291 0.0
H553 H 0.72581 0.54814 0.89653 0.0
H554 H 0.69998 0.55549 0.90492 0.0
H555 H 0.72401 0.59972 0.91689 0.0
H556 H 0.75914 0.61074 0.9102 0.0
C557 C 0.8041 0.5646 0.9705 0.0
C558 C 0.78054 0.51537 0.95906 0.0
C559 C 0.81886 0.59991 0.86837 0.0
C560 C 0.80131 0.60604 0.85869 0.0
C561 C 0.77611 0.60178 0.86586 0.0
C562 C 0.76851 0.59166 0.88213 0.0
C563 C 0.78623 0.58565 0.89159 0.0
C564 C 0.81091 0.58978 0.88466 0.0
C565 C 0.82725 0.58252 0.89665 0.0
C566 C 0.80812 0.573 0.91179 0.0
C567 C 0.78416 0.57497 0.90877 0.0
C568 C 0.85533 0.60869 0.90031 0.0
C569 C 0.83025 0.55909 0.88893 0.0
C570 C 0.7009 0.55651 0.94479 0.0
C571 C 0.69221 0.54595 0.96092 0.0
C572 C 0.7083 0.5372 0.96992 0.0
C573 C 0.73311 0.53985 0.96318 0.0
C574 C 0.74189 0.55114 0.94717 0.0
C575 C 0.72542 0.55868 0.93816 0.0
C576 C 0.73696 0.56905 0.92108 0.0
C577 C 0.76349 0.56728 0.92138 0.0
C578 C 0.76661 0.55704 0.93676 0.0
C579 C 0.74326 0.59886 0.91969 0.0
C580 C 0.71575 0.54947 0.90809 0.0
H581 H 0.86699 0.57315 0.91509 0.0
H582 H 0.84165 0.53908 0.97306 0.0
H583 H 0.78435 0.50272 0.95004 0.0
H584 H 0.75825 0.50904 0.95764 0.0
H585 H 0.78414 0.50996 0.97177 0.0
H586 H 0.82244 0.58516 0.96846 0.0
H587 H 0.80781 0.55615 0.9821 0.0
H588 H 0.7863 0.56793 0.97252 0.0
H589 H 0.83828 0.60269 0.86335 0.0
H590 H 0.76234 0.60673 0.85897 0.0
H591 H 0.74915 0.5891 0.88676 0.0
H592 H 0.85316 0.62715 0.89936 0.0
H593 H 0.87173 0.61116 0.89136 0.0
H594 H 0.86287 0.60925 0.91314 0.0
H595 H 0.81061 0.54426 0.88258 0.0
H596 H 0.83411 0.54703 0.89828 0.0
H597 H 0.84723 0.56694 0.87953 0.0
H598 H 0.89967 0.5673 0.93196 0.0
C599 C 0.86063 0.5657 0.92751 0.0
C600 C 0.44041 0.14469 0.95922 0.0
C601 C 0.43293 0.11958 0.95176 0.0
C602 C 0.41817 0.11294 0.93654 0.0
C603 C 0.42077 0.15687 0.93579 0.0
C604 C 0.43419 0.16294 0.95104 0.0
C605 C 0.4417 0.19091 0.95694 0.0
H606 H 0.44616 0.31066 0.94294 0.0
C607 C 0.41898 0.18085 0.93016 0.0
C608 C 0.43113 0.2008 0.94258 0.0
H609 H 0.4731 0.28551 0.98682 0.0
H610 H 0.45916 0.24207 0.97422 0.0
H611 H 0.46949 0.28479 0.91608 0.0
H612 H 0.38915 0.25551 0.93884 0.0
H613 H 0.38296 0.24503 0.91798 0.0
H614 H 0.40182 0.28087 0.92275 0.0
H615 H 0.44691 0.29808 0.91094 0.0
H616 H 0.4443 0.26882 0.90043 0.0
C617 C 0.47386 0.20782 0.95869 0.0
C618 C 0.42545 0.18789 0.97326 0.0
C619 C 0.37687 0.18087 0.87352 0.0
C620 C 0.3726 0.20039 0.86514 0.0
C621 C 0.38179 0.22587 0.87271 0.0
C622 C 0.39464 0.23177 0.88837 0.0
C623 C 0.39842 0.212 0.89669 0.0
C624 C 0.38968 0.18707 0.88927 0.0
C625 C 0.3953 0.16856 0.90012 0.0
C626 C 0.4087 0.18647 0.91527 0.0
C627 C 0.41053 0.21192 0.91312 0.0
C628 C 0.41593 0.16227 0.89078 0.0
C629 C 0.36704 0.14313 0.90445 0.0
C630 C 0.44887 0.29574 0.94992 0.0
C631 C 0.4608 0.30164 0.96594 0.0
C632 C 0.46433 0.2817 0.9744 0.0
C633 C 0.45599 0.25636 0.9671 0.0
C634 C 0.44394 0.25076 0.95114 0.0
C635 C 0.44052 0.27029 0.94284 0.0
C636 C 0.42688 0.26061 0.92612 0.0
C637 C 0.42259 0.23199 0.92576 0.0
C638 C 0.43275 0.22641 0.94041 0.0
C639 C 0.44773 0.27902 0.91259 0.0
C640 C 0.39881 0.26061 0.92625 0.0
H641 H 0.4012 0.12525 0.91688 0.0
H642 H 0.45187 0.15053 0.97084 0.0
H643 H 0.405 0.1687 0.9733 0.0
H644 H 0.42009 0.20413 0.97484 0.0
H645 H 0.43734 0.18747 0.98431 0.0
H646 H 0.48424 0.20303 0.94844 0.0
H647 H 0.48089 0.20335 0.97065 0.0
H648 H 0.48205 0.22994 0.95774 0.0
H649 H 0.36986 0.16102 0.86812 0.0
H650 H 0.37916 0.24142 0.86646 0.0
H651 H 0.40106 0.25152 0.8934 0.0
H652 H 0.43217 0.18075 0.88429 0.0
H653 H 0.40494 0.14625 0.88125 0.0
H654 H 0.42758 0.15598 0.89913 0.0
H655 H 0.35036 0.14856 0.90585 0.0
H656 H 0.36743 0.13385 0.91648 0.0
H657 H 0.3604 0.12753 0.89451 0.0
H658 H 0.41167 0.09351 0.93066 0.0
C659 C 0.41209 0.1314 0.92854 0.0
C660 C 0.70276 0.15498 0.96425 0.0
C661 C 0.68385 0.12882 0.95857 0.0
C662 C 0.69033 0.11887 0.94418 0.0
C663 C 0.73321 0.16195 0.94073 0.0
C664 C 0.72716 0.17103 0.95525 0.0
C665 C 0.74898 0.19943 0.95963 0.0
H666 H 0.86819 0.3144 0.94141 0.0
C667 C 0.75956 0.18452 0.93398 0.0
C668 C 0.76883 0.20637 0.94512 0.0
H669 H 0.81596 0.29571 0.98506 0.0
H670 H 0.7846 0.25146 0.9742 0.0
H671 H 0.86516 0.2555 0.93963 0.0
H672 H 0.81824 0.28751 0.91499 0.0
H673 H 0.82379 0.2677 0.90039 0.0
H674 H 0.85333 0.29741 0.90909 0.0
H675 H 0.87998 0.28155 0.92397 0.0
H676 H 0.86162 0.24602 0.91855 0.0
C677 C 0.76255 0.19837 0.97637 0.0
C678 C 0.73499 0.21736 0.95985 0.0
C679 C 0.79777 0.175 0.87824 0.0
C680 C 0.82092 0.1931 0.86859 0.0
C681 C 0.83851 0.21962 0.87463 0.0
C682 C 0.83329 0.22794 0.88997 0.0
C683 C 0.81014 0.20964 0.89946 0.0
C684 C 0.79272 0.1837 0.89352 0.0
C685 C 0.76875 0.16726 0.90517 0.0
C686 C 0.77481 0.18754 0.91911 0.0
C687 C 0.79916 0.21233 0.91569 0.0
C688 C 0.77081 0.14234 0.9112 0.0
C689 C 0.7413 0.15995 0.89592 0.0
C690 C 0.85005 0.30066 0.94864 0.0
C691 C 0.84449 0.30869 0.9641 0.0
C692 C 0.82051 0.29028 0.97302 0.0
C693 C 0.8024 0.2644 0.96674 0.0
C694 C 0.80819 0.25663 0.95134 0.0
C695 C 0.83166 0.27458 0.94253 0.0
C696 C 0.8343 0.26249 0.9264 0.0
C697 C 0.80872 0.23425 0.92717 0.0
C698 C 0.7936 0.23113 0.94178 0.0
C699 C 0.86174 0.2614 0.92699 0.0
C700 C 0.83255 0.27964 0.91187 0.0
H701 H 0.71853 0.1269 0.92416 0.0
H702 H 0.69844 0.16298 0.97539 0.0
H703 H 0.71884 0.21098 0.94994 0.0
H704 H 0.74966 0.23901 0.95723 0.0
H705 H 0.7246 0.21567 0.97197 0.0
H706 H 0.7616 0.17843 0.97813 0.0
H707 H 0.7518 0.20138 0.98713 0.0
H708 H 0.78506 0.21346 0.97698 0.0
H709 H 0.78368 0.15458 0.87389 0.0
H710 H 0.85666 0.23386 0.86758 0.0
H711 H 0.84757 0.24832 0.89387 0.0
H712 H 0.79296 0.14786 0.91311 0.0
H713 H 0.76163 0.12564 0.90193 0.0
H714 H 0.76068 0.13452 0.92336 0.0
H715 H 0.74375 0.17749 0.88836 0.0
H716 H 0.72377 0.15508 0.90441 0.0
H717 H 0.73525 0.14254 0.88736 0.0
H718 H 0.67592 0.09869 0.93959 0.0
C719 C 0.71492 0.13534 0.93519 0.0
C720 C 0.57002 0.84314 0.05711 0.0
C721 C 0.57326 0.86717 0.06426 0.0
C722 C 0.588 0.87643 0.07937 0.0
C723 C 0.59353 0.83674 0.08087 0.0
C724 C 0.58021 0.8282 0.06567 0.0
C725 C 0.57726 0.80137 0.06046 0.0
H726 H 0.59076 0.69196 0.0799 0.0
C727 C 0.59951 0.81569 0.08722 0.0
C728 C 0.59012 0.7949 0.07531 0.0
H729 H 0.56043 0.70777 0.03389 0.0
H730 H 0.56891 0.75101 0.04453 0.0
H731 H 0.64386 0.7527 0.08326 0.0
H732 H 0.56118 0.71286 0.10392 0.0
H733 H 0.58342 0.73393 0.11965 0.0
H734 H 0.58804 0.70669 0.11164 0.0
H735 H 0.63287 0.72702 0.0991 0.0
H736 H 0.64696 0.76241 0.10424 0.0
C737 C 0.59448 0.80603 0.04436 0.0
C738 C 0.5458 0.78056 0.05861 0.0
C739 C 0.64251 0.826 0.14469 0.0
C740 C 0.6483 0.80875 0.15445 0.0
C741 C 0.64204 0.78318 0.14811 0.0
C742 C 0.63044 0.77498 0.13222 0.0
C743 C 0.62483 0.79245 0.12256 0.0
C744 C 0.63063 0.81737 0.12889 0.0
C745 C 0.62212 0.83269 0.11714 0.0
C746 C 0.61088 0.81312 0.10256 0.0
C747 C 0.61265 0.78969 0.10581 0.0
C748 C 0.64856 0.85967 0.11233 0.0
C749 C 0.59903 0.83628 0.12573 0.0
C750 C 0.58628 0.70485 0.072 0.0
C751 C 0.57481 0.69631 0.05604 0.0
C752 C 0.5689 0.71364 0.04632 0.0
C753 C 0.57397 0.73883 0.05249 0.0
C754 C 0.58508 0.74686 0.06856 0.0
C755 C 0.59129 0.73006 0.07794 0.0
C756 C 0.60335 0.74198 0.09464 0.0
C757 C 0.60349 0.76878 0.09372 0.0
C758 C 0.59255 0.77147 0.07849 0.0
C759 C 0.63326 0.74616 0.09554 0.0
C760 C 0.58321 0.72294 0.10826 0.0
H761 H 0.60878 0.86938 0.09925 0.0
H762 H 0.55877 0.83554 0.04552 0.0
H763 H 0.53373 0.78282 0.06894 0.0
H764 H 0.54111 0.75926 0.05925 0.0
H765 H 0.53747 0.78366 0.04671 0.0
H766 H 0.61309 0.82677 0.04412 0.0
H767 H 0.58186 0.80392 0.03311 0.0
H768 H 0.60306 0.79214 0.04336 0.0
H769 H 0.64675 0.84561 0.14936 0.0
H770 H 0.6465 0.76966 0.15538 0.0
H771 H 0.62629 0.75534 0.12809 0.0
H772 H 0.6669 0.85664 0.1111 0.0
H773 H 0.65367 0.87551 0.12194 0.0
H774 H 0.64673 0.86763 0.10011 0.0
H775 H 0.5859 0.81866 0.13396 0.0
H776 H 0.58414 0.83699 0.11685 0.0
H777 H 0.60818 0.85487 0.13355 0.0
H778 H 0.59119 0.89514 0.08496 0.0
C779 C 0.59818 0.86142 0.08767 0.0
C780 C 0.29517 0.83457 0.06042 0.0
C781 C 0.31614 0.86054 0.06517 0.0
C782 C 0.31293 0.87204 0.07995 0.0
C783 C 0.26913 0.83078 0.0856 0.0
C784 C 0.27193 0.82025 0.07067 0.0
C785 C 0.24802 0.79235 0.06729 0.0
H786 H 0.12566 0.68514 0.09098 0.0
C787 C 0.2431 0.80983 0.09365 0.0
C788 C 0.23063 0.78745 0.0828 0.0
H789 H 0.1721 0.69532 0.04565 0.0
H790 H 0.20746 0.73959 0.05459 0.0
H791 H 0.17632 0.70546 0.11421 0.0
H792 H 0.13603 0.74658 0.0931 0.0
H793 H 0.14305 0.75643 0.1141 0.0
H794 H 0.12101 0.72103 0.10903 0.0
H795 H 0.14636 0.70396 0.12382 0.0
H796 H 0.18135 0.73029 0.1289 0.0
C797 C 0.25962 0.77246 0.06611 0.0
C798 C 0.23282 0.79388 0.0514 0.0
C799 C 0.21682 0.8225 0.15267 0.0
C800 C 0.19495 0.80487 0.1633 0.0
C801 C 0.1745 0.77934 0.15729 0.0
C802 C 0.17585 0.77116 0.14112 0.0
C803 C 0.19804 0.78854 0.13075 0.0
C804 C 0.2181 0.81377 0.13648 0.0
C805 C 0.24048 0.82896 0.12359 0.0
C806 C 0.23061 0.80845 0.1094 0.0
C807 C 0.20562 0.78494 0.11375 0.0
C808 C 0.26867 0.83426 0.13088 0.0
C809 C 0.23985 0.85508 0.11872 0.0
C810 C 0.14351 0.69682 0.08301 0.0
C811 C 0.1458 0.68671 0.06747 0.0
C812 C 0.16939 0.70277 0.0575 0.0
C813 C 0.19008 0.72848 0.06278 0.0
C814 C 0.18741 0.73833 0.07828 0.0
C815 C 0.16453 0.72249 0.08816 0.0
C816 C 0.16569 0.73591 0.10448 0.0
C817 C 0.19273 0.76273 0.10256 0.0
C818 C 0.20525 0.76399 0.08721 0.0
C819 C 0.16733 0.71806 0.11866 0.0
C820 C 0.14008 0.74015 0.10541 0.0
H821 H 0.28841 0.86678 0.10151 0.0
H822 H 0.29702 0.82541 0.04902 0.0
H823 H 0.23388 0.81396 0.05037 0.0
H824 H 0.21027 0.77895 0.05144 0.0
H825 H 0.24239 0.79105 0.03999 0.0
H826 H 0.27737 0.77843 0.07485 0.0
H827 H 0.26728 0.7723 0.05336 0.0
H828 H 0.24424 0.75143 0.06974 0.0
H829 H 0.23283 0.84224 0.15701 0.0
H830 H 0.15726 0.76564 0.16516 0.0
H831 H 0.15958 0.75147 0.13739 0.0
H832 H 0.2662 0.81576 0.1373 0.0
H833 H 0.27675 0.85103 0.14012 0.0
H834 H 0.28476 0.83923 0.12131 0.0
H835 H 0.21804 0.8512 0.11831 0.0
H836 H 0.24828 0.86248 0.10615 0.0
H837 H 0.25154 0.87157 0.12787 0.0
H838 H 0.32898 0.89209 0.08382 0.0
C839 C 0.28953 0.85725 0.09024 0.0
C840 C 0.30062 0.45592 0.05986 0.0
C841 C 0.31821 0.44663 0.06623 0.0
C842 C 0.31308 0.43536 0.08239 0.0
C843 C 0.27262 0.44116 0.08521 0.0
C844 C 0.27785 0.45275 0.06949 0.0
C845 C 0.25598 0.4599 0.06434 0.0
H846 H 0.13122 0.45234 0.07961 0.0
C847 C 0.24661 0.43939 0.09164 0.0
C848 C 0.23663 0.45028 0.07939 0.0
H849 H 0.18497 0.48914 0.03718 0.0
H850 H 0.21927 0.47915 0.04915 0.0
H851 H 0.14075 0.40095 0.08375 0.0
H852 H 0.17963 0.48018 0.10623 0.0
H853 H 0.17782 0.45759 0.1218 0.0
H854 H 0.14602 0.4535 0.11273 0.0
H855 H 0.12337 0.41117 0.09849 0.0
H856 H 0.1444 0.39668 0.10511 0.0
C857 C 0.24133 0.4435 0.0485 0.0
C858 C 0.27033 0.49111 0.06206 0.0
C859 C 0.20775 0.39562 0.14843 0.0
C860 C 0.18291 0.38926 0.15693 0.0
C861 C 0.16463 0.39705 0.1497 0.0
C862 C 0.17051 0.41032 0.13425 0.0
C863 C 0.19494 0.4159 0.12568 0.0
C864 C 0.21322 0.40877 0.13282 0.0
C865 C 0.23774 0.41572 0.12156 0.0
C866 C 0.2313 0.42849 0.10668 0.0
C867 C 0.20612 0.42844 0.10918 0.0
C868 C 0.23708 0.38889 0.11685 0.0
C869 C 0.2646 0.43656 0.13069 0.0
C870 C 0.15031 0.45806 0.07285 0.0
C871 C 0.15523 0.47119 0.05732 0.0
C872 C 0.18066 0.47895 0.04913 0.0
C873 C 0.20048 0.47302 0.05609 0.0
C874 C 0.195 0.4594 0.07151 0.0
C875 C 0.17044 0.45268 0.07974 0.0
C876 C 0.16861 0.43964 0.09638 0.0
C877 C 0.19579 0.43902 0.09669 0.0
C878 C 0.2111 0.45028 0.08199 0.0
C879 C 0.14289 0.41063 0.0961 0.0
C880 C 0.16776 0.45844 0.11008 0.0
H881 H 0.28787 0.4238 0.10403 0.0
H882 H 0.30391 0.46452 0.04746 0.0
H883 H 0.28746 0.50175 0.07125 0.0
H884 H 0.25605 0.49915 0.06428 0.0
H885 H 0.27951 0.49728 0.04942 0.0
H886 H 0.23702 0.42218 0.04968 0.0
H887 H 0.25463 0.4526 0.03734 0.0
H888 H 0.2209 0.4419 0.04621 0.0
H889 H 0.22209 0.38967 0.15354 0.0
H890 H 0.14554 0.39269 0.15601 0.0
H891 H 0.15552 0.41539 0.12947 0.0
H892 H 0.21528 0.37165 0.11622 0.0
H893 H 0.24842 0.38349 0.12618 0.0
H894 H 0.24574 0.3896 0.10436 0.0
H895 H 0.26114 0.45185 0.13731 0.0
H896 H 0.28218 0.44845 0.12215 0.0
H897 H 0.27109 0.42635 0.14008 0.0
H898 H 0.32647 0.42835 0.08767 0.0
C899 C 0.29061 0.43272 0.0919 0.0
C900 C 0.50667 0.87281 0.29559 0.0
C901 C 0.53307 0.87907 0.2894 0.0
C902 C 0.54109 0.89114 0.27351 0.0
C903 C 0.4971 0.89064 0.27026 0.0
C904 C 0.48925 0.87908 0.28593 0.0
C905 C 0.46122 0.8753 0.29095 0.0
H906 H 0.3524 0.89601 0.27412 0.0
C907 C 0.47451 0.89492 0.2635 0.0
C908 C 0.45346 0.88617 0.27569 0.0
H909 H 0.36482 0.85985 0.31834 0.0
H910 H 0.40689 0.86345 0.30639 0.0
H911 H 0.41628 0.94237 0.26821 0.0
H912 H 0.36598 0.86142 0.24921 0.0
H913 H 0.38896 0.88005 0.23307 0.0
H914 H 0.36428 0.88974 0.24051 0.0
H915 H 0.38756 0.93267 0.25416 0.0
H916 H 0.42215 0.94333 0.24663 0.0
C917 C 0.46549 0.89291 0.30655 0.0
C918 C 0.44093 0.84457 0.29359 0.0
C919 C 0.48183 0.93308 0.20461 0.0
C920 C 0.46366 0.93845 0.19498 0.0
C921 C 0.43849 0.93391 0.20228 0.0
C922 C 0.43134 0.92408 0.2186 0.0
C923 C 0.44944 0.91852 0.22798 0.0
C924 C 0.47421 0.92297 0.22098 0.0
C925 C 0.4906 0.91555 0.2329 0.0
C926 C 0.47133 0.90551 0.248 0.0
C927 C 0.44738 0.90756 0.24505 0.0
C928 C 0.5185 0.94166 0.23681 0.0
C929 C 0.49398 0.89252 0.22493 0.0
C930 C 0.36426 0.88897 0.28125 0.0
C931 C 0.35551 0.87801 0.29729 0.0
C932 C 0.37116 0.86844 0.30599 0.0
C933 C 0.39567 0.87074 0.29906 0.0
C934 C 0.4046 0.88253 0.28318 0.0
C935 C 0.38851 0.89082 0.27444 0.0
C936 C 0.40014 0.90157 0.25742 0.0
C937 C 0.42651 0.89948 0.25756 0.0
C938 C 0.42927 0.88852 0.27272 0.0
C939 C 0.40679 0.93152 0.25638 0.0
C940 C 0.37881 0.88246 0.24429 0.0
H941 H 0.53069 0.90586 0.25192 0.0
H942 H 0.50002 0.86382 0.30782 0.0
H943 H 0.44456 0.83235 0.28414 0.0
H944 H 0.41886 0.83899 0.29204 0.0
H945 H 0.4438 0.83788 0.30608 0.0
H946 H 0.48494 0.91292 0.30543 0.0
H947 H 0.46727 0.88274 0.31796 0.0
H948 H 0.4487 0.89781 0.30835 0.0
H949 H 0.5013 0.93621 0.19943 0.0
H950 H 0.4243 0.93829 0.19538 0.0
H951 H 0.41193 0.92125 0.2233 0.0
H952 H 0.51591 0.95992 0.23662 0.0
H953 H 0.53475 0.94498 0.22751 0.0
H954 H 0.5264 0.94146 0.24942 0.0
H955 H 0.47415 0.87727 0.21894 0.0
H956 H 0.49894 0.88099 0.23408 0.0
H957 H 0.51042 0.9007 0.2152 0.0
H958 H 0.56118 0.89599 0.26841 0.0
C959 C 0.52329 0.8968 0.26392 0.0
C960 C 0.10652 0.48037 0.29625 0.0
C961 C 0.1012 0.45563 0.28904 0.0
C962 C 0.09066 0.44979 0.27262 0.0
C963 C 0.09058 0.4925 0.27112 0.0
C964 C 0.10128 0.49844 0.28709 0.0
C965 C 0.10654 0.52581 0.29282 0.0
H966 H 0.09633 0.6383 0.27949 0.0
C967 C 0.08741 0.51555 0.26511 0.0
C968 C 0.09695 0.53521 0.27774 0.0
H969 H 0.1322 0.61904 0.3218 0.0
H970 H 0.12264 0.5772 0.30892 0.0
H971 H 0.12728 0.62098 0.25245 0.0
H972 H 0.04425 0.5769 0.27285 0.0
H973 H 0.04235 0.57292 0.25106 0.0
H974 H 0.05581 0.60634 0.25978 0.0
H975 H 0.10034 0.62807 0.24617 0.0
H976 H 0.1047 0.60186 0.23626 0.0
C977 C 0.13828 0.54405 0.29606 0.0
C978 C 0.08788 0.52138 0.30821 0.0
C979 C 0.04354 0.5102 0.20855 0.0
C980 C 0.03756 0.52809 0.19962 0.0
C981 C 0.04506 0.55364 0.20658 0.0
C982 C 0.05771 0.56099 0.22233 0.0
C983 C 0.06311 0.54267 0.23123 0.0
C984 C 0.05637 0.51791 0.22419 0.0
C985 C 0.06431 0.50129 0.23518 0.0
C986 C 0.07657 0.51994 0.25009 0.0
C987 C 0.07565 0.5441 0.24779 0.0
C988 C 0.0865 0.49708 0.22595 0.0
C989 C 0.03736 0.47461 0.23973 0.0
C990 C 0.10235 0.62522 0.28596 0.0
C991 C 0.11466 0.63205 0.30192 0.0
C992 C 0.12198 0.61416 0.30978 0.0
C993 C 0.11666 0.58985 0.30218 0.0
C994 C 0.10405 0.58321 0.28641 0.0
C995 C 0.09748 0.60091 0.27843 0.0
C996 C 0.08529 0.59085 0.26137 0.0
C997 C 0.08526 0.564 0.26062 0.0
C998 C 0.09604 0.55961 0.27542 0.0
C999 C 0.10519 0.61147 0.24829 0.0
C1000 C 0.05538 0.58661 0.26109 0.0
H1001 H 0.07729 0.46228 0.25128 0.0
H1002 H 0.11441 0.48559 0.30884 0.0
H1003 H 0.0668 0.50337 0.3064 0.0
H1004 H 0.08414 0.53848 0.31054 0.0
H1005 H 0.09705 0.51776 0.31959 0.0
H1006 H 0.15073 0.53772 0.2883 0.0
H1007 H 0.14355 0.543 0.30929 0.0
H1008 H 0.14608 0.56555 0.29258 0.0
H1009 H 0.03843 0.4906 0.20343 0.0
H1010 H 0.04056 0.56772 0.19997 0.0
H1011 H 0.06258 0.58056 0.22704 0.0
H1012 H 0.0997 0.51472 0.21775 0.0
H1013 H 0.07655 0.47863 0.21801 0.0
H1014 H 0.10142 0.49568 0.23452 0.0
H1015 H 0.01998 0.47868 0.24231 0.0
H1016 H 0.03943 0.46489 0.25114 0.0
H1017 H 0.03071 0.45975 0.22935 0.0
H1018 H 0.08691 0.43124 0.26654 0.0
C1019 C 0.08529 0.46799 0.26368 0.0
C1020 C 0.38175 0.49949 0.29577 0.0
C1021 C 0.36146 0.47348 0.29052 0.0
C1022 C 0.36595 0.46287 0.27572 0.0
C1023 C 0.4099 0.50464 0.27131 0.0
C1024 C 0.40577 0.5145 0.28614 0.0
C1025 C 0.42953 0.54219 0.29032 0.0
H1026 H 0.55423 0.65021 0.27013 0.0
C1027 C 0.43671 0.52587 0.26411 0.0
C1028 C 0.44831 0.54777 0.27536 0.0
H1029 H 0.50641 0.63736 0.31515 0.0
H1030 H 0.47044 0.59419 0.30473 0.0
H1031 H 0.54512 0.5904 0.26833 0.0
H1032 H 0.50332 0.62869 0.24523 0.0
H1033 H 0.50387 0.60652 0.23025 0.0
H1034 H 0.53637 0.63403 0.238 0.0
H1035 H 0.56005 0.6142 0.2515 0.0
H1036 H 0.53794 0.57828 0.24783 0.0
C1037 C 0.44326 0.53988 0.30665 0.0
C1038 C 0.41809 0.5622 0.29119 0.0
C1039 C 0.47082 0.51304 0.20735 0.0
C1040 C 0.49522 0.52974 0.19816 0.0
C1041 C 0.51426 0.55571 0.20433 0.0
C1042 C 0.50969 0.56477 0.21952 0.0
C1043 C 0.48581 0.54773 0.22884 0.0
C1044 C 0.46663 0.52243 0.22272 0.0
C1045 C 0.44264 0.50725 0.23469 0.0
C1046 C 0.45076 0.52766 0.24887 0.0
C1047 C 0.47615 0.55126 0.24528 0.0
C1048 C 0.44244 0.48099 0.24028 0.0
C1049 C 0.41554 0.50217 0.22592 0.0
C1050 C 0.53614 0.63801 0.27782 0.0
C1051 C 0.53327 0.64731 0.29351 0.0
C1052 C 0.50907 0.6309 0.30294 0.0
C1053 C 0.48826 0.60569 0.29692 0.0
C1054 C 0.49159 0.59661 0.28127 0.0
C1055 C 0.5152 0.61275 0.27201 0.0
C1056 C 0.51533 0.59982 0.25573 0.0
C1057 C 0.48807 0.57305 0.25684 0.0
C1058 C 0.47423 0.57132 0.27178 0.0
C1059 C 0.54097 0.59553 0.25565 0.0
C1060 C 0.51491 0.61815 0.24148 0.0
H1061 H 0.39205 0.46939 0.25478 0.0
H1062 H 0.37897 0.508 0.30719 0.0
H1063 H 0.40249 0.5578 0.28116 0.0
H1064 H 0.43432 0.58359 0.28924 0.0
H1065 H 0.40766 0.56045 0.3033 0.0
H1066 H 0.44105 0.51935 0.308 0.0
H1067 H 0.4335 0.5434 0.31774 0.0
H1068 H 0.46601 0.554 0.307 0.0
H1069 H 0.45587 0.49293 0.20294 0.0
H1070 H 0.53296 0.56907 0.19739 0.0
H1071 H 0.52521 0.58467 0.22347 0.0
H1072 H 0.46408 0.48464 0.24166 0.0
H1073 H 0.43154 0.46446 0.23103 0.0
H1074 H 0.43275 0.47371 0.25261 0.0
H1075 H 0.41895 0.52078 0.21921 0.0
H1076 H 0.3983 0.49717 0.23467 0.0
H1077 H 0.40861 0.48552 0.21666 0.0
H1078 H 0.35046 0.44286 0.27143 0.0
C1079 C 0.38998 0.47836 0.26604 0.0
Gd1080 Gd 0.50974 0.00606 0.0297 0.0
Gd1081 Gd 0.4883 0.97469 0.98835 0.0
C1082 C 0.39689 0.90691 0.9915 0.0
C1083 C 0.4011 0.86633 0.99294 0.0
C1084 C 0.44258 0.91092 0.98999 0.0
C1085 C 0.42621 0.92307 0.99021 0.0
C1086 C 0.43001 0.88228 0.99064 0.0
C1087 C 0.38456 0.87863 0.99338 0.0
C1088 C 0.38074 0.91957 0.99057 0.0
C1089 C 0.39373 0.94749 0.98781 0.0
N1090 N 0.43878 0.95054 0.98859 0.0
C1091 C 0.42279 0.96267 0.98666 0.0
H1092 H 0.43188 0.98402 0.98413 0.0
C1093 C 0.48593 0.91503 0.98314 0.0
N1094 N 0.47045 0.92686 0.98765 0.0
C1095 C 0.47459 0.88685 0.98387 0.0
C1096 C 0.44664 0.87041 0.98811 0.0
H1097 H 0.50734 0.92733 0.97916 0.0
H1098 H 0.36217 0.86602 0.99468 0.0
H1099 H 0.56571 0.99591 0.03293 0.0
H1100 H 0.35822 0.90789 0.99154 0.0
H1101 H 0.38138 0.9574 0.98658 0.0
H1102 H 0.3912 0.84438 0.99377 0.0
H1103 H 0.49089 0.05316 0.03971 0.0
H1104 H 0.63985 0.07218 0.02716 0.0
H1105 H 0.61629 0.02238 0.03094 0.0
H1106 H 0.60758 0.13628 0.02664 0.0
H1107 H 0.48734 0.87783 0.98095 0.0
H1108 H 0.43778 0.84853 0.98849 0.0
H1109 H 0.63632 0.11439 0.02506 0.0
H1110 H 0.5113 0.10281 0.03904 0.0
N1111 N 0.55922 0.02982 0.02942 0.0
C1112 C 0.6173 0.06058 0.02794 0.0
C1113 C 0.60408 0.03249 0.03003 0.0
C1114 C 0.60134 0.07345 0.02741 0.0
C1115 C 0.57198 0.05739 0.02844 0.0
C1116 C 0.575 0.01741 0.03093 0.0
N1117 N 0.52783 0.05384 0.03116 0.0
C1118 C 0.55577 0.06971 0.02907 0.0
C1119 C 0.52398 0.09382 0.03588 0.0
C1120 C 0.55205 0.11031 0.03193 0.0
C1121 C 0.51242 0.06559 0.03599 0.0
C1122 C 0.56855 0.09839 0.02904 0.0
H1123 H 0.56108 0.13221 0.03203 0.0
O1124 O 0.48869 0.00936 0.05184 0.0
O1125 O 0.47316 0.97832 0.0135 0.0
O1126 O 0.47922 0.00876 0.989 0.0
O1127 O 0.48523 0.02373 0.01652 0.0
O1128 O 0.47642 0.96425 0.03664 0.0
O1129 O 0.52244 0.0006 0.05432 0.0
O1130 O 0.51037 0.9719 0.96662 0.0
O1131 O 0.52471 0.00277 1.0045 0.0
O1132 O 0.51784 0.97123 0.02901 0.0
O1133 O 0.51427 0.95862 1.00114 0.0
O1134 O 0.5208 0.01693 0.98147 0.0
O1135 O 0.47577 0.9792 0.96343 0.0
C1136 C 0.46128 0.95859 0.02354 0.0
C1137 C 0.59752 0.11429 0.02699 0.0
C1138 C 0.61389 0.10184 0.02617 0.0
C1139 C 0.50397 0.00433 0.06209 0.0
C1140 C 0.51315 0.01974 0.07783 0.0
C1141 C 0.52884 0.04818 0.07774 0.0
C1142 C 0.50735 0.00559 0.09315 0.0
C1143 C 0.51734 0.0198 0.10832 0.0
C1144 C 0.53833 0.06239 0.09268 0.0
C1145 C 0.53268 0.04842 0.10781 0.0
C1146 C 0.47851 0.02461 1.00072 0.0
C1147 C 0.53606 0.02267 0.99453 0.0
C1148 C 0.49507 0.97629 0.95604 0.0
C1149 C 0.48726 0.96099 0.94026 0.0
C1150 C 0.47315 0.93251 0.94025 0.0
C1151 C 0.49313 0.97519 0.92497 0.0
C1152 C 0.48461 0.96096 0.90974 0.0
C1153 C 0.4652 0.91833 0.92524 0.0
C1154 C 0.47079 0.93235 0.91012 0.0
C1155 C 0.51961 0.95641 0.01698 0.0
H1156 H 0.53402 0.05939 0.06617 0.0
H1157 H 0.49575 0.98356 0.09318 0.0
H1158 H 0.55032 0.08438 0.09252 0.0
H1159 H 0.54027 0.0601 0.11917 0.0
H1160 H 0.46804 0.92125 0.95181 0.0
H1161 H 0.50353 0.99721 0.92497 0.0
H1162 H 0.45438 0.89632 0.92531 0.0
H1163 H 0.46423 0.92075 0.89868 0.0
Gd1164 Gd 0.98091 0.49209 0.02993 0.0
Gd1165 Gd 0.02494 0.50521 0.99248 0.0
C1166 C 0.10629 0.50238 0.99382 0.0
C1167 C 0.14095 0.54964 0.98878 0.0
C1168 C 0.09162 0.53562 0.98924 0.0
C1169 C 0.08505 0.50928 0.99275 0.0
C1170 C 0.11957 0.55598 0.98671 0.0
C1171 C 0.13431 0.52285 0.99234 0.0
C1172 C 0.09865 0.47501 0.99576 0.0
C1173 C 0.07046 0.45527 0.99591 0.0
N1174 N 0.05775 0.49005 0.99392 0.0
C1175 C 0.05019 0.46315 0.99471 0.0
H1176 H 0.02853 0.44761 0.99495 0.0
C1177 C 0.07546 0.5653 0.98075 0.0
N1178 N 0.07041 0.54083 0.98703 0.0
C1179 C 0.10283 0.5863 0.97823 0.0
C1180 C 0.12504 0.58177 0.9815 0.0
H1181 H 0.05832 0.56883 0.97816 0.0
H1182 H 0.15093 0.51802 0.99338 0.0
H1183 H 0.97879 0.55035 0.02723 0.0
H1184 H 0.11431 0.46887 0.9967 0.0
H1185 H 0.06429 0.43398 0.99704 0.0
H1186 H 0.16259 0.56507 0.9871 0.0
H1187 H 0.94589 0.4264 0.04066 0.0
H1188 H 0.89343 0.53061 0.02565 0.0
H1189 H 0.94366 0.56483 0.02512 0.0
H1190 H 0.8434 0.434 0.03379 0.0
H1191 H 0.10677 0.60593 0.97374 0.0
H1192 H 0.14622 0.59799 0.97942 0.0
H1193 H 0.85613 0.48167 0.02872 0.0
H1194 H 0.89698 0.38973 0.04393 0.0
N1195 N 0.94893 0.50812 0.02861 0.0
C1196 C 0.9088 0.52409 0.02663 0.0
C1197 C 0.93712 0.54347 0.02636 0.0
C1198 C 0.90065 0.49659 0.02857 0.0
C1199 C 0.9215 0.48919 0.02968 0.0
C1200 C 0.95702 0.53512 0.02758 0.0
N1201 N 0.93506 0.45642 0.03421 0.0
C1202 C 0.91432 0.46245 0.03251 0.0
C1203 C 0.90156 0.41007 0.04066 0.0
C1204 C 0.87989 0.41569 0.03819 0.0
C1205 C 0.92921 0.43089 0.03886 0.0
C1206 C 0.88613 0.44224 0.03432 0.0
H1207 H 0.85849 0.39956 0.03965 0.0
O1208 O 0.98494 0.47948 0.05483 0.0
O1209 O 0.01959 0.49474 0.01951 0.0
O1210 O 0.99302 0.46053 0.996 0.0
O1211 O 0.95648 0.45939 0.01106 0.0
O1212 O 0.99628 0.4628 0.03559 0.0
O1213 O 0.99015 0.51959 0.0508 0.0
O1214 O 0.0184 0.51591 0.96756 0.0
O1215 O 0.98676 0.50278 1.00319 0.0
O1216 O 0.01387 0.53673 0.02752 0.0
O1217 O 0.04917 0.54019 1.00976 0.0
O1218 O 0.00804 0.53352 0.98637 0.0
O1219 O 0.01612 0.47714 0.972 0.0
C1220 C 0.01881 0.47461 0.0269 0.0
C1221 C 0.8652 0.44928 0.03259 0.0
C1222 C 0.87245 0.47642 0.02971 0.0
C1223 C 0.98919 0.50203 0.0617 0.0
C1224 C 0.97382 0.49924 0.07716 0.0
C1225 C 0.94474 0.48754 0.07709 0.0
C1226 C 0.98847 0.50772 0.09229 0.0
C1227 C 0.97414 0.50419 0.10739 0.0
C1228 C 0.9304 0.48412 0.092 0.0
C1229 C 0.94493 0.49226 0.10707 0.0
C1230 C 0.96648 0.44844 1.00052 0.0
C1231 C 0.98613 0.52201 0.99563 0.0
C1232 C 0.01579 0.49384 0.96093 0.0
C1233 C 0.03175 0.49758 0.94563 0.0
C1234 C 0.06018 0.50568 0.94618 0.0
C1235 C 0.01834 0.49354 0.93022 0.0
C1236 C 0.03316 0.49763 0.91527 0.0
C1237 C 0.07507 0.50978 0.93142 0.0
C1238 C 0.06172 0.50583 0.91605 0.0
C1239 C 0.03935 0.55002 0.02116 0.0
H1240 H 0.93314 0.48094 0.06557 0.0
H1241 H 0.01095 0.51653 0.09233 0.0
H1242 H 0.90793 0.47505 0.09188 0.0
H1243 H 0.93335 0.48948 0.11846 0.0
H1244 H 0.07084 0.50887 0.95796 0.0
H1245 H 0.99625 0.48693 0.92991 0.0
H1246 H 0.09706 0.51615 0.9319 0.0
H1247 H 0.07383 0.50949 0.90479 0.0
Gd1248 Gd 0.4891 0.50338 0.98931 0.0
Gd1249 Gd 0.51437 0.48901 0.02849 0.0
C1250 C 0.59819 0.49155 0.03121 0.0
C1251 C 0.58402 0.444 0.03582 0.0
C1252 C 0.54917 0.45813 0.03354 0.0
C1253 C 0.56992 0.48473 0.03108 0.0
C1254 C 0.55597 0.43754 0.03634 0.0
C1255 C 0.60509 0.47096 0.03325 0.0
C1256 C 0.61867 0.51891 0.0296 0.0
C1257 C 0.61075 0.53872 0.02841 0.0
N1258 N 0.5625 0.5041 0.02918 0.0
C1259 C 0.58243 0.53096 0.02844 0.0
H1260 H 0.57669 0.54651 0.02741 0.0
C1261 C 0.50145 0.42745 0.03869 0.0
N1262 N 0.52235 0.45267 0.03411 0.0
C1263 C 0.50711 0.40628 0.04143 0.0
C1264 C 0.53445 0.41125 0.04003 0.0
H1265 H 0.48027 0.42351 0.0397 0.0
H1266 H 0.62668 0.47576 0.03322 0.0
H1267 H 0.42564 0.44741 0.99119 0.0
H1268 H 0.64062 0.52498 0.02956 0.0
H1269 H 0.62643 0.55998 0.0274 0.0
H1270 H 0.58966 0.42841 0.03778 0.0
H1271 H 0.52532 0.56863 0.97765 0.0
H1272 H 0.36406 0.47201 0.98866 0.0
H1273 H 0.37641 0.43577 0.99141 0.0
H1274 H 0.41799 0.56799 0.97869 0.0
H1275 H 0.4904 0.38616 0.04461 0.0
H1276 H 0.53881 0.39484 0.04222 0.0
H1277 H 0.37979 0.52145 0.98404 0.0
H1278 H 0.51694 0.60688 0.97203 0.0
N1279 N 0.44136 0.49001 0.9888 0.0
C1280 C 0.38578 0.47727 0.98857 0.0
C1281 C 0.39267 0.45676 0.99008 0.0
C1282 C 0.40699 0.50425 0.9865 0.0
C1283 C 0.43493 0.51001 0.98657 0.0
C1284 C 0.42069 0.46348 0.98993 0.0
N1285 N 0.48281 0.54058 0.98309 0.0
C1286 C 0.45634 0.53613 0.98358 0.0
C1287 C 0.49972 0.58711 0.97532 0.0
C1288 C 0.47272 0.58314 0.97648 0.0
C1289 C 0.50438 0.5654 0.97847 0.0
C1290 C 0.45055 0.55732 0.98042 0.0
H1291 H 0.46915 0.59997 0.97399 0.0
O1292 O 0.50923 0.51442 0.96512 0.0
O1293 O 0.52296 0.49952 1.00174 0.0
O1294 O 0.52814 0.5342 0.02542 0.0
O1295 O 0.49607 0.53614 1.00732 0.0
O1296 O 0.5355 0.53137 0.98539 0.0
O1297 O 0.47049 0.47644 0.96817 0.0
O1298 O 0.49327 0.47662 0.05235 0.0
O1299 O 0.48046 0.49283 0.01612 0.0
O1300 O 0.47395 0.45834 0.9928 0.0
O1301 O 0.50607 0.4555 0.01037 0.0
O1302 O 0.46815 0.46052 0.03213 0.0
O1303 O 0.53208 0.51465 0.05032 0.0
C1304 C 0.54419 0.51892 0.99503 0.0
C1305 C 0.42285 0.55193 0.98095 0.0
C1306 C 0.40111 0.52544 0.984 0.0
C1307 C 0.48949 0.49304 0.95776 0.0
C1308 C 0.47966 0.49804 0.94182 0.0
C1309 C 0.45968 0.50642 0.94138 0.0
C1310 C 0.49085 0.49489 0.92684 0.0
C1311 C 0.48206 0.49993 0.91141 0.0
C1312 C 0.45099 0.51163 0.92617 0.0
C1313 C 0.46205 0.50843 0.91128 0.0
C1314 C 0.51544 0.54684 0.01897 0.0
C1315 C 0.45931 0.47314 0.02274 0.0
C1316 C 0.5126 0.49751 0.06028 0.0
C1317 C 0.52161 0.49138 0.07619 0.0
C1318 C 0.53916 0.48011 0.07641 0.0
C1319 C 0.51174 0.49589 0.09132 0.0
C1320 C 0.51927 0.48908 0.10666 0.0
C1321 C 0.54649 0.47306 0.09147 0.0
C1322 C 0.53658 0.47736 0.10647 0.0
C1323 C 0.48626 0.44518 0.9989 0.0
H1324 H 0.45084 0.50894 0.95276 0.0
H1325 H 0.50609 0.48815 0.92723 0.0
H1326 H 0.43565 0.5182 0.92592 0.0
H1327 H 0.45512 0.51286 0.89967 0.0
H1328 H 0.54704 0.47659 0.06496 0.0
H1329 H 0.49849 0.50497 0.0911 0.0
H1330 H 0.55983 0.46411 0.09152 0.0
H1331 H 0.54232 0.47127 0.11792 0.0
Gd1332 Gd 0.19235 0.35456 0.36605 0.0
Gd1333 Gd 0.16562 0.32142 0.32613 0.0
C1334 C 0.0949 0.23392 0.32327 0.0
C1335 C 0.11952 0.20975 0.31606 0.0
C1336 C 0.14504 0.25884 0.3194 0.0
C1337 C 0.12046 0.25859 0.32329 0.0
C1338 C 0.14477 0.23452 0.31539 0.0
C1339 C 0.09465 0.20945 0.32001 0.0
C1340 C 0.07028 0.23471 0.32599 0.0
C1341 C 0.07148 0.25976 0.32793 0.0
N1342 N 0.12132 0.28261 0.32611 0.0
C1343 C 0.09732 0.28372 0.32765 0.0
H1344 H 0.09813 0.30305 0.32904 0.0
C1345 C 0.19322 0.28487 0.31307 0.0
N1346 N 0.16915 0.28311 0.31894 0.0
C1347 C 0.19399 0.26126 0.30905 0.0
C1348 C 0.16975 0.23594 0.31043 0.0
H1349 H 0.21195 0.30451 0.31212 0.0
H1350 H 0.07524 0.19026 0.32007 0.0
H1351 H 0.26077 0.38018 0.36153 0.0
H1352 H 0.05023 0.21619 0.32613 0.0
H1353 H 0.05252 0.26064 0.32964 0.0
H1354 H 0.1189 0.19079 0.31317 0.0
H1355 H 0.1413 0.36357 0.38061 0.0
H1356 H 0.30092 0.46655 0.36809 0.0
H1357 H 0.30376 0.42523 0.36179 0.0
H1358 H 0.22557 0.48059 0.38471 0.0
H1359 H 0.21324 0.26258 0.30487 0.0
H1360 H 0.1704 0.21769 0.30726 0.0
H1361 H 0.27151 0.48706 0.37671 0.0
H1362 H 0.1345 0.40162 0.39002 0.0
N1363 N 0.23407 0.39626 0.36641 0.0
C1364 C 0.28204 0.44692 0.36775 0.0
C1365 C 0.28374 0.42365 0.36422 0.0
C1366 C 0.2561 0.44443 0.37142 0.0
C1367 C 0.2322 0.41844 0.37073 0.0
C1368 C 0.25941 0.39824 0.36394 0.0
N1369 N 0.18409 0.38931 0.37491 0.0
C1370 C 0.20646 0.41482 0.37539 0.0
C1371 C 0.15481 0.4056 0.38585 0.0
C1372 C 0.17737 0.43218 0.38575 0.0
C1373 C 0.15864 0.38418 0.38057 0.0
C1374 C 0.20369 0.43703 0.38063 0.0
H1375 H 0.17435 0.44873 0.38987 0.0
O1376 O 0.17687 0.34205 0.39124 0.0
O1377 O 0.15355 0.32661 0.35155 0.0
O1378 O 0.14476 0.3455 0.33355 0.0
O1379 O 0.17839 0.37933 0.3502 0.0
O1380 O 0.15622 0.31531 0.37526 0.0
O1381 O 0.21954 0.3532 0.38519 0.0
O1382 O 0.18429 0.33147 0.30152 0.0
O1383 O 0.20447 0.34973 0.3405 0.0
O1384 O 0.21438 0.33232 0.35738 0.0
O1385 O 0.17972 0.29705 0.34242 0.0
O1386 O 0.20036 0.36182 0.31726 0.0
O1387 O 0.14175 0.3232 0.30507 0.0
C1388 C 0.14124 0.30798 0.36214 0.0
C1389 C 0.22726 0.46318 0.3808 0.0
C1390 C 0.25342 0.46687 0.3762 0.0
C1391 C 0.20066 0.34573 0.39688 0.0
C1392 C 0.20966 0.35935 0.4132 0.0
C1393 C 0.22643 0.38768 0.41414 0.0
C1394 C 0.2013 0.34385 0.42803 0.0
C1395 C 0.21006 0.35661 0.44371 0.0
C1396 C 0.23488 0.40043 0.42956 0.0
C1397 C 0.22685 0.38511 0.44422 0.0
C1398 C 0.15776 0.37081 0.33921 0.0
C1399 C 0.21601 0.36878 0.33009 0.0
C1400 C 0.16197 0.32928 0.29444 0.0
C1401 C 0.15453 0.31584 0.27803 0.0
C1402 C 0.13856 0.28749 0.27681 0.0
C1403 C 0.16386 0.33167 0.26337 0.0
C1404 C 0.15707 0.31928 0.24751 0.0
C1405 C 0.13192 0.27505 0.26122 0.0
C1406 C 0.14103 0.29072 0.24669 0.0
C1407 C 0.20117 0.3065 0.35282 0.0
H1408 H 0.23307 0.39994 0.40296 0.0
H1409 H 0.18844 0.32193 0.42734 0.0
H1410 H 0.24775 0.42233 0.43017 0.0
H1411 H 0.23359 0.39566 0.456 0.0
H1412 H 0.13125 0.27499 0.28789 0.0
H1413 H 0.17605 0.35362 0.26434 0.0
H1414 H 0.11967 0.25312 0.26036 0.0
H1415 H 0.13578 0.2804 0.2348 0.0
Gd1416 Gd 0.65337 0.83898 0.36212 0.0
Gd1417 Gd 0.69535 0.84652 0.32459 0.0
C1418 C 0.77091 0.83395 0.32623 0.0
C1419 C 0.80919 0.87961 0.32099 0.0
C1420 C 0.7614 0.87078 0.32151 0.0
C1421 C 0.75194 0.84372 0.32499 0.0
C1422 C 0.79007 0.88893 0.31905 0.0
C1423 C 0.79963 0.85215 0.32459 0.0
C1424 C 0.76041 0.8061 0.32875 0.0
C1425 C 0.73162 0.78868 0.32945 0.0
N1426 N 0.72406 0.82672 0.32645 0.0
C1427 C 0.71365 0.79933 0.32807 0.0
H1428 H 0.6915 0.78557 0.32874 0.0
C1429 C 0.75028 0.90461 0.31388 0.0
N1430 N 0.74232 0.87897 0.31951 0.0
C1431 C 0.7785 0.92344 0.31141 0.0
C1432 C 0.79853 0.91568 0.31421 0.0
H1433 H 0.73489 0.91076 0.31177 0.0
H1434 H 0.81454 0.84509 0.32569 0.0
H1435 H 0.65617 0.89947 0.35909 0.0
H1436 H 0.77428 0.7978 0.32986 0.0
H1437 H 0.72325 0.76704 0.33114 0.0
H1438 H 0.83134 0.8933 0.31932 0.0
H1439 H 0.61467 0.77421 0.37417 0.0
H1440 H 0.57271 0.88544 0.35635 0.0
H1441 H 0.62362 0.91716 0.35635 0.0
H1442 H 0.5169 0.78933 0.36527 0.0
H1443 H 0.78477 0.94392 0.30734 0.0
H1444 H 0.82037 0.93026 0.31221 0.0
H1445 H 0.53296 0.83756 0.3594 0.0
H1446 H 0.56478 0.7401 0.37781 0.0
N1447 N 0.6241 0.85802 0.36023 0.0
C1448 C 0.58691 0.87754 0.35758 0.0
C1449 C 0.61563 0.89551 0.35762 0.0
C1450 C 0.57686 0.84966 0.35962 0.0
C1451 C 0.59624 0.84044 0.36106 0.0
C1452 C 0.63403 0.88538 0.35919 0.0
N1453 N 0.60658 0.80558 0.36649 0.0
C1454 C 0.58718 0.81333 0.36428 0.0
C1455 C 0.57079 0.76059 0.37393 0.0
C1456 C 0.55044 0.76787 0.37085 0.0
C1457 C 0.59897 0.77992 0.37191 0.0
C1458 C 0.55853 0.79464 0.36624 0.0
H1459 H 0.52863 0.75288 0.37247 0.0
O1460 O 0.65655 0.8263 0.38715 0.0
O1461 O 0.68962 0.83773 0.35153 0.0
O1462 O 0.65972 0.80308 0.32844 0.0
O1463 O 0.62606 0.80674 0.3438 0.0
O1464 O 0.66718 0.80832 0.36885 0.0
O1465 O 0.66277 0.86674 0.38289 0.0
O1466 O 0.69179 0.85829 0.29937 0.0
O1467 O 0.65929 0.84877 0.33509 0.0
O1468 O 0.68932 0.88256 0.35902 0.0
O1469 O 0.72249 0.87981 0.34238 0.0
O1470 O 0.68384 0.87859 0.31828 0.0
O1471 O 0.68327 0.81728 0.30447 0.0
C1472 C 0.689 0.81829 0.3595 0.0
C1473 C 0.53904 0.80345 0.36402 0.0
C1474 C 0.54819 0.83091 0.36069 0.0
C1475 C 0.66061 0.84884 0.39394 0.0
C1476 C 0.64363 0.84564 0.40876 0.0
C1477 C 0.61533 0.83767 0.40715 0.0
C1478 C 0.65562 0.84985 0.4247 0.0
C1479 C 0.63937 0.84614 0.43903 0.0
C1480 C 0.59904 0.83361 0.42124 0.0
C1481 C 0.61088 0.83772 0.43707 0.0
C1482 C 0.63358 0.79355 0.33338 0.0
C1483 C 0.66186 0.8694 0.32742 0.0
C1484 C 0.68605 0.83491 0.29308 0.0
C1485 C 0.70187 0.83601 0.27816 0.0
C1486 C 0.73055 0.84525 0.27904 0.0
C1487 C 0.68824 0.82847 0.26273 0.0
C1488 C 0.70326 0.83059 0.24816 0.0
C1489 C 0.74555 0.84731 0.26464 0.0
C1490 C 0.73206 0.84018 0.24924 0.0
C1491 C 0.7152 0.89252 0.35336 0.0
H1492 H 0.6058 0.83449 0.39504 0.0
H1493 H 0.6776 0.85639 0.42591 0.0
H1494 H 0.57714 0.82723 0.41989 0.0
H1495 H 0.59765 0.83418 0.44779 0.0
H1496 H 0.74136 0.85098 0.2908 0.0
H1497 H 0.66608 0.82146 0.26201 0.0
H1498 H 0.7677 0.85453 0.26541 0.0
H1499 H 0.74404 0.84183 0.23821 0.0
Gd1500 Gd 0.1551 0.83956 0.32586 0.0
Gd1501 Gd 0.17757 0.82178 0.36522 0.0
C1502 C 0.26238 0.82614 0.36805 0.0
C1503 C 0.24912 0.77878 0.37251 0.0
C1504 C 0.2136 0.79204 0.37016 0.0
C1505 C 0.23395 0.81878 0.36782 0.0
C1506 C 0.22093 0.77182 0.37303 0.0
C1507 C 0.26982 0.80591 0.36999 0.0
C1508 C 0.28247 0.85367 0.36674 0.0
C1509 C 0.274 0.8731 0.36586 0.0
N1510 N 0.22598 0.83778 0.36611 0.0
C1511 C 0.24555 0.8648 0.36582 0.0
H1512 H 0.23948 0.88013 0.36503 0.0
C1513 C 0.1662 0.76094 0.37572 0.0
N1514 N 0.18667 0.78615 0.37082 0.0
C1515 C 0.17234 0.7401 0.37854 0.0
C1516 C 0.19979 0.74546 0.37693 0.0
H1517 H 0.14493 0.75674 0.37691 0.0
H1518 H 0.29153 0.81113 0.37001 0.0
H1519 H 0.09376 0.78057 0.3256 0.0
H1520 H 0.30452 0.86016 0.36678 0.0
H1521 H 0.28938 0.8945 0.36516 0.0
H1522 H 0.25516 0.76349 0.37449 0.0
H1523 H 0.18606 0.90398 0.3131 0.0
H1524 H 0.02773 0.79923 0.32568 0.0
H1525 H 0.04366 0.76543 0.32608 0.0
H1526 H 0.07551 0.89597 0.31853 0.0
H1527 H 0.15593 0.71995 0.38194 0.0
H1528 H 0.20454 0.72934 0.37922 0.0
H1529 H 0.03986 0.84813 0.3232 0.0
H1530 H 0.17419 0.94033 0.3086 0.0
N1531 N 0.10653 0.82279 0.32541 0.0
C1532 C 0.04985 0.80606 0.32547 0.0
C1533 C 0.05876 0.78692 0.32564 0.0
C1534 C 0.06958 0.83373 0.32441 0.0
C1535 C 0.09812 0.84153 0.32427 0.0
C1536 C 0.08731 0.79566 0.32534 0.0
N1537 N 0.14508 0.87465 0.32058 0.0
C1538 C 0.11809 0.86839 0.32183 0.0
C1539 C 0.15824 0.92025 0.31247 0.0
C1540 C 0.13085 0.91465 0.31487 0.0
C1541 C 0.1649 0.89971 0.31503 0.0
C1542 C 0.11022 0.88828 0.31921 0.0
H1543 H 0.12567 0.93052 0.31275 0.0
O1544 O 0.17736 0.85447 0.30249 0.0
O1545 O 0.18762 0.83397 0.33869 0.0
O1546 O 0.19109 0.86687 0.36407 0.0
O1547 O 0.16533 0.87393 0.34335 0.0
O1548 O 0.20163 0.86743 0.32335 0.0
O1549 O 0.13874 0.81603 0.3032 0.0
O1550 O 0.15691 0.80728 0.38913 0.0
O1551 O 0.14488 0.82709 0.35238 0.0
O1552 O 0.14259 0.7949 0.32645 0.0
O1553 O 0.16819 0.78773 0.34721 0.0
O1554 O 0.13121 0.79344 0.36754 0.0
O1555 O 0.19274 0.84756 0.38713 0.0
C1556 C 0.20936 0.85374 0.33263 0.0
C1557 C 0.08196 0.88093 0.32028 0.0
C1558 C 0.06166 0.85368 0.32291 0.0
C1559 C 0.15844 0.83434 0.29386 0.0
C1560 C 0.14975 0.84177 0.27832 0.0
C1561 C 0.12937 0.84964 0.27837 0.0
C1562 C 0.16241 0.84142 0.26326 0.0
C1563 C 0.15473 0.84875 0.2482 0.0
C1564 C 0.12185 0.85723 0.26355 0.0
C1565 C 0.13437 0.85679 0.24855 0.0
C1566 C 0.18211 0.88186 0.3564 0.0
C1567 C 0.12327 0.80697 0.35828 0.0
C1568 C 0.17451 0.82916 0.39711 0.0
C1569 C 0.18539 0.82509 0.41299 0.0
C1570 C 0.20159 0.81234 0.41321 0.0
C1571 C 0.18 0.83439 0.42803 0.0
C1572 C 0.19105 0.8312 0.4432 0.0
C1573 C 0.21222 0.80878 0.42816 0.0
C1574 C 0.20707 0.81814 0.44304 0.0
C1575 C 0.15209 0.78011 0.33379 0.0
H1576 H 0.11922 0.84983 0.2898 0.0
H1577 H 0.17834 0.83555 0.26332 0.0
H1578 H 0.10606 0.86323 0.26366 0.0
H1579 H 0.12762 0.86213 0.23719 0.0
H1580 H 0.20609 0.8052 0.40185 0.0
H1581 H 0.16777 0.84456 0.42788 0.0
H1582 H 0.22462 0.79882 0.42822 0.0
H1583 H 0.21553 0.81502 0.45448 0.0
Gd1584 Gd 0.85291 0.68628 0.69472 0.0
Gd1585 Gd 0.82574 0.64317 0.65693 0.0
C1586 C 0.73841 0.56881 0.65505 0.0
C1587 C 0.74852 0.53185 0.65238 0.0
C1588 C 0.78631 0.57869 0.65367 0.0
C1589 C 0.76726 0.5876 0.65514 0.0
C1590 C 0.77719 0.55076 0.65193 0.0
C1591 C 0.72916 0.54086 0.65396 0.0
C1592 C 0.71973 0.5787 0.65574 0.0
C1593 C 0.73 0.60672 0.65598 0.0
N1594 N 0.77695 0.61474 0.65613 0.0
C1595 C 0.75881 0.62455 0.65593 0.0
H1596 H 0.76634 0.64611 0.65621 0.0
C1597 C 0.83328 0.58997 0.64998 0.0
N1598 N 0.81379 0.59751 0.65322 0.0
C1599 C 0.82531 0.5625 0.64826 0.0
C1600 C 0.79715 0.54276 0.64943 0.0
H1601 H 0.85509 0.60514 0.64915 0.0
H1602 H 0.70708 0.52609 0.654 0.0
H1603 H 0.91278 0.68431 0.69602 0.0
H1604 H 0.69741 0.56494 0.65576 0.0
H1605 H 0.71574 0.61461 0.65625 0.0
H1606 H 0.7411 0.51027 0.6512 0.0
H1607 H 0.82335 0.72364 0.70389 0.0
H1608 H 0.98103 0.76584 0.69451 0.0
H1609 H 0.9633 0.71626 0.69528 0.0
H1610 H 0.9363 0.81963 0.6988 0.0
H1611 H 0.84087 0.55657 0.64606 0.0
H1612 H 0.79101 0.52149 0.64805 0.0
H1613 H 0.97072 0.80437 0.6956 0.0
H1614 H 0.83694 0.77214 0.7066 0.0
N1615 N 0.90166 0.7153 0.69522 0.0
C1616 C 0.95875 0.75188 0.69485 0.0
C1617 C 0.94883 0.72392 0.69533 0.0
C1618 C 0.93982 0.76147 0.69538 0.0
C1619 C 0.91105 0.7424 0.69572 0.0
C1620 C 0.92008 0.70583 0.69578 0.0
N1621 N 0.86452 0.73185 0.69862 0.0
C1622 C 0.89182 0.75097 0.69748 0.0
C1623 C 0.85259 0.76648 0.70397 0.0
C1624 C 0.8805 0.78651 0.702 0.0
C1625 C 0.84497 0.73906 0.70247 0.0
C1626 C 0.9006 0.77886 0.69898 0.0
H1627 H 0.88637 0.80774 0.70322 0.0
O1628 O 0.83319 0.68283 0.71872 0.0
O1629 O 0.81761 0.65046 0.68287 0.0
O1630 O 0.81581 0.67746 0.65695 0.0
O1631 O 0.84691 0.71153 0.67501 0.0
O1632 O 0.80739 0.6738 0.69756 0.0
O1633 O 0.86715 0.67441 0.71682 0.0
O1634 O 0.84695 0.64726 0.63345 0.0
O1635 O 0.86122 0.67935 0.66863 0.0
O1636 O 0.86336 0.65208 0.69396 0.0
O1637 O 0.83009 0.61785 0.67702 0.0
O1638 O 0.87094 0.65471 0.65467 0.0
O1639 O 0.81123 0.65327 0.63425 0.0
C1640 C 0.79729 0.65199 0.68873 0.0
C1641 C 0.92913 0.79807 0.69786 0.0
C1642 C 0.94872 0.78939 0.69604 0.0
C1643 C 0.8496 0.67638 0.72674 0.0
C1644 C 0.86084 0.69025 0.74275 0.0
C1645 C 0.87912 0.71837 0.74313 0.0
C1646 C 0.85337 0.6753 0.7578 0.0
C1647 C 0.86432 0.68843 0.77317 0.0
C1648 C 0.8898 0.73152 0.75824 0.0
C1649 C 0.88251 0.71677 0.77312 0.0
C1650 C 0.82911 0.70286 0.66238 0.0
C1651 C 0.88126 0.67694 0.66311 0.0
C1652 C 0.82996 0.65228 0.62488 0.0
C1653 C 0.82033 0.63796 0.6089 0.0
C1654 C 0.80213 0.60981 0.60849 0.0
C1655 C 0.8301 0.65251 0.59387 0.0
C1656 C 0.82205 0.63892 0.57844 0.0
C1657 C 0.79393 0.59626 0.59328 0.0
C1658 C 0.80384 0.61062 0.57836 0.0
C1659 C 0.849 0.62636 0.68902 0.0
H1660 H 0.88511 0.73015 0.73173 0.0
H1661 H 0.83945 0.6535 0.75748 0.0
H1662 H 0.9038 0.75328 0.75844 0.0
H1663 H 0.89093 0.72769 0.78465 0.0
H1664 H 0.79439 0.59833 0.61991 0.0
H1665 H 0.84435 0.67425 0.5942 0.0
H1666 H 0.77986 0.57451 0.59304 0.0
H1667 H 0.79697 0.59961 0.56673 0.0
Gd1668 Gd 0.32211 0.1613 0.69443 0.0
Gd1669 Gd 0.36729 0.178 0.65727 0.0
C1670 C 0.44386 0.16717 0.65827 0.0
C1671 C 0.48179 0.21384 0.65612 0.0
C1672 C 0.43363 0.20393 0.65593 0.0
C1673 C 0.42449 0.1765 0.65755 0.0
C1674 C 0.46235 0.22288 0.65477 0.0
C1675 C 0.47256 0.18603 0.65789 0.0
C1676 C 0.4338 0.13914 0.6591 0.0
C1677 C 0.40509 0.12121 0.65871 0.0
N1678 N 0.39662 0.15886 0.65791 0.0
C1679 C 0.38671 0.13145 0.65791 0.0
H1680 H 0.36461 0.1173 0.65776 0.0
C1681 C 0.42214 0.23826 0.6506 0.0
N1682 N 0.41431 0.21192 0.65453 0.0
C1683 C 0.45039 0.25787 0.64946 0.0
C1684 C 0.47061 0.25022 0.65179 0.0
H1685 H 0.40652 0.24425 0.64889 0.0
H1686 H 0.48775 0.17926 0.6586 0.0
H1687 H 0.3201 0.21979 0.69437 0.0
H1688 H 0.44798 0.13115 0.65976 0.0
H1689 H 0.39709 0.09948 0.65912 0.0
H1690 H 0.50397 0.22811 0.65544 0.0
H1691 H 0.2869 0.09633 0.70627 0.0
H1692 H 0.23497 0.20047 0.69118 0.0
H1693 H 0.2852 0.23459 0.69247 0.0
H1694 H 0.18448 0.10352 0.69732 0.0
H1695 H 0.45653 0.27885 0.64682 0.0
H1696 H 0.49248 0.26542 0.65085 0.0
H1697 H 0.19745 0.15135 0.69263 0.0
H1698 H 0.2379 0.05968 0.70947 0.0
N1699 N 0.2902 0.17755 0.69363 0.0
C1700 C 0.25024 0.19382 0.69201 0.0
C1701 C 0.27856 0.21313 0.6928 0.0
C1702 C 0.24195 0.16617 0.69297 0.0
C1703 C 0.26271 0.15863 0.69395 0.0
C1704 C 0.29833 0.2046 0.69389 0.0
N1705 N 0.27611 0.12585 0.6986 0.0
C1706 C 0.25541 0.13184 0.69652 0.0
C1707 C 0.24252 0.07985 0.70572 0.0
C1708 C 0.22087 0.08527 0.70256 0.0
C1709 C 0.27021 0.10064 0.70395 0.0
C1710 C 0.22718 0.11168 0.69825 0.0
H1711 H 0.19944 0.06918 0.70401 0.0
O1712 O 0.32667 0.14726 0.71882 0.0
O1713 O 0.36039 0.16448 0.68351 0.0
O1714 O 0.33209 0.13398 0.65666 0.0
O1715 O 0.2975 0.12838 0.67572 0.0
O1716 O 0.33816 0.13183 0.69889 0.0
O1717 O 0.33049 0.18697 0.71617 0.0
O1718 O 0.36628 0.19544 0.63336 0.0
O1719 O 0.32861 0.17506 0.66791 0.0
O1720 O 0.35524 0.20618 0.69324 0.0
O1721 O 0.39152 0.209 0.67699 0.0
O1722 O 0.35368 0.20907 0.65367 0.0
O1723 O 0.35904 0.15421 0.63469 0.0
C1724 C 0.36058 0.14438 0.69014 0.0
C1725 C 0.20631 0.11877 0.69627 0.0
C1726 C 0.2137 0.14599 0.69361 0.0
C1727 C 0.32986 0.16884 0.72647 0.0
C1728 C 0.31358 0.16407 0.74181 0.0
C1729 C 0.28498 0.15522 0.74111 0.0
C1730 C 0.32681 0.16821 0.75735 0.0
C1731 C 0.31161 0.1636 0.77224 0.0
C1732 C 0.26973 0.15045 0.75578 0.0
C1733 C 0.28287 0.15458 0.77123 0.0
C1734 C 0.30653 0.12022 0.66292 0.0
C1735 C 0.33054 0.19655 0.66177 0.0
C1736 C 0.36207 0.17404 0.62502 0.0
C1737 C 0.37923 0.17908 0.61007 0.0
C1738 C 0.40818 0.19019 0.61127 0.0
C1739 C 0.3664 0.1727 0.59436 0.0
C1740 C 0.38237 0.17729 0.57983 0.0
C1741 C 0.42419 0.195 0.59693 0.0
C1742 C 0.41143 0.1886 0.5813 0.0
C1743 C 0.38168 0.21888 0.68836 0.0
H1744 H 0.27447 0.15198 0.72928 0.0
H1745 H 0.34901 0.17538 0.75782 0.0
H1746 H 0.24762 0.14349 0.75516 0.0
H1747 H 0.27043 0.15041 0.7824 0.0
H1748 H 0.41842 0.19515 0.62322 0.0
H1749 H 0.34394 0.16372 0.5935 0.0
H1750 H 0.44656 0.20369 0.59794 0.0
H1751 H 0.42433 0.19266 0.57036 0.0
Gd1752 Gd 0.82854 0.17214 0.6616 0.0
Gd1753 Gd 0.85785 0.1603 0.70017 0.0
C1754 C 0.94316 0.16558 0.70204 0.0
C1755 C 0.9307 0.11889 0.70825 0.0
C1756 C 0.89471 0.13152 0.70586 0.0
C1757 C 0.91468 0.158 0.70241 0.0
C1758 C 0.90248 0.11172 0.70915 0.0
C1759 C 0.95102 0.14578 0.70468 0.0
C1760 C 0.96291 0.1929 0.69932 0.0
C1761 C 0.95411 0.21197 0.69754 0.0
N1762 N 0.90632 0.17657 0.69995 0.0
C1763 C 0.92563 0.20348 0.69811 0.0
H1764 H 0.91928 0.21852 0.69661 0.0
C1765 C 0.84753 0.10015 0.71182 0.0
N1766 N 0.8677 0.12537 0.7067 0.0
C1767 C 0.85417 0.07977 0.71514 0.0
C1768 C 0.88173 0.08549 0.71362 0.0
H1769 H 0.82614 0.09546 0.71298 0.0
H1770 H 0.97277 0.15116 0.7043 0.0
H1771 H 0.76753 0.11348 0.66141 0.0
H1772 H 0.98498 0.19953 0.69887 0.0
H1773 H 0.96923 0.23323 0.69566 0.0
H1774 H 0.93708 0.10393 0.7106 0.0
H1775 H 0.86012 0.23792 0.65096 0.0
H1776 H 0.70149 0.13221 0.66316 0.0
H1777 H 0.71731 0.09831 0.66256 0.0
H1778 H 0.74937 0.22928 0.65757 0.0
H1779 H 0.83802 0.05968 0.71885 0.0
H1780 H 0.88684 0.0697 0.71623 0.0
H1781 H 0.71371 0.18126 0.66162 0.0
H1782 H 0.84816 0.27442 0.64778 0.0
N1783 N 0.78017 0.15559 0.66177 0.0
C1784 C 0.72359 0.139 0.66263 0.0
C1785 C 0.73243 0.1198 0.66224 0.0
C1786 C 0.74334 0.16671 0.66177 0.0
C1787 C 0.77184 0.17444 0.66119 0.0
C1788 C 0.76095 0.1285 0.66157 0.0
N1789 N 0.81883 0.20772 0.65738 0.0
C1790 C 0.79182 0.2014 0.65893 0.0
C1791 C 0.83214 0.25399 0.65099 0.0
C1792 C 0.80468 0.24814 0.65348 0.0
C1793 C 0.83882 0.23332 0.65273 0.0
C1794 C 0.784 0.22147 0.65719 0.0
H1795 H 0.79953 0.26417 0.65208 0.0
O1796 O 0.84709 0.18586 0.63717 0.0
O1797 O 0.86392 0.1702 0.67324 0.0
O1798 O 0.87065 0.20462 0.69593 0.0
O1799 O 0.83499 0.20422 0.68034 0.0
O1800 O 0.87449 0.2011 0.65644 0.0
O1801 O 0.81065 0.14603 0.63998 0.0
O1802 O 0.83824 0.14998 0.72452 0.0
O1803 O 0.82137 0.16065 0.68838 0.0
O1804 O 0.81739 0.12766 0.66433 0.0
O1805 O 0.85031 0.12688 0.68243 0.0
O1806 O 0.81282 0.12928 0.70471 0.0
O1807 O 0.87588 0.18856 0.72081 0.0
C1808 C 0.88435 0.18939 0.66584 0.0
C1809 C 0.75578 0.21411 0.65867 0.0
C1810 C 0.73548 0.18677 0.66097 0.0
C1811 C 0.82824 0.16417 0.62958 0.0
C1812 C 0.81644 0.16904 0.61434 0.0
C1813 C 0.79804 0.17927 0.61545 0.0
C1814 C 0.82399 0.16399 0.59855 0.0
C1815 C 0.81291 0.16891 0.58395 0.0
C1816 C 0.78738 0.18459 0.60109 0.0
C1817 C 0.79472 0.17949 0.58546 0.0
C1818 C 0.85597 0.21601 0.69094 0.0
C1819 C 0.80179 0.13972 0.69522 0.0
C1820 C 0.85733 0.17219 0.73148 0.0
C1821 C 0.86767 0.16883 0.74768 0.0
C1822 C 0.88558 0.158 0.74875 0.0
C1823 C 0.8587 0.17568 0.76232 0.0
C1824 C 0.86733 0.17152 0.77805 0.0
C1825 C 0.89426 0.15386 0.76429 0.0
C1826 C 0.88517 0.16047 0.77885 0.0
C1827 C 0.83091 0.11578 0.67075 0.0
H1828 H 0.79195 0.18321 0.6274 0.0
H1829 H 0.83799 0.1558 0.59767 0.0
H1830 H 0.77331 0.19265 0.60207 0.0
H1831 H 0.78617 0.1839 0.57451 0.0
H1832 H 0.89271 0.15264 0.73763 0.0
H1833 H 0.84462 0.18379 0.76145 0.0
H1834 H 0.90808 0.14549 0.76504 0.0
H1835 H 0.89243 0.15731 0.79073 0.0
H1836 H 0.34033 0.91122 0.05133 0.0
H1837 H 0.34986 0.84056 0.05687 0.0
H1838 H 0.39439 0.86363 0.04215 0.0
H1839 H 0.43276 0.90548 0.03035 0.0
H1840 H 0.42356 0.97611 0.02422 0.0
H1841 H 0.37658 0.9515 0.03621 0.0
C1842 C 0.35218 0.90095 0.04919 0.0
C1843 C 0.34217 0.87445 0.05533 0.0
C1844 C 0.37765 0.91425 0.04053 0.0
C1845 C 0.35733 0.86104 0.05229 0.0
C1846 C 0.38274 0.87419 0.0439 0.0
C1847 C 0.42001 0.91508 0.03119 0.0
C1848 C 0.43109 0.94219 0.02612 0.0
C1849 C 0.39335 0.90095 0.03827 0.0
C1850 C 0.41494 0.95491 0.02762 0.0
C1851 C 0.38831 0.94098 0.03468 0.0
H1852 H 0.10055 0.4349 0.05251 0.0
H1853 H 0.16161 0.51921 0.04502 0.0
H1854 H 0.12522 0.52814 0.03435 0.0
H1855 H 0.07502 0.51212 0.02869 0.0
H1856 H 0.01516 0.42704 0.03495 0.0
H1857 H 0.05184 0.41833 0.04471 0.0
C1858 C 0.10588 0.45523 0.04852 0.0
C1859 C 0.13365 0.47642 0.04975 0.0
C1860 C 0.08496 0.46009 0.04224 0.0
C1861 C 0.14035 0.50256 0.04423 0.0
C1862 C 0.11952 0.50769 0.03821 0.0
C1863 C 0.07021 0.49164 0.03187 0.0
C1864 C 0.04246 0.47014 0.03083 0.0
C1865 C 0.09162 0.48666 0.03734 0.0
C1866 C 0.03639 0.44383 0.03547 0.0
C1867 C 0.05734 0.43883 0.04108 0.0
H1868 H 0.52896 0.66025 0.03879 0.0
H1869 H 0.60602 0.67114 0.05943 0.0
H1870 H 0.59425 0.6256 0.05022 0.0
H1871 H 0.56195 0.58259 0.03624 0.0
H1872 H 0.48549 0.57274 0.01514 0.0
H1873 H 0.49744 0.61808 0.02433 0.0
C1874 C 0.5434 0.65286 0.04107 0.0
C1875 C 0.56832 0.66912 0.04979 0.0
C1876 C 0.53663 0.6268 0.03564 0.0
C1877 C 0.58652 0.65893 0.05292 0.0
C1878 C 0.57987 0.63293 0.0476 0.0
C1879 C 0.5479 0.59035 0.0337 0.0
C1880 C 0.52295 0.57429 0.02495 0.0
C1881 C 0.55491 0.61662 0.039 0.0
C1882 C 0.505 0.58472 0.0217 0.0
C1883 C 0.51174 0.61066 0.027 0.0
H1884 H 0.90116 0.33504 0.96441 0.0
H1885 H 0.83093 0.34312 0.98003 0.0
H1886 H 0.86239 0.38647 0.99331 0.0
H1887 H 0.9098 0.42218 1.00034 0.0
H1888 H 0.98006 0.41462 0.98401 0.0
H1889 H 0.9486 0.37114 0.97102 0.0
C1890 C 0.89275 0.34646 0.97051 0.0
C1891 C 0.86375 0.33581 0.97125 0.0
C1892 C 0.91094 0.37144 0.97805 0.0
C1893 C 0.85318 0.35069 0.97946 0.0
C1894 C 0.87113 0.37553 0.98701 0.0
C1895 C 0.91824 0.41094 0.99406 0.0
C1896 C 0.94724 0.42161 0.99324 0.0
C1897 C 0.90004 0.38603 0.98644 0.0
C1898 C 0.95782 0.40691 0.98484 0.0
C1899 C 0.93985 0.38202 0.97738 0.0
H1900 H 0.64654 0.50288 0.97548 0.0
H1901 H 0.68145 0.58764 0.96291 0.0
H1902 H 0.63979 0.58715 0.97349 0.0
H1903 H 0.59241 0.56227 0.98506 0.0
H1904 H 0.55544 0.4767 0.99558 0.0
H1905 H 0.59866 0.47782 0.98737 0.0
C1906 C 0.64507 0.52126 0.97523 0.0
C1907 C 0.66711 0.54527 0.96836 0.0
C1908 C 0.6206 0.52067 0.98102 0.0
C1909 C 0.66475 0.56886 0.96798 0.0
C1910 C 0.64092 0.56861 0.97406 0.0
C1911 C 0.59396 0.54394 0.98572 0.0
C1912 C 0.57098 0.51963 0.99142 0.0
C1913 C 0.61857 0.54458 0.98041 0.0
C1914 C 0.57305 0.49588 0.99178 0.0
C1915 C 0.59774 0.49647 0.98691 0.0
H1916 H 0.43316 0.10562 0.98464 0.0
H1917 H 0.45473 0.09298 0.93509 0.0
H1918 H 0.47084 0.06323 0.94612 0.0
H1919 H 0.47901 0.04108 0.96933 0.0
H1920 H 0.45763 0.05187 0.01927 0.0
H1921 H 0.44196 0.08278 1.00862 0.0
C1922 C 0.44147 0.0964 0.9763 0.0
C1923 C 0.44234 0.10127 0.95899 0.0
C1924 C 0.45095 0.07924 0.98278 0.0
C1925 C 0.45315 0.08912 0.94836 0.0
C1926 C 0.46262 0.07227 0.95468 0.0
C1927 C 0.47078 0.04996 0.97801 0.0
C1928 C 0.46947 0.04403 0.99512 0.0
C1929 C 0.46152 0.06716 0.9718 0.0
C1930 C 0.45916 0.05623 1.00608 0.0
C1931 C 0.45001 0.07375 0.99995 0.0
H1932 H 0.65987 0.07678 0.97018 0.0
H1933 H 0.64719 0.14577 0.966 0.0
H1934 H 0.60118 0.11971 0.97873 0.0
H1935 H 0.56296 0.07614 0.98874 0.0
H1936 H 0.57522 0.00709 0.99338 0.0
H1937 H 0.62306 0.03423 0.98297 0.0
C1938 C 0.64698 0.08601 0.97213 0.0
C1939 C 0.65665 0.11297 0.96702 0.0
C1940 C 0.62061 0.07096 0.9796 0.0
C1941 C 0.64007 0.12499 0.96983 0.0
C1942 C 0.61379 0.11012 0.97707 0.0
C1943 C 0.57648 0.06738 0.98786 0.0
C1944 C 0.56614 0.04007 0.99217 0.0
C1945 C 0.60368 0.08299 0.98174 0.0
C1946 C 0.58328 0.02843 0.99059 0.0
C1947 C 0.61043 0.04382 0.98446 0.0
H1948 H 0.87134 0.50874 0.9697 0.0
H1949 H 0.92496 0.59436 0.96049 0.0
H1950 H 0.96386 0.59277 0.97387 0.0
H1951 H 0.98392 0.56648 0.98605 0.0
H1952 H 0.93165 0.48038 0.99396 0.0
H1953 H 0.89118 0.48262 0.98351 0.0
C1954 C 0.89143 0.52707 0.97093 0.0
C1955 C 0.89528 0.55165 0.96408 0.0
C1956 C 0.91407 0.52587 0.97834 0.0
C1957 C 0.92152 0.57521 0.96559 0.0
C1958 C 0.9438 0.5743 0.97321 0.0
C1959 C 0.96355 0.54829 0.9857 0.0
C1960 C 0.96074 0.52344 0.99115 0.0
C1961 C 0.94053 0.54966 0.97928 0.0
C1962 C 0.93434 0.49992 0.99029 0.0
C1963 C 0.91118 0.50116 0.98415 0.0
H1964 H 0.43302 0.32998 0.96497 0.0
H1965 H 0.50724 0.3332 0.98486 0.0
H1966 H 0.52098 0.37723 0.99757 0.0
H1967 H 0.51281 0.41567 1.00206 0.0
H1968 H 0.43927 0.41271 0.98111 0.0
H1969 H 0.42475 0.36799 0.96953 0.0
C1970 C 0.45238 0.34041 0.97192 0.0
C1971 C 0.46911 0.3283 0.97386 0.0
C1972 C 0.46037 0.36586 0.97896 0.0
C1973 C 0.49379 0.34188 0.98328 0.0
C1974 C 0.50177 0.36716 0.99047 0.0
C1975 C 0.49348 0.40514 0.9951 0.0
C1976 C 0.47716 0.41757 0.9925 0.0
C1977 C 0.4853 0.37942 0.9883 0.0
C1978 C 0.45232 0.40373 0.98327 0.0
C1979 C 0.44395 0.3781 0.97664 0.0
H1980 H 0.12564 0.67225 0.03603 0.0
H1981 H 0.11649 0.64005 0.08584 0.0
H1982 H 0.08116 0.59525 0.07604 0.0
H1983 H 0.05438 0.56462 0.05299 0.0
H1984 H 0.06559 0.59655 1.00316 0.0
H1985 H 0.09913 0.64197 0.01317 0.0
C1986 C 0.11619 0.65541 0.04474 0.0
C1987 C 0.12385 0.65956 0.06164 0.0
C1988 C 0.09644 0.62959 0.03897 0.0
C1989 C 0.11079 0.63757 0.0728 0.0
C1990 C 0.09072 0.61187 0.06719 0.0
C1991 C 0.06414 0.58167 0.04442 0.0
C1992 C 0.05811 0.57745 0.02737 0.0
C1993 C 0.08355 0.6076 0.05029 0.0
C1994 C 0.07068 0.59938 0.01626 0.0
C1995 C 0.08961 0.62533 0.02201 0.0
H1996 H 0.36051 0.48946 0.04912 0.0
H1997 H 0.32703 0.40442 0.0605 0.0
H1998 H 0.36621 0.40466 0.04642 0.0
H1999 H 0.4119 0.42963 0.03298 0.0
H2000 H 0.44763 0.51523 0.02296 0.0
H2001 H 0.40575 0.51415 0.03392 0.0
C2002 C 0.36167 0.47095 0.04829 0.0
C2003 C 0.34097 0.447 0.05603 0.0
C2004 C 0.38474 0.47134 0.04037 0.0
C2005 C 0.34284 0.42319 0.05488 0.0
C2006 C 0.36523 0.42329 0.04679 0.0
C2007 C 0.41031 0.44796 0.03297 0.0
C2008 C 0.4327 0.47234 0.02691 0.0
C2009 C 0.38659 0.44734 0.03982 0.0
C2010 C 0.43052 0.49604 0.02719 0.0
C2011 C 0.40662 0.49547 0.03364 0.0
H2012 H 0.57402 0.88289 0.03178 0.0
H2013 H 0.54142 0.88353 0.08045 0.0
H2014 H 0.52085 0.90978 0.0697 0.0
H2015 H 0.51387 0.93415 0.04716 0.0
H2016 H 0.54665 0.93557 0.99828 0.0
H2017 H 0.56491 0.90639 1.00829 0.0
C2018 C 0.5622 0.88863 0.03993 0.0
C2019 C 0.55961 0.88167 0.05695 0.0
C2020 C 0.55048 0.90401 0.03365 0.0
C2021 C 0.5442 0.88914 0.0674 0.0
C2022 C 0.53232 0.90404 0.06125 0.0
C2023 C 0.52505 0.92816 0.03863 0.0
C2024 C 0.52913 0.93722 0.02204 0.0
C2025 C 0.53571 0.91192 0.04451 0.0
C2026 C 0.54314 0.92877 0.0111 0.0
C2027 C 0.55372 0.91224 0.01687 0.0
H2028 H 0.01871 0.25617 0.38816 0.0
H2029 H 0.02952 0.18609 0.39198 0.0
H2030 H 0.07478 0.21092 0.37807 0.0
H2031 H 0.11334 0.25411 0.36745 0.0
H2032 H 0.10235 0.32391 0.36277 0.0
H2033 H 0.05496 0.2977 0.37401 0.0
C2034 C 0.03097 0.24639 0.3858 0.0
C2035 C 0.0211 0.21954 0.39127 0.0
C2036 C 0.05681 0.26069 0.37755 0.0
C2037 C 0.03685 0.20681 0.38794 0.0
C2038 C 0.06269 0.22099 0.38 0.0
C2039 C 0.10014 0.26321 0.36843 0.0
C2040 C 0.11095 0.29064 0.3641 0.0
C2041 C 0.07313 0.24809 0.37505 0.0
C2042 C 0.09409 0.3026 0.36572 0.0
C2043 C 0.06717 0.28771 0.37233 0.0
H2044 H 0.80503 0.82827 0.37899 0.0
H2045 H 0.75109 0.74377 0.39113 0.0
H2046 H 0.71053 0.74652 0.38146 0.0
H2047 H 0.69001 0.77341 0.37036 0.0
H2048 H 0.74372 0.85865 0.36018 0.0
H2049 H 0.78442 0.85527 0.36819 0.0
C2050 C 0.78441 0.81043 0.37934 0.0
C2051 C 0.78107 0.78583 0.38572 0.0
C2052 C 0.76104 0.81234 0.37414 0.0
C2053 C 0.75417 0.76295 0.38632 0.0
C2054 C 0.73097 0.76452 0.38081 0.0
C2055 C 0.71068 0.79116 0.36981 0.0
C2056 C 0.71385 0.81601 0.36407 0.0
C2057 C 0.73408 0.78917 0.37484 0.0
C2058 C 0.74067 0.83904 0.36391 0.0
C2059 C 0.76403 0.83717 0.36866 0.0
H2060 H 0.21685 0.00319 0.37191 0.0
H2061 H 0.19159 0.96983 0.4213 0.0
H2062 H 0.18287 0.92552 0.41144 0.0
H2063 H 0.18035 0.89563 0.38838 0.0
H2064 H 0.20419 0.92904 0.33901 0.0
H2065 H 0.21511 0.97383 0.34915 0.0
C2066 C 0.20917 0.98618 0.3805 0.0
C2067 C 0.20473 0.98983 0.39729 0.0
C2068 C 0.2038 0.96072 0.37471 0.0
C2069 C 0.19542 0.96768 0.40833 0.0
C2070 C 0.19029 0.94228 0.40269 0.0
C2071 C 0.1882 0.91286 0.37994 0.0
C2072 C 0.19104 0.90914 0.36295 0.0
C2073 C 0.19422 0.93852 0.38588 0.0
C2074 C 0.2011 0.9314 0.35205 0.0
C2075 C 0.20755 0.95702 0.35787 0.0
H2076 H 0.52676 0.68557 0.31023 0.0
H2077 H 0.58982 0.66881 0.29149 0.0
H2078 H 0.62636 0.71255 0.30195 0.0
H2079 H 0.64046 0.75546 0.31662 0.0
H2080 H 0.57717 0.77191 0.33545 0.0
H2081 H 0.54081 0.72821 0.32509 0.0
C2082 C 0.54849 0.69133 0.30858 0.0
C2083 C 0.55547 0.67388 0.30005 0.0
C2084 C 0.56942 0.71644 0.31474 0.0
C2085 C 0.58379 0.68196 0.29779 0.0
C2086 C 0.60473 0.70692 0.30387 0.0
C2087 C 0.61873 0.74952 0.31846 0.0
C2088 C 0.61166 0.76691 0.32699 0.0
C2089 C 0.5978 0.72434 0.31235 0.0
C2090 C 0.58332 0.75881 0.3292 0.0
C2091 C 0.56244 0.73384 0.32318 0.0
H2092 H 0.30939 0.83514 0.31154 0.0
H2093 H 0.34631 0.92056 0.30022 0.0
H2094 H 0.3054 0.92091 0.31138 0.0
H2095 H 0.25813 0.89666 0.32306 0.0
H2096 H 0.21906 0.81053 0.3323 0.0
H2097 H 0.2616 0.8107 0.32358 0.0
C2098 C 0.3085 0.85383 0.31169 0.0
C2099 C 0.33086 0.8778 0.30501 0.0
C2100 C 0.28448 0.85375 0.31781 0.0
C2101 C 0.32931 0.90182 0.30514 0.0
C2102 C 0.30594 0.90205 0.31155 0.0
C2103 C 0.25907 0.87798 0.32332 0.0
C2104 C 0.23572 0.85378 0.32879 0.0
C2105 C 0.28326 0.8781 0.31772 0.0
C2106 C 0.23699 0.82961 0.32866 0.0
C2107 C 0.26127 0.82966 0.3235 0.0
H2108 H 0.14406 0.46721 0.31066 0.0
H2109 H 0.07086 0.39995 0.2888 0.0
H2110 H 0.08126 0.36793 0.30296 0.0
H2111 H 0.11191 0.35893 0.32068 0.0
H2112 H 0.18429 0.42599 0.34327 0.0
H2113 H 0.17275 0.45808 0.33016 0.0
C2114 C 0.13005 0.44557 0.30918 0.0
C2115 C 0.10684 0.43614 0.29846 0.0
C2116 C 0.13588 0.42716 0.31759 0.0
C2117 C 0.08924 0.40792 0.29661 0.0
C2118 C 0.09502 0.38953 0.30483 0.0
C2119 C 0.12506 0.38055 0.32287 0.0
C2120 C 0.14901 0.39 0.3329 0.0
C2121 C 0.11844 0.39892 0.31519 0.0
C2122 C 0.16567 0.4181 0.33568 0.0
C2123 C 0.15919 0.4365 0.32809 0.0
H2124 H 0.33859 0.42233 0.3036 0.0
H2125 H 0.32538 0.49087 0.29866 0.0
H2126 H 0.28024 0.46548 0.3126 0.0
H2127 H 0.24262 0.42228 0.32379 0.0
H2128 H 0.25579 0.35391 0.32943 0.0
H2129 H 0.303 0.38071 0.31799 0.0
C2130 C 0.32582 0.43165 0.30571 0.0
C2131 C 0.33503 0.45825 0.29995 0.0
C2132 C 0.30002 0.41703 0.31396 0.0
C2133 C 0.3186 0.47037 0.30295 0.0
C2134 C 0.29282 0.45587 0.3109 0.0
C2135 C 0.25624 0.41362 0.32294 0.0
C2136 C 0.24615 0.38646 0.32766 0.0
C2137 C 0.28311 0.42904 0.31619 0.0
C2138 C 0.26353 0.37505 0.32623 0.0
C2139 C 0.29033 0.39026 0.31949 0.0
H2140 H 0.58741 0.914 0.29663 0.0
H2141 H 0.52238 0.83124 0.3044 0.0
H2142 H 0.55584 0.82077 0.318 0.0
H2143 H 0.60496 0.83447 0.32535 0.0
H2144 H 0.66895 0.918 0.31838 0.0
H2145 H 0.63476 0.92878 0.30671 0.0
C2146 C 0.58054 0.8937 0.30139 0.0
C2147 C 0.55254 0.87334 0.29929 0.0
C2148 C 0.59982 0.88793 0.30925 0.0
C2149 C 0.54383 0.84726 0.30581 0.0
C2150 C 0.56301 0.84124 0.3135 0.0
C2151 C 0.6112 0.85514 0.32168 0.0
C2152 C 0.63945 0.87553 0.32296 0.0
C2153 C 0.59124 0.86129 0.315 0.0
C2154 C 0.64733 0.90204 0.31768 0.0
C2155 C 0.62779 0.90821 0.31096 0.0
H2156 H 0.13042 0.68167 0.2878 0.0
H2157 H 0.11103 0.64027 0.33528 0.0
H2158 H 0.12205 0.68243 0.34936 0.0
H2159 H 0.13657 0.73111 0.34826 0.0
H2160 H 0.15265 0.77158 0.30074 0.0
H2161 H 0.14269 0.72957 0.2866 0.0
C2162 C 0.12814 0.68164 0.30119 0.0
C2163 C 0.12013 0.65768 0.31038 0.0
C2164 C 0.13381 0.70585 0.30925 0.0
C2165 C 0.11778 0.65842 0.32782 0.0
C2166 C 0.12385 0.68252 0.33593 0.0
C2167 C 0.1382 0.73075 0.33486 0.0
C2168 C 0.14564 0.7544 0.32558 0.0
C2169 C 0.132 0.70639 0.32679 0.0
C2170 C 0.14687 0.75353 0.30814 0.0
C2171 C 0.14127 0.72956 0.30005 0.0
H2172 H 0.82349 0.9985 0.37707 0.0
H2173 H 0.76203 0.01395 0.3998 0.0
H2174 H 0.72464 0.97118 0.38868 0.0
H2175 H 0.70938 0.92942 0.37231 0.0
H2176 H 0.77138 0.91458 0.34961 0.0
H2177 H 0.80838 0.95731 0.36056 0.0
C2178 C 0.80192 0.99271 0.37944 0.0
C2179 C 0.79564 0.00949 0.38925 0.0
C2180 C 0.78053 0.96822 0.37291 0.0
C2181 C 0.76752 0.00131 0.39246 0.0
C2182 C 0.7461 0.97691 0.38601 0.0
C2183 C 0.73098 0.93554 0.36973 0.0
C2184 C 0.73745 0.91885 0.35996 0.0
C2185 C 0.75235 0.96018 0.37622 0.0
C2186 C 0.76562 0.92714 0.35682 0.0
C2187 C 0.78691 0.95156 0.36319 0.0
H2188 H 0.02371 0.82247 0.38411 0.0
H2189 H 0.98679 0.73579 0.39036 0.0
H2190 H 0.02691 0.73691 0.37685 0.0
H2191 H 0.07432 0.76286 0.36573 0.0
H2192 H 0.11324 0.84984 0.36072 0.0
H2193 H 0.07073 0.84842 0.37098 0.0
C2194 C 0.02433 0.80385 0.38218 0.0
C2195 C 1.00235 0.77905 0.38822 0.0
C2196 C 0.04795 0.80475 0.37472 0.0
C2197 C 1.00349 0.75507 0.38584 0.0
C2198 C 0.02646 0.75572 0.37817 0.0
C2199 C 0.0733 0.78145 0.36667 0.0
C2200 C 0.0967 0.80634 0.36223 0.0
C2201 C 0.04909 0.78049 0.37294 0.0
C2202 C 0.09531 0.83035 0.36373 0.0
C2203 C 0.07105 0.82954 0.36973 0.0
H2204 H 0.25279 0.24731 0.39362 0.0
H2205 H 0.17352 0.17735 0.38146 0.0
H2206 H 0.16165 0.20571 0.36414 0.0
H2207 H 0.17239 0.25111 0.35414 0.0
H2208 H 0.25096 0.3211 0.36756 0.0
H2209 H 0.26443 0.29204 0.38264 0.0
C2210 C 0.23285 0.23827 0.38725 0.0
C2211 C 0.214 0.21029 0.38898 0.0
C2212 C 0.226 0.25473 0.37751 0.0
C2213 C 0.18852 0.19881 0.3803 0.0
C2214 C 0.18164 0.21504 0.37044 0.0
C2215 C 0.19263 0.25991 0.36014 0.0
C2216 C 0.21057 0.28824 0.35979 0.0
C2217 C 0.20006 0.24311 0.36915 0.0
C2218 C 0.23667 0.29937 0.36772 0.0
C2219 C 0.24439 0.28278 0.37639 0.0
H2220 H 0.69472 0.5446 0.71628 0.0
H2221 H 0.66546 0.601 0.72613 0.0
H2222 H 0.70609 0.63712 0.71188 0.0
H2223 H 0.75152 0.6535 0.69835 0.0
H2224 H 0.78251 0.59803 0.69051 0.0
H2225 H 0.73945 0.56065 0.70168 0.0
C2226 C 0.69708 0.56471 0.7151 0.0
C2227 C 0.67721 0.57017 0.72236 0.0
C2228 C 0.72076 0.58552 0.70712 0.0
C2229 C 0.68068 0.5964 0.72087 0.0
C2230 C 0.70383 0.61702 0.71266 0.0
C2231 C 0.7486 0.6331 0.69886 0.0
C2232 C 0.76993 0.62846 0.69322 0.0
C2233 C 0.72424 0.61194 0.70599 0.0
C2234 C 0.76617 0.60208 0.69428 0.0
C2235 C 0.74162 0.58071 0.70088 0.0
H2236 H 0.47743 0.15951 0.71316 0.0
H2237 H 0.42607 0.07366 0.72274 0.0
H2238 H 0.38531 0.07469 0.71169 0.0
H2239 H 0.36378 0.10025 0.69999 0.0
H2240 H 0.4144 0.18668 0.69257 0.0
H2241 H 0.45568 0.1852 0.7018 0.0
C2242 C 0.45734 0.14101 0.7127 0.0
C2243 C 0.45482 0.11654 0.71879 0.0
C2244 C 0.43379 0.14186 0.70662 0.0
C2245 C 0.42855 0.0928 0.71828 0.0
C2246 C 0.40524 0.09336 0.71191 0.0
C2247 C 0.38393 0.11869 0.70027 0.0
C2248 C 0.38609 0.14337 0.69497 0.0
C2249 C 0.40753 0.1178 0.70616 0.0
C2250 C 0.41219 0.16724 0.69592 0.0
C2251 C 0.43585 0.16645 0.7014 0.0
H2252 H 0.90576 0.33182 0.7236 0.0
H2253 H 0.82785 0.3232 0.70616 0.0
H2254 H 0.81564 0.27934 0.69367 0.0
H2255 H 0.82611 0.24243 0.68906 0.0
H2256 H 0.90372 0.25106 0.7073 0.0
H2257 H 0.91663 0.29564 0.71852 0.0
C2258 C 0.88598 0.32026 0.71719 0.0
C2259 C 0.86766 0.33068 0.71595 0.0
C2260 C 0.87892 0.29496 0.71031 0.0
C2261 C 0.84243 0.31574 0.70721 0.0
C2262 C 0.83535 0.29058 0.70017 0.0
C2263 C 0.846 0.25418 0.6953 0.0
C2264 C 0.86394 0.2434 0.69725 0.0
C2265 C 0.85332 0.27986 0.7018 0.0
C2266 C 0.88944 0.25877 0.70563 0.0
C2267 C 0.8969 0.28432 0.71204 0.0
H2268 H 0.22325 0.02484 0.6162 0.0
H2269 H 0.19606 0.98415 0.66373 0.0
H2270 H 0.23108 0.02474 0.67786 0.0
H2271 H 0.26962 0.07186 0.67688 0.0
H2272 H 0.2989 0.11193 0.6296 0.0
H2273 H 0.26371 0.07118 0.61518 0.0
C2274 C 0.22516 0.0246 0.62962 0.0
C2275 C 0.2065 0.00136 0.63881 0.0
C2276 C 0.24594 0.0479 0.63775 0.0
C2277 C 0.2094 0.00182 0.65626 0.0
C2278 C 0.22968 0.02501 0.6644 0.0
C2279 C 0.26803 0.07175 0.66347 0.0
C2280 C 0.28642 0.09495 0.65435 0.0
C2281 C 0.24792 0.04821 0.6553 0.0
C2282 C 0.28492 0.09423 0.63689 0.0
C2283 C 0.26473 0.07099 0.62865 0.0
H2284 H 0.98511 0.17209 0.64486 0.0
H2285 H 0.0185 0.25534 0.62905 0.0
H2286 H 0.97751 0.25568 0.64009 0.0
H2287 H 0.93121 0.23188 0.65335 0.0
H2288 H 0.89634 0.14775 0.66734 0.0
H2289 H 0.93871 0.1483 0.6583 0.0
C2290 C 0.9835 0.19037 0.64398 0.0
C2291 C 1.00487 0.21363 0.63606 0.0
C2292 C 0.95956 0.19031 0.65015 0.0
C2293 C 1.00227 0.23706 0.63488 0.0
C2294 C 0.97885 0.23731 0.64126 0.0
C2295 C 0.93305 0.21376 0.65456 0.0
C2296 C 0.91087 0.19006 0.66152 0.0
C2297 C 0.95723 0.21399 0.64877 0.0
C2298 C 0.9133 0.16654 0.66259 0.0
C2299 C 0.93752 0.16677 0.65723 0.0
H2300 H 0.80629 0.77277 0.61054 0.0
H2301 H 0.77518 0.79234 0.65458 0.0
H2302 H 0.78966 0.76583 0.67161 0.0
H2303 H 0.8095 0.73528 0.67393 0.0
H2304 H 0.83699 0.713 0.62958 0.0
H2305 H 0.82538 0.74205 0.61275 0.0
C2306 C 0.80233 0.77101 0.62382 0.0
C2307 C 0.78969 0.78468 0.63119 0.0
C2308 C 0.81016 0.75523 0.63354 0.0
C2309 C 0.78526 0.78246 0.64853 0.0
C2310 C 0.7934 0.76715 0.65831 0.0
C2311 C 0.81333 0.73725 0.66063 0.0
C2312 C 0.82432 0.72242 0.65296 0.0
C2313 C 0.80581 0.75338 0.65096 0.0
C2314 C 0.8286 0.72443 0.63568 0.0
C2315 C 0.82191 0.74094 0.62607 0.0
H2316 H 0.99932 0.75202 0.63207 0.0
H2317 H 0.97265 0.81151 0.63535 0.0
H2318 H 0.9301 0.77858 0.64999 0.0
H2319 H 0.89839 0.73116 0.65921 0.0
H2320 H 0.9265 0.6726 0.65657 0.0
H2321 H 0.97058 0.70679 0.64437 0.0
C2322 C 0.98423 0.75776 0.63609 0.0
C2323 C 0.98876 0.78389 0.63242 0.0
C2324 C 0.96006 0.73886 0.64456 0.0
C2325 C 0.96942 0.79138 0.63797 0.0
C2326 C 0.9451 0.77256 0.64628 0.0
C2327 C 0.9145 0.72617 0.65638 0.0
C2328 C 0.90933 0.69945 0.65887 0.0
C2329 C 0.93989 0.74601 0.64931 0.0
C2330 C 0.93013 0.69308 0.65482 0.0
C2331 C 0.95527 0.71257 0.64779 0.0
H2332 H 0.25461 0.2405 0.63279 0.0
H2333 H 0.19192 0.1559 0.63537 0.0
H2334 H 0.22537 0.1453 0.64893 0.0
H2335 H 0.27433 0.15994 0.65752 0.0
H2336 H 0.33565 0.24525 0.65571 0.0
H2337 H 0.30108 0.25571 0.64438 0.0
C2338 C 0.24823 0.21979 0.6365 0.0
C2339 C 0.22101 0.19897 0.63293 0.0
C2340 C 0.26747 0.21395 0.64431 0.0
C2341 C 0.21282 0.17226 0.63797 0.0
C2342 C 0.23199 0.16619 0.64563 0.0
C2343 C 0.27983 0.18083 0.65502 0.0
C2344 C 0.30751 0.20186 0.65757 0.0
C2345 C 0.25964 0.18681 0.64852 0.0
C2346 C 0.31449 0.22877 0.65392 0.0
C2347 C 0.29475 0.23478 0.64741 0.0
H2348 H 0.82248 0.00563 0.64812 0.0
H2349 H 0.74844 0.99629 0.62388 0.0
H2350 H 0.7577 0.04019 0.63486 0.0
H2351 H 0.78702 0.08129 0.65127 0.0
H2352 H 0.8606 0.08974 0.6758 0.0
H2353 H 0.85087 0.0458 0.66509 0.0
C2354 C 0.80811 0.01296 0.64543 0.0
C2355 C 0.7848 0.99766 0.6352 0.0
C2356 C 0.81341 0.03803 0.65188 0.0
C2357 C 0.76674 0.00781 0.63156 0.0
C2358 C 0.77193 0.03283 0.6379 0.0
C2359 C 0.80091 0.07352 0.65429 0.0
C2360 C 0.82442 0.08881 0.6644 0.0
C2361 C 0.79528 0.04817 0.64803 0.0
C2362 C 0.84217 0.07836 0.6682 0.0
C2363 C 0.83672 0.05324 0.66201 0.0
H2364 H 0.44741 0.33301 0.72369 0.0
H2365 H 0.51761 0.32876 0.70373 0.0
H2366 H 0.48594 0.28469 0.6912 0.0
H2367 H 0.43843 0.24688 0.6866 0.0
H2368 H 0.3684 0.25112 0.70696 0.0
H2369 H 0.40005 0.29535 0.71908 0.0
C2370 C 0.45585 0.32234 0.71677 0.0
C2371 C 0.48489 0.33418 0.71473 0.0
C2372 C 0.43758 0.29692 0.70976 0.0
C2373 C 0.49536 0.32028 0.70538 0.0
C2374 C 0.47728 0.29499 0.6983 0.0
C2375 C 0.43003 0.25758 0.69352 0.0
C2376 C 0.40101 0.24573 0.69571 0.0
C2377 C 0.44835 0.28309 0.70045 0.0
C2378 C 0.3906 0.25969 0.70504 0.0
C2379 C 0.40869 0.28505 0.71197 0.0
H2380 H 0.67919 0.09032 0.72146 0.0
H2381 H 0.69914 0.17401 0.71959 0.0
H2382 H 0.74419 0.18675 0.70646 0.0
H2383 H 0.78015 0.17435 0.69834 0.0
H2384 H 0.75833 0.08998 0.69983 0.0
H2385 H 0.71199 0.07727 0.71019 0.0
C2386 C 0.6933 0.11131 0.71801 0.0
C2387 C 0.68604 0.13123 0.7217 0.0
C2388 C 0.71899 0.11839 0.71047 0.0
C2389 C 0.70432 0.1583 0.71693 0.0
C2390 C 0.73013 0.1656 0.7095 0.0
C2391 C 0.76492 0.15315 0.70049 0.0
C2392 C 0.77257 0.13305 0.69815 0.0
C2393 C 0.73805 0.14589 0.70658 0.0
C2394 C 0.75285 0.10575 0.70141 0.0
C2395 C 0.72637 0.09846 0.70741 0.0
H2396 H 0.85414 0.52715 0.72099 0.0
H2397 H 0.93036 0.59249 0.74145 0.0
H2398 H 0.92159 0.62575 0.72745 0.0
H2399 H 0.89269 0.63633 0.70917 0.0
H2400 H 0.81764 0.57096 0.68764 0.0
H2401 H 0.82609 0.53768 0.70193 0.0
C2402 C 0.86909 0.54863 0.72223 0.0
C2403 C 0.89287 0.55719 0.73234 0.0
C2404 C 0.86426 0.56768 0.71385 0.0
C2405 C 0.91163 0.58522 0.73402 0.0
C2406 C 0.90677 0.6043 0.72589 0.0
C2407 C 0.87816 0.61482 0.70757 0.0
C2408 C 0.85459 0.60621 0.69731 0.0
C2409 C 0.88317 0.59576 0.71578 0.0
C2410 C 0.83608 0.5782 0.69535 0.0
C2411 C 0.84082 0.55913 0.70358 0.0
H2412 H 0.51367 0.97795 0.18225 0.0
H2413 H 0.42867 0.92212 0.16808 0.0
H2414 H 0.43783 0.94122 0.14001 0.0
H2415 H 0.46928 0.97557 0.11973 0.0
H2416 H 0.55432 0.03134 0.1339 0.0
H2417 H 0.54588 0.01052 0.16145 0.0
C2418 C 0.49726 0.9697 0.17297 0.0
C2419 C 0.47042 0.94875 0.17743 0.0
C2420 C 0.50261 0.98095 0.15676 0.0
C2421 C 0.4494 0.93853 0.16516 0.0
C2422 C 0.45464 0.94939 0.14904 0.0
C2423 C 0.48608 0.98294 0.12875 0.0
C2424 C 0.51233 0.00527 0.12468 0.0
C2425 C 0.48105 0.9709 0.14473 0.0
C2426 C 0.53374 0.01457 0.13669 0.0
C2427 C 0.52897 0.00257 0.15249 0.0
H2428 H 0.05071 0.5573 0.1707 0.0
H2429 H 0.99133 0.47999 0.19206 0.0
H2430 H 0.96656 0.46581 0.16553 0.0
H2431 H 0.96157 0.47536 0.13626 0.0
H2432 H 0.02137 0.55213 0.11453 0.0
H2433 H 0.04622 0.5665 0.1411 0.0
C2434 C 0.03227 0.53741 0.16953 0.0
C2435 C 0.02285 0.51974 0.18334 0.0
C2436 C 0.01824 0.52927 0.15416 0.0
C2437 C 0.99914 0.49388 0.18159 0.0
C2438 C 0.9849 0.4858 0.16644 0.0
C2439 C 0.97995 0.49529 0.13738 0.0
C2440 C 0.98952 0.5127 0.12347 0.0
C2441 C 0.99422 0.50332 0.15265 0.0
C2442 C 0.01367 0.53829 0.12503 0.0
C2443 C 0.02781 0.54656 0.14024 0.0
H2444 H 0.46269 0.5079 0.17037 0.0
H2445 H 0.54364 0.53101 0.19091 0.0
H2446 H 0.55806 0.52055 0.16459 0.0
H2447 H 0.54879 0.50714 0.13547 0.0
H2448 H 0.46793 0.48313 0.11439 0.0
H2449 H 0.45261 0.49217 0.141 0.0
C2450 C 0.48331 0.51024 0.16909 0.0
C2451 C 0.50212 0.52035 0.18254 0.0
C2452 C 0.49166 0.50446 0.15376 0.0
C2453 C 0.52888 0.52352 0.18069 0.0
C2454 C 0.53716 0.51756 0.16564 0.0
C2455 C 0.52764 0.50344 0.13669 0.0
C2456 C 0.5096 0.4944 0.12286 0.0
C2457 C 0.51889 0.50839 0.15204 0.0
C2458 C 0.48247 0.49041 0.12471 0.0
C2459 C 0.47359 0.49537 0.13999 0.0
H2460 H 0.9598 0.48352 0.85151 0.0
H2461 H 0.00611 0.44622 0.833 0.0
H2462 H 0.03123 0.45543 0.85932 0.0
H2463 H 0.03942 0.47317 0.88779 0.0
H2464 H 0.99438 0.51191 0.90608 0.0
H2465 H 0.96946 0.50305 0.87966 0.0
C2466 C 0.97562 0.4777 0.85316 0.0
C2467 C 0.9809 0.46403 0.84031 0.0
C2468 C 0.99016 0.4832 0.86832 0.0
C2469 C 1.00125 0.45633 0.84276 0.0
C2470 C 0.01577 0.46173 0.85779 0.0
C2471 C 0.02443 0.48001 0.88594 0.0
C2472 C 0.01874 0.4931 0.89895 0.0
C2473 C 0.01029 0.47502 0.87068 0.0
C2474 C 0.99888 0.50142 0.89638 0.0
C2475 C 0.98472 0.4965 0.88124 0.0
H2476 H 0.54663 0.49045 0.84881 0.0
H2477 H 0.46341 0.45217 0.82843 0.0
H2478 H 0.44565 0.45992 0.85439 0.0
H2479 H 0.4533 0.47631 0.88309 0.0
H2480 H 0.53621 0.51463 0.90391 0.0
H2481 H 0.55446 0.50788 0.87771 0.0
C2482 C 0.52468 0.48407 0.85005 0.0
C2483 C 0.50635 0.47063 0.83674 0.0
C2484 C 0.51449 0.48837 0.86513 0.0
C2485 C 0.47789 0.46225 0.83855 0.0
C2486 C 0.46772 0.46673 0.85338 0.0
C2487 C 0.47543 0.48348 0.88186 0.0
C2488 C 0.49333 0.496 0.89546 0.0
C2489 C 0.48576 0.47957 0.86679 0.0
C2490 C 0.52188 0.50467 0.89371 0.0
C2491 C 0.53237 0.50096 0.87869 0.0
H2492 H 0.48217 0.00409 0.83725 0.0
H2493 H 0.56786 0.06124 0.84928 0.0
H2494 H 0.56183 0.04036 0.87679 0.0
H2495 H 0.53196 0.00549 0.89764 0.0
H2496 H 0.44637 0.94875 0.88511 0.0
H2497 H 0.45252 0.97007 0.85787 0.0
C2498 C 0.49951 0.01222 0.84591 0.0
C2499 C 0.52543 0.03435 0.84109 0.0
C2500 C 0.49588 0.00017 0.86175 0.0
C2501 C 0.54774 0.04409 0.85248 0.0
C2502 C 0.54425 0.03225 0.86831 0.0
C2503 C 0.51463 0.99797 0.88898 0.0
C2504 C 0.48875 0.97539 0.89345 0.0
C2505 C 0.51838 0.01026 0.87312 0.0
C2506 C 0.4666 0.96581 0.88198 0.0
C2507 C 0.47007 0.97806 0.86637 0.0
H2508 H 0.19488 0.30881 0.51681 0.0
H2509 H 0.10994 0.26041 0.49985 0.0
H2510 H 0.12332 0.28108 0.47226 0.0
H2511 H 0.15882 0.31471 0.45314 0.0
H2512 H 0.24366 0.36295 0.47026 0.0
H2513 H 0.23072 0.34043 0.49733 0.0
C2514 C 0.17934 0.30247 0.50703 0.0
C2515 C 0.15136 0.28317 0.51056 0.0
C2516 C 0.18715 0.31455 0.49113 0.0
C2517 C 0.13154 0.27553 0.49767 0.0
C2518 C 0.1392 0.28727 0.48181 0.0
C2519 C 0.17454 0.32001 0.46272 0.0
C2520 C 0.20215 0.34072 0.45964 0.0
C2521 C 0.16689 0.30708 0.47842 0.0
C2522 C 0.22217 0.34742 0.47231 0.0
C2523 C 0.21481 0.33448 0.48782 0.0
H2524 H 0.67922 0.87707 0.51341 0.0
H2525 H 0.72925 0.84066 0.50076 0.0
H2526 H 0.70884 0.83047 0.47279 0.0
H2527 H 0.67743 0.83303 0.45168 0.0
H2528 H 0.62971 0.87187 0.46456 0.0
H2529 H 0.64891 0.88029 0.49258 0.0
C2530 C 0.68597 0.86718 0.50451 0.0
C2531 C 0.70599 0.85992 0.50918 0.0
C2532 C 0.6746 0.86188 0.48843 0.0
C2533 C 0.71377 0.84636 0.49757 0.0
C2534 C 0.70226 0.84071 0.48153 0.0
C2535 C 0.67143 0.84354 0.46058 0.0
C2536 C 0.65196 0.85162 0.45598 0.0
C2537 C 0.68281 0.8486 0.47676 0.0
C2538 C 0.64422 0.86496 0.46778 0.0
C2539 C 0.65531 0.86994 0.48382 0.0
H2540 H 0.19217 0.87659 0.51511 0.0
H2541 H 0.10456 0.84274 0.50439 0.0
H2542 H 0.11144 0.82898 0.47679 0.0
H2543 H 0.14239 0.82577 0.45573 0.0
H2544 H 0.22996 0.86027 0.46675 0.0
H2545 H 0.2231 0.87494 0.49397 0.0
C2546 C 0.17459 0.86653 0.50669 0.0
C2547 C 0.14787 0.86076 0.51193 0.0
C2548 C 0.1787 0.85879 0.4908 0.0
C2549 C 0.12531 0.84717 0.50086 0.0
C2550 C 0.12925 0.83944 0.48499 0.0
C2551 C 0.15999 0.83678 0.46403 0.0
C2552 C 0.18663 0.84174 0.45922 0.0
C2553 C 0.15586 0.84504 0.47982 0.0
C2554 C 0.20918 0.85584 0.4702 0.0
C2555 C 0.20529 0.86431 0.48578 0.0
H2556 H 0.63147 0.77999 0.18325 0.0
H2557 H 0.69373 0.85693 0.16292 0.0
H2558 H 0.71618 0.87062 0.1902 0.0
H2559 H 0.7187 0.8602 0.21968 0.0
H2560 H 0.65576 0.78378 0.24021 0.0
H2561 H 0.63288 0.77033 0.21302 0.0
C2562 C 0.64999 0.79972 0.18483 0.0
C2563 C 0.66108 0.81738 0.17113 0.0
C2564 C 0.66262 0.80749 0.20055 0.0
C2565 C 0.68479 0.84307 0.17334 0.0
C2566 C 0.69768 0.85084 0.18889 0.0
C2567 C 0.70001 0.84059 0.21814 0.0
C2568 C 0.68899 0.8229 0.23183 0.0
C2569 C 0.68689 0.83314 0.20255 0.0
C2570 C 0.66452 0.79773 0.22982 0.0
C2571 C 0.65152 0.79002 0.21429 0.0
H2572 H 0.19525 0.85046 0.17432 0.0
H2573 H 0.18914 0.77535 0.19111 0.0
H2574 H 0.1781 0.78329 0.21923 0.0
H2575 H 0.16562 0.80911 0.23826 0.0
H2576 H 0.17099 0.8841 0.22173 0.0
H2577 H 0.18664 0.8786 0.19431 0.0
C2578 C 0.19206 0.83619 0.18425 0.0
C2579 C 0.19283 0.8123 0.18068 0.0
C2580 C 0.18513 0.84062 0.20036 0.0
C2581 C 0.18842 0.79378 0.19358 0.0
C2582 C 0.18205 0.79827 0.20964 0.0
C2583 C 0.17076 0.82458 0.2288 0.0
C2584 C 0.16689 0.84687 0.23206 0.0
C2585 C 0.17964 0.82125 0.21306 0.0
C2586 C 0.17329 0.86647 0.21949 0.0
C2587 C 0.18239 0.86343 0.20383 0.0
H2588 H 0.21434 0.39749 0.18525 0.0
H2589 H 0.13303 0.34495 0.16425 0.0
H2590 H 0.11793 0.31923 0.19019 0.0
H2591 H 0.12725 0.31179 0.21897 0.0
H2592 H 0.20812 0.36399 0.24057 0.0
H2593 H 0.22371 0.38982 0.21452 0.0
C2594 C 0.19341 0.38029 0.18635 0.0
C2595 C 0.17483 0.37326 0.17278 0.0
C2596 C 0.18465 0.36563 0.2015 0.0
C2597 C 0.14767 0.35103 0.1745 0.0
C2598 C 0.13901 0.33624 0.18934 0.0
C2599 C 0.14838 0.32868 0.21798 0.0
C2600 C 0.16646 0.33576 0.23179 0.0
C2601 C 0.15723 0.3434 0.20295 0.0
C2602 C 0.1936 0.35814 0.23027 0.0
C2603 C 0.20262 0.37284 0.2153 0.0
H2604 H 0.85305 0.64282 0.84664 0.0
H2605 H 0.76711 0.59426 0.83144 0.0
H2606 H 0.77892 0.6144 0.80368 0.0
H2607 H 0.81335 0.64741 0.78386 0.0
H2608 H 0.89941 0.69498 0.79901 0.0
H2609 H 0.88786 0.67345 0.82636 0.0
C2610 C 0.83692 0.63628 0.83721 0.0
C2611 C 0.80913 0.61715 0.84134 0.0
C2612 C 0.84386 0.64791 0.82115 0.0
C2613 C 0.78858 0.60931 0.82886 0.0
C2614 C 0.79534 0.62072 0.81288 0.0
C2615 C 0.82965 0.65279 0.79305 0.0
C2616 C 0.85719 0.67311 0.78933 0.0
C2617 C 0.82286 0.64029 0.80891 0.0
C2618 C 0.87794 0.67986 0.80154 0.0
C2619 C 0.87138 0.66745 0.81722 0.0
H2620 H 0.38044 0.17563 0.83812 0.0
H2621 H 0.33217 0.21163 0.85532 0.0
H2622 H 0.30939 0.20366 0.82824 0.0
H2623 H 0.30361 0.18722 0.79956 0.0
H2624 H 0.35115 0.1506 0.78215 0.0
H2625 H 0.3739 0.15825 0.80931 0.0
C2626 C 0.36475 0.18148 0.83597 0.0
C2627 C 0.35815 0.19434 0.84873 0.0
C2628 C 0.35172 0.17691 0.82028 0.0
C2629 C 0.33796 0.20206 0.84567 0.0
C2630 C 0.32482 0.19741 0.8302 0.0
C2631 C 0.31872 0.18063 0.80173 0.0
C2632 C 0.32558 0.16831 0.78879 0.0
C2633 C 0.33162 0.18498 0.81739 0.0
C2634 C 0.34567 0.16041 0.79179 0.0
C2635 C 0.35857 0.16463 0.80737 0.0
H2636 H 0.83632 0.2213 0.83935 0.0
H2637 H 0.81949 0.14526 0.86161 0.0
H2638 H 0.83166 0.1316 0.83553 0.0
H2639 H 0.84843 0.14181 0.80661 0.0
H2640 H 0.86532 0.21788 0.78436 0.0
H2641 H 0.85175 0.23094 0.81017 0.0
C2642 C 0.83541 0.20178 0.8385 0.0
C2643 C 0.82714 0.18439 0.85245 0.0
C2644 C 0.84247 0.19406 0.82346 0.0
C2645 C 0.82558 0.15895 0.85105 0.0
C2646 C 0.83269 0.15118 0.83616 0.0
C2647 C 0.84924 0.16129 0.80744 0.0
C2648 C 0.85802 0.1789 0.79359 0.0
C2649 C 0.84139 0.16866 0.82233 0.0
C2650 C 0.85846 0.20386 0.79478 0.0
C2651 C 0.85084 0.2114 0.80957 0.0
H2652 H 0.33581 0.13543 0.50764 0.0
H2653 H 0.28309 0.16886 0.52029 0.0
H2654 H 0.30658 0.18373 0.54724 0.0
H2655 H 0.34126 0.18595 0.56756 0.0
H2656 H 0.39295 0.15136 0.5548 0.0
H2657 H 0.37059 0.13812 0.52758 0.0
C2658 C 0.32932 0.14583 0.51633 0.0
C2659 C 0.30757 0.15082 0.51201 0.0
C2660 C 0.3427 0.15407 0.53181 0.0
C2661 C 0.29988 0.1649 0.52326 0.0
C2662 C 0.31318 0.17325 0.53872 0.0
C2663 C 0.3475 0.17538 0.55884 0.0
C2664 C 0.36876 0.16965 0.56322 0.0
C2665 C 0.33445 0.16771 0.54319 0.0
C2666 C 0.37689 0.15631 0.55169 0.0
C2667 C 0.36402 0.1486 0.53615 0.0
H2668 H 0.81794 0.1359 0.50962 0.0
H2669 H 0.90541 0.17138 0.52122 0.0
H2670 H 0.89667 0.18183 0.54942 0.0
H2671 H 0.86361 0.17998 0.57106 0.0
H2672 H 0.77611 0.14285 0.55893 0.0
H2673 H 0.7854 0.13348 0.53084 0.0
C2674 C 0.83514 0.14567 0.51833 0.0
C2675 C 0.86227 0.15257 0.51328 0.0
C2676 C 0.8299 0.15119 0.53453 0.0
C2677 C 0.88433 0.16596 0.52468 0.0
C2678 C 0.8793 0.17174 0.54087 0.0
C2679 C 0.84659 0.16964 0.56229 0.0
C2680 C 0.81919 0.1623 0.56711 0.0
C2681 C 0.85209 0.16426 0.54599 0.0
C2682 C 0.79742 0.14911 0.55553 0.0
C2683 C 0.80269 0.14365 0.53944 0.0
H2684 H 0.86034 0.68289 0.50509 0.0
H2685 H 0.84153 0.74397 0.52235 0.0
H2686 H 0.83126 0.72355 0.55011 0.0
H2687 H 0.8248 0.68661 0.56911 0.0
H2688 H 0.84231 0.62476 0.55161 0.0
H2689 H 0.85596 0.64715 0.52447 0.0
C2690 C 0.85439 0.69194 0.515 0.0
C2691 C 0.8516 0.71486 0.51161 0.0
C2692 C 0.84805 0.67979 0.53091 0.0
C2693 C 0.84355 0.72616 0.52457 0.0
C2694 C 0.83771 0.71451 0.54047 0.0
C2695 C 0.83197 0.67825 0.55943 0.0
C2696 C 0.83236 0.65394 0.56239 0.0
C2697 C 0.83945 0.69106 0.54373 0.0
C2698 C 0.84144 0.64324 0.54961 0.0
C2699 C 0.84934 0.65609 0.53409 0.0
loop_
_geom_bond_atom_site_label_1
_geom_bond_atom_site_label_2
_geom_bond_distance
_geom_bond_site_symmetry_2
_ccdc_geom_bond_type
C0 C1 1.391 . S
C0 C4 1.391 . S
C0 H42 0.948 . S
C1 C0 1.391 . S
C1 C2 1.391 . S
C2 C1 1.391 . S
C2 H58 0.947 . S
C2 C59 1.392 . S
C3 C4 1.391 . S
C3 C7 1.397 . S
C3 C59 1.419 . S
C4 C0 1.391 . S
C4 C3 1.391 . S
C4 C5 1.399 . S
C5 C4 1.399 . S
C5 C8 1.396 . S
C5 C17 1.453 . S
C5 C18 1.684 . S
H6 C30 0.948 . S
C7 C3 1.397 . S
C7 C8 1.394 . S
C7 C26 1.723 . S
C8 C5 1.396 . S
C8 C7 1.394 . S
C8 C38 1.723 . S
H9 C32 0.947 . S
H10 C33 0.948 . S
H11 C39 0.982 . S
H12 C40 0.979 . S
H13 C40 0.980 . S
H14 C40 0.983 . S
H15 C39 0.979 . S
H16 C39 0.977 . S
C17 C5 1.453 . S
C17 H46 0.982 . S
C17 H47 0.979 . S
C17 H48 0.977 . S
C18 C5 1.684 . S
C18 H43 0.979 . S
C18 H44 0.980 . S
C18 H45 0.983 . S
C19 C20 1.391 . S
C19 C24 1.391 . S
C19 H49 0.948 . S
C20 C19 1.391 . S
C20 C21 1.391 . S
C21 C20 1.391 . S
C21 C22 1.392 . S
C21 H50 0.947 . S
C22 C21 1.392 . S
C22 C23 1.419 . S
C22 H51 0.948 . S
C23 C22 1.419 . S
C23 C24 1.391 . S
C23 C27 1.397 . S
C24 C19 1.391 . S
C24 C23 1.391 . S
C24 C25 1.399 . S
C25 C24 1.399 . S
C25 C26 1.396 . S
C25 C28 1.453 . S
C25 C29 1.684 . S
C26 C7 1.723 . S
C26 C25 1.396 . S
C26 C27 1.394 . S
C27 C23 1.397 . S
C27 C26 1.394 . S
C27 C37 1.723 . S
C28 C25 1.453 . S
C28 H52 0.982 . S
C28 H53 0.979 . S
C28 H54 0.977 . S
C29 C25 1.684 . S
C29 H55 0.979 . S
C29 H56 0.980 . S
C29 H57 0.983 . S
C30 H6 0.948 . S
C30 C31 1.391 . S
C30 C35 1.391 . S
C31 C30 1.391 . S
C31 C32 1.391 . S
C32 H9 0.947 . S
C32 C31 1.391 . S
C32 C33 1.392 . S
C33 H10 0.948 . S
C33 C32 1.392 . S
C33 C34 1.419 . S
C34 C33 1.419 . S
C34 C35 1.391 . S
C34 C38 1.397 . S
C35 C30 1.391 . S
C35 C34 1.391 . S
C35 C36 1.399 . S
C36 C35 1.399 . S
C36 C37 1.396 . S
C36 C39 1.453 . S
C36 C40 1.684 . S
C37 C27 1.723 . S
C37 C36 1.396 . S
C37 C38 1.394 . S
C38 C8 1.723 . S
C38 C34 1.397 . S
C38 C37 1.394 . S
C39 H11 0.982 . S
C39 H15 0.979 . S
C39 H16 0.977 . S
C39 C36 1.453 . S
C40 H12 0.979 . S
C40 H13 0.980 . S
C40 H14 0.983 . S
C40 C36 1.684 . S
H41 C59 0.948 . S
H42 C0 0.948 . S
H43 C18 0.979 . S
H44 C18 0.980 . S
H45 C18 0.983 . S
H46 C17 0.982 . S
H47 C17 0.979 . S
H48 C17 0.977 . S
H49 C19 0.948 . S
H50 C21 0.947 . S
H51 C22 0.948 . S
H52 C28 0.982 . S
H53 C28 0.979 . S
H54 C28 0.977 . S
H55 C29 0.979 . S
H56 C29 0.980 . S
H57 C29 0.983 . S
H58 C2 0.947 . S
C59 C2 1.392 . S
C59 C3 1.419 . S
C59 H41 0.948 . S
C60 C61 1.391 . S
C60 C64 1.391 . S
C60 H102 0.948 . S
C61 C60 1.391 . S
C61 C62 1.391 . S
C62 C61 1.391 . S
C62 H118 0.947 . S
C62 C119 1.392 . S
C63 C64 1.391 . S
C63 C67 1.397 . S
C63 C119 1.419 . S
C64 C60 1.391 . S
C64 C63 1.391 . S
C64 C65 1.399 . S
C65 C64 1.399 . S
C65 C68 1.396 . S
C65 C77 1.453 . S
C65 C78 1.684 . S
H66 C90 0.948 . S
C67 C63 1.397 . S
C67 C68 1.394 . S
C67 C86 1.723 . S
C68 C65 1.396 . S
C68 C67 1.394 . S
C68 C98 1.723 . S
H69 C92 0.947 . S
H70 C93 0.948 . S
H71 C99 0.982 . S
H72 C100 0.979 . S
H73 C100 0.980 . S
H74 C100 0.983 . S
H75 C99 0.979 . S
H76 C99 0.977 . S
C77 C65 1.453 . S
C77 H106 0.982 . S
C77 H107 0.979 . S
C77 H108 0.977 . S
C78 C65 1.684 . S
C78 H103 0.979 . S
C78 H104 0.980 . S
C78 H105 0.983 . S
C79 C80 1.391 . S
C79 C84 1.391 . S
C79 H109 0.948 . S
C80 C79 1.391 . S
C80 C81 1.391 . S
C81 C80 1.391 . S
C81 C82 1.392 . S
C81 H110 0.947 . S
C82 C81 1.392 . S
C82 C83 1.419 . S
C82 H111 0.948 . S
C83 C82 1.419 . S
C83 C84 1.391 . S
C83 C87 1.397 . S
C84 C79 1.391 . S
C84 C83 1.391 . S
C84 C85 1.399 . S
C85 C84 1.399 . S
C85 C86 1.396 . S
C85 C88 1.453 . S
C85 C89 1.684 . S
C86 C67 1.723 . S
C86 C85 1.396 . S
C86 C87 1.394 . S
C87 C83 1.397 . S
C87 C86 1.394 . S
C87 C97 1.723 . S
C88 C85 1.453 . S
C88 H112 0.982 . S
C88 H113 0.979 . S
C88 H114 0.977 . S
C89 C85 1.684 . S
C89 H115 0.979 . S
C89 H116 0.980 . S
C89 H117 0.983 . S
C90 H66 0.948 . S
C90 C91 1.391 . S
C90 C95 1.391 . S
C91 C90 1.391 . S
C91 C92 1.391 . S
C92 H69 0.947 . S
C92 C91 1.391 . S
C92 C93 1.392 . S
C93 H70 0.948 . S
C93 C92 1.392 . S
C93 C94 1.419 . S
C94 C93 1.419 . S
C94 C95 1.391 . S
C94 C98 1.397 . S
C95 C90 1.391 . S
C95 C94 1.391 . S
C95 C96 1.399 . S
C96 C95 1.399 . S
C96 C97 1.396 . S
C96 C99 1.453 . S
C96 C100 1.684 . S
C97 C87 1.723 . S
C97 C96 1.396 . S
C97 C98 1.394 . S
C98 C68 1.723 . S
C98 C94 1.397 . S
C98 C97 1.394 . S
C99 H71 0.982 . S
C99 H75 0.979 . S
C99 H76 0.977 . S
C99 C96 1.453 . S
C100 H72 0.979 . S
C100 H73 0.980 . S
C100 H74 0.983 . S
C100 C96 1.684 . S
H101 C119 0.948 . S
H102 C60 0.948 . S
H103 C78 0.979 . S
H104 C78 0.980 . S
H105 C78 0.983 . S
H106 C77 0.982 . S
H107 C77 0.979 . S
H108 C77 0.977 . S
H109 C79 0.948 . S
H110 C81 0.947 . S
H111 C82 0.948 . S
H112 C88 0.982 . S
H113 C88 0.979 . S
H114 C88 0.977 . S
H115 C89 0.979 . S
H116 C89 0.980 . S
H117 C89 0.983 . S
H118 C62 0.947 . S
C119 C62 1.392 . S
C119 C63 1.419 . S
C119 H101 0.948 . S
C120 C121 1.391 . S
C120 C124 1.391 . S
C120 H162 0.948 . S
C121 C120 1.391 . S
C121 C122 1.391 . S
C122 C121 1.391 . S
C122 H178 0.947 . S
C122 C179 1.392 . S
C123 C124 1.391 . S
C123 C127 1.397 . S
C123 C179 1.419 . S
C124 C120 1.391 . S
C124 C123 1.391 . S
C124 C125 1.399 . S
C125 C124 1.399 . S
C125 C128 1.396 . S
C125 C137 1.453 . S
C125 C138 1.684 . S
H126 C150 0.948 . S
C127 C123 1.397 . S
C127 C128 1.394 . S
C127 C146 1.723 . S
C128 C125 1.396 . S
C128 C127 1.394 . S
C128 C158 1.723 . S
H129 C152 0.947 . S
H130 C153 0.948 . S
H131 C159 0.982 . S
H132 C160 0.979 . S
H133 C160 0.980 . S
H134 C160 0.983 . S
H135 C159 0.979 . S
H136 C159 0.977 . S
C137 C125 1.453 . S
C137 H166 0.982 . S
C137 H167 0.979 . S
C137 H168 0.977 . S
C138 C125 1.684 . S
C138 H163 0.979 . S
C138 H164 0.980 . S
C138 H165 0.983 . S
C139 C140 1.391 . S
C139 C144 1.391 . S
C139 H169 0.948 . S
C140 C139 1.391 . S
C140 C141 1.391 . S
C141 C140 1.391 . S
C141 C142 1.392 . S
C141 H170 0.947 . S
C142 C141 1.392 . S
C142 C143 1.419 . S
C142 H171 0.948 . S
C143 C142 1.419 . S
C143 C144 1.391 . S
C143 C147 1.397 . S
C144 C139 1.391 . S
C144 C143 1.391 . S
C144 C145 1.399 . S
C145 C144 1.399 . S
C145 C146 1.396 . S
C145 C148 1.453 . S
C145 C149 1.684 . S
C146 C127 1.723 . S
C146 C145 1.396 . S
C146 C147 1.394 . S
C147 C143 1.397 . S
C147 C146 1.394 . S
C147 C157 1.723 . S
C148 C145 1.453 . S
C148 H172 0.982 . S
C148 H173 0.979 . S
C148 H174 0.977 . S
C149 C145 1.684 . S
C149 H175 0.979 . S
C149 H176 0.980 . S
C149 H177 0.983 . S
C150 H126 0.948 . S
C150 C151 1.391 . S
C150 C155 1.391 . S
C151 C150 1.391 . S
C151 C152 1.391 . S
C152 H129 0.947 . S
C152 C151 1.391 . S
C152 C153 1.392 . S
C153 H130 0.948 . S
C153 C152 1.392 . S
C153 C154 1.419 . S
C154 C153 1.419 . S
C154 C155 1.391 . S
C154 C158 1.397 . S
C155 C150 1.391 . S
C155 C154 1.391 . S
C155 C156 1.399 . S
C156 C155 1.399 . S
C156 C157 1.396 . S
C156 C159 1.453 . S
C156 C160 1.684 . S
C157 C147 1.723 . S
C157 C156 1.396 . S
C157 C158 1.394 . S
C158 C128 1.723 . S
C158 C154 1.397 . S
C158 C157 1.394 . S
C159 H131 0.982 . S
C159 H135 0.979 . S
C159 H136 0.977 . S
C159 C156 1.453 . S
C160 H132 0.979 . S
C160 H133 0.980 . S
C160 H134 0.983 . S
C160 C156 1.684 . S
H161 C179 0.948 . S
H162 C120 0.948 . S
H163 C138 0.979 . S
H164 C138 0.980 . S
H165 C138 0.983 . S
H166 C137 0.982 . S
H167 C137 0.979 . S
H168 C137 0.977 . S
H169 C139 0.948 . S
H170 C141 0.947 . S
H171 C142 0.948 . S
H172 C148 0.982 . S
H173 C148 0.979 . S
H174 C148 0.977 . S
H175 C149 0.979 . S
H176 C149 0.980 . S
H177 C149 0.983 . S
H178 C122 0.947 . S
C179 C122 1.392 . S
C179 C123 1.419 . S
C179 H161 0.948 . S
C180 C181 1.391 . S
C180 C184 1.391 . S
C180 H222 0.948 . S
C181 C180 1.391 . S
C181 C182 1.391 . S
C182 C181 1.391 . S
C182 H238 0.947 . S
C182 C239 1.392 . S
C183 C184 1.391 . S
C183 C187 1.397 . S
C183 C239 1.419 . S
C184 C180 1.391 . S
C184 C183 1.391 . S
C184 C185 1.399 . S
C185 C184 1.399 . S
C185 C188 1.396 . S
C185 C197 1.453 . S
C185 C198 1.684 . S
H186 C210 0.948 . S
C187 C183 1.397 . S
C187 C188 1.394 . S
C187 C206 1.723 . S
C188 C185 1.396 . S
C188 C187 1.394 . S
C188 C218 1.723 . S
H189 C212 0.947 . S
H190 C213 0.948 . S
H191 C219 0.982 . S
H192 C220 0.979 . S
H193 C220 0.980 . S
H194 C220 0.983 . S
H195 C219 0.979 . S
H196 C219 0.977 . S
C197 C185 1.453 . S
C197 H226 0.982 . S
C197 H227 0.979 . S
C197 H228 0.977 . S
C198 C185 1.684 . S
C198 H223 0.979 . S
C198 H224 0.980 . S
C198 H225 0.983 . S
C199 C200 1.391 . S
C199 C204 1.391 . S
C199 H229 0.948 . S
C200 C199 1.391 . S
C200 C201 1.391 . S
C201 C200 1.391 . S
C201 C202 1.392 . S
C201 H230 0.947 . S
C202 C201 1.392 . S
C202 C203 1.419 . S
C202 H231 0.948 . S
C203 C202 1.419 . S
C203 C204 1.391 . S
C203 C207 1.397 . S
C204 C199 1.391 . S
C204 C203 1.391 . S
C204 C205 1.399 . S
C205 C204 1.399 . S
C205 C206 1.396 . S
C205 C208 1.453 . S
C205 C209 1.684 . S
C206 C187 1.723 . S
C206 C205 1.396 . S
C206 C207 1.394 . S
C207 C203 1.397 . S
C207 C206 1.394 . S
C207 C217 1.723 . S
C208 C205 1.453 . S
C208 H232 0.982 . S
C208 H233 0.979 . S
C208 H234 0.977 . S
C209 C205 1.684 . S
C209 H235 0.979 . S
C209 H236 0.980 . S
C209 H237 0.983 . S
C210 H186 0.948 . S
C210 C211 1.391 . S
C210 C215 1.391 . S
C211 C210 1.391 . S
C211 C212 1.391 . S
C212 H189 0.947 . S
C212 C211 1.391 . S
C212 C213 1.392 . S
C213 H190 0.948 . S
C213 C212 1.392 . S
C213 C214 1.419 . S
C214 C213 1.419 . S
C214 C215 1.391 . S
C214 C218 1.397 . S
C215 C210 1.391 . S
C215 C214 1.391 . S
C215 C216 1.399 . S
C216 C215 1.399 . S
C216 C217 1.396 . S
C216 C219 1.453 . S
C216 C220 1.684 . S
C217 C207 1.723 . S
C217 C216 1.396 . S
C217 C218 1.394 . S
C218 C188 1.723 . S
C218 C214 1.397 . S
C218 C217 1.394 . S
C219 H191 0.982 . S
C219 H195 0.979 . S
C219 H196 0.977 . S
C219 C216 1.453 . S
C220 H192 0.979 . S
C220 H193 0.980 . S
C220 H194 0.983 . S
C220 C216 1.684 . S
H221 C239 0.948 . S
H222 C180 0.948 . S
H223 C198 0.979 . S
H224 C198 0.980 . S
H225 C198 0.983 . S
H226 C197 0.982 . S
H227 C197 0.979 . S
H228 C197 0.977 . S
H229 C199 0.948 . S
H230 C201 0.947 . S
H231 C202 0.948 . S
H232 C208 0.982 . S
H233 C208 0.979 . S
H234 C208 0.977 . S
H235 C209 0.979 . S
H236 C209 0.980 . S
H237 C209 0.983 . S
H238 C182 0.947 . S
C239 C182 1.392 . S
C239 C183 1.419 . S
C239 H221 0.948 . S
C240 C241 1.391 . S
C240 C244 1.391 . S
C240 H282 0.948 . S
C241 C240 1.391 . S
C241 C242 1.391 . S
C242 C241 1.391 . S
C242 H298 0.947 . S
C242 C299 1.392 . S
C243 C244 1.391 . S
C243 C247 1.397 . S
C243 C299 1.419 . S
C244 C240 1.391 . S
C244 C243 1.391 . S
C244 C245 1.399 . S
C245 C244 1.399 . S
C245 C248 1.396 . S
C245 C257 1.453 . S
C245 C258 1.684 . S
H246 C270 0.948 . S
C247 C243 1.397 . S
C247 C248 1.394 . S
C247 C266 1.723 . S
C248 C245 1.396 . S
C248 C247 1.394 . S
C248 C278 1.723 . S
H249 C272 0.947 . S
H250 C273 0.948 . S
H251 C279 0.982 . S
H252 C280 0.979 . S
H253 C280 0.980 . S
H254 C280 0.983 . S
H255 C279 0.979 . S
H256 C279 0.977 . S
C257 C245 1.453 . S
C257 H286 0.982 . S
C257 H287 0.979 . S
C257 H288 0.977 . S
C258 C245 1.684 . S
C258 H283 0.979 . S
C258 H284 0.980 . S
C258 H285 0.983 . S
C259 C260 1.391 . S
C259 C264 1.391 . S
C259 H289 0.948 . S
C260 C259 1.391 . S
C260 C261 1.391 . S
C261 C260 1.391 . S
C261 C262 1.392 . S
C261 H290 0.947 . S
C262 C261 1.392 . S
C262 C263 1.419 . S
C262 H291 0.948 . S
C263 C262 1.419 . S
C263 C264 1.391 . S
C263 C267 1.397 . S
C264 C259 1.391 . S
C264 C263 1.391 . S
C264 C265 1.399 . S
C265 C264 1.399 . S
C265 C266 1.396 . S
C265 C268 1.453 . S
C265 C269 1.684 . S
C266 C247 1.723 . S
C266 C265 1.396 . S
C266 C267 1.394 . S
C267 C263 1.397 . S
C267 C266 1.394 . S
C267 C277 1.723 . S
C268 C265 1.453 . S
C268 H292 0.982 . S
C268 H293 0.979 . S
C268 H294 0.977 . S
C269 C265 1.684 . S
C269 H295 0.979 . S
C269 H296 0.980 . S
C269 H297 0.983 . S
C270 H246 0.948 . S
C270 C271 1.391 . S
C270 C275 1.391 . S
C271 C270 1.391 . S
C271 C272 1.391 . S
C272 H249 0.947 . S
C272 C271 1.391 . S
C272 C273 1.392 . S
C273 H250 0.948 . S
C273 C272 1.392 . S
C273 C274 1.419 . S
C274 C273 1.419 . S
C274 C275 1.391 . S
C274 C278 1.397 . S
C275 C270 1.391 . S
C275 C274 1.391 . S
C275 C276 1.399 . S
C276 C275 1.399 . S
C276 C277 1.396 . S
C276 C279 1.453 . S
C276 C280 1.684 . S
C277 C267 1.723 . S
C277 C276 1.396 . S
C277 C278 1.394 . S
C278 C248 1.723 . S
C278 C274 1.397 . S
C278 C277 1.394 . S
C279 H251 0.982 . S
C279 H255 0.979 . S
C279 H256 0.977 . S
C279 C276 1.453 . S
C280 H252 0.979 . S
C280 H253 0.980 . S
C280 H254 0.983 . S
C280 C276 1.684 . S
H281 C299 0.948 . S
H282 C240 0.948 . S
H283 C258 0.979 . S
H284 C258 0.980 . S
H285 C258 0.983 . S
H286 C257 0.982 . S
H287 C257 0.979 . S
H288 C257 0.977 . S
H289 C259 0.948 . S
H290 C261 0.947 . S
H291 C262 0.948 . S
H292 C268 0.982 . S
H293 C268 0.979 . S
H294 C268 0.977 . S
H295 C269 0.979 . S
H296 C269 0.980 . S
H297 C269 0.983 . S
H298 C242 0.947 . S
C299 C242 1.392 . S
C299 C243 1.419 . S
C299 H281 0.948 . S
C300 C301 1.391 . S
C300 C304 1.391 . S
C300 H342 0.948 . S
C301 C300 1.391 . S
C301 C302 1.391 . S
C302 C301 1.391 . S
C302 H358 0.947 . S
C302 C359 1.392 . S
C303 C304 1.391 . S
C303 C307 1.397 . S
C303 C359 1.419 . S
C304 C300 1.391 . S
C304 C303 1.391 . S
C304 C305 1.399 . S
C305 C304 1.399 . S
C305 C308 1.396 . S
C305 C317 1.453 . S
C305 C318 1.684 . S
H306 C330 0.948 . S
C307 C303 1.397 . S
C307 C308 1.394 . S
C307 C326 1.723 . S
C308 C305 1.396 . S
C308 C307 1.394 . S
C308 C338 1.723 . S
H309 C332 0.947 . S
H310 C333 0.948 . S
H311 C339 0.982 . S
H312 C340 0.979 . S
H313 C340 0.980 . S
H314 C340 0.983 . S
H315 C339 0.979 . S
H316 C339 0.977 . S
C317 C305 1.453 . S
C317 H346 0.982 . S
C317 H347 0.979 . S
C317 H348 0.977 . S
C318 C305 1.684 . S
C318 H343 0.979 . S
C318 H344 0.980 . S
C318 H345 0.983 . S
C319 C320 1.391 . S
C319 C324 1.391 . S
C319 H349 0.948 . S
C320 C319 1.391 . S
C320 C321 1.391 . S
C321 C320 1.391 . S
C321 C322 1.392 . S
C321 H350 0.947 . S
C322 C321 1.392 . S
C322 C323 1.419 . S
C322 H351 0.948 . S
C323 C322 1.419 . S
C323 C324 1.391 . S
C323 C327 1.397 . S
C324 C319 1.391 . S
C324 C323 1.391 . S
C324 C325 1.399 . S
C325 C324 1.399 . S
C325 C326 1.396 . S
C325 C328 1.453 . S
C325 C329 1.684 . S
C326 C307 1.723 . S
C326 C325 1.396 . S
C326 C327 1.394 . S
C327 C323 1.397 . S
C327 C326 1.394 . S
C327 C337 1.723 . S
C328 C325 1.453 . S
C328 H352 0.982 . S
C328 H353 0.979 . S
C328 H354 0.977 . S
C329 C325 1.684 . S
C329 H355 0.979 . S
C329 H356 0.980 . S
C329 H357 0.983 . S
C330 H306 0.948 . S
C330 C331 1.391 . S
C330 C335 1.391 . S
C331 C330 1.391 . S
C331 C332 1.391 . S
C332 H309 0.947 . S
C332 C331 1.391 . S
C332 C333 1.392 . S
C333 H310 0.948 . S
C333 C332 1.392 . S
C333 C334 1.419 . S
C334 C333 1.419 . S
C334 C335 1.391 . S
C334 C338 1.397 . S
C335 C330 1.391 . S
C335 C334 1.391 . S
C335 C336 1.399 . S
C336 C335 1.399 . S
C336 C337 1.396 . S
C336 C339 1.453 . S
C336 C340 1.684 . S
C337 C327 1.723 . S
C337 C336 1.396 . S
C337 C338 1.394 . S
C338 C308 1.723 . S
C338 C334 1.397 . S
C338 C337 1.394 . S
C339 H311 0.982 . S
C339 H315 0.979 . S
C339 H316 0.977 . S
C339 C336 1.453 . S
C340 H312 0.979 . S
C340 H313 0.980 . S
C340 H314 0.983 . S
C340 C336 1.684 . S
H341 C359 0.948 . S
H342 C300 0.948 . S
H343 C318 0.979 . S
H344 C318 0.980 . S
H345 C318 0.983 . S
H346 C317 0.982 . S
H347 C317 0.979 . S
H348 C317 0.977 . S
H349 C319 0.948 . S
H350 C321 0.947 . S
H351 C322 0.948 . S
H352 C328 0.982 . S
H353 C328 0.979 . S
H354 C328 0.977 . S
H355 C329 0.979 . S
H356 C329 0.980 . S
H357 C329 0.983 . S
H358 C302 0.947 . S
C359 C302 1.392 . S
C359 C303 1.419 . S
C359 H341 0.948 . S
C360 C361 1.391 . S
C360 C364 1.391 . S
C360 H402 0.948 . S
C361 C360 1.391 . S
C361 C362 1.391 . S
C362 C361 1.391 . S
C362 H418 0.947 . S
C362 C419 1.392 . S
C363 C364 1.391 . S
C363 C367 1.397 . S
C363 C419 1.419 . S
C364 C360 1.391 . S
C364 C363 1.391 . S
C364 C365 1.399 . S
C365 C364 1.399 . S
C365 C368 1.396 . S
C365 C377 1.453 . S
C365 C378 1.684 . S
H366 C390 0.948 . S
C367 C363 1.397 . S
C367 C368 1.394 . S
C367 C386 1.723 . S
C368 C365 1.396 . S
C368 C367 1.394 . S
C368 C398 1.723 . S
H369 C392 0.947 . S
H370 C393 0.948 . S
H371 C399 0.982 . S
H372 C400 0.979 . S
H373 C400 0.980 . S
H374 C400 0.983 . S
H375 C399 0.979 . S
H376 C399 0.977 . S
C377 C365 1.453 . S
C377 H406 0.982 . S
C377 H407 0.979 . S
C377 H408 0.977 . S
C378 C365 1.684 . S
C378 H403 0.979 . S
C378 H404 0.980 . S
C378 H405 0.983 . S
C379 C380 1.391 . S
C379 C384 1.391 . S
C379 H409 0.948 . S
C380 C379 1.391 . S
C380 C381 1.391 . S
C381 C380 1.391 . S
C381 C382 1.392 . S
C381 H410 0.947 . S
C382 C381 1.392 . S
C382 C383 1.419 . S
C382 H411 0.948 . S
C383 C382 1.419 . S
C383 C384 1.391 . S
C383 C387 1.397 . S
C384 C379 1.391 . S
C384 C383 1.391 . S
C384 C385 1.399 . S
C385 C384 1.399 . S
C385 C386 1.396 . S
C385 C388 1.453 . S
C385 C389 1.684 . S
C386 C367 1.723 . S
C386 C385 1.396 . S
C386 C387 1.394 . S
C387 C383 1.397 . S
C387 C386 1.394 . S
C387 C397 1.723 . S
C388 C385 1.453 . S
C388 H412 0.982 . S
C388 H413 0.979 . S
C388 H414 0.977 . S
C389 C385 1.684 . S
C389 H415 0.979 . S
C389 H416 0.980 . S
C389 H417 0.983 . S
C390 H366 0.948 . S
C390 C391 1.391 . S
C390 C395 1.391 . S
C391 C390 1.391 . S
C391 C392 1.391 . S
C392 H369 0.947 . S
C392 C391 1.391 . S
C392 C393 1.392 . S
C393 H370 0.948 . S
C393 C392 1.392 . S
C393 C394 1.419 . S
C394 C393 1.419 . S
C394 C395 1.391 . S
C394 C398 1.397 . S
C395 C390 1.391 . S
C395 C394 1.391 . S
C395 C396 1.399 . S
C396 C395 1.399 . S
C396 C397 1.396 . S
C396 C399 1.453 . S
C396 C400 1.684 . S
C397 C387 1.723 . S
C397 C396 1.396 . S
C397 C398 1.394 . S
C398 C368 1.723 . S
C398 C394 1.397 . S
C398 C397 1.394 . S
C399 H371 0.982 . S
C399 H375 0.979 . S
C399 H376 0.977 . S
C399 C396 1.453 . S
C400 H372 0.979 . S
C400 H373 0.980 . S
C400 H374 0.983 . S
C400 C396 1.684 . S
H401 C419 0.948 . S
H402 C360 0.948 . S
H403 C378 0.979 . S
H404 C378 0.980 . S
H405 C378 0.983 . S
H406 C377 0.982 . S
H407 C377 0.979 . S
H408 C377 0.977 . S
H409 C379 0.948 . S
H410 C381 0.947 . S
H411 C382 0.948 . S
H412 C388 0.982 . S
H413 C388 0.979 . S
H414 C388 0.977 . S
H415 C389 0.979 . S
H416 C389 0.980 . S
H417 C389 0.983 . S
H418 C362 0.947 . S
C419 C362 1.392 . S
C419 C363 1.419 . S
C419 H401 0.948 . S
C420 C421 1.391 . S
C420 C424 1.391 . S
C420 H462 0.948 . S
C421 C420 1.391 . S
C421 C422 1.391 . S
C422 C421 1.391 . S
C422 H478 0.947 . S
C422 C479 1.392 . S
C423 C424 1.391 . S
C423 C427 1.397 . S
C423 C479 1.419 . S
C424 C420 1.391 . S
C424 C423 1.391 . S
C424 C425 1.399 . S
C425 C424 1.399 . S
C425 C428 1.396 . S
C425 C437 1.453 . S
C425 C438 1.684 . S
H426 C450 0.948 . S
C427 C423 1.397 . S
C427 C428 1.394 . S
C427 C446 1.723 . S
C428 C425 1.396 . S
C428 C427 1.394 . S
C428 C458 1.723 . S
H429 C452 0.947 . S
H430 C453 0.948 . S
H431 C459 0.982 . S
H432 C460 0.979 . S
H433 C460 0.980 . S
H434 C460 0.983 . S
H435 C459 0.979 . S
H436 C459 0.977 . S
C437 C425 1.453 . S
C437 H466 0.982 . S
C437 H467 0.979 . S
C437 H468 0.977 . S
C438 C425 1.684 . S
C438 H463 0.979 . S
C438 H464 0.980 . S
C438 H465 0.983 . S
C439 C440 1.391 . S
C439 C444 1.391 . S
C439 H469 0.948 . S
C440 C439 1.391 . S
C440 C441 1.391 . S
C441 C440 1.391 . S
C441 C442 1.392 . S
C441 H470 0.947 . S
C442 C441 1.392 . S
C442 C443 1.419 . S
C442 H471 0.948 . S
C443 C442 1.419 . S
C443 C444 1.391 . S
C443 C447 1.397 . S
C444 C439 1.391 . S
C444 C443 1.391 . S
C444 C445 1.399 . S
C445 C444 1.399 . S
C445 C446 1.396 . S
C445 C448 1.453 . S
C445 C449 1.684 . S
C446 C427 1.723 . S
C446 C445 1.396 . S
C446 C447 1.394 . S
C447 C443 1.397 . S
C447 C446 1.394 . S
C447 C457 1.723 . S
C448 C445 1.453 . S
C448 H472 0.982 . S
C448 H473 0.979 . S
C448 H474 0.977 . S
C449 C445 1.684 . S
C449 H475 0.979 . S
C449 H476 0.980 . S
C449 H477 0.983 . S
C450 H426 0.948 . S
C450 C451 1.391 . S
C450 C455 1.391 . S
C451 C450 1.391 . S
C451 C452 1.391 . S
C452 H429 0.947 . S
C452 C451 1.391 . S
C452 C453 1.392 . S
C453 H430 0.948 . S
C453 C452 1.392 . S
C453 C454 1.419 . S
C454 C453 1.419 . S
C454 C455 1.391 . S
C454 C458 1.397 . S
C455 C450 1.391 . S
C455 C454 1.391 . S
C455 C456 1.399 . S
C456 C455 1.399 . S
C456 C457 1.396 . S
C456 C459 1.453 . S
C456 C460 1.684 . S
C457 C447 1.723 . S
C457 C456 1.396 . S
C457 C458 1.394 . S
C458 C428 1.723 . S
C458 C454 1.397 . S
C458 C457 1.394 . S
C459 H431 0.982 . S
C459 H435 0.979 . S
C459 H436 0.977 . S
C459 C456 1.453 . S
C460 H432 0.979 . S
C460 H433 0.980 . S
C460 H434 0.983 . S
C460 C456 1.684 . S
H461 C479 0.948 . S
H462 C420 0.948 . S
H463 C438 0.979 . S
H464 C438 0.980 . S
H465 C438 0.983 . S
H466 C437 0.982 . S
H467 C437 0.979 . S
H468 C437 0.977 . S
H469 C439 0.948 . S
H470 C441 0.947 . S
H471 C442 0.948 . S
H472 C448 0.982 . S
H473 C448 0.979 . S
H474 C448 0.977 . S
H475 C449 0.979 . S
H476 C449 0.980 . S
H477 C449 0.983 . S
H478 C422 0.947 . S
C479 C422 1.392 . S
C479 C423 1.419 . S
C479 H461 0.948 . S
C480 C481 1.391 . S
C480 C484 1.391 . S
C480 H522 0.948 . S
C481 C480 1.391 . S
C481 C482 1.391 . S
C482 C481 1.391 . S
C482 H538 0.947 . S
C482 C539 1.392 . S
C483 C484 1.391 . S
C483 C487 1.397 . S
C483 C539 1.419 . S
C484 C480 1.391 . S
C484 C483 1.391 . S
C484 C485 1.399 . S
C485 C484 1.399 . S
C485 C488 1.396 . S
C485 C497 1.453 . S
C485 C498 1.684 . S
H486 C510 0.948 . S
C487 C483 1.397 . S
C487 C488 1.394 . S
C487 C506 1.723 . S
C488 C485 1.396 . S
C488 C487 1.394 . S
C488 C518 1.723 . S
H489 C512 0.947 . S
H490 C513 0.948 . S
H491 C519 0.982 . S
H492 C520 0.979 . S
H493 C520 0.980 . S
H494 C520 0.983 . S
H495 C519 0.979 . S
H496 C519 0.977 . S
C497 C485 1.453 . S
C497 H526 0.982 . S
C497 H527 0.979 . S
C497 H528 0.977 . S
C498 C485 1.684 . S
C498 H523 0.979 . S
C498 H524 0.980 . S
C498 H525 0.983 . S
C499 C500 1.391 . S
C499 C504 1.391 . S
C499 H529 0.948 . S
C500 C499 1.391 . S
C500 C501 1.391 . S
C501 C500 1.391 . S
C501 C502 1.392 . S
C501 H530 0.947 . S
C502 C501 1.392 . S
C502 C503 1.419 . S
C502 H531 0.948 . S
C503 C502 1.419 . S
C503 C504 1.391 . S
C503 C507 1.397 . S
C504 C499 1.391 . S
C504 C503 1.391 . S
C504 C505 1.399 . S
C505 C504 1.399 . S
C505 C506 1.396 . S
C505 C508 1.453 . S
C505 C509 1.684 . S
C506 C487 1.723 . S
C506 C505 1.396 . S
C506 C507 1.394 . S
C507 C503 1.397 . S
C507 C506 1.394 . S
C507 C517 1.723 . S
C508 C505 1.453 . S
C508 H532 0.982 . S
C508 H533 0.979 . S
C508 H534 0.977 . S
C509 C505 1.684 . S
C509 H535 0.979 . S
C509 H536 0.980 . S
C509 H537 0.983 . S
C510 H486 0.948 . S
C510 C511 1.391 . S
C510 C515 1.391 . S
C511 C510 1.391 . S
C511 C512 1.391 . S
C512 H489 0.947 . S
C512 C511 1.391 . S
C512 C513 1.392 . S
C513 H490 0.948 . S
C513 C512 1.392 . S
C513 C514 1.419 . S
C514 C513 1.419 . S
C514 C515 1.391 . S
C514 C518 1.397 . S
C515 C510 1.391 . S
C515 C514 1.391 . S
C515 C516 1.399 . S
C516 C515 1.399 . S
C516 C517 1.396 . S
C516 C519 1.453 . S
C516 C520 1.684 . S
C517 C507 1.723 . S
C517 C516 1.396 . S
C517 C518 1.394 . S
C518 C488 1.723 . S
C518 C514 1.397 . S
C518 C517 1.394 . S
C519 H491 0.982 . S
C519 H495 0.979 . S
C519 H496 0.977 . S
C519 C516 1.453 . S
C520 H492 0.979 . S
C520 H493 0.980 . S
C520 H494 0.983 . S
C520 C516 1.684 . S
H521 C539 0.948 . S
H522 C480 0.948 . S
H523 C498 0.979 . S
H524 C498 0.980 . S
H525 C498 0.983 . S
H526 C497 0.982 . S
H527 C497 0.979 . S
H528 C497 0.977 . S
H529 C499 0.948 . S
H530 C501 0.947 . S
H531 C502 0.948 . S
H532 C508 0.982 . S
H533 C508 0.979 . S
H534 C508 0.977 . S
H535 C509 0.979 . S
H536 C509 0.980 . S
H537 C509 0.983 . S
H538 C482 0.947 . S
C539 C482 1.392 . S
C539 C483 1.419 . S
C539 H521 0.948 . S
C540 C541 1.391 . S
C540 C544 1.391 . S
C540 H582 0.948 . S
C541 C540 1.391 . S
C541 C542 1.391 . S
C542 C541 1.391 . S
C542 H598 0.947 . S
C542 C599 1.392 . S
C543 C544 1.391 . S
C543 C547 1.397 . S
C543 C599 1.419 . S
C544 C540 1.391 . S
C544 C543 1.391 . S
C544 C545 1.399 . S
C545 C544 1.399 . S
C545 C548 1.396 . S
C545 C557 1.453 . S
C545 C558 1.684 . S
H546 C570 0.948 . S
C547 C543 1.397 . S
C547 C548 1.394 . S
C547 C566 1.723 . S
C548 C545 1.396 . S
C548 C547 1.394 . S
C548 C578 1.723 . S
H549 C572 0.947 . S
H550 C573 0.948 . S
H551 C579 0.982 . S
H552 C580 0.979 . S
H553 C580 0.980 . S
H554 C580 0.983 . S
H555 C579 0.979 . S
H556 C579 0.977 . S
C557 C545 1.453 . S
C557 H586 0.982 . S
C557 H587 0.979 . S
C557 H588 0.977 . S
C558 C545 1.684 . S
C558 H583 0.979 . S
C558 H584 0.980 . S
C558 H585 0.983 . S
C559 C560 1.391 . S
C559 C564 1.391 . S
C559 H589 0.948 . S
C560 C559 1.391 . S
C560 C561 1.391 . S
C561 C560 1.391 . S
C561 C562 1.392 . S
C561 H590 0.947 . S
C562 C561 1.392 . S
C562 C563 1.419 . S
C562 H591 0.948 . S
C563 C562 1.419 . S
C563 C564 1.391 . S
C563 C567 1.397 . S
C564 C559 1.391 . S
C564 C563 1.391 . S
C564 C565 1.399 . S
C565 C564 1.399 . S
C565 C566 1.396 . S
C565 C568 1.453 . S
C565 C569 1.684 . S
C566 C547 1.723 . S
C566 C565 1.396 . S
C566 C567 1.394 . S
C567 C563 1.397 . S
C567 C566 1.394 . S
C567 C577 1.723 . S
C568 C565 1.453 . S
C568 H592 0.982 . S
C568 H593 0.979 . S
C568 H594 0.977 . S
C569 C565 1.684 . S
C569 H595 0.979 . S
C569 H596 0.980 . S
C569 H597 0.983 . S
C570 H546 0.948 . S
C570 C571 1.391 . S
C570 C575 1.391 . S
C571 C570 1.391 . S
C571 C572 1.391 . S
C572 H549 0.947 . S
C572 C571 1.391 . S
C572 C573 1.392 . S
C573 H550 0.948 . S
C573 C572 1.392 . S
C573 C574 1.419 . S
C574 C573 1.419 . S
C574 C575 1.391 . S
C574 C578 1.397 . S
C575 C570 1.391 . S
C575 C574 1.391 . S
C575 C576 1.399 . S
C576 C575 1.399 . S
C576 C577 1.396 . S
C576 C579 1.453 . S
C576 C580 1.684 . S
C577 C567 1.723 . S
C577 C576 1.396 . S
C577 C578 1.394 . S
C578 C548 1.723 . S
C578 C574 1.397 . S
C578 C577 1.394 . S
C579 H551 0.982 . S
C579 H555 0.979 . S
C579 H556 0.977 . S
C579 C576 1.453 . S
C580 H552 0.979 . S
C580 H553 0.980 . S
C580 H554 0.983 . S
C580 C576 1.684 . S
H581 C599 0.948 . S
H582 C540 0.948 . S
H583 C558 0.979 . S
H584 C558 0.980 . S
H585 C558 0.983 . S
H586 C557 0.982 . S
H587 C557 0.979 . S
H588 C557 0.977 . S
H589 C559 0.948 . S
H590 C561 0.947 . S
H591 C562 0.948 . S
H592 C568 0.982 . S
H593 C568 0.979 . S
H594 C568 0.977 . S
H595 C569 0.979 . S
H596 C569 0.980 . S
H597 C569 0.983 . S
H598 C542 0.947 . S
C599 C542 1.392 . S
C599 C543 1.419 . S
C599 H581 0.948 . S
C600 C601 1.391 . S
C600 C604 1.391 . S
C600 H642 0.948 . S
C601 C600 1.391 . S
C601 C602 1.391 . S
C602 C601 1.391 . S
C602 H658 0.947 . S
C602 C659 1.392 . S
C603 C604 1.391 . S
C603 C607 1.397 . S
C603 C659 1.419 . S
C604 C600 1.391 . S
C604 C603 1.391 . S
C604 C605 1.399 . S
C605 C604 1.399 . S
C605 C608 1.396 . S
C605 C617 1.453 . S
C605 C618 1.684 . S
H606 C630 0.948 . S
C607 C603 1.397 . S
C607 C608 1.394 . S
C607 C626 1.723 . S
C608 C605 1.396 . S
C608 C607 1.394 . S
C608 C638 1.723 . S
H609 C632 0.947 . S
H610 C633 0.948 . S
H611 C639 0.982 . S
H612 C640 0.979 . S
H613 C640 0.980 . S
H614 C640 0.983 . S
H615 C639 0.979 . S
H616 C639 0.977 . S
C617 C605 1.453 . S
C617 H646 0.982 . S
C617 H647 0.979 . S
C617 H648 0.977 . S
C618 C605 1.684 . S
C618 H643 0.979 . S
C618 H644 0.980 . S
C618 H645 0.983 . S
C619 C620 1.391 . S
C619 C624 1.391 . S
C619 H649 0.948 . S
C620 C619 1.391 . S
C620 C621 1.391 . S
C621 C620 1.391 . S
C621 C622 1.392 . S
C621 H650 0.947 . S
C622 C621 1.392 . S
C622 C623 1.419 . S
C622 H651 0.948 . S
C623 C622 1.419 . S
C623 C624 1.391 . S
C623 C627 1.397 . S
C624 C619 1.391 . S
C624 C623 1.391 . S
C624 C625 1.399 . S
C625 C624 1.399 . S
C625 C626 1.396 . S
C625 C628 1.453 . S
C625 C629 1.684 . S
C626 C607 1.723 . S
C626 C625 1.396 . S
C626 C627 1.394 . S
C627 C623 1.397 . S
C627 C626 1.394 . S
C627 C637 1.723 . S
C628 C625 1.453 . S
C628 H652 0.982 . S
C628 H653 0.979 . S
C628 H654 0.977 . S
C629 C625 1.684 . S
C629 H655 0.979 . S
C629 H656 0.980 . S
C629 H657 0.983 . S
C630 H606 0.948 . S
C630 C631 1.391 . S
C630 C635 1.391 . S
C631 C630 1.391 . S
C631 C632 1.391 . S
C632 H609 0.947 . S
C632 C631 1.391 . S
C632 C633 1.392 . S
C633 H610 0.948 . S
C633 C632 1.392 . S
C633 C634 1.419 . S
C634 C633 1.419 . S
C634 C635 1.391 . S
C634 C638 1.397 . S
C635 C630 1.391 . S
C635 C634 1.391 . S
C635 C636 1.399 . S
C636 C635 1.399 . S
C636 C637 1.396 . S
C636 C639 1.453 . S
C636 C640 1.684 . S
C637 C627 1.723 . S
C637 C636 1.396 . S
C637 C638 1.394 . S
C638 C608 1.723 . S
C638 C634 1.397 . S
C638 C637 1.394 . S
C639 H611 0.982 . S
C639 H615 0.979 . S
C639 H616 0.977 . S
C639 C636 1.453 . S
C640 H612 0.979 . S
C640 H613 0.980 . S
C640 H614 0.983 . S
C640 C636 1.684 . S
H641 C659 0.948 . S
H642 C600 0.948 . S
H643 C618 0.979 . S
H644 C618 0.980 . S
H645 C618 0.983 . S
H646 C617 0.982 . S
H647 C617 0.979 . S
H648 C617 0.977 . S
H649 C619 0.948 . S
H650 C621 0.947 . S
H651 C622 0.948 . S
H652 C628 0.982 . S
H653 C628 0.979 . S
H654 C628 0.977 . S
H655 C629 0.979 . S
H656 C629 0.980 . S
H657 C629 0.983 . S
H658 C602 0.947 . S
C659 C602 1.392 . S
C659 C603 1.419 . S
C659 H641 0.948 . S
C660 C661 1.391 . S
C660 C664 1.391 . S
C660 H702 0.948 . S
C661 C660 1.391 . S
C661 C662 1.391 . S
C662 C661 1.391 . S
C662 H718 0.947 . S
C662 C719 1.392 . S
C663 C664 1.391 . S
C663 C667 1.397 . S
C663 C719 1.419 . S
C664 C660 1.391 . S
C664 C663 1.391 . S
C664 C665 1.399 . S
C665 C664 1.399 . S
C665 C668 1.396 . S
C665 C677 1.453 . S
C665 C678 1.684 . S
H666 C690 0.948 . S
C667 C663 1.397 . S
C667 C668 1.394 . S
C667 C686 1.723 . S
C668 C665 1.396 . S
C668 C667 1.394 . S
C668 C698 1.723 . S
H669 C692 0.947 . S
H670 C693 0.948 . S
H671 C699 0.982 . S
H672 C700 0.979 . S
H673 C700 0.980 . S
H674 C700 0.983 . S
H675 C699 0.979 . S
H676 C699 0.977 . S
C677 C665 1.453 . S
C677 H706 0.982 . S
C677 H707 0.979 . S
C677 H708 0.977 . S
C678 C665 1.684 . S
C678 H703 0.979 . S
C678 H704 0.980 . S
C678 H705 0.983 . S
C679 C680 1.391 . S
C679 C684 1.391 . S
C679 H709 0.948 . S
C680 C679 1.391 . S
C680 C681 1.391 . S
C681 C680 1.391 . S
C681 C682 1.392 . S
C681 H710 0.947 . S
C682 C681 1.392 . S
C682 C683 1.419 . S
C682 H711 0.948 . S
C683 C682 1.419 . S
C683 C684 1.391 . S
C683 C687 1.397 . S
C684 C679 1.391 . S
C684 C683 1.391 . S
C684 C685 1.399 . S
C685 C684 1.399 . S
C685 C686 1.396 . S
C685 C688 1.453 . S
C685 C689 1.684 . S
C686 C667 1.723 . S
C686 C685 1.396 . S
C686 C687 1.394 . S
C687 C683 1.397 . S
C687 C686 1.394 . S
C687 C697 1.723 . S
C688 C685 1.453 . S
C688 H712 0.982 . S
C688 H713 0.979 . S
C688 H714 0.977 . S
C689 C685 1.684 . S
C689 H715 0.979 . S
C689 H716 0.980 . S
C689 H717 0.983 . S
C690 H666 0.948 . S
C690 C691 1.391 . S
C690 C695 1.391 . S
C691 C690 1.391 . S
C691 C692 1.391 . S
C692 H669 0.947 . S
C692 C691 1.391 . S
C692 C693 1.392 . S
C693 H670 0.948 . S
C693 C692 1.392 . S
C693 C694 1.419 . S
C694 C693 1.419 . S
C694 C695 1.391 . S
C694 C698 1.397 . S
C695 C690 1.391 . S
C695 C694 1.391 . S
C695 C696 1.399 . S
C696 C695 1.399 . S
C696 C697 1.396 . S
C696 C699 1.453 . S
C696 C700 1.684 . S
C697 C687 1.723 . S
C697 C696 1.396 . S
C697 C698 1.394 . S
C698 C668 1.723 . S
C698 C694 1.397 . S
C698 C697 1.394 . S
C699 H671 0.982 . S
C699 H675 0.979 . S
C699 H676 0.977 . S
C699 C696 1.453 . S
C700 H672 0.979 . S
C700 H673 0.980 . S
C700 H674 0.983 . S
C700 C696 1.684 . S
H701 C719 0.948 . S
H702 C660 0.948 . S
H703 C678 0.979 . S
H704 C678 0.980 . S
H705 C678 0.983 . S
H706 C677 0.982 . S
H707 C677 0.979 . S
H708 C677 0.977 . S
H709 C679 0.948 . S
H710 C681 0.947 . S
H711 C682 0.948 . S
H712 C688 0.982 . S
H713 C688 0.979 . S
H714 C688 0.977 . S
H715 C689 0.979 . S
H716 C689 0.980 . S
H717 C689 0.983 . S
H718 C662 0.947 . S
C719 C662 1.392 . S
C719 C663 1.419 . S
C719 H701 0.948 . S
C720 C721 1.391 . S
C720 C724 1.391 . S
C720 H762 0.948 . S
C721 C720 1.391 . S
C721 C722 1.391 . S
C722 C721 1.391 . S
C722 H778 0.947 . S
C722 C779 1.392 . S
C723 C724 1.391 . S
C723 C727 1.397 . S
C723 C779 1.419 . S
C724 C720 1.391 . S
C724 C723 1.391 . S
C724 C725 1.399 . S
C725 C724 1.399 . S
C725 C728 1.396 . S
C725 C737 1.453 . S
C725 C738 1.684 . S
H726 C750 0.948 . S
C727 C723 1.397 . S
C727 C728 1.394 . S
C727 C746 1.723 . S
C728 C725 1.396 . S
C728 C727 1.394 . S
C728 C758 1.723 . S
H729 C752 0.947 . S
H730 C753 0.948 . S
H731 C759 0.982 . S
H732 C760 0.979 . S
H733 C760 0.980 . S
H734 C760 0.983 . S
H735 C759 0.979 . S
H736 C759 0.977 . S
C737 C725 1.453 . S
C737 H766 0.982 . S
C737 H767 0.979 . S
C737 H768 0.977 . S
C738 C725 1.684 . S
C738 H763 0.979 . S
C738 H764 0.980 . S
C738 H765 0.983 . S
C739 C740 1.391 . S
C739 C744 1.391 . S
C739 H769 0.948 . S
C740 C739 1.391 . S
C740 C741 1.391 . S
C741 C740 1.391 . S
C741 C742 1.392 . S
C741 H770 0.947 . S
C742 C741 1.392 . S
C742 C743 1.419 . S
C742 H771 0.948 . S
C743 C742 1.419 . S
C743 C744 1.391 . S
C743 C747 1.397 . S
C744 C739 1.391 . S
C744 C743 1.391 . S
C744 C745 1.399 . S
C745 C744 1.399 . S
C745 C746 1.396 . S
C745 C748 1.453 . S
C745 C749 1.684 . S
C746 C727 1.723 . S
C746 C745 1.396 . S
C746 C747 1.394 . S
C747 C743 1.397 . S
C747 C746 1.394 . S
C747 C757 1.723 . S
C748 C745 1.453 . S
C748 H772 0.982 . S
C748 H773 0.979 . S
C748 H774 0.977 . S
C749 C745 1.684 . S
C749 H775 0.979 . S
C749 H776 0.980 . S
C749 H777 0.983 . S
C750 H726 0.948 . S
C750 C751 1.391 . S
C750 C755 1.391 . S
C751 C750 1.391 . S
C751 C752 1.391 . S
C752 H729 0.947 . S
C752 C751 1.391 . S
C752 C753 1.392 . S
C753 H730 0.948 . S
C753 C752 1.392 . S
C753 C754 1.419 . S
C754 C753 1.419 . S
C754 C755 1.391 . S
C754 C758 1.397 . S
C755 C750 1.391 . S
C755 C754 1.391 . S
C755 C756 1.399 . S
C756 C755 1.399 . S
C756 C757 1.396 . S
C756 C759 1.453 . S
C756 C760 1.684 . S
C757 C747 1.723 . S
C757 C756 1.396 . S
C757 C758 1.394 . S
C758 C728 1.723 . S
C758 C754 1.397 . S
C758 C757 1.394 . S
C759 H731 0.982 . S
C759 H735 0.979 . S
C759 H736 0.977 . S
C759 C756 1.453 . S
C760 H732 0.979 . S
C760 H733 0.980 . S
C760 H734 0.983 . S
C760 C756 1.684 . S
H761 C779 0.948 . S
H762 C720 0.948 . S
H763 C738 0.979 . S
H764 C738 0.980 . S
H765 C738 0.983 . S
H766 C737 0.982 . S
H767 C737 0.979 . S
H768 C737 0.977 . S
H769 C739 0.948 . S
H770 C741 0.947 . S
H771 C742 0.948 . S
H772 C748 0.982 . S
H773 C748 0.979 . S
H774 C748 0.977 . S
H775 C749 0.979 . S
H776 C749 0.980 . S
H777 C749 0.983 . S
H778 C722 0.947 . S
C779 C722 1.392 . S
C779 C723 1.419 . S
C779 H761 0.948 . S
C780 C781 1.391 . S
C780 C784 1.391 . S
C780 H822 0.948 . S
C781 C780 1.391 . S
C781 C782 1.391 . S
C782 C781 1.391 . S
C782 H838 0.947 . S
C782 C839 1.392 . S
C783 C784 1.391 . S
C783 C787 1.397 . S
C783 C839 1.419 . S
C784 C780 1.391 . S
C784 C783 1.391 . S
C784 C785 1.399 . S
C785 C784 1.399 . S
C785 C788 1.396 . S
C785 C797 1.453 . S
C785 C798 1.684 . S
H786 C810 0.948 . S
C787 C783 1.397 . S
C787 C788 1.394 . S
C787 C806 1.723 . S
C788 C785 1.396 . S
C788 C787 1.394 . S
C788 C818 1.723 . S
H789 C812 0.947 . S
H790 C813 0.948 . S
H791 C819 0.982 . S
H792 C820 0.979 . S
H793 C820 0.980 . S
H794 C820 0.983 . S
H795 C819 0.979 . S
H796 C819 0.977 . S
C797 C785 1.453 . S
C797 H826 0.982 . S
C797 H827 0.979 . S
C797 H828 0.977 . S
C798 C785 1.684 . S
C798 H823 0.979 . S
C798 H824 0.980 . S
C798 H825 0.983 . S
C799 C800 1.391 . S
C799 C804 1.391 . S
C799 H829 0.948 . S
C800 C799 1.391 . S
C800 C801 1.391 . S
C801 C800 1.391 . S
C801 C802 1.392 . S
C801 H830 0.947 . S
C802 C801 1.392 . S
C802 C803 1.419 . S
C802 H831 0.948 . S
C803 C802 1.419 . S
C803 C804 1.391 . S
C803 C807 1.397 . S
C804 C799 1.391 . S
C804 C803 1.391 . S
C804 C805 1.399 . S
C805 C804 1.399 . S
C805 C806 1.396 . S
C805 C808 1.453 . S
C805 C809 1.684 . S
C806 C787 1.723 . S
C806 C805 1.396 . S
C806 C807 1.394 . S
C807 C803 1.397 . S
C807 C806 1.394 . S
C807 C817 1.723 . S
C808 C805 1.453 . S
C808 H832 0.982 . S
C808 H833 0.979 . S
C808 H834 0.977 . S
C809 C805 1.684 . S
C809 H835 0.979 . S
C809 H836 0.980 . S
C809 H837 0.983 . S
C810 H786 0.948 . S
C810 C811 1.391 . S
C810 C815 1.391 . S
C811 C810 1.391 . S
C811 C812 1.391 . S
C812 H789 0.947 . S
C812 C811 1.391 . S
C812 C813 1.392 . S
C813 H790 0.948 . S
C813 C812 1.392 . S
C813 C814 1.419 . S
C814 C813 1.419 . S
C814 C815 1.391 . S
C814 C818 1.397 . S
C815 C810 1.391 . S
C815 C814 1.391 . S
C815 C816 1.399 . S
C816 C815 1.399 . S
C816 C817 1.396 . S
C816 C819 1.453 . S
C816 C820 1.684 . S
C817 C807 1.723 . S
C817 C816 1.396 . S
C817 C818 1.394 . S
C818 C788 1.723 . S
C818 C814 1.397 . S
C818 C817 1.394 . S
C819 H791 0.982 . S
C819 H795 0.979 . S
C819 H796 0.977 . S
C819 C816 1.453 . S
C820 H792 0.979 . S
C820 H793 0.980 . S
C820 H794 0.983 . S
C820 C816 1.684 . S
H821 C839 0.948 . S
H822 C780 0.948 . S
H823 C798 0.979 . S
H824 C798 0.980 . S
H825 C798 0.983 . S
H826 C797 0.982 . S
H827 C797 0.979 . S
H828 C797 0.977 . S
H829 C799 0.948 . S
H830 C801 0.947 . S
H831 C802 0.948 . S
H832 C808 0.982 . S
H833 C808 0.979 . S
H834 C808 0.977 . S
H835 C809 0.979 . S
H836 C809 0.980 . S
H837 C809 0.983 . S
H838 C782 0.947 . S
C839 C782 1.392 . S
C839 C783 1.419 . S
C839 H821 0.948 . S
C840 C841 1.391 . S
C840 C844 1.391 . S
C840 H882 0.948 . S
C841 C840 1.391 . S
C841 C842 1.391 . S
C842 C841 1.391 . S
C842 H898 0.947 . S
C842 C899 1.392 . S
C843 C844 1.391 . S
C843 C847 1.397 . S
C843 C899 1.419 . S
C844 C840 1.391 . S
C844 C843 1.391 . S
C844 C845 1.399 . S
C845 C844 1.399 . S
C845 C848 1.396 . S
C845 C857 1.453 . S
C845 C858 1.684 . S
H846 C870 0.948 . S
C847 C843 1.397 . S
C847 C848 1.394 . S
C847 C866 1.723 . S
C848 C845 1.396 . S
C848 C847 1.394 . S
C848 C878 1.723 . S
H849 C872 0.947 . S
H850 C873 0.948 . S
H851 C879 0.982 . S
H852 C880 0.979 . S
H853 C880 0.980 . S
H854 C880 0.983 . S
H855 C879 0.979 . S
H856 C879 0.977 . S
C857 C845 1.453 . S
C857 H886 0.982 . S
C857 H887 0.979 . S
C857 H888 0.977 . S
C858 C845 1.684 . S
C858 H883 0.979 . S
C858 H884 0.980 . S
C858 H885 0.983 . S
C859 C860 1.391 . S
C859 C864 1.391 . S
C859 H889 0.948 . S
C860 C859 1.391 . S
C860 C861 1.391 . S
C861 C860 1.391 . S
C861 C862 1.392 . S
C861 H890 0.947 . S
C862 C861 1.392 . S
C862 C863 1.419 . S
C862 H891 0.948 . S
C863 C862 1.419 . S
C863 C864 1.391 . S
C863 C867 1.397 . S
C864 C859 1.391 . S
C864 C863 1.391 . S
C864 C865 1.399 . S
C865 C864 1.399 . S
C865 C866 1.396 . S
C865 C868 1.453 . S
C865 C869 1.684 . S
C866 C847 1.723 . S
C866 C865 1.396 . S
C866 C867 1.394 . S
C867 C863 1.397 . S
C867 C866 1.394 . S
C867 C877 1.723 . S
C868 C865 1.453 . S
C868 H892 0.982 . S
C868 H893 0.979 . S
C868 H894 0.977 . S
C869 C865 1.684 . S
C869 H895 0.979 . S
C869 H896 0.980 . S
C869 H897 0.983 . S
C870 H846 0.948 . S
C870 C871 1.391 . S
C870 C875 1.391 . S
C871 C870 1.391 . S
C871 C872 1.391 . S
C872 H849 0.947 . S
C872 C871 1.391 . S
C872 C873 1.392 . S
C873 H850 0.948 . S
C873 C872 1.392 . S
C873 C874 1.419 . S
C874 C873 1.419 . S
C874 C875 1.391 . S
C874 C878 1.397 . S
C875 C870 1.391 . S
C875 C874 1.391 . S
C875 C876 1.399 . S
C876 C875 1.399 . S
C876 C877 1.396 . S
C876 C879 1.453 . S
C876 C880 1.684 . S
C877 C867 1.723 . S
C877 C876 1.396 . S
C877 C878 1.394 . S
C878 C848 1.723 . S
C878 C874 1.397 . S
C878 C877 1.394 . S
C879 H851 0.982 . S
C879 H855 0.979 . S
C879 H856 0.977 . S
C879 C876 1.453 . S
C880 H852 0.979 . S
C880 H853 0.980 . S
C880 H854 0.983 . S
C880 C876 1.684 . S
H881 C899 0.948 . S
H882 C840 0.948 . S
H883 C858 0.979 . S
H884 C858 0.980 . S
H885 C858 0.983 . S
H886 C857 0.982 . S
H887 C857 0.979 . S
H888 C857 0.977 . S
H889 C859 0.948 . S
H890 C861 0.947 . S
H891 C862 0.948 . S
H892 C868 0.982 . S
H893 C868 0.979 . S
H894 C868 0.977 . S
H895 C869 0.979 . S
H896 C869 0.980 . S
H897 C869 0.983 . S
H898 C842 0.947 . S
C899 C842 1.392 . S
C899 C843 1.419 . S
C899 H881 0.948 . S
C900 C901 1.391 . S
C900 C904 1.391 . S
C900 H942 0.948 . S
C901 C900 1.391 . S
C901 C902 1.391 . S
C902 C901 1.391 . S
C902 H958 0.947 . S
C902 C959 1.392 . S
C903 C904 1.391 . S
C903 C907 1.397 . S
C903 C959 1.419 . S
C904 C900 1.391 . S
C904 C903 1.391 . S
C904 C905 1.399 . S
C905 C904 1.399 . S
C905 C908 1.396 . S
C905 C917 1.453 . S
C905 C918 1.684 . S
H906 C930 0.948 . S
C907 C903 1.397 . S
C907 C908 1.394 . S
C907 C926 1.723 . S
C908 C905 1.396 . S
C908 C907 1.394 . S
C908 C938 1.723 . S
H909 C932 0.947 . S
H910 C933 0.948 . S
H911 C939 0.982 . S
H912 C940 0.979 . S
H913 C940 0.980 . S
H914 C940 0.983 . S
H915 C939 0.979 . S
H916 C939 0.977 . S
C917 C905 1.453 . S
C917 H946 0.982 . S
C917 H947 0.979 . S
C917 H948 0.977 . S
C918 C905 1.684 . S
C918 H943 0.979 . S
C918 H944 0.980 . S
C918 H945 0.983 . S
C919 C920 1.391 . S
C919 C924 1.391 . S
C919 H949 0.948 . S
C920 C919 1.391 . S
C920 C921 1.391 . S
C921 C920 1.391 . S
C921 C922 1.392 . S
C921 H950 0.947 . S
C922 C921 1.392 . S
C922 C923 1.419 . S
C922 H951 0.948 . S
C923 C922 1.419 . S
C923 C924 1.391 . S
C923 C927 1.397 . S
C924 C919 1.391 . S
C924 C923 1.391 . S
C924 C925 1.399 . S
C925 C924 1.399 . S
C925 C926 1.396 . S
C925 C928 1.453 . S
C925 C929 1.684 . S
C926 C907 1.723 . S
C926 C925 1.396 . S
C926 C927 1.394 . S
C927 C923 1.397 . S
C927 C926 1.394 . S
C927 C937 1.723 . S
C928 C925 1.453 . S
C928 H952 0.982 . S
C928 H953 0.979 . S
C928 H954 0.977 . S
C929 C925 1.684 . S
C929 H955 0.979 . S
C929 H956 0.980 . S
C929 H957 0.983 . S
C930 H906 0.948 . S
C930 C931 1.391 . S
C930 C935 1.391 . S
C931 C930 1.391 . S
C931 C932 1.391 . S
C932 H909 0.947 . S
C932 C931 1.391 . S
C932 C933 1.392 . S
C933 H910 0.948 . S
C933 C932 1.392 . S
C933 C934 1.419 . S
C934 C933 1.419 . S
C934 C935 1.391 . S
C934 C938 1.397 . S
C935 C930 1.391 . S
C935 C934 1.391 . S
C935 C936 1.399 . S
C936 C935 1.399 . S
C936 C937 1.396 . S
C936 C939 1.453 . S
C936 C940 1.684 . S
C937 C927 1.723 . S
C937 C936 1.396 . S
C937 C938 1.394 . S
C938 C908 1.723 . S
C938 C934 1.397 . S
C938 C937 1.394 . S
C939 H911 0.982 . S
C939 H915 0.979 . S
C939 H916 0.977 . S
C939 C936 1.453 . S
C940 H912 0.979 . S
C940 H913 0.980 . S
C940 H914 0.983 . S
C940 C936 1.684 . S
H941 C959 0.948 . S
H942 C900 0.948 . S
H943 C918 0.979 . S
H944 C918 0.980 . S
H945 C918 0.983 . S
H946 C917 0.982 . S
H947 C917 0.979 . S
H948 C917 0.977 . S
H949 C919 0.948 . S
H950 C921 0.947 . S
H951 C922 0.948 . S
H952 C928 0.982 . S
H953 C928 0.979 . S
H954 C928 0.977 . S
H955 C929 0.979 . S
H956 C929 0.980 . S
H957 C929 0.983 . S
H958 C902 0.947 . S
C959 C902 1.392 . S
C959 C903 1.419 . S
C959 H941 0.948 . S
C960 C961 1.391 . S
C960 C964 1.391 . S
C960 H1002 0.948 . S
C961 C960 1.391 . S
C961 C962 1.391 . S
C962 C961 1.391 . S
C962 H1018 0.947 . S
C962 C1019 1.392 . S
C963 C964 1.391 . S
C963 C967 1.397 . S
C963 C1019 1.419 . S
C964 C960 1.391 . S
C964 C963 1.391 . S
C964 C965 1.399 . S
C965 C964 1.399 . S
C965 C968 1.396 . S
C965 C977 1.453 . S
C965 C978 1.684 . S
H966 C990 0.948 . S
C967 C963 1.397 . S
C967 C968 1.394 . S
C967 C986 1.723 . S
C968 C965 1.396 . S
C968 C967 1.394 . S
C968 C998 1.723 . S
H969 C992 0.947 . S
H970 C993 0.948 . S
H971 C999 0.982 . S
H972 C1000 0.979 . S
H973 C1000 0.980 . S
H974 C1000 0.983 . S
H975 C999 0.979 . S
H976 C999 0.977 . S
C977 C965 1.453 . S
C977 H1006 0.982 . S
C977 H1007 0.979 . S
C977 H1008 0.977 . S
C978 C965 1.684 . S
C978 H1003 0.979 . S
C978 H1004 0.980 . S
C978 H1005 0.983 . S
C979 C980 1.391 . S
C979 C984 1.391 . S
C979 H1009 0.948 . S
C980 C979 1.391 . S
C980 C981 1.391 . S
C981 C980 1.391 . S
C981 C982 1.392 . S
C981 H1010 0.947 . S
C982 C981 1.392 . S
C982 C983 1.419 . S
C982 H1011 0.948 . S
C983 C982 1.419 . S
C983 C984 1.391 . S
C983 C987 1.397 . S
C984 C979 1.391 . S
C984 C983 1.391 . S
C984 C985 1.399 . S
C985 C984 1.399 . S
C985 C986 1.396 . S
C985 C988 1.453 . S
C985 C989 1.684 . S
C986 C967 1.723 . S
C986 C985 1.396 . S
C986 C987 1.394 . S
C987 C983 1.397 . S
C987 C986 1.394 . S
C987 C997 1.723 . S
C988 C985 1.453 . S
C988 H1012 0.982 . S
C988 H1013 0.979 . S
C988 H1014 0.977 . S
C989 C985 1.684 . S
C989 H1015 0.979 . S
C989 H1016 0.980 . S
C989 H1017 0.983 . S
C990 H966 0.948 . S
C990 C991 1.391 . S
C990 C995 1.391 . S
C991 C990 1.391 . S
C991 C992 1.391 . S
C992 H969 0.947 . S
C992 C991 1.391 . S
C992 C993 1.392 . S
C993 H970 0.948 . S
C993 C992 1.392 . S
C993 C994 1.419 . S
C994 C993 1.419 . S
C994 C995 1.391 . S
C994 C998 1.397 . S
C995 C990 1.391 . S
C995 C994 1.391 . S
C995 C996 1.399 . S
C996 C995 1.399 . S
C996 C997 1.396 . S
C996 C999 1.453 . S
C996 C1000 1.684 . S
C997 C987 1.723 . S
C997 C996 1.396 . S
C997 C998 1.394 . S
C998 C968 1.723 . S
C998 C994 1.397 . S
C998 C997 1.394 . S
C999 H971 0.982 . S
C999 H975 0.979 . S
C999 H976 0.977 . S
C999 C996 1.453 . S
C1000 H972 0.979 . S
C1000 H973 0.980 . S
C1000 H974 0.983 . S
C1000 C996 1.684 . S
H1001 C1019 0.948 . S
H1002 C960 0.948 . S
H1003 C978 0.979 . S
H1004 C978 0.980 . S
H1005 C978 0.983 . S
H1006 C977 0.982 . S
H1007 C977 0.979 . S
H1008 C977 0.977 . S
H1009 C979 0.948 . S
H1010 C981 0.947 . S
H1011 C982 0.948 . S
H1012 C988 0.982 . S
H1013 C988 0.979 . S
H1014 C988 0.977 . S
H1015 C989 0.979 . S
H1016 C989 0.980 . S
H1017 C989 0.983 . S
H1018 C962 0.947 . S
C1019 C962 1.392 . S
C1019 C963 1.419 . S
C1019 H1001 0.948 . S
C1020 C1021 1.391 . S
C1020 C1024 1.391 . S
C1020 H1062 0.948 . S
C1021 C1020 1.391 . S
C1021 C1022 1.391 . S
C1022 C1021 1.391 . S
C1022 H1078 0.947 . S
C1022 C1079 1.392 . S
C1023 C1024 1.391 . S
C1023 C1027 1.397 . S
C1023 C1079 1.419 . S
C1024 C1020 1.391 . S
C1024 C1023 1.391 . S
C1024 C1025 1.399 . S
C1025 C1024 1.399 . S
C1025 C1028 1.396 . S
C1025 C1037 1.453 . S
C1025 C1038 1.684 . S
H1026 C1050 0.948 . S
C1027 C1023 1.397 . S
C1027 C1028 1.394 . S
C1027 C1046 1.723 . S
C1028 C1025 1.396 . S
C1028 C1027 1.394 . S
C1028 C1058 1.723 . S
H1029 C1052 0.947 . S
H1030 C1053 0.948 . S
H1031 C1059 0.982 . S
H1032 C1060 0.979 . S
H1033 C1060 0.980 . S
H1034 C1060 0.983 . S
H1035 C1059 0.979 . S
H1036 C1059 0.977 . S
C1037 C1025 1.453 . S
C1037 H1066 0.982 . S
C1037 H1067 0.979 . S
C1037 H1068 0.977 . S
C1038 C1025 1.684 . S
C1038 H1063 0.979 . S
C1038 H1064 0.980 . S
C1038 H1065 0.983 . S
C1039 C1040 1.391 . S
C1039 C1044 1.391 . S
C1039 H1069 0.948 . S
C1040 C1039 1.391 . S
C1040 C1041 1.391 . S
C1041 C1040 1.391 . S
C1041 C1042 1.392 . S
C1041 H1070 0.947 . S
C1042 C1041 1.392 . S
C1042 C1043 1.419 . S
C1042 H1071 0.948 . S
C1043 C1042 1.419 . S
C1043 C1044 1.391 . S
C1043 C1047 1.397 . S
C1044 C1039 1.391 . S
C1044 C1043 1.391 . S
C1044 C1045 1.399 . S
C1045 C1044 1.399 . S
C1045 C1046 1.396 . S
C1045 C1048 1.453 . S
C1045 C1049 1.684 . S
C1046 C1027 1.723 . S
C1046 C1045 1.396 . S
C1046 C1047 1.394 . S
C1047 C1043 1.397 . S
C1047 C1046 1.394 . S
C1047 C1057 1.723 . S
C1048 C1045 1.453 . S
C1048 H1072 0.982 . S
C1048 H1073 0.979 . S
C1048 H1074 0.977 . S
C1049 C1045 1.684 . S
C1049 H1075 0.979 . S
C1049 H1076 0.980 . S
C1049 H1077 0.983 . S
C1050 H1026 0.948 . S
C1050 C1051 1.391 . S
C1050 C1055 1.391 . S
C1051 C1050 1.391 . S
C1051 C1052 1.391 . S
C1052 H1029 0.947 . S
C1052 C1051 1.391 . S
C1052 C1053 1.392 . S
C1053 H1030 0.948 . S
C1053 C1052 1.392 . S
C1053 C1054 1.419 . S
C1054 C1053 1.419 . S
C1054 C1055 1.391 . S
C1054 C1058 1.397 . S
C1055 C1050 1.391 . S
C1055 C1054 1.391 . S
C1055 C1056 1.399 . S
C1056 C1055 1.399 . S
C1056 C1057 1.396 . S
C1056 C1059 1.453 . S
C1056 C1060 1.684 . S
C1057 C1047 1.723 . S
C1057 C1056 1.396 . S
C1057 C1058 1.394 . S
C1058 C1028 1.723 . S
C1058 C1054 1.397 . S
C1058 C1057 1.394 . S
C1059 H1031 0.982 . S
C1059 H1035 0.979 . S
C1059 H1036 0.977 . S
C1059 C1056 1.453 . S
C1060 H1032 0.979 . S
C1060 H1033 0.980 . S
C1060 H1034 0.983 . S
C1060 C1056 1.684 . S
H1061 C1079 0.948 . S
H1062 C1020 0.948 . S
H1063 C1038 0.979 . S
H1064 C1038 0.980 . S
H1065 C1038 0.983 . S
H1066 C1037 0.982 . S
H1067 C1037 0.979 . S
H1068 C1037 0.977 . S
H1069 C1039 0.948 . S
H1070 C1041 0.947 . S
H1071 C1042 0.948 . S
H1072 C1048 0.982 . S
H1073 C1048 0.979 . S
H1074 C1048 0.977 . S
H1075 C1049 0.979 . S
H1076 C1049 0.980 . S
H1077 C1049 0.983 . S
H1078 C1022 0.947 . S
C1079 C1022 1.392 . S
C1079 C1023 1.419 . S
C1079 H1061 0.948 . S
Gd1080 N1111 2.661 . S
Gd1080 N1117 2.601 . S
Gd1080 O1124 2.545 . S
Gd1080 O1125 2.606 1_545 S
Gd1080 O1127 2.429 . S
Gd1080 O1128 2.545 1_545 S
Gd1080 O1129 2.412 . S
Gd1080 O1131 2.362 1_554 S
Gd1080 O1132 2.324 1_545 S
Gd1080 C1139 2.828 . S
Gd1081 N1090 2.661 . S
Gd1081 N1094 2.601 . S
Gd1081 O1125 2.362 1_556 S
Gd1081 O1126 2.324 1_565 S
Gd1081 O1130 2.545 . S
Gd1081 O1131 2.606 1_565 S
Gd1081 O1133 2.429 . S
Gd1081 O1134 2.545 1_565 S
Gd1081 O1135 2.412 . S
Gd1081 C1148 2.828 . S
C1082 C1085 1.417 . S
C1082 C1087 1.431 . S
C1082 C1088 1.412 . S
C1083 C1086 1.437 . S
C1083 C1087 1.317 . S
C1083 H1102 0.929 . S
C1084 C1085 1.426 . S
C1084 C1086 1.413 . S
C1084 N1094 1.359 . S
C1085 C1082 1.417 . S
C1085 C1084 1.426 . S
C1085 N1090 1.350 . S
C1086 C1083 1.437 . S
C1086 C1084 1.413 . S
C1086 C1096 1.391 . S
C1087 C1082 1.431 . S
C1087 C1083 1.317 . S
C1087 H1098 0.930 . S
C1088 C1082 1.412 . S
C1088 C1089 1.355 . S
C1088 H1100 0.930 . S
C1089 C1088 1.355 . S
C1089 C1091 1.402 . S
C1089 H1101 0.930 . S
N1090 Gd1081 2.661 . S
N1090 C1085 1.350 . S
N1090 C1091 1.307 . S
C1091 C1089 1.402 . S
C1091 N1090 1.307 . S
C1091 H1092 0.930 . S
H1092 C1091 0.930 . S
C1093 N1094 1.334 . S
C1093 C1095 1.394 . S
C1093 H1097 0.930 . S
N1094 Gd1081 2.601 . S
N1094 C1084 1.359 . S
N1094 C1093 1.334 . S
C1095 C1093 1.394 . S
C1095 C1096 1.359 . S
C1095 H1107 0.930 . S
C1096 C1086 1.391 . S
C1096 C1095 1.359 . S
C1096 H1108 0.929 . S
H1097 C1093 0.930 . S
H1098 C1087 0.930 . S
H1099 C1116 0.930 . S
H1100 C1088 0.930 . S
H1101 C1089 0.930 . S
H1102 C1083 0.929 . S
H1103 C1121 0.930 . S
H1104 C1112 0.930 . S
H1105 C1113 0.930 . S
H1106 C1137 0.929 . S
H1107 C1095 0.930 . S
H1108 C1096 0.929 . S
H1109 C1138 0.930 . S
H1110 C1119 0.930 . S
N1111 Gd1080 2.661 . S
N1111 C1115 1.350 . S
N1111 C1116 1.307 . S
C1112 H1104 0.930 . S
C1112 C1113 1.355 . S
C1112 C1114 1.412 . S
C1113 H1105 0.930 . S
C1113 C1112 1.355 . S
C1113 C1116 1.402 . S
C1114 C1112 1.412 . S
C1114 C1115 1.417 . S
C1114 C1138 1.431 . S
C1115 N1111 1.350 . S
C1115 C1114 1.417 . S
C1115 C1118 1.426 . S
C1116 H1099 0.930 . S
C1116 N1111 1.307 . S
C1116 C1113 1.402 . S
N1117 Gd1080 2.601 . S
N1117 C1118 1.359 . S
N1117 C1121 1.334 . S
C1118 C1115 1.426 . S
C1118 N1117 1.359 . S
C1118 C1122 1.413 . S
C1119 H1110 0.930 . S
C1119 C1120 1.359 . S
C1119 C1121 1.394 . S
C1120 C1119 1.359 . S
C1120 C1122 1.391 . S
C1120 H1123 0.929 . S
C1121 H1103 0.930 . S
C1121 N1117 1.334 . S
C1121 C1119 1.394 . S
C1122 C1118 1.413 . S
C1122 C1120 1.391 . S
C1122 C1137 1.437 . S
H1123 C1120 0.929 . S
O1124 Gd1080 2.545 . S
O1124 C1139 1.258 . S
O1125 Gd1080 2.606 1_565 S
O1125 Gd1081 2.362 1_554 S
O1125 C1136 1.284 . S
O1126 Gd1081 2.324 1_545 S
O1126 C1146 1.254 . S
O1127 Gd1080 2.429 . S
O1127 C1146 1.268 1_554 S
O1128 Gd1080 2.545 1_565 S
O1128 C1136 1.250 . S
O1129 Gd1080 2.412 . S
O1129 C1139 1.252 . S
O1130 Gd1081 2.545 . S
O1130 C1148 1.258 . S
O1131 Gd1080 2.362 1_556 S
O1131 Gd1081 2.606 1_545 S
O1131 C1147 1.284 . S
O1132 Gd1080 2.324 1_565 S
O1132 C1155 1.254 . S
O1133 Gd1081 2.429 . S
O1133 C1155 1.268 1_556 S
O1134 Gd1081 2.545 1_545 S
O1134 C1147 1.250 . S
O1135 Gd1081 2.412 . S
O1135 C1148 1.252 . S
C1136 O1125 1.284 . S
C1136 O1128 1.250 . S
C1137 H1106 0.929 . S
C1137 C1122 1.437 . S
C1137 C1138 1.317 . S
C1138 H1109 0.930 . S
C1138 C1114 1.431 . S
C1138 C1137 1.317 . S
C1139 Gd1080 2.828 . S
C1139 O1124 1.258 . S
C1139 O1129 1.252 . S
C1139 C1140 1.497 . S
C1140 C1139 1.497 . S
C1140 C1141 1.395 . S
C1140 C1142 1.380 1_545 S
C1141 C1140 1.395 . S
C1141 C1144 1.398 . S
C1141 H1156 0.930 . S
C1142 C1140 1.380 1_565 S
C1142 C1143 1.391 . S
C1142 H1157 0.930 . S
C1143 C1142 1.391 . S
C1143 C1145 1.387 1_565 S
C1144 C1141 1.398 . S
C1144 C1145 1.380 . S
C1144 H1158 0.930 . S
C1145 C1143 1.387 1_545 S
C1145 C1144 1.380 . S
C1145 H1159 0.930 . S
C1146 O1126 1.254 . S
C1146 O1127 1.268 1_556 S
C1147 O1131 1.284 . S
C1147 O1134 1.250 . S
C1148 Gd1081 2.828 . S
C1148 O1130 1.258 . S
C1148 O1135 1.252 . S
C1148 C1149 1.497 . S
C1149 C1148 1.497 . S
C1149 C1150 1.395 . S
C1149 C1151 1.380 1_565 S
C1150 C1149 1.395 . S
C1150 C1153 1.398 . S
C1150 H1160 0.930 . S
C1151 C1149 1.380 1_545 S
C1151 C1152 1.391 . S
C1151 H1161 0.930 . S
C1152 C1151 1.391 . S
C1152 C1154 1.387 1_545 S
C1153 C1150 1.398 . S
C1153 C1154 1.380 . S
C1153 H1162 0.930 . S
C1154 C1152 1.387 1_565 S
C1154 C1153 1.380 . S
C1154 H1163 0.930 . S
C1155 O1132 1.254 . S
C1155 O1133 1.268 1_554 S
H1156 C1141 0.930 . S
H1157 C1142 0.930 . S
H1158 C1144 0.930 . S
H1159 C1145 0.930 . S
H1160 C1150 0.930 . S
H1161 C1151 0.930 . S
H1162 C1153 0.930 . S
H1163 C1154 0.930 . S
Gd1164 N1195 2.661 . S
Gd1164 N1201 2.601 . S
Gd1164 O1208 2.545 . S
Gd1164 O1209 2.606 1_655 S
Gd1164 O1211 2.429 . S
Gd1164 O1212 2.545 1_655 S
Gd1164 O1213 2.412 . S
Gd1164 O1215 2.362 1_554 S
Gd1164 O1216 2.324 1_655 S
Gd1164 C1223 2.828 . S
Gd1165 N1174 2.661 . S
Gd1165 N1178 2.601 . S
Gd1165 O1209 2.362 1_556 S
Gd1165 O1210 2.324 1_455 S
Gd1165 O1214 2.545 . S
Gd1165 O1215 2.606 1_455 S
Gd1165 O1217 2.429 . S
Gd1165 O1218 2.545 1_455 S
Gd1165 O1219 2.412 . S
Gd1165 C1232 2.828 . S
C1166 C1169 1.417 . S
C1166 C1171 1.431 . S
C1166 C1172 1.412 . S
C1167 C1170 1.437 . S
C1167 C1171 1.317 . S
C1167 H1186 0.929 . S
C1168 C1169 1.426 . S
C1168 C1170 1.413 . S
C1168 N1178 1.359 . S
C1169 C1166 1.417 . S
C1169 C1168 1.426 . S
C1169 N1174 1.350 . S
C1170 C1167 1.437 . S
C1170 C1168 1.413 . S
C1170 C1180 1.391 . S
C1171 C1166 1.431 . S
C1171 C1167 1.317 . S
C1171 H1182 0.930 . S
C1172 C1166 1.412 . S
C1172 C1173 1.355 . S
C1172 H1184 0.930 . S
C1173 C1172 1.355 . S
C1173 C1175 1.402 . S
C1173 H1185 0.930 . S
N1174 Gd1165 2.661 . S
N1174 C1169 1.350 . S
N1174 C1175 1.307 . S
C1175 C1173 1.402 . S
C1175 N1174 1.307 . S
C1175 H1176 0.930 . S
H1176 C1175 0.930 . S
C1177 N1178 1.334 . S
C1177 C1179 1.394 . S
C1177 H1181 0.930 . S
N1178 Gd1165 2.601 . S
N1178 C1168 1.359 . S
N1178 C1177 1.334 . S
C1179 C1177 1.394 . S
C1179 C1180 1.359 . S
C1179 H1191 0.930 . S
C1180 C1170 1.391 . S
C1180 C1179 1.359 . S
C1180 H1192 0.929 . S
H1181 C1177 0.930 . S
H1182 C1171 0.930 . S
H1183 C1200 0.930 . S
H1184 C1172 0.930 . S
H1185 C1173 0.930 . S
H1186 C1167 0.929 . S
H1187 C1205 0.930 . S
H1188 C1196 0.930 . S
H1189 C1197 0.930 . S
H1190 C1221 0.929 . S
H1191 C1179 0.930 . S
H1192 C1180 0.929 . S
H1193 C1222 0.930 . S
H1194 C1203 0.930 . S
N1195 Gd1164 2.661 . S
N1195 C1199 1.350 . S
N1195 C1200 1.307 . S
C1196 H1188 0.930 . S
C1196 C1197 1.355 . S
C1196 C1198 1.412 . S
C1197 H1189 0.930 . S
C1197 C1196 1.355 . S
C1197 C1200 1.402 . S
C1198 C1196 1.412 . S
C1198 C1199 1.417 . S
C1198 C1222 1.431 . S
C1199 N1195 1.350 . S
C1199 C1198 1.417 . S
C1199 C1202 1.426 . S
C1200 H1183 0.930 . S
C1200 N1195 1.307 . S
C1200 C1197 1.402 . S
N1201 Gd1164 2.601 . S
N1201 C1202 1.359 . S
N1201 C1205 1.334 . S
C1202 C1199 1.426 . S
C1202 N1201 1.359 . S
C1202 C1206 1.413 . S
C1203 H1194 0.930 . S
C1203 C1204 1.359 . S
C1203 C1205 1.394 . S
C1204 C1203 1.359 . S
C1204 C1206 1.391 . S
C1204 H1207 0.929 . S
C1205 H1187 0.930 . S
C1205 N1201 1.334 . S
C1205 C1203 1.394 . S
C1206 C1202 1.413 . S
C1206 C1204 1.391 . S
C1206 C1221 1.437 . S
H1207 C1204 0.929 . S
O1208 Gd1164 2.545 . S
O1208 C1223 1.258 . S
O1209 Gd1164 2.606 1_455 S
O1209 Gd1165 2.362 1_554 S
O1209 C1220 1.284 . S
O1210 Gd1165 2.324 1_655 S
O1210 C1230 1.254 . S
O1211 Gd1164 2.429 . S
O1211 C1230 1.268 1_554 S
O1212 Gd1164 2.545 1_455 S
O1212 C1220 1.250 . S
O1213 Gd1164 2.412 . S
O1213 C1223 1.252 . S
O1214 Gd1165 2.545 . S
O1214 C1232 1.258 . S
O1215 Gd1164 2.362 1_556 S
O1215 Gd1165 2.606 1_655 S
O1215 C1231 1.284 . S
O1216 Gd1164 2.324 1_455 S
O1216 C1239 1.254 . S
O1217 Gd1165 2.429 . S
O1217 C1239 1.268 1_556 S
O1218 Gd1165 2.545 1_655 S
O1218 C1231 1.250 . S
O1219 Gd1165 2.412 . S
O1219 C1232 1.252 . S
C1220 O1209 1.284 . S
C1220 O1212 1.250 . S
C1221 H1190 0.929 . S
C1221 C1206 1.437 . S
C1221 C1222 1.317 . S
C1222 H1193 0.930 . S
C1222 C1198 1.431 . S
C1222 C1221 1.317 . S
C1223 Gd1164 2.828 . S
C1223 O1208 1.258 . S
C1223 O1213 1.252 . S
C1223 C1224 1.497 . S
C1224 C1223 1.497 . S
C1224 C1225 1.395 . S
C1224 C1226 1.380 1_655 S
C1225 C1224 1.395 . S
C1225 C1228 1.398 . S
C1225 H1240 0.930 . S
C1226 C1224 1.380 1_455 S
C1226 C1227 1.391 . S
C1226 H1241 0.930 . S
C1227 C1226 1.391 . S
C1227 C1229 1.387 1_455 S
C1228 C1225 1.398 . S
C1228 C1229 1.380 . S
C1228 H1242 0.930 . S
C1229 C1227 1.387 1_655 S
C1229 C1228 1.380 . S
C1229 H1243 0.930 . S
C1230 O1210 1.254 . S
C1230 O1211 1.268 1_556 S
C1231 O1215 1.284 . S
C1231 O1218 1.250 . S
C1232 Gd1165 2.828 . S
C1232 O1214 1.258 . S
C1232 O1219 1.252 . S
C1232 C1233 1.497 . S
C1233 C1232 1.497 . S
C1233 C1234 1.395 . S
C1233 C1235 1.380 1_455 S
C1234 C1233 1.395 . S
C1234 C1237 1.398 . S
C1234 H1244 0.930 . S
C1235 C1233 1.380 1_655 S
C1235 C1236 1.391 . S
C1235 H1245 0.930 . S
C1236 C1235 1.391 . S
C1236 C1238 1.387 1_655 S
C1237 C1234 1.398 . S
C1237 C1238 1.380 . S
C1237 H1246 0.930 . S
C1238 C1236 1.387 1_455 S
C1238 C1237 1.380 . S
C1238 H1247 0.930 . S
C1239 O1216 1.254 . S
C1239 O1217 1.268 1_554 S
H1240 C1225 0.930 . S
H1241 C1226 0.930 . S
H1242 C1228 0.930 . S
H1243 C1229 0.930 . S
H1244 C1234 0.930 . S
H1245 C1235 0.930 . S
H1246 C1237 0.930 . S
H1247 C1238 0.930 . S
Gd1248 N1279 2.661 . S
Gd1248 N1285 2.601 . S
Gd1248 O1292 2.545 . S
Gd1248 O1293 2.606 . S
Gd1248 O1295 2.429 . S
Gd1248 O1296 2.545 . S
Gd1248 O1297 2.412 . S
Gd1248 O1299 2.362 1_556 S
Gd1248 O1300 2.324 . S
Gd1248 C1307 2.828 . S
Gd1249 N1258 2.661 . S
Gd1249 N1262 2.601 . S
Gd1249 O1293 2.362 1_554 S
Gd1249 O1294 2.324 . S
Gd1249 O1298 2.545 . S
Gd1249 O1299 2.606 . S
Gd1249 O1301 2.429 . S
Gd1249 O1302 2.545 . S
Gd1249 O1303 2.412 . S
Gd1249 C1316 2.828 . S
C1250 C1253 1.417 . S
C1250 C1255 1.431 . S
C1250 C1256 1.412 . S
C1251 C1254 1.437 . S
C1251 C1255 1.317 . S
C1251 H1270 0.929 . S
C1252 C1253 1.426 . S
C1252 C1254 1.413 . S
C1252 N1262 1.359 . S
C1253 C1250 1.417 . S
C1253 C1252 1.426 . S
C1253 N1258 1.350 . S
C1254 C1251 1.437 . S
C1254 C1252 1.413 . S
C1254 C1264 1.391 . S
C1255 C1250 1.431 . S
C1255 C1251 1.317 . S
C1255 H1266 0.930 . S
C1256 C1250 1.412 . S
C1256 C1257 1.355 . S
C1256 H1268 0.930 . S
C1257 C1256 1.355 . S
C1257 C1259 1.402 . S
C1257 H1269 0.930 . S
N1258 Gd1249 2.661 . S
N1258 C1253 1.350 . S
N1258 C1259 1.307 . S
C1259 C1257 1.402 . S
C1259 N1258 1.307 . S
C1259 H1260 0.930 . S
H1260 C1259 0.930 . S
C1261 N1262 1.334 . S
C1261 C1263 1.394 . S
C1261 H1265 0.930 . S
N1262 Gd1249 2.601 . S
N1262 C1252 1.359 . S
N1262 C1261 1.334 . S
C1263 C1261 1.394 . S
C1263 C1264 1.359 . S
C1263 H1275 0.930 . S
C1264 C1254 1.391 . S
C1264 C1263 1.359 . S
C1264 H1276 0.929 . S
H1265 C1261 0.930 . S
H1266 C1255 0.930 . S
H1267 C1284 0.930 . S
H1268 C1256 0.930 . S
H1269 C1257 0.930 . S
H1270 C1251 0.929 . S
H1271 C1289 0.930 . S
H1272 C1280 0.930 . S
H1273 C1281 0.930 . S
H1274 C1305 0.929 . S
H1275 C1263 0.930 . S
H1276 C1264 0.929 . S
H1277 C1306 0.930 . S
H1278 C1287 0.930 . S
N1279 Gd1248 2.661 . S
N1279 C1283 1.350 . S
N1279 C1284 1.307 . S
C1280 H1272 0.930 . S
C1280 C1281 1.355 . S
C1280 C1282 1.412 . S
C1281 H1273 0.930 . S
C1281 C1280 1.355 . S
C1281 C1284 1.402 . S
C1282 C1280 1.412 . S
C1282 C1283 1.417 . S
C1282 C1306 1.431 . S
C1283 N1279 1.350 . S
C1283 C1282 1.417 . S
C1283 C1286 1.426 . S
C1284 H1267 0.930 . S
C1284 N1279 1.307 . S
C1284 C1281 1.402 . S
N1285 Gd1248 2.601 . S
N1285 C1286 1.359 . S
N1285 C1289 1.334 . S
C1286 C1283 1.426 . S
C1286 N1285 1.359 . S
C1286 C1290 1.413 . S
C1287 H1278 0.930 . S
C1287 C1288 1.359 . S
C1287 C1289 1.394 . S
C1288 C1287 1.359 . S
C1288 C1290 1.391 . S
C1288 H1291 0.929 . S
C1289 H1271 0.930 . S
C1289 N1285 1.334 . S
C1289 C1287 1.394 . S
C1290 C1286 1.413 . S
C1290 C1288 1.391 . S
C1290 C1305 1.437 . S
H1291 C1288 0.929 . S
O1292 Gd1248 2.545 . S
O1292 C1307 1.258 . S
O1293 Gd1248 2.606 . S
O1293 Gd1249 2.362 1_556 S
O1293 C1304 1.284 . S
O1294 Gd1249 2.324 . S
O1294 C1314 1.254 . S
O1295 Gd1248 2.429 . S
O1295 C1314 1.268 1_556 S
O1296 Gd1248 2.545 . S
O1296 C1304 1.250 . S
O1297 Gd1248 2.412 . S
O1297 C1307 1.252 . S
O1298 Gd1249 2.545 . S
O1298 C1316 1.258 . S
O1299 Gd1248 2.362 1_554 S
O1299 Gd1249 2.606 . S
O1299 C1315 1.284 . S
O1300 Gd1248 2.324 . S
O1300 C1323 1.254 . S
O1301 Gd1249 2.429 . S
O1301 C1323 1.268 1_554 S
O1302 Gd1249 2.545 . S
O1302 C1315 1.250 . S
O1303 Gd1249 2.412 . S
O1303 C1316 1.252 . S
C1304 O1293 1.284 . S
C1304 O1296 1.250 . S
C1305 H1274 0.929 . S
C1305 C1290 1.437 . S
C1305 C1306 1.317 . S
C1306 H1277 0.930 . S
C1306 C1282 1.431 . S
C1306 C1305 1.317 . S
C1307 Gd1248 2.828 . S
C1307 O1292 1.258 . S
C1307 O1297 1.252 . S
C1307 C1308 1.497 . S
C1308 C1307 1.497 . S
C1308 C1309 1.395 . S
C1308 C1310 1.380 . S
C1309 C1308 1.395 . S
C1309 C1312 1.398 . S
C1309 H1324 0.930 . S
C1310 C1308 1.380 . S
C1310 C1311 1.391 . S
C1310 H1325 0.930 . S
C1311 C1310 1.391 . S
C1311 C1313 1.387 . S
C1312 C1309 1.398 . S
C1312 C1313 1.380 . S
C1312 H1326 0.930 . S
C1313 C1311 1.387 . S
C1313 C1312 1.380 . S
C1313 H1327 0.930 . S
C1314 O1294 1.254 . S
C1314 O1295 1.268 1_554 S
C1315 O1299 1.284 . S
C1315 O1302 1.250 . S
C1316 Gd1249 2.828 . S
C1316 O1298 1.258 . S
C1316 O1303 1.252 . S
C1316 C1317 1.497 . S
C1317 C1316 1.497 . S
C1317 C1318 1.395 . S
C1317 C1319 1.380 . S
C1318 C1317 1.395 . S
C1318 C1321 1.398 . S
C1318 H1328 0.930 . S
C1319 C1317 1.380 . S
C1319 C1320 1.391 . S
C1319 H1329 0.930 . S
C1320 C1319 1.391 . S
C1320 C1322 1.387 . S
C1321 C1318 1.398 . S
C1321 C1322 1.380 . S
C1321 H1330 0.930 . S
C1322 C1320 1.387 . S
C1322 C1321 1.380 . S
C1322 H1331 0.930 . S
C1323 O1300 1.254 . S
C1323 O1301 1.268 1_556 S
H1324 C1309 0.930 . S
H1325 C1310 0.930 . S
H1326 C1312 0.930 . S
H1327 C1313 0.930 . S
H1328 C1318 0.930 . S
H1329 C1319 0.930 . S
H1330 C1321 0.930 . S
H1331 C1322 0.930 . S
Gd1332 N1363 2.661 . S
Gd1332 N1369 2.601 . S
Gd1332 O1376 2.545 . S
Gd1332 O1377 2.606 . S
Gd1332 O1379 2.429 . S
Gd1332 O1380 2.545 . S
Gd1332 O1381 2.412 . S
Gd1332 O1383 2.362 . S
Gd1332 O1384 2.324 . S
Gd1332 C1391 2.828 . S
Gd1333 N1342 2.661 . S
Gd1333 N1346 2.601 . S
Gd1333 O1377 2.362 . S
Gd1333 O1378 2.324 . S
Gd1333 O1382 2.545 . S
Gd1333 O1383 2.606 . S
Gd1333 O1385 2.429 . S
Gd1333 O1386 2.545 . S
Gd1333 O1387 2.412 . S
Gd1333 C1400 2.828 . S
C1334 C1337 1.417 . S
C1334 C1339 1.431 . S
C1334 C1340 1.412 . S
C1335 C1338 1.437 . S
C1335 C1339 1.317 . S
C1335 H1354 0.929 . S
C1336 C1337 1.426 . S
C1336 C1338 1.413 . S
C1336 N1346 1.359 . S
C1337 C1334 1.417 . S
C1337 C1336 1.426 . S
C1337 N1342 1.350 . S
C1338 C1335 1.437 . S
C1338 C1336 1.413 . S
C1338 C1348 1.391 . S
C1339 C1334 1.431 . S
C1339 C1335 1.317 . S
C1339 H1350 0.930 . S
C1340 C1334 1.412 . S
C1340 C1341 1.355 . S
C1340 H1352 0.930 . S
C1341 C1340 1.355 . S
C1341 C1343 1.402 . S
C1341 H1353 0.930 . S
N1342 Gd1333 2.661 . S
N1342 C1337 1.350 . S
N1342 C1343 1.307 . S
C1343 C1341 1.402 . S
C1343 N1342 1.307 . S
C1343 H1344 0.930 . S
H1344 C1343 0.930 . S
C1345 N1346 1.334 . S
C1345 C1347 1.394 . S
C1345 H1349 0.930 . S
N1346 Gd1333 2.601 . S
N1346 C1336 1.359 . S
N1346 C1345 1.334 . S
C1347 C1345 1.394 . S
C1347 C1348 1.359 . S
C1347 H1359 0.930 . S
C1348 C1338 1.391 . S
C1348 C1347 1.359 . S
C1348 H1360 0.929 . S
H1349 C1345 0.930 . S
H1350 C1339 0.930 . S
H1351 C1368 0.930 . S
H1352 C1340 0.930 . S
H1353 C1341 0.930 . S
H1354 C1335 0.929 . S
H1355 C1373 0.930 . S
H1356 C1364 0.930 . S
H1357 C1365 0.930 . S
H1358 C1389 0.929 . S
H1359 C1347 0.930 . S
H1360 C1348 0.929 . S
H1361 C1390 0.930 . S
H1362 C1371 0.930 . S
N1363 Gd1332 2.661 . S
N1363 C1367 1.350 . S
N1363 C1368 1.307 . S
C1364 H1356 0.930 . S
C1364 C1365 1.355 . S
C1364 C1366 1.412 . S
C1365 H1357 0.930 . S
C1365 C1364 1.355 . S
C1365 C1368 1.402 . S
C1366 C1364 1.412 . S
C1366 C1367 1.417 . S
C1366 C1390 1.431 . S
C1367 N1363 1.350 . S
C1367 C1366 1.417 . S
C1367 C1370 1.426 . S
C1368 H1351 0.930 . S
C1368 N1363 1.307 . S
C1368 C1365 1.402 . S
N1369 Gd1332 2.601 . S
N1369 C1370 1.359 . S
N1369 C1373 1.334 . S
C1370 C1367 1.426 . S
C1370 N1369 1.359 . S
C1370 C1374 1.413 . S
C1371 H1362 0.930 . S
C1371 C1372 1.359 . S
C1371 C1373 1.394 . S
C1372 C1371 1.359 . S
C1372 C1374 1.391 . S
C1372 H1375 0.929 . S
C1373 H1355 0.930 . S
C1373 N1369 1.334 . S
C1373 C1371 1.394 . S
C1374 C1370 1.413 . S
C1374 C1372 1.391 . S
C1374 C1389 1.437 . S
H1375 C1372 0.929 . S
O1376 Gd1332 2.545 . S
O1376 C1391 1.258 . S
O1377 Gd1332 2.606 . S
O1377 Gd1333 2.362 . S
O1377 C1388 1.284 . S
O1378 Gd1333 2.324 . S
O1378 C1398 1.254 . S
O1379 Gd1332 2.429 . S
O1379 C1398 1.268 . S
O1380 Gd1332 2.545 . S
O1380 C1388 1.250 . S
O1381 Gd1332 2.412 . S
O1381 C1391 1.252 . S
O1382 Gd1333 2.545 . S
O1382 C1400 1.258 . S
O1383 Gd1332 2.362 . S
O1383 Gd1333 2.606 . S
O1383 C1399 1.284 . S
O1384 Gd1332 2.324 . S
O1384 C1407 1.254 . S
O1385 Gd1333 2.429 . S
O1385 C1407 1.268 . S
O1386 Gd1333 2.545 . S
O1386 C1399 1.250 . S
O1387 Gd1333 2.412 . S
O1387 C1400 1.252 . S
C1388 O1377 1.284 . S
C1388 O1380 1.250 . S
C1389 H1358 0.929 . S
C1389 C1374 1.437 . S
C1389 C1390 1.317 . S
C1390 H1361 0.930 . S
C1390 C1366 1.431 . S
C1390 C1389 1.317 . S
C1391 Gd1332 2.828 . S
C1391 O1376 1.258 . S
C1391 O1381 1.252 . S
C1391 C1392 1.497 . S
C1392 C1391 1.497 . S
C1392 C1393 1.395 . S
C1392 C1394 1.380 . S
C1393 C1392 1.395 . S
C1393 C1396 1.398 . S
C1393 H1408 0.930 . S
C1394 C1392 1.380 . S
C1394 C1395 1.391 . S
C1394 H1409 0.930 . S
C1395 C1394 1.391 . S
C1395 C1397 1.387 . S
C1396 C1393 1.398 . S
C1396 C1397 1.380 . S
C1396 H1410 0.930 . S
C1397 C1395 1.387 . S
C1397 C1396 1.380 . S
C1397 H1411 0.930 . S
C1398 O1378 1.254 . S
C1398 O1379 1.268 . S
C1399 O1383 1.284 . S
C1399 O1386 1.250 . S
C1400 Gd1333 2.828 . S
C1400 O1382 1.258 . S
C1400 O1387 1.252 . S
C1400 C1401 1.497 . S
C1401 C1400 1.497 . S
C1401 C1402 1.395 . S
C1401 C1403 1.380 . S
C1402 C1401 1.395 . S
C1402 C1405 1.398 . S
C1402 H1412 0.930 . S
C1403 C1401 1.380 . S
C1403 C1404 1.391 . S
C1403 H1413 0.930 . S
C1404 C1403 1.391 . S
C1404 C1406 1.387 . S
C1405 C1402 1.398 . S
C1405 C1406 1.380 . S
C1405 H1414 0.930 . S
C1406 C1404 1.387 . S
C1406 C1405 1.380 . S
C1406 H1415 0.930 . S
C1407 O1384 1.254 . S
C1407 O1385 1.268 . S
H1408 C1393 0.930 . S
H1409 C1394 0.930 . S
H1410 C1396 0.930 . S
H1411 C1397 0.930 . S
H1412 C1402 0.930 . S
H1413 C1403 0.930 . S
H1414 C1405 0.930 . S
H1415 C1406 0.930 . S
Gd1416 N1447 2.661 . S
Gd1416 N1453 2.601 . S
Gd1416 O1460 2.545 . S
Gd1416 O1461 2.606 . S
Gd1416 O1463 2.429 . S
Gd1416 O1464 2.545 . S
Gd1416 O1465 2.412 . S
Gd1416 O1467 2.362 . S
Gd1416 O1468 2.324 . S
Gd1416 C1475 2.828 . S
Gd1417 N1426 2.661 . S
Gd1417 N1430 2.601 . S
Gd1417 O1461 2.362 . S
Gd1417 O1462 2.324 . S
Gd1417 O1466 2.545 . S
Gd1417 O1467 2.606 . S
Gd1417 O1469 2.429 . S
Gd1417 O1470 2.545 . S
Gd1417 O1471 2.412 . S
Gd1417 C1484 2.828 . S
C1418 C1421 1.417 . S
C1418 C1423 1.431 . S
C1418 C1424 1.412 . S
C1419 C1422 1.437 . S
C1419 C1423 1.317 . S
C1419 H1438 0.929 . S
C1420 C1421 1.426 . S
C1420 C1422 1.413 . S
C1420 N1430 1.359 . S
C1421 C1418 1.417 . S
C1421 C1420 1.426 . S
C1421 N1426 1.350 . S
C1422 C1419 1.437 . S
C1422 C1420 1.413 . S
C1422 C1432 1.391 . S
C1423 C1418 1.431 . S
C1423 C1419 1.317 . S
C1423 H1434 0.930 . S
C1424 C1418 1.412 . S
C1424 C1425 1.355 . S
C1424 H1436 0.930 . S
C1425 C1424 1.355 . S
C1425 C1427 1.402 . S
C1425 H1437 0.930 . S
N1426 Gd1417 2.661 . S
N1426 C1421 1.350 . S
N1426 C1427 1.307 . S
C1427 C1425 1.402 . S
C1427 N1426 1.307 . S
C1427 H1428 0.930 . S
H1428 C1427 0.930 . S
C1429 N1430 1.334 . S
C1429 C1431 1.394 . S
C1429 H1433 0.930 . S
N1430 Gd1417 2.601 . S
N1430 C1420 1.359 . S
N1430 C1429 1.334 . S
C1431 C1429 1.394 . S
C1431 C1432 1.359 . S
C1431 H1443 0.930 . S
C1432 C1422 1.391 . S
C1432 C1431 1.359 . S
C1432 H1444 0.929 . S
H1433 C1429 0.930 . S
H1434 C1423 0.930 . S
H1435 C1452 0.930 . S
H1436 C1424 0.930 . S
H1437 C1425 0.930 . S
H1438 C1419 0.929 . S
H1439 C1457 0.930 . S
H1440 C1448 0.930 . S
H1441 C1449 0.930 . S
H1442 C1473 0.929 . S
H1443 C1431 0.930 . S
H1444 C1432 0.929 . S
H1445 C1474 0.930 . S
H1446 C1455 0.930 . S
N1447 Gd1416 2.661 . S
N1447 C1451 1.350 . S
N1447 C1452 1.307 . S
C1448 H1440 0.930 . S
C1448 C1449 1.355 . S
C1448 C1450 1.412 . S
C1449 H1441 0.930 . S
C1449 C1448 1.355 . S
C1449 C1452 1.402 . S
C1450 C1448 1.412 . S
C1450 C1451 1.417 . S
C1450 C1474 1.431 . S
C1451 N1447 1.350 . S
C1451 C1450 1.417 . S
C1451 C1454 1.426 . S
C1452 H1435 0.930 . S
C1452 N1447 1.307 . S
C1452 C1449 1.402 . S
N1453 Gd1416 2.601 . S
N1453 C1454 1.359 . S
N1453 C1457 1.334 . S
C1454 C1451 1.426 . S
C1454 N1453 1.359 . S
C1454 C1458 1.413 . S
C1455 H1446 0.930 . S
C1455 C1456 1.359 . S
C1455 C1457 1.394 . S
C1456 C1455 1.359 . S
C1456 C1458 1.391 . S
C1456 H1459 0.929 . S
C1457 H1439 0.930 . S
C1457 N1453 1.334 . S
C1457 C1455 1.394 . S
C1458 C1454 1.413 . S
C1458 C1456 1.391 . S
C1458 C1473 1.437 . S
H1459 C1456 0.929 . S
O1460 Gd1416 2.545 . S
O1460 C1475 1.258 . S
O1461 Gd1416 2.606 . S
O1461 Gd1417 2.362 . S
O1461 C1472 1.284 . S
O1462 Gd1417 2.324 . S
O1462 C1482 1.254 . S
O1463 Gd1416 2.429 . S
O1463 C1482 1.268 . S
O1464 Gd1416 2.545 . S
O1464 C1472 1.250 . S
O1465 Gd1416 2.412 . S
O1465 C1475 1.252 . S
O1466 Gd1417 2.545 . S
O1466 C1484 1.258 . S
O1467 Gd1416 2.362 . S
O1467 Gd1417 2.606 . S
O1467 C1483 1.284 . S
O1468 Gd1416 2.324 . S
O1468 C1491 1.254 . S
O1469 Gd1417 2.429 . S
O1469 C1491 1.268 . S
O1470 Gd1417 2.545 . S
O1470 C1483 1.250 . S
O1471 Gd1417 2.412 . S
O1471 C1484 1.252 . S
C1472 O1461 1.284 . S
C1472 O1464 1.250 . S
C1473 H1442 0.929 . S
C1473 C1458 1.437 . S
C1473 C1474 1.317 . S
C1474 H1445 0.930 . S
C1474 C1450 1.431 . S
C1474 C1473 1.317 . S
C1475 Gd1416 2.828 . S
C1475 O1460 1.258 . S
C1475 O1465 1.252 . S
C1475 C1476 1.497 . S
C1476 C1475 1.497 . S
C1476 C1477 1.395 . S
C1476 C1478 1.380 . S
C1477 C1476 1.395 . S
C1477 C1480 1.398 . S
C1477 H1492 0.930 . S
C1478 C1476 1.380 . S
C1478 C1479 1.391 . S
C1478 H1493 0.930 . S
C1479 C1478 1.391 . S
C1479 C1481 1.387 . S
C1480 C1477 1.398 . S
C1480 C1481 1.380 . S
C1480 H1494 0.930 . S
C1481 C1479 1.387 . S
C1481 C1480 1.380 . S
C1481 H1495 0.930 . S
C1482 O1462 1.254 . S
C1482 O1463 1.268 . S
C1483 O1467 1.284 . S
C1483 O1470 1.250 . S
C1484 Gd1417 2.828 . S
C1484 O1466 1.258 . S
C1484 O1471 1.252 . S
C1484 C1485 1.497 . S
C1485 C1484 1.497 . S
C1485 C1486 1.395 . S
C1485 C1487 1.380 . S
C1486 C1485 1.395 . S
C1486 C1489 1.398 . S
C1486 H1496 0.930 . S
C1487 C1485 1.380 . S
C1487 C1488 1.391 . S
C1487 H1497 0.930 . S
C1488 C1487 1.391 . S
C1488 C1490 1.387 . S
C1489 C1486 1.398 . S
C1489 C1490 1.380 . S
C1489 H1498 0.930 . S
C1490 C1488 1.387 . S
C1490 C1489 1.380 . S
C1490 H1499 0.930 . S
C1491 O1468 1.254 . S
C1491 O1469 1.268 . S
H1492 C1477 0.930 . S
H1493 C1478 0.930 . S
H1494 C1480 0.930 . S
H1495 C1481 0.930 . S
H1496 C1486 0.930 . S
H1497 C1487 0.930 . S
H1498 C1489 0.930 . S
H1499 C1490 0.930 . S
Gd1500 N1531 2.661 . S
Gd1500 N1537 2.601 . S
Gd1500 O1544 2.545 . S
Gd1500 O1545 2.606 . S
Gd1500 O1547 2.429 . S
Gd1500 O1548 2.545 . S
Gd1500 O1549 2.412 . S
Gd1500 O1551 2.362 . S
Gd1500 O1552 2.324 . S
Gd1500 C1559 2.828 . S
Gd1501 N1510 2.661 . S
Gd1501 N1514 2.601 . S
Gd1501 O1545 2.362 . S
Gd1501 O1546 2.324 . S
Gd1501 O1550 2.545 . S
Gd1501 O1551 2.606 . S
Gd1501 O1553 2.429 . S
Gd1501 O1554 2.545 . S
Gd1501 O1555 2.412 . S
Gd1501 C1568 2.828 . S
C1502 C1505 1.417 . S
C1502 C1507 1.431 . S
C1502 C1508 1.412 . S
C1503 C1506 1.437 . S
C1503 C1507 1.317 . S
C1503 H1522 0.929 . S
C1504 C1505 1.426 . S
C1504 C1506 1.413 . S
C1504 N1514 1.359 . S
C1505 C1502 1.417 . S
C1505 C1504 1.426 . S
C1505 N1510 1.350 . S
C1506 C1503 1.437 . S
C1506 C1504 1.413 . S
C1506 C1516 1.391 . S
C1507 C1502 1.431 . S
C1507 C1503 1.317 . S
C1507 H1518 0.930 . S
C1508 C1502 1.412 . S
C1508 C1509 1.355 . S
C1508 H1520 0.930 . S
C1509 C1508 1.355 . S
C1509 C1511 1.402 . S
C1509 H1521 0.930 . S
N1510 Gd1501 2.661 . S
N1510 C1505 1.350 . S
N1510 C1511 1.307 . S
C1511 C1509 1.402 . S
C1511 N1510 1.307 . S
C1511 H1512 0.930 . S
H1512 C1511 0.930 . S
C1513 N1514 1.334 . S
C1513 C1515 1.394 . S
C1513 H1517 0.930 . S
N1514 Gd1501 2.601 . S
N1514 C1504 1.359 . S
N1514 C1513 1.334 . S
C1515 C1513 1.394 . S
C1515 C1516 1.359 . S
C1515 H1527 0.930 . S
C1516 C1506 1.391 . S
C1516 C1515 1.359 . S
C1516 H1528 0.929 . S
H1517 C1513 0.930 . S
H1518 C1507 0.930 . S
H1519 C1536 0.930 . S
H1520 C1508 0.930 . S
H1521 C1509 0.930 . S
H1522 C1503 0.929 . S
H1523 C1541 0.930 . S
H1524 C1532 0.930 . S
H1525 C1533 0.930 . S
H1526 C1557 0.929 . S
H1527 C1515 0.930 . S
H1528 C1516 0.929 . S
H1529 C1558 0.930 . S
H1530 C1539 0.930 . S
N1531 Gd1500 2.661 . S
N1531 C1535 1.350 . S
N1531 C1536 1.307 . S
C1532 H1524 0.930 . S
C1532 C1533 1.355 . S
C1532 C1534 1.412 . S
C1533 H1525 0.930 . S
C1533 C1532 1.355 . S
C1533 C1536 1.402 . S
C1534 C1532 1.412 . S
C1534 C1535 1.417 . S
C1534 C1558 1.431 . S
C1535 N1531 1.350 . S
C1535 C1534 1.417 . S
C1535 C1538 1.426 . S
C1536 H1519 0.930 . S
C1536 N1531 1.307 . S
C1536 C1533 1.402 . S
N1537 Gd1500 2.601 . S
N1537 C1538 1.359 . S
N1537 C1541 1.334 . S
C1538 C1535 1.426 . S
C1538 N1537 1.359 . S
C1538 C1542 1.413 . S
C1539 H1530 0.930 . S
C1539 C1540 1.359 . S
C1539 C1541 1.394 . S
C1540 C1539 1.359 . S
C1540 C1542 1.391 . S
C1540 H1543 0.929 . S
C1541 H1523 0.930 . S
C1541 N1537 1.334 . S
C1541 C1539 1.394 . S
C1542 C1538 1.413 . S
C1542 C1540 1.391 . S
C1542 C1557 1.437 . S
H1543 C1540 0.929 . S
O1544 Gd1500 2.545 . S
O1544 C1559 1.258 . S
O1545 Gd1500 2.606 . S
O1545 Gd1501 2.362 . S
O1545 C1556 1.284 . S
O1546 Gd1501 2.324 . S
O1546 C1566 1.254 . S
O1547 Gd1500 2.429 . S
O1547 C1566 1.268 . S
O1548 Gd1500 2.545 . S
O1548 C1556 1.250 . S
O1549 Gd1500 2.412 . S
O1549 C1559 1.252 . S
O1550 Gd1501 2.545 . S
O1550 C1568 1.258 . S
O1551 Gd1500 2.362 . S
O1551 Gd1501 2.606 . S
O1551 C1567 1.284 . S
O1552 Gd1500 2.324 . S
O1552 C1575 1.254 . S
O1553 Gd1501 2.429 . S
O1553 C1575 1.268 . S
O1554 Gd1501 2.545 . S
O1554 C1567 1.250 . S
O1555 Gd1501 2.412 . S
O1555 C1568 1.252 . S
C1556 O1545 1.284 . S
C1556 O1548 1.250 . S
C1557 H1526 0.929 . S
C1557 C1542 1.437 . S
C1557 C1558 1.317 . S
C1558 H1529 0.930 . S
C1558 C1534 1.431 . S
C1558 C1557 1.317 . S
C1559 Gd1500 2.828 . S
C1559 O1544 1.258 . S
C1559 O1549 1.252 . S
C1559 C1560 1.497 . S
C1560 C1559 1.497 . S
C1560 C1561 1.395 . S
C1560 C1562 1.380 . S
C1561 C1560 1.395 . S
C1561 C1564 1.398 . S
C1561 H1576 0.930 . S
C1562 C1560 1.380 . S
C1562 C1563 1.391 . S
C1562 H1577 0.930 . S
C1563 C1562 1.391 . S
C1563 C1565 1.387 . S
C1564 C1561 1.398 . S
C1564 C1565 1.380 . S
C1564 H1578 0.930 . S
C1565 C1563 1.387 . S
C1565 C1564 1.380 . S
C1565 H1579 0.930 . S
C1566 O1546 1.254 . S
C1566 O1547 1.268 . S
C1567 O1551 1.284 . S
C1567 O1554 1.250 . S
C1568 Gd1501 2.828 . S
C1568 O1550 1.258 . S
C1568 O1555 1.252 . S
C1568 C1569 1.497 . S
C1569 C1568 1.497 . S
C1569 C1570 1.395 . S
C1569 C1571 1.380 . S
C1570 C1569 1.395 . S
C1570 C1573 1.398 . S
C1570 H1580 0.930 . S
C1571 C1569 1.380 . S
C1571 C1572 1.391 . S
C1571 H1581 0.930 . S
C1572 C1571 1.391 . S
C1572 C1574 1.387 . S
C1573 C1570 1.398 . S
C1573 C1574 1.380 . S
C1573 H1582 0.930 . S
C1574 C1572 1.387 . S
C1574 C1573 1.380 . S
C1574 H1583 0.930 . S
C1575 O1552 1.254 . S
C1575 O1553 1.268 . S
H1576 C1561 0.930 . S
H1577 C1562 0.930 . S
H1578 C1564 0.930 . S
H1579 C1565 0.930 . S
H1580 C1570 0.930 . S
H1581 C1571 0.930 . S
H1582 C1573 0.930 . S
H1583 C1574 0.930 . S
Gd1584 N1615 2.661 . S
Gd1584 N1621 2.601 . S
Gd1584 O1628 2.545 . S
Gd1584 O1629 2.606 . S
Gd1584 O1631 2.429 . S
Gd1584 O1632 2.545 . S
Gd1584 O1633 2.412 . S
Gd1584 O1635 2.362 . S
Gd1584 O1636 2.324 . S
Gd1584 C1643 2.828 . S
Gd1585 N1594 2.661 . S
Gd1585 N1598 2.601 . S
Gd1585 O1629 2.362 . S
Gd1585 O1630 2.324 . S
Gd1585 O1634 2.545 . S
Gd1585 O1635 2.606 . S
Gd1585 O1637 2.429 . S
Gd1585 O1638 2.545 . S
Gd1585 O1639 2.412 . S
Gd1585 C1652 2.828 . S
C1586 C1589 1.417 . S
C1586 C1591 1.431 . S
C1586 C1592 1.412 . S
C1587 C1590 1.437 . S
C1587 C1591 1.317 . S
C1587 H1606 0.929 . S
C1588 C1589 1.426 . S
C1588 C1590 1.413 . S
C1588 N1598 1.359 . S
C1589 C1586 1.417 . S
C1589 C1588 1.426 . S
C1589 N1594 1.350 . S
C1590 C1587 1.437 . S
C1590 C1588 1.413 . S
C1590 C1600 1.391 . S
C1591 C1586 1.431 . S
C1591 C1587 1.317 . S
C1591 H1602 0.930 . S
C1592 C1586 1.412 . S
C1592 C1593 1.355 . S
C1592 H1604 0.930 . S
C1593 C1592 1.355 . S
C1593 C1595 1.402 . S
C1593 H1605 0.930 . S
N1594 Gd1585 2.661 . S
N1594 C1589 1.350 . S
N1594 C1595 1.307 . S
C1595 C1593 1.402 . S
C1595 N1594 1.307 . S
C1595 H1596 0.930 . S
H1596 C1595 0.930 . S
C1597 N1598 1.334 . S
C1597 C1599 1.394 . S
C1597 H1601 0.930 . S
N1598 Gd1585 2.601 . S
N1598 C1588 1.359 . S
N1598 C1597 1.334 . S
C1599 C1597 1.394 . S
C1599 C1600 1.359 . S
C1599 H1611 0.930 . S
C1600 C1590 1.391 . S
C1600 C1599 1.359 . S
C1600 H1612 0.929 . S
H1601 C1597 0.930 . S
H1602 C1591 0.930 . S
H1603 C1620 0.930 . S
H1604 C1592 0.930 . S
H1605 C1593 0.930 . S
H1606 C1587 0.929 . S
H1607 C1625 0.930 . S
H1608 C1616 0.930 . S
H1609 C1617 0.930 . S
H1610 C1641 0.929 . S
H1611 C1599 0.930 . S
H1612 C1600 0.929 . S
H1613 C1642 0.930 . S
H1614 C1623 0.930 . S
N1615 Gd1584 2.661 . S
N1615 C1619 1.350 . S
N1615 C1620 1.307 . S
C1616 H1608 0.930 . S
C1616 C1617 1.355 . S
C1616 C1618 1.412 . S
C1617 H1609 0.930 . S
C1617 C1616 1.355 . S
C1617 C1620 1.402 . S
C1618 C1616 1.412 . S
C1618 C1619 1.417 . S
C1618 C1642 1.431 . S
C1619 N1615 1.350 . S
C1619 C1618 1.417 . S
C1619 C1622 1.426 . S
C1620 H1603 0.930 . S
C1620 N1615 1.307 . S
C1620 C1617 1.402 . S
N1621 Gd1584 2.601 . S
N1621 C1622 1.359 . S
N1621 C1625 1.334 . S
C1622 C1619 1.426 . S
C1622 N1621 1.359 . S
C1622 C1626 1.413 . S
C1623 H1614 0.930 . S
C1623 C1624 1.359 . S
C1623 C1625 1.394 . S
C1624 C1623 1.359 . S
C1624 C1626 1.391 . S
C1624 H1627 0.929 . S
C1625 H1607 0.930 . S
C1625 N1621 1.334 . S
C1625 C1623 1.394 . S
C1626 C1622 1.413 . S
C1626 C1624 1.391 . S
C1626 C1641 1.437 . S
H1627 C1624 0.929 . S
O1628 Gd1584 2.545 . S
O1628 C1643 1.258 . S
O1629 Gd1584 2.606 . S
O1629 Gd1585 2.362 . S
O1629 C1640 1.284 . S
O1630 Gd1585 2.324 . S
O1630 C1650 1.254 . S
O1631 Gd1584 2.429 . S
O1631 C1650 1.268 . S
O1632 Gd1584 2.545 . S
O1632 C1640 1.250 . S
O1633 Gd1584 2.412 . S
O1633 C1643 1.252 . S
O1634 Gd1585 2.545 . S
O1634 C1652 1.258 . S
O1635 Gd1584 2.362 . S
O1635 Gd1585 2.606 . S
O1635 C1651 1.284 . S
O1636 Gd1584 2.324 . S
O1636 C1659 1.254 . S
O1637 Gd1585 2.429 . S
O1637 C1659 1.268 . S
O1638 Gd1585 2.545 . S
O1638 C1651 1.250 . S
O1639 Gd1585 2.412 . S
O1639 C1652 1.252 . S
C1640 O1629 1.284 . S
C1640 O1632 1.250 . S
C1641 H1610 0.929 . S
C1641 C1626 1.437 . S
C1641 C1642 1.317 . S
C1642 H1613 0.930 . S
C1642 C1618 1.431 . S
C1642 C1641 1.317 . S
C1643 Gd1584 2.828 . S
C1643 O1628 1.258 . S
C1643 O1633 1.252 . S
C1643 C1644 1.497 . S
C1644 C1643 1.497 . S
C1644 C1645 1.395 . S
C1644 C1646 1.380 . S
C1645 C1644 1.395 . S
C1645 C1648 1.398 . S
C1645 H1660 0.930 . S
C1646 C1644 1.380 . S
C1646 C1647 1.391 . S
C1646 H1661 0.930 . S
C1647 C1646 1.391 . S
C1647 C1649 1.387 . S
C1648 C1645 1.398 . S
C1648 C1649 1.380 . S
C1648 H1662 0.930 . S
C1649 C1647 1.387 . S
C1649 C1648 1.380 . S
C1649 H1663 0.930 . S
C1650 O1630 1.254 . S
C1650 O1631 1.268 . S
C1651 O1635 1.284 . S
C1651 O1638 1.250 . S
C1652 Gd1585 2.828 . S
C1652 O1634 1.258 . S
C1652 O1639 1.252 . S
C1652 C1653 1.497 . S
C1653 C1652 1.497 . S
C1653 C1654 1.395 . S
C1653 C1655 1.380 . S
C1654 C1653 1.395 . S
C1654 C1657 1.398 . S
C1654 H1664 0.930 . S
C1655 C1653 1.380 . S
C1655 C1656 1.391 . S
C1655 H1665 0.930 . S
C1656 C1655 1.391 . S
C1656 C1658 1.387 . S
C1657 C1654 1.398 . S
C1657 C1658 1.380 . S
C1657 H1666 0.930 . S
C1658 C1656 1.387 . S
C1658 C1657 1.380 . S
C1658 H1667 0.930 . S
C1659 O1636 1.254 . S
C1659 O1637 1.268 . S
H1660 C1645 0.930 . S
H1661 C1646 0.930 . S
H1662 C1648 0.930 . S
H1663 C1649 0.930 . S
H1664 C1654 0.930 . S
H1665 C1655 0.930 . S
H1666 C1657 0.930 . S
H1667 C1658 0.930 . S
Gd1668 N1699 2.661 . S
Gd1668 N1705 2.601 . S
Gd1668 O1712 2.545 . S
Gd1668 O1713 2.606 . S
Gd1668 O1715 2.429 . S
Gd1668 O1716 2.545 . S
Gd1668 O1717 2.412 . S
Gd1668 O1719 2.362 . S
Gd1668 O1720 2.324 . S
Gd1668 C1727 2.828 . S
Gd1669 N1678 2.661 . S
Gd1669 N1682 2.601 . S
Gd1669 O1713 2.362 . S
Gd1669 O1714 2.324 . S
Gd1669 O1718 2.545 . S
Gd1669 O1719 2.606 . S
Gd1669 O1721 2.429 . S
Gd1669 O1722 2.545 . S
Gd1669 O1723 2.412 . S
Gd1669 C1736 2.828 . S
C1670 C1673 1.417 . S
C1670 C1675 1.431 . S
C1670 C1676 1.412 . S
C1671 C1674 1.437 . S
C1671 C1675 1.317 . S
C1671 H1690 0.929 . S
C1672 C1673 1.426 . S
C1672 C1674 1.413 . S
C1672 N1682 1.359 . S
C1673 C1670 1.417 . S
C1673 C1672 1.426 . S
C1673 N1678 1.350 . S
C1674 C1671 1.437 . S
C1674 C1672 1.413 . S
C1674 C1684 1.391 . S
C1675 C1670 1.431 . S
C1675 C1671 1.317 . S
C1675 H1686 0.930 . S
C1676 C1670 1.412 . S
C1676 C1677 1.355 . S
C1676 H1688 0.930 . S
C1677 C1676 1.355 . S
C1677 C1679 1.402 . S
C1677 H1689 0.930 . S
N1678 Gd1669 2.661 . S
N1678 C1673 1.350 . S
N1678 C1679 1.307 . S
C1679 C1677 1.402 . S
C1679 N1678 1.307 . S
C1679 H1680 0.930 . S
H1680 C1679 0.930 . S
C1681 N1682 1.334 . S
C1681 C1683 1.394 . S
C1681 H1685 0.930 . S
N1682 Gd1669 2.601 . S
N1682 C1672 1.359 . S
N1682 C1681 1.334 . S
C1683 C1681 1.394 . S
C1683 C1684 1.359 . S
C1683 H1695 0.930 . S
C1684 C1674 1.391 . S
C1684 C1683 1.359 . S
C1684 H1696 0.929 . S
H1685 C1681 0.930 . S
H1686 C1675 0.930 . S
H1687 C1704 0.930 . S
H1688 C1676 0.930 . S
H1689 C1677 0.930 . S
H1690 C1671 0.929 . S
H1691 C1709 0.930 . S
H1692 C1700 0.930 . S
H1693 C1701 0.930 . S
H1694 C1725 0.929 . S
H1695 C1683 0.930 . S
H1696 C1684 0.929 . S
H1697 C1726 0.930 . S
H1698 C1707 0.930 . S
N1699 Gd1668 2.661 . S
N1699 C1703 1.350 . S
N1699 C1704 1.307 . S
C1700 H1692 0.930 . S
C1700 C1701 1.355 . S
C1700 C1702 1.412 . S
C1701 H1693 0.930 . S
C1701 C1700 1.355 . S
C1701 C1704 1.402 . S
C1702 C1700 1.412 . S
C1702 C1703 1.417 . S
C1702 C1726 1.431 . S
C1703 N1699 1.350 . S
C1703 C1702 1.417 . S
C1703 C1706 1.426 . S
C1704 H1687 0.930 . S
C1704 N1699 1.307 . S
C1704 C1701 1.402 . S
N1705 Gd1668 2.601 . S
N1705 C1706 1.359 . S
N1705 C1709 1.334 . S
C1706 C1703 1.426 . S
C1706 N1705 1.359 . S
C1706 C1710 1.413 . S
C1707 H1698 0.930 . S
C1707 C1708 1.359 . S
C1707 C1709 1.394 . S
C1708 C1707 1.359 . S
C1708 C1710 1.391 . S
C1708 H1711 0.929 . S
C1709 H1691 0.930 . S
C1709 N1705 1.334 . S
C1709 C1707 1.394 . S
C1710 C1706 1.413 . S
C1710 C1708 1.391 . S
C1710 C1725 1.437 . S
H1711 C1708 0.929 . S
O1712 Gd1668 2.545 . S
O1712 C1727 1.258 . S
O1713 Gd1668 2.606 . S
O1713 Gd1669 2.362 . S
O1713 C1724 1.284 . S
O1714 Gd1669 2.324 . S
O1714 C1734 1.254 . S
O1715 Gd1668 2.429 . S
O1715 C1734 1.268 . S
O1716 Gd1668 2.545 . S
O1716 C1724 1.250 . S
O1717 Gd1668 2.412 . S
O1717 C1727 1.252 . S
O1718 Gd1669 2.545 . S
O1718 C1736 1.258 . S
O1719 Gd1668 2.362 . S
O1719 Gd1669 2.606 . S
O1719 C1735 1.284 . S
O1720 Gd1668 2.324 . S
O1720 C1743 1.254 . S
O1721 Gd1669 2.429 . S
O1721 C1743 1.268 . S
O1722 Gd1669 2.545 . S
O1722 C1735 1.250 . S
O1723 Gd1669 2.412 . S
O1723 C1736 1.252 . S
C1724 O1713 1.284 . S
C1724 O1716 1.250 . S
C1725 H1694 0.929 . S
C1725 C1710 1.437 . S
C1725 C1726 1.317 . S
C1726 H1697 0.930 . S
C1726 C1702 1.431 . S
C1726 C1725 1.317 . S
C1727 Gd1668 2.828 . S
C1727 O1712 1.258 . S
C1727 O1717 1.252 . S
C1727 C1728 1.497 . S
C1728 C1727 1.497 . S
C1728 C1729 1.395 . S
C1728 C1730 1.380 . S
C1729 C1728 1.395 . S
C1729 C1732 1.398 . S
C1729 H1744 0.930 . S
C1730 C1728 1.380 . S
C1730 C1731 1.391 . S
C1730 H1745 0.930 . S
C1731 C1730 1.391 . S
C1731 C1733 1.387 . S
C1732 C1729 1.398 . S
C1732 C1733 1.380 . S
C1732 H1746 0.930 . S
C1733 C1731 1.387 . S
C1733 C1732 1.380 . S
C1733 H1747 0.930 . S
C1734 O1714 1.254 . S
C1734 O1715 1.268 . S
C1735 O1719 1.284 . S
C1735 O1722 1.250 . S
C1736 Gd1669 2.828 . S
C1736 O1718 1.258 . S
C1736 O1723 1.252 . S
C1736 C1737 1.497 . S
C1737 C1736 1.497 . S
C1737 C1738 1.395 . S
C1737 C1739 1.380 . S
C1738 C1737 1.395 . S
C1738 C1741 1.398 . S
C1738 H1748 0.930 . S
C1739 C1737 1.380 . S
C1739 C1740 1.391 . S
C1739 H1749 0.930 . S
C1740 C1739 1.391 . S
C1740 C1742 1.387 . S
C1741 C1738 1.398 . S
C1741 C1742 1.380 . S
C1741 H1750 0.930 . S
C1742 C1740 1.387 . S
C1742 C1741 1.380 . S
C1742 H1751 0.930 . S
C1743 O1720 1.254 . S
C1743 O1721 1.268 . S
H1744 C1729 0.930 . S
H1745 C1730 0.930 . S
H1746 C1732 0.930 . S
H1747 C1733 0.930 . S
H1748 C1738 0.930 . S
H1749 C1739 0.930 . S
H1750 C1741 0.930 . S
H1751 C1742 0.930 . S
Gd1752 N1783 2.661 . S
Gd1752 N1789 2.601 . S
Gd1752 O1796 2.545 . S
Gd1752 O1797 2.606 . S
Gd1752 O1799 2.429 . S
Gd1752 O1800 2.545 . S
Gd1752 O1801 2.412 . S
Gd1752 O1803 2.362 . S
Gd1752 O1804 2.324 . S
Gd1752 C1811 2.828 . S
Gd1753 N1762 2.661 . S
Gd1753 N1766 2.601 . S
Gd1753 O1797 2.362 . S
Gd1753 O1798 2.324 . S
Gd1753 O1802 2.545 . S
Gd1753 O1803 2.606 . S
Gd1753 O1805 2.429 . S
Gd1753 O1806 2.545 . S
Gd1753 O1807 2.412 . S
Gd1753 C1820 2.828 . S
C1754 C1757 1.417 . S
C1754 C1759 1.431 . S
C1754 C1760 1.412 . S
C1755 C1758 1.437 . S
C1755 C1759 1.317 . S
C1755 H1774 0.929 . S
C1756 C1757 1.426 . S
C1756 C1758 1.413 . S
C1756 N1766 1.359 . S
C1757 C1754 1.417 . S
C1757 C1756 1.426 . S
C1757 N1762 1.350 . S
C1758 C1755 1.437 . S
C1758 C1756 1.413 . S
C1758 C1768 1.391 . S
C1759 C1754 1.431 . S
C1759 C1755 1.317 . S
C1759 H1770 0.930 . S
C1760 C1754 1.412 . S
C1760 C1761 1.355 . S
C1760 H1772 0.930 . S
C1761 C1760 1.355 . S
C1761 C1763 1.402 . S
C1761 H1773 0.930 . S
N1762 Gd1753 2.661 . S
N1762 C1757 1.350 . S
N1762 C1763 1.307 . S
C1763 C1761 1.402 . S
C1763 N1762 1.307 . S
C1763 H1764 0.930 . S
H1764 C1763 0.930 . S
C1765 N1766 1.334 . S
C1765 C1767 1.394 . S
C1765 H1769 0.930 . S
N1766 Gd1753 2.601 . S
N1766 C1756 1.359 . S
N1766 C1765 1.334 . S
C1767 C1765 1.394 . S
C1767 C1768 1.359 . S
C1767 H1779 0.930 . S
C1768 C1758 1.391 . S
C1768 C1767 1.359 . S
C1768 H1780 0.929 . S
H1769 C1765 0.930 . S
H1770 C1759 0.930 . S
H1771 C1788 0.930 . S
H1772 C1760 0.930 . S
H1773 C1761 0.930 . S
H1774 C1755 0.929 . S
H1775 C1793 0.930 . S
H1776 C1784 0.930 . S
H1777 C1785 0.930 . S
H1778 C1809 0.929 . S
H1779 C1767 0.930 . S
H1780 C1768 0.929 . S
H1781 C1810 0.930 . S
H1782 C1791 0.930 . S
N1783 Gd1752 2.661 . S
N1783 C1787 1.350 . S
N1783 C1788 1.307 . S
C1784 H1776 0.930 . S
C1784 C1785 1.355 . S
C1784 C1786 1.412 . S
C1785 H1777 0.930 . S
C1785 C1784 1.355 . S
C1785 C1788 1.402 . S
C1786 C1784 1.412 . S
C1786 C1787 1.417 . S
C1786 C1810 1.431 . S
C1787 N1783 1.350 . S
C1787 C1786 1.417 . S
C1787 C1790 1.426 . S
C1788 H1771 0.930 . S
C1788 N1783 1.307 . S
C1788 C1785 1.402 . S
N1789 Gd1752 2.601 . S
N1789 C1790 1.359 . S
N1789 C1793 1.334 . S
C1790 C1787 1.426 . S
C1790 N1789 1.359 . S
C1790 C1794 1.413 . S
C1791 H1782 0.930 . S
C1791 C1792 1.359 . S
C1791 C1793 1.394 . S
C1792 C1791 1.359 . S
C1792 C1794 1.391 . S
C1792 H1795 0.929 . S
C1793 H1775 0.930 . S
C1793 N1789 1.334 . S
C1793 C1791 1.394 . S
C1794 C1790 1.413 . S
C1794 C1792 1.391 . S
C1794 C1809 1.437 . S
H1795 C1792 0.929 . S
O1796 Gd1752 2.545 . S
O1796 C1811 1.258 . S
O1797 Gd1752 2.606 . S
O1797 Gd1753 2.362 . S
O1797 C1808 1.284 . S
O1798 Gd1753 2.324 . S
O1798 C1818 1.254 . S
O1799 Gd1752 2.429 . S
O1799 C1818 1.268 . S
O1800 Gd1752 2.545 . S
O1800 C1808 1.250 . S
O1801 Gd1752 2.412 . S
O1801 C1811 1.252 . S
O1802 Gd1753 2.545 . S
O1802 C1820 1.258 . S
O1803 Gd1752 2.362 . S
O1803 Gd1753 2.606 . S
O1803 C1819 1.284 . S
O1804 Gd1752 2.324 . S
O1804 C1827 1.254 . S
O1805 Gd1753 2.429 . S
O1805 C1827 1.268 . S
O1806 Gd1753 2.545 . S
O1806 C1819 1.250 . S
O1807 Gd1753 2.412 . S
O1807 C1820 1.252 . S
C1808 O1797 1.284 . S
C1808 O1800 1.250 . S
C1809 H1778 0.929 . S
C1809 C1794 1.437 . S
C1809 C1810 1.317 . S
C1810 H1781 0.930 . S
C1810 C1786 1.431 . S
C1810 C1809 1.317 . S
C1811 Gd1752 2.828 . S
C1811 O1796 1.258 . S
C1811 O1801 1.252 . S
C1811 C1812 1.497 . S
C1812 C1811 1.497 . S
C1812 C1813 1.395 . S
C1812 C1814 1.380 . S
C1813 C1812 1.395 . S
C1813 C1816 1.398 . S
C1813 H1828 0.930 . S
C1814 C1812 1.380 . S
C1814 C1815 1.391 . S
C1814 H1829 0.930 . S
C1815 C1814 1.391 . S
C1815 C1817 1.387 . S
C1816 C1813 1.398 . S
C1816 C1817 1.380 . S
C1816 H1830 0.930 . S
C1817 C1815 1.387 . S
C1817 C1816 1.380 . S
C1817 H1831 0.930 . S
C1818 O1798 1.254 . S
C1818 O1799 1.268 . S
C1819 O1803 1.284 . S
C1819 O1806 1.250 . S
C1820 Gd1753 2.828 . S
C1820 O1802 1.258 . S
C1820 O1807 1.252 . S
C1820 C1821 1.497 . S
C1821 C1820 1.497 . S
C1821 C1822 1.395 . S
C1821 C1823 1.380 . S
C1822 C1821 1.395 . S
C1822 C1825 1.398 . S
C1822 H1832 0.930 . S
C1823 C1821 1.380 . S
C1823 C1824 1.391 . S
C1823 H1833 0.930 . S
C1824 C1823 1.391 . S
C1824 C1826 1.387 . S
C1825 C1822 1.398 . S
C1825 C1826 1.380 . S
C1825 H1834 0.930 . S
C1826 C1824 1.387 . S
C1826 C1825 1.380 . S
C1826 H1835 0.930 . S
C1827 O1804 1.254 . S
C1827 O1805 1.268 . S
H1828 C1813 0.930 . S
H1829 C1814 0.930 . S
H1830 C1816 0.930 . S
H1831 C1817 0.930 . S
H1832 C1822 0.930 . S
H1833 C1823 0.930 . S
H1834 C1825 0.930 . S
H1835 C1826 0.930 . S
H1836 C1842 0.930 . S
H1837 C1845 0.930 . S
H1838 C1846 0.930 . S
H1839 C1847 0.930 . S
H1840 C1850 0.930 . S
H1841 C1851 0.930 . S
C1842 H1836 0.930 . S
C1842 C1843 1.355 . S
C1842 C1844 1.415 . S
C1843 C1842 1.355 . S
C1843 C1845 1.419 . S
C1844 C1842 1.415 . S
C1844 C1849 1.425 . S
C1844 C1851 1.409 . S
C1845 H1837 0.930 . S
C1845 C1843 1.419 . S
C1845 C1846 1.362 . S
C1846 H1838 0.930 . S
C1846 C1845 1.362 . S
C1846 C1849 1.409 . S
C1847 H1839 0.930 . S
C1847 C1848 1.355 . S
C1847 C1849 1.415 . S
C1848 C1847 1.355 . S
C1848 C1850 1.419 . S
C1849 C1844 1.425 . S
C1849 C1846 1.409 . S
C1849 C1847 1.415 . S
C1850 H1840 0.930 . S
C1850 C1848 1.419 . S
C1850 C1851 1.362 . S
C1851 H1841 0.930 . S
C1851 C1844 1.409 . S
C1851 C1850 1.362 . S
H1852 C1858 0.930 . S
H1853 C1861 0.930 . S
H1854 C1862 0.930 . S
H1855 C1863 0.930 . S
H1856 C1866 0.900 1_556 S
H1857 C1867 0.930 . S
C1858 H1852 0.930 . S
C1858 C1859 1.355 . S
C1858 C1860 1.415 . S
C1859 C1858 1.355 . S
C1859 C1861 1.419 . S
C1860 C1858 1.415 . S
C1860 C1865 1.425 . S
C1860 C1867 1.409 . S
C1861 H1853 0.930 . S
C1861 C1859 1.419 . S
C1861 C1862 1.362 . S
C1862 H1854 0.930 . S
C1862 C1861 1.362 . S
C1862 C1865 1.409 . S
C1863 H1855 0.930 . S
C1863 C1864 1.355 . S
C1863 C1865 1.415 . S
C1864 C1863 1.355 . S
C1864 C1866 1.419 . S
C1865 C1860 1.425 . S
C1865 C1862 1.409 . S
C1865 C1863 1.415 . S
C1866 H1856 0.900 1_554 S
C1866 C1864 1.419 . S
C1866 C1867 1.362 . S
C1867 H1857 0.930 . S
C1867 C1860 1.409 . S
C1867 C1866 1.362 . S
H1868 C1874 0.930 . S
H1869 C1877 0.930 . S
H1870 C1878 0.930 . S
H1871 C1879 0.930 . S
H1872 C1882 0.930 . S
H1873 C1883 0.930 . S
C1874 H1868 0.930 . S
C1874 C1875 1.355 . S
C1874 C1876 1.415 . S
C1875 C1874 1.355 . S
C1875 C1877 1.419 . S
C1876 C1874 1.415 . S
C1876 C1881 1.425 . S
C1876 C1883 1.409 . S
C1877 H1869 0.930 . S
C1877 C1875 1.419 . S
C1877 C1878 1.362 . S
C1878 H1870 0.930 . S
C1878 C1877 1.362 . S
C1878 C1881 1.409 . S
C1879 H1871 0.930 . S
C1879 C1880 1.355 . S
C1879 C1881 1.415 . S
C1880 C1879 1.355 . S
C1880 C1882 1.419 . S
C1881 C1876 1.425 . S
C1881 C1878 1.409 . S
C1881 C1879 1.415 . S
C1882 H1872 0.930 . S
C1882 C1880 1.419 . S
C1882 C1883 1.362 . S
C1883 H1873 0.930 . S
C1883 C1876 1.409 . S
C1883 C1882 1.362 . S
H1884 C1890 0.930 . S
H1885 C1893 0.930 . S
H1886 C1894 0.930 . S
H1887 C1895 0.930 . S
H1888 C1898 0.930 . S
H1889 C1899 0.930 . S
C1890 H1884 0.930 . S
C1890 C1891 1.355 . S
C1890 C1892 1.415 . S
C1891 C1890 1.355 . S
C1891 C1893 1.419 . S
C1892 C1890 1.415 . S
C1892 C1897 1.425 . S
C1892 C1899 1.409 . S
C1893 H1885 0.930 . S
C1893 C1891 1.419 . S
C1893 C1894 1.362 . S
C1894 H1886 0.930 . S
C1894 C1893 1.362 . S
C1894 C1897 1.409 . S
C1895 H1887 0.930 . S
C1895 C1896 1.355 . S
C1895 C1897 1.415 . S
C1896 C1895 1.355 . S
C1896 C1898 1.419 . S
C1897 C1892 1.425 . S
C1897 C1894 1.409 . S
C1897 C1895 1.415 . S
C1898 H1888 0.930 . S
C1898 C1896 1.419 . S
C1898 C1899 1.362 . S
C1899 H1889 0.930 . S
C1899 C1892 1.409 . S
C1899 C1898 1.362 . S
H1900 C1906 0.930 . S
H1901 C1909 0.930 . S
H1902 C1910 0.930 . S
H1903 C1911 0.930 . S
H1904 C1914 0.930 1_554 S
H1905 C1915 0.930 . S
C1906 H1900 0.930 . S
C1906 C1907 1.355 . S
C1906 C1908 1.415 . S
C1907 C1906 1.355 . S
C1907 C1909 1.419 . S
C1908 C1906 1.415 . S
C1908 C1913 1.425 . S
C1908 C1915 1.409 . S
C1909 H1901 0.930 . S
C1909 C1907 1.419 . S
C1909 C1910 1.362 . S
C1910 H1902 0.930 . S
C1910 C1909 1.362 . S
C1910 C1913 1.409 . S
C1911 H1903 0.930 . S
C1911 C1912 1.355 . S
C1911 C1913 1.415 . S
C1912 C1911 1.355 . S
C1912 C1914 1.419 . S
C1913 C1908 1.425 . S
C1913 C1910 1.409 . S
C1913 C1911 1.415 . S
C1914 H1904 0.930 1_556 S
C1914 C1912 1.419 . S
C1914 C1915 1.362 . S
C1915 H1905 0.930 . S
C1915 C1908 1.409 . S
C1915 C1914 1.362 . S
H1916 C1922 0.930 . S
H1917 C1925 0.930 . S
H1918 C1926 0.930 . S
H1919 C1927 0.930 . S
H1920 C1930 0.930 1_554 S
H1921 C1931 0.930 . S
C1922 H1916 0.930 . S
C1922 C1923 1.355 . S
C1922 C1924 1.415 . S
C1923 C1922 1.355 . S
C1923 C1925 1.419 . S
C1924 C1922 1.415 . S
C1924 C1929 1.425 . S
C1924 C1931 1.409 . S
C1925 H1917 0.930 . S
C1925 C1923 1.419 . S
C1925 C1926 1.362 . S
C1926 H1918 0.930 . S
C1926 C1925 1.362 . S
C1926 C1929 1.409 . S
C1927 H1919 0.930 . S
C1927 C1928 1.355 . S
C1927 C1929 1.415 . S
C1928 C1927 1.355 . S
C1928 C1930 1.419 . S
C1929 C1924 1.425 . S
C1929 C1926 1.409 . S
C1929 C1927 1.415 . S
C1930 H1920 0.930 1_556 S
C1930 C1928 1.419 . S
C1930 C1931 1.362 . S
C1931 H1921 0.930 . S
C1931 C1924 1.409 . S
C1931 C1930 1.362 . S
H1932 C1938 0.930 . S
H1933 C1941 0.930 . S
H1934 C1942 0.930 . S
H1935 C1943 0.930 . S
H1936 C1946 0.930 . S
H1937 C1947 0.930 . S
C1938 H1932 0.930 . S
C1938 C1939 1.355 . S
C1938 C1940 1.415 . S
C1939 C1938 1.355 . S
C1939 C1941 1.419 . S
C1940 C1938 1.415 . S
C1940 C1945 1.425 . S
C1940 C1947 1.409 . S
C1941 H1933 0.930 . S
C1941 C1939 1.419 . S
C1941 C1942 1.362 . S
C1942 H1934 0.930 . S
C1942 C1941 1.362 . S
C1942 C1945 1.409 . S
C1943 H1935 0.930 . S
C1943 C1944 1.355 . S
C1943 C1945 1.415 . S
C1944 C1943 1.355 . S
C1944 C1946 1.419 . S
C1945 C1940 1.425 . S
C1945 C1942 1.409 . S
C1945 C1943 1.415 . S
C1946 H1936 0.930 . S
C1946 C1944 1.419 . S
C1946 C1947 1.362 . S
C1947 H1937 0.930 . S
C1947 C1940 1.409 . S
C1947 C1946 1.362 . S
H1948 C1954 0.930 . S
H1949 C1957 0.930 . S
H1950 C1958 0.930 . S
H1951 C1959 0.930 . S
H1952 C1962 0.930 . S
H1953 C1963 0.930 . S
C1954 H1948 0.930 . S
C1954 C1955 1.355 . S
C1954 C1956 1.415 . S
C1955 C1954 1.355 . S
C1955 C1957 1.419 . S
C1956 C1954 1.415 . S
C1956 C1961 1.425 . S
C1956 C1963 1.409 . S
C1957 H1949 0.930 . S
C1957 C1955 1.419 . S
C1957 C1958 1.362 . S
C1958 H1950 0.930 . S
C1958 C1957 1.362 . S
C1958 C1961 1.409 . S
C1959 H1951 0.930 . S
C1959 C1960 1.355 . S
C1959 C1961 1.415 . S
C1960 C1959 1.355 . S
C1960 C1962 1.419 . S
C1961 C1956 1.425 . S
C1961 C1958 1.409 . S
C1961 C1959 1.415 . S
C1962 H1952 0.930 . S
C1962 C1960 1.419 . S
C1962 C1963 1.362 . S
C1963 H1953 0.930 . S
C1963 C1956 1.409 . S
C1963 C1962 1.362 . S
H1964 C1970 0.930 . S
H1965 C1973 0.930 . S
H1966 C1974 0.930 . S
H1967 C1975 0.930 . S
H1968 C1978 0.930 . S
H1969 C1979 0.930 . S
C1970 H1964 0.930 . S
C1970 C1971 1.355 . S
C1970 C1972 1.415 . S
C1971 C1970 1.355 . S
C1971 C1973 1.419 . S
C1972 C1970 1.415 . S
C1972 C1977 1.425 . S
C1972 C1979 1.409 . S
C1973 H1965 0.930 . S
C1973 C1971 1.419 . S
C1973 C1974 1.362 . S
C1974 H1966 0.930 . S
C1974 C1973 1.362 . S
C1974 C1977 1.409 . S
C1975 H1967 0.930 . S
C1975 C1976 1.355 . S
C1975 C1977 1.415 . S
C1976 C1975 1.355 . S
C1976 C1978 1.419 . S
C1977 C1972 1.425 . S
C1977 C1974 1.409 . S
C1977 C1975 1.415 . S
C1978 H1968 0.930 . S
C1978 C1976 1.419 . S
C1978 C1979 1.362 . S
C1979 H1969 0.930 . S
C1979 C1972 1.409 . S
C1979 C1978 1.362 . S
H1980 C1986 0.930 . S
H1981 C1989 0.930 . S
H1982 C1990 0.930 . S
H1983 C1991 0.930 . S
H1984 C1994 0.930 1_556 S
H1985 C1995 0.924 1_556 S
C1986 H1980 0.930 . S
C1986 C1987 1.355 . S
C1986 C1988 1.415 . S
C1987 C1986 1.355 . S
C1987 C1989 1.419 . S
C1988 C1986 1.415 . S
C1988 C1993 1.425 . S
C1988 C1995 1.409 . S
C1989 H1981 0.930 . S
C1989 C1987 1.419 . S
C1989 C1990 1.362 . S
C1990 H1982 0.930 . S
C1990 C1989 1.362 . S
C1990 C1993 1.409 . S
C1991 H1983 0.930 . S
C1991 C1992 1.355 . S
C1991 C1993 1.415 . S
C1992 C1991 1.355 . S
C1992 C1994 1.419 . S
C1993 C1988 1.425 . S
C1993 C1990 1.409 . S
C1993 C1991 1.415 . S
C1994 H1984 0.930 1_554 S
C1994 C1992 1.419 . S
C1994 C1995 1.362 . S
C1995 H1985 0.924 1_554 S
C1995 C1988 1.409 . S
C1995 C1994 1.362 . S
H1996 C2002 0.930 . S
H1997 C2005 0.930 . S
H1998 C2006 0.930 . S
H1999 C2007 0.930 . S
H2000 C2010 0.930 1_556 S
H2001 C2011 0.971 . S
C2002 H1996 0.930 . S
C2002 C2003 1.355 . S
C2002 C2004 1.415 . S
C2003 C2002 1.355 . S
C2003 C2005 1.419 . S
C2004 C2002 1.415 . S
C2004 C2009 1.425 . S
C2004 C2011 1.409 . S
C2005 H1997 0.930 . S
C2005 C2003 1.419 . S
C2005 C2006 1.362 . S
C2006 H1998 0.930 . S
C2006 C2005 1.362 . S
C2006 C2009 1.409 . S
C2007 H1999 0.930 . S
C2007 C2008 1.355 . S
C2007 C2009 1.415 . S
C2008 C2007 1.355 . S
C2008 C2010 1.419 . S
C2009 C2004 1.425 . S
C2009 C2006 1.409 . S
C2009 C2007 1.415 . S
C2010 H2000 0.930 1_554 S
C2010 C2008 1.419 . S
C2010 C2011 1.362 . S
C2011 H2001 0.971 . S
C2011 C2004 1.409 . S
C2011 C2010 1.362 . S
H2012 C2018 0.930 . S
H2013 C2021 0.930 . S
H2014 C2022 0.930 . S
H2015 C2023 0.930 . S
H2016 C2026 0.930 1_556 S
H2017 C2027 0.930 1_556 S
C2018 H2012 0.930 . S
C2018 C2019 1.355 . S
C2018 C2020 1.415 . S
C2019 C2018 1.355 . S
C2019 C2021 1.419 . S
C2020 C2018 1.415 . S
C2020 C2025 1.425 . S
C2020 C2027 1.409 . S
C2021 H2013 0.930 . S
C2021 C2019 1.419 . S
C2021 C2022 1.362 . S
C2022 H2014 0.930 . S
C2022 C2021 1.362 . S
C2022 C2025 1.409 . S
C2023 H2015 0.930 . S
C2023 C2024 1.355 . S
C2023 C2025 1.415 . S
C2024 C2023 1.355 . S
C2024 C2026 1.419 . S
C2025 C2020 1.425 . S
C2025 C2022 1.409 . S
C2025 C2023 1.415 . S
C2026 H2016 0.930 1_554 S
C2026 C2024 1.419 . S
C2026 C2027 1.362 . S
C2027 H2017 0.930 1_554 S
C2027 C2020 1.409 . S
C2027 C2026 1.362 . S
H2028 C2034 0.930 . S
H2029 C2037 0.930 1_655 S
H2030 C2038 0.930 . S
H2031 C2039 0.930 . S
H2032 C2042 0.930 . S
H2033 C2043 0.930 . S
C2034 H2028 0.930 . S
C2034 C2035 1.368 . S
C2034 C2036 1.415 . S
C2035 C2034 1.368 . S
C2035 C2037 1.433 . S
C2036 C2034 1.415 . S
C2036 C2041 1.425 . S
C2036 C2043 1.409 . S
C2037 H2029 0.930 1_455 S
C2037 C2035 1.433 . S
C2037 C2038 1.362 . S
C2038 H2030 0.930 . S
C2038 C2037 1.362 . S
C2038 C2041 1.409 . S
C2039 H2031 0.930 . S
C2039 C2040 1.355 . S
C2039 C2041 1.415 . S
C2040 C2039 1.355 . S
C2040 C2042 1.419 . S
C2041 C2036 1.425 . S
C2041 C2038 1.409 . S
C2041 C2039 1.415 . S
C2042 H2032 0.930 . S
C2042 C2040 1.419 . S
C2042 C2043 1.362 . S
C2043 H2033 0.930 . S
C2043 C2036 1.409 . S
C2043 C2042 1.362 . S
H2044 C2050 0.930 . S
H2045 C2053 0.930 . S
H2046 C2054 0.930 . S
H2047 C2055 0.930 . S
H2048 C2058 0.930 . S
H2049 C2059 0.930 . S
C2050 H2044 0.930 . S
C2050 C2051 1.355 . S
C2050 C2052 1.415 . S
C2051 C2050 1.355 . S
C2051 C2053 1.419 . S
C2052 C2050 1.415 . S
C2052 C2057 1.425 . S
C2052 C2059 1.409 . S
C2053 H2045 0.930 . S
C2053 C2051 1.419 . S
C2053 C2054 1.362 . S
C2054 H2046 0.930 . S
C2054 C2053 1.362 . S
C2054 C2057 1.409 . S
C2055 H2047 0.930 . S
C2055 C2056 1.355 . S
C2055 C2057 1.415 . S
C2056 C2055 1.355 . S
C2056 C2058 1.419 . S
C2057 C2052 1.425 . S
C2057 C2054 1.409 . S
C2057 C2055 1.415 . S
C2058 H2048 0.930 . S
C2058 C2056 1.419 . S
C2058 C2059 1.362 . S
C2059 H2049 0.930 . S
C2059 C2052 1.409 . S
C2059 C2058 1.362 . S
H2060 C2066 0.930 1_545 S
H2061 C2069 0.930 . S
H2062 C2070 0.930 . S
H2063 C2071 0.930 . S
H2064 C2074 0.930 . S
H2065 C2075 0.930 . S
C2066 H2060 0.930 1_565 S
C2066 C2067 1.355 1_565 S
C2066 C2068 1.415 . S
C2067 C2066 1.355 1_545 S
C2067 C2069 1.419 1_545 S
C2068 C2066 1.415 . S
C2068 C2073 1.425 . S
C2068 C2075 1.409 . S
C2069 H2061 0.930 . S
C2069 C2067 1.419 1_565 S
C2069 C2070 1.362 . S
C2070 H2062 0.930 . S
C2070 C2069 1.362 . S
C2070 C2073 1.409 . S
C2071 H2063 0.930 . S
C2071 C2072 1.355 . S
C2071 C2073 1.415 . S
C2072 C2071 1.355 . S
C2072 C2074 1.419 . S
C2073 C2068 1.425 . S
C2073 C2070 1.409 . S
C2073 C2071 1.415 . S
C2074 H2064 0.930 . S
C2074 C2072 1.419 . S
C2074 C2075 1.362 . S
C2075 H2065 0.930 . S
C2075 C2068 1.409 . S
C2075 C2074 1.362 . S
H2076 C2082 0.930 . S
H2077 C2085 0.930 . S
H2078 C2086 0.930 . S
H2079 C2087 0.930 . S
H2080 C2090 0.930 . S
H2081 C2091 0.930 . S
C2082 H2076 0.930 . S
C2082 C2083 1.355 . S
C2082 C2084 1.415 . S
C2083 C2082 1.355 . S
C2083 C2085 1.419 . S
C2084 C2082 1.415 . S
C2084 C2089 1.425 . S
C2084 C2091 1.409 . S
C2085 H2077 0.930 . S
C2085 C2083 1.419 . S
C2085 C2086 1.362 . S
C2086 H2078 0.930 . S
C2086 C2085 1.362 . S
C2086 C2089 1.409 . S
C2087 H2079 0.930 . S
C2087 C2088 1.355 . S
C2087 C2089 1.415 . S
C2088 C2087 1.355 . S
C2088 C2090 1.419 . S
C2089 C2084 1.425 . S
C2089 C2086 1.409 . S
C2089 C2087 1.415 . S
C2090 H2080 0.930 . S
C2090 C2088 1.419 . S
C2090 C2091 1.362 . S
C2091 H2081 0.930 . S
C2091 C2084 1.409 . S
C2091 C2090 1.362 . S
H2092 C2098 0.930 . S
H2093 C2101 0.930 . S
H2094 C2102 0.930 . S
H2095 C2103 0.930 . S
H2096 C2106 0.930 . S
H2097 C2107 0.930 . S
C2098 H2092 0.930 . S
C2098 C2099 1.355 . S
C2098 C2100 1.415 . S
C2099 C2098 1.355 . S
C2099 C2101 1.419 . S
C2100 C2098 1.415 . S
C2100 C2105 1.425 . S
C2100 C2107 1.409 . S
C2101 H2093 0.930 . S
C2101 C2099 1.419 . S
C2101 C2102 1.362 . S
C2102 H2094 0.930 . S
C2102 C2101 1.362 . S
C2102 C2105 1.409 . S
C2103 H2095 0.930 . S
C2103 C2104 1.355 . S
C2103 C2105 1.415 . S
C2104 C2103 1.355 . S
C2104 C2106 1.419 . S
C2105 C2100 1.425 . S
C2105 C2102 1.409 . S
C2105 C2103 1.415 . S
C2106 H2096 0.930 . S
C2106 C2104 1.419 . S
C2106 C2107 1.362 . S
C2107 H2097 0.930 . S
C2107 C2100 1.409 . S
C2107 C2106 1.362 . S
H2108 C2114 0.930 . S
H2109 C2117 0.930 . S
H2110 C2118 0.930 . S
H2111 C2119 0.930 . S
H2112 C2122 0.930 . S
H2113 C2123 0.930 . S
C2114 H2108 0.930 . S
C2114 C2115 1.355 . S
C2114 C2116 1.415 . S
C2115 C2114 1.355 . S
C2115 C2117 1.419 . S
C2116 C2114 1.415 . S
C2116 C2121 1.425 . S
C2116 C2123 1.409 . S
C2117 H2109 0.930 . S
C2117 C2115 1.419 . S
C2117 C2118 1.362 . S
C2118 H2110 0.930 . S
C2118 C2117 1.362 . S
C2118 C2121 1.409 . S
C2119 H2111 0.930 . S
C2119 C2120 1.355 . S
C2119 C2121 1.415 . S
C2120 C2119 1.355 . S
C2120 C2122 1.419 . S
C2121 C2116 1.425 . S
C2121 C2118 1.409 . S
C2121 C2119 1.415 . S
C2122 H2112 0.930 . S
C2122 C2120 1.419 . S
C2122 C2123 1.362 . S
C2123 H2113 0.930 . S
C2123 C2116 1.409 . S
C2123 C2122 1.362 . S
H2124 C2130 0.930 . S
H2125 C2133 0.930 . S
H2126 C2134 0.930 . S
H2127 C2135 0.930 . S
H2128 C2138 0.930 . S
H2129 C2139 0.930 . S
C2130 H2124 0.930 . S
C2130 C2131 1.355 . S
C2130 C2132 1.415 . S
C2131 C2130 1.355 . S
C2131 C2133 1.419 . S
C2132 C2130 1.415 . S
C2132 C2137 1.425 . S
C2132 C2139 1.409 . S
C2133 H2125 0.930 . S
C2133 C2131 1.419 . S
C2133 C2134 1.362 . S
C2134 H2126 0.930 . S
C2134 C2133 1.362 . S
C2134 C2137 1.409 . S
C2135 H2127 0.930 . S
C2135 C2136 1.355 . S
C2135 C2137 1.415 . S
C2136 C2135 1.355 . S
C2136 C2138 1.419 . S
C2137 C2132 1.425 . S
C2137 C2134 1.409 . S
C2137 C2135 1.415 . S
C2138 H2128 0.930 . S
C2138 C2136 1.419 . S
C2138 C2139 1.362 . S
C2139 H2129 0.930 . S
C2139 C2132 1.409 . S
C2139 C2138 1.362 . S
H2140 C2146 0.930 . S
H2141 C2149 0.930 . S
H2142 C2150 0.930 . S
H2143 C2151 0.930 . S
H2144 C2154 0.930 . S
H2145 C2155 0.930 . S
C2146 H2140 0.930 . S
C2146 C2147 1.355 . S
C2146 C2148 1.415 . S
C2147 C2146 1.355 . S
C2147 C2149 1.419 . S
C2148 C2146 1.415 . S
C2148 C2153 1.425 . S
C2148 C2155 1.409 . S
C2149 H2141 0.930 . S
C2149 C2147 1.419 . S
C2149 C2150 1.362 . S
C2150 H2142 0.930 . S
C2150 C2149 1.362 . S
C2150 C2153 1.409 . S
C2151 H2143 0.930 . S
C2151 C2152 1.355 . S
C2151 C2153 1.415 . S
C2152 C2151 1.355 . S
C2152 C2154 1.419 . S
C2153 C2148 1.425 . S
C2153 C2150 1.409 . S
C2153 C2151 1.415 . S
C2154 H2144 0.930 . S
C2154 C2152 1.419 . S
C2154 C2155 1.362 . S
C2155 H2145 0.930 . S
C2155 C2148 1.409 . S
C2155 C2154 1.362 . S
H2156 C2162 0.930 . S
H2157 C2165 0.930 . S
H2158 C2166 0.930 . S
H2159 C2167 0.930 . S
H2160 C2170 0.930 . S
H2161 C2171 0.930 . S
C2162 H2156 0.930 . S
C2162 C2163 1.355 . S
C2162 C2164 1.415 . S
C2163 C2162 1.355 . S
C2163 C2165 1.419 . S
C2164 C2162 1.415 . S
C2164 C2169 1.425 . S
C2164 C2171 1.409 . S
C2165 H2157 0.930 . S
C2165 C2163 1.419 . S
C2165 C2166 1.362 . S
C2166 H2158 0.930 . S
C2166 C2165 1.362 . S
C2166 C2169 1.409 . S
C2167 H2159 0.930 . S
C2167 C2168 1.355 . S
C2167 C2169 1.415 . S
C2168 C2167 1.355 . S
C2168 C2170 1.419 . S
C2169 C2164 1.425 . S
C2169 C2166 1.409 . S
C2169 C2167 1.415 . S
C2170 H2160 0.930 . S
C2170 C2168 1.419 . S
C2170 C2171 1.362 . S
C2171 H2161 0.930 . S
C2171 C2164 1.409 . S
C2171 C2170 1.362 . S
H2172 C2178 0.930 . S
H2173 C2181 0.930 1_545 S
H2174 C2182 0.930 . S
H2175 C2183 0.930 . S
H2176 C2186 0.930 . S
H2177 C2187 0.930 . S
C2178 H2172 0.930 . S
C2178 C2179 1.355 1_565 S
C2178 C2180 1.415 . S
C2179 C2178 1.355 1_545 S
C2179 C2181 1.419 1_545 S
C2180 C2178 1.415 . S
C2180 C2185 1.425 . S
C2180 C2187 1.409 . S
C2181 H2173 0.930 1_565 S
C2181 C2179 1.419 1_565 S
C2181 C2182 1.362 . S
C2182 H2174 0.930 . S
C2182 C2181 1.362 . S
C2182 C2185 1.409 . S
C2183 H2175 0.930 . S
C2183 C2184 1.355 . S
C2183 C2185 1.415 . S
C2184 C2183 1.355 . S
C2184 C2186 1.419 . S
C2185 C2180 1.425 . S
C2185 C2182 1.409 . S
C2185 C2183 1.415 . S
C2186 H2176 0.930 . S
C2186 C2184 1.419 . S
C2186 C2187 1.362 . S
C2187 H2177 0.930 . S
C2187 C2180 1.409 . S
C2187 C2186 1.362 . S
H2188 C2194 0.955 . S
H2189 C2197 0.930 . S
H2190 C2198 0.930 . S
H2191 C2199 0.930 . S
H2192 C2202 0.930 . S
H2193 C2203 0.930 . S
C2194 H2188 0.955 . S
C2194 C2195 1.355 . S
C2194 C2196 1.415 . S
C2195 C2194 1.355 . S
C2195 C2197 1.419 . S
C2196 C2194 1.415 . S
C2196 C2201 1.425 . S
C2196 C2203 1.409 . S
C2197 H2189 0.930 . S
C2197 C2195 1.419 . S
C2197 C2198 1.362 . S
C2198 H2190 0.930 . S
C2198 C2197 1.362 . S
C2198 C2201 1.409 . S
C2199 H2191 0.930 . S
C2199 C2200 1.355 . S
C2199 C2201 1.415 . S
C2200 C2199 1.355 . S
C2200 C2202 1.419 . S
C2201 C2196 1.425 . S
C2201 C2198 1.409 . S
C2201 C2199 1.415 . S
C2202 H2192 0.930 . S
C2202 C2200 1.419 . S
C2202 C2203 1.362 . S
C2203 H2193 0.930 . S
C2203 C2196 1.409 . S
C2203 C2202 1.362 . S
H2204 C2210 0.930 . S
H2205 C2213 0.930 . S
H2206 C2214 0.930 . S
H2207 C2215 0.930 . S
H2208 C2218 0.930 . S
H2209 C2219 0.930 . S
C2210 H2204 0.930 . S
C2210 C2211 1.355 . S
C2210 C2212 1.415 . S
C2211 C2210 1.355 . S
C2211 C2213 1.419 . S
C2212 C2210 1.415 . S
C2212 C2217 1.425 . S
C2212 C2219 1.409 . S
C2213 H2205 0.930 . S
C2213 C2211 1.419 . S
C2213 C2214 1.362 . S
C2214 H2206 0.930 . S
C2214 C2213 1.362 . S
C2214 C2217 1.409 . S
C2215 H2207 0.930 . S
C2215 C2216 1.355 . S
C2215 C2217 1.415 . S
C2216 C2215 1.355 . S
C2216 C2218 1.419 . S
C2217 C2212 1.425 . S
C2217 C2214 1.409 . S
C2217 C2215 1.415 . S
C2218 H2208 0.930 . S
C2218 C2216 1.419 . S
C2218 C2219 1.362 . S
C2219 H2209 0.930 . S
C2219 C2212 1.409 . S
C2219 C2218 1.362 . S
H2220 C2226 0.930 . S
H2221 C2229 0.930 . S
H2222 C2230 0.930 . S
H2223 C2231 0.930 . S
H2224 C2234 0.930 . S
H2225 C2235 0.930 . S
C2226 H2220 0.930 . S
C2226 C2227 1.355 . S
C2226 C2228 1.415 . S
C2227 C2226 1.355 . S
C2227 C2229 1.419 . S
C2228 C2226 1.415 . S
C2228 C2233 1.425 . S
C2228 C2235 1.409 . S
C2229 H2221 0.930 . S
C2229 C2227 1.419 . S
C2229 C2230 1.362 . S
C2230 H2222 0.930 . S
C2230 C2229 1.362 . S
C2230 C2233 1.409 . S
C2231 H2223 0.930 . S
C2231 C2232 1.355 . S
C2231 C2233 1.415 . S
C2232 C2231 1.355 . S
C2232 C2234 1.419 . S
C2233 C2228 1.425 . S
C2233 C2230 1.409 . S
C2233 C2231 1.415 . S
C2234 H2224 0.930 . S
C2234 C2232 1.419 . S
C2234 C2235 1.362 . S
C2235 H2225 0.930 . S
C2235 C2228 1.409 . S
C2235 C2234 1.362 . S
H2236 C2242 0.930 . S
H2237 C2245 0.930 . S
H2238 C2246 0.930 . S
H2239 C2247 0.930 . S
H2240 C2250 0.930 . S
H2241 C2251 0.930 . S
C2242 H2236 0.930 . S
C2242 C2243 1.355 . S
C2242 C2244 1.415 . S
C2243 C2242 1.355 . S
C2243 C2245 1.419 . S
C2244 C2242 1.415 . S
C2244 C2249 1.425 . S
C2244 C2251 1.409 . S
C2245 H2237 0.930 . S
C2245 C2243 1.419 . S
C2245 C2246 1.362 . S
C2246 H2238 0.930 . S
C2246 C2245 1.362 . S
C2246 C2249 1.409 . S
C2247 H2239 0.930 . S
C2247 C2248 1.355 . S
C2247 C2249 1.415 . S
C2248 C2247 1.355 . S
C2248 C2250 1.419 . S
C2249 C2244 1.425 . S
C2249 C2246 1.409 . S
C2249 C2247 1.415 . S
C2250 H2240 0.930 . S
C2250 C2248 1.419 . S
C2250 C2251 1.362 . S
C2251 H2241 0.930 . S
C2251 C2244 1.409 . S
C2251 C2250 1.362 . S
H2252 C2258 0.930 . S
H2253 C2261 0.930 . S
H2254 C2262 0.930 . S
H2255 C2263 0.930 . S
H2256 C2266 0.930 . S
H2257 C2267 0.930 . S
C2258 H2252 0.930 . S
C2258 C2259 1.355 . S
C2258 C2260 1.415 . S
C2259 C2258 1.355 . S
C2259 C2261 1.419 . S
C2260 C2258 1.415 . S
C2260 C2265 1.425 . S
C2260 C2267 1.409 . S
C2261 H2253 0.930 . S
C2261 C2259 1.419 . S
C2261 C2262 1.362 . S
C2262 H2254 0.930 . S
C2262 C2261 1.362 . S
C2262 C2265 1.409 . S
C2263 H2255 0.930 . S
C2263 C2264 1.355 . S
C2263 C2265 1.415 . S
C2264 C2263 1.355 . S
C2264 C2266 1.419 . S
C2265 C2260 1.425 . S
C2265 C2262 1.409 . S
C2265 C2263 1.415 . S
C2266 H2256 0.930 . S
C2266 C2264 1.419 . S
C2266 C2267 1.362 . S
C2267 H2257 0.930 . S
C2267 C2260 1.409 . S
C2267 C2266 1.362 . S
H2268 C2274 0.930 . S
H2269 C2277 0.930 . S
H2270 C2278 0.930 . S
H2271 C2279 0.930 . S
H2272 C2282 0.930 . S
H2273 C2283 0.930 . S
C2274 H2268 0.930 . S
C2274 C2275 1.355 1_545 S
C2274 C2276 1.415 . S
C2275 C2274 1.355 1_565 S
C2275 C2277 1.419 . S
C2276 C2274 1.415 . S
C2276 C2281 1.425 . S
C2276 C2283 1.409 . S
C2277 H2269 0.930 . S
C2277 C2275 1.419 . S
C2277 C2278 1.362 1_565 S
C2278 H2270 0.930 . S
C2278 C2277 1.362 1_545 S
C2278 C2281 1.409 . S
C2279 H2271 0.930 . S
C2279 C2280 1.355 . S
C2279 C2281 1.415 . S
C2280 C2279 1.355 . S
C2280 C2282 1.419 . S
C2281 C2276 1.425 . S
C2281 C2278 1.409 . S
C2281 C2279 1.415 . S
C2282 H2272 0.930 . S
C2282 C2280 1.419 . S
C2282 C2283 1.362 . S
C2283 H2273 0.930 . S
C2283 C2276 1.409 . S
C2283 C2282 1.362 . S
H2284 C2290 0.930 . S
H2285 C2293 0.912 1_455 S
H2286 C2294 0.930 . S
H2287 C2295 0.930 . S
H2288 C2298 0.930 . S
H2289 C2299 0.930 . S
C2290 H2284 0.930 . S
C2290 C2291 1.355 . S
C2290 C2292 1.415 . S
C2291 C2290 1.355 . S
C2291 C2293 1.419 . S
C2292 C2290 1.415 . S
C2292 C2297 1.425 . S
C2292 C2299 1.409 . S
C2293 H2285 0.912 1_655 S
C2293 C2291 1.419 . S
C2293 C2294 1.380 . S
C2294 H2286 0.930 . S
C2294 C2293 1.380 . S
C2294 C2297 1.409 . S
C2295 H2287 0.930 . S
C2295 C2296 1.355 . S
C2295 C2297 1.415 . S
C2296 C2295 1.355 . S
C2296 C2298 1.419 . S
C2297 C2292 1.425 . S
C2297 C2294 1.409 . S
C2297 C2295 1.415 . S
C2298 H2288 0.930 . S
C2298 C2296 1.419 . S
C2298 C2299 1.362 . S
C2299 H2289 0.930 . S
C2299 C2292 1.409 . S
C2299 C2298 1.362 . S
H2300 C2306 0.930 . S
H2301 C2309 0.930 . S
H2302 C2310 0.930 . S
H2303 C2311 0.930 . S
H2304 C2314 0.930 . S
H2305 C2315 0.930 . S
C2306 H2300 0.930 . S
C2306 C2307 1.355 . S
C2306 C2308 1.415 . S
C2307 C2306 1.355 . S
C2307 C2309 1.419 . S
C2308 C2306 1.415 . S
C2308 C2313 1.425 . S
C2308 C2315 1.409 . S
C2309 H2301 0.930 . S
C2309 C2307 1.419 . S
C2309 C2310 1.362 . S
C2310 H2302 0.930 . S
C2310 C2309 1.362 . S
C2310 C2313 1.409 . S
C2311 H2303 0.930 . S
C2311 C2312 1.355 . S
C2311 C2313 1.415 . S
C2312 C2311 1.355 . S
C2312 C2314 1.419 . S
C2313 C2308 1.425 . S
C2313 C2310 1.409 . S
C2313 C2311 1.415 . S
C2314 H2304 0.930 . S
C2314 C2312 1.419 . S
C2314 C2315 1.362 . S
C2315 H2305 0.930 . S
C2315 C2308 1.409 . S
C2315 C2314 1.362 . S
H2316 C2322 0.929 1_455 S
H2317 C2325 0.930 . S
H2318 C2326 0.930 . S
H2319 C2327 0.930 . S
H2320 C2330 0.930 . S
H2321 C2331 0.930 . S
C2322 H2316 0.929 1_655 S
C2322 C2323 1.355 . S
C2322 C2324 1.415 . S
C2323 C2322 1.355 . S
C2323 C2325 1.419 . S
C2324 C2322 1.415 . S
C2324 C2329 1.425 . S
C2324 C2331 1.409 . S
C2325 H2317 0.930 . S
C2325 C2323 1.419 . S
C2325 C2326 1.362 . S
C2326 H2318 0.930 . S
C2326 C2325 1.362 . S
C2326 C2329 1.409 . S
C2327 H2319 0.930 . S
C2327 C2328 1.355 . S
C2327 C2329 1.415 . S
C2328 C2327 1.355 . S
C2328 C2330 1.419 . S
C2329 C2324 1.425 . S
C2329 C2326 1.409 . S
C2329 C2327 1.415 . S
C2330 H2320 0.930 . S
C2330 C2328 1.419 . S
C2330 C2331 1.362 . S
C2331 H2321 0.930 . S
C2331 C2324 1.409 . S
C2331 C2330 1.362 . S
H2332 C2338 0.930 . S
H2333 C2341 0.930 . S
H2334 C2342 0.930 . S
H2335 C2343 0.930 . S
H2336 C2346 0.930 . S
H2337 C2347 0.930 . S
C2338 H2332 0.930 . S
C2338 C2339 1.355 . S
C2338 C2340 1.415 . S
C2339 C2338 1.355 . S
C2339 C2341 1.419 . S
C2340 C2338 1.415 . S
C2340 C2345 1.425 . S
C2340 C2347 1.409 . S
C2341 H2333 0.930 . S
C2341 C2339 1.419 . S
C2341 C2342 1.362 . S
C2342 H2334 0.930 . S
C2342 C2341 1.362 . S
C2342 C2345 1.409 . S
C2343 H2335 0.930 . S
C2343 C2344 1.355 . S
C2343 C2345 1.415 . S
C2344 C2343 1.355 . S
C2344 C2346 1.419 . S
C2345 C2340 1.425 . S
C2345 C2342 1.409 . S
C2345 C2343 1.415 . S
C2346 H2336 0.930 . S
C2346 C2344 1.419 . S
C2346 C2347 1.362 . S
C2347 H2337 0.930 . S
C2347 C2340 1.409 . S
C2347 C2346 1.362 . S
H2348 C2354 0.930 . S
H2349 C2357 0.930 . S
H2350 C2358 0.930 . S
H2351 C2359 0.930 . S
H2352 C2362 0.930 . S
H2353 C2363 0.930 . S
C2354 H2348 0.930 . S
C2354 C2355 1.355 1_545 S
C2354 C2356 1.415 . S
C2355 C2354 1.355 1_565 S
C2355 C2357 1.419 . S
C2356 C2354 1.415 . S
C2356 C2361 1.425 . S
C2356 C2363 1.409 . S
C2357 H2349 0.930 . S
C2357 C2355 1.419 . S
C2357 C2358 1.362 1_565 S
C2358 H2350 0.930 . S
C2358 C2357 1.362 1_545 S
C2358 C2361 1.409 . S
C2359 H2351 0.930 . S
C2359 C2360 1.355 . S
C2359 C2361 1.415 . S
C2360 C2359 1.355 . S
C2360 C2362 1.419 . S
C2361 C2356 1.425 . S
C2361 C2358 1.409 . S
C2361 C2359 1.415 . S
C2362 H2352 0.930 . S
C2362 C2360 1.419 . S
C2362 C2363 1.362 . S
C2363 H2353 0.930 . S
C2363 C2356 1.409 . S
C2363 C2362 1.362 . S
H2364 C2370 0.930 . S
H2365 C2373 0.930 . S
H2366 C2374 0.930 . S
H2367 C2375 0.930 . S
H2368 C2378 0.930 . S
H2369 C2379 0.930 . S
C2370 H2364 0.930 . S
C2370 C2371 1.355 . S
C2370 C2372 1.415 . S
C2371 C2370 1.355 . S
C2371 C2373 1.419 . S
C2372 C2370 1.415 . S
C2372 C2377 1.425 . S
C2372 C2379 1.409 . S
C2373 H2365 0.930 . S
C2373 C2371 1.419 . S
C2373 C2374 1.362 . S
C2374 H2366 0.930 . S
C2374 C2373 1.362 . S
C2374 C2377 1.409 . S
C2375 H2367 0.930 . S
C2375 C2376 1.355 . S
C2375 C2377 1.415 . S
C2376 C2375 1.355 . S
C2376 C2378 1.419 . S
C2377 C2372 1.425 . S
C2377 C2374 1.409 . S
C2377 C2375 1.415 . S
C2378 H2368 0.930 . S
C2378 C2376 1.419 . S
C2378 C2379 1.362 . S
C2379 H2369 0.930 . S
C2379 C2372 1.409 . S
C2379 C2378 1.362 . S
H2380 C2386 0.930 . S
H2381 C2389 0.930 . S
H2382 C2390 0.930 . S
H2383 C2391 0.930 . S
H2384 C2394 0.930 . S
H2385 C2395 0.930 . S
C2386 H2380 0.930 . S
C2386 C2387 1.355 . S
C2386 C2388 1.415 . S
C2387 C2386 1.355 . S
C2387 C2389 1.419 . S
C2388 C2386 1.415 . S
C2388 C2393 1.425 . S
C2388 C2395 1.409 . S
C2389 H2381 0.930 . S
C2389 C2387 1.419 . S
C2389 C2390 1.362 . S
C2390 H2382 0.930 . S
C2390 C2389 1.362 . S
C2390 C2393 1.409 . S
C2391 H2383 0.930 . S
C2391 C2392 1.355 . S
C2391 C2393 1.415 . S
C2392 C2391 1.355 . S
C2392 C2394 1.419 . S
C2393 C2388 1.425 . S
C2393 C2390 1.409 . S
C2393 C2391 1.415 . S
C2394 H2384 0.930 . S
C2394 C2392 1.419 . S
C2394 C2395 1.362 . S
C2395 H2385 0.930 . S
C2395 C2388 1.409 . S
C2395 C2394 1.362 . S
H2396 C2402 0.930 . S
H2397 C2405 0.930 . S
H2398 C2406 0.930 . S
H2399 C2407 0.930 . S
H2400 C2410 0.930 . S
H2401 C2411 0.930 . S
C2402 H2396 0.930 . S
C2402 C2403 1.355 . S
C2402 C2404 1.415 . S
C2403 C2402 1.355 . S
C2403 C2405 1.419 . S
C2404 C2402 1.415 . S
C2404 C2409 1.425 . S
C2404 C2411 1.409 . S
C2405 H2397 0.930 . S
C2405 C2403 1.419 . S
C2405 C2406 1.362 . S
C2406 H2398 0.930 . S
C2406 C2405 1.362 . S
C2406 C2409 1.409 . S
C2407 H2399 0.930 . S
C2407 C2408 1.355 . S
C2407 C2409 1.415 . S
C2408 C2407 1.355 . S
C2408 C2410 1.419 . S
C2409 C2404 1.425 . S
C2409 C2406 1.409 . S
C2409 C2407 1.415 . S
C2410 H2400 0.930 . S
C2410 C2408 1.419 . S
C2410 C2411 1.362 . S
C2411 H2401 0.930 . S
C2411 C2404 1.409 . S
C2411 C2410 1.362 . S
H2412 C2418 0.930 . S
H2413 C2421 0.930 . S
H2414 C2422 0.930 . S
H2415 C2423 0.930 . S
H2416 C2426 0.930 1_545 S
H2417 C2427 0.930 1_545 S
C2418 H2412 0.930 . S
C2418 C2419 1.355 . S
C2418 C2420 1.415 . S
C2419 C2418 1.355 . S
C2419 C2421 1.419 . S
C2420 C2418 1.415 . S
C2420 C2425 1.425 . S
C2420 C2427 1.409 . S
C2421 H2413 0.930 . S
C2421 C2419 1.419 . S
C2421 C2422 1.362 . S
C2422 H2414 0.930 . S
C2422 C2421 1.362 . S
C2422 C2425 1.409 . S
C2423 H2415 0.930 . S
C2423 C2424 1.355 . S
C2423 C2425 1.415 . S
C2424 C2423 1.355 . S
C2424 C2426 1.419 . S
C2425 C2420 1.425 . S
C2425 C2422 1.409 . S
C2425 C2423 1.415 . S
C2426 H2416 0.930 1_565 S
C2426 C2424 1.419 . S
C2426 C2427 1.362 . S
C2427 H2417 0.930 1_565 S
C2427 C2420 1.409 . S
C2427 C2426 1.362 . S
H2428 C2434 0.930 . S
H2429 C2437 0.930 . S
H2430 C2438 0.930 . S
H2431 C2439 0.930 . S
H2432 C2442 0.930 . S
H2433 C2443 0.930 . S
C2434 H2428 0.930 . S
C2434 C2435 1.355 . S
C2434 C2436 1.415 . S
C2435 C2434 1.355 . S
C2435 C2437 1.419 . S
C2436 C2434 1.415 . S
C2436 C2441 1.425 . S
C2436 C2443 1.409 . S
C2437 H2429 0.930 . S
C2437 C2435 1.419 . S
C2437 C2438 1.362 . S
C2438 H2430 0.930 . S
C2438 C2437 1.362 . S
C2438 C2441 1.409 . S
C2439 H2431 0.930 . S
C2439 C2440 1.355 . S
C2439 C2441 1.415 . S
C2440 C2439 1.355 . S
C2440 C2442 1.419 . S
C2441 C2436 1.425 . S
C2441 C2438 1.409 . S
C2441 C2439 1.415 . S
C2442 H2432 0.930 . S
C2442 C2440 1.419 . S
C2442 C2443 1.362 . S
C2443 H2433 0.930 . S
C2443 C2436 1.409 . S
C2443 C2442 1.362 . S
H2444 C2450 0.930 . S
H2445 C2453 0.930 . S
H2446 C2454 0.930 . S
H2447 C2455 0.930 . S
H2448 C2458 0.930 . S
H2449 C2459 0.930 . S
C2450 H2444 0.930 . S
C2450 C2451 1.355 . S
C2450 C2452 1.415 . S
C2451 C2450 1.355 . S
C2451 C2453 1.419 . S
C2452 C2450 1.415 . S
C2452 C2457 1.425 . S
C2452 C2459 1.409 . S
C2453 H2445 0.930 . S
C2453 C2451 1.419 . S
C2453 C2454 1.362 . S
C2454 H2446 0.930 . S
C2454 C2453 1.362 . S
C2454 C2457 1.409 . S
C2455 H2447 0.930 . S
C2455 C2456 1.355 . S
C2455 C2457 1.415 . S
C2456 C2455 1.355 . S
C2456 C2458 1.419 . S
C2457 C2452 1.425 . S
C2457 C2454 1.409 . S
C2457 C2455 1.415 . S
C2458 H2448 0.930 . S
C2458 C2456 1.419 . S
C2458 C2459 1.362 . S
C2459 H2449 0.930 . S
C2459 C2452 1.409 . S
C2459 C2458 1.362 . S
H2460 C2466 0.930 . S
H2461 C2469 0.930 . S
H2462 C2470 0.930 . S
H2463 C2471 0.930 . S
H2464 C2474 0.930 . S
H2465 C2475 0.930 . S
C2466 H2460 0.930 . S
C2466 C2467 1.355 . S
C2466 C2468 1.415 . S
C2467 C2466 1.355 . S
C2467 C2469 1.419 . S
C2468 C2466 1.415 . S
C2468 C2473 1.425 . S
C2468 C2475 1.409 . S
C2469 H2461 0.930 . S
C2469 C2467 1.419 . S
C2469 C2470 1.362 . S
C2470 H2462 0.930 . S
C2470 C2469 1.362 . S
C2470 C2473 1.409 . S
C2471 H2463 0.930 . S
C2471 C2472 1.355 . S
C2471 C2473 1.415 . S
C2472 C2471 1.355 . S
C2472 C2474 1.419 . S
C2473 C2468 1.425 . S
C2473 C2470 1.409 . S
C2473 C2471 1.415 . S
C2474 H2464 0.930 . S
C2474 C2472 1.419 . S
C2474 C2475 1.362 . S
C2475 H2465 0.930 . S
C2475 C2468 1.409 . S
C2475 C2474 1.362 . S
H2476 C2482 0.930 . S
H2477 C2485 0.930 . S
H2478 C2486 0.930 . S
H2479 C2487 0.930 . S
H2480 C2490 0.930 . S
H2481 C2491 0.930 . S
C2482 H2476 0.930 . S
C2482 C2483 1.355 . S
C2482 C2484 1.415 . S
C2483 C2482 1.355 . S
C2483 C2485 1.419 . S
C2484 C2482 1.415 . S
C2484 C2489 1.425 . S
C2484 C2491 1.409 . S
C2485 H2477 0.930 . S
C2485 C2483 1.419 . S
C2485 C2486 1.362 . S
C2486 H2478 0.930 . S
C2486 C2485 1.362 . S
C2486 C2489 1.409 . S
C2487 H2479 0.930 . S
C2487 C2488 1.355 . S
C2487 C2489 1.415 . S
C2488 C2487 1.355 . S
C2488 C2490 1.419 . S
C2489 C2484 1.425 . S
C2489 C2486 1.409 . S
C2489 C2487 1.415 . S
C2490 H2480 0.930 . S
C2490 C2488 1.419 . S
C2490 C2491 1.362 . S
C2491 H2481 0.930 . S
C2491 C2484 1.409 . S
C2491 C2490 1.362 . S
H2492 C2498 0.930 . S
H2493 C2501 0.930 . S
H2494 C2502 0.930 . S
H2495 C2503 0.930 . S
H2496 C2506 0.930 1_565 S
H2497 C2507 0.930 1_565 S
C2498 H2492 0.930 . S
C2498 C2499 1.355 . S
C2498 C2500 1.415 . S
C2499 C2498 1.355 . S
C2499 C2501 1.419 . S
C2500 C2498 1.415 . S
C2500 C2505 1.425 . S
C2500 C2507 1.409 . S
C2501 H2493 0.930 . S
C2501 C2499 1.419 . S
C2501 C2502 1.362 . S
C2502 H2494 0.930 . S
C2502 C2501 1.362 . S
C2502 C2505 1.409 . S
C2503 H2495 0.930 . S
C2503 C2504 1.355 . S
C2503 C2505 1.415 . S
C2504 C2503 1.355 . S
C2504 C2506 1.419 . S
C2505 C2500 1.425 . S
C2505 C2502 1.409 . S
C2505 C2503 1.415 . S
C2506 H2496 0.930 1_545 S
C2506 C2504 1.419 . S
C2506 C2507 1.362 . S
C2507 H2497 0.930 1_545 S
C2507 C2500 1.409 . S
C2507 C2506 1.362 . S
H2508 C2514 0.930 . S
H2509 C2517 0.930 . S
H2510 C2518 0.930 . S
H2511 C2519 0.930 . S
H2512 C2522 0.930 . S
H2513 C2523 0.930 . S
C2514 H2508 0.930 . S
C2514 C2515 1.355 . S
C2514 C2516 1.415 . S
C2515 C2514 1.355 . S
C2515 C2517 1.419 . S
C2516 C2514 1.415 . S
C2516 C2521 1.425 . S
C2516 C2523 1.409 . S
C2517 H2509 0.930 . S
C2517 C2515 1.419 . S
C2517 C2518 1.362 . S
C2518 H2510 0.930 . S
C2518 C2517 1.362 . S
C2518 C2521 1.409 . S
C2519 H2511 0.930 . S
C2519 C2520 1.355 . S
C2519 C2521 1.415 . S
C2520 C2519 1.355 . S
C2520 C2522 1.419 . S
C2521 C2516 1.425 . S
C2521 C2518 1.409 . S
C2521 C2519 1.415 . S
C2522 H2512 0.930 . S
C2522 C2520 1.419 . S
C2522 C2523 1.362 . S
C2523 H2513 0.930 . S
C2523 C2516 1.409 . S
C2523 C2522 1.362 . S
H2524 C2530 0.930 . S
H2525 C2533 0.930 . S
H2526 C2534 0.930 . S
H2527 C2535 0.930 . S
H2528 C2538 0.930 . S
H2529 C2539 0.930 . S
C2530 H2524 0.930 . S
C2530 C2531 1.355 . S
C2530 C2532 1.415 . S
C2531 C2530 1.355 . S
C2531 C2533 1.419 . S
C2532 C2530 1.415 . S
C2532 C2537 1.425 . S
C2532 C2539 1.409 . S
C2533 H2525 0.930 . S
C2533 C2531 1.419 . S
C2533 C2534 1.362 . S
C2534 H2526 0.930 . S
C2534 C2533 1.362 . S
C2534 C2537 1.409 . S
C2535 H2527 0.930 . S
C2535 C2536 1.355 . S
C2535 C2537 1.415 . S
C2536 C2535 1.355 . S
C2536 C2538 1.419 . S
C2537 C2532 1.425 . S
C2537 C2534 1.409 . S
C2537 C2535 1.415 . S
C2538 H2528 0.930 . S
C2538 C2536 1.419 . S
C2538 C2539 1.362 . S
C2539 H2529 0.930 . S
C2539 C2532 1.409 . S
C2539 C2538 1.362 . S
H2540 C2546 0.930 . S
H2541 C2549 0.930 . S
H2542 C2550 0.930 . S
H2543 C2551 0.930 . S
H2544 C2554 0.930 . S
H2545 C2555 0.930 . S
C2546 H2540 0.930 . S
C2546 C2547 1.355 . S
C2546 C2548 1.415 . S
C2547 C2546 1.355 . S
C2547 C2549 1.419 . S
C2548 C2546 1.415 . S
C2548 C2553 1.425 . S
C2548 C2555 1.409 . S
C2549 H2541 0.930 . S
C2549 C2547 1.419 . S
C2549 C2550 1.362 . S
C2550 H2542 0.930 . S
C2550 C2549 1.362 . S
C2550 C2553 1.409 . S
C2551 H2543 0.930 . S
C2551 C2552 1.355 . S
C2551 C2553 1.415 . S
C2552 C2551 1.355 . S
C2552 C2554 1.419 . S
C2553 C2548 1.425 . S
C2553 C2550 1.409 . S
C2553 C2551 1.415 . S
C2554 H2544 0.930 . S
C2554 C2552 1.419 . S
C2554 C2555 1.362 . S
C2555 H2545 0.930 . S
C2555 C2548 1.409 . S
C2555 C2554 1.362 . S
H2556 C2562 0.930 . S
H2557 C2565 0.930 . S
H2558 C2566 0.930 . S
H2559 C2567 0.930 . S
H2560 C2570 0.930 . S
H2561 C2571 0.930 . S
C2562 H2556 0.930 . S
C2562 C2563 1.355 . S
C2562 C2564 1.415 . S
C2563 C2562 1.355 . S
C2563 C2565 1.419 . S
C2564 C2562 1.415 . S
C2564 C2569 1.425 . S
C2564 C2571 1.409 . S
C2565 H2557 0.930 . S
C2565 C2563 1.419 . S
C2565 C2566 1.362 . S
C2566 H2558 0.930 . S
C2566 C2565 1.362 . S
C2566 C2569 1.409 . S
C2567 H2559 0.930 . S
C2567 C2568 1.355 . S
C2567 C2569 1.415 . S
C2568 C2567 1.355 . S
C2568 C2570 1.419 . S
C2569 C2564 1.425 . S
C2569 C2566 1.409 . S
C2569 C2567 1.415 . S
C2570 H2560 0.930 . S
C2570 C2568 1.419 . S
C2570 C2571 1.362 . S
C2571 H2561 0.930 . S
C2571 C2564 1.409 . S
C2571 C2570 1.362 . S
H2572 C2578 0.930 . S
H2573 C2581 0.930 . S
H2574 C2582 0.930 . S
H2575 C2583 0.930 . S
H2576 C2586 0.930 . S
H2577 C2587 0.930 . S
C2578 H2572 0.930 . S
C2578 C2579 1.355 . S
C2578 C2580 1.415 . S
C2579 C2578 1.355 . S
C2579 C2581 1.419 . S
C2580 C2578 1.415 . S
C2580 C2585 1.425 . S
C2580 C2587 1.409 . S
C2581 H2573 0.930 . S
C2581 C2579 1.419 . S
C2581 C2582 1.362 . S
C2582 H2574 0.930 . S
C2582 C2581 1.362 . S
C2582 C2585 1.409 . S
C2583 H2575 0.930 . S
C2583 C2584 1.355 . S
C2583 C2585 1.415 . S
C2584 C2583 1.355 . S
C2584 C2586 1.419 . S
C2585 C2580 1.425 . S
C2585 C2582 1.409 . S
C2585 C2583 1.415 . S
C2586 H2576 0.930 . S
C2586 C2584 1.419 . S
C2586 C2587 1.362 . S
C2587 H2577 0.930 . S
C2587 C2580 1.409 . S
C2587 C2586 1.362 . S
H2588 C2594 0.930 . S
H2589 C2597 0.930 . S
H2590 C2598 0.930 . S
H2591 C2599 0.930 . S
H2592 C2602 0.930 . S
H2593 C2603 0.930 . S
C2594 H2588 0.930 . S
C2594 C2595 1.355 . S
C2594 C2596 1.415 . S
C2595 C2594 1.355 . S
C2595 C2597 1.419 . S
C2596 C2594 1.415 . S
C2596 C2601 1.425 . S
C2596 C2603 1.409 . S
C2597 H2589 0.930 . S
C2597 C2595 1.419 . S
C2597 C2598 1.362 . S
C2598 H2590 0.930 . S
C2598 C2597 1.362 . S
C2598 C2601 1.409 . S
C2599 H2591 0.930 . S
C2599 C2600 1.355 . S
C2599 C2601 1.415 . S
C2600 C2599 1.355 . S
C2600 C2602 1.419 . S
C2601 C2596 1.425 . S
C2601 C2598 1.409 . S
C2601 C2599 1.415 . S
C2602 H2592 0.930 . S
C2602 C2600 1.419 . S
C2602 C2603 1.362 . S
C2603 H2593 0.930 . S
C2603 C2596 1.409 . S
C2603 C2602 1.362 . S
H2604 C2610 0.930 . S
H2605 C2613 0.930 . S
H2606 C2614 0.930 . S
H2607 C2615 0.930 . S
H2608 C2618 0.930 . S
H2609 C2619 0.930 . S
C2610 H2604 0.930 . S
C2610 C2611 1.355 . S
C2610 C2612 1.415 . S
C2611 C2610 1.355 . S
C2611 C2613 1.419 . S
C2612 C2610 1.415 . S
C2612 C2617 1.425 . S
C2612 C2619 1.409 . S
C2613 H2605 0.930 . S
C2613 C2611 1.419 . S
C2613 C2614 1.362 . S
C2614 H2606 0.930 . S
C2614 C2613 1.362 . S
C2614 C2617 1.409 . S
C2615 H2607 0.930 . S
C2615 C2616 1.355 . S
C2615 C2617 1.415 . S
C2616 C2615 1.355 . S
C2616 C2618 1.419 . S
C2617 C2612 1.425 . S
C2617 C2614 1.409 . S
C2617 C2615 1.415 . S
C2618 H2608 0.930 . S
C2618 C2616 1.419 . S
C2618 C2619 1.362 . S
C2619 H2609 0.930 . S
C2619 C2612 1.409 . S
C2619 C2618 1.362 . S
H2620 C2626 0.930 . S
H2621 C2629 0.930 . S
H2622 C2630 0.930 . S
H2623 C2631 0.930 . S
H2624 C2634 0.930 . S
H2625 C2635 0.930 . S
C2626 H2620 0.930 . S
C2626 C2627 1.355 . S
C2626 C2628 1.415 . S
C2627 C2626 1.355 . S
C2627 C2629 1.419 . S
C2628 C2626 1.415 . S
C2628 C2633 1.425 . S
C2628 C2635 1.409 . S
C2629 H2621 0.930 . S
C2629 C2627 1.419 . S
C2629 C2630 1.362 . S
C2630 H2622 0.930 . S
C2630 C2629 1.362 . S
C2630 C2633 1.409 . S
C2631 H2623 0.930 . S
C2631 C2632 1.355 . S
C2631 C2633 1.415 . S
C2632 C2631 1.355 . S
C2632 C2634 1.419 . S
C2633 C2628 1.425 . S
C2633 C2630 1.409 . S
C2633 C2631 1.415 . S
C2634 H2624 0.930 . S
C2634 C2632 1.419 . S
C2634 C2635 1.362 . S
C2635 H2625 0.930 . S
C2635 C2628 1.409 . S
C2635 C2634 1.362 . S
H2636 C2642 0.930 . S
H2637 C2645 0.930 . S
H2638 C2646 0.930 . S
H2639 C2647 0.930 . S
H2640 C2650 0.930 . S
H2641 C2651 0.930 . S
C2642 H2636 0.930 . S
C2642 C2643 1.355 . S
C2642 C2644 1.415 . S
C2643 C2642 1.355 . S
C2643 C2645 1.419 . S
C2644 C2642 1.415 . S
C2644 C2649 1.425 . S
C2644 C2651 1.409 . S
C2645 H2637 0.930 . S
C2645 C2643 1.419 . S
C2645 C2646 1.362 . S
C2646 H2638 0.930 . S
C2646 C2645 1.362 . S
C2646 C2649 1.409 . S
C2647 H2639 0.930 . S
C2647 C2648 1.355 . S
C2647 C2649 1.415 . S
C2648 C2647 1.355 . S
C2648 C2650 1.419 . S
C2649 C2644 1.425 . S
C2649 C2646 1.409 . S
C2649 C2647 1.415 . S
C2650 H2640 0.930 . S
C2650 C2648 1.419 . S
C2650 C2651 1.362 . S
C2651 H2641 0.930 . S
C2651 C2644 1.409 . S
C2651 C2650 1.362 . S
H2652 C2658 0.930 . S
H2653 C2661 0.930 . S
H2654 C2662 0.930 . S
H2655 C2663 0.930 . S
H2656 C2666 0.930 . S
H2657 C2667 0.930 . S
C2658 H2652 0.930 . S
C2658 C2659 1.355 . S
C2658 C2660 1.415 . S
C2659 C2658 1.355 . S
C2659 C2661 1.419 . S
C2660 C2658 1.415 . S
C2660 C2665 1.425 . S
C2660 C2667 1.409 . S
C2661 H2653 0.930 . S
C2661 C2659 1.419 . S
C2661 C2662 1.362 . S
C2662 H2654 0.930 . S
C2662 C2661 1.362 . S
C2662 C2665 1.409 . S
C2663 H2655 0.930 . S
C2663 C2664 1.355 . S
C2663 C2665 1.415 . S
C2664 C2663 1.355 . S
C2664 C2666 1.419 . S
C2665 C2660 1.425 . S
C2665 C2662 1.409 . S
C2665 C2663 1.415 . S
C2666 H2656 0.930 . S
C2666 C2664 1.419 . S
C2666 C2667 1.362 . S
C2667 H2657 0.930 . S
C2667 C2660 1.409 . S
C2667 C2666 1.362 . S
H2668 C2674 0.930 . S
H2669 C2677 0.930 . S
H2670 C2678 0.930 . S
H2671 C2679 0.930 . S
H2672 C2682 0.930 . S
H2673 C2683 0.930 . S
C2674 H2668 0.930 . S
C2674 C2675 1.355 . S
C2674 C2676 1.415 . S
C2675 C2674 1.355 . S
C2675 C2677 1.419 . S
C2676 C2674 1.415 . S
C2676 C2681 1.425 . S
C2676 C2683 1.409 . S
C2677 H2669 0.930 . S
C2677 C2675 1.419 . S
C2677 C2678 1.362 . S
C2678 H2670 0.930 . S
C2678 C2677 1.362 . S
C2678 C2681 1.409 . S
C2679 H2671 0.930 . S
C2679 C2680 1.355 . S
C2679 C2681 1.415 . S
C2680 C2679 1.355 . S
C2680 C2682 1.419 . S
C2681 C2676 1.425 . S
C2681 C2678 1.409 . S
C2681 C2679 1.415 . S
C2682 H2672 0.930 . S
C2682 C2680 1.419 . S
C2682 C2683 1.362 . S
C2683 H2673 0.930 . S
C2683 C2676 1.409 . S
C2683 C2682 1.362 . S
H2684 C2690 0.930 . S
H2685 C2693 0.930 . S
H2686 C2694 0.930 . S
H2687 C2695 0.930 . S
H2688 C2698 0.930 . S
H2689 C2699 0.930 . S
C2690 H2684 0.930 . S
C2690 C2691 1.355 . S
C2690 C2692 1.415 . S
C2691 C2690 1.355 . S
C2691 C2693 1.419 . S
C2692 C2690 1.415 . S
C2692 C2697 1.425 . S
C2692 C2699 1.409 . S
C2693 H2685 0.930 . S
C2693 C2691 1.419 . S
C2693 C2694 1.362 . S
C2694 H2686 0.930 . S
C2694 C2693 1.362 . S
C2694 C2697 1.409 . S
C2695 H2687 0.930 . S
C2695 C2696 1.355 . S
C2695 C2697 1.415 . S
C2696 C2695 1.355 . S
C2696 C2698 1.419 . S
C2697 C2692 1.425 . S
C2697 C2694 1.409 . S
C2697 C2695 1.415 . S
C2698 H2688 0.930 . S
C2698 C2696 1.419 . S
C2698 C2699 1.362 . S
C2699 H2689 0.930 . S
C2699 C2692 1.409 . S
C2699 C2698 1.362 . S
C1843 C781 1.445 . S
C1848 C1136 1.346 . S
C1859 C871 1.422 . S
C1864 C1220 1.395 . S
C1875 C751 1.484 . S
C1880 C1314 1.467 . S
C1891 C691 1.381 . S
C1896 C1230 1.369 . S
C1912 C1304 1.382 . S
C1907 C571 1.401 . S
C1923 C601 1.410 . S
C1928 C1146 1.340 . S
C1944 C1147 1.331 . S
C1939 C661 1.411 . S
C1960 C1231 1.436 . S
C1955 C541 1.430 . S
C1971 C631 1.472 . S
C1976 C1323 1.411 . S
C1987 C811 1.458 . S
C1992 C1239 1.403 . S
C2003 C841 1.350 . S
C2008 C1315 1.381 . S
C2024 C1155 1.375 . S
C2019 C721 1.352 . S
C2040 C1388 1.334 . S
C2035 C61 1.438 1_455 S
C2051 C151 1.440 . S
C2056 C1472 1.421 . S
C2067 C31 1.429 . S
C2072 C1566 1.400 . S
C2083 C1051 1.429 . S
C2088 C1482 1.396 . S
C2099 C931 1.389 . S
C2104 C1556 1.371 . S
C2115 C961 1.425 . S
C2120 C1398 1.422 . S
C2131 C1021 1.398 . S
C2136 C1399 1.339 . S
C2147 C901 1.443 . S
C2152 C1483 1.354 . S
C2168 C1575 1.465 . S
C2163 C991 1.480 . S
C2179 C91 1.453 . S
C2184 C1491 1.427 . S
C2200 C1567 1.383 . S
C2195 C121 1.352 1_455 S
C2211 C1 1.372 . S
C2216 C1407 1.350 . S
C2232 C1640 1.379 . S
C2227 C421 1.447 . S
C2243 C511 1.444 . S
C2248 C1724 1.426 . S
C2264 C1818 1.408 . S
C2259 C391 1.417 . S
C2280 C1734 1.436 . S
C2275 C331 1.442 . S
C2296 C1808 1.322 . S
C2291 C211 1.391 1_655 S
C2307 C241 1.434 . S
C2312 C1650 1.418 . S
C2323 C301 1.372 1_655 S
C2328 C1651 1.384 . S
C2339 C181 1.395 . S
C2344 C1735 1.410 . S
C2360 C1827 1.474 . S
C2355 C271 1.488 . S
C2371 C451 1.436 . S
C2376 C1743 1.364 . S
C2387 C481 1.371 . S
C2392 C1819 1.300 . S
C2403 C361 1.387 . S
C2408 C1659 1.412 . S
C2419 C920 1.422 . S
C2424 C1143 1.310 . S
C2440 C1227 1.403 . S
C2435 C980 1.503 . S
C2451 C1040 1.455 . S
C2456 C1320 1.382 . S
C2467 C380 1.465 . S
C2472 C1236 1.363 . S
C2483 C440 1.435 . S
C2488 C1311 1.376 . S
C2504 C1152 1.299 . S
C2499 C500 1.429 . S
C2515 C200 1.415 . S
C2520 C1395 1.332 . S
C2531 C260 1.510 . S
C2536 C1479 1.359 . S
C2547 C320 1.430 . S
C2552 C1572 1.291 . S
C2563 C740 1.501 . S
C2568 C1488 1.398 . S
C2584 C1563 1.293 . S
C2579 C800 1.451 . S
C2595 C860 1.463 . S
C2600 C1404 1.398 . S
C2611 C560 1.419 . S
C2616 C1647 1.379 . S
C2627 C620 1.468 . S
C2632 C1731 1.356 . S
C2648 C1824 1.389 . S
C2643 C680 1.479 . S
C2659 C20 1.470 . S
C2664 C1740 1.321 . S
C2675 C80 1.476 . S
C2680 C1815 1.379 . S
C2691 C140 1.421 . S
C2696 C1656 1.328 . S
