# Generated by pormake.
# Topology anh, (6,3)-cn, num edge types: 1
# Building blocks:
#     Node 0, Type 0, BuildingBlock: HISSIN_clean_sbu_0, # of connection points: 6
#     Node 1, Type 0, BuildingBlock: HISSIN_clean_sbu_0, # of connection points: 6
#     Node 2, Type 0, BuildingBlock: HISSIN_clean_sbu_0, # of connection points: 6
#     Node 3, Type 1, BuildingBlock: VETTIZ_charged_linker_0, # of connection points: 3
#     Node 4, Type 1, BuildingBlock: VETTIZ_charged_linker_0, # of connection points: 3
#     Node 5, Type 1, BuildingBlock: VETTIZ_charged_linker_0, # of connection points: 3
#     Node 6, Type 1, BuildingBlock: VETTIZ_charged_linker_0, # of connection points: 3
#     Node 7, Type 1, BuildingBlock: VETTIZ_charged_linker_0, # of connection points: 3
#     Node 8, Type 1, BuildingBlock: VETTIZ_charged_linker_0, # of connection points: 3
#     Edge 9, Type (0, 1), BuildingBlock: EZIPEK_clean_linker_0, # of connection points: 2
#     Edge 10, Type (0, 1), BuildingBlock: EZIPEK_clean_linker_0, # of connection points: 2
#     Edge 11, Type (0, 1), BuildingBlock: EZIPEK_clean_linker_0, # of connection points: 2
#     Edge 12, Type (0, 1), BuildingBlock: EZIPEK_clean_linker_0, # of connection points: 2
#     Edge 13, Type (0, 1), BuildingBlock: EZIPEK_clean_linker_0, # of connection points: 2
#     Edge 14, Type (0, 1), BuildingBlock: EZIPEK_clean_linker_0, # of connection points: 2
#     Edge 15, Type (0, 1), BuildingBlock: EZIPEK_clean_linker_0, # of connection points: 2
#     Edge 16, Type (0, 1), BuildingBlock: EZIPEK_clean_linker_0, # of connection points: 2
#     Edge 17, Type (0, 1), BuildingBlock: EZIPEK_clean_linker_0, # of connection points: 2
#     Edge 18, Type (0, 1), BuildingBlock: EZIPEK_clean_linker_0, # of connection points: 2
#     Edge 19, Type (0, 1), BuildingBlock: EZIPEK_clean_linker_0, # of connection points: 2
#     Edge 20, Type (0, 1), BuildingBlock: EZIPEK_clean_linker_0, # of connection points: 2
#     Edge 21, Type (0, 1), BuildingBlock: EZIPEK_clean_linker_0, # of connection points: 2
#     Edge 22, Type (0, 1), BuildingBlock: EZIPEK_clean_linker_0, # of connection points: 2
#     Edge 23, Type (0, 1), BuildingBlock: EZIPEK_clean_linker_0, # of connection points: 2
#     Edge 24, Type (0, 1), BuildingBlock: EZIPEK_clean_linker_0, # of connection points: 2
#     Edge 25, Type (0, 1), BuildingBlock: EZIPEK_clean_linker_0, # of connection points: 2
#     Edge 26, Type (0, 1), BuildingBlock: EZIPEK_clean_linker_0, # of connection points: 2
# Relax obj value: 0.303
# Max RMSD: 0.199
# Mean RMSD: 0.166
data_MOF--net-anh--node1-HISSIN_clean_sbu_0--node2-VETTIZ_charged_linker_0--edge1-EZIPEK_clean_linker_0
_symmetry_space_group_name_H-M    P1
_symmetry_Int_Tables_number       1
_symmetry_cell_setting            triclinic
loop_
_symmetry_equiv_pos_as_xyz
'x, y, z'
_cell_length_a     28.694652
_cell_length_b     28.869341
_cell_length_c     52.894374
_cell_angle_alpha  92.296754
_cell_angle_beta   90.396053
_cell_angle_gamma 120.08741
loop_
_atom_site_label
_atom_site_type_symbol
_atom_site_fract_x
_atom_site_fract_y
_atom_site_fract_z
_atom_type_partial_charge
Eu0 Eu 1.04107 0.48078 0.15764 0.0
Eu1 Eu 1.10679 0.60627 0.15808 0.0
C2 C 1.07534 0.55029 0.21183 0.0
C3 C 0.92078 0.34827 0.15549 0.0
C4 C 0.89653 0.3704 0.17095 0.0
C5 C 0.83203 0.27786 0.14046 0.0
C6 C 0.84093 0.3468 0.17115 0.0
C7 C 0.8883 0.30211 0.14002 0.0
C8 C 0.8084 0.30034 0.15612 0.0
C9 C 0.97968 0.37721 0.15404 0.0
O10 O 0.17736 0.58809 0.16091 0.0
O11 O 0.12941 0.49765 0.15187 0.0
C12 C 0.17707 0.54245 0.15562 0.0
O13 O 1.02839 0.50735 0.11973 0.0
O14 O 0.16574 0.68872 0.1698 0.0
O15 O 0.11835 0.67173 0.13493 0.0
O16 O 0.11441 0.57102 0.12097 0.0
C17 C 1.07076 0.54028 0.10766 0.0
O18 O 0.97221 0.5001 0.16422 0.0
O19 O 1.01737 0.58787 0.15465 0.0
O20 O 1.09136 0.59467 0.19989 0.0
O21 O 0.99841 0.40606 0.13436 0.0
O22 O 1.00587 0.40341 0.17485 0.0
O23 O 1.05914 0.50393 0.19957 0.0
C24 C 0.21049 0.73321 0.13414 0.0
C25 C 0.23213 0.70266 0.12383 0.0
C26 C 0.29483 0.81382 0.12827 0.0
C27 C 0.28646 0.7275 0.11794 0.0
C28 C 0.24075 0.78897 0.13452 0.0
C29 C 0.31951 0.78288 0.12278 0.0
C30 C 0.16085 0.70673 0.14822 0.0
C31 C 0.97082 0.54401 0.159 0.0
H32 H 0.92054 0.40619 0.18293 0.0
H33 H 0.80705 0.24149 0.12899 0.0
H34 H 0.82313 0.36419 0.1835 0.0
H35 H 0.90639 0.28504 0.12768 0.0
H36 H 0.20867 0.65936 0.12277 0.0
H37 H 0.31868 0.85684 0.13142 0.0
H38 H 0.30376 0.70278 0.11277 0.0
H39 H 0.22426 0.81312 0.1419 0.0
Eu40 Eu 0.63039 1.02795 0.48995 0.0
Eu41 Eu 0.56684 0.08798 0.50615 0.0
C42 C 0.61293 1.04433 0.54939 0.0
C43 C 0.72812 0.97682 0.48995 0.0
C44 C 0.76374 1.0193 0.5067 0.0
C45 C 0.77331 0.92791 0.50002 0.0
C46 C 0.80335 1.01551 0.52048 0.0
C47 C 0.73408 0.93186 0.48616 0.0
C48 C 0.80698 0.96892 0.51778 0.0
C49 C 0.68099 0.97614 0.47877 0.0
O50 O 0.65379 0.15846 0.49694 0.0
O51 O 0.7022 0.11561 0.49439 0.0
C52 C 0.70136 0.16118 0.49443 0.0
O53 O 0.61608 1.0548 0.45279 0.0
O54 O 0.56391 0.14679 0.53222 0.0
O55 O 0.5049 0.11003 0.50134 0.0
O56 O 0.55343 0.07806 0.46434 0.0
C57 C 0.581 1.06944 0.44718 0.0
O58 O 0.53921 0.95917 0.48642 0.0
O59 O 0.49486 1.00003 0.50338 0.0
O60 O 0.5753 1.05487 0.54274 0.0
O61 O 0.63919 0.95768 0.49306 0.0
O62 O 0.68986 1.0194 0.46791 0.0
O63 O 0.64398 1.03984 0.53256 0.0
C64 C 0.54636 0.204 0.50896 0.0
C65 C 0.54633 0.21222 0.48285 0.0
C66 C 0.60428 0.29971 0.51704 0.0
C67 C 0.57661 0.2637 0.4739 0.0
C68 C 0.57356 0.24855 0.526 0.0
C69 C 0.60775 0.3072 0.49094 0.0
C70 C 0.52836 0.15011 0.51805 0.0
C71 C 0.49322 0.9559 0.49375 0.0
H72 H 0.75922 1.05412 0.50999 0.0
H73 H 0.77556 0.89159 0.49791 0.0
H74 H 0.82876 1.04717 0.53431 0.0
H75 H 0.70669 0.8987 0.47343 0.0
H76 H 0.5257 0.17871 0.46918 0.0
H77 H 0.62764 0.33321 0.53043 0.0
H78 H 0.5783 0.26919 0.45373 0.0
H79 H 0.57427 0.24334 0.54615 0.0
Eu80 Eu 0.58225 0.50937 0.82014 0.0
Eu81 Eu 0.70176 0.56672 0.84188 0.0
C82 C 0.60689 0.52784 0.87996 0.0
C83 C 0.44034 0.47419 0.81547 0.0
C84 C 0.43819 0.48591 0.84137 0.0
C85 C 0.38602 0.51439 0.80555 0.0
C86 C 0.41235 0.51364 0.84913 0.0
C87 C 0.41215 0.48662 0.7977 0.0
C88 C 0.38832 0.53007 0.83119 0.0
C89 C 0.48062 0.46021 0.80691 0.0
O90 O 0.68643 0.47923 0.83755 0.0
O91 O 0.60036 0.43828 0.82113 0.0
C92 C 0.64305 0.43472 0.82844 0.0
O93 O 0.6314 0.53733 0.78488 0.0
O94 O 0.78535 0.58592 0.84443 0.0
O95 O 0.757 0.62542 0.87057 0.0
O96 O 0.71459 0.55886 0.80086 0.0
C97 C 0.68216 0.5515 0.78176 0.0
O98 O 0.5975 0.59653 0.82288 0.0
O99 O 0.68792 0.63866 0.83193 0.0
O100 O 0.65097 0.52708 0.87514 0.0
O101 O 0.51813 0.49574 0.79318 0.0
O102 O 0.5004 0.44305 0.82412 0.0
O103 O 0.5787 0.53179 0.86149 0.0
C104 C 0.8467 0.67455 0.85786 0.0
C105 C 0.84668 0.70832 0.83942 0.0
C106 C 0.94174 0.73483 0.86624 0.0
C107 C 0.89455 0.75508 0.83418 0.0
C108 C 0.89419 0.68845 0.87146 0.0
C109 C 0.94247 0.76795 0.84733 0.0
C110 C 0.79853 0.62326 0.86222 0.0
C111 C 0.64402 0.64192 0.82649 0.0
H112 H 0.45973 0.47721 0.85557 0.0
H113 H 0.36733 0.52682 0.79155 0.0
H114 H 0.41412 0.52533 0.869 0.0
H115 H 0.41368 0.47835 0.77766 0.0
H116 H 0.81004 0.69789 0.82879 0.0
H117 H 0.97852 0.74422 0.8765 0.0
H118 H 0.89459 0.78025 0.81952 0.0
H119 H 0.89478 0.66273 0.88568 0.0
C120 C 0.55379 0.20938 0.18382 0.0
C121 C 0.60456 0.24952 0.19295 0.0
C122 C 0.61092 0.2694 0.2182 0.0
C123 C 0.52385 0.19437 0.22695 0.0
C124 C 0.51477 0.17969 0.20137 0.0
C125 C 0.46668 0.12458 0.19638 0.0
H126 H 0.44319 0.91238 0.22182 0.0
C127 C 0.4859 0.14829 0.24123 0.0
C128 C 0.45166 0.1067 0.22351 0.0
H129 H 0.35495 0.93263 0.16062 0.0
H130 H 0.35594 1.00722 0.18509 0.0
H131 H 0.52415 1.03859 0.24673 0.0
H132 H 0.39089 0.90741 0.2638 0.0
H133 H 0.36014 0.94631 0.27301 0.0
H134 H 0.41743 0.95197 0.29066 0.0
H135 H 0.50165 0.97133 0.25607 0.0
H136 H 0.51013 1.02194 0.27929 0.0
C137 C 0.48334 0.08901 0.18034 0.0
C138 C 0.42234 0.13045 0.18291 0.0
C139 C 0.53737 0.13323 0.3321 0.0
C140 C 0.51175 0.09061 0.34847 0.0
C141 C 0.46106 1.04603 0.34129 0.0
C142 C 0.43878 1.04151 0.31714 0.0
C143 C 0.46837 0.08103 0.30028 0.0
C144 C 0.5136 0.128 0.30814 0.0
C145 C 0.53053 0.16923 0.28825 0.0
C146 C 0.48884 0.13658 0.2669 0.0
C147 C 0.45576 0.08424 0.2742 0.0
C148 C 0.58943 0.18714 0.28089 0.0
C149 C 0.52299 0.21555 0.29901 0.0
C150 C 0.42396 0.93256 0.2136 0.0
C151 C 0.40171 0.91883 0.18881 0.0
C152 C 0.37444 0.94417 0.17922 0.0
C153 C 0.37527 0.98701 0.19291 0.0
C154 C 0.40455 1.00457 0.21579 0.0
C155 C 0.4216 0.97371 0.22734 0.0
C156 C 0.43774 0.99224 0.25453 0.0
C157 C 0.43125 1.04201 0.2558 0.0
C158 C 0.42126 1.05314 0.23149 0.0
C159 C 0.49685 1.00692 0.25941 0.0
C160 C 0.39926 0.94733 0.27152 0.0
H161 H 0.57717 0.25719 0.25455 0.0
H162 H 0.54837 0.19618 0.16404 0.0
H163 H 0.41379 0.15893 0.19385 0.0
H164 H 0.3842 0.09181 0.18075 0.0
H165 H 0.43508 0.14581 0.16375 0.0
H166 H 0.50113 1.07098 0.19252 0.0
H167 H 0.51342 0.11086 0.166 0.0
H168 H 0.44918 1.05746 0.16877 0.0
H169 H 0.57497 0.16902 0.33773 0.0
H170 H 0.43956 1.01432 0.35418 0.0
H171 H 0.3991 1.0085 0.31204 0.0
H172 H 0.60801 0.16907 0.29254 0.0
H173 H 0.61624 0.23119 0.28357 0.0
H174 H 0.59153 0.17477 0.26099 0.0
H175 H 0.48403 0.19963 0.30875 0.0
H176 H 0.5216 0.24057 0.28408 0.0
H177 H 0.55584 0.24146 0.31301 0.0
H178 H 0.64974 0.30149 0.22537 0.0
C179 C 0.56975 0.24255 0.23521 0.0
C180 C 0.89436 0.82721 0.55166 0.0
C181 C 0.90183 0.86815 0.56926 0.0
C182 C 0.91417 0.86548 0.59477 0.0
C183 C 0.89441 0.7744 0.58596 0.0
C184 C 0.89102 0.78064 0.56041 0.0
C185 C 0.87589 0.73018 0.54478 0.0
H186 H 0.75065 0.46274 0.53898 0.0
C187 C 0.87659 0.71759 0.58946 0.0
C188 C 0.868 0.69186 0.56537 0.0
H189 H 0.80424 0.5688 0.47717 0.0
H190 H 0.85558 0.64508 0.50671 0.0
H191 H 0.86168 0.52005 0.57244 0.0
H192 H 0.71971 0.53507 0.57456 0.0
H193 H 0.73539 0.52247 0.60494 0.0
H194 H 0.72042 0.4742 0.57962 0.0
H195 H 0.80348 0.47429 0.58913 0.0
H196 H 0.8555 0.53662 0.60412 0.0
C197 C 0.92385 0.74051 0.52795 0.0
C198 C 0.82261 0.71371 0.52986 0.0
C199 C 0.80076 0.64072 0.67391 0.0
C200 C 0.77772 0.58882 0.68284 0.0
C201 C 0.77855 0.54804 0.66765 0.0
C202 C 0.79874 0.55807 0.64318 0.0
C203 C 0.81811 0.60928 0.63387 0.0
C204 C 0.8217 0.65027 0.64964 0.0
C205 C 0.84942 0.70346 0.63755 0.0
C206 C 0.8586 0.68674 0.61122 0.0
C207 C 0.83814 0.63114 0.60896 0.0
C208 C 0.90311 0.74108 0.65243 0.0
C209 C 0.80985 0.72517 0.63699 0.0
C210 C 0.77456 0.5025 0.53195 0.0
C211 C 0.77333 0.5106 0.50607 0.0
C212 C 0.80481 0.56224 0.49716 0.0
C213 C 0.83396 0.60621 0.51435 0.0
C214 C 0.82999 0.59818 0.54053 0.0
C215 C 0.80257 0.54674 0.54889 0.0
C216 C 0.80115 0.54567 0.57729 0.0
C217 C 0.83133 0.60528 0.58467 0.0
C218 C 0.84711 0.63569 0.56302 0.0
C219 C 0.83166 0.51745 0.58636 0.0
C220 C 0.74121 0.51787 0.58469 0.0
H221 H 0.91671 0.81658 0.62308 0.0
H222 H 0.88613 0.82934 0.53185 0.0
H223 H 0.80054 0.6714 0.52304 0.0
H224 H 0.83022 0.73875 0.51329 0.0
H225 H 0.79408 0.71894 0.54214 0.0
H226 H 0.96281 0.77276 0.53653 0.0
H227 H 0.91922 0.75295 0.50893 0.0
H228 H 0.929 0.70503 0.52578 0.0
H229 H 0.80235 0.67311 0.68566 0.0
H230 H 0.76235 0.50817 0.67455 0.0
H231 H 0.79734 0.52537 0.63216 0.0
H232 H 0.91472 0.71896 0.66546 0.0
H233 H 0.9003 0.77235 0.66414 0.0
H234 H 0.93744 0.76083 0.63963 0.0
H235 H 0.77082 0.69496 0.62765 0.0
H236 H 0.82488 0.76209 0.62666 0.0
H237 H 0.80165 0.73441 0.65649 0.0
H238 H 0.92116 0.89746 0.60843 0.0
C239 C 0.91059 0.81842 0.60324 0.0
C240 C 0.32377 0.71152 0.87307 0.0
C241 C 0.34463 0.6811 0.88303 0.0
C242 C 0.35264 0.68219 0.9094 0.0
C243 C 0.30678 0.73232 0.91551 0.0
C244 C 0.3063 0.73812 0.88976 0.0
C245 C 0.28171 0.77146 0.88291 0.0
H246 H 1.0777 0.8058 0.89568 0.0
C247 C 0.27325 0.75175 0.92726 0.0
C248 C 0.2614 0.7782 0.9087 0.0
H249 H 0.21516 0.90066 0.85009 0.0
H250 H 0.2694 0.8745 0.87599 0.0
H251 H 1.0858 0.70381 0.90039 0.0
H252 H 0.15646 0.84753 0.94898 0.0
H253 H 0.13181 0.79242 0.96834 0.0
H254 H 1.08554 0.79989 0.94797 0.0
H255 H 1.04642 0.71939 0.92158 0.0
H256 H 1.07992 0.68431 0.93175 0.0
C257 C 0.23502 0.73975 0.86322 0.0
C258 C 0.32626 0.82482 0.87275 0.0
C259 C 0.172 0.65636 0.00487 0.0
C260 C 0.12084 0.64301 0.01364 0.0
C261 C 1.09016 0.66097 0.00073 0.0
C262 C 1.11115 0.69378 0.98017 0.0
C263 C 0.16234 0.70671 0.9716 0.0
C264 C 0.19109 0.68656 0.98337 0.0
C265 C 0.24151 0.69855 0.96968 0.0
C266 C 0.23964 0.73198 0.94847 0.0
C267 C 0.1937 0.73735 0.95015 0.0
C268 C 0.23655 0.64455 0.95997 0.0
C269 C 0.29069 0.73221 0.98777 0.0
C270 C 0.11927 0.82039 0.89084 0.0
C271 C 0.14154 0.85238 0.86995 0.0
C272 C 0.19661 0.87339 0.86514 0.0
C273 C 0.2271 0.85698 0.87915 0.0
C274 C 0.20152 0.81889 0.89736 0.0
C275 C 0.15047 0.80509 0.90461 0.0
C276 C 0.13434 0.77187 0.92759 0.0
C277 C 0.18401 0.76692 0.93216 0.0
C278 C 0.22121 0.79176 0.91324 0.0
C279 C 1.08378 0.71701 0.92021 0.0
C280 C 0.12615 0.80411 0.94945 0.0
H281 H 0.34062 0.70854 0.94577 0.0
H282 H 0.31933 0.7126 0.85279 0.0
H283 H 0.3595 0.8206 0.86441 0.0
H284 H 0.34437 0.85695 0.88804 0.0
H285 H 0.31071 0.83833 0.85713 0.0
H286 H 0.20428 0.7009 0.87062 0.0
H287 H 0.25004 0.73148 0.84529 0.0
H288 H 0.21485 0.76251 0.85837 0.0
H289 H 0.19596 0.64225 0.01419 0.0
H290 H 1.05032 0.65047 0.00698 0.0
H291 H 1.0863 0.70705 0.97148 0.0
H292 H 0.20337 0.60929 0.96883 0.0
H293 H 0.27332 0.6427 0.96453 0.0
H294 H 0.22782 0.63729 0.93924 0.0
H295 H 0.2877 0.76545 -0.00248 0.0
H296 H 0.3289 0.75101 0.97757 0.0
H297 H 0.29323 0.70701 0.00245 0.0
H298 H 0.37046 0.66034 0.91726 0.0
C299 C 0.33413 0.70837 0.92577 0.0
C300 C 0.95282 0.41681 0.48455 0.0
C301 C 0.90466 0.37346 0.47129 0.0
C302 C 0.90112 0.37981 0.44522 0.0
C303 C 0.98886 0.46374 0.44516 0.0
C304 C 0.99438 0.46214 0.47102 0.0
C305 C 1.04859 0.51368 0.4802 0.0
H306 H 0.28248 0.75107 0.43839 0.0
C307 C 1.03755 0.51229 0.43529 0.0
C308 C 1.0742 0.54406 0.45559 0.0
H309 H 0.25546 0.71661 0.51694 0.0
H310 H 0.16955 0.63205 0.50514 0.0
H311 H 0.2509 0.63532 0.41973 0.0
H312 H 0.16615 0.7222 0.42394 0.0
H313 H 0.14509 0.6855 0.39488 0.0
H314 H 0.21554 0.73378 0.40068 0.0
H315 H 0.26028 0.68428 0.39747 0.0
H316 H 0.2101 0.61433 0.39215 0.0
C317 C 1.0861 0.49745 0.49297 0.0
C318 C 1.0362 0.54852 0.49847 0.0
C319 C 1.04648 0.52664 0.3387 0.0
C320 C 1.08532 0.56358 0.32269 0.0
C321 C 0.13185 0.60781 0.33376 0.0
C322 C 0.13996 0.61522 0.36016 0.0
C323 C 1.10128 0.57786 0.37615 0.0
C324 C 1.05543 0.53462 0.36526 0.0
C325 C 1.01882 0.49913 0.38508 0.0
C326 C 1.05057 0.52742 0.40972 0.0
C327 C 1.09872 0.57376 0.40435 0.0
C328 C 1.013 0.443 0.38048 0.0
C329 C 0.96525 0.50008 0.38311 0.0
C330 C 0.2589 0.72618 0.45343 0.0
C331 C 0.27796 0.74285 0.47869 0.0
C332 C 0.24362 0.70663 0.49711 0.0
C333 C 0.19337 0.65731 0.49032 0.0
C334 C 0.17533 0.64209 0.4646 0.0
C335 C 0.20948 0.67765 0.44709 0.0
C336 C 0.18813 0.6588 0.42066 0.0
C337 C 0.13537 0.60717 0.42428 0.0
C338 C 0.12519 0.59442 0.45019 0.0
C339 C 0.22934 0.6479 0.40655 0.0
C340 C 0.17846 0.70218 0.4092 0.0
H341 H 0.9342 0.42221 0.41262 0.0
H342 H 0.95823 0.41515 0.50468 0.0
H343 H 1.00858 0.55959 0.48913 0.0
H344 H 1.07367 0.58599 0.50454 0.0
H345 H 1.0166 0.52649 0.51559 0.0
H346 H 1.09428 0.47172 0.47969 0.0
H347 H 1.06743 0.47469 0.51004 0.0
H348 H 0.12516 0.53343 0.49881 0.0
H349 H 1.01026 0.49216 0.33071 0.0
H350 H 0.16222 0.63672 0.32184 0.0
H351 H 0.17643 0.65002 0.36699 0.0
H352 H 1.05144 0.44658 0.37399 0.0
H353 H 0.98139 0.4187 0.36571 0.0
H354 H 1.00412 0.42017 0.39776 0.0
H355 H 0.97137 0.53769 0.37503 0.0
H356 H 0.94802 0.49956 0.40184 0.0
H357 H 0.93476 0.46609 0.37078 0.0
H358 H 0.86633 0.3498 0.43414 0.0
C359 C 0.94157 0.423 0.4325 0.0
C360 C 0.64775 0.89696 0.81899 0.0
C361 C 0.64321 0.84966 0.80518 0.0
C362 C 0.63359 0.84764 0.77889 0.0
C363 C 0.63706 0.93491 0.77982 0.0
C364 C 0.64383 0.93898 0.80584 0.0
C365 C 0.64546 0.99208 0.81564 0.0
H366 H 0.65413 0.2324 0.77507 0.0
C367 C 0.63732 0.98396 0.77047 0.0
C368 C 0.64154 1.01925 0.79123 0.0
H369 H 0.63402 0.19118 0.85297 0.0
H370 H 0.63616 0.10755 0.84131 0.0
H371 H 0.7363 0.19552 0.76029 0.0
H372 H 0.56465 0.12319 0.75699 0.0
H373 H 0.57871 0.09787 0.72939 0.0
H374 H 0.60655 0.16931 0.73425 0.0
H375 H 0.70108 0.21145 0.73722 0.0
H376 H 0.71658 0.15866 0.73124 0.0
C377 C 0.69852 1.02892 0.83042 0.0
C378 C 0.59691 0.97779 0.8323 0.0
C379 C 0.63046 0.99737 0.67395 0.0
C380 C 0.63337 1.03756 0.65857 0.0
C381 C 0.64025 0.08518 0.67032 0.0
C382 C 0.64351 0.09275 0.69673 0.0
C383 C 0.63956 1.05216 0.7121 0.0
C384 C 0.63367 1.00567 0.70061 0.0
C385 C 0.63159 0.96772 0.71997 0.0
C386 C 0.63646 0.99868 0.74502 0.0
C387 C 0.64064 1.04793 0.7402 0.0
C388 C 0.68097 0.96015 0.71596 0.0
C389 C 0.57593 0.91557 0.71669 0.0
C390 C 0.65036 0.20642 0.7901 0.0
C391 C 0.64426 0.22117 0.81507 0.0
C392 C 0.63932 0.18326 0.83335 0.0
C393 C 0.64026 0.13415 0.82661 0.0
C394 C 0.64516 0.12023 0.80102 0.0
C395 C 0.64926 0.15727 0.78371 0.0
C396 C 0.64848 0.13771 0.7572 0.0
C397 C 0.64395 0.08355 0.76047 0.0
C398 C 0.64327 1.07089 0.78631 0.0
C399 C 0.70306 0.17784 0.74566 0.0
C400 C 0.59742 0.13196 0.74353 0.0
H401 H 0.62422 0.88225 0.74649 0.0
H402 H 0.65453 0.9013 0.83931 0.0
H403 H 0.55867 0.95081 0.8215 0.0
H404 H 0.59607 1.01433 0.83883 0.0
H405 H 0.59869 0.95699 0.8492 0.0
H406 H 0.73342 1.03859 0.81829 0.0
H407 H 0.7021 1.00919 0.84736 0.0
H408 H 0.70054 1.06705 0.83678 0.0
H409 H 0.62564 0.96042 0.66543 0.0
H410 H 0.64293 0.11673 0.6589 0.0
H411 H 0.64875 0.13024 0.704 0.0
H412 H 0.71588 0.99715 0.70911 0.0
H413 H 0.67155 0.92709 0.7017 0.0
H414 H 0.69641 0.95273 0.73361 0.0
H415 H 0.54445 0.924 0.7096 0.0
H416 H 0.56043 0.89628 0.73479 0.0
H417 H 0.57741 0.88626 0.70296 0.0
H418 H 0.62883 0.81357 0.76735 0.0
C419 C 0.63086 0.88859 0.76655 0.0
C420 C 0.71701 0.54528 0.15167 0.0
C421 C 0.76194 0.54538 0.13872 0.0
C422 C 0.75941 0.54515 0.11222 0.0
C423 C 0.6731 0.54423 0.11131 0.0
C424 C 0.67268 0.54484 0.13741 0.0
C425 C 0.61991 0.5441 0.14594 0.0
H426 H 0.38496 0.5494 0.10118 0.0
C427 C 0.62358 0.54337 0.10086 0.0
C428 C 0.59054 0.54368 0.12077 0.0
H429 H 0.41446 0.53673 0.17973 0.0
H430 H 0.49986 0.53873 0.16887 0.0
H431 H 0.50438 0.63301 0.08696 0.0
H432 H 0.40962 0.46132 0.08303 0.0
H433 H 0.44759 0.47758 0.0557 0.0
H434 H 0.4007 0.5013 0.06056 0.0
H435 H 0.44981 0.59587 0.06435 0.0
H436 H 0.51775 0.61198 0.05771 0.0
C437 C 0.63461 0.59456 0.16264 0.0
C438 C 0.58476 0.49315 0.16015 0.0
C439 C 0.60548 0.53611 0.00448 0.0
C440 C 0.56763 0.53624 0.98755 0.0
C441 C 0.52378 0.53936 -0.0026 0.0
C442 C 0.51751 0.54183 0.02372 0.0
C443 C 0.55556 0.54127 0.04064 0.0
C444 C 0.5987 0.53882 0.03073 0.0
C445 C 0.63608 0.54021 0.0511 0.0
C446 C 0.60785 0.54234 0.07511 0.0
C447 C 0.56065 0.54299 0.06896 0.0
C448 C 0.69117 0.5925 0.04858 0.0
C449 C 0.63761 0.48721 0.048 0.0
C450 C 0.40902 0.54718 0.11644 0.0
C451 C 0.39077 0.5433 0.14145 0.0
C452 C 0.42578 0.54024 0.16013 0.0
C453 C 0.47558 0.54119 0.15388 0.0
C454 C 0.49208 0.54439 0.12842 0.0
C455 C 0.45736 0.54671 0.11054 0.0
C456 C 0.47564 0.54612 0.08423 0.0
C457 C 0.52713 0.54424 0.08846 0.0
C458 C 0.53977 0.5439 0.11457 0.0
C459 C 0.48722 0.59915 0.07246 0.0
C460 C 0.43125 0.49431 0.06992 0.0
H461 H 0.71965 0.54387 0.07878 0.0
H462 H 0.7162 0.54504 0.17211 0.0
H463 H 0.57503 0.4569 0.14801 0.0
H464 H 0.54635 0.49074 0.16552 0.0
H465 H 0.60615 0.49269 0.17765 0.0
H466 H 0.66054 0.63117 0.15226 0.0
H467 H 0.6569 0.59572 0.18014 0.0
H468 H 0.5978 0.59544 0.16815 0.0
H469 H 0.6399 0.53431 -0.00259 0.0
H470 H 0.49434 0.53986 0.98465 0.0
H471 H 0.48316 0.54419 0.02982 0.0
H472 H 0.68627 0.62422 0.03974 0.0
H473 H 0.71877 0.58518 0.03667 0.0
H474 H 0.71138 0.61115 0.06713 0.0
H475 H 0.5984 0.4536 0.04033 0.0
H476 H 0.6439 0.47316 0.06616 0.0
H477 H 0.66917 0.49127 0.03476 0.0
H478 H 0.79129 0.54498 0.10141 0.0
C479 C 0.71668 0.54455 0.09887 0.0
C480 C 0.27825 0.57321 0.1695 0.0
C481 C 0.23191 0.54186 0.15285 0.0
C482 C 0.28676 0.50479 0.13259 0.0
C483 C 0.33527 0.54121 0.14683 0.0
N484 N 0.37604 0.61753 0.17648 0.0
N485 N 0.20118 0.48715 0.11395 0.0
C486 C 0.33037 0.5773 0.16466 0.0
C487 C 0.2389 0.51018 0.13324 0.0
N488 N 0.27239 0.59774 0.19084 0.0
N489 N 0.28508 0.46282 0.11893 0.0
H490 H 0.16794 0.49241 0.11245 0.0
H491 H 0.20642 0.46841 0.09785 0.0
H492 H 0.31714 0.45546 0.11887 0.0
H493 H 0.24984 0.43194 0.11022 0.0
H494 H 0.30222 0.61643 0.20506 0.0
H495 H 0.23572 0.59426 0.19576 0.0
H496 H 0.3767 0.64813 0.18786 0.0
H497 H 0.41423 0.62327 0.17301 0.0
C498 C 0.79392 0.22016 0.47218 0.0
C499 C 0.75539 0.21649 0.49038 0.0
C500 C 0.8175 0.31709 0.49868 0.0
C501 C 0.85746 0.31936 0.48177 0.0
N502 N 0.88644 0.26641 0.4578 0.0
N503 N 0.73891 0.26412 0.52437 0.0
C504 C 0.84618 0.2687 0.47035 0.0
C505 C 0.76976 0.26592 0.5045 0.0
N506 N 0.77953 0.17831 0.45497 0.0
N507 N 0.82392 0.36426 0.50871 0.0
H508 H 0.70565 0.22865 0.52969 0.0
H509 H 0.74915 0.29656 0.53704 0.0
H510 H 0.85802 0.4011 0.50563 0.0
H511 H 0.79403 0.36726 0.51844 0.0
H512 H 0.80289 0.18027 0.43962 0.0
H513 H 0.74144 0.14412 0.45404 0.0
H514 H 0.88369 0.23055 0.45129 0.0
H515 H 0.92481 0.29985 0.45649 0.0
C516 C 0.61347 0.71367 0.83737 0.0
C517 C 0.64698 0.6981 0.82347 0.0
C518 C 0.68715 0.78865 0.80423 0.0
C519 C 0.64913 0.80144 0.81538 0.0
N520 N 0.57547 0.77321 0.84343 0.0
N521 N 0.71038 0.7213 0.79018 0.0
C522 C 0.61243 0.76304 0.83235 0.0
C523 C 0.68262 0.73623 0.80621 0.0
N524 N 0.58306 0.68149 0.85598 0.0
N525 N 0.72962 0.82793 0.79213 0.0
H526 H 0.70696 0.68366 0.7902 0.0
H527 H 0.73213 0.74379 0.77515 0.0
H528 H 0.73544 0.86648 0.79098 0.0
H529 H 0.76205 0.82434 0.78586 0.0
H530 H 0.56098 0.69088 0.86855 0.0
H531 H 0.58288 0.64641 0.86012 0.0
H532 H 0.54549 0.74735 0.85511 0.0
H533 H 0.57362 0.80764 0.84022 0.0
C534 C 0.90955 0.58857 0.16482 0.0
C535 C 0.91523 0.54336 0.15685 0.0
C536 C 0.81537 0.49598 0.1461 0.0
C537 C 0.81176 0.54329 0.15018 0.0
N538 N 0.86067 0.63759 0.16124 0.0
N539 N 0.87023 0.45654 0.13438 0.0
C540 C 0.86049 0.59029 0.15899 0.0
C541 C 0.86693 0.4976 0.1463 0.0
N542 N 0.95014 0.62948 0.17913 0.0
N543 N 0.7687 0.44838 0.14198 0.0
H544 H 0.90642 0.45716 0.13172 0.0
H545 H 0.83793 0.4248 0.1243 0.0
H546 H 0.731 0.4456 0.14149 0.0
H547 H 0.76735 0.41174 0.14224 0.0
H548 H 0.94698 0.66098 0.18755 0.0
H549 H 0.98451 0.6288 0.18503 0.0
H550 H 0.89569 0.67456 0.16446 0.0
H551 H 0.8259 0.63988 0.15827 0.0
C552 C 0.43024 0.8517 0.50001 0.0
C553 C 0.43757 0.90098 0.49066 0.0
C554 C 0.3385 0.84809 0.47765 0.0
C555 C 0.33252 0.79786 0.48466 0.0
N556 N 0.37876 0.75352 0.49941 0.0
N557 N 0.39706 0.94063 0.46603 0.0
C558 C 0.38021 0.80049 0.49507 0.0
C559 C 0.39095 0.8974 0.4784 0.0
N560 N 0.47055 0.85376 0.51474 0.0
N561 N 0.29318 0.84945 0.47095 0.0
H562 H 0.43386 0.97619 0.46537 0.0
H563 H 0.36721 0.93946 0.45426 0.0
H564 H 0.25482 0.81552 0.47052 0.0
H565 H 0.29282 0.88484 0.46836 0.0
H566 H 0.46637 0.82149 0.52463 0.0
H567 H 0.50656 0.88929 0.51904 0.0
H568 H 0.41286 0.75122 0.504 0.0
H569 H 0.344 0.71623 0.49635 0.0
C570 C 0.66966 0.36358 0.84381 0.0
C571 C 0.64228 0.37898 0.82594 0.0
C572 C 0.60754 0.28646 0.8052 0.0
C573 C 0.64139 0.27448 0.82051 0.0
N574 N 0.71335 0.3113 0.85214 0.0
N575 N 0.59549 0.35432 0.78516 0.0
C576 C 0.67469 0.31586 0.8392 0.0
C577 C 0.61401 0.33995 0.80551 0.0
N578 N 0.689 0.39289 0.86616 0.0
N579 N 0.56689 0.24593 0.79073 0.0
H580 H 0.6025 0.39301 0.78325 0.0
H581 H 0.57941 0.32976 0.76874 0.0
H582 H 0.55841 0.20634 0.79094 0.0
H583 H 0.53775 0.25045 0.78107 0.0
H584 H 0.7045 0.38122 0.8809 0.0
H585 H 0.68354 0.42505 0.87121 0.0
H586 H 0.74265 0.34217 0.86391 0.0
H587 H 0.71954 0.27893 0.84909 0.0
C588 C 0.81396 0.92887 0.55713 0.0
C589 C 0.83971 0.95835 0.53582 0.0
C590 C 0.91625 0.94508 0.5437 0.0
C591 C 0.8854 0.90673 0.56151 0.0
N592 N 0.80183 0.85785 0.5836 0.0
N593 N 0.9159 0.99745 0.5089 0.0
C594 C 0.83392 0.8983 0.56831 0.0
C595 C 0.89158 0.96815 0.52936 0.0
N596 N 0.76949 0.9289 0.56621 0.0
N597 N 0.96869 0.95865 0.54044 0.0
H598 H 0.89946 1.01648 0.49881 0.0
H599 H 0.95096 1.00118 0.50135 0.0
H600 H 0.98725 0.94208 0.55088 0.0
H601 H 0.99485 0.9892 0.52914 0.0
H602 H 0.75226 0.91251 0.58324 0.0
H603 H 0.753 0.94997 0.55804 0.0
H604 H 0.76149 0.8457 0.5864 0.0
H605 H 0.81351 0.83304 0.59193 0.0
C606 C 1.01994 0.85829 0.85832 0.0
C607 C 0.9953 0.81349 0.84097 0.0
C608 C 1.08227 0.82286 0.83123 0.0
C609 C 1.10438 0.85879 0.85277 0.0
N610 N 1.10318 0.92655 0.87981 0.0
N611 N 1.00318 0.76833 0.80372 0.0
C612 C 1.07626 0.88296 0.86343 0.0
C613 C 1.02706 0.8019 0.82455 0.0
N614 N 0.98838 0.87342 0.87125 0.0
N615 N 1.11245 0.80505 0.81895 0.0
H616 H 0.96237 0.75258 0.79915 0.0
H617 H 1.02406 0.75978 0.79005 0.0
H618 H 0.15349 0.82142 0.8229 0.0
H619 H 1.0971 0.77402 0.80508 0.0
H620 H 1.00248 0.90284 0.88588 0.0
H621 H 0.94712 0.85547 0.86704 0.0
H622 H 1.08603 0.94759 0.88804 0.0
H623 H 0.14448 0.94349 0.88365 0.0
C624 C 0.37771 0.7889 0.15696 0.0
C625 C 0.37589 0.80453 0.13229 0.0
C626 C 0.43055 0.89718 0.14773 0.0
C627 C 0.40815 0.88035 0.1719 0.0
N628 N 0.36266 0.80684 0.20007 0.0
N629 N 0.42147 0.87157 0.1026 0.0
C630 C 0.38413 0.82527 0.17719 0.0
C631 C 0.41217 0.85819 0.12718 0.0
N632 N 0.36686 0.73818 0.16077 0.0
N633 N 0.46645 0.94995 0.14452 0.0
H634 H 0.40556 0.84182 0.08798 0.0
H635 H 0.44316 0.9108 0.09693 0.0
H636 H 0.48011 0.97838 0.15968 0.0
H637 H 0.48543 0.96444 0.12757 0.0
H638 H 0.36877 0.72534 0.17868 0.0
H639 H 0.36154 0.71163 0.14556 0.0
H640 H 0.34038 0.76607 0.20335 0.0
H641 H 0.36335 0.83152 0.21511 0.0
C642 C 0.63517 0.40234 0.48566 0.0
C643 C 0.6471 0.36069 0.48224 0.0
C644 C 0.74315 0.42625 0.47994 0.0
C645 C 0.73192 0.4657 0.4898 0.0
N646 N 0.66882 0.49594 0.49799 0.0
N647 N 0.70942 0.3313 0.47047 0.0
C648 C 0.67819 0.45549 0.4906 0.0
C649 C 0.7002 0.37227 0.47691 0.0
N650 N 0.58262 0.39016 0.4849 0.0
N651 N 0.79507 0.44069 0.47462 0.0
H652 H 0.67843 0.29157 0.46804 0.0
H653 H 0.74724 0.33614 0.46727 0.0
H654 H 0.8264 0.48036 0.47702 0.0
H655 H 0.80678 0.41499 0.46635 0.0
H656 H 0.57049 0.41861 0.48582 0.0
H657 H 0.55102 0.35098 0.48123 0.0
H658 H 0.63092 0.49044 0.50181 0.0
H659 H 0.69986 0.5356 0.50081 0.0
C660 C 0.40826 0.62458 0.83782 0.0
C661 C 0.37154 0.56887 0.83951 0.0
C662 C 0.31364 0.58739 0.86666 0.0
C663 C 0.35198 0.64307 0.86627 0.0
N664 N 0.42936 0.71606 0.84799 0.0
N665 N 0.28477 0.49682 0.85017 0.0
C666 C 0.39707 0.66214 0.8505 0.0
C667 C 0.32264 0.55017 0.85226 0.0
N668 N 0.45504 0.64122 0.82514 0.0
N669 N 0.26917 0.57031 0.88119 0.0
H670 H 0.29055 0.469 0.83951 0.0
H671 H 0.24623 0.48038 0.85723 0.0
H672 H 0.25889 0.59643 0.89039 0.0
H673 H 0.24302 0.53042 0.88488 0.0
H674 H 0.48546 0.68088 0.82439 0.0
H675 H 0.46471 0.61496 0.81564 0.0
H676 H 0.45889 0.7327 0.83456 0.0
H677 H 0.42453 0.74476 0.85837 0.0
C678 C 0.71927 0.29207 0.14703 0.0
C679 C 0.7498 0.27337 0.15966 0.0
C680 C 0.67688 0.22626 0.18862 0.0
C681 C 0.65223 0.25503 0.17975 0.0
N682 N 0.64708 0.31279 0.14962 0.0
N683 N 0.75848 0.2216 0.19205 0.0
C684 C 0.67208 0.28662 0.15837 0.0
C685 C 0.72836 0.23927 0.18005 0.0
N686 N 0.73573 0.31482 0.12428 0.0
N687 N 0.65067 0.1859 0.20487 0.0
H688 H 0.79533 0.22803 0.18545 0.0
H689 H 0.74829 0.20299 0.20923 0.0
H690 H 0.61247 0.17437 0.2115 0.0
H691 H 0.66441 0.16017 0.20984 0.0
H692 H 0.71319 0.32554 0.11294 0.0
H693 H 0.7703 0.31884 0.11586 0.0
H694 H 0.66234 0.3403 0.13551 0.0
H695 H 0.61216 0.30895 0.15751 0.0
C696 C 1.05958 0.59833 0.07798 0.0
C697 C 1.0677 0.55462 0.08142 0.0
C698 C 1.09637 0.56005 0.03766 0.0
C699 C 1.09974 0.61086 0.03649 0.0
N700 N 1.09402 0.68296 0.05861 0.0
N701 N 1.09543 0.49376 0.06484 0.0
C702 C 1.08349 0.6312 0.05741 0.0
C703 C 1.0863 0.53513 0.06126 0.0
N704 N 1.02882 0.60827 0.09435 0.0
N705 N 1.10124 0.53503 0.01622 0.0
H706 H 1.08568 0.47316 0.08154 0.0
H707 H 0.11492 0.48185 0.0518 0.0
H708 H 1.10615 0.55098 -0.00157 0.0
H709 H 1.09486 0.49615 0.01568 0.0
H710 H 1.01879 0.63787 0.09177 0.0
H711 H 1.00759 0.58192 0.10832 0.0
H712 H 1.08708 0.70047 0.07469 0.0
H713 H 0.11526 0.71019 0.04491 0.0
C714 C 0.559 1.03829 0.40125 0.0
C715 C 0.5726 0.07864 0.42069 0.0
C716 C 0.54917 0.12938 0.39243 0.0
C717 C 0.53808 0.09036 0.37263 0.0
N718 N 0.54938 1.01749 0.35611 0.0
N719 N 0.598 0.17038 0.43198 0.0
C720 C 0.54867 1.04802 0.37636 0.0
C721 C 0.5733 0.12678 0.41537 0.0
N722 N 0.55248 0.98951 0.40663 0.0
N723 N 0.53408 0.16702 0.39002 0.0
H724 H 0.61787 0.17052 0.44861 0.0
H725 H 0.60395 0.20792 0.42782 0.0
H726 H 0.51457 0.16934 0.37384 0.0
H727 H 0.53646 0.19273 0.40503 0.0
H728 H 0.53695 0.95708 0.39346 0.0
H729 H 0.55756 0.9796 0.42477 0.0
H730 H 0.56155 0.9892 0.35763 0.0
H731 H 0.54351 1.02454 0.33748 0.0
C732 C 0.75807 0.60487 0.75282 0.0
C733 C 0.70509 0.5612 0.75605 0.0
C734 C 0.6975 0.53927 0.71041 0.0
C735 C 0.75292 0.57766 0.70811 0.0
N736 N 0.83907 0.63734 0.72894 0.0
N737 N 0.62982 0.4786 0.73815 0.0
C738 C 0.78421 0.60751 0.72988 0.0
C739 C 0.67613 0.52599 0.73492 0.0
N740 N 0.78279 0.64537 0.77105 0.0
N741 N 0.66465 0.5168 0.68934 0.0
H742 H 0.61415 0.46536 0.75581 0.0
H743 H 0.61039 0.44964 0.72347 0.0
H744 H 0.67806 0.52682 0.67102 0.0
H745 H 0.62297 0.4925 0.69024 0.0
H746 H 0.81941 0.68013 0.76839 0.0
H747 H 0.76411 0.64753 0.78749 0.0
H748 H 0.86382 0.65584 0.74501 0.0
H749 H 0.86005 0.63867 0.7127 0.0
C750 C 0.57552 0.99912 0.59032 0.0
C751 C 0.62013 1.03738 0.57685 0.0
C752 C 0.67611 1.06365 0.6161 0.0
C753 C 0.62967 1.03159 0.63016 0.0
N754 N 0.53361 0.97202 0.6309 0.0
N755 N 0.71192 0.11098 0.57775 0.0
C756 C 0.57898 0.99979 0.6173 0.0
C757 C 0.67043 1.07056 0.5899 0.0
N758 N 0.53026 0.96103 0.57724 0.0
N759 N 0.72586 0.08725 0.62786 0.0
H760 H 0.7093 0.11848 0.55884 0.0
H761 H 0.74737 0.14016 0.58699 0.0
H762 H 0.73129 0.08277 0.64695 0.0
H763 H 0.76172 0.1067 0.61822 0.0
H764 H 0.49854 0.92879 0.5857 0.0
H765 H 0.52669 0.95857 0.55752 0.0
H766 H 0.49479 0.95345 0.62288 0.0
H767 H 0.53447 0.97067 0.65056 0.0
C768 C 0.56208 0.48146 0.91958 0.0
C769 C 0.59242 0.52971 0.90689 0.0
C770 C 0.60636 0.58226 0.94695 0.0
C771 C 0.57457 0.53406 0.95953 0.0
N772 N 0.51574 0.43829 0.95752 0.0
N773 N 0.63707 0.62603 0.90719 0.0
C774 C 0.55043 0.48377 0.9457 0.0
C775 C 0.61254 0.58013 0.92022 0.0
N776 N 0.54568 0.43341 0.90677 0.0
N777 N 0.632 0.63003 0.96077 0.0
H778 H 0.64379 0.6261 0.88783 0.0
H779 H 0.64744 0.66375 0.91502 0.0
H780 H 0.62696 0.6334 0.98014 0.0
H781 H 0.66081 0.66594 0.95351 0.0
H782 H 0.52885 0.3969 0.91537 0.0
H783 H 0.55169 0.43027 0.88749 0.0
H784 H 0.49221 0.40108 0.94812 0.0
H785 H 0.50757 0.43832 0.9767 0.0
C786 C 1.04342 0.56789 0.25386 0.0
C787 C 1.07646 0.55241 0.24026 0.0
C788 C 1.10774 0.53574 0.28066 0.0
C789 C 1.07895 0.55627 0.2943 0.0
N790 N 1.02407 0.5977 0.29405 0.0
N791 N 0.14634 0.52924 0.24088 0.0
C792 C 1.04796 0.57384 0.28091 0.0
C793 C 1.1101 0.5381 0.25373 0.0
N794 N 1.00616 0.57494 0.24096 0.0
N795 N 0.13211 0.513 0.29348 0.0
H796 H 0.14986 0.53118 0.22129 0.0
H797 H 0.17617 0.52465 0.24975 0.0
H798 H 0.13155 0.51093 0.31313 0.0
H799 H 0.14876 0.49208 0.28458 0.0
H800 H 0.9769 0.58057 0.24975 0.0
H801 H 1.00141 0.57064 0.22128 0.0
H802 H 1.00631 0.6171 0.28545 0.0
H803 H 1.02523 0.60137 0.31377 0.0
loop_
_geom_bond_atom_site_label_1
_geom_bond_atom_site_label_2
_geom_bond_distance
_geom_bond_site_symmetry_2
_ccdc_geom_bond_type
Eu0 C9 2.828 . S
Eu0 O11 2.392 1_655 S
Eu0 O13 2.418 . S
Eu0 O18 2.373 . S
Eu0 O21 2.488 . S
Eu0 O22 2.471 . S
Eu0 O23 2.349 . S
Eu1 O10 2.373 . S
Eu1 O14 2.488 . S
Eu1 O15 2.471 . S
Eu1 O16 2.349 . S
Eu1 O19 2.392 1_455 S
Eu1 O20 2.418 . S
Eu1 C30 2.828 . S
C2 O20 1.244 . S
C2 O23 1.265 1_455 S
C3 C4 1.379 . S
C3 C7 1.373 . S
C3 C9 1.505 . S
C4 C3 1.379 . S
C4 C6 1.369 . S
C4 H32 0.930 . S
C5 C7 1.383 . S
C5 C8 1.382 . S
C5 H33 0.930 . S
C6 C4 1.369 . S
C6 C8 1.392 . S
C6 H34 0.930 . S
C7 C3 1.373 . S
C7 C5 1.383 . S
C7 H35 0.931 . S
C8 C5 1.382 . S
C8 C6 1.392 . S
C9 Eu0 2.828 . S
C9 C3 1.505 . S
C9 O21 1.249 . S
C9 O22 1.244 . S
O10 Eu1 2.373 . S
O10 C12 1.258 . S
O11 Eu0 2.392 1_455 S
O11 C12 1.242 . S
C12 O10 1.258 . S
C12 O11 1.242 . S
O13 Eu0 2.418 . S
O13 C17 1.244 . S
O14 Eu1 2.488 . S
O14 C30 1.249 . S
O15 Eu1 2.471 . S
O15 C30 1.244 . S
O16 Eu1 2.349 . S
O16 C17 1.265 1_455 S
C17 O13 1.244 . S
C17 O16 1.265 1_655 S
O18 Eu0 2.373 . S
O18 C31 1.258 . S
O19 Eu1 2.392 1_655 S
O19 C31 1.242 . S
O20 Eu1 2.418 . S
O20 C2 1.244 . S
O21 Eu0 2.488 . S
O21 C9 1.249 . S
O22 Eu0 2.471 . S
O22 C9 1.244 . S
O23 Eu0 2.349 . S
O23 C2 1.265 1_655 S
C24 C25 1.379 . S
C24 C28 1.373 . S
C24 C30 1.505 . S
C25 C24 1.379 . S
C25 C27 1.369 . S
C25 H36 0.930 . S
C26 C28 1.383 . S
C26 C29 1.382 . S
C26 H37 0.930 . S
C27 C25 1.369 . S
C27 C29 1.392 . S
C27 H38 0.930 . S
C28 C24 1.373 . S
C28 C26 1.383 . S
C28 H39 0.931 . S
C29 C26 1.382 . S
C29 C27 1.392 . S
C30 Eu1 2.828 . S
C30 O14 1.249 . S
C30 O15 1.244 . S
C30 C24 1.505 . S
C31 O18 1.258 . S
C31 O19 1.242 . S
H32 C4 0.930 . S
H33 C5 0.930 . S
H34 C6 0.930 . S
H35 C7 0.931 . S
H36 C25 0.930 . S
H37 C26 0.930 . S
H38 C27 0.930 . S
H39 C28 0.931 . S
Eu40 C49 2.828 . S
Eu40 O51 2.392 1_565 S
Eu40 O53 2.418 . S
Eu40 O58 2.373 . S
Eu40 O61 2.488 . S
Eu40 O62 2.471 . S
Eu40 O63 2.349 . S
Eu41 O50 2.373 . S
Eu41 O54 2.488 . S
Eu41 O55 2.471 . S
Eu41 O56 2.349 . S
Eu41 O59 2.392 1_545 S
Eu41 O60 2.418 . S
Eu41 C70 2.828 . S
C42 O60 1.244 . S
C42 O63 1.265 1_545 S
C43 C44 1.379 . S
C43 C47 1.373 . S
C43 C49 1.505 . S
C44 C43 1.379 . S
C44 C46 1.369 . S
C44 H72 0.930 . S
C45 C47 1.383 . S
C45 C48 1.382 . S
C45 H73 0.930 . S
C46 C44 1.369 . S
C46 C48 1.392 . S
C46 H74 0.930 . S
C47 C43 1.373 . S
C47 C45 1.383 . S
C47 H75 0.931 . S
C48 C45 1.382 . S
C48 C46 1.392 . S
C49 Eu40 2.828 . S
C49 C43 1.505 . S
C49 O61 1.249 . S
C49 O62 1.244 . S
O50 Eu41 2.373 . S
O50 C52 1.258 . S
O51 Eu40 2.392 1_545 S
O51 C52 1.242 . S
C52 O50 1.258 . S
C52 O51 1.242 . S
O53 Eu40 2.418 . S
O53 C57 1.244 1_565 S
O54 Eu41 2.488 . S
O54 C70 1.249 . S
O55 Eu41 2.471 . S
O55 C70 1.244 . S
O56 Eu41 2.349 . S
O56 C57 1.265 . S
C57 O53 1.244 1_545 S
C57 O56 1.265 . S
O58 Eu40 2.373 . S
O58 C71 1.258 . S
O59 Eu41 2.392 1_565 S
O59 C71 1.242 . S
O60 Eu41 2.418 . S
O60 C42 1.244 . S
O61 Eu40 2.488 . S
O61 C49 1.249 . S
O62 Eu40 2.471 . S
O62 C49 1.244 . S
O63 Eu40 2.349 . S
O63 C42 1.265 1_565 S
C64 C65 1.379 . S
C64 C68 1.373 . S
C64 C70 1.505 . S
C65 C64 1.379 . S
C65 C67 1.369 . S
C65 H76 0.930 . S
C66 C68 1.383 . S
C66 C69 1.382 . S
C66 H77 0.930 . S
C67 C65 1.369 . S
C67 C69 1.392 . S
C67 H78 0.930 . S
C68 C64 1.373 . S
C68 C66 1.383 . S
C68 H79 0.931 . S
C69 C66 1.382 . S
C69 C67 1.392 . S
C70 Eu41 2.828 . S
C70 O54 1.249 . S
C70 O55 1.244 . S
C70 C64 1.505 . S
C71 O58 1.258 . S
C71 O59 1.242 . S
H72 C44 0.930 . S
H73 C45 0.930 . S
H74 C46 0.930 . S
H75 C47 0.931 . S
H76 C65 0.930 . S
H77 C66 0.930 . S
H78 C67 0.930 . S
H79 C68 0.931 . S
Eu80 C89 2.828 . S
Eu80 O91 2.392 . S
Eu80 O93 2.418 . S
Eu80 O98 2.373 . S
Eu80 O101 2.488 . S
Eu80 O102 2.471 . S
Eu80 O103 2.349 . S
Eu81 O90 2.373 . S
Eu81 O94 2.488 . S
Eu81 O95 2.471 . S
Eu81 O96 2.349 . S
Eu81 O99 2.392 . S
Eu81 O100 2.418 . S
Eu81 C110 2.828 . S
C82 O100 1.244 . S
C82 O103 1.265 . S
C83 C84 1.379 . S
C83 C87 1.373 . S
C83 C89 1.505 . S
C84 C83 1.379 . S
C84 C86 1.369 . S
C84 H112 0.930 . S
C85 C87 1.383 . S
C85 C88 1.382 . S
C85 H113 0.930 . S
C86 C84 1.369 . S
C86 C88 1.392 . S
C86 H114 0.930 . S
C87 C83 1.373 . S
C87 C85 1.383 . S
C87 H115 0.931 . S
C88 C85 1.382 . S
C88 C86 1.392 . S
C89 Eu80 2.828 . S
C89 C83 1.505 . S
C89 O101 1.249 . S
C89 O102 1.244 . S
O90 Eu81 2.373 . S
O90 C92 1.258 . S
O91 Eu80 2.392 . S
O91 C92 1.242 . S
C92 O90 1.258 . S
C92 O91 1.242 . S
O93 Eu80 2.418 . S
O93 C97 1.244 . S
O94 Eu81 2.488 . S
O94 C110 1.249 . S
O95 Eu81 2.471 . S
O95 C110 1.244 . S
O96 Eu81 2.349 . S
O96 C97 1.265 . S
C97 O93 1.244 . S
C97 O96 1.265 . S
O98 Eu80 2.373 . S
O98 C111 1.258 . S
O99 Eu81 2.392 . S
O99 C111 1.242 . S
O100 Eu81 2.418 . S
O100 C82 1.244 . S
O101 Eu80 2.488 . S
O101 C89 1.249 . S
O102 Eu80 2.471 . S
O102 C89 1.244 . S
O103 Eu80 2.349 . S
O103 C82 1.265 . S
C104 C105 1.379 . S
C104 C108 1.373 . S
C104 C110 1.505 . S
C105 C104 1.379 . S
C105 C107 1.369 . S
C105 H116 0.930 . S
C106 C108 1.383 . S
C106 C109 1.382 . S
C106 H117 0.930 . S
C107 C105 1.369 . S
C107 C109 1.392 . S
C107 H118 0.930 . S
C108 C104 1.373 . S
C108 C106 1.383 . S
C108 H119 0.931 . S
C109 C106 1.382 . S
C109 C107 1.392 . S
C110 Eu81 2.828 . S
C110 O94 1.249 . S
C110 O95 1.244 . S
C110 C104 1.505 . S
C111 O98 1.258 . S
C111 O99 1.242 . S
H112 C84 0.930 . S
H113 C85 0.930 . S
H114 C86 0.930 . S
H115 C87 0.931 . S
H116 C105 0.930 . S
H117 C106 0.930 . S
H118 C107 0.930 . S
H119 C108 0.931 . S
C120 C121 1.391 . S
C120 C124 1.391 . S
C120 H162 0.948 . S
C121 C120 1.391 . S
C121 C122 1.391 . S
C122 C121 1.391 . S
C122 H178 0.947 . S
C122 C179 1.392 . S
C123 C124 1.391 . S
C123 C127 1.397 . S
C123 C179 1.419 . S
C124 C120 1.391 . S
C124 C123 1.391 . S
C124 C125 1.399 . S
C125 C124 1.399 . S
C125 C128 1.396 . S
C125 C137 1.453 . S
C125 C138 1.684 . S
H126 C150 0.948 . S
C127 C123 1.397 . S
C127 C128 1.394 . S
C127 C146 1.723 . S
C128 C125 1.396 . S
C128 C127 1.394 . S
C128 C158 1.723 1_545 S
H129 C152 0.947 . S
H130 C153 0.948 . S
H131 C159 0.982 . S
H132 C160 0.979 . S
H133 C160 0.980 . S
H134 C160 0.983 . S
H135 C159 0.979 . S
H136 C159 0.977 . S
C137 C125 1.453 . S
C137 H166 0.982 . S
C137 H167 0.979 . S
C137 H168 0.977 . S
C138 C125 1.684 . S
C138 H163 0.979 . S
C138 H164 0.980 . S
C138 H165 0.983 . S
C139 C140 1.391 . S
C139 C144 1.391 . S
C139 H169 0.948 . S
C140 C139 1.391 . S
C140 C141 1.391 1_545 S
C141 C140 1.391 1_565 S
C141 C142 1.392 . S
C141 H170 0.947 . S
C142 C141 1.392 . S
C142 C143 1.419 1_565 S
C142 H171 0.948 . S
C143 C142 1.419 1_545 S
C143 C144 1.391 . S
C143 C147 1.397 . S
C144 C139 1.391 . S
C144 C143 1.391 . S
C144 C145 1.399 . S
C145 C144 1.399 . S
C145 C146 1.396 . S
C145 C148 1.453 . S
C145 C149 1.684 . S
C146 C127 1.723 . S
C146 C145 1.396 . S
C146 C147 1.394 . S
C147 C143 1.397 . S
C147 C146 1.394 . S
C147 C157 1.723 1_545 S
C148 C145 1.453 . S
C148 H172 0.982 . S
C148 H173 0.979 . S
C148 H174 0.977 . S
C149 C145 1.684 . S
C149 H175 0.979 . S
C149 H176 0.980 . S
C149 H177 0.983 . S
C150 H126 0.948 . S
C150 C151 1.391 . S
C150 C155 1.391 . S
C151 C150 1.391 . S
C151 C152 1.391 . S
C152 H129 0.947 . S
C152 C151 1.391 . S
C152 C153 1.392 . S
C153 H130 0.948 . S
C153 C152 1.392 . S
C153 C154 1.419 . S
C154 C153 1.419 . S
C154 C155 1.391 . S
C154 C158 1.397 . S
C155 C150 1.391 . S
C155 C154 1.391 . S
C155 C156 1.399 . S
C156 C155 1.399 . S
C156 C157 1.396 . S
C156 C159 1.453 . S
C156 C160 1.684 . S
C157 C147 1.723 1_565 S
C157 C156 1.396 . S
C157 C158 1.394 . S
C158 C128 1.723 1_565 S
C158 C154 1.397 . S
C158 C157 1.394 . S
C159 H131 0.982 . S
C159 H135 0.979 . S
C159 H136 0.977 . S
C159 C156 1.453 . S
C160 H132 0.979 . S
C160 H133 0.980 . S
C160 H134 0.983 . S
C160 C156 1.684 . S
H161 C179 0.948 . S
H162 C120 0.948 . S
H163 C138 0.979 . S
H164 C138 0.980 . S
H165 C138 0.983 . S
H166 C137 0.982 . S
H167 C137 0.979 . S
H168 C137 0.977 . S
H169 C139 0.948 . S
H170 C141 0.947 . S
H171 C142 0.948 . S
H172 C148 0.982 . S
H173 C148 0.979 . S
H174 C148 0.977 . S
H175 C149 0.979 . S
H176 C149 0.980 . S
H177 C149 0.983 . S
H178 C122 0.947 . S
C179 C122 1.392 . S
C179 C123 1.419 . S
C179 H161 0.948 . S
C180 C181 1.391 . S
C180 C184 1.391 . S
C180 H222 0.948 . S
C181 C180 1.391 . S
C181 C182 1.391 . S
C182 C181 1.391 . S
C182 H238 0.947 . S
C182 C239 1.392 . S
C183 C184 1.391 . S
C183 C187 1.397 . S
C183 C239 1.419 . S
C184 C180 1.391 . S
C184 C183 1.391 . S
C184 C185 1.399 . S
C185 C184 1.399 . S
C185 C188 1.396 . S
C185 C197 1.453 . S
C185 C198 1.684 . S
H186 C210 0.948 . S
C187 C183 1.397 . S
C187 C188 1.394 . S
C187 C206 1.723 . S
C188 C185 1.396 . S
C188 C187 1.394 . S
C188 C218 1.723 . S
H189 C212 0.947 . S
H190 C213 0.948 . S
H191 C219 0.982 . S
H192 C220 0.979 . S
H193 C220 0.980 . S
H194 C220 0.983 . S
H195 C219 0.979 . S
H196 C219 0.977 . S
C197 C185 1.453 . S
C197 H226 0.982 . S
C197 H227 0.979 . S
C197 H228 0.977 . S
C198 C185 1.684 . S
C198 H223 0.979 . S
C198 H224 0.980 . S
C198 H225 0.983 . S
C199 C200 1.391 . S
C199 C204 1.391 . S
C199 H229 0.948 . S
C200 C199 1.391 . S
C200 C201 1.391 . S
C201 C200 1.391 . S
C201 C202 1.392 . S
C201 H230 0.947 . S
C202 C201 1.392 . S
C202 C203 1.419 . S
C202 H231 0.948 . S
C203 C202 1.419 . S
C203 C204 1.391 . S
C203 C207 1.397 . S
C204 C199 1.391 . S
C204 C203 1.391 . S
C204 C205 1.399 . S
C205 C204 1.399 . S
C205 C206 1.396 . S
C205 C208 1.453 . S
C205 C209 1.684 . S
C206 C187 1.723 . S
C206 C205 1.396 . S
C206 C207 1.394 . S
C207 C203 1.397 . S
C207 C206 1.394 . S
C207 C217 1.723 . S
C208 C205 1.453 . S
C208 H232 0.982 . S
C208 H233 0.979 . S
C208 H234 0.977 . S
C209 C205 1.684 . S
C209 H235 0.979 . S
C209 H236 0.980 . S
C209 H237 0.983 . S
C210 H186 0.948 . S
C210 C211 1.391 . S
C210 C215 1.391 . S
C211 C210 1.391 . S
C211 C212 1.391 . S
C212 H189 0.947 . S
C212 C211 1.391 . S
C212 C213 1.392 . S
C213 H190 0.948 . S
C213 C212 1.392 . S
C213 C214 1.419 . S
C214 C213 1.419 . S
C214 C215 1.391 . S
C214 C218 1.397 . S
C215 C210 1.391 . S
C215 C214 1.391 . S
C215 C216 1.399 . S
C216 C215 1.399 . S
C216 C217 1.396 . S
C216 C219 1.453 . S
C216 C220 1.684 . S
C217 C207 1.723 . S
C217 C216 1.396 . S
C217 C218 1.394 . S
C218 C188 1.723 . S
C218 C214 1.397 . S
C218 C217 1.394 . S
C219 H191 0.982 . S
C219 H195 0.979 . S
C219 H196 0.977 . S
C219 C216 1.453 . S
C220 H192 0.979 . S
C220 H193 0.980 . S
C220 H194 0.983 . S
C220 C216 1.684 . S
H221 C239 0.948 . S
H222 C180 0.948 . S
H223 C198 0.979 . S
H224 C198 0.980 . S
H225 C198 0.983 . S
H226 C197 0.982 . S
H227 C197 0.979 . S
H228 C197 0.977 . S
H229 C199 0.948 . S
H230 C201 0.947 . S
H231 C202 0.948 . S
H232 C208 0.982 . S
H233 C208 0.979 . S
H234 C208 0.977 . S
H235 C209 0.979 . S
H236 C209 0.980 . S
H237 C209 0.983 . S
H238 C182 0.947 . S
C239 C182 1.392 . S
C239 C183 1.419 . S
C239 H221 0.948 . S
C240 C241 1.391 . S
C240 C244 1.391 . S
C240 H282 0.948 . S
C241 C240 1.391 . S
C241 C242 1.391 . S
C242 C241 1.391 . S
C242 H298 0.947 . S
C242 C299 1.392 . S
C243 C244 1.391 . S
C243 C247 1.397 . S
C243 C299 1.419 . S
C244 C240 1.391 . S
C244 C243 1.391 . S
C244 C245 1.399 . S
C245 C244 1.399 . S
C245 C248 1.396 . S
C245 C257 1.453 . S
C245 C258 1.684 . S
H246 C270 0.948 . S
C247 C243 1.397 . S
C247 C248 1.394 . S
C247 C266 1.723 . S
C248 C245 1.396 . S
C248 C247 1.394 . S
C248 C278 1.723 . S
H249 C272 0.947 . S
H250 C273 0.948 . S
H251 C279 0.982 . S
H252 C280 0.979 . S
H253 C280 0.980 . S
H254 C280 0.983 . S
H255 C279 0.979 . S
H256 C279 0.977 . S
C257 C245 1.453 . S
C257 H286 0.982 . S
C257 H287 0.979 . S
C257 H288 0.977 . S
C258 C245 1.684 . S
C258 H283 0.979 . S
C258 H284 0.980 . S
C258 H285 0.983 . S
C259 C260 1.391 . S
C259 C264 1.391 1_554 S
C259 H289 0.948 . S
C260 C259 1.391 . S
C260 C261 1.391 1_455 S
C261 C260 1.391 1_655 S
C261 C262 1.392 1_554 S
C261 H290 0.947 . S
C262 C261 1.392 1_556 S
C262 C263 1.419 1_655 S
C262 H291 0.948 . S
C263 C262 1.419 1_455 S
C263 C264 1.391 . S
C263 C267 1.397 . S
C264 C259 1.391 1_556 S
C264 C263 1.391 . S
C264 C265 1.399 . S
C265 C264 1.399 . S
C265 C266 1.396 . S
C265 C268 1.453 . S
C265 C269 1.684 . S
C266 C247 1.723 . S
C266 C265 1.396 . S
C266 C267 1.394 . S
C267 C263 1.397 . S
C267 C266 1.394 . S
C267 C277 1.723 1_455 S
C268 C265 1.453 . S
C268 H292 0.982 . S
C268 H293 0.979 . S
C268 H294 0.977 . S
C269 C265 1.684 . S
C269 H295 0.979 . S
C269 H296 0.980 . S
C269 H297 0.983 . S
C270 H246 0.948 . S
C270 C271 1.391 . S
C270 C275 1.391 . S
C271 C270 1.391 . S
C271 C272 1.391 . S
C272 H249 0.947 . S
C272 C271 1.391 . S
C272 C273 1.392 . S
C273 H250 0.948 . S
C273 C272 1.392 . S
C273 C274 1.419 . S
C274 C273 1.419 . S
C274 C275 1.391 . S
C274 C278 1.397 1_655 S
C275 C270 1.391 . S
C275 C274 1.391 . S
C275 C276 1.399 . S
C276 C275 1.399 . S
C276 C277 1.396 . S
C276 C279 1.453 . S
C276 C280 1.684 . S
C277 C267 1.723 1_655 S
C277 C276 1.396 . S
C277 C278 1.394 1_655 S
C278 C248 1.723 . S
C278 C274 1.397 1_455 S
C278 C277 1.394 1_455 S
C279 H251 0.982 . S
C279 H255 0.979 . S
C279 H256 0.977 . S
C279 C276 1.453 . S
C280 H252 0.979 . S
C280 H253 0.980 . S
C280 H254 0.983 . S
C280 C276 1.684 . S
H281 C299 0.948 . S
H282 C240 0.948 . S
H283 C258 0.979 . S
H284 C258 0.980 . S
H285 C258 0.983 . S
H286 C257 0.982 . S
H287 C257 0.979 . S
H288 C257 0.977 . S
H289 C259 0.948 . S
H290 C261 0.947 . S
H291 C262 0.948 . S
H292 C268 0.982 . S
H293 C268 0.979 . S
H294 C268 0.977 . S
H295 C269 0.979 . S
H296 C269 0.980 . S
H297 C269 0.983 . S
H298 C242 0.947 . S
C299 C242 1.392 . S
C299 C243 1.419 . S
C299 H281 0.948 . S
C300 C301 1.391 . S
C300 C304 1.391 . S
C300 H342 0.948 . S
C301 C300 1.391 . S
C301 C302 1.391 . S
C302 C301 1.391 . S
C302 H358 0.947 . S
C302 C359 1.392 . S
C303 C304 1.391 . S
C303 C307 1.397 . S
C303 C359 1.419 . S
C304 C300 1.391 . S
C304 C303 1.391 . S
C304 C305 1.399 . S
C305 C304 1.399 . S
C305 C308 1.396 1_655 S
C305 C317 1.453 1_655 S
C305 C318 1.684 . S
H306 C330 0.948 . S
C307 C303 1.397 . S
C307 C308 1.394 1_655 S
C307 C326 1.723 . S
C308 C305 1.396 1_455 S
C308 C307 1.394 1_455 S
C308 C338 1.723 . S
H309 C332 0.947 . S
H310 C333 0.948 . S
H311 C339 0.982 . S
H312 C340 0.979 . S
H313 C340 0.980 . S
H314 C340 0.983 . S
H315 C339 0.979 . S
H316 C339 0.977 . S
C317 C305 1.453 1_455 S
C317 H346 0.982 . S
C317 H347 0.979 . S
C317 H348 0.977 . S
C318 C305 1.684 . S
C318 H343 0.979 . S
C318 H344 0.980 1_655 S
C318 H345 0.983 . S
C319 C320 1.391 1_655 S
C319 C324 1.391 . S
C319 H349 0.948 . S
C320 C319 1.391 1_455 S
C320 C321 1.391 . S
C321 C320 1.391 . S
C321 C322 1.392 . S
C321 H350 0.947 . S
C322 C321 1.392 . S
C322 C323 1.419 . S
C322 H351 0.948 . S
C323 C322 1.419 . S
C323 C324 1.391 1_455 S
C323 C327 1.397 . S
C324 C319 1.391 . S
C324 C323 1.391 1_655 S
C324 C325 1.399 . S
C325 C324 1.399 . S
C325 C326 1.396 . S
C325 C328 1.453 . S
C325 C329 1.684 . S
C326 C307 1.723 . S
C326 C325 1.396 . S
C326 C327 1.394 1_655 S
C327 C323 1.397 . S
C327 C326 1.394 1_455 S
C327 C337 1.723 . S
C328 C325 1.453 . S
C328 H352 0.982 . S
C328 H353 0.979 . S
C328 H354 0.977 . S
C329 C325 1.684 . S
C329 H355 0.979 . S
C329 H356 0.980 . S
C329 H357 0.983 . S
C330 H306 0.948 . S
C330 C331 1.391 . S
C330 C335 1.391 . S
C331 C330 1.391 . S
C331 C332 1.391 . S
C332 H309 0.947 . S
C332 C331 1.391 . S
C332 C333 1.392 . S
C333 H310 0.948 . S
C333 C332 1.392 . S
C333 C334 1.419 . S
C334 C333 1.419 . S
C334 C335 1.391 . S
C334 C338 1.397 . S
C335 C330 1.391 . S
C335 C334 1.391 . S
C335 C336 1.399 . S
C336 C335 1.399 . S
C336 C337 1.396 . S
C336 C339 1.453 . S
C336 C340 1.684 . S
C337 C327 1.723 . S
C337 C336 1.396 . S
C337 C338 1.394 . S
C338 C308 1.723 . S
C338 C334 1.397 . S
C338 C337 1.394 . S
C339 H311 0.982 . S
C339 H315 0.979 . S
C339 H316 0.977 . S
C339 C336 1.453 . S
C340 H312 0.979 . S
C340 H313 0.980 . S
C340 H314 0.983 . S
C340 C336 1.684 . S
H341 C359 0.948 . S
H342 C300 0.948 . S
H343 C318 0.979 . S
H344 C318 0.980 1_455 S
H345 C318 0.983 . S
H346 C317 0.982 . S
H347 C317 0.979 . S
H348 C317 0.977 . S
H349 C319 0.948 . S
H350 C321 0.947 . S
H351 C322 0.948 . S
H352 C328 0.982 . S
H353 C328 0.979 . S
H354 C328 0.977 . S
H355 C329 0.979 . S
H356 C329 0.980 . S
H357 C329 0.983 . S
H358 C302 0.947 . S
C359 C302 1.392 . S
C359 C303 1.419 . S
C359 H341 0.948 . S
C360 C361 1.391 . S
C360 C364 1.391 . S
C360 H402 0.948 . S
C361 C360 1.391 . S
C361 C362 1.391 . S
C362 C361 1.391 . S
C362 H418 0.947 . S
C362 C419 1.392 . S
C363 C364 1.391 . S
C363 C367 1.397 . S
C363 C419 1.419 . S
C364 C360 1.391 . S
C364 C363 1.391 . S
C364 C365 1.399 . S
C365 C364 1.399 . S
C365 C368 1.397 . S
C365 C377 1.453 1_565 S
C365 C378 1.684 . S
H366 C390 0.948 . S
C367 C363 1.397 . S
C367 C368 1.395 . S
C367 C386 1.723 . S
C368 C365 1.397 . S
C368 C367 1.395 . S
C368 C398 1.722 1_565 S
H369 C392 0.947 . S
H370 C393 0.948 . S
H371 C399 0.982 . S
H372 C400 0.979 . S
H373 C400 0.980 . S
H374 C400 0.983 . S
H375 C399 0.979 . S
H376 C399 0.977 . S
C377 C365 1.453 1_545 S
C377 H406 0.982 . S
C377 H407 0.979 1_545 S
C377 H408 0.977 . S
C378 C365 1.684 . S
C378 H403 0.979 . S
C378 H404 0.980 1_565 S
C378 H405 0.983 . S
C379 C380 1.391 1_565 S
C379 C384 1.391 . S
C379 H409 0.948 . S
C380 C379 1.391 1_545 S
C380 C381 1.391 . S
C381 C380 1.391 . S
C381 C382 1.392 . S
C381 H410 0.947 . S
C382 C381 1.392 . S
C382 C383 1.419 . S
C382 H411 0.948 . S
C383 C382 1.419 . S
C383 C384 1.391 1_545 S
C383 C387 1.397 . S
C384 C379 1.391 . S
C384 C383 1.391 1_565 S
C384 C385 1.399 . S
C385 C384 1.399 . S
C385 C386 1.396 . S
C385 C388 1.453 . S
C385 C389 1.684 . S
C386 C367 1.723 . S
C386 C385 1.396 . S
C386 C387 1.394 1_565 S
C387 C383 1.397 . S
C387 C386 1.394 1_545 S
C387 C397 1.723 . S
C388 C385 1.453 . S
C388 H412 0.982 . S
C388 H413 0.979 . S
C388 H414 0.977 . S
C389 C385 1.684 . S
C389 H415 0.979 . S
C389 H416 0.980 . S
C389 H417 0.983 . S
C390 H366 0.948 . S
C390 C391 1.391 . S
C390 C395 1.391 . S
C391 C390 1.391 . S
C391 C392 1.391 . S
C392 H369 0.947 . S
C392 C391 1.391 . S
C392 C393 1.392 . S
C393 H370 0.948 . S
C393 C392 1.392 . S
C393 C394 1.419 . S
C394 C393 1.419 . S
C394 C395 1.391 . S
C394 C398 1.397 . S
C395 C390 1.391 . S
C395 C394 1.391 . S
C395 C396 1.399 . S
C396 C395 1.399 . S
C396 C397 1.396 . S
C396 C399 1.453 . S
C396 C400 1.684 . S
C397 C387 1.723 . S
C397 C396 1.396 . S
C397 C398 1.394 . S
C398 C368 1.722 1_545 S
C398 C394 1.397 . S
C398 C397 1.394 . S
C399 H371 0.982 . S
C399 H375 0.979 . S
C399 H376 0.977 . S
C399 C396 1.453 . S
C400 H372 0.979 . S
C400 H373 0.980 . S
C400 H374 0.983 . S
C400 C396 1.684 . S
H401 C419 0.948 . S
H402 C360 0.948 . S
H403 C378 0.979 . S
H404 C378 0.980 1_545 S
H405 C378 0.983 . S
H406 C377 0.982 . S
H407 C377 0.979 1_565 S
H408 C377 0.977 . S
H409 C379 0.948 . S
H410 C381 0.947 . S
H411 C382 0.948 . S
H412 C388 0.982 . S
H413 C388 0.979 . S
H414 C388 0.977 . S
H415 C389 0.979 . S
H416 C389 0.980 . S
H417 C389 0.983 . S
H418 C362 0.947 . S
C419 C362 1.392 . S
C419 C363 1.419 . S
C419 H401 0.948 . S
C420 C421 1.391 . S
C420 C424 1.391 . S
C420 H462 0.948 . S
C421 C420 1.391 . S
C421 C422 1.391 . S
C422 C421 1.391 . S
C422 H478 0.947 . S
C422 C479 1.392 . S
C423 C424 1.391 . S
C423 C427 1.397 . S
C423 C479 1.419 . S
C424 C420 1.391 . S
C424 C423 1.391 . S
C424 C425 1.399 . S
C425 C424 1.399 . S
C425 C428 1.396 . S
C425 C437 1.453 . S
C425 C438 1.684 . S
H426 C450 0.948 . S
C427 C423 1.397 . S
C427 C428 1.394 . S
C427 C446 1.723 . S
C428 C425 1.396 . S
C428 C427 1.394 . S
C428 C458 1.723 . S
H429 C452 0.947 . S
H430 C453 0.948 . S
H431 C459 0.982 . S
H432 C460 0.979 . S
H433 C460 0.980 . S
H434 C460 0.983 . S
H435 C459 0.979 . S
H436 C459 0.977 . S
C437 C425 1.453 . S
C437 H466 0.982 . S
C437 H467 0.979 . S
C437 H468 0.977 . S
C438 C425 1.684 . S
C438 H463 0.979 . S
C438 H464 0.980 . S
C438 H465 0.983 . S
C439 C440 1.369 1_554 S
C439 C444 1.391 . S
C439 H469 0.948 . S
C440 C439 1.369 1_556 S
C440 C441 1.375 1_556 S
C441 C440 1.375 1_554 S
C441 C442 1.392 . S
C441 H470 0.941 1_554 S
C442 C441 1.392 . S
C442 C443 1.419 . S
C442 H471 0.948 . S
C443 C442 1.419 . S
C443 C444 1.391 . S
C443 C447 1.397 . S
C444 C439 1.391 . S
C444 C443 1.391 . S
C444 C445 1.399 . S
C445 C444 1.399 . S
C445 C446 1.396 . S
C445 C448 1.453 . S
C445 C449 1.684 . S
C446 C427 1.723 . S
C446 C445 1.396 . S
C446 C447 1.394 . S
C447 C443 1.397 . S
C447 C446 1.394 . S
C447 C457 1.723 . S
C448 C445 1.453 . S
C448 H472 0.982 . S
C448 H473 0.979 . S
C448 H474 0.977 . S
C449 C445 1.684 . S
C449 H475 0.979 . S
C449 H476 0.980 . S
C449 H477 0.983 . S
C450 H426 0.948 . S
C450 C451 1.391 . S
C450 C455 1.391 . S
C451 C450 1.391 . S
C451 C452 1.391 . S
C452 H429 0.947 . S
C452 C451 1.391 . S
C452 C453 1.392 . S
C453 H430 0.948 . S
C453 C452 1.392 . S
C453 C454 1.419 . S
C454 C453 1.419 . S
C454 C455 1.391 . S
C454 C458 1.397 . S
C455 C450 1.391 . S
C455 C454 1.391 . S
C455 C456 1.399 . S
C456 C455 1.399 . S
C456 C457 1.396 . S
C456 C459 1.453 . S
C456 C460 1.684 . S
C457 C447 1.723 . S
C457 C456 1.396 . S
C457 C458 1.394 . S
C458 C428 1.723 . S
C458 C454 1.397 . S
C458 C457 1.394 . S
C459 H431 0.982 . S
C459 H435 0.979 . S
C459 H436 0.977 . S
C459 C456 1.453 . S
C460 H432 0.979 . S
C460 H433 0.980 . S
C460 H434 0.983 . S
C460 C456 1.684 . S
H461 C479 0.948 . S
H462 C420 0.948 . S
H463 C438 0.979 . S
H464 C438 0.980 . S
H465 C438 0.983 . S
H466 C437 0.982 . S
H467 C437 0.979 . S
H468 C437 0.977 . S
H469 C439 0.948 . S
H470 C441 0.941 1_556 S
H471 C442 0.948 . S
H472 C448 0.982 . S
H473 C448 0.979 . S
H474 C448 0.977 . S
H475 C449 0.979 . S
H476 C449 0.980 . S
H477 C449 0.983 . S
H478 C422 0.947 . S
C479 C422 1.392 . S
C479 C423 1.419 . S
C479 H461 0.948 . S
C480 C481 1.363 . S
C480 C486 1.379 . S
C480 N488 1.356 . S
C481 C480 1.363 . S
C481 C487 1.363 . S
C482 C483 1.363 . S
C482 C487 1.379 . S
C482 N489 1.356 . S
C483 C482 1.363 . S
C483 C486 1.363 . S
N484 C486 1.356 . S
N484 H496 0.984 . S
N484 H497 0.985 . S
N485 C487 1.356 . S
N485 H490 0.984 . S
N485 H491 0.985 . S
C486 C480 1.379 . S
C486 C483 1.363 . S
C486 N484 1.356 . S
C487 C481 1.363 . S
C487 C482 1.379 . S
C487 N485 1.356 . S
N488 C480 1.356 . S
N488 H494 0.984 . S
N488 H495 0.984 . S
N489 C482 1.356 . S
N489 H492 0.984 . S
N489 H493 0.985 . S
H490 N485 0.984 . S
H491 N485 0.985 . S
H492 N489 0.984 . S
H493 N489 0.985 . S
H494 N488 0.984 . S
H495 N488 0.984 . S
H496 N484 0.984 . S
H497 N484 0.985 . S
C498 C499 1.363 . S
C498 C504 1.379 . S
C498 N506 1.356 . S
C499 C498 1.363 . S
C499 C505 1.363 . S
C500 C501 1.363 . S
C500 C505 1.379 . S
C500 N507 1.356 . S
C501 C500 1.363 . S
C501 C504 1.363 . S
N502 C504 1.356 . S
N502 H514 0.984 . S
N502 H515 0.985 . S
N503 C505 1.356 . S
N503 H508 0.984 . S
N503 H509 0.985 . S
C504 C498 1.379 . S
C504 C501 1.363 . S
C504 N502 1.356 . S
C505 C499 1.363 . S
C505 C500 1.379 . S
C505 N503 1.356 . S
N506 C498 1.356 . S
N506 H512 0.984 . S
N506 H513 0.984 . S
N507 C500 1.356 . S
N507 H510 0.984 . S
N507 H511 0.985 . S
H508 N503 0.984 . S
H509 N503 0.985 . S
H510 N507 0.984 . S
H511 N507 0.985 . S
H512 N506 0.984 . S
H513 N506 0.984 . S
H514 N502 0.984 . S
H515 N502 0.985 . S
C516 C517 1.363 . S
C516 C522 1.379 . S
C516 N524 1.356 . S
C517 C516 1.363 . S
C517 C523 1.363 . S
C518 C519 1.363 . S
C518 C523 1.379 . S
C518 N525 1.356 . S
C519 C518 1.363 . S
C519 C522 1.363 . S
N520 C522 1.356 . S
N520 H532 0.984 . S
N520 H533 0.985 . S
N521 C523 1.356 . S
N521 H526 0.984 . S
N521 H527 0.985 . S
C522 C516 1.379 . S
C522 C519 1.363 . S
C522 N520 1.356 . S
C523 C517 1.363 . S
C523 C518 1.379 . S
C523 N521 1.356 . S
N524 C516 1.356 . S
N524 H530 0.984 . S
N524 H531 0.984 . S
N525 C518 1.356 . S
N525 H528 0.984 . S
N525 H529 0.985 . S
H526 N521 0.984 . S
H527 N521 0.985 . S
H528 N525 0.984 . S
H529 N525 0.985 . S
H530 N524 0.984 . S
H531 N524 0.984 . S
H532 N520 0.984 . S
H533 N520 0.985 . S
C534 C535 1.363 . S
C534 C540 1.379 . S
C534 N542 1.356 . S
C535 C534 1.363 . S
C535 C541 1.363 . S
C536 C537 1.363 . S
C536 C541 1.379 . S
C536 N543 1.356 . S
C537 C536 1.363 . S
C537 C540 1.363 . S
N538 C540 1.356 . S
N538 H550 0.984 . S
N538 H551 0.985 . S
N539 C541 1.356 . S
N539 H544 0.984 . S
N539 H545 0.985 . S
C540 C534 1.379 . S
C540 C537 1.363 . S
C540 N538 1.356 . S
C541 C535 1.363 . S
C541 C536 1.379 . S
C541 N539 1.356 . S
N542 C534 1.356 . S
N542 H548 0.984 . S
N542 H549 0.984 . S
N543 C536 1.356 . S
N543 H546 0.984 . S
N543 H547 0.985 . S
H544 N539 0.984 . S
H545 N539 0.985 . S
H546 N543 0.984 . S
H547 N543 0.985 . S
H548 N542 0.984 . S
H549 N542 0.984 . S
H550 N538 0.984 . S
H551 N538 0.985 . S
C552 C553 1.363 . S
C552 C558 1.379 . S
C552 N560 1.356 . S
C553 C552 1.363 . S
C553 C559 1.363 . S
C554 C555 1.363 . S
C554 C559 1.379 . S
C554 N561 1.356 . S
C555 C554 1.363 . S
C555 C558 1.363 . S
N556 C558 1.356 . S
N556 H568 0.984 . S
N556 H569 0.985 . S
N557 C559 1.356 . S
N557 H562 0.984 . S
N557 H563 0.985 . S
C558 C552 1.379 . S
C558 C555 1.363 . S
C558 N556 1.356 . S
C559 C553 1.363 . S
C559 C554 1.379 . S
C559 N557 1.356 . S
N560 C552 1.356 . S
N560 H566 0.984 . S
N560 H567 0.984 . S
N561 C554 1.356 . S
N561 H564 0.984 . S
N561 H565 0.985 . S
H562 N557 0.984 . S
H563 N557 0.985 . S
H564 N561 0.984 . S
H565 N561 0.985 . S
H566 N560 0.984 . S
H567 N560 0.984 . S
H568 N556 0.984 . S
H569 N556 0.985 . S
C570 C571 1.363 . S
C570 C576 1.379 . S
C570 N578 1.356 . S
C571 C570 1.363 . S
C571 C577 1.363 . S
C572 C573 1.363 . S
C572 C577 1.379 . S
C572 N579 1.356 . S
C573 C572 1.363 . S
C573 C576 1.363 . S
N574 C576 1.356 . S
N574 H586 0.984 . S
N574 H587 0.985 . S
N575 C577 1.356 . S
N575 H580 0.984 . S
N575 H581 0.985 . S
C576 C570 1.379 . S
C576 C573 1.363 . S
C576 N574 1.356 . S
C577 C571 1.363 . S
C577 C572 1.379 . S
C577 N575 1.356 . S
N578 C570 1.356 . S
N578 H584 0.984 . S
N578 H585 0.984 . S
N579 C572 1.356 . S
N579 H582 0.984 . S
N579 H583 0.985 . S
H580 N575 0.984 . S
H581 N575 0.985 . S
H582 N579 0.984 . S
H583 N579 0.985 . S
H584 N578 0.984 . S
H585 N578 0.984 . S
H586 N574 0.984 . S
H587 N574 0.985 . S
C588 C589 1.363 . S
C588 C594 1.379 . S
C588 N596 1.356 . S
C589 C588 1.363 . S
C589 C595 1.363 . S
C590 C591 1.363 . S
C590 C595 1.379 . S
C590 N597 1.356 . S
C591 C590 1.363 . S
C591 C594 1.363 . S
N592 C594 1.356 . S
N592 H604 0.984 . S
N592 H605 0.985 . S
N593 C595 1.356 . S
N593 H598 0.984 . S
N593 H599 0.985 . S
C594 C588 1.379 . S
C594 C591 1.363 . S
C594 N592 1.356 . S
C595 C589 1.363 . S
C595 C590 1.379 . S
C595 N593 1.356 . S
N596 C588 1.356 . S
N596 H602 0.984 . S
N596 H603 0.984 . S
N597 C590 1.356 . S
N597 H600 0.984 . S
N597 H601 0.985 . S
H598 N593 0.984 . S
H599 N593 0.985 . S
H600 N597 0.984 . S
H601 N597 0.985 . S
H602 N596 0.984 . S
H603 N596 0.984 . S
H604 N592 0.984 . S
H605 N592 0.985 . S
C606 C607 1.363 . S
C606 C612 1.379 . S
C606 N614 1.356 . S
C607 C606 1.363 . S
C607 C613 1.363 . S
C608 C609 1.363 . S
C608 C613 1.379 . S
C608 N615 1.356 . S
C609 C608 1.363 . S
C609 C612 1.363 . S
N610 C612 1.356 . S
N610 H622 0.984 . S
N610 H623 0.985 . S
N611 C613 1.356 . S
N611 H616 0.984 . S
N611 H617 0.985 . S
C612 C606 1.379 . S
C612 C609 1.363 . S
C612 N610 1.356 . S
C613 C607 1.363 . S
C613 C608 1.379 . S
C613 N611 1.356 . S
N614 C606 1.356 . S
N614 H620 0.984 . S
N614 H621 0.984 . S
N615 C608 1.356 . S
N615 H618 0.984 . S
N615 H619 0.985 . S
H616 N611 0.984 . S
H617 N611 0.985 . S
H618 N615 0.984 . S
H619 N615 0.985 . S
H620 N614 0.984 . S
H621 N614 0.984 . S
H622 N610 0.984 . S
H623 N610 0.985 . S
C624 C625 1.363 . S
C624 C630 1.379 . S
C624 N632 1.356 . S
C625 C624 1.363 . S
C625 C631 1.363 . S
C626 C627 1.363 . S
C626 C631 1.379 . S
C626 N633 1.356 . S
C627 C626 1.363 . S
C627 C630 1.363 . S
N628 C630 1.356 . S
N628 H640 0.984 . S
N628 H641 0.985 . S
N629 C631 1.356 . S
N629 H634 0.984 . S
N629 H635 0.985 . S
C630 C624 1.379 . S
C630 C627 1.363 . S
C630 N628 1.356 . S
C631 C625 1.363 . S
C631 C626 1.379 . S
C631 N629 1.356 . S
N632 C624 1.356 . S
N632 H638 0.984 . S
N632 H639 0.984 . S
N633 C626 1.356 . S
N633 H636 0.984 . S
N633 H637 0.985 . S
H634 N629 0.984 . S
H635 N629 0.985 . S
H636 N633 0.984 . S
H637 N633 0.985 . S
H638 N632 0.984 . S
H639 N632 0.984 . S
H640 N628 0.984 . S
H641 N628 0.985 . S
C642 C643 1.363 . S
C642 C648 1.379 . S
C642 N650 1.356 . S
C643 C642 1.363 . S
C643 C649 1.363 . S
C644 C645 1.363 . S
C644 C649 1.379 . S
C644 N651 1.356 . S
C645 C644 1.363 . S
C645 C648 1.363 . S
N646 C648 1.356 . S
N646 H658 0.984 . S
N646 H659 0.985 . S
N647 C649 1.356 . S
N647 H652 0.984 . S
N647 H653 0.985 . S
C648 C642 1.379 . S
C648 C645 1.363 . S
C648 N646 1.356 . S
C649 C643 1.363 . S
C649 C644 1.379 . S
C649 N647 1.356 . S
N650 C642 1.356 . S
N650 H656 0.984 . S
N650 H657 0.984 . S
N651 C644 1.356 . S
N651 H654 0.984 . S
N651 H655 0.985 . S
H652 N647 0.984 . S
H653 N647 0.985 . S
H654 N651 0.984 . S
H655 N651 0.985 . S
H656 N650 0.984 . S
H657 N650 0.984 . S
H658 N646 0.984 . S
H659 N646 0.985 . S
C660 C661 1.363 . S
C660 C666 1.379 . S
C660 N668 1.356 . S
C661 C660 1.363 . S
C661 C667 1.363 . S
C662 C663 1.363 . S
C662 C667 1.379 . S
C662 N669 1.356 . S
C663 C662 1.363 . S
C663 C666 1.363 . S
N664 C666 1.356 . S
N664 H676 0.984 . S
N664 H677 0.985 . S
N665 C667 1.356 . S
N665 H670 0.984 . S
N665 H671 0.985 . S
C666 C660 1.379 . S
C666 C663 1.363 . S
C666 N664 1.356 . S
C667 C661 1.363 . S
C667 C662 1.379 . S
C667 N665 1.356 . S
N668 C660 1.356 . S
N668 H674 0.984 . S
N668 H675 0.984 . S
N669 C662 1.356 . S
N669 H672 0.984 . S
N669 H673 0.985 . S
H670 N665 0.984 . S
H671 N665 0.985 . S
H672 N669 0.984 . S
H673 N669 0.985 . S
H674 N668 0.984 . S
H675 N668 0.984 . S
H676 N664 0.984 . S
H677 N664 0.985 . S
C678 C679 1.363 . S
C678 C684 1.379 . S
C678 N686 1.356 . S
C679 C678 1.363 . S
C679 C685 1.363 . S
C680 C681 1.363 . S
C680 C685 1.379 . S
C680 N687 1.356 . S
C681 C680 1.363 . S
C681 C684 1.363 . S
N682 C684 1.356 . S
N682 H694 0.984 . S
N682 H695 0.985 . S
N683 C685 1.356 . S
N683 H688 0.984 . S
N683 H689 0.985 . S
C684 C678 1.379 . S
C684 C681 1.363 . S
C684 N682 1.356 . S
C685 C679 1.363 . S
C685 C680 1.379 . S
C685 N683 1.356 . S
N686 C678 1.356 . S
N686 H692 0.984 . S
N686 H693 0.984 . S
N687 C680 1.356 . S
N687 H690 0.984 . S
N687 H691 0.985 . S
H688 N683 0.984 . S
H689 N683 0.985 . S
H690 N687 0.984 . S
H691 N687 0.985 . S
H692 N686 0.984 . S
H693 N686 0.984 . S
H694 N682 0.984 . S
H695 N682 0.985 . S
C696 C697 1.363 . S
C696 C702 1.379 . S
C696 N704 1.356 . S
C697 C696 1.363 . S
C697 C703 1.363 1_455 S
C698 C699 1.363 . S
C698 C703 1.379 1_455 S
C698 N705 1.356 1_455 S
C699 C698 1.363 . S
C699 C702 1.363 . S
N700 C702 1.356 . S
N700 H712 0.984 . S
N700 H713 0.985 . S
N701 C703 1.356 . S
N701 H706 0.984 . S
N701 H707 0.985 . S
C702 C696 1.379 . S
C702 C699 1.363 . S
C702 N700 1.356 . S
C703 C697 1.363 1_655 S
C703 C698 1.379 1_655 S
C703 N701 1.356 . S
N704 C696 1.356 . S
N704 H710 0.984 . S
N704 H711 0.984 . S
N705 C698 1.356 1_655 S
N705 H708 0.984 1_655 S
N705 H709 0.985 . S
H706 N701 0.984 . S
H707 N701 0.985 . S
H708 N705 0.984 1_455 S
H709 N705 0.985 . S
H710 N704 0.984 . S
H711 N704 0.984 . S
H712 N700 0.984 . S
H713 N700 0.985 . S
C714 C715 1.363 1_565 S
C714 C720 1.379 . S
C714 N722 1.356 . S
C715 C714 1.363 1_545 S
C715 C721 1.363 . S
C716 C717 1.363 . S
C716 C721 1.379 . S
C716 N723 1.356 . S
C717 C716 1.363 . S
C717 C720 1.363 1_545 S
N718 C720 1.356 . S
N718 H730 0.984 . S
N718 H731 0.985 . S
N719 C721 1.356 . S
N719 H724 0.984 . S
N719 H725 0.985 . S
C720 C714 1.379 . S
C720 C717 1.363 1_565 S
C720 N718 1.356 . S
C721 C715 1.363 . S
C721 C716 1.379 . S
C721 N719 1.356 . S
N722 C714 1.356 . S
N722 H728 0.984 . S
N722 H729 0.984 . S
N723 C716 1.356 . S
N723 H726 0.984 . S
N723 H727 0.985 . S
H724 N719 0.984 . S
H725 N719 0.985 . S
H726 N723 0.984 . S
H727 N723 0.985 . S
H728 N722 0.984 . S
H729 N722 0.984 . S
H730 N718 0.984 . S
H731 N718 0.985 . S
C732 C733 1.363 . S
C732 C738 1.379 . S
C732 N740 1.356 . S
C733 C732 1.363 . S
C733 C739 1.363 . S
C734 C735 1.363 . S
C734 C739 1.379 . S
C734 N741 1.356 . S
C735 C734 1.363 . S
C735 C738 1.363 . S
N736 C738 1.356 . S
N736 H748 0.984 . S
N736 H749 0.985 . S
N737 C739 1.356 . S
N737 H742 0.984 . S
N737 H743 0.985 . S
C738 C732 1.379 . S
C738 C735 1.363 . S
C738 N736 1.356 . S
C739 C733 1.363 . S
C739 C734 1.379 . S
C739 N737 1.356 . S
N740 C732 1.356 . S
N740 H746 0.984 . S
N740 H747 0.984 . S
N741 C734 1.356 . S
N741 H744 0.984 . S
N741 H745 0.985 . S
H742 N737 0.984 . S
H743 N737 0.985 . S
H744 N741 0.984 . S
H745 N741 0.985 . S
H746 N740 0.984 . S
H747 N740 0.984 . S
H748 N736 0.984 . S
H749 N736 0.985 . S
C750 C751 1.363 1_565 S
C750 C756 1.379 . S
C750 N758 1.356 . S
C751 C750 1.363 1_545 S
C751 C757 1.363 . S
C752 C753 1.363 . S
C752 C757 1.379 . S
C752 N759 1.356 . S
C753 C752 1.363 . S
C753 C756 1.363 1_545 S
N754 C756 1.356 . S
N754 H766 0.984 . S
N754 H767 0.985 . S
N755 C757 1.356 . S
N755 H760 0.984 . S
N755 H761 0.985 . S
C756 C750 1.379 . S
C756 C753 1.363 1_565 S
C756 N754 1.356 . S
C757 C751 1.363 . S
C757 C752 1.379 . S
C757 N755 1.356 . S
N758 C750 1.356 . S
N758 H764 0.984 . S
N758 H765 0.984 . S
N759 C752 1.356 . S
N759 H762 0.984 . S
N759 H763 0.985 . S
H760 N755 0.984 . S
H761 N755 0.985 . S
H762 N759 0.984 . S
H763 N759 0.985 . S
H764 N758 0.984 . S
H765 N758 0.984 . S
H766 N754 0.984 . S
H767 N754 0.985 . S
C768 C769 1.363 . S
C768 C774 1.379 . S
C768 N776 1.356 . S
C769 C768 1.363 . S
C769 C775 1.363 . S
C770 C771 1.363 . S
C770 C775 1.379 . S
C770 N777 1.356 . S
C771 C770 1.363 . S
C771 C774 1.363 . S
N772 C774 1.356 . S
N772 H784 0.984 . S
N772 H785 0.985 . S
N773 C775 1.356 . S
N773 H778 0.984 . S
N773 H779 0.985 . S
C774 C768 1.379 . S
C774 C771 1.363 . S
C774 N772 1.356 . S
C775 C769 1.363 . S
C775 C770 1.379 . S
C775 N773 1.356 . S
N776 C768 1.356 . S
N776 H782 0.984 . S
N776 H783 0.984 . S
N777 C770 1.356 . S
N777 H780 0.984 . S
N777 H781 0.985 . S
H778 N773 0.984 . S
H779 N773 0.985 . S
H780 N777 0.984 . S
H781 N777 0.985 . S
H782 N776 0.984 . S
H783 N776 0.984 . S
H784 N772 0.984 . S
H785 N772 0.985 . S
C786 C787 1.363 . S
C786 C792 1.379 . S
C786 N794 1.356 . S
C787 C786 1.363 . S
C787 C793 1.363 1_655 S
C788 C789 1.363 . S
C788 C793 1.379 . S
C788 N795 1.356 . S
C789 C788 1.363 . S
C789 C792 1.363 1_455 S
N790 C792 1.356 . S
N790 H802 0.984 . S
N790 H803 0.985 . S
N791 C793 1.356 . S
N791 H796 0.984 . S
N791 H797 0.985 . S
C792 C786 1.379 . S
C792 C789 1.363 1_655 S
C792 N790 1.356 . S
C793 C787 1.363 1_455 S
C793 C788 1.379 . S
C793 N791 1.356 . S
N794 C786 1.356 . S
N794 H800 0.984 . S
N794 H801 0.984 . S
N795 C788 1.356 . S
N795 H798 0.984 . S
N795 H799 0.985 . S
H796 N791 0.984 . S
H797 N791 0.985 . S
H798 N795 0.984 . S
H799 N795 0.985 . S
H800 N794 0.984 . S
H801 N794 0.984 . S
H802 N790 0.984 . S
H803 N790 0.985 . S
C481 C12 3.044 . S
C483 C451 3.029 . S
C499 C52 3.043 . S
C501 C301 2.855 . S
C517 C111 3.091 . S
C519 C361 2.888 . S
C535 C31 3.216 . S
C537 C421 2.993 . S
C555 C331 3.191 . S
C553 C71 3.216 . S
C573 C391 3.141 . S
C571 C92 3.166 . S
C589 C48 0.732 . S
C591 C181 0.730 . S
C607 C109 0.766 . S
C609 C271 0.780 . S
C625 C29 0.729 . S
C627 C151 0.710 . S
C645 C211 0.651 . S
C643 C69 0.664 . S
C663 C241 0.490 . S
C661 C88 0.536 . S
C679 C8 0.530 . S
C681 C121 0.458 . S
C699 C260 1.043 . S
C697 C17 1.058 1_455 S
C715 C57 1.043 . S
C717 C140 1.029 . S
C733 C97 1.059 . S
C735 C200 1.025 . S
C753 C380 1.785 . S
C751 C42 1.742 . S
C771 C440 1.820 . S
C769 C82 1.752 . S
C787 C2 1.758 1_655 S
C789 C320 1.777 . S
