# Generated by pormake.
# Topology zzz, (3,6)-cn, num edge types: 1
# Building blocks:
#     Node 0, Type 0, BuildingBlock: PAMTOO_clean_linker_0, # of connection points: 3
#     Node 1, Type 0, BuildingBlock: PAMTOO_clean_linker_0, # of connection points: 3
#     Node 2, Type 0, BuildingBlock: PAMTOO_clean_linker_0, # of connection points: 3
#     Node 3, Type 0, BuildingBlock: PAMTOO_clean_linker_0, # of connection points: 3
#     Node 4, Type 0, BuildingBlock: PAMTOO_clean_linker_0, # of connection points: 3
#     Node 5, Type 0, BuildingBlock: PAMTOO_clean_linker_0, # of connection points: 3
#     Node 6, Type 0, BuildingBlock: PAMTOO_clean_linker_0, # of connection points: 3
#     Node 7, Type 0, BuildingBlock: PAMTOO_clean_linker_0, # of connection points: 3
#     Node 8, Type 1, BuildingBlock: KUMJIN_clean_sbu_0, # of connection points: 6
#     Node 9, Type 1, BuildingBlock: KUMJIN_clean_sbu_0, # of connection points: 6
#     Node 10, Type 1, BuildingBlock: KUMJIN_clean_sbu_0, # of connection points: 6
#     Node 11, Type 1, BuildingBlock: KUMJIN_clean_sbu_0, # of connection points: 6
#     Edge 12, Type (0, 1), BuildingBlock: ZUJKAS_clean_linker_0, # of connection points: 2
#     Edge 13, Type (0, 1), BuildingBlock: ZUJKAS_clean_linker_0, # of connection points: 2
#     Edge 14, Type (0, 1), BuildingBlock: ZUJKAS_clean_linker_0, # of connection points: 2
#     Edge 15, Type (0, 1), BuildingBlock: ZUJKAS_clean_linker_0, # of connection points: 2
#     Edge 16, Type (0, 1), BuildingBlock: ZUJKAS_clean_linker_0, # of connection points: 2
#     Edge 17, Type (0, 1), BuildingBlock: ZUJKAS_clean_linker_0, # of connection points: 2
#     Edge 18, Type (0, 1), BuildingBlock: ZUJKAS_clean_linker_0, # of connection points: 2
#     Edge 19, Type (0, 1), BuildingBlock: ZUJKAS_clean_linker_0, # of connection points: 2
#     Edge 20, Type (0, 1), BuildingBlock: ZUJKAS_clean_linker_0, # of connection points: 2
#     Edge 21, Type (0, 1), BuildingBlock: ZUJKAS_clean_linker_0, # of connection points: 2
#     Edge 22, Type (0, 1), BuildingBlock: ZUJKAS_clean_linker_0, # of connection points: 2
#     Edge 23, Type (0, 1), BuildingBlock: ZUJKAS_clean_linker_0, # of connection points: 2
#     Edge 24, Type (0, 1), BuildingBlock: ZUJKAS_clean_linker_0, # of connection points: 2
#     Edge 25, Type (0, 1), BuildingBlock: ZUJKAS_clean_linker_0, # of connection points: 2
#     Edge 26, Type (0, 1), BuildingBlock: ZUJKAS_clean_linker_0, # of connection points: 2
#     Edge 27, Type (0, 1), BuildingBlock: ZUJKAS_clean_linker_0, # of connection points: 2
#     Edge 28, Type (0, 1), BuildingBlock: ZUJKAS_clean_linker_0, # of connection points: 2
#     Edge 29, Type (0, 1), BuildingBlock: ZUJKAS_clean_linker_0, # of connection points: 2
#     Edge 30, Type (0, 1), BuildingBlock: ZUJKAS_clean_linker_0, # of connection points: 2
#     Edge 31, Type (0, 1), BuildingBlock: ZUJKAS_clean_linker_0, # of connection points: 2
#     Edge 32, Type (0, 1), BuildingBlock: ZUJKAS_clean_linker_0, # of connection points: 2
#     Edge 33, Type (0, 1), BuildingBlock: ZUJKAS_clean_linker_0, # of connection points: 2
#     Edge 34, Type (0, 1), BuildingBlock: ZUJKAS_clean_linker_0, # of connection points: 2
#     Edge 35, Type (0, 1), BuildingBlock: ZUJKAS_clean_linker_0, # of connection points: 2
# Relax obj value: 0.145
# Max RMSD: 0.152
# Mean RMSD: 0.111
data_MOF--net-zzz--node1-KUMJIN_clean_sbu_0--node2-PAMTOO_clean_linker_0--edge1-ZUJKAS_clean_linker_0
_symmetry_space_group_name_H-M    P1
_symmetry_Int_Tables_number       1
_symmetry_cell_setting            triclinic
loop_
_symmetry_equiv_pos_as_xyz
'x, y, z'
_cell_length_a     65.320448
_cell_length_b     65.28927
_cell_length_c     19.089102
_cell_angle_alpha  90.572747
_cell_angle_beta   89.966993
_cell_angle_gamma 89.916037
loop_
_atom_site_label
_atom_site_type_symbol
_atom_site_fract_x
_atom_site_fract_y
_atom_site_fract_z
_atom_type_partial_charge
H0 H 0.8056 0.57513 0.19063 0.0
H1 H 0.7468 0.5743 0.09013 0.0
H2 H 0.75571 0.54205 0.28376 0.0
H3 H 0.71954 0.52243 0.17321 0.0
C4 C 0.72206 0.53609 0.14008 0.0
O5 O 0.72858 0.55216 0.1829 0.0
H6 H 0.7342 0.5317 0.10168 0.0
C7 C 0.78951 0.57094 0.1914 0.0
C8 C 0.78229 0.55853 0.24526 0.0
C9 C 0.77692 0.57646 0.13531 0.0
C10 C 0.75643 0.57038 0.13426 0.0
C11 C 0.74854 0.55811 0.18746 0.0
C12 C 0.76157 0.55193 0.24323 0.0
H13 H 0.96441 0.81256 0.20248 0.0
H14 H 0.96573 0.75394 0.09866 0.0
H15 H 1.00523 0.76567 0.27548 0.0
H16 H 0.02302 0.73405 0.14712 0.0
C17 C 1.00733 0.73273 0.12504 0.0
O18 O 0.99337 0.73776 0.17764 0.0
H19 H 1.0064 0.7439 0.08142 0.0
C20 C 0.96977 0.79682 0.20022 0.0
C21 C 0.98476 0.79066 0.24789 0.0
C22 C 0.96313 0.78393 0.14573 0.0
C23 C 0.97067 0.76391 0.14109 0.0
C24 C 0.98588 0.75713 0.18702 0.0
C25 C 0.99327 0.77068 0.24033 0.0
H26 H 0.72919 0.96566 0.20378 0.0
H27 H 0.78958 0.96918 0.11722 0.0
H28 H 0.77516 1.00191 0.30803 0.0
H29 H 0.81127 0.02331 0.20238 0.0
C30 C 0.81045 1.00918 0.16957 0.0
O31 O 0.80457 0.99313 0.21249 0.0
H32 H 0.7987 1.01206 0.12852 0.0
C33 C 0.74501 0.97052 0.20853 0.0
C34 C 0.75048 0.98337 0.26465 0.0
C35 C 0.75883 0.96584 0.15445 0.0
C36 C 0.779 0.97264 0.15932 0.0
C37 C 0.78509 0.9857 0.2138 0.0
C38 C 0.77068 0.99145 0.26645 0.0
H39 H 0.57517 0.73337 0.2023 0.0
H40 H 0.57073 0.79266 0.1084 0.0
H41 H 0.54872 0.78373 0.31866 0.0
H42 H 0.52754 0.82564 0.23101 0.0
C43 C 0.53678 0.81869 0.18804 0.0
O44 O 0.55471 0.81098 0.21638 0.0
H45 H 0.52726 0.80613 0.16524 0.0
C46 C 0.57139 0.74953 0.20698 0.0
C47 C 0.56213 0.75689 0.26845 0.0
C48 C 0.57429 0.76224 0.14928 0.0
C49 C 0.56872 0.78286 0.1534 0.0
C50 C 0.55974 0.79079 0.21433 0.0
C51 C 0.55604 0.77771 0.27188 0.0
H52 H 0.2329 0.46675 0.04311 0.0
H53 H 0.28915 0.47425 0.15716 0.0
H54 H 0.28106 0.50395 0.95882 0.0
H55 H 0.33209 0.49355 0.00907 0.0
C56 C 0.32477 0.48772 0.05742 0.0
O57 O 0.3064 0.49807 0.06781 0.0
H58 H 0.32193 0.47105 0.04871 0.0
C59 C 0.24855 0.47227 0.04563 0.0
C60 C 0.2556 0.48499 0.9922 0.0
C61 C 0.26035 0.46842 0.10549 0.0
C62 C 0.28 0.47679 0.11068 0.0
C63 C 0.28773 0.48928 0.05788 0.0
C64 C 0.27542 0.49366 0.99854 0.0
H65 H 0.07272 0.22928 0.03424 0.0
H66 H 0.07464 0.2884 0.13537 0.0
H67 H 0.03402 0.27778 0.9609 0.0
H68 H 0.03429 0.29954 0.15611 0.0
C69 C 0.03347 0.31078 0.11264 0.0
O70 O 0.04696 0.30529 0.05902 0.0
H71 H 0.0176 0.3099 0.0919 0.0
C72 C 0.06817 0.24525 0.03646 0.0
C73 C 0.05353 0.25201 0.98847 0.0
C74 C 0.07558 0.25797 0.09042 0.0
C75 C 0.06899 0.27838 0.09415 0.0
C76 C 0.05379 0.28565 0.04908 0.0
C77 C 0.0458 0.27233 0.99599 0.0
H78 H 0.31268 0.07363 0.03003 0.0
H79 H 0.25566 0.06591 0.13794 0.0
H80 H 0.26363 0.04026 0.93087 0.0
H81 H 0.21446 0.05622 0.97792 0.0
C82 C 0.2202 0.05794 0.03244 0.0
O83 O 0.23747 0.04564 0.03929 0.0
H84 H 0.22414 0.07439 0.0405 0.0
C85 C 0.29687 0.06856 0.02955 0.0
C86 C 0.28975 0.05714 0.97212 0.0
C87 C 0.28481 0.07166 0.08935 0.0
C88 C 0.2649 0.06391 0.09118 0.0
C89 C 0.25688 0.05312 0.03392 0.0
C90 C 0.26945 0.04935 0.9742 0.0
H91 H 0.46026 0.30869 0.02277 0.0
H92 H 0.46009 0.24992 0.12012 0.0
H93 H 0.48526 0.25638 0.91307 0.0
H94 H 0.50009 0.23489 0.09113 0.0
C95 C 0.49419 0.223 0.05402 0.0
O96 O 0.47719 0.23012 0.01785 0.0
H97 H 0.50664 0.22003 0.01555 0.0
C98 C 0.46268 0.29226 0.01882 0.0
C99 C 0.47216 0.28405 0.95907 0.0
C100 C 0.45879 0.2801 0.07712 0.0
C101 C 0.46268 0.25912 0.07413 0.0
C102 C 0.47216 0.25035 0.01552 0.0
C103 C 0.47729 0.26291 0.95774 0.0
Eu104 Eu 0.03606 0.0147 0.67797 0.0
C105 C 0.96925 0.99382 0.48649 0.0
C106 C 0.98707 0.97525 0.39417 0.0
C107 C 0.95256 0.96537 0.42592 0.0
C108 C 0.98663 0.99092 0.44588 0.0
C109 C 0.95184 0.98135 0.4755 0.0
C110 C 0.97012 0.96233 0.38535 0.0
C111 C 0.93326 1.00276 0.55702 0.0
N112 N 0.9689 1.0094 0.53407 0.0
C113 C 0.95072 0.01478 0.56555 0.0
C114 C 0.93393 0.9857 0.51286 0.0
Eu115 Eu 0.99957 0.02902 0.54583 0.0
N116 N 1.00303 1.00336 0.45636 0.0
C117 C 0.01981 1.00157 0.41351 0.0
C118 C 1.00452 0.97299 0.35247 0.0
C119 C 0.02085 0.98637 0.36173 0.0
H120 H 0.94936 0.02865 0.59663 0.0
H121 H 0.03436 0.98494 0.32914 0.0
H122 H 0.97035 0.95011 0.34655 0.0
H123 H 0.91917 1.00692 0.58352 0.0
H124 H 0.03277 1.01148 0.41826 0.0
H125 H 1.00539 0.06385 0.88802 0.0
H126 H 1.00544 0.96111 0.31256 0.0
H127 H 0.08536 1.00448 0.64248 0.0
H128 H 1.00438 0.0369 0.79861 0.0
H129 H 0.11955 0.01828 0.66997 0.0
H130 H 0.93941 0.95556 0.41742 0.0
H131 H 0.03755 0.08267 0.91076 0.0
H132 H 0.07501 0.08672 0.88681 0.0
H133 H 0.92027 0.97651 0.50568 0.0
H134 H 0.10611 0.07441 0.82712 0.0
N135 N 0.03547 0.04041 0.76725 0.0
C136 C 0.01853 0.0448 0.80679 0.0
C137 C 0.03719 0.07075 0.87089 0.0
C138 C 0.05484 0.06535 0.83356 0.0
C139 C 0.01905 0.06016 0.85828 0.0
C140 C 0.05354 0.04979 0.78181 0.0
H141 H 0.12293 0.04871 0.74731 0.0
N142 N 0.06939 0.02736 0.70126 0.0
C143 C 0.10604 0.02556 0.69171 0.0
C144 C 0.071 0.0431 0.74761 0.0
C145 C 0.08663 0.01779 0.67641 0.0
C146 C 0.10786 0.04275 0.73515 0.0
C147 C 0.09027 0.05147 0.76499 0.0
O148 O 0.05513 0.98807 0.70088 0.0
O149 O 0.0134 1.00182 0.59973 0.0
O150 O 0.98167 0.02628 0.64735 0.0
O151 O 1.00373 1.0081 0.71899 0.0
O152 O 0.04322 0.99044 0.59684 0.0
O153 O 0.03182 0.99857 0.77662 0.0
O154 O 0.97424 0.04637 0.50187 0.0
O155 O 0.02209 0.04182 0.62403 0.0
O156 O 0.05571 0.0264 0.58851 0.0
O157 O 0.03188 0.03593 0.50401 0.0
O158 O 0.99379 0.05611 0.61821 0.0
O159 O 1.00416 0.04811 0.45425 0.0
C160 C 0.025 0.98831 0.57204 0.0
C161 C 0.05228 0.96925 0.80824 0.0
C162 C 0.04258 0.93837 0.86879 0.0
C163 C 0.03718 0.95599 0.83206 0.0
C164 C 0.0633 0.93451 0.88368 0.0
C165 C 0.07294 0.96532 0.82255 0.0
C166 C 0.07839 0.94808 0.86105 0.0
C167 C 0.98542 0.01549 0.70378 0.0
C168 C 0.04643 0.98562 0.76133 0.0
C169 C 0.09148 0.06764 0.81377 0.0
C170 C 0.07378 0.0746 0.84786 0.0
C171 C 1.01147 0.05668 0.64824 0.0
C172 C 0.98338 0.07791 0.45341 0.0
C173 C 1.00051 0.09042 0.44331 0.0
C174 C 0.99828 0.11169 0.43942 0.0
C175 C 0.97874 0.1205 0.44712 0.0
C176 C 0.96392 0.08688 0.46048 0.0
C177 C 0.96168 0.1081 0.45779 0.0
C178 C 0.05105 0.03332 0.52554 0.0
C179 C 0.98563 0.05556 0.45622 0.0
H180 H 0.02131 0.95875 0.81811 0.0
H181 H 0.06779 0.92099 0.9123 0.0
H182 H 0.08478 0.9754 0.80319 0.0
H183 H 0.09435 0.94501 0.87211 0.0
H184 H 0.01562 0.08368 0.43814 0.0
H185 H 0.97658 0.13689 0.44305 0.0
H186 H 0.95047 0.07747 0.46803 0.0
H187 H 0.94664 0.11493 0.46308 0.0
Eu188 Eu 0.52497 0.03612 0.67268 0.0
C189 C 0.54956 0.97538 0.4655 0.0
C190 C 0.56438 0.99641 0.37435 0.0
C191 C 0.57907 0.96314 0.3987 0.0
C192 C 0.54942 0.99338 0.42695 0.0
C193 C 0.56422 0.95996 0.45043 0.0
C194 C 0.5792 0.98133 0.36101 0.0
C195 C 0.54773 0.93838 0.53481 0.0
N196 N 0.53538 0.97271 0.51678 0.0
C197 C 0.53353 0.95391 0.54766 0.0
C198 C 0.5634 0.94155 0.48693 0.0
Eu199 Eu 0.51131 0.9998 0.53251 0.0
N200 N 0.53514 1.00807 0.44149 0.0
C201 C 0.53476 0.02566 0.40272 0.0
C202 C 0.56424 0.01462 0.33671 0.0
C203 C 0.5493 0.02924 0.35077 0.0
H204 H 0.52062 0.9502 0.58008 0.0
H205 H 0.5489 0.04332 0.32135 0.0
H206 H 0.59081 0.98355 0.32126 0.0
H207 H 0.54624 0.92377 0.56062 0.0
H208 H 0.52347 0.03734 0.4099 0.0
H209 H 0.47067 1.01079 0.87231 0.0
H210 H 0.57553 0.0175 0.29642 0.0
H211 H 0.54036 0.08316 0.63523 0.0
H212 H 0.49702 1.00656 0.78219 0.0
H213 H 0.53137 0.11904 0.66528 0.0
H214 H 0.59047 0.95153 0.38712 0.0
H215 H 0.45741 0.0453 0.90176 0.0
H216 H 0.45913 0.0833 0.8839 0.0
H217 H 0.57433 0.92939 0.4766 0.0
H218 H 0.47547 0.11276 0.82719 0.0
N219 N 0.49897 0.03839 0.75905 0.0
C220 C 0.49177 0.02178 0.79447 0.0
C221 C 0.46917 0.04357 0.86207 0.0
C222 C 0.47723 0.06062 0.82794 0.0
C223 C 0.47664 0.02408 0.84576 0.0
C224 C 0.49241 0.0575 0.77629 0.0
H225 H 0.50257 0.12626 0.74624 0.0
N226 N 0.51643 0.07051 0.69646 0.0
C227 C 0.5227 0.10655 0.68734 0.0
C228 C 0.50139 0.07406 0.74385 0.0
C229 C 0.52773 0.08628 0.67042 0.0
C230 C 0.50642 0.11055 0.73295 0.0
C231 C 0.49575 0.09421 0.76278 0.0
O232 O 0.55505 0.04863 0.69433 0.0
O233 O 0.53759 0.01398 0.59139 0.0
O234 O 0.51385 0.98127 0.63287 0.0
O235 O 0.52778 1.00386 0.71505 0.0
O236 O 0.54824 0.04409 0.59022 0.0
O237 O 0.53941 0.03064 0.77398 0.0
O238 O 0.4953 0.9718 0.50385 0.0
O239 O 0.50015 0.01888 0.62108 0.0
O240 O 0.50988 0.05573 0.58973 0.0
O241 O 0.50185 0.03231 0.49961 0.0
O242 O 0.47869 1.00027 0.57597 0.0
O243 O 0.49579 0.99746 0.43202 0.0
C244 C 0.55078 0.02589 0.56467 0.0
C245 C 0.56761 0.05122 0.80944 0.0
C246 C 0.5981 0.04987 0.88057 0.0
C247 C 0.58385 0.0403 0.83711 0.0
C248 C 0.59582 0.07073 0.89738 0.0
C249 C 0.56497 0.07198 0.82639 0.0
C250 C 0.57908 0.08168 0.87096 0.0
C251 C 0.52203 0.98533 0.69492 0.0
C252 C 0.55586 0.04058 0.7562 0.0
C253 C 0.48015 0.09739 0.81238 0.0
C254 C 0.47088 0.08062 0.84478 0.0
C255 C 0.48136 0.01407 0.62352 0.0
C256 C 0.46607 0.97665 0.43519 0.0
C257 C 0.45342 0.99334 0.41951 0.0
C258 C 0.43237 0.99049 0.41006 0.0
C259 C 0.42392 0.97085 0.41744 0.0
C260 C 0.45747 0.9571 0.44236 0.0
C261 C 0.43645 0.95426 0.4338 0.0
C262 C 0.50286 0.05128 0.5261 0.0
C263 C 0.48811 0.97944 0.44603 0.0
H264 H 0.58604 0.02439 0.82147 0.0
H265 H 0.6069 0.07844 0.93051 0.0
H266 H 0.55247 0.08067 0.80414 0.0
H267 H 0.57728 0.09776 0.88383 0.0
H268 H 0.45992 1.00849 0.41342 0.0
H269 H 0.40765 0.96837 0.41074 0.0
H270 H 0.46701 0.94406 0.45494 0.0
H271 H 0.42988 0.93917 0.43964 0.0
Eu272 Eu 0.53525 0.51452 0.56982 0.0
C273 C 0.44751 0.52289 0.67554 0.0
C274 C 0.43329 0.54638 0.59088 0.0
C275 C 0.41089 0.52287 0.65176 0.0
C276 C 0.45028 0.53847 0.62757 0.0
C277 C 0.42769 0.51514 0.68867 0.0
C278 C 0.41365 0.53864 0.60382 0.0
C279 C 0.44182 0.49493 0.78191 0.0
N280 N 0.46387 0.51608 0.71226 0.0
C281 C 0.46098 0.50338 0.76812 0.0
C282 C 0.42513 0.50056 0.74112 0.0
Eu283 Eu 0.49574 0.5321 0.68953 0.0
N284 N 0.46939 0.54616 0.61764 0.0
C285 C 0.47232 0.56184 0.57138 0.0
C286 C 0.43641 0.56207 0.54284 0.0
C287 C 0.45602 0.56977 0.53293 0.0
H288 H 0.47362 0.49966 0.80228 0.0
H289 H 0.45865 0.58184 0.49551 0.0
H290 H 0.40041 0.54491 0.57748 0.0
H291 H 0.43989 0.4844 0.82484 0.0
H292 H 0.48719 0.56796 0.56078 0.0
H293 H 0.58427 0.47379 0.75806 0.0
H294 H 0.42378 0.56839 0.51328 0.0
H295 H 0.54934 0.5433 0.43466 0.0
H296 H 0.55239 0.48268 0.70139 0.0
H297 H 0.58072 0.55812 0.3841 0.0
H298 H 0.39559 0.51716 0.66139 0.0
H299 H 0.61669 0.48971 0.72085 0.0
H300 H 0.63511 0.51297 0.63904 0.0
H301 H 0.41017 0.49426 0.75256 0.0
H302 H 0.63423 0.53582 0.53748 0.0
N303 N 0.56572 0.50385 0.62917 0.0
C304 C 0.56607 0.48965 0.68169 0.0
C305 C 0.60257 0.49363 0.69439 0.0
C306 C 0.60242 0.50741 0.63892 0.0
C307 C 0.58434 0.48457 0.71533 0.0
C308 C 0.58356 0.5122 0.60665 0.0
H309 H 0.61415 0.55243 0.44158 0.0
N310 N 0.56484 0.52935 0.51992 0.0
C311 C 0.58163 0.54902 0.43107 0.0
C312 C 0.58309 0.52531 0.55036 0.0
C313 C 0.56392 0.54053 0.45973 0.0
C314 C 0.60043 0.54579 0.46372 0.0
C315 C 0.60138 0.53368 0.5237 0.0
O316 O 0.53739 0.50646 0.45879 0.0
O317 O 0.50123 0.51725 0.58566 0.0
O318 O 0.49427 0.49716 0.69042 0.0
O319 O 0.52428 0.48736 0.63367 0.0
O320 O 0.513 0.52852 0.49295 0.0
O321 O 0.53383 0.48272 0.53716 0.0
O322 O 0.48843 0.53475 0.79975 0.0
O323 O 0.5296 0.52956 0.67354 0.0
O324 O 0.53833 0.54907 0.56978 0.0
O325 O 0.51171 0.56026 0.64267 0.0
O326 O 0.51871 0.52085 0.76999 0.0
O327 O 0.488 0.56191 0.73544 0.0
C328 C 0.49642 0.52435 0.52638 0.0
C329 C 0.54682 0.47247 0.42788 0.0
C330 C 0.54618 0.43849 0.37677 0.0
C331 C 0.5373 0.45375 0.41815 0.0
C332 C 0.56478 0.44247 0.34246 0.0
C333 C 0.56553 0.47656 0.39495 0.0
C334 C 0.57444 0.46149 0.35187 0.0
C335 C 0.50785 0.4831 0.67138 0.0
C336 C 0.53565 0.48703 0.47102 0.0
C337 C 0.62006 0.52938 0.55676 0.0
C338 C 0.62056 0.51634 0.61445 0.0
C339 C 0.53506 0.52356 0.73352 0.0
C340 C 0.49541 0.56554 0.85722 0.0
C341 C 0.50728 0.58306 0.84669 0.0
C342 C 0.51505 0.59385 0.90436 0.0
C343 C 0.51143 0.5868 0.97254 0.0
C344 C 0.49184 0.55859 0.92558 0.0
C345 C 0.49996 0.56913 0.98294 0.0
C346 C 0.52709 0.56378 0.59855 0.0
C347 C 0.4861 0.55448 0.79846 0.0
H348 H 0.52242 0.45126 0.44211 0.0
H349 H 0.5718 0.43096 0.309 0.0
H350 H 0.57301 0.49123 0.40195 0.0
H351 H 0.58878 0.46455 0.32562 0.0
H352 H 0.51003 0.58866 0.79421 0.0
H353 H 0.51747 0.59499 0.01761 0.0
H354 H 0.48265 0.54506 0.93458 0.0
H355 H 0.49717 0.56372 0.03549 0.0
Eu356 Eu 0.02782 0.54125 0.55695 0.0
C357 C 0.02397 0.45627 0.64919 0.0
C358 C 1.00128 0.44181 0.5614 0.0
C359 C 0.02851 0.42097 0.60977 0.0
C360 C 1.00762 0.4585 0.60379 0.0
C361 C 0.03413 0.43723 0.65428 0.0
C362 C 1.01212 0.42326 0.56342 0.0
C363 C 0.0525 0.45056 0.7542 0.0
N364 N 0.029 0.47217 0.69196 0.0
C365 C 0.04183 0.46895 0.74756 0.0
C366 C 0.04901 0.43476 0.70617 0.0
Eu367 Eu 1.01042 0.5032 0.67688 0.0
N368 N 0.99755 0.47672 0.60223 0.0
C369 C 0.97995 0.4785 0.56394 0.0
C370 C 0.98406 0.44413 0.51883 0.0
C371 C 0.97317 0.46246 0.52099 0.0
H372 H 0.04369 0.48054 0.78774 0.0
H373 H 0.95942 0.46422 0.49002 0.0
H374 H 1.00766 0.41043 0.53039 0.0
H375 H 0.06308 0.44846 0.79717 0.0
H376 H 0.97062 0.49193 0.56687 0.0
H377 H 0.08145 0.58191 0.731 0.0
H378 H 0.97878 0.43171 0.4854 0.0
H379 H 0.99005 0.56274 0.45804 0.0
H380 H 0.06952 0.5538 0.65806 0.0
H381 H 0.96945 0.59399 0.45654 0.0
H382 H 0.03635 0.40636 0.61232 0.0
H383 H 0.06119 0.61376 0.74075 0.0
H384 H 0.03056 0.63392 0.70473 0.0
H385 H 0.0571 0.42037 0.71186 0.0
H386 H 0.99969 0.63693 0.63221 0.0
N387 N 0.04137 0.56814 0.62872 0.0
C388 C 0.0598 0.56694 0.66266 0.0
C389 C 0.0556 0.60118 0.70868 0.0
C390 C 0.03735 0.60287 0.67107 0.0
C391 C 0.06701 0.58322 0.70363 0.0
C392 C 0.03066 0.586 0.63012 0.0
H393 H 0.97688 0.62224 0.53966 0.0
N394 N 1.00765 0.57161 0.54807 0.0
C395 C 0.98139 0.59229 0.49536 0.0
C396 C 0.01317 0.58765 0.58961 0.0
C397 C 0.9929 0.57431 0.49774 0.0
C398 C 0.98569 0.60819 0.5421 0.0
C399 C 1.0021 0.60627 0.58855 0.0
O400 O 0.03008 0.55377 0.45184 0.0
O401 O 0.0271 0.50703 0.57413 0.0
O402 O 0.04437 0.507 0.69912 0.0
O403 O 0.05606 0.52517 0.60311 0.0
O404 O 0.01872 0.51761 0.47564 0.0
O405 O 0.05756 0.54788 0.51105 0.0
O406 O 1.00703 0.49358 0.78506 0.0
O407 O 1.01174 0.53736 0.66054 0.0
O408 O 0.99466 0.53453 0.53043 0.0
O409 O 0.98259 0.52094 0.63405 0.0
O410 O 0.02065 0.52643 0.75803 0.0
O411 O 0.98062 0.494 0.71693 0.0
C412 C 0.02186 0.50146 0.51247 0.0
C413 C 0.05839 0.54136 0.3889 0.0
C414 C 0.08266 0.517 0.33916 0.0
C415 C 0.07471 0.52766 0.39699 0.0
C416 C 0.07385 0.51976 0.27277 0.0
C417 C 0.04983 0.54414 0.32218 0.0
C418 C 0.05746 0.53326 0.26453 0.0
C419 C 0.05938 0.51472 0.66138 0.0
C420 C 0.0499 0.5523 0.44997 0.0
C421 C 1.00818 0.62266 0.6317 0.0
C422 C 0.0258 0.62098 0.67275 0.0
C423 C 0.01785 0.54269 0.72145 0.0
C424 C 0.97527 0.499 0.83878 0.0
C425 C 0.95879 0.51232 0.82756 0.0
C426 C 0.94666 0.51856 0.88398 0.0
C427 C 0.95115 0.51197 0.95195 0.0
C428 C 0.97983 0.49254 0.90698 0.0
C429 C 0.96785 0.49911 0.96341 0.0
C430 C 0.97948 0.52961 0.57235 0.0
C431 C 0.9874 0.49099 0.78023 0.0
H432 H 0.08134 0.52522 0.44831 0.0
H433 H 0.07996 0.51194 0.22702 0.0
H434 H 0.03717 0.55463 0.31476 0.0
H435 H 0.05082 0.53546 0.21322 0.0
H436 H 0.95504 0.51743 0.77521 0.0
H437 H 0.94169 0.51671 0.99586 0.0
H438 H 0.99253 0.48224 0.91642 0.0
H439 H 0.97134 0.49402 0.01585 0.0
H440 H 0.17895 0.05907 0.01097 0.0
H441 H 0.1511 0.05539 0.09526 0.0
H442 H 0.19495 0.04224 0.25758 0.0
H443 H 0.22301 0.04673 0.17325 0.0
H444 H 0.13683 0.02581 0.16917 0.0
H445 H 0.16314 0.08525 0.35713 0.0
H446 H 0.17523 0.08143 0.27312 0.0
H447 H 0.18151 0.06508 0.34556 0.0
C448 C 0.18268 0.05515 0.06446 0.0
C449 C 0.20326 0.05277 0.08466 0.0
C450 C 0.16668 0.05312 0.11295 0.0
C451 C 0.17067 0.04884 0.18371 0.0
C452 C 0.19126 0.04605 0.204 0.0
H453 H 0.09258 0.0295 0.5472 0.0
H454 H 0.1204 0.03333 0.46426 0.0
C455 C 0.20736 0.04829 0.15536 0.0
C456 C 0.15316 0.04721 0.23496 0.0
H457 H 0.13488 0.06507 0.39261 0.0
C458 C 0.13644 0.03451 0.21785 0.0
C459 C 0.15234 0.05855 0.2988 0.0
C460 C 0.16891 0.07349 0.3195 0.0
C461 C 0.11934 0.03254 0.26259 0.0
C462 C 0.1186 0.04376 0.32654 0.0
C463 C 0.1353 0.05643 0.3438 0.0
C464 C 0.10111 0.04204 0.37749 0.0
C465 C 0.10245 0.01799 0.24146 0.0
C466 C 0.08071 0.04608 0.35786 0.0
C467 C 0.06452 0.0438 0.40599 0.0
C468 C 0.06828 0.03754 0.47533 0.0
C469 C 0.0888 0.03418 0.49498 0.0
C470 C 0.1049 0.03641 0.44707 0.0
H471 H 0.10774 1.00661 0.20175 0.0
H472 H 0.09641 1.00964 0.28743 0.0
H473 H 0.0897 0.02684 0.21802 0.0
H474 H 0.07725 0.051 0.3052 0.0
H475 H 0.04904 0.04671 0.38844 0.0
H476 H 0.46888 0.2185 0.16975 0.0
H477 H 0.46644 0.18901 0.24841 0.0
H478 H 0.50755 0.15497 0.11434 0.0
H479 H 0.50992 0.18427 0.03564 0.0
H480 H 0.45615 0.14504 0.22782 0.0
H481 H 0.5368 0.1579 0.30849 0.0
H482 H 0.52188 0.1771 0.26409 0.0
H483 H 0.53277 0.15605 0.21551 0.0
C484 C 0.47699 0.20458 0.1561 0.0
C485 C 0.48959 0.2038 0.09612 0.0
C486 C 0.47566 0.18772 0.20136 0.0
C487 C 0.48707 0.16981 0.18805 0.0
C488 C 0.4988 0.16867 0.12639 0.0
H489 H 0.48658 0.04999 0.39248 0.0
H490 H 0.48161 0.07852 0.31199 0.0
C491 C 0.50005 0.18542 0.0811 0.0
C492 C 0.48794 0.15285 0.24033 0.0
H493 H 0.52098 0.12768 0.34895 0.0
C494 C 0.4703 0.14126 0.25441 0.0
C495 C 0.5063 0.14804 0.27607 0.0
C496 C 0.52551 0.16049 0.26598 0.0
C497 C 0.47071 0.12475 0.30176 0.0
C498 C 0.48929 0.11952 0.33572 0.0
C499 C 0.50676 0.13145 0.32269 0.0
C500 C 0.49098 0.10205 0.38588 0.0
C501 C 0.45116 0.11323 0.31589 0.0
C502 C 0.49799 0.10553 0.45451 0.0
C503 C 0.5009 0.0892 0.50067 0.0
C504 C 0.49718 0.0688 0.47952 0.0
C505 C 0.48966 0.06539 0.41115 0.0
C506 C 0.48669 0.08178 0.3649 0.0
H507 H 0.43745 0.1223 0.30115 0.0
H508 H 0.45108 0.09886 0.28438 0.0
H509 H 0.44994 0.10911 0.37204 0.0
H510 H 0.50145 0.12095 0.47232 0.0
H511 H 0.50655 0.09267 0.55244 0.0
H512 H 0.33529 0.52349 0.12812 0.0
H513 H 0.36293 0.52863 0.21405 0.0
H514 H 0.3761 0.46394 0.2078 0.0
H515 H 0.34868 0.4588 0.12202 0.0
H516 H 0.37118 0.51262 0.34711 0.0
H517 H 0.43148 0.48891 0.1584 0.0
H518 H 0.40552 0.49421 0.13173 0.0
H519 H 0.41183 0.4701 0.17103 0.0
C520 C 0.34387 0.51034 0.14599 0.0
C521 C 0.33962 0.49072 0.11844 0.0
C522 C 0.35975 0.51328 0.19495 0.0
C523 C 0.37199 0.49674 0.21664 0.0
C524 C 0.36726 0.47705 0.19105 0.0
H525 H 0.46443 0.49791 0.558 0.0
H526 H 0.43365 0.49084 0.48715 0.0
C527 C 0.35139 0.4741 0.14241 0.0
C528 C 0.38994 0.50009 0.26457 0.0
H529 H 0.44211 0.49503 0.2754 0.0
C530 C 0.38666 0.50867 0.33145 0.0
C531 C 0.41029 0.49521 0.24425 0.0
C532 C 0.4151 0.48677 0.17224 0.0
C533 C 0.40301 0.51231 0.3783 0.0
C534 C 0.42331 0.50723 0.35846 0.0
C535 C 0.42659 0.49875 0.29138 0.0
C536 C 0.44148 0.51187 0.40433 0.0
C537 C 0.39858 0.52236 0.44775 0.0
C538 C 0.45629 0.52594 0.38188 0.0
C539 C 0.47365 0.53018 0.42269 0.0
C540 C 0.47687 0.52044 0.48724 0.0
C541 C 0.46219 0.50612 0.50959 0.0
C542 C 0.44459 0.50203 0.46889 0.0
H543 H 0.38248 0.52773 0.45211 0.0
H544 H 0.40153 0.51129 0.49029 0.0
H545 H 0.40892 0.53566 0.45515 0.0
H546 H 0.45442 0.53369 0.33237 0.0
H547 H 0.48472 0.54108 0.40332 0.0
H548 H 0.06266 0.32303 0.2103 0.0
H549 H 0.06386 0.35535 0.27802 0.0
H550 H 0.01419 0.37906 0.1544 0.0
H551 H 1.01283 0.34685 0.08761 0.0
H552 H 0.06849 0.39739 0.25213 0.0
H553 H 0.99015 0.38256 0.35004 0.0
H554 H 1.00484 0.36337 0.30343 0.0
H555 H 0.99164 0.38313 0.25625 0.0
C556 C 0.05227 0.33531 0.19669 0.0
C557 C 0.03747 0.33218 0.14384 0.0
C558 C 0.0529 0.3538 0.23576 0.0
C559 C 0.03868 0.36962 0.22327 0.0
C560 C 0.02496 0.36702 0.16696 0.0
H561 H 1.00073 0.48609 0.40275 0.0
H562 H 1.00638 0.45443 0.33628 0.0
C563 C 0.02434 0.34861 0.12803 0.0
C564 C 0.03734 0.38826 0.27078 0.0
H565 H 1.00398 0.41533 0.37546 0.0
C566 C 0.05442 0.40121 0.27942 0.0
C567 C 0.01908 0.39342 0.30739 0.0
C568 C 1.00044 0.3798 0.30452 0.0
C569 C 0.05345 0.41938 0.32075 0.0
C570 C 0.03501 0.42471 0.35604 0.0
C571 C 0.01813 0.4115 0.34856 0.0
C572 C 0.03231 0.44438 0.39751 0.0
C573 C 0.07197 0.43313 0.32398 0.0
C574 C 0.04493 0.44967 0.45499 0.0
C575 C 0.04163 0.46799 0.49359 0.0
C576 C 0.02538 0.48124 0.47644 0.0
C577 C 1.01311 0.47606 0.41836 0.0
C578 C 0.01636 0.45789 0.38011 0.0
H579 H 0.08293 0.42974 0.28086 0.0
H580 H 0.06742 0.44949 0.32119 0.0
H581 H 0.08004 0.43077 0.37439 0.0
H582 H 0.05716 0.43952 0.47076 0.0
H583 H 0.05172 0.47177 0.53681 0.0
H584 H 0.84405 0.03425 0.16498 0.0
H585 H 0.87414 0.0317 0.08946 0.0
H586 H 0.85323 0.97309 0.01215 0.0
H587 H 0.82267 0.976 0.08613 0.0
H588 H 0.90567 1.00811 0.07496 0.0
H589 H 0.86073 1.00037 0.82973 0.0
H590 H 0.84876 1.00571 0.913 0.0
H591 H 0.85629 0.97996 0.88992 0.0
C592 C 0.84596 0.02066 0.13263 0.0
C593 C 0.83084 1.00532 0.13221 0.0
C594 C 0.86322 0.01923 0.08903 0.0
C595 C 0.86593 1.00246 0.04305 0.0
C596 C 0.85136 0.98656 0.04504 0.0
H597 H 0.96712 0.97967 0.7424 0.0
H598 H 0.93845 0.9752 0.82499 0.0
C599 C 0.83394 0.98808 0.08842 0.0
C600 C 0.88379 1.00212 0.99288 0.0
H601 H 0.89673 0.99857 0.81876 0.0
C602 C 0.9036 1.00599 0.019 0.0
C603 C 0.88139 0.99941 0.9193 0.0
C604 C 0.86064 0.99633 0.88614 0.0
C605 C 0.92076 1.00739 0.97432 0.0
C606 C 0.91827 1.00483 0.90116 0.0
C607 C 0.89866 1.00048 0.87487 0.0
C608 C 0.93572 1.00742 0.85103 0.0
C609 C 0.94152 1.01171 1.00556 0.0
C610 C 0.9436 0.02701 0.83728 0.0
C611 C 0.95962 0.02959 0.78904 0.0
C612 C 0.96846 1.0126 0.75471 0.0
C613 C 0.96072 0.99298 0.76874 0.0
C614 C 0.94433 0.99044 0.81577 0.0
H615 H 0.94163 1.00971 0.06329 0.0
H616 H 0.95327 1.00147 0.9818 0.0
H617 H 0.94592 0.02774 0.99401 0.0
H618 H 0.9372 0.04035 0.86344 0.0
H619 H 0.96529 0.04488 0.7791 0.0
H620 H 0.52688 0.81805 0.04782 0.0
H621 H 0.5278 0.84644 0.96495 0.0
H622 H 0.55614 0.8849 0.12192 0.0
H623 H 0.55524 0.85638 0.20516 0.0
H624 H 0.50695 0.88351 0.99006 0.0
H625 H 0.58968 0.89815 0.94515 0.0
H626 H 0.5804 0.87433 0.98052 0.0
H627 H 0.58171 0.89683 0.03515 0.0
C628 C 0.53371 0.83241 0.06426 0.0
C629 C 0.54092 0.83498 0.13325 0.0
C630 C 0.53419 0.84868 0.01683 0.0
C631 C 0.54206 0.8679 0.0368 0.0
C632 C 0.55023 0.87021 0.10464 0.0
H633 H 0.54413 0.98576 0.81754 0.0
H634 H 0.54885 0.95803 0.90117 0.0
C635 C 0.54968 0.85391 0.15231 0.0
C636 C 0.53979 0.88581 0.98889 0.0
H637 H 0.56629 0.92149 0.89497 0.0
C638 C 0.51995 0.89175 0.9691 0.0
C639 C 0.55669 0.89689 0.96241 0.0
C640 C 0.57836 0.89121 0.98131 0.0
C641 C 0.51651 0.90832 0.92392 0.0
C642 C 0.5334 0.91899 0.89519 0.0
C643 C 0.55328 0.9133 0.91608 0.0
C644 C 0.5307 0.93593 0.8433 0.0
C645 C 0.49467 0.91453 0.90917 0.0
C646 C 0.51908 0.93292 0.78197 0.0
C647 C 0.51599 0.94892 0.73454 0.0
C648 C 0.52494 0.96826 0.74587 0.0
C649 C 0.53689 0.97115 0.80674 0.0
C650 C 0.53974 0.95521 0.85468 0.0
H651 H 0.48423 0.90975 0.95194 0.0
H652 H 0.49324 0.93135 0.9027 0.0
H653 H 0.48944 0.90685 0.86025 0.0
H654 H 0.51232 0.91814 0.77058 0.0
H655 H 0.5064 0.9461 0.68934 0.0
H656 H 0.68199 0.52884 0.17798 0.0
H657 H 0.65123 0.53064 0.10464 0.0
H658 H 0.6869 0.55681 0.93793 0.0
H659 H 0.7178 0.55448 0.01083 0.0
H660 H 0.62916 0.55891 0.03983 0.0
H661 H 0.66334 0.5086 0.83525 0.0
H662 H 0.67563 0.51316 0.91847 0.0
H663 H 0.67746 0.53179 0.84986 0.0
C664 C 0.68322 0.53519 0.12596 0.0
C665 C 0.70246 0.54111 0.09987 0.0
C666 C 0.66559 0.53618 0.08378 0.0
C667 C 0.66666 0.54316 0.01426 0.0
C668 C 0.68562 0.55061 0.99013 0.0
H669 H 0.56828 0.54711 0.69047 0.0
H670 H 0.60065 0.55304 0.75427 0.0
C671 C 0.70329 0.54954 0.03226 0.0
C672 C 0.64811 0.54202 0.96716 0.0
H673 H 0.63036 0.52181 0.81175 0.0
C674 C 0.62954 0.55084 0.98993 0.0
C675 C 0.64828 0.53145 0.90162 0.0
C676 C 0.66717 0.52054 0.87502 0.0
C677 C 0.61143 0.54937 0.9497 0.0
C678 C 0.61161 0.53863 0.88479 0.0
C679 C 0.63018 0.53017 0.86114 0.0
C680 C 0.59233 0.53474 0.84381 0.0
C681 C 0.59213 0.55933 0.97705 0.0
C682 C 0.577 0.52218 0.87175 0.0
C683 C 0.5588 0.51845 0.83487 0.0
C684 C 0.5553 0.52712 0.76869 0.0
C685 C 0.57061 0.53983 0.74056 0.0
C686 C 0.58907 0.54334 0.77728 0.0
H687 H 0.59544 0.57099 0.01828 0.0
H688 H 0.58354 0.56675 0.93396 0.0
H689 H 0.58213 0.54744 1.00014 0.0
H690 H 0.57912 0.51518 0.92244 0.0
H691 H 0.54735 0.50872 0.85848 0.0
H692 H 0.03306 0.69938 0.1285 0.0
H693 H 0.0311 0.66749 0.06075 0.0
H694 H 0.97207 0.68549 0.98109 0.0
H695 H 0.97441 0.71792 0.04748 0.0
H696 H 1.00719 0.6354 0.05659 0.0
H697 H 0.99948 0.67332 0.79912 0.0
H698 H 1.00476 0.68758 0.87843 0.0
H699 H 0.97915 0.67903 0.85944 0.0
C700 C 0.01952 0.69648 0.09726 0.0
C701 C 1.00393 0.71133 0.09354 0.0
C702 C 0.01843 0.67818 0.05805 0.0
C703 C 1.00173 0.67407 0.01351 0.0
C704 C 0.98552 0.68839 0.01275 0.0
H705 H 0.98638 0.57112 0.70799 0.0
H706 H 0.98096 0.60242 0.77909 0.0
C707 C 0.98668 0.70684 0.05179 0.0
C708 C 1.00168 0.65489 0.96837 0.0
H709 H 0.99932 0.63724 0.79846 0.0
C710 C 1.00543 0.6359 1.00014 0.0
C711 C 0.99919 0.65517 0.89438 0.0
C712 C 0.99559 0.67486 0.85561 0.0
C713 C 1.00686 0.61748 0.96095 0.0
C714 C 1.00516 0.61783 0.88668 0.0
C715 C 1.00083 0.63673 0.85497 0.0
C716 C 1.00849 0.59898 0.84131 0.0
C717 C 1.00978 0.59779 1.00053 0.0
C718 C 0.02595 0.58663 0.85041 0.0
C719 C 0.02882 0.56866 0.8107 0.0
C720 C 0.01492 0.56288 0.75793 0.0
C721 C 0.99763 0.57537 0.74716 0.0
C722 C 0.99451 0.59325 0.78817 0.0
H723 H 1.00324 0.59896 0.05416 0.0
H724 H 1.00251 0.58461 0.97312 0.0
H725 H 0.0264 0.59467 1.0062 0.0
H726 H 0.03749 0.59084 0.88851 0.0
H727 H 0.04219 0.5593 0.82079 0.0
H728 H 0.06923 0.26538 0.22957 0.0
H729 H 0.07173 0.23907 0.31737 0.0
H730 H 0.10656 0.20111 0.17499 0.0
H731 H 0.10536 0.22805 0.08753 0.0
H732 H 0.0519 0.20509 0.22294 0.0
H733 H 0.11675 0.18028 0.39218 0.0
H734 H 0.11247 0.20713 0.37473 0.0
H735 H 0.12127 0.1905 0.30589 0.0
C736 C 0.07882 0.25221 0.21829 0.0
C737 C 0.08625 0.24834 0.15028 0.0
C738 C 0.08024 0.2371 0.269 0.0
C739 C 0.08886 0.21805 0.2517 0.0
C740 C 0.0998 0.21575 0.18906 0.0
H741 H 0.02766 0.10407 0.34121 0.0
H742 H 0.05411 0.12767 0.30126 0.0
C743 C 0.09883 0.23109 0.13879 0.0
C744 C 0.07943 0.19986 0.28245 0.0
H745 H 0.08578 0.16143 0.40001 0.0
C746 C 0.05932 0.19549 0.26153 0.0
C747 C 0.08942 0.1873 0.33128 0.0
C748 C 0.11121 0.19138 0.35273 0.0
C749 C 0.04854 0.17926 0.29052 0.0
C750 C 0.0582 0.16719 0.34167 0.0
C751 C 0.07856 0.17099 0.36098 0.0
C752 C 0.04654 0.15127 0.37715 0.0
C753 C 0.0267 0.1754 0.26776 0.0
C754 C 0.03411 0.15676 0.43412 0.0
C755 C 0.01897 0.14342 0.45694 0.0
C756 C 0.01612 0.12451 0.42275 0.0
C757 C 0.02961 0.11852 0.36878 0.0
C758 C 0.04476 0.13188 0.34606 0.0
H759 H 0.02185 0.18567 0.22475 0.0
H760 H 0.02495 0.15928 0.24974 0.0
H761 H 0.01623 0.17779 0.31294 0.0
H762 H 0.03528 0.17185 0.4579 0.0
H763 H 1.00898 0.1482 0.49939 0.0
H764 H 0.28492 0.05327 0.21521 0.0
H765 H 0.31222 0.05619 0.29998 0.0
H766 H 0.33571 0.1092 0.19316 0.0
H767 H 0.30842 0.10588 0.10618 0.0
H768 H 0.36111 0.07902 0.18285 0.0
H769 H 0.33927 0.08336 0.46027 0.0
H770 H 0.32281 0.06519 0.41808 0.0
H771 H 0.32212 0.0917 0.39187 0.0
C772 C 0.29511 0.06632 0.21214 0.0
C773 C 0.29485 0.07914 0.15369 0.0
C774 C 0.31076 0.06808 0.26115 0.0
C775 C 0.3261 0.08292 0.25296 0.0
C776 C 0.32401 0.09767 0.20044 0.0
H777 H 0.4315 0.02898 0.46795 0.0
H778 H 0.40994 0.05786 0.43178 0.0
C779 C 0.30846 0.09576 0.15082 0.0
C780 C 0.34635 0.07899 0.28435 0.0
H781 H 0.36694 0.058 0.43084 0.0
C782 C 0.36269 0.07531 0.23786 0.0
C783 C 0.34861 0.07418 0.35593 0.0
C784 C 0.33224 0.07906 0.40924 0.0
C785 C 0.38011 0.06466 0.25934 0.0
C786 C 0.38103 0.05746 0.32867 0.0
C787 C 0.36597 0.06332 0.37727 0.0
C788 C 0.39518 0.04096 0.3479 0.0
C789 C 0.3966 0.05983 0.20624 0.0
C790 C 0.39366 0.02201 0.31311 0.0
C791 C 0.40576 1.00563 0.33356 0.0
C792 C 0.41946 1.0079 0.38953 0.0
C793 C 0.42107 0.02693 0.42434 0.0
C794 C 0.40885 0.04337 0.40387 0.0
H795 H 0.39747 0.0719 0.16573 0.0
H796 H 0.41182 0.05827 0.23156 0.0
H797 H 0.39289 0.04517 0.17918 0.0
H798 H 0.3828 0.01978 0.27081 0.0
H799 H 0.40448 0.99119 0.30542 0.0
H800 H 0.42653 0.30128 0.13518 0.0
H801 H 0.42948 0.32633 0.23183 0.0
H802 H 0.49295 0.30904 0.25788 0.0
H803 H 0.48923 0.28296 0.16827 0.0
H804 H 0.47996 0.32214 0.37423 0.0
H805 H 0.45367 0.37787 0.17256 0.0
H806 H 0.43524 0.36019 0.20607 0.0
H807 H 0.45595 0.35109 0.15154 0.0
C808 C 0.44067 0.30229 0.1646 0.0
C809 C 0.45765 0.29036 0.14531 0.0
C810 C 0.44249 0.31676 0.21872 0.0
C811 C 0.46163 0.32014 0.25032 0.0
C812 C 0.47796 0.30681 0.23476 0.0
H813 H 0.53906 0.41736 0.25543 0.0
H814 H 0.51485 0.38922 0.23895 0.0
C815 C 0.47588 0.29188 0.18334 0.0
C816 C 0.46642 0.3391 0.28989 0.0
H817 H 0.47524 0.38968 0.25928 0.0
C818 C 0.47863 0.33704 0.34997 0.0
C819 C 0.46437 0.35861 0.25851 0.0
C820 C 0.45169 0.36218 0.19355 0.0
C821 C 0.49161 0.35283 0.37199 0.0
C822 C 0.4907 0.37179 0.33707 0.0
C823 C 0.47615 0.37486 0.28434 0.0
C824 C 0.50612 0.38786 0.34852 0.0
C825 C 0.50755 0.34827 0.42708 0.0
C826 C 0.5096 0.39587 0.41561 0.0
C827 C 0.5242 0.41103 0.42549 0.0
C828 C 0.53474 0.41925 0.36783 0.0
C829 C 0.53147 0.41103 0.30077 0.0
C830 C 0.51735 0.39529 0.29128 0.0
H831 H 0.50962 0.33154 0.43463 0.0
H832 H 0.52262 0.35488 0.41288 0.0
H833 H 0.50265 0.35503 0.47794 0.0
H834 H 0.5008 0.3907 0.46012 0.0
H835 H 0.52652 0.41706 0.47798 0.0
H836 H 0.23475 0.43521 0.11025 0.0
H837 H 0.20616 0.4331 0.19211 0.0
H838 H 0.23394 0.47961 0.32224 0.0
H839 H 0.26209 0.4824 0.24006 0.0
H840 H 0.19533 0.44027 0.3655 0.0
H841 H 0.18735 0.50235 0.16745 0.0
H842 H 0.20285 0.48002 0.15039 0.0
H843 H 0.21161 0.49933 0.21064 0.0
C844 C 0.23533 0.44417 0.15829 0.0
C845 C 0.25016 0.45957 0.16737 0.0
C846 C 0.21908 0.44277 0.20537 0.0
C847 C 0.21791 0.45653 0.26196 0.0
C848 C 0.23473 0.46891 0.27855 0.0
H849 H 0.11688 0.52631 0.41402 0.0
H850 H 0.14939 0.50791 0.41257 0.0
C851 C 0.25084 0.47049 0.23118 0.0
C852 C 0.19763 0.46321 0.28564 0.0
H853 H 0.16106 0.49874 0.24897 0.0
C854 C 0.18777 0.45303 0.34038 0.0
C855 C 0.18797 0.47983 0.25186 0.0
C856 C 0.19785 0.49104 0.19164 0.0
C857 C 0.16821 0.45927 0.36257 0.0
C858 C 0.15874 0.47587 0.32889 0.0
C859 C 0.16864 0.48602 0.27443 0.0
C860 C 0.13826 0.48309 0.34728 0.0
C861 C 0.15769 0.44834 0.42157 0.0
C862 C 0.12134 0.47481 0.31209 0.0
C863 C 0.10278 0.48532 0.31231 0.0
C864 C 0.10107 0.50421 0.34757 0.0
C865 C 0.11772 0.51168 0.38686 0.0
C866 C 0.13625 0.50118 0.38648 0.0
H867 H 0.16735 0.43598 0.44375 0.0
H868 H 0.15377 0.45949 0.46383 0.0
H869 H 0.14312 0.44159 0.40231 0.0
H870 H 0.12291 0.46099 0.28061 0.0
H871 H 0.09007 0.47918 0.2824 0.0
H872 H 0.92929 0.80877 0.14805 0.0
H873 H 0.92604 0.83777 0.0693 0.0
H874 H 0.97107 0.81042 0.93182 0.0
H875 H 0.9742 0.78161 0.00942 0.0
H876 H 0.9632 0.85517 0.08028 0.0
H877 H 0.94403 0.84943 0.7995 0.0
H878 H 0.93416 0.83159 0.86302 0.0
H879 H 0.95927 0.82798 0.82547 0.0
C880 C 0.93738 0.8083 0.09848 0.0
C881 C 0.95254 0.7934 0.0859 0.0
C882 C 0.93549 0.82488 0.05341 0.0
C883 C 0.94866 0.82648 0.99561 0.0
C884 C 0.96065 0.80953 0.97585 0.0
H885 H 0.04353 0.89712 0.84855 0.0
H886 H 0.01646 0.87254 0.87558 0.0
C887 C 0.96249 0.79295 0.02071 0.0
C888 C 0.95562 0.8469 0.97354 0.0
H889 H 0.97269 0.87239 0.83004 0.0
C890 C 0.96453 0.85939 0.02564 0.0
C891 C 0.95782 0.8521 0.90235 0.0
C892 C 0.94811 0.8396 0.84457 0.0
C893 C 0.97697 0.87595 0.00817 0.0
C894 C 0.9801 0.88037 0.93682 0.0
C895 C 0.97015 0.86883 0.88474 0.0
C896 C 0.99544 0.89546 0.91579 0.0
C897 C 0.98805 0.88751 0.06575 0.0
C898 C 0.99236 0.91633 0.92967 0.0
C899 C 1.00785 0.9303 0.91534 0.0
C900 C 0.02656 0.92352 0.88691 0.0
C901 C 0.02942 0.90262 0.87198 0.0
C902 C 0.01392 0.88867 0.88629 0.0
H903 H 0.98603 0.88032 0.1178 0.0
H904 H 1.00469 0.88833 0.05408 0.0
H905 H 0.98211 0.90342 0.06894 0.0
H906 H 0.97812 0.92171 0.95245 0.0
H907 H 1.00529 0.94637 0.92703 0.0
H908 H 0.76427 0.98468 0.03065 0.0
H909 H 0.73667 0.98797 0.94717 0.0
H910 H 0.70597 0.93637 0.03905 0.0
H911 H 0.73344 0.9334 0.12517 0.0
H912 H 0.70599 0.97151 0.86 0.0
H913 H 0.68012 0.98728 0.13423 0.0
H914 H 0.70635 0.98161 0.11315 0.0
H915 H 0.68766 0.96138 0.11553 0.0
C916 C 0.7524 0.9731 0.03037 0.0
C917 C 0.75043 0.95934 0.08613 0.0
C918 C 0.73655 0.97503 0.98231 0.0
C919 C 0.71894 0.96304 0.98962 0.0
C920 C 0.7193 0.94611 0.03427 0.0
H921 H 0.59724 1.01269 0.94119 0.0
H922 H 0.62607 0.9894 0.95737 0.0
C923 C 0.73502 0.94437 0.08331 0.0
C924 C 0.69927 0.97242 0.97047 0.0
H925 H 0.65927 0.99832 0.04459 0.0
C926 C 0.69549 0.97701 0.90001 0.0
C927 C 0.68607 0.98022 0.02352 0.0
C928 C 0.69024 0.97757 0.10087 0.0
C929 C 0.67882 0.98934 0.88117 0.0
C930 C 0.66586 0.9971 0.93438 0.0
C931 C 0.66931 0.9921 1.00432 0.0
C932 C 0.64869 1.01086 0.91997 0.0
C933 C 0.67534 0.99425 0.80506 0.0
C934 C 0.65217 0.03076 0.89573 0.0
C935 C 0.63573 0.04416 0.88685 0.0
C936 C 0.61581 0.03772 0.90275 0.0
C937 C 0.61255 0.01799 0.92912 0.0
C938 C 0.62888 1.00464 0.93748 0.0
H939 H 0.68388 0.98363 0.76975 0.0
H940 H 0.6588 0.99351 0.79195 0.0
H941 H 0.6807 1.01006 0.79486 0.0
H942 H 0.66753 0.0359 0.88385 0.0
H943 H 0.63847 0.05919 0.86519 0.0
H944 H 0.60946 0.74214 0.11478 0.0
H945 H 0.61276 0.71675 0.02025 0.0
H946 H 0.55261 0.73346 0.94567 0.0
H947 H 0.5502 0.75967 0.03594 0.0
H948 H 0.58991 0.687 0.03414 0.0
H949 H 0.57365 0.71287 0.76795 0.0
H950 H 0.58165 0.73075 0.83544 0.0
H951 H 0.55487 0.72463 0.82332 0.0
C952 C 0.59763 0.74117 0.07512 0.0
C953 C 0.57963 0.75273 0.08183 0.0
C954 C 0.59946 0.72668 0.0213 0.0
C955 C 0.58298 0.72312 0.97544 0.0
C956 C 0.56587 0.7362 0.97839 0.0
H957 H 0.50631 0.63062 0.96203 0.0
H958 H 0.52719 0.66159 0.95732 0.0
C959 C 0.56436 0.75111 0.03068 0.0
C960 C 0.58082 0.70295 0.94023 0.0
H961 H 0.55518 0.68053 0.80411 0.0
C962 C 0.58331 0.68554 0.98222 0.0
C963 C 0.57211 0.70076 0.87265 0.0
C964 C 0.57066 0.71833 0.82232 0.0
C965 C 0.57513 0.66669 0.96205 0.0
C966 C 0.56409 0.66532 0.89883 0.0
C967 C 0.56351 0.6819 0.85308 0.0
C968 C 0.54993 0.6483 0.88787 0.0
C969 C 0.57643 0.64888 0.01185 0.0
C970 C 0.55568 0.63107 0.84834 0.0
C971 C 0.54375 0.61338 0.85096 0.0
C972 C 0.52628 0.61293 0.89388 0.0
C973 C 0.51996 0.63065 0.92975 0.0
C974 C 0.5317 0.64829 0.92649 0.0
H975 H 0.58897 0.65094 0.05059 0.0
H976 H 0.56178 0.6476 0.04101 0.0
H977 H 0.57892 0.63429 0.9827 0.0
H978 H 0.56983 0.63098 0.81874 0.0
H979 H 0.5487 0.59979 0.82262 0.0
H980 H 0.77784 0.55828 0.00839 0.0
H981 H 0.80624 0.56141 0.9269 0.0
H982 H 0.82728 0.61528 0.03793 0.0
H983 H 0.79932 0.61148 0.12233 0.0
H984 H 0.8297 0.58533 0.84287 0.0
H985 H 0.86664 0.57115 0.10146 0.0
H986 H 0.83932 0.57191 0.09092 0.0
H987 H 0.8538 0.59533 0.09455 0.0
C988 C 0.78784 0.57146 0.01313 0.0
C989 C 0.78678 0.58441 0.07205 0.0
C990 C 0.80411 0.57323 0.96652 0.0
C991 C 0.81919 0.58815 0.9782 0.0
C992 C 0.81599 0.60338 0.02939 0.0
H993 H 0.94557 0.55947 0.86267 0.0
H994 H 0.91477 0.58125 0.86585 0.0
C995 C 0.79998 0.60131 0.07717 0.0
C996 C 0.83986 0.58426 0.95021 0.0
H997 H 0.88668 0.56696 1.0022 0.0
C998 C 0.84237 0.58185 0.87747 0.0
C999 C 0.85613 0.57906 0.99604 0.0
C1000 C 0.85389 0.57928 0.075 0.0
C1001 C 0.86046 0.57356 0.84956 0.0
C1002 C 0.87636 0.56817 0.89553 0.0
C1003 C 0.87439 0.57163 0.96757 0.0
C1004 C 0.8938 0.55575 0.87282 0.0
C1005 C 0.86217 0.56938 0.77202 0.0
C1006 C 0.89184 0.53439 0.87444 0.0
C1007 C 0.90923 0.52212 0.87424 0.0
C1008 C 0.92861 0.53117 0.87186 0.0
C1009 C 0.93058 0.55241 0.86466 0.0
C1010 C 0.91313 0.56474 0.86582 0.0
H1011 H 0.84961 0.57674 0.74215 0.0
H1012 H 0.87713 0.57494 0.75211 0.0
H1013 H 0.86159 0.55258 0.76237 0.0
H1014 H 0.87696 0.52734 0.88124 0.0
H1015 H 0.90763 0.50569 0.87967 0.0
H1016 H 0.01601 0.23279 0.97543 0.0
H1017 H 1.00921 0.20035 0.91295 0.0
H1018 H 0.07011 0.20157 0.82602 0.0
H1019 H 0.07652 0.23419 0.88601 0.0
H1020 H 0.04592 0.18552 0.73212 0.0
H1021 H 0.0288 0.14654 0.98132 0.0
H1022 H 1.01136 0.16712 0.96453 0.0
H1023 H 0.03809 0.1725 0.97895 0.0
C1024 C 0.02761 0.22656 0.94065 0.0
C1025 C 0.04668 0.23642 0.93481 0.0
C1026 C 0.02393 0.20765 0.90617 0.0
C1027 C 0.03936 0.19786 0.86601 0.0
C1028 C 0.0579 0.20843 0.85668 0.0
H1029 H 0.0498 0.07589 0.64865 0.0
H1030 H 0.05835 0.10953 0.70133 0.0
C1031 C 0.0615 0.22732 0.89055 0.0
C1032 C 0.03665 0.17649 0.83557 0.0
H1033 H 0.02325 0.12724 0.87719 0.0
C1034 C 0.04103 0.1728 0.76415 0.0
C1035 C 0.0306 0.15951 0.8768 0.0
C1036 C 0.02716 0.16152 0.95475 0.0
C1037 C 0.0388 0.15316 0.73276 0.0
C1038 C 0.03225 0.13636 0.77372 0.0
C1039 C 0.02821 0.13996 0.84527 0.0
C1040 C 0.02798 0.11536 0.74302 0.0
C1041 C 0.04286 0.15075 0.65529 0.0
C1042 C 1.00837 0.10683 0.75039 0.0
C1043 C 1.00363 0.08763 0.72125 0.0
C1044 C 0.01837 0.07596 0.68463 0.0
C1045 C 0.03816 0.08424 0.67758 0.0
C1046 C 0.04295 0.10367 0.70692 0.0
H1047 H 0.04324 0.16575 0.62834 0.0
H1048 H 0.05794 0.14323 0.64748 0.0
H1049 H 0.03101 0.14099 0.63003 0.0
H1050 H 0.99647 0.11528 0.77774 0.0
H1051 H 0.98818 0.08187 0.72712 0.0
H1052 H 0.30484 0.0196 0.93035 0.0
H1053 H 0.33719 1.01329 0.8677 0.0
H1054 H 0.34354 0.07808 0.83237 0.0
H1055 H 0.31105 0.08425 0.89279 0.0
H1056 H 0.3579 0.05746 0.72193 0.0
H1057 H 0.39136 0.02331 0.96036 0.0
H1058 H 0.36932 1.00971 0.92899 0.0
H1059 H 0.36665 0.03565 0.96073 0.0
C1060 C 0.31272 0.03237 0.90666 0.0
C1061 C 0.30516 0.05241 0.91595 0.0
C1062 C 0.33152 0.02884 0.8722 0.0
C1063 C 0.34335 0.04527 0.84696 0.0
C1064 C 0.335 0.06509 0.85164 0.0
H1065 H 0.46676 0.05362 0.64646 0.0
H1066 H 0.43428 0.06321 0.70425 0.0
C1067 C 0.31624 0.0686 0.88569 0.0
C1068 C 0.36468 0.04211 0.8184 0.0
H1069 H 0.41175 0.02201 0.85783 0.0
C1070 C 0.36968 0.04974 0.75181 0.0
C1071 C 0.38034 0.03234 0.85741 0.0
C1072 C 0.37676 0.02497 0.93109 0.0
C1073 C 0.38939 0.04716 0.72222 0.0
C1074 C 0.40492 0.03698 0.76067 0.0
C1075 C 0.40001 0.02976 0.82787 0.0
C1076 C 0.42575 0.03212 0.73061 0.0
C1077 C 0.3931 0.05476 0.64891 0.0
C1078 C 0.43257 1.0117 0.72907 0.0
C1079 C 0.45128 1.00639 0.69799 0.0
C1080 C 0.46406 0.02129 0.66837 0.0
C1081 C 0.4576 0.04186 0.67081 0.0
C1082 C 0.43877 0.04726 0.70258 0.0
H1083 H 0.37854 0.0575 0.62042 0.0
H1084 H 0.40152 0.06949 0.65169 0.0
H1085 H 0.40245 0.04366 0.61811 0.0
H1086 H 0.42304 0.99964 0.74994 0.0
H1087 H 0.45557 0.99036 0.69543 0.0
H1088 H 0.51006 0.30016 0.93632 0.0
H1089 H 0.51758 0.33241 0.87616 0.0
H1090 H 0.45501 0.33567 0.80578 0.0
H1091 H 0.44749 0.3035 0.86614 0.0
H1092 H 0.48572 0.34929 0.70297 0.0
H1093 H 0.4935 0.38627 0.96505 0.0
H1094 H 0.50919 0.36397 0.95051 0.0
H1095 H 0.48183 0.36145 0.95272 0.0
C1096 C 0.49818 0.30727 0.9053 0.0
C1097 C 0.47832 0.29897 0.90434 0.0
C1098 C 0.50238 0.3259 0.87188 0.0
C1099 C 0.48681 0.33665 0.83693 0.0
C1100 C 0.46731 0.32769 0.83208 0.0
H1101 H 0.47931 0.46734 0.76307 0.0
H1102 H 0.47451 0.43215 0.79889 0.0
C1103 C 0.46307 0.30917 0.86593 0.0
C1104 C 0.49031 0.35792 0.81087 0.0
H1105 H 0.50016 0.40688 0.867 0.0
C1106 C 0.48898 0.36187 0.73874 0.0
C1107 C 0.49411 0.37448 0.85757 0.0
C1108 C 0.49459 0.37149 0.93586 0.0
C1109 C 0.4917 0.3818 0.71211 0.0
C1110 C 0.49606 0.39827 0.75878 0.0
C1111 C 0.49707 0.39431 0.83096 0.0
C1112 C 0.49893 0.41984 0.73451 0.0
C1113 C 0.48936 0.38511 0.63439 0.0
C1114 C 0.5144 0.425 0.68657 0.0
C1115 C 0.51723 0.44542 0.66593 0.0
C1116 C 0.50466 0.46126 0.69274 0.0
C1117 C 0.48925 0.45592 0.74073 0.0
C1118 C 0.48649 0.43559 0.76156 0.0
H1119 H 0.48078 0.37241 0.60876 0.0
H1120 H 0.48131 0.39975 0.62375 0.0
H1121 H 0.50475 0.38582 0.60989 0.0
H1122 H 0.52453 0.41329 0.6658 0.0
H1123 H 0.52935 0.44873 0.62903 0.0
H1124 H 0.23997 0.52268 0.95747 0.0
H1125 H 0.2086 0.52921 0.88999 0.0
H1126 H 0.20448 0.46493 0.83822 0.0
H1127 H 0.23596 0.45853 0.90395 0.0
H1128 H 0.19157 0.48714 0.72967 0.0
H1129 H 0.15337 0.51529 0.97111 0.0
H1130 H 0.17554 0.53003 0.94863 0.0
H1131 H 0.17834 0.50353 0.97203 0.0
C1132 C 0.2328 0.51011 0.9294 0.0
C1133 C 0.24062 0.49012 0.93556 0.0
C1134 C 0.2146 0.51376 0.89192 0.0
C1135 C 0.2037 0.49748 0.86027 0.0
C1136 C 0.21236 0.47778 0.86225 0.0
H1137 H 0.07244 0.49901 0.78694 0.0
H1138 H 0.10709 0.49381 0.82835 0.0
C1139 C 0.2305 0.47415 0.89951 0.0
C1140 C 0.18285 0.5006 0.82863 0.0
H1141 H 0.13455 0.51798 0.86598 0.0
C1142 C 0.17911 0.49394 0.75946 0.0
C1143 C 0.16627 0.50889 0.86774 0.0
C1144 C 0.16845 0.51464 0.94418 0.0
C1145 C 0.15954 0.49552 0.72834 0.0
C1146 C 0.14317 0.50465 0.76651 0.0
C1147 C 0.14694 0.51119 0.83585 0.0
C1148 C 0.12182 0.50683 0.73743 0.0
C1149 C 0.15655 0.48662 0.65579 0.0
C1150 C 0.11801 0.51584 0.67186 0.0
C1151 C 0.0979 0.51803 0.64641 0.0
C1152 C 0.08096 0.51177 0.68656 0.0
C1153 C 0.08485 0.50328 0.75282 0.0
C1154 C 0.10487 0.50063 0.77738 0.0
H1155 H 0.16822 0.47471 0.64347 0.0
H1156 H 0.14114 0.47968 0.64981 0.0
H1157 H 0.15822 0.49896 0.61667 0.0
H1158 H 0.13055 0.52152 0.64057 0.0
H1159 H 0.09564 0.52495 0.59565 0.0
H1160 H 0.96145 0.80874 0.34895 0.0
H1161 H 0.96762 0.84162 0.40758 0.0
H1162 H 0.02859 0.8429 0.32125 0.0
H1163 H 0.02209 0.81014 0.26039 0.0
H1164 H 0.99239 0.85775 0.50136 0.0
H1165 H 1.00766 0.89633 0.24997 0.0
H1166 H 0.99854 0.87032 0.25387 0.0
H1167 H 0.0253 0.87587 0.26632 0.0
C1168 C 0.97644 0.81569 0.34427 0.0
C1169 C 0.99137 0.80655 0.30065 0.0
C1170 C 0.97989 0.8347 0.37733 0.0
C1171 C 0.99839 0.84531 0.3677 0.0
C1172 C 0.01393 0.8355 0.32821 0.0
H1173 H 0.04784 0.96364 0.48889 0.0
H1174 H 0.04 0.92957 0.44275 0.0
C1175 C 1.01041 0.81645 0.29466 0.0
C1176 C 1.00096 0.86672 0.39724 0.0
H1177 H 0.01336 0.91597 0.35316 0.0
C1178 C 0.99696 0.87046 0.46879 0.0
C1179 C 1.00652 0.88363 0.35507 0.0
C1180 C 1.00953 0.88144 0.27695 0.0
C1181 C 0.99922 0.89014 0.49963 0.0
C1182 C 1.00537 0.90693 0.45779 0.0
C1183 C 1.00885 0.90326 0.3859 0.0
C1184 C 1.00959 0.92806 0.48743 0.0
C1185 C 0.99561 0.8925 0.57736 0.0
C1186 C 0.99518 0.93906 0.52832 0.0
C1187 C 0.99983 0.95869 0.55582 0.0
C1188 C 0.01874 0.96807 0.5411 0.0
C1189 C 0.03302 0.95704 0.50037 0.0
C1190 C 0.02849 0.93749 0.4737 0.0
H1191 H 0.99641 0.87756 0.60457 0.0
H1192 H 1.00696 0.90304 0.60157 0.0
H1193 H 0.98008 0.89893 0.58627 0.0
H1194 H 0.98025 0.93259 0.53871 0.0
H1195 H 0.98865 0.96652 0.58838 0.0
H1196 H 0.7276 0.95734 0.34269 0.0
H1197 H 0.69465 0.96431 0.39914 0.0
H1198 H 0.70131 0.02852 0.35436 0.0
H1199 H 0.73432 0.02145 0.29642 0.0
H1200 H 0.68088 0.98842 0.50883 0.0
H1201 H 0.64704 0.01508 0.25937 0.0
H1202 H 0.67158 1.00241 0.26309 0.0
H1203 H 0.66933 0.02903 0.287 0.0
C1204 C 0.72234 0.97306 0.34666 0.0
C1205 C 0.73379 0.98886 0.31562 0.0
C1206 C 0.70336 0.97701 0.37854 0.0
C1207 C 0.69509 0.99688 0.37994 0.0
C1208 C 0.70705 1.01295 0.35281 0.0
H1209 H 0.57636 0.04896 0.4869 0.0
H1210 H 0.61097 0.04113 0.44682 0.0
C1211 C 0.72615 1.00899 0.32084 0.0
C1212 C 0.67373 1.00043 0.40729 0.0
H1213 H 0.6261 0.01724 0.35962 0.0
C1214 C 0.66891 0.99482 0.47632 0.0
C1215 C 0.6579 1.00848 0.36487 0.0
C1216 C 0.66158 0.01393 0.28926 0.0
C1217 C 0.64912 0.9978 0.50491 0.0
C1218 C 0.63324 1.00603 0.4626 0.0
C1219 C 0.63805 1.01115 0.39291 0.0
C1220 C 0.61189 1.0105 0.48947 0.0
C1221 C 0.64586 0.99269 0.58104 0.0
C1222 C 0.60036 0.99609 0.52755 0.0
C1223 C 0.58062 1.00092 0.55273 0.0
C1224 C 0.57139 0.01983 0.53706 0.0
C1225 C 0.58282 0.0341 0.49879 0.0
C1226 C 0.60269 0.02955 0.4755 0.0
H1227 H 0.6605 0.99277 0.61065 0.0
H1228 H 0.6352 1.00368 0.60676 0.0
H1229 H 0.63935 0.97705 0.58476 0.0
H1230 H 0.60648 0.98101 0.53756 0.0
H1231 H 0.5725 0.98978 0.58387 0.0
H1232 H 0.52519 0.74474 0.32248 0.0
H1233 H 0.51867 0.71392 0.3922 0.0
H1234 H 0.58362 0.70266 0.4045 0.0
H1235 H 0.59009 0.73344 0.33615 0.0
H1236 H 0.52849 0.67492 0.35187 0.0
H1237 H 0.56722 0.69176 0.60402 0.0
H1238 H 0.56157 0.71148 0.54123 0.0
H1239 H 0.58361 0.69521 0.52968 0.0
C1240 C 0.53806 0.73614 0.34266 0.0
C1241 C 0.55817 0.74177 0.32504 0.0
C1242 C 0.53434 0.71837 0.38174 0.0
C1243 C 0.55065 0.70596 0.40458 0.0
C1244 C 0.57076 0.7121 0.3893 0.0
H1245 H 0.55938 0.5782 0.52087 0.0
H1246 H 0.56436 0.61261 0.47508 0.0
C1247 C 0.57445 0.72976 0.35018 0.0
C1248 C 0.5467 0.68577 0.43866 0.0
H1249 H 0.55854 0.6567 0.58167 0.0
C1250 C 0.53486 0.67109 0.40253 0.0
C1251 C 0.55515 0.68053 0.5046 0.0
C1252 C 0.56744 0.69564 0.54747 0.0
C1253 C 0.53159 0.65139 0.42979 0.0
C1254 C 0.54025 0.64616 0.49502 0.0
C1255 C 0.55191 0.66078 0.53162 0.0
C1256 C 0.53752 0.62542 0.52526 0.0
C1257 C 0.51914 0.63605 0.38845 0.0
C1258 C 0.52091 0.62121 0.56952 0.0
C1259 C 0.51787 0.60139 0.59539 0.0
C1260 C 0.5314 0.58534 0.57744 0.0
C1261 C 0.54839 0.5899 0.53483 0.0
C1262 C 0.55136 0.60967 0.50882 0.0
H1263 H 0.51303 0.64257 0.33914 0.0
H1264 H 0.52878 0.62253 0.37529 0.0
H1265 H 0.50614 0.63059 0.42075 0.0
H1266 H 0.51009 0.6332 0.58305 0.0
H1267 H 0.50464 0.59857 0.62809 0.0
H1268 H 0.7932 0.57776 0.36766 0.0
H1269 H 0.82536 0.57297 0.4329 0.0
H1270 H 0.8405 0.52144 0.30008 0.0
H1271 H 0.80833 0.52609 0.23544 0.0
H1272 H 0.84516 0.52973 0.49477 0.0
H1273 H 0.88689 0.57118 0.28525 0.0
H1274 H 0.86021 0.57617 0.30401 0.0
H1275 H 0.86753 0.55285 0.26051 0.0
C1276 C 0.80294 0.56483 0.3546 0.0
C1277 C 0.79779 0.55183 0.298 0.0
C1278 C 0.82147 0.56227 0.39128 0.0
C1279 C 0.83545 0.54685 0.37146 0.0
C1280 C 0.82998 0.53337 0.31673 0.0
H1281 H 0.96544 0.52549 0.43857 0.0
H1282 H 0.93058 0.52967 0.39507 0.0
C1283 C 0.81142 0.53585 0.28041 0.0
C1284 C 0.85626 0.54558 0.40449 0.0
H1285 H 0.90654 0.55761 0.37652 0.0
C1286 C 0.85863 0.53583 0.46917 0.0
C1287 C 0.87385 0.55346 0.37101 0.0
C1288 C 0.87219 0.5641 0.30144 0.0
C1289 C 0.87812 0.53311 0.50015 0.0
C1290 C 0.89591 0.54111 0.46689 0.0
C1291 C 0.89326 0.5513 0.40263 0.0
C1292 C 0.91739 0.53841 0.49536 0.0
C1293 C 0.87928 0.52086 0.56665 0.0
C1294 C 0.92226 0.542 0.56655 0.0
C1295 C 0.94223 0.53875 0.5921 0.0
C1296 C 0.95813 0.5328 0.5466 0.0
C1297 C 0.95355 0.53005 0.47515 0.0
C1298 C 0.9335 0.53254 0.45013 0.0
H1299 H 0.86592 0.51048 0.57196 0.0
H1300 H 0.89342 0.51144 0.56854 0.0
H1301 H 0.87908 0.53148 0.6124 0.0
H1302 H 0.9107 0.5475 0.60269 0.0
H1303 H 0.94533 0.54136 0.64721 0.0
loop_
_geom_bond_atom_site_label_1
_geom_bond_atom_site_label_2
_geom_bond_distance
_geom_bond_site_symmetry_2
_ccdc_geom_bond_type
H0 C7 0.929 . S
H1 C10 0.930 . S
H2 C12 0.929 . S
H3 C4 0.969 . S
C4 H3 0.969 . S
C4 O5 1.550 . S
C4 H6 0.973 . S
O5 C4 1.550 . S
O5 C11 1.412 . S
H6 C4 0.973 . S
C7 H0 0.929 . S
C7 C8 1.400 . S
C7 C9 1.364 . S
C8 C7 1.400 . S
C8 C12 1.377 . S
C9 C7 1.364 . S
C9 C10 1.374 . S
C10 H1 0.930 . S
C10 C9 1.374 . S
C10 C11 1.383 . S
C11 O5 1.412 . S
C11 C10 1.383 . S
C11 C12 1.394 . S
C12 H2 0.929 . S
C12 C8 1.377 . S
C12 C11 1.394 . S
H13 C20 0.929 . S
H14 C23 0.930 . S
H15 C25 0.929 . S
H16 C17 0.969 . S
C17 H16 0.969 . S
C17 O18 1.550 . S
C17 H19 0.973 . S
O18 C17 1.550 . S
O18 C24 1.412 . S
H19 C17 0.973 . S
C20 H13 0.929 . S
C20 C21 1.400 . S
C20 C22 1.364 . S
C21 C20 1.400 . S
C21 C25 1.377 . S
C22 C20 1.364 . S
C22 C23 1.374 . S
C23 H14 0.930 . S
C23 C22 1.374 . S
C23 C24 1.383 . S
C24 O18 1.412 . S
C24 C23 1.383 . S
C24 C25 1.394 . S
C25 H15 0.929 . S
C25 C21 1.377 . S
C25 C24 1.394 . S
H26 C33 0.929 . S
H27 C36 0.930 . S
H28 C38 0.929 . S
H29 C30 0.969 . S
C30 H29 0.969 . S
C30 O31 1.550 . S
C30 H32 0.973 . S
O31 C30 1.550 . S
O31 C37 1.412 . S
H32 C30 0.973 . S
C33 H26 0.929 . S
C33 C34 1.400 . S
C33 C35 1.364 . S
C34 C33 1.400 . S
C34 C38 1.377 . S
C35 C33 1.364 . S
C35 C36 1.374 . S
C36 H27 0.930 . S
C36 C35 1.374 . S
C36 C37 1.383 . S
C37 O31 1.412 . S
C37 C36 1.383 . S
C37 C38 1.394 . S
C38 H28 0.929 . S
C38 C34 1.377 . S
C38 C37 1.394 . S
H39 C46 0.929 . S
H40 C49 0.930 . S
H41 C51 0.929 . S
H42 C43 0.969 . S
C43 H42 0.969 . S
C43 O44 1.550 . S
C43 H45 0.973 . S
O44 C43 1.550 . S
O44 C50 1.412 . S
H45 C43 0.973 . S
C46 H39 0.929 . S
C46 C47 1.400 . S
C46 C48 1.364 . S
C47 C46 1.400 . S
C47 C51 1.377 . S
C48 C46 1.364 . S
C48 C49 1.374 . S
C49 H40 0.930 . S
C49 C48 1.374 . S
C49 C50 1.383 . S
C50 O44 1.412 . S
C50 C49 1.383 . S
C50 C51 1.394 . S
C51 H41 0.929 . S
C51 C47 1.377 . S
C51 C50 1.394 . S
H52 C59 0.929 . S
H53 C62 0.930 . S
H54 C64 0.929 . S
H55 C56 0.969 . S
C56 H55 0.969 . S
C56 O57 1.550 . S
C56 H58 0.973 . S
O57 C56 1.550 . S
O57 C63 1.412 . S
H58 C56 0.973 . S
C59 H52 0.929 . S
C59 C60 1.400 . S
C59 C61 1.364 1_556 S
C60 C59 1.400 . S
C60 C64 1.377 . S
C61 C59 1.364 1_554 S
C61 C62 1.374 . S
C62 H53 0.930 . S
C62 C61 1.374 . S
C62 C63 1.383 . S
C63 O57 1.412 . S
C63 C62 1.383 . S
C63 C64 1.394 1_554 S
C64 H54 0.929 . S
C64 C60 1.377 . S
C64 C63 1.394 1_556 S
H65 C72 0.929 . S
H66 C75 0.930 . S
H67 C77 0.929 . S
H68 C69 0.969 . S
C69 H68 0.969 . S
C69 O70 1.550 . S
C69 H71 0.973 . S
O70 C69 1.550 . S
O70 C76 1.412 . S
H71 C69 0.973 . S
C72 H65 0.929 . S
C72 C73 1.400 . S
C72 C74 1.364 1_556 S
C73 C72 1.400 . S
C73 C77 1.377 . S
C74 C72 1.364 1_554 S
C74 C75 1.374 . S
C75 H66 0.930 . S
C75 C74 1.374 . S
C75 C76 1.383 . S
C76 O70 1.412 . S
C76 C75 1.383 . S
C76 C77 1.394 1_554 S
C77 H67 0.929 . S
C77 C73 1.377 . S
C77 C76 1.394 1_556 S
H78 C85 0.929 . S
H79 C88 0.930 . S
H80 C90 0.929 . S
H81 C82 0.969 . S
C82 H81 0.969 . S
C82 O83 1.550 . S
C82 H84 0.973 . S
O83 C82 1.550 . S
O83 C89 1.412 . S
H84 C82 0.973 . S
C85 H78 0.929 . S
C85 C86 1.400 . S
C85 C87 1.364 1_556 S
C86 C85 1.400 . S
C86 C90 1.377 . S
C87 C85 1.364 1_554 S
C87 C88 1.374 . S
C88 H79 0.930 . S
C88 C87 1.374 . S
C88 C89 1.383 . S
C89 O83 1.412 . S
C89 C88 1.383 . S
C89 C90 1.394 1_554 S
C90 H80 0.929 . S
C90 C86 1.377 . S
C90 C89 1.394 1_556 S
H91 C98 0.929 . S
H92 C101 0.930 . S
H93 C103 0.929 . S
H94 C95 0.969 . S
C95 H94 0.969 . S
C95 O96 1.550 . S
C95 H97 0.973 . S
O96 C95 1.550 . S
O96 C102 1.412 . S
H97 C95 0.973 . S
C98 H91 0.929 . S
C98 C99 1.400 . S
C98 C100 1.364 1_556 S
C99 C98 1.400 . S
C99 C103 1.377 . S
C100 C98 1.364 1_554 S
C100 C101 1.374 . S
C101 H92 0.930 . S
C101 C100 1.374 . S
C101 C102 1.383 . S
C102 O96 1.412 . S
C102 C101 1.383 . S
C102 C103 1.394 1_554 S
C103 H93 0.929 . S
C103 C99 1.377 . S
C103 C102 1.394 1_556 S
Eu104 N135 2.657 1_565 S
Eu104 N142 2.606 1_565 S
Eu104 O148 2.558 . S
Eu104 O149 2.612 1_455 S
Eu104 O151 2.350 1_455 S
Eu104 O152 2.563 . S
Eu104 O153 2.419 . S
Eu104 O155 2.380 1_565 S
Eu104 O156 2.432 . S
Eu104 C168 2.848 . S
C105 C108 1.409 1_545 S
C105 C109 1.411 . S
C105 N112 1.377 . S
C106 C108 1.451 . S
C106 C110 1.423 . S
C106 C118 1.392 . S
C107 C109 1.420 1_565 S
C107 C110 1.351 . S
C107 H130 0.931 . S
C108 C105 1.409 1_565 S
C108 C106 1.451 . S
C108 N116 1.353 1_565 S
C109 C105 1.411 . S
C109 C107 1.420 1_545 S
C109 C114 1.395 . S
C110 C106 1.423 . S
C110 C107 1.351 . S
C110 H122 0.930 . S
C111 C113 1.400 . S
C111 C114 1.386 . S
C111 H123 0.930 . S
N112 C105 1.377 . S
N112 C113 1.321 . S
N112 Eu115 2.609 . S
C113 C111 1.400 . S
C113 N112 1.321 . S
C113 H120 0.930 . S
C114 C109 1.395 . S
C114 C111 1.386 . S
C114 H133 0.930 . S
Eu115 N112 2.609 . S
Eu115 N116 2.657 . S
Eu115 O149 2.380 1_545 S
Eu115 O150 2.432 . S
Eu115 O154 2.558 . S
Eu115 O155 2.612 1_655 S
Eu115 O157 2.339 1_655 S
Eu115 O158 2.563 1_655 S
Eu115 O159 2.420 1_655 S
Eu115 C179 2.848 . S
N116 C108 1.353 1_545 S
N116 Eu115 2.657 . S
N116 C117 1.334 1_645 S
C117 N116 1.334 1_465 S
C117 C119 1.413 . S
C117 H124 0.929 . S
C118 C106 1.392 . S
C118 C119 1.367 1_655 S
C118 H126 0.930 . S
C119 C117 1.413 . S
C119 C118 1.367 1_455 S
C119 H121 0.930 . S
H120 C113 0.930 . S
H121 C119 0.930 . S
H122 C110 0.930 . S
H123 C111 0.930 . S
H124 C117 0.929 . S
H125 C139 0.930 1_655 S
H126 C118 0.930 . S
H127 C145 0.930 . S
H128 C136 0.929 1_655 S
H129 C143 0.930 . S
H130 C107 0.931 . S
H131 C137 0.930 . S
H132 C170 0.930 . S
H133 C114 0.930 . S
H134 C169 0.931 . S
N135 Eu104 2.657 1_545 S
N135 C136 1.334 . S
N135 C140 1.362 . S
C136 H128 0.929 1_455 S
C136 N135 1.334 . S
C136 C139 1.413 . S
C137 H131 0.930 . S
C137 C138 1.392 . S
C137 C139 1.367 . S
C138 C137 1.392 . S
C138 C140 1.420 . S
C138 C170 1.423 . S
C139 H125 0.930 1_455 S
C139 C136 1.413 . S
C139 C137 1.367 . S
C140 N135 1.362 . S
C140 C138 1.420 . S
C140 C144 1.429 . S
H141 C146 0.930 . S
N142 Eu104 2.606 1_545 S
N142 C144 1.385 . S
N142 C145 1.315 1_545 S
C143 H129 0.930 . S
C143 C145 1.400 . S
C143 C146 1.386 1_565 S
C144 C140 1.429 . S
C144 N142 1.385 . S
C144 C147 1.411 . S
C145 H127 0.930 . S
C145 N142 1.315 1_565 S
C145 C143 1.400 . S
C146 H141 0.930 . S
C146 C143 1.386 1_545 S
C146 C147 1.395 . S
C147 C144 1.411 . S
C147 C146 1.395 . S
C147 C169 1.420 . S
O148 Eu104 2.558 . S
O148 C168 1.257 . S
O149 Eu104 2.612 1_655 S
O149 Eu115 2.380 1_565 S
O149 C160 1.276 . S
O150 Eu115 2.432 . S
O150 C167 1.264 . S
O151 Eu104 2.350 1_655 S
O151 C167 1.238 1_565 S
O152 Eu104 2.563 . S
O152 C160 1.235 1_455 S
O153 Eu104 2.419 . S
O153 C168 1.249 . S
O154 Eu115 2.558 . S
O154 C179 1.257 . S
O155 Eu104 2.380 1_545 S
O155 Eu115 2.612 1_455 S
O155 C171 1.276 . S
O156 Eu104 2.432 . S
O156 C178 1.264 1_565 S
O157 Eu115 2.339 1_455 S
O157 C178 1.254 . S
O158 Eu115 2.563 1_455 S
O158 C171 1.235 . S
O159 Eu115 2.420 1_455 S
O159 C179 1.251 1_455 S
C160 O149 1.276 . S
C160 O152 1.235 1_655 S
C161 C163 1.393 . S
C161 C165 1.395 . S
C161 C168 1.492 . S
C162 C163 1.392 . S
C162 C164 1.386 . S
C163 C161 1.393 . S
C163 C162 1.392 . S
C163 H180 0.878 1_455 S
C164 C162 1.386 . S
C164 C166 1.395 . S
C164 H181 0.930 . S
C165 C161 1.395 . S
C165 C166 1.379 . S
C165 H182 0.930 . S
C166 C164 1.395 . S
C166 C165 1.379 . S
C166 H183 0.930 . S
C167 O150 1.264 . S
C167 O151 1.238 1_545 S
C168 Eu104 2.848 . S
C168 O148 1.257 . S
C168 O153 1.249 . S
C168 C161 1.492 . S
C169 H134 0.931 . S
C169 C147 1.420 . S
C169 C170 1.351 . S
C170 H132 0.930 . S
C170 C138 1.423 . S
C170 C169 1.351 . S
C171 O155 1.276 . S
C171 O158 1.235 . S
C172 C173 1.362 1_655 S
C172 C176 1.395 . S
C172 C179 1.492 . S
C173 C172 1.362 1_455 S
C173 C174 1.391 1_455 S
C173 H184 0.963 . S
C174 C173 1.391 1_655 S
C174 C175 1.400 . S
C175 C174 1.400 . S
C175 C177 1.395 . S
C175 H185 0.930 . S
C176 C172 1.395 . S
C176 C177 1.379 . S
C176 H186 0.930 . S
C177 C175 1.395 . S
C177 C176 1.379 . S
C177 H187 0.930 . S
C178 O156 1.264 1_545 S
C178 O157 1.254 . S
C179 Eu115 2.848 . S
C179 O154 1.257 . S
C179 O159 1.251 1_655 S
C179 C172 1.492 . S
H180 C163 0.878 1_655 S
H181 C164 0.930 . S
H182 C165 0.930 . S
H183 C166 0.930 . S
H184 C173 0.963 . S
H185 C175 0.930 . S
H186 C176 0.930 . S
H187 C177 0.930 . S
Eu188 N219 2.657 . S
Eu188 N226 2.609 . S
Eu188 O232 2.558 . S
Eu188 O233 2.606 1_545 S
Eu188 O235 2.339 1_545 S
Eu188 O236 2.563 . S
Eu188 O237 2.419 . S
Eu188 O239 2.380 . S
Eu188 O240 2.432 . S
Eu188 C252 2.848 . S
C189 C192 1.429 . S
C189 C193 1.411 . S
C189 N196 1.377 . S
C190 C192 1.420 . S
C190 C194 1.423 . S
C190 C202 1.392 . S
C191 C193 1.420 . S
C191 C194 1.351 . S
C191 H214 0.931 . S
C192 C189 1.429 . S
C192 C190 1.420 . S
C192 N200 1.362 . S
C193 C189 1.411 . S
C193 C191 1.420 . S
C193 C198 1.395 . S
C194 C190 1.423 . S
C194 C191 1.351 . S
C194 H206 0.930 . S
C195 C197 1.400 . S
C195 C198 1.386 . S
C195 H207 0.930 . S
N196 C189 1.377 . S
N196 C197 1.321 . S
N196 Eu199 2.609 . S
C197 C195 1.400 . S
C197 N196 1.321 . S
C197 H204 0.930 . S
C198 C193 1.395 . S
C198 C195 1.386 . S
C198 H217 0.930 . S
Eu199 N196 2.609 . S
Eu199 N200 2.657 . S
Eu199 O233 2.382 . S
Eu199 O234 2.432 . S
Eu199 O238 2.558 . S
Eu199 O239 2.612 1_565 S
Eu199 O241 2.339 1_565 S
Eu199 O242 2.563 1_565 S
Eu199 O243 2.419 1_565 S
Eu199 C263 2.848 . S
N200 C192 1.362 . S
N200 Eu199 2.657 . S
N200 C201 1.334 1_565 S
C201 N200 1.334 1_545 S
C201 C203 1.413 . S
C201 H208 0.929 . S
C202 C190 1.392 . S
C202 C203 1.367 1_565 S
C202 H210 0.930 . S
C203 C201 1.413 . S
C203 C202 1.367 1_545 S
C203 H205 0.930 . S
H204 C197 0.930 . S
H205 C203 0.930 . S
H206 C194 0.930 . S
H207 C195 0.930 . S
H208 C201 0.929 . S
H209 C223 0.930 1_565 S
H210 C202 0.930 . S
H211 C229 0.930 . S
H212 C220 0.929 1_565 S
H213 C227 0.930 . S
H214 C191 0.931 . S
H215 C221 0.930 . S
H216 C254 0.930 . S
H217 C198 0.930 . S
H218 C253 0.931 . S
N219 Eu188 2.657 . S
N219 C220 1.334 . S
N219 C224 1.362 . S
C220 H212 0.929 1_545 S
C220 N219 1.334 . S
C220 C223 1.413 . S
C221 H215 0.930 . S
C221 C222 1.392 . S
C221 C223 1.367 . S
C222 C221 1.392 . S
C222 C224 1.420 . S
C222 C254 1.423 . S
C223 H209 0.930 1_545 S
C223 C220 1.413 . S
C223 C221 1.367 . S
C224 N219 1.362 . S
C224 C222 1.420 . S
C224 C228 1.429 . S
H225 C230 0.930 . S
N226 Eu188 2.609 . S
N226 C228 1.377 . S
N226 C229 1.321 . S
C227 H213 0.930 . S
C227 C229 1.400 . S
C227 C230 1.386 . S
C228 C224 1.429 . S
C228 N226 1.377 . S
C228 C231 1.411 . S
C229 H211 0.930 . S
C229 N226 1.321 . S
C229 C227 1.400 . S
C230 H225 0.930 . S
C230 C227 1.386 . S
C230 C231 1.395 . S
C231 C228 1.411 . S
C231 C230 1.395 . S
C231 C253 1.420 . S
O232 Eu188 2.558 . S
O232 C252 1.257 . S
O233 Eu188 2.606 1_565 S
O233 Eu199 2.382 . S
O233 C244 1.275 1_565 S
O234 Eu199 2.432 . S
O234 C251 1.264 . S
O235 Eu188 2.339 1_565 S
O235 C251 1.254 . S
O236 Eu188 2.563 . S
O236 C244 1.241 . S
O237 Eu188 2.419 . S
O237 C252 1.249 . S
O238 Eu199 2.558 . S
O238 C263 1.257 . S
O239 Eu188 2.380 . S
O239 Eu199 2.612 1_545 S
O239 C255 1.276 . S
O240 Eu188 2.432 . S
O240 C262 1.264 . S
O241 Eu199 2.339 1_545 S
O241 C262 1.254 . S
O242 Eu199 2.563 1_545 S
O242 C255 1.235 . S
O243 Eu199 2.419 1_545 S
O243 C263 1.249 1_545 S
C244 O233 1.275 1_545 S
C244 O236 1.241 . S
C245 C247 1.393 . S
C245 C249 1.395 . S
C245 C252 1.492 . S
C246 C247 1.392 . S
C246 C248 1.386 . S
C247 C245 1.393 . S
C247 C246 1.392 . S
C247 H264 0.930 . S
C248 C246 1.386 . S
C248 C250 1.395 . S
C248 H265 0.930 . S
C249 C245 1.395 . S
C249 C250 1.379 . S
C249 H266 0.930 . S
C250 C248 1.395 . S
C250 C249 1.379 . S
C250 H267 0.930 . S
C251 O234 1.264 . S
C251 O235 1.254 . S
C252 Eu188 2.848 . S
C252 O232 1.257 . S
C252 O237 1.249 . S
C252 C245 1.492 . S
C253 H218 0.931 . S
C253 C231 1.420 . S
C253 C254 1.351 . S
C254 H216 0.930 . S
C254 C222 1.423 . S
C254 C253 1.351 . S
C255 O239 1.276 . S
C255 O242 1.235 . S
C256 C257 1.393 1_565 S
C256 C260 1.395 . S
C256 C263 1.492 . S
C257 C256 1.393 1_545 S
C257 C258 1.397 . S
C257 H268 0.930 . S
C258 C257 1.397 . S
C258 C259 1.337 1_545 S
C259 C258 1.337 1_565 S
C259 C261 1.395 . S
C259 H269 0.930 . S
C260 C256 1.395 . S
C260 C261 1.379 . S
C260 H270 0.930 . S
C261 C259 1.395 . S
C261 C260 1.379 . S
C261 H271 0.930 . S
C262 O240 1.264 . S
C262 O241 1.254 . S
C263 Eu199 2.848 . S
C263 O238 1.257 . S
C263 O243 1.249 1_565 S
C263 C256 1.492 . S
H264 C247 0.930 . S
H265 C248 0.930 . S
H266 C249 0.930 . S
H267 C250 0.930 . S
H268 C257 0.930 . S
H269 C259 0.930 . S
H270 C260 0.930 . S
H271 C261 0.930 . S
Eu272 N303 2.657 . S
Eu272 N310 2.609 . S
Eu272 O316 2.558 . S
Eu272 O317 2.612 . S
Eu272 O319 2.339 . S
Eu272 O320 2.563 . S
Eu272 O321 2.419 . S
Eu272 O323 2.380 . S
Eu272 O324 2.432 . S
Eu272 C336 2.848 . S
C273 C276 1.429 . S
C273 C277 1.411 . S
C273 N280 1.377 . S
C274 C276 1.420 . S
C274 C278 1.423 . S
C274 C286 1.392 . S
C275 C277 1.420 . S
C275 C278 1.351 . S
C275 H298 0.931 . S
C276 C273 1.429 . S
C276 C274 1.420 . S
C276 N284 1.362 . S
C277 C273 1.411 . S
C277 C275 1.420 . S
C277 C282 1.395 . S
C278 C274 1.423 . S
C278 C275 1.351 . S
C278 H290 0.930 . S
C279 C281 1.400 . S
C279 C282 1.386 . S
C279 H291 0.930 . S
N280 C273 1.377 . S
N280 C281 1.321 . S
N280 Eu283 2.609 . S
C281 C279 1.400 . S
C281 N280 1.321 . S
C281 H288 0.930 . S
C282 C277 1.395 . S
C282 C279 1.386 . S
C282 H301 0.930 . S
Eu283 N280 2.609 . S
Eu283 N284 2.657 . S
Eu283 O317 2.380 . S
Eu283 O318 2.432 . S
Eu283 O322 2.558 . S
Eu283 O323 2.612 . S
Eu283 O325 2.339 . S
Eu283 O326 2.563 . S
Eu283 O327 2.419 . S
Eu283 C347 2.848 . S
N284 C276 1.362 . S
N284 Eu283 2.657 . S
N284 C285 1.334 . S
C285 N284 1.334 . S
C285 C287 1.413 . S
C285 H292 0.929 . S
C286 C274 1.392 . S
C286 C287 1.367 . S
C286 H294 0.930 . S
C287 C285 1.413 . S
C287 C286 1.367 . S
C287 H289 0.930 . S
H288 C281 0.930 . S
H289 C287 0.930 . S
H290 C278 0.930 . S
H291 C279 0.930 . S
H292 C285 0.929 . S
H293 C307 0.930 . S
H294 C286 0.930 . S
H295 C313 0.930 . S
H296 C304 0.929 . S
H297 C311 0.930 . S
H298 C275 0.931 . S
H299 C305 0.930 . S
H300 C338 0.930 . S
H301 C282 0.930 . S
H302 C337 0.931 . S
N303 Eu272 2.657 . S
N303 C304 1.334 . S
N303 C308 1.362 . S
C304 H296 0.929 . S
C304 N303 1.334 . S
C304 C307 1.413 . S
C305 H299 0.930 . S
C305 C306 1.392 . S
C305 C307 1.367 . S
C306 C305 1.392 . S
C306 C308 1.420 . S
C306 C338 1.423 . S
C307 H293 0.930 . S
C307 C304 1.413 . S
C307 C305 1.367 . S
C308 N303 1.362 . S
C308 C306 1.420 . S
C308 C312 1.429 . S
H309 C314 0.930 . S
N310 Eu272 2.609 . S
N310 C312 1.377 . S
N310 C313 1.321 . S
C311 H297 0.930 . S
C311 C313 1.400 . S
C311 C314 1.386 . S
C312 C308 1.429 . S
C312 N310 1.377 . S
C312 C315 1.411 . S
C313 H295 0.930 . S
C313 N310 1.321 . S
C313 C311 1.400 . S
C314 H309 0.930 . S
C314 C311 1.386 . S
C314 C315 1.395 . S
C315 C312 1.411 . S
C315 C314 1.395 . S
C315 C337 1.420 . S
O316 Eu272 2.558 . S
O316 C336 1.257 . S
O317 Eu272 2.612 . S
O317 Eu283 2.380 . S
O317 C328 1.276 . S
O318 Eu283 2.432 . S
O318 C335 1.264 . S
O319 Eu272 2.339 . S
O319 C335 1.254 . S
O320 Eu272 2.563 . S
O320 C328 1.235 . S
O321 Eu272 2.419 . S
O321 C336 1.249 . S
O322 Eu283 2.558 . S
O322 C347 1.257 . S
O323 Eu272 2.380 . S
O323 Eu283 2.612 . S
O323 C339 1.276 . S
O324 Eu272 2.432 . S
O324 C346 1.264 . S
O325 Eu283 2.339 . S
O325 C346 1.254 . S
O326 Eu283 2.563 . S
O326 C339 1.235 . S
O327 Eu283 2.419 . S
O327 C347 1.249 . S
C328 O317 1.276 . S
C328 O320 1.235 . S
C329 C331 1.393 . S
C329 C333 1.395 . S
C329 C336 1.492 . S
C330 C331 1.392 . S
C330 C332 1.386 . S
C331 C329 1.393 . S
C331 C330 1.392 . S
C331 H348 0.930 . S
C332 C330 1.386 . S
C332 C334 1.395 . S
C332 H349 0.930 . S
C333 C329 1.395 . S
C333 C334 1.379 . S
C333 H350 0.930 . S
C334 C332 1.395 . S
C334 C333 1.379 . S
C334 H351 0.930 . S
C335 O318 1.264 . S
C335 O319 1.254 . S
C336 Eu272 2.848 . S
C336 O316 1.257 . S
C336 O321 1.249 . S
C336 C329 1.492 . S
C337 H302 0.931 . S
C337 C315 1.420 . S
C337 C338 1.351 . S
C338 H300 0.930 . S
C338 C306 1.423 . S
C338 C337 1.351 . S
C339 O323 1.276 . S
C339 O326 1.235 . S
C340 C341 1.393 . S
C340 C344 1.395 . S
C340 C347 1.492 . S
C341 C340 1.393 . S
C341 C342 1.392 . S
C341 H352 0.930 . S
C342 C341 1.392 . S
C342 C343 1.386 . S
C343 C342 1.386 . S
C343 C345 1.395 . S
C343 H353 0.930 . S
C344 C340 1.395 . S
C344 C345 1.379 . S
C344 H354 0.930 . S
C345 C343 1.395 . S
C345 C344 1.379 . S
C345 H355 0.930 1_556 S
C346 O324 1.264 . S
C346 O325 1.254 . S
C347 Eu283 2.848 . S
C347 O322 1.257 . S
C347 O327 1.249 . S
C347 C340 1.492 . S
H348 C331 0.930 . S
H349 C332 0.930 . S
H350 C333 0.930 . S
H351 C334 0.930 . S
H352 C341 0.930 . S
H353 C343 0.930 . S
H354 C344 0.930 . S
H355 C345 0.930 1_554 S
Eu356 N387 2.657 . S
Eu356 N394 2.609 . S
Eu356 O400 2.558 . S
Eu356 O401 2.612 . S
Eu356 O403 2.339 . S
Eu356 O404 2.563 . S
Eu356 O405 2.419 . S
Eu356 O407 2.380 . S
Eu356 O408 2.432 1_455 S
Eu356 C420 2.848 . S
C357 C360 1.429 . S
C357 C361 1.411 . S
C357 N364 1.377 . S
C358 C360 1.420 . S
C358 C362 1.423 . S
C358 C370 1.392 . S
C359 C361 1.420 . S
C359 C362 1.351 . S
C359 H382 0.931 . S
C360 C357 1.429 . S
C360 C358 1.420 . S
C360 N368 1.362 . S
C361 C357 1.411 . S
C361 C359 1.420 . S
C361 C366 1.395 1_655 S
C362 C358 1.423 . S
C362 C359 1.351 . S
C362 H374 0.930 . S
C363 C365 1.400 . S
C363 C366 1.386 . S
C363 H375 0.930 . S
N364 C357 1.377 . S
N364 C365 1.321 1_655 S
N364 Eu367 2.609 . S
C365 C363 1.400 . S
C365 N364 1.321 1_455 S
C365 H372 0.930 . S
C366 C361 1.395 1_455 S
C366 C363 1.386 . S
C366 H385 0.930 . S
Eu367 N364 2.609 . S
Eu367 N368 2.657 . S
Eu367 O401 2.380 1_655 S
Eu367 O402 2.432 1_655 S
Eu367 O406 2.558 . S
Eu367 O407 2.612 1_655 S
Eu367 O409 2.339 . S
Eu367 O410 2.563 . S
Eu367 O411 2.419 . S
Eu367 C431 2.848 . S
N368 C360 1.362 . S
N368 Eu367 2.657 . S
N368 C369 1.334 . S
C369 N368 1.334 . S
C369 C371 1.413 . S
C369 H376 0.929 . S
C370 C358 1.392 . S
C370 C371 1.367 . S
C370 H378 0.930 . S
C371 C369 1.413 . S
C371 C370 1.367 . S
C371 H373 0.930 . S
H372 C365 0.930 . S
H373 C371 0.930 . S
H374 C362 0.930 . S
H375 C363 0.930 . S
H376 C369 0.929 . S
H377 C391 0.930 . S
H378 C370 0.930 . S
H379 C397 0.930 1_655 S
H380 C388 0.929 . S
H381 C395 0.930 1_655 S
H382 C359 0.931 . S
H383 C389 0.930 . S
H384 C422 0.930 . S
H385 C366 0.930 . S
H386 C421 0.931 . S
N387 Eu356 2.657 . S
N387 C388 1.334 . S
N387 C392 1.362 . S
C388 H380 0.929 . S
C388 N387 1.334 . S
C388 C391 1.413 . S
C389 H383 0.930 . S
C389 C390 1.392 . S
C389 C391 1.367 . S
C390 C389 1.392 . S
C390 C392 1.420 . S
C390 C422 1.423 . S
C391 H377 0.930 . S
C391 C388 1.413 . S
C391 C389 1.367 . S
C392 N387 1.362 . S
C392 C390 1.420 . S
C392 C396 1.429 . S
H393 C398 0.930 . S
N394 Eu356 2.609 . S
N394 C396 1.377 . S
N394 C397 1.321 . S
C395 H381 0.930 1_455 S
C395 C397 1.400 . S
C395 C398 1.386 . S
C396 C392 1.429 . S
C396 N394 1.377 . S
C396 C399 1.411 . S
C397 H379 0.930 1_455 S
C397 N394 1.321 . S
C397 C395 1.400 . S
C398 H393 0.930 . S
C398 C395 1.386 . S
C398 C399 1.395 . S
C399 C396 1.411 . S
C399 C398 1.395 . S
C399 C421 1.420 . S
O400 Eu356 2.558 . S
O400 C420 1.257 . S
O401 Eu356 2.612 . S
O401 Eu367 2.380 1_455 S
O401 C412 1.276 . S
O402 Eu367 2.432 1_455 S
O402 C419 1.264 . S
O403 Eu356 2.339 . S
O403 C419 1.254 . S
O404 Eu356 2.563 . S
O404 C412 1.235 . S
O405 Eu356 2.419 . S
O405 C420 1.249 . S
O406 Eu367 2.558 . S
O406 C431 1.257 . S
O407 Eu356 2.380 . S
O407 Eu367 2.612 1_455 S
O407 C423 1.276 1_455 S
O408 Eu356 2.432 1_655 S
O408 C430 1.264 . S
O409 Eu367 2.339 . S
O409 C430 1.254 . S
O410 Eu367 2.563 . S
O410 C423 1.235 . S
O411 Eu367 2.419 . S
O411 C431 1.249 . S
C412 O401 1.276 . S
C412 O404 1.235 . S
C413 C415 1.393 . S
C413 C417 1.395 . S
C413 C420 1.492 . S
C414 C415 1.392 . S
C414 C416 1.386 . S
C415 C413 1.393 . S
C415 C414 1.392 . S
C415 H432 0.930 . S
C416 C414 1.386 . S
C416 C418 1.395 . S
C416 H433 0.930 . S
C417 C413 1.395 . S
C417 C418 1.379 . S
C417 H434 0.930 . S
C418 C416 1.395 . S
C418 C417 1.379 . S
C418 H435 0.930 . S
C419 O402 1.264 . S
C419 O403 1.254 . S
C420 Eu356 2.848 . S
C420 O400 1.257 . S
C420 O405 1.249 . S
C420 C413 1.492 . S
C421 H386 0.931 . S
C421 C399 1.420 . S
C421 C422 1.351 . S
C422 H384 0.930 . S
C422 C390 1.423 . S
C422 C421 1.351 . S
C423 O407 1.276 1_655 S
C423 O410 1.235 . S
C424 C425 1.393 . S
C424 C428 1.395 . S
C424 C431 1.492 . S
C425 C424 1.393 . S
C425 C426 1.392 . S
C425 H436 0.930 . S
C426 C425 1.392 . S
C426 C427 1.386 . S
C427 C426 1.386 . S
C427 C429 1.395 . S
C427 H437 0.930 . S
C428 C424 1.395 . S
C428 C429 1.379 . S
C428 H438 0.930 . S
C429 C427 1.395 . S
C429 C428 1.379 . S
C429 H439 0.930 1_556 S
C430 O408 1.264 . S
C430 O409 1.254 . S
C431 Eu367 2.848 . S
C431 O406 1.257 . S
C431 O411 1.249 . S
C431 C424 1.492 . S
H432 C415 0.930 . S
H433 C416 0.930 . S
H434 C417 0.930 . S
H435 C418 0.930 . S
H436 C425 0.930 . S
H437 C427 0.930 . S
H438 C428 0.930 . S
H439 C429 0.930 1_554 S
H440 C448 0.929 . S
H441 C450 0.930 . S
H442 C452 0.930 . S
H443 C455 0.929 . S
H444 C458 0.930 . S
H445 C460 0.960 . S
H446 C460 0.960 . S
H447 C460 0.960 . S
C448 H440 0.929 . S
C448 C449 1.377 . S
C448 C450 1.384 . S
C449 C448 1.377 . S
C449 C455 1.390 . S
C450 H441 0.930 . S
C450 C448 1.384 . S
C450 C451 1.372 . S
C451 C450 1.372 . S
C451 C452 1.400 . S
C451 C456 1.490 . S
C452 H442 0.930 . S
C452 C451 1.400 . S
C452 C455 1.386 . S
H453 C469 0.930 . S
H454 C470 0.931 . S
C455 H443 0.929 . S
C455 C449 1.390 . S
C455 C452 1.386 . S
C456 C451 1.490 . S
C456 C458 1.395 . S
C456 C459 1.403 . S
H457 C463 0.930 . S
C458 H444 0.930 . S
C458 C456 1.395 . S
C458 C461 1.403 . S
C459 C456 1.403 . S
C459 C460 1.524 . S
C459 C463 1.400 . S
C460 H445 0.960 . S
C460 H446 0.960 . S
C460 H447 0.960 . S
C460 C459 1.524 . S
C461 C458 1.403 . S
C461 C462 1.392 . S
C461 C465 1.495 . S
C462 C461 1.392 . S
C462 C463 1.385 . S
C462 C464 1.478 . S
C463 H457 0.930 . S
C463 C459 1.400 . S
C463 C462 1.385 . S
C464 C462 1.478 . S
C464 C466 1.381 . S
C464 C470 1.383 . S
C465 C461 1.495 . S
C465 H471 0.959 . S
C465 H472 0.933 1_545 S
C465 H473 0.960 . S
C466 C464 1.381 . S
C466 C467 1.394 . S
C466 H474 0.930 . S
C467 C466 1.394 . S
C467 C468 1.383 . S
C467 H475 0.929 . S
C468 C467 1.383 . S
C468 C469 1.377 . S
C469 H453 0.930 . S
C469 C468 1.377 . S
C469 C470 1.379 . S
C470 H454 0.931 . S
C470 C464 1.383 . S
C470 C469 1.379 . S
H471 C465 0.959 . S
H472 C465 0.933 1_565 S
H473 C465 0.960 . S
H474 C466 0.930 . S
H475 C467 0.929 . S
H476 C484 0.929 . S
H477 C486 0.930 . S
H478 C488 0.930 . S
H479 C491 0.929 . S
H480 C494 0.930 . S
H481 C496 0.960 . S
H482 C496 0.960 . S
H483 C496 0.960 . S
C484 H476 0.929 . S
C484 C485 1.377 . S
C484 C486 1.384 . S
C485 C484 1.377 . S
C485 C491 1.390 . S
C486 H477 0.930 . S
C486 C484 1.384 . S
C486 C487 1.372 . S
C487 C486 1.372 . S
C487 C488 1.400 . S
C487 C492 1.490 . S
C488 H478 0.930 . S
C488 C487 1.400 . S
C488 C491 1.386 . S
H489 C505 0.930 . S
H490 C506 0.931 . S
C491 H479 0.929 . S
C491 C485 1.390 . S
C491 C488 1.386 . S
C492 C487 1.490 . S
C492 C494 1.395 . S
C492 C495 1.403 . S
H493 C499 0.930 . S
C494 H480 0.930 . S
C494 C492 1.395 . S
C494 C497 1.403 . S
C495 C492 1.403 . S
C495 C496 1.524 . S
C495 C499 1.400 . S
C496 H481 0.960 . S
C496 H482 0.960 . S
C496 H483 0.960 . S
C496 C495 1.524 . S
C497 C494 1.403 . S
C497 C498 1.392 . S
C497 C501 1.495 . S
C498 C497 1.392 . S
C498 C499 1.385 . S
C498 C500 1.478 . S
C499 H493 0.930 . S
C499 C495 1.400 . S
C499 C498 1.385 . S
C500 C498 1.478 . S
C500 C502 1.381 . S
C500 C506 1.383 . S
C501 C497 1.495 . S
C501 H507 0.959 . S
C501 H508 0.961 . S
C501 H509 0.960 . S
C502 C500 1.381 . S
C502 C503 1.394 . S
C502 H510 0.930 . S
C503 C502 1.394 . S
C503 C504 1.383 . S
C503 H511 0.929 . S
C504 C503 1.383 . S
C504 C505 1.377 . S
C505 H489 0.930 . S
C505 C504 1.377 . S
C505 C506 1.379 . S
C506 H490 0.931 . S
C506 C500 1.383 . S
C506 C505 1.379 . S
H507 C501 0.959 . S
H508 C501 0.961 . S
H509 C501 0.960 . S
H510 C502 0.930 . S
H511 C503 0.929 . S
H512 C520 0.929 . S
H513 C522 0.930 . S
H514 C524 0.930 . S
H515 C527 0.929 . S
H516 C530 0.930 . S
H517 C532 0.960 . S
H518 C532 0.960 . S
H519 C532 0.960 . S
C520 H512 0.929 . S
C520 C521 1.377 . S
C520 C522 1.384 . S
C521 C520 1.377 . S
C521 C527 1.390 . S
C522 H513 0.930 . S
C522 C520 1.384 . S
C522 C523 1.372 . S
C523 C522 1.372 . S
C523 C524 1.400 . S
C523 C528 1.490 . S
C524 H514 0.930 . S
C524 C523 1.400 . S
C524 C527 1.386 . S
H525 C541 0.930 . S
H526 C542 0.931 . S
C527 H515 0.929 . S
C527 C521 1.390 . S
C527 C524 1.386 . S
C528 C523 1.490 . S
C528 C530 1.395 . S
C528 C531 1.403 . S
H529 C535 0.930 . S
C530 H516 0.930 . S
C530 C528 1.395 . S
C530 C533 1.403 . S
C531 C528 1.403 . S
C531 C532 1.524 . S
C531 C535 1.400 . S
C532 H517 0.960 . S
C532 H518 0.960 . S
C532 H519 0.960 . S
C532 C531 1.524 . S
C533 C530 1.403 . S
C533 C534 1.392 . S
C533 C537 1.495 . S
C534 C533 1.392 . S
C534 C535 1.385 . S
C534 C536 1.478 . S
C535 H529 0.930 . S
C535 C531 1.400 . S
C535 C534 1.385 . S
C536 C534 1.478 . S
C536 C538 1.381 . S
C536 C542 1.383 . S
C537 C533 1.495 . S
C537 H543 0.959 . S
C537 H544 0.961 . S
C537 H545 0.960 . S
C538 C536 1.381 . S
C538 C539 1.394 . S
C538 H546 0.930 . S
C539 C538 1.394 . S
C539 C540 1.383 . S
C539 H547 0.929 . S
C540 C539 1.383 . S
C540 C541 1.377 . S
C541 H525 0.930 . S
C541 C540 1.377 . S
C541 C542 1.379 . S
C542 H526 0.931 . S
C542 C536 1.383 . S
C542 C541 1.379 . S
H543 C537 0.959 . S
H544 C537 0.961 . S
H545 C537 0.960 . S
H546 C538 0.930 . S
H547 C539 0.929 . S
H548 C556 0.929 . S
H549 C558 0.930 . S
H550 C560 0.930 . S
H551 C563 0.929 . S
H552 C566 0.930 . S
H553 C568 0.943 1_655 S
H554 C568 0.960 . S
H555 C568 0.960 . S
C556 H548 0.929 . S
C556 C557 1.377 . S
C556 C558 1.384 . S
C557 C556 1.377 . S
C557 C563 1.390 . S
C558 H549 0.930 . S
C558 C556 1.384 . S
C558 C559 1.372 . S
C559 C558 1.372 . S
C559 C560 1.400 . S
C559 C564 1.490 . S
C560 H550 0.930 . S
C560 C559 1.400 . S
C560 C563 1.386 . S
H561 C577 0.930 . S
H562 C578 0.931 . S
C563 H551 0.929 . S
C563 C557 1.390 . S
C563 C560 1.386 . S
C564 C559 1.490 . S
C564 C566 1.395 . S
C564 C567 1.403 . S
H565 C571 0.930 . S
C566 H552 0.930 . S
C566 C564 1.395 . S
C566 C569 1.403 . S
C567 C564 1.403 . S
C567 C568 1.524 . S
C567 C571 1.400 . S
C568 H553 0.943 1_455 S
C568 H554 0.960 . S
C568 H555 0.960 . S
C568 C567 1.524 . S
C569 C566 1.403 . S
C569 C570 1.392 . S
C569 C573 1.495 . S
C570 C569 1.392 . S
C570 C571 1.385 . S
C570 C572 1.478 . S
C571 H565 0.930 . S
C571 C567 1.400 . S
C571 C570 1.385 . S
C572 C570 1.478 . S
C572 C574 1.381 . S
C572 C578 1.383 . S
C573 C569 1.495 . S
C573 H579 0.959 . S
C573 H580 0.961 . S
C573 H581 0.960 . S
C574 C572 1.381 . S
C574 C575 1.394 . S
C574 H582 0.930 . S
C575 C574 1.394 . S
C575 C576 1.383 . S
C575 H583 0.929 . S
C576 C575 1.383 . S
C576 C577 1.377 . S
C577 H561 0.930 . S
C577 C576 1.377 . S
C577 C578 1.379 . S
C578 H562 0.931 . S
C578 C572 1.383 . S
C578 C577 1.379 . S
H579 C573 0.959 . S
H580 C573 0.961 . S
H581 C573 0.960 . S
H582 C574 0.930 . S
H583 C575 0.929 . S
H584 C592 0.929 . S
H585 C594 0.930 . S
H586 C596 0.930 1_556 S
H587 C599 0.929 . S
H588 C602 0.930 . S
H589 C604 0.960 . S
H590 C604 0.960 . S
H591 C604 0.960 . S
C592 H584 0.929 . S
C592 C593 1.377 . S
C592 C594 1.384 . S
C593 C592 1.377 . S
C593 C599 1.390 . S
C594 H585 0.930 . S
C594 C592 1.384 . S
C594 C595 1.372 . S
C595 C594 1.372 . S
C595 C596 1.400 . S
C595 C600 1.490 1_554 S
C596 H586 0.930 1_554 S
C596 C595 1.400 . S
C596 C599 1.386 . S
H597 C613 0.930 . S
H598 C614 0.931 . S
C599 H587 0.929 . S
C599 C593 1.390 . S
C599 C596 1.386 . S
C600 C595 1.490 1_556 S
C600 C602 1.395 1_556 S
C600 C603 1.403 . S
H601 C607 0.930 . S
C602 H588 0.930 . S
C602 C600 1.395 1_554 S
C602 C605 1.403 1_554 S
C603 C600 1.403 . S
C603 C604 1.524 . S
C603 C607 1.400 . S
C604 H589 0.960 . S
C604 H590 0.960 . S
C604 H591 0.960 . S
C604 C603 1.524 . S
C605 C602 1.403 1_556 S
C605 C606 1.392 . S
C605 C609 1.495 . S
C606 C605 1.392 . S
C606 C607 1.385 . S
C606 C608 1.478 . S
C607 H601 0.930 . S
C607 C603 1.400 . S
C607 C606 1.385 . S
C608 C606 1.478 . S
C608 C610 1.381 1_565 S
C608 C614 1.383 . S
C609 C605 1.495 . S
C609 H615 0.959 1_556 S
C609 H616 0.961 . S
C609 H617 0.960 . S
C610 C608 1.381 1_545 S
C610 C611 1.394 . S
C610 H618 0.930 . S
C611 C610 1.394 . S
C611 C612 1.383 1_545 S
C611 H619 0.929 . S
C612 C611 1.383 1_565 S
C612 C613 1.377 . S
C613 H597 0.930 . S
C613 C612 1.377 . S
C613 C614 1.379 . S
C614 H598 0.931 . S
C614 C608 1.383 . S
C614 C613 1.379 . S
H615 C609 0.959 1_554 S
H616 C609 0.961 . S
H617 C609 0.960 . S
H618 C610 0.930 . S
H619 C611 0.929 . S
H620 C628 0.929 . S
H621 C630 0.930 1_556 S
H622 C632 0.930 . S
H623 C635 0.929 . S
H624 C638 0.930 . S
H625 C640 0.960 . S
H626 C640 0.960 . S
H627 C640 0.960 . S
C628 H620 0.929 . S
C628 C629 1.377 . S
C628 C630 1.384 . S
C629 C628 1.377 . S
C629 C635 1.390 . S
C630 H621 0.930 1_554 S
C630 C628 1.384 . S
C630 C631 1.372 . S
C631 C630 1.372 . S
C631 C632 1.400 . S
C631 C636 1.490 1_554 S
C632 H622 0.930 . S
C632 C631 1.400 . S
C632 C635 1.386 . S
H633 C649 0.930 . S
H634 C650 0.931 . S
C635 H623 0.929 . S
C635 C629 1.390 . S
C635 C632 1.386 . S
C636 C631 1.490 1_556 S
C636 C638 1.395 . S
C636 C639 1.403 . S
H637 C643 0.930 . S
C638 H624 0.930 . S
C638 C636 1.395 . S
C638 C641 1.403 . S
C639 C636 1.403 . S
C639 C640 1.524 . S
C639 C643 1.400 . S
C640 H625 0.960 . S
C640 H626 0.960 . S
C640 H627 0.960 . S
C640 C639 1.524 . S
C641 C638 1.403 . S
C641 C642 1.392 . S
C641 C645 1.495 . S
C642 C641 1.392 . S
C642 C643 1.385 . S
C642 C644 1.478 . S
C643 H637 0.930 . S
C643 C639 1.400 . S
C643 C642 1.385 . S
C644 C642 1.478 . S
C644 C646 1.381 . S
C644 C650 1.383 . S
C645 C641 1.495 . S
C645 H651 0.959 . S
C645 H652 0.961 . S
C645 H653 0.960 . S
C646 C644 1.381 . S
C646 C647 1.394 . S
C646 H654 0.930 . S
C647 C646 1.394 . S
C647 C648 1.383 . S
C647 H655 0.929 . S
C648 C647 1.383 . S
C648 C649 1.377 . S
C649 H633 0.930 . S
C649 C648 1.377 . S
C649 C650 1.379 . S
C650 H634 0.931 . S
C650 C644 1.383 . S
C650 C649 1.379 . S
H651 C645 0.959 . S
H652 C645 0.961 . S
H653 C645 0.960 . S
H654 C646 0.930 . S
H655 C647 0.929 . S
H656 C664 0.929 . S
H657 C666 0.930 . S
H658 C668 0.930 . S
H659 C671 0.929 . S
H660 C674 0.930 1_554 S
H661 C676 0.960 . S
H662 C676 0.960 . S
H663 C676 0.960 . S
C664 H656 0.929 . S
C664 C665 1.377 . S
C664 C666 1.384 . S
C665 C664 1.377 . S
C665 C671 1.390 . S
C666 H657 0.930 . S
C666 C664 1.384 . S
C666 C667 1.372 . S
C667 C666 1.372 . S
C667 C668 1.400 1_554 S
C667 C672 1.490 1_554 S
C668 H658 0.930 . S
C668 C667 1.400 1_556 S
C668 C671 1.386 1_556 S
H669 C685 0.930 . S
H670 C686 0.931 . S
C671 H659 0.929 . S
C671 C665 1.390 . S
C671 C668 1.386 1_554 S
C672 C667 1.490 1_556 S
C672 C674 1.395 . S
C672 C675 1.403 . S
H673 C679 0.930 . S
C674 H660 0.930 1_556 S
C674 C672 1.395 . S
C674 C677 1.403 . S
C675 C672 1.403 . S
C675 C676 1.524 . S
C675 C679 1.400 . S
C676 H661 0.960 . S
C676 H662 0.960 . S
C676 H663 0.960 . S
C676 C675 1.524 . S
C677 C674 1.403 . S
C677 C678 1.392 . S
C677 C681 1.495 . S
C678 C677 1.392 . S
C678 C679 1.385 . S
C678 C680 1.478 . S
C679 H673 0.930 . S
C679 C675 1.400 . S
C679 C678 1.385 . S
C680 C678 1.478 . S
C680 C682 1.381 . S
C680 C686 1.383 . S
C681 C677 1.495 . S
C681 H687 0.959 . S
C681 H688 0.961 . S
C681 H689 0.960 . S
C682 C680 1.381 . S
C682 C683 1.394 . S
C682 H690 0.930 . S
C683 C682 1.394 . S
C683 C684 1.383 . S
C683 H691 0.929 . S
C684 C683 1.383 . S
C684 C685 1.377 . S
C685 H669 0.930 . S
C685 C684 1.377 . S
C685 C686 1.379 . S
C686 H670 0.931 . S
C686 C680 1.383 . S
C686 C685 1.379 . S
H687 C681 0.959 . S
H688 C681 0.961 . S
H689 C681 0.960 . S
H690 C682 0.930 . S
H691 C683 0.929 . S
H692 C700 0.929 . S
H693 C702 0.930 . S
H694 C704 0.930 . S
H695 C707 0.929 . S
H696 C710 0.930 1_554 S
H697 C712 0.960 . S
H698 C712 0.960 . S
H699 C712 0.960 . S
C700 H692 0.929 . S
C700 C701 1.377 . S
C700 C702 1.384 . S
C701 C700 1.377 . S
C701 C707 1.390 . S
C702 H693 0.930 . S
C702 C700 1.384 . S
C702 C703 1.372 . S
C703 C702 1.372 . S
C703 C704 1.400 . S
C703 C708 1.490 1_554 S
C704 H694 0.930 . S
C704 C703 1.400 . S
C704 C707 1.386 . S
H705 C721 0.930 . S
H706 C722 0.931 . S
C707 H695 0.929 . S
C707 C701 1.390 . S
C707 C704 1.386 . S
C708 C703 1.490 1_556 S
C708 C710 1.395 . S
C708 C711 1.403 . S
H709 C715 0.930 . S
C710 H696 0.930 1_556 S
C710 C708 1.395 . S
C710 C713 1.403 . S
C711 C708 1.403 . S
C711 C712 1.524 . S
C711 C715 1.400 . S
C712 H697 0.960 . S
C712 H698 0.960 . S
C712 H699 0.960 . S
C712 C711 1.524 . S
C713 C710 1.403 . S
C713 C714 1.392 . S
C713 C717 1.495 1_655 S
C714 C713 1.392 . S
C714 C715 1.385 . S
C714 C716 1.478 . S
C715 H709 0.930 . S
C715 C711 1.400 . S
C715 C714 1.385 . S
C716 C714 1.478 . S
C716 C718 1.381 1_655 S
C716 C722 1.383 . S
C717 C713 1.495 1_455 S
C717 H723 0.959 1_556 S
C717 H724 0.961 . S
C717 H725 0.960 . S
C718 C716 1.381 1_455 S
C718 C719 1.394 . S
C718 H726 0.930 . S
C719 C718 1.394 . S
C719 C720 1.383 1_455 S
C719 H727 0.929 . S
C720 C719 1.383 1_655 S
C720 C721 1.377 . S
C721 H705 0.930 . S
C721 C720 1.377 . S
C721 C722 1.379 . S
C722 H706 0.931 . S
C722 C716 1.383 . S
C722 C721 1.379 . S
H723 C717 0.959 1_554 S
H724 C717 0.961 . S
H725 C717 0.960 . S
H726 C718 0.930 . S
H727 C719 0.929 . S
H728 C736 0.929 . S
H729 C738 0.930 . S
H730 C740 0.930 . S
H731 C743 0.929 . S
H732 C746 0.930 . S
H733 C748 0.960 . S
H734 C748 0.960 . S
H735 C748 0.960 . S
C736 H728 0.929 . S
C736 C737 1.377 . S
C736 C738 1.384 . S
C737 C736 1.377 . S
C737 C743 1.390 . S
C738 H729 0.930 . S
C738 C736 1.384 . S
C738 C739 1.372 . S
C739 C738 1.372 . S
C739 C740 1.400 . S
C739 C744 1.490 . S
C740 H730 0.930 . S
C740 C739 1.400 . S
C740 C743 1.386 . S
H741 C757 0.930 . S
H742 C758 0.931 . S
C743 H731 0.929 . S
C743 C737 1.390 . S
C743 C740 1.386 . S
C744 C739 1.490 . S
C744 C746 1.395 . S
C744 C747 1.403 . S
H745 C751 0.930 . S
C746 H732 0.930 . S
C746 C744 1.395 . S
C746 C749 1.403 . S
C747 C744 1.403 . S
C747 C748 1.524 . S
C747 C751 1.400 . S
C748 H733 0.960 . S
C748 H734 0.960 . S
C748 H735 0.960 . S
C748 C747 1.524 . S
C749 C746 1.403 . S
C749 C750 1.392 . S
C749 C753 1.495 1_455 S
C750 C749 1.392 . S
C750 C751 1.385 . S
C750 C752 1.478 . S
C751 H745 0.930 . S
C751 C747 1.400 . S
C751 C750 1.385 . S
C752 C750 1.478 . S
C752 C754 1.381 . S
C752 C758 1.383 . S
C753 C749 1.495 1_655 S
C753 H759 0.959 . S
C753 H760 0.961 . S
C753 H761 0.960 . S
C754 C752 1.381 . S
C754 C755 1.393 1_455 S
C754 H762 0.930 . S
C755 C754 1.393 1_655 S
C755 C756 1.382 1_655 S
C755 H763 0.931 . S
C756 C755 1.382 1_455 S
C756 C757 1.377 . S
C757 H741 0.930 . S
C757 C756 1.377 . S
C757 C758 1.379 . S
C758 H742 0.931 . S
C758 C752 1.383 . S
C758 C757 1.379 . S
H759 C753 0.959 . S
H760 C753 0.961 . S
H761 C753 0.960 . S
H762 C754 0.930 . S
H763 C755 0.931 . S
H764 C772 0.929 . S
H765 C774 0.930 . S
H766 C776 0.930 . S
H767 C779 0.929 . S
H768 C782 0.930 . S
H769 C784 0.960 . S
H770 C784 0.960 . S
H771 C784 0.960 . S
C772 H764 0.929 . S
C772 C773 1.377 . S
C772 C774 1.384 . S
C773 C772 1.377 . S
C773 C779 1.390 . S
C774 H765 0.930 . S
C774 C772 1.384 . S
C774 C775 1.372 . S
C775 C774 1.372 . S
C775 C776 1.400 . S
C775 C780 1.490 . S
C776 H766 0.930 . S
C776 C775 1.400 . S
C776 C779 1.386 . S
H777 C793 0.930 . S
H778 C794 0.931 . S
C779 H767 0.929 . S
C779 C773 1.390 . S
C779 C776 1.386 . S
C780 C775 1.490 . S
C780 C782 1.395 . S
C780 C783 1.403 . S
H781 C787 0.930 . S
C782 H768 0.930 . S
C782 C780 1.395 . S
C782 C785 1.403 . S
C783 C780 1.403 . S
C783 C784 1.524 . S
C783 C787 1.400 . S
C784 H769 0.960 . S
C784 H770 0.960 . S
C784 H771 0.960 . S
C784 C783 1.524 . S
C785 C782 1.403 . S
C785 C786 1.392 . S
C785 C789 1.495 . S
C786 C785 1.392 . S
C786 C787 1.385 . S
C786 C788 1.478 . S
C787 H781 0.930 . S
C787 C783 1.400 . S
C787 C786 1.385 . S
C788 C786 1.478 . S
C788 C790 1.381 . S
C788 C794 1.383 . S
C789 C785 1.495 . S
C789 H795 0.959 . S
C789 H796 0.961 . S
C789 H797 0.960 . S
C790 C788 1.381 . S
C790 C791 1.394 1_545 S
C790 H798 0.930 1_545 S
C791 C790 1.394 1_565 S
C791 C792 1.383 1_565 S
C791 H799 0.929 . S
C792 C791 1.383 1_545 S
C792 C793 1.377 . S
C793 H777 0.930 . S
C793 C792 1.377 . S
C793 C794 1.379 . S
C794 H778 0.931 . S
C794 C788 1.383 . S
C794 C793 1.379 . S
H795 C789 0.959 . S
H796 C789 0.961 . S
H797 C789 0.960 . S
H798 C790 0.930 1_565 S
H799 C791 0.929 . S
H800 C808 0.929 . S
H801 C810 0.930 . S
H802 C812 0.930 . S
H803 C815 0.929 1_556 S
H804 C818 0.930 . S
H805 C820 0.960 . S
H806 C820 0.960 . S
H807 C820 0.960 . S
C808 H800 0.929 . S
C808 C809 1.377 . S
C808 C810 1.384 . S
C809 C808 1.377 . S
C809 C815 1.390 . S
C810 H801 0.930 . S
C810 C808 1.384 . S
C810 C811 1.372 . S
C811 C810 1.372 . S
C811 C812 1.400 . S
C811 C816 1.490 . S
C812 H802 0.930 . S
C812 C811 1.400 . S
C812 C815 1.386 . S
H813 C829 0.930 . S
H814 C830 0.931 . S
C815 H803 0.929 1_554 S
C815 C809 1.390 . S
C815 C812 1.386 . S
C816 C811 1.490 . S
C816 C818 1.395 . S
C816 C819 1.403 . S
H817 C823 0.930 . S
C818 H804 0.930 . S
C818 C816 1.395 . S
C818 C821 1.403 . S
C819 C816 1.403 . S
C819 C820 1.524 . S
C819 C823 1.400 . S
C820 H805 0.960 . S
C820 H806 0.960 . S
C820 H807 0.960 . S
C820 C819 1.524 . S
C821 C818 1.403 . S
C821 C822 1.392 . S
C821 C825 1.495 . S
C822 C821 1.392 . S
C822 C823 1.385 . S
C822 C824 1.478 . S
C823 H817 0.930 . S
C823 C819 1.400 . S
C823 C822 1.385 . S
C824 C822 1.478 . S
C824 C826 1.381 . S
C824 C830 1.383 . S
C825 C821 1.495 . S
C825 H831 0.959 . S
C825 H832 0.961 . S
C825 H833 0.960 . S
C826 C824 1.381 . S
C826 C827 1.394 . S
C826 H834 0.930 . S
C827 C826 1.394 . S
C827 C828 1.383 . S
C827 H835 0.929 . S
C828 C827 1.383 . S
C828 C829 1.377 . S
C829 H813 0.930 . S
C829 C828 1.377 . S
C829 C830 1.379 . S
C830 H814 0.931 . S
C830 C824 1.383 . S
C830 C829 1.379 . S
H831 C825 0.959 . S
H832 C825 0.961 . S
H833 C825 0.960 . S
H834 C826 0.930 . S
H835 C827 0.929 . S
H836 C844 0.929 . S
H837 C846 0.930 . S
H838 C848 0.930 . S
H839 C851 0.929 . S
H840 C854 0.930 . S
H841 C856 0.960 . S
H842 C856 0.960 . S
H843 C856 0.960 . S
C844 H836 0.929 . S
C844 C845 1.377 . S
C844 C846 1.384 . S
C845 C844 1.377 . S
C845 C851 1.390 . S
C846 H837 0.930 . S
C846 C844 1.384 . S
C846 C847 1.372 . S
C847 C846 1.372 . S
C847 C848 1.400 . S
C847 C852 1.490 . S
C848 H838 0.930 . S
C848 C847 1.400 . S
C848 C851 1.386 . S
H849 C865 0.930 . S
H850 C866 0.931 . S
C851 H839 0.929 . S
C851 C845 1.390 . S
C851 C848 1.386 . S
C852 C847 1.490 . S
C852 C854 1.395 . S
C852 C855 1.403 . S
H853 C859 0.930 . S
C854 H840 0.930 . S
C854 C852 1.395 . S
C854 C857 1.403 . S
C855 C852 1.403 . S
C855 C856 1.524 . S
C855 C859 1.400 . S
C856 H841 0.960 . S
C856 H842 0.960 . S
C856 H843 0.960 . S
C856 C855 1.524 . S
C857 C854 1.403 . S
C857 C858 1.392 . S
C857 C861 1.495 . S
C858 C857 1.392 . S
C858 C859 1.385 . S
C858 C860 1.478 . S
C859 H853 0.930 . S
C859 C855 1.400 . S
C859 C858 1.385 . S
C860 C858 1.478 . S
C860 C862 1.381 . S
C860 C866 1.383 . S
C861 C857 1.495 . S
C861 H867 0.959 . S
C861 H868 0.961 . S
C861 H869 0.960 . S
C862 C860 1.381 . S
C862 C863 1.394 . S
C862 H870 0.930 . S
C863 C862 1.394 . S
C863 C864 1.383 . S
C863 H871 0.929 . S
C864 C863 1.383 . S
C864 C865 1.377 . S
C865 H849 0.930 . S
C865 C864 1.377 . S
C865 C866 1.379 . S
C866 H850 0.931 . S
C866 C860 1.383 . S
C866 C865 1.379 . S
H867 C861 0.959 . S
H868 C861 0.961 . S
H869 C861 0.960 . S
H870 C862 0.930 . S
H871 C863 0.929 . S
H872 C880 0.929 . S
H873 C882 0.930 . S
H874 C884 0.930 . S
H875 C887 0.929 . S
H876 C890 0.930 . S
H877 C892 0.960 . S
H878 C892 0.960 . S
H879 C892 0.960 . S
C880 H872 0.929 . S
C880 C881 1.377 . S
C880 C882 1.384 . S
C881 C880 1.377 . S
C881 C887 1.390 . S
C882 H873 0.930 . S
C882 C880 1.384 . S
C882 C883 1.372 . S
C883 C882 1.372 . S
C883 C884 1.400 . S
C883 C888 1.490 . S
C884 H874 0.930 . S
C884 C883 1.400 . S
C884 C887 1.386 . S
H885 C901 0.930 . S
H886 C902 0.931 . S
C887 H875 0.929 . S
C887 C881 1.390 . S
C887 C884 1.386 . S
C888 C883 1.490 . S
C888 C890 1.395 . S
C888 C891 1.403 1_554 S
H889 C895 0.930 . S
C890 H876 0.930 . S
C890 C888 1.395 . S
C890 C893 1.403 . S
C891 C888 1.403 1_556 S
C891 C892 1.524 . S
C891 C895 1.400 . S
C892 H877 0.960 . S
C892 H878 0.960 . S
C892 H879 0.960 . S
C892 C891 1.524 . S
C893 C890 1.403 . S
C893 C894 1.392 1_554 S
C893 C897 1.495 1_655 S
C894 C893 1.392 1_556 S
C894 C895 1.385 . S
C894 C896 1.478 . S
C895 H889 0.930 . S
C895 C891 1.400 . S
C895 C894 1.385 . S
C896 C894 1.478 . S
C896 C898 1.381 . S
C896 C902 1.383 1_655 S
C897 C893 1.495 1_455 S
C897 H903 0.959 . S
C897 H904 0.961 . S
C897 H905 0.959 . S
C898 C896 1.381 . S
C898 C899 1.394 . S
C898 H906 0.930 . S
C899 C898 1.394 . S
C899 C900 1.383 1_655 S
C899 H907 0.929 . S
C900 C899 1.383 1_455 S
C900 C901 1.377 . S
C901 H885 0.930 . S
C901 C900 1.377 . S
C901 C902 1.379 . S
C902 H886 0.931 . S
C902 C896 1.383 1_455 S
C902 C901 1.379 . S
H903 C897 0.959 . S
H904 C897 0.961 . S
H905 C897 0.959 . S
H906 C898 0.930 . S
H907 C899 0.929 . S
H908 C916 0.929 . S
H909 C918 0.930 . S
H910 C920 0.930 . S
H911 C923 0.929 . S
H912 C926 0.930 . S
H913 C928 0.960 . S
H914 C928 0.960 . S
H915 C928 0.960 . S
C916 H908 0.929 . S
C916 C917 1.377 . S
C916 C918 1.384 . S
C917 C916 1.377 . S
C917 C923 1.390 . S
C918 H909 0.930 . S
C918 C916 1.384 . S
C918 C919 1.372 . S
C919 C918 1.372 . S
C919 C920 1.400 . S
C919 C924 1.490 . S
C920 H910 0.930 . S
C920 C919 1.400 . S
C920 C923 1.386 . S
H921 C937 0.930 . S
H922 C938 0.931 . S
C923 H911 0.929 . S
C923 C917 1.390 . S
C923 C920 1.386 . S
C924 C919 1.490 . S
C924 C926 1.395 1_554 S
C924 C927 1.403 . S
H925 C931 0.930 . S
C926 H912 0.930 . S
C926 C924 1.395 1_556 S
C926 C929 1.403 . S
C927 C924 1.403 . S
C927 C928 1.524 . S
C927 C931 1.400 . S
C928 H913 0.960 . S
C928 H914 0.960 . S
C928 H915 0.960 . S
C928 C927 1.524 . S
C929 C926 1.403 . S
C929 C930 1.392 . S
C929 C933 1.495 . S
C930 C929 1.392 . S
C930 C931 1.385 1_556 S
C930 C932 1.478 . S
C931 H925 0.930 . S
C931 C927 1.400 . S
C931 C930 1.385 1_554 S
C932 C930 1.478 . S
C932 C934 1.381 1_565 S
C932 C938 1.383 . S
C933 C929 1.495 . S
C933 H939 0.959 . S
C933 H940 0.961 . S
C933 H941 0.960 1_565 S
C934 C932 1.381 1_545 S
C934 C935 1.394 . S
C934 H942 0.930 . S
C935 C934 1.394 . S
C935 C936 1.383 . S
C935 H943 0.929 . S
C936 C935 1.383 . S
C936 C937 1.377 1_545 S
C937 H921 0.930 . S
C937 C936 1.377 1_565 S
C937 C938 1.379 . S
C938 H922 0.931 . S
C938 C932 1.383 . S
C938 C937 1.379 . S
H939 C933 0.959 . S
H940 C933 0.961 . S
H941 C933 0.960 1_545 S
H942 C934 0.930 . S
H943 C935 0.929 . S
H944 C952 0.929 . S
H945 C954 0.930 . S
H946 C956 0.930 . S
H947 C959 0.929 . S
H948 C962 0.930 . S
H949 C964 0.960 . S
H950 C964 0.960 . S
H951 C964 0.960 . S
C952 H944 0.929 . S
C952 C953 1.377 . S
C952 C954 1.384 . S
C953 C952 1.377 . S
C953 C959 1.390 . S
C954 H945 0.930 . S
C954 C952 1.384 . S
C954 C955 1.372 . S
C955 C954 1.372 . S
C955 C956 1.400 . S
C955 C960 1.490 . S
C956 H946 0.930 . S
C956 C955 1.400 . S
C956 C959 1.386 . S
H957 C973 0.930 . S
H958 C974 0.931 . S
C959 H947 0.929 . S
C959 C953 1.390 . S
C959 C956 1.386 . S
C960 C955 1.490 . S
C960 C962 1.395 . S
C960 C963 1.403 1_554 S
H961 C967 0.930 . S
C962 H948 0.930 . S
C962 C960 1.395 . S
C962 C965 1.403 . S
C963 C960 1.403 1_556 S
C963 C964 1.524 . S
C963 C967 1.400 . S
C964 H949 0.960 . S
C964 H950 0.960 . S
C964 H951 0.960 . S
C964 C963 1.524 . S
C965 C962 1.403 . S
C965 C966 1.392 1_554 S
C965 C969 1.495 . S
C966 C965 1.392 1_556 S
C966 C967 1.385 . S
C966 C968 1.478 . S
C967 H961 0.930 . S
C967 C963 1.400 . S
C967 C966 1.385 . S
C968 C966 1.478 . S
C968 C970 1.381 . S
C968 C974 1.383 . S
C969 C965 1.495 . S
C969 H975 0.959 . S
C969 H976 0.961 . S
C969 H977 0.960 . S
C970 C968 1.381 . S
C970 C971 1.394 . S
C970 H978 0.930 . S
C971 C970 1.394 . S
C971 C972 1.383 . S
C971 H979 0.929 . S
C972 C971 1.383 . S
C972 C973 1.377 . S
C973 H957 0.930 . S
C973 C972 1.377 . S
C973 C974 1.379 . S
C974 H958 0.931 . S
C974 C968 1.383 . S
C974 C973 1.379 . S
H975 C969 0.959 . S
H976 C969 0.961 . S
H977 C969 0.960 . S
H978 C970 0.930 . S
H979 C971 0.929 . S
H980 C988 0.929 . S
H981 C990 0.930 . S
H982 C992 0.930 . S
H983 C995 0.929 . S
H984 C998 0.930 . S
H985 C1000 0.960 . S
H986 C1000 0.960 . S
H987 C1000 0.960 . S
C988 H980 0.929 . S
C988 C989 1.377 . S
C988 C990 1.384 . S
C989 C988 1.377 . S
C989 C995 1.390 . S
C990 H981 0.930 . S
C990 C988 1.384 . S
C990 C991 1.372 . S
C991 C990 1.372 . S
C991 C992 1.400 . S
C991 C996 1.490 . S
C992 H982 0.930 . S
C992 C991 1.400 . S
C992 C995 1.386 . S
H993 C1009 0.930 . S
H994 C1010 0.931 . S
C995 H983 0.929 . S
C995 C989 1.390 . S
C995 C992 1.386 . S
C996 C991 1.490 . S
C996 C998 1.395 1_554 S
C996 C999 1.403 . S
H997 C1003 0.930 . S
C998 H984 0.930 . S
C998 C996 1.395 1_556 S
C998 C1001 1.403 . S
C999 C996 1.403 . S
C999 C1000 1.524 . S
C999 C1003 1.400 . S
C1000 H985 0.960 . S
C1000 H986 0.960 . S
C1000 H987 0.960 . S
C1000 C999 1.524 . S
C1001 C998 1.403 . S
C1001 C1002 1.392 . S
C1001 C1005 1.495 . S
C1002 C1001 1.392 . S
C1002 C1003 1.385 1_556 S
C1002 C1004 1.478 . S
C1003 H997 0.930 . S
C1003 C999 1.400 . S
C1003 C1002 1.385 1_554 S
C1004 C1002 1.478 . S
C1004 C1006 1.381 . S
C1004 C1010 1.383 . S
C1005 C1001 1.495 . S
C1005 H1011 0.959 . S
C1005 H1012 0.961 . S
C1005 H1013 0.960 . S
C1006 C1004 1.381 . S
C1006 C1007 1.394 . S
C1006 H1014 0.930 . S
C1007 C1006 1.394 . S
C1007 C1008 1.383 . S
C1007 H1015 0.929 . S
C1008 C1007 1.383 . S
C1008 C1009 1.377 . S
C1009 H993 0.930 . S
C1009 C1008 1.377 . S
C1009 C1010 1.379 . S
C1010 H994 0.931 . S
C1010 C1004 1.383 . S
C1010 C1009 1.379 . S
H1011 C1005 0.959 . S
H1012 C1005 0.961 . S
H1013 C1005 0.960 . S
H1014 C1006 0.930 . S
H1015 C1007 0.929 . S
H1016 C1024 0.929 . S
H1017 C1026 0.930 . S
H1018 C1028 0.930 . S
H1019 C1031 0.929 . S
H1020 C1034 0.930 . S
H1021 C1036 0.960 . S
H1022 C1036 0.960 . S
H1023 C1036 0.960 . S
C1024 H1016 0.929 . S
C1024 C1025 1.377 . S
C1024 C1026 1.384 . S
C1025 C1024 1.377 . S
C1025 C1031 1.390 . S
C1026 H1017 0.930 . S
C1026 C1024 1.384 . S
C1026 C1027 1.372 . S
C1027 C1026 1.372 . S
C1027 C1028 1.400 . S
C1027 C1032 1.490 . S
C1028 H1018 0.930 . S
C1028 C1027 1.400 . S
C1028 C1031 1.386 . S
H1029 C1045 0.930 . S
H1030 C1046 0.931 . S
C1031 H1019 0.929 . S
C1031 C1025 1.390 . S
C1031 C1028 1.386 . S
C1032 C1027 1.490 . S
C1032 C1034 1.395 . S
C1032 C1035 1.403 . S
H1033 C1039 0.930 . S
C1034 H1020 0.930 . S
C1034 C1032 1.395 . S
C1034 C1037 1.403 . S
C1035 C1032 1.403 . S
C1035 C1036 1.524 . S
C1035 C1039 1.400 . S
C1036 H1021 0.960 . S
C1036 H1022 0.960 . S
C1036 H1023 0.960 . S
C1036 C1035 1.524 . S
C1037 C1034 1.403 . S
C1037 C1038 1.392 . S
C1037 C1041 1.495 . S
C1038 C1037 1.392 . S
C1038 C1039 1.385 . S
C1038 C1040 1.478 . S
C1039 H1033 0.930 . S
C1039 C1035 1.400 . S
C1039 C1038 1.385 . S
C1040 C1038 1.478 . S
C1040 C1042 1.381 . S
C1040 C1046 1.383 . S
C1041 C1037 1.495 . S
C1041 H1047 0.959 . S
C1041 H1048 0.961 . S
C1041 H1049 0.960 . S
C1042 C1040 1.381 . S
C1042 C1043 1.394 . S
C1042 H1050 0.930 . S
C1043 C1042 1.394 . S
C1043 C1044 1.383 . S
C1043 H1051 0.929 . S
C1044 C1043 1.383 . S
C1044 C1045 1.377 . S
C1045 H1029 0.930 . S
C1045 C1044 1.377 . S
C1045 C1046 1.379 . S
C1046 H1030 0.931 . S
C1046 C1040 1.383 . S
C1046 C1045 1.379 . S
H1047 C1041 0.959 . S
H1048 C1041 0.961 . S
H1049 C1041 0.960 . S
H1050 C1042 0.930 . S
H1051 C1043 0.929 . S
H1052 C1060 0.929 . S
H1053 C1062 0.930 . S
H1054 C1064 0.930 . S
H1055 C1067 0.929 . S
H1056 C1070 0.930 . S
H1057 C1072 0.960 . S
H1058 C1072 0.960 . S
H1059 C1072 0.960 . S
C1060 H1052 0.929 . S
C1060 C1061 1.377 . S
C1060 C1062 1.384 . S
C1061 C1060 1.377 . S
C1061 C1067 1.390 . S
C1062 H1053 0.930 . S
C1062 C1060 1.384 . S
C1062 C1063 1.372 . S
C1063 C1062 1.372 . S
C1063 C1064 1.400 . S
C1063 C1068 1.490 . S
C1064 H1054 0.930 . S
C1064 C1063 1.400 . S
C1064 C1067 1.386 . S
H1065 C1081 0.930 . S
H1066 C1082 0.931 . S
C1067 H1055 0.929 . S
C1067 C1061 1.390 . S
C1067 C1064 1.386 . S
C1068 C1063 1.490 . S
C1068 C1070 1.395 . S
C1068 C1071 1.403 . S
H1069 C1075 0.930 . S
C1070 H1056 0.930 . S
C1070 C1068 1.395 . S
C1070 C1073 1.403 . S
C1071 C1068 1.403 . S
C1071 C1072 1.524 . S
C1071 C1075 1.400 . S
C1072 H1057 0.960 . S
C1072 H1058 0.960 . S
C1072 H1059 0.960 . S
C1072 C1071 1.524 . S
C1073 C1070 1.403 . S
C1073 C1074 1.392 . S
C1073 C1077 1.495 . S
C1074 C1073 1.392 . S
C1074 C1075 1.385 . S
C1074 C1076 1.478 . S
C1075 H1069 0.930 . S
C1075 C1071 1.400 . S
C1075 C1074 1.385 . S
C1076 C1074 1.478 . S
C1076 C1078 1.381 . S
C1076 C1082 1.383 . S
C1077 C1073 1.495 . S
C1077 H1083 0.959 . S
C1077 H1084 0.961 . S
C1077 H1085 0.960 . S
C1078 C1076 1.381 . S
C1078 C1079 1.394 . S
C1078 H1086 0.930 . S
C1079 C1078 1.394 . S
C1079 C1080 1.383 . S
C1079 H1087 0.929 . S
C1080 C1079 1.383 . S
C1080 C1081 1.377 . S
C1081 H1065 0.930 . S
C1081 C1080 1.377 . S
C1081 C1082 1.379 . S
C1082 H1066 0.931 . S
C1082 C1076 1.383 . S
C1082 C1081 1.379 . S
H1083 C1077 0.959 . S
H1084 C1077 0.961 . S
H1085 C1077 0.960 . S
H1086 C1078 0.930 . S
H1087 C1079 0.929 . S
H1088 C1096 0.929 . S
H1089 C1098 0.930 . S
H1090 C1100 0.930 . S
H1091 C1103 0.929 . S
H1092 C1106 0.930 . S
H1093 C1108 0.960 . S
H1094 C1108 0.960 . S
H1095 C1108 0.960 . S
C1096 H1088 0.929 . S
C1096 C1097 1.377 . S
C1096 C1098 1.384 . S
C1097 C1096 1.377 . S
C1097 C1103 1.390 . S
C1098 H1089 0.930 . S
C1098 C1096 1.384 . S
C1098 C1099 1.372 . S
C1099 C1098 1.372 . S
C1099 C1100 1.400 . S
C1099 C1104 1.490 . S
C1100 H1090 0.930 . S
C1100 C1099 1.400 . S
C1100 C1103 1.386 . S
H1101 C1117 0.930 . S
H1102 C1118 0.931 . S
C1103 H1091 0.929 . S
C1103 C1097 1.390 . S
C1103 C1100 1.386 . S
C1104 C1099 1.490 . S
C1104 C1106 1.395 . S
C1104 C1107 1.403 . S
H1105 C1111 0.930 . S
C1106 H1092 0.930 . S
C1106 C1104 1.395 . S
C1106 C1109 1.403 . S
C1107 C1104 1.403 . S
C1107 C1108 1.524 . S
C1107 C1111 1.400 . S
C1108 H1093 0.960 . S
C1108 H1094 0.960 . S
C1108 H1095 0.960 . S
C1108 C1107 1.524 . S
C1109 C1106 1.403 . S
C1109 C1110 1.392 . S
C1109 C1113 1.495 . S
C1110 C1109 1.392 . S
C1110 C1111 1.385 . S
C1110 C1112 1.478 . S
C1111 H1105 0.930 . S
C1111 C1107 1.400 . S
C1111 C1110 1.385 . S
C1112 C1110 1.478 . S
C1112 C1114 1.381 . S
C1112 C1118 1.383 . S
C1113 C1109 1.495 . S
C1113 H1119 0.959 . S
C1113 H1120 0.961 . S
C1113 H1121 0.960 . S
C1114 C1112 1.381 . S
C1114 C1115 1.394 . S
C1114 H1122 0.930 . S
C1115 C1114 1.394 . S
C1115 C1116 1.383 . S
C1115 H1123 0.929 . S
C1116 C1115 1.383 . S
C1116 C1117 1.377 . S
C1117 H1101 0.930 . S
C1117 C1116 1.377 . S
C1117 C1118 1.379 . S
C1118 H1102 0.931 . S
C1118 C1112 1.383 . S
C1118 C1117 1.379 . S
H1119 C1113 0.959 . S
H1120 C1113 0.961 . S
H1121 C1113 0.960 . S
H1122 C1114 0.930 . S
H1123 C1115 0.929 . S
H1124 C1132 0.929 . S
H1125 C1134 0.930 . S
H1126 C1136 0.930 . S
H1127 C1139 0.929 . S
H1128 C1142 0.930 . S
H1129 C1144 0.960 . S
H1130 C1144 0.960 . S
H1131 C1144 0.960 . S
C1132 H1124 0.929 . S
C1132 C1133 1.377 . S
C1132 C1134 1.384 . S
C1133 C1132 1.377 . S
C1133 C1139 1.390 . S
C1134 H1125 0.930 . S
C1134 C1132 1.384 . S
C1134 C1135 1.372 . S
C1135 C1134 1.372 . S
C1135 C1136 1.400 . S
C1135 C1140 1.490 . S
C1136 H1126 0.930 . S
C1136 C1135 1.400 . S
C1136 C1139 1.386 . S
H1137 C1153 0.930 . S
H1138 C1154 0.931 . S
C1139 H1127 0.929 . S
C1139 C1133 1.390 . S
C1139 C1136 1.386 . S
C1140 C1135 1.490 . S
C1140 C1142 1.395 . S
C1140 C1143 1.403 . S
H1141 C1147 0.930 . S
C1142 H1128 0.930 . S
C1142 C1140 1.395 . S
C1142 C1145 1.403 . S
C1143 C1140 1.403 . S
C1143 C1144 1.524 . S
C1143 C1147 1.400 . S
C1144 H1129 0.960 . S
C1144 H1130 0.960 . S
C1144 H1131 0.960 . S
C1144 C1143 1.524 . S
C1145 C1142 1.403 . S
C1145 C1146 1.392 . S
C1145 C1149 1.495 . S
C1146 C1145 1.392 . S
C1146 C1147 1.385 . S
C1146 C1148 1.478 . S
C1147 H1141 0.930 . S
C1147 C1143 1.400 . S
C1147 C1146 1.385 . S
C1148 C1146 1.478 . S
C1148 C1150 1.381 . S
C1148 C1154 1.383 . S
C1149 C1145 1.495 . S
C1149 H1155 0.959 . S
C1149 H1156 0.961 . S
C1149 H1157 0.960 . S
C1150 C1148 1.381 . S
C1150 C1151 1.394 . S
C1150 H1158 0.930 . S
C1151 C1150 1.394 . S
C1151 C1152 1.383 . S
C1151 H1159 0.929 . S
C1152 C1151 1.383 . S
C1152 C1153 1.377 . S
C1153 H1137 0.930 . S
C1153 C1152 1.377 . S
C1153 C1154 1.379 . S
C1154 H1138 0.931 . S
C1154 C1148 1.383 . S
C1154 C1153 1.379 . S
H1155 C1149 0.959 . S
H1156 C1149 0.961 . S
H1157 C1149 0.960 . S
H1158 C1150 0.930 . S
H1159 C1151 0.929 . S
H1160 C1168 0.929 . S
H1161 C1170 0.930 . S
H1162 C1172 0.930 . S
H1163 C1175 0.929 . S
H1164 C1178 0.930 . S
H1165 C1180 0.960 . S
H1166 C1180 0.960 . S
H1167 C1180 0.960 . S
C1168 H1160 0.929 . S
C1168 C1169 1.377 . S
C1168 C1170 1.384 . S
C1169 C1168 1.377 . S
C1169 C1175 1.390 . S
C1170 H1161 0.930 . S
C1170 C1168 1.384 . S
C1170 C1171 1.372 . S
C1171 C1170 1.372 . S
C1171 C1172 1.400 . S
C1171 C1176 1.490 . S
C1172 H1162 0.930 . S
C1172 C1171 1.400 . S
C1172 C1175 1.386 . S
H1173 C1189 0.939 . S
H1174 C1190 0.931 1_455 S
C1175 H1163 0.929 . S
C1175 C1169 1.390 . S
C1175 C1172 1.386 . S
C1176 C1171 1.490 . S
C1176 C1178 1.395 . S
C1176 C1179 1.403 . S
H1177 C1183 0.930 . S
C1178 H1164 0.930 . S
C1178 C1176 1.395 . S
C1178 C1181 1.403 . S
C1179 C1176 1.403 . S
C1179 C1180 1.524 . S
C1179 C1183 1.400 . S
C1180 H1165 0.960 . S
C1180 H1166 0.960 . S
C1180 H1167 0.960 . S
C1180 C1179 1.524 . S
C1181 C1178 1.403 . S
C1181 C1182 1.392 . S
C1181 C1185 1.495 . S
C1182 C1181 1.392 . S
C1182 C1183 1.385 . S
C1182 C1184 1.478 . S
C1183 H1177 0.930 . S
C1183 C1179 1.400 . S
C1183 C1182 1.385 . S
C1184 C1182 1.478 . S
C1184 C1186 1.381 . S
C1184 C1190 1.383 . S
C1185 C1181 1.495 . S
C1185 H1191 0.959 . S
C1185 H1192 0.961 . S
C1185 H1193 0.960 . S
C1186 C1184 1.381 . S
C1186 C1187 1.394 . S
C1186 H1194 0.930 . S
C1187 C1186 1.394 . S
C1187 C1188 1.383 . S
C1187 H1195 0.929 . S
C1188 C1187 1.383 . S
C1188 C1189 1.370 1_655 S
C1189 H1173 0.939 . S
C1189 C1188 1.370 1_455 S
C1189 C1190 1.377 1_455 S
C1190 H1174 0.931 1_655 S
C1190 C1184 1.383 . S
C1190 C1189 1.377 1_655 S
H1191 C1185 0.959 . S
H1192 C1185 0.961 . S
H1193 C1185 0.960 . S
H1194 C1186 0.930 . S
H1195 C1187 0.929 . S
H1196 C1204 0.929 . S
H1197 C1206 0.930 . S
H1198 C1208 0.930 . S
H1199 C1211 0.929 . S
H1200 C1214 0.930 . S
H1201 C1216 0.961 1_545 S
H1202 C1216 0.959 . S
H1203 C1216 0.961 1_545 S
C1204 H1196 0.929 . S
C1204 C1205 1.377 . S
C1204 C1206 1.384 . S
C1205 C1204 1.377 . S
C1205 C1211 1.390 . S
C1206 H1197 0.930 . S
C1206 C1204 1.384 . S
C1206 C1207 1.372 . S
C1207 C1206 1.372 . S
C1207 C1208 1.400 . S
C1207 C1212 1.490 . S
C1208 H1198 0.930 . S
C1208 C1207 1.400 . S
C1208 C1211 1.386 . S
H1209 C1225 0.973 . S
H1210 C1226 0.931 1_545 S
C1211 H1199 0.929 . S
C1211 C1205 1.390 . S
C1211 C1208 1.386 . S
C1212 C1207 1.490 . S
C1212 C1214 1.395 . S
C1212 C1215 1.403 . S
H1213 C1219 0.930 . S
C1214 H1200 0.930 . S
C1214 C1212 1.395 . S
C1214 C1217 1.403 . S
C1215 C1212 1.403 . S
C1215 C1216 1.522 . S
C1215 C1219 1.400 . S
C1216 H1201 0.961 1_565 S
C1216 H1202 0.959 . S
C1216 H1203 0.961 1_565 S
C1216 C1215 1.522 . S
C1217 C1214 1.403 . S
C1217 C1218 1.392 . S
C1217 C1221 1.495 . S
C1218 C1217 1.392 . S
C1218 C1219 1.385 . S
C1218 C1220 1.478 . S
C1219 H1213 0.930 . S
C1219 C1215 1.400 . S
C1219 C1218 1.385 . S
C1220 C1218 1.478 . S
C1220 C1222 1.381 . S
C1220 C1226 1.383 . S
C1221 C1217 1.495 . S
C1221 H1227 0.959 . S
C1221 H1228 0.961 . S
C1221 H1229 0.960 . S
C1222 C1220 1.381 . S
C1222 C1223 1.394 . S
C1222 H1230 0.930 . S
C1223 C1222 1.394 . S
C1223 C1224 1.383 . S
C1223 H1231 0.929 . S
C1224 C1223 1.383 . S
C1224 C1225 1.347 1_565 S
C1225 H1209 0.973 . S
C1225 C1224 1.347 1_545 S
C1225 C1226 1.368 1_545 S
C1226 H1210 0.931 1_565 S
C1226 C1220 1.383 . S
C1226 C1225 1.368 1_565 S
H1227 C1221 0.959 . S
H1228 C1221 0.961 . S
H1229 C1221 0.960 . S
H1230 C1222 0.930 . S
H1231 C1223 0.929 . S
H1232 C1240 0.929 . S
H1233 C1242 0.930 . S
H1234 C1244 0.930 . S
H1235 C1247 0.929 . S
H1236 C1250 0.930 . S
H1237 C1252 0.960 . S
H1238 C1252 0.960 . S
H1239 C1252 0.960 . S
C1240 H1232 0.929 . S
C1240 C1241 1.377 . S
C1240 C1242 1.384 . S
C1241 C1240 1.377 . S
C1241 C1247 1.390 . S
C1242 H1233 0.930 . S
C1242 C1240 1.384 . S
C1242 C1243 1.372 . S
C1243 C1242 1.372 . S
C1243 C1244 1.400 . S
C1243 C1248 1.490 . S
C1244 H1234 0.930 . S
C1244 C1243 1.400 . S
C1244 C1247 1.386 . S
H1245 C1261 0.930 . S
H1246 C1262 0.931 . S
C1247 H1235 0.929 . S
C1247 C1241 1.390 . S
C1247 C1244 1.386 . S
C1248 C1243 1.490 . S
C1248 C1250 1.395 . S
C1248 C1251 1.403 . S
H1249 C1255 0.930 . S
C1250 H1236 0.930 . S
C1250 C1248 1.395 . S
C1250 C1253 1.403 . S
C1251 C1248 1.403 . S
C1251 C1252 1.524 . S
C1251 C1255 1.400 . S
C1252 H1237 0.960 . S
C1252 H1238 0.960 . S
C1252 H1239 0.960 . S
C1252 C1251 1.524 . S
C1253 C1250 1.403 . S
C1253 C1254 1.392 . S
C1253 C1257 1.495 . S
C1254 C1253 1.392 . S
C1254 C1255 1.385 . S
C1254 C1256 1.478 . S
C1255 H1249 0.930 . S
C1255 C1251 1.400 . S
C1255 C1254 1.385 . S
C1256 C1254 1.478 . S
C1256 C1258 1.381 . S
C1256 C1262 1.383 . S
C1257 C1253 1.495 . S
C1257 H1263 0.959 . S
C1257 H1264 0.961 . S
C1257 H1265 0.960 . S
C1258 C1256 1.381 . S
C1258 C1259 1.394 . S
C1258 H1266 0.930 . S
C1259 C1258 1.394 . S
C1259 C1260 1.383 . S
C1259 H1267 0.929 . S
C1260 C1259 1.383 . S
C1260 C1261 1.377 . S
C1261 H1245 0.930 . S
C1261 C1260 1.377 . S
C1261 C1262 1.379 . S
C1262 H1246 0.931 . S
C1262 C1256 1.383 . S
C1262 C1261 1.379 . S
H1263 C1257 0.959 . S
H1264 C1257 0.961 . S
H1265 C1257 0.960 . S
H1266 C1258 0.930 . S
H1267 C1259 0.929 . S
H1268 C1276 0.929 . S
H1269 C1278 0.930 . S
H1270 C1280 0.930 . S
H1271 C1283 0.929 . S
H1272 C1286 0.930 . S
H1273 C1288 0.960 . S
H1274 C1288 0.960 . S
H1275 C1288 0.960 . S
C1276 H1268 0.929 . S
C1276 C1277 1.377 . S
C1276 C1278 1.384 . S
C1277 C1276 1.377 . S
C1277 C1283 1.390 . S
C1278 H1269 0.930 . S
C1278 C1276 1.384 . S
C1278 C1279 1.372 . S
C1279 C1278 1.372 . S
C1279 C1280 1.400 . S
C1279 C1284 1.490 . S
C1280 H1270 0.930 . S
C1280 C1279 1.400 . S
C1280 C1283 1.386 . S
H1281 C1297 0.930 . S
H1282 C1298 0.931 . S
C1283 H1271 0.929 . S
C1283 C1277 1.390 . S
C1283 C1280 1.386 . S
C1284 C1279 1.490 . S
C1284 C1286 1.395 . S
C1284 C1287 1.403 . S
H1285 C1291 0.930 . S
C1286 H1272 0.930 . S
C1286 C1284 1.395 . S
C1286 C1289 1.403 . S
C1287 C1284 1.403 . S
C1287 C1288 1.524 . S
C1287 C1291 1.400 . S
C1288 H1273 0.960 . S
C1288 H1274 0.960 . S
C1288 H1275 0.960 . S
C1288 C1287 1.524 . S
C1289 C1286 1.403 . S
C1289 C1290 1.392 . S
C1289 C1293 1.495 . S
C1290 C1289 1.392 . S
C1290 C1291 1.385 . S
C1290 C1292 1.478 . S
C1291 H1285 0.930 . S
C1291 C1287 1.400 . S
C1291 C1290 1.385 . S
C1292 C1290 1.478 . S
C1292 C1294 1.381 . S
C1292 C1298 1.383 . S
C1293 C1289 1.495 . S
C1293 H1299 0.959 . S
C1293 H1300 0.961 . S
C1293 H1301 0.960 . S
C1294 C1292 1.381 . S
C1294 C1295 1.394 . S
C1294 H1302 0.930 . S
C1295 C1294 1.394 . S
C1295 C1296 1.383 . S
C1295 H1303 0.929 . S
C1296 C1295 1.383 . S
C1296 C1297 1.377 . S
C1297 H1281 0.930 . S
C1297 C1296 1.377 . S
C1297 C1298 1.379 . S
C1298 H1282 0.931 . S
C1298 C1292 1.383 . S
C1298 C1297 1.379 . S
H1299 C1293 0.959 . S
H1300 C1293 0.961 . S
H1301 C1293 0.960 . S
H1302 C1294 0.930 . S
H1303 C1295 0.929 . S
C449 C82 1.705 . S
C468 C178 1.819 . S
C504 C262 1.885 . S
C485 C95 1.733 . S
C540 C328 1.924 . S
C521 C56 1.862 . S
C576 C412 1.849 . S
C557 C69 1.818 . S
C612 C167 1.825 1_565 S
C593 C30 1.637 . S
C629 C43 1.667 . S
C648 C251 1.858 . S
C665 C4 1.784 . S
C684 C339 1.872 . S
C701 C17 1.750 . S
C720 C423 1.850 . S
C756 C174 0.431 1_455 S
C737 C74 0.509 . S
C792 C258 0.558 . S
C773 C87 0.463 . S
C828 C330 0.533 . S
C809 C100 0.457 . S
C845 C61 0.458 . S
C864 C414 0.603 . S
C881 C22 0.507 . S
C900 C162 0.469 . S
C936 C246 0.525 . S
C917 C35 0.454 . S
C972 C342 0.480 . S
C953 C48 0.468 . S
C989 C9 0.461 . S
C1008 C426 0.600 . S
C1025 C73 1.954 . S
C1044 C171 1.984 . S
C1061 C86 1.916 . S
C1080 C255 1.950 . S
C1116 C335 1.940 . S
C1097 C99 1.807 . S
C1152 C419 1.978 . S
C1133 C60 1.842 . S
C1169 C21 1.945 . S
C1188 C160 1.981 . S
C1224 C244 1.953 1_565 S
C1205 C34 1.905 . S
C1260 C346 1.919 . S
C1241 C47 1.809 . S
C1277 C8 1.838 . S
C1296 C430 1.965 . S
