# Generated by pormake.
# Topology rtl, (3,6)-cn, num edge types: 1
# Building blocks:
#     Node 0, Type 0, BuildingBlock: PAMTOO_clean_linker_0, # of connection points: 3
#     Node 1, Type 0, BuildingBlock: PAMTOO_clean_linker_0, # of connection points: 3
#     Node 2, Type 0, BuildingBlock: PAMTOO_clean_linker_0, # of connection points: 3
#     Node 3, Type 0, BuildingBlock: PAMTOO_clean_linker_0, # of connection points: 3
#     Node 4, Type 1, BuildingBlock: KUMJIN_clean_sbu_1, # of connection points: 6
#     Node 5, Type 1, BuildingBlock: KUMJIN_clean_sbu_1, # of connection points: 6
#     Edge 6, Type (0, 1), BuildingBlock: CIFDUS_clean_linker_0, # of connection points: 2
#     Edge 7, Type (0, 1), BuildingBlock: CIFDUS_clean_linker_0, # of connection points: 2
#     Edge 8, Type (0, 1), BuildingBlock: CIFDUS_clean_linker_0, # of connection points: 2
#     Edge 9, Type (0, 1), BuildingBlock: CIFDUS_clean_linker_0, # of connection points: 2
#     Edge 10, Type (0, 1), BuildingBlock: CIFDUS_clean_linker_0, # of connection points: 2
#     Edge 11, Type (0, 1), BuildingBlock: CIFDUS_clean_linker_0, # of connection points: 2
#     Edge 12, Type (0, 1), BuildingBlock: CIFDUS_clean_linker_0, # of connection points: 2
#     Edge 13, Type (0, 1), BuildingBlock: CIFDUS_clean_linker_0, # of connection points: 2
#     Edge 14, Type (0, 1), BuildingBlock: CIFDUS_clean_linker_0, # of connection points: 2
#     Edge 15, Type (0, 1), BuildingBlock: CIFDUS_clean_linker_0, # of connection points: 2
#     Edge 16, Type (0, 1), BuildingBlock: CIFDUS_clean_linker_0, # of connection points: 2
#     Edge 17, Type (0, 1), BuildingBlock: CIFDUS_clean_linker_0, # of connection points: 2
# Relax obj value: 0.052
# Max RMSD: 0.226
# Mean RMSD: 0.168
data_MOF--net-rtl--node1-KUMJIN_clean_sbu_1--node2-PAMTOO_clean_linker_0--edge1-CIFDUS_clean_linker_0
_symmetry_space_group_name_H-M    P1
_symmetry_Int_Tables_number       1
_symmetry_cell_setting            triclinic
loop_
_symmetry_equiv_pos_as_xyz
'x, y, z'
_cell_length_a     30.745091
_cell_length_b     31.078041
_cell_length_c     24.096073
_cell_angle_alpha  77.323418
_cell_angle_beta   99.130917
_cell_angle_gamma 91.300674
loop_
_atom_site_label
_atom_site_type_symbol
_atom_site_fract_x
_atom_site_fract_y
_atom_site_fract_z
_atom_type_partial_charge
H0 H 0.14244 0.899 0.99688 0.0
H1 H 0.23202 0.79866 0.10366 0.0
H2 H 0.23696 0.83893 0.92238 0.0
H3 H 0.23436 0.74223 0.97665 0.0
C4 C 0.25953 0.74221 0.0154 0.0
O5 O 0.27036 0.78499 0.01901 0.0
H6 H 0.24476 0.72583 0.05382 0.0
C7 C 0.16995 0.87649 1.00188 0.0
C8 C 0.18881 0.87323 0.95365 0.0
C9 C 0.1853 0.84969 0.05613 0.0
C10 C 0.22043 0.82006 0.06217 0.0
C11 C 0.23884 0.81596 0.01386 0.0
C12 C 0.22304 0.8426 0.9597 0.0
H13 H 0.63686 0.6503 0.67757 0.0
H14 H 0.72362 0.73153 0.57638 0.0
H15 H 0.73166 0.73184 0.75617 0.0
H16 H 0.73462 0.82106 0.6731 0.0
C17 C 0.75304 0.81038 0.64212 0.0
O18 O 0.76322 0.76596 0.66054 0.0
H19 H 0.73121 0.81651 0.59956 0.0
C20 C 0.66273 0.67461 0.67406 0.0
C21 C 0.68199 0.68939 0.72315 0.0
C22 C 0.67734 0.68944 0.62101 0.0
C23 C 0.71212 0.71946 0.61717 0.0
C24 C 0.73125 0.73528 0.66561 0.0
C25 C 0.71658 0.71979 0.7188 0.0
H26 H 0.89221 0.14099 0.11349 0.0
H27 H 0.8003 0.22782 0.98654 0.0
H28 H 0.799 0.21886 0.16635 0.0
H29 H 0.71159 0.22244 0.08876 0.0
C30 C 0.72001 0.24793 0.05184 0.0
O31 O 0.76411 0.25799 0.06154 0.0
H32 H 0.7128 0.23411 0.01254 0.0
C33 C 0.86515 0.16463 0.10249 0.0
C34 C 0.84751 0.17729 0.147 0.0
C35 C 0.84839 0.18221 0.04419 0.0
C36 C 0.81393 0.21365 0.03094 0.0
C37 C 0.79621 0.22667 0.07492 0.0
C38 C 0.81271 0.20826 0.13274 0.0
H39 H 0.40723 0.38887 0.43916 0.0
H40 H 0.31838 0.30883 0.53893 0.0
H41 H 0.32423 0.2955 0.3666 0.0
H42 H 0.23544 0.29529 0.40187 0.0
C43 C 0.24372 0.27653 0.44726 0.0
O44 O 0.28805 0.26576 0.45948 0.0
H45 H 0.23585 0.29823 0.47555 0.0
C46 C 0.383 0.36295 0.44393 0.0
C47 C 0.36847 0.3433 0.39735 0.0
C48 C 0.36448 0.35187 0.49481 0.0
C49 C 0.33347 0.31781 0.50037 0.0
C50 C 0.31934 0.29715 0.45446 0.0
C51 C 0.33635 0.31041 0.40264 0.0
Eu52 Eu 0.04951 0.98234 0.50772 0.0
C53 C 0.95758 0.15432 0.50448 0.0
N54 N 0.99407 0.13604 0.54097 0.0
C55 C 0.03107 0.20532 0.52255 0.0
C56 C 0.95732 0.19843 0.47331 0.0
C57 C 0.02939 0.16167 0.55311 0.0
C58 C 0.99519 0.22354 0.4816 0.0
C59 C 0.88035 0.14817 0.46573 0.0
C60 C 0.9195 0.12964 0.50068 0.0
C61 C 0.8805 0.19144 0.43277 0.0
C62 C 0.91893 0.21648 0.43644 0.0
Eu63 Eu 0.98883 0.06075 0.58707 0.0
N64 N 0.9207 0.08739 0.53159 0.0
C65 C 0.84218 0.12266 0.46526 0.0
C66 C 0.88328 0.06297 0.53341 0.0
C67 C 0.84356 0.08006 0.49978 0.0
H68 H 0.05592 0.14898 0.58733 0.0
H69 H 0.81408 0.06036 0.50039 0.0
H70 H 1.00249 0.88514 0.54756 0.0
H71 H 0.22465 0.02472 0.53778 0.0
H72 H 0.88438 0.03009 0.56023 0.0
H73 H 0.81144 0.13571 0.43895 0.0
H74 H 0.14711 0.03418 0.49215 0.0
H75 H 0.0597 0.2251 0.53139 0.0
H76 H 0.85091 0.20607 0.40501 0.0
H77 H 0.91829 0.25015 0.41172 0.0
H78 H 0.02277 0.81118 0.6087 0.0
H79 H 0.99636 0.25753 0.45845 0.0
H80 H 0.24899 0.95705 0.61093 0.0
N81 N 0.06641 0.91115 0.565 0.0
C82 C 0.10885 0.90307 0.59086 0.0
C83 C 0.04723 0.83679 0.60431 0.0
C84 C 0.12181 0.86162 0.62662 0.0
C85 C 0.03582 0.87858 0.56981 0.0
C86 C 0.0903 0.8284 0.63338 0.0
N87 N 0.12611 0.97508 0.54385 0.0
C88 C 0.15654 1.00564 0.52623 0.0
C89 C 0.18389 0.92868 0.6065 0.0
C90 C 0.13939 0.93628 0.58089 0.0
C91 C 0.21452 0.9616 0.59219 0.0
C92 C 0.20089 0.9999 0.55107 0.0
H93 H 0.09898 0.79609 0.66042 0.0
H94 H 0.17619 0.82313 0.68218 0.0
H95 H 0.23059 0.88184 0.66453 0.0
O96 O 0.08545 0.96478 0.4442 0.0
O97 O 0.04291 0.9603 0.60209 0.0
O98 O 0.05162 0.02396 0.63499 0.0
O99 O 0.01477 0.95807 0.43456 0.0
O100 O 0.07423 0.05284 0.50221 0.0
O101 O 0.0626 0.07167 0.58646 0.0
O102 O 0.95462 0.03788 0.66079 0.0
O103 O 0.96288 0.05462 0.49468 0.0
O104 O 0.02673 0.05066 0.45985 0.0
O105 O 0.98107 0.10333 0.64629 0.0
O106 O 0.96338 0.99091 0.59526 0.0
O107 O 0.97679 0.9681 0.51364 0.0
C108 C 0.05804 0.9813 0.64255 0.0
C109 C 0.05487 0.90917 0.39753 0.0
C110 C 0.08422 0.86822 0.33565 0.0
C111 C 0.06127 0.83081 0.35934 0.0
C112 C 0.03214 0.87144 0.42061 0.0
C113 C 0.03563 0.83243 0.4018 0.0
C114 C 0.08118 0.90723 0.35544 0.0
C115 C 0.08456 0.07541 0.54284 0.0
C116 C 0.0506 0.95124 0.41505 0.0
C117 C 0.1657 0.85458 0.65399 0.0
C118 C 0.19664 0.88806 0.64406 0.0
C119 C 0.98577 0.06392 0.45212 0.0
C120 C 0.97959 0.06665 0.7425 0.0
C121 C 0.97099 0.0719 0.83981 0.0
C122 C 1.01192 0.05024 0.8608 0.0
C123 C 0.0205 0.04555 0.76426 0.0
C124 C 0.95506 0.08026 0.78028 0.0
C125 C 0.03656 0.03739 0.82312 0.0
C126 C 0.95469 0.966 0.55707 0.0
C127 C 0.96196 0.07345 0.68077 0.0
H128 H 0.06325 0.8003 0.34505 0.0
H129 H 1.01131 0.87217 0.45258 0.0
H130 H 0.01802 0.80346 0.41975 0.0
H131 H 0.09825 0.93649 0.33689 0.0
H132 H 0.02505 0.04366 0.90634 0.0
H133 H 0.03982 0.03523 0.7357 0.0
H134 H 0.92332 0.09642 0.76358 0.0
H135 H 0.06812 0.02092 0.83961 0.0
Eu136 Eu 0.47525 0.49555 1.00487 0.0
C137 C 0.65848 0.58276 0.07398 0.0
N138 N 0.64283 0.54349 0.10012 0.0
C139 C 0.71382 0.50957 0.11183 0.0
C140 C 0.7028 0.58669 0.06522 0.0
C141 C 0.6696 0.50715 0.11933 0.0
C142 C 0.73051 0.5495 0.08468 0.0
C143 C 0.64457 0.65922 0.02398 0.0
C144 C 0.62952 0.61868 0.05342 0.0
C145 C 0.68885 0.66332 0.01592 0.0
C146 C 0.71786 0.6272 0.03649 0.0
Eu147 Eu 0.56849 0.54331 0.11236 0.0
N148 N 0.58632 0.61337 0.05988 0.0
C149 C 0.61452 0.69435 1.00282 0.0
C150 C 0.55732 0.64799 0.04113 0.0
C151 C 0.57081 0.68877 0.01175 0.0
H152 H 0.65703 0.47646 0.14131 0.0
H153 H 0.54752 0.716 0.99641 0.0
H154 H 0.3827 0.5413 0.02398 0.0
H155 H 0.51707 0.32073 0.03147 0.0
H156 H 0.52396 0.64479 0.04931 0.0
H157 H 0.62479 0.72597 0.97986 0.0
H158 H 0.52344 0.40047 0.99487 0.0
H159 H 0.73504 0.48071 0.12715 0.0
H160 H 0.70091 0.6942 0.99328 0.0
H161 H 0.75179 0.6308 0.02933 0.0
H162 H 0.31345 0.51761 0.06113 0.0
H163 H 0.76476 0.5512 0.07872 0.0
H164 H 0.45563 0.292 0.08337 0.0
N165 N 0.40912 0.47632 0.04165 0.0
C166 C 0.40239 0.43246 0.06029 0.0
C167 C 0.33827 0.49338 0.06143 0.0
C168 C 0.36343 0.41749 0.08199 0.0
C169 C 0.37754 0.50675 0.04083 0.0
C170 C 0.33125 0.44859 0.08235 0.0
N171 N 0.47101 0.41774 0.03418 0.0
C172 C 0.49865 0.38884 0.02133 0.0
C173 C 0.42823 0.35684 0.07677 0.0
C174 C 0.43466 0.40252 0.05785 0.0
C175 C 0.45937 0.3273 0.06938 0.0
C176 C 0.49422 0.34337 0.04041 0.0
H177 H 0.30088 0.43836 0.09861 0.0
H178 H 0.32846 0.36015 0.1204 0.0
H179 H 0.38506 0.30705 0.11563 0.0
O180 O 0.47043 0.47493 0.92084 0.0
O181 O 0.46512 0.48878 0.09841 0.0
O182 O 0.53488 0.48067 0.15073 0.0
O183 O 0.41911 0.51489 0.93901 0.0
O184 O 0.54625 0.4692 0.01787 0.0
O185 O 0.57412 0.47105 0.11232 0.0
O186 O 0.56346 0.58423 0.17377 0.0
O187 O 0.58045 0.54893 0.02023 0.0
O188 O 0.51072 0.55762 0.96898 0.0
O189 O 0.61379 0.53333 0.19393 0.0
O190 O 0.49849 0.56989 0.10169 0.0
O191 O 0.46758 0.56682 0.00915 0.0
C192 C 0.49254 0.47224 0.14561 0.0
C193 C 0.40652 0.50015 0.84442 0.0
C194 C 0.38525 0.47579 0.75431 0.0
C195 C 0.35453 0.51091 0.73555 0.0
C196 C 0.37587 0.53519 0.8242 0.0
C197 C 0.35006 0.54038 0.77022 0.0
C198 C 0.41116 0.47036 0.80928 0.0
C199 C 0.57284 0.45385 0.0668 0.0
C200 C 0.43261 0.49545 0.90239 0.0
C201 C 0.35789 0.37219 0.10285 0.0
C202 C 0.39025 0.34198 0.10042 0.0
C203 C 0.55335 0.56321 0.97214 0.0
C204 C 0.58535 0.55141 0.2712 0.0
C205 C 0.59687 0.56403 0.36861 0.0
C206 C 0.56416 0.53296 0.38274 0.0
C207 C 0.55274 0.5206 0.28575 0.0
C208 C 0.60752 0.5728 0.31269 0.0
C209 C 0.54242 0.51124 0.34149 0.0
C210 C 0.46792 0.5817 0.05615 0.0
C211 C 0.59499 0.56345 0.21224 0.0
H212 H 0.33354 0.5154 0.69405 0.0
H213 H 0.37174 0.55874 0.85018 0.0
H214 H 0.32639 0.56731 0.75524 0.0
H215 H 0.43486 0.44341 0.82438 0.0
H216 H 0.55553 0.52544 0.42567 0.0
H217 H 0.53498 0.50436 0.25386 0.0
H218 H 0.6321 0.59724 0.30091 0.0
H219 H 0.5172 0.48744 0.35257 0.0
H220 H 0.22322 0.22869 0.54888 0.0
H221 H 0.2036 0.23231 0.36685 0.0
H222 H 0.15437 0.16913 0.38071 0.0
H223 H 0.11338 0.116 0.44366 0.0
H224 H 0.13334 0.11139 0.62618 0.0
H225 H 0.18576 0.17183 0.61319 0.0
C226 C 0.20828 0.21533 0.51247 0.0
C227 C 0.2163 0.23544 0.45683 0.0
C228 C 0.17987 0.17912 0.5208 0.0
C229 C 0.19738 0.21764 0.40994 0.0
C230 C 0.16924 0.18159 0.41786 0.0
C231 C 0.1296 0.12782 0.48075 0.0
C232 C 0.11908 0.1095 0.53576 0.0
C233 C 0.1597 0.16252 0.47295 0.0
C234 C 0.14044 0.12527 0.58328 0.0
C235 C 0.17046 0.1598 0.57589 0.0
H236 H 0.32268 0.70394 0.10415 0.0
H237 H 0.28665 0.72388 0.92004 0.0
H238 H 0.3488 0.67738 0.91594 0.0
H239 H 0.41096 0.62798 0.96542 0.0
H240 H 0.4473 0.60806 0.1499 0.0
H241 H 0.38772 0.65764 0.15316 0.0
C242 C 0.32877 0.69821 0.06322 0.0
C243 C 0.29989 0.71658 0.0126 0.0
C244 C 0.36445 0.6713 0.0613 0.0
C245 C 0.30823 0.70956 0.9596 0.0
C246 C 0.34368 0.68297 0.95729 0.0
C247 C 0.40601 0.6346 1.00635 0.0
C248 C 0.43346 0.61402 0.05738 0.0
C249 C 0.3716 0.6631 0.00798 0.0
C250 C 0.42673 0.62338 0.10992 0.0
C251 C 0.39256 0.65167 0.11189 0.0
H252 H 0.79714 0.83109 0.54985 0.0
H253 H 0.80155 0.84879 0.72305 0.0
H254 H 0.86485 0.89746 0.71251 0.0
H255 H 0.91621 0.93785 0.65253 0.0
H256 H 0.91297 0.92003 0.47923 0.0
H257 H 0.85199 0.86857 0.49123 0.0
C258 C 0.81225 0.84551 0.58524 0.0
C259 C 0.79435 0.83715 0.63679 0.0
C260 C 0.84853 0.87363 0.57868 0.0
C261 C 0.81448 0.85531 0.68277 0.0
C262 C 0.85056 0.88316 0.67668 0.0
C263 C 0.90224 0.9228 0.61724 0.0
C264 C 0.91891 0.93331 0.56475 0.0
C265 C 0.86736 0.89314 0.62452 0.0
C266 C 0.90073 0.91278 0.51999 0.0
C267 C 0.86581 0.88334 0.52681 0.0
H268 H 0.69162 0.28117 0.13541 0.0
H269 H 0.68847 0.30699 0.95178 0.0
H270 H 0.64313 0.37335 0.93958 0.0
H271 H 0.6034 0.42347 0.98155 0.0
H272 H 0.60676 0.39653 0.1657 0.0
H273 H 0.65297 0.33154 0.17733 0.0
C274 C 0.6808 0.30135 0.09279 0.0
C275 C 0.69251 0.28895 0.04446 0.0
C276 C 0.65479 0.33928 0.08623 0.0
C277 C 0.67916 0.31567 0.98947 0.0
C278 C 0.65333 0.35356 0.98254 0.0
C279 C 0.61414 0.40324 0.02413 0.0
C280 C 0.60141 0.41479 0.07258 0.0
C281 C 0.64068 0.36557 0.03061 0.0
C282 C 0.61611 0.38854 0.1276 0.0
C283 C 0.64247 0.35122 0.13437 0.0
H284 H 0.21568 0.87529 0.15616 0.0
H285 H 0.10166 0.82426 0.06401 0.0
H286 H 0.06063 0.8241 0.14318 0.0
H287 H 0.0568 0.83959 0.23782 0.0
H288 H 0.16894 0.89468 0.32846 0.0
H289 H 0.2111 0.89261 0.2508 0.0
C290 C 0.1819 0.86408 0.15385 0.0
C291 C 0.16154 0.84967 0.10481 0.0
C292 C 0.15824 0.86501 0.19904 0.0
C293 C 0.11773 0.83554 0.10155 0.0
C294 C 0.09436 0.83543 0.14671 0.0
C295 C 0.09059 0.85083 0.24066 0.0
C296 C 0.10991 0.86694 0.28884 0.0
C297 C 0.11422 0.8502 0.19556 0.0
C298 C 0.15341 0.88221 0.29163 0.0
C299 C 0.17752 0.88091 0.24737 0.0
H300 H 0.59745 0.68516 0.74199 0.0
H301 H 0.73028 0.65168 0.82729 0.0
H302 H 0.70214 0.60941 0.91248 0.0
H303 H 0.6395 0.57643 0.95819 0.0
H304 H 0.50667 0.61207 0.87335 0.0
H305 H 0.53512 0.65771 0.79133 0.0
C306 C 0.62022 0.66907 0.77962 0.0
C307 C 0.66583 0.67124 0.77837 0.0
C308 C 0.60379 0.64444 0.8278 0.0
C309 C 0.69506 0.65069 0.82746 0.0
C310 C 0.67894 0.62616 0.87582 0.0
C311 C 0.61672 0.59489 0.92243 0.0
C312 C 0.57095 0.59097 0.92241 0.0
C313 C 0.63333 0.62194 0.87586 0.0
C314 C 0.54202 0.61425 0.87469 0.0
C315 C 0.55826 0.64062 0.82782 0.0
H316 H 0.93357 0.16948 0.19538 0.0
H317 H 0.80269 0.14211 0.23567 0.0
H318 H 0.83361 0.10538 0.33446 0.0
H319 H 0.89836 0.07664 0.40721 0.0
H320 H 0.02886 0.10692 0.36659 0.0
H321 H 0.99765 0.14572 0.26969 0.0
C322 C 0.91183 0.15546 0.22582 0.0
C323 C 0.86596 0.15807 0.20811 0.0
C324 C 0.92979 0.13443 0.28227 0.0
C325 C 0.83814 0.14056 0.24832 0.0
C326 C 0.8558 0.11934 0.30466 0.0
C327 C 0.91987 0.09259 0.37758 0.0
C328 C 0.96584 0.08904 0.39438 0.0
C329 C 0.90164 0.11553 0.3219 0.0
C330 C 0.99334 0.10887 0.35481 0.0
C331 C 0.97554 0.13125 0.29937 0.0
H332 H 0.37656 0.32585 0.61307 0.0
H333 H 0.37175 0.44109 0.47401 0.0
H334 H 0.3833 0.48839 0.54257 0.0
H335 H 0.38963 0.4982 0.64077 0.0
H336 H 0.38952 0.38515 0.78118 0.0
H337 H 0.38579 0.33593 0.71368 0.0
C338 C 0.37811 0.36128 0.59789 0.0
C339 C 0.37369 0.37965 0.53831 0.0
C340 C 0.38388 0.38879 0.63779 0.0
C341 C 0.37605 0.42573 0.51947 0.0
C342 C 0.38229 0.45301 0.55867 0.0
C343 C 0.38887 0.46275 0.65667 0.0
C344 C 0.38924 0.44536 0.71567 0.0
C345 C 0.3856 0.43499 0.61771 0.0
C346 C 0.38935 0.39934 0.73588 0.0
C347 C 0.38682 0.37125 0.69724 0.0
H348 H 0.71694 0.65665 0.54535 0.0
H349 H 0.58958 0.68392 0.58442 0.0
H350 H 0.55346 0.64773 0.50951 0.0
H351 H 0.5581 0.60527 0.43616 0.0
H352 H 0.68496 0.57783 0.39606 0.0
H353 H 0.7213 0.6174 0.46769 0.0
C354 C 0.68128 0.65528 0.53668 0.0
C355 C 0.65596 0.67257 0.57056 0.0
C356 C 0.66069 0.63405 0.4938 0.0
C357 C 0.60976 0.67033 0.55927 0.0
C358 C 0.58909 0.64964 0.51653 0.0
C359 C 0.59371 0.6078 0.44339 0.0
C360 C 0.61889 0.58833 0.41149 0.0
C361 C 0.61425 0.63067 0.48431 0.0
C362 C 0.66494 0.59261 0.42024 0.0
C363 C 0.6857 0.61515 0.46117 0.0
H364 H 0.87549 0.09951 0.04273 0.0
H365 H 0.86403 0.2327 0.94053 0.0
H366 H 0.89776 0.2097 0.86636 0.0
H367 H 0.93456 0.15244 0.83281 0.0
H368 H 0.94995 0.02075 0.9385 0.0
H369 H 0.91142 0.04265 0.00938 0.0
C370 C 0.8807 0.12372 1.00456 0.0
C371 C 0.86735 0.1679 0.99768 0.0
C372 C 0.90112 0.11054 0.96271 0.0
C373 C 0.87345 0.19839 0.94697 0.0
C374 C 0.89308 0.18533 0.90461 0.0
C375 C 0.929 0.12853 0.87111 0.0
C376 C 0.94512 0.08509 0.88055 0.0
C377 C 0.90749 0.14159 0.91227 0.0
C378 C 0.93815 0.05447 0.93059 0.0
C379 C 0.91607 0.06695 0.97105 0.0
H380 H 0.45228 0.34578 0.37525 0.0
H381 H 0.31901 0.38402 0.29682 0.0
H382 H 0.34557 0.42832 0.21182 0.0
H383 H 0.40749 0.46182 0.16487 0.0
H384 H 0.54031 0.4181 0.23902 0.0
H385 H 0.51349 0.37173 0.32191 0.0
C386 C 0.42913 0.36299 0.33879 0.0
C387 C 0.38383 0.36161 0.34186 0.0
C388 C 0.44466 0.3882 0.29013 0.0
C389 C 0.35398 0.38421 0.29484 0.0
C390 C 0.36921 0.40988 0.2466 0.0
C391 C 0.43038 0.44088 0.19788 0.0
C392 C 0.47571 0.44304 0.19493 0.0
C393 C 0.41455 0.41286 0.24435 0.0
C394 C 0.50519 0.41727 0.23998 0.0
C395 C 0.48988 0.39048 0.28734 0.0
H396 H 0.13699 0.84418 0.86898 0.0
H397 H 0.19781 0.96116 0.91207 0.0
H398 H 0.16342 1.00553 0.81862 0.0
H399 H 0.11518 0.01067 0.72488 0.0
H400 H 0.04901 0.8941 0.68734 0.0
H401 H 0.08677 0.84978 0.77747 0.0
C402 C 0.14291 0.87933 0.85739 0.0
C403 C 0.17014 0.89954 0.8964 0.0
C404 C 0.12215 0.90458 0.80455 0.0
C405 C 0.17716 0.94513 0.88202 0.0
C406 C 0.15745 0.97039 0.82883 0.0
C407 C 0.10883 0.97564 0.73672 0.0
C408 C 0.0799 0.95558 0.69887 0.0
C409 C 0.12964 0.95049 0.78983 0.0
C410 C 0.07202 0.91016 0.71485 0.0
C411 C 0.09332 0.8848 0.76671 0.0
loop_
_geom_bond_atom_site_label_1
_geom_bond_atom_site_label_2
_geom_bond_distance
_geom_bond_site_symmetry_2
_ccdc_geom_bond_type
H0 C7 0.929 . S
H1 C10 0.930 . S
H2 C12 0.929 . S
H3 C4 0.969 . S
C4 H3 0.969 . S
C4 O5 1.550 . S
C4 H6 0.973 . S
O5 C4 1.550 . S
O5 C11 1.412 . S
H6 C4 0.973 . S
C7 H0 0.929 . S
C7 C8 1.400 1_554 S
C7 C9 1.364 . S
C8 C7 1.400 1_556 S
C8 C12 1.377 . S
C9 C7 1.364 . S
C9 C10 1.374 . S
C10 H1 0.930 . S
C10 C9 1.374 . S
C10 C11 1.383 . S
C11 O5 1.412 . S
C11 C10 1.383 . S
C11 C12 1.394 1_554 S
C12 H2 0.929 . S
C12 C8 1.377 . S
C12 C11 1.394 1_556 S
H13 C20 0.929 . S
H14 C23 0.930 . S
H15 C25 0.929 . S
H16 C17 0.969 . S
C17 H16 0.969 . S
C17 O18 1.550 . S
C17 H19 0.973 . S
O18 C17 1.550 . S
O18 C24 1.412 . S
H19 C17 0.973 . S
C20 H13 0.929 . S
C20 C21 1.400 . S
C20 C22 1.364 . S
C21 C20 1.400 . S
C21 C25 1.377 . S
C22 C20 1.364 . S
C22 C23 1.374 . S
C23 H14 0.930 . S
C23 C22 1.374 . S
C23 C24 1.383 . S
C24 O18 1.412 . S
C24 C23 1.383 . S
C24 C25 1.394 . S
C25 H15 0.929 . S
C25 C21 1.377 . S
C25 C24 1.394 . S
H26 C33 0.929 . S
H27 C36 0.930 1_556 S
H28 C38 0.929 . S
H29 C30 0.969 . S
C30 H29 0.969 . S
C30 O31 1.550 . S
C30 H32 0.957 1_554 S
O31 C30 1.550 . S
O31 C37 1.412 . S
H32 C30 0.957 1_556 S
C33 H26 0.929 . S
C33 C34 1.400 . S
C33 C35 1.364 . S
C34 C33 1.400 . S
C34 C38 1.377 . S
C35 C33 1.364 . S
C35 C36 1.374 . S
C36 H27 0.930 1_554 S
C36 C35 1.374 . S
C36 C37 1.383 . S
C37 O31 1.412 . S
C37 C36 1.383 . S
C37 C38 1.394 . S
C38 H28 0.929 . S
C38 C34 1.377 . S
C38 C37 1.394 . S
H39 C46 0.929 . S
H40 C49 0.930 . S
H41 C51 0.929 . S
H42 C43 0.969 . S
C43 H42 0.969 . S
C43 O44 1.550 . S
C43 H45 0.973 . S
O44 C43 1.550 . S
O44 C50 1.412 . S
H45 C43 0.973 . S
C46 H39 0.929 . S
C46 C47 1.400 . S
C46 C48 1.364 . S
C47 C46 1.400 . S
C47 C51 1.377 . S
C48 C46 1.364 . S
C48 C49 1.374 . S
C49 H40 0.930 . S
C49 C48 1.374 . S
C49 C50 1.383 . S
C50 O44 1.412 . S
C50 C49 1.383 . S
C50 C51 1.394 . S
C51 H41 0.929 . S
C51 C47 1.377 . S
C51 C50 1.394 . S
Eu52 N81 2.600 . S
Eu52 N87 2.562 . S
Eu52 O96 2.462 . S
Eu52 O97 2.373 . S
Eu52 O99 2.432 . S
Eu52 O100 2.291 1_565 S
Eu52 O104 2.335 1_465 S
Eu52 O107 2.372 1_455 S
Eu52 C116 2.787 . S
C53 N54 1.365 . S
C53 C56 1.405 . S
C53 C60 1.448 . S
N54 C53 1.365 . S
N54 C57 1.319 1_655 S
N54 Eu63 2.600 . S
C55 C57 1.397 . S
C55 C58 1.367 1_455 S
C55 H75 0.931 . S
C56 C53 1.405 . S
C56 C58 1.403 . S
C56 C62 1.439 . S
C57 N54 1.319 1_455 S
C57 C55 1.397 . S
C57 H68 0.930 . S
C58 C55 1.367 1_655 S
C58 C56 1.403 . S
C58 H79 0.929 . S
C59 C60 1.430 . S
C59 C61 1.387 . S
C59 C65 1.404 . S
C60 C53 1.448 . S
C60 C59 1.430 . S
C60 N64 1.351 . S
C61 C59 1.387 . S
C61 C62 1.374 . S
C61 H76 0.931 . S
C62 C56 1.439 . S
C62 C61 1.374 . S
C62 H77 0.931 . S
Eu63 N54 2.600 . S
Eu63 N64 2.562 . S
Eu63 O98 2.335 1_655 S
Eu63 O101 2.372 1_655 S
Eu63 O102 2.462 . S
Eu63 O103 2.373 . S
Eu63 O105 2.432 . S
Eu63 O106 2.291 1_545 S
Eu63 C127 2.787 . S
N64 C60 1.351 . S
N64 Eu63 2.562 . S
N64 C66 1.325 . S
C65 C59 1.404 . S
C65 C67 1.366 . S
C65 H73 0.930 . S
C66 N64 1.325 . S
C66 C67 1.416 . S
C66 H72 0.929 . S
C67 C65 1.366 . S
C67 C66 1.416 . S
C67 H69 0.930 . S
H68 C57 0.930 . S
H69 C67 0.930 . S
H70 C85 0.930 1_655 S
H71 C92 0.930 . S
H72 C66 0.929 . S
H73 C65 0.930 . S
H74 C88 0.929 . S
H75 C55 0.931 . S
H76 C61 0.931 . S
H77 C62 0.931 . S
H78 C83 0.931 1_655 S
H79 C58 0.929 . S
H80 C91 0.930 . S
N81 Eu52 2.600 . S
N81 C82 1.365 . S
N81 C85 1.319 . S
C82 N81 1.365 . S
C82 C84 1.405 . S
C82 C90 1.448 . S
C83 H78 0.931 1_455 S
C83 C85 1.397 . S
C83 C86 1.367 . S
C84 C82 1.405 . S
C84 C86 1.403 . S
C84 C117 1.439 . S
C85 H70 0.930 1_455 S
C85 N81 1.319 . S
C85 C83 1.397 . S
C86 C83 1.367 . S
C86 C84 1.403 . S
C86 H93 0.929 . S
N87 Eu52 2.562 . S
N87 C88 1.325 . S
N87 C90 1.351 . S
C88 H74 0.929 . S
C88 N87 1.325 . S
C88 C92 1.416 . S
C89 C90 1.430 . S
C89 C91 1.404 . S
C89 C118 1.387 . S
C90 C82 1.448 . S
C90 N87 1.351 . S
C90 C89 1.430 . S
C91 H80 0.930 . S
C91 C89 1.404 . S
C91 C92 1.366 . S
C92 H71 0.930 . S
C92 C88 1.416 . S
C92 C91 1.366 . S
H93 C86 0.929 . S
H94 C117 0.931 . S
H95 C118 0.931 . S
O96 Eu52 2.462 . S
O96 C116 1.252 . S
O97 Eu52 2.373 . S
O97 C108 1.249 . S
O98 Eu63 2.335 1_455 S
O98 C108 1.264 1_545 S
O99 Eu52 2.432 . S
O99 C116 1.268 . S
O100 Eu52 2.291 1_545 S
O100 C115 1.255 . S
O101 Eu63 2.372 1_455 S
O101 C115 1.257 . S
O102 Eu63 2.462 . S
O102 C127 1.252 . S
O103 Eu63 2.373 . S
O103 C119 1.249 . S
O104 Eu52 2.335 1_645 S
O104 C119 1.264 . S
O105 Eu63 2.432 . S
O105 C127 1.268 . S
O106 Eu63 2.291 1_565 S
O106 C126 1.255 . S
O107 Eu52 2.372 1_655 S
O107 C126 1.257 . S
C108 O97 1.249 . S
C108 O98 1.264 1_565 S
C109 C112 1.382 . S
C109 C114 1.390 . S
C109 C116 1.506 . S
C110 C111 1.398 . S
C110 C114 1.392 . S
C111 C110 1.398 . S
C111 C113 1.372 . S
C111 H128 0.931 . S
C112 C109 1.382 . S
C112 C113 1.390 . S
C112 H129 0.931 . S
C113 C111 1.372 . S
C113 C112 1.390 . S
C113 H130 0.929 . S
C114 C109 1.390 . S
C114 C110 1.392 . S
C114 H131 0.930 . S
C115 O100 1.255 . S
C115 O101 1.257 . S
C116 Eu52 2.787 . S
C116 O96 1.252 . S
C116 O99 1.268 . S
C116 C109 1.506 . S
C117 C84 1.439 . S
C117 H94 0.931 . S
C117 C118 1.374 . S
C118 C89 1.387 . S
C118 H95 0.931 . S
C118 C117 1.374 . S
C119 O103 1.249 . S
C119 O104 1.264 . S
C120 C123 1.382 . S
C120 C124 1.390 . S
C120 C127 1.506 . S
C121 C122 1.398 . S
C121 C124 1.392 . S
C122 C121 1.398 . S
C122 C125 1.372 . S
C122 H132 0.931 . S
C123 C120 1.382 . S
C123 C125 1.390 . S
C123 H133 0.931 . S
C124 C120 1.390 . S
C124 C121 1.392 . S
C124 H134 0.930 . S
C125 C122 1.372 . S
C125 C123 1.390 . S
C125 H135 0.929 . S
C126 O106 1.255 . S
C126 O107 1.257 . S
C127 Eu63 2.787 . S
C127 O102 1.252 . S
C127 O105 1.268 . S
C127 C120 1.506 . S
H128 C111 0.931 . S
H129 C112 0.931 . S
H130 C113 0.929 . S
H131 C114 0.930 . S
H132 C122 0.931 . S
H133 C123 0.931 . S
H134 C124 0.930 . S
H135 C125 0.929 . S
Eu136 N165 2.600 . S
Eu136 N171 2.562 1_556 S
Eu136 O180 2.462 . S
Eu136 O181 2.373 1_556 S
Eu136 O183 2.432 . S
Eu136 O184 2.291 1_556 S
Eu136 O188 2.335 . S
Eu136 O191 2.372 1_556 S
Eu136 C200 2.787 . S
C137 N138 1.365 . S
C137 C140 1.405 . S
C137 C144 1.448 . S
N138 C137 1.365 . S
N138 C141 1.319 . S
N138 Eu147 2.600 . S
C139 C141 1.397 . S
C139 C142 1.367 . S
C139 H159 0.931 . S
C140 C137 1.405 . S
C140 C142 1.403 . S
C140 C146 1.439 . S
C141 N138 1.319 . S
C141 C139 1.397 . S
C141 H152 0.930 . S
C142 C139 1.367 . S
C142 C140 1.403 . S
C142 H163 0.929 . S
C143 C144 1.430 . S
C143 C145 1.387 . S
C143 C149 1.404 . S
C144 C137 1.448 . S
C144 C143 1.430 . S
C144 N148 1.351 . S
C145 C143 1.387 . S
C145 C146 1.374 . S
C145 H160 0.931 . S
C146 C140 1.439 . S
C146 C145 1.374 . S
C146 H161 0.931 . S
Eu147 N138 2.600 . S
Eu147 N148 2.562 . S
Eu147 O182 2.335 . S
Eu147 O185 2.372 . S
Eu147 O186 2.462 . S
Eu147 O187 2.373 . S
Eu147 O189 2.432 . S
Eu147 O190 2.291 . S
Eu147 C211 2.787 . S
N148 C144 1.351 . S
N148 Eu147 2.562 . S
N148 C150 1.325 . S
C149 C143 1.404 . S
C149 C151 1.366 . S
C149 H157 0.930 . S
C150 N148 1.325 . S
C150 C151 1.416 . S
C150 H156 0.929 . S
C151 C149 1.366 . S
C151 C150 1.416 . S
C151 H153 0.930 . S
H152 C141 0.930 . S
H153 C151 0.930 . S
H154 C169 0.930 . S
H155 C176 0.930 . S
H156 C150 0.929 . S
H157 C149 0.930 . S
H158 C172 0.929 . S
H159 C139 0.931 . S
H160 C145 0.931 . S
H161 C146 0.931 . S
H162 C167 0.931 . S
H163 C142 0.929 . S
H164 C175 0.930 . S
N165 Eu136 2.600 . S
N165 C166 1.365 1_556 S
N165 C169 1.319 . S
C166 N165 1.365 1_554 S
C166 C168 1.405 . S
C166 C174 1.448 . S
C167 H162 0.931 . S
C167 C169 1.397 . S
C167 C170 1.367 1_556 S
C168 C166 1.405 . S
C168 C170 1.403 . S
C168 C201 1.439 . S
C169 H154 0.930 . S
C169 N165 1.319 . S
C169 C167 1.397 . S
C170 C167 1.367 1_554 S
C170 C168 1.403 . S
C170 H177 0.929 . S
N171 Eu136 2.562 1_554 S
N171 C172 1.325 . S
N171 C174 1.351 . S
C172 H158 0.929 . S
C172 N171 1.325 . S
C172 C176 1.416 . S
C173 C174 1.430 . S
C173 C175 1.404 . S
C173 C202 1.387 . S
C174 C166 1.448 . S
C174 N171 1.351 . S
C174 C173 1.430 . S
C175 H164 0.930 . S
C175 C173 1.404 . S
C175 C176 1.366 . S
C176 H155 0.930 . S
C176 C172 1.416 . S
C176 C175 1.366 . S
H177 C170 0.929 . S
H178 C201 0.931 . S
H179 C202 0.931 . S
O180 Eu136 2.462 . S
O180 C200 1.252 . S
O181 Eu136 2.373 1_554 S
O181 C192 1.249 . S
O182 Eu147 2.335 . S
O182 C192 1.264 . S
O183 Eu136 2.432 . S
O183 C200 1.268 . S
O184 Eu136 2.291 1_554 S
O184 C199 1.255 . S
O185 Eu147 2.372 . S
O185 C199 1.257 . S
O186 Eu147 2.462 . S
O186 C211 1.252 . S
O187 Eu147 2.373 . S
O187 C203 1.249 1_554 S
O188 Eu136 2.335 . S
O188 C203 1.264 . S
O189 Eu147 2.432 . S
O189 C211 1.268 . S
O190 Eu147 2.291 . S
O190 C210 1.255 . S
O191 Eu136 2.372 1_554 S
O191 C210 1.257 . S
C192 O181 1.249 . S
C192 O182 1.264 . S
C193 C196 1.382 . S
C193 C198 1.390 . S
C193 C200 1.506 . S
C194 C195 1.398 . S
C194 C198 1.392 . S
C195 C194 1.398 . S
C195 C197 1.372 . S
C195 H212 0.931 . S
C196 C193 1.382 . S
C196 C197 1.390 . S
C196 H213 0.931 . S
C197 C195 1.372 . S
C197 C196 1.390 . S
C197 H214 0.929 . S
C198 C193 1.390 . S
C198 C194 1.392 . S
C198 H215 0.930 . S
C199 O184 1.255 . S
C199 O185 1.257 . S
C200 Eu136 2.787 . S
C200 O180 1.252 . S
C200 O183 1.268 . S
C200 C193 1.506 . S
C201 C168 1.439 . S
C201 H178 0.931 . S
C201 C202 1.374 . S
C202 C173 1.387 . S
C202 H179 0.931 . S
C202 C201 1.374 . S
C203 O187 1.249 1_556 S
C203 O188 1.264 . S
C204 C207 1.382 . S
C204 C208 1.390 . S
C204 C211 1.506 . S
C205 C206 1.398 . S
C205 C208 1.392 . S
C206 C205 1.398 . S
C206 C209 1.372 . S
C206 H216 0.931 . S
C207 C204 1.382 . S
C207 C209 1.390 . S
C207 H217 0.931 . S
C208 C204 1.390 . S
C208 C205 1.392 . S
C208 H218 0.930 . S
C209 C206 1.372 . S
C209 C207 1.390 . S
C209 H219 0.929 . S
C210 O190 1.255 . S
C210 O191 1.257 . S
C211 Eu147 2.787 . S
C211 O186 1.252 . S
C211 O189 1.268 . S
C211 C204 1.506 . S
H212 C195 0.931 . S
H213 C196 0.931 . S
H214 C197 0.929 . S
H215 C198 0.930 . S
H216 C206 0.931 . S
H217 C207 0.931 . S
H218 C208 0.930 . S
H219 C209 0.929 . S
H220 C226 0.930 . S
H221 C229 0.930 . S
H222 C230 0.930 . S
H223 C231 0.930 . S
H224 C234 0.930 . S
H225 C235 0.930 . S
C226 H220 0.930 . S
C226 C227 1.355 . S
C226 C228 1.415 . S
C227 C226 1.355 . S
C227 C229 1.419 . S
C228 C226 1.415 . S
C228 C233 1.425 . S
C228 C235 1.409 . S
C229 H221 0.930 . S
C229 C227 1.419 . S
C229 C230 1.362 . S
C230 H222 0.930 . S
C230 C229 1.362 . S
C230 C233 1.409 . S
C231 H223 0.930 . S
C231 C232 1.355 . S
C231 C233 1.415 . S
C232 C231 1.355 . S
C232 C234 1.419 . S
C233 C228 1.425 . S
C233 C230 1.409 . S
C233 C231 1.415 . S
C234 H224 0.930 . S
C234 C232 1.419 . S
C234 C235 1.362 . S
C235 H225 0.930 . S
C235 C228 1.409 . S
C235 C234 1.362 . S
H236 C242 0.930 . S
H237 C245 0.930 . S
H238 C246 0.930 1_556 S
H239 C247 0.930 . S
H240 C250 0.930 . S
H241 C251 0.930 . S
C242 H236 0.930 . S
C242 C243 1.355 . S
C242 C244 1.415 . S
C243 C242 1.355 . S
C243 C245 1.419 . S
C244 C242 1.415 . S
C244 C249 1.425 . S
C244 C251 1.409 . S
C245 H237 0.930 . S
C245 C243 1.419 . S
C245 C246 1.362 . S
C246 H238 0.930 1_554 S
C246 C245 1.362 . S
C246 C249 1.409 . S
C247 H239 0.930 . S
C247 C248 1.355 . S
C247 C249 1.415 . S
C248 C247 1.355 . S
C248 C250 1.419 . S
C249 C244 1.425 . S
C249 C246 1.409 . S
C249 C247 1.415 . S
C250 H240 0.930 . S
C250 C248 1.419 . S
C250 C251 1.362 . S
C251 H241 0.930 . S
C251 C244 1.409 . S
C251 C250 1.362 . S
H252 C258 0.930 . S
H253 C261 0.930 . S
H254 C262 0.930 . S
H255 C263 0.930 . S
H256 C266 0.930 . S
H257 C267 0.930 . S
C258 H252 0.930 . S
C258 C259 1.355 . S
C258 C260 1.415 . S
C259 C258 1.355 . S
C259 C261 1.419 . S
C260 C258 1.415 . S
C260 C265 1.425 . S
C260 C267 1.409 . S
C261 H253 0.930 . S
C261 C259 1.419 . S
C261 C262 1.362 . S
C262 H254 0.930 . S
C262 C261 1.362 . S
C262 C265 1.409 . S
C263 H255 0.930 . S
C263 C264 1.355 . S
C263 C265 1.415 . S
C264 C263 1.355 . S
C264 C266 1.419 . S
C265 C260 1.425 . S
C265 C262 1.409 . S
C265 C263 1.415 . S
C266 H256 0.930 . S
C266 C264 1.419 . S
C266 C267 1.362 . S
C267 H257 0.930 . S
C267 C260 1.409 . S
C267 C266 1.362 . S
H268 C274 0.930 . S
H269 C277 0.930 1_556 S
H270 C278 0.930 1_556 S
H271 C279 0.921 1_556 S
H272 C282 0.930 . S
H273 C283 0.930 . S
C274 H268 0.930 . S
C274 C275 1.355 . S
C274 C276 1.415 . S
C275 C274 1.355 . S
C275 C277 1.419 . S
C276 C274 1.415 . S
C276 C281 1.425 . S
C276 C283 1.409 . S
C277 H269 0.930 1_554 S
C277 C275 1.419 . S
C277 C278 1.362 . S
C278 H270 0.930 1_554 S
C278 C277 1.362 . S
C278 C281 1.409 . S
C279 H271 0.921 1_554 S
C279 C280 1.355 . S
C279 C281 1.415 . S
C280 C279 1.355 . S
C280 C282 1.419 . S
C281 C276 1.425 . S
C281 C278 1.409 . S
C281 C279 1.415 . S
C282 H272 0.930 . S
C282 C280 1.419 . S
C282 C283 1.362 . S
C283 H273 0.930 . S
C283 C276 1.409 . S
C283 C282 1.362 . S
H284 C290 0.930 . S
H285 C293 0.930 . S
H286 C294 0.930 . S
H287 C295 0.930 . S
H288 C298 0.930 . S
H289 C299 0.930 . S
C290 H284 0.930 . S
C290 C291 1.355 . S
C290 C292 1.415 . S
C291 C290 1.355 . S
C291 C293 1.419 . S
C292 C290 1.415 . S
C292 C297 1.425 . S
C292 C299 1.409 . S
C293 H285 0.930 . S
C293 C291 1.419 . S
C293 C294 1.362 . S
C294 H286 0.930 . S
C294 C293 1.362 . S
C294 C297 1.409 . S
C295 H287 0.930 . S
C295 C296 1.355 . S
C295 C297 1.415 . S
C296 C295 1.355 . S
C296 C298 1.419 . S
C297 C292 1.425 . S
C297 C294 1.409 . S
C297 C295 1.415 . S
C298 H288 0.930 . S
C298 C296 1.419 . S
C298 C299 1.362 . S
C299 H289 0.930 . S
C299 C292 1.409 . S
C299 C298 1.362 . S
H300 C306 0.930 . S
H301 C309 0.930 . S
H302 C310 0.930 . S
H303 C311 0.930 . S
H304 C314 0.930 . S
H305 C315 0.930 . S
C306 H300 0.930 . S
C306 C307 1.355 . S
C306 C308 1.415 . S
C307 C306 1.355 . S
C307 C309 1.419 . S
C308 C306 1.415 . S
C308 C313 1.425 . S
C308 C315 1.409 . S
C309 H301 0.930 . S
C309 C307 1.419 . S
C309 C310 1.362 . S
C310 H302 0.930 . S
C310 C309 1.362 . S
C310 C313 1.409 . S
C311 H303 0.930 . S
C311 C312 1.355 . S
C311 C313 1.415 . S
C312 C311 1.355 . S
C312 C314 1.419 . S
C313 C308 1.425 . S
C313 C310 1.409 . S
C313 C311 1.415 . S
C314 H304 0.930 . S
C314 C312 1.419 . S
C314 C315 1.362 . S
C315 H305 0.930 . S
C315 C308 1.409 . S
C315 C314 1.362 . S
H316 C322 0.930 . S
H317 C325 0.930 . S
H318 C326 0.930 . S
H319 C327 0.930 . S
H320 C330 0.930 . S
H321 C331 0.930 . S
C322 H316 0.930 . S
C322 C323 1.355 . S
C322 C324 1.415 . S
C323 C322 1.355 . S
C323 C325 1.419 . S
C324 C322 1.415 . S
C324 C329 1.425 . S
C324 C331 1.409 . S
C325 H317 0.930 . S
C325 C323 1.419 . S
C325 C326 1.362 . S
C326 H318 0.930 . S
C326 C325 1.362 . S
C326 C329 1.409 . S
C327 H319 0.930 . S
C327 C328 1.355 . S
C327 C329 1.415 . S
C328 C327 1.355 . S
C328 C330 1.419 . S
C329 C324 1.425 . S
C329 C326 1.409 . S
C329 C327 1.415 . S
C330 H320 0.930 . S
C330 C328 1.419 . S
C330 C331 1.362 . S
C331 H321 0.930 . S
C331 C324 1.409 . S
C331 C330 1.362 . S
H332 C338 0.930 . S
H333 C341 0.930 . S
H334 C342 0.930 . S
H335 C343 0.930 . S
H336 C346 0.930 . S
H337 C347 0.930 . S
C338 H332 0.930 . S
C338 C339 1.355 . S
C338 C340 1.415 . S
C339 C338 1.355 . S
C339 C341 1.419 . S
C340 C338 1.415 . S
C340 C345 1.425 . S
C340 C347 1.409 . S
C341 H333 0.930 . S
C341 C339 1.419 . S
C341 C342 1.362 . S
C342 H334 0.930 . S
C342 C341 1.362 . S
C342 C345 1.409 . S
C343 H335 0.930 . S
C343 C344 1.355 . S
C343 C345 1.415 . S
C344 C343 1.355 . S
C344 C346 1.419 . S
C345 C340 1.425 . S
C345 C342 1.409 . S
C345 C343 1.415 . S
C346 H336 0.930 . S
C346 C344 1.419 . S
C346 C347 1.362 . S
C347 H337 0.930 . S
C347 C340 1.409 . S
C347 C346 1.362 . S
H348 C354 0.930 . S
H349 C357 0.930 . S
H350 C358 0.930 . S
H351 C359 0.930 . S
H352 C362 0.930 . S
H353 C363 0.930 . S
C354 H348 0.930 . S
C354 C355 1.355 . S
C354 C356 1.415 . S
C355 C354 1.355 . S
C355 C357 1.419 . S
C356 C354 1.415 . S
C356 C361 1.425 . S
C356 C363 1.409 . S
C357 H349 0.930 . S
C357 C355 1.419 . S
C357 C358 1.362 . S
C358 H350 0.930 . S
C358 C357 1.362 . S
C358 C361 1.409 . S
C359 H351 0.930 . S
C359 C360 1.355 . S
C359 C361 1.415 . S
C360 C359 1.355 . S
C360 C362 1.419 . S
C361 C356 1.425 . S
C361 C358 1.409 . S
C361 C359 1.415 . S
C362 H352 0.930 . S
C362 C360 1.419 . S
C362 C363 1.362 . S
C363 H353 0.930 . S
C363 C356 1.409 . S
C363 C362 1.362 . S
H364 C370 0.930 1_554 S
H365 C373 0.930 . S
H366 C374 0.930 . S
H367 C375 0.930 . S
H368 C378 0.930 1_565 S
H369 C379 0.930 . S
C370 H364 0.930 1_556 S
C370 C371 1.355 . S
C370 C372 1.415 . S
C371 C370 1.355 . S
C371 C373 1.419 . S
C372 C370 1.415 . S
C372 C377 1.425 . S
C372 C379 1.409 . S
C373 H365 0.930 . S
C373 C371 1.419 . S
C373 C374 1.362 . S
C374 H366 0.930 . S
C374 C373 1.362 . S
C374 C377 1.409 . S
C375 H367 0.930 . S
C375 C376 1.355 . S
C375 C377 1.415 . S
C376 C375 1.355 . S
C376 C378 1.419 . S
C377 C372 1.425 . S
C377 C374 1.409 . S
C377 C375 1.415 . S
C378 H368 0.930 1_545 S
C378 C376 1.419 . S
C378 C379 1.362 . S
C379 H369 0.930 . S
C379 C372 1.409 . S
C379 C378 1.362 . S
H380 C386 0.930 . S
H381 C389 0.930 . S
H382 C390 0.930 . S
H383 C391 0.930 . S
H384 C394 0.930 . S
H385 C395 0.930 . S
C386 H380 0.930 . S
C386 C387 1.355 . S
C386 C388 1.415 . S
C387 C386 1.355 . S
C387 C389 1.419 . S
C388 C386 1.415 . S
C388 C393 1.425 . S
C388 C395 1.409 . S
C389 H381 0.930 . S
C389 C387 1.419 . S
C389 C390 1.362 . S
C390 H382 0.930 . S
C390 C389 1.362 . S
C390 C393 1.409 . S
C391 H383 0.930 . S
C391 C392 1.355 . S
C391 C393 1.415 . S
C392 C391 1.355 . S
C392 C394 1.419 . S
C393 C388 1.425 . S
C393 C390 1.409 . S
C393 C391 1.415 . S
C394 H384 0.930 . S
C394 C392 1.419 . S
C394 C395 1.362 . S
C395 H385 0.930 . S
C395 C388 1.409 . S
C395 C394 1.362 . S
H396 C402 0.930 . S
H397 C405 0.930 . S
H398 C406 0.930 . S
H399 C407 0.930 . S
H400 C410 0.930 . S
H401 C411 0.930 . S
C402 H396 0.930 . S
C402 C403 1.355 . S
C402 C404 1.415 . S
C403 C402 1.355 . S
C403 C405 1.419 . S
C404 C402 1.415 . S
C404 C409 1.425 . S
C404 C411 1.409 . S
C405 H397 0.930 . S
C405 C403 1.419 . S
C405 C406 1.362 . S
C406 H398 0.930 . S
C406 C405 1.362 . S
C406 C409 1.409 . S
C407 H399 0.930 . S
C407 C408 1.355 . S
C407 C409 1.415 . S
C408 C407 1.355 . S
C408 C410 1.419 . S
C409 C404 1.425 . S
C409 C406 1.409 . S
C409 C407 1.415 . S
C410 H400 0.930 . S
C410 C408 1.419 . S
C410 C411 1.362 . S
C411 H401 0.930 . S
C411 C404 1.409 . S
C411 C410 1.362 . S
C232 C115 1.628 . S
C227 C43 1.546 . S
C243 C4 1.578 . S
C248 C210 1.641 . S
C259 C17 1.611 . S
C264 C126 1.619 . S
C275 C30 1.620 . S
C280 C199 1.622 . S
C296 C110 1.454 . S
C291 C9 1.560 . S
C312 C203 1.659 . S
C307 C21 1.641 . S
C323 C34 1.615 . S
C328 C119 1.620 . S
C339 C48 1.562 . S
C344 C194 1.452 . S
C360 C205 1.346 . S
C355 C22 1.566 . S
C376 C121 1.451 . S
C371 C35 1.569 1_556 S
C392 C192 1.662 . S
C387 C47 1.642 . S
C403 C8 1.619 . S
C408 C108 1.618 . S
