# Generated by pormake.
# Topology tbo, (3,4)-cn, num edge types: 1
# Building blocks:
#     Node 0, Type 0, BuildingBlock: BETDAH_clean_linker_0, # of connection points: 3
#     Node 1, Type 0, BuildingBlock: BETDAH_clean_linker_0, # of connection points: 3
#     Node 2, Type 0, BuildingBlock: BETDAH_clean_linker_0, # of connection points: 3
#     Node 3, Type 0, BuildingBlock: BETDAH_clean_linker_0, # of connection points: 3
#     Node 4, Type 0, BuildingBlock: BETDAH_clean_linker_0, # of connection points: 3
#     Node 5, Type 0, BuildingBlock: BETDAH_clean_linker_0, # of connection points: 3
#     Node 6, Type 0, BuildingBlock: BETDAH_clean_linker_0, # of connection points: 3
#     Node 7, Type 0, BuildingBlock: BETDAH_clean_linker_0, # of connection points: 3
#     Node 8, Type 0, BuildingBlock: BETDAH_clean_linker_0, # of connection points: 3
#     Node 9, Type 0, BuildingBlock: BETDAH_clean_linker_0, # of connection points: 3
#     Node 10, Type 0, BuildingBlock: BETDAH_clean_linker_0, # of connection points: 3
#     Node 11, Type 0, BuildingBlock: BETDAH_clean_linker_0, # of connection points: 3
#     Node 12, Type 0, BuildingBlock: BETDAH_clean_linker_0, # of connection points: 3
#     Node 13, Type 0, BuildingBlock: BETDAH_clean_linker_0, # of connection points: 3
#     Node 14, Type 0, BuildingBlock: BETDAH_clean_linker_0, # of connection points: 3
#     Node 15, Type 0, BuildingBlock: BETDAH_clean_linker_0, # of connection points: 3
#     Node 16, Type 0, BuildingBlock: BETDAH_clean_linker_0, # of connection points: 3
#     Node 17, Type 0, BuildingBlock: BETDAH_clean_linker_0, # of connection points: 3
#     Node 18, Type 0, BuildingBlock: BETDAH_clean_linker_0, # of connection points: 3
#     Node 19, Type 0, BuildingBlock: BETDAH_clean_linker_0, # of connection points: 3
#     Node 20, Type 0, BuildingBlock: BETDAH_clean_linker_0, # of connection points: 3
#     Node 21, Type 0, BuildingBlock: BETDAH_clean_linker_0, # of connection points: 3
#     Node 22, Type 0, BuildingBlock: BETDAH_clean_linker_0, # of connection points: 3
#     Node 23, Type 0, BuildingBlock: BETDAH_clean_linker_0, # of connection points: 3
#     Node 24, Type 0, BuildingBlock: BETDAH_clean_linker_0, # of connection points: 3
#     Node 25, Type 0, BuildingBlock: BETDAH_clean_linker_0, # of connection points: 3
#     Node 26, Type 0, BuildingBlock: BETDAH_clean_linker_0, # of connection points: 3
#     Node 27, Type 0, BuildingBlock: BETDAH_clean_linker_0, # of connection points: 3
#     Node 28, Type 0, BuildingBlock: BETDAH_clean_linker_0, # of connection points: 3
#     Node 29, Type 0, BuildingBlock: BETDAH_clean_linker_0, # of connection points: 3
#     Node 30, Type 0, BuildingBlock: BETDAH_clean_linker_0, # of connection points: 3
#     Node 31, Type 0, BuildingBlock: BETDAH_clean_linker_0, # of connection points: 3
#     Node 32, Type 1, BuildingBlock: ESEHIV_clean_sbu_0, # of connection points: 4
#     Node 33, Type 1, BuildingBlock: ESEHIV_clean_sbu_0, # of connection points: 4
#     Node 34, Type 1, BuildingBlock: ESEHIV_clean_sbu_0, # of connection points: 4
#     Node 35, Type 1, BuildingBlock: ESEHIV_clean_sbu_0, # of connection points: 4
#     Node 36, Type 1, BuildingBlock: ESEHIV_clean_sbu_0, # of connection points: 4
#     Node 37, Type 1, BuildingBlock: ESEHIV_clean_sbu_0, # of connection points: 4
#     Node 38, Type 1, BuildingBlock: ESEHIV_clean_sbu_0, # of connection points: 4
#     Node 39, Type 1, BuildingBlock: ESEHIV_clean_sbu_0, # of connection points: 4
#     Node 40, Type 1, BuildingBlock: ESEHIV_clean_sbu_0, # of connection points: 4
#     Node 41, Type 1, BuildingBlock: ESEHIV_clean_sbu_0, # of connection points: 4
#     Node 42, Type 1, BuildingBlock: ESEHIV_clean_sbu_0, # of connection points: 4
#     Node 43, Type 1, BuildingBlock: ESEHIV_clean_sbu_0, # of connection points: 4
#     Node 44, Type 1, BuildingBlock: ESEHIV_clean_sbu_0, # of connection points: 4
#     Node 45, Type 1, BuildingBlock: ESEHIV_clean_sbu_0, # of connection points: 4
#     Node 46, Type 1, BuildingBlock: ESEHIV_clean_sbu_0, # of connection points: 4
#     Node 47, Type 1, BuildingBlock: ESEHIV_clean_sbu_0, # of connection points: 4
#     Node 48, Type 1, BuildingBlock: ESEHIV_clean_sbu_0, # of connection points: 4
#     Node 49, Type 1, BuildingBlock: ESEHIV_clean_sbu_0, # of connection points: 4
#     Node 50, Type 1, BuildingBlock: ESEHIV_clean_sbu_0, # of connection points: 4
#     Node 51, Type 1, BuildingBlock: ESEHIV_clean_sbu_0, # of connection points: 4
#     Node 52, Type 1, BuildingBlock: ESEHIV_clean_sbu_0, # of connection points: 4
#     Node 53, Type 1, BuildingBlock: ESEHIV_clean_sbu_0, # of connection points: 4
#     Node 54, Type 1, BuildingBlock: ESEHIV_clean_sbu_0, # of connection points: 4
#     Node 55, Type 1, BuildingBlock: ESEHIV_clean_sbu_0, # of connection points: 4
#     Edge 56, Type (0, 1), BuildingBlock: UVAHIK_clean_linker_0, # of connection points: 2
#     Edge 57, Type (0, 1), BuildingBlock: UVAHIK_clean_linker_0, # of connection points: 2
#     Edge 58, Type (0, 1), BuildingBlock: UVAHIK_clean_linker_0, # of connection points: 2
#     Edge 59, Type (0, 1), BuildingBlock: UVAHIK_clean_linker_0, # of connection points: 2
#     Edge 60, Type (0, 1), BuildingBlock: UVAHIK_clean_linker_0, # of connection points: 2
#     Edge 61, Type (0, 1), BuildingBlock: UVAHIK_clean_linker_0, # of connection points: 2
#     Edge 62, Type (0, 1), BuildingBlock: UVAHIK_clean_linker_0, # of connection points: 2
#     Edge 63, Type (0, 1), BuildingBlock: UVAHIK_clean_linker_0, # of connection points: 2
#     Edge 64, Type (0, 1), BuildingBlock: UVAHIK_clean_linker_0, # of connection points: 2
#     Edge 65, Type (0, 1), BuildingBlock: UVAHIK_clean_linker_0, # of connection points: 2
#     Edge 66, Type (0, 1), BuildingBlock: UVAHIK_clean_linker_0, # of connection points: 2
#     Edge 67, Type (0, 1), BuildingBlock: UVAHIK_clean_linker_0, # of connection points: 2
#     Edge 68, Type (0, 1), BuildingBlock: UVAHIK_clean_linker_0, # of connection points: 2
#     Edge 69, Type (0, 1), BuildingBlock: UVAHIK_clean_linker_0, # of connection points: 2
#     Edge 70, Type (0, 1), BuildingBlock: UVAHIK_clean_linker_0, # of connection points: 2
#     Edge 71, Type (0, 1), BuildingBlock: UVAHIK_clean_linker_0, # of connection points: 2
#     Edge 72, Type (0, 1), BuildingBlock: UVAHIK_clean_linker_0, # of connection points: 2
#     Edge 73, Type (0, 1), BuildingBlock: UVAHIK_clean_linker_0, # of connection points: 2
#     Edge 74, Type (0, 1), BuildingBlock: UVAHIK_clean_linker_0, # of connection points: 2
#     Edge 75, Type (0, 1), BuildingBlock: UVAHIK_clean_linker_0, # of connection points: 2
#     Edge 76, Type (0, 1), BuildingBlock: UVAHIK_clean_linker_0, # of connection points: 2
#     Edge 77, Type (0, 1), BuildingBlock: UVAHIK_clean_linker_0, # of connection points: 2
#     Edge 78, Type (0, 1), BuildingBlock: UVAHIK_clean_linker_0, # of connection points: 2
#     Edge 79, Type (0, 1), BuildingBlock: UVAHIK_clean_linker_0, # of connection points: 2
#     Edge 80, Type (0, 1), BuildingBlock: UVAHIK_clean_linker_0, # of connection points: 2
#     Edge 81, Type (0, 1), BuildingBlock: UVAHIK_clean_linker_0, # of connection points: 2
#     Edge 82, Type (0, 1), BuildingBlock: UVAHIK_clean_linker_0, # of connection points: 2
#     Edge 83, Type (0, 1), BuildingBlock: UVAHIK_clean_linker_0, # of connection points: 2
#     Edge 84, Type (0, 1), BuildingBlock: UVAHIK_clean_linker_0, # of connection points: 2
#     Edge 85, Type (0, 1), BuildingBlock: UVAHIK_clean_linker_0, # of connection points: 2
#     Edge 86, Type (0, 1), BuildingBlock: UVAHIK_clean_linker_0, # of connection points: 2
#     Edge 87, Type (0, 1), BuildingBlock: UVAHIK_clean_linker_0, # of connection points: 2
#     Edge 88, Type (0, 1), BuildingBlock: UVAHIK_clean_linker_0, # of connection points: 2
#     Edge 89, Type (0, 1), BuildingBlock: UVAHIK_clean_linker_0, # of connection points: 2
#     Edge 90, Type (0, 1), BuildingBlock: UVAHIK_clean_linker_0, # of connection points: 2
#     Edge 91, Type (0, 1), BuildingBlock: UVAHIK_clean_linker_0, # of connection points: 2
#     Edge 92, Type (0, 1), BuildingBlock: UVAHIK_clean_linker_0, # of connection points: 2
#     Edge 93, Type (0, 1), BuildingBlock: UVAHIK_clean_linker_0, # of connection points: 2
#     Edge 94, Type (0, 1), BuildingBlock: UVAHIK_clean_linker_0, # of connection points: 2
#     Edge 95, Type (0, 1), BuildingBlock: UVAHIK_clean_linker_0, # of connection points: 2
#     Edge 96, Type (0, 1), BuildingBlock: UVAHIK_clean_linker_0, # of connection points: 2
#     Edge 97, Type (0, 1), BuildingBlock: UVAHIK_clean_linker_0, # of connection points: 2
#     Edge 98, Type (0, 1), BuildingBlock: UVAHIK_clean_linker_0, # of connection points: 2
#     Edge 99, Type (0, 1), BuildingBlock: UVAHIK_clean_linker_0, # of connection points: 2
#     Edge 100, Type (0, 1), BuildingBlock: UVAHIK_clean_linker_0, # of connection points: 2
#     Edge 101, Type (0, 1), BuildingBlock: UVAHIK_clean_linker_0, # of connection points: 2
#     Edge 102, Type (0, 1), BuildingBlock: UVAHIK_clean_linker_0, # of connection points: 2
#     Edge 103, Type (0, 1), BuildingBlock: UVAHIK_clean_linker_0, # of connection points: 2
#     Edge 104, Type (0, 1), BuildingBlock: UVAHIK_clean_linker_0, # of connection points: 2
#     Edge 105, Type (0, 1), BuildingBlock: UVAHIK_clean_linker_0, # of connection points: 2
#     Edge 106, Type (0, 1), BuildingBlock: UVAHIK_clean_linker_0, # of connection points: 2
#     Edge 107, Type (0, 1), BuildingBlock: UVAHIK_clean_linker_0, # of connection points: 2
#     Edge 108, Type (0, 1), BuildingBlock: UVAHIK_clean_linker_0, # of connection points: 2
#     Edge 109, Type (0, 1), BuildingBlock: UVAHIK_clean_linker_0, # of connection points: 2
#     Edge 110, Type (0, 1), BuildingBlock: UVAHIK_clean_linker_0, # of connection points: 2
#     Edge 111, Type (0, 1), BuildingBlock: UVAHIK_clean_linker_0, # of connection points: 2
#     Edge 112, Type (0, 1), BuildingBlock: UVAHIK_clean_linker_0, # of connection points: 2
#     Edge 113, Type (0, 1), BuildingBlock: UVAHIK_clean_linker_0, # of connection points: 2
#     Edge 114, Type (0, 1), BuildingBlock: UVAHIK_clean_linker_0, # of connection points: 2
#     Edge 115, Type (0, 1), BuildingBlock: UVAHIK_clean_linker_0, # of connection points: 2
#     Edge 116, Type (0, 1), BuildingBlock: UVAHIK_clean_linker_0, # of connection points: 2
#     Edge 117, Type (0, 1), BuildingBlock: UVAHIK_clean_linker_0, # of connection points: 2
#     Edge 118, Type (0, 1), BuildingBlock: UVAHIK_clean_linker_0, # of connection points: 2
#     Edge 119, Type (0, 1), BuildingBlock: UVAHIK_clean_linker_0, # of connection points: 2
#     Edge 120, Type (0, 1), BuildingBlock: UVAHIK_clean_linker_0, # of connection points: 2
#     Edge 121, Type (0, 1), BuildingBlock: UVAHIK_clean_linker_0, # of connection points: 2
#     Edge 122, Type (0, 1), BuildingBlock: UVAHIK_clean_linker_0, # of connection points: 2
#     Edge 123, Type (0, 1), BuildingBlock: UVAHIK_clean_linker_0, # of connection points: 2
#     Edge 124, Type (0, 1), BuildingBlock: UVAHIK_clean_linker_0, # of connection points: 2
#     Edge 125, Type (0, 1), BuildingBlock: UVAHIK_clean_linker_0, # of connection points: 2
#     Edge 126, Type (0, 1), BuildingBlock: UVAHIK_clean_linker_0, # of connection points: 2
#     Edge 127, Type (0, 1), BuildingBlock: UVAHIK_clean_linker_0, # of connection points: 2
#     Edge 128, Type (0, 1), BuildingBlock: UVAHIK_clean_linker_0, # of connection points: 2
#     Edge 129, Type (0, 1), BuildingBlock: UVAHIK_clean_linker_0, # of connection points: 2
#     Edge 130, Type (0, 1), BuildingBlock: UVAHIK_clean_linker_0, # of connection points: 2
#     Edge 131, Type (0, 1), BuildingBlock: UVAHIK_clean_linker_0, # of connection points: 2
#     Edge 132, Type (0, 1), BuildingBlock: UVAHIK_clean_linker_0, # of connection points: 2
#     Edge 133, Type (0, 1), BuildingBlock: UVAHIK_clean_linker_0, # of connection points: 2
#     Edge 134, Type (0, 1), BuildingBlock: UVAHIK_clean_linker_0, # of connection points: 2
#     Edge 135, Type (0, 1), BuildingBlock: UVAHIK_clean_linker_0, # of connection points: 2
#     Edge 136, Type (0, 1), BuildingBlock: UVAHIK_clean_linker_0, # of connection points: 2
#     Edge 137, Type (0, 1), BuildingBlock: UVAHIK_clean_linker_0, # of connection points: 2
#     Edge 138, Type (0, 1), BuildingBlock: UVAHIK_clean_linker_0, # of connection points: 2
#     Edge 139, Type (0, 1), BuildingBlock: UVAHIK_clean_linker_0, # of connection points: 2
#     Edge 140, Type (0, 1), BuildingBlock: UVAHIK_clean_linker_0, # of connection points: 2
#     Edge 141, Type (0, 1), BuildingBlock: UVAHIK_clean_linker_0, # of connection points: 2
#     Edge 142, Type (0, 1), BuildingBlock: UVAHIK_clean_linker_0, # of connection points: 2
#     Edge 143, Type (0, 1), BuildingBlock: UVAHIK_clean_linker_0, # of connection points: 2
#     Edge 144, Type (0, 1), BuildingBlock: UVAHIK_clean_linker_0, # of connection points: 2
#     Edge 145, Type (0, 1), BuildingBlock: UVAHIK_clean_linker_0, # of connection points: 2
#     Edge 146, Type (0, 1), BuildingBlock: UVAHIK_clean_linker_0, # of connection points: 2
#     Edge 147, Type (0, 1), BuildingBlock: UVAHIK_clean_linker_0, # of connection points: 2
#     Edge 148, Type (0, 1), BuildingBlock: UVAHIK_clean_linker_0, # of connection points: 2
#     Edge 149, Type (0, 1), BuildingBlock: UVAHIK_clean_linker_0, # of connection points: 2
#     Edge 150, Type (0, 1), BuildingBlock: UVAHIK_clean_linker_0, # of connection points: 2
#     Edge 151, Type (0, 1), BuildingBlock: UVAHIK_clean_linker_0, # of connection points: 2
# Relax obj value: 0.023
# Max RMSD: 0.145
# Mean RMSD: 0.109
data_MOF--net-tbo--node1-ESEHIV_clean_sbu_0--node2-BETDAH_clean_linker_0--edge1-UVAHIK_clean_linker_0
_symmetry_space_group_name_H-M    P1
_symmetry_Int_Tables_number       1
_symmetry_cell_setting            triclinic
loop_
_symmetry_equiv_pos_as_xyz
'x, y, z'
_cell_length_a     90.413267
_cell_length_b     92.31606
_cell_length_c     98.473992
_cell_angle_alpha  90.451319
_cell_angle_beta   93.127391
_cell_angle_gamma 100.36651
loop_
_atom_site_label
_atom_site_type_symbol
_atom_site_fract_x
_atom_site_fract_y
_atom_site_fract_z
_atom_type_partial_charge
H0 H 0.21642 0.1559 0.17246 0.0
H1 H 0.17862 0.15194 0.19816 0.0
H2 H 0.18241 0.18259 0.16564 0.0
C3 C 0.20598 0.15909 0.17514 0.0
C4 C 0.20057 0.17028 0.16775 0.0
C5 C 0.1982 0.15228 0.18619 0.0
C6 C 0.18494 0.15712 0.18992 0.0
C7 C 0.1794 0.16817 0.18252 0.0
C8 C 0.18712 0.17441 0.17146 0.0
N9 N 0.16571 0.17292 0.18522 0.0
C10 C 0.15829 0.17168 0.19731 0.0
H11 H 0.87734 0.19533 0.18999 0.0
H12 H 0.87422 0.2308 0.16262 0.0
H13 H 0.83882 0.19282 0.16186 0.0
C14 C 0.87116 0.20022 0.18207 0.0
C15 C 0.85725 0.19243 0.17672 0.0
C16 C 0.87735 0.2141 0.1771 0.0
C17 C 0.8696 0.22004 0.16639 0.0
C18 C 0.85573 0.21229 0.1608 0.0
C19 C 0.84963 0.19859 0.16605 0.0
N20 N 0.84757 0.21803 0.15001 0.0
C21 C 0.85312 0.23079 0.14316 0.0
H22 H 0.8855 0.82246 0.16466 0.0
H23 H 0.8803 0.85622 0.19379 0.0
H24 H 0.85207 0.84951 0.157 0.0
C25 C 0.87977 0.83113 0.16789 0.0
C26 C 0.86827 0.83503 0.15925 0.0
C27 C 0.8843 0.83868 0.18041 0.0
C28 C 0.87708 0.85038 0.1842 0.0
C29 C 0.86543 0.85425 0.17567 0.0
C30 C 0.86118 0.84653 0.16337 0.0
N31 N 0.85739 0.86564 0.17888 0.0
C32 C 0.85983 0.87534 0.19003 0.0
H33 H 0.15567 0.83125 0.18241 0.0
H34 H 0.20051 0.84221 0.16847 0.0
H35 H 0.17201 0.80152 0.15549 0.0
C36 C 0.16444 0.82869 0.17621 0.0
C37 C 0.16215 0.81529 0.16885 0.0
C38 C 0.17828 0.83844 0.17625 0.0
C39 C 0.1898 0.83475 0.16865 0.0
C40 C 0.18757 0.82165 0.16098 0.0
C41 C 0.17374 0.81184 0.16116 0.0
N42 N 0.19959 0.81863 0.1534 0.0
C43 C 0.19798 0.80804 0.14307 0.0
H44 H 0.1933 0.85287 0.82695 0.0
H45 H 0.18218 0.80713 0.83754 0.0
H46 H 0.22452 0.83313 0.85182 0.0
C47 C 0.19605 0.84336 0.83223 0.0
C48 C 0.21001 0.84451 0.83951 0.0
C49 C 0.18594 0.82987 0.83128 0.0
C50 C 0.18993 0.81756 0.8379 0.0
C51 C 0.20363 0.8187 0.84551 0.0
C52 C 0.21375 0.83219 0.84618 0.0
N53 N 0.20686 0.80612 0.85243 0.0
C54 C 0.21691 0.80702 0.86372 0.0
H55 H 0.25056 0.15212 0.87233 0.0
H56 H 0.21438 0.1768 0.86669 0.0
H57 H 0.22254 0.14715 0.83535 0.0
C58 C 0.24106 0.1548 0.86631 0.0
C59 C 0.23749 0.14822 0.85333 0.0
C60 C 0.23292 0.16524 0.87131 0.0
C61 C 0.22088 0.16895 0.86303 0.0
C62 C 0.21722 0.16242 0.85001 0.0
C63 C 0.22557 0.1522 0.84533 0.0
N64 N 0.20541 0.16576 0.84107 0.0
C65 C 0.19489 0.17464 0.84366 0.0
H66 H 0.88426 0.18603 0.83054 0.0
H67 H 0.87347 0.21824 0.85862 0.0
H68 H 0.83876 0.184 0.84187 0.0
C69 C 0.87626 0.19043 0.83642 0.0
C70 C 0.86112 0.18336 0.83548 0.0
C71 C 0.88092 0.20326 0.84457 0.0
C72 C 0.8701 0.20868 0.85198 0.0
C73 C 0.85487 0.20183 0.85081 0.0
C74 C 0.85048 0.18938 0.84244 0.0
N75 N 0.84369 0.20707 0.85803 0.0
C76 C 0.84694 0.21566 0.86979 0.0
H77 H 0.86356 0.82738 0.85833 0.0
H78 H 0.86395 0.86059 0.82755 0.0
H79 H 0.83377 0.85858 0.85998 0.0
C80 C 0.85935 0.83673 0.85407 0.0
C81 C 0.84807 0.84223 0.86069 0.0
C82 C 0.86537 0.84331 0.84217 0.0
C83 C 0.85945 0.85533 0.83662 0.0
C84 C 0.848 0.86081 0.8431 0.0
C85 C 0.84257 0.85428 0.85508 0.0
N86 N 0.84163 0.87297 0.83827 0.0
C87 C 0.84449 0.8809 0.8264 0.0
H88 H 0.21127 0.66455 0.66511 0.0
H89 H 0.17607 0.66737 0.69248 0.0
H90 H 0.17997 0.69374 0.65676 0.0
C91 C 0.20171 0.66927 0.66793 0.0
C92 C 0.1968 0.67998 0.65956 0.0
C93 C 0.19434 0.66453 0.67986 0.0
C94 C 0.18183 0.67077 0.68336 0.0
C95 C 0.17676 0.68141 0.675 0.0
C96 C 0.18422 0.68579 0.66322 0.0
N97 N 0.164 0.68784 0.67764 0.0
C98 C 0.15609 0.68707 0.68944 0.0
H99 H 0.87915 0.67705 0.6771 0.0
H100 H 0.87967 0.69654 0.63768 0.0
H101 H 0.84919 0.65616 0.64421 0.0
C102 C 0.87458 0.67684 0.66668 0.0
C103 C 0.86334 0.66507 0.66188 0.0
C104 C 0.88045 0.68818 0.65801 0.0
C105 C 0.87506 0.68781 0.64437 0.0
C106 C 0.86377 0.67617 0.63943 0.0
C107 C 0.85807 0.66489 0.64816 0.0
N108 N 0.85791 0.67542 0.62574 0.0
C109 C 0.85887 0.68756 0.61738 0.0
H110 H 0.89649 0.32216 0.67271 0.0
H111 H 0.89079 0.3538 0.7036 0.0
H112 H 0.86117 0.34749 0.66755 0.0
C113 C 0.89053 0.33045 0.67641 0.0
C114 C 0.8783 0.33394 0.66849 0.0
C115 C 0.89519 0.33752 0.68908 0.0
C116 C 0.88734 0.3483 0.69389 0.0
C117 C 0.87512 0.352 0.68596 0.0
C118 C 0.87074 0.34475 0.67342 0.0
N119 N 0.86666 0.36275 0.69002 0.0
C120 C 0.86928 0.37217 0.70137 0.0
H121 H 0.19963 0.36034 0.71229 0.0
H122 H 0.2303 0.34272 0.68766 0.0
H123 H 0.19723 0.3135 0.70895 0.0
C124 C 0.20353 0.35096 0.70798 0.0
C125 C 0.19684 0.33669 0.71154 0.0
C126 C 0.21571 0.35323 0.6995 0.0
C127 C 0.22092 0.34101 0.6942 0.0
C128 C 0.21414 0.32664 0.69756 0.0
C129 C 0.20236 0.32461 0.7064 0.0
N130 N 0.21896 0.314 0.69237 0.0
C131 C 0.22658 0.31391 0.68052 0.0
H132 H 0.1936 0.34877 0.34626 0.0
H133 H 0.19203 0.30683 0.36542 0.0
H134 H 0.23218 0.33946 0.37001 0.0
C135 C 0.19905 0.34132 0.35236 0.0
C136 C 0.214 0.34587 0.35762 0.0
C137 C 0.19096 0.32729 0.35517 0.0
C138 C 0.19797 0.31779 0.36333 0.0
C139 C 0.21258 0.3223 0.36899 0.0
C140 C 0.22061 0.33629 0.36607 0.0
N141 N 0.21898 0.31243 0.37746 0.0
C142 C 0.22994 0.31714 0.38776 0.0
H143 H 0.23193 0.63742 0.35313 0.0
H144 H 0.19979 0.66675 0.34964 0.0
H145 H 0.20196 0.63568 0.31749 0.0
C146 C 0.22277 0.64127 0.34754 0.0
C147 C 0.21777 0.63502 0.33464 0.0
C148 C 0.21637 0.65268 0.35316 0.0
C149 C 0.20493 0.65809 0.34547 0.0
C150 C 0.19985 0.65198 0.33253 0.0
C151 C 0.20625 0.6405 0.32732 0.0
N152 N 0.18817 0.65668 0.32437 0.0
C153 C 0.18069 0.66826 0.32706 0.0
H154 H 0.86502 0.66229 0.31526 0.0
H155 H 0.86288 0.70571 0.33045 0.0
H156 H 0.82357 0.6718 0.32953 0.0
C157 C 0.85882 0.66993 0.31979 0.0
C158 C 0.84352 0.6653 0.32207 0.0
C159 C 0.86598 0.68449 0.32278 0.0
C160 C 0.85769 0.69433 0.3284 0.0
C161 C 0.84256 0.68968 0.33112 0.0
C162 C 0.83544 0.67519 0.32789 0.0
N163 N 0.83431 0.70005 0.33605 0.0
C164 C 0.82844 0.69889 0.3488 0.0
H165 H 0.86169 0.31056 0.36868 0.0
H166 H 0.86784 0.33817 0.33367 0.0
H167 H 0.83502 0.34442 0.36207 0.0
C168 C 0.85866 0.31935 0.3625 0.0
C169 C 0.84737 0.32686 0.36671 0.0
C170 C 0.8664 0.32347 0.35071 0.0
C171 C 0.86234 0.33504 0.34298 0.0
C172 C 0.85109 0.34262 0.34691 0.0
C173 C 0.8437 0.33863 0.35892 0.0
N174 N 0.84769 0.35405 0.3383 0.0
C175 C 0.83717 0.36316 0.34008 0.0
H176 H 0.72222 0.15986 0.65677 0.0
H177 H 0.68649 0.15649 0.68463 0.0
H178 H 0.68754 0.18588 0.65107 0.0
C179 C 0.71197 0.16305 0.65994 0.0
C180 C 0.70587 0.17375 0.6525 0.0
C181 C 0.70508 0.15654 0.67151 0.0
C182 C 0.69214 0.16146 0.67595 0.0
C183 C 0.68596 0.17219 0.66858 0.0
C184 C 0.69276 0.17804 0.6569 0.0
N185 N 0.67223 0.17662 0.67173 0.0
C186 C 0.66612 0.17682 0.68442 0.0
H187 H 0.38198 0.18743 0.70622 0.0
H188 H 0.36855 0.22282 0.68314 0.0
H189 H 0.33722 0.18253 0.68753 0.0
C190 C 0.37349 0.19194 0.70028 0.0
C191 C 0.35924 0.18321 0.69747 0.0
C192 C 0.377 0.20629 0.69519 0.0
C193 C 0.36609 0.21174 0.68697 0.0
C194 C 0.35175 0.20311 0.68421 0.0
C195 C 0.34837 0.18902 0.6896 0.0
N196 N 0.34035 0.2084 0.67629 0.0
C197 C 0.34336 0.21862 0.66609 0.0
H198 H 0.3903 0.80836 0.67862 0.0
H199 H 0.39363 0.84622 0.70549 0.0
H200 H 0.36659 0.84326 0.6679 0.0
C201 C 0.38724 0.81885 0.68111 0.0
C202 C 0.37759 0.82479 0.67196 0.0
C203 C 0.39341 0.82658 0.69314 0.0
C204 C 0.38893 0.84008 0.69636 0.0
C205 C 0.37916 0.84607 0.68722 0.0
C206 C 0.37386 0.83848 0.67502 0.0
N207 N 0.37514 0.86013 0.6892 0.0
C208 C 0.37499 0.86779 0.70144 0.0
H209 H 0.67234 0.8437 0.70215 0.0
H210 H 0.69372 0.83533 0.66562 0.0
H211 H 0.6573 0.80325 0.6797 0.0
C212 C 0.67324 0.83662 0.6935 0.0
C213 C 0.66348 0.82308 0.69196 0.0
C214 C 0.68433 0.84102 0.68421 0.0
C215 C 0.68522 0.83193 0.67285 0.0
C216 C 0.67541 0.81822 0.67124 0.0
C217 C 0.66477 0.81382 0.68093 0.0
N218 N 0.67596 0.80836 0.66023 0.0
C219 C 0.68443 0.81157 0.64893 0.0
H220 H 0.67577 0.87348 0.3354 0.0
H221 H 0.67682 0.8303 0.35114 0.0
H222 H 0.71678 0.86355 0.35426 0.0
C223 C 0.68184 0.8658 0.34053 0.0
C224 C 0.69716 0.87021 0.34453 0.0
C225 C 0.67436 0.85145 0.34296 0.0
C226 C 0.68238 0.8415 0.34939 0.0
C227 C 0.69755 0.8458 0.35364 0.0
C228 C 0.70496 0.8602 0.35118 0.0
N229 N 0.70508 0.83528 0.36007 0.0
C230 C 0.71763 0.83896 0.36903 0.0
H231 H 0.73664 0.14236 0.35103 0.0
H232 H 0.70209 0.169 0.34696 0.0
H233 H 0.70703 0.13861 0.31502 0.0
C234 C 0.72714 0.14545 0.34532 0.0
C235 C 0.72272 0.13895 0.33242 0.0
C236 C 0.71979 0.15626 0.35076 0.0
C237 C 0.70789 0.16076 0.34293 0.0
C238 C 0.7034 0.15441 0.32996 0.0
C239 C 0.71081 0.14358 0.32489 0.0
N240 N 0.69154 0.15844 0.32153 0.0
C241 C 0.68216 0.16832 0.3246 0.0
H242 H 0.35852 0.15582 0.33128 0.0
H243 H 0.36357 0.20262 0.33734 0.0
H244 H 0.3256 0.17413 0.3527 0.0
C245 C 0.3543 0.16523 0.33512 0.0
C246 C 0.34074 0.16309 0.34186 0.0
C247 C 0.36261 0.1794 0.33338 0.0
C248 C 0.35743 0.19157 0.33874 0.0
C249 C 0.34441 0.18962 0.34606 0.0
C250 C 0.33604 0.17541 0.34759 0.0
N251 N 0.33966 0.20221 0.35136 0.0
C252 C 0.33468 0.20275 0.3644 0.0
H253 H 0.35498 0.82022 0.36882 0.0
H254 H 0.35772 0.85717 0.3419 0.0
H255 H 0.33133 0.85549 0.37698 0.0
C256 C 0.35159 0.83048 0.36588 0.0
C257 C 0.34211 0.83669 0.3742 0.0
C258 C 0.3574 0.83772 0.35421 0.0
C259 C 0.3533 0.85137 0.35074 0.0
C260 C 0.34388 0.85774 0.35902 0.0
C261 C 0.33854 0.85043 0.3707 0.0
N262 N 0.34055 0.87204 0.35676 0.0
C263 C 0.33778 0.87825 0.34422 0.0
H264 H 0.70063 0.65955 0.171 0.0
H265 H 0.66561 0.66287 0.19843 0.0
H266 H 0.67397 0.69355 0.16615 0.0
C267 C 0.69156 0.66482 0.17412 0.0
C268 C 0.68843 0.67727 0.16707 0.0
C269 C 0.68341 0.65943 0.18548 0.0
C270 C 0.67202 0.66683 0.18981 0.0
C271 C 0.6688 0.67924 0.18284 0.0
C272 C 0.67691 0.68419 0.17156 0.0
N273 N 0.65765 0.68736 0.18665 0.0
C274 C 0.6475 0.68433 0.19686 0.0
H275 H 0.37251 0.68275 0.19875 0.0
H276 H 0.35725 0.70661 0.16513 0.0
H277 H 0.33189 0.66442 0.1751 0.0
C278 C 0.36417 0.6836 0.1906 0.0
C279 C 0.35198 0.67197 0.18803 0.0
C280 C 0.36607 0.69614 0.18245 0.0
C281 C 0.35577 0.69694 0.17142 0.0
C282 C 0.34342 0.68542 0.16878 0.0
C283 C 0.34155 0.67312 0.17715 0.0
N284 N 0.33263 0.68583 0.15783 0.0
C285 C 0.33423 0.69639 0.14779 0.0
H286 H 0.39538 0.31036 0.17328 0.0
H287 H 0.39719 0.33568 0.2103 0.0
H288 H 0.36494 0.34096 0.178 0.0
C289 C 0.39146 0.31873 0.17916 0.0
C290 C 0.37948 0.32529 0.17377 0.0
C291 C 0.39804 0.32239 0.19232 0.0
C292 C 0.39229 0.33263 0.20017 0.0
C293 C 0.38045 0.33934 0.19513 0.0
C294 C 0.37409 0.33576 0.18188 0.0
N295 N 0.37504 0.34907 0.20415 0.0
C296 C 0.36636 0.35974 0.20095 0.0
H297 H 0.71246 0.33908 0.20627 0.0
H298 H 0.75536 0.33409 0.19143 0.0
H299 H 0.72286 0.29596 0.20016 0.0
C300 C 0.7202 0.33221 0.20305 0.0
C301 C 0.71589 0.31684 0.20342 0.0
C302 C 0.73464 0.33865 0.1991 0.0
C303 C 0.74439 0.32939 0.19489 0.0
C304 C 0.74014 0.31402 0.19537 0.0
C305 C 0.7261 0.30785 0.19995 0.0
N306 N 0.74974 0.30452 0.19115 0.0
C307 C 0.75774 0.30722 0.17954 0.0
H308 H 0.69408 0.36125 0.84988 0.0
H309 H 0.6837 0.33357 0.88438 0.0
H310 H 0.7227 0.36798 0.88649 0.0
C311 C 0.69668 0.35812 0.8602 0.0
C312 C 0.70936 0.36605 0.86755 0.0
C313 C 0.68728 0.34636 0.86613 0.0
C314 C 0.69088 0.34248 0.87953 0.0
C315 C 0.70369 0.35003 0.88686 0.0
C316 C 0.71286 0.36192 0.88086 0.0
N317 N 0.70693 0.34545 0.90025 0.0
C318 C 0.72056 0.35018 0.90756 0.0
H319 H 0.7502 0.64043 0.86802 0.0
H320 H 0.71305 0.66376 0.86204 0.0
H321 H 0.72202 0.63412 0.83106 0.0
C322 C 0.74073 0.6429 0.86181 0.0
C323 C 0.73732 0.63608 0.84889 0.0
C324 C 0.73209 0.65295 0.86674 0.0
C325 C 0.71969 0.65596 0.85853 0.0
C326 C 0.71614 0.64917 0.84562 0.0
C327 C 0.72499 0.63938 0.84096 0.0
N328 N 0.704 0.65193 0.83677 0.0
C329 C 0.69302 0.6602 0.83958 0.0
H330 H 0.3793 0.68125 0.80602 0.0
H331 H 0.35724 0.70482 0.83438 0.0
H332 H 0.33176 0.66858 0.81075 0.0
C333 C 0.3692 0.68291 0.8108 0.0
C334 C 0.3555 0.67355 0.80724 0.0
C335 C 0.36992 0.6944 0.82043 0.0
C336 C 0.35683 0.69603 0.82694 0.0
C337 C 0.34305 0.68672 0.82336 0.0
C338 C 0.34242 0.67579 0.81334 0.0
N339 N 0.32959 0.68812 0.82955 0.0
C340 C 0.32925 0.6927 0.84297 0.0
H341 H 0.37781 0.3187 0.86808 0.0
H342 H 0.38542 0.34633 0.8333 0.0
H343 H 0.35149 0.35278 0.86039 0.0
C344 C 0.3749 0.32746 0.86179 0.0
C345 C 0.36351 0.33508 0.86568 0.0
C346 C 0.38301 0.33142 0.85016 0.0
C347 C 0.3795 0.34318 0.8424 0.0
C348 C 0.36823 0.35091 0.84596 0.0
C349 C 0.36022 0.34685 0.85762 0.0
N350 N 0.36572 0.36279 0.8375 0.0
C351 C 0.35413 0.3709 0.83783 0.0
Cu352 Cu 0.28904 0.2592 0.02163 0.0
N353 N 0.29061 0.27609 0.01074 0.0
N354 N 0.29692 0.2902 0.99272 0.0
C355 C 0.2979 0.27746 0.99909 0.0
C356 C 0.28876 0.29722 1.00081 0.0
C357 C 0.28485 0.28848 0.01188 0.0
O358 O 0.28834 0.24309 1.00826 0.0
C359 C 0.30307 0.27269 0.04473 0.0
O360 O 0.29159 0.27939 0.04228 0.0
H361 H 0.30378 0.26915 0.99535 0.0
H362 H 0.27811 0.29094 0.02004 0.0
N363 N 0.27129 0.25492 0.03112 0.0
N364 N 0.25648 0.24552 0.04765 0.0
C365 C 0.26942 0.24535 0.04145 0.0
C366 C 0.25903 0.26133 0.03069 0.0
C367 C 0.2499 0.25558 0.04089 0.0
C368 C 0.27743 0.24287 0.99938 0.0
O369 O 0.26803 0.25197 1.0011 0.0
H370 H 0.27779 0.2389 0.04476 0.0
H371 H 0.25706 0.26987 0.02373 0.0
O372 O 0.30526 0.26291 0.03615 0.0
H373 H 0.28551 0.30774 0.99875 0.0
H374 H 0.23934 0.25871 0.04324 0.0
Cu375 Cu 0.84555 0.32401 0.02026 0.0
N376 N 0.82758 0.31936 0.02883 0.0
N377 N 0.81185 0.31612 0.04566 0.0
C378 C 0.82632 0.31961 0.04234 0.0
C379 C 0.8037 0.31346 0.0337 0.0
C380 C 0.81347 0.3155 0.0233 0.0
O381 O 0.8606 0.33146 0.03458 0.0
C382 C 0.83539 0.34772 1.00743 0.0
O383 O 0.83131 0.3504 0.01967 0.0
H384 H 0.83589 0.32222 0.04958 0.0
H385 H 0.81052 0.31443 0.0125 0.0
N386 N 0.84952 0.30665 0.01287 0.0
N387 N 0.85349 0.28982 0.99779 0.0
C388 C 0.85127 0.30375 0.99972 0.0
C389 C 0.85063 0.29419 0.01952 0.0
C390 C 0.85311 0.28377 0.01023 0.0
C391 C 0.87273 0.32642 0.03644 0.0
O392 O 0.8777 0.31976 0.02624 0.0
H393 H 0.8505 0.31159 0.99172 0.0
H394 H 0.84963 0.29281 0.03035 0.0
O395 O 0.84296 0.33755 1.00581 0.0
H396 H 0.79155 0.31057 0.03251 0.0
H397 H 0.85453 0.27264 0.0125 0.0
Cu398 Cu 0.779 0.75187 0.0148 0.0
N399 N 0.77877 0.76754 1.00262 0.0
N400 N 0.78412 0.78141 0.98427 0.0
C401 C 0.78663 0.76946 0.99128 0.0
C402 C 0.77432 0.78726 0.99152 0.0
C403 C 0.77108 0.77875 1.00281 0.0
O404 O 0.77819 0.73463 1.00277 0.0
C405 C 0.79803 0.76959 0.03338 0.0
O406 O 0.78834 0.77805 0.02974 0.0
H407 H 0.79388 0.76205 0.98815 0.0
H408 H 0.76382 0.78078 0.01069 0.0
N409 N 0.76242 0.74857 0.02595 0.0
N410 N 0.74877 0.74092 0.04377 0.0
C411 C 0.76166 0.74067 0.03747 0.0
C412 C 0.74947 0.75386 0.02487 0.0
C413 C 0.7411 0.74924 0.03586 0.0
C414 C 0.76561 0.73065 0.99602 0.0
O415 O 0.75444 0.73741 0.99857 0.0
H416 H 0.77058 0.73516 0.04135 0.0
H417 H 0.74625 0.76057 0.01668 0.0
O418 O 0.79667 0.75692 0.02763 0.0
H419 H 0.76999 0.79716 0.989 0.0
H420 H 0.73014 0.75171 0.03782 0.0
Cu421 Cu 0.2765 0.74846 1.00515 0.0
N422 N 0.25836 0.74173 0.01298 0.0
N423 N 0.24087 0.73941 0.02834 0.0
C424 C 0.25499 0.74564 0.02545 0.0
C425 C 0.23512 0.73127 0.0172 0.0
C426 C 0.24599 0.73269 1.00773 0.0
O427 O 0.29122 0.75468 0.02002 0.0
C428 C 0.28464 0.77199 0.98717 0.0
O429 O 0.29841 0.76955 0.98959 0.0
H430 H 0.26265 0.75326 0.03209 0.0
H431 H 0.24493 0.72763 0.99769 0.0
N432 N 0.28181 0.73331 0.99493 0.0
N433 N 0.28989 0.72154 0.9777 0.0
C434 C 0.28605 0.73418 0.98204 0.0
C435 C 0.28282 0.7196 0.99889 0.0
C436 C 0.2878 0.71228 0.98826 0.0
C437 C 0.30437 0.75156 0.02097 0.0
O438 O 0.3093 0.74501 0.0107 0.0
H439 H 0.28623 0.74389 0.97595 0.0
H440 H 0.28037 0.71534 1.00888 0.0
O441 O 0.2739 0.76449 0.9933 0.0
H442 H 0.22389 0.72477 0.01596 0.0
H443 H 0.29006 0.70116 0.98843 0.0
Cu444 Cu 0.02064 0.2488 0.2823 0.0
N445 N 0.02723 0.23093 0.27911 0.0
N446 N 0.04167 0.21525 0.27203 0.0
C447 C 0.04082 0.22947 0.27479 0.0
C448 C 0.02807 0.20751 0.27492 0.0
C449 C 0.01922 0.21718 0.27923 0.0
O450 O 0.03795 0.26286 0.28929 0.0
C451 C 0.01352 0.25052 0.25377 0.0
O452 O 0.02286 0.24134 0.25227 0.0
H453 H 0.04961 0.23877 0.27303 0.0
H454 H 1.0076 0.21442 0.28185 0.0
N455 N 1.00547 0.24693 0.29485 0.0
N456 N 0.98588 0.25179 0.30607 0.0
C457 C 0.99565 0.25619 0.29632 0.0
C458 C 1.00184 0.23632 0.304 0.0
C459 C 0.9898 0.23927 0.3109 0.0
C460 C 0.04333 0.26078 0.30117 0.0
O461 O 0.03661 0.24968 0.30816 0.0
H462 H 0.99555 0.26585 0.29018 0.0
H463 H 1.00759 0.22711 0.30558 0.0
O464 O 0.01187 0.25548 0.26558 0.0
H465 H 0.02459 0.1957 0.27382 0.0
H466 H 0.9845 0.23276 0.31899 0.0
Cu467 Cu 0.80221 0.02123 0.26379 0.0
N468 N 0.79985 0.0327 0.24861 0.0
N469 N 0.80313 0.05111 0.23387 0.0
C470 C 0.80825 0.04572 0.24558 0.0
C471 C 0.79119 0.04096 0.22929 0.0
C472 C 0.78922 0.02962 0.2384 0.0
O473 O 0.81717 0.03175 0.27699 0.0
C474 C 0.82121 1.00384 0.25207 0.0
O475 O 0.82962 0.01679 0.25033 0.0
H476 H 0.81785 0.05114 0.25191 0.0
H477 H 0.78052 0.01988 0.23775 0.0
N478 N 0.78399 0.01598 0.27193 0.0
N479 N 0.76641 1.0035 0.2845 0.0
C480 C 0.78092 1.00548 0.28126 0.0
C481 C 0.77104 0.02094 0.26925 0.0
C482 C 0.76011 0.01318 0.27697 0.0
C483 C 0.81605 0.04043 0.28689 0.0
O484 O 0.82805 0.04483 0.29504 0.0
H485 H 0.78902 0.99898 0.28513 0.0
H486 H 0.76957 0.02937 0.262 0.0
O487 O 0.80882 1.00326 0.25781 0.0
H488 H 0.78413 0.04184 0.22021 0.0
H489 H 0.74842 0.01439 0.2769 0.0
Cu490 Cu 0.03374 0.75945 0.26282 0.0
N491 N 0.02669 0.77718 0.25983 0.0
N492 N 1.01096 0.79209 0.25249 0.0
C493 C 0.01238 0.77821 0.25592 0.0
C494 C 0.02498 0.80011 0.25456 0.0
C495 C 0.03464 0.7909 0.25902 0.0
O496 O 0.01713 0.74545 0.2692 0.0
C497 C 0.03635 0.75641 0.23425 0.0
O498 O 0.02483 0.76325 0.233 0.0
H499 H 1.00335 0.76876 0.25509 0.0
H500 H 0.04671 0.79385 0.2609 0.0
N501 N 0.05004 0.76128 0.27575 0.0
N502 N 0.06986 0.75545 0.28783 0.0
C503 C 0.0592 0.75135 0.27767 0.0
C504 C 0.05506 0.7721 0.285 0.0
C505 C 0.06725 0.76853 0.29247 0.0
C506 C 0.01279 0.74809 0.2809 0.0
O507 O 0.02013 0.75954 0.28795 0.0
H508 H 0.05786 0.74118 0.27181 0.0
H509 H 0.05017 0.78186 0.28625 0.0
O510 O 0.04097 0.75299 0.24602 0.0
H511 H 0.02826 0.81166 0.25232 0.0
H512 H 0.07377 0.77516 0.30058 0.0
Cu513 Cu 0.2456 1.00352 0.27131 0.0
N514 N 0.24602 0.01084 0.28906 0.0
N515 N 0.2542 0.02562 0.30699 0.0
C516 C 0.25574 0.0228 0.29374 0.0
C517 C 0.24299 0.01499 0.31083 0.0
C518 C 0.23803 1.00579 0.29973 0.0
O519 O 0.24716 0.02052 0.25915 0.0
C520 C 0.25838 0.9793 0.27766 0.0
O521 O 0.24525 0.97598 0.28304 0.0
H522 H 0.26373 0.02936 0.28744 0.0
H523 H 0.2294 0.99601 0.29954 0.0
N524 N 0.22737 0.99115 0.26634 0.0
N525 N 0.21164 0.97267 0.25562 0.0
C526 C 0.22571 0.98065 0.25657 0.0
C527 C 0.21382 0.98994 0.2717 0.0
C528 C 0.20409 0.97845 0.26514 0.0
C529 C 0.23784 0.02907 0.26136 0.0
O530 O 0.22856 0.02575 0.27114 0.0
H531 H 0.23486 0.97852 0.25065 0.0
H532 H 0.21125 0.99677 0.2799 0.0
O533 O 0.26151 0.99146 0.27139 0.0
H534 H 0.23893 0.01376 0.32097 0.0
H535 H 0.19243 0.9746 0.26726 0.0
Cu536 Cu 0.0132 0.7662 0.76429 0.0
N537 N 0.02075 0.74859 0.76303 0.0
N538 N 0.03608 0.73302 0.75767 0.0
C539 C 0.03427 0.74725 0.75849 0.0
C540 C 0.02315 0.72516 0.76201 0.0
C541 C 0.01375 0.73477 0.76527 0.0
O542 O 0.03031 0.78184 0.76826 0.0
C543 C 1.00512 0.76493 0.73576 0.0
O544 O 0.01761 0.75984 0.73433 0.0
H545 H 0.04235 0.75654 0.7553 0.0
H546 H 1.00247 0.73185 0.76873 0.0
N547 N 0.99946 0.76596 0.77799 0.0
N548 N 0.98144 0.77266 0.79016 0.0
C549 C 0.9895 0.77516 0.77896 0.0
C550 C 0.99758 0.75726 0.78888 0.0
C551 C 0.98653 0.76139 0.79642 0.0
C552 C 0.03664 0.78195 0.78013 0.0
O553 O 0.03089 0.77207 0.78883 0.0
H554 H 0.98845 0.78374 0.77174 0.0
H555 H 1.00392 0.74864 0.79127 0.0
O556 O 1.00208 0.76904 0.74748 0.0
H557 H 0.02054 0.7133 0.76269 0.0
H558 H 0.98251 0.75641 0.80575 0.0
Cu559 Cu 0.31242 0.00873 0.78151 0.0
N560 N 0.31329 0.01915 0.76433 0.0
N561 N 0.31806 0.03733 0.74949 0.0
C562 C 0.32158 0.0324 0.76194 0.0
C563 C 0.30724 0.02659 0.74387 0.0
C564 C 0.30431 0.01541 0.75307 0.0
O565 O 0.30358 0.02534 0.79023 0.0
C566 C 0.33394 0.99117 0.77108 0.0
O567 O 0.34419 1.00254 0.77518 0.0
H568 H 0.32975 0.03841 0.7693 0.0
H569 H 0.29582 1.00554 0.75188 0.0
N570 N 0.31128 0.99823 0.79864 0.0
N571 N 0.30431 0.98063 0.8135 0.0
C572 C 0.30449 0.98422 0.80027 0.0
C573 C 0.31566 1.00369 0.81123 0.0
C574 C 0.31125 0.99282 0.82047 0.0
C575 C 0.31149 0.03698 0.79567 0.0
O576 O 0.32625 0.03867 0.79589 0.0
H577 H 0.29919 0.97701 0.79197 0.0
H578 H 0.32125 0.01486 0.81356 0.0
O579 O 0.32011 0.99154 0.77257 0.0
H580 H 0.30131 0.02704 0.73408 0.0
H581 H 0.3128 0.99385 0.83144 0.0
Cu582 Cu 0.0433 0.26758 0.78655 0.0
N583 N 0.03157 0.26747 0.77021 0.0
N584 N 0.0139 0.27309 0.75529 0.0
C585 C 0.02053 0.2754 0.76795 0.0
C586 C 0.02102 0.26321 0.74939 0.0
C587 C 0.03191 0.25979 0.7586 0.0
O588 O 0.02983 0.27002 0.80064 0.0
C589 C 0.06167 0.29479 0.77957 0.0
O590 O 0.04949 0.29779 0.77316 0.0
H591 H 0.01739 0.28266 0.77553 0.0
H592 H 0.03956 0.25226 0.75696 0.0
N593 N 0.05071 0.24999 0.78906 0.0
N594 N 0.06613 0.23464 0.79598 0.0
C595 C 0.06443 0.24883 0.79461 0.0
C596 C 0.04347 0.23608 0.78676 0.0
C597 C 0.05293 0.22659 0.79101 0.0
C598 C 0.02958 0.26393 0.81218 0.0
O599 O 0.04048 0.25698 0.81613 0.0
H600 H 0.0728 0.25825 0.79801 0.0
H601 H 0.03203 0.23305 0.78251 0.0
O602 O 0.06081 0.28312 0.78648 0.0
H603 H 0.01871 0.25894 0.73908 0.0
H604 H 0.05025 0.21469 0.79047 0.0
Cu605 Cu 0.77449 0.01509 0.7508 0.0
N606 N 0.77866 0.0246 0.76773 0.0
N607 N 0.78964 0.04221 0.78259 0.0
C608 C 0.78749 0.03791 0.7694 0.0
C609 C 0.78174 0.03111 0.78951 0.0
C610 C 0.77502 0.02022 0.78031 0.0
O611 O 0.77182 0.03054 0.73768 0.0
C612 C 0.79036 0.99323 0.75726 0.0
O613 O 0.77987 0.9913 0.7661 0.0
H614 H 0.79219 0.04428 0.76098 0.0
H615 H 0.76826 0.00976 0.78269 0.0
N616 N 0.7566 1.0014 0.74984 0.0
N617 N 0.74076 0.98124 0.74233 0.0
C618 C 0.75322 0.99105 0.73994 0.0
C619 C 0.74577 0.99819 0.75876 0.0
C620 C 0.73601 0.98561 0.75419 0.0
C621 C 0.76192 0.03798 0.74109 0.0
O622 O 0.75481 0.03429 0.75218 0.0
H623 H 0.76035 0.9902 0.73159 0.0
H624 H 0.74532 1.00418 0.76816 0.0
O625 O 0.79058 1.0036 0.74868 0.0
H626 H 0.78115 0.0307 0.80045 0.0
H627 H 0.72643 0.9799 0.75934 0.0
Cu628 Cu 0.2869 0.73925 0.51591 0.0
N629 N 0.30495 0.74302 0.52681 0.0
N630 N 0.32087 0.75169 0.54445 0.0
C631 C 0.30638 0.74882 0.53954 0.0
C632 C 0.32889 0.74747 0.53445 0.0
C633 C 0.31904 0.74204 0.52362 0.0
O634 O 0.2708 0.73584 0.52878 0.0
C635 C 0.29613 0.7555 0.49369 0.0
O636 O 0.30487 0.74558 0.49396 0.0
H637 H 0.29703 0.75142 0.5449 0.0
H638 H 0.32202 0.73796 0.51401 0.0
N639 N 0.28513 0.72237 0.50465 0.0
N640 N 0.27837 0.70781 0.48616 0.0
C641 C 0.27646 0.72006 0.49296 0.0
C642 C 0.29281 0.71117 0.50531 0.0
C643 C 0.2886 0.70213 0.49398 0.0
C644 C 0.27051 0.72417 0.53574 0.0
O645 O 0.28023 0.71562 0.53325 0.0
H646 H 0.26913 0.72747 0.4894 0.0
H647 H 0.30121 0.70991 0.51326 0.0
O648 O 0.28694 0.75556 0.5031 0.0
H649 H 0.34101 0.74834 0.53492 0.0
H650 H 0.29318 0.69246 0.49145 0.0
Cu651 Cu 0.77976 0.77555 0.50039 0.0
N652 N 0.77559 0.75768 0.49078 0.0
N653 N 0.77719 0.74078 0.47485 0.0
C654 C 0.78334 0.75405 0.48039 0.0
C655 C 0.765 0.73589 0.48197 0.0
C656 C 0.76407 0.74635 0.49185 0.0
O657 O 0.78586 0.79064 0.48731 0.0
C658 C 0.80748 0.77068 0.51262 0.0
O659 O 0.81063 0.76782 0.50013 0.0
H660 H 0.79301 0.76126 0.47666 0.0
H661 H 0.75547 0.74587 0.49913 0.0
N662 N 0.76244 0.77912 0.50818 0.0
N663 N 0.74716 0.78535 0.52345 0.0
C664 C 0.761 0.78246 0.52131 0.0
C665 C 0.74913 0.7799 0.50173 0.0
C666 C 0.73967 0.78371 0.51111 0.0
C667 C 0.78442 0.80398 0.48888 0.0
O668 O 0.78016 0.80833 0.50055 0.0
H669 H 0.76999 0.7828 0.52908 0.0
H670 H 0.74662 0.77811 0.49092 0.0
O671 O 0.79509 0.77476 0.51471 0.0
H672 H 0.75732 0.72555 0.48015 0.0
H673 H 0.7283 0.78553 0.5089 0.0
Cu674 Cu 0.79163 0.24685 0.51118 0.0
N675 N 0.79181 0.23085 0.49935 0.0
N676 N 0.78572 0.21639 0.48075 0.0
C677 C 0.78324 0.22836 0.48764 0.0
C678 C 0.79631 0.21113 0.48849 0.0
C679 C 0.8001 0.22012 0.49992 0.0
O680 O 0.78883 0.26253 0.4985 0.0
C681 C 0.7768 0.22962 0.53074 0.0
O682 O 0.78764 0.22243 0.52816 0.0
H683 H 0.77526 0.23521 0.48429 0.0
H684 H 0.80839 0.21897 0.50799 0.0
N685 N 0.80966 0.25206 0.5219 0.0
N686 N 0.82534 0.26122 0.5396 0.0
C687 C 0.81093 0.25843 0.53439 0.0
C688 C 0.82373 0.25069 0.51907 0.0
C689 C 0.83342 0.25635 0.52994 0.0
C690 C 0.79878 0.27395 0.49675 0.0
O691 O 0.81009 0.27746 0.50581 0.0
H692 H 0.80144 0.26123 0.53941 0.0
H693 H 0.82674 0.24602 0.50973 0.0
O694 O 0.77579 0.2412 0.52399 0.0
H695 H 0.8012 0.20165 0.48597 0.0
H696 H 0.84547 0.25673 0.53068 0.0
Cu697 Cu 0.30837 0.28269 0.5224 0.0
N698 N 0.29182 0.28602 0.53166 0.0
N699 N 0.27754 0.29023 0.54854 0.0
C700 C 0.29084 0.28691 0.54521 0.0
C701 C 0.26977 0.29126 0.53658 0.0
C702 C 0.27863 0.28865 0.52619 0.0
O703 O 0.3252 0.28218 0.53525 0.0
C704 C 0.30996 0.31018 0.50898 0.0
O705 O 0.30555 0.31511 0.52034 0.0
H706 H 0.29972 0.28516 0.55249 0.0
H707 H 0.27581 0.28897 0.51539 0.0
N708 N 0.30345 0.26457 0.51338 0.0
N709 N 0.30292 0.24752 0.49708 0.0
C710 C 0.30975 0.26083 0.50212 0.0
C711 C 0.29226 0.25326 0.51561 0.0
C712 C 0.29188 0.2427 0.50552 0.0
C713 C 0.32988 0.29232 0.54409 0.0
O714 O 0.32419 0.30445 0.54373 0.0
H715 H 0.31872 0.26805 0.49739 0.0
H716 H 0.28465 0.25292 0.52376 0.0
O717 O 0.31279 0.29719 0.50845 0.0
H718 H 0.2587 0.29414 0.5354 0.0
H719 H 0.28398 0.2324 0.50439 0.0
Cu720 Cu 0.81506 0.51771 0.77925 0.0
N721 N 0.80835 0.52912 0.76558 0.0
N722 N 0.80824 0.54602 0.74957 0.0
C723 C 0.81631 0.54098 0.75983 0.0
C724 C 0.79476 0.53693 0.74875 0.0
C725 C 0.79484 0.52651 0.75869 0.0
O726 O 0.83157 0.52931 0.79031 0.0
C727 C 0.83177 0.49435 0.77581 0.0
O728 O 0.83816 0.49885 0.78778 0.0
H729 H 0.82788 0.54562 0.76291 0.0
H730 H 0.78581 0.51751 0.76064 0.0
N731 N 0.79934 0.5106 0.79018 0.0
N732 N 0.78414 0.49534 0.80292 0.0
C733 C 0.79621 0.49698 0.79523 0.0
C734 C 0.78886 0.51782 0.79473 0.0
C735 C 0.7795 0.50844 0.80269 0.0
C736 C 0.83172 0.53948 0.79921 0.0
O737 O 0.84449 0.54475 0.80598 0.0
H738 H 0.80275 0.4885 0.7934 0.0
H739 H 0.78803 0.52906 0.79235 0.0
O740 O 0.82171 0.50097 0.77051 0.0
H741 H 0.78553 0.53778 0.74149 0.0
H742 H 0.76987 0.51094 0.80768 0.0
Cu743 Cu 0.27586 0.51693 0.75775 0.0
N744 N 0.27685 0.50581 0.77362 0.0
N745 N 0.28291 0.48885 0.78813 0.0
C746 C 0.28226 0.49313 0.77502 0.0
C747 C 0.27762 0.49924 0.79521 0.0
C748 C 0.27393 0.50964 0.78627 0.0
O749 O 0.27204 0.50356 0.74224 0.0
C750 C 0.29871 0.53788 0.74657 0.0
O751 O 0.29032 0.53555 0.73518 0.0
H752 H 0.2862 0.48747 0.76668 0.0
H753 H 0.26979 0.51954 0.78886 0.0
N754 N 0.26031 0.52808 0.75774 0.0
N755 N 0.24624 0.54511 0.75203 0.0
C756 C 0.2593 0.54023 0.75042 0.0
C757 C 0.24744 0.52519 0.76425 0.0
C758 C 0.23877 0.53564 0.76078 0.0
C759 C 0.28182 0.49669 0.73779 0.0
O760 O 0.29561 0.49932 0.74333 0.0
H761 H 0.26779 0.54516 0.74372 0.0
H762 H 0.24445 0.51598 0.77091 0.0
O763 O 0.29477 0.53046 0.757 0.0
H764 H 0.27662 0.49942 0.80611 0.0
H765 H 0.22781 0.53616 0.76444 0.0
Cu766 Cu 0.31091 0.50358 0.27654 0.0
N767 N 0.31268 0.49302 0.29246 0.0
N768 N 0.30537 0.47547 0.30748 0.0
C769 C 0.30369 0.48009 0.29459 0.0
C770 C 0.31609 0.48592 0.31362 0.0
C771 C 0.32056 0.49674 0.30435 0.0
O772 O 0.31022 0.48926 0.26146 0.0
C773 C 0.29352 0.521 0.28866 0.0
O774 O 0.30501 0.52175 0.29754 0.0
H775 H 0.29571 0.47454 0.28684 0.0
H776 H 0.32828 0.50697 0.30644 0.0
N777 N 0.32695 0.51915 0.2747 0.0
N778 N 0.33897 0.54027 0.26659 0.0
C779 C 0.32645 0.52982 0.26559 0.0
C780 C 0.34034 0.52289 0.28171 0.0
C781 C 0.34776 0.53603 0.27677 0.0
C782 C 0.32277 0.48687 0.25741 0.0
O783 O 0.3353 0.49473 0.26279 0.0
H784 H 0.31685 0.53011 0.2586 0.0
H785 H 0.34445 0.51658 0.28981 0.0
O786 O 0.29323 0.5131 0.27789 0.0
H787 H 0.3199 0.48622 0.32424 0.0
H788 H 0.35875 0.54195 0.2803 0.0
Cu789 Cu 0.75092 0.5035 0.26253 0.0
N790 N 0.74854 0.49019 0.27693 0.0
N791 N 0.75382 0.47245 0.29089 0.0
C792 C 0.75922 0.48283 0.28192 0.0
C793 C 0.73915 0.4734 0.29163 0.0
C794 C 0.73593 0.48433 0.28303 0.0
O795 O 0.75331 0.49188 0.24664 0.0
C796 C 0.77379 0.52809 0.25867 0.0
O797 O 0.76813 0.5273 0.24606 0.0
H798 H 0.77056 0.48458 0.27851 0.0
H799 H 0.72505 0.48741 0.28102 0.0
N800 N 0.73425 0.51285 0.25899 0.0
N801 N 0.72098 0.52996 0.25161 0.0
C802 C 0.73463 0.5272 0.25607 0.0
C803 C 0.71982 0.50632 0.25641 0.0
C804 C 0.71162 0.51679 0.25194 0.0
C805 C 0.7654 0.48712 0.24477 0.0
O806 O 0.77733 0.49173 0.25294 0.0
H807 H 0.74481 0.53538 0.25682 0.0
H808 H 0.71571 0.4946 0.25701 0.0
O809 O 0.76843 0.51843 0.26707 0.0
H810 H 0.73122 0.46652 0.29777 0.0
H811 H 0.69986 0.51465 0.24847 0.0
Cu812 Cu 0.53163 0.25385 0.77628 0.0
N813 N 0.51679 0.25115 0.78913 0.0
N814 N 0.49785 0.25595 0.80128 0.0
C815 C 0.50753 0.26072 0.79158 0.0
C816 C 0.50121 0.24282 0.80506 0.0
C817 C 0.51289 0.23991 0.79758 0.0
O818 O 0.5222 0.26167 0.76047 0.0
C819 C 0.55604 0.2627 0.79409 0.0
O820 O 0.5513 0.24929 0.79833 0.0
H821 H 0.50781 0.2709 0.78615 0.0
H822 H 0.51818 0.2303 0.79829 0.0
N823 N 0.53812 0.2363 0.77147 0.0
N824 N 0.55259 0.22137 0.76295 0.0
C825 C 0.55181 0.23524 0.76711 0.0
C826 C 0.52993 0.22265 0.77011 0.0
C827 C 0.53878 0.21344 0.76492 0.0
C828 C 0.52259 0.25694 0.74834 0.0
O829 O 0.53176 0.24789 0.7457 0.0
H830 H 0.56085 0.24462 0.7667 0.0
H831 H 0.51817 0.21972 0.77227 0.0
O832 O 0.54887 0.26744 0.7841 0.0
H833 H 0.49579 0.23586 0.81282 0.0
H834 H 0.53503 0.20192 0.7623 0.0
Cu835 Cu 0.5347 0.74886 0.7932 0.0
N836 N 0.54316 0.73177 0.79443 0.0
N837 N 0.55964 0.71693 0.79984 0.0
C838 C 0.55714 0.73095 0.79957 0.0
C839 C 0.54669 0.70865 0.7946 0.0
C840 C 0.53658 0.71781 0.79129 0.0
O841 O 0.55156 0.76495 0.7922 0.0
C842 C 0.51746 0.76082 0.8125 0.0
O843 O 0.52196 0.77355 0.8068 0.0
H844 H 0.56515 0.74045 0.80339 0.0
H845 H 0.52516 0.71452 0.78705 0.0
N846 N 0.52188 0.74863 0.77746 0.0
N847 N 0.5045 0.75493 0.76256 0.0
C848 C 0.5106 0.75634 0.77548 0.0
C849 C 0.52285 0.74194 0.76545 0.0
C850 C 0.51218 0.74578 0.75627 0.0
C851 C 0.55104 0.77683 0.7859 0.0
O852 O 0.53793 0.77986 0.78168 0.0
H853 H 0.50742 0.76341 0.78318 0.0
H854 H 0.53102 0.73508 0.76342 0.0
O855 O 0.52267 0.74962 0.80874 0.0
H856 H 0.54464 0.6968 0.79322 0.0
H857 H 0.51039 0.74222 0.74572 0.0
Cu858 Cu 0.50777 0.76253 0.27871 0.0
N859 N 0.49134 0.76035 0.28991 0.0
N860 N 0.47133 0.76564 0.3002 0.0
C861 C 0.4831 0.77077 0.29256 0.0
C862 C 0.4723 0.75139 0.30242 0.0
C863 C 0.48458 0.74817 0.29605 0.0
O864 O 0.49963 0.76392 0.26026 0.0
C865 C 0.52593 0.78145 0.29701 0.0
O866 O 0.51907 0.77189 0.30546 0.0
H867 H 0.48547 0.78179 0.28858 0.0
H868 H 0.48813 0.73761 0.2957 0.0
N869 N 0.5185 0.74683 0.27968 0.0
N870 N 0.53493 0.73246 0.27426 0.0
C871 C 0.52701 0.74283 0.26995 0.0
C872 C 0.52119 0.73876 0.29056 0.0
C873 C 0.53128 0.72988 0.28724 0.0
C874 C 0.49333 0.75196 0.25428 0.0
O875 O 0.49326 0.73947 0.26061 0.0
H876 H 0.52787 0.74792 0.26009 0.0
H877 H 0.51657 0.73965 0.30037 0.0
O878 O 0.52214 0.77995 0.28438 0.0
H879 H 0.46468 0.74377 0.30822 0.0
H880 H 0.53573 0.72226 0.29394 0.0
Cu881 Cu 0.53674 0.23358 0.25564 0.0
N882 N 0.52116 0.21743 0.2564 0.0
N883 N 0.49971 0.20426 0.26314 0.0
C884 C 0.5096 0.21707 0.26447 0.0
C885 C 0.50527 0.19625 0.25376 0.0
C886 C 0.51855 0.20442 0.24963 0.0
O887 O 0.52667 0.25066 0.25314 0.0
C888 C 0.55286 0.22199 0.27698 0.0
O889 O 0.54408 0.20972 0.27271 0.0
H890 H 0.50841 0.22619 0.27103 0.0
H891 H 0.52583 0.20107 0.24231 0.0
N892 N 0.54869 0.23228 0.24098 0.0
N893 N 0.56917 0.23746 0.22903 0.0
C894 C 0.56316 0.23899 0.24105 0.0
C895 C 0.54544 0.22608 0.22848 0.0
C896 C 0.55807 0.22941 0.22101 0.0
C897 C 0.51919 0.25079 0.24176 0.0
O898 O 0.51929 0.24015 0.23288 0.0
H899 H 0.56902 0.24539 0.24962 0.0
H900 H 0.53458 0.21992 0.22491 0.0
O901 O 0.55082 0.23414 0.2717 0.0
H902 H 0.50023 0.18523 0.25029 0.0
H903 H 0.55901 0.2263 0.21051 0.0
C904 C 0.2091 0.1929 0.15404 0.0
C905 C 0.20866 0.17775 0.15609 0.0
C906 C 0.2154 0.19982 0.14258 0.0
C907 C 0.22615 0.1918 0.10759 0.0
H908 H 0.24474 0.23309 0.10955 0.0
C909 C 0.25497 0.22347 0.06215 0.0
C910 C 0.25144 0.23748 0.05961 0.0
C911 C 0.25035 0.21581 0.07388 0.0
C912 C 0.23949 0.22158 0.1088 0.0
H913 H 0.21511 0.15817 0.14771 0.0
H914 H 0.22664 0.17035 0.12794 0.0
H915 H 0.2366 0.22046 0.13019 0.0
H916 H 0.24037 0.25443 0.06757 0.0
H917 H 0.23242 0.24114 0.08807 0.0
H918 H 0.22936 0.19299 0.08615 0.0
C919 C 0.22171 0.17682 0.13506 0.0
C920 C 0.23476 0.2143 0.12067 0.0
C921 C 0.21527 0.16984 0.14654 0.0
C922 C 0.24316 0.24362 0.06912 0.0
C923 C 0.23873 0.23606 0.08094 0.0
C924 C 0.23108 0.19906 0.09574 0.0
C925 C 0.2217 0.1919 0.13281 0.0
C926 C 0.22778 0.19934 0.12025 0.0
C927 C 0.24227 0.22206 0.08349 0.0
C928 C 0.23761 0.2141 0.09616 0.0
H929 H 0.2044 0.19947 0.16126 0.0
H930 H 0.21494 0.21136 0.14124 0.0
H931 H 0.22068 0.18037 0.10673 0.0
H932 H 0.26123 0.21839 0.05499 0.0
H933 H 0.25332 0.20508 0.07555 0.0
C934 C 0.8692 0.24313 0.1258 0.0
C935 C 0.85868 0.24373 0.1356 0.0
C936 C 0.8738 0.25532 0.11772 0.0
C937 C 0.85999 0.28768 0.10431 0.0
H938 H 0.90013 0.29761 0.09111 0.0
C939 C 0.8708 0.32873 0.0616 0.0
C940 C 0.87757 0.32329 0.05058 0.0
C941 C 0.87169 0.32247 0.07442 0.0
C942 C 0.88888 0.295 0.09472 0.0
H943 H 0.84498 0.25736 0.14517 0.0
H944 H 0.85307 0.27883 0.13112 0.0
H945 H 0.89521 0.27958 0.1091 0.0
H946 H 0.89205 0.30819 0.04481 0.0
H947 H 0.89347 0.29719 0.06705 0.0
H948 H 0.85343 0.30254 0.08964 0.0
C949 C 0.85768 0.26895 0.12951 0.0
C950 C 0.88605 0.28465 0.10501 0.0
C951 C 0.8531 0.25674 0.13758 0.0
C952 C 0.88662 0.3126 0.05303 0.0
C953 C 0.88746 0.30629 0.06585 0.0
C954 C 0.8628 0.29798 0.09405 0.0
C955 C 0.8679 0.26831 0.11933 0.0
C956 C 0.87148 0.28062 0.1097 0.0
C957 C 0.87936 0.31063 0.0765 0.0
C958 C 0.87719 0.30152 0.08889 0.0
H959 H 0.87359 0.23311 0.12416 0.0
H960 H 0.88151 0.25436 0.10987 0.0
H961 H 0.84859 0.28469 0.10752 0.0
H962 H 0.8639 0.33711 0.06011 0.0
H963 H 0.86565 0.32634 0.08251 0.0
C964 C 0.86158 0.81182 0.14459 0.0
C965 C 0.86355 0.82726 0.14588 0.0
C966 C 0.856 0.80462 0.13223 0.0
C967 C 0.83346 0.81066 0.10089 0.0
H968 H 0.84772 0.77703 0.08596 0.0
C969 C 0.81381 0.78994 0.04709 0.0
C970 C 0.80917 0.77472 0.04483 0.0
C971 C 0.82188 0.79543 0.05908 0.0
C972 C 0.84353 0.78633 0.09006 0.0
H973 H 0.86208 0.84724 0.13487 0.0
H974 H 0.85248 0.83481 0.11347 0.0
H975 H 0.85903 0.78835 0.10763 0.0
H976 H 0.81005 0.75324 0.05317 0.0
H977 H 0.82416 0.76288 0.07439 0.0
H978 H 0.81795 0.80873 0.08355 0.0
C979 C 0.85483 0.82817 0.12207 0.0
C980 C 0.85 0.79282 0.10249 0.0
C981 C 0.86037 0.83532 0.13437 0.0
C982 C 0.81358 0.76503 0.05457 0.0
C983 C 0.82162 0.77057 0.06674 0.0
C984 C 0.82702 0.80422 0.08857 0.0
C985 C 0.85227 0.81271 0.12087 0.0
C986 C 0.84518 0.80523 0.10796 0.0
C987 C 0.82541 0.78588 0.06932 0.0
C988 C 0.8321 0.79212 0.08284 0.0
H989 H 0.86385 0.80525 0.15326 0.0
H990 H 0.85412 0.79271 0.13171 0.0
H991 H 0.82912 0.81991 0.10494 0.0
H992 H 0.81074 0.79771 0.03973 0.0
H993 H 0.82498 0.80726 0.06049 0.0
C994 C 0.19674 0.78299 0.13363 0.0
C995 C 0.19761 0.79812 0.13167 0.0
C996 C 0.19794 0.77368 0.12261 0.0
C997 C 0.19755 0.77215 0.08471 0.0
H998 H 0.22522 0.745 0.09098 0.0
C999 C 0.21776 0.7412 0.04019 0.0
C1000 C 0.23343 0.74184 0.04052 0.0
C1001 C 0.21085 0.74504 0.05173 0.0
C1002 C 0.21743 0.7525 0.08906 0.0
H1003 H 0.20001 0.81554 0.11699 0.0
H1004 H 0.20233 0.79944 0.09775 0.0
H1005 H 0.21734 0.75791 0.1102 0.0
H1006 H 0.25396 0.74608 0.05349 0.0
H1007 H 0.24206 0.75309 0.07342 0.0
H1008 H 0.19838 0.76742 0.0635 0.0
C1009 C 0.20044 0.79458 0.10762 0.0
C1010 C 0.21276 0.75978 0.1001 0.0
C1011 C 0.19922 0.80383 0.11862 0.0
C1012 C 0.24191 0.74573 0.05281 0.0
C1013 C 0.23503 0.74955 0.06432 0.0
C1014 C 0.20227 0.76491 0.07366 0.0
C1015 C 0.20007 0.77942 0.1095 0.0
C1016 C 0.20311 0.77002 0.09802 0.0
C1017 C 0.21946 0.74953 0.06386 0.0
C1018 C 0.21262 0.75534 0.07568 0.0
H1019 H 0.1955 0.77844 0.1437 0.0
H1020 H 0.19745 0.76205 0.12438 0.0
H1021 H 0.18991 0.77977 0.08278 0.0
H1022 H 0.21091 0.73829 0.03087 0.0
H1023 H 0.19881 0.74476 0.05109 0.0
C1024 C 0.21976 0.80766 0.8886 0.0
C1025 C 0.2263 0.80769 0.87605 0.0
C1026 C 0.22856 0.80752 0.90067 0.0
C1027 C 0.26341 0.79623 0.91387 0.0
H1028 H 0.25485 0.81579 0.94679 0.0
C1029 C 0.29151 0.78545 0.96575 0.0
C1030 C 0.28111 0.78134 0.97575 0.0
C1031 C 0.28722 0.79216 0.95384 0.0
C1032 C 0.25741 0.8103 0.93767 0.0
H1033 H 0.24699 0.808 0.86596 0.0
H1034 H 0.26259 0.80785 0.88715 0.0
H1035 H 0.24282 0.82103 0.92503 0.0
H1036 H 0.25841 0.78193 0.98153 0.0
H1037 H 0.25097 0.79361 0.96083 0.0
H1038 H 0.27763 0.78517 0.92656 0.0
C1039 C 0.25065 0.80778 0.88771 0.0
C1040 C 0.25049 0.81327 0.92522 0.0
C1041 C 0.24179 0.80792 0.87562 0.0
C1042 C 0.26667 0.7849 0.97399 0.0
C1043 C 0.26243 0.79169 0.96215 0.0
C1044 C 0.27036 0.7933 0.92632 0.0
C1045 C 0.24409 0.80742 0.90038 0.0
C1046 C 0.25307 0.80594 0.91324 0.0
C1047 C 0.27251 0.795 0.95177 0.0
C1048 C 0.2671 0.79999 0.9384 0.0
H1049 H 0.20777 0.80745 0.88907 0.0
H1050 H 0.22309 0.80698 0.91021 0.0
H1051 H 0.26554 0.79028 0.90488 0.0
H1052 H 0.30273 0.78286 0.96681 0.0
H1053 H 0.29528 0.79473 0.94607 0.0
C1054 C 0.23707 0.18747 0.88716 0.0
C1055 C 0.23736 0.17244 0.88499 0.0
C1056 C 0.24183 0.19434 0.8998 0.0
C1057 C 0.26515 0.191 0.93147 0.0
H1058 H 0.24263 0.21909 0.94575 0.0
C1059 C 0.27814 0.2197 0.98552 0.0
C1060 C 0.27585 0.23433 0.98638 0.0
C1061 C 0.2742 0.21145 0.97332 0.0
C1062 C 0.24921 0.21142 0.94187 0.0
H1063 H 0.24261 0.15283 0.89476 0.0
H1064 H 0.25102 0.16485 0.91668 0.0
H1065 H 0.23403 0.20623 0.92436 0.0
H1066 H 0.26884 0.25212 0.97492 0.0
H1067 H 0.26253 0.23811 0.95385 0.0
H1068 H 0.28043 0.19636 0.94903 0.0
C1069 C 0.24729 0.17136 0.90852 0.0
C1070 C 0.24423 0.20401 0.92956 0.0
C1071 C 0.24245 0.16447 0.89591 0.0
C1072 C 0.27046 0.24077 0.97467 0.0
C1073 C 0.26671 0.23268 0.96258 0.0
C1074 C 0.2702 0.19849 0.94382 0.0
C1075 C 0.24707 0.1864 0.91064 0.0
C1076 C 0.2522 0.19382 0.92408 0.0
C1077 C 0.26803 0.21776 0.96179 0.0
C1078 C 0.26241 0.20898 0.94909 0.0
H1079 H 0.2335 0.19407 0.87899 0.0
H1080 H 0.24168 0.20598 0.90098 0.0
H1081 H 0.27163 0.18327 0.92753 0.0
H1082 H 0.28224 0.21445 0.9944 0.0
H1083 H 0.27542 0.2 0.97309 0.0
C1084 C 0.84622 0.21624 0.89458 0.0
C1085 C 0.84981 0.22362 0.88252 0.0
C1086 C 0.84857 0.22389 0.90701 0.0
C1087 C 0.85205 0.26107 0.92171 0.0
H1088 H 0.86649 0.24303 0.95407 0.0
C1089 C 0.86076 0.2911 0.97392 0.0
C1090 C 0.85518 0.28274 0.98502 0.0
C1091 C 0.86181 0.2843 0.96137 0.0
C1092 C 0.86237 0.24817 0.94513 0.0
H1093 H 0.85883 0.24446 0.87363 0.0
H1094 H 0.86307 0.258 0.89547 0.0
H1095 H 0.86537 0.23042 0.93207 0.0
H1096 H 0.8464 0.26065 0.9916 0.0
H1097 H 0.84822 0.24881 0.96975 0.0
H1098 H 0.8488 0.2787 0.93479 0.0
C1099 C 0.8583 0.24636 0.89536 0.0
C1100 C 0.86173 0.24096 0.93254 0.0
C1101 C 0.85596 0.23866 0.88292 0.0
C1102 C 0.85094 0.2674 0.98334 0.0
C1103 C 0.85199 0.2606 0.97081 0.0
C1104 C 0.85269 0.26829 0.9343 0.0
C1105 C 0.85456 0.23906 0.90754 0.0
C1106 C 0.85636 0.24724 0.92072 0.0
C1107 C 0.85732 0.26899 0.95965 0.0
C1108 C 0.85766 0.26182 0.94617 0.0
H1109 H 0.84143 0.20459 0.89438 0.0
H1110 H 0.84535 0.218 0.91617 0.0
H1111 H 0.84768 0.26611 0.91282 0.0
H1112 H 0.86438 0.3029 0.97493 0.0
H1113 H 0.86617 0.29104 0.95302 0.0
C1114 C 0.83818 0.82024 0.87483 0.0
C1115 C 0.84212 0.83559 0.87354 0.0
C1116 C 0.83212 0.81411 0.88677 0.0
C1117 C 0.8137 0.82408 0.91782 0.0
H1118 H 0.82205 0.78664 0.93065 0.0
C1119 C 0.78262 0.79475 0.96261 0.0
C1120 C 0.79056 0.78688 0.97173 0.0
C1121 C 0.7889 0.80029 0.95059 0.0
C1122 C 0.81969 0.79718 0.92733 0.0
H1123 H 0.84327 0.8565 0.88405 0.0
H1124 H 0.83313 0.84592 0.9049 0.0
H1125 H 0.83346 0.7972 0.9103 0.0
H1126 H 0.81144 0.77877 0.97532 0.0
H1127 H 0.82256 0.78867 0.95455 0.0
H1128 H 0.80042 0.82437 0.93509 0.0
C1129 C 0.83422 0.83854 0.89657 0.0
C1130 C 0.82609 0.80317 0.91548 0.0
C1131 C 0.84012 0.84464 0.8846 0.0
C1132 C 0.80493 0.78463 0.96846 0.0
C1133 C 0.8113 0.7903 0.95648 0.0
C1134 C 0.80741 0.81816 0.92971 0.0
C1135 C 0.82997 0.82317 0.89782 0.0
C1136 C 0.82319 0.81672 0.91052 0.0
C1137 C 0.8034 0.79827 0.94736 0.0
C1138 C 0.81025 0.80459 0.93465 0.0
H1139 H 0.83944 0.81295 0.86647 0.0
H1140 H 0.82882 0.80226 0.88719 0.0
H1141 H 0.81095 0.8344 0.9143 0.0
H1142 H 0.77143 0.79648 0.96467 0.0
H1143 H 0.78226 0.80603 0.94375 0.0
C1144 C 0.13443 0.16365 0.20845 0.0
C1145 C 0.14832 0.17322 0.20806 0.0
C1146 C 0.12339 0.16689 0.21687 0.0
C1147 C 0.11649 0.19122 0.24558 0.0
H1148 H 0.07606 0.18521 0.22869 0.0
C1149 C 0.06871 0.21788 0.26697 0.0
C1150 C 0.05395 0.20967 0.26611 0.0
C1151 C 0.08044 0.2127 0.26082 0.0
C1152 C 0.08722 0.18679 0.23369 0.0
H1153 H 0.1618 0.19345 0.21624 0.0
H1154 H 0.14262 0.19915 0.23099 0.0
H1155 H 0.09609 0.17704 0.21687 0.0
H1156 H 0.0402 0.1894 0.25802 0.0
H1157 H 0.06057 0.1803 0.24763 0.0
H1158 H 0.10758 0.20115 0.26234 0.0
C1159 C 0.14023 0.18902 0.22502 0.0
C1160 C 0.09875 0.18206 0.22689 0.0
C1161 C 0.15125 0.18576 0.21659 0.0
C1162 C 0.05136 0.19603 0.25906 0.0
C1163 C 0.06307 0.19087 0.25292 0.0
C1164 C 0.10493 0.19595 0.2524 0.0
C1165 C 0.12597 0.17983 0.22501 0.0
C1166 C 0.11358 0.18425 0.23269 0.0
C1167 C 0.07777 0.19916 0.2536 0.0
C1168 C 0.09012 0.19386 0.24653 0.0
H1169 H 0.13186 0.15401 0.2018 0.0
H1170 H 0.11267 0.15942 0.21674 0.0
H1171 H 0.12771 0.19296 0.25045 0.0
H1172 H 0.07124 0.22834 0.27241 0.0
H1173 H 0.09156 0.21948 0.26148 0.0
C1174 C 0.84396 0.16609 0.17373 0.0
C1175 C 0.85082 0.17789 0.18236 0.0
C1176 C 0.83852 0.15227 0.17907 0.0
C1177 C 0.84332 0.12965 0.20914 0.0
H1178 H 0.805 0.10651 0.19607 0.0
C1179 C 0.81603 0.07709 0.23603 0.0
C1180 C 0.80872 0.06509 0.22787 0.0
C1181 C 0.82114 0.09073 0.23026 0.0
C1182 C 0.81581 0.11275 0.19972 0.0
H1183 H 0.85677 0.18455 0.20341 0.0
H1184 H 0.84737 0.16049 0.2127 0.0
H1185 H 0.81374 0.13057 0.18635 0.0
H1186 H 0.8013 0.05797 0.20719 0.0
H1187 H 0.81032 0.08174 0.1971 0.0
H1188 H 0.84546 0.11186 0.22246 0.0
C1189 C 0.84644 0.16183 0.20178 0.0
C1190 C 0.82081 0.12655 0.19415 0.0
C1191 C 0.85184 0.17562 0.19646 0.0
C1192 C 0.80671 0.06703 0.21378 0.0
C1193 C 0.81186 0.08067 0.208 0.0
C1194 C 0.83835 0.11586 0.21467 0.0
C1195 C 0.83985 0.14996 0.19315 0.0
C1196 C 0.83458 0.13519 0.19886 0.0
C1197 C 0.81912 0.0927 0.21618 0.0
C1198 C 0.82451 0.10726 0.21008 0.0
H1199 H 0.84314 0.16742 0.16281 0.0
H1200 H 0.83362 0.1433 0.17215 0.0
H1201 H 0.85411 0.13592 0.21282 0.0
H1202 H 0.81752 0.07605 0.24693 0.0
H1203 H 0.82645 0.09982 0.2369 0.0
C1204 C 0.89758 0.81929 0.19075 0.0
C1205 C 0.89664 0.83426 0.18931 0.0
C1206 C 0.90963 0.81504 0.19826 0.0
C1207 C 0.94068 0.82788 0.22431 0.0
H1208 H 0.95791 0.79624 0.20908 0.0
C1209 C 0.99662 0.812 0.24643 0.0
C1210 C 0.99773 0.79697 0.24642 0.0
C1211 C 0.98415 0.81677 0.24 0.0
C1212 C 0.95314 0.80495 0.21362 0.0
H1213 H 0.90763 0.85648 0.19502 0.0
H1214 H 0.92866 0.84906 0.20819 0.0
H1215 H 0.93655 0.80412 0.19715 0.0
H1216 H 0.98623 0.77521 0.23959 0.0
H1217 H 0.96452 0.78343 0.22879 0.0
H1218 H 0.95733 0.82867 0.24081 0.0
C1219 C 0.91998 0.84059 0.20354 0.0
C1220 C 0.94085 0.8095 0.20674 0.0
C1221 C 0.90789 0.84486 0.19598 0.0
C1222 C 0.98585 0.78685 0.23998 0.0
C1223 C 0.97341 0.79161 0.23358 0.0
C1224 C 0.95299 0.8233 0.23123 0.0
C1225 C 0.92113 0.82562 0.20461 0.0
C1226 C 0.93438 0.82098 0.212 0.0
C1227 C 0.97242 0.80665 0.23336 0.0
C1228 C 0.95936 0.81171 0.22601 0.0
H1229 H 0.88897 0.81078 0.18603 0.0
H1230 H 0.90991 0.8034 0.19911 0.0
H1231 H 0.93592 0.83665 0.22875 0.0
H1232 H 1.0054 0.82014 0.25138 0.0
H1233 H 0.98389 0.82845 0.23999 0.0
C1234 C 0.1943 0.8566 0.19244 0.0
C1235 C 0.18084 0.85232 0.18445 0.0
C1236 C 0.19684 0.86973 0.20005 0.0
C1237 C 0.17747 0.89809 0.21436 0.0
H1238 H 0.21779 0.92132 0.21644 0.0
C1239 C 0.21235 0.95898 0.23415 0.0
C1240 C 0.20639 0.95997 0.24692 0.0
C1241 C 0.20827 0.94621 0.22612 0.0
C1242 C 0.20641 0.91508 0.21585 0.0
H1243 H 0.15949 0.85843 0.17816 0.0
H1244 H 0.16401 0.88152 0.19129 0.0
H1245 H 0.21258 0.89852 0.20316 0.0
H1246 H 0.19124 0.94848 0.2612 0.0
H1247 H 0.18427 0.92601 0.24729 0.0
H1248 H 0.17124 0.91492 0.22679 0.0
C1249 C 0.1725 0.87459 0.19187 0.0
C1250 C 0.20348 0.90186 0.20839 0.0
C1251 C 0.16992 0.8614 0.18432 0.0
C1252 C 0.1959 0.94807 0.25134 0.0
C1253 C 0.19191 0.93521 0.24335 0.0
C1254 C 0.18039 0.91138 0.22179 0.0
C1255 C 0.18603 0.87896 0.19978 0.0
C1256 C 0.189 0.89315 0.2076 0.0
C1257 C 0.19824 0.93404 0.23073 0.0
C1258 C 0.19492 0.92003 0.22264 0.0
H1259 H 0.20281 0.8497 0.19293 0.0
H1260 H 0.20725 0.87257 0.20625 0.0
H1261 H 0.16622 0.89159 0.21408 0.0
H1262 H 0.22024 0.96809 0.23038 0.0
H1263 H 0.21309 0.94585 0.21632 0.0
C1264 C 0.1625 0.83977 0.82456 0.0
C1265 C 0.17116 0.82862 0.82357 0.0
C1266 C 0.1482 0.83816 0.81795 0.0
C1267 C 0.11489 0.82649 0.8119 0.0
H1268 H 0.10511 0.80551 0.77738 0.0
C1269 C 0.0566 0.79296 0.79751 0.0
C1270 C 0.05104 0.79188 0.78387 0.0
C1271 C 0.07095 0.80083 0.80109 0.0
C1272 C 0.10766 0.81164 0.78691 0.0
H1273 H 0.17187 0.80737 0.81435 0.0
H1274 H 0.14682 0.80436 0.80316 0.0
H1275 H 0.1314 0.81308 0.78536 0.0
H1276 H 0.05588 0.79876 0.76334 0.0
H1277 H 0.08111 0.81262 0.76963 0.0
H1278 H 0.09115 0.82488 0.81353 0.0
C1279 C 0.15111 0.81444 0.8089 0.0
C1280 C 0.12272 0.8158 0.79157 0.0
C1281 C 0.16539 0.81605 0.81549 0.0
C1282 C 0.05988 0.7994 0.77394 0.0
C1283 C 0.07434 0.80724 0.77752 0.0
C1284 C 0.09985 0.82236 0.80723 0.0
C1285 C 0.14225 0.82537 0.81021 0.0
C1286 C 0.12649 0.82288 0.80431 0.0
C1287 C 0.08012 0.80781 0.79111 0.0
C1288 C 0.09604 0.81447 0.79489 0.0
H1289 H 0.16658 0.84955 0.83077 0.0
H1290 H 0.14173 0.84685 0.81906 0.0
H1291 H 0.11736 0.83186 0.82179 0.0
H1292 H 0.05005 0.78735 0.80542 0.0
H1293 H 0.0751 0.80086 0.81162 0.0
C1294 C 0.25026 0.13772 0.83439 0.0
C1295 C 0.24613 0.13724 0.84798 0.0
C1296 C 0.25778 0.12709 0.82914 0.0
C1297 C 0.2644 0.0891 0.83459 0.0
H1298 H 0.29649 0.10029 0.81007 0.0
C1299 C 0.3128 0.0619 0.80672 0.0
C1300 C 0.30416 0.04847 0.80185 0.0
C1301 C 0.30595 0.07273 0.81255 0.0
C1302 C 0.28762 0.09697 0.81697 0.0
H1303 H 0.24684 0.12516 0.86672 0.0
H1304 H 0.26006 0.10664 0.85758 0.0
H1305 H 0.2846 0.11922 0.82013 0.0
H1306 H 0.28143 0.03595 0.79935 0.0
H1307 H 0.2695 0.05483 0.8095 0.0
H1308 H 0.26749 0.06684 0.83147 0.0
C1309 C 0.25736 0.11522 0.85095 0.0
C1310 C 0.28069 0.10782 0.82264 0.0
C1311 C 0.24992 0.12593 0.85624 0.0
C1312 C 0.28846 0.04615 0.80299 0.0
C1313 C 0.28162 0.05695 0.8089 0.0
C1314 C 0.27127 0.07823 0.82884 0.0
C1315 C 0.26134 0.11562 0.83731 0.0
C1316 C 0.26896 0.10405 0.83152 0.0
C1317 C 0.29026 0.07041 0.81374 0.0
C1318 C 0.28297 0.082 0.81994 0.0
H1319 H 0.24767 0.14635 0.82777 0.0
H1320 H 0.26053 0.12771 0.81857 0.0
H1321 H 0.25533 0.08576 0.84127 0.0
H1322 H 0.32491 0.06409 0.80603 0.0
H1323 H 0.313 0.08287 0.81629 0.0
C1324 C 0.9088 0.20332 0.84375 0.0
C1325 C 0.89693 0.21111 0.8451 0.0
C1326 C 0.92365 0.21077 0.8432 0.0
C1327 C 0.9454 0.24808 0.83642 0.0
H1328 H 0.97907 0.22868 0.84574 0.0
C1329 C 1.00232 0.26526 0.81306 0.0
C1330 C 0.01555 0.26208 0.81958 0.0
C1331 C 0.98846 0.26118 0.81882 0.0
C1332 C 0.9699 0.23448 0.84334 0.0
H1333 H 0.89171 0.23305 0.84743 0.0
H1334 H 0.91752 0.24585 0.84756 0.0
H1335 H 0.95401 0.21738 0.85166 0.0
H1336 H 0.02475 0.25313 0.83778 0.0
H1337 H 1.00061 0.24662 0.8482 0.0
H1338 H 0.96136 0.26549 0.82867 0.0
C1339 C 0.91535 0.23398 0.84633 0.0
C1340 C 0.95538 0.2278 0.84649 0.0
C1341 C 0.90046 0.22656 0.84652 0.0
C1342 C 0.01474 0.25562 0.83245 0.0
C1343 C 1.00085 0.25175 0.83835 0.0
C1344 C 0.95995 0.25492 0.83357 0.0
C1345 C 0.92715 0.22624 0.84435 0.0
C1346 C 0.94284 0.23425 0.84266 0.0
C1347 C 0.98744 0.25404 0.8314 0.0
C1348 C 0.97236 0.24798 0.83653 0.0
H1349 H 0.90669 0.19142 0.84295 0.0
H1350 H 0.93228 0.20433 0.84148 0.0
H1351 H 0.93615 0.25345 0.83318 0.0
H1352 H 1.00248 0.27018 0.80311 0.0
H1353 H 0.97848 0.26295 0.81296 0.0
C1354 C 0.83526 0.88721 0.80347 0.0
C1355 C 0.84418 0.8913 0.81545 0.0
C1356 C 0.83222 0.89792 0.7942 0.0
C1357 C 0.84282 0.93789 0.78548 0.0
H1358 H 0.80106 0.93275 0.77213 0.0
C1359 C 0.8135 0.9861 0.76781 0.0
C1360 C 0.80146 0.9833 0.75798 0.0
C1361 C 0.82103 0.97478 0.77216 0.0
C1362 C 0.81285 0.93431 0.77549 0.0
H1363 H 0.8572 0.90963 0.8271 0.0
H1364 H 0.85196 0.92836 0.81104 0.0
H1365 H 0.80993 0.91311 0.7846 0.0
H1366 H 0.78806 0.96662 0.74472 0.0
H1367 H 0.80147 0.94693 0.75188 0.0
H1368 H 0.84557 0.95934 0.77667 0.0
C1369 C 0.84749 0.91692 0.80855 0.0
C1370 C 0.81797 0.92297 0.78269 0.0
C1371 C 0.85053 0.90618 0.81778 0.0
C1372 C 0.79759 0.96917 0.75203 0.0
C1373 C 0.80511 0.95783 0.75635 0.0
C1374 C 0.83769 0.94927 0.77826 0.0
C1375 C 0.83793 0.913 0.7968 0.0
C1376 C 0.83298 0.92464 0.78798 0.0
C1377 C 0.81653 0.96032 0.76688 0.0
C1378 C 0.82256 0.94773 0.77332 0.0
H1379 H 0.83006 0.8758 0.80156 0.0
H1380 H 0.82503 0.89442 0.78519 0.0
H1381 H 0.85451 0.93955 0.7892 0.0
H1382 H 0.81636 0.99677 0.77289 0.0
H1383 H 0.82961 0.97715 0.78037 0.0
C1384 C 0.21019 0.12946 0.18664 0.0
C1385 C 0.20374 0.13996 0.19362 0.0
C1386 C 0.21498 0.11772 0.19353 0.0
C1387 C 0.20856 0.09585 0.22469 0.0
H1388 H 0.24587 0.08283 0.21742 0.0
C1389 C 0.23038 0.05367 0.25913 0.0
C1390 C 0.23681 0.04248 0.25331 0.0
C1391 C 0.22749 0.06565 0.25152 0.0
C1392 C 0.23533 0.0862 0.21947 0.0
H1393 H 0.19779 0.14638 0.21356 0.0
H1394 H 0.2059 0.12587 0.22547 0.0
H1395 H 0.23857 0.10347 0.20484 0.0
H1396 H 0.24579 0.03545 0.23493 0.0
H1397 H 0.24049 0.05642 0.22141 0.0
H1398 H 0.2051 0.07858 0.23911 0.0
C1399 C 0.20709 0.12663 0.2146 0.0
C1400 C 0.23115 0.09807 0.21226 0.0
C1401 C 0.2024 0.13841 0.20774 0.0
C1402 C 0.24086 0.04391 0.23973 0.0
C1403 C 0.23782 0.05594 0.23199 0.0
C1404 C 0.21267 0.08398 0.2318 0.0
C1405 C 0.21336 0.11605 0.20759 0.0
C1406 C 0.21778 0.10317 0.2149 0.0
C1407 C 0.23074 0.06681 0.23772 0.0
C1408 C 0.22622 0.07908 0.22947 0.0
H1409 H 0.21123 0.13008 0.17575 0.0
H1410 H 0.21959 0.10971 0.18776 0.0
H1411 H 0.19802 0.09919 0.22678 0.0
H1412 H 0.22732 0.05308 0.26962 0.0
H1413 H 0.22252 0.07397 0.25648 0.0
C1414 C 0.21682 0.87152 0.84453 0.0
C1415 C 0.22086 0.85851 0.83975 0.0
C1416 C 0.22686 0.88489 0.84412 0.0
C1417 C 0.267 0.90102 0.83784 0.0
H1418 H 0.24986 0.93564 0.82906 0.0
C1419 C 0.29762 0.95359 0.8125 0.0
C1420 C 0.29689 0.96704 0.81895 0.0
C1421 C 0.28949 0.94044 0.81714 0.0
C1422 C 0.25477 0.92608 0.83167 0.0
H1423 H 0.23839 0.84908 0.83083 0.0
H1424 H 0.25567 0.87245 0.8294 0.0
H1425 H 0.23323 0.91243 0.83301 0.0
H1426 H 0.28728 0.97737 0.8353 0.0
H1427 H 0.27259 0.9543 0.8432 0.0
H1428 H 0.28854 0.9147 0.83555 0.0
C1429 C 0.24505 0.87241 0.83398 0.0
C1430 C 0.24527 0.91277 0.83403 0.0
C1431 C 0.23512 0.85901 0.83468 0.0
C1432 C 0.2881 0.9671 0.83027 0.0
C1433 C 0.27968 0.95398 0.83472 0.0
C1434 C 0.27647 0.91428 0.83518 0.0
C1435 C 0.24102 0.88558 0.83859 0.0
C1436 C 0.25123 0.89999 0.83702 0.0
C1437 C 0.28024 0.94057 0.82811 0.0
C1438 C 0.27041 0.92686 0.83199 0.0
H1439 H 0.20589 0.87131 0.84859 0.0
H1440 H 0.22346 0.89468 0.84807 0.0
H1441 H 0.27206 0.89156 0.84042 0.0
H1442 H 0.30438 0.95333 0.80379 0.0
H1443 H 0.28998 0.93022 0.81184 0.0
C1444 C 0.18409 0.19665 0.83744 0.0
C1445 C 0.18229 0.18241 0.84273 0.0
C1446 C 0.17146 0.20301 0.83388 0.0
C1447 C 0.13108 0.1919 0.82322 0.0
H1448 H 0.1298 0.23338 0.82782 0.0
C1449 C 0.07738 0.21522 0.80785 0.0
C1450 C 0.07907 0.22921 0.80193 0.0
C1451 C 0.08987 0.20992 0.81357 0.0
C1452 C 0.13002 0.22179 0.8263 0.0
H1453 H 0.16609 0.16373 0.84874 0.0
H1454 H 0.14403 0.17486 0.8428 0.0
H1455 H 0.15164 0.22368 0.83698 0.0
H1456 H 0.09542 0.24851 0.79738 0.0
H1457 H 0.11719 0.23922 0.80717 0.0
H1458 H 0.10966 0.18998 0.81235 0.0
C1459 C 0.15512 0.18114 0.84127 0.0
C1460 C 0.14256 0.21622 0.8316 0.0
C1461 C 0.16775 0.17482 0.84485 0.0
C1462 C 0.09363 0.23777 0.80197 0.0
C1463 C 0.10615 0.23243 0.80764 0.0
C1464 C 0.1186 0.19747 0.81788 0.0
C1465 C 0.15677 0.19518 0.83541 0.0
C1466 C 0.14326 0.20118 0.83015 0.0
C1467 C 0.10447 0.21839 0.81349 0.0
C1468 C 0.11785 0.2125 0.81932 0.0
H1469 H 0.19521 0.20258 0.83546 0.0
H1470 H 0.1732 0.21376 0.8293 0.0
H1471 H 0.13132 0.18033 0.82163 0.0
H1472 H 0.06636 0.20841 0.80825 0.0
H1473 H 0.08801 0.19919 0.8182 0.0
C1474 C 0.86406 0.15748 0.83038 0.0
C1475 C 0.85638 0.16922 0.82792 0.0
C1476 C 0.85839 0.14352 0.82473 0.0
C1477 C 0.83249 0.12368 0.79784 0.0
H1478 H 0.82821 0.09121 0.82296 0.0
C1479 C 0.81 0.06373 0.78032 0.0
C1480 C 0.79861 0.05579 0.78794 0.0
C1481 C 0.81817 0.07725 0.78509 0.0
C1482 C 0.82933 0.10018 0.81585 0.0
H1483 H 0.83723 0.17583 0.81709 0.0
H1484 H 0.82739 0.15147 0.80709 0.0
H1485 H 0.84087 0.11574 0.83083 0.0
H1486 H 0.78721 0.05578 0.80676 0.0
H1487 H 0.80168 0.07935 0.81518 0.0
H1488 H 0.82075 0.1082 0.78292 0.0
C1489 C 0.83775 0.15302 0.81342 0.0
C1490 C 0.8367 0.11417 0.8203 0.0
C1491 C 0.84332 0.16693 0.81919 0.0
C1492 C 0.79595 0.06152 0.80067 0.0
C1493 C 0.80423 0.07503 0.80549 0.0
C1494 C 0.82526 0.10968 0.79335 0.0
C1495 C 0.84503 0.14111 0.81638 0.0
C1496 C 0.83821 0.12608 0.81137 0.0
C1497 C 0.81528 0.08311 0.79766 0.0
C1498 C 0.82347 0.09782 0.80235 0.0
H1499 H 0.87409 0.15894 0.83716 0.0
H1500 H 0.86429 0.13454 0.82707 0.0
H1501 H 0.83356 0.13266 0.79073 0.0
H1502 H 0.81267 0.05954 0.77065 0.0
H1503 H 0.82681 0.08312 0.77895 0.0
C1504 C 0.87868 0.83638 0.82169 0.0
C1505 C 0.87802 0.83766 0.8359 0.0
C1506 C 0.89022 0.83037 0.81602 0.0
C1507 C 0.92819 0.82085 0.82477 0.0
H1508 H 0.91877 0.79481 0.7932 0.0
C1509 C 0.96771 0.7818 0.8086 0.0
C1510 C 0.97008 0.78055 0.79468 0.0
C1511 C 0.95678 0.78948 0.81303 0.0
C1512 C 0.92163 0.80218 0.80194 0.0
H1513 H 0.88952 0.83412 0.85518 0.0
H1514 H 0.90911 0.82329 0.84542 0.0
H1515 H 0.89934 0.80707 0.8019 0.0
H1516 H 0.96259 0.7863 0.77448 0.0
H1517 H 0.94345 0.79967 0.7822 0.0
H1518 H 0.95037 0.81566 0.825 0.0
C1519 C 0.90087 0.82704 0.83858 0.0
C1520 C 0.91048 0.80927 0.80692 0.0
C1521 C 0.88942 0.83308 0.84422 0.0
C1522 C 0.96116 0.78715 0.78528 0.0
C1523 C 0.95009 0.7947 0.7897 0.0
C1524 C 0.93926 0.81367 0.81987 0.0
C1525 C 0.90144 0.82551 0.82439 0.0
C1526 C 0.91354 0.8186 0.81852 0.0
C1527 C 0.9478 0.79602 0.80365 0.0
C1528 C 0.93611 0.80413 0.80847 0.0
H1529 H 0.87009 0.83972 0.81495 0.0
H1530 H 0.89035 0.82957 0.80506 0.0
H1531 H 0.93115 0.8282 0.83351 0.0
H1532 H 0.97444 0.77699 0.81614 0.0
H1533 H 0.95524 0.79014 0.82383 0.0
C1534 C 0.86875 0.90064 0.19911 0.0
C1535 C 0.85892 0.88709 0.19964 0.0
C1536 C 0.86593 0.91298 0.20626 0.0
C1537 C 0.8424 0.92509 0.23289 0.0
H1538 H 0.84847 0.96153 0.21297 0.0
C1539 C 0.81723 0.9762 0.24866 0.0
C1540 C 0.82609 0.99021 0.24715 0.0
C1541 C 0.82183 0.9635 0.24372 0.0
C1542 C 0.84687 0.95152 0.21879 0.0
H1543 H 0.83862 0.87559 0.20812 0.0
H1544 H 0.83361 0.89703 0.22061 0.0
H1545 H 0.85598 0.93977 0.20343 0.0
H1546 H 0.84692 1.00172 0.23939 0.0
H1547 H 0.85494 0.97971 0.23093 0.0
H1548 H 0.83307 0.93688 0.24817 0.0
C1549 C 0.84367 0.89821 0.21493 0.0
C1550 C 0.85123 0.93899 0.21331 0.0
C1551 C 0.84653 0.88589 0.2078 0.0
C1552 C 0.83973 0.99116 0.24069 0.0
C1553 C 0.84431 0.9785 0.23575 0.0
C1554 C 0.83801 0.93765 0.23837 0.0
C1555 C 0.85311 0.91205 0.21399 0.0
C1556 C 0.84905 0.92556 0.22025 0.0
C1557 C 0.8354 0.96448 0.2371 0.0
C1558 C 0.84016 0.95105 0.23139 0.0
H1559 H 0.87826 0.90186 0.19272 0.0
H1560 H 0.8736 0.92335 0.20545 0.0
H1561 H 0.84067 0.91502 0.23862 0.0
H1562 H 0.80665 0.97504 0.25357 0.0
H1563 H 0.81458 0.95293 0.24484 0.0
C1564 C 0.13402 0.80926 0.16897 0.0
C1565 C 0.14798 0.80458 0.17005 0.0
C1566 C 0.12086 0.79972 0.17206 0.0
C1567 C 0.10938 0.77018 0.19505 0.0
H1568 H 0.06988 0.76845 0.17703 0.0
C1569 C 0.05723 0.74701 0.22336 0.0
C1570 C 0.04598 0.75571 0.22269 0.0
C1571 C 0.06832 0.74866 0.21386 0.0
C1572 C 0.08082 0.76884 0.18222 0.0
H1573 H 0.15905 0.78607 0.17456 0.0
H1574 H 0.13601 0.76942 0.18013 0.0
H1575 H 0.09231 0.77987 0.16567 0.0
H1576 H 0.03684 0.77216 0.21094 0.0
H1577 H 0.05639 0.7755 0.19477 0.0
H1578 H 0.09812 0.76022 0.21198 0.0
C1579 C 0.13528 0.78045 0.17684 0.0
C1580 C 0.09365 0.77531 0.17567 0.0
C1581 C 0.14843 0.78994 0.17359 0.0
C1582 C 0.04537 0.76528 0.21174 0.0
C1583 C 0.0566 0.76714 0.20238 0.0
C1584 C 0.09659 0.76391 0.20168 0.0
C1585 C 0.12143 0.78537 0.17644 0.0
C1586 C 0.10803 0.77638 0.18218 0.0
C1587 C 0.06857 0.75927 0.20363 0.0
C1588 C 0.08209 0.76352 0.19553 0.0
H1589 H 0.13338 0.82046 0.16617 0.0
H1590 H 0.11038 0.80387 0.17178 0.0
H1591 H 0.1203 0.77102 0.20041 0.0
H1592 H 0.05786 0.73938 0.23159 0.0
H1593 H 0.07708 0.74209 0.21491 0.0
C1594 C 0.90288 0.23 0.17513 0.0
C1595 C 0.89185 0.22232 0.18326 0.0
C1596 C 0.91678 0.23709 0.18101 0.0
C1597 C 0.93642 0.24959 0.21451 0.0
H1598 H 0.97225 0.24421 0.19666 0.0
C1599 C 0.99379 0.26356 0.24341 0.0
C1600 C 1.00278 0.25272 0.24244 0.0
C1601 C 0.98172 0.26382 0.23397 0.0
C1602 C 0.96237 0.24581 0.2018 0.0
H1603 H 0.88656 0.21663 0.20399 0.0
H1604 H 0.91082 0.22839 0.21412 0.0
H1605 H 0.94762 0.23671 0.18493 0.0
H1606 H 1.00683 0.23428 0.23028 0.0
H1607 H 0.98556 0.23433 0.21422 0.0
H1608 H 0.95092 0.25757 0.23176 0.0
C1609 C 0.90875 0.2292 0.20324 0.0
C1610 C 0.94823 0.24169 0.19499 0.0
C1611 C 0.89488 0.22223 0.1974 0.0
C1612 C 1.00012 0.24279 0.23132 0.0
C1613 C 0.98791 0.24289 0.22203 0.0
C1614 C 0.9505 0.25352 0.22138 0.0
C1615 C 0.91993 0.23663 0.19513 0.0
C1616 C 0.93504 0.24309 0.20144 0.0
C1617 C 0.97821 0.25307 0.22351 0.0
C1618 C 0.96364 0.25128 0.21528 0.0
H1619 H 0.90093 0.23023 0.16419 0.0
H1620 H 0.92507 0.24282 0.17447 0.0
H1621 H 0.92653 0.25116 0.21967 0.0
H1622 H 0.9957 0.2715 0.25177 0.0
H1623 H 0.97477 0.27209 0.23523 0.0
C1624 C 0.20639 0.69995 0.64315 0.0
C1625 C 0.20448 0.68505 0.64687 0.0
C1626 C 0.21277 0.70465 0.63093 0.0
C1627 C 0.2206 0.69053 0.59702 0.0
H1628 H 0.2472 0.72832 0.59496 0.0
C1629 C 0.258 0.70582 0.55188 0.0
C1630 C 0.26042 0.72034 0.54713 0.0
C1631 C 0.24999 0.70206 0.56346 0.0
C1632 C 0.2396 0.71783 0.59529 0.0
H1633 H 0.2081 0.66347 0.64054 0.0
H1634 H 0.21958 0.6717 0.61943 0.0
H1635 H 0.23637 0.72059 0.61649 0.0
H1636 H 0.25599 0.74228 0.55076 0.0
H1637 H 0.24189 0.7357 0.57117 0.0
H1638 H 0.22402 0.68767 0.57588 0.0
C1639 C 0.21587 0.67975 0.62588 0.0
C1640 C 0.2334 0.71337 0.60767 0.0
C1641 C 0.20946 0.67504 0.63811 0.0
C1642 C 0.25425 0.73098 0.5541 0.0
C1643 C 0.2463 0.72723 0.56586 0.0
C1644 C 0.22683 0.69497 0.58467 0.0
C1645 C 0.2175 0.69461 0.62203 0.0
C1646 C 0.22392 0.69957 0.60876 0.0
C1647 C 0.2442 0.71271 0.57075 0.0
C1648 C 0.23655 0.70861 0.58365 0.0
H1649 H 0.2029 0.70804 0.6497 0.0
H1650 H 0.21371 0.71614 0.62834 0.0
H1651 H 0.21309 0.67999 0.59731 0.0
H1652 H 0.26258 0.69731 0.54678 0.0
H1653 H 0.2488 0.69084 0.56696 0.0
C1654 C 0.85196 0.71164 0.61277 0.0
C1655 C 0.85827 0.69973 0.60847 0.0
C1656 C 0.84948 0.72254 0.6036 0.0
C1657 C 0.8582 0.73754 0.56948 0.0
H1658 H 0.81757 0.74562 0.56922 0.0
C1659 C 0.82813 0.75844 0.5224 0.0
C1660 C 0.81709 0.7671 0.5243 0.0
C1661 C 0.83558 0.75313 0.53359 0.0
C1662 C 0.82908 0.74381 0.56928 0.0
H1663 H 0.86747 0.68985 0.59164 0.0
H1664 H 0.86311 0.70888 0.57547 0.0
H1665 H 0.82644 0.7311 0.5873 0.0
H1666 H 0.80607 0.77795 0.5394 0.0
H1667 H 0.81934 0.76902 0.5589 0.0
H1668 H 0.86069 0.75002 0.55124 0.0
C1669 C 0.86023 0.70998 0.58592 0.0
C1670 C 0.83416 0.73544 0.57967 0.0
C1671 C 0.86267 0.69907 0.59511 0.0
C1672 C 0.81438 0.77114 0.5376 0.0
C1673 C 0.82192 0.76595 0.54878 0.0
C1674 C 0.85314 0.74601 0.55909 0.0
C1675 C 0.85326 0.72164 0.58998 0.0
C1676 C 0.84867 0.73197 0.57976 0.0
C1677 C 0.83225 0.75647 0.54692 0.0
C1678 C 0.8384 0.74901 0.55873 0.0
H1679 H 0.84849 0.71226 0.62309 0.0
H1680 H 0.84425 0.73147 0.60707 0.0
H1681 H 0.8695 0.73518 0.56937 0.0
H1682 H 0.83048 0.75513 0.51228 0.0
H1683 H 0.84335 0.74577 0.53175 0.0
C1684 C 0.86904 0.33419 0.64385 0.0
C1685 C 0.87332 0.32629 0.65512 0.0
C1686 C 0.86414 0.32702 0.63138 0.0
C1687 C 0.84836 0.29021 0.61613 0.0
H1688 H 0.86039 0.30894 0.58237 0.0
C1689 C 0.8214 0.26784 0.56349 0.0
C1690 C 0.8309 0.26819 0.55259 0.0
C1691 C 0.82674 0.2747 0.576 0.0
C1692 C 0.857 0.30348 0.59169 0.0
H1693 H 0.8757 0.30454 0.66201 0.0
H1694 H 0.86734 0.29207 0.64024 0.0
H1695 H 0.86964 0.32116 0.60403 0.0
H1696 H 0.85355 0.2762 0.54645 0.0
H1697 H 0.86288 0.28797 0.56826 0.0
H1698 H 0.83586 0.27245 0.60379 0.0
C1699 C 0.86766 0.30383 0.64108 0.0
C1700 C 0.86217 0.31059 0.60414 0.0
C1701 C 0.87263 0.31101 0.65354 0.0
C1702 C 0.84592 0.27557 0.5546 0.0
C1703 C 0.85124 0.28248 0.56709 0.0
C1704 C 0.84313 0.28313 0.60368 0.0
C1705 C 0.86333 0.31173 0.62982 0.0
C1706 C 0.85792 0.30406 0.61654 0.0
C1707 C 0.84172 0.28217 0.57798 0.0
C1708 C 0.84737 0.28967 0.59128 0.0
H1709 H 0.86956 0.34599 0.64462 0.0
H1710 H 0.86077 0.33346 0.623 0.0
H1711 H 0.84471 0.2849 0.62545 0.0
H1712 H 0.80983 0.26215 0.56241 0.0
H1713 H 0.81903 0.27433 0.58408 0.0
C1714 C 0.23409 0.32398 0.65834 0.0
C1715 C 0.2335 0.31273 0.66784 0.0
C1716 C 0.23976 0.32227 0.6456 0.0
C1717 C 0.26262 0.30015 0.62676 0.0
H1718 H 0.24084 0.31223 0.59506 0.0
C1719 C 0.28379 0.29783 0.57263 0.0
C1720 C 0.27297 0.29293 0.562 0.0
C1721 C 0.27938 0.30067 0.58562 0.0
C1722 C 0.24699 0.30871 0.6038 0.0
H1723 H 0.2383 0.29101 0.67188 0.0
H1724 H 0.24814 0.28789 0.6496 0.0
H1725 H 0.23268 0.3165 0.6177 0.0
H1726 H 0.24902 0.28696 0.55679 0.0
H1727 H 0.24132 0.29184 0.57948 0.0
H1728 H 0.27667 0.29198 0.61285 0.0
C1729 C 0.24449 0.29813 0.65194 0.0
C1730 C 0.24243 0.31134 0.61679 0.0
C1731 C 0.23882 0.29986 0.66465 0.0
C1732 C 0.25763 0.29091 0.56469 0.0
C1733 C 0.25322 0.29373 0.57769 0.0
C1734 C 0.26717 0.29752 0.61377 0.0
C1735 C 0.24489 0.30925 0.6422 0.0
C1736 C 0.25014 0.30702 0.62842 0.0
C1737 C 0.26405 0.29867 0.58831 0.0
C1738 C 0.25936 0.3017 0.60213 0.0
H1739 H 0.22996 0.33398 0.66067 0.0
H1740 H 0.24008 0.33112 0.6384 0.0
H1741 H 0.26889 0.29681 0.63551 0.0
H1742 H 0.29569 0.29976 0.57087 0.0
H1743 H 0.28801 0.30468 0.5935 0.0
C1744 C 0.2544 0.33002 0.39797 0.0
C1745 C 0.24019 0.32134 0.39938 0.0
C1746 C 0.26434 0.33366 0.4094 0.0
C1747 C 0.26558 0.33452 0.44723 0.0
H1748 H 0.30662 0.32832 0.4447 0.0
C1749 C 0.31084 0.31153 0.4837 0.0
C1750 C 0.30818 0.31801 0.49609 0.0
C1751 C 0.3058 0.31679 0.47137 0.0
C1752 C 0.29522 0.33019 0.44558 0.0
H1753 H 0.22492 0.30976 0.41344 0.0
H1754 H 0.24222 0.31586 0.43337 0.0
H1755 H 0.2903 0.32776 0.42408 0.0
H1756 H 0.29971 0.33615 0.50517 0.0
H1757 H 0.2912 0.34555 0.48359 0.0
H1758 H 0.27002 0.33587 0.46873 0.0
C1759 C 0.24573 0.32013 0.42362 0.0
C1760 C 0.28591 0.33002 0.43373 0.0
C1761 C 0.23587 0.31651 0.41223 0.0
C1762 C 0.30175 0.33078 0.49581 0.0
C1763 C 0.29678 0.33611 0.48344 0.0
C1764 C 0.27483 0.33462 0.45906 0.0
C1765 C 0.26012 0.3287 0.42236 0.0
C1766 C 0.2708 0.3316 0.43449 0.0
C1767 C 0.29809 0.32873 0.47112 0.0
C1768 C 0.2896 0.33189 0.45843 0.0
H1769 H 0.25784 0.33387 0.38806 0.0
H1770 H 0.27531 0.34033 0.40811 0.0
H1771 H 0.25408 0.3361 0.44814 0.0
H1772 H 0.31589 0.30175 0.48352 0.0
H1773 H 0.30697 0.31074 0.46214 0.0
C1774 C 0.2252 0.64925 0.37746 0.0
C1775 C 0.22169 0.65871 0.3671 0.0
C1776 C 0.23093 0.6548 0.39032 0.0
C1777 C 0.23446 0.68718 0.41361 0.0
H1778 H 0.2672 0.67074 0.43076 0.0
C1779 C 0.26699 0.7122 0.46336 0.0
C1780 C 0.27166 0.70247 0.47295 0.0
C1781 C 0.26073 0.70707 0.4505 0.0
C1782 C 0.25792 0.67534 0.42624 0.0
H1783 H 0.22125 0.68154 0.36241 0.0
H1784 H 0.23115 0.69124 0.38493 0.0
H1785 H 0.25648 0.66155 0.40846 0.0
H1786 H 0.27308 0.67963 0.4765 0.0
H1787 H 0.26204 0.67064 0.4542 0.0
H1788 H 0.23584 0.70092 0.43145 0.0
C1789 C 0.2294 0.67946 0.38306 0.0
C1790 C 0.25177 0.67007 0.4134 0.0
C1791 C 0.2237 0.67389 0.37013 0.0
C1792 C 0.26981 0.68746 0.46933 0.0
C1793 C 0.26349 0.68232 0.45649 0.0
C1794 C 0.24058 0.69243 0.4265 0.0
C1795 C 0.23327 0.67 0.39328 0.0
C1796 C 0.23991 0.67587 0.40691 0.0
C1797 C 0.2589 0.69205 0.44685 0.0
C1798 C 0.25238 0.68655 0.43304 0.0
H1799 H 0.22349 0.63746 0.37565 0.0
H1800 H 0.23345 0.64713 0.398 0.0
H1801 H 0.22523 0.6918 0.40901 0.0
H1802 H 0.26846 0.72387 0.46567 0.0
H1803 H 0.2576 0.71496 0.44331 0.0
C1804 C 0.80788 0.69661 0.36458 0.0
C1805 C 0.82329 0.69961 0.36233 0.0
C1806 C 0.80291 0.69905 0.37749 0.0
C1807 C 0.81463 0.72233 0.40784 0.0
H1808 H 0.78245 0.6966 0.42488 0.0
C1809 C 0.79779 0.736 0.46105 0.0
C1810 C 0.78236 0.73384 0.46331 0.0
C1811 C 0.80284 0.73027 0.44936 0.0
C1812 C 0.79135 0.70397 0.42019 0.0
H1813 H 0.84568 0.70701 0.37151 0.0
H1814 H 0.83707 0.71121 0.39411 0.0
H1815 H 0.79113 0.68919 0.40321 0.0
H1816 H 0.76012 0.72367 0.45526 0.0
H1817 H 0.76887 0.71389 0.43463 0.0
H1818 H 0.81469 0.7373 0.42447 0.0
C1819 C 0.82878 0.7071 0.38598 0.0
C1820 C 0.79634 0.6997 0.40781 0.0
C1821 C 0.83372 0.70461 0.37312 0.0
C1822 C 0.77208 0.72542 0.45382 0.0
C1823 C 0.77712 0.71979 0.44202 0.0
C1824 C 0.8096 0.72663 0.42012 0.0
C1825 C 0.81331 0.70464 0.38825 0.0
C1826 C 0.80807 0.70883 0.40152 0.0
C1827 C 0.79256 0.72237 0.43953 0.0
C1828 C 0.79793 0.71751 0.4265 0.0
H1829 H 0.79969 0.69283 0.35629 0.0
H1830 H 0.79092 0.69715 0.37889 0.0
H1831 H 0.82346 0.72977 0.40311 0.0
H1832 H 0.80597 0.74219 0.46833 0.0
H1833 H 0.81483 0.73215 0.44799 0.0
C1834 C 0.83982 0.33236 0.39016 0.0
C1835 C 0.83961 0.32231 0.37935 0.0
C1836 C 0.83367 0.32768 0.40251 0.0
C1837 C 0.82133 0.29309 0.42195 0.0
H1838 H 0.80586 0.31966 0.44588 0.0
C1839 C 0.79304 0.27332 0.47147 0.0
C1840 C 0.79964 0.28112 0.48326 0.0
C1841 C 0.79622 0.27888 0.45853 0.0
C1842 C 0.81014 0.31212 0.43928 0.0
H1843 H 0.83221 0.29966 0.37272 0.0
H1844 H 0.82074 0.2916 0.39382 0.0
H1845 H 0.81431 0.32811 0.42368 0.0
H1846 H 0.81408 0.30127 0.49067 0.0
H1847 H 0.81918 0.31119 0.46808 0.0
H1848 H 0.81676 0.27702 0.43749 0.0
C1849 C 0.8262 0.30298 0.39315 0.0
C1850 C 0.81512 0.31698 0.42656 0.0
C1851 C 0.83265 0.30761 0.38095 0.0
C1852 C 0.80878 0.295 0.4818 0.0
C1853 C 0.8117 0.3007 0.46886 0.0
C1854 C 0.81607 0.28817 0.43452 0.0
C1855 C 0.82687 0.31285 0.40428 0.0
C1856 C 0.82094 0.30758 0.4177 0.0
C1857 C 0.80581 0.2925 0.45708 0.0
C1858 C 0.81053 0.29764 0.44339 0.0
H1859 H 0.84525 0.34374 0.38923 0.0
H1860 H 0.83468 0.33564 0.41078 0.0
H1861 H 0.82604 0.28554 0.41573 0.0
H1862 H 0.78607 0.26253 0.47218 0.0
H1863 H 0.79144 0.27236 0.44963 0.0
C1864 C 0.13251 0.6791 0.70114 0.0
C1865 C 0.14582 0.6893 0.69975 0.0
C1866 C 0.12114 0.68265 0.70903 0.0
C1867 C 0.11266 0.71001 0.73451 0.0
H1868 H 0.07197 0.69884 0.71865 0.0
C1869 C 0.06297 0.73642 0.75198 0.0
C1870 C 0.04868 0.72739 0.75243 0.0
C1871 C 0.07502 0.73108 0.74654 0.0
C1872 C 0.08322 0.7019 0.72336 0.0
H1873 H 0.15791 0.71103 0.70555 0.0
H1874 H 0.13817 0.71732 0.71928 0.0
H1875 H 0.09261 0.69041 0.70799 0.0
H1876 H 0.0361 0.70551 0.74743 0.0
H1877 H 0.05706 0.6962 0.73825 0.0
H1878 H 0.10323 0.72171 0.74978 0.0
C1879 C 0.13649 0.70646 0.71457 0.0
C1880 C 0.09511 0.69702 0.71724 0.0
C1881 C 0.14784 0.70288 0.70671 0.0
C1882 C 0.04689 0.71281 0.74741 0.0
C1883 C 0.05893 0.70749 0.74196 0.0
C1884 C 0.10076 0.71491 0.74064 0.0
C1885 C 0.12281 0.69654 0.71558 0.0
C1886 C 0.11004 0.70106 0.72266 0.0
C1887 C 0.07315 0.71656 0.74136 0.0
C1888 C 0.08586 0.71101 0.7351 0.0
H1889 H 0.13063 0.66863 0.69569 0.0
H1890 H 0.1109 0.67463 0.70972 0.0
H1891 H 0.12395 0.71321 0.73912 0.0
H1892 H 0.0649 0.74763 0.75585 0.0
H1893 H 0.08574 0.73847 0.74615 0.0
C1894 C 0.8557 0.65596 0.68502 0.0
C1895 C 0.85718 0.65301 0.67114 0.0
C1896 C 0.85017 0.64461 0.69372 0.0
C1897 C 0.82579 0.60917 0.6949 0.0
H1898 H 0.85025 0.60182 0.72679 0.0
C1899 C 0.80934 0.55742 0.72703 0.0
C1900 C 0.8132 0.55829 0.74103 0.0
C1901 C 0.81449 0.56919 0.71865 0.0
C1902 C 0.8431 0.60385 0.7181 0.0
H1903 H 0.85401 0.6356 0.6557 0.0
H1904 H 0.84369 0.61601 0.67082 0.0
H1905 H 0.85936 0.62221 0.71205 0.0
H1906 H 0.82501 0.57219 0.7574 0.0
H1907 H 0.83346 0.59308 0.74299 0.0
H1908 H 0.80926 0.59127 0.70106 0.0
C1909 C 0.84694 0.62715 0.67487 0.0
C1910 C 0.8484 0.61548 0.70962 0.0
C1911 C 0.85277 0.63842 0.66621 0.0
C1912 C 0.82207 0.57123 0.74658 0.0
C1913 C 0.82697 0.58314 0.73828 0.0
C1914 C 0.82033 0.59772 0.70352 0.0
C1915 C 0.8457 0.63014 0.6887 0.0
C1916 C 0.83985 0.61814 0.69789 0.0
C1917 C 0.82336 0.58226 0.72415 0.0
C1918 C 0.82896 0.59479 0.71519 0.0
H1919 H 0.85864 0.66706 0.68918 0.0
H1920 H 0.84918 0.64718 0.70435 0.0
H1921 H 0.81895 0.61113 0.68596 0.0
H1922 H 0.80265 0.54747 0.72251 0.0
H1923 H 0.81172 0.56789 0.70783 0.0
C1924 C 0.92148 0.33218 0.69064 0.0
C1925 C 0.90822 0.33331 0.69708 0.0
C1926 C 0.93313 0.32658 0.6975 0.0
C1927 C 0.94775 0.31668 0.73185 0.0
H1928 H 0.96832 0.29196 0.71036 0.0
C1929 C 1.00003 0.294 0.75363 0.0
C1930 C 1.00192 0.27992 0.74928 0.0
C1931 C 0.98859 0.30071 0.74766 0.0
C1932 C 0.96262 0.29868 0.7166 0.0
H1933 H 0.89702 0.32985 0.71596 0.0
H1934 H 0.91726 0.3198 0.72795 0.0
H1935 H 0.94858 0.30328 0.69961 0.0
H1936 H 0.99289 0.26173 0.73544 0.0
H1937 H 0.97285 0.27322 0.72521 0.0
H1938 H 0.9615 0.31162 0.74895 0.0
C1939 C 0.91878 0.32345 0.71762 0.0
C1940 C 0.9514 0.30542 0.71035 0.0
C1941 C 0.90714 0.32921 0.71075 0.0
C1942 C 0.99194 0.27267 0.7389 0.0
C1943 C 0.98044 0.27931 0.733 0.0
C1944 C 0.95895 0.30986 0.73813 0.0
C1945 C 0.93183 0.32177 0.71099 0.0
C1946 C 0.94381 0.31459 0.71784 0.0
C1947 C 0.97863 0.29349 0.73721 0.0
C1948 C 0.96658 0.30076 0.7306 0.0
H1949 H 0.92275 0.33545 0.68016 0.0
H1950 H 0.94313 0.32591 0.69214 0.0
H1951 H 0.94229 0.32373 0.73797 0.0
H1952 H 1.00761 0.30001 0.76146 0.0
H1953 H 0.98778 0.3117 0.75106 0.0
C1954 C 0.21507 0.37943 0.69362 0.0
C1955 C 0.22346 0.36846 0.69706 0.0
C1956 C 0.22201 0.39422 0.69364 0.0
C1957 C 0.25908 0.41987 0.69669 0.0
H1958 H 0.23629 0.44408 0.71637 0.0
C1959 C 0.28558 0.47313 0.72684 0.0
C1960 C 0.27693 0.48423 0.72809 0.0
C1961 C 0.27969 0.4601 0.71956 0.0
C1962 C 0.24273 0.43763 0.71059 0.0
H1963 H 0.24581 0.3642 0.70244 0.0
H1964 H 0.25794 0.39006 0.70277 0.0
H1965 H 0.22474 0.41917 0.70967 0.0
H1966 H 0.2559 0.49098 0.72167 0.0
H1967 H 0.24579 0.46845 0.70873 0.0
H1968 H 0.2773 0.43835 0.69814 0.0
C1969 C 0.24604 0.38727 0.69982 0.0
C1970 C 0.23608 0.42329 0.70673 0.0
C1971 C 0.2391 0.37245 0.69967 0.0
C1972 C 0.26276 0.48253 0.72106 0.0
C1973 C 0.25693 0.46959 0.7137 0.0
C1974 C 0.26577 0.43429 0.70058 0.0
C1975 C 0.23747 0.39837 0.69727 0.0
C1976 C 0.24422 0.41413 0.69991 0.0
C1977 C 0.26508 0.45799 0.7133 0.0
C1978 C 0.25772 0.44326 0.70776 0.0
H1979 H 0.20302 0.37661 0.69137 0.0
H1980 H 0.21515 0.40245 0.6913 0.0
H1981 H 0.26561 0.41315 0.69132 0.0
H1982 H 0.29655 0.47411 0.73214 0.0
H1983 H 0.28624 0.45137 0.71953 0.0
C1984 C 0.16438 0.31457 0.35781 0.0
C1985 C 0.17521 0.32244 0.34963 0.0
C1986 C 0.14981 0.30918 0.35247 0.0
C1987 C 0.1221 0.31282 0.32436 0.0
H1988 H 0.10552 0.27255 0.33331 0.0
C1989 C 0.06688 0.27942 0.29845 0.0
C1990 C 0.05756 0.26985 0.30675 0.0
C1991 C 0.08096 0.2869 0.30359 0.0
C1992 C 0.10987 0.28388 0.33085 0.0
H1993 H 0.17909 0.33114 0.32948 0.0
H1994 H 0.15351 0.32171 0.32013 0.0
H1995 H 0.13051 0.28371 0.34244 0.0
H1996 H 0.05537 0.26121 0.32711 0.0
H1997 H 0.07967 0.2744 0.33609 0.0
H1998 H 0.10136 0.31292 0.31274 0.0
C1999 C 0.15634 0.31981 0.33072 0.0
C2000 C 0.12422 0.29027 0.33608 0.0
C2001 C 0.17097 0.32521 0.33607 0.0
C2002 C 0.06235 0.26836 0.3204 0.0
C2003 C 0.07633 0.27587 0.32553 0.0
C2004 C 0.10767 0.30642 0.31913 0.0
C2005 C 0.14568 0.31153 0.33881 0.0
C2006 C 0.13047 0.30484 0.33298 0.0
C2007 C 0.08596 0.28498 0.31713 0.0
C2008 C 0.10135 0.2919 0.32241 0.0
H2009 H 0.16719 0.31254 0.36838 0.0
H2010 H 0.14176 0.3031 0.35904 0.0
H2011 H 0.1266 0.3241 0.32186 0.0
H2012 H 0.06351 0.28079 0.28788 0.0
H2013 H 0.08814 0.29378 0.29683 0.0
C2014 C 0.22829 0.61152 0.33726 0.0
C2015 C 0.22436 0.62266 0.32886 0.0
C2016 C 0.23414 0.5998 0.33181 0.0
C2017 C 0.25234 0.58832 0.30132 0.0
H2018 H 0.24226 0.54963 0.31695 0.0
C2019 C 0.27519 0.53744 0.28112 0.0
C2020 C 0.28184 0.52988 0.29143 0.0
C2021 C 0.2663 0.54787 0.28447 0.0
C2022 C 0.24519 0.56037 0.31246 0.0
H2023 H 0.22388 0.63019 0.30804 0.0
H2024 H 0.23363 0.60961 0.29852 0.0
H2025 H 0.23087 0.56976 0.32524 0.0
H2026 H 0.2838 0.52674 0.31319 0.0
H2027 H 0.26815 0.54446 0.31896 0.0
H2028 H 0.26673 0.57883 0.28857 0.0
C2029 C 0.23235 0.61 0.30938 0.0
C2030 C 0.23873 0.57197 0.31729 0.0
C2031 C 0.22656 0.62175 0.31484 0.0
C2032 C 0.2788 0.53237 0.30501 0.0
C2033 C 0.26977 0.54252 0.30832 0.0
C2034 C 0.25873 0.57667 0.29643 0.0
C2035 C 0.2362 0.59881 0.31777 0.0
C2036 C 0.24242 0.58621 0.31198 0.0
C2037 C 0.26367 0.55067 0.29816 0.0
C2038 C 0.25546 0.5626 0.30211 0.0
H2039 H 0.22663 0.61169 0.34806 0.0
H2040 H 0.23718 0.59158 0.33868 0.0
H2041 H 0.25561 0.59912 0.29705 0.0
H2042 H 0.27748 0.53587 0.27058 0.0
H2043 H 0.26169 0.55392 0.27639 0.0
C2044 C 0.88686 0.68555 0.30685 0.0
C2045 C 0.88183 0.68962 0.31935 0.0
C2046 C 0.90162 0.69077 0.30338 0.0
C2047 C 0.93338 0.72118 0.31107 0.0
H2048 H 0.95627 0.69642 0.2921 0.0
C2049 C 0.99488 0.74213 0.2993 0.0
C2050 C 0.99897 0.73937 0.2861 0.0
C2051 C 0.9812 0.73499 0.30393 0.0
C2052 C 0.94997 0.70349 0.29731 0.0
H2053 H 0.88846 0.70204 0.33814 0.0
H2054 H 0.91427 0.71115 0.33209 0.0
H2055 H 0.93119 0.68597 0.29929 0.0
H2056 H 0.99214 0.72654 0.26754 0.0
H2057 H 0.9681 0.71412 0.2756 0.0
H2058 H 0.95202 0.73871 0.309 0.0
C2059 C 0.90672 0.70409 0.3249 0.0
C2060 C 0.93561 0.69751 0.30142 0.0
C2061 C 0.89195 0.69888 0.32837 0.0
C2062 C 0.98931 0.72889 0.27777 0.0
C2063 C 0.97557 0.72175 0.28241 0.0
C2064 C 0.9477 0.72713 0.30698 0.0
C2065 C 0.91169 0.70018 0.31231 0.0
C2066 C 0.92714 0.70631 0.30831 0.0
C2067 C 0.97125 0.72494 0.29546 0.0
C2068 C 0.95616 0.71837 0.30003 0.0
H2069 H 0.87927 0.67863 0.29958 0.0
H2070 H 0.90501 0.68774 0.29352 0.0
H2071 H 0.92705 0.72833 0.31612 0.0
H2072 H 1.00213 0.75003 0.30603 0.0
H2073 H 0.97834 0.73747 0.31413 0.0
C2074 C 0.81229 0.37058 0.33567 0.0
C2075 C 0.82786 0.37439 0.3387 0.0
C2076 C 0.80385 0.38146 0.33195 0.0
C2077 C 0.80875 0.41809 0.31625 0.0
H2078 H 0.76871 0.41912 0.32793 0.0
C2079 C 0.77746 0.46523 0.3002 0.0
C2080 C 0.7618 0.46184 0.29737 0.0
C2081 C 0.78528 0.45482 0.30607 0.0
C2082 C 0.77981 0.41892 0.3244 0.0
H2083 H 0.84684 0.39238 0.34048 0.0
H2084 H 0.8322 0.41139 0.33412 0.0
H2085 H 0.78252 0.40051 0.33691 0.0
H2086 H 0.74212 0.44468 0.29851 0.0
H2087 H 0.75572 0.42646 0.30847 0.0
H2088 H 0.80603 0.43617 0.3035 0.0
C2089 C 0.82643 0.40007 0.33455 0.0
C2090 C 0.78775 0.40824 0.32961 0.0
C2091 C 0.8348 0.38922 0.33834 0.0
C2092 C 0.75414 0.44777 0.3007 0.0
C2093 C 0.76198 0.4373 0.30646 0.0
C2094 C 0.80079 0.42866 0.31096 0.0
C2095 C 0.8109 0.39631 0.331 0.0
C2096 C 0.80236 0.40772 0.32564 0.0
C2097 C 0.7777 0.44062 0.30918 0.0
C2098 C 0.7862 0.4293 0.31496 0.0
H2099 H 0.80676 0.35915 0.33566 0.0
H2100 H 0.79196 0.37814 0.3292 0.0
H2101 H 0.81985 0.41786 0.31273 0.0
H2102 H 0.78369 0.47601 0.29797 0.0
H2103 H 0.7973 0.45799 0.30825 0.0
C2104 C 0.21515 0.65274 0.69066 0.0
C2105 C 0.19966 0.65289 0.68841 0.0
C2106 C 0.22018 0.64143 0.698 0.0
C2107 C 0.20816 0.6113 0.72223 0.0
H2108 H 0.24214 0.59593 0.70934 0.0
C2109 C 0.22565 0.55803 0.74377 0.0
C2110 C 0.24111 0.55745 0.74537 0.0
C2111 C 0.22067 0.56982 0.73716 0.0
C2112 C 0.23276 0.60018 0.71322 0.0
H2113 H 0.17735 0.64113 0.69232 0.0
H2114 H 0.1861 0.62144 0.70511 0.0
H2115 H 0.23335 0.61608 0.69743 0.0
H2116 H 0.26342 0.56922 0.74141 0.0
H2117 H 0.25477 0.58972 0.72996 0.0
H2118 H 0.20757 0.59537 0.738 0.0
C2119 C 0.1944 0.63019 0.70132 0.0
C2120 C 0.2277 0.61179 0.70636 0.0
C2121 C 0.18936 0.64152 0.69397 0.0
C2122 C 0.25143 0.5691 0.74022 0.0
C2123 C 0.24644 0.5809 0.73361 0.0
C2124 C 0.21324 0.59969 0.72909 0.0
C2125 C 0.20989 0.62989 0.70333 0.0
C2126 C 0.21532 0.61753 0.71075 0.0
C2127 C 0.23098 0.58143 0.73194 0.0
C2128 C 0.22562 0.59394 0.72469 0.0
H2129 H 0.22346 0.66144 0.68679 0.0
H2130 H 0.23219 0.6418 0.69955 0.0
H2131 H 0.19875 0.61553 0.72606 0.0
H2132 H 0.21731 0.54922 0.74739 0.0
H2133 H 0.20867 0.56967 0.7359 0.0
C2134 C 0.23342 0.36863 0.36338 0.0
C2135 C 0.22286 0.36038 0.35395 0.0
C2136 C 0.24228 0.38185 0.35963 0.0
C2137 C 0.24375 0.41173 0.33531 0.0
H2138 H 0.28717 0.41658 0.34096 0.0
C2139 C 0.28293 0.45553 0.30703 0.0
C2140 C 0.29642 0.4629 0.31364 0.0
C2141 C 0.27408 0.44363 0.31303 0.0
C2142 C 0.27507 0.41555 0.33952 0.0
H2143 H 0.21341 0.35973 0.33314 0.0
H2144 H 0.22849 0.383 0.32682 0.0
H2145 H 0.27118 0.39493 0.34979 0.0
H2146 H 0.31111 0.46315 0.33188 0.0
H2147 H 0.29537 0.44269 0.34254 0.0
H2148 H 0.24748 0.43232 0.32518 0.0
C2149 C 0.22987 0.37918 0.33711 0.0
C2150 C 0.26592 0.40313 0.34455 0.0
C2151 C 0.22118 0.36587 0.34077 0.0
C2152 C 0.30077 0.45793 0.32648 0.0
C2153 C 0.2918 0.44606 0.33256 0.0
C2154 C 0.25285 0.42422 0.33044 0.0
C2155 C 0.24059 0.38722 0.34645 0.0
C2156 C 0.25021 0.40098 0.34225 0.0
C2157 C 0.2783 0.4388 0.32592 0.0
C2158 C 0.26864 0.42614 0.33221 0.0
H2159 H 0.23485 0.3649 0.37369 0.0
H2160 H 0.25038 0.38793 0.36705 0.0
H2161 H 0.23164 0.41042 0.33359 0.0
H2162 H 0.27895 0.45895 0.29724 0.0
H2163 H 0.26393 0.43814 0.30746 0.0
C2164 C 0.1564 0.67589 0.3309 0.0
C2165 C 0.17112 0.67929 0.32656 0.0
C2166 C 0.14612 0.68532 0.32803 0.0
C2167 C 0.13885 0.71335 0.30306 0.0
H2168 H 0.10805 0.71959 0.32722 0.0
C2169 C 0.08667 0.73741 0.28416 0.0
C2170 C 0.08152 0.74753 0.29269 0.0
C2171 C 0.09796 0.72976 0.28884 0.0
C2172 C 0.11664 0.71807 0.32038 0.0
H2173 H 0.18686 0.6952 0.31612 0.0
H2174 H 0.16906 0.71188 0.3113 0.0
H2175 H 0.12744 0.70576 0.33505 0.0
H2176 H 0.08425 0.75733 0.31297 0.0
H2177 H 0.10402 0.74414 0.32105 0.0
H2178 H 0.12814 0.72568 0.28841 0.0
C2179 C 0.16533 0.7019 0.31681 0.0
C2180 C 0.12769 0.71001 0.32483 0.0
C2181 C 0.17559 0.69247 0.31971 0.0
C2182 C 0.08799 0.74975 0.30605 0.0
C2183 C 0.09924 0.74205 0.31075 0.0
C2184 C 0.12778 0.72134 0.2986 0.0
C2185 C 0.15033 0.69829 0.32064 0.0
C2186 C 0.13893 0.70747 0.31621 0.0
C2187 C 0.10441 0.73196 0.3022 0.0
C2188 C 0.11645 0.72375 0.30715 0.0
H2189 H 0.15264 0.66563 0.33598 0.0
H2190 H 0.13466 0.68207 0.33102 0.0
H2191 H 0.14716 0.71149 0.29605 0.0
H2192 H 0.08211 0.73549 0.27379 0.0
H2193 H 0.1015 0.72198 0.28199 0.0
C2194 C 0.84163 0.63794 0.32077 0.0
C2195 C 0.83583 0.65058 0.31709 0.0
C2196 C 0.83543 0.62427 0.31475 0.0
C2197 C 0.81725 0.60816 0.2833 0.0
H2198 H 0.80283 0.57342 0.30397 0.0
C2199 C 0.78336 0.55513 0.25777 0.0
C2200 C 0.78392 0.54155 0.26389 0.0
C2201 C 0.79095 0.56823 0.264 0.0
C2202 C 0.80711 0.5829 0.298 0.0
H2203 H 0.81903 0.65894 0.30442 0.0
H2204 H 0.80836 0.63503 0.29368 0.0
H2205 H 0.81318 0.59658 0.31587 0.0
H2206 H 0.79361 0.53086 0.28079 0.0
H2207 H 0.80757 0.55361 0.29129 0.0
H2208 H 0.8117 0.59457 0.26544 0.0
C2209 C 0.81757 0.6357 0.3013 0.0
C2210 C 0.8129 0.59619 0.30486 0.0
C2211 C 0.82356 0.6493 0.30752 0.0
C2212 C 0.79292 0.54122 0.27592 0.0
C2213 C 0.80077 0.55429 0.282 0.0
C2214 C 0.81174 0.59482 0.27643 0.0
C2215 C 0.82358 0.62312 0.30475 0.0
C2216 C 0.81783 0.60895 0.29756 0.0
C2217 C 0.79952 0.56801 0.27636 0.0
C2218 C 0.8064 0.58203 0.28367 0.0
H2219 H 0.85113 0.63871 0.3281 0.0
H2220 H 0.84025 0.61471 0.31753 0.0
H2221 H 0.82121 0.61786 0.27747 0.0
H2222 H 0.77635 0.55573 0.24859 0.0
H2223 H 0.7895 0.57853 0.2594 0.0
C2224 C 0.8778 0.30056 0.34774 0.0
C2225 C 0.87879 0.31588 0.34645 0.0
C2226 C 0.88932 0.29351 0.34346 0.0
C2227 C 0.92152 0.29843 0.32092 0.0
H2228 H 0.93417 0.26722 0.34221 0.0
C2229 C 0.97432 0.27408 0.3087 0.0
C2230 C 0.97382 0.25888 0.31042 0.0
C2231 C 0.96272 0.28094 0.31307 0.0
C2232 C 0.93068 0.27578 0.33602 0.0
H2233 H 0.8931 0.33579 0.33998 0.0
H2234 H 0.91302 0.32355 0.33249 0.0
H2235 H 0.91405 0.27915 0.34986 0.0
H2236 H 0.96037 0.23899 0.31786 0.0
H2237 H 0.9402 0.25085 0.32535 0.0
H2238 H 0.93806 0.29504 0.30704 0.0
C2239 C 0.9032 0.31691 0.33658 0.0
C2240 C 0.91911 0.28265 0.34043 0.0
C2241 C 0.89173 0.32394 0.34088 0.0
C2242 C 0.96132 0.25074 0.31656 0.0
C2243 C 0.94971 0.25758 0.32089 0.0
C2244 C 0.93306 0.29154 0.31648 0.0
C2245 C 0.90216 0.30158 0.33775 0.0
C2246 C 0.91438 0.2941 0.33297 0.0
C2247 C 0.95024 0.2728 0.31925 0.0
C2248 C 0.93785 0.28013 0.32397 0.0
H2249 H 0.86797 0.29392 0.35181 0.0
H2250 H 0.88802 0.28168 0.34439 0.0
H2251 H 0.91805 0.30702 0.31477 0.0
H2252 H 0.98381 0.28078 0.3042 0.0
H2253 H 0.9637 0.29271 0.31181 0.0
C2254 C 0.85669 0.38111 0.72053 0.0
C2255 C 0.86831 0.38344 0.71148 0.0
C2256 C 0.85359 0.3928 0.72842 0.0
C2257 C 0.86871 0.43119 0.74075 0.0
H2258 H 0.82645 0.43349 0.74261 0.0
C2259 C 0.84811 0.47506 0.7741 0.0
C2260 C 0.83626 0.48165 0.76863 0.0
C2261 C 0.85237 0.4631 0.76744 0.0
C2262 C 0.83831 0.43309 0.74214 0.0
H2263 H 0.88596 0.39964 0.70366 0.0
H2264 H 0.88073 0.4201 0.71754 0.0
H2265 H 0.83363 0.41264 0.73095 0.0
H2266 H 0.81962 0.48069 0.75178 0.0
H2267 H 0.82704 0.45985 0.74018 0.0
H2268 H 0.87337 0.4518 0.75177 0.0
C2269 C 0.87409 0.40924 0.71872 0.0
C2270 C 0.84244 0.421 0.73559 0.0
C2271 C 0.87714 0.39753 0.71078 0.0
C2272 C 0.82878 0.47591 0.75632 0.0
C2273 C 0.83299 0.46388 0.74969 0.0
C2274 C 0.86457 0.44325 0.74739 0.0
C2275 C 0.86201 0.40712 0.7274 0.0
C2276 C 0.8577 0.41987 0.73477 0.0
C2277 C 0.84485 0.4573 0.75515 0.0
C2278 C 0.84931 0.44441 0.74813 0.0
H2279 H 0.84958 0.37037 0.72109 0.0
H2280 H 0.84437 0.39067 0.73512 0.0
H2281 H 0.88056 0.43069 0.7404 0.0
H2282 H 0.85413 0.47914 0.78356 0.0
H2283 H 0.86142 0.45824 0.77205 0.0
C2284 C 0.17204 0.34192 0.7185 0.0
C2285 C 0.18415 0.33442 0.72067 0.0
C2286 C 0.15982 0.3394 0.72681 0.0
C2287 C 0.14088 0.31144 0.74983 0.0
H2288 H 0.11885 0.34219 0.75909 0.0
C2289 C 0.08979 0.29875 0.78228 0.0
C2290 C 0.0767 0.30309 0.77657 0.0
C2291 C 0.10387 0.30452 0.77753 0.0
C2292 C 0.12491 0.33351 0.75657 0.0
H2293 H 0.19328 0.31886 0.73354 0.0
H2294 H 0.17211 0.31463 0.74822 0.0
H2295 H 0.14181 0.34836 0.74671 0.0
H2296 H 0.0683 0.31778 0.76218 0.0
H2297 H 0.09293 0.32784 0.75389 0.0
H2298 H 0.12396 0.29658 0.75955 0.0
C2299 C 0.17183 0.32218 0.73989 0.0
C2300 C 0.13801 0.33701 0.74944 0.0
C2301 C 0.18397 0.32461 0.73151 0.0
C2302 C 0.07815 0.31416 0.76676 0.0
C2303 C 0.09227 0.31996 0.76203 0.0
C2304 C 0.12788 0.30797 0.75703 0.0
C2305 C 0.15949 0.32939 0.73754 0.0
C2306 C 0.14607 0.32597 0.74585 0.0
C2307 C 0.10519 0.31479 0.76702 0.0
C2308 C 0.11966 0.31893 0.76037 0.0
H2309 H 0.17183 0.34946 0.71015 0.0
H2310 H 0.15043 0.34497 0.72456 0.0
H2311 H 0.14658 0.30259 0.74702 0.0
H2312 H 0.08911 0.29036 0.78996 0.0
H2313 H 0.11368 0.30054 0.78175 0.0
C2314 C 0.90664 0.70259 0.65784 0.0
C2315 C 0.89243 0.70022 0.66333 0.0
C2316 C 0.9185 0.71279 0.66398 0.0
C2317 C 0.94144 0.73826 0.67639 0.0
H2318 H 0.94252 0.73912 0.7158 0.0
C2319 C 0.97921 0.76709 0.7268 0.0
C2320 C 0.99318 0.76304 0.72464 0.0
C2321 C 0.96688 0.76259 0.71764 0.0
C2322 C 0.94228 0.73922 0.70479 0.0
H2323 H 0.87905 0.70715 0.67886 0.0
H2324 H 0.89946 0.72546 0.68922 0.0
H2325 H 0.92091 0.725 0.70315 0.0
H2326 H 1.00548 0.75226 0.71051 0.0
H2327 H 0.98387 0.74441 0.69449 0.0
H2328 H 0.96339 0.75192 0.67829 0.0
C2329 C 0.90174 0.7191 0.68054 0.0
C2330 C 0.92983 0.73114 0.69749 0.0
C2331 C 0.89 0.70872 0.67457 0.0
C2332 C 0.99486 0.75549 0.71252 0.0
C2333 C 0.9825 0.75103 0.70331 0.0
C2334 C 0.95405 0.74621 0.68375 0.0
C2335 C 0.91628 0.72095 0.6756 0.0
C2336 C 0.92924 0.73046 0.68319 0.0
C2337 C 0.96825 0.75402 0.7061 0.0
C2338 C 0.95459 0.7467 0.69803 0.0
H2339 H 0.90874 0.69607 0.6492 0.0
H2340 H 0.92953 0.71374 0.65996 0.0
H2341 H 0.94132 0.73816 0.66539 0.0
H2342 H 0.97755 0.77306 0.73594 0.0
H2343 H 0.95607 0.76525 0.71992 0.0
C2344 C 0.71325 0.19511 0.63683 0.0
C2345 C 0.71281 0.18016 0.63989 0.0
C2346 C 0.71911 0.20097 0.62474 0.0
C2347 C 0.72827 0.18964 0.59022 0.0
H2348 H 0.75196 0.22905 0.58967 0.0
C2349 C 0.76581 0.20987 0.54631 0.0
C2350 C 0.76683 0.22445 0.5419 0.0
C2351 C 0.75782 0.20498 0.55765 0.0
C2352 C 0.74517 0.21811 0.58959 0.0
H2353 H 0.71839 0.15973 0.63249 0.0
H2354 H 0.72899 0.17 0.61169 0.0
H2355 H 0.74144 0.21952 0.61083 0.0
H2356 H 0.75996 0.24531 0.54589 0.0
H2357 H 0.74593 0.23675 0.5659 0.0
H2358 H 0.73227 0.18812 0.56906 0.0
C2359 C 0.72454 0.17718 0.61852 0.0
C2360 C 0.73914 0.21261 0.60176 0.0
C2361 C 0.71864 0.17131 0.6306 0.0
C2362 C 0.75931 0.23398 0.54897 0.0
C2363 C 0.7514 0.22911 0.5605 0.0
C2364 C 0.73435 0.1951 0.57811 0.0
C2365 C 0.72475 0.19207 0.61535 0.0
C2366 C 0.73075 0.19821 0.60229 0.0
C2367 C 0.75067 0.21456 0.56503 0.0
C2368 C 0.74305 0.20934 0.57766 0.0
H2369 H 0.70905 0.20234 0.64379 0.0
H2370 H 0.71896 0.21244 0.62266 0.0
H2371 H 0.72158 0.17865 0.5901 0.0
H2372 H 0.77145 0.20221 0.54112 0.0
H2373 H 0.75767 0.19378 0.56089 0.0
C2374 C 0.33401 0.2256 0.64381 0.0
C2375 C 0.34517 0.22787 0.6544 0.0
C2376 C 0.3358 0.23388 0.63205 0.0
C2377 C 0.35539 0.26828 0.61807 0.0
H2378 H 0.34313 0.24729 0.58388 0.0
C2379 C 0.337 0.29544 0.56896 0.0
C2380 C 0.33852 0.28873 0.55638 0.0
C2381 C 0.34203 0.28959 0.58105 0.0
C2382 C 0.34692 0.25335 0.59326 0.0
H2383 H 0.36682 0.24047 0.66139 0.0
H2384 H 0.37001 0.25517 0.64065 0.0
H2385 H 0.34337 0.23366 0.60481 0.0
H2386 H 0.34795 0.27173 0.54646 0.0
H2387 H 0.35719 0.26184 0.5675 0.0
H2388 H 0.35876 0.28804 0.60644 0.0
C2389 C 0.35986 0.24703 0.64146 0.0
C2390 C 0.34683 0.24553 0.60531 0.0
C2391 C 0.35808 0.23865 0.65327 0.0
C2392 C 0.34645 0.27699 0.55603 0.0
C2393 C 0.35165 0.27128 0.56809 0.0
C2394 C 0.35548 0.27616 0.60596 0.0
C2395 C 0.3488 0.24457 0.63066 0.0
C2396 C 0.35067 0.25291 0.61787 0.0
C2397 C 0.34881 0.27703 0.58077 0.0
C2398 C 0.35093 0.2688 0.59344 0.0
H2399 H 0.32397 0.2173 0.64457 0.0
H2400 H 0.32695 0.23192 0.62402 0.0
H2401 H 0.35841 0.27427 0.62761 0.0
H2402 H 0.33088 0.30448 0.56956 0.0
H2403 H 0.33958 0.29427 0.59061 0.0
C2404 C 0.36321 0.80273 0.65889 0.0
C2405 C 0.37185 0.81697 0.65894 0.0
C2406 C 0.35751 0.79554 0.6466 0.0
C2407 C 0.35134 0.80267 0.60922 0.0
H2408 H 0.34447 0.76004 0.60653 0.0
C2409 C 0.34001 0.76911 0.55822 0.0
C2410 C 0.32661 0.75862 0.55734 0.0
C2411 C 0.34536 0.77616 0.57064 0.0
C2412 C 0.34629 0.77195 0.60717 0.0
H2413 H 0.3817 0.83472 0.64624 0.0
H2414 H 0.3726 0.82201 0.62481 0.0
H2415 H 0.35456 0.77235 0.62793 0.0
H2416 H 0.30851 0.74709 0.5688 0.0
H2417 H 0.31819 0.75906 0.59069 0.0
H2418 H 0.34368 0.80211 0.58815 0.0
C2419 C 0.36954 0.81649 0.63417 0.0
C2420 C 0.35198 0.77907 0.61949 0.0
C2421 C 0.37492 0.82379 0.64647 0.0
C2422 C 0.31882 0.75517 0.5692 0.0
C2423 C 0.32438 0.76195 0.5817 0.0
C2424 C 0.346 0.79555 0.59682 0.0
C2425 C 0.36061 0.80227 0.63399 0.0
C2426 C 0.35457 0.79458 0.62077 0.0
C2427 C 0.33764 0.77261 0.58252 0.0
C2428 C 0.34336 0.78012 0.59569 0.0
H2429 H 0.3606 0.79727 0.6684 0.0
H2430 H 0.35046 0.78478 0.64707 0.0
H2431 H 0.35273 0.81456 0.60971 0.0
H2432 H 0.34617 0.77206 0.54922 0.0
H2433 H 0.35563 0.78431 0.571 0.0
C2434 C 0.68309 0.80947 0.62409 0.0
C2435 C 0.69179 0.81267 0.63629 0.0
C2436 C 0.69002 0.80869 0.61184 0.0
C2437 C 0.72552 0.80174 0.59863 0.0
H2438 H 0.70801 0.81338 0.56451 0.0
C2439 C 0.75177 0.79571 0.54695 0.0
C2440 C 0.74168 0.78969 0.5361 0.0
C2441 C 0.74643 0.79989 0.55919 0.0
C2442 C 0.71298 0.81001 0.57395 0.0
H2443 H 0.7144 0.81791 0.64552 0.0
H2444 H 0.72669 0.81685 0.62401 0.0
H2445 H 0.69762 0.81905 0.58585 0.0
H2446 H 0.71799 0.78325 0.52984 0.0
H2447 H 0.70876 0.79068 0.55107 0.0
H2448 H 0.74082 0.79263 0.58667 0.0
C2449 C 0.71451 0.81476 0.62386 0.0
C2450 C 0.70703 0.81325 0.58619 0.0
C2451 C 0.70752 0.81549 0.63614 0.0
C2452 C 0.72612 0.78804 0.53783 0.0
C2453 C 0.7208 0.79231 0.55003 0.0
C2454 C 0.73152 0.79858 0.58639 0.0
C2455 C 0.70582 0.8111 0.61158 0.0
C2456 C 0.71306 0.80894 0.59867 0.0
C2457 C 0.73089 0.79826 0.56085 0.0
C2458 C 0.72516 0.80247 0.5739 0.0
H2459 H 0.6709 0.80709 0.62408 0.0
H2460 H 0.68295 0.80562 0.60267 0.0
H2461 H 0.73031 0.79806 0.60802 0.0
H2462 H 0.76381 0.7974 0.54599 0.0
H2463 H 0.75449 0.80459 0.5673 0.0
C2464 C 0.73011 0.85237 0.38941 0.0
C2465 C 0.72962 0.84135 0.37946 0.0
C2466 C 0.74018 0.85312 0.4008 0.0
C2467 C 0.77302 0.83813 0.41576 0.0
H2468 H 0.75275 0.83965 0.4493 0.0
C2469 C 0.78744 0.80811 0.46403 0.0
C2470 C 0.78452 0.81349 0.47683 0.0
C2471 C 0.78458 0.81565 0.45222 0.0
C2472 C 0.7588 0.83957 0.44011 0.0
H2473 H 0.73938 0.82289 0.37303 0.0
H2474 H 0.75692 0.82402 0.39294 0.0
H2475 H 0.74056 0.84551 0.42803 0.0
H2476 H 0.77766 0.83172 0.48734 0.0
H2477 H 0.77287 0.84499 0.46669 0.0
H2478 H 0.791 0.83154 0.42787 0.0
C2479 C 0.74981 0.83227 0.39197 0.0
C2480 C 0.75177 0.84293 0.42786 0.0
C2481 C 0.73974 0.83154 0.3806 0.0
C2482 C 0.77988 0.82719 0.47763 0.0
C2483 C 0.77705 0.83476 0.46579 0.0
C2484 C 0.78008 0.83478 0.42804 0.0
C2485 C 0.74984 0.84279 0.4024 0.0
C2486 C 0.75857 0.84179 0.41549 0.0
C2487 C 0.7788 0.82877 0.45292 0.0
C2488 C 0.77283 0.835 0.4403 0.0
H2489 H 0.7223 0.86 0.38866 0.0
H2490 H 0.74005 0.86144 0.40858 0.0
H2491 H 0.77866 0.83738 0.40643 0.0
H2492 H 0.79112 0.79764 0.46304 0.0
H2493 H 0.78597 0.81064 0.4425 0.0
C2494 C 0.72611 0.17796 0.36725 0.0
C2495 C 0.7248 0.16277 0.36458 0.0
C2496 C 0.73181 0.18407 0.37999 0.0
C2497 C 0.74005 0.17403 0.41599 0.0
H2498 H 0.76759 0.21147 0.41719 0.0
C2499 C 0.7771 0.19557 0.4644 0.0
C2500 C 0.77865 0.21062 0.46779 0.0
C2501 C 0.77005 0.18998 0.45194 0.0
C2502 C 0.7598 0.20108 0.41707 0.0
H2503 H 0.72792 0.14206 0.37354 0.0
H2504 H 0.73814 0.15268 0.39547 0.0
H2505 H 0.7558 0.20142 0.39544 0.0
H2506 H 0.77424 0.23162 0.46048 0.0
H2507 H 0.76189 0.22187 0.43884 0.0
H2508 H 0.74424 0.1736 0.4376 0.0
C2509 C 0.73467 0.15992 0.38781 0.0
C2510 C 0.75298 0.19531 0.40457 0.0
C2511 C 0.72896 0.15383 0.37512 0.0
C2512 C 0.77309 0.21995 0.45831 0.0
C2513 C 0.76614 0.21437 0.44582 0.0
C2514 C 0.74692 0.17976 0.42847 0.0
C2515 C 0.73632 0.17516 0.39041 0.0
C2516 C 0.74307 0.18165 0.40383 0.0
C2517 C 0.76446 0.1993 0.44247 0.0
C2518 C 0.75695 0.19332 0.42918 0.0
H2519 H 0.72309 0.18521 0.35938 0.0
H2520 H 0.73271 0.19582 0.38165 0.0
H2521 H 0.73229 0.16362 0.41591 0.0
H2522 H 0.78114 0.18805 0.47147 0.0
H2523 H 0.76912 0.17834 0.44966 0.0
C2524 C 0.34272 0.21147 0.38761 0.0
C2525 C 0.3312 0.20488 0.37828 0.0
C2526 C 0.33946 0.21471 0.40086 0.0
C2527 C 0.3113 0.20642 0.42675 0.0
H2528 H 0.32972 0.24524 0.44075 0.0
C2529 C 0.29453 0.23189 0.47657 0.0
C2530 C 0.3061 0.24069 0.48463 0.0
C2531 C 0.29746 0.22638 0.4639 0.0
C2532 C 0.32465 0.23427 0.4371 0.0
H2533 H 0.3074 0.19612 0.37522 0.0
H2534 H 0.30157 0.20181 0.39855 0.0
H2535 H 0.33501 0.23763 0.41811 0.0
H2536 H 0.32994 0.24986 0.48611 0.0
H2537 H 0.33512 0.24014 0.46416 0.0
H2538 H 0.30095 0.20311 0.44583 0.0
C2539 C 0.31313 0.20439 0.39568 0.0
C2540 C 0.32767 0.22992 0.4241 0.0
C2541 C 0.31642 0.20118 0.38237 0.0
C2542 C 0.32074 0.24337 0.48 0.0
C2543 C 0.32369 0.23782 0.46741 0.0
C2544 C 0.30832 0.21077 0.43983 0.0
C2545 C 0.3246 0.21142 0.405 0.0
C2546 C 0.32111 0.21593 0.4188 0.0
C2547 C 0.31204 0.22951 0.45907 0.0
C2548 C 0.31504 0.22473 0.44518 0.0
H2549 H 0.35421 0.21436 0.38458 0.0
H2550 H 0.34857 0.21991 0.40785 0.0
H2551 H 0.30616 0.19553 0.42296 0.0
H2552 H 0.28311 0.22973 0.47981 0.0
H2553 H 0.28821 0.22013 0.45769 0.0
C2554 C 0.3351 0.83686 0.39874 0.0
C2555 C 0.33615 0.82896 0.38663 0.0
C2556 C 0.32956 0.82958 0.41038 0.0
C2557 C 0.32381 0.79275 0.42603 0.0
H2558 H 0.29738 0.80889 0.44939 0.0
C2559 C 0.29628 0.75812 0.46873 0.0
C2560 C 0.29623 0.76486 0.48155 0.0
C2561 C 0.2996 0.76654 0.45722 0.0
C2562 C 0.30486 0.80429 0.44305 0.0
H2563 H 0.33178 0.80714 0.37731 0.0
H2564 H 0.32224 0.79448 0.39753 0.0
H2565 H 0.30649 0.82235 0.42925 0.0
H2566 H 0.29897 0.78575 0.49233 0.0
H2567 H 0.305 0.80069 0.47209 0.0
H2568 H 0.3224 0.77482 0.43976 0.0
C2569 C 0.32591 0.80631 0.39811 0.0
C2570 C 0.3101 0.81201 0.43149 0.0
C2571 C 0.33142 0.81359 0.38649 0.0
C2572 C 0.29875 0.78031 0.48252 0.0
C2573 C 0.30227 0.78882 0.47093 0.0
C2574 C 0.31863 0.78509 0.43754 0.0
C2575 C 0.32498 0.81418 0.41025 0.0
C2576 C 0.31954 0.80626 0.42275 0.0
C2577 C 0.30324 0.78199 0.4582 0.0
C2578 C 0.30894 0.79063 0.44615 0.0
H2579 H 0.33883 0.84868 0.39934 0.0
H2580 H 0.3292 0.83599 0.41957 0.0
H2581 H 0.33136 0.78812 0.41978 0.0
H2582 H 0.2943 0.74622 0.46769 0.0
H2583 H 0.29976 0.76087 0.44757 0.0
C2584 C 0.65824 0.19444 0.70017 0.0
C2585 C 0.6573 0.17985 0.69564 0.0
C2586 C 0.64786 0.19814 0.70906 0.0
C2587 C 0.60912 0.18446 0.72006 0.0
H2588 H 0.61935 0.21696 0.74605 0.0
C2589 C 0.5653 0.2011 0.75538 0.0
C2590 C 0.56506 0.21627 0.75681 0.0
C2591 C 0.57699 0.19616 0.74896 0.0
C2592 C 0.61627 0.20792 0.73877 0.0
H2593 H 0.64506 0.15758 0.69697 0.0
H2594 H 0.62715 0.16386 0.71289 0.0
H2595 H 0.63915 0.20891 0.73366 0.0
H2596 H 0.57739 0.23805 0.75249 0.0
H2597 H 0.59772 0.22942 0.74153 0.0
H2598 H 0.58624 0.18349 0.72521 0.0
C2599 C 0.63574 0.17257 0.70946 0.0
C2600 C 0.62765 0.20328 0.73163 0.0
C2601 C 0.64612 0.16889 0.70049 0.0
C2602 C 0.5771 0.22631 0.75181 0.0
C2603 C 0.58884 0.22135 0.74548 0.0
C2604 C 0.59777 0.18903 0.72727 0.0
C2605 C 0.63623 0.18732 0.71363 0.0
C2606 C 0.62425 0.19158 0.72203 0.0
C2607 C 0.5889 0.2062 0.74386 0.0
C2608 C 0.60114 0.20092 0.73662 0.0
H2609 H 0.66659 0.20313 0.69633 0.0
H2610 H 0.64856 0.20963 0.7118 0.0
H2611 H 0.60592 0.17561 0.71261 0.0
H2612 H 0.55648 0.19295 0.75925 0.0
H2613 H 0.57675 0.18441 0.74809 0.0
C2614 C 0.34837 0.15641 0.694 0.0
C2615 C 0.35571 0.16799 0.70263 0.0
C2616 C 0.34496 0.14207 0.69882 0.0
C2617 C 0.3546 0.11819 0.72692 0.0
H2618 H 0.31651 0.09379 0.71499 0.0
C2619 C 0.33008 0.06359 0.75251 0.0
C2620 C 0.32351 0.05161 0.74393 0.0
C2621 C 0.33471 0.07756 0.7472 0.0
C2622 C 0.32726 0.10042 0.71829 0.0
H2623 H 0.36513 0.17368 0.72308 0.0
H2624 H 0.35893 0.1487 0.73161 0.0
H2625 H 0.32304 0.11867 0.70641 0.0
H2626 H 0.31714 0.04502 0.72291 0.0
H2627 H 0.325 0.06945 0.71371 0.0
H2628 H 0.35861 0.09995 0.73904 0.0
C2629 C 0.35609 0.15061 0.72103 0.0
C2630 C 0.33103 0.11468 0.71337 0.0
C2631 C 0.35961 0.16493 0.71617 0.0
C2632 C 0.3219 0.05398 0.72987 0.0
C2633 C 0.32643 0.06798 0.72458 0.0
C2634 C 0.35076 0.10396 0.73193 0.0
C2635 C 0.3487 0.13899 0.71242 0.0
C2636 C 0.34475 0.12376 0.71762 0.0
C2637 C 0.33279 0.07994 0.7332 0.0
C2638 C 0.33705 0.09493 0.72767 0.0
H2639 H 0.34544 0.15841 0.68346 0.0
H2640 H 0.33953 0.13338 0.69183 0.0
H2641 H 0.36537 0.12476 0.73024 0.0
H2642 H 0.33131 0.06234 0.7634 0.0
H2643 H 0.33941 0.08661 0.75412 0.0
C2644 C 0.41667 0.81528 0.6952 0.0
C2645 C 0.40525 0.82083 0.70159 0.0
C2646 C 0.42752 0.80925 0.70278 0.0
C2647 C 0.43482 0.79218 0.73574 0.0
H2648 H 0.47587 0.79868 0.72443 0.0
C2649 C 0.48292 0.76806 0.76455 0.0
C2650 C 0.49315 0.76256 0.7565 0.0
C2651 C 0.47221 0.77578 0.75867 0.0
C2652 C 0.46444 0.79661 0.72766 0.0
H2653 H 0.39654 0.8246 0.72112 0.0
H2654 H 0.41565 0.81407 0.73447 0.0
H2655 H 0.4575 0.81141 0.71302 0.0
H2656 H 0.50001 0.76105 0.73584 0.0
H2657 H 0.48133 0.77415 0.72564 0.0
H2658 H 0.4418 0.77723 0.75031 0.0
C2659 C 0.41606 0.81429 0.7235 0.0
C2660 C 0.45387 0.80395 0.72112 0.0
C2661 C 0.40518 0.82044 0.71587 0.0
C2662 C 0.49229 0.76494 0.7424 0.0
C2663 C 0.48165 0.77267 0.73654 0.0
C2664 C 0.44543 0.78481 0.7423 0.0
C2665 C 0.42736 0.80857 0.71703 0.0
C2666 C 0.43885 0.80167 0.72489 0.0
C2667 C 0.4715 0.77829 0.74458 0.0
C2668 C 0.46033 0.78674 0.7382 0.0
H2669 H 0.41724 0.81559 0.68424 0.0
H2670 H 0.43589 0.80483 0.69738 0.0
H2671 H 0.42334 0.79004 0.73885 0.0
H2672 H 0.4831 0.76636 0.77541 0.0
H2673 H 0.46466 0.78 0.76521 0.0
C2674 C 0.70197 0.85781 0.70001 0.0
C2675 C 0.69498 0.85503 0.68695 0.0
C2676 C 0.70956 0.87185 0.70382 0.0
C2677 C 0.70927 0.91052 0.69538 0.0
H2678 H 0.741 0.91716 0.72408 0.0
C2679 C 0.73548 0.96762 0.72047 0.0
C2680 C 0.73532 0.96781 0.73474 0.0
C2681 C 0.73157 0.95435 0.71311 0.0
C2682 C 0.73215 0.91545 0.71605 0.0
H2683 H 0.69137 0.86441 0.66724 0.0
H2684 H 0.70508 0.88912 0.67377 0.0
H2685 H 0.73434 0.89303 0.71289 0.0
H2686 H 0.73091 0.9544 0.75249 0.0
H2687 H 0.7243 0.93109 0.73963 0.0
H2688 H 0.70727 0.9331 0.69859 0.0
C2689 C 0.70437 0.88046 0.68119 0.0
C2690 C 0.7283 0.90164 0.70964 0.0
C2691 C 0.69668 0.86631 0.67738 0.0
C2692 C 0.73095 0.95454 0.74151 0.0
C2693 C 0.72734 0.94124 0.73417 0.0
C2694 C 0.71333 0.92443 0.70164 0.0
C2695 C 0.71048 0.8835 0.69461 0.0
C2696 C 0.71645 0.89883 0.69955 0.0
C2697 C 0.72775 0.94103 0.71993 0.0
C2698 C 0.72448 0.92685 0.71231 0.0
H2699 H 0.7009 0.84924 0.70755 0.0
H2700 H 0.71391 0.8737 0.71427 0.0
H2701 H 0.69999 0.90876 0.68777 0.0
H2702 H 0.7388 0.97775 0.71506 0.0
H2703 H 0.73195 0.95444 0.70213 0.0
C2704 C 0.65282 0.84941 0.32546 0.0
C2705 C 0.65825 0.8467 0.33866 0.0
C2706 C 0.63779 0.84408 0.3212 0.0
C2707 C 0.60573 0.81533 0.32964 0.0
H2708 H 0.58258 0.83655 0.30512 0.0
C2709 C 0.54354 0.79325 0.31596 0.0
C2710 C 0.53931 0.79224 0.30199 0.0
C2711 C 0.55729 0.80165 0.32064 0.0
C2712 C 0.58895 0.8305 0.31193 0.0
H2713 H 0.65212 0.83698 0.35797 0.0
H2714 H 0.62587 0.82797 0.3507 0.0
H2715 H 0.60819 0.84792 0.31308 0.0
H2716 H 0.54577 0.80002 0.28206 0.0
H2717 H 0.56989 0.81476 0.2903 0.0
H2718 H 0.58657 0.79795 0.32853 0.0
C2719 C 0.63326 0.83381 0.34347 0.0
C2720 C 0.60362 0.83697 0.31646 0.0
C2721 C 0.64828 0.839 0.34766 0.0
C2722 C 0.54873 0.80055 0.29288 0.0
C2723 C 0.56252 0.80901 0.29759 0.0
C2724 C 0.59109 0.80894 0.32521 0.0
C2725 C 0.62788 0.83604 0.33011 0.0
C2726 C 0.61218 0.82945 0.32539 0.0
C2727 C 0.56712 0.80927 0.31148 0.0
C2728 C 0.58253 0.81644 0.31632 0.0
H2729 H 0.66031 0.85523 0.31829 0.0
H2730 H 0.63409 0.84586 0.3108 0.0
H2731 H 0.61209 0.80904 0.33622 0.0
H2732 H 0.53648 0.78712 0.32328 0.0
H2733 H 0.56042 0.80187 0.33143 0.0
C2734 C 0.73543 0.11678 0.33532 0.0
C2735 C 0.73053 0.12737 0.3268 0.0
C2736 C 0.74277 0.106 0.33007 0.0
C2737 C 0.76366 0.09757 0.3002 0.0
H2738 H 0.75815 0.0585 0.31546 0.0
C2739 C 0.79443 0.05291 0.27963 0.0
C2740 C 0.80205 0.0459 0.28969 0.0
C2741 C 0.78354 0.06116 0.28314 0.0
C2742 C 0.75983 0.06937 0.31109 0.0
H2743 H 0.72971 0.13478 0.30596 0.0
H2744 H 0.74202 0.11578 0.29679 0.0
H2745 H 0.74373 0.07644 0.32359 0.0
H2746 H 0.8038 0.04153 0.31122 0.0
H2747 H 0.78472 0.05565 0.31734 0.0
H2748 H 0.77983 0.09049 0.28776 0.0
C2749 C 0.7404 0.11593 0.3076 0.0
C2750 C 0.75161 0.07972 0.31581 0.0
C2751 C 0.73313 0.12676 0.31285 0.0
C2752 C 0.79798 0.04667 0.30321 0.0
C2753 C 0.78702 0.05477 0.30671 0.0
C2754 C 0.7718 0.08719 0.29543 0.0
C2755 C 0.7454 0.1054 0.31613 0.0
C2756 C 0.75355 0.09406 0.31058 0.0
C2757 C 0.78001 0.06254 0.29679 0.0
C2758 C 0.77015 0.07301 0.30093 0.0
H2759 H 0.73349 0.11673 0.34607 0.0
H2760 H 0.7466 0.09826 0.33704 0.0
H2761 H 0.76569 0.10852 0.29604 0.0
H2762 H 0.79754 0.05284 0.26923 0.0
H2763 H 0.77826 0.06688 0.27521 0.0
C2764 C 0.38957 0.19117 0.33091 0.0
C2765 C 0.37663 0.18142 0.3259 0.0
C2766 C 0.40286 0.1928 0.32402 0.0
C2767 C 0.41741 0.18761 0.29044 0.0
H2768 H 0.45544 0.18938 0.31116 0.0
C2769 C 0.4738 0.19016 0.26455 0.0
C2770 C 0.48612 0.20024 0.2703 0.0
C2771 C 0.46041 0.18685 0.2713 0.0
C2772 C 0.44493 0.18903 0.30523 0.0
H2773 H 0.36738 0.16598 0.30957 0.0
H2774 H 0.39063 0.16875 0.2976 0.0
H2775 H 0.43207 0.18594 0.32293 0.0
H2776 H 0.49415 0.21431 0.2879 0.0
H2777 H 0.47083 0.20883 0.29946 0.0
H2778 H 0.4303 0.19091 0.27276 0.0
C2779 C 0.39049 0.17515 0.30684 0.0
C2780 C 0.43154 0.18706 0.31198 0.0
C2781 C 0.37722 0.17346 0.31376 0.0
C2782 C 0.48483 0.20668 0.28306 0.0
C2783 C 0.47149 0.20338 0.2898 0.0
C2784 C 0.43082 0.18962 0.28369 0.0
C2785 C 0.40348 0.18478 0.31193 0.0
C2786 C 0.41765 0.18646 0.30468 0.0
C2787 C 0.45908 0.1935 0.28397 0.0
C2788 C 0.44475 0.19049 0.29102 0.0
H2789 H 0.3895 0.19737 0.34028 0.0
H2790 H 0.41264 0.20044 0.32811 0.0
H2791 H 0.40689 0.18733 0.28455 0.0
H2792 H 0.47439 0.18507 0.2547 0.0
H2793 H 0.4511 0.17907 0.2666 0.0
C2794 C 0.34003 0.90162 0.33176 0.0
C2795 C 0.33275 0.88702 0.33333 0.0
C2796 C 0.33347 0.91117 0.32329 0.0
C2797 C 0.29574 0.91611 0.31008 0.0
H2798 H 0.3174 0.94698 0.28843 0.0
C2799 C 0.26316 0.95371 0.27948 0.0
C2800 C 0.26902 0.96887 0.2796 0.0
C2801 C 0.27205 0.94359 0.28394 0.0
C2802 C 0.31119 0.9385 0.29451 0.0
H2803 H 0.31323 0.87072 0.32706 0.0
H2804 H 0.30185 0.88722 0.31205 0.0
H2805 H 0.33092 0.92933 0.29985 0.0
H2806 H 0.28905 0.9853 0.28395 0.0
H2807 H 0.30467 0.96758 0.29211 0.0
H2808 H 0.27615 0.92534 0.30519 0.0
C2809 C 0.31255 0.89143 0.31742 0.0
C2810 C 0.31895 0.92834 0.30104 0.0
C2811 C 0.31914 0.8819 0.32588 0.0
C2812 C 0.28429 0.97365 0.28361 0.0
C2813 C 0.29321 0.96347 0.28832 0.0
C2814 C 0.28804 0.92624 0.30365 0.0
C2815 C 0.3194 0.90633 0.31632 0.0
C2816 C 0.3113 0.91696 0.30888 0.0
C2817 C 0.28703 0.94833 0.28897 0.0
C2818 C 0.29558 0.93756 0.29569 0.0
H2819 H 0.35043 0.90586 0.33761 0.0
H2820 H 0.33902 0.92256 0.32281 0.0
H2821 H 0.2895 0.9078 0.31631 0.0
H2822 H 0.25146 0.94969 0.27635 0.0
H2823 H 0.26698 0.93203 0.28383 0.0
C2824 C 0.71719 0.1339 0.67091 0.0
C2825 C 0.71122 0.14429 0.67851 0.0
C2826 C 0.72322 0.12259 0.67732 0.0
C2827 C 0.72216 0.10121 0.70893 0.0
H2828 H 0.7594 0.0909 0.69754 0.0
C2829 C 0.75143 0.06114 0.74007 0.0
C2830 C 0.75823 0.05079 0.73334 0.0
C2831 C 0.74647 0.07261 0.73305 0.0
C2832 C 0.74889 0.09348 0.70075 0.0
H2833 H 0.70697 0.15068 0.69897 0.0
H2834 H 0.71725 0.1308 0.71011 0.0
H2835 H 0.7491 0.11066 0.68615 0.0
H2836 H 0.76559 0.0447 0.71389 0.0
H2837 H 0.75661 0.06471 0.70139 0.0
H2838 H 0.7217 0.08398 0.72335 0.0
C2839 C 0.71722 0.13144 0.69914 0.0
C2840 C 0.74299 0.10486 0.69423 0.0
C2841 C 0.71128 0.14285 0.69273 0.0
C2842 C 0.76042 0.05251 0.71937 0.0
C2843 C 0.75527 0.064 0.71224 0.0
C2844 C 0.72797 0.0898 0.71537 0.0
C2845 C 0.72333 0.12118 0.69152 0.0
C2846 C 0.7296 0.10896 0.69832 0.0
C2847 C 0.74795 0.07405 0.71896 0.0
C2848 C 0.74153 0.08585 0.71151 0.0
H2849 H 0.71704 0.13435 0.65992 0.0
H2850 H 0.72755 0.11476 0.67109 0.0
H2851 H 0.71167 0.10382 0.71218 0.0
H2852 H 0.74978 0.06035 0.75087 0.0
H2853 H 0.74139 0.08033 0.73873 0.0
C2854 C 0.69895 0.8976 0.34419 0.0
C2855 C 0.7051 0.8851 0.34119 0.0
C2856 C 0.70596 0.91154 0.34021 0.0
C2857 C 0.74165 0.93184 0.32687 0.0
H2858 H 0.7157 0.95835 0.31344 0.0
C2859 C 0.76659 0.98785 0.30465 0.0
C2860 C 0.75897 0.99221 0.29302 0.0
C2861 C 0.75984 0.97605 0.31232 0.0
C2862 C 0.72313 0.95105 0.31705 0.0
H2863 H 0.72334 0.87729 0.33177 0.0
H2864 H 0.73531 0.90146 0.32438 0.0
H2865 H 0.70467 0.93509 0.32318 0.0
H2866 H 0.73828 0.98784 0.28037 0.0
H2867 H 0.72664 0.96697 0.29339 0.0
H2868 H 0.76001 0.94733 0.31994 0.0
C2869 C 0.72537 0.90069 0.33017 0.0
C2870 C 0.7168 0.93777 0.32287 0.0
C2871 C 0.71848 0.88679 0.33434 0.0
C2872 C 0.74432 0.98481 0.28939 0.0
C2873 C 0.73765 0.97286 0.29691 0.0
C2874 C 0.74795 0.94501 0.32088 0.0
C2875 C 0.71912 0.91324 0.33294 0.0
C2876 C 0.72596 0.92789 0.3277 0.0
C2877 C 0.7454 0.96819 0.30839 0.0
C2878 C 0.73876 0.95472 0.31573 0.0
H2879 H 0.6887 0.89656 0.34959 0.0
H2880 H 0.70098 0.92096 0.34277 0.0
H2881 H 0.7491 0.92466 0.33071 0.0
H2882 H 0.77783 0.99353 0.30775 0.0
H2883 H 0.76603 0.97302 0.32125 0.0
C2884 C 0.65594 0.17114 0.32778 0.0
C2885 C 0.67059 0.17737 0.32452 0.0
C2886 C 0.64401 0.17875 0.32521 0.0
C2887 C 0.63316 0.20752 0.30262 0.0
H2888 H 0.59829 0.2029 0.32446 0.0
C2889 C 0.57983 0.23105 0.28548 0.0
C2890 C 0.56626 0.22093 0.28611 0.0
C2891 C 0.59314 0.22823 0.29217 0.0
C2892 C 0.60793 0.2043 0.31822 0.0
H2893 H 0.68448 0.19648 0.31635 0.0
H2894 H 0.66375 0.21001 0.31214 0.0
H2895 H 0.62059 0.1934 0.33262 0.0
H2896 H 0.55589 0.20037 0.29486 0.0
H2897 H 0.57885 0.19558 0.30654 0.0
H2898 H 0.62036 0.21813 0.28809 0.0
C2899 C 0.66135 0.19919 0.31654 0.0
C2900 C 0.62073 0.19881 0.32289 0.0
C2901 C 0.67327 0.19154 0.31911 0.0
C2902 C 0.56614 0.20842 0.29418 0.0
C2903 C 0.57934 0.20569 0.30094 0.0
C2904 C 0.62036 0.21305 0.29797 0.0
C2905 C 0.64647 0.19275 0.31925 0.0
C2906 C 0.63344 0.20005 0.31503 0.0
C2907 C 0.59312 0.21533 0.29975 0.0
C2908 C 0.60743 0.21123 0.30556 0.0
H2909 H 0.65357 0.16009 0.33172 0.0
H2910 H 0.63274 0.17329 0.32728 0.0
H2911 H 0.64259 0.20854 0.29616 0.0
H2912 H 0.58034 0.24072 0.27925 0.0
H2913 H 0.60352 0.23598 0.29113 0.0
C2914 C 0.33078 0.13827 0.33114 0.0
C2915 C 0.33134 0.14808 0.34225 0.0
C2916 C 0.32232 0.12411 0.33138 0.0
C2917 C 0.28915 0.10227 0.34131 0.0
H2918 H 0.30979 0.06933 0.33664 0.0
C2919 C 0.25674 0.04393 0.32592 0.0
C2920 C 0.26297 0.03749 0.31512 0.0
C2921 C 0.26499 0.05629 0.33297 0.0
C2922 C 0.30383 0.07838 0.33797 0.0
H2923 H 0.32299 0.15058 0.36226 0.0
H2924 H 0.30752 0.12583 0.3623 0.0
H2925 H 0.32436 0.09383 0.34193 0.0
H2926 H 0.28301 0.03842 0.30381 0.0
H2927 H 0.29715 0.05999 0.31571 0.0
H2928 H 0.26868 0.08713 0.33626 0.0
C2929 C 0.31401 0.12924 0.35358 0.0
C2930 C 0.31218 0.09234 0.3411 0.0
C2931 C 0.32278 0.1434 0.35348 0.0
C2932 C 0.27778 0.04327 0.3119 0.0
C2933 C 0.28599 0.05553 0.31891 0.0
C2934 C 0.28077 0.08829 0.33797 0.0
C2935 C 0.3139 0.11947 0.34258 0.0
C2936 C 0.30493 0.10445 0.34235 0.0
C2937 C 0.27966 0.06235 0.32941 0.0
C2938 C 0.28808 0.07632 0.33573 0.0
H2939 H 0.33674 0.14154 0.3221 0.0
H2940 H 0.32216 0.1168 0.32269 0.0
H2941 H 0.28338 0.11153 0.34214 0.0
H2942 H 0.24534 0.03972 0.32861 0.0
H2943 H 0.25983 0.06122 0.34107 0.0
C2944 C 0.36612 0.81593 0.34372 0.0
C2945 C 0.36834 0.83121 0.34626 0.0
C2946 C 0.37705 0.80953 0.33756 0.0
C2947 C 0.41793 0.81621 0.33184 0.0
H2948 H 0.40676 0.78267 0.3071 0.0
C2949 C 0.4626 0.78897 0.30577 0.0
C2950 C 0.45986 0.77348 0.30465 0.0
C2951 C 0.45149 0.79651 0.31012 0.0
C2952 C 0.41011 0.79194 0.3141 0.0
H2953 H 0.3838 0.85178 0.34394 0.0
H2954 H 0.40278 0.84067 0.33297 0.0
H2955 H 0.3873 0.79498 0.31552 0.0
H2956 H 0.44297 0.75391 0.30711 0.0
H2957 H 0.42383 0.76696 0.31487 0.0
H2958 H 0.44074 0.81307 0.33052 0.0
C2959 C 0.39262 0.83358 0.33593 0.0
C2960 C 0.39891 0.79903 0.31893 0.0
C2961 C 0.38163 0.83999 0.34206 0.0
C2962 C 0.44564 0.76579 0.30796 0.0
C2963 C 0.43454 0.77333 0.31227 0.0
C2964 C 0.42914 0.80911 0.32701 0.0
C2965 C 0.39058 0.81823 0.33375 0.0
C2966 C 0.40263 0.81119 0.32798 0.0
C2967 C 0.43727 0.7888 0.31342 0.0
C2968 C 0.42539 0.79677 0.31816 0.0
H2969 H 0.35597 0.80882 0.34669 0.0
H2970 H 0.37507 0.79768 0.33619 0.0
H2971 H 0.42126 0.82539 0.33893 0.0
H2972 H 0.47341 0.7953 0.30344 0.0
H2973 H 0.454 0.80842 0.31075 0.0
C2974 C 0.35773 0.87703 0.7165 0.0
C2975 C 0.37223 0.87814 0.71177 0.0
C2976 C 0.35394 0.88851 0.72422 0.0
C2977 C 0.36965 0.92286 0.74417 0.0
H2978 H 0.33123 0.93368 0.73352 0.0
C2979 C 0.35355 0.97784 0.76217 0.0
C2980 C 0.33845 0.97792 0.76489 0.0
C2981 C 0.35778 0.96538 0.75636 0.0
C2982 C 0.3419 0.93073 0.73681 0.0
H2983 H 0.39426 0.89188 0.7115 0.0
H2984 H 0.38776 0.91194 0.72515 0.0
H2985 H 0.33848 0.91231 0.72293 0.0
H2986 H 0.31598 0.96474 0.76374 0.0
H2987 H 0.32335 0.94301 0.75385 0.0
H2988 H 0.37307 0.9413 0.75807 0.0
C2989 C 0.37931 0.90216 0.72307 0.0
C2990 C 0.34608 0.91842 0.73071 0.0
C2991 C 0.38307 0.89066 0.71529 0.0
C2992 C 0.3277 0.96515 0.76171 0.0
C2993 C 0.33194 0.95267 0.75595 0.0
C2994 C 0.36544 0.93516 0.75034 0.0
C2995 C 0.36456 0.90141 0.72733 0.0
C2996 C 0.36002 0.91431 0.73426 0.0
C2997 C 0.34704 0.95259 0.75313 0.0
C2998 C 0.35151 0.93932 0.74673 0.0
H2999 H 0.34912 0.86755 0.71373 0.0
H3000 H 0.34255 0.88742 0.72748 0.0
H3001 H 0.3804 0.91997 0.74727 0.0
H3002 H 0.36215 0.98747 0.76445 0.0
H3003 H 0.36947 0.96589 0.75418 0.0
C3004 C 0.65183 0.8054 0.70911 0.0
C3005 C 0.65221 0.81864 0.70215 0.0
C3006 C 0.64195 0.8018 0.7195 0.0
C3007 C 0.61783 0.81849 0.74252 0.0
H3008 H 0.59972 0.77767 0.74753 0.0
C3009 C 0.56457 0.79736 0.77226 0.0
C3010 C 0.56498 0.78494 0.78035 0.0
C3011 C 0.57676 0.80299 0.76453 0.0
C3012 C 0.60485 0.7891 0.74635 0.0
H3013 H 0.64241 0.8383 0.70019 0.0
H3014 H 0.62464 0.83175 0.71785 0.0
H3015 H 0.61719 0.7839 0.72968 0.0
H3016 H 0.57904 0.76951 0.7876 0.0
H3017 H 0.60015 0.77925 0.77398 0.0
H3018 H 0.60476 0.8236 0.75887 0.0
C3019 C 0.63229 0.82436 0.71572 0.0
C3020 C 0.61491 0.7927 0.73614 0.0
C3021 C 0.64234 0.82806 0.7055 0.0
C3022 C 0.57828 0.77902 0.7814 0.0
C3023 C 0.59036 0.78453 0.77356 0.0
C3024 C 0.60754 0.81489 0.7526 0.0
C3025 C 0.63207 0.81125 0.72298 0.0
C3026 C 0.62153 0.80744 0.73405 0.0
C3027 C 0.58948 0.7962 0.76469 0.0
C3028 C 0.60098 0.80016 0.7546 0.0
H3029 H 0.65949 0.79807 0.7068 0.0
H3030 H 0.64231 0.79174 0.72499 0.0
H3031 H 0.62291 0.82994 0.74141 0.0
H3032 H 0.55452 0.80222 0.77129 0.0
H3033 H 0.57584 0.81202 0.75776 0.0
C3034 C 0.39849 0.21551 0.712 0.0
C3035 C 0.39193 0.2156 0.69874 0.0
C3036 C 0.41267 0.22386 0.71538 0.0
C3037 C 0.44776 0.24107 0.70032 0.0
H3038 H 0.45672 0.25737 0.73685 0.0
C3039 C 0.50643 0.24848 0.72737 0.0
C3040 C 0.51012 0.25848 0.73838 0.0
C3041 C 0.49258 0.24731 0.72003 0.0
C3042 C 0.45447 0.25323 0.72649 0.0
H3043 H 0.3951 0.22474 0.67866 0.0
H3044 H 0.41988 0.23959 0.68466 0.0
H3045 H 0.43086 0.24779 0.72925 0.0
H3046 H 0.50303 0.27632 0.74928 0.0
H3047 H 0.47913 0.27467 0.73614 0.0
H3048 H 0.47143 0.24654 0.69758 0.0
C3049 C 0.41405 0.23289 0.69239 0.0
C3050 C 0.43959 0.24749 0.7222 0.0
C3051 C 0.39981 0.22449 0.68899 0.0
C3052 C 0.5004 0.26834 0.74098 0.0
C3053 C 0.48664 0.2673 0.73351 0.0
C3054 C 0.46267 0.24695 0.70457 0.0
C3055 C 0.42067 0.23262 0.70563 0.0
C3056 C 0.43611 0.24084 0.70926 0.0
C3057 C 0.48221 0.25625 0.72343 0.0
C3058 C 0.46628 0.25264 0.71788 0.0
H3059 H 0.39264 0.20897 0.71982 0.0
H3060 H 0.4175 0.22317 0.72562 0.0
H3061 H 0.44549 0.23605 0.69027 0.0
H3062 H 0.51368 0.24075 0.72507 0.0
H3063 H 0.48961 0.23861 0.7124 0.0
C3064 C 0.70002 0.69848 0.15274 0.0
C3065 C 0.69702 0.68322 0.15505 0.0
C3066 C 0.70691 0.70413 0.14105 0.0
C3067 C 0.71568 0.69297 0.10609 0.0
H3068 H 0.73891 0.73263 0.10675 0.0
C3069 C 0.7475 0.72022 0.05987 0.0
C3070 C 0.74424 0.73411 0.05643 0.0
C3071 C 0.74266 0.71348 0.07199 0.0
C3072 C 0.73243 0.72155 0.1064 0.0
H3073 H 0.6996 0.66202 0.1468 0.0
H3074 H 0.71233 0.67191 0.12677 0.0
H3075 H 0.72967 0.72174 0.1278 0.0
H3076 H 0.73367 0.75196 0.06318 0.0
H3077 H 0.72559 0.7404 0.08447 0.0
H3078 H 0.71893 0.69281 0.08463 0.0
C3079 C 0.70885 0.67953 0.13382 0.0
C3080 C 0.727 0.71528 0.11848 0.0
C3081 C 0.70173 0.67383 0.14548 0.0
C3082 C 0.73626 0.74121 0.06549 0.0
C3083 C 0.73172 0.73463 0.07772 0.0
C3084 C 0.72138 0.69917 0.09404 0.0
C3085 C 0.71139 0.69478 0.13131 0.0
C3086 C 0.71825 0.70098 0.11852 0.0
C3087 C 0.73477 0.72065 0.08109 0.0
C3088 C 0.7296 0.71362 0.09402 0.0
H3089 H 0.69693 0.70618 0.15995 0.0
H3090 H 0.70837 0.71589 0.13955 0.0
H3091 H 0.70887 0.68205 0.10553 0.0
H3092 H 0.75354 0.71445 0.05305 0.0
H3093 H 0.74522 0.70272 0.07432 0.0
C3094 C 0.34293 0.70397 0.12532 0.0
C3095 C 0.33528 0.70661 0.1368 0.0
C3096 C 0.34262 0.71296 0.11399 0.0
C3097 C 0.3182 0.73579 0.09732 0.0
H3098 H 0.35095 0.7452 0.07319 0.0
C3099 C 0.30745 0.75989 0.04535 0.0
C3100 C 0.31253 0.75252 0.03448 0.0
C3101 C 0.31301 0.7583 0.05866 0.0
C3102 C 0.3417 0.74266 0.07983 0.0
H3103 H 0.32186 0.72078 0.14598 0.0
H3104 H 0.32137 0.73668 0.1262 0.0
H3105 H 0.35552 0.73473 0.09543 0.0
H3106 H 0.32834 0.73869 0.02892 0.0
H3107 H 0.3378 0.73564 0.05213 0.0
H3108 H 0.30419 0.74306 0.08163 0.0
C3109 C 0.32748 0.72762 0.12582 0.0
C3110 C 0.34432 0.73667 0.09255 0.0
C3111 C 0.3278 0.71861 0.13714 0.0
C3112 C 0.32415 0.74449 0.03707 0.0
C3113 C 0.32963 0.74279 0.05041 0.0
C3114 C 0.31557 0.74173 0.08462 0.0
C3115 C 0.33461 0.72469 0.114 0.0
C3116 C 0.3325 0.73287 0.10131 0.0
C3117 C 0.32369 0.7492 0.0614 0.0
C3118 C 0.3272 0.74494 0.07559 0.0
H3119 H 0.34871 0.69467 0.12492 0.0
H3120 H 0.34805 0.71027 0.10501 0.0
H3121 H 0.30878 0.73277 0.1037 0.0
H3122 H 0.29863 0.76634 0.04367 0.0
H3123 H 0.30845 0.76368 0.06687 0.0
C3124 C 0.35674 0.31901 0.15718 0.0
C3125 C 0.37241 0.32067 0.15988 0.0
C3126 C 0.35009 0.31385 0.14443 0.0
C3127 C 0.3562 0.2924 0.11385 0.0
H3128 H 0.32417 0.3103 0.09739 0.0
C3129 C 0.32745 0.27563 0.05953 0.0
C3130 C 0.312 0.27608 0.05788 0.0
C3131 C 0.33567 0.28074 0.07176 0.0
C3132 C 0.33296 0.30499 0.10188 0.0
H3133 H 0.39335 0.31858 0.15088 0.0
H3134 H 0.38171 0.30938 0.12883 0.0
H3135 H 0.33654 0.31999 0.11893 0.0
H3136 H 0.2929 0.28124 0.06812 0.0
H3137 H 0.30686 0.28953 0.08923 0.0
H3138 H 0.35241 0.27722 0.09683 0.0
C3139 C 0.37456 0.31191 0.13665 0.0
C3140 C 0.34009 0.31061 0.11427 0.0
C3141 C 0.38122 0.31719 0.14935 0.0
C3142 C 0.30485 0.28101 0.06891 0.0
C3143 C 0.31292 0.2859 0.08105 0.0
C3144 C 0.34896 0.28667 0.10145 0.0
C3145 C 0.35889 0.3101 0.13402 0.0
C3146 C 0.35171 0.30433 0.12052 0.0
C3147 C 0.32853 0.28627 0.08259 0.0
C3148 C 0.33707 0.29276 0.09537 0.0
H3149 H 0.34951 0.32132 0.16502 0.0
H3150 H 0.33796 0.31245 0.14284 0.0
H3151 H 0.36506 0.28722 0.1184 0.0
H3152 H 0.33328 0.27192 0.05121 0.0
H3153 H 0.34767 0.28082 0.07255 0.0
C3154 C 0.76009 0.31962 0.15764 0.0
C3155 C 0.76458 0.30944 0.16672 0.0
C3156 C 0.76564 0.32088 0.14465 0.0
C3157 C 0.79613 0.31233 0.12424 0.0
H3158 H 0.76774 0.31496 0.09376 0.0
C3159 C 0.815 0.3239 0.06987 0.0
C3160 C 0.80641 0.31566 0.05917 0.0
C3161 C 0.80995 0.32329 0.08302 0.0
C3162 C 0.77577 0.31413 0.10215 0.0
H3163 H 0.77829 0.2927 0.16979 0.0
H3164 H 0.78807 0.29484 0.14703 0.0
H3165 H 0.75913 0.31377 0.11684 0.0
H3166 H 0.78572 0.30029 0.05397 0.0
H3167 H 0.77685 0.29927 0.07697 0.0
H3168 H 0.81272 0.31242 0.10954 0.0
C3169 C 0.78043 0.30198 0.14991 0.0
C3170 C 0.77089 0.31363 0.11538 0.0
C3171 C 0.77485 0.30072 0.16288 0.0
C3172 C 0.79253 0.3069 0.06193 0.0
C3173 C 0.78746 0.30631 0.0751 0.0
C3174 C 0.80102 0.31286 0.11101 0.0
C3175 C 0.77574 0.31195 0.14059 0.0
C3176 C 0.78101 0.31272 0.12657 0.0
C3177 C 0.79615 0.31446 0.0858 0.0
C3178 C 0.7909 0.31377 0.09983 0.0
H3179 H 0.7521 0.3264 0.16049 0.0
H3180 H 0.76197 0.3288 0.13777 0.0
H3181 H 0.80421 0.31173 0.13265 0.0
H3182 H 0.82559 0.331 0.0681 0.0
H3183 H 0.81677 0.32991 0.09099 0.0
C3184 C 0.7351 0.36096 0.92819 0.0
C3185 C 0.73465 0.35413 0.91539 0.0
C3186 C 0.74849 0.36355 0.93635 0.0
C3187 C 0.78311 0.34859 0.94214 0.0
H3188 H 0.79504 0.3826 0.96624 0.0
C3189 C 0.83165 0.34999 0.98218 0.0
C3190 C 0.82832 0.35383 0.99537 0.0
C3191 C 0.8228 0.35314 0.97088 0.0
C3192 C 0.79185 0.37303 0.95958 0.0
H3193 H 0.74755 0.34505 0.90071 0.0
H3194 H 0.77109 0.34962 0.91493 0.0
H3195 H 0.77431 0.38215 0.94916 0.0
H3196 H 0.81384 0.36503 1.00692 0.0
H3197 H 0.79831 0.37027 0.9873 0.0
H3198 H 0.80014 0.33917 0.95283 0.0
C3199 C 0.76115 0.35288 0.91876 0.0
C3200 C 0.77998 0.37277 0.9498 0.0
C3201 C 0.74775 0.35032 0.91061 0.0
C3202 C 0.81669 0.36187 0.99691 0.0
C3203 C 0.8078 0.36495 0.98561 0.0
C3204 C 0.79492 0.34882 0.95193 0.0
C3205 C 0.76161 0.35928 0.93183 0.0
C3206 C 0.77528 0.36042 0.94115 0.0
C3207 C 0.8104 0.36013 0.97251 0.0
C3208 C 0.79925 0.36091 0.96096 0.0
H3209 H 0.72501 0.36391 0.93203 0.0
H3210 H 0.74839 0.36832 0.94642 0.0
H3211 H 0.77965 0.33881 0.93579 0.0
H3212 H 0.84062 0.34391 0.98062 0.0
H3213 H 0.82533 0.34957 0.9609 0.0
C3214 C 0.75132 0.66529 0.88479 0.0
C3215 C 0.73615 0.66036 0.88037 0.0
C3216 C 0.75514 0.67221 0.89755 0.0
C3217 C 0.73917 0.692 0.92459 0.0
H3218 H 0.7734 0.68424 0.94702 0.0
C3219 C 0.74887 0.71355 0.97966 0.0
C3220 C 0.76356 0.72001 0.98435 0.0
C3221 C 0.74623 0.70546 0.96746 0.0
C3222 C 0.76389 0.68664 0.94084 0.0
H3223 H 0.71313 0.65871 0.88618 0.0
H3224 H 0.71974 0.67074 0.90835 0.0
H3225 H 0.76733 0.67194 0.92479 0.0
H3226 H 0.78712 0.72245 0.9801 0.0
H3227 H 0.78252 0.70828 0.95858 0.0
H3228 H 0.73571 0.7067 0.94051 0.0
C3229 C 0.72873 0.66947 0.90186 0.0
C3230 C 0.7604 0.67959 0.92806 0.0
C3231 C 0.72492 0.66255 0.8891 0.0
C3232 C 0.77568 0.71753 0.97682 0.0
C3233 C 0.77302 0.70943 0.96447 0.0
C3234 C 0.74264 0.69902 0.93731 0.0
C3235 C 0.7439 0.67444 0.90627 0.0
C3236 C 0.7479 0.68209 0.9198 0.0
C3237 C 0.75819 0.70365 0.95945 0.0
C3238 C 0.75496 0.69635 0.9457 0.0
H3239 H 0.7603 0.66403 0.87828 0.0
H3240 H 0.76692 0.67607 0.90047 0.0
H3241 H 0.72969 0.69451 0.91843 0.0
H3242 H 0.73927 0.7151 0.98527 0.0
H3243 H 0.73471 0.70085 0.96416 0.0
C3244 C 0.32207 0.68458 0.86568 0.0
C3245 C 0.32765 0.696 0.85705 0.0
C3246 C 0.31954 0.68767 0.87917 0.0
C3247 C 0.31208 0.7177 0.90108 0.0
H3248 H 0.31993 0.69164 0.93026 0.0
C3249 C 0.30263 0.73052 0.95698 0.0
C3250 C 0.29542 0.71878 0.96463 0.0
C3251 C 0.30766 0.72795 0.94418 0.0
C3252 C 0.31756 0.69895 0.9222 0.0
H3253 H 0.3353 0.71946 0.85544 0.0
H3254 H 0.33104 0.72498 0.87918 0.0
H3255 H 0.32721 0.68697 0.90736 0.0
H3256 H 0.28797 0.69511 0.96481 0.0
H3257 H 0.29676 0.69063 0.94243 0.0
H3258 H 0.30232 0.7296 0.91588 0.0
C3259 C 0.32844 0.71365 0.87554 0.0
C3260 C 0.32175 0.69629 0.90908 0.0
C3261 C 0.33097 0.71053 0.86203 0.0
C3262 C 0.2936 0.70438 0.95926 0.0
C3263 C 0.29865 0.70181 0.94644 0.0
C3264 C 0.30792 0.72037 0.9142 0.0
C3265 C 0.32254 0.70226 0.88424 0.0
C3266 C 0.31894 0.70556 0.89835 0.0
C3267 C 0.30564 0.71359 0.93871 0.0
C3268 C 0.31051 0.71097 0.92488 0.0
H3269 H 0.3194 0.6733 0.86192 0.0
H3270 H 0.3148 0.67867 0.88551 0.0
H3271 H 0.30952 0.72491 0.89301 0.0
H3272 H 0.30453 0.74171 0.96091 0.0
H3273 H 0.31324 0.73724 0.9386 0.0
C3274 C 0.35212 0.34149 0.88739 0.0
C3275 C 0.35536 0.33078 0.8783 0.0
C3276 C 0.34532 0.33738 0.89961 0.0
C3277 C 0.33922 0.30623 0.92368 0.0
H3278 H 0.30949 0.32677 0.93803 0.0
C3279 C 0.30585 0.28469 0.97015 0.0
C3280 C 0.30298 0.295 0.97982 0.0
C3281 C 0.31192 0.28928 0.95777 0.0
C3282 C 0.3179 0.32101 0.93426 0.0
H3283 H 0.35328 0.30725 0.87479 0.0
H3284 H 0.34145 0.30013 0.89594 0.0
H3285 H 0.32042 0.33433 0.91649 0.0
H3286 H 0.30431 0.31833 0.98387 0.0
H3287 H 0.31495 0.32633 0.96233 0.0
H3288 H 0.33676 0.29294 0.94141 0.0
C3289 C 0.34447 0.31174 0.89382 0.0
C3290 C 0.32418 0.32535 0.92188 0.0
C3291 C 0.35126 0.31584 0.88164 0.0
C3292 C 0.30622 0.31005 0.97666 0.0
C3293 C 0.31232 0.31465 0.96426 0.0
C3294 C 0.33295 0.3019 0.93604 0.0
C3295 C 0.34156 0.32244 0.90308 0.0
C3296 C 0.33489 0.31798 0.91637 0.0
C3297 C 0.31535 0.30433 0.95466 0.0
C3298 C 0.32214 0.30916 0.94151 0.0
H3299 H 0.35525 0.35309 0.88526 0.0
H3300 H 0.3434 0.34595 0.90651 0.0
H3301 H 0.34765 0.30046 0.91996 0.0
H3302 H 0.30322 0.273 0.97203 0.0
H3303 H 0.31377 0.28096 0.95056 0.0
C3304 C 0.63806 0.68777 0.21968 0.0
C3305 C 0.63529 0.68497 0.20566 0.0
C3306 C 0.62665 0.69126 0.22759 0.0
C3307 C 0.5929 0.70828 0.22388 0.0
H3308 H 0.58428 0.69339 0.25982 0.0
C3309 C 0.54394 0.72434 0.25262 0.0
C3310 C 0.54571 0.72617 0.26683 0.0
C3311 C 0.55447 0.71843 0.24539 0.0
C3312 C 0.58666 0.69785 0.24987 0.0
H3313 H 0.61857 0.68329 0.1889 0.0
H3314 H 0.59866 0.68929 0.20261 0.0
H3315 H 0.60335 0.68436 0.2471 0.0
H3316 H 0.56009 0.72331 0.28456 0.0
H3317 H 0.57865 0.71342 0.27201 0.0
H3318 H 0.57668 0.7221 0.22667 0.0
C3319 C 0.60956 0.68883 0.20757 0.0
C3320 C 0.59757 0.69259 0.24256 0.0
C3321 C 0.62089 0.68523 0.19974 0.0
C3322 C 0.55827 0.72188 0.27364 0.0
C3323 C 0.56891 0.71614 0.2664 0.0
C3324 C 0.58215 0.71366 0.23123 0.0
C3325 C 0.61238 0.69224 0.22153 0.0
C3326 C 0.60077 0.69769 0.22944 0.0
C3327 C 0.56722 0.71435 0.25214 0.0
C3328 C 0.57877 0.70851 0.24433 0.0
H3329 H 0.64919 0.68789 0.22441 0.0
H3330 H 0.62922 0.69391 0.23829 0.0
H3331 H 0.59528 0.71267 0.21391 0.0
H3332 H 0.53428 0.72732 0.24709 0.0
H3333 H 0.5525 0.71695 0.23449 0.0
C3334 C 0.34548 0.64449 0.19047 0.0
C3335 C 0.3504 0.65853 0.19648 0.0
C3336 C 0.34441 0.63185 0.19832 0.0
C3337 C 0.3594 0.61757 0.22973 0.0
H3338 H 0.32365 0.58726 0.22561 0.0
C3339 C 0.34932 0.56678 0.2646 0.0
C3340 C 0.34179 0.55341 0.25868 0.0
C3341 C 0.35085 0.57977 0.25715 0.0
C3342 C 0.33383 0.59549 0.22676 0.0
H3343 H 0.35777 0.67021 0.21558 0.0
H3344 H 0.35621 0.64806 0.22919 0.0
H3345 H 0.32518 0.60957 0.21236 0.0
H3346 H 0.3307 0.54293 0.24018 0.0
H3347 H 0.3337 0.56538 0.22705 0.0
H3348 H 0.3682 0.60339 0.24393 0.0
C3349 C 0.35327 0.64691 0.21838 0.0
C3350 C 0.33465 0.60831 0.21919 0.0
C3351 C 0.35419 0.65958 0.21056 0.0
C3352 C 0.33631 0.55315 0.24505 0.0
C3353 C 0.33798 0.56604 0.23757 0.0
C3354 C 0.35865 0.60467 0.23721 0.0
C3355 C 0.34838 0.63292 0.21233 0.0
C3356 C 0.34745 0.61946 0.22057 0.0
C3357 C 0.345 0.57958 0.24358 0.0
C3358 C 0.34586 0.59343 0.23578 0.0
H3359 H 0.34274 0.64322 0.17964 0.0
H3360 H 0.34077 0.62118 0.19337 0.0
H3361 H 0.36947 0.62595 0.23089 0.0
H3362 H 0.35353 0.56729 0.27513 0.0
H3363 H 0.3562 0.59 0.26216 0.0
C3364 C 0.42233 0.31299 0.18958 0.0
C3365 C 0.41088 0.31557 0.19792 0.0
C3366 C 0.43451 0.30693 0.1949 0.0
C3367 C 0.45579 0.30111 0.22714 0.0
H3368 H 0.46951 0.27113 0.20589 0.0
C3369 C 0.50022 0.26642 0.24787 0.0
C3370 C 0.50955 0.2618 0.23839 0.0
C3371 C 0.48882 0.27421 0.24357 0.0
C3372 C 0.46604 0.27967 0.21191 0.0
H3373 H 0.40331 0.31341 0.21848 0.0
H3374 H 0.42462 0.30302 0.22773 0.0
H3375 H 0.44844 0.28195 0.19708 0.0
H3376 H 0.51501 0.26261 0.21724 0.0
H3377 H 0.49582 0.27664 0.2099 0.0
H3378 H 0.47351 0.29883 0.24196 0.0
C3379 C 0.42424 0.30588 0.21709 0.0
C3380 C 0.45388 0.28586 0.20684 0.0
C3381 C 0.412 0.31186 0.21176 0.0
C3382 C 0.50792 0.26594 0.22477 0.0
C3383 C 0.49676 0.27384 0.22053 0.0
C3384 C 0.46807 0.29497 0.2322 0.0
C3385 C 0.43566 0.30332 0.20873 0.0
C3386 C 0.4486 0.29671 0.21433 0.0
C3387 C 0.48663 0.2776 0.22973 0.0
C3388 C 0.47345 0.28422 0.22461 0.0
H3389 H 0.42203 0.31591 0.17895 0.0
H3390 H 0.44319 0.3053 0.18819 0.0
H3391 H 0.4521 0.30953 0.23315 0.0
H3392 H 0.50111 0.26322 0.2584 0.0
H3393 H 0.48125 0.27688 0.25097 0.0
C3394 C 0.72984 0.36465 0.197 0.0
C3395 C 0.73981 0.35491 0.20009 0.0
C3396 C 0.73442 0.37984 0.19916 0.0
C3397 C 0.76221 0.40599 0.22017 0.0
H3398 H 0.74767 0.43537 0.19772 0.0
C3399 C 0.77742 0.46714 0.23519 0.0
C3400 C 0.76504 0.4744 0.23541 0.0
C3401 C 0.77613 0.4536 0.22836 0.0
C3402 C 0.75181 0.42728 0.20408 0.0
H3403 H 0.7626 0.35367 0.20751 0.0
H3404 H 0.77068 0.38006 0.21079 0.0
H3405 H 0.74198 0.40946 0.1905 0.0
H3406 H 0.74195 0.47367 0.22773 0.0
H3407 H 0.73969 0.45005 0.21592 0.0
H3408 H 0.77175 0.42366 0.23388 0.0
C3409 C 0.75923 0.37596 0.20695 0.0
C3410 C 0.74852 0.41244 0.19997 0.0
C3411 C 0.75463 0.3608 0.20488 0.0
C3412 C 0.7517 0.46834 0.22783 0.0
C3413 C 0.75041 0.45481 0.22099 0.0
C3414 C 0.76553 0.42079 0.22424 0.0
C3415 C 0.74909 0.38565 0.2044 0.0
C3416 C 0.75351 0.40158 0.20807 0.0
C3417 C 0.76245 0.44704 0.22157 0.0
C3418 C 0.76021 0.43159 0.21635 0.0
H3419 H 0.71842 0.36054 0.1931 0.0
H3420 H 0.72627 0.38695 0.19716 0.0
H3421 H 0.766 0.39794 0.22681 0.0
H3422 H 0.78791 0.47154 0.24083 0.0
H3423 H 0.7857 0.44801 0.22878 0.0
C3424 C 0.66961 0.32283 0.85942 0.0
C3425 C 0.67369 0.3382 0.85838 0.0
C3426 C 0.65676 0.31518 0.85228 0.0
C3427 C 0.63075 0.3173 0.82268 0.0
H3428 H 0.60381 0.28774 0.84159 0.0
C3429 C 0.57362 0.28695 0.79808 0.0
C3430 C 0.56951 0.27191 0.80093 0.0
C3431 C 0.58619 0.29555 0.80493 0.0
C3432 C 0.6113 0.29582 0.8361 0.0
H3433 H 0.6673 0.35757 0.84904 0.0
H3434 H 0.645 0.34413 0.83641 0.0
H3435 H 0.62611 0.30162 0.85376 0.0
H3436 H 0.57561 0.25404 0.81293 0.0
H3437 H 0.59759 0.26887 0.82457 0.0
H3438 H 0.61607 0.31132 0.80494 0.0
C3439 C 0.65184 0.33803 0.8427 0.0
C3440 C 0.62406 0.30379 0.84309 0.0
C3441 C 0.66464 0.34571 0.84992 0.0
C3442 C 0.57836 0.26562 0.81059 0.0
C3443 C 0.59094 0.27416 0.81734 0.0
C3444 C 0.61801 0.30923 0.81564 0.0
C3445 C 0.64772 0.3227 0.84387 0.0
C3446 C 0.63398 0.31454 0.83645 0.0
C3447 C 0.59495 0.28926 0.81471 0.0
C3448 C 0.6082 0.29831 0.82224 0.0
H3449 H 0.67645 0.31666 0.86563 0.0
H3450 H 0.65398 0.30333 0.85322 0.0
H3451 H 0.63827 0.32544 0.81727 0.0
H3452 H 0.567 0.29211 0.79071 0.0
H3453 H 0.58889 0.30717 0.80274 0.0
C3454 C 0.75006 0.62581 0.82977 0.0
C3455 C 0.74652 0.62555 0.84352 0.0
C3456 C 0.75818 0.61566 0.82453 0.0
C3457 C 0.76909 0.57924 0.83118 0.0
H3458 H 0.79922 0.59226 0.80525 0.0
C3459 C 0.81324 0.54443 0.8157 0.0
C3460 C 0.81825 0.54559 0.80243 0.0
C3461 C 0.80294 0.55294 0.82 0.0
C3462 C 0.79067 0.58832 0.81229 0.0
H3463 H 0.74888 0.61428 0.86253 0.0
H3464 H 0.76327 0.59673 0.85345 0.0
H3465 H 0.78503 0.60974 0.81441 0.0
H3466 H 0.81661 0.55678 0.78338 0.0
H3467 H 0.7982 0.57122 0.79059 0.0
H3468 H 0.77487 0.55782 0.82913 0.0
C3469 C 0.75959 0.60471 0.84666 0.0
C3470 C 0.78253 0.59841 0.8176 0.0
C3471 C 0.75149 0.61491 0.85192 0.0
C3472 C 0.81247 0.55517 0.79344 0.0
C3473 C 0.80217 0.56371 0.79772 0.0
C3474 C 0.77724 0.56913 0.82585 0.0
C3475 C 0.76302 0.60492 0.83287 0.0
C3476 C 0.77165 0.59405 0.82717 0.0
C3477 C 0.79757 0.56303 0.81119 0.0
C3478 C 0.7882 0.57353 0.81635 0.0
H3479 H 0.74661 0.63393 0.82301 0.0
H3480 H 0.76045 0.61613 0.81384 0.0
H3481 H 0.76065 0.57539 0.83835 0.0
H3482 H 0.81783 0.53741 0.82294 0.0
H3483 H 0.79986 0.5522 0.83048 0.0
C3484 C 0.38957 0.70919 0.83664 0.0
C3485 C 0.38427 0.70489 0.82326 0.0
C3486 C 0.40347 0.71859 0.83912 0.0
C3487 C 0.43774 0.7291 0.84058 0.0
H3488 H 0.45118 0.75973 0.81499 0.0
C3489 C 0.49862 0.74456 0.82586 0.0
C3490 C 0.5039 0.75851 0.82056 0.0
C3491 C 0.48411 0.74111 0.83048 0.0
C3492 C 0.44761 0.75149 0.82248 0.0
H3493 H 0.38904 0.70756 0.802 0.0
H3494 H 0.41325 0.72367 0.80628 0.0
H3495 H 0.4248 0.74823 0.8144 0.0
H3496 H 0.49867 0.78031 0.81738 0.0
H3497 H 0.47339 0.77435 0.82569 0.0
H3498 H 0.46067 0.73215 0.84846 0.0
C3499 C 0.4067 0.71992 0.81489 0.0
C3500 C 0.43248 0.74474 0.822 0.0
C3501 C 0.39292 0.7105 0.81243 0.0
C3502 C 0.4949 0.7694 0.82126 0.0
C3503 C 0.48036 0.76595 0.82593 0.0
C3504 C 0.45291 0.73589 0.8411 0.0
C3505 C 0.41223 0.72399 0.82826 0.0
C3506 C 0.4275 0.73305 0.83065 0.0
C3507 C 0.47454 0.75156 0.82999 0.0
C3508 C 0.45814 0.74675 0.83167 0.0
H3509 H 0.38314 0.70499 0.84519 0.0
H3510 H 0.40741 0.72157 0.84953 0.0
H3511 H 0.43427 0.72014 0.8474 0.0
H3512 H 0.50531 0.73595 0.8256 0.0
H3513 H 0.48005 0.72989 0.83345 0.0
C3514 C 0.33494 0.37912 0.82252 0.0
C3515 C 0.34381 0.38096 0.83476 0.0
C3516 C 0.32705 0.39011 0.81803 0.0
C3517 C 0.31315 0.42379 0.82869 0.0
H3518 H 0.31635 0.43371 0.79065 0.0
C3519 C 0.29518 0.47672 0.80697 0.0
C3520 C 0.28887 0.47636 0.79355 0.0
C3521 C 0.30116 0.46477 0.81217 0.0
C3522 C 0.31508 0.43098 0.80124 0.0
H3523 H 0.35128 0.39549 0.85206 0.0
H3524 H 0.33731 0.41469 0.84437 0.0
H3525 H 0.3274 0.41333 0.7996 0.0
H3526 H 0.28367 0.46287 0.77523 0.0
H3527 H 0.29381 0.44195 0.78432 0.0
H3528 H 0.30075 0.44138 0.83032 0.0
C3529 C 0.3363 0.40472 0.83826 0.0
C3530 C 0.32147 0.41926 0.8064 0.0
C3531 C 0.34428 0.39373 0.8427 0.0
C3532 C 0.28861 0.46364 0.78553 0.0
C3533 C 0.29449 0.45162 0.79077 0.0
C3534 C 0.30664 0.43546 0.8235 0.0
C3535 C 0.32788 0.40321 0.82568 0.0
C3536 C 0.32064 0.41551 0.82021 0.0
C3537 C 0.30093 0.45201 0.80417 0.0
C3538 C 0.30756 0.4393 0.80969 0.0
H3539 H 0.33457 0.36943 0.81614 0.0
H3540 H 0.32052 0.38845 0.80841 0.0
H3541 H 0.31214 0.42113 0.83933 0.0
H3542 H 0.29582 0.4864 0.8134 0.0
H3543 H 0.30626 0.4657 0.82242 0.0
C3544 C 0.69033 0.6341 0.18548 0.0
C3545 C 0.68695 0.64616 0.19278 0.0
C3546 C 0.694 0.62181 0.19226 0.0
C3547 C 0.69127 0.60252 0.2254 0.0
H3548 H 0.72224 0.58335 0.21145 0.0
C3549 C 0.70248 0.54605 0.24516 0.0
C3550 C 0.71743 0.54359 0.24615 0.0
C3551 C 0.69892 0.55884 0.23921 0.0
C3552 C 0.71366 0.58862 0.21559 0.0
H3553 H 0.68484 0.65459 0.21306 0.0
H3554 H 0.69124 0.6332 0.22486 0.0
H3555 H 0.7159 0.60498 0.20018 0.0
H3556 H 0.74037 0.55305 0.24164 0.0
H3557 H 0.73422 0.57536 0.2316 0.0
H3558 H 0.68923 0.58628 0.24096 0.0
C3559 C 0.69086 0.63316 0.21385 0.0
C3560 C 0.70986 0.60096 0.209 0.0
C3561 C 0.68718 0.64547 0.20707 0.0
C3562 C 0.72875 0.55448 0.24121 0.0
C3563 C 0.72517 0.56727 0.23526 0.0
C3564 C 0.69506 0.59015 0.232 0.0
C3565 C 0.6944 0.62117 0.20655 0.0
C3566 C 0.69857 0.60808 0.21376 0.0
C3567 C 0.71019 0.56959 0.23404 0.0
C3568 C 0.7063 0.58298 0.22718 0.0
H3569 H 0.69 0.63407 0.17447 0.0
H3570 H 0.69634 0.61271 0.18623 0.0
H3571 H 0.68243 0.60758 0.22933 0.0
H3572 H 0.69346 0.53806 0.24895 0.0
H3573 H 0.68723 0.56012 0.23839 0.0
C3574 C 0.72211 0.39245 0.86848 0.0
C3575 C 0.71865 0.37891 0.8614 0.0
C3576 C 0.73003 0.40486 0.86235 0.0
C3577 C 0.73972 0.41941 0.82832 0.0
H3578 H 0.76757 0.44915 0.8494 0.0
C3579 C 0.77757 0.46827 0.80394 0.0
C3580 C 0.77744 0.48223 0.80968 0.0
C3581 C 0.77087 0.45553 0.81038 0.0
C3582 C 0.75976 0.44095 0.84342 0.0
H3583 H 0.72119 0.3675 0.84261 0.0
H3584 H 0.73543 0.38902 0.83201 0.0
H3585 H 0.75552 0.42687 0.86045 0.0
H3586 H 0.7705 0.49381 0.82675 0.0
H3587 H 0.75889 0.47147 0.83812 0.0
H3588 H 0.74422 0.43344 0.81125 0.0
C3589 C 0.73166 0.39024 0.84214 0.0
C3590 C 0.75281 0.42821 0.84974 0.0
C3591 C 0.72358 0.37788 0.84822 0.0
C3592 C 0.77064 0.48319 0.82206 0.0
C3593 C 0.76412 0.47043 0.82861 0.0
C3594 C 0.74681 0.43205 0.82198 0.0
C3595 C 0.7348 0.40395 0.84905 0.0
C3596 C 0.74262 0.41731 0.84228 0.0
C3597 C 0.7641 0.45649 0.82278 0.0
C3598 C 0.75683 0.44298 0.82949 0.0
H3599 H 0.71829 0.39356 0.87861 0.0
H3600 H 0.73201 0.41526 0.86791 0.0
H3601 H 0.73172 0.41143 0.82229 0.0
H3602 H 0.78261 0.46722 0.79435 0.0
H3603 H 0.77107 0.4449 0.80571 0.0
C3604 C 0.68112 0.6819 0.83472 0.0
C3605 C 0.68 0.66739 0.83923 0.0
C3606 C 0.6681 0.6879 0.83189 0.0
C3607 C 0.62771 0.67591 0.82178 0.0
H3608 H 0.62477 0.71654 0.82928 0.0
C3609 C 0.57224 0.69746 0.80997 0.0
C3610 C 0.57309 0.71181 0.80499 0.0
C3611 C 0.58521 0.69243 0.81487 0.0
C3612 C 0.62544 0.7052 0.82695 0.0
H3613 H 0.66461 0.64782 0.84462 0.0
H3614 H 0.64186 0.65828 0.83992 0.0
H3615 H 0.64741 0.70729 0.83701 0.0
H3616 H 0.58845 0.73208 0.80124 0.0
H3617 H 0.6111 0.72327 0.80959 0.0
H3618 H 0.60594 0.67381 0.81152 0.0
C3619 C 0.65272 0.66506 0.83845 0.0
C3620 C 0.63844 0.69989 0.83144 0.0
C3621 C 0.66574 0.65911 0.84131 0.0
C3622 C 0.58732 0.72102 0.80513 0.0
C3623 C 0.60033 0.71596 0.80997 0.0
C3624 C 0.61477 0.68123 0.81725 0.0
C3625 C 0.65369 0.67942 0.83339 0.0
C3626 C 0.63974 0.68514 0.82894 0.0
C3627 C 0.59949 0.70155 0.81487 0.0
C3628 C 0.61339 0.69595 0.81978 0.0
H3629 H 0.69202 0.68838 0.83282 0.0
H3630 H 0.6693 0.69892 0.82791 0.0
H3631 H 0.6284 0.66459 0.81939 0.0
H3632 H 0.56149 0.69013 0.81027 0.0
H3633 H 0.58399 0.68138 0.81881 0.0
C3634 C 0.34369 0.6582 0.78707 0.0
C3635 C 0.35487 0.66094 0.79771 0.0
C3636 C 0.342 0.64537 0.77908 0.0
C3637 C 0.34593 0.60755 0.78262 0.0
H3638 H 0.33764 0.60462 0.74356 0.0
C3639 C 0.32248 0.55138 0.75813 0.0
C3640 C 0.31054 0.55111 0.74836 0.0
C3641 C 0.33192 0.56467 0.7619 0.0
C3642 C 0.33984 0.60521 0.75448 0.0
H3643 H 0.37337 0.65273 0.80808 0.0
H3644 H 0.3702 0.63011 0.79425 0.0
H3645 H 0.34648 0.62875 0.75443 0.0
H3646 H 0.29956 0.56427 0.73432 0.0
H3647 H 0.31545 0.58751 0.7413 0.0
H3648 H 0.33832 0.58438 0.78304 0.0
C3649 C 0.36287 0.63797 0.79203 0.0
C3650 C 0.34499 0.61904 0.76067 0.0
C3651 C 0.36471 0.65091 0.79988 0.0
C3652 C 0.30877 0.56417 0.74181 0.0
C3653 C 0.31797 0.57752 0.74581 0.0
C3654 C 0.34054 0.5938 0.7765 0.0
C3655 C 0.3513 0.63495 0.78173 0.0
C3656 C 0.34782 0.62034 0.77483 0.0
C3657 C 0.32933 0.57803 0.75628 0.0
C3658 C 0.33711 0.59244 0.76237 0.0
H3659 H 0.33602 0.66582 0.78516 0.0
H3660 H 0.33291 0.64325 0.77128 0.0
H3661 H 0.34783 0.60827 0.79359 0.0
H3662 H 0.32415 0.5414 0.76325 0.0
H3663 H 0.34084 0.5645 0.76966 0.0
C3664 C 0.40839 0.33112 0.8407 0.0
C3665 C 0.39516 0.32341 0.84604 0.0
C3666 C 0.41946 0.32366 0.8362 0.0
C3667 C 0.43352 0.2882 0.8386 0.0
H3668 H 0.45265 0.30122 0.80544 0.0
C3669 C 0.47375 0.25533 0.81256 0.0
C3670 C 0.48637 0.26333 0.80648 0.0
C3671 C 0.46263 0.26246 0.81751 0.0
C3672 C 0.4476 0.29752 0.81482 0.0
H3673 H 0.38343 0.30163 0.85093 0.0
H3674 H 0.40277 0.28863 0.84316 0.0
H3675 H 0.43352 0.31387 0.81394 0.0
H3676 H 0.49717 0.28532 0.80119 0.0
H3677 H 0.47793 0.29771 0.80984 0.0
H3678 H 0.44766 0.27187 0.8395 0.0
C3679 C 0.40462 0.30051 0.84254 0.0
C3680 C 0.43657 0.3048 0.8197 0.0
C3681 C 0.3935 0.30799 0.84702 0.0
C3682 C 0.48754 0.2787 0.80557 0.0
C3683 C 0.47644 0.28584 0.81055 0.0
C3684 C 0.44459 0.28093 0.83372 0.0
C3685 C 0.4177 0.30823 0.83693 0.0
C3686 C 0.42938 0.30029 0.83169 0.0
C3687 C 0.46378 0.27784 0.81657 0.0
C3688 C 0.45184 0.2855 0.82177 0.0
H3689 H 0.41028 0.34301 0.84004 0.0
H3690 H 0.4295 0.33004 0.83223 0.0
H3691 H 0.4284 0.2845 0.84795 0.0
H3692 H 0.4723 0.24347 0.8133 0.0
H3693 H 0.45297 0.25585 0.82187 0.0
C3694 C 0.34488 0.37095 0.2076 0.0
C3695 C 0.35882 0.37232 0.20166 0.0
C3696 C 0.33919 0.38353 0.21127 0.0
C3697 C 0.3534 0.42224 0.22151 0.0
H3698 H 0.31136 0.42619 0.21958 0.0
C3699 C 0.33669 0.47562 0.2402 0.0
C3700 C 0.32388 0.47461 0.24785 0.0
C3701 C 0.33948 0.46345 0.23289 0.0
C3702 C 0.32313 0.42522 0.22031 0.0
H3703 H 0.37755 0.38773 0.19448 0.0
H3704 H 0.36757 0.4097 0.20061 0.0
H3705 H 0.31882 0.40441 0.20951 0.0
H3706 H 0.30359 0.46012 0.25334 0.0
H3707 H 0.3086 0.43863 0.24075 0.0
H3708 H 0.3578 0.44266 0.23258 0.0
C3709 C 0.36102 0.39897 0.20256 0.0
C3710 C 0.32742 0.41273 0.2145 0.0
C3711 C 0.36666 0.3864 0.19888 0.0
C3712 C 0.3135 0.46128 0.24746 0.0
C3713 C 0.3164 0.44895 0.24024 0.0
C3714 C 0.34913 0.43461 0.22735 0.0
C3715 C 0.34743 0.39773 0.20921 0.0
C3716 C 0.34264 0.41112 0.21496 0.0
C3717 C 0.3297 0.44977 0.23317 0.0
C3718 C 0.33396 0.43638 0.22679 0.0
H3719 H 0.33878 0.36018 0.21008 0.0
H3720 H 0.32877 0.38212 0.21644 0.0
H3721 H 0.36516 0.42124 0.22243 0.0
H3722 H 0.34485 0.48577 0.24016 0.0
H3723 H 0.34957 0.46473 0.22725 0.0
C3724 C 0.69854 0.29935 0.2171 0.0
C3725 C 0.70057 0.30997 0.20694 0.0
C3726 C 0.68415 0.29174 0.21948 0.0
C3727 C 0.64321 0.29162 0.21166 0.0
H3728 H 0.63977 0.25059 0.22151 0.0
C3729 C 0.58629 0.25098 0.21288 0.0
C3730 C 0.58401 0.24415 0.22548 0.0
C3731 C 0.60051 0.25878 0.21006 0.0
C3732 C 0.6406 0.26204 0.21877 0.0
H3733 H 0.6893 0.32117 0.19141 0.0
H3734 H 0.66416 0.30754 0.19517 0.0
H3735 H 0.66449 0.26511 0.21792 0.0
H3736 H 0.59473 0.23956 0.24475 0.0
H3737 H 0.61973 0.25283 0.23968 0.0
H3738 H 0.61915 0.28823 0.21215 0.0
C3739 C 0.67356 0.30531 0.20161 0.0
C3740 C 0.65476 0.27043 0.21683 0.0
C3741 C 0.68795 0.31312 0.19941 0.0
C3742 C 0.59626 0.24479 0.235 0.0
C3743 C 0.61051 0.25231 0.23208 0.0
C3744 C 0.62901 0.28312 0.21337 0.0
C3745 C 0.67149 0.29436 0.21156 0.0
C3746 C 0.6563 0.2854 0.2134 0.0
C3747 C 0.6127 0.25957 0.21968 0.0
C3748 C 0.62762 0.26831 0.21706 0.0
H3749 H 0.70814 0.29683 0.22309 0.0
H3750 H 0.683 0.28371 0.22748 0.0
H3751 H 0.64392 0.30313 0.20923 0.0
H3752 H 0.57696 0.25073 0.20546 0.0
H3753 H 0.60198 0.26426 0.20041 0.0
C3754 C 0.38224 0.71349 0.19899 0.0
C3755 C 0.37898 0.70825 0.18556 0.0
C3756 C 0.39536 0.72358 0.20241 0.0
C3757 C 0.43367 0.73294 0.19208 0.0
H3758 H 0.4368 0.76058 0.2224 0.0
C3759 C 0.47998 0.73875 0.23379 0.0
C3760 C 0.4844 0.75196 0.24127 0.0
C3761 C 0.46931 0.73779 0.22291 0.0
C3762 C 0.43623 0.75322 0.21369 0.0
H3763 H 0.38641 0.70997 0.16499 0.0
H3764 H 0.40956 0.72766 0.171 0.0
H3765 H 0.41235 0.75161 0.21082 0.0
H3766 H 0.48204 0.77488 0.24259 0.0
H3767 H 0.46321 0.77317 0.22352 0.0
H3768 H 0.45746 0.73406 0.19535 0.0
C3769 C 0.40194 0.72391 0.17888 0.0
C3770 C 0.42217 0.74795 0.20715 0.0
C3771 C 0.38869 0.71387 0.17543 0.0
C3772 C 0.47879 0.76453 0.23702 0.0
C3773 C 0.46797 0.76354 0.22616 0.0
C3774 C 0.44774 0.73823 0.19861 0.0
C3775 C 0.40557 0.72861 0.19247 0.0
C3776 C 0.42064 0.73716 0.19677 0.0
C3777 C 0.46274 0.75001 0.21929 0.0
C3778 C 0.44904 0.74781 0.20995 0.0
H3779 H 0.37485 0.70943 0.20696 0.0
H3780 H 0.39789 0.72678 0.213 0.0
H3781 H 0.43289 0.72465 0.1841 0.0
H3782 H 0.48422 0.72891 0.23675 0.0
H3783 H 0.46546 0.72715 0.21797 0.0
loop_
_geom_bond_atom_site_label_1
_geom_bond_atom_site_label_2
_geom_bond_distance
_geom_bond_site_symmetry_2
_ccdc_geom_bond_type
H0 C3 0.929 . S
H1 C6 0.929 . S
H2 C8 0.930 . S
C3 H0 0.929 . S
C3 C4 1.398 . S
C3 C5 1.396 . S
C4 C3 1.398 . S
C4 C8 1.407 . S
C5 C3 1.396 . S
C5 C6 1.394 . S
C6 H1 0.929 . S
C6 C5 1.394 . S
C6 C7 1.382 . S
C7 C6 1.382 . S
C7 C8 1.392 . S
C7 N9 1.420 . S
C8 H2 0.930 . S
C8 C4 1.407 . S
C8 C7 1.392 . S
N9 C7 1.420 . S
N9 C10 1.244 . S
C10 N9 1.244 . S
H11 C14 0.929 . S
H12 C17 0.929 . S
H13 C19 0.930 . S
C14 H11 0.929 . S
C14 C15 1.398 . S
C14 C16 1.396 . S
C15 C14 1.398 . S
C15 C19 1.407 . S
C16 C14 1.396 . S
C16 C17 1.394 . S
C17 H12 0.929 . S
C17 C16 1.394 . S
C17 C18 1.382 . S
C18 C17 1.382 . S
C18 C19 1.392 . S
C18 N20 1.420 . S
C19 H13 0.930 . S
C19 C15 1.407 . S
C19 C18 1.392 . S
N20 C18 1.420 . S
N20 C21 1.244 . S
C21 N20 1.244 . S
H22 C25 0.929 . S
H23 C28 0.929 . S
H24 C30 0.930 . S
C25 H22 0.929 . S
C25 C26 1.398 . S
C25 C27 1.396 . S
C26 C25 1.398 . S
C26 C30 1.407 . S
C27 C25 1.396 . S
C27 C28 1.394 . S
C28 H23 0.929 . S
C28 C27 1.394 . S
C28 C29 1.382 . S
C29 C28 1.382 . S
C29 C30 1.392 . S
C29 N31 1.420 . S
C30 H24 0.930 . S
C30 C26 1.407 . S
C30 C29 1.392 . S
N31 C29 1.420 . S
N31 C32 1.244 . S
C32 N31 1.244 . S
H33 C36 0.929 . S
H34 C39 0.929 . S
H35 C41 0.930 . S
C36 H33 0.929 . S
C36 C37 1.398 . S
C36 C38 1.396 . S
C37 C36 1.398 . S
C37 C41 1.407 . S
C38 C36 1.396 . S
C38 C39 1.394 . S
C39 H34 0.929 . S
C39 C38 1.394 . S
C39 C40 1.382 . S
C40 C39 1.382 . S
C40 C41 1.392 . S
C40 N42 1.420 . S
C41 H35 0.930 . S
C41 C37 1.407 . S
C41 C40 1.392 . S
N42 C40 1.420 . S
N42 C43 1.244 . S
C43 N42 1.244 . S
H44 C47 0.929 . S
H45 C50 0.929 . S
H46 C52 0.930 . S
C47 H44 0.929 . S
C47 C48 1.398 . S
C47 C49 1.396 . S
C48 C47 1.398 . S
C48 C52 1.407 . S
C49 C47 1.396 . S
C49 C50 1.394 . S
C50 H45 0.929 . S
C50 C49 1.394 . S
C50 C51 1.382 . S
C51 C50 1.382 . S
C51 C52 1.392 . S
C51 N53 1.420 . S
C52 H46 0.930 . S
C52 C48 1.407 . S
C52 C51 1.392 . S
N53 C51 1.420 . S
N53 C54 1.244 . S
C54 N53 1.244 . S
H55 C58 0.929 . S
H56 C61 0.929 . S
H57 C63 0.930 . S
C58 H55 0.929 . S
C58 C59 1.398 . S
C58 C60 1.396 . S
C59 C58 1.398 . S
C59 C63 1.407 . S
C60 C58 1.396 . S
C60 C61 1.394 . S
C61 H56 0.929 . S
C61 C60 1.394 . S
C61 C62 1.382 . S
C62 C61 1.382 . S
C62 C63 1.392 . S
C62 N64 1.420 . S
C63 H57 0.930 . S
C63 C59 1.407 . S
C63 C62 1.392 . S
N64 C62 1.420 . S
N64 C65 1.244 . S
C65 N64 1.244 . S
H66 C69 0.929 . S
H67 C72 0.929 . S
H68 C74 0.930 . S
C69 H66 0.929 . S
C69 C70 1.398 . S
C69 C71 1.396 . S
C70 C69 1.398 . S
C70 C74 1.407 . S
C71 C69 1.396 . S
C71 C72 1.394 . S
C72 H67 0.929 . S
C72 C71 1.394 . S
C72 C73 1.382 . S
C73 C72 1.382 . S
C73 C74 1.392 . S
C73 N75 1.420 . S
C74 H68 0.930 . S
C74 C70 1.407 . S
C74 C73 1.392 . S
N75 C73 1.420 . S
N75 C76 1.244 . S
C76 N75 1.244 . S
H77 C80 0.929 . S
H78 C83 0.929 . S
H79 C85 0.930 . S
C80 H77 0.929 . S
C80 C81 1.398 . S
C80 C82 1.396 . S
C81 C80 1.398 . S
C81 C85 1.407 . S
C82 C80 1.396 . S
C82 C83 1.394 . S
C83 H78 0.929 . S
C83 C82 1.394 . S
C83 C84 1.382 . S
C84 C83 1.382 . S
C84 C85 1.392 . S
C84 N86 1.420 . S
C85 H79 0.930 . S
C85 C81 1.407 . S
C85 C84 1.392 . S
N86 C84 1.420 . S
N86 C87 1.244 . S
C87 N86 1.244 . S
H88 C91 0.929 . S
H89 C94 0.929 . S
H90 C96 0.930 . S
C91 H88 0.929 . S
C91 C92 1.398 . S
C91 C93 1.396 . S
C92 C91 1.398 . S
C92 C96 1.407 . S
C93 C91 1.396 . S
C93 C94 1.394 . S
C94 H89 0.929 . S
C94 C93 1.394 . S
C94 C95 1.382 . S
C95 C94 1.382 . S
C95 C96 1.392 . S
C95 N97 1.420 . S
C96 H90 0.930 . S
C96 C92 1.407 . S
C96 C95 1.392 . S
N97 C95 1.420 . S
N97 C98 1.244 . S
C98 N97 1.244 . S
H99 C102 0.929 . S
H100 C105 0.929 . S
H101 C107 0.930 . S
C102 H99 0.929 . S
C102 C103 1.398 . S
C102 C104 1.396 . S
C103 C102 1.398 . S
C103 C107 1.407 . S
C104 C102 1.396 . S
C104 C105 1.394 . S
C105 H100 0.929 . S
C105 C104 1.394 . S
C105 C106 1.382 . S
C106 C105 1.382 . S
C106 C107 1.392 . S
C106 N108 1.420 . S
C107 H101 0.930 . S
C107 C103 1.407 . S
C107 C106 1.392 . S
N108 C106 1.420 . S
N108 C109 1.244 . S
C109 N108 1.244 . S
H110 C113 0.929 . S
H111 C116 0.929 . S
H112 C118 0.930 . S
C113 H110 0.929 . S
C113 C114 1.398 . S
C113 C115 1.396 . S
C114 C113 1.398 . S
C114 C118 1.407 . S
C115 C113 1.396 . S
C115 C116 1.394 . S
C116 H111 0.929 . S
C116 C115 1.394 . S
C116 C117 1.382 . S
C117 C116 1.382 . S
C117 C118 1.392 . S
C117 N119 1.420 . S
C118 H112 0.930 . S
C118 C114 1.407 . S
C118 C117 1.392 . S
N119 C117 1.420 . S
N119 C120 1.244 . S
C120 N119 1.244 . S
H121 C124 0.929 . S
H122 C127 0.929 . S
H123 C129 0.930 . S
C124 H121 0.929 . S
C124 C125 1.398 . S
C124 C126 1.396 . S
C125 C124 1.398 . S
C125 C129 1.407 . S
C126 C124 1.396 . S
C126 C127 1.394 . S
C127 H122 0.929 . S
C127 C126 1.394 . S
C127 C128 1.382 . S
C128 C127 1.382 . S
C128 C129 1.392 . S
C128 N130 1.420 . S
C129 H123 0.930 . S
C129 C125 1.407 . S
C129 C128 1.392 . S
N130 C128 1.420 . S
N130 C131 1.244 . S
C131 N130 1.244 . S
H132 C135 0.929 . S
H133 C138 0.929 . S
H134 C140 0.930 . S
C135 H132 0.929 . S
C135 C136 1.398 . S
C135 C137 1.396 . S
C136 C135 1.398 . S
C136 C140 1.407 . S
C137 C135 1.396 . S
C137 C138 1.394 . S
C138 H133 0.929 . S
C138 C137 1.394 . S
C138 C139 1.382 . S
C139 C138 1.382 . S
C139 C140 1.392 . S
C139 N141 1.420 . S
C140 H134 0.930 . S
C140 C136 1.407 . S
C140 C139 1.392 . S
N141 C139 1.420 . S
N141 C142 1.244 . S
C142 N141 1.244 . S
H143 C146 0.929 . S
H144 C149 0.929 . S
H145 C151 0.930 . S
C146 H143 0.929 . S
C146 C147 1.398 . S
C146 C148 1.396 . S
C147 C146 1.398 . S
C147 C151 1.407 . S
C148 C146 1.396 . S
C148 C149 1.394 . S
C149 H144 0.929 . S
C149 C148 1.394 . S
C149 C150 1.382 . S
C150 C149 1.382 . S
C150 C151 1.392 . S
C150 N152 1.420 . S
C151 H145 0.930 . S
C151 C147 1.407 . S
C151 C150 1.392 . S
N152 C150 1.420 . S
N152 C153 1.244 . S
C153 N152 1.244 . S
H154 C157 0.929 . S
H155 C160 0.929 . S
H156 C162 0.930 . S
C157 H154 0.929 . S
C157 C158 1.398 . S
C157 C159 1.396 . S
C158 C157 1.398 . S
C158 C162 1.407 . S
C159 C157 1.396 . S
C159 C160 1.394 . S
C160 H155 0.929 . S
C160 C159 1.394 . S
C160 C161 1.382 . S
C161 C160 1.382 . S
C161 C162 1.392 . S
C161 N163 1.420 . S
C162 H156 0.930 . S
C162 C158 1.407 . S
C162 C161 1.392 . S
N163 C161 1.420 . S
N163 C164 1.244 . S
C164 N163 1.244 . S
H165 C168 0.929 . S
H166 C171 0.929 . S
H167 C173 0.930 . S
C168 H165 0.929 . S
C168 C169 1.398 . S
C168 C170 1.396 . S
C169 C168 1.398 . S
C169 C173 1.407 . S
C170 C168 1.396 . S
C170 C171 1.394 . S
C171 H166 0.929 . S
C171 C170 1.394 . S
C171 C172 1.382 . S
C172 C171 1.382 . S
C172 C173 1.392 . S
C172 N174 1.420 . S
C173 H167 0.930 . S
C173 C169 1.407 . S
C173 C172 1.392 . S
N174 C172 1.420 . S
N174 C175 1.244 . S
C175 N174 1.244 . S
H176 C179 0.929 . S
H177 C182 0.929 . S
H178 C184 0.930 . S
C179 H176 0.929 . S
C179 C180 1.398 . S
C179 C181 1.396 . S
C180 C179 1.398 . S
C180 C184 1.407 . S
C181 C179 1.396 . S
C181 C182 1.394 . S
C182 H177 0.929 . S
C182 C181 1.394 . S
C182 C183 1.382 . S
C183 C182 1.382 . S
C183 C184 1.392 . S
C183 N185 1.420 . S
C184 H178 0.930 . S
C184 C180 1.407 . S
C184 C183 1.392 . S
N185 C183 1.420 . S
N185 C186 1.244 . S
C186 N185 1.244 . S
H187 C190 0.929 . S
H188 C193 0.929 . S
H189 C195 0.930 . S
C190 H187 0.929 . S
C190 C191 1.398 . S
C190 C192 1.396 . S
C191 C190 1.398 . S
C191 C195 1.407 . S
C192 C190 1.396 . S
C192 C193 1.394 . S
C193 H188 0.929 . S
C193 C192 1.394 . S
C193 C194 1.382 . S
C194 C193 1.382 . S
C194 C195 1.392 . S
C194 N196 1.420 . S
C195 H189 0.930 . S
C195 C191 1.407 . S
C195 C194 1.392 . S
N196 C194 1.420 . S
N196 C197 1.244 . S
C197 N196 1.244 . S
H198 C201 0.929 . S
H199 C204 0.929 . S
H200 C206 0.930 . S
C201 H198 0.929 . S
C201 C202 1.398 . S
C201 C203 1.396 . S
C202 C201 1.398 . S
C202 C206 1.407 . S
C203 C201 1.396 . S
C203 C204 1.394 . S
C204 H199 0.929 . S
C204 C203 1.394 . S
C204 C205 1.382 . S
C205 C204 1.382 . S
C205 C206 1.392 . S
C205 N207 1.420 . S
C206 H200 0.930 . S
C206 C202 1.407 . S
C206 C205 1.392 . S
N207 C205 1.420 . S
N207 C208 1.244 . S
C208 N207 1.244 . S
H209 C212 0.929 . S
H210 C215 0.929 . S
H211 C217 0.930 . S
C212 H209 0.929 . S
C212 C213 1.398 . S
C212 C214 1.396 . S
C213 C212 1.398 . S
C213 C217 1.407 . S
C214 C212 1.396 . S
C214 C215 1.394 . S
C215 H210 0.929 . S
C215 C214 1.394 . S
C215 C216 1.382 . S
C216 C215 1.382 . S
C216 C217 1.392 . S
C216 N218 1.420 . S
C217 H211 0.930 . S
C217 C213 1.407 . S
C217 C216 1.392 . S
N218 C216 1.420 . S
N218 C219 1.244 . S
C219 N218 1.244 . S
H220 C223 0.929 . S
H221 C226 0.929 . S
H222 C228 0.930 . S
C223 H220 0.929 . S
C223 C224 1.398 . S
C223 C225 1.396 . S
C224 C223 1.398 . S
C224 C228 1.407 . S
C225 C223 1.396 . S
C225 C226 1.394 . S
C226 H221 0.929 . S
C226 C225 1.394 . S
C226 C227 1.382 . S
C227 C226 1.382 . S
C227 C228 1.392 . S
C227 N229 1.420 . S
C228 H222 0.930 . S
C228 C224 1.407 . S
C228 C227 1.392 . S
N229 C227 1.420 . S
N229 C230 1.244 . S
C230 N229 1.244 . S
H231 C234 0.929 . S
H232 C237 0.929 . S
H233 C239 0.930 . S
C234 H231 0.929 . S
C234 C235 1.398 . S
C234 C236 1.396 . S
C235 C234 1.398 . S
C235 C239 1.407 . S
C236 C234 1.396 . S
C236 C237 1.394 . S
C237 H232 0.929 . S
C237 C236 1.394 . S
C237 C238 1.382 . S
C238 C237 1.382 . S
C238 C239 1.392 . S
C238 N240 1.420 . S
C239 H233 0.930 . S
C239 C235 1.407 . S
C239 C238 1.392 . S
N240 C238 1.420 . S
N240 C241 1.244 . S
C241 N240 1.244 . S
H242 C245 0.929 . S
H243 C248 0.929 . S
H244 C250 0.930 . S
C245 H242 0.929 . S
C245 C246 1.398 . S
C245 C247 1.396 . S
C246 C245 1.398 . S
C246 C250 1.407 . S
C247 C245 1.396 . S
C247 C248 1.394 . S
C248 H243 0.929 . S
C248 C247 1.394 . S
C248 C249 1.382 . S
C249 C248 1.382 . S
C249 C250 1.392 . S
C249 N251 1.420 . S
C250 H244 0.930 . S
C250 C246 1.407 . S
C250 C249 1.392 . S
N251 C249 1.420 . S
N251 C252 1.244 . S
C252 N251 1.244 . S
H253 C256 0.929 . S
H254 C259 0.929 . S
H255 C261 0.930 . S
C256 H253 0.929 . S
C256 C257 1.398 . S
C256 C258 1.396 . S
C257 C256 1.398 . S
C257 C261 1.407 . S
C258 C256 1.396 . S
C258 C259 1.394 . S
C259 H254 0.929 . S
C259 C258 1.394 . S
C259 C260 1.382 . S
C260 C259 1.382 . S
C260 C261 1.392 . S
C260 N262 1.420 . S
C261 H255 0.930 . S
C261 C257 1.407 . S
C261 C260 1.392 . S
N262 C260 1.420 . S
N262 C263 1.244 . S
C263 N262 1.244 . S
H264 C267 0.929 . S
H265 C270 0.929 . S
H266 C272 0.930 . S
C267 H264 0.929 . S
C267 C268 1.398 . S
C267 C269 1.396 . S
C268 C267 1.398 . S
C268 C272 1.407 . S
C269 C267 1.396 . S
C269 C270 1.394 . S
C270 H265 0.929 . S
C270 C269 1.394 . S
C270 C271 1.382 . S
C271 C270 1.382 . S
C271 C272 1.392 . S
C271 N273 1.420 . S
C272 H266 0.930 . S
C272 C268 1.407 . S
C272 C271 1.392 . S
N273 C271 1.420 . S
N273 C274 1.244 . S
C274 N273 1.244 . S
H275 C278 0.929 . S
H276 C281 0.929 . S
H277 C283 0.930 . S
C278 H275 0.929 . S
C278 C279 1.398 . S
C278 C280 1.396 . S
C279 C278 1.398 . S
C279 C283 1.407 . S
C280 C278 1.396 . S
C280 C281 1.394 . S
C281 H276 0.929 . S
C281 C280 1.394 . S
C281 C282 1.382 . S
C282 C281 1.382 . S
C282 C283 1.392 . S
C282 N284 1.420 . S
C283 H277 0.930 . S
C283 C279 1.407 . S
C283 C282 1.392 . S
N284 C282 1.420 . S
N284 C285 1.244 . S
C285 N284 1.244 . S
H286 C289 0.929 . S
H287 C292 0.929 . S
H288 C294 0.930 . S
C289 H286 0.929 . S
C289 C290 1.398 . S
C289 C291 1.396 . S
C290 C289 1.398 . S
C290 C294 1.407 . S
C291 C289 1.396 . S
C291 C292 1.394 . S
C292 H287 0.929 . S
C292 C291 1.394 . S
C292 C293 1.382 . S
C293 C292 1.382 . S
C293 C294 1.392 . S
C293 N295 1.420 . S
C294 H288 0.930 . S
C294 C290 1.407 . S
C294 C293 1.392 . S
N295 C293 1.420 . S
N295 C296 1.244 . S
C296 N295 1.244 . S
H297 C300 0.929 . S
H298 C303 0.929 . S
H299 C305 0.930 . S
C300 H297 0.929 . S
C300 C301 1.398 . S
C300 C302 1.396 . S
C301 C300 1.398 . S
C301 C305 1.407 . S
C302 C300 1.396 . S
C302 C303 1.394 . S
C303 H298 0.929 . S
C303 C302 1.394 . S
C303 C304 1.382 . S
C304 C303 1.382 . S
C304 C305 1.392 . S
C304 N306 1.420 . S
C305 H299 0.930 . S
C305 C301 1.407 . S
C305 C304 1.392 . S
N306 C304 1.420 . S
N306 C307 1.244 . S
C307 N306 1.244 . S
H308 C311 0.929 . S
H309 C314 0.929 . S
H310 C316 0.930 . S
C311 H308 0.929 . S
C311 C312 1.398 . S
C311 C313 1.396 . S
C312 C311 1.398 . S
C312 C316 1.407 . S
C313 C311 1.396 . S
C313 C314 1.394 . S
C314 H309 0.929 . S
C314 C313 1.394 . S
C314 C315 1.382 . S
C315 C314 1.382 . S
C315 C316 1.392 . S
C315 N317 1.420 . S
C316 H310 0.930 . S
C316 C312 1.407 . S
C316 C315 1.392 . S
N317 C315 1.420 . S
N317 C318 1.244 . S
C318 N317 1.244 . S
H319 C322 0.929 . S
H320 C325 0.929 . S
H321 C327 0.930 . S
C322 H319 0.929 . S
C322 C323 1.398 . S
C322 C324 1.396 . S
C323 C322 1.398 . S
C323 C327 1.407 . S
C324 C322 1.396 . S
C324 C325 1.394 . S
C325 H320 0.929 . S
C325 C324 1.394 . S
C325 C326 1.382 . S
C326 C325 1.382 . S
C326 C327 1.392 . S
C326 N328 1.420 . S
C327 H321 0.930 . S
C327 C323 1.407 . S
C327 C326 1.392 . S
N328 C326 1.420 . S
N328 C329 1.244 . S
C329 N328 1.244 . S
H330 C333 0.929 . S
H331 C336 0.929 . S
H332 C338 0.930 . S
C333 H330 0.929 . S
C333 C334 1.398 . S
C333 C335 1.396 . S
C334 C333 1.398 . S
C334 C338 1.407 . S
C335 C333 1.396 . S
C335 C336 1.394 . S
C336 H331 0.929 . S
C336 C335 1.394 . S
C336 C337 1.382 . S
C337 C336 1.382 . S
C337 C338 1.392 . S
C337 N339 1.420 . S
C338 H332 0.930 . S
C338 C334 1.407 . S
C338 C337 1.392 . S
N339 C337 1.420 . S
N339 C340 1.244 . S
C340 N339 1.244 . S
H341 C344 0.929 . S
H342 C347 0.929 . S
H343 C349 0.930 . S
C344 H341 0.929 . S
C344 C345 1.398 . S
C344 C346 1.396 . S
C345 C344 1.398 . S
C345 C349 1.407 . S
C346 C344 1.396 . S
C346 C347 1.394 . S
C347 H342 0.929 . S
C347 C346 1.394 . S
C347 C348 1.382 . S
C348 C347 1.382 . S
C348 C349 1.392 . S
C348 N350 1.420 . S
C349 H343 0.930 . S
C349 C345 1.407 . S
C349 C348 1.392 . S
N350 C348 1.420 . S
N350 C351 1.244 . S
C351 N350 1.244 . S
Cu352 N353 1.999 . S
Cu352 O358 1.974 1_554 S
Cu352 N363 1.985 . S
Cu352 O372 1.959 . S
N353 Cu352 1.999 . S
N353 C355 1.263 1_554 S
N353 C357 1.389 . S
N354 C355 1.358 . S
N354 C356 1.400 . S
C355 N353 1.263 1_556 S
C355 N354 1.358 . S
C355 H361 0.930 . S
C356 N354 1.400 . S
C356 C357 1.351 1_556 S
C356 H373 0.930 . S
C357 N353 1.389 . S
C357 C356 1.351 1_554 S
C357 H362 0.930 . S
O358 Cu352 1.974 1_556 S
O358 C368 1.282 . S
C359 O360 1.261 . S
C359 O372 1.251 . S
O360 C359 1.261 . S
H361 C355 0.930 . S
H362 C357 0.930 . S
N363 Cu352 1.985 . S
N363 C365 1.335 . S
N363 C366 1.390 . S
N364 C365 1.345 . S
N364 C367 1.336 . S
C365 N363 1.335 . S
C365 N364 1.345 . S
C365 H370 0.930 . S
C366 N363 1.390 . S
C366 C367 1.346 . S
C366 H371 0.930 . S
C367 N364 1.336 . S
C367 C366 1.346 . S
C367 H374 0.929 . S
C368 O358 1.282 . S
C368 O369 1.216 . S
O369 C368 1.216 . S
H370 C365 0.930 . S
H371 C366 0.930 . S
O372 Cu352 1.959 . S
O372 C359 1.251 . S
H373 C356 0.930 . S
H374 C367 0.929 . S
Cu375 N376 1.999 . S
Cu375 O381 1.974 . S
Cu375 N386 1.985 1_554 S
Cu375 O395 1.959 1_554 S
N376 Cu375 1.999 . S
N376 C378 1.263 . S
N376 C380 1.389 . S
N377 C378 1.358 . S
N377 C379 1.400 . S
C378 N376 1.263 . S
C378 N377 1.358 . S
C378 H384 0.930 . S
C379 N377 1.400 . S
C379 C380 1.351 . S
C379 H396 0.930 . S
C380 N376 1.389 . S
C380 C379 1.351 . S
C380 H385 0.930 . S
O381 Cu375 1.974 . S
O381 C391 1.282 . S
C382 O383 1.301 . S
C382 O395 1.251 . S
O383 C382 1.301 . S
H384 C378 0.930 . S
H385 C380 0.930 . S
N386 Cu375 1.985 1_556 S
N386 C388 1.335 . S
N386 C389 1.390 1_556 S
N387 C388 1.345 . S
N387 C390 1.336 . S
C388 N386 1.335 . S
C388 N387 1.345 . S
C388 H393 0.930 . S
C389 N386 1.390 1_554 S
C389 C390 1.346 1_554 S
C389 H394 0.930 . S
C390 N387 1.336 . S
C390 C389 1.346 1_556 S
C390 H397 0.929 . S
C391 O381 1.282 . S
C391 O392 1.216 . S
O392 C391 1.216 . S
H393 C388 0.930 . S
H394 C389 0.930 . S
O395 Cu375 1.959 1_556 S
O395 C382 1.251 . S
H396 C379 0.930 . S
H397 C390 0.929 . S
Cu398 N399 1.999 1_554 S
Cu398 O404 1.974 1_554 S
Cu398 N409 1.985 . S
Cu398 O418 1.959 . S
N399 Cu398 1.999 1_556 S
N399 C401 1.263 . S
N399 C403 1.389 . S
N400 C401 1.358 . S
N400 C402 1.400 . S
C401 N399 1.263 . S
C401 N400 1.358 . S
C401 H407 0.930 . S
C402 N400 1.400 . S
C402 C403 1.351 . S
C402 H419 0.930 . S
C403 N399 1.389 . S
C403 C402 1.351 . S
C403 H408 0.930 1_556 S
O404 Cu398 1.974 1_556 S
O404 C414 1.282 . S
C405 O406 1.261 . S
C405 O418 1.251 . S
O406 C405 1.261 . S
H407 C401 0.930 . S
H408 C403 0.930 1_554 S
N409 Cu398 1.985 . S
N409 C411 1.335 . S
N409 C412 1.390 . S
N410 C411 1.345 . S
N410 C413 1.336 . S
C411 N409 1.335 . S
C411 N410 1.345 . S
C411 H416 0.930 . S
C412 N409 1.390 . S
C412 C413 1.346 . S
C412 H417 0.930 . S
C413 N410 1.336 . S
C413 C412 1.346 . S
C413 H420 0.929 . S
C414 O404 1.282 . S
C414 O415 1.216 . S
O415 C414 1.216 . S
H416 C411 0.930 . S
H417 C412 0.930 . S
O418 Cu398 1.959 . S
O418 C405 1.251 . S
H419 C402 0.930 . S
H420 C413 0.929 . S
Cu421 N422 1.999 . S
Cu421 O427 1.974 . S
Cu421 N432 1.985 1_554 S
Cu421 O441 1.959 1_554 S
N422 Cu421 1.999 . S
N422 C424 1.263 . S
N422 C426 1.389 . S
N423 C424 1.358 . S
N423 C425 1.400 . S
C424 N422 1.263 . S
C424 N423 1.358 . S
C424 H430 0.930 . S
C425 N423 1.400 . S
C425 C426 1.351 . S
C425 H442 0.930 . S
C426 N422 1.389 . S
C426 C425 1.351 . S
C426 H431 0.930 . S
O427 Cu421 1.974 . S
O427 C437 1.282 . S
C428 O429 1.261 . S
C428 O441 1.251 . S
O429 C428 1.261 . S
H430 C424 0.930 . S
H431 C426 0.930 . S
N432 Cu421 1.985 1_556 S
N432 C434 1.335 . S
N432 C435 1.390 . S
N433 C434 1.345 . S
N433 C436 1.336 . S
C434 N432 1.335 . S
C434 N433 1.345 . S
C434 H439 0.930 . S
C435 N432 1.390 . S
C435 C436 1.346 . S
C435 H440 0.930 1_556 S
C436 N433 1.336 . S
C436 C435 1.346 . S
C436 H443 0.929 . S
C437 O427 1.282 . S
C437 O438 1.216 . S
O438 C437 1.216 . S
H439 C434 0.930 . S
H440 C435 0.930 1_554 S
O441 Cu421 1.959 1_556 S
O441 C428 1.251 . S
H442 C425 0.930 . S
H443 C436 0.929 . S
Cu444 N445 1.999 . S
Cu444 O450 1.974 . S
Cu444 N455 1.985 . S
Cu444 O464 1.960 1_455 S
N445 Cu444 1.999 . S
N445 C447 1.263 . S
N445 C449 1.389 . S
N446 C447 1.358 . S
N446 C448 1.400 . S
C447 N445 1.263 . S
C447 N446 1.358 . S
C447 H453 0.930 . S
C448 N446 1.400 . S
C448 C449 1.351 . S
C448 H465 0.930 . S
C449 N445 1.389 . S
C449 C448 1.351 . S
C449 H454 0.930 . S
O450 Cu444 1.974 . S
O450 C460 1.282 . S
C451 O452 1.261 . S
C451 O464 1.251 . S
O452 C451 1.261 . S
H453 C447 0.930 . S
H454 C449 0.930 . S
N455 Cu444 1.985 . S
N455 C457 1.335 1_455 S
N455 C458 1.390 . S
N456 C457 1.345 . S
N456 C459 1.358 . S
C457 N455 1.335 1_655 S
C457 N456 1.345 . S
C457 H462 0.930 . S
C458 N455 1.390 . S
C458 C459 1.319 1_455 S
C458 H463 0.930 . S
C459 N456 1.358 . S
C459 C458 1.319 1_655 S
C459 H466 0.926 . S
C460 O450 1.282 . S
C460 O461 1.216 . S
O461 C460 1.216 . S
H462 C457 0.930 . S
H463 C458 0.930 . S
O464 Cu444 1.960 1_655 S
O464 C451 1.251 . S
H465 C448 0.930 . S
H466 C459 0.926 . S
Cu467 N468 1.999 . S
Cu467 O473 1.974 . S
Cu467 N478 1.985 1_545 S
Cu467 O487 1.959 1_545 S
N468 Cu467 1.999 . S
N468 C470 1.263 . S
N468 C472 1.389 . S
N469 C470 1.358 . S
N469 C471 1.400 . S
C470 N468 1.263 . S
C470 N469 1.358 . S
C470 H476 0.930 . S
C471 N469 1.400 . S
C471 C472 1.351 . S
C471 H488 0.930 . S
C472 N468 1.389 . S
C472 C471 1.351 . S
C472 H477 0.930 . S
O473 Cu467 1.974 . S
O473 C483 1.282 . S
C474 O475 1.261 . S
C474 O487 1.251 . S
O475 C474 1.261 . S
H476 C470 0.930 . S
H477 C472 0.930 . S
N478 Cu467 1.985 1_565 S
N478 C480 1.335 . S
N478 C481 1.390 . S
N479 C480 1.345 . S
N479 C482 1.336 . S
C480 N478 1.335 . S
C480 N479 1.345 . S
C480 H485 0.930 . S
C481 N478 1.390 . S
C481 C482 1.346 . S
C481 H486 0.900 1_565 S
C482 N479 1.336 . S
C482 C481 1.346 . S
C482 H489 0.929 . S
C483 O473 1.282 . S
C483 O484 1.216 . S
O484 C483 1.216 . S
H485 C480 0.930 . S
H486 C481 0.900 1_545 S
O487 Cu467 1.959 1_565 S
O487 C474 1.251 . S
H488 C471 0.930 . S
H489 C482 0.929 . S
Cu490 N491 1.949 1_455 S
Cu490 O496 1.914 1_455 S
Cu490 N501 2.036 . S
Cu490 O510 2.019 . S
N491 Cu490 1.949 1_655 S
N491 C493 1.263 . S
N491 C495 1.389 . S
N492 C493 1.358 . S
N492 C494 1.400 . S
C493 N491 1.263 . S
C493 N492 1.358 . S
C493 H499 0.930 . S
C494 N492 1.400 . S
C494 C495 1.351 . S
C494 H511 0.930 . S
C495 N491 1.389 . S
C495 C494 1.351 . S
C495 H500 0.930 . S
O496 Cu490 1.914 1_655 S
O496 C506 1.282 . S
C497 O498 1.261 . S
C497 O510 1.251 . S
O498 C497 1.261 . S
H499 C493 0.930 . S
H500 C495 0.930 . S
N501 Cu490 2.036 . S
N501 C503 1.335 . S
N501 C504 1.390 . S
N502 C503 1.345 . S
N502 C505 1.336 . S
C503 N501 1.335 . S
C503 N502 1.345 . S
C503 H508 0.930 . S
C504 N501 1.390 . S
C504 C505 1.346 . S
C504 H509 0.930 . S
C505 N502 1.336 . S
C505 C504 1.346 . S
C505 H512 0.929 . S
C506 O496 1.282 . S
C506 O507 1.216 . S
O507 C506 1.216 . S
H508 C503 0.930 . S
H509 C504 0.930 . S
O510 Cu490 2.019 . S
O510 C497 1.251 . S
H511 C494 0.930 . S
H512 C505 0.929 . S
Cu513 N514 1.999 . S
Cu513 O519 1.974 . S
Cu513 N524 1.985 1_545 S
Cu513 O533 1.959 1_545 S
N514 Cu513 1.999 . S
N514 C516 1.263 . S
N514 C518 1.389 . S
N515 C516 1.358 . S
N515 C517 1.400 . S
C516 N514 1.263 . S
C516 N515 1.358 . S
C516 H522 0.930 . S
C517 N515 1.400 . S
C517 C518 1.351 . S
C517 H534 0.930 . S
C518 N514 1.389 . S
C518 C517 1.351 . S
C518 H523 0.930 . S
O519 Cu513 1.974 . S
O519 C529 1.282 . S
C520 O521 1.261 . S
C520 O533 1.251 . S
O521 C520 1.261 . S
H522 C516 0.930 . S
H523 C518 0.930 . S
N524 Cu513 1.985 1_565 S
N524 C526 1.335 . S
N524 C527 1.390 . S
N525 C526 1.345 . S
N525 C528 1.336 . S
C526 N524 1.335 . S
C526 N525 1.345 . S
C526 H531 0.930 . S
C527 N524 1.390 . S
C527 C528 1.346 . S
C527 H532 0.930 . S
C528 N525 1.336 . S
C528 C527 1.346 . S
C528 H535 0.929 . S
C529 O519 1.282 . S
C529 O530 1.216 . S
O530 C529 1.216 . S
H531 C526 0.930 . S
H532 C527 0.930 . S
O533 Cu513 1.959 1_565 S
O533 C520 1.251 . S
H534 C517 0.930 . S
H535 C528 0.929 . S
Cu536 N537 1.999 . S
Cu536 O542 1.974 . S
Cu536 N547 1.985 . S
Cu536 O556 1.959 . S
N537 Cu536 1.999 . S
N537 C539 1.263 . S
N537 C541 1.389 . S
N538 C539 1.358 . S
N538 C540 1.400 . S
C539 N537 1.263 . S
C539 N538 1.358 . S
C539 H545 0.930 . S
C540 N538 1.400 . S
C540 C541 1.351 . S
C540 H557 0.930 . S
C541 N537 1.389 . S
C541 C540 1.351 . S
C541 H546 0.930 . S
O542 Cu536 1.974 . S
O542 C552 1.282 . S
C543 O544 1.261 . S
C543 O556 1.251 1_655 S
O544 C543 1.261 . S
H545 C539 0.930 . S
H546 C541 0.930 . S
N547 Cu536 1.985 . S
N547 C549 1.335 1_455 S
N547 C550 1.390 . S
N548 C549 1.345 . S
N548 C551 1.335 . S
C549 N547 1.335 1_655 S
C549 N548 1.345 . S
C549 H554 0.930 . S
C550 N547 1.390 . S
C550 C551 1.347 1_455 S
C550 H555 0.930 . S
C551 N548 1.335 . S
C551 C550 1.347 1_655 S
C551 H558 0.926 . S
C552 O542 1.282 . S
C552 O553 1.216 . S
O553 C552 1.216 . S
H554 C549 0.930 . S
H555 C550 0.930 . S
O556 Cu536 1.959 . S
O556 C543 1.251 1_455 S
H557 C540 0.930 . S
H558 C551 0.926 . S
Cu559 N560 1.999 . S
Cu559 O565 1.974 . S
Cu559 N570 1.985 1_545 S
Cu559 O579 1.959 1_545 S
N560 Cu559 1.999 . S
N560 C562 1.263 . S
N560 C564 1.389 . S
N561 C562 1.358 . S
N561 C563 1.400 . S
C562 N560 1.263 . S
C562 N561 1.358 . S
C562 H568 0.930 . S
C563 N561 1.400 . S
C563 C564 1.351 . S
C563 H580 0.930 . S
C564 N560 1.389 . S
C564 C563 1.351 . S
C564 H569 0.930 . S
O565 Cu559 1.974 . S
O565 C575 1.282 . S
C566 O567 1.261 1_565 S
C566 O579 1.251 . S
O567 C566 1.261 1_545 S
H568 C562 0.930 . S
H569 C564 0.930 . S
N570 Cu559 1.985 1_565 S
N570 C572 1.335 . S
N570 C573 1.390 . S
N571 C572 1.345 . S
N571 C574 1.336 . S
C572 N570 1.335 . S
C572 N571 1.345 . S
C572 H577 0.930 . S
C573 N570 1.390 . S
C573 C574 1.346 . S
C573 H578 0.930 1_565 S
C574 N571 1.336 . S
C574 C573 1.346 . S
C574 H581 0.929 . S
C575 O565 1.282 . S
C575 O576 1.216 . S
O576 C575 1.216 . S
H577 C572 0.930 . S
H578 C573 0.930 1_545 S
O579 Cu559 1.959 1_565 S
O579 C566 1.251 . S
H580 C563 0.930 . S
H581 C574 0.929 . S
Cu582 N583 1.999 . S
Cu582 O588 1.974 . S
Cu582 N593 1.985 . S
Cu582 O602 1.959 . S
N583 Cu582 1.999 . S
N583 C585 1.290 . S
N583 C587 1.389 . S
N584 C585 1.343 1_655 S
N584 C586 1.400 1_655 S
C585 N583 1.290 . S
C585 N584 1.343 1_455 S
C585 H591 0.919 1_455 S
C586 N584 1.400 1_455 S
C586 C587 1.351 . S
C586 H603 0.936 . S
C587 N583 1.389 . S
C587 C586 1.351 . S
C587 H592 0.930 . S
O588 Cu582 1.974 . S
O588 C598 1.282 . S
C589 O590 1.261 . S
C589 O602 1.251 . S
O590 C589 1.261 . S
H591 C585 0.919 1_655 S
H592 C587 0.930 . S
N593 Cu582 1.985 . S
N593 C595 1.335 . S
N593 C596 1.390 . S
N594 C595 1.345 . S
N594 C597 1.336 . S
C595 N593 1.335 . S
C595 N594 1.345 . S
C595 H600 0.930 . S
C596 N593 1.390 . S
C596 C597 1.346 . S
C596 H601 0.930 . S
C597 N594 1.336 . S
C597 C596 1.346 . S
C597 H604 0.929 . S
C598 O588 1.282 . S
C598 O599 1.216 . S
O599 C598 1.216 . S
H600 C595 0.930 . S
H601 C596 0.930 . S
O602 Cu582 1.959 . S
O602 C589 1.251 . S
H603 C586 0.936 . S
H604 C597 0.929 . S
Cu605 N606 1.999 . S
Cu605 O611 1.974 . S
Cu605 N616 2.003 . S
Cu605 O625 1.959 . S
N606 Cu605 1.999 . S
N606 C608 1.263 . S
N606 C610 1.389 . S
N607 C608 1.358 . S
N607 C609 1.400 . S
C608 N606 1.263 . S
C608 N607 1.358 . S
C608 H614 0.930 . S
C609 N607 1.400 . S
C609 C610 1.351 . S
C609 H626 0.930 . S
C610 N606 1.389 . S
C610 C609 1.351 . S
C610 H615 0.930 . S
O611 Cu605 1.974 . S
O611 C621 1.282 . S
C612 O613 1.234 1_565 S
C612 O625 1.251 1_565 S
O613 C612 1.234 1_545 S
H614 C608 0.930 . S
H615 C610 0.930 . S
N616 Cu605 2.003 . S
N616 C618 1.307 1_545 S
N616 C619 1.389 . S
N617 C618 1.345 . S
N617 C620 1.336 . S
C618 N616 1.307 1_565 S
C618 N617 1.345 . S
C618 H623 0.930 . S
C619 N616 1.389 . S
C619 C620 1.316 1_545 S
C619 H624 0.962 . S
C620 N617 1.336 . S
C620 C619 1.316 1_565 S
C620 H627 0.929 . S
C621 O611 1.282 . S
C621 O622 1.216 . S
O622 C621 1.216 . S
H623 C618 0.930 . S
H624 C619 0.962 . S
O625 Cu605 1.959 . S
O625 C612 1.251 1_545 S
H626 C609 0.930 . S
H627 C620 0.929 . S
Cu628 N629 1.999 . S
Cu628 O634 1.974 . S
Cu628 N639 1.985 . S
Cu628 O648 1.959 . S
N629 Cu628 1.999 . S
N629 C631 1.263 . S
N629 C633 1.389 . S
N630 C631 1.358 . S
N630 C632 1.400 . S
C631 N629 1.263 . S
C631 N630 1.358 . S
C631 H637 0.930 . S
C632 N630 1.400 . S
C632 C633 1.351 . S
C632 H649 0.930 . S
C633 N629 1.389 . S
C633 C632 1.351 . S
C633 H638 0.930 . S
O634 Cu628 1.974 . S
O634 C644 1.282 . S
C635 O636 1.261 . S
C635 O648 1.251 . S
O636 C635 1.261 . S
H637 C631 0.930 . S
H638 C633 0.930 . S
N639 Cu628 1.985 . S
N639 C641 1.335 . S
N639 C642 1.390 . S
N640 C641 1.345 . S
N640 C643 1.336 . S
C641 N639 1.335 . S
C641 N640 1.345 . S
C641 H646 0.930 . S
C642 N639 1.390 . S
C642 C643 1.346 . S
C642 H647 0.930 . S
C643 N640 1.336 . S
C643 C642 1.346 . S
C643 H650 0.929 . S
C644 O634 1.282 . S
C644 O645 1.216 . S
O645 C644 1.216 . S
H646 C641 0.930 . S
H647 C642 0.930 . S
O648 Cu628 1.959 . S
O648 C635 1.251 . S
H649 C632 0.930 . S
H650 C643 0.929 . S
Cu651 N652 1.999 . S
Cu651 O657 1.974 . S
Cu651 N662 1.985 . S
Cu651 O671 1.959 . S
N652 Cu651 1.999 . S
N652 C654 1.263 . S
N652 C656 1.389 . S
N653 C654 1.358 . S
N653 C655 1.400 . S
C654 N652 1.263 . S
C654 N653 1.358 . S
C654 H660 0.930 . S
C655 N653 1.400 . S
C655 C656 1.351 . S
C655 H672 0.930 . S
C656 N652 1.389 . S
C656 C655 1.351 . S
C656 H661 0.930 . S
O657 Cu651 1.974 . S
O657 C667 1.282 . S
C658 O659 1.261 . S
C658 O671 1.251 . S
O659 C658 1.261 . S
H660 C654 0.930 . S
H661 C656 0.930 . S
N662 Cu651 1.985 . S
N662 C664 1.335 . S
N662 C665 1.390 . S
N663 C664 1.345 . S
N663 C666 1.336 . S
C664 N662 1.335 . S
C664 N663 1.345 . S
C664 H669 0.930 . S
C665 N662 1.390 . S
C665 C666 1.346 . S
C665 H670 0.930 . S
C666 N663 1.336 . S
C666 C665 1.346 . S
C666 H673 0.929 . S
C667 O657 1.282 . S
C667 O668 1.216 . S
O668 C667 1.216 . S
H669 C664 0.930 . S
H670 C665 0.930 . S
O671 Cu651 1.959 . S
O671 C658 1.251 . S
H672 C655 0.930 . S
H673 C666 0.929 . S
Cu674 N675 1.999 . S
Cu674 O680 1.974 . S
Cu674 N685 1.985 . S
Cu674 O694 1.959 . S
N675 Cu674 1.999 . S
N675 C677 1.263 . S
N675 C679 1.389 . S
N676 C677 1.358 . S
N676 C678 1.400 . S
C677 N675 1.263 . S
C677 N676 1.358 . S
C677 H683 0.930 . S
C678 N676 1.400 . S
C678 C679 1.351 . S
C678 H695 0.930 . S
C679 N675 1.389 . S
C679 C678 1.351 . S
C679 H684 0.930 . S
O680 Cu674 1.974 . S
O680 C690 1.282 . S
C681 O682 1.261 . S
C681 O694 1.251 . S
O682 C681 1.261 . S
H683 C677 0.930 . S
H684 C679 0.930 . S
N685 Cu674 1.985 . S
N685 C687 1.335 . S
N685 C688 1.390 . S
N686 C687 1.345 . S
N686 C689 1.336 . S
C687 N685 1.335 . S
C687 N686 1.345 . S
C687 H692 0.930 . S
C688 N685 1.390 . S
C688 C689 1.346 . S
C688 H693 0.930 . S
C689 N686 1.336 . S
C689 C688 1.346 . S
C689 H696 0.929 . S
C690 O680 1.282 . S
C690 O691 1.216 . S
O691 C690 1.216 . S
H692 C687 0.930 . S
H693 C688 0.930 . S
O694 Cu674 1.959 . S
O694 C681 1.251 . S
H695 C678 0.930 . S
H696 C689 0.929 . S
Cu697 N698 1.999 . S
Cu697 O703 1.974 . S
Cu697 N708 1.985 . S
Cu697 O717 1.959 . S
N698 Cu697 1.999 . S
N698 C700 1.263 . S
N698 C702 1.389 . S
N699 C700 1.358 . S
N699 C701 1.400 . S
C700 N698 1.263 . S
C700 N699 1.358 . S
C700 H706 0.930 . S
C701 N699 1.400 . S
C701 C702 1.351 . S
C701 H718 0.930 . S
C702 N698 1.389 . S
C702 C701 1.351 . S
C702 H707 0.930 . S
O703 Cu697 1.974 . S
O703 C713 1.282 . S
C704 O705 1.261 . S
C704 O717 1.251 . S
O705 C704 1.261 . S
H706 C700 0.930 . S
H707 C702 0.930 . S
N708 Cu697 1.985 . S
N708 C710 1.335 . S
N708 C711 1.390 . S
N709 C710 1.345 . S
N709 C712 1.336 . S
C710 N708 1.335 . S
C710 N709 1.345 . S
C710 H715 0.930 . S
C711 N708 1.390 . S
C711 C712 1.346 . S
C711 H716 0.930 . S
C712 N709 1.336 . S
C712 C711 1.346 . S
C712 H719 0.929 . S
C713 O703 1.282 . S
C713 O714 1.216 . S
O714 C713 1.216 . S
H715 C710 0.930 . S
H716 C711 0.930 . S
O717 Cu697 1.959 . S
O717 C704 1.251 . S
H718 C701 0.930 . S
H719 C712 0.929 . S
Cu720 N721 1.999 . S
Cu720 O726 1.974 . S
Cu720 N731 1.985 . S
Cu720 O740 1.959 . S
N721 Cu720 1.999 . S
N721 C723 1.263 . S
N721 C725 1.389 . S
N722 C723 1.358 . S
N722 C724 1.400 . S
C723 N721 1.263 . S
C723 N722 1.358 . S
C723 H729 0.930 . S
C724 N722 1.400 . S
C724 C725 1.351 . S
C724 H741 0.930 . S
C725 N721 1.389 . S
C725 C724 1.351 . S
C725 H730 0.930 . S
O726 Cu720 1.974 . S
O726 C736 1.282 . S
C727 O728 1.261 . S
C727 O740 1.251 . S
O728 C727 1.261 . S
H729 C723 0.930 . S
H730 C725 0.930 . S
N731 Cu720 1.985 . S
N731 C733 1.335 . S
N731 C734 1.390 . S
N732 C733 1.345 . S
N732 C735 1.336 . S
C733 N731 1.335 . S
C733 N732 1.345 . S
C733 H738 0.930 . S
C734 N731 1.390 . S
C734 C735 1.346 . S
C734 H739 0.930 . S
C735 N732 1.336 . S
C735 C734 1.346 . S
C735 H742 0.929 . S
C736 O726 1.282 . S
C736 O737 1.216 . S
O737 C736 1.216 . S
H738 C733 0.930 . S
H739 C734 0.930 . S
O740 Cu720 1.959 . S
O740 C727 1.251 . S
H741 C724 0.930 . S
H742 C735 0.929 . S
Cu743 N744 1.999 . S
Cu743 O749 1.974 . S
Cu743 N754 1.985 . S
Cu743 O763 1.959 . S
N744 Cu743 1.999 . S
N744 C746 1.263 . S
N744 C748 1.389 . S
N745 C746 1.358 . S
N745 C747 1.400 . S
C746 N744 1.263 . S
C746 N745 1.358 . S
C746 H752 0.930 . S
C747 N745 1.400 . S
C747 C748 1.351 . S
C747 H764 0.930 . S
C748 N744 1.389 . S
C748 C747 1.351 . S
C748 H753 0.930 . S
O749 Cu743 1.974 . S
O749 C759 1.282 . S
C750 O751 1.261 . S
C750 O763 1.251 . S
O751 C750 1.261 . S
H752 C746 0.930 . S
H753 C748 0.930 . S
N754 Cu743 1.985 . S
N754 C756 1.335 . S
N754 C757 1.390 . S
N755 C756 1.345 . S
N755 C758 1.336 . S
C756 N754 1.335 . S
C756 N755 1.345 . S
C756 H761 0.930 . S
C757 N754 1.390 . S
C757 C758 1.346 . S
C757 H762 0.930 . S
C758 N755 1.336 . S
C758 C757 1.346 . S
C758 H765 0.929 . S
C759 O749 1.282 . S
C759 O760 1.216 . S
O760 C759 1.216 . S
H761 C756 0.930 . S
H762 C757 0.930 . S
O763 Cu743 1.959 . S
O763 C750 1.251 . S
H764 C747 0.930 . S
H765 C758 0.929 . S
Cu766 N767 1.999 . S
Cu766 O772 1.974 . S
Cu766 N777 1.985 . S
Cu766 O786 1.959 . S
N767 Cu766 1.999 . S
N767 C769 1.263 . S
N767 C771 1.389 . S
N768 C769 1.358 . S
N768 C770 1.400 . S
C769 N767 1.263 . S
C769 N768 1.358 . S
C769 H775 0.930 . S
C770 N768 1.400 . S
C770 C771 1.351 . S
C770 H787 0.930 . S
C771 N767 1.389 . S
C771 C770 1.351 . S
C771 H776 0.930 . S
O772 Cu766 1.974 . S
O772 C782 1.282 . S
C773 O774 1.261 . S
C773 O786 1.251 . S
O774 C773 1.261 . S
H775 C769 0.930 . S
H776 C771 0.930 . S
N777 Cu766 1.985 . S
N777 C779 1.335 . S
N777 C780 1.390 . S
N778 C779 1.345 . S
N778 C781 1.336 . S
C779 N777 1.335 . S
C779 N778 1.345 . S
C779 H784 0.930 . S
C780 N777 1.390 . S
C780 C781 1.346 . S
C780 H785 0.930 . S
C781 N778 1.336 . S
C781 C780 1.346 . S
C781 H788 0.929 . S
C782 O772 1.282 . S
C782 O783 1.216 . S
O783 C782 1.216 . S
H784 C779 0.930 . S
H785 C780 0.930 . S
O786 Cu766 1.959 . S
O786 C773 1.251 . S
H787 C770 0.930 . S
H788 C781 0.929 . S
Cu789 N790 1.999 . S
Cu789 O795 1.974 . S
Cu789 N800 1.985 . S
Cu789 O809 1.959 . S
N790 Cu789 1.999 . S
N790 C792 1.263 . S
N790 C794 1.389 . S
N791 C792 1.358 . S
N791 C793 1.400 . S
C792 N790 1.263 . S
C792 N791 1.358 . S
C792 H798 0.930 . S
C793 N791 1.400 . S
C793 C794 1.351 . S
C793 H810 0.930 . S
C794 N790 1.389 . S
C794 C793 1.351 . S
C794 H799 0.930 . S
O795 Cu789 1.974 . S
O795 C805 1.282 . S
C796 O797 1.261 . S
C796 O809 1.251 . S
O797 C796 1.261 . S
H798 C792 0.930 . S
H799 C794 0.930 . S
N800 Cu789 1.985 . S
N800 C802 1.335 . S
N800 C803 1.390 . S
N801 C802 1.345 . S
N801 C804 1.336 . S
C802 N800 1.335 . S
C802 N801 1.345 . S
C802 H807 0.930 . S
C803 N800 1.390 . S
C803 C804 1.346 . S
C803 H808 0.930 . S
C804 N801 1.336 . S
C804 C803 1.346 . S
C804 H811 0.929 . S
C805 O795 1.282 . S
C805 O806 1.216 . S
O806 C805 1.216 . S
H807 C802 0.930 . S
H808 C803 0.930 . S
O809 Cu789 1.959 . S
O809 C796 1.251 . S
H810 C793 0.930 . S
H811 C804 0.929 . S
Cu812 N813 1.999 . S
Cu812 O818 1.974 . S
Cu812 N823 1.985 . S
Cu812 O832 1.959 . S
N813 Cu812 1.999 . S
N813 C815 1.263 . S
N813 C817 1.389 . S
N814 C815 1.358 . S
N814 C816 1.400 . S
C815 N813 1.263 . S
C815 N814 1.358 . S
C815 H821 0.930 . S
C816 N814 1.400 . S
C816 C817 1.351 . S
C816 H833 0.930 . S
C817 N813 1.389 . S
C817 C816 1.351 . S
C817 H822 0.930 . S
O818 Cu812 1.974 . S
O818 C828 1.282 . S
C819 O820 1.261 . S
C819 O832 1.251 . S
O820 C819 1.261 . S
H821 C815 0.930 . S
H822 C817 0.930 . S
N823 Cu812 1.985 . S
N823 C825 1.335 . S
N823 C826 1.390 . S
N824 C825 1.345 . S
N824 C827 1.336 . S
C825 N823 1.335 . S
C825 N824 1.345 . S
C825 H830 0.930 . S
C826 N823 1.390 . S
C826 C827 1.346 . S
C826 H831 0.930 . S
C827 N824 1.336 . S
C827 C826 1.346 . S
C827 H834 0.929 . S
C828 O818 1.282 . S
C828 O829 1.216 . S
O829 C828 1.216 . S
H830 C825 0.930 . S
H831 C826 0.930 . S
O832 Cu812 1.959 . S
O832 C819 1.251 . S
H833 C816 0.930 . S
H834 C827 0.929 . S
Cu835 N836 1.999 . S
Cu835 O841 1.974 . S
Cu835 N846 1.985 . S
Cu835 O855 1.959 . S
N836 Cu835 1.999 . S
N836 C838 1.263 . S
N836 C840 1.389 . S
N837 C838 1.358 . S
N837 C839 1.400 . S
C838 N836 1.263 . S
C838 N837 1.358 . S
C838 H844 0.930 . S
C839 N837 1.400 . S
C839 C840 1.351 . S
C839 H856 0.930 . S
C840 N836 1.389 . S
C840 C839 1.351 . S
C840 H845 0.930 . S
O841 Cu835 1.974 . S
O841 C851 1.282 . S
C842 O843 1.261 . S
C842 O855 1.251 . S
O843 C842 1.261 . S
H844 C838 0.930 . S
H845 C840 0.930 . S
N846 Cu835 1.985 . S
N846 C848 1.335 . S
N846 C849 1.390 . S
N847 C848 1.345 . S
N847 C850 1.336 . S
C848 N846 1.335 . S
C848 N847 1.345 . S
C848 H853 0.930 . S
C849 N846 1.390 . S
C849 C850 1.346 . S
C849 H854 0.930 . S
C850 N847 1.336 . S
C850 C849 1.346 . S
C850 H857 0.929 . S
C851 O841 1.282 . S
C851 O852 1.216 . S
O852 C851 1.216 . S
H853 C848 0.930 . S
H854 C849 0.930 . S
O855 Cu835 1.959 . S
O855 C842 1.251 . S
H856 C839 0.930 . S
H857 C850 0.929 . S
Cu858 N859 1.999 . S
Cu858 O864 1.974 . S
Cu858 N869 1.985 . S
Cu858 O878 1.959 . S
N859 Cu858 1.999 . S
N859 C861 1.263 . S
N859 C863 1.389 . S
N860 C861 1.358 . S
N860 C862 1.400 . S
C861 N859 1.263 . S
C861 N860 1.358 . S
C861 H867 0.930 . S
C862 N860 1.400 . S
C862 C863 1.351 . S
C862 H879 0.930 . S
C863 N859 1.389 . S
C863 C862 1.351 . S
C863 H868 0.930 . S
O864 Cu858 1.974 . S
O864 C874 1.282 . S
C865 O866 1.261 . S
C865 O878 1.251 . S
O866 C865 1.261 . S
H867 C861 0.930 . S
H868 C863 0.930 . S
N869 Cu858 1.985 . S
N869 C871 1.335 . S
N869 C872 1.390 . S
N870 C871 1.345 . S
N870 C873 1.336 . S
C871 N869 1.335 . S
C871 N870 1.345 . S
C871 H876 0.930 . S
C872 N869 1.390 . S
C872 C873 1.346 . S
C872 H877 0.930 . S
C873 N870 1.336 . S
C873 C872 1.346 . S
C873 H880 0.929 . S
C874 O864 1.282 . S
C874 O875 1.216 . S
O875 C874 1.216 . S
H876 C871 0.930 . S
H877 C872 0.930 . S
O878 Cu858 1.959 . S
O878 C865 1.251 . S
H879 C862 0.930 . S
H880 C873 0.929 . S
Cu881 N882 1.999 . S
Cu881 O887 1.974 . S
Cu881 N892 1.985 . S
Cu881 O901 1.959 . S
N882 Cu881 1.999 . S
N882 C884 1.263 . S
N882 C886 1.389 . S
N883 C884 1.358 . S
N883 C885 1.400 . S
C884 N882 1.263 . S
C884 N883 1.358 . S
C884 H890 0.930 . S
C885 N883 1.400 . S
C885 C886 1.351 . S
C885 H902 0.930 . S
C886 N882 1.389 . S
C886 C885 1.351 . S
C886 H891 0.930 . S
O887 Cu881 1.974 . S
O887 C897 1.282 . S
C888 O889 1.261 . S
C888 O901 1.251 . S
O889 C888 1.261 . S
H890 C884 0.930 . S
H891 C886 0.930 . S
N892 Cu881 1.985 . S
N892 C894 1.335 . S
N892 C895 1.390 . S
N893 C894 1.345 . S
N893 C896 1.336 . S
C894 N892 1.335 . S
C894 N893 1.345 . S
C894 H899 0.930 . S
C895 N892 1.390 . S
C895 C896 1.346 . S
C895 H900 0.930 . S
C896 N893 1.336 . S
C896 C895 1.346 . S
C896 H903 0.929 . S
C897 O887 1.282 . S
C897 O898 1.216 . S
O898 C897 1.216 . S
H899 C894 0.930 . S
H900 C895 0.930 . S
O901 Cu881 1.959 . S
O901 C888 1.251 . S
H902 C885 0.930 . S
H903 C896 0.929 . S
C904 C905 1.349 . S
C904 C906 1.327 . S
C904 H929 0.950 . S
C905 C904 1.349 . S
C905 C921 1.349 . S
C906 C904 1.327 . S
C906 C925 1.429 . S
C906 H930 0.950 . S
C907 C924 1.574 . S
C907 C926 1.368 . S
C907 H931 0.949 . S
H908 C912 0.949 . S
C909 C910 1.349 . S
C909 C911 1.327 . S
C909 H932 0.950 . S
C910 C909 1.349 . S
C910 C922 1.349 . S
C911 C909 1.327 . S
C911 C927 1.429 . S
C911 H933 0.950 . S
C912 H908 0.949 . S
C912 C920 1.574 . S
C912 C928 1.368 . S
H913 C921 0.950 . S
H914 C919 0.950 . S
H915 C920 0.949 . S
H916 C922 0.950 . S
H917 C923 0.950 . S
H918 C924 0.949 . S
C919 H914 0.950 . S
C919 C921 1.327 . S
C919 C925 1.429 . S
C920 C912 1.574 . S
C920 H915 0.949 . S
C920 C926 1.368 . S
C921 C905 1.349 . S
C921 H913 0.950 . S
C921 C919 1.327 . S
C922 C910 1.349 . S
C922 H916 0.950 . S
C922 C923 1.327 . S
C923 H917 0.950 . S
C923 C922 1.327 . S
C923 C927 1.429 . S
C924 C907 1.574 . S
C924 H918 0.949 . S
C924 C928 1.368 . S
C925 C906 1.429 . S
C925 C919 1.429 . S
C925 C926 1.523 . S
C926 C907 1.368 . S
C926 C920 1.368 . S
C926 C925 1.523 . S
C927 C911 1.429 . S
C927 C923 1.429 . S
C927 C928 1.523 . S
C928 C912 1.368 . S
C928 C924 1.368 . S
C928 C927 1.523 . S
H929 C904 0.950 . S
H930 C906 0.950 . S
H931 C907 0.949 . S
H932 C909 0.950 . S
H933 C911 0.950 . S
C934 C935 1.349 . S
C934 C936 1.327 . S
C934 H959 0.950 . S
C935 C934 1.349 . S
C935 C951 1.349 . S
C936 C934 1.327 . S
C936 C955 1.429 . S
C936 H960 0.950 . S
C937 C954 1.574 . S
C937 C956 1.368 . S
C937 H961 0.949 . S
H938 C942 0.949 . S
C939 C940 1.349 . S
C939 C941 1.327 . S
C939 H962 0.950 . S
C940 C939 1.349 . S
C940 C952 1.349 . S
C941 C939 1.327 . S
C941 C957 1.429 . S
C941 H963 0.950 . S
C942 H938 0.949 . S
C942 C950 1.574 . S
C942 C958 1.368 . S
H943 C951 0.950 . S
H944 C949 0.950 . S
H945 C950 0.949 . S
H946 C952 0.950 . S
H947 C953 0.950 . S
H948 C954 0.949 . S
C949 H944 0.950 . S
C949 C951 1.327 . S
C949 C955 1.429 . S
C950 C942 1.574 . S
C950 H945 0.949 . S
C950 C956 1.368 . S
C951 C935 1.349 . S
C951 H943 0.950 . S
C951 C949 1.327 . S
C952 C940 1.349 . S
C952 H946 0.950 . S
C952 C953 1.327 . S
C953 H947 0.950 . S
C953 C952 1.327 . S
C953 C957 1.429 . S
C954 C937 1.574 . S
C954 H948 0.949 . S
C954 C958 1.368 . S
C955 C936 1.429 . S
C955 C949 1.429 . S
C955 C956 1.523 . S
C956 C937 1.368 . S
C956 C950 1.368 . S
C956 C955 1.523 . S
C957 C941 1.429 . S
C957 C953 1.429 . S
C957 C958 1.523 . S
C958 C942 1.368 . S
C958 C954 1.368 . S
C958 C957 1.523 . S
H959 C934 0.950 . S
H960 C936 0.950 . S
H961 C937 0.949 . S
H962 C939 0.950 . S
H963 C941 0.950 . S
C964 C965 1.349 . S
C964 C966 1.327 . S
C964 H989 0.950 . S
C965 C964 1.349 . S
C965 C981 1.349 . S
C966 C964 1.327 . S
C966 C985 1.429 . S
C966 H990 0.950 . S
C967 C984 1.574 . S
C967 C986 1.368 . S
C967 H991 0.949 . S
H968 C972 0.949 . S
C969 C970 1.349 . S
C969 C971 1.327 . S
C969 H992 0.950 . S
C970 C969 1.349 . S
C970 C982 1.349 . S
C971 C969 1.327 . S
C971 C987 1.429 . S
C971 H993 0.950 . S
C972 H968 0.949 . S
C972 C980 1.574 . S
C972 C988 1.368 . S
H973 C981 0.950 . S
H974 C979 0.950 . S
H975 C980 0.949 . S
H976 C982 0.950 . S
H977 C983 0.950 . S
H978 C984 0.949 . S
C979 H974 0.950 . S
C979 C981 1.327 . S
C979 C985 1.429 . S
C980 C972 1.574 . S
C980 H975 0.949 . S
C980 C986 1.368 . S
C981 C965 1.349 . S
C981 H973 0.950 . S
C981 C979 1.327 . S
C982 C970 1.349 . S
C982 H976 0.950 . S
C982 C983 1.327 . S
C983 H977 0.950 . S
C983 C982 1.327 . S
C983 C987 1.429 . S
C984 C967 1.574 . S
C984 H978 0.949 . S
C984 C988 1.368 . S
C985 C966 1.429 . S
C985 C979 1.429 . S
C985 C986 1.523 . S
C986 C967 1.368 . S
C986 C980 1.368 . S
C986 C985 1.523 . S
C987 C971 1.429 . S
C987 C983 1.429 . S
C987 C988 1.523 . S
C988 C972 1.368 . S
C988 C984 1.368 . S
C988 C987 1.523 . S
H989 C964 0.950 . S
H990 C966 0.950 . S
H991 C967 0.949 . S
H992 C969 0.950 . S
H993 C971 0.950 . S
C994 C995 1.349 . S
C994 C996 1.327 . S
C994 H1019 0.950 . S
C995 C994 1.349 . S
C995 C1011 1.349 . S
C996 C994 1.327 . S
C996 C1015 1.429 . S
C996 H1020 0.950 . S
C997 C1014 1.574 . S
C997 C1016 1.368 . S
C997 H1021 0.949 . S
H998 C1002 0.949 . S
C999 C1000 1.349 . S
C999 C1001 1.327 . S
C999 H1022 0.950 . S
C1000 C999 1.349 . S
C1000 C1012 1.349 . S
C1001 C999 1.327 . S
C1001 C1017 1.429 . S
C1001 H1023 0.950 . S
C1002 H998 0.949 . S
C1002 C1010 1.574 . S
C1002 C1018 1.368 . S
H1003 C1011 0.950 . S
H1004 C1009 0.950 . S
H1005 C1010 0.949 . S
H1006 C1012 0.950 . S
H1007 C1013 0.950 . S
H1008 C1014 0.949 . S
C1009 H1004 0.950 . S
C1009 C1011 1.327 . S
C1009 C1015 1.429 . S
C1010 C1002 1.574 . S
C1010 H1005 0.949 . S
C1010 C1016 1.368 . S
C1011 C995 1.349 . S
C1011 H1003 0.950 . S
C1011 C1009 1.327 . S
C1012 C1000 1.349 . S
C1012 H1006 0.950 . S
C1012 C1013 1.327 . S
C1013 H1007 0.950 . S
C1013 C1012 1.327 . S
C1013 C1017 1.429 . S
C1014 C997 1.574 . S
C1014 H1008 0.949 . S
C1014 C1018 1.368 . S
C1015 C996 1.429 . S
C1015 C1009 1.429 . S
C1015 C1016 1.523 . S
C1016 C997 1.368 . S
C1016 C1010 1.368 . S
C1016 C1015 1.523 . S
C1017 C1001 1.429 . S
C1017 C1013 1.429 . S
C1017 C1018 1.523 . S
C1018 C1002 1.368 . S
C1018 C1014 1.368 . S
C1018 C1017 1.523 . S
H1019 C994 0.950 . S
H1020 C996 0.950 . S
H1021 C997 0.949 . S
H1022 C999 0.950 . S
H1023 C1001 0.950 . S
C1024 C1025 1.349 . S
C1024 C1026 1.327 . S
C1024 H1049 0.950 . S
C1025 C1024 1.349 . S
C1025 C1041 1.349 . S
C1026 C1024 1.327 . S
C1026 C1045 1.429 . S
C1026 H1050 0.950 . S
C1027 C1044 1.574 . S
C1027 C1046 1.368 . S
C1027 H1051 0.949 . S
H1028 C1032 0.949 . S
C1029 C1030 1.349 . S
C1029 C1031 1.327 . S
C1029 H1052 0.950 . S
C1030 C1029 1.349 . S
C1030 C1042 1.349 . S
C1031 C1029 1.327 . S
C1031 C1047 1.429 . S
C1031 H1053 0.950 . S
C1032 H1028 0.949 . S
C1032 C1040 1.574 . S
C1032 C1048 1.368 . S
H1033 C1041 0.950 . S
H1034 C1039 0.950 . S
H1035 C1040 0.949 . S
H1036 C1042 0.950 . S
H1037 C1043 0.950 . S
H1038 C1044 0.949 . S
C1039 H1034 0.950 . S
C1039 C1041 1.327 . S
C1039 C1045 1.429 . S
C1040 C1032 1.574 . S
C1040 H1035 0.949 . S
C1040 C1046 1.368 . S
C1041 C1025 1.349 . S
C1041 H1033 0.950 . S
C1041 C1039 1.327 . S
C1042 C1030 1.349 . S
C1042 H1036 0.950 . S
C1042 C1043 1.327 . S
C1043 H1037 0.950 . S
C1043 C1042 1.327 . S
C1043 C1047 1.429 . S
C1044 C1027 1.574 . S
C1044 H1038 0.949 . S
C1044 C1048 1.368 . S
C1045 C1026 1.429 . S
C1045 C1039 1.429 . S
C1045 C1046 1.523 . S
C1046 C1027 1.368 . S
C1046 C1040 1.368 . S
C1046 C1045 1.523 . S
C1047 C1031 1.429 . S
C1047 C1043 1.429 . S
C1047 C1048 1.523 . S
C1048 C1032 1.368 . S
C1048 C1044 1.368 . S
C1048 C1047 1.523 . S
H1049 C1024 0.950 . S
H1050 C1026 0.950 . S
H1051 C1027 0.949 . S
H1052 C1029 0.950 . S
H1053 C1031 0.950 . S
C1054 C1055 1.349 . S
C1054 C1056 1.327 . S
C1054 H1079 0.950 . S
C1055 C1054 1.349 . S
C1055 C1071 1.349 . S
C1056 C1054 1.327 . S
C1056 C1075 1.429 . S
C1056 H1080 0.950 . S
C1057 C1074 1.574 . S
C1057 C1076 1.368 . S
C1057 H1081 0.949 . S
H1058 C1062 0.949 . S
C1059 C1060 1.349 . S
C1059 C1061 1.327 . S
C1059 H1082 0.950 . S
C1060 C1059 1.349 . S
C1060 C1072 1.349 . S
C1061 C1059 1.327 . S
C1061 C1077 1.429 . S
C1061 H1083 0.950 . S
C1062 H1058 0.949 . S
C1062 C1070 1.574 . S
C1062 C1078 1.368 . S
H1063 C1071 0.950 . S
H1064 C1069 0.950 . S
H1065 C1070 0.949 . S
H1066 C1072 0.950 . S
H1067 C1073 0.950 . S
H1068 C1074 0.949 . S
C1069 H1064 0.950 . S
C1069 C1071 1.327 . S
C1069 C1075 1.429 . S
C1070 C1062 1.574 . S
C1070 H1065 0.949 . S
C1070 C1076 1.368 . S
C1071 C1055 1.349 . S
C1071 H1063 0.950 . S
C1071 C1069 1.327 . S
C1072 C1060 1.349 . S
C1072 H1066 0.950 . S
C1072 C1073 1.327 . S
C1073 H1067 0.950 . S
C1073 C1072 1.327 . S
C1073 C1077 1.429 . S
C1074 C1057 1.574 . S
C1074 H1068 0.949 . S
C1074 C1078 1.368 . S
C1075 C1056 1.429 . S
C1075 C1069 1.429 . S
C1075 C1076 1.523 . S
C1076 C1057 1.368 . S
C1076 C1070 1.368 . S
C1076 C1075 1.523 . S
C1077 C1061 1.429 . S
C1077 C1073 1.429 . S
C1077 C1078 1.523 . S
C1078 C1062 1.368 . S
C1078 C1074 1.368 . S
C1078 C1077 1.523 . S
H1079 C1054 0.950 . S
H1080 C1056 0.950 . S
H1081 C1057 0.949 . S
H1082 C1059 0.950 . S
H1083 C1061 0.950 . S
C1084 C1085 1.349 . S
C1084 C1086 1.327 . S
C1084 H1109 0.950 . S
C1085 C1084 1.349 . S
C1085 C1101 1.349 . S
C1086 C1084 1.327 . S
C1086 C1105 1.429 . S
C1086 H1110 0.950 . S
C1087 C1104 1.574 . S
C1087 C1106 1.368 . S
C1087 H1111 0.949 . S
H1088 C1092 0.949 . S
C1089 C1090 1.349 . S
C1089 C1091 1.327 . S
C1089 H1112 0.950 . S
C1090 C1089 1.349 . S
C1090 C1102 1.349 . S
C1091 C1089 1.327 . S
C1091 C1107 1.429 . S
C1091 H1113 0.950 . S
C1092 H1088 0.949 . S
C1092 C1100 1.574 . S
C1092 C1108 1.368 . S
H1093 C1101 0.950 . S
H1094 C1099 0.950 . S
H1095 C1100 0.949 . S
H1096 C1102 0.950 . S
H1097 C1103 0.950 . S
H1098 C1104 0.949 . S
C1099 H1094 0.950 . S
C1099 C1101 1.327 . S
C1099 C1105 1.429 . S
C1100 C1092 1.574 . S
C1100 H1095 0.949 . S
C1100 C1106 1.368 . S
C1101 C1085 1.349 . S
C1101 H1093 0.950 . S
C1101 C1099 1.327 . S
C1102 C1090 1.349 . S
C1102 H1096 0.950 . S
C1102 C1103 1.327 . S
C1103 H1097 0.950 . S
C1103 C1102 1.327 . S
C1103 C1107 1.429 . S
C1104 C1087 1.574 . S
C1104 H1098 0.949 . S
C1104 C1108 1.368 . S
C1105 C1086 1.429 . S
C1105 C1099 1.429 . S
C1105 C1106 1.523 . S
C1106 C1087 1.368 . S
C1106 C1100 1.368 . S
C1106 C1105 1.523 . S
C1107 C1091 1.429 . S
C1107 C1103 1.429 . S
C1107 C1108 1.523 . S
C1108 C1092 1.368 . S
C1108 C1104 1.368 . S
C1108 C1107 1.523 . S
H1109 C1084 0.950 . S
H1110 C1086 0.950 . S
H1111 C1087 0.949 . S
H1112 C1089 0.950 . S
H1113 C1091 0.950 . S
C1114 C1115 1.349 . S
C1114 C1116 1.327 . S
C1114 H1139 0.950 . S
C1115 C1114 1.349 . S
C1115 C1131 1.349 . S
C1116 C1114 1.327 . S
C1116 C1135 1.429 . S
C1116 H1140 0.950 . S
C1117 C1134 1.574 . S
C1117 C1136 1.368 . S
C1117 H1141 0.949 . S
H1118 C1122 0.949 . S
C1119 C1120 1.349 . S
C1119 C1121 1.327 . S
C1119 H1142 0.950 . S
C1120 C1119 1.349 . S
C1120 C1132 1.349 . S
C1121 C1119 1.327 . S
C1121 C1137 1.429 . S
C1121 H1143 0.950 . S
C1122 H1118 0.949 . S
C1122 C1130 1.574 . S
C1122 C1138 1.368 . S
H1123 C1131 0.950 . S
H1124 C1129 0.950 . S
H1125 C1130 0.949 . S
H1126 C1132 0.950 . S
H1127 C1133 0.950 . S
H1128 C1134 0.949 . S
C1129 H1124 0.950 . S
C1129 C1131 1.327 . S
C1129 C1135 1.429 . S
C1130 C1122 1.574 . S
C1130 H1125 0.949 . S
C1130 C1136 1.368 . S
C1131 C1115 1.349 . S
C1131 H1123 0.950 . S
C1131 C1129 1.327 . S
C1132 C1120 1.349 . S
C1132 H1126 0.950 . S
C1132 C1133 1.327 . S
C1133 H1127 0.950 . S
C1133 C1132 1.327 . S
C1133 C1137 1.429 . S
C1134 C1117 1.574 . S
C1134 H1128 0.949 . S
C1134 C1138 1.368 . S
C1135 C1116 1.429 . S
C1135 C1129 1.429 . S
C1135 C1136 1.523 . S
C1136 C1117 1.368 . S
C1136 C1130 1.368 . S
C1136 C1135 1.523 . S
C1137 C1121 1.429 . S
C1137 C1133 1.429 . S
C1137 C1138 1.523 . S
C1138 C1122 1.368 . S
C1138 C1134 1.368 . S
C1138 C1137 1.523 . S
H1139 C1114 0.950 . S
H1140 C1116 0.950 . S
H1141 C1117 0.949 . S
H1142 C1119 0.950 . S
H1143 C1121 0.950 . S
C1144 C1145 1.349 . S
C1144 C1146 1.327 . S
C1144 H1169 0.950 . S
C1145 C1144 1.349 . S
C1145 C1161 1.349 . S
C1146 C1144 1.327 . S
C1146 C1165 1.429 . S
C1146 H1170 0.950 . S
C1147 C1164 1.574 . S
C1147 C1166 1.368 . S
C1147 H1171 0.949 . S
H1148 C1152 0.949 . S
C1149 C1150 1.349 . S
C1149 C1151 1.327 . S
C1149 H1172 0.950 . S
C1150 C1149 1.349 . S
C1150 C1162 1.349 . S
C1151 C1149 1.327 . S
C1151 C1167 1.429 . S
C1151 H1173 0.950 . S
C1152 H1148 0.949 . S
C1152 C1160 1.574 . S
C1152 C1168 1.368 . S
H1153 C1161 0.950 . S
H1154 C1159 0.950 . S
H1155 C1160 0.949 . S
H1156 C1162 0.950 . S
H1157 C1163 0.950 . S
H1158 C1164 0.949 . S
C1159 H1154 0.950 . S
C1159 C1161 1.327 . S
C1159 C1165 1.429 . S
C1160 C1152 1.574 . S
C1160 H1155 0.949 . S
C1160 C1166 1.368 . S
C1161 C1145 1.349 . S
C1161 H1153 0.950 . S
C1161 C1159 1.327 . S
C1162 C1150 1.349 . S
C1162 H1156 0.950 . S
C1162 C1163 1.327 . S
C1163 H1157 0.950 . S
C1163 C1162 1.327 . S
C1163 C1167 1.429 . S
C1164 C1147 1.574 . S
C1164 H1158 0.949 . S
C1164 C1168 1.368 . S
C1165 C1146 1.429 . S
C1165 C1159 1.429 . S
C1165 C1166 1.523 . S
C1166 C1147 1.368 . S
C1166 C1160 1.368 . S
C1166 C1165 1.523 . S
C1167 C1151 1.429 . S
C1167 C1163 1.429 . S
C1167 C1168 1.523 . S
C1168 C1152 1.368 . S
C1168 C1164 1.368 . S
C1168 C1167 1.523 . S
H1169 C1144 0.950 . S
H1170 C1146 0.950 . S
H1171 C1147 0.949 . S
H1172 C1149 0.950 . S
H1173 C1151 0.950 . S
C1174 C1175 1.349 . S
C1174 C1176 1.327 . S
C1174 H1199 0.950 . S
C1175 C1174 1.349 . S
C1175 C1191 1.349 . S
C1176 C1174 1.327 . S
C1176 C1195 1.429 . S
C1176 H1200 0.950 . S
C1177 C1194 1.574 . S
C1177 C1196 1.368 . S
C1177 H1201 0.949 . S
H1178 C1182 0.949 . S
C1179 C1180 1.349 . S
C1179 C1181 1.327 . S
C1179 H1202 0.950 . S
C1180 C1179 1.349 . S
C1180 C1192 1.349 . S
C1181 C1179 1.327 . S
C1181 C1197 1.429 . S
C1181 H1203 0.950 . S
C1182 H1178 0.949 . S
C1182 C1190 1.574 . S
C1182 C1198 1.368 . S
H1183 C1191 0.950 . S
H1184 C1189 0.950 . S
H1185 C1190 0.949 . S
H1186 C1192 0.950 . S
H1187 C1193 0.950 . S
H1188 C1194 0.949 . S
C1189 H1184 0.950 . S
C1189 C1191 1.327 . S
C1189 C1195 1.429 . S
C1190 C1182 1.574 . S
C1190 H1185 0.949 . S
C1190 C1196 1.368 . S
C1191 C1175 1.349 . S
C1191 H1183 0.950 . S
C1191 C1189 1.327 . S
C1192 C1180 1.349 . S
C1192 H1186 0.950 . S
C1192 C1193 1.327 . S
C1193 H1187 0.950 . S
C1193 C1192 1.327 . S
C1193 C1197 1.429 . S
C1194 C1177 1.574 . S
C1194 H1188 0.949 . S
C1194 C1198 1.368 . S
C1195 C1176 1.429 . S
C1195 C1189 1.429 . S
C1195 C1196 1.523 . S
C1196 C1177 1.368 . S
C1196 C1190 1.368 . S
C1196 C1195 1.523 . S
C1197 C1181 1.429 . S
C1197 C1193 1.429 . S
C1197 C1198 1.523 . S
C1198 C1182 1.368 . S
C1198 C1194 1.368 . S
C1198 C1197 1.523 . S
H1199 C1174 0.950 . S
H1200 C1176 0.950 . S
H1201 C1177 0.949 . S
H1202 C1179 0.950 . S
H1203 C1181 0.950 . S
C1204 C1205 1.349 . S
C1204 C1206 1.327 . S
C1204 H1229 0.950 . S
C1205 C1204 1.349 . S
C1205 C1221 1.349 . S
C1206 C1204 1.327 . S
C1206 C1225 1.429 . S
C1206 H1230 0.950 . S
C1207 C1224 1.574 . S
C1207 C1226 1.368 . S
C1207 H1231 0.949 . S
H1208 C1212 0.949 . S
C1209 C1210 1.349 . S
C1209 C1211 1.327 . S
C1209 H1232 0.950 . S
C1210 C1209 1.349 . S
C1210 C1222 1.349 . S
C1211 C1209 1.327 . S
C1211 C1227 1.429 . S
C1211 H1233 0.950 . S
C1212 H1208 0.949 . S
C1212 C1220 1.574 . S
C1212 C1228 1.368 . S
H1213 C1221 0.950 . S
H1214 C1219 0.950 . S
H1215 C1220 0.949 . S
H1216 C1222 0.950 . S
H1217 C1223 0.950 . S
H1218 C1224 0.949 . S
C1219 H1214 0.950 . S
C1219 C1221 1.327 . S
C1219 C1225 1.429 . S
C1220 C1212 1.574 . S
C1220 H1215 0.949 . S
C1220 C1226 1.368 . S
C1221 C1205 1.349 . S
C1221 H1213 0.950 . S
C1221 C1219 1.327 . S
C1222 C1210 1.349 . S
C1222 H1216 0.950 . S
C1222 C1223 1.327 . S
C1223 H1217 0.950 . S
C1223 C1222 1.327 . S
C1223 C1227 1.429 . S
C1224 C1207 1.574 . S
C1224 H1218 0.949 . S
C1224 C1228 1.368 . S
C1225 C1206 1.429 . S
C1225 C1219 1.429 . S
C1225 C1226 1.523 . S
C1226 C1207 1.368 . S
C1226 C1220 1.368 . S
C1226 C1225 1.523 . S
C1227 C1211 1.429 . S
C1227 C1223 1.429 . S
C1227 C1228 1.523 . S
C1228 C1212 1.368 . S
C1228 C1224 1.368 . S
C1228 C1227 1.523 . S
H1229 C1204 0.950 . S
H1230 C1206 0.950 . S
H1231 C1207 0.949 . S
H1232 C1209 0.950 . S
H1233 C1211 0.950 . S
C1234 C1235 1.349 . S
C1234 C1236 1.327 . S
C1234 H1259 0.950 . S
C1235 C1234 1.349 . S
C1235 C1251 1.349 . S
C1236 C1234 1.327 . S
C1236 C1255 1.429 . S
C1236 H1260 0.950 . S
C1237 C1254 1.574 . S
C1237 C1256 1.368 . S
C1237 H1261 0.949 . S
H1238 C1242 0.949 . S
C1239 C1240 1.349 . S
C1239 C1241 1.327 . S
C1239 H1262 0.950 . S
C1240 C1239 1.349 . S
C1240 C1252 1.349 . S
C1241 C1239 1.327 . S
C1241 C1257 1.429 . S
C1241 H1263 0.950 . S
C1242 H1238 0.949 . S
C1242 C1250 1.574 . S
C1242 C1258 1.368 . S
H1243 C1251 0.950 . S
H1244 C1249 0.950 . S
H1245 C1250 0.949 . S
H1246 C1252 0.950 . S
H1247 C1253 0.950 . S
H1248 C1254 0.949 . S
C1249 H1244 0.950 . S
C1249 C1251 1.327 . S
C1249 C1255 1.429 . S
C1250 C1242 1.574 . S
C1250 H1245 0.949 . S
C1250 C1256 1.368 . S
C1251 C1235 1.349 . S
C1251 H1243 0.950 . S
C1251 C1249 1.327 . S
C1252 C1240 1.349 . S
C1252 H1246 0.950 . S
C1252 C1253 1.327 . S
C1253 H1247 0.950 . S
C1253 C1252 1.327 . S
C1253 C1257 1.429 . S
C1254 C1237 1.574 . S
C1254 H1248 0.949 . S
C1254 C1258 1.368 . S
C1255 C1236 1.429 . S
C1255 C1249 1.429 . S
C1255 C1256 1.523 . S
C1256 C1237 1.368 . S
C1256 C1250 1.368 . S
C1256 C1255 1.523 . S
C1257 C1241 1.429 . S
C1257 C1253 1.429 . S
C1257 C1258 1.523 . S
C1258 C1242 1.368 . S
C1258 C1254 1.368 . S
C1258 C1257 1.523 . S
H1259 C1234 0.950 . S
H1260 C1236 0.950 . S
H1261 C1237 0.949 . S
H1262 C1239 0.950 . S
H1263 C1241 0.950 . S
C1264 C1265 1.349 . S
C1264 C1266 1.327 . S
C1264 H1289 0.950 . S
C1265 C1264 1.349 . S
C1265 C1281 1.349 . S
C1266 C1264 1.327 . S
C1266 C1285 1.429 . S
C1266 H1290 0.950 . S
C1267 C1284 1.574 . S
C1267 C1286 1.368 . S
C1267 H1291 0.949 . S
H1268 C1272 0.949 . S
C1269 C1270 1.349 . S
C1269 C1271 1.327 . S
C1269 H1292 0.950 . S
C1270 C1269 1.349 . S
C1270 C1282 1.349 . S
C1271 C1269 1.327 . S
C1271 C1287 1.429 . S
C1271 H1293 0.950 . S
C1272 H1268 0.949 . S
C1272 C1280 1.574 . S
C1272 C1288 1.368 . S
H1273 C1281 0.950 . S
H1274 C1279 0.950 . S
H1275 C1280 0.949 . S
H1276 C1282 0.950 . S
H1277 C1283 0.950 . S
H1278 C1284 0.949 . S
C1279 H1274 0.950 . S
C1279 C1281 1.327 . S
C1279 C1285 1.429 . S
C1280 C1272 1.574 . S
C1280 H1275 0.949 . S
C1280 C1286 1.368 . S
C1281 C1265 1.349 . S
C1281 H1273 0.950 . S
C1281 C1279 1.327 . S
C1282 C1270 1.349 . S
C1282 H1276 0.950 . S
C1282 C1283 1.327 . S
C1283 H1277 0.950 . S
C1283 C1282 1.327 . S
C1283 C1287 1.429 . S
C1284 C1267 1.574 . S
C1284 H1278 0.949 . S
C1284 C1288 1.368 . S
C1285 C1266 1.429 . S
C1285 C1279 1.429 . S
C1285 C1286 1.523 . S
C1286 C1267 1.368 . S
C1286 C1280 1.368 . S
C1286 C1285 1.523 . S
C1287 C1271 1.429 . S
C1287 C1283 1.429 . S
C1287 C1288 1.523 . S
C1288 C1272 1.368 . S
C1288 C1284 1.368 . S
C1288 C1287 1.523 . S
H1289 C1264 0.950 . S
H1290 C1266 0.950 . S
H1291 C1267 0.949 . S
H1292 C1269 0.950 . S
H1293 C1271 0.950 . S
C1294 C1295 1.349 . S
C1294 C1296 1.327 . S
C1294 H1319 0.950 . S
C1295 C1294 1.349 . S
C1295 C1311 1.349 . S
C1296 C1294 1.327 . S
C1296 C1315 1.429 . S
C1296 H1320 0.950 . S
C1297 C1314 1.574 . S
C1297 C1316 1.368 . S
C1297 H1321 0.949 . S
H1298 C1302 0.949 . S
C1299 C1300 1.349 . S
C1299 C1301 1.327 . S
C1299 H1322 0.950 . S
C1300 C1299 1.349 . S
C1300 C1312 1.349 . S
C1301 C1299 1.327 . S
C1301 C1317 1.429 . S
C1301 H1323 0.950 . S
C1302 H1298 0.949 . S
C1302 C1310 1.574 . S
C1302 C1318 1.368 . S
H1303 C1311 0.950 . S
H1304 C1309 0.950 . S
H1305 C1310 0.949 . S
H1306 C1312 0.950 . S
H1307 C1313 0.950 . S
H1308 C1314 0.949 . S
C1309 H1304 0.950 . S
C1309 C1311 1.327 . S
C1309 C1315 1.429 . S
C1310 C1302 1.574 . S
C1310 H1305 0.949 . S
C1310 C1316 1.368 . S
C1311 C1295 1.349 . S
C1311 H1303 0.950 . S
C1311 C1309 1.327 . S
C1312 C1300 1.349 . S
C1312 H1306 0.950 . S
C1312 C1313 1.327 . S
C1313 H1307 0.950 . S
C1313 C1312 1.327 . S
C1313 C1317 1.429 . S
C1314 C1297 1.574 . S
C1314 H1308 0.949 . S
C1314 C1318 1.368 . S
C1315 C1296 1.429 . S
C1315 C1309 1.429 . S
C1315 C1316 1.523 . S
C1316 C1297 1.368 . S
C1316 C1310 1.368 . S
C1316 C1315 1.523 . S
C1317 C1301 1.429 . S
C1317 C1313 1.429 . S
C1317 C1318 1.523 . S
C1318 C1302 1.368 . S
C1318 C1314 1.368 . S
C1318 C1317 1.523 . S
H1319 C1294 0.950 . S
H1320 C1296 0.950 . S
H1321 C1297 0.949 . S
H1322 C1299 0.950 . S
H1323 C1301 0.950 . S
C1324 C1325 1.349 . S
C1324 C1326 1.327 . S
C1324 H1349 0.950 . S
C1325 C1324 1.349 . S
C1325 C1341 1.349 . S
C1326 C1324 1.327 . S
C1326 C1345 1.429 . S
C1326 H1350 0.950 . S
C1327 C1344 1.574 . S
C1327 C1346 1.368 . S
C1327 H1351 0.949 . S
H1328 C1332 0.949 . S
C1329 C1330 1.349 . S
C1329 C1331 1.327 . S
C1329 H1352 0.950 . S
C1330 C1329 1.349 . S
C1330 C1342 1.349 . S
C1331 C1329 1.327 . S
C1331 C1347 1.429 . S
C1331 H1353 0.950 . S
C1332 H1328 0.949 . S
C1332 C1340 1.574 . S
C1332 C1348 1.368 . S
H1333 C1341 0.950 . S
H1334 C1339 0.950 . S
H1335 C1340 0.949 . S
H1336 C1342 0.950 1_455 S
H1337 C1343 0.950 . S
H1338 C1344 0.949 . S
C1339 H1334 0.950 . S
C1339 C1341 1.327 . S
C1339 C1345 1.429 . S
C1340 C1332 1.574 . S
C1340 H1335 0.949 . S
C1340 C1346 1.368 . S
C1341 C1325 1.349 . S
C1341 H1333 0.950 . S
C1341 C1339 1.327 . S
C1342 C1330 1.349 . S
C1342 H1336 0.950 1_655 S
C1342 C1343 1.327 . S
C1343 H1337 0.950 . S
C1343 C1342 1.327 . S
C1343 C1347 1.429 . S
C1344 C1327 1.574 . S
C1344 H1338 0.949 . S
C1344 C1348 1.368 . S
C1345 C1326 1.429 . S
C1345 C1339 1.429 . S
C1345 C1346 1.523 . S
C1346 C1327 1.368 . S
C1346 C1340 1.368 . S
C1346 C1345 1.523 . S
C1347 C1331 1.429 . S
C1347 C1343 1.429 . S
C1347 C1348 1.523 . S
C1348 C1332 1.368 . S
C1348 C1344 1.368 . S
C1348 C1347 1.523 . S
H1349 C1324 0.950 . S
H1350 C1326 0.950 . S
H1351 C1327 0.949 . S
H1352 C1329 0.950 . S
H1353 C1331 0.950 . S
C1354 C1355 1.349 . S
C1354 C1356 1.327 . S
C1354 H1379 0.950 . S
C1355 C1354 1.349 . S
C1355 C1371 1.349 . S
C1356 C1354 1.327 . S
C1356 C1375 1.429 . S
C1356 H1380 0.950 . S
C1357 C1374 1.574 . S
C1357 C1376 1.368 . S
C1357 H1381 0.949 . S
H1358 C1362 0.949 . S
C1359 C1360 1.349 . S
C1359 C1361 1.327 . S
C1359 H1382 0.950 . S
C1360 C1359 1.349 . S
C1360 C1372 1.349 . S
C1361 C1359 1.327 . S
C1361 C1377 1.429 . S
C1361 H1383 0.950 . S
C1362 H1358 0.949 . S
C1362 C1370 1.574 . S
C1362 C1378 1.368 . S
H1363 C1371 0.950 . S
H1364 C1369 0.950 . S
H1365 C1370 0.949 . S
H1366 C1372 0.950 . S
H1367 C1373 0.950 . S
H1368 C1374 0.949 . S
C1369 H1364 0.950 . S
C1369 C1371 1.327 . S
C1369 C1375 1.429 . S
C1370 C1362 1.574 . S
C1370 H1365 0.949 . S
C1370 C1376 1.368 . S
C1371 C1355 1.349 . S
C1371 H1363 0.950 . S
C1371 C1369 1.327 . S
C1372 C1360 1.349 . S
C1372 H1366 0.950 . S
C1372 C1373 1.327 . S
C1373 H1367 0.950 . S
C1373 C1372 1.327 . S
C1373 C1377 1.429 . S
C1374 C1357 1.574 . S
C1374 H1368 0.949 . S
C1374 C1378 1.368 . S
C1375 C1356 1.429 . S
C1375 C1369 1.429 . S
C1375 C1376 1.523 . S
C1376 C1357 1.368 . S
C1376 C1370 1.368 . S
C1376 C1375 1.523 . S
C1377 C1361 1.429 . S
C1377 C1373 1.429 . S
C1377 C1378 1.523 . S
C1378 C1362 1.368 . S
C1378 C1374 1.368 . S
C1378 C1377 1.523 . S
H1379 C1354 0.950 . S
H1380 C1356 0.950 . S
H1381 C1357 0.949 . S
H1382 C1359 0.950 . S
H1383 C1361 0.950 . S
C1384 C1385 1.349 . S
C1384 C1386 1.327 . S
C1384 H1409 0.950 . S
C1385 C1384 1.349 . S
C1385 C1401 1.349 . S
C1386 C1384 1.327 . S
C1386 C1405 1.429 . S
C1386 H1410 0.950 . S
C1387 C1404 1.574 . S
C1387 C1406 1.368 . S
C1387 H1411 0.949 . S
H1388 C1392 0.949 . S
C1389 C1390 1.349 . S
C1389 C1391 1.327 . S
C1389 H1412 0.950 . S
C1390 C1389 1.349 . S
C1390 C1402 1.349 . S
C1391 C1389 1.327 . S
C1391 C1407 1.429 . S
C1391 H1413 0.950 . S
C1392 H1388 0.949 . S
C1392 C1400 1.574 . S
C1392 C1408 1.368 . S
H1393 C1401 0.950 . S
H1394 C1399 0.950 . S
H1395 C1400 0.949 . S
H1396 C1402 0.950 . S
H1397 C1403 0.950 . S
H1398 C1404 0.949 . S
C1399 H1394 0.950 . S
C1399 C1401 1.327 . S
C1399 C1405 1.429 . S
C1400 C1392 1.574 . S
C1400 H1395 0.949 . S
C1400 C1406 1.368 . S
C1401 C1385 1.349 . S
C1401 H1393 0.950 . S
C1401 C1399 1.327 . S
C1402 C1390 1.349 . S
C1402 H1396 0.950 . S
C1402 C1403 1.327 . S
C1403 H1397 0.950 . S
C1403 C1402 1.327 . S
C1403 C1407 1.429 . S
C1404 C1387 1.574 . S
C1404 H1398 0.949 . S
C1404 C1408 1.368 . S
C1405 C1386 1.429 . S
C1405 C1399 1.429 . S
C1405 C1406 1.523 . S
C1406 C1387 1.368 . S
C1406 C1400 1.368 . S
C1406 C1405 1.523 . S
C1407 C1391 1.429 . S
C1407 C1403 1.429 . S
C1407 C1408 1.523 . S
C1408 C1392 1.368 . S
C1408 C1404 1.368 . S
C1408 C1407 1.523 . S
H1409 C1384 0.950 . S
H1410 C1386 0.950 . S
H1411 C1387 0.949 . S
H1412 C1389 0.950 . S
H1413 C1391 0.950 . S
C1414 C1415 1.349 . S
C1414 C1416 1.327 . S
C1414 H1439 0.950 . S
C1415 C1414 1.349 . S
C1415 C1431 1.349 . S
C1416 C1414 1.327 . S
C1416 C1435 1.429 . S
C1416 H1440 0.950 . S
C1417 C1434 1.574 . S
C1417 C1436 1.368 . S
C1417 H1441 0.949 . S
H1418 C1422 0.949 . S
C1419 C1420 1.349 . S
C1419 C1421 1.327 . S
C1419 H1442 0.950 . S
C1420 C1419 1.349 . S
C1420 C1432 1.349 . S
C1421 C1419 1.327 . S
C1421 C1437 1.429 . S
C1421 H1443 0.950 . S
C1422 H1418 0.949 . S
C1422 C1430 1.574 . S
C1422 C1438 1.368 . S
H1423 C1431 0.950 . S
H1424 C1429 0.950 . S
H1425 C1430 0.949 . S
H1426 C1432 0.950 . S
H1427 C1433 0.950 . S
H1428 C1434 0.949 . S
C1429 H1424 0.950 . S
C1429 C1431 1.327 . S
C1429 C1435 1.429 . S
C1430 C1422 1.574 . S
C1430 H1425 0.949 . S
C1430 C1436 1.368 . S
C1431 C1415 1.349 . S
C1431 H1423 0.950 . S
C1431 C1429 1.327 . S
C1432 C1420 1.349 . S
C1432 H1426 0.950 . S
C1432 C1433 1.327 . S
C1433 H1427 0.950 . S
C1433 C1432 1.327 . S
C1433 C1437 1.429 . S
C1434 C1417 1.574 . S
C1434 H1428 0.949 . S
C1434 C1438 1.368 . S
C1435 C1416 1.429 . S
C1435 C1429 1.429 . S
C1435 C1436 1.523 . S
C1436 C1417 1.368 . S
C1436 C1430 1.368 . S
C1436 C1435 1.523 . S
C1437 C1421 1.429 . S
C1437 C1433 1.429 . S
C1437 C1438 1.523 . S
C1438 C1422 1.368 . S
C1438 C1434 1.368 . S
C1438 C1437 1.523 . S
H1439 C1414 0.950 . S
H1440 C1416 0.950 . S
H1441 C1417 0.949 . S
H1442 C1419 0.950 . S
H1443 C1421 0.950 . S
C1444 C1445 1.349 . S
C1444 C1446 1.327 . S
C1444 H1469 0.950 . S
C1445 C1444 1.349 . S
C1445 C1461 1.349 . S
C1446 C1444 1.327 . S
C1446 C1465 1.429 . S
C1446 H1470 0.950 . S
C1447 C1464 1.574 . S
C1447 C1466 1.368 . S
C1447 H1471 0.949 . S
H1448 C1452 0.949 . S
C1449 C1450 1.349 . S
C1449 C1451 1.327 . S
C1449 H1472 0.950 . S
C1450 C1449 1.349 . S
C1450 C1462 1.349 . S
C1451 C1449 1.327 . S
C1451 C1467 1.429 . S
C1451 H1473 0.950 . S
C1452 H1448 0.949 . S
C1452 C1460 1.574 . S
C1452 C1468 1.368 . S
H1453 C1461 0.950 . S
H1454 C1459 0.950 . S
H1455 C1460 0.949 . S
H1456 C1462 0.950 . S
H1457 C1463 0.950 . S
H1458 C1464 0.949 . S
C1459 H1454 0.950 . S
C1459 C1461 1.327 . S
C1459 C1465 1.429 . S
C1460 C1452 1.574 . S
C1460 H1455 0.949 . S
C1460 C1466 1.368 . S
C1461 C1445 1.349 . S
C1461 H1453 0.950 . S
C1461 C1459 1.327 . S
C1462 C1450 1.349 . S
C1462 H1456 0.950 . S
C1462 C1463 1.327 . S
C1463 H1457 0.950 . S
C1463 C1462 1.327 . S
C1463 C1467 1.429 . S
C1464 C1447 1.574 . S
C1464 H1458 0.949 . S
C1464 C1468 1.368 . S
C1465 C1446 1.429 . S
C1465 C1459 1.429 . S
C1465 C1466 1.523 . S
C1466 C1447 1.368 . S
C1466 C1460 1.368 . S
C1466 C1465 1.523 . S
C1467 C1451 1.429 . S
C1467 C1463 1.429 . S
C1467 C1468 1.523 . S
C1468 C1452 1.368 . S
C1468 C1464 1.368 . S
C1468 C1467 1.523 . S
H1469 C1444 0.950 . S
H1470 C1446 0.950 . S
H1471 C1447 0.949 . S
H1472 C1449 0.950 . S
H1473 C1451 0.950 . S
C1474 C1475 1.349 . S
C1474 C1476 1.327 . S
C1474 H1499 0.950 . S
C1475 C1474 1.349 . S
C1475 C1491 1.349 . S
C1476 C1474 1.327 . S
C1476 C1495 1.429 . S
C1476 H1500 0.950 . S
C1477 C1494 1.574 . S
C1477 C1496 1.368 . S
C1477 H1501 0.949 . S
H1478 C1482 0.949 . S
C1479 C1480 1.349 . S
C1479 C1481 1.327 . S
C1479 H1502 0.950 . S
C1480 C1479 1.349 . S
C1480 C1492 1.349 . S
C1481 C1479 1.327 . S
C1481 C1497 1.429 . S
C1481 H1503 0.950 . S
C1482 H1478 0.949 . S
C1482 C1490 1.574 . S
C1482 C1498 1.368 . S
H1483 C1491 0.950 . S
H1484 C1489 0.950 . S
H1485 C1490 0.949 . S
H1486 C1492 0.950 . S
H1487 C1493 0.950 . S
H1488 C1494 0.949 . S
C1489 H1484 0.950 . S
C1489 C1491 1.327 . S
C1489 C1495 1.429 . S
C1490 C1482 1.574 . S
C1490 H1485 0.949 . S
C1490 C1496 1.368 . S
C1491 C1475 1.349 . S
C1491 H1483 0.950 . S
C1491 C1489 1.327 . S
C1492 C1480 1.349 . S
C1492 H1486 0.950 . S
C1492 C1493 1.327 . S
C1493 H1487 0.950 . S
C1493 C1492 1.327 . S
C1493 C1497 1.429 . S
C1494 C1477 1.574 . S
C1494 H1488 0.949 . S
C1494 C1498 1.368 . S
C1495 C1476 1.429 . S
C1495 C1489 1.429 . S
C1495 C1496 1.523 . S
C1496 C1477 1.368 . S
C1496 C1490 1.368 . S
C1496 C1495 1.523 . S
C1497 C1481 1.429 . S
C1497 C1493 1.429 . S
C1497 C1498 1.523 . S
C1498 C1482 1.368 . S
C1498 C1494 1.368 . S
C1498 C1497 1.523 . S
H1499 C1474 0.950 . S
H1500 C1476 0.950 . S
H1501 C1477 0.949 . S
H1502 C1479 0.950 . S
H1503 C1481 0.950 . S
C1504 C1505 1.349 . S
C1504 C1506 1.327 . S
C1504 H1529 0.950 . S
C1505 C1504 1.349 . S
C1505 C1521 1.349 . S
C1506 C1504 1.327 . S
C1506 C1525 1.429 . S
C1506 H1530 0.950 . S
C1507 C1524 1.574 . S
C1507 C1526 1.368 . S
C1507 H1531 0.949 . S
H1508 C1512 0.949 . S
C1509 C1510 1.349 . S
C1509 C1511 1.327 . S
C1509 H1532 0.950 . S
C1510 C1509 1.349 . S
C1510 C1522 1.349 . S
C1511 C1509 1.327 . S
C1511 C1527 1.429 . S
C1511 H1533 0.950 . S
C1512 H1508 0.949 . S
C1512 C1520 1.574 . S
C1512 C1528 1.368 . S
H1513 C1521 0.950 . S
H1514 C1519 0.950 . S
H1515 C1520 0.949 . S
H1516 C1522 0.950 . S
H1517 C1523 0.950 . S
H1518 C1524 0.949 . S
C1519 H1514 0.950 . S
C1519 C1521 1.327 . S
C1519 C1525 1.429 . S
C1520 C1512 1.574 . S
C1520 H1515 0.949 . S
C1520 C1526 1.368 . S
C1521 C1505 1.349 . S
C1521 H1513 0.950 . S
C1521 C1519 1.327 . S
C1522 C1510 1.349 . S
C1522 H1516 0.950 . S
C1522 C1523 1.327 . S
C1523 H1517 0.950 . S
C1523 C1522 1.327 . S
C1523 C1527 1.429 . S
C1524 C1507 1.574 . S
C1524 H1518 0.949 . S
C1524 C1528 1.368 . S
C1525 C1506 1.429 . S
C1525 C1519 1.429 . S
C1525 C1526 1.523 . S
C1526 C1507 1.368 . S
C1526 C1520 1.368 . S
C1526 C1525 1.523 . S
C1527 C1511 1.429 . S
C1527 C1523 1.429 . S
C1527 C1528 1.523 . S
C1528 C1512 1.368 . S
C1528 C1524 1.368 . S
C1528 C1527 1.523 . S
H1529 C1504 0.950 . S
H1530 C1506 0.950 . S
H1531 C1507 0.949 . S
H1532 C1509 0.950 . S
H1533 C1511 0.950 . S
C1534 C1535 1.349 . S
C1534 C1536 1.327 . S
C1534 H1559 0.950 . S
C1535 C1534 1.349 . S
C1535 C1551 1.349 . S
C1536 C1534 1.327 . S
C1536 C1555 1.429 . S
C1536 H1560 0.950 . S
C1537 C1554 1.574 . S
C1537 C1556 1.368 . S
C1537 H1561 0.949 . S
H1538 C1542 0.949 . S
C1539 C1540 1.349 . S
C1539 C1541 1.327 . S
C1539 H1562 0.950 . S
C1540 C1539 1.349 . S
C1540 C1552 1.349 . S
C1541 C1539 1.327 . S
C1541 C1557 1.429 . S
C1541 H1563 0.950 . S
C1542 H1538 0.949 . S
C1542 C1550 1.574 . S
C1542 C1558 1.368 . S
H1543 C1551 0.950 . S
H1544 C1549 0.950 . S
H1545 C1550 0.949 . S
H1546 C1552 0.950 . S
H1547 C1553 0.950 . S
H1548 C1554 0.949 . S
C1549 H1544 0.950 . S
C1549 C1551 1.327 . S
C1549 C1555 1.429 . S
C1550 C1542 1.574 . S
C1550 H1545 0.949 . S
C1550 C1556 1.368 . S
C1551 C1535 1.349 . S
C1551 H1543 0.950 . S
C1551 C1549 1.327 . S
C1552 C1540 1.349 . S
C1552 H1546 0.950 . S
C1552 C1553 1.327 . S
C1553 H1547 0.950 . S
C1553 C1552 1.327 . S
C1553 C1557 1.429 . S
C1554 C1537 1.574 . S
C1554 H1548 0.949 . S
C1554 C1558 1.368 . S
C1555 C1536 1.429 . S
C1555 C1549 1.429 . S
C1555 C1556 1.523 . S
C1556 C1537 1.368 . S
C1556 C1550 1.368 . S
C1556 C1555 1.523 . S
C1557 C1541 1.429 . S
C1557 C1553 1.429 . S
C1557 C1558 1.523 . S
C1558 C1542 1.368 . S
C1558 C1554 1.368 . S
C1558 C1557 1.523 . S
H1559 C1534 0.950 . S
H1560 C1536 0.950 . S
H1561 C1537 0.949 . S
H1562 C1539 0.950 . S
H1563 C1541 0.950 . S
C1564 C1565 1.349 . S
C1564 C1566 1.327 . S
C1564 H1589 0.950 . S
C1565 C1564 1.349 . S
C1565 C1581 1.349 . S
C1566 C1564 1.327 . S
C1566 C1585 1.429 . S
C1566 H1590 0.950 . S
C1567 C1584 1.574 . S
C1567 C1586 1.368 . S
C1567 H1591 0.949 . S
H1568 C1572 0.949 . S
C1569 C1570 1.349 . S
C1569 C1571 1.327 . S
C1569 H1592 0.950 . S
C1570 C1569 1.349 . S
C1570 C1582 1.349 . S
C1571 C1569 1.327 . S
C1571 C1587 1.429 . S
C1571 H1593 0.950 . S
C1572 H1568 0.949 . S
C1572 C1580 1.574 . S
C1572 C1588 1.368 . S
H1573 C1581 0.950 . S
H1574 C1579 0.950 . S
H1575 C1580 0.949 . S
H1576 C1582 0.950 . S
H1577 C1583 0.950 . S
H1578 C1584 0.949 . S
C1579 H1574 0.950 . S
C1579 C1581 1.327 . S
C1579 C1585 1.429 . S
C1580 C1572 1.574 . S
C1580 H1575 0.949 . S
C1580 C1586 1.368 . S
C1581 C1565 1.349 . S
C1581 H1573 0.950 . S
C1581 C1579 1.327 . S
C1582 C1570 1.349 . S
C1582 H1576 0.950 . S
C1582 C1583 1.327 . S
C1583 H1577 0.950 . S
C1583 C1582 1.327 . S
C1583 C1587 1.429 . S
C1584 C1567 1.574 . S
C1584 H1578 0.949 . S
C1584 C1588 1.368 . S
C1585 C1566 1.429 . S
C1585 C1579 1.429 . S
C1585 C1586 1.523 . S
C1586 C1567 1.368 . S
C1586 C1580 1.368 . S
C1586 C1585 1.523 . S
C1587 C1571 1.429 . S
C1587 C1583 1.429 . S
C1587 C1588 1.523 . S
C1588 C1572 1.368 . S
C1588 C1584 1.368 . S
C1588 C1587 1.523 . S
H1589 C1564 0.950 . S
H1590 C1566 0.950 . S
H1591 C1567 0.949 . S
H1592 C1569 0.950 . S
H1593 C1571 0.950 . S
C1594 C1595 1.349 . S
C1594 C1596 1.327 . S
C1594 H1619 0.950 . S
C1595 C1594 1.349 . S
C1595 C1611 1.349 . S
C1596 C1594 1.327 . S
C1596 C1615 1.429 . S
C1596 H1620 0.950 . S
C1597 C1614 1.574 . S
C1597 C1616 1.368 . S
C1597 H1621 0.949 . S
H1598 C1602 0.949 . S
C1599 C1600 1.349 . S
C1599 C1601 1.327 . S
C1599 H1622 0.950 . S
C1600 C1599 1.349 . S
C1600 C1612 1.349 . S
C1601 C1599 1.327 . S
C1601 C1617 1.429 . S
C1601 H1623 0.950 . S
C1602 H1598 0.949 . S
C1602 C1610 1.574 . S
C1602 C1618 1.368 . S
H1603 C1611 0.950 . S
H1604 C1609 0.950 . S
H1605 C1610 0.949 . S
H1606 C1612 0.950 . S
H1607 C1613 0.950 . S
H1608 C1614 0.949 . S
C1609 H1604 0.950 . S
C1609 C1611 1.327 . S
C1609 C1615 1.429 . S
C1610 C1602 1.574 . S
C1610 H1605 0.949 . S
C1610 C1616 1.368 . S
C1611 C1595 1.349 . S
C1611 H1603 0.950 . S
C1611 C1609 1.327 . S
C1612 C1600 1.349 . S
C1612 H1606 0.950 . S
C1612 C1613 1.327 . S
C1613 H1607 0.950 . S
C1613 C1612 1.327 . S
C1613 C1617 1.429 . S
C1614 C1597 1.574 . S
C1614 H1608 0.949 . S
C1614 C1618 1.368 . S
C1615 C1596 1.429 . S
C1615 C1609 1.429 . S
C1615 C1616 1.523 . S
C1616 C1597 1.368 . S
C1616 C1610 1.368 . S
C1616 C1615 1.523 . S
C1617 C1601 1.429 . S
C1617 C1613 1.429 . S
C1617 C1618 1.523 . S
C1618 C1602 1.368 . S
C1618 C1614 1.368 . S
C1618 C1617 1.523 . S
H1619 C1594 0.950 . S
H1620 C1596 0.950 . S
H1621 C1597 0.949 . S
H1622 C1599 0.950 . S
H1623 C1601 0.950 . S
C1624 C1625 1.349 . S
C1624 C1626 1.327 . S
C1624 H1649 0.950 . S
C1625 C1624 1.349 . S
C1625 C1641 1.349 . S
C1626 C1624 1.327 . S
C1626 C1645 1.429 . S
C1626 H1650 0.950 . S
C1627 C1644 1.574 . S
C1627 C1646 1.368 . S
C1627 H1651 0.949 . S
H1628 C1632 0.949 . S
C1629 C1630 1.349 . S
C1629 C1631 1.327 . S
C1629 H1652 0.950 . S
C1630 C1629 1.349 . S
C1630 C1642 1.349 . S
C1631 C1629 1.327 . S
C1631 C1647 1.429 . S
C1631 H1653 0.950 . S
C1632 H1628 0.949 . S
C1632 C1640 1.574 . S
C1632 C1648 1.368 . S
H1633 C1641 0.950 . S
H1634 C1639 0.950 . S
H1635 C1640 0.949 . S
H1636 C1642 0.950 . S
H1637 C1643 0.950 . S
H1638 C1644 0.949 . S
C1639 H1634 0.950 . S
C1639 C1641 1.327 . S
C1639 C1645 1.429 . S
C1640 C1632 1.574 . S
C1640 H1635 0.949 . S
C1640 C1646 1.368 . S
C1641 C1625 1.349 . S
C1641 H1633 0.950 . S
C1641 C1639 1.327 . S
C1642 C1630 1.349 . S
C1642 H1636 0.950 . S
C1642 C1643 1.327 . S
C1643 H1637 0.950 . S
C1643 C1642 1.327 . S
C1643 C1647 1.429 . S
C1644 C1627 1.574 . S
C1644 H1638 0.949 . S
C1644 C1648 1.368 . S
C1645 C1626 1.429 . S
C1645 C1639 1.429 . S
C1645 C1646 1.523 . S
C1646 C1627 1.368 . S
C1646 C1640 1.368 . S
C1646 C1645 1.523 . S
C1647 C1631 1.429 . S
C1647 C1643 1.429 . S
C1647 C1648 1.523 . S
C1648 C1632 1.368 . S
C1648 C1644 1.368 . S
C1648 C1647 1.523 . S
H1649 C1624 0.950 . S
H1650 C1626 0.950 . S
H1651 C1627 0.949 . S
H1652 C1629 0.950 . S
H1653 C1631 0.950 . S
C1654 C1655 1.349 . S
C1654 C1656 1.327 . S
C1654 H1679 0.950 . S
C1655 C1654 1.349 . S
C1655 C1671 1.349 . S
C1656 C1654 1.327 . S
C1656 C1675 1.429 . S
C1656 H1680 0.950 . S
C1657 C1674 1.574 . S
C1657 C1676 1.368 . S
C1657 H1681 0.949 . S
H1658 C1662 0.949 . S
C1659 C1660 1.349 . S
C1659 C1661 1.327 . S
C1659 H1682 0.950 . S
C1660 C1659 1.349 . S
C1660 C1672 1.349 . S
C1661 C1659 1.327 . S
C1661 C1677 1.429 . S
C1661 H1683 0.950 . S
C1662 H1658 0.949 . S
C1662 C1670 1.574 . S
C1662 C1678 1.368 . S
H1663 C1671 0.950 . S
H1664 C1669 0.950 . S
H1665 C1670 0.949 . S
H1666 C1672 0.950 . S
H1667 C1673 0.950 . S
H1668 C1674 0.949 . S
C1669 H1664 0.950 . S
C1669 C1671 1.327 . S
C1669 C1675 1.429 . S
C1670 C1662 1.574 . S
C1670 H1665 0.949 . S
C1670 C1676 1.368 . S
C1671 C1655 1.349 . S
C1671 H1663 0.950 . S
C1671 C1669 1.327 . S
C1672 C1660 1.349 . S
C1672 H1666 0.950 . S
C1672 C1673 1.327 . S
C1673 H1667 0.950 . S
C1673 C1672 1.327 . S
C1673 C1677 1.429 . S
C1674 C1657 1.574 . S
C1674 H1668 0.949 . S
C1674 C1678 1.368 . S
C1675 C1656 1.429 . S
C1675 C1669 1.429 . S
C1675 C1676 1.523 . S
C1676 C1657 1.368 . S
C1676 C1670 1.368 . S
C1676 C1675 1.523 . S
C1677 C1661 1.429 . S
C1677 C1673 1.429 . S
C1677 C1678 1.523 . S
C1678 C1662 1.368 . S
C1678 C1674 1.368 . S
C1678 C1677 1.523 . S
H1679 C1654 0.950 . S
H1680 C1656 0.950 . S
H1681 C1657 0.949 . S
H1682 C1659 0.950 . S
H1683 C1661 0.950 . S
C1684 C1685 1.349 . S
C1684 C1686 1.327 . S
C1684 H1709 0.950 . S
C1685 C1684 1.349 . S
C1685 C1701 1.349 . S
C1686 C1684 1.327 . S
C1686 C1705 1.429 . S
C1686 H1710 0.950 . S
C1687 C1704 1.574 . S
C1687 C1706 1.368 . S
C1687 H1711 0.949 . S
H1688 C1692 0.949 . S
C1689 C1690 1.349 . S
C1689 C1691 1.327 . S
C1689 H1712 0.950 . S
C1690 C1689 1.349 . S
C1690 C1702 1.349 . S
C1691 C1689 1.327 . S
C1691 C1707 1.429 . S
C1691 H1713 0.950 . S
C1692 H1688 0.949 . S
C1692 C1700 1.574 . S
C1692 C1708 1.368 . S
H1693 C1701 0.950 . S
H1694 C1699 0.950 . S
H1695 C1700 0.949 . S
H1696 C1702 0.950 . S
H1697 C1703 0.950 . S
H1698 C1704 0.949 . S
C1699 H1694 0.950 . S
C1699 C1701 1.327 . S
C1699 C1705 1.429 . S
C1700 C1692 1.574 . S
C1700 H1695 0.949 . S
C1700 C1706 1.368 . S
C1701 C1685 1.349 . S
C1701 H1693 0.950 . S
C1701 C1699 1.327 . S
C1702 C1690 1.349 . S
C1702 H1696 0.950 . S
C1702 C1703 1.327 . S
C1703 H1697 0.950 . S
C1703 C1702 1.327 . S
C1703 C1707 1.429 . S
C1704 C1687 1.574 . S
C1704 H1698 0.949 . S
C1704 C1708 1.368 . S
C1705 C1686 1.429 . S
C1705 C1699 1.429 . S
C1705 C1706 1.523 . S
C1706 C1687 1.368 . S
C1706 C1700 1.368 . S
C1706 C1705 1.523 . S
C1707 C1691 1.429 . S
C1707 C1703 1.429 . S
C1707 C1708 1.523 . S
C1708 C1692 1.368 . S
C1708 C1704 1.368 . S
C1708 C1707 1.523 . S
H1709 C1684 0.950 . S
H1710 C1686 0.950 . S
H1711 C1687 0.949 . S
H1712 C1689 0.950 . S
H1713 C1691 0.950 . S
C1714 C1715 1.349 . S
C1714 C1716 1.327 . S
C1714 H1739 0.950 . S
C1715 C1714 1.349 . S
C1715 C1731 1.349 . S
C1716 C1714 1.327 . S
C1716 C1735 1.429 . S
C1716 H1740 0.950 . S
C1717 C1734 1.574 . S
C1717 C1736 1.368 . S
C1717 H1741 0.949 . S
H1718 C1722 0.949 . S
C1719 C1720 1.349 . S
C1719 C1721 1.327 . S
C1719 H1742 0.950 . S
C1720 C1719 1.349 . S
C1720 C1732 1.349 . S
C1721 C1719 1.327 . S
C1721 C1737 1.429 . S
C1721 H1743 0.950 . S
C1722 H1718 0.949 . S
C1722 C1730 1.574 . S
C1722 C1738 1.368 . S
H1723 C1731 0.950 . S
H1724 C1729 0.950 . S
H1725 C1730 0.949 . S
H1726 C1732 0.950 . S
H1727 C1733 0.950 . S
H1728 C1734 0.949 . S
C1729 H1724 0.950 . S
C1729 C1731 1.327 . S
C1729 C1735 1.429 . S
C1730 C1722 1.574 . S
C1730 H1725 0.949 . S
C1730 C1736 1.368 . S
C1731 C1715 1.349 . S
C1731 H1723 0.950 . S
C1731 C1729 1.327 . S
C1732 C1720 1.349 . S
C1732 H1726 0.950 . S
C1732 C1733 1.327 . S
C1733 H1727 0.950 . S
C1733 C1732 1.327 . S
C1733 C1737 1.429 . S
C1734 C1717 1.574 . S
C1734 H1728 0.949 . S
C1734 C1738 1.368 . S
C1735 C1716 1.429 . S
C1735 C1729 1.429 . S
C1735 C1736 1.523 . S
C1736 C1717 1.368 . S
C1736 C1730 1.368 . S
C1736 C1735 1.523 . S
C1737 C1721 1.429 . S
C1737 C1733 1.429 . S
C1737 C1738 1.523 . S
C1738 C1722 1.368 . S
C1738 C1734 1.368 . S
C1738 C1737 1.523 . S
H1739 C1714 0.950 . S
H1740 C1716 0.950 . S
H1741 C1717 0.949 . S
H1742 C1719 0.950 . S
H1743 C1721 0.950 . S
C1744 C1745 1.349 . S
C1744 C1746 1.327 . S
C1744 H1769 0.950 . S
C1745 C1744 1.349 . S
C1745 C1761 1.349 . S
C1746 C1744 1.327 . S
C1746 C1765 1.429 . S
C1746 H1770 0.950 . S
C1747 C1764 1.574 . S
C1747 C1766 1.368 . S
C1747 H1771 0.949 . S
H1748 C1752 0.949 . S
C1749 C1750 1.349 . S
C1749 C1751 1.327 . S
C1749 H1772 0.950 . S
C1750 C1749 1.349 . S
C1750 C1762 1.349 . S
C1751 C1749 1.327 . S
C1751 C1767 1.429 . S
C1751 H1773 0.950 . S
C1752 H1748 0.949 . S
C1752 C1760 1.574 . S
C1752 C1768 1.368 . S
H1753 C1761 0.950 . S
H1754 C1759 0.950 . S
H1755 C1760 0.949 . S
H1756 C1762 0.950 . S
H1757 C1763 0.950 . S
H1758 C1764 0.949 . S
C1759 H1754 0.950 . S
C1759 C1761 1.327 . S
C1759 C1765 1.429 . S
C1760 C1752 1.574 . S
C1760 H1755 0.949 . S
C1760 C1766 1.368 . S
C1761 C1745 1.349 . S
C1761 H1753 0.950 . S
C1761 C1759 1.327 . S
C1762 C1750 1.349 . S
C1762 H1756 0.950 . S
C1762 C1763 1.327 . S
C1763 H1757 0.950 . S
C1763 C1762 1.327 . S
C1763 C1767 1.429 . S
C1764 C1747 1.574 . S
C1764 H1758 0.949 . S
C1764 C1768 1.368 . S
C1765 C1746 1.429 . S
C1765 C1759 1.429 . S
C1765 C1766 1.523 . S
C1766 C1747 1.368 . S
C1766 C1760 1.368 . S
C1766 C1765 1.523 . S
C1767 C1751 1.429 . S
C1767 C1763 1.429 . S
C1767 C1768 1.523 . S
C1768 C1752 1.368 . S
C1768 C1764 1.368 . S
C1768 C1767 1.523 . S
H1769 C1744 0.950 . S
H1770 C1746 0.950 . S
H1771 C1747 0.949 . S
H1772 C1749 0.950 . S
H1773 C1751 0.950 . S
C1774 C1775 1.349 . S
C1774 C1776 1.327 . S
C1774 H1799 0.950 . S
C1775 C1774 1.349 . S
C1775 C1791 1.349 . S
C1776 C1774 1.327 . S
C1776 C1795 1.429 . S
C1776 H1800 0.950 . S
C1777 C1794 1.574 . S
C1777 C1796 1.368 . S
C1777 H1801 0.949 . S
H1778 C1782 0.949 . S
C1779 C1780 1.349 . S
C1779 C1781 1.327 . S
C1779 H1802 0.950 . S
C1780 C1779 1.349 . S
C1780 C1792 1.349 . S
C1781 C1779 1.327 . S
C1781 C1797 1.429 . S
C1781 H1803 0.950 . S
C1782 H1778 0.949 . S
C1782 C1790 1.574 . S
C1782 C1798 1.368 . S
H1783 C1791 0.950 . S
H1784 C1789 0.950 . S
H1785 C1790 0.949 . S
H1786 C1792 0.950 . S
H1787 C1793 0.950 . S
H1788 C1794 0.949 . S
C1789 H1784 0.950 . S
C1789 C1791 1.327 . S
C1789 C1795 1.429 . S
C1790 C1782 1.574 . S
C1790 H1785 0.949 . S
C1790 C1796 1.368 . S
C1791 C1775 1.349 . S
C1791 H1783 0.950 . S
C1791 C1789 1.327 . S
C1792 C1780 1.349 . S
C1792 H1786 0.950 . S
C1792 C1793 1.327 . S
C1793 H1787 0.950 . S
C1793 C1792 1.327 . S
C1793 C1797 1.429 . S
C1794 C1777 1.574 . S
C1794 H1788 0.949 . S
C1794 C1798 1.368 . S
C1795 C1776 1.429 . S
C1795 C1789 1.429 . S
C1795 C1796 1.523 . S
C1796 C1777 1.368 . S
C1796 C1790 1.368 . S
C1796 C1795 1.523 . S
C1797 C1781 1.429 . S
C1797 C1793 1.429 . S
C1797 C1798 1.523 . S
C1798 C1782 1.368 . S
C1798 C1794 1.368 . S
C1798 C1797 1.523 . S
H1799 C1774 0.950 . S
H1800 C1776 0.950 . S
H1801 C1777 0.949 . S
H1802 C1779 0.950 . S
H1803 C1781 0.950 . S
C1804 C1805 1.349 . S
C1804 C1806 1.327 . S
C1804 H1829 0.950 . S
C1805 C1804 1.349 . S
C1805 C1821 1.349 . S
C1806 C1804 1.327 . S
C1806 C1825 1.429 . S
C1806 H1830 0.950 . S
C1807 C1824 1.574 . S
C1807 C1826 1.368 . S
C1807 H1831 0.949 . S
H1808 C1812 0.949 . S
C1809 C1810 1.349 . S
C1809 C1811 1.327 . S
C1809 H1832 0.950 . S
C1810 C1809 1.349 . S
C1810 C1822 1.349 . S
C1811 C1809 1.327 . S
C1811 C1827 1.429 . S
C1811 H1833 0.950 . S
C1812 H1808 0.949 . S
C1812 C1820 1.574 . S
C1812 C1828 1.368 . S
H1813 C1821 0.950 . S
H1814 C1819 0.950 . S
H1815 C1820 0.949 . S
H1816 C1822 0.950 . S
H1817 C1823 0.950 . S
H1818 C1824 0.949 . S
C1819 H1814 0.950 . S
C1819 C1821 1.327 . S
C1819 C1825 1.429 . S
C1820 C1812 1.574 . S
C1820 H1815 0.949 . S
C1820 C1826 1.368 . S
C1821 C1805 1.349 . S
C1821 H1813 0.950 . S
C1821 C1819 1.327 . S
C1822 C1810 1.349 . S
C1822 H1816 0.950 . S
C1822 C1823 1.327 . S
C1823 H1817 0.950 . S
C1823 C1822 1.327 . S
C1823 C1827 1.429 . S
C1824 C1807 1.574 . S
C1824 H1818 0.949 . S
C1824 C1828 1.368 . S
C1825 C1806 1.429 . S
C1825 C1819 1.429 . S
C1825 C1826 1.523 . S
C1826 C1807 1.368 . S
C1826 C1820 1.368 . S
C1826 C1825 1.523 . S
C1827 C1811 1.429 . S
C1827 C1823 1.429 . S
C1827 C1828 1.523 . S
C1828 C1812 1.368 . S
C1828 C1824 1.368 . S
C1828 C1827 1.523 . S
H1829 C1804 0.950 . S
H1830 C1806 0.950 . S
H1831 C1807 0.949 . S
H1832 C1809 0.950 . S
H1833 C1811 0.950 . S
C1834 C1835 1.349 . S
C1834 C1836 1.327 . S
C1834 H1859 0.950 . S
C1835 C1834 1.349 . S
C1835 C1851 1.349 . S
C1836 C1834 1.327 . S
C1836 C1855 1.429 . S
C1836 H1860 0.950 . S
C1837 C1854 1.574 . S
C1837 C1856 1.368 . S
C1837 H1861 0.949 . S
H1838 C1842 0.949 . S
C1839 C1840 1.349 . S
C1839 C1841 1.327 . S
C1839 H1862 0.950 . S
C1840 C1839 1.349 . S
C1840 C1852 1.349 . S
C1841 C1839 1.327 . S
C1841 C1857 1.429 . S
C1841 H1863 0.950 . S
C1842 H1838 0.949 . S
C1842 C1850 1.574 . S
C1842 C1858 1.368 . S
H1843 C1851 0.950 . S
H1844 C1849 0.950 . S
H1845 C1850 0.949 . S
H1846 C1852 0.950 . S
H1847 C1853 0.950 . S
H1848 C1854 0.949 . S
C1849 H1844 0.950 . S
C1849 C1851 1.327 . S
C1849 C1855 1.429 . S
C1850 C1842 1.574 . S
C1850 H1845 0.949 . S
C1850 C1856 1.368 . S
C1851 C1835 1.349 . S
C1851 H1843 0.950 . S
C1851 C1849 1.327 . S
C1852 C1840 1.349 . S
C1852 H1846 0.950 . S
C1852 C1853 1.327 . S
C1853 H1847 0.950 . S
C1853 C1852 1.327 . S
C1853 C1857 1.429 . S
C1854 C1837 1.574 . S
C1854 H1848 0.949 . S
C1854 C1858 1.368 . S
C1855 C1836 1.429 . S
C1855 C1849 1.429 . S
C1855 C1856 1.523 . S
C1856 C1837 1.368 . S
C1856 C1850 1.368 . S
C1856 C1855 1.523 . S
C1857 C1841 1.429 . S
C1857 C1853 1.429 . S
C1857 C1858 1.523 . S
C1858 C1842 1.368 . S
C1858 C1854 1.368 . S
C1858 C1857 1.523 . S
H1859 C1834 0.950 . S
H1860 C1836 0.950 . S
H1861 C1837 0.949 . S
H1862 C1839 0.950 . S
H1863 C1841 0.950 . S
C1864 C1865 1.349 . S
C1864 C1866 1.327 . S
C1864 H1889 0.950 . S
C1865 C1864 1.349 . S
C1865 C1881 1.349 . S
C1866 C1864 1.327 . S
C1866 C1885 1.429 . S
C1866 H1890 0.950 . S
C1867 C1884 1.574 . S
C1867 C1886 1.368 . S
C1867 H1891 0.949 . S
H1868 C1872 0.949 . S
C1869 C1870 1.349 . S
C1869 C1871 1.327 . S
C1869 H1892 0.950 . S
C1870 C1869 1.349 . S
C1870 C1882 1.349 . S
C1871 C1869 1.327 . S
C1871 C1887 1.429 . S
C1871 H1893 0.950 . S
C1872 H1868 0.949 . S
C1872 C1880 1.574 . S
C1872 C1888 1.368 . S
H1873 C1881 0.950 . S
H1874 C1879 0.950 . S
H1875 C1880 0.949 . S
H1876 C1882 0.950 . S
H1877 C1883 0.950 . S
H1878 C1884 0.949 . S
C1879 H1874 0.950 . S
C1879 C1881 1.327 . S
C1879 C1885 1.429 . S
C1880 C1872 1.574 . S
C1880 H1875 0.949 . S
C1880 C1886 1.368 . S
C1881 C1865 1.349 . S
C1881 H1873 0.950 . S
C1881 C1879 1.327 . S
C1882 C1870 1.349 . S
C1882 H1876 0.950 . S
C1882 C1883 1.327 . S
C1883 H1877 0.950 . S
C1883 C1882 1.327 . S
C1883 C1887 1.429 . S
C1884 C1867 1.574 . S
C1884 H1878 0.949 . S
C1884 C1888 1.368 . S
C1885 C1866 1.429 . S
C1885 C1879 1.429 . S
C1885 C1886 1.523 . S
C1886 C1867 1.368 . S
C1886 C1880 1.368 . S
C1886 C1885 1.523 . S
C1887 C1871 1.429 . S
C1887 C1883 1.429 . S
C1887 C1888 1.523 . S
C1888 C1872 1.368 . S
C1888 C1884 1.368 . S
C1888 C1887 1.523 . S
H1889 C1864 0.950 . S
H1890 C1866 0.950 . S
H1891 C1867 0.949 . S
H1892 C1869 0.950 . S
H1893 C1871 0.950 . S
C1894 C1895 1.349 . S
C1894 C1896 1.327 . S
C1894 H1919 0.950 . S
C1895 C1894 1.349 . S
C1895 C1911 1.349 . S
C1896 C1894 1.327 . S
C1896 C1915 1.429 . S
C1896 H1920 0.950 . S
C1897 C1914 1.574 . S
C1897 C1916 1.368 . S
C1897 H1921 0.949 . S
H1898 C1902 0.949 . S
C1899 C1900 1.349 . S
C1899 C1901 1.327 . S
C1899 H1922 0.950 . S
C1900 C1899 1.349 . S
C1900 C1912 1.349 . S
C1901 C1899 1.327 . S
C1901 C1917 1.429 . S
C1901 H1923 0.950 . S
C1902 H1898 0.949 . S
C1902 C1910 1.574 . S
C1902 C1918 1.368 . S
H1903 C1911 0.950 . S
H1904 C1909 0.950 . S
H1905 C1910 0.949 . S
H1906 C1912 0.950 . S
H1907 C1913 0.950 . S
H1908 C1914 0.949 . S
C1909 H1904 0.950 . S
C1909 C1911 1.327 . S
C1909 C1915 1.429 . S
C1910 C1902 1.574 . S
C1910 H1905 0.949 . S
C1910 C1916 1.368 . S
C1911 C1895 1.349 . S
C1911 H1903 0.950 . S
C1911 C1909 1.327 . S
C1912 C1900 1.349 . S
C1912 H1906 0.950 . S
C1912 C1913 1.327 . S
C1913 H1907 0.950 . S
C1913 C1912 1.327 . S
C1913 C1917 1.429 . S
C1914 C1897 1.574 . S
C1914 H1908 0.949 . S
C1914 C1918 1.368 . S
C1915 C1896 1.429 . S
C1915 C1909 1.429 . S
C1915 C1916 1.523 . S
C1916 C1897 1.368 . S
C1916 C1910 1.368 . S
C1916 C1915 1.523 . S
C1917 C1901 1.429 . S
C1917 C1913 1.429 . S
C1917 C1918 1.523 . S
C1918 C1902 1.368 . S
C1918 C1914 1.368 . S
C1918 C1917 1.523 . S
H1919 C1894 0.950 . S
H1920 C1896 0.950 . S
H1921 C1897 0.949 . S
H1922 C1899 0.950 . S
H1923 C1901 0.950 . S
C1924 C1925 1.349 . S
C1924 C1926 1.327 . S
C1924 H1949 0.950 . S
C1925 C1924 1.349 . S
C1925 C1941 1.349 . S
C1926 C1924 1.327 . S
C1926 C1945 1.429 . S
C1926 H1950 0.950 . S
C1927 C1944 1.574 . S
C1927 C1946 1.368 . S
C1927 H1951 0.949 . S
H1928 C1932 0.949 . S
C1929 C1930 1.349 . S
C1929 C1931 1.327 . S
C1929 H1952 0.950 . S
C1930 C1929 1.349 . S
C1930 C1942 1.349 . S
C1931 C1929 1.327 . S
C1931 C1947 1.429 . S
C1931 H1953 0.950 . S
C1932 H1928 0.949 . S
C1932 C1940 1.574 . S
C1932 C1948 1.368 . S
H1933 C1941 0.950 . S
H1934 C1939 0.950 . S
H1935 C1940 0.949 . S
H1936 C1942 0.950 . S
H1937 C1943 0.950 . S
H1938 C1944 0.949 . S
C1939 H1934 0.950 . S
C1939 C1941 1.327 . S
C1939 C1945 1.429 . S
C1940 C1932 1.574 . S
C1940 H1935 0.949 . S
C1940 C1946 1.368 . S
C1941 C1925 1.349 . S
C1941 H1933 0.950 . S
C1941 C1939 1.327 . S
C1942 C1930 1.349 . S
C1942 H1936 0.950 . S
C1942 C1943 1.327 . S
C1943 H1937 0.950 . S
C1943 C1942 1.327 . S
C1943 C1947 1.429 . S
C1944 C1927 1.574 . S
C1944 H1938 0.949 . S
C1944 C1948 1.368 . S
C1945 C1926 1.429 . S
C1945 C1939 1.429 . S
C1945 C1946 1.523 . S
C1946 C1927 1.368 . S
C1946 C1940 1.368 . S
C1946 C1945 1.523 . S
C1947 C1931 1.429 . S
C1947 C1943 1.429 . S
C1947 C1948 1.523 . S
C1948 C1932 1.368 . S
C1948 C1944 1.368 . S
C1948 C1947 1.523 . S
H1949 C1924 0.950 . S
H1950 C1926 0.950 . S
H1951 C1927 0.949 . S
H1952 C1929 0.950 . S
H1953 C1931 0.950 . S
C1954 C1955 1.349 . S
C1954 C1956 1.327 . S
C1954 H1979 0.950 . S
C1955 C1954 1.349 . S
C1955 C1971 1.349 . S
C1956 C1954 1.327 . S
C1956 C1975 1.429 . S
C1956 H1980 0.950 . S
C1957 C1974 1.574 . S
C1957 C1976 1.368 . S
C1957 H1981 0.949 . S
H1958 C1962 0.949 . S
C1959 C1960 1.349 . S
C1959 C1961 1.327 . S
C1959 H1982 0.950 . S
C1960 C1959 1.349 . S
C1960 C1972 1.349 . S
C1961 C1959 1.327 . S
C1961 C1977 1.429 . S
C1961 H1983 0.950 . S
C1962 H1958 0.949 . S
C1962 C1970 1.574 . S
C1962 C1978 1.368 . S
H1963 C1971 0.950 . S
H1964 C1969 0.950 . S
H1965 C1970 0.949 . S
H1966 C1972 0.950 . S
H1967 C1973 0.950 . S
H1968 C1974 0.949 . S
C1969 H1964 0.950 . S
C1969 C1971 1.327 . S
C1969 C1975 1.429 . S
C1970 C1962 1.574 . S
C1970 H1965 0.949 . S
C1970 C1976 1.368 . S
C1971 C1955 1.349 . S
C1971 H1963 0.950 . S
C1971 C1969 1.327 . S
C1972 C1960 1.349 . S
C1972 H1966 0.950 . S
C1972 C1973 1.327 . S
C1973 H1967 0.950 . S
C1973 C1972 1.327 . S
C1973 C1977 1.429 . S
C1974 C1957 1.574 . S
C1974 H1968 0.949 . S
C1974 C1978 1.368 . S
C1975 C1956 1.429 . S
C1975 C1969 1.429 . S
C1975 C1976 1.523 . S
C1976 C1957 1.368 . S
C1976 C1970 1.368 . S
C1976 C1975 1.523 . S
C1977 C1961 1.429 . S
C1977 C1973 1.429 . S
C1977 C1978 1.523 . S
C1978 C1962 1.368 . S
C1978 C1974 1.368 . S
C1978 C1977 1.523 . S
H1979 C1954 0.950 . S
H1980 C1956 0.950 . S
H1981 C1957 0.949 . S
H1982 C1959 0.950 . S
H1983 C1961 0.950 . S
C1984 C1985 1.349 . S
C1984 C1986 1.327 . S
C1984 H2009 0.950 . S
C1985 C1984 1.349 . S
C1985 C2001 1.349 . S
C1986 C1984 1.327 . S
C1986 C2005 1.429 . S
C1986 H2010 0.950 . S
C1987 C2004 1.574 . S
C1987 C2006 1.368 . S
C1987 H2011 0.949 . S
H1988 C1992 0.949 . S
C1989 C1990 1.349 . S
C1989 C1991 1.327 . S
C1989 H2012 0.950 . S
C1990 C1989 1.349 . S
C1990 C2002 1.349 . S
C1991 C1989 1.327 . S
C1991 C2007 1.429 . S
C1991 H2013 0.950 . S
C1992 H1988 0.949 . S
C1992 C2000 1.574 . S
C1992 C2008 1.368 . S
H1993 C2001 0.950 . S
H1994 C1999 0.950 . S
H1995 C2000 0.949 . S
H1996 C2002 0.950 . S
H1997 C2003 0.950 . S
H1998 C2004 0.949 . S
C1999 H1994 0.950 . S
C1999 C2001 1.327 . S
C1999 C2005 1.429 . S
C2000 C1992 1.574 . S
C2000 H1995 0.949 . S
C2000 C2006 1.368 . S
C2001 C1985 1.349 . S
C2001 H1993 0.950 . S
C2001 C1999 1.327 . S
C2002 C1990 1.349 . S
C2002 H1996 0.950 . S
C2002 C2003 1.327 . S
C2003 H1997 0.950 . S
C2003 C2002 1.327 . S
C2003 C2007 1.429 . S
C2004 C1987 1.574 . S
C2004 H1998 0.949 . S
C2004 C2008 1.368 . S
C2005 C1986 1.429 . S
C2005 C1999 1.429 . S
C2005 C2006 1.523 . S
C2006 C1987 1.368 . S
C2006 C2000 1.368 . S
C2006 C2005 1.523 . S
C2007 C1991 1.429 . S
C2007 C2003 1.429 . S
C2007 C2008 1.523 . S
C2008 C1992 1.368 . S
C2008 C2004 1.368 . S
C2008 C2007 1.523 . S
H2009 C1984 0.950 . S
H2010 C1986 0.950 . S
H2011 C1987 0.949 . S
H2012 C1989 0.950 . S
H2013 C1991 0.950 . S
C2014 C2015 1.349 . S
C2014 C2016 1.327 . S
C2014 H2039 0.950 . S
C2015 C2014 1.349 . S
C2015 C2031 1.349 . S
C2016 C2014 1.327 . S
C2016 C2035 1.429 . S
C2016 H2040 0.950 . S
C2017 C2034 1.574 . S
C2017 C2036 1.368 . S
C2017 H2041 0.949 . S
H2018 C2022 0.949 . S
C2019 C2020 1.349 . S
C2019 C2021 1.327 . S
C2019 H2042 0.950 . S
C2020 C2019 1.349 . S
C2020 C2032 1.349 . S
C2021 C2019 1.327 . S
C2021 C2037 1.429 . S
C2021 H2043 0.950 . S
C2022 H2018 0.949 . S
C2022 C2030 1.574 . S
C2022 C2038 1.368 . S
H2023 C2031 0.950 . S
H2024 C2029 0.950 . S
H2025 C2030 0.949 . S
H2026 C2032 0.950 . S
H2027 C2033 0.950 . S
H2028 C2034 0.949 . S
C2029 H2024 0.950 . S
C2029 C2031 1.327 . S
C2029 C2035 1.429 . S
C2030 C2022 1.574 . S
C2030 H2025 0.949 . S
C2030 C2036 1.368 . S
C2031 C2015 1.349 . S
C2031 H2023 0.950 . S
C2031 C2029 1.327 . S
C2032 C2020 1.349 . S
C2032 H2026 0.950 . S
C2032 C2033 1.327 . S
C2033 H2027 0.950 . S
C2033 C2032 1.327 . S
C2033 C2037 1.429 . S
C2034 C2017 1.574 . S
C2034 H2028 0.949 . S
C2034 C2038 1.368 . S
C2035 C2016 1.429 . S
C2035 C2029 1.429 . S
C2035 C2036 1.523 . S
C2036 C2017 1.368 . S
C2036 C2030 1.368 . S
C2036 C2035 1.523 . S
C2037 C2021 1.429 . S
C2037 C2033 1.429 . S
C2037 C2038 1.523 . S
C2038 C2022 1.368 . S
C2038 C2034 1.368 . S
C2038 C2037 1.523 . S
H2039 C2014 0.950 . S
H2040 C2016 0.950 . S
H2041 C2017 0.949 . S
H2042 C2019 0.950 . S
H2043 C2021 0.950 . S
C2044 C2045 1.349 . S
C2044 C2046 1.327 . S
C2044 H2069 0.950 . S
C2045 C2044 1.349 . S
C2045 C2061 1.349 . S
C2046 C2044 1.327 . S
C2046 C2065 1.429 . S
C2046 H2070 0.950 . S
C2047 C2064 1.574 . S
C2047 C2066 1.368 . S
C2047 H2071 0.949 . S
H2048 C2052 0.949 . S
C2049 C2050 1.349 . S
C2049 C2051 1.327 . S
C2049 H2072 0.950 . S
C2050 C2049 1.349 . S
C2050 C2062 1.349 . S
C2051 C2049 1.327 . S
C2051 C2067 1.429 . S
C2051 H2073 0.950 . S
C2052 H2048 0.949 . S
C2052 C2060 1.574 . S
C2052 C2068 1.368 . S
H2053 C2061 0.950 . S
H2054 C2059 0.950 . S
H2055 C2060 0.949 . S
H2056 C2062 0.950 . S
H2057 C2063 0.950 . S
H2058 C2064 0.949 . S
C2059 H2054 0.950 . S
C2059 C2061 1.327 . S
C2059 C2065 1.429 . S
C2060 C2052 1.574 . S
C2060 H2055 0.949 . S
C2060 C2066 1.368 . S
C2061 C2045 1.349 . S
C2061 H2053 0.950 . S
C2061 C2059 1.327 . S
C2062 C2050 1.349 . S
C2062 H2056 0.950 . S
C2062 C2063 1.327 . S
C2063 H2057 0.950 . S
C2063 C2062 1.327 . S
C2063 C2067 1.429 . S
C2064 C2047 1.574 . S
C2064 H2058 0.949 . S
C2064 C2068 1.368 . S
C2065 C2046 1.429 . S
C2065 C2059 1.429 . S
C2065 C2066 1.523 . S
C2066 C2047 1.368 . S
C2066 C2060 1.368 . S
C2066 C2065 1.523 . S
C2067 C2051 1.429 . S
C2067 C2063 1.429 . S
C2067 C2068 1.523 . S
C2068 C2052 1.368 . S
C2068 C2064 1.368 . S
C2068 C2067 1.523 . S
H2069 C2044 0.950 . S
H2070 C2046 0.950 . S
H2071 C2047 0.949 . S
H2072 C2049 0.950 . S
H2073 C2051 0.950 . S
C2074 C2075 1.349 . S
C2074 C2076 1.327 . S
C2074 H2099 0.950 . S
C2075 C2074 1.349 . S
C2075 C2091 1.349 . S
C2076 C2074 1.327 . S
C2076 C2095 1.429 . S
C2076 H2100 0.950 . S
C2077 C2094 1.574 . S
C2077 C2096 1.368 . S
C2077 H2101 0.949 . S
H2078 C2082 0.949 . S
C2079 C2080 1.349 . S
C2079 C2081 1.327 . S
C2079 H2102 0.950 . S
C2080 C2079 1.349 . S
C2080 C2092 1.349 . S
C2081 C2079 1.327 . S
C2081 C2097 1.429 . S
C2081 H2103 0.950 . S
C2082 H2078 0.949 . S
C2082 C2090 1.574 . S
C2082 C2098 1.368 . S
H2083 C2091 0.950 . S
H2084 C2089 0.950 . S
H2085 C2090 0.949 . S
H2086 C2092 0.950 . S
H2087 C2093 0.950 . S
H2088 C2094 0.949 . S
C2089 H2084 0.950 . S
C2089 C2091 1.327 . S
C2089 C2095 1.429 . S
C2090 C2082 1.574 . S
C2090 H2085 0.949 . S
C2090 C2096 1.368 . S
C2091 C2075 1.349 . S
C2091 H2083 0.950 . S
C2091 C2089 1.327 . S
C2092 C2080 1.349 . S
C2092 H2086 0.950 . S
C2092 C2093 1.327 . S
C2093 H2087 0.950 . S
C2093 C2092 1.327 . S
C2093 C2097 1.429 . S
C2094 C2077 1.574 . S
C2094 H2088 0.949 . S
C2094 C2098 1.368 . S
C2095 C2076 1.429 . S
C2095 C2089 1.429 . S
C2095 C2096 1.523 . S
C2096 C2077 1.368 . S
C2096 C2090 1.368 . S
C2096 C2095 1.523 . S
C2097 C2081 1.429 . S
C2097 C2093 1.429 . S
C2097 C2098 1.523 . S
C2098 C2082 1.368 . S
C2098 C2094 1.368 . S
C2098 C2097 1.523 . S
H2099 C2074 0.950 . S
H2100 C2076 0.950 . S
H2101 C2077 0.949 . S
H2102 C2079 0.950 . S
H2103 C2081 0.950 . S
C2104 C2105 1.349 . S
C2104 C2106 1.327 . S
C2104 H2129 0.950 . S
C2105 C2104 1.349 . S
C2105 C2121 1.349 . S
C2106 C2104 1.327 . S
C2106 C2125 1.429 . S
C2106 H2130 0.950 . S
C2107 C2124 1.574 . S
C2107 C2126 1.368 . S
C2107 H2131 0.949 . S
H2108 C2112 0.949 . S
C2109 C2110 1.349 . S
C2109 C2111 1.327 . S
C2109 H2132 0.950 . S
C2110 C2109 1.349 . S
C2110 C2122 1.349 . S
C2111 C2109 1.327 . S
C2111 C2127 1.429 . S
C2111 H2133 0.950 . S
C2112 H2108 0.949 . S
C2112 C2120 1.574 . S
C2112 C2128 1.368 . S
H2113 C2121 0.950 . S
H2114 C2119 0.950 . S
H2115 C2120 0.949 . S
H2116 C2122 0.950 . S
H2117 C2123 0.950 . S
H2118 C2124 0.949 . S
C2119 H2114 0.950 . S
C2119 C2121 1.327 . S
C2119 C2125 1.429 . S
C2120 C2112 1.574 . S
C2120 H2115 0.949 . S
C2120 C2126 1.368 . S
C2121 C2105 1.349 . S
C2121 H2113 0.950 . S
C2121 C2119 1.327 . S
C2122 C2110 1.349 . S
C2122 H2116 0.950 . S
C2122 C2123 1.327 . S
C2123 H2117 0.950 . S
C2123 C2122 1.327 . S
C2123 C2127 1.429 . S
C2124 C2107 1.574 . S
C2124 H2118 0.949 . S
C2124 C2128 1.368 . S
C2125 C2106 1.429 . S
C2125 C2119 1.429 . S
C2125 C2126 1.523 . S
C2126 C2107 1.368 . S
C2126 C2120 1.368 . S
C2126 C2125 1.523 . S
C2127 C2111 1.429 . S
C2127 C2123 1.429 . S
C2127 C2128 1.523 . S
C2128 C2112 1.368 . S
C2128 C2124 1.368 . S
C2128 C2127 1.523 . S
H2129 C2104 0.950 . S
H2130 C2106 0.950 . S
H2131 C2107 0.949 . S
H2132 C2109 0.950 . S
H2133 C2111 0.950 . S
C2134 C2135 1.349 . S
C2134 C2136 1.327 . S
C2134 H2159 0.950 . S
C2135 C2134 1.349 . S
C2135 C2151 1.349 . S
C2136 C2134 1.327 . S
C2136 C2155 1.429 . S
C2136 H2160 0.950 . S
C2137 C2154 1.574 . S
C2137 C2156 1.368 . S
C2137 H2161 0.949 . S
H2138 C2142 0.949 . S
C2139 C2140 1.349 . S
C2139 C2141 1.327 . S
C2139 H2162 0.950 . S
C2140 C2139 1.349 . S
C2140 C2152 1.349 . S
C2141 C2139 1.327 . S
C2141 C2157 1.429 . S
C2141 H2163 0.950 . S
C2142 H2138 0.949 . S
C2142 C2150 1.574 . S
C2142 C2158 1.368 . S
H2143 C2151 0.950 . S
H2144 C2149 0.950 . S
H2145 C2150 0.949 . S
H2146 C2152 0.950 . S
H2147 C2153 0.950 . S
H2148 C2154 0.949 . S
C2149 H2144 0.950 . S
C2149 C2151 1.327 . S
C2149 C2155 1.429 . S
C2150 C2142 1.574 . S
C2150 H2145 0.949 . S
C2150 C2156 1.368 . S
C2151 C2135 1.349 . S
C2151 H2143 0.950 . S
C2151 C2149 1.327 . S
C2152 C2140 1.349 . S
C2152 H2146 0.950 . S
C2152 C2153 1.327 . S
C2153 H2147 0.950 . S
C2153 C2152 1.327 . S
C2153 C2157 1.429 . S
C2154 C2137 1.574 . S
C2154 H2148 0.949 . S
C2154 C2158 1.368 . S
C2155 C2136 1.429 . S
C2155 C2149 1.429 . S
C2155 C2156 1.523 . S
C2156 C2137 1.368 . S
C2156 C2150 1.368 . S
C2156 C2155 1.523 . S
C2157 C2141 1.429 . S
C2157 C2153 1.429 . S
C2157 C2158 1.523 . S
C2158 C2142 1.368 . S
C2158 C2154 1.368 . S
C2158 C2157 1.523 . S
H2159 C2134 0.950 . S
H2160 C2136 0.950 . S
H2161 C2137 0.949 . S
H2162 C2139 0.950 . S
H2163 C2141 0.950 . S
C2164 C2165 1.349 . S
C2164 C2166 1.327 . S
C2164 H2189 0.950 . S
C2165 C2164 1.349 . S
C2165 C2181 1.349 . S
C2166 C2164 1.327 . S
C2166 C2185 1.429 . S
C2166 H2190 0.950 . S
C2167 C2184 1.574 . S
C2167 C2186 1.368 . S
C2167 H2191 0.949 . S
H2168 C2172 0.949 . S
C2169 C2170 1.349 . S
C2169 C2171 1.327 . S
C2169 H2192 0.950 . S
C2170 C2169 1.349 . S
C2170 C2182 1.349 . S
C2171 C2169 1.327 . S
C2171 C2187 1.429 . S
C2171 H2193 0.950 . S
C2172 H2168 0.949 . S
C2172 C2180 1.574 . S
C2172 C2188 1.368 . S
H2173 C2181 0.950 . S
H2174 C2179 0.950 . S
H2175 C2180 0.949 . S
H2176 C2182 0.950 . S
H2177 C2183 0.950 . S
H2178 C2184 0.949 . S
C2179 H2174 0.950 . S
C2179 C2181 1.327 . S
C2179 C2185 1.429 . S
C2180 C2172 1.574 . S
C2180 H2175 0.949 . S
C2180 C2186 1.368 . S
C2181 C2165 1.349 . S
C2181 H2173 0.950 . S
C2181 C2179 1.327 . S
C2182 C2170 1.349 . S
C2182 H2176 0.950 . S
C2182 C2183 1.327 . S
C2183 H2177 0.950 . S
C2183 C2182 1.327 . S
C2183 C2187 1.429 . S
C2184 C2167 1.574 . S
C2184 H2178 0.949 . S
C2184 C2188 1.368 . S
C2185 C2166 1.429 . S
C2185 C2179 1.429 . S
C2185 C2186 1.523 . S
C2186 C2167 1.368 . S
C2186 C2180 1.368 . S
C2186 C2185 1.523 . S
C2187 C2171 1.429 . S
C2187 C2183 1.429 . S
C2187 C2188 1.523 . S
C2188 C2172 1.368 . S
C2188 C2184 1.368 . S
C2188 C2187 1.523 . S
H2189 C2164 0.950 . S
H2190 C2166 0.950 . S
H2191 C2167 0.949 . S
H2192 C2169 0.950 . S
H2193 C2171 0.950 . S
C2194 C2195 1.349 . S
C2194 C2196 1.327 . S
C2194 H2219 0.950 . S
C2195 C2194 1.349 . S
C2195 C2211 1.349 . S
C2196 C2194 1.327 . S
C2196 C2215 1.429 . S
C2196 H2220 0.950 . S
C2197 C2214 1.574 . S
C2197 C2216 1.368 . S
C2197 H2221 0.949 . S
H2198 C2202 0.949 . S
C2199 C2200 1.349 . S
C2199 C2201 1.327 . S
C2199 H2222 0.950 . S
C2200 C2199 1.349 . S
C2200 C2212 1.349 . S
C2201 C2199 1.327 . S
C2201 C2217 1.429 . S
C2201 H2223 0.950 . S
C2202 H2198 0.949 . S
C2202 C2210 1.574 . S
C2202 C2218 1.368 . S
H2203 C2211 0.950 . S
H2204 C2209 0.950 . S
H2205 C2210 0.949 . S
H2206 C2212 0.950 . S
H2207 C2213 0.950 . S
H2208 C2214 0.949 . S
C2209 H2204 0.950 . S
C2209 C2211 1.327 . S
C2209 C2215 1.429 . S
C2210 C2202 1.574 . S
C2210 H2205 0.949 . S
C2210 C2216 1.368 . S
C2211 C2195 1.349 . S
C2211 H2203 0.950 . S
C2211 C2209 1.327 . S
C2212 C2200 1.349 . S
C2212 H2206 0.950 . S
C2212 C2213 1.327 . S
C2213 H2207 0.950 . S
C2213 C2212 1.327 . S
C2213 C2217 1.429 . S
C2214 C2197 1.574 . S
C2214 H2208 0.949 . S
C2214 C2218 1.368 . S
C2215 C2196 1.429 . S
C2215 C2209 1.429 . S
C2215 C2216 1.523 . S
C2216 C2197 1.368 . S
C2216 C2210 1.368 . S
C2216 C2215 1.523 . S
C2217 C2201 1.429 . S
C2217 C2213 1.429 . S
C2217 C2218 1.523 . S
C2218 C2202 1.368 . S
C2218 C2214 1.368 . S
C2218 C2217 1.523 . S
H2219 C2194 0.950 . S
H2220 C2196 0.950 . S
H2221 C2197 0.949 . S
H2222 C2199 0.950 . S
H2223 C2201 0.950 . S
C2224 C2225 1.349 . S
C2224 C2226 1.327 . S
C2224 H2249 0.950 . S
C2225 C2224 1.349 . S
C2225 C2241 1.349 . S
C2226 C2224 1.327 . S
C2226 C2245 1.429 . S
C2226 H2250 0.950 . S
C2227 C2244 1.574 . S
C2227 C2246 1.368 . S
C2227 H2251 0.949 . S
H2228 C2232 0.949 . S
C2229 C2230 1.349 . S
C2229 C2231 1.327 . S
C2229 H2252 0.950 . S
C2230 C2229 1.349 . S
C2230 C2242 1.349 . S
C2231 C2229 1.327 . S
C2231 C2247 1.429 . S
C2231 H2253 0.950 . S
C2232 H2228 0.949 . S
C2232 C2240 1.574 . S
C2232 C2248 1.368 . S
H2233 C2241 0.950 . S
H2234 C2239 0.950 . S
H2235 C2240 0.949 . S
H2236 C2242 0.950 . S
H2237 C2243 0.950 . S
H2238 C2244 0.949 . S
C2239 H2234 0.950 . S
C2239 C2241 1.327 . S
C2239 C2245 1.429 . S
C2240 C2232 1.574 . S
C2240 H2235 0.949 . S
C2240 C2246 1.368 . S
C2241 C2225 1.349 . S
C2241 H2233 0.950 . S
C2241 C2239 1.327 . S
C2242 C2230 1.349 . S
C2242 H2236 0.950 . S
C2242 C2243 1.327 . S
C2243 H2237 0.950 . S
C2243 C2242 1.327 . S
C2243 C2247 1.429 . S
C2244 C2227 1.574 . S
C2244 H2238 0.949 . S
C2244 C2248 1.368 . S
C2245 C2226 1.429 . S
C2245 C2239 1.429 . S
C2245 C2246 1.523 . S
C2246 C2227 1.368 . S
C2246 C2240 1.368 . S
C2246 C2245 1.523 . S
C2247 C2231 1.429 . S
C2247 C2243 1.429 . S
C2247 C2248 1.523 . S
C2248 C2232 1.368 . S
C2248 C2244 1.368 . S
C2248 C2247 1.523 . S
H2249 C2224 0.950 . S
H2250 C2226 0.950 . S
H2251 C2227 0.949 . S
H2252 C2229 0.950 . S
H2253 C2231 0.950 . S
C2254 C2255 1.349 . S
C2254 C2256 1.327 . S
C2254 H2279 0.950 . S
C2255 C2254 1.349 . S
C2255 C2271 1.349 . S
C2256 C2254 1.327 . S
C2256 C2275 1.429 . S
C2256 H2280 0.950 . S
C2257 C2274 1.574 . S
C2257 C2276 1.368 . S
C2257 H2281 0.949 . S
H2258 C2262 0.949 . S
C2259 C2260 1.349 . S
C2259 C2261 1.327 . S
C2259 H2282 0.950 . S
C2260 C2259 1.349 . S
C2260 C2272 1.349 . S
C2261 C2259 1.327 . S
C2261 C2277 1.429 . S
C2261 H2283 0.950 . S
C2262 H2258 0.949 . S
C2262 C2270 1.574 . S
C2262 C2278 1.368 . S
H2263 C2271 0.950 . S
H2264 C2269 0.950 . S
H2265 C2270 0.949 . S
H2266 C2272 0.950 . S
H2267 C2273 0.950 . S
H2268 C2274 0.949 . S
C2269 H2264 0.950 . S
C2269 C2271 1.327 . S
C2269 C2275 1.429 . S
C2270 C2262 1.574 . S
C2270 H2265 0.949 . S
C2270 C2276 1.368 . S
C2271 C2255 1.349 . S
C2271 H2263 0.950 . S
C2271 C2269 1.327 . S
C2272 C2260 1.349 . S
C2272 H2266 0.950 . S
C2272 C2273 1.327 . S
C2273 H2267 0.950 . S
C2273 C2272 1.327 . S
C2273 C2277 1.429 . S
C2274 C2257 1.574 . S
C2274 H2268 0.949 . S
C2274 C2278 1.368 . S
C2275 C2256 1.429 . S
C2275 C2269 1.429 . S
C2275 C2276 1.523 . S
C2276 C2257 1.368 . S
C2276 C2270 1.368 . S
C2276 C2275 1.523 . S
C2277 C2261 1.429 . S
C2277 C2273 1.429 . S
C2277 C2278 1.523 . S
C2278 C2262 1.368 . S
C2278 C2274 1.368 . S
C2278 C2277 1.523 . S
H2279 C2254 0.950 . S
H2280 C2256 0.950 . S
H2281 C2257 0.949 . S
H2282 C2259 0.950 . S
H2283 C2261 0.950 . S
C2284 C2285 1.349 . S
C2284 C2286 1.327 . S
C2284 H2309 0.950 . S
C2285 C2284 1.349 . S
C2285 C2301 1.349 . S
C2286 C2284 1.327 . S
C2286 C2305 1.429 . S
C2286 H2310 0.950 . S
C2287 C2304 1.574 . S
C2287 C2306 1.368 . S
C2287 H2311 0.949 . S
H2288 C2292 0.949 . S
C2289 C2290 1.349 . S
C2289 C2291 1.327 . S
C2289 H2312 0.950 . S
C2290 C2289 1.349 . S
C2290 C2302 1.349 . S
C2291 C2289 1.327 . S
C2291 C2307 1.429 . S
C2291 H2313 0.950 . S
C2292 H2288 0.949 . S
C2292 C2300 1.574 . S
C2292 C2308 1.368 . S
H2293 C2301 0.950 . S
H2294 C2299 0.950 . S
H2295 C2300 0.949 . S
H2296 C2302 0.950 . S
H2297 C2303 0.950 . S
H2298 C2304 0.949 . S
C2299 H2294 0.950 . S
C2299 C2301 1.327 . S
C2299 C2305 1.429 . S
C2300 C2292 1.574 . S
C2300 H2295 0.949 . S
C2300 C2306 1.368 . S
C2301 C2285 1.349 . S
C2301 H2293 0.950 . S
C2301 C2299 1.327 . S
C2302 C2290 1.349 . S
C2302 H2296 0.950 . S
C2302 C2303 1.327 . S
C2303 H2297 0.950 . S
C2303 C2302 1.327 . S
C2303 C2307 1.429 . S
C2304 C2287 1.574 . S
C2304 H2298 0.949 . S
C2304 C2308 1.368 . S
C2305 C2286 1.429 . S
C2305 C2299 1.429 . S
C2305 C2306 1.523 . S
C2306 C2287 1.368 . S
C2306 C2300 1.368 . S
C2306 C2305 1.523 . S
C2307 C2291 1.429 . S
C2307 C2303 1.429 . S
C2307 C2308 1.523 . S
C2308 C2292 1.368 . S
C2308 C2304 1.368 . S
C2308 C2307 1.523 . S
H2309 C2284 0.950 . S
H2310 C2286 0.950 . S
H2311 C2287 0.949 . S
H2312 C2289 0.950 . S
H2313 C2291 0.950 . S
C2314 C2315 1.349 . S
C2314 C2316 1.327 . S
C2314 H2339 0.950 . S
C2315 C2314 1.349 . S
C2315 C2331 1.349 . S
C2316 C2314 1.327 . S
C2316 C2335 1.429 . S
C2316 H2340 0.950 . S
C2317 C2334 1.574 . S
C2317 C2336 1.368 . S
C2317 H2341 0.949 . S
H2318 C2322 0.949 . S
C2319 C2320 1.349 . S
C2319 C2321 1.327 . S
C2319 H2342 0.950 . S
C2320 C2319 1.349 . S
C2320 C2332 1.349 . S
C2321 C2319 1.327 . S
C2321 C2337 1.429 . S
C2321 H2343 0.950 . S
C2322 H2318 0.949 . S
C2322 C2330 1.574 . S
C2322 C2338 1.368 . S
H2323 C2331 0.950 . S
H2324 C2329 0.950 . S
H2325 C2330 0.949 . S
H2326 C2332 0.950 . S
H2327 C2333 0.950 . S
H2328 C2334 0.949 . S
C2329 H2324 0.950 . S
C2329 C2331 1.327 . S
C2329 C2335 1.429 . S
C2330 C2322 1.574 . S
C2330 H2325 0.949 . S
C2330 C2336 1.368 . S
C2331 C2315 1.349 . S
C2331 H2323 0.950 . S
C2331 C2329 1.327 . S
C2332 C2320 1.349 . S
C2332 H2326 0.950 . S
C2332 C2333 1.327 . S
C2333 H2327 0.950 . S
C2333 C2332 1.327 . S
C2333 C2337 1.429 . S
C2334 C2317 1.574 . S
C2334 H2328 0.949 . S
C2334 C2338 1.368 . S
C2335 C2316 1.429 . S
C2335 C2329 1.429 . S
C2335 C2336 1.523 . S
C2336 C2317 1.368 . S
C2336 C2330 1.368 . S
C2336 C2335 1.523 . S
C2337 C2321 1.429 . S
C2337 C2333 1.429 . S
C2337 C2338 1.523 . S
C2338 C2322 1.368 . S
C2338 C2334 1.368 . S
C2338 C2337 1.523 . S
H2339 C2314 0.950 . S
H2340 C2316 0.950 . S
H2341 C2317 0.949 . S
H2342 C2319 0.950 . S
H2343 C2321 0.950 . S
C2344 C2345 1.349 . S
C2344 C2346 1.327 . S
C2344 H2369 0.950 . S
C2345 C2344 1.349 . S
C2345 C2361 1.349 . S
C2346 C2344 1.327 . S
C2346 C2365 1.429 . S
C2346 H2370 0.950 . S
C2347 C2364 1.574 . S
C2347 C2366 1.368 . S
C2347 H2371 0.949 . S
H2348 C2352 0.949 . S
C2349 C2350 1.349 . S
C2349 C2351 1.327 . S
C2349 H2372 0.950 . S
C2350 C2349 1.349 . S
C2350 C2362 1.349 . S
C2351 C2349 1.327 . S
C2351 C2367 1.429 . S
C2351 H2373 0.950 . S
C2352 H2348 0.949 . S
C2352 C2360 1.574 . S
C2352 C2368 1.368 . S
H2353 C2361 0.950 . S
H2354 C2359 0.950 . S
H2355 C2360 0.949 . S
H2356 C2362 0.950 . S
H2357 C2363 0.950 . S
H2358 C2364 0.949 . S
C2359 H2354 0.950 . S
C2359 C2361 1.327 . S
C2359 C2365 1.429 . S
C2360 C2352 1.574 . S
C2360 H2355 0.949 . S
C2360 C2366 1.368 . S
C2361 C2345 1.349 . S
C2361 H2353 0.950 . S
C2361 C2359 1.327 . S
C2362 C2350 1.349 . S
C2362 H2356 0.950 . S
C2362 C2363 1.327 . S
C2363 H2357 0.950 . S
C2363 C2362 1.327 . S
C2363 C2367 1.429 . S
C2364 C2347 1.574 . S
C2364 H2358 0.949 . S
C2364 C2368 1.368 . S
C2365 C2346 1.429 . S
C2365 C2359 1.429 . S
C2365 C2366 1.523 . S
C2366 C2347 1.368 . S
C2366 C2360 1.368 . S
C2366 C2365 1.523 . S
C2367 C2351 1.429 . S
C2367 C2363 1.429 . S
C2367 C2368 1.523 . S
C2368 C2352 1.368 . S
C2368 C2364 1.368 . S
C2368 C2367 1.523 . S
H2369 C2344 0.950 . S
H2370 C2346 0.950 . S
H2371 C2347 0.949 . S
H2372 C2349 0.950 . S
H2373 C2351 0.950 . S
C2374 C2375 1.349 . S
C2374 C2376 1.327 . S
C2374 H2399 0.950 . S
C2375 C2374 1.349 . S
C2375 C2391 1.349 . S
C2376 C2374 1.327 . S
C2376 C2395 1.429 . S
C2376 H2400 0.950 . S
C2377 C2394 1.574 . S
C2377 C2396 1.368 . S
C2377 H2401 0.949 . S
H2378 C2382 0.949 . S
C2379 C2380 1.349 . S
C2379 C2381 1.327 . S
C2379 H2402 0.950 . S
C2380 C2379 1.349 . S
C2380 C2392 1.349 . S
C2381 C2379 1.327 . S
C2381 C2397 1.429 . S
C2381 H2403 0.950 . S
C2382 H2378 0.949 . S
C2382 C2390 1.574 . S
C2382 C2398 1.368 . S
H2383 C2391 0.950 . S
H2384 C2389 0.950 . S
H2385 C2390 0.949 . S
H2386 C2392 0.950 . S
H2387 C2393 0.950 . S
H2388 C2394 0.949 . S
C2389 H2384 0.950 . S
C2389 C2391 1.327 . S
C2389 C2395 1.429 . S
C2390 C2382 1.574 . S
C2390 H2385 0.949 . S
C2390 C2396 1.368 . S
C2391 C2375 1.349 . S
C2391 H2383 0.950 . S
C2391 C2389 1.327 . S
C2392 C2380 1.349 . S
C2392 H2386 0.950 . S
C2392 C2393 1.327 . S
C2393 H2387 0.950 . S
C2393 C2392 1.327 . S
C2393 C2397 1.429 . S
C2394 C2377 1.574 . S
C2394 H2388 0.949 . S
C2394 C2398 1.368 . S
C2395 C2376 1.429 . S
C2395 C2389 1.429 . S
C2395 C2396 1.523 . S
C2396 C2377 1.368 . S
C2396 C2390 1.368 . S
C2396 C2395 1.523 . S
C2397 C2381 1.429 . S
C2397 C2393 1.429 . S
C2397 C2398 1.523 . S
C2398 C2382 1.368 . S
C2398 C2394 1.368 . S
C2398 C2397 1.523 . S
H2399 C2374 0.950 . S
H2400 C2376 0.950 . S
H2401 C2377 0.949 . S
H2402 C2379 0.950 . S
H2403 C2381 0.950 . S
C2404 C2405 1.349 . S
C2404 C2406 1.327 . S
C2404 H2429 0.950 . S
C2405 C2404 1.349 . S
C2405 C2421 1.349 . S
C2406 C2404 1.327 . S
C2406 C2425 1.429 . S
C2406 H2430 0.950 . S
C2407 C2424 1.574 . S
C2407 C2426 1.368 . S
C2407 H2431 0.949 . S
H2408 C2412 0.949 . S
C2409 C2410 1.349 . S
C2409 C2411 1.327 . S
C2409 H2432 0.950 . S
C2410 C2409 1.349 . S
C2410 C2422 1.349 . S
C2411 C2409 1.327 . S
C2411 C2427 1.429 . S
C2411 H2433 0.950 . S
C2412 H2408 0.949 . S
C2412 C2420 1.574 . S
C2412 C2428 1.368 . S
H2413 C2421 0.950 . S
H2414 C2419 0.950 . S
H2415 C2420 0.949 . S
H2416 C2422 0.950 . S
H2417 C2423 0.950 . S
H2418 C2424 0.949 . S
C2419 H2414 0.950 . S
C2419 C2421 1.327 . S
C2419 C2425 1.429 . S
C2420 C2412 1.574 . S
C2420 H2415 0.949 . S
C2420 C2426 1.368 . S
C2421 C2405 1.349 . S
C2421 H2413 0.950 . S
C2421 C2419 1.327 . S
C2422 C2410 1.349 . S
C2422 H2416 0.950 . S
C2422 C2423 1.327 . S
C2423 H2417 0.950 . S
C2423 C2422 1.327 . S
C2423 C2427 1.429 . S
C2424 C2407 1.574 . S
C2424 H2418 0.949 . S
C2424 C2428 1.368 . S
C2425 C2406 1.429 . S
C2425 C2419 1.429 . S
C2425 C2426 1.523 . S
C2426 C2407 1.368 . S
C2426 C2420 1.368 . S
C2426 C2425 1.523 . S
C2427 C2411 1.429 . S
C2427 C2423 1.429 . S
C2427 C2428 1.523 . S
C2428 C2412 1.368 . S
C2428 C2424 1.368 . S
C2428 C2427 1.523 . S
H2429 C2404 0.950 . S
H2430 C2406 0.950 . S
H2431 C2407 0.949 . S
H2432 C2409 0.950 . S
H2433 C2411 0.950 . S
C2434 C2435 1.349 . S
C2434 C2436 1.327 . S
C2434 H2459 0.950 . S
C2435 C2434 1.349 . S
C2435 C2451 1.349 . S
C2436 C2434 1.327 . S
C2436 C2455 1.429 . S
C2436 H2460 0.950 . S
C2437 C2454 1.574 . S
C2437 C2456 1.368 . S
C2437 H2461 0.949 . S
H2438 C2442 0.949 . S
C2439 C2440 1.349 . S
C2439 C2441 1.327 . S
C2439 H2462 0.950 . S
C2440 C2439 1.349 . S
C2440 C2452 1.349 . S
C2441 C2439 1.327 . S
C2441 C2457 1.429 . S
C2441 H2463 0.950 . S
C2442 H2438 0.949 . S
C2442 C2450 1.574 . S
C2442 C2458 1.368 . S
H2443 C2451 0.950 . S
H2444 C2449 0.950 . S
H2445 C2450 0.949 . S
H2446 C2452 0.950 . S
H2447 C2453 0.950 . S
H2448 C2454 0.949 . S
C2449 H2444 0.950 . S
C2449 C2451 1.327 . S
C2449 C2455 1.429 . S
C2450 C2442 1.574 . S
C2450 H2445 0.949 . S
C2450 C2456 1.368 . S
C2451 C2435 1.349 . S
C2451 H2443 0.950 . S
C2451 C2449 1.327 . S
C2452 C2440 1.349 . S
C2452 H2446 0.950 . S
C2452 C2453 1.327 . S
C2453 H2447 0.950 . S
C2453 C2452 1.327 . S
C2453 C2457 1.429 . S
C2454 C2437 1.574 . S
C2454 H2448 0.949 . S
C2454 C2458 1.368 . S
C2455 C2436 1.429 . S
C2455 C2449 1.429 . S
C2455 C2456 1.523 . S
C2456 C2437 1.368 . S
C2456 C2450 1.368 . S
C2456 C2455 1.523 . S
C2457 C2441 1.429 . S
C2457 C2453 1.429 . S
C2457 C2458 1.523 . S
C2458 C2442 1.368 . S
C2458 C2454 1.368 . S
C2458 C2457 1.523 . S
H2459 C2434 0.950 . S
H2460 C2436 0.950 . S
H2461 C2437 0.949 . S
H2462 C2439 0.950 . S
H2463 C2441 0.950 . S
C2464 C2465 1.349 . S
C2464 C2466 1.327 . S
C2464 H2489 0.950 . S
C2465 C2464 1.349 . S
C2465 C2481 1.349 . S
C2466 C2464 1.327 . S
C2466 C2485 1.429 . S
C2466 H2490 0.950 . S
C2467 C2484 1.574 . S
C2467 C2486 1.368 . S
C2467 H2491 0.949 . S
H2468 C2472 0.949 . S
C2469 C2470 1.349 . S
C2469 C2471 1.327 . S
C2469 H2492 0.950 . S
C2470 C2469 1.349 . S
C2470 C2482 1.349 . S
C2471 C2469 1.327 . S
C2471 C2487 1.429 . S
C2471 H2493 0.950 . S
C2472 H2468 0.949 . S
C2472 C2480 1.574 . S
C2472 C2488 1.368 . S
H2473 C2481 0.950 . S
H2474 C2479 0.950 . S
H2475 C2480 0.949 . S
H2476 C2482 0.950 . S
H2477 C2483 0.950 . S
H2478 C2484 0.949 . S
C2479 H2474 0.950 . S
C2479 C2481 1.327 . S
C2479 C2485 1.429 . S
C2480 C2472 1.574 . S
C2480 H2475 0.949 . S
C2480 C2486 1.368 . S
C2481 C2465 1.349 . S
C2481 H2473 0.950 . S
C2481 C2479 1.327 . S
C2482 C2470 1.349 . S
C2482 H2476 0.950 . S
C2482 C2483 1.327 . S
C2483 H2477 0.950 . S
C2483 C2482 1.327 . S
C2483 C2487 1.429 . S
C2484 C2467 1.574 . S
C2484 H2478 0.949 . S
C2484 C2488 1.368 . S
C2485 C2466 1.429 . S
C2485 C2479 1.429 . S
C2485 C2486 1.523 . S
C2486 C2467 1.368 . S
C2486 C2480 1.368 . S
C2486 C2485 1.523 . S
C2487 C2471 1.429 . S
C2487 C2483 1.429 . S
C2487 C2488 1.523 . S
C2488 C2472 1.368 . S
C2488 C2484 1.368 . S
C2488 C2487 1.523 . S
H2489 C2464 0.950 . S
H2490 C2466 0.950 . S
H2491 C2467 0.949 . S
H2492 C2469 0.950 . S
H2493 C2471 0.950 . S
C2494 C2495 1.349 . S
C2494 C2496 1.327 . S
C2494 H2519 0.950 . S
C2495 C2494 1.349 . S
C2495 C2511 1.349 . S
C2496 C2494 1.327 . S
C2496 C2515 1.429 . S
C2496 H2520 0.950 . S
C2497 C2514 1.574 . S
C2497 C2516 1.368 . S
C2497 H2521 0.949 . S
H2498 C2502 0.949 . S
C2499 C2500 1.349 . S
C2499 C2501 1.327 . S
C2499 H2522 0.950 . S
C2500 C2499 1.349 . S
C2500 C2512 1.349 . S
C2501 C2499 1.327 . S
C2501 C2517 1.429 . S
C2501 H2523 0.950 . S
C2502 H2498 0.949 . S
C2502 C2510 1.574 . S
C2502 C2518 1.368 . S
H2503 C2511 0.950 . S
H2504 C2509 0.950 . S
H2505 C2510 0.949 . S
H2506 C2512 0.950 . S
H2507 C2513 0.950 . S
H2508 C2514 0.949 . S
C2509 H2504 0.950 . S
C2509 C2511 1.327 . S
C2509 C2515 1.429 . S
C2510 C2502 1.574 . S
C2510 H2505 0.949 . S
C2510 C2516 1.368 . S
C2511 C2495 1.349 . S
C2511 H2503 0.950 . S
C2511 C2509 1.327 . S
C2512 C2500 1.349 . S
C2512 H2506 0.950 . S
C2512 C2513 1.327 . S
C2513 H2507 0.950 . S
C2513 C2512 1.327 . S
C2513 C2517 1.429 . S
C2514 C2497 1.574 . S
C2514 H2508 0.949 . S
C2514 C2518 1.368 . S
C2515 C2496 1.429 . S
C2515 C2509 1.429 . S
C2515 C2516 1.523 . S
C2516 C2497 1.368 . S
C2516 C2510 1.368 . S
C2516 C2515 1.523 . S
C2517 C2501 1.429 . S
C2517 C2513 1.429 . S
C2517 C2518 1.523 . S
C2518 C2502 1.368 . S
C2518 C2514 1.368 . S
C2518 C2517 1.523 . S
H2519 C2494 0.950 . S
H2520 C2496 0.950 . S
H2521 C2497 0.949 . S
H2522 C2499 0.950 . S
H2523 C2501 0.950 . S
C2524 C2525 1.349 . S
C2524 C2526 1.327 . S
C2524 H2549 0.950 . S
C2525 C2524 1.349 . S
C2525 C2541 1.349 . S
C2526 C2524 1.327 . S
C2526 C2545 1.429 . S
C2526 H2550 0.950 . S
C2527 C2544 1.574 . S
C2527 C2546 1.368 . S
C2527 H2551 0.949 . S
H2528 C2532 0.949 . S
C2529 C2530 1.349 . S
C2529 C2531 1.327 . S
C2529 H2552 0.950 . S
C2530 C2529 1.349 . S
C2530 C2542 1.349 . S
C2531 C2529 1.327 . S
C2531 C2547 1.429 . S
C2531 H2553 0.950 . S
C2532 H2528 0.949 . S
C2532 C2540 1.574 . S
C2532 C2548 1.368 . S
H2533 C2541 0.950 . S
H2534 C2539 0.950 . S
H2535 C2540 0.949 . S
H2536 C2542 0.950 . S
H2537 C2543 0.950 . S
H2538 C2544 0.949 . S
C2539 H2534 0.950 . S
C2539 C2541 1.327 . S
C2539 C2545 1.429 . S
C2540 C2532 1.574 . S
C2540 H2535 0.949 . S
C2540 C2546 1.368 . S
C2541 C2525 1.349 . S
C2541 H2533 0.950 . S
C2541 C2539 1.327 . S
C2542 C2530 1.349 . S
C2542 H2536 0.950 . S
C2542 C2543 1.327 . S
C2543 H2537 0.950 . S
C2543 C2542 1.327 . S
C2543 C2547 1.429 . S
C2544 C2527 1.574 . S
C2544 H2538 0.949 . S
C2544 C2548 1.368 . S
C2545 C2526 1.429 . S
C2545 C2539 1.429 . S
C2545 C2546 1.523 . S
C2546 C2527 1.368 . S
C2546 C2540 1.368 . S
C2546 C2545 1.523 . S
C2547 C2531 1.429 . S
C2547 C2543 1.429 . S
C2547 C2548 1.523 . S
C2548 C2532 1.368 . S
C2548 C2544 1.368 . S
C2548 C2547 1.523 . S
H2549 C2524 0.950 . S
H2550 C2526 0.950 . S
H2551 C2527 0.949 . S
H2552 C2529 0.950 . S
H2553 C2531 0.950 . S
C2554 C2555 1.349 . S
C2554 C2556 1.327 . S
C2554 H2579 0.950 . S
C2555 C2554 1.349 . S
C2555 C2571 1.349 . S
C2556 C2554 1.327 . S
C2556 C2575 1.429 . S
C2556 H2580 0.950 . S
C2557 C2574 1.574 . S
C2557 C2576 1.368 . S
C2557 H2581 0.949 . S
H2558 C2562 0.949 . S
C2559 C2560 1.349 . S
C2559 C2561 1.327 . S
C2559 H2582 0.950 . S
C2560 C2559 1.349 . S
C2560 C2572 1.349 . S
C2561 C2559 1.327 . S
C2561 C2577 1.429 . S
C2561 H2583 0.950 . S
C2562 H2558 0.949 . S
C2562 C2570 1.574 . S
C2562 C2578 1.368 . S
H2563 C2571 0.950 . S
H2564 C2569 0.950 . S
H2565 C2570 0.949 . S
H2566 C2572 0.950 . S
H2567 C2573 0.950 . S
H2568 C2574 0.949 . S
C2569 H2564 0.950 . S
C2569 C2571 1.327 . S
C2569 C2575 1.429 . S
C2570 C2562 1.574 . S
C2570 H2565 0.949 . S
C2570 C2576 1.368 . S
C2571 C2555 1.349 . S
C2571 H2563 0.950 . S
C2571 C2569 1.327 . S
C2572 C2560 1.349 . S
C2572 H2566 0.950 . S
C2572 C2573 1.327 . S
C2573 H2567 0.950 . S
C2573 C2572 1.327 . S
C2573 C2577 1.429 . S
C2574 C2557 1.574 . S
C2574 H2568 0.949 . S
C2574 C2578 1.368 . S
C2575 C2556 1.429 . S
C2575 C2569 1.429 . S
C2575 C2576 1.523 . S
C2576 C2557 1.368 . S
C2576 C2570 1.368 . S
C2576 C2575 1.523 . S
C2577 C2561 1.429 . S
C2577 C2573 1.429 . S
C2577 C2578 1.523 . S
C2578 C2562 1.368 . S
C2578 C2574 1.368 . S
C2578 C2577 1.523 . S
H2579 C2554 0.950 . S
H2580 C2556 0.950 . S
H2581 C2557 0.949 . S
H2582 C2559 0.950 . S
H2583 C2561 0.950 . S
C2584 C2585 1.349 . S
C2584 C2586 1.327 . S
C2584 H2609 0.950 . S
C2585 C2584 1.349 . S
C2585 C2601 1.349 . S
C2586 C2584 1.327 . S
C2586 C2605 1.429 . S
C2586 H2610 0.950 . S
C2587 C2604 1.574 . S
C2587 C2606 1.368 . S
C2587 H2611 0.949 . S
H2588 C2592 0.949 . S
C2589 C2590 1.349 . S
C2589 C2591 1.327 . S
C2589 H2612 0.950 . S
C2590 C2589 1.349 . S
C2590 C2602 1.349 . S
C2591 C2589 1.327 . S
C2591 C2607 1.429 . S
C2591 H2613 0.950 . S
C2592 H2588 0.949 . S
C2592 C2600 1.574 . S
C2592 C2608 1.368 . S
H2593 C2601 0.950 . S
H2594 C2599 0.950 . S
H2595 C2600 0.949 . S
H2596 C2602 0.950 . S
H2597 C2603 0.950 . S
H2598 C2604 0.949 . S
C2599 H2594 0.950 . S
C2599 C2601 1.327 . S
C2599 C2605 1.429 . S
C2600 C2592 1.574 . S
C2600 H2595 0.949 . S
C2600 C2606 1.368 . S
C2601 C2585 1.349 . S
C2601 H2593 0.950 . S
C2601 C2599 1.327 . S
C2602 C2590 1.349 . S
C2602 H2596 0.950 . S
C2602 C2603 1.327 . S
C2603 H2597 0.950 . S
C2603 C2602 1.327 . S
C2603 C2607 1.429 . S
C2604 C2587 1.574 . S
C2604 H2598 0.949 . S
C2604 C2608 1.368 . S
C2605 C2586 1.429 . S
C2605 C2599 1.429 . S
C2605 C2606 1.523 . S
C2606 C2587 1.368 . S
C2606 C2600 1.368 . S
C2606 C2605 1.523 . S
C2607 C2591 1.429 . S
C2607 C2603 1.429 . S
C2607 C2608 1.523 . S
C2608 C2592 1.368 . S
C2608 C2604 1.368 . S
C2608 C2607 1.523 . S
H2609 C2584 0.950 . S
H2610 C2586 0.950 . S
H2611 C2587 0.949 . S
H2612 C2589 0.950 . S
H2613 C2591 0.950 . S
C2614 C2615 1.349 . S
C2614 C2616 1.327 . S
C2614 H2639 0.950 . S
C2615 C2614 1.349 . S
C2615 C2631 1.349 . S
C2616 C2614 1.327 . S
C2616 C2635 1.429 . S
C2616 H2640 0.950 . S
C2617 C2634 1.574 . S
C2617 C2636 1.368 . S
C2617 H2641 0.949 . S
H2618 C2622 0.949 . S
C2619 C2620 1.349 . S
C2619 C2621 1.327 . S
C2619 H2642 0.950 . S
C2620 C2619 1.349 . S
C2620 C2632 1.349 . S
C2621 C2619 1.327 . S
C2621 C2637 1.429 . S
C2621 H2643 0.950 . S
C2622 H2618 0.949 . S
C2622 C2630 1.574 . S
C2622 C2638 1.368 . S
H2623 C2631 0.950 . S
H2624 C2629 0.950 . S
H2625 C2630 0.949 . S
H2626 C2632 0.950 . S
H2627 C2633 0.950 . S
H2628 C2634 0.949 . S
C2629 H2624 0.950 . S
C2629 C2631 1.327 . S
C2629 C2635 1.429 . S
C2630 C2622 1.574 . S
C2630 H2625 0.949 . S
C2630 C2636 1.368 . S
C2631 C2615 1.349 . S
C2631 H2623 0.950 . S
C2631 C2629 1.327 . S
C2632 C2620 1.349 . S
C2632 H2626 0.950 . S
C2632 C2633 1.327 . S
C2633 H2627 0.950 . S
C2633 C2632 1.327 . S
C2633 C2637 1.429 . S
C2634 C2617 1.574 . S
C2634 H2628 0.949 . S
C2634 C2638 1.368 . S
C2635 C2616 1.429 . S
C2635 C2629 1.429 . S
C2635 C2636 1.523 . S
C2636 C2617 1.368 . S
C2636 C2630 1.368 . S
C2636 C2635 1.523 . S
C2637 C2621 1.429 . S
C2637 C2633 1.429 . S
C2637 C2638 1.523 . S
C2638 C2622 1.368 . S
C2638 C2634 1.368 . S
C2638 C2637 1.523 . S
H2639 C2614 0.950 . S
H2640 C2616 0.950 . S
H2641 C2617 0.949 . S
H2642 C2619 0.950 . S
H2643 C2621 0.950 . S
C2644 C2645 1.349 . S
C2644 C2646 1.327 . S
C2644 H2669 0.950 . S
C2645 C2644 1.349 . S
C2645 C2661 1.349 . S
C2646 C2644 1.327 . S
C2646 C2665 1.429 . S
C2646 H2670 0.950 . S
C2647 C2664 1.574 . S
C2647 C2666 1.368 . S
C2647 H2671 0.949 . S
H2648 C2652 0.949 . S
C2649 C2650 1.349 . S
C2649 C2651 1.327 . S
C2649 H2672 0.950 . S
C2650 C2649 1.349 . S
C2650 C2662 1.349 . S
C2651 C2649 1.327 . S
C2651 C2667 1.429 . S
C2651 H2673 0.950 . S
C2652 H2648 0.949 . S
C2652 C2660 1.574 . S
C2652 C2668 1.368 . S
H2653 C2661 0.950 . S
H2654 C2659 0.950 . S
H2655 C2660 0.949 . S
H2656 C2662 0.950 . S
H2657 C2663 0.950 . S
H2658 C2664 0.949 . S
C2659 H2654 0.950 . S
C2659 C2661 1.327 . S
C2659 C2665 1.429 . S
C2660 C2652 1.574 . S
C2660 H2655 0.949 . S
C2660 C2666 1.368 . S
C2661 C2645 1.349 . S
C2661 H2653 0.950 . S
C2661 C2659 1.327 . S
C2662 C2650 1.349 . S
C2662 H2656 0.950 . S
C2662 C2663 1.327 . S
C2663 H2657 0.950 . S
C2663 C2662 1.327 . S
C2663 C2667 1.429 . S
C2664 C2647 1.574 . S
C2664 H2658 0.949 . S
C2664 C2668 1.368 . S
C2665 C2646 1.429 . S
C2665 C2659 1.429 . S
C2665 C2666 1.523 . S
C2666 C2647 1.368 . S
C2666 C2660 1.368 . S
C2666 C2665 1.523 . S
C2667 C2651 1.429 . S
C2667 C2663 1.429 . S
C2667 C2668 1.523 . S
C2668 C2652 1.368 . S
C2668 C2664 1.368 . S
C2668 C2667 1.523 . S
H2669 C2644 0.950 . S
H2670 C2646 0.950 . S
H2671 C2647 0.949 . S
H2672 C2649 0.950 . S
H2673 C2651 0.950 . S
C2674 C2675 1.349 . S
C2674 C2676 1.327 . S
C2674 H2699 0.950 . S
C2675 C2674 1.349 . S
C2675 C2691 1.349 . S
C2676 C2674 1.327 . S
C2676 C2695 1.429 . S
C2676 H2700 0.950 . S
C2677 C2694 1.574 . S
C2677 C2696 1.368 . S
C2677 H2701 0.949 . S
H2678 C2682 0.949 . S
C2679 C2680 1.349 . S
C2679 C2681 1.327 . S
C2679 H2702 0.950 . S
C2680 C2679 1.349 . S
C2680 C2692 1.349 . S
C2681 C2679 1.327 . S
C2681 C2697 1.429 . S
C2681 H2703 0.950 . S
C2682 H2678 0.949 . S
C2682 C2690 1.574 . S
C2682 C2698 1.368 . S
H2683 C2691 0.950 . S
H2684 C2689 0.950 . S
H2685 C2690 0.949 . S
H2686 C2692 0.950 . S
H2687 C2693 0.950 . S
H2688 C2694 0.949 . S
C2689 H2684 0.950 . S
C2689 C2691 1.327 . S
C2689 C2695 1.429 . S
C2690 C2682 1.574 . S
C2690 H2685 0.949 . S
C2690 C2696 1.368 . S
C2691 C2675 1.349 . S
C2691 H2683 0.950 . S
C2691 C2689 1.327 . S
C2692 C2680 1.349 . S
C2692 H2686 0.950 . S
C2692 C2693 1.327 . S
C2693 H2687 0.950 . S
C2693 C2692 1.327 . S
C2693 C2697 1.429 . S
C2694 C2677 1.574 . S
C2694 H2688 0.949 . S
C2694 C2698 1.368 . S
C2695 C2676 1.429 . S
C2695 C2689 1.429 . S
C2695 C2696 1.523 . S
C2696 C2677 1.368 . S
C2696 C2690 1.368 . S
C2696 C2695 1.523 . S
C2697 C2681 1.429 . S
C2697 C2693 1.429 . S
C2697 C2698 1.523 . S
C2698 C2682 1.368 . S
C2698 C2694 1.368 . S
C2698 C2697 1.523 . S
H2699 C2674 0.950 . S
H2700 C2676 0.950 . S
H2701 C2677 0.949 . S
H2702 C2679 0.950 . S
H2703 C2681 0.950 . S
C2704 C2705 1.349 . S
C2704 C2706 1.327 . S
C2704 H2729 0.950 . S
C2705 C2704 1.349 . S
C2705 C2721 1.349 . S
C2706 C2704 1.327 . S
C2706 C2725 1.429 . S
C2706 H2730 0.950 . S
C2707 C2724 1.574 . S
C2707 C2726 1.368 . S
C2707 H2731 0.949 . S
H2708 C2712 0.949 . S
C2709 C2710 1.349 . S
C2709 C2711 1.327 . S
C2709 H2732 0.950 . S
C2710 C2709 1.349 . S
C2710 C2722 1.349 . S
C2711 C2709 1.327 . S
C2711 C2727 1.429 . S
C2711 H2733 0.950 . S
C2712 H2708 0.949 . S
C2712 C2720 1.574 . S
C2712 C2728 1.368 . S
H2713 C2721 0.950 . S
H2714 C2719 0.950 . S
H2715 C2720 0.949 . S
H2716 C2722 0.950 . S
H2717 C2723 0.950 . S
H2718 C2724 0.949 . S
C2719 H2714 0.950 . S
C2719 C2721 1.327 . S
C2719 C2725 1.429 . S
C2720 C2712 1.574 . S
C2720 H2715 0.949 . S
C2720 C2726 1.368 . S
C2721 C2705 1.349 . S
C2721 H2713 0.950 . S
C2721 C2719 1.327 . S
C2722 C2710 1.349 . S
C2722 H2716 0.950 . S
C2722 C2723 1.327 . S
C2723 H2717 0.950 . S
C2723 C2722 1.327 . S
C2723 C2727 1.429 . S
C2724 C2707 1.574 . S
C2724 H2718 0.949 . S
C2724 C2728 1.368 . S
C2725 C2706 1.429 . S
C2725 C2719 1.429 . S
C2725 C2726 1.523 . S
C2726 C2707 1.368 . S
C2726 C2720 1.368 . S
C2726 C2725 1.523 . S
C2727 C2711 1.429 . S
C2727 C2723 1.429 . S
C2727 C2728 1.523 . S
C2728 C2712 1.368 . S
C2728 C2724 1.368 . S
C2728 C2727 1.523 . S
H2729 C2704 0.950 . S
H2730 C2706 0.950 . S
H2731 C2707 0.949 . S
H2732 C2709 0.950 . S
H2733 C2711 0.950 . S
C2734 C2735 1.349 . S
C2734 C2736 1.327 . S
C2734 H2759 0.950 . S
C2735 C2734 1.349 . S
C2735 C2751 1.349 . S
C2736 C2734 1.327 . S
C2736 C2755 1.429 . S
C2736 H2760 0.950 . S
C2737 C2754 1.574 . S
C2737 C2756 1.368 . S
C2737 H2761 0.949 . S
H2738 C2742 0.949 . S
C2739 C2740 1.349 . S
C2739 C2741 1.327 . S
C2739 H2762 0.950 . S
C2740 C2739 1.349 . S
C2740 C2752 1.349 . S
C2741 C2739 1.327 . S
C2741 C2757 1.429 . S
C2741 H2763 0.950 . S
C2742 H2738 0.949 . S
C2742 C2750 1.574 . S
C2742 C2758 1.368 . S
H2743 C2751 0.950 . S
H2744 C2749 0.950 . S
H2745 C2750 0.949 . S
H2746 C2752 0.950 . S
H2747 C2753 0.950 . S
H2748 C2754 0.949 . S
C2749 H2744 0.950 . S
C2749 C2751 1.327 . S
C2749 C2755 1.429 . S
C2750 C2742 1.574 . S
C2750 H2745 0.949 . S
C2750 C2756 1.368 . S
C2751 C2735 1.349 . S
C2751 H2743 0.950 . S
C2751 C2749 1.327 . S
C2752 C2740 1.349 . S
C2752 H2746 0.950 . S
C2752 C2753 1.327 . S
C2753 H2747 0.950 . S
C2753 C2752 1.327 . S
C2753 C2757 1.429 . S
C2754 C2737 1.574 . S
C2754 H2748 0.949 . S
C2754 C2758 1.368 . S
C2755 C2736 1.429 . S
C2755 C2749 1.429 . S
C2755 C2756 1.523 . S
C2756 C2737 1.368 . S
C2756 C2750 1.368 . S
C2756 C2755 1.523 . S
C2757 C2741 1.429 . S
C2757 C2753 1.429 . S
C2757 C2758 1.523 . S
C2758 C2742 1.368 . S
C2758 C2754 1.368 . S
C2758 C2757 1.523 . S
H2759 C2734 0.950 . S
H2760 C2736 0.950 . S
H2761 C2737 0.949 . S
H2762 C2739 0.950 . S
H2763 C2741 0.950 . S
C2764 C2765 1.349 . S
C2764 C2766 1.327 . S
C2764 H2789 0.950 . S
C2765 C2764 1.349 . S
C2765 C2781 1.349 . S
C2766 C2764 1.327 . S
C2766 C2785 1.429 . S
C2766 H2790 0.950 . S
C2767 C2784 1.574 . S
C2767 C2786 1.368 . S
C2767 H2791 0.949 . S
H2768 C2772 0.949 . S
C2769 C2770 1.349 . S
C2769 C2771 1.327 . S
C2769 H2792 0.950 . S
C2770 C2769 1.349 . S
C2770 C2782 1.349 . S
C2771 C2769 1.327 . S
C2771 C2787 1.429 . S
C2771 H2793 0.950 . S
C2772 H2768 0.949 . S
C2772 C2780 1.574 . S
C2772 C2788 1.368 . S
H2773 C2781 0.950 . S
H2774 C2779 0.950 . S
H2775 C2780 0.949 . S
H2776 C2782 0.950 . S
H2777 C2783 0.950 . S
H2778 C2784 0.949 . S
C2779 H2774 0.950 . S
C2779 C2781 1.327 . S
C2779 C2785 1.429 . S
C2780 C2772 1.574 . S
C2780 H2775 0.949 . S
C2780 C2786 1.368 . S
C2781 C2765 1.349 . S
C2781 H2773 0.950 . S
C2781 C2779 1.327 . S
C2782 C2770 1.349 . S
C2782 H2776 0.950 . S
C2782 C2783 1.327 . S
C2783 H2777 0.950 . S
C2783 C2782 1.327 . S
C2783 C2787 1.429 . S
C2784 C2767 1.574 . S
C2784 H2778 0.949 . S
C2784 C2788 1.368 . S
C2785 C2766 1.429 . S
C2785 C2779 1.429 . S
C2785 C2786 1.523 . S
C2786 C2767 1.368 . S
C2786 C2780 1.368 . S
C2786 C2785 1.523 . S
C2787 C2771 1.429 . S
C2787 C2783 1.429 . S
C2787 C2788 1.523 . S
C2788 C2772 1.368 . S
C2788 C2784 1.368 . S
C2788 C2787 1.523 . S
H2789 C2764 0.950 . S
H2790 C2766 0.950 . S
H2791 C2767 0.949 . S
H2792 C2769 0.950 . S
H2793 C2771 0.950 . S
C2794 C2795 1.349 . S
C2794 C2796 1.327 . S
C2794 H2819 0.950 . S
C2795 C2794 1.349 . S
C2795 C2811 1.349 . S
C2796 C2794 1.327 . S
C2796 C2815 1.429 . S
C2796 H2820 0.950 . S
C2797 C2814 1.574 . S
C2797 C2816 1.368 . S
C2797 H2821 0.949 . S
H2798 C2802 0.949 . S
C2799 C2800 1.349 . S
C2799 C2801 1.327 . S
C2799 H2822 0.950 . S
C2800 C2799 1.349 . S
C2800 C2812 1.349 . S
C2801 C2799 1.327 . S
C2801 C2817 1.429 . S
C2801 H2823 0.950 . S
C2802 H2798 0.949 . S
C2802 C2810 1.574 . S
C2802 C2818 1.368 . S
H2803 C2811 0.950 . S
H2804 C2809 0.950 . S
H2805 C2810 0.949 . S
H2806 C2812 0.950 . S
H2807 C2813 0.950 . S
H2808 C2814 0.949 . S
C2809 H2804 0.950 . S
C2809 C2811 1.327 . S
C2809 C2815 1.429 . S
C2810 C2802 1.574 . S
C2810 H2805 0.949 . S
C2810 C2816 1.368 . S
C2811 C2795 1.349 . S
C2811 H2803 0.950 . S
C2811 C2809 1.327 . S
C2812 C2800 1.349 . S
C2812 H2806 0.950 . S
C2812 C2813 1.327 . S
C2813 H2807 0.950 . S
C2813 C2812 1.327 . S
C2813 C2817 1.429 . S
C2814 C2797 1.574 . S
C2814 H2808 0.949 . S
C2814 C2818 1.368 . S
C2815 C2796 1.429 . S
C2815 C2809 1.429 . S
C2815 C2816 1.523 . S
C2816 C2797 1.368 . S
C2816 C2810 1.368 . S
C2816 C2815 1.523 . S
C2817 C2801 1.429 . S
C2817 C2813 1.429 . S
C2817 C2818 1.523 . S
C2818 C2802 1.368 . S
C2818 C2814 1.368 . S
C2818 C2817 1.523 . S
H2819 C2794 0.950 . S
H2820 C2796 0.950 . S
H2821 C2797 0.949 . S
H2822 C2799 0.950 . S
H2823 C2801 0.950 . S
C2824 C2825 1.349 . S
C2824 C2826 1.327 . S
C2824 H2849 0.950 . S
C2825 C2824 1.349 . S
C2825 C2841 1.349 . S
C2826 C2824 1.327 . S
C2826 C2845 1.429 . S
C2826 H2850 0.950 . S
C2827 C2844 1.574 . S
C2827 C2846 1.368 . S
C2827 H2851 0.949 . S
H2828 C2832 0.949 . S
C2829 C2830 1.349 . S
C2829 C2831 1.327 . S
C2829 H2852 0.950 . S
C2830 C2829 1.349 . S
C2830 C2842 1.349 . S
C2831 C2829 1.327 . S
C2831 C2847 1.429 . S
C2831 H2853 0.950 . S
C2832 H2828 0.949 . S
C2832 C2840 1.574 . S
C2832 C2848 1.368 . S
H2833 C2841 0.950 . S
H2834 C2839 0.950 . S
H2835 C2840 0.949 . S
H2836 C2842 0.950 . S
H2837 C2843 0.950 . S
H2838 C2844 0.949 . S
C2839 H2834 0.950 . S
C2839 C2841 1.327 . S
C2839 C2845 1.429 . S
C2840 C2832 1.574 . S
C2840 H2835 0.949 . S
C2840 C2846 1.368 . S
C2841 C2825 1.349 . S
C2841 H2833 0.950 . S
C2841 C2839 1.327 . S
C2842 C2830 1.349 . S
C2842 H2836 0.950 . S
C2842 C2843 1.327 . S
C2843 H2837 0.950 . S
C2843 C2842 1.327 . S
C2843 C2847 1.429 . S
C2844 C2827 1.574 . S
C2844 H2838 0.949 . S
C2844 C2848 1.368 . S
C2845 C2826 1.429 . S
C2845 C2839 1.429 . S
C2845 C2846 1.523 . S
C2846 C2827 1.368 . S
C2846 C2840 1.368 . S
C2846 C2845 1.523 . S
C2847 C2831 1.429 . S
C2847 C2843 1.429 . S
C2847 C2848 1.523 . S
C2848 C2832 1.368 . S
C2848 C2844 1.368 . S
C2848 C2847 1.523 . S
H2849 C2824 0.950 . S
H2850 C2826 0.950 . S
H2851 C2827 0.949 . S
H2852 C2829 0.950 . S
H2853 C2831 0.950 . S
C2854 C2855 1.349 . S
C2854 C2856 1.327 . S
C2854 H2879 0.950 . S
C2855 C2854 1.349 . S
C2855 C2871 1.349 . S
C2856 C2854 1.327 . S
C2856 C2875 1.429 . S
C2856 H2880 0.950 . S
C2857 C2874 1.574 . S
C2857 C2876 1.368 . S
C2857 H2881 0.949 . S
H2858 C2862 0.949 . S
C2859 C2860 1.349 . S
C2859 C2861 1.327 . S
C2859 H2882 0.950 . S
C2860 C2859 1.349 . S
C2860 C2872 1.349 . S
C2861 C2859 1.327 . S
C2861 C2877 1.429 . S
C2861 H2883 0.950 . S
C2862 H2858 0.949 . S
C2862 C2870 1.574 . S
C2862 C2878 1.368 . S
H2863 C2871 0.950 . S
H2864 C2869 0.950 . S
H2865 C2870 0.949 . S
H2866 C2872 0.950 . S
H2867 C2873 0.950 . S
H2868 C2874 0.949 . S
C2869 H2864 0.950 . S
C2869 C2871 1.327 . S
C2869 C2875 1.429 . S
C2870 C2862 1.574 . S
C2870 H2865 0.949 . S
C2870 C2876 1.368 . S
C2871 C2855 1.349 . S
C2871 H2863 0.950 . S
C2871 C2869 1.327 . S
C2872 C2860 1.349 . S
C2872 H2866 0.950 . S
C2872 C2873 1.327 . S
C2873 H2867 0.950 . S
C2873 C2872 1.327 . S
C2873 C2877 1.429 . S
C2874 C2857 1.574 . S
C2874 H2868 0.949 . S
C2874 C2878 1.368 . S
C2875 C2856 1.429 . S
C2875 C2869 1.429 . S
C2875 C2876 1.523 . S
C2876 C2857 1.368 . S
C2876 C2870 1.368 . S
C2876 C2875 1.523 . S
C2877 C2861 1.429 . S
C2877 C2873 1.429 . S
C2877 C2878 1.523 . S
C2878 C2862 1.368 . S
C2878 C2874 1.368 . S
C2878 C2877 1.523 . S
H2879 C2854 0.950 . S
H2880 C2856 0.950 . S
H2881 C2857 0.949 . S
H2882 C2859 0.950 . S
H2883 C2861 0.950 . S
C2884 C2885 1.349 . S
C2884 C2886 1.327 . S
C2884 H2909 0.950 . S
C2885 C2884 1.349 . S
C2885 C2901 1.349 . S
C2886 C2884 1.327 . S
C2886 C2905 1.429 . S
C2886 H2910 0.950 . S
C2887 C2904 1.574 . S
C2887 C2906 1.368 . S
C2887 H2911 0.949 . S
H2888 C2892 0.949 . S
C2889 C2890 1.349 . S
C2889 C2891 1.327 . S
C2889 H2912 0.950 . S
C2890 C2889 1.349 . S
C2890 C2902 1.349 . S
C2891 C2889 1.327 . S
C2891 C2907 1.429 . S
C2891 H2913 0.950 . S
C2892 H2888 0.949 . S
C2892 C2900 1.574 . S
C2892 C2908 1.368 . S
H2893 C2901 0.950 . S
H2894 C2899 0.950 . S
H2895 C2900 0.949 . S
H2896 C2902 0.950 . S
H2897 C2903 0.950 . S
H2898 C2904 0.949 . S
C2899 H2894 0.950 . S
C2899 C2901 1.327 . S
C2899 C2905 1.429 . S
C2900 C2892 1.574 . S
C2900 H2895 0.949 . S
C2900 C2906 1.368 . S
C2901 C2885 1.349 . S
C2901 H2893 0.950 . S
C2901 C2899 1.327 . S
C2902 C2890 1.349 . S
C2902 H2896 0.950 . S
C2902 C2903 1.327 . S
C2903 H2897 0.950 . S
C2903 C2902 1.327 . S
C2903 C2907 1.429 . S
C2904 C2887 1.574 . S
C2904 H2898 0.949 . S
C2904 C2908 1.368 . S
C2905 C2886 1.429 . S
C2905 C2899 1.429 . S
C2905 C2906 1.523 . S
C2906 C2887 1.368 . S
C2906 C2900 1.368 . S
C2906 C2905 1.523 . S
C2907 C2891 1.429 . S
C2907 C2903 1.429 . S
C2907 C2908 1.523 . S
C2908 C2892 1.368 . S
C2908 C2904 1.368 . S
C2908 C2907 1.523 . S
H2909 C2884 0.950 . S
H2910 C2886 0.950 . S
H2911 C2887 0.949 . S
H2912 C2889 0.950 . S
H2913 C2891 0.950 . S
C2914 C2915 1.349 . S
C2914 C2916 1.327 . S
C2914 H2939 0.950 . S
C2915 C2914 1.349 . S
C2915 C2931 1.349 . S
C2916 C2914 1.327 . S
C2916 C2935 1.429 . S
C2916 H2940 0.950 . S
C2917 C2934 1.574 . S
C2917 C2936 1.368 . S
C2917 H2941 0.949 . S
H2918 C2922 0.949 . S
C2919 C2920 1.349 . S
C2919 C2921 1.327 . S
C2919 H2942 0.950 . S
C2920 C2919 1.349 . S
C2920 C2932 1.349 . S
C2921 C2919 1.327 . S
C2921 C2937 1.429 . S
C2921 H2943 0.950 . S
C2922 H2918 0.949 . S
C2922 C2930 1.574 . S
C2922 C2938 1.368 . S
H2923 C2931 0.950 . S
H2924 C2929 0.950 . S
H2925 C2930 0.949 . S
H2926 C2932 0.950 . S
H2927 C2933 0.950 . S
H2928 C2934 0.949 . S
C2929 H2924 0.950 . S
C2929 C2931 1.327 . S
C2929 C2935 1.429 . S
C2930 C2922 1.574 . S
C2930 H2925 0.949 . S
C2930 C2936 1.368 . S
C2931 C2915 1.349 . S
C2931 H2923 0.950 . S
C2931 C2929 1.327 . S
C2932 C2920 1.349 . S
C2932 H2926 0.950 . S
C2932 C2933 1.327 . S
C2933 H2927 0.950 . S
C2933 C2932 1.327 . S
C2933 C2937 1.429 . S
C2934 C2917 1.574 . S
C2934 H2928 0.949 . S
C2934 C2938 1.368 . S
C2935 C2916 1.429 . S
C2935 C2929 1.429 . S
C2935 C2936 1.523 . S
C2936 C2917 1.368 . S
C2936 C2930 1.368 . S
C2936 C2935 1.523 . S
C2937 C2921 1.429 . S
C2937 C2933 1.429 . S
C2937 C2938 1.523 . S
C2938 C2922 1.368 . S
C2938 C2934 1.368 . S
C2938 C2937 1.523 . S
H2939 C2914 0.950 . S
H2940 C2916 0.950 . S
H2941 C2917 0.949 . S
H2942 C2919 0.950 . S
H2943 C2921 0.950 . S
C2944 C2945 1.349 . S
C2944 C2946 1.327 . S
C2944 H2969 0.950 . S
C2945 C2944 1.349 . S
C2945 C2961 1.349 . S
C2946 C2944 1.327 . S
C2946 C2965 1.429 . S
C2946 H2970 0.950 . S
C2947 C2964 1.574 . S
C2947 C2966 1.368 . S
C2947 H2971 0.949 . S
H2948 C2952 0.949 . S
C2949 C2950 1.349 . S
C2949 C2951 1.327 . S
C2949 H2972 0.950 . S
C2950 C2949 1.349 . S
C2950 C2962 1.349 . S
C2951 C2949 1.327 . S
C2951 C2967 1.429 . S
C2951 H2973 0.950 . S
C2952 H2948 0.949 . S
C2952 C2960 1.574 . S
C2952 C2968 1.368 . S
H2953 C2961 0.950 . S
H2954 C2959 0.950 . S
H2955 C2960 0.949 . S
H2956 C2962 0.950 . S
H2957 C2963 0.950 . S
H2958 C2964 0.949 . S
C2959 H2954 0.950 . S
C2959 C2961 1.327 . S
C2959 C2965 1.429 . S
C2960 C2952 1.574 . S
C2960 H2955 0.949 . S
C2960 C2966 1.368 . S
C2961 C2945 1.349 . S
C2961 H2953 0.950 . S
C2961 C2959 1.327 . S
C2962 C2950 1.349 . S
C2962 H2956 0.950 . S
C2962 C2963 1.327 . S
C2963 H2957 0.950 . S
C2963 C2962 1.327 . S
C2963 C2967 1.429 . S
C2964 C2947 1.574 . S
C2964 H2958 0.949 . S
C2964 C2968 1.368 . S
C2965 C2946 1.429 . S
C2965 C2959 1.429 . S
C2965 C2966 1.523 . S
C2966 C2947 1.368 . S
C2966 C2960 1.368 . S
C2966 C2965 1.523 . S
C2967 C2951 1.429 . S
C2967 C2963 1.429 . S
C2967 C2968 1.523 . S
C2968 C2952 1.368 . S
C2968 C2964 1.368 . S
C2968 C2967 1.523 . S
H2969 C2944 0.950 . S
H2970 C2946 0.950 . S
H2971 C2947 0.949 . S
H2972 C2949 0.950 . S
H2973 C2951 0.950 . S
C2974 C2975 1.349 . S
C2974 C2976 1.327 . S
C2974 H2999 0.950 . S
C2975 C2974 1.349 . S
C2975 C2991 1.349 . S
C2976 C2974 1.327 . S
C2976 C2995 1.429 . S
C2976 H3000 0.950 . S
C2977 C2994 1.574 . S
C2977 C2996 1.368 . S
C2977 H3001 0.949 . S
H2978 C2982 0.949 . S
C2979 C2980 1.349 . S
C2979 C2981 1.327 . S
C2979 H3002 0.950 . S
C2980 C2979 1.349 . S
C2980 C2992 1.349 . S
C2981 C2979 1.327 . S
C2981 C2997 1.429 . S
C2981 H3003 0.950 . S
C2982 H2978 0.949 . S
C2982 C2990 1.574 . S
C2982 C2998 1.368 . S
H2983 C2991 0.950 . S
H2984 C2989 0.950 . S
H2985 C2990 0.949 . S
H2986 C2992 0.950 . S
H2987 C2993 0.950 . S
H2988 C2994 0.949 . S
C2989 H2984 0.950 . S
C2989 C2991 1.327 . S
C2989 C2995 1.429 . S
C2990 C2982 1.574 . S
C2990 H2985 0.949 . S
C2990 C2996 1.368 . S
C2991 C2975 1.349 . S
C2991 H2983 0.950 . S
C2991 C2989 1.327 . S
C2992 C2980 1.349 . S
C2992 H2986 0.950 . S
C2992 C2993 1.327 . S
C2993 H2987 0.950 . S
C2993 C2992 1.327 . S
C2993 C2997 1.429 . S
C2994 C2977 1.574 . S
C2994 H2988 0.949 . S
C2994 C2998 1.368 . S
C2995 C2976 1.429 . S
C2995 C2989 1.429 . S
C2995 C2996 1.523 . S
C2996 C2977 1.368 . S
C2996 C2990 1.368 . S
C2996 C2995 1.523 . S
C2997 C2981 1.429 . S
C2997 C2993 1.429 . S
C2997 C2998 1.523 . S
C2998 C2982 1.368 . S
C2998 C2994 1.368 . S
C2998 C2997 1.523 . S
H2999 C2974 0.950 . S
H3000 C2976 0.950 . S
H3001 C2977 0.949 . S
H3002 C2979 0.950 . S
H3003 C2981 0.950 . S
C3004 C3005 1.349 . S
C3004 C3006 1.327 . S
C3004 H3029 0.950 . S
C3005 C3004 1.349 . S
C3005 C3021 1.349 . S
C3006 C3004 1.327 . S
C3006 C3025 1.429 . S
C3006 H3030 0.950 . S
C3007 C3024 1.574 . S
C3007 C3026 1.368 . S
C3007 H3031 0.949 . S
H3008 C3012 0.949 . S
C3009 C3010 1.349 . S
C3009 C3011 1.327 . S
C3009 H3032 0.950 . S
C3010 C3009 1.349 . S
C3010 C3022 1.349 . S
C3011 C3009 1.327 . S
C3011 C3027 1.429 . S
C3011 H3033 0.950 . S
C3012 H3008 0.949 . S
C3012 C3020 1.574 . S
C3012 C3028 1.368 . S
H3013 C3021 0.950 . S
H3014 C3019 0.950 . S
H3015 C3020 0.949 . S
H3016 C3022 0.950 . S
H3017 C3023 0.950 . S
H3018 C3024 0.949 . S
C3019 H3014 0.950 . S
C3019 C3021 1.327 . S
C3019 C3025 1.429 . S
C3020 C3012 1.574 . S
C3020 H3015 0.949 . S
C3020 C3026 1.368 . S
C3021 C3005 1.349 . S
C3021 H3013 0.950 . S
C3021 C3019 1.327 . S
C3022 C3010 1.349 . S
C3022 H3016 0.950 . S
C3022 C3023 1.327 . S
C3023 H3017 0.950 . S
C3023 C3022 1.327 . S
C3023 C3027 1.429 . S
C3024 C3007 1.574 . S
C3024 H3018 0.949 . S
C3024 C3028 1.368 . S
C3025 C3006 1.429 . S
C3025 C3019 1.429 . S
C3025 C3026 1.523 . S
C3026 C3007 1.368 . S
C3026 C3020 1.368 . S
C3026 C3025 1.523 . S
C3027 C3011 1.429 . S
C3027 C3023 1.429 . S
C3027 C3028 1.523 . S
C3028 C3012 1.368 . S
C3028 C3024 1.368 . S
C3028 C3027 1.523 . S
H3029 C3004 0.950 . S
H3030 C3006 0.950 . S
H3031 C3007 0.949 . S
H3032 C3009 0.950 . S
H3033 C3011 0.950 . S
C3034 C3035 1.349 . S
C3034 C3036 1.327 . S
C3034 H3059 0.950 . S
C3035 C3034 1.349 . S
C3035 C3051 1.349 . S
C3036 C3034 1.327 . S
C3036 C3055 1.429 . S
C3036 H3060 0.950 . S
C3037 C3054 1.574 . S
C3037 C3056 1.368 . S
C3037 H3061 0.949 . S
H3038 C3042 0.949 . S
C3039 C3040 1.349 . S
C3039 C3041 1.327 . S
C3039 H3062 0.950 . S
C3040 C3039 1.349 . S
C3040 C3052 1.349 . S
C3041 C3039 1.327 . S
C3041 C3057 1.429 . S
C3041 H3063 0.950 . S
C3042 H3038 0.949 . S
C3042 C3050 1.574 . S
C3042 C3058 1.368 . S
H3043 C3051 0.950 . S
H3044 C3049 0.950 . S
H3045 C3050 0.949 . S
H3046 C3052 0.950 . S
H3047 C3053 0.950 . S
H3048 C3054 0.949 . S
C3049 H3044 0.950 . S
C3049 C3051 1.327 . S
C3049 C3055 1.429 . S
C3050 C3042 1.574 . S
C3050 H3045 0.949 . S
C3050 C3056 1.368 . S
C3051 C3035 1.349 . S
C3051 H3043 0.950 . S
C3051 C3049 1.327 . S
C3052 C3040 1.349 . S
C3052 H3046 0.950 . S
C3052 C3053 1.327 . S
C3053 H3047 0.950 . S
C3053 C3052 1.327 . S
C3053 C3057 1.429 . S
C3054 C3037 1.574 . S
C3054 H3048 0.949 . S
C3054 C3058 1.368 . S
C3055 C3036 1.429 . S
C3055 C3049 1.429 . S
C3055 C3056 1.523 . S
C3056 C3037 1.368 . S
C3056 C3050 1.368 . S
C3056 C3055 1.523 . S
C3057 C3041 1.429 . S
C3057 C3053 1.429 . S
C3057 C3058 1.523 . S
C3058 C3042 1.368 . S
C3058 C3054 1.368 . S
C3058 C3057 1.523 . S
H3059 C3034 0.950 . S
H3060 C3036 0.950 . S
H3061 C3037 0.949 . S
H3062 C3039 0.950 . S
H3063 C3041 0.950 . S
C3064 C3065 1.349 . S
C3064 C3066 1.327 . S
C3064 H3089 0.950 . S
C3065 C3064 1.349 . S
C3065 C3081 1.349 . S
C3066 C3064 1.327 . S
C3066 C3085 1.429 . S
C3066 H3090 0.950 . S
C3067 C3084 1.574 . S
C3067 C3086 1.368 . S
C3067 H3091 0.949 . S
H3068 C3072 0.949 . S
C3069 C3070 1.349 . S
C3069 C3071 1.327 . S
C3069 H3092 0.950 . S
C3070 C3069 1.349 . S
C3070 C3082 1.349 . S
C3071 C3069 1.327 . S
C3071 C3087 1.429 . S
C3071 H3093 0.950 . S
C3072 H3068 0.949 . S
C3072 C3080 1.574 . S
C3072 C3088 1.368 . S
H3073 C3081 0.950 . S
H3074 C3079 0.950 . S
H3075 C3080 0.949 . S
H3076 C3082 0.950 . S
H3077 C3083 0.950 . S
H3078 C3084 0.949 . S
C3079 H3074 0.950 . S
C3079 C3081 1.327 . S
C3079 C3085 1.429 . S
C3080 C3072 1.574 . S
C3080 H3075 0.949 . S
C3080 C3086 1.368 . S
C3081 C3065 1.349 . S
C3081 H3073 0.950 . S
C3081 C3079 1.327 . S
C3082 C3070 1.349 . S
C3082 H3076 0.950 . S
C3082 C3083 1.327 . S
C3083 H3077 0.950 . S
C3083 C3082 1.327 . S
C3083 C3087 1.429 . S
C3084 C3067 1.574 . S
C3084 H3078 0.949 . S
C3084 C3088 1.368 . S
C3085 C3066 1.429 . S
C3085 C3079 1.429 . S
C3085 C3086 1.523 . S
C3086 C3067 1.368 . S
C3086 C3080 1.368 . S
C3086 C3085 1.523 . S
C3087 C3071 1.429 . S
C3087 C3083 1.429 . S
C3087 C3088 1.523 . S
C3088 C3072 1.368 . S
C3088 C3084 1.368 . S
C3088 C3087 1.523 . S
H3089 C3064 0.950 . S
H3090 C3066 0.950 . S
H3091 C3067 0.949 . S
H3092 C3069 0.950 . S
H3093 C3071 0.950 . S
C3094 C3095 1.349 . S
C3094 C3096 1.327 . S
C3094 H3119 0.950 . S
C3095 C3094 1.349 . S
C3095 C3111 1.349 . S
C3096 C3094 1.327 . S
C3096 C3115 1.429 . S
C3096 H3120 0.950 . S
C3097 C3114 1.574 . S
C3097 C3116 1.368 . S
C3097 H3121 0.949 . S
H3098 C3102 0.949 . S
C3099 C3100 1.349 . S
C3099 C3101 1.327 . S
C3099 H3122 0.950 . S
C3100 C3099 1.349 . S
C3100 C3112 1.349 . S
C3101 C3099 1.327 . S
C3101 C3117 1.429 . S
C3101 H3123 0.950 . S
C3102 H3098 0.949 . S
C3102 C3110 1.574 . S
C3102 C3118 1.368 . S
H3103 C3111 0.950 . S
H3104 C3109 0.950 . S
H3105 C3110 0.949 . S
H3106 C3112 0.950 . S
H3107 C3113 0.950 . S
H3108 C3114 0.949 . S
C3109 H3104 0.950 . S
C3109 C3111 1.327 . S
C3109 C3115 1.429 . S
C3110 C3102 1.574 . S
C3110 H3105 0.949 . S
C3110 C3116 1.368 . S
C3111 C3095 1.349 . S
C3111 H3103 0.950 . S
C3111 C3109 1.327 . S
C3112 C3100 1.349 . S
C3112 H3106 0.950 . S
C3112 C3113 1.327 . S
C3113 H3107 0.950 . S
C3113 C3112 1.327 . S
C3113 C3117 1.429 . S
C3114 C3097 1.574 . S
C3114 H3108 0.949 . S
C3114 C3118 1.368 . S
C3115 C3096 1.429 . S
C3115 C3109 1.429 . S
C3115 C3116 1.523 . S
C3116 C3097 1.368 . S
C3116 C3110 1.368 . S
C3116 C3115 1.523 . S
C3117 C3101 1.429 . S
C3117 C3113 1.429 . S
C3117 C3118 1.523 . S
C3118 C3102 1.368 . S
C3118 C3114 1.368 . S
C3118 C3117 1.523 . S
H3119 C3094 0.950 . S
H3120 C3096 0.950 . S
H3121 C3097 0.949 . S
H3122 C3099 0.950 . S
H3123 C3101 0.950 . S
C3124 C3125 1.349 . S
C3124 C3126 1.327 . S
C3124 H3149 0.950 . S
C3125 C3124 1.349 . S
C3125 C3141 1.349 . S
C3126 C3124 1.327 . S
C3126 C3145 1.429 . S
C3126 H3150 0.950 . S
C3127 C3144 1.574 . S
C3127 C3146 1.368 . S
C3127 H3151 0.949 . S
H3128 C3132 0.949 . S
C3129 C3130 1.349 . S
C3129 C3131 1.327 . S
C3129 H3152 0.950 . S
C3130 C3129 1.349 . S
C3130 C3142 1.349 . S
C3131 C3129 1.327 . S
C3131 C3147 1.429 . S
C3131 H3153 0.950 . S
C3132 H3128 0.949 . S
C3132 C3140 1.574 . S
C3132 C3148 1.368 . S
H3133 C3141 0.950 . S
H3134 C3139 0.950 . S
H3135 C3140 0.949 . S
H3136 C3142 0.950 . S
H3137 C3143 0.950 . S
H3138 C3144 0.949 . S
C3139 H3134 0.950 . S
C3139 C3141 1.327 . S
C3139 C3145 1.429 . S
C3140 C3132 1.574 . S
C3140 H3135 0.949 . S
C3140 C3146 1.368 . S
C3141 C3125 1.349 . S
C3141 H3133 0.950 . S
C3141 C3139 1.327 . S
C3142 C3130 1.349 . S
C3142 H3136 0.950 . S
C3142 C3143 1.327 . S
C3143 H3137 0.950 . S
C3143 C3142 1.327 . S
C3143 C3147 1.429 . S
C3144 C3127 1.574 . S
C3144 H3138 0.949 . S
C3144 C3148 1.368 . S
C3145 C3126 1.429 . S
C3145 C3139 1.429 . S
C3145 C3146 1.523 . S
C3146 C3127 1.368 . S
C3146 C3140 1.368 . S
C3146 C3145 1.523 . S
C3147 C3131 1.429 . S
C3147 C3143 1.429 . S
C3147 C3148 1.523 . S
C3148 C3132 1.368 . S
C3148 C3144 1.368 . S
C3148 C3147 1.523 . S
H3149 C3124 0.950 . S
H3150 C3126 0.950 . S
H3151 C3127 0.949 . S
H3152 C3129 0.950 . S
H3153 C3131 0.950 . S
C3154 C3155 1.349 . S
C3154 C3156 1.327 . S
C3154 H3179 0.950 . S
C3155 C3154 1.349 . S
C3155 C3171 1.349 . S
C3156 C3154 1.327 . S
C3156 C3175 1.429 . S
C3156 H3180 0.950 . S
C3157 C3174 1.574 . S
C3157 C3176 1.368 . S
C3157 H3181 0.949 . S
H3158 C3162 0.949 . S
C3159 C3160 1.349 . S
C3159 C3161 1.327 . S
C3159 H3182 0.950 . S
C3160 C3159 1.349 . S
C3160 C3172 1.349 . S
C3161 C3159 1.327 . S
C3161 C3177 1.429 . S
C3161 H3183 0.950 . S
C3162 H3158 0.949 . S
C3162 C3170 1.574 . S
C3162 C3178 1.368 . S
H3163 C3171 0.950 . S
H3164 C3169 0.950 . S
H3165 C3170 0.949 . S
H3166 C3172 0.950 . S
H3167 C3173 0.950 . S
H3168 C3174 0.949 . S
C3169 H3164 0.950 . S
C3169 C3171 1.327 . S
C3169 C3175 1.429 . S
C3170 C3162 1.574 . S
C3170 H3165 0.949 . S
C3170 C3176 1.368 . S
C3171 C3155 1.349 . S
C3171 H3163 0.950 . S
C3171 C3169 1.327 . S
C3172 C3160 1.349 . S
C3172 H3166 0.950 . S
C3172 C3173 1.327 . S
C3173 H3167 0.950 . S
C3173 C3172 1.327 . S
C3173 C3177 1.429 . S
C3174 C3157 1.574 . S
C3174 H3168 0.949 . S
C3174 C3178 1.368 . S
C3175 C3156 1.429 . S
C3175 C3169 1.429 . S
C3175 C3176 1.523 . S
C3176 C3157 1.368 . S
C3176 C3170 1.368 . S
C3176 C3175 1.523 . S
C3177 C3161 1.429 . S
C3177 C3173 1.429 . S
C3177 C3178 1.523 . S
C3178 C3162 1.368 . S
C3178 C3174 1.368 . S
C3178 C3177 1.523 . S
H3179 C3154 0.950 . S
H3180 C3156 0.950 . S
H3181 C3157 0.949 . S
H3182 C3159 0.950 . S
H3183 C3161 0.950 . S
C3184 C3185 1.349 . S
C3184 C3186 1.327 . S
C3184 H3209 0.950 . S
C3185 C3184 1.349 . S
C3185 C3201 1.349 . S
C3186 C3184 1.327 . S
C3186 C3205 1.429 . S
C3186 H3210 0.950 . S
C3187 C3204 1.574 . S
C3187 C3206 1.368 . S
C3187 H3211 0.949 . S
H3188 C3192 0.949 . S
C3189 C3190 1.349 . S
C3189 C3191 1.327 . S
C3189 H3212 0.950 . S
C3190 C3189 1.349 . S
C3190 C3202 1.349 . S
C3191 C3189 1.327 . S
C3191 C3207 1.429 . S
C3191 H3213 0.950 . S
C3192 H3188 0.949 . S
C3192 C3200 1.574 . S
C3192 C3208 1.368 . S
H3193 C3201 0.950 . S
H3194 C3199 0.950 . S
H3195 C3200 0.949 . S
H3196 C3202 0.950 . S
H3197 C3203 0.950 . S
H3198 C3204 0.949 . S
C3199 H3194 0.950 . S
C3199 C3201 1.327 . S
C3199 C3205 1.429 . S
C3200 C3192 1.574 . S
C3200 H3195 0.949 . S
C3200 C3206 1.368 . S
C3201 C3185 1.349 . S
C3201 H3193 0.950 . S
C3201 C3199 1.327 . S
C3202 C3190 1.349 . S
C3202 H3196 0.950 . S
C3202 C3203 1.327 . S
C3203 H3197 0.950 . S
C3203 C3202 1.327 . S
C3203 C3207 1.429 . S
C3204 C3187 1.574 . S
C3204 H3198 0.949 . S
C3204 C3208 1.368 . S
C3205 C3186 1.429 . S
C3205 C3199 1.429 . S
C3205 C3206 1.523 . S
C3206 C3187 1.368 . S
C3206 C3200 1.368 . S
C3206 C3205 1.523 . S
C3207 C3191 1.429 . S
C3207 C3203 1.429 . S
C3207 C3208 1.523 . S
C3208 C3192 1.368 . S
C3208 C3204 1.368 . S
C3208 C3207 1.523 . S
H3209 C3184 0.950 . S
H3210 C3186 0.950 . S
H3211 C3187 0.949 . S
H3212 C3189 0.950 . S
H3213 C3191 0.950 . S
C3214 C3215 1.349 . S
C3214 C3216 1.327 . S
C3214 H3239 0.950 . S
C3215 C3214 1.349 . S
C3215 C3231 1.349 . S
C3216 C3214 1.327 . S
C3216 C3235 1.429 . S
C3216 H3240 0.950 . S
C3217 C3234 1.574 . S
C3217 C3236 1.368 . S
C3217 H3241 0.949 . S
H3218 C3222 0.949 . S
C3219 C3220 1.349 . S
C3219 C3221 1.327 . S
C3219 H3242 0.950 . S
C3220 C3219 1.349 . S
C3220 C3232 1.349 . S
C3221 C3219 1.327 . S
C3221 C3237 1.429 . S
C3221 H3243 0.950 . S
C3222 H3218 0.949 . S
C3222 C3230 1.574 . S
C3222 C3238 1.368 . S
H3223 C3231 0.950 . S
H3224 C3229 0.950 . S
H3225 C3230 0.949 . S
H3226 C3232 0.950 . S
H3227 C3233 0.950 . S
H3228 C3234 0.949 . S
C3229 H3224 0.950 . S
C3229 C3231 1.327 . S
C3229 C3235 1.429 . S
C3230 C3222 1.574 . S
C3230 H3225 0.949 . S
C3230 C3236 1.368 . S
C3231 C3215 1.349 . S
C3231 H3223 0.950 . S
C3231 C3229 1.327 . S
C3232 C3220 1.349 . S
C3232 H3226 0.950 . S
C3232 C3233 1.327 . S
C3233 H3227 0.950 . S
C3233 C3232 1.327 . S
C3233 C3237 1.429 . S
C3234 C3217 1.574 . S
C3234 H3228 0.949 . S
C3234 C3238 1.368 . S
C3235 C3216 1.429 . S
C3235 C3229 1.429 . S
C3235 C3236 1.523 . S
C3236 C3217 1.368 . S
C3236 C3230 1.368 . S
C3236 C3235 1.523 . S
C3237 C3221 1.429 . S
C3237 C3233 1.429 . S
C3237 C3238 1.523 . S
C3238 C3222 1.368 . S
C3238 C3234 1.368 . S
C3238 C3237 1.523 . S
H3239 C3214 0.950 . S
H3240 C3216 0.950 . S
H3241 C3217 0.949 . S
H3242 C3219 0.950 . S
H3243 C3221 0.950 . S
C3244 C3245 1.349 . S
C3244 C3246 1.327 . S
C3244 H3269 0.950 . S
C3245 C3244 1.349 . S
C3245 C3261 1.349 . S
C3246 C3244 1.327 . S
C3246 C3265 1.429 . S
C3246 H3270 0.950 . S
C3247 C3264 1.574 . S
C3247 C3266 1.368 . S
C3247 H3271 0.949 . S
H3248 C3252 0.949 . S
C3249 C3250 1.349 . S
C3249 C3251 1.327 . S
C3249 H3272 0.950 . S
C3250 C3249 1.349 . S
C3250 C3262 1.349 . S
C3251 C3249 1.327 . S
C3251 C3267 1.429 . S
C3251 H3273 0.950 . S
C3252 H3248 0.949 . S
C3252 C3260 1.574 . S
C3252 C3268 1.368 . S
H3253 C3261 0.950 . S
H3254 C3259 0.950 . S
H3255 C3260 0.949 . S
H3256 C3262 0.950 . S
H3257 C3263 0.950 . S
H3258 C3264 0.949 . S
C3259 H3254 0.950 . S
C3259 C3261 1.327 . S
C3259 C3265 1.429 . S
C3260 C3252 1.574 . S
C3260 H3255 0.949 . S
C3260 C3266 1.368 . S
C3261 C3245 1.349 . S
C3261 H3253 0.950 . S
C3261 C3259 1.327 . S
C3262 C3250 1.349 . S
C3262 H3256 0.950 . S
C3262 C3263 1.327 . S
C3263 H3257 0.950 . S
C3263 C3262 1.327 . S
C3263 C3267 1.429 . S
C3264 C3247 1.574 . S
C3264 H3258 0.949 . S
C3264 C3268 1.368 . S
C3265 C3246 1.429 . S
C3265 C3259 1.429 . S
C3265 C3266 1.523 . S
C3266 C3247 1.368 . S
C3266 C3260 1.368 . S
C3266 C3265 1.523 . S
C3267 C3251 1.429 . S
C3267 C3263 1.429 . S
C3267 C3268 1.523 . S
C3268 C3252 1.368 . S
C3268 C3264 1.368 . S
C3268 C3267 1.523 . S
H3269 C3244 0.950 . S
H3270 C3246 0.950 . S
H3271 C3247 0.949 . S
H3272 C3249 0.950 . S
H3273 C3251 0.950 . S
C3274 C3275 1.349 . S
C3274 C3276 1.327 . S
C3274 H3299 0.950 . S
C3275 C3274 1.349 . S
C3275 C3291 1.349 . S
C3276 C3274 1.327 . S
C3276 C3295 1.429 . S
C3276 H3300 0.950 . S
C3277 C3294 1.574 . S
C3277 C3296 1.368 . S
C3277 H3301 0.949 . S
H3278 C3282 0.949 . S
C3279 C3280 1.349 . S
C3279 C3281 1.327 . S
C3279 H3302 0.950 . S
C3280 C3279 1.349 . S
C3280 C3292 1.349 . S
C3281 C3279 1.327 . S
C3281 C3297 1.429 . S
C3281 H3303 0.950 . S
C3282 H3278 0.949 . S
C3282 C3290 1.574 . S
C3282 C3298 1.368 . S
H3283 C3291 0.950 . S
H3284 C3289 0.950 . S
H3285 C3290 0.949 . S
H3286 C3292 0.950 . S
H3287 C3293 0.950 . S
H3288 C3294 0.949 . S
C3289 H3284 0.950 . S
C3289 C3291 1.327 . S
C3289 C3295 1.429 . S
C3290 C3282 1.574 . S
C3290 H3285 0.949 . S
C3290 C3296 1.368 . S
C3291 C3275 1.349 . S
C3291 H3283 0.950 . S
C3291 C3289 1.327 . S
C3292 C3280 1.349 . S
C3292 H3286 0.950 . S
C3292 C3293 1.327 . S
C3293 H3287 0.950 . S
C3293 C3292 1.327 . S
C3293 C3297 1.429 . S
C3294 C3277 1.574 . S
C3294 H3288 0.949 . S
C3294 C3298 1.368 . S
C3295 C3276 1.429 . S
C3295 C3289 1.429 . S
C3295 C3296 1.523 . S
C3296 C3277 1.368 . S
C3296 C3290 1.368 . S
C3296 C3295 1.523 . S
C3297 C3281 1.429 . S
C3297 C3293 1.429 . S
C3297 C3298 1.523 . S
C3298 C3282 1.368 . S
C3298 C3294 1.368 . S
C3298 C3297 1.523 . S
H3299 C3274 0.950 . S
H3300 C3276 0.950 . S
H3301 C3277 0.949 . S
H3302 C3279 0.950 . S
H3303 C3281 0.950 . S
C3304 C3305 1.349 . S
C3304 C3306 1.327 . S
C3304 H3329 0.950 . S
C3305 C3304 1.349 . S
C3305 C3321 1.349 . S
C3306 C3304 1.327 . S
C3306 C3325 1.429 . S
C3306 H3330 0.950 . S
C3307 C3324 1.574 . S
C3307 C3326 1.368 . S
C3307 H3331 0.949 . S
H3308 C3312 0.949 . S
C3309 C3310 1.349 . S
C3309 C3311 1.327 . S
C3309 H3332 0.950 . S
C3310 C3309 1.349 . S
C3310 C3322 1.349 . S
C3311 C3309 1.327 . S
C3311 C3327 1.429 . S
C3311 H3333 0.950 . S
C3312 H3308 0.949 . S
C3312 C3320 1.574 . S
C3312 C3328 1.368 . S
H3313 C3321 0.950 . S
H3314 C3319 0.950 . S
H3315 C3320 0.949 . S
H3316 C3322 0.950 . S
H3317 C3323 0.950 . S
H3318 C3324 0.949 . S
C3319 H3314 0.950 . S
C3319 C3321 1.327 . S
C3319 C3325 1.429 . S
C3320 C3312 1.574 . S
C3320 H3315 0.949 . S
C3320 C3326 1.368 . S
C3321 C3305 1.349 . S
C3321 H3313 0.950 . S
C3321 C3319 1.327 . S
C3322 C3310 1.349 . S
C3322 H3316 0.950 . S
C3322 C3323 1.327 . S
C3323 H3317 0.950 . S
C3323 C3322 1.327 . S
C3323 C3327 1.429 . S
C3324 C3307 1.574 . S
C3324 H3318 0.949 . S
C3324 C3328 1.368 . S
C3325 C3306 1.429 . S
C3325 C3319 1.429 . S
C3325 C3326 1.523 . S
C3326 C3307 1.368 . S
C3326 C3320 1.368 . S
C3326 C3325 1.523 . S
C3327 C3311 1.429 . S
C3327 C3323 1.429 . S
C3327 C3328 1.523 . S
C3328 C3312 1.368 . S
C3328 C3324 1.368 . S
C3328 C3327 1.523 . S
H3329 C3304 0.950 . S
H3330 C3306 0.950 . S
H3331 C3307 0.949 . S
H3332 C3309 0.950 . S
H3333 C3311 0.950 . S
C3334 C3335 1.349 . S
C3334 C3336 1.327 . S
C3334 H3359 0.950 . S
C3335 C3334 1.349 . S
C3335 C3351 1.349 . S
C3336 C3334 1.327 . S
C3336 C3355 1.429 . S
C3336 H3360 0.950 . S
C3337 C3354 1.574 . S
C3337 C3356 1.368 . S
C3337 H3361 0.949 . S
H3338 C3342 0.949 . S
C3339 C3340 1.349 . S
C3339 C3341 1.327 . S
C3339 H3362 0.950 . S
C3340 C3339 1.349 . S
C3340 C3352 1.349 . S
C3341 C3339 1.327 . S
C3341 C3357 1.429 . S
C3341 H3363 0.950 . S
C3342 H3338 0.949 . S
C3342 C3350 1.574 . S
C3342 C3358 1.368 . S
H3343 C3351 0.950 . S
H3344 C3349 0.950 . S
H3345 C3350 0.949 . S
H3346 C3352 0.950 . S
H3347 C3353 0.950 . S
H3348 C3354 0.949 . S
C3349 H3344 0.950 . S
C3349 C3351 1.327 . S
C3349 C3355 1.429 . S
C3350 C3342 1.574 . S
C3350 H3345 0.949 . S
C3350 C3356 1.368 . S
C3351 C3335 1.349 . S
C3351 H3343 0.950 . S
C3351 C3349 1.327 . S
C3352 C3340 1.349 . S
C3352 H3346 0.950 . S
C3352 C3353 1.327 . S
C3353 H3347 0.950 . S
C3353 C3352 1.327 . S
C3353 C3357 1.429 . S
C3354 C3337 1.574 . S
C3354 H3348 0.949 . S
C3354 C3358 1.368 . S
C3355 C3336 1.429 . S
C3355 C3349 1.429 . S
C3355 C3356 1.523 . S
C3356 C3337 1.368 . S
C3356 C3350 1.368 . S
C3356 C3355 1.523 . S
C3357 C3341 1.429 . S
C3357 C3353 1.429 . S
C3357 C3358 1.523 . S
C3358 C3342 1.368 . S
C3358 C3354 1.368 . S
C3358 C3357 1.523 . S
H3359 C3334 0.950 . S
H3360 C3336 0.950 . S
H3361 C3337 0.949 . S
H3362 C3339 0.950 . S
H3363 C3341 0.950 . S
C3364 C3365 1.349 . S
C3364 C3366 1.327 . S
C3364 H3389 0.950 . S
C3365 C3364 1.349 . S
C3365 C3381 1.349 . S
C3366 C3364 1.327 . S
C3366 C3385 1.429 . S
C3366 H3390 0.950 . S
C3367 C3384 1.574 . S
C3367 C3386 1.368 . S
C3367 H3391 0.949 . S
H3368 C3372 0.949 . S
C3369 C3370 1.349 . S
C3369 C3371 1.327 . S
C3369 H3392 0.950 . S
C3370 C3369 1.349 . S
C3370 C3382 1.349 . S
C3371 C3369 1.327 . S
C3371 C3387 1.429 . S
C3371 H3393 0.950 . S
C3372 H3368 0.949 . S
C3372 C3380 1.574 . S
C3372 C3388 1.368 . S
H3373 C3381 0.950 . S
H3374 C3379 0.950 . S
H3375 C3380 0.949 . S
H3376 C3382 0.950 . S
H3377 C3383 0.950 . S
H3378 C3384 0.949 . S
C3379 H3374 0.950 . S
C3379 C3381 1.327 . S
C3379 C3385 1.429 . S
C3380 C3372 1.574 . S
C3380 H3375 0.949 . S
C3380 C3386 1.368 . S
C3381 C3365 1.349 . S
C3381 H3373 0.950 . S
C3381 C3379 1.327 . S
C3382 C3370 1.349 . S
C3382 H3376 0.950 . S
C3382 C3383 1.327 . S
C3383 H3377 0.950 . S
C3383 C3382 1.327 . S
C3383 C3387 1.429 . S
C3384 C3367 1.574 . S
C3384 H3378 0.949 . S
C3384 C3388 1.368 . S
C3385 C3366 1.429 . S
C3385 C3379 1.429 . S
C3385 C3386 1.523 . S
C3386 C3367 1.368 . S
C3386 C3380 1.368 . S
C3386 C3385 1.523 . S
C3387 C3371 1.429 . S
C3387 C3383 1.429 . S
C3387 C3388 1.523 . S
C3388 C3372 1.368 . S
C3388 C3384 1.368 . S
C3388 C3387 1.523 . S
H3389 C3364 0.950 . S
H3390 C3366 0.950 . S
H3391 C3367 0.949 . S
H3392 C3369 0.950 . S
H3393 C3371 0.950 . S
C3394 C3395 1.349 . S
C3394 C3396 1.327 . S
C3394 H3419 0.950 . S
C3395 C3394 1.349 . S
C3395 C3411 1.349 . S
C3396 C3394 1.327 . S
C3396 C3415 1.429 . S
C3396 H3420 0.950 . S
C3397 C3414 1.574 . S
C3397 C3416 1.368 . S
C3397 H3421 0.949 . S
H3398 C3402 0.949 . S
C3399 C3400 1.349 . S
C3399 C3401 1.327 . S
C3399 H3422 0.950 . S
C3400 C3399 1.349 . S
C3400 C3412 1.349 . S
C3401 C3399 1.327 . S
C3401 C3417 1.429 . S
C3401 H3423 0.950 . S
C3402 H3398 0.949 . S
C3402 C3410 1.574 . S
C3402 C3418 1.368 . S
H3403 C3411 0.950 . S
H3404 C3409 0.950 . S
H3405 C3410 0.949 . S
H3406 C3412 0.950 . S
H3407 C3413 0.950 . S
H3408 C3414 0.949 . S
C3409 H3404 0.950 . S
C3409 C3411 1.327 . S
C3409 C3415 1.429 . S
C3410 C3402 1.574 . S
C3410 H3405 0.949 . S
C3410 C3416 1.368 . S
C3411 C3395 1.349 . S
C3411 H3403 0.950 . S
C3411 C3409 1.327 . S
C3412 C3400 1.349 . S
C3412 H3406 0.950 . S
C3412 C3413 1.327 . S
C3413 H3407 0.950 . S
C3413 C3412 1.327 . S
C3413 C3417 1.429 . S
C3414 C3397 1.574 . S
C3414 H3408 0.949 . S
C3414 C3418 1.368 . S
C3415 C3396 1.429 . S
C3415 C3409 1.429 . S
C3415 C3416 1.523 . S
C3416 C3397 1.368 . S
C3416 C3410 1.368 . S
C3416 C3415 1.523 . S
C3417 C3401 1.429 . S
C3417 C3413 1.429 . S
C3417 C3418 1.523 . S
C3418 C3402 1.368 . S
C3418 C3414 1.368 . S
C3418 C3417 1.523 . S
H3419 C3394 0.950 . S
H3420 C3396 0.950 . S
H3421 C3397 0.949 . S
H3422 C3399 0.950 . S
H3423 C3401 0.950 . S
C3424 C3425 1.349 . S
C3424 C3426 1.327 . S
C3424 H3449 0.950 . S
C3425 C3424 1.349 . S
C3425 C3441 1.349 . S
C3426 C3424 1.327 . S
C3426 C3445 1.429 . S
C3426 H3450 0.950 . S
C3427 C3444 1.574 . S
C3427 C3446 1.368 . S
C3427 H3451 0.949 . S
H3428 C3432 0.949 . S
C3429 C3430 1.349 . S
C3429 C3431 1.327 . S
C3429 H3452 0.950 . S
C3430 C3429 1.349 . S
C3430 C3442 1.349 . S
C3431 C3429 1.327 . S
C3431 C3447 1.429 . S
C3431 H3453 0.950 . S
C3432 H3428 0.949 . S
C3432 C3440 1.574 . S
C3432 C3448 1.368 . S
H3433 C3441 0.950 . S
H3434 C3439 0.950 . S
H3435 C3440 0.949 . S
H3436 C3442 0.950 . S
H3437 C3443 0.950 . S
H3438 C3444 0.949 . S
C3439 H3434 0.950 . S
C3439 C3441 1.327 . S
C3439 C3445 1.429 . S
C3440 C3432 1.574 . S
C3440 H3435 0.949 . S
C3440 C3446 1.368 . S
C3441 C3425 1.349 . S
C3441 H3433 0.950 . S
C3441 C3439 1.327 . S
C3442 C3430 1.349 . S
C3442 H3436 0.950 . S
C3442 C3443 1.327 . S
C3443 H3437 0.950 . S
C3443 C3442 1.327 . S
C3443 C3447 1.429 . S
C3444 C3427 1.574 . S
C3444 H3438 0.949 . S
C3444 C3448 1.368 . S
C3445 C3426 1.429 . S
C3445 C3439 1.429 . S
C3445 C3446 1.523 . S
C3446 C3427 1.368 . S
C3446 C3440 1.368 . S
C3446 C3445 1.523 . S
C3447 C3431 1.429 . S
C3447 C3443 1.429 . S
C3447 C3448 1.523 . S
C3448 C3432 1.368 . S
C3448 C3444 1.368 . S
C3448 C3447 1.523 . S
H3449 C3424 0.950 . S
H3450 C3426 0.950 . S
H3451 C3427 0.949 . S
H3452 C3429 0.950 . S
H3453 C3431 0.950 . S
C3454 C3455 1.349 . S
C3454 C3456 1.327 . S
C3454 H3479 0.950 . S
C3455 C3454 1.349 . S
C3455 C3471 1.349 . S
C3456 C3454 1.327 . S
C3456 C3475 1.429 . S
C3456 H3480 0.950 . S
C3457 C3474 1.574 . S
C3457 C3476 1.368 . S
C3457 H3481 0.949 . S
H3458 C3462 0.949 . S
C3459 C3460 1.349 . S
C3459 C3461 1.327 . S
C3459 H3482 0.950 . S
C3460 C3459 1.349 . S
C3460 C3472 1.349 . S
C3461 C3459 1.327 . S
C3461 C3477 1.429 . S
C3461 H3483 0.950 . S
C3462 H3458 0.949 . S
C3462 C3470 1.574 . S
C3462 C3478 1.368 . S
H3463 C3471 0.950 . S
H3464 C3469 0.950 . S
H3465 C3470 0.949 . S
H3466 C3472 0.950 . S
H3467 C3473 0.950 . S
H3468 C3474 0.949 . S
C3469 H3464 0.950 . S
C3469 C3471 1.327 . S
C3469 C3475 1.429 . S
C3470 C3462 1.574 . S
C3470 H3465 0.949 . S
C3470 C3476 1.368 . S
C3471 C3455 1.349 . S
C3471 H3463 0.950 . S
C3471 C3469 1.327 . S
C3472 C3460 1.349 . S
C3472 H3466 0.950 . S
C3472 C3473 1.327 . S
C3473 H3467 0.950 . S
C3473 C3472 1.327 . S
C3473 C3477 1.429 . S
C3474 C3457 1.574 . S
C3474 H3468 0.949 . S
C3474 C3478 1.368 . S
C3475 C3456 1.429 . S
C3475 C3469 1.429 . S
C3475 C3476 1.523 . S
C3476 C3457 1.368 . S
C3476 C3470 1.368 . S
C3476 C3475 1.523 . S
C3477 C3461 1.429 . S
C3477 C3473 1.429 . S
C3477 C3478 1.523 . S
C3478 C3462 1.368 . S
C3478 C3474 1.368 . S
C3478 C3477 1.523 . S
H3479 C3454 0.950 . S
H3480 C3456 0.950 . S
H3481 C3457 0.949 . S
H3482 C3459 0.950 . S
H3483 C3461 0.950 . S
C3484 C3485 1.349 . S
C3484 C3486 1.327 . S
C3484 H3509 0.950 . S
C3485 C3484 1.349 . S
C3485 C3501 1.349 . S
C3486 C3484 1.327 . S
C3486 C3505 1.429 . S
C3486 H3510 0.950 . S
C3487 C3504 1.574 . S
C3487 C3506 1.368 . S
C3487 H3511 0.949 . S
H3488 C3492 0.949 . S
C3489 C3490 1.349 . S
C3489 C3491 1.327 . S
C3489 H3512 0.950 . S
C3490 C3489 1.349 . S
C3490 C3502 1.349 . S
C3491 C3489 1.327 . S
C3491 C3507 1.429 . S
C3491 H3513 0.950 . S
C3492 H3488 0.949 . S
C3492 C3500 1.574 . S
C3492 C3508 1.368 . S
H3493 C3501 0.950 . S
H3494 C3499 0.950 . S
H3495 C3500 0.949 . S
H3496 C3502 0.950 . S
H3497 C3503 0.950 . S
H3498 C3504 0.949 . S
C3499 H3494 0.950 . S
C3499 C3501 1.327 . S
C3499 C3505 1.429 . S
C3500 C3492 1.574 . S
C3500 H3495 0.949 . S
C3500 C3506 1.368 . S
C3501 C3485 1.349 . S
C3501 H3493 0.950 . S
C3501 C3499 1.327 . S
C3502 C3490 1.349 . S
C3502 H3496 0.950 . S
C3502 C3503 1.327 . S
C3503 H3497 0.950 . S
C3503 C3502 1.327 . S
C3503 C3507 1.429 . S
C3504 C3487 1.574 . S
C3504 H3498 0.949 . S
C3504 C3508 1.368 . S
C3505 C3486 1.429 . S
C3505 C3499 1.429 . S
C3505 C3506 1.523 . S
C3506 C3487 1.368 . S
C3506 C3500 1.368 . S
C3506 C3505 1.523 . S
C3507 C3491 1.429 . S
C3507 C3503 1.429 . S
C3507 C3508 1.523 . S
C3508 C3492 1.368 . S
C3508 C3504 1.368 . S
C3508 C3507 1.523 . S
H3509 C3484 0.950 . S
H3510 C3486 0.950 . S
H3511 C3487 0.949 . S
H3512 C3489 0.950 . S
H3513 C3491 0.950 . S
C3514 C3515 1.349 . S
C3514 C3516 1.327 . S
C3514 H3539 0.950 . S
C3515 C3514 1.349 . S
C3515 C3531 1.349 . S
C3516 C3514 1.327 . S
C3516 C3535 1.429 . S
C3516 H3540 0.950 . S
C3517 C3534 1.574 . S
C3517 C3536 1.368 . S
C3517 H3541 0.949 . S
H3518 C3522 0.949 . S
C3519 C3520 1.349 . S
C3519 C3521 1.327 . S
C3519 H3542 0.950 . S
C3520 C3519 1.349 . S
C3520 C3532 1.349 . S
C3521 C3519 1.327 . S
C3521 C3537 1.429 . S
C3521 H3543 0.950 . S
C3522 H3518 0.949 . S
C3522 C3530 1.574 . S
C3522 C3538 1.368 . S
H3523 C3531 0.950 . S
H3524 C3529 0.950 . S
H3525 C3530 0.949 . S
H3526 C3532 0.950 . S
H3527 C3533 0.950 . S
H3528 C3534 0.949 . S
C3529 H3524 0.950 . S
C3529 C3531 1.327 . S
C3529 C3535 1.429 . S
C3530 C3522 1.574 . S
C3530 H3525 0.949 . S
C3530 C3536 1.368 . S
C3531 C3515 1.349 . S
C3531 H3523 0.950 . S
C3531 C3529 1.327 . S
C3532 C3520 1.349 . S
C3532 H3526 0.950 . S
C3532 C3533 1.327 . S
C3533 H3527 0.950 . S
C3533 C3532 1.327 . S
C3533 C3537 1.429 . S
C3534 C3517 1.574 . S
C3534 H3528 0.949 . S
C3534 C3538 1.368 . S
C3535 C3516 1.429 . S
C3535 C3529 1.429 . S
C3535 C3536 1.523 . S
C3536 C3517 1.368 . S
C3536 C3530 1.368 . S
C3536 C3535 1.523 . S
C3537 C3521 1.429 . S
C3537 C3533 1.429 . S
C3537 C3538 1.523 . S
C3538 C3522 1.368 . S
C3538 C3534 1.368 . S
C3538 C3537 1.523 . S
H3539 C3514 0.950 . S
H3540 C3516 0.950 . S
H3541 C3517 0.949 . S
H3542 C3519 0.950 . S
H3543 C3521 0.950 . S
C3544 C3545 1.349 . S
C3544 C3546 1.327 . S
C3544 H3569 0.950 . S
C3545 C3544 1.349 . S
C3545 C3561 1.349 . S
C3546 C3544 1.327 . S
C3546 C3565 1.429 . S
C3546 H3570 0.950 . S
C3547 C3564 1.574 . S
C3547 C3566 1.368 . S
C3547 H3571 0.949 . S
H3548 C3552 0.949 . S
C3549 C3550 1.349 . S
C3549 C3551 1.327 . S
C3549 H3572 0.950 . S
C3550 C3549 1.349 . S
C3550 C3562 1.349 . S
C3551 C3549 1.327 . S
C3551 C3567 1.429 . S
C3551 H3573 0.950 . S
C3552 H3548 0.949 . S
C3552 C3560 1.574 . S
C3552 C3568 1.368 . S
H3553 C3561 0.950 . S
H3554 C3559 0.950 . S
H3555 C3560 0.949 . S
H3556 C3562 0.950 . S
H3557 C3563 0.950 . S
H3558 C3564 0.949 . S
C3559 H3554 0.950 . S
C3559 C3561 1.327 . S
C3559 C3565 1.429 . S
C3560 C3552 1.574 . S
C3560 H3555 0.949 . S
C3560 C3566 1.368 . S
C3561 C3545 1.349 . S
C3561 H3553 0.950 . S
C3561 C3559 1.327 . S
C3562 C3550 1.349 . S
C3562 H3556 0.950 . S
C3562 C3563 1.327 . S
C3563 H3557 0.950 . S
C3563 C3562 1.327 . S
C3563 C3567 1.429 . S
C3564 C3547 1.574 . S
C3564 H3558 0.949 . S
C3564 C3568 1.368 . S
C3565 C3546 1.429 . S
C3565 C3559 1.429 . S
C3565 C3566 1.523 . S
C3566 C3547 1.368 . S
C3566 C3560 1.368 . S
C3566 C3565 1.523 . S
C3567 C3551 1.429 . S
C3567 C3563 1.429 . S
C3567 C3568 1.523 . S
C3568 C3552 1.368 . S
C3568 C3564 1.368 . S
C3568 C3567 1.523 . S
H3569 C3544 0.950 . S
H3570 C3546 0.950 . S
H3571 C3547 0.949 . S
H3572 C3549 0.950 . S
H3573 C3551 0.950 . S
C3574 C3575 1.349 . S
C3574 C3576 1.327 . S
C3574 H3599 0.950 . S
C3575 C3574 1.349 . S
C3575 C3591 1.349 . S
C3576 C3574 1.327 . S
C3576 C3595 1.429 . S
C3576 H3600 0.950 . S
C3577 C3594 1.574 . S
C3577 C3596 1.368 . S
C3577 H3601 0.949 . S
H3578 C3582 0.949 . S
C3579 C3580 1.349 . S
C3579 C3581 1.327 . S
C3579 H3602 0.950 . S
C3580 C3579 1.349 . S
C3580 C3592 1.349 . S
C3581 C3579 1.327 . S
C3581 C3597 1.429 . S
C3581 H3603 0.950 . S
C3582 H3578 0.949 . S
C3582 C3590 1.574 . S
C3582 C3598 1.368 . S
H3583 C3591 0.950 . S
H3584 C3589 0.950 . S
H3585 C3590 0.949 . S
H3586 C3592 0.950 . S
H3587 C3593 0.950 . S
H3588 C3594 0.949 . S
C3589 H3584 0.950 . S
C3589 C3591 1.327 . S
C3589 C3595 1.429 . S
C3590 C3582 1.574 . S
C3590 H3585 0.949 . S
C3590 C3596 1.368 . S
C3591 C3575 1.349 . S
C3591 H3583 0.950 . S
C3591 C3589 1.327 . S
C3592 C3580 1.349 . S
C3592 H3586 0.950 . S
C3592 C3593 1.327 . S
C3593 H3587 0.950 . S
C3593 C3592 1.327 . S
C3593 C3597 1.429 . S
C3594 C3577 1.574 . S
C3594 H3588 0.949 . S
C3594 C3598 1.368 . S
C3595 C3576 1.429 . S
C3595 C3589 1.429 . S
C3595 C3596 1.523 . S
C3596 C3577 1.368 . S
C3596 C3590 1.368 . S
C3596 C3595 1.523 . S
C3597 C3581 1.429 . S
C3597 C3593 1.429 . S
C3597 C3598 1.523 . S
C3598 C3582 1.368 . S
C3598 C3594 1.368 . S
C3598 C3597 1.523 . S
H3599 C3574 0.950 . S
H3600 C3576 0.950 . S
H3601 C3577 0.949 . S
H3602 C3579 0.950 . S
H3603 C3581 0.950 . S
C3604 C3605 1.349 . S
C3604 C3606 1.327 . S
C3604 H3629 0.950 . S
C3605 C3604 1.349 . S
C3605 C3621 1.349 . S
C3606 C3604 1.327 . S
C3606 C3625 1.429 . S
C3606 H3630 0.950 . S
C3607 C3624 1.574 . S
C3607 C3626 1.368 . S
C3607 H3631 0.949 . S
H3608 C3612 0.949 . S
C3609 C3610 1.349 . S
C3609 C3611 1.327 . S
C3609 H3632 0.950 . S
C3610 C3609 1.349 . S
C3610 C3622 1.349 . S
C3611 C3609 1.327 . S
C3611 C3627 1.429 . S
C3611 H3633 0.950 . S
C3612 H3608 0.949 . S
C3612 C3620 1.574 . S
C3612 C3628 1.368 . S
H3613 C3621 0.950 . S
H3614 C3619 0.950 . S
H3615 C3620 0.949 . S
H3616 C3622 0.950 . S
H3617 C3623 0.950 . S
H3618 C3624 0.949 . S
C3619 H3614 0.950 . S
C3619 C3621 1.327 . S
C3619 C3625 1.429 . S
C3620 C3612 1.574 . S
C3620 H3615 0.949 . S
C3620 C3626 1.368 . S
C3621 C3605 1.349 . S
C3621 H3613 0.950 . S
C3621 C3619 1.327 . S
C3622 C3610 1.349 . S
C3622 H3616 0.950 . S
C3622 C3623 1.327 . S
C3623 H3617 0.950 . S
C3623 C3622 1.327 . S
C3623 C3627 1.429 . S
C3624 C3607 1.574 . S
C3624 H3618 0.949 . S
C3624 C3628 1.368 . S
C3625 C3606 1.429 . S
C3625 C3619 1.429 . S
C3625 C3626 1.523 . S
C3626 C3607 1.368 . S
C3626 C3620 1.368 . S
C3626 C3625 1.523 . S
C3627 C3611 1.429 . S
C3627 C3623 1.429 . S
C3627 C3628 1.523 . S
C3628 C3612 1.368 . S
C3628 C3624 1.368 . S
C3628 C3627 1.523 . S
H3629 C3604 0.950 . S
H3630 C3606 0.950 . S
H3631 C3607 0.949 . S
H3632 C3609 0.950 . S
H3633 C3611 0.950 . S
C3634 C3635 1.349 . S
C3634 C3636 1.327 . S
C3634 H3659 0.950 . S
C3635 C3634 1.349 . S
C3635 C3651 1.349 . S
C3636 C3634 1.327 . S
C3636 C3655 1.429 . S
C3636 H3660 0.950 . S
C3637 C3654 1.574 . S
C3637 C3656 1.368 . S
C3637 H3661 0.949 . S
H3638 C3642 0.949 . S
C3639 C3640 1.349 . S
C3639 C3641 1.327 . S
C3639 H3662 0.950 . S
C3640 C3639 1.349 . S
C3640 C3652 1.349 . S
C3641 C3639 1.327 . S
C3641 C3657 1.429 . S
C3641 H3663 0.950 . S
C3642 H3638 0.949 . S
C3642 C3650 1.574 . S
C3642 C3658 1.368 . S
H3643 C3651 0.950 . S
H3644 C3649 0.950 . S
H3645 C3650 0.949 . S
H3646 C3652 0.950 . S
H3647 C3653 0.950 . S
H3648 C3654 0.949 . S
C3649 H3644 0.950 . S
C3649 C3651 1.327 . S
C3649 C3655 1.429 . S
C3650 C3642 1.574 . S
C3650 H3645 0.949 . S
C3650 C3656 1.368 . S
C3651 C3635 1.349 . S
C3651 H3643 0.950 . S
C3651 C3649 1.327 . S
C3652 C3640 1.349 . S
C3652 H3646 0.950 . S
C3652 C3653 1.327 . S
C3653 H3647 0.950 . S
C3653 C3652 1.327 . S
C3653 C3657 1.429 . S
C3654 C3637 1.574 . S
C3654 H3648 0.949 . S
C3654 C3658 1.368 . S
C3655 C3636 1.429 . S
C3655 C3649 1.429 . S
C3655 C3656 1.523 . S
C3656 C3637 1.368 . S
C3656 C3650 1.368 . S
C3656 C3655 1.523 . S
C3657 C3641 1.429 . S
C3657 C3653 1.429 . S
C3657 C3658 1.523 . S
C3658 C3642 1.368 . S
C3658 C3654 1.368 . S
C3658 C3657 1.523 . S
H3659 C3634 0.950 . S
H3660 C3636 0.950 . S
H3661 C3637 0.949 . S
H3662 C3639 0.950 . S
H3663 C3641 0.950 . S
C3664 C3665 1.349 . S
C3664 C3666 1.327 . S
C3664 H3689 0.950 . S
C3665 C3664 1.349 . S
C3665 C3681 1.349 . S
C3666 C3664 1.327 . S
C3666 C3685 1.429 . S
C3666 H3690 0.950 . S
C3667 C3684 1.574 . S
C3667 C3686 1.368 . S
C3667 H3691 0.949 . S
H3668 C3672 0.949 . S
C3669 C3670 1.349 . S
C3669 C3671 1.327 . S
C3669 H3692 0.950 . S
C3670 C3669 1.349 . S
C3670 C3682 1.349 . S
C3671 C3669 1.327 . S
C3671 C3687 1.429 . S
C3671 H3693 0.950 . S
C3672 H3668 0.949 . S
C3672 C3680 1.574 . S
C3672 C3688 1.368 . S
H3673 C3681 0.950 . S
H3674 C3679 0.950 . S
H3675 C3680 0.949 . S
H3676 C3682 0.950 . S
H3677 C3683 0.950 . S
H3678 C3684 0.949 . S
C3679 H3674 0.950 . S
C3679 C3681 1.327 . S
C3679 C3685 1.429 . S
C3680 C3672 1.574 . S
C3680 H3675 0.949 . S
C3680 C3686 1.368 . S
C3681 C3665 1.349 . S
C3681 H3673 0.950 . S
C3681 C3679 1.327 . S
C3682 C3670 1.349 . S
C3682 H3676 0.950 . S
C3682 C3683 1.327 . S
C3683 H3677 0.950 . S
C3683 C3682 1.327 . S
C3683 C3687 1.429 . S
C3684 C3667 1.574 . S
C3684 H3678 0.949 . S
C3684 C3688 1.368 . S
C3685 C3666 1.429 . S
C3685 C3679 1.429 . S
C3685 C3686 1.523 . S
C3686 C3667 1.368 . S
C3686 C3680 1.368 . S
C3686 C3685 1.523 . S
C3687 C3671 1.429 . S
C3687 C3683 1.429 . S
C3687 C3688 1.523 . S
C3688 C3672 1.368 . S
C3688 C3684 1.368 . S
C3688 C3687 1.523 . S
H3689 C3664 0.950 . S
H3690 C3666 0.950 . S
H3691 C3667 0.949 . S
H3692 C3669 0.950 . S
H3693 C3671 0.950 . S
C3694 C3695 1.349 . S
C3694 C3696 1.327 . S
C3694 H3719 0.950 . S
C3695 C3694 1.349 . S
C3695 C3711 1.349 . S
C3696 C3694 1.327 . S
C3696 C3715 1.429 . S
C3696 H3720 0.950 . S
C3697 C3714 1.574 . S
C3697 C3716 1.368 . S
C3697 H3721 0.949 . S
H3698 C3702 0.949 . S
C3699 C3700 1.349 . S
C3699 C3701 1.327 . S
C3699 H3722 0.950 . S
C3700 C3699 1.349 . S
C3700 C3712 1.349 . S
C3701 C3699 1.327 . S
C3701 C3717 1.429 . S
C3701 H3723 0.950 . S
C3702 H3698 0.949 . S
C3702 C3710 1.574 . S
C3702 C3718 1.368 . S
H3703 C3711 0.950 . S
H3704 C3709 0.950 . S
H3705 C3710 0.949 . S
H3706 C3712 0.950 . S
H3707 C3713 0.950 . S
H3708 C3714 0.949 . S
C3709 H3704 0.950 . S
C3709 C3711 1.327 . S
C3709 C3715 1.429 . S
C3710 C3702 1.574 . S
C3710 H3705 0.949 . S
C3710 C3716 1.368 . S
C3711 C3695 1.349 . S
C3711 H3703 0.950 . S
C3711 C3709 1.327 . S
C3712 C3700 1.349 . S
C3712 H3706 0.950 . S
C3712 C3713 1.327 . S
C3713 H3707 0.950 . S
C3713 C3712 1.327 . S
C3713 C3717 1.429 . S
C3714 C3697 1.574 . S
C3714 H3708 0.949 . S
C3714 C3718 1.368 . S
C3715 C3696 1.429 . S
C3715 C3709 1.429 . S
C3715 C3716 1.523 . S
C3716 C3697 1.368 . S
C3716 C3710 1.368 . S
C3716 C3715 1.523 . S
C3717 C3701 1.429 . S
C3717 C3713 1.429 . S
C3717 C3718 1.523 . S
C3718 C3702 1.368 . S
C3718 C3714 1.368 . S
C3718 C3717 1.523 . S
H3719 C3694 0.950 . S
H3720 C3696 0.950 . S
H3721 C3697 0.949 . S
H3722 C3699 0.950 . S
H3723 C3701 0.950 . S
C3724 C3725 1.349 . S
C3724 C3726 1.327 . S
C3724 H3749 0.950 . S
C3725 C3724 1.349 . S
C3725 C3741 1.349 . S
C3726 C3724 1.327 . S
C3726 C3745 1.429 . S
C3726 H3750 0.950 . S
C3727 C3744 1.574 . S
C3727 C3746 1.368 . S
C3727 H3751 0.949 . S
H3728 C3732 0.949 . S
C3729 C3730 1.349 . S
C3729 C3731 1.327 . S
C3729 H3752 0.950 . S
C3730 C3729 1.349 . S
C3730 C3742 1.349 . S
C3731 C3729 1.327 . S
C3731 C3747 1.429 . S
C3731 H3753 0.950 . S
C3732 H3728 0.949 . S
C3732 C3740 1.574 . S
C3732 C3748 1.368 . S
H3733 C3741 0.950 . S
H3734 C3739 0.950 . S
H3735 C3740 0.949 . S
H3736 C3742 0.950 . S
H3737 C3743 0.950 . S
H3738 C3744 0.949 . S
C3739 H3734 0.950 . S
C3739 C3741 1.327 . S
C3739 C3745 1.429 . S
C3740 C3732 1.574 . S
C3740 H3735 0.949 . S
C3740 C3746 1.368 . S
C3741 C3725 1.349 . S
C3741 H3733 0.950 . S
C3741 C3739 1.327 . S
C3742 C3730 1.349 . S
C3742 H3736 0.950 . S
C3742 C3743 1.327 . S
C3743 H3737 0.950 . S
C3743 C3742 1.327 . S
C3743 C3747 1.429 . S
C3744 C3727 1.574 . S
C3744 H3738 0.949 . S
C3744 C3748 1.368 . S
C3745 C3726 1.429 . S
C3745 C3739 1.429 . S
C3745 C3746 1.523 . S
C3746 C3727 1.368 . S
C3746 C3740 1.368 . S
C3746 C3745 1.523 . S
C3747 C3731 1.429 . S
C3747 C3743 1.429 . S
C3747 C3748 1.523 . S
C3748 C3732 1.368 . S
C3748 C3744 1.368 . S
C3748 C3747 1.523 . S
H3749 C3724 0.950 . S
H3750 C3726 0.950 . S
H3751 C3727 0.949 . S
H3752 C3729 0.950 . S
H3753 C3731 0.950 . S
C3754 C3755 1.349 . S
C3754 C3756 1.327 . S
C3754 H3779 0.950 . S
C3755 C3754 1.349 . S
C3755 C3771 1.349 . S
C3756 C3754 1.327 . S
C3756 C3775 1.429 . S
C3756 H3780 0.950 . S
C3757 C3774 1.574 . S
C3757 C3776 1.368 . S
C3757 H3781 0.949 . S
H3758 C3762 0.949 . S
C3759 C3760 1.349 . S
C3759 C3761 1.327 . S
C3759 H3782 0.950 . S
C3760 C3759 1.349 . S
C3760 C3772 1.349 . S
C3761 C3759 1.327 . S
C3761 C3777 1.429 . S
C3761 H3783 0.950 . S
C3762 H3758 0.949 . S
C3762 C3770 1.574 . S
C3762 C3778 1.368 . S
H3763 C3771 0.950 . S
H3764 C3769 0.950 . S
H3765 C3770 0.949 . S
H3766 C3772 0.950 . S
H3767 C3773 0.950 . S
H3768 C3774 0.949 . S
C3769 H3764 0.950 . S
C3769 C3771 1.327 . S
C3769 C3775 1.429 . S
C3770 C3762 1.574 . S
C3770 H3765 0.949 . S
C3770 C3776 1.368 . S
C3771 C3755 1.349 . S
C3771 H3763 0.950 . S
C3771 C3769 1.327 . S
C3772 C3760 1.349 . S
C3772 H3766 0.950 . S
C3772 C3773 1.327 . S
C3773 H3767 0.950 . S
C3773 C3772 1.327 . S
C3773 C3777 1.429 . S
C3774 C3757 1.574 . S
C3774 H3768 0.949 . S
C3774 C3778 1.368 . S
C3775 C3756 1.429 . S
C3775 C3769 1.429 . S
C3775 C3776 1.523 . S
C3776 C3757 1.368 . S
C3776 C3770 1.368 . S
C3776 C3775 1.523 . S
C3777 C3761 1.429 . S
C3777 C3773 1.429 . S
C3777 C3778 1.523 . S
C3778 C3762 1.368 . S
C3778 C3774 1.368 . S
C3778 C3777 1.523 . S
H3779 C3754 0.950 . S
H3780 C3756 0.950 . S
H3781 C3757 0.949 . S
H3782 C3759 0.950 . S
H3783 C3761 0.950 . S
C910 N364 2.023 . S
C905 C4 2.086 . S
C940 C391 1.041 . S
C935 C21 1.037 . S
C965 C26 1.988 . S
C970 C405 1.981 . S
C1000 N423 0.920 . S
C995 C43 0.931 . S
C1025 C54 0.883 . S
C1030 C428 0.883 . S
C1055 C60 1.989 . S
C1060 C368 1.960 . S
C1085 C76 0.894 . S
C1090 N387 0.892 . S
C1120 N400 2.145 . S
C1115 C81 2.148 . S
C1150 N446 1.744 . S
C1145 C10 1.805 . S
C1175 C15 1.271 . S
C1180 N469 1.246 . S
C1205 C27 1.786 . S
C1210 N492 1.755 . S
C1240 N525 1.309 . S
C1235 C38 1.352 . S
C1265 C49 1.321 . S
C1270 C552 1.322 . S
C1300 C575 1.850 . S
C1295 C59 1.845 . S
C1325 C71 1.183 . S
C1330 C598 1.185 1_655 S
C1360 C612 1.832 . S
C1355 C87 1.827 . S
C1385 C5 1.845 . S
C1390 C529 1.842 . S
C1415 C48 1.285 . S
C1420 N571 1.261 . S
C1450 N594 1.672 . S
C1445 C65 1.725 . S
C1475 C70 1.258 . S
C1480 N607 1.239 . S
C1510 N548 1.810 . S
C1505 C82 1.840 . S
C1540 C474 1.922 . S
C1535 C32 1.912 . S
C1565 C37 1.258 . S
C1570 C497 1.260 . S
C1600 C451 1.321 . S
C1595 C16 1.308 . S
C1630 C644 2.111 . S
C1625 C92 2.099 . S
C1655 C109 0.989 . S
C1660 C658 0.990 . S
C1685 C114 1.947 . S
C1690 N686 1.915 . S
C1720 N699 0.857 . S
C1715 C131 0.868 . S
C1745 C142 0.926 . S
C1750 C704 0.926 . S
C1775 C148 1.917 . S
C1780 N640 1.897 . S
C1805 C164 0.979 . S
C1810 N653 0.970 . S
C1835 C169 2.056 . S
C1840 C690 2.068 . S
C1870 N538 1.774 . S
C1865 C98 1.824 . S
C1895 C103 1.230 . S
C1900 N722 1.198 . S
C1930 N584 1.714 . S
C1925 C115 1.739 . S
C1955 C126 1.308 . S
C1960 C759 1.308 . S
C1985 C137 1.452 . S
C1990 C460 1.457 . S
C2020 C773 1.933 . S
C2015 C147 1.924 . S
C2045 C159 1.284 . S
C2050 C506 1.288 . S
C2080 N791 1.748 . S
C2075 C175 1.801 . S
C2105 C93 1.822 . S
C2110 N755 1.802 . S
C2140 N768 1.241 . S
C2135 C136 1.276 . S
C2165 C153 1.730 . S
C2170 N502 1.687 . S
C2200 C796 1.155 . S
C2195 C158 1.154 . S
C2225 C170 1.817 . S
C2230 N456 1.797 . S
C2255 C120 1.816 . S
C2260 C727 1.825 . S
C2285 C125 1.303 . S
C2290 C589 1.303 . S
C2315 C104 1.302 . S
C2320 C543 1.321 . S
C2345 C180 2.138 . S
C2350 C681 2.134 . S
C2380 C713 0.973 . S
C2375 C197 0.972 . S
C2405 C202 1.938 . S
C2410 N630 1.852 . S
C2435 C219 0.890 . S
C2440 N663 0.880 . S
C2465 C230 0.911 . S
C2470 C667 0.909 . S
C2495 C236 2.052 . S
C2500 N676 1.968 . S
C2530 N709 0.870 . S
C2525 C252 0.874 . S
C2555 C257 2.191 . S
C2560 C635 2.180 . S
C2590 N824 1.804 . S
C2585 C186 1.849 . S
C2615 C191 1.195 . S
C2620 N561 1.167 . S
C2650 N847 1.642 . S
C2645 C203 1.674 . S
C2675 C214 1.345 . S
C2680 N617 1.306 . S
C2705 C225 1.347 . S
C2710 C865 1.351 . S
C2735 C235 1.946 . S
C2740 C483 1.949 . S
C2770 N883 1.177 . S
C2765 C247 1.204 . S
C2795 C263 1.860 . S
C2800 C520 1.870 . S
C2830 C621 1.880 . S
C2825 C181 1.881 . S
C2860 N479 1.275 . S
C2855 C224 1.305 . S
C2885 C241 1.833 . S
C2890 C888 1.832 . S
C2915 C246 1.181 . S
C2920 N515 1.158 . S
C2950 N860 1.807 . S
C2945 C258 1.846 . S
C2980 C566 1.811 . S
C2975 C208 1.797 . S
C3010 C851 1.291 . S
C3005 C213 1.291 . S
C3040 C828 1.282 . S
C3035 C192 1.264 . S
C3065 C268 2.047 . S
C3070 N410 1.982 . S
C3095 C285 0.957 . S
C3100 C437 0.954 . S
C3130 C359 1.991 . S
C3125 C290 2.002 . S
C3160 N377 0.827 . S
C3155 C307 0.836 . S
C3190 C382 0.985 . S
C3185 C318 0.989 . S
C3220 C414 1.902 . S
C3215 C324 1.932 . S
C3250 N433 1.000 . S
C3245 C340 1.012 . S
C3275 C345 2.120 . S
C3280 N354 2.118 . S
C3305 C274 1.754 . S
C3310 N870 1.712 . S
C3340 N778 1.160 . S
C3335 C279 1.183 . S
C3370 C897 1.882 . S
C3365 C291 1.873 . S
C3400 C805 1.146 . S
C3395 C302 1.146 . S
C3425 C313 1.467 . S
C3430 C819 1.471 . S
C3460 C736 1.877 . S
C3455 C323 1.874 . S
C3490 C842 1.376 . S
C3485 C335 1.372 . S
C3515 C351 1.833 . S
C3520 N745 1.778 . S
C3550 N801 1.748 . S
C3545 C269 1.767 . S
C3580 N732 1.212 . S
C3575 C312 1.235 . S
C3610 N837 1.635 . S
C3605 C329 1.675 . S
C3635 C334 1.218 . S
C3640 C750 1.215 . S
C3665 C346 1.839 . S
C3670 N814 1.801 . S
C3695 C296 1.936 . S
C3700 C782 1.941 . S
C3725 C301 1.266 . S
C3730 N893 1.242 . S
C3760 C874 1.284 . S
C3755 C280 1.268 . S
