# Generated by pormake.
# Topology cml, (3,6)-cn, num edge types: 1
# Building blocks:
#     Node 0, Type 0, BuildingBlock: MIDCAF_clean_linker_0, # of connection points: 3
#     Node 1, Type 0, BuildingBlock: MIDCAF_clean_linker_0, # of connection points: 3
#     Node 2, Type 0, BuildingBlock: MIDCAF_clean_linker_0, # of connection points: 3
#     Node 3, Type 0, BuildingBlock: MIDCAF_clean_linker_0, # of connection points: 3
#     Node 4, Type 0, BuildingBlock: MIDCAF_clean_linker_0, # of connection points: 3
#     Node 5, Type 0, BuildingBlock: MIDCAF_clean_linker_0, # of connection points: 3
#     Node 6, Type 0, BuildingBlock: MIDCAF_clean_linker_0, # of connection points: 3
#     Node 7, Type 0, BuildingBlock: MIDCAF_clean_linker_0, # of connection points: 3
#     Node 8, Type 1, BuildingBlock: OJICUG_clean_sbu_0, # of connection points: 6
#     Node 9, Type 1, BuildingBlock: OJICUG_clean_sbu_0, # of connection points: 6
#     Node 10, Type 1, BuildingBlock: OJICUG_clean_sbu_0, # of connection points: 6
#     Node 11, Type 1, BuildingBlock: OJICUG_clean_sbu_0, # of connection points: 6
#     Edge 12, Type (0, 1), BuildingBlock: EYOCIG_clean_linker_4, # of connection points: 2
#     Edge 13, Type (0, 1), BuildingBlock: EYOCIG_clean_linker_4, # of connection points: 2
#     Edge 14, Type (0, 1), BuildingBlock: EYOCIG_clean_linker_4, # of connection points: 2
#     Edge 15, Type (0, 1), BuildingBlock: EYOCIG_clean_linker_4, # of connection points: 2
#     Edge 16, Type (0, 1), BuildingBlock: EYOCIG_clean_linker_4, # of connection points: 2
#     Edge 17, Type (0, 1), BuildingBlock: EYOCIG_clean_linker_4, # of connection points: 2
#     Edge 18, Type (0, 1), BuildingBlock: EYOCIG_clean_linker_4, # of connection points: 2
#     Edge 19, Type (0, 1), BuildingBlock: EYOCIG_clean_linker_4, # of connection points: 2
#     Edge 20, Type (0, 1), BuildingBlock: EYOCIG_clean_linker_4, # of connection points: 2
#     Edge 21, Type (0, 1), BuildingBlock: EYOCIG_clean_linker_4, # of connection points: 2
#     Edge 22, Type (0, 1), BuildingBlock: EYOCIG_clean_linker_4, # of connection points: 2
#     Edge 23, Type (0, 1), BuildingBlock: EYOCIG_clean_linker_4, # of connection points: 2
#     Edge 24, Type (0, 1), BuildingBlock: EYOCIG_clean_linker_4, # of connection points: 2
#     Edge 25, Type (0, 1), BuildingBlock: EYOCIG_clean_linker_4, # of connection points: 2
#     Edge 26, Type (0, 1), BuildingBlock: EYOCIG_clean_linker_4, # of connection points: 2
#     Edge 27, Type (0, 1), BuildingBlock: EYOCIG_clean_linker_4, # of connection points: 2
#     Edge 28, Type (0, 1), BuildingBlock: EYOCIG_clean_linker_4, # of connection points: 2
#     Edge 29, Type (0, 1), BuildingBlock: EYOCIG_clean_linker_4, # of connection points: 2
#     Edge 30, Type (0, 1), BuildingBlock: EYOCIG_clean_linker_4, # of connection points: 2
#     Edge 31, Type (0, 1), BuildingBlock: EYOCIG_clean_linker_4, # of connection points: 2
#     Edge 32, Type (0, 1), BuildingBlock: EYOCIG_clean_linker_4, # of connection points: 2
#     Edge 33, Type (0, 1), BuildingBlock: EYOCIG_clean_linker_4, # of connection points: 2
#     Edge 34, Type (0, 1), BuildingBlock: EYOCIG_clean_linker_4, # of connection points: 2
#     Edge 35, Type (0, 1), BuildingBlock: EYOCIG_clean_linker_4, # of connection points: 2
# Relax obj value: 0.074
# Max RMSD: 0.086
# Mean RMSD: 0.082
data_MOF--net-cml--node1-OJICUG_clean_sbu_0--node2-MIDCAF_clean_linker_0--edge1-EYOCIG_clean_linker_4
_symmetry_space_group_name_H-M    P1
_symmetry_Int_Tables_number       1
_symmetry_cell_setting            triclinic
loop_
_symmetry_equiv_pos_as_xyz
'x, y, z'
_cell_length_a     38.788038
_cell_length_b     40.294656
_cell_length_c     37.67021
_cell_angle_alpha  90.058135
_cell_angle_beta   90.010484
_cell_angle_gamma 89.724795
loop_
_atom_site_label
_atom_site_type_symbol
_atom_site_fract_x
_atom_site_fract_y
_atom_site_fract_z
_atom_type_partial_charge
C0 C 0.33956 0.38488 0.11887 0.0
C1 C 0.33118 0.35436 0.1341 0.0
C2 C 0.3038 0.33581 0.12031 0.0
C3 C 0.2859 0.34713 0.09033 0.0
H4 H 0.20509 0.32605 0.02036 0.0
H5 H 0.16283 0.291 0.99011 0.0
H6 H 0.17149 0.35117 0.89604 0.0
H7 H 0.21359 0.38641 0.92574 0.0
H8 H 0.2609 0.45059 0.92591 0.0
H9 H 0.29125 0.49367 0.89221 0.0
H10 H 0.36934 0.49814 0.97347 0.0
H11 H 0.33961 0.4556 0.00727 0.0
H12 H 0.32961 0.41956 0.07738 0.0
H13 H 0.36061 0.39953 0.12936 0.0
H14 H 0.29703 0.31215 0.13195 0.0
H15 H 0.26557 0.33185 0.07945 0.0
N16 N 0.25324 0.37021 0.02487 0.0
N17 N 0.25461 0.40496 0.97485 0.0
N18 N 0.29325 0.41343 0.02162 0.0
C19 C 0.2405 0.37891 0.99249 0.0
C20 C 0.28098 0.42239 0.9893 0.0
C21 C 0.27958 0.38754 0.03968 0.0
C22 C 0.21304 0.35896 0.97544 0.0
C23 C 0.19792 0.33202 0.99331 0.0
C24 C 0.17377 0.31195 0.97612 0.0
C25 C 0.16446 0.31852 0.94089 0.0
C26 C 0.1786 0.34576 0.92326 0.0
C27 C 0.20266 0.36587 0.94037 0.0
C28 C 0.29779 0.44955 0.96935 0.0
C29 C 0.28441 0.4609 0.93673 0.0
C30 C 0.30162 0.48551 0.91747 0.0
C31 C 0.33238 0.49888 0.93057 0.0
C32 C 0.34549 0.48807 0.96313 0.0
C33 C 0.32838 0.4637 0.98241 0.0
C34 C 0.29532 0.3771 0.07381 0.0
C35 C 0.3218 0.39621 0.08904 0.0
C36 C 0.66758 0.59185 0.61901 0.0
C37 C 0.67618 0.62228 0.63441 0.0
C38 C 0.70361 0.64074 0.62065 0.0
C39 C 0.72136 0.62944 0.59054 0.0
H40 H 0.80189 0.65056 0.52016 0.0
H41 H 0.84432 0.68532 0.48987 0.0
H42 H 0.83547 0.6248 0.39594 0.0
H43 H 0.79321 0.58985 0.42569 0.0
H44 H 0.74644 0.52535 0.42633 0.0
H45 H 0.71633 0.48197 0.39277 0.0
H46 H 0.63779 0.47809 0.47357 0.0
H47 H 0.6673 0.52095 0.50725 0.0
H48 H 0.67723 0.55727 0.57729 0.0
H49 H 0.64649 0.57727 0.62947 0.0
H50 H 0.71054 0.66433 0.63241 0.0
H51 H 0.74175 0.64464 0.57971 0.0
N52 N 0.75367 0.60643 0.52482 0.0
N53 N 0.75232 0.57147 0.47488 0.0
N54 N 0.71375 0.56311 0.52169 0.0
C55 C 0.76639 0.59763 0.49243 0.0
C56 C 0.72601 0.55405 0.48938 0.0
C57 C 0.72739 0.58909 0.53969 0.0
C58 C 0.79385 0.61749 0.47532 0.0
C59 C 0.80905 0.64447 0.49314 0.0
C60 C 0.83331 0.66436 0.47591 0.0
C61 C 0.84263 0.6576 0.44072 0.0
C62 C 0.82837 0.63035 0.42314 0.0
C63 C 0.80421 0.61041 0.44027 0.0
C64 C 0.70931 0.52673 0.46953 0.0
C65 C 0.72288 0.51512 0.43708 0.0
C66 C 0.70581 0.49032 0.4179 0.0
C67 C 0.675 0.47704 0.43091 0.0
C68 C 0.66169 0.4881 0.46331 0.0
C69 C 0.67867 0.51265 0.48251 0.0
C70 C 0.71174 0.59957 0.57387 0.0
C71 C 0.6852 0.58054 0.58906 0.0
C72 C 0.66715 0.38712 0.11801 0.0
C73 C 0.67853 0.35873 0.13588 0.0
C74 C 0.70945 0.34334 0.12562 0.0
C75 C 0.72814 0.35561 0.09664 0.0
H76 H 0.80103 0.32721 0.02179 0.0
H77 H 0.84102 0.29056 0.99011 0.0
H78 H 0.84706 0.36102 0.90438 0.0
H79 H 0.80718 0.39796 0.93559 0.0
H80 H 0.74441 0.44889 0.92541 0.0
H81 H 0.71105 0.48951 0.89092 0.0
H82 H 0.65162 0.5141 0.98404 0.0
H83 H 0.68453 0.474 0.0187 0.0
H84 H 0.6756 0.421 0.07555 0.0
H85 H 0.64333 0.39933 0.12571 0.0
H86 H 0.71864 0.32141 0.13936 0.0
H87 H 0.75149 0.3428 0.08863 0.0
N88 N 0.75979 0.37712 0.03009 0.0
N89 N 0.76006 0.4128 0.98078 0.0
N90 N 0.72053 0.42132 0.02681 0.0
C91 C 0.77345 0.38614 -0.00175 0.0
C92 C 0.73368 0.43062 0.995 0.0
C93 C 0.73333 0.39474 0.04462 0.0
C94 C 0.80047 0.36544 0.9811 0.0
C95 C 0.81105 0.33516 -0.00363 0.0
C96 C 0.83386 0.31413 0.97831 0.0
C97 C 0.84648 0.32308 0.94487 0.0
C98 C 0.83725 0.3537 0.93013 0.0
C99 C 0.81444 0.37475 0.94807 0.0
C100 C 0.71695 0.45787 0.97481 0.0
C101 C 0.72463 0.4633 0.93871 0.0
C102 C 0.70561 0.48646 0.91894 0.0
C103 C 0.67887 0.50447 0.93506 0.0
C104 C 0.67218 0.50026 0.97123 0.0
C105 C 0.69103 0.47722 0.99096 0.0
C106 C 0.71609 0.38346 0.07765 0.0
C107 C 0.68574 0.39946 0.08927 0.0
C108 C 0.33991 0.58918 0.61822 0.0
C109 C 0.32847 0.61749 0.63624 0.0
C110 C 0.29756 0.6329 0.626 0.0
C111 C 0.27896 0.62074 0.59687 0.0
H112 H 0.20669 0.64974 0.52149 0.0
H113 H 0.16678 0.68641 0.48976 0.0
H114 H 0.16067 0.61578 0.40403 0.0
H115 H 0.20044 0.57884 0.43529 0.0
H116 H 0.26308 0.52789 0.42507 0.0
H117 H 0.29643 0.48726 0.39051 0.0
H118 H 0.35579 0.46258 0.48363 0.0
H119 H 0.32289 0.50269 0.51836 0.0
H120 H 0.33161 0.55548 0.57549 0.0
H121 H 0.36373 0.57696 0.6259 0.0
H122 H 0.28832 0.65477 0.63987 0.0
H123 H 0.25562 0.63357 0.58887 0.0
N124 N 0.24763 0.59958 0.52996 0.0
N125 N 0.24749 0.56402 0.48047 0.0
N126 N 0.2868 0.55529 0.52665 0.0
C127 C 0.23409 0.59066 0.49799 0.0
C128 C 0.27376 0.5461 0.49473 0.0
C129 C 0.27397 0.58185 0.54453 0.0
C130 C 0.20719 0.61143 0.4808 0.0
C131 C 0.19666 0.64176 0.49605 0.0
C132 C 0.17391 0.66281 0.47796 0.0
C133 C 0.16129 0.6538 0.44451 0.0
C134 C 0.17049 0.62314 0.42978 0.0
C135 C 0.19324 0.60209 0.44776 0.0
C136 C 0.29051 0.51886 0.47448 0.0
C137 C 0.28285 0.51346 0.43836 0.0
C138 C 0.30186 0.4903 0.41854 0.0
C139 C 0.32857 0.47226 0.43464 0.0
C140 C 0.33525 0.47645 0.47083 0.0
C141 C 0.31641 0.49948 0.49061 0.0
C142 C 0.29109 0.59299 0.57772 0.0
C143 C 0.32141 0.57695 0.58933 0.0
C144 C 0.83959 0.88465 0.11901 0.0
C145 C 0.83094 0.85426 0.1344 0.0
C146 C 0.80347 0.83584 0.12062 0.0
C147 C 0.78572 0.84714 0.09053 0.0
H148 H 0.70503 0.82611 0.0203 0.0
H149 H 0.6625 0.79137 0.99004 0.0
H150 H 0.67132 0.85172 0.89612 0.0
H151 H 0.71368 0.88665 0.92583 0.0
H152 H 0.76088 0.95065 0.92614 0.0
H153 H 0.79112 -0.00624 0.89241 0.0
H154 H 0.86949 -0.00189 0.97339 0.0
H155 H 0.83985 0.95552 0.00724 0.0
H156 H 0.82999 0.9192 0.07732 0.0
H157 H 0.86073 0.89921 0.12948 0.0
H158 H 0.79648 0.81228 0.13237 0.0
H159 H 0.76529 0.83196 0.07969 0.0
N160 N 0.75335 0.87015 0.0249 0.0
N161 N 0.75476 0.90497 0.97493 0.0
N162 N 0.79343 0.91333 0.02168 0.0
C163 C 0.74061 0.87891 0.99253 0.0
C164 C 0.78115 0.92234 0.98938 0.0
C165 C 0.77973 0.88743 0.03972 0.0
C166 C 0.71307 0.85909 0.97546 0.0
C167 C 0.69784 0.83217 0.99329 0.0
C168 C 0.67353 0.81229 0.97608 0.0
C169 C 0.66417 0.81901 0.9409 0.0
C170 C 0.67845 0.8462 0.92332 0.0
C171 C 0.70266 0.86613 0.94042 0.0
C172 C 0.79792 0.94953 0.96945 0.0
C173 C 0.78443 0.96094 0.9369 0.0
C174 C 0.80158 0.98557 0.91762 0.0
C175 C 0.83238 -0.0011 0.93062 0.0
C176 C 0.8456 0.98805 0.96313 0.0
C177 C 0.82855 0.96367 0.98243 0.0
C178 C 0.79539 0.87697 0.07388 0.0
C179 C 0.82199 0.89597 0.08907 0.0
C180 C 0.16747 0.09212 0.61866 0.0
C181 C 0.17596 0.12263 0.63396 0.0
C182 C 0.20338 0.14109 0.62019 0.0
C183 C 0.22122 0.12972 0.59017 0.0
H184 H 0.30204 0.15056 0.51997 0.0
H185 H 0.34446 0.18531 0.48965 0.0
H186 H 0.33556 0.12476 0.39574 0.0
H187 H 0.29331 0.08983 0.42552 0.0
H188 H 0.24652 0.02525 0.42626 0.0
H189 H 0.21635 0.98186 0.39276 0.0
H190 H 0.13781 0.97818 0.47357 0.0
H191 H 0.16738 0.02103 0.50718 0.0
H192 H 0.1773 0.05741 0.57713 0.0
H193 H 0.14639 0.07753 0.62914 0.0
H194 H 0.21023 0.16474 0.63188 0.0
H195 H 0.2416 0.14493 0.57932 0.0
N196 N 0.25374 0.10651 0.52461 0.0
N197 N 0.25244 0.07145 0.47475 0.0
N198 N 0.21382 0.06319 0.52154 0.0
C199 C 0.2665 0.09764 0.49227 0.0
C200 C 0.22611 0.05406 0.48927 0.0
C201 C 0.22744 0.08921 0.53949 0.0
C202 C 0.29397 0.11748 0.47514 0.0
C203 C 0.30919 0.14446 0.49294 0.0
C204 C 0.33344 0.16435 0.4757 0.0
C205 C 0.34274 0.15757 0.44051 0.0
C206 C 0.32847 0.13032 0.42294 0.0
C207 C 0.30432 0.11039 0.44009 0.0
C208 C 0.20939 0.02672 0.46946 0.0
C209 C 0.22295 0.01505 0.43703 0.0
C210 C 0.20584 -0.00975 0.41788 0.0
C211 C 0.17501 0.97702 0.4309 0.0
C212 C 0.16172 0.98814 0.4633 0.0
C213 C 0.17874 0.01269 0.48246 0.0
C214 C 0.21172 0.09977 0.57361 0.0
C215 C 0.18518 0.08074 0.58881 0.0
C216 C 0.16694 0.88765 0.11801 0.0
C217 C 0.17815 0.85921 0.1359 0.0
C218 C 0.20903 0.8437 0.12571 0.0
C219 C 0.22783 0.85588 0.09675 0.0
H220 H 0.3003 0.82675 0.02158 0.0
H221 H 0.33991 0.78985 0.98968 0.0
H222 H 0.34649 0.86055 0.90422 0.0
H223 H 0.30703 0.89772 0.93565 0.0
H224 H 0.24445 0.94848 0.92522 0.0
H225 H 0.21102 -0.01124 0.89038 0.0
H226 H 0.1515 0.01392 0.98328 0.0
H227 H 0.18449 0.97414 0.01829 0.0
H228 H 0.17563 0.92148 0.07555 0.0
H229 H 0.14316 0.89996 0.12565 0.0
H230 H 0.2181 0.82173 0.13947 0.0
H231 H 0.25113 0.84297 0.08879 0.0
N232 N 0.25959 0.87712 0.03016 0.0
N233 N 0.25994 0.91265 0.98072 0.0
N234 N 0.22052 0.92149 0.02677 0.0
C235 C 0.27324 0.886 -0.00175 0.0
C236 C 0.23367 0.93062 0.99491 0.0
C237 C 0.23324 0.89491 0.04467 0.0
C238 C 0.30006 0.86511 0.98104 0.0
C239 C 0.31037 0.83469 -0.00383 0.0
C240 C 0.33295 0.81351 0.97798 0.0
C241 C 0.3456 0.82248 0.94455 0.0
C242 C 0.33663 0.85322 0.92995 0.0
C243 C 0.31407 0.87441 0.94802 0.0
C244 C 0.21695 0.95776 0.97454 0.0
C245 C 0.22463 0.96295 0.9384 0.0
C246 C 0.20557 0.98591 0.91842 0.0
C247 C 0.17878 0.00397 0.93438 0.0
C248 C 0.17209 3e-05 0.97059 0.0
C249 C 0.19099 0.97719 0.99053 0.0
C250 C 0.21593 0.88377 0.07773 0.0
C251 C 0.18565 0.8999 0.0893 0.0
C252 C 0.83962 0.08925 0.61853 0.0
C253 C 0.82811 0.11756 0.63653 0.0
C254 C 0.79716 0.13289 0.62627 0.0
C255 C 0.77861 0.12069 0.59712 0.0
H256 H 0.70703 0.15008 0.52121 0.0
H257 H 0.66732 0.18679 0.48926 0.0
H258 H 0.66096 0.11584 0.40386 0.0
H259 H 0.70053 0.07886 0.43533 0.0
H260 H 0.76288 0.02774 0.42537 0.0
H261 H 0.7962 0.98706 0.39086 0.0
H262 H 0.85551 0.9624 0.48402 0.0
H263 H 0.82264 0.00257 0.51871 0.0
H264 H 0.83142 0.05554 0.5758 0.0
H265 H 0.86346 0.07709 0.62623 0.0
H266 H 0.78787 0.15475 0.64012 0.0
H267 H 0.75526 0.13347 0.5891 0.0
N268 N 0.74757 0.09965 0.53006 0.0
N269 N 0.74745 0.06404 0.48062 0.0
N270 N 0.78656 0.0552 0.52696 0.0
C271 C 0.73411 0.09075 0.49805 0.0
C272 C 0.77359 0.04603 0.495 0.0
C273 C 0.77378 0.08183 0.54476 0.0
C274 C 0.70737 0.1116 0.48071 0.0
C275 C 0.697 0.14205 0.4958 0.0
C276 C 0.67437 0.16312 0.47758 0.0
C277 C 0.66172 0.15402 0.44417 0.0
C278 C 0.6708 0.12327 0.42958 0.0
C279 C 0.69343 0.10219 0.44768 0.0
C280 C 0.7903 0.01874 0.4748 0.0
C281 C 0.78263 0.0133 0.43869 0.0
C282 C 0.80162 -0.00989 0.4189 0.0
C283 C 0.82831 0.97207 0.43503 0.0
C284 C 0.83498 0.97627 0.47121 0.0
C285 C 0.81616 -0.00066 0.49096 0.0
C286 C 0.79083 0.09296 0.57799 0.0
C287 C 0.82116 0.07698 0.58963 0.0
Sc288 Sc 0.00489 0.77701 0.29708 0.0
Sc289 Sc 0.00379 0.8647 0.30048 0.0
Sc290 Sc 0.00433 0.81841 0.37985 0.0
O291 O 0.00434 0.81996 0.32582 0.0
C292 C 0.95412 0.75875 0.36075 0.0
C293 C 0.95203 0.82225 0.25339 0.0
C294 C 0.95187 0.87792 0.36442 0.0
C295 C 0.05631 0.82296 0.25289 0.0
C296 C 0.05537 0.75872 0.36092 0.0
C297 C 0.05625 0.87764 0.36393 0.0
O298 O 0.96562 0.75423 0.32951 0.0
O299 O 0.96374 0.84966 0.26461 0.0
O300 O 0.96407 0.85532 0.3843 0.0
O301 O 0.045 0.79464 0.26192 0.0
O302 O 0.0436 0.78067 0.3819 0.0
O303 O 0.04388 0.88451 0.33363 0.0
O304 O 0.04472 0.75463 0.32933 0.0
O305 O 0.04383 0.85014 0.26416 0.0
O306 O 0.04463 0.85492 0.38388 0.0
O307 O 0.96429 0.79414 0.26216 0.0
O308 O 0.96496 0.78112 0.38163 0.0
O309 O 0.9636 0.88449 0.33383 0.0
Sc310 Sc 1.00209 0.19925 0.79725 0.0
Sc311 Sc 1.00316 0.11154 0.79991 0.0
Sc312 Sc 1.00282 0.15741 0.87966 0.0
O313 O 1.00269 0.15615 0.82562 0.0
C314 C 0.05315 0.21703 0.86086 0.0
C315 C 0.05469 0.15421 0.75291 0.0
C316 C 0.0552 0.09791 0.86363 0.0
C317 C 0.95034 0.1536 0.75303 0.0
C318 C 0.95193 0.21738 0.86143 0.0
C319 C 0.95088 0.09827 0.86338 0.0
O320 O 0.04161 0.22171 0.82967 0.0
O321 O 0.04306 0.12675 0.76399 0.0
O322 O 0.043 0.12037 0.88372 0.0
O323 O 0.96171 0.18187 0.76223 0.0
O324 O 0.96363 0.19524 0.88217 0.0
O325 O 0.96322 0.09151 0.83304 0.0
O326 O 0.96254 0.22161 0.82986 0.0
O327 O 0.96293 0.12635 0.76393 0.0
O328 O 0.96246 0.12095 0.88346 0.0
O329 O 0.04244 0.18227 0.76194 0.0
O330 O 0.04227 0.19462 0.88162 0.0
O331 O 0.04347 0.09157 0.83295 0.0
Sc332 Sc 0.50506 0.27693 0.29688 0.0
Sc333 Sc 0.50406 0.36462 0.30019 0.0
Sc334 Sc 0.50444 0.31841 0.3796 0.0
O335 O 0.50451 0.3199 0.32557 0.0
C336 C 0.45423 0.25873 0.36052 0.0
C337 C 0.45235 0.32218 0.25302 0.0
C338 C 0.45203 0.37794 0.36403 0.0
C339 C 0.55663 0.32277 0.25276 0.0
C340 C 0.55552 0.25874 0.36074 0.0
C341 C 0.55639 0.37761 0.36372 0.0
O342 O 0.46573 0.2542 0.32928 0.0
O343 O 0.4641 0.34958 0.26422 0.0
O344 O 0.46417 0.35534 0.38394 0.0
O345 O 0.54522 0.29449 0.26176 0.0
O346 O 0.54374 0.28069 0.3817 0.0
O347 O 0.5441 0.38445 0.33339 0.0
O348 O 0.54485 0.25459 0.32917 0.0
O349 O 0.5442 0.34998 0.264 0.0
O350 O 0.54473 0.35492 0.38368 0.0
O351 O 0.46453 0.29406 0.26188 0.0
O352 O 0.46508 0.28111 0.38138 0.0
O353 O 0.46382 0.38447 0.33344 0.0
Sc354 Sc 0.50206 0.69928 0.79717 0.0
Sc355 Sc 0.50339 0.61158 0.80037 0.0
Sc356 Sc 0.50262 0.65786 0.87984 0.0
O357 O 0.5027 0.65632 0.8258 0.0
C358 C 0.5527 0.71767 0.86092 0.0
C359 C 0.555 0.65416 0.75336 0.0
C360 C 0.55533 0.59853 0.86433 0.0
C361 C 0.45066 0.65323 0.75298 0.0
C362 C 0.45142 0.7174 0.86095 0.0
C363 C 0.45099 0.5984 0.86374 0.0
O364 O 0.54131 0.72211 0.82963 0.0
O365 O 0.54337 0.62673 0.76451 0.0
O366 O 0.54304 0.62109 0.88424 0.0
O367 O 0.46195 0.68156 0.76204 0.0
O368 O 0.46316 0.69544 0.88188 0.0
O369 O 0.46339 0.5916 0.83344 0.0
O370 O 0.46221 0.72158 0.82944 0.0
O371 O 0.46323 0.62606 0.76413 0.0
O372 O 0.46248 0.62118 0.88375 0.0
O373 O 0.54267 0.68224 0.76219 0.0
O374 O 0.54182 0.69532 0.88176 0.0
O375 O 0.54365 0.59193 0.8337 0.0
C376 C 0.12186 0.2789 0.90645 0.0
C377 C 0.14126 0.29682 0.92235 0.0
C378 C 0.09891 0.25778 0.88836 0.0
C379 C 0.07806 0.23978 0.87469 0.0
C380 C 0.88546 0.69687 0.40623 0.0
C381 C 0.86596 0.6791 0.42215 0.0
C382 C 0.90846 0.71789 0.38813 0.0
C383 C 0.92927 0.73592 0.37446 0.0
C384 C 0.88584 0.28149 0.9085 0.0
C385 C 0.8679 0.30043 0.9251 0.0
C386 C 0.90747 0.25931 0.88986 0.0
C387 C 0.9277 0.24072 0.87581 0.0
C388 C 0.1219 0.69516 0.40797 0.0
C389 C 0.13986 0.67639 0.42472 0.0
C390 C 0.10017 0.71707 0.38915 0.0
C391 C 0.07981 0.73548 0.37506 0.0
C392 C 0.62127 0.7797 0.90646 0.0
C393 C 0.6408 0.79749 0.92235 0.0
C394 C 0.59827 0.75862 0.88837 0.0
C395 C 0.57751 0.74054 0.87469 0.0
C396 C 0.38557 0.19685 0.406 0.0
C397 C 0.36607 0.17908 0.42192 0.0
C398 C 0.40857 0.21788 0.3879 0.0
C399 C 0.42937 0.2359 0.37423 0.0
C400 C 0.38471 0.78093 0.90788 0.0
C401 C 0.36688 0.79979 0.92468 0.0
C402 C 0.40644 0.75896 0.88908 0.0
C403 C 0.42689 0.74059 0.87506 0.0
C404 C 0.62235 0.19534 0.4076 0.0
C405 C 0.6403 0.17656 0.42433 0.0
C406 C 0.60052 0.21724 0.38886 0.0
C407 C 0.58007 0.23559 0.37486 0.0
C408 C 0.37143 0.54228 0.8976 0.0
C409 C 0.35183 0.52263 0.91052 0.0
C410 C 0.39791 0.56312 0.88526 0.0
C411 C 0.42214 0.57943 0.87576 0.0
C412 C 0.6361 0.43344 0.39791 0.0
C413 C 0.65564 0.45316 0.41086 0.0
C414 C 0.60961 0.41264 0.38547 0.0
C415 C 0.58532 0.39646 0.37587 0.0
C416 C 0.6357 0.54387 0.90083 0.0
C417 C 0.65644 0.52561 0.91459 0.0
C418 C 0.60862 0.56368 0.88734 0.0
C419 C 0.58429 0.57964 0.87693 0.0
C420 C 0.37173 0.43283 0.40037 0.0
C421 C 0.35099 0.45111 0.41413 0.0
C422 C 0.3988 0.41297 0.38691 0.0
C423 C 0.4231 0.39693 0.37654 0.0
C424 C 0.87132 0.04227 0.89745 0.0
C425 C 0.85178 0.02264 0.91049 0.0
C426 C 0.89776 0.06307 0.88498 0.0
C427 C 0.92201 0.07931 0.87541 0.0
C428 C 0.13603 0.93344 0.39798 0.0
C429 C 0.15561 0.95315 0.41089 0.0
C430 C 0.10951 0.91266 0.38559 0.0
C431 C 0.08519 0.89648 0.37602 0.0
C432 C 0.13552 0.04301 0.89982 0.0
C433 C 0.15631 0.02489 0.91371 0.0
C434 C 0.10842 0.0628 0.88634 0.0
C435 C 0.08412 0.07886 0.87603 0.0
C436 C 0.87148 0.93265 0.40079 0.0
C437 C 0.85074 0.95092 0.41453 0.0
C438 C 0.89859 0.91284 0.38735 0.0
C439 C 0.92291 0.89684 0.37697 0.0
C440 C 0.37268 0.3336 0.18504 0.0
C441 C 0.35262 0.34139 0.16205 0.0
C442 C 0.39928 0.32688 0.20955 0.0
C443 C 0.42346 0.32338 0.2293 0.0
C444 C 0.63484 0.64298 0.68553 0.0
C445 C 0.65487 0.63526 0.66248 0.0
C446 C 0.6082 0.64962 0.71003 0.0
C447 C 0.58395 0.65305 0.72971 0.0
C448 C 0.63653 0.33618 0.18541 0.0
C449 C 0.6571 0.34484 0.1633 0.0
C450 C 0.60969 0.32857 0.20936 0.0
C451 C 0.58557 0.32444 0.22905 0.0
C452 C 0.37049 0.63986 0.68589 0.0
C453 C 0.34988 0.63132 0.66375 0.0
C454 C 0.39743 0.64737 0.70978 0.0
C455 C 0.42163 0.65148 0.72939 0.0
C456 C 0.87222 0.83355 0.18553 0.0
C457 C 0.85222 0.84129 0.16247 0.0
C458 C 0.89884 0.82688 0.21006 0.0
C459 C 0.92308 0.82342 0.22974 0.0
C460 C 0.13446 0.14332 0.68494 0.0
C461 C 0.15457 0.13563 0.66195 0.0
C462 C 0.10779 0.14986 0.70944 0.0
C463 C 0.08359 0.15318 0.7292 0.0
C464 C 0.13602 0.83669 0.18534 0.0
C465 C 0.1566 0.84538 0.16326 0.0
C466 C 0.10923 0.82897 0.20932 0.0
C467 C 0.08518 0.82472 0.22909 0.0
C468 C 0.87006 0.14017 0.68613 0.0
C469 C 0.84949 0.13149 0.664 0.0
C470 C 0.89699 0.14784 0.70997 0.0
C471 C 0.92124 0.15199 0.72952 0.0
loop_
_geom_bond_atom_site_label_1
_geom_bond_atom_site_label_2
_geom_bond_distance
_geom_bond_site_symmetry_2
_ccdc_geom_bond_type
C0 C1 1.384 . S
C0 H13 0.947 . S
C0 C35 1.382 . S
C1 C0 1.384 . S
C1 C2 1.378 . S
C2 C1 1.378 . S
C2 C3 1.378 . S
C2 H14 0.952 . S
C3 C2 1.378 . S
C3 H15 0.950 . S
C3 C34 1.383 . S
H4 C23 0.927 1_554 S
H5 C24 0.946 1_554 S
H6 C26 0.953 . S
H7 C27 0.945 . S
H8 C29 0.952 . S
H9 C30 0.949 . S
H10 C32 0.950 . S
H11 C33 0.948 1_554 S
H12 C35 0.951 . S
H13 C0 0.947 . S
H14 C2 0.952 . S
H15 C3 0.950 . S
N16 C19 1.382 1_554 S
N16 C21 1.363 . S
N17 C19 1.371 . S
N17 C20 1.372 . S
N18 C20 1.361 1_554 S
N18 C21 1.377 . S
C19 N16 1.382 1_556 S
C19 N17 1.371 . S
C19 C22 1.480 . S
C20 N17 1.372 . S
C20 N18 1.361 1_556 S
C20 C28 1.457 . S
C21 N16 1.363 . S
C21 N18 1.377 . S
C21 C34 1.479 . S
C22 C19 1.480 . S
C22 C23 1.396 . S
C22 C27 1.385 . S
C23 H4 0.927 1_556 S
C23 C22 1.396 . S
C23 C24 1.396 . S
C24 H5 0.946 1_556 S
C24 C23 1.396 . S
C24 C25 1.384 . S
C25 C24 1.384 . S
C25 C26 1.377 . S
C26 H6 0.953 . S
C26 C25 1.377 . S
C26 C27 1.369 . S
C27 H7 0.945 . S
C27 C22 1.385 . S
C27 C26 1.369 . S
C28 C20 1.457 . S
C28 C29 1.372 . S
C28 C33 1.364 . S
C29 H8 0.952 . S
C29 C28 1.372 . S
C29 C30 1.389 . S
C30 H9 0.949 . S
C30 C29 1.389 . S
C30 C31 1.387 . S
C31 C30 1.387 . S
C31 C32 1.372 . S
C32 H10 0.950 . S
C32 C31 1.372 . S
C32 C33 1.379 . S
C33 H11 0.948 1_556 S
C33 C28 1.364 . S
C33 C32 1.379 . S
C34 C3 1.383 . S
C34 C21 1.479 . S
C34 C35 1.398 . S
C35 C0 1.382 . S
C35 H12 0.951 . S
C35 C34 1.398 . S
C36 C37 1.384 . S
C36 H49 0.947 . S
C36 C71 1.382 . S
C37 C36 1.384 . S
C37 C38 1.378 . S
C38 C37 1.378 . S
C38 C39 1.378 . S
C38 H50 0.952 . S
C39 C38 1.378 . S
C39 H51 0.950 . S
C39 C70 1.383 . S
H40 C59 0.947 . S
H41 C60 0.946 . S
H42 C62 0.953 . S
H43 C63 0.945 . S
H44 C65 0.952 . S
H45 C66 0.949 . S
H46 C68 0.950 . S
H47 C69 0.948 . S
H48 C71 0.951 . S
H49 C36 0.947 . S
H50 C38 0.952 . S
H51 C39 0.950 . S
N52 C55 1.382 . S
N52 C57 1.363 . S
N53 C55 1.371 . S
N53 C56 1.372 . S
N54 C56 1.361 . S
N54 C57 1.377 . S
C55 N52 1.382 . S
C55 N53 1.371 . S
C55 C58 1.480 . S
C56 N53 1.372 . S
C56 N54 1.361 . S
C56 C64 1.457 . S
C57 N52 1.363 . S
C57 N54 1.377 . S
C57 C70 1.479 . S
C58 C55 1.480 . S
C58 C59 1.383 . S
C58 C63 1.385 . S
C59 H40 0.947 . S
C59 C58 1.383 . S
C59 C60 1.388 . S
C60 H41 0.946 . S
C60 C59 1.388 . S
C60 C61 1.384 . S
C61 C60 1.384 . S
C61 C62 1.377 . S
C62 H42 0.953 . S
C62 C61 1.377 . S
C62 C63 1.369 . S
C63 H43 0.945 . S
C63 C58 1.385 . S
C63 C62 1.369 . S
C64 C56 1.457 . S
C64 C65 1.372 . S
C64 C69 1.364 . S
C65 H44 0.952 . S
C65 C64 1.372 . S
C65 C66 1.389 . S
C66 H45 0.949 . S
C66 C65 1.389 . S
C66 C67 1.387 . S
C67 C66 1.387 . S
C67 C68 1.372 . S
C68 H46 0.950 . S
C68 C67 1.372 . S
C68 C69 1.379 . S
C69 H47 0.948 . S
C69 C64 1.364 . S
C69 C68 1.379 . S
C70 C39 1.383 . S
C70 C57 1.479 . S
C70 C71 1.398 . S
C71 C36 1.382 . S
C71 H48 0.951 . S
C71 C70 1.398 . S
C72 C73 1.384 . S
C72 H85 0.947 . S
C72 C107 1.382 . S
C73 C72 1.384 . S
C73 C74 1.378 . S
C74 C73 1.378 . S
C74 C75 1.378 . S
C74 H86 0.952 . S
C75 C74 1.378 . S
C75 H87 0.950 . S
C75 C106 1.383 . S
H76 C95 0.947 . S
H77 C96 0.946 . S
H78 C98 0.953 . S
H79 C99 0.945 . S
H80 C101 0.952 . S
H81 C102 0.949 . S
H82 C104 0.950 . S
H83 C105 0.948 1_554 S
H84 C107 0.951 . S
H85 C72 0.947 . S
H86 C74 0.952 . S
H87 C75 0.950 . S
N88 C91 1.375 1_554 S
N88 C93 1.363 . S
N89 C91 1.376 . S
N89 C92 1.372 . S
N90 C92 1.361 1_554 S
N90 C93 1.377 . S
C91 N88 1.375 1_556 S
C91 N89 1.376 . S
C91 C94 1.483 . S
C92 N89 1.372 . S
C92 N90 1.361 1_556 S
C92 C100 1.457 . S
C93 N88 1.363 . S
C93 N90 1.377 . S
C93 C106 1.479 . S
C94 C91 1.483 . S
C94 C95 1.383 1_556 S
C94 C99 1.385 . S
C95 H76 0.947 . S
C95 C94 1.383 1_554 S
C95 C96 1.388 1_554 S
C96 H77 0.946 . S
C96 C95 1.388 1_556 S
C96 C97 1.384 . S
C97 C96 1.384 . S
C97 C98 1.377 . S
C98 H78 0.953 . S
C98 C97 1.377 . S
C98 C99 1.369 . S
C99 H79 0.945 . S
C99 C94 1.385 . S
C99 C98 1.369 . S
C100 C92 1.457 . S
C100 C101 1.372 . S
C100 C105 1.364 . S
C101 H80 0.952 . S
C101 C100 1.372 . S
C101 C102 1.389 . S
C102 H81 0.949 . S
C102 C101 1.389 . S
C102 C103 1.387 . S
C103 C102 1.387 . S
C103 C104 1.372 . S
C104 H82 0.950 . S
C104 C103 1.372 . S
C104 C105 1.379 . S
C105 H83 0.948 1_556 S
C105 C100 1.364 . S
C105 C104 1.379 . S
C106 C75 1.383 . S
C106 C93 1.479 . S
C106 C107 1.398 . S
C107 C72 1.382 . S
C107 H84 0.951 . S
C107 C106 1.398 . S
C108 C109 1.384 . S
C108 H121 0.947 . S
C108 C143 1.382 . S
C109 C108 1.384 . S
C109 C110 1.378 . S
C110 C109 1.378 . S
C110 C111 1.378 . S
C110 H122 0.952 . S
C111 C110 1.378 . S
C111 H123 0.950 . S
C111 C142 1.383 . S
H112 C131 0.947 . S
H113 C132 0.946 . S
H114 C134 0.953 . S
H115 C135 0.945 . S
H116 C137 0.952 . S
H117 C138 0.949 . S
H118 C140 0.950 . S
H119 C141 0.948 . S
H120 C143 0.951 . S
H121 C108 0.947 . S
H122 C110 0.952 . S
H123 C111 0.950 . S
N124 C127 1.382 . S
N124 C129 1.363 . S
N125 C127 1.371 . S
N125 C128 1.372 . S
N126 C128 1.361 . S
N126 C129 1.377 . S
C127 N124 1.382 . S
C127 N125 1.371 . S
C127 C130 1.480 . S
C128 N125 1.372 . S
C128 N126 1.361 . S
C128 C136 1.457 . S
C129 N124 1.363 . S
C129 N126 1.377 . S
C129 C142 1.479 . S
C130 C127 1.480 . S
C130 C131 1.383 . S
C130 C135 1.385 . S
C131 H112 0.947 . S
C131 C130 1.383 . S
C131 C132 1.388 . S
C132 H113 0.946 . S
C132 C131 1.388 . S
C132 C133 1.384 . S
C133 C132 1.384 . S
C133 C134 1.377 . S
C134 H114 0.953 . S
C134 C133 1.377 . S
C134 C135 1.369 . S
C135 H115 0.945 . S
C135 C130 1.385 . S
C135 C134 1.369 . S
C136 C128 1.457 . S
C136 C137 1.372 . S
C136 C141 1.364 . S
C137 H116 0.952 . S
C137 C136 1.372 . S
C137 C138 1.389 . S
C138 H117 0.949 . S
C138 C137 1.389 . S
C138 C139 1.387 . S
C139 C138 1.387 . S
C139 C140 1.372 . S
C140 H118 0.950 . S
C140 C139 1.372 . S
C140 C141 1.379 . S
C141 H119 0.948 . S
C141 C136 1.364 . S
C141 C140 1.379 . S
C142 C111 1.383 . S
C142 C129 1.479 . S
C142 C143 1.398 . S
C143 C108 1.382 . S
C143 H120 0.951 . S
C143 C142 1.398 . S
C144 C145 1.384 . S
C144 H157 0.947 . S
C144 C179 1.382 . S
C145 C144 1.384 . S
C145 C146 1.378 . S
C146 C145 1.378 . S
C146 C147 1.378 . S
C146 H158 0.952 . S
C147 C146 1.378 . S
C147 H159 0.950 . S
C147 C178 1.383 . S
H148 C167 0.927 1_554 S
H149 C168 0.946 1_554 S
H150 C170 0.953 . S
H151 C171 0.945 . S
H152 C173 0.952 . S
H153 C174 0.949 1_545 S
H154 C176 0.966 . S
H155 C177 0.948 1_554 S
H156 C179 0.951 . S
H157 C144 0.947 . S
H158 C146 0.952 . S
H159 C147 0.950 . S
N160 C163 1.382 1_554 S
N160 C165 1.363 . S
N161 C163 1.371 . S
N161 C164 1.372 . S
N162 C164 1.361 1_554 S
N162 C165 1.377 . S
C163 N160 1.382 1_556 S
C163 N161 1.371 . S
C163 C166 1.480 . S
C164 N161 1.372 . S
C164 N162 1.361 1_556 S
C164 C172 1.457 . S
C165 N160 1.363 . S
C165 N162 1.377 . S
C165 C178 1.479 . S
C166 C163 1.480 . S
C166 C167 1.396 . S
C166 C171 1.385 . S
C167 H148 0.927 1_556 S
C167 C166 1.396 . S
C167 C168 1.396 . S
C168 H149 0.946 1_556 S
C168 C167 1.396 . S
C168 C169 1.384 . S
C169 C168 1.384 . S
C169 C170 1.377 . S
C170 H150 0.953 . S
C170 C169 1.377 . S
C170 C171 1.369 . S
C171 H151 0.945 . S
C171 C166 1.385 . S
C171 C170 1.369 . S
C172 C164 1.457 . S
C172 C173 1.372 . S
C172 C177 1.364 . S
C173 H152 0.952 . S
C173 C172 1.372 . S
C173 C174 1.389 . S
C174 H153 0.949 1_565 S
C174 C173 1.389 . S
C174 C175 1.387 1_565 S
C175 C174 1.387 1_545 S
C175 C176 1.384 . S
C176 H154 0.966 . S
C176 C175 1.384 . S
C176 C177 1.352 1_545 S
C177 H155 0.948 1_556 S
C177 C172 1.364 . S
C177 C176 1.352 1_565 S
C178 C147 1.383 . S
C178 C165 1.479 . S
C178 C179 1.398 . S
C179 C144 1.382 . S
C179 H156 0.951 . S
C179 C178 1.398 . S
C180 C181 1.384 . S
C180 H193 0.947 . S
C180 C215 1.382 . S
C181 C180 1.384 . S
C181 C182 1.378 . S
C182 C181 1.378 . S
C182 C183 1.378 . S
C182 H194 0.952 . S
C183 C182 1.378 . S
C183 H195 0.950 . S
C183 C214 1.383 . S
H184 C203 0.947 . S
H185 C204 0.946 . S
H186 C206 0.953 . S
H187 C207 0.945 . S
H188 C209 0.952 . S
H189 C210 0.949 1_565 S
H190 C212 0.966 . S
H191 C213 0.948 . S
H192 C215 0.951 . S
H193 C180 0.947 . S
H194 C182 0.952 . S
H195 C183 0.950 . S
N196 C199 1.382 . S
N196 C201 1.363 . S
N197 C199 1.371 . S
N197 C200 1.372 . S
N198 C200 1.361 . S
N198 C201 1.377 . S
C199 N196 1.382 . S
C199 N197 1.371 . S
C199 C202 1.480 . S
C200 N197 1.372 . S
C200 N198 1.361 . S
C200 C208 1.457 . S
C201 N196 1.363 . S
C201 N198 1.377 . S
C201 C214 1.479 . S
C202 C199 1.480 . S
C202 C203 1.383 . S
C202 C207 1.385 . S
C203 H184 0.947 . S
C203 C202 1.383 . S
C203 C204 1.388 . S
C204 H185 0.946 . S
C204 C203 1.388 . S
C204 C205 1.384 . S
C205 C204 1.384 . S
C205 C206 1.377 . S
C206 H186 0.953 . S
C206 C205 1.377 . S
C206 C207 1.369 . S
C207 H187 0.945 . S
C207 C202 1.385 . S
C207 C206 1.369 . S
C208 C200 1.457 . S
C208 C209 1.372 . S
C208 C213 1.364 . S
C209 H188 0.952 . S
C209 C208 1.372 . S
C209 C210 1.389 . S
C210 H189 0.949 1_545 S
C210 C209 1.389 . S
C210 C211 1.387 1_545 S
C211 C210 1.387 1_565 S
C211 C212 1.384 . S
C212 H190 0.966 . S
C212 C211 1.384 . S
C212 C213 1.352 1_565 S
C213 H191 0.948 . S
C213 C208 1.364 . S
C213 C212 1.352 1_545 S
C214 C183 1.383 . S
C214 C201 1.479 . S
C214 C215 1.398 . S
C215 C180 1.382 . S
C215 H192 0.951 . S
C215 C214 1.398 . S
C216 C217 1.384 . S
C216 H229 0.947 . S
C216 C251 1.382 . S
C217 C216 1.384 . S
C217 C218 1.378 . S
C218 C217 1.378 . S
C218 C219 1.378 . S
C218 H230 0.952 . S
C219 C218 1.378 . S
C219 H231 0.950 . S
C219 C250 1.383 . S
H220 C239 0.947 . S
H221 C240 0.946 . S
H222 C242 0.953 . S
H223 C243 0.945 . S
H224 C245 0.952 . S
H225 C246 0.948 1_545 S
H226 C248 0.950 . S
H227 C249 0.948 1_554 S
H228 C251 0.951 . S
H229 C216 0.947 . S
H230 C218 0.952 . S
H231 C219 0.950 . S
N232 C235 1.375 1_554 S
N232 C237 1.363 . S
N233 C235 1.376 . S
N233 C236 1.372 . S
N234 C236 1.361 1_554 S
N234 C237 1.377 . S
C235 N232 1.375 1_556 S
C235 N233 1.376 . S
C235 C238 1.483 . S
C236 N233 1.372 . S
C236 N234 1.361 1_556 S
C236 C244 1.457 . S
C237 N232 1.363 . S
C237 N234 1.377 . S
C237 C250 1.479 . S
C238 C235 1.483 . S
C238 C239 1.383 1_556 S
C238 C243 1.385 . S
C239 H220 0.947 . S
C239 C238 1.383 1_554 S
C239 C240 1.388 1_554 S
C240 H221 0.946 . S
C240 C239 1.388 1_556 S
C240 C241 1.384 . S
C241 C240 1.384 . S
C241 C242 1.377 . S
C242 H222 0.953 . S
C242 C241 1.377 . S
C242 C243 1.369 . S
C243 H223 0.945 . S
C243 C238 1.385 . S
C243 C242 1.369 . S
C244 C236 1.457 . S
C244 C245 1.372 . S
C244 C249 1.364 . S
C245 H224 0.952 . S
C245 C244 1.372 . S
C245 C246 1.389 . S
C246 H225 0.948 1_565 S
C246 C245 1.389 . S
C246 C247 1.387 1_565 S
C247 C246 1.387 1_545 S
C247 C248 1.372 . S
C248 H226 0.950 . S
C248 C247 1.372 . S
C248 C249 1.379 1_545 S
C249 H227 0.948 1_556 S
C249 C244 1.364 . S
C249 C248 1.379 1_565 S
C250 C219 1.383 . S
C250 C237 1.479 . S
C250 C251 1.398 . S
C251 C216 1.382 . S
C251 H228 0.951 . S
C251 C250 1.398 . S
C252 C253 1.384 . S
C252 H265 0.947 . S
C252 C287 1.382 . S
C253 C252 1.384 . S
C253 C254 1.378 . S
C254 C253 1.378 . S
C254 C255 1.378 . S
C254 H266 0.952 . S
C255 C254 1.378 . S
C255 H267 0.950 . S
C255 C286 1.383 . S
H256 C275 0.947 . S
H257 C276 0.946 . S
H258 C278 0.953 . S
H259 C279 0.945 . S
H260 C281 0.952 . S
H261 C282 0.948 1_565 S
H262 C284 0.950 . S
H263 C285 0.948 . S
H264 C287 0.951 . S
H265 C252 0.947 . S
H266 C254 0.952 . S
H267 C255 0.950 . S
N268 C271 1.382 . S
N268 C273 1.363 . S
N269 C271 1.371 . S
N269 C272 1.372 . S
N270 C272 1.361 . S
N270 C273 1.377 . S
C271 N268 1.382 . S
C271 N269 1.371 . S
C271 C274 1.480 . S
C272 N269 1.372 . S
C272 N270 1.361 . S
C272 C280 1.457 . S
C273 N268 1.363 . S
C273 N270 1.377 . S
C273 C286 1.479 . S
C274 C271 1.480 . S
C274 C275 1.383 . S
C274 C279 1.385 . S
C275 H256 0.947 . S
C275 C274 1.383 . S
C275 C276 1.388 . S
C276 H257 0.946 . S
C276 C275 1.388 . S
C276 C277 1.384 . S
C277 C276 1.384 . S
C277 C278 1.377 . S
C278 H258 0.953 . S
C278 C277 1.377 . S
C278 C279 1.369 . S
C279 H259 0.945 . S
C279 C274 1.385 . S
C279 C278 1.369 . S
C280 C272 1.457 . S
C280 C281 1.372 . S
C280 C285 1.364 . S
C281 H260 0.952 . S
C281 C280 1.372 . S
C281 C282 1.389 . S
C282 H261 0.948 1_545 S
C282 C281 1.389 . S
C282 C283 1.387 1_545 S
C283 C282 1.387 1_565 S
C283 C284 1.372 . S
C284 H262 0.950 . S
C284 C283 1.372 . S
C284 C285 1.379 1_565 S
C285 H263 0.948 . S
C285 C280 1.364 . S
C285 C284 1.379 1_545 S
C286 C255 1.383 . S
C286 C273 1.479 . S
C286 C287 1.398 . S
C287 C252 1.382 . S
C287 H264 0.951 . S
C287 C286 1.398 . S
Sc288 O291 2.025 . S
Sc288 O298 2.105 1_455 S
Sc288 O301 2.105 . S
Sc288 O304 2.105 . S
Sc288 O307 2.105 1_455 S
Sc289 O291 2.025 . S
Sc289 O299 2.105 1_455 S
Sc289 O303 2.105 . S
Sc289 O305 2.105 . S
Sc289 O309 2.105 1_455 S
Sc290 O291 2.025 . S
Sc290 O300 2.105 1_455 S
Sc290 O302 2.105 . S
Sc290 O306 2.105 . S
Sc290 O308 2.105 1_455 S
O291 Sc288 2.025 . S
O291 Sc289 2.025 . S
O291 Sc290 2.025 . S
C292 O298 1.268 . S
C292 O308 1.268 . S
C293 O299 1.268 . S
C293 O307 1.268 . S
C294 O300 1.268 . S
C294 O309 1.268 . S
C295 O301 1.268 . S
C295 O305 1.268 . S
C296 O302 1.268 . S
C296 O304 1.268 . S
C297 O303 1.268 . S
C297 O306 1.268 . S
O298 Sc288 2.105 1_655 S
O298 C292 1.268 . S
O299 Sc289 2.105 1_655 S
O299 C293 1.268 . S
O300 Sc290 2.105 1_655 S
O300 C294 1.268 . S
O301 Sc288 2.105 . S
O301 C295 1.268 . S
O302 Sc290 2.105 . S
O302 C296 1.268 . S
O303 Sc289 2.105 . S
O303 C297 1.268 . S
O304 Sc288 2.105 . S
O304 C296 1.268 . S
O305 Sc289 2.105 . S
O305 C295 1.268 . S
O306 Sc290 2.105 . S
O306 C297 1.268 . S
O307 Sc288 2.105 1_655 S
O307 C293 1.268 . S
O308 Sc290 2.105 1_655 S
O308 C292 1.268 . S
O309 Sc289 2.105 1_655 S
O309 C294 1.268 . S
Sc310 O313 2.025 . S
Sc310 O320 2.105 . S
Sc310 O323 2.105 1_455 S
Sc310 O326 2.105 1_455 S
Sc310 O329 2.105 . S
Sc311 O313 2.025 . S
Sc311 O321 2.105 . S
Sc311 O325 2.105 1_455 S
Sc311 O327 2.105 1_455 S
Sc311 O331 2.105 . S
Sc312 O313 2.025 . S
Sc312 O322 2.105 . S
Sc312 O324 2.105 1_455 S
Sc312 O328 2.105 1_455 S
Sc312 O330 2.105 . S
O313 Sc310 2.025 . S
O313 Sc311 2.025 . S
O313 Sc312 2.025 . S
C314 O320 1.268 . S
C314 O330 1.268 . S
C315 O321 1.268 . S
C315 O329 1.268 . S
C316 O322 1.268 . S
C316 O331 1.268 . S
C317 O323 1.268 . S
C317 O327 1.268 . S
C318 O324 1.268 . S
C318 O326 1.268 . S
C319 O325 1.268 . S
C319 O328 1.268 . S
O320 Sc310 2.105 . S
O320 C314 1.268 . S
O321 Sc311 2.105 . S
O321 C315 1.268 . S
O322 Sc312 2.105 . S
O322 C316 1.268 . S
O323 Sc310 2.105 1_655 S
O323 C317 1.268 . S
O324 Sc312 2.105 1_655 S
O324 C318 1.268 . S
O325 Sc311 2.105 1_655 S
O325 C319 1.268 . S
O326 Sc310 2.105 1_655 S
O326 C318 1.268 . S
O327 Sc311 2.105 1_655 S
O327 C317 1.268 . S
O328 Sc312 2.105 1_655 S
O328 C319 1.268 . S
O329 Sc310 2.105 . S
O329 C315 1.268 . S
O330 Sc312 2.105 . S
O330 C314 1.268 . S
O331 Sc311 2.105 . S
O331 C316 1.268 . S
Sc332 O335 2.025 . S
Sc332 O342 2.105 . S
Sc332 O345 2.105 . S
Sc332 O348 2.105 . S
Sc332 O351 2.105 . S
Sc333 O335 2.025 . S
Sc333 O343 2.105 . S
Sc333 O347 2.105 . S
Sc333 O349 2.105 . S
Sc333 O353 2.105 . S
Sc334 O335 2.025 . S
Sc334 O344 2.105 . S
Sc334 O346 2.105 . S
Sc334 O350 2.105 . S
Sc334 O352 2.105 . S
O335 Sc332 2.025 . S
O335 Sc333 2.025 . S
O335 Sc334 2.025 . S
C336 O342 1.268 . S
C336 O352 1.268 . S
C337 O343 1.268 . S
C337 O351 1.268 . S
C338 O344 1.268 . S
C338 O353 1.268 . S
C339 O345 1.268 . S
C339 O349 1.268 . S
C340 O346 1.268 . S
C340 O348 1.268 . S
C341 O347 1.268 . S
C341 O350 1.268 . S
O342 Sc332 2.105 . S
O342 C336 1.268 . S
O343 Sc333 2.105 . S
O343 C337 1.268 . S
O344 Sc334 2.105 . S
O344 C338 1.268 . S
O345 Sc332 2.105 . S
O345 C339 1.268 . S
O346 Sc334 2.105 . S
O346 C340 1.268 . S
O347 Sc333 2.105 . S
O347 C341 1.268 . S
O348 Sc332 2.105 . S
O348 C340 1.268 . S
O349 Sc333 2.105 . S
O349 C339 1.268 . S
O350 Sc334 2.105 . S
O350 C341 1.268 . S
O351 Sc332 2.105 . S
O351 C337 1.268 . S
O352 Sc334 2.105 . S
O352 C336 1.268 . S
O353 Sc333 2.105 . S
O353 C338 1.268 . S
Sc354 O357 2.025 . S
Sc354 O364 2.105 . S
Sc354 O367 2.105 . S
Sc354 O370 2.105 . S
Sc354 O373 2.105 . S
Sc355 O357 2.025 . S
Sc355 O365 2.105 . S
Sc355 O369 2.105 . S
Sc355 O371 2.105 . S
Sc355 O375 2.105 . S
Sc356 O357 2.025 . S
Sc356 O366 2.105 . S
Sc356 O368 2.105 . S
Sc356 O372 2.105 . S
Sc356 O374 2.105 . S
O357 Sc354 2.025 . S
O357 Sc355 2.025 . S
O357 Sc356 2.025 . S
C358 O364 1.268 . S
C358 O374 1.268 . S
C359 O365 1.268 . S
C359 O373 1.268 . S
C360 O366 1.268 . S
C360 O375 1.268 . S
C361 O367 1.268 . S
C361 O371 1.268 . S
C362 O368 1.268 . S
C362 O370 1.268 . S
C363 O369 1.268 . S
C363 O372 1.268 . S
O364 Sc354 2.105 . S
O364 C358 1.268 . S
O365 Sc355 2.105 . S
O365 C359 1.268 . S
O366 Sc356 2.105 . S
O366 C360 1.268 . S
O367 Sc354 2.105 . S
O367 C361 1.268 . S
O368 Sc356 2.105 . S
O368 C362 1.268 . S
O369 Sc355 2.105 . S
O369 C363 1.268 . S
O370 Sc354 2.105 . S
O370 C362 1.268 . S
O371 Sc355 2.105 . S
O371 C361 1.268 . S
O372 Sc356 2.105 . S
O372 C363 1.268 . S
O373 Sc354 2.105 . S
O373 C359 1.268 . S
O374 Sc356 2.105 . S
O374 C358 1.268 . S
O375 Sc355 2.105 . S
O375 C360 1.268 . S
C376 C377 1.170 . S
C376 C378 1.380 . S
C377 C376 1.170 . S
C378 C376 1.380 . S
C378 C379 1.170 . S
C379 C378 1.170 . S
C380 C381 1.170 . S
C380 C382 1.380 . S
C381 C380 1.170 . S
C382 C380 1.380 . S
C382 C383 1.170 . S
C383 C382 1.170 . S
C384 C385 1.170 . S
C384 C386 1.380 . S
C385 C384 1.170 . S
C386 C384 1.380 . S
C386 C387 1.170 . S
C387 C386 1.170 . S
C388 C389 1.170 . S
C388 C390 1.380 . S
C389 C388 1.170 . S
C390 C388 1.380 . S
C390 C391 1.170 . S
C391 C390 1.170 . S
C392 C393 1.170 . S
C392 C394 1.380 . S
C393 C392 1.170 . S
C394 C392 1.380 . S
C394 C395 1.170 . S
C395 C394 1.170 . S
C396 C397 1.170 . S
C396 C398 1.380 . S
C397 C396 1.170 . S
C398 C396 1.380 . S
C398 C399 1.170 . S
C399 C398 1.170 . S
C400 C401 1.170 . S
C400 C402 1.380 . S
C401 C400 1.170 . S
C402 C400 1.380 . S
C402 C403 1.170 . S
C403 C402 1.170 . S
C404 C405 1.170 . S
C404 C406 1.380 . S
C405 C404 1.170 . S
C406 C404 1.380 . S
C406 C407 1.170 . S
C407 C406 1.170 . S
C408 C409 1.170 . S
C408 C410 1.380 . S
C409 C408 1.170 . S
C410 C408 1.380 . S
C410 C411 1.170 . S
C411 C410 1.170 . S
C412 C413 1.170 . S
C412 C414 1.380 . S
C413 C412 1.170 . S
C414 C412 1.380 . S
C414 C415 1.170 . S
C415 C414 1.170 . S
C416 C417 1.170 . S
C416 C418 1.380 . S
C417 C416 1.170 . S
C418 C416 1.380 . S
C418 C419 1.170 . S
C419 C418 1.170 . S
C420 C421 1.170 . S
C420 C422 1.380 . S
C421 C420 1.170 . S
C422 C420 1.380 . S
C422 C423 1.170 . S
C423 C422 1.170 . S
C424 C425 1.170 . S
C424 C426 1.380 . S
C425 C424 1.170 . S
C426 C424 1.380 . S
C426 C427 1.170 . S
C427 C426 1.170 . S
C428 C429 1.170 . S
C428 C430 1.380 . S
C429 C428 1.170 . S
C430 C428 1.380 . S
C430 C431 1.170 . S
C431 C430 1.170 . S
C432 C433 1.170 . S
C432 C434 1.380 . S
C433 C432 1.170 . S
C434 C432 1.380 . S
C434 C435 1.170 . S
C435 C434 1.170 . S
C436 C437 1.170 . S
C436 C438 1.380 . S
C437 C436 1.170 . S
C438 C436 1.380 . S
C438 C439 1.170 . S
C439 C438 1.170 . S
C440 C441 1.170 . S
C440 C442 1.380 . S
C441 C440 1.170 . S
C442 C440 1.380 . S
C442 C443 1.170 . S
C443 C442 1.170 . S
C444 C445 1.170 . S
C444 C446 1.380 . S
C445 C444 1.170 . S
C446 C444 1.380 . S
C446 C447 1.170 . S
C447 C446 1.170 . S
C448 C449 1.170 . S
C448 C450 1.380 . S
C449 C448 1.170 . S
C450 C448 1.380 . S
C450 C451 1.170 . S
C451 C450 1.170 . S
C452 C453 1.170 . S
C452 C454 1.380 . S
C453 C452 1.170 . S
C454 C452 1.380 . S
C454 C455 1.170 . S
C455 C454 1.170 . S
C456 C457 1.170 . S
C456 C458 1.380 . S
C457 C456 1.170 . S
C458 C456 1.380 . S
C458 C459 1.170 . S
C459 C458 1.170 . S
C460 C461 1.170 . S
C460 C462 1.380 . S
C461 C460 1.170 . S
C462 C460 1.380 . S
C462 C463 1.170 . S
C463 C462 1.170 . S
C464 C465 1.170 . S
C464 C466 1.380 . S
C465 C464 1.170 . S
C466 C464 1.380 . S
C466 C467 1.170 . S
C467 C466 1.170 . S
C468 C469 1.170 . S
C468 C470 1.380 . S
C469 C468 1.170 . S
C470 C468 1.380 . S
C470 C471 1.170 . S
C471 C470 1.170 . S
C377 C25 1.551 . S
C379 C314 1.518 . S
C383 C292 1.509 . S
C381 C61 1.551 . S
C387 C318 1.511 . S
C385 C97 1.584 . S
C391 C296 1.510 . S
C389 C133 1.580 . S
C395 C358 1.508 . S
C393 C169 1.550 . S
C399 C336 1.509 . S
C397 C205 1.549 . S
C401 C241 1.566 . S
C403 C362 1.541 . S
C407 C340 1.547 . S
C405 C277 1.564 . S
C409 C31 1.530 . S
C411 C363 1.600 . S
C415 C341 1.613 . S
C413 C67 1.563 . S
C417 C103 1.583 . S
C419 C360 1.609 . S
C421 C139 1.591 . S
C423 C338 1.613 . S
C427 C319 1.605 . S
C425 C175 1.555 . S
C429 C211 1.561 . S
C431 C297 1.612 . S
C435 C316 1.609 . S
C433 C247 1.581 . S
C439 C294 1.611 . S
C437 C283 1.587 . S
C443 C337 1.580 . S
C441 C1 1.525 . S
C447 C359 1.586 . S
C445 C37 1.557 . S
C449 C73 1.571 . S
C451 C339 1.584 . S
C455 C361 1.591 . S
C453 C109 1.583 . S
C459 C293 1.590 . S
C457 C145 1.551 . S
C461 C181 1.536 . S
C463 C315 1.590 . S
C465 C217 1.560 . S
C467 C295 1.573 . S
C469 C253 1.580 . S
C471 C317 1.589 . S
