# Generated by pormake.
# Topology pyr, (3,6)-cn, num edge types: 1
# Building blocks:
#     Node 0, Type 0, BuildingBlock: BELTOD_clean_linker_0, # of connection points: 3
#     Node 1, Type 0, BuildingBlock: BELTOD_clean_linker_0, # of connection points: 3
#     Node 2, Type 0, BuildingBlock: BELTOD_clean_linker_0, # of connection points: 3
#     Node 3, Type 0, BuildingBlock: BELTOD_clean_linker_0, # of connection points: 3
#     Node 4, Type 0, BuildingBlock: BELTOD_clean_linker_0, # of connection points: 3
#     Node 5, Type 0, BuildingBlock: BELTOD_clean_linker_0, # of connection points: 3
#     Node 6, Type 0, BuildingBlock: BELTOD_clean_linker_0, # of connection points: 3
#     Node 7, Type 0, BuildingBlock: BELTOD_clean_linker_0, # of connection points: 3
#     Node 8, Type 1, BuildingBlock: BETDAH_clean_sbu_0, # of connection points: 6
#     Node 9, Type 1, BuildingBlock: BETDAH_clean_sbu_0, # of connection points: 6
#     Node 10, Type 1, BuildingBlock: BETDAH_clean_sbu_0, # of connection points: 6
#     Node 11, Type 1, BuildingBlock: BETDAH_clean_sbu_0, # of connection points: 6
#     Edge 12, Type (0, 1), BuildingBlock: AJUNOK_clean_linker_0, # of connection points: 2
#     Edge 13, Type (0, 1), BuildingBlock: AJUNOK_clean_linker_0, # of connection points: 2
#     Edge 14, Type (0, 1), BuildingBlock: AJUNOK_clean_linker_0, # of connection points: 2
#     Edge 15, Type (0, 1), BuildingBlock: AJUNOK_clean_linker_0, # of connection points: 2
#     Edge 16, Type (0, 1), BuildingBlock: AJUNOK_clean_linker_0, # of connection points: 2
#     Edge 17, Type (0, 1), BuildingBlock: AJUNOK_clean_linker_0, # of connection points: 2
#     Edge 18, Type (0, 1), BuildingBlock: AJUNOK_clean_linker_0, # of connection points: 2
#     Edge 19, Type (0, 1), BuildingBlock: AJUNOK_clean_linker_0, # of connection points: 2
#     Edge 20, Type (0, 1), BuildingBlock: AJUNOK_clean_linker_0, # of connection points: 2
#     Edge 21, Type (0, 1), BuildingBlock: AJUNOK_clean_linker_0, # of connection points: 2
#     Edge 22, Type (0, 1), BuildingBlock: AJUNOK_clean_linker_0, # of connection points: 2
#     Edge 23, Type (0, 1), BuildingBlock: AJUNOK_clean_linker_0, # of connection points: 2
#     Edge 24, Type (0, 1), BuildingBlock: AJUNOK_clean_linker_0, # of connection points: 2
#     Edge 25, Type (0, 1), BuildingBlock: AJUNOK_clean_linker_0, # of connection points: 2
#     Edge 26, Type (0, 1), BuildingBlock: AJUNOK_clean_linker_0, # of connection points: 2
#     Edge 27, Type (0, 1), BuildingBlock: AJUNOK_clean_linker_0, # of connection points: 2
#     Edge 28, Type (0, 1), BuildingBlock: AJUNOK_clean_linker_0, # of connection points: 2
#     Edge 29, Type (0, 1), BuildingBlock: AJUNOK_clean_linker_0, # of connection points: 2
#     Edge 30, Type (0, 1), BuildingBlock: AJUNOK_clean_linker_0, # of connection points: 2
#     Edge 31, Type (0, 1), BuildingBlock: AJUNOK_clean_linker_0, # of connection points: 2
#     Edge 32, Type (0, 1), BuildingBlock: AJUNOK_clean_linker_0, # of connection points: 2
#     Edge 33, Type (0, 1), BuildingBlock: AJUNOK_clean_linker_0, # of connection points: 2
#     Edge 34, Type (0, 1), BuildingBlock: AJUNOK_clean_linker_0, # of connection points: 2
#     Edge 35, Type (0, 1), BuildingBlock: AJUNOK_clean_linker_0, # of connection points: 2
# Relax obj value: 0.152
# Max RMSD: 0.138
# Mean RMSD: 0.067
data_MOF--net-pyr--node1-BETDAH_clean_sbu_0--node2-BELTOD_clean_linker_0--edge1-AJUNOK_clean_linker_0
_symmetry_space_group_name_H-M    P1
_symmetry_Int_Tables_number       1
_symmetry_cell_setting            triclinic
loop_
_symmetry_equiv_pos_as_xyz
'x, y, z'
_cell_length_a     33.013305
_cell_length_b     36.174199
_cell_length_c     32.472309
_cell_angle_alpha  91.273579
_cell_angle_beta   88.74469
_cell_angle_gamma 102.8216
loop_
_atom_site_label
_atom_site_type_symbol
_atom_site_fract_x
_atom_site_fract_y
_atom_site_fract_z
_atom_type_partial_charge
P0 P 0.39998 0.33147 0.24833 0.0
H1 H 0.47111 0.29932 0.26554 0.0
H2 H 0.49149 0.24165 0.24215 0.0
H3 H 0.38903 0.21872 0.1577 0.0
H4 H 0.36569 0.27349 0.1857 0.0
H5 H 0.36413 0.39584 0.26601 0.0
H6 H 0.31379 0.42191 0.22881 0.0
H7 H 0.33396 0.35607 0.12081 0.0
H8 H 0.38647 0.33214 0.1573 0.0
H9 H 0.39684 0.30993 0.33541 0.0
H10 H 0.31156 0.30339 0.23525 0.0
O11 O 0.43766 0.35932 0.27536 0.0
H12 H 0.33912 0.27785 0.38027 0.0
H13 H 0.25444 0.2724 0.27975 0.0
C14 C 0.41847 0.29234 0.22532 0.0
C15 C 0.4535 0.28228 0.24139 0.0
C16 C 0.46536 0.24925 0.22767 0.0
C17 C 0.44303 0.22601 0.19666 0.0
C18 C 0.40738 0.23593 0.18128 0.0
C19 C 0.39461 0.26809 0.19635 0.0
C20 C 0.3779 0.36087 0.21502 0.0
C21 C 0.35908 0.38822 0.23377 0.0
C22 C 0.32995 0.4028 0.21262 0.0
C23 C 0.31911 0.39028 0.17226 0.0
C24 C 0.34147 0.36616 0.15196 0.0
C25 C 0.37107 0.35188 0.17313 0.0
C26 C 0.35824 0.30995 0.28241 0.0
C27 C 0.36573 0.30218 0.32331 0.0
C28 C 0.33293 0.28386 0.34878 0.0
C29 C 0.29244 0.27328 0.33344 0.0
C30 C 0.28526 0.28103 0.29247 0.0
C31 C 0.31794 0.29874 0.26705 0.0
P32 P 0.35657 0.93708 0.5802 0.0
H33 H 0.41672 0.98635 0.63374 0.0
H34 H 0.42074 0.99316 0.70862 0.0
H35 H 0.31722 0.89699 0.72136 0.0
H36 H 0.31532 0.88874 0.64692 0.0
H37 H 0.41606 0.89867 0.54096 0.0
H38 H 0.41458 0.8315 0.53006 0.0
H39 H 0.28577 0.80328 0.56913 0.0
H40 H 0.28684 0.87097 0.57846 0.0
H41 H 0.29115 0.95616 0.63504 0.0
H42 H 0.3188 0.95291 0.50457 0.0
O43 O 0.39634 0.96586 0.55649 0.0
H44 H 0.22647 0.97386 0.62127 0.0
H45 H 0.2546 0.97348 0.49067 0.0
C46 C 0.36557 0.93722 0.63466 0.0
C47 C 0.39561 0.96615 0.65265 0.0
C48 C 0.39743 0.97034 0.69547 0.0
C49 C 0.36822 0.94647 0.72084 0.0
C50 C 0.34002 0.91596 0.70271 0.0
C51 C 0.33898 0.91118 0.65999 0.0
C52 C 0.35165 0.88966 0.56063 0.0
C53 C 0.38699 0.87823 0.54544 0.0
C54 C 0.38604 0.83986 0.53901 0.0
C55 C 0.34995 0.81245 0.54857 0.0
C56 C 0.31374 0.82405 0.56117 0.0
C57 C 0.31447 0.86258 0.56669 0.0
C58 C 0.30995 0.95304 0.57072 0.0
C59 C 0.2837 0.95949 0.60336 0.0
C60 C 0.24674 0.97028 0.59552 0.0
C61 C 0.23581 0.97574 0.55496 0.0
C62 C 0.26225 0.96942 0.52227 0.0
C63 C 0.29898 0.95795 0.53015 0.0
P64 P 0.67367 0.34721 0.84239 0.0
H65 H 0.75343 0.33157 0.86601 0.0
H66 H 0.81293 0.36604 0.90442 0.0
H67 H 0.75211 0.45902 0.92431 0.0
H68 H 0.69232 0.42429 0.88424 0.0
H69 H 0.59593 0.28801 0.82875 0.0
H70 H 0.56199 0.23128 0.86703 0.0
H71 H 0.64862 0.26558 0.96555 0.0
H72 H 0.68066 0.32245 0.92832 0.0
H73 H 0.70679 0.3855 0.76628 0.0
H74 H 0.59168 0.37237 0.83488 0.0
O75 O 0.69547 0.31997 0.81068 0.0
H76 H 0.67928 0.41851 0.71227 0.0
H77 H 0.56392 0.40651 0.78062 0.0
C78 C 0.71798 0.37514 0.87149 0.0
C79 C 0.75263 0.35946 0.87829 0.0
C80 C 0.78678 0.3792 0.901 0.0
C81 C 0.78762 0.41536 0.91855 0.0
C82 C 0.75294 0.43132 0.9115 0.0
C83 C 0.71851 0.41138 0.88856 0.0
C84 C 0.64039 0.31105 0.87563 0.0
C85 C 0.60662 0.2842 0.85933 0.0
C86 C 0.58757 0.25107 0.88121 0.0
C87 C 0.60178 0.24309 0.92022 0.0
C88 C 0.63526 0.27044 0.93659 0.0
C89 C 0.65401 0.30355 0.91486 0.0
C90 C 0.65161 0.37575 0.80522 0.0
C91 C 0.67548 0.3898 0.77004 0.0
C92 C 0.65946 0.40865 0.73862 0.0
C93 C 0.61881 0.41499 0.74101 0.0
C94 C 0.59525 0.40222 0.7771 0.0
C95 C 0.6112 0.38262 0.80848 0.0
P96 P 0.84507 0.70271 0.33541 0.0
H97 H 0.91835 0.76429 0.31543 0.0
H98 H 0.94977 0.82464 0.3499 0.0
H99 H 0.86881 0.79275 0.45528 0.0
H100 H 0.83821 0.73246 0.42105 0.0
H101 H 0.81775 0.65724 0.26088 0.0
H102 H 0.85119 0.62305 0.20916 0.0
H103 H 0.96468 0.65073 0.27756 0.0
H104 H 0.9309 0.68542 0.32932 0.0
H105 H 0.75542 0.70121 0.3442 0.0
H106 H 0.84005 0.64155 0.39777 0.0
O107 O 0.82116 0.72548 0.30282 0.0
H108 H 0.69887 0.66661 0.38712 0.0
H109 H 0.78276 0.60613 0.44108 0.0
C110 C 0.87634 0.74262 0.36559 0.0
C111 C 0.90808 0.76969 0.34643 0.0
C112 C 0.92554 0.80485 0.36604 0.0
C113 C 0.91159 0.81459 0.4055 0.0
C114 C 0.88079 0.7868 0.42514 0.0
C115 C 0.86329 0.75177 0.40546 0.0
C116 C 0.87133 0.67415 0.29974 0.0
C117 C 0.84984 0.65594 0.26514 0.0
C118 C 0.86924 0.63646 0.23505 0.0
C119 C 0.91095 0.63364 0.23851 0.0
C120 C 0.93244 0.65156 0.27357 0.0
C121 C 0.91304 0.67156 0.30353 0.0
C122 C 0.80261 0.67406 0.36693 0.0
C123 C 0.76206 0.68035 0.36486 0.0
C124 C 0.72928 0.66031 0.38967 0.0
C125 C 0.73562 0.63335 0.4181 0.0
C126 C 0.77634 0.62695 0.42021 0.0
C127 C 0.8093 0.64703 0.39505 0.0
P128 P 0.67885 0.81847 0.8641 0.0
H129 H 0.64957 0.81769 0.94846 0.0
H130 H 0.60202 0.85419 0.97811 0.0
H131 H 0.55251 0.86301 0.85794 0.0
H132 H 0.59903 0.82509 0.82835 0.0
H133 H 0.7653 0.82943 0.88468 0.0
H134 H 0.80673 0.78703 0.90959 0.0
H135 H 0.69606 0.69871 0.92468 0.0
H136 H 0.65389 0.74176 0.89923 0.0
H137 H 0.65729 0.85777 0.79308 0.0
H138 H 0.71078 0.76146 0.81456 0.0
O139 O 0.70603 0.86289 0.87081 0.0
H140 H 0.68948 0.86426 0.72503 0.0
H141 H 0.74719 0.77099 0.74918 0.0
C142 C 0.62876 0.81957 0.886 0.0
C143 C 0.62663 0.82511 0.92877 0.0
C144 C 0.59964 0.84625 0.94573 0.0
C145 C 0.57447 0.86185 0.92001 0.0
C146 C 0.57189 0.85129 0.87822 0.0
C147 C 0.59877 0.82983 0.86131 0.0
C148 C 0.70641 0.78898 0.89093 0.0
C149 C 0.74954 0.80138 0.89436 0.0
C150 C 0.77329 0.77708 0.90826 0.0
C151 C 0.75442 0.73981 0.91878 0.0
C152 C 0.71103 0.72752 0.91684 0.0
C153 C 0.68707 0.75202 0.90257 0.0
C154 C 0.68189 0.80946 0.8095 0.0
C155 C 0.67393 0.83662 0.78252 0.0
C156 C 0.69308 0.84075 0.74366 0.0
C157 C 0.72224 0.81917 0.73225 0.0
C158 C 0.72508 0.78827 0.75669 0.0
C159 C 0.7045 0.78314 0.79483 0.0
P160 P 0.88714 0.28264 0.40754 0.0
H161 H 0.87549 0.35907 0.42869 0.0
H162 H 0.81474 0.38142 0.45468 0.0
H163 H 0.7468 0.26547 0.46719 0.0
H164 H 0.80723 0.2433 0.44079 0.0
H165 H 0.94427 0.2336 0.39013 0.0
H166 H 0.95904 0.18002 0.42726 0.0
H167 H 0.88507 0.20605 0.53075 0.0
H168 H 0.87205 0.26032 0.4945 0.0
H169 H 0.87347 0.30636 0.32418 0.0
H170 H 0.84635 0.20321 0.39367 0.0
O171 O 0.92602 0.31842 0.39388 0.0
H172 H 0.83554 0.27208 0.26542 0.0
H173 H 0.80889 0.16931 0.33567 0.0
C174 C 0.84576 0.29958 0.43287 0.0
C175 C 0.84783 0.3385 0.43782 0.0
C176 C 0.81326 0.35122 0.45292 0.0
C177 C 0.77629 0.32507 0.4631 0.0
C178 C 0.77496 0.28612 0.45953 0.0
C179 C 0.80942 0.2735 0.44445 0.0
C180 C 0.90638 0.25039 0.43916 0.0
C181 C 0.93225 0.22836 0.42127 0.0
C182 C 0.94026 0.1976 0.44228 0.0
C183 C 0.92268 0.18864 0.48159 0.0
C184 C 0.89918 0.2124 0.50057 0.0
C185 C 0.8914 0.24329 0.47962 0.0
C186 C 0.86408 0.25706 0.36269 0.0
C187 C 0.86022 0.27627 0.32647 0.0
C188 C 0.83835 0.25681 0.29315 0.0
C189 C 0.82011 0.21794 0.29584 0.0
C190 C 0.82372 0.199 0.33236 0.0
C191 C 0.84528 0.21841 0.36552 0.0
P192 P 0.38131 0.70409 0.21725 0.0
H193 H 0.3521 0.69646 0.1322 0.0
H194 H 0.28665 0.66676 0.09931 0.0
H195 H 0.23142 0.63439 0.21835 0.0
H196 H 0.29732 0.66481 0.25141 0.0
H197 H 0.45901 0.76367 0.22763 0.0
H198 H 0.48186 0.82884 0.20295 0.0
H199 H 0.35881 0.82448 0.15865 0.0
H200 H 0.33589 0.75991 0.18412 0.0
H201 H 0.35715 0.62687 0.25024 0.0
H202 H 0.42906 0.73385 0.29444 0.0
O203 O 0.41486 0.68832 0.18606 0.0
H204 H 0.37709 0.59529 0.30962 0.0
H205 H 0.45048 0.70191 0.3539 0.0
C206 C 0.33035 0.68292 0.19452 0.0
C207 C 0.32596 0.68321 0.15149 0.0
C208 C 0.28819 0.66627 0.13256 0.0
C209 C 0.25322 0.64813 0.15594 0.0
C210 C 0.25754 0.64787 0.19916 0.0
C211 C 0.29538 0.66539 0.21821 0.0
C212 C 0.39524 0.75612 0.20886 0.0
C213 C 0.43641 0.77695 0.21384 0.0
C214 C 0.44969 0.81442 0.19912 0.0
C215 C 0.42262 0.83236 0.17784 0.0
C216 C 0.38112 0.81184 0.1739 0.0
C217 C 0.36773 0.77461 0.18914 0.0
C218 C 0.39024 0.6834 0.2675 0.0
C219 C 0.37659 0.644 0.27312 0.0
C220 C 0.38894 0.62556 0.30712 0.0
C221 C 0.41648 0.64542 0.33695 0.0
C222 C 0.42935 0.68519 0.33203 0.0
C223 C 0.41685 0.70373 0.29777 0.0
P224 P 0.18083 0.36062 0.74248 0.0
H225 H 0.20309 0.28704 0.72922 0.0
H226 H 0.17286 0.22849 0.69245 0.0
H227 H 0.07038 0.27597 0.65676 0.0
H228 H 0.1015 0.33564 0.69399 0.0
H229 H 0.24629 0.4301 0.75527 0.0
H230 H 0.30417 0.46396 0.71238 0.0
H231 H 0.26122 0.38726 0.61091 0.0
H232 H 0.20274 0.35474 0.65327 0.0
H233 H 0.12644 0.33921 0.81597 0.0
H234 H 0.16982 0.44084 0.74683 0.0
O235 O 0.21106 0.3463 0.77646 0.0
H236 H 0.09617 0.37542 0.86867 0.0
H237 H 0.14078 0.47727 0.79961 0.0
C238 C 0.15425 0.31607 0.71601 0.0
C239 C 0.17367 0.28505 0.71431 0.0
C240 C 0.15612 0.25107 0.69305 0.0
C241 C 0.11832 0.24643 0.67209 0.0
C242 C 0.09927 0.27793 0.6727 0.0
C243 C 0.11694 0.3122 0.69434 0.0
C244 C 0.2189 0.39023 0.70764 0.0
C245 C 0.24847 0.42126 0.72337 0.0
C246 C 0.28215 0.44039 0.6988 0.0
C247 C 0.28775 0.42897 0.65759 0.0
C248 C 0.2578 0.398 0.64186 0.0
C249 C 0.22401 0.37905 0.66639 0.0
C250 C 0.14995 0.38663 0.77624 0.0
C251 C 0.12875 0.36917 0.81143 0.0
C252 C 0.11186 0.3902 0.84218 0.0
C253 C 0.1153 0.42968 0.839 0.0
C254 C 0.13619 0.44696 0.80337 0.0
C255 C 0.15308 0.42592 0.77271 0.0
Ho256 Ho 0.02119 0.05225 0.49488 0.0
Ho257 Ho 1.00468 1.01309 0.5753 0.0
C258 C 0.05019 0.10055 0.58148 0.0
C259 C 0.03227 0.09896 0.43465 0.0
C260 C 0.0688 0.12835 0.42187 0.0
C261 C 0.08096 0.16273 0.4442 0.0
C262 C 0.11825 0.18816 0.43434 0.0
C263 C 0.14406 0.17936 0.40243 0.0
C264 C 0.13126 0.14576 0.37929 0.0
C265 C 0.09389 0.12062 0.38873 0.0
C266 C 0.08209 1.0189 0.51852 0.0
C267 C 0.97622 0.96458 0.48946 0.0
C268 C 0.99213 0.96413 0.63306 0.0
C269 C 0.95543 0.93317 0.63811 0.0
C270 C 0.94976 0.91092 0.67337 0.0
C271 C 0.91142 0.8862 0.68101 0.0
C272 C 0.87867 0.8836 0.6534 0.0
C273 C 0.88519 0.90425 0.61704 0.0
C274 C 0.92338 0.92888 0.60941 0.0
C275 C 0.94549 0.04925 0.55171 0.0
O276 O 0.03912 0.10144 0.54232 0.0
O277 O 0.04604 0.06737 0.59971 0.0
O278 O 0.03684 0.06408 0.43096 0.0
O279 O 1.01349 0.105 0.4692 0.0
O280 O 0.07107 1.02038 0.48084 0.0
O281 O 0.06237 0.03722 0.54161 0.0
O282 O 0.98835 0.9642 0.52811 0.0
O283 O 0.97942 0.99757 0.47114 0.0
O284 O 0.98444 0.99791 0.63755 0.0
O285 O 1.01546 0.96128 0.60059 0.0
O286 O 0.95528 0.0458 0.58952 0.0
O287 O 0.96447 1.02967 0.52937 0.0
H288 H 0.06223 0.16964 0.46982 0.0
H289 H 0.12742 0.21424 0.45218 0.0
H290 H 0.15029 0.13891 0.35387 0.0
H291 H 0.08514 0.09459 0.37073 0.0
H292 H 0.97404 0.91418 0.69594 0.0
H293 H 0.90643 0.87098 0.7097 0.0
H294 H 0.85994 0.90323 0.59598 0.0
H295 H 0.92698 0.94632 0.58233 0.0
Ho296 Ho 0.54599 0.04579 0.07608 0.0
Ho297 Ho 0.46942 0.03942 0.0388 0.0
C298 C 0.4893 0.0945 0.11793 0.0
C299 C 0.62276 0.05546 0.09791 0.0
C300 C 0.6525 0.08144 0.12436 0.0
C301 C 0.66807 0.1197 0.11448 0.0
C302 C 0.697 0.14314 0.13998 0.0
C303 C 0.71086 0.12864 0.17557 0.0
C304 C 0.6946 0.09063 0.18568 0.0
C305 C 0.66606 0.06723 0.16016 0.0
C306 C 0.48721 0.98707 0.1094 0.0
C307 C 0.5273 0.99209 0.9957 0.0
C308 C 0.39349 1.02668 1.0142 0.0
C309 C 0.37505 1.00456 0.97814 0.0
C310 C 0.39254 0.97509 0.96225 0.0
C311 C 0.38468 0.96181 0.92195 0.0
C312 C 0.35867 0.9774 0.89709 0.0
C313 C 0.33724 1.00356 0.91484 0.0
C314 C 0.3459 1.0175 0.95494 0.0
C315 C 0.52898 0.0959 1.00313 0.0
O316 O 0.52831 0.09383 0.11032 0.0
O317 O 0.45974 0.07041 0.09834 0.0
O318 O 0.59172 1.0336 0.11705 0.0
O319 O 0.61154 0.06857 0.06383 0.0
O320 O 0.51277 1.01271 0.13018 0.0
O321 O 0.49277 0.99509 0.07153 0.0
O322 O 0.48825 0.99318 1.00187 0.0
O323 O 0.55633 1.0145 1.01737 0.0
O324 O 0.42141 0.05702 1.00502 0.0
O325 O 0.40553 1.00773 0.04356 0.0
O326 O 0.50317 0.06963 0.98334 0.0
O327 O 0.52331 0.08975 0.04153 0.0
H328 H 0.65812 0.13149 0.08709 0.0
H329 H 0.70895 0.17241 0.13163 0.0
H330 H 0.70379 0.07897 0.21352 0.0
H331 H 0.65449 0.03789 0.16851 0.0
H332 H 0.41457 0.96414 0.97985 0.0
H333 H 0.40136 0.94137 0.90942 0.0
H334 H 0.31566 1.01492 0.89696 0.0
H335 H 0.33191 0.04008 0.96678 0.0
Ho336 Ho 0.51093 0.49634 0.51466 0.0
Ho337 Ho 0.51713 0.56074 0.5665 0.0
C338 C 0.55354 0.49525 0.60539 0.0
C339 C 0.52573 0.43864 0.47391 0.0
C340 C 0.56126 0.42053 0.47588 0.0
C341 C 0.6019 0.44275 0.47804 0.0
C342 C 0.63552 0.42563 0.48099 0.0
C343 C 0.62915 0.38601 0.48274 0.0
C344 C 0.58839 0.36383 0.48139 0.0
C345 C 0.55467 0.38099 0.47794 0.0
C346 C 0.43806 0.49482 0.55726 0.0
C347 C 0.47815 0.5633 0.47365 0.0
C348 C 0.49868 0.61547 0.6101 0.0
C349 C 0.46776 0.63807 0.6036 0.0
C350 C 0.43383 0.62417 0.57787 0.0
C351 C 0.40629 0.64691 0.56882 0.0
C352 C 0.41202 0.68352 0.58595 0.0
C353 C 0.445 0.69681 0.61296 0.0
C354 C 0.47288 0.67425 0.62156 0.0
C355 C 0.59005 0.56317 0.52329 0.0
O356 O 0.55208 0.48295 0.56645 0.0
O357 O 0.53856 0.52537 0.61474 0.0
O358 O 0.5019 0.4354 0.50676 0.0
O359 O 0.53376 0.47292 0.45943 0.0
O360 O 0.44077 0.48589 0.51858 0.0
O361 O 0.47451 0.50433 0.57119 0.0
O362 O 0.48135 0.57752 0.51187 0.0
O363 O 0.49044 0.53149 0.46577 0.0
O364 O 0.52956 0.62044 0.58354 0.0
O365 O 0.48335 0.57976 0.61732 0.0
O366 O 0.58742 0.57249 0.56199 0.0
O367 O 0.55349 0.55281 0.50961 0.0
H368 H 0.60783 0.47342 0.47722 0.0
H369 H 0.66658 0.44344 0.48088 0.0
H370 H 0.58265 0.33321 0.48276 0.0
H371 H 0.52349 0.36346 0.47697 0.0
H372 H 0.42899 0.596 0.56423 0.0
H373 H 0.38095 0.63618 0.54806 0.0
H374 H 0.45007 0.7252 0.62617 0.0
H375 H 0.49887 0.68531 0.64146 0.0
Ho376 Ho 0.02117 0.49468 0.0634 0.0
Ho377 Ho 1.01449 0.57181 1.01804 0.0
C378 C 0.09621 0.57169 0.07381 0.0
C379 C 0.04436 0.43255 0.07758 0.0
C380 C 0.08542 0.4245 0.08437 0.0
C381 C 0.12181 0.45179 0.07547 0.0
C382 C 0.16061 0.44585 0.08629 0.0
C383 C 0.16366 0.41235 0.10592 0.0
C384 C 0.12718 0.38458 0.11352 0.0
C385 C 0.08838 0.39066 0.10292 0.0
C386 C 0.98182 0.53947 0.11385 0.0
C387 C 0.93923 0.49513 1.00765 0.0
C388 C 0.99472 0.63534 1.00328 0.0
C389 C 0.95641 0.64663 0.99217 0.0
C390 C 0.9171 0.62433 1.00256 0.0
C391 C 0.88102 0.63491 0.99006 0.0
C392 C 0.88393 0.66752 0.96653 0.0
C393 C 0.92334 0.68986 0.95661 0.0
C394 C 0.95926 0.67945 0.96929 0.0
C395 C 0.05261 0.52627 0.9672 0.0
O396 O 0.08311 0.53442 0.07866 0.0
O397 O 0.07465 0.59186 0.05284 0.0
O398 O 0.03144 0.45312 0.10647 0.0
O399 O 0.03779 0.44328 0.04055 0.0
O400 O 0.98832 0.50658 0.12347 0.0
O401 O 0.99533 0.54463 0.07696 0.0
O402 O 0.9522 0.53249 1.00288 0.0
O403 O 0.96093 0.47488 1.02851 0.0
O404 O 1.00991 0.61552 0.97521 0.0
O405 O 0.99583 0.62233 0.04042 0.0
O406 O 0.0456 0.5589 0.95742 0.0
O407 O 0.04018 0.5218 1.00449 0.0
H408 H 0.12016 0.47817 0.06121 0.0
H409 H 0.18799 0.46809 0.08075 0.0
H410 H 0.12861 0.35842 0.12845 0.0
H411 H 0.06062 0.36936 0.11014 0.0
H412 H 0.91434 0.59867 1.01999 0.0
H413 H 0.85095 0.61737 0.99815 0.0
H414 H 0.92634 0.71554 0.93916 0.0
H415 H 0.98933 0.6969 0.96098 0.0
C416 C 0.22049 0.26517 0.36236 0.0
C417 C 0.2575 0.25207 0.35858 0.0
C418 C 0.1843 0.24228 0.37913 0.0
C419 C 0.18392 0.20542 0.39204 0.0
H420 H 0.21912 0.29268 0.35067 0.0
H421 H 0.15591 0.25266 0.37985 0.0
S422 S 0.27352 0.15923 0.39219 0.0
N423 N 0.29237 0.20115 0.37188 0.0
N424 N 0.22415 0.15797 0.40325 0.0
C425 C 0.22123 0.19281 0.39052 0.0
C426 C 0.25815 0.21623 0.37387 0.0
C427 C 0.35942 0.92525 0.79422 0.0
C428 C 0.36512 0.95474 0.76565 0.0
C429 C 0.35595 0.93254 0.83658 0.0
C430 C 0.35808 0.96959 0.85198 0.0
H431 H 0.35822 0.89636 0.78384 0.0
H432 H 0.35195 0.90901 0.85747 0.0
S433 S 0.37156 0.05665 0.78989 0.0
N434 N 0.37054 1.02213 0.75561 0.0
N435 N 0.36661 1.03617 0.83517 0.0
C436 C 0.36339 0.99927 0.82367 0.0
C437 C 0.36637 0.99178 0.78058 0.0
C438 C 0.58226 0.46537 0.71376 0.0
C439 C 0.60169 0.43471 0.706 0.0
C440 C 0.56769 0.48483 0.68147 0.0
C441 C 0.57104 0.47459 0.63929 0.0
H442 H 0.5788 0.47491 0.74523 0.0
H443 H 0.5533 0.50812 0.68988 0.0
S444 S 0.61676 0.39457 0.60168 0.0
N445 N 0.62182 0.3943 0.65215 0.0
N446 N 0.59438 0.42999 0.59239 0.0
C447 C 0.58982 0.44354 0.63117 0.0
C448 C 0.60507 0.424 0.66403 0.0
C449 C 0.92677 0.61517 0.1633 0.0
C450 C 0.93109 0.61125 0.20636 0.0
C451 C 0.94412 0.59337 0.13325 0.0
C452 C 0.96609 0.56589 0.14464 0.0
H453 H 0.90971 0.63534 0.15261 0.0
H454 H 0.93909 0.59728 0.10098 0.0
S455 S 0.98588 0.54349 0.25278 0.0
N456 N 0.95931 0.577 0.25791 0.0
N457 N 0.99095 0.53647 0.20272 0.0
C458 C 0.97058 0.56185 0.18751 0.0
C459 C 0.95353 0.58428 0.21785 0.0
C460 C 0.42603 0.15838 0.17045 0.0
C461 C 0.45619 0.19134 0.18052 0.0
C462 C 0.43711 0.12658 0.15191 0.0
C463 C 0.47888 0.126 0.14323 0.0
H464 H 0.39339 0.15722 0.17639 0.0
H465 H 0.41251 0.10256 0.1435 0.0
S466 S 0.57049 0.20342 0.16691 0.0
N467 N 0.53011 0.22062 0.18166 0.0
N468 N 0.55099 0.16012 0.14939 0.0
C469 C 0.50961 0.15785 0.15531 0.0
C470 C 0.49828 0.19063 0.17331 0.0
C471 C 0.17047 0.96854 0.51537 0.0
C472 C 0.19646 0.98717 0.54674 0.0
C473 C 0.13315 0.97879 0.50686 0.0
C474 C 0.12027 1.00756 0.52983 0.0
H475 H 0.17892 0.94573 0.49737 0.0
H476 H 0.11416 0.96401 0.48221 0.0
S477 S 0.17775 0.06648 0.61373 0.0
N478 N 0.20753 0.03715 0.5995 0.0
N479 N 0.13643 0.0553 0.58443 0.0
C480 C 0.14563 1.02629 0.56144 0.0
C481 C 0.18401 1.01636 0.56967 0.0
C482 C 0.84272 0.47476 0.93781 0.0
C483 C 0.82467 0.43597 0.94359 0.0
C484 C 0.87887 0.49367 0.95897 0.0
C485 C 0.89902 0.47483 0.9873 0.0
H486 H 0.82943 0.49065 0.91577 0.0
H487 H 0.89147 0.52314 0.95239 0.0
S488 S 0.86186 0.37415 1.01744 0.0
N489 N 0.82824 0.38037 0.9828 0.0
N490 N 0.89558 0.41516 1.02173 0.0
C491 C 0.88043 0.43631 0.99432 0.0
C492 C 0.84365 0.41716 0.97283 0.0
C493 C 0.65975 0.59879 0.42876 0.0
C494 C 0.6997 0.61281 0.44524 0.0
C495 C 0.6251 0.58173 0.45367 0.0
C496 C 0.62825 0.57815 0.49664 0.0
H497 H 0.65505 0.60115 0.39611 0.0
H498 H 0.59529 0.57208 0.43914 0.0
S499 S 0.72539 0.60933 0.5558 0.0
N500 N 0.73982 0.621 0.50794 0.0
N501 N 0.67534 0.58933 0.55427 0.0
C502 C 0.66807 0.59135 0.51346 0.0
C503 C 0.70345 0.60844 0.48803 0.0
C504 C 0.24393 0.39122 0.17829 0.0
C505 C 0.28076 0.39782 0.15428 0.0
C506 C 0.20647 0.39594 0.16225 0.0
C507 C 0.20415 0.40745 0.12147 0.0
H508 H 0.24381 0.38162 0.20968 0.0
H509 H 0.17909 0.39071 0.18214 0.0
S510 S 0.29164 0.42867 0.04569 0.0
N511 N 0.31277 0.41697 0.08775 0.0
N512 N 0.24197 0.4253 0.05721 0.0
C513 C 0.24075 0.41438 0.09706 0.0
C514 C 0.27907 0.40953 0.11348 0.0
C515 C 0.57109 0.17115 0.92044 0.0
C516 C 0.58327 0.2059 0.94257 0.0
C517 C 0.55448 0.13627 0.94026 0.0
C518 C 0.54916 0.13368 0.98354 0.0
H519 H 0.57481 0.17065 0.88726 0.0
H520 H 0.54567 0.11088 0.92123 0.0
S521 S 0.57301 0.21582 0.05651 0.0
N522 N 0.58618 0.23489 1.01108 0.0
N523 N 0.55638 0.16986 0.04776 0.0
C524 C 0.56104 0.16803 1.00618 0.0
C525 C 0.57764 0.20372 0.98598 0.0
C526 C 0.93727 0.85671 0.46844 0.0
C527 C 0.92824 0.85339 0.42596 0.0
C528 C 0.95239 0.8923 0.4883 0.0
C529 C 0.95908 0.92698 0.46707 0.0
H530 H 0.93313 0.83138 0.48667 0.0
H531 H 0.95888 0.89247 0.52084 0.0
S532 S 0.9384 0.9351 0.35587 0.0
N533 N 0.92588 0.88899 0.36376 0.0
N534 N 0.95415 0.95512 0.40063 0.0
C535 C 0.9497 0.92418 0.42467 0.0
C536 C 0.9345 0.88784 0.40436 0.0
C537 C 0.34971 0.75869 0.59422 0.0
C538 C 0.35367 0.77307 0.55411 0.0
C539 C 0.36599 0.72748 0.60385 0.0
C540 C 0.38606 0.70945 0.57352 0.0
H541 H 0.33737 0.77368 0.61906 0.0
H542 H 0.36524 0.7189 0.63567 0.0
S543 S 0.39826 0.73256 0.4627 0.0
N544 N 0.3745 0.76448 0.48303 0.0
N545 N 0.40463 0.70515 0.50097 0.0
C546 C 0.38655 0.72122 0.53255 0.0
C547 C 0.37044 0.7533 0.52286 0.0
C548 C 0.77603 0.8743 0.70833 0.0
C549 C 0.75724 0.83545 0.7038 0.0
C550 C 0.81461 0.88962 0.69027 0.0
C551 C 0.83603 0.86678 0.6671 0.0
H552 H 0.76237 0.89276 0.72834 0.0
H553 H 0.82871 0.91927 0.69604 0.0
S554 S 0.79881 0.76513 0.64044 0.0
N555 N 0.76135 0.77554 0.67004 0.0
N556 N 0.8349 0.80475 0.63664 0.0
C557 C 0.817 0.82863 0.6599 0.0
C558 C 0.77732 0.81286 0.67813 0.0
C559 C 0.76255 0.21043 0.24532 0.0
C560 C 0.79566 0.19709 0.26159 0.0
C561 C 0.73596 0.18871 0.21637 0.0
C562 C 0.74172 0.153 0.20274 0.0
H563 H 0.75613 0.23709 0.2563 0.0
H564 H 0.70981 0.19927 0.20583 0.0
S565 S 0.82735 0.10795 0.23181 0.0
N566 N 0.83512 0.14781 0.25922 0.0
N567 N 0.78554 0.10717 0.20452 0.0
C568 C 0.77602 0.14033 0.21725 0.0
C569 C 0.80289 0.16233 0.24675 0.0
C570 C 0.4355 0.6384 0.41297 0.0
C571 C 0.43244 0.62441 0.37175 0.0
C572 C 0.44953 0.61865 0.44546 0.0
C573 C 0.46182 0.5838 0.43876 0.0
H574 H 0.42643 0.66474 0.4204 0.0
H575 H 0.45086 0.63106 0.47621 0.0
S576 S 0.46301 0.53574 0.33619 0.0
N577 N 0.44545 0.57386 0.32639 0.0
N578 N 0.47106 0.53725 0.38624 0.0
C579 C 0.45944 0.56984 0.39754 0.0
C580 C 0.44507 0.58984 0.36463 0.0
C581 C 0.10168 0.44754 0.91513 0.0
C582 C 0.0974 0.45274 0.87228 0.0
C583 C 0.0866 0.47017 0.94604 0.0
C584 C 0.06622 0.49914 0.93576 0.0
H585 H 0.11785 0.42639 0.92498 0.0
H586 H 0.0921 0.46562 0.97806 0.0
S587 S 0.04225 0.52176 0.82885 0.0
N588 N 0.06754 0.48747 0.82238 0.0
N589 N 0.04023 0.52946 0.87904 0.0
C590 C 0.0607 0.50368 0.89316 0.0
C591 C 0.07587 0.48079 0.86199 0.0
C592 C 0.51944 0.89515 0.94549 0.0
C593 C 0.56091 0.89614 0.93432 0.0
C594 C 0.50814 0.92733 0.96308 0.0
C595 C 0.53812 0.96124 0.97013 0.0
H596 H 0.49603 0.86909 0.942 0.0
H597 H 0.47618 0.92496 0.97306 0.0
S598 S 0.64989 0.97889 0.94074 0.0
N599 N 0.63112 0.93415 0.92743 0.0
N600 N 0.61017 0.99453 0.96048 0.0
C601 C 0.57921 0.96291 0.95673 0.0
C602 C 0.59055 0.93033 0.93885 0.0
C603 C 0.91784 0.11882 0.47849 0.0
C604 C 0.92643 0.1531 0.50132 0.0
C605 C 0.92198 0.08483 0.49588 0.0
C606 C 0.93463 0.08391 0.53676 0.0
H607 H 0.9082 0.1183 0.44675 0.0
H608 H 0.91642 0.0593 0.47683 0.0
S609 S 0.96025 0.16588 0.60983 0.0
N610 N 0.94789 0.18408 0.56693 0.0
N611 N 0.9547 0.12005 0.60013 0.0
C612 C 0.94197 0.11776 0.56044 0.0
C613 C 0.93818 0.15244 0.54255 0.0
C614 C 0.19226 0.59179 0.14402 0.0
C615 C 0.21285 0.62939 0.13509 0.0
C616 C 0.15539 0.57341 0.12378 0.0
C617 C 0.13658 0.59178 0.09392 0.0
H618 H 0.20513 0.57612 0.16647 0.0
H619 H 0.14134 0.54448 0.13203 0.0
S620 S 0.17711 0.691 0.06017 0.0
N621 N 0.21082 0.68454 0.09461 0.0
N622 N 0.14207 0.65066 0.05723 0.0
C623 C 0.15673 0.62959 0.08506 0.0
C624 C 0.19453 0.6481 0.10534 0.0
C625 C 0.36544 0.45831 0.64934 0.0
C626 C 0.32547 0.44808 0.63192 0.0
C627 C 0.40134 0.47436 0.6256 0.0
C628 C 0.39925 0.48088 0.58308 0.0
H629 H 0.36934 0.45296 0.68154 0.0
H630 H 0.43115 0.48077 0.64055 0.0
S631 S 0.30226 0.46369 0.5229 0.0
N632 N 0.28628 0.44933 0.56961 0.0
N633 N 0.35323 0.47834 0.52534 0.0
C634 C 0.35948 0.47197 0.56554 0.0
C635 C 0.32292 0.45589 0.58971 0.0
C636 C 0.78402 0.70292 0.96996 0.0
C637 C 0.78133 0.71395 0.92909 0.0
C638 C 0.81604 0.68561 0.98162 0.0
C639 C 0.84625 0.67914 0.95271 0.0
H640 H 0.76282 0.70972 0.99339 0.0
H641 H 0.81862 0.67934 1.0138 0.0
S642 S 0.84865 0.69785 0.84081 0.0
N643 N 0.80839 0.71361 0.85902 0.0
N644 N 0.86835 0.68094 0.88075 0.0
C645 C 0.84193 0.68766 0.91127 0.0
C646 C 0.80948 0.70514 0.8995 0.0
C647 C 0.46221 0.9018 0.18306 0.0
C648 C 0.43775 0.87189 0.15973 0.0
C649 C 0.47698 0.93862 0.16693 0.0
C650 C 0.46885 0.94773 0.12619 0.0
H651 H 0.46982 0.89683 0.21443 0.0
H652 H 0.49553 0.9601 0.18664 0.0
S653 S 0.40776 0.87994 0.05097 0.0
N654 N 0.40685 0.85449 0.09276 0.0
N655 N 0.43487 0.92285 0.06271 0.0
C656 C 0.44462 0.91813 0.10238 0.0
C657 C 0.42909 0.88068 0.11898 0.0
C658 C 0.08456 0.208 0.6092 0.0
C659 C 0.09968 0.20901 0.64975 0.0
C660 C 0.06922 0.17329 0.58745 0.0
C661 C 0.06759 0.13749 0.60509 0.0
H662 H 0.08528 0.23433 0.59373 0.0
H663 H 0.0583 0.17466 0.55641 0.0
S664 S 0.10078 0.12378 0.71143 0.0
N665 N 0.11001 0.17028 0.70708 0.0
N666 N 0.08169 0.10603 0.66685 0.0
C667 C 0.08198 0.13818 0.64587 0.0
C668 C 0.09779 0.17344 0.66787 0.0
C669 C 0.70222 0.32368 0.44925 0.0
C670 C 0.73781 0.33824 0.47254 0.0
C671 C 0.66659 0.33828 0.45405 0.0
C672 C 0.66522 0.36793 0.4824 0.0
H673 H 0.70251 0.30191 0.42584 0.0
H674 H 0.64064 0.3274 0.43407 0.0
S675 S 0.74831 0.41227 0.55473 0.0
N676 N 0.7684 0.38135 0.52756 0.0
N677 N 0.70108 0.40877 0.537 0.0
C678 C 0.6999 0.38145 0.50737 0.0
C679 C 0.73629 0.36663 0.50231 0.0
loop_
_geom_bond_atom_site_label_1
_geom_bond_atom_site_label_2
_geom_bond_distance
_geom_bond_site_symmetry_2
_ccdc_geom_bond_type
P0 O11 1.490 . S
P0 C14 1.812 . S
P0 C20 1.803 . S
P0 C26 1.819 . S
H1 C15 0.941 . S
H2 C16 0.939 . S
H3 C18 0.940 . S
H4 C19 0.940 . S
H5 C21 0.939 . S
H6 C22 0.942 . S
H7 C24 0.940 . S
H8 C25 0.939 . S
H9 C27 0.941 . S
H10 C31 0.939 . S
O11 P0 1.490 . S
H12 C28 0.939 . S
H13 C30 0.940 . S
C14 P0 1.812 . S
C14 C15 1.389 . S
C14 C19 1.391 . S
C15 H1 0.941 . S
C15 C14 1.389 . S
C15 C16 1.397 . S
C16 H2 0.939 . S
C16 C15 1.397 . S
C16 C17 1.378 . S
C17 C16 1.378 . S
C17 C18 1.378 . S
C18 H3 0.940 . S
C18 C17 1.378 . S
C18 C19 1.396 . S
C19 H4 0.940 . S
C19 C14 1.391 . S
C19 C18 1.396 . S
C20 P0 1.803 . S
C20 C21 1.378 . S
C20 C25 1.400 . S
C21 H5 0.939 . S
C21 C20 1.378 . S
C21 C22 1.361 . S
C22 H6 0.942 . S
C22 C21 1.361 . S
C22 C23 1.369 . S
C23 C22 1.369 . S
C23 C24 1.404 . S
C24 H7 0.940 . S
C24 C23 1.404 . S
C24 C25 1.389 . S
C25 H8 0.939 . S
C25 C20 1.400 . S
C25 C24 1.389 . S
C26 P0 1.819 . S
C26 C27 1.391 . S
C26 C31 1.391 . S
C27 H9 0.941 . S
C27 C26 1.391 . S
C27 C28 1.396 . S
C28 H12 0.939 . S
C28 C27 1.396 . S
C28 C29 1.397 . S
C29 C28 1.397 . S
C29 C30 1.385 . S
C30 H13 0.940 . S
C30 C29 1.385 . S
C30 C31 1.388 . S
C31 H10 0.939 . S
C31 C26 1.391 . S
C31 C30 1.388 . S
P32 O43 1.490 . S
P32 C46 1.812 . S
P32 C52 1.803 . S
P32 C58 1.819 . S
H33 C47 0.941 . S
H34 C48 0.939 . S
H35 C50 0.940 . S
H36 C51 0.940 . S
H37 C53 0.939 . S
H38 C54 0.942 . S
H39 C56 0.940 . S
H40 C57 0.939 . S
H41 C59 0.941 . S
H42 C63 0.939 . S
O43 P32 1.490 . S
H44 C60 0.939 . S
H45 C62 0.940 . S
C46 P32 1.812 . S
C46 C47 1.389 . S
C46 C51 1.391 . S
C47 H33 0.941 . S
C47 C46 1.389 . S
C47 C48 1.397 . S
C48 H34 0.939 . S
C48 C47 1.397 . S
C48 C49 1.378 . S
C49 C48 1.378 . S
C49 C50 1.378 . S
C50 H35 0.940 . S
C50 C49 1.378 . S
C50 C51 1.396 . S
C51 H36 0.940 . S
C51 C46 1.391 . S
C51 C50 1.396 . S
C52 P32 1.803 . S
C52 C53 1.378 . S
C52 C57 1.400 . S
C53 H37 0.939 . S
C53 C52 1.378 . S
C53 C54 1.361 . S
C54 H38 0.942 . S
C54 C53 1.361 . S
C54 C55 1.369 . S
C55 C54 1.369 . S
C55 C56 1.404 . S
C56 H39 0.940 . S
C56 C55 1.404 . S
C56 C57 1.389 . S
C57 H40 0.939 . S
C57 C52 1.400 . S
C57 C56 1.389 . S
C58 P32 1.819 . S
C58 C59 1.391 . S
C58 C63 1.391 . S
C59 H41 0.941 . S
C59 C58 1.391 . S
C59 C60 1.396 . S
C60 H44 0.939 . S
C60 C59 1.396 . S
C60 C61 1.397 . S
C61 C60 1.397 . S
C61 C62 1.385 . S
C62 H45 0.940 . S
C62 C61 1.385 . S
C62 C63 1.388 . S
C63 H42 0.939 . S
C63 C58 1.391 . S
C63 C62 1.388 . S
P64 O75 1.490 . S
P64 C78 1.812 . S
P64 C84 1.803 . S
P64 C90 1.819 . S
H65 C79 0.941 . S
H66 C80 0.939 . S
H67 C82 0.940 . S
H68 C83 0.940 . S
H69 C85 0.939 . S
H70 C86 0.942 . S
H71 C88 0.940 . S
H72 C89 0.939 . S
H73 C91 0.941 . S
H74 C95 0.939 . S
O75 P64 1.490 . S
H76 C92 0.939 . S
H77 C94 0.940 . S
C78 P64 1.812 . S
C78 C79 1.389 . S
C78 C83 1.391 . S
C79 H65 0.941 . S
C79 C78 1.389 . S
C79 C80 1.397 . S
C80 H66 0.939 . S
C80 C79 1.397 . S
C80 C81 1.378 . S
C81 C80 1.378 . S
C81 C82 1.378 . S
C82 H67 0.940 . S
C82 C81 1.378 . S
C82 C83 1.396 . S
C83 H68 0.940 . S
C83 C78 1.391 . S
C83 C82 1.396 . S
C84 P64 1.803 . S
C84 C85 1.378 . S
C84 C89 1.400 . S
C85 H69 0.939 . S
C85 C84 1.378 . S
C85 C86 1.361 . S
C86 H70 0.942 . S
C86 C85 1.361 . S
C86 C87 1.369 . S
C87 C86 1.369 . S
C87 C88 1.404 . S
C88 H71 0.940 . S
C88 C87 1.404 . S
C88 C89 1.389 . S
C89 H72 0.939 . S
C89 C84 1.400 . S
C89 C88 1.389 . S
C90 P64 1.819 . S
C90 C91 1.391 . S
C90 C95 1.391 . S
C91 H73 0.941 . S
C91 C90 1.391 . S
C91 C92 1.396 . S
C92 H76 0.939 . S
C92 C91 1.396 . S
C92 C93 1.397 . S
C93 C92 1.397 . S
C93 C94 1.385 . S
C94 H77 0.940 . S
C94 C93 1.385 . S
C94 C95 1.388 . S
C95 H74 0.939 . S
C95 C90 1.391 . S
C95 C94 1.388 . S
P96 O107 1.490 . S
P96 C110 1.812 . S
P96 C116 1.803 . S
P96 C122 1.819 . S
H97 C111 0.941 . S
H98 C112 0.939 . S
H99 C114 0.940 . S
H100 C115 0.940 . S
H101 C117 0.939 . S
H102 C118 0.942 . S
H103 C120 0.940 . S
H104 C121 0.939 . S
H105 C123 0.941 . S
H106 C127 0.939 . S
O107 P96 1.490 . S
H108 C124 0.939 . S
H109 C126 0.940 . S
C110 P96 1.812 . S
C110 C111 1.389 . S
C110 C115 1.391 . S
C111 H97 0.941 . S
C111 C110 1.389 . S
C111 C112 1.397 . S
C112 H98 0.939 . S
C112 C111 1.397 . S
C112 C113 1.378 . S
C113 C112 1.378 . S
C113 C114 1.378 . S
C114 H99 0.940 . S
C114 C113 1.378 . S
C114 C115 1.396 . S
C115 H100 0.940 . S
C115 C110 1.391 . S
C115 C114 1.396 . S
C116 P96 1.803 . S
C116 C117 1.378 . S
C116 C121 1.400 . S
C117 H101 0.939 . S
C117 C116 1.378 . S
C117 C118 1.361 . S
C118 H102 0.942 . S
C118 C117 1.361 . S
C118 C119 1.369 . S
C119 C118 1.369 . S
C119 C120 1.404 . S
C120 H103 0.940 . S
C120 C119 1.404 . S
C120 C121 1.389 . S
C121 H104 0.939 . S
C121 C116 1.400 . S
C121 C120 1.389 . S
C122 P96 1.819 . S
C122 C123 1.391 . S
C122 C127 1.391 . S
C123 H105 0.941 . S
C123 C122 1.391 . S
C123 C124 1.396 . S
C124 H108 0.939 . S
C124 C123 1.396 . S
C124 C125 1.397 . S
C125 C124 1.397 . S
C125 C126 1.385 . S
C126 H109 0.940 . S
C126 C125 1.385 . S
C126 C127 1.388 . S
C127 H106 0.939 . S
C127 C122 1.391 . S
C127 C126 1.388 . S
P128 O139 1.490 . S
P128 C142 1.812 . S
P128 C148 1.803 . S
P128 C154 1.819 . S
H129 C143 0.941 . S
H130 C144 0.939 . S
H131 C146 0.940 . S
H132 C147 0.940 . S
H133 C149 0.939 . S
H134 C150 0.942 . S
H135 C152 0.940 . S
H136 C153 0.939 . S
H137 C155 0.941 . S
H138 C159 0.939 . S
O139 P128 1.490 . S
H140 C156 0.939 . S
H141 C158 0.940 . S
C142 P128 1.812 . S
C142 C143 1.389 . S
C142 C147 1.391 . S
C143 H129 0.941 . S
C143 C142 1.389 . S
C143 C144 1.397 . S
C144 H130 0.939 . S
C144 C143 1.397 . S
C144 C145 1.378 . S
C145 C144 1.378 . S
C145 C146 1.378 . S
C146 H131 0.940 . S
C146 C145 1.378 . S
C146 C147 1.396 . S
C147 H132 0.940 . S
C147 C142 1.391 . S
C147 C146 1.396 . S
C148 P128 1.803 . S
C148 C149 1.378 . S
C148 C153 1.400 . S
C149 H133 0.939 . S
C149 C148 1.378 . S
C149 C150 1.361 . S
C150 H134 0.942 . S
C150 C149 1.361 . S
C150 C151 1.369 . S
C151 C150 1.369 . S
C151 C152 1.404 . S
C152 H135 0.940 . S
C152 C151 1.404 . S
C152 C153 1.389 . S
C153 H136 0.939 . S
C153 C148 1.400 . S
C153 C152 1.389 . S
C154 P128 1.819 . S
C154 C155 1.391 . S
C154 C159 1.391 . S
C155 H137 0.941 . S
C155 C154 1.391 . S
C155 C156 1.396 . S
C156 H140 0.939 . S
C156 C155 1.396 . S
C156 C157 1.397 . S
C157 C156 1.397 . S
C157 C158 1.385 . S
C158 H141 0.940 . S
C158 C157 1.385 . S
C158 C159 1.388 . S
C159 H138 0.939 . S
C159 C154 1.391 . S
C159 C158 1.388 . S
P160 O171 1.490 . S
P160 C174 1.812 . S
P160 C180 1.803 . S
P160 C186 1.819 . S
H161 C175 0.941 . S
H162 C176 0.939 . S
H163 C178 0.940 . S
H164 C179 0.940 . S
H165 C181 0.939 . S
H166 C182 0.942 . S
H167 C184 0.940 . S
H168 C185 0.939 . S
H169 C187 0.941 . S
H170 C191 0.939 . S
O171 P160 1.490 . S
H172 C188 0.939 . S
H173 C190 0.940 . S
C174 P160 1.812 . S
C174 C175 1.389 . S
C174 C179 1.391 . S
C175 H161 0.941 . S
C175 C174 1.389 . S
C175 C176 1.397 . S
C176 H162 0.939 . S
C176 C175 1.397 . S
C176 C177 1.378 . S
C177 C176 1.378 . S
C177 C178 1.378 . S
C178 H163 0.940 . S
C178 C177 1.378 . S
C178 C179 1.396 . S
C179 H164 0.940 . S
C179 C174 1.391 . S
C179 C178 1.396 . S
C180 P160 1.803 . S
C180 C181 1.378 . S
C180 C185 1.400 . S
C181 H165 0.939 . S
C181 C180 1.378 . S
C181 C182 1.361 . S
C182 H166 0.942 . S
C182 C181 1.361 . S
C182 C183 1.369 . S
C183 C182 1.369 . S
C183 C184 1.404 . S
C184 H167 0.940 . S
C184 C183 1.404 . S
C184 C185 1.389 . S
C185 H168 0.939 . S
C185 C180 1.400 . S
C185 C184 1.389 . S
C186 P160 1.819 . S
C186 C187 1.391 . S
C186 C191 1.391 . S
C187 H169 0.941 . S
C187 C186 1.391 . S
C187 C188 1.396 . S
C188 H172 0.939 . S
C188 C187 1.396 . S
C188 C189 1.397 . S
C189 C188 1.397 . S
C189 C190 1.385 . S
C190 H173 0.940 . S
C190 C189 1.385 . S
C190 C191 1.388 . S
C191 H170 0.939 . S
C191 C186 1.391 . S
C191 C190 1.388 . S
P192 O203 1.490 . S
P192 C206 1.812 . S
P192 C212 1.803 . S
P192 C218 1.819 . S
H193 C207 0.941 . S
H194 C208 0.939 . S
H195 C210 0.940 . S
H196 C211 0.940 . S
H197 C213 0.939 . S
H198 C214 0.942 . S
H199 C216 0.940 . S
H200 C217 0.939 . S
H201 C219 0.941 . S
H202 C223 0.939 . S
O203 P192 1.490 . S
H204 C220 0.939 . S
H205 C222 0.940 . S
C206 P192 1.812 . S
C206 C207 1.389 . S
C206 C211 1.391 . S
C207 H193 0.941 . S
C207 C206 1.389 . S
C207 C208 1.397 . S
C208 H194 0.939 . S
C208 C207 1.397 . S
C208 C209 1.378 . S
C209 C208 1.378 . S
C209 C210 1.378 . S
C210 H195 0.940 . S
C210 C209 1.378 . S
C210 C211 1.396 . S
C211 H196 0.940 . S
C211 C206 1.391 . S
C211 C210 1.396 . S
C212 P192 1.803 . S
C212 C213 1.378 . S
C212 C217 1.400 . S
C213 H197 0.939 . S
C213 C212 1.378 . S
C213 C214 1.361 . S
C214 H198 0.942 . S
C214 C213 1.361 . S
C214 C215 1.369 . S
C215 C214 1.369 . S
C215 C216 1.404 . S
C216 H199 0.940 . S
C216 C215 1.404 . S
C216 C217 1.389 . S
C217 H200 0.939 . S
C217 C212 1.400 . S
C217 C216 1.389 . S
C218 P192 1.819 . S
C218 C219 1.391 . S
C218 C223 1.391 . S
C219 H201 0.941 . S
C219 C218 1.391 . S
C219 C220 1.396 . S
C220 H204 0.939 . S
C220 C219 1.396 . S
C220 C221 1.397 . S
C221 C220 1.397 . S
C221 C222 1.385 . S
C222 H205 0.940 . S
C222 C221 1.385 . S
C222 C223 1.388 . S
C223 H202 0.939 . S
C223 C218 1.391 . S
C223 C222 1.388 . S
P224 O235 1.490 . S
P224 C238 1.812 . S
P224 C244 1.803 . S
P224 C250 1.819 . S
H225 C239 0.941 . S
H226 C240 0.939 . S
H227 C242 0.940 . S
H228 C243 0.940 . S
H229 C245 0.939 . S
H230 C246 0.942 . S
H231 C248 0.940 . S
H232 C249 0.939 . S
H233 C251 0.941 . S
H234 C255 0.939 . S
O235 P224 1.490 . S
H236 C252 0.939 . S
H237 C254 0.940 . S
C238 P224 1.812 . S
C238 C239 1.389 . S
C238 C243 1.391 . S
C239 H225 0.941 . S
C239 C238 1.389 . S
C239 C240 1.397 . S
C240 H226 0.939 . S
C240 C239 1.397 . S
C240 C241 1.378 . S
C241 C240 1.378 . S
C241 C242 1.378 . S
C242 H227 0.940 . S
C242 C241 1.378 . S
C242 C243 1.396 . S
C243 H228 0.940 . S
C243 C238 1.391 . S
C243 C242 1.396 . S
C244 P224 1.803 . S
C244 C245 1.378 . S
C244 C249 1.400 . S
C245 H229 0.939 . S
C245 C244 1.378 . S
C245 C246 1.361 . S
C246 H230 0.942 . S
C246 C245 1.361 . S
C246 C247 1.369 . S
C247 C246 1.369 . S
C247 C248 1.404 . S
C248 H231 0.940 . S
C248 C247 1.404 . S
C248 C249 1.389 . S
C249 H232 0.939 . S
C249 C244 1.400 . S
C249 C248 1.389 . S
C250 P224 1.819 . S
C250 C251 1.391 . S
C250 C255 1.391 . S
C251 H233 0.941 . S
C251 C250 1.391 . S
C251 C252 1.396 . S
C252 H236 0.939 . S
C252 C251 1.396 . S
C252 C253 1.397 . S
C253 C252 1.397 . S
C253 C254 1.385 . S
C254 H237 0.940 . S
C254 C253 1.385 . S
C254 C255 1.388 . S
C255 H234 0.939 . S
C255 C250 1.391 . S
C255 C254 1.388 . S
Ho256 C259 2.811 . S
Ho256 O276 2.322 . S
Ho256 O278 2.378 . S
Ho256 O279 2.524 . S
Ho256 O280 2.381 1_545 S
Ho256 O281 2.669 1_545 S
Ho256 O283 2.346 1_445 S
Ho256 O287 2.305 1_455 S
Ho257 C268 2.830 . S
Ho257 O277 2.324 1_665 S
Ho257 O281 2.317 1_655 S
Ho257 O282 2.338 . S
Ho257 O284 2.388 . S
Ho257 O285 2.550 . S
Ho257 O286 2.364 1_565 S
Ho257 O287 2.657 1_565 S
C258 O276 1.259 . S
C258 O277 1.268 . S
C259 Ho256 2.811 . S
C259 C260 1.488 . S
C259 O278 1.215 . S
C259 O279 1.289 . S
C260 C259 1.488 . S
C260 C261 1.348 . S
C260 C265 1.413 . S
C261 C260 1.348 . S
C261 C262 1.442 . S
C261 H288 0.930 . S
C262 C261 1.442 . S
C262 C263 1.381 . S
C262 H289 0.931 . S
C263 C262 1.381 . S
C263 C264 1.321 . S
C264 C263 1.321 . S
C264 C265 1.403 . S
C264 H290 0.934 . S
C265 C260 1.413 . S
C265 C264 1.403 . S
C265 H291 0.930 . S
C266 O280 1.275 . S
C266 O281 1.256 . S
C267 O282 1.259 . S
C267 O283 1.268 . S
C268 Ho257 2.830 . S
C268 C269 1.488 . S
C268 O284 1.215 . S
C268 O285 1.289 . S
C269 C268 1.488 . S
C269 C270 1.348 . S
C269 C274 1.413 . S
C270 C269 1.348 . S
C270 C271 1.442 . S
C270 H292 0.930 . S
C271 C270 1.442 . S
C271 C272 1.381 . S
C271 H293 0.931 . S
C272 C271 1.381 . S
C272 C273 1.321 . S
C273 C272 1.321 . S
C273 C274 1.403 . S
C273 H294 0.934 . S
C274 C269 1.413 . S
C274 C273 1.403 . S
C274 H295 0.930 . S
C275 O286 1.275 . S
C275 O287 1.256 . S
O276 Ho256 2.322 . S
O276 C258 1.259 . S
O277 Ho257 2.324 1_445 S
O277 C258 1.268 . S
O278 Ho256 2.378 . S
O278 C259 1.215 . S
O279 Ho256 2.524 . S
O279 C259 1.289 . S
O280 Ho256 2.381 1_565 S
O280 C266 1.275 . S
O281 Ho256 2.669 1_565 S
O281 Ho257 2.317 1_455 S
O281 C266 1.256 . S
O282 Ho257 2.338 . S
O282 C267 1.259 . S
O283 Ho256 2.346 1_665 S
O283 C267 1.268 . S
O284 Ho257 2.388 . S
O284 C268 1.215 . S
O285 Ho257 2.550 . S
O285 C268 1.289 . S
O286 Ho257 2.364 1_545 S
O286 C275 1.275 . S
O287 Ho256 2.305 1_655 S
O287 Ho257 2.657 1_545 S
O287 C275 1.256 . S
H288 C261 0.930 . S
H289 C262 0.931 . S
H290 C264 0.934 . S
H291 C265 0.930 . S
H292 C270 0.930 . S
H293 C271 0.931 . S
H294 C273 0.934 . S
H295 C274 0.930 . S
Ho296 C299 2.811 . S
Ho296 O316 2.322 . S
Ho296 O318 2.378 . S
Ho296 O319 2.524 . S
Ho296 O320 2.381 1_545 S
Ho296 O321 2.669 1_545 S
Ho296 O323 2.346 1_544 S
Ho296 O327 2.305 1_554 S
Ho297 C308 2.811 1_545 S
Ho297 O317 2.346 1_556 S
Ho297 O321 2.305 1_546 S
Ho297 O322 2.322 1_545 S
Ho297 O324 2.378 . S
Ho297 O325 2.524 1_545 S
Ho297 O326 2.381 . S
Ho297 O327 2.669 . S
C298 O316 1.259 . S
C298 O317 1.268 . S
C299 Ho296 2.811 . S
C299 C300 1.488 . S
C299 O318 1.215 . S
C299 O319 1.289 . S
C300 C299 1.488 . S
C300 C301 1.348 . S
C300 C305 1.413 . S
C301 C300 1.348 . S
C301 C302 1.442 . S
C301 H328 0.930 . S
C302 C301 1.442 . S
C302 C303 1.381 . S
C302 H329 0.931 . S
C303 C302 1.381 . S
C303 C304 1.321 . S
C304 C303 1.321 . S
C304 C305 1.403 . S
C304 H330 0.934 . S
C305 C300 1.413 . S
C305 C304 1.403 . S
C305 H331 0.930 . S
C306 O320 1.275 . S
C306 O321 1.256 . S
C307 O322 1.259 . S
C307 O323 1.268 . S
C308 Ho297 2.811 1_565 S
C308 C309 1.488 . S
C308 O324 1.215 1_565 S
C308 O325 1.289 . S
C309 C308 1.488 . S
C309 C310 1.348 . S
C309 C314 1.413 . S
C310 C309 1.348 . S
C310 C311 1.442 . S
C310 H332 0.930 . S
C311 C310 1.442 . S
C311 C312 1.381 . S
C311 H333 0.931 . S
C312 C311 1.381 . S
C312 C313 1.321 . S
C313 C312 1.321 . S
C313 C314 1.403 . S
C313 H334 0.934 . S
C314 C309 1.413 . S
C314 C313 1.403 . S
C314 H335 0.930 . S
C315 O326 1.275 . S
C315 O327 1.256 . S
O316 Ho296 2.322 . S
O316 C298 1.259 . S
O317 Ho297 2.346 1_554 S
O317 C298 1.268 . S
O318 Ho296 2.378 . S
O318 C299 1.215 . S
O319 Ho296 2.524 . S
O319 C299 1.289 . S
O320 Ho296 2.381 1_565 S
O320 C306 1.275 . S
O321 Ho296 2.669 1_565 S
O321 Ho297 2.305 1_564 S
O321 C306 1.256 . S
O322 Ho297 2.322 1_565 S
O322 C307 1.259 . S
O323 Ho296 2.346 1_566 S
O323 C307 1.268 . S
O324 Ho297 2.378 . S
O324 C308 1.215 1_545 S
O325 Ho297 2.524 1_565 S
O325 C308 1.289 . S
O326 Ho297 2.381 . S
O326 C315 1.275 . S
O327 Ho296 2.305 1_556 S
O327 Ho297 2.669 . S
O327 C315 1.256 . S
H328 C301 0.930 . S
H329 C302 0.931 . S
H330 C304 0.934 . S
H331 C305 0.930 . S
H332 C310 0.930 . S
H333 C311 0.931 . S
H334 C313 0.934 . S
H335 C314 0.930 . S
Ho336 C339 2.811 . S
Ho336 O356 2.322 . S
Ho336 O358 2.378 . S
Ho336 O359 2.524 . S
Ho336 O360 2.381 . S
Ho336 O361 2.669 . S
Ho336 O363 2.346 . S
Ho336 O367 2.305 . S
Ho337 C348 2.811 . S
Ho337 O357 2.346 . S
Ho337 O361 2.305 . S
Ho337 O362 2.322 . S
Ho337 O364 2.378 . S
Ho337 O365 2.524 . S
Ho337 O366 2.381 . S
Ho337 O367 2.669 . S
C338 O356 1.259 . S
C338 O357 1.268 . S
C339 Ho336 2.811 . S
C339 C340 1.488 . S
C339 O358 1.215 . S
C339 O359 1.289 . S
C340 C339 1.488 . S
C340 C341 1.348 . S
C340 C345 1.413 . S
C341 C340 1.348 . S
C341 C342 1.442 . S
C341 H368 0.930 . S
C342 C341 1.442 . S
C342 C343 1.381 . S
C342 H369 0.931 . S
C343 C342 1.381 . S
C343 C344 1.321 . S
C344 C343 1.321 . S
C344 C345 1.403 . S
C344 H370 0.934 . S
C345 C340 1.413 . S
C345 C344 1.403 . S
C345 H371 0.930 . S
C346 O360 1.275 . S
C346 O361 1.256 . S
C347 O362 1.259 . S
C347 O363 1.268 . S
C348 Ho337 2.811 . S
C348 C349 1.488 . S
C348 O364 1.215 . S
C348 O365 1.289 . S
C349 C348 1.488 . S
C349 C350 1.348 . S
C349 C354 1.413 . S
C350 C349 1.348 . S
C350 C351 1.442 . S
C350 H372 0.930 . S
C351 C350 1.442 . S
C351 C352 1.381 . S
C351 H373 0.931 . S
C352 C351 1.381 . S
C352 C353 1.321 . S
C353 C352 1.321 . S
C353 C354 1.403 . S
C353 H374 0.934 . S
C354 C349 1.413 . S
C354 C353 1.403 . S
C354 H375 0.930 . S
C355 O366 1.275 . S
C355 O367 1.256 . S
O356 Ho336 2.322 . S
O356 C338 1.259 . S
O357 Ho337 2.346 . S
O357 C338 1.268 . S
O358 Ho336 2.378 . S
O358 C339 1.215 . S
O359 Ho336 2.524 . S
O359 C339 1.289 . S
O360 Ho336 2.381 . S
O360 C346 1.275 . S
O361 Ho336 2.669 . S
O361 Ho337 2.305 . S
O361 C346 1.256 . S
O362 Ho337 2.322 . S
O362 C347 1.259 . S
O363 Ho336 2.346 . S
O363 C347 1.268 . S
O364 Ho337 2.378 . S
O364 C348 1.215 . S
O365 Ho337 2.524 . S
O365 C348 1.289 . S
O366 Ho337 2.381 . S
O366 C355 1.275 . S
O367 Ho336 2.305 . S
O367 Ho337 2.669 . S
O367 C355 1.256 . S
H368 C341 0.930 . S
H369 C342 0.931 . S
H370 C344 0.934 . S
H371 C345 0.930 . S
H372 C350 0.930 . S
H373 C351 0.931 . S
H374 C353 0.934 . S
H375 C354 0.930 . S
Ho376 C379 2.811 . S
Ho376 O396 2.322 . S
Ho376 O398 2.378 . S
Ho376 O399 2.524 . S
Ho376 O400 2.381 1_455 S
Ho376 O401 2.669 1_455 S
Ho376 O403 2.346 1_454 S
Ho376 O407 2.305 1_554 S
Ho377 C388 2.811 . S
Ho377 O397 2.346 1_656 S
Ho377 O401 2.305 1_556 S
Ho377 O402 2.322 . S
Ho377 O404 2.378 . S
Ho377 O405 2.524 . S
Ho377 O406 2.381 1_655 S
Ho377 O407 2.669 1_655 S
C378 O396 1.259 . S
C378 O397 1.268 . S
C379 Ho376 2.811 . S
C379 C380 1.488 . S
C379 O398 1.215 . S
C379 O399 1.289 . S
C380 C379 1.488 . S
C380 C381 1.348 . S
C380 C385 1.413 . S
C381 C380 1.348 . S
C381 C382 1.442 . S
C381 H408 0.930 . S
C382 C381 1.442 . S
C382 C383 1.381 . S
C382 H409 0.931 . S
C383 C382 1.381 . S
C383 C384 1.321 . S
C384 C383 1.321 . S
C384 C385 1.403 . S
C384 H410 0.934 . S
C385 C380 1.413 . S
C385 C384 1.403 . S
C385 H411 0.930 . S
C386 O400 1.275 . S
C386 O401 1.256 . S
C387 O402 1.259 . S
C387 O403 1.268 . S
C388 Ho377 2.811 . S
C388 C389 1.488 . S
C388 O404 1.215 . S
C388 O405 1.289 . S
C389 C388 1.488 . S
C389 C390 1.348 . S
C389 C394 1.413 . S
C390 C389 1.348 . S
C390 C391 1.442 . S
C390 H412 0.930 . S
C391 C390 1.442 . S
C391 C392 1.381 . S
C391 H413 0.931 . S
C392 C391 1.381 . S
C392 C393 1.321 . S
C393 C392 1.321 . S
C393 C394 1.403 . S
C393 H414 0.934 . S
C394 C389 1.413 . S
C394 C393 1.403 . S
C394 H415 0.930 . S
C395 O406 1.275 . S
C395 O407 1.256 . S
O396 Ho376 2.322 . S
O396 C378 1.259 . S
O397 Ho377 2.346 1_454 S
O397 C378 1.268 . S
O398 Ho376 2.378 . S
O398 C379 1.215 . S
O399 Ho376 2.524 . S
O399 C379 1.289 . S
O400 Ho376 2.381 1_655 S
O400 C386 1.275 . S
O401 Ho376 2.669 1_655 S
O401 Ho377 2.305 1_554 S
O401 C386 1.256 . S
O402 Ho377 2.322 . S
O402 C387 1.259 . S
O403 Ho376 2.346 1_656 S
O403 C387 1.268 . S
O404 Ho377 2.378 . S
O404 C388 1.215 . S
O405 Ho377 2.524 . S
O405 C388 1.289 . S
O406 Ho377 2.381 1_455 S
O406 C395 1.275 . S
O407 Ho376 2.305 1_556 S
O407 Ho377 2.669 1_455 S
O407 C395 1.256 . S
H408 C381 0.930 . S
H409 C382 0.931 . S
H410 C384 0.934 . S
H411 C385 0.930 . S
H412 C390 0.930 . S
H413 C391 0.931 . S
H414 C393 0.934 . S
H415 C394 0.930 . S
C416 C417 1.369 . S
C416 C418 1.419 . S
C416 H420 0.930 . S
C417 C416 1.369 . S
C417 C426 1.429 . S
C418 C416 1.419 . S
C418 C419 1.363 . S
C418 H421 0.929 . S
C419 C418 1.363 . S
C419 C425 1.428 . S
H420 C416 0.930 . S
H421 C418 0.929 . S
S422 N423 1.613 . S
S422 N424 1.610 . S
N423 S422 1.613 . S
N423 C426 1.350 . S
N424 S422 1.610 . S
N424 C425 1.351 . S
C425 C419 1.428 . S
C425 N424 1.351 . S
C425 C426 1.434 . S
C426 C417 1.429 . S
C426 N423 1.350 . S
C426 C425 1.434 . S
C427 C428 1.369 . S
C427 C429 1.419 . S
C427 H431 0.930 . S
C428 C427 1.369 . S
C428 C437 1.429 . S
C429 C427 1.419 . S
C429 C430 1.363 . S
C429 H432 0.929 . S
C430 C429 1.363 . S
C430 C436 1.428 . S
H431 C427 0.930 . S
H432 C429 0.929 . S
S433 N434 1.613 . S
S433 N435 1.610 . S
N434 S433 1.613 . S
N434 C437 1.350 . S
N435 S433 1.610 . S
N435 C436 1.351 . S
C436 C430 1.428 . S
C436 N435 1.351 . S
C436 C437 1.434 . S
C437 C428 1.429 . S
C437 N434 1.350 . S
C437 C436 1.434 . S
C438 C439 1.369 . S
C438 C440 1.419 . S
C438 H442 0.930 . S
C439 C438 1.369 . S
C439 C448 1.429 . S
C440 C438 1.419 . S
C440 C441 1.363 . S
C440 H443 0.929 . S
C441 C440 1.363 . S
C441 C447 1.428 . S
H442 C438 0.930 . S
H443 C440 0.929 . S
S444 N445 1.613 . S
S444 N446 1.610 . S
N445 S444 1.613 . S
N445 C448 1.350 . S
N446 S444 1.610 . S
N446 C447 1.351 . S
C447 C441 1.428 . S
C447 N446 1.351 . S
C447 C448 1.434 . S
C448 C439 1.429 . S
C448 N445 1.350 . S
C448 C447 1.434 . S
C449 C450 1.369 . S
C449 C451 1.419 . S
C449 H453 0.930 . S
C450 C449 1.369 . S
C450 C459 1.429 . S
C451 C449 1.419 . S
C451 C452 1.363 . S
C451 H454 0.929 . S
C452 C451 1.363 . S
C452 C458 1.428 . S
H453 C449 0.930 . S
H454 C451 0.929 . S
S455 N456 1.613 . S
S455 N457 1.610 . S
N456 S455 1.613 . S
N456 C459 1.350 . S
N457 S455 1.610 . S
N457 C458 1.351 . S
C458 C452 1.428 . S
C458 N457 1.351 . S
C458 C459 1.434 . S
C459 C450 1.429 . S
C459 N456 1.350 . S
C459 C458 1.434 . S
C460 C461 1.369 . S
C460 C462 1.419 . S
C460 H464 0.930 . S
C461 C460 1.369 . S
C461 C470 1.429 . S
C462 C460 1.419 . S
C462 C463 1.363 . S
C462 H465 0.929 . S
C463 C462 1.363 . S
C463 C469 1.428 . S
H464 C460 0.930 . S
H465 C462 0.929 . S
S466 N467 1.613 . S
S466 N468 1.610 . S
N467 S466 1.613 . S
N467 C470 1.350 . S
N468 S466 1.610 . S
N468 C469 1.351 . S
C469 C463 1.428 . S
C469 N468 1.351 . S
C469 C470 1.434 . S
C470 C461 1.429 . S
C470 N467 1.350 . S
C470 C469 1.434 . S
C471 C472 1.369 . S
C471 C473 1.419 . S
C471 H475 0.930 . S
C472 C471 1.369 . S
C472 C481 1.429 . S
C473 C471 1.419 . S
C473 C474 1.363 . S
C473 H476 0.929 . S
C474 C473 1.363 . S
C474 C480 1.428 . S
H475 C471 0.930 . S
H476 C473 0.929 . S
S477 N478 1.613 . S
S477 N479 1.610 . S
N478 S477 1.613 . S
N478 C481 1.350 . S
N479 S477 1.610 . S
N479 C480 1.351 . S
C480 C474 1.428 . S
C480 N479 1.351 . S
C480 C481 1.434 . S
C481 C472 1.429 . S
C481 N478 1.350 . S
C481 C480 1.434 . S
C482 C483 1.369 . S
C482 C484 1.419 . S
C482 H486 0.930 . S
C483 C482 1.369 . S
C483 C492 1.429 . S
C484 C482 1.419 . S
C484 C485 1.363 . S
C484 H487 0.929 . S
C485 C484 1.363 . S
C485 C491 1.428 . S
H486 C482 0.930 . S
H487 C484 0.929 . S
S488 N489 1.613 . S
S488 N490 1.610 . S
N489 S488 1.613 . S
N489 C492 1.350 . S
N490 S488 1.610 . S
N490 C491 1.351 . S
C491 C485 1.428 . S
C491 N490 1.351 . S
C491 C492 1.434 . S
C492 C483 1.429 . S
C492 N489 1.350 . S
C492 C491 1.434 . S
C493 C494 1.369 . S
C493 C495 1.419 . S
C493 H497 0.930 . S
C494 C493 1.369 . S
C494 C503 1.429 . S
C495 C493 1.419 . S
C495 C496 1.363 . S
C495 H498 0.929 . S
C496 C495 1.363 . S
C496 C502 1.428 . S
H497 C493 0.930 . S
H498 C495 0.929 . S
S499 N500 1.613 . S
S499 N501 1.610 . S
N500 S499 1.613 . S
N500 C503 1.350 . S
N501 S499 1.610 . S
N501 C502 1.351 . S
C502 C496 1.428 . S
C502 N501 1.351 . S
C502 C503 1.434 . S
C503 C494 1.429 . S
C503 N500 1.350 . S
C503 C502 1.434 . S
C504 C505 1.369 . S
C504 C506 1.419 . S
C504 H508 0.930 . S
C505 C504 1.369 . S
C505 C514 1.429 . S
C506 C504 1.419 . S
C506 C507 1.363 . S
C506 H509 0.929 . S
C507 C506 1.363 . S
C507 C513 1.428 . S
H508 C504 0.930 . S
H509 C506 0.929 . S
S510 N511 1.613 . S
S510 N512 1.610 . S
N511 S510 1.613 . S
N511 C514 1.350 . S
N512 S510 1.610 . S
N512 C513 1.351 . S
C513 C507 1.428 . S
C513 N512 1.351 . S
C513 C514 1.434 . S
C514 C505 1.429 . S
C514 N511 1.350 . S
C514 C513 1.434 . S
C515 C516 1.369 . S
C515 C517 1.419 . S
C515 H519 0.930 . S
C516 C515 1.369 . S
C516 C525 1.429 . S
C517 C515 1.419 . S
C517 C518 1.363 . S
C517 H520 0.929 . S
C518 C517 1.363 . S
C518 C524 1.428 . S
H519 C515 0.930 . S
H520 C517 0.929 . S
S521 N522 1.613 . S
S521 N523 1.610 . S
N522 S521 1.613 . S
N522 C525 1.350 . S
N523 S521 1.610 . S
N523 C524 1.351 . S
C524 C518 1.428 . S
C524 N523 1.351 . S
C524 C525 1.434 . S
C525 C516 1.429 . S
C525 N522 1.350 . S
C525 C524 1.434 . S
C526 C527 1.369 . S
C526 C528 1.419 . S
C526 H530 0.930 . S
C527 C526 1.369 . S
C527 C536 1.429 . S
C528 C526 1.419 . S
C528 C529 1.363 . S
C528 H531 0.929 . S
C529 C528 1.363 . S
C529 C535 1.428 . S
H530 C526 0.930 . S
H531 C528 0.929 . S
S532 N533 1.613 . S
S532 N534 1.610 . S
N533 S532 1.613 . S
N533 C536 1.350 . S
N534 S532 1.610 . S
N534 C535 1.351 . S
C535 C529 1.428 . S
C535 N534 1.351 . S
C535 C536 1.434 . S
C536 C527 1.429 . S
C536 N533 1.350 . S
C536 C535 1.434 . S
C537 C538 1.369 . S
C537 C539 1.419 . S
C537 H541 0.930 . S
C538 C537 1.369 . S
C538 C547 1.429 . S
C539 C537 1.419 . S
C539 C540 1.363 . S
C539 H542 0.929 . S
C540 C539 1.363 . S
C540 C546 1.428 . S
H541 C537 0.930 . S
H542 C539 0.929 . S
S543 N544 1.613 . S
S543 N545 1.610 . S
N544 S543 1.613 . S
N544 C547 1.350 . S
N545 S543 1.610 . S
N545 C546 1.351 . S
C546 C540 1.428 . S
C546 N545 1.351 . S
C546 C547 1.434 . S
C547 C538 1.429 . S
C547 N544 1.350 . S
C547 C546 1.434 . S
C548 C549 1.369 . S
C548 C550 1.419 . S
C548 H552 0.930 . S
C549 C548 1.369 . S
C549 C558 1.429 . S
C550 C548 1.419 . S
C550 C551 1.363 . S
C550 H553 0.929 . S
C551 C550 1.363 . S
C551 C557 1.428 . S
H552 C548 0.930 . S
H553 C550 0.929 . S
S554 N555 1.613 . S
S554 N556 1.610 . S
N555 S554 1.613 . S
N555 C558 1.350 . S
N556 S554 1.610 . S
N556 C557 1.351 . S
C557 C551 1.428 . S
C557 N556 1.351 . S
C557 C558 1.434 . S
C558 C549 1.429 . S
C558 N555 1.350 . S
C558 C557 1.434 . S
C559 C560 1.369 . S
C559 C561 1.419 . S
C559 H563 0.930 . S
C560 C559 1.369 . S
C560 C569 1.429 . S
C561 C559 1.419 . S
C561 C562 1.363 . S
C561 H564 0.929 . S
C562 C561 1.363 . S
C562 C568 1.428 . S
H563 C559 0.930 . S
H564 C561 0.929 . S
S565 N566 1.613 . S
S565 N567 1.610 . S
N566 S565 1.613 . S
N566 C569 1.350 . S
N567 S565 1.610 . S
N567 C568 1.351 . S
C568 C562 1.428 . S
C568 N567 1.351 . S
C568 C569 1.434 . S
C569 C560 1.429 . S
C569 N566 1.350 . S
C569 C568 1.434 . S
C570 C571 1.369 . S
C570 C572 1.419 . S
C570 H574 0.930 . S
C571 C570 1.369 . S
C571 C580 1.429 . S
C572 C570 1.419 . S
C572 C573 1.363 . S
C572 H575 0.929 . S
C573 C572 1.363 . S
C573 C579 1.428 . S
H574 C570 0.930 . S
H575 C572 0.929 . S
S576 N577 1.613 . S
S576 N578 1.610 . S
N577 S576 1.613 . S
N577 C580 1.350 . S
N578 S576 1.610 . S
N578 C579 1.351 . S
C579 C573 1.428 . S
C579 N578 1.351 . S
C579 C580 1.434 . S
C580 C571 1.429 . S
C580 N577 1.350 . S
C580 C579 1.434 . S
C581 C582 1.369 . S
C581 C583 1.419 . S
C581 H585 0.930 . S
C582 C581 1.369 . S
C582 C591 1.429 . S
C583 C581 1.419 . S
C583 C584 1.363 . S
C583 H586 0.929 . S
C584 C583 1.363 . S
C584 C590 1.428 . S
H585 C581 0.930 . S
H586 C583 0.929 . S
S587 N588 1.613 . S
S587 N589 1.610 . S
N588 S587 1.613 . S
N588 C591 1.350 . S
N589 S587 1.610 . S
N589 C590 1.351 . S
C590 C584 1.428 . S
C590 N589 1.351 . S
C590 C591 1.434 . S
C591 C582 1.429 . S
C591 N588 1.350 . S
C591 C590 1.434 . S
C592 C593 1.369 . S
C592 C594 1.419 . S
C592 H596 0.930 . S
C593 C592 1.369 . S
C593 C602 1.429 . S
C594 C592 1.419 . S
C594 C595 1.363 . S
C594 H597 0.929 . S
C595 C594 1.363 . S
C595 C601 1.428 . S
H596 C592 0.930 . S
H597 C594 0.929 . S
S598 N599 1.613 . S
S598 N600 1.610 . S
N599 S598 1.613 . S
N599 C602 1.350 . S
N600 S598 1.610 . S
N600 C601 1.351 . S
C601 C595 1.428 . S
C601 N600 1.351 . S
C601 C602 1.434 . S
C602 C593 1.429 . S
C602 N599 1.350 . S
C602 C601 1.434 . S
C603 C604 1.369 . S
C603 C605 1.419 . S
C603 H607 0.930 . S
C604 C603 1.369 . S
C604 C613 1.429 . S
C605 C603 1.419 . S
C605 C606 1.363 . S
C605 H608 0.929 . S
C606 C605 1.363 . S
C606 C612 1.428 . S
H607 C603 0.930 . S
H608 C605 0.929 . S
S609 N610 1.613 . S
S609 N611 1.610 . S
N610 S609 1.613 . S
N610 C613 1.350 . S
N611 S609 1.610 . S
N611 C612 1.351 . S
C612 C606 1.428 . S
C612 N611 1.351 . S
C612 C613 1.434 . S
C613 C604 1.429 . S
C613 N610 1.350 . S
C613 C612 1.434 . S
C614 C615 1.369 . S
C614 C616 1.419 . S
C614 H618 0.930 . S
C615 C614 1.369 . S
C615 C624 1.429 . S
C616 C614 1.419 . S
C616 C617 1.363 . S
C616 H619 0.929 . S
C617 C616 1.363 . S
C617 C623 1.428 . S
H618 C614 0.930 . S
H619 C616 0.929 . S
S620 N621 1.613 . S
S620 N622 1.610 . S
N621 S620 1.613 . S
N621 C624 1.350 . S
N622 S620 1.610 . S
N622 C623 1.351 . S
C623 C617 1.428 . S
C623 N622 1.351 . S
C623 C624 1.434 . S
C624 C615 1.429 . S
C624 N621 1.350 . S
C624 C623 1.434 . S
C625 C626 1.369 . S
C625 C627 1.419 . S
C625 H629 0.930 . S
C626 C625 1.369 . S
C626 C635 1.429 . S
C627 C625 1.419 . S
C627 C628 1.363 . S
C627 H630 0.929 . S
C628 C627 1.363 . S
C628 C634 1.428 . S
H629 C625 0.930 . S
H630 C627 0.929 . S
S631 N632 1.613 . S
S631 N633 1.610 . S
N632 S631 1.613 . S
N632 C635 1.350 . S
N633 S631 1.610 . S
N633 C634 1.351 . S
C634 C628 1.428 . S
C634 N633 1.351 . S
C634 C635 1.434 . S
C635 C626 1.429 . S
C635 N632 1.350 . S
C635 C634 1.434 . S
C636 C637 1.369 . S
C636 C638 1.419 . S
C636 H640 0.930 . S
C637 C636 1.369 . S
C637 C646 1.429 . S
C638 C636 1.419 . S
C638 C639 1.363 . S
C638 H641 0.929 . S
C639 C638 1.363 . S
C639 C645 1.428 . S
H640 C636 0.930 . S
H641 C638 0.929 . S
S642 N643 1.613 . S
S642 N644 1.610 . S
N643 S642 1.613 . S
N643 C646 1.350 . S
N644 S642 1.610 . S
N644 C645 1.351 . S
C645 C639 1.428 . S
C645 N644 1.351 . S
C645 C646 1.434 . S
C646 C637 1.429 . S
C646 N643 1.350 . S
C646 C645 1.434 . S
C647 C648 1.369 . S
C647 C649 1.419 . S
C647 H651 0.930 . S
C648 C647 1.369 . S
C648 C657 1.429 . S
C649 C647 1.419 . S
C649 C650 1.363 . S
C649 H652 0.929 . S
C650 C649 1.363 . S
C650 C656 1.428 . S
H651 C647 0.930 . S
H652 C649 0.929 . S
S653 N654 1.613 . S
S653 N655 1.610 . S
N654 S653 1.613 . S
N654 C657 1.350 . S
N655 S653 1.610 . S
N655 C656 1.351 . S
C656 C650 1.428 . S
C656 N655 1.351 . S
C656 C657 1.434 . S
C657 C648 1.429 . S
C657 N654 1.350 . S
C657 C656 1.434 . S
C658 C659 1.369 . S
C658 C660 1.419 . S
C658 H662 0.930 . S
C659 C658 1.369 . S
C659 C668 1.429 . S
C660 C658 1.419 . S
C660 C661 1.363 . S
C660 H663 0.929 . S
C661 C660 1.363 . S
C661 C667 1.428 . S
H662 C658 0.930 . S
H663 C660 0.929 . S
S664 N665 1.613 . S
S664 N666 1.610 . S
N665 S664 1.613 . S
N665 C668 1.350 . S
N666 S664 1.610 . S
N666 C667 1.351 . S
C667 C661 1.428 . S
C667 N666 1.351 . S
C667 C668 1.434 . S
C668 C659 1.429 . S
C668 N665 1.350 . S
C668 C667 1.434 . S
C669 C670 1.369 . S
C669 C671 1.419 . S
C669 H673 0.930 . S
C670 C669 1.369 . S
C670 C679 1.429 . S
C671 C669 1.419 . S
C671 C672 1.363 . S
C671 H674 0.929 . S
C672 C671 1.363 . S
C672 C678 1.428 . S
H673 C669 0.930 . S
H674 C671 0.929 . S
S675 N676 1.613 . S
S675 N677 1.610 . S
N676 S675 1.613 . S
N676 C679 1.350 . S
N677 S675 1.610 . S
N677 C678 1.351 . S
C678 C672 1.428 . S
C678 N677 1.351 . S
C678 C679 1.434 . S
C679 C670 1.429 . S
C679 N676 1.350 . S
C679 C678 1.434 . S
C417 C29 1.285 . S
C419 C263 1.287 . S
C428 C49 1.022 . S
C430 C312 1.051 . S
C441 C338 2.532 . S
C439 C93 2.539 . S
C450 C119 2.373 . S
C452 C386 2.369 . S
C463 C298 2.395 . S
C461 C17 2.330 . S
C474 C266 0.845 . S
C472 C61 0.842 . S
C485 C387 1.928 . S
C483 C81 1.966 . S
C496 C355 1.751 . S
C494 C125 1.732 . S
C505 C23 1.651 . S
C507 C383 1.666 . S
C518 C315 2.323 . S
C516 C87 2.366 . S
C527 C113 2.333 . S
C529 C267 2.371 . S
C538 C55 1.029 . S
C540 C352 1.133 . S
C551 C272 1.299 . S
C549 C157 1.093 . S
C560 C189 1.083 . S
C562 C303 1.076 . S
C571 C221 2.509 . S
C573 C347 2.491 . S
C582 C253 2.438 . S
C584 C395 2.454 . S
C593 C145 2.102 . S
C595 C307 2.467 . S
C606 C275 0.817 . S
C604 C183 0.813 . S
C617 C378 1.959 . S
C615 C209 1.956 . S
C628 C346 1.720 . S
C626 C247 1.692 . S
C637 C151 1.481 . S
C639 C392 1.691 . S
C650 C306 2.322 . S
C648 C215 2.364 . S
C661 C258 2.348 . S
C659 C241 2.291 . S
C670 C177 1.112 . S
C672 C343 1.100 . S
