# Generated by pormake.
# Topology nom, (4,4)-cn, num edge types: 1
# Building blocks:
#     Node 0, Type 0, BuildingBlock: NAHDIM_clean_linker_0, # of connection points: 4
#     Node 1, Type 0, BuildingBlock: NAHDIM_clean_linker_0, # of connection points: 4
#     Node 2, Type 0, BuildingBlock: NAHDIM_clean_linker_0, # of connection points: 4
#     Node 3, Type 0, BuildingBlock: NAHDIM_clean_linker_0, # of connection points: 4
#     Node 4, Type 0, BuildingBlock: NAHDIM_clean_linker_0, # of connection points: 4
#     Node 5, Type 0, BuildingBlock: NAHDIM_clean_linker_0, # of connection points: 4
#     Node 6, Type 1, BuildingBlock: TATPOV_clean_sbu_0, # of connection points: 4
#     Node 7, Type 1, BuildingBlock: TATPOV_clean_sbu_0, # of connection points: 4
#     Node 8, Type 1, BuildingBlock: TATPOV_clean_sbu_0, # of connection points: 4
#     Node 9, Type 1, BuildingBlock: TATPOV_clean_sbu_0, # of connection points: 4
#     Node 10, Type 1, BuildingBlock: TATPOV_clean_sbu_0, # of connection points: 4
#     Node 11, Type 1, BuildingBlock: TATPOV_clean_sbu_0, # of connection points: 4
#     Edge 12, Type (0, 1), BuildingBlock: KIFKEQ_clean_linker_1, # of connection points: 2
#     Edge 13, Type (0, 1), BuildingBlock: KIFKEQ_clean_linker_1, # of connection points: 2
#     Edge 14, Type (0, 1), BuildingBlock: KIFKEQ_clean_linker_1, # of connection points: 2
#     Edge 15, Type (0, 1), BuildingBlock: KIFKEQ_clean_linker_1, # of connection points: 2
#     Edge 16, Type (0, 1), BuildingBlock: KIFKEQ_clean_linker_1, # of connection points: 2
#     Edge 17, Type (0, 1), BuildingBlock: KIFKEQ_clean_linker_1, # of connection points: 2
#     Edge 18, Type (0, 1), BuildingBlock: KIFKEQ_clean_linker_1, # of connection points: 2
#     Edge 19, Type (0, 1), BuildingBlock: KIFKEQ_clean_linker_1, # of connection points: 2
#     Edge 20, Type (0, 1), BuildingBlock: KIFKEQ_clean_linker_1, # of connection points: 2
#     Edge 21, Type (0, 1), BuildingBlock: KIFKEQ_clean_linker_1, # of connection points: 2
#     Edge 22, Type (0, 1), BuildingBlock: KIFKEQ_clean_linker_1, # of connection points: 2
#     Edge 23, Type (0, 1), BuildingBlock: KIFKEQ_clean_linker_1, # of connection points: 2
#     Edge 24, Type (0, 1), BuildingBlock: KIFKEQ_clean_linker_1, # of connection points: 2
#     Edge 25, Type (0, 1), BuildingBlock: KIFKEQ_clean_linker_1, # of connection points: 2
#     Edge 26, Type (0, 1), BuildingBlock: KIFKEQ_clean_linker_1, # of connection points: 2
#     Edge 27, Type (0, 1), BuildingBlock: KIFKEQ_clean_linker_1, # of connection points: 2
#     Edge 28, Type (0, 1), BuildingBlock: KIFKEQ_clean_linker_1, # of connection points: 2
#     Edge 29, Type (0, 1), BuildingBlock: KIFKEQ_clean_linker_1, # of connection points: 2
#     Edge 30, Type (0, 1), BuildingBlock: KIFKEQ_clean_linker_1, # of connection points: 2
#     Edge 31, Type (0, 1), BuildingBlock: KIFKEQ_clean_linker_1, # of connection points: 2
#     Edge 32, Type (0, 1), BuildingBlock: KIFKEQ_clean_linker_1, # of connection points: 2
#     Edge 33, Type (0, 1), BuildingBlock: KIFKEQ_clean_linker_1, # of connection points: 2
#     Edge 34, Type (0, 1), BuildingBlock: KIFKEQ_clean_linker_1, # of connection points: 2
#     Edge 35, Type (0, 1), BuildingBlock: KIFKEQ_clean_linker_1, # of connection points: 2
# Relax obj value: 0.066
# Max RMSD: 0.133
# Mean RMSD: 0.125
data_MOF--net-nom--node1-TATPOV_clean_sbu_0--node2-NAHDIM_clean_linker_0--edge1-KIFKEQ_clean_linker_1
_symmetry_space_group_name_H-M    P1
_symmetry_Int_Tables_number       1
_symmetry_cell_setting            triclinic
loop_
_symmetry_equiv_pos_as_xyz
'x, y, z'
_cell_length_a     57.882005
_cell_length_b     58.762815
_cell_length_c     70.386346
_cell_angle_alpha  90.657012
_cell_angle_beta   90.603154
_cell_angle_gamma 120.01199
loop_
_atom_site_label
_atom_site_type_symbol
_atom_site_fract_x
_atom_site_fract_y
_atom_site_fract_z
_atom_type_partial_charge
C0 C 0.14456 0.57727 0.22637 0.0
C1 C 0.15593 0.59142 0.24553 0.0
C2 C 0.11457 0.5771 0.26336 0.0
C3 C 0.11017 0.55213 0.2683 0.0
C4 C 0.08654 0.534 0.27718 0.0
C5 C 0.06665 0.54071 0.2808 0.0
C6 C 0.07095 0.56575 0.2757 0.0
C7 C 0.09508 0.58376 0.26736 0.0
C8 C 0.08279 0.5076 0.28263 0.0
C9 C 0.04996 0.57342 0.27881 0.0
C10 C 0.96208 0.39675 0.20169 0.0
C11 C 0.95186 0.41508 0.20816 0.0
C12 C 0.95145 0.42449 0.24142 0.0
C13 C 0.95149 0.44831 0.24208 0.0
C14 C 0.96492 0.46673 0.25682 0.0
C15 C 0.97889 0.46123 0.27099 0.0
C16 C 0.97785 0.43661 0.27076 0.0
C17 C 0.96374 0.41834 0.25605 0.0
C18 C 0.96513 0.49251 0.25679 0.0
C19 C 0.99282 0.4302 0.28544 0.0
C20 C 0.8965 0.43534 0.38491 0.0
C21 C 0.89853 0.45525 0.37305 0.0
C22 C 0.92321 0.4736 0.3655 0.0
C23 C 0.94608 0.47141 0.36946 0.0
C24 C 0.944 0.45144 0.38162 0.0
C25 C 0.91929 0.43399 0.38948 0.0
C26 C 0.9248 0.49532 0.35335 0.0
C27 C 0.96782 0.44841 0.38629 0.0
C28 C 0.14849 0.63609 0.40497 0.0
C29 C 0.12665 0.60969 0.41231 0.0
C30 C 0.08025 0.58744 0.4007 0.0
C31 C 0.06185 0.59263 0.39163 0.0
C32 C 0.04021 0.57296 0.38106 0.0
C33 C 0.03692 0.54747 0.37973 0.0
C34 C 0.05446 0.54164 0.38994 0.0
C35 C 0.07586 0.56166 0.40046 0.0
C36 C 0.02155 0.57967 0.37066 0.0
C37 C 0.05112 0.51448 0.38918 0.0
C38 C 0.04102 0.52125 0.28936 0.0
C39 C 0.02209 0.50109 0.27762 0.0
C40 C 0.99726 0.48237 0.28447 0.0
C41 C 0.99076 0.48401 0.30357 0.0
C42 C 0.96575 0.46596 0.31085 0.0
C43 C 0.95968 0.46774 0.32972 0.0
C44 C 0.97826 0.48784 0.34197 0.0
C45 C 0.97222 0.49007 0.36112 0.0
C46 C 0.99151 0.50994 0.37298 0.0
C47 C 0.01682 0.52764 0.36628 0.0
C48 C 0.02306 0.52602 0.34713 0.0
C49 C 0.04829 0.54372 0.33992 0.0
C50 C 0.05426 0.54212 0.32106 0.0
C51 C 0.03526 0.52274 0.30865 0.0
C52 C 0.0099 0.50428 0.3157 0.0
C53 C 0.0037 0.50609 0.33493 0.0
C54 C 0.83613 0.37514 0.38519 0.0
C55 C 0.84872 0.40476 0.3825 0.0
O56 O 0.13707 0.59534 0.2547 0.0
O57 O 0.10202 0.6078 0.40932 0.0
O58 O 0.87292 0.41736 0.39233 0.0
O59 O 0.94118 0.40809 0.22611 0.0
H60 H 0.16162 0.57948 0.25448 0.0
H61 H 0.12653 0.55783 0.22855 0.0
H62 H 0.13898 0.5891 0.2172 0.0
H63 H 0.15946 0.57391 0.21893 0.0
H64 H 0.125 0.54658 0.2654 0.0
H65 H 0.09863 0.60304 0.26351 0.0
H66 H 0.0671 0.49203 0.27333 0.0
H67 H 0.1014 0.50669 0.2812 0.0
H68 H 0.07601 0.50319 0.29753 0.0
H69 H 0.05497 0.59216 0.27183 0.0
H70 H 0.03027 0.55773 0.27324 0.0
H71 H 0.04798 0.5758 0.29426 0.0
H72 H 0.96983 0.43519 0.20859 0.0
H73 H 0.96892 0.4008 0.18678 0.0
H74 H 0.97927 0.40012 0.21089 0.0
H75 H 0.94641 0.37579 0.20284 0.0
H76 H 0.94151 0.45269 0.23081 0.0
H77 H 0.96347 0.39978 0.25534 0.0
H78 H 0.98508 0.50839 0.25247 0.0
H79 H 0.9499 0.49202 0.2468 0.0
H80 H 0.96145 0.49751 0.27129 0.0
H81 H 0.99054 0.41046 0.28296 0.0
H82 H 0.01438 0.44516 0.28527 0.0
H83 H 0.98547 0.43082 0.29982 0.0
H84 H 0.85188 0.40828 0.36696 0.0
H85 H 0.88092 0.45666 0.36995 0.0
H86 H 0.91747 0.41869 0.39885 0.0
H87 H 0.92754 0.49149 0.3383 0.0
H88 H 0.90645 0.49682 0.35417 0.0
H89 H 0.94224 0.51451 0.35778 0.0
H90 H 0.96199 0.42948 0.39329 0.0
H91 H 0.97892 0.44959 0.37322 0.0
H92 H 0.98156 0.46466 0.39606 0.0
H93 H 0.12825 0.59442 0.40387 0.0
H94 H 0.16847 0.63822 0.40747 0.0
H95 H 0.14559 0.63712 0.38944 0.0
H96 H 0.14786 0.65273 0.41211 0.0
H97 H 0.06508 0.61245 0.39225 0.0
H98 H 0.08923 0.55713 0.40827 0.0
H99 H 0.02388 0.57846 0.3551 0.0
H100 H 0.00054 0.56522 0.37399 0.0
H101 H 0.02547 0.59974 0.37438 0.0
H102 H 0.06575 0.51282 0.39854 0.0
H103 H 0.03066 0.49979 0.39352 0.0
H104 H 0.05362 0.50949 0.37437 0.0
H105 H 0.02677 0.49992 0.26287 0.0
H106 H 0.95062 0.45024 0.30202 0.0
H107 H 0.94018 0.45316 0.33456 0.0
H108 H 0.98689 0.51142 0.38768 0.0
H109 H 0.06374 0.55913 0.34876 0.0
H110 H 0.074 0.55628 0.31633 0.0
H111 H 0.83229 0.37025 0.40046 0.0
H112 H 0.81701 0.36432 0.377 0.0
H113 H 0.84983 0.36843 0.37997 0.0
C114 C 0.44121 0.86926 0.58521 0.0
C115 C 0.42737 0.85761 0.56597 0.0
C116 C 0.44051 0.89842 0.54861 0.0
C117 C 0.46666 0.90453 0.54435 0.0
C118 C 0.48469 0.92883 0.53649 0.0
C119 C 0.47657 0.94753 0.53316 0.0
C120 C 0.45021 0.94133 0.53737 0.0
C121 C 0.43243 0.91665 0.54472 0.0
C122 C 0.51251 0.93462 0.53193 0.0
C123 C 0.44093 0.96095 0.53452 0.0
C124 C 0.6073 0.04846 0.6247 0.0
C125 C 0.58963 0.05809 0.61564 0.0
C126 C 0.58424 0.05958 0.58166 0.0
C127 C 0.55877 0.05681 0.58063 0.0
C128 C 0.54217 0.04508 0.56461 0.0
C129 C 0.55117 0.03561 0.54948 0.0
C130 C 0.57749 0.03979 0.55006 0.0
C131 C 0.5939 0.05219 0.56608 0.0
C132 C 0.51456 0.04172 0.56426 0.0
C133 C 0.58773 0.02977 0.53428 0.0
C134 C 0.57213 0.13266 0.44529 0.0
C135 C 0.54865 0.12387 0.45555 0.0
C136 C 0.53301 0.09728 0.46018 0.0
C137 C 0.54134 0.07928 0.45465 0.0
C138 C 0.56469 0.08807 0.44384 0.0
C139 C 0.57959 0.11467 0.43905 0.0
C140 C 0.50765 0.08846 0.47104 0.0
C141 C 0.57409 0.06945 0.43756 0.0
C142 C 0.39966 0.87926 0.40928 0.0
C143 C 0.42324 0.90104 0.39878 0.0
C144 C 0.44089 0.9456 0.41176 0.0
C145 C 0.43162 0.96002 0.42175 0.0
C146 C 0.44863 0.9808 0.43409 0.0
C147 C 0.4756 0.98736 0.43625 0.0
C148 C 0.48553 0.97401 0.42516 0.0
C149 C 0.46809 0.95335 0.41291 0.0
C150 C 0.43756 0.99501 0.44543 0.0
C151 C 0.51439 0.98105 0.42673 0.0
C152 C 0.49598 0.97409 0.5263 0.0
C153 C 0.51437 0.99218 0.53946 0.0
C154 C 0.53194 0.01817 0.53455 0.0
C155 C 0.53078 0.0267 0.51604 0.0
C156 C 0.54713 0.05301 0.51086 0.0
C157 C 0.54563 0.06115 0.4926 0.0
C158 C 0.52774 0.04327 0.47883 0.0
C159 C 0.52574 0.05137 0.4603 0.0
C160 C 0.50845 0.03284 0.44679 0.0
C161 C 0.49276 0.00635 0.45133 0.0
C162 C 0.49377 0.99805 0.46995 0.0
C163 C 0.47762 0.97166 0.47512 0.0
C164 C 0.47838 0.96374 0.49353 0.0
C165 C 0.49552 0.98183 0.50744 0.0
C166 C 0.51262 0.00836 0.5024 0.0
C167 C 0.51139 0.01657 0.48371 0.0
C168 C 0.62616 0.18692 0.45968 0.0
C169 C 0.59738 0.17888 0.45425 0.0
O170 O 0.42246 0.87542 0.55657 0.0
O171 O 0.4231 0.92444 0.40118 0.0
O172 O 0.5877 0.15836 0.44102 0.0
O173 O 0.59925 0.06806 0.59788 0.0
H174 H 0.44021 0.85274 0.55718 0.0
H175 H 0.46069 0.88737 0.58316 0.0
H176 H 0.4286 0.87429 0.59413 0.0
H177 H 0.44504 0.85502 0.59288 0.0
H178 H 0.47321 0.89057 0.54709 0.0
H179 H 0.41221 0.91171 0.54799 0.0
H180 H 0.52698 0.94962 0.54217 0.0
H181 H 0.51454 0.91682 0.53273 0.0
H182 H 0.51796 0.94281 0.51746 0.0
H183 H 0.42099 0.95427 0.54067 0.0
H184 H 0.45545 0.98023 0.54113 0.0
H185 H 0.43971 0.964 0.5191 0.0
H186 H 0.56937 0.04031 0.61428 0.0
H187 H 0.60064 0.04155 0.63933 0.0
H188 H 0.60578 0.03175 0.61613 0.0
H189 H 0.62857 0.06422 0.62524 0.0
H190 H 0.55166 0.06329 0.59252 0.0
H191 H 0.61376 0.05473 0.567 0.0
H192 H 0.49969 0.0209 0.56707 0.0
H193 H 0.51243 0.05432 0.57519 0.0
H194 H 0.50983 0.04653 0.55005 0.0
H195 H 0.60847 0.03409 0.53711 0.0
H196 H 0.5746 0.00818 0.53244 0.0
H197 H 0.58724 0.03892 0.5207 0.0
H198 H 0.58551 0.17262 0.46747 0.0
H199 H 0.54245 0.13776 0.45978 0.0
H200 H 0.59758 0.1217 0.43086 0.0
H201 H 0.51027 0.08305 0.48564 0.0
H202 H 0.50219 0.10406 0.4721 0.0
H203 H 0.49088 0.07074 0.46408 0.0
H204 H 0.59395 0.07984 0.43084 0.0
H205 H 0.57522 0.05843 0.44991 0.0
H206 H 0.55949 0.0549 0.42715 0.0
H207 H 0.44148 0.9023 0.40523 0.0
H208 H 0.39913 0.86022 0.40726 0.0
H209 H 0.4018 0.88411 0.42473 0.0
H210 H 0.38046 0.87712 0.40409 0.0
H211 H 0.41072 0.95428 0.42041 0.0
H212 H 0.47575 0.94325 0.40435 0.0
H213 H 0.4379 0.99087 0.46075 0.0
H214 H 0.45026 0.01657 0.44372 0.0
H215 H 0.41674 0.98896 0.44106 0.0
H216 H 0.51936 0.96977 0.41641 0.0
H217 H 0.52756 0.00237 0.4243 0.0
H218 H 0.51874 0.97702 0.44132 0.0
H219 H 0.51485 0.98598 0.55386 0.0
H220 H 0.56115 0.0676 0.52092 0.0
H221 H 0.55871 0.08164 0.48941 0.0
H222 H 0.50722 0.03909 0.43255 0.0
H223 H 0.46399 0.95682 0.46504 0.0
H224 H 0.4654 0.94323 0.49674 0.0
H225 H 0.63428 0.20317 0.47045 0.0
H226 H 0.62681 0.16993 0.46586 0.0
H227 H 0.639 0.19341 0.44697 0.0
C228 C 0.59574 0.44515 0.72626 0.0
C229 C 0.57905 0.42751 0.70946 0.0
C230 C 0.54749 0.44297 0.70218 0.0
C231 C 0.56617 0.46696 0.69415 0.0
C232 C 0.5584 0.48463 0.68756 0.0
C233 C 0.53148 0.47824 0.68902 0.0
C234 C 0.51263 0.45414 0.69703 0.0
C235 C 0.52092 0.4368 0.70346 0.0
C236 C 0.57896 0.51021 0.67908 0.0
C237 C 0.48377 0.44678 0.69884 0.0
C238 C 0.56614 0.613 0.77873 0.0
C239 C 0.5382 0.59516 0.77016 0.0
C240 C 0.5302 0.58812 0.73632 0.0
C241 C 0.5069 0.56348 0.7354 0.0
C242 C 0.50169 0.54632 0.71987 0.0
C243 C 0.52041 0.55391 0.7051 0.0
C244 C 0.54338 0.5793 0.70562 0.0
C245 C 0.54774 0.5963 0.72115 0.0
C246 C 0.47669 0.51969 0.71961 0.0
C247 C 0.56393 0.58798 0.69026 0.0
C248 C 0.44772 0.58225 0.60255 0.0
C249 C 0.43084 0.55698 0.60943 0.0
C250 C 0.44058 0.53986 0.61313 0.0
C251 C 0.4677 0.54817 0.60975 0.0
C252 C 0.48436 0.57307 0.60182 0.0
C253 C 0.47404 0.58976 0.59817 0.0
C254 C 0.42207 0.51313 0.62108 0.0
C255 C 0.51325 0.58235 0.59782 0.0
C256 C 0.47833 0.37642 0.5569 0.0
C257 C 0.49734 0.40599 0.55946 0.0
C258 C 0.48444 0.43828 0.56739 0.0
C259 C 0.46076 0.43632 0.57373 0.0
C260 C 0.46119 0.45503 0.58652 0.0
C261 C 0.48601 0.47682 0.59238 0.0
C262 C 0.50999 0.4798 0.58485 0.0
C263 C 0.50895 0.46013 0.57275 0.0
C264 C 0.43516 0.45106 0.59411 0.0
C265 C 0.53678 0.50341 0.58983 0.0
C266 C 0.52314 0.497 0.68247 0.0
C267 C 0.52509 0.51606 0.69543 0.0
C268 C 0.51745 0.53431 0.69036 0.0
C269 C 0.5075 0.53359 0.67179 0.0
C270 C 0.49897 0.55116 0.66631 0.0
C271 C 0.48952 0.55044 0.64791 0.0
C272 C 0.48833 0.53216 0.63426 0.0
C273 C 0.47883 0.5313 0.61551 0.0
C274 C 0.47874 0.51348 0.60213 0.0
C275 C 0.48696 0.4956 0.60715 0.0
C276 C 0.49545 0.49543 0.62606 0.0
C277 C 0.50255 0.47688 0.6319 0.0
C278 C 0.5116 0.47733 0.65035 0.0
C279 C 0.51366 0.49619 0.66376 0.0
C280 C 0.50595 0.51465 0.65837 0.0
C281 C 0.49665 0.51414 0.63953 0.0
C282 C 0.43992 0.63105 0.62241 0.0
C283 C 0.4234 0.60392 0.61283 0.0
O284 O 0.55407 0.42532 0.70898 0.0
O285 O 0.48313 0.41883 0.55612 0.0
O286 O 0.43924 0.59983 0.60019 0.0
O287 O 0.53673 0.60366 0.75213 0.0
H288 H 0.58953 0.43609 0.69599 0.0
H289 H 0.59887 0.46528 0.72479 0.0
H290 H 0.58552 0.43713 0.73988 0.0
H291 H 0.61563 0.4466 0.72677 0.0
H292 H 0.58686 0.47223 0.69305 0.0
H293 H 0.50664 0.4183 0.70966 0.0
H294 H 0.58046 0.52695 0.68758 0.0
H295 H 0.59902 0.51209 0.67857 0.0
H296 H 0.57265 0.51175 0.66442 0.0
H297 H 0.47157 0.42727 0.70538 0.0
H298 H 0.4824 0.46184 0.70765 0.0
H299 H 0.47518 0.44642 0.68458 0.0
H300 H 0.53595 0.57516 0.76934 0.0
H301 H 0.56722 0.60746 0.79361 0.0
H302 H 0.58106 0.61077 0.77033 0.0
H303 H 0.5716 0.63399 0.77844 0.0
H304 H 0.49303 0.55753 0.74697 0.0
H305 H 0.56559 0.61549 0.722 0.0
H306 H 0.48205 0.50442 0.72274 0.0
H307 H 0.46219 0.51849 0.73034 0.0
H308 H 0.46692 0.51517 0.70532 0.0
H309 H 0.58115 0.60799 0.69312 0.0
H310 H 0.57142 0.57394 0.68898 0.0
H311 H 0.55464 0.58796 0.67638 0.0
H312 H 0.41696 0.58968 0.62464 0.0
H313 H 0.41009 0.55067 0.61201 0.0
H314 H 0.48676 0.60914 0.59253 0.0
H315 H 0.42899 0.51193 0.63561 0.0
H316 H 0.40115 0.50899 0.6218 0.0
H317 H 0.4225 0.49764 0.61217 0.0
H318 H 0.52341 0.60197 0.59117 0.0
H319 H 0.52394 0.58344 0.6113 0.0
H320 H 0.5147 0.56799 0.58824 0.0
H321 H 0.50493 0.40954 0.57446 0.0
H322 H 0.48875 0.36534 0.5602 0.0
H323 H 0.46135 0.36993 0.56672 0.0
H324 H 0.47031 0.37161 0.54208 0.0
H325 H 0.44194 0.41945 0.56923 0.0
H326 H 0.52722 0.46185 0.56737 0.0
H327 H 0.43632 0.45322 0.60984 0.0
H328 H 0.43121 0.46631 0.58833 0.0
H329 H 0.41805 0.43143 0.59011 0.0
H330 H 0.55216 0.50603 0.5794 0.0
H331 H 0.53545 0.52161 0.59045 0.0
H332 H 0.54351 0.50073 0.60402 0.0
H333 H 0.53266 0.51668 0.70971 0.0
H334 H 0.49954 0.56569 0.67621 0.0
H335 H 0.48333 0.56453 0.64449 0.0
H336 H 0.47179 0.51324 0.58772 0.0
H337 H 0.50125 0.46177 0.62228 0.0
H338 H 0.517 0.46272 0.65396 0.0
H339 H 0.44909 0.64676 0.61173 0.0
H340 H 0.42723 0.63524 0.63191 0.0
H341 H 0.45625 0.6315 0.63114 0.0
C342 C 0.14712 0.57996 0.91151 0.0
C343 C 0.15251 0.57202 0.89193 0.0
C344 C 0.10805 0.53926 0.87895 0.0
C345 C 0.09937 0.55697 0.87414 0.0
C346 C 0.07426 0.54795 0.86543 0.0
C347 C 0.05746 0.52074 0.86167 0.0
C348 C 0.06596 0.50287 0.86681 0.0
C349 C 0.09123 0.51243 0.87529 0.0
C350 C 0.06563 0.56746 0.86019 0.0
C351 C 0.04836 0.47367 0.86333 0.0
C352 C 0.87535 0.43551 0.93664 0.0
C353 C 0.88595 0.43645 0.91728 0.0
C354 C 0.92073 0.46904 0.89707 0.0
C355 C 0.92472 0.45072 0.88673 0.0
C356 C 0.94512 0.45904 0.87343 0.0
C357 C 0.96121 0.4862 0.8698 0.0
C358 C 0.95661 0.50463 0.87968 0.0
C359 C 0.93654 0.49578 0.89331 0.0
C360 C 0.94973 0.4387 0.86358 0.0
C361 C 0.9731 0.53367 0.87602 0.0
C362 C 0.88484 0.44054 0.75744 0.0
C363 C 0.89261 0.42467 0.76707 0.0
C364 C 0.91935 0.43448 0.77257 0.0
C365 C 0.93844 0.46096 0.76879 0.0
C366 C 0.9308 0.47653 0.75818 0.0
C367 C 0.90403 0.46591 0.75237 0.0
C368 C 0.92693 0.41683 0.78305 0.0
C369 C 0.95063 0.50472 0.75373 0.0
C370 C 0.1455 0.50446 0.73965 0.0
C371 C 0.12545 0.51361 0.73553 0.0
C372 C 0.07794 0.49072 0.74252 0.0
C373 C 0.05797 0.46656 0.74905 0.0
C374 C 0.03594 0.46452 0.75868 0.0
C375 C 0.03358 0.48719 0.76134 0.0
C376 C 0.05276 0.51132 0.75351 0.0
C377 C 0.0749 0.51291 0.74429 0.0
C378 C 0.01573 0.43838 0.76664 0.0
C379 C 0.05031 0.53562 0.75546 0.0
C380 C 0.03092 0.51092 0.85242 0.0
C381 C 0.00934 0.50529 0.86403 0.0
C382 C 0.98361 0.49521 0.85637 0.0
C383 C 0.97934 0.49141 0.83649 0.0
C384 C 0.95404 0.48275 0.8282 0.0
C385 C 0.94967 0.47742 0.80878 0.0
C386 C 0.97034 0.48015 0.79694 0.0
C387 C 0.96564 0.47295 0.77742 0.0
C388 C 0.98668 0.47602 0.76607 0.0
C389 C 0.01244 0.48607 0.77372 0.0
C390 C 0.01749 0.49336 0.79322 0.0
C391 C 0.04314 0.50343 0.80141 0.0
C392 C 0.04775 0.50987 0.82069 0.0
C393 C 0.02677 0.50584 0.83263 0.0
C394 C 0.00086 0.49602 0.82465 0.0
C395 C 0.99628 0.49006 0.80488 0.0
C396 C 0.82748 0.44079 0.76854 0.0
C397 C 0.83915 0.42256 0.76709 0.0
O398 O 0.13219 0.54684 0.88724 0.0
O399 O 0.09995 0.49193 0.73484 0.0
O400 O 0.8588 0.43199 0.75348 0.0
O401 O 0.90243 0.46183 0.91104 0.0
H402 H 0.15363 0.58619 0.88114 0.0
H403 H 0.12721 0.57843 0.91147 0.0
H404 H 0.14748 0.56683 0.9226 0.0
H405 H 0.16222 0.60061 0.91524 0.0
H406 H 0.11191 0.57777 0.87715 0.0
H407 H 0.09804 0.49893 0.87916 0.0
H408 H 0.04742 0.56313 0.86809 0.0
H409 H 0.08135 0.58808 0.86343 0.0
H410 H 0.06047 0.56551 0.84479 0.0
H411 H 0.05733 0.46227 0.86913 0.0
H412 H 0.02865 0.46672 0.86992 0.0
H413 H 0.04482 0.46949 0.84782 0.0
H414 H 0.87096 0.42353 0.90627 0.0
H415 H 0.89253 0.41803 0.95303 0.0
H416 H 0.87861 0.45574 0.93993 0.0
H417 H 0.85313 0.4263 0.93441 0.0
H418 H 0.91232 0.42991 0.88919 0.0
H419 H 0.93324 0.50977 0.90127 0.0
H420 H 0.94302 0.43647 0.84851 0.0
H421 H 0.9713 0.44499 0.86378 0.0
H422 H 0.93862 0.41916 0.87028 0.0
H423 H 0.9646 0.54497 0.88279 0.0
H424 H 0.99363 0.54124 0.88179 0.0
H425 H 0.97459 0.53723 0.8605 0.0
H426 H 0.84786 0.42281 0.78137 0.0
H427 H 0.87765 0.40476 0.77051 0.0
H428 H 0.89772 0.47781 0.74469 0.0
H429 H 0.92948 0.42209 0.79842 0.0
H430 H 0.9114 0.39578 0.78139 0.0
H431 H 0.94618 0.41948 0.77789 0.0
H432 H 0.94132 0.51441 0.74581 0.0
H433 H 0.95975 0.51602 0.76713 0.0
H434 H 0.96694 0.50549 0.74511 0.0
H435 H 0.12744 0.52697 0.7476 0.0
H436 H 0.16614 0.52155 0.74027 0.0
H437 H 0.1412 0.4946 0.75359 0.0
H438 H 0.14424 0.4903 0.72852 0.0
H439 H 0.06031 0.44947 0.7473 0.0
H440 H 0.08985 0.53149 0.73864 0.0
H441 H 0.01448 0.44034 0.78226 0.0
H442 H 0.9957 0.43214 0.76039 0.0
H443 H 0.02076 0.42277 0.7637 0.0
H444 H 0.06461 0.55174 0.74635 0.0
H445 H 0.02971 0.53097 0.75165 0.0
H446 H 0.05428 0.5427 0.77047 0.0
H447 H 0.0125 0.50807 0.8793 0.0
H448 H 0.93731 0.47982 0.83668 0.0
H449 H 0.92972 0.47068 0.80324 0.0
H450 H 0.98285 0.47006 0.75119 0.0
H451 H 0.05998 0.50639 0.79306 0.0
H452 H 0.06789 0.51755 0.82617 0.0
H453 H 0.81186 0.43378 0.77953 0.0
H454 H 0.84348 0.46095 0.77266 0.0
H455 H 0.8186 0.44167 0.75468 0.0
C456 C 0.44315 0.86272 0.8934 0.0
C457 C 0.4437 0.85161 0.91291 0.0
C458 C 0.47701 0.8919 0.92988 0.0
C459 C 0.46021 0.90239 0.93322 0.0
C460 C 0.47043 0.92783 0.94093 0.0
C461 C 0.49805 0.9433 0.94517 0.0
C462 C 0.515 0.9328 0.94194 0.0
C463 C 0.50415 0.9071 0.93455 0.0
C464 C 0.45174 0.93832 0.94438 0.0
C465 C 0.5446 0.94886 0.94606 0.0
C466 C 0.57847 0.12239 0.86265 0.0
C467 C 0.57819 0.1058 0.87853 0.0
C468 C 0.54712 0.07319 0.90055 0.0
C469 C 0.56663 0.06996 0.91026 0.0
C470 C 0.55954 0.05155 0.92474 0.0
C471 C 0.53248 0.03643 0.92992 0.0
C472 C 0.51287 0.04002 0.92047 0.0
C473 C 0.52048 0.05831 0.90584 0.0
C474 C 0.58098 0.04809 0.93439 0.0
C475 C 0.48389 0.02442 0.92576 0.0
C476 C 0.57116 0.12461 0.0386 0.0
C477 C 0.58911 0.11639 0.03314 0.0
C478 C 0.58013 0.08982 0.02895 0.0
C479 C 0.5526 0.07119 0.0302 0.0
C480 C 0.53473 0.07926 0.03676 0.0
C481 C 0.54435 0.10593 0.04109 0.0
C482 C 0.59989 0.08179 0.02261 0.0
C483 C 0.50535 0.05985 0.03848 0.0
C484 C 0.51369 0.87451 0.07306 0.0
C485 C 0.50291 0.89315 0.07683 0.0
C486 C 0.52511 0.93917 0.06776 0.0
C487 C 0.54978 0.9585 0.06119 0.0
C488 C 0.55178 0.97866 0.04961 0.0
C489 C 0.52852 0.97978 0.04497 0.0
C490 C 0.50379 0.96141 0.0528 0.0
C491 C 0.50229 0.94115 0.06405 0.0
C492 C 0.57858 0.99818 0.04179 0.0
C493 C 0.47882 0.96268 0.04874 0.0
C494 C 0.50918 0.97072 0.95241 0.0
C495 C 0.51505 0.99032 0.93914 0.0
C496 C 0.52474 0.01643 0.9449 0.0
C497 C 0.52821 0.02323 0.96447 0.0
C498 C 0.53674 0.04906 0.97079 0.0
C499 C 0.54089 0.05573 0.99005 0.0
C500 C 0.53703 0.03691 0.00373 0.0
C501 C 0.54229 0.04376 0.02328 0.0
C502 C 0.53868 0.02466 0.03645 0.0
C503 C 0.5298 0.9987 0.03062 0.0
C504 C 0.52392 0.99137 0.01117 0.0
C505 C 0.51453 0.96533 0.00485 0.0
C506 C 0.50913 0.95839 0.98568 0.0
C507 C 0.51369 0.97736 0.972 0.0
C508 C 0.52315 0.00372 0.97804 0.0
C509 C 0.52788 0.01064 0.99768 0.0
C510 C 0.57871 0.18017 0.01872 0.0
C511 C 0.59527 0.17011 0.02892 0.0
O512 O 0.46807 0.86752 0.92207 0.0
O513 O 0.52403 0.91879 0.0774 0.0
O514 O 0.57911 0.15043 0.04124 0.0
O515 O 0.55309 0.09016 0.88599 0.0
H516 H 0.42732 0.8505 0.92168 0.0
H517 H 0.44563 0.88263 0.895 0.0
H518 H 0.45952 0.8641 0.88448 0.0
H519 H 0.42374 0.84991 0.88597 0.0
H520 H 0.43912 0.891 0.92985 0.0
H521 H 0.51698 0.89889 0.93199 0.0
H522 H 0.4567 0.95491 0.93473 0.0
H523 H 0.43049 0.92311 0.94191 0.0
H524 H 0.45428 0.94602 0.95919 0.0
H525 H 0.55529 0.93837 0.94178 0.0
H526 H 0.55323 0.96775 0.93844 0.0
H527 H 0.54816 0.95363 0.9615 0.0
H528 H 0.58898 0.09487 0.8756 0.0
H529 H 0.58449 0.11505 0.84985 0.0
H530 H 0.55712 0.114 0.85766 0.0
H531 H 0.60148 0.16073 0.87354 0.0
H532 H 0.58741 0.08159 0.90655 0.0
H533 H 0.50558 0.06101 0.89837 0.0
H534 H 0.58308 0.0545 0.94951 0.0
H535 H 0.57529 0.02701 0.9341 0.0
H536 H 0.60067 0.05963 0.92758 0.0
H537 H 0.47154 0.03135 0.9184 0.0
H538 H 0.47595 0.0034 0.92191 0.0
H539 H 0.48188 0.02572 0.94135 0.0
H540 H 0.60277 0.16231 0.0175 0.0
H541 H 0.61009 0.1308 0.03195 0.0
H542 H 0.53077 0.11248 0.04565 0.0
H543 H 0.59624 0.07585 0.00736 0.0
H544 H 0.62086 0.09798 0.02449 0.0
H545 H 0.5972 0.06457 0.03073 0.0
H546 H 0.4941 0.0692 0.044 0.0
H547 H 0.49684 0.05071 0.02435 0.0
H548 H 0.50246 0.04387 0.04815 0.0
H549 H 0.48908 0.89014 0.06469 0.0
H550 H 0.49709 0.85378 0.07265 0.0
H551 H 0.5237 0.8789 0.05912 0.0
H552 H 0.52844 0.87682 0.08425 0.0
H553 H 0.56733 0.95705 0.06447 0.0
H554 H 0.4833 0.92679 0.06979 0.0
H555 H 0.5775 0.9976 0.02602 0.0
H556 H 0.58401 0.01835 0.04656 0.0
H557 H 0.59465 0.99426 0.04644 0.0
H558 H 0.46207 0.94931 0.05789 0.0
H559 H 0.48279 0.98308 0.05094 0.0
H560 H 0.4726 0.95703 0.03366 0.0
H561 H 0.51221 0.9852 0.9241 0.0
H562 H 0.54031 0.06442 0.9609 0.0
H563 H 0.54748 0.07594 0.99404 0.0
H564 H 0.5433 0.03017 0.05136 0.0
H565 H 0.51115 0.94994 0.01464 0.0
H566 H 0.50177 0.93803 0.98168 0.0
H567 H 0.56917 0.1872 0.02905 0.0
H568 H 0.5915 0.19648 0.00916 0.0
H569 H 0.5627 0.164 0.00996 0.0
C570 C 0.58361 0.44052 0.08403 0.0
C571 C 0.59247 0.43611 0.10363 0.0
C572 C 0.58088 0.46473 0.12221 0.0
C573 C 0.55304 0.44821 0.12194 0.0
C574 C 0.53626 0.45782 0.12762 0.0
C575 C 0.54759 0.48441 0.13362 0.0
C576 C 0.57566 0.50082 0.13439 0.0
C577 C 0.59191 0.49059 0.12891 0.0
C578 C 0.50642 0.43972 0.12696 0.0
C579 C 0.58849 0.52934 0.14054 0.0
C580 C 0.5236 0.57622 0.04011 0.0
C581 C 0.49824 0.57474 0.04801 0.0
C582 C 0.4883 0.54438 0.07459 0.0
C583 C 0.51 0.56166 0.08637 0.0
C584 C 0.51565 0.55298 0.10335 0.0
C585 C 0.49892 0.52669 0.1089 0.0
C586 C 0.47643 0.50958 0.09751 0.0
C587 C 0.47147 0.51868 0.08046 0.0
C588 C 0.53995 0.57171 0.1151 0.0
C589 C 0.45802 0.48154 0.10314 0.0
C590 C 0.445 0.57882 0.21189 0.0
C591 C 0.47176 0.59225 0.20653 0.0
C592 C 0.48564 0.57867 0.20346 0.0
C593 C 0.47219 0.55101 0.20543 0.0
C594 C 0.44532 0.53755 0.21129 0.0
C595 C 0.43218 0.55177 0.21474 0.0
C596 C 0.5146 0.59388 0.19801 0.0
C597 C 0.43035 0.50814 0.21363 0.0
C598 C 0.54656 0.43761 0.26032 0.0
C599 C 0.54032 0.45133 0.27649 0.0
C600 C 0.53762 0.48586 0.2588 0.0
C601 C 0.55234 0.51209 0.25342 0.0
C602 C 0.54301 0.52195 0.23901 0.0
C603 C 0.51812 0.50513 0.22998 0.0
C604 C 0.50247 0.47891 0.23598 0.0
C605 C 0.51242 0.46947 0.25024 0.0
C606 C 0.56012 0.55005 0.233 0.0
C607 C 0.47555 0.46062 0.22691 0.0
C608 C 0.53021 0.49558 0.13802 0.0
C609 C 0.52097 0.50408 0.12281 0.0
C610 C 0.50619 0.51662 0.12581 0.0
C611 C 0.50016 0.52068 0.14452 0.0
C612 C 0.48515 0.53304 0.14805 0.0
C613 C 0.4802 0.53782 0.16656 0.0
C614 C 0.49017 0.53052 0.18224 0.0
C615 C 0.48612 0.53615 0.20112 0.0
C616 C 0.49565 0.52789 0.21636 0.0
C617 C 0.50932 0.51422 0.21327 0.0
C618 C 0.51418 0.50903 0.19452 0.0
C619 C 0.52845 0.49588 0.19094 0.0
C620 C 0.53342 0.49113 0.17245 0.0
C621 C 0.52444 0.49947 0.15683 0.0
C622 C 0.50958 0.51231 0.16009 0.0
C623 C 0.50458 0.51723 0.17896 0.0
C624 C 0.40221 0.59006 0.18987 0.0
C625 C 0.42829 0.60696 0.20106 0.0
O626 O 0.5979 0.45679 0.11601 0.0
O627 O 0.54869 0.4772 0.27197 0.0
O628 O 0.43128 0.59166 0.21463 0.0
O629 O 0.48308 0.55135 0.0574 0.0
H630 H 0.57651 0.41741 0.10956 0.0
H631 H 0.56463 0.44078 0.08497 0.0
H632 H 0.59906 0.45954 0.0782 0.0
H633 H 0.5802 0.42438 0.07396 0.0
H634 H 0.54431 0.42794 0.1172 0.0
H635 H 0.61343 0.50305 0.12923 0.0
H636 H 0.49746 0.44626 0.11578 0.0
H637 H 0.5008 0.41899 0.12382 0.0
H638 H 0.49773 0.44067 0.14073 0.0
H639 H 0.61055 0.53982 0.13928 0.0
H640 H 0.58047 0.53951 0.13177 0.0
H641 H 0.58361 0.53074 0.15555 0.0
H642 H 0.50393 0.59162 0.05799 0.0
H643 H 0.53502 0.59449 0.03191 0.0
H644 H 0.53678 0.57653 0.05177 0.0
H645 H 0.51848 0.55899 0.03067 0.0
H646 H 0.52295 0.58179 0.08229 0.0
H647 H 0.45463 0.50554 0.07141 0.0
H648 H 0.55332 0.56337 0.11693 0.0
H649 H 0.55141 0.59131 0.10855 0.0
H650 H 0.53378 0.57432 0.12946 0.0
H651 H 0.43993 0.47156 0.0938 0.0
H652 H 0.4688 0.47038 0.10232 0.0
H653 H 0.45177 0.48097 0.11807 0.0
H654 H 0.44495 0.61446 0.19082 0.0
H655 H 0.48183 0.61337 0.20494 0.0
H656 H 0.41158 0.54172 0.21915 0.0
H657 H 0.51645 0.58977 0.18284 0.0
H658 H 0.52316 0.61542 0.19998 0.0
H659 H 0.52658 0.58762 0.2066 0.0
H660 H 0.40886 0.50037 0.21644 0.0
H661 H 0.43215 0.49825 0.20064 0.0
H662 H 0.43927 0.50295 0.22567 0.0
H663 H 0.51848 0.44064 0.27896 0.0
H664 H 0.54053 0.41713 0.26421 0.0
H665 H 0.53542 0.43675 0.24715 0.0
H666 H 0.56824 0.44839 0.25727 0.0
H667 H 0.57162 0.52467 0.2602 0.0
H668 H 0.50047 0.44922 0.25437 0.0
H669 H 0.5652 0.55048 0.21779 0.0
H670 H 0.54881 0.56064 0.23445 0.0
H671 H 0.57891 0.56069 0.24156 0.0
H672 H 0.46454 0.44182 0.23457 0.0
H673 H 0.46321 0.47024 0.22653 0.0
H674 H 0.47826 0.45614 0.21201 0.0
H675 H 0.52595 0.50149 0.10842 0.0
H676 H 0.47721 0.5393 0.13652 0.0
H677 H 0.4686 0.54748 0.16841 0.0
H678 H 0.49232 0.53208 0.2308 0.0
H679 H 0.53612 0.48924 0.20239 0.0
H680 H 0.54455 0.48099 0.17056 0.0
H681 H 0.39953 0.60181 0.17871 0.0
H682 H 0.40268 0.57329 0.18282 0.0
H683 H 0.3849 0.58217 0.1995 0.0
Zn684 Zn 0.66942 0.46061 0.4291 0.0
Zn685 Zn 0.63905 0.40667 0.42603 0.0
O686 O 0.6777 0.41554 0.42435 0.0
O687 O 0.70363 0.45824 0.42818 0.0
O688 O 0.61965 0.36707 0.4256 0.0
O689 O 0.65047 0.45869 0.45393 0.0
O690 O 0.62735 0.41554 0.45092 0.0
C691 C 0.70092 0.43567 0.42536 0.0
C692 C 0.63311 0.43984 0.39576 0.0
O693 O 0.62615 0.41738 0.40262 0.0
O694 O 0.65093 0.46062 0.40413 0.0
C695 C 0.62664 0.35479 0.41417 0.0
O696 O 0.645 0.36816 0.40163 0.0
C697 C 0.63299 0.43656 0.46007 0.0
Zn698 Zn 0.19686 0.65281 0.58542 0.0
Zn699 Zn 0.22403 0.62657 0.57912 0.0
O700 O 0.25268 0.66529 0.58027 0.0
O701 O 0.23218 0.68751 0.58633 0.0
O702 O 0.24652 0.60931 0.57822 0.0
O703 O 0.1816 0.63254 0.60957 0.0
O704 O 0.20283 0.61109 0.60335 0.0
C705 C 0.25348 0.68708 0.5832 0.0
C706 C 0.18435 0.62275 0.54919 0.0
O707 O 0.20177 0.61684 0.55456 0.0
O708 O 0.17875 0.63693 0.55975 0.0
C709 C 0.26517 0.61537 0.56649 0.0
O710 O 0.26848 0.63174 0.55283 0.0
C711 C 0.18736 0.61507 0.61386 0.0
Zn712 Zn 0.55504 0.20084 0.73882 0.0
Zn713 Zn 0.60966 0.23073 0.7375 0.0
O714 O 0.59583 0.25586 0.73272 0.0
O715 O 0.552 0.23328 0.73296 0.0
O716 O 0.64921 0.25579 0.73675 0.0
O717 O 0.55947 0.19253 0.76621 0.0
O718 O 0.60325 0.21529 0.76412 0.0
C719 C 0.57348 0.25494 0.73115 0.0
C720 C 0.58012 0.18425 0.71005 0.0
O721 O 0.60174 0.20405 0.71609 0.0
O722 O 0.55803 0.17866 0.71743 0.0
C723 C 0.66715 0.25348 0.7456 0.0
O724 O 0.66033 0.23245 0.7557 0.0
C725 C 0.58245 0.20079 0.77358 0.0
Zn726 Zn 0.36804 0.56029 0.89749 0.0
Zn727 Zn 0.3931 0.6137 0.89857 0.0
O728 O 0.35311 0.60137 0.89624 0.0
O729 O 0.33216 0.55813 0.89502 0.0
O730 O 0.40945 0.65312 0.9003 0.0
O731 O 0.38307 0.56135 0.92367 0.0
O732 O 0.40513 0.60466 0.92362 0.0
C733 C 0.33152 0.57935 0.895 0.0
C734 C 0.40661 0.58581 0.86754 0.0
O735 O 0.40944 0.60696 0.87497 0.0
O736 O 0.39047 0.56373 0.87451 0.0
C737 C 0.40104 0.66429 0.88905 0.0
O738 O 0.38303 0.64999 0.87597 0.0
C739 C 0.39914 0.58313 0.9317 0.0
Zn740 Zn 0.81651 0.44688 0.07655 0.0
Zn741 Zn 0.78714 0.39342 0.07522 0.0
O742 O 0.75959 0.40489 0.07986 0.0
O743 O 0.78243 0.44815 0.08032 0.0
O744 O 0.76384 0.35434 0.07139 0.0
O745 O 0.82961 0.44723 0.04998 0.0
O746 O 0.80667 0.404 0.04982 0.0
C747 C 0.7604 0.42687 0.08141 0.0
C748 C 0.83049 0.4201 0.10559 0.0
O749 O 0.8115 0.39902 0.09821 0.0
O750 O 0.83634 0.44228 0.09892 0.0
C751 C 0.74598 0.33957 0.08291 0.0
O752 O 0.74346 0.34964 0.09899 0.0
C753 C 0.8224 0.42541 0.04165 0.0
Zn754 Zn 0.36113 0.8209 0.22686 0.0
Zn755 Zn 0.38844 0.79461 0.23322 0.0
O756 O 0.34908 0.76628 0.23178 0.0
O757 O 0.32601 0.78601 0.22599 0.0
O758 O 0.40643 0.77284 0.23529 0.0
O759 O 0.382 0.83562 0.20273 0.0
O760 O 0.40426 0.81516 0.2089 0.0
C761 C 0.32679 0.76517 0.22895 0.0
C762 C 0.39182 0.83404 0.2629 0.0
O763 O 0.3981 0.8171 0.25747 0.0
O764 O 0.37702 0.83913 0.25247 0.0
C765 C 0.39625 0.75211 0.24508 0.0
O766 O 0.3753 0.7464 0.25538 0.0
C767 C 0.39991 0.83019 0.1984 0.0
H768 H 0.2058 0.59984 0.23864 0.0
H769 H 0.1626 0.64175 0.2445 0.0
H770 H 0.24661 0.64108 0.23291 0.0
H771 H 0.2036 0.68313 0.24006 0.0
H772 H 0.27689 0.75221 0.21579 0.0
H773 H 0.23571 0.71019 0.21847 0.0
H774 H 0.27906 0.67894 0.24847 0.0
H775 H 0.32018 0.72031 0.24484 0.0
C776 C 0.20516 0.61796 0.23897 0.0
C777 C 0.1811 0.61752 0.24244 0.0
C778 C 0.22858 0.64165 0.23581 0.0
C779 C 0.22862 0.66563 0.23623 0.0
C780 C 0.2044 0.66512 0.23941 0.0
C781 C 0.18087 0.64135 0.24224 0.0
C782 C 0.27757 0.73625 0.22283 0.0
C783 C 0.3018 0.73957 0.23006 0.0
C784 C 0.25392 0.71219 0.22451 0.0
C785 C 0.25389 0.69103 0.23374 0.0
C786 C 0.27824 0.69448 0.24092 0.0
C787 C 0.3019 0.71834 0.23895 0.0
H788 H 0.60376 0.19582 0.41712 0.0
H789 H 0.59027 0.21524 0.4737 0.0
H790 H 0.606 0.23573 0.40527 0.0
H791 H 0.59365 0.25566 0.46215 0.0
H792 H 0.58559 0.3201 0.43611 0.0
H793 H 0.57406 0.2753 0.44371 0.0
H794 H 0.63616 0.28155 0.40683 0.0
H795 H 0.6469 0.3258 0.3987 0.0
C796 C 0.60088 0.20845 0.42696 0.0
C797 C 0.59629 0.20216 0.44628 0.0
C798 C 0.60245 0.23148 0.42023 0.0
C799 C 0.59998 0.249 0.43272 0.0
C800 C 0.59506 0.24244 0.452 0.0
C801 C 0.59326 0.21933 0.45868 0.0
C802 C 0.59647 0.31172 0.4294 0.0
C803 C 0.6173 0.32658 0.41692 0.0
C804 C 0.59 0.28609 0.43386 0.0
C805 C 0.60439 0.27484 0.4261 0.0
C806 C 0.62441 0.28936 0.41294 0.0
C807 C 0.63069 0.31487 0.40834 0.0
H808 H 0.42066 0.63496 0.58467 0.0
H809 H 0.37106 0.56612 0.61732 0.0
H810 H 0.38105 0.63374 0.57144 0.0
H811 H 0.33129 0.56368 0.60316 0.0
H812 H 0.2708 0.59212 0.59813 0.0
H813 H 0.30789 0.58601 0.60676 0.0
H814 H 0.3428 0.61441 0.55191 0.0
H815 H 0.30604 0.62179 0.54366 0.0
C816 C 0.40124 0.61939 0.58886 0.0
C817 C 0.39896 0.60123 0.60259 0.0
C818 C 0.37844 0.61842 0.58106 0.0
C819 C 0.35279 0.59885 0.58644 0.0
C820 C 0.35063 0.57953 0.5991 0.0
C821 C 0.37343 0.5808 0.60715 0.0
C822 C 0.28617 0.59673 0.58777 0.0
C823 C 0.28558 0.60771 0.57027 0.0
C824 C 0.30748 0.59305 0.59268 0.0
C825 C 0.32863 0.59987 0.58012 0.0
C826 C 0.32723 0.60947 0.56214 0.0
C827 C 0.30603 0.6135 0.55733 0.0
H828 H 0.81168 0.38194 0.79123 0.0
H829 H 0.81669 0.40139 0.73192 0.0
H830 H 0.77254 0.3392 0.78424 0.0
H831 H 0.77788 0.35828 0.72473 0.0
H832 H 0.687 0.29982 0.72696 0.0
H833 H 0.73094 0.33848 0.73066 0.0
H834 H 0.75461 0.29643 0.76885 0.0
H835 H 0.71018 0.25771 0.76551 0.0
C836 C 0.80477 0.37675 0.77661 0.0
C837 C 0.81738 0.39485 0.7621 0.0
C838 C 0.78241 0.35222 0.77257 0.0
C839 C 0.77204 0.34528 0.75392 0.0
C840 C 0.7852 0.3631 0.73928 0.0
C841 C 0.80755 0.38768 0.74335 0.0
C842 C 0.70163 0.29865 0.73599 0.0
C843 C 0.69496 0.27573 0.7461 0.0
C844 C 0.72696 0.32082 0.73799 0.0
C845 C 0.7463 0.32063 0.75012 0.0
C846 C 0.74003 0.29734 0.75961 0.0
C847 C 0.71461 0.27511 0.75761 0.0
H848 H 0.39588 0.80597 0.91157 0.0
H849 H 0.48044 0.835 0.90738 0.0
H850 H 0.38688 0.76126 0.90541 0.0
H851 H 0.47142 0.79013 0.90136 0.0
H852 H 0.44067 0.70072 0.91263 0.0
H853 H 0.45214 0.74635 0.91852 0.0
H854 H 0.3918 0.73694 0.87756 0.0
H855 H 0.38031 0.69151 0.87163 0.0
C856 C 0.41254 0.8027 0.90957 0.0
C857 C 0.43886 0.8239 0.91039 0.0
C858 C 0.40739 0.77718 0.90589 0.0
C859 C 0.42846 0.77224 0.90291 0.0
C860 C 0.45483 0.79336 0.90382 0.0
C861 C 0.45998 0.819 0.9073 0.0
C862 C 0.43 0.70846 0.90478 0.0
C863 C 0.4095 0.69244 0.89172 0.0
C864 C 0.43664 0.73459 0.90811 0.0
C865 C 0.42271 0.7451 0.89861 0.0
C866 C 0.40262 0.72925 0.88528 0.0
C867 C 0.39618 0.70327 0.8818 0.0
H868 H 0.6453 0.4754 0.10749 0.0
H869 H 0.59597 0.39277 0.09365 0.0
H870 H 0.68503 0.47231 0.10284 0.0
H871 H 0.63594 0.38991 0.08766 0.0
H872 H 0.75125 0.46716 0.07421 0.0
H873 H 0.71052 0.46856 0.07921 0.0
H874 H 0.67302 0.38998 0.10154 0.0
H875 H 0.71345 0.38815 0.09549 0.0
C876 C 0.64293 0.45647 0.10356 0.0
C877 C 0.61742 0.43411 0.10144 0.0
C878 C 0.6658 0.45477 0.10057 0.0
C879 C 0.66386 0.43087 0.09478 0.0
C880 C 0.63831 0.40854 0.09246 0.0
C881 C 0.61538 0.41015 0.0958 0.0
C882 C 0.73428 0.45018 0.08016 0.0
C883 C 0.73557 0.42759 0.08451 0.0
C884 C 0.71092 0.45102 0.08317 0.0
C885 C 0.68841 0.42948 0.09098 0.0
C886 C 0.68974 0.40682 0.09527 0.0
C887 C 0.71299 0.40581 0.09192 0.0
H888 H 0.37589 0.84964 0.56783 0.0
H889 H 0.42033 0.8088 0.57207 0.0
H890 H 0.33459 0.80867 0.57242 0.0
H891 H 0.37915 0.76792 0.57795 0.0
H892 H 0.29893 0.69444 0.56657 0.0
H893 H 0.3405 0.73542 0.5628 0.0
H894 H 0.30837 0.77677 0.59416 0.0
H895 H 0.26618 0.73579 0.59699 0.0
C896 C 0.37685 0.83187 0.56973 0.0
C897 C 0.40135 0.83231 0.56902 0.0
C898 C 0.35313 0.80836 0.57266 0.0
C899 C 0.35335 0.78479 0.57547 0.0
C900 C 0.37801 0.78546 0.57536 0.0
C901 C 0.40167 0.8089 0.5721 0.0
C902 C 0.30078 0.71228 0.57273 0.0
C903 C 0.27924 0.7119 0.58203 0.0
C904 C 0.32474 0.73583 0.57067 0.0
C905 C 0.32796 0.75958 0.57816 0.0
C906 C 0.30653 0.75903 0.58785 0.0
C907 C 0.28237 0.7355 0.58961 0.0
H908 H 0.60651 0.4074 0.69098 0.0
H909 H 0.54547 0.38733 0.73271 0.0
H910 H 0.60368 0.36493 0.69518 0.0
H911 H 0.54292 0.34493 0.73722 0.0
H912 H 0.52988 0.26159 0.72762 0.0
H913 H 0.52977 0.30239 0.72132 0.0
H914 H 0.61591 0.34435 0.72 0.0
H915 H 0.61607 0.30383 0.72593 0.0
C916 C 0.59232 0.39377 0.70092 0.0
C917 C 0.57595 0.4005 0.71132 0.0
C918 C 0.59082 0.36954 0.70345 0.0
C919 C 0.57309 0.35158 0.71656 0.0
C920 C 0.5565 0.35818 0.72682 0.0
C921 C 0.558 0.38245 0.72429 0.0
C922 C 0.54877 0.27952 0.72592 0.0
C923 C 0.57297 0.27941 0.72725 0.0
C924 C 0.54871 0.3029 0.7224 0.0
C925 C 0.57283 0.32658 0.72007 0.0
C926 C 0.59696 0.32639 0.7214 0.0
C927 C 0.59703 0.30313 0.72493 0.0
H928 H 0.20228 0.61507 0.8973 0.0
H929 H 0.16357 0.5313 0.88619 0.0
H930 H 0.2454 0.61726 0.89846 0.0
H931 H 0.20645 0.53384 0.88582 0.0
H932 H 0.28325 0.53941 0.90558 0.0
H933 H 0.24072 0.5382 0.90521 0.0
H934 H 0.27846 0.61576 0.88104 0.0
H935 H 0.32139 0.61747 0.88263 0.0
C936 C 0.20296 0.59715 0.89505 0.0
C937 C 0.17929 0.57302 0.89201 0.0
C938 C 0.22775 0.59844 0.89544 0.0
C939 C 0.22959 0.57569 0.89234 0.0
C940 C 0.20594 0.55169 0.88879 0.0
C941 C 0.18116 0.5503 0.88882 0.0
C942 C 0.28242 0.55618 0.90017 0.0
C943 C 0.3056 0.5785 0.8941 0.0
C944 C 0.25795 0.55545 0.89982 0.0
C945 C 0.25591 0.57681 0.89296 0.0
C946 C 0.2792 0.5991 0.88673 0.0
C947 C 0.30382 0.60004 0.88749 0.0
H948 H 0.64864 0.18912 0.02345 0.0
H949 H 0.59469 0.20054 0.05882 0.0
H950 H 0.6865 0.22714 0.03864 0.0
H951 H 0.63238 0.23945 0.07337 0.0
H952 H 0.70606 0.30161 0.10406 0.0
H953 H 0.67108 0.2581 0.09325 0.0
H954 H 0.70562 0.27302 0.03742 0.0
H955 H 0.74091 0.31577 0.0484 0.0
C956 C 0.64491 0.19979 0.03451 0.0
C957 C 0.6187 0.19217 0.0397 0.0
C958 C 0.66658 0.2217 0.04314 0.0
C959 C 0.66256 0.23673 0.05703 0.0
C960 C 0.63634 0.22833 0.06284 0.0
C961 C 0.61468 0.20619 0.05437 0.0
C962 C 0.70635 0.29539 0.08956 0.0
C963 C 0.72622 0.31223 0.07708 0.0
C964 C 0.68619 0.27051 0.08331 0.0
C965 C 0.68534 0.262 0.06441 0.0
C966 C 0.70575 0.2786 0.05215 0.0
C967 C 0.72598 0.30331 0.05843 0.0
H968 H 0.41158 0.61141 0.23704 0.0
H969 H 0.44279 0.65431 0.18539 0.0
H970 H 0.40805 0.64799 0.25039 0.0
H971 H 0.43802 0.69034 0.19823 0.0
H972 H 0.44177 0.75917 0.22831 0.0
H973 H 0.45319 0.72557 0.22028 0.0
H974 H 0.381 0.66699 0.24675 0.0
H975 H 0.37033 0.70074 0.25547 0.0
C976 C 0.41801 0.62882 0.22863 0.0
C977 C 0.42801 0.63024 0.21029 0.0
C978 C 0.41571 0.6497 0.23619 0.0
C979 C 0.42276 0.67224 0.22544 0.0
C980 C 0.43296 0.67365 0.20716 0.0
C981 C 0.43556 0.65294 0.19971 0.0
C982 C 0.42861 0.73918 0.23269 0.0
C983 C 0.40506 0.7326 0.24241 0.0
C984 C 0.43502 0.71985 0.22796 0.0
C985 C 0.41786 0.69341 0.23261 0.0
C986 C 0.39491 0.68712 0.24309 0.0
C987 C 0.38868 0.7065 0.24803 0.0
H988 H 0.80739 0.4034 0.36284 0.0
H989 H 0.84677 0.42522 0.41793 0.0
H990 H 0.77307 0.41246 0.37442 0.0
H991 H 0.81265 0.4349 0.42935 0.0
H992 H 0.75436 0.47235 0.42963 0.0
H993 H 0.79235 0.46742 0.41999 0.0
H994 H 0.73804 0.38739 0.40194 0.0
H995 H 0.70037 0.39187 0.41178 0.0
C996 C 0.809 0.41069 0.37729 0.0
C997 C 0.82995 0.41393 0.38937 0.0
C998 C 0.78935 0.41574 0.38392 0.0
C999 C 0.79032 0.42435 0.40275 0.0
C1000 C 0.81168 0.4285 0.41472 0.0
C1001 C 0.83117 0.423 0.40817 0.0
C1002 C 0.75059 0.45363 0.42381 0.0
C1003 C 0.72431 0.43257 0.42139 0.0
C1004 C 0.77229 0.45084 0.41834 0.0
C1005 C 0.76797 0.42714 0.41004 0.0
C1006 C 0.74183 0.40596 0.40809 0.0
C1007 C 0.72028 0.40855 0.41383 0.0
H1008 H 0.14142 0.5769 0.42931 0.0
H1009 H 0.12207 0.6373 0.44231 0.0
H1010 H 0.15158 0.57523 0.46288 0.0
H1011 H 0.1333 0.63663 0.47563 0.0
H1012 H 0.13866 0.62068 0.53651 0.0
H1013 H 0.12105 0.61307 0.50408 0.0
H1014 H 0.18528 0.601 0.4858 0.0
H1015 H 0.20216 0.6075 0.51843 0.0
C1016 C 0.13926 0.58974 0.4394 0.0
C1017 C 0.13103 0.60727 0.43324 0.0
C1018 C 0.14526 0.58895 0.4586 0.0
C1019 C 0.14339 0.60586 0.47203 0.0
C1020 C 0.13456 0.62298 0.46583 0.0
C1021 C 0.12833 0.62357 0.4467 0.0
C1022 C 0.14879 0.61603 0.52559 0.0
C1023 C 0.17194 0.61492 0.52999 0.0
C1024 C 0.1388 0.61184 0.50696 0.0
C1025 C 0.15195 0.60684 0.4922 0.0
C1026 C 0.17445 0.60456 0.49678 0.0
C1027 C 0.18423 0.6084 0.5155 0.0
H1028 H 0.54503 0.05806 0.62825 0.0
H1029 H 0.63098 0.10495 0.63025 0.0
H1030 H 0.54213 0.08992 0.64889 0.0
H1031 H 0.62836 0.1357 0.65228 0.0
H1032 H 0.6171 0.1974 0.68231 0.0
H1033 H 0.61873 0.1687 0.65775 0.0
H1034 H 0.54738 0.10316 0.68016 0.0
H1035 H 0.54493 0.13232 0.70371 0.0
C1036 C 0.56334 0.0751 0.63328 0.0
C1037 C 0.58823 0.07865 0.62798 0.0
C1038 C 0.56173 0.09328 0.64531 0.0
C1039 C 0.585 0.11528 0.65268 0.0
C1040 C 0.60993 0.11921 0.64686 0.0
C1041 C 0.61151 0.10133 0.63443 0.0
C1042 C 0.60168 0.17687 0.68181 0.0
C1043 C 0.58086 0.16709 0.69487 0.0
C1044 C 0.60269 0.16032 0.66782 0.0
C1045 C 0.58324 0.13342 0.66687 0.0
C1046 C 0.56241 0.12378 0.68002 0.0
C1047 C 0.56107 0.14047 0.69369 0.0
H1048 H 0.53382 0.63642 0.78581 0.0
H1049 H 0.49279 0.55171 0.78174 0.0
H1050 H 0.50104 0.63405 0.8082 0.0
H1051 H 0.4585 0.5492 0.80255 0.0
H1052 H 0.42168 0.55022 0.85845 0.0
H1053 H 0.4519 0.55291 0.83397 0.0
H1054 H 0.45893 0.62598 0.81519 0.0
H1055 H 0.42995 0.62401 0.84084 0.0
C1056 C 0.51766 0.61728 0.78959 0.0
C1057 C 0.51646 0.59422 0.78254 0.0
C1058 C 0.49851 0.61588 0.80223 0.0
C1059 C 0.47716 0.59138 0.8076 0.0
C1060 C 0.47507 0.56842 0.79942 0.0
C1061 C 0.49461 0.56983 0.78726 0.0
C1062 C 0.42955 0.56679 0.84901 0.0
C1063 C 0.42346 0.58691 0.85156 0.0
C1064 C 0.4468 0.56827 0.83478 0.0
C1065 C 0.45795 0.58961 0.82234 0.0
C1066 C 0.45125 0.60947 0.82464 0.0
C1067 C 0.43445 0.60828 0.83924 0.0
H1068 H 0.9387 0.46919 0.94096 0.0
H1069 H 0.85982 0.37793 0.92281 0.0
H1070 H 0.91184 0.46768 0.97567 0.0
H1071 H 0.83482 0.37863 0.95785 0.0
H1072 H 0.81496 0.3824 0.02104 0.0
H1073 H 0.83518 0.38177 0.99107 0.0
H1074 H 0.87386 0.46645 0.98923 0.0
H1075 H 0.85431 0.46719 0.01949 0.0
C1076 C 0.91997 0.45206 0.94449 0.0
C1077 C 0.89968 0.42564 0.92667 0.0
C1078 C 0.9024 0.45145 0.96557 0.0
C1079 C 0.86963 0.42387 0.97009 0.0
C1080 C 0.85406 0.39516 0.95451 0.0
C1081 C 0.87003 0.3939 0.93304 0.0
C1082 C 0.82765 0.40089 0.01419 0.0
C1083 C 0.83314 0.42485 0.02275 0.0
C1084 C 0.83912 0.40052 0.9969 0.0
C1085 C 0.85624 0.42408 0.98778 0.0
C1086 C 0.86121 0.44798 0.99607 0.0
C1087 C 0.84981 0.44838 0.01338 0.0
H1088 H 0.52351 0.90092 0.11324 0.0
H1089 H 0.44899 0.87026 0.08198 0.0
H1090 H 0.49918 0.88731 0.14302 0.0
H1091 H 0.42463 0.85661 0.11169 0.0
H1092 H 0.39214 0.85795 0.17055 0.0
H1093 H 0.41762 0.87524 0.14166 0.0
H1094 H 0.46864 0.84442 0.15796 0.0
H1095 H 0.44335 0.82724 0.1869 0.0
C1096 C 0.50194 0.89147 0.1128 0.0
C1097 C 0.48811 0.88668 0.09535 0.0
C1098 C 0.48803 0.88356 0.12978 0.0
C1099 C 0.46001 0.87083 0.12966 0.0
C1100 C 0.44623 0.86661 0.11224 0.0
C1101 C 0.46014 0.87433 0.09525 0.0
C1102 C 0.40885 0.85493 0.16802 0.0
C1103 C 0.41566 0.84114 0.18103 0.0
C1104 C 0.42335 0.86474 0.15143 0.0
C1105 C 0.44511 0.86119 0.14756 0.0
C1106 C 0.45215 0.84772 0.16066 0.0
C1107 C 0.43753 0.83773 0.17719 0.0
H1108 H 0.5193 0.41737 0.306 0.0
H1109 H 0.59315 0.48291 0.28716 0.0
H1110 H 0.54192 0.41486 0.33466 0.0
H1111 H 0.61601 0.48016 0.31568 0.0
H1112 H 0.64032 0.48441 0.37857 0.0
H1113 H 0.6181 0.48754 0.34996 0.0
H1114 H 0.57476 0.40286 0.34409 0.0
H1115 H 0.59652 0.39966 0.37292 0.0
C1116 C 0.54035 0.43135 0.30809 0.0
C1117 C 0.55433 0.45068 0.29457 0.0
C1118 C 0.55338 0.42976 0.32439 0.0
C1119 C 0.58077 0.44733 0.32747 0.0
C1120 C 0.59481 0.4666 0.31388 0.0
C1121 C 0.58176 0.46818 0.29756 0.0
C1122 C 0.62608 0.46645 0.37117 0.0
C1123 C 0.62014 0.44177 0.37809 0.0
C1124 C 0.61345 0.46826 0.35471 0.0
C1125 C 0.5946 0.44545 0.34477 0.0
C1126 C 0.58886 0.4208 0.35158 0.0
C1127 C 0.60146 0.41897 0.36806 0.0
H1128 H 0.45529 0.88785 0.37848 0.0
H1129 H 0.38705 0.89845 0.3721 0.0
H1130 H 0.45107 0.87458 0.34503 0.0
H1131 H 0.38206 0.88423 0.33892 0.0
H1132 H 0.39028 0.87701 0.27633 0.0
H1133 H 0.40095 0.89592 0.30834 0.0
H1134 H 0.42252 0.8382 0.32473 0.0
H1135 H 0.41277 0.81992 0.29249 0.0
C1136 C 0.43943 0.88739 0.36987 0.0
C1137 C 0.42151 0.89419 0.37785 0.0
C1138 C 0.43688 0.87961 0.35076 0.0
C1139 C 0.41619 0.87825 0.33925 0.0
C1140 C 0.39851 0.88544 0.34723 0.0
C1141 C 0.4012 0.89341 0.36627 0.0
C1142 C 0.39755 0.86852 0.28672 0.0
C1143 C 0.40049 0.84684 0.2819 0.0
C1144 C 0.40352 0.87926 0.30512 0.0
C1145 C 0.4123 0.86842 0.31922 0.0
C1146 C 0.41608 0.84726 0.31422 0.0
C1147 C 0.41036 0.83667 0.29573 0.0
H1148 H 0.5414 0.40123 0.56441 0.0
H1149 H 0.5052 0.42964 0.52425 0.0
H1150 H 0.57716 0.41092 0.54205 0.0
H1151 H 0.54131 0.43993 0.50217 0.0
H1152 H 0.62446 0.47486 0.47497 0.0
H1153 H 0.59384 0.47029 0.50033 0.0
H1154 H 0.57531 0.39026 0.50847 0.0
H1155 H 0.60545 0.39456 0.48295 0.0
C1156 C 0.5414 0.41001 0.55096 0.0
C1157 C 0.52068 0.41494 0.54621 0.0
C1158 C 0.56176 0.41545 0.53819 0.0
C1159 C 0.562 0.42626 0.52047 0.0
C1160 C 0.54174 0.43191 0.51586 0.0
C1161 C 0.52108 0.42601 0.52851 0.0
C1162 C 0.61416 0.45643 0.48237 0.0
C1163 C 0.6173 0.43504 0.47695 0.0
C1164 C 0.59654 0.4538 0.49677 0.0
C1165 C 0.58222 0.42992 0.50627 0.0
C1166 C 0.58625 0.40893 0.50143 0.0
C1167 C 0.60343 0.41138 0.4868 0.0
H1168 H 0.11827 0.49326 0.69916 0.0
H1169 H 0.14741 0.56654 0.73027 0.0
H1170 H 0.13145 0.51715 0.66933 0.0
H1171 H 0.16069 0.59047 0.70053 0.0
H1172 H 0.1585 0.62188 0.64165 0.0
H1173 H 0.14139 0.59669 0.67057 0.0
H1174 H 0.17449 0.54795 0.6543 0.0
H1175 H 0.19146 0.57292 0.62535 0.0
C1176 C 0.12728 0.51445 0.69956 0.0
C1177 C 0.13172 0.52807 0.71698 0.0
C1178 C 0.13496 0.52813 0.68255 0.0
C1179 C 0.14714 0.55568 0.68261 0.0
C1180 C 0.15108 0.56923 0.70001 0.0
C1181 C 0.14357 0.55557 0.71702 0.0
C1182 C 0.16204 0.60572 0.64419 0.0
C1183 C 0.1764 0.59946 0.6312 0.0
C1184 C 0.15233 0.59139 0.6608 0.0
C1185 C 0.1566 0.57036 0.66469 0.0
C1186 C 0.17063 0.56386 0.65158 0.0
C1187 C 0.1805 0.5783 0.63505 0.0
H1188 H 0.55283 0.13618 0.89762 0.0
H1189 H 0.63775 0.13799 0.87446 0.0
H1190 H 0.5519 0.16178 0.86298 0.0
H1191 H 0.6348 0.16339 0.84048 0.0
H1192 H 0.62836 0.21245 0.79308 0.0
H1193 H 0.63253 0.19728 0.82429 0.0
H1194 H 0.54674 0.15512 0.82905 0.0
H1195 H 0.54251 0.1707 0.79803 0.0
C1196 C 0.56859 0.14229 0.8874 0.0
C1197 C 0.59285 0.1302 0.88804 0.0
C1198 C 0.56757 0.15716 0.8654 0.0
C1199 C 0.59234 0.16421 0.84743 0.0
C1200 C 0.62003 0.15854 0.85131 0.0
C1201 C 0.62275 0.1437 0.87282 0.0
C1202 C 0.61038 0.20009 0.80083 0.0
C1203 C 0.58509 0.19271 0.79299 0.0
C1204 C 0.61276 0.19121 0.81868 0.0
C1205 C 0.58995 0.17487 0.82909 0.0
C1206 C 0.56473 0.16799 0.8215 0.0
C1207 C 0.5623 0.17678 0.80362 0.0
H1208 H 0.46887 0.53699 0.02089 0.0
H1209 H 0.49112 0.61611 0.03834 0.0
H1210 H 0.44416 0.53995 0.99374 0.0
H1211 H 0.46554 0.61887 0.01151 0.0
H1212 H 0.44387 0.62359 0.94874 0.0
H1213 H 0.46675 0.62193 0.97756 0.0
H1214 H 0.40502 0.54128 0.98535 0.0
H1215 H 0.38279 0.54268 0.95627 0.0
C1216 C 0.46811 0.55489 0.01903 0.0
C1217 C 0.48169 0.57622 0.03181 0.0
C1218 C 0.45383 0.55656 0.00355 0.0
C1219 C 0.45267 0.57959 0.00049 0.0
C1220 C 0.4662 0.60093 0.01333 0.0
C1221 C 0.48066 0.59929 0.02878 0.0
C1222 C 0.4351 0.6056 0.95672 0.0
C1223 C 0.41169 0.58319 0.95013 0.0
C1224 C 0.44815 0.60467 0.97329 0.0
C1225 C 0.43788 0.58137 0.98369 0.0
C1226 C 0.41385 0.55934 0.97746 0.0
C1227 C 0.401 0.5602 0.96084 0.0
H1228 H 0.94897 0.4573 0.19547 0.0
H1229 H 0.90771 0.37262 0.19065 0.0
H1230 H 0.91777 0.45837 0.17269 0.0
H1231 H 0.87791 0.37367 0.16658 0.0
H1232 H 0.81589 0.38144 0.13189 0.0
H1233 H 0.84292 0.38016 0.15827 0.0
H1234 H 0.90918 0.45425 0.14058 0.0
H1235 H 0.88163 0.45616 0.11522 0.0
C1236 C 0.93339 0.4389 0.18935 0.0
C1237 C 0.93146 0.41498 0.19442 0.0
C1238 C 0.9156 0.43949 0.1761 0.0
C1239 C 0.89559 0.41616 0.16728 0.0
C1240 C 0.89295 0.39209 0.17299 0.0
C1241 C 0.91038 0.39148 0.18663 0.0
C1242 C 0.8362 0.39747 0.1338 0.0
C1243 C 0.84661 0.41895 0.12158 0.0
C1244 C 0.85181 0.3967 0.14885 0.0
C1245 C 0.87836 0.41715 0.15174 0.0
C1246 C 0.88868 0.43846 0.13928 0.0
C1247 C 0.87293 0.43949 0.12456 0.0
loop_
_geom_bond_atom_site_label_1
_geom_bond_atom_site_label_2
_geom_bond_distance
_geom_bond_site_symmetry_2
_ccdc_geom_bond_type
C0 C1 1.560 . S
C0 H61 0.959 . S
C0 H62 0.959 . S
C0 H63 0.960 . S
C1 C0 1.560 . S
C1 O56 1.426 . S
C1 H60 0.980 . S
C2 C3 1.407 . S
C2 C7 1.418 . S
C2 O56 1.334 . S
C3 C2 1.407 . S
C3 C4 1.360 . S
C3 H64 0.929 . S
C4 C3 1.360 . S
C4 C5 1.401 . S
C4 C8 1.527 . S
C5 C4 1.401 . S
C5 C6 1.405 . S
C5 C38 1.587 . S
C6 C5 1.405 . S
C6 C7 1.332 . S
C6 C9 1.496 . S
C7 C2 1.418 . S
C7 C6 1.332 . S
C7 H65 0.929 . S
C8 C4 1.527 . S
C8 H66 0.959 . S
C8 H67 0.961 . S
C8 H68 0.961 . S
C9 C6 1.496 . S
C9 H69 0.960 . S
C9 H70 0.960 . S
C9 H71 0.961 . S
C10 C11 1.517 . S
C10 H73 0.961 . S
C10 H74 0.960 . S
C10 H75 0.959 . S
C11 C10 1.517 . S
C11 O59 1.468 . S
C11 H72 0.980 . S
C12 C13 1.349 . S
C12 C17 1.367 . S
C12 O59 1.408 . S
C13 C12 1.349 . S
C13 C14 1.407 . S
C13 H76 0.930 . S
C14 C13 1.407 . S
C14 C15 1.449 . S
C14 C18 1.535 . S
C15 C14 1.449 . S
C15 C16 1.384 . S
C15 C40 1.553 1_655 S
C16 C15 1.384 . S
C16 C17 1.364 . S
C16 C19 1.450 . S
C17 C12 1.367 . S
C17 C16 1.364 . S
C17 H77 0.931 . S
C18 C14 1.535 . S
C18 H78 0.959 1_655 S
C18 H79 0.960 1_655 S
C18 H80 0.959 . S
C19 C16 1.450 . S
C19 H81 0.960 . S
C19 H82 0.960 1_655 S
C19 H83 0.960 . S
C20 C21 1.309 . S
C20 C25 1.304 . S
C20 O58 1.435 . S
C21 C20 1.309 . S
C21 C22 1.476 . S
C21 H85 0.930 . S
C22 C21 1.476 . S
C22 C23 1.400 . S
C22 C26 1.567 . S
C23 C22 1.400 . S
C23 C24 1.373 . S
C23 C45 1.432 . S
C24 C23 1.373 . S
C24 C25 1.339 . S
C24 C27 1.530 . S
C25 C20 1.304 . S
C25 C24 1.339 . S
C25 H86 0.930 . S
C26 C22 1.567 . S
C26 H87 0.961 . S
C26 H88 0.960 . S
C26 H89 0.958 . S
C27 C24 1.530 . S
C27 H90 0.961 . S
C27 H91 0.960 . S
C27 H92 0.960 . S
C28 C29 1.530 . S
C28 H94 0.961 . S
C28 H95 0.961 . S
C28 H96 0.959 . S
C29 C28 1.530 . S
C29 O57 1.412 . S
C29 H93 0.980 . S
C30 C31 1.288 . S
C30 C35 1.377 . S
C30 O57 1.393 . S
C31 C30 1.288 . S
C31 C32 1.369 . S
C31 H97 0.932 . S
C32 C31 1.369 . S
C32 C33 1.398 . S
C32 C36 1.527 . S
C33 C32 1.398 . S
C33 C34 1.380 . S
C33 C47 1.497 . S
C34 C33 1.380 . S
C34 C35 1.383 . S
C34 C37 1.603 . S
C35 C30 1.377 . S
C35 C34 1.383 . S
C35 H98 0.929 . S
C36 C32 1.527 . S
C36 H99 0.961 . S
C36 H100 0.936 1_455 S
C36 H101 0.959 . S
C37 C34 1.603 . S
C37 H102 0.960 . S
C37 H103 0.962 . S
C37 H104 0.961 . S
C38 C5 1.587 . S
C38 C39 1.360 . S
C38 C51 1.412 . S
C39 C38 1.360 . S
C39 C40 1.365 . S
C39 H105 0.929 . S
C40 C15 1.553 1_455 S
C40 C39 1.365 . S
C40 C41 1.423 . S
C41 C40 1.423 . S
C41 C42 1.358 1_455 S
C41 C52 1.472 . S
C42 C41 1.358 1_655 S
C42 C43 1.322 . S
C42 H106 0.930 . S
C43 C42 1.322 . S
C43 C44 1.459 . S
C43 H107 0.929 . S
C44 C43 1.459 . S
C44 C45 1.445 . S
C44 C53 1.395 1_655 S
C45 C23 1.432 . S
C45 C44 1.445 . S
C45 C46 1.370 . S
C46 C45 1.370 . S
C46 C47 1.438 1_655 S
C46 H108 0.930 . S
C47 C33 1.497 . S
C47 C46 1.438 1_455 S
C47 C48 1.360 . S
C48 C47 1.360 . S
C48 C49 1.401 . S
C48 C53 1.446 . S
C49 C48 1.401 . S
C49 C50 1.347 . S
C49 H109 0.929 . S
C50 C49 1.347 . S
C50 C51 1.455 . S
C50 H110 0.930 . S
C51 C38 1.412 . S
C51 C50 1.455 . S
C51 C52 1.331 . S
C52 C41 1.472 . S
C52 C51 1.331 . S
C52 C53 1.497 . S
C53 C44 1.395 1_455 S
C53 C48 1.446 . S
C53 C52 1.497 . S
C54 C55 1.582 . S
C54 H111 0.962 . S
C54 H112 0.959 . S
C54 H113 0.958 . S
C55 C54 1.582 . S
C55 O58 1.458 . S
C55 H84 0.980 . S
O56 C1 1.426 . S
O56 C2 1.334 . S
O57 C29 1.412 . S
O57 C30 1.393 . S
O58 C20 1.435 . S
O58 C55 1.458 . S
O59 C11 1.468 . S
O59 C12 1.408 . S
H60 C1 0.980 . S
H61 C0 0.959 . S
H62 C0 0.959 . S
H63 C0 0.960 . S
H64 C3 0.929 . S
H65 C7 0.929 . S
H66 C8 0.959 . S
H67 C8 0.961 . S
H68 C8 0.961 . S
H69 C9 0.960 . S
H70 C9 0.960 . S
H71 C9 0.961 . S
H72 C11 0.980 . S
H73 C10 0.961 . S
H74 C10 0.960 . S
H75 C10 0.959 . S
H76 C13 0.930 . S
H77 C17 0.931 . S
H78 C18 0.959 1_455 S
H79 C18 0.960 1_455 S
H80 C18 0.959 . S
H81 C19 0.960 . S
H82 C19 0.960 1_455 S
H83 C19 0.960 . S
H84 C55 0.980 . S
H85 C21 0.930 . S
H86 C25 0.930 . S
H87 C26 0.961 . S
H88 C26 0.960 . S
H89 C26 0.958 . S
H90 C27 0.961 . S
H91 C27 0.960 . S
H92 C27 0.960 . S
H93 C29 0.980 . S
H94 C28 0.961 . S
H95 C28 0.961 . S
H96 C28 0.959 . S
H97 C31 0.932 . S
H98 C35 0.929 . S
H99 C36 0.961 . S
H100 C36 0.936 1_655 S
H101 C36 0.959 . S
H102 C37 0.960 . S
H103 C37 0.962 . S
H104 C37 0.961 . S
H105 C39 0.929 . S
H106 C42 0.930 . S
H107 C43 0.929 . S
H108 C46 0.930 . S
H109 C49 0.929 . S
H110 C50 0.930 . S
H111 C54 0.962 . S
H112 C54 0.959 . S
H113 C54 0.958 . S
C114 C115 1.560 . S
C114 H175 0.959 . S
C114 H176 0.959 . S
C114 H177 0.960 . S
C115 C114 1.560 . S
C115 O170 1.426 . S
C115 H174 0.980 . S
C116 C117 1.407 . S
C116 C121 1.418 . S
C116 O170 1.334 . S
C117 C116 1.407 . S
C117 C118 1.360 . S
C117 H178 0.929 . S
C118 C117 1.360 . S
C118 C119 1.401 . S
C118 C122 1.527 . S
C119 C118 1.401 . S
C119 C120 1.405 . S
C119 C152 1.587 . S
C120 C119 1.405 . S
C120 C121 1.332 . S
C120 C123 1.496 . S
C121 C116 1.418 . S
C121 C120 1.332 . S
C121 H179 0.929 . S
C122 C118 1.527 . S
C122 H180 0.959 . S
C122 H181 0.961 . S
C122 H182 0.961 . S
C123 C120 1.496 . S
C123 H183 0.960 . S
C123 H184 0.960 . S
C123 H185 0.961 . S
C124 C125 1.517 . S
C124 H187 0.961 . S
C124 H188 0.960 . S
C124 H189 0.959 . S
C125 C124 1.517 . S
C125 O173 1.468 . S
C125 H186 0.980 . S
C126 C127 1.349 . S
C126 C131 1.367 . S
C126 O173 1.408 . S
C127 C126 1.349 . S
C127 C128 1.407 . S
C127 H190 0.930 . S
C128 C127 1.407 . S
C128 C129 1.449 . S
C128 C132 1.535 . S
C129 C128 1.449 . S
C129 C130 1.384 . S
C129 C154 1.553 . S
C130 C129 1.384 . S
C130 C131 1.364 . S
C130 C133 1.450 . S
C131 C126 1.367 . S
C131 C130 1.364 . S
C131 H191 0.931 . S
C132 C128 1.535 . S
C132 H192 0.959 . S
C132 H193 0.961 . S
C132 H194 0.959 . S
C133 C130 1.450 . S
C133 H195 0.960 . S
C133 H196 0.960 . S
C133 H197 0.960 . S
C134 C135 1.309 . S
C134 C139 1.304 . S
C134 O172 1.435 . S
C135 C134 1.309 . S
C135 C136 1.476 . S
C135 H199 0.930 . S
C136 C135 1.476 . S
C136 C137 1.400 . S
C136 C140 1.567 . S
C137 C136 1.400 . S
C137 C138 1.373 . S
C137 C159 1.432 . S
C138 C137 1.373 . S
C138 C139 1.339 . S
C138 C141 1.530 . S
C139 C134 1.304 . S
C139 C138 1.339 . S
C139 H200 0.930 . S
C140 C136 1.567 . S
C140 H201 0.961 . S
C140 H202 0.960 . S
C140 H203 0.958 . S
C141 C138 1.530 . S
C141 H204 0.961 . S
C141 H205 0.960 . S
C141 H206 0.960 . S
C142 C143 1.530 . S
C142 H208 0.961 . S
C142 H209 0.961 . S
C142 H210 0.959 . S
C143 C142 1.530 . S
C143 O171 1.412 . S
C143 H207 0.980 . S
C144 C145 1.288 . S
C144 C149 1.377 . S
C144 O171 1.393 . S
C145 C144 1.288 . S
C145 C146 1.369 . S
C145 H211 0.932 . S
C146 C145 1.369 . S
C146 C147 1.398 . S
C146 C150 1.527 . S
C147 C146 1.398 . S
C147 C148 1.380 . S
C147 C161 1.513 . S
C148 C147 1.380 . S
C148 C149 1.383 . S
C148 C151 1.603 . S
C149 C144 1.377 . S
C149 C148 1.383 . S
C149 H212 0.929 . S
C150 C146 1.527 . S
C150 H213 0.961 . S
C150 H214 0.959 1_565 S
C150 H215 0.959 . S
C151 C148 1.603 . S
C151 H216 0.960 . S
C151 H217 0.962 . S
C151 H218 0.961 . S
C152 C119 1.587 . S
C152 C153 1.360 . S
C152 C165 1.412 . S
C153 C152 1.360 . S
C153 C154 1.365 1_565 S
C153 H219 0.929 . S
C154 C129 1.553 . S
C154 C153 1.365 1_545 S
C154 C155 1.404 . S
C155 C154 1.404 . S
C155 C156 1.395 . S
C155 C166 1.451 1_545 S
C156 C155 1.395 . S
C156 C157 1.322 . S
C156 H220 0.930 . S
C157 C156 1.322 . S
C157 C158 1.459 . S
C157 H221 0.929 . S
C158 C157 1.459 . S
C158 C159 1.445 . S
C158 C167 1.395 . S
C159 C137 1.432 . S
C159 C158 1.445 . S
C159 C160 1.370 . S
C160 C159 1.370 . S
C160 C161 1.403 1_545 S
C160 H222 0.930 . S
C161 C147 1.513 . S
C161 C160 1.403 1_565 S
C161 C162 1.377 . S
C162 C161 1.377 . S
C162 C163 1.401 . S
C162 C167 1.446 1_565 S
C163 C162 1.401 . S
C163 C164 1.347 . S
C163 H223 0.929 . S
C164 C163 1.347 . S
C164 C165 1.455 . S
C164 H224 0.930 . S
C165 C152 1.412 . S
C165 C164 1.455 . S
C165 C166 1.331 . S
C166 C155 1.451 1_565 S
C166 C165 1.331 . S
C166 C167 1.497 1_565 S
C167 C158 1.395 . S
C167 C162 1.446 1_545 S
C167 C166 1.497 1_545 S
C168 C169 1.582 . S
C168 H225 0.962 . S
C168 H226 0.959 . S
C168 H227 0.958 . S
C169 C168 1.582 . S
C169 O172 1.458 . S
C169 H198 0.980 . S
O170 C115 1.426 . S
O170 C116 1.334 . S
O171 C143 1.412 . S
O171 C144 1.393 . S
O172 C134 1.435 . S
O172 C169 1.458 . S
O173 C125 1.468 . S
O173 C126 1.408 . S
H174 C115 0.980 . S
H175 C114 0.959 . S
H176 C114 0.959 . S
H177 C114 0.960 . S
H178 C117 0.929 . S
H179 C121 0.929 . S
H180 C122 0.959 . S
H181 C122 0.961 . S
H182 C122 0.961 . S
H183 C123 0.960 . S
H184 C123 0.960 . S
H185 C123 0.961 . S
H186 C125 0.980 . S
H187 C124 0.961 . S
H188 C124 0.960 . S
H189 C124 0.959 . S
H190 C127 0.930 . S
H191 C131 0.931 . S
H192 C132 0.959 . S
H193 C132 0.961 . S
H194 C132 0.959 . S
H195 C133 0.960 . S
H196 C133 0.960 . S
H197 C133 0.960 . S
H198 C169 0.980 . S
H199 C135 0.930 . S
H200 C139 0.930 . S
H201 C140 0.961 . S
H202 C140 0.960 . S
H203 C140 0.958 . S
H204 C141 0.961 . S
H205 C141 0.960 . S
H206 C141 0.960 . S
H207 C143 0.980 . S
H208 C142 0.961 . S
H209 C142 0.961 . S
H210 C142 0.959 . S
H211 C145 0.932 . S
H212 C149 0.929 . S
H213 C150 0.961 . S
H214 C150 0.959 1_545 S
H215 C150 0.959 . S
H216 C151 0.960 . S
H217 C151 0.962 . S
H218 C151 0.961 . S
H219 C153 0.929 . S
H220 C156 0.930 . S
H221 C157 0.929 . S
H222 C160 0.930 . S
H223 C163 0.929 . S
H224 C164 0.930 . S
H225 C168 0.962 . S
H226 C168 0.959 . S
H227 C168 0.958 . S
C228 C229 1.560 . S
C228 H289 0.959 . S
C228 H290 0.959 . S
C228 H291 0.960 . S
C229 C228 1.560 . S
C229 O284 1.426 . S
C229 H288 0.980 . S
C230 C231 1.407 . S
C230 C235 1.418 . S
C230 O284 1.334 . S
C231 C230 1.407 . S
C231 C232 1.360 . S
C231 H292 0.929 . S
C232 C231 1.360 . S
C232 C233 1.401 . S
C232 C236 1.527 . S
C233 C232 1.401 . S
C233 C234 1.405 . S
C233 C266 1.587 . S
C234 C233 1.405 . S
C234 C235 1.332 . S
C234 C237 1.496 . S
C235 C230 1.418 . S
C235 C234 1.332 . S
C235 H293 0.929 . S
C236 C232 1.527 . S
C236 H294 0.959 . S
C236 H295 0.961 . S
C236 H296 0.961 . S
C237 C234 1.496 . S
C237 H297 0.960 . S
C237 H298 0.960 . S
C237 H299 0.961 . S
C238 C239 1.517 . S
C238 H301 0.961 . S
C238 H302 0.960 . S
C238 H303 0.959 . S
C239 C238 1.517 . S
C239 O287 1.468 . S
C239 H300 0.980 . S
C240 C241 1.349 . S
C240 C245 1.367 . S
C240 O287 1.408 . S
C241 C240 1.349 . S
C241 C242 1.407 . S
C241 H304 0.930 . S
C242 C241 1.407 . S
C242 C243 1.449 . S
C242 C246 1.535 . S
C243 C242 1.449 . S
C243 C244 1.384 . S
C243 C268 1.553 . S
C244 C243 1.384 . S
C244 C245 1.364 . S
C244 C247 1.450 . S
C245 C240 1.367 . S
C245 C244 1.364 . S
C245 H305 0.931 . S
C246 C242 1.535 . S
C246 H306 0.959 . S
C246 H307 0.961 . S
C246 H308 0.959 . S
C247 C244 1.450 . S
C247 H309 0.960 . S
C247 H310 0.960 . S
C247 H311 0.960 . S
C248 C249 1.309 . S
C248 C253 1.304 . S
C248 O286 1.435 . S
C249 C248 1.309 . S
C249 C250 1.476 . S
C249 H313 0.930 . S
C250 C249 1.476 . S
C250 C251 1.400 . S
C250 C254 1.567 . S
C251 C250 1.400 . S
C251 C252 1.373 . S
C251 C273 1.432 . S
C252 C251 1.373 . S
C252 C253 1.339 . S
C252 C255 1.530 . S
C253 C248 1.304 . S
C253 C252 1.339 . S
C253 H314 0.930 . S
C254 C250 1.567 . S
C254 H315 0.961 . S
C254 H316 0.960 . S
C254 H317 0.958 . S
C255 C252 1.530 . S
C255 H318 0.961 . S
C255 H319 0.960 . S
C255 H320 0.960 . S
C256 C257 1.530 . S
C256 H322 0.961 . S
C256 H323 0.961 . S
C256 H324 0.959 . S
C257 C256 1.530 . S
C257 O285 1.412 . S
C257 H321 0.980 . S
C258 C259 1.288 . S
C258 C263 1.377 . S
C258 O285 1.393 . S
C259 C258 1.288 . S
C259 C260 1.369 . S
C259 H325 0.932 . S
C260 C259 1.369 . S
C260 C261 1.398 . S
C260 C264 1.527 . S
C261 C260 1.398 . S
C261 C262 1.380 . S
C261 C275 1.497 . S
C262 C261 1.380 . S
C262 C263 1.383 . S
C262 C265 1.603 . S
C263 C258 1.377 . S
C263 C262 1.383 . S
C263 H326 0.929 . S
C264 C260 1.527 . S
C264 H327 0.961 . S
C264 H328 0.959 . S
C264 H329 0.959 . S
C265 C262 1.603 . S
C265 H330 0.960 . S
C265 H331 0.962 . S
C265 H332 0.961 . S
C266 C233 1.587 . S
C266 C267 1.360 . S
C266 C279 1.412 . S
C267 C266 1.360 . S
C267 C268 1.365 . S
C267 H333 0.929 . S
C268 C243 1.553 . S
C268 C267 1.365 . S
C268 C269 1.404 . S
C269 C268 1.404 . S
C269 C270 1.395 . S
C269 C280 1.451 . S
C270 C269 1.395 . S
C270 C271 1.322 . S
C270 H334 0.930 . S
C271 C270 1.322 . S
C271 C272 1.459 . S
C271 H335 0.929 . S
C272 C271 1.459 . S
C272 C273 1.445 . S
C272 C281 1.395 . S
C273 C251 1.432 . S
C273 C272 1.445 . S
C273 C274 1.370 . S
C274 C273 1.370 . S
C274 C275 1.438 . S
C274 H336 0.930 . S
C275 C261 1.497 . S
C275 C274 1.438 . S
C275 C276 1.360 . S
C276 C275 1.360 . S
C276 C277 1.401 . S
C276 C281 1.446 . S
C277 C276 1.401 . S
C277 C278 1.347 . S
C277 H337 0.929 . S
C278 C277 1.347 . S
C278 C279 1.455 . S
C278 H338 0.930 . S
C279 C266 1.412 . S
C279 C278 1.455 . S
C279 C280 1.331 . S
C280 C269 1.451 . S
C280 C279 1.331 . S
C280 C281 1.497 . S
C281 C272 1.395 . S
C281 C276 1.446 . S
C281 C280 1.497 . S
C282 C283 1.582 . S
C282 H339 0.962 . S
C282 H340 0.959 . S
C282 H341 0.958 . S
C283 C282 1.582 . S
C283 O286 1.458 . S
C283 H312 0.980 . S
O284 C229 1.426 . S
O284 C230 1.334 . S
O285 C257 1.412 . S
O285 C258 1.393 . S
O286 C248 1.435 . S
O286 C283 1.458 . S
O287 C239 1.468 . S
O287 C240 1.408 . S
H288 C229 0.980 . S
H289 C228 0.959 . S
H290 C228 0.959 . S
H291 C228 0.960 . S
H292 C231 0.929 . S
H293 C235 0.929 . S
H294 C236 0.959 . S
H295 C236 0.961 . S
H296 C236 0.961 . S
H297 C237 0.960 . S
H298 C237 0.960 . S
H299 C237 0.961 . S
H300 C239 0.980 . S
H301 C238 0.961 . S
H302 C238 0.960 . S
H303 C238 0.959 . S
H304 C241 0.930 . S
H305 C245 0.931 . S
H306 C246 0.959 . S
H307 C246 0.961 . S
H308 C246 0.959 . S
H309 C247 0.960 . S
H310 C247 0.960 . S
H311 C247 0.960 . S
H312 C283 0.980 . S
H313 C249 0.930 . S
H314 C253 0.930 . S
H315 C254 0.961 . S
H316 C254 0.960 . S
H317 C254 0.958 . S
H318 C255 0.961 . S
H319 C255 0.960 . S
H320 C255 0.960 . S
H321 C257 0.980 . S
H322 C256 0.961 . S
H323 C256 0.961 . S
H324 C256 0.959 . S
H325 C259 0.932 . S
H326 C263 0.929 . S
H327 C264 0.961 . S
H328 C264 0.959 . S
H329 C264 0.959 . S
H330 C265 0.960 . S
H331 C265 0.962 . S
H332 C265 0.961 . S
H333 C267 0.929 . S
H334 C270 0.930 . S
H335 C271 0.929 . S
H336 C274 0.930 . S
H337 C277 0.929 . S
H338 C278 0.930 . S
H339 C282 0.962 . S
H340 C282 0.959 . S
H341 C282 0.958 . S
C342 C343 1.560 . S
C342 H403 0.959 . S
C342 H404 0.959 . S
C342 H405 0.960 . S
C343 C342 1.560 . S
C343 O398 1.426 . S
C343 H402 0.980 . S
C344 C345 1.407 . S
C344 C349 1.418 . S
C344 O398 1.334 . S
C345 C344 1.407 . S
C345 C346 1.360 . S
C345 H406 0.929 . S
C346 C345 1.360 . S
C346 C347 1.401 . S
C346 C350 1.527 . S
C347 C346 1.401 . S
C347 C348 1.405 . S
C347 C380 1.587 . S
C348 C347 1.405 . S
C348 C349 1.332 . S
C348 C351 1.496 . S
C349 C344 1.418 . S
C349 C348 1.332 . S
C349 H407 0.929 . S
C350 C346 1.527 . S
C350 H408 0.959 . S
C350 H409 0.961 . S
C350 H410 0.961 . S
C351 C348 1.496 . S
C351 H411 0.960 . S
C351 H412 0.960 . S
C351 H413 0.961 . S
C352 C353 1.517 . S
C352 H415 0.961 . S
C352 H416 0.960 . S
C352 H417 0.959 . S
C353 C352 1.517 . S
C353 O401 1.468 . S
C353 H414 0.980 . S
C354 C355 1.349 . S
C354 C359 1.367 . S
C354 O401 1.408 . S
C355 C354 1.349 . S
C355 C356 1.407 . S
C355 H418 0.930 . S
C356 C355 1.407 . S
C356 C357 1.442 . S
C356 C360 1.508 1_655 S
C357 C356 1.442 . S
C357 C358 1.414 . S
C357 C382 1.530 1_655 S
C358 C357 1.414 . S
C358 C359 1.364 . S
C358 C361 1.450 . S
C359 C354 1.367 . S
C359 C358 1.364 . S
C359 H419 0.931 . S
C360 C356 1.508 1_455 S
C360 H420 0.983 . S
C360 H421 0.982 . S
C360 H422 0.943 1_455 S
C361 C358 1.450 . S
C361 H423 0.960 . S
C361 H424 0.960 1_655 S
C361 H425 0.960 . S
C362 C363 1.309 . S
C362 C367 1.304 . S
C362 O400 1.435 . S
C363 C362 1.309 . S
C363 C364 1.476 . S
C363 H427 0.930 . S
C364 C363 1.476 . S
C364 C365 1.400 . S
C364 C368 1.567 . S
C365 C364 1.400 . S
C365 C366 1.373 . S
C365 C387 1.432 . S
C366 C365 1.373 . S
C366 C367 1.339 . S
C366 C369 1.530 . S
C367 C362 1.304 . S
C367 C366 1.339 . S
C367 H428 0.930 . S
C368 C364 1.567 . S
C368 H429 0.961 . S
C368 H430 0.960 . S
C368 H431 0.958 . S
C369 C366 1.530 . S
C369 H432 0.961 . S
C369 H433 0.960 . S
C369 H434 0.960 . S
C370 C371 1.530 . S
C370 H436 0.961 . S
C370 H437 0.961 . S
C370 H438 0.959 . S
C371 C370 1.530 . S
C371 O399 1.412 . S
C371 H435 0.980 . S
C372 C373 1.288 . S
C372 C377 1.377 . S
C372 O399 1.393 . S
C373 C372 1.288 . S
C373 C374 1.369 . S
C373 H439 0.932 . S
C374 C373 1.369 . S
C374 C375 1.398 . S
C374 C378 1.527 . S
C375 C374 1.398 . S
C375 C376 1.380 . S
C375 C389 1.497 . S
C376 C375 1.380 . S
C376 C377 1.383 . S
C376 C379 1.603 . S
C377 C372 1.377 . S
C377 C376 1.383 . S
C377 H440 0.929 . S
C378 C374 1.527 . S
C378 H441 0.961 . S
C378 H442 0.959 . S
C378 H443 0.959 . S
C379 C376 1.603 . S
C379 H444 0.960 . S
C379 H445 0.962 . S
C379 H446 0.961 . S
C380 C347 1.587 . S
C380 C381 1.360 . S
C380 C393 1.412 . S
C381 C380 1.360 . S
C381 C382 1.365 . S
C381 H447 0.929 . S
C382 C357 1.530 1_455 S
C382 C381 1.365 . S
C382 C383 1.404 . S
C383 C382 1.404 . S
C383 C384 1.395 1_455 S
C383 C394 1.451 . S
C384 C383 1.395 1_655 S
C384 C385 1.322 . S
C384 H448 0.930 . S
C385 C384 1.322 . S
C385 C386 1.459 . S
C385 H449 0.929 . S
C386 C385 1.459 . S
C386 C387 1.445 . S
C386 C395 1.395 1_655 S
C387 C365 1.432 . S
C387 C386 1.445 . S
C387 C388 1.370 . S
C388 C387 1.370 . S
C388 C389 1.438 1_655 S
C388 H450 0.930 . S
C389 C375 1.497 . S
C389 C388 1.438 1_455 S
C389 C390 1.360 . S
C390 C389 1.360 . S
C390 C391 1.401 . S
C390 C395 1.446 . S
C391 C390 1.401 . S
C391 C392 1.347 . S
C391 H451 0.929 . S
C392 C391 1.347 . S
C392 C393 1.455 . S
C392 H452 0.930 . S
C393 C380 1.412 . S
C393 C392 1.455 . S
C393 C394 1.331 . S
C394 C383 1.451 . S
C394 C393 1.331 . S
C394 C395 1.497 . S
C395 C386 1.395 1_455 S
C395 C390 1.446 . S
C395 C394 1.497 . S
C396 C397 1.582 . S
C396 H453 0.962 . S
C396 H454 0.959 . S
C396 H455 0.958 . S
C397 C396 1.582 . S
C397 O400 1.458 . S
C397 H426 0.980 . S
O398 C343 1.426 . S
O398 C344 1.334 . S
O399 C371 1.412 . S
O399 C372 1.393 . S
O400 C362 1.435 . S
O400 C397 1.458 . S
O401 C353 1.468 . S
O401 C354 1.408 . S
H402 C343 0.980 . S
H403 C342 0.959 . S
H404 C342 0.959 . S
H405 C342 0.960 . S
H406 C345 0.929 . S
H407 C349 0.929 . S
H408 C350 0.959 . S
H409 C350 0.961 . S
H410 C350 0.961 . S
H411 C351 0.960 . S
H412 C351 0.960 . S
H413 C351 0.961 . S
H414 C353 0.980 . S
H415 C352 0.961 . S
H416 C352 0.960 . S
H417 C352 0.959 . S
H418 C355 0.930 . S
H419 C359 0.931 . S
H420 C360 0.983 . S
H421 C360 0.982 . S
H422 C360 0.943 1_655 S
H423 C361 0.960 . S
H424 C361 0.960 1_455 S
H425 C361 0.960 . S
H426 C397 0.980 . S
H427 C363 0.930 . S
H428 C367 0.930 . S
H429 C368 0.961 . S
H430 C368 0.960 . S
H431 C368 0.958 . S
H432 C369 0.961 . S
H433 C369 0.960 . S
H434 C369 0.960 . S
H435 C371 0.980 . S
H436 C370 0.961 . S
H437 C370 0.961 . S
H438 C370 0.959 . S
H439 C373 0.932 . S
H440 C377 0.929 . S
H441 C378 0.961 . S
H442 C378 0.959 . S
H443 C378 0.959 . S
H444 C379 0.960 . S
H445 C379 0.962 . S
H446 C379 0.961 . S
H447 C381 0.929 . S
H448 C384 0.930 . S
H449 C385 0.929 . S
H450 C388 0.930 . S
H451 C391 0.929 . S
H452 C392 0.930 . S
H453 C396 0.962 . S
H454 C396 0.959 . S
H455 C396 0.958 . S
C456 C457 1.560 . S
C456 H517 0.959 . S
C456 H518 0.959 . S
C456 H519 0.960 . S
C457 C456 1.560 . S
C457 O512 1.426 . S
C457 H516 0.980 . S
C458 C459 1.407 . S
C458 C463 1.418 . S
C458 O512 1.334 . S
C459 C458 1.407 . S
C459 C460 1.360 . S
C459 H520 0.929 . S
C460 C459 1.360 . S
C460 C461 1.401 . S
C460 C464 1.527 . S
C461 C460 1.401 . S
C461 C462 1.405 . S
C461 C494 1.587 . S
C462 C461 1.405 . S
C462 C463 1.332 . S
C462 C465 1.496 . S
C463 C458 1.418 . S
C463 C462 1.332 . S
C463 H521 0.929 . S
C464 C460 1.527 . S
C464 H522 0.959 . S
C464 H523 0.961 . S
C464 H524 0.961 . S
C465 C462 1.496 . S
C465 H525 0.960 . S
C465 H526 0.960 . S
C465 H527 0.961 . S
C466 C467 1.517 . S
C466 H529 0.961 . S
C466 H530 0.960 . S
C466 H531 0.959 . S
C467 C466 1.517 . S
C467 O515 1.468 . S
C467 H528 0.980 . S
C468 C469 1.349 . S
C468 C473 1.367 . S
C468 O515 1.408 . S
C469 C468 1.349 . S
C469 C470 1.407 . S
C469 H532 0.930 . S
C470 C469 1.407 . S
C470 C471 1.449 . S
C470 C474 1.535 . S
C471 C470 1.449 . S
C471 C472 1.384 . S
C471 C496 1.553 . S
C472 C471 1.384 . S
C472 C473 1.364 . S
C472 C475 1.450 . S
C473 C468 1.367 . S
C473 C472 1.364 . S
C473 H533 0.931 . S
C474 C470 1.535 . S
C474 H534 0.959 . S
C474 H535 0.961 . S
C474 H536 0.959 . S
C475 C472 1.450 . S
C475 H537 0.960 . S
C475 H538 0.960 . S
C475 H539 0.960 . S
C476 C477 1.309 . S
C476 C481 1.304 . S
C476 O514 1.435 . S
C477 C476 1.309 . S
C477 C478 1.476 . S
C477 H541 0.930 . S
C478 C477 1.476 . S
C478 C479 1.400 . S
C478 C482 1.567 . S
C479 C478 1.400 . S
C479 C480 1.373 . S
C479 C501 1.432 . S
C480 C479 1.373 . S
C480 C481 1.339 . S
C480 C483 1.530 . S
C481 C476 1.304 . S
C481 C480 1.339 . S
C481 H542 0.930 . S
C482 C478 1.567 . S
C482 H543 0.961 . S
C482 H544 0.960 . S
C482 H545 0.958 . S
C483 C480 1.530 . S
C483 H546 0.961 . S
C483 H547 0.960 . S
C483 H548 0.960 . S
C484 C485 1.530 . S
C484 H550 0.961 . S
C484 H551 0.961 . S
C484 H552 0.959 . S
C485 C484 1.530 . S
C485 O513 1.412 . S
C485 H549 0.980 . S
C486 C487 1.288 . S
C486 C491 1.377 . S
C486 O513 1.393 . S
C487 C486 1.288 . S
C487 C488 1.369 . S
C487 H553 0.932 . S
C488 C487 1.369 . S
C488 C489 1.398 . S
C488 C492 1.524 1_565 S
C489 C488 1.398 . S
C489 C490 1.380 . S
C489 C503 1.497 1_565 S
C490 C489 1.380 . S
C490 C491 1.383 . S
C490 C493 1.603 . S
C491 C486 1.377 . S
C491 C490 1.383 . S
C491 H554 0.929 . S
C492 C488 1.524 1_545 S
C492 H555 0.961 1_545 S
C492 H556 1.001 . S
C492 H557 0.922 1_545 S
C493 C490 1.603 . S
C493 H558 0.960 . S
C493 H559 0.962 . S
C493 H560 0.961 . S
C494 C461 1.587 . S
C494 C495 1.360 . S
C494 C507 1.412 . S
C495 C494 1.360 . S
C495 C496 1.365 1_565 S
C495 H561 0.929 . S
C496 C471 1.553 . S
C496 C495 1.365 1_545 S
C496 C497 1.404 . S
C497 C496 1.404 . S
C497 C498 1.395 . S
C497 C508 1.451 1_545 S
C498 C497 1.395 . S
C498 C499 1.322 . S
C498 H562 0.930 . S
C499 C498 1.322 . S
C499 C500 1.459 . S
C499 H563 0.929 . S
C500 C499 1.459 . S
C500 C501 1.445 1_556 S
C500 C509 1.395 . S
C501 C479 1.432 . S
C501 C500 1.445 1_554 S
C501 C502 1.370 . S
C502 C501 1.370 . S
C502 C503 1.438 . S
C502 H564 0.930 . S
C503 C489 1.497 1_545 S
C503 C502 1.438 . S
C503 C504 1.360 1_545 S
C504 C503 1.360 1_565 S
C504 C505 1.401 . S
C504 C509 1.446 1_564 S
C505 C504 1.401 . S
C505 C506 1.347 1_554 S
C505 H565 0.929 . S
C506 C505 1.347 1_556 S
C506 C507 1.455 . S
C506 H566 0.930 . S
C507 C494 1.412 . S
C507 C506 1.455 . S
C507 C508 1.331 . S
C508 C497 1.451 1_565 S
C508 C507 1.331 . S
C508 C509 1.497 1_565 S
C509 C500 1.395 . S
C509 C504 1.446 1_546 S
C509 C508 1.497 1_545 S
C510 C511 1.582 . S
C510 H567 0.962 . S
C510 H568 0.959 . S
C510 H569 0.958 . S
C511 C510 1.582 . S
C511 O514 1.458 . S
C511 H540 0.980 . S
O512 C457 1.426 . S
O512 C458 1.334 . S
O513 C485 1.412 . S
O513 C486 1.393 . S
O514 C476 1.435 . S
O514 C511 1.458 . S
O515 C467 1.468 . S
O515 C468 1.408 . S
H516 C457 0.980 . S
H517 C456 0.959 . S
H518 C456 0.959 . S
H519 C456 0.960 . S
H520 C459 0.929 . S
H521 C463 0.929 . S
H522 C464 0.959 . S
H523 C464 0.961 . S
H524 C464 0.961 . S
H525 C465 0.960 . S
H526 C465 0.960 . S
H527 C465 0.961 . S
H528 C467 0.980 . S
H529 C466 0.961 . S
H530 C466 0.960 . S
H531 C466 0.959 . S
H532 C469 0.930 . S
H533 C473 0.931 . S
H534 C474 0.959 . S
H535 C474 0.961 . S
H536 C474 0.959 . S
H537 C475 0.960 . S
H538 C475 0.960 . S
H539 C475 0.960 . S
H540 C511 0.980 . S
H541 C477 0.930 . S
H542 C481 0.930 . S
H543 C482 0.961 . S
H544 C482 0.960 . S
H545 C482 0.958 . S
H546 C483 0.961 . S
H547 C483 0.960 . S
H548 C483 0.960 . S
H549 C485 0.980 . S
H550 C484 0.961 . S
H551 C484 0.961 . S
H552 C484 0.959 . S
H553 C487 0.932 . S
H554 C491 0.929 . S
H555 C492 0.961 1_565 S
H556 C492 1.001 . S
H557 C492 0.922 1_565 S
H558 C493 0.960 . S
H559 C493 0.962 . S
H560 C493 0.961 . S
H561 C495 0.929 . S
H562 C498 0.930 . S
H563 C499 0.929 . S
H564 C502 0.930 . S
H565 C505 0.929 . S
H566 C506 0.930 . S
H567 C510 0.962 . S
H568 C510 0.959 . S
H569 C510 0.958 . S
C570 C571 1.560 . S
C570 H631 0.959 . S
C570 H632 0.959 . S
C570 H633 0.960 . S
C571 C570 1.560 . S
C571 O626 1.426 . S
C571 H630 0.980 . S
C572 C573 1.407 . S
C572 C577 1.418 . S
C572 O626 1.334 . S
C573 C572 1.407 . S
C573 C574 1.360 . S
C573 H634 0.929 . S
C574 C573 1.360 . S
C574 C575 1.401 . S
C574 C578 1.527 . S
C575 C574 1.401 . S
C575 C576 1.405 . S
C575 C608 1.587 . S
C576 C575 1.405 . S
C576 C577 1.332 . S
C576 C579 1.496 . S
C577 C572 1.418 . S
C577 C576 1.332 . S
C577 H635 0.929 . S
C578 C574 1.527 . S
C578 H636 0.959 . S
C578 H637 0.961 . S
C578 H638 0.961 . S
C579 C576 1.496 . S
C579 H639 0.960 . S
C579 H640 0.960 . S
C579 H641 0.961 . S
C580 C581 1.517 . S
C580 H643 0.961 . S
C580 H644 0.960 . S
C580 H645 0.959 . S
C581 C580 1.517 . S
C581 O629 1.468 . S
C581 H642 0.980 . S
C582 C583 1.349 . S
C582 C587 1.367 . S
C582 O629 1.408 . S
C583 C582 1.349 . S
C583 C584 1.407 . S
C583 H646 0.930 . S
C584 C583 1.407 . S
C584 C585 1.449 . S
C584 C588 1.535 . S
C585 C584 1.449 . S
C585 C586 1.384 . S
C585 C610 1.553 . S
C586 C585 1.384 . S
C586 C587 1.364 . S
C586 C589 1.450 . S
C587 C582 1.367 . S
C587 C586 1.364 . S
C587 H647 0.931 . S
C588 C584 1.535 . S
C588 H648 0.959 . S
C588 H649 0.961 . S
C588 H650 0.959 . S
C589 C586 1.450 . S
C589 H651 0.960 . S
C589 H652 0.960 . S
C589 H653 0.960 . S
C590 C591 1.309 . S
C590 C595 1.304 . S
C590 O628 1.435 . S
C591 C590 1.309 . S
C591 C592 1.476 . S
C591 H655 0.930 . S
C592 C591 1.476 . S
C592 C593 1.400 . S
C592 C596 1.567 . S
C593 C592 1.400 . S
C593 C594 1.373 . S
C593 C615 1.432 . S
C594 C593 1.373 . S
C594 C595 1.339 . S
C594 C597 1.530 . S
C595 C590 1.304 . S
C595 C594 1.339 . S
C595 H656 0.930 . S
C596 C592 1.567 . S
C596 H657 0.961 . S
C596 H658 0.960 . S
C596 H659 0.958 . S
C597 C594 1.530 . S
C597 H660 0.961 . S
C597 H661 0.960 . S
C597 H662 0.960 . S
C598 C599 1.530 . S
C598 H664 0.961 . S
C598 H665 0.961 . S
C598 H666 0.959 . S
C599 C598 1.530 . S
C599 O627 1.412 . S
C599 H663 0.980 . S
C600 C601 1.288 . S
C600 C605 1.377 . S
C600 O627 1.393 . S
C601 C600 1.288 . S
C601 C602 1.369 . S
C601 H667 0.932 . S
C602 C601 1.369 . S
C602 C603 1.398 . S
C602 C606 1.527 . S
C603 C602 1.398 . S
C603 C604 1.380 . S
C603 C617 1.497 . S
C604 C603 1.380 . S
C604 C605 1.383 . S
C604 C607 1.603 . S
C605 C600 1.377 . S
C605 C604 1.383 . S
C605 H668 0.929 . S
C606 C602 1.527 . S
C606 H669 0.961 . S
C606 H670 0.959 . S
C606 H671 0.959 . S
C607 C604 1.603 . S
C607 H672 0.960 . S
C607 H673 0.962 . S
C607 H674 0.961 . S
C608 C575 1.587 . S
C608 C609 1.360 . S
C608 C621 1.412 . S
C609 C608 1.360 . S
C609 C610 1.365 . S
C609 H675 0.929 . S
C610 C585 1.553 . S
C610 C609 1.365 . S
C610 C611 1.404 . S
C611 C610 1.404 . S
C611 C612 1.395 . S
C611 C622 1.451 . S
C612 C611 1.395 . S
C612 C613 1.322 . S
C612 H676 0.930 . S
C613 C612 1.322 . S
C613 C614 1.459 . S
C613 H677 0.929 . S
C614 C613 1.459 . S
C614 C615 1.445 . S
C614 C623 1.395 . S
C615 C593 1.432 . S
C615 C614 1.445 . S
C615 C616 1.370 . S
C616 C615 1.370 . S
C616 C617 1.438 . S
C616 H678 0.930 . S
C617 C603 1.497 . S
C617 C616 1.438 . S
C617 C618 1.360 . S
C618 C617 1.360 . S
C618 C619 1.401 . S
C618 C623 1.446 . S
C619 C618 1.401 . S
C619 C620 1.347 . S
C619 H679 0.929 . S
C620 C619 1.347 . S
C620 C621 1.455 . S
C620 H680 0.930 . S
C621 C608 1.412 . S
C621 C620 1.455 . S
C621 C622 1.331 . S
C622 C611 1.451 . S
C622 C621 1.331 . S
C622 C623 1.497 . S
C623 C614 1.395 . S
C623 C618 1.446 . S
C623 C622 1.497 . S
C624 C625 1.582 . S
C624 H681 0.962 . S
C624 H682 0.959 . S
C624 H683 0.958 . S
C625 C624 1.582 . S
C625 O628 1.458 . S
C625 H654 0.980 . S
O626 C571 1.426 . S
O626 C572 1.334 . S
O627 C599 1.412 . S
O627 C600 1.393 . S
O628 C590 1.435 . S
O628 C625 1.458 . S
O629 C581 1.468 . S
O629 C582 1.408 . S
H630 C571 0.980 . S
H631 C570 0.959 . S
H632 C570 0.959 . S
H633 C570 0.960 . S
H634 C573 0.929 . S
H635 C577 0.929 . S
H636 C578 0.959 . S
H637 C578 0.961 . S
H638 C578 0.961 . S
H639 C579 0.960 . S
H640 C579 0.960 . S
H641 C579 0.961 . S
H642 C581 0.980 . S
H643 C580 0.961 . S
H644 C580 0.960 . S
H645 C580 0.959 . S
H646 C583 0.930 . S
H647 C587 0.931 . S
H648 C588 0.959 . S
H649 C588 0.961 . S
H650 C588 0.959 . S
H651 C589 0.960 . S
H652 C589 0.960 . S
H653 C589 0.960 . S
H654 C625 0.980 . S
H655 C591 0.930 . S
H656 C595 0.930 . S
H657 C596 0.961 . S
H658 C596 0.960 . S
H659 C596 0.958 . S
H660 C597 0.961 . S
H661 C597 0.960 . S
H662 C597 0.960 . S
H663 C599 0.980 . S
H664 C598 0.961 . S
H665 C598 0.961 . S
H666 C598 0.959 . S
H667 C601 0.932 . S
H668 C605 0.929 . S
H669 C606 0.961 . S
H670 C606 0.959 . S
H671 C606 0.959 . S
H672 C607 0.960 . S
H673 C607 0.962 . S
H674 C607 0.961 . S
H675 C609 0.929 . S
H676 C612 0.930 . S
H677 C613 0.929 . S
H678 C616 0.930 . S
H679 C619 0.929 . S
H680 C620 0.930 . S
H681 C624 0.962 . S
H682 C624 0.959 . S
H683 C624 0.958 . S
Zn684 O687 2.031 . S
Zn684 O689 2.049 . S
Zn684 O694 2.067 . S
Zn685 O686 1.962 . S
Zn685 O688 1.986 . S
Zn685 O690 1.996 . S
Zn685 O693 1.943 . S
O686 Zn685 1.962 . S
O686 C691 1.254 . S
O687 Zn684 2.031 . S
O687 C691 1.269 . S
O688 Zn685 1.986 . S
O688 C695 1.262 . S
O689 Zn684 2.049 . S
O689 C697 1.260 . S
O690 Zn685 1.996 . S
O690 C697 1.257 . S
C691 O686 1.254 . S
C691 O687 1.269 . S
C692 O693 1.249 . S
C692 O694 1.270 . S
O693 Zn685 1.943 . S
O693 C692 1.249 . S
O694 Zn684 2.067 . S
O694 C692 1.270 . S
C695 O688 1.262 . S
C695 O696 1.232 . S
O696 C695 1.232 . S
C697 O689 1.260 . S
C697 O690 1.257 . S
Zn698 O701 2.031 . S
Zn698 O703 2.049 . S
Zn698 O708 2.067 . S
Zn699 O700 1.962 . S
Zn699 O702 1.986 . S
Zn699 O704 1.996 . S
Zn699 O707 1.943 . S
O700 Zn699 1.962 . S
O700 C705 1.254 . S
O701 Zn698 2.031 . S
O701 C705 1.269 . S
O702 Zn699 1.986 . S
O702 C709 1.262 . S
O703 Zn698 2.049 . S
O703 C711 1.260 . S
O704 Zn699 1.996 . S
O704 C711 1.257 . S
C705 O700 1.254 . S
C705 O701 1.269 . S
C706 O707 1.249 . S
C706 O708 1.270 . S
O707 Zn699 1.943 . S
O707 C706 1.249 . S
O708 Zn698 2.067 . S
O708 C706 1.270 . S
C709 O702 1.262 . S
C709 O710 1.232 . S
O710 C709 1.232 . S
C711 O703 1.260 . S
C711 O704 1.257 . S
Zn712 O715 2.031 . S
Zn712 O717 2.049 . S
Zn712 O722 2.067 . S
Zn713 O714 1.962 . S
Zn713 O716 1.986 . S
Zn713 O718 1.996 . S
Zn713 O721 1.943 . S
O714 Zn713 1.962 . S
O714 C719 1.254 . S
O715 Zn712 2.031 . S
O715 C719 1.269 . S
O716 Zn713 1.986 . S
O716 C723 1.262 . S
O717 Zn712 2.049 . S
O717 C725 1.260 . S
O718 Zn713 1.996 . S
O718 C725 1.257 . S
C719 O714 1.254 . S
C719 O715 1.269 . S
C720 O721 1.249 . S
C720 O722 1.270 . S
O721 Zn713 1.943 . S
O721 C720 1.249 . S
O722 Zn712 2.067 . S
O722 C720 1.270 . S
C723 O716 1.262 . S
C723 O724 1.232 . S
O724 C723 1.232 . S
C725 O717 1.260 . S
C725 O718 1.257 . S
Zn726 O729 2.031 . S
Zn726 O731 2.049 . S
Zn726 O736 2.067 . S
Zn727 O728 1.962 . S
Zn727 O730 1.986 . S
Zn727 O732 1.996 . S
Zn727 O735 1.943 . S
O728 Zn727 1.962 . S
O728 C733 1.254 . S
O729 Zn726 2.031 . S
O729 C733 1.269 . S
O730 Zn727 1.986 . S
O730 C737 1.262 . S
O731 Zn726 2.049 . S
O731 C739 1.260 . S
O732 Zn727 1.996 . S
O732 C739 1.257 . S
C733 O728 1.254 . S
C733 O729 1.269 . S
C734 O735 1.249 . S
C734 O736 1.270 . S
O735 Zn727 1.943 . S
O735 C734 1.249 . S
O736 Zn726 2.067 . S
O736 C734 1.270 . S
C737 O730 1.262 . S
C737 O738 1.232 . S
O738 C737 1.232 . S
C739 O731 1.260 . S
C739 O732 1.257 . S
Zn740 O743 2.031 . S
Zn740 O745 2.049 . S
Zn740 O750 2.067 . S
Zn741 O742 1.962 . S
Zn741 O744 1.986 . S
Zn741 O746 1.996 . S
Zn741 O749 1.943 . S
O742 Zn741 1.962 . S
O742 C747 1.254 . S
O743 Zn740 2.031 . S
O743 C747 1.269 . S
O744 Zn741 1.986 . S
O744 C751 1.262 . S
O745 Zn740 2.049 . S
O745 C753 1.260 . S
O746 Zn741 1.996 . S
O746 C753 1.257 . S
C747 O742 1.254 . S
C747 O743 1.269 . S
C748 O749 1.249 . S
C748 O750 1.270 . S
O749 Zn741 1.943 . S
O749 C748 1.249 . S
O750 Zn740 2.067 . S
O750 C748 1.270 . S
C751 O744 1.262 . S
C751 O752 1.232 . S
O752 C751 1.232 . S
C753 O745 1.260 . S
C753 O746 1.257 . S
Zn754 O757 2.031 . S
Zn754 O759 2.049 . S
Zn754 O764 2.067 . S
Zn755 O756 1.962 . S
Zn755 O758 1.986 . S
Zn755 O760 1.996 . S
Zn755 O763 1.943 . S
O756 Zn755 1.962 . S
O756 C761 1.254 . S
O757 Zn754 2.031 . S
O757 C761 1.269 . S
O758 Zn755 1.986 . S
O758 C765 1.262 . S
O759 Zn754 2.049 . S
O759 C767 1.260 . S
O760 Zn755 1.996 . S
O760 C767 1.257 . S
C761 O756 1.254 . S
C761 O757 1.269 . S
C762 O763 1.249 . S
C762 O764 1.270 . S
O763 Zn755 1.943 . S
O763 C762 1.249 . S
O764 Zn754 2.067 . S
O764 C762 1.270 . S
C765 O758 1.262 . S
C765 O766 1.232 . S
O766 C765 1.232 . S
C767 O759 1.260 . S
C767 O760 1.257 . S
H768 C776 0.950 . S
H769 C781 0.950 . S
H770 C778 0.950 . S
H771 C780 0.950 . S
H772 C782 0.950 . S
H773 C784 0.950 . S
H774 C786 0.950 . S
H775 C787 0.950 . S
C776 H768 0.950 . S
C776 C777 1.386 . S
C776 C778 1.391 . S
C777 C776 1.386 . S
C777 C781 1.393 . S
C778 H770 0.950 . S
C778 C776 1.391 . S
C778 C779 1.400 . S
C779 C778 1.400 . S
C779 C780 1.398 . S
C779 C785 1.491 . S
C780 H771 0.950 . S
C780 C779 1.398 . S
C780 C781 1.391 . S
C781 H769 0.950 . S
C781 C777 1.393 . S
C781 C780 1.391 . S
C782 H772 0.950 . S
C782 C783 1.386 . S
C782 C784 1.391 . S
C783 C782 1.386 . S
C783 C787 1.393 . S
C784 H773 0.950 . S
C784 C782 1.391 . S
C784 C785 1.400 . S
C785 C779 1.491 . S
C785 C784 1.400 . S
C785 C786 1.398 . S
C786 H774 0.950 . S
C786 C785 1.398 . S
C786 C787 1.391 . S
C787 H775 0.950 . S
C787 C783 1.393 . S
C787 C786 1.391 . S
H788 C796 0.950 . S
H789 C801 0.950 . S
H790 C798 0.950 . S
H791 C800 0.950 . S
H792 C802 0.950 . S
H793 C804 0.950 . S
H794 C806 0.950 . S
H795 C807 0.950 . S
C796 H788 0.950 . S
C796 C797 1.386 . S
C796 C798 1.391 . S
C797 C796 1.386 . S
C797 C801 1.393 . S
C798 H790 0.950 . S
C798 C796 1.391 . S
C798 C799 1.400 . S
C799 C798 1.400 . S
C799 C800 1.398 . S
C799 C805 1.491 . S
C800 H791 0.950 . S
C800 C799 1.398 . S
C800 C801 1.391 . S
C801 H789 0.950 . S
C801 C797 1.393 . S
C801 C800 1.391 . S
C802 H792 0.950 . S
C802 C803 1.386 . S
C802 C804 1.391 . S
C803 C802 1.386 . S
C803 C807 1.393 . S
C804 H793 0.950 . S
C804 C802 1.391 . S
C804 C805 1.400 . S
C805 C799 1.491 . S
C805 C804 1.400 . S
C805 C806 1.398 . S
C806 H794 0.950 . S
C806 C805 1.398 . S
C806 C807 1.391 . S
C807 H795 0.950 . S
C807 C803 1.393 . S
C807 C806 1.391 . S
H808 C816 0.950 . S
H809 C821 0.950 . S
H810 C818 0.950 . S
H811 C820 0.950 . S
H812 C822 0.950 . S
H813 C824 0.950 . S
H814 C826 0.950 . S
H815 C827 0.950 . S
C816 H808 0.950 . S
C816 C817 1.386 . S
C816 C818 1.391 . S
C817 C816 1.386 . S
C817 C821 1.393 . S
C818 H810 0.950 . S
C818 C816 1.391 . S
C818 C819 1.400 . S
C819 C818 1.400 . S
C819 C820 1.398 . S
C819 C825 1.491 . S
C820 H811 0.950 . S
C820 C819 1.398 . S
C820 C821 1.391 . S
C821 H809 0.950 . S
C821 C817 1.393 . S
C821 C820 1.391 . S
C822 H812 0.950 . S
C822 C823 1.386 . S
C822 C824 1.391 . S
C823 C822 1.386 . S
C823 C827 1.393 . S
C824 H813 0.950 . S
C824 C822 1.391 . S
C824 C825 1.400 . S
C825 C819 1.491 . S
C825 C824 1.400 . S
C825 C826 1.398 . S
C826 H814 0.950 . S
C826 C825 1.398 . S
C826 C827 1.391 . S
C827 H815 0.950 . S
C827 C823 1.393 . S
C827 C826 1.391 . S
H828 C836 0.950 . S
H829 C841 0.950 . S
H830 C838 0.950 . S
H831 C840 0.950 . S
H832 C842 0.950 . S
H833 C844 0.950 . S
H834 C846 0.950 . S
H835 C847 0.950 . S
C836 H828 0.950 . S
C836 C837 1.386 . S
C836 C838 1.391 . S
C837 C836 1.386 . S
C837 C841 1.393 . S
C838 H830 0.950 . S
C838 C836 1.391 . S
C838 C839 1.400 . S
C839 C838 1.400 . S
C839 C840 1.398 . S
C839 C845 1.491 . S
C840 H831 0.950 . S
C840 C839 1.398 . S
C840 C841 1.391 . S
C841 H829 0.950 . S
C841 C837 1.393 . S
C841 C840 1.391 . S
C842 H832 0.950 . S
C842 C843 1.386 . S
C842 C844 1.391 . S
C843 C842 1.386 . S
C843 C847 1.393 . S
C844 H833 0.950 . S
C844 C842 1.391 . S
C844 C845 1.400 . S
C845 C839 1.491 . S
C845 C844 1.400 . S
C845 C846 1.398 . S
C846 H834 0.950 . S
C846 C845 1.398 . S
C846 C847 1.391 . S
C847 H835 0.950 . S
C847 C843 1.393 . S
C847 C846 1.391 . S
H848 C856 0.950 . S
H849 C861 0.950 . S
H850 C858 0.950 . S
H851 C860 0.950 . S
H852 C862 0.950 . S
H853 C864 0.950 . S
H854 C866 0.950 . S
H855 C867 0.950 . S
C856 H848 0.950 . S
C856 C857 1.386 . S
C856 C858 1.391 . S
C857 C856 1.386 . S
C857 C861 1.393 . S
C858 H850 0.950 . S
C858 C856 1.391 . S
C858 C859 1.400 . S
C859 C858 1.400 . S
C859 C860 1.398 . S
C859 C865 1.491 . S
C860 H851 0.950 . S
C860 C859 1.398 . S
C860 C861 1.391 . S
C861 H849 0.950 . S
C861 C857 1.393 . S
C861 C860 1.391 . S
C862 H852 0.950 . S
C862 C863 1.386 . S
C862 C864 1.391 . S
C863 C862 1.386 . S
C863 C867 1.393 . S
C864 H853 0.950 . S
C864 C862 1.391 . S
C864 C865 1.400 . S
C865 C859 1.491 . S
C865 C864 1.400 . S
C865 C866 1.398 . S
C866 H854 0.950 . S
C866 C865 1.398 . S
C866 C867 1.391 . S
C867 H855 0.950 . S
C867 C863 1.393 . S
C867 C866 1.391 . S
H868 C876 0.950 . S
H869 C881 0.950 . S
H870 C878 0.950 . S
H871 C880 0.950 . S
H872 C882 0.950 . S
H873 C884 0.950 . S
H874 C886 0.950 . S
H875 C887 0.950 . S
C876 H868 0.950 . S
C876 C877 1.386 . S
C876 C878 1.391 . S
C877 C876 1.386 . S
C877 C881 1.393 . S
C878 H870 0.950 . S
C878 C876 1.391 . S
C878 C879 1.400 . S
C879 C878 1.400 . S
C879 C880 1.398 . S
C879 C885 1.491 . S
C880 H871 0.950 . S
C880 C879 1.398 . S
C880 C881 1.391 . S
C881 H869 0.950 . S
C881 C877 1.393 . S
C881 C880 1.391 . S
C882 H872 0.950 . S
C882 C883 1.386 . S
C882 C884 1.391 . S
C883 C882 1.386 . S
C883 C887 1.393 . S
C884 H873 0.950 . S
C884 C882 1.391 . S
C884 C885 1.400 . S
C885 C879 1.491 . S
C885 C884 1.400 . S
C885 C886 1.398 . S
C886 H874 0.950 . S
C886 C885 1.398 . S
C886 C887 1.391 . S
C887 H875 0.950 . S
C887 C883 1.393 . S
C887 C886 1.391 . S
H888 C896 0.950 . S
H889 C901 0.950 . S
H890 C898 0.950 . S
H891 C900 0.950 . S
H892 C902 0.950 . S
H893 C904 0.950 . S
H894 C906 0.950 . S
H895 C907 0.950 . S
C896 H888 0.950 . S
C896 C897 1.386 . S
C896 C898 1.391 . S
C897 C896 1.386 . S
C897 C901 1.393 . S
C898 H890 0.950 . S
C898 C896 1.391 . S
C898 C899 1.400 . S
C899 C898 1.400 . S
C899 C900 1.398 . S
C899 C905 1.491 . S
C900 H891 0.950 . S
C900 C899 1.398 . S
C900 C901 1.391 . S
C901 H889 0.950 . S
C901 C897 1.393 . S
C901 C900 1.391 . S
C902 H892 0.950 . S
C902 C903 1.386 . S
C902 C904 1.391 . S
C903 C902 1.386 . S
C903 C907 1.393 . S
C904 H893 0.950 . S
C904 C902 1.391 . S
C904 C905 1.400 . S
C905 C899 1.491 . S
C905 C904 1.400 . S
C905 C906 1.398 . S
C906 H894 0.950 . S
C906 C905 1.398 . S
C906 C907 1.391 . S
C907 H895 0.950 . S
C907 C903 1.393 . S
C907 C906 1.391 . S
H908 C916 0.950 . S
H909 C921 0.950 . S
H910 C918 0.950 . S
H911 C920 0.950 . S
H912 C922 0.950 . S
H913 C924 0.950 . S
H914 C926 0.950 . S
H915 C927 0.950 . S
C916 H908 0.950 . S
C916 C917 1.386 . S
C916 C918 1.391 . S
C917 C916 1.386 . S
C917 C921 1.393 . S
C918 H910 0.950 . S
C918 C916 1.391 . S
C918 C919 1.400 . S
C919 C918 1.400 . S
C919 C920 1.398 . S
C919 C925 1.491 . S
C920 H911 0.950 . S
C920 C919 1.398 . S
C920 C921 1.391 . S
C921 H909 0.950 . S
C921 C917 1.393 . S
C921 C920 1.391 . S
C922 H912 0.950 . S
C922 C923 1.386 . S
C922 C924 1.391 . S
C923 C922 1.386 . S
C923 C927 1.393 . S
C924 H913 0.950 . S
C924 C922 1.391 . S
C924 C925 1.400 . S
C925 C919 1.491 . S
C925 C924 1.400 . S
C925 C926 1.398 . S
C926 H914 0.950 . S
C926 C925 1.398 . S
C926 C927 1.391 . S
C927 H915 0.950 . S
C927 C923 1.393 . S
C927 C926 1.391 . S
H928 C936 0.950 . S
H929 C941 0.950 . S
H930 C938 0.950 . S
H931 C940 0.950 . S
H932 C942 0.950 . S
H933 C944 0.950 . S
H934 C946 0.950 . S
H935 C947 0.950 . S
C936 H928 0.950 . S
C936 C937 1.386 . S
C936 C938 1.391 . S
C937 C936 1.386 . S
C937 C941 1.393 . S
C938 H930 0.950 . S
C938 C936 1.391 . S
C938 C939 1.400 . S
C939 C938 1.400 . S
C939 C940 1.398 . S
C939 C945 1.491 . S
C940 H931 0.950 . S
C940 C939 1.398 . S
C940 C941 1.391 . S
C941 H929 0.950 . S
C941 C937 1.393 . S
C941 C940 1.391 . S
C942 H932 0.950 . S
C942 C943 1.386 . S
C942 C944 1.391 . S
C943 C942 1.386 . S
C943 C947 1.393 . S
C944 H933 0.950 . S
C944 C942 1.391 . S
C944 C945 1.400 . S
C945 C939 1.491 . S
C945 C944 1.400 . S
C945 C946 1.398 . S
C946 H934 0.950 . S
C946 C945 1.398 . S
C946 C947 1.391 . S
C947 H935 0.950 . S
C947 C943 1.393 . S
C947 C946 1.391 . S
H948 C956 0.950 . S
H949 C961 0.950 . S
H950 C958 0.950 . S
H951 C960 0.950 . S
H952 C962 0.950 . S
H953 C964 0.950 . S
H954 C966 0.950 . S
H955 C967 0.950 . S
C956 H948 0.950 . S
C956 C957 1.386 . S
C956 C958 1.391 . S
C957 C956 1.386 . S
C957 C961 1.393 . S
C958 H950 0.950 . S
C958 C956 1.391 . S
C958 C959 1.400 . S
C959 C958 1.400 . S
C959 C960 1.398 . S
C959 C965 1.491 . S
C960 H951 0.950 . S
C960 C959 1.398 . S
C960 C961 1.391 . S
C961 H949 0.950 . S
C961 C957 1.393 . S
C961 C960 1.391 . S
C962 H952 0.950 . S
C962 C963 1.386 . S
C962 C964 1.391 . S
C963 C962 1.386 . S
C963 C967 1.393 . S
C964 H953 0.950 . S
C964 C962 1.391 . S
C964 C965 1.400 . S
C965 C959 1.491 . S
C965 C964 1.400 . S
C965 C966 1.398 . S
C966 H954 0.950 . S
C966 C965 1.398 . S
C966 C967 1.391 . S
C967 H955 0.950 . S
C967 C963 1.393 . S
C967 C966 1.391 . S
H968 C976 0.950 . S
H969 C981 0.950 . S
H970 C978 0.950 . S
H971 C980 0.950 . S
H972 C982 0.950 . S
H973 C984 0.950 . S
H974 C986 0.950 . S
H975 C987 0.950 . S
C976 H968 0.950 . S
C976 C977 1.386 . S
C976 C978 1.391 . S
C977 C976 1.386 . S
C977 C981 1.393 . S
C978 H970 0.950 . S
C978 C976 1.391 . S
C978 C979 1.400 . S
C979 C978 1.400 . S
C979 C980 1.398 . S
C979 C985 1.491 . S
C980 H971 0.950 . S
C980 C979 1.398 . S
C980 C981 1.391 . S
C981 H969 0.950 . S
C981 C977 1.393 . S
C981 C980 1.391 . S
C982 H972 0.950 . S
C982 C983 1.386 . S
C982 C984 1.391 . S
C983 C982 1.386 . S
C983 C987 1.393 . S
C984 H973 0.950 . S
C984 C982 1.391 . S
C984 C985 1.400 . S
C985 C979 1.491 . S
C985 C984 1.400 . S
C985 C986 1.398 . S
C986 H974 0.950 . S
C986 C985 1.398 . S
C986 C987 1.391 . S
C987 H975 0.950 . S
C987 C983 1.393 . S
C987 C986 1.391 . S
H988 C996 0.950 . S
H989 C1001 0.950 . S
H990 C998 0.950 . S
H991 C1000 0.950 . S
H992 C1002 0.950 . S
H993 C1004 0.950 . S
H994 C1006 0.950 . S
H995 C1007 0.950 . S
C996 H988 0.950 . S
C996 C997 1.386 . S
C996 C998 1.391 . S
C997 C996 1.386 . S
C997 C1001 1.393 . S
C998 H990 0.950 . S
C998 C996 1.391 . S
C998 C999 1.400 . S
C999 C998 1.400 . S
C999 C1000 1.398 . S
C999 C1005 1.491 . S
C1000 H991 0.950 . S
C1000 C999 1.398 . S
C1000 C1001 1.391 . S
C1001 H989 0.950 . S
C1001 C997 1.393 . S
C1001 C1000 1.391 . S
C1002 H992 0.950 . S
C1002 C1003 1.386 . S
C1002 C1004 1.391 . S
C1003 C1002 1.386 . S
C1003 C1007 1.393 . S
C1004 H993 0.950 . S
C1004 C1002 1.391 . S
C1004 C1005 1.400 . S
C1005 C999 1.491 . S
C1005 C1004 1.400 . S
C1005 C1006 1.398 . S
C1006 H994 0.950 . S
C1006 C1005 1.398 . S
C1006 C1007 1.391 . S
C1007 H995 0.950 . S
C1007 C1003 1.393 . S
C1007 C1006 1.391 . S
H1008 C1016 0.950 . S
H1009 C1021 0.950 . S
H1010 C1018 0.950 . S
H1011 C1020 0.950 . S
H1012 C1022 0.950 . S
H1013 C1024 0.950 . S
H1014 C1026 0.950 . S
H1015 C1027 0.950 . S
C1016 H1008 0.950 . S
C1016 C1017 1.386 . S
C1016 C1018 1.391 . S
C1017 C1016 1.386 . S
C1017 C1021 1.393 . S
C1018 H1010 0.950 . S
C1018 C1016 1.391 . S
C1018 C1019 1.400 . S
C1019 C1018 1.400 . S
C1019 C1020 1.398 . S
C1019 C1025 1.491 . S
C1020 H1011 0.950 . S
C1020 C1019 1.398 . S
C1020 C1021 1.391 . S
C1021 H1009 0.950 . S
C1021 C1017 1.393 . S
C1021 C1020 1.391 . S
C1022 H1012 0.950 . S
C1022 C1023 1.386 . S
C1022 C1024 1.391 . S
C1023 C1022 1.386 . S
C1023 C1027 1.393 . S
C1024 H1013 0.950 . S
C1024 C1022 1.391 . S
C1024 C1025 1.400 . S
C1025 C1019 1.491 . S
C1025 C1024 1.400 . S
C1025 C1026 1.398 . S
C1026 H1014 0.950 . S
C1026 C1025 1.398 . S
C1026 C1027 1.391 . S
C1027 H1015 0.950 . S
C1027 C1023 1.393 . S
C1027 C1026 1.391 . S
H1028 C1036 0.950 . S
H1029 C1041 0.950 . S
H1030 C1038 0.950 . S
H1031 C1040 0.950 . S
H1032 C1042 0.950 . S
H1033 C1044 0.950 . S
H1034 C1046 0.950 . S
H1035 C1047 0.950 . S
C1036 H1028 0.950 . S
C1036 C1037 1.386 . S
C1036 C1038 1.391 . S
C1037 C1036 1.386 . S
C1037 C1041 1.393 . S
C1038 H1030 0.950 . S
C1038 C1036 1.391 . S
C1038 C1039 1.400 . S
C1039 C1038 1.400 . S
C1039 C1040 1.398 . S
C1039 C1045 1.491 . S
C1040 H1031 0.950 . S
C1040 C1039 1.398 . S
C1040 C1041 1.391 . S
C1041 H1029 0.950 . S
C1041 C1037 1.393 . S
C1041 C1040 1.391 . S
C1042 H1032 0.950 . S
C1042 C1043 1.386 . S
C1042 C1044 1.391 . S
C1043 C1042 1.386 . S
C1043 C1047 1.393 . S
C1044 H1033 0.950 . S
C1044 C1042 1.391 . S
C1044 C1045 1.400 . S
C1045 C1039 1.491 . S
C1045 C1044 1.400 . S
C1045 C1046 1.398 . S
C1046 H1034 0.950 . S
C1046 C1045 1.398 . S
C1046 C1047 1.391 . S
C1047 H1035 0.950 . S
C1047 C1043 1.393 . S
C1047 C1046 1.391 . S
H1048 C1056 0.950 . S
H1049 C1061 0.950 . S
H1050 C1058 0.950 . S
H1051 C1060 0.950 . S
H1052 C1062 0.950 . S
H1053 C1064 0.950 . S
H1054 C1066 0.950 . S
H1055 C1067 0.950 . S
C1056 H1048 0.950 . S
C1056 C1057 1.386 . S
C1056 C1058 1.391 . S
C1057 C1056 1.386 . S
C1057 C1061 1.393 . S
C1058 H1050 0.950 . S
C1058 C1056 1.391 . S
C1058 C1059 1.400 . S
C1059 C1058 1.400 . S
C1059 C1060 1.398 . S
C1059 C1065 1.491 . S
C1060 H1051 0.950 . S
C1060 C1059 1.398 . S
C1060 C1061 1.391 . S
C1061 H1049 0.950 . S
C1061 C1057 1.393 . S
C1061 C1060 1.391 . S
C1062 H1052 0.950 . S
C1062 C1063 1.386 . S
C1062 C1064 1.391 . S
C1063 C1062 1.386 . S
C1063 C1067 1.393 . S
C1064 H1053 0.950 . S
C1064 C1062 1.391 . S
C1064 C1065 1.400 . S
C1065 C1059 1.491 . S
C1065 C1064 1.400 . S
C1065 C1066 1.398 . S
C1066 H1054 0.950 . S
C1066 C1065 1.398 . S
C1066 C1067 1.391 . S
C1067 H1055 0.950 . S
C1067 C1063 1.393 . S
C1067 C1066 1.391 . S
H1068 C1076 0.950 . S
H1069 C1081 0.950 . S
H1070 C1078 0.950 . S
H1071 C1080 0.950 . S
H1072 C1082 0.950 . S
H1073 C1084 0.950 . S
H1074 C1086 0.950 . S
H1075 C1087 0.950 . S
C1076 H1068 0.950 . S
C1076 C1077 1.386 . S
C1076 C1078 1.391 . S
C1077 C1076 1.386 . S
C1077 C1081 1.393 . S
C1078 H1070 0.950 . S
C1078 C1076 1.391 . S
C1078 C1079 1.400 . S
C1079 C1078 1.400 . S
C1079 C1080 1.398 . S
C1079 C1085 1.491 . S
C1080 H1071 0.950 . S
C1080 C1079 1.398 . S
C1080 C1081 1.391 . S
C1081 H1069 0.950 . S
C1081 C1077 1.393 . S
C1081 C1080 1.391 . S
C1082 H1072 0.950 . S
C1082 C1083 1.386 . S
C1082 C1084 1.391 1_554 S
C1083 C1082 1.386 . S
C1083 C1087 1.393 . S
C1084 H1073 0.950 . S
C1084 C1082 1.391 1_556 S
C1084 C1085 1.400 . S
C1085 C1079 1.491 . S
C1085 C1084 1.400 . S
C1085 C1086 1.398 1_556 S
C1086 H1074 0.950 . S
C1086 C1085 1.398 1_554 S
C1086 C1087 1.391 . S
C1087 H1075 0.950 . S
C1087 C1083 1.393 . S
C1087 C1086 1.391 . S
H1088 C1096 0.950 . S
H1089 C1101 0.950 . S
H1090 C1098 0.950 . S
H1091 C1100 0.950 . S
H1092 C1102 0.950 . S
H1093 C1104 0.950 . S
H1094 C1106 0.950 . S
H1095 C1107 0.950 . S
C1096 H1088 0.950 . S
C1096 C1097 1.386 . S
C1096 C1098 1.391 . S
C1097 C1096 1.386 . S
C1097 C1101 1.393 . S
C1098 H1090 0.950 . S
C1098 C1096 1.391 . S
C1098 C1099 1.400 . S
C1099 C1098 1.400 . S
C1099 C1100 1.398 . S
C1099 C1105 1.491 . S
C1100 H1091 0.950 . S
C1100 C1099 1.398 . S
C1100 C1101 1.391 . S
C1101 H1089 0.950 . S
C1101 C1097 1.393 . S
C1101 C1100 1.391 . S
C1102 H1092 0.950 . S
C1102 C1103 1.386 . S
C1102 C1104 1.391 . S
C1103 C1102 1.386 . S
C1103 C1107 1.393 . S
C1104 H1093 0.950 . S
C1104 C1102 1.391 . S
C1104 C1105 1.400 . S
C1105 C1099 1.491 . S
C1105 C1104 1.400 . S
C1105 C1106 1.398 . S
C1106 H1094 0.950 . S
C1106 C1105 1.398 . S
C1106 C1107 1.391 . S
C1107 H1095 0.950 . S
C1107 C1103 1.393 . S
C1107 C1106 1.391 . S
H1108 C1116 0.950 . S
H1109 C1121 0.950 . S
H1110 C1118 0.950 . S
H1111 C1120 0.950 . S
H1112 C1122 0.950 . S
H1113 C1124 0.950 . S
H1114 C1126 0.950 . S
H1115 C1127 0.950 . S
C1116 H1108 0.950 . S
C1116 C1117 1.386 . S
C1116 C1118 1.391 . S
C1117 C1116 1.386 . S
C1117 C1121 1.393 . S
C1118 H1110 0.950 . S
C1118 C1116 1.391 . S
C1118 C1119 1.400 . S
C1119 C1118 1.400 . S
C1119 C1120 1.398 . S
C1119 C1125 1.491 . S
C1120 H1111 0.950 . S
C1120 C1119 1.398 . S
C1120 C1121 1.391 . S
C1121 H1109 0.950 . S
C1121 C1117 1.393 . S
C1121 C1120 1.391 . S
C1122 H1112 0.950 . S
C1122 C1123 1.386 . S
C1122 C1124 1.391 . S
C1123 C1122 1.386 . S
C1123 C1127 1.393 . S
C1124 H1113 0.950 . S
C1124 C1122 1.391 . S
C1124 C1125 1.400 . S
C1125 C1119 1.491 . S
C1125 C1124 1.400 . S
C1125 C1126 1.398 . S
C1126 H1114 0.950 . S
C1126 C1125 1.398 . S
C1126 C1127 1.391 . S
C1127 H1115 0.950 . S
C1127 C1123 1.393 . S
C1127 C1126 1.391 . S
H1128 C1136 0.950 . S
H1129 C1141 0.950 . S
H1130 C1138 0.950 . S
H1131 C1140 0.950 . S
H1132 C1142 0.950 . S
H1133 C1144 0.950 . S
H1134 C1146 0.950 . S
H1135 C1147 0.950 . S
C1136 H1128 0.950 . S
C1136 C1137 1.386 . S
C1136 C1138 1.391 . S
C1137 C1136 1.386 . S
C1137 C1141 1.393 . S
C1138 H1130 0.950 . S
C1138 C1136 1.391 . S
C1138 C1139 1.400 . S
C1139 C1138 1.400 . S
C1139 C1140 1.398 . S
C1139 C1145 1.491 . S
C1140 H1131 0.950 . S
C1140 C1139 1.398 . S
C1140 C1141 1.391 . S
C1141 H1129 0.950 . S
C1141 C1137 1.393 . S
C1141 C1140 1.391 . S
C1142 H1132 0.950 . S
C1142 C1143 1.386 . S
C1142 C1144 1.391 . S
C1143 C1142 1.386 . S
C1143 C1147 1.393 . S
C1144 H1133 0.950 . S
C1144 C1142 1.391 . S
C1144 C1145 1.400 . S
C1145 C1139 1.491 . S
C1145 C1144 1.400 . S
C1145 C1146 1.398 . S
C1146 H1134 0.950 . S
C1146 C1145 1.398 . S
C1146 C1147 1.391 . S
C1147 H1135 0.950 . S
C1147 C1143 1.393 . S
C1147 C1146 1.391 . S
H1148 C1156 0.950 . S
H1149 C1161 0.950 . S
H1150 C1158 0.950 . S
H1151 C1160 0.950 . S
H1152 C1162 0.950 . S
H1153 C1164 0.950 . S
H1154 C1166 0.950 . S
H1155 C1167 0.950 . S
C1156 H1148 0.950 . S
C1156 C1157 1.386 . S
C1156 C1158 1.391 . S
C1157 C1156 1.386 . S
C1157 C1161 1.393 . S
C1158 H1150 0.950 . S
C1158 C1156 1.391 . S
C1158 C1159 1.400 . S
C1159 C1158 1.400 . S
C1159 C1160 1.398 . S
C1159 C1165 1.491 . S
C1160 H1151 0.950 . S
C1160 C1159 1.398 . S
C1160 C1161 1.391 . S
C1161 H1149 0.950 . S
C1161 C1157 1.393 . S
C1161 C1160 1.391 . S
C1162 H1152 0.950 . S
C1162 C1163 1.386 . S
C1162 C1164 1.391 . S
C1163 C1162 1.386 . S
C1163 C1167 1.393 . S
C1164 H1153 0.950 . S
C1164 C1162 1.391 . S
C1164 C1165 1.400 . S
C1165 C1159 1.491 . S
C1165 C1164 1.400 . S
C1165 C1166 1.398 . S
C1166 H1154 0.950 . S
C1166 C1165 1.398 . S
C1166 C1167 1.391 . S
C1167 H1155 0.950 . S
C1167 C1163 1.393 . S
C1167 C1166 1.391 . S
H1168 C1176 0.950 . S
H1169 C1181 0.950 . S
H1170 C1178 0.950 . S
H1171 C1180 0.950 . S
H1172 C1182 0.950 . S
H1173 C1184 0.950 . S
H1174 C1186 0.950 . S
H1175 C1187 0.950 . S
C1176 H1168 0.950 . S
C1176 C1177 1.386 . S
C1176 C1178 1.391 . S
C1177 C1176 1.386 . S
C1177 C1181 1.393 . S
C1178 H1170 0.950 . S
C1178 C1176 1.391 . S
C1178 C1179 1.400 . S
C1179 C1178 1.400 . S
C1179 C1180 1.398 . S
C1179 C1185 1.491 . S
C1180 H1171 0.950 . S
C1180 C1179 1.398 . S
C1180 C1181 1.391 . S
C1181 H1169 0.950 . S
C1181 C1177 1.393 . S
C1181 C1180 1.391 . S
C1182 H1172 0.950 . S
C1182 C1183 1.386 . S
C1182 C1184 1.391 . S
C1183 C1182 1.386 . S
C1183 C1187 1.393 . S
C1184 H1173 0.950 . S
C1184 C1182 1.391 . S
C1184 C1185 1.400 . S
C1185 C1179 1.491 . S
C1185 C1184 1.400 . S
C1185 C1186 1.398 . S
C1186 H1174 0.950 . S
C1186 C1185 1.398 . S
C1186 C1187 1.391 . S
C1187 H1175 0.950 . S
C1187 C1183 1.393 . S
C1187 C1186 1.391 . S
H1188 C1196 0.950 . S
H1189 C1201 0.950 . S
H1190 C1198 0.950 . S
H1191 C1200 0.950 . S
H1192 C1202 0.950 . S
H1193 C1204 0.950 . S
H1194 C1206 0.950 . S
H1195 C1207 0.950 . S
C1196 H1188 0.950 . S
C1196 C1197 1.386 . S
C1196 C1198 1.391 . S
C1197 C1196 1.386 . S
C1197 C1201 1.393 . S
C1198 H1190 0.950 . S
C1198 C1196 1.391 . S
C1198 C1199 1.400 . S
C1199 C1198 1.400 . S
C1199 C1200 1.398 . S
C1199 C1205 1.491 . S
C1200 H1191 0.950 . S
C1200 C1199 1.398 . S
C1200 C1201 1.391 . S
C1201 H1189 0.950 . S
C1201 C1197 1.393 . S
C1201 C1200 1.391 . S
C1202 H1192 0.950 . S
C1202 C1203 1.386 . S
C1202 C1204 1.391 . S
C1203 C1202 1.386 . S
C1203 C1207 1.393 . S
C1204 H1193 0.950 . S
C1204 C1202 1.391 . S
C1204 C1205 1.400 . S
C1205 C1199 1.491 . S
C1205 C1204 1.400 . S
C1205 C1206 1.398 . S
C1206 H1194 0.950 . S
C1206 C1205 1.398 . S
C1206 C1207 1.391 . S
C1207 H1195 0.950 . S
C1207 C1203 1.393 . S
C1207 C1206 1.391 . S
H1208 C1216 0.950 . S
H1209 C1221 0.950 . S
H1210 C1218 0.950 . S
H1211 C1220 0.950 1_556 S
H1212 C1222 0.950 . S
H1213 C1224 0.950 . S
H1214 C1226 0.963 . S
H1215 C1227 0.950 . S
C1216 H1208 0.950 . S
C1216 C1217 1.386 . S
C1216 C1218 1.391 . S
C1217 C1216 1.386 . S
C1217 C1221 1.393 . S
C1218 H1210 0.950 . S
C1218 C1216 1.391 . S
C1218 C1219 1.400 . S
C1219 C1218 1.400 . S
C1219 C1220 1.398 . S
C1219 C1225 1.491 1_554 S
C1220 H1211 0.950 1_554 S
C1220 C1219 1.398 . S
C1220 C1221 1.391 . S
C1221 H1209 0.950 . S
C1221 C1217 1.393 . S
C1221 C1220 1.391 . S
C1222 H1212 0.950 . S
C1222 C1223 1.386 . S
C1222 C1224 1.391 . S
C1223 C1222 1.386 . S
C1223 C1227 1.393 . S
C1224 H1213 0.950 . S
C1224 C1222 1.391 . S
C1224 C1225 1.400 . S
C1225 C1219 1.491 1_556 S
C1225 C1224 1.400 . S
C1225 C1226 1.398 . S
C1226 H1214 0.963 . S
C1226 C1225 1.398 . S
C1226 C1227 1.391 . S
C1227 H1215 0.950 . S
C1227 C1223 1.393 . S
C1227 C1226 1.391 . S
H1228 C1236 0.950 . S
H1229 C1241 0.950 . S
H1230 C1238 0.950 . S
H1231 C1240 0.950 . S
H1232 C1242 0.950 . S
H1233 C1244 0.950 . S
H1234 C1246 0.950 . S
H1235 C1247 0.950 . S
C1236 H1228 0.950 . S
C1236 C1237 1.386 . S
C1236 C1238 1.391 . S
C1237 C1236 1.386 . S
C1237 C1241 1.393 . S
C1238 H1230 0.950 . S
C1238 C1236 1.391 . S
C1238 C1239 1.400 . S
C1239 C1238 1.400 . S
C1239 C1240 1.398 . S
C1239 C1245 1.491 . S
C1240 H1231 0.950 . S
C1240 C1239 1.398 . S
C1240 C1241 1.391 . S
C1241 H1229 0.950 . S
C1241 C1237 1.393 . S
C1241 C1240 1.391 . S
C1242 H1232 0.950 . S
C1242 C1243 1.386 . S
C1242 C1244 1.391 . S
C1243 C1242 1.386 . S
C1243 C1247 1.393 . S
C1244 H1233 0.950 . S
C1244 C1242 1.391 . S
C1244 C1245 1.400 . S
C1245 C1239 1.491 . S
C1245 C1244 1.400 . S
C1245 C1246 1.398 . S
C1246 H1234 0.950 . S
C1246 C1245 1.398 . S
C1246 C1247 1.391 . S
C1247 H1235 0.950 . S
C1247 C1243 1.393 . S
C1247 C1246 1.391 . S
C783 C761 1.620 . S
C777 C1 1.178 . S
C797 C169 1.404 . S
C803 C695 1.611 . S
C817 C283 1.359 . S
C823 C709 1.538 . S
C837 C397 1.262 . S
C843 C723 1.492 . S
C863 C737 1.465 . S
C857 C457 1.070 . S
C877 C571 1.050 . S
C883 C747 1.470 . S
C897 C115 1.231 . S
C903 C705 1.638 . S
C917 C229 1.176 . S
C923 C719 1.635 . S
C937 C343 1.091 . S
C943 C733 1.520 . S
C963 C751 1.589 . S
C957 C511 1.377 . S
C983 C765 1.653 . S
C977 C625 1.440 . S
C1003 C691 1.732 . S
C997 C55 1.433 . S
C1017 C29 1.145 . S
C1023 C706 1.386 . S
C1037 C125 0.969 . S
C1043 C720 1.562 . S
C1063 C734 1.509 . S
C1057 C239 0.985 . S
C1077 C353 0.910 . S
C1083 C753 1.377 . S
C1103 C767 1.280 . S
C1097 C485 1.068 . S
C1123 C692 1.354 . S
C1117 C599 1.118 . S
C1143 C762 1.374 . S
C1137 C143 1.151 . S
C1157 C257 1.050 . S
C1163 C697 1.247 . S
C1183 C711 1.195 . S
C1177 C371 1.026 . S
C1197 C467 0.940 . S
C1203 C725 1.350 . S
C1217 C581 0.924 . S
C1223 C739 1.387 . S
C1237 C11 0.879 . S
C1243 C748 1.475 . S
