# Generated by pormake.
# Topology eea, (3,6)-cn, num edge types: 1
# Building blocks:
#     Node 0, Type 0, BuildingBlock: BETDIP_clean_linker_0, # of connection points: 3
#     Node 1, Type 0, BuildingBlock: BETDIP_clean_linker_0, # of connection points: 3
#     Node 2, Type 0, BuildingBlock: BETDIP_clean_linker_0, # of connection points: 3
#     Node 3, Type 0, BuildingBlock: BETDIP_clean_linker_0, # of connection points: 3
#     Node 4, Type 0, BuildingBlock: BETDIP_clean_linker_0, # of connection points: 3
#     Node 5, Type 0, BuildingBlock: BETDIP_clean_linker_0, # of connection points: 3
#     Node 6, Type 0, BuildingBlock: BETDIP_clean_linker_0, # of connection points: 3
#     Node 7, Type 0, BuildingBlock: BETDIP_clean_linker_0, # of connection points: 3
#     Node 8, Type 0, BuildingBlock: BETDIP_clean_linker_0, # of connection points: 3
#     Node 9, Type 0, BuildingBlock: BETDIP_clean_linker_0, # of connection points: 3
#     Node 10, Type 0, BuildingBlock: BETDIP_clean_linker_0, # of connection points: 3
#     Node 11, Type 0, BuildingBlock: BETDIP_clean_linker_0, # of connection points: 3
#     Node 12, Type 0, BuildingBlock: BETDIP_clean_linker_0, # of connection points: 3
#     Node 13, Type 0, BuildingBlock: BETDIP_clean_linker_0, # of connection points: 3
#     Node 14, Type 0, BuildingBlock: BETDIP_clean_linker_0, # of connection points: 3
#     Node 15, Type 0, BuildingBlock: BETDIP_clean_linker_0, # of connection points: 3
#     Node 16, Type 0, BuildingBlock: BETDIP_clean_linker_0, # of connection points: 3
#     Node 17, Type 0, BuildingBlock: BETDIP_clean_linker_0, # of connection points: 3
#     Node 18, Type 1, BuildingBlock: HISSIN_clean_sbu_0, # of connection points: 6
#     Node 19, Type 1, BuildingBlock: HISSIN_clean_sbu_0, # of connection points: 6
#     Node 20, Type 1, BuildingBlock: HISSIN_clean_sbu_0, # of connection points: 6
#     Node 21, Type 1, BuildingBlock: HISSIN_clean_sbu_0, # of connection points: 6
#     Node 22, Type 1, BuildingBlock: HISSIN_clean_sbu_0, # of connection points: 6
#     Node 23, Type 1, BuildingBlock: HISSIN_clean_sbu_0, # of connection points: 6
#     Node 24, Type 1, BuildingBlock: HISSIN_clean_sbu_0, # of connection points: 6
#     Node 25, Type 1, BuildingBlock: HISSIN_clean_sbu_0, # of connection points: 6
#     Node 26, Type 1, BuildingBlock: HISSIN_clean_sbu_0, # of connection points: 6
#     Edge 27, Type (0, 1), BuildingBlock: TEMPAE_clean_linker_10, # of connection points: 2
#     Edge 28, Type (0, 1), BuildingBlock: TEMPAE_clean_linker_10, # of connection points: 2
#     Edge 29, Type (0, 1), BuildingBlock: TEMPAE_clean_linker_10, # of connection points: 2
#     Edge 30, Type (0, 1), BuildingBlock: TEMPAE_clean_linker_10, # of connection points: 2
#     Edge 31, Type (0, 1), BuildingBlock: TEMPAE_clean_linker_10, # of connection points: 2
#     Edge 32, Type (0, 1), BuildingBlock: TEMPAE_clean_linker_10, # of connection points: 2
#     Edge 33, Type (0, 1), BuildingBlock: TEMPAE_clean_linker_10, # of connection points: 2
#     Edge 34, Type (0, 1), BuildingBlock: TEMPAE_clean_linker_10, # of connection points: 2
#     Edge 35, Type (0, 1), BuildingBlock: TEMPAE_clean_linker_10, # of connection points: 2
#     Edge 36, Type (0, 1), BuildingBlock: TEMPAE_clean_linker_10, # of connection points: 2
#     Edge 37, Type (0, 1), BuildingBlock: TEMPAE_clean_linker_10, # of connection points: 2
#     Edge 38, Type (0, 1), BuildingBlock: TEMPAE_clean_linker_10, # of connection points: 2
#     Edge 39, Type (0, 1), BuildingBlock: TEMPAE_clean_linker_10, # of connection points: 2
#     Edge 40, Type (0, 1), BuildingBlock: TEMPAE_clean_linker_10, # of connection points: 2
#     Edge 41, Type (0, 1), BuildingBlock: TEMPAE_clean_linker_10, # of connection points: 2
#     Edge 42, Type (0, 1), BuildingBlock: TEMPAE_clean_linker_10, # of connection points: 2
#     Edge 43, Type (0, 1), BuildingBlock: TEMPAE_clean_linker_10, # of connection points: 2
#     Edge 44, Type (0, 1), BuildingBlock: TEMPAE_clean_linker_10, # of connection points: 2
#     Edge 45, Type (0, 1), BuildingBlock: TEMPAE_clean_linker_10, # of connection points: 2
#     Edge 46, Type (0, 1), BuildingBlock: TEMPAE_clean_linker_10, # of connection points: 2
#     Edge 47, Type (0, 1), BuildingBlock: TEMPAE_clean_linker_10, # of connection points: 2
#     Edge 48, Type (0, 1), BuildingBlock: TEMPAE_clean_linker_10, # of connection points: 2
#     Edge 49, Type (0, 1), BuildingBlock: TEMPAE_clean_linker_10, # of connection points: 2
#     Edge 50, Type (0, 1), BuildingBlock: TEMPAE_clean_linker_10, # of connection points: 2
#     Edge 51, Type (0, 1), BuildingBlock: TEMPAE_clean_linker_10, # of connection points: 2
#     Edge 52, Type (0, 1), BuildingBlock: TEMPAE_clean_linker_10, # of connection points: 2
#     Edge 53, Type (0, 1), BuildingBlock: TEMPAE_clean_linker_10, # of connection points: 2
#     Edge 54, Type (0, 1), BuildingBlock: TEMPAE_clean_linker_10, # of connection points: 2
#     Edge 55, Type (0, 1), BuildingBlock: TEMPAE_clean_linker_10, # of connection points: 2
#     Edge 56, Type (0, 1), BuildingBlock: TEMPAE_clean_linker_10, # of connection points: 2
#     Edge 57, Type (0, 1), BuildingBlock: TEMPAE_clean_linker_10, # of connection points: 2
#     Edge 58, Type (0, 1), BuildingBlock: TEMPAE_clean_linker_10, # of connection points: 2
#     Edge 59, Type (0, 1), BuildingBlock: TEMPAE_clean_linker_10, # of connection points: 2
#     Edge 60, Type (0, 1), BuildingBlock: TEMPAE_clean_linker_10, # of connection points: 2
#     Edge 61, Type (0, 1), BuildingBlock: TEMPAE_clean_linker_10, # of connection points: 2
#     Edge 62, Type (0, 1), BuildingBlock: TEMPAE_clean_linker_10, # of connection points: 2
#     Edge 63, Type (0, 1), BuildingBlock: TEMPAE_clean_linker_10, # of connection points: 2
#     Edge 64, Type (0, 1), BuildingBlock: TEMPAE_clean_linker_10, # of connection points: 2
#     Edge 65, Type (0, 1), BuildingBlock: TEMPAE_clean_linker_10, # of connection points: 2
#     Edge 66, Type (0, 1), BuildingBlock: TEMPAE_clean_linker_10, # of connection points: 2
#     Edge 67, Type (0, 1), BuildingBlock: TEMPAE_clean_linker_10, # of connection points: 2
#     Edge 68, Type (0, 1), BuildingBlock: TEMPAE_clean_linker_10, # of connection points: 2
#     Edge 69, Type (0, 1), BuildingBlock: TEMPAE_clean_linker_10, # of connection points: 2
#     Edge 70, Type (0, 1), BuildingBlock: TEMPAE_clean_linker_10, # of connection points: 2
#     Edge 71, Type (0, 1), BuildingBlock: TEMPAE_clean_linker_10, # of connection points: 2
#     Edge 72, Type (0, 1), BuildingBlock: TEMPAE_clean_linker_10, # of connection points: 2
#     Edge 73, Type (0, 1), BuildingBlock: TEMPAE_clean_linker_10, # of connection points: 2
#     Edge 74, Type (0, 1), BuildingBlock: TEMPAE_clean_linker_10, # of connection points: 2
#     Edge 75, Type (0, 1), BuildingBlock: TEMPAE_clean_linker_10, # of connection points: 2
#     Edge 76, Type (0, 1), BuildingBlock: TEMPAE_clean_linker_10, # of connection points: 2
#     Edge 77, Type (0, 1), BuildingBlock: TEMPAE_clean_linker_10, # of connection points: 2
#     Edge 78, Type (0, 1), BuildingBlock: TEMPAE_clean_linker_10, # of connection points: 2
#     Edge 79, Type (0, 1), BuildingBlock: TEMPAE_clean_linker_10, # of connection points: 2
#     Edge 80, Type (0, 1), BuildingBlock: TEMPAE_clean_linker_10, # of connection points: 2
# Relax obj value: 0.060
# Max RMSD: 0.208
# Mean RMSD: 0.146
data_MOF--net-eea--node1-HISSIN_clean_sbu_0--node2-BETDIP_clean_linker_0--edge1-TEMPAE_clean_linker_10
_symmetry_space_group_name_H-M    P1
_symmetry_Int_Tables_number       1
_symmetry_cell_setting            triclinic
loop_
_symmetry_equiv_pos_as_xyz
'x, y, z'
_cell_length_a     55.330983
_cell_length_b     55.611609
_cell_length_c     70.779209
_cell_angle_alpha  93.308116
_cell_angle_beta   93.434806
_cell_angle_gamma 119.747
loop_
_atom_site_label
_atom_site_type_symbol
_atom_site_fract_x
_atom_site_fract_y
_atom_site_fract_z
_atom_type_partial_charge
H0 H 0.24983 0.11293 0.37194 0.0
H1 H 0.28399 0.17253 0.42155 0.0
H2 H 0.27127 0.09023 0.42473 0.0
H3 H 0.29511 0.20385 0.39911 0.0
C4 C 0.27577 0.19293 0.3897 0.0
C5 C 0.25851 0.11847 0.38672 0.0
C6 C 0.25958 0.0985 0.39737 0.0
C7 C 0.26757 0.14533 0.3952 0.0
C8 C 0.278 0.15225 0.41457 0.0
C9 C 0.27925 0.13239 0.42534 0.0
C10 C 0.27012 0.10563 0.41658 0.0
N11 N 0.26347 0.16394 0.38438 0.0
H12 H 0.91889 0.12998 0.38527 0.0
H13 H 0.86654 0.11729 0.43034 0.0
H14 H 0.94346 0.19492 0.43091 0.0
H15 H 0.83253 0.0931 0.40492 0.0
C16 C 0.84135 0.08101 0.39901 0.0
C17 C 0.91491 0.13764 0.39848 0.0
C18 C 0.93417 0.16445 0.40714 0.0
C19 C 0.89 0.12101 0.40638 0.0
C20 C 0.88498 0.13076 0.42359 0.0
C21 C 0.90408 0.15736 0.43259 0.0
C22 C 0.92862 0.17426 0.42417 0.0
N23 N 0.87048 0.09432 0.39704 0.0
H24 H 0.88642 0.79436 0.39238 0.0
H25 H 0.91312 0.76317 0.43864 0.0
H26 H 0.83633 0.76498 0.43903 0.0
H27 H 0.93594 0.75463 0.41564 0.0
C28 C 0.9435 0.77286 0.40783 0.0
C29 C 0.88289 0.78539 0.40584 0.0
C30 C 0.85892 0.78021 0.41467 0.0
C31 C 0.9025 0.77919 0.41426 0.0
C32 C 0.89803 0.76777 0.43187 0.0
C33 C 0.87404 0.76233 0.44087 0.0
C34 C 0.85476 0.76884 0.43218 0.0
N35 N 0.92678 0.78546 0.40492 0.0
H36 H 0.08328 0.20342 0.62157 0.0
H37 H 0.13704 0.2357 0.57707 0.0
H38 H 0.06143 0.23985 0.57631 0.0
H39 H 0.17019 0.24617 0.6021 0.0
C40 C 0.16076 0.22662 0.60849 0.0
C41 C 0.08781 0.2133 0.60847 0.0
C42 C 0.06949 0.22116 0.59996 0.0
C43 C 0.11263 0.21923 0.60063 0.0
C44 C 0.11832 0.23175 0.58351 0.0
C45 C 0.09997 0.23922 0.57454 0.0
C46 C 0.0758 0.23426 0.58307 0.0
N47 N 0.13145 0.21226 0.61009 0.0
H48 H 0.76267 0.86963 0.64729 0.0
H49 H 0.72786 0.88897 0.59855 0.0
H50 H 0.73981 0.81832 0.59406 0.0
H51 H 0.71432 0.90931 0.62238 0.0
C52 C 0.73427 0.91993 0.63116 0.0
C53 C 0.75381 0.86457 0.63255 0.0
C54 C 0.7522 0.8418 0.6217 0.0
C55 C 0.74462 0.88136 0.62445 0.0
C56 C 0.73389 0.87542 0.60519 0.0
C57 C 0.7323 0.85283 0.5941 0.0
C58 C 0.74143 0.83607 0.60247 0.0
N59 N 0.74851 0.90531 0.63558 0.0
H60 H 0.1191 0.90547 0.62723 0.0
H61 H 0.09112 0.84612 0.57766 0.0
H62 H 0.17158 0.92076 0.58189 0.0
H63 H 0.06665 0.81579 0.59891 0.0
C64 C 0.06017 0.82742 0.60809 0.0
C65 C 0.12271 0.89897 0.61346 0.0
C66 C 0.1477 0.91591 0.60567 0.0
C67 C 0.10263 0.87328 0.60383 0.0
C68 C 0.1071 0.86518 0.58572 0.0
C69 C 0.13178 0.88246 0.57755 0.0
C70 C 0.15221 0.90749 0.58786 0.0
N71 N 0.07788 0.85661 0.61252 0.0
H72 H 0.91411 0.44774 0.70333 0.0
H73 H 0.94935 0.50743 0.75281 0.0
H74 H 0.94201 0.42704 0.75469 0.0
H75 H 0.9588 0.53823 0.73008 0.0
C76 C 0.93905 0.52721 0.7211 0.0
C77 C 0.92384 0.45355 0.71787 0.0
C78 C 0.92743 0.43434 0.72791 0.0
C79 C 0.93198 0.48003 0.72661 0.0
C80 C 0.94368 0.48731 0.74571 0.0
C81 C 0.9475 0.46831 0.7559 0.0
C82 C 0.93943 0.44194 0.74685 0.0
N83 N 0.92622 0.49805 0.71628 0.0
H84 H 0.58899 0.46485 0.72064 0.0
H85 H 0.53676 0.45066 0.76598 0.0
H86 H 0.6124 0.52938 0.76638 0.0
H87 H 0.50284 0.42706 0.74019 0.0
C88 C 0.51172 0.41493 0.73445 0.0
C89 C 0.58487 0.47221 0.73391 0.0
C90 C 0.60367 0.49917 0.74257 0.0
C91 C 0.56017 0.45508 0.74189 0.0
C92 C 0.55501 0.46449 0.75918 0.0
C93 C 0.57366 0.49122 0.76815 0.0
C94 C 0.59792 0.5086 0.75967 0.0
N95 N 0.54088 0.42831 0.73253 0.0
H96 H 0.55691 0.13163 0.72943 0.0
H97 H 0.58162 0.0965 0.77411 0.0
H98 H 0.50115 0.09108 0.77152 0.0
H99 H 0.60795 0.09286 0.75214 0.0
C100 C 0.615 0.11135 0.74466 0.0
C101 C 0.55239 0.12062 0.74206 0.0
C102 C 0.52655 0.11166 0.74936 0.0
C103 C 0.5721 0.1146 0.75052 0.0
C104 C 0.56629 0.10057 0.7671 0.0
C105 C 0.54067 0.0919 0.77481 0.0
C106 C 0.52083 0.09728 0.76565 0.0
N107 N 0.59756 0.12324 0.74211 0.0
H108 H 0.75451 0.53846 0.95425 0.0
H109 H 0.80771 0.57079 0.90949 0.0
H110 H 0.73285 0.5762 0.90979 0.0
H111 H 0.84104 0.57987 0.93399 0.0
C112 C 0.83132 0.56029 0.94033 0.0
C113 C 0.75897 0.54854 0.94123 0.0
C114 C 0.74082 0.5569 0.9331 0.0
C115 C 0.78354 0.55418 0.93312 0.0
C116 C 0.78918 0.56702 0.91612 0.0
C117 C 0.77103 0.57502 0.90752 0.0
C118 C 0.74709 0.57026 0.9163 0.0
N119 N 0.80209 0.54655 0.9422 0.0
H120 H 0.43611 0.20676 0.98022 0.0
H121 H 0.39952 0.22486 0.93179 0.0
H122 H 0.40849 0.1522 0.92833 0.0
H123 H 0.4591 0.25427 0.98594 0.0
C124 C 0.44427 0.26056 0.98109 0.0
C125 C 0.42678 0.20153 0.96562 0.0
C126 C 0.4235 0.17764 0.95521 0.0
C127 C 0.41818 0.21861 0.95705 0.0
C128 C 0.40564 0.21126 0.93832 0.0
C129 C 0.40245 0.1876 0.92768 0.0
C130 C 0.41135 0.17084 0.93628 0.0
N131 N 0.42239 0.24373 0.96656 0.0
H132 H 0.78811 0.23458 0.96287 0.0
H133 H 0.75516 0.17334 0.91433 0.0
H134 H 0.83674 0.24641 0.91563 0.0
H135 H 0.7138 0.18006 0.92533 0.0
C136 C 0.71702 0.17388 0.93913 0.0
C137 C 0.7905 0.22734 0.94893 0.0
C138 C 0.81498 0.24324 0.9403 0.0
C139 C 0.7688 0.20238 0.9395 0.0
C140 C 0.77177 0.19299 0.92138 0.0
C141 C 0.79653 0.20843 0.91273 0.0
C142 C 0.81796 0.23364 0.92235 0.0
N143 N 0.7444 0.18667 0.94869 0.0
H144 H 0.58326 0.78241 0.03651 0.0
H145 H 0.61743 0.84152 0.08628 0.0
H146 H 0.60983 0.761 0.08807 0.0
H147 H 0.62681 0.87269 0.06387 0.0
C148 C 0.60735 0.86154 0.0546 0.0
C149 C 0.59267 0.78802 0.05112 0.0
C150 C 0.59595 0.76865 0.06116 0.0
C151 C 0.60065 0.81441 0.05994 0.0
C152 C 0.61188 0.82145 0.07914 0.0
C153 C 0.61536 0.80229 0.08937 0.0
C154 C 0.60749 0.77602 0.08022 0.0
N155 N 0.59508 0.83249 0.04954 0.0
H156 H 0.25393 0.79547 0.0547 0.0
H157 H 0.1998 0.78187 0.09883 0.0
H158 H 0.27517 0.86081 0.09937 0.0
H159 H 0.16676 0.7561 0.07342 0.0
C160 C 0.17632 0.74459 0.06775 0.0
C161 C 0.24922 0.80301 0.06763 0.0
C162 C 0.26753 0.83021 0.0761 0.0
C163 C 0.22425 0.78585 0.07534 0.0
C164 C 0.21828 0.79555 0.09219 0.0
C165 C 0.23652 0.8225 0.101 0.0
C166 C 0.26106 0.83986 0.09278 0.0
N167 N 0.20559 0.75877 0.06614 0.0
H168 H 0.22776 0.4657 0.06223 0.0
H169 H 0.25243 0.43313 0.10863 0.0
H170 H 0.1711 0.42572 0.104 0.0
H171 H 0.27953 0.42915 0.08756 0.0
C172 C 0.28655 0.44726 0.07967 0.0
C173 C 0.22311 0.45515 0.07506 0.0
C174 C 0.19695 0.44596 0.08193 0.0
C175 C 0.243 0.44993 0.08422 0.0
C176 C 0.23701 0.43655 0.10107 0.0
C177 C 0.21105 0.42765 0.10835 0.0
C178 C 0.19106 0.43216 0.09848 0.0
N179 N 0.26879 0.45862 0.07622 0.0
H180 H 0.41808 0.876 0.28919 0.0
H181 H 0.46975 0.90439 0.24325 0.0
H182 H 0.39191 0.90437 0.24092 0.0
H183 H 0.50405 0.91643 0.26782 0.0
C184 C 0.49477 0.89753 0.27496 0.0
C185 C 0.42178 0.88437 0.27552 0.0
C186 C 0.40205 0.88964 0.26606 0.0
C187 C 0.44636 0.88986 0.26751 0.0
C188 C 0.451 0.90037 0.24966 0.0
C189 C 0.43154 0.90578 0.23995 0.0
C190 C 0.40706 0.90028 0.24826 0.0
N191 N 0.46574 0.88401 0.27743 0.0
H192 H 0.10551 0.5376 0.30931 0.0
H193 H 0.07151 0.55233 0.25814 0.0
H194 H 0.06196 0.47149 0.26396 0.0
H195 H 0.12242 0.59441 0.26755 0.0
C196 C 0.11458 0.59805 0.2805 0.0
C197 C 0.09363 0.52983 0.29543 0.0
C198 C 0.08408 0.50236 0.28794 0.0
C199 C 0.08923 0.54781 0.28465 0.0
C200 C 0.07448 0.53811 0.26651 0.0
C201 C 0.06426 0.5105 0.25897 0.0
C202 C 0.06906 0.49264 0.26983 0.0
N203 N 0.10054 0.57594 0.29192 0.0
H204 H 0.45579 0.56726 0.29712 0.0
H205 H 0.4299 0.50299 0.25094 0.0
H206 H 0.50382 0.58255 0.24923 0.0
H207 H 0.4065 0.47491 0.27314 0.0
C208 C 0.39946 0.48688 0.28143 0.0
C209 C 0.45924 0.56005 0.28353 0.0
C210 C 0.48224 0.57795 0.27421 0.0
C211 C 0.44031 0.53299 0.27535 0.0
C212 C 0.44453 0.52371 0.25755 0.0
C213 C 0.46762 0.54138 0.24808 0.0
C214 C 0.48619 0.56854 0.2565 0.0
N215 N 0.41663 0.51625 0.285 0.0
Eu216 Eu 0.48232 0.98897 0.98721 0.0
Eu217 Eu 0.50432 0.01873 0.0318 0.0
C218 C 0.47742 0.04191 0.00229 0.0
C219 C 0.47492 0.98132 0.93334 0.0
C220 C 0.49011 0.01036 0.93317 0.0
C221 C 0.47554 0.97605 0.89909 0.0
C222 C 0.49791 0.02217 0.91607 0.0
C223 C 0.46768 0.96426 0.91621 0.0
C224 C 0.49078 0.00515 0.89881 0.0
C225 C 0.46761 0.96883 0.9514 0.0
O226 O 0.45802 0.98885 0.03045 0.0
O227 O 0.45146 0.95785 0.00502 0.0
C228 C 0.44353 0.96421 0.02078 0.0
O229 O 0.51171 0.97552 0.9995 0.0
O230 O 0.49883 0.03922 0.05705 0.0
O231 O 0.53232 0.02962 0.05784 0.0
O232 O 0.50374 0.97805 0.0306 0.0
C233 C 0.51279 0.96885 0.01686 0.0
O234 O 0.52104 0.02985 0.98519 0.0
O235 O 0.54262 0.03918 0.01577 0.0
O236 O 0.49788 0.04899 0.01566 0.0
O237 O 0.48798 0.96901 0.96173 0.0
O238 O 0.45296 0.97605 0.9616 0.0
O239 O 0.46446 0.01709 0.99277 0.0
C240 C 0.50857 0.02394 0.08521 0.0
C241 C 0.49129 0.99493 0.08423 0.0
C242 C 0.50678 0.02689 0.11941 0.0
C243 C 0.48179 0.98196 0.10074 0.0
C244 C 0.51623 0.03984 0.10287 0.0
C245 C 0.48943 0.99778 0.11855 0.0
C246 C 0.51788 0.03754 0.06775 0.0
C247 C 0.54329 0.04305 0.99758 0.0
H248 H 0.49613 0.02388 0.94631 0.0
H249 H 0.46947 0.96237 0.88603 0.0
H250 H 0.50992 0.04463 0.91639 0.0
H251 H 0.45607 0.94181 0.9161 0.0
H252 H 0.48515 0.98232 0.07068 0.0
H253 H 0.51276 0.03972 0.13285 0.0
H254 H 0.46876 0.95951 0.09956 0.0
H255 H 0.52938 0.06227 0.10385 0.0
Eu256 Eu 0.01895 0.49475 0.98694 0.0
Eu257 Eu 0.99202 0.48455 0.02827 0.0
C258 C 0.96628 0.43543 0.99355 0.0
C259 C 0.03056 0.50081 0.93433 0.0
C260 C 1.00192 0.48869 0.92848 0.0
C261 C 0.04075 0.50679 0.90156 0.0
C262 C 0.99274 0.48579 0.90921 0.0
C263 C 0.04988 0.50968 0.9208 0.0
C264 C 0.01211 0.49503 0.89556 0.0
C265 C 0.04066 0.50555 0.95454 0.0
O266 O 0.02321 0.46977 0.03083 0.0
O267 O 0.05022 0.49125 0.00685 0.0
C268 C 0.04598 0.4779 0.02215 0.0
O269 O 0.03486 0.53643 0.00356 0.0
O270 O 0.9699 0.45717 0.04963 0.0
O271 O 0.98066 0.50044 0.05307 0.0
O272 O 0.03388 0.52379 0.0337 0.0
C273 C 0.04365 0.54277 0.02173 0.0
O274 O 0.97677 0.49119 0.98111 0.0
O275 O 0.97326 0.50556 0.01127 0.0
O276 O 0.96156 0.44701 0.00849 0.0
O277 O 0.03572 0.52253 0.96482 0.0
O278 O 0.03589 0.48361 0.96301 0.0
O279 O 0.98879 0.44866 0.98468 0.0
C280 C 0.98027 0.47891 0.08124 0.0
C281 C 0.98935 0.5035 0.09322 0.0
C282 C 0.98747 0.45727 0.10829 0.0
C283 C 0.99761 0.50502 0.11249 0.0
C284 C 0.97924 0.45575 0.08901 0.0
C285 C 0.99677 0.48193 0.12022 0.0
C286 C 0.97096 0.47714 0.06093 0.0
C287 C 0.96558 0.50104 0.99288 0.0
H288 H 0.98675 0.48189 0.93883 0.0
H289 H 0.05612 0.5137 0.89135 0.0
H290 H 0.97058 0.47688 0.90505 0.0
H291 H 0.07207 0.51909 0.92515 0.0
H292 H 0.98995 0.52156 0.08774 0.0
H293 H 0.9868 0.43921 0.11382 0.0
H294 H 0.00426 0.52417 0.1214 0.0
H295 H 0.97205 0.43638 0.08022 0.0
Eu296 Eu 0.53144 0.51923 0.02842 0.0
Eu297 Eu 0.50381 0.51614 0.9853 0.0
C298 C 0.53719 0.57258 0.01173 0.0
C299 C 0.53708 0.51751 0.08169 0.0
C300 C 0.51363 0.52067 0.08337 0.0
C301 C 0.53724 0.5086 0.11485 0.0
C302 C 0.50248 0.51849 0.10078 0.0
C303 C 0.54855 0.51102 0.09742 0.0
C304 C 0.51444 0.51285 0.11676 0.0
C305 C 0.55003 0.52188 0.06373 0.0
O306 O 0.54919 0.53043 0.98224 0.0
O307 O 0.56227 0.51752 0.00966 0.0
C308 C 0.56673 0.52563 0.99247 0.0
O309 O 0.50067 0.47434 0.01867 0.0
O310 O 0.5024 0.53869 0.96151 0.0
O311 O 0.4752 0.49395 0.95972 0.0
O312 O 0.50595 0.47696 0.98704 0.0
C313 C 0.49919 0.46248 0.00176 0.0
O314 O 0.49162 0.52019 0.03213 0.0
O315 O 0.46726 0.49903 0.003 0.0
O316 O 0.5131 0.55612 0.00177 0.0
O317 O 0.54101 0.4999 0.05161 0.0
O318 O 0.55266 0.54333 0.05553 0.0
O319 O 0.55193 0.56225 0.01902 0.0
C320 C 0.49454 0.5138 0.93192 0.0
C321 C 0.51364 0.50436 0.93005 0.0
C322 C 0.49657 0.52282 0.89877 0.0
C323 C 0.52412 0.50411 0.91261 0.0
C324 C 0.48603 0.52298 0.91621 0.0
C325 C 0.51579 0.51347 0.89681 0.0
C326 C 0.48517 0.51611 0.95054 0.0
C327 C 0.46795 0.50689 0.02101 0.0
H328 H 0.50433 0.52546 0.07133 0.0
H329 H 0.54695 0.50441 0.127 0.0
H330 H 0.48472 0.52156 0.10181 0.0
H331 H 0.56659 0.50843 0.09634 0.0
H332 H 0.52075 0.49758 0.94215 0.0
H333 H 0.48956 0.52987 0.88678 0.0
H334 H 0.53913 0.49708 0.91159 0.0
H335 H 0.4715 0.53057 0.91749 0.0
Eu336 Eu 0.15376 0.32174 0.32078 0.0
Eu337 Eu 0.17253 0.35039 0.36581 0.0
C338 C 0.1453 0.3728 0.33525 0.0
C339 C 0.14867 0.31542 0.2668 0.0
C340 C 0.16176 0.34445 0.26677 0.0
C341 C 0.14927 0.311 0.23251 0.0
C342 C 0.16863 0.35669 0.24971 0.0
C343 C 0.14238 0.2988 0.24958 0.0
C344 C 0.16263 0.34011 0.23237 0.0
C345 C 0.14279 0.30251 0.28479 0.0
O346 O 0.12664 0.31938 0.36379 0.0
O347 O 0.121 0.29004 0.33744 0.0
C348 C 0.11243 0.29545 0.35324 0.0
O349 O 0.18211 0.30807 0.33451 0.0
O350 O 0.1663 0.37079 0.39079 0.0
O351 O 0.19995 0.36148 0.39219 0.0
O352 O 0.17146 0.30946 0.36505 0.0
C353 C 0.18164 0.30071 0.3518 0.0
O354 O 0.19099 0.36448 0.32051 0.0
O355 O 0.21163 0.3694 0.3506 0.0
O356 O 0.16392 0.37971 0.34996 0.0
O357 O 0.16464 0.30639 0.29551 0.0
O358 O 0.12521 0.30573 0.29461 0.0
O359 O 0.13503 0.34918 0.32447 0.0
C360 C 0.17603 0.35648 0.41941 0.0
C361 C 0.15825 0.32759 0.41882 0.0
C362 C 0.17509 0.36053 0.45367 0.0
C363 C 0.14889 0.31524 0.43554 0.0
C364 C 0.18437 0.37287 0.43691 0.0
C365 C 0.15722 0.33155 0.45318 0.0
C366 C 0.18533 0.36952 0.40177 0.0
C367 C 0.2132 0.3758 0.33295 0.0
H368 H 0.16698 0.35765 0.27998 0.0
H369 H 0.14401 0.29761 0.2194 0.0
H370 H 0.17918 0.37916 0.25015 0.0
H371 H 0.13236 0.27636 0.24935 0.0
H372 H 0.15166 0.31462 0.4054 0.0
H373 H 0.18162 0.37372 0.46698 0.0
H374 H 0.13545 0.29285 0.43467 0.0
H375 H 0.19795 0.39523 0.4376 0.0
Eu376 Eu 0.68149 0.83017 0.32149 0.0
Eu377 Eu 0.65496 0.82071 0.36253 0.0
C378 C 0.62839 0.77217 0.32856 0.0
C379 C 0.69339 0.83369 0.26869 0.0
C380 C 0.66491 0.82217 0.26253 0.0
C381 C 0.70438 0.83902 0.23602 0.0
C382 C 0.65622 0.81923 0.24315 0.0
C383 C 0.71302 0.84191 0.25536 0.0
C384 C 0.67593 0.82787 0.22972 0.0
C385 C 0.70311 0.83863 0.28898 0.0
O386 O 0.6842 0.80324 0.3633 0.0
O387 O 0.71386 0.83041 0.34248 0.0
C388 C 0.70851 0.81428 0.3563 0.0
O389 O 0.69717 0.87232 0.33726 0.0
O390 O 0.63441 0.79374 0.3845 0.0
O391 O 0.64363 0.83659 0.38734 0.0
O392 O 0.6965 0.8604 0.36759 0.0
C393 C 0.70589 0.87914 0.35542 0.0
O394 O 0.63998 0.828 0.31544 0.0
O395 O 0.63632 0.84202 0.34572 0.0
O396 O 0.62277 0.78549 0.34187 0.0
O397 O 0.69913 0.85665 0.29882 0.0
O398 O 0.69718 0.81675 0.29787 0.0
O399 O 0.65271 0.78391 0.3216 0.0
C400 C 0.64564 0.81701 0.4158 0.0
C401 C 0.64543 0.83733 0.4284 0.0
C402 C 0.66509 0.80332 0.44203 0.0
C403 C 0.65517 0.84081 0.44758 0.0
C404 C 0.65556 0.79999 0.4228 0.0
C405 C 0.66505 0.82381 0.45459 0.0
C406 C 0.63513 0.81373 0.39559 0.0
C407 C 0.629 0.83805 0.32727 0.0
H408 H 0.64952 0.8159 0.27271 0.0
H409 H 0.71998 0.84547 0.22599 0.0
H410 H 0.6342 0.81079 0.23873 0.0
H411 H 0.73509 0.85088 0.25994 0.0
H412 H 0.63767 0.85054 0.4234 0.0
H413 H 0.67281 0.79009 0.44705 0.0
H414 H 0.65459 0.85654 0.45699 0.0
H415 H 0.656 0.78412 0.41346 0.0
Eu416 Eu 0.1883 0.84214 0.35851 0.0
Eu417 Eu 0.16529 0.85032 0.31657 0.0
C418 C 0.19375 0.89995 0.34926 0.0
C419 C 0.19711 0.84099 0.41177 0.0
C420 C 0.1807 0.85346 0.41426 0.0
C421 C 0.19761 0.83458 0.44538 0.0
C422 C 0.17268 0.85638 0.4322 0.0
C423 C 0.20561 0.83166 0.4274 0.0
C424 C 0.18089 0.84681 0.44795 0.0
C425 C 0.20373 0.83598 0.3927 0.0
O426 O 0.21185 0.86698 0.31635 0.0
O427 O 0.2188 0.84224 0.33881 0.0
C428 C 0.22673 0.85697 0.32421 0.0
O429 O 0.16336 0.79942 0.34279 0.0
O430 O 0.16862 0.87838 0.29534 0.0
O431 O 0.13733 0.83464 0.29016 0.0
O432 O 0.16624 0.8106 0.31197 0.0
C433 C 0.16136 0.79264 0.32448 0.0
O434 O 0.1492 0.8439 0.36291 0.0
O435 O 0.12708 0.8289 0.33263 0.0
O436 O 0.17173 0.88596 0.33684 0.0
O437 O 0.18273 0.81624 0.38163 0.0
O438 O 0.21839 0.85792 0.3839 0.0
O439 O 0.20726 0.88813 0.3563 0.0
C440 C 0.15954 0.85735 0.26361 0.0
C441 C 0.14365 0.83376 0.25048 0.0
C442 C 0.19332 0.87799 0.24052 0.0
C443 C 0.15275 0.8321 0.23271 0.0
C444 C 0.18429 0.87963 0.25832 0.0
C445 C 0.17782 0.85408 0.2276 0.0
C446 C 0.15056 0.8583 0.28281 0.0
C447 C 0.12637 0.83308 0.35103 0.0
H448 H 0.17383 0.86064 0.40228 0.0
H449 H 0.20402 0.82673 0.45717 0.0
H450 H 0.16013 0.86623 0.43375 0.0
H451 H 0.21803 0.82171 0.42565 0.0
H452 H 0.12433 0.81642 0.25403 0.0
H453 H 0.2128 0.89519 0.23704 0.0
H454 H 0.14012 0.81358 0.22292 0.0
H455 H 0.19698 0.89821 0.26802 0.0
Eu456 Eu 0.81913 0.65991 0.65462 0.0
Eu457 Eu 0.84048 0.68858 0.69927 0.0
C458 C 0.8116 0.71063 0.6703 0.0
C459 C 0.81325 0.65425 0.60064 0.0
C460 C 0.82943 0.6833 0.60089 0.0
C461 C 0.81265 0.64984 0.56625 0.0
C462 C 0.83721 0.69555 0.58391 0.0
C463 C 0.80488 0.63763 0.58324 0.0
C464 C 0.829 0.67895 0.56638 0.0
C465 C 0.80607 0.64117 0.61851 0.0
O466 O 0.79448 0.65764 0.69815 0.0
O467 O 0.78757 0.62801 0.67167 0.0
C468 C 0.7798 0.63356 0.68779 0.0
O469 O 0.84766 0.6455 0.66709 0.0
O470 O 0.83532 0.7093 0.72455 0.0
O471 O 0.86872 0.69962 0.72522 0.0
O472 O 0.83917 0.64756 0.69812 0.0
C473 C 0.8481 0.63825 0.68436 0.0
O474 O 0.85651 0.70233 0.65371 0.0
O475 O 0.87882 0.7071 0.68317 0.0
O476 O 0.83267 0.71835 0.68334 0.0
O477 O 0.82678 0.64214 0.62895 0.0
O478 O 0.79041 0.64703 0.62865 0.0
O479 O 0.79915 0.68582 0.66084 0.0
C480 C 0.84552 0.69451 0.75282 0.0
C481 C 0.82751 0.66564 0.7521 0.0
C482 C 0.84534 0.69809 0.78717 0.0
C483 C 0.81841 0.65306 0.76879 0.0
C484 C 0.85436 0.71065 0.77043 0.0
C485 C 0.82723 0.66913 0.78656 0.0
C486 C 0.85449 0.70775 0.73518 0.0
C487 C 0.87938 0.71349 0.66553 0.0
H488 H 0.83626 0.69646 0.61423 0.0
H489 H 0.80567 0.63649 0.55299 0.0
H490 H 0.85006 0.71798 0.58455 0.0
H491 H 0.79245 0.61517 0.5828 0.0
H492 H 0.82052 0.65284 0.73859 0.0
H493 H 0.85226 0.7111 0.80058 0.0
H494 H 0.80478 0.6307 0.7678 0.0
H495 H 0.86812 0.73299 0.77124 0.0
Eu496 Eu 0.35108 0.16535 0.65663 0.0
Eu497 Eu 0.32375 0.15501 0.69777 0.0
C498 C 0.29815 0.106 0.66291 0.0
C499 C 0.36403 0.17268 0.6039 0.0
C500 C 0.35395 0.14686 0.59319 0.0
C501 C 0.35743 0.19195 0.57536 0.0
C502 C 0.34561 0.14364 0.57374 0.0
C503 C 0.36592 0.19523 0.59474 0.0
C504 C 0.34717 0.16613 0.56468 0.0
C505 C 0.37322 0.17674 0.62442 0.0
O506 O 0.35485 0.14015 0.70052 0.0
O507 O 0.38208 0.16165 0.67665 0.0
C508 C 0.37764 0.14819 0.69189 0.0
O509 O 0.36608 0.2068 0.67322 0.0
O510 O 0.30258 0.12815 0.71966 0.0
O511 O 0.31132 0.17083 0.72195 0.0
O512 O 0.36563 0.19421 0.7033 0.0
C513 C 0.3752 0.21318 0.69132 0.0
O514 O 0.30879 0.16133 0.65043 0.0
O515 O 0.30492 0.17572 0.68049 0.0
O516 O 0.29346 0.11739 0.67797 0.0
O517 O 0.36827 0.19363 0.63483 0.0
O518 O 0.36883 0.1549 0.63292 0.0
O519 O 0.32071 0.11931 0.65408 0.0
C520 C 0.31275 0.15136 0.75028 0.0
C521 C 0.34158 0.16522 0.75593 0.0
C522 C 0.30337 0.14322 0.783 0.0
C523 C 0.35127 0.16825 0.77508 0.0
C524 C 0.29371 0.14032 0.76387 0.0
C525 C 0.33224 0.15729 0.7888 0.0
C526 C 0.30234 0.14798 0.73026 0.0
C527 C 0.29733 0.17101 0.66209 0.0
H528 H 0.35241 0.12913 0.59979 0.0
H529 H 0.3592 0.20972 0.56867 0.0
H530 H 0.3376 0.12345 0.56584 0.0
H531 H 0.374 0.21547 0.60259 0.0
H532 H 0.35654 0.17365 0.74552 0.0
H533 H 0.28826 0.13482 0.79331 0.0
H534 H 0.37362 0.1789 0.77913 0.0
H535 H 0.27138 0.12951 0.75967 0.0
Eu536 Eu 0.85745 0.1819 0.69216 0.0
Eu537 Eu 0.83223 0.18314 0.64913 0.0
C538 C 0.86525 0.23751 0.67758 0.0
C539 C 0.86161 0.17897 0.74542 0.0
C540 C 0.84165 0.18725 0.74755 0.0
C541 C 0.85894 0.1679 0.77819 0.0
C542 C 0.83085 0.18642 0.76498 0.0
C543 C 0.8699 0.16892 0.76074 0.0
C544 C 0.83967 0.17709 0.78056 0.0
C545 C 0.87421 0.18138 0.7274 0.0
O546 O 0.8776 0.19633 0.64697 0.0
O547 O 0.88804 0.17969 0.67349 0.0
C548 C 0.89382 0.18951 0.65686 0.0
O549 O 0.82552 0.1379 0.68074 0.0
O550 O 0.83368 0.20777 0.62594 0.0
O551 O 0.80395 0.16348 0.62307 0.0
O552 O 0.83198 0.14268 0.64939 0.0
C553 C 0.82354 0.12697 0.6634 0.0
O554 O 0.81875 0.18477 0.69593 0.0
O555 O 0.79499 0.16604 0.6663 0.0
O556 O 0.84167 0.22224 0.66679 0.0
O557 O 0.86224 0.15934 0.71513 0.0
O558 O 0.88061 0.20404 0.71939 0.0
O559 O 0.87905 0.2261 0.68472 0.0
C560 C 0.82532 0.18372 0.59592 0.0
C561 C 0.84358 0.17322 0.59414 0.0
C562 C 0.82834 0.19305 0.56282 0.0
C563 C 0.85413 0.17259 0.57678 0.0
C564 C 0.81775 0.1936 0.58019 0.0
C565 C 0.84669 0.18259 0.56094 0.0
C566 C 0.81575 0.18613 0.61445 0.0
C567 C 0.79538 0.1728 0.6845 0.0
H568 H 0.83479 0.19485 0.73583 0.0
H569 H 0.86622 0.16079 0.79 0.0
H570 H 0.81579 0.19333 0.76635 0.0
H571 H 0.88521 0.16235 0.75932 0.0
H572 H 0.84994 0.16584 0.60625 0.0
H573 H 0.822 0.2006 0.55082 0.0
H574 H 0.86847 0.16472 0.57584 0.0
H575 H 0.80386 0.20198 0.58139 0.0
C576 C 0.2979 0.8748 0.06256 0.0
C577 C 0.29313 0.84881 0.06731 0.0
C578 C 0.32205 0.89274 0.05422 0.0
C579 C 0.34219 0.88471 0.05098 0.0
C580 C 0.33746 0.85845 0.05581 0.0
C581 C 0.31278 0.84064 0.06372 0.0
C582 C 0.32605 0.92032 0.04894 0.0
C583 C 0.35874 0.84943 0.05299 0.0
C584 C 0.39531 0.92244 0.01606 0.0
C585 C 0.41786 0.94315 0.02829 0.0
C586 C 0.37049 0.90318 0.02324 0.0
C587 C 0.3686 0.90425 0.04312 0.0
C588 C 0.3917 0.92462 0.05554 0.0
C589 C 0.41588 0.94405 0.04795 0.0
C590 C 0.34608 0.88213 0.00953 0.0
C591 C 0.39086 0.92605 0.07686 0.0
H592 H 0.28252 0.88094 0.06519 0.0
H593 H 0.30909 0.82056 0.06752 0.0
H594 H 0.34481 0.93762 0.05741 0.0
H595 H 0.32969 0.92238 0.03372 0.0
H596 H 0.30772 0.92276 0.05144 0.0
H597 H 0.35178 0.82827 0.05733 0.0
H598 H 0.36285 0.84958 0.03784 0.0
H599 H 0.37886 0.86436 0.06143 0.0
H600 H 0.39677 0.92179 0.00086 0.0
H601 H 0.43341 0.95986 0.05747 0.0
H602 H 0.32784 0.88513 0.0109 0.0
H603 H 0.33971 0.86073 0.01302 0.0
H604 H 0.35102 0.88384 0.99451 0.0
H605 H 0.37461 0.93109 0.08067 0.0
H606 H 0.41125 0.942 0.08458 0.0
H607 H 0.3851 0.90553 0.0819 0.0
C608 C 0.18134 0.47767 0.06919 0.0
C609 C 0.17554 0.45065 0.07193 0.0
C610 C 0.16057 0.48242 0.06082 0.0
C611 C 0.13362 0.45951 0.05464 0.0
C612 C 0.12798 0.43212 0.05691 0.0
C613 C 0.14891 0.42805 0.06576 0.0
C614 C 0.16725 0.51196 0.05905 0.0
C615 C 0.09978 0.4071 0.05012 0.0
C616 C 0.07088 0.47039 0.04987 0.0
C617 C 0.06815 0.47282 0.03035 0.0
C618 C 0.09232 0.46647 0.05798 0.0
C619 C 0.11109 0.4642 0.04622 0.0
C620 C 0.10816 0.46623 0.02645 0.0
C621 C 0.08696 0.47089 0.01879 0.0
C622 C 0.09507 0.46504 0.07919 0.0
C623 C 0.12728 0.46325 0.01335 0.0
H624 H 0.20189 0.49513 0.07412 0.0
H625 H 0.14452 0.40714 0.06782 0.0
H626 H 0.16368 0.51479 0.04395 0.0
H627 H 0.15305 0.51637 0.06711 0.0
H628 H 0.18922 0.52744 0.06448 0.0
H629 H 0.09929 0.38716 0.05198 0.0
H630 H 0.08341 0.4077 0.05811 0.0
H631 H 0.09429 0.40752 0.03486 0.0
H632 H 0.05658 0.47216 0.05891 0.0
H633 H 0.08485 0.47259 0.00367 0.0
H634 H 0.11629 0.48126 0.0855 0.0
H635 H 0.09253 0.44458 0.08213 0.0
H636 H 0.07933 0.46801 0.08642 0.0
H637 H 0.14928 0.47968 0.01767 0.0
H638 H 0.12185 0.4647 0.99825 0.0
H639 H 0.12613 0.44288 0.01445 0.0
C640 C 0.59369 0.73659 0.03389 0.0
C641 C 0.58654 0.74036 0.05205 0.0
C642 C 0.5858 0.70988 0.02553 0.0
C643 C 0.57032 0.68652 0.03559 0.0
C644 C 0.56251 0.69019 0.05375 0.0
C645 C 0.57073 0.71708 0.06175 0.0
C646 C 0.59454 0.70671 0.00617 0.0
C647 C 0.54583 0.66575 0.06486 0.0
C648 C 0.52934 0.61311 0.01094 0.0
C649 C 0.54676 0.60244 0.01615 0.0
C650 C 0.5372 0.64084 0.01657 0.0
C651 C 0.5631 0.65824 0.0276 0.0
C652 C 0.58127 0.64792 0.03222 0.0
C653 C 0.57286 0.62012 0.02647 0.0
C654 C 0.5173 0.65117 0.01137 0.0
C655 C 0.60914 0.66592 0.04389 0.0
H656 H 0.60604 0.75461 0.02642 0.0
H657 H 0.56477 0.71992 0.07566 0.0
H658 H 0.60886 0.69815 0.00733 0.0
H659 H 0.576 0.69171 0.99634 0.0
H660 H 0.60533 0.72681 0.99984 0.0
H661 H 0.54066 0.67211 0.0785 0.0
H662 H 0.52606 0.65034 0.05627 0.0
H663 H 0.55788 0.65513 0.06801 0.0
H664 H 0.50918 0.5996 0.00291 0.0
H665 H 0.58655 0.61211 0.03043 0.0
H666 H 0.52831 0.67094 0.00474 0.0
H667 H 0.50946 0.65555 0.02445 0.0
H668 H 0.49908 0.63579 0.00142 0.0
H669 H 0.62144 0.68575 0.03753 0.0
H670 H 0.62171 0.65541 0.04503 0.0
H671 H 0.60569 0.67128 0.05845 0.0
C672 C 0.86429 0.27555 0.95389 0.0
C673 C 0.83707 0.27057 0.94953 0.0
C674 C 0.88581 0.30193 0.96171 0.0
C675 C 0.88003 0.3239 0.96469 0.0
C676 C 0.85249 0.31886 0.96029 0.0
C677 C 0.83123 0.2921 0.95297 0.0
C678 C 0.91474 0.30632 0.96667 0.0
C679 C 0.84563 0.34189 0.96287 0.0
C680 C 0.92836 0.38793 0.99868 0.0
C681 C 0.94495 0.40669 0.9862 0.0
C682 C 0.90762 0.36067 0.99192 0.0
C683 C 0.90284 0.35229 0.97215 0.0
C684 C 0.91951 0.3712 0.95948 0.0
C685 C 0.94066 0.39809 0.9667 0.0
C686 C 0.89078 0.34088 0.00593 0.0
C687 C 0.9146 0.36323 0.93826 0.0
H688 H 0.86865 0.25876 0.95118 0.0
H689 H 0.81016 0.28816 0.94935 0.0
H690 H 0.92972 0.32171 0.95784 0.0
H691 H 0.92203 0.31493 0.98177 0.0
H692 H 0.91539 0.28672 0.96441 0.0
H693 H 0.82322 0.33455 0.95862 0.0
H694 H 0.85074 0.35083 0.97795 0.0
H695 H 0.85859 0.35894 0.95423 0.0
H696 H 0.93183 0.39449 0.0138 0.0
H697 H 0.95333 0.41267 0.95701 0.0
H698 H 0.89216 0.32165 0.00418 0.0
H699 H 0.8684 0.33463 0.0031 0.0
H700 H 0.89806 0.35023 0.02091 0.0
H701 H 0.91707 0.34489 0.93493 0.0
H702 H 0.92923 0.38045 0.93033 0.0
H703 H 0.89283 0.35723 0.93304 0.0
C704 C 0.69636 0.52537 0.94697 0.0
C705 C 0.71545 0.55197 0.94223 0.0
C706 C 0.67201 0.52037 0.95525 0.0
C707 C 0.66694 0.54265 0.95929 0.0
C708 C 0.68643 0.56966 0.9548 0.0
C709 C 0.71028 0.57392 0.94614 0.0
C710 C 0.65149 0.49117 0.95943 0.0
C711 C 0.68213 0.59409 0.95918 0.0
C712 C 0.5928 0.52793 0.9643 0.0
C713 C 0.59226 0.52949 0.98412 0.0
C714 C 0.61674 0.53164 0.95605 0.0
C715 C 0.64104 0.53768 0.96789 0.0
C716 C 0.64066 0.53937 0.98792 0.0
C717 C 0.61617 0.53494 0.99579 0.0
C718 C 0.616 0.52905 0.93463 0.0
C719 C 0.66627 0.54631 0.00105 0.0
H720 H 0.70023 0.50833 0.94382 0.0
H721 H 0.72516 0.59456 0.94265 0.0
H722 H 0.64866 0.4908 0.97481 0.0
H723 H 0.63074 0.48413 0.95159 0.0
H724 H 0.65841 0.47612 0.95535 0.0
H725 H 0.69976 0.61393 0.95546 0.0
H726 H 0.66255 0.59041 0.95116 0.0
H727 H 0.67982 0.59637 0.97454 0.0
H728 H 0.57433 0.52348 0.95517 0.0
H729 H 0.61595 0.53632 0.01112 0.0
H730 H 0.62143 0.5131 0.9299 0.0
H731 H 0.63182 0.54908 0.92989 0.0
H732 H 0.59515 0.52323 0.92744 0.0
H733 H 0.67277 0.53065 0.99814 0.0
H734 H 0.66264 0.54701 0.01629 0.0
H735 H 0.68394 0.56683 0.99842 0.0
C736 C 0.42494 0.15012 0.98156 0.0
C737 C 0.43302 0.15979 0.96387 0.0
C738 C 0.43235 0.13166 0.98923 0.0
C739 C 0.44842 0.12302 0.97902 0.0
C740 C 0.45735 0.13346 0.96143 0.0
C741 C 0.44942 0.15163 0.95403 0.0
C742 C 0.42227 0.12076 0.00795 0.0
C743 C 0.4748 0.12499 0.95023 0.0
C744 C 0.48664 0.09083 0.00368 0.0
C745 C 0.46919 0.06252 0.99739 0.0
C746 C 0.47986 0.11077 0.99815 0.0
C747 C 0.45494 0.10211 0.98621 0.0
C748 C 0.43684 0.07349 0.98029 0.0
C749 C 0.44427 0.05405 0.98586 0.0
C750 C 0.49979 0.14115 0.00458 0.0
C751 C 0.40993 0.06345 0.9677 0.0
H752 H 0.41211 0.15631 0.98911 0.0
H753 H 0.45595 0.15941 0.94045 0.0
H754 H 0.40788 0.09791 0.00571 0.0
H755 H 0.44019 0.12455 0.01807 0.0
H756 H 0.41112 0.13056 0.01454 0.0
H757 H 0.48125 0.13614 0.9373 0.0
H758 H 0.49387 0.12923 0.95925 0.0
H759 H 0.46274 0.10229 0.94581 0.0
H760 H 0.50599 0.09754 0.01254 0.0
H761 H 0.43058 0.03219 0.98105 0.0
H762 H 0.48858 0.15052 0.0116 0.0
H763 H 0.50828 0.1526 0.99205 0.0
H764 H 0.51757 0.14431 0.01462 0.0
H765 H 0.39703 0.0713 0.97413 0.0
H766 H 0.39736 0.04038 0.96532 0.0
H767 H 0.41468 0.0718 0.95369 0.0
C768 C 0.6943 0.13891 0.96232 0.0
C769 C 0.69253 0.15579 0.949 0.0
C770 C 0.67071 0.12076 0.97113 0.0
C771 C 0.6451 0.12027 0.96695 0.0
C772 C 0.64353 0.13798 0.95393 0.0
C773 C 0.66717 0.15514 0.94481 0.0
C774 C 0.67296 0.10149 0.98439 0.0
C775 C 0.61685 0.13866 0.94951 0.0
C776 C 0.57599 0.05579 0.97261 0.0
C777 C 0.56993 0.06253 0.99042 0.0
C778 C 0.60079 0.07406 0.9651 0.0
C779 C 0.61951 0.10016 0.97537 0.0
C780 C 0.61342 0.10714 0.99336 0.0
C781 C 0.58886 0.08796 0.00085 0.0
C782 C 0.60686 0.06542 0.94616 0.0
C783 C 0.63242 0.13513 0.00442 0.0
H784 H 0.71391 0.13925 0.9654 0.0
H785 H 0.66594 0.16835 0.93456 0.0
H786 H 0.66674 0.10462 0.99851 0.0
H787 H 0.65837 0.07954 0.97866 0.0
H788 H 0.69448 0.10473 0.98633 0.0
H789 H 0.61982 0.15533 0.94038 0.0
H790 H 0.60046 0.11838 0.94208 0.0
H791 H 0.60895 0.14198 0.96289 0.0
H792 H 0.5614 0.03597 0.96461 0.0
H793 H 0.58399 0.09322 0.01455 0.0
H794 H 0.62785 0.06733 0.94748 0.0
H795 H 0.60713 0.07941 0.93552 0.0
H796 H 0.59109 0.04366 0.94066 0.0
H797 H 0.65378 0.1383 0.00732 0.0
H798 H 0.62469 0.13735 0.01818 0.0
H799 H 0.63418 0.15191 0.99584 0.0
C800 C 0.87863 0.56657 0.94811 0.0
C801 C 0.8496 0.55003 0.94819 0.0
C802 C 0.89682 0.55778 0.95535 0.0
C803 C 0.88569 0.53161 0.96272 0.0
C804 C 0.85631 0.51467 0.96271 0.0
C805 C 0.83858 0.52413 0.95551 0.0
C806 C 0.92799 0.57659 0.95521 0.0
C807 C 0.84364 0.48656 0.9703 0.0
C808 C 0.93358 0.50075 0.96603 0.0
C809 C 0.94431 0.50786 0.98527 0.0
C810 C 0.91395 0.5077 0.9586 0.0
C811 C 0.90496 0.52232 0.97064 0.0
C812 C 0.91544 0.52924 0.99011 0.0
C813 C 0.93487 0.52185 0.99719 0.0
C814 C 0.90315 0.49977 0.93779 0.0
C815 C 0.90659 0.54502 0.0034 0.0
H816 H 0.88718 0.58659 0.94243 0.0
H817 H 0.81613 0.51117 0.95551 0.0
H818 H 0.93843 0.58174 0.96993 0.0
H819 H 0.93677 0.56574 0.94689 0.0
H820 H 0.93327 0.59631 0.949 0.0
H821 H 0.82041 0.4757 0.96899 0.0
H822 H 0.8502 0.47322 0.9625 0.0
H823 H 0.85139 0.48899 0.9855 0.0
H824 H 0.94059 0.48981 0.9567 0.0
H825 H 0.94299 0.52747 0.01207 0.0
H826 H 0.90952 0.51882 0.93046 0.0
H827 H 0.87994 0.48765 0.93617 0.0
H828 H 0.91112 0.48724 0.93055 0.0
H829 H 0.91302 0.56579 0.99854 0.0
H830 H 0.91591 0.54799 0.01829 0.0
H831 H 0.88347 0.5338 0.0032 0.0
C832 C 0.47738 0.309 0.99528 0.0
C833 C 0.45091 0.28945 0.98631 0.0
C834 C 0.48517 0.33716 0.99865 0.0
C835 C 0.46582 0.34575 0.99312 0.0
C836 C 0.43866 0.32584 0.98474 0.0
C837 C 0.43156 0.29791 0.98136 0.0
C838 C 0.51437 0.35784 0.00755 0.0
C839 C 0.41735 0.33417 0.97889 0.0
C840 C 0.47874 0.4159 0.01425 0.0
C841 C 0.49025 0.43254 0.99944 0.0
C842 C 0.4706 0.38757 0.01239 0.0
C843 C 0.47433 0.3757 0.99537 0.0
C844 C 0.48597 0.39239 0.98038 0.0
C845 C 0.49367 0.42059 0.98255 0.0
C846 C 0.45796 0.37033 0.02859 0.0
C847 C 0.49043 0.38047 0.96206 0.0
H848 H 0.49232 0.30242 0.99909 0.0
H849 H 0.41094 0.28278 0.97458 0.0
H850 H 0.52581 0.37301 0.99732 0.0
H851 H 0.51346 0.36981 0.02031 0.0
H852 H 0.52648 0.34762 0.01176 0.0
H853 H 0.39663 0.31591 0.9736 0.0
H854 H 0.41465 0.34576 0.99109 0.0
H855 H 0.42485 0.34828 0.96748 0.0
H856 H 0.47594 0.42496 0.02732 0.0
H857 H 0.50269 0.43336 0.97109 0.0
H858 H 0.47084 0.36129 0.03358 0.0
H859 H 0.43675 0.3527 0.02362 0.0
H860 H 0.45633 0.38269 0.04083 0.0
H861 H 0.50414 0.37159 0.96512 0.0
H862 H 0.50009 0.39635 0.95189 0.0
H863 H 0.47014 0.36328 0.95512 0.0
C864 C 0.16913 0.69834 0.0545 0.0
C865 C 0.15809 0.71473 0.06118 0.0
C866 C 0.15148 0.66992 0.04844 0.0
C867 C 0.12221 0.6578 0.04903 0.0
C868 C 0.11106 0.6743 0.05587 0.0
C869 C 0.12917 0.70256 0.06191 0.0
C870 C 0.16409 0.65292 0.04131 0.0
C871 C 0.07996 0.66219 0.05663 0.0
C872 C 0.07283 0.59283 0.01625 0.0
C873 C 0.06435 0.57203 0.02874 0.0
C874 C 0.09196 0.62074 0.02262 0.0
C875 C 0.10303 0.62807 0.04196 0.0
C876 C 0.09494 0.60716 0.0546 0.0
C877 C 0.07562 0.57937 0.04786 0.0
C878 C 0.09995 0.64246 0.00872 0.0
C879 C 0.10643 0.6142 0.07531 0.0
H880 H 0.19151 0.70764 0.05402 0.0
H881 H 0.12067 0.71525 0.06714 0.0
H882 H 0.15791 0.63479 0.04964 0.0
H883 H 0.15595 0.64461 0.02625 0.0
H884 H 0.1873 0.66526 0.04228 0.0
H885 H 0.07473 0.67776 0.06262 0.0
H886 H 0.06891 0.65406 0.04211 0.0
H887 H 0.0718 0.64442 0.06542 0.0
H888 H 0.06428 0.5874 0.00145 0.0
H889 H 0.06931 0.56343 0.05759 0.0
H890 H 0.123 0.65418 0.00845 0.0
H891 H 0.09353 0.65769 0.01334 0.0
H892 H 0.09007 0.63323 0.99404 0.0
H893 H 0.12964 0.62541 0.07657 0.0
H894 H 0.09893 0.59539 0.0831 0.0
H895 H 0.10013 0.62831 0.08232 0.0
C896 C 0.32421 0.4813 0.06106 0.0
C897 C 0.31328 0.45752 0.07094 0.0
C898 C 0.34951 0.49065 0.05279 0.0
C899 C 0.36408 0.47576 0.05433 0.0
C900 C 0.35309 0.45178 0.06434 0.0
C901 C 0.32792 0.44305 0.07257 0.0
C902 C 0.36064 0.51645 0.04239 0.0
C903 C 0.36783 0.4352 0.06625 0.0
C904 C 0.41542 0.48248 0.01859 0.0
C905 C 0.44136 0.5001 0.02916 0.0
C906 C 0.39014 0.47478 0.02649 0.0
C907 C 0.39072 0.48504 0.0454 0.0
C908 C 0.41681 0.50328 0.05602 0.0
C909 C 0.44176 0.51055 0.0478 0.0
C910 C 0.3628 0.45515 0.01472 0.0
C911 C 0.41841 0.51479 0.0762 0.0
H912 H 0.31308 0.49268 0.05982 0.0
H913 H 0.31952 0.42466 0.08021 0.0
H914 H 0.38196 0.53216 0.04887 0.0
H915 H 0.36241 0.51128 0.02734 0.0
H916 H 0.34706 0.5259 0.04268 0.0
H917 H 0.35651 0.41702 0.07445 0.0
H918 H 0.36994 0.4276 0.05195 0.0
H919 H 0.38927 0.44867 0.07347 0.0
H920 H 0.4148 0.47423 0.00421 0.0
H921 H 0.46161 0.52434 0.05608 0.0
H922 H 0.34926 0.4646 0.01389 0.0
H923 H 0.35143 0.43565 0.02163 0.0
H924 H 0.36587 0.44976 1.00004 0.0
H925 H 0.4062 0.52568 0.07671 0.0
H926 H 0.44028 0.52954 0.08229 0.0
H927 H 0.40898 0.4975 0.08535 0.0
C928 C 0.56705 0.86258 0.03739 0.0
C929 C 0.59375 0.87682 0.04747 0.0
C930 C 0.55345 0.87692 0.03158 0.0
C931 C 0.56701 0.90615 0.03584 0.0
C932 C 0.59423 0.92067 0.04565 0.0
C933 C 0.60723 0.90576 0.05143 0.0
C934 C 0.52434 0.86072 0.02127 0.0
C935 C 0.60941 0.95188 0.0503 0.0
C936 C 0.5412 0.94696 0.00822 0.0
C937 C 0.52555 0.95169 0.02129 0.0
C938 C 0.55475 0.93207 0.01273 0.0
C939 C 0.55232 0.92143 0.03064 0.0
C940 C 0.5361 0.92565 0.04373 0.0
C941 C 0.52301 0.94085 0.03893 0.0
C942 C 0.57206 0.92813 0.99848 0.0
C943 C 0.53278 0.91434 0.06289 0.0
H944 H 0.55646 0.84016 0.03433 0.0
H945 H 0.62788 0.91673 0.05923 0.0
H946 H 0.5094 0.86318 0.02982 0.0
H947 H 0.52374 0.86902 0.00748 0.0
H948 H 0.51707 0.83817 0.01853 0.0
H949 H 0.63097 0.96015 0.05722 0.0
H950 H 0.6106 0.96218 0.03715 0.0
H951 H 0.59765 0.95766 0.05997 0.0
H952 H 0.54337 0.9554 0.9946 0.0
H953 H 0.51085 0.9443 0.04907 0.0
H954 H 0.5644 0.90564 0.99503 0.0
H955 H 0.59414 0.93791 0.0047 0.0
H956 H 0.57147 0.93735 0.98507 0.0
H957 H 0.52409 0.89148 0.06101 0.0
H958 H 0.5188 0.91878 0.07122 0.0
H959 H 0.55352 0.92361 0.07128 0.0
C960 C 0.96611 0.20898 0.39408 0.0
C961 C 0.9599 0.18231 0.39822 0.0
C962 C 0.99037 0.22614 0.38556 0.0
C963 C 0.00914 0.21659 0.38151 0.0
C964 C 0.00287 0.1896 0.38563 0.0
C965 C 0.97812 0.17263 0.39376 0.0
C966 C 0.99608 0.25461 0.38108 0.0
C967 C 0.02267 0.17894 0.38195 0.0
C968 C 0.06356 0.25471 0.34741 0.0
C969 C 0.0864 0.27397 0.3601 0.0
C970 C 0.03821 0.23567 0.35415 0.0
C971 C 0.03607 0.23555 0.37401 0.0
C972 C 0.05949 0.2543 0.38685 0.0
C973 C 0.08421 0.27348 0.37973 0.0
C974 C 0.01349 0.21633 0.34004 0.0
C975 C 0.05837 0.25442 0.40814 0.0
H976 H 0.9518 0.21628 0.39735 0.0
H977 H 0.9733 0.15201 0.39707 0.0
H978 H 0.01521 0.2709 0.38984 0.0
H979 H 0.99995 0.25728 0.36594 0.0
H980 H 0.97846 0.25811 0.38388 0.0
H981 H 0.0143 0.15715 0.38541 0.0
H982 H 0.0269 0.17996 0.36681 0.0
H983 H 0.04299 0.19236 0.39064 0.0
H984 H 0.06521 0.25516 0.33224 0.0
H985 H 0.10196 0.28815 0.3896 0.0
H986 H 0.99621 0.22077 0.34159 0.0
H987 H 0.00556 0.1944 0.34294 0.0
H988 H 0.01879 0.21848 0.3251 0.0
H989 H 0.043 0.26049 0.41237 0.0
H990 H 0.079 0.26907 0.41616 0.0
H991 H 0.05126 0.23323 0.41243 0.0
C992 C 0.82867 0.80188 0.416 0.0
C993 C 0.83788 0.78627 0.4056 0.0
C994 C 0.80797 0.80688 0.40788 0.0
C995 C 0.79581 0.79554 0.38902 0.0
C996 C 0.80509 0.77978 0.37845 0.0
C997 C 0.82622 0.77557 0.38681 0.0
C998 C 0.7991 0.82426 0.41951 0.0
C999 C 0.79235 0.76696 0.35842 0.0
C1000 C 0.72399 0.78659 0.37517 0.0
C1001 C 0.7307 0.80919 0.3645 0.0
C1002 C 0.74491 0.78166 0.38298 0.0
C1003 C 0.77329 0.80009 0.38041 0.0
C1004 C 0.78019 0.82306 0.36978 0.0
C1005 C 0.75881 0.82717 0.36181 0.0
C1006 C 0.73664 0.75668 0.39396 0.0
C1007 C 0.81021 0.8435 0.36701 0.0
H1008 H 0.83782 0.81033 0.43049 0.0
H1009 H 0.83313 0.76325 0.37883 0.0
H1010 H 0.80182 0.84216 0.41185 0.0
H1011 H 0.77657 0.81167 0.42151 0.0
H1012 H 0.81125 0.83232 0.43373 0.0
H1013 H 0.8018 0.75518 0.35215 0.0
H1014 H 0.76951 0.75262 0.35836 0.0
H1015 H 0.79511 0.78341 0.34918 0.0
H1016 H 0.70231 0.77253 0.37723 0.0
H1017 H 0.76421 0.84483 0.35373 0.0
H1018 H 0.74649 0.76356 0.40884 0.0
H1019 H 0.74437 0.74339 0.38758 0.0
H1020 H 0.71361 0.74388 0.39419 0.0
H1021 H 0.82255 0.85295 0.38105 0.0
H1022 H 0.81211 0.86044 0.35853 0.0
H1023 H 0.81974 0.83255 0.35971 0.0
C1024 C 0.25904 0.06461 0.37238 0.0
C1025 C 0.2488 0.06976 0.38882 0.0
C1026 C 0.25025 0.03724 0.36499 0.0
C1027 C 0.23047 0.01471 0.37416 0.0
C1028 C 0.21947 0.0199 0.39044 0.0
C1029 C 0.22894 0.04741 0.39766 0.0
C1030 C 0.26262 0.03243 0.34772 0.0
C1031 C 0.19803 0.99641 0.40042 0.0
C1032 C 0.18944 0.94248 0.34774 0.0
C1033 C 0.20351 0.92949 0.35532 0.0
C1034 C 0.19829 0.9704 0.35349 0.0
C1035 C 0.22177 0.98565 0.36712 0.0
C1036 C 0.23629 0.9728 0.37465 0.0
C1037 C 0.22696 0.94484 0.36867 0.0
C1038 C 0.18225 0.98344 0.34522 0.0
C1039 C 0.26147 0.98849 0.38921 0.0
H1040 H 0.27454 0.082 0.36566 0.0
H1041 H 0.22088 0.05153 0.41029 0.0
H1042 H 0.27427 0.02161 0.35149 0.0
H1043 H 0.24573 0.01875 0.33639 0.0
H1044 H 0.27711 0.05218 0.34193 0.0
H1045 H 0.19071 0.00403 0.41242 0.0
H1046 H 0.17966 0.98213 0.39021 0.0
H1047 H 0.2071 0.98407 0.40604 0.0
H1048 H 0.17135 0.93081 0.33737 0.0
H1049 H 0.238 0.935 0.37457 0.0
H1050 H 0.19655 0.00246 0.33866 0.0
H1051 H 0.17325 0.98989 0.35672 0.0
H1052 H 0.16499 0.96899 0.3343 0.0
H1053 H 0.27749 0.0077 0.38368 0.0
H1054 H 0.27111 0.97581 0.39307 0.0
H1055 H 0.25527 0.99498 0.40232 0.0
C1056 C 0.5148 0.61106 0.3015 0.0
C1057 C 0.50234 0.60655 0.28285 0.0
C1058 C 0.5352 0.63789 0.30942 0.0
C1059 C 0.54293 0.66071 0.29849 0.0
C1060 C 0.52988 0.65631 0.27979 0.0
C1061 C 0.50987 0.62923 0.27215 0.0
C1062 C 0.54891 0.64174 0.32931 0.0
C1063 C 0.53722 0.68017 0.26781 0.0
C1064 C 0.57861 0.73356 0.32424 0.0
C1065 C 0.60664 0.74356 0.32102 0.0
C1066 C 0.55764 0.70663 0.31697 0.0
C1067 C 0.56495 0.68917 0.30647 0.0
C1068 C 0.59325 0.69903 0.30334 0.0
C1069 C 0.61374 0.72621 0.31053 0.0
C1070 C 0.52763 0.697 0.32034 0.0
C1071 C 0.60188 0.68086 0.2924 0.0
H1072 H 0.50914 0.59346 0.3097 0.0
H1073 H 0.50002 0.62573 0.25778 0.0
H1074 H 0.57177 0.65049 0.32897 0.0
H1075 H 0.54601 0.65684 0.33842 0.0
H1076 H 0.54031 0.6219 0.33599 0.0
H1077 H 0.52441 0.67334 0.25381 0.0
H1078 H 0.5341 0.69626 0.27544 0.0
H1079 H 0.55963 0.69015 0.26533 0.0
H1080 H 0.57293 0.74692 0.33222 0.0
H1081 H 0.63539 0.73376 0.30808 0.0
H1082 H 0.5191 0.67801 0.32796 0.0
H1083 H 0.51461 0.69142 0.30652 0.0
H1084 H 0.52543 0.71315 0.32879 0.0
H1085 H 0.59519 0.6613 0.29917 0.0
H1086 H 0.62486 0.69138 0.29169 0.0
H1087 H 0.59134 0.67499 0.27769 0.0
C1088 C 0.3783 0.89566 0.29351 0.0
C1089 C 0.37637 0.88443 0.27486 0.0
C1090 C 0.35427 0.89161 0.30183 0.0
C1091 C 0.3276 0.87545 0.29138 0.0
C1092 C 0.32553 0.86373 0.27262 0.0
C1093 C 0.34997 0.86861 0.26452 0.0
C1094 C 0.35746 0.90493 0.32171 0.0
C1095 C 0.2975 0.84594 0.26114 0.0
C1096 C 0.2637 0.84438 0.31917 0.0
C1097 C 0.25284 0.86206 0.31616 0.0
C1098 C 0.28786 0.84835 0.31108 0.0
C1099 C 0.30188 0.87092 0.30004 0.0
C1100 C 0.29124 0.88909 0.29719 0.0
C1101 C 0.26669 0.88426 0.3051 0.0
C1102 C 0.29816 0.82817 0.31413 0.0
C1103 C 0.30583 0.91369 0.28582 0.0
H1104 H 0.39873 0.90813 0.30145 0.0
H1105 H 0.34843 0.85975 0.25015 0.0
H1106 H 0.34853 0.91892 0.32157 0.0
H1107 H 0.34564 0.8887 0.3312 0.0
H1108 H 0.37968 0.91718 0.32782 0.0
H1109 H 0.29941 0.83768 0.24697 0.0
H1110 H 0.28378 0.82815 0.26898 0.0
H1111 H 0.28695 0.85825 0.25901 0.0
H1112 H 0.25296 0.82701 0.32753 0.0
H1113 H 0.2585 0.89808 0.30278 0.0
H1114 H 0.31978 0.8394 0.32133 0.0
H1115 H 0.29885 0.81841 0.3002 0.0
H1116 H 0.28466 0.81145 0.32283 0.0
H1117 H 0.32785 0.92725 0.29202 0.0
H1118 H 0.29538 0.92634 0.28542 0.0
H1119 H 0.30634 0.9064 0.27101 0.0
C1120 C 0.07229 0.45814 0.30202 0.0
C1121 C 0.09241 0.48474 0.29806 0.0
C1122 C 0.08037 0.44041 0.31008 0.0
C1123 C 0.1092 0.44934 0.31367 0.0
C1124 C 0.12955 0.4765 0.3101 0.0
C1125 C 0.12086 0.494 0.3025 0.0
C1126 C 0.0581 0.41182 0.31412 0.0
C1127 C 0.16047 0.48653 0.31331 0.0
C1128 C 0.13408 0.41008 0.34397 0.0
C1129 C 0.13617 0.39248 0.33001 0.0
C1130 C 0.12469 0.42834 0.33893 0.0
C1131 C 0.11812 0.42949 0.31948 0.0
C1132 C 0.12064 0.41201 0.30534 0.0
C1133 C 0.12928 0.39345 0.31081 0.0
C1134 C 0.1216 0.44623 0.35437 0.0
C1135 C 0.11455 0.41315 0.28442 0.0
H1136 H 0.05029 0.45114 0.29861 0.0
H1137 H 0.13636 0.51452 0.2992 0.0
H1138 H 0.05823 0.3958 0.3041 0.0
H1139 H 0.06248 0.40773 0.32873 0.0
H1140 H 0.03685 0.40932 0.31262 0.0
H1141 H 0.17355 0.50878 0.3109 0.0
H1142 H 0.1661 0.4838 0.32801 0.0
H1143 H 0.16569 0.47388 0.30348 0.0
H1144 H 0.13923 0.40913 0.35883 0.0
H1145 H 0.13118 0.38001 0.3 0.0
H1146 H 0.09984 0.44235 0.35315 0.0
H1147 H 0.13557 0.46856 0.35268 0.0
H1148 H 0.12666 0.44215 0.36884 0.0
H1149 H 0.09248 0.40782 0.28128 0.0
H1150 H 0.11824 0.39863 0.27524 0.0
H1151 H 0.12796 0.43459 0.28054 0.0
C1152 C 0.35762 0.44284 0.28782 0.0
C1153 C 0.37262 0.47198 0.28987 0.0
C1154 C 0.33192 0.42806 0.2954 0.0
C1155 C 0.32088 0.44284 0.30514 0.0
C1156 C 0.33598 0.47231 0.30728 0.0
C1157 C 0.36175 0.48656 0.29965 0.0
C1158 C 0.31649 0.39663 0.29291 0.0
C1159 C 0.32479 0.48877 0.31745 0.0
C1160 C 0.24244 0.40347 0.30811 0.0
C1161 C 0.24077 0.39489 0.32648 0.0
C1162 C 0.26839 0.41967 0.30116 0.0
C1163 C 0.29332 0.42736 0.31282 0.0
C1164 C 0.29183 0.41937 0.33154 0.0
C1165 C 0.26557 0.4033 0.33818 0.0
C1166 C 0.26911 0.42797 0.28116 0.0
C1167 C 0.31796 0.4271 0.34437 0.0
H1168 H 0.36603 0.43158 0.28024 0.0
H1169 H 0.37319 0.50911 0.30121 0.0
H1170 H 0.31268 0.38839 0.307 0.0
H1171 H 0.29576 0.38864 0.28476 0.0
H1172 H 0.32821 0.3883 0.28533 0.0
H1173 H 0.33924 0.51159 0.31808 0.0
H1174 H 0.3043 0.48372 0.31011 0.0
H1175 H 0.32121 0.48295 0.33218 0.0
H1176 H 0.22342 0.39719 0.29898 0.0
H1177 H 0.2645 0.39671 0.35237 0.0
H1178 H 0.27866 0.41841 0.27236 0.0
H1179 H 0.28231 0.45087 0.2813 0.0
H1180 H 0.2479 0.4214 0.27426 0.0
H1181 H 0.32927 0.41733 0.33802 0.0
H1182 H 0.31328 0.42032 0.35881 0.0
H1183 H 0.33228 0.44996 0.34573 0.0
C1184 C 0.54228 0.90404 0.28236 0.0
C1185 C 0.51333 0.88768 0.28297 0.0
C1186 C 0.56064 0.89544 0.28959 0.0
C1187 C 0.54975 0.86965 0.29746 0.0
C1188 C 0.52046 0.85291 0.29801 0.0
C1189 C 0.50257 0.86219 0.29083 0.0
C1190 C 0.59172 0.91403 0.28887 0.0
C1191 C 0.50803 0.82519 0.30613 0.0
C1192 C 0.59689 0.83792 0.30058 0.0
C1193 C 0.6081 0.84538 0.31972 0.0
C1194 C 0.57743 0.84515 0.29324 0.0
C1195 C 0.56915 0.86044 0.30526 0.0
C1196 C 0.58022 0.86785 0.32461 0.0
C1197 C 0.59944 0.86013 0.33162 0.0
C1198 C 0.56595 0.83666 0.27257 0.0
C1199 C 0.57216 0.88438 0.33786 0.0
H1200 H 0.55062 0.92374 0.27626 0.0
H1201 H 0.48018 0.84936 0.29123 0.0
H1202 H 0.60269 0.91958 0.30345 0.0
H1203 H 0.60008 0.90281 0.2805 0.0
H1204 H 0.59682 0.93353 0.2824 0.0
H1205 H 0.48483 0.81448 0.30529 0.0
H1206 H 0.51413 0.81144 0.29835 0.0
H1207 H 0.51641 0.82815 0.32124 0.0
H1208 H 0.60331 0.8264 0.29128 0.0
H1209 H 0.60798 0.86607 0.34641 0.0
H1210 H 0.57209 0.85547 0.26499 0.0
H1211 H 0.54274 0.82462 0.27132 0.0
H1212 H 0.5736 0.82384 0.26531 0.0
H1213 H 0.57844 0.90489 0.3326 0.0
H1214 H 0.58212 0.88792 0.35263 0.0
H1215 H 0.54912 0.87338 0.33815 0.0
C1216 C 0.1041 0.63087 0.2988 0.0
C1217 C 0.1212 0.62646 0.28695 0.0
C1218 C 0.10994 0.65792 0.30456 0.0
C1219 C 0.13389 0.68093 0.29877 0.0
C1220 C 0.15136 0.6765 0.28695 0.0
C1221 C 0.14448 0.6492 0.2809 0.0
C1222 C 0.09041 0.66187 0.3167 0.0
C1223 C 0.1775 0.70055 0.28094 0.0
C1224 C 0.13876 0.75148 0.30022 0.0
C1225 C 0.15418 0.76412 0.31788 0.0
C1226 C 0.13159 0.72417 0.29392 0.0
C1227 C 0.1409 0.70966 0.30532 0.0
C1228 C 0.15692 0.72258 0.32302 0.0
C1229 C 0.163 0.74955 0.32923 0.0
C1230 C 0.11383 0.71075 0.2752 0.0
C1231 C 0.16787 0.70803 0.3353 0.0
H1232 H 0.08584 0.61317 0.30323 0.0
H1233 H 0.15763 0.64561 0.27173 0.0
H1234 H 0.10173 0.67332 0.33065 0.0
H1235 H 0.08284 0.67462 0.30974 0.0
H1236 H 0.07202 0.64176 0.31925 0.0
H1237 H 0.18917 0.69349 0.2721 0.0
H1238 H 0.17202 0.71384 0.27271 0.0
H1239 H 0.19154 0.71375 0.2937 0.0
H1240 H 0.13182 0.76276 0.29152 0.0
H1241 H 0.17522 0.75951 0.3428 0.0
H1242 H 0.09462 0.69118 0.27746 0.0
H1243 H 0.12543 0.70513 0.26528 0.0
H1244 H 0.10761 0.7246 0.26833 0.0
H1245 H 0.15018 0.68876 0.33956 0.0
H1246 H 0.18085 0.72139 0.34837 0.0
H1247 H 0.18069 0.70178 0.3271 0.0
C1248 C 0.83267 0.0342 0.38588 0.0
C1249 C 0.82241 0.05121 0.39273 0.0
C1250 C 0.81442 0.00581 0.38017 0.0
C1251 C 0.78534 0.99434 0.38129 0.0
C1252 C 0.77496 0.01146 0.38827 0.0
C1253 C 0.79367 0.0397 0.39395 0.0
C1254 C 0.82621 0.98811 0.37286 0.0
C1255 C 0.74406 1e-05 0.38958 0.0
C1256 C 0.73455 0.92898 0.34941 0.0
C1257 C 0.72651 0.90849 0.36212 0.0
C1258 C 0.75388 0.95694 0.35544 0.0
C1259 C 0.76557 0.96462 0.37464 0.0
C1260 C 0.75781 0.94404 0.38752 0.0
C1261 C 0.73829 0.9162 0.38112 0.0
C1262 C 0.76154 0.97833 0.34131 0.0
C1263 C 0.76997 0.95149 0.40809 0.0
H1264 H 0.85493 0.043 0.38502 0.0
H1265 H 0.78579 0.05288 0.39931 0.0
H1266 H 0.82008 0.97021 0.3814 0.0
H1267 H 0.81738 0.97949 0.35794 0.0
H1268 H 0.8494 4e-05 0.37337 0.0
H1269 H 0.73947 0.01604 0.39561 0.0
H1270 H 0.73244 0.99166 0.37524 0.0
H1271 H 0.73597 0.98251 0.39861 0.0
H1272 H 0.72557 0.92325 0.3347 0.0
H1273 H 0.73229 0.90048 0.39101 0.0
H1274 H 0.78449 0.9896 0.34054 0.0
H1275 H 0.75574 0.99399 0.34607 0.0
H1276 H 0.75093 0.96886 0.32681 0.0
H1277 H 0.79315 0.96218 0.40898 0.0
H1278 H 0.76236 0.93292 0.41615 0.0
H1279 H 0.76439 0.96619 0.41509 0.0
C1280 C 0.9823 0.80727 0.39019 0.0
C1281 C 0.96995 0.78239 0.39886 0.0
C1282 C 0.00764 0.81634 0.38204 0.0
C1283 C 0.02077 0.8 0.3824 0.0
C1284 C 0.0082 0.77475 0.39101 0.0
C1285 C 0.98307 0.76637 0.39923 0.0
C1286 C 0.02052 0.84354 0.37322 0.0
C1287 C 0.02134 0.75659 0.39158 0.0
C1288 C 0.07384 0.80987 0.34725 0.0
C1289 C 0.09932 0.82547 0.35875 0.0
C1290 C 0.04815 0.80167 0.3547 0.0
C1291 C 0.04788 0.80945 0.37407 0.0
C1292 C 0.07354 0.82561 0.38566 0.0
C1293 C 0.09888 0.8333 0.3779 0.0
C1294 C 0.02125 0.78422 0.34191 0.0
C1295 C 0.07426 0.83455 0.40634 0.0
H1296 H 0.97237 0.81986 0.38995 0.0
H1297 H 0.97356 0.74713 0.40592 0.0
H1298 H 0.04166 0.85801 0.38058 0.0
H1299 H 0.02314 0.84001 0.35808 0.0
H1300 H 0.00765 0.85375 0.37399 0.0
H1301 H 0.00856 0.73723 0.39835 0.0
H1302 H 0.02412 0.75081 0.37693 0.0
H1303 H 0.04242 0.76825 0.3996 0.0
H1304 H 0.07391 0.80362 0.33247 0.0
H1305 H 0.1184 0.84545 0.38693 0.0
H1306 H 0.0086 0.79466 0.34167 0.0
H1307 H 0.00861 0.76385 0.34757 0.0
H1308 H 0.02501 0.78038 0.32709 0.0
H1309 H 0.06298 0.84632 0.40764 0.0
H1310 H 0.09595 0.84779 0.41328 0.0
H1311 H 0.06337 0.81597 0.41422 0.0
C1312 C 0.23529 0.19421 0.37299 0.0
C1313 C 0.26202 0.2083 0.38304 0.0
C1314 C 0.2216 0.20861 0.36755 0.0
C1315 C 0.23508 0.23777 0.37216 0.0
C1316 C 0.26223 0.25214 0.38207 0.0
C1317 C 0.27533 0.23716 0.38748 0.0
C1318 C 0.19257 0.19258 0.35711 0.0
C1319 C 0.27733 0.28328 0.38708 0.0
C1320 C 0.21037 0.27892 0.34401 0.0
C1321 C 0.19426 0.28358 0.35671 0.0
C1322 C 0.22373 0.26399 0.34884 0.0
C1323 C 0.22068 0.25324 0.36673 0.0
C1324 C 0.20407 0.25744 0.37949 0.0
C1325 C 0.19115 0.27268 0.37436 0.0
C1326 C 0.24146 0.26007 0.33493 0.0
C1327 C 0.20011 0.24602 0.39861 0.0
H1328 H 0.22481 0.17184 0.36961 0.0
H1329 H 0.29597 0.24801 0.39529 0.0
H1330 H 0.17762 0.19533 0.36547 0.0
H1331 H 0.19229 0.20079 0.34323 0.0
H1332 H 0.18508 0.16997 0.3545 0.0
H1333 H 0.29863 0.29138 0.39442 0.0
H1334 H 0.27917 0.29391 0.374 0.0
H1335 H 0.26515 0.28887 0.39646 0.0
H1336 H 0.213 0.28739 0.33038 0.0
H1337 H 0.17866 0.27612 0.38423 0.0
H1338 H 0.23366 0.23757 0.33137 0.0
H1339 H 0.26335 0.26959 0.3415 0.0
H1340 H 0.24149 0.26956 0.32153 0.0
H1341 H 0.1913 0.22314 0.39671 0.0
H1342 H 0.18597 0.25053 0.40669 0.0
H1343 H 0.22064 0.25513 0.40725 0.0
C1344 C 0.64815 0.50902 0.72924 0.0
C1345 C 0.6291 0.51767 0.73359 0.0
C1346 C 0.67273 0.52673 0.7212 0.0
C1347 C 0.67795 0.55341 0.71703 0.0
C1348 C 0.65836 0.56191 0.72099 0.0
C1349 C 0.6343 0.54404 0.72944 0.0
C1350 C 0.69342 0.51719 0.7176 0.0
C1351 C 0.66292 0.58998 0.71644 0.0
C1352 C 0.75213 0.61203 0.71465 0.0
C1353 C 0.75404 0.61215 0.69499 0.0
C1354 C 0.7278 0.59248 0.722 0.0
C1355 C 0.70448 0.57299 0.70935 0.0
C1356 C 0.70631 0.57288 0.68946 0.0
C1357 C 0.73128 0.59227 0.6825 0.0
C1358 C 0.72699 0.59288 0.74332 0.0
C1359 C 0.68168 0.55278 0.67553 0.0
H1360 H 0.6441 0.48864 0.73257 0.0
H1361 H 0.61936 0.55055 0.73265 0.0
H1362 H 0.69747 0.51811 0.70243 0.0
H1363 H 0.71368 0.53136 0.72616 0.0
H1364 H 0.68596 0.49562 0.72128 0.0
H1365 H 0.64485 0.5927 0.7193 0.0
H1366 H 0.68186 0.60675 0.72509 0.0
H1367 H 0.66654 0.59266 0.70126 0.0
H1368 H 0.76982 0.62718 0.72437 0.0
H1369 H 0.73269 0.59242 0.6673 0.0
H1370 H 0.72078 0.57195 0.74778 0.0
H1371 H 0.71108 0.59817 0.74755 0.0
H1372 H 0.74752 0.60821 0.75119 0.0
H1373 H 0.67474 0.53105 0.67848 0.0
H1374 H 0.68664 0.55506 0.66054 0.0
H1375 H 0.66381 0.55627 0.67725 0.0
C1376 C 0.47822 0.09505 0.73426 0.0
C1377 C 0.50529 0.11714 0.74004 0.0
C1378 C 0.45753 0.09986 0.7259 0.0
C1379 C 0.46391 0.12749 0.72371 0.0
C1380 C 0.49127 0.1499 0.72957 0.0
C1381 C 0.51175 0.1444 0.73746 0.0
C1382 C 0.42884 0.07535 0.71944 0.0
C1383 C 0.49874 0.17968 0.72786 0.0
C1384 C 0.41781 0.14006 0.68825 0.0
C1385 C 0.39954 0.1427 0.69998 0.0
C1386 C 0.43868 0.13484 0.69575 0.0
C1387 C 0.44182 0.13295 0.71552 0.0
C1388 C 0.42365 0.13599 0.72747 0.0
C1389 C 0.4025 0.14047 0.71951 0.0
C1390 C 0.45716 0.13105 0.68247 0.0
C1391 C 0.42668 0.13474 0.74868 0.0
H1392 H 0.47331 0.07395 0.73617 0.0
H1393 H 0.53266 0.16148 0.7421 0.0
H1394 H 0.41298 0.07675 0.72757 0.0
H1395 H 0.42317 0.0757 0.7042 0.0
H1396 H 0.42765 0.05512 0.72138 0.0
H1397 H 0.52089 0.19472 0.73318 0.0
H1398 H 0.49518 0.18262 0.71279 0.0
H1399 H 0.485 0.18463 0.73605 0.0
H1400 H 0.41549 0.14161 0.67313 0.0
H1401 H 0.38861 0.14279 0.72867 0.0
H1402 H 0.45536 0.1104 0.68354 0.0
H1403 H 0.47938 0.14703 0.68664 0.0
H1404 H 0.45167 0.1326 0.66741 0.0
H1405 H 0.42348 0.11405 0.75166 0.0
H1406 H 0.41151 0.13848 0.75607 0.0
H1407 H 0.44819 0.15052 0.75479 0.0
C1408 C 0.90184 0.38284 0.72874 0.0
C1409 C 0.91784 0.40594 0.71895 0.0
C1410 C 0.89334 0.35582 0.72086 0.0
C1411 C 0.90117 0.35186 0.70278 0.0
C1412 C 0.91701 0.37508 0.69268 0.0
C1413 C 0.92508 0.40191 0.70088 0.0
C1414 C 0.87621 0.33154 0.73198 0.0
C1415 C 0.92585 0.3716 0.67342 0.0
C1416 C 0.90146 0.28426 0.69332 0.0
C1417 C 0.87546 0.26739 0.68268 0.0
C1418 C 0.91056 0.31216 0.69936 0.0
C1419 C 0.89316 0.32336 0.69474 0.0
C1420 C 0.86728 0.3067 0.68352 0.0
C1421 C 0.85877 0.27891 0.67757 0.0
C1422 C 0.9384 0.32939 0.7112 0.0
C1423 C 0.84813 0.31792 0.67839 0.0
H1424 H 0.89588 0.38592 0.7426 0.0
H1425 H 0.93761 0.41982 0.69336 0.0
H1426 H 0.8563 0.31645 0.72339 0.0
H1427 H 0.88777 0.32044 0.73514 0.0
H1428 H 0.87125 0.33816 0.74562 0.0
H1429 H 0.93744 0.3917 0.6672 0.0
H1430 H 0.93943 0.36221 0.67467 0.0
H1431 H 0.90724 0.35716 0.66345 0.0
H1432 H 0.91457 0.27558 0.69722 0.0
H1433 H 0.83866 0.26602 0.66932 0.0
H1434 H 0.935 0.33488 0.72574 0.0
H1435 H 0.95133 0.34917 0.70495 0.0
H1436 H 0.95033 0.31822 0.71237 0.0
H1437 H 0.84071 0.32284 0.69149 0.0
H1438 H 0.82961 0.30288 0.66851 0.0
H1439 H 0.85962 0.33756 0.67167 0.0
C1440 C 0.19587 0.94733 0.62137 0.0
C1441 C 0.16911 0.9428 0.61583 0.0
C1442 C 0.21705 0.97337 0.62992 0.0
C1443 C 0.21141 0.99549 0.63247 0.0
C1444 C 0.18427 0.99087 0.62699 0.0
C1445 C 0.16329 0.96439 0.61892 0.0
C1446 C 0.24553 0.97732 0.63598 0.0
C1447 C 0.17762 0.01409 0.62914 0.0
C1448 C 0.25888 0.05879 0.66728 0.0
C1449 C 0.2766 0.0775 0.6552 0.0
C1450 C 0.23789 0.03182 0.66013 0.0
C1451 C 0.23412 0.02368 0.64037 0.0
C1452 C 0.25191 0.04254 0.6281 0.0
C1453 C 0.2732 0.06914 0.63571 0.0
C1454 C 0.21979 0.01204 0.67371 0.0
C1455 C 0.24815 0.0348 0.60689 0.0
H1456 H 0.20019 0.93045 0.61893 0.0
H1457 H 0.14258 0.96078 0.61441 0.0
H1458 H 0.26133 0.99261 0.62752 0.0
H1459 H 0.2519 0.98584 0.65114 0.0
H1460 H 0.24594 0.95755 0.63411 0.0
H1461 H 0.15541 0.00697 0.62434 0.0
H1462 H 0.18207 0.02295 0.64422 0.0
H1463 H 0.1912 0.03114 0.62071 0.0
H1464 H 0.26162 0.06516 0.68239 0.0
H1465 H 0.28672 0.08366 0.62632 0.0
H1466 H 0.22094 0.99266 0.67234 0.0
H1467 H 0.19761 0.00606 0.67009 0.0
H1468 H 0.22614 0.02126 0.68876 0.0
H1469 H 0.2505 0.01632 0.60386 0.0
H1470 H 0.26348 0.05202 0.59929 0.0
H1471 H 0.22671 0.0291 0.60105 0.0
C1472 C 0.03892 0.23806 0.61297 0.0
C1473 C 0.04391 0.21606 0.60879 0.0
C1474 C 0.0148 0.23364 0.6213 0.0
C1475 C 0.99484 0.20642 0.62512 0.0
C1476 C 0.99974 0.18408 0.6208 0.0
C1477 C 0.0244 0.18924 0.6129 0.0
C1478 C 0.0107 0.25812 0.62605 0.0
C1479 C 0.97871 0.15467 0.62423 0.0
C1480 C 0.94276 0.19763 0.6608 0.0
C1481 C 0.91947 0.19318 0.64885 0.0
C1482 C 0.96747 0.20206 0.65329 0.0
C1483 C 0.96865 0.2013 0.63332 0.0
C1484 C 0.94493 0.19619 0.62119 0.0
C1485 C 0.92079 0.19254 0.62911 0.0
C1486 C 0.99248 0.20807 0.66673 0.0
C1487 C 0.94503 0.19456 0.59982 0.0
H1488 H 0.05414 0.25884 0.60993 0.0
H1489 H 0.02818 0.1722 0.60954 0.0
H1490 H 0.99156 0.25505 0.61776 0.0
H1491 H 0.0077 0.25967 0.64134 0.0
H1492 H 0.02874 0.27811 0.62293 0.0
H1493 H 0.98554 0.13961 0.61998 0.0
H1494 H 0.97524 0.1536 0.63951 0.0
H1495 H 0.95829 0.14818 0.6161 0.0
H1496 H 0.94192 0.19831 0.67607 0.0
H1497 H 0.90277 0.18886 0.61978 0.0
H1498 H 0.01049 0.22869 0.66467 0.0
H1499 H 0.99882 0.19233 0.66359 0.0
H1500 H 0.98822 0.20805 0.68187 0.0
H1501 H 0.96121 0.21482 0.5956 0.0
H1502 H 0.92447 0.18918 0.59236 0.0
H1503 H 0.95047 0.17869 0.5949 0.0
C1504 C 0.75393 0.8143 0.64799 0.0
C1505 C 0.76202 0.82412 0.63032 0.0
C1506 C 0.76219 0.79662 0.65592 0.0
C1507 C 0.77907 0.7888 0.64597 0.0
C1508 C 0.78784 0.79921 0.62835 0.0
C1509 C 0.77912 0.81668 0.6207 0.0
C1510 C 0.75225 0.78573 0.67466 0.0
C1511 C 0.80606 0.79151 0.6174 0.0
C1512 C 0.81911 0.75899 0.67145 0.0
C1513 C 0.80241 0.73052 0.66535 0.0
C1514 C 0.81151 0.77822 0.66558 0.0
C1515 C 0.78652 0.76868 0.65348 0.0
C1516 C 0.76915 0.73989 0.64779 0.0
C1517 C 0.77736 0.72118 0.65373 0.0
C1518 C 0.83061 0.80881 0.67183 0.0
C1519 C 0.7422 0.72889 0.63503 0.0
H1520 H 0.74053 0.81988 0.65537 0.0
H1521 H 0.78573 0.82459 0.60717 0.0
H1522 H 0.73862 0.76276 0.67257 0.0
H1523 H 0.77033 0.79038 0.68493 0.0
H1524 H 0.74033 0.79484 0.68101 0.0
H1525 H 0.81213 0.80243 0.60435 0.0
H1526 H 0.82535 0.79666 0.62652 0.0
H1527 H 0.79477 0.76875 0.61322 0.0
H1528 H 0.83854 0.76637 0.68039 0.0
H1529 H 0.76422 0.69919 0.64907 0.0
H1530 H 0.81878 0.81766 0.6786 0.0
H1531 H 0.83893 0.82018 0.65924 0.0
H1532 H 0.84853 0.81269 0.68203 0.0
H1533 H 0.7287 0.73614 0.64123 0.0
H1534 H 0.7303 0.70579 0.63279 0.0
H1535 H 0.74683 0.7371 0.62097 0.0
C1536 C 0.01923 0.78289 0.61482 0.0
C1537 C 0.03411 0.81202 0.61733 0.0
C1538 C 0.99444 0.76763 0.62336 0.0
C1539 C 0.98419 0.78191 0.63454 0.0
C1540 C 0.99916 0.81137 0.63712 0.0
C1541 C 0.02402 0.82611 0.62852 0.0
C1542 C 0.97914 0.73622 0.62033 0.0
C1543 C 0.98875 0.82731 0.6488 0.0
C1544 C 0.90655 0.742 0.6403 0.0
C1545 C 0.90633 0.73275 0.65836 0.0
C1546 C 0.93176 0.75853 0.63258 0.0
C1547 C 0.95744 0.76593 0.64312 0.0
C1548 C 0.95744 0.75722 0.66154 0.0
C1549 C 0.93187 0.7408 0.66898 0.0
C1550 C 0.93085 0.76756 0.61295 0.0
C1551 C 0.98441 0.76459 0.67316 0.0
H1552 H 0.02705 0.77201 0.60619 0.0
H1553 H 0.03538 0.84866 0.63045 0.0
H1554 H 0.97657 0.72747 0.63426 0.0
H1555 H 0.95788 0.72834 0.61307 0.0
H1556 H 0.99028 0.7283 0.61167 0.0
H1557 H 0.00304 0.85019 0.64966 0.0
H1558 H 0.96777 0.8224 0.64249 0.0
H1559 H 0.98645 0.8209 0.66344 0.0
H1560 H 0.88695 0.73604 0.63201 0.0
H1561 H 0.9319 0.73368 0.68291 0.0
H1562 H 0.93988 0.75854 0.60316 0.0
H1563 H 0.94375 0.79054 0.61341 0.0
H1564 H 0.90921 0.76098 0.60693 0.0
H1565 H 0.99525 0.75519 0.66566 0.0
H1566 H 0.9809 0.75717 0.68753 0.0
H1567 H 0.99865 0.78747 0.67479 0.0
C1568 C 0.1688 0.19121 0.62405 0.0
C1569 C 0.17942 0.21695 0.61655 0.0
C1570 C 0.1869 0.18229 0.63143 0.0
C1571 C 0.21622 0.19962 0.63141 0.0
C1572 C 0.22694 0.22562 0.62386 0.0
C1573 C 0.2084 0.23388 0.61646 0.0
C1574 C 0.17468 0.15434 0.63924 0.0
C1575 C 0.25804 0.24481 0.62367 0.0
C1576 C 0.26611 0.19126 0.66614 0.0
C1577 C 0.27581 0.17739 0.65434 0.0
C1578 C 0.24636 0.19817 0.65893 0.0
C1579 C 0.23586 0.19087 0.63948 0.0
C1580 C 0.24512 0.17638 0.62757 0.0
C1581 C 0.26505 0.1699 0.63512 0.0
C1582 C 0.2372 0.21383 0.67207 0.0
C1583 C 0.23429 0.16807 0.60677 0.0
H1584 H 0.14639 0.17796 0.62406 0.0
H1585 H 0.21663 0.25377 0.61064 0.0
H1586 H 0.18151 0.14114 0.63156 0.0
H1587 H 0.18253 0.1571 0.65445 0.0
H1588 H 0.15144 0.14316 0.63796 0.0
H1589 H 0.26298 0.26434 0.61731 0.0
H1590 H 0.26852 0.25027 0.63839 0.0
H1591 H 0.26708 0.23412 0.61546 0.0
H1592 H 0.27425 0.19716 0.681 0.0
H1593 H 0.27225 0.15903 0.6259 0.0
H1594 H 0.21409 0.20231 0.6719 0.0
H1595 H 0.24329 0.23443 0.66705 0.0
H1596 H 0.24661 0.21712 0.68697 0.0
H1597 H 0.2111 0.15568 0.60518 0.0
H1598 H 0.2425 0.15566 0.59966 0.0
H1599 H 0.24039 0.18696 0.5993 0.0
C1600 C 0.77412 0.96505 0.64675 0.0
C1601 C 0.74685 0.94982 0.63759 0.0
C1602 C 0.78674 0.99383 0.65167 0.0
C1603 C 0.77162 0.00756 0.64744 0.0
C1604 C 0.74383 0.99213 0.63861 0.0
C1605 C 0.73182 0.96341 0.63371 0.0
C1606 C 0.81648 0.00964 0.66097 0.0
C1607 C 0.72698 0.00604 0.63403 0.0
C1608 C 0.79654 0.07887 0.67328 0.0
C1609 C 0.81072 0.09647 0.65948 0.0
C1610 C 0.78363 0.04985 0.66955 0.0
C1611 C 0.78521 0.03823 0.65167 0.0
C1612 C 0.79973 0.05588 0.63775 0.0
C1613 C 0.81221 0.0848 0.64179 0.0
C1614 C 0.76812 0.03164 0.68467 0.0
C1615 C 0.80207 0.04423 0.61858 0.0
H1616 H 0.7859 0.95466 0.64974 0.0
H1617 H 0.71073 0.95159 0.62662 0.0
H1618 H 0.83007 0.02523 0.65164 0.0
H1619 H 0.81757 0.0212 0.6746 0.0
H1620 H 0.82504 0.99573 0.66382 0.0
H1621 H 0.70522 0.99086 0.62798 0.0
H1622 H 0.72623 0.01765 0.64706 0.0
H1623 H 0.7372 0.02137 0.62365 0.0
H1624 H 0.79518 0.08772 0.68695 0.0
H1625 H 0.82323 0.09827 0.63108 0.0
H1626 H 0.77723 0.01848 0.68838 0.0
H1627 H 0.74591 0.0174 0.67916 0.0
H1628 H 0.76885 0.04396 0.69783 0.0
H1629 H 0.81209 0.03138 0.62045 0.0
H1630 H 0.81447 0.06082 0.60944 0.0
H1631 H 0.78091 0.03044 0.61104 0.0
C1632 C 0.46411 0.37355 0.72982 0.0
C1633 C 0.49282 0.38501 0.7285 0.0
C1634 C 0.44537 0.34524 0.72439 0.0
C1635 C 0.45569 0.32799 0.71756 0.0
C1636 C 0.48477 0.33939 0.71642 0.0
C1637 C 0.50305 0.36787 0.72188 0.0
C1638 C 0.41449 0.33389 0.7257 0.0
C1639 C 0.49649 0.32157 0.70927 0.0
C1640 C 0.40786 0.24988 0.71718 0.0
C1641 C 0.39615 0.2424 0.69816 0.0
C1642 C 0.42768 0.27763 0.72366 0.0
C1643 C 0.43581 0.29831 0.71083 0.0
C1644 C 0.42421 0.29084 0.69162 0.0
C1645 C 0.40459 0.263 0.68551 0.0
C1646 C 0.43973 0.28486 0.74424 0.0
C1647 C 0.43223 0.31234 0.67754 0.0
H1648 H 0.45625 0.38683 0.73502 0.0
H1649 H 0.52529 0.37664 0.72096 0.0
H1650 H 0.40288 0.32569 0.71134 0.0
H1651 H 0.4063 0.31631 0.73467 0.0
H1652 H 0.40998 0.34994 0.73179 0.0
H1653 H 0.5197 0.33338 0.70996 0.0
H1654 H 0.49007 0.30358 0.71776 0.0
H1655 H 0.48789 0.31307 0.6943 0.0
H1656 H 0.40156 0.23407 0.72702 0.0
H1657 H 0.39569 0.25745 0.67079 0.0
H1658 H 0.43421 0.29958 0.75128 0.0
H1659 H 0.4629 0.29545 0.7452 0.0
H1660 H 0.43196 0.2662 0.75222 0.0
H1661 H 0.42654 0.32809 0.68226 0.0
H1662 H 0.42175 0.30299 0.66299 0.0
H1663 H 0.4552 0.32346 0.67688 0.0
C1664 C 0.65228 0.14604 0.72619 0.0
C1665 C 0.64137 0.12171 0.73549 0.0
C1666 C 0.6773 0.15561 0.71755 0.0
C1667 C 0.69161 0.1404 0.71812 0.0
C1668 C 0.68058 0.1158 0.72748 0.0
C1669 C 0.65569 0.10685 0.7361 0.0
C1670 C 0.6885 0.18205 0.70787 0.0
C1671 C 0.69507 0.09888 0.72836 0.0
C1672 C 0.74287 0.14911 0.68184 0.0
C1673 C 0.76878 0.16598 0.69262 0.0
C1674 C 0.71759 0.14105 0.68985 0.0
C1675 C 0.7182 0.15017 0.70907 0.0
C1676 C 0.74428 0.16775 0.71988 0.0
C1677 C 0.7692 0.17538 0.71156 0.0
C1678 C 0.69024 0.12215 0.67787 0.0
C1679 C 0.7459 0.17807 0.74039 0.0
H1680 H 0.64139 0.15772 0.72573 0.0
H1681 H 0.64729 0.08804 0.74329 0.0
H1682 H 0.70981 0.19747 0.71452 0.0
H1683 H 0.69029 0.17772 0.69268 0.0
H1684 H 0.67495 0.19151 0.70869 0.0
H1685 H 0.68361 0.08008 0.73597 0.0
H1686 H 0.69714 0.09222 0.71375 0.0
H1687 H 0.71652 0.11181 0.73568 0.0
H1688 H 0.74226 0.14166 0.66724 0.0
H1689 H 0.78905 0.18855 0.72001 0.0
H1690 H 0.67674 0.13167 0.67773 0.0
H1691 H 0.67883 0.1021 0.68415 0.0
H1692 H 0.69329 0.11776 0.66296 0.0
H1693 H 0.73365 0.18886 0.74156 0.0
H1694 H 0.76778 0.1926 0.74658 0.0
H1695 H 0.73655 0.16017 0.74904 0.0
C1696 C 0.89885 0.52898 0.70433 0.0
C1697 C 0.92573 0.54285 0.71416 0.0
C1698 C 0.88563 0.54374 0.69868 0.0
C1699 C 0.89972 0.57301 0.70287 0.0
C1700 C 0.92709 0.58714 0.71246 0.0
C1701 C 0.93972 0.57183 0.71807 0.0
C1702 C 0.85636 0.52796 0.68859 0.0
C1703 C 0.94284 0.61838 0.71704 0.0
C1704 C 0.87522 0.61503 0.67548 0.0
C1705 C 0.86012 0.62041 0.68867 0.0
C1706 C 0.88808 0.59945 0.67985 0.0
C1707 C 0.88554 0.58881 0.69776 0.0
C1708 C 0.86983 0.59365 0.71097 0.0
C1709 C 0.85741 0.6095 0.7063 0.0
C1710 C 0.90482 0.59483 0.66545 0.0
C1711 C 0.86643 0.58238 0.73014 0.0
H1712 H 0.88788 0.50653 0.70133 0.0
H1713 H 0.9605 0.58252 0.72568 0.0
H1714 H 0.8418 0.53091 0.69726 0.0
H1715 H 0.85576 0.53622 0.67478 0.0
H1716 H 0.84861 0.5053 0.68592 0.0
H1717 H 0.96438 0.62628 0.72387 0.0
H1718 H 0.94415 0.62867 0.70387 0.0
H1719 H 0.93143 0.62457 0.72676 0.0
H1720 H 0.87751 0.62348 0.66185 0.0
H1721 H 0.84566 0.61344 0.71654 0.0
H1722 H 0.89665 0.57223 0.66209 0.0
H1723 H 0.92694 0.60424 0.6715 0.0
H1724 H 0.90426 0.60401 0.65201 0.0
H1725 H 0.85729 0.55946 0.72829 0.0
H1726 H 0.8528 0.58727 0.73855 0.0
H1727 H 0.88719 0.5913 0.73844 0.0
C1728 C 0.43309 0.94003 0.21772 0.0
C1729 C 0.43728 0.91775 0.22135 0.0
C1730 C 0.44017 0.9527 0.20073 0.0
C1731 C 0.45168 0.94284 0.18702 0.0
C1732 C 0.45527 0.9199 0.1904 0.0
C1733 C 0.44804 0.90765 0.2075 0.0
C1734 C 0.43604 0.97712 0.19768 0.0
C1735 C 0.4673 0.90864 0.1761 0.0
C1736 C 0.45192 0.96203 0.13622 0.0
C1737 C 0.47952 0.98394 0.13616 0.0
C1738 C 0.44248 0.94857 0.15268 0.0
C1739 C 0.46107 0.95722 0.16952 0.0
C1740 C 0.48889 0.97941 0.16959 0.0
C1741 C 0.49777 0.99247 0.15293 0.0
C1742 C 0.41265 0.92505 0.15203 0.0
C1743 C 0.5094 0.9892 0.18722 0.0
H1744 H 0.42506 0.94813 0.22843 0.0
H1745 H 0.45092 0.89017 0.21008 0.0
H1746 H 0.45662 0.99606 0.19697 0.0
H1747 H 0.42336 0.97325 0.18392 0.0
H1748 H 0.4255 0.98132 0.20924 0.0
H1749 H 0.46774 0.89 0.18053 0.0
H1750 H 0.45484 0.90302 0.16204 0.0
H1751 H 0.48897 0.92492 0.17421 0.0
H1752 H 0.43756 0.95555 0.12341 0.0
H1753 H 0.51923 0.00909 0.15296 0.0
H1754 H 0.40167 0.93 0.16288 0.0
H1755 H 0.41237 0.90573 0.15554 0.0
H1756 H 0.40079 0.92092 0.13786 0.0
H1757 H 0.50098 0.99549 0.19919 0.0
H1758 H 0.53011 0.00709 0.18505 0.0
H1759 H 0.51241 0.97192 0.19153 0.0
C1760 C 0.05893 0.48728 0.22643 0.0
C1761 C 0.05061 0.50133 0.23921 0.0
C1762 C 0.04875 0.48156 0.20711 0.0
C1763 C 0.02985 0.49014 0.20049 0.0
C1764 C 0.02039 0.50317 0.21348 0.0
C1765 C 0.03089 0.50861 0.23271 0.0
C1766 C 0.05927 0.46758 0.19366 0.0
C1767 C 1.0001 0.51246 0.20696 0.0
C1768 C 0.02967 0.50726 0.14946 0.0
C1769 C 0.0055 0.48361 0.14069 0.0
C1770 C 0.03794 0.50948 0.16887 0.0
C1771 C 0.02164 0.48748 0.17979 0.0
C1772 C 0.99738 0.46339 0.17101 0.0
C1773 C 0.98959 0.46174 0.15153 0.0
C1774 C 0.06403 0.53546 0.17774 0.0
C1775 C 0.9795 0.43958 0.18223 0.0
H1776 H 0.07438 0.48186 0.23136 0.0
H1777 H 0.02415 0.51915 0.24262 0.0
H1778 H 0.04147 0.44976 0.1848 0.0
H1779 H 0.07247 0.48254 0.18387 0.0
H1780 H 0.07186 0.45993 0.20131 0.0
H1781 H 0.99315 0.5203 0.21906 0.0
H1782 H 0.01017 0.52932 0.19755 0.0
H1783 H 0.98141 0.495 0.19854 0.0
H1784 H 0.04225 0.52402 0.14107 0.0
H1785 H 0.97072 0.44353 0.14485 0.0
H1786 H 0.07903 0.5299 0.18439 0.0
H1787 H 0.05864 0.54596 0.18917 0.0
H1788 H 0.07459 0.55046 0.1672 0.0
H1789 H 0.99238 0.43186 0.18935 0.0
H1790 H 0.96177 0.42195 0.17315 0.0
H1791 H 0.97096 0.44691 0.19356 0.0
C1792 C 0.49956 0.5397 0.22508 0.0
C1793 C 0.47232 0.53207 0.22921 0.0
C1794 C 0.50493 0.53388 0.20679 0.0
C1795 C 0.48245 0.51961 0.1923 0.0
C1796 C 0.45472 0.51047 0.19659 0.0
C1797 C 0.44998 0.51697 0.21499 0.0
C1798 C 0.53483 0.54412 0.20277 0.0
C1799 C 0.43018 0.49484 0.18157 0.0
C1800 C 0.50099 0.53564 0.14211 0.0
C1801 C 0.50436 0.5133 0.13563 0.0
C1802 C 0.49323 0.53757 0.16038 0.0
C1803 C 0.48838 0.51643 0.17238 0.0
C1804 C 0.49088 0.49334 0.1657 0.0
C1805 C 0.49911 0.49217 0.14743 0.0
C1806 C 0.4912 0.56274 0.16706 0.0
C1807 C 0.48536 0.47018 0.17798 0.0
H1808 H 0.51685 0.55079 0.23611 0.0
H1809 H 0.42889 0.51112 0.218 0.0
H1810 H 0.53694 0.52673 0.19626 0.0
H1811 H 0.54086 0.55991 0.19242 0.0
H1812 H 0.54975 0.55363 0.21583 0.0
H1813 H 0.40982 0.48635 0.1877 0.0
H1814 H 0.43097 0.50898 0.17089 0.0
H1815 H 0.4312 0.47741 0.17395 0.0
H1816 H 0.50535 0.55215 0.13309 0.0
H1817 H 0.50148 0.47476 0.14235 0.0
H1818 H 0.50697 0.57464 0.17941 0.0
H1819 H 0.4703 0.55615 0.17189 0.0
H1820 H 0.49472 0.57685 0.15575 0.0
H1821 H 0.50123 0.4783 0.19053 0.0
H1822 H 0.48605 0.45266 0.17014 0.0
H1823 H 0.46457 0.46209 0.18338 0.0
C1824 C 0.94838 0.48723 0.78906 0.0
C1825 C 0.95874 0.47528 0.77624 0.0
C1826 C 0.95725 0.49186 0.80859 0.0
C1827 C 0.97695 0.48436 0.81538 0.0
C1828 C 0.98803 0.47298 0.80243 0.0
C1829 C 0.97879 0.46858 0.78301 0.0
C1830 C 0.94499 0.50405 0.822 0.0
C1831 C 0.00921 0.46489 0.80913 0.0
C1832 C 0.01722 0.51466 0.86413 0.0
C1833 C 0.00258 0.49259 0.87514 0.0
C1834 C 0.00889 0.51243 0.8447 0.0
C1835 C 0.98535 0.48755 0.8361 0.0
C1836 C 0.97024 0.46535 0.84718 0.0
C1837 C 0.97904 0.46814 0.86658 0.0
C1838 C 0.02543 0.53658 0.83334 0.0
C1839 C 0.94504 0.43846 0.83847 0.0
H1840 H 0.93264 0.49214 0.78391 0.0
H1841 H 0.9871 0.45966 0.77308 0.0
H1842 H 0.93281 0.48863 0.83188 0.0
H1843 H 0.96195 0.52266 0.83078 0.0
H1844 H 0.931 0.51009 0.81434 0.0
H1845 H 0.01646 0.45717 0.79715 0.0
H1846 H 0.02764 0.483 0.81729 0.0
H1847 H 0.9999 0.44834 0.81885 0.0
H1848 H 0.03517 0.53378 0.87075 0.0
H1849 H 0.96782 0.45093 0.87498 0.0
H1850 H 0.01149 0.54327 0.82647 0.0
H1851 H 0.03432 0.53003 0.82182 0.0
H1852 H 0.04283 0.55473 0.84228 0.0
H1853 H 0.92925 0.44274 0.83151 0.0
H1854 H 0.93508 0.42355 0.84917 0.0
H1855 H 0.95132 0.42844 0.8273 0.0
C1856 C 0.58866 0.51273 0.80197 0.0
C1857 C 0.56774 0.50018 0.78663 0.0
C1858 C 0.58226 0.51786 0.82015 0.0
C1859 C 0.55431 0.51015 0.82299 0.0
C1860 C 0.53342 0.49876 0.80734 0.0
C1861 C 0.54043 0.49403 0.78935 0.0
C1862 C 0.60514 0.5303 0.83647 0.0
C1863 C 0.50338 0.49034 0.80975 0.0
C1864 C 0.52821 0.48994 0.87113 0.0
C1865 C 0.52695 0.51328 0.87829 0.0
C1866 C 0.5377 0.48897 0.85333 0.0
C1867 C 0.5463 0.51196 0.84247 0.0
C1868 C 0.54572 0.53587 0.84981 0.0
C1869 C 0.53594 0.5362 0.86762 0.0
C1870 C 0.5378 0.463 0.84591 0.0
C1871 C 0.55498 0.56087 0.83872 0.0
H1872 H 0.60977 0.51739 0.79997 0.0
H1873 H 0.5243 0.4848 0.77744 0.0
H1874 H 0.60494 0.54788 0.84457 0.0
H1875 H 0.60142 0.51439 0.84643 0.0
H1876 H 0.6262 0.53789 0.83157 0.0
H1877 H 0.49006 0.4834 0.79595 0.0
H1878 H 0.49457 0.47305 0.81896 0.0
H1879 H 0.50223 0.50797 0.8169 0.0
H1880 H 0.52104 0.47209 0.87925 0.0
H1881 H 0.53537 0.55444 0.87325 0.0
H1882 H 0.55895 0.46836 0.84214 0.0
H1883 H 0.52316 0.4533 0.83276 0.0
H1884 H 0.53152 0.4474 0.85644 0.0
H1885 H 0.5764 0.56808 0.83466 0.0
H1886 H 0.55482 0.57843 0.84692 0.0
H1887 H 0.54092 0.55504 0.82536 0.0
C1888 C 0.55513 0.08752 0.80824 0.0
C1889 C 0.53463 0.07779 0.79264 0.0
C1890 C 0.54908 0.07549 0.82552 0.0
C1891 C 0.52184 0.05325 0.82729 0.0
C1892 C 0.50125 0.04296 0.81148 0.0
C1893 C 0.5079 0.05528 0.79436 0.0
C1894 C 0.57164 0.087 0.84203 0.0
C1895 C 0.47199 0.01924 0.81275 0.0
C1896 C 0.50981 0.00671 0.86725 0.0
C1897 C 0.49918 0.01772 0.8806 0.0
C1898 C 0.51759 0.01825 0.84995 0.0
C1899 C 0.51456 0.04129 0.84584 0.0
C1900 C 0.50399 0.05259 0.85929 0.0
C1901 C 0.49648 0.04071 0.8765 0.0
C1902 C 0.52897 0.00573 0.83605 0.0
C1903 C 0.50027 0.07704 0.8554 0.0
H1904 H 0.57573 0.10509 0.80712 0.0
H1905 H 0.49207 0.04733 0.7823 0.0
H1906 H 0.56543 0.09608 0.85385 0.0
H1907 H 0.57428 0.07005 0.84748 0.0
H1908 H 0.59212 0.10335 0.83806 0.0
H1909 H 0.45861 0.0132 0.79902 0.0
H1910 H 0.47276 0.00078 0.81714 0.0
H1911 H 0.46199 0.02527 0.82376 0.0
H1912 H 0.51233 0.98919 0.87043 0.0
H1913 H 0.48798 0.04914 0.88663 0.0
H1914 H 0.55005 0.02185 0.83289 0.0
H1915 H 0.51529 0.99806 0.82242 0.0
H1916 H 0.5305 0.98816 0.84153 0.0
H1917 H 0.5205 0.09495 0.85255 0.0
H1918 H 0.49226 0.08369 0.86747 0.0
H1919 H 0.4854 0.07151 0.8425 0.0
C1920 C 0.103 0.27516 0.5533 0.0
C1921 C 0.10624 0.25215 0.55629 0.0
C1922 C 0.11007 0.28822 0.53645 0.0
C1923 C 0.12064 0.27804 0.52225 0.0
C1924 C 0.12344 0.2545 0.52504 0.0
C1925 C 0.11617 0.24184 0.54198 0.0
C1926 C 0.10676 0.31326 0.534 0.0
C1927 C 0.13452 0.2429 0.51022 0.0
C1928 C 0.11974 0.29715 0.47153 0.0
C1929 C 0.14756 0.31835 0.47103 0.0
C1930 C 0.11055 0.28413 0.48817 0.0
C1931 C 0.12964 0.29245 0.50472 0.0
C1932 C 0.15766 0.31402 0.50436 0.0
C1933 C 0.16626 0.3267 0.48754 0.0
C1934 C 0.08048 0.2613 0.488 0.0
C1935 C 0.1787 0.3234 0.52167 0.0
H1936 H 0.09557 0.28341 0.56435 0.0
H1937 H 0.11826 0.22376 0.54403 0.0
H1938 H 0.12753 0.33181 0.53301 0.0
H1939 H 0.09363 0.30986 0.52055 0.0
H1940 H 0.09709 0.31784 0.54598 0.0
H1941 H 0.13479 0.22407 0.51437 0.0
H1942 H 0.12149 0.23747 0.49642 0.0
H1943 H 0.15612 0.25891 0.50795 0.0
H1944 H 0.10505 0.29084 0.45891 0.0
H1945 H 0.18787 0.34279 0.48722 0.0
H1946 H 0.07042 0.26661 0.49934 0.0
H1947 H 0.07965 0.24157 0.49106 0.0
H1948 H 0.06811 0.25772 0.47412 0.0
H1949 H 0.17096 0.32989 0.53394 0.0
H1950 H 0.19945 0.34103 0.51924 0.0
H1951 H 0.18144 0.30583 0.52565 0.0
C1952 C 0.73671 0.84216 0.56007 0.0
C1953 C 0.72191 0.84729 0.57362 0.0
C1954 C 0.72764 0.83777 0.5406 0.0
C1955 C 0.70308 0.83835 0.53458 0.0
C1956 C 0.68784 0.84314 0.54822 0.0
C1957 C 0.69751 0.84766 0.56759 0.0
C1958 C 0.74456 0.83296 0.52646 0.0
C1959 C 0.66142 0.84365 0.54234 0.0
C1960 C 0.69342 0.85411 0.48414 0.0
C1961 C 0.67517 0.82743 0.47499 0.0
C1962 C 0.70287 0.85793 0.5035 0.0
C1963 C 0.69363 0.83451 0.51398 0.0
C1964 C 0.67525 0.8075 0.5048 0.0
C1965 C 0.66633 0.80427 0.48538 0.0
C1966 C 0.72271 0.88703 0.51275 0.0
C1967 C 0.66478 0.78206 0.51556 0.0
H1968 H 0.75576 0.84219 0.56469 0.0
H1969 H 0.68589 0.85134 0.57806 0.0
H1970 H 0.73125 0.81289 0.51759 0.0
H1971 H 0.75215 0.84962 0.51672 0.0
H1972 H 0.76289 0.83266 0.53349 0.0
H1973 H 0.65162 0.8469 0.55475 0.0
H1974 H 0.66615 0.86057 0.53308 0.0
H1975 H 0.64603 0.82377 0.53392 0.0
H1976 H 0.70054 0.87202 0.47608 0.0
H1977 H 0.65198 0.78365 0.47837 0.0
H1978 H 0.74223 0.88833 0.51904 0.0
H1979 H 0.71312 0.89213 0.52451 0.0
H1980 H 0.72826 0.90297 0.50252 0.0
H1981 H 0.68271 0.78057 0.522 0.0
H1982 H 0.65067 0.76252 0.50631 0.0
H1983 H 0.65329 0.78386 0.52738 0.0
C1984 C 0.14672 0.8954 0.54529 0.0
C1985 C 0.13623 0.87505 0.55808 0.0
C1986 C 0.15263 0.88947 0.5272 0.0
C1987 C 0.14788 0.86248 0.52173 0.0
C1988 C 0.13661 0.84159 0.53437 0.0
C1989 C 0.13086 0.84812 0.55242 0.0
C1990 C 0.16444 0.91227 0.51409 0.0
C1991 C 0.13127 0.81258 0.529 0.0
C1992 C 0.14461 0.84397 0.46878 0.0
C1993 C 0.17201 0.84958 0.46698 0.0
C1994 C 0.13621 0.84737 0.48659 0.0
C1995 C 0.15567 0.85658 0.50299 0.0
C1996 C 0.18317 0.86171 0.50133 0.0
C1997 C 0.19101 0.85817 0.48334 0.0
C1998 C 0.10669 0.84163 0.4878 0.0
C1999 C 0.20455 0.87165 0.51848 0.0
H2000 H 0.15041 0.91611 0.54947 0.0
H2001 H 0.12288 0.83238 0.56231 0.0
H2002 H 0.18557 0.91664 0.51094 0.0
H2003 H 0.15105 0.90547 0.50035 0.0
H2004 H 0.16609 0.9319 0.5203 0.0
H2005 H 0.12112 0.79836 0.54004 0.0
H2006 H 0.11774 0.80371 0.51534 0.0
H2007 H 0.15135 0.81336 0.52688 0.0
H2008 H 0.12968 0.83687 0.45624 0.0
H2009 H 0.21229 0.86282 0.48204 0.0
H2010 H 0.1071 0.86109 0.49289 0.0
H2011 H 0.09646 0.82644 0.49827 0.0
H2012 H 0.09374 0.83334 0.47386 0.0
H2013 H 0.20897 0.89242 0.5246 0.0
H2014 H 0.22455 0.87323 0.51494 0.0
H2015 H 0.19622 0.85725 0.52966 0.0
C2016 C 0.6155 0.82108 0.12243 0.0
C2017 C 0.62599 0.80897 0.10983 0.0
C2018 C 0.62381 0.82552 0.14203 0.0
C2019 C 0.64303 0.81761 0.14916 0.0
C2020 C 0.65421 0.80601 0.13646 0.0
C2021 C 0.64558 0.80186 0.11695 0.0
C2022 C 0.61149 0.83799 0.15516 0.0
C2023 C 0.67486 0.79746 0.14353 0.0
C2024 C 0.68226 0.84749 0.19825 0.0
C2025 C 0.66697 0.82553 0.20919 0.0
C2026 C 0.67448 0.84537 0.17874 0.0
C2027 C 0.65087 0.82068 0.16997 0.0
C2028 C 0.63513 0.79858 0.18097 0.0
C2029 C 0.64336 0.80129 0.20047 0.0
C2030 C 0.69167 0.86942 0.16747 0.0
C2031 C 0.60987 0.7719 0.17208 0.0
H2032 H 0.60011 0.8263 0.11703 0.0
H2033 H 0.65401 0.79283 0.10722 0.0
H2034 H 0.59887 0.82264 0.16495 0.0
H2035 H 0.62843 0.85648 0.16406 0.0
H2036 H 0.59792 0.84431 0.14727 0.0
H2037 H 0.68219 0.78949 0.13173 0.0
H2038 H 0.6933 0.8154 0.15181 0.0
H2039 H 0.66506 0.78096 0.15324 0.0
H2040 H 0.70027 0.86645 0.205 0.0
H2041 H 0.63165 0.78417 0.20883 0.0
H2042 H 0.67815 0.87641 0.16034 0.0
H2043 H 0.70067 0.86264 0.15616 0.0
H2044 H 0.70903 0.88743 0.17653 0.0
H2045 H 0.59445 0.77647 0.16488 0.0
H2046 H 0.59944 0.75702 0.18271 0.0
H2047 H 0.61621 0.7617 0.16107 0.0
C2048 C 0.25022 0.84426 0.13474 0.0
C2049 C 0.22993 0.83188 0.11903 0.0
C2050 C 0.24326 0.85024 0.15249 0.0
C2051 C 0.2154 0.84378 0.15448 0.0
C2052 C 0.19518 0.83245 0.13845 0.0
C2053 C 0.20269 0.8266 0.12093 0.0
C2054 C 0.26538 0.86232 0.16928 0.0
C2055 C 0.16532 0.82548 0.13994 0.0
C2056 C 0.1872 0.82713 0.20247 0.0
C2057 C 0.188 0.85181 0.20902 0.0
C2058 C 0.19652 0.82446 0.1849 0.0
C2059 C 0.20682 0.84702 0.17355 0.0
C2060 C 0.20798 0.87212 0.18015 0.0
C2061 C 0.19859 0.87424 0.19784 0.0
C2062 C 0.19511 0.7974 0.1784 0.0
C2063 C 0.21869 0.89654 0.16839 0.0
H2064 H 0.27125 0.84819 0.13336 0.0
H2065 H 0.18706 0.81739 0.10873 0.0
H2066 H 0.26614 0.88094 0.17653 0.0
H2067 H 0.26003 0.84681 0.17977 0.0
H2068 H 0.2865 0.86828 0.16504 0.0
H2069 H 0.15269 0.81866 0.12587 0.0
H2070 H 0.15529 0.80856 0.14931 0.0
H2071 H 0.16482 0.84382 0.1465 0.0
H2072 H 0.17948 0.8099 0.2112 0.0
H2073 H 0.19905 0.89329 0.20278 0.0
H2074 H 0.21615 0.80134 0.17539 0.0
H2075 H 0.18107 0.78791 0.16499 0.0
H2076 H 0.1873 0.78217 0.18916 0.0
H2077 H 0.24011 0.90259 0.16483 0.0
H2078 H 0.21919 0.91493 0.17586 0.0
H2079 H 0.20516 0.89057 0.15477 0.0
C2080 C 0.22499 0.42462 0.14224 0.0
C2081 C 0.20483 0.41409 0.12639 0.0
C2082 C 0.21892 0.41275 0.15958 0.0
C2083 C 0.19203 0.3898 0.16115 0.0
C2084 C 0.17172 0.37885 0.14515 0.0
C2085 C 0.17837 0.39108 0.12799 0.0
C2086 C 0.24116 0.42503 0.1763 0.0
C2087 C 0.14285 0.35434 0.1462 0.0
C2088 C 0.18215 0.34331 0.20085 0.0
C2089 C 0.17048 0.3531 0.21422 0.0
C2090 C 0.18946 0.35518 0.18361 0.0
C2091 C 0.18498 0.3774 0.17958 0.0
C2092 C 0.17337 0.3875 0.19305 0.0
C2093 C 0.16629 0.37526 0.21019 0.0
C2094 C 0.20193 0.34391 0.16969 0.0
C2095 C 0.16815 0.41107 0.18927 0.0
H2096 H 0.24536 0.4426 0.14122 0.0
H2097 H 0.1628 0.38256 0.11575 0.0
H2098 H 0.23389 0.43297 0.18812 0.0
H2099 H 0.24498 0.40872 0.18164 0.0
H2100 H 0.26126 0.44236 0.17261 0.0
H2101 H 0.12953 0.34815 0.13243 0.0
H2102 H 0.14442 0.33623 0.15042 0.0
H2103 H 0.1323 0.35953 0.15724 0.0
H2104 H 0.18586 0.32649 0.20396 0.0
H2105 H 0.157 0.38276 0.22033 0.0
H2106 H 0.22276 0.36079 0.16675 0.0
H2107 H 0.18846 0.33606 0.15597 0.0
H2108 H 0.20433 0.32673 0.17503 0.0
H2109 H 0.18794 0.42969 0.18657 0.0
H2110 H 0.15944 0.41684 0.20132 0.0
H2111 H 0.15329 0.40507 0.17631 0.0
C2112 C 0.77424 0.61151 0.88671 0.0
C2113 C 0.77723 0.58827 0.88936 0.0
C2114 C 0.78121 0.62482 0.86994 0.0
C2115 C 0.79143 0.61467 0.85546 0.0
C2116 C 0.79399 0.59092 0.85791 0.0
C2117 C 0.78683 0.578 0.87478 0.0
C2118 C 0.77816 0.65008 0.86786 0.0
C2119 C 0.80468 0.57934 0.84281 0.0
C2120 C 0.78994 0.63459 0.80499 0.0
C2121 C 0.81779 0.65567 0.80437 0.0
C2122 C 0.78095 0.62134 0.82159 0.0
C2123 C 0.80026 0.6293 0.83798 0.0
C2124 C 0.82831 0.65075 0.8375 0.0
C2125 C 0.83671 0.66366 0.82074 0.0
C2126 C 0.75084 0.59866 0.82153 0.0
C2127 C 0.84959 0.65976 0.85463 0.0
H2128 H 0.76708 0.61973 0.89796 0.0
H2129 H 0.78872 0.55976 0.87656 0.0
H2130 H 0.79897 0.66853 0.86681 0.0
H2131 H 0.76485 0.64695 0.85455 0.0
H2132 H 0.76879 0.65464 0.88004 0.0
H2133 H 0.80485 0.56036 0.84672 0.0
H2134 H 0.79147 0.57415 0.82911 0.0
H2135 H 0.82627 0.59527 0.84044 0.0
H2136 H 0.77508 0.62855 0.7925 0.0
H2137 H 0.85834 0.67966 0.82032 0.0
H2138 H 0.74105 0.60397 0.83306 0.0
H2139 H 0.74988 0.57881 0.82437 0.0
H2140 H 0.73831 0.59532 0.80777 0.0
H2141 H 0.84215 0.66622 0.8671 0.0
H2142 H 0.87034 0.6773 0.85214 0.0
H2143 H 0.85218 0.642 0.85835 0.0
C2144 C 0.40341 0.17272 0.89379 0.0
C2145 C 0.39093 0.18113 0.90738 0.0
C2146 C 0.39359 0.16775 0.87445 0.0
C2147 C 0.37089 0.17148 0.86854 0.0
C2148 C 0.35794 0.1796 0.88219 0.0
C2149 C 0.36807 0.18424 0.90146 0.0
C2150 C 0.40785 0.15902 0.86028 0.0
C2151 C 0.33368 0.18379 0.87639 0.0
C2152 C 0.36385 0.1867 0.81762 0.0
C2153 C 0.34243 0.16075 0.80915 0.0
C2154 C 0.37334 0.19046 0.83696 0.0
C2155 C 0.36118 0.16767 0.84802 0.0
C2156 C 0.33971 0.14136 0.83952 0.0
C2157 C 0.33053 0.13823 0.82017 0.0
C2158 C 0.39616 0.21888 0.84559 0.0
C2159 C 0.32647 0.11655 0.85086 0.0
H2160 H 0.42135 0.17068 0.89822 0.0
H2161 H 0.35809 0.19035 0.91192 0.0
H2162 H 0.39227 0.13945 0.85165 0.0
H2163 H 0.41753 0.17518 0.85034 0.0
H2164 H 0.42437 0.15577 0.8673 0.0
H2165 H 0.32562 0.18963 0.8888 0.0
H2166 H 0.34026 0.20041 0.86666 0.0
H2167 H 0.31634 0.16445 0.86851 0.0
H2168 H 0.37286 0.20421 0.80918 0.0
H2169 H 0.31418 0.11807 0.81358 0.0
H2170 H 0.41428 0.21756 0.85186 0.0
H2171 H 0.38844 0.22653 0.85728 0.0
H2172 H 0.40351 0.23437 0.83499 0.0
H2173 H 0.34272 0.11236 0.85712 0.0
H2174 H 0.31017 0.09746 0.84206 0.0
H2175 H 0.31678 0.12104 0.86283 0.0
C2176 C 0.82626 0.20269 0.88955 0.0
C2177 C 0.80012 0.19892 0.89354 0.0
C2178 C 0.83101 0.1967 0.8711 0.0
C2179 C 0.80895 0.18621 0.85626 0.0
C2180 C 0.7821 0.18095 0.86033 0.0
C2181 C 0.77803 0.18752 0.87891 0.0
C2182 C 0.85999 0.20271 0.86735 0.0
C2183 C 0.75797 0.1694 0.84492 0.0
C2184 C 0.831 0.20296 0.80678 0.0
C2185 C 0.83003 0.1785 0.79948 0.0
C2186 C 0.82361 0.20547 0.82509 0.0
C2187 C 0.81471 0.18283 0.83631 0.0
C2188 C 0.8129 0.15776 0.82881 0.0
C2189 C 0.82083 0.15597 0.81051 0.0
C2190 C 0.82621 0.23271 0.83265 0.0
C2191 C 0.80307 0.13304 0.84023 0.0
H2192 H 0.84326 0.21085 0.90085 0.0
H2193 H 0.75781 0.18468 0.8818 0.0
H2194 H 0.85903 0.18392 0.86023 0.0
H2195 H 0.86883 0.21929 0.8576 0.0
H2196 H 0.87448 0.20958 0.88061 0.0
H2197 H 0.73781 0.16364 0.85076 0.0
H2198 H 0.76196 0.18517 0.83479 0.0
H2199 H 0.75597 0.15077 0.83674 0.0
H2200 H 0.83842 0.22053 0.79837 0.0
H2201 H 0.81983 0.13694 0.80481 0.0
H2202 H 0.84197 0.24201 0.84527 0.0
H2203 H 0.806 0.22911 0.83733 0.0
H2204 H 0.83257 0.24796 0.82189 0.0
H2205 H 0.81814 0.13831 0.85296 0.0
H2206 H 0.80091 0.11444 0.83185 0.0
H2207 H 0.78259 0.12766 0.84536 0.0
C2208 C 0.31375 0.16392 0.45253 0.0
C2209 C 0.28918 0.13907 0.44588 0.0
C2210 C 0.32391 0.16972 0.47187 0.0
C2211 C 0.30903 0.15023 0.48476 0.0
C2212 C 0.28393 0.12536 0.47816 0.0
C2213 C 0.2743 0.1201 0.4588 0.0
C2214 C 0.35079 0.19643 0.47844 0.0
C2215 C 0.26739 0.10417 0.49152 0.0
C2216 C 0.3464 0.14908 0.53107 0.0
C2217 C 0.33801 0.16269 0.54414 0.0
C2218 C 0.3376 0.14543 0.51161 0.0
C2219 C 0.31986 0.15546 0.50514 0.0
C2220 C 0.31153 0.16945 0.51826 0.0
C2221 C 0.32078 0.17296 0.53762 0.0
C2222 C 0.34703 0.13056 0.49799 0.0
C2223 C 0.29243 0.18021 0.51188 0.0
H2224 H 0.32537 0.17852 0.44254 0.0
H2225 H 0.25504 0.10108 0.45373 0.0
H2226 H 0.34723 0.20844 0.48991 0.0
H2227 H 0.36669 0.19161 0.48449 0.0
H2228 H 0.3594 0.20975 0.4667 0.0
H2229 H 0.24797 0.08617 0.48415 0.0
H2230 H 0.28041 0.09629 0.49822 0.0
H2231 H 0.26163 0.11402 0.50313 0.0
H2232 H 0.36002 0.14146 0.53607 0.0
H2233 H 0.31406 0.18325 0.54775 0.0
H2234 H 0.35752 0.14386 0.48662 0.0
H2235 H 0.32861 0.11122 0.491 0.0
H2236 H 0.36169 0.12498 0.50523 0.0
H2237 H 0.30151 0.19443 0.50069 0.0
H2238 H 0.28874 0.19151 0.52379 0.0
H2239 H 0.27196 0.16259 0.50555 0.0
C2240 C 0.87124 0.16126 0.45366 0.0
C2241 C 0.89836 0.16666 0.45103 0.0
C2242 C 0.86434 0.16634 0.4716 0.0
C2243 C 0.88511 0.17731 0.48731 0.0
C2244 C 0.91289 0.18422 0.48458 0.0
C2245 C 0.9192 0.17877 0.46644 0.0
C2246 C 0.83448 0.15878 0.47389 0.0
C2247 C 0.93565 0.19616 0.50097 0.0
C2248 C 0.86759 0.20477 0.53175 0.0
C2249 C 0.85782 0.18187 0.54247 0.0
C2250 C 0.87734 0.20395 0.51398 0.0
C2251 C 0.87711 0.17957 0.50675 0.0
C2252 C 0.86775 0.15658 0.51768 0.0
C2253 C 0.85828 0.15803 0.53542 0.0
C2254 C 0.88741 0.22896 0.50282 0.0
C2255 C 0.867 0.13012 0.51039 0.0
H2256 H 0.85518 0.15236 0.4417 0.0
H2257 H 0.94014 0.18284 0.46452 0.0
H2258 H 0.82517 0.14158 0.48313 0.0
H2259 H 0.83387 0.17678 0.48095 0.0
H2260 H 0.82127 0.15207 0.46005 0.0
H2261 H 0.95666 0.20309 0.49615 0.0
H2262 H 0.93602 0.2141 0.50899 0.0
H2263 H 0.93132 0.18018 0.51098 0.0
H2264 H 0.86766 0.2234 0.53728 0.0
H2265 H 0.85051 0.14018 0.54356 0.0
H2266 H 0.87353 0.22341 0.4894 0.0
H2267 H 0.90876 0.23554 0.49886 0.0
H2268 H 0.88778 0.24687 0.51092 0.0
H2269 H 0.85237 0.12065 0.49722 0.0
H2270 H 0.86022 0.11458 0.52097 0.0
H2271 H 0.888 0.13482 0.50669 0.0
C2272 C 0.89041 0.75912 0.47411 0.0
C2273 C 0.8688 0.74975 0.45929 0.0
C2274 C 0.8853 0.74803 0.49176 0.0
C2275 C 0.85792 0.72708 0.49468 0.0
C2276 C 0.83613 0.7173 0.47969 0.0
C2277 C 0.84184 0.72869 0.46221 0.0
C2278 C 0.90909 0.75899 0.50739 0.0
C2279 C 0.80668 0.69492 0.48216 0.0
C2280 C 0.84636 0.68008 0.53425 0.0
C2281 C 0.83738 0.69189 0.54827 0.0
C2282 C 0.85363 0.69162 0.5169 0.0
C2283 C 0.85185 0.71554 0.51344 0.0
C2284 C 0.84321 0.72781 0.52764 0.0
C2285 C 0.83611 0.71587 0.54487 0.0
C2286 C 0.8629 0.678 0.50219 0.0
C2287 C 0.8409 0.75325 0.52447 0.0
H2288 H 0.91123 0.77556 0.47205 0.0
H2289 H 0.82512 0.721 0.45074 0.0
H2290 H 0.90444 0.76865 0.51976 0.0
H2291 H 0.91141 0.74161 0.51236 0.0
H2292 H 0.92931 0.77471 0.50269 0.0
H2293 H 0.79215 0.68944 0.46905 0.0
H2294 H 0.80661 0.67586 0.48608 0.0
H2295 H 0.79859 0.70198 0.49393 0.0
H2296 H 0.84784 0.66182 0.53688 0.0
H2297 H 0.82893 0.72497 0.55553 0.0
H2298 H 0.88376 0.69338 0.49819 0.0
H2299 H 0.84807 0.67054 0.48909 0.0
H2300 H 0.86409 0.66007 0.50732 0.0
H2301 H 0.86113 0.77027 0.52074 0.0
H2302 H 0.83492 0.76092 0.5372 0.0
H2303 H 0.825 0.74833 0.51233 0.0
loop_
_geom_bond_atom_site_label_1
_geom_bond_atom_site_label_2
_geom_bond_distance
_geom_bond_site_symmetry_2
_ccdc_geom_bond_type
H0 C5 0.930 . S
H1 C8 0.930 . S
H2 C10 0.930 . S
H3 C4 1.016 . S
C4 H3 1.016 . S
C4 N11 1.286 . S
C5 H0 0.930 . S
C5 C6 1.397 . S
C5 C7 1.361 . S
C6 C5 1.397 . S
C6 C10 1.390 . S
C7 C5 1.361 . S
C7 C8 1.393 . S
C7 N11 1.413 . S
C8 H1 0.930 . S
C8 C7 1.393 . S
C8 C9 1.399 . S
C9 C8 1.399 . S
C9 C10 1.381 . S
C10 H2 0.930 . S
C10 C6 1.390 . S
C10 C9 1.381 . S
N11 C4 1.286 . S
N11 C7 1.413 . S
H12 C17 0.930 . S
H13 C20 0.930 . S
H14 C22 0.930 . S
H15 C16 1.016 . S
C16 H15 1.016 . S
C16 N23 1.286 . S
C17 H12 0.930 . S
C17 C18 1.397 . S
C17 C19 1.361 . S
C18 C17 1.397 . S
C18 C22 1.390 . S
C19 C17 1.361 . S
C19 C20 1.393 . S
C19 N23 1.413 . S
C20 H13 0.930 . S
C20 C19 1.393 . S
C20 C21 1.399 . S
C21 C20 1.399 . S
C21 C22 1.381 . S
C22 H14 0.930 . S
C22 C18 1.390 . S
C22 C21 1.381 . S
N23 C16 1.286 . S
N23 C19 1.413 . S
H24 C29 0.930 . S
H25 C32 0.930 . S
H26 C34 0.930 . S
H27 C28 1.016 . S
C28 H27 1.016 . S
C28 N35 1.286 . S
C29 H24 0.930 . S
C29 C30 1.397 . S
C29 C31 1.361 . S
C30 C29 1.397 . S
C30 C34 1.390 . S
C31 C29 1.361 . S
C31 C32 1.393 . S
C31 N35 1.413 . S
C32 H25 0.930 . S
C32 C31 1.393 . S
C32 C33 1.399 . S
C33 C32 1.399 . S
C33 C34 1.381 . S
C34 H26 0.930 . S
C34 C30 1.390 . S
C34 C33 1.381 . S
N35 C28 1.286 . S
N35 C31 1.413 . S
H36 C41 0.930 . S
H37 C44 0.930 . S
H38 C46 0.930 . S
H39 C40 1.016 . S
C40 H39 1.016 . S
C40 N47 1.286 . S
C41 H36 0.930 . S
C41 C42 1.397 . S
C41 C43 1.361 . S
C42 C41 1.397 . S
C42 C46 1.390 . S
C43 C41 1.361 . S
C43 C44 1.393 . S
C43 N47 1.413 . S
C44 H37 0.930 . S
C44 C43 1.393 . S
C44 C45 1.399 . S
C45 C44 1.399 . S
C45 C46 1.381 . S
C46 H38 0.930 . S
C46 C42 1.390 . S
C46 C45 1.381 . S
N47 C40 1.286 . S
N47 C43 1.413 . S
H48 C53 0.930 . S
H49 C56 0.930 . S
H50 C58 0.930 . S
H51 C52 1.016 . S
C52 H51 1.016 . S
C52 N59 1.286 . S
C53 H48 0.930 . S
C53 C54 1.397 . S
C53 C55 1.361 . S
C54 C53 1.397 . S
C54 C58 1.390 . S
C55 C53 1.361 . S
C55 C56 1.393 . S
C55 N59 1.413 . S
C56 H49 0.930 . S
C56 C55 1.393 . S
C56 C57 1.399 . S
C57 C56 1.399 . S
C57 C58 1.381 . S
C58 H50 0.930 . S
C58 C54 1.390 . S
C58 C57 1.381 . S
N59 C52 1.286 . S
N59 C55 1.413 . S
H60 C65 0.930 . S
H61 C68 0.930 . S
H62 C70 0.930 . S
H63 C64 1.016 . S
C64 H63 1.016 . S
C64 N71 1.286 . S
C65 H60 0.930 . S
C65 C66 1.397 . S
C65 C67 1.361 . S
C66 C65 1.397 . S
C66 C70 1.390 . S
C67 C65 1.361 . S
C67 C68 1.393 . S
C67 N71 1.413 . S
C68 H61 0.930 . S
C68 C67 1.393 . S
C68 C69 1.399 . S
C69 C68 1.399 . S
C69 C70 1.381 . S
C70 H62 0.930 . S
C70 C66 1.390 . S
C70 C69 1.381 . S
N71 C64 1.286 . S
N71 C67 1.413 . S
H72 C77 0.930 . S
H73 C80 0.930 . S
H74 C82 0.930 . S
H75 C76 1.016 . S
C76 H75 1.016 . S
C76 N83 1.286 . S
C77 H72 0.930 . S
C77 C78 1.397 . S
C77 C79 1.361 . S
C78 C77 1.397 . S
C78 C82 1.390 . S
C79 C77 1.361 . S
C79 C80 1.393 . S
C79 N83 1.413 . S
C80 H73 0.930 . S
C80 C79 1.393 . S
C80 C81 1.399 . S
C81 C80 1.399 . S
C81 C82 1.381 . S
C82 H74 0.930 . S
C82 C78 1.390 . S
C82 C81 1.381 . S
N83 C76 1.286 . S
N83 C79 1.413 . S
H84 C89 0.930 . S
H85 C92 0.930 . S
H86 C94 0.930 . S
H87 C88 1.016 . S
C88 H87 1.016 . S
C88 N95 1.286 . S
C89 H84 0.930 . S
C89 C90 1.397 . S
C89 C91 1.361 . S
C90 C89 1.397 . S
C90 C94 1.390 . S
C91 C89 1.361 . S
C91 C92 1.393 . S
C91 N95 1.413 . S
C92 H85 0.930 . S
C92 C91 1.393 . S
C92 C93 1.399 . S
C93 C92 1.399 . S
C93 C94 1.381 . S
C94 H86 0.930 . S
C94 C90 1.390 . S
C94 C93 1.381 . S
N95 C88 1.286 . S
N95 C91 1.413 . S
H96 C101 0.930 . S
H97 C104 0.930 . S
H98 C106 0.930 . S
H99 C100 1.016 . S
C100 H99 1.016 . S
C100 N107 1.286 . S
C101 H96 0.930 . S
C101 C102 1.397 . S
C101 C103 1.361 . S
C102 C101 1.397 . S
C102 C106 1.390 . S
C103 C101 1.361 . S
C103 C104 1.393 . S
C103 N107 1.413 . S
C104 H97 0.930 . S
C104 C103 1.393 . S
C104 C105 1.399 . S
C105 C104 1.399 . S
C105 C106 1.381 . S
C106 H98 0.930 . S
C106 C102 1.390 . S
C106 C105 1.381 . S
N107 C100 1.286 . S
N107 C103 1.413 . S
H108 C113 0.930 . S
H109 C116 0.930 . S
H110 C118 0.930 . S
H111 C112 1.016 . S
C112 H111 1.016 . S
C112 N119 1.286 . S
C113 H108 0.930 . S
C113 C114 1.397 . S
C113 C115 1.361 . S
C114 C113 1.397 . S
C114 C118 1.390 . S
C115 C113 1.361 . S
C115 C116 1.393 . S
C115 N119 1.413 . S
C116 H109 0.930 . S
C116 C115 1.393 . S
C116 C117 1.399 . S
C117 C116 1.399 . S
C117 C118 1.381 . S
C118 H110 0.930 . S
C118 C114 1.390 . S
C118 C117 1.381 . S
N119 C112 1.286 . S
N119 C115 1.413 . S
H120 C125 0.930 . S
H121 C128 0.930 . S
H122 C130 0.930 . S
H123 C124 1.016 . S
C124 H123 1.016 . S
C124 N131 1.286 . S
C125 H120 0.930 . S
C125 C126 1.397 . S
C125 C127 1.361 . S
C126 C125 1.397 . S
C126 C130 1.390 . S
C127 C125 1.361 . S
C127 C128 1.393 . S
C127 N131 1.413 . S
C128 H121 0.930 . S
C128 C127 1.393 . S
C128 C129 1.399 . S
C129 C128 1.399 . S
C129 C130 1.381 . S
C130 H122 0.930 . S
C130 C126 1.390 . S
C130 C129 1.381 . S
N131 C124 1.286 . S
N131 C127 1.413 . S
H132 C137 0.930 . S
H133 C140 0.930 . S
H134 C142 0.930 . S
H135 C136 1.016 . S
C136 H135 1.016 . S
C136 N143 1.286 . S
C137 H132 0.930 . S
C137 C138 1.397 . S
C137 C139 1.361 . S
C138 C137 1.397 . S
C138 C142 1.390 . S
C139 C137 1.361 . S
C139 C140 1.393 . S
C139 N143 1.413 . S
C140 H133 0.930 . S
C140 C139 1.393 . S
C140 C141 1.399 . S
C141 C140 1.399 . S
C141 C142 1.381 . S
C142 H134 0.930 . S
C142 C138 1.390 . S
C142 C141 1.381 . S
N143 C136 1.286 . S
N143 C139 1.413 . S
H144 C149 0.930 . S
H145 C152 0.930 . S
H146 C154 0.930 . S
H147 C148 1.016 . S
C148 H147 1.016 . S
C148 N155 1.286 . S
C149 H144 0.930 . S
C149 C150 1.397 . S
C149 C151 1.361 . S
C150 C149 1.397 . S
C150 C154 1.390 . S
C151 C149 1.361 . S
C151 C152 1.393 . S
C151 N155 1.413 . S
C152 H145 0.930 . S
C152 C151 1.393 . S
C152 C153 1.399 . S
C153 C152 1.399 . S
C153 C154 1.381 . S
C154 H146 0.930 . S
C154 C150 1.390 . S
C154 C153 1.381 . S
N155 C148 1.286 . S
N155 C151 1.413 . S
H156 C161 0.930 . S
H157 C164 0.930 . S
H158 C166 0.930 . S
H159 C160 1.016 . S
C160 H159 1.016 . S
C160 N167 1.286 . S
C161 H156 0.930 . S
C161 C162 1.397 . S
C161 C163 1.361 . S
C162 C161 1.397 . S
C162 C166 1.390 . S
C163 C161 1.361 . S
C163 C164 1.393 . S
C163 N167 1.413 . S
C164 H157 0.930 . S
C164 C163 1.393 . S
C164 C165 1.399 . S
C165 C164 1.399 . S
C165 C166 1.381 . S
C166 H158 0.930 . S
C166 C162 1.390 . S
C166 C165 1.381 . S
N167 C160 1.286 . S
N167 C163 1.413 . S
H168 C173 0.930 . S
H169 C176 0.930 . S
H170 C178 0.930 . S
H171 C172 1.016 . S
C172 H171 1.016 . S
C172 N179 1.286 . S
C173 H168 0.930 . S
C173 C174 1.397 . S
C173 C175 1.361 . S
C174 C173 1.397 . S
C174 C178 1.390 . S
C175 C173 1.361 . S
C175 C176 1.393 . S
C175 N179 1.413 . S
C176 H169 0.930 . S
C176 C175 1.393 . S
C176 C177 1.399 . S
C177 C176 1.399 . S
C177 C178 1.381 . S
C178 H170 0.930 . S
C178 C174 1.390 . S
C178 C177 1.381 . S
N179 C172 1.286 . S
N179 C175 1.413 . S
H180 C185 0.930 . S
H181 C188 0.930 . S
H182 C190 0.930 . S
H183 C184 1.016 . S
C184 H183 1.016 . S
C184 N191 1.286 . S
C185 H180 0.930 . S
C185 C186 1.397 . S
C185 C187 1.361 . S
C186 C185 1.397 . S
C186 C190 1.390 . S
C187 C185 1.361 . S
C187 C188 1.393 . S
C187 N191 1.413 . S
C188 H181 0.930 . S
C188 C187 1.393 . S
C188 C189 1.399 . S
C189 C188 1.399 . S
C189 C190 1.381 . S
C190 H182 0.930 . S
C190 C186 1.390 . S
C190 C189 1.381 . S
N191 C184 1.286 . S
N191 C187 1.413 . S
H192 C197 0.930 . S
H193 C200 0.930 . S
H194 C202 0.930 . S
H195 C196 1.016 . S
C196 H195 1.016 . S
C196 N203 1.286 . S
C197 H192 0.930 . S
C197 C198 1.397 . S
C197 C199 1.361 . S
C198 C197 1.397 . S
C198 C202 1.390 . S
C199 C197 1.361 . S
C199 C200 1.393 . S
C199 N203 1.413 . S
C200 H193 0.930 . S
C200 C199 1.393 . S
C200 C201 1.399 . S
C201 C200 1.399 . S
C201 C202 1.381 . S
C202 H194 0.930 . S
C202 C198 1.390 . S
C202 C201 1.381 . S
N203 C196 1.286 . S
N203 C199 1.413 . S
H204 C209 0.930 . S
H205 C212 0.930 . S
H206 C214 0.930 . S
H207 C208 1.016 . S
C208 H207 1.016 . S
C208 N215 1.286 . S
C209 H204 0.930 . S
C209 C210 1.397 . S
C209 C211 1.361 . S
C210 C209 1.397 . S
C210 C214 1.390 . S
C211 C209 1.361 . S
C211 C212 1.393 . S
C211 N215 1.413 . S
C212 H205 0.930 . S
C212 C211 1.393 . S
C212 C213 1.399 . S
C213 C212 1.399 . S
C213 C214 1.381 . S
C214 H206 0.930 . S
C214 C210 1.390 . S
C214 C213 1.381 . S
N215 C208 1.286 . S
N215 C211 1.413 . S
Eu216 C225 2.828 1_565 S
Eu216 O227 2.392 . S
Eu216 O229 2.418 . S
Eu216 O234 2.373 1_565 S
Eu216 O237 2.488 . S
Eu216 O238 2.471 1_565 S
Eu216 O239 2.349 1_565 S
Eu217 O226 2.373 1_545 S
Eu217 O230 2.488 . S
Eu217 O231 2.471 1_545 S
Eu217 O232 2.349 1_545 S
Eu217 O235 2.392 . S
Eu217 O236 2.418 . S
Eu217 C246 2.828 . S
C218 O236 1.244 . S
C218 O239 1.265 1_554 S
C219 C220 1.379 . S
C219 C223 1.373 1_545 S
C219 C225 1.505 . S
C220 C219 1.379 . S
C220 C222 1.369 . S
C220 H248 0.930 . S
C221 C223 1.383 1_545 S
C221 C224 1.382 . S
C221 H249 0.930 1_545 S
C222 C220 1.369 . S
C222 C224 1.392 . S
C222 H250 0.930 . S
C223 C219 1.373 1_565 S
C223 C221 1.383 1_565 S
C223 H251 0.931 . S
C224 C221 1.382 . S
C224 C222 1.392 . S
C225 Eu216 2.828 1_545 S
C225 C219 1.505 . S
C225 O237 1.249 1_545 S
C225 O238 1.244 . S
O226 Eu217 2.373 1_565 S
O226 C228 1.258 . S
O227 Eu216 2.392 . S
O227 C228 1.242 1_556 S
C228 O226 1.258 . S
C228 O227 1.242 1_554 S
O229 Eu216 2.418 . S
O229 C233 1.244 1_556 S
O230 Eu217 2.488 . S
O230 C246 1.249 . S
O231 Eu217 2.471 1_565 S
O231 C246 1.244 1_565 S
O232 Eu217 2.349 1_565 S
O232 C233 1.265 . S
C233 O229 1.244 1_554 S
C233 O232 1.265 . S
O234 Eu216 2.373 1_545 S
O234 C247 1.258 . S
O235 Eu217 2.392 . S
O235 C247 1.242 1_554 S
O236 Eu217 2.418 . S
O236 C218 1.244 . S
O237 Eu216 2.488 . S
O237 C225 1.249 1_565 S
O238 Eu216 2.471 1_545 S
O238 C225 1.244 . S
O239 Eu216 2.349 1_545 S
O239 C218 1.265 1_556 S
C240 C241 1.379 . S
C240 C244 1.373 1_565 S
C240 C246 1.505 1_565 S
C241 C240 1.379 . S
C241 C243 1.369 . S
C241 H252 0.930 . S
C242 C244 1.383 . S
C242 C245 1.382 1_545 S
C242 H253 0.930 . S
C243 C241 1.369 . S
C243 C245 1.392 . S
C243 H254 0.930 . S
C244 C240 1.373 1_545 S
C244 C242 1.383 . S
C244 H255 0.931 . S
C245 C242 1.382 1_565 S
C245 C243 1.392 . S
C246 Eu217 2.828 . S
C246 O230 1.249 . S
C246 O231 1.244 1_545 S
C246 C240 1.505 1_545 S
C247 O234 1.258 . S
C247 O235 1.242 1_556 S
H248 C220 0.930 . S
H249 C221 0.930 1_565 S
H250 C222 0.930 . S
H251 C223 0.931 . S
H252 C241 0.930 . S
H253 C242 0.930 . S
H254 C243 0.930 . S
H255 C244 0.931 . S
Eu256 C265 2.822 1_455 S
Eu256 O267 2.392 1_556 S
Eu256 O269 2.418 . S
Eu256 O274 2.373 1_455 S
Eu256 O277 2.488 . S
Eu256 O278 2.471 1_455 S
Eu256 O279 2.349 1_455 S
Eu257 O266 2.373 1_655 S
Eu257 O270 2.488 . S
Eu257 O271 2.471 1_655 S
Eu257 O272 2.349 1_655 S
Eu257 O275 2.392 . S
Eu257 O276 2.418 . S
Eu257 C286 2.828 1_655 S
C258 O276 1.244 . S
C258 O279 1.265 1_554 S
C259 C260 1.379 . S
C259 C263 1.373 1_655 S
C259 C265 1.512 . S
C260 C259 1.379 . S
C260 C262 1.369 . S
C260 H288 0.930 . S
C261 C263 1.383 1_655 S
C261 C264 1.382 . S
C261 H289 0.930 1_655 S
C262 C260 1.369 . S
C262 C264 1.392 . S
C262 H290 0.930 . S
C263 C259 1.373 1_455 S
C263 C261 1.383 1_455 S
C263 H291 0.931 . S
C264 C261 1.382 . S
C264 C262 1.392 . S
C265 Eu256 2.822 1_655 S
C265 C259 1.512 . S
C265 O277 1.240 1_655 S
C265 O278 1.247 . S
O266 Eu257 2.373 1_455 S
O266 C268 1.258 . S
O267 Eu256 2.392 1_554 S
O267 C268 1.242 . S
C268 O266 1.258 . S
C268 O267 1.242 . S
O269 Eu256 2.418 . S
O269 C273 1.244 1_556 S
O270 Eu257 2.488 . S
O270 C286 1.249 1_655 S
O271 Eu257 2.471 1_455 S
O271 C286 1.244 . S
O272 Eu257 2.349 1_455 S
O272 C273 1.265 . S
C273 O269 1.244 1_554 S
C273 O272 1.265 . S
O274 Eu256 2.373 1_655 S
O274 C287 1.258 . S
O275 Eu257 2.392 . S
O275 C287 1.242 1_554 S
O276 Eu257 2.418 . S
O276 C258 1.244 . S
O277 Eu256 2.488 . S
O277 C265 1.240 1_455 S
O278 Eu256 2.471 1_655 S
O278 C265 1.247 . S
O279 Eu256 2.349 1_655 S
O279 C258 1.265 1_556 S
C280 C281 1.379 . S
C280 C284 1.365 1_455 S
C280 C286 1.505 . S
C281 C280 1.379 . S
C281 C283 1.369 . S
C281 H292 0.930 . S
C282 C284 1.374 1_455 S
C282 C285 1.382 . S
C282 H293 0.930 1_455 S
C283 C281 1.369 . S
C283 C285 1.392 . S
C283 H294 0.930 . S
C284 C280 1.365 1_655 S
C284 C282 1.374 1_655 S
C284 H295 0.948 . S
C285 C282 1.382 . S
C285 C283 1.392 . S
C286 Eu257 2.828 1_455 S
C286 O270 1.249 1_455 S
C286 O271 1.244 . S
C286 C280 1.505 . S
C287 O274 1.258 . S
C287 O275 1.242 1_556 S
H288 C260 0.930 . S
H289 C261 0.930 1_455 S
H290 C262 0.930 . S
H291 C263 0.931 . S
H292 C281 0.930 . S
H293 C282 0.930 1_655 S
H294 C283 0.930 . S
H295 C284 0.948 . S
Eu296 C305 2.828 . S
Eu296 O307 2.392 . S
Eu296 O309 2.418 . S
Eu296 O314 2.373 . S
Eu296 O317 2.488 . S
Eu296 O318 2.471 . S
Eu296 O319 2.349 . S
Eu297 O306 2.373 . S
Eu297 O310 2.488 . S
Eu297 O311 2.471 . S
Eu297 O312 2.337 1_556 S
Eu297 O315 2.392 1_556 S
Eu297 O316 2.418 . S
Eu297 C326 2.828 . S
C298 O316 1.244 1_554 S
C298 O319 1.265 . S
C299 C300 1.379 . S
C299 C303 1.373 . S
C299 C305 1.505 . S
C300 C299 1.379 . S
C300 C302 1.369 . S
C300 H328 0.930 . S
C301 C303 1.383 . S
C301 C304 1.382 . S
C301 H329 0.930 . S
C302 C300 1.369 . S
C302 C304 1.392 . S
C302 H330 0.930 . S
C303 C299 1.373 . S
C303 C301 1.383 . S
C303 H331 0.931 . S
C304 C301 1.382 . S
C304 C302 1.392 . S
C305 Eu296 2.828 . S
C305 C299 1.505 . S
C305 O317 1.249 . S
C305 O318 1.244 . S
O306 Eu297 2.373 . S
O306 C308 1.258 . S
O307 Eu296 2.392 . S
O307 C308 1.242 1_554 S
C308 O306 1.258 . S
C308 O307 1.242 1_556 S
O309 Eu296 2.418 . S
O309 C313 1.244 . S
O310 Eu297 2.488 . S
O310 C326 1.249 . S
O311 Eu297 2.471 . S
O311 C326 1.244 . S
O312 Eu297 2.337 1_554 S
O312 C313 1.276 . S
C313 O309 1.244 . S
C313 O312 1.276 . S
O314 Eu296 2.373 . S
O314 C327 1.258 . S
O315 Eu297 2.392 1_554 S
O315 C327 1.242 . S
O316 Eu297 2.418 . S
O316 C298 1.244 1_556 S
O317 Eu296 2.488 . S
O317 C305 1.249 . S
O318 Eu296 2.471 . S
O318 C305 1.244 . S
O319 Eu296 2.349 . S
O319 C298 1.265 . S
C320 C321 1.379 . S
C320 C324 1.373 . S
C320 C326 1.505 . S
C321 C320 1.379 . S
C321 C323 1.369 . S
C321 H332 0.930 . S
C322 C324 1.383 . S
C322 C325 1.382 . S
C322 H333 0.930 . S
C323 C321 1.369 . S
C323 C325 1.392 . S
C323 H334 0.930 . S
C324 C320 1.373 . S
C324 C322 1.383 . S
C324 H335 0.931 . S
C325 C322 1.382 . S
C325 C323 1.392 . S
C326 Eu297 2.828 . S
C326 O310 1.249 . S
C326 O311 1.244 . S
C326 C320 1.505 . S
C327 O314 1.258 . S
C327 O315 1.242 . S
H328 C300 0.930 . S
H329 C301 0.930 . S
H330 C302 0.930 . S
H331 C303 0.931 . S
H332 C321 0.930 . S
H333 C322 0.930 . S
H334 C323 0.930 . S
H335 C324 0.931 . S
Eu336 C345 2.828 . S
Eu336 O347 2.392 . S
Eu336 O349 2.418 . S
Eu336 O354 2.373 . S
Eu336 O357 2.488 . S
Eu336 O358 2.471 . S
Eu336 O359 2.349 . S
Eu337 O346 2.373 . S
Eu337 O350 2.488 . S
Eu337 O351 2.471 . S
Eu337 O352 2.349 . S
Eu337 O355 2.392 . S
Eu337 O356 2.418 . S
Eu337 C366 2.828 . S
C338 O356 1.244 . S
C338 O359 1.265 . S
C339 C340 1.379 . S
C339 C343 1.373 . S
C339 C345 1.505 . S
C340 C339 1.379 . S
C340 C342 1.369 . S
C340 H368 0.930 . S
C341 C343 1.383 . S
C341 C344 1.382 . S
C341 H369 0.930 . S
C342 C340 1.369 . S
C342 C344 1.392 . S
C342 H370 0.930 . S
C343 C339 1.373 . S
C343 C341 1.383 . S
C343 H371 0.931 . S
C344 C341 1.382 . S
C344 C342 1.392 . S
C345 Eu336 2.828 . S
C345 C339 1.505 . S
C345 O357 1.249 . S
C345 O358 1.244 . S
O346 Eu337 2.373 . S
O346 C348 1.258 . S
O347 Eu336 2.392 . S
O347 C348 1.242 . S
C348 O346 1.258 . S
C348 O347 1.242 . S
O349 Eu336 2.418 . S
O349 C353 1.244 . S
O350 Eu337 2.488 . S
O350 C366 1.249 . S
O351 Eu337 2.471 . S
O351 C366 1.244 . S
O352 Eu337 2.349 . S
O352 C353 1.265 . S
C353 O349 1.244 . S
C353 O352 1.265 . S
O354 Eu336 2.373 . S
O354 C367 1.258 . S
O355 Eu337 2.392 . S
O355 C367 1.242 . S
O356 Eu337 2.418 . S
O356 C338 1.244 . S
O357 Eu336 2.488 . S
O357 C345 1.249 . S
O358 Eu336 2.471 . S
O358 C345 1.244 . S
O359 Eu336 2.349 . S
O359 C338 1.265 . S
C360 C361 1.379 . S
C360 C364 1.373 . S
C360 C366 1.505 . S
C361 C360 1.379 . S
C361 C363 1.369 . S
C361 H372 0.930 . S
C362 C364 1.383 . S
C362 C365 1.382 . S
C362 H373 0.930 . S
C363 C361 1.369 . S
C363 C365 1.392 . S
C363 H374 0.930 . S
C364 C360 1.373 . S
C364 C362 1.383 . S
C364 H375 0.931 . S
C365 C362 1.382 . S
C365 C363 1.392 . S
C366 Eu337 2.828 . S
C366 O350 1.249 . S
C366 O351 1.244 . S
C366 C360 1.505 . S
C367 O354 1.258 . S
C367 O355 1.242 . S
H368 C340 0.930 . S
H369 C341 0.930 . S
H370 C342 0.930 . S
H371 C343 0.931 . S
H372 C361 0.930 . S
H373 C362 0.930 . S
H374 C363 0.930 . S
H375 C364 0.931 . S
Eu376 C385 2.828 . S
Eu376 O387 2.392 . S
Eu376 O389 2.418 . S
Eu376 O394 2.373 . S
Eu376 O397 2.488 . S
Eu376 O398 2.471 . S
Eu376 O399 2.349 . S
Eu377 O386 2.373 . S
Eu377 O390 2.488 . S
Eu377 O391 2.471 . S
Eu377 O392 2.349 . S
Eu377 O395 2.392 . S
Eu377 O396 2.418 . S
Eu377 C406 2.828 . S
C378 O396 1.244 . S
C378 O399 1.265 . S
C379 C380 1.379 . S
C379 C383 1.373 . S
C379 C385 1.505 . S
C380 C379 1.379 . S
C380 C382 1.369 . S
C380 H408 0.930 . S
C381 C383 1.383 . S
C381 C384 1.382 . S
C381 H409 0.930 . S
C382 C380 1.369 . S
C382 C384 1.392 . S
C382 H410 0.930 . S
C383 C379 1.373 . S
C383 C381 1.383 . S
C383 H411 0.931 . S
C384 C381 1.382 . S
C384 C382 1.392 . S
C385 Eu376 2.828 . S
C385 C379 1.505 . S
C385 O397 1.249 . S
C385 O398 1.244 . S
O386 Eu377 2.373 . S
O386 C388 1.258 . S
O387 Eu376 2.392 . S
O387 C388 1.242 . S
C388 O386 1.258 . S
C388 O387 1.242 . S
O389 Eu376 2.418 . S
O389 C393 1.244 . S
O390 Eu377 2.488 . S
O390 C406 1.249 . S
O391 Eu377 2.471 . S
O391 C406 1.244 . S
O392 Eu377 2.349 . S
O392 C393 1.265 . S
C393 O389 1.244 . S
C393 O392 1.265 . S
O394 Eu376 2.373 . S
O394 C407 1.258 . S
O395 Eu377 2.392 . S
O395 C407 1.242 . S
O396 Eu377 2.418 . S
O396 C378 1.244 . S
O397 Eu376 2.488 . S
O397 C385 1.249 . S
O398 Eu376 2.471 . S
O398 C385 1.244 . S
O399 Eu376 2.349 . S
O399 C378 1.265 . S
C400 C401 1.379 . S
C400 C404 1.373 . S
C400 C406 1.505 . S
C401 C400 1.379 . S
C401 C403 1.369 . S
C401 H412 0.930 . S
C402 C404 1.383 . S
C402 C405 1.382 . S
C402 H413 0.930 . S
C403 C401 1.369 . S
C403 C405 1.392 . S
C403 H414 0.930 . S
C404 C400 1.373 . S
C404 C402 1.383 . S
C404 H415 0.931 . S
C405 C402 1.382 . S
C405 C403 1.392 . S
C406 Eu377 2.828 . S
C406 O390 1.249 . S
C406 O391 1.244 . S
C406 C400 1.505 . S
C407 O394 1.258 . S
C407 O395 1.242 . S
H408 C380 0.930 . S
H409 C381 0.930 . S
H410 C382 0.930 . S
H411 C383 0.931 . S
H412 C401 0.930 . S
H413 C402 0.930 . S
H414 C403 0.930 . S
H415 C404 0.931 . S
Eu416 C425 2.828 . S
Eu416 O427 2.392 . S
Eu416 O429 2.418 . S
Eu416 O434 2.373 . S
Eu416 O437 2.488 . S
Eu416 O438 2.471 . S
Eu416 O439 2.349 . S
Eu417 O426 2.373 . S
Eu417 O430 2.488 . S
Eu417 O431 2.471 . S
Eu417 O432 2.349 . S
Eu417 O435 2.392 . S
Eu417 O436 2.418 . S
Eu417 C446 2.828 . S
C418 O436 1.244 . S
C418 O439 1.265 . S
C419 C420 1.379 . S
C419 C423 1.373 . S
C419 C425 1.505 . S
C420 C419 1.379 . S
C420 C422 1.369 . S
C420 H448 0.930 . S
C421 C423 1.383 . S
C421 C424 1.382 . S
C421 H449 0.930 . S
C422 C420 1.369 . S
C422 C424 1.392 . S
C422 H450 0.930 . S
C423 C419 1.373 . S
C423 C421 1.383 . S
C423 H451 0.931 . S
C424 C421 1.382 . S
C424 C422 1.392 . S
C425 Eu416 2.828 . S
C425 C419 1.505 . S
C425 O437 1.249 . S
C425 O438 1.244 . S
O426 Eu417 2.373 . S
O426 C428 1.258 . S
O427 Eu416 2.392 . S
O427 C428 1.242 . S
C428 O426 1.258 . S
C428 O427 1.242 . S
O429 Eu416 2.418 . S
O429 C433 1.244 . S
O430 Eu417 2.488 . S
O430 C446 1.249 . S
O431 Eu417 2.471 . S
O431 C446 1.244 . S
O432 Eu417 2.349 . S
O432 C433 1.265 . S
C433 O429 1.244 . S
C433 O432 1.265 . S
O434 Eu416 2.373 . S
O434 C447 1.258 . S
O435 Eu417 2.392 . S
O435 C447 1.242 . S
O436 Eu417 2.418 . S
O436 C418 1.244 . S
O437 Eu416 2.488 . S
O437 C425 1.249 . S
O438 Eu416 2.471 . S
O438 C425 1.244 . S
O439 Eu416 2.349 . S
O439 C418 1.265 . S
C440 C441 1.379 . S
C440 C444 1.373 . S
C440 C446 1.505 . S
C441 C440 1.379 . S
C441 C443 1.369 . S
C441 H452 0.930 . S
C442 C444 1.383 . S
C442 C445 1.382 . S
C442 H453 0.930 . S
C443 C441 1.369 . S
C443 C445 1.392 . S
C443 H454 0.930 . S
C444 C440 1.373 . S
C444 C442 1.383 . S
C444 H455 0.931 . S
C445 C442 1.382 . S
C445 C443 1.392 . S
C446 Eu417 2.828 . S
C446 O430 1.249 . S
C446 O431 1.244 . S
C446 C440 1.505 . S
C447 O434 1.258 . S
C447 O435 1.242 . S
H448 C420 0.930 . S
H449 C421 0.930 . S
H450 C422 0.930 . S
H451 C423 0.931 . S
H452 C441 0.930 . S
H453 C442 0.930 . S
H454 C443 0.930 . S
H455 C444 0.931 . S
Eu456 C465 2.828 . S
Eu456 O467 2.392 . S
Eu456 O469 2.418 . S
Eu456 O474 2.373 . S
Eu456 O477 2.488 . S
Eu456 O478 2.471 . S
Eu456 O479 2.349 . S
Eu457 O466 2.373 . S
Eu457 O470 2.488 . S
Eu457 O471 2.471 . S
Eu457 O472 2.349 . S
Eu457 O475 2.392 . S
Eu457 O476 2.418 . S
Eu457 C486 2.828 . S
C458 O476 1.244 . S
C458 O479 1.265 . S
C459 C460 1.379 . S
C459 C463 1.373 . S
C459 C465 1.505 . S
C460 C459 1.379 . S
C460 C462 1.369 . S
C460 H488 0.930 . S
C461 C463 1.383 . S
C461 C464 1.382 . S
C461 H489 0.930 . S
C462 C460 1.369 . S
C462 C464 1.392 . S
C462 H490 0.930 . S
C463 C459 1.373 . S
C463 C461 1.383 . S
C463 H491 0.931 . S
C464 C461 1.382 . S
C464 C462 1.392 . S
C465 Eu456 2.828 . S
C465 C459 1.505 . S
C465 O477 1.249 . S
C465 O478 1.244 . S
O466 Eu457 2.373 . S
O466 C468 1.258 . S
O467 Eu456 2.392 . S
O467 C468 1.242 . S
C468 O466 1.258 . S
C468 O467 1.242 . S
O469 Eu456 2.418 . S
O469 C473 1.244 . S
O470 Eu457 2.488 . S
O470 C486 1.249 . S
O471 Eu457 2.471 . S
O471 C486 1.244 . S
O472 Eu457 2.349 . S
O472 C473 1.265 . S
C473 O469 1.244 . S
C473 O472 1.265 . S
O474 Eu456 2.373 . S
O474 C487 1.258 . S
O475 Eu457 2.392 . S
O475 C487 1.242 . S
O476 Eu457 2.418 . S
O476 C458 1.244 . S
O477 Eu456 2.488 . S
O477 C465 1.249 . S
O478 Eu456 2.471 . S
O478 C465 1.244 . S
O479 Eu456 2.349 . S
O479 C458 1.265 . S
C480 C481 1.379 . S
C480 C484 1.373 . S
C480 C486 1.505 . S
C481 C480 1.379 . S
C481 C483 1.369 . S
C481 H492 0.930 . S
C482 C484 1.383 . S
C482 C485 1.382 . S
C482 H493 0.930 . S
C483 C481 1.369 . S
C483 C485 1.392 . S
C483 H494 0.930 . S
C484 C480 1.373 . S
C484 C482 1.383 . S
C484 H495 0.931 . S
C485 C482 1.382 . S
C485 C483 1.392 . S
C486 Eu457 2.828 . S
C486 O470 1.249 . S
C486 O471 1.244 . S
C486 C480 1.505 . S
C487 O474 1.258 . S
C487 O475 1.242 . S
H488 C460 0.930 . S
H489 C461 0.930 . S
H490 C462 0.930 . S
H491 C463 0.931 . S
H492 C481 0.930 . S
H493 C482 0.930 . S
H494 C483 0.930 . S
H495 C484 0.931 . S
Eu496 C505 2.828 . S
Eu496 O507 2.392 . S
Eu496 O509 2.418 . S
Eu496 O514 2.373 . S
Eu496 O517 2.488 . S
Eu496 O518 2.471 . S
Eu496 O519 2.349 . S
Eu497 O506 2.373 . S
Eu497 O510 2.488 . S
Eu497 O511 2.471 . S
Eu497 O512 2.349 . S
Eu497 O515 2.392 . S
Eu497 O516 2.418 . S
Eu497 C526 2.828 . S
C498 O516 1.244 . S
C498 O519 1.265 . S
C499 C500 1.379 . S
C499 C503 1.373 . S
C499 C505 1.505 . S
C500 C499 1.379 . S
C500 C502 1.369 . S
C500 H528 0.930 . S
C501 C503 1.383 . S
C501 C504 1.382 . S
C501 H529 0.930 . S
C502 C500 1.369 . S
C502 C504 1.392 . S
C502 H530 0.930 . S
C503 C499 1.373 . S
C503 C501 1.383 . S
C503 H531 0.931 . S
C504 C501 1.382 . S
C504 C502 1.392 . S
C505 Eu496 2.828 . S
C505 C499 1.505 . S
C505 O517 1.249 . S
C505 O518 1.244 . S
O506 Eu497 2.373 . S
O506 C508 1.258 . S
O507 Eu496 2.392 . S
O507 C508 1.242 . S
C508 O506 1.258 . S
C508 O507 1.242 . S
O509 Eu496 2.418 . S
O509 C513 1.244 . S
O510 Eu497 2.488 . S
O510 C526 1.249 . S
O511 Eu497 2.471 . S
O511 C526 1.244 . S
O512 Eu497 2.349 . S
O512 C513 1.265 . S
C513 O509 1.244 . S
C513 O512 1.265 . S
O514 Eu496 2.373 . S
O514 C527 1.258 . S
O515 Eu497 2.392 . S
O515 C527 1.242 . S
O516 Eu497 2.418 . S
O516 C498 1.244 . S
O517 Eu496 2.488 . S
O517 C505 1.249 . S
O518 Eu496 2.471 . S
O518 C505 1.244 . S
O519 Eu496 2.349 . S
O519 C498 1.265 . S
C520 C521 1.379 . S
C520 C524 1.373 . S
C520 C526 1.505 . S
C521 C520 1.379 . S
C521 C523 1.369 . S
C521 H532 0.930 . S
C522 C524 1.383 . S
C522 C525 1.382 . S
C522 H533 0.930 . S
C523 C521 1.369 . S
C523 C525 1.392 . S
C523 H534 0.930 . S
C524 C520 1.373 . S
C524 C522 1.383 . S
C524 H535 0.931 . S
C525 C522 1.382 . S
C525 C523 1.392 . S
C526 Eu497 2.828 . S
C526 O510 1.249 . S
C526 O511 1.244 . S
C526 C520 1.505 . S
C527 O514 1.258 . S
C527 O515 1.242 . S
H528 C500 0.930 . S
H529 C501 0.930 . S
H530 C502 0.930 . S
H531 C503 0.931 . S
H532 C521 0.930 . S
H533 C522 0.930 . S
H534 C523 0.930 . S
H535 C524 0.931 . S
Eu536 C545 2.828 . S
Eu536 O547 2.392 . S
Eu536 O549 2.418 . S
Eu536 O554 2.373 . S
Eu536 O557 2.488 . S
Eu536 O558 2.471 . S
Eu536 O559 2.349 . S
Eu537 O546 2.373 . S
Eu537 O550 2.488 . S
Eu537 O551 2.471 . S
Eu537 O552 2.349 . S
Eu537 O555 2.392 . S
Eu537 O556 2.418 . S
Eu537 C566 2.828 . S
C538 O556 1.244 . S
C538 O559 1.265 . S
C539 C540 1.379 . S
C539 C543 1.373 . S
C539 C545 1.505 . S
C540 C539 1.379 . S
C540 C542 1.369 . S
C540 H568 0.930 . S
C541 C543 1.383 . S
C541 C544 1.382 . S
C541 H569 0.930 . S
C542 C540 1.369 . S
C542 C544 1.392 . S
C542 H570 0.930 . S
C543 C539 1.373 . S
C543 C541 1.383 . S
C543 H571 0.931 . S
C544 C541 1.382 . S
C544 C542 1.392 . S
C545 Eu536 2.828 . S
C545 C539 1.505 . S
C545 O557 1.249 . S
C545 O558 1.244 . S
O546 Eu537 2.373 . S
O546 C548 1.258 . S
O547 Eu536 2.392 . S
O547 C548 1.242 . S
C548 O546 1.258 . S
C548 O547 1.242 . S
O549 Eu536 2.418 . S
O549 C553 1.244 . S
O550 Eu537 2.488 . S
O550 C566 1.249 . S
O551 Eu537 2.471 . S
O551 C566 1.244 . S
O552 Eu537 2.349 . S
O552 C553 1.265 . S
C553 O549 1.244 . S
C553 O552 1.265 . S
O554 Eu536 2.373 . S
O554 C567 1.258 . S
O555 Eu537 2.392 . S
O555 C567 1.242 . S
O556 Eu537 2.418 . S
O556 C538 1.244 . S
O557 Eu536 2.488 . S
O557 C545 1.249 . S
O558 Eu536 2.471 . S
O558 C545 1.244 . S
O559 Eu536 2.349 . S
O559 C538 1.265 . S
C560 C561 1.379 . S
C560 C564 1.373 . S
C560 C566 1.505 . S
C561 C560 1.379 . S
C561 C563 1.369 . S
C561 H572 0.930 . S
C562 C564 1.383 . S
C562 C565 1.382 . S
C562 H573 0.930 . S
C563 C561 1.369 . S
C563 C565 1.392 . S
C563 H574 0.930 . S
C564 C560 1.373 . S
C564 C562 1.383 . S
C564 H575 0.931 . S
C565 C562 1.382 . S
C565 C563 1.392 . S
C566 Eu537 2.828 . S
C566 O550 1.249 . S
C566 O551 1.244 . S
C566 C560 1.505 . S
C567 O554 1.258 . S
C567 O555 1.242 . S
H568 C540 0.930 . S
H569 C541 0.930 . S
H570 C542 0.930 . S
H571 C543 0.931 . S
H572 C561 0.930 . S
H573 C562 0.930 . S
H574 C563 0.930 . S
H575 C564 0.931 . S
C576 C577 1.391 . S
C576 C578 1.394 . S
C576 H592 0.931 . S
C577 C576 1.391 . S
C577 C581 1.376 . S
C578 C576 1.394 . S
C578 C579 1.369 . S
C578 C582 1.531 . S
C579 C578 1.369 . S
C579 C580 1.410 . S
C579 C587 1.503 . S
C580 C579 1.410 . S
C580 C581 1.392 . S
C580 C583 1.511 . S
C581 C577 1.376 . S
C581 C580 1.392 . S
C581 H593 0.929 . S
C582 C578 1.531 . S
C582 H594 0.960 . S
C582 H595 0.962 . S
C582 H596 0.960 . S
C583 C580 1.511 . S
C583 H597 0.961 . S
C583 H598 0.961 . S
C583 H599 0.961 . S
C584 C585 1.370 . S
C584 C586 1.363 . S
C584 H600 0.931 1_554 S
C585 C584 1.370 . S
C585 C589 1.408 . S
C586 C584 1.363 . S
C586 C587 1.370 . S
C586 C590 1.534 . S
C587 C579 1.503 . S
C587 C586 1.370 . S
C587 C588 1.403 . S
C588 C587 1.403 . S
C588 C589 1.404 . S
C588 C591 1.539 . S
C589 C585 1.408 . S
C589 C588 1.404 . S
C589 H601 0.930 . S
C590 C586 1.534 . S
C590 H602 0.956 . S
C590 H603 0.966 . S
C590 H604 0.945 1_554 S
C591 C588 1.539 . S
C591 H605 0.958 . S
C591 H606 0.961 . S
C591 H607 0.960 . S
H592 C576 0.931 . S
H593 C581 0.929 . S
H594 C582 0.960 . S
H595 C582 0.962 . S
H596 C582 0.960 . S
H597 C583 0.961 . S
H598 C583 0.961 . S
H599 C583 0.961 . S
H600 C584 0.931 1_556 S
H601 C589 0.930 . S
H602 C590 0.956 . S
H603 C590 0.966 . S
H604 C590 0.945 1_556 S
H605 C591 0.958 . S
H606 C591 0.961 . S
H607 C591 0.960 . S
C608 C609 1.391 . S
C608 C610 1.394 . S
C608 H624 0.931 . S
C609 C608 1.391 . S
C609 C613 1.376 . S
C610 C608 1.394 . S
C610 C611 1.369 . S
C610 C614 1.531 . S
C611 C610 1.369 . S
C611 C612 1.410 . S
C611 C619 1.503 . S
C612 C611 1.410 . S
C612 C613 1.392 . S
C612 C615 1.511 . S
C613 C609 1.376 . S
C613 C612 1.392 . S
C613 H625 0.929 . S
C614 C610 1.531 . S
C614 H626 0.960 . S
C614 H627 0.962 . S
C614 H628 0.960 . S
C615 C612 1.511 . S
C615 H629 0.961 . S
C615 H630 0.961 . S
C615 H631 0.961 . S
C616 C617 1.370 . S
C616 C618 1.363 . S
C616 H632 0.931 . S
C617 C616 1.370 . S
C617 C621 1.408 . S
C618 C616 1.363 . S
C618 C619 1.370 . S
C618 C622 1.524 . S
C619 C611 1.503 . S
C619 C618 1.370 . S
C619 C620 1.403 . S
C620 C619 1.403 . S
C620 C621 1.404 . S
C620 C623 1.539 . S
C621 C617 1.408 . S
C621 C620 1.404 . S
C621 H633 0.930 . S
C622 C618 1.524 . S
C622 H634 0.956 . S
C622 H635 0.961 . S
C622 H636 0.961 . S
C623 C620 1.539 . S
C623 H637 0.958 . S
C623 H638 0.961 1_554 S
C623 H639 0.960 . S
H624 C608 0.931 . S
H625 C613 0.929 . S
H626 C614 0.960 . S
H627 C614 0.962 . S
H628 C614 0.960 . S
H629 C615 0.961 . S
H630 C615 0.961 . S
H631 C615 0.961 . S
H632 C616 0.931 . S
H633 C621 0.930 . S
H634 C622 0.956 . S
H635 C622 0.961 . S
H636 C622 0.961 . S
H637 C623 0.958 . S
H638 C623 0.961 1_556 S
H639 C623 0.960 . S
C640 C641 1.391 . S
C640 C642 1.394 . S
C640 H656 0.931 . S
C641 C640 1.391 . S
C641 C645 1.376 . S
C642 C640 1.394 . S
C642 C643 1.369 . S
C642 C646 1.531 . S
C643 C642 1.369 . S
C643 C644 1.410 . S
C643 C651 1.503 . S
C644 C643 1.410 . S
C644 C645 1.392 . S
C644 C647 1.511 . S
C645 C641 1.376 . S
C645 C644 1.392 . S
C645 H657 0.929 . S
C646 C642 1.531 . S
C646 H658 0.960 . S
C646 H659 0.962 . S
C646 H660 0.960 . S
C647 C644 1.511 . S
C647 H661 0.961 . S
C647 H662 0.961 . S
C647 H663 0.961 . S
C648 C649 1.370 . S
C648 C650 1.363 . S
C648 H664 0.931 1_554 S
C649 C648 1.370 . S
C649 C653 1.408 . S
C650 C648 1.363 . S
C650 C651 1.370 . S
C650 C654 1.524 1_554 S
C651 C643 1.503 . S
C651 C650 1.370 . S
C651 C652 1.403 . S
C652 C651 1.403 . S
C652 C653 1.404 . S
C652 C655 1.539 . S
C653 C649 1.408 . S
C653 C652 1.404 . S
C653 H665 0.930 . S
C654 C650 1.524 1_556 S
C654 H666 0.956 1_556 S
C654 H667 0.961 . S
C654 H668 0.961 . S
C655 C652 1.539 . S
C655 H669 0.958 . S
C655 H670 0.961 . S
C655 H671 0.960 . S
H656 C640 0.931 . S
H657 C645 0.929 . S
H658 C646 0.960 . S
H659 C646 0.962 . S
H660 C646 0.960 . S
H661 C647 0.961 . S
H662 C647 0.961 . S
H663 C647 0.961 . S
H664 C648 0.931 1_556 S
H665 C653 0.930 . S
H666 C654 0.956 1_554 S
H667 C654 0.961 . S
H668 C654 0.961 . S
H669 C655 0.958 . S
H670 C655 0.961 . S
H671 C655 0.960 . S
C672 C673 1.391 . S
C672 C674 1.394 . S
C672 H688 0.931 . S
C673 C672 1.391 . S
C673 C677 1.376 . S
C674 C672 1.394 . S
C674 C675 1.369 . S
C674 C678 1.531 . S
C675 C674 1.369 . S
C675 C676 1.410 . S
C675 C683 1.503 . S
C676 C675 1.410 . S
C676 C677 1.392 . S
C676 C679 1.511 . S
C677 C673 1.376 . S
C677 C676 1.392 . S
C677 H689 0.929 . S
C678 C674 1.531 . S
C678 H690 0.960 . S
C678 H691 0.962 . S
C678 H692 0.960 . S
C679 C676 1.511 . S
C679 H693 0.961 1_556 S
C679 H694 0.961 1_556 S
C679 H695 0.961 . S
C680 C681 1.370 1_554 S
C680 C682 1.363 1_554 S
C680 H696 0.931 . S
C681 C680 1.370 1_556 S
C681 C685 1.408 . S
C682 C680 1.363 1_556 S
C682 C683 1.370 . S
C682 C686 1.524 1_556 S
C683 C675 1.503 . S
C683 C682 1.370 . S
C683 C684 1.403 . S
C684 C683 1.403 . S
C684 C685 1.404 . S
C684 C687 1.539 . S
C685 C681 1.408 . S
C685 C684 1.404 . S
C685 H697 0.930 . S
C686 C682 1.524 1_554 S
C686 H698 0.956 1_554 S
C686 H699 0.961 . S
C686 H700 0.961 . S
C687 C684 1.539 . S
C687 H701 0.958 . S
C687 H702 0.961 . S
C687 H703 0.960 . S
H688 C672 0.931 . S
H689 C677 0.929 . S
H690 C678 0.960 . S
H691 C678 0.962 . S
H692 C678 0.960 . S
H693 C679 0.961 1_554 S
H694 C679 0.961 1_554 S
H695 C679 0.961 . S
H696 C680 0.931 . S
H697 C685 0.930 . S
H698 C686 0.956 1_556 S
H699 C686 0.961 . S
H700 C686 0.961 . S
H701 C687 0.958 . S
H702 C687 0.961 . S
H703 C687 0.960 . S
C704 C705 1.391 . S
C704 C706 1.394 . S
C704 H720 0.931 . S
C705 C704 1.391 . S
C705 C709 1.376 . S
C706 C704 1.394 . S
C706 C707 1.369 . S
C706 C710 1.531 . S
C707 C706 1.369 . S
C707 C708 1.410 . S
C707 C715 1.503 . S
C708 C707 1.410 . S
C708 C709 1.392 . S
C708 C711 1.511 . S
C709 C705 1.376 . S
C709 C708 1.392 . S
C709 H721 0.929 . S
C710 C706 1.531 . S
C710 H722 0.960 . S
C710 H723 0.962 . S
C710 H724 0.960 . S
C711 C708 1.511 . S
C711 H725 0.961 . S
C711 H726 0.961 . S
C711 H727 0.961 . S
C712 C713 1.370 . S
C712 C714 1.363 . S
C712 H728 0.931 . S
C713 C712 1.370 . S
C713 C717 1.408 1_556 S
C714 C712 1.363 . S
C714 C715 1.370 . S
C714 C718 1.524 . S
C715 C707 1.503 . S
C715 C714 1.370 . S
C715 C716 1.403 . S
C716 C715 1.403 . S
C716 C717 1.404 1_556 S
C716 C719 1.539 1_556 S
C717 C713 1.408 1_554 S
C717 C716 1.404 1_554 S
C717 H729 0.930 . S
C718 C714 1.524 . S
C718 H730 0.956 . S
C718 H731 0.961 . S
C718 H732 0.961 . S
C719 C716 1.539 1_554 S
C719 H733 0.958 . S
C719 H734 0.961 . S
C719 H735 0.960 . S
H720 C704 0.931 . S
H721 C709 0.929 . S
H722 C710 0.960 . S
H723 C710 0.962 . S
H724 C710 0.960 . S
H725 C711 0.961 . S
H726 C711 0.961 . S
H727 C711 0.961 . S
H728 C712 0.931 . S
H729 C717 0.930 . S
H730 C718 0.956 . S
H731 C718 0.961 . S
H732 C718 0.961 . S
H733 C719 0.958 . S
H734 C719 0.961 . S
H735 C719 0.960 . S
C736 C737 1.391 . S
C736 C738 1.394 . S
C736 H752 0.931 . S
C737 C736 1.391 . S
C737 C741 1.376 . S
C738 C736 1.394 . S
C738 C739 1.369 . S
C738 C742 1.531 1_556 S
C739 C738 1.369 . S
C739 C740 1.410 . S
C739 C747 1.503 . S
C740 C739 1.410 . S
C740 C741 1.392 . S
C740 C743 1.511 . S
C741 C737 1.376 . S
C741 C740 1.392 . S
C741 H753 0.929 . S
C742 C738 1.531 1_554 S
C742 H754 0.959 . S
C742 H755 0.962 . S
C742 H756 0.960 . S
C743 C740 1.511 . S
C743 H757 0.961 . S
C743 H758 0.961 . S
C743 H759 0.961 . S
C744 C745 1.370 1_554 S
C744 C746 1.363 . S
C744 H760 0.931 . S
C745 C744 1.370 1_556 S
C745 C749 1.408 . S
C746 C744 1.363 . S
C746 C747 1.370 1_554 S
C746 C750 1.524 . S
C747 C739 1.503 . S
C747 C746 1.370 1_556 S
C747 C748 1.403 . S
C748 C747 1.403 . S
C748 C749 1.404 . S
C748 C751 1.539 . S
C749 C745 1.408 . S
C749 C748 1.404 . S
C749 H761 0.930 . S
C750 C746 1.524 . S
C750 H762 0.956 . S
C750 H763 0.961 . S
C750 H764 0.961 . S
C751 C748 1.539 . S
C751 H765 0.958 . S
C751 H766 0.961 . S
C751 H767 0.960 . S
H752 C736 0.931 . S
H753 C741 0.929 . S
H754 C742 0.959 . S
H755 C742 0.962 . S
H756 C742 0.960 . S
H757 C743 0.961 . S
H758 C743 0.961 . S
H759 C743 0.961 . S
H760 C744 0.931 . S
H761 C749 0.930 . S
H762 C750 0.956 . S
H763 C750 0.961 . S
H764 C750 0.961 . S
H765 C751 0.958 . S
H766 C751 0.961 . S
H767 C751 0.960 . S
C768 C769 1.391 . S
C768 C770 1.394 . S
C768 H784 0.931 . S
C769 C768 1.391 . S
C769 C773 1.376 . S
C770 C768 1.394 . S
C770 C771 1.369 . S
C770 C774 1.531 1_556 S
C771 C770 1.369 . S
C771 C772 1.410 . S
C771 C779 1.503 . S
C772 C771 1.410 . S
C772 C773 1.392 . S
C772 C775 1.511 . S
C773 C769 1.376 . S
C773 C772 1.392 . S
C773 H785 0.929 . S
C774 C770 1.531 1_554 S
C774 H786 0.960 . S
C774 H787 0.962 . S
C774 H788 0.960 . S
C775 C772 1.511 . S
C775 H789 0.961 . S
C775 H790 0.961 . S
C775 H791 0.961 . S
C776 C777 1.370 . S
C776 C778 1.363 . S
C776 H792 0.931 . S
C777 C776 1.370 . S
C777 C781 1.408 1_556 S
C778 C776 1.363 . S
C778 C779 1.370 . S
C778 C782 1.524 . S
C779 C771 1.503 . S
C779 C778 1.370 . S
C779 C780 1.403 . S
C780 C779 1.403 . S
C780 C781 1.404 1_556 S
C780 C783 1.539 1_556 S
C781 C777 1.408 1_554 S
C781 C780 1.404 1_554 S
C781 H793 0.930 . S
C782 C778 1.524 . S
C782 H794 0.956 . S
C782 H795 0.961 . S
C782 H796 0.961 . S
C783 C780 1.539 1_554 S
C783 H797 0.958 . S
C783 H798 0.961 . S
C783 H799 0.960 . S
H784 C768 0.931 . S
H785 C773 0.929 . S
H786 C774 0.960 . S
H787 C774 0.962 . S
H788 C774 0.960 . S
H789 C775 0.961 . S
H790 C775 0.961 . S
H791 C775 0.961 . S
H792 C776 0.931 . S
H793 C781 0.930 . S
H794 C782 0.956 . S
H795 C782 0.961 . S
H796 C782 0.961 . S
H797 C783 0.958 . S
H798 C783 0.961 . S
H799 C783 0.960 . S
C800 C801 1.391 . S
C800 C802 1.394 . S
C800 H816 0.931 . S
C801 C800 1.391 . S
C801 C805 1.376 . S
C802 C800 1.394 . S
C802 C803 1.369 . S
C802 C806 1.531 . S
C803 C802 1.369 . S
C803 C804 1.410 . S
C803 C811 1.503 . S
C804 C803 1.410 . S
C804 C805 1.392 . S
C804 C807 1.511 . S
C805 C801 1.376 . S
C805 C804 1.392 . S
C805 H817 0.929 . S
C806 C802 1.531 . S
C806 H818 0.960 . S
C806 H819 0.962 . S
C806 H820 0.960 . S
C807 C804 1.511 . S
C807 H821 0.961 . S
C807 H822 0.961 . S
C807 H823 0.961 . S
C808 C809 1.370 . S
C808 C810 1.363 . S
C808 H824 0.931 . S
C809 C808 1.370 . S
C809 C813 1.408 . S
C810 C808 1.363 . S
C810 C811 1.370 . S
C810 C814 1.524 . S
C811 C803 1.503 . S
C811 C810 1.370 . S
C811 C812 1.403 . S
C812 C811 1.403 . S
C812 C813 1.404 . S
C812 C815 1.539 1_556 S
C813 C809 1.408 . S
C813 C812 1.404 . S
C813 H825 0.930 1_556 S
C814 C810 1.524 . S
C814 H826 0.956 . S
C814 H827 0.961 . S
C814 H828 0.961 . S
C815 C812 1.539 1_554 S
C815 H829 0.958 . S
C815 H830 0.961 . S
C815 H831 0.960 . S
H816 C800 0.931 . S
H817 C805 0.929 . S
H818 C806 0.960 . S
H819 C806 0.962 . S
H820 C806 0.960 . S
H821 C807 0.961 . S
H822 C807 0.961 . S
H823 C807 0.961 . S
H824 C808 0.931 . S
H825 C813 0.930 1_554 S
H826 C814 0.956 . S
H827 C814 0.961 . S
H828 C814 0.961 . S
H829 C815 0.958 . S
H830 C815 0.961 . S
H831 C815 0.960 . S
C832 C833 1.391 . S
C832 C834 1.394 . S
C832 H848 0.931 . S
C833 C832 1.391 . S
C833 C837 1.376 . S
C834 C832 1.394 . S
C834 C835 1.369 . S
C834 C838 1.531 . S
C835 C834 1.369 . S
C835 C836 1.410 . S
C835 C843 1.503 . S
C836 C835 1.410 . S
C836 C837 1.392 . S
C836 C839 1.511 1_556 S
C837 C833 1.376 . S
C837 C836 1.392 . S
C837 H849 0.929 1_556 S
C838 C834 1.531 . S
C838 H850 0.960 . S
C838 H851 0.962 . S
C838 H852 0.960 . S
C839 C836 1.511 1_554 S
C839 H853 0.961 . S
C839 H854 0.961 . S
C839 H855 0.961 1_554 S
C840 C841 1.392 . S
C840 C842 1.363 . S
C840 H856 0.931 . S
C841 C840 1.392 . S
C841 C845 1.384 1_554 S
C842 C840 1.363 . S
C842 C843 1.370 1_554 S
C842 C846 1.524 . S
C843 C835 1.503 . S
C843 C842 1.370 1_556 S
C843 C844 1.403 . S
C844 C843 1.403 . S
C844 C845 1.404 . S
C844 C847 1.539 . S
C845 C841 1.384 1_556 S
C845 C844 1.404 . S
C845 H857 0.930 . S
C846 C842 1.524 . S
C846 H858 0.956 . S
C846 H859 0.961 . S
C846 H860 0.961 . S
C847 C844 1.539 . S
C847 H861 0.958 . S
C847 H862 0.961 . S
C847 H863 0.960 . S
H848 C832 0.931 . S
H849 C837 0.929 1_554 S
H850 C838 0.960 . S
H851 C838 0.962 . S
H852 C838 0.960 . S
H853 C839 0.961 . S
H854 C839 0.961 . S
H855 C839 0.961 1_556 S
H856 C840 0.931 . S
H857 C845 0.930 . S
H858 C846 0.956 . S
H859 C846 0.961 . S
H860 C846 0.961 . S
H861 C847 0.958 . S
H862 C847 0.961 . S
H863 C847 0.960 . S
C864 C865 1.391 . S
C864 C866 1.394 . S
C864 H880 0.931 . S
C865 C864 1.391 . S
C865 C869 1.376 . S
C866 C864 1.394 . S
C866 C867 1.369 . S
C866 C870 1.531 . S
C867 C866 1.369 . S
C867 C868 1.410 . S
C867 C875 1.503 . S
C868 C867 1.410 . S
C868 C869 1.392 . S
C868 C871 1.511 . S
C869 C865 1.376 . S
C869 C868 1.392 . S
C869 H881 0.929 . S
C870 C866 1.531 . S
C870 H882 0.960 . S
C870 H883 0.962 . S
C870 H884 0.960 . S
C871 C868 1.511 . S
C871 H885 0.961 . S
C871 H886 0.961 . S
C871 H887 0.961 . S
C872 C873 1.370 . S
C872 C874 1.363 . S
C872 H888 0.931 1_554 S
C873 C872 1.370 . S
C873 C877 1.408 . S
C874 C872 1.363 . S
C874 C875 1.370 . S
C874 C878 1.524 1_554 S
C875 C867 1.503 . S
C875 C874 1.370 . S
C875 C876 1.403 . S
C876 C875 1.403 . S
C876 C877 1.404 . S
C876 C879 1.539 . S
C877 C873 1.408 . S
C877 C876 1.404 . S
C877 H889 0.930 . S
C878 C874 1.524 1_556 S
C878 H890 0.956 . S
C878 H891 0.961 1_556 S
C878 H892 0.961 . S
C879 C876 1.539 . S
C879 H893 0.958 . S
C879 H894 0.961 . S
C879 H895 0.960 . S
H880 C864 0.931 . S
H881 C869 0.929 . S
H882 C870 0.960 . S
H883 C870 0.962 . S
H884 C870 0.960 . S
H885 C871 0.961 . S
H886 C871 0.961 . S
H887 C871 0.961 . S
H888 C872 0.931 1_556 S
H889 C877 0.930 . S
H890 C878 0.956 . S
H891 C878 0.961 1_554 S
H892 C878 0.961 . S
H893 C879 0.958 . S
H894 C879 0.961 . S
H895 C879 0.960 . S
C896 C897 1.391 . S
C896 C898 1.394 . S
C896 H912 0.931 . S
C897 C896 1.391 . S
C897 C901 1.376 . S
C898 C896 1.394 . S
C898 C899 1.369 . S
C898 C902 1.531 . S
C899 C898 1.369 . S
C899 C900 1.410 . S
C899 C907 1.503 . S
C900 C899 1.410 . S
C900 C901 1.392 . S
C900 C903 1.511 . S
C901 C897 1.376 . S
C901 C900 1.392 . S
C901 H913 0.929 . S
C902 C898 1.531 . S
C902 H914 0.960 . S
C902 H915 0.962 . S
C902 H916 0.960 . S
C903 C900 1.511 . S
C903 H917 0.961 . S
C903 H918 0.961 . S
C903 H919 0.961 . S
C904 C905 1.370 . S
C904 C906 1.363 . S
C904 H920 0.931 . S
C905 C904 1.370 . S
C905 C909 1.408 . S
C906 C904 1.363 . S
C906 C907 1.370 . S
C906 C910 1.524 . S
C907 C899 1.503 . S
C907 C906 1.370 . S
C907 C908 1.403 . S
C908 C907 1.403 . S
C908 C909 1.404 . S
C908 C911 1.539 . S
C909 C905 1.408 . S
C909 C908 1.404 . S
C909 H921 0.930 . S
C910 C906 1.524 . S
C910 H922 0.956 . S
C910 H923 0.961 . S
C910 H924 0.961 . S
C911 C908 1.539 . S
C911 H925 0.958 . S
C911 H926 0.961 . S
C911 H927 0.960 . S
H912 C896 0.931 . S
H913 C901 0.929 . S
H914 C902 0.960 . S
H915 C902 0.962 . S
H916 C902 0.960 . S
H917 C903 0.961 . S
H918 C903 0.961 . S
H919 C903 0.961 . S
H920 C904 0.931 . S
H921 C909 0.930 . S
H922 C910 0.956 . S
H923 C910 0.961 . S
H924 C910 0.961 . S
H925 C911 0.958 . S
H926 C911 0.961 . S
H927 C911 0.960 . S
C928 C929 1.391 . S
C928 C930 1.394 . S
C928 H944 0.931 . S
C929 C928 1.391 . S
C929 C933 1.376 . S
C930 C928 1.394 . S
C930 C931 1.369 . S
C930 C934 1.531 . S
C931 C930 1.369 . S
C931 C932 1.410 . S
C931 C939 1.503 . S
C932 C931 1.410 . S
C932 C933 1.392 . S
C932 C935 1.511 . S
C933 C929 1.376 . S
C933 C932 1.392 . S
C933 H945 0.929 . S
C934 C930 1.531 . S
C934 H946 0.960 . S
C934 H947 0.962 . S
C934 H948 0.960 . S
C935 C932 1.511 . S
C935 H949 0.961 . S
C935 H950 0.961 . S
C935 H951 0.961 . S
C936 C937 1.332 1_556 S
C936 C938 1.352 1_556 S
C936 H952 0.983 . S
C937 C936 1.332 1_554 S
C937 C941 1.408 . S
C938 C936 1.352 1_554 S
C938 C939 1.370 . S
C938 C942 1.524 1_554 S
C939 C931 1.503 . S
C939 C938 1.370 . S
C939 C940 1.403 . S
C940 C939 1.403 . S
C940 C941 1.404 . S
C940 C943 1.539 . S
C941 C937 1.408 . S
C941 C940 1.404 . S
C941 H953 0.930 . S
C942 C938 1.524 1_556 S
C942 H954 0.956 . S
C942 H955 0.961 . S
C942 H956 0.961 . S
C943 C940 1.539 . S
C943 H957 0.958 . S
C943 H958 0.961 . S
C943 H959 0.960 . S
H944 C928 0.931 . S
H945 C933 0.929 . S
H946 C934 0.960 . S
H947 C934 0.962 . S
H948 C934 0.960 . S
H949 C935 0.961 . S
H950 C935 0.961 . S
H951 C935 0.961 . S
H952 C936 0.983 . S
H953 C941 0.930 . S
H954 C942 0.956 . S
H955 C942 0.961 . S
H956 C942 0.961 . S
H957 C943 0.958 . S
H958 C943 0.961 . S
H959 C943 0.960 . S
C960 C961 1.391 . S
C960 C962 1.394 . S
C960 H976 0.931 . S
C961 C960 1.391 . S
C961 C965 1.376 . S
C962 C960 1.394 . S
C962 C963 1.369 . S
C962 C966 1.531 . S
C963 C962 1.369 . S
C963 C964 1.410 . S
C963 C971 1.503 1_655 S
C964 C963 1.410 . S
C964 C965 1.392 . S
C964 C967 1.511 . S
C965 C961 1.376 . S
C965 C964 1.392 . S
C965 H977 0.929 . S
C966 C962 1.531 . S
C966 H978 0.960 . S
C966 H979 0.962 . S
C966 H980 0.960 . S
C967 C964 1.511 . S
C967 H981 0.961 . S
C967 H982 0.945 1_655 S
C967 H983 0.975 . S
C968 C969 1.370 . S
C968 C970 1.363 . S
C968 H984 0.931 . S
C969 C968 1.370 . S
C969 C973 1.408 . S
C970 C968 1.363 . S
C970 C971 1.370 . S
C970 C974 1.524 1_455 S
C971 C963 1.503 1_455 S
C971 C970 1.370 . S
C971 C972 1.403 . S
C972 C971 1.403 . S
C972 C973 1.404 . S
C972 C975 1.539 . S
C973 C969 1.408 . S
C973 C972 1.404 . S
C973 H985 0.930 . S
C974 C970 1.524 1_655 S
C974 H986 0.956 . S
C974 H987 0.961 . S
C974 H988 0.961 . S
C975 C972 1.539 . S
C975 H989 0.958 . S
C975 H990 0.961 . S
C975 H991 0.960 . S
H976 C960 0.931 . S
H977 C965 0.929 . S
H978 C966 0.960 . S
H979 C966 0.962 . S
H980 C966 0.960 . S
H981 C967 0.961 . S
H982 C967 0.945 1_455 S
H983 C967 0.975 . S
H984 C968 0.931 . S
H985 C973 0.930 . S
H986 C974 0.956 . S
H987 C974 0.961 . S
H988 C974 0.961 . S
H989 C975 0.958 . S
H990 C975 0.961 . S
H991 C975 0.960 . S
C992 C993 1.391 . S
C992 C994 1.394 . S
C992 H1008 0.931 . S
C993 C992 1.391 . S
C993 C997 1.376 . S
C994 C992 1.394 . S
C994 C995 1.369 . S
C994 C998 1.531 . S
C995 C994 1.369 . S
C995 C996 1.410 . S
C995 C1003 1.503 . S
C996 C995 1.410 . S
C996 C997 1.392 . S
C996 C999 1.511 . S
C997 C993 1.376 . S
C997 C996 1.392 . S
C997 H1009 0.929 . S
C998 C994 1.531 . S
C998 H1010 0.960 . S
C998 H1011 0.962 . S
C998 H1012 0.960 . S
C999 C996 1.511 . S
C999 H1013 0.961 . S
C999 H1014 0.961 . S
C999 H1015 0.961 . S
C1000 C1001 1.370 . S
C1000 C1002 1.363 . S
C1000 H1016 0.931 . S
C1001 C1000 1.370 . S
C1001 C1005 1.408 . S
C1002 C1000 1.363 . S
C1002 C1003 1.370 . S
C1002 C1006 1.524 . S
C1003 C995 1.503 . S
C1003 C1002 1.370 . S
C1003 C1004 1.403 . S
C1004 C1003 1.403 . S
C1004 C1005 1.404 . S
C1004 C1007 1.539 . S
C1005 C1001 1.408 . S
C1005 C1004 1.404 . S
C1005 H1017 0.930 . S
C1006 C1002 1.524 . S
C1006 H1018 0.956 . S
C1006 H1019 0.961 . S
C1006 H1020 0.961 . S
C1007 C1004 1.539 . S
C1007 H1021 0.958 . S
C1007 H1022 0.961 . S
C1007 H1023 0.960 . S
H1008 C992 0.931 . S
H1009 C997 0.929 . S
H1010 C998 0.960 . S
H1011 C998 0.962 . S
H1012 C998 0.960 . S
H1013 C999 0.961 . S
H1014 C999 0.961 . S
H1015 C999 0.961 . S
H1016 C1000 0.931 . S
H1017 C1005 0.930 . S
H1018 C1006 0.956 . S
H1019 C1006 0.961 . S
H1020 C1006 0.961 . S
H1021 C1007 0.958 . S
H1022 C1007 0.961 . S
H1023 C1007 0.960 . S
C1024 C1025 1.391 . S
C1024 C1026 1.394 . S
C1024 H1040 0.931 . S
C1025 C1024 1.391 . S
C1025 C1029 1.376 . S
C1026 C1024 1.394 . S
C1026 C1027 1.369 . S
C1026 C1030 1.531 . S
C1027 C1026 1.369 . S
C1027 C1028 1.410 . S
C1027 C1035 1.503 . S
C1028 C1027 1.410 . S
C1028 C1029 1.392 . S
C1028 C1031 1.511 . S
C1029 C1025 1.376 . S
C1029 C1028 1.392 . S
C1029 H1041 0.929 . S
C1030 C1026 1.531 . S
C1030 H1042 0.960 . S
C1030 H1043 0.962 . S
C1030 H1044 0.960 . S
C1031 C1028 1.511 . S
C1031 H1045 0.961 . S
C1031 H1046 0.961 . S
C1031 H1047 0.961 . S
C1032 C1033 1.370 . S
C1032 C1034 1.357 1_565 S
C1032 H1048 0.931 . S
C1033 C1032 1.370 . S
C1033 C1037 1.408 . S
C1034 C1032 1.357 1_545 S
C1034 C1035 1.373 . S
C1034 C1038 1.527 . S
C1035 C1027 1.503 . S
C1035 C1034 1.373 . S
C1035 C1036 1.403 1_545 S
C1036 C1035 1.403 1_565 S
C1036 C1037 1.404 . S
C1036 C1039 1.539 . S
C1037 C1033 1.408 . S
C1037 C1036 1.404 . S
C1037 H1049 0.930 . S
C1038 C1034 1.527 . S
C1038 H1050 0.956 . S
C1038 H1051 0.961 . S
C1038 H1052 0.961 . S
C1039 C1036 1.539 . S
C1039 H1053 0.957 . S
C1039 H1054 0.961 . S
C1039 H1055 0.960 1_565 S
H1040 C1024 0.931 . S
H1041 C1029 0.929 . S
H1042 C1030 0.960 . S
H1043 C1030 0.962 . S
H1044 C1030 0.960 . S
H1045 C1031 0.961 . S
H1046 C1031 0.961 . S
H1047 C1031 0.961 . S
H1048 C1032 0.931 . S
H1049 C1037 0.930 . S
H1050 C1038 0.956 . S
H1051 C1038 0.961 . S
H1052 C1038 0.961 . S
H1053 C1039 0.957 . S
H1054 C1039 0.961 . S
H1055 C1039 0.960 1_545 S
C1056 C1057 1.391 . S
C1056 C1058 1.394 . S
C1056 H1072 0.931 . S
C1057 C1056 1.391 . S
C1057 C1061 1.376 . S
C1058 C1056 1.394 . S
C1058 C1059 1.369 . S
C1058 C1062 1.531 . S
C1059 C1058 1.369 . S
C1059 C1060 1.410 . S
C1059 C1067 1.503 . S
C1060 C1059 1.410 . S
C1060 C1061 1.392 . S
C1060 C1063 1.511 . S
C1061 C1057 1.376 . S
C1061 C1060 1.392 . S
C1061 H1073 0.929 . S
C1062 C1058 1.531 . S
C1062 H1074 0.960 . S
C1062 H1075 0.962 . S
C1062 H1076 0.960 . S
C1063 C1060 1.511 . S
C1063 H1077 0.961 . S
C1063 H1078 0.961 . S
C1063 H1079 0.961 . S
C1064 C1065 1.370 . S
C1064 C1066 1.363 . S
C1064 H1080 0.931 . S
C1065 C1064 1.370 . S
C1065 C1069 1.408 . S
C1066 C1064 1.363 . S
C1066 C1067 1.370 . S
C1066 C1070 1.524 . S
C1067 C1059 1.503 . S
C1067 C1066 1.370 . S
C1067 C1068 1.403 . S
C1068 C1067 1.403 . S
C1068 C1069 1.404 . S
C1068 C1071 1.539 . S
C1069 C1065 1.408 . S
C1069 C1068 1.404 . S
C1069 H1081 0.930 . S
C1070 C1066 1.524 . S
C1070 H1082 0.956 . S
C1070 H1083 0.961 . S
C1070 H1084 0.961 . S
C1071 C1068 1.539 . S
C1071 H1085 0.958 . S
C1071 H1086 0.961 . S
C1071 H1087 0.960 . S
H1072 C1056 0.931 . S
H1073 C1061 0.929 . S
H1074 C1062 0.960 . S
H1075 C1062 0.962 . S
H1076 C1062 0.960 . S
H1077 C1063 0.961 . S
H1078 C1063 0.961 . S
H1079 C1063 0.961 . S
H1080 C1064 0.931 . S
H1081 C1069 0.930 . S
H1082 C1070 0.956 . S
H1083 C1070 0.961 . S
H1084 C1070 0.961 . S
H1085 C1071 0.958 . S
H1086 C1071 0.961 . S
H1087 C1071 0.960 . S
C1088 C1089 1.391 . S
C1088 C1090 1.394 . S
C1088 H1104 0.931 . S
C1089 C1088 1.391 . S
C1089 C1093 1.376 . S
C1090 C1088 1.394 . S
C1090 C1091 1.369 . S
C1090 C1094 1.531 . S
C1091 C1090 1.369 . S
C1091 C1092 1.410 . S
C1091 C1099 1.503 . S
C1092 C1091 1.410 . S
C1092 C1093 1.392 . S
C1092 C1095 1.511 . S
C1093 C1089 1.376 . S
C1093 C1092 1.392 . S
C1093 H1105 0.929 . S
C1094 C1090 1.531 . S
C1094 H1106 0.960 . S
C1094 H1107 0.962 . S
C1094 H1108 0.960 . S
C1095 C1092 1.511 . S
C1095 H1109 0.961 . S
C1095 H1110 0.961 . S
C1095 H1111 0.961 . S
C1096 C1097 1.370 . S
C1096 C1098 1.363 . S
C1096 H1112 0.931 . S
C1097 C1096 1.370 . S
C1097 C1101 1.408 . S
C1098 C1096 1.363 . S
C1098 C1099 1.370 . S
C1098 C1102 1.524 . S
C1099 C1091 1.503 . S
C1099 C1098 1.370 . S
C1099 C1100 1.403 . S
C1100 C1099 1.403 . S
C1100 C1101 1.404 . S
C1100 C1103 1.539 . S
C1101 C1097 1.408 . S
C1101 C1100 1.404 . S
C1101 H1113 0.930 . S
C1102 C1098 1.524 . S
C1102 H1114 0.956 . S
C1102 H1115 0.961 . S
C1102 H1116 0.961 . S
C1103 C1100 1.539 . S
C1103 H1117 0.958 . S
C1103 H1118 0.961 . S
C1103 H1119 0.960 . S
H1104 C1088 0.931 . S
H1105 C1093 0.929 . S
H1106 C1094 0.960 . S
H1107 C1094 0.962 . S
H1108 C1094 0.960 . S
H1109 C1095 0.961 . S
H1110 C1095 0.961 . S
H1111 C1095 0.961 . S
H1112 C1096 0.931 . S
H1113 C1101 0.930 . S
H1114 C1102 0.956 . S
H1115 C1102 0.961 . S
H1116 C1102 0.961 . S
H1117 C1103 0.958 . S
H1118 C1103 0.961 . S
H1119 C1103 0.960 . S
C1120 C1121 1.391 . S
C1120 C1122 1.394 . S
C1120 H1136 0.931 . S
C1121 C1120 1.391 . S
C1121 C1125 1.376 . S
C1122 C1120 1.394 . S
C1122 C1123 1.369 . S
C1122 C1126 1.531 . S
C1123 C1122 1.369 . S
C1123 C1124 1.410 . S
C1123 C1131 1.503 . S
C1124 C1123 1.410 . S
C1124 C1125 1.392 . S
C1124 C1127 1.511 . S
C1125 C1121 1.376 . S
C1125 C1124 1.392 . S
C1125 H1137 0.929 . S
C1126 C1122 1.531 . S
C1126 H1138 0.960 . S
C1126 H1139 0.962 . S
C1126 H1140 0.960 . S
C1127 C1124 1.511 . S
C1127 H1141 0.961 . S
C1127 H1142 0.961 . S
C1127 H1143 0.961 . S
C1128 C1129 1.370 . S
C1128 C1130 1.363 . S
C1128 H1144 0.931 . S
C1129 C1128 1.370 . S
C1129 C1133 1.408 . S
C1130 C1128 1.363 . S
C1130 C1131 1.370 . S
C1130 C1134 1.524 . S
C1131 C1123 1.503 . S
C1131 C1130 1.370 . S
C1131 C1132 1.403 . S
C1132 C1131 1.403 . S
C1132 C1133 1.404 . S
C1132 C1135 1.539 . S
C1133 C1129 1.408 . S
C1133 C1132 1.404 . S
C1133 H1145 0.930 . S
C1134 C1130 1.524 . S
C1134 H1146 0.956 . S
C1134 H1147 0.961 . S
C1134 H1148 0.961 . S
C1135 C1132 1.539 . S
C1135 H1149 0.958 . S
C1135 H1150 0.961 . S
C1135 H1151 0.960 . S
H1136 C1120 0.931 . S
H1137 C1125 0.929 . S
H1138 C1126 0.960 . S
H1139 C1126 0.962 . S
H1140 C1126 0.960 . S
H1141 C1127 0.961 . S
H1142 C1127 0.961 . S
H1143 C1127 0.961 . S
H1144 C1128 0.931 . S
H1145 C1133 0.930 . S
H1146 C1134 0.956 . S
H1147 C1134 0.961 . S
H1148 C1134 0.961 . S
H1149 C1135 0.958 . S
H1150 C1135 0.961 . S
H1151 C1135 0.960 . S
C1152 C1153 1.391 . S
C1152 C1154 1.394 . S
C1152 H1168 0.931 . S
C1153 C1152 1.391 . S
C1153 C1157 1.376 . S
C1154 C1152 1.394 . S
C1154 C1155 1.369 . S
C1154 C1158 1.531 . S
C1155 C1154 1.369 . S
C1155 C1156 1.410 . S
C1155 C1163 1.503 . S
C1156 C1155 1.410 . S
C1156 C1157 1.392 . S
C1156 C1159 1.511 . S
C1157 C1153 1.376 . S
C1157 C1156 1.392 . S
C1157 H1169 0.929 . S
C1158 C1154 1.531 . S
C1158 H1170 0.960 . S
C1158 H1171 0.962 . S
C1158 H1172 0.960 . S
C1159 C1156 1.511 . S
C1159 H1173 0.961 . S
C1159 H1174 0.961 . S
C1159 H1175 0.961 . S
C1160 C1161 1.370 . S
C1160 C1162 1.363 . S
C1160 H1176 0.931 . S
C1161 C1160 1.370 . S
C1161 C1165 1.408 . S
C1162 C1160 1.363 . S
C1162 C1163 1.370 . S
C1162 C1166 1.524 . S
C1163 C1155 1.503 . S
C1163 C1162 1.370 . S
C1163 C1164 1.403 . S
C1164 C1163 1.403 . S
C1164 C1165 1.404 . S
C1164 C1167 1.539 . S
C1165 C1161 1.408 . S
C1165 C1164 1.404 . S
C1165 H1177 0.930 . S
C1166 C1162 1.524 . S
C1166 H1178 0.956 . S
C1166 H1179 0.961 . S
C1166 H1180 0.961 . S
C1167 C1164 1.539 . S
C1167 H1181 0.958 . S
C1167 H1182 0.961 . S
C1167 H1183 0.960 . S
H1168 C1152 0.931 . S
H1169 C1157 0.929 . S
H1170 C1158 0.960 . S
H1171 C1158 0.962 . S
H1172 C1158 0.960 . S
H1173 C1159 0.961 . S
H1174 C1159 0.961 . S
H1175 C1159 0.961 . S
H1176 C1160 0.931 . S
H1177 C1165 0.930 . S
H1178 C1166 0.956 . S
H1179 C1166 0.961 . S
H1180 C1166 0.961 . S
H1181 C1167 0.958 . S
H1182 C1167 0.961 . S
H1183 C1167 0.960 . S
C1184 C1185 1.391 . S
C1184 C1186 1.394 . S
C1184 H1200 0.931 . S
C1185 C1184 1.391 . S
C1185 C1189 1.376 . S
C1186 C1184 1.394 . S
C1186 C1187 1.369 . S
C1186 C1190 1.531 . S
C1187 C1186 1.369 . S
C1187 C1188 1.410 . S
C1187 C1195 1.503 . S
C1188 C1187 1.410 . S
C1188 C1189 1.392 . S
C1188 C1191 1.511 . S
C1189 C1185 1.376 . S
C1189 C1188 1.392 . S
C1189 H1201 0.929 . S
C1190 C1186 1.531 . S
C1190 H1202 0.960 . S
C1190 H1203 0.962 . S
C1190 H1204 0.960 . S
C1191 C1188 1.511 . S
C1191 H1205 0.961 . S
C1191 H1206 0.961 . S
C1191 H1207 0.961 . S
C1192 C1193 1.370 . S
C1192 C1194 1.363 . S
C1192 H1208 0.931 . S
C1193 C1192 1.370 . S
C1193 C1197 1.408 . S
C1194 C1192 1.363 . S
C1194 C1195 1.370 . S
C1194 C1198 1.524 . S
C1195 C1187 1.503 . S
C1195 C1194 1.370 . S
C1195 C1196 1.403 . S
C1196 C1195 1.403 . S
C1196 C1197 1.404 . S
C1196 C1199 1.539 . S
C1197 C1193 1.408 . S
C1197 C1196 1.404 . S
C1197 H1209 0.930 . S
C1198 C1194 1.524 . S
C1198 H1210 0.956 . S
C1198 H1211 0.961 . S
C1198 H1212 0.961 . S
C1199 C1196 1.539 . S
C1199 H1213 0.958 . S
C1199 H1214 0.961 . S
C1199 H1215 0.960 . S
H1200 C1184 0.931 . S
H1201 C1189 0.929 . S
H1202 C1190 0.960 . S
H1203 C1190 0.962 . S
H1204 C1190 0.960 . S
H1205 C1191 0.961 . S
H1206 C1191 0.961 . S
H1207 C1191 0.961 . S
H1208 C1192 0.931 . S
H1209 C1197 0.930 . S
H1210 C1198 0.956 . S
H1211 C1198 0.961 . S
H1212 C1198 0.961 . S
H1213 C1199 0.958 . S
H1214 C1199 0.961 . S
H1215 C1199 0.960 . S
C1216 C1217 1.391 . S
C1216 C1218 1.394 . S
C1216 H1232 0.931 . S
C1217 C1216 1.391 . S
C1217 C1221 1.376 . S
C1218 C1216 1.394 . S
C1218 C1219 1.369 . S
C1218 C1222 1.531 . S
C1219 C1218 1.369 . S
C1219 C1220 1.410 . S
C1219 C1227 1.503 . S
C1220 C1219 1.410 . S
C1220 C1221 1.392 . S
C1220 C1223 1.511 . S
C1221 C1217 1.376 . S
C1221 C1220 1.392 . S
C1221 H1233 0.929 . S
C1222 C1218 1.531 . S
C1222 H1234 0.960 . S
C1222 H1235 0.962 . S
C1222 H1236 0.960 . S
C1223 C1220 1.511 . S
C1223 H1237 0.961 . S
C1223 H1238 0.961 . S
C1223 H1239 0.961 . S
C1224 C1225 1.370 . S
C1224 C1226 1.363 . S
C1224 H1240 0.931 . S
C1225 C1224 1.370 . S
C1225 C1229 1.408 . S
C1226 C1224 1.363 . S
C1226 C1227 1.370 . S
C1226 C1230 1.524 . S
C1227 C1219 1.503 . S
C1227 C1226 1.370 . S
C1227 C1228 1.403 . S
C1228 C1227 1.403 . S
C1228 C1229 1.404 . S
C1228 C1231 1.539 . S
C1229 C1225 1.408 . S
C1229 C1228 1.404 . S
C1229 H1241 0.930 . S
C1230 C1226 1.524 . S
C1230 H1242 0.956 . S
C1230 H1243 0.961 . S
C1230 H1244 0.961 . S
C1231 C1228 1.539 . S
C1231 H1245 0.958 . S
C1231 H1246 0.961 . S
C1231 H1247 0.960 . S
H1232 C1216 0.931 . S
H1233 C1221 0.929 . S
H1234 C1222 0.960 . S
H1235 C1222 0.962 . S
H1236 C1222 0.960 . S
H1237 C1223 0.961 . S
H1238 C1223 0.961 . S
H1239 C1223 0.961 . S
H1240 C1224 0.931 . S
H1241 C1229 0.930 . S
H1242 C1230 0.956 . S
H1243 C1230 0.961 . S
H1244 C1230 0.961 . S
H1245 C1231 0.958 . S
H1246 C1231 0.961 . S
H1247 C1231 0.960 . S
C1248 C1249 1.391 . S
C1248 C1250 1.394 1_545 S
C1248 H1264 0.931 . S
C1249 C1248 1.391 . S
C1249 C1253 1.376 . S
C1250 C1248 1.394 1_565 S
C1250 C1251 1.369 . S
C1250 C1254 1.531 . S
C1251 C1250 1.369 . S
C1251 C1252 1.410 . S
C1251 C1259 1.503 . S
C1252 C1251 1.410 . S
C1252 C1253 1.392 1_565 S
C1252 C1255 1.511 . S
C1253 C1249 1.376 . S
C1253 C1252 1.392 1_545 S
C1253 H1265 0.929 . S
C1254 C1250 1.531 . S
C1254 H1266 0.960 . S
C1254 H1267 0.962 . S
C1254 H1268 0.960 . S
C1255 C1252 1.511 . S
C1255 H1269 0.961 . S
C1255 H1270 0.961 . S
C1255 H1271 0.961 . S
C1256 C1257 1.370 . S
C1256 C1258 1.363 . S
C1256 H1272 0.931 . S
C1257 C1256 1.370 . S
C1257 C1261 1.408 . S
C1258 C1256 1.363 . S
C1258 C1259 1.370 . S
C1258 C1262 1.524 . S
C1259 C1251 1.503 . S
C1259 C1258 1.370 . S
C1259 C1260 1.403 . S
C1260 C1259 1.403 . S
C1260 C1261 1.404 . S
C1260 C1263 1.539 . S
C1261 C1257 1.408 . S
C1261 C1260 1.404 . S
C1261 H1273 0.930 . S
C1262 C1258 1.524 . S
C1262 H1274 0.956 . S
C1262 H1275 0.961 . S
C1262 H1276 0.961 . S
C1263 C1260 1.539 . S
C1263 H1277 0.958 . S
C1263 H1278 0.961 . S
C1263 H1279 0.960 . S
H1264 C1248 0.931 . S
H1265 C1253 0.929 . S
H1266 C1254 0.960 . S
H1267 C1254 0.962 . S
H1268 C1254 0.960 . S
H1269 C1255 0.961 . S
H1270 C1255 0.961 . S
H1271 C1255 0.961 . S
H1272 C1256 0.931 . S
H1273 C1261 0.930 . S
H1274 C1262 0.956 . S
H1275 C1262 0.961 . S
H1276 C1262 0.961 . S
H1277 C1263 0.958 . S
H1278 C1263 0.961 . S
H1279 C1263 0.960 . S
C1280 C1281 1.391 . S
C1280 C1282 1.394 1_655 S
C1280 H1296 0.931 . S
C1281 C1280 1.391 . S
C1281 C1285 1.376 1_655 S
C1282 C1280 1.394 1_455 S
C1282 C1283 1.369 . S
C1282 C1286 1.531 . S
C1283 C1282 1.369 . S
C1283 C1284 1.410 . S
C1283 C1291 1.503 . S
C1284 C1283 1.410 . S
C1284 C1285 1.392 . S
C1284 C1287 1.511 . S
C1285 C1281 1.376 1_455 S
C1285 C1284 1.392 . S
C1285 H1297 0.929 . S
C1286 C1282 1.531 . S
C1286 H1298 0.960 . S
C1286 H1299 0.962 . S
C1286 H1300 0.960 . S
C1287 C1284 1.511 . S
C1287 H1301 0.961 . S
C1287 H1302 0.961 . S
C1287 H1303 0.961 . S
C1288 C1289 1.370 . S
C1288 C1290 1.363 . S
C1288 H1304 0.931 . S
C1289 C1288 1.370 . S
C1289 C1293 1.408 . S
C1290 C1288 1.363 . S
C1290 C1291 1.370 . S
C1290 C1294 1.524 . S
C1291 C1283 1.503 . S
C1291 C1290 1.370 . S
C1291 C1292 1.403 . S
C1292 C1291 1.403 . S
C1292 C1293 1.404 . S
C1292 C1295 1.539 . S
C1293 C1289 1.408 . S
C1293 C1292 1.404 . S
C1293 H1305 0.930 . S
C1294 C1290 1.524 . S
C1294 H1306 0.956 . S
C1294 H1307 0.961 . S
C1294 H1308 0.961 . S
C1295 C1292 1.539 . S
C1295 H1309 0.958 . S
C1295 H1310 0.961 . S
C1295 H1311 0.960 . S
H1296 C1280 0.931 . S
H1297 C1285 0.929 . S
H1298 C1286 0.960 . S
H1299 C1286 0.962 . S
H1300 C1286 0.960 . S
H1301 C1287 0.961 . S
H1302 C1287 0.961 . S
H1303 C1287 0.961 . S
H1304 C1288 0.931 . S
H1305 C1293 0.930 . S
H1306 C1294 0.956 . S
H1307 C1294 0.961 . S
H1308 C1294 0.961 . S
H1309 C1295 0.958 . S
H1310 C1295 0.961 . S
H1311 C1295 0.960 . S
C1312 C1313 1.391 . S
C1312 C1314 1.394 . S
C1312 H1328 0.931 . S
C1313 C1312 1.391 . S
C1313 C1317 1.376 . S
C1314 C1312 1.394 . S
C1314 C1315 1.369 . S
C1314 C1318 1.531 . S
C1315 C1314 1.369 . S
C1315 C1316 1.410 . S
C1315 C1323 1.503 . S
C1316 C1315 1.410 . S
C1316 C1317 1.392 . S
C1316 C1319 1.511 . S
C1317 C1313 1.376 . S
C1317 C1316 1.392 . S
C1317 H1329 0.929 . S
C1318 C1314 1.531 . S
C1318 H1330 0.960 . S
C1318 H1331 0.962 . S
C1318 H1332 0.960 . S
C1319 C1316 1.511 . S
C1319 H1333 0.961 . S
C1319 H1334 0.961 . S
C1319 H1335 0.961 . S
C1320 C1321 1.370 . S
C1320 C1322 1.363 . S
C1320 H1336 0.931 . S
C1321 C1320 1.370 . S
C1321 C1325 1.408 . S
C1322 C1320 1.363 . S
C1322 C1323 1.370 . S
C1322 C1326 1.524 . S
C1323 C1315 1.503 . S
C1323 C1322 1.370 . S
C1323 C1324 1.403 . S
C1324 C1323 1.403 . S
C1324 C1325 1.404 . S
C1324 C1327 1.539 . S
C1325 C1321 1.408 . S
C1325 C1324 1.404 . S
C1325 H1337 0.930 . S
C1326 C1322 1.524 . S
C1326 H1338 0.956 . S
C1326 H1339 0.961 . S
C1326 H1340 0.961 . S
C1327 C1324 1.539 . S
C1327 H1341 0.958 . S
C1327 H1342 0.961 . S
C1327 H1343 0.960 . S
H1328 C1312 0.931 . S
H1329 C1317 0.929 . S
H1330 C1318 0.960 . S
H1331 C1318 0.962 . S
H1332 C1318 0.960 . S
H1333 C1319 0.961 . S
H1334 C1319 0.961 . S
H1335 C1319 0.961 . S
H1336 C1320 0.931 . S
H1337 C1325 0.930 . S
H1338 C1326 0.956 . S
H1339 C1326 0.961 . S
H1340 C1326 0.961 . S
H1341 C1327 0.958 . S
H1342 C1327 0.961 . S
H1343 C1327 0.960 . S
C1344 C1345 1.391 . S
C1344 C1346 1.394 . S
C1344 H1360 0.931 . S
C1345 C1344 1.391 . S
C1345 C1349 1.376 . S
C1346 C1344 1.394 . S
C1346 C1347 1.369 . S
C1346 C1350 1.531 . S
C1347 C1346 1.369 . S
C1347 C1348 1.410 . S
C1347 C1355 1.503 . S
C1348 C1347 1.410 . S
C1348 C1349 1.392 . S
C1348 C1351 1.511 . S
C1349 C1345 1.376 . S
C1349 C1348 1.392 . S
C1349 H1361 0.929 . S
C1350 C1346 1.531 . S
C1350 H1362 0.960 . S
C1350 H1363 0.962 . S
C1350 H1364 0.960 . S
C1351 C1348 1.511 . S
C1351 H1365 0.961 . S
C1351 H1366 0.961 . S
C1351 H1367 0.961 . S
C1352 C1353 1.370 . S
C1352 C1354 1.363 . S
C1352 H1368 0.931 . S
C1353 C1352 1.370 . S
C1353 C1357 1.408 . S
C1354 C1352 1.363 . S
C1354 C1355 1.370 . S
C1354 C1358 1.524 . S
C1355 C1347 1.503 . S
C1355 C1354 1.370 . S
C1355 C1356 1.403 . S
C1356 C1355 1.403 . S
C1356 C1357 1.404 . S
C1356 C1359 1.539 . S
C1357 C1353 1.408 . S
C1357 C1356 1.404 . S
C1357 H1369 0.930 . S
C1358 C1354 1.524 . S
C1358 H1370 0.956 . S
C1358 H1371 0.961 . S
C1358 H1372 0.961 . S
C1359 C1356 1.539 . S
C1359 H1373 0.958 . S
C1359 H1374 0.961 . S
C1359 H1375 0.960 . S
H1360 C1344 0.931 . S
H1361 C1349 0.929 . S
H1362 C1350 0.960 . S
H1363 C1350 0.962 . S
H1364 C1350 0.960 . S
H1365 C1351 0.961 . S
H1366 C1351 0.961 . S
H1367 C1351 0.961 . S
H1368 C1352 0.931 . S
H1369 C1357 0.930 . S
H1370 C1358 0.956 . S
H1371 C1358 0.961 . S
H1372 C1358 0.961 . S
H1373 C1359 0.958 . S
H1374 C1359 0.961 . S
H1375 C1359 0.960 . S
C1376 C1377 1.391 . S
C1376 C1378 1.394 . S
C1376 H1392 0.931 . S
C1377 C1376 1.391 . S
C1377 C1381 1.376 . S
C1378 C1376 1.394 . S
C1378 C1379 1.369 . S
C1378 C1382 1.531 . S
C1379 C1378 1.369 . S
C1379 C1380 1.410 . S
C1379 C1387 1.503 . S
C1380 C1379 1.410 . S
C1380 C1381 1.392 . S
C1380 C1383 1.511 . S
C1381 C1377 1.376 . S
C1381 C1380 1.392 . S
C1381 H1393 0.929 . S
C1382 C1378 1.531 . S
C1382 H1394 0.960 . S
C1382 H1395 0.962 . S
C1382 H1396 0.960 . S
C1383 C1380 1.511 . S
C1383 H1397 0.961 . S
C1383 H1398 0.961 . S
C1383 H1399 0.961 . S
C1384 C1385 1.370 . S
C1384 C1386 1.363 . S
C1384 H1400 0.931 . S
C1385 C1384 1.370 . S
C1385 C1389 1.408 . S
C1386 C1384 1.363 . S
C1386 C1387 1.370 . S
C1386 C1390 1.524 . S
C1387 C1379 1.503 . S
C1387 C1386 1.370 . S
C1387 C1388 1.403 . S
C1388 C1387 1.403 . S
C1388 C1389 1.404 . S
C1388 C1391 1.539 . S
C1389 C1385 1.408 . S
C1389 C1388 1.404 . S
C1389 H1401 0.930 . S
C1390 C1386 1.524 . S
C1390 H1402 0.956 . S
C1390 H1403 0.961 . S
C1390 H1404 0.961 . S
C1391 C1388 1.539 . S
C1391 H1405 0.958 . S
C1391 H1406 0.961 . S
C1391 H1407 0.960 . S
H1392 C1376 0.931 . S
H1393 C1381 0.929 . S
H1394 C1382 0.960 . S
H1395 C1382 0.962 . S
H1396 C1382 0.960 . S
H1397 C1383 0.961 . S
H1398 C1383 0.961 . S
H1399 C1383 0.961 . S
H1400 C1384 0.931 . S
H1401 C1389 0.930 . S
H1402 C1390 0.956 . S
H1403 C1390 0.961 . S
H1404 C1390 0.961 . S
H1405 C1391 0.958 . S
H1406 C1391 0.961 . S
H1407 C1391 0.960 . S
C1408 C1409 1.391 . S
C1408 C1410 1.394 . S
C1408 H1424 0.931 . S
C1409 C1408 1.391 . S
C1409 C1413 1.376 . S
C1410 C1408 1.394 . S
C1410 C1411 1.369 . S
C1410 C1414 1.531 . S
C1411 C1410 1.369 . S
C1411 C1412 1.410 . S
C1411 C1419 1.503 . S
C1412 C1411 1.410 . S
C1412 C1413 1.392 . S
C1412 C1415 1.511 . S
C1413 C1409 1.376 . S
C1413 C1412 1.392 . S
C1413 H1425 0.929 . S
C1414 C1410 1.531 . S
C1414 H1426 0.960 . S
C1414 H1427 0.962 . S
C1414 H1428 0.960 . S
C1415 C1412 1.511 . S
C1415 H1429 0.961 . S
C1415 H1430 0.961 . S
C1415 H1431 0.961 . S
C1416 C1417 1.370 . S
C1416 C1418 1.363 . S
C1416 H1432 0.931 . S
C1417 C1416 1.370 . S
C1417 C1421 1.408 . S
C1418 C1416 1.363 . S
C1418 C1419 1.370 . S
C1418 C1422 1.524 . S
C1419 C1411 1.503 . S
C1419 C1418 1.370 . S
C1419 C1420 1.403 . S
C1420 C1419 1.403 . S
C1420 C1421 1.404 . S
C1420 C1423 1.539 . S
C1421 C1417 1.408 . S
C1421 C1420 1.404 . S
C1421 H1433 0.930 . S
C1422 C1418 1.524 . S
C1422 H1434 0.956 . S
C1422 H1435 0.961 . S
C1422 H1436 0.961 . S
C1423 C1420 1.539 . S
C1423 H1437 0.958 . S
C1423 H1438 0.961 . S
C1423 H1439 0.960 . S
H1424 C1408 0.931 . S
H1425 C1413 0.929 . S
H1426 C1414 0.960 . S
H1427 C1414 0.962 . S
H1428 C1414 0.960 . S
H1429 C1415 0.961 . S
H1430 C1415 0.961 . S
H1431 C1415 0.961 . S
H1432 C1416 0.931 . S
H1433 C1421 0.930 . S
H1434 C1422 0.956 . S
H1435 C1422 0.961 . S
H1436 C1422 0.961 . S
H1437 C1423 0.958 . S
H1438 C1423 0.961 . S
H1439 C1423 0.960 . S
C1440 C1441 1.391 . S
C1440 C1442 1.394 . S
C1440 H1456 0.931 . S
C1441 C1440 1.391 . S
C1441 C1445 1.376 . S
C1442 C1440 1.394 . S
C1442 C1443 1.369 . S
C1442 C1446 1.531 . S
C1443 C1442 1.369 . S
C1443 C1444 1.410 . S
C1443 C1451 1.503 1_565 S
C1444 C1443 1.410 . S
C1444 C1445 1.392 . S
C1444 C1447 1.511 . S
C1445 C1441 1.376 . S
C1445 C1444 1.392 . S
C1445 H1457 0.929 . S
C1446 C1442 1.531 . S
C1446 H1458 0.960 . S
C1446 H1459 0.962 . S
C1446 H1460 0.960 . S
C1447 C1444 1.511 . S
C1447 H1461 0.961 . S
C1447 H1462 0.961 1_565 S
C1447 H1463 0.961 . S
C1448 C1449 1.370 . S
C1448 C1450 1.363 . S
C1448 H1464 0.931 . S
C1449 C1448 1.370 . S
C1449 C1453 1.408 . S
C1450 C1448 1.363 . S
C1450 C1451 1.370 . S
C1450 C1454 1.524 1_545 S
C1451 C1443 1.503 1_545 S
C1451 C1450 1.370 . S
C1451 C1452 1.403 . S
C1452 C1451 1.403 . S
C1452 C1453 1.404 . S
C1452 C1455 1.539 . S
C1453 C1449 1.408 . S
C1453 C1452 1.404 . S
C1453 H1465 0.930 . S
C1454 C1450 1.524 1_565 S
C1454 H1466 0.956 . S
C1454 H1467 0.961 . S
C1454 H1468 0.961 . S
C1455 C1452 1.539 . S
C1455 H1469 0.958 . S
C1455 H1470 0.961 . S
C1455 H1471 0.960 . S
H1456 C1440 0.931 . S
H1457 C1445 0.929 . S
H1458 C1446 0.960 . S
H1459 C1446 0.962 . S
H1460 C1446 0.960 . S
H1461 C1447 0.961 . S
H1462 C1447 0.961 1_545 S
H1463 C1447 0.961 . S
H1464 C1448 0.931 . S
H1465 C1453 0.930 . S
H1466 C1454 0.956 . S
H1467 C1454 0.961 . S
H1468 C1454 0.961 . S
H1469 C1455 0.958 . S
H1470 C1455 0.961 . S
H1471 C1455 0.960 . S
C1472 C1473 1.391 . S
C1472 C1474 1.394 . S
C1472 H1488 0.931 . S
C1473 C1472 1.391 . S
C1473 C1477 1.376 . S
C1474 C1472 1.394 . S
C1474 C1475 1.369 . S
C1474 C1478 1.531 . S
C1475 C1474 1.369 . S
C1475 C1476 1.410 . S
C1475 C1483 1.503 1_455 S
C1476 C1475 1.410 . S
C1476 C1477 1.392 . S
C1476 C1479 1.511 1_455 S
C1477 C1473 1.376 . S
C1477 C1476 1.392 . S
C1477 H1489 0.929 . S
C1478 C1474 1.531 . S
C1478 H1490 0.960 . S
C1478 H1491 0.962 . S
C1478 H1492 0.960 . S
C1479 C1476 1.511 1_655 S
C1479 H1493 0.961 1_655 S
C1479 H1494 0.961 . S
C1479 H1495 0.961 . S
C1480 C1481 1.370 . S
C1480 C1482 1.363 . S
C1480 H1496 0.931 . S
C1481 C1480 1.370 . S
C1481 C1485 1.408 . S
C1482 C1480 1.363 . S
C1482 C1483 1.370 . S
C1482 C1486 1.524 1_655 S
C1483 C1475 1.503 1_655 S
C1483 C1482 1.370 . S
C1483 C1484 1.403 . S
C1484 C1483 1.403 . S
C1484 C1485 1.404 . S
C1484 C1487 1.539 . S
C1485 C1481 1.408 . S
C1485 C1484 1.404 . S
C1485 H1497 0.930 . S
C1486 C1482 1.524 1_455 S
C1486 H1498 0.956 . S
C1486 H1499 0.961 . S
C1486 H1500 0.961 . S
C1487 C1484 1.539 . S
C1487 H1501 0.958 . S
C1487 H1502 0.961 . S
C1487 H1503 0.960 . S
H1488 C1472 0.931 . S
H1489 C1477 0.929 . S
H1490 C1478 0.960 . S
H1491 C1478 0.962 . S
H1492 C1478 0.960 . S
H1493 C1479 0.961 1_455 S
H1494 C1479 0.961 . S
H1495 C1479 0.961 . S
H1496 C1480 0.931 . S
H1497 C1485 0.930 . S
H1498 C1486 0.956 . S
H1499 C1486 0.961 . S
H1500 C1486 0.961 . S
H1501 C1487 0.958 . S
H1502 C1487 0.961 . S
H1503 C1487 0.960 . S
C1504 C1505 1.391 . S
C1504 C1506 1.394 . S
C1504 H1520 0.931 . S
C1505 C1504 1.391 . S
C1505 C1509 1.376 . S
C1506 C1504 1.394 . S
C1506 C1507 1.369 . S
C1506 C1510 1.531 . S
C1507 C1506 1.369 . S
C1507 C1508 1.410 . S
C1507 C1515 1.503 . S
C1508 C1507 1.410 . S
C1508 C1509 1.392 . S
C1508 C1511 1.511 . S
C1509 C1505 1.376 . S
C1509 C1508 1.392 . S
C1509 H1521 0.929 . S
C1510 C1506 1.531 . S
C1510 H1522 0.960 . S
C1510 H1523 0.962 . S
C1510 H1524 0.960 . S
C1511 C1508 1.511 . S
C1511 H1525 0.961 . S
C1511 H1526 0.961 . S
C1511 H1527 0.961 . S
C1512 C1513 1.370 . S
C1512 C1514 1.363 . S
C1512 H1528 0.931 . S
C1513 C1512 1.370 . S
C1513 C1517 1.408 . S
C1514 C1512 1.363 . S
C1514 C1515 1.370 . S
C1514 C1518 1.524 . S
C1515 C1507 1.503 . S
C1515 C1514 1.370 . S
C1515 C1516 1.403 . S
C1516 C1515 1.403 . S
C1516 C1517 1.404 . S
C1516 C1519 1.539 . S
C1517 C1513 1.408 . S
C1517 C1516 1.404 . S
C1517 H1529 0.930 . S
C1518 C1514 1.524 . S
C1518 H1530 0.956 . S
C1518 H1531 0.961 . S
C1518 H1532 0.961 . S
C1519 C1516 1.539 . S
C1519 H1533 0.958 . S
C1519 H1534 0.961 . S
C1519 H1535 0.960 . S
H1520 C1504 0.931 . S
H1521 C1509 0.929 . S
H1522 C1510 0.960 . S
H1523 C1510 0.962 . S
H1524 C1510 0.960 . S
H1525 C1511 0.961 . S
H1526 C1511 0.961 . S
H1527 C1511 0.961 . S
H1528 C1512 0.931 . S
H1529 C1517 0.930 . S
H1530 C1518 0.956 . S
H1531 C1518 0.961 . S
H1532 C1518 0.961 . S
H1533 C1519 0.958 . S
H1534 C1519 0.961 . S
H1535 C1519 0.960 . S
C1536 C1537 1.391 . S
C1536 C1538 1.394 1_455 S
C1536 H1552 0.931 . S
C1537 C1536 1.391 . S
C1537 C1541 1.376 . S
C1538 C1536 1.394 1_655 S
C1538 C1539 1.369 . S
C1538 C1542 1.531 . S
C1539 C1538 1.369 . S
C1539 C1540 1.410 . S
C1539 C1547 1.503 . S
C1540 C1539 1.410 . S
C1540 C1541 1.392 1_655 S
C1540 C1543 1.511 . S
C1541 C1537 1.376 . S
C1541 C1540 1.392 1_455 S
C1541 H1553 0.929 . S
C1542 C1538 1.531 . S
C1542 H1554 0.960 . S
C1542 H1555 0.962 . S
C1542 H1556 0.960 . S
C1543 C1540 1.511 . S
C1543 H1557 0.960 1_655 S
C1543 H1558 0.961 . S
C1543 H1559 0.961 . S
C1544 C1545 1.370 . S
C1544 C1546 1.363 . S
C1544 H1560 0.931 . S
C1545 C1544 1.370 . S
C1545 C1549 1.408 . S
C1546 C1544 1.363 . S
C1546 C1547 1.370 . S
C1546 C1550 1.524 . S
C1547 C1539 1.503 . S
C1547 C1546 1.370 . S
C1547 C1548 1.403 . S
C1548 C1547 1.403 . S
C1548 C1549 1.404 . S
C1548 C1551 1.539 . S
C1549 C1545 1.408 . S
C1549 C1548 1.404 . S
C1549 H1561 0.930 . S
C1550 C1546 1.524 . S
C1550 H1562 0.956 . S
C1550 H1563 0.961 . S
C1550 H1564 0.961 . S
C1551 C1548 1.539 . S
C1551 H1565 0.958 . S
C1551 H1566 0.961 . S
C1551 H1567 0.960 . S
H1552 C1536 0.931 . S
H1553 C1541 0.929 . S
H1554 C1542 0.960 . S
H1555 C1542 0.962 . S
H1556 C1542 0.960 . S
H1557 C1543 0.960 1_455 S
H1558 C1543 0.961 . S
H1559 C1543 0.961 . S
H1560 C1544 0.931 . S
H1561 C1549 0.930 . S
H1562 C1550 0.956 . S
H1563 C1550 0.961 . S
H1564 C1550 0.961 . S
H1565 C1551 0.958 . S
H1566 C1551 0.961 . S
H1567 C1551 0.960 . S
C1568 C1569 1.391 . S
C1568 C1570 1.394 . S
C1568 H1584 0.931 . S
C1569 C1568 1.391 . S
C1569 C1573 1.376 . S
C1570 C1568 1.394 . S
C1570 C1571 1.369 . S
C1570 C1574 1.531 . S
C1571 C1570 1.369 . S
C1571 C1572 1.410 . S
C1571 C1579 1.503 . S
C1572 C1571 1.410 . S
C1572 C1573 1.392 . S
C1572 C1575 1.511 . S
C1573 C1569 1.376 . S
C1573 C1572 1.392 . S
C1573 H1585 0.929 . S
C1574 C1570 1.531 . S
C1574 H1586 0.960 . S
C1574 H1587 0.962 . S
C1574 H1588 0.960 . S
C1575 C1572 1.511 . S
C1575 H1589 0.961 . S
C1575 H1590 0.961 . S
C1575 H1591 0.961 . S
C1576 C1577 1.370 . S
C1576 C1578 1.363 . S
C1576 H1592 0.931 . S
C1577 C1576 1.370 . S
C1577 C1581 1.408 . S
C1578 C1576 1.363 . S
C1578 C1579 1.370 . S
C1578 C1582 1.524 . S
C1579 C1571 1.503 . S
C1579 C1578 1.370 . S
C1579 C1580 1.403 . S
C1580 C1579 1.403 . S
C1580 C1581 1.404 . S
C1580 C1583 1.539 . S
C1581 C1577 1.408 . S
C1581 C1580 1.404 . S
C1581 H1593 0.930 . S
C1582 C1578 1.524 . S
C1582 H1594 0.956 . S
C1582 H1595 0.961 . S
C1582 H1596 0.961 . S
C1583 C1580 1.539 . S
C1583 H1597 0.958 . S
C1583 H1598 0.961 . S
C1583 H1599 0.960 . S
H1584 C1568 0.931 . S
H1585 C1573 0.929 . S
H1586 C1574 0.960 . S
H1587 C1574 0.962 . S
H1588 C1574 0.960 . S
H1589 C1575 0.961 . S
H1590 C1575 0.961 . S
H1591 C1575 0.961 . S
H1592 C1576 0.931 . S
H1593 C1581 0.930 . S
H1594 C1582 0.956 . S
H1595 C1582 0.961 . S
H1596 C1582 0.961 . S
H1597 C1583 0.958 . S
H1598 C1583 0.961 . S
H1599 C1583 0.960 . S
C1600 C1601 1.391 . S
C1600 C1602 1.394 1_565 S
C1600 H1616 0.931 . S
C1601 C1600 1.391 . S
C1601 C1605 1.376 . S
C1602 C1600 1.394 1_545 S
C1602 C1603 1.369 . S
C1602 C1606 1.531 . S
C1603 C1602 1.369 . S
C1603 C1604 1.410 . S
C1603 C1611 1.503 . S
C1604 C1603 1.410 . S
C1604 C1605 1.392 1_545 S
C1604 C1607 1.511 . S
C1605 C1601 1.376 . S
C1605 C1604 1.392 1_565 S
C1605 H1617 0.929 . S
C1606 C1602 1.531 . S
C1606 H1618 0.960 . S
C1606 H1619 0.962 . S
C1606 H1620 0.960 . S
C1607 C1604 1.511 . S
C1607 H1621 0.961 . S
C1607 H1622 0.961 . S
C1607 H1623 0.961 . S
C1608 C1609 1.370 . S
C1608 C1610 1.363 . S
C1608 H1624 0.931 . S
C1609 C1608 1.370 . S
C1609 C1613 1.408 . S
C1610 C1608 1.363 . S
C1610 C1611 1.370 . S
C1610 C1614 1.524 . S
C1611 C1603 1.503 . S
C1611 C1610 1.370 . S
C1611 C1612 1.403 . S
C1612 C1611 1.403 . S
C1612 C1613 1.404 . S
C1612 C1615 1.539 . S
C1613 C1609 1.408 . S
C1613 C1612 1.404 . S
C1613 H1625 0.930 . S
C1614 C1610 1.524 . S
C1614 H1626 0.956 . S
C1614 H1627 0.961 . S
C1614 H1628 0.961 . S
C1615 C1612 1.539 . S
C1615 H1629 0.958 . S
C1615 H1630 0.961 . S
C1615 H1631 0.960 . S
H1616 C1600 0.931 . S
H1617 C1605 0.929 . S
H1618 C1606 0.960 . S
H1619 C1606 0.962 . S
H1620 C1606 0.960 . S
H1621 C1607 0.961 . S
H1622 C1607 0.961 . S
H1623 C1607 0.961 . S
H1624 C1608 0.931 . S
H1625 C1613 0.930 . S
H1626 C1614 0.956 . S
H1627 C1614 0.961 . S
H1628 C1614 0.961 . S
H1629 C1615 0.958 . S
H1630 C1615 0.961 . S
H1631 C1615 0.960 . S
C1632 C1633 1.391 . S
C1632 C1634 1.394 . S
C1632 H1648 0.931 . S
C1633 C1632 1.391 . S
C1633 C1637 1.376 . S
C1634 C1632 1.394 . S
C1634 C1635 1.369 . S
C1634 C1638 1.531 . S
C1635 C1634 1.369 . S
C1635 C1636 1.410 . S
C1635 C1643 1.503 . S
C1636 C1635 1.410 . S
C1636 C1637 1.392 . S
C1636 C1639 1.511 . S
C1637 C1633 1.376 . S
C1637 C1636 1.392 . S
C1637 H1649 0.929 . S
C1638 C1634 1.531 . S
C1638 H1650 0.960 . S
C1638 H1651 0.962 . S
C1638 H1652 0.960 . S
C1639 C1636 1.511 . S
C1639 H1653 0.961 . S
C1639 H1654 0.961 . S
C1639 H1655 0.961 . S
C1640 C1641 1.370 . S
C1640 C1642 1.363 . S
C1640 H1656 0.931 . S
C1641 C1640 1.370 . S
C1641 C1645 1.408 . S
C1642 C1640 1.363 . S
C1642 C1643 1.370 . S
C1642 C1646 1.524 . S
C1643 C1635 1.503 . S
C1643 C1642 1.370 . S
C1643 C1644 1.403 . S
C1644 C1643 1.403 . S
C1644 C1645 1.404 . S
C1644 C1647 1.539 . S
C1645 C1641 1.408 . S
C1645 C1644 1.404 . S
C1645 H1657 0.930 . S
C1646 C1642 1.524 . S
C1646 H1658 0.956 . S
C1646 H1659 0.961 . S
C1646 H1660 0.961 . S
C1647 C1644 1.539 . S
C1647 H1661 0.958 . S
C1647 H1662 0.961 . S
C1647 H1663 0.960 . S
H1648 C1632 0.931 . S
H1649 C1637 0.929 . S
H1650 C1638 0.960 . S
H1651 C1638 0.962 . S
H1652 C1638 0.960 . S
H1653 C1639 0.961 . S
H1654 C1639 0.961 . S
H1655 C1639 0.961 . S
H1656 C1640 0.931 . S
H1657 C1645 0.930 . S
H1658 C1646 0.956 . S
H1659 C1646 0.961 . S
H1660 C1646 0.961 . S
H1661 C1647 0.958 . S
H1662 C1647 0.961 . S
H1663 C1647 0.960 . S
C1664 C1665 1.391 . S
C1664 C1666 1.394 . S
C1664 H1680 0.931 . S
C1665 C1664 1.391 . S
C1665 C1669 1.376 . S
C1666 C1664 1.394 . S
C1666 C1667 1.369 . S
C1666 C1670 1.531 . S
C1667 C1666 1.369 . S
C1667 C1668 1.410 . S
C1667 C1675 1.503 . S
C1668 C1667 1.410 . S
C1668 C1669 1.392 . S
C1668 C1671 1.511 . S
C1669 C1665 1.376 . S
C1669 C1668 1.392 . S
C1669 H1681 0.929 . S
C1670 C1666 1.531 . S
C1670 H1682 0.960 . S
C1670 H1683 0.962 . S
C1670 H1684 0.960 . S
C1671 C1668 1.511 . S
C1671 H1685 0.961 . S
C1671 H1686 0.961 . S
C1671 H1687 0.961 . S
C1672 C1673 1.370 . S
C1672 C1674 1.363 . S
C1672 H1688 0.931 . S
C1673 C1672 1.370 . S
C1673 C1677 1.408 . S
C1674 C1672 1.363 . S
C1674 C1675 1.370 . S
C1674 C1678 1.524 . S
C1675 C1667 1.503 . S
C1675 C1674 1.370 . S
C1675 C1676 1.403 . S
C1676 C1675 1.403 . S
C1676 C1677 1.404 . S
C1676 C1679 1.539 . S
C1677 C1673 1.408 . S
C1677 C1676 1.404 . S
C1677 H1689 0.930 . S
C1678 C1674 1.524 . S
C1678 H1690 0.956 . S
C1678 H1691 0.961 . S
C1678 H1692 0.961 . S
C1679 C1676 1.539 . S
C1679 H1693 0.958 . S
C1679 H1694 0.961 . S
C1679 H1695 0.960 . S
H1680 C1664 0.931 . S
H1681 C1669 0.929 . S
H1682 C1670 0.960 . S
H1683 C1670 0.962 . S
H1684 C1670 0.960 . S
H1685 C1671 0.961 . S
H1686 C1671 0.961 . S
H1687 C1671 0.961 . S
H1688 C1672 0.931 . S
H1689 C1677 0.930 . S
H1690 C1678 0.956 . S
H1691 C1678 0.961 . S
H1692 C1678 0.961 . S
H1693 C1679 0.958 . S
H1694 C1679 0.961 . S
H1695 C1679 0.960 . S
C1696 C1697 1.391 . S
C1696 C1698 1.394 . S
C1696 H1712 0.931 . S
C1697 C1696 1.391 . S
C1697 C1701 1.376 . S
C1698 C1696 1.394 . S
C1698 C1699 1.369 . S
C1698 C1702 1.531 . S
C1699 C1698 1.369 . S
C1699 C1700 1.410 . S
C1699 C1707 1.503 . S
C1700 C1699 1.410 . S
C1700 C1701 1.392 . S
C1700 C1703 1.511 . S
C1701 C1697 1.376 . S
C1701 C1700 1.392 . S
C1701 H1713 0.929 . S
C1702 C1698 1.531 . S
C1702 H1714 0.960 . S
C1702 H1715 0.962 . S
C1702 H1716 0.960 . S
C1703 C1700 1.511 . S
C1703 H1717 0.961 . S
C1703 H1718 0.961 . S
C1703 H1719 0.961 . S
C1704 C1705 1.370 . S
C1704 C1706 1.363 . S
C1704 H1720 0.931 . S
C1705 C1704 1.370 . S
C1705 C1709 1.408 . S
C1706 C1704 1.363 . S
C1706 C1707 1.370 . S
C1706 C1710 1.524 . S
C1707 C1699 1.503 . S
C1707 C1706 1.370 . S
C1707 C1708 1.403 . S
C1708 C1707 1.403 . S
C1708 C1709 1.404 . S
C1708 C1711 1.539 . S
C1709 C1705 1.408 . S
C1709 C1708 1.404 . S
C1709 H1721 0.930 . S
C1710 C1706 1.524 . S
C1710 H1722 0.956 . S
C1710 H1723 0.961 . S
C1710 H1724 0.961 . S
C1711 C1708 1.539 . S
C1711 H1725 0.958 . S
C1711 H1726 0.961 . S
C1711 H1727 0.960 . S
H1712 C1696 0.931 . S
H1713 C1701 0.929 . S
H1714 C1702 0.960 . S
H1715 C1702 0.962 . S
H1716 C1702 0.960 . S
H1717 C1703 0.961 . S
H1718 C1703 0.961 . S
H1719 C1703 0.961 . S
H1720 C1704 0.931 . S
H1721 C1709 0.930 . S
H1722 C1710 0.956 . S
H1723 C1710 0.961 . S
H1724 C1710 0.961 . S
H1725 C1711 0.958 . S
H1726 C1711 0.961 . S
H1727 C1711 0.960 . S
C1728 C1729 1.391 . S
C1728 C1730 1.394 . S
C1728 H1744 0.931 . S
C1729 C1728 1.391 . S
C1729 C1733 1.376 . S
C1730 C1728 1.394 . S
C1730 C1731 1.369 . S
C1730 C1734 1.531 . S
C1731 C1730 1.369 . S
C1731 C1732 1.410 . S
C1731 C1739 1.503 . S
C1732 C1731 1.410 . S
C1732 C1733 1.392 . S
C1732 C1735 1.511 . S
C1733 C1729 1.376 . S
C1733 C1732 1.392 . S
C1733 H1745 0.929 . S
C1734 C1730 1.531 . S
C1734 H1746 0.960 . S
C1734 H1747 0.962 . S
C1734 H1748 0.960 . S
C1735 C1732 1.511 . S
C1735 H1749 0.961 . S
C1735 H1750 0.961 . S
C1735 H1751 0.961 . S
C1736 C1737 1.370 . S
C1736 C1738 1.363 . S
C1736 H1752 0.931 . S
C1737 C1736 1.370 . S
C1737 C1741 1.408 . S
C1738 C1736 1.363 . S
C1738 C1739 1.370 . S
C1738 C1742 1.524 . S
C1739 C1731 1.503 . S
C1739 C1738 1.370 . S
C1739 C1740 1.403 . S
C1740 C1739 1.403 . S
C1740 C1741 1.404 . S
C1740 C1743 1.539 1_565 S
C1741 C1737 1.408 . S
C1741 C1740 1.404 . S
C1741 H1753 0.930 1_565 S
C1742 C1738 1.524 . S
C1742 H1754 0.956 . S
C1742 H1755 0.961 . S
C1742 H1756 0.961 . S
C1743 C1740 1.539 1_545 S
C1743 H1757 0.958 . S
C1743 H1758 0.961 . S
C1743 H1759 0.930 1_545 S
H1744 C1728 0.931 . S
H1745 C1733 0.929 . S
H1746 C1734 0.960 . S
H1747 C1734 0.962 . S
H1748 C1734 0.960 . S
H1749 C1735 0.961 . S
H1750 C1735 0.961 . S
H1751 C1735 0.961 . S
H1752 C1736 0.931 . S
H1753 C1741 0.930 1_545 S
H1754 C1742 0.956 . S
H1755 C1742 0.961 . S
H1756 C1742 0.961 . S
H1757 C1743 0.958 . S
H1758 C1743 0.961 . S
H1759 C1743 0.930 1_565 S
C1760 C1761 1.391 . S
C1760 C1762 1.394 . S
C1760 H1776 0.931 . S
C1761 C1760 1.391 . S
C1761 C1765 1.376 . S
C1762 C1760 1.394 . S
C1762 C1763 1.369 . S
C1762 C1766 1.531 . S
C1763 C1762 1.369 . S
C1763 C1764 1.410 . S
C1763 C1771 1.503 . S
C1764 C1763 1.410 . S
C1764 C1765 1.392 . S
C1764 C1767 1.511 . S
C1765 C1761 1.376 . S
C1765 C1764 1.392 . S
C1765 H1777 0.929 . S
C1766 C1762 1.531 . S
C1766 H1778 0.960 . S
C1766 H1779 0.962 . S
C1766 H1780 0.960 . S
C1767 C1764 1.511 . S
C1767 H1781 0.961 . S
C1767 H1782 0.961 . S
C1767 H1783 0.961 . S
C1768 C1769 1.370 . S
C1768 C1770 1.363 . S
C1768 H1784 0.931 . S
C1769 C1768 1.370 . S
C1769 C1773 1.408 . S
C1770 C1768 1.363 . S
C1770 C1771 1.370 . S
C1770 C1774 1.524 . S
C1771 C1763 1.503 . S
C1771 C1770 1.370 . S
C1771 C1772 1.403 . S
C1772 C1771 1.403 . S
C1772 C1773 1.404 . S
C1772 C1775 1.539 1_455 S
C1773 C1769 1.408 . S
C1773 C1772 1.404 . S
C1773 H1785 0.930 . S
C1774 C1770 1.524 . S
C1774 H1786 0.956 . S
C1774 H1787 0.961 . S
C1774 H1788 0.961 . S
C1775 C1772 1.539 1_655 S
C1775 H1789 0.958 . S
C1775 H1790 0.961 . S
C1775 H1791 0.960 . S
H1776 C1760 0.931 . S
H1777 C1765 0.929 . S
H1778 C1766 0.960 . S
H1779 C1766 0.962 . S
H1780 C1766 0.960 . S
H1781 C1767 0.961 . S
H1782 C1767 0.961 . S
H1783 C1767 0.961 . S
H1784 C1768 0.931 . S
H1785 C1773 0.930 . S
H1786 C1774 0.956 . S
H1787 C1774 0.961 . S
H1788 C1774 0.961 . S
H1789 C1775 0.958 . S
H1790 C1775 0.961 . S
H1791 C1775 0.960 . S
C1792 C1793 1.391 . S
C1792 C1794 1.394 . S
C1792 H1808 0.931 . S
C1793 C1792 1.391 . S
C1793 C1797 1.376 . S
C1794 C1792 1.394 . S
C1794 C1795 1.369 . S
C1794 C1798 1.531 . S
C1795 C1794 1.369 . S
C1795 C1796 1.410 . S
C1795 C1803 1.503 . S
C1796 C1795 1.410 . S
C1796 C1797 1.392 . S
C1796 C1799 1.511 . S
C1797 C1793 1.376 . S
C1797 C1796 1.392 . S
C1797 H1809 0.929 . S
C1798 C1794 1.531 . S
C1798 H1810 0.960 . S
C1798 H1811 0.962 . S
C1798 H1812 0.960 . S
C1799 C1796 1.511 . S
C1799 H1813 0.961 . S
C1799 H1814 0.961 . S
C1799 H1815 0.961 . S
C1800 C1801 1.370 . S
C1800 C1802 1.363 . S
C1800 H1816 0.931 . S
C1801 C1800 1.370 . S
C1801 C1805 1.408 . S
C1802 C1800 1.363 . S
C1802 C1803 1.370 . S
C1802 C1806 1.524 . S
C1803 C1795 1.503 . S
C1803 C1802 1.370 . S
C1803 C1804 1.403 . S
C1804 C1803 1.403 . S
C1804 C1805 1.404 . S
C1804 C1807 1.539 . S
C1805 C1801 1.408 . S
C1805 C1804 1.404 . S
C1805 H1817 0.930 . S
C1806 C1802 1.524 . S
C1806 H1818 0.956 . S
C1806 H1819 0.961 . S
C1806 H1820 0.961 . S
C1807 C1804 1.539 . S
C1807 H1821 0.958 . S
C1807 H1822 0.961 . S
C1807 H1823 0.960 . S
H1808 C1792 0.931 . S
H1809 C1797 0.929 . S
H1810 C1798 0.960 . S
H1811 C1798 0.962 . S
H1812 C1798 0.960 . S
H1813 C1799 0.961 . S
H1814 C1799 0.961 . S
H1815 C1799 0.961 . S
H1816 C1800 0.931 . S
H1817 C1805 0.930 . S
H1818 C1806 0.956 . S
H1819 C1806 0.961 . S
H1820 C1806 0.961 . S
H1821 C1807 0.958 . S
H1822 C1807 0.961 . S
H1823 C1807 0.960 . S
C1824 C1825 1.391 . S
C1824 C1826 1.394 . S
C1824 H1840 0.931 . S
C1825 C1824 1.391 . S
C1825 C1829 1.376 . S
C1826 C1824 1.394 . S
C1826 C1827 1.369 . S
C1826 C1830 1.531 . S
C1827 C1826 1.369 . S
C1827 C1828 1.410 . S
C1827 C1835 1.503 . S
C1828 C1827 1.410 . S
C1828 C1829 1.392 . S
C1828 C1831 1.511 1_655 S
C1829 C1825 1.376 . S
C1829 C1828 1.392 . S
C1829 H1841 0.929 . S
C1830 C1826 1.531 . S
C1830 H1842 0.960 . S
C1830 H1843 0.962 . S
C1830 H1844 0.960 . S
C1831 C1828 1.511 1_455 S
C1831 H1845 0.961 . S
C1831 H1846 0.961 . S
C1831 H1847 0.961 . S
C1832 C1833 1.370 . S
C1832 C1834 1.363 . S
C1832 H1848 0.931 . S
C1833 C1832 1.370 . S
C1833 C1837 1.408 . S
C1834 C1832 1.363 . S
C1834 C1835 1.370 . S
C1834 C1838 1.524 . S
C1835 C1827 1.503 . S
C1835 C1834 1.370 . S
C1835 C1836 1.403 . S
C1836 C1835 1.403 . S
C1836 C1837 1.404 . S
C1836 C1839 1.539 . S
C1837 C1833 1.408 . S
C1837 C1836 1.404 . S
C1837 H1849 0.930 . S
C1838 C1834 1.524 . S
C1838 H1850 0.956 . S
C1838 H1851 0.961 . S
C1838 H1852 0.961 . S
C1839 C1836 1.539 . S
C1839 H1853 0.958 . S
C1839 H1854 0.961 . S
C1839 H1855 0.960 . S
H1840 C1824 0.931 . S
H1841 C1829 0.929 . S
H1842 C1830 0.960 . S
H1843 C1830 0.962 . S
H1844 C1830 0.960 . S
H1845 C1831 0.961 . S
H1846 C1831 0.961 . S
H1847 C1831 0.961 . S
H1848 C1832 0.931 . S
H1849 C1837 0.930 . S
H1850 C1838 0.956 . S
H1851 C1838 0.961 . S
H1852 C1838 0.961 . S
H1853 C1839 0.958 . S
H1854 C1839 0.961 . S
H1855 C1839 0.960 . S
C1856 C1857 1.391 . S
C1856 C1858 1.394 . S
C1856 H1872 0.931 . S
C1857 C1856 1.391 . S
C1857 C1861 1.376 . S
C1858 C1856 1.394 . S
C1858 C1859 1.369 . S
C1858 C1862 1.531 . S
C1859 C1858 1.369 . S
C1859 C1860 1.410 . S
C1859 C1867 1.503 . S
C1860 C1859 1.410 . S
C1860 C1861 1.392 . S
C1860 C1863 1.511 . S
C1861 C1857 1.376 . S
C1861 C1860 1.392 . S
C1861 H1873 0.929 . S
C1862 C1858 1.531 . S
C1862 H1874 0.960 . S
C1862 H1875 0.962 . S
C1862 H1876 0.960 . S
C1863 C1860 1.511 . S
C1863 H1877 0.961 . S
C1863 H1878 0.961 . S
C1863 H1879 0.961 . S
C1864 C1865 1.370 . S
C1864 C1866 1.363 . S
C1864 H1880 0.931 . S
C1865 C1864 1.370 . S
C1865 C1869 1.408 . S
C1866 C1864 1.363 . S
C1866 C1867 1.370 . S
C1866 C1870 1.524 . S
C1867 C1859 1.503 . S
C1867 C1866 1.370 . S
C1867 C1868 1.403 . S
C1868 C1867 1.403 . S
C1868 C1869 1.404 . S
C1868 C1871 1.539 . S
C1869 C1865 1.408 . S
C1869 C1868 1.404 . S
C1869 H1881 0.930 . S
C1870 C1866 1.524 . S
C1870 H1882 0.956 . S
C1870 H1883 0.961 . S
C1870 H1884 0.961 . S
C1871 C1868 1.539 . S
C1871 H1885 0.958 . S
C1871 H1886 0.961 . S
C1871 H1887 0.960 . S
H1872 C1856 0.931 . S
H1873 C1861 0.929 . S
H1874 C1862 0.960 . S
H1875 C1862 0.962 . S
H1876 C1862 0.960 . S
H1877 C1863 0.961 . S
H1878 C1863 0.961 . S
H1879 C1863 0.961 . S
H1880 C1864 0.931 . S
H1881 C1869 0.930 . S
H1882 C1870 0.956 . S
H1883 C1870 0.961 . S
H1884 C1870 0.961 . S
H1885 C1871 0.958 . S
H1886 C1871 0.961 . S
H1887 C1871 0.960 . S
C1888 C1889 1.391 . S
C1888 C1890 1.394 . S
C1888 H1904 0.931 . S
C1889 C1888 1.391 . S
C1889 C1893 1.376 . S
C1890 C1888 1.394 . S
C1890 C1891 1.369 . S
C1890 C1894 1.531 . S
C1891 C1890 1.369 . S
C1891 C1892 1.410 . S
C1891 C1899 1.503 . S
C1892 C1891 1.410 . S
C1892 C1893 1.392 . S
C1892 C1895 1.511 . S
C1893 C1889 1.376 . S
C1893 C1892 1.392 . S
C1893 H1905 0.929 . S
C1894 C1890 1.531 . S
C1894 H1906 0.960 . S
C1894 H1907 0.962 . S
C1894 H1908 0.960 . S
C1895 C1892 1.511 . S
C1895 H1909 0.961 . S
C1895 H1910 0.961 . S
C1895 H1911 0.961 . S
C1896 C1897 1.370 . S
C1896 C1898 1.363 . S
C1896 H1912 0.931 . S
C1897 C1896 1.370 . S
C1897 C1901 1.408 . S
C1898 C1896 1.363 . S
C1898 C1899 1.370 . S
C1898 C1902 1.524 . S
C1899 C1891 1.503 . S
C1899 C1898 1.370 . S
C1899 C1900 1.403 . S
C1900 C1899 1.403 . S
C1900 C1901 1.404 . S
C1900 C1903 1.539 . S
C1901 C1897 1.408 . S
C1901 C1900 1.404 . S
C1901 H1913 0.930 . S
C1902 C1898 1.524 . S
C1902 H1914 0.956 . S
C1902 H1915 0.961 . S
C1902 H1916 0.961 . S
C1903 C1900 1.539 . S
C1903 H1917 0.958 . S
C1903 H1918 0.961 . S
C1903 H1919 0.960 . S
H1904 C1888 0.931 . S
H1905 C1893 0.929 . S
H1906 C1894 0.960 . S
H1907 C1894 0.962 . S
H1908 C1894 0.960 . S
H1909 C1895 0.961 . S
H1910 C1895 0.961 . S
H1911 C1895 0.961 . S
H1912 C1896 0.931 . S
H1913 C1901 0.930 . S
H1914 C1902 0.956 . S
H1915 C1902 0.961 . S
H1916 C1902 0.961 . S
H1917 C1903 0.958 . S
H1918 C1903 0.961 . S
H1919 C1903 0.960 . S
C1920 C1921 1.391 . S
C1920 C1922 1.394 . S
C1920 H1936 0.931 . S
C1921 C1920 1.391 . S
C1921 C1925 1.376 . S
C1922 C1920 1.394 . S
C1922 C1923 1.369 . S
C1922 C1926 1.531 . S
C1923 C1922 1.369 . S
C1923 C1924 1.410 . S
C1923 C1931 1.503 . S
C1924 C1923 1.410 . S
C1924 C1925 1.392 . S
C1924 C1927 1.511 . S
C1925 C1921 1.376 . S
C1925 C1924 1.392 . S
C1925 H1937 0.929 . S
C1926 C1922 1.531 . S
C1926 H1938 0.960 . S
C1926 H1939 0.962 . S
C1926 H1940 0.960 . S
C1927 C1924 1.511 . S
C1927 H1941 0.961 . S
C1927 H1942 0.961 . S
C1927 H1943 0.961 . S
C1928 C1929 1.370 . S
C1928 C1930 1.363 . S
C1928 H1944 0.931 . S
C1929 C1928 1.370 . S
C1929 C1933 1.408 . S
C1930 C1928 1.363 . S
C1930 C1931 1.370 . S
C1930 C1934 1.524 . S
C1931 C1923 1.503 . S
C1931 C1930 1.370 . S
C1931 C1932 1.403 . S
C1932 C1931 1.403 . S
C1932 C1933 1.404 . S
C1932 C1935 1.539 . S
C1933 C1929 1.408 . S
C1933 C1932 1.404 . S
C1933 H1945 0.930 . S
C1934 C1930 1.524 . S
C1934 H1946 0.956 . S
C1934 H1947 0.961 . S
C1934 H1948 0.961 . S
C1935 C1932 1.539 . S
C1935 H1949 0.958 . S
C1935 H1950 0.961 . S
C1935 H1951 0.960 . S
H1936 C1920 0.931 . S
H1937 C1925 0.929 . S
H1938 C1926 0.960 . S
H1939 C1926 0.962 . S
H1940 C1926 0.960 . S
H1941 C1927 0.961 . S
H1942 C1927 0.961 . S
H1943 C1927 0.961 . S
H1944 C1928 0.931 . S
H1945 C1933 0.930 . S
H1946 C1934 0.956 . S
H1947 C1934 0.961 . S
H1948 C1934 0.961 . S
H1949 C1935 0.958 . S
H1950 C1935 0.961 . S
H1951 C1935 0.960 . S
C1952 C1953 1.391 . S
C1952 C1954 1.394 . S
C1952 H1968 0.931 . S
C1953 C1952 1.391 . S
C1953 C1957 1.376 . S
C1954 C1952 1.394 . S
C1954 C1955 1.369 . S
C1954 C1958 1.531 . S
C1955 C1954 1.369 . S
C1955 C1956 1.410 . S
C1955 C1963 1.503 . S
C1956 C1955 1.410 . S
C1956 C1957 1.392 . S
C1956 C1959 1.511 . S
C1957 C1953 1.376 . S
C1957 C1956 1.392 . S
C1957 H1969 0.929 . S
C1958 C1954 1.531 . S
C1958 H1970 0.960 . S
C1958 H1971 0.962 . S
C1958 H1972 0.960 . S
C1959 C1956 1.511 . S
C1959 H1973 0.961 . S
C1959 H1974 0.961 . S
C1959 H1975 0.961 . S
C1960 C1961 1.370 . S
C1960 C1962 1.363 . S
C1960 H1976 0.931 . S
C1961 C1960 1.370 . S
C1961 C1965 1.408 . S
C1962 C1960 1.363 . S
C1962 C1963 1.370 . S
C1962 C1966 1.524 . S
C1963 C1955 1.503 . S
C1963 C1962 1.370 . S
C1963 C1964 1.403 . S
C1964 C1963 1.403 . S
C1964 C1965 1.404 . S
C1964 C1967 1.539 . S
C1965 C1961 1.408 . S
C1965 C1964 1.404 . S
C1965 H1977 0.930 . S
C1966 C1962 1.524 . S
C1966 H1978 0.956 . S
C1966 H1979 0.961 . S
C1966 H1980 0.961 . S
C1967 C1964 1.539 . S
C1967 H1981 0.958 . S
C1967 H1982 0.961 . S
C1967 H1983 0.960 . S
H1968 C1952 0.931 . S
H1969 C1957 0.929 . S
H1970 C1958 0.960 . S
H1971 C1958 0.962 . S
H1972 C1958 0.960 . S
H1973 C1959 0.961 . S
H1974 C1959 0.961 . S
H1975 C1959 0.961 . S
H1976 C1960 0.931 . S
H1977 C1965 0.930 . S
H1978 C1966 0.956 . S
H1979 C1966 0.961 . S
H1980 C1966 0.961 . S
H1981 C1967 0.958 . S
H1982 C1967 0.961 . S
H1983 C1967 0.960 . S
C1984 C1985 1.391 . S
C1984 C1986 1.394 . S
C1984 H2000 0.931 . S
C1985 C1984 1.391 . S
C1985 C1989 1.376 . S
C1986 C1984 1.394 . S
C1986 C1987 1.369 . S
C1986 C1990 1.531 . S
C1987 C1986 1.369 . S
C1987 C1988 1.410 . S
C1987 C1995 1.503 . S
C1988 C1987 1.410 . S
C1988 C1989 1.392 . S
C1988 C1991 1.511 . S
C1989 C1985 1.376 . S
C1989 C1988 1.392 . S
C1989 H2001 0.929 . S
C1990 C1986 1.531 . S
C1990 H2002 0.960 . S
C1990 H2003 0.962 . S
C1990 H2004 0.960 . S
C1991 C1988 1.511 . S
C1991 H2005 0.961 . S
C1991 H2006 0.961 . S
C1991 H2007 0.961 . S
C1992 C1993 1.370 . S
C1992 C1994 1.363 . S
C1992 H2008 0.931 . S
C1993 C1992 1.370 . S
C1993 C1997 1.408 . S
C1994 C1992 1.363 . S
C1994 C1995 1.370 . S
C1994 C1998 1.524 . S
C1995 C1987 1.503 . S
C1995 C1994 1.370 . S
C1995 C1996 1.403 . S
C1996 C1995 1.403 . S
C1996 C1997 1.404 . S
C1996 C1999 1.539 . S
C1997 C1993 1.408 . S
C1997 C1996 1.404 . S
C1997 H2009 0.930 . S
C1998 C1994 1.524 . S
C1998 H2010 0.956 . S
C1998 H2011 0.961 . S
C1998 H2012 0.961 . S
C1999 C1996 1.539 . S
C1999 H2013 0.958 . S
C1999 H2014 0.961 . S
C1999 H2015 0.960 . S
H2000 C1984 0.931 . S
H2001 C1989 0.929 . S
H2002 C1990 0.960 . S
H2003 C1990 0.962 . S
H2004 C1990 0.960 . S
H2005 C1991 0.961 . S
H2006 C1991 0.961 . S
H2007 C1991 0.961 . S
H2008 C1992 0.931 . S
H2009 C1997 0.930 . S
H2010 C1998 0.956 . S
H2011 C1998 0.961 . S
H2012 C1998 0.961 . S
H2013 C1999 0.958 . S
H2014 C1999 0.961 . S
H2015 C1999 0.960 . S
C2016 C2017 1.391 . S
C2016 C2018 1.394 . S
C2016 H2032 0.931 . S
C2017 C2016 1.391 . S
C2017 C2021 1.376 . S
C2018 C2016 1.394 . S
C2018 C2019 1.369 . S
C2018 C2022 1.531 . S
C2019 C2018 1.369 . S
C2019 C2020 1.410 . S
C2019 C2027 1.503 . S
C2020 C2019 1.410 . S
C2020 C2021 1.392 . S
C2020 C2023 1.511 . S
C2021 C2017 1.376 . S
C2021 C2020 1.392 . S
C2021 H2033 0.929 . S
C2022 C2018 1.531 . S
C2022 H2034 0.960 . S
C2022 H2035 0.962 . S
C2022 H2036 0.960 . S
C2023 C2020 1.511 . S
C2023 H2037 0.961 . S
C2023 H2038 0.961 . S
C2023 H2039 0.961 . S
C2024 C2025 1.370 . S
C2024 C2026 1.363 . S
C2024 H2040 0.931 . S
C2025 C2024 1.370 . S
C2025 C2029 1.408 . S
C2026 C2024 1.363 . S
C2026 C2027 1.370 . S
C2026 C2030 1.524 . S
C2027 C2019 1.503 . S
C2027 C2026 1.370 . S
C2027 C2028 1.403 . S
C2028 C2027 1.403 . S
C2028 C2029 1.404 . S
C2028 C2031 1.539 . S
C2029 C2025 1.408 . S
C2029 C2028 1.404 . S
C2029 H2041 0.930 . S
C2030 C2026 1.524 . S
C2030 H2042 0.956 . S
C2030 H2043 0.961 . S
C2030 H2044 0.961 . S
C2031 C2028 1.539 . S
C2031 H2045 0.958 . S
C2031 H2046 0.961 . S
C2031 H2047 0.960 . S
H2032 C2016 0.931 . S
H2033 C2021 0.929 . S
H2034 C2022 0.960 . S
H2035 C2022 0.962 . S
H2036 C2022 0.960 . S
H2037 C2023 0.961 . S
H2038 C2023 0.961 . S
H2039 C2023 0.961 . S
H2040 C2024 0.931 . S
H2041 C2029 0.930 . S
H2042 C2030 0.956 . S
H2043 C2030 0.961 . S
H2044 C2030 0.961 . S
H2045 C2031 0.958 . S
H2046 C2031 0.961 . S
H2047 C2031 0.960 . S
C2048 C2049 1.391 . S
C2048 C2050 1.394 . S
C2048 H2064 0.931 . S
C2049 C2048 1.391 . S
C2049 C2053 1.376 . S
C2050 C2048 1.394 . S
C2050 C2051 1.369 . S
C2050 C2054 1.531 . S
C2051 C2050 1.369 . S
C2051 C2052 1.410 . S
C2051 C2059 1.503 . S
C2052 C2051 1.410 . S
C2052 C2053 1.392 . S
C2052 C2055 1.511 . S
C2053 C2049 1.376 . S
C2053 C2052 1.392 . S
C2053 H2065 0.929 . S
C2054 C2050 1.531 . S
C2054 H2066 0.960 . S
C2054 H2067 0.962 . S
C2054 H2068 0.960 . S
C2055 C2052 1.511 . S
C2055 H2069 0.961 . S
C2055 H2070 0.961 . S
C2055 H2071 0.961 . S
C2056 C2057 1.370 . S
C2056 C2058 1.363 . S
C2056 H2072 0.931 . S
C2057 C2056 1.370 . S
C2057 C2061 1.408 . S
C2058 C2056 1.363 . S
C2058 C2059 1.370 . S
C2058 C2062 1.524 . S
C2059 C2051 1.503 . S
C2059 C2058 1.370 . S
C2059 C2060 1.403 . S
C2060 C2059 1.403 . S
C2060 C2061 1.404 . S
C2060 C2063 1.539 . S
C2061 C2057 1.408 . S
C2061 C2060 1.404 . S
C2061 H2073 0.930 . S
C2062 C2058 1.524 . S
C2062 H2074 0.956 . S
C2062 H2075 0.961 . S
C2062 H2076 0.961 . S
C2063 C2060 1.539 . S
C2063 H2077 0.958 . S
C2063 H2078 0.961 . S
C2063 H2079 0.960 . S
H2064 C2048 0.931 . S
H2065 C2053 0.929 . S
H2066 C2054 0.960 . S
H2067 C2054 0.962 . S
H2068 C2054 0.960 . S
H2069 C2055 0.961 . S
H2070 C2055 0.961 . S
H2071 C2055 0.961 . S
H2072 C2056 0.931 . S
H2073 C2061 0.930 . S
H2074 C2062 0.956 . S
H2075 C2062 0.961 . S
H2076 C2062 0.961 . S
H2077 C2063 0.958 . S
H2078 C2063 0.961 . S
H2079 C2063 0.960 . S
C2080 C2081 1.391 . S
C2080 C2082 1.394 . S
C2080 H2096 0.931 . S
C2081 C2080 1.391 . S
C2081 C2085 1.376 . S
C2082 C2080 1.394 . S
C2082 C2083 1.369 . S
C2082 C2086 1.531 . S
C2083 C2082 1.369 . S
C2083 C2084 1.410 . S
C2083 C2091 1.503 . S
C2084 C2083 1.410 . S
C2084 C2085 1.392 . S
C2084 C2087 1.511 . S
C2085 C2081 1.376 . S
C2085 C2084 1.392 . S
C2085 H2097 0.929 . S
C2086 C2082 1.531 . S
C2086 H2098 0.960 . S
C2086 H2099 0.962 . S
C2086 H2100 0.960 . S
C2087 C2084 1.511 . S
C2087 H2101 0.961 . S
C2087 H2102 0.961 . S
C2087 H2103 0.961 . S
C2088 C2089 1.370 . S
C2088 C2090 1.363 . S
C2088 H2104 0.931 . S
C2089 C2088 1.370 . S
C2089 C2093 1.408 . S
C2090 C2088 1.363 . S
C2090 C2091 1.370 . S
C2090 C2094 1.524 . S
C2091 C2083 1.503 . S
C2091 C2090 1.370 . S
C2091 C2092 1.403 . S
C2092 C2091 1.403 . S
C2092 C2093 1.404 . S
C2092 C2095 1.539 . S
C2093 C2089 1.408 . S
C2093 C2092 1.404 . S
C2093 H2105 0.930 . S
C2094 C2090 1.524 . S
C2094 H2106 0.956 . S
C2094 H2107 0.961 . S
C2094 H2108 0.961 . S
C2095 C2092 1.539 . S
C2095 H2109 0.958 . S
C2095 H2110 0.961 . S
C2095 H2111 0.960 . S
H2096 C2080 0.931 . S
H2097 C2085 0.929 . S
H2098 C2086 0.960 . S
H2099 C2086 0.962 . S
H2100 C2086 0.960 . S
H2101 C2087 0.961 . S
H2102 C2087 0.961 . S
H2103 C2087 0.961 . S
H2104 C2088 0.931 . S
H2105 C2093 0.930 . S
H2106 C2094 0.956 . S
H2107 C2094 0.961 . S
H2108 C2094 0.961 . S
H2109 C2095 0.958 . S
H2110 C2095 0.961 . S
H2111 C2095 0.960 . S
C2112 C2113 1.391 . S
C2112 C2114 1.394 . S
C2112 H2128 0.931 . S
C2113 C2112 1.391 . S
C2113 C2117 1.376 . S
C2114 C2112 1.394 . S
C2114 C2115 1.369 . S
C2114 C2118 1.531 . S
C2115 C2114 1.369 . S
C2115 C2116 1.410 . S
C2115 C2123 1.503 . S
C2116 C2115 1.410 . S
C2116 C2117 1.392 . S
C2116 C2119 1.511 . S
C2117 C2113 1.376 . S
C2117 C2116 1.392 . S
C2117 H2129 0.929 . S
C2118 C2114 1.531 . S
C2118 H2130 0.960 . S
C2118 H2131 0.962 . S
C2118 H2132 0.960 . S
C2119 C2116 1.511 . S
C2119 H2133 0.961 . S
C2119 H2134 0.961 . S
C2119 H2135 0.961 . S
C2120 C2121 1.370 . S
C2120 C2122 1.363 . S
C2120 H2136 0.931 . S
C2121 C2120 1.370 . S
C2121 C2125 1.408 . S
C2122 C2120 1.363 . S
C2122 C2123 1.370 . S
C2122 C2126 1.524 . S
C2123 C2115 1.503 . S
C2123 C2122 1.370 . S
C2123 C2124 1.403 . S
C2124 C2123 1.403 . S
C2124 C2125 1.404 . S
C2124 C2127 1.539 . S
C2125 C2121 1.408 . S
C2125 C2124 1.404 . S
C2125 H2137 0.930 . S
C2126 C2122 1.524 . S
C2126 H2138 0.956 . S
C2126 H2139 0.961 . S
C2126 H2140 0.961 . S
C2127 C2124 1.539 . S
C2127 H2141 0.958 . S
C2127 H2142 0.961 . S
C2127 H2143 0.960 . S
H2128 C2112 0.931 . S
H2129 C2117 0.929 . S
H2130 C2118 0.960 . S
H2131 C2118 0.962 . S
H2132 C2118 0.960 . S
H2133 C2119 0.961 . S
H2134 C2119 0.961 . S
H2135 C2119 0.961 . S
H2136 C2120 0.931 . S
H2137 C2125 0.930 . S
H2138 C2126 0.956 . S
H2139 C2126 0.961 . S
H2140 C2126 0.961 . S
H2141 C2127 0.958 . S
H2142 C2127 0.961 . S
H2143 C2127 0.960 . S
C2144 C2145 1.391 . S
C2144 C2146 1.394 . S
C2144 H2160 0.931 . S
C2145 C2144 1.391 . S
C2145 C2149 1.376 . S
C2146 C2144 1.394 . S
C2146 C2147 1.369 . S
C2146 C2150 1.531 . S
C2147 C2146 1.369 . S
C2147 C2148 1.410 . S
C2147 C2155 1.503 . S
C2148 C2147 1.410 . S
C2148 C2149 1.392 . S
C2148 C2151 1.511 . S
C2149 C2145 1.376 . S
C2149 C2148 1.392 . S
C2149 H2161 0.929 . S
C2150 C2146 1.531 . S
C2150 H2162 0.960 . S
C2150 H2163 0.962 . S
C2150 H2164 0.960 . S
C2151 C2148 1.511 . S
C2151 H2165 0.961 . S
C2151 H2166 0.961 . S
C2151 H2167 0.961 . S
C2152 C2153 1.370 . S
C2152 C2154 1.363 . S
C2152 H2168 0.931 . S
C2153 C2152 1.370 . S
C2153 C2157 1.408 . S
C2154 C2152 1.363 . S
C2154 C2155 1.370 . S
C2154 C2158 1.524 . S
C2155 C2147 1.503 . S
C2155 C2154 1.370 . S
C2155 C2156 1.403 . S
C2156 C2155 1.403 . S
C2156 C2157 1.404 . S
C2156 C2159 1.539 . S
C2157 C2153 1.408 . S
C2157 C2156 1.404 . S
C2157 H2169 0.930 . S
C2158 C2154 1.524 . S
C2158 H2170 0.956 . S
C2158 H2171 0.961 . S
C2158 H2172 0.961 . S
C2159 C2156 1.539 . S
C2159 H2173 0.958 . S
C2159 H2174 0.961 . S
C2159 H2175 0.960 . S
H2160 C2144 0.931 . S
H2161 C2149 0.929 . S
H2162 C2150 0.960 . S
H2163 C2150 0.962 . S
H2164 C2150 0.960 . S
H2165 C2151 0.961 . S
H2166 C2151 0.961 . S
H2167 C2151 0.961 . S
H2168 C2152 0.931 . S
H2169 C2157 0.930 . S
H2170 C2158 0.956 . S
H2171 C2158 0.961 . S
H2172 C2158 0.961 . S
H2173 C2159 0.958 . S
H2174 C2159 0.961 . S
H2175 C2159 0.960 . S
C2176 C2177 1.391 . S
C2176 C2178 1.394 . S
C2176 H2192 0.931 . S
C2177 C2176 1.391 . S
C2177 C2181 1.376 . S
C2178 C2176 1.394 . S
C2178 C2179 1.369 . S
C2178 C2182 1.531 . S
C2179 C2178 1.369 . S
C2179 C2180 1.410 . S
C2179 C2187 1.503 . S
C2180 C2179 1.410 . S
C2180 C2181 1.392 . S
C2180 C2183 1.511 . S
C2181 C2177 1.376 . S
C2181 C2180 1.392 . S
C2181 H2193 0.929 . S
C2182 C2178 1.531 . S
C2182 H2194 0.960 . S
C2182 H2195 0.962 . S
C2182 H2196 0.960 . S
C2183 C2180 1.511 . S
C2183 H2197 0.961 . S
C2183 H2198 0.961 . S
C2183 H2199 0.961 . S
C2184 C2185 1.370 . S
C2184 C2186 1.363 . S
C2184 H2200 0.931 . S
C2185 C2184 1.370 . S
C2185 C2189 1.408 . S
C2186 C2184 1.363 . S
C2186 C2187 1.370 . S
C2186 C2190 1.524 . S
C2187 C2179 1.503 . S
C2187 C2186 1.370 . S
C2187 C2188 1.403 . S
C2188 C2187 1.403 . S
C2188 C2189 1.404 . S
C2188 C2191 1.539 . S
C2189 C2185 1.408 . S
C2189 C2188 1.404 . S
C2189 H2201 0.930 . S
C2190 C2186 1.524 . S
C2190 H2202 0.956 . S
C2190 H2203 0.961 . S
C2190 H2204 0.961 . S
C2191 C2188 1.539 . S
C2191 H2205 0.958 . S
C2191 H2206 0.961 . S
C2191 H2207 0.960 . S
H2192 C2176 0.931 . S
H2193 C2181 0.929 . S
H2194 C2182 0.960 . S
H2195 C2182 0.962 . S
H2196 C2182 0.960 . S
H2197 C2183 0.961 . S
H2198 C2183 0.961 . S
H2199 C2183 0.961 . S
H2200 C2184 0.931 . S
H2201 C2189 0.930 . S
H2202 C2190 0.956 . S
H2203 C2190 0.961 . S
H2204 C2190 0.961 . S
H2205 C2191 0.958 . S
H2206 C2191 0.961 . S
H2207 C2191 0.960 . S
C2208 C2209 1.391 . S
C2208 C2210 1.394 . S
C2208 H2224 0.931 . S
C2209 C2208 1.391 . S
C2209 C2213 1.376 . S
C2210 C2208 1.394 . S
C2210 C2211 1.369 . S
C2210 C2214 1.531 . S
C2211 C2210 1.369 . S
C2211 C2212 1.410 . S
C2211 C2219 1.503 . S
C2212 C2211 1.410 . S
C2212 C2213 1.392 . S
C2212 C2215 1.511 . S
C2213 C2209 1.376 . S
C2213 C2212 1.392 . S
C2213 H2225 0.929 . S
C2214 C2210 1.531 . S
C2214 H2226 0.960 . S
C2214 H2227 0.962 . S
C2214 H2228 0.960 . S
C2215 C2212 1.511 . S
C2215 H2229 0.961 . S
C2215 H2230 0.961 . S
C2215 H2231 0.961 . S
C2216 C2217 1.370 . S
C2216 C2218 1.363 . S
C2216 H2232 0.931 . S
C2217 C2216 1.370 . S
C2217 C2221 1.408 . S
C2218 C2216 1.363 . S
C2218 C2219 1.370 . S
C2218 C2222 1.524 . S
C2219 C2211 1.503 . S
C2219 C2218 1.370 . S
C2219 C2220 1.403 . S
C2220 C2219 1.403 . S
C2220 C2221 1.404 . S
C2220 C2223 1.539 . S
C2221 C2217 1.408 . S
C2221 C2220 1.404 . S
C2221 H2233 0.930 . S
C2222 C2218 1.524 . S
C2222 H2234 0.956 . S
C2222 H2235 0.961 . S
C2222 H2236 0.961 . S
C2223 C2220 1.539 . S
C2223 H2237 0.958 . S
C2223 H2238 0.961 . S
C2223 H2239 0.960 . S
H2224 C2208 0.931 . S
H2225 C2213 0.929 . S
H2226 C2214 0.960 . S
H2227 C2214 0.962 . S
H2228 C2214 0.960 . S
H2229 C2215 0.961 . S
H2230 C2215 0.961 . S
H2231 C2215 0.961 . S
H2232 C2216 0.931 . S
H2233 C2221 0.930 . S
H2234 C2222 0.956 . S
H2235 C2222 0.961 . S
H2236 C2222 0.961 . S
H2237 C2223 0.958 . S
H2238 C2223 0.961 . S
H2239 C2223 0.960 . S
C2240 C2241 1.391 . S
C2240 C2242 1.394 . S
C2240 H2256 0.931 . S
C2241 C2240 1.391 . S
C2241 C2245 1.376 . S
C2242 C2240 1.394 . S
C2242 C2243 1.369 . S
C2242 C2246 1.531 . S
C2243 C2242 1.369 . S
C2243 C2244 1.410 . S
C2243 C2251 1.503 . S
C2244 C2243 1.410 . S
C2244 C2245 1.392 . S
C2244 C2247 1.511 . S
C2245 C2241 1.376 . S
C2245 C2244 1.392 . S
C2245 H2257 0.929 . S
C2246 C2242 1.531 . S
C2246 H2258 0.960 . S
C2246 H2259 0.962 . S
C2246 H2260 0.960 . S
C2247 C2244 1.511 . S
C2247 H2261 0.961 . S
C2247 H2262 0.961 . S
C2247 H2263 0.961 . S
C2248 C2249 1.370 . S
C2248 C2250 1.363 . S
C2248 H2264 0.931 . S
C2249 C2248 1.370 . S
C2249 C2253 1.408 . S
C2250 C2248 1.363 . S
C2250 C2251 1.370 . S
C2250 C2254 1.524 . S
C2251 C2243 1.503 . S
C2251 C2250 1.370 . S
C2251 C2252 1.403 . S
C2252 C2251 1.403 . S
C2252 C2253 1.404 . S
C2252 C2255 1.539 . S
C2253 C2249 1.408 . S
C2253 C2252 1.404 . S
C2253 H2265 0.930 . S
C2254 C2250 1.524 . S
C2254 H2266 0.956 . S
C2254 H2267 0.961 . S
C2254 H2268 0.961 . S
C2255 C2252 1.539 . S
C2255 H2269 0.958 . S
C2255 H2270 0.961 . S
C2255 H2271 0.960 . S
H2256 C2240 0.931 . S
H2257 C2245 0.929 . S
H2258 C2246 0.960 . S
H2259 C2246 0.962 . S
H2260 C2246 0.960 . S
H2261 C2247 0.961 . S
H2262 C2247 0.961 . S
H2263 C2247 0.961 . S
H2264 C2248 0.931 . S
H2265 C2253 0.930 . S
H2266 C2254 0.956 . S
H2267 C2254 0.961 . S
H2268 C2254 0.961 . S
H2269 C2255 0.958 . S
H2270 C2255 0.961 . S
H2271 C2255 0.960 . S
C2272 C2273 1.391 . S
C2272 C2274 1.394 . S
C2272 H2288 0.931 . S
C2273 C2272 1.391 . S
C2273 C2277 1.376 . S
C2274 C2272 1.394 . S
C2274 C2275 1.369 . S
C2274 C2278 1.531 . S
C2275 C2274 1.369 . S
C2275 C2276 1.410 . S
C2275 C2283 1.503 . S
C2276 C2275 1.410 . S
C2276 C2277 1.392 . S
C2276 C2279 1.511 . S
C2277 C2273 1.376 . S
C2277 C2276 1.392 . S
C2277 H2289 0.929 . S
C2278 C2274 1.531 . S
C2278 H2290 0.960 . S
C2278 H2291 0.962 . S
C2278 H2292 0.960 . S
C2279 C2276 1.511 . S
C2279 H2293 0.961 . S
C2279 H2294 0.961 . S
C2279 H2295 0.961 . S
C2280 C2281 1.370 . S
C2280 C2282 1.363 . S
C2280 H2296 0.931 . S
C2281 C2280 1.370 . S
C2281 C2285 1.408 . S
C2282 C2280 1.363 . S
C2282 C2283 1.370 . S
C2282 C2286 1.524 . S
C2283 C2275 1.503 . S
C2283 C2282 1.370 . S
C2283 C2284 1.403 . S
C2284 C2283 1.403 . S
C2284 C2285 1.404 . S
C2284 C2287 1.539 . S
C2285 C2281 1.408 . S
C2285 C2284 1.404 . S
C2285 H2297 0.930 . S
C2286 C2282 1.524 . S
C2286 H2298 0.956 . S
C2286 H2299 0.961 . S
C2286 H2300 0.961 . S
C2287 C2284 1.539 . S
C2287 H2301 0.958 . S
C2287 H2302 0.961 . S
C2287 H2303 0.960 . S
H2288 C2272 0.931 . S
H2289 C2277 0.929 . S
H2290 C2278 0.960 . S
H2291 C2278 0.962 . S
H2292 C2278 0.960 . S
H2293 C2279 0.961 . S
H2294 C2279 0.961 . S
H2295 C2279 0.961 . S
H2296 C2280 0.931 . S
H2297 C2285 0.930 . S
H2298 C2286 0.956 . S
H2299 C2286 0.961 . S
H2300 C2286 0.961 . S
H2301 C2287 0.958 . S
H2302 C2287 0.961 . S
H2303 C2287 0.960 . S
C577 C162 1.660 . S
C585 C228 1.678 . S
C609 C174 1.800 . S
C617 C268 1.792 . S
C641 C150 1.577 . S
C649 C298 1.587 . S
C673 C138 1.464 . S
C681 C258 1.456 1_556 S
C713 C308 1.505 . S
C705 C114 1.503 . S
C737 C126 1.349 . S
C745 C218 1.359 1_556 S
C777 C247 1.673 . S
C769 C136 1.646 . S
C809 C287 1.669 . S
C801 C112 1.671 . S
C833 C124 1.622 . S
C841 C313 1.692 . S
C865 C160 1.462 . S
C873 C273 1.519 . S
C897 C172 1.438 . S
C905 C327 1.465 . S
C937 C233 1.481 . S
C929 C148 1.420 . S
C969 C348 1.679 . S
C961 C18 1.658 . S
C993 C30 1.799 . S
C1001 C388 1.792 . S
C1025 C6 1.578 . S
C1033 C418 1.585 . S
C1057 C210 1.477 . S
C1065 C378 1.463 . S
C1089 C186 1.502 . S
C1097 C428 1.507 . S
C1121 C198 1.340 . S
C1129 C338 1.357 . S
C1153 C208 1.662 . S
C1161 C367 1.667 . S
C1185 C184 1.671 . S
C1193 C407 1.669 . S
C1225 C433 1.671 . S
C1217 C196 1.656 . S
C1249 C16 1.472 . S
C1257 C393 1.518 . S
C1289 C447 1.466 . S
C1281 C28 1.434 . S
C1313 C4 1.412 . S
C1321 C353 1.483 . S
C1353 C468 1.676 . S
C1345 C90 1.676 . S
C1377 C102 1.788 . S
C1385 C508 1.799 . S
C1417 C538 1.576 . S
C1409 C78 1.615 . S
C1449 C498 1.457 . S
C1441 C66 1.462 . S
C1481 C548 1.505 . S
C1473 C42 1.502 . S
C1505 C54 1.360 . S
C1513 C458 1.356 . S
C1537 C64 1.662 . S
C1545 C487 1.664 . S
C1569 C40 1.632 . S
C1577 C527 1.678 . S
C1609 C553 1.682 . S
C1601 C52 1.631 . S
C1633 C88 1.516 . S
C1641 C513 1.500 . S
C1665 C100 1.431 . S
C1673 C567 1.465 . S
C1697 C76 1.435 . S
C1705 C473 1.477 . S
C1729 C189 1.503 . S
C1737 C245 1.470 . S
C1769 C285 1.910 . S
C1761 C201 1.957 . S
C1793 C213 1.578 . S
C1801 C304 1.575 . S
C1825 C81 1.770 . S
C1833 C264 1.781 . S
C1857 C93 1.688 . S
C1865 C325 1.667 . S
C1897 C224 1.316 . S
C1889 C105 1.296 . S
C1921 C45 1.503 . S
C1929 C365 1.470 . S
C1953 C57 1.962 . S
C1961 C405 1.907 . S
C1985 C69 1.562 . S
C1993 C424 1.575 . S
C2017 C153 1.769 . S
C2025 C384 1.782 . S
C2057 C445 1.666 . S
C2049 C165 1.690 . S
C2081 C177 1.290 . S
C2089 C344 1.314 . S
C2113 C117 1.507 . S
C2121 C485 1.468 . S
C2145 C129 1.947 . S
C2153 C525 1.916 . S
C2185 C544 1.577 . S
C2177 C141 1.581 . S
C2209 C9 1.787 . S
C2217 C504 1.787 . S
C2241 C21 1.687 . S
C2249 C565 1.671 . S
C2273 C33 1.297 . S
C2281 C464 1.316 . S
