# Generated by pormake.
# Topology nom, (4,4)-cn, num edge types: 1
# Building blocks:
#     Node 0, Type 0, BuildingBlock: MIFKUJ_clean_linker_1, # of connection points: 4
#     Node 1, Type 0, BuildingBlock: MIFKUJ_clean_linker_1, # of connection points: 4
#     Node 2, Type 0, BuildingBlock: MIFKUJ_clean_linker_1, # of connection points: 4
#     Node 3, Type 0, BuildingBlock: MIFKUJ_clean_linker_1, # of connection points: 4
#     Node 4, Type 0, BuildingBlock: MIFKUJ_clean_linker_1, # of connection points: 4
#     Node 5, Type 0, BuildingBlock: MIFKUJ_clean_linker_1, # of connection points: 4
#     Node 6, Type 1, BuildingBlock: NAHDIM_clean_sbu_0, # of connection points: 4
#     Node 7, Type 1, BuildingBlock: NAHDIM_clean_sbu_0, # of connection points: 4
#     Node 8, Type 1, BuildingBlock: NAHDIM_clean_sbu_0, # of connection points: 4
#     Node 9, Type 1, BuildingBlock: NAHDIM_clean_sbu_0, # of connection points: 4
#     Node 10, Type 1, BuildingBlock: NAHDIM_clean_sbu_0, # of connection points: 4
#     Node 11, Type 1, BuildingBlock: NAHDIM_clean_sbu_0, # of connection points: 4
#     Edge 12, Type (0, 1), BuildingBlock: KIFKEQ_clean_linker_1, # of connection points: 2
#     Edge 13, Type (0, 1), BuildingBlock: KIFKEQ_clean_linker_1, # of connection points: 2
#     Edge 14, Type (0, 1), BuildingBlock: KIFKEQ_clean_linker_1, # of connection points: 2
#     Edge 15, Type (0, 1), BuildingBlock: KIFKEQ_clean_linker_1, # of connection points: 2
#     Edge 16, Type (0, 1), BuildingBlock: KIFKEQ_clean_linker_1, # of connection points: 2
#     Edge 17, Type (0, 1), BuildingBlock: KIFKEQ_clean_linker_1, # of connection points: 2
#     Edge 18, Type (0, 1), BuildingBlock: KIFKEQ_clean_linker_1, # of connection points: 2
#     Edge 19, Type (0, 1), BuildingBlock: KIFKEQ_clean_linker_1, # of connection points: 2
#     Edge 20, Type (0, 1), BuildingBlock: KIFKEQ_clean_linker_1, # of connection points: 2
#     Edge 21, Type (0, 1), BuildingBlock: KIFKEQ_clean_linker_1, # of connection points: 2
#     Edge 22, Type (0, 1), BuildingBlock: KIFKEQ_clean_linker_1, # of connection points: 2
#     Edge 23, Type (0, 1), BuildingBlock: KIFKEQ_clean_linker_1, # of connection points: 2
#     Edge 24, Type (0, 1), BuildingBlock: KIFKEQ_clean_linker_1, # of connection points: 2
#     Edge 25, Type (0, 1), BuildingBlock: KIFKEQ_clean_linker_1, # of connection points: 2
#     Edge 26, Type (0, 1), BuildingBlock: KIFKEQ_clean_linker_1, # of connection points: 2
#     Edge 27, Type (0, 1), BuildingBlock: KIFKEQ_clean_linker_1, # of connection points: 2
#     Edge 28, Type (0, 1), BuildingBlock: KIFKEQ_clean_linker_1, # of connection points: 2
#     Edge 29, Type (0, 1), BuildingBlock: KIFKEQ_clean_linker_1, # of connection points: 2
#     Edge 30, Type (0, 1), BuildingBlock: KIFKEQ_clean_linker_1, # of connection points: 2
#     Edge 31, Type (0, 1), BuildingBlock: KIFKEQ_clean_linker_1, # of connection points: 2
#     Edge 32, Type (0, 1), BuildingBlock: KIFKEQ_clean_linker_1, # of connection points: 2
#     Edge 33, Type (0, 1), BuildingBlock: KIFKEQ_clean_linker_1, # of connection points: 2
#     Edge 34, Type (0, 1), BuildingBlock: KIFKEQ_clean_linker_1, # of connection points: 2
#     Edge 35, Type (0, 1), BuildingBlock: KIFKEQ_clean_linker_1, # of connection points: 2
# Relax obj value: 0.020
# Max RMSD: 0.118
# Mean RMSD: 0.104
data_MOF--net-nom--node1-NAHDIM_clean_sbu_0--node2-MIFKUJ_clean_linker_1--edge1-KIFKEQ_clean_linker_1
_symmetry_space_group_name_H-M    P1
_symmetry_Int_Tables_number       1
_symmetry_cell_setting            triclinic
loop_
_symmetry_equiv_pos_as_xyz
'x, y, z'
_cell_length_a     53.458377
_cell_length_b     55.02136
_cell_length_c     57.305287
_cell_angle_alpha  90.083399
_cell_angle_beta   90.553167
_cell_angle_gamma 120.95995
loop_
_atom_site_label
_atom_site_type_symbol
_atom_site_fract_x
_atom_site_fract_y
_atom_site_fract_z
_atom_type_partial_charge
H0 H 0.97668 0.46687 0.27284 0.0
H1 H 0.94325 0.44615 0.23966 0.0
H2 H 0.90356 0.49503 0.2577 0.0
H3 H 0.93834 0.51697 0.28999 0.0
H4 H 0.01778 0.52188 0.28065 0.0
H5 H 0.92492 0.45238 0.32122 0.0
H6 H 0.87429 0.43585 0.33198 0.0
H7 H 0.90125 0.51941 0.35872 0.0
H8 H 0.95135 0.53581 0.34756 0.0
H9 H 0.02851 0.56509 0.37643 0.0
H10 H 0.06155 0.57871 0.41013 0.0
H11 H 0.09932 0.5324 0.38111 0.0
H12 H 0.0664 0.51903 0.34746 0.0
H13 H 0.98699 0.51635 0.36279 0.0
H14 H 0.06366 0.58989 0.32355 0.0
H15 H 0.11269 0.6234 0.31042 0.0
H16 H 0.11896 0.55412 0.28125 0.0
H17 H 0.06889 0.52086 0.29339 0.0
C18 C 0.95979 0.49318 0.28414 0.0
C19 C 0.96079 0.47315 0.26962 0.0
C20 C 0.94142 0.46109 0.25076 0.0
C21 C 0.92048 0.46871 0.24602 0.0
C22 C 0.91953 0.48881 0.26064 0.0
C23 C 0.93917 0.50112 0.27936 0.0
C24 C 0.98109 0.50626 0.30372 0.0
C25 C 0.01098 0.5201 0.29865 0.0
C26 C 0.97246 0.50607 0.32704 0.0
C27 C 0.94179 0.49534 0.33348 0.0
C28 C 0.91979 0.46709 0.3293 0.0
C29 C 0.89098 0.45767 0.33557 0.0
C30 C 0.8838 0.4764 0.34607 0.0
C31 C 0.90599 0.50459 0.35033 0.0
C32 C 0.93466 0.51392 0.34415 0.0
C33 C 0.04504 0.54114 0.35935 0.0
C34 C 0.04402 0.55801 0.37728 0.0
C35 C 0.06285 0.56568 0.39657 0.0
C36 C 0.08299 0.55653 0.39836 0.0
C37 C 0.08436 0.54013 0.38013 0.0
C38 C 0.06554 0.53248 0.36086 0.0
C39 C 0.02353 0.53098 0.33977 0.0
C40 C 0.99376 0.51772 0.34481 0.0
C41 C 0.0322 0.5334 0.31629 0.0
C42 C 0.0628 0.55294 0.30956 0.0
C43 C 0.07572 0.58194 0.31446 0.0
C44 C 0.10392 0.60108 0.30703 0.0
C45 C 0.12007 0.59159 0.29482 0.0
C46 C 0.10711 0.56233 0.29025 0.0
C47 C 0.07859 0.54322 0.29733 0.0
H48 H 0.43713 0.95932 0.52402 0.0
H49 H 0.40786 0.90957 0.53451 0.0
H50 H 0.4662 0.89203 0.49622 0.0
H51 H 0.49634 0.94243 0.48663 0.0
H52 H 0.49212 -0.00143 0.53343 0.0
H53 H 0.43563 0.9477 0.46457 0.0
H54 H 0.42111 0.91376 0.43222 0.0
H55 H 0.50836 0.96096 0.40505 0.0
H56 H 0.52335 0.99412 0.43808 0.0
H57 H 0.55413 0.0782 0.45684 0.0
H58 H 0.5661 0.12559 0.44448 0.0
H59 H 0.49896 0.12026 0.48933 0.0
H60 H 0.48702 0.07307 0.50145 0.0
H61 H 0.50562 0.02919 0.45088 0.0
H62 H 0.56234 0.08043 0.51785 0.0
H63 H 0.57957 0.11221 0.55179 0.0
H64 H 0.49319 0.06564 0.58106 0.0
H65 H 0.47632 0.03375 0.54734 0.0
C66 C 0.46877 0.95456 0.50437 0.0
C67 C 0.44384 0.94484 0.51808 0.0
C68 C 0.42692 0.9163 0.52384 0.0
C69 C 0.43445 0.89674 0.51593 0.0
C70 C 0.45987 0.90659 0.50266 0.0
C71 C 0.47699 0.93532 0.49702 0.0
C72 C 0.48536 0.98479 0.49756 0.0
C73 C 0.495 0.00528 0.51536 0.0
C74 C 0.49017 0.99355 0.47396 0.0
C75 C 0.4808 0.97314 0.45412 0.0
C76 C 0.45184 0.95047 0.45197 0.0
C77 C 0.4435 0.93116 0.43345 0.0
C78 C 0.46372 0.93473 0.41634 0.0
C79 C 0.49243 0.95779 0.41809 0.0
C80 C 0.50094 0.97672 0.4369 0.0
C81 C 0.51999 0.07225 0.48035 0.0
C82 C 0.54214 0.08735 0.4641 0.0
C83 C 0.54887 0.11434 0.45699 0.0
C84 C 0.53352 0.12667 0.46599 0.0
C85 C 0.51152 0.11157 0.48239 0.0
C86 C 0.50473 0.08459 0.48938 0.0
C87 C 0.51131 0.04286 0.48679 0.0
C88 C 0.50325 0.02255 0.46894 0.0
C89 C 0.50802 0.03418 0.51033 0.0
C90 C 0.51806 0.05468 0.53009 0.0
C91 C 0.54707 0.07729 0.53148 0.0
C92 C 0.55686 0.09547 0.55087 0.0
C93 C 0.53781 0.09135 0.56924 0.0
C94 C 0.50859 0.06909 0.56747 0.0
C95 C 0.49887 0.05089 0.54815 0.0
H96 H 0.52941 0.56379 0.69366 0.0
H97 H 0.51625 0.586 0.72429 0.0
H98 H 0.42498 0.52461 0.71169 0.0
H99 H 0.43842 0.50303 0.68066 0.0
H100 H 0.51423 0.50497 0.68941 0.0
H101 H 0.49169 0.57207 0.64927 0.0
H102 H 0.45766 0.58743 0.63789 0.0
H103 H 0.39994 0.50492 0.60715 0.0
H104 H 0.43328 0.48946 0.61938 0.0
H105 H 0.47903 0.46106 0.59394 0.0
H106 H 0.49688 0.4469 0.56061 0.0
H107 H 0.58447 0.49429 0.58913 0.0
H108 H 0.56644 0.50828 0.62253 0.0
H109 H 0.48901 0.50971 0.60669 0.0
H110 H 0.49554 0.43855 0.64161 0.0
H111 H 0.51305 0.40742 0.65367 0.0
H112 H 0.58086 0.47524 0.69538 0.0
H113 H 0.56332 0.50663 0.683 0.0
C114 C 0.48489 0.53195 0.68481 0.0
C115 C 0.50658 0.55511 0.69759 0.0
C116 C 0.49899 0.56769 0.71516 0.0
C117 C 0.46952 0.55716 0.72047 0.0
C118 C 0.44785 0.53361 0.70781 0.0
C119 C 0.45547 0.52113 0.69015 0.0
C120 C 0.49324 0.51945 0.6657 0.0
C121 C 0.50923 0.50642 0.67126 0.0
C122 C 0.4848 0.5195 0.64225 0.0
C123 C 0.46486 0.52954 0.63538 0.0
C124 C 0.47154 0.55726 0.64031 0.0
C125 C 0.45222 0.56607 0.6336 0.0
C126 C 0.42601 0.54734 0.62171 0.0
C127 C 0.41964 0.51971 0.61664 0.0
C128 C 0.43883 0.51093 0.62342 0.0
C129 C 0.52137 0.48574 0.61076 0.0
C130 C 0.50207 0.46836 0.59305 0.0
C131 C 0.51233 0.46035 0.57396 0.0
C132 C 0.54214 0.46963 0.57213 0.0
C133 C 0.56135 0.48654 0.59014 0.0
C134 C 0.55106 0.49457 0.60924 0.0
C135 C 0.51072 0.4958 0.63022 0.0
C136 C 0.49438 0.50843 0.62478 0.0
C137 C 0.51699 0.49352 0.65389 0.0
C138 C 0.52847 0.47513 0.66102 0.0
C139 C 0.51451 0.44695 0.65302 0.0
C140 C 0.52449 0.42912 0.65998 0.0
C141 C 0.54846 0.43895 0.67534 0.0
C142 C 0.56223 0.46706 0.68362 0.0
C143 C 0.55231 0.48501 0.67651 0.0
H144 H 0.03431 0.54747 0.77648 0.0
H145 H 0.06992 0.56811 0.74518 0.0
H146 H 0.09973 0.51027 0.76109 0.0
H147 H 0.06435 0.49009 0.7926 0.0
H148 H 0.98922 0.48998 0.78147 0.0
H149 H 0.07986 0.55948 0.82371 0.0
H150 H 0.131 0.57718 0.8342 0.0
H151 H 0.10658 0.49522 0.8625 0.0
H152 H 0.05575 0.47755 0.85154 0.0
H153 H 0.97451 0.4459 0.8766 0.0
H154 H 0.9386 0.4304 0.90781 0.0
H155 H 0.90441 0.47959 0.87778 0.0
H156 H 0.94068 0.49546 0.84697 0.0
H157 H 0.0181 0.49563 0.86477 0.0
H158 H 0.93675 0.42381 0.82766 0.0
H159 H 0.88664 0.39286 0.8142 0.0
H160 H 0.89165 0.46167 0.77411 0.0
H161 H 0.94209 0.4927 0.78769 0.0
C162 C 0.0469 0.51747 0.78697 0.0
C163 C 0.04857 0.53929 0.7732 0.0
C164 C 0.06885 0.55098 0.75527 0.0
C165 C 0.08773 0.54088 0.75064 0.0
C166 C 0.08588 0.51888 0.76444 0.0
C167 C 0.06561 0.50725 0.7824 0.0
C168 C 0.02517 0.50516 0.80582 0.0
C169 C 0.99549 0.49171 0.79973 0.0
C170 C 0.03335 0.50565 0.82944 0.0
C171 C 0.0641 0.51716 0.8367 0.0
C172 C 0.08559 0.54537 0.83215 0.0
C173 C 0.11473 0.55548 0.83828 0.0
C174 C 0.1228 0.53752 0.84905 0.0
C175 C 0.1011 0.50943 0.85391 0.0
C176 C 0.07203 0.49939 0.84786 0.0
C177 C 0.96018 0.47171 0.85937 0.0
C178 C 0.95934 0.45341 0.8768 0.0
C179 C 0.93867 0.44441 0.89451 0.0
C180 C 0.91867 0.45377 0.89524 0.0
C181 C 0.9197 0.47222 0.87783 0.0
C182 C 0.94025 0.4811 0.86009 0.0
C183 C 0.98208 0.48139 0.84053 0.0
C184 C 0.01172 0.4942 0.84655 0.0
C185 C 0.97383 0.47893 0.81671 0.0
C186 C 0.94303 0.46072 0.80899 0.0
C187 C 0.92695 0.4324 0.81626 0.0
C188 C 0.89829 0.4147 0.80853 0.0
C189 C 0.88512 0.42486 0.79318 0.0
C190 C 0.90129 0.45318 0.78577 0.0
C191 C 0.93004 0.47095 0.79359 0.0
H192 H 0.56536 0.05781 0.02913 0.0
H193 H 0.59603 0.10636 0.04323 0.0
H194 H 0.53991 0.12995 0.00796 0.0
H195 H 0.5089 0.08096 0.99401 0.0
H196 H 0.50988 0.01902 0.03582 0.0
H197 H 0.56803 0.07529 0.97089 0.0
H198 H 0.58463 0.11163 0.94109 0.0
H199 H 0.49797 0.06866 0.91024 0.0
H200 H 0.481 0.03407 0.94147 0.0
H201 H 0.44456 0.94917 0.95419 0.0
H202 H 0.42985 0.90291 0.9369 0.0
H203 H 0.49389 0.89804 0.98001 0.0
H204 H 0.5091 0.94453 0.9966 0.0
H205 H 0.49542 0.99655 0.9512 0.0
H206 H 0.43626 0.94182 0.01472 0.0
H207 H 0.4166 0.90692 0.04614 0.0
H208 H 0.5026 0.94522 0.0775 0.0
H209 H 0.52216 0.97971 0.04593 0.0
C210 C 0.53497 0.06579 0.01035 0.0
C211 C 0.5594 0.07332 0.02465 0.0
C212 C 0.5769 0.10108 0.03274 0.0
C213 C 0.57038 0.12196 0.0267 0.0
C214 C 0.54561 0.11434 0.01269 0.0
C215 C 0.5279 0.0864 0.00473 0.0
C216 C 0.51756 0.03636 0.00119 0.0
C217 C 0.50685 0.01412 0.01728 0.0
C218 C 0.51254 0.02997 0.97702 0.0
C219 C 0.52307 0.05223 0.95881 0.0
C220 C 0.55242 0.07412 0.95808 0.0
C221 C 0.56202 0.09468 0.94067 0.0
C222 C 0.54273 0.09327 0.92306 0.0
C223 C 0.51342 0.07101 0.9237 0.0
C224 C 0.5037 0.05089 0.94143 0.0
C225 C 0.47772 0.95021 0.97687 0.0
C226 C 0.45527 0.93802 0.96 0.0
C227 C 0.4468 0.91153 0.95023 0.0
C228 C 0.46079 0.89686 0.95702 0.0
C229 C 0.48293 0.90894 0.97419 0.0
C230 C 0.49137 0.93537 0.98393 0.0
C231 C 0.48855 0.97932 0.98582 0.0
C232 C 0.49802 0.00147 0.96972 0.0
C233 C 0.49226 0.98571 0.00995 0.0
C234 C 0.48068 0.96332 0.02797 0.0
C235 C 0.45093 0.94241 0.02819 0.0
C236 C 0.43969 0.92265 0.04623 0.0
C237 C 0.45806 0.92338 0.0643 0.0
C238 C 0.48796 0.94392 0.0637 0.0
C239 C 0.49913 0.96377 0.04577 0.0
H240 H 0.4808 0.46841 0.20124 0.0
H241 H 0.49612 0.44818 0.23232 0.0
H242 H 0.58529 0.49827 0.20943 0.0
H243 H 0.57001 0.5189 0.17872 0.0
H244 H 0.49546 0.52222 0.19251 0.0
H245 H 0.51 0.45149 0.15284 0.0
H246 H 0.54007 0.43171 0.14184 0.0
H247 H 0.59984 0.51003 0.10721 0.0
H248 H 0.5705 0.53005 0.11922 0.0
H249 H 0.52912 0.56672 0.09887 0.0
H250 H 0.51204 0.58161 0.06524 0.0
H251 H 0.42387 0.53389 0.09089 0.0
H252 H 0.44121 0.51931 0.12469 0.0
H253 H 0.51599 0.51536 0.10934 0.0
H254 H 0.51115 0.58836 0.1469 0.0
H255 H 0.49385 0.6186 0.16185 0.0
H256 H 0.42788 0.54827 0.20138 0.0
H257 H 0.44466 0.5178 0.18566 0.0
C258 C 0.52417 0.49482 0.1874 0.0
C259 C 0.50368 0.47516 0.203 0.0
C260 C 0.51244 0.46363 0.22074 0.0
C261 C 0.54185 0.47149 0.22315 0.0
C262 C 0.5624 0.49148 0.20773 0.0
C263 C 0.55369 0.50325 0.19017 0.0
C264 C 0.51455 0.50653 0.16835 0.0
C265 C 0.49943 0.52026 0.17426 0.0
C266 C 0.5211 0.50527 0.14466 0.0
C267 C 0.53821 0.49238 0.13713 0.0
C268 C 0.52969 0.46442 0.14302 0.0
C269 C 0.54676 0.45306 0.13651 0.0
C270 C 0.57248 0.46935 0.12374 0.0
C271 C 0.58049 0.49709 0.1174 0.0
C272 C 0.56356 0.50847 0.12404 0.0
C273 C 0.48646 0.5419 0.11429 0.0
C274 C 0.50614 0.55963 0.09733 0.0
C275 C 0.49632 0.56801 0.07807 0.0
C276 C 0.46654 0.5587 0.07526 0.0
C277 C 0.44697 0.54164 0.09264 0.0
C278 C 0.45685 0.53328 0.11196 0.0
C279 C 0.49664 0.53085 0.13345 0.0
C280 C 0.51172 0.51711 0.12756 0.0
C281 C 0.49101 0.53304 0.15719 0.0
C282 C 0.47898 0.5507 0.16494 0.0
C283 C 0.49256 0.57926 0.15839 0.0
C284 C 0.4829 0.59665 0.16721 0.0
C285 C 0.45961 0.58589 0.18293 0.0
C286 C 0.44569 0.55714 0.18914 0.0
C287 C 0.45536 0.53974 0.18028 0.0
C288 C 0.57713 0.32013 0.41569 0.0
O289 O 0.56579 0.33285 0.42708 0.0
O290 O 0.65909 0.39124 0.39284 0.0
Zn291 Zn 0.61648 0.37643 0.39785 0.0
O292 O 0.61057 0.39286 0.42733 0.0
C293 C 0.61379 0.39627 0.35163 0.0
O294 O 0.64011 0.40015 0.35027 0.0
O295 O 0.59787 0.33435 0.40167 0.0
C296 C 0.60822 0.4147 0.42726 0.0
O297 O 0.61067 0.42771 0.40745 0.0
C298 C 0.67957 0.41672 0.39599 0.0
O299 O 0.67342 0.43556 0.40361 0.0
O300 O 0.59917 0.38573 0.37009 0.0
C301 C 0.30193 0.6904 0.55513 0.0
O302 O 0.305 0.671 0.54437 0.0
O303 O 0.28484 0.62681 0.57921 0.0
Zn304 Zn 0.25683 0.64049 0.57421 0.0
O305 O 0.23277 0.62426 0.54482 0.0
C306 C 0.22588 0.60963 0.6148 0.0
O307 O 0.2377 0.59472 0.60892 0.0
O308 O 0.28151 0.68257 0.56978 0.0
C309 C 0.2072 0.60258 0.54434 0.0
O310 O 0.19575 0.58882 0.56376 0.0
C311 C 0.28241 0.60439 0.57065 0.0
O312 O 0.25984 0.58783 0.55724 0.0
O313 O 0.23084 0.6308 0.60241 0.0
C314 C 0.6093 0.30013 0.72301 0.0
O315 O 0.62866 0.29815 0.7105 0.0
O316 O 0.65765 0.28466 0.7524 0.0
Zn317 Zn 0.61474 0.25875 0.74625 0.0
O318 O 0.60689 0.23488 0.71704 0.0
C319 C 0.61258 0.22517 0.7845 0.0
O320 O 0.63797 0.23206 0.77568 0.0
O321 O 0.59852 0.28412 0.74062 0.0
C322 C 0.60412 0.21051 0.71653 0.0
O323 O 0.60693 0.1995 0.73596 0.0
C324 C 0.6784 0.28892 0.73914 0.0
O325 O 0.67255 0.27525 0.71914 0.0
O326 O 0.59748 0.23426 0.77479 0.0
C327 C 0.40232 0.70427 0.89148 0.0
O328 O 0.37926 0.69072 0.87778 0.0
O329 O 0.3521 0.63218 0.88916 0.0
Zn330 Zn 0.39479 0.64856 0.89607 0.0
O331 O 0.40034 0.63288 0.92618 0.0
C332 C 0.40899 0.64265 0.84845 0.0
O333 O 0.39405 0.6549 0.8434 0.0
O334 O 0.41349 0.69079 0.90037 0.0
C335 C 0.40333 0.61141 0.92664 0.0
O336 O 0.40196 0.59845 0.90698 0.0
C337 C 0.33284 0.60614 0.89127 0.0
O338 O 0.34064 0.58835 0.89857 0.0
O339 O 0.41273 0.63862 0.86971 0.0
C340 C 0.70172 0.39112 0.08601 0.0
O341 O 0.69734 0.36832 0.09698 0.0
O342 O 0.71896 0.34336 0.0643 0.0
Zn343 Zn 0.74723 0.38509 0.06944 0.0
O344 O 0.76997 0.39313 0.09955 0.0
C345 C 0.76909 0.38777 0.02303 0.0
O346 O 0.74392 0.36406 0.02036 0.0
O347 O 0.7231 0.40339 0.07215 0.0
C348 C 0.79269 0.39144 0.10184 0.0
O349 O 0.80159 0.38287 0.08406 0.0
C350 C 0.72028 0.32283 0.073 0.0
O351 O 0.74211 0.328 0.08699 0.0
O352 O 0.77509 0.40095 0.04244 0.0
C353 C 0.39401 0.71483 0.24685 0.0
O354 O 0.37104 0.70475 0.26028 0.0
O355 O 0.34217 0.73419 0.24706 0.0
Zn356 Zn 0.38504 0.76216 0.24279 0.0
O357 O 0.39189 0.78459 0.21317 0.0
C358 C 0.38778 0.79808 0.28079 0.0
O359 O 0.36206 0.79129 0.27234 0.0
O360 O 0.40456 0.73948 0.23833 0.0
C361 C 0.39298 0.80816 0.21151 0.0
O362 O 0.38894 0.81954 0.23016 0.0
C363 C 0.32132 0.73792 0.24159 0.0
O364 O 0.32693 0.76193 0.23215 0.0
O365 O 0.4019 0.78798 0.27121 0.0
H366 H 0.14649 0.58962 0.25442 0.0
H367 H 0.16179 0.64085 0.31632 0.0
H368 H 0.19504 0.62444 0.24057 0.0
H369 H 0.20941 0.67622 0.30156 0.0
H370 H 0.27518 0.74497 0.24958 0.0
H371 H 0.22616 0.70887 0.26203 0.0
H372 H 0.25035 0.64527 0.25874 0.0
H373 H 0.29959 0.68137 0.24689 0.0
C374 C 0.16011 0.60809 0.26518 0.0
C375 C 0.14998 0.61233 0.28651 0.0
C376 C 0.1878 0.6281 0.2571 0.0
C377 C 0.20564 0.65301 0.26993 0.0
C378 C 0.19576 0.65732 0.29122 0.0
C379 C 0.16839 0.63708 0.29956 0.0
C380 C 0.26995 0.72325 0.25133 0.0
C381 C 0.29116 0.71594 0.24734 0.0
C382 C 0.24203 0.7027 0.25855 0.0
C383 C 0.2347 0.67444 0.26133 0.0
C384 C 0.25556 0.66694 0.25661 0.0
C385 C 0.28367 0.68758 0.24993 0.0
H386 H 0.53817 0.17022 0.49241 0.0
H387 H 0.54273 0.14666 0.42133 0.0
H388 H 0.547 0.216 0.47909 0.0
H389 H 0.55135 0.1924 0.40794 0.0
H390 H 0.59943 0.28921 0.39782 0.0
H391 H 0.58839 0.24223 0.40949 0.0
H392 H 0.52358 0.23672 0.45719 0.0
H393 H 0.53511 0.28407 0.44592 0.0
C394 C 0.54086 0.17477 0.47391 0.0
C395 C 0.53977 0.15485 0.45792 0.0
C396 C 0.54581 0.20095 0.46626 0.0
C397 C 0.54971 0.2078 0.44243 0.0
C398 C 0.54877 0.18792 0.42644 0.0
C399 C 0.54389 0.16174 0.43411 0.0
C400 C 0.58264 0.2779 0.41066 0.0
C401 C 0.56826 0.29047 0.42105 0.0
C402 C 0.57623 0.25089 0.41727 0.0
C403 C 0.55525 0.23579 0.43439 0.0
C404 C 0.54024 0.24801 0.44425 0.0
C405 C 0.54668 0.27506 0.43766 0.0
H406 H 0.36647 0.51689 0.62365 0.0
H407 H 0.43881 0.59826 0.60307 0.0
H408 H 0.33238 0.53089 0.61012 0.0
H409 H 0.40459 0.61237 0.5898 0.0
H410 H 0.3336 0.63634 0.59462 0.0
H411 H 0.3686 0.62287 0.60664 0.0
H412 H 0.31592 0.54144 0.57279 0.0
H413 H 0.2806 0.55477 0.56089 0.0
C414 C 0.3751 0.5377 0.6161 0.0
C415 C 0.40537 0.55642 0.61435 0.0
C416 C 0.35555 0.54569 0.60834 0.0
C417 C 0.36582 0.57264 0.59878 0.0
C418 C 0.39606 0.59153 0.59728 0.0
C419 C 0.41565 0.58349 0.60496 0.0
C420 C 0.32949 0.61558 0.58965 0.0
C421 C 0.30424 0.59655 0.57688 0.0
C422 C 0.34966 0.60796 0.59644 0.0
C423 C 0.34496 0.58109 0.59071 0.0
C424 C 0.31992 0.56218 0.57768 0.0
C425 C 0.2998 0.56987 0.57075 0.0
H426 H 0.83854 0.38673 0.8187 0.0
H427 H 0.86298 0.41966 0.74892 0.0
H428 H 0.78903 0.35388 0.80499 0.0
H429 H 0.813 0.38741 0.73533 0.0
H430 H 0.72876 0.30304 0.71601 0.0
H431 H 0.77887 0.33645 0.72871 0.0
H432 H 0.74665 0.35486 0.79107 0.0
H433 H 0.69688 0.32126 0.77872 0.0
C434 C 0.83331 0.38696 0.80042 0.0
C435 C 0.85469 0.40574 0.78489 0.0
C436 C 0.80486 0.36834 0.79261 0.0
C437 C 0.79707 0.36807 0.76907 0.0
C438 C 0.8184 0.38693 0.75352 0.0
C439 C 0.84692 0.40562 0.76136 0.0
C440 C 0.73242 0.31423 0.73242 0.0
C441 C 0.70884 0.30937 0.74639 0.0
C442 C 0.76109 0.33349 0.73963 0.0
C443 C 0.76672 0.34821 0.76095 0.0
C444 C 0.74309 0.34352 0.77475 0.0
C445 C 0.71452 0.32433 0.76758 0.0
H446 H 0.4062 0.85233 0.94627 0.0
H447 H 0.49756 0.87933 0.94245 0.0
H448 H 0.39337 0.80691 0.92864 0.0
H449 H 0.48475 0.83398 0.9248 0.0
H450 H 0.4474 0.73747 0.92147 0.0
H451 H 0.46196 0.78457 0.93609 0.0
H452 H 0.39631 0.78553 0.8922 0.0
H453 H 0.38133 0.73814 0.87786 0.0
C454 C 0.42354 0.84867 0.94145 0.0
C455 C 0.45288 0.86937 0.9459 0.0
C456 C 0.41621 0.82267 0.9313 0.0
C457 C 0.43805 0.8168 0.92534 0.0
C458 C 0.46739 0.83765 0.92953 0.0
C459 C 0.47472 0.86362 0.93968 0.0
C460 C 0.43623 0.74781 0.91476 0.0
C461 C 0.4131 0.73397 0.89858 0.0
C462 C 0.44467 0.77488 0.92308 0.0
C463 C 0.43018 0.78875 0.91541 0.0
C464 C 0.4076 0.77523 0.89873 0.0
C465 C 0.39917 0.74815 0.89039 0.0
H466 H 0.63211 0.49677 0.12426 0.0
H467 H 0.55518 0.41557 0.10866 0.0
H468 H 0.66284 0.47782 0.11368 0.0
H469 H 0.58604 0.39653 0.09845 0.0
H470 H 0.65143 0.36644 0.11084 0.0
H471 H 0.61996 0.38526 0.11899 0.0
H472 H 0.67622 0.45986 0.07881 0.0
H473 H 0.70799 0.44112 0.07073 0.0
C474 C 0.62173 0.47496 0.11834 0.0
C475 C 0.59115 0.4577 0.11728 0.0
C476 C 0.63937 0.46412 0.1123 0.0
C477 C 0.62684 0.43572 0.1052 0.0
C478 C 0.59629 0.41843 0.10411 0.0
C479 C 0.57863 0.42932 0.11003 0.0
C480 C 0.65709 0.38683 0.10367 0.0
C481 C 0.68227 0.40234 0.09019 0.0
C482 C 0.63893 0.39751 0.10823 0.0
C483 C 0.64563 0.42402 0.09955 0.0
C484 C 0.67068 0.43947 0.08591 0.0
C485 C 0.68877 0.42868 0.0812 0.0
H486 H 0.37489 0.86547 0.51549 0.0
H487 H 0.45093 0.85883 0.52851 0.0
H488 H 0.34345 0.81585 0.52572 0.0
H489 H 0.41929 0.80889 0.5384 0.0
H490 H 0.3506 0.71359 0.52826 0.0
H491 H 0.38304 0.7634 0.5189 0.0
H492 H 0.33117 0.78567 0.56108 0.0
H493 H 0.29848 0.73575 0.57036 0.0
C494 C 0.38492 0.85348 0.52071 0.0
C495 C 0.41545 0.86619 0.52136 0.0
C496 C 0.36688 0.82505 0.52655 0.0
C497 C 0.37892 0.80857 0.53301 0.0
C498 C 0.40941 0.82106 0.53331 0.0
C499 C 0.42751 0.84961 0.52759 0.0
C500 C 0.3461 0.72909 0.53558 0.0
C501 C 0.3219 0.72072 0.54999 0.0
C502 C 0.36481 0.75763 0.53032 0.0
C503 C 0.35961 0.77839 0.53923 0.0
C504 C 0.33552 0.77007 0.55377 0.0
C505 C 0.3169 0.74152 0.55917 0.0
H506 H 0.56389 0.43155 0.7193 0.0
H507 H 0.55594 0.40264 0.648 0.0
H508 H 0.5792 0.39848 0.7314 0.0
H509 H 0.57042 0.36918 0.66013 0.0
H510 H 0.62752 0.33545 0.68567 0.0
H511 H 0.61392 0.36986 0.67484 0.0
H512 H 0.55801 0.3464 0.73482 0.0
H513 H 0.57195 0.31202 0.74594 0.0
C514 C 0.56558 0.41825 0.70622 0.0
C515 C 0.5587 0.41966 0.68271 0.0
C516 C 0.57401 0.39911 0.71318 0.0
C517 C 0.57596 0.3812 0.69672 0.0
C518 C 0.56939 0.38287 0.67319 0.0
C519 C 0.56084 0.40186 0.66627 0.0
C520 C 0.61232 0.33757 0.6966 0.0
C521 C 0.60073 0.32091 0.71663 0.0
C522 C 0.60444 0.35724 0.69031 0.0
C523 C 0.58482 0.36077 0.70392 0.0
C524 C 0.5734 0.34432 0.72411 0.0
C525 C 0.58122 0.32452 0.73038 0.0
H526 H 0.15282 0.51031 0.84228 0.0
H527 H 0.16264 0.58806 0.86942 0.0
H528 H 0.20348 0.52689 0.85255 0.0
H529 H 0.21328 0.60459 0.87997 0.0
H530 H 0.31051 0.63687 0.87281 0.0
H531 H 0.25998 0.62036 0.8624 0.0
H532 H 0.23473 0.53638 0.88626 0.0
H533 H 0.28547 0.55273 0.89613 0.0
C534 C 0.16576 0.53085 0.85064 0.0
C535 C 0.15374 0.54786 0.85509 0.0
C536 C 0.19477 0.54034 0.85656 0.0
C537 C 0.21243 0.56703 0.86715 0.0
C538 C 0.20041 0.58409 0.87153 0.0
C539 C 0.1714 0.57463 0.86552 0.0
C540 C 0.29419 0.61487 0.87585 0.0
C541 C 0.30203 0.59609 0.88528 0.0
C542 C 0.26517 0.60545 0.87001 0.0
C543 C 0.24328 0.57706 0.87351 0.0
C544 C 0.25111 0.5583 0.88303 0.0
C545 C 0.28018 0.56771 0.88882 0.0
H546 H 0.59475 0.141 0.06995 0.0
H547 H 0.59079 0.17 0.00079 0.0
H548 H 0.62998 0.18957 0.0819 0.0
H549 H 0.62626 0.21855 0.0126 0.0
H550 H 0.67068 0.30544 0.04716 0.0
H551 H 0.63298 0.25718 0.03703 0.0
H552 H 0.68033 0.22527 0.07489 0.0
H553 H 0.71777 0.27362 0.08555 0.0
C554 C 0.60145 0.15779 0.05731 0.0
C555 C 0.59008 0.1517 0.03442 0.0
C556 C 0.6217 0.18559 0.06412 0.0
C557 C 0.6311 0.20794 0.04817 0.0
C558 C 0.61922 0.2019 0.02541 0.0
C559 C 0.59888 0.17409 0.01863 0.0
C560 C 0.67305 0.28814 0.05339 0.0
C561 C 0.69729 0.29339 0.06714 0.0
C562 C 0.65148 0.26046 0.04746 0.0
C563 C 0.65364 0.23735 0.05507 0.0
C564 C 0.67778 0.24258 0.06899 0.0
C565 C 0.69935 0.2703 0.07499 0.0
H566 H 0.49458 0.64008 0.19913 0.0
H567 H 0.40406 0.5745 0.19043 0.0
H568 H 0.47981 0.67137 0.21608 0.0
H569 H 0.38929 0.60583 0.20743 0.0
H570 H 0.37366 0.6597 0.25882 0.0
H571 H 0.39016 0.62858 0.24449 0.0
H572 H 0.45626 0.69731 0.20379 0.0
H573 H 0.44013 0.72856 0.21837 0.0
C574 C 0.47152 0.63243 0.20065 0.0
C575 C 0.45049 0.60484 0.19332 0.0
C576 C 0.46307 0.65035 0.21041 0.0
C577 C 0.43339 0.6411 0.2131 0.0
C578 C 0.41234 0.61344 0.20593 0.0
C579 C 0.4208 0.59551 0.19615 0.0
C580 C 0.3919 0.66826 0.24699 0.0
C581 C 0.40553 0.6966 0.2397 0.0
C582 C 0.4012 0.65036 0.23865 0.0
C583 C 0.42439 0.66042 0.22289 0.0
C584 C 0.4385 0.68897 0.21608 0.0
C585 C 0.42918 0.70685 0.22438 0.0
H586 H 0.84498 0.42719 0.36793 0.0
H587 H 0.85406 0.50401 0.33965 0.0
H588 H 0.79585 0.41265 0.38082 0.0
H589 H 0.80496 0.48945 0.35235 0.0
H590 H 0.72888 0.46925 0.39983 0.0
H591 H 0.77821 0.48318 0.38805 0.0
H592 H 0.74752 0.39729 0.36542 0.0
H593 H 0.69847 0.38323 0.37764 0.0
C594 C 0.83634 0.44079 0.36423 0.0
C595 C 0.8534 0.46678 0.35286 0.0
C596 C 0.80822 0.4325 0.37163 0.0
C597 C 0.79656 0.44999 0.36775 0.0
C598 C 0.81351 0.47577 0.35605 0.0
C599 C 0.8416 0.48407 0.34871 0.0
C600 C 0.7327 0.45332 0.39245 0.0
C601 C 0.70974 0.42516 0.38966 0.0
C602 C 0.76093 0.46134 0.38556 0.0
C603 C 0.76677 0.44136 0.37571 0.0
C604 C 0.74384 0.41312 0.3732 0.0
C605 C 0.71567 0.40511 0.3801 0.0
H606 H 0.14062 0.57216 0.40075 0.0
H607 H 0.06773 0.55561 0.44389 0.0
H608 H 0.17083 0.58149 0.43565 0.0
H609 H 0.09822 0.56606 0.47867 0.0
H610 H 0.15145 0.5583 0.53722 0.0
H611 H 0.12192 0.54641 0.50165 0.0
H612 H 0.19379 0.61672 0.46647 0.0
H613 H 0.22351 0.62824 0.50182 0.0
C614 C 0.13105 0.57053 0.41767 0.0
C615 C 0.10177 0.56317 0.41952 0.0
C616 C 0.14844 0.57613 0.43766 0.0
C617 C 0.13693 0.57447 0.45996 0.0
C618 C 0.10767 0.56717 0.46179 0.0
C619 C 0.0903 0.56158 0.44182 0.0
C620 C 0.16103 0.57109 0.52185 0.0
C621 C 0.1898 0.59427 0.5224 0.0
C622 C 0.14403 0.5644 0.5015 0.0
C623 C 0.15543 0.58073 0.48125 0.0
C624 C 0.18442 0.60353 0.48168 0.0
C625 C 0.20142 0.61021 0.502 0.0
H626 H 0.52421 0.07494 0.61459 0.0
H627 H 0.57576 0.14886 0.57217 0.0
H628 H 0.54103 0.10441 0.64955 0.0
H629 H 0.59373 0.17826 0.60737 0.0
H630 H 0.59223 0.22495 0.67389 0.0
H631 H 0.57704 0.19667 0.6381 0.0
H632 H 0.58424 0.13105 0.67324 0.0
H633 H 0.59868 0.15895 0.70913 0.0
C634 C 0.5391 0.09751 0.61271 0.0
C635 C 0.54849 0.10954 0.59054 0.0
C636 C 0.54909 0.11437 0.63281 0.0
C637 C 0.56885 0.1437 0.6313 0.0
C638 C 0.57832 0.15578 0.60914 0.0
C639 C 0.56826 0.13888 0.58898 0.0
C640 C 0.59068 0.20453 0.67395 0.0
C641 C 0.59649 0.19413 0.69442 0.0
C642 C 0.58212 0.18839 0.65339 0.0
C643 C 0.57926 0.16151 0.65282 0.0
C644 C 0.58571 0.15143 0.67317 0.0
C645 C 0.59417 0.16752 0.69373 0.0
H646 H 0.42384 0.56653 0.7206 0.0
H647 H 0.49696 0.57854 0.76264 0.0
H648 H 0.41008 0.5877 0.75145 0.0
H649 H 0.48419 0.60118 0.7929 0.0
H650 H 0.43338 0.60974 0.85289 0.0
H651 H 0.44831 0.58975 0.82195 0.0
H652 H 0.42438 0.63176 0.77043 0.0
H653 H 0.40856 0.65104 0.80143 0.0
C654 C 0.43701 0.57369 0.73641 0.0
C655 C 0.46146 0.57068 0.73913 0.0
C656 C 0.42935 0.58623 0.75399 0.0
C657 C 0.44603 0.59623 0.7747 0.0
C658 C 0.47062 0.59343 0.77733 0.0
C659 C 0.47818 0.58075 0.75981 0.0
C660 C 0.43143 0.61484 0.83497 0.0
C661 C 0.4197 0.63194 0.82964 0.0
C662 C 0.44014 0.60348 0.81719 0.0
C663 C 0.43753 0.60907 0.79363 0.0
C664 C 0.42626 0.6266 0.78834 0.0
C665 C 0.41737 0.63783 0.80613 0.0
H666 H 0.88514 0.40039 0.91277 0.0
H667 H 0.90278 0.48595 0.92028 0.0
H668 H 0.84912 0.38495 0.94372 0.0
H669 H 0.86624 0.47038 0.95082 0.0
H670 H 0.8226 0.43663 0.02215 0.0
H671 H 0.8588 0.45273 0.99131 0.0
H672 H 0.80058 0.3787 0.95005 0.0
H673 H 0.76452 0.36243 0.9809 0.0
C674 C 0.88137 0.4159 0.92108 0.0
C675 C 0.8968 0.44438 0.91409 0.0
C676 C 0.86054 0.40701 0.93863 0.0
C677 C 0.85478 0.42643 0.94967 0.0
C678 C 0.87034 0.45495 0.94278 0.0
C679 C 0.89105 0.46381 0.92513 0.0
C680 C 0.81748 0.42384 0.00647 0.0
C681 C 0.79068 0.39822 0.00401 0.0
C682 C 0.83818 0.43312 0.98876 0.0
C683 C 0.83258 0.41693 0.96828 0.0
C684 C 0.80569 0.39146 0.96576 0.0
C685 C 0.78495 0.38224 0.98339 0.0
H686 H 0.4804 0.89385 0.08517 0.0
H687 H 0.40876 0.90884 0.08879 0.0
H688 H 0.46272 0.86453 0.12002 0.0
H689 H 0.39071 0.87901 0.12337 0.0
H690 H 0.39381 0.85705 0.20115 0.0
H691 H 0.40755 0.88292 0.16446 0.0
H692 H 0.42143 0.81901 0.13402 0.0
H693 H 0.40794 0.7932 0.17075 0.0
C694 C 0.46076 0.89071 0.09333 0.0
C695 C 0.44602 0.90371 0.0843 0.0
C696 C 0.4505 0.87373 0.11316 0.0
C697 C 0.42537 0.86954 0.12446 0.0
C698 C 0.41029 0.88208 0.11516 0.0
C699 C 0.42045 0.8989 0.09523 0.0
C700 C 0.39965 0.84843 0.18661 0.0
C701 C 0.39991 0.82313 0.18892 0.0
C702 C 0.40734 0.86317 0.16554 0.0
C703 C 0.41561 0.85301 0.14637 0.0
C704 C 0.41545 0.8275 0.14857 0.0
C705 C 0.40759 0.81267 0.16958 0.0
H706 H 0.57748 0.44991 0.21887 0.0
H707 H 0.52704 0.46463 0.26918 0.0
H708 H 0.59337 0.42979 0.24935 0.0
H709 H 0.54351 0.44526 0.2999 0.0
H710 H 0.55843 0.38672 0.3462 0.0
H711 H 0.53983 0.40309 0.31468 0.0
H712 H 0.62463 0.44415 0.2825 0.0
H713 H 0.64279 0.42695 0.31343 0.0
C714 C 0.57 0.44902 0.23652 0.0
C715 C 0.55113 0.45891 0.24169 0.0
C716 C 0.57914 0.43756 0.25402 0.0
C717 C 0.56986 0.436 0.27717 0.0
C718 C 0.55074 0.4457 0.28224 0.0
C719 C 0.54138 0.45691 0.26467 0.0
C720 C 0.57301 0.3991 0.3323 0.0
C721 C 0.60207 0.40549 0.3323 0.0
C722 C 0.56241 0.40866 0.3143 0.0
C723 C 0.58071 0.42499 0.296 0.0
C724 C 0.60973 0.43121 0.29603 0.0
C725 C 0.62023 0.42147 0.31389 0.0
H726 H 0.43822 0.87726 0.41771 0.0
H727 H 0.4687 0.94741 0.37015 0.0
H728 H 0.42179 0.84411 0.38446 0.0
H729 H 0.45162 0.91424 0.33698 0.0
H730 H 0.37528 0.83824 0.29335 0.0
H731 H 0.39578 0.87176 0.32598 0.0
H732 H 0.4488 0.83675 0.34591 0.0
H733 H 0.42887 0.80353 0.31273 0.0
C734 C 0.4414 0.8855 0.40013 0.0
C735 C 0.45464 0.91478 0.39638 0.0
C736 C 0.4322 0.86664 0.38121 0.0
C737 C 0.43551 0.87675 0.35829 0.0
C738 C 0.44886 0.90602 0.35454 0.0
C739 C 0.45865 0.92492 0.37343 0.0
C740 C 0.39135 0.83771 0.30464 0.0
C741 C 0.40048 0.81827 0.30054 0.0
C742 C 0.40314 0.85696 0.32321 0.0
C743 C 0.42381 0.85674 0.33834 0.0
C744 C 0.43283 0.83721 0.33443 0.0
C745 C 0.42152 0.81834 0.31547 0.0
H746 H 0.52655 0.46952 0.52658 0.0
H747 H 0.58289 0.45357 0.57018 0.0
H748 H 0.54395 0.45706 0.49212 0.0
H749 H 0.60117 0.4421 0.53551 0.0
H750 H 0.59881 0.39086 0.47056 0.0
H751 H 0.58413 0.40499 0.50574 0.0
H752 H 0.5873 0.47472 0.4685 0.0
H753 H 0.60143 0.46029 0.43318 0.0
C754 C 0.54263 0.4633 0.52881 0.0
C755 C 0.5532 0.46237 0.55115 0.0
C756 C 0.5529 0.45653 0.50901 0.0
C757 C 0.57403 0.44867 0.51104 0.0
C758 C 0.58471 0.44784 0.53337 0.0
C759 C 0.57445 0.45467 0.55321 0.0
C760 C 0.59655 0.40931 0.4699 0.0
C761 C 0.60114 0.42436 0.44901 0.0
C762 C 0.58827 0.4175 0.49012 0.0
C763 C 0.5844 0.4409 0.48991 0.0
C764 C 0.58964 0.45632 0.46915 0.0
C765 C 0.59791 0.44814 0.44893 0.0
H766 H 0.07925 0.55611 0.7071 0.0
H767 H 0.14423 0.55295 0.75029 0.0
H768 H 0.11359 0.57462 0.67497 0.0
H769 H 0.17842 0.57116 0.71803 0.0
H770 H 0.21524 0.56857 0.64641 0.0
H771 H 0.18268 0.55361 0.67958 0.0
H772 H 0.16039 0.6168 0.66309 0.0
H773 H 0.19289 0.63171 0.62957 0.0
C774 C 0.10096 0.55968 0.70985 0.0
C775 C 0.10894 0.55293 0.73126 0.0
C776 C 0.12063 0.57028 0.69142 0.0
C777 C 0.14868 0.57427 0.69395 0.0
C778 C 0.15681 0.56791 0.71545 0.0
C779 C 0.13719 0.55741 0.7339 0.0
C780 C 0.20349 0.57937 0.64985 0.0
C781 C 0.20663 0.60131 0.63531 0.0
C782 C 0.18496 0.57089 0.66897 0.0
C783 C 0.16902 0.58406 0.67399 0.0
C784 C 0.17222 0.6061 0.65954 0.0
C785 C 0.19093 0.61472 0.64043 0.0
H786 H 0.51291 0.11441 0.8994 0.0
H787 H 0.59658 0.11997 0.90244 0.0
H788 H 0.52885 0.14548 0.86588 0.0
H789 H 0.61347 0.15328 0.87063 0.0
H790 H 0.6267 0.18635 0.79752 0.0
H791 H 0.60936 0.15504 0.83086 0.0
H792 H 0.55758 0.19109 0.85174 0.0
H793 H 0.5737 0.22118 0.81726 0.0
C794 C 0.53477 0.12232 0.89307 0.0
C795 C 0.55326 0.11425 0.90367 0.0
C796 C 0.54413 0.14066 0.87401 0.0
C797 C 0.57247 0.15191 0.86526 0.0
C798 C 0.59126 0.1446 0.87639 0.0
C799 C 0.5817 0.12582 0.89509 0.0
C800 C 0.61156 0.18753 0.80923 0.0
C801 C 0.60159 0.20622 0.80485 0.0
C802 C 0.60177 0.16972 0.82854 0.0
C803 C 0.58226 0.17062 0.84435 0.0
C804 C 0.57226 0.18941 0.83987 0.0
C805 C 0.58159 0.20681 0.82018 0.0
H806 H 0.4834 0.55889 0.03042 0.0
H807 H 0.42539 0.57421 0.07141 0.0
H808 H 0.46663 0.57087 0.9951 0.0
H809 H 0.4077 0.58516 0.0358 0.0
H810 H 0.41088 0.63542 0.96996 0.0
H811 H 0.4248 0.62187 0.00609 0.0
H812 H 0.42397 0.55247 0.96997 0.0
H813 H 0.41066 0.56635 0.93374 0.0
C814 C 0.4671 0.56489 0.0319 0.0
C815 C 0.45589 0.56579 0.05377 0.0
C816 C 0.45718 0.57137 0.01159 0.0
C817 C 0.43573 0.57886 0.0126 0.0
C818 C 0.42441 0.57969 0.03445 0.0
C819 C 0.43435 0.57317 0.05482 0.0
C820 C 0.41351 0.61717 0.96975 0.0
C821 C 0.40986 0.60208 0.94892 0.0
C822 C 0.42133 0.60931 0.99051 0.0
C823 C 0.42567 0.58619 0.9909 0.0
C824 C 0.42129 0.57069 0.97018 0.0
C825 C 0.41349 0.57855 0.94943 0.0
H826 H 0.89409 0.41416 0.22906 0.0
H827 H 0.90101 0.49488 0.21652 0.0
H828 H 0.86254 0.39436 0.19467 0.0
H829 H 0.86872 0.47468 0.18267 0.0
H830 H 0.78628 0.41957 0.13842 0.0
H831 H 0.81611 0.43717 0.17387 0.0
H832 H 0.86772 0.4021 0.1507 0.0
H833 H 0.83795 0.38449 0.1151 0.0
C834 C 0.88901 0.42774 0.21898 0.0
C835 C 0.90023 0.4562 0.22561 0.0
C836 C 0.87085 0.41632 0.19934 0.0
C837 C 0.86317 0.43298 0.18604 0.0
C838 C 0.87398 0.46125 0.19279 0.0
C839 C 0.89241 0.47277 0.21226 0.0
C840 C 0.80387 0.41544 0.14091 0.0
C841 C 0.80982 0.4007 0.12389 0.0
C842 C 0.82103 0.42567 0.16116 0.0
C843 C 0.84428 0.4211 0.16498 0.0
C844 C 0.84981 0.40577 0.14827 0.0
C845 C 0.83285 0.39581 0.12785 0.0
loop_
_geom_bond_atom_site_label_1
_geom_bond_atom_site_label_2
_geom_bond_distance
_geom_bond_site_symmetry_2
_ccdc_geom_bond_type
H0 C19 0.949 . S
H1 C20 0.950 . S
H2 C22 0.950 . S
H3 C23 0.950 . S
H4 C25 0.950 . S
H5 C28 0.950 . S
H6 C29 0.950 . S
H7 C31 0.951 . S
H8 C32 0.949 . S
H9 C34 0.949 . S
H10 C35 0.950 . S
H11 C37 0.950 . S
H12 C38 0.950 . S
H13 C40 0.950 . S
H14 C43 0.950 . S
H15 C44 0.950 . S
H16 C46 0.951 . S
H17 C47 0.949 . S
C18 C19 1.376 . S
C18 C23 1.386 . S
C18 C24 1.483 . S
C19 H0 0.949 . S
C19 C18 1.376 . S
C19 C20 1.397 . S
C20 H1 0.950 . S
C20 C19 1.397 . S
C20 C21 1.391 . S
C21 C20 1.391 . S
C21 C22 1.405 . S
C22 H2 0.950 . S
C22 C21 1.405 . S
C22 C23 1.367 . S
C23 H3 0.950 . S
C23 C18 1.386 . S
C23 C22 1.367 . S
C24 C18 1.483 . S
C24 C25 1.382 1_655 S
C24 C26 1.403 . S
C25 H4 0.950 . S
C25 C24 1.382 1_455 S
C25 C41 1.411 . S
C26 C24 1.403 . S
C26 C27 1.489 . S
C26 C40 1.411 . S
C27 C26 1.489 . S
C27 C28 1.383 . S
C27 C32 1.382 . S
C28 H5 0.950 . S
C28 C27 1.383 . S
C28 C29 1.395 . S
C29 H6 0.950 . S
C29 C28 1.395 . S
C29 C30 1.288 . S
C30 C29 1.288 . S
C30 C31 1.392 . S
C31 H7 0.951 . S
C31 C30 1.392 . S
C31 C32 1.392 . S
C32 H8 0.949 . S
C32 C27 1.382 . S
C32 C31 1.392 . S
C33 C34 1.376 . S
C33 C38 1.386 . S
C33 C39 1.483 . S
C34 H9 0.949 . S
C34 C33 1.376 . S
C34 C35 1.397 . S
C35 H10 0.950 . S
C35 C34 1.397 . S
C35 C36 1.391 . S
C36 C35 1.391 . S
C36 C37 1.405 . S
C37 H11 0.950 . S
C37 C36 1.405 . S
C37 C38 1.367 . S
C38 H12 0.950 . S
C38 C33 1.386 . S
C38 C37 1.367 . S
C39 C33 1.483 . S
C39 C40 1.382 1_455 S
C39 C41 1.403 . S
C40 H13 0.950 . S
C40 C26 1.411 . S
C40 C39 1.382 1_655 S
C41 C25 1.411 . S
C41 C39 1.403 . S
C41 C42 1.489 . S
C42 C41 1.489 . S
C42 C43 1.383 . S
C42 C47 1.382 . S
C43 H14 0.950 . S
C43 C42 1.383 . S
C43 C44 1.395 . S
C44 H15 0.950 . S
C44 C43 1.395 . S
C44 C45 1.288 . S
C45 C44 1.288 . S
C45 C46 1.392 . S
C46 H16 0.951 . S
C46 C45 1.392 . S
C46 C47 1.392 . S
C47 H17 0.949 . S
C47 C42 1.382 . S
C47 C46 1.392 . S
H48 C67 0.949 . S
H49 C68 0.950 . S
H50 C70 0.950 . S
H51 C71 0.950 . S
H52 C73 0.950 1_565 S
H53 C76 0.950 . S
H54 C77 0.950 . S
H55 C79 0.951 . S
H56 C80 0.949 . S
H57 C82 0.949 . S
H58 C83 0.950 . S
H59 C85 0.950 . S
H60 C86 0.950 . S
H61 C88 0.950 . S
H62 C91 0.950 . S
H63 C92 0.950 . S
H64 C94 0.951 . S
H65 C95 0.949 . S
C66 C67 1.376 . S
C66 C71 1.386 . S
C66 C72 1.483 . S
C67 H48 0.949 . S
C67 C66 1.376 . S
C67 C68 1.397 . S
C68 H49 0.950 . S
C68 C67 1.397 . S
C68 C69 1.391 . S
C69 C68 1.391 . S
C69 C70 1.405 . S
C70 H50 0.950 . S
C70 C69 1.405 . S
C70 C71 1.367 . S
C71 H51 0.950 . S
C71 C66 1.386 . S
C71 C70 1.367 . S
C72 C66 1.483 . S
C72 C73 1.382 1_565 S
C72 C74 1.403 . S
C73 H52 0.950 1_545 S
C73 C72 1.382 1_545 S
C73 C89 1.411 . S
C74 C72 1.403 . S
C74 C75 1.489 . S
C74 C88 1.411 1_565 S
C75 C74 1.489 . S
C75 C76 1.383 . S
C75 C80 1.382 . S
C76 H53 0.950 . S
C76 C75 1.383 . S
C76 C77 1.395 . S
C77 H54 0.950 . S
C77 C76 1.395 . S
C77 C78 1.288 . S
C78 C77 1.288 . S
C78 C79 1.392 . S
C79 H55 0.951 . S
C79 C78 1.392 . S
C79 C80 1.392 . S
C80 H56 0.949 . S
C80 C75 1.382 . S
C80 C79 1.392 . S
C81 C82 1.376 . S
C81 C86 1.386 . S
C81 C87 1.483 . S
C82 H57 0.949 . S
C82 C81 1.376 . S
C82 C83 1.397 . S
C83 H58 0.950 . S
C83 C82 1.397 . S
C83 C84 1.391 . S
C84 C83 1.391 . S
C84 C85 1.405 . S
C85 H59 0.950 . S
C85 C84 1.405 . S
C85 C86 1.367 . S
C86 H60 0.950 . S
C86 C81 1.386 . S
C86 C85 1.367 . S
C87 C81 1.483 . S
C87 C88 1.382 . S
C87 C89 1.403 . S
C88 H61 0.950 . S
C88 C74 1.411 1_545 S
C88 C87 1.382 . S
C89 C73 1.411 . S
C89 C87 1.403 . S
C89 C90 1.489 . S
C90 C89 1.489 . S
C90 C91 1.383 . S
C90 C95 1.382 . S
C91 H62 0.950 . S
C91 C90 1.383 . S
C91 C92 1.395 . S
C92 H63 0.950 . S
C92 C91 1.395 . S
C92 C93 1.288 . S
C93 C92 1.288 . S
C93 C94 1.392 . S
C94 H64 0.951 . S
C94 C93 1.392 . S
C94 C95 1.392 . S
C95 H65 0.949 . S
C95 C90 1.382 . S
C95 C94 1.392 . S
H96 C115 0.949 . S
H97 C116 0.950 . S
H98 C118 0.950 . S
H99 C119 0.950 . S
H100 C121 0.950 . S
H101 C124 0.950 . S
H102 C125 0.950 . S
H103 C127 0.951 . S
H104 C128 0.949 . S
H105 C130 0.949 . S
H106 C131 0.950 . S
H107 C133 0.950 . S
H108 C134 0.950 . S
H109 C136 0.950 . S
H110 C139 0.950 . S
H111 C140 0.950 . S
H112 C142 0.951 . S
H113 C143 0.949 . S
C114 C115 1.376 . S
C114 C119 1.386 . S
C114 C120 1.483 . S
C115 H96 0.949 . S
C115 C114 1.376 . S
C115 C116 1.397 . S
C116 H97 0.950 . S
C116 C115 1.397 . S
C116 C117 1.391 . S
C117 C116 1.391 . S
C117 C118 1.405 . S
C118 H98 0.950 . S
C118 C117 1.405 . S
C118 C119 1.367 . S
C119 H99 0.950 . S
C119 C114 1.386 . S
C119 C118 1.367 . S
C120 C114 1.483 . S
C120 C121 1.382 . S
C120 C122 1.403 . S
C121 H100 0.950 . S
C121 C120 1.382 . S
C121 C137 1.411 . S
C122 C120 1.403 . S
C122 C123 1.489 . S
C122 C136 1.411 . S
C123 C122 1.489 . S
C123 C124 1.383 . S
C123 C128 1.382 . S
C124 H101 0.950 . S
C124 C123 1.383 . S
C124 C125 1.395 . S
C125 H102 0.950 . S
C125 C124 1.395 . S
C125 C126 1.288 . S
C126 C125 1.288 . S
C126 C127 1.392 . S
C127 H103 0.951 . S
C127 C126 1.392 . S
C127 C128 1.392 . S
C128 H104 0.949 . S
C128 C123 1.382 . S
C128 C127 1.392 . S
C129 C130 1.376 . S
C129 C134 1.386 . S
C129 C135 1.483 . S
C130 H105 0.949 . S
C130 C129 1.376 . S
C130 C131 1.397 . S
C131 H106 0.950 . S
C131 C130 1.397 . S
C131 C132 1.391 . S
C132 C131 1.391 . S
C132 C133 1.405 . S
C133 H107 0.950 . S
C133 C132 1.405 . S
C133 C134 1.367 . S
C134 H108 0.950 . S
C134 C129 1.386 . S
C134 C133 1.367 . S
C135 C129 1.483 . S
C135 C136 1.382 . S
C135 C137 1.403 . S
C136 H109 0.950 . S
C136 C122 1.411 . S
C136 C135 1.382 . S
C137 C121 1.411 . S
C137 C135 1.403 . S
C137 C138 1.489 . S
C138 C137 1.489 . S
C138 C139 1.383 . S
C138 C143 1.382 . S
C139 H110 0.950 . S
C139 C138 1.383 . S
C139 C140 1.395 . S
C140 H111 0.950 . S
C140 C139 1.395 . S
C140 C141 1.288 . S
C141 C140 1.288 . S
C141 C142 1.392 . S
C142 H112 0.951 . S
C142 C141 1.392 . S
C142 C143 1.392 . S
C143 H113 0.949 . S
C143 C138 1.382 . S
C143 C142 1.392 . S
H144 C163 0.949 . S
H145 C164 0.950 . S
H146 C166 0.950 . S
H147 C167 0.950 . S
H148 C169 0.950 . S
H149 C172 0.950 . S
H150 C173 0.950 . S
H151 C175 0.951 . S
H152 C176 0.949 . S
H153 C178 0.949 . S
H154 C179 0.950 . S
H155 C181 0.950 . S
H156 C182 0.950 . S
H157 C184 0.950 . S
H158 C187 0.950 . S
H159 C188 0.950 . S
H160 C190 0.951 . S
H161 C191 0.949 . S
C162 C163 1.376 . S
C162 C167 1.386 . S
C162 C168 1.483 . S
C163 H144 0.949 . S
C163 C162 1.376 . S
C163 C164 1.397 . S
C164 H145 0.950 . S
C164 C163 1.397 . S
C164 C165 1.391 . S
C165 C164 1.391 . S
C165 C166 1.405 . S
C166 H146 0.950 . S
C166 C165 1.405 . S
C166 C167 1.367 . S
C167 H147 0.950 . S
C167 C162 1.386 . S
C167 C166 1.367 . S
C168 C162 1.483 . S
C168 C169 1.382 1_455 S
C168 C170 1.403 . S
C169 H148 0.950 . S
C169 C168 1.382 1_655 S
C169 C185 1.411 . S
C170 C168 1.403 . S
C170 C171 1.489 . S
C170 C184 1.411 . S
C171 C170 1.489 . S
C171 C172 1.383 . S
C171 C176 1.382 . S
C172 H149 0.950 . S
C172 C171 1.383 . S
C172 C173 1.395 . S
C173 H150 0.950 . S
C173 C172 1.395 . S
C173 C174 1.288 . S
C174 C173 1.288 . S
C174 C175 1.392 . S
C175 H151 0.951 . S
C175 C174 1.392 . S
C175 C176 1.392 . S
C176 H152 0.949 . S
C176 C171 1.382 . S
C176 C175 1.392 . S
C177 C178 1.376 . S
C177 C182 1.386 . S
C177 C183 1.483 . S
C178 H153 0.949 . S
C178 C177 1.376 . S
C178 C179 1.397 . S
C179 H154 0.950 . S
C179 C178 1.397 . S
C179 C180 1.391 . S
C180 C179 1.391 . S
C180 C181 1.405 . S
C181 H155 0.950 . S
C181 C180 1.405 . S
C181 C182 1.367 . S
C182 H156 0.950 . S
C182 C177 1.386 . S
C182 C181 1.367 . S
C183 C177 1.483 . S
C183 C184 1.382 1_655 S
C183 C185 1.403 . S
C184 H157 0.950 . S
C184 C170 1.411 . S
C184 C183 1.382 1_455 S
C185 C169 1.411 . S
C185 C183 1.403 . S
C185 C186 1.489 . S
C186 C185 1.489 . S
C186 C187 1.383 . S
C186 C191 1.382 . S
C187 H158 0.950 . S
C187 C186 1.383 . S
C187 C188 1.395 . S
C188 H159 0.950 . S
C188 C187 1.395 . S
C188 C189 1.288 . S
C189 C188 1.288 . S
C189 C190 1.392 . S
C190 H160 0.951 . S
C190 C189 1.392 . S
C190 C191 1.392 . S
C191 H161 0.949 . S
C191 C186 1.382 . S
C191 C190 1.392 . S
H192 C211 0.949 . S
H193 C212 0.950 . S
H194 C214 0.950 . S
H195 C215 0.950 . S
H196 C217 0.950 . S
H197 C220 0.950 . S
H198 C221 0.950 . S
H199 C223 0.951 . S
H200 C224 0.949 . S
H201 C226 0.949 . S
H202 C227 0.950 . S
H203 C229 0.950 . S
H204 C230 0.950 . S
H205 C232 0.950 1_565 S
H206 C235 0.950 . S
H207 C236 0.950 . S
H208 C238 0.951 . S
H209 C239 0.949 . S
C210 C211 1.376 . S
C210 C215 1.386 1_554 S
C210 C216 1.483 1_554 S
C211 H192 0.949 . S
C211 C210 1.376 . S
C211 C212 1.397 . S
C212 H193 0.950 . S
C212 C211 1.397 . S
C212 C213 1.391 . S
C213 C212 1.391 . S
C213 C214 1.405 . S
C214 H194 0.950 . S
C214 C213 1.405 . S
C214 C215 1.367 1_554 S
C215 H195 0.950 . S
C215 C210 1.386 1_556 S
C215 C214 1.367 1_556 S
C216 C210 1.483 1_556 S
C216 C217 1.382 1_556 S
C216 C218 1.403 . S
C217 H196 0.950 . S
C217 C216 1.382 1_554 S
C217 C233 1.411 1_545 S
C218 C216 1.403 . S
C218 C219 1.489 . S
C218 C232 1.411 . S
C219 C218 1.489 . S
C219 C220 1.383 . S
C219 C224 1.382 . S
C220 H197 0.950 . S
C220 C219 1.383 . S
C220 C221 1.395 . S
C221 H198 0.950 . S
C221 C220 1.395 . S
C221 C222 1.288 . S
C222 C221 1.288 . S
C222 C223 1.392 . S
C223 H199 0.951 . S
C223 C222 1.392 . S
C223 C224 1.392 . S
C224 H200 0.949 . S
C224 C219 1.382 . S
C224 C223 1.392 . S
C225 C226 1.376 . S
C225 C230 1.386 . S
C225 C231 1.483 . S
C226 H201 0.949 . S
C226 C225 1.376 . S
C226 C227 1.397 . S
C227 H202 0.950 . S
C227 C226 1.397 . S
C227 C228 1.391 . S
C228 C227 1.391 . S
C228 C229 1.405 . S
C229 H203 0.950 . S
C229 C228 1.405 . S
C229 C230 1.367 . S
C230 H204 0.950 . S
C230 C225 1.386 . S
C230 C229 1.367 . S
C231 C225 1.483 . S
C231 C232 1.382 1_565 S
C231 C233 1.403 1_556 S
C232 H205 0.950 1_545 S
C232 C218 1.411 . S
C232 C231 1.382 1_545 S
C233 C217 1.411 1_565 S
C233 C231 1.403 1_554 S
C233 C234 1.489 . S
C234 C233 1.489 . S
C234 C235 1.383 . S
C234 C239 1.382 . S
C235 H206 0.950 . S
C235 C234 1.383 . S
C235 C236 1.395 . S
C236 H207 0.950 . S
C236 C235 1.395 . S
C236 C237 1.288 . S
C237 C236 1.288 . S
C237 C238 1.392 . S
C238 H208 0.951 . S
C238 C237 1.392 . S
C238 C239 1.392 . S
C239 H209 0.949 . S
C239 C234 1.382 . S
C239 C238 1.392 . S
H240 C259 0.949 . S
H241 C260 0.950 . S
H242 C262 0.950 . S
H243 C263 0.950 . S
H244 C265 0.950 . S
H245 C268 0.950 . S
H246 C269 0.950 . S
H247 C271 0.951 . S
H248 C272 0.949 . S
H249 C274 0.949 . S
H250 C275 0.950 . S
H251 C277 0.950 . S
H252 C278 0.950 . S
H253 C280 0.950 . S
H254 C283 0.950 . S
H255 C284 0.950 . S
H256 C286 0.951 . S
H257 C287 0.949 . S
C258 C259 1.376 . S
C258 C263 1.386 . S
C258 C264 1.483 . S
C259 H240 0.949 . S
C259 C258 1.376 . S
C259 C260 1.397 . S
C260 H241 0.950 . S
C260 C259 1.397 . S
C260 C261 1.391 . S
C261 C260 1.391 . S
C261 C262 1.405 . S
C262 H242 0.950 . S
C262 C261 1.405 . S
C262 C263 1.367 . S
C263 H243 0.950 . S
C263 C258 1.386 . S
C263 C262 1.367 . S
C264 C258 1.483 . S
C264 C265 1.382 . S
C264 C266 1.403 . S
C265 H244 0.950 . S
C265 C264 1.382 . S
C265 C281 1.411 . S
C266 C264 1.403 . S
C266 C267 1.489 . S
C266 C280 1.411 . S
C267 C266 1.489 . S
C267 C268 1.383 . S
C267 C272 1.382 . S
C268 H245 0.950 . S
C268 C267 1.383 . S
C268 C269 1.395 . S
C269 H246 0.950 . S
C269 C268 1.395 . S
C269 C270 1.288 . S
C270 C269 1.288 . S
C270 C271 1.392 . S
C271 H247 0.951 . S
C271 C270 1.392 . S
C271 C272 1.392 . S
C272 H248 0.949 . S
C272 C267 1.382 . S
C272 C271 1.392 . S
C273 C274 1.376 . S
C273 C278 1.386 . S
C273 C279 1.483 . S
C274 H249 0.949 . S
C274 C273 1.376 . S
C274 C275 1.397 . S
C275 H250 0.950 . S
C275 C274 1.397 . S
C275 C276 1.391 . S
C276 C275 1.391 . S
C276 C277 1.405 . S
C277 H251 0.950 . S
C277 C276 1.405 . S
C277 C278 1.367 . S
C278 H252 0.950 . S
C278 C273 1.386 . S
C278 C277 1.367 . S
C279 C273 1.483 . S
C279 C280 1.382 . S
C279 C281 1.403 . S
C280 H253 0.950 . S
C280 C266 1.411 . S
C280 C279 1.382 . S
C281 C265 1.411 . S
C281 C279 1.403 . S
C281 C282 1.489 . S
C282 C281 1.489 . S
C282 C283 1.383 . S
C282 C287 1.382 . S
C283 H254 0.950 . S
C283 C282 1.383 . S
C283 C284 1.395 . S
C284 H255 0.950 . S
C284 C283 1.395 . S
C284 C285 1.288 . S
C285 C284 1.288 . S
C285 C286 1.392 . S
C286 H256 0.951 . S
C286 C285 1.392 . S
C286 C287 1.392 . S
C287 H257 0.949 . S
C287 C282 1.382 . S
C287 C286 1.392 . S
C288 O289 1.160 . S
C288 O295 1.185 . S
O289 C288 1.160 . S
O290 Zn291 1.899 . S
O290 C298 1.284 . S
Zn291 O290 1.899 . S
Zn291 O292 2.032 . S
Zn291 O295 2.086 . S
Zn291 O300 1.977 . S
O292 Zn291 2.032 . S
O292 C296 1.278 . S
C293 O294 1.203 . S
C293 O300 1.267 . S
O294 C293 1.203 . S
O295 C288 1.185 . S
O295 Zn291 2.086 . S
C296 O292 1.278 . S
C296 O297 1.211 . S
O297 C296 1.211 . S
C298 O290 1.284 . S
C298 O299 1.273 . S
O299 C298 1.273 . S
O300 Zn291 1.977 . S
O300 C293 1.267 . S
C301 O302 1.160 . S
C301 O308 1.185 . S
O302 C301 1.160 . S
O303 Zn304 1.899 . S
O303 C311 1.284 . S
Zn304 O303 1.899 . S
Zn304 O305 2.032 . S
Zn304 O308 2.086 . S
Zn304 O313 1.977 . S
O305 Zn304 2.032 . S
O305 C309 1.278 . S
C306 O307 1.203 . S
C306 O313 1.267 . S
O307 C306 1.203 . S
O308 C301 1.185 . S
O308 Zn304 2.086 . S
C309 O305 1.278 . S
C309 O310 1.211 . S
O310 C309 1.211 . S
C311 O303 1.284 . S
C311 O312 1.273 . S
O312 C311 1.273 . S
O313 Zn304 1.977 . S
O313 C306 1.267 . S
C314 O315 1.160 . S
C314 O321 1.185 . S
O315 C314 1.160 . S
O316 Zn317 1.899 . S
O316 C324 1.284 . S
Zn317 O316 1.899 . S
Zn317 O318 2.032 . S
Zn317 O321 2.086 . S
Zn317 O326 1.977 . S
O318 Zn317 2.032 . S
O318 C322 1.278 . S
C319 O320 1.203 . S
C319 O326 1.267 . S
O320 C319 1.203 . S
O321 C314 1.185 . S
O321 Zn317 2.086 . S
C322 O318 1.278 . S
C322 O323 1.211 . S
O323 C322 1.211 . S
C324 O316 1.284 . S
C324 O325 1.273 . S
O325 C324 1.273 . S
O326 Zn317 1.977 . S
O326 C319 1.267 . S
C327 O328 1.160 . S
C327 O334 1.185 . S
O328 C327 1.160 . S
O329 Zn330 1.899 . S
O329 C337 1.284 . S
Zn330 O329 1.899 . S
Zn330 O331 2.032 . S
Zn330 O334 2.086 . S
Zn330 O339 1.977 . S
O331 Zn330 2.032 . S
O331 C335 1.278 . S
C332 O333 1.203 . S
C332 O339 1.267 . S
O333 C332 1.203 . S
O334 C327 1.185 . S
O334 Zn330 2.086 . S
C335 O331 1.278 . S
C335 O336 1.211 . S
O336 C335 1.211 . S
C337 O329 1.284 . S
C337 O338 1.273 . S
O338 C337 1.273 . S
O339 Zn330 1.977 . S
O339 C332 1.267 . S
C340 O341 1.160 . S
C340 O347 1.185 . S
O341 C340 1.160 . S
O342 Zn343 1.899 . S
O342 C350 1.284 . S
Zn343 O342 1.899 . S
Zn343 O344 2.032 . S
Zn343 O347 2.086 . S
Zn343 O352 1.977 . S
O344 Zn343 2.032 . S
O344 C348 1.278 . S
C345 O346 1.203 . S
C345 O352 1.267 . S
O346 C345 1.203 . S
O347 C340 1.185 . S
O347 Zn343 2.086 . S
C348 O344 1.278 . S
C348 O349 1.211 . S
O349 C348 1.211 . S
C350 O342 1.284 . S
C350 O351 1.273 . S
O351 C350 1.273 . S
O352 Zn343 1.977 . S
O352 C345 1.267 . S
C353 O354 1.160 . S
C353 O360 1.185 . S
O354 C353 1.160 . S
O355 Zn356 1.899 . S
O355 C363 1.284 . S
Zn356 O355 1.899 . S
Zn356 O357 2.032 . S
Zn356 O360 2.086 . S
Zn356 O365 1.977 . S
O357 Zn356 2.032 . S
O357 C361 1.278 . S
C358 O359 1.203 . S
C358 O365 1.267 . S
O359 C358 1.203 . S
O360 C353 1.185 . S
O360 Zn356 2.086 . S
C361 O357 1.278 . S
C361 O362 1.211 . S
O362 C361 1.211 . S
C363 O355 1.284 . S
C363 O364 1.273 . S
O364 C363 1.273 . S
O365 Zn356 1.977 . S
O365 C358 1.267 . S
H366 C374 0.950 . S
H367 C379 0.950 . S
H368 C376 0.950 . S
H369 C378 0.950 . S
H370 C380 0.950 . S
H371 C382 0.950 . S
H372 C384 0.950 . S
H373 C385 0.950 . S
C374 H366 0.950 . S
C374 C375 1.386 . S
C374 C376 1.391 . S
C375 C374 1.386 . S
C375 C379 1.393 . S
C376 H368 0.950 . S
C376 C374 1.391 . S
C376 C377 1.400 . S
C377 C376 1.400 . S
C377 C378 1.398 . S
C377 C383 1.491 . S
C378 H369 0.950 . S
C378 C377 1.398 . S
C378 C379 1.391 . S
C379 H367 0.950 . S
C379 C375 1.393 . S
C379 C378 1.391 . S
C380 H370 0.950 . S
C380 C381 1.386 . S
C380 C382 1.391 . S
C381 C380 1.386 . S
C381 C385 1.393 . S
C382 H371 0.950 . S
C382 C380 1.391 . S
C382 C383 1.400 . S
C383 C377 1.491 . S
C383 C382 1.400 . S
C383 C384 1.398 . S
C384 H372 0.950 . S
C384 C383 1.398 . S
C384 C385 1.391 . S
C385 H373 0.950 . S
C385 C381 1.393 . S
C385 C384 1.391 . S
H386 C394 0.950 . S
H387 C399 0.950 . S
H388 C396 0.950 . S
H389 C398 0.950 . S
H390 C400 0.950 . S
H391 C402 0.950 . S
H392 C404 0.950 . S
H393 C405 0.950 . S
C394 H386 0.950 . S
C394 C395 1.386 . S
C394 C396 1.391 . S
C395 C394 1.386 . S
C395 C399 1.393 . S
C396 H388 0.950 . S
C396 C394 1.391 . S
C396 C397 1.400 . S
C397 C396 1.400 . S
C397 C398 1.398 . S
C397 C403 1.491 . S
C398 H389 0.950 . S
C398 C397 1.398 . S
C398 C399 1.391 . S
C399 H387 0.950 . S
C399 C395 1.393 . S
C399 C398 1.391 . S
C400 H390 0.950 . S
C400 C401 1.386 . S
C400 C402 1.391 . S
C401 C400 1.386 . S
C401 C405 1.393 . S
C402 H391 0.950 . S
C402 C400 1.391 . S
C402 C403 1.400 . S
C403 C397 1.491 . S
C403 C402 1.400 . S
C403 C404 1.398 . S
C404 H392 0.950 . S
C404 C403 1.398 . S
C404 C405 1.391 . S
C405 H393 0.950 . S
C405 C401 1.393 . S
C405 C404 1.391 . S
H406 C414 0.950 . S
H407 C419 0.950 . S
H408 C416 0.950 . S
H409 C418 0.950 . S
H410 C420 0.950 . S
H411 C422 0.950 . S
H412 C424 0.950 . S
H413 C425 0.950 . S
C414 H406 0.950 . S
C414 C415 1.386 . S
C414 C416 1.391 . S
C415 C414 1.386 . S
C415 C419 1.393 . S
C416 H408 0.950 . S
C416 C414 1.391 . S
C416 C417 1.400 . S
C417 C416 1.400 . S
C417 C418 1.398 . S
C417 C423 1.491 . S
C418 H409 0.950 . S
C418 C417 1.398 . S
C418 C419 1.391 . S
C419 H407 0.950 . S
C419 C415 1.393 . S
C419 C418 1.391 . S
C420 H410 0.950 . S
C420 C421 1.386 . S
C420 C422 1.391 . S
C421 C420 1.386 . S
C421 C425 1.393 . S
C422 H411 0.950 . S
C422 C420 1.391 . S
C422 C423 1.400 . S
C423 C417 1.491 . S
C423 C422 1.400 . S
C423 C424 1.398 . S
C424 H412 0.950 . S
C424 C423 1.398 . S
C424 C425 1.391 . S
C425 H413 0.950 . S
C425 C421 1.393 . S
C425 C424 1.391 . S
H426 C434 0.950 . S
H427 C439 0.950 . S
H428 C436 0.950 . S
H429 C438 0.950 . S
H430 C440 0.950 . S
H431 C442 0.950 . S
H432 C444 0.950 . S
H433 C445 0.950 . S
C434 H426 0.950 . S
C434 C435 1.386 . S
C434 C436 1.391 . S
C435 C434 1.386 . S
C435 C439 1.393 . S
C436 H428 0.950 . S
C436 C434 1.391 . S
C436 C437 1.400 . S
C437 C436 1.400 . S
C437 C438 1.398 . S
C437 C443 1.491 . S
C438 H429 0.950 . S
C438 C437 1.398 . S
C438 C439 1.391 . S
C439 H427 0.950 . S
C439 C435 1.393 . S
C439 C438 1.391 . S
C440 H430 0.950 . S
C440 C441 1.386 . S
C440 C442 1.391 . S
C441 C440 1.386 . S
C441 C445 1.393 . S
C442 H431 0.950 . S
C442 C440 1.391 . S
C442 C443 1.400 . S
C443 C437 1.491 . S
C443 C442 1.400 . S
C443 C444 1.398 . S
C444 H432 0.950 . S
C444 C443 1.398 . S
C444 C445 1.391 . S
C445 H433 0.950 . S
C445 C441 1.393 . S
C445 C444 1.391 . S
H446 C454 0.950 . S
H447 C459 0.950 . S
H448 C456 0.950 . S
H449 C458 0.950 . S
H450 C460 0.950 . S
H451 C462 0.950 . S
H452 C464 0.950 . S
H453 C465 0.950 . S
C454 H446 0.950 . S
C454 C455 1.386 . S
C454 C456 1.391 . S
C455 C454 1.386 . S
C455 C459 1.393 . S
C456 H448 0.950 . S
C456 C454 1.391 . S
C456 C457 1.400 . S
C457 C456 1.400 . S
C457 C458 1.398 . S
C457 C463 1.491 . S
C458 H449 0.950 . S
C458 C457 1.398 . S
C458 C459 1.391 . S
C459 H447 0.950 . S
C459 C455 1.393 . S
C459 C458 1.391 . S
C460 H450 0.950 . S
C460 C461 1.386 . S
C460 C462 1.391 . S
C461 C460 1.386 . S
C461 C465 1.393 . S
C462 H451 0.950 . S
C462 C460 1.391 . S
C462 C463 1.400 . S
C463 C457 1.491 . S
C463 C462 1.400 . S
C463 C464 1.398 . S
C464 H452 0.950 . S
C464 C463 1.398 . S
C464 C465 1.391 . S
C465 H453 0.950 . S
C465 C461 1.393 . S
C465 C464 1.391 . S
H466 C474 0.950 . S
H467 C479 0.950 . S
H468 C476 0.950 . S
H469 C478 0.950 . S
H470 C480 0.950 . S
H471 C482 0.950 . S
H472 C484 0.950 . S
H473 C485 0.950 . S
C474 H466 0.950 . S
C474 C475 1.386 . S
C474 C476 1.391 . S
C475 C474 1.386 . S
C475 C479 1.393 . S
C476 H468 0.950 . S
C476 C474 1.391 . S
C476 C477 1.400 . S
C477 C476 1.400 . S
C477 C478 1.398 . S
C477 C483 1.491 . S
C478 H469 0.950 . S
C478 C477 1.398 . S
C478 C479 1.391 . S
C479 H467 0.950 . S
C479 C475 1.393 . S
C479 C478 1.391 . S
C480 H470 0.950 . S
C480 C481 1.386 . S
C480 C482 1.391 . S
C481 C480 1.386 . S
C481 C485 1.393 . S
C482 H471 0.950 . S
C482 C480 1.391 . S
C482 C483 1.400 . S
C483 C477 1.491 . S
C483 C482 1.400 . S
C483 C484 1.398 . S
C484 H472 0.950 . S
C484 C483 1.398 . S
C484 C485 1.391 . S
C485 H473 0.950 . S
C485 C481 1.393 . S
C485 C484 1.391 . S
H486 C494 0.950 . S
H487 C499 0.950 . S
H488 C496 0.950 . S
H489 C498 0.950 . S
H490 C500 0.950 . S
H491 C502 0.950 . S
H492 C504 0.950 . S
H493 C505 0.950 . S
C494 H486 0.950 . S
C494 C495 1.386 . S
C494 C496 1.391 . S
C495 C494 1.386 . S
C495 C499 1.393 . S
C496 H488 0.950 . S
C496 C494 1.391 . S
C496 C497 1.400 . S
C497 C496 1.400 . S
C497 C498 1.398 . S
C497 C503 1.491 . S
C498 H489 0.950 . S
C498 C497 1.398 . S
C498 C499 1.391 . S
C499 H487 0.950 . S
C499 C495 1.393 . S
C499 C498 1.391 . S
C500 H490 0.950 . S
C500 C501 1.386 . S
C500 C502 1.391 . S
C501 C500 1.386 . S
C501 C505 1.393 . S
C502 H491 0.950 . S
C502 C500 1.391 . S
C502 C503 1.400 . S
C503 C497 1.491 . S
C503 C502 1.400 . S
C503 C504 1.398 . S
C504 H492 0.950 . S
C504 C503 1.398 . S
C504 C505 1.391 . S
C505 H493 0.950 . S
C505 C501 1.393 . S
C505 C504 1.391 . S
H506 C514 0.950 . S
H507 C519 0.950 . S
H508 C516 0.950 . S
H509 C518 0.950 . S
H510 C520 0.950 . S
H511 C522 0.950 . S
H512 C524 0.950 . S
H513 C525 0.950 . S
C514 H506 0.950 . S
C514 C515 1.386 . S
C514 C516 1.391 . S
C515 C514 1.386 . S
C515 C519 1.393 . S
C516 H508 0.950 . S
C516 C514 1.391 . S
C516 C517 1.400 . S
C517 C516 1.400 . S
C517 C518 1.398 . S
C517 C523 1.491 . S
C518 H509 0.950 . S
C518 C517 1.398 . S
C518 C519 1.391 . S
C519 H507 0.950 . S
C519 C515 1.393 . S
C519 C518 1.391 . S
C520 H510 0.950 . S
C520 C521 1.386 . S
C520 C522 1.391 . S
C521 C520 1.386 . S
C521 C525 1.393 . S
C522 H511 0.950 . S
C522 C520 1.391 . S
C522 C523 1.400 . S
C523 C517 1.491 . S
C523 C522 1.400 . S
C523 C524 1.398 . S
C524 H512 0.950 . S
C524 C523 1.398 . S
C524 C525 1.391 . S
C525 H513 0.950 . S
C525 C521 1.393 . S
C525 C524 1.391 . S
H526 C534 0.950 . S
H527 C539 0.950 . S
H528 C536 0.950 . S
H529 C538 0.950 . S
H530 C540 0.950 . S
H531 C542 0.950 . S
H532 C544 0.950 . S
H533 C545 0.950 . S
C534 H526 0.950 . S
C534 C535 1.386 . S
C534 C536 1.391 . S
C535 C534 1.386 . S
C535 C539 1.393 . S
C536 H528 0.950 . S
C536 C534 1.391 . S
C536 C537 1.400 . S
C537 C536 1.400 . S
C537 C538 1.398 . S
C537 C543 1.491 . S
C538 H529 0.950 . S
C538 C537 1.398 . S
C538 C539 1.391 . S
C539 H527 0.950 . S
C539 C535 1.393 . S
C539 C538 1.391 . S
C540 H530 0.950 . S
C540 C541 1.386 . S
C540 C542 1.391 . S
C541 C540 1.386 . S
C541 C545 1.393 . S
C542 H531 0.950 . S
C542 C540 1.391 . S
C542 C543 1.400 . S
C543 C537 1.491 . S
C543 C542 1.400 . S
C543 C544 1.398 . S
C544 H532 0.950 . S
C544 C543 1.398 . S
C544 C545 1.391 . S
C545 H533 0.950 . S
C545 C541 1.393 . S
C545 C544 1.391 . S
H546 C554 0.950 . S
H547 C559 0.950 1_556 S
H548 C556 0.950 . S
H549 C558 0.950 . S
H550 C560 0.950 . S
H551 C562 0.950 . S
H552 C564 0.950 . S
H553 C565 0.950 . S
C554 H546 0.950 . S
C554 C555 1.386 . S
C554 C556 1.391 . S
C555 C554 1.386 . S
C555 C559 1.393 . S
C556 H548 0.950 . S
C556 C554 1.391 . S
C556 C557 1.400 . S
C557 C556 1.400 . S
C557 C558 1.398 . S
C557 C563 1.491 . S
C558 H549 0.950 . S
C558 C557 1.398 . S
C558 C559 1.391 . S
C559 H547 0.950 1_554 S
C559 C555 1.393 . S
C559 C558 1.391 . S
C560 H550 0.950 . S
C560 C561 1.386 . S
C560 C562 1.391 . S
C561 C560 1.386 . S
C561 C565 1.393 . S
C562 H551 0.950 . S
C562 C560 1.391 . S
C562 C563 1.400 . S
C563 C557 1.491 . S
C563 C562 1.400 . S
C563 C564 1.398 . S
C564 H552 0.950 . S
C564 C563 1.398 . S
C564 C565 1.391 . S
C565 H553 0.950 . S
C565 C561 1.393 . S
C565 C564 1.391 . S
H566 C574 0.950 . S
H567 C579 0.950 . S
H568 C576 0.950 . S
H569 C578 0.950 . S
H570 C580 0.950 . S
H571 C582 0.950 . S
H572 C584 0.950 . S
H573 C585 0.950 . S
C574 H566 0.950 . S
C574 C575 1.386 . S
C574 C576 1.391 . S
C575 C574 1.386 . S
C575 C579 1.393 . S
C576 H568 0.950 . S
C576 C574 1.391 . S
C576 C577 1.400 . S
C577 C576 1.400 . S
C577 C578 1.398 . S
C577 C583 1.491 . S
C578 H569 0.950 . S
C578 C577 1.398 . S
C578 C579 1.391 . S
C579 H567 0.950 . S
C579 C575 1.393 . S
C579 C578 1.391 . S
C580 H570 0.950 . S
C580 C581 1.386 . S
C580 C582 1.391 . S
C581 C580 1.386 . S
C581 C585 1.393 . S
C582 H571 0.950 . S
C582 C580 1.391 . S
C582 C583 1.400 . S
C583 C577 1.491 . S
C583 C582 1.400 . S
C583 C584 1.398 . S
C584 H572 0.950 . S
C584 C583 1.398 . S
C584 C585 1.391 . S
C585 H573 0.950 . S
C585 C581 1.393 . S
C585 C584 1.391 . S
H586 C594 0.950 . S
H587 C599 0.950 . S
H588 C596 0.950 . S
H589 C598 0.950 . S
H590 C600 0.950 . S
H591 C602 0.950 . S
H592 C604 0.950 . S
H593 C605 0.950 . S
C594 H586 0.950 . S
C594 C595 1.386 . S
C594 C596 1.391 . S
C595 C594 1.386 . S
C595 C599 1.393 . S
C596 H588 0.950 . S
C596 C594 1.391 . S
C596 C597 1.400 . S
C597 C596 1.400 . S
C597 C598 1.398 . S
C597 C603 1.491 . S
C598 H589 0.950 . S
C598 C597 1.398 . S
C598 C599 1.391 . S
C599 H587 0.950 . S
C599 C595 1.393 . S
C599 C598 1.391 . S
C600 H590 0.950 . S
C600 C601 1.386 . S
C600 C602 1.391 . S
C601 C600 1.386 . S
C601 C605 1.393 . S
C602 H591 0.950 . S
C602 C600 1.391 . S
C602 C603 1.400 . S
C603 C597 1.491 . S
C603 C602 1.400 . S
C603 C604 1.398 . S
C604 H592 0.950 . S
C604 C603 1.398 . S
C604 C605 1.391 . S
C605 H593 0.950 . S
C605 C601 1.393 . S
C605 C604 1.391 . S
H606 C614 0.950 . S
H607 C619 0.950 . S
H608 C616 0.950 . S
H609 C618 0.950 . S
H610 C620 0.950 . S
H611 C622 0.950 . S
H612 C624 0.950 . S
H613 C625 0.950 . S
C614 H606 0.950 . S
C614 C615 1.386 . S
C614 C616 1.391 . S
C615 C614 1.386 . S
C615 C619 1.393 . S
C616 H608 0.950 . S
C616 C614 1.391 . S
C616 C617 1.400 . S
C617 C616 1.400 . S
C617 C618 1.398 . S
C617 C623 1.491 . S
C618 H609 0.950 . S
C618 C617 1.398 . S
C618 C619 1.391 . S
C619 H607 0.950 . S
C619 C615 1.393 . S
C619 C618 1.391 . S
C620 H610 0.950 . S
C620 C621 1.386 . S
C620 C622 1.391 . S
C621 C620 1.386 . S
C621 C625 1.393 . S
C622 H611 0.950 . S
C622 C620 1.391 . S
C622 C623 1.400 . S
C623 C617 1.491 . S
C623 C622 1.400 . S
C623 C624 1.398 . S
C624 H612 0.950 . S
C624 C623 1.398 . S
C624 C625 1.391 . S
C625 H613 0.950 . S
C625 C621 1.393 . S
C625 C624 1.391 . S
H626 C634 0.950 . S
H627 C639 0.950 . S
H628 C636 0.950 . S
H629 C638 0.950 . S
H630 C640 0.950 . S
H631 C642 0.950 . S
H632 C644 0.950 . S
H633 C645 0.950 . S
C634 H626 0.950 . S
C634 C635 1.386 . S
C634 C636 1.391 . S
C635 C634 1.386 . S
C635 C639 1.393 . S
C636 H628 0.950 . S
C636 C634 1.391 . S
C636 C637 1.400 . S
C637 C636 1.400 . S
C637 C638 1.398 . S
C637 C643 1.491 . S
C638 H629 0.950 . S
C638 C637 1.398 . S
C638 C639 1.391 . S
C639 H627 0.950 . S
C639 C635 1.393 . S
C639 C638 1.391 . S
C640 H630 0.950 . S
C640 C641 1.386 . S
C640 C642 1.391 . S
C641 C640 1.386 . S
C641 C645 1.393 . S
C642 H631 0.950 . S
C642 C640 1.391 . S
C642 C643 1.400 . S
C643 C637 1.491 . S
C643 C642 1.400 . S
C643 C644 1.398 . S
C644 H632 0.950 . S
C644 C643 1.398 . S
C644 C645 1.391 . S
C645 H633 0.950 . S
C645 C641 1.393 . S
C645 C644 1.391 . S
H646 C654 0.950 . S
H647 C659 0.950 . S
H648 C656 0.950 . S
H649 C658 0.950 . S
H650 C660 0.950 . S
H651 C662 0.950 . S
H652 C664 0.950 . S
H653 C665 0.950 . S
C654 H646 0.950 . S
C654 C655 1.386 . S
C654 C656 1.391 . S
C655 C654 1.386 . S
C655 C659 1.393 . S
C656 H648 0.950 . S
C656 C654 1.391 . S
C656 C657 1.400 . S
C657 C656 1.400 . S
C657 C658 1.398 . S
C657 C663 1.491 . S
C658 H649 0.950 . S
C658 C657 1.398 . S
C658 C659 1.391 . S
C659 H647 0.950 . S
C659 C655 1.393 . S
C659 C658 1.391 . S
C660 H650 0.950 . S
C660 C661 1.386 . S
C660 C662 1.391 . S
C661 C660 1.386 . S
C661 C665 1.393 . S
C662 H651 0.950 . S
C662 C660 1.391 . S
C662 C663 1.400 . S
C663 C657 1.491 . S
C663 C662 1.400 . S
C663 C664 1.398 . S
C664 H652 0.950 . S
C664 C663 1.398 . S
C664 C665 1.391 . S
C665 H653 0.950 . S
C665 C661 1.393 . S
C665 C664 1.391 . S
H666 C674 0.950 . S
H667 C679 0.950 . S
H668 C676 0.950 . S
H669 C678 0.950 . S
H670 C680 0.950 . S
H671 C682 0.950 . S
H672 C684 0.950 . S
H673 C685 0.950 . S
C674 H666 0.950 . S
C674 C675 1.386 . S
C674 C676 1.391 . S
C675 C674 1.386 . S
C675 C679 1.393 . S
C676 H668 0.950 . S
C676 C674 1.391 . S
C676 C677 1.400 . S
C677 C676 1.400 . S
C677 C678 1.398 . S
C677 C683 1.491 . S
C678 H669 0.950 . S
C678 C677 1.398 . S
C678 C679 1.391 . S
C679 H667 0.950 . S
C679 C675 1.393 . S
C679 C678 1.391 . S
C680 H670 0.950 . S
C680 C681 1.386 . S
C680 C682 1.391 1_554 S
C681 C680 1.386 . S
C681 C685 1.393 1_554 S
C682 H671 0.950 . S
C682 C680 1.391 1_556 S
C682 C683 1.400 . S
C683 C677 1.491 . S
C683 C682 1.400 . S
C683 C684 1.398 . S
C684 H672 0.950 . S
C684 C683 1.398 . S
C684 C685 1.391 . S
C685 H673 0.950 . S
C685 C681 1.393 1_556 S
C685 C684 1.391 . S
H686 C694 0.950 . S
H687 C699 0.950 . S
H688 C696 0.950 . S
H689 C698 0.950 . S
H690 C700 0.950 . S
H691 C702 0.950 . S
H692 C704 0.950 . S
H693 C705 0.950 . S
C694 H686 0.950 . S
C694 C695 1.386 . S
C694 C696 1.391 . S
C695 C694 1.386 . S
C695 C699 1.393 . S
C696 H688 0.950 . S
C696 C694 1.391 . S
C696 C697 1.400 . S
C697 C696 1.400 . S
C697 C698 1.398 . S
C697 C703 1.491 . S
C698 H689 0.950 . S
C698 C697 1.398 . S
C698 C699 1.391 . S
C699 H687 0.950 . S
C699 C695 1.393 . S
C699 C698 1.391 . S
C700 H690 0.950 . S
C700 C701 1.386 . S
C700 C702 1.391 . S
C701 C700 1.386 . S
C701 C705 1.393 . S
C702 H691 0.950 . S
C702 C700 1.391 . S
C702 C703 1.400 . S
C703 C697 1.491 . S
C703 C702 1.400 . S
C703 C704 1.398 . S
C704 H692 0.950 . S
C704 C703 1.398 . S
C704 C705 1.391 . S
C705 H693 0.950 . S
C705 C701 1.393 . S
C705 C704 1.391 . S
H706 C714 0.950 . S
H707 C719 0.950 . S
H708 C716 0.950 . S
H709 C718 0.950 . S
H710 C720 0.950 . S
H711 C722 0.950 . S
H712 C724 0.950 . S
H713 C725 0.950 . S
C714 H706 0.950 . S
C714 C715 1.386 . S
C714 C716 1.391 . S
C715 C714 1.386 . S
C715 C719 1.393 . S
C716 H708 0.950 . S
C716 C714 1.391 . S
C716 C717 1.400 . S
C717 C716 1.400 . S
C717 C718 1.398 . S
C717 C723 1.491 . S
C718 H709 0.950 . S
C718 C717 1.398 . S
C718 C719 1.391 . S
C719 H707 0.950 . S
C719 C715 1.393 . S
C719 C718 1.391 . S
C720 H710 0.950 . S
C720 C721 1.386 . S
C720 C722 1.391 . S
C721 C720 1.386 . S
C721 C725 1.393 . S
C722 H711 0.950 . S
C722 C720 1.391 . S
C722 C723 1.400 . S
C723 C717 1.491 . S
C723 C722 1.400 . S
C723 C724 1.398 . S
C724 H712 0.950 . S
C724 C723 1.398 . S
C724 C725 1.391 . S
C725 H713 0.950 . S
C725 C721 1.393 . S
C725 C724 1.391 . S
H726 C734 0.950 . S
H727 C739 0.950 . S
H728 C736 0.950 . S
H729 C738 0.950 . S
H730 C740 0.950 . S
H731 C742 0.950 . S
H732 C744 0.950 . S
H733 C745 0.950 . S
C734 H726 0.950 . S
C734 C735 1.386 . S
C734 C736 1.391 . S
C735 C734 1.386 . S
C735 C739 1.393 . S
C736 H728 0.950 . S
C736 C734 1.391 . S
C736 C737 1.400 . S
C737 C736 1.400 . S
C737 C738 1.398 . S
C737 C743 1.491 . S
C738 H729 0.950 . S
C738 C737 1.398 . S
C738 C739 1.391 . S
C739 H727 0.950 . S
C739 C735 1.393 . S
C739 C738 1.391 . S
C740 H730 0.950 . S
C740 C741 1.386 . S
C740 C742 1.391 . S
C741 C740 1.386 . S
C741 C745 1.393 . S
C742 H731 0.950 . S
C742 C740 1.391 . S
C742 C743 1.400 . S
C743 C737 1.491 . S
C743 C742 1.400 . S
C743 C744 1.398 . S
C744 H732 0.950 . S
C744 C743 1.398 . S
C744 C745 1.391 . S
C745 H733 0.950 . S
C745 C741 1.393 . S
C745 C744 1.391 . S
H746 C754 0.950 . S
H747 C759 0.950 . S
H748 C756 0.950 . S
H749 C758 0.950 . S
H750 C760 0.950 . S
H751 C762 0.950 . S
H752 C764 0.950 . S
H753 C765 0.950 . S
C754 H746 0.950 . S
C754 C755 1.386 . S
C754 C756 1.391 . S
C755 C754 1.386 . S
C755 C759 1.393 . S
C756 H748 0.950 . S
C756 C754 1.391 . S
C756 C757 1.400 . S
C757 C756 1.400 . S
C757 C758 1.398 . S
C757 C763 1.491 . S
C758 H749 0.950 . S
C758 C757 1.398 . S
C758 C759 1.391 . S
C759 H747 0.950 . S
C759 C755 1.393 . S
C759 C758 1.391 . S
C760 H750 0.950 . S
C760 C761 1.386 . S
C760 C762 1.391 . S
C761 C760 1.386 . S
C761 C765 1.393 . S
C762 H751 0.950 . S
C762 C760 1.391 . S
C762 C763 1.400 . S
C763 C757 1.491 . S
C763 C762 1.400 . S
C763 C764 1.398 . S
C764 H752 0.950 . S
C764 C763 1.398 . S
C764 C765 1.391 . S
C765 H753 0.950 . S
C765 C761 1.393 . S
C765 C764 1.391 . S
H766 C774 0.950 . S
H767 C779 0.950 . S
H768 C776 0.950 . S
H769 C778 0.950 . S
H770 C780 0.950 . S
H771 C782 0.950 . S
H772 C784 0.950 . S
H773 C785 0.950 . S
C774 H766 0.950 . S
C774 C775 1.386 . S
C774 C776 1.391 . S
C775 C774 1.386 . S
C775 C779 1.393 . S
C776 H768 0.950 . S
C776 C774 1.391 . S
C776 C777 1.400 . S
C777 C776 1.400 . S
C777 C778 1.398 . S
C777 C783 1.491 . S
C778 H769 0.950 . S
C778 C777 1.398 . S
C778 C779 1.391 . S
C779 H767 0.950 . S
C779 C775 1.393 . S
C779 C778 1.391 . S
C780 H770 0.950 . S
C780 C781 1.386 . S
C780 C782 1.391 . S
C781 C780 1.386 . S
C781 C785 1.393 . S
C782 H771 0.950 . S
C782 C780 1.391 . S
C782 C783 1.400 . S
C783 C777 1.491 . S
C783 C782 1.400 . S
C783 C784 1.398 . S
C784 H772 0.950 . S
C784 C783 1.398 . S
C784 C785 1.391 . S
C785 H773 0.950 . S
C785 C781 1.393 . S
C785 C784 1.391 . S
H786 C794 0.950 . S
H787 C799 0.950 . S
H788 C796 0.950 . S
H789 C798 0.950 . S
H790 C800 0.950 . S
H791 C802 0.950 . S
H792 C804 0.950 . S
H793 C805 0.950 . S
C794 H786 0.950 . S
C794 C795 1.386 . S
C794 C796 1.391 . S
C795 C794 1.386 . S
C795 C799 1.393 . S
C796 H788 0.950 . S
C796 C794 1.391 . S
C796 C797 1.400 . S
C797 C796 1.400 . S
C797 C798 1.398 . S
C797 C803 1.491 . S
C798 H789 0.950 . S
C798 C797 1.398 . S
C798 C799 1.391 . S
C799 H787 0.950 . S
C799 C795 1.393 . S
C799 C798 1.391 . S
C800 H790 0.950 . S
C800 C801 1.386 . S
C800 C802 1.391 . S
C801 C800 1.386 . S
C801 C805 1.393 . S
C802 H791 0.950 . S
C802 C800 1.391 . S
C802 C803 1.400 . S
C803 C797 1.491 . S
C803 C802 1.400 . S
C803 C804 1.398 . S
C804 H792 0.950 . S
C804 C803 1.398 . S
C804 C805 1.391 . S
C805 H793 0.950 . S
C805 C801 1.393 . S
C805 C804 1.391 . S
H806 C814 0.950 . S
H807 C819 0.950 . S
H808 C816 0.950 1_556 S
H809 C818 0.950 . S
H810 C820 0.950 . S
H811 C822 0.950 1_554 S
H812 C824 0.950 . S
H813 C825 0.950 . S
C814 H806 0.950 . S
C814 C815 1.386 . S
C814 C816 1.391 . S
C815 C814 1.386 . S
C815 C819 1.393 . S
C816 H808 0.950 1_554 S
C816 C814 1.391 . S
C816 C817 1.400 . S
C817 C816 1.400 . S
C817 C818 1.398 . S
C817 C823 1.491 1_554 S
C818 H809 0.950 . S
C818 C817 1.398 . S
C818 C819 1.391 . S
C819 H807 0.950 . S
C819 C815 1.393 . S
C819 C818 1.391 . S
C820 H810 0.950 . S
C820 C821 1.386 . S
C820 C822 1.391 . S
C821 C820 1.386 . S
C821 C825 1.393 . S
C822 H811 0.950 1_556 S
C822 C820 1.391 . S
C822 C823 1.400 . S
C823 C817 1.491 1_556 S
C823 C822 1.400 . S
C823 C824 1.398 . S
C824 H812 0.950 . S
C824 C823 1.398 . S
C824 C825 1.391 . S
C825 H813 0.950 . S
C825 C821 1.393 . S
C825 C824 1.391 . S
H826 C834 0.950 . S
H827 C839 0.950 . S
H828 C836 0.950 . S
H829 C838 0.950 . S
H830 C840 0.950 . S
H831 C842 0.950 . S
H832 C844 0.950 . S
H833 C845 0.950 . S
C834 H826 0.950 . S
C834 C835 1.386 . S
C834 C836 1.391 . S
C835 C834 1.386 . S
C835 C839 1.393 . S
C836 H828 0.950 . S
C836 C834 1.391 . S
C836 C837 1.400 . S
C837 C836 1.400 . S
C837 C838 1.398 . S
C837 C843 1.491 . S
C838 H829 0.950 . S
C838 C837 1.398 . S
C838 C839 1.391 . S
C839 H827 0.950 . S
C839 C835 1.393 . S
C839 C838 1.391 . S
C840 H830 0.950 . S
C840 C841 1.386 . S
C840 C842 1.391 . S
C841 C840 1.386 . S
C841 C845 1.393 . S
C842 H831 0.950 . S
C842 C840 1.391 . S
C842 C843 1.400 . S
C843 C837 1.491 . S
C843 C842 1.400 . S
C843 C844 1.398 . S
C844 H832 0.950 . S
C844 C843 1.398 . S
C844 C845 1.391 . S
C845 H833 0.950 . S
C845 C841 1.393 . S
C845 C844 1.391 . S
C381 C363 1.596 . S
C375 C45 1.590 . S
C395 C84 1.569 . S
C401 C288 1.513 . S
C415 C126 1.572 . S
C421 C311 1.621 . S
C435 C189 1.462 . S
C441 C324 1.462 . S
C461 C327 1.532 . S
C455 C228 1.599 . S
C475 C270 1.460 . S
C481 C340 1.438 . S
C495 C69 1.479 . S
C501 C301 1.445 . S
C515 C141 1.606 . S
C521 C314 1.526 . S
C535 C174 1.436 . S
C541 C337 1.460 . S
C561 C350 1.621 . S
C555 C213 1.579 . S
C581 C353 1.500 . S
C575 C285 1.572 . S
C601 C298 1.598 . S
C595 C30 1.545 . S
C615 C36 1.483 . S
C621 C309 1.447 . S
C635 C93 1.460 . S
C641 C322 1.420 . S
C661 C332 1.463 . S
C655 C117 1.496 . S
C675 C180 1.477 . S
C681 C345 1.433 . S
C701 C361 1.474 . S
C695 C237 1.502 . S
C721 C293 1.425 . S
C715 C261 1.460 . S
C741 C358 1.425 . S
C735 C78 1.455 . S
C755 C132 1.506 . S
C761 C296 1.464 . S
C781 C306 1.412 . S
C775 C165 1.459 . S
C795 C222 1.489 . S
C801 C319 1.454 . S
C815 C276 1.461 . S
C821 C335 1.425 . S
C835 C21 1.474 . S
C841 C348 1.432 . S
