# Generated by pormake.
# Topology tsx, (6,3)-cn, num edge types: 1
# Building blocks:
#     Node 0, Type 0, BuildingBlock: MIDCAF_clean_sbu_0, # of connection points: 6
#     Node 1, Type 0, BuildingBlock: MIDCAF_clean_sbu_0, # of connection points: 6
#     Node 2, Type 1, BuildingBlock: MIDCAF_clean_linker_0, # of connection points: 3
#     Node 3, Type 1, BuildingBlock: MIDCAF_clean_linker_0, # of connection points: 3
#     Node 4, Type 1, BuildingBlock: MIDCAF_clean_linker_0, # of connection points: 3
#     Node 5, Type 1, BuildingBlock: MIDCAF_clean_linker_0, # of connection points: 3
#     Edge 6, Type (0, 1), BuildingBlock: MIFKUJ_clean_linker_0, # of connection points: 2
#     Edge 7, Type (0, 1), BuildingBlock: MIFKUJ_clean_linker_0, # of connection points: 2
#     Edge 8, Type (0, 1), BuildingBlock: MIFKUJ_clean_linker_0, # of connection points: 2
#     Edge 9, Type (0, 1), BuildingBlock: MIFKUJ_clean_linker_0, # of connection points: 2
#     Edge 10, Type (0, 1), BuildingBlock: MIFKUJ_clean_linker_0, # of connection points: 2
#     Edge 11, Type (0, 1), BuildingBlock: MIFKUJ_clean_linker_0, # of connection points: 2
#     Edge 12, Type (0, 1), BuildingBlock: MIFKUJ_clean_linker_0, # of connection points: 2
#     Edge 13, Type (0, 1), BuildingBlock: MIFKUJ_clean_linker_0, # of connection points: 2
#     Edge 14, Type (0, 1), BuildingBlock: MIFKUJ_clean_linker_0, # of connection points: 2
#     Edge 15, Type (0, 1), BuildingBlock: MIFKUJ_clean_linker_0, # of connection points: 2
#     Edge 16, Type (0, 1), BuildingBlock: MIFKUJ_clean_linker_0, # of connection points: 2
#     Edge 17, Type (0, 1), BuildingBlock: MIFKUJ_clean_linker_0, # of connection points: 2
# Relax obj value: 0.119
# Max RMSD: 0.182
# Mean RMSD: 0.113
data_MOF--net-tsx--node1-MIDCAF_clean_sbu_0--node2-MIDCAF_clean_linker_0--edge1-MIFKUJ_clean_linker_0
_symmetry_space_group_name_H-M    P1
_symmetry_Int_Tables_number       1
_symmetry_cell_setting            triclinic
loop_
_symmetry_equiv_pos_as_xyz
'x, y, z'
_cell_length_a     29.754294
_cell_length_b     30.841211
_cell_length_c     58.389681
_cell_angle_alpha  90.294789
_cell_angle_beta   94.260575
_cell_angle_gamma 89.601419
loop_
_atom_site_label
_atom_site_type_symbol
_atom_site_fract_x
_atom_site_fract_y
_atom_site_fract_z
_atom_type_partial_charge
Zn0 Zn 0.96481 0.01249 0.98608 0.0
Zn1 Zn 0.1095 0.02368 0.04479 0.0
Zn2 Zn 0.03845 0.01926 0.01428 0.0
C3 C 0.08908 0.10842 0.02994 0.0
C4 C 0.13353 0.96967 0.00904 0.0
O5 O 0.98516 0.98237 0.03078 0.0
O6 O 0.92467 0.98269 0.00631 0.0
C7 C 0.9834 0.10107 0.99118 0.0
O8 O 0.05679 0.08868 0.0183 0.0
O9 O 0.11726 0.08738 0.04284 0.0
O10 O 0.14831 0.98329 0.02855 0.0
O11 O 0.09414 0.98118 0.00041 0.0
O12 O 0.95636 0.07541 0.98046 0.0
O13 O 0.01604 0.08614 0.00472 0.0
O14 O 0.05819 0.98466 0.9833 0.0
O15 O 0.99338 0.97759 0.96246 0.0
C16 C 0.03543 0.9713 0.96501 0.0
O17 O 0.0203 0.9917 0.04744 0.0
O18 O 0.08098 -5e-05 0.07133 0.0
C19 C 0.94393 0.97135 0.02533 0.0
C20 C 0.04076 0.98763 0.06759 0.0
Zn21 Zn 0.54984 0.45968 0.52566 0.0
Zn22 Zn 0.42781 0.50188 0.47972 0.0
Zn23 Zn 0.50015 0.49091 0.50021 0.0
C24 C 0.49357 0.48254 0.44743 0.0
C25 C 0.45286 0.58225 0.50122 0.0
O26 O 0.5023 0.5326 0.53123 0.0
O27 O 0.50937 0.47282 0.5516 0.0
C28 C 0.5654 0.41827 0.48888 0.0
O29 O 0.5204 0.48299 0.46564 0.0
O30 O 0.45174 0.48851 0.44901 0.0
O31 O 0.42145 0.5639 0.48911 0.0
O32 O 0.48848 0.56055 0.50823 0.0
O33 O 0.5536 0.40405 0.50782 0.0
O34 O 0.55361 0.45701 0.48277 0.0
O35 O 0.53662 0.54761 0.51476 0.0
O36 O 0.59716 0.50659 0.51906 0.0
C37 C 0.58001 0.54417 0.51666 0.0
O38 O 0.4608 0.44107 0.51446 0.0
O39 O 0.39525 0.4564 0.49645 0.0
C40 C 0.49884 0.51268 0.55036 0.0
C41 C 0.41882 0.43357 0.51077 0.0
C42 C 0.94654 0.15393 0.40339 0.0
C43 C 0.93382 0.15284 0.42605 0.0
C44 C 0.95292 0.12089 0.44102 0.0
C45 C 0.98286 0.08973 0.43318 0.0
H46 H 0.10527 0.0064 0.44894 0.0
H47 H 0.165 0.96408 0.46984 0.0
H48 H 0.18289 0.88906 0.4085 0.0
H49 H 0.12349 0.93006 0.38793 0.0
H50 H 0.05412 0.93513 0.34528 0.0
H51 H 0.03309 0.91542 0.30547 0.0
H52 H 0.95718 0.0349 0.29661 0.0
H53 H 0.97695 0.05397 0.33645 0.0
H54 H 0.98356 0.12357 0.37769 0.0
H55 H 0.93223 0.17783 0.39138 0.0
H56 H 0.94398 0.11948 0.45865 0.0
H57 H 0.99586 0.06461 0.44481 0.0
N58 N 0.05086 0.03028 0.41319 0.0
N59 N 0.06177 0.98588 0.38118 0.0
N60 N 0.00874 0.04207 0.37809 0.0
C61 C 0.07287 -0.00339 0.40352 0.0
C62 C 0.02972 0.00834 0.36837 0.0
C63 C 0.01883 0.05328 0.40037 0.0
C64 C 0.1091 0.97161 0.41673 0.0
C65 C 0.12187 0.98077 0.43996 0.0
C66 C 0.15628 0.95668 0.45192 0.0
C67 C 0.17846 0.92284 0.44093 0.0
C68 C 0.16594 0.91419 0.4177 0.0
C69 C 0.13182 0.93806 0.40582 0.0
C70 C 0.01733 -0.00381 0.34412 0.0
C71 C 0.03287 0.95717 0.33486 0.0
C72 C 0.02089 0.9459 0.31199 0.0
C73 C 0.99334 0.97351 0.29779 0.0
C74 C 0.97771 0.01242 0.30711 0.0
C75 C 0.98941 0.02355 0.32998 0.0
C76 C 0.9935 0.08959 0.41014 0.0
C77 C 0.97578 0.1226 0.39552 0.0
C78 C 0.89376 0.88515 0.60684 0.0
C79 C 0.89239 0.87972 0.58291 0.0
C80 C 0.9251 0.90027 0.57067 0.0
C81 C 0.9585 0.92577 0.58216 0.0
H82 H 0.08232 0.00518 0.5758 0.0
H83 H 0.13238 0.05646 0.55816 0.0
H84 H 0.13304 0.13778 0.61855 0.0
H85 H 0.08425 0.08672 0.63626 0.0
H86 H 0.089 0.02786 0.68287 0.0
H87 H 0.10225 0.02165 0.72431 0.0
H88 H 0.01009 0.91406 0.72389 0.0
H89 H 0.99701 0.91976 0.68226 0.0
H90 H 0.92734 0.9133 0.63683 0.0
H91 H 0.8694 0.86925 0.61679 0.0
H92 H 0.92474 0.89675 0.55219 0.0
H93 H 0.98326 0.94113 0.57226 0.0
N94 N 0.02123 0.98508 0.60731 0.0
N95 N 0.0585 0.00656 0.64232 0.0
N96 N 0.00255 0.95368 0.64193 0.0
C97 C 0.05247 0.01018 0.61916 0.0
C98 C 0.03404 0.97821 0.65385 0.0
C99 C 0.99578 0.95696 0.6187 0.0
C100 C 0.07959 0.04193 0.60741 0.0
C101 C 0.09293 0.03423 0.58515 0.0
C102 C 0.12164 0.06331 0.57513 0.0
C103 C 0.13633 0.10096 0.58703 0.0
C104 C 0.12189 0.10913 0.60897 0.0
C105 C 0.09416 0.07978 0.61913 0.0
C106 C 0.04182 0.97434 0.67915 0.0
C107 C 0.07152 0.00276 0.69152 0.0
C108 C 0.07903 -0.00062 0.71532 0.0
C109 C 0.05719 0.96741 0.72735 0.0
C110 C 0.02777 0.93874 0.71504 0.0
C111 C 0.02004 0.94224 0.6912 0.0
C112 C 0.96019 0.93068 0.60618 0.0
C113 C 0.92732 0.91013 0.61834 0.0
C114 C 0.45092 0.65551 0.9082 0.0
C115 C 0.45803 0.66762 0.93133 0.0
C116 C 0.49552 0.65052 0.94448 0.0
C117 C 0.52657 0.62344 0.93422 0.0
H118 H 0.63194 0.52104 0.94321 0.0
H119 H 0.69213 0.47562 0.96132 0.0
H120 H 0.75817 0.47365 0.89789 0.0
H121 H 0.69796 0.51771 0.87974 0.0
H122 H 0.64308 0.5464 0.83198 0.0
H123 H 0.63171 0.54822 0.78997 0.0
H124 H 0.49316 0.58718 0.79508 0.0
H125 H 0.50413 0.58535 0.83666 0.0
H126 H 0.47477 0.62067 0.88003 0.0
H127 H 0.42179 0.66738 0.89778 0.0
H128 H 0.50163 0.65931 0.96242 0.0
H129 H 0.55598 0.61187 0.94449 0.0
N130 N 0.59008 0.56764 0.90995 0.0
N131 N 0.61647 0.54611 0.87452 0.0
N132 N 0.55029 0.58695 0.87532 0.0
C133 C 0.6213 0.54644 0.89793 0.0
C134 C 0.58086 0.56621 0.86313 0.0
C135 C 0.55439 0.58813 0.89858 0.0
C136 C 0.65968 0.52258 0.9099 0.0
C137 C 0.65952 0.51119 0.93321 0.0
C138 C 0.69414 0.48528 0.94363 0.0
C139 C 0.72971 0.4704 0.93098 0.0
C140 C 0.73076 0.48353 0.908 0.0
C141 C 0.6962 0.50905 0.8976 0.0
C142 C 0.57458 0.56578 0.83771 0.0
C143 C 0.61018 0.55514 0.82411 0.0
C144 C 0.60377 0.55644 0.80009 0.0
C145 C 0.56152 0.56778 0.7893 0.0
C146 C 0.52595 0.57791 0.80291 0.0
C147 C 0.53242 0.5771 0.82679 0.0
C148 C 0.52029 0.61292 0.91072 0.0
C149 C 0.48145 0.62853 0.89806 0.0
C150 C 0.36735 0.47317 0.09147 0.0
C151 C 0.36827 0.45436 0.0695 0.0
C152 C 0.40816 0.45761 0.05801 0.0
C153 C 0.44679 0.47691 0.06882 0.0
H154 H 0.54963 0.59496 0.07007 0.0
H155 H 0.60441 0.64777 0.05821 0.0
H156 H 0.69818 0.60724 0.11417 0.0
H157 H 0.64449 0.55446 0.12565 0.0
H158 H 0.60174 0.52718 0.17137 0.0
H159 H 0.61062 0.50855 0.21189 0.0
H160 H 0.48967 0.43154 0.20402 0.0
H161 H 0.48001 0.45097 0.16362 0.0
H162 H 0.4046 0.50395 0.1197 0.0
H163 H 0.337 0.47273 0.10061 0.0
H164 H 0.41032 0.44335 0.04114 0.0
H165 H 0.4776 0.47724 0.06004 0.0
N166 N 0.52005 0.53027 0.09518 0.0
N167 N 0.5643 0.52866 0.13023 0.0
N168 N 0.49501 0.49327 0.12695 0.0
C169 C 0.55826 0.54191 0.10806 0.0
C170 C 0.53305 0.50428 0.13981 0.0
C171 C 0.48829 0.50587 0.10469 0.0
C172 C 0.59246 0.57063 0.09891 0.0
C173 C 0.58223 0.59689 0.07958 0.0
C174 C 0.61346 0.62738 0.07291 0.0
C175 C 0.65563 0.63187 0.0853 0.0
C176 C 0.66631 0.60441 0.10406 0.0
C177 C 0.63521 0.57428 0.11076 0.0
C178 C 0.53988 0.49093 0.1642 0.0
C179 C 0.57708 0.5061 0.1782 0.0
C180 C 0.58241 0.49516 0.20145 0.0
C181 C 0.55076 0.46871 0.21124 0.0
C182 C 0.51426 0.45259 0.1971 0.0
C183 C 0.50883 0.46363 0.17389 0.0
C184 C 0.44637 0.49261 0.09142 0.0
C185 C 0.40602 0.49148 0.10238 0.0
H186 H 0.10733 0.16497 0.06463 0.0
H187 H 0.13612 0.23839 0.06186 0.0
H188 H 0.11831 0.23086 0.98794 0.0
H189 H 0.08822 0.157 0.99077 0.0
H190 H 0.20597 0.2499 0.00416 0.0
H191 H 0.06357 0.31073 0.01234 0.0
H192 H 0.98822 0.31997 0.02677 0.0
H193 H 0.04899 0.34736 0.09426 0.0
H194 H 0.12463 0.33815 0.08018 0.0
H195 H 0.33481 0.44672 0.02412 0.0
H196 H 0.27247 0.40089 0.00864 0.0
H197 H 0.25042 0.35849 0.07711 0.0
H198 H 0.31294 0.40243 0.09257 0.0
H199 H 0.17016 0.37786 0.05147 0.0
H200 H 0.31093 0.29759 0.04314 0.0
H201 H 0.38546 0.28727 0.02794 0.0
H202 H 0.32518 0.29664 0.95899 0.0
H203 H 0.25032 0.30757 0.97383 0.0
C204 C 0.10809 0.17955 0.04782 0.0
C205 C 0.09565 0.15551 0.02793 0.0
C206 C 0.12442 0.22157 0.04623 0.0
C207 C 0.12931 0.24024 0.02469 0.0
C208 C 0.11455 0.21717 0.00472 0.0
C209 C 0.09724 0.17516 0.00635 0.0
C210 C 0.15584 0.28071 0.02363 0.0
C211 C 0.19746 0.27858 0.01381 0.0
C212 C 0.14499 0.31796 0.03638 0.0
C213 C 0.09972 0.32356 0.04517 0.0
C214 C 0.06077 0.31842 0.03027 0.0
C215 C 0.01804 0.32372 0.03839 0.0
C216 C 0.01381 0.33407 0.06145 0.0
C217 C 0.05232 0.33934 0.0764 0.0
C218 C 0.09515 0.33425 0.06833 0.0
C219 C 0.31675 0.42759 0.03588 0.0
C220 C 0.32896 0.42868 0.05967 0.0
C221 C 0.28092 0.40165 0.027 0.0
C222 C 0.25664 0.37645 0.04175 0.0
C223 C 0.26822 0.37813 0.06544 0.0
C224 C 0.30404 0.40357 0.07426 0.0
C225 C 0.22093 0.34598 0.03289 0.0
C226 C 0.17781 0.34999 0.041 0.0
C227 C 0.2303 0.31057 0.01844 0.0
C228 C 0.27522 0.30402 0.00958 0.0
C229 C 0.31366 0.29784 0.02475 0.0
C230 C 0.35593 0.2918 0.0162 0.0
C231 C 0.36008 0.29147 0.99252 0.0
C232 C 0.32193 0.29704 0.97733 0.0
C233 C 0.27959 0.30316 0.9858 0.0
H234 H 0.39283 0.28677 0.98593 0.0
H235 H 0.98071 0.33811 0.06772 0.0
H236 H 0.17617 0.97339 0.96905 0.0
H237 H 0.22803 0.91873 0.95485 0.0
H238 H 0.20419 0.83642 0.0122 0.0
H239 H 0.15221 0.89064 0.02609 0.0
H240 H 0.2925 0.84767 0.0084 0.0
H241 H 0.16252 0.81399 0.95868 0.0
H242 H 0.09977 0.82593 0.92938 0.0
H243 H 0.19393 0.85637 0.87966 0.0
H244 H 0.25701 0.8468 0.90884 0.0
H245 H 0.41569 0.66205 0.97141 0.0
H246 H 0.35812 0.71167 0.9848 0.0
H247 H 0.37276 0.79394 0.92629 0.0
H248 H 0.42943 0.74436 0.91279 0.0
H249 H 0.28682 0.77994 0.93108 0.0
H250 H 0.41533 0.82172 0.98135 0.0
H251 H 0.47907 0.80934 0.01009 0.0
H252 H 0.38811 0.76225 0.05788 0.0
H253 H 0.32386 0.77383 0.0293 0.0
C254 C 0.18081 0.94292 0.97802 0.0
C255 C 0.15958 0.93555 -0.00172 0.0
C256 C 0.21074 0.91193 0.9701 0.0
C257 C 0.21988 0.87341 0.98247 0.0
C258 C 0.19772 0.86585 0.00242 0.0
C259 C 0.16791 0.89666 0.01025 0.0
C260 C 0.2546 0.84213 0.9756 0.0
C261 C 0.29094 0.83246 0.99156 0.0
C262 C 0.25299 0.82292 0.9535 0.0
C263 C 0.21464 0.83017 0.93611 0.0
C264 C 0.16986 0.82407 0.94162 0.0
C265 C 0.13414 0.83042 0.925 0.0
C266 C 0.14277 0.84204 0.90267 0.0
C267 C 0.18712 0.84764 0.89696 0.0
C268 C 0.22289 0.84195 0.91358 0.0
C269 C 0.40695 0.69106 0.96165 0.0
C270 C 0.42674 0.69926 0.94101 0.0
C271 C 0.37408 0.71935 0.96926 0.0
C272 C 0.36108 0.75658 0.95653 0.0
C273 C 0.38188 0.76528 0.93628 0.0
C274 C 0.41431 0.73697 0.92862 0.0
C275 C 0.32496 0.78607 0.96374 0.0
C276 C 0.2883 0.79526 0.94789 0.0
C277 C 0.32629 0.80502 0.98588 0.0
C278 C 0.36486 0.79821 0.0031 0.0
C279 C 0.40897 0.80841 -0.00207 0.0
C280 C 0.44518 0.8016 0.0142 0.0
C281 C 0.43766 0.7849 0.03578 0.0
C282 C 0.39389 0.77511 0.04115 0.0
C283 C 0.35757 0.78183 0.02493 0.0
H284 H 0.46574 0.77965 0.04835 0.0
H285 H 0.11511 0.84654 0.88977 0.0
H286 H 0.85493 0.97304 0.03255 0.0
H287 H 0.81184 0.9159 0.04958 0.0
H288 H 0.93469 0.84427 0.06663 0.0
H289 H 0.97814 0.90192 0.04982 0.0
H290 H 0.86963 0.79865 0.03879 0.0
H291 H 0.8775 0.87378 0.11091 0.0
H292 H 0.87218 0.93567 0.13754 0.0
H293 H 0.73337 0.95477 0.11418 0.0
H294 H 0.73747 0.89246 0.08771 0.0
H295 H 0.74747 0.62568 0.08477 0.0
H296 H 0.80074 0.68396 0.07933 0.0
H297 H 0.69021 0.77426 0.06742 0.0
H298 H 0.6367 0.71634 0.07366 0.0
H299 H 0.75543 0.80829 0.09636 0.0
H300 H 0.7484 0.73529 0.02321 0.0
H301 H 0.75268 0.67271 -0.00301 0.0
H302 H 0.89087 0.65123 0.02109 0.0
H303 H 0.88723 0.71338 0.0477 0.0
C304 C 0.87284 0.9457 0.04055 0.0
C305 C 0.91978 0.94182 0.0399 0.0
C306 C 0.84824 0.91316 0.05034 0.0
C307 C 0.87007 0.87585 0.05936 0.0
C308 C 0.91726 0.8729 0.05982 0.0
C309 C 0.94202 0.90588 0.05033 0.0
C310 C 0.84283 0.83795 0.06523 0.0
C311 C 0.84539 0.8003 0.05177 0.0
C312 C 0.81032 0.8407 0.08164 0.0
C313 C 0.80788 0.87866 0.0972 0.0
C314 C 0.84591 0.89135 0.11133 0.0
C315 C 0.8431 0.92641 0.12645 0.0
C316 C 0.80265 0.94937 0.12739 0.0
C317 C 0.76473 0.93703 0.11339 0.0
C318 C 0.76718 0.90167 0.09843 0.0
C319 C 0.73445 0.65794 0.08101 0.0
C320 C 0.68777 0.66633 0.07967 0.0
C321 C 0.76497 0.69119 0.07775 0.0
C322 C 0.7495 0.73349 0.07287 0.0
C323 C 0.70292 0.74188 0.07121 0.0
C324 C 0.67234 0.70862 0.0745 0.0
C325 C 0.78191 0.76907 0.06975 0.0
C326 C 0.78013 0.80633 0.08362 0.0
C327 C 0.8151 0.76602 0.05364 0.0
C328 C 0.81738 0.72868 0.03763 0.0
C329 C 0.77959 0.717 0.02306 0.0
C330 C 0.78192 0.68165 0.0081 0.0
C331 C 0.82198 0.65792 0.00743 0.0
C332 C 0.85983 0.66959 0.02167 0.0
C333 C 0.85767 0.70489 0.03668 0.0
H334 H 0.82372 0.63057 0.99583 0.0
H335 H 0.80065 0.9766 0.13905 0.0
H336 H 0.95302 0.14158 0.9522 0.0
H337 H 0.92667 0.21616 0.9479 0.0
H338 H 0.96715 0.24139 0.01921 0.0
H339 H 0.99379 0.16593 0.02357 0.0
H340 H 0.87959 0.2657 0.0077 0.0
H341 H 0.01977 0.29255 0.97879 0.0
H342 H 0.08586 0.28111 0.95637 0.0
H343 H 0.0018 0.29289 0.89368 0.0
H344 H 0.93518 0.30414 0.91573 0.0
H345 H 0.77219 0.47025 0.97467 0.0
H346 H 0.82933 0.41864 0.99062 0.0
H347 H 0.82263 0.34949 0.92608 0.0
H348 H 0.76563 0.40011 0.91024 0.0
H349 H 0.90906 0.36141 0.94255 0.0
H350 H 0.76841 0.31395 0.97225 0.0
H351 H 0.70169 0.32322 0.99452 0.0
H352 H 0.78742 0.3485 0.0555 0.0
H353 H 0.85467 0.33988 0.03349 0.0
C354 C 0.95728 0.16327 0.96685 0.0
C355 C 0.97554 0.14808 0.98819 0.0
C356 C 0.94239 0.20601 0.96436 0.0
C357 C 0.94524 0.23461 0.98317 0.0
C358 C 0.96497 0.22001 0.00441 0.0
C359 C 0.98043 0.17706 0.00685 0.0
C360 C 0.92328 0.27793 0.98066 0.0
C361 C 0.88688 0.28737 0.99389 0.0
C362 C 0.93247 0.30599 0.9625 0.0
C363 C 0.97244 0.29929 0.949 0.0
C364 C 0.01537 0.29261 0.96025 0.0
C365 C 0.05293 0.28613 0.94759 0.0
C366 C 0.04803 0.28623 0.92361 0.0
C367 C 0.00556 0.2929 0.91226 0.0
C368 C 0.96789 0.29948 0.92485 0.0
C369 C 0.78277 0.4439 0.96394 0.0
C370 C 0.7645 0.43958 0.94109 0.0
C371 C 0.81555 0.41454 0.97306 0.0
C372 C 0.8304 0.38023 0.95952 0.0
C373 C 0.81217 0.37597 0.93678 0.0
C374 C 0.77957 0.40511 0.92771 0.0
C375 C 0.86409 0.34772 0.96877 0.0
C376 C 0.9027 0.34046 0.9568 0.0
C377 C 0.85686 0.32162 0.98801 0.0
C378 C 0.81648 0.32691 0.00118 0.0
C379 C 0.773 0.32188 0.99036 0.0
C380 C 0.7351 0.32694 0.00294 0.0
C381 C 0.74031 0.33662 0.02639 0.0
C382 C 0.78344 0.34113 0.03732 0.0
C383 C 0.82144 0.33617 0.02481 0.0
H384 H 0.71094 0.34049 0.03611 0.0
H385 H 0.07714 0.28117 0.91383 0.0
H386 H 0.6668 0.5499 0.5058 0.0
H387 H 0.71738 0.61155 0.51161 0.0
H388 H 0.6105 0.68631 0.53921 0.0
H389 H 0.55874 0.62561 0.53159 0.0
H390 H 0.65817 0.73813 0.51739 0.0
H391 H 0.6964 0.62748 0.57318 0.0
H392 H 0.71728 0.55374 0.58625 0.0
H393 H 0.83944 0.56008 0.55176 0.0
H394 H 0.81873 0.63345 0.53784 0.0
H395 H 0.80209 0.87754 0.58876 0.0
H396 H 0.74696 0.82507 0.57253 0.0
H397 H 0.84955 0.7648 0.53446 0.0
H398 H 0.90494 0.81698 0.55078 0.0
H399 H 0.80487 0.7071 0.56039 0.0
H400 H 0.76647 0.82088 0.5065 0.0
H401 H 0.74453 0.89514 0.49467 0.0
H402 H 0.62231 0.88433 0.5289 0.0
H403 H 0.64382 0.81018 0.54123 0.0
C404 C 0.65403 0.57965 0.51292 0.0
C405 C 0.60919 0.5827 0.51876 0.0
C406 C 0.68303 0.61483 0.51637 0.0
C407 C 0.66838 0.65318 0.52668 0.0
C408 C 0.62288 0.65697 0.5315 0.0
C409 C 0.59337 0.62217 0.5273 0.0
C410 C 0.70095 0.68838 0.5333 0.0
C411 C 0.69001 0.73133 0.52702 0.0
C412 C 0.74297 0.67969 0.5456 0.0
C413 C 0.75579 0.63582 0.55429 0.0
C414 C 0.7276 0.61308 0.56826 0.0
C415 C 0.7394 0.57133 0.57583 0.0
C416 C 0.77965 0.55224 0.5699 0.0
C417 C 0.80824 0.57488 0.55634 0.0
C418 C 0.79646 0.61652 0.54857 0.0
C419 C 0.81275 0.85334 0.57675 0.0
C420 C 0.85787 0.85121 0.57111 0.0
C421 C 0.78116 0.82363 0.56737 0.0
C422 C 0.79413 0.79116 0.55223 0.0
C423 C 0.83884 0.78972 0.54606 0.0
C424 C 0.87037 0.81966 0.55529 0.0
C425 C 0.76211 0.75654 0.54441 0.0
C426 C 0.77311 0.71374 0.55063 0.0
C427 C 0.72003 0.76554 0.53242 0.0
C428 C 0.70698 0.81009 0.52497 0.0
C429 C 0.7351 0.83445 0.51168 0.0
C430 C 0.7227 0.87651 0.50484 0.0
C431 C 0.68211 0.89448 0.51108 0.0
C432 C 0.65377 0.87038 0.52411 0.0
C433 C 0.66603 0.82832 0.531 0.0
H434 H 0.67257 0.92705 0.50577 0.0
H435 H 0.78869 0.51992 0.57582 0.0
H436 H 0.63442 0.44756 0.46487 0.0
H437 H 0.69589 0.4042 0.45062 0.0
H438 H 0.63292 0.2875 0.47256 0.0
H439 H 0.57106 0.33061 0.48635 0.0
H440 H 0.72016 0.29633 0.49063 0.0
H441 H 0.63797 0.3086 0.41647 0.0
H442 H 0.60038 0.34807 0.38368 0.0
H443 H 0.72433 0.41219 0.37236 0.0
H444 H 0.76253 0.37369 0.40533 0.0
H445 H 0.86072 0.13328 0.44954 0.0
H446 H 0.79813 0.18096 0.45796 0.0
H447 H 0.86306 0.28809 0.42685 0.0
H448 H 0.92552 0.24015 0.41801 0.0
H449 H 0.77701 0.28837 0.41299 0.0
H450 H 0.85963 0.27989 0.48587 0.0
H451 H 0.89963 0.24484 0.51942 0.0
H452 H 0.77812 0.17986 0.53436 0.0
H453 H 0.73751 0.21406 0.5007 0.0
C454 C 0.63266 0.41256 0.46566 0.0
C455 C 0.59752 0.39237 0.47629 0.0
C456 C 0.66807 0.38783 0.45776 0.0
C457 C 0.66897 0.34261 0.46054 0.0
C458 C 0.63291 0.32234 0.47028 0.0
C459 C 0.59754 0.34697 0.47806 0.0
C460 C 0.70927 0.3167 0.45542 0.0
C461 C 0.73222 0.29406 0.47357 0.0
C462 C 0.72606 0.31536 0.43339 0.0
C463 C 0.70306 0.33846 0.41351 0.0
C464 C 0.65715 0.33139 0.40713 0.0
C465 C 0.63575 0.35351 0.38847 0.0
C466 C 0.65999 0.38253 0.37593 0.0
C467 C 0.70562 0.38963 0.38207 0.0
C468 C 0.72718 0.36764 0.40073 0.0
C469 C 0.86207 0.16716 0.44486 0.0
C470 C 0.89822 0.18299 0.43325 0.0
C471 C 0.82617 0.19442 0.44962 0.0
C472 C 0.82595 0.23833 0.44324 0.0
C473 C 0.86232 0.25436 0.43188 0.0
C474 C 0.89807 0.22697 0.42692 0.0
C475 C 0.78741 0.26715 0.44814 0.0
C476 C 0.76497 0.29058 0.43005 0.0
C477 C 0.77135 0.26988 0.47033 0.0
C478 C 0.79563 0.24925 0.49062 0.0
C479 C 0.84152 0.25786 0.4962 0.0
C480 C 0.86429 0.23819 0.51526 0.0
C481 C 0.84146 0.21006 0.52898 0.0
C482 C 0.79577 0.20162 0.5237 0.0
C483 C 0.77285 0.22117 0.50464 0.0
H484 H 0.85915 0.19487 0.54373 0.0
H485 H 0.64345 0.39943 0.36143 0.0
H486 H 0.45603 0.3561 0.52547 0.0
H487 H 0.416 0.29412 0.54069 0.0
H488 H 0.29311 0.36952 0.53766 0.0
H489 H 0.33232 0.43071 0.52202 0.0
H490 H 0.31353 0.31928 0.57973 0.0
H491 H 0.30455 0.30692 0.49589 0.0
H492 H 0.33868 0.30056 0.45879 0.0
H493 H 0.40791 0.18428 0.48177 0.0
H494 H 0.37464 0.19035 0.51916 0.0
H495 H 0.12582 0.18795 0.58185 0.0
H496 H 0.18142 0.23983 0.57024 0.0
H497 H 0.27451 0.13483 0.55979 0.0
H498 H 0.21798 0.0826 0.57067 0.0
H499 H 0.28151 0.19335 0.52792 0.0
H500 H 0.28388 0.1978 0.60916 0.0
H501 H 0.25293 0.20258 0.64711 0.0
H502 H 0.20248 0.33064 0.6315 0.0
H503 H 0.2325 0.32639 0.59329 0.0
C504 C 0.42064 0.35948 0.52839 0.0
C505 C 0.39712 0.39798 0.52248 0.0
C506 C 0.39787 0.32415 0.53697 0.0
C507 C 0.35164 0.32738 0.54016 0.0
C508 C 0.32878 0.3665 0.53531 0.0
C509 C 0.35117 0.40132 0.52631 0.0
C510 C 0.32586 0.28965 0.54736 0.0
C511 C 0.30641 0.2917 0.56846 0.0
C512 C 0.31794 0.25316 0.53291 0.0
C513 C 0.33761 0.2494 0.5104 0.0
C514 C 0.32739 0.28023 0.4931 0.0
C515 C 0.3465 0.27664 0.47201 0.0
C516 C 0.37558 0.24212 0.46795 0.0
C517 C 0.38547 0.21105 0.48496 0.0
C518 C 0.36649 0.21455 0.5061 0.0
C519 C 0.15797 0.17599 0.5768 0.0
C520 C 0.16785 0.13144 0.57726 0.0
C521 C 0.18985 0.2056 0.57035 0.0
C522 C 0.23268 0.19135 0.5648 0.0
C523 C 0.24186 0.14662 0.5642 0.0
C524 C 0.20958 0.11683 0.57033 0.0
C525 C 0.26782 0.22345 0.56012 0.0
C526 C 0.28913 0.22038 0.5395 0.0
C527 C 0.27807 0.25874 0.57523 0.0
C528 C 0.26022 0.26164 0.59828 0.0
C529 C 0.26594 0.22688 0.61376 0.0
C530 C 0.24858 0.2295 0.63532 0.0
C531 C 0.2257 0.26686 0.6417 0.0
C532 C 0.22021 0.30172 0.62653 0.0
C533 C 0.23744 0.29924 0.60493 0.0
H534 H 0.21227 0.26883 0.6584 0.0
H535 H 0.39034 0.23939 0.45161 0.0
H536 H 0.50283 0.65237 0.49059 0.0
H537 H 0.47451 0.72751 0.48847 0.0
H538 H 0.35633 0.68868 0.5216 0.0
H539 H 0.38463 0.6145 0.52375 0.0
H540 H 0.40196 0.74575 0.46238 0.0
H541 H 0.30258 0.76998 0.54458 0.0
H542 H 0.31538 0.75859 0.5863 0.0
H543 H 0.45842 0.76445 0.58124 0.0
H544 H 0.44655 0.77658 0.53954 0.0
H545 H 0.19077 0.83525 0.43819 0.0
H546 H 0.25343 0.79192 0.45502 0.0
H547 H 0.31034 0.90549 0.489 0.0
H548 H 0.24761 0.94966 0.47177 0.0
H549 H 0.31559 0.83038 0.51699 0.0
H550 H 0.35765 0.87362 0.44373 0.0
H551 H 0.34691 0.88657 0.40205 0.0
H552 H 0.32593 0.75049 0.39004 0.0
H553 H 0.33583 0.73678 0.43169 0.0
C554 C 0.472 0.66059 0.49844 0.0
C555 C 0.44591 0.62796 0.50743 0.0
C556 C 0.45559 0.70337 0.49705 0.0
C557 C 0.41316 0.71395 0.50485 0.0
C558 C 0.3894 0.68185 0.5158 0.0
C559 C 0.40558 0.63932 0.51702 0.0
C560 C 0.38956 0.75519 0.49797 0.0
C561 C 0.38382 0.7647 0.47444 0.0
C562 C 0.36629 0.7806 0.51365 0.0
C563 C 0.37362 0.77409 0.53885 0.0
C564 C 0.33677 0.76923 0.55236 0.0
C565 C 0.34387 0.76253 0.57603 0.0
C566 C 0.38768 0.76074 0.58641 0.0
C567 C 0.4245 0.76574 0.57317 0.0
C568 C 0.4176 0.77247 0.54951 0.0
C569 C 0.21662 0.85121 0.44916 0.0
C570 C 0.21449 0.89614 0.45329 0.0
C571 C 0.25238 0.82631 0.45885 0.0
C572 C 0.28699 0.84559 0.47294 0.0
C573 C 0.28408 0.89002 0.47808 0.0
C574 C 0.24815 0.91515 0.46827 0.0
C575 C 0.32652 0.8189 0.48146 0.0
C576 C 0.33491 0.81213 0.50515 0.0
C577 C 0.35279 0.79629 0.466 0.0
C578 C 0.34735 0.80422 0.44087 0.0
C579 C 0.3505 0.84648 0.43222 0.0
C580 C 0.34458 0.85396 0.40859 0.0
C581 C 0.33571 0.81938 0.39341 0.0
C582 C 0.33283 0.77724 0.40182 0.0
C583 C 0.33867 0.76959 0.42544 0.0
H584 H 0.33111 0.82524 0.37512 0.0
H585 H 0.3931 0.7555 0.60473 0.0
H586 H 0.95247 -0.00147 0.07705 0.0
H587 H 0.91956 0.98031 0.11298 0.0
H588 H 0.04596 0.92234 0.1384 0.0
H589 H 0.07804 0.93894 0.10235 0.0
H590 H 0.97906 0.87978 0.15502 0.0
H591 H 0.01912 0.03433 0.14695 0.0
H592 H 0.01035 0.10512 0.12751 0.0
H593 H 0.86857 0.10495 0.137 0.0
H594 H 0.87656 0.03392 0.15631 0.0
H595 H 0.0487 0.93662 0.26765 0.0
H596 H 0.03306 0.92443 0.22661 0.0
H597 H 0.89845 0.97532 0.23049 0.0
H598 H 0.91348 0.98681 0.27186 0.0
H599 H 0.94148 0.01381 0.1971 0.0
H600 H 0.91147 0.86969 0.21758 0.0
H601 H 0.92319 0.80016 0.23785 0.0
H602 H 0.04673 0.77971 0.20564 0.0
H603 H 0.03618 0.84943 0.18542 0.0
C604 C 0.9725 0.98036 0.08998 0.0
C605 C 0.01775 0.97013 0.08699 0.0
C606 C 0.95382 0.97025 0.1106 0.0
C607 C 0.98049 0.95049 0.12859 0.0
C608 C 0.02464 0.93755 0.12484 0.0
C609 C 0.0431 0.94737 0.10429 0.0
C610 C 0.96576 0.94834 0.1523 0.0
C611 C 0.97057 0.90897 0.16424 0.0
C612 C 0.953 0.98609 0.16417 0.0
C613 C 0.94835 0.02887 0.15287 0.0
C614 C 0.9861 0.04942 0.14483 0.0
C615 C 0.98126 0.08952 0.13383 0.0
C616 C 0.93891 0.10948 0.13099 0.0
C617 C 0.90133 0.08943 0.13919 0.0
C618 C 0.90599 0.04929 0.15017 0.0
C619 C 0.01534 0.9442 0.25997 0.0
C620 C 0.98241 0.9628 0.27312 0.0
C621 C 0.00643 0.9372 0.23645 0.0
C622 C 0.96439 0.94852 0.22551 0.0
C623 C 0.93105 0.96622 0.2386 0.0
C624 C 0.93986 0.97304 0.26221 0.0
C625 C 0.95746 0.94572 0.20012 0.0
C626 C 0.9484 0.98417 0.18786 0.0
C627 C 0.96657 0.90714 0.18804 0.0
C628 C 0.97305 0.86493 0.20002 0.0
C629 C 0.94129 0.85051 0.21491 0.0
C630 C 0.94771 0.81103 0.22639 0.0
C631 C 0.98569 0.78555 0.22305 0.0
C632 C 0.0173 0.79946 0.20819 0.0
C633 C 0.01106 0.83893 0.19668 0.0
H634 H 0.99061 0.755 0.23196 0.0
H635 H 0.93522 0.14052 0.12246 0.0
H636 H 0.11161 0.00167 0.94804 0.0
H637 H 0.13225 0.99211 0.90848 0.0
H638 H 0.02684 0.89773 0.89658 0.0
H639 H 0.00689 0.90643 0.93619 0.0
H640 H 0.14616 0.92069 0.87265 0.0
H641 H 0.95616 0.94842 0.85633 0.0
H642 H 0.89287 0.97854 0.87655 0.0
H643 H 0.98319 0.06593 0.91404 0.0
H644 H 0.04673 0.03693 0.8937 0.0
H645 H 0.07115 0.89462 0.75368 0.0
H646 H 0.08078 0.89048 0.79566 0.0
H647 H 0.06972 0.02975 0.80016 0.0
H648 H 0.05931 0.03407 0.75831 0.0
H649 H 0.01565 0.98934 0.8286 0.0
H650 H 0.17153 0.98211 0.81143 0.0
H651 H 0.23633 0.95301 0.79208 0.0
H652 H 0.2167 0.82773 0.82137 0.0
H653 H 0.15129 0.85595 0.84056 0.0
C654 C 0.09494 0.9768 0.93745 0.0
C655 C 0.0579 0.95458 0.94513 0.0
C656 C 0.10648 0.97163 0.91478 0.0
C657 C 0.08057 0.94471 0.89962 0.0
C658 C 0.04705 0.91878 0.90806 0.0
C659 C 0.03568 0.92379 0.93067 0.0
C660 C 0.08118 0.95074 0.87455 0.0
C661 C 0.11755 0.93515 0.86294 0.0
C662 C 0.04451 0.9713 0.86207 0.0
C663 C 0.0062 0.99016 0.87369 0.0
C664 C 0.9624 0.97425 0.86878 0.0
C665 C 0.92651 0.99111 0.88027 0.0
C666 C 0.93403 0.02402 0.89663 0.0
C667 C 0.97742 0.04034 0.90143 0.0
C668 C 0.01337 0.0237 0.88993 0.0
C669 C 0.07073 0.92432 0.76364 0.0
C670 C 0.06445 0.96467 0.75272 0.0
C671 C 0.07667 0.92194 0.78758 0.0
C672 C 0.07634 0.95985 0.80098 0.0
C673 C 0.07028 0.00014 0.79011 0.0
C674 C 0.06457 0.00257 0.76621 0.0
C675 C 0.0799 0.95746 0.82637 0.0
C676 C 0.04418 0.97418 0.83815 0.0
C677 C 0.11728 0.93807 0.83891 0.0
C678 C 0.15654 0.92111 0.82739 0.0
C679 C 0.1809 0.9483 0.81363 0.0
C680 C 0.21773 0.93197 0.80269 0.0
C681 C 0.23062 0.88855 0.80549 0.0
C682 C 0.20671 0.86137 0.81923 0.0
C683 C 0.16981 0.87752 0.83016 0.0
H684 H 0.25915 0.87597 0.79702 0.0
H685 H 0.90623 0.03693 0.90555 0.0
H686 H 0.54013 0.5865 0.56611 0.0
H687 H 0.5464 0.61158 0.60619 0.0
H688 H 0.45056 0.51487 0.62331 0.0
H689 H 0.44534 0.489 0.58349 0.0
H690 H 0.44521 0.59832 0.64804 0.0
H691 H 0.54966 0.48503 0.62754 0.0
H692 H 0.60962 0.45339 0.60563 0.0
H693 H 0.69788 0.55768 0.62747 0.0
H694 H 0.63788 0.59064 0.64893 0.0
H695 H 0.49147 0.53371 0.76252 0.0
H696 H 0.47733 0.53859 0.72089 0.0
H697 H 0.60003 0.61118 0.71711 0.0
H698 H 0.61477 0.60556 0.75887 0.0
H699 H 0.59389 0.55295 0.68467 0.0
H700 H 0.49387 0.66064 0.71025 0.0
H701 H 0.43484 0.69127 0.73314 0.0
H702 H 0.33955 0.59962 0.70306 0.0
H703 H 0.39818 0.56798 0.68022 0.0
C704 C 0.51905 0.57192 0.57824 0.0
C705 C 0.49216 0.53601 0.57185 0.0
C706 C 0.52285 0.58603 0.60112 0.0
C707 C 0.49916 0.56481 0.61767 0.0
C708 C 0.46896 0.53172 0.61076 0.0
C709 C 0.46598 0.51699 0.58807 0.0
C710 C 0.51066 0.57206 0.64247 0.0
C711 C 0.47767 0.58853 0.65614 0.0
C712 C 0.55336 0.55999 0.65285 0.0
C713 C 0.58903 0.5407 0.63949 0.0
C714 C 0.58157 0.50162 0.62733 0.0
C715 C 0.6156 0.48338 0.61503 0.0
C716 C 0.65747 0.5036 0.61506 0.0
C717 C 0.66535 0.54216 0.62734 0.0
C718 C 0.63131 0.5607 0.63952 0.0
C719 C 0.51532 0.55088 0.75281 0.0
C720 C 0.55411 0.56943 0.76392 0.0
C721 C 0.50708 0.5539 0.72904 0.0
C722 C 0.53705 0.57616 0.71588 0.0
C723 C 0.57625 0.59412 0.72691 0.0
C724 C 0.58476 0.59072 0.75072 0.0
C725 C 0.52828 0.57889 0.69054 0.0
C726 C 0.56174 0.56393 0.6767 0.0
C727 C 0.48608 0.59261 0.68006 0.0
C728 C 0.45055 0.61176 0.69361 0.0
C729 C 0.4604 0.64683 0.70861 0.0
C730 C 0.427 0.6644 0.72157 0.0
C731 C 0.38349 0.64736 0.71958 0.0
C732 C 0.37327 0.61278 0.70458 0.0
C733 C 0.40656 0.59506 0.6916 0.0
H734 H 0.35768 0.661 0.72964 0.0
H735 H 0.68388 0.48923 0.60566 0.0
H736 H 0.58088 0.47015 0.43596 0.0
H737 H 0.60627 0.4528 0.39796 0.0
H738 H 0.46854 0.45973 0.36915 0.0
H739 H 0.44315 0.47467 0.4069 0.0
H740 H 0.50897 0.3927 0.35181 0.0
H741 H 0.54929 0.54614 0.36729 0.0
H742 H 0.59169 0.60275 0.38956 0.0
H743 H 0.71628 0.53856 0.37734 0.0
H744 H 0.67451 0.48147 0.35513 0.0
H745 H 0.48292 0.46792 0.24017 0.0
H746 H 0.48858 0.45621 0.28146 0.0
H747 H 0.63249 0.43911 0.28087 0.0
H748 H 0.62705 0.45038 0.23918 0.0
H749 H 0.61044 0.49373 0.31502 0.0
H750 H 0.56912 0.35211 0.29054 0.0
H751 H 0.52669 0.29625 0.26783 0.0
H752 H 0.40465 0.33633 0.29693 0.0
H753 H 0.44615 0.39287 0.31956 0.0
C754 C 0.55612 0.46719 0.42158 0.0
C755 C 0.51004 0.47332 0.42457 0.0
C756 C 0.57065 0.45764 0.39982 0.0
C757 C 0.5393 0.45499 0.38063 0.0
C758 C 0.49338 0.46117 0.38368 0.0
C759 C 0.47892 0.4701 0.40533 0.0
C760 C 0.55319 0.44742 0.35704 0.0
C761 C 0.53119 0.41475 0.34375 0.0
C762 C 0.5839 0.47476 0.34676 0.0
C763 C 0.60883 0.50939 0.3598 0.0
C764 C 0.58571 0.54407 0.36945 0.0
C765 C 0.60962 0.57623 0.38204 0.0
C766 C 0.65664 0.57419 0.38492 0.0
C767 C 0.67986 0.54007 0.37513 0.0
C768 C 0.65611 0.50783 0.36254 0.0
C769 C 0.51572 0.4608 0.24867 0.0
C770 C 0.55448 0.45976 0.23631 0.0
C771 C 0.51892 0.45417 0.27232 0.0
C772 C 0.56088 0.4461 0.28419 0.0
C773 C 0.59977 0.44508 0.272 0.0
C774 C 0.59659 0.45168 0.24823 0.0
C775 C 0.56356 0.44108 0.3095 0.0
C776 C 0.58905 0.47096 0.32313 0.0
C777 C 0.53596 0.41119 0.32011 0.0
C778 C 0.51081 0.37684 0.30673 0.0
C779 C 0.53319 0.34917 0.29202 0.0
C780 C 0.5093 0.31736 0.27916 0.0
C781 C 0.46301 0.31275 0.28093 0.0
C782 C 0.44052 0.3399 0.2956 0.0
C783 C 0.46424 0.37178 0.30848 0.0
H784 H 0.44456 0.28813 0.27095 0.0
H785 H 0.67509 0.59909 0.39469 0.0
loop_
_geom_bond_atom_site_label_1
_geom_bond_atom_site_label_2
_geom_bond_distance
_geom_bond_site_symmetry_2
_ccdc_geom_bond_type
Zn0 O6 1.910 1_546 S
Zn0 O12 1.898 . S
Zn0 O15 1.905 1_545 S
Zn1 O9 1.905 . S
Zn1 O10 1.898 1_545 S
Zn1 O18 1.920 1_545 S
Zn2 O5 2.080 1_445 S
Zn2 O8 2.114 . S
Zn2 O11 2.120 1_545 S
Zn2 O13 2.120 1_455 S
Zn2 O14 2.114 1_554 S
Zn2 O17 2.080 . S
C3 O8 1.166 . S
C3 O9 1.182 . S
C4 O10 1.167 . S
C4 O11 1.299 . S
O5 Zn2 2.080 1_665 S
O5 C19 1.305 . S
O6 Zn0 1.910 1_564 S
O6 C19 1.242 . S
C7 O12 1.178 . S
C7 O13 1.290 1_556 S
O8 Zn2 2.114 . S
O8 C3 1.166 . S
O9 Zn1 1.905 . S
O9 C3 1.182 . S
O10 Zn1 1.898 1_565 S
O10 C4 1.167 . S
O11 Zn2 2.120 1_565 S
O11 C4 1.299 . S
O12 Zn0 1.898 . S
O12 C7 1.178 . S
O13 Zn2 2.120 1_655 S
O13 C7 1.290 1_554 S
O14 Zn2 2.114 1_556 S
O14 C16 1.166 1_545 S
O15 Zn0 1.905 1_565 S
O15 C16 1.182 1_655 S
C16 O14 1.166 1_565 S
C16 O15 1.182 1_455 S
O17 Zn2 2.080 . S
O17 C20 1.305 1_545 S
O18 Zn1 1.920 1_565 S
O18 C20 1.234 . S
C19 O5 1.305 . S
C19 O6 1.242 . S
C20 O17 1.305 1_565 S
C20 O18 1.234 . S
Zn21 O27 1.920 . S
Zn21 O33 1.898 . S
Zn21 O36 1.905 . S
Zn22 O30 1.905 . S
Zn22 O31 1.898 . S
Zn22 O39 1.920 . S
Zn23 O26 2.080 . S
Zn23 O29 2.114 . S
Zn23 O32 2.120 . S
Zn23 O34 2.120 . S
Zn23 O35 2.114 . S
Zn23 O38 2.080 . S
C24 O29 1.166 . S
C24 O30 1.182 . S
C25 O31 1.167 . S
C25 O32 1.299 . S
O26 Zn23 2.080 . S
O26 C40 1.305 . S
O27 Zn21 1.920 . S
O27 C40 1.234 . S
C28 O33 1.167 . S
C28 O34 1.299 . S
O29 Zn23 2.114 . S
O29 C24 1.166 . S
O30 Zn22 1.905 . S
O30 C24 1.182 . S
O31 Zn22 1.898 . S
O31 C25 1.167 . S
O32 Zn23 2.120 . S
O32 C25 1.299 . S
O33 Zn21 1.898 . S
O33 C28 1.167 . S
O34 Zn23 2.120 . S
O34 C28 1.299 . S
O35 Zn23 2.114 . S
O35 C37 1.166 . S
O36 Zn21 1.905 . S
O36 C37 1.182 . S
C37 O35 1.166 . S
C37 O36 1.182 . S
O38 Zn23 2.080 . S
O38 C41 1.305 . S
O39 Zn22 1.920 . S
O39 C41 1.234 . S
C40 O26 1.305 . S
C40 O27 1.234 . S
C41 O38 1.305 . S
C41 O39 1.234 . S
C42 C43 1.384 . S
C42 H55 0.947 . S
C42 C77 1.382 . S
C43 C42 1.384 . S
C43 C44 1.378 . S
C44 C43 1.378 . S
C44 C45 1.378 1_655 S
C44 H56 0.952 . S
C45 C44 1.378 1_455 S
C45 H57 0.950 . S
C45 C76 1.383 . S
H46 C65 0.947 . S
H47 C66 0.946 . S
H48 C68 0.953 . S
H49 C69 0.945 . S
H50 C71 0.952 1_565 S
H51 C72 0.949 1_565 S
H52 C74 0.950 . S
H53 C75 0.948 . S
H54 C77 0.951 . S
H55 C42 0.947 . S
H56 C44 0.952 . S
H57 C45 0.950 . S
N58 C61 1.382 . S
N58 C63 1.363 . S
N59 C61 1.371 . S
N59 C62 1.372 . S
N60 C62 1.361 . S
N60 C63 1.377 . S
C61 N58 1.382 . S
C61 N59 1.371 . S
C61 C64 1.480 1_545 S
C62 N59 1.372 . S
C62 N60 1.361 . S
C62 C70 1.457 . S
C63 N58 1.363 . S
C63 N60 1.377 . S
C63 C76 1.479 . S
C64 C61 1.480 1_565 S
C64 C65 1.383 . S
C64 C69 1.385 . S
C65 H46 0.947 . S
C65 C64 1.383 . S
C65 C66 1.388 . S
C66 H47 0.946 . S
C66 C65 1.388 . S
C66 C67 1.384 . S
C67 C66 1.384 . S
C67 C68 1.377 . S
C68 H48 0.953 . S
C68 C67 1.377 . S
C68 C69 1.369 . S
C69 H49 0.945 . S
C69 C64 1.385 . S
C69 C68 1.369 . S
C70 C62 1.457 . S
C70 C71 1.372 . S
C70 C75 1.364 . S
C71 H50 0.952 1_545 S
C71 C70 1.372 . S
C71 C72 1.389 . S
C72 H51 0.949 1_545 S
C72 C71 1.389 . S
C72 C73 1.387 . S
C73 C72 1.387 . S
C73 C74 1.372 . S
C74 H52 0.950 . S
C74 C73 1.372 . S
C74 C75 1.379 . S
C75 H53 0.948 . S
C75 C70 1.364 . S
C75 C74 1.379 . S
C76 C45 1.383 . S
C76 C63 1.479 . S
C76 C77 1.398 1_455 S
C77 C42 1.382 . S
C77 H54 0.951 . S
C77 C76 1.398 1_655 S
C78 C79 1.384 . S
C78 H91 0.947 . S
C78 C113 1.382 . S
C79 C78 1.384 . S
C79 C80 1.378 . S
C80 C79 1.378 . S
C80 C81 1.378 . S
C80 H92 0.952 . S
C81 C80 1.378 . S
C81 H93 0.950 . S
C81 C112 1.383 . S
H82 C101 0.947 . S
H83 C102 0.946 . S
H84 C104 0.953 . S
H85 C105 0.945 . S
H86 C107 0.952 . S
H87 C108 0.949 . S
H88 C110 0.950 . S
H89 C111 0.948 . S
H90 C113 0.951 . S
H91 C78 0.947 . S
H92 C80 0.952 . S
H93 C81 0.950 . S
N94 C97 1.382 . S
N94 C99 1.363 1_445 S
N95 C97 1.371 . S
N95 C98 1.372 . S
N96 C98 1.361 1_665 S
N96 C99 1.377 . S
C97 N94 1.382 . S
C97 N95 1.371 . S
C97 C100 1.480 . S
C98 N95 1.372 . S
C98 N96 1.361 1_445 S
C98 C106 1.457 . S
C99 N94 1.363 1_665 S
C99 N96 1.377 . S
C99 C112 1.479 . S
C100 C97 1.480 . S
C100 C101 1.383 . S
C100 C105 1.385 . S
C101 H82 0.947 . S
C101 C100 1.383 . S
C101 C102 1.388 . S
C102 H83 0.946 . S
C102 C101 1.388 . S
C102 C103 1.384 . S
C103 C102 1.384 . S
C103 C104 1.377 . S
C104 H84 0.953 . S
C104 C103 1.377 . S
C104 C105 1.369 . S
C105 H85 0.945 . S
C105 C100 1.385 . S
C105 C104 1.369 . S
C106 C98 1.457 . S
C106 C107 1.372 . S
C106 C111 1.364 1_445 S
C107 H86 0.952 . S
C107 C106 1.372 . S
C107 C108 1.389 . S
C108 H87 0.949 . S
C108 C107 1.389 . S
C108 C109 1.387 . S
C109 C108 1.387 . S
C109 C110 1.372 1_445 S
C110 H88 0.950 . S
C110 C109 1.372 1_665 S
C110 C111 1.379 . S
C111 H89 0.948 . S
C111 C106 1.364 1_665 S
C111 C110 1.379 . S
C112 C81 1.383 . S
C112 C99 1.479 . S
C112 C113 1.398 . S
C113 C78 1.382 . S
C113 H90 0.951 . S
C113 C112 1.398 . S
C114 C115 1.384 . S
C114 H127 0.947 . S
C114 C149 1.382 . S
C115 C114 1.384 . S
C115 C116 1.378 . S
C116 C115 1.378 . S
C116 C117 1.378 . S
C116 H128 0.952 . S
C117 C116 1.378 . S
C117 H129 0.950 . S
C117 C148 1.383 . S
H118 C137 0.947 . S
H119 C138 0.946 . S
H120 C140 0.953 . S
H121 C141 0.945 . S
H122 C143 0.952 . S
H123 C144 0.949 . S
H124 C146 0.950 . S
H125 C147 0.948 . S
H126 C149 0.951 . S
H127 C114 0.947 . S
H128 C116 0.952 . S
H129 C117 0.950 . S
N130 C133 1.382 . S
N130 C135 1.363 . S
N131 C133 1.371 . S
N131 C134 1.372 . S
N132 C134 1.361 . S
N132 C135 1.377 . S
C133 N130 1.382 . S
C133 N131 1.371 . S
C133 C136 1.480 . S
C134 N131 1.372 . S
C134 N132 1.361 . S
C134 C142 1.457 . S
C135 N130 1.363 . S
C135 N132 1.377 . S
C135 C148 1.479 . S
C136 C133 1.480 . S
C136 C137 1.383 . S
C136 C141 1.385 . S
C137 H118 0.947 . S
C137 C136 1.383 . S
C137 C138 1.388 . S
C138 H119 0.946 . S
C138 C137 1.388 . S
C138 C139 1.384 . S
C139 C138 1.384 . S
C139 C140 1.377 . S
C140 H120 0.953 . S
C140 C139 1.377 . S
C140 C141 1.369 . S
C141 H121 0.945 . S
C141 C136 1.385 . S
C141 C140 1.369 . S
C142 C134 1.457 . S
C142 C143 1.372 . S
C142 C147 1.364 . S
C143 H122 0.952 . S
C143 C142 1.372 . S
C143 C144 1.389 . S
C144 H123 0.949 . S
C144 C143 1.389 . S
C144 C145 1.387 . S
C145 C144 1.387 . S
C145 C146 1.372 . S
C146 H124 0.950 . S
C146 C145 1.372 . S
C146 C147 1.379 . S
C147 H125 0.948 . S
C147 C142 1.364 . S
C147 C146 1.379 . S
C148 C117 1.383 . S
C148 C135 1.479 . S
C148 C149 1.398 . S
C149 C114 1.382 . S
C149 H126 0.951 . S
C149 C148 1.398 . S
C150 C151 1.384 . S
C150 H163 0.947 . S
C150 C185 1.382 . S
C151 C150 1.384 . S
C151 C152 1.378 . S
C152 C151 1.378 . S
C152 C153 1.378 . S
C152 H164 0.952 . S
C153 C152 1.378 . S
C153 H165 0.950 . S
C153 C184 1.383 . S
H154 C173 0.947 . S
H155 C174 0.946 . S
H156 C176 0.953 . S
H157 C177 0.945 . S
H158 C179 0.952 . S
H159 C180 0.949 . S
H160 C182 0.950 . S
H161 C183 0.948 . S
H162 C185 0.951 . S
H163 C150 0.947 . S
H164 C152 0.952 . S
H165 C153 0.950 . S
N166 C169 1.382 . S
N166 C171 1.363 . S
N167 C169 1.371 . S
N167 C170 1.372 . S
N168 C170 1.361 . S
N168 C171 1.377 . S
C169 N166 1.382 . S
C169 N167 1.371 . S
C169 C172 1.480 . S
C170 N167 1.372 . S
C170 N168 1.361 . S
C170 C178 1.457 . S
C171 N166 1.363 . S
C171 N168 1.377 . S
C171 C184 1.479 . S
C172 C169 1.480 . S
C172 C173 1.383 . S
C172 C177 1.385 . S
C173 H154 0.947 . S
C173 C172 1.383 . S
C173 C174 1.388 . S
C174 H155 0.946 . S
C174 C173 1.388 . S
C174 C175 1.384 . S
C175 C174 1.384 . S
C175 C176 1.377 . S
C176 H156 0.953 . S
C176 C175 1.377 . S
C176 C177 1.369 . S
C177 H157 0.945 . S
C177 C172 1.385 . S
C177 C176 1.369 . S
C178 C170 1.457 . S
C178 C179 1.372 . S
C178 C183 1.364 . S
C179 H158 0.952 . S
C179 C178 1.372 . S
C179 C180 1.389 . S
C180 H159 0.949 . S
C180 C179 1.389 . S
C180 C181 1.387 . S
C181 C180 1.387 . S
C181 C182 1.372 . S
C182 H160 0.950 . S
C182 C181 1.372 . S
C182 C183 1.379 . S
C183 H161 0.948 . S
C183 C178 1.364 . S
C183 C182 1.379 . S
C184 C153 1.383 . S
C184 C171 1.479 . S
C184 C185 1.398 . S
C185 C150 1.382 . S
C185 H162 0.951 . S
C185 C184 1.398 . S
H186 C204 0.951 . S
H187 C206 0.951 . S
H188 C208 0.950 1_556 S
H189 C209 0.950 1_556 S
H190 C211 0.950 . S
H191 C214 0.950 . S
H192 C215 0.950 . S
H193 C217 0.950 . S
H194 C218 0.950 . S
H195 C219 0.951 . S
H196 C221 0.951 . S
H197 C223 0.950 . S
H198 C224 0.950 . S
H199 C226 0.950 . S
H200 C229 0.950 . S
H201 C230 0.950 . S
H202 C232 0.950 . S
H203 C233 0.950 . S
C204 H186 0.951 . S
C204 C205 1.366 . S
C204 C206 1.388 . S
C205 C204 1.366 . S
C205 C209 1.385 . S
C206 H187 0.951 . S
C206 C204 1.388 . S
C206 C207 1.366 . S
C207 C206 1.366 . S
C207 C208 1.414 . S
C207 C210 1.499 . S
C208 H188 0.950 1_554 S
C208 C207 1.414 . S
C208 C209 1.374 . S
C209 H189 0.950 1_554 S
C209 C205 1.385 . S
C209 C208 1.374 . S
C210 C207 1.499 . S
C210 C211 1.373 . S
C210 C212 1.389 . S
C211 H190 0.950 . S
C211 C210 1.373 . S
C211 C227 1.377 . S
C212 C210 1.389 . S
C212 C213 1.524 . S
C212 C226 1.377 . S
C213 C212 1.524 . S
C213 C214 1.397 . S
C213 C218 1.363 . S
C214 H191 0.950 . S
C214 C213 1.397 . S
C214 C215 1.334 . S
C215 H192 0.950 . S
C215 C214 1.334 . S
C215 C216 1.287 . S
C216 C215 1.287 . S
C216 C217 1.524 . S
C216 H235 0.913 . S
C217 H193 0.950 . S
C217 C216 1.524 . S
C217 C218 1.415 . S
C218 H194 0.950 . S
C218 C213 1.363 . S
C218 C217 1.415 . S
C219 H195 0.951 . S
C219 C220 1.366 . S
C219 C221 1.388 . S
C220 C219 1.366 . S
C220 C224 1.385 . S
C221 H196 0.951 . S
C221 C219 1.388 . S
C221 C222 1.366 . S
C222 C221 1.366 . S
C222 C223 1.414 . S
C222 C225 1.499 . S
C223 H197 0.950 . S
C223 C222 1.414 . S
C223 C224 1.374 . S
C224 H198 0.950 . S
C224 C220 1.385 . S
C224 C223 1.374 . S
C225 C222 1.499 . S
C225 C226 1.373 . S
C225 C227 1.389 . S
C226 H199 0.950 . S
C226 C212 1.377 . S
C226 C225 1.373 . S
C227 C211 1.377 . S
C227 C225 1.389 . S
C227 C228 1.524 . S
C228 C227 1.524 . S
C228 C229 1.397 . S
C228 C233 1.363 1_554 S
C229 H200 0.950 . S
C229 C228 1.397 . S
C229 C230 1.334 . S
C230 H201 0.950 . S
C230 C229 1.334 . S
C230 C231 1.287 1_554 S
C231 C230 1.287 1_556 S
C231 C232 1.524 . S
C231 H234 0.999 . S
C232 H202 0.950 . S
C232 C231 1.524 . S
C232 C233 1.415 . S
C233 H203 0.950 . S
C233 C228 1.363 1_556 S
C233 C232 1.415 . S
H234 C231 0.999 . S
H235 C216 0.913 . S
H236 C254 0.951 . S
H237 C256 0.951 . S
H238 C258 0.950 . S
H239 C259 0.950 . S
H240 C261 0.950 1_554 S
H241 C264 0.950 . S
H242 C265 0.950 . S
H243 C267 0.950 . S
H244 C268 0.950 . S
H245 C269 0.951 . S
H246 C271 0.951 . S
H247 C273 0.950 . S
H248 C274 0.950 . S
H249 C276 0.950 . S
H250 C279 0.950 1_556 S
H251 C280 0.950 . S
H252 C282 0.950 . S
H253 C283 0.950 . S
C254 H236 0.951 . S
C254 C255 1.366 . S
C254 C256 1.388 . S
C255 C254 1.366 . S
C255 C259 1.385 1_556 S
C256 H237 0.951 . S
C256 C254 1.388 . S
C256 C257 1.366 . S
C257 C256 1.366 . S
C257 C258 1.414 1_556 S
C257 C260 1.499 . S
C258 H238 0.950 . S
C258 C257 1.414 1_554 S
C258 C259 1.374 . S
C259 H239 0.950 . S
C259 C255 1.385 1_554 S
C259 C258 1.374 . S
C260 C257 1.499 . S
C260 C261 1.373 . S
C260 C262 1.389 . S
C261 H240 0.950 1_556 S
C261 C260 1.373 . S
C261 C277 1.377 . S
C262 C260 1.389 . S
C262 C263 1.524 . S
C262 C276 1.377 . S
C263 C262 1.524 . S
C263 C264 1.397 . S
C263 C268 1.363 . S
C264 H241 0.950 . S
C264 C263 1.397 . S
C264 C265 1.334 . S
C265 H242 0.950 . S
C265 C264 1.334 . S
C265 C266 1.287 . S
C266 C265 1.287 . S
C266 C267 1.524 . S
C266 H285 0.913 . S
C267 H243 0.950 . S
C267 C266 1.524 . S
C267 C268 1.415 . S
C268 H244 0.950 . S
C268 C263 1.363 . S
C268 C267 1.415 . S
C269 H245 0.951 . S
C269 C270 1.366 . S
C269 C271 1.388 . S
C270 C269 1.366 . S
C270 C274 1.385 . S
C271 H246 0.951 . S
C271 C269 1.388 . S
C271 C272 1.366 . S
C272 C271 1.366 . S
C272 C273 1.414 . S
C272 C275 1.499 . S
C273 H247 0.950 . S
C273 C272 1.414 . S
C273 C274 1.374 . S
C274 H248 0.950 . S
C274 C270 1.385 . S
C274 C273 1.374 . S
C275 C272 1.499 . S
C275 C276 1.373 . S
C275 C277 1.389 . S
C276 H249 0.950 . S
C276 C262 1.377 . S
C276 C275 1.373 . S
C277 C261 1.377 . S
C277 C275 1.389 . S
C277 C278 1.524 1_556 S
C278 C277 1.524 1_554 S
C278 C279 1.397 . S
C278 C283 1.363 . S
C279 H250 0.950 1_554 S
C279 C278 1.397 . S
C279 C280 1.334 . S
C280 H251 0.950 . S
C280 C279 1.334 . S
C280 C281 1.287 . S
C281 C280 1.287 . S
C281 C282 1.524 . S
C281 H284 0.999 . S
C282 H252 0.950 . S
C282 C281 1.524 . S
C282 C283 1.415 . S
C283 H253 0.950 . S
C283 C278 1.363 . S
C283 C282 1.415 . S
H284 C281 0.999 . S
H285 C266 0.913 . S
H286 C304 0.961 . S
H287 C306 0.951 . S
H288 C308 0.950 . S
H289 C309 0.950 . S
H290 C311 0.950 . S
H291 C314 0.950 . S
H292 C315 0.950 . S
H293 C317 0.950 . S
H294 C318 0.950 . S
H295 C319 0.951 . S
H296 C321 0.951 . S
H297 C323 0.950 . S
H298 C324 0.950 . S
H299 C326 0.950 . S
H300 C329 0.950 . S
H301 C330 0.950 . S
H302 C332 0.950 . S
H303 C333 0.950 . S
C304 H286 0.961 . S
C304 C305 1.366 . S
C304 C306 1.388 . S
C305 C304 1.366 . S
C305 C309 1.385 . S
C306 H287 0.951 . S
C306 C304 1.388 . S
C306 C307 1.366 . S
C307 C306 1.366 . S
C307 C308 1.414 . S
C307 C310 1.499 . S
C308 H288 0.950 . S
C308 C307 1.414 . S
C308 C309 1.374 . S
C309 H289 0.950 . S
C309 C305 1.385 . S
C309 C308 1.374 . S
C310 C307 1.499 . S
C310 C311 1.373 . S
C310 C312 1.389 . S
C311 H290 0.950 . S
C311 C310 1.373 . S
C311 C327 1.377 . S
C312 C310 1.389 . S
C312 C313 1.524 . S
C312 C326 1.377 . S
C313 C312 1.524 . S
C313 C314 1.397 . S
C313 C318 1.363 . S
C314 H291 0.950 . S
C314 C313 1.397 . S
C314 C315 1.334 . S
C315 H292 0.950 . S
C315 C314 1.334 . S
C315 C316 1.287 . S
C316 C315 1.287 . S
C316 C317 1.524 . S
C316 H335 0.916 . S
C317 H293 0.950 . S
C317 C316 1.524 . S
C317 C318 1.415 . S
C318 H294 0.950 . S
C318 C313 1.363 . S
C318 C317 1.415 . S
C319 H295 0.951 . S
C319 C320 1.366 . S
C319 C321 1.388 . S
C320 C319 1.366 . S
C320 C324 1.385 . S
C321 H296 0.951 . S
C321 C319 1.388 . S
C321 C322 1.366 . S
C322 C321 1.366 . S
C322 C323 1.414 . S
C322 C325 1.499 . S
C323 H297 0.950 . S
C323 C322 1.414 . S
C323 C324 1.374 . S
C324 H298 0.950 . S
C324 C320 1.385 . S
C324 C323 1.374 . S
C325 C322 1.499 . S
C325 C326 1.373 . S
C325 C327 1.389 . S
C326 H299 0.950 . S
C326 C312 1.377 . S
C326 C325 1.373 . S
C327 C311 1.377 . S
C327 C325 1.389 . S
C327 C328 1.524 . S
C328 C327 1.524 . S
C328 C329 1.397 . S
C328 C333 1.363 . S
C329 H300 0.950 . S
C329 C328 1.397 . S
C329 C330 1.334 . S
C330 H301 0.950 . S
C330 C329 1.334 . S
C330 C331 1.287 . S
C331 C330 1.287 . S
C331 C332 1.524 . S
C331 H334 0.999 . S
C332 H302 0.950 . S
C332 C331 1.524 . S
C332 C333 1.415 . S
C333 H303 0.950 . S
C333 C328 1.363 . S
C333 C332 1.415 . S
H334 C331 0.999 . S
H335 C316 0.916 . S
H336 C354 0.951 . S
H337 C356 0.951 . S
H338 C358 0.950 . S
H339 C359 0.950 . S
H340 C361 0.950 . S
H341 C364 0.950 . S
H342 C365 0.950 . S
H343 C367 0.950 . S
H344 C368 0.950 . S
H345 C369 0.951 . S
H346 C371 0.951 . S
H347 C373 0.950 . S
H348 C374 0.950 . S
H349 C376 0.950 . S
H350 C379 0.950 . S
H351 C380 0.950 . S
H352 C382 0.950 . S
H353 C383 0.950 . S
C354 H336 0.951 . S
C354 C355 1.366 1_556 S
C354 C356 1.388 . S
C355 C354 1.366 1_554 S
C355 C359 1.385 . S
C356 H337 0.951 . S
C356 C354 1.388 . S
C356 C357 1.366 . S
C357 C356 1.366 . S
C357 C358 1.414 1_556 S
C357 C360 1.499 . S
C358 H338 0.950 . S
C358 C357 1.414 1_554 S
C358 C359 1.374 . S
C359 H339 0.950 . S
C359 C355 1.385 . S
C359 C358 1.374 . S
C360 C357 1.499 . S
C360 C361 1.373 1_556 S
C360 C362 1.389 . S
C361 H340 0.950 . S
C361 C360 1.373 1_554 S
C361 C377 1.377 1_554 S
C362 C360 1.389 . S
C362 C363 1.524 . S
C362 C376 1.377 . S
C363 C362 1.524 . S
C363 C364 1.397 . S
C363 C368 1.363 . S
C364 H341 0.950 . S
C364 C363 1.397 . S
C364 C365 1.334 . S
C365 H342 0.950 . S
C365 C364 1.334 . S
C365 C366 1.287 . S
C366 C365 1.287 . S
C366 C367 1.524 . S
C366 H385 0.913 . S
C367 H343 0.950 . S
C367 C366 1.524 . S
C367 C368 1.415 . S
C368 H344 0.950 . S
C368 C363 1.363 . S
C368 C367 1.415 . S
C369 H345 0.951 . S
C369 C370 1.366 . S
C369 C371 1.388 . S
C370 C369 1.366 . S
C370 C374 1.385 . S
C371 H346 0.951 . S
C371 C369 1.388 . S
C371 C372 1.366 . S
C372 C371 1.366 . S
C372 C373 1.414 . S
C372 C375 1.499 . S
C373 H347 0.950 . S
C373 C372 1.414 . S
C373 C374 1.374 . S
C374 H348 0.950 . S
C374 C370 1.385 . S
C374 C373 1.374 . S
C375 C372 1.499 . S
C375 C376 1.373 . S
C375 C377 1.389 . S
C376 H349 0.950 . S
C376 C362 1.377 . S
C376 C375 1.373 . S
C377 C361 1.377 1_556 S
C377 C375 1.389 . S
C377 C378 1.524 1_556 S
C378 C377 1.524 1_554 S
C378 C379 1.397 . S
C378 C383 1.363 . S
C379 H350 0.950 . S
C379 C378 1.397 . S
C379 C380 1.334 . S
C380 H351 0.950 . S
C380 C379 1.334 . S
C380 C381 1.287 . S
C381 C380 1.287 . S
C381 C382 1.524 . S
C381 H384 0.999 . S
C382 H352 0.950 . S
C382 C381 1.524 . S
C382 C383 1.415 . S
C383 H353 0.950 . S
C383 C378 1.363 . S
C383 C382 1.415 . S
H384 C381 0.999 . S
H385 C366 0.913 . S
H386 C404 0.951 . S
H387 C406 0.951 . S
H388 C408 0.950 . S
H389 C409 0.950 . S
H390 C411 0.950 . S
H391 C414 0.950 . S
H392 C415 0.950 . S
H393 C417 0.950 . S
H394 C418 0.950 . S
H395 C419 0.951 . S
H396 C421 0.951 . S
H397 C423 0.950 . S
H398 C424 0.950 . S
H399 C426 0.950 . S
H400 C429 0.950 . S
H401 C430 0.950 . S
H402 C432 0.950 . S
H403 C433 0.950 . S
C404 H386 0.951 . S
C404 C405 1.366 . S
C404 C406 1.388 . S
C405 C404 1.366 . S
C405 C409 1.385 . S
C406 H387 0.951 . S
C406 C404 1.388 . S
C406 C407 1.366 . S
C407 C406 1.366 . S
C407 C408 1.414 . S
C407 C410 1.499 . S
C408 H388 0.950 . S
C408 C407 1.414 . S
C408 C409 1.374 . S
C409 H389 0.950 . S
C409 C405 1.385 . S
C409 C408 1.374 . S
C410 C407 1.499 . S
C410 C411 1.373 . S
C410 C412 1.389 . S
C411 H390 0.950 . S
C411 C410 1.373 . S
C411 C427 1.377 . S
C412 C410 1.389 . S
C412 C413 1.524 . S
C412 C426 1.377 . S
C413 C412 1.524 . S
C413 C414 1.397 . S
C413 C418 1.363 . S
C414 H391 0.950 . S
C414 C413 1.397 . S
C414 C415 1.334 . S
C415 H392 0.950 . S
C415 C414 1.334 . S
C415 C416 1.287 . S
C416 C415 1.287 . S
C416 C417 1.524 . S
C416 H435 0.913 . S
C417 H393 0.950 . S
C417 C416 1.524 . S
C417 C418 1.415 . S
C418 H394 0.950 . S
C418 C413 1.363 . S
C418 C417 1.415 . S
C419 H395 0.951 . S
C419 C420 1.366 . S
C419 C421 1.388 . S
C420 C419 1.366 . S
C420 C424 1.385 . S
C421 H396 0.951 . S
C421 C419 1.388 . S
C421 C422 1.366 . S
C422 C421 1.366 . S
C422 C423 1.414 . S
C422 C425 1.499 . S
C423 H397 0.950 . S
C423 C422 1.414 . S
C423 C424 1.374 . S
C424 H398 0.950 . S
C424 C420 1.385 . S
C424 C423 1.374 . S
C425 C422 1.499 . S
C425 C426 1.373 . S
C425 C427 1.389 . S
C426 H399 0.950 . S
C426 C412 1.377 . S
C426 C425 1.373 . S
C427 C411 1.377 . S
C427 C425 1.389 . S
C427 C428 1.524 . S
C428 C427 1.524 . S
C428 C429 1.397 . S
C428 C433 1.363 . S
C429 H400 0.950 . S
C429 C428 1.397 . S
C429 C430 1.334 . S
C430 H401 0.950 . S
C430 C429 1.334 . S
C430 C431 1.287 . S
C431 C430 1.287 . S
C431 C432 1.524 . S
C431 H434 0.999 . S
C432 H402 0.950 . S
C432 C431 1.524 . S
C432 C433 1.415 . S
C433 H403 0.950 . S
C433 C428 1.363 . S
C433 C432 1.415 . S
H434 C431 0.999 . S
H435 C416 0.913 . S
H436 C454 0.951 . S
H437 C456 0.951 . S
H438 C458 0.950 . S
H439 C459 0.950 . S
H440 C461 0.950 . S
H441 C464 0.950 . S
H442 C465 0.950 . S
H443 C467 0.950 . S
H444 C468 0.950 . S
H445 C469 0.951 . S
H446 C471 0.951 . S
H447 C473 0.950 . S
H448 C474 0.950 . S
H449 C476 0.950 . S
H450 C479 0.950 . S
H451 C480 0.950 . S
H452 C482 0.950 . S
H453 C483 0.950 . S
C454 H436 0.951 . S
C454 C455 1.366 . S
C454 C456 1.388 . S
C455 C454 1.366 . S
C455 C459 1.385 . S
C456 H437 0.951 . S
C456 C454 1.388 . S
C456 C457 1.366 . S
C457 C456 1.366 . S
C457 C458 1.414 . S
C457 C460 1.499 . S
C458 H438 0.950 . S
C458 C457 1.414 . S
C458 C459 1.374 . S
C459 H439 0.950 . S
C459 C455 1.385 . S
C459 C458 1.374 . S
C460 C457 1.499 . S
C460 C461 1.373 . S
C460 C462 1.389 . S
C461 H440 0.950 . S
C461 C460 1.373 . S
C461 C477 1.377 . S
C462 C460 1.389 . S
C462 C463 1.524 . S
C462 C476 1.377 . S
C463 C462 1.524 . S
C463 C464 1.397 . S
C463 C468 1.363 . S
C464 H441 0.950 . S
C464 C463 1.397 . S
C464 C465 1.334 . S
C465 H442 0.950 . S
C465 C464 1.334 . S
C465 C466 1.287 . S
C466 C465 1.287 . S
C466 C467 1.524 . S
C466 H485 0.913 . S
C467 H443 0.950 . S
C467 C466 1.524 . S
C467 C468 1.415 . S
C468 H444 0.950 . S
C468 C463 1.363 . S
C468 C467 1.415 . S
C469 H445 0.951 . S
C469 C470 1.366 . S
C469 C471 1.388 . S
C470 C469 1.366 . S
C470 C474 1.385 . S
C471 H446 0.951 . S
C471 C469 1.388 . S
C471 C472 1.366 . S
C472 C471 1.366 . S
C472 C473 1.414 . S
C472 C475 1.499 . S
C473 H447 0.950 . S
C473 C472 1.414 . S
C473 C474 1.374 . S
C474 H448 0.950 . S
C474 C470 1.385 . S
C474 C473 1.374 . S
C475 C472 1.499 . S
C475 C476 1.373 . S
C475 C477 1.389 . S
C476 H449 0.950 . S
C476 C462 1.377 . S
C476 C475 1.373 . S
C477 C461 1.377 . S
C477 C475 1.389 . S
C477 C478 1.524 . S
C478 C477 1.524 . S
C478 C479 1.397 . S
C478 C483 1.363 . S
C479 H450 0.950 . S
C479 C478 1.397 . S
C479 C480 1.334 . S
C480 H451 0.950 . S
C480 C479 1.334 . S
C480 C481 1.287 . S
C481 C480 1.287 . S
C481 C482 1.524 . S
C481 H484 0.999 . S
C482 H452 0.950 . S
C482 C481 1.524 . S
C482 C483 1.415 . S
C483 H453 0.950 . S
C483 C478 1.363 . S
C483 C482 1.415 . S
H484 C481 0.999 . S
H485 C466 0.913 . S
H486 C504 0.951 . S
H487 C506 0.951 . S
H488 C508 0.950 . S
H489 C509 0.950 . S
H490 C511 0.950 . S
H491 C514 0.950 . S
H492 C515 0.950 . S
H493 C517 0.950 . S
H494 C518 0.950 . S
H495 C519 0.951 . S
H496 C521 0.951 . S
H497 C523 0.950 . S
H498 C524 0.950 . S
H499 C526 0.950 . S
H500 C529 0.950 . S
H501 C530 0.950 . S
H502 C532 0.950 . S
H503 C533 0.950 . S
C504 H486 0.951 . S
C504 C505 1.366 . S
C504 C506 1.388 . S
C505 C504 1.366 . S
C505 C509 1.385 . S
C506 H487 0.951 . S
C506 C504 1.388 . S
C506 C507 1.366 . S
C507 C506 1.366 . S
C507 C508 1.414 . S
C507 C510 1.499 . S
C508 H488 0.950 . S
C508 C507 1.414 . S
C508 C509 1.374 . S
C509 H489 0.950 . S
C509 C505 1.385 . S
C509 C508 1.374 . S
C510 C507 1.499 . S
C510 C511 1.373 . S
C510 C512 1.389 . S
C511 H490 0.950 . S
C511 C510 1.373 . S
C511 C527 1.377 . S
C512 C510 1.389 . S
C512 C513 1.524 . S
C512 C526 1.377 . S
C513 C512 1.524 . S
C513 C514 1.397 . S
C513 C518 1.363 . S
C514 H491 0.950 . S
C514 C513 1.397 . S
C514 C515 1.334 . S
C515 H492 0.950 . S
C515 C514 1.334 . S
C515 C516 1.287 . S
C516 C515 1.287 . S
C516 C517 1.524 . S
C516 H535 0.913 . S
C517 H493 0.950 . S
C517 C516 1.524 . S
C517 C518 1.415 . S
C518 H494 0.950 . S
C518 C513 1.363 . S
C518 C517 1.415 . S
C519 H495 0.951 . S
C519 C520 1.366 . S
C519 C521 1.388 . S
C520 C519 1.366 . S
C520 C524 1.385 . S
C521 H496 0.951 . S
C521 C519 1.388 . S
C521 C522 1.366 . S
C522 C521 1.366 . S
C522 C523 1.414 . S
C522 C525 1.499 . S
C523 H497 0.950 . S
C523 C522 1.414 . S
C523 C524 1.374 . S
C524 H498 0.950 . S
C524 C520 1.385 . S
C524 C523 1.374 . S
C525 C522 1.499 . S
C525 C526 1.373 . S
C525 C527 1.389 . S
C526 H499 0.950 . S
C526 C512 1.377 . S
C526 C525 1.373 . S
C527 C511 1.377 . S
C527 C525 1.389 . S
C527 C528 1.524 . S
C528 C527 1.524 . S
C528 C529 1.397 . S
C528 C533 1.363 . S
C529 H500 0.950 . S
C529 C528 1.397 . S
C529 C530 1.334 . S
C530 H501 0.950 . S
C530 C529 1.334 . S
C530 C531 1.287 . S
C531 C530 1.287 . S
C531 C532 1.524 . S
C531 H534 0.999 . S
C532 H502 0.950 . S
C532 C531 1.524 . S
C532 C533 1.415 . S
C533 H503 0.950 . S
C533 C528 1.363 . S
C533 C532 1.415 . S
H534 C531 0.999 . S
H535 C516 0.913 . S
H536 C554 0.951 . S
H537 C556 0.951 . S
H538 C558 0.950 . S
H539 C559 0.950 . S
H540 C561 0.950 . S
H541 C564 0.950 . S
H542 C565 0.950 . S
H543 C567 0.950 . S
H544 C568 0.950 . S
H545 C569 0.951 . S
H546 C571 0.951 . S
H547 C573 0.950 . S
H548 C574 0.950 . S
H549 C576 0.950 . S
H550 C579 0.950 . S
H551 C580 0.950 . S
H552 C582 0.950 . S
H553 C583 0.950 . S
C554 H536 0.951 . S
C554 C555 1.366 . S
C554 C556 1.388 . S
C555 C554 1.366 . S
C555 C559 1.385 . S
C556 H537 0.951 . S
C556 C554 1.388 . S
C556 C557 1.366 . S
C557 C556 1.366 . S
C557 C558 1.414 . S
C557 C560 1.499 . S
C558 H538 0.950 . S
C558 C557 1.414 . S
C558 C559 1.374 . S
C559 H539 0.950 . S
C559 C555 1.385 . S
C559 C558 1.374 . S
C560 C557 1.499 . S
C560 C561 1.373 . S
C560 C562 1.389 . S
C561 H540 0.950 . S
C561 C560 1.373 . S
C561 C577 1.377 . S
C562 C560 1.389 . S
C562 C563 1.524 . S
C562 C576 1.377 . S
C563 C562 1.524 . S
C563 C564 1.397 . S
C563 C568 1.363 . S
C564 H541 0.950 . S
C564 C563 1.397 . S
C564 C565 1.334 . S
C565 H542 0.950 . S
C565 C564 1.334 . S
C565 C566 1.287 . S
C566 C565 1.287 . S
C566 C567 1.524 . S
C566 H585 0.913 . S
C567 H543 0.950 . S
C567 C566 1.524 . S
C567 C568 1.415 . S
C568 H544 0.950 . S
C568 C563 1.363 . S
C568 C567 1.415 . S
C569 H545 0.951 . S
C569 C570 1.366 . S
C569 C571 1.388 . S
C570 C569 1.366 . S
C570 C574 1.385 . S
C571 H546 0.951 . S
C571 C569 1.388 . S
C571 C572 1.366 . S
C572 C571 1.366 . S
C572 C573 1.414 . S
C572 C575 1.499 . S
C573 H547 0.950 . S
C573 C572 1.414 . S
C573 C574 1.374 . S
C574 H548 0.950 . S
C574 C570 1.385 . S
C574 C573 1.374 . S
C575 C572 1.499 . S
C575 C576 1.373 . S
C575 C577 1.389 . S
C576 H549 0.950 . S
C576 C562 1.377 . S
C576 C575 1.373 . S
C577 C561 1.377 . S
C577 C575 1.389 . S
C577 C578 1.524 . S
C578 C577 1.524 . S
C578 C579 1.397 . S
C578 C583 1.363 . S
C579 H550 0.950 . S
C579 C578 1.397 . S
C579 C580 1.334 . S
C580 H551 0.950 . S
C580 C579 1.334 . S
C580 C581 1.287 . S
C581 C580 1.287 . S
C581 C582 1.524 . S
C581 H584 0.999 . S
C582 H552 0.950 . S
C582 C581 1.524 . S
C582 C583 1.415 . S
C583 H553 0.950 . S
C583 C578 1.363 . S
C583 C582 1.415 . S
H584 C581 0.999 . S
H585 C566 0.913 . S
H586 C604 0.951 1_655 S
H587 C606 0.951 1_655 S
H588 C608 0.950 . S
H589 C609 0.950 . S
H590 C611 0.950 . S
H591 C614 0.950 . S
H592 C615 0.950 . S
H593 C617 0.950 . S
H594 C618 0.950 . S
H595 C619 0.951 . S
H596 C621 0.951 . S
H597 C623 0.950 1_655 S
H598 C624 0.950 . S
H599 C626 0.950 . S
H600 C629 0.950 . S
H601 C630 0.950 . S
H602 C632 0.950 . S
H603 C633 0.950 . S
C604 H586 0.951 1_455 S
C604 C605 1.366 1_545 S
C604 C606 1.388 . S
C605 C604 1.366 1_565 S
C605 C609 1.385 . S
C606 H587 0.951 1_455 S
C606 C604 1.388 . S
C606 C607 1.366 . S
C607 C606 1.366 . S
C607 C608 1.414 1_545 S
C607 C610 1.499 . S
C608 H588 0.950 . S
C608 C607 1.414 1_565 S
C608 C609 1.374 . S
C609 H589 0.950 . S
C609 C605 1.385 . S
C609 C608 1.374 . S
C610 C607 1.499 . S
C610 C611 1.373 1_545 S
C610 C612 1.389 . S
C611 H590 0.950 . S
C611 C610 1.373 1_565 S
C611 C627 1.377 . S
C612 C610 1.389 . S
C612 C613 1.524 . S
C612 C626 1.377 . S
C613 C612 1.524 . S
C613 C614 1.397 . S
C613 C618 1.363 1_455 S
C614 H591 0.950 . S
C614 C613 1.397 . S
C614 C615 1.334 . S
C615 H592 0.950 . S
C615 C614 1.334 . S
C615 C616 1.287 . S
C616 C615 1.287 . S
C616 C617 1.524 1_455 S
C616 H635 0.913 1_455 S
C617 H593 0.950 . S
C617 C616 1.524 1_655 S
C617 C618 1.415 . S
C618 H594 0.950 . S
C618 C613 1.363 1_655 S
C618 C617 1.415 . S
C619 H595 0.951 . S
C619 C620 1.366 . S
C619 C621 1.388 . S
C620 C619 1.366 . S
C620 C624 1.385 . S
C621 H596 0.951 . S
C621 C619 1.388 . S
C621 C622 1.366 . S
C622 C621 1.366 . S
C622 C623 1.414 . S
C622 C625 1.499 . S
C623 H597 0.950 1_455 S
C623 C622 1.414 . S
C623 C624 1.374 . S
C624 H598 0.950 . S
C624 C620 1.385 . S
C624 C623 1.374 . S
C625 C622 1.499 . S
C625 C626 1.373 . S
C625 C627 1.389 1_545 S
C626 H599 0.950 . S
C626 C612 1.377 . S
C626 C625 1.373 . S
C627 C611 1.377 . S
C627 C625 1.389 1_565 S
C627 C628 1.524 . S
C628 C627 1.524 . S
C628 C629 1.397 . S
C628 C633 1.363 . S
C629 H600 0.950 . S
C629 C628 1.397 . S
C629 C630 1.334 . S
C630 H601 0.950 . S
C630 C629 1.334 . S
C630 C631 1.287 . S
C631 C630 1.287 . S
C631 C632 1.524 . S
C631 H634 0.999 . S
C632 H602 0.950 . S
C632 C631 1.524 . S
C632 C633 1.415 . S
C633 H603 0.950 . S
C633 C628 1.363 . S
C633 C632 1.415 . S
H634 C631 0.999 . S
H635 C616 0.913 1_655 S
H636 C654 0.951 . S
H637 C656 0.951 . S
H638 C658 0.950 . S
H639 C659 0.950 . S
H640 C661 0.950 . S
H641 C664 0.950 1_565 S
H642 C665 0.950 . S
H643 C667 0.950 . S
H644 C668 0.950 . S
H645 C669 0.951 . S
H646 C671 0.951 . S
H647 C673 0.950 1_655 S
H648 C674 0.949 1_655 S
H649 C676 0.950 . S
H650 C679 0.950 . S
H651 C680 0.950 1_545 S
H652 C682 0.950 . S
H653 C683 0.950 . S
C654 H636 0.951 . S
C654 C655 1.366 1_545 S
C654 C656 1.388 . S
C655 C654 1.366 1_565 S
C655 C659 1.385 . S
C656 H637 0.951 . S
C656 C654 1.388 . S
C656 C657 1.363 1_545 S
C657 C656 1.363 1_565 S
C657 C658 1.417 . S
C657 C660 1.498 1_565 S
C658 H638 0.950 . S
C658 C657 1.417 . S
C658 C659 1.374 . S
C659 H639 0.950 . S
C659 C655 1.385 . S
C659 C658 1.374 . S
C660 C657 1.498 1_545 S
C660 C661 1.373 1_545 S
C660 C662 1.389 1_455 S
C661 H640 0.950 . S
C661 C660 1.373 1_565 S
C661 C677 1.377 . S
C662 C660 1.389 1_655 S
C662 C663 1.524 . S
C662 C676 1.377 . S
C663 C662 1.524 . S
C663 C664 1.397 . S
C663 C668 1.363 . S
C664 H641 0.950 1_545 S
C664 C663 1.397 . S
C664 C665 1.334 . S
C665 H642 0.950 . S
C665 C664 1.334 . S
C665 C666 1.287 . S
C666 C665 1.287 . S
C666 C667 1.524 . S
C666 H685 0.913 . S
C667 H643 0.950 . S
C667 C666 1.524 . S
C667 C668 1.415 . S
C668 H644 0.950 . S
C668 C663 1.363 . S
C668 C667 1.415 . S
C669 H645 0.951 . S
C669 C670 1.366 1_565 S
C669 C671 1.388 . S
C670 C669 1.366 1_545 S
C670 C674 1.386 . S
C671 H646 0.951 . S
C671 C669 1.388 . S
C671 C672 1.366 1_565 S
C672 C671 1.366 1_545 S
C672 C673 1.414 . S
C672 C675 1.499 . S
C673 H647 0.950 1_455 S
C673 C672 1.414 . S
C673 C674 1.374 . S
C674 H648 0.949 1_455 S
C674 C670 1.386 . S
C674 C673 1.374 . S
C675 C672 1.499 . S
C675 C676 1.373 1_455 S
C675 C677 1.389 1_545 S
C676 H649 0.950 . S
C676 C662 1.377 . S
C676 C675 1.373 1_655 S
C677 C661 1.377 . S
C677 C675 1.389 1_565 S
C677 C678 1.524 . S
C678 C677 1.524 . S
C678 C679 1.397 1_565 S
C678 C683 1.363 . S
C679 H650 0.950 . S
C679 C678 1.397 1_545 S
C679 C680 1.334 1_545 S
C680 H651 0.950 1_565 S
C680 C679 1.334 1_565 S
C680 C681 1.287 . S
C681 C680 1.287 . S
C681 C682 1.524 . S
C681 H684 0.999 . S
C682 H652 0.950 . S
C682 C681 1.524 . S
C682 C683 1.415 . S
C683 H653 0.950 . S
C683 C678 1.363 . S
C683 C682 1.415 . S
H684 C681 0.999 . S
H685 C666 0.913 . S
H686 C704 0.951 . S
H687 C706 0.951 . S
H688 C708 0.950 . S
H689 C709 0.950 . S
H690 C711 0.950 . S
H691 C714 0.950 . S
H692 C715 0.950 . S
H693 C717 0.950 . S
H694 C718 0.950 . S
H695 C719 0.951 . S
H696 C721 0.951 . S
H697 C723 0.950 . S
H698 C724 0.950 . S
H699 C726 0.950 . S
H700 C729 0.950 . S
H701 C730 0.950 . S
H702 C732 0.950 . S
H703 C733 0.950 . S
C704 H686 0.951 . S
C704 C705 1.366 . S
C704 C706 1.388 . S
C705 C704 1.366 . S
C705 C709 1.385 . S
C706 H687 0.951 . S
C706 C704 1.388 . S
C706 C707 1.366 . S
C707 C706 1.366 . S
C707 C708 1.414 . S
C707 C710 1.499 . S
C708 H688 0.950 . S
C708 C707 1.414 . S
C708 C709 1.374 . S
C709 H689 0.950 . S
C709 C705 1.385 . S
C709 C708 1.374 . S
C710 C707 1.499 . S
C710 C711 1.373 . S
C710 C712 1.389 . S
C711 H690 0.950 . S
C711 C710 1.373 . S
C711 C727 1.377 . S
C712 C710 1.389 . S
C712 C713 1.524 . S
C712 C726 1.377 . S
C713 C712 1.524 . S
C713 C714 1.397 . S
C713 C718 1.363 . S
C714 H691 0.950 . S
C714 C713 1.397 . S
C714 C715 1.334 . S
C715 H692 0.950 . S
C715 C714 1.334 . S
C715 C716 1.287 . S
C716 C715 1.287 . S
C716 C717 1.524 . S
C716 H735 0.913 . S
C717 H693 0.950 . S
C717 C716 1.524 . S
C717 C718 1.415 . S
C718 H694 0.950 . S
C718 C713 1.363 . S
C718 C717 1.415 . S
C719 H695 0.951 . S
C719 C720 1.366 . S
C719 C721 1.388 . S
C720 C719 1.366 . S
C720 C724 1.385 . S
C721 H696 0.951 . S
C721 C719 1.388 . S
C721 C722 1.366 . S
C722 C721 1.366 . S
C722 C723 1.414 . S
C722 C725 1.499 . S
C723 H697 0.950 . S
C723 C722 1.414 . S
C723 C724 1.374 . S
C724 H698 0.950 . S
C724 C720 1.385 . S
C724 C723 1.374 . S
C725 C722 1.499 . S
C725 C726 1.373 . S
C725 C727 1.389 . S
C726 H699 0.950 . S
C726 C712 1.377 . S
C726 C725 1.373 . S
C727 C711 1.377 . S
C727 C725 1.389 . S
C727 C728 1.524 . S
C728 C727 1.524 . S
C728 C729 1.397 . S
C728 C733 1.363 . S
C729 H700 0.950 . S
C729 C728 1.397 . S
C729 C730 1.334 . S
C730 H701 0.950 . S
C730 C729 1.334 . S
C730 C731 1.287 . S
C731 C730 1.287 . S
C731 C732 1.524 . S
C731 H734 0.999 . S
C732 H702 0.950 . S
C732 C731 1.524 . S
C732 C733 1.415 . S
C733 H703 0.950 . S
C733 C728 1.363 . S
C733 C732 1.415 . S
H734 C731 0.999 . S
H735 C716 0.913 . S
H736 C754 0.951 . S
H737 C756 0.951 . S
H738 C758 0.950 . S
H739 C759 0.950 . S
H740 C761 0.950 . S
H741 C764 0.950 . S
H742 C765 0.950 . S
H743 C767 0.950 . S
H744 C768 0.950 . S
H745 C769 0.951 . S
H746 C771 0.951 . S
H747 C773 0.950 . S
H748 C774 0.950 . S
H749 C776 0.950 . S
H750 C779 0.950 . S
H751 C780 0.950 . S
H752 C782 0.950 . S
H753 C783 0.950 . S
C754 H736 0.951 . S
C754 C755 1.366 . S
C754 C756 1.388 . S
C755 C754 1.366 . S
C755 C759 1.385 . S
C756 H737 0.951 . S
C756 C754 1.388 . S
C756 C757 1.366 . S
C757 C756 1.366 . S
C757 C758 1.414 . S
C757 C760 1.499 . S
C758 H738 0.950 . S
C758 C757 1.414 . S
C758 C759 1.374 . S
C759 H739 0.950 . S
C759 C755 1.385 . S
C759 C758 1.374 . S
C760 C757 1.499 . S
C760 C761 1.373 . S
C760 C762 1.389 . S
C761 H740 0.950 . S
C761 C760 1.373 . S
C761 C777 1.377 . S
C762 C760 1.389 . S
C762 C763 1.524 . S
C762 C776 1.377 . S
C763 C762 1.524 . S
C763 C764 1.397 . S
C763 C768 1.363 . S
C764 H741 0.950 . S
C764 C763 1.397 . S
C764 C765 1.334 . S
C765 H742 0.950 . S
C765 C764 1.334 . S
C765 C766 1.287 . S
C766 C765 1.287 . S
C766 C767 1.524 . S
C766 H785 0.913 . S
C767 H743 0.950 . S
C767 C766 1.524 . S
C767 C768 1.415 . S
C768 H744 0.950 . S
C768 C763 1.363 . S
C768 C767 1.415 . S
C769 H745 0.951 . S
C769 C770 1.366 . S
C769 C771 1.388 . S
C770 C769 1.366 . S
C770 C774 1.385 . S
C771 H746 0.951 . S
C771 C769 1.388 . S
C771 C772 1.366 . S
C772 C771 1.366 . S
C772 C773 1.414 . S
C772 C775 1.499 . S
C773 H747 0.950 . S
C773 C772 1.414 . S
C773 C774 1.374 . S
C774 H748 0.950 . S
C774 C770 1.385 . S
C774 C773 1.374 . S
C775 C772 1.499 . S
C775 C776 1.373 . S
C775 C777 1.389 . S
C776 H749 0.950 . S
C776 C762 1.377 . S
C776 C775 1.373 . S
C777 C761 1.377 . S
C777 C775 1.389 . S
C777 C778 1.524 . S
C778 C777 1.524 . S
C778 C779 1.397 . S
C778 C783 1.363 . S
C779 H750 0.950 . S
C779 C778 1.397 . S
C779 C780 1.334 . S
C780 H751 0.950 . S
C780 C779 1.334 . S
C780 C781 1.287 . S
C781 C780 1.287 . S
C781 C782 1.524 . S
C781 H784 0.999 . S
C782 H752 0.950 . S
C782 C781 1.524 . S
C782 C783 1.415 . S
C783 H753 0.950 . S
C783 C778 1.363 . S
C783 C782 1.415 . S
H784 C781 0.999 . S
H785 C766 0.913 . S
C220 C151 1.136 . S
C205 C3 1.034 . S
C255 C4 1.505 1_556 S
C270 C115 1.614 . S
C305 C19 1.536 . S
C320 C175 1.615 . S
C355 C7 1.035 1_554 S
C370 C139 1.135 . S
C405 C37 1.036 . S
C420 C79 1.135 . S
C455 C28 1.505 . S
C470 C43 1.614 . S
C520 C103 1.615 . S
C505 C41 1.537 . S
C570 C67 1.136 . S
C555 C25 1.036 . S
C605 C20 1.270 . S
C620 C73 1.426 . S
C655 C16 1.327 . S
C670 C109 1.468 . S
C720 C145 1.426 . S
C705 C40 1.270 . S
C755 C24 1.325 . S
C770 C181 1.468 . S
