# Generated by pormake.
# Topology zzz, (3,6)-cn, num edge types: 1
# Building blocks:
#     Node 0, Type 0, BuildingBlock: KAKCAD_clean_linker_0, # of connection points: 3
#     Node 1, Type 0, BuildingBlock: KAKCAD_clean_linker_0, # of connection points: 3
#     Node 2, Type 0, BuildingBlock: KAKCAD_clean_linker_0, # of connection points: 3
#     Node 3, Type 0, BuildingBlock: KAKCAD_clean_linker_0, # of connection points: 3
#     Node 4, Type 0, BuildingBlock: KAKCAD_clean_linker_0, # of connection points: 3
#     Node 5, Type 0, BuildingBlock: KAKCAD_clean_linker_0, # of connection points: 3
#     Node 6, Type 0, BuildingBlock: KAKCAD_clean_linker_0, # of connection points: 3
#     Node 7, Type 0, BuildingBlock: KAKCAD_clean_linker_0, # of connection points: 3
#     Node 8, Type 1, BuildingBlock: BETFEN_clean_sbu_0, # of connection points: 6
#     Node 9, Type 1, BuildingBlock: BETFEN_clean_sbu_0, # of connection points: 6
#     Node 10, Type 1, BuildingBlock: BETFEN_clean_sbu_0, # of connection points: 6
#     Node 11, Type 1, BuildingBlock: BETFEN_clean_sbu_0, # of connection points: 6
#     Edge 12, Type (0, 1), BuildingBlock: ZUJKAS_clean_linker_0, # of connection points: 2
#     Edge 13, Type (0, 1), BuildingBlock: ZUJKAS_clean_linker_0, # of connection points: 2
#     Edge 14, Type (0, 1), BuildingBlock: ZUJKAS_clean_linker_0, # of connection points: 2
#     Edge 15, Type (0, 1), BuildingBlock: ZUJKAS_clean_linker_0, # of connection points: 2
#     Edge 16, Type (0, 1), BuildingBlock: ZUJKAS_clean_linker_0, # of connection points: 2
#     Edge 17, Type (0, 1), BuildingBlock: ZUJKAS_clean_linker_0, # of connection points: 2
#     Edge 18, Type (0, 1), BuildingBlock: ZUJKAS_clean_linker_0, # of connection points: 2
#     Edge 19, Type (0, 1), BuildingBlock: ZUJKAS_clean_linker_0, # of connection points: 2
#     Edge 20, Type (0, 1), BuildingBlock: ZUJKAS_clean_linker_0, # of connection points: 2
#     Edge 21, Type (0, 1), BuildingBlock: ZUJKAS_clean_linker_0, # of connection points: 2
#     Edge 22, Type (0, 1), BuildingBlock: ZUJKAS_clean_linker_0, # of connection points: 2
#     Edge 23, Type (0, 1), BuildingBlock: ZUJKAS_clean_linker_0, # of connection points: 2
#     Edge 24, Type (0, 1), BuildingBlock: ZUJKAS_clean_linker_0, # of connection points: 2
#     Edge 25, Type (0, 1), BuildingBlock: ZUJKAS_clean_linker_0, # of connection points: 2
#     Edge 26, Type (0, 1), BuildingBlock: ZUJKAS_clean_linker_0, # of connection points: 2
#     Edge 27, Type (0, 1), BuildingBlock: ZUJKAS_clean_linker_0, # of connection points: 2
#     Edge 28, Type (0, 1), BuildingBlock: ZUJKAS_clean_linker_0, # of connection points: 2
#     Edge 29, Type (0, 1), BuildingBlock: ZUJKAS_clean_linker_0, # of connection points: 2
#     Edge 30, Type (0, 1), BuildingBlock: ZUJKAS_clean_linker_0, # of connection points: 2
#     Edge 31, Type (0, 1), BuildingBlock: ZUJKAS_clean_linker_0, # of connection points: 2
#     Edge 32, Type (0, 1), BuildingBlock: ZUJKAS_clean_linker_0, # of connection points: 2
#     Edge 33, Type (0, 1), BuildingBlock: ZUJKAS_clean_linker_0, # of connection points: 2
#     Edge 34, Type (0, 1), BuildingBlock: ZUJKAS_clean_linker_0, # of connection points: 2
#     Edge 35, Type (0, 1), BuildingBlock: ZUJKAS_clean_linker_0, # of connection points: 2
# Relax obj value: 0.415
# Max RMSD: 0.273
# Mean RMSD: 0.251
data_MOF--net-zzz--node1-BETFEN_clean_sbu_0--node2-KAKCAD_clean_linker_0--edge1-ZUJKAS_clean_linker_0
_symmetry_space_group_name_H-M    P1
_symmetry_Int_Tables_number       1
_symmetry_cell_setting            triclinic
loop_
_symmetry_equiv_pos_as_xyz
'x, y, z'
_cell_length_a     75.291517
_cell_length_b     75.369972
_cell_length_c     22.780411
_cell_angle_alpha  89.941311
_cell_angle_beta   90.08833
_cell_angle_gamma 89.906225
loop_
_atom_site_label
_atom_site_type_symbol
_atom_site_fract_x
_atom_site_fract_y
_atom_site_fract_z
_atom_type_partial_charge
C0 C 0.75389 0.51877 0.014 0.0
C1 C 0.76976 0.50954 1.00286 0.0
C2 C 0.74534 0.517 0.06809 0.0
C3 C 0.75251 0.50597 0.11203 0.0
C4 C 0.7679 0.49615 0.09988 0.0
C5 C 0.77645 0.49794 0.04603 0.0
C6 C 0.7444 0.50524 0.17117 0.0
C7 C 0.72597 0.50447 0.17744 0.0
C8 C 0.71809 0.50427 0.23312 0.0
C9 C 0.72889 0.5047 0.28386 0.0
C10 C 0.74755 0.50548 0.27784 0.0
C11 C 0.75507 0.50575 0.22156 0.0
C12 C 0.75991 0.50647 0.32843 0.0
C13 C 0.76845 0.5226 0.34054 0.0
C14 C 0.76657 0.49083 0.35383 0.0
C15 C 0.78212 0.49118 0.38791 0.0
C16 C 0.79141 0.50718 0.39669 0.0
C17 C 0.69847 0.50395 0.23457 0.0
C18 C 0.68917 0.51978 0.2237 0.0
C19 C 0.68969 0.48772 0.22667 0.0
C20 C 0.67247 0.48729 0.20338 0.0
C21 C 0.66375 0.50309 0.18701 0.0
C22 C 0.67195 0.51937 0.20036 0.0
C23 C 0.78397 0.52297 0.37447 0.0
H24 H 0.74836 0.52772 0.98155 0.0
H25 H 0.73351 0.5248 0.07629 0.0
H26 H 0.77357 0.48734 0.13254 0.0
H27 H 0.7888 0.49083 0.03948 0.0
H28 H 0.7176 0.50395 0.13864 0.0
H29 H 0.76939 0.50669 0.21716 0.0
H30 H 0.7229 0.50464 0.32706 0.0
H31 H 0.76377 0.53478 0.32046 0.0
H32 H 0.76048 0.47817 0.34379 0.0
H33 H 0.7875 0.47875 0.4039 0.0
H34 H 0.69585 0.53244 0.2279 0.0
H35 H 0.69674 0.47534 0.23344 0.0
H36 H 0.79058 0.53557 0.3811 0.0
H37 H 0.66575 0.53181 0.18805 0.0
H38 H 0.66644 0.47452 0.19469 0.0
C39 C 0.06327 0.75546 0.04542 0.0
C40 C 0.07551 0.7673 0.07072 0.0
C41 C 0.05198 0.7454 0.08073 0.0
C42 C 0.05287 0.74669 0.14226 0.0
C43 C 0.0664 0.75706 0.16743 0.0
C44 C 0.07751 0.76735 0.1321 0.0
C45 C 0.03851 0.73907 0.17937 0.0
C46 C 0.03021 0.72307 0.16423 0.0
C47 C 0.01516 0.7171 0.19468 0.0
C48 C 0.0084 0.72716 0.24179 0.0
C49 C 0.01685 0.74307 0.25828 0.0
C50 C 0.0318 0.74883 0.22687 0.0
C51 C 0.00987 0.75488 0.30501 0.0
C52 C 0.99317 0.763 0.29896 0.0
C53 C 0.02136 0.76079 0.3495 0.0
C54 C 0.01678 0.77525 0.38474 0.0
C55 C 1.00061 0.78427 0.37608 0.0
C56 C 0.00649 0.70068 0.17379 0.0
C57 C 0.99831 0.7006 0.11841 0.0
C58 C 0.00932 0.68452 0.20296 0.0
C59 C 0.00497 0.66844 0.17553 0.0
C60 C 0.99767 0.66828 0.11853 0.0
C61 C 0.99384 0.6846 0.09121 0.0
C62 C 0.9886 0.77761 0.33404 0.0
H63 H 0.06168 0.75475 0.99822 0.0
H64 H 0.04178 0.73757 0.05955 0.0
H65 H 0.06781 0.75799 0.21464 0.0
H66 H 0.08677 0.77628 0.15329 0.0
H67 H 0.03528 0.71528 0.12795 0.0
H68 H 0.0376 0.76157 0.2377 0.0
H69 H 0.99661 0.72277 0.26481 0.0
H70 H 0.98417 0.75884 0.26449 0.0
H71 H 0.03439 0.75485 0.35466 0.0
H72 H 0.02644 0.78005 0.41617 0.0
H73 H 0.99629 0.71292 0.09475 0.0
H74 H 0.01588 0.68428 0.24532 0.0
H75 H 0.97595 0.7841 0.32672 0.0
H76 H 0.98846 0.68503 0.04711 0.0
H77 H 0.00794 0.65612 0.19801 0.0
C78 C 0.75819 0.05689 0.05496 0.0
C79 C 0.74285 0.06637 0.07122 0.0
C80 C 0.76748 0.04676 0.09627 0.0
C81 C 0.76201 0.04632 0.15531 0.0
C82 C 0.74814 0.05764 0.1728 0.0
C83 C 0.73853 0.06732 0.13128 0.0
C84 C 0.76918 0.03265 0.19644 0.0
C85 C 0.78673 0.02659 0.19181 0.0
C86 C 0.79274 0.01194 0.22452 0.0
C87 C 0.78108 1.00348 0.2641 0.0
C88 C 0.7637 0.01008 0.27151 0.0
C89 C 0.75789 0.02439 0.2371 0.0
C90 C 0.75084 1.00242 0.31371 0.0
C91 C 0.74184 0.98662 0.30052 0.0
C92 C 0.74465 0.013 0.36009 0.0
C93 C 0.72924 0.00841 0.39073 0.0
C94 C 0.71949 0.99319 0.37534 0.0
C95 C 0.81103 0.00549 0.21315 0.0
C96 C 0.81379 0.98938 0.18358 0.0
C97 C 0.82536 0.01722 0.21988 0.0
C98 C 0.84174 0.01359 0.19372 0.0
C99 C 0.84414 0.99822 0.15962 0.0
C100 C 0.83022 0.98576 0.15703 0.0
C101 C 0.72631 0.98204 0.33103 0.0
H102 H 0.76243 0.05633 0.00962 0.0
H103 H 0.77816 0.03836 0.08076 0.0
H104 H 0.74397 0.05824 0.21822 0.0
H105 H 0.7269 0.07443 0.14631 0.0
H106 H 0.79573 0.03295 0.16124 0.0
H107 H 0.74415 0.02858 0.24075 0.0
H108 H 0.78556 0.99213 0.28938 0.0
H109 H 0.74616 0.97843 0.26417 0.0
H110 H 0.75116 0.02544 0.37022 0.0
H111 H 0.72437 0.01745 0.42395 0.0
H112 H 0.80286 0.98027 0.17702 0.0
H113 H 0.82352 0.02976 0.24228 0.0
H114 H 0.71927 0.97011 0.31846 0.0
H115 H 0.83156 0.97383 0.13098 0.0
H116 H 0.85228 0.02328 0.19778 0.0
C117 C 0.49673 0.7228 0.39858 0.0
C118 C 0.51266 0.7136 0.38775 0.0
C119 C 0.49181 0.73729 0.36388 0.0
C120 C 0.50272 0.74306 0.31774 0.0
C121 C 0.51919 0.73473 0.30915 0.0
C122 C 0.5241 0.72008 0.34375 0.0
C123 C 0.49519 0.7551 0.27253 0.0
C124 C 0.50293 0.77153 0.2579 0.0
C125 C 0.49484 0.78243 0.21518 0.0
C126 C 0.47943 0.77662 0.18631 0.0
C127 C 0.47211 0.75992 0.19842 0.0
C128 C 0.47999 0.74942 0.24223 0.0
C129 C 0.45744 0.75256 0.16189 0.0
C130 C 0.44495 0.74086 0.18638 0.0
C131 C 0.45707 0.75551 0.1009 0.0
C132 C 0.44563 0.74579 0.06494 0.0
C133 C 0.43456 0.73262 0.08889 0.0
C134 C 0.50239 0.7997 0.19716 0.0
C135 C 0.4929 0.81533 0.20872 0.0
C136 C 0.51668 0.80024 0.15778 0.0
C137 C 0.52062 0.81591 0.12729 0.0
C138 C 0.51031 0.83132 0.13571 0.0
C139 C 0.49691 0.83101 0.17876 0.0
C140 C 0.43377 0.73088 0.15034 0.0
H141 H 0.48747 0.71814 0.43147 0.0
H142 H 0.47894 0.74339 0.37092 0.0
H143 H 0.52772 0.73879 0.27334 0.0
H144 H 0.53657 0.71345 0.33468 0.0
H145 H 0.5149 0.77589 0.28002 0.0
H146 H 0.47482 0.73629 0.25134 0.0
H147 H 0.4734 0.78503 0.15316 0.0
H148 H 0.44445 0.73866 0.23334 0.0
H149 H 0.46642 0.76442 0.08021 0.0
H150 H 0.44624 0.74789 0.01795 0.0
H151 H 0.48169 0.81514 0.2385 0.0
H152 H 0.52394 0.78823 0.14736 0.0
H153 H 0.42548 0.72092 0.17076 0.0
H154 H 0.48895 0.8427 0.1874 0.0
H155 H 0.53094 0.81556 0.09425 0.0
C156 C 0.26062 0.49231 0.32981 0.0
C157 C 0.24862 0.47875 0.34398 0.0
C158 C 0.26781 0.49337 0.2735 0.0
C159 C 0.26293 0.48102 0.23021 0.0
C160 C 0.25135 0.46715 0.24489 0.0
C161 C 0.24434 0.46595 0.30146 0.0
C162 C 0.26976 0.48285 0.16971 0.0
C163 C 0.28783 0.48558 0.16052 0.0
C164 C 0.29463 0.48792 0.10394 0.0
C165 C 0.283 0.48771 0.05518 0.0
C166 C 0.2646 0.48469 0.06375 0.0
C167 C 0.25824 0.48232 0.12142 0.0
C168 C 0.2515 0.48418 0.01427 0.0
C169 C 0.25119 0.49733 0.97045 0.0
C170 C 0.23784 0.47147 0.01469 0.0
C171 C 0.22369 0.47247 0.97502 0.0
C172 C 0.22279 0.4861 0.93285 0.0
C173 C 0.31408 0.49039 0.0998 0.0
C174 C 0.32113 0.5075 0.10654 0.0
C175 C 0.32509 0.47571 0.11094 0.0
C176 C 0.34215 0.47803 0.13422 0.0
C177 C 0.3486 0.49514 0.14691 0.0
C178 C 0.33825 0.50986 0.1295 0.0
C179 C 0.237 0.49829 0.93024 0.0
H180 H 0.26402 0.50238 0.3618 0.0
H181 H 0.2767 0.50422 0.26316 0.0
H182 H 0.24754 0.45737 0.21238 0.0
H183 H 0.23488 0.45553 0.31109 0.0
H184 H 0.29679 0.48579 0.19791 0.0
H185 H 0.24414 0.48061 0.1291 0.0
H186 H 0.28824 0.48954 0.01133 0.0
H187 H 0.26147 0.50736 0.96891 0.0
H188 H 0.23774 0.461 0.04733 0.0
H189 H 0.21306 0.46291 0.97944 0.0
H190 H 0.31278 0.51903 0.09949 0.0
H191 H 0.3198 0.46238 0.1076 0.0
H192 H 0.23702 0.50881 0.89785 0.0
H193 H 0.3429 0.52324 0.13726 0.0
H194 H 0.34954 0.46634 0.14719 0.0
C195 C 0.00683 0.24052 0.33784 0.0
C196 C 0.01866 0.22705 0.35529 0.0
C197 C 0.00931 0.24946 0.28479 0.0
C198 C 0.02356 0.24499 0.24794 0.0
C199 C 0.0359 0.23221 0.26659 0.0
C200 C 0.03357 0.22344 0.32001 0.0
C201 C 0.02496 0.253 0.18891 0.0
C202 C 0.02348 0.27132 0.18188 0.0
C203 C 0.02394 0.27907 0.12598 0.0
C204 C 0.02567 0.26818 0.07586 0.0
C205 C 0.02717 0.24956 0.08248 0.0
C206 C 0.02694 0.24223 0.1393 0.0
C207 C 0.02818 0.23716 0.03164 0.0
C208 C 0.01516 0.23732 0.9874 0.0
C209 C 0.04064 0.22324 0.03236 0.0
C210 C 0.03946 0.20924 0.99233 0.0
C211 C 0.02579 0.20873 0.95018 0.0
C212 C 0.02278 0.29866 0.12344 0.0
C213 C 0.00701 0.30693 0.14166 0.0
C214 C 0.03842 0.30872 0.1207 0.0
C215 C 0.03859 0.32632 0.14063 0.0
C216 C 0.02311 0.33415 0.16397 0.0
C217 C 0.00714 0.32448 0.16153 0.0
C218 C 0.01394 0.22323 0.94719 0.0
H219 H 0.99508 0.24349 0.36341 0.0
H220 H 0.99958 0.25924 0.27119 0.0
H221 H 0.04717 0.22877 0.2393 0.0
H222 H 0.04314 0.2134 0.33273 0.0
H223 H 0.02213 0.27969 0.22038 0.0
H224 H 0.02756 0.22795 0.14491 0.0
H225 H 0.02587 0.2741 0.03251 0.0
H226 H 0.0053 0.24779 0.98599 0.0
H227 H 0.05085 0.22275 0.0659 0.0
H228 H 0.04875 0.19833 0.9967 0.0
H229 H 0.99488 0.2993 0.14546 0.0
H230 H 0.05082 0.30252 0.10797 0.0
H231 H 1.0034 0.22347 0.91479 0.0
H232 H 0.99499 0.3299 0.17953 0.0
H233 H 0.05106 0.33345 0.14088 0.0
C234 C 0.25067 0.0421 0.29686 0.0
C235 C 0.26504 0.05394 0.29438 0.0
C236 C 0.24189 0.03703 0.24567 0.0
C237 C 0.24702 0.04395 0.19086 0.0
C238 C 0.26013 0.05721 0.18931 0.0
C239 C 0.26911 0.06209 0.24049 0.0
C240 C 0.24016 0.03587 0.13574 0.0
C241 C 0.22279 0.02938 0.13299 0.0
C242 C 0.21707 0.01896 0.08576 0.0
C243 C 0.22876 0.01552 0.03868 0.0
C244 C 0.24606 0.02282 0.03923 0.0
C245 C 0.25157 0.03278 0.08815 0.0
C246 C 0.25924 0.01975 0.9915 0.0
C247 C 0.26477 1.00253 0.97648 0.0
C248 C 0.26848 0.03427 0.96776 0.0
C249 C 0.28345 0.03171 0.93243 0.0
C250 C 0.2897 0.01452 0.91993 0.0
C251 C 0.19914 0.01111 0.09096 0.0
C252 C 0.19685 0.99659 0.12882 0.0
C253 C 0.18422 0.0212 0.075 0.0
C254 C 0.16758 0.0177 0.10011 0.0
C255 C 0.1656 0.00421 0.14257 0.0
C256 C 0.1803 0.99317 0.15435 0.0
C257 C 0.27989 0.99994 0.94125 0.0
H258 H 0.24699 0.03584 0.33788 0.0
H259 H 0.23192 0.02674 0.24893 0.0
H260 H 0.2641 0.06317 0.14809 0.0
H261 H 0.28013 0.07124 0.23686 0.0
H262 H 0.21371 0.03191 0.16896 0.0
H263 H 0.26521 0.03732 0.09028 0.0
H264 H 0.22447 0.00732 1.0023 0.0
H265 H 0.25804 0.99109 0.99466 0.0
H266 H 0.26458 0.0477 0.97886 0.0
H267 H 0.29065 0.04329 0.91755 0.0
H268 H 0.20826 0.98893 0.14311 0.0
H269 H 0.18572 0.03271 0.04692 0.0
H270 H 0.28415 0.98651 0.93195 0.0
H271 H 0.17951 0.98278 0.18706 0.0
H272 H 0.15653 0.02625 0.08875 0.0
C273 C 0.47337 0.27867 0.93839 0.0
C274 C 0.4902 0.28463 0.92036 0.0
C275 C 0.47175 0.26418 0.97643 0.0
C276 C 0.48687 0.25516 0.99705 0.0
C277 C 0.50362 0.26023 0.9759 0.0
C278 C 0.50528 0.27485 0.93803 0.0
C279 C 0.48537 0.24366 0.04979 0.0
C280 C 0.49098 0.22575 0.05096 0.0
C281 C 0.48989 0.21596 0.10378 0.0
C282 C 0.48336 0.22415 0.15463 0.0
C283 C 0.47823 0.24194 0.15408 0.0
C284 C 0.47905 0.25153 0.10154 0.0
C285 C 0.47379 0.251 0.2096 0.0
C286 C 0.46123 0.2439 0.24873 0.0
C287 C 0.48279 0.26661 0.2246 0.0
C288 C 0.47938 0.27499 0.27776 0.0
C289 C 0.4668 0.26802 0.31694 0.0
C290 C 0.49609 0.19739 0.10964 0.0
C291 C 0.48525 0.18335 0.09106 0.0
C292 C 0.51034 0.19376 0.14759 0.0
C293 C 0.51285 0.17674 0.17051 0.0
C294 C 0.50114 0.16286 0.15602 0.0
C295 C 0.4878 0.16621 0.11382 0.0
C296 C 0.45759 0.25249 0.30187 0.0
H297 H 0.46147 0.28589 0.92631 0.0
H298 H 0.4587 0.26069 0.99277 0.0
H299 H 0.51551 0.25369 0.99186 0.0
H300 H 0.51843 0.27892 0.92441 0.0
H301 H 0.49626 0.21961 0.0117 0.0
H302 H 0.47522 0.26542 0.10134 0.0
H303 H 0.48294 0.21678 0.19555 0.0
H304 H 0.45415 0.23183 0.23792 0.0
H305 H 0.49267 0.27222 0.1955 0.0
H306 H 0.48642 0.28714 0.28786 0.0
H307 H 0.474 0.18589 0.06256 0.0
H308 H 0.51867 0.20446 0.16337 0.0
H309 H 0.44774 0.24698 0.33129 0.0
H310 H 0.47873 0.15581 0.10061 0.0
H311 H 0.52314 0.1749 0.20318 0.0
Pr312 Pr 0.01821 0.99006 0.7168 0.0
Pr313 Pr 0.99481 0.00426 0.59981 0.0
C314 C 0.02804 0.97586 0.8197 0.0
C315 C 0.03984 0.96126 0.83828 0.0
C316 C 0.0577 0.96044 0.82028 0.0
C317 C 0.06807 0.94553 0.83343 0.0
C318 C 0.06067 0.93116 0.86395 0.0
C319 C 0.04301 0.93226 0.88347 0.0
C320 C 0.03272 0.94721 0.87098 0.0
C321 C 0.03963 0.99359 0.61594 0.0
C322 C 1.00277 0.96103 0.61589 0.0
C323 C 0.9844 0.02058 0.50176 0.0
C324 C 0.97462 0.03739 0.49784 0.0
C325 C 0.96312 0.04229 0.54364 0.0
C326 C 0.95805 0.05996 0.55081 0.0
C327 C 0.96448 0.07304 0.5125 0.0
C328 C 0.97476 0.06783 0.4638 0.0
C329 C 0.97981 0.05013 0.45664 0.0
C330 C 0.97349 1.00006 0.7007 0.0
C331 C 0.00948 0.0335 0.70053 0.0
O332 O 0.0136 0.97102 0.79169 0.0
O333 O 0.03556 0.99011 0.79776 0.0
O334 O 0.02329 0.99667 0.62115 0.0
O335 O 0.04584 0.98852 0.66659 0.0
O336 O 0.99846 0.97405 0.57921 0.0
O337 O 0.00861 0.96382 0.67024 0.0
O338 O 1.00048 0.0223 0.52317 0.0
O339 O 0.97568 0.00701 0.52363 0.0
O340 O 0.9899 0.99762 0.69537 0.0
O341 O 0.96712 0.00486 0.65008 0.0
O342 O 0.01426 0.02048 0.73659 0.0
O343 O 1.00354 0.03066 0.64652 0.0
H344 H 0.06352 0.97105 0.79467 0.0
H345 H 0.08164 0.94494 0.81778 0.0
H346 H 0.03707 0.92142 0.90773 0.0
H347 H 0.01902 0.94757 0.8854 0.0
H348 H 0.95909 0.03272 0.5765 0.0
H349 H 0.94995 0.06353 0.58827 0.0
H350 H 0.98013 0.07761 0.43383 0.0
H351 H 0.98893 0.04667 0.42169 0.0
Pr352 Pr 0.51187 0.0071 0.7067 0.0
Pr353 Pr 0.49743 0.98639 0.59336 0.0
C354 C 0.52738 0.01551 0.8087 0.0
C355 C 0.54338 0.02578 0.82272 0.0
C356 C 0.5442 0.03592 0.87413 0.0
C357 C 0.55943 0.0458 0.88704 0.0
C358 C 0.57411 0.0456 0.84874 0.0
C359 C 0.57301 0.03563 0.79669 0.0
C360 C 0.55776 0.02595 0.78364 0.0
C361 C 0.50838 0.03089 0.61166 0.0
C362 C 0.54041 0.9928 0.60265 0.0
C363 C 0.47752 0.97782 0.50076 0.0
C364 C 0.46099 0.98696 0.48456 0.0
C365 C 0.44645 0.97756 0.46213 0.0
C366 C 0.42986 0.98588 0.45708 0.0
C367 C 0.42764 1.00363 0.47497 0.0
C368 C 0.4424 0.01309 0.49563 0.0
C369 C 0.45884 0.00482 0.50066 0.0
C370 C 0.50844 0.96517 0.68684 0.0
C371 C 0.46862 1.00356 0.69144 0.0
O372 O 0.53008 1.00031 0.78199 0.0
O373 O 0.51407 0.02464 0.78691 0.0
O374 O 0.50497 0.01461 0.61278 0.0
O375 O 0.5138 0.03577 0.66326 0.0
O376 O 0.52709 0.98982 0.56597 0.0
O377 O 0.5378 0.99715 0.65844 0.0
O378 O 0.49205 0.98727 0.4957 0.0
O379 O 0.47666 0.96904 0.5503 0.0
O380 O 0.49978 0.97949 0.69129 0.0
O381 O 0.5108 0.96081 0.63206 0.0
O382 O 0.48163 0.00575 0.72975 0.0
O383 O 0.47176 0.99884 0.63649 0.0
H384 H 0.53309 0.03617 0.90431 0.0
H385 H 0.55973 0.05351 0.92709 0.0
H386 H 0.58411 0.03487 0.76664 0.0
H387 H 0.5573 0.01841 0.74321 0.0
H388 H 0.44775 0.96367 0.45072 0.0
H389 H 0.41865 0.97826 0.44127 0.0
H390 H 0.44119 0.02683 0.5089 0.0
H391 H 0.46972 0.01224 0.51959 0.0
Pr392 Pr 0.49346 0.50791 0.72726 0.0
Pr393 Pr 0.51724 0.49438 0.61915 0.0
C394 C 0.4824 0.52248 0.82801 0.0
C395 C 0.47125 0.53798 0.84054 0.0
C396 C 0.46393 0.54043 0.89642 0.0
C397 C 0.45363 0.55547 0.90826 0.0
C398 C 0.45062 0.56827 0.86434 0.0
C399 C 0.45768 0.56551 0.80801 0.0
C400 C 0.46786 0.55046 0.79616 0.0
C401 C 0.47223 0.50482 0.62568 0.0
C402 C 0.51045 0.53715 0.62986 0.0
C403 C 0.52775 0.47522 0.52739 0.0
C404 C 0.51848 0.45918 0.50734 0.0
C405 C 0.52804 0.44387 0.49246 0.0
C406 C 0.51926 0.42759 0.48706 0.0
C407 C 0.50085 0.42645 0.49712 0.0
C408 C 0.49124 0.44196 0.50924 0.0
C409 C 0.49997 0.45813 0.51447 0.0
C410 C 0.53588 0.5038 0.72043 0.0
C411 C 0.49753 0.46493 0.70857 0.0
O412 O 0.49791 0.52602 0.80453 0.0
O413 O 0.47424 0.50907 0.8033 0.0
O414 O 0.48851 0.50168 0.63117 0.0
O415 O 0.46588 0.50965 0.67616 0.0
O416 O 0.51455 0.52413 0.59343 0.0
O417 O 0.50451 0.53418 0.68383 0.0
O418 O 0.51899 0.49016 0.52102 0.0
O419 O 0.53523 0.47361 0.57907 0.0
O420 O 0.52129 0.49556 0.71903 0.0
O421 O 0.54196 0.50651 0.66763 0.0
O422 O 0.49476 0.4775 0.74797 0.0
O423 O 0.50319 0.46865 0.65503 0.0
H424 H 0.46637 0.53084 0.931 0.0
H425 H 0.44849 0.55735 0.9522 0.0
H426 H 0.45542 0.57505 0.77319 0.0
H427 H 0.47326 0.54865 0.7525 0.0
H428 H 0.54236 0.44433 0.48807 0.0
H429 H 0.52698 0.41578 0.4779 0.0
H430 H 0.47703 0.44151 0.51641 0.0
H431 H 0.4923 0.46963 0.52743 0.0
Pr432 Pr 1.00373 0.48908 0.70588 0.0
Pr433 Pr 0.01586 0.51176 0.58385 0.0
C434 C 0.98757 0.48327 0.80803 0.0
C435 C 0.97144 0.49231 0.82808 0.0
C436 C 0.9587 0.48318 0.86098 0.0
C437 C 0.94171 0.49039 0.86807 0.0
C438 C 0.93728 0.50681 0.84216 0.0
C439 C 0.95044 0.5163 0.81204 0.0
C440 C 0.96727 0.50903 0.80452 0.0
C441 C 0.01315 0.4665 0.61291 0.0
C442 C 0.97337 0.50306 0.60339 0.0
C443 C 0.03349 0.51966 0.48604 0.0
C444 C 0.05256 0.51597 0.47647 0.0
C445 C 0.06508 0.52932 0.48818 0.0
C446 C 0.08281 0.52496 0.49883 0.0
C447 C 0.08845 0.50719 0.49689 0.0
C448 C 0.0763 0.49409 0.47928 0.0
C449 C 0.05853 0.49841 0.46926 0.0
C450 C 0.00614 0.53411 0.6772 0.0
C451 C 0.04635 0.49827 0.68684 0.0
O452 O 1.00184 0.4932 0.80398 0.0
O453 O 0.98504 0.47307 0.76222 0.0
O454 O 0.01289 0.48319 0.61387 0.0
O455 O 0.00897 0.46053 0.66482 0.0
O456 O 0.98569 0.5075 0.56439 0.0
O457 O 0.97716 0.49788 0.6579 0.0
O458 O 0.02294 0.50586 0.48923 0.0
O459 O 0.0302 0.53152 0.52663 0.0
O460 O 0.00683 0.51747 0.67605 0.0
O461 O 0.01009 0.54016 0.62533 0.0
O462 O 0.03397 0.49298 0.72435 0.0
O463 O 0.04268 0.50421 0.63309 0.0
H464 H 0.96155 0.47008 0.87824 0.0
H465 H 0.93179 0.48265 0.89097 0.0
H466 H 0.94754 0.52906 0.79227 0.0
H467 H 0.97668 0.51602 0.77723 0.0
H468 H 0.06091 0.54298 0.49382 0.0
H469 H 0.0918 0.53542 0.51211 0.0
H470 H 0.08036 0.48035 0.47533 0.0
H471 H 0.0493 0.48778 0.45972 0.0
H472 H 0.14444 0.03151 0.18185 0.0
H473 H 0.12026 0.03016 0.25255 0.0
H474 H 0.12593 0.97333 0.26282 0.0
H475 H 0.14953 0.97439 0.18924 0.0
H476 H 0.09098 0.98339 0.2684 0.0
H477 H 0.1309 0.02326 0.4247 0.0
H478 H 0.12687 0.03431 0.35618 0.0
H479 H 0.1401 0.0144 0.35784 0.0
C480 C 0.1403 0.01862 0.19763 0.0
C481 C 0.14921 1.00306 0.17978 0.0
C482 C 0.12658 0.01792 0.239 0.0
C483 C 0.12157 1.00171 0.26442 0.0
C484 C 0.12968 0.98605 0.24444 0.0
H485 H 0.07472 0.9865 0.60514 0.0
H486 H 0.09322 0.98838 0.51763 0.0
C487 C 0.14332 0.9867 0.20259 0.0
C488 C 0.10858 1.00118 0.31389 0.0
H489 H 0.10154 0.01652 0.45312 0.0
C490 C 0.09326 0.99065 0.30878 0.0
C491 C 0.11165 0.01045 0.36703 0.0
C492 C 0.12834 0.0211 0.37719 0.0
C493 C 0.08097 0.98917 0.35517 0.0
C494 C 0.08389 0.99873 0.40782 0.0
C495 C 0.09917 0.00931 0.41268 0.0
C496 C 0.07204 0.99713 0.46011 0.0
C497 C 0.06531 0.97689 0.34804 0.0
C498 C 0.05384 1.00143 0.45739 0.0
C499 C 0.04313 1.00021 0.50773 0.0
C500 C 0.05047 0.99492 0.56176 0.0
C501 C 0.06864 0.99068 0.56425 0.0
C502 C 0.07927 0.99177 0.51415 0.0
H503 H 0.06737 0.96728 0.31174 0.0
H504 H 0.06275 0.96939 0.38913 0.0
H505 H 0.05329 0.98485 0.33764 0.0
H506 H 0.04797 0.00594 0.41662 0.0
H507 H 0.02917 1.00344 0.5044 0.0
H508 H 0.47296 0.1424 0.19217 0.0
H509 H 0.47341 0.11735 0.25988 0.0
H510 H 0.53051 0.12037 0.26959 0.0
H511 H 0.53031 0.14473 0.19881 0.0
H512 H 0.51965 0.08637 0.27248 0.0
H513 H 0.48046 0.12556 0.43253 0.0
H514 H 0.46924 0.12242 0.36383 0.0
H515 H 0.48941 0.13518 0.36647 0.0
C516 C 0.4857 0.13749 0.20719 0.0
C517 C 0.5016 0.14588 0.19025 0.0
C518 C 0.48589 0.12329 0.24688 0.0
C519 C 0.50194 0.11731 0.27146 0.0
C520 C 0.51791 0.12488 0.25195 0.0
H521 H 0.51534 0.06619 0.60771 0.0
H522 H 0.51384 0.08604 0.52304 0.0
C523 C 0.51776 0.13895 0.21172 0.0
C524 C 0.50208 0.10384 0.31952 0.0
H525 H 0.48655 0.09578 0.45791 0.0
C526 C 0.51239 0.0884 0.313 0.0
C527 C 0.49285 0.1066 0.37292 0.0
C528 C 0.48251 0.1234 0.38477 0.0
C529 C 0.51373 0.07571 0.35824 0.0
C530 C 0.50414 0.07829 0.41105 0.0
C531 C 0.49378 0.09368 0.41734 0.0
C532 C 0.50536 0.06579 0.46178 0.0
C533 C 0.5259 0.06 0.34971 0.0
C534 C 0.50106 0.04772 0.45598 0.0
C535 C 0.50215 0.03626 0.50446 0.0
C536 C 0.50719 0.04273 0.55985 0.0
C537 C 0.51135 0.06081 0.56564 0.0
C538 C 0.51046 0.07219 0.51722 0.0
H539 H 0.53582 0.06248 0.31457 0.0
H540 H 0.5331 0.05671 0.3909 0.0
H541 H 0.5179 0.0483 0.33666 0.0
H542 H 0.49672 0.04248 0.41413 0.0
H543 H 0.49908 0.02237 0.49855 0.0
H544 H 0.37961 0.47543 0.14867 0.0
H545 H 0.40351 0.47662 0.22172 0.0
H546 H 0.37794 0.52106 0.30537 0.0
H547 H 0.35384 0.51975 0.23395 0.0
H548 H 0.41636 0.52403 0.29372 0.0
H549 H 0.39454 0.46043 0.39473 0.0
H550 H 0.39871 0.46013 0.31701 0.0
H551 H 0.38056 0.47297 0.34532 0.0
C552 C 0.37907 0.48552 0.1824 0.0
C553 C 0.36464 0.49743 0.18521 0.0
C554 C 0.39278 0.48619 0.22412 0.0
C555 C 0.3924 0.49879 0.26948 0.0
C556 C 0.37853 0.51123 0.27076 0.0
H557 H 0.4363 0.50478 0.6158 0.0
H558 H 0.41839 0.5028 0.52628 0.0
C559 C 0.36479 0.51053 0.22937 0.0
C560 C 0.40581 0.49852 0.3176 0.0
H561 H 0.419 0.47475 0.43805 0.0
C562 C 0.41709 0.51318 0.32493 0.0
C563 C 0.4066 0.48443 0.3587 0.0
C564 C 0.39441 0.46862 0.35415 0.0
C565 C 0.42902 0.51419 0.37252 0.0
C566 C 0.4297 0.50016 0.4138 0.0
C567 C 0.41856 0.48542 0.4061 0.0
C568 C 0.44089 0.50111 0.46762 0.0
C569 C 0.44037 0.53052 0.37959 0.0
C570 C 0.45954 0.50067 0.46453 0.0
C571 C 0.46983 0.50172 0.51586 0.0
C572 C 0.46163 0.50323 0.57105 0.0
C573 C 0.443 0.50361 0.57392 0.0
C574 C 0.43274 0.50245 0.52281 0.0
H575 H 0.43636 0.54131 0.34902 0.0
H576 H 0.43956 0.53556 0.42531 0.0
H577 H 0.45444 0.52706 0.37069 0.0
H578 H 0.46611 0.49949 0.42246 0.0
H579 H 0.48416 0.5016 0.51232 0.0
H580 H 0.99846 0.36121 0.16766 0.0
H581 H 0.99797 0.38662 0.23456 0.0
H582 H 0.04884 0.37088 0.30444 0.0
H583 H 0.04936 0.3454 0.23862 0.0
H584 H 0.99814 0.38385 0.35534 0.0
H585 H 0.05538 0.42427 0.28203 0.0
H586 H 0.04557 0.4072 0.23683 0.0
H587 H 0.06088 0.40138 0.29443 0.0
C588 C 0.00966 0.36326 0.19675 0.0
C589 C 0.02395 0.35118 0.1975 0.0
C590 C 0.00938 0.37785 0.23485 0.0
C591 C 0.02345 0.3808 0.27421 0.0
C592 C 0.03802 0.36916 0.27363 0.0
H593 H 0.02141 0.43144 0.61332 0.0
H594 H 0.0242 0.41153 0.52892 0.0
C595 C 0.03829 0.35456 0.23568 0.0
C596 C 0.02214 0.39495 0.31964 0.0
H597 H 0.04366 0.43092 0.37728 0.0
C598 C 0.00801 0.39423 0.35971 0.0
C599 C 0.03494 0.4086 0.32524 0.0
C600 C 0.04996 0.41056 0.28202 0.0
C601 C 0.00663 0.4064 0.40617 0.0
C602 C 0.01984 0.41956 0.4133 0.0
C603 C 0.03366 0.42069 0.37216 0.0
C604 C 0.01956 0.43198 0.46397 0.0
C605 C 0.99103 0.40506 0.44746 0.0
C606 C 0.01649 0.45019 0.45549 0.0
C607 C 0.01486 0.46159 0.50382 0.0
C608 C 0.01654 0.45504 0.5613 0.0
C609 C 0.02011 0.4369 0.56951 0.0
C610 C 0.02166 0.4255 0.52135 0.0
H611 H 0.98003 0.39714 0.42827 0.0
H612 H 0.99537 0.39846 0.48864 0.0
H613 H 0.9859 0.41844 0.45889 0.0
H614 H 0.01472 0.45546 0.4116 0.0
H615 H 0.01148 0.47532 0.49628 0.0
H616 H 0.8606 0.02396 0.0954 0.0
H617 H 0.88541 0.02087 0.02776 0.0
H618 H 0.88903 0.96513 0.0689 0.0
H619 H 0.86391 0.9681 0.13685 0.0
H620 H 0.91976 0.01045 0.04046 0.0
H621 H 0.88392 0.96417 0.892 0.0
H622 H 0.87289 0.97591 0.95049 0.0
H623 H 0.88624 0.95671 0.9665 0.0
C624 C 0.86681 0.01106 0.09098 0.0
C625 C 0.86022 0.99628 0.12181 0.0
C626 C 0.881 0.00931 0.05195 0.0
C627 C 0.88899 0.99273 0.04247 0.0
C628 C 0.88285 0.97799 0.07444 0.0
H629 H 0.98425 0.99015 0.81186 0.0
H630 H 0.96536 0.98631 0.89905 0.0
C631 C 0.86852 0.97972 0.11341 0.0
C632 C 0.90329 0.99107 0.99755 0.0
H633 H 0.91278 0.97245 0.86446 0.0
C634 C 0.91834 1.002 1.00224 0.0
C635 C 0.90137 0.98015 0.94739 0.0
C636 C 0.88519 0.96867 0.93826 0.0
C637 C 0.93118 1.00275 0.95746 0.0
C638 C 0.92913 0.992 0.90699 0.0
C639 C 0.9144 0.98062 0.90327 0.0
C640 C 0.94094 0.99369 0.85481 0.0
C641 C 0.94632 0.01573 0.96327 0.0
C642 C 0.93353 0.99869 0.8007 0.0
C643 C 0.94421 1.00063 0.75109 0.0
C644 C 0.96261 0.99761 0.7542 0.0
C645 C 0.97011 0.9925 0.80818 0.0
C646 C 0.95934 0.99046 0.85807 0.0
H647 H 0.94396 0.02556 0.99872 0.0
H648 H 0.95869 0.00837 0.97391 0.0
H649 H 0.94846 0.02299 0.92144 0.0
H650 H 0.91941 1.00129 0.79692 0.0
H651 H 0.93802 0.00461 0.71017 0.0
H652 H 0.48378 0.85182 0.08902 0.0
H653 H 0.48627 0.87569 0.01737 0.0
H654 H 0.5432 0.86966 0.01631 0.0
H655 H 0.54093 0.84599 0.09002 0.0
H656 H 0.53108 0.90594 0.01567 0.0
H657 H 0.49816 0.86536 0.84426 0.0
H658 H 0.48565 0.86717 0.91104 0.0
H659 H 0.50672 0.85591 0.91143 0.0
C660 C 0.49691 0.85576 0.07476 0.0
C661 C 0.51217 0.8469 0.09556 0.0
C662 C 0.49827 0.8693 0.0331 0.0
C663 C 0.51488 0.87426 0.01074 0.0
C664 C 0.53023 0.86595 0.03272 0.0
H665 H 0.52508 0.93309 0.6832 0.0
H666 H 0.52871 0.9117 0.7632 0.0
C667 C 0.52889 0.85235 0.07458 0.0
C668 C 0.51602 0.88765 0.96294 0.0
H669 H 0.50205 0.89596 0.82288 0.0
C670 C 0.52484 0.90375 0.97335 0.0
C671 C 0.50811 0.88466 0.90744 0.0
C672 C 0.49926 0.86728 0.89248 0.0
C673 C 0.52549 0.91715 0.93026 0.0
C674 C 0.5169 0.91443 0.87566 0.0
C675 C 0.50851 0.89813 0.86485 0.0
C676 C 0.51625 0.92825 0.82894 0.0
C677 C 0.53552 0.93399 0.94338 0.0
C678 C 0.50818 0.94479 0.83924 0.0
C679 C 0.50614 0.95708 0.79351 0.0
C680 C 0.51198 0.95298 0.73651 0.0
C681 C 0.52041 0.93661 0.72661 0.0
C682 C 0.52249 0.92437 0.7723 0.0
H683 H 0.54542 0.932 0.97902 0.0
H684 H 0.54249 0.93897 0.90374 0.0
H685 H 0.52601 0.94434 0.95797 0.0
H686 H 0.50292 0.94797 0.88218 0.0
H687 H 0.49954 0.96957 0.80241 0.0
H688 H 0.63421 0.5248 0.19096 0.0
H689 H 0.60934 0.52572 0.1213 0.0
H690 H 0.63219 0.48186 0.02621 0.0
H691 H 0.65689 0.48081 0.09523 0.0
H692 H 0.61026 0.53239 0.00527 0.0
H693 H 0.58144 0.46581 0.03904 0.0
H694 H 0.59729 0.47535 0.08942 0.0
H695 H 0.60474 0.46455 0.02335 0.0
C696 C 0.63381 0.51521 0.15563 0.0
C697 C 0.6475 0.5026 0.14926 0.0
C698 C 0.61958 0.51574 0.11584 0.0
C699 C 0.61868 0.50367 0.06892 0.0
C700 C 0.63223 0.49098 0.0629 0.0
H701 H 0.57026 0.5149 0.72848 0.0
H702 H 0.58897 0.51609 0.81616 0.0
C703 C 0.64639 0.49039 0.10266 0.0
C704 C 0.60435 0.505 0.02385 0.0
H705 H 0.57384 0.48039 0.9484 0.0
C706 C 0.60213 0.52107 0.99339 0.0
C707 C 0.59349 0.49037 0.00875 0.0
C708 C 0.59421 0.47311 0.04232 0.0
C709 C 0.58996 0.52268 0.94675 0.0
C710 C 0.57998 0.50768 0.92904 0.0
C711 C 0.58163 0.49184 0.96122 0.0
C712 C 0.56826 0.50789 0.87617 0.0
C713 C 0.58791 0.54047 0.9171 0.0
C714 C 0.55041 0.50255 0.88012 0.0
C715 C 0.53974 0.50162 0.82974 0.0
C716 C 0.54671 0.50599 0.77436 0.0
C717 C 0.56446 0.51159 0.77056 0.0
C718 C 0.57515 0.51239 0.82083 0.0
H719 H 0.59157 0.55148 0.94715 0.0
H720 H 0.59692 0.54109 0.87866 0.0
H721 H 0.57408 0.54262 0.90161 0.0
H722 H 0.54478 0.49892 0.92217 0.0
H723 H 0.5261 0.49724 0.83403 0.0
H724 H 0.02096 0.64038 0.11419 0.0
H725 H 0.0202 0.61487 0.048 0.0
H726 H 0.97 0.63267 0.9783 0.0
H727 H 0.97046 0.65813 0.0452 0.0
H728 H 0.97414 0.59334 0.99725 0.0
H729 H 0.02816 0.62504 0.86799 0.0
H730 H 0.03211 0.62265 0.94548 0.0
H731 H 0.01485 0.63723 0.9201 0.0
C732 C 0.0095 0.63866 0.08598 0.0
C733 C 0.99582 0.65141 0.08484 0.0
C734 C 0.00917 0.62411 0.04783 0.0
C735 C 0.99514 0.62199 0.00781 0.0
C736 C 0.98097 0.63409 0.00875 0.0
H737 H 0.99455 0.5681 0.67469 0.0
H738 H 0.99063 0.58836 0.75749 0.0
C739 C 0.98132 0.64869 0.04676 0.0
C740 C 0.99605 0.60813 0.9616 0.0
H741 H 0.01854 0.59687 0.83694 0.0
C742 C 0.98387 0.59403 0.96228 0.0
C743 C 0.00864 0.6092 0.91569 0.0
C744 C 0.02163 0.62438 0.91165 0.0
C745 C 0.98406 0.58089 0.9183 0.0
C746 C 0.99676 0.58192 0.87273 0.0
C747 C 0.00887 0.59606 0.87209 0.0
C748 C 0.99743 0.56893 0.82376 0.0
C749 C 0.97047 0.56622 0.91999 0.0
C750 C 1.00248 0.55121 0.8335 0.0
C751 C 0.00482 0.5396 0.78601 0.0
C752 C 1.002 0.5455 0.72823 0.0
C753 C 0.99666 0.56314 0.71881 0.0
C754 C 0.99441 0.57473 0.76606 0.0
H755 H 0.95963 0.56906 0.95169 0.0
H756 H 0.96457 0.56415 0.8758 0.0
H757 H 0.97705 0.55366 0.93331 0.0
H758 H 0.00526 0.54655 0.87755 0.0
H759 H 0.00949 0.52626 0.79431 0.0
H760 H 0.02271 0.19124 0.36115 0.0
H761 H 0.01123 0.17119 0.43492 0.0
H762 H 0.99208 0.21555 0.53634 0.0
H763 H 1.0039 0.23605 0.46216 0.0
H764 H 0.01556 0.16722 0.55843 0.0
H765 H 0.94681 0.18727 0.49456 0.0
H766 H 0.96559 0.19393 0.45075 0.0
H767 H 0.96216 0.20362 0.52175 0.0
C768 C 0.01661 0.19689 0.3999 0.0
C769 C 0.01417 0.2153 0.40548 0.0
C770 C 0.00997 0.18536 0.44208 0.0
C771 C 1.00066 0.19188 0.49076 0.0
C772 C 0.99904 0.21027 0.49864 0.0
H773 H 0.96792 0.08848 0.62069 0.0
H774 H 0.97202 0.12002 0.64129 0.0
C775 C 0.00576 0.22192 0.45618 0.0
C776 C 0.99119 0.17895 0.52811 0.0
H777 H 0.95079 0.15863 0.53158 0.0
C778 C 1.00129 0.16554 0.55482 0.0
C779 C 0.97255 0.177 0.52373 0.0
C780 C 0.96103 0.19115 0.49618 0.0
C781 C 0.99368 0.14915 0.56933 0.0
C782 C 0.97536 0.14644 0.55823 0.0
C783 C 0.96484 0.16076 0.53946 0.0
C784 C 0.96815 0.12831 0.55122 0.0
C785 C 0.00572 0.13431 0.58971 0.0
C786 C 0.96325 0.12271 0.49468 0.0
C787 C 0.96056 0.10478 0.48293 0.0
C788 C 0.96282 0.09211 0.52748 0.0
C789 C 0.96605 0.09791 0.58532 0.0
C790 C 0.96858 0.11593 0.59716 0.0
H791 H 0.01994 0.13818 0.58933 0.0
H792 H 1.00214 0.13047 0.6352 0.0
H793 H 1.00413 0.12247 0.56121 0.0
H794 H 0.96275 0.13206 0.45855 0.0
H795 H 0.95775 0.10074 0.43826 0.0
H796 H 0.27631 0.02703 0.3646 0.0
H797 H 0.30219 0.02677 0.42715 0.0
H798 H 0.3093 0.08293 0.39891 0.0
H799 H 0.28307 0.08329 0.33505 0.0
H800 H 0.33715 0.06575 0.3648 0.0
H801 H 0.32139 0.03968 0.5833 0.0
H802 H 0.31084 0.02562 0.53054 0.0
H803 H 0.30439 0.04867 0.53567 0.0
C804 C 0.28278 0.03956 0.37368 0.0
C805 C 0.27767 0.05517 0.3443 0.0
C806 C 0.29764 0.03939 0.41001 0.0
C807 C 0.30767 0.05486 0.41835 0.0
C808 C 0.30172 0.07085 0.39327 0.0
H809 H 0.41254 0.02468 0.55894 0.0
H810 H 0.38433 0.04081 0.55292 0.0
C811 C 0.28681 0.07101 0.35653 0.0
C812 C 0.32599 0.05315 0.44149 0.0
H813 H 0.34994 0.02892 0.54044 0.0
C814 C 0.33997 0.05821 0.40433 0.0
C815 C 0.32986 0.04361 0.49351 0.0
C816 C 0.31576 0.0393 0.5382 0.0
C817 C 0.35734 0.05232 0.4144 0.0
C818 C 0.3607 0.04076 0.46202 0.0
C819 C 0.3472 0.03733 0.50282 0.0
C820 C 0.3776 0.03088 0.46669 0.0
C821 C 0.37177 0.05787 0.37234 0.0
C822 C 0.38285 0.01957 0.42091 0.0
C823 C 0.39895 0.01044 0.42399 0.0
C824 C 0.41003 0.01238 0.47314 0.0
C825 C 0.40443 0.02323 0.51993 0.0
C826 C 0.38831 0.03238 0.51677 0.0
H827 H 0.36871 0.07095 0.35213 0.0
H828 H 0.38487 0.05869 0.39465 0.0
H829 H 0.37272 0.04799 0.33641 0.0
H830 H 0.37452 0.01789 0.38252 0.0
H831 H 0.40292 1.0022 0.38733 0.0
H832 H 0.49052 0.27969 0.39759 0.0
H833 H 0.4858 0.3037 0.46663 0.0
H834 H 0.42959 0.30285 0.42879 0.0
H835 H 0.4345 0.27901 0.35752 0.0
H836 H 0.44258 0.33292 0.39917 0.0
H837 H 0.46829 0.32058 0.62018 0.0
H838 H 0.48448 0.31205 0.57022 0.0
H839 H 0.46246 0.30252 0.57168 0.0
C840 C 0.47706 0.28416 0.40574 0.0
C841 C 0.46293 0.27784 0.37152 0.0
C842 C 0.47429 0.29776 0.44601 0.0
C843 C 0.4573 0.30515 0.45321 0.0
C844 C 0.4428 0.29733 0.42412 0.0
H845 H 0.47701 0.41414 0.57773 0.0
H846 H 0.46153 0.38552 0.57745 0.0
C847 C 0.4456 0.28371 0.38346 0.0
C848 C 0.45593 0.32338 0.47715 0.0
H849 H 0.47702 0.35007 0.57588 0.0
C850 C 0.44948 0.33662 0.43915 0.0
C851 C 0.46458 0.32844 0.52974 0.0
C852 C 0.47013 0.31505 0.57541 0.0
C853 C 0.45362 0.35449 0.44821 0.0
C854 C 0.46463 0.35914 0.4959 0.0
C855 C 0.46903 0.34633 0.53822 0.0
C856 C 0.4738 0.37641 0.49719 0.0
C857 C 0.4473 0.36808 0.40421 0.0
C858 C 0.48604 0.3805 0.45277 0.0
C859 C 0.49494 0.3967 0.45291 0.0
C860 C 0.49169 0.40911 0.49746 0.0
C861 C 0.47958 0.40488 0.5424 0.0
C862 C 0.47078 0.38857 0.5425 0.0
H863 H 0.43479 0.36377 0.38257 0.0
H864 H 0.44505 0.38117 0.42536 0.0
H865 H 0.45753 0.36972 0.36962 0.0
H866 H 0.48873 0.37109 0.41794 0.0
H867 H 0.50415 0.39963 0.41774 0.0
H868 H 0.24306 0.45197 0.42353 0.0
H869 H 0.22066 0.45177 0.50182 0.0
H870 H 0.20818 0.50649 0.46329 0.0
H871 H 0.231 0.50697 0.38809 0.0
H872 H 0.20186 0.49941 0.57685 0.0
H873 H 0.17191 0.44637 0.43686 0.0
H874 H 0.19258 0.44156 0.47268 0.0
H875 H 0.19177 0.45773 0.41454 0.0
C876 C 0.23587 0.46406 0.43335 0.0
C877 C 0.23849 0.4794 0.39938 0.0
C878 C 0.22305 0.46392 0.47777 0.0
C879 C 0.21232 0.47893 0.48702 0.0
C880 C 0.21622 0.49471 0.45692 0.0
H881 H 0.11936 0.52525 0.47654 0.0
H882 H 0.14941 0.51627 0.50255 0.0
C883 C 0.22926 0.49498 0.4137 0.0
C884 C 0.1952 0.47782 0.51879 0.0
H885 H 0.1531 0.46281 0.49517 0.0
C886 C 0.19127 0.49103 0.56036 0.0
C887 C 0.18137 0.4667 0.49802 0.0
C888 C 0.18449 0.45233 0.45295 0.0
C889 C 0.17366 0.49486 0.57584 0.0
C890 C 0.1598 0.48511 0.54949 0.0
C891 C 0.16385 0.47036 0.51465 0.0
C892 C 0.14148 0.49203 0.54626 0.0
C893 C 0.16997 0.51008 0.61697 0.0
C894 C 0.12704 0.48135 0.56212 0.0
C895 C 0.10978 0.48648 0.5473 0.0
C896 C 0.1067 0.50223 0.51549 0.0
C897 C 0.12119 0.51316 0.5015 0.0
C898 C 0.1384 0.5081 0.51681 0.0
H899 H 0.18069 0.5113 0.6503 0.0
H900 H 0.16956 0.52263 0.59147 0.0
H901 H 0.15705 0.50844 0.63981 0.0
H902 H 0.1292 0.4688 0.58424 0.0
H903 H 0.09887 0.47799 0.56022 0.0
H904 H 0.10911 0.78172 0.08094 0.0
H905 H 0.1198 0.80905 0.03417 0.0
H906 H 0.07139 0.81224 0.93332 0.0
H907 H 0.06057 0.78545 0.97973 0.0
H908 H 0.10216 0.82306 0.8703 0.0
H909 H 0.0963 0.85548 0.08981 0.0
H910 H 0.11098 0.83678 0.08192 0.0
H911 H 0.0874 0.83363 0.07677 0.0
C912 C 0.10088 0.78812 0.04811 0.0
C913 C 0.0839 0.78143 0.03458 0.0
C914 C 0.10703 0.80369 0.02139 0.0
C915 C 0.09627 0.81277 0.98095 0.0
C916 C 0.07995 0.8054 0.96425 0.0
H917 H 0.05005 0.8977 0.83893 0.0
H918 H 0.0655 0.87001 0.86072 0.0
C919 C 0.07381 0.78995 0.99079 0.0
C920 C 0.10041 0.83098 0.96094 0.0
H921 H 0.0957 0.87374 0.00734 0.0
C922 C 0.10134 0.8342 0.90033 0.0
C923 C 0.0995 0.84549 1.00024 0.0
C924 C 0.09843 0.84282 0.06584 0.0
C925 C 0.09962 0.85143 0.87778 0.0
C926 C 0.09671 0.86568 0.91686 0.0
C927 C 0.09781 0.86273 0.97754 0.0
C928 C 0.08893 0.88265 0.89661 0.0
C929 C 0.09976 0.8541 0.81218 0.0
C930 C 0.0969 0.89898 0.9101 0.0
C931 C 0.08801 0.9149 0.89775 0.0
C932 C 0.07089 0.91461 0.87304 0.0
C933 C 0.06316 0.89826 0.8585 0.0
C934 C 0.07209 0.88245 0.87017 0.0
H935 H 0.1083 0.84404 0.79038 0.0
H936 H 0.08606 0.85249 0.79492 0.0
H937 H 0.10455 0.86756 0.80032 0.0
H938 H 0.10978 0.89937 0.93136 0.0
H939 H 0.09419 0.92737 0.90949 0.0
H940 H 0.73628 0.05172 0.96285 0.0
H941 H 0.71004 0.05579 0.90325 0.0
H942 H 0.69196 0.09718 0.01936 0.0
H943 H 0.71917 0.0945 0.07641 0.0
H944 H 0.681 0.04637 0.95356 0.0
H945 H 0.67069 0.1143 0.86899 0.0
H946 H 0.69213 0.10651 0.89384 0.0
H947 H 0.67601 0.11462 0.94571 0.0
C948 C 0.72736 0.06242 0.97437 0.0
C949 C 0.72977 0.07242 0.02601 0.0
C950 C 0.71216 0.06462 0.94013 0.0
C951 C 0.69885 0.07658 0.9572 0.0
C952 C 0.70204 0.08791 0.00488 0.0
H953 H 0.58939 0.04823 0.95746 0.0
H954 H 0.61916 0.0587 0.98088 0.0
C955 C 0.71752 0.08607 0.03835 0.0
C956 C 0.68059 0.07439 0.93382 0.0
H957 H 0.64403 0.09663 0.88334 0.0
C958 C 0.67309 0.05737 0.9372 0.0
C959 C 0.67018 0.08866 0.91247 0.0
C960 C 0.67775 0.107 0.90446 0.0
C961 C 0.65542 0.05429 0.92159 0.0
C962 C 0.64468 0.06873 0.90393 0.0
C963 C 0.65224 0.08566 0.89819 0.0
C964 C 0.62559 0.06616 0.8917 0.0
C965 C 0.64839 0.03554 0.92447 0.0
C966 C 0.61903 0.06792 0.83443 0.0
C967 C 0.60184 0.06224 0.82098 0.0
C968 C 0.59101 0.05459 0.86458 0.0
C969 C 0.59726 0.05409 0.92277 0.0
C970 C 0.61435 0.05994 0.93621 0.0
H971 H 0.6593 0.0256 0.92312 0.0
H972 H 0.64108 0.03368 0.96629 0.0
H973 H 0.63911 0.03284 0.88762 0.0
H974 H 0.62749 0.07282 0.79961 0.0
H975 H 0.59728 0.06323 0.77599 0.0
H976 H 0.44796 0.71854 0.98769 0.0
H977 H 0.43835 0.69191 0.93794 0.0
H978 H 0.39353 0.68768 0.05459 0.0
H979 H 0.40269 0.71504 0.10396 0.0
H980 H 0.41686 0.6591 0.05899 0.0
H981 H 0.39959 0.67345 0.82838 0.0
H982 H 0.41947 0.6848 0.85001 0.0
H983 H 0.39875 0.69016 0.88525 0.0
C984 C 0.43556 0.71258 1.00133 0.0
C985 C 0.42622 0.71897 0.05049 0.0
C986 C 0.43007 0.69724 0.97258 0.0
C987 C 0.41516 0.68787 0.99226 0.0
C988 C 0.40504 0.6948 0.03855 0.0
H989 H 0.41952 0.57251 0.9254 0.0
H990 H 0.40528 0.60056 0.95358 0.0
C991 C 0.41041 0.71034 0.06705 0.0
C992 C 0.41259 0.66941 0.97198 0.0
H993 H 0.4132 0.64452 0.84713 0.0
C994 C 0.41547 0.65577 0.01289 0.0
C995 C 0.4108 0.66518 0.91189 0.0
C996 C 0.4068 0.67919 0.86648 0.0
C997 C 0.41845 0.63825 0.99473 0.0
C998 C 0.41807 0.63425 0.93403 0.0
C999 C 0.41361 0.64763 0.8936 0.0
C1000 C 0.42493 0.61715 0.91133 0.0
C1001 C 0.42355 0.62456 0.04024 0.0
C1002 C 0.44024 0.6172 0.87631 0.0
C1003 C 0.44824 0.60129 0.85977 0.0
C1004 C 0.44112 0.58499 0.8781 0.0
C1005 C 0.42542 0.58491 0.91143 0.0
C1006 C 0.41729 0.60089 0.92751 0.0
H1007 H 0.42611 0.63059 0.08393 0.0
H1008 H 0.41259 0.61486 0.04517 0.0
H1009 H 0.43564 0.61722 0.02646 0.0
H1010 H 0.4464 0.6296 0.86354 0.0
H1011 H 0.46041 0.60178 0.83453 0.0
H1012 H 0.77565 0.54184 0.9515 0.0
H1013 H 0.7997 0.54919 0.88435 0.0
H1014 H 0.81346 0.4937 0.87215 0.0
H1015 H 0.78877 0.4862 0.93577 0.0
H1016 H 0.8309 0.54484 0.92367 0.0
H1017 H 0.82947 0.50879 0.7152 0.0
H1018 H 0.80964 0.51166 0.75882 0.0
H1019 H 0.82436 0.49308 0.77158 0.0
C1020 C 0.78319 0.53111 0.93206 0.0
C1021 C 0.78059 0.51344 0.95008 0.0
C1022 C 0.79702 0.53536 0.89377 0.0
C1023 C 0.80851 0.52205 0.8733 0.0
C1024 C 0.80468 0.50424 0.88629 0.0
H1025 H 0.91349 0.50578 0.93266 0.0
H1026 H 0.88221 0.51421 0.93005 0.0
C1027 C 0.79071 0.49997 0.92376 0.0
C1028 C 0.82647 0.52669 0.8517 0.0
H1029 H 0.85928 0.5103 0.76417 0.0
C1030 C 0.83693 0.53775 0.88738 0.0
C1031 C 0.83446 0.51787 0.80371 0.0
C1032 C 0.82375 0.50737 0.75991 0.0
C1033 C 0.85538 0.53849 0.88073 0.0
C1034 C 0.86357 0.52757 0.83833 0.0
C1035 C 0.853 0.51824 0.798 0.0
C1036 C 0.88281 0.5238 0.84036 0.0
C1037 C 0.86597 0.55023 0.92131 0.0
C1038 C 0.89341 0.52604 0.79047 0.0
C1039 C 0.91121 0.52084 0.79142 0.0
C1040 C 0.91871 0.51335 0.84248 0.0
C1041 C 0.9081 0.5114 0.89266 0.0
C1042 C 0.89029 0.51646 0.89145 0.0
H1043 H 0.85819 0.56215 0.93405 0.0
H1044 H 0.86914 0.54279 0.96209 0.0
H1045 H 0.8786 0.55458 0.90072 0.0
H1046 H 0.88782 0.53157 0.75064 0.0
H1047 H 0.91892 0.52219 0.75157 0.0
H1048 H 0.05136 0.18747 0.89982 0.0
H1049 H 0.04726 0.15901 0.85068 0.0
H1050 H 0.99046 0.16468 0.86565 0.0
H1051 H 0.99446 0.19278 0.91749 0.0
H1052 H 1.00097 0.13252 0.90148 0.0
H1053 H 0.03252 0.14612 0.68674 0.0
H1054 H 0.04655 0.15153 0.74768 0.0
H1055 H 0.02614 0.16357 0.7367 0.0
C1056 C 0.03796 0.18275 0.89253 0.0
C1057 C 0.02326 0.19252 0.913 0.0
C1058 C 0.03563 0.16652 0.86356 0.0
C1059 C 0.01853 0.15972 0.85349 0.0
C1060 C 1.0038 0.16965 0.87246 0.0
H1061 H 0.99811 0.06387 0.64458 0.0
H1062 H 0.99946 0.09444 0.68031 0.0
C1063 C 0.00612 0.18585 0.9017 0.0
C1064 C 0.01608 0.14171 0.82728 0.0
H1065 H 0.02742 0.11563 0.71022 0.0
C1066 C 0.00664 0.1289 0.85941 0.0
C1067 C 0.02322 0.13694 0.77196 0.0
C1068 C 0.03251 0.15031 0.73345 0.0
C1069 C 0.00463 0.11143 0.83881 0.0
C1070 C 0.01261 0.1064 0.78505 0.0
C1071 C 0.02153 0.11935 0.75187 0.0
C1072 C 0.01199 0.08775 0.76298 0.0
C1073 C 0.99379 0.09857 0.87471 0.0
C1074 C 0.01884 0.07373 0.79697 0.0
C1075 C 0.01805 0.05619 0.77678 0.0
C1076 C 0.01055 0.05222 0.72171 0.0
C1077 C 1.00398 0.06634 0.68723 0.0
C1078 C 0.00474 0.08389 0.70758 0.0
H1079 H 0.98433 0.1056 0.90399 0.0
H1080 H 0.98618 0.08938 0.84611 0.0
H1081 H 1.00282 0.09057 0.90279 0.0
H1082 H 0.0249 0.07636 0.8392 0.0
H1083 H 0.02338 0.04576 0.80441 0.0
H1084 H 0.30285 0.0335 0.82622 0.0
H1085 H 0.33235 0.03143 0.78181 0.0
H1086 H 0.34554 0.98822 0.89815 0.0
H1087 H 0.31614 0.99029 0.94312 0.0
H1088 H 0.36464 0.03624 0.83571 0.0
H1089 H 0.36134 0.96878 0.73985 0.0
H1090 H 0.34184 0.98058 0.76439 0.0
H1091 H 0.35592 0.96941 0.81653 0.0
C1092 C 0.31197 0.02348 0.84227 0.0
C1093 C 0.307 0.01205 0.88841 0.0
C1094 C 0.32886 0.02229 0.81665 0.0
C1095 C 0.34119 0.00956 0.8361 0.0
C1096 C 0.33618 0.99791 0.88136 0.0
H1097 H 0.45624 0.01188 0.8015 0.0
H1098 H 0.42537 0.01393 0.83415 0.0
C1099 C 0.31929 0.99909 0.90705 0.0
C1100 C 0.35956 0.00912 0.81126 0.0
H1101 H 0.38998 0.9822 0.74395 0.0
C1102 C 0.37013 0.02444 0.81538 0.0
C1103 C 0.36673 0.99383 0.78399 0.0
C1104 C 0.35583 0.97726 0.77531 0.0
C1105 C 0.38772 0.02474 0.79441 0.0
C1106 C 0.39512 0.00922 0.76927 0.0
C1107 C 0.38441 0.99405 0.76375 0.0
C1108 C 0.41396 0.00843 0.74887 0.0
C1109 C 0.39815 0.04176 0.79877 0.0
C1110 C 0.41795 0.0044 0.69013 0.0
C1111 C 0.43564 1.00316 0.67128 0.0
C1112 C 0.44981 0.00579 0.71085 0.0
C1113 C 0.44575 0.00989 0.76962 0.0
C1114 C 0.42805 0.01114 0.78839 0.0
H1115 H 0.38929 0.05346 0.80377 0.0
H1116 H 0.40695 0.04113 0.83784 0.0
H1117 H 0.40659 0.04373 0.75937 0.0
H1118 H 0.40735 1.00221 0.65875 0.0
H1119 H 0.43817 0.99993 0.62573 0.0
H1120 H 0.46928 0.2978 0.83106 0.0
H1121 H 0.47032 0.32741 0.78677 0.0
H1122 H 0.51567 0.3404 0.8941 0.0
H1123 H 0.51473 0.31091 0.93844 0.0
H1124 H 0.46611 0.35916 0.84111 0.0
H1125 H 0.53208 0.35727 0.73454 0.0
H1126 H 0.52112 0.33753 0.76088 0.0
H1127 H 0.53309 0.35159 0.81097 0.0
C1128 C 0.47958 0.3069 0.84488 0.0
C1129 C 0.49197 0.30187 0.88825 0.0
C1130 C 0.48017 0.32384 0.81942 0.0
C1131 C 0.49319 0.33614 0.83649 0.0
C1132 C 0.50575 0.33106 0.87902 0.0
H1133 H 0.48863 0.45111 0.8163 0.0
H1134 H 0.48675 0.41985 0.84444 0.0
C1135 C 0.50521 0.31412 0.90436 0.0
C1136 C 0.49299 0.35461 0.81266 0.0
H1137 H 0.51886 0.38595 0.74598 0.0
C1138 C 0.47761 0.36496 0.81989 0.0
C1139 C 0.50787 0.36218 0.78414 0.0
C1140 C 0.52441 0.35152 0.77158 0.0
C1141 C 0.47688 0.38274 0.8011 0.0
C1142 C 0.49208 0.39058 0.77534 0.0
C1143 C 0.50727 0.38007 0.76642 0.0
C1144 C 0.49257 0.40966 0.75773 0.0
C1145 C 0.45974 0.3929 0.80847 0.0
C1146 C 0.49678 0.41447 0.69983 0.0
C1147 C 0.498 0.43237 0.68366 0.0
C1148 C 0.49511 0.44594 0.72513 0.0
C1149 C 0.49078 0.44108 0.78303 0.0
C1150 C 0.48961 0.42316 0.79917 0.0
H1151 H 0.44817 0.38383 0.81202 0.0
H1152 H 0.46042 0.40082 0.84944 0.0
H1153 H 0.45746 0.40211 0.77113 0.0
H1154 H 0.49921 0.40435 0.66707 0.0
H1155 H 0.50144 0.43553 0.63873 0.0
H1156 H 0.20162 0.45977 0.88605 0.0
H1157 H 0.17314 0.463 0.83656 0.0
H1158 H 0.17873 0.5199 0.83995 0.0
H1159 H 0.20667 0.51685 0.89365 0.0
H1160 H 0.14703 0.51123 0.87565 0.0
H1161 H 0.15883 0.47263 0.67253 0.0
H1162 H 0.16424 0.46048 0.73756 0.0
H1163 H 0.17679 0.48004 0.7191 0.0
C1164 C 0.19687 0.47302 0.87648 0.0
C1165 C 0.20658 0.48804 0.89469 0.0
C1166 C 0.18063 0.47483 0.8469 0.0
C1167 C 0.17378 0.49169 0.83318 0.0
C1168 C 0.1837 0.50671 0.84951 0.0
H1169 H 0.07621 0.50844 0.62546 0.0
H1170 H 0.10719 0.50776 0.65868 0.0
C1171 C 0.19985 0.50492 0.87985 0.0
C1172 C 0.15566 0.4937 0.80666 0.0
H1173 H 0.12866 0.47928 0.69539 0.0
C1174 C 0.14314 0.50437 0.83584 0.0
C1175 C 0.15043 0.48491 0.75435 0.0
C1176 C 0.16333 0.47403 0.71872 0.0
C1177 C 0.12557 0.50606 0.81546 0.0
C1178 C 0.12012 0.49657 0.76494 0.0
C1179 C 0.13274 0.48639 0.73448 0.0
C1180 C 0.10129 0.49675 0.74414 0.0
C1181 C 0.11299 0.51808 0.84825 0.0
C1182 C 0.08762 0.49058 0.78071 0.0
C1183 C 0.06989 0.49103 0.76205 0.0
C1184 C 0.06534 0.49753 0.70601 0.0
C1185 C 0.07912 0.50339 0.66894 0.0
C1186 C 0.09689 0.50297 0.68779 0.0
H1187 H 0.12026 0.52812 0.87464 0.0
H1188 H 0.10387 0.52508 0.81763 0.0
H1189 H 0.10486 0.51 0.87883 0.0
H1190 H 0.09067 0.48538 0.82391 0.0
H1191 H 0.05975 0.48627 0.79179 0.0
H1192 H 0.00767 0.79297 0.49101 0.0
H1193 H 0.00576 0.82229 0.53678 0.0
H1194 H 0.98473 0.84401 0.37586 0.0
H1195 H 0.98663 0.81482 0.32982 0.0
H1196 H 0.02358 0.85203 0.50138 0.0
H1197 H 0.95115 0.86508 0.49617 0.0
H1198 H 0.96039 0.84323 0.48483 0.0
H1199 H 0.96006 0.85913 0.42586 0.0
C1200 C 1.00245 0.80395 0.46553 0.0
C1201 C 0.99727 0.80148 0.40668 0.0
C1202 C 1.00133 0.8207 0.49182 0.0
C1203 C 0.99492 0.83537 0.46006 0.0
C1204 C 0.98932 0.83286 0.40182 0.0
H1205 H 0.99144 0.94935 0.508 0.0
H1206 H 0.98949 0.91877 0.47291 0.0
C1207 C 0.9904 0.81611 0.37551 0.0
C1208 C 0.99538 0.85348 0.48625 0.0
H1209 H 0.96985 0.88992 0.51627 0.0
C1210 C 0.01179 0.86024 0.5052 0.0
C1211 C 0.98002 0.86425 0.49099 0.0
C1212 C 0.96188 0.85751 0.47392 0.0
C1213 C 0.01336 0.87759 0.52723 0.0
C1214 C 0.99804 0.88843 0.53141 0.0
C1215 C 0.98159 0.88163 0.51298 0.0
C1216 C 0.99889 0.90697 0.55377 0.0
C1217 C 0.03152 0.88436 0.54411 0.0
C1218 C 0.00459 0.91054 0.61129 0.0
C1219 C 0.00577 0.92804 0.63157 0.0
C1220 C 1.00117 0.94239 0.59485 0.0
C1221 C 0.99516 0.93871 0.53756 0.0
C1222 C 0.99399 0.9212 0.51737 0.0
H1223 H 0.04229 0.87613 0.52489 0.0
H1224 H 0.03333 0.89831 0.52963 0.0
H1225 H 0.03292 0.88393 0.59259 0.0
H1226 H 0.00812 0.89977 0.64059 0.0
H1227 H 0.01035 0.93029 0.67603 0.0
H1228 H 0.70906 0.99779 0.4901 0.0
H1229 H 0.679 0.99577 0.53032 0.0
H1230 H 0.65916 0.9799 0.36075 0.0
H1231 H 0.68911 0.98195 0.32016 0.0
H1232 H 0.64992 0.0152 0.4962 0.0
H1233 H 0.63595 0.94355 0.46735 0.0
H1234 H 0.65807 0.9526 0.46206 0.0
H1235 H 0.64295 0.95439 0.40113 0.0
C1236 C 0.69834 0.99372 0.4614 0.0
C1237 C 0.7016 0.98999 0.40181 0.0
C1238 C 0.68114 0.99254 0.48455 0.0
C1239 C 0.66678 0.98748 0.44884 0.0
C1240 C 0.67003 0.98341 0.38965 0.0
H1241 H 0.55179 0.98437 0.49141 0.0
H1242 H 0.58237 0.98304 0.45522 0.0
C1243 C 0.68723 0.98457 0.36647 0.0
C1244 C 0.64831 0.9876 0.47254 0.0
H1245 H 0.61131 0.96196 0.49192 0.0
C1246 C 0.64154 1.00351 0.49567 0.0
C1247 C 0.63728 0.97239 0.4716 0.0
C1248 C 0.64395 0.95472 0.44972 0.0
C1249 C 0.62403 0.00472 0.51678 0.0
C1250 C 0.61299 0.98953 0.51574 0.0
C1251 C 0.61974 0.97361 0.49267 0.0
C1252 C 0.59441 0.98994 0.53836 0.0
C1253 C 0.61735 0.02241 0.53864 0.0
C1254 C 0.59096 0.99397 0.59744 0.0
C1255 C 0.57349 0.99475 0.61833 0.0
C1256 C 0.55901 0.99143 0.58068 0.0
C1257 C 0.56254 0.98706 0.52173 0.0
C1258 C 0.58005 0.98627 0.50091 0.0
H1259 H 0.62568 0.03356 0.5226 0.0
H1260 H 0.60341 0.02475 0.52458 0.0
H1261 H 0.61775 0.02252 0.58733 0.0
H1262 H 0.60181 0.9965 0.62753 0.0
H1263 H 0.57137 0.99803 0.66405 0.0
H1264 H 0.50698 0.70523 0.50375 0.0
H1265 H 0.50907 0.67599 0.55011 0.0
H1266 H 0.52808 0.65373 0.38764 0.0
H1267 H 0.52592 0.68283 0.34089 0.0
H1268 H 0.49036 0.6463 0.51588 0.0
H1269 H 0.56265 0.6326 0.50642 0.0
H1270 H 0.55352 0.65455 0.49596 0.0
H1271 H 0.55322 0.63875 0.43687 0.0
C1272 C 0.51179 0.69416 0.478 0.0
C1273 C 0.51629 0.69645 0.41848 0.0
C1274 C 0.51302 0.67744 0.50465 0.0
C1275 C 0.51889 0.66265 0.47261 0.0
C1276 C 0.52389 0.66498 0.41372 0.0
H1277 H 0.52203 0.54883 0.52243 0.0
H1278 H 0.5242 0.5794 0.48739 0.0
C1279 C 0.52267 0.68169 0.38702 0.0
C1280 C 0.51846 0.6446 0.49931 0.0
H1281 H 0.54389 0.60805 0.52904 0.0
C1282 C 0.50211 0.638 0.51932 0.0
C1283 C 0.53375 0.63373 0.50352 0.0
C1284 C 0.55182 0.6403 0.48507 0.0
C1285 C 0.50053 0.6207 0.54188 0.0
C1286 C 0.5158 0.60976 0.54563 0.0
C1287 C 0.53219 0.61642 0.52616 0.0
C1288 C 0.51492 0.59123 0.56821 0.0
C1289 C 0.4824 0.61409 0.55964 0.0
C1290 C 0.50924 0.58766 0.62573 0.0
C1291 C 0.50792 0.57014 0.64597 0.0
C1292 C 0.51238 0.55581 0.60922 0.0
C1293 C 0.51843 0.55948 0.55201 0.0
C1294 C 0.51972 0.57699 0.53185 0.0
H1295 H 0.4716 0.62233 0.54047 0.0
H1296 H 0.48044 0.60012 0.54575 0.0
H1297 H 0.48119 0.61468 0.60814 0.0
H1298 H 0.5058 0.59843 0.65503 0.0
H1299 H 0.5033 0.56787 0.69035 0.0
H1300 H 0.82063 0.52568 0.36026 0.0
H1301 H 0.85075 0.52476 0.39999 0.0
H1302 H 0.834 0.48749 0.53226 0.0
H1303 H 0.80357 0.4885 0.4931 0.0
H1304 H 0.8568 0.51712 0.57295 0.0
H1305 H 0.88462 0.48114 0.38134 0.0
H1306 H 0.87167 0.50048 0.36376 0.0
H1307 H 0.86113 0.48167 0.39727 0.0
C1308 C 0.82321 0.51747 0.39836 0.0
C1309 C 0.80957 0.5072 0.42355 0.0
C1310 C 0.84053 0.51682 0.42065 0.0
C1311 C 0.84471 0.5059 0.46866 0.0
C1312 C 0.8311 0.49594 0.49495 0.0
H1313 H 0.9444 0.49064 0.66385 0.0
H1314 H 0.91331 0.49104 0.63359 0.0
C1315 C 0.81373 0.49648 0.47237 0.0
C1316 C 0.86334 0.50484 0.49062 0.0
H1317 H 0.90525 0.49245 0.45016 0.0
C1318 C 0.86741 0.51164 0.54636 0.0
C1319 C 0.87716 0.49771 0.45582 0.0
C1320 C 0.87349 0.48969 0.39639 0.0
C1321 C 0.88502 0.51204 0.56747 0.0
C1322 C 0.89893 0.505 0.53246 0.0
C1323 C 0.89472 0.49795 0.47703 0.0
C1324 C 0.91794 0.50493 0.55179 0.0
C1325 C 0.88853 0.52054 0.62626 0.0
C1326 C 0.93119 0.51208 0.51531 0.0
C1327 C 0.94913 0.51154 0.53198 0.0
C1328 C 0.95429 0.50388 0.58574 0.0
C1329 C 0.94099 0.49677 0.6223 0.0
C1330 C 0.92309 0.49713 0.60527 0.0
H1331 H 0.87779 0.52997 0.63846 0.0
H1332 H 0.88903 0.51007 0.66049 0.0
H1333 H 0.90137 0.52776 0.62655 0.0
H1334 H 0.92766 0.51812 0.47372 0.0
H1335 H 0.95893 0.51717 0.50266 0.0
loop_
_geom_bond_atom_site_label_1
_geom_bond_atom_site_label_2
_geom_bond_distance
_geom_bond_site_symmetry_2
_ccdc_geom_bond_type
C0 C1 1.386 . S
C0 C2 1.397 . S
C0 H24 0.931 . S
C1 C0 1.386 . S
C1 C5 1.397 . S
C2 C0 1.397 . S
C2 C3 1.384 . S
C2 H25 0.930 . S
C3 C2 1.384 . S
C3 C4 1.377 . S
C3 C6 1.481 . S
C4 C3 1.377 . S
C4 C5 1.389 . S
C4 H26 0.929 . S
C5 C1 1.397 . S
C5 C4 1.389 . S
C5 H27 0.931 . S
C6 C3 1.481 . S
C6 C7 1.387 . S
C6 C11 1.390 . S
C7 C6 1.387 . S
C7 C8 1.401 . S
C7 H28 0.930 . S
C8 C7 1.401 . S
C8 C9 1.376 . S
C8 C17 1.511 . S
C9 C8 1.376 . S
C9 C10 1.392 . S
C9 H30 0.931 . S
C10 C9 1.392 . S
C10 C11 1.361 . S
C10 C12 1.500 . S
C11 C6 1.390 . S
C11 C10 1.361 . S
C11 H29 0.931 . S
C12 C10 1.500 . S
C12 C13 1.371 . S
C12 C14 1.365 . S
C13 C12 1.371 . S
C13 C23 1.386 . S
C13 H31 0.931 . S
C14 C12 1.365 . S
C14 C15 1.409 . S
C14 H32 0.929 . S
C15 C14 1.409 . S
C15 C16 1.380 . S
C15 H33 0.930 . S
C16 C15 1.380 . S
C16 C23 1.357 . S
C17 C8 1.511 . S
C17 C18 1.341 . S
C17 C19 1.371 . S
C18 C17 1.341 . S
C18 C22 1.394 . S
C18 H34 0.930 . S
C19 C17 1.371 . S
C19 C20 1.392 . S
C19 H35 0.931 . S
C20 C19 1.392 . S
C20 C21 1.331 . S
C20 H38 0.932 . S
C21 C20 1.331 . S
C21 C22 1.336 . S
C22 C18 1.394 . S
C22 C21 1.336 . S
C22 H37 0.929 . S
C23 C13 1.386 . S
C23 C16 1.357 . S
C23 H36 0.928 . S
H24 C0 0.931 . S
H25 C2 0.930 . S
H26 C4 0.929 . S
H27 C5 0.931 . S
H28 C7 0.930 . S
H29 C11 0.931 . S
H30 C9 0.931 . S
H31 C13 0.931 . S
H32 C14 0.929 . S
H33 C15 0.930 . S
H34 C18 0.930 . S
H35 C19 0.931 . S
H36 C23 0.928 . S
H37 C22 0.929 . S
H38 C20 0.932 . S
C39 C40 1.386 . S
C39 C41 1.397 . S
C39 H63 0.931 . S
C40 C39 1.386 . S
C40 C44 1.397 1_655 S
C41 C39 1.397 . S
C41 C42 1.384 . S
C41 H64 0.930 . S
C42 C41 1.384 . S
C42 C43 1.377 1_655 S
C42 C45 1.481 . S
C43 C42 1.377 1_455 S
C43 C44 1.389 . S
C43 H65 0.929 . S
C44 C40 1.397 1_455 S
C44 C43 1.389 . S
C44 H66 0.931 . S
C45 C42 1.481 . S
C45 C46 1.387 . S
C45 C50 1.390 . S
C46 C45 1.387 . S
C46 C47 1.401 . S
C46 H67 0.930 . S
C47 C46 1.401 . S
C47 C48 1.376 . S
C47 C56 1.511 . S
C48 C47 1.376 . S
C48 C49 1.392 . S
C48 H69 0.931 . S
C49 C48 1.392 . S
C49 C50 1.361 . S
C49 C51 1.500 . S
C50 C45 1.390 . S
C50 C49 1.361 . S
C50 H68 0.931 . S
C51 C49 1.500 . S
C51 C52 1.371 . S
C51 C53 1.365 1_655 S
C52 C51 1.371 . S
C52 C62 1.386 . S
C52 H70 0.931 . S
C53 C51 1.365 1_455 S
C53 C54 1.409 . S
C53 H71 0.929 . S
C54 C53 1.409 . S
C54 C55 1.380 1_455 S
C54 H72 0.930 . S
C55 C54 1.380 1_655 S
C55 C62 1.357 . S
C56 C47 1.511 . S
C56 C57 1.341 . S
C56 C58 1.371 1_655 S
C57 C56 1.341 . S
C57 C61 1.394 . S
C57 H73 0.930 . S
C58 C56 1.371 1_455 S
C58 C59 1.392 . S
C58 H74 0.931 . S
C59 C58 1.392 . S
C59 C60 1.331 1_455 S
C59 H77 0.932 . S
C60 C59 1.331 1_655 S
C60 C61 1.336 . S
C61 C57 1.394 . S
C61 C60 1.336 . S
C61 H76 0.929 . S
C62 C52 1.386 . S
C62 C55 1.357 . S
C62 H75 0.928 . S
H63 C39 0.931 . S
H64 C41 0.930 . S
H65 C43 0.929 . S
H66 C44 0.931 . S
H67 C46 0.930 . S
H68 C50 0.931 . S
H69 C48 0.931 . S
H70 C52 0.931 . S
H71 C53 0.929 . S
H72 C54 0.930 . S
H73 C57 0.930 . S
H74 C58 0.931 . S
H75 C62 0.928 . S
H76 C61 0.929 . S
H77 C59 0.932 . S
C78 C79 1.394 . S
C78 C80 1.397 . S
C78 H102 0.931 . S
C79 C78 1.394 . S
C79 C83 1.389 1_565 S
C80 C78 1.397 . S
C80 C81 1.389 . S
C80 H103 0.930 . S
C81 C80 1.389 . S
C81 C82 1.373 1_565 S
C81 C84 1.480 . S
C82 C81 1.373 1_545 S
C82 C83 1.389 . S
C82 H104 0.929 . S
C83 C79 1.389 1_545 S
C83 C82 1.389 . S
C83 H105 0.931 . S
C84 C81 1.480 . S
C84 C85 1.388 . S
C84 C89 1.390 . S
C85 C84 1.388 . S
C85 C86 1.402 . S
C85 H106 0.930 . S
C86 C85 1.402 . S
C86 C87 1.376 . S
C86 C95 1.513 . S
C87 C86 1.376 . S
C87 C88 1.392 . S
C87 H108 0.934 . S
C88 C87 1.392 . S
C88 C89 1.361 . S
C88 C90 1.499 1_565 S
C89 C84 1.390 . S
C89 C88 1.361 . S
C89 H107 0.931 . S
C90 C88 1.499 1_545 S
C90 C91 1.364 1_545 S
C90 C92 1.373 . S
C91 C90 1.364 1_565 S
C91 C101 1.386 . S
C91 H109 0.931 . S
C92 C90 1.373 . S
C92 C93 1.409 . S
C92 H110 0.929 . S
C93 C92 1.409 . S
C93 C94 1.377 . S
C93 H111 0.930 . S
C94 C93 1.377 . S
C94 C101 1.360 1_545 S
C95 C86 1.513 . S
C95 C96 1.341 . S
C95 C97 1.371 1_565 S
C96 C95 1.341 . S
C96 C100 1.394 . S
C96 H112 0.930 . S
C97 C95 1.371 1_545 S
C97 C98 1.392 . S
C97 H113 0.931 . S
C98 C97 1.392 . S
C98 C99 1.322 1_545 S
C98 H116 0.932 . S
C99 C98 1.322 1_565 S
C99 C100 1.345 . S
C100 C96 1.394 . S
C100 C99 1.345 . S
C100 H115 0.929 . S
C101 C91 1.386 . S
C101 C94 1.360 1_565 S
C101 H114 0.928 . S
H102 C78 0.931 . S
H103 C80 0.930 . S
H104 C82 0.929 . S
H105 C83 0.931 . S
H106 C85 0.930 . S
H107 C89 0.931 . S
H108 C87 0.934 . S
H109 C91 0.931 . S
H110 C92 0.929 . S
H111 C93 0.930 . S
H112 C96 0.930 . S
H113 C97 0.931 . S
H114 C101 0.928 . S
H115 C100 0.929 . S
H116 C98 0.932 . S
C117 C118 1.386 . S
C117 C119 1.397 . S
C117 H141 0.931 . S
C118 C117 1.386 . S
C118 C122 1.397 . S
C119 C117 1.397 . S
C119 C120 1.384 . S
C119 H142 0.930 . S
C120 C119 1.384 . S
C120 C121 1.377 . S
C120 C123 1.481 . S
C121 C120 1.377 . S
C121 C122 1.389 . S
C121 H143 0.929 . S
C122 C118 1.397 . S
C122 C121 1.389 . S
C122 H144 0.931 . S
C123 C120 1.481 . S
C123 C124 1.387 . S
C123 C128 1.390 . S
C124 C123 1.387 . S
C124 C125 1.401 . S
C124 H145 0.930 . S
C125 C124 1.401 . S
C125 C126 1.376 . S
C125 C134 1.511 . S
C126 C125 1.376 . S
C126 C127 1.392 . S
C126 H147 0.931 . S
C127 C126 1.392 . S
C127 C128 1.361 . S
C127 C129 1.500 . S
C128 C123 1.390 . S
C128 C127 1.361 . S
C128 H146 0.931 . S
C129 C127 1.500 . S
C129 C130 1.371 . S
C129 C131 1.365 . S
C130 C129 1.371 . S
C130 C140 1.386 . S
C130 H148 0.931 . S
C131 C129 1.365 . S
C131 C132 1.409 . S
C131 H149 0.929 . S
C132 C131 1.409 . S
C132 C133 1.380 . S
C132 H150 0.930 . S
C133 C132 1.380 . S
C133 C140 1.357 . S
C134 C125 1.511 . S
C134 C135 1.341 . S
C134 C136 1.371 . S
C135 C134 1.341 . S
C135 C139 1.394 . S
C135 H151 0.930 . S
C136 C134 1.371 . S
C136 C137 1.392 . S
C136 H152 0.931 . S
C137 C136 1.392 . S
C137 C138 1.331 . S
C137 H155 0.932 . S
C138 C137 1.331 . S
C138 C139 1.336 . S
C139 C135 1.394 . S
C139 C138 1.336 . S
C139 H154 0.929 . S
C140 C130 1.386 . S
C140 C133 1.357 . S
C140 H153 0.928 . S
H141 C117 0.931 . S
H142 C119 0.930 . S
H143 C121 0.929 . S
H144 C122 0.931 . S
H145 C124 0.930 . S
H146 C128 0.931 . S
H147 C126 0.931 . S
H148 C130 0.931 . S
H149 C131 0.929 . S
H150 C132 0.930 . S
H151 C135 0.930 . S
H152 C136 0.931 . S
H153 C140 0.928 . S
H154 C139 0.929 . S
H155 C137 0.932 . S
C156 C157 1.386 . S
C156 C158 1.397 . S
C156 H180 0.931 . S
C157 C156 1.386 . S
C157 C161 1.397 . S
C158 C156 1.397 . S
C158 C159 1.384 . S
C158 H181 0.930 . S
C159 C158 1.384 . S
C159 C160 1.377 . S
C159 C162 1.481 . S
C160 C159 1.377 . S
C160 C161 1.389 . S
C160 H182 0.929 . S
C161 C157 1.397 . S
C161 C160 1.389 . S
C161 H183 0.931 . S
C162 C159 1.481 . S
C162 C163 1.387 . S
C162 C167 1.390 . S
C163 C162 1.387 . S
C163 C164 1.401 . S
C163 H184 0.930 . S
C164 C163 1.401 . S
C164 C165 1.376 1_554 S
C164 C173 1.511 . S
C165 C164 1.376 1_556 S
C165 C166 1.392 . S
C165 H186 0.931 . S
C166 C165 1.392 . S
C166 C167 1.361 1_556 S
C166 C168 1.500 . S
C167 C162 1.390 . S
C167 C166 1.361 1_554 S
C167 H185 0.931 . S
C168 C166 1.500 . S
C168 C169 1.371 . S
C168 C170 1.365 . S
C169 C168 1.371 . S
C169 C179 1.386 . S
C169 H187 0.931 . S
C170 C168 1.365 . S
C170 C171 1.409 . S
C170 H188 0.929 . S
C171 C170 1.409 . S
C171 C172 1.380 . S
C171 H189 0.930 . S
C172 C171 1.380 . S
C172 C179 1.357 . S
C173 C164 1.511 . S
C173 C174 1.341 . S
C173 C175 1.371 . S
C174 C173 1.341 . S
C174 C178 1.394 . S
C174 H190 0.930 . S
C175 C173 1.371 . S
C175 C176 1.392 . S
C175 H191 0.931 1_554 S
C176 C175 1.392 . S
C176 C177 1.331 . S
C176 H194 0.932 . S
C177 C176 1.331 . S
C177 C178 1.336 . S
C178 C174 1.394 . S
C178 C177 1.336 . S
C178 H193 0.929 . S
C179 C169 1.386 . S
C179 C172 1.357 . S
C179 H192 0.928 . S
H180 C156 0.931 . S
H181 C158 0.930 . S
H182 C160 0.929 . S
H183 C161 0.931 . S
H184 C163 0.930 . S
H185 C167 0.931 . S
H186 C165 0.931 . S
H187 C169 0.931 . S
H188 C170 0.929 . S
H189 C171 0.930 . S
H190 C174 0.930 . S
H191 C175 0.931 1_556 S
H192 C179 0.928 . S
H193 C178 0.929 . S
H194 C176 0.932 . S
C195 C196 1.386 1_655 S
C195 C197 1.397 . S
C195 H219 0.931 . S
C196 C195 1.386 1_455 S
C196 C200 1.397 . S
C197 C195 1.397 . S
C197 C198 1.384 1_655 S
C197 H220 0.930 . S
C198 C197 1.384 1_455 S
C198 C199 1.377 . S
C198 C201 1.481 . S
C199 C198 1.377 . S
C199 C200 1.389 . S
C199 H221 0.929 . S
C200 C196 1.397 . S
C200 C199 1.389 . S
C200 H222 0.931 . S
C201 C198 1.481 . S
C201 C202 1.387 . S
C201 C206 1.390 . S
C202 C201 1.387 . S
C202 C203 1.401 . S
C202 H223 0.930 . S
C203 C202 1.401 . S
C203 C204 1.376 1_554 S
C203 C212 1.511 . S
C204 C203 1.376 1_556 S
C204 C205 1.392 . S
C204 H225 0.931 . S
C205 C204 1.392 . S
C205 C206 1.361 1_556 S
C205 C207 1.500 . S
C206 C201 1.390 . S
C206 C205 1.361 1_554 S
C206 H224 0.931 . S
C207 C205 1.500 . S
C207 C208 1.371 1_455 S
C207 C209 1.365 . S
C208 C207 1.371 1_655 S
C208 C218 1.386 . S
C208 H226 0.931 . S
C209 C207 1.365 . S
C209 C210 1.409 . S
C209 H227 0.929 . S
C210 C209 1.409 . S
C210 C211 1.380 . S
C210 H228 0.930 . S
C211 C210 1.380 . S
C211 C218 1.357 1_455 S
C212 C203 1.511 . S
C212 C213 1.341 1_455 S
C212 C214 1.371 . S
C213 C212 1.341 1_655 S
C213 C217 1.394 . S
C213 H229 0.930 . S
C214 C212 1.371 . S
C214 C215 1.392 . S
C214 H230 0.931 1_554 S
C215 C214 1.392 . S
C215 C216 1.331 . S
C215 H233 0.932 . S
C216 C215 1.331 . S
C216 C217 1.336 1_455 S
C217 C213 1.394 . S
C217 C216 1.336 1_655 S
C217 H232 0.929 . S
C218 C208 1.386 . S
C218 C211 1.357 1_655 S
C218 H231 0.928 . S
H219 C195 0.931 . S
H220 C197 0.930 . S
H221 C199 0.929 . S
H222 C200 0.931 . S
H223 C202 0.930 . S
H224 C206 0.931 . S
H225 C204 0.931 . S
H226 C208 0.931 . S
H227 C209 0.929 . S
H228 C210 0.930 . S
H229 C213 0.930 . S
H230 C214 0.931 1_556 S
H231 C218 0.928 . S
H232 C217 0.929 . S
H233 C215 0.932 . S
C234 C235 1.385 . S
C234 C236 1.397 . S
C234 H258 0.931 . S
C235 C234 1.385 . S
C235 C239 1.398 1_565 S
C236 C234 1.397 . S
C236 C237 1.389 1_565 S
C236 H259 0.930 . S
C237 C236 1.389 1_545 S
C237 C238 1.373 . S
C237 C240 1.480 1_545 S
C238 C237 1.373 . S
C238 C239 1.389 . S
C238 H260 0.929 . S
C239 C235 1.398 1_545 S
C239 C238 1.389 . S
C239 H261 0.931 . S
C240 C237 1.480 1_565 S
C240 C241 1.386 . S
C240 C245 1.390 . S
C241 C240 1.386 . S
C241 C242 1.400 . S
C241 H262 0.935 . S
C242 C241 1.400 . S
C242 C243 1.376 1_554 S
C242 C251 1.512 . S
C243 C242 1.376 1_556 S
C243 C244 1.392 1_565 S
C243 H264 0.933 . S
C244 C243 1.392 1_545 S
C244 C245 1.361 1_546 S
C244 C246 1.499 . S
C245 C240 1.390 . S
C245 C244 1.361 1_564 S
C245 H263 0.931 1_565 S
C246 C244 1.499 . S
C246 C247 1.357 1_545 S
C246 C248 1.380 . S
C247 C246 1.357 1_565 S
C247 C257 1.386 . S
C247 H265 0.931 . S
C248 C246 1.380 . S
C248 C249 1.409 . S
C248 H266 0.929 . S
C249 C248 1.409 . S
C249 C250 1.384 . S
C249 H267 0.930 . S
C250 C249 1.384 . S
C250 C257 1.353 1_545 S
C251 C242 1.512 . S
C251 C252 1.341 . S
C251 C253 1.371 1_565 S
C252 C251 1.341 . S
C252 C256 1.394 . S
C252 H268 0.930 . S
C253 C251 1.371 1_545 S
C253 C254 1.392 . S
C253 H269 0.931 1_554 S
C254 C253 1.392 . S
C254 C255 1.327 1_545 S
C254 H272 0.932 . S
C255 C254 1.327 1_565 S
C255 C256 1.341 . S
C256 C252 1.394 . S
C256 C255 1.341 . S
C256 H271 0.929 . S
C257 C247 1.386 . S
C257 C250 1.353 1_565 S
C257 H270 0.928 . S
H258 C234 0.931 . S
H259 C236 0.930 . S
H260 C238 0.929 . S
H261 C239 0.931 . S
H262 C241 0.935 . S
H263 C245 0.931 1_545 S
H264 C243 0.933 . S
H265 C247 0.931 . S
H266 C248 0.929 . S
H267 C249 0.930 . S
H268 C252 0.930 . S
H269 C253 0.931 1_556 S
H270 C257 0.928 . S
H271 C256 0.929 . S
H272 C254 0.932 . S
C273 C274 1.386 . S
C273 C275 1.397 . S
C273 H297 0.931 . S
C274 C273 1.386 . S
C274 C278 1.397 . S
C275 C273 1.397 . S
C275 C276 1.384 . S
C275 H298 0.930 . S
C276 C275 1.384 . S
C276 C277 1.377 . S
C276 C279 1.481 . S
C277 C276 1.377 . S
C277 C278 1.389 . S
C277 H299 0.929 . S
C278 C274 1.397 . S
C278 C277 1.389 . S
C278 H300 0.931 . S
C279 C276 1.481 . S
C279 C280 1.387 . S
C279 C284 1.390 1_556 S
C280 C279 1.387 . S
C280 C281 1.401 1_556 S
C280 H301 0.930 . S
C281 C280 1.401 1_554 S
C281 C282 1.376 . S
C281 C290 1.511 . S
C282 C281 1.376 . S
C282 C283 1.392 . S
C282 H303 0.931 . S
C283 C282 1.392 . S
C283 C284 1.361 . S
C283 C285 1.500 . S
C284 C279 1.390 1_554 S
C284 C283 1.361 . S
C284 H302 0.931 . S
C285 C283 1.500 . S
C285 C286 1.371 . S
C285 C287 1.365 . S
C286 C285 1.371 . S
C286 C296 1.386 . S
C286 H304 0.931 . S
C287 C285 1.365 . S
C287 C288 1.409 . S
C287 H305 0.929 . S
C288 C287 1.409 . S
C288 C289 1.380 . S
C288 H306 0.930 . S
C289 C288 1.380 . S
C289 C296 1.357 . S
C290 C281 1.511 . S
C290 C291 1.341 . S
C290 C292 1.371 . S
C291 C290 1.341 . S
C291 C295 1.394 . S
C291 H307 0.930 1_554 S
C292 C290 1.371 . S
C292 C293 1.392 . S
C292 H308 0.931 . S
C293 C292 1.392 . S
C293 C294 1.331 . S
C293 H311 0.932 . S
C294 C293 1.331 . S
C294 C295 1.336 . S
C295 C291 1.394 . S
C295 C294 1.336 . S
C295 H310 0.929 . S
C296 C286 1.386 . S
C296 C289 1.357 . S
C296 H309 0.928 . S
H297 C273 0.931 . S
H298 C275 0.930 . S
H299 C277 0.929 . S
H300 C278 0.931 . S
H301 C280 0.930 . S
H302 C284 0.931 . S
H303 C282 0.931 . S
H304 C286 0.931 . S
H305 C287 0.929 . S
H306 C288 0.930 . S
H307 C291 0.930 1_556 S
H308 C292 0.931 . S
H309 C296 0.928 . S
H310 C295 0.929 . S
H311 C293 0.932 . S
Pr312 C314 2.880 . S
Pr312 O332 2.562 . S
Pr312 O333 2.490 . S
Pr312 O334 2.695 1_565 S
Pr312 O335 2.512 . S
Pr312 O337 2.437 . S
Pr312 O340 2.436 1_455 S
Pr312 O342 2.438 1_565 S
Pr313 C323 2.880 . S
Pr313 O334 2.436 1_655 S
Pr313 O336 2.438 1_545 S
Pr313 O338 2.562 . S
Pr313 O339 2.490 . S
Pr313 O340 2.695 1_545 S
Pr313 O341 2.512 . S
Pr313 O343 2.437 . S
C314 Pr312 2.880 . S
C314 C315 1.491 . S
C314 O332 1.254 . S
C314 O333 1.225 . S
C315 C314 1.491 . S
C315 C316 1.392 . S
C315 C320 1.356 . S
C316 C315 1.392 . S
C316 C317 1.368 . S
C316 H344 0.929 . S
C317 C316 1.368 . S
C317 C318 1.386 . S
C317 H345 0.929 . S
C318 C317 1.386 . S
C318 C319 1.373 . S
C319 C318 1.373 . S
C319 C320 1.409 . S
C319 H346 0.931 1_455 S
C320 C315 1.356 . S
C320 C319 1.409 . S
C320 H347 0.930 1_455 S
C321 O334 1.270 1_565 S
C321 O335 1.248 . S
C322 O336 1.267 . S
C322 O337 1.278 1_655 S
C323 Pr313 2.880 . S
C323 C324 1.491 . S
C323 O338 1.254 . S
C323 O339 1.225 . S
C324 C323 1.491 . S
C324 C325 1.392 . S
C324 C329 1.356 . S
C325 C324 1.392 . S
C325 C326 1.368 . S
C325 H348 0.929 . S
C326 C325 1.368 . S
C326 C327 1.386 . S
C326 H349 0.929 . S
C327 C326 1.386 . S
C327 C328 1.373 . S
C328 C327 1.373 . S
C328 C329 1.409 . S
C328 H350 0.931 1_655 S
C329 C324 1.356 . S
C329 C328 1.409 . S
C329 H351 0.930 1_655 S
C330 O340 1.270 1_545 S
C330 O341 1.248 . S
C331 O342 1.267 . S
C331 O343 1.278 1_455 S
O332 Pr312 2.562 . S
O332 C314 1.254 . S
O333 Pr312 2.490 . S
O333 C314 1.225 . S
O334 Pr312 2.695 1_545 S
O334 Pr313 2.436 1_455 S
O334 C321 1.270 1_545 S
O335 Pr312 2.512 . S
O335 C321 1.248 . S
O336 Pr313 2.438 1_565 S
O336 C322 1.267 . S
O337 Pr312 2.437 . S
O337 C322 1.278 1_455 S
O338 Pr313 2.562 . S
O338 C323 1.254 . S
O339 Pr313 2.490 . S
O339 C323 1.225 . S
O340 Pr312 2.436 1_655 S
O340 Pr313 2.695 1_565 S
O340 C330 1.270 1_565 S
O341 Pr313 2.512 . S
O341 C330 1.248 . S
O342 Pr312 2.438 1_545 S
O342 C331 1.267 . S
O343 Pr313 2.437 . S
O343 C331 1.278 1_655 S
H344 C316 0.929 . S
H345 C317 0.929 . S
H346 C319 0.931 1_655 S
H347 C320 0.930 1_655 S
H348 C325 0.929 . S
H349 C326 0.929 . S
H350 C328 0.931 1_455 S
H351 C329 0.930 1_455 S
Pr352 C354 2.880 . S
Pr352 O372 2.562 . S
Pr352 O373 2.490 . S
Pr352 O374 2.695 . S
Pr352 O375 2.512 . S
Pr352 O377 2.437 . S
Pr352 O380 2.436 1_545 S
Pr352 O382 2.438 . S
Pr353 C363 2.880 . S
Pr353 O374 2.436 1_565 S
Pr353 O376 2.438 . S
Pr353 O378 2.562 . S
Pr353 O379 2.490 . S
Pr353 O380 2.695 . S
Pr353 O381 2.512 . S
Pr353 O383 2.437 . S
C354 Pr352 2.880 . S
C354 C355 1.491 . S
C354 O372 1.254 . S
C354 O373 1.225 . S
C355 C354 1.491 . S
C355 C356 1.392 . S
C355 C360 1.356 . S
C356 C355 1.392 . S
C356 C357 1.368 . S
C356 H384 0.929 . S
C357 C356 1.368 . S
C357 C358 1.386 . S
C357 H385 0.929 . S
C358 C357 1.386 . S
C358 C359 1.373 . S
C359 C358 1.373 . S
C359 C360 1.409 . S
C359 H386 0.931 1_545 S
C360 C355 1.356 . S
C360 C359 1.409 . S
C360 H387 0.930 1_545 S
C361 O374 1.270 . S
C361 O375 1.248 . S
C362 O376 1.267 . S
C362 O377 1.278 1_565 S
C363 Pr353 2.880 . S
C363 C364 1.491 . S
C363 O378 1.254 . S
C363 O379 1.225 . S
C364 C363 1.491 . S
C364 C365 1.392 . S
C364 C369 1.356 . S
C365 C364 1.392 . S
C365 C366 1.368 . S
C365 H388 0.929 . S
C366 C365 1.368 . S
C366 C367 1.386 . S
C366 H389 0.929 . S
C367 C366 1.386 . S
C367 C368 1.373 . S
C368 C367 1.373 . S
C368 C369 1.409 . S
C368 H390 0.931 1_565 S
C369 C364 1.356 . S
C369 C368 1.409 . S
C369 H391 0.930 1_565 S
C370 O380 1.270 . S
C370 O381 1.248 . S
C371 O382 1.267 . S
C371 O383 1.278 1_545 S
O372 Pr352 2.562 . S
O372 C354 1.254 . S
O373 Pr352 2.490 . S
O373 C354 1.225 . S
O374 Pr352 2.695 . S
O374 Pr353 2.436 1_545 S
O374 C361 1.270 . S
O375 Pr352 2.512 . S
O375 C361 1.248 . S
O376 Pr353 2.438 . S
O376 C362 1.267 . S
O377 Pr352 2.437 . S
O377 C362 1.278 1_545 S
O378 Pr353 2.562 . S
O378 C363 1.254 . S
O379 Pr353 2.490 . S
O379 C363 1.225 . S
O380 Pr352 2.436 1_565 S
O380 Pr353 2.695 . S
O380 C370 1.270 . S
O381 Pr353 2.512 . S
O381 C370 1.248 . S
O382 Pr352 2.438 . S
O382 C371 1.267 . S
O383 Pr353 2.437 . S
O383 C371 1.278 1_565 S
H384 C356 0.929 . S
H385 C357 0.929 . S
H386 C359 0.931 1_565 S
H387 C360 0.930 1_565 S
H388 C365 0.929 . S
H389 C366 0.929 . S
H390 C368 0.931 1_545 S
H391 C369 0.930 1_545 S
Pr392 C394 2.880 . S
Pr392 O412 2.562 . S
Pr392 O413 2.490 . S
Pr392 O414 2.695 . S
Pr392 O415 2.512 . S
Pr392 O417 2.437 . S
Pr392 O420 2.436 . S
Pr392 O422 2.438 . S
Pr393 C403 2.880 . S
Pr393 O414 2.436 . S
Pr393 O416 2.438 . S
Pr393 O418 2.562 . S
Pr393 O419 2.490 . S
Pr393 O420 2.695 . S
Pr393 O421 2.512 . S
Pr393 O423 2.437 . S
C394 Pr392 2.880 . S
C394 C395 1.491 . S
C394 O412 1.254 . S
C394 O413 1.225 . S
C395 C394 1.491 . S
C395 C396 1.392 . S
C395 C400 1.356 . S
C396 C395 1.392 . S
C396 C397 1.368 . S
C396 H424 0.929 . S
C397 C396 1.368 . S
C397 C398 1.386 . S
C397 H425 0.929 . S
C398 C397 1.386 . S
C398 C399 1.373 . S
C399 C398 1.373 . S
C399 C400 1.409 . S
C399 H426 0.931 . S
C400 C395 1.356 . S
C400 C399 1.409 . S
C400 H427 0.930 . S
C401 O414 1.270 . S
C401 O415 1.248 . S
C402 O416 1.267 . S
C402 O417 1.278 . S
C403 Pr393 2.880 . S
C403 C404 1.491 . S
C403 O418 1.254 . S
C403 O419 1.225 . S
C404 C403 1.491 . S
C404 C405 1.392 . S
C404 C409 1.356 . S
C405 C404 1.392 . S
C405 C406 1.368 . S
C405 H428 0.929 . S
C406 C405 1.368 . S
C406 C407 1.386 . S
C406 H429 0.929 . S
C407 C406 1.386 . S
C407 C408 1.373 . S
C408 C407 1.373 . S
C408 C409 1.409 . S
C408 H430 0.931 . S
C409 C404 1.356 . S
C409 C408 1.409 . S
C409 H431 0.930 . S
C410 O420 1.270 . S
C410 O421 1.248 . S
C411 O422 1.267 . S
C411 O423 1.278 . S
O412 Pr392 2.562 . S
O412 C394 1.254 . S
O413 Pr392 2.490 . S
O413 C394 1.225 . S
O414 Pr392 2.695 . S
O414 Pr393 2.436 . S
O414 C401 1.270 . S
O415 Pr392 2.512 . S
O415 C401 1.248 . S
O416 Pr393 2.438 . S
O416 C402 1.267 . S
O417 Pr392 2.437 . S
O417 C402 1.278 . S
O418 Pr393 2.562 . S
O418 C403 1.254 . S
O419 Pr393 2.490 . S
O419 C403 1.225 . S
O420 Pr392 2.436 . S
O420 Pr393 2.695 . S
O420 C410 1.270 . S
O421 Pr393 2.512 . S
O421 C410 1.248 . S
O422 Pr392 2.438 . S
O422 C411 1.267 . S
O423 Pr393 2.437 . S
O423 C411 1.278 . S
H424 C396 0.929 . S
H425 C397 0.929 . S
H426 C399 0.931 . S
H427 C400 0.930 . S
H428 C405 0.929 . S
H429 C406 0.929 . S
H430 C408 0.931 . S
H431 C409 0.930 . S
Pr432 C434 2.880 . S
Pr432 O452 2.562 . S
Pr432 O453 2.490 . S
Pr432 O454 2.695 1_655 S
Pr432 O455 2.512 . S
Pr432 O457 2.437 . S
Pr432 O460 2.436 . S
Pr432 O462 2.438 1_655 S
Pr433 C443 2.880 . S
Pr433 O454 2.436 . S
Pr433 O456 2.438 1_455 S
Pr433 O458 2.562 . S
Pr433 O459 2.490 . S
Pr433 O460 2.695 1_455 S
Pr433 O461 2.512 . S
Pr433 O463 2.437 . S
C434 Pr432 2.880 . S
C434 C435 1.491 . S
C434 O452 1.254 . S
C434 O453 1.225 . S
C435 C434 1.491 . S
C435 C436 1.392 . S
C435 C440 1.356 . S
C436 C435 1.392 . S
C436 C437 1.368 . S
C436 H464 0.929 . S
C437 C436 1.368 . S
C437 C438 1.386 . S
C437 H465 0.929 . S
C438 C437 1.386 . S
C438 C439 1.373 . S
C439 C438 1.373 . S
C439 C440 1.409 . S
C439 H466 0.931 . S
C440 C435 1.356 . S
C440 C439 1.409 . S
C440 H467 0.930 . S
C441 O454 1.262 1_655 S
C441 O455 1.262 . S
C442 O456 1.267 . S
C442 O457 1.278 . S
C443 Pr433 2.880 . S
C443 C444 1.491 . S
C443 O458 1.254 . S
C443 O459 1.225 . S
C444 C443 1.491 . S
C444 C445 1.392 . S
C444 C449 1.356 . S
C445 C444 1.392 . S
C445 C446 1.368 . S
C445 H468 0.929 . S
C446 C445 1.368 . S
C446 C447 1.386 . S
C446 H469 0.929 . S
C447 C446 1.386 . S
C447 C448 1.373 . S
C448 C447 1.373 . S
C448 C449 1.409 . S
C448 H470 0.931 . S
C449 C444 1.356 . S
C449 C448 1.409 . S
C449 H471 0.930 . S
C450 O460 1.256 1_455 S
C450 O461 1.274 . S
C451 O462 1.267 . S
C451 O463 1.278 . S
O452 Pr432 2.562 . S
O452 C434 1.254 . S
O453 Pr432 2.490 . S
O453 C434 1.225 . S
O454 Pr432 2.695 1_455 S
O454 Pr433 2.436 . S
O454 C441 1.262 1_455 S
O455 Pr432 2.512 . S
O455 C441 1.262 . S
O456 Pr433 2.438 1_655 S
O456 C442 1.267 . S
O457 Pr432 2.437 . S
O457 C442 1.278 . S
O458 Pr433 2.562 . S
O458 C443 1.254 . S
O459 Pr433 2.490 . S
O459 C443 1.225 . S
O460 Pr432 2.436 . S
O460 Pr433 2.695 1_655 S
O460 C450 1.256 1_655 S
O461 Pr433 2.512 . S
O461 C450 1.274 . S
O462 Pr432 2.438 1_455 S
O462 C451 1.267 . S
O463 Pr433 2.437 . S
O463 C451 1.278 . S
H464 C436 0.929 . S
H465 C437 0.929 . S
H466 C439 0.931 . S
H467 C440 0.930 . S
H468 C445 0.929 . S
H469 C446 0.929 . S
H470 C448 0.931 . S
H471 C449 0.930 . S
H472 C480 0.929 . S
H473 C482 0.930 . S
H474 C484 0.930 . S
H475 C487 0.929 . S
H476 C490 0.930 . S
H477 C492 0.961 . S
H478 C492 0.945 1_545 S
H479 C492 0.974 . S
C480 H472 0.929 . S
C480 C481 1.397 . S
C480 C482 1.384 . S
C481 C480 1.397 . S
C481 C487 1.370 1_545 S
C482 H473 0.930 . S
C482 C480 1.384 . S
C482 C483 1.372 . S
C483 C482 1.372 . S
C483 C484 1.400 1_545 S
C483 C488 1.490 . S
C484 H474 0.930 . S
C484 C483 1.400 1_565 S
C484 C487 1.386 . S
H485 C501 0.930 . S
H486 C502 0.931 . S
C487 H475 0.929 . S
C487 C481 1.370 1_565 S
C487 C484 1.386 . S
C488 C483 1.490 . S
C488 C490 1.395 . S
C488 C491 1.404 . S
H489 C495 0.927 1_565 S
C490 H476 0.930 . S
C490 C488 1.395 . S
C490 C493 1.403 . S
C491 C488 1.404 . S
C491 C492 1.523 1_545 S
C491 C495 1.400 . S
C492 H477 0.961 . S
C492 H478 0.945 1_565 S
C492 H479 0.974 . S
C492 C491 1.523 1_565 S
C493 C490 1.403 . S
C493 C494 1.392 . S
C493 C497 1.495 . S
C494 C493 1.392 . S
C494 C495 1.385 . S
C494 C496 1.478 . S
C495 H489 0.927 1_545 S
C495 C491 1.400 . S
C495 C494 1.385 . S
C496 C494 1.478 . S
C496 C498 1.381 . S
C496 C502 1.383 1_545 S
C497 C493 1.495 . S
C497 H503 0.959 . S
C497 H504 0.961 1_545 S
C497 H505 0.960 . S
C498 C496 1.381 . S
C498 C499 1.394 . S
C498 H506 0.930 . S
C499 C498 1.394 . S
C499 C500 1.435 . S
C499 H507 0.929 . S
C500 C499 1.435 . S
C500 C501 1.326 1_545 S
C501 H485 0.930 . S
C501 C500 1.326 1_565 S
C501 C502 1.379 . S
C502 H486 0.931 . S
C502 C496 1.383 1_565 S
C502 C501 1.379 . S
H503 C497 0.959 . S
H504 C497 0.961 1_565 S
H505 C497 0.960 . S
H506 C498 0.930 . S
H507 C499 0.929 . S
H508 C516 0.929 . S
H509 C518 0.930 . S
H510 C520 0.930 . S
H511 C523 0.929 . S
H512 C526 0.930 . S
H513 C528 0.960 . S
H514 C528 0.960 . S
H515 C528 0.960 . S
C516 H508 0.929 . S
C516 C517 1.377 . S
C516 C518 1.384 . S
C517 C516 1.377 . S
C517 C523 1.390 . S
C518 H509 0.930 . S
C518 C516 1.384 . S
C518 C519 1.372 . S
C519 C518 1.372 . S
C519 C520 1.400 . S
C519 C524 1.490 . S
C520 H510 0.930 . S
C520 C519 1.400 . S
C520 C523 1.386 . S
H521 C537 0.930 . S
H522 C538 0.931 . S
C523 H511 0.929 . S
C523 C517 1.390 . S
C523 C520 1.386 . S
C524 C519 1.490 . S
C524 C526 1.395 . S
C524 C527 1.403 . S
H525 C531 0.930 . S
C526 H512 0.930 . S
C526 C524 1.395 . S
C526 C529 1.403 . S
C527 C524 1.403 . S
C527 C528 1.524 . S
C527 C531 1.400 . S
C528 H513 0.960 . S
C528 H514 0.960 . S
C528 H515 0.960 . S
C528 C527 1.524 . S
C529 C526 1.403 . S
C529 C530 1.392 . S
C529 C533 1.495 . S
C530 C529 1.392 . S
C530 C531 1.385 . S
C530 C532 1.478 . S
C531 H525 0.930 . S
C531 C527 1.400 . S
C531 C530 1.385 . S
C532 C530 1.478 . S
C532 C534 1.381 . S
C532 C538 1.383 . S
C533 C529 1.495 . S
C533 H539 0.959 . S
C533 H540 0.961 . S
C533 H541 0.960 . S
C534 C532 1.381 . S
C534 C535 1.394 . S
C534 H542 0.930 . S
C535 C534 1.394 . S
C535 C536 1.383 . S
C535 H543 0.929 . S
C536 C535 1.383 . S
C536 C537 1.377 . S
C537 H521 0.930 . S
C537 C536 1.377 . S
C537 C538 1.379 . S
C538 H522 0.931 . S
C538 C532 1.383 . S
C538 C537 1.379 . S
H539 C533 0.959 . S
H540 C533 0.961 . S
H541 C533 0.960 . S
H542 C534 0.930 . S
H543 C535 0.929 . S
H544 C552 0.929 . S
H545 C554 0.930 . S
H546 C556 0.930 . S
H547 C559 0.929 . S
H548 C562 0.930 . S
H549 C564 0.960 . S
H550 C564 0.960 . S
H551 C564 0.960 . S
C552 H544 0.929 . S
C552 C553 1.377 . S
C552 C554 1.384 . S
C553 C552 1.377 . S
C553 C559 1.390 . S
C554 H545 0.930 . S
C554 C552 1.384 . S
C554 C555 1.372 . S
C555 C554 1.372 . S
C555 C556 1.400 . S
C555 C560 1.490 . S
C556 H546 0.930 . S
C556 C555 1.400 . S
C556 C559 1.386 . S
H557 C573 0.930 . S
H558 C574 0.931 . S
C559 H547 0.929 . S
C559 C553 1.390 . S
C559 C556 1.386 . S
C560 C555 1.490 . S
C560 C562 1.395 . S
C560 C563 1.403 . S
H561 C567 0.930 . S
C562 H548 0.930 . S
C562 C560 1.395 . S
C562 C565 1.403 . S
C563 C560 1.403 . S
C563 C564 1.524 . S
C563 C567 1.400 . S
C564 H549 0.960 . S
C564 H550 0.960 . S
C564 H551 0.960 . S
C564 C563 1.524 . S
C565 C562 1.403 . S
C565 C566 1.392 . S
C565 C569 1.495 . S
C566 C565 1.392 . S
C566 C567 1.385 . S
C566 C568 1.478 . S
C567 H561 0.930 . S
C567 C563 1.400 . S
C567 C566 1.385 . S
C568 C566 1.478 . S
C568 C570 1.381 . S
C568 C574 1.383 . S
C569 C565 1.495 . S
C569 H575 0.959 . S
C569 H576 0.961 . S
C569 H577 0.960 . S
C570 C568 1.381 . S
C570 C571 1.394 . S
C570 H578 0.930 . S
C571 C570 1.394 . S
C571 C572 1.383 . S
C571 H579 0.929 . S
C572 C571 1.383 . S
C572 C573 1.377 . S
C573 H557 0.930 . S
C573 C572 1.377 . S
C573 C574 1.379 . S
C574 H558 0.931 . S
C574 C568 1.383 . S
C574 C573 1.379 . S
H575 C569 0.959 . S
H576 C569 0.961 . S
H577 C569 0.960 . S
H578 C570 0.930 . S
H579 C571 0.929 . S
H580 C588 0.929 . S
H581 C590 0.930 . S
H582 C592 0.930 . S
H583 C595 0.929 . S
H584 C598 0.930 . S
H585 C600 0.960 . S
H586 C600 0.960 . S
H587 C600 0.960 . S
C588 H580 0.929 . S
C588 C589 1.377 1_655 S
C588 C590 1.384 . S
C589 C588 1.377 1_455 S
C589 C595 1.390 . S
C590 H581 0.930 . S
C590 C588 1.384 . S
C590 C591 1.372 1_655 S
C591 C590 1.372 1_455 S
C591 C592 1.400 . S
C591 C596 1.490 . S
C592 H582 0.930 . S
C592 C591 1.400 . S
C592 C595 1.386 . S
H593 C609 0.930 . S
H594 C610 0.931 . S
C595 H583 0.929 . S
C595 C589 1.390 . S
C595 C592 1.386 . S
C596 C591 1.490 . S
C596 C598 1.395 1_455 S
C596 C599 1.403 . S
H597 C603 0.930 . S
C598 H584 0.930 . S
C598 C596 1.395 1_655 S
C598 C601 1.403 . S
C599 C596 1.403 . S
C599 C600 1.524 . S
C599 C603 1.400 . S
C600 H585 0.960 . S
C600 H586 0.960 . S
C600 H587 0.960 . S
C600 C599 1.524 . S
C601 C598 1.403 . S
C601 C602 1.409 . S
C601 C605 1.495 . S
C602 C601 1.409 . S
C602 C603 1.368 1_655 S
C602 C604 1.478 . S
C603 H597 0.930 . S
C603 C599 1.400 . S
C603 C602 1.368 1_455 S
C604 C602 1.478 . S
C604 C606 1.396 . S
C604 C610 1.367 1_655 S
C605 C601 1.495 . S
C605 H611 0.959 . S
C605 H612 0.961 . S
C605 H613 0.960 . S
C606 C604 1.396 . S
C606 C607 1.394 . S
C606 H614 0.930 . S
C607 C606 1.394 . S
C607 C608 1.383 1_655 S
C607 H615 0.929 . S
C608 C607 1.383 1_455 S
C608 C609 1.377 . S
C609 H593 0.930 . S
C609 C608 1.377 . S
C609 C610 1.379 . S
C610 H594 0.931 . S
C610 C604 1.367 1_455 S
C610 C609 1.379 . S
H611 C605 0.959 . S
H612 C605 0.961 . S
H613 C605 0.960 . S
H614 C606 0.930 . S
H615 C607 0.929 . S
H616 C624 0.929 . S
H617 C626 0.930 . S
H618 C628 0.930 . S
H619 C631 0.929 . S
H620 C634 0.930 . S
H621 C636 0.960 . S
H622 C636 0.960 . S
H623 C636 0.960 . S
C624 H616 0.929 . S
C624 C625 1.384 . S
C624 C626 1.384 . S
C625 C624 1.384 . S
C625 C631 1.384 1_545 S
C626 H617 0.930 . S
C626 C624 1.384 . S
C626 C627 1.418 . S
C627 C626 1.418 . S
C627 C628 1.354 1_545 S
C627 C632 1.490 . S
C628 H618 0.930 . S
C628 C627 1.354 1_565 S
C628 C631 1.386 . S
H629 C645 0.930 . S
H630 C646 0.931 . S
C631 H619 0.929 . S
C631 C625 1.384 1_565 S
C631 C628 1.386 . S
C632 C627 1.490 . S
C632 C634 1.423 . S
C632 C635 1.379 1_544 S
H633 C639 0.930 . S
C634 H620 0.930 . S
C634 C632 1.423 . S
C634 C637 1.403 1_554 S
C635 C632 1.379 1_566 S
C635 C636 1.524 . S
C635 C639 1.400 . S
C636 H621 0.960 . S
C636 H622 0.960 . S
C636 H623 0.960 . S
C636 C635 1.524 . S
C637 C634 1.403 1_556 S
C637 C638 1.392 . S
C637 C641 1.495 . S
C638 C637 1.392 . S
C638 C639 1.385 1_545 S
C638 C640 1.478 . S
C639 H633 0.930 . S
C639 C635 1.400 . S
C639 C638 1.385 1_565 S
C640 C638 1.478 . S
C640 C642 1.381 . S
C640 C646 1.383 1_545 S
C641 C637 1.495 . S
C641 H647 0.959 1_556 S
C641 H648 0.961 . S
C641 H649 0.960 . S
C642 C640 1.381 . S
C642 C643 1.394 . S
C642 H650 0.930 . S
C643 C642 1.394 . S
C643 C644 1.373 1_545 S
C643 H651 0.929 . S
C644 C643 1.373 1_565 S
C644 C645 1.387 . S
C645 H629 0.930 . S
C645 C644 1.387 . S
C645 C646 1.379 . S
C646 H630 0.931 . S
C646 C640 1.383 1_565 S
C646 C645 1.379 . S
H647 C641 0.959 1_554 S
H648 C641 0.961 . S
H649 C641 0.960 . S
H650 C642 0.930 . S
H651 C643 0.929 . S
H652 C660 0.929 . S
H653 C662 0.930 . S
H654 C664 0.930 . S
H655 C667 0.929 . S
H656 C670 0.930 . S
H657 C672 0.960 . S
H658 C672 0.960 . S
H659 C672 0.960 . S
C660 H652 0.929 . S
C660 C661 1.377 . S
C660 C662 1.384 . S
C661 C660 1.377 . S
C661 C667 1.390 . S
C662 H653 0.930 . S
C662 C660 1.384 . S
C662 C663 1.372 . S
C663 C662 1.372 . S
C663 C664 1.400 . S
C663 C668 1.490 . S
C664 H654 0.930 . S
C664 C663 1.400 . S
C664 C667 1.386 . S
H665 C681 0.930 . S
H666 C682 0.931 . S
C667 H655 0.929 . S
C667 C661 1.390 . S
C667 C664 1.386 . S
C668 C663 1.490 . S
C668 C670 1.395 . S
C668 C671 1.403 1_554 S
H669 C675 0.930 . S
C670 H656 0.930 . S
C670 C668 1.395 . S
C670 C673 1.403 1_554 S
C671 C668 1.403 1_556 S
C671 C672 1.524 . S
C671 C675 1.400 . S
C672 H657 0.960 . S
C672 H658 0.960 . S
C672 H659 0.960 . S
C672 C671 1.524 . S
C673 C670 1.403 1_556 S
C673 C674 1.392 . S
C673 C677 1.495 1_556 S
C674 C673 1.392 . S
C674 C675 1.385 . S
C674 C676 1.478 . S
C675 H669 0.930 . S
C675 C671 1.400 . S
C675 C674 1.385 . S
C676 C674 1.478 . S
C676 C678 1.381 . S
C676 C682 1.383 . S
C677 C673 1.495 1_554 S
C677 H683 0.959 . S
C677 H684 0.961 1_554 S
C677 H685 0.960 1_554 S
C678 C676 1.381 . S
C678 C679 1.394 . S
C678 H686 0.930 . S
C679 C678 1.394 . S
C679 C680 1.383 . S
C679 H687 0.929 . S
C680 C679 1.383 . S
C680 C681 1.377 . S
C681 H665 0.930 . S
C681 C680 1.377 . S
C681 C682 1.379 . S
C682 H666 0.931 . S
C682 C676 1.383 . S
C682 C681 1.379 . S
H683 C677 0.959 . S
H684 C677 0.961 1_556 S
H685 C677 0.960 1_556 S
H686 C678 0.930 . S
H687 C679 0.929 . S
H688 C696 0.929 . S
H689 C698 0.930 . S
H690 C700 0.930 . S
H691 C703 0.929 . S
H692 C706 0.930 . S
H693 C708 0.960 . S
H694 C708 0.960 . S
H695 C708 0.960 . S
C696 H688 0.929 . S
C696 C697 1.377 . S
C696 C698 1.384 . S
C697 C696 1.377 . S
C697 C703 1.390 . S
C698 H689 0.930 . S
C698 C696 1.384 . S
C698 C699 1.372 . S
C699 C698 1.372 . S
C699 C700 1.400 . S
C699 C704 1.490 . S
C700 H690 0.930 . S
C700 C699 1.400 . S
C700 C703 1.386 . S
H701 C717 0.930 . S
H702 C718 0.931 . S
C703 H691 0.929 . S
C703 C697 1.390 . S
C703 C700 1.386 . S
C704 C699 1.490 . S
C704 C706 1.395 1_554 S
C704 C707 1.403 . S
H705 C711 0.930 . S
C706 H692 0.930 . S
C706 C704 1.395 1_556 S
C706 C709 1.403 . S
C707 C704 1.403 . S
C707 C708 1.524 . S
C707 C711 1.400 1_554 S
C708 H693 0.960 . S
C708 H694 0.960 . S
C708 H695 0.960 . S
C708 C707 1.524 . S
C709 C706 1.403 . S
C709 C710 1.392 . S
C709 C713 1.495 . S
C710 C709 1.392 . S
C710 C711 1.385 . S
C710 C712 1.478 . S
C711 H705 0.930 . S
C711 C707 1.400 1_556 S
C711 C710 1.385 . S
C712 C710 1.478 . S
C712 C714 1.381 . S
C712 C718 1.383 . S
C713 C709 1.495 . S
C713 H719 0.959 . S
C713 H720 0.961 . S
C713 H721 0.960 . S
C714 C712 1.381 . S
C714 C715 1.394 . S
C714 H722 0.930 . S
C715 C714 1.394 . S
C715 C716 1.383 . S
C715 H723 0.929 . S
C716 C715 1.383 . S
C716 C717 1.377 . S
C717 H701 0.930 . S
C717 C716 1.377 . S
C717 C718 1.379 . S
C718 H702 0.931 . S
C718 C712 1.383 . S
C718 C717 1.379 . S
H719 C713 0.959 . S
H720 C713 0.961 . S
H721 C713 0.960 . S
H722 C714 0.930 . S
H723 C715 0.929 . S
H724 C732 0.929 . S
H725 C734 0.930 . S
H726 C736 0.930 . S
H727 C739 0.929 . S
H728 C742 0.930 . S
H729 C744 0.960 . S
H730 C744 0.960 . S
H731 C744 0.960 1_655 S
C732 H724 0.929 . S
C732 C733 1.377 1_455 S
C732 C734 1.384 . S
C733 C732 1.377 1_655 S
C733 C739 1.390 . S
C734 H725 0.930 . S
C734 C732 1.384 . S
C734 C735 1.372 1_455 S
C735 C734 1.372 1_655 S
C735 C736 1.400 . S
C735 C740 1.490 . S
C736 H726 0.930 . S
C736 C735 1.400 . S
C736 C739 1.386 . S
H737 C753 0.930 . S
H738 C754 0.931 . S
C739 H727 0.929 . S
C739 C733 1.390 . S
C739 C736 1.386 . S
C740 C735 1.490 . S
C740 C742 1.395 . S
C740 C743 1.404 1_554 S
H741 C747 0.930 . S
C742 H728 0.930 . S
C742 C740 1.395 . S
C742 C745 1.403 1_554 S
C743 C740 1.404 1_556 S
C743 C744 1.522 1_655 S
C743 C747 1.400 . S
C744 H729 0.960 . S
C744 H730 0.960 . S
C744 H731 0.960 1_455 S
C744 C743 1.522 1_455 S
C745 C742 1.403 1_556 S
C745 C746 1.392 . S
C745 C749 1.495 1_556 S
C746 C745 1.392 . S
C746 C747 1.389 . S
C746 C748 1.478 . S
C747 H741 0.930 . S
C747 C743 1.400 . S
C747 C746 1.389 . S
C748 C746 1.478 . S
C748 C750 1.381 1_655 S
C748 C754 1.383 . S
C749 C745 1.495 1_554 S
C749 H755 0.959 . S
C749 H756 0.961 1_554 S
C749 H757 0.960 1_654 S
C750 C748 1.381 1_455 S
C750 C751 1.394 . S
C750 H758 0.930 . S
C751 C750 1.394 . S
C751 C752 1.383 1_455 S
C751 H759 0.929 . S
C752 C751 1.383 1_655 S
C752 C753 1.377 . S
C753 H737 0.930 . S
C753 C752 1.377 . S
C753 C754 1.379 . S
C754 H738 0.931 . S
C754 C748 1.383 . S
C754 C753 1.379 . S
H755 C749 0.959 . S
H756 C749 0.961 1_556 S
H757 C749 0.960 1_456 S
H758 C750 0.930 . S
H759 C751 0.929 . S
H760 C768 0.929 . S
H761 C770 0.930 . S
H762 C772 0.930 . S
H763 C775 0.929 . S
H764 C778 0.930 . S
H765 C780 0.960 . S
H766 C780 0.960 . S
H767 C780 0.960 . S
C768 H760 0.929 . S
C768 C769 1.377 . S
C768 C770 1.384 . S
C769 C768 1.377 . S
C769 C775 1.390 1_455 S
C770 H761 0.930 . S
C770 C768 1.384 . S
C770 C771 1.372 1_455 S
C771 C770 1.372 1_655 S
C771 C772 1.400 . S
C771 C776 1.490 . S
C772 H762 0.930 . S
C772 C771 1.400 . S
C772 C775 1.386 . S
H773 C789 0.930 . S
H774 C790 0.931 . S
C775 H763 0.929 . S
C775 C769 1.390 1_655 S
C775 C772 1.386 . S
C776 C771 1.490 . S
C776 C778 1.395 1_655 S
C776 C779 1.403 . S
H777 C783 0.930 . S
C778 H764 0.930 . S
C778 C776 1.395 1_455 S
C778 C781 1.403 . S
C779 C776 1.403 . S
C779 C780 1.524 . S
C779 C783 1.400 . S
C780 H765 0.960 . S
C780 H766 0.960 . S
C780 H767 0.960 . S
C780 C779 1.524 . S
C781 C778 1.403 . S
C781 C782 1.392 1_455 S
C781 C785 1.495 . S
C782 C781 1.392 1_655 S
C782 C783 1.385 . S
C782 C784 1.478 . S
C783 H777 0.930 . S
C783 C779 1.400 . S
C783 C782 1.385 . S
C784 C782 1.478 . S
C784 C786 1.381 . S
C784 C790 1.383 . S
C785 C781 1.495 . S
C785 H791 0.959 . S
C785 H792 0.961 . S
C785 H793 0.960 . S
C786 C784 1.381 . S
C786 C787 1.394 . S
C786 H794 0.930 . S
C787 C786 1.394 . S
C787 C788 1.383 . S
C787 H795 0.929 . S
C788 C787 1.383 . S
C788 C789 1.377 . S
C789 H773 0.930 . S
C789 C788 1.377 . S
C789 C790 1.379 . S
C790 H774 0.931 . S
C790 C784 1.383 . S
C790 C789 1.379 . S
H791 C785 0.959 . S
H792 C785 0.961 . S
H793 C785 0.960 . S
H794 C786 0.930 . S
H795 C787 0.929 . S
H796 C804 0.929 . S
H797 C806 0.930 . S
H798 C808 0.930 . S
H799 C811 0.929 . S
H800 C814 0.930 . S
H801 C816 0.960 . S
H802 C816 0.960 . S
H803 C816 0.960 . S
C804 H796 0.929 . S
C804 C805 1.377 1_565 S
C804 C806 1.384 . S
C805 C804 1.377 1_545 S
C805 C811 1.390 . S
C806 H797 0.930 . S
C806 C804 1.384 . S
C806 C807 1.372 . S
C807 C806 1.372 . S
C807 C808 1.400 1_565 S
C807 C812 1.490 . S
C808 H798 0.930 . S
C808 C807 1.400 1_545 S
C808 C811 1.386 . S
H809 C825 0.930 . S
H810 C826 0.931 1_545 S
C811 H799 0.929 . S
C811 C805 1.390 . S
C811 C808 1.386 . S
C812 C807 1.490 . S
C812 C814 1.395 . S
C812 C815 1.403 . S
H813 C819 0.930 . S
C814 H800 0.930 . S
C814 C812 1.395 . S
C814 C817 1.403 . S
C815 C812 1.403 . S
C815 C816 1.524 . S
C815 C819 1.400 . S
C816 H801 0.960 . S
C816 H802 0.960 . S
C816 H803 0.960 . S
C816 C815 1.524 . S
C817 C814 1.403 . S
C817 C818 1.392 . S
C817 C821 1.495 . S
C818 C817 1.392 . S
C818 C819 1.385 . S
C818 C820 1.478 . S
C819 H813 0.930 . S
C819 C815 1.400 . S
C819 C818 1.385 . S
C820 C818 1.478 . S
C820 C822 1.381 . S
C820 C826 1.383 . S
C821 C817 1.495 . S
C821 H827 0.959 . S
C821 H828 0.961 . S
C821 H829 0.960 . S
C822 C820 1.381 . S
C822 C823 1.394 . S
C822 H830 0.930 . S
C823 C822 1.394 . S
C823 C824 1.383 . S
C823 H831 0.929 . S
C824 C823 1.383 . S
C824 C825 1.377 . S
C825 H809 0.930 . S
C825 C824 1.377 . S
C825 C826 1.379 . S
C826 H810 0.931 1_565 S
C826 C820 1.383 . S
C826 C825 1.379 . S
H827 C821 0.959 . S
H828 C821 0.961 . S
H829 C821 0.960 . S
H830 C822 0.930 . S
H831 C823 0.929 . S
H832 C840 0.929 . S
H833 C842 0.930 . S
H834 C844 0.930 . S
H835 C847 0.929 . S
H836 C850 0.930 . S
H837 C852 0.960 . S
H838 C852 0.960 . S
H839 C852 0.960 . S
C840 H832 0.929 . S
C840 C841 1.377 . S
C840 C842 1.384 . S
C841 C840 1.377 . S
C841 C847 1.390 . S
C842 H833 0.930 . S
C842 C840 1.384 . S
C842 C843 1.372 . S
C843 C842 1.372 . S
C843 C844 1.400 . S
C843 C848 1.490 . S
C844 H834 0.930 . S
C844 C843 1.400 . S
C844 C847 1.386 . S
H845 C861 0.930 . S
H846 C862 0.931 . S
C847 H835 0.929 . S
C847 C841 1.390 . S
C847 C844 1.386 . S
C848 C843 1.490 . S
C848 C850 1.395 . S
C848 C851 1.403 . S
H849 C855 0.930 . S
C850 H836 0.930 . S
C850 C848 1.395 . S
C850 C853 1.403 . S
C851 C848 1.403 . S
C851 C852 1.524 . S
C851 C855 1.400 . S
C852 H837 0.960 . S
C852 H838 0.960 . S
C852 H839 0.960 . S
C852 C851 1.524 . S
C853 C850 1.403 . S
C853 C854 1.392 . S
C853 C857 1.495 . S
C854 C853 1.392 . S
C854 C855 1.385 . S
C854 C856 1.478 . S
C855 H849 0.930 . S
C855 C851 1.400 . S
C855 C854 1.385 . S
C856 C854 1.478 . S
C856 C858 1.381 . S
C856 C862 1.383 . S
C857 C853 1.495 . S
C857 H863 0.959 . S
C857 H864 0.961 . S
C857 H865 0.960 . S
C858 C856 1.381 . S
C858 C859 1.394 . S
C858 H866 0.930 . S
C859 C858 1.394 . S
C859 C860 1.383 . S
C859 H867 0.929 . S
C860 C859 1.383 . S
C860 C861 1.377 . S
C861 H845 0.930 . S
C861 C860 1.377 . S
C861 C862 1.379 . S
C862 H846 0.931 . S
C862 C856 1.383 . S
C862 C861 1.379 . S
H863 C857 0.959 . S
H864 C857 0.961 . S
H865 C857 0.960 . S
H866 C858 0.930 . S
H867 C859 0.929 . S
H868 C876 0.929 . S
H869 C878 0.930 . S
H870 C880 0.930 . S
H871 C883 0.929 . S
H872 C886 0.930 . S
H873 C888 0.960 . S
H874 C888 0.960 . S
H875 C888 0.960 . S
C876 H868 0.929 . S
C876 C877 1.377 . S
C876 C878 1.384 . S
C877 C876 1.377 . S
C877 C883 1.390 . S
C878 H869 0.930 . S
C878 C876 1.384 . S
C878 C879 1.372 . S
C879 C878 1.372 . S
C879 C880 1.400 . S
C879 C884 1.490 . S
C880 H870 0.930 . S
C880 C879 1.400 . S
C880 C883 1.386 . S
H881 C897 0.930 . S
H882 C898 0.931 . S
C883 H871 0.929 . S
C883 C877 1.390 . S
C883 C880 1.386 . S
C884 C879 1.490 . S
C884 C886 1.395 . S
C884 C887 1.403 . S
H885 C891 0.930 . S
C886 H872 0.930 . S
C886 C884 1.395 . S
C886 C889 1.403 . S
C887 C884 1.403 . S
C887 C888 1.524 . S
C887 C891 1.400 . S
C888 H873 0.960 . S
C888 H874 0.960 . S
C888 H875 0.960 . S
C888 C887 1.524 . S
C889 C886 1.403 . S
C889 C890 1.392 . S
C889 C893 1.495 . S
C890 C889 1.392 . S
C890 C891 1.385 . S
C890 C892 1.478 . S
C891 H885 0.930 . S
C891 C887 1.400 . S
C891 C890 1.385 . S
C892 C890 1.478 . S
C892 C894 1.381 . S
C892 C898 1.383 . S
C893 C889 1.495 . S
C893 H899 0.959 . S
C893 H900 0.961 . S
C893 H901 0.960 . S
C894 C892 1.381 . S
C894 C895 1.394 . S
C894 H902 0.930 . S
C895 C894 1.394 . S
C895 C896 1.383 . S
C895 H903 0.929 . S
C896 C895 1.383 . S
C896 C897 1.377 . S
C897 H881 0.930 . S
C897 C896 1.377 . S
C897 C898 1.379 . S
C898 H882 0.931 . S
C898 C892 1.383 . S
C898 C897 1.379 . S
H899 C893 0.959 . S
H900 C893 0.961 . S
H901 C893 0.960 . S
H902 C894 0.930 . S
H903 C895 0.929 . S
H904 C912 0.929 . S
H905 C914 0.930 . S
H906 C916 0.930 . S
H907 C919 0.929 . S
H908 C922 0.930 . S
H909 C924 0.960 . S
H910 C924 0.960 . S
H911 C924 0.960 . S
C912 H904 0.929 . S
C912 C913 1.377 1_455 S
C912 C914 1.384 . S
C913 C912 1.377 1_655 S
C913 C919 1.390 . S
C914 H905 0.930 . S
C914 C912 1.384 . S
C914 C915 1.372 . S
C915 C914 1.372 . S
C915 C916 1.400 1_455 S
C915 C920 1.490 . S
C916 H906 0.930 . S
C916 C915 1.400 1_655 S
C916 C919 1.386 . S
H917 C933 0.970 . S
H918 C934 0.931 1_655 S
C919 H907 0.929 . S
C919 C913 1.390 . S
C919 C916 1.386 . S
C920 C915 1.490 . S
C920 C922 1.395 1_554 S
C920 C923 1.403 . S
H921 C927 0.930 1_554 S
C922 H908 0.930 . S
C922 C920 1.395 1_556 S
C922 C925 1.403 . S
C923 C920 1.403 . S
C923 C924 1.524 1_455 S
C923 C927 1.400 1_554 S
C924 H909 0.960 . S
C924 H910 0.960 . S
C924 H911 0.960 . S
C924 C923 1.524 1_655 S
C925 C922 1.403 . S
C925 C926 1.392 . S
C925 C929 1.495 . S
C926 C925 1.392 . S
C926 C927 1.385 . S
C926 C928 1.478 . S
C927 H921 0.930 1_556 S
C927 C923 1.400 1_556 S
C927 C926 1.385 . S
C928 C926 1.478 . S
C928 C930 1.381 . S
C928 C934 1.383 . S
C929 C925 1.495 . S
C929 H935 0.959 . S
C929 H936 0.961 . S
C929 H937 0.960 . S
C930 C928 1.381 . S
C930 C931 1.394 . S
C930 H938 0.930 . S
C931 C930 1.394 . S
C931 C932 1.383 . S
C931 H939 0.929 . S
C932 C931 1.383 . S
C932 C933 1.377 . S
C933 H917 0.970 . S
C933 C932 1.377 . S
C933 C934 1.379 . S
C934 H918 0.931 1_455 S
C934 C928 1.383 . S
C934 C933 1.379 . S
H935 C929 0.959 . S
H936 C929 0.961 . S
H937 C929 0.960 . S
H938 C930 0.930 . S
H939 C931 0.929 . S
H940 C948 0.929 . S
H941 C950 0.930 1_556 S
H942 C952 0.930 . S
H943 C955 0.929 . S
H944 C958 0.930 . S
H945 C960 0.960 . S
H946 C960 0.960 . S
H947 C960 0.942 1_554 S
C948 H940 0.929 . S
C948 C949 1.377 . S
C948 C950 1.384 . S
C949 C948 1.377 . S
C949 C955 1.390 1_565 S
C950 H941 0.930 1_554 S
C950 C948 1.384 . S
C950 C951 1.372 1_565 S
C951 C950 1.372 1_545 S
C951 C952 1.400 . S
C951 C956 1.490 . S
C952 H942 0.930 . S
C952 C951 1.400 . S
C952 C955 1.386 . S
H953 C969 0.930 . S
H954 C970 0.931 . S
C955 H943 0.929 . S
C955 C949 1.390 1_545 S
C955 C952 1.386 . S
C956 C951 1.490 . S
C956 C958 1.395 1_545 S
C956 C959 1.403 1_554 S
H957 C963 0.930 . S
C958 H944 0.930 . S
C958 C956 1.395 1_565 S
C958 C961 1.403 1_554 S
C959 C956 1.403 1_556 S
C959 C960 1.524 . S
C959 C963 1.400 . S
C960 H945 0.960 . S
C960 H946 0.960 . S
C960 H947 0.942 1_556 S
C960 C959 1.524 . S
C961 C958 1.403 1_556 S
C961 C962 1.392 1_565 S
C961 C965 1.495 . S
C962 C961 1.392 1_545 S
C962 C963 1.385 . S
C962 C964 1.478 . S
C963 H957 0.930 . S
C963 C959 1.400 . S
C963 C962 1.385 . S
C964 C962 1.478 . S
C964 C966 1.381 . S
C964 C970 1.383 . S
C965 C961 1.495 . S
C965 H971 0.959 1_556 S
C965 H972 0.961 1_556 S
C965 H973 0.960 . S
C966 C964 1.381 . S
C966 C967 1.394 . S
C966 H974 0.930 1_545 S
C967 C966 1.394 . S
C967 C968 1.383 . S
C967 H975 0.929 . S
C968 C967 1.383 . S
C968 C969 1.377 . S
C969 H953 0.930 . S
C969 C968 1.377 . S
C969 C970 1.379 . S
C970 H954 0.931 . S
C970 C964 1.383 . S
C970 C969 1.379 . S
H971 C965 0.959 1_554 S
H972 C965 0.961 1_554 S
H973 C965 0.960 . S
H974 C966 0.930 1_565 S
H975 C967 0.929 . S
H976 C984 0.929 . S
H977 C986 0.930 . S
H978 C988 0.930 1_556 S
H979 C991 0.929 . S
H980 C994 0.930 . S
H981 C996 0.960 . S
H982 C996 0.960 . S
H983 C996 0.960 . S
C984 H976 0.929 . S
C984 C985 1.377 . S
C984 C986 1.384 . S
C985 C984 1.377 . S
C985 C991 1.390 . S
C986 H977 0.930 . S
C986 C984 1.384 . S
C986 C987 1.372 . S
C987 C986 1.372 . S
C987 C988 1.400 . S
C987 C992 1.490 . S
C988 H978 0.930 1_554 S
C988 C987 1.400 . S
C988 C991 1.386 . S
H989 C1005 0.930 . S
H990 C1006 0.931 . S
C991 H979 0.929 . S
C991 C985 1.390 . S
C991 C988 1.386 . S
C992 C987 1.490 . S
C992 C994 1.395 . S
C992 C995 1.403 1_554 S
H993 C999 0.930 . S
C994 H980 0.930 . S
C994 C992 1.395 . S
C994 C997 1.403 . S
C995 C992 1.403 1_556 S
C995 C996 1.524 . S
C995 C999 1.400 . S
C996 H981 0.960 . S
C996 H982 0.960 . S
C996 H983 0.960 . S
C996 C995 1.524 . S
C997 C994 1.403 . S
C997 C998 1.392 1_554 S
C997 C1001 1.495 . S
C998 C997 1.392 1_556 S
C998 C999 1.385 . S
C998 C1000 1.478 . S
C999 H993 0.930 . S
C999 C995 1.400 . S
C999 C998 1.385 . S
C1000 C998 1.478 . S
C1000 C1002 1.381 . S
C1000 C1006 1.383 . S
C1001 C997 1.495 . S
C1001 H1007 0.959 . S
C1001 H1008 0.961 . S
C1001 H1009 0.960 . S
C1002 C1000 1.381 . S
C1002 C1003 1.394 . S
C1002 H1010 0.930 . S
C1003 C1002 1.394 . S
C1003 C1004 1.383 . S
C1003 H1011 0.929 . S
C1004 C1003 1.383 . S
C1004 C1005 1.377 . S
C1005 H989 0.930 . S
C1005 C1004 1.377 . S
C1005 C1006 1.379 . S
C1006 H990 0.931 . S
C1006 C1000 1.383 . S
C1006 C1005 1.379 . S
H1007 C1001 0.959 . S
H1008 C1001 0.961 . S
H1009 C1001 0.960 . S
H1010 C1002 0.930 . S
H1011 C1003 0.929 . S
H1012 C1020 0.929 . S
H1013 C1022 0.930 . S
H1014 C1024 0.930 . S
H1015 C1027 0.929 . S
H1016 C1030 0.930 . S
H1017 C1032 0.960 . S
H1018 C1032 0.960 . S
H1019 C1032 0.960 . S
C1020 H1012 0.929 . S
C1020 C1021 1.377 . S
C1020 C1022 1.384 . S
C1021 C1020 1.377 . S
C1021 C1027 1.390 . S
C1022 H1013 0.930 . S
C1022 C1020 1.384 . S
C1022 C1023 1.372 . S
C1023 C1022 1.372 . S
C1023 C1024 1.400 . S
C1023 C1028 1.490 . S
C1024 H1014 0.930 . S
C1024 C1023 1.400 . S
C1024 C1027 1.386 . S
H1025 C1041 0.930 . S
H1026 C1042 0.931 . S
C1027 H1015 0.929 . S
C1027 C1021 1.390 . S
C1027 C1024 1.386 . S
C1028 C1023 1.490 . S
C1028 C1030 1.395 . S
C1028 C1031 1.403 1_554 S
H1029 C1035 0.930 . S
C1030 H1016 0.930 . S
C1030 C1028 1.395 . S
C1030 C1033 1.403 1_554 S
C1031 C1028 1.403 1_556 S
C1031 C1032 1.524 . S
C1031 C1035 1.400 . S
C1032 H1017 0.960 . S
C1032 H1018 0.960 . S
C1032 H1019 0.960 . S
C1032 C1031 1.524 . S
C1033 C1030 1.403 1_556 S
C1033 C1034 1.392 . S
C1033 C1037 1.495 1_556 S
C1034 C1033 1.392 . S
C1034 C1035 1.385 . S
C1034 C1036 1.478 . S
C1035 H1029 0.930 . S
C1035 C1031 1.400 . S
C1035 C1034 1.385 . S
C1036 C1034 1.478 . S
C1036 C1038 1.381 . S
C1036 C1042 1.383 . S
C1037 C1033 1.495 1_554 S
C1037 H1043 0.959 . S
C1037 H1044 0.961 . S
C1037 H1045 0.960 1_554 S
C1038 C1036 1.381 . S
C1038 C1039 1.394 . S
C1038 H1046 0.930 . S
C1039 C1038 1.394 . S
C1039 C1040 1.383 . S
C1039 H1047 0.929 . S
C1040 C1039 1.383 . S
C1040 C1041 1.377 . S
C1041 H1025 0.930 . S
C1041 C1040 1.377 . S
C1041 C1042 1.379 . S
C1042 H1026 0.931 . S
C1042 C1036 1.383 . S
C1042 C1041 1.379 . S
H1043 C1037 0.959 . S
H1044 C1037 0.961 . S
H1045 C1037 0.960 1_556 S
H1046 C1038 0.930 . S
H1047 C1039 0.929 . S
H1048 C1056 0.929 . S
H1049 C1058 0.930 . S
H1050 C1060 0.930 . S
H1051 C1063 0.929 . S
H1052 C1066 0.930 . S
H1053 C1068 0.960 . S
H1054 C1068 0.960 . S
H1055 C1068 0.960 . S
C1056 H1048 0.929 . S
C1056 C1057 1.377 . S
C1056 C1058 1.384 . S
C1057 C1056 1.377 . S
C1057 C1063 1.390 1_455 S
C1058 H1049 0.930 . S
C1058 C1056 1.384 . S
C1058 C1059 1.372 . S
C1059 C1058 1.372 . S
C1059 C1060 1.400 1_455 S
C1059 C1064 1.490 . S
C1060 H1050 0.930 . S
C1060 C1059 1.400 1_655 S
C1060 C1063 1.386 . S
H1061 C1077 0.930 . S
H1062 C1078 0.931 . S
C1063 H1051 0.929 . S
C1063 C1057 1.390 1_655 S
C1063 C1060 1.386 . S
C1064 C1059 1.490 . S
C1064 C1066 1.395 . S
C1064 C1067 1.403 . S
H1065 C1071 0.930 . S
C1066 H1052 0.930 . S
C1066 C1064 1.395 . S
C1066 C1069 1.403 . S
C1067 C1064 1.403 . S
C1067 C1068 1.524 . S
C1067 C1071 1.400 . S
C1068 H1053 0.960 . S
C1068 H1054 0.960 . S
C1068 H1055 0.960 . S
C1068 C1067 1.524 . S
C1069 C1066 1.403 . S
C1069 C1070 1.392 . S
C1069 C1073 1.490 1_455 S
C1070 C1069 1.392 . S
C1070 C1071 1.385 . S
C1070 C1072 1.478 . S
C1071 H1065 0.930 . S
C1071 C1067 1.400 . S
C1071 C1070 1.385 . S
C1072 C1070 1.478 . S
C1072 C1074 1.381 . S
C1072 C1078 1.383 1_455 S
C1073 C1069 1.490 1_655 S
C1073 H1079 0.964 . S
C1073 H1080 0.984 . S
C1073 H1081 0.938 1_655 S
C1074 C1072 1.381 . S
C1074 C1075 1.394 . S
C1074 H1082 0.930 . S
C1075 C1074 1.394 . S
C1075 C1076 1.383 . S
C1075 H1083 0.929 . S
C1076 C1075 1.383 . S
C1076 C1077 1.377 1_455 S
C1077 H1061 0.930 . S
C1077 C1076 1.377 1_655 S
C1077 C1078 1.379 . S
C1078 H1062 0.931 . S
C1078 C1072 1.383 1_655 S
C1078 C1077 1.379 . S
H1079 C1073 0.964 . S
H1080 C1073 0.984 . S
H1081 C1073 0.938 1_455 S
H1082 C1074 0.930 . S
H1083 C1075 0.929 . S
H1084 C1092 0.929 . S
H1085 C1094 0.930 . S
H1086 C1096 0.930 . S
H1087 C1099 0.933 . S
H1088 C1102 0.930 . S
H1089 C1104 0.960 . S
H1090 C1104 0.960 . S
H1091 C1104 0.960 . S
C1092 H1084 0.929 . S
C1092 C1093 1.377 . S
C1092 C1094 1.384 . S
C1093 C1092 1.377 . S
C1093 C1099 1.390 . S
C1094 H1085 0.930 . S
C1094 C1092 1.384 . S
C1094 C1095 1.372 . S
C1095 C1094 1.372 . S
C1095 C1096 1.400 . S
C1095 C1100 1.490 . S
C1096 H1086 0.930 . S
C1096 C1095 1.400 . S
C1096 C1099 1.386 . S
H1097 C1113 0.930 . S
H1098 C1114 0.931 . S
C1099 H1087 0.933 . S
C1099 C1093 1.390 . S
C1099 C1096 1.386 . S
C1100 C1095 1.490 . S
C1100 C1102 1.395 . S
C1100 C1103 1.403 1_545 S
H1101 C1107 0.930 . S
C1102 H1088 0.930 . S
C1102 C1100 1.395 . S
C1102 C1105 1.403 . S
C1103 C1100 1.403 1_565 S
C1103 C1104 1.524 . S
C1103 C1107 1.400 . S
C1104 H1089 0.960 . S
C1104 H1090 0.960 . S
C1104 H1091 0.960 . S
C1104 C1103 1.524 . S
C1105 C1102 1.403 . S
C1105 C1106 1.392 . S
C1105 C1109 1.495 . S
C1106 C1105 1.392 . S
C1106 C1107 1.385 1_545 S
C1106 C1108 1.478 . S
C1107 H1101 0.930 . S
C1107 C1103 1.400 . S
C1107 C1106 1.385 1_565 S
C1108 C1106 1.478 . S
C1108 C1110 1.381 . S
C1108 C1114 1.383 . S
C1109 C1105 1.495 . S
C1109 H1115 0.959 . S
C1109 H1116 0.961 . S
C1109 H1117 0.960 . S
C1110 C1108 1.381 . S
C1110 C1111 1.394 . S
C1110 H1118 0.930 . S
C1111 C1110 1.394 . S
C1111 C1112 1.383 . S
C1111 H1119 0.929 . S
C1112 C1111 1.383 . S
C1112 C1113 1.377 . S
C1113 H1097 0.930 . S
C1113 C1112 1.377 . S
C1113 C1114 1.379 . S
C1114 H1098 0.931 . S
C1114 C1108 1.383 . S
C1114 C1113 1.379 . S
H1115 C1109 0.959 . S
H1116 C1109 0.961 . S
H1117 C1109 0.960 . S
H1118 C1110 0.930 . S
H1119 C1111 0.929 . S
H1120 C1128 0.929 . S
H1121 C1130 0.930 . S
H1122 C1132 0.930 . S
H1123 C1135 0.929 . S
H1124 C1138 0.930 . S
H1125 C1140 0.960 . S
H1126 C1140 0.960 . S
H1127 C1140 0.960 . S
C1128 H1120 0.929 . S
C1128 C1129 1.377 . S
C1128 C1130 1.384 . S
C1129 C1128 1.377 . S
C1129 C1135 1.390 . S
C1130 H1121 0.930 . S
C1130 C1128 1.384 . S
C1130 C1131 1.372 . S
C1131 C1130 1.372 . S
C1131 C1132 1.400 . S
C1131 C1136 1.490 . S
C1132 H1122 0.930 . S
C1132 C1131 1.400 . S
C1132 C1135 1.386 . S
H1133 C1149 0.930 . S
H1134 C1150 0.931 . S
C1135 H1123 0.929 . S
C1135 C1129 1.390 . S
C1135 C1132 1.386 . S
C1136 C1131 1.490 . S
C1136 C1138 1.395 . S
C1136 C1139 1.403 . S
H1137 C1143 0.930 . S
C1138 H1124 0.930 . S
C1138 C1136 1.395 . S
C1138 C1141 1.403 . S
C1139 C1136 1.403 . S
C1139 C1140 1.524 . S
C1139 C1143 1.400 . S
C1140 H1125 0.960 . S
C1140 H1126 0.960 . S
C1140 H1127 0.960 . S
C1140 C1139 1.524 . S
C1141 C1138 1.403 . S
C1141 C1142 1.392 . S
C1141 C1145 1.495 . S
C1142 C1141 1.392 . S
C1142 C1143 1.385 . S
C1142 C1144 1.478 . S
C1143 H1137 0.930 . S
C1143 C1139 1.400 . S
C1143 C1142 1.385 . S
C1144 C1142 1.478 . S
C1144 C1146 1.381 . S
C1144 C1150 1.383 . S
C1145 C1141 1.495 . S
C1145 H1151 0.959 . S
C1145 H1152 0.961 . S
C1145 H1153 0.960 . S
C1146 C1144 1.381 . S
C1146 C1147 1.394 . S
C1146 H1154 0.930 . S
C1147 C1146 1.394 . S
C1147 C1148 1.383 . S
C1147 H1155 0.929 . S
C1148 C1147 1.383 . S
C1148 C1149 1.377 . S
C1149 H1133 0.930 . S
C1149 C1148 1.377 . S
C1149 C1150 1.379 . S
C1150 H1134 0.931 . S
C1150 C1144 1.383 . S
C1150 C1149 1.379 . S
H1151 C1145 0.959 . S
H1152 C1145 0.961 . S
H1153 C1145 0.960 . S
H1154 C1146 0.930 . S
H1155 C1147 0.929 . S
H1156 C1164 0.929 . S
H1157 C1166 0.930 . S
H1158 C1168 0.930 . S
H1159 C1171 0.929 . S
H1160 C1174 0.930 . S
H1161 C1176 0.960 . S
H1162 C1176 0.960 . S
H1163 C1176 0.960 . S
C1164 H1156 0.929 . S
C1164 C1165 1.377 . S
C1164 C1166 1.384 . S
C1165 C1164 1.377 . S
C1165 C1171 1.390 . S
C1166 H1157 0.930 . S
C1166 C1164 1.384 . S
C1166 C1167 1.372 . S
C1167 C1166 1.372 . S
C1167 C1168 1.400 . S
C1167 C1172 1.490 . S
C1168 H1158 0.930 . S
C1168 C1167 1.400 . S
C1168 C1171 1.386 . S
H1169 C1185 0.930 . S
H1170 C1186 0.931 . S
C1171 H1159 0.929 . S
C1171 C1165 1.390 . S
C1171 C1168 1.386 . S
C1172 C1167 1.490 . S
C1172 C1174 1.395 . S
C1172 C1175 1.403 . S
H1173 C1179 0.930 . S
C1174 H1160 0.930 . S
C1174 C1172 1.395 . S
C1174 C1177 1.403 . S
C1175 C1172 1.403 . S
C1175 C1176 1.524 . S
C1175 C1179 1.400 . S
C1176 H1161 0.960 . S
C1176 H1162 0.960 . S
C1176 H1163 0.960 . S
C1176 C1175 1.524 . S
C1177 C1174 1.403 . S
C1177 C1178 1.392 . S
C1177 C1181 1.495 . S
C1178 C1177 1.392 . S
C1178 C1179 1.385 . S
C1178 C1180 1.478 . S
C1179 H1173 0.930 . S
C1179 C1175 1.400 . S
C1179 C1178 1.385 . S
C1180 C1178 1.478 . S
C1180 C1182 1.381 . S
C1180 C1186 1.383 . S
C1181 C1177 1.495 . S
C1181 H1187 0.959 . S
C1181 H1188 0.961 . S
C1181 H1189 0.960 . S
C1182 C1180 1.381 . S
C1182 C1183 1.394 . S
C1182 H1190 0.930 . S
C1183 C1182 1.394 . S
C1183 C1184 1.383 . S
C1183 H1191 0.929 . S
C1184 C1183 1.383 . S
C1184 C1185 1.377 . S
C1185 H1169 0.930 . S
C1185 C1184 1.377 . S
C1185 C1186 1.379 . S
C1186 H1170 0.931 . S
C1186 C1180 1.383 . S
C1186 C1185 1.379 . S
H1187 C1181 0.959 . S
H1188 C1181 0.961 . S
H1189 C1181 0.960 . S
H1190 C1182 0.930 . S
H1191 C1183 0.929 . S
H1192 C1200 0.929 . S
H1193 C1202 0.946 . S
H1194 C1204 0.930 . S
H1195 C1207 0.929 . S
H1196 C1210 0.930 . S
H1197 C1212 0.960 . S
H1198 C1212 0.960 . S
H1199 C1212 0.960 . S
C1200 H1192 0.929 . S
C1200 C1201 1.377 1_455 S
C1200 C1202 1.385 . S
C1201 C1200 1.377 1_655 S
C1201 C1207 1.390 . S
C1202 H1193 0.946 . S
C1202 C1200 1.385 . S
C1202 C1203 1.358 1_455 S
C1203 C1202 1.358 1_655 S
C1203 C1204 1.400 . S
C1203 C1208 1.490 . S
C1204 H1194 0.930 . S
C1204 C1203 1.400 . S
C1204 C1207 1.386 . S
H1205 C1221 0.930 . S
H1206 C1222 0.931 . S
C1207 H1195 0.929 . S
C1207 C1201 1.390 . S
C1207 C1204 1.386 . S
C1208 C1203 1.490 . S
C1208 C1210 1.395 1_655 S
C1208 C1211 1.403 . S
H1209 C1215 0.930 . S
C1210 H1196 0.930 . S
C1210 C1208 1.395 1_455 S
C1210 C1213 1.403 . S
C1211 C1208 1.403 . S
C1211 C1212 1.524 . S
C1211 C1215 1.400 . S
C1212 H1197 0.960 . S
C1212 H1198 0.960 . S
C1212 H1199 0.960 . S
C1212 C1211 1.524 . S
C1213 C1210 1.403 . S
C1213 C1214 1.392 1_455 S
C1213 C1217 1.495 . S
C1214 C1213 1.392 1_655 S
C1214 C1215 1.385 . S
C1214 C1216 1.478 . S
C1215 H1209 0.930 . S
C1215 C1211 1.400 . S
C1215 C1214 1.385 . S
C1216 C1214 1.478 . S
C1216 C1218 1.393 . S
C1216 C1222 1.383 . S
C1217 C1213 1.495 . S
C1217 H1223 0.959 . S
C1217 H1224 0.961 . S
C1217 H1225 0.960 . S
C1218 C1216 1.393 . S
C1218 C1219 1.402 . S
C1218 H1226 0.915 1_655 S
C1219 C1218 1.402 . S
C1219 C1220 1.383 . S
C1219 H1227 0.940 . S
C1220 C1219 1.383 . S
C1220 C1221 1.377 . S
C1221 H1205 0.930 . S
C1221 C1220 1.377 . S
C1221 C1222 1.379 . S
C1222 H1206 0.931 . S
C1222 C1216 1.383 . S
C1222 C1221 1.379 . S
H1223 C1217 0.959 . S
H1224 C1217 0.961 . S
H1225 C1217 0.960 . S
H1226 C1218 0.915 1_455 S
H1227 C1219 0.940 . S
H1228 C1236 0.929 . S
H1229 C1238 0.930 . S
H1230 C1240 0.930 . S
H1231 C1243 0.929 . S
H1232 C1246 0.930 . S
H1233 C1248 0.960 . S
H1234 C1248 0.960 . S
H1235 C1248 0.960 . S
C1236 H1228 0.929 . S
C1236 C1237 1.377 1_545 S
C1236 C1238 1.384 . S
C1237 C1236 1.377 1_565 S
C1237 C1243 1.390 . S
C1238 H1229 0.930 . S
C1238 C1236 1.384 . S
C1238 C1239 1.372 1_545 S
C1239 C1238 1.372 1_565 S
C1239 C1240 1.400 . S
C1239 C1244 1.490 . S
C1240 H1230 0.930 . S
C1240 C1239 1.400 . S
C1240 C1243 1.386 . S
H1241 C1257 0.930 . S
H1242 C1258 0.931 . S
C1243 H1231 0.929 . S
C1243 C1237 1.390 . S
C1243 C1240 1.386 . S
C1244 C1239 1.490 . S
C1244 C1246 1.395 1_565 S
C1244 C1247 1.403 . S
H1245 C1251 0.930 . S
C1246 H1232 0.930 . S
C1246 C1244 1.395 1_545 S
C1246 C1249 1.403 . S
C1247 C1244 1.403 . S
C1247 C1248 1.524 . S
C1247 C1251 1.400 . S
C1248 H1233 0.960 . S
C1248 H1234 0.960 . S
C1248 H1235 0.960 . S
C1248 C1247 1.524 . S
C1249 C1246 1.403 . S
C1249 C1250 1.392 1_545 S
C1249 C1253 1.495 . S
C1250 C1249 1.392 1_565 S
C1250 C1251 1.385 . S
C1250 C1252 1.478 . S
C1251 H1245 0.930 . S
C1251 C1247 1.400 . S
C1251 C1250 1.385 . S
C1252 C1250 1.478 . S
C1252 C1254 1.381 1_565 S
C1252 C1258 1.383 . S
C1253 C1249 1.495 . S
C1253 H1259 0.959 . S
C1253 H1260 0.961 . S
C1253 H1261 0.960 . S
C1254 C1252 1.381 1_545 S
C1254 C1255 1.394 . S
C1254 H1262 0.930 . S
C1255 C1254 1.394 . S
C1255 C1256 1.383 1_545 S
C1255 H1263 0.929 . S
C1256 C1255 1.383 1_565 S
C1256 C1257 1.377 . S
C1257 H1241 0.930 . S
C1257 C1256 1.377 . S
C1257 C1258 1.379 . S
C1258 H1242 0.931 . S
C1258 C1252 1.383 . S
C1258 C1257 1.379 . S
H1259 C1253 0.959 . S
H1260 C1253 0.961 . S
H1261 C1253 0.960 . S
H1262 C1254 0.930 . S
H1263 C1255 0.929 . S
H1264 C1272 0.929 . S
H1265 C1274 0.930 . S
H1266 C1276 0.930 . S
H1267 C1279 0.929 . S
H1268 C1282 0.930 . S
H1269 C1284 0.960 . S
H1270 C1284 0.960 . S
H1271 C1284 0.960 . S
C1272 H1264 0.929 . S
C1272 C1273 1.377 . S
C1272 C1274 1.384 . S
C1273 C1272 1.377 . S
C1273 C1279 1.390 . S
C1274 H1265 0.930 . S
C1274 C1272 1.384 . S
C1274 C1275 1.372 . S
C1275 C1274 1.372 . S
C1275 C1276 1.400 . S
C1275 C1280 1.490 . S
C1276 H1266 0.930 . S
C1276 C1275 1.400 . S
C1276 C1279 1.386 . S
H1277 C1293 0.930 . S
H1278 C1294 0.931 . S
C1279 H1267 0.929 . S
C1279 C1273 1.390 . S
C1279 C1276 1.386 . S
C1280 C1275 1.490 . S
C1280 C1282 1.395 . S
C1280 C1283 1.403 . S
H1281 C1287 0.930 . S
C1282 H1268 0.930 . S
C1282 C1280 1.395 . S
C1282 C1285 1.403 . S
C1283 C1280 1.403 . S
C1283 C1284 1.524 . S
C1283 C1287 1.400 . S
C1284 H1269 0.960 . S
C1284 H1270 0.960 . S
C1284 H1271 0.960 . S
C1284 C1283 1.524 . S
C1285 C1282 1.403 . S
C1285 C1286 1.392 . S
C1285 C1289 1.495 . S
C1286 C1285 1.392 . S
C1286 C1287 1.385 . S
C1286 C1288 1.478 . S
C1287 H1281 0.930 . S
C1287 C1283 1.400 . S
C1287 C1286 1.385 . S
C1288 C1286 1.478 . S
C1288 C1290 1.381 . S
C1288 C1294 1.383 . S
C1289 C1285 1.495 . S
C1289 H1295 0.959 . S
C1289 H1296 0.961 . S
C1289 H1297 0.960 . S
C1290 C1288 1.381 . S
C1290 C1291 1.394 . S
C1290 H1298 0.930 . S
C1291 C1290 1.394 . S
C1291 C1292 1.383 . S
C1291 H1299 0.929 . S
C1292 C1291 1.383 . S
C1292 C1293 1.377 . S
C1293 H1277 0.930 . S
C1293 C1292 1.377 . S
C1293 C1294 1.379 . S
C1294 H1278 0.931 . S
C1294 C1288 1.383 . S
C1294 C1293 1.379 . S
H1295 C1289 0.959 . S
H1296 C1289 0.961 . S
H1297 C1289 0.960 . S
H1298 C1290 0.930 . S
H1299 C1291 0.929 . S
H1300 C1308 0.929 . S
H1301 C1310 0.930 . S
H1302 C1312 0.930 . S
H1303 C1315 0.929 . S
H1304 C1318 0.930 . S
H1305 C1320 0.960 . S
H1306 C1320 0.960 . S
H1307 C1320 0.960 . S
C1308 H1300 0.929 . S
C1308 C1309 1.377 . S
C1308 C1310 1.384 . S
C1309 C1308 1.377 . S
C1309 C1315 1.390 . S
C1310 H1301 0.930 . S
C1310 C1308 1.384 . S
C1310 C1311 1.372 . S
C1311 C1310 1.372 . S
C1311 C1312 1.400 . S
C1311 C1316 1.490 . S
C1312 H1302 0.930 . S
C1312 C1311 1.400 . S
C1312 C1315 1.386 . S
H1313 C1329 0.930 . S
H1314 C1330 0.931 . S
C1315 H1303 0.929 . S
C1315 C1309 1.390 . S
C1315 C1312 1.386 . S
C1316 C1311 1.490 . S
C1316 C1318 1.395 . S
C1316 C1319 1.403 . S
H1317 C1323 0.930 . S
C1318 H1304 0.930 . S
C1318 C1316 1.395 . S
C1318 C1321 1.403 . S
C1319 C1316 1.403 . S
C1319 C1320 1.524 . S
C1319 C1323 1.400 . S
C1320 H1305 0.960 . S
C1320 H1306 0.960 . S
C1320 H1307 0.960 . S
C1320 C1319 1.524 . S
C1321 C1318 1.403 . S
C1321 C1322 1.392 . S
C1321 C1325 1.495 . S
C1322 C1321 1.392 . S
C1322 C1323 1.385 . S
C1322 C1324 1.478 . S
C1323 H1317 0.930 . S
C1323 C1319 1.400 . S
C1323 C1322 1.385 . S
C1324 C1322 1.478 . S
C1324 C1326 1.381 . S
C1324 C1330 1.383 . S
C1325 C1321 1.495 . S
C1325 H1331 0.959 . S
C1325 H1332 0.961 . S
C1325 H1333 0.960 . S
C1326 C1324 1.381 . S
C1326 C1327 1.394 . S
C1326 H1334 0.930 . S
C1327 C1326 1.394 . S
C1327 C1328 1.383 . S
C1327 H1335 0.929 . S
C1328 C1327 1.383 . S
C1328 C1329 1.377 . S
C1329 H1313 0.930 . S
C1329 C1328 1.377 . S
C1329 C1330 1.379 . S
C1330 H1314 0.931 . S
C1330 C1324 1.383 . S
C1330 C1329 1.379 . S
H1331 C1325 0.959 . S
H1332 C1325 0.961 . S
H1333 C1325 0.960 . S
H1334 C1326 0.930 . S
H1335 C1327 0.929 . S
C481 C255 1.907 1_545 S
C500 C321 2.013 1_545 S
C536 C361 2.022 . S
C517 C294 1.892 . S
C572 C401 2.010 . S
C553 C177 1.915 . S
C608 C441 2.017 1_455 S
C589 C216 1.922 . S
C644 C330 2.013 1_565 S
C625 C99 1.906 1_545 S
C661 C138 1.894 . S
C680 C370 2.031 . S
C697 C21 1.917 . S
C716 C410 2.023 . S
C733 C60 1.915 . S
C752 C450 2.022 1_655 S
C788 C327 0.171 . S
C769 C196 0.254 . S
C824 C367 0.261 . S
C805 C235 0.262 1_545 S
C860 C407 0.300 . S
C841 C289 0.276 . S
C877 C157 0.272 . S
C896 C447 0.300 . S
C913 C40 0.236 . S
C932 C318 0.331 . S
C968 C358 0.184 . S
C949 C79 0.271 . S
C1004 C398 0.346 . S
C985 C133 0.269 . S
C1021 C1 0.272 . S
C1040 C438 0.205 . S
C1057 C211 2.519 . S
C1076 C331 2.812 . S
C1093 C250 2.514 . S
C1112 C371 2.822 . S
C1148 C411 2.827 . S
C1129 C274 2.525 . S
C1184 C451 2.810 . S
C1165 C172 2.510 . S
C1201 C55 2.523 . S
C1220 C322 2.819 . S
C1256 C362 2.805 . S
C1237 C94 2.516 1_565 S
C1292 C402 2.808 . S
C1273 C118 2.526 . S
C1309 C16 2.508 . S
C1328 C442 2.810 . S
