# Generated by pormake.
# Topology wbl, (4,4)-cn, num edge types: 1
# Building blocks:
#     Node 0, Type 0, BuildingBlock: MUDLON_clean_linker_0, # of connection points: 4
#     Node 1, Type 0, BuildingBlock: MUDLON_clean_linker_0, # of connection points: 4
#     Node 2, Type 0, BuildingBlock: MUDLON_clean_linker_0, # of connection points: 4
#     Node 3, Type 0, BuildingBlock: MUDLON_clean_linker_0, # of connection points: 4
#     Node 4, Type 0, BuildingBlock: MUDLON_clean_linker_0, # of connection points: 4
#     Node 5, Type 0, BuildingBlock: MUDLON_clean_linker_0, # of connection points: 4
#     Node 6, Type 0, BuildingBlock: MUDLON_clean_linker_0, # of connection points: 4
#     Node 7, Type 0, BuildingBlock: MUDLON_clean_linker_0, # of connection points: 4
#     Node 8, Type 1, BuildingBlock: KUFVIS_clean_sbu_0, # of connection points: 4
#     Node 9, Type 1, BuildingBlock: KUFVIS_clean_sbu_0, # of connection points: 4
#     Node 10, Type 1, BuildingBlock: KUFVIS_clean_sbu_0, # of connection points: 4
#     Node 11, Type 1, BuildingBlock: KUFVIS_clean_sbu_0, # of connection points: 4
#     Node 12, Type 1, BuildingBlock: KUFVIS_clean_sbu_0, # of connection points: 4
#     Node 13, Type 1, BuildingBlock: KUFVIS_clean_sbu_0, # of connection points: 4
#     Node 14, Type 1, BuildingBlock: KUFVIS_clean_sbu_0, # of connection points: 4
#     Node 15, Type 1, BuildingBlock: KUFVIS_clean_sbu_0, # of connection points: 4
#     Edge 16, Type (0, 1), BuildingBlock: CIFDUS_clean_linker_0, # of connection points: 2
#     Edge 17, Type (0, 1), BuildingBlock: CIFDUS_clean_linker_0, # of connection points: 2
#     Edge 18, Type (0, 1), BuildingBlock: CIFDUS_clean_linker_0, # of connection points: 2
#     Edge 19, Type (0, 1), BuildingBlock: CIFDUS_clean_linker_0, # of connection points: 2
#     Edge 20, Type (0, 1), BuildingBlock: CIFDUS_clean_linker_0, # of connection points: 2
#     Edge 21, Type (0, 1), BuildingBlock: CIFDUS_clean_linker_0, # of connection points: 2
#     Edge 22, Type (0, 1), BuildingBlock: CIFDUS_clean_linker_0, # of connection points: 2
#     Edge 23, Type (0, 1), BuildingBlock: CIFDUS_clean_linker_0, # of connection points: 2
#     Edge 24, Type (0, 1), BuildingBlock: CIFDUS_clean_linker_0, # of connection points: 2
#     Edge 25, Type (0, 1), BuildingBlock: CIFDUS_clean_linker_0, # of connection points: 2
#     Edge 26, Type (0, 1), BuildingBlock: CIFDUS_clean_linker_0, # of connection points: 2
#     Edge 27, Type (0, 1), BuildingBlock: CIFDUS_clean_linker_0, # of connection points: 2
#     Edge 28, Type (0, 1), BuildingBlock: CIFDUS_clean_linker_0, # of connection points: 2
#     Edge 29, Type (0, 1), BuildingBlock: CIFDUS_clean_linker_0, # of connection points: 2
#     Edge 30, Type (0, 1), BuildingBlock: CIFDUS_clean_linker_0, # of connection points: 2
#     Edge 31, Type (0, 1), BuildingBlock: CIFDUS_clean_linker_0, # of connection points: 2
#     Edge 32, Type (0, 1), BuildingBlock: CIFDUS_clean_linker_0, # of connection points: 2
#     Edge 33, Type (0, 1), BuildingBlock: CIFDUS_clean_linker_0, # of connection points: 2
#     Edge 34, Type (0, 1), BuildingBlock: CIFDUS_clean_linker_0, # of connection points: 2
#     Edge 35, Type (0, 1), BuildingBlock: CIFDUS_clean_linker_0, # of connection points: 2
#     Edge 36, Type (0, 1), BuildingBlock: CIFDUS_clean_linker_0, # of connection points: 2
#     Edge 37, Type (0, 1), BuildingBlock: CIFDUS_clean_linker_0, # of connection points: 2
#     Edge 38, Type (0, 1), BuildingBlock: CIFDUS_clean_linker_0, # of connection points: 2
#     Edge 39, Type (0, 1), BuildingBlock: CIFDUS_clean_linker_0, # of connection points: 2
#     Edge 40, Type (0, 1), BuildingBlock: CIFDUS_clean_linker_0, # of connection points: 2
#     Edge 41, Type (0, 1), BuildingBlock: CIFDUS_clean_linker_0, # of connection points: 2
#     Edge 42, Type (0, 1), BuildingBlock: CIFDUS_clean_linker_0, # of connection points: 2
#     Edge 43, Type (0, 1), BuildingBlock: CIFDUS_clean_linker_0, # of connection points: 2
#     Edge 44, Type (0, 1), BuildingBlock: CIFDUS_clean_linker_0, # of connection points: 2
#     Edge 45, Type (0, 1), BuildingBlock: CIFDUS_clean_linker_0, # of connection points: 2
#     Edge 46, Type (0, 1), BuildingBlock: CIFDUS_clean_linker_0, # of connection points: 2
#     Edge 47, Type (0, 1), BuildingBlock: CIFDUS_clean_linker_0, # of connection points: 2
# Relax obj value: 0.112
# Max RMSD: 0.127
# Mean RMSD: 0.125
data_MOF--net-wbl--node1-KUFVIS_clean_sbu_0--node2-MUDLON_clean_linker_0--edge1-CIFDUS_clean_linker_0
_symmetry_space_group_name_H-M    P1
_symmetry_Int_Tables_number       1
_symmetry_cell_setting            triclinic
loop_
_symmetry_equiv_pos_as_xyz
'x, y, z'
_cell_length_a     49.003194
_cell_length_b     48.989476
_cell_length_c     68.828444
_cell_angle_alpha  89.980183
_cell_angle_beta   90.693504
_cell_angle_gamma 90.007576
loop_
_atom_site_label
_atom_site_type_symbol
_atom_site_fract_x
_atom_site_fract_y
_atom_site_fract_z
_atom_type_partial_charge
H0 H 0.11761 0.94524 0.33058 0.0
N1 N 0.0777 0.92847 0.30514 0.0
H2 H 0.12718 0.92649 0.36279 0.0
H3 H 0.05007 0.88959 0.32349 0.0
H4 H 0.05994 0.87023 0.35577 0.0
H5 H 0.09696 0.88219 0.29108 0.0
H6 H 0.14165 0.87411 0.27734 0.0
H7 H 0.11276 0.96882 0.2916 0.0
H8 H 0.15667 0.96111 0.27685 0.0
H9 H 0.08892 0.97962 0.31977 0.0
H10 H 0.02834 0.93213 0.28894 0.0
H11 H 0.05785 0.01802 0.32093 0.0
H12 H 0.99619 0.97025 0.29101 0.0
H13 H 0.94876 0.12997 0.34063 0.0
H14 H 0.93343 0.13672 0.37406 0.0
H15 H 0.90834 0.05217 0.37635 0.0
H16 H 0.92475 0.04544 0.34344 0.0
H17 H 0.9046 0.0482 0.31275 0.0
H18 H 0.86126 0.05877 0.29678 0.0
H19 H 0.89251 0.13806 0.28063 0.0
H20 H 0.93531 0.12775 0.29776 0.0
H21 H 0.98739 0.06709 0.34325 0.0
H22 H 0.01928 0.03036 0.33812 0.0
H23 H 0.9835 0.01536 0.28146 0.0
N24 N 0.94646 0.08433 0.31957 0.0
H25 H 0.95049 0.0514 0.28692 0.0
C26 C 0.08279 0.91902 0.32472 0.0
C27 C 0.10447 0.92937 0.33611 0.0
C28 C 0.11001 0.91854 0.3545 0.0
C29 C 0.09427 0.89694 0.36177 0.0
C30 C 0.07247 0.88678 0.35046 0.0
C31 C 0.06672 0.89787 0.33213 0.0
C32 C 0.10129 0.92594 0.29277 0.0
C33 C 0.10967 0.89957 0.28761 0.0
C34 C 0.13534 0.89502 0.27964 0.0
C35 C 0.15324 0.91692 0.2762 0.0
C36 C 0.14389 0.94362 0.27984 0.0
C37 C 0.11838 0.9481 0.28822 0.0
C38 C 0.06114 0.95286 0.30399 0.0
C39 C 0.06904 0.97745 0.31301 0.0
C40 C 0.05095 0.99943 0.31392 0.0
C41 C 0.02422 0.99724 0.30634 0.0
C42 C 0.01664 0.9729 0.29683 0.0
C43 C 0.03497 0.95103 0.29566 0.0
C44 C 0.93792 0.08733 0.33952 0.0
C45 C 0.94011 0.11293 0.34847 0.0
C46 C 0.93112 0.11677 0.36748 0.0
C47 C 0.91959 0.09499 0.37791 0.0
C48 C 0.91742 0.06931 0.36887 0.0
C49 C 0.92652 0.06548 0.34993 0.0
C50 C 0.92313 0.08742 0.30668 0.0
C51 C 0.90222 0.06776 0.30566 0.0
C52 C 0.87745 0.07378 0.2963 0.0
C53 C 0.87312 0.09948 0.28761 0.0
C54 C 0.89482 0.11833 0.28755 0.0
C55 C 0.91945 0.11238 0.29709 0.0
C56 C 0.96485 0.06141 0.31617 0.0
C57 C 0.98565 0.05555 0.32988 0.0
C58 C 0.00447 0.03471 0.32675 0.0
C59 C 0.00401 0.01962 0.30939 0.0
C60 C 0.98407 0.02604 0.29523 0.0
C61 C 0.96493 0.04679 0.29846 0.0
H62 H 0.96968 0.38932 0.58789 0.0
N63 N 0.9443 0.42884 0.5661 0.0
H64 H 0.96129 0.37864 0.62191 0.0
H65 H 0.90974 0.45364 0.58984 0.0
H66 H 0.90089 0.44272 0.62405 0.0
H67 H 0.89568 0.41164 0.5544 0.0
H68 H 0.88438 0.36798 0.53938 0.0
H69 H 0.9814 0.39314 0.54958 0.0
H70 H 0.97034 0.35018 0.53395 0.0
H71 H 0.99901 0.42028 0.57353 0.0
H72 H 0.9409 0.47843 0.55075 0.0
H73 H 0.03558 0.45277 0.56913 0.0
H74 H 0.97727 0.51225 0.54776 0.0
H75 H 0.13947 0.58581 0.57658 0.0
H76 H 0.15072 0.60424 0.6083 0.0
H77 H 0.06689 0.59156 0.62584 0.0
H78 H 0.05539 0.57746 0.59314 0.0
H79 H 0.04582 0.6051 0.56114 0.0
H80 H 0.04378 0.65029 0.5464 0.0
H81 H 0.12673 0.63995 0.52654 0.0
H82 H 0.12707 0.59395 0.5395 0.0
H83 H 0.08718 0.5262 0.58476 0.0
H84 H 0.0528 0.49095 0.58376 0.0
H85 H 0.01675 0.52807 0.53258 0.0
N86 N 0.09056 0.57159 0.56266 0.0
H87 H 0.05027 0.56437 0.53426 0.0
C88 C 0.94055 0.42263 0.58638 0.0
C89 C 0.955 0.40144 0.5957 0.0
C90 C 0.95011 0.39527 0.61515 0.0
C91 C 0.93048 0.40989 0.62563 0.0
C92 C 0.91601 0.43101 0.61629 0.0
C93 C 0.92114 0.43737 0.59686 0.0
C94 C 0.93927 0.4059 0.55335 0.0
C95 C 0.91208 0.39859 0.54952 0.0
C96 C 0.90568 0.37358 0.54086 0.0
C97 C 0.92646 0.3553 0.53563 0.0
C98 C 0.9538 0.36347 0.53819 0.0
C99 C 0.96017 0.38838 0.54707 0.0
C100 C 0.96703 0.44669 0.56211 0.0
C101 C 0.99404 0.43993 0.56733 0.0
C102 C 0.01506 0.4589 0.56512 0.0
C103 C 0.00955 0.48547 0.55831 0.0
C104 C 0.98256 0.49196 0.55276 0.0
C105 C 0.96164 0.4727 0.55455 0.0
C106 C 0.09681 0.57969 0.58248 0.0
C107 C 0.1236 0.58715 0.58735 0.0
C108 C 0.13001 0.59742 0.60577 0.0
C109 C 0.10993 0.59944 0.62023 0.0
C110 C 0.08308 0.59129 0.61532 0.0
C111 C 0.07643 0.58247 0.59656 0.0
C112 C 0.08651 0.59594 0.5511 0.0
C113 C 0.06307 0.61228 0.5529 0.0
C114 C 0.06224 0.63845 0.54476 0.0
C115 C 0.08526 0.64944 0.53542 0.0
C116 C 0.10826 0.63248 0.53314 0.0
C117 C 0.10865 0.60602 0.54065 0.0
C118 C 0.07039 0.54974 0.56072 0.0
C119 C 0.07154 0.52732 0.57354 0.0
C120 C 0.05201 0.50664 0.5727 0.0
C121 C 0.03142 0.50676 0.5583 0.0
C122 C 0.03156 0.52781 0.54438 0.0
C123 C 0.05089 0.54886 0.54543 0.0
H124 H 0.62164 0.46846 0.83424 0.0
N125 N 0.58114 0.4471 0.81106 0.0
H126 H 0.63364 0.45414 0.86721 0.0
H127 H 0.55697 0.40879 0.83224 0.0
H128 H 0.56952 0.39373 0.86526 0.0
H129 H 0.59856 0.40016 0.79691 0.0
H130 H 0.64239 0.39098 0.78206 0.0
H131 H 0.61593 0.48646 0.79617 0.0
H132 H 0.65903 0.47764 0.78046 0.0
H133 H 0.59081 0.50004 0.82284 0.0
H134 H 0.53123 0.44735 0.79556 0.0
H135 H 0.5584 0.53734 0.82243 0.0
H136 H 0.49783 0.48454 0.79597 0.0
H137 H 0.44305 0.64849 0.83519 0.0
H138 H 0.42674 0.66029 0.86753 0.0
H139 H 0.41308 0.57462 0.87933 0.0
H140 H 0.42766 0.56343 0.84659 0.0
H141 H 0.4065 0.55849 0.81425 0.0
H142 H 0.36222 0.56245 0.79778 0.0
H143 H 0.38204 0.64544 0.78159 0.0
H144 H 0.42669 0.64045 0.79701 0.0
H145 H 0.48629 0.58585 0.84308 0.0
H146 H 0.51943 0.54983 0.83956 0.0
H147 H 0.48409 0.52853 0.78382 0.0
N148 N 0.44442 0.59933 0.8187 0.0
H149 H 0.44999 0.56401 0.78761 0.0
C150 C 0.58796 0.43999 0.83088 0.0
C151 C 0.60967 0.45262 0.841 0.0
C152 C 0.61666 0.44429 0.85981 0.0
C153 C 0.60247 0.42287 0.86873 0.0
C154 C 0.58084 0.41022 0.85863 0.0
C155 C 0.57357 0.41886 0.8399 0.0
C156 C 0.60376 0.44385 0.79795 0.0
C157 C 0.61138 0.41722 0.79289 0.0
C158 C 0.63653 0.41204 0.78431 0.0
C159 C 0.65465 0.43353 0.78028 0.0
C160 C 0.646 0.46047 0.78384 0.0
C161 C 0.62098 0.4656 0.79274 0.0
C162 C 0.56362 0.47069 0.80901 0.0
C163 C 0.57087 0.49644 0.81652 0.0
C164 C 0.55204 0.51784 0.81652 0.0
C165 C 0.52525 0.51396 0.80943 0.0
C166 C 0.5183 0.48844 0.80138 0.0
C167 C 0.53733 0.46711 0.80117 0.0
C168 C 0.4368 0.60518 0.83852 0.0
C169 C 0.4366 0.63234 0.84486 0.0
C170 C 0.4274 0.63899 0.86341 0.0
C171 C 0.41847 0.61846 0.87616 0.0
C172 C 0.41917 0.59111 0.86985 0.0
C173 C 0.42782 0.58457 0.85116 0.0
C174 C 0.42009 0.59915 0.8066 0.0
C175 C 0.40151 0.57723 0.80668 0.0
C176 C 0.37599 0.57972 0.79746 0.0
C177 C 0.36821 0.60437 0.78839 0.0
C178 C 0.38725 0.62591 0.78798 0.0
C179 C 0.41287 0.62319 0.79685 0.0
C180 C 0.46376 0.57687 0.81642 0.0
C181 C 0.48485 0.57304 0.83029 0.0
C182 C 0.50439 0.55262 0.82807 0.0
C183 C 0.50438 0.53594 0.81147 0.0
C184 C 0.48427 0.54044 0.79707 0.0
C185 C 0.46449 0.56082 0.79936 0.0
H186 H 0.45154 0.8914 0.07706 0.0
N187 N 0.42252 0.93278 0.05996 0.0
H188 H 0.44744 0.8754 0.11052 0.0
H189 H 0.39029 0.95267 0.08732 0.0
H190 H 0.38578 0.93649 0.1209 0.0
H191 H 0.37164 0.92044 0.0503 0.0
H192 H 0.35551 0.8797 0.03346 0.0
H193 H 0.45479 0.89778 0.03844 0.0
H194 H 0.43892 0.85784 0.02088 0.0
H195 H 0.47789 0.92278 0.06017 0.0
H196 H 0.41717 0.98544 0.05205 0.0
H197 H 0.51381 0.95613 0.05648 0.0
H198 H 0.45305 0.01979 0.05033 0.0
H199 H 0.62108 0.08942 0.06952 0.0
H200 H 0.6364 0.105 0.10116 0.0
H201 H 0.55704 0.08495 0.12451 0.0
H202 H 0.54103 0.0736 0.09219 0.0
H203 H 0.53616 0.11635 0.06466 0.0
H204 H 0.53923 0.16175 0.04991 0.0
H205 H 0.60419 0.13318 0.01321 0.0
H206 H 0.60116 0.08796 0.02829 0.0
H207 H 0.57152 0.02385 0.07415 0.0
H208 H 0.53611 0.98938 0.07289 0.0
H209 H 0.48803 0.04115 0.03478 0.0
N210 N 0.57116 0.07391 0.05864 0.0
H211 H 0.52235 0.07637 0.03738 0.0
C212 C 0.42143 0.92355 0.07981 0.0
C213 C 0.4375 0.90168 0.08659 0.0
C214 C 0.43504 0.89246 0.1057 0.0
C215 C 0.41627 0.90469 0.1183 0.0
C216 C 0.40022 0.92653 0.11146 0.0
C217 C 0.4029 0.93591 0.0924 0.0
C218 C 0.41437 0.91238 0.04587 0.0
C219 C 0.38639 0.90721 0.04345 0.0
C220 C 0.37721 0.88384 0.03375 0.0
C221 C 0.39589 0.86508 0.026 0.0
C222 C 0.42392 0.8714 0.02709 0.0
C223 C 0.43309 0.89462 0.03706 0.0
C224 C 0.44456 0.95139 0.05577 0.0
C225 C 0.47214 0.94364 0.05719 0.0
C226 C 0.49288 0.9631 0.05556 0.0
C227 C 0.48667 0.99104 0.05331 0.0
C228 C 0.45898 0.99859 0.05165 0.0
C229 C 0.43829 0.97896 0.05271 0.0
C230 C 0.58011 0.07987 0.07836 0.0
C231 C 0.60707 0.08845 0.08155 0.0
C232 C 0.61588 0.0971 0.09991 0.0
C233 C 0.59826 0.0963 0.11597 0.0
C234 C 0.57134 0.08682 0.11276 0.0
C235 C 0.56215 0.07956 0.09415 0.0
C236 C 0.56848 0.0988 0.0475 0.0
C237 C 0.55056 0.11975 0.0531 0.0
C238 C 0.55236 0.14566 0.04464 0.0
C239 C 0.57219 0.15115 0.03055 0.0
C240 C 0.58899 0.12971 0.02424 0.0
C241 C 0.5871 0.10381 0.03265 0.0
C242 C 0.54964 0.05349 0.05665 0.0
C243 C 0.55317 0.028 0.06573 0.0
C244 C 0.53291 0.00797 0.0647 0.0
C245 C 0.50879 0.01223 0.05379 0.0
C246 C 0.50579 0.03723 0.04384 0.0
C247 C 0.52579 0.05761 0.0453 0.0
H248 H 0.106 0.57375 0.93409 0.0
N249 N 0.05921 0.59511 0.94925 0.0
H250 H 0.12512 0.58429 0.9023 0.0
H251 H 0.03543 0.62306 0.92048 0.0
H252 H 0.05432 0.63329 0.88839 0.0
H253 H 0.07799 0.64477 0.95703 0.0
H254 H 0.12012 0.65649 0.97427 0.0
H255 H 0.0876 0.56073 0.97475 0.0
H256 H 0.12877 0.57249 0.99246 0.0
H257 H 0.07226 0.54084 0.94558 0.0
H258 H 0.00662 0.59629 0.95794 0.0
H259 H 0.04185 0.50231 0.94956 0.0
H260 H 0.97493 0.55812 0.95975 0.0
H261 H 0.91857 0.38275 0.94942 0.0
H262 H 0.90459 0.36114 0.91923 0.0
H263 H 0.91785 0.43765 0.88902 0.0
H264 H 0.92735 0.45961 0.91967 0.0
H265 H 0.88403 0.46396 0.94478 0.0
H266 H 0.83873 0.45915 0.95862 0.0
H267 H 0.87275 0.409 0.00467 0.0
H268 H 0.91768 0.41255 0.98979 0.0
H269 H 0.97823 0.43816 0.93835 0.0
H270 H 0.00927 0.47634 0.93677 0.0
H271 H 0.95706 0.52211 0.9752 0.0
N272 N 0.92951 0.4353 0.95576 0.0
H273 H 0.92468 0.48507 0.97496 0.0
C274 C 0.06926 0.59784 0.9297 0.0
C275 C 0.0944 0.58649 0.92415 0.0
C276 C 0.10543 0.59269 0.90605 0.0
C277 C 0.09133 0.60986 0.89302 0.0
C278 C 0.0656 0.62002 0.89818 0.0
C279 C 0.05477 0.61416 0.91642 0.0
C280 C 0.0796 0.60181 0.96396 0.0
C281 C 0.08862 0.629 0.96515 0.0
C282 C 0.11278 0.63568 0.97506 0.0
C283 C 0.12834 0.61529 0.98435 0.0
C284 C 0.11784 0.58856 0.98487 0.0
C285 C 0.09391 0.5818 0.97469 0.0
C286 C 0.04191 0.57157 0.9521 0.0
C287 C 0.05122 0.54474 0.94924 0.0
C288 C 0.03343 0.52257 0.95114 0.0
C289 C 0.00546 0.52661 0.95493 0.0
C290 C 0.99625 0.55367 0.95739 0.0
C291 C 0.01432 0.57573 0.95621 0.0
C292 C 0.92458 0.42265 0.93696 0.0
C293 C 0.9184 0.39474 0.93619 0.0
C294 C 0.91063 0.38233 0.91869 0.0
C295 C 0.90987 0.39729 0.90116 0.0
C296 C 0.91707 0.4252 0.90196 0.0
C297 C 0.92336 0.43788 0.91963 0.0
C298 C 0.90414 0.43816 0.96611 0.0
C299 C 0.88174 0.45229 0.95802 0.0
C300 C 0.8558 0.44961 0.96609 0.0
C301 C 0.85177 0.43319 0.98264 0.0
C302 C 0.87478 0.4211 0.99161 0.0
C303 C 0.9006 0.42341 0.98332 0.0
C304 C 0.94804 0.45867 0.95583 0.0
C305 C 0.97304 0.45667 0.94608 0.0
C306 C 0.99125 0.4786 0.94553 0.0
C307 C 0.98596 0.50293 0.95572 0.0
C308 C 0.96168 0.50437 0.96649 0.0
C309 C 0.94295 0.48274 0.96646 0.0
H310 H 0.57126 0.3894 0.17751 0.0
N311 N 0.59184 0.43042 0.20047 0.0
H312 H 0.58373 0.37918 0.14421 0.0
H313 H 0.62744 0.45717 0.17842 0.0
H314 H 0.64018 0.4469 0.14474 0.0
H315 H 0.63812 0.40946 0.21394 0.0
H316 H 0.64512 0.36436 0.22795 0.0
H317 H 0.55101 0.397 0.21479 0.0
H318 H 0.55773 0.35262 0.22971 0.0
H319 H 0.53976 0.42363 0.18572 0.0
H320 H 0.59066 0.47719 0.22021 0.0
H321 H 0.5028 0.45653 0.18688 0.0
H322 H 0.55333 0.51065 0.22132 0.0
H323 H 0.39129 0.55266 0.18022 0.0
H324 H 0.37573 0.56716 0.14785 0.0
H325 H 0.45056 0.61277 0.1409 0.0
H326 H 0.46632 0.59709 0.17273 0.0
H327 H 0.48092 0.59968 0.20761 0.0
H328 H 0.47757 0.64431 0.22285 0.0
H329 H 0.39056 0.63236 0.22921 0.0
H330 H 0.39486 0.58684 0.21578 0.0
H331 H 0.45972 0.53403 0.16919 0.0
H332 H 0.49618 0.50144 0.17187 0.0
H333 H 0.5049 0.51881 0.23305 0.0
N334 N 0.43789 0.56572 0.19833 0.0
H335 H 0.468 0.55225 0.23056 0.0
C336 C 0.59826 0.42435 0.18047 0.0
C337 C 0.58609 0.40231 0.1705 0.0
C338 C 0.59326 0.39645 0.1514 0.0
C339 C 0.61284 0.41231 0.14183 0.0
C340 C 0.62514 0.43423 0.1518 0.0
C341 C 0.61778 0.44023 0.17093 0.0
C342 C 0.5942 0.40682 0.21306 0.0
C343 C 0.62047 0.39742 0.21781 0.0
C344 C 0.6244 0.37155 0.22591 0.0
C345 C 0.60199 0.35448 0.22975 0.0
C346 C 0.57552 0.36484 0.22649 0.0
C347 C 0.57162 0.39058 0.21808 0.0
C348 C 0.56833 0.44796 0.20279 0.0
C349 C 0.54306 0.44235 0.19368 0.0
C350 C 0.52183 0.46132 0.19429 0.0
C351 C 0.52525 0.48639 0.20395 0.0
C352 C 0.55003 0.49149 0.2138 0.0
C353 C 0.57136 0.47245 0.21316 0.0
C354 C 0.42978 0.57386 0.1789 0.0
C355 C 0.40432 0.56561 0.17157 0.0
C356 C 0.39541 0.57413 0.15318 0.0
C357 C 0.41182 0.59128 0.1418 0.0
C358 C 0.43752 0.59933 0.14914 0.0
C359 C 0.44647 0.59063 0.16745 0.0
C360 C 0.43809 0.58962 0.21074 0.0
C361 C 0.46134 0.60625 0.21301 0.0
C362 C 0.45922 0.63217 0.22142 0.0
C363 C 0.43365 0.64262 0.22703 0.0
C364 C 0.41075 0.62531 0.2255 0.0
C365 C 0.41308 0.59911 0.21772 0.0
C366 C 0.46158 0.54758 0.19945 0.0
C367 C 0.46963 0.53191 0.18323 0.0
C368 C 0.49043 0.5126 0.18478 0.0
C369 C 0.50357 0.50759 0.20264 0.0
C370 C 0.49549 0.5226 0.21898 0.0
C371 C 0.47444 0.54193 0.21749 0.0
H372 H 0.3906 0.94784 0.42442 0.0
N373 N 0.43054 0.93216 0.45019 0.0
H374 H 0.38025 0.92692 0.39304 0.0
H375 H 0.45781 0.89216 0.43288 0.0
H376 H 0.44727 0.87072 0.4014 0.0
H377 H 0.41086 0.88685 0.46553 0.0
H378 H 0.36621 0.88009 0.47969 0.0
H379 H 0.39604 0.9736 0.46268 0.0
H380 H 0.35225 0.96724 0.47788 0.0
H381 H 0.42011 0.98249 0.43392 0.0
H382 H 0.47937 0.93636 0.46701 0.0
H383 H 0.45063 0.02139 0.4335 0.0
H384 H 0.51113 0.97477 0.46557 0.0
H385 H 0.56498 0.13962 0.42606 0.0
H386 H 0.58188 0.15276 0.3941 0.0
H387 H 0.59196 0.06742 0.37965 0.0
H388 H 0.57685 0.0548 0.4119 0.0
H389 H 0.60086 0.04967 0.44203 0.0
H390 H 0.64505 0.05224 0.45866 0.0
H391 H 0.62148 0.1291 0.48437 0.0
H392 H 0.57775 0.12685 0.46688 0.0
H393 H 0.52109 0.07439 0.41577 0.0
H394 H 0.48948 0.03694 0.41878 0.0
H395 H 0.5222 0.01896 0.47594 0.0
N396 N 0.56171 0.08959 0.44108 0.0
H397 H 0.55519 0.05532 0.47245 0.0
C398 C 0.42531 0.92174 0.43089 0.0
C399 C 0.40353 0.93151 0.41933 0.0
C400 C 0.39754 0.91943 0.40142 0.0
C401 C 0.41296 0.89718 0.39479 0.0
C402 C 0.43494 0.8877 0.40623 0.0
C403 C 0.4411 0.9 0.42408 0.0
C404 C 0.407 0.93053 0.46266 0.0
C405 C 0.39838 0.90456 0.46857 0.0
C406 C 0.37276 0.90078 0.47679 0.0
C407 C 0.35519 0.92308 0.47972 0.0
C408 C 0.36479 0.94944 0.47531 0.0
C409 C 0.39023 0.95314 0.46668 0.0
C410 C 0.44727 0.95644 0.45081 0.0
C411 C 0.43966 0.98069 0.44121 0.0
C412 C 0.45745 0.00296 0.44075 0.0
C413 C 0.48363 1.00135 0.44933 0.0
C414 C 0.49104 0.9771 0.45906 0.0
C415 C 0.47298 0.95502 0.45984 0.0
C416 C 0.56934 0.09633 0.42137 0.0
C417 C 0.57073 0.12385 0.41589 0.0
C418 C 0.5803 0.13126 0.39756 0.0
C419 C 0.58847 0.1112 0.38418 0.0
C420 C 0.58654 0.08355 0.38962 0.0
C421 C 0.57756 0.07622 0.40807 0.0
C422 C 0.58611 0.08831 0.45308 0.0
C423 C 0.60515 0.06697 0.45133 0.0
C424 C 0.63035 0.06837 0.46102 0.0
C425 C 0.637 0.09105 0.47271 0.0
C426 C 0.61729 0.11163 0.47518 0.0
C427 C 0.59219 0.11028 0.46538 0.0
C428 C 0.54266 0.0668 0.44307 0.0
C429 C 0.52239 0.06193 0.42874 0.0
C430 C 0.50364 0.04068 0.43068 0.0
C431 C 0.50342 0.02439 0.4475 0.0
C432 C 0.52234 0.0303 0.46244 0.0
C433 C 0.54146 0.05128 0.46036 0.0
H434 H 0.04284 0.93298 0.66967 0.0
N435 N 0.08028 0.93115 0.70012 0.0
H436 H 0.05046 0.91942 0.63654 0.0
H437 H 0.12694 0.91526 0.68421 0.0
H438 H 0.13424 0.89946 0.651 0.0
H439 H 0.10845 0.92241 0.73287 0.0
H440 H 0.11419 0.87906 0.75014 0.0
H441 H 0.05048 0.88463 0.69376 0.0
H442 H 0.05713 0.8411 0.71001 0.0
H443 H 0.02503 0.92516 0.70541 0.0
H444 H 0.09014 0.98419 0.70372 0.0
H445 H 0.99167 0.9618 0.70727 0.0
H446 H 0.05693 0.0212 0.70645 0.0
H447 H 0.89622 0.05593 0.67928 0.0
H448 H 0.87988 0.06761 0.64638 0.0
H449 H 0.94644 0.12473 0.64074 0.0
H450 H 0.96237 0.11329 0.67323 0.0
H451 H 0.97889 0.11508 0.70568 0.0
H452 H 0.97315 0.15863 0.72223 0.0
H453 H 0.89118 0.13523 0.73784 0.0
H454 H 0.89668 0.09238 0.72016 0.0
H455 H 0.93672 0.03309 0.72079 0.0
H456 H 0.97176 0.99787 0.72496 0.0
H457 H 0.02434 0.0425 0.6862 0.0
N458 N 0.9385 0.07736 0.69859 0.0
H459 H 0.99002 0.07784 0.68293 0.0
C460 C 0.08451 0.9255 0.67969 0.0
C461 C 0.06309 0.92635 0.66586 0.0
C462 C 0.06738 0.91806 0.64675 0.0
C463 C 0.09288 0.90785 0.641 0.0
C464 C 0.1144 0.90748 0.65472 0.0
C465 C 0.11026 0.91641 0.67377 0.0
C466 C 0.07932 0.90679 0.71195 0.0
C467 C 0.09665 0.90484 0.72822 0.0
C468 C 0.10014 0.87992 0.73789 0.0
C469 C 0.08656 0.85627 0.7313 0.0
C470 C 0.06782 0.85875 0.71571 0.0
C471 C 0.06406 0.88374 0.70626 0.0
C472 C 0.06025 0.95194 0.70434 0.0
C473 C 0.03226 0.94599 0.70599 0.0
C474 C 0.01311 0.96711 0.7071 0.0
C475 C 0.02147 0.99462 0.70681 0.0
C476 C 0.04961 1.00035 0.70625 0.0
C477 C 0.06869 0.97924 0.70492 0.0
C478 C 0.93066 0.08335 0.67874 0.0
C479 C 0.90738 0.07074 0.67081 0.0
C480 C 0.898 0.07757 0.65213 0.0
C481 C 0.91195 0.09702 0.64099 0.0
C482 C 0.93548 0.10936 0.64885 0.0
C483 C 0.94466 0.10275 0.66754 0.0
C484 C 0.93795 0.10061 0.71142 0.0
C485 C 0.95978 0.11918 0.71279 0.0
C486 C 0.95651 0.1441 0.72244 0.0
C487 C 0.93149 0.15078 0.73112 0.0
C488 C 0.91046 0.1312 0.73088 0.0
C489 C 0.91364 0.10653 0.72101 0.0
C490 C 0.96041 0.05799 0.70143 0.0
C491 C 0.95598 0.03532 0.7134 0.0
C492 C 0.97597 0.01513 0.71563 0.0
C493 C 1.00093 0.01712 0.70582 0.0
C494 C 0.0056 0.04032 0.69422 0.0
C495 C 0.98569 0.06059 0.69215 0.0
Mn496 Mn 0.33557 0.66538 0.01468 0.0
Mn497 Mn 0.34185 0.59689 0.01855 0.0
C498 C 0.3391 0.64509 0.0449 0.0
C499 C 0.35598 0.70837 0.01188 0.0
C500 C 0.2882 0.62506 0.00914 0.0
O501 O 0.34687 0.65415 0.98744 0.0
O502 O 0.35167 0.60869 0.99191 0.0
C503 C 0.40184 0.59293 0.01489 0.0
N504 N 0.37876 0.58791 0.02512 0.0
C505 C 0.40432 0.56485 0.05028 0.0
C506 C 0.42835 0.56963 0.03996 0.0
C507 C 0.42711 0.58381 0.02222 0.0
C508 C 0.37974 0.57443 0.04226 0.0
H509 H 0.40094 0.60384 0.00126 0.0
C510 C 0.35259 0.63022 0.98136 0.0
O511 O 0.3307 0.70444 0.00663 0.0
O512 O 0.36937 0.68722 0.01805 0.0
N513 N 0.33303 0.58261 0.04358 0.0
C514 C 0.30821 0.58103 0.05221 0.0
C515 C 0.30605 0.5683 0.07041 0.0
C516 C 0.32935 0.55712 0.07945 0.0
C517 C 0.35461 0.55868 0.07016 0.0
C518 C 0.3555 0.57152 0.052 0.0
H519 H 0.29023 0.58956 0.04531 0.0
O520 O 0.32837 0.66917 0.04309 0.0
O521 O 0.34736 0.63365 0.029 0.0
O522 O 0.297 0.64962 0.00989 0.0
O523 O 0.30332 0.6042 0.01212 0.0
C524 C 0.37902 0.54841 0.07835 0.0
C525 C 0.40385 0.55145 0.0684 0.0
H526 H 0.4479 0.56272 0.04561 0.0
H527 H 0.44559 0.5877 0.01423 0.0
H528 H 0.28648 0.56717 0.07749 0.0
H529 H 0.32764 0.54751 0.09356 0.0
H530 H 0.379 0.53849 0.09242 0.0
H531 H 0.42255 0.54386 0.07499 0.0
Mn532 Mn 0.34482 0.83888 0.25973 0.0
Mn533 Mn 0.41278 0.84954 0.2629 0.0
C534 C 0.36521 0.84766 0.28951 0.0
C535 C 0.30055 0.85547 0.25504 0.0
C536 C 0.38751 0.79359 0.25692 0.0
O537 O 0.35538 0.84718 0.23175 0.0
O538 O 0.39995 0.85747 0.236 0.0
C539 C 0.41359 0.90939 0.25705 0.0
N540 N 0.41976 0.88721 0.26819 0.0
C541 C 0.44026 0.91546 0.29297 0.0
C542 C 0.43427 0.9386 0.2817 0.0
C543 C 0.42083 0.93554 0.26368 0.0
C544 C 0.43265 0.88992 0.28557 0.0
H545 H 0.40315 0.90713 0.24323 0.0
C546 C 0.3784 0.85527 0.22535 0.0
O547 O 0.30653 0.83006 0.25178 0.0
O548 O 0.32044 0.87134 0.2604 0.0
N549 N 0.42759 0.84285 0.28833 0.0
C550 C 0.43071 0.81861 0.29783 0.0
C551 C 0.44329 0.81817 0.31627 0.0
C552 C 0.45264 0.8426 0.32471 0.0
C553 C 0.4494 0.86725 0.31459 0.0
C554 C 0.43694 0.8664 0.29618 0.0
H555 H 0.42354 0.79978 0.29143 0.0
O556 O 0.3417 0.8355 0.28863 0.0
O557 O 0.37591 0.85417 0.273 0.0
O558 O 0.36267 0.80114 0.25811 0.0
O559 O 0.40768 0.81008 0.25785 0.0
C560 C 0.45761 0.8927 0.3222 0.0
C561 C 0.45301 0.91679 0.31141 0.0
H562 H 0.43968 0.95882 0.28681 0.0
H563 H 0.41601 0.95332 0.25495 0.0
H564 H 0.44565 0.79907 0.32401 0.0
H565 H 0.46204 0.84221 0.33903 0.0
H566 H 0.46715 0.89401 0.33645 0.0
H567 H 0.45907 0.93627 0.31753 0.0
Mn568 Mn 0.16355 0.84691 0.49814 0.0
Mn569 Mn 0.09539 0.85684 0.49592 0.0
C570 C 0.14224 0.85471 0.46858 0.0
C571 C 0.20778 0.86362 0.5022 0.0
C572 C 0.12131 0.8013 0.50181 0.0
O573 O 0.15388 0.85576 0.52614 0.0
O574 O 0.10892 0.86486 0.52266 0.0
C575 C 0.0945 0.9167 0.50165 0.0
N576 N 0.08808 0.89445 0.49066 0.0
C577 C 0.0669 0.92254 0.46606 0.0
C578 C 0.07313 0.94574 0.47719 0.0
C579 C 0.08703 0.9428 0.49504 0.0
C580 C 0.07476 0.89705 0.47344 0.0
H581 H 0.10532 0.91453 0.51533 0.0
C582 C 0.1309 0.86326 0.53289 0.0
O583 O 0.20191 0.83827 0.50573 0.0
O584 O 0.18781 0.87939 0.4968 0.0
N585 N 0.07982 0.84998 0.47075 0.0
C586 C 0.07643 0.82567 0.4614 0.0
C587 C 0.06335 0.82511 0.44314 0.0
C588 C 0.05378 0.84948 0.43473 0.0
C589 C 0.05726 0.8742 0.44471 0.0
C590 C 0.07021 0.87347 0.46296 0.0
H591 H 0.08379 0.80689 0.46777 0.0
O592 O 0.1659 0.84281 0.46929 0.0
O593 O 0.13194 0.86168 0.48515 0.0
O594 O 0.14601 0.80915 0.50038 0.0
O595 O 0.10086 0.81744 0.501 0.0
C596 C 0.04882 0.89959 0.43713 0.0
C597 C 0.05368 0.92375 0.44779 0.0
H598 H 0.06753 0.96593 0.47209 0.0
H599 H 0.09203 0.96063 0.50366 0.0
H600 H 0.06078 0.80595 0.4355 0.0
H601 H 0.044 0.849 0.42053 0.0
H602 H 0.0389 0.90081 0.42301 0.0
H603 H 0.04741 0.94318 0.44169 0.0
Mn604 Mn 0.16871 0.66744 0.75419 0.0
Mn605 Mn 0.155 0.60045 0.74891 0.0
C606 C 0.16791 0.64828 0.72351 0.0
C607 C 0.15279 0.71214 0.7571 0.0
C608 C 0.20927 0.62258 0.76391 0.0
O609 O 0.15321 0.65615 0.78049 0.0
O610 O 0.13783 0.61388 0.77307 0.0
C611 C 0.09533 0.60403 0.74214 0.0
N612 N 0.1204 0.59568 0.73623 0.0
C613 C 0.10137 0.57624 0.70695 0.0
C614 C 0.07531 0.5843 0.71286 0.0
C615 C 0.0723 0.59837 0.73049 0.0
C616 C 0.12358 0.58251 0.71916 0.0
H617 H 0.09299 0.61511 0.75555 0.0
C618 C 0.13987 0.63446 0.78447 0.0
O619 O 0.17681 0.70515 0.76355 0.0
O620 O 0.13775 0.69298 0.74958 0.0
N621 N 0.17017 0.58488 0.72591 0.0
C622 C 0.19681 0.57955 0.7219 0.0
C623 C 0.20339 0.56588 0.70464 0.0
C624 C 0.18252 0.55764 0.69176 0.0
C625 C 0.15524 0.56306 0.69629 0.0
C626 C 0.1499 0.5765 0.7138 0.0
H627 H 0.21296 0.58563 0.73178 0.0
O628 O 0.17984 0.67158 0.72639 0.0
O629 O 0.15629 0.63749 0.73849 0.0
O630 O 0.20437 0.64771 0.76051 0.0
O631 O 0.19162 0.60354 0.7616 0.0
C632 C 0.13315 0.55603 0.68398 0.0
C633 C 0.10625 0.56274 0.68926 0.0
H634 H 0.05751 0.58008 0.70387 0.0
H635 H 0.05228 0.60491 0.73505 0.0
H636 H 0.22449 0.56174 0.70127 0.0
H637 H 0.18769 0.54733 0.67838 0.0
H638 H 0.13667 0.54584 0.67027 0.0
H639 H 0.0895 0.5577 0.6795 0.0
Mn640 Mn 0.83663 0.16972 0.51354 0.0
Mn641 Mn 0.84123 0.10111 0.51685 0.0
C642 C 0.83902 0.14888 0.54367 0.0
C643 C 0.8566 0.2127 0.51065 0.0
C644 C 0.78876 0.13084 0.50638 0.0
O645 O 0.84834 0.1585 0.48641 0.0
O646 O 0.8539 0.11319 0.49085 0.0
C647 C 0.90133 0.09534 0.51562 0.0
N648 N 0.87731 0.09096 0.52486 0.0
C649 C 0.9002 0.06737 0.55105 0.0
C650 C 0.92516 0.07147 0.54174 0.0
C651 C 0.92573 0.08559 0.52398 0.0
C652 C 0.87654 0.0775 0.542 0.0
H653 H 0.90187 0.10626 0.502 0.0
C654 C 0.8553 0.13485 0.48042 0.0
O655 O 0.83153 0.20828 0.50522 0.0
O656 O 0.8703 0.19194 0.5173 0.0
N657 N 0.82999 0.08691 0.54141 0.0
C658 C 0.80449 0.08614 0.54907 0.0
C659 C 0.80055 0.07356 0.56715 0.0
C660 C 0.8228 0.06179 0.57711 0.0
C661 C 0.84881 0.06263 0.56886 0.0
C662 C 0.85147 0.07528 0.55073 0.0
H663 H 0.78732 0.09519 0.5415 0.0
O664 O 0.82882 0.17322 0.54194 0.0
O665 O 0.84741 0.13758 0.52776 0.0
O666 O 0.79842 0.15487 0.50815 0.0
O667 O 0.80308 0.10932 0.50894 0.0
C668 C 0.87227 0.05185 0.57808 0.0
C669 C 0.89794 0.05419 0.56917 0.0
H670 H 0.94405 0.06413 0.5482 0.0
H671 H 0.94494 0.08898 0.51677 0.0
H672 H 0.78042 0.07303 0.57344 0.0
H673 H 0.81972 0.05233 0.59114 0.0
H674 H 0.87087 0.04208 0.59215 0.0
H675 H 0.9159 0.04621 0.57654 0.0
Mn676 Mn 0.84283 0.34876 0.76332 0.0
Mn677 Mn 0.91082 0.35582 0.76977 0.0
C678 C 0.86142 0.35254 0.79431 0.0
C679 C 0.79955 0.36763 0.75844 0.0
C680 C 0.88394 0.302 0.75922 0.0
O681 O 0.85557 0.36031 0.73647 0.0
O682 O 0.9004 0.36652 0.74281 0.0
C683 C 0.91313 0.41607 0.76692 0.0
N684 N 0.91811 0.39275 0.77714 0.0
C685 C 0.93639 0.41822 0.80421 0.0
C686 C 0.93161 0.4425 0.79393 0.0
C687 C 0.91988 0.44141 0.77521 0.0
C688 C 0.9292 0.39358 0.79521 0.0
H689 H 0.90397 0.41533 0.75258 0.0
C690 C 0.87961 0.3671 0.73132 0.0
O691 O 0.80484 0.34259 0.75356 0.0
O692 O 0.81962 0.38188 0.76556 0.0
N693 N 0.92366 0.34641 0.79528 0.0
C694 C 0.92674 0.32115 0.80332 0.0
C695 C 0.9386 0.31861 0.82191 0.0
C696 C 0.94728 0.34203 0.83201 0.0
C697 C 0.94409 0.36779 0.82338 0.0
C698 C 0.93252 0.36901 0.8047 0.0
H699 H 0.9202 0.30307 0.79561 0.0
O700 O 0.83758 0.34149 0.79175 0.0
O701 O 0.87346 0.36073 0.77869 0.0
O702 O 0.85949 0.31095 0.7593 0.0
O703 O 0.90478 0.317 0.76276 0.0
C704 C 0.95171 0.39231 0.83266 0.0
C705 C 0.94773 0.41752 0.82313 0.0
H706 H 0.93673 0.46209 0.80029 0.0
H707 H 0.91601 0.46006 0.76722 0.0
H708 H 0.94095 0.29867 0.82848 0.0
H709 H 0.95615 0.34002 0.84643 0.0
H710 H 0.96042 0.39202 0.8472 0.0
H711 H 0.95342 0.43625 0.83048 0.0
Mn712 Mn 0.66332 0.34862 -0.00038 0.0
Mn713 Mn 0.59554 0.3555 0.99137 0.0
C714 C 0.6463 0.35162 0.96821 0.0
C715 C 0.70687 0.36684 0.00493 0.0
C716 C 0.62189 0.30179 0.00277 0.0
O717 O 0.64939 0.36089 0.02607 0.0
O718 O 0.60479 0.36621 0.01848 0.0
C719 C 0.59226 0.41571 0.99424 0.0
N720 N 0.58794 0.39235 0.98394 0.0
C721 C 0.56863 0.41747 0.95704 0.0
C722 C 0.57274 0.44179 0.96741 0.0
C723 C 0.58467 0.4409 0.98606 0.0
C724 C 0.57664 0.39298 0.96593 0.0
H725 H 0.60146 0.41511 0.00857 0.0
C726 C 0.62495 0.36732 0.03052 0.0
O727 O 0.70082 0.34209 0.01008 0.0
O728 O 0.68723 0.38145 0.99755 0.0
N729 N 0.58378 0.34603 0.96562 0.0
C730 C 0.58224 0.32086 0.95726 0.0
C731 C 0.5713 0.31824 0.93839 0.0
C732 C 0.56186 0.34147 0.9284 0.0
C733 C 0.56331 0.3671 0.93741 0.0
C734 C 0.57424 0.36842 0.95628 0.0
H735 H 0.58941 0.30293 0.96488 0.0
O736 O 0.6699 0.34049 0.97155 0.0
O737 O 0.63341 0.36057 0.98329 0.0
O738 O 0.64631 0.31082 0.00357 0.0
O739 O 0.60136 0.31679 0.99848 0.0
C740 C 0.5547 0.39144 0.92831 0.0
C741 C 0.55737 0.4166 0.93811 0.0
H742 H 0.567 0.46126 0.96113 0.0
H743 H 0.58802 0.4596 0.99412 0.0
H744 H 0.57023 0.29839 0.93155 0.0
H745 H 0.55367 0.33941 0.91379 0.0
H746 H 0.54634 0.39108 0.91367 0.0
H747 H 0.55105 0.43522 0.93085 0.0
Mn748 Mn 0.6742 0.16004 0.24672 0.0
Mn749 Mn 0.66244 0.09251 0.24104 0.0
C750 C 0.67 0.14147 0.21597 0.0
C751 C 0.65872 0.20473 0.25076 0.0
C752 C 0.71818 0.11542 0.25093 0.0
O753 O 0.66114 0.14878 0.27351 0.0
O754 O 0.65457 0.10382 0.26814 0.0
C755 C 0.60247 0.09523 0.24541 0.0
N756 N 0.62459 0.08805 0.23477 0.0
C757 C 0.59593 0.07087 0.20889 0.0
C758 C 0.57285 0.07793 0.21963 0.0
C759 C 0.57614 0.09022 0.23795 0.0
C760 C 0.62164 0.07646 0.21705 0.0
H761 H 0.6049 0.10481 0.25946 0.0
C762 C 0.65454 0.1249 0.27914 0.0
O763 O 0.68318 0.19752 0.25614 0.0
O764 O 0.6431 0.18581 0.24355 0.0
N765 N 0.66902 0.07831 0.21562 0.0
C766 C 0.69338 0.07268 0.20715 0.0
C767 C 0.6937 0.06006 0.18884 0.0
C768 C 0.669 0.05314 0.1795 0.0
C769 C 0.64421 0.05862 0.18868 0.0
C770 C 0.64519 0.07092 0.20704 0.0
H771 H 0.71243 0.07787 0.21429 0.0
O772 O 0.68268 0.16446 0.21853 0.0
O773 O 0.66011 0.13013 0.23143 0.0
O774 O 0.71068 0.14038 0.25163 0.0
O775 O 0.70189 0.09578 0.24688 0.0
C776 C 0.61856 0.05253 0.18027 0.0
C777 C 0.59444 0.05878 0.19033 0.0
H778 H 0.55251 0.07413 0.21391 0.0
H779 H 0.55842 0.09585 0.24629 0.0
H780 H 0.71293 0.05579 0.18189 0.0
H781 H 0.66932 0.04367 0.16529 0.0
H782 H 0.61716 0.04328 0.166 0.0
H783 H 0.57484 0.05429 0.18362 0.0
H784 H 0.1735 0.87604 0.25308 0.0
H785 H 0.19886 0.94557 0.28749 0.0
H786 H 0.24638 0.9344 0.28189 0.0
H787 H 0.28096 0.90251 0.27018 0.0
H788 H 0.25601 0.83043 0.23867 0.0
H789 H 0.20826 0.84471 0.24052 0.0
C790 C 0.18934 0.88876 0.25944 0.0
C791 C 0.18224 0.91164 0.27076 0.0
C792 C 0.21686 0.88157 0.25688 0.0
C793 C 0.20333 0.92813 0.27842 0.0
C794 C 0.23069 0.92157 0.27543 0.0
C795 C 0.26512 0.89009 0.26348 0.0
C796 C 0.27202 0.86541 0.25433 0.0
C797 C 0.23769 0.89803 0.26508 0.0
C798 C 0.25122 0.84947 0.24586 0.0
C799 C 0.22391 0.85762 0.24693 0.0
H800 H 0.11476 0.67313 0.50603 0.0
H801 H 0.05847 0.69312 0.55185 0.0
H802 H 0.06262 0.74118 0.54407 0.0
H803 H 0.08486 0.77827 0.52607 0.0
H804 H 0.14627 0.75876 0.48398 0.0
H805 H 0.13826 0.70994 0.48904 0.0
C806 C 0.10362 0.68782 0.51461 0.0
C807 C 0.08628 0.67892 0.52957 0.0
C808 C 0.10732 0.71577 0.51089 0.0
C809 C 0.07149 0.69876 0.53993 0.0
C810 C 0.07413 0.72652 0.53569 0.0
C811 C 0.09632 0.76325 0.51794 0.0
C812 C 0.11605 0.77194 0.50465 0.0
C813 C 0.09231 0.73529 0.52144 0.0
C814 C 0.13107 0.75243 0.49437 0.0
C815 C 0.12644 0.72457 0.49721 0.0
H816 H 0.32015 0.58307 0.80183 0.0
H817 H 0.35232 0.63476 0.75663 0.0
H818 H 0.30619 0.64559 0.74572 0.0
H819 H 0.25654 0.64152 0.74945 0.0
H820 H 0.22423 0.58639 0.79219 0.0
H821 H 0.27065 0.57529 0.80336 0.0
C822 C 0.31726 0.59623 0.78932 0.0
C823 C 0.33999 0.60839 0.78036 0.0
C824 C 0.29057 0.60185 0.7827 0.0
C825 C 0.33542 0.62567 0.76427 0.0
C826 C 0.30897 0.63176 0.75789 0.0
C827 C 0.25974 0.62709 0.76122 0.0
C828 C 0.23715 0.61507 0.77022 0.0
C829 C 0.2864 0.6203 0.76716 0.0
C830 C 0.24142 0.59595 0.78514 0.0
C831 C 0.26791 0.58965 0.79152 0.0
H832 H 0.42104 0.81587 0.03058 0.0
H833 H 0.34879 0.85277 0.00545 0.0
H834 H 0.33046 0.80756 0.99792 0.0
H835 H 0.33359 0.75727 0.00065 0.0
H836 H 0.40686 0.72131 0.02494 0.0
H837 H 0.42633 0.76644 0.03007 0.0
C838 C 0.40161 0.81424 0.02297 0.0
C839 C 0.38632 0.8379 0.01878 0.0
C840 C 0.39124 0.78822 0.01857 0.0
C841 C 0.36088 0.835 0.00924 0.0
C842 C 0.35039 0.80911 0.00484 0.0
C843 C 0.35394 0.75933 0.00683 0.0
C844 C 0.36858 0.73588 0.01256 0.0
C845 C 0.36514 0.78552 0.00982 0.0
C846 C 0.39501 0.73894 0.02047 0.0
C847 C 0.4062 0.76479 0.02347 0.0
H848 H 0.17286 0.58272 0.98152 0.0
H849 H 0.14773 0.66153 0.00285 0.0
H850 H 0.19501 0.67209 0.01192 0.0
H851 H 0.24392 0.6589 0.01341 0.0
H852 H 0.26736 0.57893 0.99314 0.0
H853 H 0.22028 0.56884 0.98438 0.0
C854 C 0.17746 0.60201 0.98856 0.0
C855 C 0.15657 0.62119 0.99156 0.0
C856 C 0.20454 0.60783 0.99388 0.0
C857 C 0.16334 0.6464 0.0002 0.0
C858 C 0.1904 0.65244 0.00544 0.0
C859 C 0.23867 0.63932 0.00705 0.0
C860 C 0.25922 0.61976 0.00394 0.0
C861 C 0.21125 0.63338 0.00221 0.0
C862 C 0.25202 0.59436 0.99582 0.0
C863 C 0.22506 0.58852 0.99076 0.0
H864 H 0.39581 0.66529 0.2516 0.0
H865 H 0.46374 0.68696 0.21508 0.0
H866 H 0.45677 0.7348 0.22248 0.0
H867 H 0.42969 0.77115 0.23742 0.0
H868 H 0.35832 0.75016 0.27029 0.0
H869 H 0.3678 0.70158 0.26557 0.0
C870 C 0.40899 0.68032 0.24498 0.0
C871 C 0.43039 0.67196 0.23278 0.0
C872 C 0.40402 0.70817 0.24843 0.0
C873 C 0.44751 0.6922 0.22492 0.0
C874 C 0.44333 0.71983 0.22891 0.0
C875 C 0.4163 0.75592 0.24364 0.0
C876 C 0.39337 0.76421 0.25421 0.0
C877 C 0.42144 0.72807 0.24041 0.0
C878 C 0.37601 0.74427 0.26199 0.0
C879 C 0.38148 0.71651 0.25935 0.0
H880 H 0.33472 0.88385 0.50408 0.0
H881 H 0.30985 0.95161 0.46772 0.0
H882 H 0.26224 0.94107 0.47359 0.0
H883 H 0.22749 0.90989 0.48601 0.0
H884 H 0.25204 0.83934 0.51941 0.0
H885 H 0.29983 0.8534 0.5174 0.0
C886 C 0.31897 0.89632 0.49736 0.0
C887 C 0.3262 0.91847 0.48539 0.0
C888 C 0.29143 0.88944 0.50007 0.0
C889 C 0.30524 0.93471 0.47727 0.0
C890 C 0.27784 0.92851 0.48042 0.0
C891 C 0.24326 0.89779 0.49308 0.0
C892 C 0.23626 0.87358 0.50279 0.0
C893 C 0.27071 0.90555 0.49138 0.0
C894 C 0.25693 0.85801 0.51176 0.0
C895 C 0.28425 0.86603 0.5106 0.0
H896 H 0.13643 0.838 0.74399 0.0
H897 H 0.05263 0.81218 0.73665 0.0
H898 H 0.06554 0.76553 0.74498 0.0
H899 H 0.10122 0.73137 0.75179 0.0
H900 H 0.18445 0.75767 0.76075 0.0
H901 H 0.17091 0.805 0.75494 0.0
C902 C 0.12075 0.82245 0.7447 0.0
C903 C 0.0936 0.82876 0.73934 0.0
C904 C 0.12822 0.79565 0.74976 0.0
C905 C 0.0738 0.80796 0.74017 0.0
C906 C 0.08113 0.78123 0.74505 0.0
C907 C 0.11632 0.74752 0.75273 0.0
C908 C 0.14384 0.74098 0.75649 0.0
C909 C 0.10839 0.77471 0.74941 0.0
C910 C 0.16313 0.76214 0.75786 0.0
C911 C 0.15543 0.78921 0.75444 0.0
H912 H 0.67331 0.39251 0.75668 0.0
H913 H 0.70107 0.46082 0.79138 0.0
H914 H 0.7482 0.44818 0.78562 0.0
H915 H 0.78161 0.41521 0.77381 0.0
H916 H 0.75426 0.34465 0.74152 0.0
H917 H 0.70705 0.3605 0.74352 0.0
C918 C 0.68962 0.40467 0.76301 0.0
C919 C 0.68335 0.42759 0.77452 0.0
C920 C 0.71688 0.39671 0.76026 0.0
C921 C 0.70497 0.44336 0.78219 0.0
C922 C 0.73208 0.43597 0.7791 0.0
C923 C 0.76538 0.40346 0.76697 0.0
C924 C 0.77145 0.37871 0.75761 0.0
C925 C 0.73826 0.41233 0.76858 0.0
C926 C 0.75014 0.36372 0.74888 0.0
C927 C 0.72312 0.37275 0.75005 0.0
H928 H 0.62074 0.17698 0.02612 0.0
H929 H 0.53392 0.18926 0.01979 0.0
H930 H 0.54164 0.23674 0.01024 0.0
H931 H 0.57302 0.27498 0.00449 0.0
H932 H 0.65991 0.26245 0.01125 0.0
H933 H 0.65211 0.21477 0.01958 0.0
C934 C 0.60351 0.1899 0.02235 0.0
C935 C 0.57679 0.17953 0.02359 0.0
C936 C 0.60809 0.21718 0.01701 0.0
C937 C 0.55468 0.19677 0.01907 0.0
C938 C 0.55908 0.2239 0.01357 0.0
C939 C 0.59031 0.26186 0.00772 0.0
C940 C 0.61704 0.2725 0.00728 0.0
C941 C 0.5857 0.23439 0.01264 0.0
C942 C 0.6391 0.25501 0.01151 0.0
C943 C 0.63468 0.22766 0.01628 0.0
H944 H 0.83591 0.06759 0.26809 0.0
H945 H 0.84787 0.14912 0.29049 0.0
H946 H 0.8019 0.1616 0.28011 0.0
H947 H 0.75734 0.14887 0.26635 0.0
H948 H 0.74436 0.06666 0.24554 0.0
H949 H 0.7914 0.05498 0.25395 0.0
C950 C 0.82847 0.08807 0.27079 0.0
C951 C 0.84556 0.10733 0.28004 0.0
C952 C 0.80165 0.095 0.26522 0.0
C953 C 0.83554 0.13392 0.28309 0.0
C954 C 0.80906 0.14105 0.27733 0.0
C955 C 0.76479 0.12842 0.26352 0.0
C956 C 0.74717 0.10871 0.25537 0.0
C957 C 0.79183 0.12168 0.26859 0.0
C958 C 0.7573 0.08228 0.2519 0.0
C959 C 0.78427 0.07555 0.25668 0.0
H960 H 0.88406 0.33834 0.51231 0.0
H961 H 0.95307 0.30811 0.5455 0.0
H962 H 0.9391 0.26136 0.53883 0.0
H963 H 0.90496 0.229 0.52644 0.0
H964 H 0.83424 0.25902 0.49518 0.0
H965 H 0.85105 0.30577 0.49843 0.0
C966 C 0.89608 0.32155 0.51808 0.0
C967 C 0.91956 0.32693 0.52946 0.0
C968 C 0.88747 0.29458 0.51471 0.0
C969 C 0.93514 0.30478 0.53646 0.0
C970 C 0.92701 0.27793 0.53283 0.0
C971 C 0.89339 0.24573 0.52011 0.0
C972 C 0.8683 0.24054 0.51069 0.0
C973 C 0.90289 0.2726 0.52236 0.0
C974 C 0.85355 0.26246 0.5026 0.0
C975 C 0.86313 0.28922 0.50447 0.0
H976 H 0.66737 0.13738 0.47522 0.0
H977 H 0.66972 0.05146 0.48905 0.0
H978 H 0.71675 0.05616 0.50082 0.0
H979 H 0.75758 0.08452 0.50644 0.0
H980 H 0.75424 0.1707 0.49322 0.0
H981 H 0.70703 0.16602 0.48237 0.0
C982 C 0.67791 0.11973 0.48115 0.0
C983 C 0.66493 0.0941 0.48121 0.0
C984 C 0.70484 0.12259 0.48799 0.0
C985 C 0.67927 0.07138 0.48858 0.0
C986 C 0.70614 0.07407 0.4954 0.0
C987 C 0.74654 0.10231 0.50123 0.0
C988 C 0.75963 0.1279 0.50059 0.0
C989 C 0.71923 0.09954 0.495 0.0
C990 C 0.74481 0.15073 0.49392 0.0
C991 C 0.71776 0.1481 0.48765 0.0
H992 H 0.88485 0.18079 0.72852 0.0
H993 H 0.96727 0.18397 0.75129 0.0
H994 H 0.9599 0.23091 0.76203 0.0
H995 H 0.93028 0.27147 0.76427 0.0
H996 H 0.84733 0.26693 0.74252 0.0
H997 H 0.85461 0.21986 0.73253 0.0
C998 C 0.9011 0.19142 0.7362 0.0
C999 C 0.92661 0.17868 0.73905 0.0
C1000 C 0.89665 0.21826 0.74253 0.0
C1001 C 0.94754 0.19328 0.74863 0.0
C1002 C 0.9433 0.22012 0.75487 0.0
C1003 C 0.91376 0.26017 0.7574 0.0
C1004 C 0.88833 0.27289 0.7541 0.0
C1005 C 0.918 0.23291 0.75174 0.0
C1006 C 0.86711 0.25777 0.74531 0.0
C1007 C 0.87126 0.23081 0.73952 0.0
H1008 H 0.83317 0.385 0.9975 0.0
H1009 H 0.80638 0.46647 0.98266 0.0
H1010 H 0.75931 0.45362 0.98937 0.0
H1011 H 0.72532 0.41821 0.9971 0.0
H1012 H 0.7528 0.33751 0.01318 0.0
H1013 H 0.80011 0.35151 0.00897 0.0
C1014 C 0.81728 0.4003 0.99621 0.0
C1015 C 0.82356 0.42666 0.98932 0.0
C1016 C 0.79025 0.3929 0.00031 0.0
C1017 C 0.80229 0.44585 0.98748 0.0
C1018 C 0.7753 0.43857 0.99143 0.0
C1019 C 0.74168 0.4038 -4e-05 0.0
C1020 C 0.73546 0.37676 0.00528 0.0
C1021 C 0.76896 0.41197 0.99745 0.0
C1022 C 0.75694 0.35842 0.00904 0.0
C1023 C 0.78405 0.36637 0.00654 0.0
H1024 H 0.64229 0.33242 0.25299 0.0
H1025 H 0.57192 0.31022 0.21799 0.0
H1026 H 0.58171 0.26216 0.22327 0.0
H1027 H 0.61254 0.22629 0.23499 0.0
H1028 H 0.68494 0.24805 0.26775 0.0
H1029 H 0.67227 0.29628 0.2659 0.0
C1030 C 0.62906 0.31712 0.24649 0.0
C1031 C 0.60639 0.32522 0.23506 0.0
C1032 C 0.63535 0.28931 0.24898 0.0
C1033 C 0.58924 0.30489 0.22713 0.0
C1034 C 0.595 0.27725 0.22994 0.0
C1035 C 0.6254 0.24153 0.24194 0.0
C1036 C 0.64972 0.23357 0.25141 0.0
C1037 C 0.61831 0.26924 0.24046 0.0
C1038 C 0.66617 0.25362 0.26029 0.0
C1039 C 0.65895 0.28122 0.25921 0.0
H1040 H 0.10479 0.92314 0.39572 0.0
H1041 H 0.09968 0.84282 0.37035 0.0
H1042 H 0.11429 0.82236 0.40122 0.0
H1043 H 0.13006 0.82757 0.43529 0.0
H1044 H 0.13365 0.90784 0.46069 0.0
H1045 H 0.1187 0.92822 0.4299 0.0
C1046 C 0.10693 0.90116 0.39698 0.0
C1047 C 0.10135 0.88451 0.38081 0.0
C1048 C 0.11531 0.88961 0.41471 0.0
C1049 C 0.10373 0.85603 0.38267 0.0
C1050 C 0.11228 0.84435 0.40025 0.0
C1051 C 0.12738 0.84948 0.43398 0.0
C1052 C 0.13225 0.86624 0.45015 0.0
C1053 C 0.11836 0.86096 0.41632 0.0
C1054 C 0.12931 0.89462 0.44841 0.0
C1055 C 0.1209 0.90624 0.43084 0.0
H1056 H 0.16011 0.60064 0.63918 0.0
H1057 H 0.07553 0.62381 0.64681 0.0
H1058 H 0.08601 0.63901 0.67943 0.0
H1059 H 0.119 0.6463 0.70602 0.0
H1060 H 0.20433 0.6312 0.69657 0.0
H1061 H 0.19391 0.6139 0.66381 0.0
C1062 C 0.14385 0.60967 0.6475 0.0
C1063 C 0.1168 0.61029 0.64012 0.0
C1064 C 0.15024 0.6203 0.66594 0.0
C1065 C 0.09635 0.62169 0.65191 0.0
C1066 C 0.10236 0.63099 0.67063 0.0
C1067 C 0.13523 0.63918 0.6967 0.0
C1068 C 0.16219 0.63888 0.70369 0.0
C1069 C 0.12916 0.63025 0.6778 0.0
C1070 C 0.18334 0.63082 0.69145 0.0
C1071 C 0.17737 0.62103 0.6728 0.0
H1072 H 0.37729 0.59379 0.8959 0.0
H1073 H 0.43608 0.6592 0.90087 0.0
H1074 H 0.41903 0.67041 0.93304 0.0
H1075 H 0.38884 0.66013 0.96066 0.0
H1076 H 0.33398 0.59152 0.95668 0.0
H1077 H 0.34838 0.58279 0.92339 0.0
C1078 C 0.38676 0.61025 0.90405 0.0
C1079 C 0.40807 0.62549 0.89583 0.0
C1080 C 0.37754 0.61602 0.92282 0.0
C1081 C 0.4194 0.64727 0.90659 0.0
C1082 C 0.4098 0.65362 0.9251 0.0
C1083 C 0.37993 0.64349 0.95235 0.0
C1084 C 0.36033 0.62655 0.96094 0.0
C1085 C 0.38901 0.638 0.93343 0.0
C1086 C 0.34915 0.60476 0.95027 0.0
C1087 C 0.35737 0.59976 0.93128 0.0
H1088 H 0.36944 0.89356 0.13767 0.0
H1089 H 0.45711 0.89346 0.14424 0.0
H1090 H 0.45303 0.87755 0.17771 0.0
H1091 H 0.42474 0.86455 0.20516 0.0
H1092 H 0.33694 0.86403 0.19886 0.0
H1093 H 0.34092 0.87927 0.16518 0.0
C1094 C 0.38761 0.89016 0.1465 0.0
C1095 C 0.41354 0.89475 0.13854 0.0
C1096 C 0.38511 0.88089 0.16572 0.0
C1097 C 0.43694 0.88988 0.15 0.0
C1098 C 0.43462 0.88089 0.16915 0.0
C1099 C 0.4064 0.86773 0.19647 0.0
C1100 C 0.38056 0.86325 0.20463 0.0
C1101 C 0.40883 0.87642 0.17716 0.0
C1102 C 0.3571 0.86725 0.193 0.0
C1103 C 0.35935 0.87606 0.17374 0.0
H1104 H 0.06811 0.60718 0.85713 0.0
H1105 H 0.14242 0.6299 0.8871 0.0
H1106 H 0.16335 0.64222 0.85619 0.0
H1107 H 0.1611 0.64461 0.82033 0.0
H1108 H 0.08788 0.61832 0.79051 0.0
H1109 H 0.06574 0.60979 0.82153 0.0
C1110 C 0.0888 0.61504 0.85685 0.0
C1111 C 0.10374 0.61762 0.87429 0.0
C1112 C 0.10083 0.62156 0.83903 0.0
C1113 C 0.13065 0.62752 0.87379 0.0
C1114 C 0.14256 0.63467 0.85615 0.0
C1115 C 0.14016 0.63744 0.82073 0.0
C1116 C 0.12598 0.63232 0.80326 0.0
C1117 C 0.12793 0.63157 0.83865 0.0
C1118 C 0.0991 0.62246 0.80383 0.0
C1119 C 0.08648 0.6175 0.82154 0.0
H1120 H 0.36037 0.60725 0.13119 0.0
H1121 H 0.44168 0.59718 0.10873 0.0
H1122 H 0.42643 0.61422 0.07717 0.0
H1123 H 0.38987 0.63095 0.05565 0.0
H1124 H 0.30832 0.63973 0.07734 0.0
H1125 H 0.32366 0.62396 0.10955 0.0
C1126 C 0.37469 0.60842 0.11934 0.0
C1127 C 0.40217 0.60096 0.12241 0.0
C1128 C 0.3657 0.61786 0.10109 0.0
C1129 C 0.42054 0.60319 0.10694 0.0
C1130 C 0.41182 0.61283 0.08883 0.0
C1131 C 0.37547 0.62906 0.06743 0.0
C1132 C 0.3479 0.63541 0.06416 0.0
C1133 C 0.38446 0.62004 0.08573 0.0
C1134 C 0.32953 0.63423 0.07958 0.0
C1135 C 0.33831 0.62526 0.09791 0.0
H1136 H 0.40115 0.92105 0.36017 0.0
H1137 H 0.40783 0.84248 0.38807 0.0
H1138 H 0.39306 0.81991 0.35801 0.0
H1139 H 0.37723 0.82273 0.32379 0.0
H1140 H 0.37215 0.90133 0.29592 0.0
H1141 H 0.38658 0.92382 0.32605 0.0
C1142 C 0.39925 0.899 0.35967 0.0
C1143 C 0.40542 0.88346 0.3763 0.0
C1144 C 0.39076 0.88623 0.3424 0.0
C1145 C 0.40336 0.85486 0.37538 0.0
C1146 C 0.39471 0.84197 0.35827 0.0
C1147 C 0.37941 0.84474 0.32443 0.0
C1148 C 0.37432 0.86043 0.30774 0.0
C1149 C 0.38819 0.85746 0.34172 0.0
C1150 C 0.37663 0.88894 0.30862 0.0
C1151 C 0.38476 0.90177 0.32581 0.0
H1152 H 0.13848 0.91015 0.61817 0.0
H1153 H 0.05558 0.87996 0.61869 0.0
H1154 H 0.06017 0.86384 0.58554 0.0
H1155 H 0.08714 0.85882 0.55614 0.0
H1156 H 0.17105 0.88539 0.55598 0.0
H1157 H 0.16685 0.90162 0.58948 0.0
C1158 C 0.1215 0.89971 0.6112 0.0
C1159 C 0.09652 0.89688 0.62096 0.0
C1160 C 0.12448 0.88966 0.5922 0.0
C1161 C 0.07478 0.88337 0.61146 0.0
C1162 C 0.07744 0.87381 0.59251 0.0
C1163 C 0.10455 0.86811 0.56345 0.0
C1164 C 0.12928 0.87114 0.55357 0.0
C1165 C 0.10207 0.87706 0.58269 0.0
C1166 C 0.15179 0.88279 0.56332 0.0
C1167 C 0.14935 0.89218 0.58242 0.0
H1168 H 0.61333 0.37104 0.88049 0.0
H1169 H 0.6101 0.45417 0.90092 0.0
H1170 H 0.62401 0.43933 0.93349 0.0
H1171 H 0.63628 0.40265 0.95624 0.0
H1172 H 0.64133 0.31971 0.93595 0.0
H1173 H 0.62778 0.33441 0.90308 0.0
C1174 C 0.61556 0.38581 0.89214 0.0
C1175 C 0.61057 0.41361 0.88843 0.0
C1176 C 0.62394 0.37716 0.91073 0.0
C1177 C 0.61395 0.43269 0.90349 0.0
C1178 C 0.62192 0.42423 0.92206 0.0
C1179 C 0.63424 0.38786 0.94457 0.0
C1180 C 0.63874 0.36011 0.94842 0.0
C1181 C 0.62682 0.39654 0.92585 0.0
C1182 C 0.63728 0.34112 0.93322 0.0
C1183 C 0.62955 0.34953 0.91452 0.0
H1184 H 0.65096 0.09926 0.13088 0.0
H1185 H 0.56709 0.11584 0.14634 0.0
H1186 H 0.58197 0.12953 0.17848 0.0
H1187 H 0.61865 0.13746 0.20247 0.0
H1188 H 0.70244 0.12874 0.18547 0.0
H1189 H 0.68769 0.11302 0.15313 0.0
C1190 C 0.63569 0.10652 0.14085 0.0
C1191 C 0.60766 0.10584 0.13573 0.0
C1192 C 0.64444 0.11628 0.15908 0.0
C1193 C 0.58868 0.11486 0.14961 0.0
C1194 C 0.59719 0.12329 0.16808 0.0
C1195 C 0.63359 0.13207 0.19161 0.0
C1196 C 0.66149 0.13311 0.19635 0.0
C1197 C 0.62496 0.12398 0.17298 0.0
C1198 C 0.68083 0.12734 0.18211 0.0
C1199 C 0.67238 0.11841 0.16369 0.0
H1200 H 0.89236 0.13884 0.39276 0.0
H1201 H 0.92501 0.05993 0.4086 0.0
H1202 H 0.90763 0.06522 0.4414 0.0
H1203 H 0.88315 0.09193 0.46553 0.0
H1204 H 0.85183 0.17164 0.45041 0.0
H1205 H 0.86917 0.16649 0.41746 0.0
C1206 C 0.89598 0.12294 0.40344 0.0
C1207 C 0.90983 0.09892 0.39811 0.0
C1208 C 0.8862 0.12623 0.42241 0.0
C1209 C 0.91399 0.0784 0.41213 0.0
C1210 C 0.90421 0.08147 0.43096 0.0
C1211 C 0.88 0.1082 0.45505 0.0
C1212 C 0.86602 0.13207 0.46046 0.0
C1213 C 0.89017 0.10521 0.43621 0.0
C1214 C 0.86249 0.15304 0.44669 0.0
C1215 C 0.87238 0.1501 0.42782 0.0
H1216 H 0.88122 0.40262 0.64283 0.0
H1217 H 0.96791 0.4014 0.65449 0.0
H1218 H 0.95969 0.38849 0.68819 0.0
H1219 H 0.92818 0.37694 0.71406 0.0
H1220 H 0.8413 0.3771 0.70267 0.0
H1221 H 0.84933 0.39118 0.66913 0.0
C1222 C 0.89826 0.39976 0.65283 0.0
C1223 C 0.92514 0.40293 0.6462 0.0
C1224 C 0.89338 0.39209 0.67217 0.0
C1225 C 0.94706 0.39882 0.65922 0.0
C1226 C 0.94237 0.39153 0.67848 0.0
C1227 C 0.9109 0.38011 0.70432 0.0
C1228 C 0.88415 0.37593 0.71097 0.0
C1229 C 0.91565 0.38797 0.68507 0.0
C1230 C 0.86212 0.38007 0.698 0.0
C1231 C 0.86669 0.38816 0.67881 0.0
H1232 H 0.62867 0.08591 0.36386 0.0
H1233 H 0.57297 0.15415 0.36064 0.0
H1234 H 0.59045 0.16611 0.3287 0.0
H1235 H 0.6199 0.15561 0.30069 0.0
H1236 H 0.67143 0.08434 0.30291 0.0
H1237 H 0.65689 0.07486 0.33606 0.0
C1238 C 0.61994 0.10318 0.35614 0.0
C1239 C 0.59934 0.11893 0.36476 0.0
C1240 C 0.62935 0.10938 0.33749 0.0
C1241 C 0.58906 0.14176 0.35459 0.0
C1242 C 0.5989 0.14853 0.33621 0.0
C1243 C 0.62807 0.13821 0.30858 0.0
C1244 C 0.64675 0.12073 0.29952 0.0
C1245 C 0.61888 0.13233 0.32742 0.0
C1246 C 0.65697 0.09799 0.30967 0.0
C1247 C 0.64867 0.09258 0.32858 0.0
H1248 H 0.85982 0.10944 0.62986 0.0
H1249 H 0.9418 0.10286 0.60815 0.0
H1250 H 0.92631 0.11871 0.57625 0.0
H1251 H 0.88969 0.13484 0.5546 0.0
H1252 H 0.80778 0.1422 0.57586 0.0
H1253 H 0.8229 0.12573 0.60797 0.0
C1254 C 0.87419 0.11118 0.61806 0.0
C1255 C 0.90193 0.10502 0.62136 0.0
C1256 C 0.86516 0.12051 0.59976 0.0
C1257 C 0.92041 0.10776 0.60603 0.0
C1258 C 0.91159 0.11681 0.5878 0.0
C1259 C 0.87516 0.13252 0.56626 0.0
C1260 C 0.84758 0.13876 0.56289 0.0
C1261 C 0.88407 0.12331 0.58453 0.0
C1262 C 0.82903 0.13689 0.57818 0.0
C1263 C 0.83768 0.1275 0.59645 0.0
H1264 H 0.88807 0.42192 0.86843 0.0
H1265 H 0.91134 0.34244 0.89069 0.0
H1266 H 0.89497 0.32143 0.8609 0.0
H1267 H 0.87595 0.3255 0.82748 0.0
H1268 H 0.86243 0.40563 0.80347 0.0
H1269 H 0.87401 0.4265 0.83473 0.0
C1270 C 0.89048 0.40009 0.86689 0.0
C1271 C 0.90097 0.38416 0.88236 0.0
C1272 C 0.88279 0.38811 0.84916 0.0
C1273 C 0.90266 0.35563 0.87965 0.0
C1274 C 0.89352 0.3434 0.8624 0.0
C1275 C 0.87566 0.3475 0.82922 0.0
C1276 C 0.86872 0.36413 0.81333 0.0
C1277 C 0.88369 0.35944 0.84699 0.0
C1278 C 0.86809 0.39257 0.81558 0.0
C1279 C 0.87466 0.40447 0.83341 0.0
H1280 H 0.5782 0.40109 0.11204 0.0
H1281 H 0.66382 0.40917 0.12595 0.0
H1282 H 0.67545 0.39616 0.09268 0.0
H1283 H 0.66104 0.38114 0.05978 0.0
H1284 H 0.57488 0.37359 0.04661 0.0
H1285 H 0.56387 0.38744 0.07942 0.0
C1286 C 0.59942 0.39989 0.10781 0.0
C1287 C 0.6201 0.40587 0.12145 0.0
C1288 C 0.6059 0.39235 0.08878 0.0
C1289 C 0.6475 0.40478 0.11567 0.0
C1290 C 0.65416 0.39719 0.09668 0.0
C1291 C 0.63987 0.38251 0.0641 0.0
C1292 C 0.61891 0.37618 0.05064 0.0
C1293 C 0.6335 0.39071 0.08313 0.0
C1294 C 0.59155 0.37831 0.05652 0.0
C1295 C 0.58514 0.38623 0.07535 0.0
loop_
_geom_bond_atom_site_label_1
_geom_bond_atom_site_label_2
_geom_bond_distance
_geom_bond_site_symmetry_2
_ccdc_geom_bond_type
H0 C27 0.929 . S
N1 C26 1.433 . S
N1 C32 1.435 . S
N1 C38 1.423 . S
H2 C28 0.930 . S
H3 C31 0.931 . S
H4 C30 0.929 . S
H5 C33 0.930 . S
H6 C34 0.932 . S
H7 C37 0.929 . S
H8 C36 0.931 . S
H9 C39 0.929 . S
H10 C43 0.932 . S
H11 C40 0.931 . S
H12 C42 0.929 . S
H13 C45 0.929 . S
H14 C46 0.930 . S
H15 C48 0.929 . S
H16 C49 0.931 . S
H17 C51 0.930 . S
H18 C52 0.932 . S
H19 C54 0.931 . S
H20 C55 0.929 . S
H21 C57 0.929 . S
H22 C58 0.924 1_455 S
H23 C60 0.929 . S
N24 C44 1.433 . S
N24 C50 1.435 . S
N24 C56 1.423 . S
H25 C61 0.932 . S
C26 N1 1.433 . S
C26 C27 1.363 . S
C26 C31 1.370 . S
C27 H0 0.929 . S
C27 C26 1.363 . S
C27 C28 1.385 . S
C28 H2 0.930 . S
C28 C27 1.385 . S
C28 C29 1.357 . S
C29 C28 1.357 . S
C29 C30 1.406 . S
C30 H4 0.929 . S
C30 C29 1.406 . S
C30 C31 1.391 . S
C31 H3 0.931 . S
C31 C26 1.370 . S
C31 C30 1.391 . S
C32 N1 1.435 . S
C32 C33 1.358 . S
C32 C37 1.371 . S
C33 H5 0.930 . S
C33 C32 1.358 . S
C33 C34 1.405 . S
C34 H6 0.932 . S
C34 C33 1.405 . S
C34 C35 1.383 . S
C35 C34 1.383 . S
C35 C36 1.393 . S
C36 H8 0.931 . S
C36 C35 1.393 . S
C36 C37 1.382 . S
C37 H7 0.929 . S
C37 C32 1.371 . S
C37 C36 1.382 . S
C38 N1 1.423 . S
C38 C39 1.362 . S
C38 C43 1.388 . S
C39 H9 0.929 . S
C39 C38 1.362 . S
C39 C40 1.376 1_565 S
C40 H11 0.931 . S
C40 C39 1.376 1_545 S
C40 C41 1.396 . S
C41 C40 1.396 . S
C41 C42 1.348 1_545 S
C41 C59 1.472 . S
C42 H12 0.929 . S
C42 C41 1.348 1_565 S
C42 C43 1.443 . S
C43 H10 0.932 . S
C43 C38 1.388 . S
C43 C42 1.443 . S
C44 N24 1.433 . S
C44 C45 1.363 . S
C44 C49 1.370 . S
C45 H13 0.929 . S
C45 C44 1.363 . S
C45 C46 1.385 . S
C46 H14 0.930 . S
C46 C45 1.385 . S
C46 C47 1.357 . S
C47 C46 1.357 . S
C47 C48 1.406 . S
C48 H15 0.929 . S
C48 C47 1.406 . S
C48 C49 1.391 . S
C49 H16 0.931 . S
C49 C44 1.370 . S
C49 C48 1.391 . S
C50 N24 1.435 . S
C50 C51 1.358 . S
C50 C55 1.371 . S
C51 H17 0.930 . S
C51 C50 1.358 . S
C51 C52 1.405 . S
C52 H18 0.932 . S
C52 C51 1.405 . S
C52 C53 1.383 . S
C53 C52 1.383 . S
C53 C54 1.393 . S
C54 H19 0.931 . S
C54 C53 1.393 . S
C54 C55 1.382 . S
C55 H20 0.929 . S
C55 C50 1.371 . S
C55 C54 1.382 . S
C56 N24 1.423 . S
C56 C57 1.362 . S
C56 C61 1.388 . S
C57 H21 0.929 . S
C57 C56 1.362 . S
C57 C58 1.384 . S
C58 H22 0.924 1_655 S
C58 C57 1.384 . S
C58 C59 1.395 1_655 S
C59 C41 1.472 . S
C59 C58 1.395 1_455 S
C59 C60 1.348 1_455 S
C60 H23 0.929 . S
C60 C59 1.348 1_655 S
C60 C61 1.443 . S
C61 H25 0.932 . S
C61 C56 1.388 . S
C61 C60 1.443 . S
H62 C89 0.929 . S
N63 C88 1.433 . S
N63 C94 1.435 . S
N63 C100 1.423 . S
H64 C90 0.930 . S
H65 C93 0.931 . S
H66 C92 0.929 . S
H67 C95 0.930 . S
H68 C96 0.932 . S
H69 C99 0.929 . S
H70 C98 0.931 . S
H71 C101 0.929 . S
H72 C105 0.932 . S
H73 C102 0.931 . S
H74 C104 0.929 . S
H75 C107 0.929 . S
H76 C108 0.930 . S
H77 C110 0.929 . S
H78 C111 0.931 . S
H79 C113 0.930 . S
H80 C114 0.932 . S
H81 C116 0.931 . S
H82 C117 0.929 . S
H83 C119 0.929 . S
H84 C120 0.931 . S
H85 C122 0.929 . S
N86 C106 1.433 . S
N86 C112 1.435 . S
N86 C118 1.423 . S
H87 C123 0.932 . S
C88 N63 1.433 . S
C88 C89 1.363 . S
C88 C93 1.370 . S
C89 H62 0.929 . S
C89 C88 1.363 . S
C89 C90 1.385 . S
C90 H64 0.930 . S
C90 C89 1.385 . S
C90 C91 1.357 . S
C91 C90 1.357 . S
C91 C92 1.406 . S
C92 H66 0.929 . S
C92 C91 1.406 . S
C92 C93 1.391 . S
C93 H65 0.931 . S
C93 C88 1.370 . S
C93 C92 1.391 . S
C94 N63 1.435 . S
C94 C95 1.358 . S
C94 C99 1.371 . S
C95 H67 0.930 . S
C95 C94 1.358 . S
C95 C96 1.405 . S
C96 H68 0.932 . S
C96 C95 1.405 . S
C96 C97 1.383 . S
C97 C96 1.383 . S
C97 C98 1.393 . S
C98 H70 0.931 . S
C98 C97 1.393 . S
C98 C99 1.382 . S
C99 H69 0.929 . S
C99 C94 1.371 . S
C99 C98 1.382 . S
C100 N63 1.423 . S
C100 C101 1.362 . S
C100 C105 1.388 . S
C101 H71 0.929 . S
C101 C100 1.362 . S
C101 C102 1.376 1_655 S
C102 H73 0.931 . S
C102 C101 1.376 1_455 S
C102 C103 1.396 . S
C103 C102 1.396 . S
C103 C104 1.348 1_455 S
C103 C121 1.472 . S
C104 H74 0.929 . S
C104 C103 1.348 1_655 S
C104 C105 1.443 . S
C105 H72 0.932 . S
C105 C100 1.388 . S
C105 C104 1.443 . S
C106 N86 1.433 . S
C106 C107 1.363 . S
C106 C111 1.370 . S
C107 H75 0.929 . S
C107 C106 1.363 . S
C107 C108 1.385 . S
C108 H76 0.930 . S
C108 C107 1.385 . S
C108 C109 1.357 . S
C109 C108 1.357 . S
C109 C110 1.406 . S
C110 H77 0.929 . S
C110 C109 1.406 . S
C110 C111 1.391 . S
C111 H78 0.931 . S
C111 C106 1.370 . S
C111 C110 1.391 . S
C112 N86 1.435 . S
C112 C113 1.358 . S
C112 C117 1.371 . S
C113 H79 0.930 . S
C113 C112 1.358 . S
C113 C114 1.405 . S
C114 H80 0.932 . S
C114 C113 1.405 . S
C114 C115 1.383 . S
C115 C114 1.383 . S
C115 C116 1.393 . S
C116 H81 0.931 . S
C116 C115 1.393 . S
C116 C117 1.382 . S
C117 H82 0.929 . S
C117 C112 1.371 . S
C117 C116 1.382 . S
C118 N86 1.423 . S
C118 C119 1.362 . S
C118 C123 1.388 . S
C119 H83 0.929 . S
C119 C118 1.362 . S
C119 C120 1.376 . S
C120 H84 0.931 . S
C120 C119 1.376 . S
C120 C121 1.396 . S
C121 C103 1.472 . S
C121 C120 1.396 . S
C121 C122 1.348 . S
C122 H85 0.929 . S
C122 C121 1.348 . S
C122 C123 1.443 . S
C123 H87 0.932 . S
C123 C118 1.388 . S
C123 C122 1.443 . S
H124 C151 0.929 . S
N125 C150 1.433 . S
N125 C156 1.435 . S
N125 C162 1.423 . S
H126 C152 0.930 . S
H127 C155 0.931 . S
H128 C154 0.929 . S
H129 C157 0.930 . S
H130 C158 0.932 . S
H131 C161 0.929 . S
H132 C160 0.931 . S
H133 C163 0.929 . S
H134 C167 0.932 . S
H135 C164 0.931 . S
H136 C166 0.929 . S
H137 C169 0.929 . S
H138 C170 0.930 . S
H139 C172 0.929 . S
H140 C173 0.931 . S
H141 C175 0.930 . S
H142 C176 0.932 . S
H143 C178 0.931 . S
H144 C179 0.929 . S
H145 C181 0.929 . S
H146 C182 0.931 . S
H147 C184 0.929 . S
N148 C168 1.433 . S
N148 C174 1.435 . S
N148 C180 1.423 . S
H149 C185 0.932 . S
C150 N125 1.433 . S
C150 C151 1.363 . S
C150 C155 1.370 . S
C151 H124 0.929 . S
C151 C150 1.363 . S
C151 C152 1.385 . S
C152 H126 0.930 . S
C152 C151 1.385 . S
C152 C153 1.357 . S
C153 C152 1.357 . S
C153 C154 1.406 . S
C154 H128 0.929 . S
C154 C153 1.406 . S
C154 C155 1.391 . S
C155 H127 0.931 . S
C155 C150 1.370 . S
C155 C154 1.391 . S
C156 N125 1.435 . S
C156 C157 1.358 . S
C156 C161 1.371 . S
C157 H129 0.930 . S
C157 C156 1.358 . S
C157 C158 1.405 . S
C158 H130 0.932 . S
C158 C157 1.405 . S
C158 C159 1.383 . S
C159 C158 1.383 . S
C159 C160 1.393 . S
C160 H132 0.931 . S
C160 C159 1.393 . S
C160 C161 1.382 . S
C161 H131 0.929 . S
C161 C156 1.371 . S
C161 C160 1.382 . S
C162 N125 1.423 . S
C162 C163 1.362 . S
C162 C167 1.388 . S
C163 H133 0.929 . S
C163 C162 1.362 . S
C163 C164 1.376 . S
C164 H135 0.931 . S
C164 C163 1.376 . S
C164 C165 1.396 . S
C165 C164 1.396 . S
C165 C166 1.348 . S
C165 C183 1.472 . S
C166 H136 0.929 . S
C166 C165 1.348 . S
C166 C167 1.443 . S
C167 H134 0.932 . S
C167 C162 1.388 . S
C167 C166 1.443 . S
C168 N148 1.433 . S
C168 C169 1.363 . S
C168 C173 1.370 . S
C169 H137 0.929 . S
C169 C168 1.363 . S
C169 C170 1.385 . S
C170 H138 0.930 . S
C170 C169 1.385 . S
C170 C171 1.357 . S
C171 C170 1.357 . S
C171 C172 1.406 . S
C172 H139 0.929 . S
C172 C171 1.406 . S
C172 C173 1.391 . S
C173 H140 0.931 . S
C173 C168 1.370 . S
C173 C172 1.391 . S
C174 N148 1.435 . S
C174 C175 1.358 . S
C174 C179 1.371 . S
C175 H141 0.930 . S
C175 C174 1.358 . S
C175 C176 1.405 . S
C176 H142 0.932 . S
C176 C175 1.405 . S
C176 C177 1.383 . S
C177 C176 1.383 . S
C177 C178 1.393 . S
C178 H143 0.931 . S
C178 C177 1.393 . S
C178 C179 1.382 . S
C179 H144 0.929 . S
C179 C174 1.371 . S
C179 C178 1.382 . S
C180 N148 1.423 . S
C180 C181 1.362 . S
C180 C185 1.388 . S
C181 H145 0.929 . S
C181 C180 1.362 . S
C181 C182 1.376 . S
C182 H146 0.931 . S
C182 C181 1.376 . S
C182 C183 1.396 . S
C183 C165 1.472 . S
C183 C182 1.396 . S
C183 C184 1.348 . S
C184 H147 0.929 . S
C184 C183 1.348 . S
C184 C185 1.443 . S
C185 H149 0.932 . S
C185 C180 1.388 . S
C185 C184 1.443 . S
H186 C213 0.929 . S
N187 C212 1.433 . S
N187 C218 1.435 . S
N187 C224 1.423 . S
H188 C214 0.930 . S
H189 C217 0.931 . S
H190 C216 0.929 . S
H191 C219 0.930 . S
H192 C220 0.932 . S
H193 C223 0.929 . S
H194 C222 0.931 . S
H195 C225 0.929 . S
H196 C229 0.932 . S
H197 C226 0.931 . S
H198 C228 0.929 . S
H199 C231 0.929 . S
H200 C232 0.930 . S
H201 C234 0.929 . S
H202 C235 0.931 . S
H203 C237 0.930 . S
H204 C238 0.932 . S
H205 C240 0.931 . S
H206 C241 0.929 . S
H207 C243 0.929 . S
H208 C244 0.931 1_565 S
H209 C246 0.929 . S
N210 C230 1.433 . S
N210 C236 1.435 . S
N210 C242 1.423 . S
H211 C247 0.932 . S
C212 N187 1.433 . S
C212 C213 1.363 . S
C212 C217 1.370 . S
C213 H186 0.929 . S
C213 C212 1.363 . S
C213 C214 1.385 . S
C214 H188 0.930 . S
C214 C213 1.385 . S
C214 C215 1.357 . S
C215 C214 1.357 . S
C215 C216 1.406 . S
C216 H190 0.929 . S
C216 C215 1.406 . S
C216 C217 1.391 . S
C217 H189 0.931 . S
C217 C212 1.370 . S
C217 C216 1.391 . S
C218 N187 1.435 . S
C218 C219 1.358 . S
C218 C223 1.371 . S
C219 H191 0.930 . S
C219 C218 1.358 . S
C219 C220 1.405 . S
C220 H192 0.932 . S
C220 C219 1.405 . S
C220 C221 1.383 . S
C221 C220 1.383 . S
C221 C222 1.393 . S
C222 H194 0.931 . S
C222 C221 1.393 . S
C222 C223 1.382 . S
C223 H193 0.929 . S
C223 C218 1.371 . S
C223 C222 1.382 . S
C224 N187 1.423 . S
C224 C225 1.362 . S
C224 C229 1.388 . S
C225 H195 0.929 . S
C225 C224 1.362 . S
C225 C226 1.376 . S
C226 H197 0.931 . S
C226 C225 1.376 . S
C226 C227 1.396 . S
C227 C226 1.396 . S
C227 C228 1.348 . S
C227 C245 1.472 1_565 S
C228 H198 0.929 . S
C228 C227 1.348 . S
C228 C229 1.443 . S
C229 H196 0.932 . S
C229 C224 1.388 . S
C229 C228 1.443 . S
C230 N210 1.433 . S
C230 C231 1.363 . S
C230 C235 1.370 . S
C231 H199 0.929 . S
C231 C230 1.363 . S
C231 C232 1.385 . S
C232 H200 0.930 . S
C232 C231 1.385 . S
C232 C233 1.357 . S
C233 C232 1.357 . S
C233 C234 1.406 . S
C234 H201 0.929 . S
C234 C233 1.406 . S
C234 C235 1.391 . S
C235 H202 0.931 . S
C235 C230 1.370 . S
C235 C234 1.391 . S
C236 N210 1.435 . S
C236 C237 1.358 . S
C236 C241 1.371 . S
C237 H203 0.930 . S
C237 C236 1.358 . S
C237 C238 1.405 . S
C238 H204 0.932 . S
C238 C237 1.405 . S
C238 C239 1.383 . S
C239 C238 1.383 . S
C239 C240 1.393 . S
C240 H205 0.931 . S
C240 C239 1.393 . S
C240 C241 1.382 . S
C241 H206 0.929 . S
C241 C236 1.371 . S
C241 C240 1.382 . S
C242 N210 1.423 . S
C242 C243 1.362 . S
C242 C247 1.388 . S
C243 H207 0.929 . S
C243 C242 1.362 . S
C243 C244 1.376 . S
C244 H208 0.931 1_545 S
C244 C243 1.376 . S
C244 C245 1.396 . S
C245 C227 1.472 1_545 S
C245 C244 1.396 . S
C245 C246 1.348 . S
C246 H209 0.929 . S
C246 C245 1.348 . S
C246 C247 1.443 . S
C247 H211 0.932 . S
C247 C242 1.388 . S
C247 C246 1.443 . S
H248 C275 0.929 . S
N249 C274 1.433 . S
N249 C280 1.435 . S
N249 C286 1.423 . S
H250 C276 0.930 . S
H251 C279 0.931 . S
H252 C278 0.929 . S
H253 C281 0.930 . S
H254 C282 0.932 . S
H255 C285 0.929 . S
H256 C284 0.931 1_554 S
H257 C287 0.929 . S
H258 C291 0.932 . S
H259 C288 0.931 . S
H260 C290 0.929 . S
H261 C293 0.929 . S
H262 C294 0.930 . S
H263 C296 0.929 . S
H264 C297 0.931 . S
H265 C299 0.930 . S
H266 C300 0.932 . S
H267 C302 0.931 1_554 S
H268 C303 0.929 . S
H269 C305 0.929 . S
H270 C306 0.906 1_455 S
H271 C308 0.929 . S
N272 C292 1.433 . S
N272 C298 1.435 . S
N272 C304 1.423 . S
H273 C309 0.932 . S
C274 N249 1.433 . S
C274 C275 1.363 . S
C274 C279 1.370 . S
C275 H248 0.929 . S
C275 C274 1.363 . S
C275 C276 1.385 . S
C276 H250 0.930 . S
C276 C275 1.385 . S
C276 C277 1.357 . S
C277 C276 1.357 . S
C277 C278 1.406 . S
C278 H252 0.929 . S
C278 C277 1.406 . S
C278 C279 1.391 . S
C279 H251 0.931 . S
C279 C274 1.370 . S
C279 C278 1.391 . S
C280 N249 1.435 . S
C280 C281 1.358 . S
C280 C285 1.371 . S
C281 H253 0.930 . S
C281 C280 1.358 . S
C281 C282 1.405 . S
C282 H254 0.932 . S
C282 C281 1.405 . S
C282 C283 1.383 . S
C283 C282 1.383 . S
C283 C284 1.393 . S
C284 H256 0.931 1_556 S
C284 C283 1.393 . S
C284 C285 1.382 . S
C285 H255 0.929 . S
C285 C280 1.371 . S
C285 C284 1.382 . S
C286 N249 1.423 . S
C286 C287 1.362 . S
C286 C291 1.388 . S
C287 H257 0.929 . S
C287 C286 1.362 . S
C287 C288 1.376 . S
C288 H259 0.931 . S
C288 C287 1.376 . S
C288 C289 1.396 . S
C289 C288 1.396 . S
C289 C290 1.348 . S
C289 C307 1.472 . S
C290 H260 0.929 . S
C290 C289 1.348 . S
C290 C291 1.443 . S
C291 H258 0.932 . S
C291 C286 1.388 . S
C291 C290 1.443 . S
C292 N272 1.433 . S
C292 C293 1.363 . S
C292 C297 1.370 . S
C293 H261 0.929 . S
C293 C292 1.363 . S
C293 C294 1.385 . S
C294 H262 0.930 . S
C294 C293 1.385 . S
C294 C295 1.357 . S
C295 C294 1.357 . S
C295 C296 1.406 . S
C296 H263 0.929 . S
C296 C295 1.406 . S
C296 C297 1.391 . S
C297 H264 0.931 . S
C297 C292 1.370 . S
C297 C296 1.391 . S
C298 N272 1.435 . S
C298 C299 1.358 . S
C298 C303 1.371 . S
C299 H265 0.930 . S
C299 C298 1.358 . S
C299 C300 1.405 . S
C300 H266 0.932 . S
C300 C299 1.405 . S
C300 C301 1.383 . S
C301 C300 1.383 . S
C301 C302 1.393 . S
C302 H267 0.931 1_556 S
C302 C301 1.393 . S
C302 C303 1.382 . S
C303 H268 0.929 . S
C303 C298 1.371 . S
C303 C302 1.382 . S
C304 N272 1.423 . S
C304 C305 1.362 . S
C304 C309 1.388 . S
C305 H269 0.929 . S
C305 C304 1.362 . S
C305 C306 1.404 . S
C306 H270 0.906 1_655 S
C306 C305 1.404 . S
C306 C307 1.393 1_655 S
C307 C289 1.472 . S
C307 C306 1.393 1_455 S
C307 C308 1.348 1_455 S
C308 H271 0.929 . S
C308 C307 1.348 1_655 S
C308 C309 1.443 . S
C309 H273 0.932 . S
C309 C304 1.388 . S
C309 C308 1.443 . S
H310 C337 0.929 . S
N311 C336 1.433 . S
N311 C342 1.435 . S
N311 C348 1.423 . S
H312 C338 0.930 . S
H313 C341 0.931 . S
H314 C340 0.929 . S
H315 C343 0.930 . S
H316 C344 0.932 . S
H317 C347 0.929 . S
H318 C346 0.931 . S
H319 C349 0.929 . S
H320 C353 0.932 . S
H321 C350 0.931 . S
H322 C352 0.929 . S
H323 C355 0.929 . S
H324 C356 0.930 . S
H325 C358 0.929 . S
H326 C359 0.931 . S
H327 C361 0.930 . S
H328 C362 0.932 . S
H329 C364 0.931 . S
H330 C365 0.929 . S
H331 C367 0.929 . S
H332 C368 0.931 . S
H333 C370 0.929 . S
N334 C354 1.433 . S
N334 C360 1.435 . S
N334 C366 1.423 . S
H335 C371 0.932 . S
C336 N311 1.433 . S
C336 C337 1.363 . S
C336 C341 1.370 . S
C337 H310 0.929 . S
C337 C336 1.363 . S
C337 C338 1.385 . S
C338 H312 0.930 . S
C338 C337 1.385 . S
C338 C339 1.357 . S
C339 C338 1.357 . S
C339 C340 1.406 . S
C340 H314 0.929 . S
C340 C339 1.406 . S
C340 C341 1.391 . S
C341 H313 0.931 . S
C341 C336 1.370 . S
C341 C340 1.391 . S
C342 N311 1.435 . S
C342 C343 1.358 . S
C342 C347 1.371 . S
C343 H315 0.930 . S
C343 C342 1.358 . S
C343 C344 1.405 . S
C344 H316 0.932 . S
C344 C343 1.405 . S
C344 C345 1.383 . S
C345 C344 1.383 . S
C345 C346 1.393 . S
C346 H318 0.931 . S
C346 C345 1.393 . S
C346 C347 1.382 . S
C347 H317 0.929 . S
C347 C342 1.371 . S
C347 C346 1.382 . S
C348 N311 1.423 . S
C348 C349 1.362 . S
C348 C353 1.388 . S
C349 H319 0.929 . S
C349 C348 1.362 . S
C349 C350 1.376 . S
C350 H321 0.931 . S
C350 C349 1.376 . S
C350 C351 1.396 . S
C351 C350 1.396 . S
C351 C352 1.348 . S
C351 C369 1.472 . S
C352 H322 0.929 . S
C352 C351 1.348 . S
C352 C353 1.443 . S
C353 H320 0.932 . S
C353 C348 1.388 . S
C353 C352 1.443 . S
C354 N334 1.433 . S
C354 C355 1.363 . S
C354 C359 1.370 . S
C355 H323 0.929 . S
C355 C354 1.363 . S
C355 C356 1.385 . S
C356 H324 0.930 . S
C356 C355 1.385 . S
C356 C357 1.357 . S
C357 C356 1.357 . S
C357 C358 1.406 . S
C358 H325 0.929 . S
C358 C357 1.406 . S
C358 C359 1.391 . S
C359 H326 0.931 . S
C359 C354 1.370 . S
C359 C358 1.391 . S
C360 N334 1.435 . S
C360 C361 1.358 . S
C360 C365 1.371 . S
C361 H327 0.930 . S
C361 C360 1.358 . S
C361 C362 1.405 . S
C362 H328 0.932 . S
C362 C361 1.405 . S
C362 C363 1.383 . S
C363 C362 1.383 . S
C363 C364 1.393 . S
C364 H329 0.931 . S
C364 C363 1.393 . S
C364 C365 1.382 . S
C365 H330 0.929 . S
C365 C360 1.371 . S
C365 C364 1.382 . S
C366 N334 1.423 . S
C366 C367 1.362 . S
C366 C371 1.388 . S
C367 H331 0.929 . S
C367 C366 1.362 . S
C367 C368 1.376 . S
C368 H332 0.931 . S
C368 C367 1.376 . S
C368 C369 1.396 . S
C369 C351 1.472 . S
C369 C368 1.396 . S
C369 C370 1.348 . S
C370 H333 0.929 . S
C370 C369 1.348 . S
C370 C371 1.443 . S
C371 H335 0.932 . S
C371 C366 1.388 . S
C371 C370 1.443 . S
H372 C399 0.929 . S
N373 C398 1.433 . S
N373 C404 1.435 . S
N373 C410 1.423 . S
H374 C400 0.930 . S
H375 C403 0.931 . S
H376 C402 0.929 . S
H377 C405 0.930 . S
H378 C406 0.932 . S
H379 C409 0.929 . S
H380 C408 0.931 . S
H381 C411 0.929 . S
H382 C415 0.932 . S
H383 C412 0.931 . S
H384 C414 0.929 . S
H385 C417 0.929 . S
H386 C418 0.930 . S
H387 C420 0.929 . S
H388 C421 0.931 . S
H389 C423 0.930 . S
H390 C424 0.932 . S
H391 C426 0.931 . S
H392 C427 0.929 . S
H393 C429 0.929 . S
H394 C430 0.931 . S
H395 C432 0.929 . S
N396 C416 1.433 . S
N396 C422 1.435 . S
N396 C428 1.423 . S
H397 C433 0.932 . S
C398 N373 1.433 . S
C398 C399 1.363 . S
C398 C403 1.370 . S
C399 H372 0.929 . S
C399 C398 1.363 . S
C399 C400 1.385 . S
C400 H374 0.930 . S
C400 C399 1.385 . S
C400 C401 1.357 . S
C401 C400 1.357 . S
C401 C402 1.406 . S
C402 H376 0.929 . S
C402 C401 1.406 . S
C402 C403 1.391 . S
C403 H375 0.931 . S
C403 C398 1.370 . S
C403 C402 1.391 . S
C404 N373 1.435 . S
C404 C405 1.358 . S
C404 C409 1.371 . S
C405 H377 0.930 . S
C405 C404 1.358 . S
C405 C406 1.405 . S
C406 H378 0.932 . S
C406 C405 1.405 . S
C406 C407 1.383 . S
C407 C406 1.383 . S
C407 C408 1.393 . S
C408 H380 0.931 . S
C408 C407 1.393 . S
C408 C409 1.382 . S
C409 H379 0.929 . S
C409 C404 1.371 . S
C409 C408 1.382 . S
C410 N373 1.423 . S
C410 C411 1.362 . S
C410 C415 1.388 . S
C411 H381 0.929 . S
C411 C410 1.362 . S
C411 C412 1.376 1_565 S
C412 H383 0.931 . S
C412 C411 1.376 1_545 S
C412 C413 1.396 . S
C413 C412 1.396 . S
C413 C414 1.348 1_545 S
C413 C431 1.472 . S
C414 H384 0.929 . S
C414 C413 1.348 1_565 S
C414 C415 1.443 . S
C415 H382 0.932 . S
C415 C410 1.388 . S
C415 C414 1.443 . S
C416 N396 1.433 . S
C416 C417 1.363 . S
C416 C421 1.370 . S
C417 H385 0.929 . S
C417 C416 1.363 . S
C417 C418 1.385 . S
C418 H386 0.930 . S
C418 C417 1.385 . S
C418 C419 1.357 . S
C419 C418 1.357 . S
C419 C420 1.406 . S
C420 H387 0.929 . S
C420 C419 1.406 . S
C420 C421 1.391 . S
C421 H388 0.931 . S
C421 C416 1.370 . S
C421 C420 1.391 . S
C422 N396 1.435 . S
C422 C423 1.358 . S
C422 C427 1.371 . S
C423 H389 0.930 . S
C423 C422 1.358 . S
C423 C424 1.405 . S
C424 H390 0.932 . S
C424 C423 1.405 . S
C424 C425 1.383 . S
C425 C424 1.383 . S
C425 C426 1.393 . S
C426 H391 0.931 . S
C426 C425 1.393 . S
C426 C427 1.382 . S
C427 H392 0.929 . S
C427 C422 1.371 . S
C427 C426 1.382 . S
C428 N396 1.423 . S
C428 C429 1.362 . S
C428 C433 1.388 . S
C429 H393 0.929 . S
C429 C428 1.362 . S
C429 C430 1.376 . S
C430 H394 0.931 . S
C430 C429 1.376 . S
C430 C431 1.396 . S
C431 C413 1.472 . S
C431 C430 1.396 . S
C431 C432 1.348 . S
C432 H395 0.929 . S
C432 C431 1.348 . S
C432 C433 1.443 . S
C433 H397 0.932 . S
C433 C428 1.388 . S
C433 C432 1.443 . S
H434 C461 0.929 . S
N435 C460 1.433 . S
N435 C466 1.435 . S
N435 C472 1.423 . S
H436 C462 0.930 . S
H437 C465 0.931 . S
H438 C464 0.929 . S
H439 C467 0.930 . S
H440 C468 0.932 . S
H441 C471 0.929 . S
H442 C470 0.931 . S
H443 C473 0.929 . S
H444 C477 0.932 . S
H445 C474 0.931 . S
H446 C476 0.929 . S
H447 C479 0.929 . S
H448 C480 0.930 . S
H449 C482 0.929 . S
H450 C483 0.931 . S
H451 C485 0.930 . S
H452 C486 0.932 . S
H453 C488 0.931 . S
H454 C489 0.929 . S
H455 C491 0.929 . S
H456 C492 0.931 1_565 S
H457 C494 0.929 . S
N458 C478 1.433 . S
N458 C484 1.435 . S
N458 C490 1.423 . S
H459 C495 0.932 . S
C460 N435 1.433 . S
C460 C461 1.363 . S
C460 C465 1.370 . S
C461 H434 0.929 . S
C461 C460 1.363 . S
C461 C462 1.385 . S
C462 H436 0.930 . S
C462 C461 1.385 . S
C462 C463 1.357 . S
C463 C462 1.357 . S
C463 C464 1.406 . S
C464 H438 0.929 . S
C464 C463 1.406 . S
C464 C465 1.391 . S
C465 H437 0.931 . S
C465 C460 1.370 . S
C465 C464 1.391 . S
C466 N435 1.435 . S
C466 C467 1.358 . S
C466 C471 1.371 . S
C467 H439 0.930 . S
C467 C466 1.358 . S
C467 C468 1.405 . S
C468 H440 0.932 . S
C468 C467 1.405 . S
C468 C469 1.383 . S
C469 C468 1.383 . S
C469 C470 1.393 . S
C470 H442 0.931 . S
C470 C469 1.393 . S
C470 C471 1.382 . S
C471 H441 0.929 . S
C471 C466 1.371 . S
C471 C470 1.382 . S
C472 N435 1.423 . S
C472 C473 1.362 . S
C472 C477 1.388 . S
C473 H443 0.929 . S
C473 C472 1.362 . S
C473 C474 1.376 1_455 S
C474 H445 0.931 . S
C474 C473 1.376 1_655 S
C474 C475 1.396 . S
C475 C474 1.396 . S
C475 C476 1.348 1_655 S
C475 C493 1.472 1_565 S
C476 H446 0.929 . S
C476 C475 1.348 1_455 S
C476 C477 1.443 . S
C477 H444 0.932 . S
C477 C472 1.388 . S
C477 C476 1.443 . S
C478 N458 1.433 . S
C478 C479 1.363 . S
C478 C483 1.370 . S
C479 H447 0.929 . S
C479 C478 1.363 . S
C479 C480 1.385 . S
C480 H448 0.930 . S
C480 C479 1.385 . S
C480 C481 1.357 . S
C481 C480 1.357 . S
C481 C482 1.406 . S
C482 H449 0.929 . S
C482 C481 1.406 . S
C482 C483 1.391 . S
C483 H450 0.931 . S
C483 C478 1.370 . S
C483 C482 1.391 . S
C484 N458 1.435 . S
C484 C485 1.358 . S
C484 C489 1.371 . S
C485 H451 0.930 . S
C485 C484 1.358 . S
C485 C486 1.405 . S
C486 H452 0.932 . S
C486 C485 1.405 . S
C486 C487 1.383 . S
C487 C486 1.383 . S
C487 C488 1.393 . S
C488 H453 0.931 . S
C488 C487 1.393 . S
C488 C489 1.382 . S
C489 H454 0.929 . S
C489 C484 1.371 . S
C489 C488 1.382 . S
C490 N458 1.423 . S
C490 C491 1.362 . S
C490 C495 1.388 . S
C491 H455 0.929 . S
C491 C490 1.362 . S
C491 C492 1.376 . S
C492 H456 0.931 1_545 S
C492 C491 1.376 . S
C492 C493 1.396 . S
C493 C475 1.472 1_545 S
C493 C492 1.396 . S
C493 C494 1.348 . S
C494 H457 0.929 . S
C494 C493 1.348 . S
C494 C495 1.443 . S
C495 H459 0.932 . S
C495 C490 1.388 . S
C495 C494 1.443 . S
Mn496 O501 2.095 1_554 S
Mn496 O511 2.162 . S
Mn496 O512 2.297 . S
Mn496 O520 2.385 . S
Mn496 O521 2.209 . S
Mn496 O522 2.094 . S
Mn497 O502 2.121 1_554 S
Mn497 N504 2.257 . S
Mn497 N513 2.282 . S
Mn497 O521 2.215 . S
Mn497 O523 2.117 . S
C498 O520 1.234 . S
C498 O521 1.283 . S
C499 O511 1.281 . S
C499 O512 1.236 . S
C500 O522 1.244 . S
C500 O523 1.265 . S
O501 Mn496 2.095 1_556 S
O501 C510 1.250 . S
O502 Mn497 2.121 1_556 S
O502 C510 1.258 . S
C503 N504 1.326 . S
C503 C507 1.460 . S
C503 H509 0.929 1_554 S
N504 Mn497 2.257 . S
N504 C503 1.326 . S
N504 C508 1.362 . S
C505 C506 1.258 . S
C505 C508 1.431 . S
C505 C525 1.449 . S
C506 C505 1.258 . S
C506 C507 1.477 . S
C506 H526 0.931 . S
C507 C503 1.460 . S
C507 C506 1.477 . S
C507 H527 0.930 . S
C508 N504 1.362 . S
C508 C505 1.431 . S
C508 C518 1.476 . S
H509 C503 0.929 1_556 S
C510 O501 1.250 . S
C510 O502 1.258 . S
O511 Mn496 2.162 . S
O511 C499 1.281 . S
O512 Mn496 2.297 . S
O512 C499 1.236 . S
N513 Mn497 2.282 . S
N513 C514 1.328 . S
N513 C518 1.318 . S
C514 N513 1.328 . S
C514 C515 1.457 . S
C514 H519 0.929 . S
C515 C514 1.457 . S
C515 C516 1.291 . S
C515 H528 0.931 . S
C516 C515 1.291 . S
C516 C517 1.373 . S
C516 H529 0.929 . S
C517 C516 1.373 . S
C517 C518 1.396 . S
C517 C524 1.403 . S
C518 C508 1.476 . S
C518 N513 1.318 . S
C518 C517 1.396 . S
H519 C514 0.929 . S
O520 Mn496 2.385 . S
O520 C498 1.234 . S
O521 Mn496 2.209 . S
O521 Mn497 2.215 . S
O521 C498 1.283 . S
O522 Mn496 2.094 . S
O522 C500 1.244 . S
O523 Mn497 2.117 . S
O523 C500 1.265 . S
C524 C517 1.403 . S
C524 C525 1.399 . S
C524 H530 0.929 . S
C525 C505 1.449 . S
C525 C524 1.399 . S
C525 H531 0.930 . S
H526 C506 0.931 . S
H527 C507 0.930 . S
H528 C515 0.931 . S
H529 C516 0.929 . S
H530 C524 0.929 . S
H531 C525 0.930 . S
Mn532 O537 2.095 . S
Mn532 O547 2.162 . S
Mn532 O548 2.297 . S
Mn532 O556 2.385 . S
Mn532 O557 2.209 . S
Mn532 O558 2.094 . S
Mn533 O538 2.121 . S
Mn533 N540 2.257 . S
Mn533 N549 2.282 . S
Mn533 O557 2.215 . S
Mn533 O559 2.117 . S
C534 O556 1.234 . S
C534 O557 1.283 . S
C535 O547 1.281 . S
C535 O548 1.236 . S
C536 O558 1.240 . S
C536 O559 1.264 . S
O537 Mn532 2.095 . S
O537 C546 1.250 . S
O538 Mn533 2.121 . S
O538 C546 1.258 . S
C539 N540 1.326 . S
C539 C543 1.460 . S
C539 H545 0.929 . S
N540 Mn533 2.257 . S
N540 C539 1.326 . S
N540 C544 1.362 . S
C541 C542 1.258 . S
C541 C544 1.431 . S
C541 C561 1.449 . S
C542 C541 1.258 . S
C542 C543 1.477 . S
C542 H562 0.931 . S
C543 C539 1.460 . S
C543 C542 1.477 . S
C543 H563 0.930 . S
C544 N540 1.362 . S
C544 C541 1.431 . S
C544 C554 1.476 . S
H545 C539 0.929 . S
C546 O537 1.250 . S
C546 O538 1.258 . S
O547 Mn532 2.162 . S
O547 C535 1.281 . S
O548 Mn532 2.297 . S
O548 C535 1.236 . S
N549 Mn533 2.282 . S
N549 C550 1.328 . S
N549 C554 1.318 . S
C550 N549 1.328 . S
C550 C551 1.457 . S
C550 H555 0.929 . S
C551 C550 1.457 . S
C551 C552 1.291 . S
C551 H564 0.931 . S
C552 C551 1.291 . S
C552 C553 1.373 . S
C552 H565 0.929 . S
C553 C552 1.373 . S
C553 C554 1.396 . S
C553 C560 1.403 . S
C554 C544 1.476 . S
C554 N549 1.318 . S
C554 C553 1.396 . S
H555 C550 0.929 . S
O556 Mn532 2.385 . S
O556 C534 1.234 . S
O557 Mn532 2.209 . S
O557 Mn533 2.215 . S
O557 C534 1.283 . S
O558 Mn532 2.094 . S
O558 C536 1.240 . S
O559 Mn533 2.117 . S
O559 C536 1.264 . S
C560 C553 1.403 . S
C560 C561 1.399 . S
C560 H566 0.929 . S
C561 C541 1.449 . S
C561 C560 1.399 . S
C561 H567 0.930 . S
H562 C542 0.931 . S
H563 C543 0.930 . S
H564 C551 0.931 . S
H565 C552 0.929 . S
H566 C560 0.929 . S
H567 C561 0.930 . S
Mn568 O573 2.095 . S
Mn568 O583 2.162 . S
Mn568 O584 2.297 . S
Mn568 O592 2.385 . S
Mn568 O593 2.209 . S
Mn568 O594 2.094 . S
Mn569 O574 2.121 . S
Mn569 N576 2.257 . S
Mn569 N585 2.282 . S
Mn569 O593 2.215 . S
Mn569 O595 2.117 . S
C570 O592 1.234 . S
C570 O593 1.283 . S
C571 O583 1.281 . S
C571 O584 1.236 . S
C572 O594 1.240 . S
C572 O595 1.264 . S
O573 Mn568 2.095 . S
O573 C582 1.250 . S
O574 Mn569 2.121 . S
O574 C582 1.258 . S
C575 N576 1.326 . S
C575 C579 1.460 . S
C575 H581 0.929 . S
N576 Mn569 2.257 . S
N576 C575 1.326 . S
N576 C580 1.362 . S
C577 C578 1.258 . S
C577 C580 1.431 . S
C577 C597 1.449 . S
C578 C577 1.258 . S
C578 C579 1.477 . S
C578 H598 0.931 . S
C579 C575 1.460 . S
C579 C578 1.477 . S
C579 H599 0.930 . S
C580 N576 1.362 . S
C580 C577 1.431 . S
C580 C590 1.476 . S
H581 C575 0.929 . S
C582 O573 1.250 . S
C582 O574 1.258 . S
O583 Mn568 2.162 . S
O583 C571 1.281 . S
O584 Mn568 2.297 . S
O584 C571 1.236 . S
N585 Mn569 2.282 . S
N585 C586 1.328 . S
N585 C590 1.318 . S
C586 N585 1.328 . S
C586 C587 1.457 . S
C586 H591 0.929 . S
C587 C586 1.457 . S
C587 C588 1.291 . S
C587 H600 0.931 . S
C588 C587 1.291 . S
C588 C589 1.373 . S
C588 H601 0.929 . S
C589 C588 1.373 . S
C589 C590 1.396 . S
C589 C596 1.403 . S
C590 C580 1.476 . S
C590 N585 1.318 . S
C590 C589 1.396 . S
H591 C586 0.929 . S
O592 Mn568 2.385 . S
O592 C570 1.234 . S
O593 Mn568 2.209 . S
O593 Mn569 2.215 . S
O593 C570 1.283 . S
O594 Mn568 2.094 . S
O594 C572 1.240 . S
O595 Mn569 2.117 . S
O595 C572 1.264 . S
C596 C589 1.403 . S
C596 C597 1.399 . S
C596 H602 0.929 . S
C597 C577 1.449 . S
C597 C596 1.399 . S
C597 H603 0.930 . S
H598 C578 0.931 . S
H599 C579 0.930 . S
H600 C587 0.931 . S
H601 C588 0.929 . S
H602 C596 0.929 . S
H603 C597 0.930 . S
Mn604 O609 2.095 . S
Mn604 O619 2.162 . S
Mn604 O620 2.297 . S
Mn604 O628 2.385 . S
Mn604 O629 2.209 . S
Mn604 O630 2.094 . S
Mn605 O610 2.121 . S
Mn605 N612 2.257 . S
Mn605 N621 2.282 . S
Mn605 O629 2.215 . S
Mn605 O631 2.117 . S
C606 O628 1.234 . S
C606 O629 1.283 . S
C607 O619 1.281 . S
C607 O620 1.236 . S
C608 O630 1.240 . S
C608 O631 1.264 . S
O609 Mn604 2.095 . S
O609 C618 1.250 . S
O610 Mn605 2.121 . S
O610 C618 1.258 . S
C611 N612 1.326 . S
C611 C615 1.460 . S
C611 H617 0.929 . S
N612 Mn605 2.257 . S
N612 C611 1.326 . S
N612 C616 1.362 . S
C613 C614 1.258 . S
C613 C616 1.431 . S
C613 C633 1.449 . S
C614 C613 1.258 . S
C614 C615 1.477 . S
C614 H634 0.931 . S
C615 C611 1.460 . S
C615 C614 1.477 . S
C615 H635 0.930 . S
C616 N612 1.362 . S
C616 C613 1.431 . S
C616 C626 1.476 . S
H617 C611 0.929 . S
C618 O609 1.250 . S
C618 O610 1.258 . S
O619 Mn604 2.162 . S
O619 C607 1.281 . S
O620 Mn604 2.297 . S
O620 C607 1.236 . S
N621 Mn605 2.282 . S
N621 C622 1.328 . S
N621 C626 1.318 . S
C622 N621 1.328 . S
C622 C623 1.457 . S
C622 H627 0.929 . S
C623 C622 1.457 . S
C623 C624 1.291 . S
C623 H636 0.931 . S
C624 C623 1.291 . S
C624 C625 1.373 . S
C624 H637 0.929 . S
C625 C624 1.373 . S
C625 C626 1.396 . S
C625 C632 1.403 . S
C626 C616 1.476 . S
C626 N621 1.318 . S
C626 C625 1.396 . S
H627 C622 0.929 . S
O628 Mn604 2.385 . S
O628 C606 1.234 . S
O629 Mn604 2.209 . S
O629 Mn605 2.215 . S
O629 C606 1.283 . S
O630 Mn604 2.094 . S
O630 C608 1.240 . S
O631 Mn605 2.117 . S
O631 C608 1.264 . S
C632 C625 1.403 . S
C632 C633 1.399 . S
C632 H638 0.929 . S
C633 C613 1.449 . S
C633 C632 1.399 . S
C633 H639 0.930 . S
H634 C614 0.931 . S
H635 C615 0.930 . S
H636 C623 0.931 . S
H637 C624 0.929 . S
H638 C632 0.929 . S
H639 C633 0.930 . S
Mn640 O645 2.095 . S
Mn640 O655 2.162 . S
Mn640 O656 2.297 . S
Mn640 O664 2.385 . S
Mn640 O665 2.209 . S
Mn640 O666 2.094 . S
Mn641 O646 2.121 . S
Mn641 N648 2.257 . S
Mn641 N657 2.282 . S
Mn641 O665 2.215 . S
Mn641 O667 2.117 . S
C642 O664 1.234 . S
C642 O665 1.283 . S
C643 O655 1.281 . S
C643 O656 1.236 . S
C644 O666 1.240 . S
C644 O667 1.264 . S
O645 Mn640 2.095 . S
O645 C654 1.250 . S
O646 Mn641 2.121 . S
O646 C654 1.258 . S
C647 N648 1.326 . S
C647 C651 1.460 . S
C647 H653 0.929 . S
N648 Mn641 2.257 . S
N648 C647 1.326 . S
N648 C652 1.362 . S
C649 C650 1.258 . S
C649 C652 1.431 . S
C649 C669 1.449 . S
C650 C649 1.258 . S
C650 C651 1.477 . S
C650 H670 0.931 . S
C651 C647 1.460 . S
C651 C650 1.477 . S
C651 H671 0.930 . S
C652 N648 1.362 . S
C652 C649 1.431 . S
C652 C662 1.476 . S
H653 C647 0.929 . S
C654 O645 1.250 . S
C654 O646 1.258 . S
O655 Mn640 2.162 . S
O655 C643 1.281 . S
O656 Mn640 2.297 . S
O656 C643 1.236 . S
N657 Mn641 2.282 . S
N657 C658 1.328 . S
N657 C662 1.318 . S
C658 N657 1.328 . S
C658 C659 1.457 . S
C658 H663 0.929 . S
C659 C658 1.457 . S
C659 C660 1.291 . S
C659 H672 0.931 . S
C660 C659 1.291 . S
C660 C661 1.373 . S
C660 H673 0.929 . S
C661 C660 1.373 . S
C661 C662 1.396 . S
C661 C668 1.403 . S
C662 C652 1.476 . S
C662 N657 1.318 . S
C662 C661 1.396 . S
H663 C658 0.929 . S
O664 Mn640 2.385 . S
O664 C642 1.234 . S
O665 Mn640 2.209 . S
O665 Mn641 2.215 . S
O665 C642 1.283 . S
O666 Mn640 2.094 . S
O666 C644 1.240 . S
O667 Mn641 2.117 . S
O667 C644 1.264 . S
C668 C661 1.403 . S
C668 C669 1.399 . S
C668 H674 0.929 . S
C669 C649 1.449 . S
C669 C668 1.399 . S
C669 H675 0.930 . S
H670 C650 0.931 . S
H671 C651 0.930 . S
H672 C659 0.931 . S
H673 C660 0.929 . S
H674 C668 0.929 . S
H675 C669 0.930 . S
Mn676 O681 2.095 . S
Mn676 O691 2.162 . S
Mn676 O692 2.297 . S
Mn676 O700 2.385 . S
Mn676 O701 2.209 . S
Mn676 O702 2.094 . S
Mn677 O682 2.121 . S
Mn677 N684 2.257 . S
Mn677 N693 2.282 . S
Mn677 O701 2.215 . S
Mn677 O703 2.117 . S
C678 O700 1.234 . S
C678 O701 1.283 . S
C679 O691 1.281 . S
C679 O692 1.236 . S
C680 O702 1.240 . S
C680 O703 1.264 . S
O681 Mn676 2.095 . S
O681 C690 1.250 . S
O682 Mn677 2.121 . S
O682 C690 1.258 . S
C683 N684 1.326 . S
C683 C687 1.460 . S
C683 H689 0.929 . S
N684 Mn677 2.257 . S
N684 C683 1.326 . S
N684 C688 1.362 . S
C685 C686 1.258 . S
C685 C688 1.431 . S
C685 C705 1.449 . S
C686 C685 1.258 . S
C686 C687 1.477 . S
C686 H706 0.931 . S
C687 C683 1.460 . S
C687 C686 1.477 . S
C687 H707 0.930 . S
C688 N684 1.362 . S
C688 C685 1.431 . S
C688 C698 1.476 . S
H689 C683 0.929 . S
C690 O681 1.250 . S
C690 O682 1.258 . S
O691 Mn676 2.162 . S
O691 C679 1.281 . S
O692 Mn676 2.297 . S
O692 C679 1.236 . S
N693 Mn677 2.282 . S
N693 C694 1.328 . S
N693 C698 1.318 . S
C694 N693 1.328 . S
C694 C695 1.457 . S
C694 H699 0.929 . S
C695 C694 1.457 . S
C695 C696 1.291 . S
C695 H708 0.931 . S
C696 C695 1.291 . S
C696 C697 1.373 . S
C696 H709 0.929 . S
C697 C696 1.373 . S
C697 C698 1.396 . S
C697 C704 1.403 . S
C698 C688 1.476 . S
C698 N693 1.318 . S
C698 C697 1.396 . S
H699 C694 0.929 . S
O700 Mn676 2.385 . S
O700 C678 1.234 . S
O701 Mn676 2.209 . S
O701 Mn677 2.215 . S
O701 C678 1.283 . S
O702 Mn676 2.094 . S
O702 C680 1.240 . S
O703 Mn677 2.117 . S
O703 C680 1.264 . S
C704 C697 1.403 . S
C704 C705 1.399 . S
C704 H710 0.929 . S
C705 C685 1.449 . S
C705 C704 1.399 . S
C705 H711 0.930 . S
H706 C686 0.931 . S
H707 C687 0.930 . S
H708 C695 0.931 . S
H709 C696 0.929 . S
H710 C704 0.929 . S
H711 C705 0.930 . S
Mn712 O717 2.095 . S
Mn712 O727 2.162 . S
Mn712 O728 2.297 . S
Mn712 O736 2.385 1_554 S
Mn712 O737 2.209 1_554 S
Mn712 O738 2.094 . S
Mn713 O718 2.121 . S
Mn713 N720 2.257 . S
Mn713 N729 2.282 1_554 S
Mn713 O737 2.215 1_554 S
Mn713 O739 2.117 . S
C714 O736 1.234 . S
C714 O737 1.283 . S
C715 O727 1.281 . S
C715 O728 1.236 . S
C716 O738 1.240 . S
C716 O739 1.264 . S
O717 Mn712 2.095 . S
O717 C726 1.250 . S
O718 Mn713 2.121 . S
O718 C726 1.258 . S
C719 N720 1.326 . S
C719 C723 1.460 . S
C719 H725 0.929 . S
N720 Mn713 2.257 . S
N720 C719 1.326 . S
N720 C724 1.362 1_554 S
C721 C722 1.258 . S
C721 C724 1.431 . S
C721 C741 1.449 . S
C722 C721 1.258 . S
C722 C723 1.477 1_556 S
C722 H742 0.931 . S
C723 C719 1.460 . S
C723 C722 1.477 1_554 S
C723 H743 0.930 . S
C724 N720 1.362 1_556 S
C724 C721 1.431 . S
C724 C734 1.476 . S
H725 C719 0.929 . S
C726 O717 1.250 . S
C726 O718 1.258 . S
O727 Mn712 2.162 . S
O727 C715 1.281 . S
O728 Mn712 2.297 . S
O728 C715 1.236 . S
N729 Mn713 2.282 1_556 S
N729 C730 1.328 . S
N729 C734 1.318 . S
C730 N729 1.328 . S
C730 C731 1.457 . S
C730 H735 0.929 . S
C731 C730 1.457 . S
C731 C732 1.291 . S
C731 H744 0.931 . S
C732 C731 1.291 . S
C732 C733 1.373 . S
C732 H745 0.929 . S
C733 C732 1.373 . S
C733 C734 1.396 . S
C733 C740 1.403 . S
C734 C724 1.476 . S
C734 N729 1.318 . S
C734 C733 1.396 . S
H735 C730 0.929 . S
O736 Mn712 2.385 1_556 S
O736 C714 1.234 . S
O737 Mn712 2.209 1_556 S
O737 Mn713 2.215 1_556 S
O737 C714 1.283 . S
O738 Mn712 2.094 . S
O738 C716 1.240 . S
O739 Mn713 2.117 . S
O739 C716 1.264 . S
C740 C733 1.403 . S
C740 C741 1.399 . S
C740 H746 0.929 . S
C741 C721 1.449 . S
C741 C740 1.399 . S
C741 H747 0.930 . S
H742 C722 0.931 . S
H743 C723 0.930 . S
H744 C731 0.931 . S
H745 C732 0.929 . S
H746 C740 0.929 . S
H747 C741 0.930 . S
Mn748 O753 2.095 . S
Mn748 O763 2.162 . S
Mn748 O764 2.297 . S
Mn748 O772 2.385 . S
Mn748 O773 2.209 . S
Mn748 O774 2.094 . S
Mn749 O754 2.121 . S
Mn749 N756 2.257 . S
Mn749 N765 2.282 . S
Mn749 O773 2.215 . S
Mn749 O775 2.117 . S
C750 O772 1.234 . S
C750 O773 1.283 . S
C751 O763 1.281 . S
C751 O764 1.236 . S
C752 O774 1.240 . S
C752 O775 1.264 . S
O753 Mn748 2.095 . S
O753 C762 1.250 . S
O754 Mn749 2.121 . S
O754 C762 1.258 . S
C755 N756 1.326 . S
C755 C759 1.460 . S
C755 H761 0.929 . S
N756 Mn749 2.257 . S
N756 C755 1.326 . S
N756 C760 1.362 . S
C757 C758 1.258 . S
C757 C760 1.431 . S
C757 C777 1.449 . S
C758 C757 1.258 . S
C758 C759 1.477 . S
C758 H778 0.931 . S
C759 C755 1.460 . S
C759 C758 1.477 . S
C759 H779 0.930 . S
C760 N756 1.362 . S
C760 C757 1.431 . S
C760 C770 1.476 . S
H761 C755 0.929 . S
C762 O753 1.250 . S
C762 O754 1.258 . S
O763 Mn748 2.162 . S
O763 C751 1.281 . S
O764 Mn748 2.297 . S
O764 C751 1.236 . S
N765 Mn749 2.282 . S
N765 C766 1.328 . S
N765 C770 1.318 . S
C766 N765 1.328 . S
C766 C767 1.457 . S
C766 H771 0.929 . S
C767 C766 1.457 . S
C767 C768 1.291 . S
C767 H780 0.931 . S
C768 C767 1.291 . S
C768 C769 1.373 . S
C768 H781 0.929 . S
C769 C768 1.373 . S
C769 C770 1.396 . S
C769 C776 1.403 . S
C770 C760 1.476 . S
C770 N765 1.318 . S
C770 C769 1.396 . S
H771 C766 0.929 . S
O772 Mn748 2.385 . S
O772 C750 1.234 . S
O773 Mn748 2.209 . S
O773 Mn749 2.215 . S
O773 C750 1.283 . S
O774 Mn748 2.094 . S
O774 C752 1.240 . S
O775 Mn749 2.117 . S
O775 C752 1.264 . S
C776 C769 1.403 . S
C776 C777 1.399 . S
C776 H782 0.929 . S
C777 C757 1.449 . S
C777 C776 1.399 . S
C777 H783 0.930 . S
H778 C758 0.931 . S
H779 C759 0.930 . S
H780 C767 0.931 . S
H781 C768 0.929 . S
H782 C776 0.929 . S
H783 C777 0.930 . S
H784 C790 0.930 . S
H785 C793 0.930 . S
H786 C794 0.930 . S
H787 C795 0.930 . S
H788 C798 0.930 . S
H789 C799 0.930 . S
C790 H784 0.930 . S
C790 C791 1.355 . S
C790 C792 1.415 . S
C791 C790 1.355 . S
C791 C793 1.419 . S
C792 C790 1.415 . S
C792 C797 1.425 . S
C792 C799 1.409 . S
C793 H785 0.930 . S
C793 C791 1.419 . S
C793 C794 1.362 . S
C794 H786 0.930 . S
C794 C793 1.362 . S
C794 C797 1.409 . S
C795 H787 0.930 . S
C795 C796 1.355 . S
C795 C797 1.415 . S
C796 C795 1.355 . S
C796 C798 1.419 . S
C797 C792 1.425 . S
C797 C794 1.409 . S
C797 C795 1.415 . S
C798 H788 0.930 . S
C798 C796 1.419 . S
C798 C799 1.362 . S
C799 H789 0.930 . S
C799 C792 1.409 . S
C799 C798 1.362 . S
H800 C806 0.930 . S
H801 C809 0.930 . S
H802 C810 0.930 . S
H803 C811 0.930 . S
H804 C814 0.930 . S
H805 C815 0.930 . S
C806 H800 0.930 . S
C806 C807 1.355 . S
C806 C808 1.415 . S
C807 C806 1.355 . S
C807 C809 1.419 . S
C808 C806 1.415 . S
C808 C813 1.425 . S
C808 C815 1.409 . S
C809 H801 0.930 . S
C809 C807 1.419 . S
C809 C810 1.362 . S
C810 H802 0.930 . S
C810 C809 1.362 . S
C810 C813 1.409 . S
C811 H803 0.930 . S
C811 C812 1.355 . S
C811 C813 1.415 . S
C812 C811 1.355 . S
C812 C814 1.419 . S
C813 C808 1.425 . S
C813 C810 1.409 . S
C813 C811 1.415 . S
C814 H804 0.930 . S
C814 C812 1.419 . S
C814 C815 1.362 . S
C815 H805 0.930 . S
C815 C808 1.409 . S
C815 C814 1.362 . S
H816 C822 0.930 . S
H817 C825 0.930 . S
H818 C826 0.930 . S
H819 C827 0.930 . S
H820 C830 0.930 . S
H821 C831 0.930 . S
C822 H816 0.930 . S
C822 C823 1.355 . S
C822 C824 1.415 . S
C823 C822 1.355 . S
C823 C825 1.419 . S
C824 C822 1.415 . S
C824 C829 1.425 . S
C824 C831 1.409 . S
C825 H817 0.930 . S
C825 C823 1.419 . S
C825 C826 1.362 . S
C826 H818 0.930 . S
C826 C825 1.362 . S
C826 C829 1.409 . S
C827 H819 0.930 . S
C827 C828 1.355 . S
C827 C829 1.415 . S
C828 C827 1.355 . S
C828 C830 1.419 . S
C829 C824 1.425 . S
C829 C826 1.409 . S
C829 C827 1.415 . S
C830 H820 0.930 . S
C830 C828 1.419 . S
C830 C831 1.362 . S
C831 H821 0.930 . S
C831 C824 1.409 . S
C831 C830 1.362 . S
H832 C838 0.930 . S
H833 C841 0.930 . S
H834 C842 0.930 . S
H835 C843 0.943 . S
H836 C846 0.930 . S
H837 C847 0.930 . S
C838 H832 0.930 . S
C838 C839 1.355 . S
C838 C840 1.415 . S
C839 C838 1.355 . S
C839 C841 1.419 1_554 S
C840 C838 1.415 . S
C840 C845 1.425 . S
C840 C847 1.409 . S
C841 H833 0.930 . S
C841 C839 1.419 1_556 S
C841 C842 1.362 . S
C842 H834 0.930 . S
C842 C841 1.362 . S
C842 C845 1.409 1_556 S
C843 H835 0.943 . S
C843 C844 1.344 1_556 S
C843 C845 1.413 1_556 S
C844 C843 1.344 1_554 S
C844 C846 1.419 . S
C845 C840 1.425 . S
C845 C842 1.409 1_554 S
C845 C843 1.413 1_554 S
C846 H836 0.930 . S
C846 C844 1.419 . S
C846 C847 1.362 . S
C847 H837 0.930 . S
C847 C840 1.409 . S
C847 C846 1.362 . S
H848 C854 0.930 . S
H849 C857 0.930 . S
H850 C858 0.929 . S
H851 C859 0.930 . S
H852 C862 0.930 . S
H853 C863 0.930 . S
C854 H848 0.930 . S
C854 C855 1.355 . S
C854 C856 1.415 . S
C855 C854 1.355 . S
C855 C857 1.422 . S
C856 C854 1.415 . S
C856 C861 1.424 1_554 S
C856 C863 1.409 . S
C857 H849 0.930 . S
C857 C855 1.422 . S
C857 C858 1.360 1_554 S
C858 H850 0.929 . S
C858 C857 1.360 1_556 S
C858 C861 1.409 . S
C859 H851 0.930 . S
C859 C860 1.355 . S
C859 C861 1.417 . S
C860 C859 1.355 . S
C860 C862 1.419 1_556 S
C861 C856 1.424 1_556 S
C861 C858 1.409 . S
C861 C859 1.417 . S
C862 H852 0.930 . S
C862 C860 1.419 1_554 S
C862 C863 1.362 . S
C863 H853 0.930 . S
C863 C856 1.409 . S
C863 C862 1.362 . S
H864 C870 0.930 . S
H865 C873 0.930 . S
H866 C874 0.930 . S
H867 C875 0.930 . S
H868 C878 0.930 . S
H869 C879 0.930 . S
C870 H864 0.930 . S
C870 C871 1.355 . S
C870 C872 1.415 . S
C871 C870 1.355 . S
C871 C873 1.419 . S
C872 C870 1.415 . S
C872 C877 1.425 . S
C872 C879 1.409 . S
C873 H865 0.930 . S
C873 C871 1.419 . S
C873 C874 1.362 . S
C874 H866 0.930 . S
C874 C873 1.362 . S
C874 C877 1.409 . S
C875 H867 0.930 . S
C875 C876 1.355 . S
C875 C877 1.415 . S
C876 C875 1.355 . S
C876 C878 1.419 . S
C877 C872 1.425 . S
C877 C874 1.409 . S
C877 C875 1.415 . S
C878 H868 0.930 . S
C878 C876 1.419 . S
C878 C879 1.362 . S
C879 H869 0.930 . S
C879 C872 1.409 . S
C879 C878 1.362 . S
H880 C886 0.930 . S
H881 C889 0.930 . S
H882 C890 0.930 . S
H883 C891 0.930 . S
H884 C894 0.930 . S
H885 C895 0.930 . S
C886 H880 0.930 . S
C886 C887 1.355 . S
C886 C888 1.415 . S
C887 C886 1.355 . S
C887 C889 1.419 . S
C888 C886 1.415 . S
C888 C893 1.425 . S
C888 C895 1.409 . S
C889 H881 0.930 . S
C889 C887 1.419 . S
C889 C890 1.362 . S
C890 H882 0.930 . S
C890 C889 1.362 . S
C890 C893 1.409 . S
C891 H883 0.930 . S
C891 C892 1.355 . S
C891 C893 1.415 . S
C892 C891 1.355 . S
C892 C894 1.419 . S
C893 C888 1.425 . S
C893 C890 1.409 . S
C893 C891 1.415 . S
C894 H884 0.930 . S
C894 C892 1.419 . S
C894 C895 1.362 . S
C895 H885 0.930 . S
C895 C888 1.409 . S
C895 C894 1.362 . S
H896 C902 0.930 . S
H897 C905 0.930 . S
H898 C906 0.930 . S
H899 C907 0.930 . S
H900 C910 0.930 . S
H901 C911 0.930 . S
C902 H896 0.930 . S
C902 C903 1.355 . S
C902 C904 1.415 . S
C903 C902 1.355 . S
C903 C905 1.419 . S
C904 C902 1.415 . S
C904 C909 1.425 . S
C904 C911 1.409 . S
C905 H897 0.930 . S
C905 C903 1.419 . S
C905 C906 1.362 . S
C906 H898 0.930 . S
C906 C905 1.362 . S
C906 C909 1.409 . S
C907 H899 0.930 . S
C907 C908 1.355 . S
C907 C909 1.415 . S
C908 C907 1.355 . S
C908 C910 1.419 . S
C909 C904 1.425 . S
C909 C906 1.409 . S
C909 C907 1.415 . S
C910 H900 0.930 . S
C910 C908 1.419 . S
C910 C911 1.362 . S
C911 H901 0.930 . S
C911 C904 1.409 . S
C911 C910 1.362 . S
H912 C918 0.930 . S
H913 C921 0.930 . S
H914 C922 0.930 . S
H915 C923 0.930 . S
H916 C926 0.930 . S
H917 C927 0.930 . S
C918 H912 0.930 . S
C918 C919 1.355 . S
C918 C920 1.415 . S
C919 C918 1.355 . S
C919 C921 1.419 . S
C920 C918 1.415 . S
C920 C925 1.425 . S
C920 C927 1.409 . S
C921 H913 0.930 . S
C921 C919 1.419 . S
C921 C922 1.362 . S
C922 H914 0.930 . S
C922 C921 1.362 . S
C922 C925 1.409 . S
C923 H915 0.930 . S
C923 C924 1.355 . S
C923 C925 1.415 . S
C924 C923 1.355 . S
C924 C926 1.419 . S
C925 C920 1.425 . S
C925 C922 1.409 . S
C925 C923 1.415 . S
C926 H916 0.930 . S
C926 C924 1.419 . S
C926 C927 1.362 . S
C927 H917 0.930 . S
C927 C920 1.409 . S
C927 C926 1.362 . S
H928 C934 0.930 . S
H929 C937 0.930 . S
H930 C938 0.930 . S
H931 C939 0.930 . S
H932 C942 0.930 . S
H933 C943 0.930 . S
C934 H928 0.930 . S
C934 C935 1.355 . S
C934 C936 1.415 . S
C935 C934 1.355 . S
C935 C937 1.419 . S
C936 C934 1.415 . S
C936 C941 1.425 . S
C936 C943 1.409 . S
C937 H929 0.930 . S
C937 C935 1.419 . S
C937 C938 1.362 . S
C938 H930 0.930 . S
C938 C937 1.362 . S
C938 C941 1.409 . S
C939 H931 0.930 . S
C939 C940 1.355 . S
C939 C941 1.415 . S
C940 C939 1.355 . S
C940 C942 1.419 . S
C941 C936 1.425 . S
C941 C938 1.409 . S
C941 C939 1.415 . S
C942 H932 0.930 . S
C942 C940 1.419 . S
C942 C943 1.362 . S
C943 H933 0.930 . S
C943 C936 1.409 . S
C943 C942 1.362 . S
H944 C950 0.930 . S
H945 C953 0.930 . S
H946 C954 0.930 . S
H947 C955 0.930 . S
H948 C958 0.930 . S
H949 C959 0.930 . S
C950 H944 0.930 . S
C950 C951 1.355 . S
C950 C952 1.415 . S
C951 C950 1.355 . S
C951 C953 1.419 . S
C952 C950 1.415 . S
C952 C957 1.425 . S
C952 C959 1.409 . S
C953 H945 0.930 . S
C953 C951 1.419 . S
C953 C954 1.362 . S
C954 H946 0.930 . S
C954 C953 1.362 . S
C954 C957 1.409 . S
C955 H947 0.930 . S
C955 C956 1.355 . S
C955 C957 1.415 . S
C956 C955 1.355 . S
C956 C958 1.419 . S
C957 C952 1.425 . S
C957 C954 1.409 . S
C957 C955 1.415 . S
C958 H948 0.930 . S
C958 C956 1.419 . S
C958 C959 1.362 . S
C959 H949 0.930 . S
C959 C952 1.409 . S
C959 C958 1.362 . S
H960 C966 0.930 . S
H961 C969 0.930 . S
H962 C970 0.930 . S
H963 C971 0.930 . S
H964 C974 0.930 . S
H965 C975 0.930 . S
C966 H960 0.930 . S
C966 C967 1.355 . S
C966 C968 1.415 . S
C967 C966 1.355 . S
C967 C969 1.419 . S
C968 C966 1.415 . S
C968 C973 1.425 . S
C968 C975 1.409 . S
C969 H961 0.930 . S
C969 C967 1.419 . S
C969 C970 1.362 . S
C970 H962 0.930 . S
C970 C969 1.362 . S
C970 C973 1.409 . S
C971 H963 0.930 . S
C971 C972 1.355 . S
C971 C973 1.415 . S
C972 C971 1.355 . S
C972 C974 1.419 . S
C973 C968 1.425 . S
C973 C970 1.409 . S
C973 C971 1.415 . S
C974 H964 0.930 . S
C974 C972 1.419 . S
C974 C975 1.362 . S
C975 H965 0.930 . S
C975 C968 1.409 . S
C975 C974 1.362 . S
H976 C982 0.930 . S
H977 C985 0.930 . S
H978 C986 0.930 . S
H979 C987 0.930 . S
H980 C990 0.930 . S
H981 C991 0.930 . S
C982 H976 0.930 . S
C982 C983 1.355 . S
C982 C984 1.415 . S
C983 C982 1.355 . S
C983 C985 1.419 . S
C984 C982 1.415 . S
C984 C989 1.425 . S
C984 C991 1.409 . S
C985 H977 0.930 . S
C985 C983 1.419 . S
C985 C986 1.362 . S
C986 H978 0.930 . S
C986 C985 1.362 . S
C986 C989 1.409 . S
C987 H979 0.930 . S
C987 C988 1.355 . S
C987 C989 1.415 . S
C988 C987 1.355 . S
C988 C990 1.419 . S
C989 C984 1.425 . S
C989 C986 1.409 . S
C989 C987 1.415 . S
C990 H980 0.930 . S
C990 C988 1.419 . S
C990 C991 1.362 . S
C991 H981 0.930 . S
C991 C984 1.409 . S
C991 C990 1.362 . S
H992 C998 0.930 . S
H993 C1001 0.930 . S
H994 C1002 0.930 . S
H995 C1003 0.930 . S
H996 C1006 0.930 . S
H997 C1007 0.930 . S
C998 H992 0.930 . S
C998 C999 1.355 . S
C998 C1000 1.415 . S
C999 C998 1.355 . S
C999 C1001 1.419 . S
C1000 C998 1.415 . S
C1000 C1005 1.425 . S
C1000 C1007 1.409 . S
C1001 H993 0.930 . S
C1001 C999 1.419 . S
C1001 C1002 1.362 . S
C1002 H994 0.930 . S
C1002 C1001 1.362 . S
C1002 C1005 1.409 . S
C1003 H995 0.930 . S
C1003 C1004 1.355 . S
C1003 C1005 1.415 . S
C1004 C1003 1.355 . S
C1004 C1006 1.419 . S
C1005 C1000 1.425 . S
C1005 C1002 1.409 . S
C1005 C1003 1.415 . S
C1006 H996 0.930 . S
C1006 C1004 1.419 . S
C1006 C1007 1.362 . S
C1007 H997 0.930 . S
C1007 C1000 1.409 . S
C1007 C1006 1.362 . S
H1008 C1014 0.930 . S
H1009 C1017 0.930 . S
H1010 C1018 0.930 . S
H1011 C1019 0.930 . S
H1012 C1022 0.930 . S
H1013 C1023 0.930 . S
C1014 H1008 0.930 . S
C1014 C1015 1.355 1_556 S
C1014 C1016 1.415 . S
C1015 C1014 1.355 1_554 S
C1015 C1017 1.419 . S
C1016 C1014 1.415 . S
C1016 C1021 1.425 1_556 S
C1016 C1023 1.409 . S
C1017 H1009 0.930 . S
C1017 C1015 1.419 . S
C1017 C1018 1.362 . S
C1018 H1010 0.930 . S
C1018 C1017 1.362 . S
C1018 C1021 1.409 . S
C1019 H1011 0.930 . S
C1019 C1020 1.355 1_554 S
C1019 C1021 1.415 . S
C1020 C1019 1.355 1_556 S
C1020 C1022 1.418 . S
C1021 C1016 1.425 1_554 S
C1021 C1018 1.409 . S
C1021 C1019 1.415 . S
C1022 H1012 0.930 . S
C1022 C1020 1.418 . S
C1022 C1023 1.362 . S
C1023 H1013 0.930 . S
C1023 C1016 1.409 . S
C1023 C1022 1.362 . S
H1024 C1030 0.930 . S
H1025 C1033 0.930 . S
H1026 C1034 0.930 . S
H1027 C1035 0.930 . S
H1028 C1038 0.930 . S
H1029 C1039 0.930 . S
C1030 H1024 0.930 . S
C1030 C1031 1.355 . S
C1030 C1032 1.415 . S
C1031 C1030 1.355 . S
C1031 C1033 1.419 . S
C1032 C1030 1.415 . S
C1032 C1037 1.425 . S
C1032 C1039 1.409 . S
C1033 H1025 0.930 . S
C1033 C1031 1.419 . S
C1033 C1034 1.362 . S
C1034 H1026 0.930 . S
C1034 C1033 1.362 . S
C1034 C1037 1.409 . S
C1035 H1027 0.930 . S
C1035 C1036 1.355 . S
C1035 C1037 1.415 . S
C1036 C1035 1.355 . S
C1036 C1038 1.419 . S
C1037 C1032 1.425 . S
C1037 C1034 1.409 . S
C1037 C1035 1.415 . S
C1038 H1028 0.930 . S
C1038 C1036 1.419 . S
C1038 C1039 1.362 . S
C1039 H1029 0.930 . S
C1039 C1032 1.409 . S
C1039 C1038 1.362 . S
H1040 C1046 0.930 . S
H1041 C1049 0.930 . S
H1042 C1050 0.930 . S
H1043 C1051 0.930 . S
H1044 C1054 0.930 . S
H1045 C1055 0.930 . S
C1046 H1040 0.930 . S
C1046 C1047 1.355 . S
C1046 C1048 1.415 . S
C1047 C1046 1.355 . S
C1047 C1049 1.419 . S
C1048 C1046 1.415 . S
C1048 C1053 1.425 . S
C1048 C1055 1.409 . S
C1049 H1041 0.930 . S
C1049 C1047 1.419 . S
C1049 C1050 1.362 . S
C1050 H1042 0.930 . S
C1050 C1049 1.362 . S
C1050 C1053 1.409 . S
C1051 H1043 0.930 . S
C1051 C1052 1.355 . S
C1051 C1053 1.415 . S
C1052 C1051 1.355 . S
C1052 C1054 1.419 . S
C1053 C1048 1.425 . S
C1053 C1050 1.409 . S
C1053 C1051 1.415 . S
C1054 H1044 0.930 . S
C1054 C1052 1.419 . S
C1054 C1055 1.362 . S
C1055 H1045 0.930 . S
C1055 C1048 1.409 . S
C1055 C1054 1.362 . S
H1056 C1062 0.930 . S
H1057 C1065 0.930 . S
H1058 C1066 0.930 . S
H1059 C1067 0.930 . S
H1060 C1070 0.930 . S
H1061 C1071 0.930 . S
C1062 H1056 0.930 . S
C1062 C1063 1.355 . S
C1062 C1064 1.415 . S
C1063 C1062 1.355 . S
C1063 C1065 1.419 . S
C1064 C1062 1.415 . S
C1064 C1069 1.425 . S
C1064 C1071 1.409 . S
C1065 H1057 0.930 . S
C1065 C1063 1.419 . S
C1065 C1066 1.362 . S
C1066 H1058 0.930 . S
C1066 C1065 1.362 . S
C1066 C1069 1.409 . S
C1067 H1059 0.930 . S
C1067 C1068 1.355 . S
C1067 C1069 1.415 . S
C1068 C1067 1.355 . S
C1068 C1070 1.419 . S
C1069 C1064 1.425 . S
C1069 C1066 1.409 . S
C1069 C1067 1.415 . S
C1070 H1060 0.930 . S
C1070 C1068 1.419 . S
C1070 C1071 1.362 . S
C1071 H1061 0.930 . S
C1071 C1064 1.409 . S
C1071 C1070 1.362 . S
H1072 C1078 0.930 . S
H1073 C1081 0.930 . S
H1074 C1082 0.930 . S
H1075 C1083 0.930 . S
H1076 C1086 0.930 . S
H1077 C1087 0.930 . S
C1078 H1072 0.930 . S
C1078 C1079 1.355 . S
C1078 C1080 1.415 . S
C1079 C1078 1.355 . S
C1079 C1081 1.419 . S
C1080 C1078 1.415 . S
C1080 C1085 1.425 . S
C1080 C1087 1.409 . S
C1081 H1073 0.930 . S
C1081 C1079 1.419 . S
C1081 C1082 1.362 . S
C1082 H1074 0.930 . S
C1082 C1081 1.362 . S
C1082 C1085 1.409 . S
C1083 H1075 0.930 . S
C1083 C1084 1.355 . S
C1083 C1085 1.415 . S
C1084 C1083 1.355 . S
C1084 C1086 1.419 . S
C1085 C1080 1.425 . S
C1085 C1082 1.409 . S
C1085 C1083 1.415 . S
C1086 H1076 0.930 . S
C1086 C1084 1.419 . S
C1086 C1087 1.362 . S
C1087 H1077 0.930 . S
C1087 C1080 1.409 . S
C1087 C1086 1.362 . S
H1088 C1094 0.930 . S
H1089 C1097 0.930 . S
H1090 C1098 0.930 . S
H1091 C1099 0.930 . S
H1092 C1102 0.930 . S
H1093 C1103 0.930 . S
C1094 H1088 0.930 . S
C1094 C1095 1.355 . S
C1094 C1096 1.415 . S
C1095 C1094 1.355 . S
C1095 C1097 1.419 . S
C1096 C1094 1.415 . S
C1096 C1101 1.425 . S
C1096 C1103 1.409 . S
C1097 H1089 0.930 . S
C1097 C1095 1.419 . S
C1097 C1098 1.362 . S
C1098 H1090 0.930 . S
C1098 C1097 1.362 . S
C1098 C1101 1.409 . S
C1099 H1091 0.930 . S
C1099 C1100 1.355 . S
C1099 C1101 1.415 . S
C1100 C1099 1.355 . S
C1100 C1102 1.419 . S
C1101 C1096 1.425 . S
C1101 C1098 1.409 . S
C1101 C1099 1.415 . S
C1102 H1092 0.930 . S
C1102 C1100 1.419 . S
C1102 C1103 1.362 . S
C1103 H1093 0.930 . S
C1103 C1096 1.409 . S
C1103 C1102 1.362 . S
H1104 C1110 0.930 . S
H1105 C1113 0.930 . S
H1106 C1114 0.930 . S
H1107 C1115 0.930 . S
H1108 C1118 0.930 . S
H1109 C1119 0.930 . S
C1110 H1104 0.930 . S
C1110 C1111 1.355 . S
C1110 C1112 1.415 . S
C1111 C1110 1.355 . S
C1111 C1113 1.419 . S
C1112 C1110 1.415 . S
C1112 C1117 1.425 . S
C1112 C1119 1.409 . S
C1113 H1105 0.930 . S
C1113 C1111 1.419 . S
C1113 C1114 1.362 . S
C1114 H1106 0.930 . S
C1114 C1113 1.362 . S
C1114 C1117 1.409 . S
C1115 H1107 0.930 . S
C1115 C1116 1.355 . S
C1115 C1117 1.415 . S
C1116 C1115 1.355 . S
C1116 C1118 1.419 . S
C1117 C1112 1.425 . S
C1117 C1114 1.409 . S
C1117 C1115 1.415 . S
C1118 H1108 0.930 . S
C1118 C1116 1.419 . S
C1118 C1119 1.362 . S
C1119 H1109 0.930 . S
C1119 C1112 1.409 . S
C1119 C1118 1.362 . S
H1120 C1126 0.930 . S
H1121 C1129 0.930 . S
H1122 C1130 0.930 . S
H1123 C1131 0.930 . S
H1124 C1134 0.930 . S
H1125 C1135 0.930 . S
C1126 H1120 0.930 . S
C1126 C1127 1.355 . S
C1126 C1128 1.415 . S
C1127 C1126 1.355 . S
C1127 C1129 1.419 . S
C1128 C1126 1.415 . S
C1128 C1133 1.425 . S
C1128 C1135 1.409 . S
C1129 H1121 0.930 . S
C1129 C1127 1.419 . S
C1129 C1130 1.362 . S
C1130 H1122 0.930 . S
C1130 C1129 1.362 . S
C1130 C1133 1.409 . S
C1131 H1123 0.930 . S
C1131 C1132 1.355 . S
C1131 C1133 1.415 . S
C1132 C1131 1.355 . S
C1132 C1134 1.419 . S
C1133 C1128 1.425 . S
C1133 C1130 1.409 . S
C1133 C1131 1.415 . S
C1134 H1124 0.930 . S
C1134 C1132 1.419 . S
C1134 C1135 1.362 . S
C1135 H1125 0.930 . S
C1135 C1128 1.409 . S
C1135 C1134 1.362 . S
H1136 C1142 0.930 . S
H1137 C1145 0.930 . S
H1138 C1146 0.930 . S
H1139 C1147 0.930 . S
H1140 C1150 0.930 . S
H1141 C1151 0.930 . S
C1142 H1136 0.930 . S
C1142 C1143 1.355 . S
C1142 C1144 1.415 . S
C1143 C1142 1.355 . S
C1143 C1145 1.419 . S
C1144 C1142 1.415 . S
C1144 C1149 1.425 . S
C1144 C1151 1.409 . S
C1145 H1137 0.930 . S
C1145 C1143 1.419 . S
C1145 C1146 1.362 . S
C1146 H1138 0.930 . S
C1146 C1145 1.362 . S
C1146 C1149 1.409 . S
C1147 H1139 0.930 . S
C1147 C1148 1.355 . S
C1147 C1149 1.415 . S
C1148 C1147 1.355 . S
C1148 C1150 1.419 . S
C1149 C1144 1.425 . S
C1149 C1146 1.409 . S
C1149 C1147 1.415 . S
C1150 H1140 0.930 . S
C1150 C1148 1.419 . S
C1150 C1151 1.362 . S
C1151 H1141 0.930 . S
C1151 C1144 1.409 . S
C1151 C1150 1.362 . S
H1152 C1158 0.930 . S
H1153 C1161 0.930 . S
H1154 C1162 0.930 . S
H1155 C1163 0.930 . S
H1156 C1166 0.930 . S
H1157 C1167 0.930 . S
C1158 H1152 0.930 . S
C1158 C1159 1.355 . S
C1158 C1160 1.415 . S
C1159 C1158 1.355 . S
C1159 C1161 1.419 . S
C1160 C1158 1.415 . S
C1160 C1165 1.425 . S
C1160 C1167 1.409 . S
C1161 H1153 0.930 . S
C1161 C1159 1.419 . S
C1161 C1162 1.362 . S
C1162 H1154 0.930 . S
C1162 C1161 1.362 . S
C1162 C1165 1.409 . S
C1163 H1155 0.930 . S
C1163 C1164 1.355 . S
C1163 C1165 1.415 . S
C1164 C1163 1.355 . S
C1164 C1166 1.419 . S
C1165 C1160 1.425 . S
C1165 C1162 1.409 . S
C1165 C1163 1.415 . S
C1166 H1156 0.930 . S
C1166 C1164 1.419 . S
C1166 C1167 1.362 . S
C1167 H1157 0.930 . S
C1167 C1160 1.409 . S
C1167 C1166 1.362 . S
H1168 C1174 0.930 . S
H1169 C1177 0.930 . S
H1170 C1178 0.930 . S
H1171 C1179 0.930 . S
H1172 C1182 0.930 . S
H1173 C1183 0.930 . S
C1174 H1168 0.930 . S
C1174 C1175 1.355 . S
C1174 C1176 1.415 . S
C1175 C1174 1.355 . S
C1175 C1177 1.419 . S
C1176 C1174 1.415 . S
C1176 C1181 1.425 . S
C1176 C1183 1.409 . S
C1177 H1169 0.930 . S
C1177 C1175 1.419 . S
C1177 C1178 1.362 . S
C1178 H1170 0.930 . S
C1178 C1177 1.362 . S
C1178 C1181 1.409 . S
C1179 H1171 0.930 . S
C1179 C1180 1.355 . S
C1179 C1181 1.415 . S
C1180 C1179 1.355 . S
C1180 C1182 1.419 . S
C1181 C1176 1.425 . S
C1181 C1178 1.409 . S
C1181 C1179 1.415 . S
C1182 H1172 0.930 . S
C1182 C1180 1.419 . S
C1182 C1183 1.362 . S
C1183 H1173 0.930 . S
C1183 C1176 1.409 . S
C1183 C1182 1.362 . S
H1184 C1190 0.930 . S
H1185 C1193 0.930 . S
H1186 C1194 0.930 . S
H1187 C1195 0.930 . S
H1188 C1198 0.930 . S
H1189 C1199 0.930 . S
C1190 H1184 0.930 . S
C1190 C1191 1.355 . S
C1190 C1192 1.415 . S
C1191 C1190 1.355 . S
C1191 C1193 1.419 . S
C1192 C1190 1.415 . S
C1192 C1197 1.425 . S
C1192 C1199 1.409 . S
C1193 H1185 0.930 . S
C1193 C1191 1.419 . S
C1193 C1194 1.362 . S
C1194 H1186 0.930 . S
C1194 C1193 1.362 . S
C1194 C1197 1.409 . S
C1195 H1187 0.930 . S
C1195 C1196 1.355 . S
C1195 C1197 1.415 . S
C1196 C1195 1.355 . S
C1196 C1198 1.419 . S
C1197 C1192 1.425 . S
C1197 C1194 1.409 . S
C1197 C1195 1.415 . S
C1198 H1188 0.930 . S
C1198 C1196 1.419 . S
C1198 C1199 1.362 . S
C1199 H1189 0.930 . S
C1199 C1192 1.409 . S
C1199 C1198 1.362 . S
H1200 C1206 0.930 . S
H1201 C1209 0.930 . S
H1202 C1210 0.930 . S
H1203 C1211 0.930 . S
H1204 C1214 0.930 . S
H1205 C1215 0.930 . S
C1206 H1200 0.930 . S
C1206 C1207 1.355 . S
C1206 C1208 1.415 . S
C1207 C1206 1.355 . S
C1207 C1209 1.419 . S
C1208 C1206 1.415 . S
C1208 C1213 1.425 . S
C1208 C1215 1.409 . S
C1209 H1201 0.930 . S
C1209 C1207 1.419 . S
C1209 C1210 1.362 . S
C1210 H1202 0.930 . S
C1210 C1209 1.362 . S
C1210 C1213 1.409 . S
C1211 H1203 0.930 . S
C1211 C1212 1.355 . S
C1211 C1213 1.415 . S
C1212 C1211 1.355 . S
C1212 C1214 1.419 . S
C1213 C1208 1.425 . S
C1213 C1210 1.409 . S
C1213 C1211 1.415 . S
C1214 H1204 0.930 . S
C1214 C1212 1.419 . S
C1214 C1215 1.362 . S
C1215 H1205 0.930 . S
C1215 C1208 1.409 . S
C1215 C1214 1.362 . S
H1216 C1222 0.930 . S
H1217 C1225 0.930 . S
H1218 C1226 0.930 . S
H1219 C1227 0.930 . S
H1220 C1230 0.930 . S
H1221 C1231 0.930 . S
C1222 H1216 0.930 . S
C1222 C1223 1.355 . S
C1222 C1224 1.415 . S
C1223 C1222 1.355 . S
C1223 C1225 1.419 . S
C1224 C1222 1.415 . S
C1224 C1229 1.425 . S
C1224 C1231 1.409 . S
C1225 H1217 0.930 . S
C1225 C1223 1.419 . S
C1225 C1226 1.362 . S
C1226 H1218 0.930 . S
C1226 C1225 1.362 . S
C1226 C1229 1.409 . S
C1227 H1219 0.930 . S
C1227 C1228 1.355 . S
C1227 C1229 1.415 . S
C1228 C1227 1.355 . S
C1228 C1230 1.419 . S
C1229 C1224 1.425 . S
C1229 C1226 1.409 . S
C1229 C1227 1.415 . S
C1230 H1220 0.930 . S
C1230 C1228 1.419 . S
C1230 C1231 1.362 . S
C1231 H1221 0.930 . S
C1231 C1224 1.409 . S
C1231 C1230 1.362 . S
H1232 C1238 0.930 . S
H1233 C1241 0.930 . S
H1234 C1242 0.930 . S
H1235 C1243 0.930 . S
H1236 C1246 0.930 . S
H1237 C1247 0.930 . S
C1238 H1232 0.930 . S
C1238 C1239 1.355 . S
C1238 C1240 1.415 . S
C1239 C1238 1.355 . S
C1239 C1241 1.419 . S
C1240 C1238 1.415 . S
C1240 C1245 1.425 . S
C1240 C1247 1.409 . S
C1241 H1233 0.930 . S
C1241 C1239 1.419 . S
C1241 C1242 1.362 . S
C1242 H1234 0.930 . S
C1242 C1241 1.362 . S
C1242 C1245 1.409 . S
C1243 H1235 0.930 . S
C1243 C1244 1.355 . S
C1243 C1245 1.415 . S
C1244 C1243 1.355 . S
C1244 C1246 1.419 . S
C1245 C1240 1.425 . S
C1245 C1242 1.409 . S
C1245 C1243 1.415 . S
C1246 H1236 0.930 . S
C1246 C1244 1.419 . S
C1246 C1247 1.362 . S
C1247 H1237 0.930 . S
C1247 C1240 1.409 . S
C1247 C1246 1.362 . S
H1248 C1254 0.930 . S
H1249 C1257 0.930 . S
H1250 C1258 0.930 . S
H1251 C1259 0.930 . S
H1252 C1262 0.930 . S
H1253 C1263 0.930 . S
C1254 H1248 0.930 . S
C1254 C1255 1.355 . S
C1254 C1256 1.415 . S
C1255 C1254 1.355 . S
C1255 C1257 1.419 . S
C1256 C1254 1.415 . S
C1256 C1261 1.425 . S
C1256 C1263 1.409 . S
C1257 H1249 0.930 . S
C1257 C1255 1.419 . S
C1257 C1258 1.362 . S
C1258 H1250 0.930 . S
C1258 C1257 1.362 . S
C1258 C1261 1.409 . S
C1259 H1251 0.930 . S
C1259 C1260 1.355 . S
C1259 C1261 1.415 . S
C1260 C1259 1.355 . S
C1260 C1262 1.419 . S
C1261 C1256 1.425 . S
C1261 C1258 1.409 . S
C1261 C1259 1.415 . S
C1262 H1252 0.930 . S
C1262 C1260 1.419 . S
C1262 C1263 1.362 . S
C1263 H1253 0.930 . S
C1263 C1256 1.409 . S
C1263 C1262 1.362 . S
H1264 C1270 0.930 . S
H1265 C1273 0.930 . S
H1266 C1274 0.930 . S
H1267 C1275 0.930 . S
H1268 C1278 0.930 . S
H1269 C1279 0.930 . S
C1270 H1264 0.930 . S
C1270 C1271 1.355 . S
C1270 C1272 1.415 . S
C1271 C1270 1.355 . S
C1271 C1273 1.419 . S
C1272 C1270 1.415 . S
C1272 C1277 1.425 . S
C1272 C1279 1.409 . S
C1273 H1265 0.930 . S
C1273 C1271 1.419 . S
C1273 C1274 1.362 . S
C1274 H1266 0.930 . S
C1274 C1273 1.362 . S
C1274 C1277 1.409 . S
C1275 H1267 0.930 . S
C1275 C1276 1.355 . S
C1275 C1277 1.415 . S
C1276 C1275 1.355 . S
C1276 C1278 1.419 . S
C1277 C1272 1.425 . S
C1277 C1274 1.409 . S
C1277 C1275 1.415 . S
C1278 H1268 0.930 . S
C1278 C1276 1.419 . S
C1278 C1279 1.362 . S
C1279 H1269 0.930 . S
C1279 C1272 1.409 . S
C1279 C1278 1.362 . S
H1280 C1286 0.930 . S
H1281 C1289 0.930 . S
H1282 C1290 0.930 . S
H1283 C1291 0.930 . S
H1284 C1294 0.930 . S
H1285 C1295 0.930 . S
C1286 H1280 0.930 . S
C1286 C1287 1.355 . S
C1286 C1288 1.415 . S
C1287 C1286 1.355 . S
C1287 C1289 1.419 . S
C1288 C1286 1.415 . S
C1288 C1293 1.425 . S
C1288 C1295 1.409 . S
C1289 H1281 0.930 . S
C1289 C1287 1.419 . S
C1289 C1290 1.362 . S
C1290 H1282 0.930 . S
C1290 C1289 1.362 . S
C1290 C1293 1.409 . S
C1291 H1283 0.930 . S
C1291 C1292 1.355 . S
C1291 C1293 1.415 . S
C1292 C1291 1.355 . S
C1292 C1294 1.419 . S
C1293 C1288 1.425 . S
C1293 C1290 1.409 . S
C1293 C1291 1.415 . S
C1294 H1284 0.930 . S
C1294 C1292 1.419 . S
C1294 C1295 1.362 . S
C1295 H1285 0.930 . S
C1295 C1288 1.409 . S
C1295 C1294 1.362 . S
C796 C535 1.492 . S
C791 C35 1.269 . S
C812 C572 1.459 . S
C807 C115 1.301 . S
C828 C608 1.525 . S
C823 C177 1.423 . S
C839 C221 1.411 . S
C844 C499 1.550 . S
C855 C283 1.380 1_554 S
C860 C500 1.498 1_556 S
C871 C363 1.289 . S
C876 C536 1.462 . S
C892 C571 1.507 . S
C887 C407 1.317 . S
C908 C607 1.546 . S
C903 C469 1.378 . S
C919 C159 1.279 . S
C924 C679 1.497 . S
C940 C716 1.496 . S
C935 C239 1.309 . S
C951 C53 1.384 . S
C956 C752 1.501 . S
C972 C643 1.526 . S
C967 C97 1.297 . S
C983 C425 1.369 . S
C988 C644 1.537 . S
C999 C487 1.305 . S
C1004 C680 1.494 . S
C1020 C715 1.511 1_556 S
C1015 C301 1.361 1_554 S
C1031 C345 1.338 . S
C1036 C751 1.538 . S
C1052 C570 1.860 . S
C1047 C29 1.833 . S
C1068 C606 1.856 . S
C1063 C109 1.821 . S
C1079 C171 1.710 . S
C1084 C510 1.610 . S
C1095 C215 1.818 . S
C1100 C546 1.701 . S
C1111 C277 1.766 . S
C1116 C618 1.656 . S
C1132 C498 1.859 . S
C1127 C357 1.820 . S
C1148 C534 1.849 . S
C1143 C401 1.842 . S
C1164 C582 1.681 . S
C1159 C463 1.784 . S
C1180 C714 1.850 . S
C1175 C153 1.864 . S
C1196 C750 1.859 . S
C1191 C233 1.820 . S
C1207 C47 1.735 . S
C1212 C654 1.634 . S
C1228 C690 1.667 . S
C1223 C91 1.815 . S
C1244 C762 1.623 . S
C1239 C419 1.711 . S
C1255 C481 1.777 . S
C1260 C642 1.833 . S
C1276 C678 1.848 . S
C1271 C295 1.785 . S
C1292 C726 1.648 . S
C1287 C339 1.779 . S
