# Generated by pormake.
# Topology zzz, (3,6)-cn, num edge types: 1
# Building blocks:
#     Node 0, Type 0, BuildingBlock: CUQRIR_clean_linker_1, # of connection points: 3
#     Node 1, Type 0, BuildingBlock: CUQRIR_clean_linker_1, # of connection points: 3
#     Node 2, Type 0, BuildingBlock: CUQRIR_clean_linker_1, # of connection points: 3
#     Node 3, Type 0, BuildingBlock: CUQRIR_clean_linker_1, # of connection points: 3
#     Node 4, Type 0, BuildingBlock: CUQRIR_clean_linker_1, # of connection points: 3
#     Node 5, Type 0, BuildingBlock: CUQRIR_clean_linker_1, # of connection points: 3
#     Node 6, Type 0, BuildingBlock: CUQRIR_clean_linker_1, # of connection points: 3
#     Node 7, Type 0, BuildingBlock: CUQRIR_clean_linker_1, # of connection points: 3
#     Node 8, Type 1, BuildingBlock: KUMBUR_clean_sbu_0, # of connection points: 6
#     Node 9, Type 1, BuildingBlock: KUMBUR_clean_sbu_0, # of connection points: 6
#     Node 10, Type 1, BuildingBlock: KUMBUR_clean_sbu_0, # of connection points: 6
#     Node 11, Type 1, BuildingBlock: KUMBUR_clean_sbu_0, # of connection points: 6
#     Edge 12, Type (0, 1), BuildingBlock: TEMPAE_clean_linker_10, # of connection points: 2
#     Edge 13, Type (0, 1), BuildingBlock: TEMPAE_clean_linker_10, # of connection points: 2
#     Edge 14, Type (0, 1), BuildingBlock: TEMPAE_clean_linker_10, # of connection points: 2
#     Edge 15, Type (0, 1), BuildingBlock: TEMPAE_clean_linker_10, # of connection points: 2
#     Edge 16, Type (0, 1), BuildingBlock: TEMPAE_clean_linker_10, # of connection points: 2
#     Edge 17, Type (0, 1), BuildingBlock: TEMPAE_clean_linker_10, # of connection points: 2
#     Edge 18, Type (0, 1), BuildingBlock: TEMPAE_clean_linker_10, # of connection points: 2
#     Edge 19, Type (0, 1), BuildingBlock: TEMPAE_clean_linker_10, # of connection points: 2
#     Edge 20, Type (0, 1), BuildingBlock: TEMPAE_clean_linker_10, # of connection points: 2
#     Edge 21, Type (0, 1), BuildingBlock: TEMPAE_clean_linker_10, # of connection points: 2
#     Edge 22, Type (0, 1), BuildingBlock: TEMPAE_clean_linker_10, # of connection points: 2
#     Edge 23, Type (0, 1), BuildingBlock: TEMPAE_clean_linker_10, # of connection points: 2
#     Edge 24, Type (0, 1), BuildingBlock: TEMPAE_clean_linker_10, # of connection points: 2
#     Edge 25, Type (0, 1), BuildingBlock: TEMPAE_clean_linker_10, # of connection points: 2
#     Edge 26, Type (0, 1), BuildingBlock: TEMPAE_clean_linker_10, # of connection points: 2
#     Edge 27, Type (0, 1), BuildingBlock: TEMPAE_clean_linker_10, # of connection points: 2
#     Edge 28, Type (0, 1), BuildingBlock: TEMPAE_clean_linker_10, # of connection points: 2
#     Edge 29, Type (0, 1), BuildingBlock: TEMPAE_clean_linker_10, # of connection points: 2
#     Edge 30, Type (0, 1), BuildingBlock: TEMPAE_clean_linker_10, # of connection points: 2
#     Edge 31, Type (0, 1), BuildingBlock: TEMPAE_clean_linker_10, # of connection points: 2
#     Edge 32, Type (0, 1), BuildingBlock: TEMPAE_clean_linker_10, # of connection points: 2
#     Edge 33, Type (0, 1), BuildingBlock: TEMPAE_clean_linker_10, # of connection points: 2
#     Edge 34, Type (0, 1), BuildingBlock: TEMPAE_clean_linker_10, # of connection points: 2
#     Edge 35, Type (0, 1), BuildingBlock: TEMPAE_clean_linker_10, # of connection points: 2
# Relax obj value: 0.205
# Max RMSD: 0.169
# Mean RMSD: 0.119
data_MOF--net-zzz--node1-KUMBUR_clean_sbu_0--node2-CUQRIR_clean_linker_1--edge1-TEMPAE_clean_linker_10
_symmetry_space_group_name_H-M    P1
_symmetry_Int_Tables_number       1
_symmetry_cell_setting            triclinic
loop_
_symmetry_equiv_pos_as_xyz
'x, y, z'
_cell_length_a     47.548612
_cell_length_b     47.659327
_cell_length_c     13.524858
_cell_angle_alpha  91.116041
_cell_angle_beta   89.796398
_cell_angle_gamma 89.880706
loop_
_atom_site_label
_atom_site_type_symbol
_atom_site_fract_x
_atom_site_fract_y
_atom_site_fract_z
_atom_type_partial_charge
C0 C 0.74637 0.53107 0.29774 0.0
N1 N 0.76947 0.54725 0.31868 0.0
N2 N 0.7258 0.54616 0.25198 0.0
C3 C 0.74406 0.50051 0.32014 0.0
C4 C 0.73746 0.57196 0.24518 0.0
N5 N 0.76397 0.57263 0.28265 0.0
C6 C 0.7234 0.59621 0.19506 0.0
H7 H 0.75448 0.48815 0.26 0.0
H8 H 0.72168 0.49404 0.32443 0.0
H9 H 0.75488 0.49589 0.39057 0.0
H10 H 0.7023 0.59994 0.2279 0.0
H11 H 0.72041 0.59092 0.11551 0.0
H12 H 0.73578 0.61583 0.20287 0.0
C13 C 0.01693 0.76078 0.28634 0.0
N14 N 1.00056 0.78342 0.31285 0.0
N15 N 1.00109 0.73845 0.25401 0.0
C16 C 0.0484 0.76079 0.2898 0.0
C17 C 0.97449 0.74852 0.26428 0.0
N18 N 0.97394 0.77622 0.29237 0.0
C19 C 0.9486 0.73067 0.25071 0.0
H20 H 0.05654 0.77289 0.22656 0.0
H21 H 0.05688 0.73909 0.28495 0.0
H22 H 0.05572 0.77133 0.3589 0.0
H23 H 0.94915 0.71316 0.30343 0.0
H24 H 0.94825 0.72135 0.17486 0.0
H25 H 0.92905 0.74282 0.26547 0.0
C26 C 0.7826 1.0026 0.30536 0.0
N27 N 0.75655 0.9905 0.29885 0.0
N28 N 0.80276 0.98662 0.25852 0.0
C29 C 0.78803 0.03061 0.35356 0.0
C30 C 0.78789 0.96404 0.22653 0.0
N31 N 0.75974 0.96713 0.24318 0.0
C32 C 0.80115 0.93857 0.17736 0.0
H33 H 0.77742 0.0471 0.31041 0.0
H34 H 0.8109 0.03509 0.35748 0.0
H35 H 0.77884 0.03118 0.42911 0.0
H36 H 0.81671 0.92933 0.22827 0.0
H37 H 0.81269 0.94475 0.10971 0.0
H38 H 0.78527 0.92229 0.15878 0.0
C39 C 0.54617 0.79212 0.2938 0.0
N40 N 0.55526 0.76484 0.29521 0.0
N41 N 0.55899 0.80667 0.21973 0.0
C42 C 0.52381 0.80412 0.3607 0.0
C43 C 0.57604 0.78719 0.17643 0.0
N44 N 0.57397 0.76226 0.22189 0.0
C45 C 0.59291 0.79195 0.08359 0.0
H46 H 0.50294 0.79727 0.33303 0.0
H47 H 0.52453 0.82741 0.36226 0.0
H48 H 0.52629 0.7962 0.43672 0.0
H49 H 0.61205 0.80412 0.10294 0.0
H50 H 0.58051 0.80438 0.03051 0.0
H51 H 0.59963 0.77203 0.04696 0.0
C52 C 0.30064 0.52069 0.06256 0.0
N53 N 0.27663 0.50523 0.04829 0.0
N54 N 0.31953 0.50706 0.12112 0.0
C55 C 0.30538 0.5493 0.02196 0.0
C56 C 0.30598 0.48303 0.14238 0.0
N57 N 0.27994 0.48204 0.10138 0.0
C58 C 0.31762 0.46124 0.21042 0.0
H59 H 0.29569 0.55093 0.94775 0.0
H60 H 0.3282 0.55399 0.01759 0.0
H61 H 0.29525 0.56509 0.07192 0.0
H62 H 0.31779 0.4698 0.28732 0.0
H63 H 0.3397 0.45626 0.18963 0.0
H64 H 0.30504 0.44166 0.20745 0.0
C65 C 0.0378 0.29185 0.08916 0.0
N66 N 0.04832 0.26496 0.09953 0.0
N67 N 0.04491 0.30923 0.16797 0.0
C68 C 0.0213 0.30159 1.00221 0.0
C69 C 0.06006 0.29216 0.22575 0.0
N70 N 0.06217 0.26597 0.18546 0.0
C71 C 0.07064 0.30031 0.32769 0.0
H72 H 0.02875 0.29092 0.93331 0.0
H73 H 0.02316 0.32467 0.99482 0.0
H74 H 0.99879 0.29645 0.0136 0.0
H75 H 0.06352 0.32142 0.35277 0.0
H76 H 0.09396 0.3002 0.32706 0.0
H77 H 0.06352 0.28479 0.38251 0.0
C78 C 0.25612 0.0392 0.08171 0.0
N79 N 0.2807 0.05371 0.0686 0.0
N80 N 0.2369 0.05457 0.13629 0.0
C81 C 0.25154 1.00962 0.04635 0.0
C82 C 0.25097 0.07878 0.15539 0.0
N83 N 0.27732 0.07819 0.11622 0.0
C84 C 0.24038 0.10154 0.22534 0.0
H85 H 0.22874 1.00504 0.03971 0.0
H86 H 0.26085 0.99515 0.10064 0.0
H87 H 0.26222 1.00591 0.97415 0.0
H88 H 0.23425 0.09223 0.29685 0.0
H89 H 0.22141 0.11146 0.19375 0.0
H90 H 0.25621 0.11822 0.23868 0.0
C91 C 0.50045 0.25255 0.05618 0.0
N92 N 0.49161 0.27979 0.0502 0.0
N93 N 0.48875 0.23968 0.13604 0.0
C94 C 0.52104 0.23885 0.98643 0.0
C95 C 0.47281 0.26022 0.17842 0.0
N96 N 0.47449 0.28427 0.12702 0.0
C97 C 0.45698 0.25709 0.27433 0.0
H98 H 0.51842 0.24707 0.91079 0.0
H99 H 0.5184 0.21571 0.98539 0.0
H100 H 0.54267 0.24386 0.0116 0.0
H101 H 0.4713 0.24876 0.33143 0.0
H102 H 0.43978 0.24167 0.26356 0.0
H103 H 0.44757 0.27712 0.30137 0.0
Tb104 Tb 0.04949 1.01545 0.80271 0.0
C105 C 0.94063 0.99427 0.58748 0.0
C106 C 0.95085 0.96171 0.4526 0.0
C107 C 0.90422 0.96265 0.52649 0.0
C108 C 0.95956 0.98296 0.51995 0.0
C109 C 0.91258 0.98465 0.59024 0.0
C110 C 0.92335 0.95116 0.45799 0.0
C111 C 0.9024 0.02072 0.71304 0.0
N112 N 0.9494 1.01556 0.64773 0.0
C113 C 0.93034 0.02962 0.70742 0.0
C114 C 0.89356 0.99787 0.65525 0.0
Tb115 Tb 0.99588 0.02856 0.63214 0.0
N116 N 0.98613 0.99348 0.51765 0.0
C117 C 1.00423 0.98485 0.44402 0.0
C118 C 0.96986 0.95196 0.38078 0.0
C119 C 0.99652 0.96387 0.37571 0.0
H120 H 0.93701 0.04727 0.75283 0.0
H121 H 1.01124 0.95693 0.31905 0.0
H122 H 0.91659 0.93432 0.40877 0.0
H123 H 0.88775 0.03143 0.76227 0.0
H124 H 0.02495 0.99337 0.43721 0.0
H125 H 0.03115 0.08149 0.1298 0.0
H126 H 0.96397 0.93572 0.32771 0.0
H127 H 0.1113 0.99727 0.70141 0.0
H128 H 0.02077 0.04368 0.01331 0.0
H129 H 0.15933 0.01649 0.69295 0.0
H130 H 0.88288 0.95474 0.52826 0.0
H131 H 0.0753 0.10808 0.11608 0.0
H132 H 0.12128 0.11537 0.02798 0.0
H133 H 0.87189 0.99102 0.65971 0.0
H134 H 0.15659 0.09732 0.90975 0.0
N135 N 0.05726 0.04977 0.92272 0.0
C136 C 0.03951 0.05552 1.0007 0.0
C137 C 0.07042 0.09201 0.06107 0.0
C138 C 0.08946 0.08496 0.98566 0.0
C139 C 0.04555 0.07693 0.06942 0.0
C140 C 0.08246 0.06308 0.91837 0.0
H141 H 0.17124 0.05994 0.78642 0.0
N142 N 0.09568 0.03 0.7968 0.0
C143 C 0.1435 0.027 0.73797 0.0
C144 C 0.10236 0.05287 0.85272 0.0
C145 C 0.11626 0.01613 0.74332 0.0
C146 C 0.15009 0.05161 0.79034 0.0
C147 C 0.12964 0.06449 0.85049 0.0
O148 O 0.07871 0.9884 0.86811 0.0
O149 O 0.02061 0.99532 0.69655 0.0
O150 O 0.97793 1.00397 0.75297 0.0
O151 O 1.00726 0.01887 0.87781 0.0
O152 O 0.06082 0.98168 0.6954 0.0
O153 O 0.03557 0.98829 0.91368 0.0
O154 O 0.96544 0.05603 0.57861 0.0
O155 O 0.02602 0.04839 0.73417 0.0
O156 O 0.06894 0.03703 0.67615 0.0
O157 O 0.03717 0.02722 0.55117 0.0
O158 O 0.98732 0.06491 0.73525 0.0
O159 O 1.00505 0.05094 0.50309 0.0
C160 C 0.03674 0.977 0.65603 0.0
C161 C 0.05725 0.94433 0.88808 0.0
C162 C 0.03006 0.90106 0.88936 0.0
C163 C 0.0341 0.92894 0.92139 0.0
C164 C 0.04949 0.88873 0.82276 0.0
C165 C 0.07683 0.93133 0.82353 0.0
C166 C 0.07276 0.90377 0.79061 0.0
C167 C 0.98238 1.00919 0.84782 0.0
C168 C 0.05919 0.97453 0.91297 0.0
C169 C 0.13592 0.0878 0.91138 0.0
C170 C 0.11583 0.09804 0.97884 0.0
C171 C 1.01174 0.06818 0.77371 0.0
C172 C 0.98581 0.09657 0.52397 0.0
C173 C 1.01156 0.10789 0.55488 0.0
C174 C 1.01454 0.13688 0.57086 0.0
C175 C 0.99032 0.15401 0.56494 0.0
C176 C 0.96223 0.11403 0.51579 0.0
C177 C 0.96442 0.14257 0.53805 0.0
C178 C 0.06297 0.03416 0.58088 0.0
C179 C 0.98236 0.0662 0.51354 0.0
H180 H 0.01941 0.93864 0.97323 0.0
H181 H 0.04701 0.86726 0.79684 0.0
H182 H 0.09492 0.94262 0.79624 0.0
H183 H 0.08768 0.89404 0.7399 0.0
H184 H 0.02939 0.0941 0.56505 0.0
H185 H 0.99141 0.17655 0.57522 0.0
H186 H 0.94199 0.10542 0.49476 0.0
H187 H 0.94614 0.15601 0.53224 0.0
Tb188 Tb 0.52687 0.04677 0.76647 0.0
C189 C 0.53737 0.93968 0.50968 0.0
C190 C 0.57215 0.95019 0.38557 0.0
C191 C 0.56382 0.90175 0.42957 0.0
C192 C 0.5516 0.959 0.45525 0.0
C193 C 0.54294 0.91072 0.49686 0.0
C194 C 0.57846 0.9215 0.37407 0.0
C195 C 0.50537 0.90159 0.61189 0.0
N196 N 0.51721 0.94928 0.57262 0.0
C197 C 0.50047 0.93048 0.62099 0.0
C198 C 0.52688 0.89165 0.55015 0.0
Tb199 Tb 0.50946 0.99714 0.58201 0.0
N200 N 0.54482 0.98644 0.46908 0.0
C201 C 0.55759 1.00618 0.41181 0.0
C202 C 0.58538 0.9704 0.3284 0.0
C203 C 0.5779 0.99851 0.34124 0.0
H204 H 0.48365 0.9377 0.66883 0.0
H205 H 0.58785 1.01439 0.29707 0.0
H206 H 0.59425 0.91435 0.32132 0.0
H207 H 0.49247 0.88702 0.6523 0.0
H208 H 0.55306 0.02817 0.42065 0.0
H209 H 0.47268 0.99338 0.07175 0.0
H210 H 0.60115 0.96451 0.27375 0.0
H211 H 0.51923 0.11341 0.69494 0.0
H212 H 0.49347 0.99508 0.90908 0.0
H213 H 0.49977 0.15723 0.76114 0.0
H214 H 0.56844 0.87963 0.41868 0.0
H215 H 0.46182 0.03706 0.16477 0.0
H216 H 0.45931 0.08942 0.16664 0.0
H217 H 0.53052 0.86925 0.54259 0.0
H218 H 0.46262 0.13331 0.07558 0.0
N219 N 0.49963 0.03987 0.90954 0.0
C220 C 0.49132 1.01471 0.94879 0.0
C221 C 0.47199 0.0381 0.09315 0.0
C222 C 0.47703 0.06373 0.04856 0.0
C223 C 0.47828 1.01346 0.0413 0.0
C224 C 0.4904 0.06392 0.95499 0.0
H225 H 0.47658 0.15854 0.92471 0.0
N226 N 0.50474 0.08811 0.81413 0.0
C227 C 0.49731 0.13811 0.80214 0.0
C228 C 0.49263 0.08874 0.90491 0.0
C229 C 0.5079 0.11278 0.76411 0.0
C230 C 0.48438 0.13878 0.89439 0.0
C231 C 0.48219 0.11404 0.94735 0.0
O232 O 0.55436 0.07709 0.71131 0.0
O233 O 0.54224 0.02498 0.63264 0.0
O234 O 0.5294 0.97326 0.70352 0.0
O235 O 0.53552 1.00575 0.83504 0.0
O236 O 0.56779 0.02509 0.7522 0.0
O237 O 0.55219 0.06898 0.86811 0.0
O238 O 0.47141 0.97881 0.53556 0.0
O239 O 0.4921 0.02699 0.69297 0.0
O240 O 0.50226 0.06686 0.64747 0.0
O241 O 0.51429 0.03892 0.51471 0.0
O242 O 0.476 0.98789 0.6895 0.0
O243 O 0.49177 1.00889 0.44582 0.0
C244 C 0.56665 0.01732 0.66071 0.0
C245 C 0.59592 0.08291 0.8004 0.0
C246 C 0.64027 0.05932 0.83163 0.0
C247 C 0.61104 0.06087 0.84216 0.0
C248 C 0.65456 0.08099 0.78344 0.0
C249 C 0.61038 0.1044 0.7526 0.0
C250 C 0.63965 0.10354 0.74504 0.0
C251 C 0.53532 0.97949 0.79792 0.0
C252 C 0.56512 0.0825 0.79809 0.0
C253 C 0.47027 0.11404 0.04192 0.0
C254 C 0.46818 0.08902 0.09316 0.0
C255 C 0.47308 1.01197 0.73169 0.0
C256 C 0.44357 0.01588 0.47994 0.0
C257 C 0.44301 0.04203 0.43381 0.0
C258 C 0.42229 0.06204 0.45891 0.0
C259 C 0.40284 0.056 0.53427 0.0
C260 C 0.42266 1.00969 0.55007 0.0
C261 C 0.40287 0.02986 0.57831 0.0
C262 C 0.50626 0.06361 0.55109 0.0
C263 C 0.46803 0.99701 0.46692 0.0
H264 H 0.6001 0.04474 0.8824 0.0
H265 H 0.6772 0.08035 0.77456 0.0
H266 H 0.59898 0.12152 0.71949 0.0
H267 H 0.65074 0.12005 0.70743 0.0
H268 H 0.45862 0.0468 0.37799 0.0
H269 H 0.38639 0.07074 0.55499 0.0
H270 H 0.42227 0.98967 0.58654 0.0
H271 H 0.3874 0.02507 0.63412 0.0
Tb272 Tb 0.54919 0.51732 0.6075 0.0
C273 C 0.436 0.50079 0.80296 0.0
C274 C 0.40158 0.52482 0.70425 0.0
C275 C 0.38737 0.48483 0.80059 0.0
C276 C 0.42967 0.52134 0.73578 0.0
C277 C 0.41472 0.48288 0.83834 0.0
C278 C 0.38078 0.50586 0.73388 0.0
C279 C 0.44774 0.46535 0.95689 0.0
N280 N 0.46236 0.5002 0.841 0.0
C281 C 0.46807 0.48361 0.92039 0.0
C282 C 0.4211 0.46461 0.91464 0.0
Tb283 Tb 0.49409 0.5314 0.77633 0.0
N284 N 0.4502 0.53975 0.71 0.0
C285 C 0.44295 0.56347 0.6602 0.0
C286 C 0.39474 0.5483 0.64939 0.0
C287 C 0.41546 0.56779 0.62784 0.0
H288 H 0.48869 0.48349 0.95263 0.0
H289 H 0.41019 0.58651 0.58771 0.0
H290 H 0.35927 0.50803 0.70893 0.0
H291 H 0.45256 0.45181 0.01755 0.0
H292 H 0.4578 0.57952 0.64387 0.0
H293 H 0.62902 0.45696 0.80016 0.0
H294 H 0.37323 0.55235 0.62811 0.0
H295 H 0.55793 0.56697 0.4393 0.0
H296 H 0.582 0.46697 0.74607 0.0
H297 H 0.59568 0.59887 0.38693 0.0
H298 H 0.37086 0.47107 0.82612 0.0
H299 H 0.66797 0.48883 0.76082 0.0
H300 H 0.68434 0.53361 0.68899 0.0
H301 H 0.40533 0.45062 0.94396 0.0
H302 H 0.675 0.57308 0.57982 0.0
N303 N 0.59205 0.50615 0.67751 0.0
C304 C 0.59777 0.48204 0.728 0.0
C305 C 0.64677 0.49428 0.73963 0.0
C306 C 0.64132 0.51863 0.68762 0.0
C307 C 0.62492 0.47601 0.76028 0.0
C308 C 0.6136 0.5238 0.65505 0.0
H309 H 0.64215 0.59722 0.46538 0.0
N310 N 0.58252 0.54818 0.55199 0.0
C311 C 0.59937 0.58434 0.44538 0.0
C312 C 0.60855 0.54578 0.59193 0.0
C313 C 0.57814 0.56612 0.47522 0.0
C314 C 0.62564 0.58336 0.49018 0.0
C315 C 0.63078 0.56341 0.56227 0.0
O316 O 0.57256 0.50661 0.48 0.0
O317 O 0.50349 0.51951 0.62479 0.0
O318 O 0.49486 0.48526 0.74865 0.0
O319 O 0.53984 0.47793 0.68651 0.0
O320 O 0.51971 0.53537 0.49868 0.0
O321 O 0.53964 0.47983 0.53107 0.0
O322 O 0.47164 0.54379 0.90444 0.0
O323 O 0.53965 0.52903 0.75843 0.0
O324 O 0.54835 0.56314 0.63794 0.0
O325 O 0.50228 0.56995 0.68862 0.0
O326 O 0.52392 0.51439 0.88612 0.0
O327 O 0.50302 0.57046 0.84324 0.0
C328 C 0.49639 0.53041 0.54356 0.0
C329 C 0.54264 0.48701 0.35981 0.0
C330 C 0.50405 0.47378 0.25112 0.0
C331 C 0.51729 0.47279 0.34313 0.0
C332 C 0.51602 0.49002 0.17636 0.0
C333 C 0.55465 0.50266 0.28359 0.0
C334 C 0.54134 0.50404 0.19233 0.0
C335 C 0.51619 0.46825 0.7258 0.0
C336 C 0.55598 0.48595 0.45741 0.0
C337 C 0.65779 0.55958 0.60104 0.0
C338 C 0.6631 0.53709 0.66304 0.0
C339 C 0.5471 0.5185 0.83965 0.0
C340 C 0.50084 0.56809 0.01695 0.0
C341 C 0.52639 0.58252 0.02703 0.0
C342 C 0.54074 0.5834 0.11763 0.0
C343 C 0.52871 0.56974 0.19895 0.0
C344 C 0.48894 0.55528 0.09963 0.0
C345 C 0.5028 0.55629 0.19006 0.0
C346 C 0.52627 0.57977 0.65179 0.0
C347 C 0.48724 0.5657 0.91953 0.0
H348 H 0.50874 0.45947 0.39995 0.0
H349 H 0.50646 0.49081 0.1043 0.0
H350 H 0.57419 0.51392 0.29449 0.0
H351 H 0.55057 0.51621 0.13402 0.0
H352 H 0.53467 0.5937 0.96441 0.0
H353 H 0.53925 0.56917 0.26956 0.0
H354 H 0.46924 0.54402 0.09402 0.0
H355 H 0.494 0.54561 0.25257 0.0
Tb356 Tb 0.03325 0.55347 0.59156 0.0
C357 C 0.03627 0.44553 0.82851 0.0
C358 C 1.01448 0.41094 0.72072 0.0
C359 C 0.0478 0.39599 0.84448 0.0
C360 C 0.01852 0.43928 0.75056 0.0
C361 C 0.05049 0.42387 0.87807 0.0
C362 C 0.02977 0.38953 0.76602 0.0
C363 C 0.066 0.45816 0.99907 0.0
N364 N 0.03785 0.47255 0.86099 0.0
C365 C 0.0515 0.47887 0.94796 0.0
C366 C 0.06599 0.43063 0.96274 0.0
Tb367 Tb 1.01367 0.50535 0.77173 0.0
N368 N 1.00389 0.46058 0.70852 0.0
C369 C 0.98336 0.45398 0.64038 0.0
C370 C 0.99442 0.4047 0.64878 0.0
C371 C 0.97864 0.42626 0.60923 0.0
H372 H 0.05177 0.50009 0.97695 0.0
H373 H 0.96282 0.42161 0.55399 0.0
H374 H 0.02714 0.3678 0.74289 0.0
H375 H 0.07726 0.46343 0.06624 0.0
H376 H 0.97084 0.46946 0.60448 0.0
H377 H 0.09645 0.63113 0.79197 0.0
H378 H 0.9905 0.38323 0.62523 0.0
H379 H 0.99087 0.56861 0.40266 0.0
H380 H 0.08654 0.58544 0.72151 0.0
H381 H 0.95675 0.60592 0.36176 0.0
H382 H 0.05876 0.37916 0.88103 0.0
H383 H 0.06325 0.67016 0.77096 0.0
H384 H 0.01755 0.68767 0.70506 0.0
H385 H 0.07721 0.41459 1.00228 0.0
H386 H 0.97815 0.68029 0.59075 0.0
N387 N 0.04544 0.59596 0.66664 0.0
C388 C 0.07052 0.60107 0.71397 0.0
C389 C 0.0577 0.64944 0.7438 0.0
C390 C 0.03283 0.64485 0.6917 0.0
C391 C 0.07669 0.62753 0.75429 0.0
C392 C 0.02758 0.61778 0.65138 0.0
H393 H 0.95545 0.64989 0.46075 0.0
N394 N 1.00469 0.58906 0.53523 0.0
C395 C 0.97037 0.60842 0.42504 0.0
C396 C 1.00594 0.61392 0.58514 0.0
C397 C 0.98931 0.58721 0.44951 0.0
C398 C 0.96948 0.6331 0.48179 0.0
C399 C 0.98838 0.63665 0.55989 0.0
O400 O 0.04585 0.57439 0.46311 0.0
O401 O 0.03037 0.50847 0.62132 0.0
O402 O 0.06048 0.50501 0.77543 0.0
O403 O 0.07187 0.54264 0.67636 0.0
O404 O 0.0179 0.5217 0.48526 0.0
O405 O 0.07223 0.54325 0.52711 0.0
O406 O 0.99578 0.4902 0.90341 0.0
O407 O 0.01792 0.55026 0.74207 0.0
O408 O 0.98673 0.5477 0.57653 0.0
O409 O 0.9756 0.51107 0.68016 0.0
O410 O 0.03291 0.53652 0.87315 0.0
O411 O 0.97533 0.52239 0.82177 0.0
C412 C 0.02158 0.49949 0.5367 0.0
C413 C 0.07139 0.54482 0.35311 0.0
C414 C 0.09687 0.51119 0.24971 0.0
C415 C 0.09064 0.5227 0.34286 0.0
C416 C 0.08309 0.5212 0.16596 0.0
C417 C 0.05744 0.55462 0.26892 0.0
C418 C 0.06299 0.54247 0.17596 0.0
C419 C 0.07925 0.52277 0.73906 0.0
C420 C 0.0678 0.55864 0.45057 0.0
C421 C 0.99167 0.66274 0.60815 0.0
C422 C 1.0141 0.66693 0.67322 0.0
C423 C 0.02894 0.55884 0.82329 0.0
C424 C 0.97327 0.52713 0.99399 0.0
C425 C 0.95077 0.54607 0.99894 0.0
C426 C 0.94649 0.56314 0.08306 0.0
C427 C 0.96545 0.56185 0.16185 0.0
C428 C 0.99203 0.52576 0.0739 0.0
C429 C 0.98808 0.54317 0.15722 0.0
C430 C 0.96834 0.52946 0.61232 0.0
C431 C 0.97626 0.50923 0.90464 0.0
H432 H 0.10255 0.51584 0.40634 0.0
H433 H 0.08902 0.51367 0.09279 0.0
H434 H 0.0427 0.57195 0.27445 0.0
H435 H 0.05256 0.55034 0.11117 0.0
H436 H 0.93569 0.5466 0.93895 0.0
H437 H 0.96177 0.57398 0.22902 0.0
H438 H 1.00941 0.51108 0.07289 0.0
H439 H 1.00191 0.54142 0.21999 0.0
C440 C 0.2079 0.02567 0.25175 0.0
C441 C 0.20987 0.04702 0.18161 0.0
C442 C 0.18342 0.02236 0.31164 0.0
C443 C 0.16017 0.04113 0.30372 0.0
C444 C 0.1619 0.06218 0.23092 0.0
C445 C 0.18621 0.06449 0.17041 0.0
C446 C 0.18281 0.99925 0.38613 0.0
C447 C 0.13832 0.08295 0.21823 0.0
C448 C 0.08667 0.02342 0.41349 0.0
C449 C 0.08682 0.03734 0.5064 0.0
C450 C 0.11013 0.02426 0.3478 0.0
C451 C 0.13475 0.03964 0.37376 0.0
C452 C 0.13462 0.05443 0.46623 0.0
C453 C 0.111 0.05304 0.53063 0.0
C454 C 0.1086 1.00839 0.25041 0.0
C455 C 0.1595 0.07206 0.49717 0.0
H456 H 0.22602 1.01229 0.26281 0.0
H457 H 0.18726 0.08097 0.11646 0.0
H458 H 0.18254 1.00851 0.46205 0.0
H459 H 0.16333 0.98669 0.37725 0.0
H460 H 0.20129 0.98505 0.37872 0.0
H461 H 0.14523 0.10158 0.17663 0.0
H462 H 0.12088 0.07261 0.17751 0.0
H463 H 0.12991 0.09023 0.29075 0.0
H464 H 0.06844 1.01119 0.39263 0.0
H465 H 0.1115 0.06444 0.60073 0.0
H466 H 0.12705 0.99424 0.24185 0.0
H467 H 0.10929 0.02339 0.18873 0.0
H468 H 0.0891 0.99573 0.24353 0.0
H469 H 0.17866 0.0588 0.5003 0.0
H470 H 0.1563 0.08247 0.57059 0.0
H471 H 0.16339 0.08844 0.44149 0.0
C472 C 0.5186 0.20442 0.22038 0.0
C473 C 0.49304 0.2118 0.17617 0.0
C474 C 0.52104 0.1801 0.27887 0.0
C475 C 0.49746 0.16214 0.29269 0.0
C476 C 0.47176 0.16947 0.24608 0.0
C477 C 0.46999 0.19389 0.18875 0.0
C478 C 0.54864 0.17449 0.32948 0.0
C479 C 0.44531 0.15273 0.26096 0.0
C480 C 0.51422 0.08774 0.3872 0.0
C481 C 0.50261 0.08819 0.48305 0.0
C482 C 0.51261 0.11124 0.32474 0.0
C483 C 0.49928 0.13651 0.35835 0.0
C484 C 0.48721 0.13686 0.45501 0.0
C485 C 0.48847 0.11273 0.51435 0.0
C486 C 0.52604 0.1086 0.22372 0.0
C487 C 0.47299 0.16264 0.49855 0.0
H488 H 0.53631 0.21853 0.21343 0.0
H489 H 0.45 0.19971 0.15667 0.0
H490 H 0.54524 0.16695 0.40575 0.0
H491 H 0.5603 0.158 0.28733 0.0
H492 H 0.56207 0.19353 0.33314 0.0
H493 H 0.43101 0.15426 0.19649 0.0
H494 H 0.44993 0.13034 0.27416 0.0
H495 H 0.43388 0.16155 0.326 0.0
H496 H 0.52508 0.06902 0.36077 0.0
H497 H 0.47838 0.1133 0.58624 0.0
H498 H 0.54911 0.11122 0.23129 0.0
H499 H 0.51816 0.12434 0.17124 0.0
H500 H 0.52256 0.08727 0.19157 0.0
H501 H 0.47829 0.16514 0.57817 0.0
H502 H 0.44986 0.15989 0.49413 0.0
H503 H 0.47886 0.18221 0.46062 0.0
C504 C 0.34305 0.53242 0.26018 0.0
C505 C 0.34502 0.51688 0.17126 0.0
C506 C 0.36662 0.53659 0.32299 0.0
C507 C 0.39329 0.5246 0.29838 0.0
C508 C 0.39554 0.50981 0.20598 0.0
C509 C 0.37154 0.50594 0.14479 0.0
C510 C 0.3621 0.55264 0.41847 0.0
C511 C 0.42297 0.49733 0.1701 0.0
C512 C 0.46232 0.55066 0.42081 0.0
C513 C 0.46839 0.52988 0.4902 0.0
C514 C 0.43793 0.5496 0.36063 0.0
C515 C 0.4185 0.52714 0.36863 0.0
C516 C 0.42411 0.50648 0.44082 0.0
C517 C 0.44888 0.50794 0.49979 0.0
C518 C 0.43311 0.57245 0.28703 0.0
C519 C 0.40397 0.48254 0.45504 0.0
H520 H 0.32257 0.54023 0.28308 0.0
H521 H 0.37334 0.49338 0.07736 0.0
H522 H 0.35636 0.53745 0.47615 0.0
H523 H 0.38127 0.56412 0.4419 0.0
H524 H 0.34453 0.5679 0.41246 0.0
H525 H 0.42823 0.50623 0.09714 0.0
H526 H 0.44092 0.50125 0.22042 0.0
H527 H 0.42044 0.47433 0.15906 0.0
H528 H 0.47706 0.56779 0.41258 0.0
H529 H 0.45325 0.49155 0.55203 0.0
H530 H 0.41291 0.58327 0.3039 0.0
H531 H 0.43138 0.56314 0.21145 0.0
H532 H 0.45027 0.58823 0.28763 0.0
H533 H 0.38343 0.49092 0.48149 0.0
H534 H 0.41183 0.46721 0.50933 0.0
H535 H 0.40024 0.47149 0.38332 0.0
C536 C 0.05676 0.36004 0.18636 0.0
C537 C 0.03714 0.33819 0.19641 0.0
C538 C 0.05421 0.386 0.23988 0.0
C539 C 0.03169 0.39083 0.30803 0.0
C540 C 1.01125 0.3691 0.31567 0.0
C541 C 1.01432 0.34334 0.26107 0.0
C542 C 0.07654 0.40789 0.22674 0.0
C543 C 0.9869 0.37195 0.3867 0.0
C544 C 0.04131 0.44848 0.51662 0.0
C545 C 0.02445 0.47081 0.48385 0.0
C546 C 0.04331 0.42239 0.46239 0.0
C547 C 0.02945 0.41849 0.36946 0.0
C548 C 1.01345 0.44147 0.33464 0.0
C549 C 1.01092 0.46671 0.39184 0.0
C550 C 0.05999 0.39873 0.50569 0.0
C551 C 0.99892 0.4395 0.23575 0.0
H552 H 0.07509 0.35616 0.14023 0.0
H553 H 0.99967 0.32638 0.2737 0.0
H554 H 0.06674 0.42823 0.20778 0.0
H555 H 0.08786 0.41094 0.29751 0.0
H556 H 0.09208 0.4019 0.16859 0.0
H557 H 0.96908 0.35826 0.36398 0.0
H558 H 0.99399 0.36528 0.46062 0.0
H559 H 0.97926 0.3939 0.39336 0.0
H560 H 0.05281 0.45127 0.58504 0.0
H561 H 0.99826 0.48365 0.36332 0.0
H562 H 0.07736 0.39249 0.45492 0.0
H563 H 0.04623 0.38013 0.51415 0.0
H564 H 0.06901 0.40447 0.57898 0.0
H565 H 0.98321 0.42232 0.23638 0.0
H566 H 1.01449 0.43431 0.17676 0.0
H567 H 0.98808 0.45933 0.21664 0.0
C568 C 0.83351 1.01491 0.14846 0.0
C569 C 0.83063 0.99416 0.22038 0.0
C570 C 0.85888 0.01826 0.09387 0.0
C571 C 0.88234 1.0003 0.10987 0.0
C572 C 0.87974 0.97986 0.1846 0.0
C573 C 0.85426 0.97724 0.23892 0.0
C574 C 0.86014 0.04032 0.01556 0.0
C575 C 0.9037 0.96018 0.20613 0.0
C576 C 0.93546 0.98757 0.89553 0.0
C577 C 0.95808 1.00545 0.91986 0.0
C578 C 0.91111 0.98571 0.95604 0.0
C579 C 0.90882 1.00187 0.04523 0.0
C580 C 0.932 0.01925 0.07207 0.0
C581 C 0.95608 0.02088 0.00953 0.0
C582 C 0.88765 0.96636 0.92391 0.0
C583 C 0.93125 0.03642 0.16684 0.0
H584 H 0.81533 0.02767 0.13148 0.0
H585 H 0.85243 0.96109 0.2938 0.0
H586 H 0.87911 0.05356 0.02594 0.0
H587 H 0.86187 0.03 0.94151 0.0
H588 H 0.84123 0.05405 0.01668 0.0
H589 H 0.89653 0.94158 0.24739 0.0
H590 H 0.91414 0.95279 0.13702 0.0
H591 H 0.91966 0.97154 0.25097 0.0
H592 H 0.93659 0.97517 0.82758 0.0
H593 H 0.973 0.03494 0.02993 0.0
H594 H 0.86797 0.97857 0.91458 0.0
H595 H 0.88367 0.95067 0.98186 0.0
H596 H 0.89249 0.95508 0.85321 0.0
H597 H 0.91273 0.05063 0.16719 0.0
H598 H 0.95056 0.0492 0.17734 0.0
H599 H 0.92893 0.02233 0.23072 0.0
C600 C 0.57709 0.85293 0.16774 0.0
C601 C 0.55419 0.83486 0.18275 0.0
C602 C 0.57465 0.87736 0.11062 0.0
C603 C 0.54844 0.88451 0.06779 0.0
C604 C 0.52477 0.86732 0.08833 0.0
C605 C 0.52796 0.84268 0.14453 0.0
C606 C 0.60052 0.89488 0.0925 0.0
C607 C 0.49618 0.87446 0.04793 0.0
C608 C 0.53941 0.95955 0.97043 0.0
C609 C 0.5412 0.95561 0.86708 0.0
C610 C 0.54122 0.93682 0.03593 0.0
C611 C 0.54617 0.90919 0.99868 0.0
C612 C 0.54944 0.90526 0.89477 0.0
C613 C 0.54666 0.92827 0.83073 0.0
C614 C 0.53665 0.94239 0.14496 0.0
C615 C 0.55576 0.87659 0.85082 0.0
H616 H 0.5974 0.84712 0.19719 0.0
H617 H 0.51022 0.82878 0.15457 0.0
H618 H 0.60544 0.8948 0.01221 0.0
H619 H 0.59662 0.917 0.11577 0.0
H620 H 0.61917 0.88705 0.13288 0.0
H621 H 0.47944 0.86068 0.07746 0.0
H622 H 0.49081 0.89662 0.06644 0.0
H623 H 0.49645 0.87225 0.96613 0.0
H624 H 0.53575 0.98041 1.00082 0.0
H625 H 0.54885 0.92478 0.75174 0.0
H626 H 0.55225 0.93087 0.1892 0.0
H627 H 0.51551 0.93467 0.16623 0.0
H628 H 0.5379 0.9651 0.1646 0.0
H629 H 0.57507 0.86794 0.88477 0.0
H630 H 0.55875 0.87705 0.76935 0.0
H631 H 0.53828 0.86201 0.8674 0.0
C632 C 0.67376 0.54865 0.22824 0.0
C633 C 0.70003 0.53703 0.20185 0.0
C634 C 0.64942 0.54439 0.16925 0.0
C635 C 0.65096 0.52815 0.07973 0.0
C636 C 0.67732 0.51537 0.05568 0.0
C637 C 0.70131 0.5201 0.11602 0.0
C638 C 0.62237 0.55784 0.20468 0.0
C639 C 0.68092 0.49769 0.96334 0.0
C640 C 0.58113 0.50073 0.96727 0.0
C641 C 0.5751 0.52008 0.89289 0.0
C642 C 0.60567 0.50275 0.02642 0.0
C643 C 0.62533 0.5247 0.01198 0.0
C644 C 0.61963 0.54404 0.93547 0.0
C645 C 0.59465 0.54173 0.87801 0.0
C646 C 0.61037 0.48152 0.10587 0.0
C647 C 0.63985 0.56754 0.91535 0.0
H648 H 0.67237 0.5618 0.29437 0.0
H649 H 0.7215 0.51145 0.09368 0.0
H650 H 0.62548 0.58082 0.21428 0.0
H651 H 0.60429 0.5541 0.15478 0.0
H652 H 0.61693 0.54953 0.27839 0.0
H653 H 0.69915 0.4832 0.96887 0.0
H654 H 0.66181 0.48515 0.94715 0.0
H655 H 0.68494 0.51189 0.90091 0.0
H656 H 0.56623 0.484 0.9804 0.0
H657 H 0.59017 0.55721 0.82254 0.0
H658 H 0.61239 0.49238 0.17882 0.0
H659 H 0.63037 0.4701 0.09138 0.0
H660 H 0.59299 0.46604 0.11002 0.0
H661 H 0.64229 0.58083 0.98305 0.0
H662 H 0.63278 0.58083 0.8536 0.0
H663 H 0.66085 0.55874 0.89651 0.0
C664 C 0.02356 0.71444 0.10706 0.0
C665 C 1.00912 0.71284 0.19768 0.0
C666 C 0.0276 0.69047 0.04383 0.0
C667 C 1.0166 0.6637 0.0691 0.0
C668 C 1.00252 0.66198 0.16197 0.0
C669 C 0.99926 0.68617 0.22461 0.0
C670 C 0.04344 0.69399 0.94868 0.0
C671 C 0.99066 0.63464 0.19719 0.0
C672 C 1.00329 0.6055 0.86624 0.0
C673 C 0.02631 0.58719 0.87736 0.0
C674 C 1.00017 0.63045 0.92586 0.0
C675 C 0.0203 0.63766 1.0003 0.0
C676 C 0.04331 0.61893 0.01214 0.0
C677 C 0.04591 0.5943 0.95167 0.0
C678 C 0.97467 0.64869 0.91142 0.0
C679 C 0.06497 0.62445 0.09124 0.0
H680 H 0.03102 0.73477 0.08408 0.0
H681 H 0.9885 0.68417 0.29481 0.0
H682 H 0.02917 0.68942 0.88585 0.0
H683 H 0.05193 0.71553 0.94083 0.0
H684 H 0.06116 0.67882 0.94489 0.0
H685 H 1.00565 0.62521 0.24983 0.0
H686 H 0.97051 0.63844 0.23699 0.0
H687 H 0.98688 0.61928 0.1362 0.0
H688 H 0.98735 0.60004 0.81218 0.0
H689 H 0.06349 0.58024 0.96321 0.0
H690 H 0.98124 0.67055 0.8969 0.0
H691 H 0.96185 0.64915 0.98021 0.0
H692 H 0.96136 0.64108 0.84915 0.0
H693 H 0.08269 0.60924 0.08717 0.0
H694 H 0.0549 0.62301 0.16512 0.0
H695 H 0.07347 0.64601 0.0848 0.0
C696 C 0.09593 0.24011 0.28783 0.0
C697 C 0.06951 0.24209 0.24284 0.0
C698 C 0.10084 0.22011 0.3606 0.0
C699 C 0.0791 0.20119 0.38458 0.0
C700 C 0.05364 0.20119 0.32945 0.0
C701 C 0.04893 0.22226 0.26194 0.0
C702 C 0.12893 0.21978 0.41211 0.0
C703 C 0.03014 0.1805 0.34594 0.0
C704 C 0.06462 0.13782 0.51325 0.0
C705 C 0.04302 0.14977 0.57228 0.0
C706 C 0.08366 0.15524 0.46484 0.0
C707 C 0.08014 0.18446 0.47546 0.0
C708 C 0.06511 0.19527 0.55815 0.0
C709 C 0.04632 0.17757 0.60634 0.0
C710 C 0.1028 0.14272 0.38683 0.0
C711 C 0.064 0.22632 0.58103 0.0
H712 H 0.11211 0.25515 0.26969 0.0
H713 H 0.0286 0.22405 0.22659 0.0
H714 H 0.12711 0.21333 0.49023 0.0
H715 H 0.14289 0.20447 0.37314 0.0
H716 H 0.13923 0.24067 0.41006 0.0
H717 H 1.0137 0.18158 0.28791 0.0
H718 H 0.03829 0.15872 0.34573 0.0
H719 H 0.01991 0.18523 0.41797 0.0
H720 H 0.0642 0.11589 0.49113 0.0
H721 H 0.03175 0.18642 0.66034 0.0
H722 H 0.12033 0.15711 0.36903 0.0
H723 H 0.09057 0.13842 0.31838 0.0
H724 H 0.11156 0.1225 0.41235 0.0
H725 H 0.08455 0.23634 0.56557 0.0
H726 H 0.05813 0.23045 0.65959 0.0
H727 H 0.04787 0.23618 0.53364 0.0
C728 C 0.31483 0.11416 0.11763 0.0
C729 C 0.30034 0.09239 0.16288 0.0
C730 C 0.33923 0.12538 0.16177 0.0
C731 C 0.34961 0.11345 0.24998 0.0
C732 C 0.33322 0.09285 0.29881 0.0
C733 C 0.30874 0.08301 0.25469 0.0
C734 C 0.35452 0.14854 0.10985 0.0
C735 C 0.34254 0.07845 0.39186 0.0
C736 C 0.41586 0.08082 0.29155 0.0
C737 C 0.41683 0.08606 0.39378 0.0
C738 C 0.39817 0.09662 0.23196 0.0
C739 C 0.37971 0.11612 0.27785 0.0
C740 C 0.38644 0.12661 0.37317 0.0
C741 C 0.40495 0.11108 0.43178 0.0
C742 C 0.39636 0.08977 0.12307 0.0
C743 C 0.37073 0.15116 0.41807 0.0
H744 H 0.30759 0.12176 0.04712 0.0
H745 H 0.29682 0.06635 0.28863 0.0
H746 H 0.37184 0.1577 0.15479 0.0
H747 H 0.36317 0.14033 0.03861 0.0
H748 H 0.33945 0.1655 0.09169 0.0
H749 H 0.36167 0.06585 0.37592 0.0
H750 H 0.3471 0.09399 0.45143 0.0
H751 H 0.32636 0.06393 0.42081 0.0
H752 H 0.4259 0.06234 0.25976 0.0
H753 H 0.4071 0.11644 0.50965 0.0
H754 H 0.40133 0.1089 0.08116 0.0
H755 H 0.37484 0.08307 0.10267 0.0
H756 H 0.41129 0.073 0.09965 0.0
H757 H 0.36216 0.16487 0.35987 0.0
H758 H 0.38479 0.16363 0.46736 0.0
H759 H 0.35299 0.1435 0.46361 0.0
C760 C 0.48046 0.32361 0.24319 0.0
C761 C 0.46598 0.31143 0.16367 0.0
C762 C 0.47487 0.35126 0.27381 0.0
C763 C 0.45478 0.36713 0.22164 0.0
C764 C 0.43735 0.35353 0.1509 0.0
C765 C 0.44357 0.32578 0.12087 0.0
C766 C 0.49287 0.3645 0.35365 0.0
C767 C 0.41443 0.36941 0.09948 0.0
C768 C 0.46194 0.44419 0.29201 0.0
C769 C 0.48351 0.45168 0.2263 0.0
C770 C 0.44955 0.41739 0.28584 0.0
C771 C 0.4598 0.39776 0.2144 0.0
C772 C 0.47999 0.40641 0.14433 0.0
C773 C 0.49087 0.43338 0.14928 0.0
C774 C 0.42724 0.40993 0.36022 0.0
C775 C 0.49451 0.38601 0.07582 0.0
H776 H 0.4972 0.31187 0.27773 0.0
H777 H 0.43184 0.31572 0.06154 0.0
H778 H 0.47976 0.37759 0.40462 0.0
H779 H 0.50412 0.34849 0.39728 0.0
H780 H 0.50873 0.37838 0.31941 0.0
H781 H 0.40227 0.38226 0.15417 0.0
H782 H 0.42394 0.38401 0.0461 0.0
H783 H 0.39991 0.3551 0.05882 0.0
H784 H 0.45621 0.45847 0.35203 0.0
H785 H 0.50797 0.43877 0.09982 0.0
H786 H 0.43332 0.41759 0.43523 0.0
H787 H 0.42298 0.38709 0.36278 0.0
H788 H 0.40739 0.42072 0.34053 0.0
H789 H 0.51078 0.37488 0.11866 0.0
H790 H 0.50489 0.39704 0.01437 0.0
H791 H 0.48004 0.37013 0.04495 0.0
C792 C 0.23828 0.45109 0.08802 0.0
C793 C 0.25687 0.46709 0.1455 0.0
C794 C 0.21132 0.44501 0.12437 0.0
C795 C 0.20364 0.45481 0.22032 0.0
C796 C 0.22513 0.46302 0.2863 0.0
C797 C 0.25127 0.47062 0.24716 0.0
C798 C 0.19109 0.42927 0.05838 0.0
C799 C 0.21906 0.46838 0.39447 0.0
C800 C 0.14714 0.51054 0.21818 0.0
C801 C 0.12306 0.49533 0.23903 0.0
C802 C 0.17341 0.49773 0.21752 0.0
C803 C 0.17567 0.46842 0.23405 0.0
C804 C 0.15128 0.45313 0.26005 0.0
C805 C 0.12509 0.467 0.26309 0.0
C806 C 0.19856 0.5161 0.19976 0.0
C807 C 0.15252 0.4225 0.28537 0.0
H808 H 0.24405 0.44484 0.01344 0.0
H809 H 0.2662 0.48153 0.29434 0.0
H810 H 0.19468 0.40645 0.06726 0.0
H811 H 0.16882 0.43363 0.07718 0.0
H812 H 0.19489 0.43404 0.9794 0.0
H813 H 0.21366 0.49079 0.40747 0.0
H814 H 0.20113 0.45542 0.41983 0.0
H815 H 0.2379 0.46366 0.43958 0.0
H816 H 0.14538 0.53286 0.20471 0.0
H817 H 0.10635 0.45602 0.28546 0.0
H818 H 0.21255 0.50588 0.14496 0.0
H819 H 0.21044 0.51926 0.26935 0.0
H820 H 0.19264 0.5372 0.17374 0.0
H821 H 0.14573 0.40974 0.22025 0.0
H822 H 0.13783 0.41799 0.34706 0.0
H823 H 0.17396 0.41569 0.30663 0.0
C824 C 0.94263 0.79065 0.15536 0.0
C825 C 0.95402 0.79605 0.25052 0.0
C826 C 0.93891 0.8125 0.08891 0.0
C827 C 0.94913 0.83922 0.1158 0.0
C828 C 0.95177 0.84593 0.2178 0.0
C829 C 0.95302 0.82393 0.28559 0.0
C830 C 0.92955 0.8059 0.98474 0.0
C831 C 0.95559 0.87577 0.25412 0.0
C832 C 1.01344 0.857 0.96364 0.0
C833 C 1.00731 0.88412 0.93332 0.0
C834 C 0.99413 0.84159 0.01798 0.0
C835 C 0.96756 0.85374 0.0436 0.0
C836 C 0.9603 0.88028 1.00557 0.0
C837 C 0.98045 0.89537 0.952 0.0
C838 C 1.00306 0.81238 0.0471 0.0
C839 C 0.93178 0.89336 0.02302 0.0
H840 H 0.94076 0.76961 0.12548 0.0
H841 H 0.95722 0.8286 0.3627 0.0
H842 H 0.9233 0.82522 0.94563 0.0
H843 H 0.94681 0.79542 0.94278 0.0
H844 H 0.9115 0.79114 0.9857 0.0
H845 H 0.96248 0.8769 0.33229 0.0
H846 H 0.97101 0.88712 0.20823 0.0
H847 H 0.93517 0.88695 0.24892 0.0
H848 H 0.03409 0.84815 0.9489 0.0
H849 H 0.97529 0.91614 0.92606 0.0
H850 H 0.9936 0.79675 0.99551 0.0
H851 H 0.99629 0.8074 0.12253 0.0
H852 H 0.02624 0.80951 0.04351 0.0
H853 H 0.91542 0.87748 0.03892 0.0
H854 H 0.92516 0.90558 0.95789 0.0
H855 H 0.93311 0.90826 0.08671 0.0
C856 C 0.71074 0.95576 0.19255 0.0
C857 C 0.7393 0.95853 0.16888 0.0
C858 C 0.69015 0.96196 0.12145 0.0
C859 C 0.69888 0.96938 0.02513 0.0
C860 C 0.7265 0.96296 0.99483 0.0
C861 C 0.74679 0.95893 0.06761 0.0
C862 C 0.65956 0.96227 0.15081 0.0
C863 C 0.73571 0.96613 0.88881 0.0
C864 C 0.64603 1.008 0.86554 0.0
C865 C 0.65576 0.03571 0.87517 0.0
C866 C 0.65995 0.98589 0.91227 0.0
C867 C 0.68382 0.99183 0.97157 0.0
C868 C 0.69406 0.01995 0.97837 0.0
C869 C 0.67982 0.04129 0.9303 0.0
C870 C 0.64877 0.95651 0.8972 0.0
C871 C 0.72036 0.02872 0.0334 0.0
H872 H 0.7046 0.95225 0.26852 0.0
H873 H 0.76851 0.96008 0.04467 0.0
H874 H 0.64895 0.94408 0.11474 0.0
H875 H 0.65671 0.9605 0.23195 0.0
H876 H 0.64887 0.98152 0.12542 0.0
H877 H 0.75342 0.95166 0.87077 0.0
H878 H 0.71807 0.96188 0.83705 0.0
H879 H 0.74318 0.98789 0.87758 0.0
H880 H 0.62757 1.00357 0.82104 0.0
H881 H 0.68735 0.0627 0.93795 0.0
H882 H 0.6647 0.94015 0.91267 0.0
H883 H 0.64118 0.95341 0.82013 0.0
H884 H 0.63043 0.95353 0.94691 0.0
H885 H 0.71606 0.04779 0.07963 0.0
H886 H 0.73676 0.03451 0.97887 0.0
H887 H 0.72925 1.01264 0.08143 0.0
C888 C 0.56811 0.72173 0.11217 0.0
C889 C 0.58431 0.73618 0.18177 0.0
C890 C 0.5747 0.69413 0.08469 0.0
C891 C 0.59921 0.68141 0.12428 0.0
C892 C 0.61849 0.69821 0.17887 0.0
C893 C 0.61034 0.72536 0.21003 0.0
C894 C 0.55362 0.67796 0.02254 0.0
C895 C 0.64653 0.68704 0.21184 0.0
C896 C 0.56947 0.61676 0.21842 0.0
C897 C 0.56575 0.60187 0.12951 0.0
C898 C 0.58671 0.64037 0.22319 0.0
C899 C 0.59889 0.65045 0.13534 0.0
C900 C 0.6 0.63252 0.05096 0.0
C901 C 0.5834 0.60813 0.04903 0.0
C902 C 0.58915 0.65601 0.32041 0.0
C903 C 0.61683 0.64023 0.96072 0.0
H904 H 0.54889 0.73137 0.0863 0.0
H905 H 0.62372 0.73764 0.25898 0.0
H906 H 0.56394 0.66919 0.95512 0.0
H907 H 0.54491 0.66026 0.06498 0.0
H908 H 0.53575 0.69128 0.99889 0.0
H909 H 0.66343 0.70134 0.18694 0.0
H910 H 0.64737 0.68698 0.29384 0.0
H911 H 0.65099 0.66562 0.18205 0.0
H912 H 0.55698 0.6118 0.28267 0.0
H913 H 0.58252 0.59541 0.98195 0.0
H914 H 0.58279 0.67824 0.31408 0.0
H915 H 0.61129 0.65537 0.34561 0.0
H916 H 0.57587 0.64639 0.3777 0.0
H917 H 0.60968 0.62851 0.89362 0.0
H918 H 0.63924 0.63497 0.97379 0.0
H919 H 0.61582 0.66305 0.94644 0.0
C920 C 0.78962 0.59499 0.14646 0.0
C921 C 0.78557 0.59147 0.24845 0.0
C922 C 0.81497 0.60574 0.11049 0.0
C923 C 0.83756 0.60945 0.1769 0.0
C924 C 0.8316 0.61169 0.27955 0.0
C925 C 0.80497 0.60359 0.31382 0.0
C926 C 0.81903 0.60859 1.00058 0.0
C927 C 0.85344 0.62099 0.35379 0.0
C928 C 0.89538 0.55949 0.09686 0.0
C929 C 0.91897 0.57673 0.09719 0.0
C930 C 0.86905 0.57 0.12288 0.0
C931 C 0.8657 0.59921 0.14388 0.0
C932 C 0.88936 0.61721 0.13715 0.0
C933 C 0.91602 0.60554 0.1166 0.0
C934 C 0.84541 0.54904 0.13241 0.0
C935 C 0.88709 0.6485 0.15375 0.0
H936 H 0.77414 0.58719 0.09427 0.0
H937 H 0.8002 0.60489 0.39184 0.0
H938 H 0.8368 0.62286 0.98398 0.0
H939 H 0.8235 0.58776 0.96606 0.0
H940 H 0.79954 0.61677 0.9663 0.0
H941 H 0.84805 0.61427 0.42968 0.0
H942 H 0.87466 0.61299 0.33465 0.0
H943 H 0.85447 0.64425 0.35453 0.0
H944 H 0.8979 0.53714 0.08231 0.0
H945 H 0.9344 0.6189 0.11514 0.0
H946 H 0.83233 0.54903 0.06479 0.0
H947 H 0.83188 0.55439 0.1965 0.0
H948 H 0.85334 0.52731 0.1416 0.0
H949 H 0.86529 0.65635 0.14455 0.0
H950 H 0.90113 0.65962 0.1017 0.0
H951 H 0.89431 0.65389 0.2297 0.0
C952 C 0.02162 0.23171 0.98109 0.0
C953 C 0.04578 0.23888 0.0366 0.0
C954 C 0.01858 0.2049 0.93173 0.0
C955 C 0.03861 0.18267 0.94511 0.0
C956 C 0.06294 0.19014 1.00148 0.0
C957 C 0.06697 0.21803 0.0382 0.0
C958 C 0.99339 0.20098 0.86552 0.0
C959 C 0.0847 0.16891 0.03062 0.0
C960 C 1.00367 0.10918 0.89479 0.0
C961 C 0.0211 0.09585 0.82363 0.0
C962 C 1.00998 0.13598 0.93799 0.0
C963 C 0.03344 0.15209 0.90485 0.0
C964 C 0.05155 0.1383 0.83351 0.0
C965 C 0.04536 0.11068 0.79545 0.0
C966 C 0.99132 0.14621 0.02168 0.0
C967 C 0.07806 0.15209 0.79697 0.0
H968 H 1.00465 0.24674 0.97638 0.0
H969 H 0.08668 0.22288 0.07434 0.0
H970 H 0.99527 0.18241 0.81518 0.0
H971 H 0.9742 0.19895 0.9117 0.0
H972 H 0.99042 0.21986 0.81977 0.0
H973 H 0.0887 0.17066 0.11143 0.0
H974 H 0.07832 0.14719 0.01317 0.0
H975 H 0.10488 0.1735 0.99276 0.0
H976 H 0.98498 0.09821 0.91893 0.0
H977 H 0.05925 0.10104 0.74081 0.0
H978 H 0.97142 0.15445 0.9909 0.0
H979 H 1.00132 0.16275 0.06836 0.0
H980 H 0.9856 0.12849 0.06998 0.0
H981 H 0.0764 0.17531 0.79822 0.0
H982 H 0.08361 0.1447 0.72112 0.0
H983 H 0.0959 0.1458 0.84413 0.0
C984 C 0.31167 0.04996 0.91854 0.0
C985 C 0.30715 0.04496 0.01946 0.0
C986 C 0.33835 0.04546 0.87211 0.0
C987 C 0.36209 0.03633 0.92753 0.0
C988 C 0.35729 0.03074 0.02982 0.0
C989 C 0.33026 0.03515 0.07371 0.0
C990 C 0.34066 0.04943 0.76212 0.0
C991 C 0.38043 0.02012 0.09554 0.0
C992 C 0.42733 0.99817 0.81351 0.0
C993 C 0.44572 0.01989 0.78585 0.0
C994 C 0.4004 1.00326 0.85603 0.0
C995 C 0.39106 0.0311 0.87762 0.0
C996 C 0.40975 0.05335 0.85075 0.0
C997 C 0.43627 0.04751 0.80408 0.0
C998 C 0.3819 0.97831 0.87622 0.0
C999 C 0.40222 0.08374 0.86865 0.0
H1000 H 0.29418 0.0577 0.87572 0.0
H1001 H 0.32736 0.03137 0.15181 0.0
H1002 H 0.35852 0.06336 0.74424 0.0
H1003 H 0.34464 0.02874 0.72566 0.0
H1004 H 0.32118 0.05845 0.73044 0.0
H1005 H 0.37942 0.03076 0.16931 0.0
H1006 H 0.37716 0.99742 0.10799 0.0
H1007 H 0.40176 0.02309 0.06409 0.0
H1008 H 0.43376 0.97661 0.79955 0.0
H1009 H 0.4494 0.06474 0.78095 0.0
H1010 H 0.35933 0.98325 0.86501 0.0
H1011 H 0.38481 0.97194 0.95391 0.0
H1012 H 0.38754 0.96005 0.82779 0.0
H1013 H 0.40006 0.09419 0.79639 0.0
H1014 H 0.41964 0.09447 0.90855 0.0
H1015 H 0.38247 0.08682 0.91121 0.0
C1016 C 0.48457 0.30579 0.89349 0.0
C1017 C 0.5 0.30132 0.98007 0.0
C1018 C 0.48972 0.32923 0.83259 0.0
C1019 C 0.50968 0.35022 0.86144 0.0
C1020 C 0.52755 0.34371 0.94318 0.0
C1021 C 0.52212 0.3198 1.00156 0.0
C1022 C 0.47316 0.33125 0.73808 0.0
C1023 C 0.55227 0.36187 0.97293 0.0
C1024 C 0.53632 0.41819 0.73485 0.0
C1025 C 0.51381 0.43714 0.74905 0.0
C1026 C 0.53454 0.38958 0.76286 0.0
C1027 C 0.5102 0.37931 0.8129 0.0
C1028 C 0.48657 0.39802 0.81929 0.0
C1029 C 0.48868 0.42597 0.78597 0.0
C1030 C 0.55893 0.37068 0.7355 0.0
C1031 C 0.45833 0.38977 0.86104 0.0
H1032 H 0.46797 0.29116 0.87415 0.0
H1033 H 0.53469 0.31603 0.06667 0.0
H1034 H 0.45083 0.33599 0.75587 0.0
H1035 H 0.48146 0.34742 0.68786 0.0
H1036 H 0.47345 0.31067 0.69813 0.0
H1037 H 0.54952 0.38417 0.95353 0.0
H1038 H 0.55634 0.36086 0.05362 0.0
H1039 H 0.57141 0.35368 0.93512 0.0
H1040 H 0.55552 0.42553 0.70078 0.0
H1041 H 0.47021 0.4392 0.78946 0.0
H1042 H 0.55465 0.34818 0.74834 0.0
H1043 H 0.57779 0.37731 0.77799 0.0
H1044 H 0.5642 0.37315 0.65606 0.0
H1045 H 0.44273 0.38895 0.80018 0.0
H1046 H 0.45091 0.40611 0.91454 0.0
H1047 H 0.45805 0.36946 0.89863 0.0
C1048 C 0.24249 0.49321 0.91276 0.0
C1049 C 0.25155 0.51179 0.98831 0.0
C1050 C 0.21607 0.49625 0.86481 0.0
C1051 C 0.19758 0.51873 0.89116 0.0
C1052 C 0.20781 0.53905 0.96104 0.0
C1053 C 0.23463 0.53565 1.00709 0.0
C1054 C 0.20773 0.47497 0.78647 0.0
C1055 C 0.18974 0.56383 0.99095 0.0
C1056 C 0.13134 0.53828 0.73485 0.0
C1057 C 0.10984 0.52143 0.7747 0.0
C1058 C 0.15967 0.53738 0.76983 0.0
C1059 C 0.16729 0.51991 0.85013 0.0
C1060 C 0.14555 0.50285 0.8898 0.0
C1061 C 0.11784 0.50352 0.8511 0.0
C1062 C 0.18121 0.55528 0.71886 0.0
C1063 C 0.15093 0.48284 0.97225 0.0
H1064 H 0.25602 0.47572 0.89234 0.0
H1065 H 0.24141 0.55065 0.06321 0.0
H1066 H 0.19054 0.46165 0.81501 0.0
H1067 H 0.19968 0.48574 0.72017 0.0
H1068 H 0.22557 0.46114 0.76404 0.0
H1069 H 0.19951 0.57684 0.05051 0.0
H1070 H 0.18616 0.57725 0.92618 0.0
H1071 H 0.16886 0.55648 0.01677 0.0
H1072 H 0.12621 0.55212 0.67489 0.0
H1073 H 0.10236 0.48974 0.88196 0.0
H1074 H 0.20297 0.54734 0.72811 0.0
H1075 H 0.18002 0.57698 0.74979 0.0
H1076 H 0.17665 0.55642 0.63852 0.0
H1077 H 0.15108 0.4612 0.94066 0.0
H1078 H 0.13346 0.48385 0.02686 0.0
H1079 H 0.17103 0.48678 0.01104 0.0
C1080 C 0.01829 0.83341 0.31286 0.0
C1081 C 1.00931 0.80964 0.36439 0.0
C1082 C 0.02155 0.86022 0.36024 0.0
C1083 C 0.01772 0.86379 0.46486 0.0
C1084 C 1.01064 0.83907 0.51801 0.0
C1085 C 1.00584 0.81297 0.46736 0.0
C1086 C 0.02849 0.8848 0.29593 0.0
C1087 C 1.00816 0.83926 0.62915 0.0
C1088 C 0.05252 0.93312 0.56239 0.0
C1089 C 0.03027 0.94858 0.60616 0.0
C1090 C 0.04906 0.90567 0.52129 0.0
C1091 C 0.02201 0.89279 0.51715 0.0
C1092 C 0.99939 0.90813 0.56372 0.0
C1093 C 1.00395 0.93513 0.60927 0.0
C1094 C 0.07535 0.89054 0.48685 0.0
C1095 C 0.97019 0.89599 0.5694 0.0
H1096 H 0.0217 0.83148 0.23416 0.0
H1097 H 0.99914 0.79495 0.50894 0.0
H1098 H 0.01855 0.90443 0.32442 0.0
H1099 H 0.05158 0.88778 0.29394 0.0
H1100 H 0.02159 0.88106 0.21839 0.0
H1101 H 0.02079 0.8218 0.65943 0.0
H1102 H 1.01522 0.85913 0.66451 0.0
H1103 H 0.98593 0.83539 0.65021 0.0
H1104 H 0.07338 0.9423 0.56247 0.0
H1105 H 0.98678 0.94563 0.64776 0.0
H1106 H 0.08383 0.90093 0.4204 0.0
H1107 H 0.07206 0.86794 0.4699 0.0
H1108 H 0.09181 0.89237 0.54469 0.0
H1109 H 0.9656 0.88158 0.50628 0.0
H1110 H 0.95401 0.91275 0.57256 0.0
H1111 H 0.96813 0.88417 0.63884 0.0
C1112 C 0.7073 1.01033 0.3056 0.0
C1113 C 0.73072 0.99871 0.35334 0.0
C1114 C 0.68075 1.01367 0.35328 0.0
C1115 C 0.67736 1.00727 0.45513 0.0
C1116 C 0.7018 0.99801 0.5064 0.0
C1117 C 0.72763 0.99317 0.45473 0.0
C1118 C 0.65591 0.02275 0.29242 0.0
C1119 C 0.70115 0.99284 0.61615 0.0
C1120 C 0.60986 0.0385 0.57943 0.0
C1121 C 0.5935 1.01468 0.59969 0.0
C1122 C 0.63711 0.03643 0.53581 0.0
C1123 C 0.64842 1.00985 0.50618 0.0
C1124 C 0.63188 0.9857 0.52661 0.0
C1125 C 0.60546 0.98835 0.57613 0.0
C1126 C 0.65462 0.0627 0.52883 0.0
C1127 C 0.64207 0.95681 0.49641 0.0
H1128 H 0.70923 1.01538 0.22881 0.0
H1129 H 0.74549 0.98472 0.4939 0.0
H1130 H 0.63917 1.00666 0.29649 0.0
H1131 H 0.64684 0.04261 0.32204 0.0
H1132 H 0.66158 0.02585 0.21362 0.0
H1133 H 0.721 1.00019 0.65101 0.0
H1134 H 0.68325 1.00346 0.65426 0.0
H1135 H 0.69972 0.96995 0.62865 0.0
H1136 H 0.60172 0.05893 0.60122 0.0
H1137 H 0.59404 0.96964 0.59614 0.0
H1138 H 0.64181 0.082 0.54036 0.0
H1139 H 0.66559 0.06403 0.45682 0.0
H1140 H 0.6712 0.06216 0.58628 0.0
H1141 H 0.64913 0.95659 0.41808 0.0
H1142 H 0.62553 0.94063 0.50547 0.0
H1143 H 0.66029 0.95094 0.54248 0.0
C1144 C 0.55253 0.74184 0.46061 0.0
C1145 C 0.54628 0.74184 0.35909 0.0
C1146 C 0.54698 0.71815 0.52025 0.0
C1147 C 0.53657 0.69261 0.47701 0.0
C1148 C 0.52918 0.69315 0.37471 0.0
C1149 C 0.53332 0.71774 0.31909 0.0
C1150 C 0.55271 0.72099 0.62956 0.0
C1151 C 0.51758 0.66775 0.32025 0.0
C1152 C 0.55477 0.62315 0.60957 0.0
C1153 C 0.52845 0.61006 0.61917 0.0
C1154 C 0.55776 0.65039 0.57008 0.0
C1155 C 0.53371 0.66549 0.53628 0.0
C1156 C 0.50684 0.65322 0.55432 0.0
C1157 C 0.50463 0.62589 0.59383 0.0
C1158 C 0.58714 0.66232 0.56671 0.0
C1159 C 0.47984 0.66853 0.53245 0.0
H1160 H 0.56214 0.76036 0.49359 0.0
H1161 H 0.52682 0.71778 0.24262 0.0
H1162 H 0.54238 0.70443 0.67317 0.0
H1163 H 0.57574 0.72015 0.64212 0.0
H1164 H 0.54533 0.74178 0.65789 0.0
H1165 H 0.52595 0.66656 0.2435 0.0
H1166 H 0.52251 0.64772 0.35667 0.0
H1167 H 0.49442 0.66991 0.31449 0.0
H1168 H 0.57342 0.61197 0.63276 0.0
H1169 H 0.484 0.61683 0.6026 0.0
H1170 H 0.59287 0.67 0.64196 0.0
H1171 H 0.58944 0.67987 0.51492 0.0
H1172 H 0.6026 0.64572 0.54574 0.0
H1173 H 0.46475 0.6661 0.59461 0.0
H1174 H 0.4699 0.65885 0.46602 0.0
H1175 H 0.48294 0.69127 0.52032 0.0
C1176 C 0.8039 0.55367 0.45702 0.0
C1177 C 0.7956 0.53936 0.37001 0.0
C1178 C 0.83119 0.55055 0.49812 0.0
C1179 C 0.85064 0.53083 0.45658 0.0
C1180 C 0.84115 0.51407 0.37468 0.0
C1181 C 0.81409 0.51864 0.33221 0.0
C1182 C 0.83939 0.56924 0.5845 0.0
C1183 C 0.85989 0.49166 0.32997 0.0
C1184 C 0.93138 0.54169 0.48237 0.0
C1185 C 0.93825 0.52894 0.57205 0.0
C1186 C 0.90359 0.54232 0.44459 0.0
C1187 C 0.88107 0.52903 0.49509 0.0
C1188 C 0.88804 0.51484 0.5838 0.0
C1189 C 0.9161 0.51524 0.62123 0.0
C1190 C 0.89924 0.55691 0.34816 0.0
C1191 C 0.86611 0.49892 0.64063 0.0
H1192 H 0.78926 0.56845 0.49079 0.0
H1193 H 0.8079 0.50679 0.26673 0.0
H1194 H 0.83983 0.55675 0.65274 0.0
H1195 H 0.86073 0.57807 0.57325 0.0
H1196 H 0.82434 0.58686 0.59613 0.0
H1197 H 0.87677 0.5016 0.28615 0.0
H1198 H 0.87009 0.47938 0.38895 0.0
H1199 H 0.84808 0.4771 0.28032 0.0
H1200 H 0.94786 0.55093 0.43932 0.0
H1201 H 0.92058 0.50472 0.68975 0.0
H1202 H 0.91167 0.5766 0.34625 0.0
H1203 H 0.87692 0.56191 0.3334 0.0
H1204 H 0.90733 0.54303 0.28777 0.0
H1205 H 0.87545 0.47984 0.6733 0.0
H1206 H 0.84801 0.49252 0.59391 0.0
H1207 H 0.85827 0.51235 0.70276 0.0
loop_
_geom_bond_atom_site_label_1
_geom_bond_atom_site_label_2
_geom_bond_distance
_geom_bond_site_symmetry_2
_ccdc_geom_bond_type
C0 N1 1.317 . S
C0 N2 1.348 . S
C0 C3 1.485 . S
N1 C0 1.317 . S
N1 N5 1.370 . S
N2 C0 1.348 . S
N2 C4 1.346 . S
C3 C0 1.485 . S
C3 H7 0.960 . S
C3 H8 0.961 . S
C3 H9 0.960 . S
C4 N2 1.346 . S
C4 N5 1.307 . S
C4 C6 1.486 . S
N5 N1 1.370 . S
N5 C4 1.307 . S
C6 C4 1.486 . S
C6 H10 0.960 . S
C6 H11 0.960 . S
C6 H12 0.959 . S
H7 C3 0.960 . S
H8 C3 0.961 . S
H9 C3 0.960 . S
H10 C6 0.960 . S
H11 C6 0.960 . S
H12 C6 0.959 . S
C13 N14 1.317 . S
C13 N15 1.348 . S
C13 C16 1.485 . S
N14 C13 1.317 . S
N14 N18 1.370 . S
N15 C13 1.348 . S
N15 C17 1.346 . S
C16 C13 1.485 . S
C16 H20 0.960 . S
C16 H21 0.961 . S
C16 H22 0.960 . S
C17 N15 1.346 . S
C17 N18 1.307 . S
C17 C19 1.486 . S
N18 N14 1.370 . S
N18 C17 1.307 . S
C19 C17 1.486 . S
C19 H23 0.960 . S
C19 H24 0.960 . S
C19 H25 0.959 . S
H20 C16 0.960 . S
H21 C16 0.961 . S
H22 C16 0.960 . S
H23 C19 0.960 . S
H24 C19 0.960 . S
H25 C19 0.959 . S
C26 N27 1.317 . S
C26 N28 1.348 . S
C26 C29 1.485 . S
N27 C26 1.317 . S
N27 N31 1.370 . S
N28 C26 1.348 . S
N28 C30 1.346 . S
C29 C26 1.485 . S
C29 H33 0.960 . S
C29 H34 0.961 . S
C29 H35 0.960 . S
C30 N28 1.346 . S
C30 N31 1.307 . S
C30 C32 1.486 . S
N31 N27 1.370 . S
N31 C30 1.307 . S
C32 C30 1.486 . S
C32 H36 0.960 . S
C32 H37 0.960 . S
C32 H38 0.959 . S
H33 C29 0.960 . S
H34 C29 0.961 . S
H35 C29 0.960 . S
H36 C32 0.960 . S
H37 C32 0.960 . S
H38 C32 0.959 . S
C39 N40 1.317 . S
C39 N41 1.348 . S
C39 C42 1.485 . S
N40 C39 1.317 . S
N40 N44 1.370 . S
N41 C39 1.348 . S
N41 C43 1.346 . S
C42 C39 1.485 . S
C42 H46 0.960 . S
C42 H47 0.961 . S
C42 H48 0.960 . S
C43 N41 1.346 . S
C43 N44 1.307 . S
C43 C45 1.486 . S
N44 N40 1.370 . S
N44 C43 1.307 . S
C45 C43 1.486 . S
C45 H49 0.960 . S
C45 H50 0.960 . S
C45 H51 0.959 . S
H46 C42 0.960 . S
H47 C42 0.961 . S
H48 C42 0.960 . S
H49 C45 0.960 . S
H50 C45 0.960 . S
H51 C45 0.959 . S
C52 N53 1.317 . S
C52 N54 1.348 1_556 S
C52 C55 1.485 . S
N53 C52 1.317 . S
N53 N57 1.370 1_556 S
N54 C52 1.348 1_554 S
N54 C56 1.346 . S
C55 C52 1.485 . S
C55 H59 0.960 . S
C55 H60 0.961 . S
C55 H61 0.960 . S
C56 N54 1.346 . S
C56 N57 1.307 . S
C56 C58 1.486 . S
N57 N53 1.370 1_554 S
N57 C56 1.307 . S
C58 C56 1.486 . S
C58 H62 0.960 . S
C58 H63 0.960 . S
C58 H64 0.959 . S
H59 C55 0.960 . S
H60 C55 0.961 . S
H61 C55 0.960 . S
H62 C58 0.960 . S
H63 C58 0.960 . S
H64 C58 0.959 . S
C65 N66 1.317 . S
C65 N67 1.348 1_556 S
C65 C68 1.485 . S
N66 C65 1.317 . S
N66 N70 1.370 1_556 S
N67 C65 1.348 1_554 S
N67 C69 1.346 . S
C68 C65 1.485 . S
C68 H72 0.960 . S
C68 H73 0.961 . S
C68 H74 0.960 . S
C69 N67 1.346 . S
C69 N70 1.307 . S
C69 C71 1.486 . S
N70 N66 1.370 1_554 S
N70 C69 1.307 . S
C71 C69 1.486 . S
C71 H75 0.960 . S
C71 H76 0.960 . S
C71 H77 0.959 . S
H72 C68 0.960 . S
H73 C68 0.961 . S
H74 C68 0.960 . S
H75 C71 0.960 . S
H76 C71 0.960 . S
H77 C71 0.959 . S
C78 N79 1.317 . S
C78 N80 1.348 1_556 S
C78 C81 1.485 . S
N79 C78 1.317 . S
N79 N83 1.370 1_556 S
N80 C78 1.348 1_554 S
N80 C82 1.346 . S
C81 C78 1.485 . S
C81 H85 0.960 . S
C81 H86 0.961 . S
C81 H87 0.960 . S
C82 N80 1.346 . S
C82 N83 1.307 . S
C82 C84 1.486 . S
N83 N79 1.370 1_554 S
N83 C82 1.307 . S
C84 C82 1.486 . S
C84 H88 0.960 . S
C84 H89 0.960 . S
C84 H90 0.959 . S
H85 C81 0.960 . S
H86 C81 0.961 . S
H87 C81 0.960 . S
H88 C84 0.960 . S
H89 C84 0.960 . S
H90 C84 0.959 . S
C91 N92 1.317 . S
C91 N93 1.348 1_556 S
C91 C94 1.485 . S
N92 C91 1.317 . S
N92 N96 1.370 1_556 S
N93 C91 1.348 1_554 S
N93 C95 1.346 . S
C94 C91 1.485 . S
C94 H98 0.960 . S
C94 H99 0.961 . S
C94 H100 0.960 . S
C95 N93 1.346 . S
C95 N96 1.307 . S
C95 C97 1.486 . S
N96 N92 1.370 1_554 S
N96 C95 1.307 . S
C97 C95 1.486 . S
C97 H101 0.960 . S
C97 H102 0.960 . S
C97 H103 0.959 . S
H98 C94 0.960 . S
H99 C94 0.961 . S
H100 C94 0.960 . S
H101 C97 0.960 . S
H102 C97 0.960 . S
H103 C97 0.959 . S
Tb104 N135 2.660 1_565 S
Tb104 N142 2.600 1_565 S
Tb104 O148 2.546 . S
Tb104 O149 2.610 1_455 S
Tb104 O151 2.320 1_455 S
Tb104 O152 2.552 . S
Tb104 O153 2.413 . S
Tb104 O155 2.362 1_565 S
Tb104 O156 2.421 . S
Tb104 C168 2.833 . S
C105 C108 1.432 1_545 S
C105 C109 1.414 1_545 S
C105 N112 1.359 . S
C106 C108 1.417 . S
C106 C110 1.432 . S
C106 C118 1.410 . S
C107 C109 1.444 . S
C107 C110 1.317 . S
C107 H130 0.929 . S
C108 C105 1.432 1_565 S
C108 C106 1.417 . S
C108 N116 1.360 . S
C109 C105 1.414 1_565 S
C109 C107 1.444 . S
C109 C114 1.385 1_565 S
C110 C106 1.432 . S
C110 C107 1.317 . S
C110 H122 0.930 . S
C111 C113 1.392 . S
C111 C114 1.370 . S
C111 H123 0.931 . S
N112 C105 1.359 . S
N112 C113 1.327 . S
N112 Tb115 2.600 . S
C113 C111 1.392 . S
C113 N112 1.327 . S
C113 H120 0.930 . S
C114 C109 1.385 1_545 S
C114 C111 1.370 . S
C114 H133 0.930 . S
Tb115 N112 2.600 . S
Tb115 N116 2.660 1_545 S
Tb115 O149 2.362 1_545 S
Tb115 O150 2.421 . S
Tb115 O154 2.546 . S
Tb115 O155 2.610 1_655 S
Tb115 O157 2.320 1_655 S
Tb115 O158 2.552 1_655 S
Tb115 O159 2.413 . S
Tb115 C179 2.833 . S
N116 C108 1.360 . S
N116 Tb115 2.660 1_565 S
N116 C117 1.305 1_655 S
C117 N116 1.305 1_455 S
C117 C119 1.407 . S
C117 H124 0.930 . S
C118 C106 1.410 . S
C118 C119 1.345 1_655 S
C118 H126 0.930 . S
C119 C117 1.407 . S
C119 C118 1.345 1_455 S
C119 H121 0.930 . S
H120 C113 0.930 . S
H121 C119 0.930 . S
H122 C110 0.930 . S
H123 C111 0.931 . S
H124 C117 0.930 . S
H125 C139 0.930 1_655 S
H126 C118 0.930 . S
H127 C145 0.930 . S
H128 C136 0.930 1_655 S
H129 C143 0.931 . S
H130 C107 0.929 . S
H131 C137 0.930 . S
H132 C170 0.930 . S
H133 C114 0.930 . S
H134 C169 0.929 . S
N135 Tb104 2.660 1_545 S
N135 C136 1.305 . S
N135 C140 1.360 . S
C136 H128 0.930 1_455 S
C136 N135 1.305 . S
C136 C139 1.407 1_556 S
C137 H131 0.930 . S
C137 C138 1.410 . S
C137 C139 1.345 . S
C138 C137 1.410 . S
C138 C140 1.417 1_554 S
C138 C170 1.432 . S
C139 H125 0.930 1_455 S
C139 C136 1.407 1_554 S
C139 C137 1.345 . S
C140 N135 1.360 . S
C140 C138 1.417 1_556 S
C140 C144 1.432 . S
H141 C146 0.930 . S
N142 Tb104 2.600 1_545 S
N142 C144 1.359 . S
N142 C145 1.327 1_545 S
C143 H129 0.931 . S
C143 C145 1.392 . S
C143 C146 1.370 1_565 S
C144 C140 1.432 . S
C144 N142 1.359 . S
C144 C147 1.414 . S
C145 H127 0.930 . S
C145 N142 1.327 1_565 S
C145 C143 1.392 . S
C146 H141 0.930 . S
C146 C143 1.370 1_545 S
C146 C147 1.385 . S
C147 C144 1.414 . S
C147 C146 1.385 . S
C147 C169 1.444 1_556 S
O148 Tb104 2.546 . S
O148 C168 1.251 . S
O149 Tb104 2.610 1_655 S
O149 Tb115 2.362 1_565 S
O149 C160 1.283 . S
O150 Tb115 2.421 . S
O150 C167 1.262 . S
O151 Tb104 2.320 1_655 S
O151 C167 1.260 1_565 S
O152 Tb104 2.552 . S
O152 C160 1.243 1_455 S
O153 Tb104 2.413 . S
O153 C168 1.256 . S
O154 Tb115 2.546 . S
O154 C179 1.251 . S
O155 Tb104 2.362 1_545 S
O155 Tb115 2.610 1_455 S
O155 C171 1.283 . S
O156 Tb104 2.421 . S
O156 C178 1.262 1_565 S
O157 Tb115 2.320 1_455 S
O157 C178 1.260 . S
O158 Tb115 2.552 1_455 S
O158 C171 1.243 . S
O159 Tb115 2.413 . S
O159 C179 1.256 . S
C160 O149 1.283 . S
C160 O152 1.243 1_655 S
C161 C163 1.382 . S
C161 C165 1.393 . S
C161 C168 1.500 . S
C162 C163 1.400 1_554 S
C162 C164 1.384 . S
C163 C161 1.382 . S
C163 C162 1.400 1_556 S
C163 H180 0.930 . S
C164 C162 1.384 . S
C164 C166 1.392 . S
C164 H181 0.931 . S
C165 C161 1.393 . S
C165 C166 1.401 1_556 S
C165 H182 0.930 . S
C166 C164 1.392 . S
C166 C165 1.401 1_554 S
C166 H183 0.930 . S
C167 O150 1.262 . S
C167 O151 1.260 1_545 S
C168 Tb104 2.833 . S
C168 O148 1.251 . S
C168 O153 1.256 . S
C168 C161 1.500 . S
C169 H134 0.929 . S
C169 C147 1.444 1_554 S
C169 C170 1.317 . S
C170 H132 0.930 . S
C170 C138 1.432 . S
C170 C169 1.317 . S
C171 O155 1.283 . S
C171 O158 1.243 . S
C172 C173 1.382 . S
C172 C176 1.393 . S
C172 C179 1.500 . S
C173 C172 1.382 . S
C173 C174 1.400 . S
C173 H184 0.930 1_655 S
C174 C173 1.400 . S
C174 C175 1.384 . S
C175 C174 1.384 . S
C175 C177 1.392 . S
C175 H185 0.931 . S
C176 C172 1.393 . S
C176 C177 1.401 . S
C176 H186 0.930 . S
C177 C175 1.392 . S
C177 C176 1.401 . S
C177 H187 0.930 . S
C178 O156 1.262 1_545 S
C178 O157 1.260 . S
C179 Tb115 2.833 . S
C179 O154 1.251 . S
C179 O159 1.256 . S
C179 C172 1.500 . S
H180 C163 0.930 . S
H181 C164 0.931 . S
H182 C165 0.930 . S
H183 C166 0.930 . S
H184 C173 0.930 1_455 S
H185 C175 0.931 . S
H186 C176 0.930 . S
H187 C177 0.930 . S
Tb188 N219 2.660 . S
Tb188 N226 2.600 . S
Tb188 O232 2.546 . S
Tb188 O233 2.610 1_545 S
Tb188 O235 2.320 1_545 S
Tb188 O236 2.552 . S
Tb188 O237 2.413 . S
Tb188 O239 2.362 . S
Tb188 O240 2.421 . S
Tb188 C252 2.833 . S
C189 C192 1.432 . S
C189 C193 1.414 . S
C189 N196 1.359 . S
C190 C192 1.417 . S
C190 C194 1.432 . S
C190 C202 1.410 . S
C191 C193 1.444 . S
C191 C194 1.317 . S
C191 H214 0.929 . S
C192 C189 1.432 . S
C192 C190 1.417 . S
C192 N200 1.360 . S
C193 C189 1.414 . S
C193 C191 1.444 . S
C193 C198 1.385 . S
C194 C190 1.432 . S
C194 C191 1.317 . S
C194 H206 0.930 . S
C195 C197 1.392 . S
C195 C198 1.370 . S
C195 H207 0.931 . S
N196 C189 1.359 . S
N196 C197 1.327 . S
N196 Tb199 2.600 . S
C197 C195 1.392 . S
C197 N196 1.327 . S
C197 H204 0.930 . S
C198 C193 1.385 . S
C198 C195 1.370 . S
C198 H217 0.930 . S
Tb199 N196 2.600 . S
Tb199 N200 2.660 . S
Tb199 O233 2.362 . S
Tb199 O234 2.421 . S
Tb199 O238 2.546 . S
Tb199 O239 2.610 1_565 S
Tb199 O241 2.320 1_565 S
Tb199 O242 2.552 1_565 S
Tb199 O243 2.413 . S
Tb199 C263 2.833 . S
N200 C192 1.360 . S
N200 Tb199 2.660 . S
N200 C201 1.305 1_565 S
C201 N200 1.305 1_545 S
C201 C203 1.407 . S
C201 H208 0.930 . S
C202 C190 1.410 . S
C202 C203 1.345 1_565 S
C202 H210 0.930 . S
C203 C201 1.407 . S
C203 C202 1.345 1_545 S
C203 H205 0.930 . S
H204 C197 0.930 . S
H205 C203 0.930 . S
H206 C194 0.930 . S
H207 C195 0.931 . S
H208 C201 0.930 . S
H209 C223 0.930 1_565 S
H210 C202 0.930 . S
H211 C229 0.930 . S
H212 C220 0.930 1_565 S
H213 C227 0.931 . S
H214 C191 0.929 . S
H215 C221 0.930 . S
H216 C254 0.930 . S
H217 C198 0.930 . S
H218 C253 0.929 . S
N219 Tb188 2.660 . S
N219 C220 1.305 . S
N219 C224 1.360 . S
C220 H212 0.930 1_545 S
C220 N219 1.305 . S
C220 C223 1.407 1_556 S
C221 H215 0.930 . S
C221 C222 1.410 . S
C221 C223 1.345 . S
C222 C221 1.410 . S
C222 C224 1.417 1_554 S
C222 C254 1.432 . S
C223 H209 0.930 1_545 S
C223 C220 1.407 1_554 S
C223 C221 1.345 . S
C224 N219 1.360 . S
C224 C222 1.417 1_556 S
C224 C228 1.432 . S
H225 C230 0.930 . S
N226 Tb188 2.600 . S
N226 C228 1.359 . S
N226 C229 1.327 . S
C227 H213 0.931 . S
C227 C229 1.392 . S
C227 C230 1.370 . S
C228 C224 1.432 . S
C228 N226 1.359 . S
C228 C231 1.414 . S
C229 H211 0.930 . S
C229 N226 1.327 . S
C229 C227 1.392 . S
C230 H225 0.930 . S
C230 C227 1.370 . S
C230 C231 1.385 . S
C231 C228 1.414 . S
C231 C230 1.385 . S
C231 C253 1.444 1_556 S
O232 Tb188 2.546 . S
O232 C252 1.251 . S
O233 Tb188 2.610 1_565 S
O233 Tb199 2.362 . S
O233 C244 1.284 . S
O234 Tb199 2.421 . S
O234 C251 1.262 . S
O235 Tb188 2.320 1_565 S
O235 C251 1.260 . S
O236 Tb188 2.552 . S
O236 C244 1.226 1_545 S
O237 Tb188 2.413 . S
O237 C252 1.256 . S
O238 Tb199 2.546 . S
O238 C263 1.251 . S
O239 Tb188 2.362 . S
O239 Tb199 2.610 1_545 S
O239 C255 1.283 . S
O240 Tb188 2.421 . S
O240 C262 1.262 . S
O241 Tb199 2.320 1_545 S
O241 C262 1.260 . S
O242 Tb199 2.552 1_545 S
O242 C255 1.243 . S
O243 Tb199 2.413 . S
O243 C263 1.256 . S
C244 O233 1.284 . S
C244 O236 1.226 1_565 S
C245 C247 1.382 . S
C245 C249 1.393 . S
C245 C252 1.500 . S
C246 C247 1.400 1_554 S
C246 C248 1.384 . S
C247 C245 1.382 . S
C247 C246 1.400 1_556 S
C247 H264 0.930 . S
C248 C246 1.384 . S
C248 C250 1.392 . S
C248 H265 0.931 . S
C249 C245 1.393 . S
C249 C250 1.401 1_556 S
C249 H266 0.930 . S
C250 C248 1.392 . S
C250 C249 1.401 1_554 S
C250 H267 0.930 . S
C251 O234 1.262 . S
C251 O235 1.260 . S
C252 Tb188 2.833 . S
C252 O232 1.251 . S
C252 O237 1.256 . S
C252 C245 1.500 . S
C253 H218 0.929 . S
C253 C231 1.444 1_554 S
C253 C254 1.317 . S
C254 H216 0.930 . S
C254 C222 1.432 . S
C254 C253 1.317 . S
C255 O239 1.283 . S
C255 O242 1.243 . S
C256 C257 1.382 . S
C256 C260 1.393 . S
C256 C263 1.500 . S
C257 C256 1.382 . S
C257 C258 1.400 . S
C257 H268 0.930 1_565 S
C258 C257 1.400 . S
C258 C259 1.384 . S
C259 C258 1.384 . S
C259 C261 1.392 . S
C259 H269 0.931 . S
C260 C256 1.393 . S
C260 C261 1.401 . S
C260 H270 0.930 . S
C261 C259 1.392 . S
C261 C260 1.401 . S
C261 H271 0.930 . S
C262 O240 1.262 . S
C262 O241 1.260 . S
C263 Tb199 2.833 . S
C263 O238 1.251 . S
C263 O243 1.256 . S
C263 C256 1.500 . S
H264 C247 0.930 . S
H265 C248 0.931 . S
H266 C249 0.930 . S
H267 C250 0.930 . S
H268 C257 0.930 1_545 S
H269 C259 0.931 . S
H270 C260 0.930 . S
H271 C261 0.930 . S
Tb272 N303 2.660 . S
Tb272 N310 2.600 . S
Tb272 O316 2.546 . S
Tb272 O317 2.610 . S
Tb272 O319 2.320 . S
Tb272 O320 2.552 . S
Tb272 O321 2.413 . S
Tb272 O323 2.362 . S
Tb272 O324 2.421 . S
Tb272 C336 2.833 . S
C273 C276 1.432 . S
C273 C277 1.414 . S
C273 N280 1.359 . S
C274 C276 1.417 . S
C274 C278 1.432 . S
C274 C286 1.410 . S
C275 C277 1.444 . S
C275 C278 1.317 . S
C275 H298 0.929 . S
C276 C273 1.432 . S
C276 C274 1.417 . S
C276 N284 1.360 . S
C277 C273 1.414 . S
C277 C275 1.444 . S
C277 C282 1.385 . S
C278 C274 1.432 . S
C278 C275 1.317 . S
C278 H290 0.930 . S
C279 C281 1.392 . S
C279 C282 1.370 . S
C279 H291 0.931 1_556 S
N280 C273 1.359 . S
N280 C281 1.327 . S
N280 Tb283 2.600 . S
C281 C279 1.392 . S
C281 N280 1.327 . S
C281 H288 0.930 . S
C282 C277 1.385 . S
C282 C279 1.370 . S
C282 H301 0.930 . S
Tb283 N280 2.600 . S
Tb283 N284 2.660 . S
Tb283 O317 2.362 . S
Tb283 O318 2.421 . S
Tb283 O322 2.546 . S
Tb283 O323 2.610 . S
Tb283 O325 2.320 . S
Tb283 O326 2.552 . S
Tb283 O327 2.413 . S
Tb283 C347 2.833 . S
N284 C276 1.360 . S
N284 Tb283 2.660 . S
N284 C285 1.305 . S
C285 N284 1.305 . S
C285 C287 1.407 . S
C285 H292 0.930 . S
C286 C274 1.410 . S
C286 C287 1.345 . S
C286 H294 0.930 . S
C287 C285 1.407 . S
C287 C286 1.345 . S
C287 H289 0.930 . S
H288 C281 0.930 . S
H289 C287 0.930 . S
H290 C278 0.930 . S
H291 C279 0.931 1_554 S
H292 C285 0.930 . S
H293 C307 0.930 . S
H294 C286 0.930 . S
H295 C313 0.930 . S
H296 C304 0.930 . S
H297 C311 0.931 . S
H298 C275 0.929 . S
H299 C305 0.930 . S
H300 C338 0.930 . S
H301 C282 0.930 . S
H302 C337 0.929 . S
N303 Tb272 2.660 . S
N303 C304 1.305 . S
N303 C308 1.360 . S
C304 H296 0.930 . S
C304 N303 1.305 . S
C304 C307 1.407 . S
C305 H299 0.930 . S
C305 C306 1.410 . S
C305 C307 1.345 . S
C306 C305 1.410 . S
C306 C308 1.417 . S
C306 C338 1.432 . S
C307 H293 0.930 . S
C307 C304 1.407 . S
C307 C305 1.345 . S
C308 N303 1.360 . S
C308 C306 1.417 . S
C308 C312 1.432 . S
H309 C314 0.930 . S
N310 Tb272 2.600 . S
N310 C312 1.359 . S
N310 C313 1.327 . S
C311 H297 0.931 . S
C311 C313 1.392 . S
C311 C314 1.370 . S
C312 C308 1.432 . S
C312 N310 1.359 . S
C312 C315 1.414 . S
C313 H295 0.930 . S
C313 N310 1.327 . S
C313 C311 1.392 . S
C314 H309 0.930 . S
C314 C311 1.370 . S
C314 C315 1.385 . S
C315 C312 1.414 . S
C315 C314 1.385 . S
C315 C337 1.444 . S
O316 Tb272 2.546 . S
O316 C336 1.251 . S
O317 Tb272 2.610 . S
O317 Tb283 2.362 . S
O317 C328 1.283 . S
O318 Tb283 2.421 . S
O318 C335 1.262 . S
O319 Tb272 2.320 . S
O319 C335 1.260 . S
O320 Tb272 2.552 . S
O320 C328 1.243 . S
O321 Tb272 2.413 . S
O321 C336 1.256 . S
O322 Tb283 2.546 . S
O322 C347 1.251 . S
O323 Tb272 2.362 . S
O323 Tb283 2.610 . S
O323 C339 1.283 . S
O324 Tb272 2.421 . S
O324 C346 1.262 . S
O325 Tb283 2.320 . S
O325 C346 1.260 . S
O326 Tb283 2.552 . S
O326 C339 1.243 . S
O327 Tb283 2.413 . S
O327 C347 1.256 . S
C328 O317 1.283 . S
C328 O320 1.243 . S
C329 C331 1.382 . S
C329 C333 1.393 . S
C329 C336 1.500 . S
C330 C331 1.400 . S
C330 C332 1.384 . S
C331 C329 1.382 . S
C331 C330 1.400 . S
C331 H348 0.930 . S
C332 C330 1.384 . S
C332 C334 1.392 . S
C332 H349 0.931 . S
C333 C329 1.393 . S
C333 C334 1.401 . S
C333 H350 0.930 . S
C334 C332 1.392 . S
C334 C333 1.401 . S
C334 H351 0.930 . S
C335 O318 1.262 . S
C335 O319 1.260 . S
C336 Tb272 2.833 . S
C336 O316 1.251 . S
C336 O321 1.256 . S
C336 C329 1.500 . S
C337 H302 0.929 . S
C337 C315 1.444 . S
C337 C338 1.317 . S
C338 H300 0.930 . S
C338 C306 1.432 . S
C338 C337 1.317 . S
C339 O323 1.283 . S
C339 O326 1.243 . S
C340 C341 1.382 . S
C340 C344 1.393 . S
C340 C347 1.500 1_554 S
C341 C340 1.382 . S
C341 C342 1.400 . S
C341 H352 0.930 1_554 S
C342 C341 1.400 . S
C342 C343 1.384 . S
C343 C342 1.384 . S
C343 C345 1.392 . S
C343 H353 0.931 . S
C344 C340 1.393 . S
C344 C345 1.401 . S
C344 H354 0.930 . S
C345 C343 1.392 . S
C345 C344 1.401 . S
C345 H355 0.930 . S
C346 O324 1.262 . S
C346 O325 1.260 . S
C347 Tb283 2.833 . S
C347 O322 1.251 . S
C347 O327 1.256 . S
C347 C340 1.500 1_556 S
H348 C331 0.930 . S
H349 C332 0.931 . S
H350 C333 0.930 . S
H351 C334 0.930 . S
H352 C341 0.930 1_556 S
H353 C343 0.931 . S
H354 C344 0.930 . S
H355 C345 0.930 . S
Tb356 N387 2.660 . S
Tb356 N394 2.600 . S
Tb356 O400 2.546 . S
Tb356 O401 2.610 . S
Tb356 O403 2.320 . S
Tb356 O404 2.552 . S
Tb356 O405 2.413 . S
Tb356 O407 2.362 . S
Tb356 O408 2.421 1_455 S
Tb356 C420 2.833 . S
C357 C360 1.432 . S
C357 C361 1.414 . S
C357 N364 1.359 . S
C358 C360 1.417 . S
C358 C362 1.432 . S
C358 C370 1.410 . S
C359 C361 1.444 . S
C359 C362 1.317 . S
C359 H382 0.929 . S
C360 C357 1.432 . S
C360 C358 1.417 . S
C360 N368 1.360 . S
C361 C357 1.414 . S
C361 C359 1.444 . S
C361 C366 1.385 1_655 S
C362 C358 1.432 . S
C362 C359 1.317 . S
C362 H374 0.930 . S
C363 C365 1.392 . S
C363 C366 1.370 . S
C363 H375 0.931 1_556 S
N364 C357 1.359 . S
N364 C365 1.327 1_655 S
N364 Tb367 2.600 . S
C365 C363 1.392 . S
C365 N364 1.327 1_455 S
C365 H372 0.930 . S
C366 C361 1.385 1_455 S
C366 C363 1.370 . S
C366 H385 0.930 . S
Tb367 N364 2.600 . S
Tb367 N368 2.660 . S
Tb367 O401 2.362 1_655 S
Tb367 O402 2.421 1_655 S
Tb367 O406 2.546 . S
Tb367 O407 2.610 1_655 S
Tb367 O409 2.320 . S
Tb367 O410 2.552 . S
Tb367 O411 2.413 . S
Tb367 C431 2.833 . S
N368 C360 1.360 . S
N368 Tb367 2.660 . S
N368 C369 1.305 . S
C369 N368 1.305 . S
C369 C371 1.407 . S
C369 H376 0.930 . S
C370 C358 1.410 . S
C370 C371 1.345 . S
C370 H378 0.930 . S
C371 C369 1.407 . S
C371 C370 1.345 . S
C371 H373 0.930 . S
H372 C365 0.930 . S
H373 C371 0.930 . S
H374 C362 0.930 . S
H375 C363 0.931 1_554 S
H376 C369 0.930 . S
H377 C391 0.930 . S
H378 C370 0.930 . S
H379 C397 0.930 . S
H380 C388 0.930 . S
H381 C395 0.931 . S
H382 C359 0.929 . S
H383 C389 0.930 . S
H384 C422 0.930 . S
H385 C366 0.930 . S
H386 C421 0.929 . S
N387 Tb356 2.660 . S
N387 C388 1.305 . S
N387 C392 1.360 . S
C388 H380 0.930 . S
C388 N387 1.305 . S
C388 C391 1.407 . S
C389 H383 0.930 . S
C389 C390 1.410 . S
C389 C391 1.345 . S
C390 C389 1.410 . S
C390 C392 1.417 . S
C390 C422 1.432 . S
C391 H377 0.930 . S
C391 C388 1.407 . S
C391 C389 1.345 . S
C392 N387 1.360 . S
C392 C390 1.417 . S
C392 C396 1.432 . S
H393 C398 0.930 . S
N394 Tb356 2.600 . S
N394 C396 1.359 . S
N394 C397 1.327 1_455 S
C395 H381 0.931 . S
C395 C397 1.392 . S
C395 C398 1.370 1_655 S
C396 C392 1.432 . S
C396 N394 1.359 . S
C396 C399 1.414 . S
C397 H379 0.930 . S
C397 N394 1.327 1_655 S
C397 C395 1.392 . S
C398 H393 0.930 . S
C398 C395 1.370 1_455 S
C398 C399 1.385 . S
C399 C396 1.414 . S
C399 C398 1.385 . S
C399 C421 1.444 . S
O400 Tb356 2.546 . S
O400 C420 1.251 . S
O401 Tb356 2.610 . S
O401 Tb367 2.362 1_455 S
O401 C412 1.283 . S
O402 Tb367 2.421 1_455 S
O402 C419 1.262 . S
O403 Tb356 2.320 . S
O403 C419 1.260 . S
O404 Tb356 2.552 . S
O404 C412 1.243 . S
O405 Tb356 2.413 . S
O405 C420 1.256 . S
O406 Tb367 2.546 . S
O406 C431 1.251 . S
O407 Tb356 2.362 . S
O407 Tb367 2.610 1_455 S
O407 C423 1.283 1_455 S
O408 Tb356 2.421 1_655 S
O408 C430 1.262 . S
O409 Tb367 2.320 . S
O409 C430 1.260 . S
O410 Tb367 2.552 . S
O410 C423 1.243 . S
O411 Tb367 2.413 . S
O411 C431 1.256 . S
C412 O401 1.283 . S
C412 O404 1.243 . S
C413 C415 1.382 . S
C413 C417 1.393 . S
C413 C420 1.500 . S
C414 C415 1.400 . S
C414 C416 1.384 . S
C415 C413 1.382 . S
C415 C414 1.400 . S
C415 H432 0.930 . S
C416 C414 1.384 . S
C416 C418 1.392 . S
C416 H433 0.931 . S
C417 C413 1.393 . S
C417 C418 1.401 . S
C417 H434 0.930 . S
C418 C416 1.392 . S
C418 C417 1.401 . S
C418 H435 0.930 . S
C419 O402 1.262 . S
C419 O403 1.260 . S
C420 Tb356 2.833 . S
C420 O400 1.251 . S
C420 O405 1.256 . S
C420 C413 1.500 . S
C421 H386 0.929 . S
C421 C399 1.444 . S
C421 C422 1.317 . S
C422 H384 0.930 . S
C422 C390 1.432 . S
C422 C421 1.317 . S
C423 O407 1.283 1_655 S
C423 O410 1.243 . S
C424 C425 1.382 . S
C424 C428 1.393 . S
C424 C431 1.500 1_554 S
C425 C424 1.382 . S
C425 C426 1.400 . S
C425 H436 0.930 1_554 S
C426 C425 1.400 . S
C426 C427 1.384 . S
C427 C426 1.384 . S
C427 C429 1.392 . S
C427 H437 0.931 . S
C428 C424 1.393 . S
C428 C429 1.401 . S
C428 H438 0.930 . S
C429 C427 1.392 . S
C429 C428 1.401 . S
C429 H439 0.930 . S
C430 O408 1.262 . S
C430 O409 1.260 . S
C431 Tb367 2.833 . S
C431 O406 1.251 . S
C431 O411 1.256 . S
C431 C424 1.500 1_556 S
H432 C415 0.930 . S
H433 C416 0.931 . S
H434 C417 0.930 . S
H435 C418 0.930 . S
H436 C425 0.930 1_556 S
H437 C427 0.931 . S
H438 C428 0.930 . S
H439 C429 0.930 . S
C440 C441 1.391 . S
C440 C442 1.394 . S
C440 H456 0.931 . S
C441 C440 1.391 . S
C441 C445 1.376 . S
C442 C440 1.394 . S
C442 C443 1.369 . S
C442 C446 1.531 1_545 S
C443 C442 1.369 . S
C443 C444 1.410 . S
C443 C451 1.503 . S
C444 C443 1.410 . S
C444 C445 1.392 . S
C444 C447 1.511 . S
C445 C441 1.376 . S
C445 C444 1.392 . S
C445 H457 0.929 . S
C446 C442 1.531 1_565 S
C446 H458 0.960 . S
C446 H459 0.962 . S
C446 H460 0.960 . S
C447 C444 1.511 . S
C447 H461 0.961 . S
C447 H462 0.961 . S
C447 H463 0.961 . S
C448 C449 1.370 . S
C448 C450 1.363 . S
C448 H464 0.931 . S
C449 C448 1.370 . S
C449 C453 1.408 . S
C450 C448 1.363 . S
C450 C451 1.370 . S
C450 C454 1.524 . S
C451 C443 1.503 . S
C451 C450 1.370 . S
C451 C452 1.403 . S
C452 C451 1.403 . S
C452 C453 1.404 . S
C452 C455 1.539 . S
C453 C449 1.408 . S
C453 C452 1.404 . S
C453 H465 0.930 . S
C454 C450 1.524 . S
C454 H466 0.956 . S
C454 H467 0.961 . S
C454 H468 0.961 . S
C455 C452 1.539 . S
C455 H469 0.958 . S
C455 H470 0.961 . S
C455 H471 0.960 . S
H456 C440 0.931 . S
H457 C445 0.929 . S
H458 C446 0.960 . S
H459 C446 0.962 . S
H460 C446 0.960 . S
H461 C447 0.961 . S
H462 C447 0.961 . S
H463 C447 0.961 . S
H464 C448 0.931 . S
H465 C453 0.930 . S
H466 C454 0.956 . S
H467 C454 0.961 . S
H468 C454 0.961 . S
H469 C455 0.958 . S
H470 C455 0.961 . S
H471 C455 0.960 . S
C472 C473 1.391 . S
C472 C474 1.394 . S
C472 H488 0.931 . S
C473 C472 1.391 . S
C473 C477 1.376 . S
C474 C472 1.394 . S
C474 C475 1.369 . S
C474 C478 1.531 . S
C475 C474 1.369 . S
C475 C476 1.410 . S
C475 C483 1.503 . S
C476 C475 1.410 . S
C476 C477 1.392 . S
C476 C479 1.511 . S
C477 C473 1.376 . S
C477 C476 1.392 . S
C477 H489 0.929 . S
C478 C474 1.531 . S
C478 H490 0.960 . S
C478 H491 0.962 . S
C478 H492 0.960 . S
C479 C476 1.511 . S
C479 H493 0.961 . S
C479 H494 0.961 . S
C479 H495 0.961 . S
C480 C481 1.370 . S
C480 C482 1.363 . S
C480 H496 0.931 . S
C481 C480 1.370 . S
C481 C485 1.408 . S
C482 C480 1.363 . S
C482 C483 1.370 . S
C482 C486 1.524 . S
C483 C475 1.503 . S
C483 C482 1.370 . S
C483 C484 1.403 . S
C484 C483 1.403 . S
C484 C485 1.404 . S
C484 C487 1.539 . S
C485 C481 1.408 . S
C485 C484 1.404 . S
C485 H497 0.930 . S
C486 C482 1.524 . S
C486 H498 0.956 . S
C486 H499 0.961 . S
C486 H500 0.961 . S
C487 C484 1.539 . S
C487 H501 0.958 . S
C487 H502 0.961 . S
C487 H503 0.960 . S
H488 C472 0.931 . S
H489 C477 0.929 . S
H490 C478 0.960 . S
H491 C478 0.962 . S
H492 C478 0.960 . S
H493 C479 0.961 . S
H494 C479 0.961 . S
H495 C479 0.961 . S
H496 C480 0.931 . S
H497 C485 0.930 . S
H498 C486 0.956 . S
H499 C486 0.961 . S
H500 C486 0.961 . S
H501 C487 0.958 . S
H502 C487 0.961 . S
H503 C487 0.960 . S
C504 C505 1.391 . S
C504 C506 1.394 . S
C504 H520 0.931 . S
C505 C504 1.391 . S
C505 C509 1.376 . S
C506 C504 1.394 . S
C506 C507 1.369 . S
C506 C510 1.531 . S
C507 C506 1.369 . S
C507 C508 1.410 . S
C507 C515 1.503 . S
C508 C507 1.410 . S
C508 C509 1.392 . S
C508 C511 1.511 . S
C509 C505 1.376 . S
C509 C508 1.392 . S
C509 H521 0.929 . S
C510 C506 1.531 . S
C510 H522 0.960 . S
C510 H523 0.962 . S
C510 H524 0.960 . S
C511 C508 1.511 . S
C511 H525 0.961 . S
C511 H526 0.961 . S
C511 H527 0.961 . S
C512 C513 1.370 . S
C512 C514 1.363 . S
C512 H528 0.931 . S
C513 C512 1.370 . S
C513 C517 1.408 . S
C514 C512 1.363 . S
C514 C515 1.370 . S
C514 C518 1.524 . S
C515 C507 1.503 . S
C515 C514 1.370 . S
C515 C516 1.403 . S
C516 C515 1.403 . S
C516 C517 1.404 . S
C516 C519 1.539 . S
C517 C513 1.408 . S
C517 C516 1.404 . S
C517 H529 0.930 . S
C518 C514 1.524 . S
C518 H530 0.956 . S
C518 H531 0.961 . S
C518 H532 0.961 . S
C519 C516 1.539 . S
C519 H533 0.958 . S
C519 H534 0.961 . S
C519 H535 0.960 . S
H520 C504 0.931 . S
H521 C509 0.929 . S
H522 C510 0.960 . S
H523 C510 0.962 . S
H524 C510 0.960 . S
H525 C511 0.961 . S
H526 C511 0.961 . S
H527 C511 0.961 . S
H528 C512 0.931 . S
H529 C517 0.930 . S
H530 C518 0.956 . S
H531 C518 0.961 . S
H532 C518 0.961 . S
H533 C519 0.958 . S
H534 C519 0.961 . S
H535 C519 0.960 . S
C536 C537 1.391 . S
C536 C538 1.394 . S
C536 H552 0.931 . S
C537 C536 1.391 . S
C537 C541 1.376 . S
C538 C536 1.394 . S
C538 C539 1.369 . S
C538 C542 1.531 . S
C539 C538 1.369 . S
C539 C540 1.410 . S
C539 C547 1.503 . S
C540 C539 1.410 . S
C540 C541 1.392 . S
C540 C543 1.511 1_455 S
C541 C537 1.376 . S
C541 C540 1.392 . S
C541 H553 0.929 . S
C542 C538 1.531 . S
C542 H554 0.960 . S
C542 H555 0.962 . S
C542 H556 0.960 . S
C543 C540 1.511 1_655 S
C543 H557 0.961 . S
C543 H558 0.961 . S
C543 H559 0.961 . S
C544 C545 1.370 . S
C544 C546 1.363 . S
C544 H560 0.931 . S
C545 C544 1.370 . S
C545 C549 1.408 . S
C546 C544 1.363 . S
C546 C547 1.370 . S
C546 C550 1.524 . S
C547 C539 1.503 . S
C547 C546 1.370 . S
C547 C548 1.403 . S
C548 C547 1.403 . S
C548 C549 1.404 . S
C548 C551 1.539 . S
C549 C545 1.408 . S
C549 C548 1.404 . S
C549 H561 0.930 . S
C550 C546 1.524 . S
C550 H562 0.956 . S
C550 H563 0.961 . S
C550 H564 0.961 . S
C551 C548 1.539 . S
C551 H565 0.958 . S
C551 H566 0.961 . S
C551 H567 0.960 . S
H552 C536 0.931 . S
H553 C541 0.929 . S
H554 C542 0.960 . S
H555 C542 0.962 . S
H556 C542 0.960 . S
H557 C543 0.961 . S
H558 C543 0.961 . S
H559 C543 0.961 . S
H560 C544 0.931 . S
H561 C549 0.930 . S
H562 C550 0.956 . S
H563 C550 0.961 . S
H564 C550 0.961 . S
H565 C551 0.958 . S
H566 C551 0.961 . S
H567 C551 0.960 . S
C568 C569 1.391 . S
C568 C570 1.394 . S
C568 H584 0.931 . S
C569 C568 1.391 . S
C569 C573 1.376 . S
C570 C568 1.394 . S
C570 C571 1.369 . S
C570 C574 1.531 1_565 S
C571 C570 1.369 . S
C571 C572 1.410 . S
C571 C579 1.503 . S
C572 C571 1.410 . S
C572 C573 1.392 . S
C572 C575 1.511 . S
C573 C569 1.376 . S
C573 C572 1.392 . S
C573 H585 0.929 . S
C574 C570 1.531 1_545 S
C574 H586 0.960 1_554 S
C574 H587 0.986 1_554 S
C574 H588 0.960 . S
C575 C572 1.511 . S
C575 H589 0.961 . S
C575 H590 0.961 . S
C575 H591 0.961 . S
C576 C577 1.370 . S
C576 C578 1.363 . S
C576 H592 0.931 . S
C577 C576 1.370 . S
C577 C581 1.408 1_565 S
C578 C576 1.363 . S
C578 C579 1.370 1_556 S
C578 C582 1.524 . S
C579 C571 1.503 . S
C579 C578 1.370 1_554 S
C579 C580 1.403 1_565 S
C580 C579 1.403 1_545 S
C580 C581 1.404 1_554 S
C580 C583 1.539 . S
C581 C577 1.408 1_545 S
C581 C580 1.404 1_556 S
C581 H593 0.930 . S
C582 C578 1.524 . S
C582 H594 0.956 . S
C582 H595 0.961 1_556 S
C582 H596 0.961 . S
C583 C580 1.539 . S
C583 H597 0.958 . S
C583 H598 0.961 . S
C583 H599 0.960 . S
H584 C568 0.931 . S
H585 C573 0.929 . S
H586 C574 0.960 1_556 S
H587 C574 0.986 1_556 S
H588 C574 0.960 . S
H589 C575 0.961 . S
H590 C575 0.961 . S
H591 C575 0.961 . S
H592 C576 0.931 . S
H593 C581 0.930 . S
H594 C582 0.956 . S
H595 C582 0.961 1_554 S
H596 C582 0.961 . S
H597 C583 0.958 . S
H598 C583 0.961 . S
H599 C583 0.960 . S
C600 C601 1.391 . S
C600 C602 1.394 . S
C600 H616 0.931 . S
C601 C600 1.391 . S
C601 C605 1.376 . S
C602 C600 1.394 . S
C602 C603 1.369 . S
C602 C606 1.531 . S
C603 C602 1.369 . S
C603 C604 1.410 . S
C603 C611 1.503 . S
C604 C603 1.410 . S
C604 C605 1.392 . S
C604 C607 1.511 . S
C605 C601 1.376 . S
C605 C604 1.392 . S
C605 H617 0.929 . S
C606 C602 1.531 . S
C606 H618 0.960 1_554 S
C606 H619 0.962 . S
C606 H620 0.960 . S
C607 C604 1.511 . S
C607 H621 0.961 . S
C607 H622 0.961 . S
C607 H623 0.961 . S
C608 C609 1.370 . S
C608 C610 1.363 1_556 S
C608 H624 0.931 . S
C609 C608 1.370 . S
C609 C613 1.408 . S
C610 C608 1.363 1_554 S
C610 C611 1.370 . S
C610 C614 1.524 . S
C611 C603 1.503 . S
C611 C610 1.370 . S
C611 C612 1.403 1_554 S
C612 C611 1.403 1_556 S
C612 C613 1.404 . S
C612 C615 1.539 . S
C613 C609 1.408 . S
C613 C612 1.404 . S
C613 H625 0.930 . S
C614 C610 1.524 . S
C614 H626 0.956 . S
C614 H627 0.961 . S
C614 H628 0.961 . S
C615 C612 1.539 . S
C615 H629 0.958 . S
C615 H630 0.961 . S
C615 H631 0.960 . S
H616 C600 0.931 . S
H617 C605 0.929 . S
H618 C606 0.960 1_556 S
H619 C606 0.962 . S
H620 C606 0.960 . S
H621 C607 0.961 . S
H622 C607 0.961 . S
H623 C607 0.961 . S
H624 C608 0.931 . S
H625 C613 0.930 . S
H626 C614 0.956 . S
H627 C614 0.961 . S
H628 C614 0.961 . S
H629 C615 0.958 . S
H630 C615 0.961 . S
H631 C615 0.960 . S
C632 C633 1.391 . S
C632 C634 1.394 . S
C632 H648 0.931 . S
C633 C632 1.391 . S
C633 C637 1.376 . S
C634 C632 1.394 . S
C634 C635 1.369 . S
C634 C638 1.531 . S
C635 C634 1.369 . S
C635 C636 1.410 . S
C635 C643 1.503 . S
C636 C635 1.410 . S
C636 C637 1.392 . S
C636 C639 1.511 1_554 S
C637 C633 1.376 . S
C637 C636 1.392 . S
C637 H649 0.929 . S
C638 C634 1.531 . S
C638 H650 0.960 . S
C638 H651 0.962 . S
C638 H652 0.960 . S
C639 C636 1.511 1_556 S
C639 H653 0.961 . S
C639 H654 0.961 . S
C639 H655 0.961 . S
C640 C641 1.370 . S
C640 C642 1.363 1_556 S
C640 H656 0.931 . S
C641 C640 1.370 . S
C641 C645 1.408 . S
C642 C640 1.363 1_554 S
C642 C643 1.370 . S
C642 C646 1.524 . S
C643 C635 1.503 . S
C643 C642 1.370 . S
C643 C644 1.403 1_554 S
C644 C643 1.403 1_556 S
C644 C645 1.404 . S
C644 C647 1.539 . S
C645 C641 1.408 . S
C645 C644 1.404 . S
C645 H657 0.930 . S
C646 C642 1.524 . S
C646 H658 0.956 . S
C646 H659 0.961 . S
C646 H660 0.961 . S
C647 C644 1.539 . S
C647 H661 0.958 . S
C647 H662 0.961 . S
C647 H663 0.960 . S
H648 C632 0.931 . S
H649 C637 0.929 . S
H650 C638 0.960 . S
H651 C638 0.962 . S
H652 C638 0.960 . S
H653 C639 0.961 . S
H654 C639 0.961 . S
H655 C639 0.961 . S
H656 C640 0.931 . S
H657 C645 0.930 . S
H658 C646 0.956 . S
H659 C646 0.961 . S
H660 C646 0.961 . S
H661 C647 0.958 . S
H662 C647 0.961 . S
H663 C647 0.960 . S
C664 C665 1.391 . S
C664 C666 1.394 . S
C664 H680 0.931 . S
C665 C664 1.391 . S
C665 C669 1.376 . S
C666 C664 1.394 . S
C666 C667 1.369 . S
C666 C670 1.531 . S
C667 C666 1.369 . S
C667 C668 1.410 . S
C667 C675 1.503 . S
C668 C667 1.410 . S
C668 C669 1.392 . S
C668 C671 1.511 1_554 S
C669 C665 1.376 . S
C669 C668 1.392 . S
C669 H681 0.929 . S
C670 C666 1.531 . S
C670 H682 0.960 . S
C670 H683 0.962 1_655 S
C670 H684 0.960 . S
C671 C668 1.511 1_556 S
C671 H685 0.961 . S
C671 H686 0.961 . S
C671 H687 0.961 . S
C672 C673 1.370 1_455 S
C672 C674 1.363 1_455 S
C672 H688 0.931 . S
C673 C672 1.370 1_655 S
C673 C677 1.408 . S
C674 C672 1.363 1_655 S
C674 C675 1.370 1_556 S
C674 C678 1.524 1_655 S
C675 C667 1.503 . S
C675 C674 1.370 1_554 S
C675 C676 1.403 1_554 S
C676 C675 1.403 1_556 S
C676 C677 1.404 . S
C676 C679 1.539 1_556 S
C677 C673 1.408 . S
C677 C676 1.404 . S
C677 H689 0.930 . S
C678 C674 1.524 1_455 S
C678 H690 0.956 1_556 S
C678 H691 0.961 . S
C678 H692 0.961 . S
C679 C676 1.539 1_554 S
C679 H693 0.958 . S
C679 H694 0.961 . S
C679 H695 0.960 . S
H680 C664 0.931 . S
H681 C669 0.929 . S
H682 C670 0.960 . S
H683 C670 0.962 1_455 S
H684 C670 0.960 . S
H685 C671 0.961 . S
H686 C671 0.961 . S
H687 C671 0.961 . S
H688 C672 0.931 . S
H689 C677 0.930 . S
H690 C678 0.956 1_554 S
H691 C678 0.961 . S
H692 C678 0.961 . S
H693 C679 0.958 . S
H694 C679 0.961 . S
H695 C679 0.960 . S
C696 C697 1.391 . S
C696 C698 1.394 . S
C696 H712 0.931 . S
C697 C696 1.391 . S
C697 C701 1.376 . S
C698 C696 1.394 . S
C698 C699 1.369 . S
C698 C702 1.531 . S
C699 C698 1.369 . S
C699 C700 1.410 . S
C699 C707 1.503 . S
C700 C699 1.410 . S
C700 C701 1.392 . S
C700 C703 1.511 1_455 S
C701 C697 1.376 . S
C701 C700 1.392 . S
C701 H713 0.929 1_554 S
C702 C698 1.531 . S
C702 H714 0.960 . S
C702 H715 0.962 . S
C702 H716 0.960 . S
C703 C700 1.511 1_655 S
C703 H717 0.961 1_554 S
C703 H718 0.961 . S
C703 H719 0.961 . S
C704 C705 1.374 . S
C704 C706 1.363 . S
C704 H720 0.931 . S
C705 C704 1.374 . S
C705 C709 1.406 1_455 S
C706 C704 1.363 . S
C706 C707 1.370 . S
C706 C710 1.524 . S
C707 C699 1.503 . S
C707 C706 1.370 . S
C707 C708 1.403 . S
C708 C707 1.403 . S
C708 C709 1.404 1_455 S
C708 C711 1.539 1_455 S
C709 C705 1.406 1_655 S
C709 C708 1.404 1_655 S
C709 H721 0.930 . S
C710 C706 1.524 . S
C710 H722 0.956 . S
C710 H723 0.961 . S
C710 H724 0.961 . S
C711 C708 1.539 1_655 S
C711 H725 0.958 1_655 S
C711 H726 0.961 . S
C711 H727 0.960 . S
H712 C696 0.931 . S
H713 C701 0.929 1_556 S
H714 C702 0.960 . S
H715 C702 0.962 . S
H716 C702 0.960 . S
H717 C703 0.961 1_556 S
H718 C703 0.961 . S
H719 C703 0.961 . S
H720 C704 0.931 . S
H721 C709 0.930 . S
H722 C710 0.956 . S
H723 C710 0.961 . S
H724 C710 0.961 . S
H725 C711 0.958 1_455 S
H726 C711 0.961 . S
H727 C711 0.960 . S
C728 C729 1.391 . S
C728 C730 1.394 . S
C728 H744 0.931 . S
C729 C728 1.391 . S
C729 C733 1.376 . S
C730 C728 1.394 . S
C730 C731 1.369 . S
C730 C734 1.531 . S
C731 C730 1.369 . S
C731 C732 1.410 . S
C731 C739 1.503 . S
C732 C731 1.410 . S
C732 C733 1.392 . S
C732 C735 1.511 1_545 S
C733 C729 1.376 . S
C733 C732 1.392 . S
C733 H745 0.929 . S
C734 C730 1.531 . S
C734 H746 0.960 . S
C734 H747 0.962 . S
C734 H748 0.960 . S
C735 C732 1.511 1_565 S
C735 H749 0.961 . S
C735 H750 0.961 . S
C735 H751 0.961 . S
C736 C737 1.370 . S
C736 C738 1.363 . S
C736 H752 0.931 1_545 S
C737 C736 1.370 . S
C737 C741 1.408 . S
C738 C736 1.363 . S
C738 C739 1.370 . S
C738 C742 1.524 . S
C739 C731 1.503 . S
C739 C738 1.370 . S
C739 C740 1.403 . S
C740 C739 1.403 . S
C740 C741 1.404 . S
C740 C743 1.539 . S
C741 C737 1.408 . S
C741 C740 1.404 . S
C741 H753 0.930 . S
C742 C738 1.524 . S
C742 H754 0.956 . S
C742 H755 0.961 . S
C742 H756 0.961 . S
C743 C740 1.539 . S
C743 H757 0.958 . S
C743 H758 0.961 . S
C743 H759 0.960 . S
H744 C728 0.931 . S
H745 C733 0.929 . S
H746 C734 0.960 . S
H747 C734 0.962 . S
H748 C734 0.960 . S
H749 C735 0.961 . S
H750 C735 0.961 . S
H751 C735 0.961 . S
H752 C736 0.931 1_565 S
H753 C741 0.930 . S
H754 C742 0.956 . S
H755 C742 0.961 . S
H756 C742 0.961 . S
H757 C743 0.958 . S
H758 C743 0.961 . S
H759 C743 0.960 . S
C760 C761 1.391 . S
C760 C762 1.394 . S
C760 H776 0.931 . S
C761 C760 1.391 . S
C761 C765 1.376 . S
C762 C760 1.394 . S
C762 C763 1.369 . S
C762 C766 1.531 . S
C763 C762 1.369 . S
C763 C764 1.410 . S
C763 C771 1.503 . S
C764 C763 1.410 . S
C764 C765 1.392 . S
C764 C767 1.511 . S
C765 C761 1.376 . S
C765 C764 1.392 . S
C765 H777 0.929 1_554 S
C766 C762 1.531 . S
C766 H778 0.960 . S
C766 H779 0.962 . S
C766 H780 0.960 . S
C767 C764 1.511 . S
C767 H781 0.961 . S
C767 H782 0.961 . S
C767 H783 0.961 1_554 S
C768 C769 1.370 . S
C768 C770 1.363 . S
C768 H784 0.931 . S
C769 C768 1.370 . S
C769 C773 1.408 . S
C770 C768 1.363 . S
C770 C771 1.370 . S
C770 C774 1.524 . S
C771 C763 1.503 . S
C771 C770 1.370 . S
C771 C772 1.403 . S
C772 C771 1.403 . S
C772 C773 1.404 . S
C772 C775 1.539 . S
C773 C769 1.408 . S
C773 C772 1.404 . S
C773 H785 0.930 . S
C774 C770 1.524 . S
C774 H786 0.956 . S
C774 H787 0.961 . S
C774 H788 0.961 . S
C775 C772 1.539 . S
C775 H789 0.958 . S
C775 H790 0.961 . S
C775 H791 0.960 . S
H776 C760 0.931 . S
H777 C765 0.929 1_556 S
H778 C766 0.960 . S
H779 C766 0.962 . S
H780 C766 0.960 . S
H781 C767 0.961 . S
H782 C767 0.961 . S
H783 C767 0.961 1_556 S
H784 C768 0.931 . S
H785 C773 0.930 . S
H786 C774 0.956 . S
H787 C774 0.961 . S
H788 C774 0.961 . S
H789 C775 0.958 . S
H790 C775 0.961 . S
H791 C775 0.960 . S
C792 C793 1.391 . S
C792 C794 1.394 . S
C792 H808 0.931 1_554 S
C793 C792 1.391 . S
C793 C797 1.376 . S
C794 C792 1.394 . S
C794 C795 1.369 . S
C794 C798 1.531 . S
C795 C794 1.369 . S
C795 C796 1.410 . S
C795 C803 1.503 . S
C796 C795 1.410 . S
C796 C797 1.392 . S
C796 C799 1.511 . S
C797 C793 1.376 . S
C797 C796 1.392 . S
C797 H809 0.929 . S
C798 C794 1.531 . S
C798 H810 0.960 . S
C798 H811 0.962 1_554 S
C798 H812 0.960 1_554 S
C799 C796 1.511 . S
C799 H813 0.961 . S
C799 H814 0.961 . S
C799 H815 0.961 . S
C800 C801 1.370 . S
C800 C802 1.363 . S
C800 H816 0.931 . S
C801 C800 1.370 . S
C801 C805 1.408 . S
C802 C800 1.363 . S
C802 C803 1.370 . S
C802 C806 1.524 . S
C803 C795 1.503 . S
C803 C802 1.370 . S
C803 C804 1.403 . S
C804 C803 1.403 . S
C804 C805 1.404 . S
C804 C807 1.539 . S
C805 C801 1.408 . S
C805 C804 1.404 . S
C805 H817 0.930 . S
C806 C802 1.524 . S
C806 H818 0.956 . S
C806 H819 0.961 . S
C806 H820 0.961 . S
C807 C804 1.539 . S
C807 H821 0.958 . S
C807 H822 0.961 . S
C807 H823 0.960 . S
H808 C792 0.931 1_556 S
H809 C797 0.929 . S
H810 C798 0.960 . S
H811 C798 0.962 1_556 S
H812 C798 0.960 1_556 S
H813 C799 0.961 . S
H814 C799 0.961 . S
H815 C799 0.961 . S
H816 C800 0.931 . S
H817 C805 0.930 . S
H818 C806 0.956 . S
H819 C806 0.961 . S
H820 C806 0.961 . S
H821 C807 0.958 . S
H822 C807 0.961 . S
H823 C807 0.960 . S
C824 C825 1.391 . S
C824 C826 1.394 . S
C824 H840 0.931 . S
C825 C824 1.391 . S
C825 C829 1.376 . S
C826 C824 1.394 . S
C826 C827 1.369 . S
C826 C830 1.531 1_655 S
C827 C826 1.369 . S
C827 C828 1.410 . S
C827 C835 1.503 . S
C828 C827 1.410 . S
C828 C829 1.392 . S
C828 C831 1.511 . S
C829 C825 1.376 . S
C829 C828 1.392 . S
C829 H841 0.929 . S
C830 C826 1.531 1_455 S
C830 H842 0.960 . S
C830 H843 0.962 . S
C830 H844 0.960 . S
C831 C828 1.511 . S
C831 H845 0.961 . S
C831 H846 0.961 . S
C831 H847 0.961 . S
C832 C833 1.370 . S
C832 C834 1.363 . S
C832 H848 0.931 . S
C833 C832 1.370 . S
C833 C837 1.411 1_455 S
C834 C832 1.363 . S
C834 C835 1.370 1_455 S
C834 C838 1.524 . S
C835 C827 1.503 . S
C835 C834 1.370 1_655 S
C835 C836 1.403 . S
C836 C835 1.403 . S
C836 C837 1.406 . S
C836 C839 1.539 1_554 S
C837 C833 1.411 1_655 S
C837 C836 1.406 . S
C837 H849 0.926 1_554 S
C838 C834 1.524 . S
C838 H850 0.956 . S
C838 H851 0.957 1_455 S
C838 H852 0.961 . S
C839 C836 1.539 1_556 S
C839 H853 0.958 . S
C839 H854 0.961 . S
C839 H855 0.960 1_556 S
H840 C824 0.931 . S
H841 C829 0.929 . S
H842 C830 0.960 . S
H843 C830 0.962 . S
H844 C830 0.960 . S
H845 C831 0.961 . S
H846 C831 0.961 . S
H847 C831 0.961 . S
H848 C832 0.931 . S
H849 C837 0.926 1_556 S
H850 C838 0.956 . S
H851 C838 0.957 1_655 S
H852 C838 0.961 . S
H853 C839 0.958 . S
H854 C839 0.961 . S
H855 C839 0.960 1_554 S
C856 C857 1.391 . S
C856 C858 1.394 . S
C856 H872 0.931 . S
C857 C856 1.391 . S
C857 C861 1.376 . S
C858 C856 1.394 . S
C858 C859 1.369 . S
C858 C862 1.531 . S
C859 C858 1.369 . S
C859 C860 1.410 . S
C859 C867 1.496 1_565 S
C860 C859 1.410 . S
C860 C861 1.392 . S
C860 C863 1.515 . S
C861 C857 1.376 . S
C861 C860 1.392 . S
C861 H873 0.929 . S
C862 C858 1.531 . S
C862 H874 0.962 1_565 S
C862 H875 0.962 . S
C862 H876 0.960 . S
C863 C860 1.515 . S
C863 H877 0.966 . S
C863 H878 0.962 . S
C863 H879 0.951 1_565 S
C864 C865 1.370 1_565 S
C864 C866 1.363 . S
C864 H880 0.931 . S
C865 C864 1.370 1_545 S
C865 C869 1.408 . S
C866 C864 1.363 . S
C866 C867 1.355 1_565 S
C866 C870 1.524 . S
C867 C859 1.496 1_545 S
C867 C866 1.355 1_545 S
C867 C868 1.426 . S
C868 C867 1.426 . S
C868 C869 1.404 . S
C868 C871 1.539 . S
C869 C865 1.408 . S
C869 C868 1.404 . S
C869 H881 0.930 . S
C870 C866 1.524 . S
C870 H882 0.956 . S
C870 H883 0.961 . S
C870 H884 0.961 . S
C871 C868 1.539 . S
C871 H885 0.958 . S
C871 H886 0.961 . S
C871 H887 0.960 . S
H872 C856 0.931 . S
H873 C861 0.929 . S
H874 C862 0.962 1_545 S
H875 C862 0.962 . S
H876 C862 0.960 . S
H877 C863 0.966 . S
H878 C863 0.962 . S
H879 C863 0.951 1_545 S
H880 C864 0.931 . S
H881 C869 0.930 . S
H882 C870 0.956 . S
H883 C870 0.961 . S
H884 C870 0.961 . S
H885 C871 0.958 . S
H886 C871 0.961 . S
H887 C871 0.960 . S
C888 C889 1.391 . S
C888 C890 1.394 . S
C888 H904 0.931 . S
C889 C888 1.391 . S
C889 C893 1.376 . S
C890 C888 1.394 . S
C890 C891 1.369 . S
C890 C894 1.531 . S
C891 C890 1.369 . S
C891 C892 1.410 . S
C891 C899 1.503 . S
C892 C891 1.410 . S
C892 C893 1.392 . S
C892 C895 1.511 . S
C893 C889 1.376 . S
C893 C892 1.392 . S
C893 H905 0.929 . S
C894 C890 1.531 . S
C894 H906 0.960 . S
C894 H907 0.962 . S
C894 H908 0.960 . S
C895 C892 1.511 . S
C895 H909 0.961 . S
C895 H910 0.961 . S
C895 H911 0.961 . S
C896 C897 1.370 . S
C896 C898 1.363 . S
C896 H912 0.931 . S
C897 C896 1.370 . S
C897 C901 1.408 . S
C898 C896 1.363 . S
C898 C899 1.370 . S
C898 C902 1.524 . S
C899 C891 1.503 . S
C899 C898 1.370 . S
C899 C900 1.403 . S
C900 C899 1.403 . S
C900 C901 1.404 . S
C900 C903 1.539 1_554 S
C901 C897 1.408 . S
C901 C900 1.404 . S
C901 H913 0.930 1_554 S
C902 C898 1.524 . S
C902 H914 0.956 . S
C902 H915 0.961 . S
C902 H916 0.961 . S
C903 C900 1.539 1_556 S
C903 H917 0.958 . S
C903 H918 0.961 . S
C903 H919 0.960 1_556 S
H904 C888 0.931 . S
H905 C893 0.929 . S
H906 C894 0.960 . S
H907 C894 0.962 . S
H908 C894 0.960 . S
H909 C895 0.961 . S
H910 C895 0.961 . S
H911 C895 0.961 . S
H912 C896 0.931 . S
H913 C901 0.930 1_556 S
H914 C902 0.956 . S
H915 C902 0.961 . S
H916 C902 0.961 . S
H917 C903 0.958 . S
H918 C903 0.961 . S
H919 C903 0.960 1_554 S
C920 C921 1.391 . S
C920 C922 1.394 . S
C920 H936 0.931 . S
C921 C920 1.391 . S
C921 C925 1.376 . S
C922 C920 1.394 . S
C922 C923 1.369 . S
C922 C926 1.531 . S
C923 C922 1.369 . S
C923 C924 1.410 . S
C923 C931 1.503 . S
C924 C923 1.410 . S
C924 C925 1.392 . S
C924 C927 1.511 . S
C925 C921 1.376 . S
C925 C924 1.392 . S
C925 H937 0.929 . S
C926 C922 1.531 . S
C926 H938 0.960 . S
C926 H939 0.962 . S
C926 H940 0.960 . S
C927 C924 1.511 . S
C927 H941 0.961 . S
C927 H942 0.961 . S
C927 H943 0.961 . S
C928 C929 1.370 . S
C928 C930 1.363 . S
C928 H944 0.931 . S
C929 C928 1.370 . S
C929 C933 1.408 . S
C930 C928 1.363 . S
C930 C931 1.370 . S
C930 C934 1.524 . S
C931 C923 1.503 . S
C931 C930 1.370 . S
C931 C932 1.403 . S
C932 C931 1.403 . S
C932 C933 1.404 . S
C932 C935 1.539 . S
C933 C929 1.408 . S
C933 C932 1.404 . S
C933 H945 0.930 . S
C934 C930 1.524 . S
C934 H946 0.956 . S
C934 H947 0.961 . S
C934 H948 0.961 . S
C935 C932 1.539 . S
C935 H949 0.958 . S
C935 H950 0.961 . S
C935 H951 0.960 . S
H936 C920 0.931 . S
H937 C925 0.929 . S
H938 C926 0.960 . S
H939 C926 0.962 . S
H940 C926 0.960 . S
H941 C927 0.961 . S
H942 C927 0.961 . S
H943 C927 0.961 . S
H944 C928 0.931 . S
H945 C933 0.930 . S
H946 C934 0.956 . S
H947 C934 0.961 . S
H948 C934 0.961 . S
H949 C935 0.958 . S
H950 C935 0.961 . S
H951 C935 0.960 . S
C952 C953 1.391 . S
C952 C954 1.394 . S
C952 H968 0.931 . S
C953 C952 1.391 . S
C953 C957 1.376 . S
C954 C952 1.394 . S
C954 C955 1.369 . S
C954 C958 1.531 . S
C955 C954 1.369 . S
C955 C956 1.410 . S
C955 C963 1.503 . S
C956 C955 1.410 . S
C956 C957 1.392 . S
C956 C959 1.511 1_556 S
C957 C953 1.376 . S
C957 C956 1.392 . S
C957 H969 0.929 1_556 S
C958 C954 1.531 . S
C958 H970 0.960 . S
C958 H971 0.962 . S
C958 H972 0.960 . S
C959 C956 1.511 1_554 S
C959 H973 0.961 . S
C959 H974 0.961 1_554 S
C959 H975 0.961 . S
C960 C961 1.370 . S
C960 C962 1.363 . S
C960 H976 0.931 1_455 S
C961 C960 1.370 . S
C961 C965 1.408 . S
C962 C960 1.363 . S
C962 C963 1.370 . S
C962 C966 1.524 1_455 S
C963 C955 1.503 . S
C963 C962 1.370 . S
C963 C964 1.403 . S
C964 C963 1.403 . S
C964 C965 1.404 . S
C964 C967 1.539 . S
C965 C961 1.408 . S
C965 C964 1.404 . S
C965 H977 0.930 . S
C966 C962 1.524 1_655 S
C966 H978 0.956 1_655 S
C966 H979 0.961 . S
C966 H980 0.961 . S
C967 C964 1.539 . S
C967 H981 0.958 . S
C967 H982 0.961 . S
C967 H983 0.960 . S
H968 C952 0.931 . S
H969 C957 0.929 1_554 S
H970 C958 0.960 . S
H971 C958 0.962 . S
H972 C958 0.960 . S
H973 C959 0.961 . S
H974 C959 0.961 1_556 S
H975 C959 0.961 . S
H976 C960 0.931 1_655 S
H977 C965 0.930 . S
H978 C966 0.956 1_455 S
H979 C966 0.961 . S
H980 C966 0.961 . S
H981 C967 0.958 . S
H982 C967 0.961 . S
H983 C967 0.960 . S
C984 C985 1.391 . S
C984 C986 1.394 . S
C984 H1000 0.931 . S
C985 C984 1.391 . S
C985 C989 1.376 . S
C986 C984 1.394 . S
C986 C987 1.369 . S
C986 C990 1.531 . S
C987 C986 1.369 . S
C987 C988 1.410 . S
C987 C995 1.503 . S
C988 C987 1.410 . S
C988 C989 1.392 . S
C988 C991 1.511 1_556 S
C989 C985 1.376 . S
C989 C988 1.392 . S
C989 H1001 0.929 1_556 S
C990 C986 1.531 . S
C990 H1002 0.960 . S
C990 H1003 0.962 . S
C990 H1004 0.960 . S
C991 C988 1.511 1_554 S
C991 H1005 0.961 . S
C991 H1006 0.961 1_554 S
C991 H1007 0.961 . S
C992 C993 1.370 . S
C992 C994 1.363 . S
C992 H1008 0.959 . S
C993 C992 1.370 . S
C993 C997 1.408 . S
C994 C992 1.363 . S
C994 C995 1.370 . S
C994 C998 1.522 . S
C995 C987 1.503 . S
C995 C994 1.370 . S
C995 C996 1.403 . S
C996 C995 1.403 . S
C996 C997 1.404 . S
C996 C999 1.539 . S
C997 C993 1.408 . S
C997 C996 1.404 . S
C997 H1009 0.930 . S
C998 C994 1.522 . S
C998 H1010 0.955 . S
C998 H1011 0.961 1_545 S
C998 H1012 0.963 1_545 S
C999 C996 1.539 . S
C999 H1013 0.958 . S
C999 H1014 0.961 . S
C999 H1015 0.960 . S
H1000 C984 0.931 . S
H1001 C989 0.929 1_554 S
H1002 C990 0.960 . S
H1003 C990 0.962 . S
H1004 C990 0.960 . S
H1005 C991 0.961 . S
H1006 C991 0.961 1_556 S
H1007 C991 0.961 . S
H1008 C992 0.959 . S
H1009 C997 0.930 . S
H1010 C998 0.955 . S
H1011 C998 0.961 1_565 S
H1012 C998 0.963 1_565 S
H1013 C999 0.958 . S
H1014 C999 0.961 . S
H1015 C999 0.960 . S
C1016 C1017 1.391 . S
C1016 C1018 1.394 . S
C1016 H1032 0.931 . S
C1017 C1016 1.391 . S
C1017 C1021 1.376 . S
C1018 C1016 1.394 . S
C1018 C1019 1.369 . S
C1018 C1022 1.531 . S
C1019 C1018 1.369 . S
C1019 C1020 1.410 . S
C1019 C1027 1.503 . S
C1020 C1019 1.410 . S
C1020 C1021 1.392 . S
C1020 C1023 1.511 1_556 S
C1021 C1017 1.376 . S
C1021 C1020 1.392 . S
C1021 H1033 0.929 1_556 S
C1022 C1018 1.531 . S
C1022 H1034 0.960 . S
C1022 H1035 0.962 . S
C1022 H1036 0.960 . S
C1023 C1020 1.511 1_554 S
C1023 H1037 0.961 . S
C1023 H1038 0.961 . S
C1023 H1039 0.961 . S
C1024 C1025 1.370 . S
C1024 C1026 1.363 . S
C1024 H1040 0.931 . S
C1025 C1024 1.370 . S
C1025 C1029 1.408 . S
C1026 C1024 1.363 . S
C1026 C1027 1.370 . S
C1026 C1030 1.524 . S
C1027 C1019 1.503 . S
C1027 C1026 1.370 . S
C1027 C1028 1.403 . S
C1028 C1027 1.403 . S
C1028 C1029 1.404 . S
C1028 C1031 1.539 . S
C1029 C1025 1.408 . S
C1029 C1028 1.404 . S
C1029 H1041 0.930 . S
C1030 C1026 1.524 . S
C1030 H1042 0.956 . S
C1030 H1043 0.961 . S
C1030 H1044 0.961 . S
C1031 C1028 1.539 . S
C1031 H1045 0.958 . S
C1031 H1046 0.961 . S
C1031 H1047 0.960 . S
H1032 C1016 0.931 . S
H1033 C1021 0.929 1_554 S
H1034 C1022 0.960 . S
H1035 C1022 0.962 . S
H1036 C1022 0.960 . S
H1037 C1023 0.961 . S
H1038 C1023 0.961 . S
H1039 C1023 0.961 . S
H1040 C1024 0.931 . S
H1041 C1029 0.930 . S
H1042 C1030 0.956 . S
H1043 C1030 0.961 . S
H1044 C1030 0.961 . S
H1045 C1031 0.958 . S
H1046 C1031 0.961 . S
H1047 C1031 0.960 . S
C1048 C1049 1.391 . S
C1048 C1050 1.394 . S
C1048 H1064 0.931 . S
C1049 C1048 1.391 . S
C1049 C1053 1.376 . S
C1050 C1048 1.394 . S
C1050 C1051 1.369 . S
C1050 C1054 1.531 . S
C1051 C1050 1.369 . S
C1051 C1052 1.410 . S
C1051 C1059 1.503 . S
C1052 C1051 1.410 . S
C1052 C1053 1.392 . S
C1052 C1055 1.511 . S
C1053 C1049 1.376 . S
C1053 C1052 1.392 . S
C1053 H1065 0.929 . S
C1054 C1050 1.531 . S
C1054 H1066 0.960 . S
C1054 H1067 0.962 . S
C1054 H1068 0.960 . S
C1055 C1052 1.511 . S
C1055 H1069 0.961 1_556 S
C1055 H1070 0.961 . S
C1055 H1071 0.961 1_556 S
C1056 C1057 1.370 . S
C1056 C1058 1.363 . S
C1056 H1072 0.931 . S
C1057 C1056 1.370 . S
C1057 C1061 1.408 . S
C1058 C1056 1.363 . S
C1058 C1059 1.370 . S
C1058 C1062 1.524 . S
C1059 C1051 1.503 . S
C1059 C1058 1.370 . S
C1059 C1060 1.403 . S
C1060 C1059 1.403 . S
C1060 C1061 1.404 . S
C1060 C1063 1.539 . S
C1061 C1057 1.408 . S
C1061 C1060 1.404 . S
C1061 H1073 0.930 . S
C1062 C1058 1.524 . S
C1062 H1074 0.956 . S
C1062 H1075 0.961 . S
C1062 H1076 0.961 . S
C1063 C1060 1.539 . S
C1063 H1077 0.958 . S
C1063 H1078 0.961 1_556 S
C1063 H1079 0.960 1_556 S
H1064 C1048 0.931 . S
H1065 C1053 0.929 . S
H1066 C1054 0.960 . S
H1067 C1054 0.962 . S
H1068 C1054 0.960 . S
H1069 C1055 0.961 1_554 S
H1070 C1055 0.961 . S
H1071 C1055 0.961 1_554 S
H1072 C1056 0.931 . S
H1073 C1061 0.930 . S
H1074 C1062 0.956 . S
H1075 C1062 0.961 . S
H1076 C1062 0.961 . S
H1077 C1063 0.958 . S
H1078 C1063 0.961 1_554 S
H1079 C1063 0.960 1_554 S
C1080 C1081 1.391 . S
C1080 C1082 1.394 . S
C1080 H1096 0.931 . S
C1081 C1080 1.391 . S
C1081 C1085 1.376 . S
C1082 C1080 1.394 . S
C1082 C1083 1.369 . S
C1082 C1086 1.531 . S
C1083 C1082 1.369 . S
C1083 C1084 1.410 . S
C1083 C1091 1.503 . S
C1084 C1083 1.410 . S
C1084 C1085 1.392 . S
C1084 C1087 1.511 . S
C1085 C1081 1.376 . S
C1085 C1084 1.392 . S
C1085 H1097 0.929 . S
C1086 C1082 1.531 . S
C1086 H1098 0.960 . S
C1086 H1099 0.962 . S
C1086 H1100 0.960 . S
C1087 C1084 1.511 . S
C1087 H1101 0.961 . S
C1087 H1102 0.961 . S
C1087 H1103 0.961 . S
C1088 C1089 1.370 1_455 S
C1088 C1090 1.363 1_455 S
C1088 H1104 0.931 . S
C1089 C1088 1.370 1_655 S
C1089 C1093 1.408 . S
C1090 C1088 1.363 1_655 S
C1090 C1091 1.370 . S
C1090 C1094 1.524 1_655 S
C1091 C1083 1.503 . S
C1091 C1090 1.370 . S
C1091 C1092 1.403 . S
C1092 C1091 1.403 . S
C1092 C1093 1.404 . S
C1092 C1095 1.539 . S
C1093 C1089 1.408 . S
C1093 C1092 1.404 . S
C1093 H1105 0.930 . S
C1094 C1090 1.524 1_455 S
C1094 H1106 0.956 . S
C1094 H1107 0.961 . S
C1094 H1108 0.961 . S
C1095 C1092 1.539 . S
C1095 H1109 0.958 . S
C1095 H1110 0.961 . S
C1095 H1111 0.960 . S
H1096 C1080 0.931 . S
H1097 C1085 0.929 . S
H1098 C1086 0.960 . S
H1099 C1086 0.962 . S
H1100 C1086 0.960 . S
H1101 C1087 0.961 . S
H1102 C1087 0.961 . S
H1103 C1087 0.961 . S
H1104 C1088 0.931 . S
H1105 C1093 0.930 . S
H1106 C1094 0.956 . S
H1107 C1094 0.961 . S
H1108 C1094 0.961 . S
H1109 C1095 0.958 . S
H1110 C1095 0.961 . S
H1111 C1095 0.960 . S
C1112 C1113 1.391 . S
C1112 C1114 1.394 . S
C1112 H1128 0.931 1_565 S
C1113 C1112 1.391 . S
C1113 C1117 1.376 . S
C1114 C1112 1.394 . S
C1114 C1115 1.369 . S
C1114 C1118 1.531 1_565 S
C1115 C1114 1.369 . S
C1115 C1116 1.410 . S
C1115 C1123 1.503 . S
C1116 C1115 1.410 . S
C1116 C1117 1.392 . S
C1116 C1119 1.511 . S
C1117 C1113 1.376 . S
C1117 C1116 1.392 . S
C1117 H1129 0.929 . S
C1118 C1114 1.531 1_545 S
C1118 H1130 0.960 . S
C1118 H1131 0.962 . S
C1118 H1132 0.960 . S
C1119 C1116 1.511 . S
C1119 H1133 0.961 . S
C1119 H1134 0.961 . S
C1119 H1135 0.961 . S
C1120 C1121 1.370 . S
C1120 C1122 1.363 . S
C1120 H1136 0.931 1_565 S
C1121 C1120 1.370 . S
C1121 C1125 1.408 . S
C1122 C1120 1.363 . S
C1122 C1123 1.370 . S
C1122 C1126 1.524 1_565 S
C1123 C1115 1.503 . S
C1123 C1122 1.370 . S
C1123 C1124 1.403 . S
C1124 C1123 1.403 . S
C1124 C1125 1.404 . S
C1124 C1127 1.539 . S
C1125 C1121 1.408 . S
C1125 C1124 1.404 . S
C1125 H1137 0.930 . S
C1126 C1122 1.524 1_545 S
C1126 H1138 0.956 . S
C1126 H1139 0.961 1_545 S
C1126 H1140 0.961 . S
C1127 C1124 1.539 . S
C1127 H1141 0.958 . S
C1127 H1142 0.961 . S
C1127 H1143 0.960 . S
H1128 C1112 0.931 1_545 S
H1129 C1117 0.929 . S
H1130 C1118 0.960 . S
H1131 C1118 0.962 . S
H1132 C1118 0.960 . S
H1133 C1119 0.961 . S
H1134 C1119 0.961 . S
H1135 C1119 0.961 . S
H1136 C1120 0.931 1_545 S
H1137 C1125 0.930 . S
H1138 C1126 0.956 . S
H1139 C1126 0.961 1_565 S
H1140 C1126 0.961 . S
H1141 C1127 0.958 . S
H1142 C1127 0.961 . S
H1143 C1127 0.960 . S
C1144 C1145 1.391 . S
C1144 C1146 1.394 . S
C1144 H1160 0.931 . S
C1145 C1144 1.391 . S
C1145 C1149 1.376 . S
C1146 C1144 1.394 . S
C1146 C1147 1.369 . S
C1146 C1150 1.531 . S
C1147 C1146 1.369 . S
C1147 C1148 1.410 . S
C1147 C1155 1.503 . S
C1148 C1147 1.410 . S
C1148 C1149 1.392 . S
C1148 C1151 1.511 . S
C1149 C1145 1.376 . S
C1149 C1148 1.392 . S
C1149 H1161 0.929 . S
C1150 C1146 1.531 . S
C1150 H1162 0.960 . S
C1150 H1163 0.962 . S
C1150 H1164 0.960 . S
C1151 C1148 1.511 . S
C1151 H1165 0.961 . S
C1151 H1166 0.961 . S
C1151 H1167 0.961 . S
C1152 C1153 1.370 . S
C1152 C1154 1.363 . S
C1152 H1168 0.931 . S
C1153 C1152 1.370 . S
C1153 C1157 1.408 . S
C1154 C1152 1.363 . S
C1154 C1155 1.370 . S
C1154 C1158 1.524 . S
C1155 C1147 1.503 . S
C1155 C1154 1.370 . S
C1155 C1156 1.403 . S
C1156 C1155 1.403 . S
C1156 C1157 1.404 . S
C1156 C1159 1.539 . S
C1157 C1153 1.408 . S
C1157 C1156 1.404 . S
C1157 H1169 0.930 . S
C1158 C1154 1.524 . S
C1158 H1170 0.956 . S
C1158 H1171 0.961 . S
C1158 H1172 0.961 . S
C1159 C1156 1.539 . S
C1159 H1173 0.958 . S
C1159 H1174 0.961 . S
C1159 H1175 0.960 . S
H1160 C1144 0.931 . S
H1161 C1149 0.929 . S
H1162 C1150 0.960 . S
H1163 C1150 0.962 . S
H1164 C1150 0.960 . S
H1165 C1151 0.961 . S
H1166 C1151 0.961 . S
H1167 C1151 0.961 . S
H1168 C1152 0.931 . S
H1169 C1157 0.930 . S
H1170 C1158 0.956 . S
H1171 C1158 0.961 . S
H1172 C1158 0.961 . S
H1173 C1159 0.958 . S
H1174 C1159 0.961 . S
H1175 C1159 0.960 . S
C1176 C1177 1.391 . S
C1176 C1178 1.394 . S
C1176 H1192 0.931 . S
C1177 C1176 1.391 . S
C1177 C1181 1.376 . S
C1178 C1176 1.394 . S
C1178 C1179 1.369 . S
C1178 C1182 1.531 . S
C1179 C1178 1.369 . S
C1179 C1180 1.410 . S
C1179 C1187 1.503 . S
C1180 C1179 1.410 . S
C1180 C1181 1.392 . S
C1180 C1183 1.511 . S
C1181 C1177 1.376 . S
C1181 C1180 1.392 . S
C1181 H1193 0.929 . S
C1182 C1178 1.531 . S
C1182 H1194 0.960 . S
C1182 H1195 0.962 . S
C1182 H1196 0.960 . S
C1183 C1180 1.511 . S
C1183 H1197 0.961 . S
C1183 H1198 0.961 . S
C1183 H1199 0.961 . S
C1184 C1185 1.370 . S
C1184 C1186 1.363 . S
C1184 H1200 0.931 . S
C1185 C1184 1.370 . S
C1185 C1189 1.408 . S
C1186 C1184 1.363 . S
C1186 C1187 1.370 . S
C1186 C1190 1.524 . S
C1187 C1179 1.503 . S
C1187 C1186 1.370 . S
C1187 C1188 1.403 . S
C1188 C1187 1.403 . S
C1188 C1189 1.404 . S
C1188 C1191 1.539 . S
C1189 C1185 1.408 . S
C1189 C1188 1.404 . S
C1189 H1201 0.930 . S
C1190 C1186 1.524 . S
C1190 H1202 0.956 . S
C1190 H1203 0.961 . S
C1190 H1204 0.961 . S
C1191 C1188 1.539 . S
C1191 H1205 0.958 . S
C1191 H1206 0.961 . S
C1191 H1207 0.960 . S
H1192 C1176 0.931 . S
H1193 C1181 0.929 . S
H1194 C1182 0.960 . S
H1195 C1182 0.962 . S
H1196 C1182 0.960 . S
H1197 C1183 0.961 . S
H1198 C1183 0.961 . S
H1199 C1183 0.961 . S
H1200 C1184 0.931 . S
H1201 C1189 0.930 . S
H1202 C1190 0.956 . S
H1203 C1190 0.961 . S
H1204 C1190 0.961 . S
H1205 C1191 0.958 . S
H1206 C1191 0.961 . S
H1207 C1191 0.960 . S
C441 N80 1.871 . S
C449 C178 1.934 . S
C481 C262 1.952 . S
C473 N93 1.906 . S
C513 C328 1.944 . S
C505 N54 1.988 . S
C545 C412 1.904 . S
C537 N67 2.019 . S
C577 C167 1.915 1_565 S
C569 N28 1.920 . S
C601 N41 1.896 . S
C609 C251 1.944 . S
C633 N2 2.015 . S
C641 C339 1.937 . S
C665 N15 2.018 . S
C673 C423 1.912 . S
C705 C174 0.569 1_455 S
C697 N70 0.537 . S
C737 C258 0.582 1_545 S
C729 N83 0.562 . S
C769 C330 0.518 . S
C761 N96 0.488 . S
C793 N57 0.619 . S
C801 C414 0.602 . S
C825 N18 0.611 . S
C833 C162 0.623 . S
C865 C246 0.542 . S
C857 N31 0.500 . S
C897 C342 0.589 . S
C889 N44 0.554 . S
C921 N5 0.610 . S
C929 C426 0.598 . S
C953 N66 2.087 . S
C961 C171 2.050 . S
C985 N79 2.057 . S
C993 C255 2.025 . S
C1025 C335 2.030 . S
C1017 N92 1.964 . S
C1057 C419 2.051 . S
C1049 N53 1.976 . S
C1081 N14 2.097 . S
C1089 C160 2.048 . S
C1121 C244 2.034 . S
C1113 N27 2.053 . S
C1153 C346 2.019 . S
C1145 N40 1.995 . S
C1177 N1 2.011 . S
C1185 C430 2.042 . S
