# Generated by pormake.
# Topology ptr, (4,4)-cn, num edge types: 1
# Building blocks:
#     Node 0, Type 0, BuildingBlock: QUQFOY_clean_sbu_3, # of connection points: 4
#     Node 1, Type 0, BuildingBlock: QUQFOY_clean_sbu_3, # of connection points: 4
#     Node 2, Type 0, BuildingBlock: QUQFOY_clean_sbu_3, # of connection points: 4
#     Node 3, Type 0, BuildingBlock: QUQFOY_clean_sbu_3, # of connection points: 4
#     Node 4, Type 0, BuildingBlock: QUQFOY_clean_sbu_3, # of connection points: 4
#     Node 5, Type 0, BuildingBlock: QUQFOY_clean_sbu_3, # of connection points: 4
#     Node 6, Type 0, BuildingBlock: QUQFOY_clean_sbu_3, # of connection points: 4
#     Node 7, Type 0, BuildingBlock: QUQFOY_clean_sbu_3, # of connection points: 4
#     Node 8, Type 0, BuildingBlock: QUQFOY_clean_sbu_3, # of connection points: 4
#     Node 9, Type 0, BuildingBlock: QUQFOY_clean_sbu_3, # of connection points: 4
#     Node 10, Type 0, BuildingBlock: QUQFOY_clean_sbu_3, # of connection points: 4
#     Node 11, Type 0, BuildingBlock: QUQFOY_clean_sbu_3, # of connection points: 4
#     Node 12, Type 0, BuildingBlock: QUQFOY_clean_sbu_3, # of connection points: 4
#     Node 13, Type 0, BuildingBlock: QUQFOY_clean_sbu_3, # of connection points: 4
#     Node 14, Type 0, BuildingBlock: QUQFOY_clean_sbu_3, # of connection points: 4
#     Node 15, Type 0, BuildingBlock: QUQFOY_clean_sbu_3, # of connection points: 4
#     Node 16, Type 0, BuildingBlock: QUQFOY_clean_sbu_3, # of connection points: 4
#     Node 17, Type 0, BuildingBlock: QUQFOY_clean_sbu_3, # of connection points: 4
#     Node 18, Type 1, BuildingBlock: GIZVER_clean_linker_0, # of connection points: 4
#     Node 19, Type 1, BuildingBlock: GIZVER_clean_linker_0, # of connection points: 4
#     Node 20, Type 1, BuildingBlock: GIZVER_clean_linker_0, # of connection points: 4
#     Node 21, Type 1, BuildingBlock: GIZVER_clean_linker_0, # of connection points: 4
#     Node 22, Type 1, BuildingBlock: GIZVER_clean_linker_0, # of connection points: 4
#     Node 23, Type 1, BuildingBlock: GIZVER_clean_linker_0, # of connection points: 4
#     Node 24, Type 1, BuildingBlock: GIZVER_clean_linker_0, # of connection points: 4
#     Node 25, Type 1, BuildingBlock: GIZVER_clean_linker_0, # of connection points: 4
#     Node 26, Type 1, BuildingBlock: GIZVER_clean_linker_0, # of connection points: 4
#     Node 27, Type 1, BuildingBlock: GIZVER_clean_linker_0, # of connection points: 4
#     Node 28, Type 1, BuildingBlock: GIZVER_clean_linker_0, # of connection points: 4
#     Node 29, Type 1, BuildingBlock: GIZVER_clean_linker_0, # of connection points: 4
#     Node 30, Type 1, BuildingBlock: GIZVER_clean_linker_0, # of connection points: 4
#     Node 31, Type 1, BuildingBlock: GIZVER_clean_linker_0, # of connection points: 4
#     Node 32, Type 1, BuildingBlock: GIZVER_clean_linker_0, # of connection points: 4
#     Node 33, Type 1, BuildingBlock: GIZVER_clean_linker_0, # of connection points: 4
#     Node 34, Type 1, BuildingBlock: GIZVER_clean_linker_0, # of connection points: 4
#     Node 35, Type 1, BuildingBlock: GIZVER_clean_linker_0, # of connection points: 4
#     Edge 36, Type (0, 1), BuildingBlock: MIFKUJ_clean_linker_0, # of connection points: 2
#     Edge 37, Type (0, 1), BuildingBlock: MIFKUJ_clean_linker_0, # of connection points: 2
#     Edge 38, Type (0, 1), BuildingBlock: MIFKUJ_clean_linker_0, # of connection points: 2
#     Edge 39, Type (0, 1), BuildingBlock: MIFKUJ_clean_linker_0, # of connection points: 2
#     Edge 40, Type (0, 1), BuildingBlock: MIFKUJ_clean_linker_0, # of connection points: 2
#     Edge 41, Type (0, 1), BuildingBlock: MIFKUJ_clean_linker_0, # of connection points: 2
#     Edge 42, Type (0, 1), BuildingBlock: MIFKUJ_clean_linker_0, # of connection points: 2
#     Edge 43, Type (0, 1), BuildingBlock: MIFKUJ_clean_linker_0, # of connection points: 2
#     Edge 44, Type (0, 1), BuildingBlock: MIFKUJ_clean_linker_0, # of connection points: 2
#     Edge 45, Type (0, 1), BuildingBlock: MIFKUJ_clean_linker_0, # of connection points: 2
#     Edge 46, Type (0, 1), BuildingBlock: MIFKUJ_clean_linker_0, # of connection points: 2
#     Edge 47, Type (0, 1), BuildingBlock: MIFKUJ_clean_linker_0, # of connection points: 2
#     Edge 48, Type (0, 1), BuildingBlock: MIFKUJ_clean_linker_0, # of connection points: 2
#     Edge 49, Type (0, 1), BuildingBlock: MIFKUJ_clean_linker_0, # of connection points: 2
#     Edge 50, Type (0, 1), BuildingBlock: MIFKUJ_clean_linker_0, # of connection points: 2
#     Edge 51, Type (0, 1), BuildingBlock: MIFKUJ_clean_linker_0, # of connection points: 2
#     Edge 52, Type (0, 1), BuildingBlock: MIFKUJ_clean_linker_0, # of connection points: 2
#     Edge 53, Type (0, 1), BuildingBlock: MIFKUJ_clean_linker_0, # of connection points: 2
#     Edge 54, Type (0, 1), BuildingBlock: MIFKUJ_clean_linker_0, # of connection points: 2
#     Edge 55, Type (0, 1), BuildingBlock: MIFKUJ_clean_linker_0, # of connection points: 2
#     Edge 56, Type (0, 1), BuildingBlock: MIFKUJ_clean_linker_0, # of connection points: 2
#     Edge 57, Type (0, 1), BuildingBlock: MIFKUJ_clean_linker_0, # of connection points: 2
#     Edge 58, Type (0, 1), BuildingBlock: MIFKUJ_clean_linker_0, # of connection points: 2
#     Edge 59, Type (0, 1), BuildingBlock: MIFKUJ_clean_linker_0, # of connection points: 2
#     Edge 60, Type (0, 1), BuildingBlock: MIFKUJ_clean_linker_0, # of connection points: 2
#     Edge 61, Type (0, 1), BuildingBlock: MIFKUJ_clean_linker_0, # of connection points: 2
#     Edge 62, Type (0, 1), BuildingBlock: MIFKUJ_clean_linker_0, # of connection points: 2
#     Edge 63, Type (0, 1), BuildingBlock: MIFKUJ_clean_linker_0, # of connection points: 2
#     Edge 64, Type (0, 1), BuildingBlock: MIFKUJ_clean_linker_0, # of connection points: 2
#     Edge 65, Type (0, 1), BuildingBlock: MIFKUJ_clean_linker_0, # of connection points: 2
#     Edge 66, Type (0, 1), BuildingBlock: MIFKUJ_clean_linker_0, # of connection points: 2
#     Edge 67, Type (0, 1), BuildingBlock: MIFKUJ_clean_linker_0, # of connection points: 2
#     Edge 68, Type (0, 1), BuildingBlock: MIFKUJ_clean_linker_0, # of connection points: 2
#     Edge 69, Type (0, 1), BuildingBlock: MIFKUJ_clean_linker_0, # of connection points: 2
#     Edge 70, Type (0, 1), BuildingBlock: MIFKUJ_clean_linker_0, # of connection points: 2
#     Edge 71, Type (0, 1), BuildingBlock: MIFKUJ_clean_linker_0, # of connection points: 2
#     Edge 72, Type (0, 1), BuildingBlock: MIFKUJ_clean_linker_0, # of connection points: 2
#     Edge 73, Type (0, 1), BuildingBlock: MIFKUJ_clean_linker_0, # of connection points: 2
#     Edge 74, Type (0, 1), BuildingBlock: MIFKUJ_clean_linker_0, # of connection points: 2
#     Edge 75, Type (0, 1), BuildingBlock: MIFKUJ_clean_linker_0, # of connection points: 2
#     Edge 76, Type (0, 1), BuildingBlock: MIFKUJ_clean_linker_0, # of connection points: 2
#     Edge 77, Type (0, 1), BuildingBlock: MIFKUJ_clean_linker_0, # of connection points: 2
#     Edge 78, Type (0, 1), BuildingBlock: MIFKUJ_clean_linker_0, # of connection points: 2
#     Edge 79, Type (0, 1), BuildingBlock: MIFKUJ_clean_linker_0, # of connection points: 2
#     Edge 80, Type (0, 1), BuildingBlock: MIFKUJ_clean_linker_0, # of connection points: 2
#     Edge 81, Type (0, 1), BuildingBlock: MIFKUJ_clean_linker_0, # of connection points: 2
#     Edge 82, Type (0, 1), BuildingBlock: MIFKUJ_clean_linker_0, # of connection points: 2
#     Edge 83, Type (0, 1), BuildingBlock: MIFKUJ_clean_linker_0, # of connection points: 2
#     Edge 84, Type (0, 1), BuildingBlock: MIFKUJ_clean_linker_0, # of connection points: 2
#     Edge 85, Type (0, 1), BuildingBlock: MIFKUJ_clean_linker_0, # of connection points: 2
#     Edge 86, Type (0, 1), BuildingBlock: MIFKUJ_clean_linker_0, # of connection points: 2
#     Edge 87, Type (0, 1), BuildingBlock: MIFKUJ_clean_linker_0, # of connection points: 2
#     Edge 88, Type (0, 1), BuildingBlock: MIFKUJ_clean_linker_0, # of connection points: 2
#     Edge 89, Type (0, 1), BuildingBlock: MIFKUJ_clean_linker_0, # of connection points: 2
#     Edge 90, Type (0, 1), BuildingBlock: MIFKUJ_clean_linker_0, # of connection points: 2
#     Edge 91, Type (0, 1), BuildingBlock: MIFKUJ_clean_linker_0, # of connection points: 2
#     Edge 92, Type (0, 1), BuildingBlock: MIFKUJ_clean_linker_0, # of connection points: 2
#     Edge 93, Type (0, 1), BuildingBlock: MIFKUJ_clean_linker_0, # of connection points: 2
#     Edge 94, Type (0, 1), BuildingBlock: MIFKUJ_clean_linker_0, # of connection points: 2
#     Edge 95, Type (0, 1), BuildingBlock: MIFKUJ_clean_linker_0, # of connection points: 2
#     Edge 96, Type (0, 1), BuildingBlock: MIFKUJ_clean_linker_0, # of connection points: 2
#     Edge 97, Type (0, 1), BuildingBlock: MIFKUJ_clean_linker_0, # of connection points: 2
#     Edge 98, Type (0, 1), BuildingBlock: MIFKUJ_clean_linker_0, # of connection points: 2
#     Edge 99, Type (0, 1), BuildingBlock: MIFKUJ_clean_linker_0, # of connection points: 2
#     Edge 100, Type (0, 1), BuildingBlock: MIFKUJ_clean_linker_0, # of connection points: 2
#     Edge 101, Type (0, 1), BuildingBlock: MIFKUJ_clean_linker_0, # of connection points: 2
#     Edge 102, Type (0, 1), BuildingBlock: MIFKUJ_clean_linker_0, # of connection points: 2
#     Edge 103, Type (0, 1), BuildingBlock: MIFKUJ_clean_linker_0, # of connection points: 2
#     Edge 104, Type (0, 1), BuildingBlock: MIFKUJ_clean_linker_0, # of connection points: 2
#     Edge 105, Type (0, 1), BuildingBlock: MIFKUJ_clean_linker_0, # of connection points: 2
#     Edge 106, Type (0, 1), BuildingBlock: MIFKUJ_clean_linker_0, # of connection points: 2
#     Edge 107, Type (0, 1), BuildingBlock: MIFKUJ_clean_linker_0, # of connection points: 2
# Relax obj value: 0.044
# Max RMSD: 0.105
# Mean RMSD: 0.074
data_MOF--net-ptr--node1-QUQFOY_clean_sbu_3--node2-GIZVER_clean_linker_0--edge1-MIFKUJ_clean_linker_0
_symmetry_space_group_name_H-M    P1
_symmetry_Int_Tables_number       1
_symmetry_cell_setting            triclinic
loop_
_symmetry_equiv_pos_as_xyz
'x, y, z'
_cell_length_a     103.93378
_cell_length_b     104.50575
_cell_length_c     63.818542
_cell_angle_alpha  90.469821
_cell_angle_beta   89.820728
_cell_angle_gamma 120.49253
loop_
_atom_site_label
_atom_site_type_symbol
_atom_site_fract_x
_atom_site_fract_y
_atom_site_fract_z
_atom_type_partial_charge
C0 C 0.96317 0.3275 0.00955 0.0
O1 O 0.95686 0.33478 0.01458 0.0
Cd2 Cd 0.96936 0.36011 0.02646 0.0
O3 O 0.97736 0.33356 0.01038 0.0
Cd4 Cd -0.00026 0.35814 0.01981 0.0
C5 C 0.9921 0.37785 0.98418 0.0
O6 O 0.98838 0.36293 0.04998 0.0
O7 O 0.01053 0.38051 0.04219 0.0
O8 O 0.01112 0.34545 0.03677 0.0
C9 C -0.00077 0.37581 0.05402 0.0
O10 O 0.98086 0.37496 0.99554 0.0
C11 C 0.02266 0.35076 0.02528 0.0
O12 O 0.00062 0.37277 0.98873 0.0
O13 O 0.02359 0.3595 0.01083 0.0
C14 C 0.63049 0.66928 0.01408 0.0
O15 O 0.61705 0.66174 0.00781 0.0
Cd16 Cd 0.60529 0.63653 0.99519 0.0
O17 O 0.63887 0.66364 0.01389 0.0
Cd18 Cd 0.63772 0.64002 0.00354 0.0
C19 C 0.60962 0.61872 0.03748 0.0
O20 O 0.62254 0.63513 0.97192 0.0
O21 O 0.62706 0.61798 0.98082 0.0
O22 O 0.66318 0.6559 0.99082 0.0
C23 C 0.62086 0.62245 0.96813 0.0
O24 O 0.60114 0.62068 0.0252 0.0
C25 C 0.66867 0.6489 -0.00034 0.0
O26 O 0.62368 0.62529 0.0343 0.0
O27 O 0.65982 0.6378 0.0107 0.0
C28 C 0.32365 0.96497 0.00661 0.0
O29 O 0.33104 0.95893 0.00079 0.0
Cd30 Cd 0.35694 0.97196 0.99194 0.0
O31 O 0.32983 0.97909 0.0074 0.0
Cd32 Cd 0.35449 0.00158 -0.001 0.0
C33 C 0.37258 0.99366 0.03625 0.0
O34 O 0.3604 0.99116 0.9687 0.0
O35 O 0.37808 0.01244 0.97935 0.0
O36 O 0.3401 0.01177 0.98384 0.0
C37 C 0.37369 0.00176 0.96643 0.0
O38 O 0.37044 0.98283 0.02451 0.0
C39 C 0.34697 0.02418 0.99337 0.0
O40 O 0.36745 0.00203 0.03135 0.0
O41 O 0.35738 0.02613 0.00575 0.0
C42 C 0.95727 0.63374 0.0127 0.0
O43 O 0.95154 0.6214 0.02211 0.0
Cd44 Cd 0.96512 0.60915 0.03024 0.0
O45 O 0.97119 0.64113 0.00862 0.0
Cd46 Cd 0.9942 0.64012 0.01659 0.0
C47 C 0.98333 0.6106 0.98392 0.0
O48 O 0.98649 0.62663 0.04966 0.0
O49 O 0.0067 0.62939 0.03598 0.0
O50 O 0.00604 0.66523 0.03055 0.0
C51 C -0.00265 0.62438 0.05086 0.0
O52 O 0.97314 0.60315 -0.00271 0.0
C53 C 0.01708 0.67082 0.0181 0.0
O54 O 0.99234 0.62449 0.9865 0.0
O55 O 0.0175 0.66213 0.0044 0.0
C56 C 0.32813 0.36726 0.00897 0.0
O57 O 0.33594 0.37975 0.00017 0.0
Cd58 Cd 0.36134 0.38987 0.98874 0.0
O59 O 0.33348 0.35882 0.01203 0.0
Cd60 Cd 0.35686 0.35852 0.00485 0.0
C61 C 0.37835 0.38911 0.03464 0.0
O62 O 0.363 0.37074 0.97072 0.0
O63 O 0.38022 0.36827 0.9854 0.0
O64 O 0.34173 0.33234 0.9948 0.0
C65 C 0.3761 0.37277 0.96986 0.0
O66 O 0.37718 0.39653 0.01978 0.0
C67 C 0.34846 0.32782 0.00648 0.0
O68 O 0.37101 0.37493 0.03432 0.0
O69 O 0.35892 0.33753 0.01788 0.0
C70 C 0.67114 0.03341 0.00171 0.0
O71 O 0.66351 0.03904 0.00818 0.0
Cd72 Cd 0.63888 0.02558 0.02299 0.0
O73 O 0.66583 0.01941 0.00249 0.0
Cd74 Cd 0.64232 0.99671 0.01406 0.0
C75 C 0.61921 0.00214 0.982 0.0
O76 O 0.63819 0.00737 0.04584 0.0
O77 O 0.62042 0.9856 0.0371 0.0
O78 O 0.65768 0.9871 0.02768 0.0
C79 C 0.62533 0.99646 0.04979 0.0
O80 O 0.62159 0.01276 0.99435 0.0
C81 C 0.65108 0.97477 0.0179 0.0
O82 O 0.62616 0.99507 0.98433 0.0
O83 O 0.6404 0.97261 0.00591 0.0
C84 C 0.63055 0.66222 0.3368 0.0
O85 O 0.62459 0.6696 0.34299 0.0
Cd86 Cd 0.63833 0.69526 0.35321 0.0
O87 O 0.64474 0.6683 0.33626 0.0
Cd88 Cd 0.66712 0.69295 0.34541 0.0
C89 C 0.6596 0.71176 0.3092 0.0
O90 O 0.65789 0.6995 0.37689 0.0
O91 O 0.67739 0.71734 0.36212 0.0
O92 O 0.67857 0.68085 0.36388 0.0
C93 C 0.66828 0.713 0.37729 0.0
O94 O 0.64921 0.70988 0.32169 0.0
C95 C 0.6903 0.68612 0.35281 0.0
O96 O 0.66748 0.70582 0.31289 0.0
O97 O 0.69134 0.69459 0.33789 0.0
C98 C 0.29903 0.00483 0.35072 0.0
O99 O 0.28583 0.99759 0.34344 0.0
Cd100 Cd 0.27347 0.97227 0.3315 0.0
O101 O 0.30713 -0.00111 0.35159 0.0
Cd102 Cd 0.30542 0.97484 0.34134 0.0
C103 C 0.27645 0.95431 0.37464 0.0
O104 O 0.29075 0.97017 0.30921 0.0
O105 O 0.29478 0.95277 0.31884 0.0
O106 O 0.33097 0.98855 0.32804 0.0
C107 C 0.28901 0.95741 0.30571 0.0
O108 O 0.26839 0.95693 0.36247 0.0
C109 C 0.33583 0.98174 0.33885 0.0
O110 O 0.29039 0.9599 0.37124 0.0
O111 O 0.32664 0.97197 0.3514 0.0
C112 C 0.99568 0.29964 0.33942 0.0
O113 O 0.00267 0.29362 0.3318 0.0
Cd114 Cd 0.02784 0.3059 0.31901 0.0
O115 O 0.00193 0.31375 0.34081 0.0
Cd116 Cd 0.02623 0.33639 0.33171 0.0
C117 C 0.04682 0.32685 0.36275 0.0
O118 O 0.02984 0.32604 0.2998 0.0
O119 O 0.04769 0.34797 0.30749 0.0
O120 O 0.01147 0.34749 0.32161 0.0
C121 C 0.04268 0.33678 0.2954 0.0
O122 O 0.04388 0.31648 0.34958 0.0
C123 C 0.01936 0.35966 0.33142 0.0
O124 O 0.04117 0.33516 0.36081 0.0
O125 O 0.03035 0.36094 0.34187 0.0
C126 C 0.62525 0.96264 0.33427 0.0
O127 O 0.61945 0.94954 0.34134 0.0
Cd128 Cd 0.63289 0.93813 0.35385 0.0
O129 O 0.63941 0.9711 0.33376 0.0
Cd130 Cd 0.66195 0.96988 0.34425 0.0
C131 C 0.65438 0.94138 0.31086 0.0
O132 O 0.65209 0.95562 0.37663 0.0
O133 O 0.67301 0.9586 0.36545 0.0
O134 O 0.67363 0.99552 0.35713 0.0
C135 C 0.66295 0.95352 0.37938 0.0
O136 O 0.64374 0.93311 0.32317 0.0
C137 C 0.68559 0.00027 0.34665 0.0
O138 O 0.66229 0.95534 0.31408 0.0
O139 O 0.68648 0.99094 0.33475 0.0
C140 C 0.99575 0.70256 0.35384 0.0
O141 O 0.00344 0.7163 0.34961 0.0
Cd142 Cd 0.02813 0.72894 0.33515 0.0
O143 O 0.00117 0.6941 0.35122 0.0
Cd144 Cd 0.02534 0.69676 0.33931 0.0
C145 C 0.04776 0.72402 0.37413 0.0
O146 O 0.0287 0.7126 0.30941 0.0
O147 O 0.047 0.70917 0.3158 0.0
O148 O 0.01145 0.67141 0.32491 0.0
C149 C 0.04158 0.71515 0.30442 0.0
O150 O 0.04558 0.73288 0.36318 0.0
C151 C 0.01932 0.66693 0.33388 0.0
O152 O 0.04081 0.71013 0.37003 0.0
O153 O 0.0298 0.67622 0.34564 0.0
C154 C 0.33731 0.36472 0.33688 0.0
O155 O 0.32979 0.37049 0.34324 0.0
Cd156 Cd 0.30431 0.35699 0.35451 0.0
O157 O 0.33142 0.35062 0.33621 0.0
Cd158 Cd 0.30697 0.328 0.34544 0.0
C159 C 0.28647 0.33502 0.31116 0.0
O160 O 0.30204 0.33803 0.37725 0.0
O161 O 0.28363 0.31756 0.36547 0.0
O162 O 0.32155 0.31764 0.35956 0.0
C163 C 0.28866 0.32761 0.37947 0.0
O164 O 0.28849 0.34533 0.3239 0.0
C165 C 0.31443 0.30518 0.35021 0.0
O166 O 0.29297 0.32758 0.31401 0.0
O167 O 0.30381 0.30328 0.3383 0.0
C168 C 0.3001 0.99766 0.67377 0.0
O169 O 0.2943 0.00532 0.67933 0.0
Cd170 Cd 0.3074 0.03027 0.69287 0.0
O171 O 0.3142 0.0031 0.67485 0.0
Cd172 Cd 0.33691 0.0271 0.68554 0.0
C173 C 0.33089 0.0488 0.65163 0.0
O174 O 0.32602 0.03209 0.71625 0.0
O175 O 0.34807 0.04949 0.70775 0.0
O176 O 0.34806 0.01406 0.70221 0.0
C177 C 0.33701 0.04495 0.72002 0.0
O178 O 0.31994 0.04631 0.66335 0.0
C179 C 0.35961 0.01937 0.69073 0.0
O180 O 0.33853 0.04256 0.65514 0.0
O181 O 0.3606 0.02818 0.67636 0.0
C182 C 0.96517 0.33629 0.68058 0.0
O183 O 0.95176 0.32824 0.6744 0.0
Cd184 Cd 0.94067 0.30348 0.66026 0.0
O185 O 0.97415 0.33133 0.68011 0.0
Cd186 Cd 0.97329 0.30773 0.66981 0.0
C187 C 0.94435 0.28495 0.70193 0.0
O188 O 0.95863 0.30294 0.63762 0.0
O189 O 0.9629 0.28572 0.6472 0.0
O190 O -0.00121 0.32196 0.65622 0.0
C191 C 0.95712 0.2903 0.63398 0.0
O192 O 0.93596 0.28675 0.68927 0.0
C193 C 0.004 0.31545 0.667 0.0
O194 O 0.95852 0.29218 0.69969 0.0
O195 O 0.99503 0.30561 0.67966 0.0
C196 C 0.66357 0.63431 0.6714 0.0
O197 O 0.67135 0.62925 0.66347 0.0
Cd198 Cd 0.69581 0.64359 0.64817 0.0
O199 O 0.66857 0.64826 0.67218 0.0
Cd200 Cd 0.69116 0.67199 0.66213 0.0
C201 C 0.71494 0.66554 0.6908 0.0
O202 O 0.69448 0.66227 0.62951 0.0
O203 O 0.71165 0.68465 0.63634 0.0
O204 O 0.67386 0.68061 0.6545 0.0
C205 C 0.70673 0.67348 0.62421 0.0
O206 O 0.71337 0.65606 0.67684 0.0
C207 C 0.68135 0.69308 0.66373 0.0
O208 O 0.70721 0.6719 0.6905 0.0
O209 O 0.69339 0.69572 0.67262 0.0
C210 C 0.29109 0.30123 0.67279 0.0
O211 O 0.28531 0.28826 0.68034 0.0
Cd212 Cd 0.29927 0.27632 0.68805 0.0
O213 O 0.30514 0.30898 0.66969 0.0
Cd214 Cd 0.3281 0.30756 0.67616 0.0
C215 C 0.31814 0.27902 0.64204 0.0
O216 O 0.32004 0.29355 0.70893 0.0
O217 O 0.34033 0.29647 0.69526 0.0
O218 O 0.33921 0.33304 0.68885 0.0
C219 C 0.33098 0.2914 0.71011 0.0
O220 O 0.30807 0.27103 0.65526 0.0
C221 C 0.35101 0.33828 0.67792 0.0
O222 O 0.32655 0.29296 0.64501 0.0
O223 O 0.35222 0.32923 0.66582 0.0
C224 C 0.66102 0.03474 0.67689 0.0
O225 O 0.66882 0.0482 0.67128 0.0
Cd226 Cd 0.69449 0.06019 0.66083 0.0
O227 O 0.66672 0.02643 0.67739 0.0
Cd228 Cd 0.69121 0.0283 0.66971 0.0
C229 C 0.71195 0.05645 0.70414 0.0
O230 O 0.69706 0.04336 0.63832 0.0
O231 O 0.71489 0.04063 0.65023 0.0
O232 O 0.68083 0.00441 0.65171 0.0
C233 C 0.71029 0.04593 0.63626 0.0
O234 O 0.70992 0.06477 0.69176 0.0
C235 C 0.68433 -0.00191 0.6656 0.0
O236 O 0.70563 0.0425 0.70073 0.0
O237 O 0.69089 0.00571 0.68185 0.0
C238 C 0.00344 0.70064 0.66811 0.0
O239 O 0.99594 0.70655 0.67395 0.0
Cd240 Cd 0.97042 0.69329 0.68492 0.0
O241 O -0.00247 0.68653 0.66807 0.0
Cd242 Cd 0.97298 0.66409 0.67777 0.0
C243 C 0.95303 0.67085 0.64187 0.0
O244 O 0.96763 0.67463 0.70884 0.0
O245 O 0.94969 0.6536 0.69764 0.0
O246 O 0.98693 0.65377 0.69416 0.0
C247 C 0.95438 0.66392 0.71121 0.0
O248 O 0.95542 0.68171 0.65372 0.0
C249 C 0.9805 0.64143 0.68441 0.0
O250 O 0.95874 0.66284 0.64601 0.0
O251 O 0.9706 0.63959 0.67113 0.0
H252 H 0.14221 0.30449 0.15547 0.0
H253 H 0.13767 0.3099 0.08945 0.0
H254 H 0.12157 0.3288 0.13537 0.0
H255 H 0.14169 0.28648 0.12623 0.0
H256 H 0.14588 0.29334 0.1001 0.0
H257 H 0.16097 0.29645 0.15383 0.0
H258 H 0.20654 0.32269 0.13402 0.0
H259 H 0.17118 0.31382 0.09094 0.0
C260 C 0.139 0.30919 0.14287 0.0
C261 C 0.13231 0.31758 0.14763 0.0
C262 C 0.14124 0.3066 0.12186 0.0
C263 C 0.13629 0.31218 0.10564 0.0
C264 C 0.12921 0.32032 0.11031 0.0
C265 C 0.12753 0.3231 0.13139 0.0
C266 C 0.14768 0.29682 0.11686 0.0
C267 C 0.16416 0.3045 0.12191 0.0
C268 C 0.16903 0.30303 0.14189 0.0
C269 C 0.18432 0.30961 0.14618 0.0
C270 C 0.19473 0.31788 0.13071 0.0
C271 C 0.19013 0.3195 0.11081 0.0
C272 C 0.17481 0.31278 0.10642 0.0
H273 H 0.70112 0.83673 0.15421 0.0
H274 H 0.69256 0.83096 0.08758 0.0
H275 H 0.67774 0.79297 0.12713 0.0
H276 H 0.71575 0.85737 0.12922 0.0
H277 H 0.71149 0.855 0.1019 0.0
H278 H 0.69677 0.85809 0.15469 0.0
H279 H 0.67736 0.8825 0.12981 0.0
H280 H 0.69672 0.86452 0.08794 0.0
C281 C 0.69606 0.82958 0.14067 0.0
C282 C 0.68898 0.81412 0.14295 0.0
C283 C 0.69725 0.8358 0.1207 0.0
C284 C 0.69125 0.82633 0.10311 0.0
C285 C 0.6841 0.81089 0.10552 0.0
C286 C 0.6829 0.80491 0.12541 0.0
C287 C 0.70636 0.85243 0.11778 0.0
C288 C 0.69715 0.85977 0.12087 0.0
C289 C 0.69349 0.86208 0.14128 0.0
C290 C 0.68609 0.87002 0.14446 0.0
C291 C 0.6825 0.87581 0.12725 0.0
C292 C 0.6864 0.874 0.10691 0.0
C293 C 0.69343 0.86568 0.10365 0.0
H294 H 0.15594 0.82224 0.15563 0.0
H295 H 0.14964 0.80763 0.09133 0.0
H296 H 0.1117 0.79658 0.1305 0.0
H297 H 0.17531 0.81915 0.13356 0.0
H298 H 0.174 0.81933 0.10576 0.0
H299 H 0.18208 0.84146 0.15475 0.0
H300 H 0.20495 0.8829 0.12187 0.0
H301 H 0.17987 0.84217 0.08745 0.0
C302 C 0.14861 0.81695 0.14235 0.0
C303 C 0.1331 0.80967 0.14523 0.0
C304 C 0.15466 0.81673 0.12271 0.0
C305 C 0.145 0.8087 0.10601 0.0
C306 C 0.12941 0.80108 0.10879 0.0
C307 C 0.12367 0.80236 0.12816 0.0
C308 C 0.1713 0.82323 0.12051 0.0
C309 C 0.17967 0.84 0.12112 0.0
C310 C 0.18478 0.84769 0.14033 0.0
C311 C 0.19384 0.86327 0.14088 0.0
C312 C 0.1973 0.87102 0.1219 0.0
C313 C 0.19231 0.86356 0.10264 0.0
C314 C 0.18339 0.84803 0.10233 0.0
H315 H 0.3464 0.19224 0.86395 0.0
H316 H 0.34164 0.18831 0.93102 0.0
H317 H 0.32694 0.21406 0.8974 0.0
H318 H 0.36153 0.18516 0.88516 0.0
H319 H 0.35895 0.18284 0.91275 0.0
H320 H 0.3433 0.16563 0.86047 0.0
H321 H 0.32235 0.12149 0.88507 0.0
H322 H 0.34174 0.15895 0.92717 0.0
C323 C 0.34224 0.1943 0.87843 0.0
C324 C 0.33617 0.20363 0.87841 0.0
C325 C 0.34412 0.18861 0.89736 0.0
C326 C 0.33964 0.19216 0.91634 0.0
C327 C 0.33336 0.20132 0.91649 0.0
C328 C 0.33136 0.20663 0.89739 0.0
C329 C 0.35285 0.18067 0.89763 0.0
C330 C 0.34297 0.16414 0.89426 0.0
C331 C 0.33943 0.15823 0.87379 0.0
C332 C 0.3317 0.1428 0.87046 0.0
C333 C 0.32736 0.13334 0.88776 0.0
C334 C 0.33103 0.13899 0.90826 0.0
C335 C 0.33859 0.15444 0.91144 0.0
H336 H 0.86486 0.16189 0.86163 0.0
H337 H 0.86318 0.16845 0.92825 0.0
H338 H 0.88683 0.20597 0.88779 0.0
H339 H 0.85934 0.14168 0.88783 0.0
H340 H 0.85609 0.14404 0.91465 0.0
H341 H 0.84058 0.13815 0.86014 0.0
H342 H 0.79532 0.11753 0.8818 0.0
H343 H 0.83131 0.13758 0.92629 0.0
C344 C 0.86739 0.16922 0.87503 0.0
C345 C 0.87632 0.18464 0.87237 0.0
C346 C 0.86248 0.16324 0.89518 0.0
C347 C 0.8665 0.17291 0.91261 0.0
C348 C 0.87513 0.18833 0.90989 0.0
C349 C 0.87986 0.19406 0.88979 0.0
C350 C 0.85443 0.14663 0.89834 0.0
C351 C 0.83792 0.13933 0.89368 0.0
C352 C 0.83274 0.13558 0.87288 0.0
C353 C 0.81738 0.12773 0.86869 0.0
C354 C 0.80721 0.12396 0.88512 0.0
C355 C 0.81211 0.12745 0.90586 0.0
C356 C 0.82749 0.13517 0.91018 0.0
H357 H 0.83785 0.6544 0.85683 0.0
H358 H 0.83298 0.65196 0.92391 0.0
H359 H 0.87662 0.67216 0.89653 0.0
H360 H 0.81389 0.63756 0.87304 0.0
H361 H 0.81192 0.63628 0.90079 0.0
H362 H 0.8095 0.65477 0.85358 0.0
H363 H 0.78795 0.67493 0.88611 0.0
H364 H 0.80722 0.6538 0.921 0.0
C365 C 0.84287 0.6574 0.87227 0.0
C366 C 0.85842 0.66388 0.87447 0.0
C367 C 0.83361 0.65342 0.8901 0.0
C368 C 0.84006 0.65599 0.91018 0.0
C369 C 0.85559 0.66282 0.91248 0.0
C370 C 0.86466 0.6673 0.89464 0.0
C371 C 0.81685 0.64432 0.88769 0.0
C372 C 0.80987 0.65394 0.88736 0.0
C373 C 0.80658 0.65813 0.8681 0.0
C374 C 0.7984 0.66546 0.86754 0.0
C375 C 0.79439 0.6694 0.88648 0.0
C376 C 0.79737 0.66516 0.90582 0.0
C377 C 0.80523 0.6575 0.90618 0.0
H378 H 0.80511 0.63896 0.48813 0.0
H379 H 0.8022 0.64077 0.42086 0.0
H380 H 0.78832 0.66494 0.46056 0.0
H381 H 0.80547 0.61972 0.46373 0.0
H382 H 0.80821 0.62333 0.43625 0.0
H383 H 0.82626 0.63317 0.48889 0.0
H384 H 0.87062 0.65803 0.46383 0.0
H385 H 0.83294 0.64178 0.42247 0.0
C386 C 0.80268 0.64333 0.47432 0.0
C387 C 0.79688 0.6528 0.47662 0.0
C388 C 0.80503 0.63923 0.45422 0.0
C389 C 0.801 0.64432 0.43638 0.0
C390 C 0.79515 0.65378 0.43866 0.0
C391 C 0.79343 0.65815 0.45876 0.0
C392 C 0.81095 0.62874 0.45199 0.0
C393 C 0.82765 0.63684 0.45535 0.0
C394 C 0.83363 0.6382 0.47562 0.0
C395 C 0.84916 0.64599 0.47873 0.0
C396 C 0.85862 0.65238 0.46156 0.0
C397 C 0.85288 0.65076 0.44131 0.0
C398 C 0.83739 0.64306 0.43818 0.0
H399 H 0.37083 0.17532 0.49584 0.0
H400 H 0.35533 0.16188 0.4323 0.0
H401 H 0.34644 0.12911 0.47924 0.0
H402 H 0.38112 0.19337 0.46714 0.0
H403 H 0.37538 0.18765 0.44069 0.0
H404 H 0.3609 0.19308 0.49267 0.0
H405 H 0.33738 0.21214 0.46348 0.0
H406 H 0.36011 0.19582 0.42528 0.0
C407 C 0.36476 0.16669 0.48423 0.0
C408 C 0.35852 0.15176 0.48982 0.0
C409 C 0.36352 0.17046 0.46346 0.0
C410 C 0.35604 0.15908 0.4484 0.0
C411 C 0.34968 0.14409 0.45407 0.0
C412 C 0.35093 0.14061 0.47482 0.0
C413 C 0.3712 0.18657 0.45703 0.0
C414 C 0.36093 0.19285 0.45874 0.0
C415 C 0.35692 0.1957 0.4786 0.0
C416 C 0.34821 0.20244 0.48033 0.0
C417 C 0.34354 0.20633 0.46216 0.0
C418 C 0.3479 0.20411 0.44236 0.0
C419 C 0.35646 0.19722 0.44062 0.0
H420 H 0.82658 0.14932 0.48305 0.0
H421 H 0.82252 0.14189 0.41631 0.0
H422 H 0.78341 0.12209 0.45529 0.0
H423 H 0.84764 0.15087 0.46004 0.0
H424 H 0.84653 0.15218 0.43237 0.0
H425 H 0.85139 0.17149 0.48359 0.0
H426 H 0.87302 0.21453 0.45534 0.0
H427 H 0.85197 0.17539 0.41642 0.0
C428 C 0.81967 0.14475 0.4692 0.0
C429 C 0.80412 0.13602 0.47135 0.0
C430 C 0.82638 0.14706 0.44935 0.0
C431 C 0.81735 0.14049 0.43155 0.0
C432 C 0.80176 0.13153 0.4335 0.0
C433 C 0.79531 0.12961 0.45343 0.0
C434 C 0.84317 0.15493 0.44755 0.0
C435 C 0.85028 0.17156 0.44978 0.0
C436 C 0.85408 0.17831 0.46974 0.0
C437 C 0.86202 0.19384 0.47182 0.0
C438 C 0.866 0.20258 0.45378 0.0
C439 C 0.86257 0.19609 0.43372 0.0
C440 C 0.85442 0.18053 0.43184 0.0
H441 H 0.01486 0.51954 0.19428 0.0
H442 H 0.0182 0.52858 0.26065 0.0
H443 H -0.00257 0.54559 0.22016 0.0
H444 H 0.03422 0.51864 0.21694 0.0
H445 H 0.03327 0.51965 0.24475 0.0
H446 H 0.01407 0.49626 0.19728 0.0
H447 H 0.99652 0.45565 0.23171 0.0
H448 H 0.01863 0.49738 0.26448 0.0
C449 C 0.01226 0.5241 0.20787 0.0
C450 C 0.00481 0.532 0.20518 0.0
C451 C 0.01692 0.52261 0.22792 0.0
C452 C 0.01423 0.52934 0.24529 0.0
C453 C 0.00709 0.53762 0.2427 0.0
C454 C 0.00222 0.5386 0.22262 0.0
C455 C 0.02632 0.51545 0.23033 0.0
C456 C 0.01689 0.49871 0.23088 0.0
C457 C 0.01172 0.49049 0.21207 0.0
C458 C 0.00413 0.47488 0.21223 0.0
C459 C 0.00155 0.46762 0.23149 0.0
C460 C 0.00669 0.47559 0.25035 0.0
C461 C 0.01428 0.49116 0.25001 0.0
H462 H 0.52774 0.49544 0.19556 0.0
H463 H 0.5264 0.50075 0.26259 0.0
H464 H 0.55116 0.53892 0.22365 0.0
H465 H 0.52182 0.47465 0.22018 0.0
H466 H 0.5197 0.47663 0.24751 0.0
H467 H 0.5017 0.46996 0.19505 0.0
H468 H 0.45772 0.44999 0.22136 0.0
H469 H 0.49599 0.47224 0.26175 0.0
C470 C 0.53051 0.50253 0.2093 0.0
C471 C 0.5399 0.51794 0.20731 0.0
C472 C 0.52551 0.49618 0.22925 0.0
C473 C 0.52975 0.5055 0.24711 0.0
C474 C 0.53886 0.52092 0.24499 0.0
C475 C 0.54379 0.52701 0.22514 0.0
C476 C 0.51742 0.47951 0.23174 0.0
C477 C 0.50076 0.4724 0.22867 0.0
C478 C 0.4945 0.46782 0.20849 0.0
C479 C 0.47894 0.45953 0.2059 0.0
C480 C 0.46973 0.45655 0.2234 0.0
C481 C 0.47568 0.46109 0.24357 0.0
C482 C 0.49126 0.46905 0.24616 0.0
H483 H 0.50291 0.99247 0.18217 0.0
H484 H 0.50503 0.98744 0.24875 0.0
H485 H 0.5452 0.00802 0.21209 0.0
H486 H 0.48121 0.97306 0.20248 0.0
H487 H 0.48189 0.97276 0.23032 0.0
H488 H 0.48239 0.99623 0.18522 0.0
H489 H 0.45131 0.00567 0.21612 0.0
H490 H 0.46943 0.98283 0.24917 0.0
C491 C 0.5094 0.99476 0.1964 0.0
C492 C 0.52501 0.0017 0.19509 0.0
C493 C 0.5021 0.98989 0.21582 0.0
C494 C 0.51063 0.99186 0.23395 0.0
C495 C 0.52623 -0.00156 0.23274 0.0
C496 C 0.53329 0.00371 0.21337 0.0
C497 C 0.48528 0.98034 0.21664 0.0
C498 C 0.47753 0.98928 0.21747 0.0
C499 C 0.47655 0.99628 0.19926 0.0
C500 C 0.46727 0.00244 0.19869 0.0
C501 C 0.4591 0.00166 0.21665 0.0
C502 C 0.45978 0.99461 0.23482 0.0
C503 C 0.46929 0.98875 0.23538 0.0
H504 H 0.47355 0.97066 0.82562 0.0
H505 H 0.47366 0.9786 0.75943 0.0
H506 H 0.45559 0.99689 0.80332 0.0
H507 H 0.47416 0.95347 0.79821 0.0
H508 H 0.47733 0.95887 0.77145 0.0
H509 H 0.49492 0.96571 0.82467 0.0
H510 H 0.53853 0.98163 0.79847 0.0
H511 H 0.50248 0.97503 0.75849 0.0
C512 C 0.47162 0.97619 0.81275 0.0
C513 C 0.46493 0.98469 0.81669 0.0
C514 C 0.47503 0.97412 0.79211 0.0
C515 C 0.47151 0.98059 0.7754 0.0
C516 C 0.46455 0.98896 0.77921 0.0
C517 C 0.46159 0.99112 0.80002 0.0
C518 C 0.48024 0.96324 0.78777 0.0
C519 C 0.49682 0.96992 0.79126 0.0
C520 C 0.5024 0.96974 0.81134 0.0
C521 C 0.51744 0.97388 0.81393 0.0
C522 C 0.52691 0.97847 0.79652 0.0
C523 C 0.52164 0.97899 0.7766 0.0
C524 C 0.50665 0.97497 0.77402 0.0
H525 H 0.02103 0.49898 0.82958 0.0
H526 H 0.01471 0.49282 0.76267 0.0
H527 H -0.00267 0.45502 0.80313 0.0
H528 H 0.03652 0.51941 0.80456 0.0
H529 H 0.03264 0.51699 0.77714 0.0
H530 H 0.01663 0.51972 0.82921 0.0
H531 H -0.00115 0.5453 0.80329 0.0
H532 H 0.019 0.5275 0.76258 0.0
C533 C 0.01621 0.49174 0.81607 0.0
C534 C 0.00849 0.47628 0.81877 0.0
C535 C 0.01807 0.49786 0.79589 0.0
C536 C 0.01265 0.48827 0.77834 0.0
C537 C 0.00507 0.47281 0.78098 0.0
C538 C 0.00272 0.46696 0.80119 0.0
C539 C 0.02729 0.51449 0.79287 0.0
C540 C 0.01815 0.52198 0.79544 0.0
C541 C 0.0139 0.52402 0.81562 0.0
C542 C 0.00663 0.53214 0.8184 0.0
C543 C 0.00383 0.53844 0.80102 0.0
C544 C 0.00837 0.53694 0.78095 0.0
C545 C 0.01521 0.52841 0.77806 0.0
H546 H 0.49188 0.47639 0.81803 0.0
H547 H 0.48895 0.47774 0.75081 0.0
H548 H 0.44915 0.4534 0.7876 0.0
H549 H 0.51362 0.48291 0.79539 0.0
H550 H 0.51258 0.48457 0.76777 0.0
H551 H 0.51332 0.50246 0.81962 0.0
H552 H 0.53841 0.54633 0.79426 0.0
H553 H 0.52128 0.50839 0.75318 0.0
C554 C 0.48519 0.47387 0.80395 0.0
C555 C 0.46966 0.46455 0.80512 0.0
C556 C 0.49225 0.47886 0.7844 0.0
C557 C 0.48355 0.47453 0.76597 0.0
C558 C 0.46795 0.46547 0.76708 0.0
C559 C 0.46114 0.46086 0.78673 0.0
C560 C 0.50906 0.487 0.78307 0.0
C561 C 0.51587 0.50355 0.78594 0.0
C562 C 0.51753 0.5097 0.80615 0.0
C563 C 0.52536 0.52516 0.80914 0.0
C564 C 0.53145 0.53445 0.79175 0.0
C565 C 0.53024 0.52855 0.77154 0.0
C566 C 0.5221 0.51306 0.76868 0.0
H567 H 0.67824 0.85619 0.5329 0.0
H568 H 0.68191 0.85685 0.60013 0.0
H569 H 0.6591 0.87651 0.57081 0.0
H570 H 0.69705 0.85225 0.55057 0.0
H571 H 0.6972 0.85075 0.57834 0.0
H572 H 0.6826 0.83056 0.52902 0.0
H573 H 0.66098 0.78797 0.55889 0.0
H574 H 0.67793 0.82765 0.59626 0.0
C575 C 0.67524 0.85852 0.54815 0.0
C576 C 0.66802 0.8668 0.54962 0.0
C577 C 0.67993 0.8545 0.56636 0.0
C578 C 0.67735 0.85887 0.58613 0.0
C579 C 0.66973 0.86672 0.58771 0.0
C580 C 0.66456 0.87002 0.56951 0.0
C581 C 0.68967 0.84768 0.56451 0.0
C582 C 0.68054 0.83096 0.56274 0.0
C583 C 0.67821 0.82392 0.54303 0.0
C584 C 0.6714 0.8084 0.54162 0.0
C585 C 0.66606 0.79995 0.5599 0.0
C586 C 0.6684 0.80675 0.57963 0.0
C587 C 0.67562 0.82229 0.581 0.0
H588 H 0.19264 0.829 0.53043 0.0
H589 H 0.19782 0.83886 0.59668 0.0
H590 H 0.21041 0.87382 0.5521 0.0
H591 H 0.19475 0.81221 0.55817 0.0
H592 H 0.19166 0.81465 0.58499 0.0
H593 H 0.17395 0.80329 0.53186 0.0
H594 H 0.13007 0.7761 0.55746 0.0
H595 H 0.16627 0.80504 0.59817 0.0
C596 C 0.19534 0.83679 0.54328 0.0
C597 C 0.20109 0.85187 0.53895 0.0
C598 C 0.19364 0.83188 0.56415 0.0
C599 C 0.19834 0.84239 0.58062 0.0
C600 C 0.20432 0.85755 0.57634 0.0
C601 C 0.20525 0.86207 0.55553 0.0
C602 C 0.18864 0.81584 0.5687 0.0
C603 C 0.17205 0.80559 0.56535 0.0
C604 C 0.16647 0.79988 0.54517 0.0
C605 C 0.15135 0.78919 0.54235 0.0
C606 C 0.14177 0.78439 0.55962 0.0
C607 C 0.14703 0.7901 0.57966 0.0
C608 C 0.16215 0.80081 0.58256 0.0
H609 H 0.17767 0.32871 0.52218 0.0
H610 H 0.17876 0.32862 0.58877 0.0
H611 H 0.2177 0.36002 0.55484 0.0
H612 H 0.15698 0.30972 0.54294 0.0
H613 H 0.15675 0.31139 0.57075 0.0
H614 H 0.15501 0.3294 0.52049 0.0
H615 H 0.12234 0.33897 0.54516 0.0
H616 H 0.14164 0.32032 0.58525 0.0
C617 C 0.18376 0.33397 0.53638 0.0
C618 C 0.1992 0.34436 0.53577 0.0
C619 C 0.17614 0.32936 0.55559 0.0
C620 C 0.18439 0.33385 0.57435 0.0
C621 C 0.1999 0.34398 0.57408 0.0
C622 C 0.20639 0.35075 0.5549 0.0
C623 C 0.15966 0.31784 0.55596 0.0
C624 C 0.15006 0.3248 0.55346 0.0
C625 C 0.14877 0.32997 0.53371 0.0
C626 C 0.13898 0.33535 0.53075 0.0
C627 C 0.13034 0.33537 0.54762 0.0
C628 C 0.13101 0.32975 0.56719 0.0
C629 C 0.14122 0.32487 0.57025 0.0
H630 H 0.02204 0.40065 0.07224 0.0
H631 H 0.02017 0.41717 0.09803 0.0
H632 H 0.97219 0.38986 0.09691 0.0
H633 H 0.97395 0.37301 0.0716 0.0
H634 H 0.99295 0.42796 0.09084 0.0
H635 H 0.97603 0.38322 0.13479 0.0
H636 H 0.97927 0.36301 0.14847 0.0
H637 H 0.02295 0.39497 0.17117 0.0
H638 H 0.02004 0.41535 0.15729 0.0
H639 H 0.97915 0.44801 0.20373 0.0
H640 H 0.97568 0.43101 0.17493 0.0
H641 H 0.01696 0.46435 0.14714 0.0
H642 H 0.02089 0.48126 0.17636 0.0
H643 H 0.9972 0.42208 0.16716 0.0
H644 H 0.01116 0.45728 0.09221 0.0
H645 H 0.00873 0.47795 0.07844 0.0
H646 H 0.97087 0.46553 0.11826 0.0
H647 H 0.97293 0.44466 0.13204 0.0
C648 C 0.0111 0.39812 0.07759 0.0
C649 C -0.00186 0.38551 0.07001 0.0
C650 C 0.01006 0.40756 0.09225 0.0
C651 C 0.99606 0.40467 0.09929 0.0
C652 C 0.98309 0.3922 0.09165 0.0
C653 C 0.98412 0.38258 0.0773 0.0
C654 C 0.99505 0.41471 0.11474 0.0
C655 C 0.99381 0.42669 0.10755 0.0
C656 C 0.99616 0.41297 0.13644 0.0
C657 C -0.00209 0.40075 0.14475 0.0
C658 C 0.98639 0.38591 0.14246 0.0
C659 C 0.98815 0.37443 0.15031 0.0
C660 C 0.00133 0.3777 0.16061 0.0
C661 C 0.01277 0.39245 0.16314 0.0
C662 C 0.01107 0.40396 0.15529 0.0
C663 C 0.98743 0.45181 0.19139 0.0
C664 C 0.00041 0.46595 0.19253 0.0
C665 C 0.98539 0.44209 0.17492 0.0
C666 C 0.9961 0.44641 0.15902 0.0
C667 C 0.00853 0.46085 0.15925 0.0
C668 C 0.0107 0.47054 0.1759 0.0
C669 C 0.99498 0.43537 0.14336 0.0
C670 C 0.99609 0.42329 0.1505 0.0
C671 C 0.99374 0.43707 0.12163 0.0
C672 C 0.99231 0.4495 0.11331 0.0
C673 C 0.00228 0.45893 0.09797 0.0
C674 C 0.00098 0.47068 0.09017 0.0
C675 C 0.98969 0.47308 0.09752 0.0
C676 C 0.97965 0.4637 0.11265 0.0
C677 C 0.9809 0.45193 0.12049 0.0
H678 H 0.9887 0.48219 0.09147 0.0
H679 H 0.00267 0.3688 0.16669 0.0
H680 H 0.62353 0.61095 0.06717 0.0
H681 H 0.6117 0.59246 0.09488 0.0
H682 H 0.56837 0.58365 0.07463 0.0
H683 H 0.58003 0.60221 0.04733 0.0
H684 H 0.57003 0.58536 0.11575 0.0
H685 H 0.58145 0.56001 0.06235 0.0
H686 H 0.59761 0.5564 0.03756 0.0
H687 H 0.62446 0.55656 0.08867 0.0
H688 H 0.60858 0.56038 0.11375 0.0
H689 H 0.52589 0.51859 0.17154 0.0
H690 H 0.53779 0.53419 0.14067 0.0
H691 H 0.58121 0.54883 0.16737 0.0
H692 H 0.56938 0.53348 0.19822 0.0
H693 H 0.57928 0.54342 0.1226 0.0
H694 H 0.56864 0.57004 0.17544 0.0
H695 H 0.55229 0.57324 0.20039 0.0
H696 H 0.5238 0.57039 0.14976 0.0
H697 H 0.53987 0.56692 0.12456 0.0
C698 C 0.6115 0.60513 0.06869 0.0
C699 C 0.60275 0.60807 0.05497 0.0
C700 C 0.60474 0.59449 0.08445 0.0
C701 C 0.58912 0.58651 0.08665 0.0
C702 C 0.58043 0.58964 0.07323 0.0
C703 C 0.58715 0.60027 0.05758 0.0
C704 C 0.58173 0.57495 0.10298 0.0
C705 C 0.57192 0.57609 0.11701 0.0
C706 C 0.58437 0.56297 0.10494 0.0
C707 C 0.59391 0.56063 0.08991 0.0
C708 C 0.59087 0.55939 0.06829 0.0
C709 C 0.59997 0.55728 0.05419 0.0
C710 C 0.61208 0.55629 0.06153 0.0
C711 C 0.61509 0.55736 0.083 0.0
C712 C 0.60604 0.55948 0.09717 0.0
C713 C 0.53795 0.52485 0.17047 0.0
C714 C 0.54675 0.52488 0.18711 0.0
C715 C 0.54473 0.53378 0.15296 0.0
C716 C 0.56037 0.54269 0.15184 0.0
C717 C 0.56915 0.54198 0.16789 0.0
C718 C 0.56239 0.53325 0.18547 0.0
C719 C 0.56756 0.55384 0.13507 0.0
C720 C 0.57737 0.55266 0.12113 0.0
C721 C 0.56492 0.56578 0.13311 0.0
C722 C 0.55534 0.56804 0.14817 0.0
C723 C 0.55881 0.56996 0.16967 0.0
C724 C 0.54961 0.57184 0.18385 0.0
C725 C 0.53699 0.57197 0.17667 0.0
C726 C 0.53357 0.57026 0.1553 0.0
C727 C 0.54272 0.56834 0.14106 0.0
H728 H 0.52988 0.57343 0.18767 0.0
H729 H 0.61911 0.55466 0.05059 0.0
H730 H 0.39164 0.0209 0.05342 0.0
H731 H 0.41029 0.02658 0.08099 0.0
H732 H 0.39381 0.97981 0.08847 0.0
H733 H 0.37549 0.97409 0.06062 0.0
H734 H 0.4004 -0.00205 0.12765 0.0
H735 H 0.42119 0.99528 0.06 0.0
H736 H 0.42829 0.00289 0.02331 0.0
H737 H 0.45717 0.048 0.04338 0.0
H738 H 0.45004 0.04067 0.08019 0.0
H739 H 0.46291 0.98961 0.15977 0.0
H740 H 0.4504 0.99337 0.13018 0.0
H741 H 0.45033 0.02945 0.16324 0.0
H742 H 0.46347 0.02624 0.1926 0.0
H743 H 0.45298 0.01942 0.10416 0.0
H744 H 0.41247 0.01638 0.1658 0.0
H745 H 0.40596 0.0089 0.20272 0.0
H746 H 0.41673 0.97459 0.19417 0.0
H747 H 0.42307 0.98174 0.15718 0.0
C748 C 0.39183 0.01184 0.06125 0.0
C749 C 0.38217 0.99706 0.0549 0.0
C750 C 0.4025 0.0151 0.07688 0.0
C751 C 0.40341 0.00359 0.08663 0.0
C752 C 0.39324 0.98881 0.08111 0.0
C753 C 0.38282 0.98557 0.0652 0.0
C754 C 0.41556 0.00684 0.10155 0.0
C755 C 0.41191 0.0028 0.12256 0.0
C756 C 0.43055 0.01311 0.09486 0.0
C757 C 0.43495 0.01746 0.07279 0.0
C758 C 0.42894 0.00684 0.05656 0.0
C759 C 0.43299 0.0111 0.03575 0.0
C760 C 0.44314 0.02593 0.03101 0.0
C761 C 0.44929 0.03652 0.04708 0.0
C762 C 0.44525 0.03232 0.06791 0.0
C763 C 0.46094 -0.00116 0.16038 0.0
C764 C 0.46394 0.00745 0.17874 0.0
C765 C 0.45374 0.00094 0.14344 0.0
C766 C 0.4493 0.01154 0.14472 0.0
C767 C 0.45364 0.02117 0.16205 0.0
C768 C 0.46103 0.01923 0.17886 0.0
C769 C 0.43779 0.01054 0.13018 0.0
C770 C 0.44153 0.0149 0.1093 0.0
C771 C 0.42285 0.00455 0.13694 0.0
C772 C 0.41837 -0.00031 0.15884 0.0
C773 C 0.41335 0.00718 0.1718 0.0
C774 C 0.40971 0.00302 0.19274 0.0
C775 C 0.41099 0.99132 0.20082 0.0
C776 C 0.4158 0.98369 0.18793 0.0
C777 C 0.41942 0.98779 0.16699 0.0
H778 H 0.40823 0.98815 0.21704 0.0
H779 H 0.44626 0.0292 0.01489 0.0
H780 H 0.40353 0.02145 0.96182 0.0
H781 H 0.4213 0.0186 0.93999 0.0
H782 H 0.38567 0.97645 0.9172 0.0
H783 H 0.36785 0.97909 0.93927 0.0
H784 H 0.41022 0.97497 0.92782 0.0
H785 H 0.39973 0.00766 0.88731 0.0
H786 H 0.39813 0.03013 0.88165 0.0
H787 H 0.44497 0.05758 0.89475 0.0
H788 H 0.4468 0.03526 0.90074 0.0
H789 H 0.43941 0.96343 0.83411 0.0
H790 H 0.42629 0.96643 0.86384 0.0
H791 H 0.46401 0.0103 0.87547 0.0
H792 H 0.47678 0.00748 0.84488 0.0
H793 H 0.4406 0.01208 0.87387 0.0
H794 H 0.45206 0.97972 0.91089 0.0
H795 H 0.45401 0.95749 0.91688 0.0
H796 H 0.40641 0.92976 0.91144 0.0
H797 H 0.40418 0.9518 0.90513 0.0
C798 C 0.39945 0.01161 0.95206 0.0
C799 C 0.38427 0.00052 0.9522 0.0
C800 C 0.40963 0.01001 0.9396 0.0
C801 C 0.40479 0.99735 0.92689 0.0
C802 C 0.38964 0.98628 0.92694 0.0
C803 C 0.37946 0.98786 0.93945 0.0
C804 C 0.41549 0.99563 0.91343 0.0
C805 C 0.4168 0.983 0.91588 0.0
C806 C 0.42445 0.00639 0.89841 0.0
C807 C 0.42336 0.0198 0.89468 0.0
C808 C 0.40966 0.01849 0.88913 0.0
C809 C 0.40872 0.0312 0.88584 0.0
C810 C 0.42143 0.04528 0.8879 0.0
C811 C 0.43513 0.04667 0.89319 0.0
C812 C 0.43612 0.034 0.89652 0.0
C813 C 0.44505 0.97349 0.84352 0.0
C814 C 0.45912 0.98515 0.83756 0.0
C815 C 0.43759 0.97521 0.86054 0.0
C816 C 0.44419 0.98855 0.87214 0.0
C817 C 0.45868 -0.0001 0.86682 0.0
C818 C 0.46603 -0.00173 0.84953 0.0
C819 C 0.43529 0.99127 0.88797 0.0
C820 C 0.43426 0.0041 0.88598 0.0
C821 C 0.42668 0.98073 0.90351 0.0
C822 C 0.42797 0.96743 0.90741 0.0
C823 C 0.44201 0.96888 0.91083 0.0
C824 C 0.44317 0.95631 0.91431 0.0
C825 C 0.43035 0.94222 0.91451 0.0
C826 C 0.41634 0.94068 0.91128 0.0
C827 C 0.41512 0.95321 0.90779 0.0
H828 H 0.43127 0.9325 0.91719 0.0
H829 H 0.42068 0.0551 0.88535 0.0
H830 H 0.97227 0.38196 0.962 0.0
H831 H 0.97745 0.39976 0.93409 0.0
H832 H 0.02435 0.41439 0.93764 0.0
H833 H 0.01919 0.3963 0.96559 0.0
H834 H 0.01672 0.43795 0.93842 0.0
H835 H 0.0082 0.39586 0.89737 0.0
H836 H 0.99483 0.36957 0.88632 0.0
H837 H 0.95634 0.37254 0.87035 0.0
H838 H 0.9694 0.39881 0.8816 0.0
H839 H 0.03158 0.48151 0.84454 0.0
H840 H 0.03072 0.46606 0.87384 0.0
H841 H 0.98275 0.43983 0.8681 0.0
H842 H 0.98368 0.455 0.8385 0.0
H843 H 0.99383 0.42244 0.86785 0.0
H844 H 0.00108 0.46357 0.91088 0.0
H845 H 0.01364 0.48967 0.92281 0.0
H846 H 0.05356 0.48852 0.93581 0.0
H847 H 0.04129 0.46246 0.92369 0.0
C848 C 0.98368 0.38885 0.95673 0.0
C849 C 0.99533 0.38772 0.96597 0.0
C850 C 0.98662 0.39901 0.94077 0.0
C851 C 0.00127 0.40838 0.93383 0.0
C852 C 0.01296 0.40724 0.94283 0.0
C853 C 0.00999 0.39684 0.95864 0.0
C854 C 0.00416 0.41949 0.91743 0.0
C855 C 0.01199 0.43463 0.92282 0.0
C856 C -0.00235 0.41508 0.89732 0.0
C857 C 0.98975 0.39928 0.8905 0.0
C858 C 0.99684 0.39088 0.89167 0.0
C859 C 0.98933 0.37598 0.88534 0.0
C860 C 0.97473 0.36938 0.87768 0.0
C861 C 0.96764 0.37767 0.8763 0.0
C862 C 0.9751 0.39257 0.88263 0.0
C863 C 0.02084 0.47273 0.85001 0.0
C864 C 0.00769 0.46944 0.83934 0.0
C865 C 0.02035 0.46387 0.8667 0.0
C866 C 0.00666 0.45172 0.87318 0.0
C867 C 0.99345 0.44904 0.86331 0.0
C868 C 0.99396 0.45777 0.84652 0.0
C869 C 0.0061 0.44099 0.88891 0.0
C870 C -0.0013 0.42586 0.88336 0.0
C871 C 0.01292 0.44545 0.9089 0.0
C872 C 0.02032 0.46112 0.91615 0.0
C873 C 0.01258 0.46892 0.91611 0.0
C874 C 0.01964 0.4837 0.92294 0.0
C875 C 0.0344 0.49076 0.93 0.0
C876 C 0.04213 0.48304 0.9303 0.0
C877 C 0.03512 0.46827 0.92346 0.0
H878 H 0.03985 0.5022 0.9353 0.0
H879 H 0.96894 0.35785 0.87278 0.0
H880 H 0.60081 0.62615 0.94509 0.0
H881 H 0.58236 0.60853 0.92005 0.0
H882 H 0.59877 0.57851 0.92965 0.0
H883 H 0.61719 0.596 0.95465 0.0
H884 H 0.59423 0.58171 0.88786 0.0
H885 H 0.56754 0.57185 0.95306 0.0
H886 H 0.55834 0.57848 0.98458 0.0
H887 H 0.53449 0.59301 0.94595 0.0
H888 H 0.54375 0.58667 0.91418 0.0
H889 H 0.53813 0.51776 0.84029 0.0
H890 H 0.55174 0.53319 0.87055 0.0
H891 H 0.53683 0.56374 0.85553 0.0
H892 H 0.52317 0.54831 0.82516 0.0
H893 H 0.53994 0.56034 0.9003 0.0
H894 H 0.56707 0.57139 0.8355 0.0
H895 H 0.57598 0.56498 0.80349 0.0
H896 H 0.59916 0.54906 0.8409 0.0
H897 H 0.5901 0.5551 0.87317 0.0
C898 C 0.60056 0.61584 0.94173 0.0
C899 C 0.61043 0.61243 0.95187 0.0
C900 C 0.58996 0.60576 0.92753 0.0
C901 C 0.5891 0.59215 0.92319 0.0
C902 C 0.59922 0.58893 0.93284 0.0
C903 C 0.60973 0.59892 0.94714 0.0
C904 C 0.57762 0.5812 0.90866 0.0
C905 C 0.58237 0.57691 0.89074 0.0
C906 C 0.56214 0.57522 0.91216 0.0
C907 C 0.55647 0.57893 0.93124 0.0
C908 C 0.56044 0.57657 0.95128 0.0
C909 C 0.55519 0.58026 0.9692 0.0
C910 C 0.54587 0.5862 0.96727 0.0
C911 C 0.54174 0.58842 0.94742 0.0
C912 C 0.54697 0.58478 0.92945 0.0
C913 C 0.53724 0.52742 0.84393 0.0
C914 C 0.52968 0.53191 0.83034 0.0
C915 C 0.54509 0.53628 0.86114 0.0
C916 C 0.54544 0.54969 0.86504 0.0
C917 C 0.53669 0.55343 0.85274 0.0
C918 C 0.52894 0.54464 0.83541 0.0
C919 C 0.55661 0.56076 0.87974 0.0
C920 C 0.55181 0.56513 0.89754 0.0
C921 C 0.57208 0.56694 0.87609 0.0
C922 C 0.57777 0.56354 0.85674 0.0
C923 C 0.57396 0.5664 0.8369 0.0
C924 C 0.57905 0.56285 0.81871 0.0
C925 C 0.58811 0.55658 0.82016 0.0
C926 C 0.59212 0.55389 0.83981 0.0
C927 C 0.58701 0.55737 0.85806 0.0
H928 H 0.59204 0.55384 0.80606 0.0
H929 H 0.54182 0.58905 0.98116 0.0
H930 H 0.96204 0.58545 0.96432 0.0
H931 H 0.96574 0.57098 0.93721 0.0
H932 H 0.01308 0.60271 0.93745 0.0
H933 H 0.00925 0.61766 0.96367 0.0
H934 H 0.00545 0.59447 0.89995 0.0
H935 H 0.99579 0.56714 0.96399 0.0
H936 H 0.98183 0.55437 0.99583 0.0
H937 H 0.94427 0.52395 0.95833 0.0
H938 H 0.95795 0.53661 0.92622 0.0
H939 H 0.02675 0.5479 0.84894 0.0
H940 H 0.02257 0.55974 0.87952 0.0
H941 H 0.97555 0.53739 0.86511 0.0
H942 H 0.97975 0.52579 0.83429 0.0
H943 H 0.98352 0.54028 0.91027 0.0
H944 H 0.99385 0.56858 0.84633 0.0
H945 H 0.00888 0.58063 0.81488 0.0
H946 H 0.04655 0.60918 0.85366 0.0
H947 H 0.03183 0.59704 0.88535 0.0
C948 C 0.97321 0.58941 0.9584 0.0
C949 C 0.98537 0.60265 0.96614 0.0
C950 C 0.97535 0.58105 0.94305 0.0
C951 C 0.98977 0.58547 0.93567 0.0
C952 C 0.00185 0.59898 0.94293 0.0
C953 C -0.00034 0.60754 0.9579 0.0
C954 C 0.99227 0.57604 0.9205 0.0
C955 C 0.00082 0.58267 0.90247 0.0
C956 C 0.98608 0.56054 0.92344 0.0
C957 C 0.97785 0.55291 0.94272 0.0
C958 C 0.98452 0.55779 0.96254 0.0
C959 C 0.97667 0.55056 0.98064 0.0
C960 C 0.96216 0.5384 0.97913 0.0
C961 C 0.9555 0.53339 0.95949 0.0
C962 C 0.9633 0.54057 0.94133 0.0
C963 C 0.01547 0.54513 0.85278 0.0
C964 C 0.00354 0.53592 0.83943 0.0
C965 C 0.01311 0.55195 0.87012 0.0
C966 C -0.00122 0.5495 0.8744 0.0
C967 C 0.98667 0.53937 0.86206 0.0
C968 C 0.98906 0.53275 0.84453 0.0
C969 C 0.99668 0.5588 0.89009 0.0
C970 C 0.9882 0.55211 0.90803 0.0
C971 C 0.00305 0.57425 0.88722 0.0
C972 C 0.01179 0.58179 0.8682 0.0
C973 C 0.00538 0.57734 0.84815 0.0
C974 C 0.01383 0.58419 0.83028 0.0
C975 C 0.02867 0.59564 0.83227 0.0
C976 C 0.03506 0.60029 0.85214 0.0
C977 C 0.02667 0.59342 0.87006 0.0
H978 H 0.0352 0.60093 0.81841 0.0
H979 H 0.95611 0.53283 0.99318 0.0
H980 H 0.40613 0.38368 0.96953 0.0
H981 H 0.42452 0.40156 0.94524 0.0
H982 H 0.38928 0.40193 0.91016 0.0
H983 H 0.37083 0.38436 0.93486 0.0
H984 H 0.42944 0.40063 0.906 0.0
H985 H 0.40119 0.43545 0.88892 0.0
H986 H 0.38549 0.44341 0.90736 0.0
H987 H 0.4022 0.43885 0.96658 0.0
H988 H 0.41816 0.43108 0.9485 0.0
H989 H 0.45083 0.43517 0.80982 0.0
H990 H 0.43753 0.42184 0.84108 0.0
H991 H 0.45936 0.46275 0.87674 0.0
H992 H 0.47233 0.47634 0.84478 0.0
H993 H 0.43001 0.44672 0.88607 0.0
H994 H 0.46995 0.43725 0.88321 0.0
H995 H 0.48729 0.43052 0.867 0.0
H996 H 0.45066 0.38694 0.85266 0.0
H997 H 0.43305 0.39347 0.86851 0.0
C998 C 0.40228 0.38753 0.95661 0.0
C999 C 0.38702 0.38265 0.95414 0.0
C1000 C 0.41282 0.39777 0.94275 0.0
C1001 C 0.40833 0.40329 0.92609 0.0
C1002 C 0.39305 0.3981 0.92321 0.0
C1003 C 0.3825 0.38796 0.93721 0.0
C1004 C 0.4196 0.41421 0.91142 0.0
C1005 C 0.4296 0.41074 0.90175 0.0
C1006 C 0.42017 0.42766 0.90634 0.0
C1007 C 0.41078 0.43257 0.91734 0.0
C1008 C 0.40158 0.43623 0.90587 0.0
C1009 C 0.39262 0.44069 0.91626 0.0
C1010 C 0.39282 0.44159 0.93813 0.0
C1011 C 0.40202 0.43809 0.94965 0.0
C1012 C 0.41101 0.43365 0.93933 0.0
C1013 C 0.45264 0.44136 0.82423 0.0
C1014 C 0.46236 0.45679 0.8248 0.0
C1015 C 0.4452 0.43371 0.84218 0.0
C1016 C 0.44757 0.44126 0.86132 0.0
C1017 C 0.45741 0.45671 0.86211 0.0
C1018 C 0.46485 0.46443 0.84395 0.0
C1019 C 0.43939 0.43281 0.88016 0.0
C1020 C 0.42996 0.43672 0.89059 0.0
C1021 C 0.43962 0.41995 0.88638 0.0
C1022 C 0.45017 0.41588 0.87699 0.0
C1023 C 0.46558 0.42626 0.8765 0.0
C1024 C 0.47546 0.42247 0.86738 0.0
C1025 C 0.47008 0.40831 0.85879 0.0
C1026 C 0.45481 0.3979 0.85933 0.0
C1027 C 0.44487 0.40163 0.86842 0.0
H1028 H 0.47775 0.40541 0.85173 0.0
H1029 H 0.38586 0.44503 0.94614 0.0
H1030 H 0.61113 0.98072 0.95128 0.0
H1031 H 0.59179 0.97353 0.92442 0.0
H1032 H 0.58202 0.00641 0.94825 0.0
H1033 H 0.60109 0.01355 0.97513 0.0
H1034 H 0.55663 0.98069 0.93988 0.0
H1035 H 0.60282 0.01295 0.90447 0.0
H1036 H 0.62849 0.02142 0.89254 0.0
H1037 H 0.61306 0.98037 0.85903 0.0
H1038 H 0.58732 0.97157 0.87101 0.0
H1039 H 0.51958 0.98887 0.8503 0.0
H1040 H 0.53476 0.99116 0.88111 0.0
H1041 H 0.54466 0.95922 0.85374 0.0
H1042 H 0.52984 0.95723 0.82291 0.0
H1043 H 0.56943 0.98327 0.86452 0.0
H1044 H 0.52262 0.95166 0.89832 0.0
H1045 H 0.49703 0.94369 0.91005 0.0
H1046 H 0.51344 0.98378 0.94633 0.0
H1047 H 0.53912 0.99209 0.93458 0.0
C1048 C 0.60488 0.98643 0.95078 0.0
C1049 C 0.60777 -0.00221 0.9653 0.0
C1050 C 0.59384 0.98232 0.93541 0.0
C1051 C 0.58551 0.9895 0.93425 0.0
C1052 C 0.58826 0.00069 0.94886 0.0
C1053 C 0.59928 0.00482 0.96415 0.0
C1054 C 0.57412 0.98563 0.91758 0.0
C1055 C 0.55943 0.98135 0.92338 0.0
C1056 C 0.57772 0.98626 0.89608 0.0
C1057 C 0.59318 0.99153 0.88883 0.0
C1058 C 0.60493 0.00568 0.8947 0.0
C1059 C 0.61948 0.01055 0.8879 0.0
C1060 C 0.62241 0.00142 0.87508 0.0
C1061 C 0.61078 0.98742 0.86899 0.0
C1062 C 0.5962 0.98249 0.87577 0.0
C1063 C 0.52466 0.98205 0.85124 0.0
C1064 C 0.52358 0.97288 0.83434 0.0
C1065 C 0.53335 0.98336 0.86879 0.0
C1066 C 0.5409 0.97537 0.86975 0.0
C1067 C 0.53904 0.96556 0.85334 0.0
C1068 C 0.5305 0.96435 0.8358 0.0
C1069 C 0.55184 0.97822 0.88674 0.0
C1070 C 0.56652 0.98242 0.881 0.0
C1071 C 0.54821 0.97756 0.90826 0.0
C1072 C 0.53278 0.97256 0.9154 0.0
C1073 C 0.52076 0.95883 0.90866 0.0
C1074 C 0.50624 0.95424 0.91534 0.0
C1075 C 0.5036 0.96324 0.92889 0.0
C1076 C 0.51549 0.97683 0.93582 0.0
C1077 C 0.53004 0.98148 0.92917 0.0
H1078 H 0.49235 0.95966 0.93404 0.0
H1079 H 0.63369 0.00522 0.86983 0.0
H1080 H 0.59605 0.97621 0.05734 0.0
H1081 H 0.57878 0.97915 0.08011 0.0
H1082 H 0.61446 0.02222 0.09984 0.0
H1083 H 0.63188 0.01938 0.07703 0.0
H1084 H 0.59617 0.00534 0.13282 0.0
H1085 H 0.59086 0.02053 0.06424 0.0
H1086 H 0.58699 0.0177 0.02599 0.0
H1087 H 0.54368 0.97917 0.035 0.0
H1088 H 0.54739 0.98162 0.07331 0.0
H1089 H 0.55056 0.02662 0.18288 0.0
H1090 H 0.5672 0.02805 0.15462 0.0
H1091 H 0.53403 0.98419 0.13352 0.0
H1092 H 0.51736 0.98269 0.16177 0.0
H1093 H 0.55163 0.00306 0.10048 0.0
H1094 H 0.55746 0.98647 0.16815 0.0
H1095 H 0.56067 0.98883 0.20653 0.0
H1096 H 0.60269 0.02927 0.19924 0.0
H1097 H 0.59956 0.02732 0.1608 0.0
C1098 C 0.60028 0.98626 0.06666 0.0
C1099 C 0.61532 0.99761 0.06527 0.0
C1100 C 0.59037 0.98794 0.07959 0.0
C1101 C 0.5953 0.001 0.09139 0.0
C1102 C 0.61043 0.01209 0.09076 0.0
C1103 C 0.62036 0.01045 0.07773 0.0
C1104 C 0.58452 0.00317 0.10396 0.0
C1105 C 0.58658 0.0051 0.12571 0.0
C1106 C 0.57183 0.00254 0.09469 0.0
C1107 C 0.56946 0.00118 0.07166 0.0
C1108 C 0.58055 0.01139 0.05807 0.0
C1109 C 0.57838 0.00986 0.03637 0.0
C1110 C 0.56511 -0.00176 0.02807 0.0
C1111 C 0.55396 0.98816 0.04145 0.0
C1112 C 0.55608 0.98961 0.06316 0.0
C1113 C 0.54663 0.0175 0.17175 0.0
C1114 C 0.53276 0.00447 0.17465 0.0
C1115 C 0.55614 0.01832 0.15565 0.0
C1116 C 0.55195 0.00609 0.1423 0.0
C1117 C 0.53747 0.99372 0.14372 0.0
C1118 C 0.52793 0.99291 0.15982 0.0
C1119 C 0.56332 0.00524 0.12927 0.0
C1120 C 0.56132 0.00347 0.10751 0.0
C1121 C 0.57603 0.00591 0.13852 0.0
C1122 C 0.57821 0.00683 0.1616 0.0
C1123 C 0.56735 0.99591 0.17473 0.0
C1124 C 0.56915 0.99718 0.19649 0.0
C1125 C 0.58186 0.00921 0.20532 0.0
C1126 C 0.59284 0.01997 0.19238 0.0
C1127 C 0.59105 0.01879 0.1706 0.0
H1128 H 0.58322 0.01018 0.22218 0.0
H1129 H 0.56346 0.99707 0.01127 0.0
H1130 H 0.01956 0.61821 0.05734 0.0
H1131 H 0.01958 0.60032 0.0817 0.0
H1132 H 0.97617 0.58984 0.10431 0.0
H1133 H 0.97619 0.60797 0.08023 0.0
H1134 H 0.99389 0.59168 0.13605 0.0
H1135 H 0.98007 0.5674 0.06897 0.0
H1136 H 0.98309 0.56514 0.03108 0.0
H1137 H 0.02444 0.56638 0.04225 0.0
H1138 H 0.02182 0.56897 0.08025 0.0
H1139 H 0.97862 0.52886 0.19129 0.0
H1140 H 0.97559 0.54151 0.16126 0.0
H1141 H 0.02084 0.55636 0.14216 0.0
H1142 H 0.02389 0.54363 0.17213 0.0
H1143 H 0.00122 0.55134 0.10805 0.0
H1144 H 0.01551 0.57666 0.17482 0.0
H1145 H 0.01217 0.57804 0.21284 0.0
H1146 H 0.96992 0.57493 0.20216 0.0
H1147 H 0.97273 0.57295 0.16404 0.0
C1148 C 0.01007 0.61219 0.06759 0.0
C1149 C -0.00216 0.61443 0.06677 0.0
C1150 C 0.01006 0.6019 0.08144 0.0
C1151 C -0.00226 0.59353 0.09454 0.0
C1152 C 0.98574 0.59612 0.09427 0.0
C1153 C 0.98579 0.60648 0.08049 0.0
C1154 C -0.0027 0.58192 0.10826 0.0
C1155 C 0.99527 0.58275 0.12987 0.0
C1156 C -0.00063 0.5704 0.10024 0.0
C1157 C 0.00081 0.56851 0.07744 0.0
C1158 C 0.98986 0.56728 0.06334 0.0
C1159 C 0.9915 0.56593 0.04183 0.0
C1160 C 0.00397 0.56564 0.03424 0.0
C1161 C 0.0148 0.56663 0.04815 0.0
C1162 C 0.01324 0.56804 0.06968 0.0
C1163 C 0.98772 0.53437 0.18023 0.0
C1164 C 0.00154 0.53546 0.18411 0.0
C1165 C 0.98599 0.54159 0.16313 0.0
C1166 C -0.00189 0.55013 0.14982 0.0
C1167 C 0.01138 0.54986 0.15232 0.0
C1168 C 0.0131 0.54257 0.16941 0.0
C1169 C -0.00224 0.56112 0.1357 0.0
C1170 C -0.00028 0.56022 0.11412 0.0
C1171 C 0.99566 0.57261 0.14373 0.0
C1172 C 0.99426 0.5745 0.16657 0.0
C1173 C 0.00547 0.57619 0.18057 0.0
C1174 C 0.00367 0.57707 0.20214 0.0
C1175 C 0.99087 0.5766 0.20993 0.0
C1176 C 0.97983 0.57528 0.19612 0.0
C1177 C 0.9815 0.57424 0.17452 0.0
H1178 H 0.9895 0.57727 0.22665 0.0
H1179 H 0.00526 0.56463 0.01757 0.0
H1180 H 0.40086 0.41807 0.03508 0.0
H1181 H 0.41952 0.43113 0.06245 0.0
H1182 H 0.39905 0.39167 0.10027 0.0
H1183 H 0.38037 0.37838 0.0728 0.0
H1184 H 0.40587 0.41882 0.12173 0.0
H1185 H 0.42914 0.39926 0.07595 0.0
H1186 H 0.43803 0.39566 0.04177 0.0
H1187 H 0.46722 0.44279 0.03627 0.0
H1188 H 0.45833 0.44667 0.0703 0.0
H1189 H 0.45805 0.4308 0.19831 0.0
H1190 H 0.44261 0.42047 0.16707 0.0
H1191 H 0.46822 0.46254 0.13592 0.0
H1192 H 0.48367 0.47313 0.16763 0.0
H1193 H 0.45957 0.43669 0.10959 0.0
H1194 H 0.43886 0.4565 0.15657 0.0
H1195 H 0.42981 0.46102 0.18991 0.0
H1196 H 0.39493 0.4153 0.19183 0.0
H1197 H 0.40431 0.41024 0.15915 0.0
C1198 C 0.40024 0.41216 0.04926 0.0
C1199 C 0.38911 0.39716 0.05178 0.0
C1200 C 0.41097 0.41964 0.06482 0.0
C1201 C 0.4107 0.41232 0.08326 0.0
C1202 C 0.39943 0.39747 0.08608 0.0
C1203 C 0.3888 0.3899 0.07038 0.0
C1204 C 0.42217 0.42017 0.09966 0.0
C1205 C 0.41759 0.42256 0.11923 0.0
C1206 C 0.43752 0.4256 0.09593 0.0
C1207 C 0.44295 0.42327 0.07556 0.0
C1208 C 0.43736 0.40886 0.06737 0.0
C1209 C 0.44242 0.40677 0.04804 0.0
C1210 C 0.45315 0.41899 0.03682 0.0
C1211 C 0.45889 0.43333 0.04495 0.0
C1212 C 0.45385 0.43549 0.06427 0.0
C1213 C 0.46051 0.43783 0.18473 0.0
C1214 C 0.47184 0.45285 0.18549 0.0
C1215 C 0.4517 0.4319 0.1669 0.0
C1216 C 0.4541 0.44083 0.14939 0.0
C1217 C 0.46617 0.45552 0.14939 0.0
C1218 C 0.47499 0.46154 0.16742 0.0
C1219 C 0.4432 0.43495 0.13193 0.0
C1220 C 0.44787 0.43299 0.11213 0.0
C1221 C 0.42791 0.43006 0.13537 0.0
C1222 C 0.42248 0.43294 0.15547 0.0
C1223 C 0.42948 0.44731 0.16431 0.0
C1224 C 0.42429 0.44997 0.18314 0.0
C1225 C 0.41189 0.43842 0.19309 0.0
C1226 C 0.40465 0.42419 0.18422 0.0
C1227 C 0.40995 0.4214 0.1656 0.0
H1228 H 0.40784 0.44051 0.20761 0.0
H1229 H 0.45705 0.41735 0.02186 0.0
H1230 H 0.67794 0.74222 0.37115 0.0
H1231 H 0.67745 0.75986 0.39599 0.0
H1232 H 0.65885 0.7257 0.44311 0.0
H1233 H 0.65835 0.70777 0.41768 0.0
H1234 H 0.64622 0.74043 0.44739 0.0
H1235 H 0.69779 0.75521 0.44056 0.0
H1236 H 0.72152 0.76274 0.4223 0.0
H1237 H 0.72201 0.80128 0.39838 0.0
H1238 H 0.69819 0.79387 0.41631 0.0
H1239 H 0.68081 0.78877 0.53677 0.0
H1240 H 0.67912 0.77422 0.50571 0.0
H1241 H 0.66195 0.79723 0.47016 0.0
H1242 H 0.66292 0.81143 0.50184 0.0
H1243 H 0.69151 0.78992 0.45803 0.0
H1244 H 0.6373 0.77196 0.46801 0.0
H1245 H 0.61576 0.76351 0.4918 0.0
H1246 H 0.62342 0.72967 0.51578 0.0
H1247 H 0.64513 0.73807 0.4923 0.0
C1248 C 0.67377 0.7385 0.38684 0.0
C1249 C 0.66831 0.72368 0.3926 0.0
C1250 C 0.67356 0.74862 0.40108 0.0
C1251 C 0.66843 0.74428 0.42168 0.0
C1252 C 0.66287 0.72939 0.42737 0.0
C1253 C 0.66266 0.71915 0.41289 0.0
C1254 C 0.66889 0.75521 0.43729 0.0
C1255 C 0.65616 0.75124 0.44956 0.0
C1256 C 0.68181 0.76941 0.44035 0.0
C1257 C 0.69613 0.7739 0.42957 0.0
C1258 C 0.70291 0.76524 0.43128 0.0
C1259 C 0.71638 0.76949 0.42101 0.0
C1260 C 0.72324 0.78246 0.40913 0.0
C1261 C 0.71667 0.79122 0.40755 0.0
C1262 C 0.70319 0.78701 0.41777 0.0
C1263 C 0.67643 0.79055 0.52244 0.0
C1264 C 0.67156 0.80087 0.52187 0.0
C1265 C 0.67564 0.78237 0.50468 0.0
C1266 C 0.67024 0.78454 0.48581 0.0
C1267 C 0.66601 0.79534 0.48474 0.0
C1268 C 0.66663 0.80346 0.50273 0.0
C1269 C 0.66887 0.77512 0.46758 0.0
C1270 C 0.6815 0.77926 0.45519 0.0
C1271 C 0.65608 0.76095 0.46481 0.0
C1272 C 0.64287 0.75571 0.47855 0.0
C1273 C 0.63444 0.76279 0.47847 0.0
C1274 C 0.62219 0.75799 0.49186 0.0
C1275 C 0.61824 0.74608 0.50532 0.0
C1276 C 0.62649 0.73889 0.50534 0.0
C1277 C 0.63875 0.74365 0.49198 0.0
H1278 H 0.60877 0.7424 0.51571 0.0
H1279 H 0.73367 0.78573 0.40119 0.0
H1280 H 0.28553 0.93689 0.39386 0.0
H1281 H 0.2719 0.9178 0.42042 0.0
H1282 H 0.23741 0.92918 0.42151 0.0
H1283 H 0.25075 0.948 0.39472 0.0
H1284 H 0.24797 0.92551 0.46251 0.0
H1285 H 0.22982 0.90095 0.39526 0.0
H1286 H 0.23303 0.89348 0.35978 0.0
H1287 H 0.25377 0.87057 0.38571 0.0
H1288 H 0.25087 0.8781 0.42136 0.0
H1289 H 0.19165 0.86838 0.51866 0.0
H1290 H 0.20329 0.88381 0.48785 0.0
H1291 H 0.23169 0.86502 0.481 0.0
H1292 H 0.21971 0.84924 0.51152 0.0
H1293 H 0.2253 0.87227 0.44292 0.0
H1294 H 0.24343 0.89563 0.50949 0.0
H1295 H 0.24096 0.90276 0.54555 0.0
H1296 H 0.22238 0.92831 0.52201 0.0
H1297 H 0.22444 0.92107 0.4858 0.0
C1298 C 0.27513 0.93543 0.39996 0.0
C1299 C 0.26918 0.94391 0.3922 0.0
C1300 C 0.26734 0.92449 0.41502 0.0
C1301 C 0.25363 0.92206 0.42277 0.0
C1302 C 0.24797 0.9309 0.41567 0.0
C1303 C 0.25559 0.94161 0.40035 0.0
C1304 C 0.24491 0.91003 0.43788 0.0
C1305 C 0.24289 0.91387 0.4582 0.0
C1306 C 0.23866 0.89488 0.43234 0.0
C1307 C 0.24028 0.89023 0.41095 0.0
C1308 C 0.23519 0.89443 0.39338 0.0
C1309 C 0.23692 0.89017 0.37324 0.0
C1310 C 0.24364 0.8816 0.37048 0.0
C1311 C 0.24859 0.87723 0.38787 0.0
C1312 C 0.24689 0.88149 0.40804 0.0
C1313 C 0.19998 0.86716 0.51007 0.0
C1314 C 0.20485 0.85771 0.51741 0.0
C1315 C 0.20669 0.87604 0.49258 0.0
C1316 C 0.21863 0.87585 0.4825 0.0
C1317 C 0.22256 0.8654 0.48862 0.0
C1318 C 0.21568 0.85636 0.50599 0.0
C1319 C 0.22811 0.88774 0.4675 0.0
C1320 C 0.23038 0.8839 0.44726 0.0
C1321 C 0.23481 0.90295 0.47321 0.0
C1322 C 0.23396 0.9077 0.49493 0.0
C1323 C 0.23874 0.90271 0.512 0.0
C1324 C 0.23741 0.90676 0.53247 0.0
C1325 C 0.23149 0.91596 0.53607 0.0
C1326 C 0.22694 0.92117 0.51919 0.0
C1327 C 0.22819 0.91709 0.49869 0.0
H1328 H 0.23046 0.91907 0.55193 0.0
H1329 H 0.24498 0.8783 0.35488 0.0
H1330 H 0.05877 0.34973 0.39157 0.0
H1331 H 0.07788 0.35486 0.41805 0.0
H1332 H 0.07816 0.31529 0.39906 0.0
H1333 H 0.05937 0.31021 0.37253 0.0
H1334 H 0.07804 0.33918 0.45144 0.0
H1335 H 0.1127 0.3205 0.40232 0.0
H1336 H 0.11899 0.31949 0.36527 0.0
H1337 H 0.11248 0.35592 0.35121 0.0
H1338 H 0.10636 0.35729 0.38823 0.0
H1339 H 0.13247 0.3187 0.49505 0.0
H1340 H 0.12057 0.32122 0.46357 0.0
H1341 H 0.12614 0.36243 0.48763 0.0
H1342 H 0.1379 0.35987 0.51924 0.0
H1343 H 0.12522 0.34101 0.43185 0.0
H1344 H 0.0927 0.36072 0.48274 0.0
H1345 H 0.08602 0.36068 0.51991 0.0
H1346 H 0.08742 0.32082 0.52996 0.0
H1347 H 0.09385 0.3205 0.49281 0.0
C1348 C 0.06287 0.3421 0.3931 0.0
C1349 C 0.05758 0.3296 0.37983 0.0
C1350 C 0.0738 0.34505 0.40821 0.0
C1351 C 0.07966 0.33562 0.41023 0.0
C1352 C 0.07407 0.32292 0.39744 0.0
C1353 C 0.06323 0.31999 0.38235 0.0
C1354 C 0.09145 0.33879 0.42592 0.0
C1355 C 0.08849 0.33991 0.4471 0.0
C1356 C 0.10496 0.33941 0.42028 0.0
C1357 C 0.10898 0.33893 0.39805 0.0
C1358 C 0.11271 0.32836 0.39136 0.0
C1359 C 0.11623 0.32771 0.37036 0.0
C1360 C 0.11613 0.33763 0.3559 0.0
C1361 C 0.11254 0.34823 0.36243 0.0
C1362 C 0.10903 0.34894 0.38341 0.0
C1363 C 0.13167 0.32857 0.49325 0.0
C1364 C 0.13592 0.339 0.50965 0.0
C1365 C 0.12483 0.32998 0.47528 0.0
C1366 C 0.12218 0.34183 0.4735 0.0
C1367 C 0.12786 0.35306 0.48888 0.0
C1368 C 0.13459 0.35161 0.50688 0.0
C1369 C 0.11174 0.3413 0.45729 0.0
C1370 C 0.11489 0.34058 0.43608 0.0
C1371 C 0.09834 0.34093 0.46286 0.0
C1372 C 0.09393 0.3407 0.48506 0.0
C1373 C 0.0915 0.35191 0.49287 0.0
C1374 C 0.08777 0.35195 0.51393 0.0
C1375 C 0.08636 0.34079 0.52731 0.0
C1376 C 0.08857 0.32949 0.51961 0.0
C1377 C 0.09225 0.32938 0.49855 0.0
H1378 H 0.08353 0.34087 0.54363 0.0
H1379 H 0.11884 0.3371 0.33965 0.0
H1380 H 0.03931 0.31107 0.27892 0.0
H1381 H 0.05709 0.30824 0.25698 0.0
H1382 H 0.08611 0.3558 0.25601 0.0
H1383 H 0.06854 0.35873 0.27839 0.0
H1384 H 0.08065 0.3404 0.21568 0.0
H1385 H 0.09579 0.33931 0.28621 0.0
H1386 H 0.09185 0.3306 0.32269 0.0
H1387 H 0.07909 0.28665 0.30134 0.0
H1388 H 0.08255 0.29502 0.26463 0.0
H1389 H 0.14153 0.34351 0.16843 0.0
H1390 H 0.12897 0.34705 0.19849 0.0
H1391 H 0.10108 0.29956 0.20457 0.0
H1392 H 0.11387 0.29601 0.17466 0.0
H1393 H 0.10665 0.31526 0.24353 0.0
H1394 H 0.08919 0.31537 0.17364 0.0
H1395 H 0.0926 0.32342 0.1368 0.0
H1396 H 0.10906 0.36843 0.15684 0.0
H1397 H 0.10595 0.36067 0.19383 0.0
C1398 C 0.04941 0.32094 0.27388 0.0
C1399 C 0.05257 0.33513 0.28038 0.0
C1400 C 0.05957 0.31929 0.26146 0.0
C1401 C 0.07293 0.33181 0.2551 0.0
C1402 C 0.07586 0.34602 0.26088 0.0
C1403 C 0.06583 0.34767 0.27362 0.0
C1404 C 0.08391 0.33005 0.24254 0.0
C1405 C 0.0865 0.33511 0.22185 0.0
C1406 C 0.09124 0.32282 0.25055 0.0
C1407 C 0.08927 0.31776 0.27263 0.0
C1408 C 0.09198 0.32775 0.28926 0.0
C1409 C 0.08986 0.32288 0.30999 0.0
C1410 C 0.08522 0.30808 0.31434 0.0
C1411 C 0.08268 0.29812 0.29795 0.0
C1412 C 0.0847 0.30291 0.27716 0.0
C1413 C 0.1332 0.33385 0.17682 0.0
C1414 C 0.12857 0.3195 0.1693 0.0
C1415 C 0.12599 0.33587 0.19389 0.0
C1416 C 0.11389 0.32356 0.2034 0.0
C1417 C 0.11037 0.30919 0.19739 0.0
C1418 C 0.11769 0.30716 0.18037 0.0
C1419 C 0.10345 0.32572 0.21673 0.0
C1420 C 0.10087 0.32064 0.23745 0.0
C1421 C 0.09599 0.33283 0.20873 0.0
C1422 C 0.09747 0.33747 0.1865 0.0
C1423 C 0.0936 0.327 0.17019 0.0
C1424 C 0.09547 0.3315 0.14929 0.0
C1425 C 0.10108 0.34643 0.14448 0.0
C1426 C 0.10474 0.35687 0.16058 0.0
C1427 C 0.10291 0.35243 0.18153 0.0
H1428 H 0.10256 0.3499 0.12829 0.0
H1429 H 0.08362 0.30435 0.33042 0.0
H1430 H 0.64415 0.72498 0.29634 0.0
H1431 H 0.65048 0.74288 0.2684 0.0
H1432 H 0.68894 0.73934 0.25264 0.0
H1433 H 0.6828 0.72145 0.28104 0.0
H1434 H 0.69603 0.76798 0.25409 0.0
H1435 H 0.65829 0.72376 0.22107 0.0
H1436 H 0.63392 0.70071 0.21735 0.0
H1437 H 0.61156 0.72571 0.22141 0.0
H1438 H 0.6358 0.7489 0.22545 0.0
H1439 H 0.70682 0.80352 0.15425 0.0
H1440 H 0.70321 0.78718 0.1838 0.0
H1441 H 0.6662 0.79156 0.20526 0.0
H1442 H 0.66989 0.80798 0.17562 0.0
H1443 H 0.65913 0.76235 0.20026 0.0
H1444 H 0.69765 0.80678 0.23335 0.0
H1445 H 0.72236 0.82952 0.23613 0.0
H1446 H 0.74367 0.8036 0.23046 0.0
H1447 H 0.71907 0.78071 0.22735 0.0
C1448 C 0.6539 0.72786 0.28688 0.0
C1449 C 0.66295 0.72171 0.29096 0.0
C1450 C 0.65748 0.7381 0.27082 0.0
C1451 C 0.67011 0.74237 0.25827 0.0
C1452 C 0.67913 0.73619 0.26212 0.0
C1453 C 0.67555 0.7259 0.27827 0.0
C1454 C 0.67399 0.75359 0.24157 0.0
C1455 C 0.68805 0.76664 0.24211 0.0
C1456 C 0.66348 0.75199 0.22617 0.0
C1457 C 0.64886 0.73806 0.22376 0.0
C1458 C 0.64817 0.72433 0.22135 0.0
C1459 C 0.63438 0.71124 0.21915 0.0
C1460 C 0.6212 0.71174 0.21919 0.0
C1461 C 0.62178 0.72534 0.2214 0.0
C1462 C 0.63555 0.73846 0.22362 0.0
C1463 C 0.69825 0.80137 0.16573 0.0
C1464 C 0.68879 0.80716 0.16304 0.0
C1465 C 0.69616 0.79201 0.18252 0.0
C1466 C 0.68448 0.78821 0.19679 0.0
C1467 C 0.67531 0.79441 0.19447 0.0
C1468 C 0.67749 0.80387 0.17772 0.0
C1469 C 0.68106 0.7768 0.21298 0.0
C1470 C 0.6671 0.76368 0.21226 0.0
C1471 C 0.69171 0.77829 0.22804 0.0
C1472 C 0.70651 0.79204 0.2299 0.0
C1473 C 0.7076 0.80594 0.2325 0.0
C1474 C 0.72159 0.81885 0.23418 0.0
C1475 C 0.73458 0.81801 0.23342 0.0
C1476 C 0.7336 0.80424 0.23102 0.0
C1477 C 0.71964 0.79129 0.22932 0.0
H1478 H 0.7454 0.82803 0.23473 0.0
H1479 H 0.61053 0.70159 0.21748 0.0
H1480 H 0.26692 0.95908 0.28515 0.0
H1481 H 0.24981 0.94184 0.25847 0.0
H1482 H 0.27229 0.91675 0.26101 0.0
H1483 H 0.28917 0.93368 0.28807 0.0
H1484 H 0.26641 0.92468 0.21865 0.0
H1485 H 0.24274 0.90168 0.28394 0.0
H1486 H 0.23271 0.90135 0.31913 0.0
H1487 H 0.20132 0.91191 0.29262 0.0
H1488 H 0.21134 0.91253 0.25728 0.0
H1489 H 0.20426 0.8541 0.17377 0.0
H1490 H 0.21935 0.86898 0.20349 0.0
H1491 H 0.21649 0.90636 0.1817 0.0
H1492 H 0.20048 0.89135 0.15279 0.0
H1493 H 0.21268 0.89102 0.23443 0.0
H1494 H 0.259 0.9315 0.18024 0.0
H1495 H 0.27046 0.93248 0.14592 0.0
H1496 H 0.25723 0.88646 0.15108 0.0
H1497 H 0.24606 0.88533 0.18565 0.0
C1498 C 0.26826 0.94995 0.27991 0.0
C1499 C 0.27935 0.9477 0.28865 0.0
C1500 C 0.25847 0.9401 0.26477 0.0
C1501 C 0.25979 0.92803 0.25791 0.0
C1502 C 0.27111 0.926 0.26617 0.0
C1503 C 0.2807 0.93566 0.28161 0.0
C1504 C 0.24929 0.91744 0.24219 0.0
C1505 C 0.25468 0.91729 0.2221 0.0
C1506 C 0.23402 0.9078 0.24681 0.0
C1507 C 0.22789 0.90731 0.268 0.0
C1508 C 0.23379 0.90407 0.28564 0.0
C1509 C 0.2281 0.9038 0.3056 0.0
C1510 C 0.21642 0.90665 0.30812 0.0
C1511 C 0.21038 0.90973 0.29065 0.0
C1512 C 0.21606 0.91003 0.27065 0.0
C1513 C 0.20636 0.8653 0.17559 0.0
C1514 C 0.2012 0.8715 0.16062 0.0
C1515 C 0.21513 0.87383 0.19251 0.0
C1516 C 0.21918 0.88878 0.19449 0.0
C1517 C 0.21359 0.89486 0.18022 0.0
C1518 C 0.20452 0.88626 0.16362 0.0
C1519 C 0.22982 0.8983 0.21088 0.0
C1520 C 0.22443 0.89836 0.23103 0.0
C1521 C 0.24512 0.90784 0.20635 0.0
C1522 C 0.25145 0.90827 0.18535 0.0
C1523 C 0.25854 0.92159 0.17403 0.0
C1524 C 0.26507 0.9222 0.1546 0.0
C1525 C 0.26459 0.90954 0.14633 0.0
C1526 C 0.25756 0.89625 0.15748 0.0
C1527 C 0.25109 0.89561 0.17697 0.0
H1528 H 0.2696 0.91002 0.13125 0.0
H1529 H 0.21202 0.90644 0.32359 0.0
H1530 H 0.68151 0.95149 0.29222 0.0
H1531 H 0.68818 0.93858 0.26614 0.0
H1532 H 0.64231 0.90276 0.26395 0.0
H1533 H 0.63579 0.91527 0.29082 0.0
H1534 H 0.65882 0.89134 0.26487 0.0
H1535 H 0.65988 0.9302 0.22391 0.0
H1536 H 0.66739 0.95595 0.21474 0.0
H1537 H 0.71325 0.96727 0.21135 0.0
H1538 H 0.70603 0.94163 0.22076 0.0
H1539 H 0.65949 0.86232 0.16259 0.0
H1540 H 0.65553 0.87341 0.19419 0.0
H1541 H 0.70311 0.89894 0.20442 0.0
H1542 H 0.70706 0.88756 0.17305 0.0
H1543 H 0.68775 0.91566 0.20074 0.0
H1544 H 0.68495 0.87488 0.23862 0.0
H1545 H 0.6759 0.8485 0.24568 0.0
H1546 H 0.63115 0.84011 0.25226 0.0
H1547 H 0.63989 0.86642 0.24492 0.0
C1548 C 0.67283 0.94094 0.28598 0.0
C1549 C 0.65812 0.93441 0.29349 0.0
C1550 C 0.67664 0.93357 0.27103 0.0
C1551 C 0.66572 0.91973 0.26285 0.0
C1552 C 0.65096 0.91337 0.27006 0.0
C1553 C 0.64722 0.92057 0.28533 0.0
C1554 C 0.66968 0.91166 0.24717 0.0
C1555 C 0.665 0.89666 0.25075 0.0
C1556 C 0.67806 0.91861 0.22892 0.0
C1557 C 0.68243 0.93404 0.22327 0.0
C1558 C 0.67158 0.93821 0.22137 0.0
C1559 C 0.67578 0.95278 0.2161 0.0
C1560 C 0.69079 0.96325 0.21253 0.0
C1561 C 0.70163 0.95916 0.21416 0.0
C1562 C 0.69749 0.94461 0.21945 0.0
C1563 C 0.66902 0.86991 0.17204 0.0
C1564 C 0.68354 0.87401 0.16566 0.0
C1565 C 0.66678 0.87627 0.18998 0.0
C1566 C 0.67904 0.88699 0.20156 0.0
C1567 C 0.69353 0.89064 0.19569 0.0
C1568 C 0.69576 0.88407 0.17794 0.0
C1569 C 0.67672 0.89542 0.21841 0.0
C1570 C 0.68168 0.91046 0.21499 0.0
C1571 C 0.66835 0.88843 0.23655 0.0
C1572 C 0.66307 0.87261 0.24104 0.0
C1573 C 0.67316 0.86739 0.24139 0.0
C1574 C 0.66809 0.85245 0.24548 0.0
C1575 C 0.65296 0.84263 0.24937 0.0
C1576 C 0.64287 0.84773 0.24923 0.0
C1577 C 0.64788 0.86266 0.24513 0.0
H1578 H 0.64906 0.83107 0.25254 0.0
H1579 H 0.69402 0.97452 0.20844 0.0
H1580 H 0.03412 0.73244 0.28151 0.0
H1581 H 0.0501 0.75243 0.2575 0.0
H1582 H 0.08597 0.74384 0.26841 0.0
H1583 H 0.07014 0.72398 0.29263 0.0
H1584 H 0.09585 0.77338 0.26963 0.0
H1585 H 0.06519 0.73172 0.22396 0.0
H1586 H 0.04145 0.71149 0.20962 0.0
H1587 H 0.02864 0.74305 0.19205 0.0
H1588 H 0.05224 0.76346 0.20653 0.0
H1589 H 0.14133 0.80023 0.17949 0.0
H1590 H 0.12626 0.78884 0.21056 0.0
H1591 H 0.09433 0.80085 0.18983 0.0
H1592 H 0.10939 0.81218 0.15846 0.0
H1593 H 0.08123 0.77215 0.19543 0.0
H1594 H 0.11385 0.81436 0.23666 0.0
H1595 H 0.13786 0.83446 0.25045 0.0
H1596 H 0.14738 0.80229 0.27606 0.0
H1597 H 0.12353 0.78198 0.26218 0.0
C1598 C 0.04538 0.73475 0.2787 0.0
C1599 C 0.05085 0.7266 0.2889 0.0
C1600 C 0.0545 0.74619 0.265 0.0
C1601 C 0.06921 0.74959 0.26113 0.0
C1602 C 0.07468 0.74144 0.27126 0.0
C1603 C 0.06558 0.73003 0.28497 0.0
C1604 C 0.07888 0.76149 0.24629 0.0
C1605 C 0.09274 0.77311 0.25336 0.0
C1606 C 0.07457 0.76135 0.22526 0.0
C1607 C 0.06039 0.74909 0.21655 0.0
C1608 C 0.05725 0.73433 0.2172 0.0
C1609 C 0.04384 0.72283 0.20901 0.0
C1610 C 0.03352 0.72598 0.19999 0.0
C1611 C 0.03663 0.74063 0.19908 0.0
C1612 C 0.05002 0.75217 0.20726 0.0
C1613 C 0.13144 0.80103 0.18198 0.0
C1614 C 0.12648 0.80701 0.16649 0.0
C1615 C 0.12279 0.79447 0.19977 0.0
C1616 C 0.10911 0.79393 0.20253 0.0
C1617 C 0.1048 0.80107 0.18798 0.0
C1618 C 0.11342 0.80757 0.17011 0.0
C1619 C 0.09841 0.78403 0.21861 0.0
C1620 C 0.08432 0.77269 0.21178 0.0
C1621 C 0.10254 0.78444 0.23982 0.0
C1622 C 0.11692 0.79663 0.24825 0.0
C1623 C 0.12111 0.81156 0.2451 0.0
C1624 C 0.13469 0.823 0.25296 0.0
C1625 C 0.14415 0.81965 0.2641 0.0
C1626 C 0.14004 0.80486 0.26743 0.0
C1627 C 0.12648 0.79338 0.25959 0.0
H1628 H 0.15466 0.82852 0.27017 0.0
H1629 H 0.02315 0.71706 0.19366 0.0
H1630 H 0.27818 0.31321 0.28102 0.0
H1631 H 0.25888 0.30591 0.25407 0.0
H1632 H 0.25074 0.34046 0.27528 0.0
H1633 H 0.26984 0.34777 0.30217 0.0
H1634 H 0.22481 0.31429 0.26973 0.0
H1635 H 0.27026 0.34457 0.23103 0.0
H1636 H 0.29533 0.35186 0.21762 0.0
H1637 H 0.27765 0.30951 0.18688 0.0
H1638 H 0.2525 0.3019 0.20036 0.0
H1639 H 0.18789 0.3244 0.18291 0.0
H1640 H 0.20306 0.32529 0.21288 0.0
H1641 H 0.20944 0.29152 0.18364 0.0
H1642 H 0.19453 0.29091 0.15355 0.0
H1643 H 0.23527 0.31451 0.19384 0.0
H1644 H 0.18929 0.28495 0.22972 0.0
H1645 H 0.16416 0.27772 0.24278 0.0
H1646 H 0.18241 0.31816 0.27864 0.0
H1647 H 0.20763 0.32575 0.26557 0.0
C1648 C 0.27236 0.31933 0.27984 0.0
C1649 C 0.27561 0.3311 0.29377 0.0
C1650 C 0.26133 0.31513 0.26444 0.0
C1651 C 0.25336 0.32264 0.26267 0.0
C1652 C 0.25667 0.33445 0.27643 0.0
C1653 C 0.26769 0.33867 0.29173 0.0
C1654 C 0.24154 0.31828 0.24657 0.0
C1655 C 0.22709 0.31443 0.25311 0.0
C1656 C 0.24442 0.31806 0.22495 0.0
C1657 C 0.25954 0.3226 0.21692 0.0
C1658 C 0.27175 0.33676 0.22158 0.0
C1659 C 0.28596 0.34096 0.21393 0.0
C1660 C 0.28809 0.33114 0.20146 0.0
C1661 C 0.276 0.3171 0.19658 0.0
C1662 C 0.26176 0.31284 0.20421 0.0
C1663 C 0.19211 0.31682 0.18334 0.0
C1664 C 0.18994 0.30744 0.16622 0.0
C1665 C 0.2008 0.31734 0.2004 0.0
C1666 C 0.20738 0.30843 0.20057 0.0
C1667 C 0.2045 0.29849 0.18388 0.0
C1668 C 0.19589 0.29804 0.16682 0.0
C1669 C 0.2185 0.31063 0.21693 0.0
C1670 C 0.23286 0.31413 0.21045 0.0
C1671 C 0.21551 0.3105 0.2386 0.0
C1672 C 0.20035 0.30598 0.24651 0.0
C1673 C 0.18794 0.29237 0.24026 0.0
C1674 C 0.17368 0.28819 0.24769 0.0
C1675 C 0.17169 0.29749 0.26149 0.0
C1676 C 0.18397 0.31097 0.26793 0.0
C1677 C 0.19825 0.31521 0.26054 0.0
H1678 H 0.16064 0.29423 0.26723 0.0
H1679 H 0.2991 0.33441 0.19554 0.0
H1680 H 0.25826 0.31414 0.37775 0.0
H1681 H 0.24186 0.31762 0.40189 0.0
H1682 H 0.27992 0.34718 0.43982 0.0
H1683 H 0.29646 0.34407 0.41547 0.0
H1684 H 0.25299 0.32261 0.46134 0.0
H1685 H 0.2685 0.36306 0.41184 0.0
H1686 H 0.2712 0.37305 0.3762 0.0
H1687 H 0.2237 0.34718 0.36743 0.0
H1688 H 0.22075 0.33684 0.40293 0.0
H1689 H 0.22943 0.35389 0.53315 0.0
H1690 H 0.24302 0.35246 0.50394 0.0
H1691 H 0.20406 0.33591 0.46471 0.0
H1692 H 0.19039 0.33901 0.49355 0.0
H1693 H 0.22871 0.35127 0.44172 0.0
H1694 H 0.212 0.31175 0.49023 0.0
H1695 H 0.2079 0.30023 0.52503 0.0
H1696 H 0.25527 0.32133 0.53438 0.0
H1697 H 0.25966 0.33317 0.49976 0.0
C1698 C 0.26312 0.32131 0.3913 0.0
C1699 C 0.27863 0.32883 0.39478 0.0
C1700 C 0.25376 0.32334 0.40498 0.0
C1701 C 0.25973 0.33272 0.42249 0.0
C1702 C 0.27515 0.33993 0.42631 0.0
C1703 C 0.28455 0.33814 0.41242 0.0
C1704 C 0.24993 0.33494 0.43704 0.0
C1705 C 0.24778 0.32897 0.45716 0.0
C1706 C 0.24265 0.34271 0.43116 0.0
C1707 C 0.24442 0.34904 0.40993 0.0
C1708 C 0.25865 0.35939 0.40224 0.0
C1709 C 0.26022 0.36514 0.38208 0.0
C1710 C 0.24764 0.36071 0.36953 0.0
C1711 C 0.23345 0.35057 0.37715 0.0
C1712 C 0.23181 0.34477 0.39729 0.0
C1713 C 0.22358 0.35056 0.51837 0.0
C1714 C 0.20836 0.34625 0.51642 0.0
C1715 C 0.23151 0.34947 0.50155 0.0
C1716 C 0.22439 0.3434 0.48242 0.0
C1717 C 0.20969 0.34028 0.47956 0.0
C1718 C 0.2018 0.34186 0.49631 0.0
C1719 C 0.23211 0.33932 0.46637 0.0
C1720 C 0.2338 0.34481 0.44593 0.0
C1721 C 0.23873 0.33079 0.47177 0.0
C1722 C 0.23615 0.32342 0.49243 0.0
C1723 C 0.22154 0.31398 0.49974 0.0
C1724 C 0.21917 0.3074 0.51944 0.0
C1725 C 0.23132 0.31007 0.53192 0.0
C1726 C 0.24587 0.31928 0.52469 0.0
C1727 C 0.24831 0.32592 0.50502 0.0
H1728 H 0.22945 0.30498 0.54718 0.0
H1729 H 0.24888 0.36517 0.35392 0.0
H1730 H 0.64361 0.94191 0.4124 0.0
H1731 H 0.64376 0.92596 0.44022 0.0
H1732 H 0.68197 0.927 0.41172 0.0
H1733 H 0.68216 0.94322 0.38431 0.0
H1734 H 0.64055 0.89906 0.44112 0.0
H1735 H 0.70479 0.92703 0.44886 0.0
H1736 H 0.72732 0.9516 0.44371 0.0
H1737 H 0.70162 0.97276 0.45432 0.0
H1738 H 0.679 0.94834 0.45981 0.0
H1739 H 0.65835 0.85563 0.50969 0.0
H1740 H 0.65683 0.86914 0.47929 0.0
H1741 H 0.67261 0.90852 0.51763 0.0
H1742 H 0.67486 0.8955 0.54734 0.0
H1743 H 0.68676 0.91563 0.48251 0.0
H1744 H 0.63543 0.88646 0.50366 0.0
H1745 H 0.61194 0.86342 0.5119 0.0
H1746 H 0.61011 0.84732 0.44921 0.0
H1747 H 0.63372 0.87019 0.44069 0.0
C1748 C 0.65207 0.93877 0.41213 0.0
C1749 C 0.66296 0.94395 0.3963 0.0
C1750 C 0.65208 0.92958 0.42795 0.0
C1751 C 0.66296 0.9254 0.42817 0.0
C1752 C 0.67362 0.93028 0.41208 0.0
C1753 C 0.67371 0.93956 0.39642 0.0
C1754 C 0.66348 0.91632 0.44555 0.0
C1755 C 0.65066 0.90266 0.45015 0.0
C1756 C 0.6766 0.92109 0.45753 0.0
C1757 C 0.69018 0.93585 0.45451 0.0
C1758 C 0.70397 0.93693 0.45016 0.0
C1759 C 0.71675 0.95083 0.44717 0.0
C1760 C 0.71589 0.96373 0.44861 0.0
C1761 C 0.70226 0.96276 0.45313 0.0
C1762 C 0.68945 0.94889 0.45616 0.0
C1763 C 0.6615 0.86717 0.51154 0.0
C1764 C 0.66644 0.87439 0.53104 0.0
C1765 C 0.66053 0.87484 0.49424 0.0
C1766 C 0.66448 0.88982 0.49623 0.0
C1767 C 0.66947 0.89699 0.51567 0.0
C1768 C 0.67055 0.88942 0.53277 0.0
C1769 C 0.66382 0.89836 0.4782 0.0
C1770 C 0.67667 0.91194 0.47339 0.0
C1771 C 0.6506 0.89371 0.46652 0.0
C1772 C 0.63642 0.87995 0.47161 0.0
C1773 C 0.63009 0.87795 0.49169 0.0
C1774 C 0.61674 0.86493 0.4964 0.0
C1775 C 0.60956 0.85389 0.48111 0.0
C1776 C 0.6157 0.85587 0.46105 0.0
C1777 C 0.62906 0.86886 0.45627 0.0
H1778 H 0.59922 0.84382 0.48478 0.0
H1779 H 0.72579 0.97448 0.44626 0.0
H1780 H 0.05532 0.70886 0.40172 0.0
H1781 H 0.07488 0.71938 0.42855 0.0
H1782 H 0.08555 0.76354 0.41147 0.0
H1783 H 0.06615 0.7532 0.38464 0.0
H1784 H 0.11069 0.76155 0.41613 0.0
H1785 H 0.06555 0.74788 0.45459 0.0
H1786 H 0.03987 0.73083 0.46675 0.0
H1787 H 0.05405 0.70263 0.49423 0.0
H1788 H 0.07979 0.71942 0.48197 0.0
H1789 H 0.15002 0.80328 0.50739 0.0
H1790 H 0.13454 0.79148 0.47626 0.0
H1791 H 0.12293 0.74836 0.50004 0.0
H1792 H 0.13802 0.76016 0.53133 0.0
H1793 H 0.09882 0.74875 0.49109 0.0
H1794 H 0.14447 0.76327 0.4549 0.0
H1795 H 0.17017 0.78035 0.44292 0.0
H1796 H 0.15546 0.80678 0.41132 0.0
H1797 H 0.12969 0.78998 0.42335 0.0
C1798 C 0.06178 0.7208 0.40373 0.0
C1799 C 0.0591 0.73017 0.39106 0.0
C1800 C 0.07296 0.72679 0.41906 0.0
C1801 C 0.08164 0.74224 0.42202 0.0
C1802 C 0.07902 0.75159 0.40939 0.0
C1803 C 0.06784 0.74563 0.39414 0.0
C1804 C 0.09335 0.74872 0.43845 0.0
C1805 C 0.10812 0.75887 0.43256 0.0
C1806 C 0.09002 0.74492 0.45978 0.0
C1807 C 0.07455 0.73481 0.46715 0.0
C1808 C 0.06316 0.73797 0.46306 0.0
C1809 C 0.04861 0.72837 0.47 0.0
C1810 C 0.04532 0.71563 0.4812 0.0
C1811 C 0.0566 0.71249 0.48552 0.0
C1812 C 0.07118 0.72205 0.47859 0.0
C1813 C 0.1445 0.79133 0.50557 0.0
C1814 C 0.14514 0.78258 0.52163 0.0
C1815 C 0.13566 0.78457 0.48782 0.0
C1816 C 0.12754 0.769 0.4858 0.0
C1817 C 0.12901 0.76037 0.50129 0.0
C1818 C 0.13769 0.7671 0.51907 0.0
C1819 C 0.11628 0.76164 0.46886 0.0
C1820 C 0.10152 0.75135 0.47466 0.0
C1821 C 0.11967 0.7653 0.44747 0.0
C1822 C 0.13516 0.77543 0.44019 0.0
C1823 C 0.14673 0.77279 0.44554 0.0
C1824 C 0.16131 0.78241 0.43871 0.0
C1825 C 0.16446 0.79466 0.42641 0.0
C1826 C 0.15301 0.7973 0.42087 0.0
C1827 C 0.13841 0.78772 0.42766 0.0
H1828 H 0.17575 0.80209 0.42114 0.0
H1829 H 0.03405 0.70822 0.48657 0.0
H1830 H 0.3122 0.0413 0.74045 0.0
H1831 H 0.31044 0.05912 0.76373 0.0
H1832 H 0.3578 0.08935 0.7574 0.0
H1833 H 0.35964 0.07167 0.73403 0.0
H1834 H 0.34755 0.08621 0.79883 0.0
H1835 H 0.33496 0.09567 0.73026 0.0
H1836 H 0.32083 0.08866 0.69709 0.0
H1837 H 0.28007 0.07441 0.73099 0.0
H1838 H 0.29394 0.08112 0.76442 0.0
H1839 H 0.35398 0.15027 0.84221 0.0
H1840 H 0.35376 0.13479 0.81308 0.0
H1841 H 0.30674 0.10452 0.8227 0.0
H1842 H 0.30691 0.11997 0.85194 0.0
H1843 H 0.31619 0.10763 0.77922 0.0
H1844 H 0.32749 0.09659 0.84712 0.0
H1845 H 0.3406 0.10276 0.88109 0.0
H1846 H 0.38245 0.11855 0.84942 0.0
H1847 H 0.3696 0.11273 0.81521 0.0
C1848 C 0.32226 0.05169 0.74416 0.0
C1849 C 0.33606 0.05511 0.73538 0.0
C1850 C 0.32122 0.06188 0.75735 0.0
C1851 C 0.33397 0.07561 0.76209 0.0
C1852 C 0.34782 0.07884 0.75387 0.0
C1853 C 0.34885 0.06873 0.74052 0.0
C1854 C 0.33288 0.08668 0.77548 0.0
C1855 C 0.34086 0.09104 0.79439 0.0
C1856 C 0.32381 0.09266 0.76994 0.0
C1857 C 0.31547 0.08876 0.74985 0.0
C1858 C 0.32297 0.09093 0.73066 0.0
C1859 C 0.31501 0.08703 0.7118 0.0
C1860 C 0.29956 0.08106 0.71193 0.0
C1861 C 0.29204 0.07901 0.73092 0.0
C1862 C 0.29995 0.08287 0.74982 0.0
C1863 C 0.34347 0.14068 0.83754 0.0
C1864 C 0.33048 0.13626 0.84936 0.0
C1865 C 0.34338 0.13178 0.821 0.0
C1866 C 0.33029 0.11842 0.816 0.0
C1867 C 0.31695 0.11479 0.82636 0.0
C1868 C 0.31707 0.12361 0.84303 0.0
C1869 C 0.33103 0.10728 0.80235 0.0
C1870 C 0.32294 0.10285 0.78354 0.0
C1871 C 0.33985 0.10106 0.80806 0.0
C1872 C 0.34761 0.10439 0.8286 0.0
C1873 C 0.33951 0.10151 0.84739 0.0
C1874 C 0.34689 0.10492 0.86669 0.0
C1875 C 0.36236 0.11108 0.86741 0.0
C1876 C 0.37047 0.1138 0.84883 0.0
C1877 C 0.36314 0.11045 0.82948 0.0
H1878 H 0.36806 0.11371 0.88237 0.0
H1879 H 0.29341 0.07804 0.69732 0.0
H1880 H 0.95797 0.27931 0.73457 0.0
H1881 H 0.946 0.26026 0.76153 0.0
H1882 H 0.90293 0.24591 0.73375 0.0
H1883 H 0.91469 0.26508 0.70728 0.0
H1884 H 0.90079 0.24707 0.77403 0.0
H1885 H 0.92162 0.2261 0.72754 0.0
H1886 H 0.94142 0.22544 0.70702 0.0
H1887 H 0.96586 0.23024 0.76352 0.0
H1888 H 0.9463 0.23114 0.78436 0.0
H1889 H 0.86189 0.18202 0.83535 0.0
H1890 H 0.87296 0.19665 0.80343 0.0
H1891 H 0.91664 0.21695 0.83187 0.0
H1892 H 0.90566 0.20241 0.86356 0.0
H1893 H 0.91742 0.21125 0.78961 0.0
H1894 H 0.89724 0.23398 0.83533 0.0
H1895 H 0.87724 0.23435 0.85574 0.0
H1896 H 0.85126 0.22579 0.7997 0.0
H1897 H 0.87102 0.22513 0.779 0.0
C1898 C 0.94595 0.27212 0.73425 0.0
C1899 C 0.93731 0.27376 0.71875 0.0
C1900 C 0.93912 0.26116 0.74958 0.0
C1901 C 0.92356 0.25148 0.74951 0.0
C1902 C 0.91494 0.25321 0.73416 0.0
C1903 C 0.92172 0.26421 0.719 0.0
C1904 C 0.91613 0.23972 0.76561 0.0
C1905 C 0.90429 0.23909 0.77714 0.0
C1906 C 0.9208 0.22942 0.76997 0.0
C1907 C 0.93256 0.22882 0.75749 0.0
C1908 C 0.93127 0.22713 0.73558 0.0
C1909 C 0.94244 0.22669 0.72389 0.0
C1910 C 0.95491 0.22783 0.73395 0.0
C1911 C 0.95621 0.22938 0.75574 0.0
C1912 C 0.94507 0.22983 0.7675 0.0
C1913 C 0.87388 0.18935 0.83449 0.0
C1914 C 0.88294 0.19124 0.85187 0.0
C1915 C 0.88018 0.19774 0.81637 0.0
C1916 C 0.8956 0.20802 0.81542 0.0
C1917 C 0.90473 0.20911 0.83227 0.0
C1918 C 0.89845 0.20086 0.85037 0.0
C1919 C 0.90215 0.21866 0.79787 0.0
C1920 C 0.91385 0.21913 0.78621 0.0
C1921 C 0.89733 0.22879 0.79328 0.0
C1922 C 0.88552 0.22934 0.80567 0.0
C1923 C 0.88721 0.23206 0.82739 0.0
C1924 C 0.87593 0.23234 0.83901 0.0
C1925 C 0.86297 0.23005 0.82903 0.0
C1926 C 0.86129 0.22753 0.80741 0.0
C1927 C 0.87253 0.2272 0.79573 0.0
H1928 H 0.85425 0.23028 0.83805 0.0
H1929 H 0.96355 0.22749 0.72488 0.0
H1930 H 0.74277 0.66972 0.68676 0.0
H1931 H 0.76046 0.67358 0.71467 0.0
H1932 H 0.72902 0.67179 0.76068 0.0
H1933 H 0.71183 0.6691 0.73253 0.0
H1934 H 0.75472 0.69028 0.77386 0.0
H1935 H 0.73377 0.64062 0.7461 0.0
H1936 H 0.72748 0.62182 0.71827 0.0
H1937 H 0.77405 0.64037 0.70445 0.0
H1938 H 0.7806 0.65938 0.73207 0.0
H1939 H 0.77023 0.65973 0.86057 0.0
H1940 H 0.75972 0.66328 0.82871 0.0
H1941 H 0.80142 0.67784 0.79663 0.0
H1942 H 0.8123 0.67473 0.8291 0.0
H1943 H 0.77447 0.65587 0.77465 0.0
H1944 H 0.79405 0.70343 0.80889 0.0
H1945 H 0.79785 0.71953 0.83951 0.0
H1946 H 0.75054 0.70164 0.84412 0.0
H1947 H 0.74643 0.68528 0.81371 0.0
C1948 C 0.73977 0.67035 0.70285 0.0
C1949 C 0.72593 0.66899 0.7076 0.0
C1950 C 0.74982 0.67244 0.71881 0.0
C1951 C 0.74594 0.67252 0.73991 0.0
C1952 C 0.7323 0.67171 0.74457 0.0
C1953 C 0.72245 0.67013 0.72852 0.0
C1954 C 0.75573 0.6728 0.75713 0.0
C1955 C 0.75895 0.68269 0.774 0.0
C1956 C 0.76155 0.66309 0.75731 0.0
C1957 C 0.75766 0.65151 0.74098 0.0
C1958 C 0.74266 0.64072 0.73706 0.0
C1959 C 0.73905 0.63003 0.72133 0.0
C1960 C 0.75036 0.62994 0.70955 0.0
C1961 C 0.7653 0.64048 0.71356 0.0
C1962 C 0.76897 0.6512 0.72926 0.0
C1963 C 0.77731 0.66399 0.84692 0.0
C1964 C 0.79223 0.66733 0.84756 0.0
C1965 C 0.77124 0.6659 0.82866 0.0
C1966 C 0.77988 0.67106 0.81046 0.0
C1967 C 0.79464 0.67396 0.81065 0.0
C1968 C 0.80081 0.67216 0.82913 0.0
C1969 C 0.77313 0.67312 0.79133 0.0
C1970 C 0.77045 0.66364 0.77418 0.0
C1971 C 0.76746 0.68289 0.79117 0.0
C1972 C 0.76994 0.69309 0.80904 0.0
C1973 C 0.78445 0.7029 0.81647 0.0
C1974 C 0.78666 0.71207 0.83379 0.0
C1975 C 0.77444 0.7116 0.84376 0.0
C1976 C 0.75999 0.70201 0.83636 0.0
C1977 C 0.75772 0.6928 0.81906 0.0
H1978 H 0.77617 0.71867 0.85722 0.0
H1979 H 0.74754 0.62168 0.69735 0.0
H1980 H 0.70324 0.64826 0.60587 0.0
H1981 H 0.72088 0.64595 0.58299 0.0
H1982 H 0.74989 0.69351 0.58392 0.0
H1983 H 0.73241 0.69594 0.60723 0.0
H1984 H 0.74451 0.6786 0.54273 0.0
H1985 H 0.75971 0.67647 0.61328 0.0
H1986 H 0.75543 0.66702 0.64942 0.0
H1987 H 0.74155 0.62322 0.62621 0.0
H1988 H 0.74548 0.63235 0.58987 0.0
H1989 H 0.80478 0.67971 0.49379 0.0
H1990 H 0.79185 0.68436 0.52231 0.0
H1991 H 0.76516 0.63725 0.5334 0.0
H1992 H 0.77833 0.63261 0.50515 0.0
H1993 H 0.77017 0.65287 0.5696 0.0
H1994 H 0.75347 0.65365 0.49997 0.0
H1995 H 0.75607 0.66171 0.46321 0.0
H1996 H 0.77055 0.70624 0.48366 0.0
H1997 H 0.76837 0.69853 0.52056 0.0
C1998 C 0.71329 0.65825 0.60104 0.0
C1999 C 0.71649 0.67229 0.60841 0.0
C2000 C 0.72337 0.6569 0.58806 0.0
C2001 C 0.73671 0.66955 0.58201 0.0
C2002 C 0.73965 0.68363 0.58854 0.0
C2003 C 0.72967 0.68499 0.60182 0.0
C2004 C 0.74774 0.66798 0.56927 0.0
C2005 C 0.75034 0.67322 0.54867 0.0
C2006 C 0.75494 0.66056 0.57697 0.0
C2007 C 0.75275 0.65507 0.59883 0.0
C2008 C 0.75562 0.66479 0.61586 0.0
C2009 C 0.75327 0.6595 0.63639 0.0
C2010 C 0.74819 0.64452 0.64012 0.0
C2011 C 0.74547 0.63481 0.62331 0.0
C2012 C 0.74777 0.64005 0.60274 0.0
C2013 C 0.79653 0.67042 0.50285 0.0
C2014 C 0.79245 0.65581 0.49727 0.0
C2015 C 0.78909 0.67306 0.51901 0.0
C2016 C 0.77727 0.66112 0.52956 0.0
C2017 C 0.77418 0.64662 0.52536 0.0
C2018 C 0.78175 0.64397 0.5093 0.0
C2019 C 0.76707 0.6636 0.54301 0.0
C2020 C 0.7645 0.65842 0.56369 0.0
C2021 C 0.7597 0.6709 0.53528 0.0
C2022 C 0.76094 0.67555 0.51306 0.0
C2023 C 0.75734 0.66519 0.49664 0.0
C2024 C 0.75873 0.6697 0.47577 0.0
C2025 C 0.76352 0.68449 0.47111 0.0
C2026 C 0.76688 0.6948 0.4873 0.0
C2027 C 0.76559 0.69037 0.5082 0.0
H2028 H 0.76459 0.68796 0.45497 0.0
H2029 H 0.74639 0.64045 0.65603 0.0
H2030 H 0.35576 0.06061 0.62619 0.0
H2031 H 0.36295 0.0799 0.59956 0.0
H2032 H 0.32274 0.08105 0.61203 0.0
H2033 H 0.31541 0.06182 0.63824 0.0
H2034 H 0.32759 0.08134 0.57078 0.0
H2035 H 0.35659 0.10735 0.63232 0.0
H2036 H 0.37465 0.11234 0.66068 0.0
H2037 H 0.40861 0.12096 0.61521 0.0
H2038 H 0.39068 0.11583 0.58657 0.0
H2039 H 0.34012 0.14574 0.52307 0.0
H2040 H 0.33824 0.13042 0.55315 0.0
H2041 H 0.378 0.13073 0.53272 0.0
H2042 H 0.37993 0.14617 0.50276 0.0
H2043 H 0.37494 0.1297 0.57684 0.0
H2044 H 0.34671 0.10414 0.51551 0.0
H2045 H 0.32918 0.09951 0.48655 0.0
H2046 H 0.29423 0.08967 0.53084 0.0
H2047 H 0.31164 0.09448 0.5601 0.0
C2048 C 0.3484 0.06489 0.62312 0.0
C2049 C 0.33503 0.05968 0.63443 0.0
C2050 C 0.35257 0.07598 0.608 0.0
C2051 C 0.34346 0.08204 0.60398 0.0
C2052 C 0.32996 0.07657 0.61487 0.0
C2053 C 0.32581 0.06556 0.62992 0.0
C2054 C 0.34784 0.09415 0.58858 0.0
C2055 C 0.33788 0.09194 0.57226 0.0
C2056 C 0.36146 0.10787 0.59012 0.0
C2057 C 0.37226 0.11105 0.60732 0.0
C2058 C 0.36788 0.1102 0.62838 0.0
C2059 C 0.3781 0.11307 0.6445 0.0
C2060 C 0.39276 0.11692 0.63975 0.0
C2061 C 0.39724 0.11795 0.61886 0.0
C2062 C 0.38706 0.11508 0.60268 0.0
C2063 C 0.34882 0.1431 0.52563 0.0
C2064 C 0.36025 0.14721 0.51089 0.0
C2065 C 0.34768 0.13427 0.54266 0.0
C2066 C 0.35785 0.12925 0.54494 0.0
C2067 C 0.37006 0.13449 0.53126 0.0
C2068 C 0.3712 0.14335 0.51424 0.0
C2069 C 0.3545 0.11695 0.55949 0.0
C2070 C 0.36467 0.11907 0.57544 0.0
C2071 C 0.34112 0.10307 0.55755 0.0
C2072 C 0.33051 0.09979 0.54 0.0
C2073 C 0.33531 0.10106 0.51908 0.0
C2074 C 0.3254 0.09841 0.50261 0.0
C2075 C 0.31062 0.09434 0.50686 0.0
C2076 C 0.3057 0.09285 0.52758 0.0
C2077 C 0.31557 0.09552 0.54412 0.0
H2078 H 0.30297 0.09231 0.49408 0.0
H2079 H 0.40065 0.11914 0.65225 0.0
H2080 H 0.95325 0.26355 0.62158 0.0
H2081 H 0.93588 0.24648 0.59524 0.0
H2082 H 0.92109 0.27742 0.58217 0.0
H2083 H 0.93847 0.29459 0.6086 0.0
H2084 H 0.89758 0.24863 0.587 0.0
H2085 H 0.94322 0.27395 0.54815 0.0
H2086 H 0.96992 0.2836 0.54109 0.0
H2087 H 0.96243 0.23924 0.54184 0.0
H2088 H 0.93571 0.22934 0.54921 0.0
H2089 H 0.86182 0.21787 0.48861 0.0
H2090 H 0.87649 0.23305 0.51848 0.0
H2091 H 0.89139 0.20208 0.53059 0.0
H2092 H 0.87689 0.18695 0.50056 0.0
H2093 H 0.91452 0.23059 0.52681 0.0
H2094 H 0.86857 0.20515 0.56463 0.0
H2095 H 0.84186 0.19562 0.57138 0.0
H2096 H 0.84979 0.24015 0.57222 0.0
H2097 H 0.87653 0.24995 0.56517 0.0
C2098 C 0.94638 0.26677 0.61302 0.0
C2099 C 0.94726 0.28043 0.61713 0.0
C2100 C 0.93647 0.25702 0.59795 0.0
C2101 C 0.92724 0.26071 0.5867 0.0
C2102 C 0.92811 0.27436 0.59071 0.0
C2103 C 0.9381 0.28419 0.60571 0.0
C2104 C 0.91659 0.25023 0.57093 0.0
C2105 C 0.90127 0.24482 0.57367 0.0
C2106 C 0.92142 0.24501 0.55386 0.0
C2107 C 0.93749 0.25092 0.54946 0.0
C2108 C 0.94729 0.26627 0.547 0.0
C2109 C 0.96242 0.27178 0.5429 0.0
C2110 C 0.96787 0.26204 0.54108 0.0
C2111 C 0.95819 0.24677 0.5433 0.0
C2112 C 0.94305 0.2412 0.54741 0.0
C2113 C 0.86797 0.21414 0.49795 0.0
C2114 C 0.86821 0.20122 0.49229 0.0
C2115 C 0.87631 0.22279 0.51502 0.0
C2116 C 0.88503 0.21868 0.52674 0.0
C2117 C 0.88472 0.20542 0.52174 0.0
C2118 C 0.87631 0.19672 0.50472 0.0
C2119 C 0.89548 0.2289 0.54292 0.0
C2120 C 0.91079 0.23432 0.54019 0.0
C2121 C 0.89063 0.23413 0.55996 0.0
C2122 C 0.87454 0.22828 0.56417 0.0
C2123 C 0.8646 0.21291 0.56606 0.0
C2124 C 0.84946 0.20746 0.56998 0.0
C2125 C 0.84413 0.21727 0.57217 0.0
C2126 C 0.85394 0.23256 0.57049 0.0
C2127 C 0.86909 0.23807 0.56656 0.0
H2128 H 0.8324 0.21303 0.57522 0.0
H2129 H 0.97959 0.26633 0.5379 0.0
H2130 H 0.34407 0.28898 0.62008 0.0
H2131 H 0.34967 0.27536 0.59386 0.0
H2132 H 0.30418 0.23888 0.59715 0.0
H2133 H 0.29876 0.2522 0.62414 0.0
H2134 H 0.3213 0.22811 0.59767 0.0
H2135 H 0.31904 0.26394 0.55403 0.0
H2136 H 0.32509 0.28883 0.54241 0.0
H2137 H 0.37117 0.30154 0.53544 0.0
H2138 H 0.36543 0.27677 0.54728 0.0
H2139 H 0.32143 0.19468 0.49812 0.0
H2140 H 0.31705 0.20692 0.52802 0.0
H2141 H 0.36458 0.23461 0.53713 0.0
H2142 H 0.36897 0.22211 0.50755 0.0
H2143 H 0.34745 0.24976 0.53075 0.0
H2144 H 0.34813 0.21223 0.57298 0.0
H2145 H 0.34055 0.18658 0.58275 0.0
H2146 H 0.29519 0.17626 0.59 0.0
H2147 H 0.30246 0.2018 0.57995 0.0
C2148 C 0.3352 0.27815 0.61497 0.0
C2149 C 0.32096 0.27168 0.62414 0.0
C2150 C 0.33841 0.27036 0.59993 0.0
C2151 C 0.32732 0.2561 0.5933 0.0
C2152 C 0.31296 0.24982 0.60203 0.0
C2153 C 0.30984 0.25748 0.61737 0.0
C2154 C 0.33081 0.24747 0.57795 0.0
C2155 C 0.32684 0.23282 0.58292 0.0
C2156 C 0.33833 0.25364 0.55885 0.0
C2157 C 0.34183 0.26855 0.55175 0.0
C2158 C 0.33049 0.27208 0.55018 0.0
C2159 C 0.33386 0.28616 0.54352 0.0
C2160 C 0.34851 0.29678 0.53825 0.0
C2161 C 0.35983 0.29332 0.53956 0.0
C2162 C 0.35652 0.27926 0.54623 0.0
C2163 C 0.33089 0.20305 0.50697 0.0
C2164 C 0.34552 0.20739 0.50078 0.0
C2165 C 0.3284 0.21006 0.52394 0.0
C2166 C 0.3405 0.22168 0.53468 0.0
C2167 C 0.35512 0.22564 0.52902 0.0
C2168 C 0.3576 0.21842 0.5123 0.0
C2169 C 0.33786 0.23052 0.55052 0.0
C2170 C 0.34196 0.24516 0.54558 0.0
C2171 C 0.33022 0.22426 0.56942 0.0
C2172 C 0.32582 0.2089 0.5755 0.0
C2173 C 0.33651 0.20445 0.57646 0.0
C2174 C 0.33228 0.18994 0.58209 0.0
C2175 C 0.31739 0.17978 0.58694 0.0
C2176 C 0.30672 0.18413 0.58621 0.0
C2177 C 0.31089 0.19863 0.58057 0.0
H2178 H 0.31413 0.16855 0.5913 0.0
H2179 H 0.3511 0.30767 0.53309 0.0
H2180 H 0.70436 0.0617 0.60796 0.0
H2181 H 0.7214 0.07952 0.58235 0.0
H2182 H 0.75627 0.07156 0.60271 0.0
H2183 H 0.73933 0.0539 0.62871 0.0
H2184 H 0.76699 0.10082 0.59717 0.0
H2185 H 0.73711 0.05601 0.5576 0.0
H2186 H 0.71378 0.03445 0.54461 0.0
H2187 H 0.7009 0.06365 0.51708 0.0
H2188 H 0.72407 0.0854 0.53016 0.0
H2189 H 0.81283 0.12633 0.5051 0.0
H2190 H 0.79799 0.11414 0.53624 0.0
H2191 H 0.76405 0.12336 0.51553 0.0
H2192 H 0.77887 0.13558 0.48437 0.0
H2193 H 0.75291 0.0943 0.522 0.0
H2194 H 0.78403 0.13933 0.55989 0.0
H2195 H 0.80775 0.16061 0.57238 0.0
H2196 H 0.81886 0.13087 0.6025 0.0
H2197 H 0.7953 0.10939 0.58992 0.0
C2198 C 0.71563 0.06369 0.60695 0.0
C2199 C 0.72047 0.05632 0.62027 0.0
C2200 C 0.72537 0.07388 0.5923 0.0
C2201 C 0.74007 0.07677 0.59048 0.0
C2202 C 0.74497 0.06951 0.60386 0.0
C2203 C 0.73526 0.05936 0.61861 0.0
C2204 C 0.75023 0.08718 0.57438 0.0
C2205 C 0.76401 0.09933 0.58069 0.0
C2206 C 0.74619 0.08539 0.55295 0.0
C2207 C 0.73225 0.07233 0.54505 0.0
C2208 C 0.72925 0.05783 0.54892 0.0
C2209 C 0.71606 0.04558 0.54151 0.0
C2210 C 0.70585 0.04768 0.53008 0.0
C2211 C 0.70881 0.06204 0.52597 0.0
C2212 C 0.72197 0.07433 0.53336 0.0
C2213 C 0.80246 0.12622 0.50756 0.0
C2214 C 0.79694 0.13181 0.49225 0.0
C2215 C 0.79396 0.11921 0.52534 0.0
C2216 C 0.77988 0.11778 0.52816 0.0
C2217 C 0.77485 0.12427 0.5136 0.0
C2218 C 0.78331 0.13125 0.49584 0.0
C2219 C 0.76967 0.10803 0.54474 0.0
C2220 C 0.75588 0.09591 0.53849 0.0
C2221 C 0.77377 0.10983 0.56615 0.0
C2222 C 0.78794 0.12274 0.57378 0.0
C2223 C 0.79159 0.13732 0.56902 0.0
C2224 C 0.80499 0.14942 0.57615 0.0
C2225 C 0.81482 0.14709 0.58818 0.0
C2226 C 0.81124 0.13266 0.59316 0.0
C2227 C 0.79785 0.12051 0.58605 0.0
H2228 H 0.8252 0.15648 0.59369 0.0
H2229 H 0.69565 0.03817 0.52435 0.0
H2230 H 0.93623 0.64391 0.62203 0.0
H2231 H 0.91664 0.63737 0.59576 0.0
H2232 H 0.92692 0.6829 0.59504 0.0
H2233 H 0.94603 0.68932 0.62168 0.0
H2234 H 0.89846 0.66588 0.59787 0.0
H2235 H 0.93635 0.66603 0.55398 0.0
H2236 H 0.95442 0.65861 0.54293 0.0
H2237 H 0.919 0.61319 0.53771 0.0
H2238 H 0.90074 0.62033 0.54898 0.0
H2239 H 0.86864 0.67086 0.50023 0.0
H2240 H 0.884 0.6725 0.53029 0.0
H2241 H 0.86149 0.6247 0.53266 0.0
H2242 H 0.84591 0.62304 0.50262 0.0
H2243 H 0.89352 0.63951 0.53075 0.0
H2244 H 0.85537 0.64085 0.57108 0.0
H2245 H 0.83797 0.64947 0.58049 0.0
H2246 H 0.87491 0.69359 0.59084 0.0
H2247 H 0.89254 0.68529 0.58119 0.0
C2248 C 0.93444 0.65255 0.616 0.0
C2249 C 0.94265 0.66712 0.62396 0.0
C2250 C 0.92324 0.6488 0.60098 0.0
C2251 C 0.92027 0.65964 0.59335 0.0
C2252 C 0.92886 0.6743 0.60078 0.0
C2253 C 0.93986 0.67798 0.61595 0.0
C2254 C 0.90787 0.65578 0.57828 0.0
C2255 C 0.89749 0.66022 0.58313 0.0
C2256 C 0.90626 0.64799 0.55928 0.0
C2257 C 0.91722 0.64369 0.55257 0.0
C2258 C 0.93244 0.65444 0.55065 0.0
C2259 C 0.94271 0.65029 0.54431 0.0
C2260 C 0.93787 0.63543 0.53969 0.0
C2261 C 0.92274 0.6247 0.54134 0.0
C2262 C 0.91243 0.62879 0.54769 0.0
C2263 C 0.86668 0.66072 0.5076 0.0
C2264 C 0.856 0.64683 0.49936 0.0
C2265 C 0.87548 0.66166 0.52468 0.0
C2266 C 0.87387 0.64872 0.53369 0.0
C2267 C 0.86287 0.6348 0.52593 0.0
C2268 C 0.85388 0.63386 0.50898 0.0
C2269 C 0.88444 0.64992 0.55022 0.0
C2270 C 0.89443 0.64499 0.54565 0.0
C2271 C 0.88584 0.65743 0.56934 0.0
C2272 C 0.87527 0.66246 0.57526 0.0
C2273 C 0.85978 0.65242 0.5752 0.0
C2274 C 0.84988 0.65724 0.58061 0.0
C2275 C 0.85533 0.67207 0.58622 0.0
C2276 C 0.8707 0.6821 0.58648 0.0
C2277 C 0.88066 0.67734 0.58107 0.0
H2278 H 0.84764 0.67578 0.5904 0.0
H2279 H 0.94583 0.63224 0.53478 0.0
H2280 H 0.96152 0.68375 0.74359 0.0
H2281 H 0.94465 0.68428 0.77 0.0
H2282 H 0.9075 0.64603 0.7408 0.0
H2283 H 0.92433 0.64516 0.71482 0.0
H2284 H 0.92127 0.68793 0.76886 0.0
H2285 H 0.88282 0.6243 0.77727 0.0
H2286 H 0.88418 0.60148 0.77366 0.0
H2287 H 0.93122 0.62634 0.78666 0.0
H2288 H 0.9301 0.64925 0.79061 0.0
H2289 H 0.85843 0.67312 0.83398 0.0
H2290 H 0.87403 0.6736 0.80458 0.0
H2291 H 0.89546 0.65718 0.84522 0.0
H2292 H 0.87955 0.6559 0.87393 0.0
H2293 H 0.88908 0.6428 0.81042 0.0
H2294 H 0.91243 0.69429 0.8304 0.0
H2295 H 0.91355 0.71808 0.83737 0.0
H2296 H 0.90101 0.71923 0.77367 0.0
H2297 H 0.89963 0.69533 0.7664 0.0
C2298 C 0.94976 0.67542 0.74286 0.0
C2299 C 0.94428 0.66432 0.72726 0.0
C2300 C 0.94012 0.6758 0.75787 0.0
C2301 C 0.92482 0.66511 0.75752 0.0
C2302 C 0.91929 0.65423 0.74163 0.0
C2303 C 0.92894 0.65376 0.72677 0.0
C2304 C 0.91472 0.66506 0.77409 0.0
C2305 C 0.9142 0.67805 0.77792 0.0
C2306 C 0.90562 0.65225 0.78612 0.0
C2307 C 0.90639 0.6385 0.78399 0.0
C2308 C 0.89344 0.62487 0.77941 0.0
C2309 C 0.89417 0.61193 0.7773 0.0
C2310 C 0.90779 0.61247 0.77985 0.0
C2311 C 0.92069 0.62595 0.7846 0.0
C2312 C 0.92002 0.63891 0.78675 0.0
C2313 C 0.86646 0.6696 0.83655 0.0
C2314 C 0.86794 0.66477 0.85643 0.0
C2315 C 0.87544 0.66997 0.81981 0.0
C2316 C 0.88605 0.66556 0.82274 0.0
C2317 C 0.88741 0.66066 0.84253 0.0
C2318 C 0.87842 0.66016 0.85907 0.0
C2319 C 0.89566 0.66569 0.80534 0.0
C2320 C 0.89604 0.65266 0.80126 0.0
C2321 C 0.90494 0.6786 0.79359 0.0
C2322 C 0.90576 0.69295 0.79793 0.0
C2323 C 0.90979 0.69956 0.81793 0.0
C2324 C 0.9105 0.71307 0.82193 0.0
C2325 C 0.90731 0.72014 0.80599 0.0
C2326 C 0.90345 0.71373 0.78601 0.0
C2327 C 0.90271 0.7002 0.78194 0.0
H2328 H 0.90786 0.7306 0.80912 0.0
H2329 H 0.90833 0.60244 0.77819 0.0
H2330 H 0.31291 0.2795 0.74428 0.0
H2331 H 0.31427 0.26361 0.77109 0.0
H2332 H 0.35194 0.26559 0.73931 0.0
H2333 H 0.35089 0.28176 0.7128 0.0
H2334 H 0.31133 0.2369 0.77 0.0
H2335 H 0.37558 0.26478 0.77498 0.0
H2336 H 0.39805 0.28936 0.76963 0.0
H2337 H 0.37276 0.31057 0.78318 0.0
H2338 H 0.3502 0.28614 0.78887 0.0
H2339 H 0.32816 0.19293 0.83804 0.0
H2340 H 0.32798 0.20677 0.80715 0.0
H2341 H 0.3444 0.24638 0.84517 0.0
H2342 H 0.34519 0.23292 0.87551 0.0
H2343 H 0.35821 0.25331 0.80963 0.0
H2344 H 0.30685 0.22413 0.8319 0.0
H2345 H 0.28348 0.20101 0.84032 0.0
H2346 H 0.28146 0.1849 0.77759 0.0
H2347 H 0.30494 0.20787 0.76888 0.0
C2348 C 0.32153 0.2766 0.74307 0.0
C2349 C 0.33187 0.28198 0.72653 0.0
C2350 C 0.32223 0.26744 0.75832 0.0
C2351 C 0.33327 0.26349 0.7573 0.0
C2352 C 0.34347 0.26867 0.74061 0.0
C2353 C 0.34284 0.27791 0.72546 0.0
C2354 C 0.33429 0.25419 0.77393 0.0
C2355 C 0.3216 0.24045 0.77861 0.0
C2356 C 0.34764 0.25886 0.7853 0.0
C2357 C 0.36117 0.27362 0.7821 0.0
C2358 C 0.37483 0.2747 0.77686 0.0
C2359 C 0.38758 0.2886 0.77377 0.0
C2360 C 0.38682 0.30151 0.77599 0.0
C2361 C 0.37332 0.30056 0.78138 0.0
C2362 C 0.36054 0.28668 0.78451 0.0
C2363 C 0.33185 0.20462 0.83967 0.0
C2364 C 0.33642 0.21176 0.85928 0.0
C2365 C 0.33165 0.21249 0.82209 0.0
C2366 C 0.33599 0.22758 0.82391 0.0
C2367 C 0.34096 0.23476 0.84335 0.0
C2368 C 0.34123 0.22698 0.86077 0.0
C2369 C 0.33521 0.23606 0.80587 0.0
C2370 C 0.34799 0.24964 0.80085 0.0
C2371 C 0.32183 0.23143 0.79461 0.0
C2372 C 0.30773 0.21763 0.79982 0.0
C2373 C 0.30148 0.21561 0.81996 0.0
C2374 C 0.28821 0.20254 0.82477 0.0
C2375 C 0.28101 0.19148 0.80952 0.0
C2376 C 0.28706 0.19347 0.7894 0.0
C2377 C 0.30034 0.20651 0.78452 0.0
H2378 H 0.27073 0.18137 0.81327 0.0
H2379 H 0.3967 0.31226 0.77358 0.0
H2380 H 0.72837 0.08593 0.71422 0.0
H2381 H 0.74768 0.09774 0.74095 0.0
H2382 H 0.73948 0.05486 0.76058 0.0
H2383 H 0.72 0.04282 0.73376 0.0
H2384 H 0.74319 0.07376 0.79407 0.0
H2385 H 0.76863 0.07521 0.73057 0.0
H2386 H 0.77515 0.08037 0.6932 0.0
H2387 H 0.79203 0.12681 0.70425 0.0
H2388 H 0.7854 0.12189 0.74166 0.0
H2389 H 0.80742 0.09982 0.8551 0.0
H2390 H 0.79114 0.08765 0.82487 0.0
H2391 H 0.79649 0.12961 0.8059 0.0
H2392 H 0.81283 0.14181 0.8363 0.0
H2393 H 0.7947 0.11071 0.7717 0.0
H2394 H 0.76867 0.10931 0.83471 0.0
H2395 H 0.76239 0.10445 0.87219 0.0
H2396 H 0.74643 0.05809 0.86207 0.0
H2397 H 0.75295 0.06275 0.82458 0.0
C2398 C 0.73054 0.07894 0.72429 0.0
C2399 C 0.72267 0.06339 0.72172 0.0
C2400 C 0.74165 0.08575 0.73951 0.0
C2401 C 0.74517 0.07719 0.75251 0.0
C2402 C 0.73697 0.06165 0.75061 0.0
C2403 C 0.72586 0.0548 0.73527 0.0
C2404 C 0.75761 0.08459 0.76776 0.0
C2405 C 0.7545 0.08165 0.78916 0.0
C2406 C 0.77229 0.09515 0.76135 0.0
C2407 C 0.77639 0.09816 0.73889 0.0
C2408 C 0.77362 0.08651 0.725 0.0
C2409 C 0.77736 0.08939 0.70382 0.0
C2410 C 0.78397 0.10391 0.69634 0.0
C2411 C 0.7869 0.11557 0.71006 0.0
C2412 C 0.78316 0.11274 0.73126 0.0
C2413 C 0.80555 0.1065 0.84399 0.0
C2414 C 0.8114 0.12171 0.84774 0.0
C2415 C 0.79619 0.09955 0.82687 0.0
C2416 C 0.79247 0.10771 0.81337 0.0
C2417 C 0.79926 0.12315 0.81617 0.0
C2418 C 0.80861 0.13011 0.8334 0.0
C2419 C 0.78027 0.09985 0.79793 0.0
C2420 C 0.78341 0.10274 0.77655 0.0
C2421 C 0.7656 0.08928 0.80436 0.0
C2422 C 0.76146 0.08641 0.82686 0.0
C2423 C 0.76395 0.0981 0.8405 0.0
C2424 C 0.76033 0.09538 0.86175 0.0
C2425 C 0.75404 0.08098 0.86952 0.0
C2426 C 0.75133 0.06926 0.85604 0.0
C2427 C 0.75499 0.07193 0.83478 0.0
H2428 H 0.75123 0.07889 0.88597 0.0
H2429 H 0.78685 0.10612 0.67994 0.0
H2430 H 0.04676 0.35706 0.00042 0.0
H2431 H 0.06635 0.35109 0.00717 0.0
H2432 H 0.04522 0.33094 0.06576 0.0
H2433 H 0.02547 0.33636 0.05876 0.0
H2434 H 0.08673 0.35944 0.03515 0.0
H2435 H 0.0503 0.30351 0.07946 0.0
H2436 H 0.02482 0.28178 0.07755 0.0
H2437 H 0.02181 0.29077 0.01278 0.0
H2438 H 0.04735 0.31243 0.0142 0.0
H2439 H 0.12811 0.34594 0.10836 0.0
H2440 H 0.11182 0.35059 0.08666 0.0
H2441 H 0.09832 0.30997 0.05226 0.0
H2442 H 0.11377 0.30462 0.07522 0.0
H2443 H 0.07505 0.31018 0.06154 0.0
H2444 H 0.11959 0.34635 0.02964 0.0
H2445 H 0.14554 0.36715 0.02716 0.0
H2446 H 0.1333 0.39588 0.05864 0.0
H2447 H 0.10731 0.37521 0.06158 0.0
C2448 C 0.04625 0.35124 0.01464 0.0
C2449 C 0.03451 0.3471 0.02898 0.0
C2450 C 0.05747 0.34786 0.01851 0.0
C2451 C 0.05718 0.34032 0.03682 0.0
C2452 C 0.04553 0.33638 0.05124 0.0
C2453 C 0.03426 0.33958 0.04727 0.0
C2454 C 0.06926 0.33703 0.04143 0.0
C2455 C 0.0842 0.34864 0.04076 0.0
C2456 C 0.06606 0.32279 0.04801 0.0
C2457 C 0.05072 0.30967 0.04699 0.0
C2458 C 0.04424 0.30081 0.06477 0.0
C2459 C 0.02977 0.28851 0.06378 0.0
C2460 C 0.02169 0.28492 0.04507 0.0
C2461 C 0.02807 0.29359 0.02728 0.0
C2462 C 0.04253 0.30589 0.02818 0.0
C2463 C 0.12178 0.33801 0.09608 0.0
C2464 C 0.12212 0.32477 0.09381 0.0
C2465 C 0.11258 0.34081 0.0834 0.0
C2466 C 0.10383 0.33071 0.0676 0.0
C2467 C 0.1049 0.31795 0.06435 0.0
C2468 C 0.11392 0.31499 0.07734 0.0
C2469 C 0.09252 0.33277 0.05615 0.0
C2470 C 0.07768 0.32092 0.05557 0.0
C2471 C 0.09589 0.34665 0.04772 0.0
C2472 C 0.11149 0.35918 0.0459 0.0
C2473 C 0.12244 0.35708 0.03614 0.0
C2474 C 0.13716 0.36885 0.03464 0.0
C2475 C 0.14107 0.38282 0.04276 0.0
C2476 C 0.13025 0.38505 0.05235 0.0
C2477 C 0.11552 0.37332 0.0539 0.0
H2478 H 0.15247 0.39192 0.04159 0.0
H2479 H 0.01048 0.2754 0.04434 0.0
H2480 H 0.61553 0.68446 0.01809 0.0
H2481 H 0.62552 0.71017 0.02934 0.0
H2482 H 0.66909 0.71525 0.03717 0.0
H2483 H 0.65913 0.68941 0.02627 0.0
H2484 H 0.66278 0.7272 0.06946 0.0
H2485 H 0.6611 0.73034 0.99502 0.0
H2486 H 0.64987 0.72387 0.95974 0.0
H2487 H 0.61782 0.73622 0.97802 0.0
H2488 H 0.62873 0.74258 0.01352 0.0
H2489 H 0.70154 0.80435 0.08188 0.0
H2490 H 0.69294 0.7817 0.06082 0.0
H2491 H 0.64734 0.77094 0.06908 0.0
H2492 H 0.65595 0.79347 0.09055 0.0
H2493 H 0.65577 0.76283 0.02701 0.0
H2494 H 0.65648 0.75724 0.10261 0.0
H2495 H 0.66879 0.7649 0.13715 0.0
H2496 H 0.70385 0.75784 0.11536 0.0
H2497 H 0.69184 0.75035 0.08056 0.0
C2498 C 0.62725 0.69102 0.02219 0.0
C2499 C 0.63653 0.68485 0.02121 0.0
C2500 C 0.63296 0.70577 0.02851 0.0
C2501 C 0.64811 0.71473 0.0338 0.0
C2502 C 0.65738 0.70857 0.03309 0.0
C2503 C 0.65166 0.69379 0.02683 0.0
C2504 C 0.65418 0.73042 0.0405 0.0
C2505 C 0.66142 0.73501 0.05998 0.0
C2506 C 0.65225 0.74062 0.02833 0.0
C2507 C 0.64565 0.7368 0.007 0.0
C2508 C 0.65158 0.73156 0.99158 0.0
C2509 C 0.64529 0.72794 0.97153 0.0
C2510 C 0.63312 0.7296 0.96666 0.0
C2511 C 0.62724 0.73492 0.98182 0.0
C2512 C 0.63348 0.73855 0.00191 0.0
C2513 C 0.68975 0.79749 0.07833 0.0
C2514 C 0.67938 0.80064 0.08749 0.0
C2515 C 0.68485 0.78454 0.06646 0.0
C2516 C 0.66952 0.77467 0.06354 0.0
C2517 C 0.65921 0.77851 0.07106 0.0
C2518 C 0.66411 0.79136 0.08321 0.0
C2519 C 0.66423 0.75941 0.05581 0.0
C2520 C 0.65715 0.75496 0.03629 0.0
C2521 C 0.66635 0.74933 0.06785 0.0
C2522 C 0.67335 0.75339 0.08893 0.0
C2523 C 0.66687 0.75742 0.10514 0.0
C2524 C 0.67377 0.76172 0.12477 0.0
C2525 C 0.68712 0.76192 0.12843 0.0
C2526 C 0.69353 0.75772 0.1125 0.0
C2527 C 0.68667 0.75343 0.09282 0.0
H2528 H 0.69247 0.76528 0.14362 0.0
H2529 H 0.62827 0.72679 0.95113 0.0
H2530 H 0.30675 0.93475 0.00397 0.0
H2531 H 0.28077 0.91884 0.0141 0.0
H2532 H 0.27823 0.95733 0.03234 0.0
H2533 H 0.30443 0.97347 0.02235 0.0
H2534 H 0.2667 0.93607 0.06199 0.0
H2535 H 0.26027 0.93804 0.98862 0.0
H2536 H 0.26511 0.93684 0.95103 0.0
H2537 H 0.25255 0.89106 0.95717 0.0
H2538 H 0.24784 0.89204 0.99488 0.0
H2539 H 0.19326 0.88902 0.09062 0.0
H2540 H 0.21147 0.90735 0.06641 0.0
H2541 H 0.22504 0.8762 0.0477 0.0
H2542 H 0.2068 0.85784 0.07174 0.0
H2543 H 0.22892 0.89643 0.01572 0.0
H2544 H 0.23992 0.89623 0.08979 0.0
H2545 H 0.2339 0.89661 0.12711 0.0
H2546 H 0.23805 0.93931 0.11936 0.0
H2547 H 0.24364 0.93897 0.08178 0.0
C2548 C 0.30069 0.9399 0.01003 0.0
C2549 C 0.30771 0.95542 0.01236 0.0
C2550 C 0.28577 0.93076 0.01567 0.0
C2551 C 0.27748 0.9369 0.02369 0.0
C2552 C 0.28441 0.95237 0.02606 0.0
C2553 C 0.29938 0.96157 0.02034 0.0
C2554 C 0.26187 0.92697 0.03065 0.0
C2555 C 0.25834 0.92765 0.05172 0.0
C2556 C 0.25101 0.91582 0.01734 0.0
C2557 C 0.25379 0.91515 0.99464 0.0
C2558 C 0.25865 0.92774 0.982 0.0
C2559 C 0.26135 0.9271 0.96066 0.0
C2560 C 0.25916 0.91389 0.95172 0.0
C2561 C 0.25424 0.90129 0.96411 0.0
C2562 C 0.25153 0.90187 0.98547 0.0
C2563 C 0.19968 0.88589 0.08064 0.0
C2564 C 0.19882 0.87213 0.08324 0.0
C2565 C 0.21008 0.89636 0.06686 0.0
C2566 C 0.21984 0.89324 0.0557 0.0
C2567 C 0.21765 0.87884 0.05625 0.0
C2568 C 0.20719 0.86833 0.06997 0.0
C2569 C 0.23393 0.90547 0.047 0.0
C2570 C 0.2372 0.90512 0.02576 0.0
C2571 C 0.2446 0.91693 0.06013 0.0
C2572 C 0.24201 0.91749 0.08293 0.0
C2573 C 0.23948 0.90567 0.09602 0.0
C2574 C 0.2361 0.90586 0.11719 0.0
C2575 C 0.23553 0.91794 0.12558 0.0
C2576 C 0.23843 0.92992 0.11282 0.0
C2577 C 0.24167 0.92973 0.09156 0.0
H2578 H 0.2329 0.91805 0.14198 0.0
H2579 H 0.26126 0.91341 0.93519 0.0
H2580 H 0.32223 0.02122 0.97411 0.0
H2581 H 0.31695 0.04082 0.96545 0.0
H2582 H 0.35832 0.07334 0.99462 0.0
H2583 H 0.36341 0.05364 0.00401 0.0
H2584 H 0.33757 0.08026 0.0023 0.0
H2585 H 0.35542 0.06743 0.94104 0.0
H2586 H 0.35623 0.05101 0.91376 0.0
H2587 H 0.31175 0.0383 0.89442 0.0
H2588 H 0.31059 0.0545 0.9218 0.0
H2589 H 0.35145 0.14259 0.93812 0.0
H2590 H 0.35108 0.12303 0.9593 0.0
H2591 H 0.3066 0.09211 0.9373 0.0
H2592 H 0.30675 0.1117 0.91642 0.0
H2593 H 0.32772 0.08414 0.92731 0.0
H2594 H 0.31169 0.09984 0.98773 0.0
H2595 H 0.31279 0.11783 0.01395 0.0
H2596 H 0.35618 0.12707 0.03356 0.0
H2597 H 0.35545 0.10929 0.00724 0.0
C2598 C 0.33014 0.03253 0.97885 0.0
C2599 C 0.34332 0.03592 0.98954 0.0
C2600 C 0.32713 0.04373 0.97384 0.0
C2601 C 0.33739 0.05861 0.97899 0.0
C2602 C 0.35026 0.06195 0.99042 0.0
C2603 C 0.35319 0.0507 0.99571 0.0
C2604 C 0.33504 0.07071 0.97145 0.0
C2605 C 0.33553 0.08118 0.98588 0.0
C2606 C 0.33222 0.07185 0.95005 0.0
C2607 C 0.33286 0.06204 0.93363 0.0
C2608 C 0.34576 0.06104 0.93109 0.0
C2609 C 0.3463 0.05179 0.91559 0.0
C2610 C 0.33404 0.04358 0.90241 0.0
C2611 C 0.32123 0.04464 0.90467 0.0
C2612 C 0.32063 0.05386 0.92017 0.0
C2613 C 0.34133 0.13182 0.9385 0.0
C2614 C 0.32918 0.12865 0.92541 0.0
C2615 C 0.34117 0.12062 0.95056 0.0
C2616 C 0.32886 0.1061 0.94971 0.0
C2617 C 0.31623 0.10323 0.93808 0.0
C2618 C 0.31634 0.11443 0.92616 0.0
C2619 C 0.33007 0.09359 0.95815 0.0
C2620 C 0.32953 0.0831 0.94379 0.0
C2621 C 0.3331 0.09265 0.97949 0.0
C2622 C 0.33356 0.10332 0.99537 0.0
C2623 C 0.32153 0.1058 -0.0025 0.0
C2624 C 0.32207 0.11594 0.01242 0.0
C2625 C 0.33456 0.12361 0.02538 0.0
C2626 C 0.34652 0.12113 0.02349 0.0
C2627 C 0.34604 0.11101 0.0086 0.0
H2628 H 0.33496 0.13145 0.03692 0.0
H2629 H 0.33447 0.03644 0.89041 0.0
H2630 H 0.97055 0.30575 0.00888 0.0
H2631 H 0.95481 0.27981 -0.00208 0.0
H2632 H 0.9192 0.28808 0.983 0.0
H2633 H 0.9346 0.31374 0.99483 0.0
H2634 H 0.9076 0.26269 0.00049 0.0
H2635 H 0.94347 0.28605 0.94488 0.0
H2636 H 0.96862 0.30013 0.92936 0.0
H2637 H 0.97857 0.26719 0.95055 0.0
H2638 H 0.95352 0.253 0.96641 0.0
H2639 H 0.86906 0.21017 0.91861 0.0
H2640 H 0.88304 0.23133 0.94238 0.0
H2641 H 0.90881 0.21208 0.96372 0.0
H2642 H 0.8946 0.19073 0.94011 0.0
H2643 H 0.92594 0.24086 0.94734 0.0
H2644 H 0.88735 0.2157 -0.00204 0.0
H2645 H 0.86142 0.20187 0.01079 0.0
H2646 H 0.8557 0.23868 0.99589 0.0
H2647 H 0.88154 0.25266 0.98268 0.0
C2648 C 0.95936 0.30202 0.00326 0.0
C2649 C 0.95385 0.31182 0.00264 0.0
C2650 C 0.95038 0.28718 -0.00307 0.0
C2651 C 0.93584 0.28197 0.98932 0.0
C2652 C 0.93032 0.29176 0.98885 0.0
C2653 C 0.93918 0.30648 0.99554 0.0
C2654 C 0.92638 0.26643 0.98149 0.0
C2655 C 0.91161 0.25798 0.98877 0.0
C2656 C 0.93165 0.26005 0.96656 0.0
C2657 C 0.9467 0.26856 0.95705 0.0
C2658 C 0.95107 0.28187 0.94636 0.0
C2659 C 0.96529 0.28986 0.93748 0.0
C2660 C 0.9752 0.28458 0.93903 0.0
C2661 C 0.97089 0.27128 0.9494 0.0
C2662 C 0.95668 0.26326 0.95833 0.0
C2663 C 0.87732 0.21022 0.92899 0.0
C2664 C 0.88068 0.19881 0.9278 0.0
C2665 C 0.88532 0.2223 0.9425 0.0
C2666 C 0.89696 0.22327 0.95482 0.0
C2667 C 0.89983 0.2115 0.9544 0.0
C2668 C 0.89165 0.19928 0.9411 0.0
C2669 C 0.90715 0.23732 0.96602 0.0
C2670 C 0.92204 0.24551 0.95934 0.0
C2671 C 0.90191 0.24354 0.98116 0.0
C2672 C 0.88637 0.2352 0.9892 0.0
C2673 C 0.88053 0.22081 -0.00273 0.0
C2674 C 0.86585 0.21295 0.00464 0.0
C2675 C 0.85691 0.21938 0.00413 0.0
C2676 C 0.86264 0.23371 -0.00372 0.0
C2677 C 0.87732 0.24161 0.98888 0.0
H2678 H 0.84554 0.21327 0.00984 0.0
H2679 H 0.98621 0.29078 0.93213 0.0
H2680 H 0.68203 0.6328 0.00892 0.0
H2681 H 0.70727 0.63864 -0.00037 0.0
H2682 H 0.71629 0.68044 0.97382 0.0
H2683 H 0.69091 0.67442 0.98242 0.0
H2684 H 0.72402 0.66717 0.94708 0.0
H2685 H 0.73344 0.67773 0.0201 0.0
H2686 H 0.72932 0.67324 0.05805 0.0
H2687 H 0.73518 0.63555 0.05223 0.0
H2688 H 0.73913 0.63968 0.01417 0.0
H2689 H 0.79702 0.6898 0.91955 0.0
H2690 H 0.77852 0.69002 0.94312 0.0
H2691 H 0.76172 0.64399 0.95766 0.0
H2692 H 0.78014 0.64368 0.934 0.0
H2693 H 0.75975 0.66169 0.99213 0.0
H2694 H 0.74433 0.6483 0.91904 0.0
H2695 H 0.74822 0.65223 0.88098 0.0
H2696 H 0.75451 0.69595 0.88805 0.0
H2697 H 0.75034 0.69211 0.92622 0.0
C2698 C 0.68947 0.64333 0.00153 0.0
C2699 C 0.68444 0.65311 -0.00372 0.0
C2700 C 0.70395 0.64671 -0.00365 0.0
C2701 C 0.71379 0.66006 0.98615 0.0
C2702 C 0.70893 0.67007 0.98163 0.0
C2703 C 0.69441 0.66661 0.98657 0.0
C2704 C 0.72858 0.66297 0.97846 0.0
C2705 C 0.73192 0.6663 0.95716 0.0
C2706 C 0.73884 0.66149 0.99135 0.0
C2707 C 0.73646 0.65895 0.01424 0.0
C2708 C 0.73373 0.66841 0.02688 0.0
C2709 C 0.73145 0.66594 0.04842 0.0
C2710 C 0.73196 0.6541 0.05754 0.0
C2711 C 0.73478 0.64471 0.04514 0.0
C2712 C 0.73706 0.64713 0.02358 0.0
C2713 C 0.78973 0.67988 0.92836 0.0
C2714 C 0.7899 0.66667 0.92475 0.0
C2715 C 0.77917 0.68002 0.9418 0.0
C2716 C 0.76861 0.66695 0.95183 0.0
C2717 C 0.76979 0.65419 0.95006 0.0
C2718 C 0.78037 0.65404 0.93658 0.0
C2719 C 0.755 0.66591 0.96102 0.0
C2720 C 0.75187 0.66283 0.98238 0.0
C2721 C 0.74489 0.66767 0.9483 0.0
C2722 C 0.74714 0.66996 0.92541 0.0
C2723 C 0.74657 0.65875 0.91245 0.0
C2724 C 0.74882 0.66097 0.89088 0.0
C2725 C 0.75176 0.67439 0.8821 0.0
C2726 C 0.75227 0.68557 0.89488 0.0
C2727 C 0.74988 0.68335 0.91646 0.0
H2728 H 0.75359 0.6761 0.86539 0.0
H2729 H 0.73019 0.65221 0.07422 0.0
H2730 H 0.94035 0.64055 0.03763 0.0
H2731 H 0.92329 0.64895 0.02666 0.0
H2732 H 0.9344 0.64667 0.96193 0.0
H2733 H 0.95239 0.63958 0.97319 0.0
H2734 H 0.93078 0.66802 0.96428 0.0
H2735 H 0.90087 0.61818 0.98968 0.0
H2736 H 0.89201 0.59785 0.01524 0.0
H2737 H 0.87953 0.62182 0.05761 0.0
H2738 H 0.88847 0.64237 0.03237 0.0
H2739 H 0.84982 0.63803 0.93293 0.0
H2740 H 0.86684 0.63579 0.9567 0.0
H2741 H 0.89409 0.68358 0.96045 0.0
H2742 H 0.87745 0.68574 0.9354 0.0
H2743 H 0.87908 0.64186 0.99208 0.0
H2744 H 0.93033 0.69433 0.95923 0.0
H2745 H 0.93751 0.71041 0.92812 0.0
H2746 H 0.90472 0.67389 0.89122 0.0
H2747 H 0.89742 0.65757 0.92205 0.0
C2748 C 0.93922 0.64206 0.02111 0.0
C2749 C 0.94756 0.63942 0.00619 0.0
C2750 C 0.92937 0.64671 0.0148 0.0
C2751 C 0.92718 0.64812 0.99338 0.0
C2752 C 0.93582 0.64573 0.97854 0.0
C2753 C 0.94606 0.64161 0.98492 0.0
C2754 C 0.91568 0.65167 0.98625 0.0
C2755 C 0.9195 0.66231 0.97047 0.0
C2756 C 0.90085 0.64419 0.99405 0.0
C2757 C 0.8955 0.63187 0.00926 0.0
C2758 C 0.89632 0.61915 0.00451 0.0
C2759 C 0.89128 0.60758 0.01893 0.0
C2760 C 0.88526 0.60857 0.03807 0.0
C2761 C 0.88423 0.6211 0.0428 0.0
C2762 C 0.88927 0.6327 0.02845 0.0
C2763 C 0.85911 0.64805 0.93949 0.0
C2764 C 0.86239 0.66205 0.93235 0.0
C2765 C 0.86891 0.64678 0.95304 0.0
C2766 C 0.88205 0.65951 0.95989 0.0
C2767 C 0.88428 0.67358 0.95487 0.0
C2768 C 0.87468 0.67484 0.94083 0.0
C2769 C 0.8941 0.65786 0.96976 0.0
C2770 C 0.89042 0.64769 0.98613 0.0
C2771 C 0.90884 0.66513 0.96169 0.0
C2772 C 0.91322 0.67481 0.94301 0.0
C2773 C 0.92468 0.68974 0.94446 0.0
C2774 C 0.92875 0.69889 0.92689 0.0
C2775 C 0.92151 0.69319 0.90773 0.0
C2776 C 0.91024 0.6783 0.90609 0.0
C2777 C 0.90613 0.6691 0.92361 0.0
H2778 H 0.92467 0.70029 0.89415 0.0
H2779 H 0.88135 0.5996 0.04921 0.0
H2780 H 0.32423 0.30405 0.98844 0.0
H2781 H 0.32001 0.279 0.98321 0.0
H2782 H 0.36066 0.29125 0.01676 0.0
H2783 H 0.36489 0.31633 0.02225 0.0
H2784 H 0.35933 0.27969 0.97685 0.0
H2785 H 0.32867 0.26646 0.03801 0.0
H2786 H 0.30876 0.265 0.06076 0.0
H2787 H 0.27606 0.23982 0.01348 0.0
H2788 H 0.2958 0.24131 0.9903 0.0
H2789 H 0.35234 0.2125 0.95001 0.0
H2790 H 0.35296 0.23004 0.97607 0.0
H2791 H 0.31105 0.22326 0.95265 0.0
H2792 H 0.30999 0.20515 0.92726 0.0
H2793 H 0.31422 0.23132 0.99321 0.0
H2794 H 0.34361 0.24873 0.93016 0.0
H2795 H 0.36236 0.25064 0.90464 0.0
H2796 H 0.39618 0.26886 0.95238 0.0
H2797 H 0.37755 0.26684 0.97828 0.0
C2798 C 0.33213 0.30134 0.99504 0.0
C2799 C 0.34494 0.3122 0.00565 0.0
C2800 C 0.32966 0.28699 0.99215 0.0
C2801 C 0.33999 0.28325 -0.00031 0.0
C2802 C 0.35252 0.29391 0.01091 0.0
C2803 C 0.35491 0.30822 0.01404 0.0
C2804 C 0.33855 0.26882 0.99374 0.0
C2805 C 0.34966 0.2691 0.98092 0.0
C2806 C 0.32567 0.25504 -0.00155 0.0
C2807 C 0.31375 0.25409 0.01236 0.0
C2808 C 0.31725 0.26071 0.03239 0.0
C2809 C 0.30599 0.25986 0.04538 0.0
C2810 C 0.29116 0.25235 0.03856 0.0
C2811 C 0.28756 0.24564 0.01874 0.0
C2812 C 0.29878 0.24647 0.00568 0.0
C2813 C 0.34289 0.21416 0.95107 0.0
C2814 C 0.33128 0.2077 0.93624 0.0
C2815 C 0.34333 0.22433 0.96587 0.0
C2816 C 0.33231 0.22835 0.96581 0.0
C2817 C 0.31978 0.22049 0.95283 0.0
C2818 C 0.31923 0.2102 0.93822 0.0
C2819 C 0.33501 0.24224 0.97632 0.0
C2820 C 0.32409 0.2419 0.9897 0.0
C2821 C 0.34791 0.25608 0.97178 0.0
C2822 C 0.35917 0.25747 0.9562 0.0
C2823 C 0.35503 0.25306 0.93524 0.0
C2824 C 0.36563 0.25416 0.92071 0.0
C2825 C 0.38044 0.25982 0.92691 0.0
C2826 C 0.38469 0.26444 0.94763 0.0
C2827 C 0.37412 0.26332 0.96224 0.0
H2828 H 0.38864 0.26067 0.91563 0.0
H2829 H 0.28246 0.2517 0.04864 0.0
H2830 H 0.68319 0.06206 0.98874 0.0
H2831 H 0.7083 0.07853 0.97521 0.0
H2832 H 0.7189 0.04394 0.98263 0.0
H2833 H 0.69364 0.02723 0.99597 0.0
H2834 H 0.74149 0.07316 -0.0019 0.0
H2835 H 0.71256 0.04951 0.93632 0.0
H2836 H 0.69137 0.04122 0.91196 0.0
H2837 H 0.70279 0.08644 0.90279 0.0
H2838 H 0.72392 0.095 0.92736 0.0
H2839 H 0.80733 0.10599 0.93374 0.0
H2840 H 0.78438 0.0908 0.95367 0.0
H2841 H 0.76785 0.11937 0.93446 0.0
H2842 H 0.79055 0.13414 0.9139 0.0
H2843 H 0.74826 0.09233 0.92562 0.0
H2844 H 0.77718 0.11641 0.98714 0.0
H2845 H 0.79834 0.12504 0.01164 0.0
H2846 H 0.78719 0.07999 0.0218 0.0
H2847 H 0.76608 0.07109 -0.00288 0.0
C2848 C 0.69083 0.05792 0.98751 0.0
C2849 C 0.68638 0.0433 0.99338 0.0
C2850 C 0.70518 0.06736 0.97976 0.0
C2851 C 0.71543 0.06244 0.9779 0.0
C2852 C 0.71114 0.04794 0.98399 0.0
C2853 C 0.69669 0.03839 0.99148 0.0
C2854 C 0.73052 0.07245 0.9692 0.0
C2855 C 0.74305 0.07725 0.98218 0.0
C2856 C 0.73245 0.078 0.94861 0.0
C2857 C 0.71972 0.07288 0.93387 0.0
C2858 C 0.71046 0.05768 0.92928 0.0
C2859 C 0.69848 0.05293 0.91539 0.0
C2860 C 0.69571 0.06329 0.90588 0.0
C2861 C 0.70493 0.07843 0.9102 0.0
C2862 C 0.71692 0.08323 0.92409 0.0
C2863 C 0.79902 0.10932 0.93449 0.0
C2864 C 0.80071 0.1213 0.92256 0.0
C2865 C 0.78587 0.10061 0.94582 0.0
C2866 C 0.77432 0.10391 0.94562 0.0
C2867 C 0.77653 0.11654 0.93481 0.0
C2868 C 0.78955 0.12508 0.92326 0.0
C2869 C 0.75939 0.09342 0.95463 0.0
C2870 C 0.74682 0.0884 0.94162 0.0
C2871 C 0.75746 0.08778 0.97524 0.0
C2872 C 0.77013 0.0931 0.99012 0.0
C2873 C 0.77931 0.10835 0.99446 0.0
C2874 C 0.79128 0.11329 0.00841 0.0
C2875 C 0.79413 0.10307 0.01823 0.0
C2876 C 0.78498 0.08789 0.01416 0.0
C2877 C 0.773 0.08289 0.00022 0.0
H2878 H 0.8034 0.10692 0.02902 0.0
H2879 H 0.68643 0.05959 0.89513 0.0
H2880 H 0.63743 0.94631 0.00219 0.0
H2881 H 0.64379 0.92716 0.00951 0.0
H2882 H 0.6806 0.95829 0.04817 0.0
H2883 H 0.67442 0.97743 0.04082 0.0
H2884 H 0.68841 0.94178 0.02412 0.0
H2885 H 0.64717 0.93303 0.0696 0.0
H2886 H 0.62168 0.92789 0.07701 0.0
H2887 H 0.60338 0.88759 0.04076 0.0
H2888 H 0.6288 0.89261 0.03292 0.0
H2889 H 0.70159 0.90371 0.10289 0.0
H2890 H 0.69606 0.91863 0.07944 0.0
H2891 H 0.66138 0.87866 0.04986 0.0
H2892 H 0.66691 0.86363 0.07374 0.0
H2893 H 0.65117 0.89652 0.06156 0.0
H2894 H 0.69278 0.9031 0.02222 0.0
H2895 H 0.71838 0.90823 0.01593 0.0
H2896 H 0.73622 0.95236 0.04074 0.0
H2897 H 0.71074 0.94744 0.04747 0.0
C2898 C 0.64696 0.9491 0.01209 0.0
C2899 C 0.65536 0.96337 0.02103 0.0
C2900 C 0.65056 0.93814 0.0163 0.0
C2901 C 0.6626 0.94125 0.02954 0.0
C2902 C 0.67128 0.95563 0.03789 0.0
C2903 C 0.66768 0.96655 0.03375 0.0
C2904 C 0.66587 0.92947 0.03566 0.0
C2905 C 0.68029 0.93188 0.03233 0.0
C2906 C 0.65512 0.9163 0.04574 0.0
C2907 C 0.63987 0.91329 0.05045 0.0
C2908 C 0.63771 0.92314 0.06307 0.0
C2909 C 0.62328 0.92024 0.06737 0.0
C2910 C 0.61092 0.90745 0.0593 0.0
C2911 C 0.61296 0.89751 0.04696 0.0
C2912 C 0.62738 0.90038 0.04258 0.0
C2913 C 0.69306 0.89814 0.09098 0.0
C2914 C 0.68474 0.88258 0.08993 0.0
C2915 C 0.68993 0.90666 0.07754 0.0
C2916 C 0.6784 0.8998 0.06269 0.0
C2917 C 0.67039 0.8842 0.0611 0.0
C2918 C 0.67359 0.87563 0.07459 0.0
C2919 C 0.67389 0.90902 0.0506 0.0
C2920 C 0.65922 0.90618 0.05285 0.0
C2921 C 0.68443 0.9218 0.03954 0.0
C2922 C 0.69981 0.92487 0.03543 0.0
C2923 C 0.70216 0.91387 0.02646 0.0
C2924 C 0.71665 0.91675 0.0228 0.0
C2925 C 0.72892 0.93061 0.02795 0.0
C2926 C 0.72671 0.94163 0.03674 0.0
C2927 C 0.71224 0.93881 0.04045 0.0
H2928 H 0.74013 0.93281 0.02511 0.0
H2929 H 0.59975 0.90521 0.06266 0.0
H2930 H 0.01988 0.69045 0.04847 0.0
H2931 H 0.04026 0.71573 0.05384 0.0
H2932 H 0.06191 0.71247 -0.00209 0.0
H2933 H 0.04157 0.68673 0.9928 0.0
H2934 H 0.08159 0.72441 0.02751 0.0
H2935 H 0.04663 0.73575 0.00019 0.0
H2936 H 0.02236 0.7341 0.99483 0.0
H2937 H 0.02257 0.74736 0.05874 0.0
H2938 H 0.04674 0.74887 0.06462 0.0
H2939 H 0.13083 0.80303 0.06543 0.0
H2940 H 0.11366 0.78427 0.04 0.0
H2941 H 0.08751 0.75608 0.0908 0.0
H2942 H 0.10478 0.77395 0.116 0.0
H2943 H 0.07294 0.76477 0.05124 0.0
H2944 H 0.1034 0.74254 0.07714 0.0
H2945 H 0.12818 0.74501 0.08126 0.0
H2946 H 0.13691 0.75456 0.0157 0.0
H2947 H 0.11221 0.75228 0.01131 0.0
C2948 C 0.02887 0.69512 0.03714 0.0
C2949 C 0.02908 0.68656 0.02019 0.0
C2950 C 0.0405 0.70968 0.04013 0.0
C2951 C 0.05253 0.71619 0.02605 0.0
C2952 C 0.05271 0.70775 0.00891 0.0
C2953 C 0.04108 0.69305 0.00599 0.0
C2954 C 0.06532 0.73136 0.03049 0.0
C2955 C 0.07971 0.73335 0.03206 0.0
C2956 C 0.06307 0.74322 0.03624 0.0
C2957 C 0.04852 0.7424 0.03284 0.0
C2958 C 0.04147 0.73824 0.01315 0.0
C2959 C 0.02773 0.73733 0.01001 0.0
C2960 C 0.02093 0.74062 0.02643 0.0
C2961 C 0.02787 0.74483 0.04602 0.0
C2962 C 0.04161 0.74575 0.04925 0.0
C2963 C 0.12147 0.7928 0.07116 0.0
C2964 C 0.11908 0.79021 0.09285 0.0
C2965 C 0.11165 0.78217 0.05662 0.0
C2966 C 0.09928 0.76893 0.06364 0.0
C2967 C 0.09689 0.76634 0.08514 0.0
C2968 C 0.10675 0.77672 0.09955 0.0
C2969 C 0.08873 0.75731 0.04905 0.0
C2970 C 0.07479 0.75599 0.04574 0.0
C2971 C 0.09142 0.7462 0.04134 0.0
C2972 C 0.1061 0.74738 0.04395 0.0
C2973 C 0.11067 0.74526 0.06366 0.0
C2974 C 0.12467 0.7466 0.06604 0.0
C2975 C 0.13413 0.74998 0.04877 0.0
C2976 C 0.12958 0.75197 0.02907 0.0
C2977 C 0.11559 0.75065 0.02663 0.0
H2978 H 0.14497 0.75101 0.05063 0.0
H2979 H 0.01028 0.7399 0.02397 0.0
H2980 H 0.31266 0.38179 0.00348 0.0
H2981 H 0.28792 0.37481 0.01698 0.0
H2982 H 0.28401 0.33525 0.04383 0.0
H2983 H 0.30877 0.34216 0.03053 0.0
H2984 H 0.25957 0.35039 0.01177 0.0
H2985 H 0.26811 0.33072 0.09206 0.0
H2986 H 0.28864 0.33523 0.11597 0.0
H2987 H 0.31566 0.3791 0.09115 0.0
H2988 H 0.29522 0.37493 0.06733 0.0
H2989 H 0.19251 0.30864 0.07293 0.0
H2990 H 0.215 0.31881 0.05108 0.0
H2991 H 0.23644 0.35768 0.09097 0.0
H2992 H 0.21411 0.34741 0.11293 0.0
H2993 H 0.25245 0.34465 0.08874 0.0
H2994 H 0.22835 0.35996 0.03953 0.0
H2995 H 0.20813 0.35684 0.0161 0.0
H2996 H 0.21265 0.32468 0.97952 0.0
H2997 H 0.23277 0.32745 0.00292 0.0
C2998 C 0.30652 0.37155 0.01216 0.0
C2999 C 0.31278 0.36261 0.0161 0.0
C3000 C 0.29234 0.36754 0.01975 0.0
C3001 C 0.2842 0.35459 0.03155 0.0
C3002 C 0.29019 0.34538 0.03493 0.0
C3003 C 0.30435 0.34936 0.02731 0.0
C3004 C 0.26985 0.35114 0.04137 0.0
C3005 C 0.25797 0.34912 0.02859 0.0
C3006 C 0.26788 0.34974 0.06333 0.0
C3007 C 0.28019 0.35244 0.07776 0.0
C3008 C 0.27842 0.34135 0.09176 0.0
C3009 C 0.29004 0.34384 0.1053 0.0
C3010 C 0.30346 0.35743 0.10503 0.0
C3011 C 0.30528 0.36856 0.09128 0.0
C3012 C 0.29369 0.36613 0.07775 0.0
C3013 C 0.20184 0.31959 0.07651 0.0
C3014 C 0.20166 0.32725 0.09459 0.0
C3015 C 0.2147 0.32538 0.06408 0.0
C3016 C 0.22745 0.33897 0.06949 0.0
C3017 C 0.22678 0.34714 0.0866 0.0
C3018 C 0.21401 0.34132 0.09905 0.0
C3019 C 0.24201 0.34375 0.05918 0.0
C3020 C 0.25398 0.34595 0.0719 0.0
C3021 C 0.24405 0.34548 0.03724 0.0
C3022 C 0.23199 0.34382 0.0231 0.0
C3023 C 0.22496 0.35213 0.02659 0.0
C3024 C 0.21352 0.35045 0.01329 0.0
C3025 C 0.20908 0.34054 -0.00364 0.0
C3026 C 0.21609 0.33234 0.99265 0.0
C3027 C 0.22753 0.33397 0.00592 0.0
H3028 H 0.20023 0.33925 0.98608 0.0
H3029 H 0.31245 0.35933 0.1155 0.0
H3030 H 0.69131 0.66979 0.3852 0.0
H3031 H 0.71143 0.66525 0.39432 0.0
H3032 H 0.73661 0.69036 0.34063 0.0
H3033 H 0.71641 0.69495 0.33131 0.0
H3034 H 0.73791 0.66461 0.34603 0.0
H3035 H 0.74508 0.7063 0.38733 0.0
H3036 H 0.73833 0.72021 0.41202 0.0
H3037 H 0.72977 0.68825 0.45997 0.0
H3038 H 0.73614 0.67397 0.43543 0.0
H3039 H 0.80293 0.6816 0.42641 0.0
H3040 H 0.78794 0.6884 0.40483 0.0
H3041 H 0.75757 0.6421 0.39083 0.0
H3042 H 0.7728 0.63535 0.41208 0.0
H3043 H 0.76105 0.68093 0.41632 0.0
H3044 H 0.73661 0.63884 0.34729 0.0
H3045 H 0.74461 0.62594 0.32261 0.0
H3046 H 0.79023 0.66091 0.32949 0.0
H3047 H 0.7825 0.67412 0.35398 0.0
C3048 C 0.70108 0.6743 0.37523 0.0
C3049 C 0.70229 0.68283 0.35759 0.0
C3050 C 0.71259 0.67171 0.3805 0.0
C3051 C 0.7256 0.67759 0.36829 0.0
C3052 C 0.72668 0.68573 0.35029 0.0
C3053 C 0.71515 0.68839 0.34504 0.0
C3054 C 0.7382 0.67564 0.37483 0.0
C3055 C 0.74303 0.66821 0.36137 0.0
C3056 C 0.74502 0.68051 0.39474 0.0
C3057 C 0.74093 0.68897 0.40944 0.0
C3058 C 0.74158 0.70214 0.40305 0.0
C3059 C 0.73785 0.7101 0.41704 0.0
C3060 C 0.73357 0.70509 0.43753 0.0
C3061 C 0.73303 0.6921 0.44408 0.0
C3062 C 0.73669 0.68406 0.43012 0.0
C3063 C 0.79341 0.67295 0.41798 0.0
C3064 C 0.78903 0.65797 0.4208 0.0
C3065 C 0.78478 0.67682 0.40579 0.0
C3066 C 0.77155 0.66577 0.39629 0.0
C3067 C 0.76781 0.65085 0.39775 0.0
C3068 C 0.77654 0.64699 0.40984 0.0
C3069 C 0.7607 0.66969 0.38769 0.0
C3070 C 0.75609 0.67742 0.40088 0.0
C3071 C 0.75421 0.66516 0.36754 0.0
C3072 C 0.75897 0.65741 0.35261 0.0
C3073 C 0.74834 0.64381 0.34346 0.0
C3074 C 0.75283 0.63644 0.32952 0.0
C3075 C 0.76792 0.64258 0.32453 0.0
C3076 C 0.77855 0.65613 0.33343 0.0
C3077 C 0.77412 0.66356 0.34737 0.0
H3078 H 0.77138 0.63685 0.31374 0.0
H3079 H 0.73072 0.7113 0.44835 0.0
H3080 H 0.32519 0.0228 0.3719 0.0
H3081 H 0.33393 0.04772 0.38613 0.0
H3082 H 0.29485 0.04666 0.36138 0.0
H3083 H 0.28605 0.02184 0.34706 0.0
H3084 H 0.3201 0.07393 0.35582 0.0
H3085 H 0.29552 0.03882 0.41147 0.0
H3086 H 0.29108 0.0183 0.43485 0.0
H3087 H 0.33595 0.04388 0.45821 0.0
H3088 H 0.34072 0.06448 0.43473 0.0
H3089 H 0.32269 0.11875 0.45698 0.0
H3090 H 0.31356 0.09622 0.43577 0.0
H3091 H 0.35218 0.11872 0.39573 0.0
H3092 H 0.36125 0.14142 0.41686 0.0
H3093 H 0.32707 0.08083 0.43279 0.0
H3094 H 0.34382 0.10082 0.34759 0.0
H3095 H 0.34653 0.12093 0.32465 0.0
H3096 H 0.31404 0.12504 0.36123 0.0
H3097 H 0.31099 0.10482 0.38421 0.0
C3098 C 0.3185 0.0279 0.36934 0.0
C3099 C 0.30485 0.02024 0.35848 0.0
C3100 C 0.32351 0.04214 0.3775 0.0
C3101 C 0.31498 0.049 0.37493 0.0
C3102 C 0.30161 0.0416 0.36351 0.0
C3103 C 0.29656 0.02735 0.35546 0.0
C3104 C 0.31951 0.06352 0.38508 0.0
C3105 C 0.3217 0.07549 0.37264 0.0
C3106 C 0.32137 0.06548 0.40705 0.0
C3107 C 0.31852 0.05312 0.42118 0.0
C3108 C 0.30448 0.04002 0.42146 0.0
C3109 C 0.3019 0.02838 0.43475 0.0
C3110 C 0.31324 0.02977 0.44796 0.0
C3111 C 0.32718 0.04281 0.44794 0.0
C3112 C 0.32983 0.05447 0.43465 0.0
C3113 C 0.32902 0.11899 0.44331 0.0
C3114 C 0.34267 0.13181 0.43854 0.0
C3115 C 0.32385 0.1061 0.43128 0.0
C3116 C 0.33222 0.10572 0.41422 0.0
C3117 C 0.34545 0.11877 0.40868 0.0
C3118 C 0.3506 0.13176 0.4207 0.0
C3119 C 0.3277 0.09134 0.40356 0.0
C3120 C 0.32557 0.07937 0.41594 0.0
C3121 C 0.3257 0.08937 0.3816 0.0
C3122 C 0.3273 0.10141 0.36774 0.0
C3123 C 0.33722 0.10598 0.35069 0.0
C3124 C 0.33882 0.1174 0.33769 0.0
C3125 C 0.3305 0.12429 0.34152 0.0
C3126 C 0.32052 0.11973 0.35833 0.0
C3127 C 0.31887 0.10831 0.37136 0.0
H3128 H 0.33177 0.13314 0.33145 0.0
H3129 H 0.31122 0.02075 0.45825 0.0
H3130 H 0.97848 0.26948 0.33587 0.0
H3131 H 0.95271 0.25355 0.34694 0.0
H3132 H 0.95129 0.29182 0.36951 0.0
H3133 H 0.97728 0.30798 0.35854 0.0
H3134 H 0.93964 0.26926 0.39774 0.0
H3135 H 0.93283 0.2747 0.32539 0.0
H3136 H 0.93733 0.27501 0.2874 0.0
H3137 H 0.92372 0.22876 0.28875 0.0
H3138 H 0.91933 0.22821 0.32682 0.0
H3139 H 0.86505 0.22277 0.42432 0.0
H3140 H 0.88424 0.24189 0.40199 0.0
H3141 H 0.89665 0.21053 0.37993 0.0
H3142 H 0.8777 0.19146 0.40239 0.0
H3143 H 0.90089 0.23233 0.3496 0.0
H3144 H 0.91217 0.22843 0.42236 0.0
H3145 H 0.90695 0.22743 0.46023 0.0
H3146 H 0.91221 0.27088 0.4578 0.0
H3147 H 0.91712 0.27199 0.41978 0.0
C3148 C 0.97273 0.27458 0.34314 0.0
C3149 C 0.97998 0.29004 0.34629 0.0
C3150 C 0.95794 0.26543 0.34934 0.0
C3151 C 0.95 0.27151 0.35875 0.0
C3152 C 0.95719 0.28692 0.36214 0.0
C3153 C 0.97204 0.29612 0.35585 0.0
C3154 C 0.93439 0.26158 0.36575 0.0
C3155 C 0.93107 0.26145 0.38711 0.0
C3156 C 0.92326 0.2512 0.35194 0.0
C3157 C 0.92584 0.25144 0.32901 0.0
C3158 C 0.9309 0.26462 0.31762 0.0
C3159 C 0.93341 0.26483 0.29606 0.0
C3160 C 0.93084 0.25192 0.28568 0.0
C3161 C 0.92571 0.23876 0.29682 0.0
C3162 C 0.92319 0.23848 0.31839 0.0
C3163 C 0.87152 0.21982 0.41415 0.0
C3164 C 0.87007 0.2057 0.4154 0.0
C3165 C 0.88245 0.23074 0.40139 0.0
C3166 C 0.89204 0.22768 0.3897 0.0
C3167 C 0.88938 0.21311 0.38891 0.0
C3168 C 0.87848 0.20219 0.40172 0.0
C3169 C 0.9063 0.23995 0.38151 0.0
C3170 C 0.90938 0.24043 0.36005 0.0
C3171 C 0.91725 0.25064 0.3952 0.0
C3172 C 0.91484 0.25022 0.41819 0.0
C3173 C 0.91213 0.23774 0.42988 0.0
C3174 C 0.90922 0.23714 0.45137 0.0
C3175 C 0.90921 0.24907 0.46141 0.0
C3176 C 0.91218 0.26164 0.44999 0.0
C3177 C 0.91502 0.26225 0.42847 0.0
H3178 H 0.90693 0.24857 0.47804 0.0
H3179 H 0.93279 0.25211 0.26898 0.0
H3180 H 0.03762 0.38879 0.34262 0.0
H3181 H 0.03372 0.40957 0.33583 0.0
H3182 H 0.99032 0.37921 0.30971 0.0
H3183 H 0.99439 0.35849 0.3158 0.0
H3184 H 0.00465 0.40092 0.28434 0.0
H3185 H 0.99549 0.39792 0.35815 0.0
H3186 H 0.00069 0.39695 0.3956 0.0
H3187 H 0.04025 0.43997 0.39146 0.0
H3188 H 0.0354 0.44111 0.35391 0.0
H3189 H 0.98228 0.45142 0.26657 0.0
H3190 H 0.98281 0.43285 0.28901 0.0
H3191 H 0.03006 0.46191 0.29882 0.0
H3192 H 0.02961 0.48052 0.27622 0.0
H3193 H 0.013 0.44118 0.33414 0.0
H3194 H 0.02286 0.44246 0.25932 0.0
H3195 H 0.01678 0.44373 0.22234 0.0
H3196 H 0.97474 0.40326 0.22925 0.0
H3197 H 0.98046 0.40193 0.26642 0.0
C3198 C 0.02716 0.38653 0.3357 0.0
C3199 C 0.01634 0.37201 0.32964 0.0
C3200 C 0.02491 0.39842 0.33193 0.0
C3201 C 0.01167 0.39598 0.32238 0.0
C3202 C 0.00064 0.3814 0.31704 0.0
C3203 C 0.00297 0.36955 0.32056 0.0
C3204 C 0.00979 0.40867 0.31636 0.0
C3205 C 0.00623 0.40954 0.2954 0.0
C3206 C 0.0122 0.42019 0.33058 0.0
C3207 C 0.01515 0.41954 0.35316 0.0
C3208 C 0.00536 0.40712 0.36518 0.0
C3209 C 0.00823 0.40655 0.38644 0.0
C3210 C 0.02081 0.41837 0.39589 0.0
C3211 C 0.03052 0.43081 0.38412 0.0
C3212 C 0.02771 0.43143 0.36285 0.0
C3213 C 0.99264 0.4541 0.27426 0.0
C3214 C 0.00595 0.46729 0.26945 0.0
C3215 C 0.99293 0.4435 0.28707 0.0
C3216 C 0.00652 0.44594 0.29522 0.0
C3217 C 0.01947 0.45985 0.29265 0.0
C3218 C 0.01919 0.47049 0.27978 0.0
C3219 C 0.00773 0.43316 0.30238 0.0
C3220 C 0.01129 0.43239 0.32332 0.0
C3221 C 0.00527 0.42164 0.28822 0.0
C3222 C 0.00202 0.42218 0.2657 0.0
C3223 C 0.01228 0.43389 0.25299 0.0
C3224 C 0.00891 0.43461 0.23199 0.0
C3225 C 0.99537 0.4236 0.22346 0.0
C3226 C 0.98522 0.4118 0.23589 0.0
C3227 C 0.98852 0.41105 0.25692 0.0
H3228 H 0.99276 0.42419 0.20723 0.0
H3229 H 0.02301 0.41791 0.41235 0.0
H3230 H 0.60013 0.64666 0.33319 0.0
H3231 H 0.5841 0.62092 0.32217 0.0
H3232 H 0.62272 0.61613 0.31468 0.0
H3233 H 0.63894 0.6421 0.32532 0.0
H3234 H 0.60446 0.604 0.28237 0.0
H3235 H 0.59862 0.60072 0.35676 0.0
H3236 H 0.59359 0.6072 0.39187 0.0
H3237 H 0.54925 0.5951 0.37265 0.0
H3238 H 0.55408 0.58874 0.33733 0.0
H3239 H 0.5633 0.52705 0.26744 0.0
H3240 H 0.57825 0.54943 0.28879 0.0
H3241 H 0.54386 0.56072 0.28317 0.0
H3242 H 0.52901 0.53844 0.26148 0.0
H3243 H 0.5604 0.56847 0.32405 0.0
H3244 H 0.56745 0.57405 0.24882 0.0
H3245 H 0.57206 0.56638 0.21432 0.0
H3246 H 0.61437 0.57371 0.23594 0.0
H3247 H 0.60985 0.58112 0.27078 0.0
C3248 C 0.60526 0.64016 0.32927 0.0
C3249 C 0.62086 0.64648 0.33022 0.0
C3250 C 0.59604 0.62537 0.32307 0.0
C3251 C 0.60216 0.61647 0.31791 0.0
C3252 C 0.61773 0.62276 0.31868 0.0
C3253 C 0.62699 0.6376 0.32479 0.0
C3254 C 0.59229 0.60076 0.31115 0.0
C3255 C 0.595 0.5962 0.2917 0.0
C3256 C 0.57973 0.59058 0.32309 0.0
C3257 C 0.57677 0.59437 0.34434 0.0
C3258 C 0.58784 0.59955 0.35997 0.0
C3259 C 0.58501 0.60318 0.37992 0.0
C3260 C 0.57112 0.60159 0.38447 0.0
C3261 C 0.56001 0.59634 0.3691 0.0
C3262 C 0.56278 0.5927 0.34912 0.0
C3263 C 0.55867 0.53396 0.27162 0.0
C3264 C 0.54497 0.53101 0.26317 0.0
C3265 C 0.56724 0.54677 0.28366 0.0
C3266 C 0.56218 0.55674 0.2874 0.0
C3267 C 0.54789 0.5531 0.28055 0.0
C3268 C 0.53939 0.54037 0.26828 0.0
C3269 C 0.57265 0.57188 0.29543 0.0
C3270 C 0.56999 0.57631 0.31495 0.0
C3271 C 0.58527 0.58195 0.28361 0.0
C3272 C 0.58824 0.57799 0.26248 0.0
C3273 C 0.57769 0.57393 0.24627 0.0
C3274 C 0.58029 0.56964 0.22665 0.0
C3275 C 0.59348 0.56953 0.22295 0.0
C3276 C 0.60414 0.57378 0.23885 0.0
C3277 C 0.60157 0.57803 0.25854 0.0
H3278 H 0.59545 0.56617 0.20775 0.0
H3279 H 0.56895 0.60441 0.39993 0.0
H3280 H 0.34869 0.96749 0.3577 0.0
H3281 H 0.37285 0.96988 0.34943 0.0
H3282 H 0.38132 0.00376 0.30423 0.0
H3283 H 0.35741 0.0016 0.31264 0.0
H3284 H 0.3808 0.96358 0.31381 0.0
H3285 H 0.41767 0.02718 0.29736 0.0
H3286 H 0.4217 0.05076 0.31234 0.0
H3287 H 0.40519 0.02979 0.37181 0.0
H3288 H 0.40126 0.00613 0.3573 0.0
H3289 H 0.42985 0.98125 0.2308 0.0
H3290 H 0.41165 0.97848 0.25719 0.0
H3291 H 0.44664 -0.00147 0.30361 0.0
H3292 H 0.46511 0.00151 0.27679 0.0
H3293 H 0.42877 0.01073 0.30408 0.0
H3294 H 0.42134 0.96234 0.30781 0.0
H3295 H 0.41797 0.9386 0.29454 0.0
H3296 H 0.37686 0.92876 0.26495 0.0
H3297 H 0.38009 0.95253 0.27776 0.0
C3298 C 0.35584 0.97564 0.34629 0.0
C3299 C 0.35111 0.98432 0.33578 0.0
C3300 C 0.36963 0.97698 0.34155 0.0
C3301 C 0.37899 0.98708 0.32632 0.0
C3302 C 0.37447 0.99609 0.31633 0.0
C3303 C 0.36072 0.99477 0.32106 0.0
C3304 C 0.39271 0.98723 0.31921 0.0
C3305 C 0.39134 0.97387 0.31196 0.0
C3306 C 0.40662 0.00059 0.31728 0.0
C3307 C 0.4091 0.01484 0.32618 0.0
C3308 C 0.41499 0.02761 0.31367 0.0
C3309 C 0.41723 0.04099 0.32207 0.0
C3310 C 0.41368 0.04177 0.343 0.0
C3311 C 0.4079 0.02916 0.35559 0.0
C3312 C 0.40564 0.01576 0.34727 0.0
C3313 C 0.43366 0.98497 0.24667 0.0
C3314 C 0.44887 0.99169 0.25177 0.0
C3315 C 0.42324 0.98328 0.26178 0.0
C3316 C 0.42775 0.98817 0.28243 0.0
C3317 C 0.44293 0.99463 0.28777 0.0
C3318 C 0.45343 0.99626 0.27254 0.0
C3319 C 0.41653 0.98722 0.29776 0.0
C3320 C 0.41834 0.00041 0.30648 0.0
C3321 C 0.40309 0.97368 0.30136 0.0
C3322 C 0.40099 0.95926 0.29373 0.0
C3323 C 0.41162 0.95515 0.29838 0.0
C3324 C 0.40973 0.94168 0.29094 0.0
C3325 C 0.39721 0.93218 0.2789 0.0
C3326 C 0.38654 0.93612 0.2743 0.0
C3327 C 0.38838 0.94959 0.28169 0.0
H3328 H 0.39577 0.92176 0.27315 0.0
H3329 H 0.41542 0.05213 0.34947 0.0
H3330 H 0.59489 0.94677 0.3307 0.0
H3331 H 0.57851 0.95499 0.31677 0.0
H3332 H 0.61647 -0.00142 0.306 0.0
H3333 H 0.6331 0.99046 0.32007 0.0
H3334 H 0.59182 -0.00066 0.3229 0.0
H3335 H 0.6025 0.97647 0.26576 0.0
H3336 H 0.60503 0.95698 0.24749 0.0
H3337 H 0.55826 0.92611 0.25611 0.0
H3338 H 0.55549 0.94536 0.27472 0.0
H3339 H 0.55402 0.01958 0.24671 0.0
H3340 H 0.57088 0.01525 0.26823 0.0
H3341 H 0.53543 0.9703 0.27917 0.0
H3342 H 0.51867 0.97441 0.25729 0.0
H3343 H 0.55996 0.97157 0.26204 0.0
H3344 H 0.54952 0.99529 0.31903 0.0
H3345 H 0.54753 0.01537 0.33639 0.0
H3346 H 0.59436 0.04546 0.32677 0.0
H3347 H 0.5966 0.0256 0.30907 0.0
C3348 C 0.59982 0.95814 0.32547 0.0
C3349 C 0.61535 0.96793 0.32638 0.0
C3350 C 0.59041 0.96281 0.31748 0.0
C3351 C 0.59629 0.97734 0.31017 0.0
C3352 C 0.61173 0.98731 0.31155 0.0
C3353 C 0.6212 0.98262 0.3195 0.0
C3354 C 0.58625 0.98181 0.30041 0.0
C3355 C 0.58498 0.99342 0.30943 0.0
C3356 C 0.57721 0.97395 0.28299 0.0
C3357 C 0.57882 0.96232 0.27182 0.0
C3358 C 0.59278 0.96549 0.26392 0.0
C3359 C 0.59425 0.95449 0.25348 0.0
C3360 C 0.58182 0.9403 0.25069 0.0
C3361 C 0.56788 0.9371 0.25831 0.0
C3362 C 0.56635 0.94805 0.26879 0.0
C3363 C 0.54972 0.0089 0.25418 0.0
C3364 C 0.53503 0.99732 0.2502 0.0
C3365 C 0.55935 0.00646 0.26652 0.0
C3366 C 0.55442 0.99243 0.27522 0.0
C3367 C 0.53946 0.9812 0.27256 0.0
C3368 C 0.52983 0.98363 0.26023 0.0
C3369 C 0.56521 0.98887 0.28481 0.0
C3370 C 0.56673 0.97748 0.27559 0.0
C3371 C 0.57451 0.99703 0.30188 0.0
C3372 C 0.5732 0.00899 0.31253 0.0
C3373 C 0.55937 0.00622 0.32044 0.0
C3374 C 0.5582 0.01756 0.33038 0.0
C3375 C 0.5708 0.03169 0.33263 0.0
C3376 C 0.58461 0.03451 0.32499 0.0
C3377 C 0.58584 0.02321 0.31502 0.0
H3378 H 0.56987 0.04046 0.34033 0.0
H3379 H 0.58298 0.93181 0.24259 0.0
H3380 H 0.99606 0.64378 0.31313 0.0
H3381 H 0.99314 0.61958 0.30443 0.0
H3382 H 0.03423 0.63189 0.3368 0.0
H3383 H 0.03719 0.65607 0.34568 0.0
H3384 H 0.03321 0.62151 0.29644 0.0
H3385 H 0.00226 0.6062 0.35763 0.0
H3386 H 0.98195 0.60362 0.38055 0.0
H3387 H 0.94983 0.57888 0.33242 0.0
H3388 H 0.96998 0.58149 0.30909 0.0
H3389 H 0.02845 0.55395 0.27231 0.0
H3390 H 0.02958 0.57343 0.29496 0.0
H3391 H 0.98603 0.56306 0.2733 0.0
H3392 H 0.98437 0.54291 0.25175 0.0
H3393 H 0.98924 0.57216 0.3121 0.0
H3394 H 0.0191 0.59029 0.24949 0.0
H3395 H 0.03869 0.59347 0.22448 0.0
H3396 H 0.07182 0.61357 0.27287 0.0
H3397 H 0.05242 0.61037 0.2982 0.0
C3398 C 0.00438 0.64127 0.31861 0.0
C3399 C 0.01688 0.65186 0.33004 0.0
C3400 C 0.00266 0.62741 0.31372 0.0
C3401 C 0.01343 0.62391 0.32007 0.0
C3402 C 0.02577 0.63436 0.3318 0.0
C3403 C 0.02743 0.64816 0.33688 0.0
C3404 C 0.01238 0.60983 0.3131 0.0
C3405 C 0.02375 0.6107 0.30023 0.0
C3406 C -0.00019 0.59577 0.31754 0.0
C3407 C 0.98766 0.59415 0.33155 0.0
C3408 C 0.99089 0.60032 0.35187 0.0
C3409 C 0.97939 0.59883 0.36494 0.0
C3410 C 0.96461 0.59112 0.35793 0.0
C3411 C 0.96129 0.58485 0.33783 0.0
C3412 C 0.97274 0.58632 0.32468 0.0
C3413 C 0.01886 0.55541 0.27295 0.0
C3414 C 0.00643 0.54701 0.25989 0.0
C3415 C 0.01962 0.56672 0.28571 0.0
C3416 C 0.0081 0.57005 0.28533 0.0
C3417 C 0.99514 0.56085 0.27371 0.0
C3418 C 0.99427 0.54939 0.26124 0.0
C3419 C 0.01005 0.58384 0.29531 0.0
C3420 C -0.00117 0.58295 0.30861 0.0
C3421 C 0.02263 0.59796 0.29098 0.0
C3422 C 0.0343 0.59993 0.27577 0.0
C3423 C 0.03056 0.59529 0.2548 0.0
C3424 C 0.04161 0.59711 0.24058 0.0
C3425 C 0.05647 0.60366 0.24711 0.0
C3426 C 0.06031 0.60846 0.26785 0.0
C3427 C 0.04929 0.60666 0.28214 0.0
H3428 H 0.06501 0.60506 0.23607 0.0
H3429 H 0.95573 0.58997 0.36808 0.0
H3430 H 0.35744 0.35679 0.32316 0.0
H3431 H 0.38362 0.37333 0.31346 0.0
H3432 H 0.37909 0.41139 0.32673 0.0
H3433 H 0.35313 0.39506 0.33667 0.0
H3434 H 0.39548 0.39294 0.28295 0.0
H3435 H 0.41137 0.44008 0.3447 0.0
H3436 H 0.40558 0.44269 0.38144 0.0
H3437 H 0.39417 0.39778 0.39357 0.0
H3438 H 0.4001 0.39496 0.357 0.0
H3439 H 0.45003 0.46187 0.24815 0.0
H3440 H 0.42898 0.44565 0.27056 0.0
H3441 H 0.45618 0.43148 0.3021 0.0
H3442 H 0.47722 0.44727 0.27901 0.0
H3443 H 0.43129 0.43554 0.32714 0.0
H3444 H 0.44141 0.41061 0.2714 0.0
H3445 H 0.448 0.40803 0.23513 0.0
H3446 H 0.40792 0.40557 0.21283 0.0
H3447 H 0.40153 0.40912 0.24882 0.0
C3448 C 0.36204 0.36868 0.32409 0.0
C3449 C 0.35315 0.37457 0.33072 0.0
C3450 C 0.37701 0.37812 0.31855 0.0
C3451 C 0.38341 0.39361 0.31968 0.0
C3452 C 0.37453 0.39949 0.32617 0.0
C3453 C 0.35961 0.3901 0.3317 0.0
C3454 C 0.39912 0.40373 0.31307 0.0
C3455 C 0.40334 0.40212 0.29275 0.0
C3456 C 0.40951 0.41563 0.32593 0.0
C3457 C 0.40608 0.41729 0.34804 0.0
C3458 C 0.4077 0.43079 0.35523 0.0
C3459 C 0.40438 0.43229 0.37603 0.0
C3460 C 0.39947 0.4204 0.38982 0.0
C3461 C 0.39792 0.40697 0.38285 0.0
C3462 C 0.40124 0.40541 0.36208 0.0
C3463 C 0.45168 0.45564 0.26027 0.0
C3464 C 0.46518 0.45561 0.26157 0.0
C3465 C 0.43966 0.4464 0.27306 0.0
C3466 C 0.44101 0.43723 0.28768 0.0
C3467 C 0.45497 0.43849 0.29083 0.0
C3468 C 0.467 0.44758 0.27772 0.0
C3469 C 0.42731 0.42488 0.29698 0.0
C3470 C 0.42347 0.42615 0.31762 0.0
C3471 C 0.41734 0.4125 0.28458 0.0
C3472 C 0.42114 0.41042 0.26283 0.0
C3473 C 0.43417 0.40989 0.25873 0.0
C3474 C 0.43788 0.40828 0.23819 0.0
C3475 C 0.42847 0.40683 0.22163 0.0
C3476 C 0.41532 0.40697 0.22561 0.0
C3477 C 0.41168 0.40883 0.24608 0.0
H3478 H 0.4313 0.40548 0.20575 0.0
H3479 H 0.39689 0.42158 0.4059 0.0
H3480 H 0.29771 0.27566 0.33979 0.0
H3481 H 0.30302 0.25594 0.34831 0.0
H3482 H 0.34463 0.2883 0.37697 0.0
H3483 H 0.33935 0.308 0.36873 0.0
H3484 H 0.34676 0.26673 0.35188 0.0
H3485 H 0.31585 0.26948 0.40724 0.0
H3486 H 0.29328 0.26883 0.42081 0.0
H3487 H 0.26594 0.2248 0.39575 0.0
H3488 H 0.28836 0.22528 0.38178 0.0
H3489 H 0.36682 0.23132 0.42733 0.0
H3490 H 0.36068 0.24593 0.40419 0.0
H3491 H 0.31671 0.2078 0.39429 0.0
H3492 H 0.32275 0.19342 0.41849 0.0
H3493 H 0.31366 0.22951 0.40403 0.0
H3494 H 0.34448 0.22468 0.35354 0.0
H3495 H 0.36668 0.22486 0.33945 0.0
H3496 H 0.39358 0.27147 0.35319 0.0
H3497 H 0.37159 0.27154 0.36765 0.0
C3498 C 0.30806 0.27858 0.3477 0.0
C3499 C 0.31807 0.29337 0.35372 0.0
C3500 C 0.31106 0.26731 0.35257 0.0
C3501 C 0.32419 0.27066 0.36334 0.0
C3502 C 0.33446 0.28548 0.3686 0.0
C3503 C 0.33138 0.29671 0.36398 0.0
C3504 C 0.32686 0.25871 0.37044 0.0
C3505 C 0.33957 0.25858 0.36331 0.0
C3506 C 0.31719 0.24779 0.3848 0.0
C3507 C 0.30374 0.24749 0.39325 0.0
C3508 C 0.30501 0.25971 0.40447 0.0
C3509 C 0.29225 0.25937 0.41226 0.0
C3510 C 0.27818 0.2468 0.40908 0.0
C3511 C 0.27684 0.23454 0.39816 0.0
C3512 C 0.28957 0.23484 0.39031 0.0
C3513 C 0.35604 0.22596 0.41959 0.0
C3514 C 0.34533 0.21124 0.4243 0.0
C3515 C 0.35252 0.23429 0.4063 0.0
C3516 C 0.33826 0.22798 0.39715 0.0
C3517 C 0.32779 0.21295 0.40106 0.0
C3518 C 0.33126 0.20468 0.41468 0.0
C3519 C 0.3338 0.23756 0.38579 0.0
C3520 C 0.32074 0.23734 0.3922 0.0
C3521 C 0.34309 0.24803 0.37057 0.0
C3522 C 0.35637 0.24809 0.36179 0.0
C3523 C 0.35514 0.23495 0.35369 0.0
C3524 C 0.36769 0.23501 0.34561 0.0
C3525 C 0.38153 0.24816 0.34545 0.0
C3526 C 0.38285 0.26129 0.35332 0.0
C3527 C 0.37033 0.26129 0.36143 0.0
H3528 H 0.39124 0.24819 0.3392 0.0
H3529 H 0.26831 0.24655 0.41514 0.0
H3530 H 0.71407 0.0121 0.33176 0.0
H3531 H 0.73542 0.0369 0.33885 0.0
H3532 H 0.70698 0.04811 0.37409 0.0
H3533 H 0.68559 0.02332 0.36719 0.0
H3534 H 0.72817 0.07162 0.34834 0.0
H3535 H 0.72603 0.03674 0.39995 0.0
H3536 H 0.72517 0.0138 0.41121 0.0
H3537 H 0.76679 0.02746 0.38003 0.0
H3538 H 0.76779 0.0504 0.36834 0.0
H3539 H 0.77372 0.12572 0.42323 0.0
H3540 H 0.75584 0.10587 0.40045 0.0
H3541 H 0.79018 0.09694 0.38013 0.0
H3542 H 0.80792 0.11622 0.40393 0.0
H3543 H 0.76778 0.07278 0.39288 0.0
H3544 H 0.77213 0.10975 0.34592 0.0
H3545 H 0.77313 0.13276 0.33474 0.0
H3546 H 0.72816 0.11582 0.35607 0.0
H3547 H 0.72695 0.09278 0.36766 0.0
C3548 C 0.71232 0.01991 0.34078 0.0
C3549 C 0.69817 0.01571 0.34907 0.0
C3550 C 0.72453 0.03407 0.34481 0.0
C3551 C 0.72279 0.04429 0.35709 0.0
C3552 C 0.70855 0.04038 0.36453 0.0
C3553 C 0.69636 0.02619 0.36068 0.0
C3554 C 0.73596 0.05856 0.36371 0.0
C3555 C 0.73685 0.07195 0.35812 0.0
C3556 C 0.74745 0.05894 0.37597 0.0
C3557 C 0.74689 0.04518 0.38305 0.0
C3558 C 0.73493 0.03479 0.39534 0.0
C3559 C 0.73443 0.0218 0.40183 0.0
C3560 C 0.74589 0.01915 0.39628 0.0
C3561 C 0.75791 0.02951 0.38428 0.0
C3562 C 0.75844 0.0425 0.37772 0.0
C3563 C 0.77755 0.1197 0.41363 0.0
C3564 C 0.7922 0.12242 0.41567 0.0
C3565 C 0.76732 0.10844 0.40038 0.0
C3566 C 0.77161 0.09985 0.38848 0.0
C3567 C 0.78657 0.10336 0.3892 0.0
C3568 C 0.79677 0.11452 0.40267 0.0
C3569 C 0.76009 0.08606 0.37772 0.0
C3570 C 0.75939 0.07265 0.38267 0.0
C3571 C 0.74885 0.08573 0.36479 0.0
C3572 C 0.74949 0.09955 0.35778 0.0
C3573 C 0.76249 0.11096 0.34837 0.0
C3574 C 0.76308 0.12401 0.34193 0.0
C3575 C 0.75072 0.12576 0.34472 0.0
C3576 C 0.73772 0.11445 0.35392 0.0
C3577 C 0.73707 0.10138 0.36039 0.0
H3578 H 0.75121 0.13587 0.33973 0.0
H3579 H 0.74549 0.00909 0.40133 0.0
H3580 H 0.97317 0.67342 0.35431 0.0
H3581 H 0.94723 0.66365 0.36548 0.0
H3582 H 0.95742 0.70797 0.38166 0.0
H3583 H 0.98321 0.71783 0.37037 0.0
H3584 H 0.94128 0.68629 0.41284 0.0
H3585 H 0.93983 0.6936 0.33802 0.0
H3586 H 0.94365 0.68976 0.30087 0.0
H3587 H 0.91417 0.64277 0.30743 0.0
H3588 H 0.91033 0.64632 0.34473 0.0
H3589 H 0.87319 0.67927 0.43201 0.0
H3590 H 0.89612 0.68745 0.41191 0.0
H3591 H 0.88044 0.64215 0.39297 0.0
H3592 H 0.85729 0.63402 0.41273 0.0
H3593 H 0.89884 0.66242 0.36281 0.0
H3594 H 0.89977 0.65371 0.43584 0.0
H3595 H 0.89527 0.65588 0.47332 0.0
H3596 H 0.92546 0.70299 0.47113 0.0
H3597 H 0.92997 0.70113 0.43353 0.0
C3598 C 0.96989 0.68106 0.36034 0.0
C3599 C 0.98024 0.6964 0.36142 0.0
C3600 C 0.95507 0.67548 0.3666 0.0
C3601 C 0.95043 0.68512 0.37426 0.0
C3602 C 0.9608 0.70036 0.37576 0.0
C3603 C 0.97552 0.70597 0.36925 0.0
C3604 C 0.93478 0.67943 0.38083 0.0
C3605 C 0.93203 0.68122 0.40186 0.0
C3606 C 0.92267 0.67233 0.36663 0.0
C3607 C 0.92493 0.67021 0.34421 0.0
C3608 C 0.93427 0.68244 0.33159 0.0
C3609 C 0.93642 0.68032 0.3105 0.0
C3610 C 0.9292 0.66603 0.30181 0.0
C3611 C 0.91978 0.65383 0.31419 0.0
C3612 C 0.91761 0.65589 0.3353 0.0
C3613 C 0.87436 0.6712 0.42271 0.0
C3614 C 0.86356 0.65606 0.42378 0.0
C3615 C 0.88748 0.67583 0.4114 0.0
C3616 C 0.8901 0.66534 0.4014 0.0
C3617 C 0.87864 0.6504 0.40064 0.0
C3618 C 0.86541 0.64578 0.41182 0.0
C3619 C 0.90543 0.66966 0.39468 0.0
C3620 C 0.90811 0.6675 0.37376 0.0
C3621 C 0.91749 0.67615 0.40907 0.0
C3622 C 0.91511 0.6773 0.43182 0.0
C3623 C 0.90539 0.66454 0.44333 0.0
C3624 C 0.90285 0.66571 0.46459 0.0
C3625 C 0.91004 0.67956 0.47459 0.0
C3626 C 0.91987 0.69226 0.46336 0.0
C3627 C 0.92245 0.69116 0.44207 0.0
H3628 H 0.90802 0.68045 0.49104 0.0
H3629 H 0.93087 0.66441 0.28548 0.0
H3630 H 0.38395 0.02604 0.66614 0.0
H3631 H 0.40369 0.02032 0.67307 0.0
H3632 H 0.38217 -0.00048 0.73118 0.0
H3633 H 0.36227 0.0047 0.72399 0.0
H3634 H 0.42388 0.02866 0.70142 0.0
H3635 H 0.38744 0.97224 0.74462 0.0
H3636 H 0.36211 0.95032 0.74202 0.0
H3637 H 0.35976 0.9598 0.67727 0.0
H3638 H 0.38515 0.98165 0.67938 0.0
H3639 H 0.46413 0.0149 0.77647 0.0
H3640 H 0.44865 0.01991 0.75348 0.0
H3641 H 0.43591 0.97949 0.71899 0.0
H3642 H 0.45054 0.97383 0.7431 0.0
H3643 H 0.41247 0.97939 0.72735 0.0
H3644 H 0.45724 0.01607 0.69683 0.0
H3645 H 0.4831 0.0371 0.69485 0.0
H3646 H 0.46997 0.06539 0.72559 0.0
H3647 H 0.44407 0.04449 0.72804 0.0
C3648 C 0.38338 0.02012 0.68028 0.0
C3649 C 0.37148 0.01573 0.69444 0.0
C3650 C 0.39469 0.01689 0.68426 0.0
C3651 C 0.39434 0.00926 0.70249 0.0
C3652 C 0.38253 0.00504 0.71671 0.0
C3653 C 0.37117 0.0081 0.71264 0.0
C3654 C 0.40652 0.00612 0.70725 0.0
C3655 C 0.42141 0.01786 0.70693 0.0
C3656 C 0.40343 0.99189 0.71366 0.0
C3657 C 0.38819 0.97865 0.71222 0.0
C3658 C 0.38156 0.9696 0.72979 0.0
C3659 C 0.36718 0.9572 0.72841 0.0
C3660 C 0.35932 0.95369 0.7095 0.0
C3661 C 0.36584 0.96256 0.69192 0.0
C3662 C 0.38022 0.97496 0.69321 0.0
C3663 C 0.45819 0.00714 0.76383 0.0
C3664 C 0.45842 0.99383 0.7619 0.0
C3665 C 0.44945 0.01013 0.75044 0.0
C3666 C 0.44106 0.00012 0.73433 0.0
C3667 C 0.44219 0.98738 0.73134 0.0
C3668 C 0.45075 0.98424 0.745 0.0
C3669 C 0.42983 0.00211 0.72248 0.0
C3670 C 0.41506 0.99014 0.72147 0.0
C3671 C 0.43313 0.016 0.71416 0.0
C3672 C 0.4487 0.02866 0.71269 0.0
C3673 C 0.45988 0.02675 0.70329 0.0
C3674 C 0.47454 0.03865 0.70207 0.0
C3675 C 0.47818 0.05257 0.71011 0.0
C3676 C 0.46714 0.05461 0.71936 0.0
C3677 C 0.45245 0.04274 0.72063 0.0
H3678 H 0.48954 0.06177 0.70916 0.0
H3679 H 0.34818 0.94409 0.70847 0.0
H3680 H 0.99397 0.35923 0.68592 0.0
H3681 H 0.00223 0.38456 0.69783 0.0
H3682 H 0.9563 0.37314 0.70492 0.0
H3683 H 0.94802 0.34805 0.69229 0.0
H3684 H 0.97093 0.39915 0.68865 0.0
H3685 H 0.97943 0.37586 0.74746 0.0
H3686 H 0.98969 0.36242 0.76611 0.0
H3687 H 0.03427 0.39735 0.75226 0.0
H3688 H 0.02426 0.41093 0.73329 0.0
H3689 H 0.97763 0.45011 0.7697 0.0
H3690 H 0.97239 0.42924 0.74639 0.0
H3691 H 0.01907 0.45053 0.73029 0.0
H3692 H 0.02428 0.47159 0.7533 0.0
H3693 H 0.00655 0.42152 0.74782 0.0
H3694 H 0.99663 0.44612 0.69287 0.0
H3695 H 0.98509 0.45922 0.67668 0.0
H3696 H 0.94152 0.42115 0.68616 0.0
H3697 H 0.95279 0.40789 0.7027 0.0
C3698 C 0.98564 0.36212 0.69005 0.0
C3699 C 0.97033 0.35159 0.68823 0.0
C3700 C 0.99037 0.37661 0.69691 0.0
C3701 C 0.9799 0.38077 0.70255 0.0
C3702 C 0.96462 0.37026 0.70062 0.0
C3703 C 0.95989 0.35587 0.69347 0.0
C3704 C 0.98473 0.39596 0.71068 0.0
C3705 C 0.97864 0.40397 0.70169 0.0
C3706 C 0.99506 0.40247 0.72741 0.0
C3707 C 0.00109 0.39431 0.73874 0.0
C3708 C 0.99142 0.38062 0.74824 0.0
C3709 C 0.99719 0.37299 0.7589 0.0
C3710 C 0.01262 0.379 0.76031 0.0
C3711 C 0.02232 0.39269 0.75111 0.0
C3712 C 0.0166 0.40036 0.74042 0.0
C3713 C 0.98664 0.45057 0.76052 0.0
C3714 C 0.00131 0.46247 0.76304 0.0
C3715 C 0.98367 0.43865 0.74729 0.0
C3716 C 0.99536 0.43835 0.73666 0.0
C3717 C 0.00991 0.4506 0.73831 0.0
C3718 C 0.01284 0.46265 0.75127 0.0
C3719 C 0.99258 0.42452 0.72598 0.0
C3720 C -0.00097 0.41675 0.73456 0.0
C3721 C 0.98239 0.41813 0.70917 0.0
C3722 C 0.97556 0.42605 0.69918 0.0
C3723 C 0.98458 0.44058 0.69167 0.0
C3724 C 0.97809 0.44803 0.6824 0.0
C3725 C 0.96258 0.44103 0.68043 0.0
C3726 C 0.95353 0.42656 0.6877 0.0
C3727 C 0.95997 0.41907 0.697 0.0
H3728 H 0.95757 0.44682 0.67324 0.0
H3729 H 0.01706 0.37308 0.76857 0.0
H3730 H 0.64304 0.64084 0.68748 0.0
H3731 H 0.61798 0.62344 0.70042 0.0
H3732 H 0.6247 0.58677 0.68661 0.0
H3733 H 0.64964 0.60402 0.67333 0.0
H3734 H 0.59732 0.58049 0.67461 0.0
H3735 H 0.62803 0.60022 0.73649 0.0
H3736 H 0.64546 0.61994 0.76065 0.0
H3737 H 0.61406 0.63476 0.76905 0.0
H3738 H 0.59651 0.61523 0.74471 0.0
H3739 H 0.54782 0.52418 0.74403 0.0
H3740 H 0.56758 0.5428 0.72207 0.0
H3741 H 0.55455 0.57459 0.73947 0.0
H3742 H 0.53459 0.55591 0.76142 0.0
H3743 H 0.58346 0.5849 0.74763 0.0
H3744 H 0.55134 0.56276 0.68887 0.0
H3745 H 0.5339 0.54242 0.66555 0.0
H3746 H 0.56771 0.53154 0.65179 0.0
H3747 H 0.58531 0.55169 0.67527 0.0
C3748 C 0.6392 0.62907 0.68719 0.0
C3749 C 0.64841 0.62384 0.67945 0.0
C3750 C 0.62487 0.61914 0.69462 0.0
C3751 C 0.61951 0.60381 0.69463 0.0
C3752 C 0.62859 0.59855 0.6867 0.0
C3753 C 0.64289 0.60845 0.67921 0.0
C3754 C 0.60458 0.59322 0.7033 0.0
C3755 C 0.59431 0.58138 0.69061 0.0
C3756 C 0.60049 0.59463 0.72399 0.0
C3757 C 0.61104 0.60639 0.73858 0.0
C3758 C 0.6249 0.60777 0.74334 0.0
C3759 C 0.63479 0.61889 0.7571 0.0
C3760 C 0.63089 0.62863 0.76632 0.0
C3761 C 0.61708 0.62723 0.76185 0.0
C3762 C 0.60716 0.61614 0.74809 0.0
C3763 C 0.54875 0.53494 0.74256 0.0
C3764 C 0.53966 0.53859 0.75454 0.0
C3765 C 0.56012 0.54562 0.73004 0.0
C3766 C 0.56256 0.5601 0.72915 0.0
C3767 C 0.55289 0.5635 0.74 0.0
C3768 C 0.5415 0.55281 0.7525 0.0
C3769 C 0.57624 0.57204 0.71903 0.0
C3770 C 0.58633 0.58412 0.73149 0.0
C3771 C 0.58015 0.5708 0.69818 0.0
C3772 C 0.56962 0.55869 0.68396 0.0
C3773 C 0.55503 0.55596 0.681 0.0
C3774 C 0.54512 0.54448 0.66773 0.0
C3775 C 0.54969 0.53567 0.65723 0.0
C3776 C 0.56419 0.53836 0.65994 0.0
C3777 C 0.57415 0.54983 0.67321 0.0
H3778 H 0.54199 0.52678 0.64696 0.0
H3779 H 0.63856 0.63723 0.77697 0.0
H3780 H 0.69783 0.72257 0.67405 0.0
H3781 H 0.69132 0.74165 0.66787 0.0
H3782 H 0.64783 0.70807 0.64558 0.0
H3783 H 0.65447 0.68903 0.6511 0.0
H3784 H 0.66022 0.72893 0.61837 0.0
H3785 H 0.65302 0.7286 0.69217 0.0
H3786 H 0.65924 0.72937 0.72958 0.0
H3787 H 0.6973 0.77309 0.72206 0.0
H3788 H 0.69144 0.77251 0.68453 0.0
H3789 H 0.64246 0.78188 0.59068 0.0
H3790 H 0.64032 0.76236 0.61388 0.0
H3791 H 0.68627 0.79043 0.63261 0.0
H3792 H 0.68834 0.81007 0.60972 0.0
H3793 H 0.66901 0.77109 0.66447 0.0
H3794 H 0.68035 0.76741 0.59074 0.0
H3795 H 0.67604 0.76671 0.55267 0.0
H3796 H 0.63086 0.73118 0.56075 0.0
H3797 H 0.63509 0.73135 0.59889 0.0
C3798 C 0.68678 0.71922 0.66819 0.0
C3799 C 0.67671 0.70432 0.66287 0.0
C3800 C 0.68302 0.73014 0.6648 0.0
C3801 C 0.66903 0.72632 0.65637 0.0
C3802 C 0.6587 0.71131 0.65206 0.0
C3803 C 0.66251 0.70043 0.65522 0.0
C3804 C 0.66587 0.73806 0.64968 0.0
C3805 C 0.66174 0.73789 0.62872 0.0
C3806 C 0.66827 0.75005 0.66289 0.0
C3807 C 0.67184 0.75047 0.68548 0.0
C3808 C 0.66278 0.73834 0.69845 0.0
C3809 C 0.66623 0.73875 0.71969 0.0
C3810 C 0.67868 0.75126 0.72818 0.0
C3811 C 0.68767 0.7634 0.71546 0.0
C3812 C 0.68428 0.76305 0.69421 0.0
C3813 C 0.65189 0.78409 0.60045 0.0
C3814 C 0.66559 0.79741 0.59834 0.0
C3815 C 0.65069 0.77292 0.61359 0.0
C3816 C 0.66325 0.77483 0.62456 0.0
C3817 C 0.67646 0.78872 0.62423 0.0
C3818 C 0.67762 0.79996 0.61122 0.0
C3819 C 0.66338 0.7618 0.63335 0.0
C3820 C 0.66708 0.76183 0.65449 0.0
C3821 C 0.66065 0.74963 0.62038 0.0
C3822 C 0.65799 0.74949 0.59759 0.0
C3823 C 0.66949 0.75949 0.58438 0.0
C3824 C 0.66707 0.75918 0.56281 0.0
C3825 C 0.65313 0.74906 0.55431 0.0
C3826 C 0.64163 0.73906 0.56737 0.0
C3827 C 0.64407 0.73918 0.58894 0.0
H3828 H 0.65129 0.7489 0.53761 0.0
H3829 H 0.68133 0.75155 0.74463 0.0
H3830 H 0.30633 0.97514 0.67046 0.0
H3831 H 0.28965 0.94964 0.65833 0.0
H3832 H 0.2551 0.96007 0.64672 0.0
H3833 H 0.27146 0.98529 0.65962 0.0
H3834 H 0.24293 0.9344 0.66346 0.0
H3835 H 0.27761 0.95727 0.60663 0.0
H3836 H 0.30237 0.97073 0.58983 0.0
H3837 H 0.3111 0.93635 0.60785 0.0
H3838 H 0.28645 0.92277 0.62499 0.0
H3839 H 0.19986 0.88063 0.58471 0.0
H3840 H 0.21564 0.90261 0.60627 0.0
H3841 H 0.24166 0.88315 0.62551 0.0
H3842 H 0.22581 0.86107 0.60402 0.0
H3843 H 0.25859 0.91165 0.60797 0.0
H3844 H 0.22149 0.88753 0.66113 0.0
H3845 H 0.19594 0.87436 0.67545 0.0
H3846 H 0.19092 0.91172 0.66144 0.0
H3847 H 0.21638 0.92504 0.64675 0.0
C3848 C 0.29519 0.97199 0.66529 0.0
C3849 C 0.29025 0.98227 0.66597 0.0
C3850 C 0.28566 0.95741 0.65828 0.0
C3851 C 0.27112 0.95291 0.65132 0.0
C3852 C 0.26621 0.96319 0.65205 0.0
C3853 C 0.27562 0.97766 0.65937 0.0
C3854 C 0.26096 0.93757 0.64323 0.0
C3855 C 0.24635 0.92951 0.6512 0.0
C3856 C 0.26544 0.93095 0.62756 0.0
C3857 C 0.28027 0.9391 0.6173 0.0
C3858 C 0.28486 0.95264 0.60715 0.0
C3859 C 0.29886 0.96028 0.59754 0.0
C3860 C 0.30832 0.95442 0.59783 0.0
C3861 C 0.30378 0.94089 0.60768 0.0
C3862 C 0.28979 0.93321 0.61733 0.0
C3863 C 0.20868 0.88088 0.59403 0.0
C3864 C 0.21156 0.86913 0.59283 0.0
C3865 C 0.21769 0.89343 0.60631 0.0
C3866 C 0.22982 0.8945 0.61748 0.0
C3867 C 0.23233 0.88251 0.61704 0.0
C3868 C 0.22319 0.86986 0.60494 0.0
C3869 C 0.24059 0.90868 0.628 0.0
C3870 C 0.25528 0.91651 0.62043 0.0
C3871 C 0.2361 0.91518 0.64375 0.0
C3872 C 0.22082 0.90724 0.6527 0.0
C3873 C 0.2149 0.89289 0.66095 0.0
C3874 C 0.20044 0.88541 0.66916 0.0
C3875 C 0.1918 0.89218 0.66932 0.0
C3876 C 0.19763 0.90648 0.6613 0.0
C3877 C 0.21208 0.91401 0.65306 0.0
H3878 H 0.18061 0.88637 0.67568 0.0
H3879 H 0.31916 0.96035 0.59038 0.0
H3880 H 0.01769 0.30211 0.68612 0.0
H3881 H 0.04217 0.30528 0.6779 0.0
H3882 H 0.04939 0.33836 0.632 0.0
H3883 H 0.02513 0.33543 0.64036 0.0
H3884 H 0.05049 0.29909 0.64254 0.0
H3885 H 0.08571 0.36259 0.62487 0.0
H3886 H 0.08884 0.38602 0.63905 0.0
H3887 H 0.07258 0.36555 0.69888 0.0
H3888 H 0.06955 0.34206 0.68516 0.0
H3889 H 0.10114 0.31665 0.56156 0.0
H3890 H 0.08237 0.31439 0.58652 0.0
H3891 H 0.11622 0.33524 0.63434 0.0
H3892 H 0.13532 0.33778 0.60896 0.0
H3893 H 0.09771 0.34697 0.63276 0.0
H3894 H 0.09168 0.29914 0.63856 0.0
H3895 H 0.08922 0.27559 0.62616 0.0
H3896 H 0.04833 0.26442 0.59469 0.0
H3897 H 0.05065 0.288 0.60663 0.0
C3898 C 0.02462 0.31025 0.67455 0.0
C3899 C 0.01944 0.31848 0.66384 0.0
C3900 C 0.0386 0.31203 0.66984 0.0
C3901 C 0.04771 0.32214 0.65444 0.0
C3902 C 0.04273 0.33069 0.64423 0.0
C3903 C 0.02878 0.32894 0.64893 0.0
C3904 C 0.06171 0.32277 0.64749 0.0
C3905 C 0.06086 0.30955 0.64066 0.0
C3906 C 0.07539 0.33636 0.64549 0.0
C3907 C 0.07733 0.35052 0.65392 0.0
C3908 C 0.08289 0.36311 0.64108 0.0
C3909 C 0.08462 0.3764 0.64904 0.0
C3910 C 0.08088 0.37727 0.66984 0.0
C3911 C 0.07543 0.36485 0.68275 0.0
C3912 C 0.07368 0.35153 0.67488 0.0
C3913 C 0.10462 0.32076 0.57739 0.0
C3914 C 0.11972 0.32752 0.58328 0.0
C3915 C 0.09385 0.31934 0.59171 0.0
C3916 C 0.09785 0.32452 0.61236 0.0
C3917 C 0.1129 0.33113 0.61848 0.0
C3918 C 0.12376 0.3325 0.60406 0.0
C3919 C 0.08617 0.3234 0.62698 0.0
C3920 C 0.08744 0.3365 0.63515 0.0
C3921 C 0.07293 0.30968 0.63055 0.0
C3922 C 0.07137 0.29538 0.62346 0.0
C3923 C 0.0822 0.2917 0.6289 0.0
C3924 C 0.08083 0.27834 0.62196 0.0
C3925 C 0.06863 0.26852 0.60963 0.0
C3926 C 0.05777 0.27203 0.60425 0.0
C3927 C 0.05909 0.28538 0.61114 0.0
H3928 H 0.06759 0.25819 0.60427 0.0
H3929 H 0.08222 0.38757 0.67596 0.0
H3930 H 0.26346 0.29267 0.68863 0.0
H3931 H 0.24747 0.30287 0.68064 0.0
H3932 H 0.28071 0.33378 0.63771 0.0
H3933 H 0.29704 0.32409 0.64645 0.0
H3934 H 0.26925 0.34727 0.65721 0.0
H3935 H 0.2484 0.29981 0.62185 0.0
H3936 H 0.23788 0.27273 0.61925 0.0
H3937 H 0.20234 0.26555 0.66093 0.0
H3938 H 0.21276 0.29262 0.66396 0.0
H3939 H 0.22954 0.35153 0.57258 0.0
H3940 H 0.24393 0.34832 0.59894 0.0
H3941 H 0.20763 0.33367 0.64272 0.0
H3942 H 0.19312 0.33813 0.61676 0.0
H3943 H 0.21788 0.3127 0.63167 0.0
H3944 H 0.23722 0.36176 0.65798 0.0
H3945 H 0.2481 0.38887 0.65585 0.0
H3946 H 0.28712 0.39313 0.6259 0.0
H3947 H 0.27639 0.36602 0.62756 0.0
C3948 C 0.26737 0.30166 0.67751 0.0
C3949 C 0.28146 0.30748 0.668 0.0
C3950 C 0.2582 0.30747 0.67293 0.0
C3951 C 0.26273 0.31894 0.65828 0.0
C3952 C 0.27693 0.32495 0.64909 0.0
C3953 C 0.28624 0.31935 0.65399 0.0
C3954 C 0.25254 0.32433 0.65185 0.0
C3955 C 0.25803 0.3397 0.65161 0.0
C3956 C 0.2377 0.31448 0.64509 0.0
C3957 C 0.23146 0.29822 0.64336 0.0
C3958 C 0.23841 0.29245 0.63059 0.0
C3959 C 0.23245 0.27711 0.62902 0.0
C3960 C 0.21948 0.26743 0.63998 0.0
C3961 C 0.21241 0.27307 0.6525 0.0
C3962 C 0.21833 0.2884 0.65414 0.0
C3963 C 0.22457 0.34839 0.58794 0.0
C3964 C 0.20979 0.34503 0.59202 0.0
C3965 C 0.23297 0.34641 0.6031 0.0
C3966 C 0.22685 0.34071 0.62272 0.0
C3967 C 0.21253 0.33807 0.62756 0.0
C3968 C 0.20418 0.34048 0.6125 0.0
C3969 C 0.23478 0.33559 0.63644 0.0
C3970 C 0.22892 0.32024 0.63794 0.0
C3971 C 0.24939 0.34547 0.64381 0.0
C3972 C 0.25596 0.36182 0.64285 0.0
C3973 C 0.24807 0.36846 0.65081 0.0
C3974 C 0.25423 0.38383 0.64971 0.0
C3975 C 0.26829 0.39271 0.64074 0.0
C3976 C 0.27623 0.38624 0.63287 0.0
C3977 C 0.27013 0.37086 0.63393 0.0
H3978 H 0.27303 0.40461 0.63989 0.0
H3979 H 0.21488 0.25556 0.63874 0.0
H3980 H 0.68122 0.97795 0.69542 0.0
H3981 H 0.67636 0.95264 0.68959 0.0
H3982 H 0.67696 0.959 0.62272 0.0
H3983 H 0.68081 0.98375 0.62858 0.0
H3984 H 0.65658 0.93338 0.62938 0.0
H3985 H 0.70757 0.96105 0.65353 0.0
H3986 H 0.72799 0.97661 0.67812 0.0
H3987 H 0.70743 0.94313 0.72536 0.0
H3988 H 0.6868 0.92744 0.7011 0.0
H3989 H 0.69419 0.88898 0.60627 0.0
H3990 H 0.69469 0.90859 0.62782 0.0
H3991 H 0.64672 0.88277 0.6339 0.0
H3992 H 0.64621 0.86354 0.61106 0.0
H3993 H 0.68816 0.91609 0.66237 0.0
H3994 H 0.63183 0.90407 0.62847 0.0
H3995 H 0.61517 0.89109 0.59846 0.0
H3996 H 0.65275 0.89782 0.56172 0.0
H3997 H 0.66963 0.91084 0.59149 0.0
C3998 C 0.68023 0.97385 0.67951 0.0
C3999 C 0.68138 0.98279 0.66245 0.0
C4000 C 0.67755 0.95942 0.67617 0.0
C4001 C 0.67647 0.95387 0.65568 0.0
C4002 C 0.67762 0.96288 0.6387 0.0
C4003 C 0.67988 0.97709 0.64204 0.0
C4004 C 0.67425 0.93879 0.65158 0.0
C4005 C 0.66345 0.92961 0.63676 0.0
C4006 C 0.68321 0.93375 0.661 0.0
C4007 C 0.69556 0.94317 0.67561 0.0
C4008 C 0.70735 0.95706 0.66922 0.0
C4009 C 0.71897 0.96589 0.68308 0.0
C4010 C 0.71898 0.96088 0.70331 0.0
C4011 C 0.70739 0.94701 0.7097 0.0
C4012 C 0.69574 0.93815 0.6959 0.0
C4013 C 0.68383 0.88722 0.61296 0.0
C4014 C 0.67016 0.87481 0.60702 0.0
C4015 C 0.68409 0.89848 0.62523 0.0
C4016 C 0.67069 0.89742 0.63196 0.0
C4017 C 0.65718 0.88407 0.62837 0.0
C4018 C 0.65688 0.87297 0.61561 0.0
C4019 C 0.67084 0.91098 0.63973 0.0
C4020 C 0.68114 0.9198 0.65532 0.0
C4021 C 0.66196 0.91608 0.63025 0.0
C4022 C 0.65193 0.90826 0.61227 0.0
C4023 C 0.63652 0.90276 0.61398 0.0
C4024 C 0.62705 0.89539 0.59703 0.0
C4025 C 0.6329 0.89356 0.57824 0.0
C4026 C 0.64824 0.89916 0.57633 0.0
C4027 C 0.65775 0.90652 0.59324 0.0
H4028 H 0.62556 0.88786 0.56513 0.0
H4029 H 0.72799 0.96773 0.71402 0.0
H4030 H 0.01817 0.73061 0.66194 0.0
H4031 H 0.04398 0.74676 0.65106 0.0
H4032 H 0.05046 0.70916 0.64847 0.0
H4033 H 0.02449 0.6928 0.65943 0.0
H4034 H 0.07433 0.73427 0.66771 0.0
H4035 H 0.04571 0.72196 0.60432 0.0
H4036 H 0.02549 0.71924 0.58122 0.0
H4037 H 0.04207 0.76607 0.586 0.0
H4038 H 0.06229 0.76904 0.60939 0.0
H4039 H 0.13789 0.7643 0.59993 0.0
H4040 H 0.11492 0.75054 0.62034 0.0
H4041 H 0.10812 0.78793 0.61732 0.0
H4042 H 0.13107 0.80161 0.59663 0.0
H4043 H 0.08461 0.76342 0.60251 0.0
H4044 H 0.11439 0.77595 0.66443 0.0
H4045 H 0.13474 0.77845 0.68703 0.0
H4046 H 0.11636 0.73124 0.68471 0.0
H4047 H 0.096 0.72847 0.66183 0.0
C4048 C 0.02504 0.72571 0.6591 0.0
C4049 C 0.0192 0.71036 0.66147 0.0
C4050 C 0.03982 0.73499 0.65285 0.0
C4051 C 0.04912 0.72915 0.64883 0.0
C4052 C 0.04346 0.71389 0.65151 0.0
C4053 C 0.0286 0.70454 0.65765 0.0
C4054 C 0.06462 0.73902 0.64131 0.0
C4055 C 0.07662 0.74054 0.65334 0.0
C4056 C 0.06758 0.74744 0.62283 0.0
C4057 C 0.05542 0.74569 0.60879 0.0
C4058 C 0.04497 0.73166 0.6006 0.0
C4059 C 0.03352 0.73007 0.58743 0.0
C4060 C 0.03247 0.74247 0.58219 0.0
C4061 C 0.04289 0.75648 0.59009 0.0
C4062 C 0.05435 0.75812 0.6033 0.0
C4063 C 0.1318 0.76977 0.60447 0.0
C4064 C 0.1363 0.78406 0.59713 0.0
C4065 C 0.11865 0.7619 0.61605 0.0
C4066 C 0.10977 0.7682 0.62043 0.0
C4067 C 0.1148 0.78287 0.61418 0.0
C4068 C 0.12797 0.79074 0.60259 0.0
C4069 C 0.09444 0.75883 0.62896 0.0
C4070 C 0.08241 0.75731 0.61702 0.0
C4071 C 0.09151 0.75041 0.64748 0.0
C4072 C 0.10373 0.75202 0.66125 0.0
C4073 C 0.11475 0.76611 0.66858 0.0
C4074 C 0.12627 0.76757 0.68148 0.0
C4075 C 0.12686 0.75501 0.68726 0.0
C4076 C 0.1159 0.74096 0.6802 0.0
C4077 C 0.10435 0.73944 0.66729 0.0
H4078 H 0.13579 0.75617 0.69725 0.0
H4079 H 0.02361 0.74122 0.57198 0.0
H4080 H 0.96656 0.61276 0.66946 0.0
H4081 H 0.97173 0.59311 0.67898 0.0
H4082 H 0.00757 0.62388 0.7193 0.0
H4083 H 0.00254 0.64351 0.70981 0.0
H4084 H 0.01547 0.60662 0.69716 0.0
H4085 H 0.97345 0.5996 0.73911 0.0
H4086 H 0.94811 0.59543 0.74464 0.0
H4087 H 0.92952 0.5547 0.70939 0.0
H4088 H 0.95479 0.55873 0.70342 0.0
H4089 H 0.02399 0.56675 0.77841 0.0
H4090 H 0.01982 0.58244 0.75455 0.0
H4091 H 0.986 0.54342 0.72213 0.0
H4092 H 0.99021 0.5276 0.74631 0.0
H4093 H 0.97601 0.56197 0.73332 0.0
H4094 H 0.01828 0.56715 0.69709 0.0
H4095 H 0.04374 0.5714 0.69287 0.0
H4096 H 0.06209 0.61553 0.71792 0.0
H4097 H 0.03674 0.61148 0.72259 0.0
C4098 C 0.97562 0.61536 0.68022 0.0
C4099 C 0.98409 0.62969 0.68897 0.0
C4100 C 0.97853 0.60411 0.68568 0.0
C4101 C 0.98997 0.60698 0.69999 0.0
C4102 C -0.00129 0.62139 0.70821 0.0
C4103 C 0.99577 0.6326 0.70283 0.0
C4104 C 0.99254 0.59496 0.70722 0.0
C4105 C 0.00686 0.59686 0.70511 0.0
C4106 C 0.98118 0.58199 0.71701 0.0
C4107 C 0.96601 0.57956 0.72059 0.0
C4108 C 0.96396 0.58982 0.73238 0.0
C4109 C 0.94961 0.58747 0.73563 0.0
C4110 C 0.93721 0.57483 0.72731 0.0
C4111 C 0.93914 0.5645 0.71578 0.0
C4112 C 0.95347 0.56681 0.71246 0.0
C4113 C 0.01596 0.56156 0.76582 0.0
C4114 C 0.00752 0.54603 0.76398 0.0
C4115 C 0.01358 0.57051 0.75217 0.0
C4116 C 0.00269 0.56413 0.73638 0.0
C4117 C 0.99452 0.54858 0.73411 0.0
C4118 C 0.99699 0.53957 0.74777 0.0
C4119 C -0.00094 0.57381 0.72375 0.0
C4120 C 0.98455 0.57151 0.72492 0.0
C4121 C 0.01026 0.58644 0.71314 0.0
C4122 C 0.02557 0.58898 0.71028 0.0
C4123 C 0.02773 0.57773 0.70183 0.0
C4124 C 0.04215 0.58011 0.69934 0.0
C4125 C 0.05452 0.59372 0.70514 0.0
C4126 C 0.0525 0.60499 0.71342 0.0
C4127 C 0.0381 0.60267 0.71596 0.0
H4128 H 0.06568 0.59553 0.7032 0.0
H4129 H 0.92611 0.57303 0.72985 0.0
H4130 H 0.34927 0.36067 0.69724 0.0
H4131 H 0.36956 0.3859 0.70442 0.0
H4132 H 0.4003 0.37659 0.67158 0.0
H4133 H 0.37988 0.35139 0.66383 0.0
H4134 H 0.39225 0.39233 0.72815 0.0
H4135 H 0.43108 0.40927 0.6555 0.0
H4136 H 0.42913 0.40597 0.61709 0.0
H4137 H 0.38493 0.39957 0.61873 0.0
H4138 H 0.38669 0.40303 0.65709 0.0
H4139 H 0.47227 0.44995 0.73607 0.0
H4140 H 0.4529 0.43172 0.71256 0.0
H4141 H 0.42287 0.44637 0.73298 0.0
H4142 H 0.44215 0.46457 0.75647 0.0
H4143 H 0.43076 0.42939 0.68053 0.0
H4144 H 0.39509 0.41813 0.75297 0.0
H4145 H 0.39752 0.42068 0.79152 0.0
H4146 H 0.43502 0.41401 0.78914 0.0
H4147 H 0.43304 0.41186 0.75065 0.0
C4148 C 0.3603 0.36406 0.69124 0.0
C4149 C 0.363 0.354 0.68012 0.0
C4150 C 0.37189 0.3785 0.69533 0.0
C4151 C 0.38648 0.3832 0.68853 0.0
C4152 C 0.38911 0.37334 0.67671 0.0
C4153 C 0.37745 0.3589 0.67241 0.0
C4154 C 0.39907 0.39771 0.69591 0.0
C4155 C 0.40043 0.40051 0.71757 0.0
C4156 C 0.41012 0.40826 0.6823 0.0
C4157 C 0.40897 0.40626 0.65921 0.0
C4158 C 0.42096 0.40721 0.64766 0.0
C4159 C 0.41989 0.4053 0.62589 0.0
C4160 C 0.4069 0.40251 0.61549 0.0
C4161 C 0.39497 0.40167 0.62682 0.0
C4162 C 0.39599 0.40357 0.64858 0.0
C4163 C 0.46179 0.44977 0.73477 0.0
C4164 C 0.45863 0.45856 0.74819 0.0
C4165 C 0.45072 0.43932 0.72138 0.0
C4166 C 0.43642 0.43758 0.72129 0.0
C4167 C 0.43383 0.4475 0.73293 0.0
C4168 C 0.44484 0.4579 0.74631 0.0
C4169 C 0.4236 0.42388 0.71252 0.0
C4170 C 0.42233 0.42121 0.69083 0.0
C4171 C 0.41257 0.41333 0.72598 0.0
C4172 C 0.41397 0.41494 0.74904 0.0
C4173 C 0.40389 0.4173 0.76074 0.0
C4174 C 0.40524 0.41876 0.78255 0.0
C4175 C 0.41651 0.41766 0.79279 0.0
C4176 C 0.42645 0.41511 0.78123 0.0
C4177 C 0.42526 0.41385 0.75942 0.0
H4178 H 0.41749 0.4187 0.80968 0.0
H4179 H 0.40608 0.40103 0.59864 0.0
H4180 H 0.64095 0.0068 0.6909 0.0
H4181 H 0.61509 0.99732 0.70165 0.0
H4182 H 0.61929 0.0395 0.68699 0.0
H4183 H 0.64519 0.04915 0.67653 0.0
H4184 H 0.60683 0.03025 0.72426 0.0
H4185 H 0.59863 0.00882 0.65572 0.0
H4186 H 0.60133 0.9947 0.62661 0.0
H4187 H 0.58207 0.9555 0.66448 0.0
H4188 H 0.57944 0.96944 0.69393 0.0
H4189 H 0.5312 0.00264 0.75034 0.0
H4190 H 0.5526 0.01212 0.72627 0.0
H4191 H 0.55705 0.97412 0.73957 0.0
H4192 H 0.53576 0.96469 0.7634 0.0
H4193 H 0.56396 0.98277 0.69864 0.0
H4194 H 0.57591 0.00491 0.7681 0.0
H4195 H 0.5734 0.01863 0.79795 0.0
H4196 H 0.58598 0.05627 0.7585 0.0
H4197 H 0.58833 0.04266 0.72832 0.0
C4198 C 0.63636 0.01405 0.68985 0.0
C4199 C 0.64518 0.02875 0.68289 0.0
C4200 C 0.62153 0.00858 0.69587 0.0
C4201 C 0.61518 0.01765 0.69488 0.0
C4202 C 0.62393 0.03229 0.68783 0.0
C4203 C 0.63876 0.03778 0.68185 0.0
C4204 C 0.59968 0.01212 0.70228 0.0
C4205 C 0.59741 0.02004 0.7183 0.0
C4206 C 0.58742 -0.00135 0.69479 0.0
C4207 C 0.58894 0.99021 0.67709 0.0
C4208 C 0.59507 0.99722 0.6579 0.0
C4209 C 0.59657 0.98924 0.64132 0.0
C4210 C 0.5919 0.97422 0.64371 0.0
C4211 C 0.58569 0.96714 0.66266 0.0
C4212 C 0.58417 0.97507 0.67929 0.0
C4213 C 0.53649 0.99614 0.74752 0.0
C4214 C 0.53198 0.98302 0.75869 0.0
C4215 C 0.54873 0.00156 0.73391 0.0
C4216 C 0.55653 0.99391 0.73138 0.0
C4217 C 0.55121 0.9802 0.74127 0.0
C4218 C 0.53909 0.97484 0.75491 0.0
C4219 C 0.57121 0.00084 0.72068 0.0
C4220 C 0.57335 0.99315 0.70419 0.0
C4221 C 0.5834 0.01449 0.72777 0.0
C4222 C 0.58211 0.02272 0.74592 0.0
C4223 C 0.57803 0.01607 0.76577 0.0
C4224 C 0.57665 0.02383 0.78274 0.0
C4225 C 0.57948 0.0383 0.78011 0.0
C4226 C 0.58375 0.04505 0.7605 0.0
C4227 C 0.58511 0.03732 0.74346 0.0
H4228 H 0.57841 0.04429 0.79327 0.0
H4229 H 0.59308 0.96807 0.63086 0.0
loop_
_geom_bond_atom_site_label_1
_geom_bond_atom_site_label_2
_geom_bond_distance
_geom_bond_site_symmetry_2
_ccdc_geom_bond_type
C0 O1 1.306 1_556 S
C0 O3 1.160 . S
O1 C0 1.306 1_554 S
O1 Cd2 2.228 . S
Cd2 O1 2.228 . S
Cd2 O6 2.273 . S
Cd2 O10 2.277 1_554 S
O3 C0 1.160 . S
O3 Cd4 2.203 1_656 S
Cd4 O3 2.203 1_454 S
Cd4 O6 2.411 1_455 S
Cd4 O7 2.333 . S
Cd4 O8 2.352 . S
Cd4 O12 2.277 1_554 S
Cd4 O13 2.356 . S
C5 O10 1.209 1_455 S
C5 O12 1.226 . S
O6 Cd2 2.273 . S
O6 Cd4 2.411 1_655 S
O6 C9 1.320 1_655 S
O7 Cd4 2.333 . S
O7 C9 1.214 . S
O8 Cd4 2.352 . S
O8 C11 1.258 . S
C9 O6 1.320 1_455 S
C9 O7 1.214 . S
O10 Cd2 2.277 1_556 S
O10 C5 1.209 1_655 S
C11 O8 1.258 . S
C11 O13 1.282 . S
O12 Cd4 2.277 1_556 S
O12 C5 1.226 . S
O13 Cd4 2.356 . S
O13 C11 1.282 . S
C14 O15 1.306 . S
C14 O17 1.160 . S
O15 C14 1.306 . S
O15 Cd16 2.228 . S
Cd16 O15 2.228 . S
Cd16 O20 2.273 1_554 S
Cd16 O24 2.277 . S
O17 C14 1.160 . S
O17 Cd18 2.203 . S
Cd18 O17 2.203 . S
Cd18 O20 2.411 1_554 S
Cd18 O21 2.333 1_554 S
Cd18 O22 2.352 1_554 S
Cd18 O26 2.277 . S
Cd18 O27 2.356 . S
C19 O24 1.209 . S
C19 O26 1.226 . S
O20 Cd16 2.273 1_556 S
O20 Cd18 2.411 1_556 S
O20 C23 1.320 . S
O21 Cd18 2.333 1_556 S
O21 C23 1.214 . S
O22 Cd18 2.352 1_556 S
O22 C25 1.258 . S
C23 O20 1.320 . S
C23 O21 1.214 . S
O24 Cd16 2.277 . S
O24 C19 1.209 . S
C25 O22 1.258 . S
C25 O27 1.282 1_556 S
O26 Cd18 2.277 . S
O26 C19 1.226 . S
O27 Cd18 2.356 . S
O27 C25 1.282 1_554 S
C28 O29 1.306 . S
C28 O31 1.160 . S
O29 C28 1.306 . S
O29 Cd30 2.228 . S
Cd30 O29 2.228 . S
Cd30 O34 2.273 1_554 S
Cd30 O38 2.277 . S
O31 C28 1.160 . S
O31 Cd32 2.203 1_565 S
Cd32 O31 2.203 1_545 S
Cd32 O34 2.411 1_544 S
Cd32 O35 2.333 1_554 S
Cd32 O36 2.352 1_554 S
Cd32 O40 2.277 . S
Cd32 O41 2.356 . S
C33 O38 1.209 1_545 S
C33 O40 1.226 . S
O34 Cd30 2.273 1_556 S
O34 Cd32 2.411 1_566 S
O34 C37 1.320 1_565 S
O35 Cd32 2.333 1_556 S
O35 C37 1.214 . S
O36 Cd32 2.352 1_556 S
O36 C39 1.258 . S
C37 O34 1.320 1_545 S
C37 O35 1.214 . S
O38 Cd30 2.277 . S
O38 C33 1.209 1_565 S
C39 O36 1.258 . S
C39 O41 1.282 1_556 S
O40 Cd32 2.277 . S
O40 C33 1.226 . S
O41 Cd32 2.356 . S
O41 C39 1.282 1_554 S
C42 O43 1.306 1_556 S
C42 O45 1.160 . S
O43 C42 1.306 1_554 S
O43 Cd44 2.228 . S
Cd44 O43 2.228 . S
Cd44 O48 2.273 . S
Cd44 O52 2.277 1_554 S
O45 C42 1.160 . S
O45 Cd46 2.203 1_656 S
Cd46 O45 2.203 1_454 S
Cd46 O48 2.411 1_455 S
Cd46 O49 2.333 . S
Cd46 O50 2.352 . S
Cd46 O54 2.277 1_554 S
Cd46 O55 2.356 . S
C47 O52 1.209 1_455 S
C47 O54 1.226 . S
O48 Cd44 2.273 . S
O48 Cd46 2.411 1_655 S
O48 C51 1.320 1_655 S
O49 Cd46 2.333 . S
O49 C51 1.214 . S
O50 Cd46 2.352 . S
O50 C53 1.258 . S
C51 O48 1.320 1_455 S
C51 O49 1.214 . S
O52 Cd44 2.277 1_556 S
O52 C47 1.209 1_655 S
C53 O50 1.258 . S
C53 O55 1.282 . S
O54 Cd46 2.277 1_556 S
O54 C47 1.226 . S
O55 Cd46 2.356 . S
O55 C53 1.282 . S
C56 O57 1.306 . S
C56 O59 1.160 . S
O57 C56 1.306 . S
O57 Cd58 2.228 . S
Cd58 O57 2.228 . S
Cd58 O62 2.273 1_554 S
Cd58 O66 2.277 . S
O59 C56 1.160 . S
O59 Cd60 2.203 . S
Cd60 O59 2.203 . S
Cd60 O62 2.411 1_554 S
Cd60 O63 2.333 1_554 S
Cd60 O64 2.352 1_554 S
Cd60 O68 2.277 . S
Cd60 O69 2.356 . S
C61 O66 1.209 . S
C61 O68 1.226 . S
O62 Cd58 2.273 1_556 S
O62 Cd60 2.411 1_556 S
O62 C65 1.320 . S
O63 Cd60 2.333 1_556 S
O63 C65 1.214 . S
O64 Cd60 2.352 1_556 S
O64 C67 1.258 . S
C65 O62 1.320 . S
C65 O63 1.214 . S
O66 Cd58 2.277 . S
O66 C61 1.209 . S
C67 O64 1.258 . S
C67 O69 1.282 1_556 S
O68 Cd60 2.277 . S
O68 C61 1.226 . S
O69 Cd60 2.356 . S
O69 C67 1.282 1_554 S
C70 O71 1.306 1_556 S
C70 O73 1.160 . S
O71 C70 1.306 1_554 S
O71 Cd72 2.228 . S
Cd72 O71 2.228 . S
Cd72 O76 2.273 . S
Cd72 O80 2.277 1_554 S
O73 C70 1.160 . S
O73 Cd74 2.203 1_546 S
Cd74 O73 2.203 1_564 S
Cd74 O76 2.411 1_565 S
Cd74 O77 2.333 . S
Cd74 O78 2.352 . S
Cd74 O82 2.277 1_554 S
Cd74 O83 2.356 . S
C75 O80 1.184 1_565 S
C75 O82 1.261 . S
O76 Cd72 2.273 . S
O76 Cd74 2.411 1_545 S
O76 C79 1.340 . S
O77 Cd74 2.333 . S
O77 C79 1.172 1_565 S
O78 Cd74 2.352 . S
O78 C81 1.258 . S
C79 O76 1.340 . S
C79 O77 1.172 1_545 S
O80 Cd72 2.277 1_556 S
O80 C75 1.184 1_545 S
C81 O78 1.258 . S
C81 O83 1.282 . S
O82 Cd74 2.277 1_556 S
O82 C75 1.261 . S
O83 Cd74 2.356 . S
O83 C81 1.282 . S
C84 O85 1.306 . S
C84 O87 1.160 . S
O85 C84 1.306 . S
O85 Cd86 2.228 . S
Cd86 O85 2.228 . S
Cd86 O90 2.273 . S
Cd86 O94 2.277 . S
O87 C84 1.160 . S
O87 Cd88 2.203 . S
Cd88 O87 2.203 . S
Cd88 O90 2.411 . S
Cd88 O91 2.333 . S
Cd88 O92 2.352 . S
Cd88 O96 2.277 . S
Cd88 O97 2.356 . S
C89 O94 1.209 . S
C89 O96 1.226 . S
O90 Cd86 2.273 . S
O90 Cd88 2.411 . S
O90 C93 1.320 . S
O91 Cd88 2.333 . S
O91 C93 1.214 . S
O92 Cd88 2.352 . S
O92 C95 1.258 . S
C93 O90 1.320 . S
C93 O91 1.214 . S
O94 Cd86 2.277 . S
O94 C89 1.209 . S
C95 O92 1.258 . S
C95 O97 1.282 . S
O96 Cd88 2.277 . S
O96 C89 1.226 . S
O97 Cd88 2.356 . S
O97 C95 1.282 . S
C98 O99 1.306 . S
C98 O101 1.160 . S
O99 C98 1.306 . S
O99 Cd100 2.228 1_545 S
Cd100 O99 2.228 1_565 S
Cd100 O104 2.273 . S
Cd100 O108 2.277 . S
O101 C98 1.160 . S
O101 Cd102 2.203 1_545 S
Cd102 O101 2.203 1_565 S
Cd102 O104 2.411 . S
Cd102 O105 2.333 . S
Cd102 O106 2.352 . S
Cd102 O110 2.277 . S
Cd102 O111 2.356 . S
C103 O108 1.209 . S
C103 O110 1.226 . S
O104 Cd100 2.273 . S
O104 Cd102 2.411 . S
O104 C107 1.320 . S
O105 Cd102 2.333 . S
O105 C107 1.214 . S
O106 Cd102 2.352 . S
O106 C109 1.258 . S
C107 O104 1.320 . S
C107 O105 1.214 . S
O108 Cd100 2.277 . S
O108 C103 1.209 . S
C109 O106 1.258 . S
C109 O111 1.282 . S
O110 Cd102 2.277 . S
O110 C103 1.226 . S
O111 Cd102 2.356 . S
O111 C109 1.282 . S
C112 O113 1.245 1_655 S
C112 O115 1.160 1_655 S
O113 C112 1.245 1_455 S
O113 Cd114 2.314 . S
Cd114 O113 2.314 . S
Cd114 O118 2.273 . S
Cd114 O122 2.277 . S
O115 C112 1.160 1_455 S
O115 Cd116 2.203 . S
Cd116 O115 2.203 . S
Cd116 O118 2.411 . S
Cd116 O119 2.333 . S
Cd116 O120 2.352 . S
Cd116 O124 2.277 . S
Cd116 O125 2.356 . S
C117 O122 1.209 . S
C117 O124 1.226 . S
O118 Cd114 2.273 . S
O118 Cd116 2.411 . S
O118 C121 1.320 . S
O119 Cd116 2.333 . S
O119 C121 1.214 . S
O120 Cd116 2.352 . S
O120 C123 1.258 . S
C121 O118 1.320 . S
C121 O119 1.214 . S
O122 Cd114 2.277 . S
O122 C117 1.209 . S
C123 O120 1.258 . S
C123 O125 1.282 . S
O124 Cd116 2.277 . S
O124 C117 1.226 . S
O125 Cd116 2.356 . S
O125 C123 1.282 . S
C126 O127 1.306 . S
C126 O129 1.160 . S
O127 C126 1.306 . S
O127 Cd128 2.228 . S
Cd128 O127 2.228 . S
Cd128 O132 2.273 . S
Cd128 O136 2.277 . S
O129 C126 1.160 . S
O129 Cd130 2.203 . S
Cd130 O129 2.203 . S
Cd130 O132 2.411 . S
Cd130 O133 2.333 . S
Cd130 O134 2.352 1_565 S
Cd130 O138 2.277 . S
Cd130 O139 2.356 1_565 S
C131 O136 1.209 . S
C131 O138 1.226 . S
O132 Cd128 2.273 . S
O132 Cd130 2.411 . S
O132 C135 1.320 . S
O133 Cd130 2.333 . S
O133 C135 1.214 . S
O134 Cd130 2.352 1_545 S
O134 C137 1.258 . S
C135 O132 1.320 . S
C135 O133 1.214 . S
O136 Cd128 2.277 . S
O136 C131 1.209 . S
C137 O134 1.258 . S
C137 O139 1.282 . S
O138 Cd130 2.277 . S
O138 C131 1.226 . S
O139 Cd130 2.356 1_545 S
O139 C137 1.282 . S
C140 O141 1.306 . S
C140 O143 1.159 1_655 S
O141 C140 1.306 . S
O141 Cd142 2.228 1_655 S
Cd142 O141 2.228 1_455 S
Cd142 O146 2.273 . S
Cd142 O150 2.277 . S
O143 C140 1.159 1_455 S
O143 Cd144 2.204 . S
Cd144 O143 2.204 . S
Cd144 O146 2.411 . S
Cd144 O147 2.333 . S
Cd144 O148 2.352 . S
Cd144 O152 2.277 . S
Cd144 O153 2.356 . S
C145 O150 1.209 . S
C145 O152 1.226 . S
O146 Cd142 2.273 . S
O146 Cd144 2.411 . S
O146 C149 1.320 . S
O147 Cd144 2.333 . S
O147 C149 1.214 . S
O148 Cd144 2.352 . S
O148 C151 1.258 . S
C149 O146 1.320 . S
C149 O147 1.214 . S
O150 Cd142 2.277 . S
O150 C145 1.209 . S
C151 O148 1.258 . S
C151 O153 1.282 . S
O152 Cd144 2.277 . S
O152 C145 1.226 . S
O153 Cd144 2.356 . S
O153 C151 1.282 . S
C154 O155 1.306 . S
C154 O157 1.160 . S
O155 C154 1.306 . S
O155 Cd156 2.228 . S
Cd156 O155 2.228 . S
Cd156 O160 2.273 . S
Cd156 O164 2.277 . S
O157 C154 1.160 . S
O157 Cd158 2.203 . S
Cd158 O157 2.203 . S
Cd158 O160 2.411 . S
Cd158 O161 2.333 . S
Cd158 O162 2.352 . S
Cd158 O166 2.277 . S
Cd158 O167 2.356 . S
C159 O164 1.209 . S
C159 O166 1.226 . S
O160 Cd156 2.273 . S
O160 Cd158 2.411 . S
O160 C163 1.320 . S
O161 Cd158 2.333 . S
O161 C163 1.214 . S
O162 Cd158 2.352 . S
O162 C165 1.258 . S
C163 O160 1.320 . S
C163 O161 1.214 . S
O164 Cd156 2.277 . S
O164 C159 1.209 . S
C165 O162 1.258 . S
C165 O167 1.282 . S
O166 Cd158 2.277 . S
O166 C159 1.226 . S
O167 Cd158 2.356 . S
O167 C165 1.282 . S
C168 O169 1.306 . S
C168 O171 1.160 . S
O169 C168 1.306 . S
O169 Cd170 2.228 1_565 S
Cd170 O169 2.228 1_545 S
Cd170 O174 2.273 . S
Cd170 O178 2.277 . S
O171 C168 1.160 . S
O171 Cd172 2.181 1_565 S
Cd172 O171 2.181 1_545 S
Cd172 O174 2.411 . S
Cd172 O175 2.333 . S
Cd172 O176 2.352 . S
Cd172 O180 2.277 . S
Cd172 O181 2.356 . S
C173 O178 1.209 . S
C173 O180 1.226 . S
O174 Cd170 2.273 . S
O174 Cd172 2.411 . S
O174 C177 1.320 . S
O175 Cd172 2.333 . S
O175 C177 1.214 . S
O176 Cd172 2.352 . S
O176 C179 1.258 . S
C177 O174 1.320 . S
C177 O175 1.214 . S
O178 Cd170 2.277 . S
O178 C173 1.209 . S
C179 O176 1.258 . S
C179 O181 1.282 . S
O180 Cd172 2.277 . S
O180 C173 1.226 . S
O181 Cd172 2.356 . S
O181 C179 1.282 . S
C182 O183 1.306 . S
C182 O185 1.160 . S
O183 C182 1.306 . S
O183 Cd184 2.228 . S
Cd184 O183 2.228 . S
Cd184 O188 2.273 . S
Cd184 O192 2.277 . S
O185 C182 1.160 . S
O185 Cd186 2.203 . S
Cd186 O185 2.203 . S
Cd186 O188 2.411 . S
Cd186 O189 2.333 . S
Cd186 O190 2.352 1_655 S
Cd186 O194 2.277 . S
Cd186 O195 2.356 1_655 S
C187 O192 1.209 . S
C187 O194 1.226 . S
O188 Cd184 2.273 . S
O188 Cd186 2.411 . S
O188 C191 1.320 . S
O189 Cd186 2.333 . S
O189 C191 1.214 . S
O190 Cd186 2.352 1_455 S
O190 C193 1.258 . S
C191 O188 1.320 . S
C191 O189 1.214 . S
O192 Cd184 2.277 . S
O192 C187 1.209 . S
C193 O190 1.258 . S
C193 O195 1.282 . S
O194 Cd186 2.277 . S
O194 C187 1.226 . S
O195 Cd186 2.356 1_455 S
O195 C193 1.282 . S
C196 O197 1.306 . S
C196 O199 1.160 . S
O197 C196 1.306 . S
O197 Cd198 2.228 . S
Cd198 O197 2.228 . S
Cd198 O202 2.273 . S
Cd198 O206 2.277 . S
O199 C196 1.160 . S
O199 Cd200 2.203 . S
Cd200 O199 2.203 . S
Cd200 O202 2.411 . S
Cd200 O203 2.333 . S
Cd200 O204 2.352 . S
Cd200 O208 2.277 . S
Cd200 O209 2.356 . S
C201 O206 1.209 . S
C201 O208 1.226 . S
O202 Cd198 2.273 . S
O202 Cd200 2.411 . S
O202 C205 1.320 . S
O203 Cd200 2.333 . S
O203 C205 1.214 . S
O204 Cd200 2.352 . S
O204 C207 1.258 . S
C205 O202 1.320 . S
C205 O203 1.214 . S
O206 Cd198 2.277 . S
O206 C201 1.209 . S
C207 O204 1.258 . S
C207 O209 1.282 . S
O208 Cd200 2.277 . S
O208 C201 1.226 . S
O209 Cd200 2.356 . S
O209 C207 1.282 . S
C210 O211 1.306 . S
C210 O213 1.160 . S
O211 C210 1.306 . S
O211 Cd212 2.228 . S
Cd212 O211 2.228 . S
Cd212 O216 2.273 . S
Cd212 O220 2.277 . S
O213 C210 1.160 . S
O213 Cd214 2.203 . S
Cd214 O213 2.203 . S
Cd214 O216 2.411 . S
Cd214 O217 2.333 . S
Cd214 O218 2.352 . S
Cd214 O222 2.277 . S
Cd214 O223 2.356 . S
C215 O220 1.209 . S
C215 O222 1.226 . S
O216 Cd212 2.273 . S
O216 Cd214 2.411 . S
O216 C219 1.320 . S
O217 Cd214 2.333 . S
O217 C219 1.214 . S
O218 Cd214 2.352 . S
O218 C221 1.258 . S
C219 O216 1.320 . S
C219 O217 1.214 . S
O220 Cd212 2.277 . S
O220 C215 1.209 . S
C221 O218 1.258 . S
C221 O223 1.282 . S
O222 Cd214 2.277 . S
O222 C215 1.226 . S
O223 Cd214 2.356 . S
O223 C221 1.282 . S
C224 O225 1.306 . S
C224 O227 1.160 . S
O225 C224 1.306 . S
O225 Cd226 2.228 . S
Cd226 O225 2.228 . S
Cd226 O230 2.273 . S
Cd226 O234 2.277 . S
O227 C224 1.160 . S
O227 Cd228 2.203 . S
Cd228 O227 2.203 . S
Cd228 O230 2.411 . S
Cd228 O231 2.333 . S
Cd228 O232 2.352 1_545 S
Cd228 O236 2.277 . S
Cd228 O237 2.356 1_545 S
C229 O234 1.209 . S
C229 O236 1.226 . S
O230 Cd226 2.273 . S
O230 Cd228 2.411 . S
O230 C233 1.320 . S
O231 Cd228 2.333 . S
O231 C233 1.214 . S
O232 Cd228 2.352 1_565 S
O232 C235 1.258 . S
C233 O230 1.320 . S
C233 O231 1.214 . S
O234 Cd226 2.277 . S
O234 C229 1.209 . S
C235 O232 1.258 . S
C235 O237 1.282 . S
O236 Cd228 2.277 . S
O236 C229 1.226 . S
O237 Cd228 2.356 1_565 S
O237 C235 1.282 . S
C238 O239 1.306 . S
C238 O241 1.160 . S
O239 C238 1.306 . S
O239 Cd240 2.228 1_455 S
Cd240 O239 2.228 1_655 S
Cd240 O244 2.273 . S
Cd240 O248 2.277 . S
O241 C238 1.160 . S
O241 Cd242 2.203 1_455 S
Cd242 O241 2.203 1_655 S
Cd242 O244 2.411 . S
Cd242 O245 2.333 . S
Cd242 O246 2.352 . S
Cd242 O250 2.277 . S
Cd242 O251 2.356 . S
C243 O248 1.209 . S
C243 O250 1.226 . S
O244 Cd240 2.273 . S
O244 Cd242 2.411 . S
O244 C247 1.320 . S
O245 Cd242 2.333 . S
O245 C247 1.214 . S
O246 Cd242 2.352 . S
O246 C249 1.258 . S
C247 O244 1.320 . S
C247 O245 1.214 . S
O248 Cd240 2.277 . S
O248 C243 1.209 . S
C249 O246 1.258 . S
C249 O251 1.282 . S
O250 Cd242 2.277 . S
O250 C243 1.226 . S
O251 Cd242 2.356 . S
O251 C249 1.282 . S
H252 C260 0.930 . S
H253 C263 0.930 . S
H254 C265 0.930 . S
H255 C266 0.970 . S
H256 C266 0.970 . S
H257 C268 0.930 . S
H258 C270 0.930 . S
H259 C272 0.930 . S
C260 H252 0.930 . S
C260 C261 1.382 . S
C260 C262 1.426 . S
C261 C260 1.382 . S
C261 C265 1.389 . S
C262 C260 1.426 . S
C262 C263 1.375 . S
C262 C266 1.532 . S
C263 H253 0.930 . S
C263 C262 1.375 . S
C263 C264 1.416 . S
C264 C263 1.416 . S
C264 C265 1.371 . S
C265 H254 0.930 . S
C265 C261 1.389 . S
C265 C264 1.371 . S
C266 H255 0.970 . S
C266 H256 0.970 . S
C266 C262 1.532 . S
C266 C267 1.499 . S
C267 C266 1.499 . S
C267 C268 1.370 . S
C267 C272 1.415 . S
C268 H257 0.930 . S
C268 C267 1.370 . S
C268 C269 1.407 . S
C269 C268 1.407 . S
C269 C270 1.365 . S
C270 H258 0.930 . S
C270 C269 1.365 . S
C270 C271 1.393 . S
C271 C270 1.393 . S
C271 C272 1.387 . S
C272 H259 0.930 . S
C272 C267 1.415 . S
C272 C271 1.387 . S
H273 C281 0.930 . S
H274 C284 0.930 . S
H275 C286 0.930 . S
H276 C287 0.970 . S
H277 C287 0.970 . S
H278 C289 0.930 . S
H279 C291 0.930 . S
H280 C293 0.930 . S
C281 H273 0.930 . S
C281 C282 1.382 . S
C281 C283 1.426 . S
C282 C281 1.382 . S
C282 C286 1.389 . S
C283 C281 1.426 . S
C283 C284 1.375 . S
C283 C287 1.532 . S
C284 H274 0.930 . S
C284 C283 1.375 . S
C284 C285 1.416 . S
C285 C284 1.416 . S
C285 C286 1.371 . S
C286 H275 0.930 . S
C286 C282 1.389 . S
C286 C285 1.371 . S
C287 H276 0.970 . S
C287 H277 0.970 . S
C287 C283 1.532 . S
C287 C288 1.499 . S
C288 C287 1.499 . S
C288 C289 1.370 . S
C288 C293 1.415 . S
C289 H278 0.930 . S
C289 C288 1.370 . S
C289 C290 1.407 . S
C290 C289 1.407 . S
C290 C291 1.365 . S
C291 H279 0.930 . S
C291 C290 1.365 . S
C291 C292 1.393 . S
C292 C291 1.393 . S
C292 C293 1.387 . S
C293 H280 0.930 . S
C293 C288 1.415 . S
C293 C292 1.387 . S
H294 C302 0.930 . S
H295 C305 0.930 . S
H296 C307 0.930 . S
H297 C308 0.970 . S
H298 C308 0.970 . S
H299 C310 0.930 . S
H300 C312 0.930 . S
H301 C314 0.930 . S
C302 H294 0.930 . S
C302 C303 1.382 . S
C302 C304 1.426 . S
C303 C302 1.382 . S
C303 C307 1.389 . S
C304 C302 1.426 . S
C304 C305 1.375 . S
C304 C308 1.532 . S
C305 H295 0.930 . S
C305 C304 1.375 . S
C305 C306 1.416 . S
C306 C305 1.416 . S
C306 C307 1.371 . S
C307 H296 0.930 . S
C307 C303 1.389 . S
C307 C306 1.371 . S
C308 H297 0.970 . S
C308 H298 0.970 . S
C308 C304 1.532 . S
C308 C309 1.499 . S
C309 C308 1.499 . S
C309 C310 1.370 . S
C309 C314 1.415 . S
C310 H299 0.930 . S
C310 C309 1.370 . S
C310 C311 1.407 . S
C311 C310 1.407 . S
C311 C312 1.365 . S
C312 H300 0.930 . S
C312 C311 1.365 . S
C312 C313 1.393 . S
C313 C312 1.393 . S
C313 C314 1.387 . S
C314 H301 0.930 . S
C314 C309 1.415 . S
C314 C313 1.387 . S
H315 C323 0.930 . S
H316 C326 0.930 . S
H317 C328 0.930 . S
H318 C329 0.970 . S
H319 C329 0.970 . S
H320 C331 0.930 . S
H321 C333 0.930 . S
H322 C335 0.930 . S
C323 H315 0.930 . S
C323 C324 1.382 . S
C323 C325 1.426 . S
C324 C323 1.382 . S
C324 C328 1.389 . S
C325 C323 1.426 . S
C325 C326 1.375 . S
C325 C329 1.532 . S
C326 H316 0.930 . S
C326 C325 1.375 . S
C326 C327 1.416 . S
C327 C326 1.416 . S
C327 C328 1.371 . S
C328 H317 0.930 . S
C328 C324 1.389 . S
C328 C327 1.371 . S
C329 H318 0.970 . S
C329 H319 0.970 . S
C329 C325 1.532 . S
C329 C330 1.499 . S
C330 C329 1.499 . S
C330 C331 1.370 . S
C330 C335 1.415 . S
C331 H320 0.930 . S
C331 C330 1.370 . S
C331 C332 1.407 . S
C332 C331 1.407 . S
C332 C333 1.365 . S
C333 H321 0.930 . S
C333 C332 1.365 . S
C333 C334 1.393 . S
C334 C333 1.393 . S
C334 C335 1.387 . S
C335 H322 0.930 . S
C335 C330 1.415 . S
C335 C334 1.387 . S
H336 C344 0.930 . S
H337 C347 0.930 . S
H338 C349 0.930 . S
H339 C350 0.970 . S
H340 C350 0.970 . S
H341 C352 0.930 . S
H342 C354 0.930 . S
H343 C356 0.930 . S
C344 H336 0.930 . S
C344 C345 1.382 . S
C344 C346 1.426 . S
C345 C344 1.382 . S
C345 C349 1.389 . S
C346 C344 1.426 . S
C346 C347 1.375 . S
C346 C350 1.532 . S
C347 H337 0.930 . S
C347 C346 1.375 . S
C347 C348 1.416 . S
C348 C347 1.416 . S
C348 C349 1.371 . S
C349 H338 0.930 . S
C349 C345 1.389 . S
C349 C348 1.371 . S
C350 H339 0.970 . S
C350 H340 0.970 . S
C350 C346 1.532 . S
C350 C351 1.499 . S
C351 C350 1.499 . S
C351 C352 1.370 . S
C351 C356 1.415 . S
C352 H341 0.930 . S
C352 C351 1.370 . S
C352 C353 1.407 . S
C353 C352 1.407 . S
C353 C354 1.365 . S
C354 H342 0.930 . S
C354 C353 1.365 . S
C354 C355 1.393 . S
C355 C354 1.393 . S
C355 C356 1.387 . S
C356 H343 0.930 . S
C356 C351 1.415 . S
C356 C355 1.387 . S
H357 C365 0.930 . S
H358 C368 0.930 . S
H359 C370 0.930 . S
H360 C371 0.970 . S
H361 C371 0.970 . S
H362 C373 0.930 . S
H363 C375 0.930 . S
H364 C377 0.930 . S
C365 H357 0.930 . S
C365 C366 1.382 . S
C365 C367 1.426 . S
C366 C365 1.382 . S
C366 C370 1.389 . S
C367 C365 1.426 . S
C367 C368 1.375 . S
C367 C371 1.532 . S
C368 H358 0.930 . S
C368 C367 1.375 . S
C368 C369 1.416 . S
C369 C368 1.416 . S
C369 C370 1.371 . S
C370 H359 0.930 . S
C370 C366 1.389 . S
C370 C369 1.371 . S
C371 H360 0.970 . S
C371 H361 0.970 . S
C371 C367 1.532 . S
C371 C372 1.499 . S
C372 C371 1.499 . S
C372 C373 1.370 . S
C372 C377 1.415 . S
C373 H362 0.930 . S
C373 C372 1.370 . S
C373 C374 1.407 . S
C374 C373 1.407 . S
C374 C375 1.365 . S
C375 H363 0.930 . S
C375 C374 1.365 . S
C375 C376 1.393 . S
C376 C375 1.393 . S
C376 C377 1.387 . S
C377 H364 0.930 . S
C377 C372 1.415 . S
C377 C376 1.387 . S
H378 C386 0.930 . S
H379 C389 0.930 . S
H380 C391 0.930 . S
H381 C392 0.970 . S
H382 C392 0.970 . S
H383 C394 0.930 . S
H384 C396 0.930 . S
H385 C398 0.930 . S
C386 H378 0.930 . S
C386 C387 1.382 . S
C386 C388 1.426 . S
C387 C386 1.382 . S
C387 C391 1.389 . S
C388 C386 1.426 . S
C388 C389 1.375 . S
C388 C392 1.532 . S
C389 H379 0.930 . S
C389 C388 1.375 . S
C389 C390 1.416 . S
C390 C389 1.416 . S
C390 C391 1.371 . S
C391 H380 0.930 . S
C391 C387 1.389 . S
C391 C390 1.371 . S
C392 H381 0.970 . S
C392 H382 0.970 . S
C392 C388 1.532 . S
C392 C393 1.499 . S
C393 C392 1.499 . S
C393 C394 1.370 . S
C393 C398 1.415 . S
C394 H383 0.930 . S
C394 C393 1.370 . S
C394 C395 1.407 . S
C395 C394 1.407 . S
C395 C396 1.365 . S
C396 H384 0.930 . S
C396 C395 1.365 . S
C396 C397 1.393 . S
C397 C396 1.393 . S
C397 C398 1.387 . S
C398 H385 0.930 . S
C398 C393 1.415 . S
C398 C397 1.387 . S
H399 C407 0.930 . S
H400 C410 0.930 . S
H401 C412 0.930 . S
H402 C413 0.970 . S
H403 C413 0.970 . S
H404 C415 0.930 . S
H405 C417 0.930 . S
H406 C419 0.930 . S
C407 H399 0.930 . S
C407 C408 1.382 . S
C407 C409 1.426 . S
C408 C407 1.382 . S
C408 C412 1.389 . S
C409 C407 1.426 . S
C409 C410 1.375 . S
C409 C413 1.532 . S
C410 H400 0.930 . S
C410 C409 1.375 . S
C410 C411 1.416 . S
C411 C410 1.416 . S
C411 C412 1.371 . S
C412 H401 0.930 . S
C412 C408 1.389 . S
C412 C411 1.371 . S
C413 H402 0.970 . S
C413 H403 0.970 . S
C413 C409 1.532 . S
C413 C414 1.499 . S
C414 C413 1.499 . S
C414 C415 1.370 . S
C414 C419 1.415 . S
C415 H404 0.930 . S
C415 C414 1.370 . S
C415 C416 1.407 . S
C416 C415 1.407 . S
C416 C417 1.365 . S
C417 H405 0.930 . S
C417 C416 1.365 . S
C417 C418 1.393 . S
C418 C417 1.393 . S
C418 C419 1.387 . S
C419 H406 0.930 . S
C419 C414 1.415 . S
C419 C418 1.387 . S
H420 C428 0.930 . S
H421 C431 0.930 . S
H422 C433 0.930 . S
H423 C434 0.970 . S
H424 C434 0.970 . S
H425 C436 0.930 . S
H426 C438 0.930 . S
H427 C440 0.930 . S
C428 H420 0.930 . S
C428 C429 1.382 . S
C428 C430 1.426 . S
C429 C428 1.382 . S
C429 C433 1.389 . S
C430 C428 1.426 . S
C430 C431 1.375 . S
C430 C434 1.532 . S
C431 H421 0.930 . S
C431 C430 1.375 . S
C431 C432 1.416 . S
C432 C431 1.416 . S
C432 C433 1.371 . S
C433 H422 0.930 . S
C433 C429 1.389 . S
C433 C432 1.371 . S
C434 H423 0.970 . S
C434 H424 0.970 . S
C434 C430 1.532 . S
C434 C435 1.499 . S
C435 C434 1.499 . S
C435 C436 1.370 . S
C435 C440 1.415 . S
C436 H425 0.930 . S
C436 C435 1.370 . S
C436 C437 1.407 . S
C437 C436 1.407 . S
C437 C438 1.365 . S
C438 H426 0.930 . S
C438 C437 1.365 . S
C438 C439 1.393 . S
C439 C438 1.393 . S
C439 C440 1.387 . S
C440 H427 0.930 . S
C440 C435 1.415 . S
C440 C439 1.387 . S
H441 C449 0.930 . S
H442 C452 0.930 . S
H443 C454 0.930 . S
H444 C455 0.970 . S
H445 C455 0.970 . S
H446 C457 0.930 . S
H447 C459 0.930 . S
H448 C461 0.930 . S
C449 H441 0.930 . S
C449 C450 1.382 . S
C449 C451 1.426 . S
C450 C449 1.382 . S
C450 C454 1.389 1_455 S
C451 C449 1.426 . S
C451 C452 1.375 . S
C451 C455 1.532 . S
C452 H442 0.930 . S
C452 C451 1.375 . S
C452 C453 1.416 . S
C453 C452 1.416 . S
C453 C454 1.371 1_455 S
C454 H443 0.930 . S
C454 C450 1.389 1_655 S
C454 C453 1.371 1_655 S
C455 H444 0.970 . S
C455 H445 0.970 . S
C455 C451 1.532 . S
C455 C456 1.499 . S
C456 C455 1.499 . S
C456 C457 1.370 . S
C456 C461 1.415 . S
C457 H446 0.930 . S
C457 C456 1.370 . S
C457 C458 1.411 . S
C458 C457 1.411 . S
C458 C459 1.371 1_455 S
C459 H447 0.930 . S
C459 C458 1.371 1_655 S
C459 C460 1.393 1_655 S
C460 C459 1.393 1_455 S
C460 C461 1.387 . S
C461 H448 0.930 . S
C461 C456 1.415 . S
C461 C460 1.387 . S
H462 C470 0.930 . S
H463 C473 0.930 . S
H464 C475 0.930 . S
H465 C476 0.970 . S
H466 C476 0.970 . S
H467 C478 0.930 . S
H468 C480 0.930 . S
H469 C482 0.930 . S
C470 H462 0.930 . S
C470 C471 1.382 . S
C470 C472 1.426 . S
C471 C470 1.382 . S
C471 C475 1.389 . S
C472 C470 1.426 . S
C472 C473 1.375 . S
C472 C476 1.532 . S
C473 H463 0.930 . S
C473 C472 1.375 . S
C473 C474 1.416 . S
C474 C473 1.416 . S
C474 C475 1.371 . S
C475 H464 0.930 . S
C475 C471 1.389 . S
C475 C474 1.371 . S
C476 H465 0.970 . S
C476 H466 0.970 . S
C476 C472 1.532 . S
C476 C477 1.499 . S
C477 C476 1.499 . S
C477 C478 1.370 . S
C477 C482 1.415 . S
C478 H467 0.930 . S
C478 C477 1.370 . S
C478 C479 1.407 . S
C479 C478 1.407 . S
C479 C480 1.365 . S
C480 H468 0.930 . S
C480 C479 1.365 . S
C480 C481 1.393 . S
C481 C480 1.393 . S
C481 C482 1.387 . S
C482 H469 0.930 . S
C482 C477 1.415 . S
C482 C481 1.387 . S
H483 C491 0.930 . S
H484 C494 0.930 . S
H485 C496 0.930 . S
H486 C497 0.970 . S
H487 C497 0.970 . S
H488 C499 0.930 . S
H489 C501 0.930 . S
H490 C503 0.930 . S
C491 H483 0.930 . S
C491 C492 1.382 . S
C491 C493 1.426 . S
C492 C491 1.382 . S
C492 C496 1.389 1_565 S
C493 C491 1.426 . S
C493 C494 1.375 . S
C493 C497 1.532 . S
C494 H484 0.930 . S
C494 C493 1.375 . S
C494 C495 1.416 . S
C495 C494 1.416 . S
C495 C496 1.371 1_565 S
C496 H485 0.930 . S
C496 C492 1.389 1_545 S
C496 C495 1.371 1_545 S
C497 H486 0.970 . S
C497 H487 0.970 . S
C497 C493 1.532 . S
C497 C498 1.499 . S
C498 C497 1.499 . S
C498 C499 1.370 . S
C498 C503 1.415 . S
C499 H488 0.930 . S
C499 C498 1.370 . S
C499 C500 1.431 . S
C500 C499 1.431 . S
C500 C501 1.355 1_565 S
C501 H489 0.930 . S
C501 C500 1.355 1_545 S
C501 C502 1.393 1_545 S
C502 C501 1.393 1_565 S
C502 C503 1.387 . S
C503 H490 0.930 . S
C503 C498 1.415 . S
C503 C502 1.387 . S
H504 C512 0.930 . S
H505 C515 0.930 . S
H506 C517 0.930 . S
H507 C518 0.970 . S
H508 C518 0.970 . S
H509 C520 0.930 . S
H510 C522 0.930 . S
H511 C524 0.930 . S
C512 H504 0.930 . S
C512 C513 1.382 . S
C512 C514 1.426 . S
C513 C512 1.382 . S
C513 C517 1.389 1_565 S
C514 C512 1.426 . S
C514 C515 1.375 . S
C514 C518 1.532 . S
C515 H505 0.930 . S
C515 C514 1.375 . S
C515 C516 1.486 . S
C516 C515 1.486 . S
C516 C517 1.345 1_565 S
C517 H506 0.930 . S
C517 C513 1.389 1_545 S
C517 C516 1.345 1_545 S
C518 H507 0.970 . S
C518 H508 0.970 . S
C518 C514 1.532 . S
C518 C519 1.499 . S
C519 C518 1.499 . S
C519 C520 1.370 . S
C519 C524 1.415 . S
C520 H509 0.930 . S
C520 C519 1.370 . S
C520 C521 1.407 . S
C521 C520 1.407 . S
C521 C522 1.365 1_565 S
C522 H510 0.930 . S
C522 C521 1.365 1_545 S
C522 C523 1.393 1_545 S
C523 C522 1.393 1_565 S
C523 C524 1.387 . S
C524 H511 0.930 . S
C524 C519 1.415 . S
C524 C523 1.387 . S
H525 C533 0.930 . S
H526 C536 0.930 . S
H527 C538 0.930 . S
H528 C539 0.970 . S
H529 C539 0.970 . S
H530 C541 0.930 . S
H531 C543 0.930 . S
H532 C545 0.930 . S
C533 H525 0.930 . S
C533 C534 1.382 . S
C533 C535 1.426 . S
C534 C533 1.382 . S
C534 C538 1.389 1_455 S
C535 C533 1.426 . S
C535 C536 1.375 . S
C535 C539 1.532 . S
C536 H526 0.930 . S
C536 C535 1.375 . S
C536 C537 1.416 . S
C537 C536 1.416 . S
C537 C538 1.371 1_455 S
C538 H527 0.930 . S
C538 C534 1.389 1_655 S
C538 C537 1.371 1_655 S
C539 H528 0.970 . S
C539 H529 0.970 . S
C539 C535 1.532 . S
C539 C540 1.499 . S
C540 C539 1.499 . S
C540 C541 1.370 . S
C540 C545 1.415 . S
C541 H530 0.930 . S
C541 C540 1.370 . S
C541 C542 1.407 . S
C542 C541 1.407 . S
C542 C543 1.365 1_455 S
C543 H531 0.930 . S
C543 C542 1.365 1_655 S
C543 C544 1.393 1_655 S
C544 C543 1.393 1_455 S
C544 C545 1.387 . S
C545 H532 0.930 . S
C545 C540 1.415 . S
C545 C544 1.387 . S
H546 C554 0.930 . S
H547 C557 0.930 . S
H548 C559 0.930 . S
H549 C560 0.970 . S
H550 C560 0.970 . S
H551 C562 0.930 . S
H552 C564 0.930 . S
H553 C566 0.930 . S
C554 H546 0.930 . S
C554 C555 1.382 . S
C554 C556 1.426 . S
C555 C554 1.382 . S
C555 C559 1.389 . S
C556 C554 1.426 . S
C556 C557 1.375 . S
C556 C560 1.532 . S
C557 H547 0.930 . S
C557 C556 1.375 . S
C557 C558 1.416 . S
C558 C557 1.416 . S
C558 C559 1.371 . S
C559 H548 0.930 . S
C559 C555 1.389 . S
C559 C558 1.371 . S
C560 H549 0.970 . S
C560 H550 0.970 . S
C560 C556 1.532 . S
C560 C561 1.499 . S
C561 C560 1.499 . S
C561 C562 1.370 . S
C561 C566 1.415 . S
C562 H551 0.930 . S
C562 C561 1.370 . S
C562 C563 1.407 . S
C563 C562 1.407 . S
C563 C564 1.365 . S
C564 H552 0.930 . S
C564 C563 1.365 . S
C564 C565 1.393 . S
C565 C564 1.393 . S
C565 C566 1.387 . S
C566 H553 0.930 . S
C566 C561 1.415 . S
C566 C565 1.387 . S
H567 C575 0.930 . S
H568 C578 0.930 . S
H569 C580 0.930 . S
H570 C581 0.970 . S
H571 C581 0.970 . S
H572 C583 0.930 . S
H573 C585 0.930 . S
H574 C587 0.930 . S
C575 H567 0.930 . S
C575 C576 1.382 . S
C575 C577 1.426 . S
C576 C575 1.382 . S
C576 C580 1.389 . S
C577 C575 1.426 . S
C577 C578 1.375 . S
C577 C581 1.532 . S
C578 H568 0.930 . S
C578 C577 1.375 . S
C578 C579 1.416 . S
C579 C578 1.416 . S
C579 C580 1.371 . S
C580 H569 0.930 . S
C580 C576 1.389 . S
C580 C579 1.371 . S
C581 H570 0.970 . S
C581 H571 0.970 . S
C581 C577 1.532 . S
C581 C582 1.499 . S
C582 C581 1.499 . S
C582 C583 1.370 . S
C582 C587 1.415 . S
C583 H572 0.930 . S
C583 C582 1.370 . S
C583 C584 1.407 . S
C584 C583 1.407 . S
C584 C585 1.365 . S
C585 H573 0.930 . S
C585 C584 1.365 . S
C585 C586 1.393 . S
C586 C585 1.393 . S
C586 C587 1.387 . S
C587 H574 0.930 . S
C587 C582 1.415 . S
C587 C586 1.387 . S
H588 C596 0.930 . S
H589 C599 0.930 . S
H590 C601 0.930 . S
H591 C602 0.970 . S
H592 C602 0.970 . S
H593 C604 0.930 . S
H594 C606 0.930 . S
H595 C608 0.930 . S
C596 H588 0.930 . S
C596 C597 1.382 . S
C596 C598 1.426 . S
C597 C596 1.382 . S
C597 C601 1.389 . S
C598 C596 1.426 . S
C598 C599 1.375 . S
C598 C602 1.532 . S
C599 H589 0.930 . S
C599 C598 1.375 . S
C599 C600 1.416 . S
C600 C599 1.416 . S
C600 C601 1.371 . S
C601 H590 0.930 . S
C601 C597 1.389 . S
C601 C600 1.371 . S
C602 H591 0.970 . S
C602 H592 0.970 . S
C602 C598 1.532 . S
C602 C603 1.499 . S
C603 C602 1.499 . S
C603 C604 1.370 . S
C603 C608 1.415 . S
C604 H593 0.930 . S
C604 C603 1.370 . S
C604 C605 1.407 . S
C605 C604 1.407 . S
C605 C606 1.365 . S
C606 H594 0.930 . S
C606 C605 1.365 . S
C606 C607 1.393 . S
C607 C606 1.393 . S
C607 C608 1.387 . S
C608 H595 0.930 . S
C608 C603 1.415 . S
C608 C607 1.387 . S
H609 C617 0.930 . S
H610 C620 0.930 . S
H611 C622 0.930 . S
H612 C623 0.970 . S
H613 C623 0.970 . S
H614 C625 0.930 . S
H615 C627 0.930 . S
H616 C629 0.930 . S
C617 H609 0.930 . S
C617 C618 1.382 . S
C617 C619 1.426 . S
C618 C617 1.382 . S
C618 C622 1.389 . S
C619 C617 1.426 . S
C619 C620 1.375 . S
C619 C623 1.532 . S
C620 H610 0.930 . S
C620 C619 1.375 . S
C620 C621 1.416 . S
C621 C620 1.416 . S
C621 C622 1.371 . S
C622 H611 0.930 . S
C622 C618 1.389 . S
C622 C621 1.371 . S
C623 H612 0.970 . S
C623 H613 0.970 . S
C623 C619 1.532 . S
C623 C624 1.499 . S
C624 C623 1.499 . S
C624 C625 1.370 . S
C624 C629 1.415 . S
C625 H614 0.930 . S
C625 C624 1.370 . S
C625 C626 1.407 . S
C626 C625 1.407 . S
C626 C627 1.365 . S
C627 H615 0.930 . S
C627 C626 1.365 . S
C627 C628 1.393 . S
C628 C627 1.393 . S
C628 C629 1.387 . S
C629 H616 0.930 . S
C629 C624 1.415 . S
C629 C628 1.387 . S
H630 C648 0.951 . S
H631 C650 0.951 . S
H632 C652 0.950 . S
H633 C653 0.950 . S
H634 C655 0.950 . S
H635 C658 0.950 . S
H636 C659 0.950 . S
H637 C661 0.950 . S
H638 C662 0.950 . S
H639 C663 0.951 . S
H640 C665 0.951 . S
H641 C667 0.950 . S
H642 C668 0.950 . S
H643 C670 0.950 . S
H644 C673 0.950 . S
H645 C674 0.950 . S
H646 C676 0.950 . S
H647 C677 0.950 . S
C648 H630 0.951 . S
C648 C649 1.355 1_455 S
C648 C650 1.388 . S
C649 C648 1.355 1_655 S
C649 C653 1.404 . S
C650 H631 0.951 . S
C650 C648 1.388 . S
C650 C651 1.366 1_455 S
C651 C650 1.366 1_655 S
C651 C652 1.414 . S
C651 C654 1.499 . S
C652 H632 0.950 . S
C652 C651 1.414 . S
C652 C653 1.374 . S
C653 H633 0.950 . S
C653 C649 1.404 . S
C653 C652 1.374 . S
C654 C651 1.499 . S
C654 C655 1.373 . S
C654 C656 1.389 . S
C655 H634 0.950 . S
C655 C654 1.373 . S
C655 C671 1.370 . S
C656 C654 1.389 . S
C656 C657 1.524 . S
C656 C670 1.377 . S
C657 C656 1.524 . S
C657 C658 1.397 . S
C657 C662 1.363 1_655 S
C658 H635 0.950 . S
C658 C657 1.397 . S
C658 C659 1.334 . S
C659 H636 0.950 . S
C659 C658 1.334 . S
C659 C660 1.287 . S
C660 C659 1.287 . S
C660 C661 1.524 1_655 S
C660 H679 0.913 . S
C661 H637 0.950 . S
C661 C660 1.524 1_455 S
C661 C662 1.415 . S
C662 H638 0.950 . S
C662 C657 1.363 1_455 S
C662 C661 1.415 . S
C663 H639 0.951 . S
C663 C664 1.366 . S
C663 C665 1.388 . S
C664 C663 1.366 . S
C664 C668 1.385 1_655 S
C665 H640 0.951 . S
C665 C663 1.388 . S
C665 C666 1.366 . S
C666 C665 1.366 . S
C666 C667 1.414 1_655 S
C666 C669 1.529 . S
C667 H641 0.950 . S
C667 C666 1.414 1_455 S
C667 C668 1.374 . S
C668 H642 0.950 . S
C668 C664 1.385 1_455 S
C668 C667 1.374 . S
C669 C666 1.529 . S
C669 C670 1.348 . S
C669 C671 1.391 . S
C670 H643 0.950 . S
C670 C656 1.377 . S
C670 C669 1.348 . S
C671 C655 1.370 . S
C671 C669 1.391 . S
C671 C672 1.530 1_655 S
C672 C671 1.530 1_455 S
C672 C673 1.397 . S
C672 C677 1.363 1_455 S
C673 H644 0.950 . S
C673 C672 1.397 . S
C673 C674 1.334 . S
C674 H645 0.950 . S
C674 C673 1.334 . S
C674 C675 1.287 . S
C675 C674 1.287 . S
C675 C676 1.524 1_455 S
C675 H678 0.999 . S
C676 H646 0.950 . S
C676 C675 1.524 1_655 S
C676 C677 1.415 . S
C677 H647 0.950 . S
C677 C672 1.363 1_655 S
C677 C676 1.415 . S
H678 C675 0.999 . S
H679 C660 0.913 . S
H680 C698 0.951 . S
H681 C700 0.951 . S
H682 C702 0.950 . S
H683 C703 0.950 . S
H684 C705 0.950 . S
H685 C708 0.950 . S
H686 C709 0.950 . S
H687 C711 0.950 . S
H688 C712 0.950 . S
H689 C713 0.951 . S
H690 C715 0.951 . S
H691 C717 0.950 . S
H692 C718 0.950 . S
H693 C720 0.950 . S
H694 C723 0.950 . S
H695 C724 0.950 . S
H696 C726 0.950 . S
H697 C727 0.950 . S
C698 H680 0.951 . S
C698 C699 1.366 . S
C698 C700 1.388 . S
C699 C698 1.366 . S
C699 C703 1.385 . S
C700 H681 0.951 . S
C700 C698 1.388 . S
C700 C701 1.366 . S
C701 C700 1.366 . S
C701 C702 1.414 . S
C701 C704 1.499 . S
C702 H682 0.950 . S
C702 C701 1.414 . S
C702 C703 1.374 . S
C703 H683 0.950 . S
C703 C699 1.385 . S
C703 C702 1.374 . S
C704 C701 1.499 . S
C704 C705 1.373 . S
C704 C706 1.389 . S
C705 H684 0.950 . S
C705 C704 1.373 . S
C705 C721 1.377 . S
C706 C704 1.389 . S
C706 C707 1.524 . S
C706 C720 1.377 . S
C707 C706 1.524 . S
C707 C708 1.397 . S
C707 C712 1.363 . S
C708 H685 0.950 . S
C708 C707 1.397 . S
C708 C709 1.334 . S
C709 H686 0.950 . S
C709 C708 1.334 . S
C709 C710 1.287 . S
C710 C709 1.287 . S
C710 C711 1.524 . S
C710 H729 0.913 . S
C711 H687 0.950 . S
C711 C710 1.524 . S
C711 C712 1.415 . S
C712 H688 0.950 . S
C712 C707 1.363 . S
C712 C711 1.415 . S
C713 H689 0.951 . S
C713 C714 1.366 . S
C713 C715 1.388 . S
C714 C713 1.366 . S
C714 C718 1.385 . S
C715 H690 0.951 . S
C715 C713 1.388 . S
C715 C716 1.366 . S
C716 C715 1.366 . S
C716 C717 1.414 . S
C716 C719 1.499 . S
C717 H691 0.950 . S
C717 C716 1.414 . S
C717 C718 1.374 . S
C718 H692 0.950 . S
C718 C714 1.385 . S
C718 C717 1.374 . S
C719 C716 1.499 . S
C719 C720 1.373 . S
C719 C721 1.389 . S
C720 H693 0.950 . S
C720 C706 1.377 . S
C720 C719 1.373 . S
C721 C705 1.377 . S
C721 C719 1.389 . S
C721 C722 1.524 . S
C722 C721 1.524 . S
C722 C723 1.397 . S
C722 C727 1.363 . S
C723 H694 0.950 . S
C723 C722 1.397 . S
C723 C724 1.334 . S
C724 H695 0.950 . S
C724 C723 1.334 . S
C724 C725 1.287 . S
C725 C724 1.287 . S
C725 C726 1.524 . S
C725 H728 0.999 . S
C726 H696 0.950 . S
C726 C725 1.524 . S
C726 C727 1.415 . S
C727 H697 0.950 . S
C727 C722 1.363 . S
C727 C726 1.415 . S
H728 C725 0.999 . S
H729 C710 0.913 . S
H730 C748 0.951 . S
H731 C750 0.951 . S
H732 C752 0.950 . S
H733 C753 0.950 . S
H734 C755 0.950 . S
H735 C758 0.950 . S
H736 C759 0.950 . S
H737 C761 0.950 . S
H738 C762 0.950 . S
H739 C763 0.951 . S
H740 C765 0.951 . S
H741 C767 0.950 . S
H742 C768 0.950 . S
H743 C770 0.950 . S
H744 C773 0.950 . S
H745 C774 0.950 . S
H746 C776 0.950 . S
H747 C777 0.950 1_565 S
C748 H730 0.951 . S
C748 C749 1.366 . S
C748 C750 1.388 . S
C749 C748 1.366 . S
C749 C753 1.385 1_545 S
C750 H731 0.951 . S
C750 C748 1.388 . S
C750 C751 1.366 . S
C751 C750 1.366 . S
C751 C752 1.414 1_545 S
C751 C754 1.499 . S
C752 H732 0.950 . S
C752 C751 1.414 1_565 S
C752 C753 1.374 . S
C753 H733 0.950 . S
C753 C749 1.385 1_565 S
C753 C752 1.374 . S
C754 C751 1.499 . S
C754 C755 1.373 . S
C754 C756 1.389 . S
C755 H734 0.950 . S
C755 C754 1.373 . S
C755 C771 1.377 . S
C756 C754 1.389 . S
C756 C757 1.524 1_545 S
C756 C770 1.377 . S
C757 C756 1.524 1_565 S
C757 C758 1.397 . S
C757 C762 1.363 1_565 S
C758 H735 0.950 . S
C758 C757 1.397 . S
C758 C759 1.334 . S
C759 H736 0.950 . S
C759 C758 1.334 . S
C759 C760 1.287 . S
C760 C759 1.287 . S
C760 C761 1.524 1_565 S
C760 H779 0.913 . S
C761 H737 0.950 . S
C761 C760 1.524 1_545 S
C761 C762 1.415 . S
C762 H738 0.950 . S
C762 C757 1.363 1_545 S
C762 C761 1.415 . S
C763 H739 0.951 . S
C763 C764 1.366 1_565 S
C763 C765 1.388 . S
C764 C763 1.366 1_545 S
C764 C768 1.385 . S
C765 H740 0.951 . S
C765 C763 1.388 . S
C765 C766 1.366 1_565 S
C766 C765 1.366 1_545 S
C766 C767 1.414 . S
C766 C769 1.499 . S
C767 H741 0.950 . S
C767 C766 1.414 . S
C767 C768 1.374 . S
C768 H742 0.950 . S
C768 C764 1.385 . S
C768 C767 1.374 . S
C769 C766 1.499 . S
C769 C770 1.373 . S
C769 C771 1.389 . S
C770 H743 0.950 . S
C770 C756 1.377 . S
C770 C769 1.373 . S
C771 C755 1.377 . S
C771 C769 1.389 . S
C771 C772 1.524 . S
C772 C771 1.524 . S
C772 C773 1.397 . S
C772 C777 1.363 . S
C773 H744 0.950 . S
C773 C772 1.397 . S
C773 C774 1.334 . S
C774 H745 0.950 . S
C774 C773 1.334 . S
C774 C775 1.287 . S
C775 C774 1.287 . S
C775 C776 1.524 . S
C775 H778 0.999 . S
C776 H746 0.950 . S
C776 C775 1.524 . S
C776 C777 1.415 . S
C777 H747 0.950 1_545 S
C777 C772 1.363 . S
C777 C776 1.415 . S
H778 C775 0.999 . S
H779 C760 0.913 . S
H780 C798 0.951 . S
H781 C800 0.951 . S
H782 C802 0.950 . S
H783 C803 0.950 . S
H784 C805 0.950 . S
H785 C808 0.950 . S
H786 C809 0.950 . S
H787 C811 0.950 . S
H788 C812 0.950 . S
H789 C813 0.951 . S
H790 C815 0.951 . S
H791 C817 0.950 . S
H792 C818 0.950 . S
H793 C820 0.950 . S
H794 C823 0.950 . S
H795 C824 0.950 . S
H796 C826 0.950 . S
H797 C827 0.950 . S
C798 H780 0.951 . S
C798 C799 1.353 . S
C798 C800 1.388 . S
C799 C798 1.353 . S
C799 C803 1.379 1_545 S
C800 H781 0.951 . S
C800 C798 1.388 . S
C800 C801 1.373 . S
C801 C800 1.373 . S
C801 C802 1.429 1_545 S
C801 C804 1.480 . S
C802 H782 0.950 . S
C802 C801 1.429 1_565 S
C802 C803 1.374 . S
C803 H783 0.950 . S
C803 C799 1.379 1_565 S
C803 C802 1.374 . S
C804 C801 1.480 . S
C804 C805 1.367 1_545 S
C804 C806 1.392 . S
C805 H784 0.950 . S
C805 C804 1.367 1_565 S
C805 C821 1.377 . S
C806 C804 1.392 . S
C806 C807 1.524 . S
C806 C820 1.377 . S
C807 C806 1.524 . S
C807 C808 1.397 . S
C807 C812 1.363 . S
C808 H785 0.950 . S
C808 C807 1.397 . S
C808 C809 1.334 . S
C809 H786 0.950 . S
C809 C808 1.334 . S
C809 C810 1.287 . S
C810 C809 1.287 . S
C810 C811 1.524 . S
C810 H829 0.913 . S
C811 H787 0.950 . S
C811 C810 1.524 . S
C811 C812 1.415 . S
C812 H788 0.950 . S
C812 C807 1.363 . S
C812 C811 1.415 . S
C813 H789 0.951 . S
C813 C814 1.366 . S
C813 C815 1.388 . S
C814 C813 1.366 . S
C814 C818 1.385 1_565 S
C815 H790 0.951 . S
C815 C813 1.388 . S
C815 C816 1.366 . S
C816 C815 1.366 . S
C816 C817 1.414 1_565 S
C816 C819 1.499 . S
C817 H791 0.950 . S
C817 C816 1.414 1_545 S
C817 C818 1.374 . S
C818 H792 0.950 . S
C818 C814 1.385 1_545 S
C818 C817 1.374 . S
C819 C816 1.499 . S
C819 C820 1.373 1_565 S
C819 C821 1.389 . S
C820 H793 0.950 . S
C820 C806 1.377 . S
C820 C819 1.373 1_545 S
C821 C805 1.377 . S
C821 C819 1.389 . S
C821 C822 1.524 . S
C822 C821 1.524 . S
C822 C823 1.397 . S
C822 C827 1.363 . S
C823 H794 0.950 . S
C823 C822 1.397 . S
C823 C824 1.334 . S
C824 H795 0.950 . S
C824 C823 1.334 . S
C824 C825 1.287 . S
C825 C824 1.287 . S
C825 C826 1.524 . S
C825 H828 0.999 . S
C826 H796 0.950 . S
C826 C825 1.524 . S
C826 C827 1.415 . S
C827 H797 0.950 . S
C827 C822 1.363 . S
C827 C826 1.415 . S
H828 C825 0.999 . S
H829 C810 0.913 . S
H830 C848 0.951 . S
H831 C850 0.951 . S
H832 C852 0.950 . S
H833 C853 0.950 . S
H834 C855 0.950 . S
H835 C858 0.950 . S
H836 C859 0.950 . S
H837 C861 0.950 1_655 S
H838 C862 1.038 . S
H839 C863 0.951 . S
H840 C865 0.951 . S
H841 C867 0.950 . S
H842 C868 0.950 . S
H843 C870 0.950 . S
H844 C873 0.950 . S
H845 C874 0.950 . S
H846 C876 0.950 . S
H847 C877 0.950 . S
C848 H830 0.951 . S
C848 C849 1.366 1_655 S
C848 C850 1.388 . S
C849 C848 1.366 1_455 S
C849 C853 1.385 . S
C850 H831 0.951 . S
C850 C848 1.388 . S
C850 C851 1.366 1_655 S
C851 C850 1.366 1_455 S
C851 C852 1.414 . S
C851 C854 1.499 . S
C852 H832 0.950 . S
C852 C851 1.414 . S
C852 C853 1.374 . S
C853 H833 0.950 . S
C853 C849 1.385 . S
C853 C852 1.374 . S
C854 C851 1.499 . S
C854 C855 1.373 . S
C854 C856 1.389 . S
C855 H834 0.950 . S
C855 C854 1.373 . S
C855 C871 1.377 . S
C856 C854 1.389 . S
C856 C857 1.524 . S
C856 C870 1.377 . S
C857 C856 1.524 . S
C857 C858 1.397 . S
C857 C862 1.336 1_455 S
C858 H835 0.950 . S
C858 C857 1.397 . S
C858 C859 1.334 . S
C859 H836 0.950 . S
C859 C858 1.334 . S
C859 C860 1.287 . S
C860 C859 1.287 . S
C860 C861 1.524 . S
C860 H879 0.913 . S
C861 H837 0.950 1_455 S
C861 C860 1.524 . S
C861 C862 1.361 1_455 S
C862 H838 1.038 . S
C862 C857 1.336 1_655 S
C862 C861 1.361 1_655 S
C863 H839 0.951 . S
C863 C864 1.366 . S
C863 C865 1.388 . S
C864 C863 1.366 . S
C864 C868 1.385 1_455 S
C865 H840 0.951 . S
C865 C863 1.388 . S
C865 C866 1.366 . S
C866 C865 1.366 . S
C866 C867 1.414 1_455 S
C866 C869 1.499 . S
C867 H841 0.950 . S
C867 C866 1.414 1_655 S
C867 C868 1.374 . S
C868 H842 0.950 . S
C868 C864 1.385 1_655 S
C868 C867 1.374 . S
C869 C866 1.499 . S
C869 C870 1.373 . S
C869 C871 1.389 . S
C870 H843 0.950 . S
C870 C856 1.377 . S
C870 C869 1.373 . S
C871 C855 1.377 . S
C871 C869 1.389 . S
C871 C872 1.524 1_455 S
C872 C871 1.524 1_655 S
C872 C873 1.397 . S
C872 C877 1.363 1_655 S
C873 H844 0.950 . S
C873 C872 1.397 . S
C873 C874 1.334 . S
C874 H845 0.950 . S
C874 C873 1.334 . S
C874 C875 1.287 . S
C875 C874 1.287 . S
C875 C876 1.524 1_655 S
C875 H878 0.999 . S
C876 H846 0.950 . S
C876 C875 1.524 1_455 S
C876 C877 1.415 . S
C877 H847 0.950 . S
C877 C872 1.363 1_455 S
C877 C876 1.415 . S
H878 C875 0.999 . S
H879 C860 0.913 . S
H880 C898 0.951 . S
H881 C900 0.951 . S
H882 C902 0.950 . S
H883 C903 0.950 . S
H884 C905 0.950 . S
H885 C908 0.950 . S
H886 C909 0.950 . S
H887 C911 0.950 . S
H888 C912 0.950 . S
H889 C913 0.951 . S
H890 C915 0.951 . S
H891 C917 0.950 . S
H892 C918 0.950 . S
H893 C920 0.950 . S
H894 C923 0.950 . S
H895 C924 0.950 . S
H896 C926 0.950 . S
H897 C927 0.950 . S
C898 H880 0.951 . S
C898 C899 1.366 . S
C898 C900 1.388 . S
C899 C898 1.366 . S
C899 C903 1.385 . S
C900 H881 0.951 . S
C900 C898 1.388 . S
C900 C901 1.366 . S
C901 C900 1.366 . S
C901 C902 1.414 . S
C901 C904 1.499 . S
C902 H882 0.950 . S
C902 C901 1.414 . S
C902 C903 1.374 . S
C903 H883 0.950 . S
C903 C899 1.385 . S
C903 C902 1.374 . S
C904 C901 1.499 . S
C904 C905 1.373 . S
C904 C906 1.389 . S
C905 H884 0.950 . S
C905 C904 1.373 . S
C905 C921 1.377 . S
C906 C904 1.389 . S
C906 C907 1.524 . S
C906 C920 1.377 . S
C907 C906 1.524 . S
C907 C908 1.397 . S
C907 C912 1.363 . S
C908 H885 0.950 . S
C908 C907 1.397 . S
C908 C909 1.334 . S
C909 H886 0.950 . S
C909 C908 1.334 . S
C909 C910 1.287 . S
C910 C909 1.287 . S
C910 C911 1.524 . S
C910 H929 0.913 1_556 S
C911 H887 0.950 . S
C911 C910 1.524 . S
C911 C912 1.415 . S
C912 H888 0.950 . S
C912 C907 1.363 . S
C912 C911 1.415 . S
C913 H889 0.951 . S
C913 C914 1.366 . S
C913 C915 1.388 . S
C914 C913 1.366 . S
C914 C918 1.385 . S
C915 H890 0.951 . S
C915 C913 1.388 . S
C915 C916 1.366 . S
C916 C915 1.366 . S
C916 C917 1.414 . S
C916 C919 1.499 . S
C917 H891 0.950 . S
C917 C916 1.414 . S
C917 C918 1.374 . S
C918 H892 0.950 . S
C918 C914 1.385 . S
C918 C917 1.374 . S
C919 C916 1.499 . S
C919 C920 1.373 . S
C919 C921 1.389 . S
C920 H893 0.950 . S
C920 C906 1.377 . S
C920 C919 1.373 . S
C921 C905 1.377 . S
C921 C919 1.389 . S
C921 C922 1.524 . S
C922 C921 1.524 . S
C922 C923 1.397 . S
C922 C927 1.363 . S
C923 H894 0.950 . S
C923 C922 1.397 . S
C923 C924 1.334 . S
C924 H895 0.950 . S
C924 C923 1.334 . S
C924 C925 1.287 . S
C925 C924 1.287 . S
C925 C926 1.524 . S
C925 H928 0.999 . S
C926 H896 0.950 . S
C926 C925 1.524 . S
C926 C927 1.415 . S
C927 H897 0.950 . S
C927 C922 1.363 . S
C927 C926 1.415 . S
H928 C925 0.999 . S
H929 C910 0.913 1_554 S
H930 C948 0.951 . S
H931 C950 0.951 . S
H932 C952 0.950 . S
H933 C953 0.950 . S
H934 C955 0.950 . S
H935 C958 0.950 . S
H936 C959 0.950 . S
H937 C961 0.950 . S
H938 C962 0.950 . S
H939 C963 0.951 . S
H940 C965 0.951 . S
H941 C967 0.950 . S
H942 C968 0.950 . S
H943 C970 0.950 . S
H944 C973 0.950 . S
H945 C974 0.950 . S
H946 C976 0.950 . S
H947 C977 0.950 . S
C948 H930 0.951 . S
C948 C949 1.366 1_655 S
C948 C950 1.388 . S
C949 C948 1.366 1_455 S
C949 C953 1.385 . S
C950 H931 0.951 . S
C950 C948 1.388 . S
C950 C951 1.366 1_655 S
C951 C950 1.366 1_455 S
C951 C952 1.414 . S
C951 C954 1.499 . S
C952 H932 0.950 . S
C952 C951 1.414 . S
C952 C953 1.374 . S
C953 H933 0.950 . S
C953 C949 1.385 . S
C953 C952 1.374 . S
C954 C951 1.499 . S
C954 C955 1.373 . S
C954 C956 1.389 1_455 S
C955 H934 0.950 . S
C955 C954 1.373 . S
C955 C971 1.377 . S
C956 C954 1.389 1_655 S
C956 C957 1.524 . S
C956 C970 1.377 . S
C957 C956 1.524 . S
C957 C958 1.397 . S
C957 C962 1.363 . S
C958 H935 0.950 . S
C958 C957 1.397 . S
C958 C959 1.334 . S
C959 H936 0.950 . S
C959 C958 1.334 . S
C959 C960 1.287 . S
C960 C959 1.287 . S
C960 C961 1.524 . S
C960 H979 0.913 . S
C961 H937 0.950 . S
C961 C960 1.524 . S
C961 C962 1.415 . S
C962 H938 0.950 . S
C962 C957 1.363 . S
C962 C961 1.415 . S
C963 H939 0.951 . S
C963 C964 1.385 . S
C963 C965 1.388 . S
C964 C963 1.385 . S
C964 C968 1.353 1_455 S
C965 H940 0.951 . S
C965 C963 1.388 . S
C965 C966 1.366 . S
C966 C965 1.366 . S
C966 C967 1.414 1_455 S
C966 C969 1.499 . S
C967 H941 0.950 . S
C967 C966 1.414 1_655 S
C967 C968 1.374 . S
C968 H942 0.950 . S
C968 C964 1.353 1_655 S
C968 C967 1.374 . S
C969 C966 1.499 . S
C969 C970 1.373 1_455 S
C969 C971 1.389 . S
C970 H943 0.950 . S
C970 C956 1.377 . S
C970 C969 1.373 1_655 S
C971 C955 1.377 . S
C971 C969 1.389 . S
C971 C972 1.524 . S
C972 C971 1.524 . S
C972 C973 1.397 . S
C972 C977 1.363 . S
C973 H944 0.950 . S
C973 C972 1.397 . S
C973 C974 1.334 . S
C974 H945 0.950 . S
C974 C973 1.334 . S
C974 C975 1.287 . S
C975 C974 1.287 . S
C975 C976 1.524 . S
C975 H978 0.999 . S
C976 H946 0.950 . S
C976 C975 1.524 . S
C976 C977 1.415 . S
C977 H947 0.950 . S
C977 C972 1.363 . S
C977 C976 1.415 . S
H978 C975 0.999 . S
H979 C960 0.913 . S
H980 C998 0.951 . S
H981 C1000 0.951 . S
H982 C1002 0.950 . S
H983 C1003 0.950 . S
H984 C1005 0.950 . S
H985 C1008 0.950 . S
H986 C1009 0.950 . S
H987 C1011 0.950 . S
H988 C1012 0.950 . S
H989 C1013 0.951 . S
H990 C1015 0.951 . S
H991 C1017 0.950 . S
H992 C1018 0.950 . S
H993 C1020 0.950 . S
H994 C1023 0.950 . S
H995 C1024 0.950 . S
H996 C1026 0.950 . S
H997 C1027 0.950 . S
C998 H980 0.951 . S
C998 C999 1.366 . S
C998 C1000 1.388 . S
C999 C998 1.366 . S
C999 C1003 1.385 . S
C1000 H981 0.951 . S
C1000 C998 1.388 . S
C1000 C1001 1.366 . S
C1001 C1000 1.366 . S
C1001 C1002 1.414 . S
C1001 C1004 1.499 . S
C1002 H982 0.950 . S
C1002 C1001 1.414 . S
C1002 C1003 1.374 . S
C1003 H983 0.950 . S
C1003 C999 1.385 . S
C1003 C1002 1.374 . S
C1004 C1001 1.499 . S
C1004 C1005 1.373 . S
C1004 C1006 1.389 . S
C1005 H984 0.950 . S
C1005 C1004 1.373 . S
C1005 C1021 1.377 . S
C1006 C1004 1.389 . S
C1006 C1007 1.524 . S
C1006 C1020 1.377 . S
C1007 C1006 1.524 . S
C1007 C1008 1.397 . S
C1007 C1012 1.363 . S
C1008 H985 0.950 . S
C1008 C1007 1.397 . S
C1008 C1009 1.334 . S
C1009 H986 0.950 . S
C1009 C1008 1.334 . S
C1009 C1010 1.287 . S
C1010 C1009 1.287 . S
C1010 C1011 1.524 . S
C1010 H1029 0.913 . S
C1011 H987 0.950 . S
C1011 C1010 1.524 . S
C1011 C1012 1.415 . S
C1012 H988 0.950 . S
C1012 C1007 1.363 . S
C1012 C1011 1.415 . S
C1013 H989 0.951 . S
C1013 C1014 1.366 . S
C1013 C1015 1.388 . S
C1014 C1013 1.366 . S
C1014 C1018 1.385 . S
C1015 H990 0.951 . S
C1015 C1013 1.388 . S
C1015 C1016 1.366 . S
C1016 C1015 1.366 . S
C1016 C1017 1.414 . S
C1016 C1019 1.499 . S
C1017 H991 0.950 . S
C1017 C1016 1.414 . S
C1017 C1018 1.374 . S
C1018 H992 0.950 . S
C1018 C1014 1.385 . S
C1018 C1017 1.374 . S
C1019 C1016 1.499 . S
C1019 C1020 1.373 . S
C1019 C1021 1.389 . S
C1020 H993 0.950 . S
C1020 C1006 1.377 . S
C1020 C1019 1.373 . S
C1021 C1005 1.377 . S
C1021 C1019 1.389 . S
C1021 C1022 1.524 . S
C1022 C1021 1.524 . S
C1022 C1023 1.397 . S
C1022 C1027 1.363 . S
C1023 H994 0.950 . S
C1023 C1022 1.397 . S
C1023 C1024 1.334 . S
C1024 H995 0.950 . S
C1024 C1023 1.334 . S
C1024 C1025 1.287 . S
C1025 C1024 1.287 . S
C1025 C1026 1.524 . S
C1025 H1028 0.999 . S
C1026 H996 0.950 . S
C1026 C1025 1.524 . S
C1026 C1027 1.415 . S
C1027 H997 0.950 . S
C1027 C1022 1.363 . S
C1027 C1026 1.415 . S
H1028 C1025 0.999 . S
H1029 C1010 0.913 . S
H1030 C1048 0.951 . S
H1031 C1050 0.951 . S
H1032 C1052 0.950 . S
H1033 C1053 0.950 . S
H1034 C1055 0.950 . S
H1035 C1058 0.950 . S
H1036 C1059 0.950 . S
H1037 C1061 0.950 . S
H1038 C1062 0.950 . S
H1039 C1063 0.951 . S
H1040 C1065 0.951 . S
H1041 C1067 0.950 . S
H1042 C1068 0.950 . S
H1043 C1070 0.950 . S
H1044 C1073 0.950 . S
H1045 C1074 0.950 . S
H1046 C1076 0.950 . S
H1047 C1077 0.950 . S
C1048 H1030 0.951 . S
C1048 C1049 1.388 . S
C1048 C1050 1.388 . S
C1049 C1048 1.388 . S
C1049 C1053 1.327 1_565 S
C1050 H1031 0.951 . S
C1050 C1048 1.388 . S
C1050 C1051 1.362 . S
C1051 C1050 1.362 . S
C1051 C1052 1.415 1_565 S
C1051 C1054 1.497 1_565 S
C1052 H1032 0.950 . S
C1052 C1051 1.415 1_545 S
C1052 C1053 1.374 . S
C1053 H1033 0.950 . S
C1053 C1049 1.327 1_545 S
C1053 C1052 1.374 . S
C1054 C1051 1.497 1_545 S
C1054 C1055 1.373 1_545 S
C1054 C1056 1.394 . S
C1055 H1034 0.950 . S
C1055 C1054 1.373 1_565 S
C1055 C1071 1.377 . S
C1056 C1054 1.394 . S
C1056 C1057 1.524 . S
C1056 C1070 1.377 . S
C1057 C1056 1.524 . S
C1057 C1058 1.397 . S
C1057 C1062 1.363 . S
C1058 H1035 0.950 . S
C1058 C1057 1.397 . S
C1058 C1059 1.334 . S
C1059 H1036 0.950 . S
C1059 C1058 1.334 . S
C1059 C1060 1.287 . S
C1060 C1059 1.287 . S
C1060 C1061 1.524 . S
C1060 H1079 0.913 . S
C1061 H1037 0.950 . S
C1061 C1060 1.524 . S
C1061 C1062 1.415 . S
C1062 H1038 0.950 . S
C1062 C1057 1.363 . S
C1062 C1061 1.415 . S
C1063 H1039 0.951 . S
C1063 C1064 1.360 1_545 S
C1063 C1065 1.388 . S
C1064 C1063 1.360 1_565 S
C1064 C1068 1.402 . S
C1065 H1040 0.951 . S
C1065 C1063 1.388 . S
C1065 C1066 1.366 1_545 S
C1066 C1065 1.366 1_565 S
C1066 C1067 1.414 . S
C1066 C1069 1.499 . S
C1067 H1041 0.950 . S
C1067 C1066 1.414 . S
C1067 C1068 1.374 . S
C1068 H1042 0.950 . S
C1068 C1064 1.402 . S
C1068 C1067 1.374 . S
C1069 C1066 1.499 . S
C1069 C1070 1.373 1_565 S
C1069 C1071 1.389 . S
C1070 H1043 0.950 . S
C1070 C1056 1.377 . S
C1070 C1069 1.373 1_545 S
C1071 C1055 1.377 . S
C1071 C1069 1.389 . S
C1071 C1072 1.524 . S
C1072 C1071 1.524 . S
C1072 C1073 1.397 . S
C1072 C1077 1.363 . S
C1073 H1044 0.950 . S
C1073 C1072 1.397 . S
C1073 C1074 1.334 . S
C1074 H1045 0.950 . S
C1074 C1073 1.334 . S
C1074 C1075 1.287 . S
C1075 C1074 1.287 . S
C1075 C1076 1.524 . S
C1075 H1078 0.999 . S
C1076 H1046 0.950 . S
C1076 C1075 1.524 . S
C1076 C1077 1.415 . S
C1077 H1047 0.950 . S
C1077 C1072 1.363 . S
C1077 C1076 1.415 . S
H1078 C1075 0.999 . S
H1079 C1060 0.913 . S
H1080 C1098 0.951 . S
H1081 C1100 0.951 . S
H1082 C1102 0.950 . S
H1083 C1103 0.950 . S
H1084 C1105 0.950 . S
H1085 C1108 0.950 . S
H1086 C1109 0.950 . S
H1087 C1111 0.950 . S
H1088 C1112 0.950 . S
H1089 C1113 0.951 . S
H1090 C1115 0.951 . S
H1091 C1117 0.950 . S
H1092 C1118 0.950 . S
H1093 C1120 0.950 . S
H1094 C1123 0.950 . S
H1095 C1124 0.950 . S
H1096 C1126 0.950 . S
H1097 C1127 0.950 . S
C1098 H1080 0.951 . S
C1098 C1099 1.366 1_565 S
C1098 C1100 1.388 . S
C1099 C1098 1.366 1_545 S
C1099 C1103 1.385 . S
C1100 H1081 0.951 . S
C1100 C1098 1.388 . S
C1100 C1101 1.366 1_565 S
C1101 C1100 1.366 1_545 S
C1101 C1102 1.414 . S
C1101 C1104 1.499 . S
C1102 H1082 0.950 . S
C1102 C1101 1.414 . S
C1102 C1103 1.374 . S
C1103 H1083 0.950 . S
C1103 C1099 1.385 . S
C1103 C1102 1.374 . S
C1104 C1101 1.499 . S
C1104 C1105 1.373 . S
C1104 C1106 1.389 1_545 S
C1105 H1084 0.950 . S
C1105 C1104 1.373 . S
C1105 C1121 1.377 . S
C1106 C1104 1.389 1_565 S
C1106 C1107 1.524 . S
C1106 C1120 1.377 . S
C1107 C1106 1.524 . S
C1107 C1108 1.397 . S
C1107 C1112 1.363 . S
C1108 H1085 0.950 . S
C1108 C1107 1.397 . S
C1108 C1109 1.334 . S
C1109 H1086 0.950 . S
C1109 C1108 1.334 . S
C1109 C1110 1.287 . S
C1110 C1109 1.287 . S
C1110 C1111 1.524 . S
C1110 H1129 0.913 . S
C1111 H1087 0.950 . S
C1111 C1110 1.524 . S
C1111 C1112 1.415 . S
C1112 H1088 0.950 . S
C1112 C1107 1.363 . S
C1112 C1111 1.415 . S
C1113 H1089 0.951 . S
C1113 C1114 1.385 . S
C1113 C1115 1.388 . S
C1114 C1113 1.385 . S
C1114 C1118 1.354 1_545 S
C1115 H1090 0.951 . S
C1115 C1113 1.388 . S
C1115 C1116 1.457 . S
C1116 C1115 1.457 . S
C1116 C1117 1.361 1_545 S
C1116 C1119 1.491 . S
C1117 H1091 0.950 . S
C1117 C1116 1.361 1_565 S
C1117 C1118 1.374 . S
C1118 H1092 0.950 . S
C1118 C1114 1.354 1_565 S
C1118 C1117 1.374 . S
C1119 C1116 1.491 . S
C1119 C1120 1.331 1_545 S
C1119 C1121 1.409 . S
C1120 H1093 0.950 . S
C1120 C1106 1.377 . S
C1120 C1119 1.331 1_565 S
C1121 C1105 1.377 . S
C1121 C1119 1.409 . S
C1121 C1122 1.524 . S
C1122 C1121 1.524 . S
C1122 C1123 1.397 . S
C1122 C1127 1.363 . S
C1123 H1094 0.950 . S
C1123 C1122 1.397 . S
C1123 C1124 1.334 . S
C1124 H1095 0.950 . S
C1124 C1123 1.334 . S
C1124 C1125 1.287 . S
C1125 C1124 1.287 . S
C1125 C1126 1.524 . S
C1125 H1128 0.999 . S
C1126 H1096 0.950 . S
C1126 C1125 1.524 . S
C1126 C1127 1.415 . S
C1127 H1097 0.950 . S
C1127 C1122 1.363 . S
C1127 C1126 1.415 . S
H1128 C1125 0.999 . S
H1129 C1110 0.913 . S
H1130 C1148 0.951 . S
H1131 C1150 0.951 . S
H1132 C1152 0.950 . S
H1133 C1153 0.950 . S
H1134 C1155 0.950 . S
H1135 C1158 0.950 . S
H1136 C1159 0.950 1_655 S
H1137 C1161 0.950 . S
H1138 C1162 0.950 . S
H1139 C1163 0.951 . S
H1140 C1165 0.951 . S
H1141 C1167 0.950 . S
H1142 C1168 0.950 . S
H1143 C1170 0.950 . S
H1144 C1173 0.991 . S
H1145 C1174 0.950 1_455 S
H1146 C1176 0.950 . S
H1147 C1177 0.950 . S
C1148 H1130 0.951 . S
C1148 C1149 1.331 1_455 S
C1148 C1150 1.388 . S
C1149 C1148 1.331 1_655 S
C1149 C1153 1.406 . S
C1150 H1131 0.951 . S
C1150 C1148 1.388 . S
C1150 C1151 1.329 1_455 S
C1151 C1150 1.329 1_655 S
C1151 C1152 1.478 . S
C1151 C1154 1.476 . S
C1152 H1132 0.950 . S
C1152 C1151 1.478 . S
C1152 C1153 1.374 . S
C1153 H1133 0.950 . S
C1153 C1149 1.406 . S
C1153 C1152 1.374 . S
C1154 C1151 1.476 . S
C1154 C1155 1.373 . S
C1154 C1156 1.389 1_655 S
C1155 H1134 0.950 . S
C1155 C1154 1.373 . S
C1155 C1171 1.377 . S
C1156 C1154 1.389 1_455 S
C1156 C1157 1.524 . S
C1156 C1170 1.377 . S
C1157 C1156 1.524 . S
C1157 C1158 1.397 1_455 S
C1157 C1162 1.363 . S
C1158 H1135 0.950 . S
C1158 C1157 1.397 1_655 S
C1158 C1159 1.334 1_655 S
C1159 H1136 0.950 1_455 S
C1159 C1158 1.334 1_455 S
C1159 C1160 1.287 . S
C1160 C1159 1.287 . S
C1160 C1161 1.524 . S
C1160 H1179 0.913 . S
C1161 H1137 0.950 . S
C1161 C1160 1.524 . S
C1161 C1162 1.415 . S
C1162 H1138 0.950 . S
C1162 C1157 1.363 . S
C1162 C1161 1.415 . S
C1163 H1139 0.951 . S
C1163 C1164 1.403 . S
C1163 C1165 1.388 . S
C1164 C1163 1.403 . S
C1164 C1168 1.362 1_655 S
C1165 H1140 0.951 . S
C1165 C1163 1.388 . S
C1165 C1166 1.370 . S
C1166 C1165 1.370 . S
C1166 C1167 1.406 1_655 S
C1166 C1169 1.509 1_655 S
C1167 H1141 0.950 . S
C1167 C1166 1.406 1_455 S
C1167 C1168 1.374 . S
C1168 H1142 0.950 . S
C1168 C1164 1.362 1_455 S
C1168 C1167 1.374 . S
C1169 C1166 1.509 1_455 S
C1169 C1170 1.380 . S
C1169 C1171 1.375 1_455 S
C1170 H1143 0.950 . S
C1170 C1156 1.377 . S
C1170 C1169 1.380 . S
C1171 C1155 1.377 . S
C1171 C1169 1.375 1_655 S
C1171 C1172 1.524 . S
C1172 C1171 1.524 . S
C1172 C1173 1.369 1_655 S
C1172 C1177 1.363 . S
C1173 H1144 0.991 . S
C1173 C1172 1.369 1_455 S
C1173 C1174 1.323 1_455 S
C1174 H1145 0.950 1_655 S
C1174 C1173 1.323 1_655 S
C1174 C1175 1.287 . S
C1175 C1174 1.287 . S
C1175 C1176 1.524 . S
C1175 H1178 0.999 . S
C1176 H1146 0.950 . S
C1176 C1175 1.524 . S
C1176 C1177 1.415 . S
C1177 H1147 0.950 . S
C1177 C1172 1.363 . S
C1177 C1176 1.415 . S
H1178 C1175 0.999 . S
H1179 C1160 0.913 . S
H1180 C1198 0.951 . S
H1181 C1200 0.951 . S
H1182 C1202 0.950 . S
H1183 C1203 0.950 . S
H1184 C1205 0.950 . S
H1185 C1208 0.950 . S
H1186 C1209 0.950 . S
H1187 C1211 0.950 . S
H1188 C1212 0.950 . S
H1189 C1213 0.951 . S
H1190 C1215 0.951 . S
H1191 C1217 0.950 . S
H1192 C1218 0.950 . S
H1193 C1220 0.950 . S
H1194 C1223 0.950 . S
H1195 C1224 0.950 . S
H1196 C1226 0.950 . S
H1197 C1227 0.950 . S
C1198 H1180 0.951 . S
C1198 C1199 1.366 . S
C1198 C1200 1.388 . S
C1199 C1198 1.366 . S
C1199 C1203 1.385 . S
C1200 H1181 0.951 . S
C1200 C1198 1.388 . S
C1200 C1201 1.366 . S
C1201 C1200 1.366 . S
C1201 C1202 1.414 . S
C1201 C1204 1.499 . S
C1202 H1182 0.950 . S
C1202 C1201 1.414 . S
C1202 C1203 1.374 . S
C1203 H1183 0.950 . S
C1203 C1199 1.385 . S
C1203 C1202 1.374 . S
C1204 C1201 1.499 . S
C1204 C1205 1.373 . S
C1204 C1206 1.389 . S
C1205 H1184 0.950 . S
C1205 C1204 1.373 . S
C1205 C1221 1.377 . S
C1206 C1204 1.389 . S
C1206 C1207 1.524 . S
C1206 C1220 1.377 . S
C1207 C1206 1.524 . S
C1207 C1208 1.397 . S
C1207 C1212 1.363 . S
C1208 H1185 0.950 . S
C1208 C1207 1.397 . S
C1208 C1209 1.334 . S
C1209 H1186 0.950 . S
C1209 C1208 1.334 . S
C1209 C1210 1.287 . S
C1210 C1209 1.287 . S
C1210 C1211 1.524 . S
C1210 H1229 0.913 . S
C1211 H1187 0.950 . S
C1211 C1210 1.524 . S
C1211 C1212 1.415 . S
C1212 H1188 0.950 . S
C1212 C1207 1.363 . S
C1212 C1211 1.415 . S
C1213 H1189 0.951 . S
C1213 C1214 1.366 . S
C1213 C1215 1.388 . S
C1214 C1213 1.366 . S
C1214 C1218 1.385 . S
C1215 H1190 0.951 . S
C1215 C1213 1.388 . S
C1215 C1216 1.366 . S
C1216 C1215 1.366 . S
C1216 C1217 1.414 . S
C1216 C1219 1.499 . S
C1217 H1191 0.950 . S
C1217 C1216 1.414 . S
C1217 C1218 1.374 . S
C1218 H1192 0.950 . S
C1218 C1214 1.385 . S
C1218 C1217 1.374 . S
C1219 C1216 1.499 . S
C1219 C1220 1.373 . S
C1219 C1221 1.389 . S
C1220 H1193 0.950 . S
C1220 C1206 1.377 . S
C1220 C1219 1.373 . S
C1221 C1205 1.377 . S
C1221 C1219 1.389 . S
C1221 C1222 1.524 . S
C1222 C1221 1.524 . S
C1222 C1223 1.397 . S
C1222 C1227 1.363 . S
C1223 H1194 0.950 . S
C1223 C1222 1.397 . S
C1223 C1224 1.334 . S
C1224 H1195 0.950 . S
C1224 C1223 1.334 . S
C1224 C1225 1.287 . S
C1225 C1224 1.287 . S
C1225 C1226 1.524 . S
C1225 H1228 0.999 . S
C1226 H1196 0.950 . S
C1226 C1225 1.524 . S
C1226 C1227 1.415 . S
C1227 H1197 0.950 . S
C1227 C1222 1.363 . S
C1227 C1226 1.415 . S
H1228 C1225 0.999 . S
H1229 C1210 0.913 . S
H1230 C1248 0.951 . S
H1231 C1250 0.951 . S
H1232 C1252 0.950 . S
H1233 C1253 0.950 . S
H1234 C1255 0.950 . S
H1235 C1258 0.950 . S
H1236 C1259 0.950 . S
H1237 C1261 0.950 . S
H1238 C1262 0.950 . S
H1239 C1263 0.951 . S
H1240 C1265 0.951 . S
H1241 C1267 0.950 . S
H1242 C1268 0.950 . S
H1243 C1270 0.950 . S
H1244 C1273 0.950 . S
H1245 C1274 0.950 . S
H1246 C1276 0.950 . S
H1247 C1277 0.950 . S
C1248 H1230 0.951 . S
C1248 C1249 1.366 . S
C1248 C1250 1.388 . S
C1249 C1248 1.366 . S
C1249 C1253 1.385 . S
C1250 H1231 0.951 . S
C1250 C1248 1.388 . S
C1250 C1251 1.366 . S
C1251 C1250 1.366 . S
C1251 C1252 1.414 . S
C1251 C1254 1.499 . S
C1252 H1232 0.950 . S
C1252 C1251 1.414 . S
C1252 C1253 1.374 . S
C1253 H1233 0.950 . S
C1253 C1249 1.385 . S
C1253 C1252 1.374 . S
C1254 C1251 1.499 . S
C1254 C1255 1.373 . S
C1254 C1256 1.389 . S
C1255 H1234 0.950 . S
C1255 C1254 1.373 . S
C1255 C1271 1.377 . S
C1256 C1254 1.389 . S
C1256 C1257 1.524 . S
C1256 C1270 1.377 . S
C1257 C1256 1.524 . S
C1257 C1258 1.397 . S
C1257 C1262 1.363 . S
C1258 H1235 0.950 . S
C1258 C1257 1.397 . S
C1258 C1259 1.334 . S
C1259 H1236 0.950 . S
C1259 C1258 1.334 . S
C1259 C1260 1.287 . S
C1260 C1259 1.287 . S
C1260 C1261 1.524 . S
C1260 H1279 0.913 . S
C1261 H1237 0.950 . S
C1261 C1260 1.524 . S
C1261 C1262 1.415 . S
C1262 H1238 0.950 . S
C1262 C1257 1.363 . S
C1262 C1261 1.415 . S
C1263 H1239 0.951 . S
C1263 C1264 1.366 . S
C1263 C1265 1.388 . S
C1264 C1263 1.366 . S
C1264 C1268 1.385 . S
C1265 H1240 0.951 . S
C1265 C1263 1.388 . S
C1265 C1266 1.366 . S
C1266 C1265 1.366 . S
C1266 C1267 1.414 . S
C1266 C1269 1.499 . S
C1267 H1241 0.950 . S
C1267 C1266 1.414 . S
C1267 C1268 1.374 . S
C1268 H1242 0.950 . S
C1268 C1264 1.385 . S
C1268 C1267 1.374 . S
C1269 C1266 1.499 . S
C1269 C1270 1.373 . S
C1269 C1271 1.389 . S
C1270 H1243 0.950 . S
C1270 C1256 1.377 . S
C1270 C1269 1.373 . S
C1271 C1255 1.377 . S
C1271 C1269 1.389 . S
C1271 C1272 1.524 . S
C1272 C1271 1.524 . S
C1272 C1273 1.397 . S
C1272 C1277 1.363 . S
C1273 H1244 0.950 . S
C1273 C1272 1.397 . S
C1273 C1274 1.334 . S
C1274 H1245 0.950 . S
C1274 C1273 1.334 . S
C1274 C1275 1.287 . S
C1275 C1274 1.287 . S
C1275 C1276 1.524 . S
C1275 H1278 0.999 . S
C1276 H1246 0.950 . S
C1276 C1275 1.524 . S
C1276 C1277 1.415 . S
C1277 H1247 0.950 . S
C1277 C1272 1.363 . S
C1277 C1276 1.415 . S
H1278 C1275 0.999 . S
H1279 C1260 0.913 . S
H1280 C1298 0.951 . S
H1281 C1300 0.951 . S
H1282 C1302 0.950 . S
H1283 C1303 0.950 . S
H1284 C1305 0.950 . S
H1285 C1308 0.950 . S
H1286 C1309 0.950 . S
H1287 C1311 0.950 . S
H1288 C1312 0.950 . S
H1289 C1313 0.951 . S
H1290 C1315 0.951 . S
H1291 C1317 0.950 . S
H1292 C1318 0.950 . S
H1293 C1320 0.950 . S
H1294 C1323 0.950 . S
H1295 C1324 0.950 . S
H1296 C1326 0.950 . S
H1297 C1327 0.950 . S
C1298 H1280 0.951 . S
C1298 C1299 1.366 . S
C1298 C1300 1.388 . S
C1299 C1298 1.366 . S
C1299 C1303 1.385 . S
C1300 H1281 0.951 . S
C1300 C1298 1.388 . S
C1300 C1301 1.366 . S
C1301 C1300 1.366 . S
C1301 C1302 1.414 . S
C1301 C1304 1.499 . S
C1302 H1282 0.950 . S
C1302 C1301 1.414 . S
C1302 C1303 1.374 . S
C1303 H1283 0.950 . S
C1303 C1299 1.385 . S
C1303 C1302 1.374 . S
C1304 C1301 1.499 . S
C1304 C1305 1.373 . S
C1304 C1306 1.389 . S
C1305 H1284 0.950 . S
C1305 C1304 1.373 . S
C1305 C1321 1.377 . S
C1306 C1304 1.389 . S
C1306 C1307 1.524 . S
C1306 C1320 1.377 . S
C1307 C1306 1.524 . S
C1307 C1308 1.397 . S
C1307 C1312 1.363 . S
C1308 H1285 0.950 . S
C1308 C1307 1.397 . S
C1308 C1309 1.334 . S
C1309 H1286 0.950 . S
C1309 C1308 1.334 . S
C1309 C1310 1.287 . S
C1310 C1309 1.287 . S
C1310 C1311 1.524 . S
C1310 H1329 0.913 . S
C1311 H1287 0.950 . S
C1311 C1310 1.524 . S
C1311 C1312 1.415 . S
C1312 H1288 0.950 . S
C1312 C1307 1.363 . S
C1312 C1311 1.415 . S
C1313 H1289 0.951 . S
C1313 C1314 1.366 . S
C1313 C1315 1.388 . S
C1314 C1313 1.366 . S
C1314 C1318 1.385 . S
C1315 H1290 0.951 . S
C1315 C1313 1.388 . S
C1315 C1316 1.366 . S
C1316 C1315 1.366 . S
C1316 C1317 1.414 . S
C1316 C1319 1.499 . S
C1317 H1291 0.950 . S
C1317 C1316 1.414 . S
C1317 C1318 1.374 . S
C1318 H1292 0.950 . S
C1318 C1314 1.385 . S
C1318 C1317 1.374 . S
C1319 C1316 1.499 . S
C1319 C1320 1.373 . S
C1319 C1321 1.389 . S
C1320 H1293 0.950 . S
C1320 C1306 1.377 . S
C1320 C1319 1.373 . S
C1321 C1305 1.377 . S
C1321 C1319 1.389 . S
C1321 C1322 1.524 . S
C1322 C1321 1.524 . S
C1322 C1323 1.397 . S
C1322 C1327 1.363 . S
C1323 H1294 0.950 . S
C1323 C1322 1.397 . S
C1323 C1324 1.334 . S
C1324 H1295 0.950 . S
C1324 C1323 1.334 . S
C1324 C1325 1.287 . S
C1325 C1324 1.287 . S
C1325 C1326 1.524 . S
C1325 H1328 0.999 . S
C1326 H1296 0.950 . S
C1326 C1325 1.524 . S
C1326 C1327 1.415 . S
C1327 H1297 0.950 . S
C1327 C1322 1.363 . S
C1327 C1326 1.415 . S
H1328 C1325 0.999 . S
H1329 C1310 0.913 . S
H1330 C1348 0.951 . S
H1331 C1350 0.951 . S
H1332 C1352 0.950 . S
H1333 C1353 0.950 . S
H1334 C1355 0.950 . S
H1335 C1358 0.950 . S
H1336 C1359 0.950 . S
H1337 C1361 0.950 . S
H1338 C1362 0.950 . S
H1339 C1363 0.951 . S
H1340 C1365 0.951 . S
H1341 C1367 0.950 . S
H1342 C1368 0.950 . S
H1343 C1370 0.950 . S
H1344 C1373 0.950 . S
H1345 C1374 0.950 . S
H1346 C1376 0.950 . S
H1347 C1377 0.950 . S
C1348 H1330 0.951 . S
C1348 C1349 1.366 . S
C1348 C1350 1.388 . S
C1349 C1348 1.366 . S
C1349 C1353 1.385 . S
C1350 H1331 0.951 . S
C1350 C1348 1.388 . S
C1350 C1351 1.366 . S
C1351 C1350 1.366 . S
C1351 C1352 1.414 . S
C1351 C1354 1.499 . S
C1352 H1332 0.950 . S
C1352 C1351 1.414 . S
C1352 C1353 1.374 . S
C1353 H1333 0.950 . S
C1353 C1349 1.385 . S
C1353 C1352 1.374 . S
C1354 C1351 1.499 . S
C1354 C1355 1.373 . S
C1354 C1356 1.389 . S
C1355 H1334 0.950 . S
C1355 C1354 1.373 . S
C1355 C1371 1.377 . S
C1356 C1354 1.389 . S
C1356 C1357 1.524 . S
C1356 C1370 1.377 . S
C1357 C1356 1.524 . S
C1357 C1358 1.397 . S
C1357 C1362 1.363 . S
C1358 H1335 0.950 . S
C1358 C1357 1.397 . S
C1358 C1359 1.334 . S
C1359 H1336 0.950 . S
C1359 C1358 1.334 . S
C1359 C1360 1.287 . S
C1360 C1359 1.287 . S
C1360 C1361 1.524 . S
C1360 H1379 0.913 . S
C1361 H1337 0.950 . S
C1361 C1360 1.524 . S
C1361 C1362 1.415 . S
C1362 H1338 0.950 . S
C1362 C1357 1.363 . S
C1362 C1361 1.415 . S
C1363 H1339 0.951 . S
C1363 C1364 1.366 . S
C1363 C1365 1.388 . S
C1364 C1363 1.366 . S
C1364 C1368 1.385 . S
C1365 H1340 0.951 . S
C1365 C1363 1.388 . S
C1365 C1366 1.366 . S
C1366 C1365 1.366 . S
C1366 C1367 1.414 . S
C1366 C1369 1.499 . S
C1367 H1341 0.950 . S
C1367 C1366 1.414 . S
C1367 C1368 1.374 . S
C1368 H1342 0.950 . S
C1368 C1364 1.385 . S
C1368 C1367 1.374 . S
C1369 C1366 1.499 . S
C1369 C1370 1.373 . S
C1369 C1371 1.389 . S
C1370 H1343 0.950 . S
C1370 C1356 1.377 . S
C1370 C1369 1.373 . S
C1371 C1355 1.377 . S
C1371 C1369 1.389 . S
C1371 C1372 1.524 . S
C1372 C1371 1.524 . S
C1372 C1373 1.397 . S
C1372 C1377 1.363 . S
C1373 H1344 0.950 . S
C1373 C1372 1.397 . S
C1373 C1374 1.334 . S
C1374 H1345 0.950 . S
C1374 C1373 1.334 . S
C1374 C1375 1.287 . S
C1375 C1374 1.287 . S
C1375 C1376 1.524 . S
C1375 H1378 0.999 . S
C1376 H1346 0.950 . S
C1376 C1375 1.524 . S
C1376 C1377 1.415 . S
C1377 H1347 0.950 . S
C1377 C1372 1.363 . S
C1377 C1376 1.415 . S
H1378 C1375 0.999 . S
H1379 C1360 0.913 . S
H1380 C1398 0.951 . S
H1381 C1400 0.951 . S
H1382 C1402 0.950 . S
H1383 C1403 0.950 . S
H1384 C1405 0.950 . S
H1385 C1408 0.950 . S
H1386 C1409 0.950 . S
H1387 C1411 0.950 . S
H1388 C1412 0.950 . S
H1389 C1413 0.951 . S
H1390 C1415 0.951 . S
H1391 C1417 0.950 . S
H1392 C1418 0.950 . S
H1393 C1420 0.950 . S
H1394 C1423 0.950 . S
H1395 C1424 0.950 . S
H1396 C1426 0.950 . S
H1397 C1427 0.950 . S
C1398 H1380 0.951 . S
C1398 C1399 1.366 . S
C1398 C1400 1.388 . S
C1399 C1398 1.366 . S
C1399 C1403 1.385 . S
C1400 H1381 0.951 . S
C1400 C1398 1.388 . S
C1400 C1401 1.366 . S
C1401 C1400 1.366 . S
C1401 C1402 1.414 . S
C1401 C1404 1.499 . S
C1402 H1382 0.950 . S
C1402 C1401 1.414 . S
C1402 C1403 1.374 . S
C1403 H1383 0.950 . S
C1403 C1399 1.385 . S
C1403 C1402 1.374 . S
C1404 C1401 1.499 . S
C1404 C1405 1.373 . S
C1404 C1406 1.389 . S
C1405 H1384 0.950 . S
C1405 C1404 1.373 . S
C1405 C1421 1.377 . S
C1406 C1404 1.389 . S
C1406 C1407 1.524 . S
C1406 C1420 1.377 . S
C1407 C1406 1.524 . S
C1407 C1408 1.397 . S
C1407 C1412 1.363 . S
C1408 H1385 0.950 . S
C1408 C1407 1.397 . S
C1408 C1409 1.334 . S
C1409 H1386 0.950 . S
C1409 C1408 1.334 . S
C1409 C1410 1.287 . S
C1410 C1409 1.287 . S
C1410 C1411 1.524 . S
C1410 H1429 0.913 . S
C1411 H1387 0.950 . S
C1411 C1410 1.524 . S
C1411 C1412 1.415 . S
C1412 H1388 0.950 . S
C1412 C1407 1.363 . S
C1412 C1411 1.415 . S
C1413 H1389 0.951 . S
C1413 C1414 1.366 . S
C1413 C1415 1.388 . S
C1414 C1413 1.366 . S
C1414 C1418 1.385 . S
C1415 H1390 0.951 . S
C1415 C1413 1.388 . S
C1415 C1416 1.366 . S
C1416 C1415 1.366 . S
C1416 C1417 1.414 . S
C1416 C1419 1.499 . S
C1417 H1391 0.950 . S
C1417 C1416 1.414 . S
C1417 C1418 1.374 . S
C1418 H1392 0.950 . S
C1418 C1414 1.385 . S
C1418 C1417 1.374 . S
C1419 C1416 1.499 . S
C1419 C1420 1.373 . S
C1419 C1421 1.389 . S
C1420 H1393 0.950 . S
C1420 C1406 1.377 . S
C1420 C1419 1.373 . S
C1421 C1405 1.377 . S
C1421 C1419 1.389 . S
C1421 C1422 1.524 . S
C1422 C1421 1.524 . S
C1422 C1423 1.397 . S
C1422 C1427 1.363 . S
C1423 H1394 0.950 . S
C1423 C1422 1.397 . S
C1423 C1424 1.334 . S
C1424 H1395 0.950 . S
C1424 C1423 1.334 . S
C1424 C1425 1.287 . S
C1425 C1424 1.287 . S
C1425 C1426 1.524 . S
C1425 H1428 0.999 . S
C1426 H1396 0.950 . S
C1426 C1425 1.524 . S
C1426 C1427 1.415 . S
C1427 H1397 0.950 . S
C1427 C1422 1.363 . S
C1427 C1426 1.415 . S
H1428 C1425 0.999 . S
H1429 C1410 0.913 . S
H1430 C1448 0.951 . S
H1431 C1450 0.951 . S
H1432 C1452 0.950 . S
H1433 C1453 0.950 . S
H1434 C1455 0.950 . S
H1435 C1458 0.950 . S
H1436 C1459 0.950 . S
H1437 C1461 0.950 . S
H1438 C1462 0.950 . S
H1439 C1463 0.951 . S
H1440 C1465 0.951 . S
H1441 C1467 0.950 . S
H1442 C1468 0.950 . S
H1443 C1470 0.950 . S
H1444 C1473 0.950 . S
H1445 C1474 0.950 . S
H1446 C1476 0.950 . S
H1447 C1477 0.950 . S
C1448 H1430 0.951 . S
C1448 C1449 1.366 . S
C1448 C1450 1.388 . S
C1449 C1448 1.366 . S
C1449 C1453 1.385 . S
C1450 H1431 0.951 . S
C1450 C1448 1.388 . S
C1450 C1451 1.366 . S
C1451 C1450 1.366 . S
C1451 C1452 1.414 . S
C1451 C1454 1.499 . S
C1452 H1432 0.950 . S
C1452 C1451 1.414 . S
C1452 C1453 1.374 . S
C1453 H1433 0.950 . S
C1453 C1449 1.385 . S
C1453 C1452 1.374 . S
C1454 C1451 1.499 . S
C1454 C1455 1.373 . S
C1454 C1456 1.389 . S
C1455 H1434 0.950 . S
C1455 C1454 1.373 . S
C1455 C1471 1.377 . S
C1456 C1454 1.389 . S
C1456 C1457 1.524 . S
C1456 C1470 1.377 . S
C1457 C1456 1.524 . S
C1457 C1458 1.397 . S
C1457 C1462 1.363 . S
C1458 H1435 0.950 . S
C1458 C1457 1.397 . S
C1458 C1459 1.334 . S
C1459 H1436 0.950 . S
C1459 C1458 1.334 . S
C1459 C1460 1.287 . S
C1460 C1459 1.287 . S
C1460 C1461 1.524 . S
C1460 H1479 0.913 . S
C1461 H1437 0.950 . S
C1461 C1460 1.524 . S
C1461 C1462 1.415 . S
C1462 H1438 0.950 . S
C1462 C1457 1.363 . S
C1462 C1461 1.415 . S
C1463 H1439 0.951 . S
C1463 C1464 1.366 . S
C1463 C1465 1.388 . S
C1464 C1463 1.366 . S
C1464 C1468 1.385 . S
C1465 H1440 0.951 . S
C1465 C1463 1.388 . S
C1465 C1466 1.366 . S
C1466 C1465 1.366 . S
C1466 C1467 1.414 . S
C1466 C1469 1.499 . S
C1467 H1441 0.950 . S
C1467 C1466 1.414 . S
C1467 C1468 1.374 . S
C1468 H1442 0.950 . S
C1468 C1464 1.385 . S
C1468 C1467 1.374 . S
C1469 C1466 1.499 . S
C1469 C1470 1.373 . S
C1469 C1471 1.389 . S
C1470 H1443 0.950 . S
C1470 C1456 1.377 . S
C1470 C1469 1.373 . S
C1471 C1455 1.377 . S
C1471 C1469 1.389 . S
C1471 C1472 1.524 . S
C1472 C1471 1.524 . S
C1472 C1473 1.397 . S
C1472 C1477 1.363 . S
C1473 H1444 0.950 . S
C1473 C1472 1.397 . S
C1473 C1474 1.334 . S
C1474 H1445 0.950 . S
C1474 C1473 1.334 . S
C1474 C1475 1.287 . S
C1475 C1474 1.287 . S
C1475 C1476 1.524 . S
C1475 H1478 0.999 . S
C1476 H1446 0.950 . S
C1476 C1475 1.524 . S
C1476 C1477 1.415 . S
C1477 H1447 0.950 . S
C1477 C1472 1.363 . S
C1477 C1476 1.415 . S
H1478 C1475 0.999 . S
H1479 C1460 0.913 . S
H1480 C1498 0.951 . S
H1481 C1500 0.951 . S
H1482 C1502 0.950 . S
H1483 C1503 0.950 . S
H1484 C1505 0.950 . S
H1485 C1508 0.950 . S
H1486 C1509 0.950 . S
H1487 C1511 0.950 . S
H1488 C1512 0.950 . S
H1489 C1513 0.951 . S
H1490 C1515 0.951 . S
H1491 C1517 0.950 . S
H1492 C1518 0.950 . S
H1493 C1520 0.950 . S
H1494 C1523 0.950 . S
H1495 C1524 0.950 . S
H1496 C1526 0.950 . S
H1497 C1527 0.950 . S
C1498 H1480 0.951 . S
C1498 C1499 1.366 . S
C1498 C1500 1.388 . S
C1499 C1498 1.366 . S
C1499 C1503 1.385 . S
C1500 H1481 0.951 . S
C1500 C1498 1.388 . S
C1500 C1501 1.366 . S
C1501 C1500 1.366 . S
C1501 C1502 1.414 . S
C1501 C1504 1.499 . S
C1502 H1482 0.950 . S
C1502 C1501 1.414 . S
C1502 C1503 1.374 . S
C1503 H1483 0.950 . S
C1503 C1499 1.385 . S
C1503 C1502 1.374 . S
C1504 C1501 1.499 . S
C1504 C1505 1.373 . S
C1504 C1506 1.389 . S
C1505 H1484 0.950 . S
C1505 C1504 1.373 . S
C1505 C1521 1.377 . S
C1506 C1504 1.389 . S
C1506 C1507 1.524 . S
C1506 C1520 1.377 . S
C1507 C1506 1.524 . S
C1507 C1508 1.397 . S
C1507 C1512 1.363 . S
C1508 H1485 0.950 . S
C1508 C1507 1.397 . S
C1508 C1509 1.334 . S
C1509 H1486 0.950 . S
C1509 C1508 1.334 . S
C1509 C1510 1.287 . S
C1510 C1509 1.287 . S
C1510 C1511 1.524 . S
C1510 H1529 0.913 . S
C1511 H1487 0.950 . S
C1511 C1510 1.524 . S
C1511 C1512 1.415 . S
C1512 H1488 0.950 . S
C1512 C1507 1.363 . S
C1512 C1511 1.415 . S
C1513 H1489 0.951 . S
C1513 C1514 1.366 . S
C1513 C1515 1.388 . S
C1514 C1513 1.366 . S
C1514 C1518 1.385 . S
C1515 H1490 0.951 . S
C1515 C1513 1.388 . S
C1515 C1516 1.366 . S
C1516 C1515 1.366 . S
C1516 C1517 1.414 . S
C1516 C1519 1.499 . S
C1517 H1491 0.950 . S
C1517 C1516 1.414 . S
C1517 C1518 1.374 . S
C1518 H1492 0.950 . S
C1518 C1514 1.385 . S
C1518 C1517 1.374 . S
C1519 C1516 1.499 . S
C1519 C1520 1.373 . S
C1519 C1521 1.389 . S
C1520 H1493 0.950 . S
C1520 C1506 1.377 . S
C1520 C1519 1.373 . S
C1521 C1505 1.377 . S
C1521 C1519 1.389 . S
C1521 C1522 1.524 . S
C1522 C1521 1.524 . S
C1522 C1523 1.397 . S
C1522 C1527 1.363 . S
C1523 H1494 0.950 . S
C1523 C1522 1.397 . S
C1523 C1524 1.334 . S
C1524 H1495 0.950 . S
C1524 C1523 1.334 . S
C1524 C1525 1.287 . S
C1525 C1524 1.287 . S
C1525 C1526 1.524 . S
C1525 H1528 0.999 . S
C1526 H1496 0.950 . S
C1526 C1525 1.524 . S
C1526 C1527 1.415 . S
C1527 H1497 0.950 . S
C1527 C1522 1.363 . S
C1527 C1526 1.415 . S
H1528 C1525 0.999 . S
H1529 C1510 0.913 . S
H1530 C1548 0.951 . S
H1531 C1550 0.951 . S
H1532 C1552 0.950 . S
H1533 C1553 0.950 . S
H1534 C1555 0.950 . S
H1535 C1558 0.950 . S
H1536 C1559 0.950 . S
H1537 C1561 0.950 . S
H1538 C1562 0.950 . S
H1539 C1563 0.951 . S
H1540 C1565 0.951 . S
H1541 C1567 0.950 . S
H1542 C1568 0.950 . S
H1543 C1570 0.950 . S
H1544 C1573 0.950 . S
H1545 C1574 0.950 . S
H1546 C1576 0.950 . S
H1547 C1577 0.950 . S
C1548 H1530 0.951 . S
C1548 C1549 1.366 . S
C1548 C1550 1.388 . S
C1549 C1548 1.366 . S
C1549 C1553 1.385 . S
C1550 H1531 0.951 . S
C1550 C1548 1.388 . S
C1550 C1551 1.366 . S
C1551 C1550 1.366 . S
C1551 C1552 1.414 . S
C1551 C1554 1.499 . S
C1552 H1532 0.950 . S
C1552 C1551 1.414 . S
C1552 C1553 1.374 . S
C1553 H1533 0.950 . S
C1553 C1549 1.385 . S
C1553 C1552 1.374 . S
C1554 C1551 1.499 . S
C1554 C1555 1.373 . S
C1554 C1556 1.389 . S
C1555 H1534 0.950 . S
C1555 C1554 1.373 . S
C1555 C1571 1.377 . S
C1556 C1554 1.389 . S
C1556 C1557 1.524 . S
C1556 C1570 1.377 . S
C1557 C1556 1.524 . S
C1557 C1558 1.397 . S
C1557 C1562 1.363 . S
C1558 H1535 0.950 . S
C1558 C1557 1.397 . S
C1558 C1559 1.334 . S
C1559 H1536 0.950 . S
C1559 C1558 1.334 . S
C1559 C1560 1.287 . S
C1560 C1559 1.287 . S
C1560 C1561 1.524 . S
C1560 H1579 0.913 . S
C1561 H1537 0.950 . S
C1561 C1560 1.524 . S
C1561 C1562 1.415 . S
C1562 H1538 0.950 . S
C1562 C1557 1.363 . S
C1562 C1561 1.415 . S
C1563 H1539 0.951 . S
C1563 C1564 1.366 . S
C1563 C1565 1.388 . S
C1564 C1563 1.366 . S
C1564 C1568 1.385 . S
C1565 H1540 0.951 . S
C1565 C1563 1.388 . S
C1565 C1566 1.366 . S
C1566 C1565 1.366 . S
C1566 C1567 1.414 . S
C1566 C1569 1.499 . S
C1567 H1541 0.950 . S
C1567 C1566 1.414 . S
C1567 C1568 1.374 . S
C1568 H1542 0.950 . S
C1568 C1564 1.385 . S
C1568 C1567 1.374 . S
C1569 C1566 1.499 . S
C1569 C1570 1.373 . S
C1569 C1571 1.389 . S
C1570 H1543 0.950 . S
C1570 C1556 1.377 . S
C1570 C1569 1.373 . S
C1571 C1555 1.377 . S
C1571 C1569 1.389 . S
C1571 C1572 1.524 . S
C1572 C1571 1.524 . S
C1572 C1573 1.397 . S
C1572 C1577 1.363 . S
C1573 H1544 0.950 . S
C1573 C1572 1.397 . S
C1573 C1574 1.334 . S
C1574 H1545 0.950 . S
C1574 C1573 1.334 . S
C1574 C1575 1.287 . S
C1575 C1574 1.287 . S
C1575 C1576 1.524 . S
C1575 H1578 0.999 . S
C1576 H1546 0.950 . S
C1576 C1575 1.524 . S
C1576 C1577 1.415 . S
C1577 H1547 0.950 . S
C1577 C1572 1.363 . S
C1577 C1576 1.415 . S
H1578 C1575 0.999 . S
H1579 C1560 0.913 . S
H1580 C1598 0.951 . S
H1581 C1600 0.951 . S
H1582 C1602 0.950 . S
H1583 C1603 0.950 . S
H1584 C1605 0.950 . S
H1585 C1608 0.950 . S
H1586 C1609 0.950 . S
H1587 C1611 0.950 . S
H1588 C1612 0.950 . S
H1589 C1613 0.951 . S
H1590 C1615 0.951 . S
H1591 C1617 0.950 . S
H1592 C1618 0.950 . S
H1593 C1620 0.950 . S
H1594 C1623 0.950 . S
H1595 C1624 0.950 . S
H1596 C1626 0.950 . S
H1597 C1627 0.950 . S
C1598 H1580 0.951 . S
C1598 C1599 1.366 . S
C1598 C1600 1.388 . S
C1599 C1598 1.366 . S
C1599 C1603 1.385 . S
C1600 H1581 0.951 . S
C1600 C1598 1.388 . S
C1600 C1601 1.366 . S
C1601 C1600 1.366 . S
C1601 C1602 1.414 . S
C1601 C1604 1.499 . S
C1602 H1582 0.950 . S
C1602 C1601 1.414 . S
C1602 C1603 1.374 . S
C1603 H1583 0.950 . S
C1603 C1599 1.385 . S
C1603 C1602 1.374 . S
C1604 C1601 1.499 . S
C1604 C1605 1.373 . S
C1604 C1606 1.389 . S
C1605 H1584 0.950 . S
C1605 C1604 1.373 . S
C1605 C1621 1.377 . S
C1606 C1604 1.389 . S
C1606 C1607 1.524 . S
C1606 C1620 1.377 . S
C1607 C1606 1.524 . S
C1607 C1608 1.397 . S
C1607 C1612 1.363 . S
C1608 H1585 0.950 . S
C1608 C1607 1.397 . S
C1608 C1609 1.334 . S
C1609 H1586 0.950 . S
C1609 C1608 1.334 . S
C1609 C1610 1.287 . S
C1610 C1609 1.287 . S
C1610 C1611 1.524 . S
C1610 H1629 0.913 . S
C1611 H1587 0.950 . S
C1611 C1610 1.524 . S
C1611 C1612 1.415 . S
C1612 H1588 0.950 . S
C1612 C1607 1.363 . S
C1612 C1611 1.415 . S
C1613 H1589 0.951 . S
C1613 C1614 1.366 . S
C1613 C1615 1.388 . S
C1614 C1613 1.366 . S
C1614 C1618 1.385 . S
C1615 H1590 0.951 . S
C1615 C1613 1.388 . S
C1615 C1616 1.366 . S
C1616 C1615 1.366 . S
C1616 C1617 1.414 . S
C1616 C1619 1.499 . S
C1617 H1591 0.950 . S
C1617 C1616 1.414 . S
C1617 C1618 1.374 . S
C1618 H1592 0.950 . S
C1618 C1614 1.385 . S
C1618 C1617 1.374 . S
C1619 C1616 1.499 . S
C1619 C1620 1.373 . S
C1619 C1621 1.389 . S
C1620 H1593 0.950 . S
C1620 C1606 1.377 . S
C1620 C1619 1.373 . S
C1621 C1605 1.377 . S
C1621 C1619 1.389 . S
C1621 C1622 1.524 . S
C1622 C1621 1.524 . S
C1622 C1623 1.397 . S
C1622 C1627 1.363 . S
C1623 H1594 0.950 . S
C1623 C1622 1.397 . S
C1623 C1624 1.334 . S
C1624 H1595 0.950 . S
C1624 C1623 1.334 . S
C1624 C1625 1.287 . S
C1625 C1624 1.287 . S
C1625 C1626 1.524 . S
C1625 H1628 0.999 . S
C1626 H1596 0.950 . S
C1626 C1625 1.524 . S
C1626 C1627 1.415 . S
C1627 H1597 0.950 . S
C1627 C1622 1.363 . S
C1627 C1626 1.415 . S
H1628 C1625 0.999 . S
H1629 C1610 0.913 . S
H1630 C1648 0.951 . S
H1631 C1650 0.951 . S
H1632 C1652 0.950 . S
H1633 C1653 0.950 . S
H1634 C1655 0.950 . S
H1635 C1658 0.950 . S
H1636 C1659 0.950 . S
H1637 C1661 0.950 . S
H1638 C1662 0.950 . S
H1639 C1663 0.951 . S
H1640 C1665 0.951 . S
H1641 C1667 0.950 . S
H1642 C1668 0.950 . S
H1643 C1670 0.950 . S
H1644 C1673 0.950 . S
H1645 C1674 0.950 . S
H1646 C1676 0.950 . S
H1647 C1677 0.950 . S
C1648 H1630 0.951 . S
C1648 C1649 1.366 . S
C1648 C1650 1.388 . S
C1649 C1648 1.366 . S
C1649 C1653 1.385 . S
C1650 H1631 0.951 . S
C1650 C1648 1.388 . S
C1650 C1651 1.366 . S
C1651 C1650 1.366 . S
C1651 C1652 1.414 . S
C1651 C1654 1.499 . S
C1652 H1632 0.950 . S
C1652 C1651 1.414 . S
C1652 C1653 1.374 . S
C1653 H1633 0.950 . S
C1653 C1649 1.385 . S
C1653 C1652 1.374 . S
C1654 C1651 1.499 . S
C1654 C1655 1.373 . S
C1654 C1656 1.389 . S
C1655 H1634 0.950 . S
C1655 C1654 1.373 . S
C1655 C1671 1.377 . S
C1656 C1654 1.389 . S
C1656 C1657 1.524 . S
C1656 C1670 1.377 . S
C1657 C1656 1.524 . S
C1657 C1658 1.397 . S
C1657 C1662 1.363 . S
C1658 H1635 0.950 . S
C1658 C1657 1.397 . S
C1658 C1659 1.334 . S
C1659 H1636 0.950 . S
C1659 C1658 1.334 . S
C1659 C1660 1.287 . S
C1660 C1659 1.287 . S
C1660 C1661 1.524 . S
C1660 H1679 0.913 . S
C1661 H1637 0.950 . S
C1661 C1660 1.524 . S
C1661 C1662 1.415 . S
C1662 H1638 0.950 . S
C1662 C1657 1.363 . S
C1662 C1661 1.415 . S
C1663 H1639 0.951 . S
C1663 C1664 1.366 . S
C1663 C1665 1.388 . S
C1664 C1663 1.366 . S
C1664 C1668 1.385 . S
C1665 H1640 0.951 . S
C1665 C1663 1.388 . S
C1665 C1666 1.366 . S
C1666 C1665 1.366 . S
C1666 C1667 1.414 . S
C1666 C1669 1.499 . S
C1667 H1641 0.950 . S
C1667 C1666 1.414 . S
C1667 C1668 1.374 . S
C1668 H1642 0.950 . S
C1668 C1664 1.385 . S
C1668 C1667 1.374 . S
C1669 C1666 1.499 . S
C1669 C1670 1.373 . S
C1669 C1671 1.389 . S
C1670 H1643 0.950 . S
C1670 C1656 1.377 . S
C1670 C1669 1.373 . S
C1671 C1655 1.377 . S
C1671 C1669 1.389 . S
C1671 C1672 1.524 . S
C1672 C1671 1.524 . S
C1672 C1673 1.397 . S
C1672 C1677 1.363 . S
C1673 H1644 0.950 . S
C1673 C1672 1.397 . S
C1673 C1674 1.334 . S
C1674 H1645 0.950 . S
C1674 C1673 1.334 . S
C1674 C1675 1.287 . S
C1675 C1674 1.287 . S
C1675 C1676 1.524 . S
C1675 H1678 0.999 . S
C1676 H1646 0.950 . S
C1676 C1675 1.524 . S
C1676 C1677 1.415 . S
C1677 H1647 0.950 . S
C1677 C1672 1.363 . S
C1677 C1676 1.415 . S
H1678 C1675 0.999 . S
H1679 C1660 0.913 . S
H1680 C1698 0.951 . S
H1681 C1700 0.951 . S
H1682 C1702 0.950 . S
H1683 C1703 0.950 . S
H1684 C1705 0.950 . S
H1685 C1708 0.950 . S
H1686 C1709 0.950 . S
H1687 C1711 0.950 . S
H1688 C1712 0.950 . S
H1689 C1713 0.951 . S
H1690 C1715 0.951 . S
H1691 C1717 0.950 . S
H1692 C1718 0.950 . S
H1693 C1720 0.950 . S
H1694 C1723 0.950 . S
H1695 C1724 0.950 . S
H1696 C1726 0.950 . S
H1697 C1727 0.950 . S
C1698 H1680 0.951 . S
C1698 C1699 1.366 . S
C1698 C1700 1.388 . S
C1699 C1698 1.366 . S
C1699 C1703 1.385 . S
C1700 H1681 0.951 . S
C1700 C1698 1.388 . S
C1700 C1701 1.366 . S
C1701 C1700 1.366 . S
C1701 C1702 1.414 . S
C1701 C1704 1.499 . S
C1702 H1682 0.950 . S
C1702 C1701 1.414 . S
C1702 C1703 1.374 . S
C1703 H1683 0.950 . S
C1703 C1699 1.385 . S
C1703 C1702 1.374 . S
C1704 C1701 1.499 . S
C1704 C1705 1.373 . S
C1704 C1706 1.389 . S
C1705 H1684 0.950 . S
C1705 C1704 1.373 . S
C1705 C1721 1.377 . S
C1706 C1704 1.389 . S
C1706 C1707 1.524 . S
C1706 C1720 1.377 . S
C1707 C1706 1.524 . S
C1707 C1708 1.397 . S
C1707 C1712 1.363 . S
C1708 H1685 0.950 . S
C1708 C1707 1.397 . S
C1708 C1709 1.334 . S
C1709 H1686 0.950 . S
C1709 C1708 1.334 . S
C1709 C1710 1.287 . S
C1710 C1709 1.287 . S
C1710 C1711 1.524 . S
C1710 H1729 0.913 . S
C1711 H1687 0.950 . S
C1711 C1710 1.524 . S
C1711 C1712 1.415 . S
C1712 H1688 0.950 . S
C1712 C1707 1.363 . S
C1712 C1711 1.415 . S
C1713 H1689 0.951 . S
C1713 C1714 1.366 . S
C1713 C1715 1.388 . S
C1714 C1713 1.366 . S
C1714 C1718 1.385 . S
C1715 H1690 0.951 . S
C1715 C1713 1.388 . S
C1715 C1716 1.366 . S
C1716 C1715 1.366 . S
C1716 C1717 1.414 . S
C1716 C1719 1.499 . S
C1717 H1691 0.950 . S
C1717 C1716 1.414 . S
C1717 C1718 1.374 . S
C1718 H1692 0.950 . S
C1718 C1714 1.385 . S
C1718 C1717 1.374 . S
C1719 C1716 1.499 . S
C1719 C1720 1.373 . S
C1719 C1721 1.389 . S
C1720 H1693 0.950 . S
C1720 C1706 1.377 . S
C1720 C1719 1.373 . S
C1721 C1705 1.377 . S
C1721 C1719 1.389 . S
C1721 C1722 1.524 . S
C1722 C1721 1.524 . S
C1722 C1723 1.397 . S
C1722 C1727 1.363 . S
C1723 H1694 0.950 . S
C1723 C1722 1.397 . S
C1723 C1724 1.334 . S
C1724 H1695 0.950 . S
C1724 C1723 1.334 . S
C1724 C1725 1.287 . S
C1725 C1724 1.287 . S
C1725 C1726 1.524 . S
C1725 H1728 0.999 . S
C1726 H1696 0.950 . S
C1726 C1725 1.524 . S
C1726 C1727 1.415 . S
C1727 H1697 0.950 . S
C1727 C1722 1.363 . S
C1727 C1726 1.415 . S
H1728 C1725 0.999 . S
H1729 C1710 0.913 . S
H1730 C1748 0.951 . S
H1731 C1750 0.951 . S
H1732 C1752 0.950 . S
H1733 C1753 0.950 . S
H1734 C1755 0.950 . S
H1735 C1758 0.950 . S
H1736 C1759 0.950 . S
H1737 C1761 0.950 . S
H1738 C1762 0.950 . S
H1739 C1763 0.951 . S
H1740 C1765 0.951 . S
H1741 C1767 0.950 . S
H1742 C1768 0.950 . S
H1743 C1770 0.950 . S
H1744 C1773 0.950 . S
H1745 C1774 0.950 . S
H1746 C1776 0.950 . S
H1747 C1777 0.950 . S
C1748 H1730 0.951 . S
C1748 C1749 1.366 . S
C1748 C1750 1.388 . S
C1749 C1748 1.366 . S
C1749 C1753 1.385 . S
C1750 H1731 0.951 . S
C1750 C1748 1.388 . S
C1750 C1751 1.366 . S
C1751 C1750 1.366 . S
C1751 C1752 1.414 . S
C1751 C1754 1.499 . S
C1752 H1732 0.950 . S
C1752 C1751 1.414 . S
C1752 C1753 1.374 . S
C1753 H1733 0.950 . S
C1753 C1749 1.385 . S
C1753 C1752 1.374 . S
C1754 C1751 1.499 . S
C1754 C1755 1.373 . S
C1754 C1756 1.389 . S
C1755 H1734 0.950 . S
C1755 C1754 1.373 . S
C1755 C1771 1.377 . S
C1756 C1754 1.389 . S
C1756 C1757 1.524 . S
C1756 C1770 1.377 . S
C1757 C1756 1.524 . S
C1757 C1758 1.397 . S
C1757 C1762 1.363 . S
C1758 H1735 0.950 . S
C1758 C1757 1.397 . S
C1758 C1759 1.334 . S
C1759 H1736 0.950 . S
C1759 C1758 1.334 . S
C1759 C1760 1.287 . S
C1760 C1759 1.287 . S
C1760 C1761 1.524 . S
C1760 H1779 0.913 . S
C1761 H1737 0.950 . S
C1761 C1760 1.524 . S
C1761 C1762 1.415 . S
C1762 H1738 0.950 . S
C1762 C1757 1.363 . S
C1762 C1761 1.415 . S
C1763 H1739 0.951 . S
C1763 C1764 1.366 . S
C1763 C1765 1.388 . S
C1764 C1763 1.366 . S
C1764 C1768 1.385 . S
C1765 H1740 0.951 . S
C1765 C1763 1.388 . S
C1765 C1766 1.366 . S
C1766 C1765 1.366 . S
C1766 C1767 1.414 . S
C1766 C1769 1.499 . S
C1767 H1741 0.950 . S
C1767 C1766 1.414 . S
C1767 C1768 1.374 . S
C1768 H1742 0.950 . S
C1768 C1764 1.385 . S
C1768 C1767 1.374 . S
C1769 C1766 1.499 . S
C1769 C1770 1.373 . S
C1769 C1771 1.389 . S
C1770 H1743 0.950 . S
C1770 C1756 1.377 . S
C1770 C1769 1.373 . S
C1771 C1755 1.377 . S
C1771 C1769 1.389 . S
C1771 C1772 1.524 . S
C1772 C1771 1.524 . S
C1772 C1773 1.397 . S
C1772 C1777 1.363 . S
C1773 H1744 0.950 . S
C1773 C1772 1.397 . S
C1773 C1774 1.334 . S
C1774 H1745 0.950 . S
C1774 C1773 1.334 . S
C1774 C1775 1.287 . S
C1775 C1774 1.287 . S
C1775 C1776 1.524 . S
C1775 H1778 0.999 . S
C1776 H1746 0.950 . S
C1776 C1775 1.524 . S
C1776 C1777 1.415 . S
C1777 H1747 0.950 . S
C1777 C1772 1.363 . S
C1777 C1776 1.415 . S
H1778 C1775 0.999 . S
H1779 C1760 0.913 . S
H1780 C1798 0.951 . S
H1781 C1800 0.951 . S
H1782 C1802 0.950 . S
H1783 C1803 0.950 . S
H1784 C1805 0.950 . S
H1785 C1808 0.950 . S
H1786 C1809 0.950 . S
H1787 C1811 0.950 . S
H1788 C1812 0.950 . S
H1789 C1813 0.951 . S
H1790 C1815 0.951 . S
H1791 C1817 0.950 . S
H1792 C1818 0.950 . S
H1793 C1820 0.950 . S
H1794 C1823 0.950 . S
H1795 C1824 0.950 . S
H1796 C1826 0.950 . S
H1797 C1827 0.950 . S
C1798 H1780 0.951 . S
C1798 C1799 1.366 . S
C1798 C1800 1.388 . S
C1799 C1798 1.366 . S
C1799 C1803 1.385 . S
C1800 H1781 0.951 . S
C1800 C1798 1.388 . S
C1800 C1801 1.366 . S
C1801 C1800 1.366 . S
C1801 C1802 1.414 . S
C1801 C1804 1.499 . S
C1802 H1782 0.950 . S
C1802 C1801 1.414 . S
C1802 C1803 1.374 . S
C1803 H1783 0.950 . S
C1803 C1799 1.385 . S
C1803 C1802 1.374 . S
C1804 C1801 1.499 . S
C1804 C1805 1.373 . S
C1804 C1806 1.389 . S
C1805 H1784 0.950 . S
C1805 C1804 1.373 . S
C1805 C1821 1.377 . S
C1806 C1804 1.389 . S
C1806 C1807 1.524 . S
C1806 C1820 1.377 . S
C1807 C1806 1.524 . S
C1807 C1808 1.397 . S
C1807 C1812 1.363 . S
C1808 H1785 0.950 . S
C1808 C1807 1.397 . S
C1808 C1809 1.334 . S
C1809 H1786 0.950 . S
C1809 C1808 1.334 . S
C1809 C1810 1.287 . S
C1810 C1809 1.287 . S
C1810 C1811 1.524 . S
C1810 H1829 0.913 . S
C1811 H1787 0.950 . S
C1811 C1810 1.524 . S
C1811 C1812 1.415 . S
C1812 H1788 0.950 . S
C1812 C1807 1.363 . S
C1812 C1811 1.415 . S
C1813 H1789 0.951 . S
C1813 C1814 1.366 . S
C1813 C1815 1.388 . S
C1814 C1813 1.366 . S
C1814 C1818 1.385 . S
C1815 H1790 0.951 . S
C1815 C1813 1.388 . S
C1815 C1816 1.366 . S
C1816 C1815 1.366 . S
C1816 C1817 1.414 . S
C1816 C1819 1.499 . S
C1817 H1791 0.950 . S
C1817 C1816 1.414 . S
C1817 C1818 1.374 . S
C1818 H1792 0.950 . S
C1818 C1814 1.385 . S
C1818 C1817 1.374 . S
C1819 C1816 1.499 . S
C1819 C1820 1.373 . S
C1819 C1821 1.389 . S
C1820 H1793 0.950 . S
C1820 C1806 1.377 . S
C1820 C1819 1.373 . S
C1821 C1805 1.377 . S
C1821 C1819 1.389 . S
C1821 C1822 1.524 . S
C1822 C1821 1.524 . S
C1822 C1823 1.397 . S
C1822 C1827 1.363 . S
C1823 H1794 0.950 . S
C1823 C1822 1.397 . S
C1823 C1824 1.334 . S
C1824 H1795 0.950 . S
C1824 C1823 1.334 . S
C1824 C1825 1.287 . S
C1825 C1824 1.287 . S
C1825 C1826 1.524 . S
C1825 H1828 0.999 . S
C1826 H1796 0.950 . S
C1826 C1825 1.524 . S
C1826 C1827 1.415 . S
C1827 H1797 0.950 . S
C1827 C1822 1.363 . S
C1827 C1826 1.415 . S
H1828 C1825 0.999 . S
H1829 C1810 0.913 . S
H1830 C1848 0.951 . S
H1831 C1850 0.951 . S
H1832 C1852 0.950 . S
H1833 C1853 0.950 . S
H1834 C1855 0.950 . S
H1835 C1858 0.950 . S
H1836 C1859 0.950 . S
H1837 C1861 0.950 . S
H1838 C1862 0.950 . S
H1839 C1863 0.951 . S
H1840 C1865 0.951 . S
H1841 C1867 0.950 . S
H1842 C1868 0.950 . S
H1843 C1870 0.950 . S
H1844 C1873 0.950 . S
H1845 C1874 0.950 . S
H1846 C1876 0.950 . S
H1847 C1877 0.950 . S
C1848 H1830 0.951 . S
C1848 C1849 1.366 . S
C1848 C1850 1.388 . S
C1849 C1848 1.366 . S
C1849 C1853 1.385 . S
C1850 H1831 0.951 . S
C1850 C1848 1.388 . S
C1850 C1851 1.366 . S
C1851 C1850 1.366 . S
C1851 C1852 1.414 . S
C1851 C1854 1.499 . S
C1852 H1832 0.950 . S
C1852 C1851 1.414 . S
C1852 C1853 1.374 . S
C1853 H1833 0.950 . S
C1853 C1849 1.385 . S
C1853 C1852 1.374 . S
C1854 C1851 1.499 . S
C1854 C1855 1.373 . S
C1854 C1856 1.389 . S
C1855 H1834 0.950 . S
C1855 C1854 1.373 . S
C1855 C1871 1.377 . S
C1856 C1854 1.389 . S
C1856 C1857 1.524 . S
C1856 C1870 1.377 . S
C1857 C1856 1.524 . S
C1857 C1858 1.397 . S
C1857 C1862 1.363 . S
C1858 H1835 0.950 . S
C1858 C1857 1.397 . S
C1858 C1859 1.334 . S
C1859 H1836 0.950 . S
C1859 C1858 1.334 . S
C1859 C1860 1.287 . S
C1860 C1859 1.287 . S
C1860 C1861 1.524 . S
C1860 H1879 0.913 . S
C1861 H1837 0.950 . S
C1861 C1860 1.524 . S
C1861 C1862 1.415 . S
C1862 H1838 0.950 . S
C1862 C1857 1.363 . S
C1862 C1861 1.415 . S
C1863 H1839 0.951 . S
C1863 C1864 1.366 . S
C1863 C1865 1.388 . S
C1864 C1863 1.366 . S
C1864 C1868 1.385 . S
C1865 H1840 0.951 . S
C1865 C1863 1.388 . S
C1865 C1866 1.366 . S
C1866 C1865 1.366 . S
C1866 C1867 1.414 . S
C1866 C1869 1.499 . S
C1867 H1841 0.950 . S
C1867 C1866 1.414 . S
C1867 C1868 1.374 . S
C1868 H1842 0.950 . S
C1868 C1864 1.385 . S
C1868 C1867 1.374 . S
C1869 C1866 1.499 . S
C1869 C1870 1.373 . S
C1869 C1871 1.389 . S
C1870 H1843 0.950 . S
C1870 C1856 1.377 . S
C1870 C1869 1.373 . S
C1871 C1855 1.377 . S
C1871 C1869 1.389 . S
C1871 C1872 1.524 . S
C1872 C1871 1.524 . S
C1872 C1873 1.397 . S
C1872 C1877 1.363 . S
C1873 H1844 0.950 . S
C1873 C1872 1.397 . S
C1873 C1874 1.334 . S
C1874 H1845 0.950 . S
C1874 C1873 1.334 . S
C1874 C1875 1.287 . S
C1875 C1874 1.287 . S
C1875 C1876 1.524 . S
C1875 H1878 0.999 . S
C1876 H1846 0.950 . S
C1876 C1875 1.524 . S
C1876 C1877 1.415 . S
C1877 H1847 0.950 . S
C1877 C1872 1.363 . S
C1877 C1876 1.415 . S
H1878 C1875 0.999 . S
H1879 C1860 0.913 . S
H1880 C1898 0.951 . S
H1881 C1900 0.951 . S
H1882 C1902 0.950 . S
H1883 C1903 0.950 . S
H1884 C1905 0.950 . S
H1885 C1908 0.950 . S
H1886 C1909 0.950 . S
H1887 C1911 0.950 . S
H1888 C1912 0.950 . S
H1889 C1913 0.951 . S
H1890 C1915 0.951 . S
H1891 C1917 0.950 . S
H1892 C1918 0.950 . S
H1893 C1920 0.950 . S
H1894 C1923 0.950 . S
H1895 C1924 0.950 . S
H1896 C1926 0.950 . S
H1897 C1927 0.950 . S
C1898 H1880 0.951 . S
C1898 C1899 1.366 . S
C1898 C1900 1.388 . S
C1899 C1898 1.366 . S
C1899 C1903 1.385 . S
C1900 H1881 0.951 . S
C1900 C1898 1.388 . S
C1900 C1901 1.366 . S
C1901 C1900 1.366 . S
C1901 C1902 1.414 . S
C1901 C1904 1.499 . S
C1902 H1882 0.950 . S
C1902 C1901 1.414 . S
C1902 C1903 1.374 . S
C1903 H1883 0.950 . S
C1903 C1899 1.385 . S
C1903 C1902 1.374 . S
C1904 C1901 1.499 . S
C1904 C1905 1.373 . S
C1904 C1906 1.389 . S
C1905 H1884 0.950 . S
C1905 C1904 1.373 . S
C1905 C1921 1.377 . S
C1906 C1904 1.389 . S
C1906 C1907 1.524 . S
C1906 C1920 1.377 . S
C1907 C1906 1.524 . S
C1907 C1908 1.397 . S
C1907 C1912 1.363 . S
C1908 H1885 0.950 . S
C1908 C1907 1.397 . S
C1908 C1909 1.334 . S
C1909 H1886 0.950 . S
C1909 C1908 1.334 . S
C1909 C1910 1.287 . S
C1910 C1909 1.287 . S
C1910 C1911 1.524 . S
C1910 H1929 0.913 . S
C1911 H1887 0.950 . S
C1911 C1910 1.524 . S
C1911 C1912 1.415 . S
C1912 H1888 0.950 . S
C1912 C1907 1.363 . S
C1912 C1911 1.415 . S
C1913 H1889 0.951 . S
C1913 C1914 1.366 . S
C1913 C1915 1.388 . S
C1914 C1913 1.366 . S
C1914 C1918 1.385 . S
C1915 H1890 0.951 . S
C1915 C1913 1.388 . S
C1915 C1916 1.366 . S
C1916 C1915 1.366 . S
C1916 C1917 1.414 . S
C1916 C1919 1.499 . S
C1917 H1891 0.950 . S
C1917 C1916 1.414 . S
C1917 C1918 1.374 . S
C1918 H1892 0.950 . S
C1918 C1914 1.385 . S
C1918 C1917 1.374 . S
C1919 C1916 1.499 . S
C1919 C1920 1.373 . S
C1919 C1921 1.389 . S
C1920 H1893 0.950 . S
C1920 C1906 1.377 . S
C1920 C1919 1.373 . S
C1921 C1905 1.377 . S
C1921 C1919 1.389 . S
C1921 C1922 1.524 . S
C1922 C1921 1.524 . S
C1922 C1923 1.397 . S
C1922 C1927 1.363 . S
C1923 H1894 0.950 . S
C1923 C1922 1.397 . S
C1923 C1924 1.334 . S
C1924 H1895 0.950 . S
C1924 C1923 1.334 . S
C1924 C1925 1.287 . S
C1925 C1924 1.287 . S
C1925 C1926 1.524 . S
C1925 H1928 0.999 . S
C1926 H1896 0.950 . S
C1926 C1925 1.524 . S
C1926 C1927 1.415 . S
C1927 H1897 0.950 . S
C1927 C1922 1.363 . S
C1927 C1926 1.415 . S
H1928 C1925 0.999 . S
H1929 C1910 0.913 . S
H1930 C1948 0.951 . S
H1931 C1950 0.951 . S
H1932 C1952 0.950 . S
H1933 C1953 0.950 . S
H1934 C1955 0.950 . S
H1935 C1958 0.950 . S
H1936 C1959 0.950 . S
H1937 C1961 0.950 . S
H1938 C1962 0.950 . S
H1939 C1963 0.951 . S
H1940 C1965 0.951 . S
H1941 C1967 0.950 . S
H1942 C1968 0.950 . S
H1943 C1970 0.950 . S
H1944 C1973 0.950 . S
H1945 C1974 0.950 . S
H1946 C1976 0.950 . S
H1947 C1977 0.950 . S
C1948 H1930 0.951 . S
C1948 C1949 1.366 . S
C1948 C1950 1.388 . S
C1949 C1948 1.366 . S
C1949 C1953 1.385 . S
C1950 H1931 0.951 . S
C1950 C1948 1.388 . S
C1950 C1951 1.366 . S
C1951 C1950 1.366 . S
C1951 C1952 1.414 . S
C1951 C1954 1.499 . S
C1952 H1932 0.950 . S
C1952 C1951 1.414 . S
C1952 C1953 1.374 . S
C1953 H1933 0.950 . S
C1953 C1949 1.385 . S
C1953 C1952 1.374 . S
C1954 C1951 1.499 . S
C1954 C1955 1.373 . S
C1954 C1956 1.389 . S
C1955 H1934 0.950 . S
C1955 C1954 1.373 . S
C1955 C1971 1.377 . S
C1956 C1954 1.389 . S
C1956 C1957 1.524 . S
C1956 C1970 1.377 . S
C1957 C1956 1.524 . S
C1957 C1958 1.397 . S
C1957 C1962 1.363 . S
C1958 H1935 0.950 . S
C1958 C1957 1.397 . S
C1958 C1959 1.334 . S
C1959 H1936 0.950 . S
C1959 C1958 1.334 . S
C1959 C1960 1.287 . S
C1960 C1959 1.287 . S
C1960 C1961 1.524 . S
C1960 H1979 0.913 . S
C1961 H1937 0.950 . S
C1961 C1960 1.524 . S
C1961 C1962 1.415 . S
C1962 H1938 0.950 . S
C1962 C1957 1.363 . S
C1962 C1961 1.415 . S
C1963 H1939 0.951 . S
C1963 C1964 1.366 . S
C1963 C1965 1.388 . S
C1964 C1963 1.366 . S
C1964 C1968 1.385 . S
C1965 H1940 0.951 . S
C1965 C1963 1.388 . S
C1965 C1966 1.366 . S
C1966 C1965 1.366 . S
C1966 C1967 1.414 . S
C1966 C1969 1.499 . S
C1967 H1941 0.950 . S
C1967 C1966 1.414 . S
C1967 C1968 1.374 . S
C1968 H1942 0.950 . S
C1968 C1964 1.385 . S
C1968 C1967 1.374 . S
C1969 C1966 1.499 . S
C1969 C1970 1.373 . S
C1969 C1971 1.389 . S
C1970 H1943 0.950 . S
C1970 C1956 1.377 . S
C1970 C1969 1.373 . S
C1971 C1955 1.377 . S
C1971 C1969 1.389 . S
C1971 C1972 1.524 . S
C1972 C1971 1.524 . S
C1972 C1973 1.397 . S
C1972 C1977 1.363 . S
C1973 H1944 0.950 . S
C1973 C1972 1.397 . S
C1973 C1974 1.334 . S
C1974 H1945 0.950 . S
C1974 C1973 1.334 . S
C1974 C1975 1.287 . S
C1975 C1974 1.287 . S
C1975 C1976 1.524 . S
C1975 H1978 0.999 . S
C1976 H1946 0.950 . S
C1976 C1975 1.524 . S
C1976 C1977 1.415 . S
C1977 H1947 0.950 . S
C1977 C1972 1.363 . S
C1977 C1976 1.415 . S
H1978 C1975 0.999 . S
H1979 C1960 0.913 . S
H1980 C1998 0.951 . S
H1981 C2000 0.951 . S
H1982 C2002 0.950 . S
H1983 C2003 0.950 . S
H1984 C2005 0.950 . S
H1985 C2008 0.950 . S
H1986 C2009 0.950 . S
H1987 C2011 0.950 . S
H1988 C2012 0.950 . S
H1989 C2013 0.951 . S
H1990 C2015 0.951 . S
H1991 C2017 0.950 . S
H1992 C2018 0.950 . S
H1993 C2020 0.950 . S
H1994 C2023 0.950 . S
H1995 C2024 0.950 . S
H1996 C2026 0.950 . S
H1997 C2027 0.950 . S
C1998 H1980 0.951 . S
C1998 C1999 1.366 . S
C1998 C2000 1.388 . S
C1999 C1998 1.366 . S
C1999 C2003 1.385 . S
C2000 H1981 0.951 . S
C2000 C1998 1.388 . S
C2000 C2001 1.366 . S
C2001 C2000 1.366 . S
C2001 C2002 1.414 . S
C2001 C2004 1.499 . S
C2002 H1982 0.950 . S
C2002 C2001 1.414 . S
C2002 C2003 1.374 . S
C2003 H1983 0.950 . S
C2003 C1999 1.385 . S
C2003 C2002 1.374 . S
C2004 C2001 1.499 . S
C2004 C2005 1.373 . S
C2004 C2006 1.389 . S
C2005 H1984 0.950 . S
C2005 C2004 1.373 . S
C2005 C2021 1.377 . S
C2006 C2004 1.389 . S
C2006 C2007 1.524 . S
C2006 C2020 1.377 . S
C2007 C2006 1.524 . S
C2007 C2008 1.397 . S
C2007 C2012 1.363 . S
C2008 H1985 0.950 . S
C2008 C2007 1.397 . S
C2008 C2009 1.334 . S
C2009 H1986 0.950 . S
C2009 C2008 1.334 . S
C2009 C2010 1.287 . S
C2010 C2009 1.287 . S
C2010 C2011 1.524 . S
C2010 H2029 0.913 . S
C2011 H1987 0.950 . S
C2011 C2010 1.524 . S
C2011 C2012 1.415 . S
C2012 H1988 0.950 . S
C2012 C2007 1.363 . S
C2012 C2011 1.415 . S
C2013 H1989 0.951 . S
C2013 C2014 1.366 . S
C2013 C2015 1.388 . S
C2014 C2013 1.366 . S
C2014 C2018 1.385 . S
C2015 H1990 0.951 . S
C2015 C2013 1.388 . S
C2015 C2016 1.366 . S
C2016 C2015 1.366 . S
C2016 C2017 1.414 . S
C2016 C2019 1.499 . S
C2017 H1991 0.950 . S
C2017 C2016 1.414 . S
C2017 C2018 1.374 . S
C2018 H1992 0.950 . S
C2018 C2014 1.385 . S
C2018 C2017 1.374 . S
C2019 C2016 1.499 . S
C2019 C2020 1.373 . S
C2019 C2021 1.389 . S
C2020 H1993 0.950 . S
C2020 C2006 1.377 . S
C2020 C2019 1.373 . S
C2021 C2005 1.377 . S
C2021 C2019 1.389 . S
C2021 C2022 1.524 . S
C2022 C2021 1.524 . S
C2022 C2023 1.397 . S
C2022 C2027 1.363 . S
C2023 H1994 0.950 . S
C2023 C2022 1.397 . S
C2023 C2024 1.334 . S
C2024 H1995 0.950 . S
C2024 C2023 1.334 . S
C2024 C2025 1.287 . S
C2025 C2024 1.287 . S
C2025 C2026 1.524 . S
C2025 H2028 0.999 . S
C2026 H1996 0.950 . S
C2026 C2025 1.524 . S
C2026 C2027 1.415 . S
C2027 H1997 0.950 . S
C2027 C2022 1.363 . S
C2027 C2026 1.415 . S
H2028 C2025 0.999 . S
H2029 C2010 0.913 . S
H2030 C2048 0.951 . S
H2031 C2050 0.951 . S
H2032 C2052 0.950 . S
H2033 C2053 0.950 . S
H2034 C2055 0.950 . S
H2035 C2058 0.950 . S
H2036 C2059 0.950 . S
H2037 C2061 0.950 . S
H2038 C2062 0.950 . S
H2039 C2063 0.951 . S
H2040 C2065 0.951 . S
H2041 C2067 0.950 . S
H2042 C2068 0.950 . S
H2043 C2070 0.950 . S
H2044 C2073 0.950 . S
H2045 C2074 0.950 . S
H2046 C2076 0.950 . S
H2047 C2077 0.950 . S
C2048 H2030 0.951 . S
C2048 C2049 1.366 . S
C2048 C2050 1.388 . S
C2049 C2048 1.366 . S
C2049 C2053 1.385 . S
C2050 H2031 0.951 . S
C2050 C2048 1.388 . S
C2050 C2051 1.366 . S
C2051 C2050 1.366 . S
C2051 C2052 1.414 . S
C2051 C2054 1.499 . S
C2052 H2032 0.950 . S
C2052 C2051 1.414 . S
C2052 C2053 1.374 . S
C2053 H2033 0.950 . S
C2053 C2049 1.385 . S
C2053 C2052 1.374 . S
C2054 C2051 1.499 . S
C2054 C2055 1.373 . S
C2054 C2056 1.389 . S
C2055 H2034 0.950 . S
C2055 C2054 1.373 . S
C2055 C2071 1.377 . S
C2056 C2054 1.389 . S
C2056 C2057 1.524 . S
C2056 C2070 1.377 . S
C2057 C2056 1.524 . S
C2057 C2058 1.397 . S
C2057 C2062 1.363 . S
C2058 H2035 0.950 . S
C2058 C2057 1.397 . S
C2058 C2059 1.334 . S
C2059 H2036 0.950 . S
C2059 C2058 1.334 . S
C2059 C2060 1.287 . S
C2060 C2059 1.287 . S
C2060 C2061 1.524 . S
C2060 H2079 0.913 . S
C2061 H2037 0.950 . S
C2061 C2060 1.524 . S
C2061 C2062 1.415 . S
C2062 H2038 0.950 . S
C2062 C2057 1.363 . S
C2062 C2061 1.415 . S
C2063 H2039 0.951 . S
C2063 C2064 1.366 . S
C2063 C2065 1.388 . S
C2064 C2063 1.366 . S
C2064 C2068 1.385 . S
C2065 H2040 0.951 . S
C2065 C2063 1.388 . S
C2065 C2066 1.366 . S
C2066 C2065 1.366 . S
C2066 C2067 1.414 . S
C2066 C2069 1.499 . S
C2067 H2041 0.950 . S
C2067 C2066 1.414 . S
C2067 C2068 1.374 . S
C2068 H2042 0.950 . S
C2068 C2064 1.385 . S
C2068 C2067 1.374 . S
C2069 C2066 1.499 . S
C2069 C2070 1.373 . S
C2069 C2071 1.389 . S
C2070 H2043 0.950 . S
C2070 C2056 1.377 . S
C2070 C2069 1.373 . S
C2071 C2055 1.377 . S
C2071 C2069 1.389 . S
C2071 C2072 1.524 . S
C2072 C2071 1.524 . S
C2072 C2073 1.397 . S
C2072 C2077 1.363 . S
C2073 H2044 0.950 . S
C2073 C2072 1.397 . S
C2073 C2074 1.334 . S
C2074 H2045 0.950 . S
C2074 C2073 1.334 . S
C2074 C2075 1.287 . S
C2075 C2074 1.287 . S
C2075 C2076 1.524 . S
C2075 H2078 0.999 . S
C2076 H2046 0.950 . S
C2076 C2075 1.524 . S
C2076 C2077 1.415 . S
C2077 H2047 0.950 . S
C2077 C2072 1.363 . S
C2077 C2076 1.415 . S
H2078 C2075 0.999 . S
H2079 C2060 0.913 . S
H2080 C2098 0.951 . S
H2081 C2100 0.951 . S
H2082 C2102 0.950 . S
H2083 C2103 0.950 . S
H2084 C2105 0.950 . S
H2085 C2108 0.950 . S
H2086 C2109 0.950 . S
H2087 C2111 0.950 . S
H2088 C2112 0.950 . S
H2089 C2113 0.951 . S
H2090 C2115 0.951 . S
H2091 C2117 0.950 . S
H2092 C2118 0.950 . S
H2093 C2120 0.950 . S
H2094 C2123 0.950 . S
H2095 C2124 0.950 . S
H2096 C2126 0.950 . S
H2097 C2127 0.950 . S
C2098 H2080 0.951 . S
C2098 C2099 1.366 . S
C2098 C2100 1.388 . S
C2099 C2098 1.366 . S
C2099 C2103 1.385 . S
C2100 H2081 0.951 . S
C2100 C2098 1.388 . S
C2100 C2101 1.366 . S
C2101 C2100 1.366 . S
C2101 C2102 1.414 . S
C2101 C2104 1.499 . S
C2102 H2082 0.950 . S
C2102 C2101 1.414 . S
C2102 C2103 1.374 . S
C2103 H2083 0.950 . S
C2103 C2099 1.385 . S
C2103 C2102 1.374 . S
C2104 C2101 1.499 . S
C2104 C2105 1.373 . S
C2104 C2106 1.389 . S
C2105 H2084 0.950 . S
C2105 C2104 1.373 . S
C2105 C2121 1.377 . S
C2106 C2104 1.389 . S
C2106 C2107 1.524 . S
C2106 C2120 1.377 . S
C2107 C2106 1.524 . S
C2107 C2108 1.397 . S
C2107 C2112 1.363 . S
C2108 H2085 0.950 . S
C2108 C2107 1.397 . S
C2108 C2109 1.334 . S
C2109 H2086 0.950 . S
C2109 C2108 1.334 . S
C2109 C2110 1.287 . S
C2110 C2109 1.287 . S
C2110 C2111 1.524 . S
C2110 H2129 0.913 . S
C2111 H2087 0.950 . S
C2111 C2110 1.524 . S
C2111 C2112 1.415 . S
C2112 H2088 0.950 . S
C2112 C2107 1.363 . S
C2112 C2111 1.415 . S
C2113 H2089 0.951 . S
C2113 C2114 1.366 . S
C2113 C2115 1.388 . S
C2114 C2113 1.366 . S
C2114 C2118 1.385 . S
C2115 H2090 0.951 . S
C2115 C2113 1.388 . S
C2115 C2116 1.366 . S
C2116 C2115 1.366 . S
C2116 C2117 1.414 . S
C2116 C2119 1.499 . S
C2117 H2091 0.950 . S
C2117 C2116 1.414 . S
C2117 C2118 1.374 . S
C2118 H2092 0.950 . S
C2118 C2114 1.385 . S
C2118 C2117 1.374 . S
C2119 C2116 1.499 . S
C2119 C2120 1.373 . S
C2119 C2121 1.389 . S
C2120 H2093 0.950 . S
C2120 C2106 1.377 . S
C2120 C2119 1.373 . S
C2121 C2105 1.377 . S
C2121 C2119 1.389 . S
C2121 C2122 1.524 . S
C2122 C2121 1.524 . S
C2122 C2123 1.397 . S
C2122 C2127 1.363 . S
C2123 H2094 0.950 . S
C2123 C2122 1.397 . S
C2123 C2124 1.334 . S
C2124 H2095 0.950 . S
C2124 C2123 1.334 . S
C2124 C2125 1.287 . S
C2125 C2124 1.287 . S
C2125 C2126 1.524 . S
C2125 H2128 0.999 . S
C2126 H2096 0.950 . S
C2126 C2125 1.524 . S
C2126 C2127 1.415 . S
C2127 H2097 0.950 . S
C2127 C2122 1.363 . S
C2127 C2126 1.415 . S
H2128 C2125 0.999 . S
H2129 C2110 0.913 . S
H2130 C2148 0.951 . S
H2131 C2150 0.951 . S
H2132 C2152 0.950 . S
H2133 C2153 0.950 . S
H2134 C2155 0.950 . S
H2135 C2158 0.950 . S
H2136 C2159 0.950 . S
H2137 C2161 0.950 . S
H2138 C2162 0.950 . S
H2139 C2163 0.951 . S
H2140 C2165 0.951 . S
H2141 C2167 0.950 . S
H2142 C2168 0.950 . S
H2143 C2170 0.950 . S
H2144 C2173 0.950 . S
H2145 C2174 0.950 . S
H2146 C2176 0.950 . S
H2147 C2177 0.950 . S
C2148 H2130 0.951 . S
C2148 C2149 1.366 . S
C2148 C2150 1.388 . S
C2149 C2148 1.366 . S
C2149 C2153 1.385 . S
C2150 H2131 0.951 . S
C2150 C2148 1.388 . S
C2150 C2151 1.366 . S
C2151 C2150 1.366 . S
C2151 C2152 1.414 . S
C2151 C2154 1.499 . S
C2152 H2132 0.950 . S
C2152 C2151 1.414 . S
C2152 C2153 1.374 . S
C2153 H2133 0.950 . S
C2153 C2149 1.385 . S
C2153 C2152 1.374 . S
C2154 C2151 1.499 . S
C2154 C2155 1.373 . S
C2154 C2156 1.389 . S
C2155 H2134 0.950 . S
C2155 C2154 1.373 . S
C2155 C2171 1.377 . S
C2156 C2154 1.389 . S
C2156 C2157 1.524 . S
C2156 C2170 1.377 . S
C2157 C2156 1.524 . S
C2157 C2158 1.397 . S
C2157 C2162 1.363 . S
C2158 H2135 0.950 . S
C2158 C2157 1.397 . S
C2158 C2159 1.334 . S
C2159 H2136 0.950 . S
C2159 C2158 1.334 . S
C2159 C2160 1.287 . S
C2160 C2159 1.287 . S
C2160 C2161 1.524 . S
C2160 H2179 0.913 . S
C2161 H2137 0.950 . S
C2161 C2160 1.524 . S
C2161 C2162 1.415 . S
C2162 H2138 0.950 . S
C2162 C2157 1.363 . S
C2162 C2161 1.415 . S
C2163 H2139 0.951 . S
C2163 C2164 1.366 . S
C2163 C2165 1.388 . S
C2164 C2163 1.366 . S
C2164 C2168 1.385 . S
C2165 H2140 0.951 . S
C2165 C2163 1.388 . S
C2165 C2166 1.366 . S
C2166 C2165 1.366 . S
C2166 C2167 1.414 . S
C2166 C2169 1.499 . S
C2167 H2141 0.950 . S
C2167 C2166 1.414 . S
C2167 C2168 1.374 . S
C2168 H2142 0.950 . S
C2168 C2164 1.385 . S
C2168 C2167 1.374 . S
C2169 C2166 1.499 . S
C2169 C2170 1.373 . S
C2169 C2171 1.389 . S
C2170 H2143 0.950 . S
C2170 C2156 1.377 . S
C2170 C2169 1.373 . S
C2171 C2155 1.377 . S
C2171 C2169 1.389 . S
C2171 C2172 1.524 . S
C2172 C2171 1.524 . S
C2172 C2173 1.397 . S
C2172 C2177 1.363 . S
C2173 H2144 0.950 . S
C2173 C2172 1.397 . S
C2173 C2174 1.334 . S
C2174 H2145 0.950 . S
C2174 C2173 1.334 . S
C2174 C2175 1.287 . S
C2175 C2174 1.287 . S
C2175 C2176 1.524 . S
C2175 H2178 0.999 . S
C2176 H2146 0.950 . S
C2176 C2175 1.524 . S
C2176 C2177 1.415 . S
C2177 H2147 0.950 . S
C2177 C2172 1.363 . S
C2177 C2176 1.415 . S
H2178 C2175 0.999 . S
H2179 C2160 0.913 . S
H2180 C2198 0.951 . S
H2181 C2200 0.951 . S
H2182 C2202 0.950 . S
H2183 C2203 0.950 . S
H2184 C2205 0.950 . S
H2185 C2208 0.950 . S
H2186 C2209 0.950 . S
H2187 C2211 0.950 . S
H2188 C2212 0.950 . S
H2189 C2213 0.951 . S
H2190 C2215 0.951 . S
H2191 C2217 0.950 . S
H2192 C2218 0.950 . S
H2193 C2220 0.950 . S
H2194 C2223 0.950 . S
H2195 C2224 0.950 . S
H2196 C2226 0.950 . S
H2197 C2227 0.950 . S
C2198 H2180 0.951 . S
C2198 C2199 1.366 . S
C2198 C2200 1.388 . S
C2199 C2198 1.366 . S
C2199 C2203 1.385 . S
C2200 H2181 0.951 . S
C2200 C2198 1.388 . S
C2200 C2201 1.366 . S
C2201 C2200 1.366 . S
C2201 C2202 1.414 . S
C2201 C2204 1.499 . S
C2202 H2182 0.950 . S
C2202 C2201 1.414 . S
C2202 C2203 1.374 . S
C2203 H2183 0.950 . S
C2203 C2199 1.385 . S
C2203 C2202 1.374 . S
C2204 C2201 1.499 . S
C2204 C2205 1.373 . S
C2204 C2206 1.389 . S
C2205 H2184 0.950 . S
C2205 C2204 1.373 . S
C2205 C2221 1.377 . S
C2206 C2204 1.389 . S
C2206 C2207 1.524 . S
C2206 C2220 1.377 . S
C2207 C2206 1.524 . S
C2207 C2208 1.397 . S
C2207 C2212 1.363 . S
C2208 H2185 0.950 . S
C2208 C2207 1.397 . S
C2208 C2209 1.334 . S
C2209 H2186 0.950 . S
C2209 C2208 1.334 . S
C2209 C2210 1.287 . S
C2210 C2209 1.287 . S
C2210 C2211 1.524 . S
C2210 H2229 0.913 . S
C2211 H2187 0.950 . S
C2211 C2210 1.524 . S
C2211 C2212 1.415 . S
C2212 H2188 0.950 . S
C2212 C2207 1.363 . S
C2212 C2211 1.415 . S
C2213 H2189 0.951 . S
C2213 C2214 1.366 . S
C2213 C2215 1.388 . S
C2214 C2213 1.366 . S
C2214 C2218 1.385 . S
C2215 H2190 0.951 . S
C2215 C2213 1.388 . S
C2215 C2216 1.366 . S
C2216 C2215 1.366 . S
C2216 C2217 1.414 . S
C2216 C2219 1.499 . S
C2217 H2191 0.950 . S
C2217 C2216 1.414 . S
C2217 C2218 1.374 . S
C2218 H2192 0.950 . S
C2218 C2214 1.385 . S
C2218 C2217 1.374 . S
C2219 C2216 1.499 . S
C2219 C2220 1.373 . S
C2219 C2221 1.389 . S
C2220 H2193 0.950 . S
C2220 C2206 1.377 . S
C2220 C2219 1.373 . S
C2221 C2205 1.377 . S
C2221 C2219 1.389 . S
C2221 C2222 1.524 . S
C2222 C2221 1.524 . S
C2222 C2223 1.397 . S
C2222 C2227 1.363 . S
C2223 H2194 0.950 . S
C2223 C2222 1.397 . S
C2223 C2224 1.334 . S
C2224 H2195 0.950 . S
C2224 C2223 1.334 . S
C2224 C2225 1.287 . S
C2225 C2224 1.287 . S
C2225 C2226 1.524 . S
C2225 H2228 0.999 . S
C2226 H2196 0.950 . S
C2226 C2225 1.524 . S
C2226 C2227 1.415 . S
C2227 H2197 0.950 . S
C2227 C2222 1.363 . S
C2227 C2226 1.415 . S
H2228 C2225 0.999 . S
H2229 C2210 0.913 . S
H2230 C2248 0.951 . S
H2231 C2250 0.951 . S
H2232 C2252 0.950 . S
H2233 C2253 0.950 . S
H2234 C2255 0.950 . S
H2235 C2258 0.950 . S
H2236 C2259 0.950 . S
H2237 C2261 0.950 . S
H2238 C2262 0.950 . S
H2239 C2263 0.951 . S
H2240 C2265 0.951 . S
H2241 C2267 0.950 . S
H2242 C2268 0.950 . S
H2243 C2270 0.950 . S
H2244 C2273 0.950 . S
H2245 C2274 0.950 . S
H2246 C2276 0.950 . S
H2247 C2277 0.950 . S
C2248 H2230 0.951 . S
C2248 C2249 1.366 . S
C2248 C2250 1.388 . S
C2249 C2248 1.366 . S
C2249 C2253 1.385 . S
C2250 H2231 0.951 . S
C2250 C2248 1.388 . S
C2250 C2251 1.366 . S
C2251 C2250 1.366 . S
C2251 C2252 1.414 . S
C2251 C2254 1.499 . S
C2252 H2232 0.950 . S
C2252 C2251 1.414 . S
C2252 C2253 1.374 . S
C2253 H2233 0.950 . S
C2253 C2249 1.385 . S
C2253 C2252 1.374 . S
C2254 C2251 1.499 . S
C2254 C2255 1.373 . S
C2254 C2256 1.389 . S
C2255 H2234 0.950 . S
C2255 C2254 1.373 . S
C2255 C2271 1.377 . S
C2256 C2254 1.389 . S
C2256 C2257 1.524 . S
C2256 C2270 1.377 . S
C2257 C2256 1.524 . S
C2257 C2258 1.397 . S
C2257 C2262 1.363 . S
C2258 H2235 0.950 . S
C2258 C2257 1.397 . S
C2258 C2259 1.334 . S
C2259 H2236 0.950 . S
C2259 C2258 1.334 . S
C2259 C2260 1.287 . S
C2260 C2259 1.287 . S
C2260 C2261 1.524 . S
C2260 H2279 0.913 . S
C2261 H2237 0.950 . S
C2261 C2260 1.524 . S
C2261 C2262 1.415 . S
C2262 H2238 0.950 . S
C2262 C2257 1.363 . S
C2262 C2261 1.415 . S
C2263 H2239 0.951 . S
C2263 C2264 1.366 . S
C2263 C2265 1.388 . S
C2264 C2263 1.366 . S
C2264 C2268 1.385 . S
C2265 H2240 0.951 . S
C2265 C2263 1.388 . S
C2265 C2266 1.366 . S
C2266 C2265 1.366 . S
C2266 C2267 1.414 . S
C2266 C2269 1.499 . S
C2267 H2241 0.950 . S
C2267 C2266 1.414 . S
C2267 C2268 1.374 . S
C2268 H2242 0.950 . S
C2268 C2264 1.385 . S
C2268 C2267 1.374 . S
C2269 C2266 1.499 . S
C2269 C2270 1.373 . S
C2269 C2271 1.389 . S
C2270 H2243 0.950 . S
C2270 C2256 1.377 . S
C2270 C2269 1.373 . S
C2271 C2255 1.377 . S
C2271 C2269 1.389 . S
C2271 C2272 1.524 . S
C2272 C2271 1.524 . S
C2272 C2273 1.397 . S
C2272 C2277 1.363 . S
C2273 H2244 0.950 . S
C2273 C2272 1.397 . S
C2273 C2274 1.334 . S
C2274 H2245 0.950 . S
C2274 C2273 1.334 . S
C2274 C2275 1.287 . S
C2275 C2274 1.287 . S
C2275 C2276 1.524 . S
C2275 H2278 0.999 . S
C2276 H2246 0.950 . S
C2276 C2275 1.524 . S
C2276 C2277 1.415 . S
C2277 H2247 0.950 . S
C2277 C2272 1.363 . S
C2277 C2276 1.415 . S
H2278 C2275 0.999 . S
H2279 C2260 0.913 . S
H2280 C2298 0.951 . S
H2281 C2300 0.951 . S
H2282 C2302 0.950 . S
H2283 C2303 0.950 . S
H2284 C2305 0.950 . S
H2285 C2308 0.950 . S
H2286 C2309 0.950 . S
H2287 C2311 0.950 . S
H2288 C2312 0.950 . S
H2289 C2313 0.951 . S
H2290 C2315 0.951 . S
H2291 C2317 0.950 . S
H2292 C2318 0.950 . S
H2293 C2320 0.950 . S
H2294 C2323 0.950 . S
H2295 C2324 0.950 . S
H2296 C2326 0.950 . S
H2297 C2327 0.950 . S
C2298 H2280 0.951 . S
C2298 C2299 1.366 . S
C2298 C2300 1.388 . S
C2299 C2298 1.366 . S
C2299 C2303 1.385 . S
C2300 H2281 0.951 . S
C2300 C2298 1.388 . S
C2300 C2301 1.366 . S
C2301 C2300 1.366 . S
C2301 C2302 1.414 . S
C2301 C2304 1.499 . S
C2302 H2282 0.950 . S
C2302 C2301 1.414 . S
C2302 C2303 1.374 . S
C2303 H2283 0.950 . S
C2303 C2299 1.385 . S
C2303 C2302 1.374 . S
C2304 C2301 1.499 . S
C2304 C2305 1.373 . S
C2304 C2306 1.389 . S
C2305 H2284 0.950 . S
C2305 C2304 1.373 . S
C2305 C2321 1.377 . S
C2306 C2304 1.389 . S
C2306 C2307 1.524 . S
C2306 C2320 1.377 . S
C2307 C2306 1.524 . S
C2307 C2308 1.397 . S
C2307 C2312 1.363 . S
C2308 H2285 0.950 . S
C2308 C2307 1.397 . S
C2308 C2309 1.334 . S
C2309 H2286 0.950 . S
C2309 C2308 1.334 . S
C2309 C2310 1.287 . S
C2310 C2309 1.287 . S
C2310 C2311 1.524 . S
C2310 H2329 0.913 . S
C2311 H2287 0.950 . S
C2311 C2310 1.524 . S
C2311 C2312 1.415 . S
C2312 H2288 0.950 . S
C2312 C2307 1.363 . S
C2312 C2311 1.415 . S
C2313 H2289 0.951 . S
C2313 C2314 1.366 . S
C2313 C2315 1.388 . S
C2314 C2313 1.366 . S
C2314 C2318 1.385 . S
C2315 H2290 0.951 . S
C2315 C2313 1.388 . S
C2315 C2316 1.366 . S
C2316 C2315 1.366 . S
C2316 C2317 1.414 . S
C2316 C2319 1.499 . S
C2317 H2291 0.950 . S
C2317 C2316 1.414 . S
C2317 C2318 1.374 . S
C2318 H2292 0.950 . S
C2318 C2314 1.385 . S
C2318 C2317 1.374 . S
C2319 C2316 1.499 . S
C2319 C2320 1.373 . S
C2319 C2321 1.389 . S
C2320 H2293 0.950 . S
C2320 C2306 1.377 . S
C2320 C2319 1.373 . S
C2321 C2305 1.377 . S
C2321 C2319 1.389 . S
C2321 C2322 1.524 . S
C2322 C2321 1.524 . S
C2322 C2323 1.397 . S
C2322 C2327 1.363 . S
C2323 H2294 0.950 . S
C2323 C2322 1.397 . S
C2323 C2324 1.334 . S
C2324 H2295 0.950 . S
C2324 C2323 1.334 . S
C2324 C2325 1.287 . S
C2325 C2324 1.287 . S
C2325 C2326 1.524 . S
C2325 H2328 0.999 . S
C2326 H2296 0.950 . S
C2326 C2325 1.524 . S
C2326 C2327 1.415 . S
C2327 H2297 0.950 . S
C2327 C2322 1.363 . S
C2327 C2326 1.415 . S
H2328 C2325 0.999 . S
H2329 C2310 0.913 . S
H2330 C2348 0.951 . S
H2331 C2350 0.951 . S
H2332 C2352 0.950 . S
H2333 C2353 0.950 . S
H2334 C2355 0.950 . S
H2335 C2358 0.950 . S
H2336 C2359 0.950 . S
H2337 C2361 0.950 . S
H2338 C2362 0.950 . S
H2339 C2363 0.951 . S
H2340 C2365 0.951 . S
H2341 C2367 0.950 . S
H2342 C2368 0.950 . S
H2343 C2370 0.950 . S
H2344 C2373 0.950 . S
H2345 C2374 0.950 . S
H2346 C2376 0.950 . S
H2347 C2377 0.950 . S
C2348 H2330 0.951 . S
C2348 C2349 1.366 . S
C2348 C2350 1.388 . S
C2349 C2348 1.366 . S
C2349 C2353 1.385 . S
C2350 H2331 0.951 . S
C2350 C2348 1.388 . S
C2350 C2351 1.366 . S
C2351 C2350 1.366 . S
C2351 C2352 1.414 . S
C2351 C2354 1.499 . S
C2352 H2332 0.950 . S
C2352 C2351 1.414 . S
C2352 C2353 1.374 . S
C2353 H2333 0.950 . S
C2353 C2349 1.385 . S
C2353 C2352 1.374 . S
C2354 C2351 1.499 . S
C2354 C2355 1.373 . S
C2354 C2356 1.389 . S
C2355 H2334 0.950 . S
C2355 C2354 1.373 . S
C2355 C2371 1.377 . S
C2356 C2354 1.389 . S
C2356 C2357 1.524 . S
C2356 C2370 1.377 . S
C2357 C2356 1.524 . S
C2357 C2358 1.397 . S
C2357 C2362 1.363 . S
C2358 H2335 0.950 . S
C2358 C2357 1.397 . S
C2358 C2359 1.334 . S
C2359 H2336 0.950 . S
C2359 C2358 1.334 . S
C2359 C2360 1.287 . S
C2360 C2359 1.287 . S
C2360 C2361 1.524 . S
C2360 H2379 0.913 . S
C2361 H2337 0.950 . S
C2361 C2360 1.524 . S
C2361 C2362 1.415 . S
C2362 H2338 0.950 . S
C2362 C2357 1.363 . S
C2362 C2361 1.415 . S
C2363 H2339 0.951 . S
C2363 C2364 1.366 . S
C2363 C2365 1.388 . S
C2364 C2363 1.366 . S
C2364 C2368 1.385 . S
C2365 H2340 0.951 . S
C2365 C2363 1.388 . S
C2365 C2366 1.366 . S
C2366 C2365 1.366 . S
C2366 C2367 1.414 . S
C2366 C2369 1.499 . S
C2367 H2341 0.950 . S
C2367 C2366 1.414 . S
C2367 C2368 1.374 . S
C2368 H2342 0.950 . S
C2368 C2364 1.385 . S
C2368 C2367 1.374 . S
C2369 C2366 1.499 . S
C2369 C2370 1.373 . S
C2369 C2371 1.389 . S
C2370 H2343 0.950 . S
C2370 C2356 1.377 . S
C2370 C2369 1.373 . S
C2371 C2355 1.377 . S
C2371 C2369 1.389 . S
C2371 C2372 1.524 . S
C2372 C2371 1.524 . S
C2372 C2373 1.397 . S
C2372 C2377 1.363 . S
C2373 H2344 0.950 . S
C2373 C2372 1.397 . S
C2373 C2374 1.334 . S
C2374 H2345 0.950 . S
C2374 C2373 1.334 . S
C2374 C2375 1.287 . S
C2375 C2374 1.287 . S
C2375 C2376 1.524 . S
C2375 H2378 0.999 . S
C2376 H2346 0.950 . S
C2376 C2375 1.524 . S
C2376 C2377 1.415 . S
C2377 H2347 0.950 . S
C2377 C2372 1.363 . S
C2377 C2376 1.415 . S
H2378 C2375 0.999 . S
H2379 C2360 0.913 . S
H2380 C2398 0.951 . S
H2381 C2400 0.951 . S
H2382 C2402 0.950 . S
H2383 C2403 0.950 . S
H2384 C2405 0.950 . S
H2385 C2408 0.950 . S
H2386 C2409 0.950 . S
H2387 C2411 0.950 . S
H2388 C2412 0.950 . S
H2389 C2413 0.951 . S
H2390 C2415 0.951 . S
H2391 C2417 0.950 . S
H2392 C2418 0.950 . S
H2393 C2420 0.950 . S
H2394 C2423 0.950 . S
H2395 C2424 0.950 . S
H2396 C2426 0.950 . S
H2397 C2427 0.950 . S
C2398 H2380 0.951 . S
C2398 C2399 1.366 . S
C2398 C2400 1.388 . S
C2399 C2398 1.366 . S
C2399 C2403 1.385 . S
C2400 H2381 0.951 . S
C2400 C2398 1.388 . S
C2400 C2401 1.366 . S
C2401 C2400 1.366 . S
C2401 C2402 1.414 . S
C2401 C2404 1.499 . S
C2402 H2382 0.950 . S
C2402 C2401 1.414 . S
C2402 C2403 1.374 . S
C2403 H2383 0.950 . S
C2403 C2399 1.385 . S
C2403 C2402 1.374 . S
C2404 C2401 1.499 . S
C2404 C2405 1.373 . S
C2404 C2406 1.389 . S
C2405 H2384 0.950 . S
C2405 C2404 1.373 . S
C2405 C2421 1.377 . S
C2406 C2404 1.389 . S
C2406 C2407 1.524 . S
C2406 C2420 1.377 . S
C2407 C2406 1.524 . S
C2407 C2408 1.397 . S
C2407 C2412 1.363 . S
C2408 H2385 0.950 . S
C2408 C2407 1.397 . S
C2408 C2409 1.334 . S
C2409 H2386 0.950 . S
C2409 C2408 1.334 . S
C2409 C2410 1.287 . S
C2410 C2409 1.287 . S
C2410 C2411 1.524 . S
C2410 H2429 0.913 . S
C2411 H2387 0.950 . S
C2411 C2410 1.524 . S
C2411 C2412 1.415 . S
C2412 H2388 0.950 . S
C2412 C2407 1.363 . S
C2412 C2411 1.415 . S
C2413 H2389 0.951 . S
C2413 C2414 1.366 . S
C2413 C2415 1.388 . S
C2414 C2413 1.366 . S
C2414 C2418 1.385 . S
C2415 H2390 0.951 . S
C2415 C2413 1.388 . S
C2415 C2416 1.366 . S
C2416 C2415 1.366 . S
C2416 C2417 1.414 . S
C2416 C2419 1.499 . S
C2417 H2391 0.950 . S
C2417 C2416 1.414 . S
C2417 C2418 1.374 . S
C2418 H2392 0.950 . S
C2418 C2414 1.385 . S
C2418 C2417 1.374 . S
C2419 C2416 1.499 . S
C2419 C2420 1.373 . S
C2419 C2421 1.389 . S
C2420 H2393 0.950 . S
C2420 C2406 1.377 . S
C2420 C2419 1.373 . S
C2421 C2405 1.377 . S
C2421 C2419 1.389 . S
C2421 C2422 1.524 . S
C2422 C2421 1.524 . S
C2422 C2423 1.397 . S
C2422 C2427 1.363 . S
C2423 H2394 0.950 . S
C2423 C2422 1.397 . S
C2423 C2424 1.334 . S
C2424 H2395 0.950 . S
C2424 C2423 1.334 . S
C2424 C2425 1.287 . S
C2425 C2424 1.287 . S
C2425 C2426 1.524 . S
C2425 H2428 0.999 . S
C2426 H2396 0.950 . S
C2426 C2425 1.524 . S
C2426 C2427 1.415 . S
C2427 H2397 0.950 . S
C2427 C2422 1.363 . S
C2427 C2426 1.415 . S
H2428 C2425 0.999 . S
H2429 C2410 0.913 . S
H2430 C2448 0.951 . S
H2431 C2450 0.951 . S
H2432 C2452 0.950 . S
H2433 C2453 0.950 . S
H2434 C2455 0.950 . S
H2435 C2458 0.950 . S
H2436 C2459 0.950 . S
H2437 C2461 0.950 . S
H2438 C2462 0.950 . S
H2439 C2463 0.951 . S
H2440 C2465 0.951 . S
H2441 C2467 0.950 . S
H2442 C2468 0.950 . S
H2443 C2470 0.950 . S
H2444 C2473 0.950 . S
H2445 C2474 0.950 . S
H2446 C2476 0.950 . S
H2447 C2477 0.950 . S
C2448 H2430 0.951 . S
C2448 C2449 1.366 . S
C2448 C2450 1.388 . S
C2449 C2448 1.366 . S
C2449 C2453 1.385 . S
C2450 H2431 0.951 . S
C2450 C2448 1.388 . S
C2450 C2451 1.366 . S
C2451 C2450 1.366 . S
C2451 C2452 1.414 . S
C2451 C2454 1.499 . S
C2452 H2432 0.950 . S
C2452 C2451 1.414 . S
C2452 C2453 1.374 . S
C2453 H2433 0.950 . S
C2453 C2449 1.385 . S
C2453 C2452 1.374 . S
C2454 C2451 1.499 . S
C2454 C2455 1.373 . S
C2454 C2456 1.389 . S
C2455 H2434 0.950 . S
C2455 C2454 1.373 . S
C2455 C2471 1.377 . S
C2456 C2454 1.389 . S
C2456 C2457 1.524 . S
C2456 C2470 1.377 . S
C2457 C2456 1.524 . S
C2457 C2458 1.397 . S
C2457 C2462 1.363 . S
C2458 H2435 0.950 . S
C2458 C2457 1.397 . S
C2458 C2459 1.334 . S
C2459 H2436 0.950 . S
C2459 C2458 1.334 . S
C2459 C2460 1.287 . S
C2460 C2459 1.287 . S
C2460 C2461 1.524 . S
C2460 H2479 0.913 . S
C2461 H2437 0.950 . S
C2461 C2460 1.524 . S
C2461 C2462 1.415 . S
C2462 H2438 0.950 . S
C2462 C2457 1.363 . S
C2462 C2461 1.415 . S
C2463 H2439 0.951 . S
C2463 C2464 1.366 . S
C2463 C2465 1.388 . S
C2464 C2463 1.366 . S
C2464 C2468 1.385 . S
C2465 H2440 0.951 . S
C2465 C2463 1.388 . S
C2465 C2466 1.366 . S
C2466 C2465 1.366 . S
C2466 C2467 1.414 . S
C2466 C2469 1.499 . S
C2467 H2441 0.950 . S
C2467 C2466 1.414 . S
C2467 C2468 1.374 . S
C2468 H2442 0.950 . S
C2468 C2464 1.385 . S
C2468 C2467 1.374 . S
C2469 C2466 1.499 . S
C2469 C2470 1.373 . S
C2469 C2471 1.389 . S
C2470 H2443 0.950 . S
C2470 C2456 1.377 . S
C2470 C2469 1.373 . S
C2471 C2455 1.377 . S
C2471 C2469 1.389 . S
C2471 C2472 1.524 . S
C2472 C2471 1.524 . S
C2472 C2473 1.397 . S
C2472 C2477 1.363 . S
C2473 H2444 0.950 . S
C2473 C2472 1.397 . S
C2473 C2474 1.334 . S
C2474 H2445 0.950 . S
C2474 C2473 1.334 . S
C2474 C2475 1.287 . S
C2475 C2474 1.287 . S
C2475 C2476 1.524 . S
C2475 H2478 0.999 . S
C2476 H2446 0.950 . S
C2476 C2475 1.524 . S
C2476 C2477 1.415 . S
C2477 H2447 0.950 . S
C2477 C2472 1.363 . S
C2477 C2476 1.415 . S
H2478 C2475 0.999 . S
H2479 C2460 0.913 . S
H2480 C2498 0.951 . S
H2481 C2500 0.951 . S
H2482 C2502 0.950 . S
H2483 C2503 0.950 . S
H2484 C2505 0.950 . S
H2485 C2508 0.950 . S
H2486 C2509 0.950 1_556 S
H2487 C2511 0.950 . S
H2488 C2512 0.950 . S
H2489 C2513 0.951 . S
H2490 C2515 0.951 . S
H2491 C2517 0.950 . S
H2492 C2518 0.950 . S
H2493 C2520 0.950 . S
H2494 C2523 0.950 . S
H2495 C2524 0.950 . S
H2496 C2526 0.950 . S
H2497 C2527 0.950 . S
C2498 H2480 0.951 . S
C2498 C2499 1.366 . S
C2498 C2500 1.388 . S
C2499 C2498 1.366 . S
C2499 C2503 1.385 . S
C2500 H2481 0.951 . S
C2500 C2498 1.388 . S
C2500 C2501 1.366 . S
C2501 C2500 1.366 . S
C2501 C2502 1.414 . S
C2501 C2504 1.499 . S
C2502 H2482 0.950 . S
C2502 C2501 1.414 . S
C2502 C2503 1.374 . S
C2503 H2483 0.950 . S
C2503 C2499 1.385 . S
C2503 C2502 1.374 . S
C2504 C2501 1.499 . S
C2504 C2505 1.373 . S
C2504 C2506 1.389 . S
C2505 H2484 0.950 . S
C2505 C2504 1.373 . S
C2505 C2521 1.377 . S
C2506 C2504 1.389 . S
C2506 C2507 1.524 . S
C2506 C2520 1.377 . S
C2507 C2506 1.524 . S
C2507 C2508 1.397 . S
C2507 C2512 1.363 . S
C2508 H2485 0.950 . S
C2508 C2507 1.397 . S
C2508 C2509 1.334 . S
C2509 H2486 0.950 1_554 S
C2509 C2508 1.334 . S
C2509 C2510 1.287 1_554 S
C2510 C2509 1.287 1_556 S
C2510 C2511 1.524 . S
C2510 H2529 0.913 . S
C2511 H2487 0.950 . S
C2511 C2510 1.524 . S
C2511 C2512 1.415 1_556 S
C2512 H2488 0.950 . S
C2512 C2507 1.363 . S
C2512 C2511 1.415 1_554 S
C2513 H2489 0.951 . S
C2513 C2514 1.366 . S
C2513 C2515 1.388 . S
C2514 C2513 1.366 . S
C2514 C2518 1.385 . S
C2515 H2490 0.951 . S
C2515 C2513 1.388 . S
C2515 C2516 1.366 . S
C2516 C2515 1.366 . S
C2516 C2517 1.414 . S
C2516 C2519 1.499 . S
C2517 H2491 0.950 . S
C2517 C2516 1.414 . S
C2517 C2518 1.374 . S
C2518 H2492 0.950 . S
C2518 C2514 1.385 . S
C2518 C2517 1.374 . S
C2519 C2516 1.499 . S
C2519 C2520 1.373 . S
C2519 C2521 1.389 . S
C2520 H2493 0.950 . S
C2520 C2506 1.377 . S
C2520 C2519 1.373 . S
C2521 C2505 1.377 . S
C2521 C2519 1.389 . S
C2521 C2522 1.524 . S
C2522 C2521 1.524 . S
C2522 C2523 1.397 . S
C2522 C2527 1.363 . S
C2523 H2494 0.950 . S
C2523 C2522 1.397 . S
C2523 C2524 1.334 . S
C2524 H2495 0.950 . S
C2524 C2523 1.334 . S
C2524 C2525 1.287 . S
C2525 C2524 1.287 . S
C2525 C2526 1.524 . S
C2525 H2528 0.999 . S
C2526 H2496 0.950 . S
C2526 C2525 1.524 . S
C2526 C2527 1.415 . S
C2527 H2497 0.950 . S
C2527 C2522 1.363 . S
C2527 C2526 1.415 . S
H2528 C2525 0.999 . S
H2529 C2510 0.913 . S
H2530 C2548 0.951 . S
H2531 C2550 0.951 . S
H2532 C2552 0.950 . S
H2533 C2553 0.950 . S
H2534 C2555 0.950 . S
H2535 C2558 0.950 . S
H2536 C2559 0.950 . S
H2537 C2561 0.950 . S
H2538 C2562 0.950 . S
H2539 C2563 0.951 . S
H2540 C2565 0.951 . S
H2541 C2567 0.950 . S
H2542 C2568 0.950 . S
H2543 C2570 0.950 . S
H2544 C2573 0.950 . S
H2545 C2574 0.950 . S
H2546 C2576 0.950 . S
H2547 C2577 0.950 . S
C2548 H2530 0.951 . S
C2548 C2549 1.366 . S
C2548 C2550 1.388 . S
C2549 C2548 1.366 . S
C2549 C2553 1.385 . S
C2550 H2531 0.951 . S
C2550 C2548 1.388 . S
C2550 C2551 1.366 . S
C2551 C2550 1.366 . S
C2551 C2552 1.414 . S
C2551 C2554 1.499 . S
C2552 H2532 0.950 . S
C2552 C2551 1.414 . S
C2552 C2553 1.374 . S
C2553 H2533 0.950 . S
C2553 C2549 1.385 . S
C2553 C2552 1.374 . S
C2554 C2551 1.499 . S
C2554 C2555 1.373 . S
C2554 C2556 1.389 . S
C2555 H2534 0.950 . S
C2555 C2554 1.373 . S
C2555 C2571 1.377 . S
C2556 C2554 1.389 . S
C2556 C2557 1.524 . S
C2556 C2570 1.377 . S
C2557 C2556 1.524 . S
C2557 C2558 1.397 . S
C2557 C2562 1.363 . S
C2558 H2535 0.950 . S
C2558 C2557 1.397 . S
C2558 C2559 1.334 1_554 S
C2559 H2536 0.950 . S
C2559 C2558 1.334 1_556 S
C2559 C2560 1.287 . S
C2560 C2559 1.287 . S
C2560 C2561 1.524 . S
C2560 H2579 0.913 . S
C2561 H2537 0.950 . S
C2561 C2560 1.524 . S
C2561 C2562 1.415 1_556 S
C2562 H2538 0.950 . S
C2562 C2557 1.363 . S
C2562 C2561 1.415 1_554 S
C2563 H2539 0.951 . S
C2563 C2564 1.366 . S
C2563 C2565 1.388 . S
C2564 C2563 1.366 . S
C2564 C2568 1.385 . S
C2565 H2540 0.951 . S
C2565 C2563 1.388 . S
C2565 C2566 1.366 . S
C2566 C2565 1.366 . S
C2566 C2567 1.414 . S
C2566 C2569 1.499 . S
C2567 H2541 0.950 . S
C2567 C2566 1.414 . S
C2567 C2568 1.374 . S
C2568 H2542 0.950 . S
C2568 C2564 1.385 . S
C2568 C2567 1.374 . S
C2569 C2566 1.499 . S
C2569 C2570 1.373 . S
C2569 C2571 1.389 . S
C2570 H2543 0.950 . S
C2570 C2556 1.377 . S
C2570 C2569 1.373 . S
C2571 C2555 1.377 . S
C2571 C2569 1.389 . S
C2571 C2572 1.524 . S
C2572 C2571 1.524 . S
C2572 C2573 1.397 . S
C2572 C2577 1.363 . S
C2573 H2544 0.950 . S
C2573 C2572 1.397 . S
C2573 C2574 1.334 . S
C2574 H2545 0.950 . S
C2574 C2573 1.334 . S
C2574 C2575 1.287 . S
C2575 C2574 1.287 . S
C2575 C2576 1.524 . S
C2575 H2578 0.999 . S
C2576 H2546 0.950 . S
C2576 C2575 1.524 . S
C2576 C2577 1.415 . S
C2577 H2547 0.950 . S
C2577 C2572 1.363 . S
C2577 C2576 1.415 . S
H2578 C2575 0.999 . S
H2579 C2560 0.913 . S
H2580 C2598 0.951 . S
H2581 C2600 0.951 . S
H2582 C2602 0.950 . S
H2583 C2603 0.934 1_554 S
H2584 C2605 0.950 . S
H2585 C2608 0.950 . S
H2586 C2609 0.950 . S
H2587 C2611 0.950 . S
H2588 C2612 0.950 . S
H2589 C2613 0.951 . S
H2590 C2615 0.951 . S
H2591 C2617 0.950 . S
H2592 C2618 0.950 . S
H2593 C2620 0.950 . S
H2594 C2623 0.950 . S
H2595 C2624 0.950 . S
H2596 C2626 0.950 . S
H2597 C2627 0.950 . S
C2598 H2580 0.951 . S
C2598 C2599 1.366 . S
C2598 C2600 1.388 . S
C2599 C2598 1.366 . S
C2599 C2603 1.385 . S
C2600 H2581 0.951 . S
C2600 C2598 1.388 . S
C2600 C2601 1.366 . S
C2601 C2600 1.366 . S
C2601 C2602 1.414 . S
C2601 C2604 1.499 . S
C2602 H2582 0.950 . S
C2602 C2601 1.414 . S
C2602 C2603 1.374 . S
C2603 H2583 0.934 1_556 S
C2603 C2599 1.385 . S
C2603 C2602 1.374 . S
C2604 C2601 1.499 . S
C2604 C2605 1.373 . S
C2604 C2606 1.389 . S
C2605 H2584 0.950 . S
C2605 C2604 1.373 . S
C2605 C2621 1.377 . S
C2606 C2604 1.389 . S
C2606 C2607 1.524 . S
C2606 C2620 1.377 . S
C2607 C2606 1.524 . S
C2607 C2608 1.397 . S
C2607 C2612 1.363 . S
C2608 H2585 0.950 . S
C2608 C2607 1.397 . S
C2608 C2609 1.334 . S
C2609 H2586 0.950 . S
C2609 C2608 1.334 . S
C2609 C2610 1.287 . S
C2610 C2609 1.287 . S
C2610 C2611 1.524 . S
C2610 H2629 0.913 . S
C2611 H2587 0.950 . S
C2611 C2610 1.524 . S
C2611 C2612 1.415 . S
C2612 H2588 0.950 . S
C2612 C2607 1.363 . S
C2612 C2611 1.415 . S
C2613 H2589 0.951 . S
C2613 C2614 1.366 . S
C2613 C2615 1.388 . S
C2614 C2613 1.366 . S
C2614 C2618 1.385 . S
C2615 H2590 0.951 . S
C2615 C2613 1.388 . S
C2615 C2616 1.366 . S
C2616 C2615 1.366 . S
C2616 C2617 1.414 . S
C2616 C2619 1.499 . S
C2617 H2591 0.950 . S
C2617 C2616 1.414 . S
C2617 C2618 1.374 . S
C2618 H2592 0.950 . S
C2618 C2614 1.385 . S
C2618 C2617 1.374 . S
C2619 C2616 1.499 . S
C2619 C2620 1.373 . S
C2619 C2621 1.389 . S
C2620 H2593 0.950 . S
C2620 C2606 1.377 . S
C2620 C2619 1.373 . S
C2621 C2605 1.377 . S
C2621 C2619 1.389 . S
C2621 C2622 1.524 . S
C2622 C2621 1.524 . S
C2622 C2623 1.397 . S
C2622 C2627 1.363 . S
C2623 H2594 0.950 . S
C2623 C2622 1.397 . S
C2623 C2624 1.334 . S
C2624 H2595 0.950 . S
C2624 C2623 1.334 . S
C2624 C2625 1.287 1_556 S
C2625 C2624 1.287 1_554 S
C2625 C2626 1.524 . S
C2625 H2628 0.999 . S
C2626 H2596 0.950 . S
C2626 C2625 1.524 . S
C2626 C2627 1.415 1_554 S
C2627 H2597 0.950 . S
C2627 C2622 1.363 . S
C2627 C2626 1.415 1_556 S
H2628 C2625 0.999 . S
H2629 C2610 0.913 . S
H2630 C2648 0.951 1_554 S
H2631 C2650 0.951 . S
H2632 C2652 0.950 . S
H2633 C2653 0.950 . S
H2634 C2655 0.950 . S
H2635 C2658 0.950 . S
H2636 C2659 0.950 . S
H2637 C2661 0.950 . S
H2638 C2662 0.950 . S
H2639 C2663 0.951 . S
H2640 C2665 0.951 . S
H2641 C2667 0.950 . S
H2642 C2668 0.950 . S
H2643 C2670 0.950 . S
H2644 C2673 0.950 . S
H2645 C2674 0.950 . S
H2646 C2676 0.950 . S
H2647 C2677 0.950 . S
C2648 H2630 0.951 1_556 S
C2648 C2649 1.366 . S
C2648 C2650 1.388 . S
C2649 C2648 1.366 . S
C2649 C2653 1.385 . S
C2650 H2631 0.951 . S
C2650 C2648 1.388 . S
C2650 C2651 1.366 . S
C2651 C2650 1.366 . S
C2651 C2652 1.414 . S
C2651 C2654 1.499 . S
C2652 H2632 0.950 . S
C2652 C2651 1.414 . S
C2652 C2653 1.374 . S
C2653 H2633 0.950 . S
C2653 C2649 1.385 . S
C2653 C2652 1.374 . S
C2654 C2651 1.499 . S
C2654 C2655 1.373 . S
C2654 C2656 1.389 . S
C2655 H2634 0.950 . S
C2655 C2654 1.373 . S
C2655 C2671 1.377 . S
C2656 C2654 1.389 . S
C2656 C2657 1.524 . S
C2656 C2670 1.377 . S
C2657 C2656 1.524 . S
C2657 C2658 1.397 . S
C2657 C2662 1.363 . S
C2658 H2635 0.950 . S
C2658 C2657 1.397 . S
C2658 C2659 1.334 . S
C2659 H2636 0.950 . S
C2659 C2658 1.334 . S
C2659 C2660 1.287 . S
C2660 C2659 1.287 . S
C2660 C2661 1.524 . S
C2660 H2679 0.913 . S
C2661 H2637 0.950 . S
C2661 C2660 1.524 . S
C2661 C2662 1.415 . S
C2662 H2638 0.950 . S
C2662 C2657 1.363 . S
C2662 C2661 1.415 . S
C2663 H2639 0.951 . S
C2663 C2664 1.366 . S
C2663 C2665 1.388 . S
C2664 C2663 1.366 . S
C2664 C2668 1.385 . S
C2665 H2640 0.951 . S
C2665 C2663 1.388 . S
C2665 C2666 1.366 . S
C2666 C2665 1.366 . S
C2666 C2667 1.414 . S
C2666 C2669 1.499 . S
C2667 H2641 0.950 . S
C2667 C2666 1.414 . S
C2667 C2668 1.374 . S
C2668 H2642 0.950 . S
C2668 C2664 1.385 . S
C2668 C2667 1.374 . S
C2669 C2666 1.499 . S
C2669 C2670 1.373 . S
C2669 C2671 1.389 . S
C2670 H2643 0.950 . S
C2670 C2656 1.377 . S
C2670 C2669 1.373 . S
C2671 C2655 1.377 . S
C2671 C2669 1.389 . S
C2671 C2672 1.524 . S
C2672 C2671 1.524 . S
C2672 C2673 1.397 . S
C2672 C2677 1.363 . S
C2673 H2644 0.950 . S
C2673 C2672 1.397 . S
C2673 C2674 1.334 . S
C2674 H2645 0.950 . S
C2674 C2673 1.334 . S
C2674 C2675 1.287 . S
C2675 C2674 1.287 . S
C2675 C2676 1.524 . S
C2675 H2678 0.999 . S
C2676 H2646 0.950 . S
C2676 C2675 1.524 . S
C2676 C2677 1.415 . S
C2677 H2647 0.950 . S
C2677 C2672 1.363 . S
C2677 C2676 1.415 . S
H2678 C2675 0.999 . S
H2679 C2660 0.913 . S
H2680 C2698 0.951 . S
H2681 C2700 0.951 . S
H2682 C2702 0.950 . S
H2683 C2703 0.950 . S
H2684 C2705 0.950 . S
H2685 C2708 0.950 . S
H2686 C2709 0.950 . S
H2687 C2711 0.950 . S
H2688 C2712 0.947 . S
H2689 C2713 0.951 . S
H2690 C2715 0.951 . S
H2691 C2717 0.950 . S
H2692 C2718 0.950 . S
H2693 C2720 0.950 . S
H2694 C2723 0.950 . S
H2695 C2724 0.950 . S
H2696 C2726 0.950 . S
H2697 C2727 0.950 . S
C2698 H2680 0.951 . S
C2698 C2699 1.366 . S
C2698 C2700 1.388 . S
C2699 C2698 1.366 . S
C2699 C2703 1.385 . S
C2700 H2681 0.951 . S
C2700 C2698 1.388 . S
C2700 C2701 1.366 . S
C2701 C2700 1.366 . S
C2701 C2702 1.414 . S
C2701 C2704 1.499 . S
C2702 H2682 0.950 . S
C2702 C2701 1.414 . S
C2702 C2703 1.374 . S
C2703 H2683 0.950 . S
C2703 C2699 1.385 . S
C2703 C2702 1.374 . S
C2704 C2701 1.499 . S
C2704 C2705 1.373 . S
C2704 C2706 1.389 . S
C2705 H2684 0.950 . S
C2705 C2704 1.373 . S
C2705 C2721 1.377 . S
C2706 C2704 1.389 . S
C2706 C2707 1.524 . S
C2706 C2720 1.377 . S
C2707 C2706 1.524 . S
C2707 C2708 1.397 1_556 S
C2707 C2712 1.361 . S
C2708 H2685 0.950 . S
C2708 C2707 1.397 1_554 S
C2708 C2709 1.334 . S
C2709 H2686 0.950 . S
C2709 C2708 1.334 . S
C2709 C2710 1.287 . S
C2710 C2709 1.287 . S
C2710 C2711 1.524 . S
C2710 H2729 0.913 . S
C2711 H2687 0.950 . S
C2711 C2710 1.524 . S
C2711 C2712 1.420 1_554 S
C2712 H2688 0.947 . S
C2712 C2707 1.361 . S
C2712 C2711 1.420 1_556 S
C2713 H2689 0.951 . S
C2713 C2714 1.366 . S
C2713 C2715 1.388 . S
C2714 C2713 1.366 . S
C2714 C2718 1.385 . S
C2715 H2690 0.951 . S
C2715 C2713 1.388 . S
C2715 C2716 1.366 . S
C2716 C2715 1.366 . S
C2716 C2717 1.414 . S
C2716 C2719 1.499 . S
C2717 H2691 0.950 . S
C2717 C2716 1.414 . S
C2717 C2718 1.374 . S
C2718 H2692 0.950 . S
C2718 C2714 1.385 . S
C2718 C2717 1.374 . S
C2719 C2716 1.499 . S
C2719 C2720 1.373 . S
C2719 C2721 1.389 . S
C2720 H2693 0.950 . S
C2720 C2706 1.377 . S
C2720 C2719 1.373 . S
C2721 C2705 1.377 . S
C2721 C2719 1.389 . S
C2721 C2722 1.524 . S
C2722 C2721 1.524 . S
C2722 C2723 1.397 . S
C2722 C2727 1.363 . S
C2723 H2694 0.950 . S
C2723 C2722 1.397 . S
C2723 C2724 1.334 . S
C2724 H2695 0.950 . S
C2724 C2723 1.334 . S
C2724 C2725 1.287 . S
C2725 C2724 1.287 . S
C2725 C2726 1.524 . S
C2725 H2728 0.999 . S
C2726 H2696 0.950 . S
C2726 C2725 1.524 . S
C2726 C2727 1.415 . S
C2727 H2697 0.950 . S
C2727 C2722 1.363 . S
C2727 C2726 1.415 . S
H2728 C2725 0.999 . S
H2729 C2710 0.913 . S
H2730 C2748 0.951 1_554 S
H2731 C2750 0.951 . S
H2732 C2752 0.950 . S
H2733 C2753 0.950 . S
H2734 C2755 0.950 . S
H2735 C2758 0.950 . S
H2736 C2759 0.950 . S
H2737 C2761 0.950 . S
H2738 C2762 0.954 . S
H2739 C2763 0.951 . S
H2740 C2765 0.951 . S
H2741 C2767 0.950 . S
H2742 C2768 0.950 . S
H2743 C2770 0.950 . S
H2744 C2773 0.950 . S
H2745 C2774 0.950 . S
H2746 C2776 0.950 . S
H2747 C2777 0.950 . S
C2748 H2730 0.951 1_556 S
C2748 C2749 1.366 . S
C2748 C2750 1.388 . S
C2749 C2748 1.366 . S
C2749 C2753 1.385 . S
C2750 H2731 0.951 . S
C2750 C2748 1.388 . S
C2750 C2751 1.366 . S
C2751 C2750 1.366 . S
C2751 C2752 1.414 . S
C2751 C2754 1.499 . S
C2752 H2732 0.950 . S
C2752 C2751 1.414 . S
C2752 C2753 1.374 . S
C2753 H2733 0.950 . S
C2753 C2749 1.385 . S
C2753 C2752 1.374 . S
C2754 C2751 1.499 . S
C2754 C2755 1.373 . S
C2754 C2756 1.389 . S
C2755 H2734 0.950 . S
C2755 C2754 1.373 . S
C2755 C2771 1.377 . S
C2756 C2754 1.389 . S
C2756 C2757 1.524 . S
C2756 C2770 1.377 . S
C2757 C2756 1.524 . S
C2757 C2758 1.397 . S
C2757 C2762 1.363 . S
C2758 H2735 0.950 . S
C2758 C2757 1.397 . S
C2758 C2759 1.334 . S
C2759 H2736 0.950 . S
C2759 C2758 1.334 . S
C2759 C2760 1.287 1_556 S
C2760 C2759 1.287 1_554 S
C2760 C2761 1.524 . S
C2760 H2779 0.913 . S
C2761 H2737 0.950 . S
C2761 C2760 1.524 . S
C2761 C2762 1.415 1_554 S
C2762 H2738 0.954 . S
C2762 C2757 1.363 . S
C2762 C2761 1.415 1_556 S
C2763 H2739 0.951 . S
C2763 C2764 1.366 . S
C2763 C2765 1.388 . S
C2764 C2763 1.366 . S
C2764 C2768 1.385 . S
C2765 H2740 0.951 . S
C2765 C2763 1.388 . S
C2765 C2766 1.366 . S
C2766 C2765 1.366 . S
C2766 C2767 1.414 . S
C2766 C2769 1.499 . S
C2767 H2741 0.950 . S
C2767 C2766 1.414 . S
C2767 C2768 1.374 . S
C2768 H2742 0.950 . S
C2768 C2764 1.385 . S
C2768 C2767 1.374 . S
C2769 C2766 1.499 . S
C2769 C2770 1.373 . S
C2769 C2771 1.389 . S
C2770 H2743 0.950 . S
C2770 C2756 1.377 . S
C2770 C2769 1.373 . S
C2771 C2755 1.377 . S
C2771 C2769 1.389 . S
C2771 C2772 1.524 . S
C2772 C2771 1.524 . S
C2772 C2773 1.397 . S
C2772 C2777 1.363 . S
C2773 H2744 0.950 . S
C2773 C2772 1.397 . S
C2773 C2774 1.334 . S
C2774 H2745 0.950 . S
C2774 C2773 1.334 . S
C2774 C2775 1.287 . S
C2775 C2774 1.287 . S
C2775 C2776 1.524 . S
C2775 H2778 0.999 . S
C2776 H2746 0.950 . S
C2776 C2775 1.524 . S
C2776 C2777 1.415 . S
C2777 H2747 0.950 . S
C2777 C2772 1.363 . S
C2777 C2776 1.415 . S
H2778 C2775 0.999 . S
H2779 C2760 0.913 . S
H2780 C2798 0.951 . S
H2781 C2800 0.951 . S
H2782 C2802 0.950 . S
H2783 C2803 0.950 . S
H2784 C2805 0.950 . S
H2785 C2808 0.950 1_556 S
H2786 C2809 0.950 . S
H2787 C2811 0.950 . S
H2788 C2812 0.950 1_556 S
H2789 C2813 0.951 . S
H2790 C2815 0.951 . S
H2791 C2817 0.950 . S
H2792 C2818 0.950 . S
H2793 C2820 0.950 . S
H2794 C2823 0.950 . S
H2795 C2824 0.950 . S
H2796 C2826 0.950 . S
H2797 C2827 0.950 . S
C2798 H2780 0.951 . S
C2798 C2799 1.366 . S
C2798 C2800 1.388 . S
C2799 C2798 1.366 . S
C2799 C2803 1.385 . S
C2800 H2781 0.951 . S
C2800 C2798 1.388 . S
C2800 C2801 1.366 . S
C2801 C2800 1.366 . S
C2801 C2802 1.414 . S
C2801 C2804 1.499 . S
C2802 H2782 0.950 . S
C2802 C2801 1.414 . S
C2802 C2803 1.374 . S
C2803 H2783 0.950 . S
C2803 C2799 1.385 . S
C2803 C2802 1.374 . S
C2804 C2801 1.499 . S
C2804 C2805 1.373 . S
C2804 C2806 1.389 . S
C2805 H2784 0.950 . S
C2805 C2804 1.373 . S
C2805 C2821 1.377 . S
C2806 C2804 1.389 . S
C2806 C2807 1.524 . S
C2806 C2820 1.377 . S
C2807 C2806 1.524 . S
C2807 C2808 1.397 1_556 S
C2807 C2812 1.363 1_556 S
C2808 H2785 0.950 1_554 S
C2808 C2807 1.397 1_554 S
C2808 C2809 1.334 . S
C2809 H2786 0.950 . S
C2809 C2808 1.334 . S
C2809 C2810 1.287 . S
C2810 C2809 1.287 . S
C2810 C2811 1.524 . S
C2810 H2829 0.913 . S
C2811 H2787 0.950 . S
C2811 C2810 1.524 . S
C2811 C2812 1.415 . S
C2812 H2788 0.950 1_554 S
C2812 C2807 1.363 1_554 S
C2812 C2811 1.415 . S
C2813 H2789 0.951 . S
C2813 C2814 1.366 . S
C2813 C2815 1.388 . S
C2814 C2813 1.366 . S
C2814 C2818 1.385 . S
C2815 H2790 0.951 . S
C2815 C2813 1.388 . S
C2815 C2816 1.366 . S
C2816 C2815 1.366 . S
C2816 C2817 1.414 . S
C2816 C2819 1.499 . S
C2817 H2791 0.950 . S
C2817 C2816 1.414 . S
C2817 C2818 1.374 . S
C2818 H2792 0.950 . S
C2818 C2814 1.385 . S
C2818 C2817 1.374 . S
C2819 C2816 1.499 . S
C2819 C2820 1.373 . S
C2819 C2821 1.389 . S
C2820 H2793 0.950 . S
C2820 C2806 1.377 . S
C2820 C2819 1.373 . S
C2821 C2805 1.377 . S
C2821 C2819 1.389 . S
C2821 C2822 1.524 . S
C2822 C2821 1.524 . S
C2822 C2823 1.397 . S
C2822 C2827 1.363 . S
C2823 H2794 0.950 . S
C2823 C2822 1.397 . S
C2823 C2824 1.334 . S
C2824 H2795 0.950 . S
C2824 C2823 1.334 . S
C2824 C2825 1.287 . S
C2825 C2824 1.287 . S
C2825 C2826 1.524 . S
C2825 H2828 0.999 . S
C2826 H2796 0.950 . S
C2826 C2825 1.524 . S
C2826 C2827 1.415 . S
C2827 H2797 0.950 . S
C2827 C2822 1.363 . S
C2827 C2826 1.415 . S
H2828 C2825 0.999 . S
H2829 C2810 0.913 . S
H2830 C2848 0.951 . S
H2831 C2850 0.951 . S
H2832 C2852 0.950 . S
H2833 C2853 0.950 . S
H2834 C2855 0.950 . S
H2835 C2858 0.950 . S
H2836 C2859 0.950 . S
H2837 C2861 0.950 . S
H2838 C2862 0.950 . S
H2839 C2863 0.951 . S
H2840 C2865 0.951 . S
H2841 C2867 0.950 . S
H2842 C2868 0.950 . S
H2843 C2870 0.950 . S
H2844 C2873 0.950 . S
H2845 C2874 0.963 . S
H2846 C2876 0.950 . S
H2847 C2877 0.950 . S
C2848 H2830 0.951 . S
C2848 C2849 1.366 . S
C2848 C2850 1.388 . S
C2849 C2848 1.366 . S
C2849 C2853 1.385 . S
C2850 H2831 0.951 . S
C2850 C2848 1.388 . S
C2850 C2851 1.366 . S
C2851 C2850 1.366 . S
C2851 C2852 1.414 . S
C2851 C2854 1.499 . S
C2852 H2832 0.950 . S
C2852 C2851 1.414 . S
C2852 C2853 1.374 . S
C2853 H2833 0.950 . S
C2853 C2849 1.385 . S
C2853 C2852 1.374 . S
C2854 C2851 1.499 . S
C2854 C2855 1.373 . S
C2854 C2856 1.389 . S
C2855 H2834 0.950 . S
C2855 C2854 1.373 . S
C2855 C2871 1.377 . S
C2856 C2854 1.389 . S
C2856 C2857 1.524 . S
C2856 C2870 1.377 . S
C2857 C2856 1.524 . S
C2857 C2858 1.397 . S
C2857 C2862 1.363 . S
C2858 H2835 0.950 . S
C2858 C2857 1.397 . S
C2858 C2859 1.334 . S
C2859 H2836 0.950 . S
C2859 C2858 1.334 . S
C2859 C2860 1.287 . S
C2860 C2859 1.287 . S
C2860 C2861 1.524 . S
C2860 H2879 0.913 . S
C2861 H2837 0.950 . S
C2861 C2860 1.524 . S
C2861 C2862 1.415 . S
C2862 H2838 0.950 . S
C2862 C2857 1.363 . S
C2862 C2861 1.415 . S
C2863 H2839 0.951 . S
C2863 C2864 1.366 . S
C2863 C2865 1.388 . S
C2864 C2863 1.366 . S
C2864 C2868 1.385 . S
C2865 H2840 0.951 . S
C2865 C2863 1.388 . S
C2865 C2866 1.366 . S
C2866 C2865 1.366 . S
C2866 C2867 1.414 . S
C2866 C2869 1.499 . S
C2867 H2841 0.950 . S
C2867 C2866 1.414 . S
C2867 C2868 1.374 . S
C2868 H2842 0.950 . S
C2868 C2864 1.385 . S
C2868 C2867 1.374 . S
C2869 C2866 1.499 . S
C2869 C2870 1.373 . S
C2869 C2871 1.389 . S
C2870 H2843 0.950 . S
C2870 C2856 1.377 . S
C2870 C2869 1.373 . S
C2871 C2855 1.377 . S
C2871 C2869 1.389 . S
C2871 C2872 1.524 . S
C2872 C2871 1.524 . S
C2872 C2873 1.397 . S
C2872 C2877 1.363 . S
C2873 H2844 0.950 . S
C2873 C2872 1.397 . S
C2873 C2874 1.334 . S
C2874 H2845 0.963 . S
C2874 C2873 1.334 . S
C2874 C2875 1.286 1_556 S
C2875 C2874 1.286 1_554 S
C2875 C2876 1.523 1_554 S
C2875 H2878 1.000 . S
C2876 H2846 0.950 . S
C2876 C2875 1.523 1_556 S
C2876 C2877 1.415 . S
C2877 H2847 0.950 . S
C2877 C2872 1.363 . S
C2877 C2876 1.415 . S
H2878 C2875 1.000 . S
H2879 C2860 0.913 . S
H2880 C2898 0.951 . S
H2881 C2900 0.951 . S
H2882 C2902 0.950 . S
H2883 C2903 0.950 . S
H2884 C2905 0.950 . S
H2885 C2908 0.950 . S
H2886 C2909 0.950 . S
H2887 C2911 0.950 . S
H2888 C2912 0.950 . S
H2889 C2913 0.951 . S
H2890 C2915 0.951 . S
H2891 C2917 0.950 . S
H2892 C2918 0.950 . S
H2893 C2920 0.950 . S
H2894 C2923 0.950 . S
H2895 C2924 0.950 . S
H2896 C2926 0.950 . S
H2897 C2927 0.950 . S
C2898 H2880 0.951 . S
C2898 C2899 1.366 . S
C2898 C2900 1.388 . S
C2899 C2898 1.366 . S
C2899 C2903 1.385 . S
C2900 H2881 0.951 . S
C2900 C2898 1.388 . S
C2900 C2901 1.366 . S
C2901 C2900 1.366 . S
C2901 C2902 1.414 . S
C2901 C2904 1.499 . S
C2902 H2882 0.950 . S
C2902 C2901 1.414 . S
C2902 C2903 1.374 . S
C2903 H2883 0.950 . S
C2903 C2899 1.385 . S
C2903 C2902 1.374 . S
C2904 C2901 1.499 . S
C2904 C2905 1.373 . S
C2904 C2906 1.389 . S
C2905 H2884 0.950 . S
C2905 C2904 1.373 . S
C2905 C2921 1.377 . S
C2906 C2904 1.389 . S
C2906 C2907 1.524 . S
C2906 C2920 1.377 . S
C2907 C2906 1.524 . S
C2907 C2908 1.397 . S
C2907 C2912 1.363 . S
C2908 H2885 0.950 . S
C2908 C2907 1.397 . S
C2908 C2909 1.334 . S
C2909 H2886 0.950 . S
C2909 C2908 1.334 . S
C2909 C2910 1.287 . S
C2910 C2909 1.287 . S
C2910 C2911 1.524 . S
C2910 H2929 0.913 . S
C2911 H2887 0.950 . S
C2911 C2910 1.524 . S
C2911 C2912 1.415 . S
C2912 H2888 0.950 . S
C2912 C2907 1.363 . S
C2912 C2911 1.415 . S
C2913 H2889 0.951 . S
C2913 C2914 1.366 . S
C2913 C2915 1.388 . S
C2914 C2913 1.366 . S
C2914 C2918 1.385 . S
C2915 H2890 0.951 . S
C2915 C2913 1.388 . S
C2915 C2916 1.366 . S
C2916 C2915 1.366 . S
C2916 C2917 1.414 . S
C2916 C2919 1.499 . S
C2917 H2891 0.950 . S
C2917 C2916 1.414 . S
C2917 C2918 1.374 . S
C2918 H2892 0.950 . S
C2918 C2914 1.385 . S
C2918 C2917 1.374 . S
C2919 C2916 1.499 . S
C2919 C2920 1.373 . S
C2919 C2921 1.389 . S
C2920 H2893 0.950 . S
C2920 C2906 1.377 . S
C2920 C2919 1.373 . S
C2921 C2905 1.377 . S
C2921 C2919 1.389 . S
C2921 C2922 1.524 . S
C2922 C2921 1.524 . S
C2922 C2923 1.397 . S
C2922 C2927 1.363 . S
C2923 H2894 0.950 . S
C2923 C2922 1.397 . S
C2923 C2924 1.334 . S
C2924 H2895 0.950 . S
C2924 C2923 1.334 . S
C2924 C2925 1.287 . S
C2925 C2924 1.287 . S
C2925 C2926 1.524 . S
C2925 H2928 0.999 . S
C2926 H2896 0.950 . S
C2926 C2925 1.524 . S
C2926 C2927 1.415 . S
C2927 H2897 0.950 . S
C2927 C2922 1.363 . S
C2927 C2926 1.415 . S
H2928 C2925 0.999 . S
H2929 C2910 0.913 . S
H2930 C2948 0.951 . S
H2931 C2950 0.951 . S
H2932 C2952 0.950 . S
H2933 C2953 0.950 . S
H2934 C2955 0.950 . S
H2935 C2958 0.950 . S
H2936 C2959 0.950 . S
H2937 C2961 0.950 . S
H2938 C2962 0.950 . S
H2939 C2963 0.951 . S
H2940 C2965 0.951 . S
H2941 C2967 0.950 . S
H2942 C2968 0.950 . S
H2943 C2970 0.950 . S
H2944 C2973 0.950 . S
H2945 C2974 0.950 . S
H2946 C2976 0.950 . S
H2947 C2977 0.950 . S
C2948 H2930 0.951 . S
C2948 C2949 1.366 . S
C2948 C2950 1.388 . S
C2949 C2948 1.366 . S
C2949 C2953 1.385 . S
C2950 H2931 0.951 . S
C2950 C2948 1.388 . S
C2950 C2951 1.366 . S
C2951 C2950 1.366 . S
C2951 C2952 1.414 . S
C2951 C2954 1.499 . S
C2952 H2932 0.950 . S
C2952 C2951 1.414 . S
C2952 C2953 1.374 . S
C2953 H2933 0.950 . S
C2953 C2949 1.385 . S
C2953 C2952 1.374 . S
C2954 C2951 1.499 . S
C2954 C2955 1.373 . S
C2954 C2956 1.389 . S
C2955 H2934 0.950 . S
C2955 C2954 1.373 . S
C2955 C2971 1.377 . S
C2956 C2954 1.389 . S
C2956 C2957 1.524 . S
C2956 C2970 1.377 . S
C2957 C2956 1.524 . S
C2957 C2958 1.397 . S
C2957 C2962 1.363 . S
C2958 H2935 0.950 . S
C2958 C2957 1.397 . S
C2958 C2959 1.334 . S
C2959 H2936 0.950 . S
C2959 C2958 1.334 . S
C2959 C2960 1.287 . S
C2960 C2959 1.287 . S
C2960 C2961 1.524 . S
C2960 H2979 0.913 . S
C2961 H2937 0.950 . S
C2961 C2960 1.524 . S
C2961 C2962 1.415 . S
C2962 H2938 0.950 . S
C2962 C2957 1.363 . S
C2962 C2961 1.415 . S
C2963 H2939 0.951 . S
C2963 C2964 1.366 . S
C2963 C2965 1.388 . S
C2964 C2963 1.366 . S
C2964 C2968 1.385 . S
C2965 H2940 0.951 . S
C2965 C2963 1.388 . S
C2965 C2966 1.366 . S
C2966 C2965 1.366 . S
C2966 C2967 1.414 . S
C2966 C2969 1.499 . S
C2967 H2941 0.950 . S
C2967 C2966 1.414 . S
C2967 C2968 1.374 . S
C2968 H2942 0.950 . S
C2968 C2964 1.385 . S
C2968 C2967 1.374 . S
C2969 C2966 1.499 . S
C2969 C2970 1.373 . S
C2969 C2971 1.389 . S
C2970 H2943 0.950 . S
C2970 C2956 1.377 . S
C2970 C2969 1.373 . S
C2971 C2955 1.377 . S
C2971 C2969 1.389 . S
C2971 C2972 1.524 . S
C2972 C2971 1.524 . S
C2972 C2973 1.397 . S
C2972 C2977 1.363 . S
C2973 H2944 0.950 . S
C2973 C2972 1.397 . S
C2973 C2974 1.334 . S
C2974 H2945 0.950 . S
C2974 C2973 1.334 . S
C2974 C2975 1.287 . S
C2975 C2974 1.287 . S
C2975 C2976 1.524 . S
C2975 H2978 0.999 . S
C2976 H2946 0.950 . S
C2976 C2975 1.524 . S
C2976 C2977 1.415 . S
C2977 H2947 0.950 . S
C2977 C2972 1.363 . S
C2977 C2976 1.415 . S
H2978 C2975 0.999 . S
H2979 C2960 0.913 . S
H2980 C2998 0.951 . S
H2981 C3000 0.951 . S
H2982 C3002 0.950 . S
H2983 C3003 0.950 . S
H2984 C3005 0.950 . S
H2985 C3008 0.950 . S
H2986 C3009 0.950 . S
H2987 C3011 0.950 . S
H2988 C3012 0.950 . S
H2989 C3013 0.951 . S
H2990 C3015 0.951 . S
H2991 C3017 0.950 . S
H2992 C3018 0.950 . S
H2993 C3020 0.950 . S
H2994 C3023 0.950 . S
H2995 C3024 0.950 . S
H2996 C3026 0.950 . S
H2997 C3027 0.950 . S
C2998 H2980 0.951 . S
C2998 C2999 1.366 . S
C2998 C3000 1.388 . S
C2999 C2998 1.366 . S
C2999 C3003 1.385 . S
C3000 H2981 0.951 . S
C3000 C2998 1.388 . S
C3000 C3001 1.366 . S
C3001 C3000 1.366 . S
C3001 C3002 1.414 . S
C3001 C3004 1.499 . S
C3002 H2982 0.950 . S
C3002 C3001 1.414 . S
C3002 C3003 1.374 . S
C3003 H2983 0.950 . S
C3003 C2999 1.385 . S
C3003 C3002 1.374 . S
C3004 C3001 1.499 . S
C3004 C3005 1.373 . S
C3004 C3006 1.389 . S
C3005 H2984 0.950 . S
C3005 C3004 1.373 . S
C3005 C3021 1.377 . S
C3006 C3004 1.389 . S
C3006 C3007 1.524 . S
C3006 C3020 1.377 . S
C3007 C3006 1.524 . S
C3007 C3008 1.397 . S
C3007 C3012 1.363 . S
C3008 H2985 0.950 . S
C3008 C3007 1.397 . S
C3008 C3009 1.334 . S
C3009 H2986 0.950 . S
C3009 C3008 1.334 . S
C3009 C3010 1.287 . S
C3010 C3009 1.287 . S
C3010 C3011 1.524 . S
C3010 H3029 0.913 . S
C3011 H2987 0.950 . S
C3011 C3010 1.524 . S
C3011 C3012 1.415 . S
C3012 H2988 0.950 . S
C3012 C3007 1.363 . S
C3012 C3011 1.415 . S
C3013 H2989 0.951 . S
C3013 C3014 1.366 . S
C3013 C3015 1.388 . S
C3014 C3013 1.366 . S
C3014 C3018 1.385 . S
C3015 H2990 0.951 . S
C3015 C3013 1.388 . S
C3015 C3016 1.366 . S
C3016 C3015 1.366 . S
C3016 C3017 1.414 . S
C3016 C3019 1.499 . S
C3017 H2991 0.950 . S
C3017 C3016 1.414 . S
C3017 C3018 1.374 . S
C3018 H2992 0.950 . S
C3018 C3014 1.385 . S
C3018 C3017 1.374 . S
C3019 C3016 1.499 . S
C3019 C3020 1.373 . S
C3019 C3021 1.389 . S
C3020 H2993 0.950 . S
C3020 C3006 1.377 . S
C3020 C3019 1.373 . S
C3021 C3005 1.377 . S
C3021 C3019 1.389 . S
C3021 C3022 1.524 . S
C3022 C3021 1.524 . S
C3022 C3023 1.397 . S
C3022 C3027 1.363 . S
C3023 H2994 0.950 . S
C3023 C3022 1.397 . S
C3023 C3024 1.334 . S
C3024 H2995 0.950 . S
C3024 C3023 1.334 . S
C3024 C3025 1.287 . S
C3025 C3024 1.287 . S
C3025 C3026 1.524 . S
C3025 H3028 0.999 . S
C3026 H2996 0.950 . S
C3026 C3025 1.524 . S
C3026 C3027 1.415 . S
C3027 H2997 0.950 . S
C3027 C3022 1.363 . S
C3027 C3026 1.415 . S
H3028 C3025 0.999 . S
H3029 C3010 0.913 . S
H3030 C3048 0.951 . S
H3031 C3050 0.951 . S
H3032 C3052 0.950 . S
H3033 C3053 0.950 . S
H3034 C3055 0.950 . S
H3035 C3058 0.950 . S
H3036 C3059 0.950 . S
H3037 C3061 0.950 . S
H3038 C3062 0.950 . S
H3039 C3063 0.951 . S
H3040 C3065 0.951 . S
H3041 C3067 0.950 . S
H3042 C3068 0.950 . S
H3043 C3070 0.950 . S
H3044 C3073 0.950 . S
H3045 C3074 0.950 . S
H3046 C3076 0.950 . S
H3047 C3077 0.950 . S
C3048 H3030 0.951 . S
C3048 C3049 1.366 . S
C3048 C3050 1.388 . S
C3049 C3048 1.366 . S
C3049 C3053 1.385 . S
C3050 H3031 0.951 . S
C3050 C3048 1.388 . S
C3050 C3051 1.366 . S
C3051 C3050 1.366 . S
C3051 C3052 1.414 . S
C3051 C3054 1.499 . S
C3052 H3032 0.950 . S
C3052 C3051 1.414 . S
C3052 C3053 1.374 . S
C3053 H3033 0.950 . S
C3053 C3049 1.385 . S
C3053 C3052 1.374 . S
C3054 C3051 1.499 . S
C3054 C3055 1.373 . S
C3054 C3056 1.389 . S
C3055 H3034 0.950 . S
C3055 C3054 1.373 . S
C3055 C3071 1.377 . S
C3056 C3054 1.389 . S
C3056 C3057 1.524 . S
C3056 C3070 1.377 . S
C3057 C3056 1.524 . S
C3057 C3058 1.397 . S
C3057 C3062 1.363 . S
C3058 H3035 0.950 . S
C3058 C3057 1.397 . S
C3058 C3059 1.334 . S
C3059 H3036 0.950 . S
C3059 C3058 1.334 . S
C3059 C3060 1.287 . S
C3060 C3059 1.287 . S
C3060 C3061 1.524 . S
C3060 H3079 0.913 . S
C3061 H3037 0.950 . S
C3061 C3060 1.524 . S
C3061 C3062 1.415 . S
C3062 H3038 0.950 . S
C3062 C3057 1.363 . S
C3062 C3061 1.415 . S
C3063 H3039 0.951 . S
C3063 C3064 1.366 . S
C3063 C3065 1.388 . S
C3064 C3063 1.366 . S
C3064 C3068 1.385 . S
C3065 H3040 0.951 . S
C3065 C3063 1.388 . S
C3065 C3066 1.366 . S
C3066 C3065 1.366 . S
C3066 C3067 1.414 . S
C3066 C3069 1.499 . S
C3067 H3041 0.950 . S
C3067 C3066 1.414 . S
C3067 C3068 1.374 . S
C3068 H3042 0.950 . S
C3068 C3064 1.385 . S
C3068 C3067 1.374 . S
C3069 C3066 1.499 . S
C3069 C3070 1.373 . S
C3069 C3071 1.389 . S
C3070 H3043 0.950 . S
C3070 C3056 1.377 . S
C3070 C3069 1.373 . S
C3071 C3055 1.377 . S
C3071 C3069 1.389 . S
C3071 C3072 1.524 . S
C3072 C3071 1.524 . S
C3072 C3073 1.397 . S
C3072 C3077 1.363 . S
C3073 H3044 0.950 . S
C3073 C3072 1.397 . S
C3073 C3074 1.334 . S
C3074 H3045 0.950 . S
C3074 C3073 1.334 . S
C3074 C3075 1.287 . S
C3075 C3074 1.287 . S
C3075 C3076 1.524 . S
C3075 H3078 0.999 . S
C3076 H3046 0.950 . S
C3076 C3075 1.524 . S
C3076 C3077 1.415 . S
C3077 H3047 0.950 . S
C3077 C3072 1.363 . S
C3077 C3076 1.415 . S
H3078 C3075 0.999 . S
H3079 C3060 0.913 . S
H3080 C3098 0.951 . S
H3081 C3100 0.951 . S
H3082 C3102 0.950 . S
H3083 C3103 0.950 . S
H3084 C3105 0.950 . S
H3085 C3108 0.950 . S
H3086 C3109 0.950 . S
H3087 C3111 0.950 . S
H3088 C3112 0.950 . S
H3089 C3113 0.951 . S
H3090 C3115 0.951 . S
H3091 C3117 0.950 . S
H3092 C3118 0.950 . S
H3093 C3120 0.950 . S
H3094 C3123 0.950 . S
H3095 C3124 0.950 . S
H3096 C3126 0.950 . S
H3097 C3127 0.950 . S
C3098 H3080 0.951 . S
C3098 C3099 1.366 . S
C3098 C3100 1.388 . S
C3099 C3098 1.366 . S
C3099 C3103 1.385 . S
C3100 H3081 0.951 . S
C3100 C3098 1.388 . S
C3100 C3101 1.366 . S
C3101 C3100 1.366 . S
C3101 C3102 1.414 . S
C3101 C3104 1.499 . S
C3102 H3082 0.950 . S
C3102 C3101 1.414 . S
C3102 C3103 1.374 . S
C3103 H3083 0.950 . S
C3103 C3099 1.385 . S
C3103 C3102 1.374 . S
C3104 C3101 1.499 . S
C3104 C3105 1.373 . S
C3104 C3106 1.389 . S
C3105 H3084 0.950 . S
C3105 C3104 1.373 . S
C3105 C3121 1.377 . S
C3106 C3104 1.389 . S
C3106 C3107 1.524 . S
C3106 C3120 1.377 . S
C3107 C3106 1.524 . S
C3107 C3108 1.397 . S
C3107 C3112 1.363 . S
C3108 H3085 0.950 . S
C3108 C3107 1.397 . S
C3108 C3109 1.334 . S
C3109 H3086 0.950 . S
C3109 C3108 1.334 . S
C3109 C3110 1.287 . S
C3110 C3109 1.287 . S
C3110 C3111 1.524 . S
C3110 H3129 0.913 . S
C3111 H3087 0.950 . S
C3111 C3110 1.524 . S
C3111 C3112 1.415 . S
C3112 H3088 0.950 . S
C3112 C3107 1.363 . S
C3112 C3111 1.415 . S
C3113 H3089 0.951 . S
C3113 C3114 1.366 . S
C3113 C3115 1.388 . S
C3114 C3113 1.366 . S
C3114 C3118 1.385 . S
C3115 H3090 0.951 . S
C3115 C3113 1.388 . S
C3115 C3116 1.366 . S
C3116 C3115 1.366 . S
C3116 C3117 1.414 . S
C3116 C3119 1.499 . S
C3117 H3091 0.950 . S
C3117 C3116 1.414 . S
C3117 C3118 1.374 . S
C3118 H3092 0.950 . S
C3118 C3114 1.385 . S
C3118 C3117 1.374 . S
C3119 C3116 1.499 . S
C3119 C3120 1.373 . S
C3119 C3121 1.389 . S
C3120 H3093 0.950 . S
C3120 C3106 1.377 . S
C3120 C3119 1.373 . S
C3121 C3105 1.377 . S
C3121 C3119 1.389 . S
C3121 C3122 1.524 . S
C3122 C3121 1.524 . S
C3122 C3123 1.397 . S
C3122 C3127 1.363 . S
C3123 H3094 0.950 . S
C3123 C3122 1.397 . S
C3123 C3124 1.334 . S
C3124 H3095 0.950 . S
C3124 C3123 1.334 . S
C3124 C3125 1.287 . S
C3125 C3124 1.287 . S
C3125 C3126 1.524 . S
C3125 H3128 0.999 . S
C3126 H3096 0.950 . S
C3126 C3125 1.524 . S
C3126 C3127 1.415 . S
C3127 H3097 0.950 . S
C3127 C3122 1.363 . S
C3127 C3126 1.415 . S
H3128 C3125 0.999 . S
H3129 C3110 0.913 . S
H3130 C3148 0.951 . S
H3131 C3150 0.951 . S
H3132 C3152 0.950 . S
H3133 C3153 0.950 . S
H3134 C3155 0.950 . S
H3135 C3158 0.950 . S
H3136 C3159 0.950 . S
H3137 C3161 0.950 . S
H3138 C3162 0.950 . S
H3139 C3163 0.951 . S
H3140 C3165 0.951 . S
H3141 C3167 0.950 . S
H3142 C3168 0.950 . S
H3143 C3170 0.950 . S
H3144 C3173 0.950 . S
H3145 C3174 0.950 . S
H3146 C3176 0.950 . S
H3147 C3177 0.950 . S
C3148 H3130 0.951 . S
C3148 C3149 1.366 . S
C3148 C3150 1.388 . S
C3149 C3148 1.366 . S
C3149 C3153 1.385 . S
C3150 H3131 0.951 . S
C3150 C3148 1.388 . S
C3150 C3151 1.366 . S
C3151 C3150 1.366 . S
C3151 C3152 1.414 . S
C3151 C3154 1.499 . S
C3152 H3132 0.950 . S
C3152 C3151 1.414 . S
C3152 C3153 1.374 . S
C3153 H3133 0.950 . S
C3153 C3149 1.385 . S
C3153 C3152 1.374 . S
C3154 C3151 1.499 . S
C3154 C3155 1.373 . S
C3154 C3156 1.389 . S
C3155 H3134 0.950 . S
C3155 C3154 1.373 . S
C3155 C3171 1.377 . S
C3156 C3154 1.389 . S
C3156 C3157 1.524 . S
C3156 C3170 1.377 . S
C3157 C3156 1.524 . S
C3157 C3158 1.397 . S
C3157 C3162 1.363 . S
C3158 H3135 0.950 . S
C3158 C3157 1.397 . S
C3158 C3159 1.334 . S
C3159 H3136 0.950 . S
C3159 C3158 1.334 . S
C3159 C3160 1.287 . S
C3160 C3159 1.287 . S
C3160 C3161 1.524 . S
C3160 H3179 0.913 . S
C3161 H3137 0.950 . S
C3161 C3160 1.524 . S
C3161 C3162 1.415 . S
C3162 H3138 0.950 . S
C3162 C3157 1.363 . S
C3162 C3161 1.415 . S
C3163 H3139 0.951 . S
C3163 C3164 1.366 . S
C3163 C3165 1.388 . S
C3164 C3163 1.366 . S
C3164 C3168 1.385 . S
C3165 H3140 0.951 . S
C3165 C3163 1.388 . S
C3165 C3166 1.366 . S
C3166 C3165 1.366 . S
C3166 C3167 1.414 . S
C3166 C3169 1.499 . S
C3167 H3141 0.950 . S
C3167 C3166 1.414 . S
C3167 C3168 1.374 . S
C3168 H3142 0.950 . S
C3168 C3164 1.385 . S
C3168 C3167 1.374 . S
C3169 C3166 1.499 . S
C3169 C3170 1.373 . S
C3169 C3171 1.389 . S
C3170 H3143 0.950 . S
C3170 C3156 1.377 . S
C3170 C3169 1.373 . S
C3171 C3155 1.377 . S
C3171 C3169 1.389 . S
C3171 C3172 1.524 . S
C3172 C3171 1.524 . S
C3172 C3173 1.397 . S
C3172 C3177 1.363 . S
C3173 H3144 0.950 . S
C3173 C3172 1.397 . S
C3173 C3174 1.334 . S
C3174 H3145 0.950 . S
C3174 C3173 1.334 . S
C3174 C3175 1.287 . S
C3175 C3174 1.287 . S
C3175 C3176 1.524 . S
C3175 H3178 0.999 . S
C3176 H3146 0.950 . S
C3176 C3175 1.524 . S
C3176 C3177 1.415 . S
C3177 H3147 0.950 . S
C3177 C3172 1.363 . S
C3177 C3176 1.415 . S
H3178 C3175 0.999 . S
H3179 C3160 0.913 . S
H3180 C3198 0.951 . S
H3181 C3200 0.951 . S
H3182 C3202 0.950 1_655 S
H3183 C3203 0.950 1_655 S
H3184 C3205 0.950 . S
H3185 C3208 0.950 . S
H3186 C3209 0.950 . S
H3187 C3211 0.950 . S
H3188 C3212 0.950 . S
H3189 C3213 0.951 . S
H3190 C3215 0.951 . S
H3191 C3217 0.950 . S
H3192 C3218 0.950 . S
H3193 C3220 0.950 . S
H3194 C3223 0.950 . S
H3195 C3224 0.950 . S
H3196 C3226 0.950 . S
H3197 C3227 0.950 . S
C3198 H3180 0.951 . S
C3198 C3199 1.366 . S
C3198 C3200 1.388 . S
C3199 C3198 1.366 . S
C3199 C3203 1.385 . S
C3200 H3181 0.951 . S
C3200 C3198 1.388 . S
C3200 C3201 1.366 . S
C3201 C3200 1.366 . S
C3201 C3202 1.414 . S
C3201 C3204 1.499 . S
C3202 H3182 0.950 1_455 S
C3202 C3201 1.414 . S
C3202 C3203 1.374 . S
C3203 H3183 0.950 1_455 S
C3203 C3199 1.385 . S
C3203 C3202 1.374 . S
C3204 C3201 1.499 . S
C3204 C3205 1.373 1_455 S
C3204 C3206 1.389 . S
C3205 H3184 0.950 . S
C3205 C3204 1.373 1_655 S
C3205 C3221 1.377 . S
C3206 C3204 1.389 . S
C3206 C3207 1.524 . S
C3206 C3220 1.377 . S
C3207 C3206 1.524 . S
C3207 C3208 1.397 . S
C3207 C3212 1.363 . S
C3208 H3185 0.950 . S
C3208 C3207 1.397 . S
C3208 C3209 1.334 . S
C3209 H3186 0.950 . S
C3209 C3208 1.334 . S
C3209 C3210 1.287 . S
C3210 C3209 1.287 . S
C3210 C3211 1.524 . S
C3210 H3229 0.913 . S
C3211 H3187 0.950 . S
C3211 C3210 1.524 . S
C3211 C3212 1.415 . S
C3212 H3188 0.950 . S
C3212 C3207 1.363 . S
C3212 C3211 1.415 . S
C3213 H3189 0.951 . S
C3213 C3214 1.366 1_655 S
C3213 C3215 1.388 . S
C3214 C3213 1.366 1_455 S
C3214 C3218 1.385 . S
C3215 H3190 0.951 . S
C3215 C3213 1.388 . S
C3215 C3216 1.366 1_655 S
C3216 C3215 1.366 1_455 S
C3216 C3217 1.414 . S
C3216 C3219 1.499 . S
C3217 H3191 0.950 . S
C3217 C3216 1.414 . S
C3217 C3218 1.374 . S
C3218 H3192 0.950 . S
C3218 C3214 1.385 . S
C3218 C3217 1.374 . S
C3219 C3216 1.499 . S
C3219 C3220 1.373 . S
C3219 C3221 1.389 1_455 S
C3220 H3193 0.950 . S
C3220 C3206 1.377 . S
C3220 C3219 1.373 . S
C3221 C3205 1.377 . S
C3221 C3219 1.389 1_655 S
C3221 C3222 1.524 . S
C3222 C3221 1.524 . S
C3222 C3223 1.397 . S
C3222 C3227 1.363 . S
C3223 H3194 0.950 . S
C3223 C3222 1.397 . S
C3223 C3224 1.334 . S
C3224 H3195 0.950 . S
C3224 C3223 1.334 . S
C3224 C3225 1.287 . S
C3225 C3224 1.287 . S
C3225 C3226 1.524 . S
C3225 H3228 0.999 . S
C3226 H3196 0.950 . S
C3226 C3225 1.524 . S
C3226 C3227 1.415 . S
C3227 H3197 0.950 . S
C3227 C3222 1.363 . S
C3227 C3226 1.415 . S
H3228 C3225 0.999 . S
H3229 C3210 0.913 . S
H3230 C3248 0.951 . S
H3231 C3250 0.951 . S
H3232 C3252 0.950 . S
H3233 C3253 0.950 . S
H3234 C3255 0.950 . S
H3235 C3258 0.950 . S
H3236 C3259 0.950 . S
H3237 C3261 0.950 . S
H3238 C3262 0.950 . S
H3239 C3263 0.951 . S
H3240 C3265 0.951 . S
H3241 C3267 0.950 . S
H3242 C3268 0.950 . S
H3243 C3270 0.950 . S
H3244 C3273 0.950 . S
H3245 C3274 0.950 . S
H3246 C3276 0.950 . S
H3247 C3277 0.950 . S
C3248 H3230 0.951 . S
C3248 C3249 1.366 . S
C3248 C3250 1.388 . S
C3249 C3248 1.366 . S
C3249 C3253 1.385 . S
C3250 H3231 0.951 . S
C3250 C3248 1.388 . S
C3250 C3251 1.366 . S
C3251 C3250 1.366 . S
C3251 C3252 1.414 . S
C3251 C3254 1.499 . S
C3252 H3232 0.950 . S
C3252 C3251 1.414 . S
C3252 C3253 1.374 . S
C3253 H3233 0.950 . S
C3253 C3249 1.385 . S
C3253 C3252 1.374 . S
C3254 C3251 1.499 . S
C3254 C3255 1.373 . S
C3254 C3256 1.389 . S
C3255 H3234 0.950 . S
C3255 C3254 1.373 . S
C3255 C3271 1.377 . S
C3256 C3254 1.389 . S
C3256 C3257 1.524 . S
C3256 C3270 1.377 . S
C3257 C3256 1.524 . S
C3257 C3258 1.397 . S
C3257 C3262 1.363 . S
C3258 H3235 0.950 . S
C3258 C3257 1.397 . S
C3258 C3259 1.334 . S
C3259 H3236 0.950 . S
C3259 C3258 1.334 . S
C3259 C3260 1.287 . S
C3260 C3259 1.287 . S
C3260 C3261 1.524 . S
C3260 H3279 0.913 . S
C3261 H3237 0.950 . S
C3261 C3260 1.524 . S
C3261 C3262 1.415 . S
C3262 H3238 0.950 . S
C3262 C3257 1.363 . S
C3262 C3261 1.415 . S
C3263 H3239 0.951 . S
C3263 C3264 1.366 . S
C3263 C3265 1.388 . S
C3264 C3263 1.366 . S
C3264 C3268 1.385 . S
C3265 H3240 0.951 . S
C3265 C3263 1.388 . S
C3265 C3266 1.366 . S
C3266 C3265 1.366 . S
C3266 C3267 1.414 . S
C3266 C3269 1.499 . S
C3267 H3241 0.950 . S
C3267 C3266 1.414 . S
C3267 C3268 1.374 . S
C3268 H3242 0.950 . S
C3268 C3264 1.385 . S
C3268 C3267 1.374 . S
C3269 C3266 1.499 . S
C3269 C3270 1.373 . S
C3269 C3271 1.389 . S
C3270 H3243 0.950 . S
C3270 C3256 1.377 . S
C3270 C3269 1.373 . S
C3271 C3255 1.377 . S
C3271 C3269 1.389 . S
C3271 C3272 1.524 . S
C3272 C3271 1.524 . S
C3272 C3273 1.397 . S
C3272 C3277 1.363 . S
C3273 H3244 0.950 . S
C3273 C3272 1.397 . S
C3273 C3274 1.334 . S
C3274 H3245 0.950 . S
C3274 C3273 1.334 . S
C3274 C3275 1.287 . S
C3275 C3274 1.287 . S
C3275 C3276 1.524 . S
C3275 H3278 0.999 . S
C3276 H3246 0.950 . S
C3276 C3275 1.524 . S
C3276 C3277 1.415 . S
C3277 H3247 0.950 . S
C3277 C3272 1.363 . S
C3277 C3276 1.415 . S
H3278 C3275 0.999 . S
H3279 C3260 0.913 . S
H3280 C3298 0.951 . S
H3281 C3300 0.951 . S
H3282 C3302 0.950 . S
H3283 C3303 0.950 . S
H3284 C3305 0.950 . S
H3285 C3308 0.950 . S
H3286 C3309 0.950 . S
H3287 C3311 0.950 . S
H3288 C3312 0.950 . S
H3289 C3313 0.951 . S
H3290 C3315 0.951 . S
H3291 C3317 0.950 . S
H3292 C3318 0.950 . S
H3293 C3320 0.950 . S
H3294 C3323 0.950 . S
H3295 C3324 0.950 . S
H3296 C3326 0.950 . S
H3297 C3327 0.950 . S
C3298 H3280 0.951 . S
C3298 C3299 1.366 . S
C3298 C3300 1.388 . S
C3299 C3298 1.366 . S
C3299 C3303 1.385 . S
C3300 H3281 0.951 . S
C3300 C3298 1.388 . S
C3300 C3301 1.366 . S
C3301 C3300 1.366 . S
C3301 C3302 1.414 . S
C3301 C3304 1.499 . S
C3302 H3282 0.950 . S
C3302 C3301 1.414 . S
C3302 C3303 1.374 . S
C3303 H3283 0.950 . S
C3303 C3299 1.385 . S
C3303 C3302 1.374 . S
C3304 C3301 1.499 . S
C3304 C3305 1.373 . S
C3304 C3306 1.389 1_565 S
C3305 H3284 0.950 . S
C3305 C3304 1.373 . S
C3305 C3321 1.377 . S
C3306 C3304 1.389 1_545 S
C3306 C3307 1.524 . S
C3306 C3320 1.377 . S
C3307 C3306 1.524 . S
C3307 C3308 1.397 . S
C3307 C3312 1.363 . S
C3308 H3285 0.950 . S
C3308 C3307 1.397 . S
C3308 C3309 1.334 . S
C3309 H3286 0.950 . S
C3309 C3308 1.334 . S
C3309 C3310 1.287 . S
C3310 C3309 1.287 . S
C3310 C3311 1.524 . S
C3310 H3329 0.913 . S
C3311 H3287 0.950 . S
C3311 C3310 1.524 . S
C3311 C3312 1.415 . S
C3312 H3288 0.950 . S
C3312 C3307 1.363 . S
C3312 C3311 1.415 . S
C3313 H3289 0.951 . S
C3313 C3314 1.366 . S
C3313 C3315 1.388 . S
C3314 C3313 1.366 . S
C3314 C3318 1.385 . S
C3315 H3290 0.951 . S
C3315 C3313 1.388 . S
C3315 C3316 1.366 . S
C3316 C3315 1.366 . S
C3316 C3317 1.414 . S
C3316 C3319 1.499 . S
C3317 H3291 0.950 . S
C3317 C3316 1.414 . S
C3317 C3318 1.374 . S
C3318 H3292 0.950 . S
C3318 C3314 1.385 . S
C3318 C3317 1.374 . S
C3319 C3316 1.499 . S
C3319 C3320 1.373 1_565 S
C3319 C3321 1.389 . S
C3320 H3293 0.950 . S
C3320 C3306 1.377 . S
C3320 C3319 1.373 1_545 S
C3321 C3305 1.377 . S
C3321 C3319 1.389 . S
C3321 C3322 1.524 . S
C3322 C3321 1.524 . S
C3322 C3323 1.397 . S
C3322 C3327 1.363 . S
C3323 H3294 0.950 . S
C3323 C3322 1.397 . S
C3323 C3324 1.334 . S
C3324 H3295 0.950 . S
C3324 C3323 1.334 . S
C3324 C3325 1.287 . S
C3325 C3324 1.287 . S
C3325 C3326 1.524 . S
C3325 H3328 0.999 . S
C3326 H3296 0.950 . S
C3326 C3325 1.524 . S
C3326 C3327 1.415 . S
C3327 H3297 0.950 . S
C3327 C3322 1.363 . S
C3327 C3326 1.415 . S
H3328 C3325 0.999 . S
H3329 C3310 0.913 . S
H3330 C3348 0.951 . S
H3331 C3350 0.951 . S
H3332 C3352 0.950 . S
H3333 C3353 0.950 . S
H3334 C3355 0.955 . S
H3335 C3358 0.950 1_545 S
H3336 C3359 0.950 1_545 S
H3337 C3361 0.950 . S
H3338 C3362 0.950 . S
H3339 C3363 0.951 . S
H3340 C3365 0.951 . S
H3341 C3367 0.950 . S
H3342 C3368 0.950 . S
H3343 C3370 0.950 . S
H3344 C3373 0.950 . S
H3345 C3374 0.950 . S
H3346 C3376 0.950 . S
H3347 C3377 0.950 . S
C3348 H3330 0.951 . S
C3348 C3349 1.366 . S
C3348 C3350 1.388 . S
C3349 C3348 1.366 . S
C3349 C3353 1.385 1_565 S
C3350 H3331 0.951 . S
C3350 C3348 1.388 . S
C3350 C3351 1.366 . S
C3351 C3350 1.366 . S
C3351 C3352 1.414 1_565 S
C3351 C3354 1.499 . S
C3352 H3332 0.950 . S
C3352 C3351 1.414 1_545 S
C3352 C3353 1.374 . S
C3353 H3333 0.950 . S
C3353 C3349 1.385 1_545 S
C3353 C3352 1.374 . S
C3354 C3351 1.499 . S
C3354 C3355 1.373 . S
C3354 C3356 1.389 . S
C3355 H3334 0.955 . S
C3355 C3354 1.373 . S
C3355 C3371 1.377 . S
C3356 C3354 1.389 . S
C3356 C3357 1.524 . S
C3356 C3370 1.377 . S
C3357 C3356 1.524 . S
C3357 C3358 1.397 . S
C3357 C3362 1.363 . S
C3358 H3335 0.950 1_565 S
C3358 C3357 1.397 . S
C3358 C3359 1.334 . S
C3359 H3336 0.950 1_565 S
C3359 C3358 1.334 . S
C3359 C3360 1.287 . S
C3360 C3359 1.287 . S
C3360 C3361 1.524 . S
C3360 H3379 0.913 . S
C3361 H3337 0.950 . S
C3361 C3360 1.524 . S
C3361 C3362 1.415 . S
C3362 H3338 0.950 . S
C3362 C3357 1.363 . S
C3362 C3361 1.415 . S
C3363 H3339 0.951 . S
C3363 C3364 1.366 1_545 S
C3363 C3365 1.388 . S
C3364 C3363 1.366 1_565 S
C3364 C3368 1.385 . S
C3365 H3340 0.951 . S
C3365 C3363 1.388 . S
C3365 C3366 1.366 1_545 S
C3366 C3365 1.366 1_565 S
C3366 C3367 1.414 . S
C3366 C3369 1.499 . S
C3367 H3341 0.950 . S
C3367 C3366 1.414 . S
C3367 C3368 1.374 . S
C3368 H3342 0.950 . S
C3368 C3364 1.385 . S
C3368 C3367 1.374 . S
C3369 C3366 1.499 . S
C3369 C3370 1.373 . S
C3369 C3371 1.389 . S
C3370 H3343 0.950 . S
C3370 C3356 1.377 . S
C3370 C3369 1.373 . S
C3371 C3355 1.377 . S
C3371 C3369 1.389 . S
C3371 C3372 1.521 1_565 S
C3372 C3371 1.521 1_545 S
C3372 C3373 1.395 1_545 S
C3372 C3377 1.367 . S
C3373 H3344 0.950 . S
C3373 C3372 1.395 1_565 S
C3373 C3374 1.334 . S
C3374 H3345 0.950 . S
C3374 C3373 1.334 . S
C3374 C3375 1.287 1_565 S
C3375 C3374 1.287 1_545 S
C3375 C3376 1.524 . S
C3375 H3378 0.999 . S
C3376 H3346 0.950 . S
C3376 C3375 1.524 . S
C3376 C3377 1.415 . S
C3377 H3347 0.950 . S
C3377 C3372 1.367 . S
C3377 C3376 1.415 . S
H3378 C3375 0.999 . S
H3379 C3360 0.913 . S
H3380 C3398 0.951 . S
H3381 C3400 0.951 . S
H3382 C3402 0.950 . S
H3383 C3403 0.950 . S
H3384 C3405 0.950 . S
H3385 C3408 0.950 . S
H3386 C3409 0.950 . S
H3387 C3411 0.950 . S
H3388 C3412 0.950 . S
H3389 C3413 0.951 . S
H3390 C3415 0.951 . S
H3391 C3417 0.950 . S
H3392 C3418 0.950 . S
H3393 C3420 0.950 . S
H3394 C3423 0.950 1_655 S
H3395 C3424 0.950 . S
H3396 C3426 0.950 . S
H3397 C3427 0.950 . S
C3398 H3380 0.951 . S
C3398 C3399 1.366 1_655 S
C3398 C3400 1.388 . S
C3399 C3398 1.366 1_455 S
C3399 C3403 1.385 . S
C3400 H3381 0.951 . S
C3400 C3398 1.388 . S
C3400 C3401 1.366 1_655 S
C3401 C3400 1.366 1_455 S
C3401 C3402 1.414 . S
C3401 C3404 1.499 . S
C3402 H3382 0.950 . S
C3402 C3401 1.414 . S
C3402 C3403 1.374 . S
C3403 H3383 0.950 . S
C3403 C3399 1.385 . S
C3403 C3402 1.374 . S
C3404 C3401 1.499 . S
C3404 C3405 1.373 . S
C3404 C3406 1.392 . S
C3405 H3384 0.950 . S
C3405 C3404 1.373 . S
C3405 C3421 1.377 . S
C3406 C3404 1.392 . S
C3406 C3407 1.503 1_455 S
C3406 C3420 1.409 1_455 S
C3407 C3406 1.503 1_655 S
C3407 C3408 1.397 1_655 S
C3407 C3412 1.363 . S
C3408 H3385 0.950 . S
C3408 C3407 1.397 1_455 S
C3408 C3409 1.334 . S
C3409 H3386 0.950 . S
C3409 C3408 1.334 . S
C3409 C3410 1.287 1_455 S
C3410 C3409 1.287 1_655 S
C3410 C3411 1.524 . S
C3410 H3429 0.913 . S
C3411 H3387 0.950 . S
C3411 C3410 1.524 . S
C3411 C3412 1.415 . S
C3412 H3388 0.950 . S
C3412 C3407 1.363 . S
C3412 C3411 1.415 . S
C3413 H3389 0.951 . S
C3413 C3414 1.411 . S
C3413 C3415 1.388 . S
C3414 C3413 1.411 . S
C3414 C3418 1.307 1_455 S
C3415 H3390 0.951 . S
C3415 C3413 1.388 . S
C3415 C3416 1.366 . S
C3416 C3415 1.366 . S
C3416 C3417 1.414 1_455 S
C3416 C3419 1.499 . S
C3417 H3391 0.950 . S
C3417 C3416 1.414 1_655 S
C3417 C3418 1.374 . S
C3418 H3392 0.950 . S
C3418 C3414 1.307 1_655 S
C3418 C3417 1.374 . S
C3419 C3416 1.499 . S
C3419 C3420 1.373 1_455 S
C3419 C3421 1.389 . S
C3420 H3393 0.950 . S
C3420 C3406 1.409 1_655 S
C3420 C3419 1.373 1_655 S
C3421 C3405 1.377 . S
C3421 C3419 1.389 . S
C3421 C3422 1.524 . S
C3422 C3421 1.524 . S
C3422 C3423 1.397 . S
C3422 C3427 1.363 . S
C3423 H3394 0.950 1_455 S
C3423 C3422 1.397 . S
C3423 C3424 1.334 . S
C3424 H3395 0.950 . S
C3424 C3423 1.334 . S
C3424 C3425 1.287 . S
C3425 C3424 1.287 . S
C3425 C3426 1.524 . S
C3425 H3428 0.999 . S
C3426 H3396 0.950 . S
C3426 C3425 1.524 . S
C3426 C3427 1.415 . S
C3427 H3397 0.950 . S
C3427 C3422 1.363 . S
C3427 C3426 1.415 . S
H3428 C3425 0.999 . S
H3429 C3410 0.913 . S
H3430 C3448 0.951 . S
H3431 C3450 0.951 . S
H3432 C3452 0.950 . S
H3433 C3453 0.950 . S
H3434 C3455 0.950 . S
H3435 C3458 0.950 . S
H3436 C3459 0.950 . S
H3437 C3461 0.950 . S
H3438 C3462 0.950 . S
H3439 C3463 0.951 . S
H3440 C3465 0.951 . S
H3441 C3467 0.950 . S
H3442 C3468 0.950 . S
H3443 C3470 0.950 . S
H3444 C3473 0.950 . S
H3445 C3474 0.950 . S
H3446 C3476 0.950 . S
H3447 C3477 0.950 . S
C3448 H3430 0.951 . S
C3448 C3449 1.366 . S
C3448 C3450 1.388 . S
C3449 C3448 1.366 . S
C3449 C3453 1.385 . S
C3450 H3431 0.951 . S
C3450 C3448 1.388 . S
C3450 C3451 1.366 . S
C3451 C3450 1.366 . S
C3451 C3452 1.414 . S
C3451 C3454 1.499 . S
C3452 H3432 0.950 . S
C3452 C3451 1.414 . S
C3452 C3453 1.374 . S
C3453 H3433 0.950 . S
C3453 C3449 1.385 . S
C3453 C3452 1.374 . S
C3454 C3451 1.499 . S
C3454 C3455 1.373 . S
C3454 C3456 1.389 . S
C3455 H3434 0.950 . S
C3455 C3454 1.373 . S
C3455 C3471 1.377 . S
C3456 C3454 1.389 . S
C3456 C3457 1.524 . S
C3456 C3470 1.377 . S
C3457 C3456 1.524 . S
C3457 C3458 1.397 . S
C3457 C3462 1.363 . S
C3458 H3435 0.950 . S
C3458 C3457 1.397 . S
C3458 C3459 1.334 . S
C3459 H3436 0.950 . S
C3459 C3458 1.334 . S
C3459 C3460 1.287 . S
C3460 C3459 1.287 . S
C3460 C3461 1.524 . S
C3460 H3479 0.913 . S
C3461 H3437 0.950 . S
C3461 C3460 1.524 . S
C3461 C3462 1.415 . S
C3462 H3438 0.950 . S
C3462 C3457 1.363 . S
C3462 C3461 1.415 . S
C3463 H3439 0.951 . S
C3463 C3464 1.366 . S
C3463 C3465 1.388 . S
C3464 C3463 1.366 . S
C3464 C3468 1.385 . S
C3465 H3440 0.951 . S
C3465 C3463 1.388 . S
C3465 C3466 1.366 . S
C3466 C3465 1.366 . S
C3466 C3467 1.414 . S
C3466 C3469 1.499 . S
C3467 H3441 0.950 . S
C3467 C3466 1.414 . S
C3467 C3468 1.374 . S
C3468 H3442 0.950 . S
C3468 C3464 1.385 . S
C3468 C3467 1.374 . S
C3469 C3466 1.499 . S
C3469 C3470 1.373 . S
C3469 C3471 1.389 . S
C3470 H3443 0.950 . S
C3470 C3456 1.377 . S
C3470 C3469 1.373 . S
C3471 C3455 1.377 . S
C3471 C3469 1.389 . S
C3471 C3472 1.524 . S
C3472 C3471 1.524 . S
C3472 C3473 1.397 . S
C3472 C3477 1.363 . S
C3473 H3444 0.950 . S
C3473 C3472 1.397 . S
C3473 C3474 1.334 . S
C3474 H3445 0.950 . S
C3474 C3473 1.334 . S
C3474 C3475 1.287 . S
C3475 C3474 1.287 . S
C3475 C3476 1.524 . S
C3475 H3478 0.999 . S
C3476 H3446 0.950 . S
C3476 C3475 1.524 . S
C3476 C3477 1.415 . S
C3477 H3447 0.950 . S
C3477 C3472 1.363 . S
C3477 C3476 1.415 . S
H3478 C3475 0.999 . S
H3479 C3460 0.913 . S
H3480 C3498 0.951 . S
H3481 C3500 0.951 . S
H3482 C3502 0.950 . S
H3483 C3503 0.950 . S
H3484 C3505 0.950 . S
H3485 C3508 0.950 . S
H3486 C3509 0.950 . S
H3487 C3511 0.950 . S
H3488 C3512 0.950 . S
H3489 C3513 0.951 . S
H3490 C3515 0.951 . S
H3491 C3517 0.950 . S
H3492 C3518 0.950 . S
H3493 C3520 0.950 . S
H3494 C3523 0.950 . S
H3495 C3524 0.950 . S
H3496 C3526 0.950 . S
H3497 C3527 0.950 . S
C3498 H3480 0.951 . S
C3498 C3499 1.366 . S
C3498 C3500 1.388 . S
C3499 C3498 1.366 . S
C3499 C3503 1.385 . S
C3500 H3481 0.951 . S
C3500 C3498 1.388 . S
C3500 C3501 1.366 . S
C3501 C3500 1.366 . S
C3501 C3502 1.414 . S
C3501 C3504 1.499 . S
C3502 H3482 0.950 . S
C3502 C3501 1.414 . S
C3502 C3503 1.374 . S
C3503 H3483 0.950 . S
C3503 C3499 1.385 . S
C3503 C3502 1.374 . S
C3504 C3501 1.499 . S
C3504 C3505 1.373 . S
C3504 C3506 1.389 . S
C3505 H3484 0.950 . S
C3505 C3504 1.373 . S
C3505 C3521 1.377 . S
C3506 C3504 1.389 . S
C3506 C3507 1.524 . S
C3506 C3520 1.377 . S
C3507 C3506 1.524 . S
C3507 C3508 1.397 . S
C3507 C3512 1.363 . S
C3508 H3485 0.950 . S
C3508 C3507 1.397 . S
C3508 C3509 1.334 . S
C3509 H3486 0.950 . S
C3509 C3508 1.334 . S
C3509 C3510 1.287 . S
C3510 C3509 1.287 . S
C3510 C3511 1.524 . S
C3510 H3529 0.913 . S
C3511 H3487 0.950 . S
C3511 C3510 1.524 . S
C3511 C3512 1.415 . S
C3512 H3488 0.950 . S
C3512 C3507 1.363 . S
C3512 C3511 1.415 . S
C3513 H3489 0.951 . S
C3513 C3514 1.366 . S
C3513 C3515 1.388 . S
C3514 C3513 1.366 . S
C3514 C3518 1.385 . S
C3515 H3490 0.951 . S
C3515 C3513 1.388 . S
C3515 C3516 1.366 . S
C3516 C3515 1.366 . S
C3516 C3517 1.414 . S
C3516 C3519 1.499 . S
C3517 H3491 0.950 . S
C3517 C3516 1.414 . S
C3517 C3518 1.374 . S
C3518 H3492 0.950 . S
C3518 C3514 1.385 . S
C3518 C3517 1.374 . S
C3519 C3516 1.499 . S
C3519 C3520 1.373 . S
C3519 C3521 1.389 . S
C3520 H3493 0.950 . S
C3520 C3506 1.377 . S
C3520 C3519 1.373 . S
C3521 C3505 1.377 . S
C3521 C3519 1.389 . S
C3521 C3522 1.524 . S
C3522 C3521 1.524 . S
C3522 C3523 1.397 . S
C3522 C3527 1.363 . S
C3523 H3494 0.950 . S
C3523 C3522 1.397 . S
C3523 C3524 1.334 . S
C3524 H3495 0.950 . S
C3524 C3523 1.334 . S
C3524 C3525 1.287 . S
C3525 C3524 1.287 . S
C3525 C3526 1.524 . S
C3525 H3528 0.999 . S
C3526 H3496 0.950 . S
C3526 C3525 1.524 . S
C3526 C3527 1.415 . S
C3527 H3497 0.950 . S
C3527 C3522 1.363 . S
C3527 C3526 1.415 . S
H3528 C3525 0.999 . S
H3529 C3510 0.913 . S
H3530 C3548 0.951 . S
H3531 C3550 0.951 . S
H3532 C3552 0.950 . S
H3533 C3553 0.950 . S
H3534 C3555 0.950 . S
H3535 C3558 0.950 . S
H3536 C3559 0.950 . S
H3537 C3561 0.950 . S
H3538 C3562 0.950 . S
H3539 C3563 0.951 . S
H3540 C3565 0.951 . S
H3541 C3567 0.950 . S
H3542 C3568 0.950 . S
H3543 C3570 0.950 . S
H3544 C3573 0.950 . S
H3545 C3574 0.950 . S
H3546 C3576 0.950 . S
H3547 C3577 0.950 . S
C3548 H3530 0.951 . S
C3548 C3549 1.366 . S
C3548 C3550 1.388 . S
C3549 C3548 1.366 . S
C3549 C3553 1.385 . S
C3550 H3531 0.951 . S
C3550 C3548 1.388 . S
C3550 C3551 1.366 . S
C3551 C3550 1.366 . S
C3551 C3552 1.414 . S
C3551 C3554 1.499 . S
C3552 H3532 0.950 . S
C3552 C3551 1.414 . S
C3552 C3553 1.374 . S
C3553 H3533 0.950 . S
C3553 C3549 1.385 . S
C3553 C3552 1.374 . S
C3554 C3551 1.499 . S
C3554 C3555 1.373 . S
C3554 C3556 1.389 . S
C3555 H3534 0.950 . S
C3555 C3554 1.373 . S
C3555 C3571 1.377 . S
C3556 C3554 1.389 . S
C3556 C3557 1.524 . S
C3556 C3570 1.377 . S
C3557 C3556 1.524 . S
C3557 C3558 1.397 . S
C3557 C3562 1.363 . S
C3558 H3535 0.950 . S
C3558 C3557 1.397 . S
C3558 C3559 1.334 . S
C3559 H3536 0.950 . S
C3559 C3558 1.334 . S
C3559 C3560 1.287 . S
C3560 C3559 1.287 . S
C3560 C3561 1.524 . S
C3560 H3579 0.913 . S
C3561 H3537 0.950 . S
C3561 C3560 1.524 . S
C3561 C3562 1.415 . S
C3562 H3538 0.950 . S
C3562 C3557 1.363 . S
C3562 C3561 1.415 . S
C3563 H3539 0.951 . S
C3563 C3564 1.366 . S
C3563 C3565 1.388 . S
C3564 C3563 1.366 . S
C3564 C3568 1.385 . S
C3565 H3540 0.951 . S
C3565 C3563 1.388 . S
C3565 C3566 1.366 . S
C3566 C3565 1.366 . S
C3566 C3567 1.414 . S
C3566 C3569 1.499 . S
C3567 H3541 0.950 . S
C3567 C3566 1.414 . S
C3567 C3568 1.374 . S
C3568 H3542 0.950 . S
C3568 C3564 1.385 . S
C3568 C3567 1.374 . S
C3569 C3566 1.499 . S
C3569 C3570 1.373 . S
C3569 C3571 1.389 . S
C3570 H3543 0.950 . S
C3570 C3556 1.377 . S
C3570 C3569 1.373 . S
C3571 C3555 1.377 . S
C3571 C3569 1.389 . S
C3571 C3572 1.524 . S
C3572 C3571 1.524 . S
C3572 C3573 1.397 . S
C3572 C3577 1.363 . S
C3573 H3544 0.950 . S
C3573 C3572 1.397 . S
C3573 C3574 1.334 . S
C3574 H3545 0.950 . S
C3574 C3573 1.334 . S
C3574 C3575 1.287 . S
C3575 C3574 1.287 . S
C3575 C3576 1.524 . S
C3575 H3578 0.999 . S
C3576 H3546 0.950 . S
C3576 C3575 1.524 . S
C3576 C3577 1.415 . S
C3577 H3547 0.950 . S
C3577 C3572 1.363 . S
C3577 C3576 1.415 . S
H3578 C3575 0.999 . S
H3579 C3560 0.913 . S
H3580 C3598 0.951 . S
H3581 C3600 0.951 . S
H3582 C3602 0.950 . S
H3583 C3603 0.950 . S
H3584 C3605 0.950 . S
H3585 C3608 0.950 . S
H3586 C3609 0.950 . S
H3587 C3611 0.950 . S
H3588 C3612 0.950 . S
H3589 C3613 0.951 . S
H3590 C3615 0.951 . S
H3591 C3617 0.950 . S
H3592 C3618 0.950 . S
H3593 C3620 0.950 . S
H3594 C3623 0.950 . S
H3595 C3624 0.950 . S
H3596 C3626 0.950 . S
H3597 C3627 0.950 . S
C3598 H3580 0.951 . S
C3598 C3599 1.366 . S
C3598 C3600 1.388 . S
C3599 C3598 1.366 . S
C3599 C3603 1.385 . S
C3600 H3581 0.951 . S
C3600 C3598 1.388 . S
C3600 C3601 1.366 . S
C3601 C3600 1.366 . S
C3601 C3602 1.414 . S
C3601 C3604 1.499 . S
C3602 H3582 0.950 . S
C3602 C3601 1.414 . S
C3602 C3603 1.374 . S
C3603 H3583 0.950 . S
C3603 C3599 1.385 . S
C3603 C3602 1.374 . S
C3604 C3601 1.499 . S
C3604 C3605 1.373 . S
C3604 C3606 1.389 . S
C3605 H3584 0.950 . S
C3605 C3604 1.373 . S
C3605 C3621 1.377 . S
C3606 C3604 1.389 . S
C3606 C3607 1.524 . S
C3606 C3620 1.377 . S
C3607 C3606 1.524 . S
C3607 C3608 1.397 . S
C3607 C3612 1.363 . S
C3608 H3585 0.950 . S
C3608 C3607 1.397 . S
C3608 C3609 1.334 . S
C3609 H3586 0.950 . S
C3609 C3608 1.334 . S
C3609 C3610 1.287 . S
C3610 C3609 1.287 . S
C3610 C3611 1.524 . S
C3610 H3629 0.913 . S
C3611 H3587 0.950 . S
C3611 C3610 1.524 . S
C3611 C3612 1.415 . S
C3612 H3588 0.950 . S
C3612 C3607 1.363 . S
C3612 C3611 1.415 . S
C3613 H3589 0.951 . S
C3613 C3614 1.366 . S
C3613 C3615 1.388 . S
C3614 C3613 1.366 . S
C3614 C3618 1.385 . S
C3615 H3590 0.951 . S
C3615 C3613 1.388 . S
C3615 C3616 1.366 . S
C3616 C3615 1.366 . S
C3616 C3617 1.414 . S
C3616 C3619 1.499 . S
C3617 H3591 0.950 . S
C3617 C3616 1.414 . S
C3617 C3618 1.374 . S
C3618 H3592 0.950 . S
C3618 C3614 1.385 . S
C3618 C3617 1.374 . S
C3619 C3616 1.499 . S
C3619 C3620 1.373 . S
C3619 C3621 1.389 . S
C3620 H3593 0.950 . S
C3620 C3606 1.377 . S
C3620 C3619 1.373 . S
C3621 C3605 1.377 . S
C3621 C3619 1.389 . S
C3621 C3622 1.524 . S
C3622 C3621 1.524 . S
C3622 C3623 1.397 . S
C3622 C3627 1.363 . S
C3623 H3594 0.950 . S
C3623 C3622 1.397 . S
C3623 C3624 1.334 . S
C3624 H3595 0.950 . S
C3624 C3623 1.334 . S
C3624 C3625 1.287 . S
C3625 C3624 1.287 . S
C3625 C3626 1.524 . S
C3625 H3628 0.999 . S
C3626 H3596 0.950 . S
C3626 C3625 1.524 . S
C3626 C3627 1.415 . S
C3627 H3597 0.950 . S
C3627 C3622 1.363 . S
C3627 C3626 1.415 . S
H3628 C3625 0.999 . S
H3629 C3610 0.913 . S
H3630 C3648 0.951 1_565 S
H3631 C3650 0.951 1_565 S
H3632 C3652 0.950 . S
H3633 C3653 0.950 . S
H3634 C3655 0.950 . S
H3635 C3658 0.950 . S
H3636 C3659 0.950 . S
H3637 C3661 0.950 . S
H3638 C3662 0.950 . S
H3639 C3663 0.951 . S
H3640 C3665 0.951 . S
H3641 C3667 0.950 . S
H3642 C3668 0.950 . S
H3643 C3670 0.950 . S
H3644 C3673 0.950 . S
H3645 C3674 0.950 . S
H3646 C3676 0.950 . S
H3647 C3677 0.950 . S
C3648 H3630 0.951 1_545 S
C3648 C3649 1.366 . S
C3648 C3650 1.388 . S
C3649 C3648 1.366 . S
C3649 C3653 1.385 . S
C3650 H3631 0.951 1_545 S
C3650 C3648 1.388 . S
C3650 C3651 1.366 . S
C3651 C3650 1.366 . S
C3651 C3652 1.414 . S
C3651 C3654 1.499 . S
C3652 H3632 0.950 . S
C3652 C3651 1.414 . S
C3652 C3653 1.374 . S
C3653 H3633 0.950 . S
C3653 C3649 1.385 . S
C3653 C3652 1.374 . S
C3654 C3651 1.499 . S
C3654 C3655 1.373 . S
C3654 C3656 1.389 1_545 S
C3655 H3634 0.950 . S
C3655 C3654 1.373 . S
C3655 C3671 1.377 . S
C3656 C3654 1.389 1_565 S
C3656 C3657 1.524 . S
C3656 C3670 1.377 . S
C3657 C3656 1.524 . S
C3657 C3658 1.397 . S
C3657 C3662 1.363 . S
C3658 H3635 0.950 . S
C3658 C3657 1.397 . S
C3658 C3659 1.334 . S
C3659 H3636 0.950 . S
C3659 C3658 1.334 . S
C3659 C3660 1.287 . S
C3660 C3659 1.287 . S
C3660 C3661 1.524 . S
C3660 H3679 0.913 . S
C3661 H3637 0.950 . S
C3661 C3660 1.524 . S
C3661 C3662 1.415 . S
C3662 H3638 0.950 . S
C3662 C3657 1.363 . S
C3662 C3661 1.415 . S
C3663 H3639 0.951 . S
C3663 C3664 1.366 . S
C3663 C3665 1.388 . S
C3664 C3663 1.366 . S
C3664 C3668 1.385 1_545 S
C3665 H3640 0.951 . S
C3665 C3663 1.388 . S
C3665 C3666 1.366 . S
C3666 C3665 1.366 . S
C3666 C3667 1.414 1_545 S
C3666 C3669 1.499 . S
C3667 H3641 0.950 . S
C3667 C3666 1.414 1_565 S
C3667 C3668 1.374 . S
C3668 H3642 0.950 . S
C3668 C3664 1.385 1_565 S
C3668 C3667 1.374 . S
C3669 C3666 1.499 . S
C3669 C3670 1.373 1_545 S
C3669 C3671 1.389 . S
C3670 H3643 0.950 . S
C3670 C3656 1.377 . S
C3670 C3669 1.373 1_565 S
C3671 C3655 1.377 . S
C3671 C3669 1.389 . S
C3671 C3672 1.524 . S
C3672 C3671 1.524 . S
C3672 C3673 1.397 . S
C3672 C3677 1.363 . S
C3673 H3644 0.950 . S
C3673 C3672 1.397 . S
C3673 C3674 1.334 . S
C3674 H3645 0.950 . S
C3674 C3673 1.334 . S
C3674 C3675 1.287 . S
C3675 C3674 1.287 . S
C3675 C3676 1.524 . S
C3675 H3678 0.999 . S
C3676 H3646 0.950 . S
C3676 C3675 1.524 . S
C3676 C3677 1.415 . S
C3677 H3647 0.950 . S
C3677 C3672 1.363 . S
C3677 C3676 1.415 . S
H3678 C3675 0.999 . S
H3679 C3660 0.913 . S
H3680 C3698 0.951 . S
H3681 C3700 0.951 . S
H3682 C3702 0.950 . S
H3683 C3703 0.950 . S
H3684 C3705 0.950 . S
H3685 C3708 0.950 . S
H3686 C3709 0.950 . S
H3687 C3711 0.950 . S
H3688 C3712 0.950 . S
H3689 C3713 0.951 . S
H3690 C3715 0.951 . S
H3691 C3717 0.950 . S
H3692 C3718 0.950 . S
H3693 C3720 0.950 . S
H3694 C3723 0.950 . S
H3695 C3724 0.950 . S
H3696 C3726 0.950 . S
H3697 C3727 0.950 . S
C3698 H3680 0.951 . S
C3698 C3699 1.366 1_455 S
C3698 C3700 1.388 . S
C3699 C3698 1.366 1_655 S
C3699 C3703 1.385 . S
C3700 H3681 0.951 . S
C3700 C3698 1.388 . S
C3700 C3701 1.366 1_455 S
C3701 C3700 1.366 1_655 S
C3701 C3702 1.414 . S
C3701 C3704 1.499 . S
C3702 H3682 0.950 . S
C3702 C3701 1.414 . S
C3702 C3703 1.374 . S
C3703 H3683 0.950 . S
C3703 C3699 1.385 . S
C3703 C3702 1.374 . S
C3704 C3701 1.499 . S
C3704 C3705 1.373 . S
C3704 C3706 1.389 . S
C3705 H3684 0.950 . S
C3705 C3704 1.373 . S
C3705 C3721 1.377 . S
C3706 C3704 1.389 . S
C3706 C3707 1.524 . S
C3706 C3720 1.377 . S
C3707 C3706 1.524 . S
C3707 C3708 1.397 . S
C3707 C3712 1.363 1_655 S
C3708 H3685 0.950 . S
C3708 C3707 1.397 . S
C3708 C3709 1.334 . S
C3709 H3686 0.950 . S
C3709 C3708 1.334 . S
C3709 C3710 1.287 . S
C3710 C3709 1.287 . S
C3710 C3711 1.524 1_655 S
C3710 H3729 0.913 . S
C3711 H3687 0.950 . S
C3711 C3710 1.524 1_455 S
C3711 C3712 1.415 . S
C3712 H3688 0.950 . S
C3712 C3707 1.363 1_455 S
C3712 C3711 1.415 . S
C3713 H3689 0.951 . S
C3713 C3714 1.366 . S
C3713 C3715 1.388 . S
C3714 C3713 1.366 . S
C3714 C3718 1.385 1_655 S
C3715 H3690 0.951 . S
C3715 C3713 1.388 . S
C3715 C3716 1.366 . S
C3716 C3715 1.366 . S
C3716 C3717 1.414 1_655 S
C3716 C3719 1.499 . S
C3717 H3691 0.950 . S
C3717 C3716 1.414 1_455 S
C3717 C3718 1.374 . S
C3718 H3692 0.950 . S
C3718 C3714 1.385 1_455 S
C3718 C3717 1.374 . S
C3719 C3716 1.499 . S
C3719 C3720 1.373 . S
C3719 C3721 1.389 . S
C3720 H3693 0.950 . S
C3720 C3706 1.377 . S
C3720 C3719 1.373 . S
C3721 C3705 1.377 . S
C3721 C3719 1.389 . S
C3721 C3722 1.524 . S
C3722 C3721 1.524 . S
C3722 C3723 1.397 1_655 S
C3722 C3727 1.363 . S
C3723 H3694 0.950 . S
C3723 C3722 1.397 1_455 S
C3723 C3724 1.334 . S
C3724 H3695 0.950 . S
C3724 C3723 1.334 . S
C3724 C3725 1.252 1_455 S
C3725 C3724 1.252 1_655 S
C3725 C3726 1.550 . S
C3725 H3728 1.022 . S
C3726 H3696 0.950 . S
C3726 C3725 1.550 . S
C3726 C3727 1.415 . S
C3727 H3697 0.950 . S
C3727 C3722 1.363 . S
C3727 C3726 1.415 . S
H3728 C3725 1.022 . S
H3729 C3710 0.913 . S
H3730 C3748 0.951 . S
H3731 C3750 0.951 . S
H3732 C3752 0.950 . S
H3733 C3753 0.950 . S
H3734 C3755 0.950 . S
H3735 C3758 0.950 . S
H3736 C3759 0.950 . S
H3737 C3761 0.950 . S
H3738 C3762 0.950 . S
H3739 C3763 0.951 . S
H3740 C3765 0.951 . S
H3741 C3767 0.950 . S
H3742 C3768 0.950 . S
H3743 C3770 0.950 . S
H3744 C3773 0.950 . S
H3745 C3774 0.950 . S
H3746 C3776 0.950 . S
H3747 C3777 0.950 . S
C3748 H3730 0.951 . S
C3748 C3749 1.366 . S
C3748 C3750 1.388 . S
C3749 C3748 1.366 . S
C3749 C3753 1.385 . S
C3750 H3731 0.951 . S
C3750 C3748 1.388 . S
C3750 C3751 1.366 . S
C3751 C3750 1.366 . S
C3751 C3752 1.414 . S
C3751 C3754 1.499 . S
C3752 H3732 0.950 . S
C3752 C3751 1.414 . S
C3752 C3753 1.374 . S
C3753 H3733 0.950 . S
C3753 C3749 1.385 . S
C3753 C3752 1.374 . S
C3754 C3751 1.499 . S
C3754 C3755 1.373 . S
C3754 C3756 1.389 . S
C3755 H3734 0.950 . S
C3755 C3754 1.373 . S
C3755 C3771 1.377 . S
C3756 C3754 1.389 . S
C3756 C3757 1.524 . S
C3756 C3770 1.377 . S
C3757 C3756 1.524 . S
C3757 C3758 1.397 . S
C3757 C3762 1.363 . S
C3758 H3735 0.950 . S
C3758 C3757 1.397 . S
C3758 C3759 1.334 . S
C3759 H3736 0.950 . S
C3759 C3758 1.334 . S
C3759 C3760 1.287 . S
C3760 C3759 1.287 . S
C3760 C3761 1.524 . S
C3760 H3779 0.913 . S
C3761 H3737 0.950 . S
C3761 C3760 1.524 . S
C3761 C3762 1.415 . S
C3762 H3738 0.950 . S
C3762 C3757 1.363 . S
C3762 C3761 1.415 . S
C3763 H3739 0.951 . S
C3763 C3764 1.366 . S
C3763 C3765 1.388 . S
C3764 C3763 1.366 . S
C3764 C3768 1.385 . S
C3765 H3740 0.951 . S
C3765 C3763 1.388 . S
C3765 C3766 1.366 . S
C3766 C3765 1.366 . S
C3766 C3767 1.414 . S
C3766 C3769 1.499 . S
C3767 H3741 0.950 . S
C3767 C3766 1.414 . S
C3767 C3768 1.374 . S
C3768 H3742 0.950 . S
C3768 C3764 1.385 . S
C3768 C3767 1.374 . S
C3769 C3766 1.499 . S
C3769 C3770 1.373 . S
C3769 C3771 1.389 . S
C3770 H3743 0.950 . S
C3770 C3756 1.377 . S
C3770 C3769 1.373 . S
C3771 C3755 1.377 . S
C3771 C3769 1.389 . S
C3771 C3772 1.524 . S
C3772 C3771 1.524 . S
C3772 C3773 1.397 . S
C3772 C3777 1.363 . S
C3773 H3744 0.950 . S
C3773 C3772 1.397 . S
C3773 C3774 1.334 . S
C3774 H3745 0.950 . S
C3774 C3773 1.334 . S
C3774 C3775 1.287 . S
C3775 C3774 1.287 . S
C3775 C3776 1.524 . S
C3775 H3778 0.999 . S
C3776 H3746 0.950 . S
C3776 C3775 1.524 . S
C3776 C3777 1.415 . S
C3777 H3747 0.950 . S
C3777 C3772 1.363 . S
C3777 C3776 1.415 . S
H3778 C3775 0.999 . S
H3779 C3760 0.913 . S
H3780 C3798 0.951 . S
H3781 C3800 0.951 . S
H3782 C3802 0.950 . S
H3783 C3803 0.950 . S
H3784 C3805 0.950 . S
H3785 C3808 0.950 . S
H3786 C3809 0.950 . S
H3787 C3811 0.950 . S
H3788 C3812 0.950 . S
H3789 C3813 0.951 . S
H3790 C3815 0.951 . S
H3791 C3817 0.950 . S
H3792 C3818 0.950 . S
H3793 C3820 0.950 . S
H3794 C3823 0.950 . S
H3795 C3824 0.950 . S
H3796 C3826 0.950 . S
H3797 C3827 0.950 . S
C3798 H3780 0.951 . S
C3798 C3799 1.366 . S
C3798 C3800 1.388 . S
C3799 C3798 1.366 . S
C3799 C3803 1.385 . S
C3800 H3781 0.951 . S
C3800 C3798 1.388 . S
C3800 C3801 1.366 . S
C3801 C3800 1.366 . S
C3801 C3802 1.414 . S
C3801 C3804 1.499 . S
C3802 H3782 0.950 . S
C3802 C3801 1.414 . S
C3802 C3803 1.374 . S
C3803 H3783 0.950 . S
C3803 C3799 1.385 . S
C3803 C3802 1.374 . S
C3804 C3801 1.499 . S
C3804 C3805 1.373 . S
C3804 C3806 1.389 . S
C3805 H3784 0.950 . S
C3805 C3804 1.373 . S
C3805 C3821 1.377 . S
C3806 C3804 1.389 . S
C3806 C3807 1.524 . S
C3806 C3820 1.377 . S
C3807 C3806 1.524 . S
C3807 C3808 1.397 . S
C3807 C3812 1.363 . S
C3808 H3785 0.950 . S
C3808 C3807 1.397 . S
C3808 C3809 1.334 . S
C3809 H3786 0.950 . S
C3809 C3808 1.334 . S
C3809 C3810 1.287 . S
C3810 C3809 1.287 . S
C3810 C3811 1.524 . S
C3810 H3829 0.913 . S
C3811 H3787 0.950 . S
C3811 C3810 1.524 . S
C3811 C3812 1.415 . S
C3812 H3788 0.950 . S
C3812 C3807 1.363 . S
C3812 C3811 1.415 . S
C3813 H3789 0.951 . S
C3813 C3814 1.366 . S
C3813 C3815 1.388 . S
C3814 C3813 1.366 . S
C3814 C3818 1.385 . S
C3815 H3790 0.951 . S
C3815 C3813 1.388 . S
C3815 C3816 1.366 . S
C3816 C3815 1.366 . S
C3816 C3817 1.414 . S
C3816 C3819 1.499 . S
C3817 H3791 0.950 . S
C3817 C3816 1.414 . S
C3817 C3818 1.374 . S
C3818 H3792 0.950 . S
C3818 C3814 1.385 . S
C3818 C3817 1.374 . S
C3819 C3816 1.499 . S
C3819 C3820 1.373 . S
C3819 C3821 1.389 . S
C3820 H3793 0.950 . S
C3820 C3806 1.377 . S
C3820 C3819 1.373 . S
C3821 C3805 1.377 . S
C3821 C3819 1.389 . S
C3821 C3822 1.524 . S
C3822 C3821 1.524 . S
C3822 C3823 1.397 . S
C3822 C3827 1.363 . S
C3823 H3794 0.950 . S
C3823 C3822 1.397 . S
C3823 C3824 1.334 . S
C3824 H3795 0.950 . S
C3824 C3823 1.334 . S
C3824 C3825 1.287 . S
C3825 C3824 1.287 . S
C3825 C3826 1.524 . S
C3825 H3828 0.999 . S
C3826 H3796 0.950 . S
C3826 C3825 1.524 . S
C3826 C3827 1.415 . S
C3827 H3797 0.950 . S
C3827 C3822 1.363 . S
C3827 C3826 1.415 . S
H3828 C3825 0.999 . S
H3829 C3810 0.913 . S
H3830 C3848 0.951 . S
H3831 C3850 0.951 . S
H3832 C3852 0.950 . S
H3833 C3853 0.950 . S
H3834 C3855 0.950 . S
H3835 C3858 0.950 . S
H3836 C3859 0.950 . S
H3837 C3861 0.950 . S
H3838 C3862 0.950 . S
H3839 C3863 0.951 . S
H3840 C3865 0.951 . S
H3841 C3867 0.950 . S
H3842 C3868 0.950 . S
H3843 C3870 0.950 . S
H3844 C3873 0.950 . S
H3845 C3874 0.950 . S
H3846 C3876 0.950 . S
H3847 C3877 0.950 . S
C3848 H3830 0.951 . S
C3848 C3849 1.366 . S
C3848 C3850 1.388 . S
C3849 C3848 1.366 . S
C3849 C3853 1.385 . S
C3850 H3831 0.951 . S
C3850 C3848 1.388 . S
C3850 C3851 1.366 . S
C3851 C3850 1.366 . S
C3851 C3852 1.414 . S
C3851 C3854 1.499 . S
C3852 H3832 0.950 . S
C3852 C3851 1.414 . S
C3852 C3853 1.374 . S
C3853 H3833 0.950 . S
C3853 C3849 1.385 . S
C3853 C3852 1.374 . S
C3854 C3851 1.499 . S
C3854 C3855 1.373 . S
C3854 C3856 1.389 . S
C3855 H3834 0.950 . S
C3855 C3854 1.373 . S
C3855 C3871 1.377 . S
C3856 C3854 1.389 . S
C3856 C3857 1.524 . S
C3856 C3870 1.377 . S
C3857 C3856 1.524 . S
C3857 C3858 1.397 . S
C3857 C3862 1.363 . S
C3858 H3835 0.950 . S
C3858 C3857 1.397 . S
C3858 C3859 1.334 . S
C3859 H3836 0.950 . S
C3859 C3858 1.334 . S
C3859 C3860 1.287 . S
C3860 C3859 1.287 . S
C3860 C3861 1.524 . S
C3860 H3879 0.913 . S
C3861 H3837 0.950 . S
C3861 C3860 1.524 . S
C3861 C3862 1.415 . S
C3862 H3838 0.950 . S
C3862 C3857 1.363 . S
C3862 C3861 1.415 . S
C3863 H3839 0.951 . S
C3863 C3864 1.366 . S
C3863 C3865 1.388 . S
C3864 C3863 1.366 . S
C3864 C3868 1.385 . S
C3865 H3840 0.951 . S
C3865 C3863 1.388 . S
C3865 C3866 1.366 . S
C3866 C3865 1.366 . S
C3866 C3867 1.414 . S
C3866 C3869 1.499 . S
C3867 H3841 0.950 . S
C3867 C3866 1.414 . S
C3867 C3868 1.374 . S
C3868 H3842 0.950 . S
C3868 C3864 1.385 . S
C3868 C3867 1.374 . S
C3869 C3866 1.499 . S
C3869 C3870 1.373 . S
C3869 C3871 1.389 . S
C3870 H3843 0.950 . S
C3870 C3856 1.377 . S
C3870 C3869 1.373 . S
C3871 C3855 1.377 . S
C3871 C3869 1.389 . S
C3871 C3872 1.524 . S
C3872 C3871 1.524 . S
C3872 C3873 1.397 . S
C3872 C3877 1.363 . S
C3873 H3844 0.950 . S
C3873 C3872 1.397 . S
C3873 C3874 1.334 . S
C3874 H3845 0.950 . S
C3874 C3873 1.334 . S
C3874 C3875 1.287 . S
C3875 C3874 1.287 . S
C3875 C3876 1.524 . S
C3875 H3878 0.999 . S
C3876 H3846 0.950 . S
C3876 C3875 1.524 . S
C3876 C3877 1.415 . S
C3877 H3847 0.950 . S
C3877 C3872 1.363 . S
C3877 C3876 1.415 . S
H3878 C3875 0.999 . S
H3879 C3860 0.913 . S
H3880 C3898 0.951 . S
H3881 C3900 0.951 . S
H3882 C3902 0.950 . S
H3883 C3903 0.950 . S
H3884 C3905 0.950 . S
H3885 C3908 0.950 . S
H3886 C3909 0.950 . S
H3887 C3911 0.950 . S
H3888 C3912 0.950 . S
H3889 C3913 0.951 . S
H3890 C3915 0.951 . S
H3891 C3917 0.950 . S
H3892 C3918 0.950 . S
H3893 C3920 0.950 . S
H3894 C3923 0.950 . S
H3895 C3924 0.950 . S
H3896 C3926 0.950 . S
H3897 C3927 0.950 . S
C3898 H3880 0.951 . S
C3898 C3899 1.366 . S
C3898 C3900 1.388 . S
C3899 C3898 1.366 . S
C3899 C3903 1.385 . S
C3900 H3881 0.951 . S
C3900 C3898 1.388 . S
C3900 C3901 1.366 . S
C3901 C3900 1.366 . S
C3901 C3902 1.414 . S
C3901 C3904 1.499 . S
C3902 H3882 0.950 . S
C3902 C3901 1.414 . S
C3902 C3903 1.374 . S
C3903 H3883 0.950 . S
C3903 C3899 1.385 . S
C3903 C3902 1.374 . S
C3904 C3901 1.499 . S
C3904 C3905 1.373 . S
C3904 C3906 1.389 . S
C3905 H3884 0.950 . S
C3905 C3904 1.373 . S
C3905 C3921 1.377 . S
C3906 C3904 1.389 . S
C3906 C3907 1.524 . S
C3906 C3920 1.377 . S
C3907 C3906 1.524 . S
C3907 C3908 1.397 . S
C3907 C3912 1.363 . S
C3908 H3885 0.950 . S
C3908 C3907 1.397 . S
C3908 C3909 1.334 . S
C3909 H3886 0.950 . S
C3909 C3908 1.334 . S
C3909 C3910 1.287 . S
C3910 C3909 1.287 . S
C3910 C3911 1.524 . S
C3910 H3929 0.913 . S
C3911 H3887 0.950 . S
C3911 C3910 1.524 . S
C3911 C3912 1.415 . S
C3912 H3888 0.950 . S
C3912 C3907 1.363 . S
C3912 C3911 1.415 . S
C3913 H3889 0.951 . S
C3913 C3914 1.366 . S
C3913 C3915 1.388 . S
C3914 C3913 1.366 . S
C3914 C3918 1.385 . S
C3915 H3890 0.951 . S
C3915 C3913 1.388 . S
C3915 C3916 1.366 . S
C3916 C3915 1.366 . S
C3916 C3917 1.414 . S
C3916 C3919 1.499 . S
C3917 H3891 0.950 . S
C3917 C3916 1.414 . S
C3917 C3918 1.374 . S
C3918 H3892 0.950 . S
C3918 C3914 1.385 . S
C3918 C3917 1.374 . S
C3919 C3916 1.499 . S
C3919 C3920 1.373 . S
C3919 C3921 1.389 . S
C3920 H3893 0.950 . S
C3920 C3906 1.377 . S
C3920 C3919 1.373 . S
C3921 C3905 1.377 . S
C3921 C3919 1.389 . S
C3921 C3922 1.524 . S
C3922 C3921 1.524 . S
C3922 C3923 1.397 . S
C3922 C3927 1.363 . S
C3923 H3894 0.950 . S
C3923 C3922 1.397 . S
C3923 C3924 1.334 . S
C3924 H3895 0.950 . S
C3924 C3923 1.334 . S
C3924 C3925 1.287 . S
C3925 C3924 1.287 . S
C3925 C3926 1.524 . S
C3925 H3928 0.999 . S
C3926 H3896 0.950 . S
C3926 C3925 1.524 . S
C3926 C3927 1.415 . S
C3927 H3897 0.950 . S
C3927 C3922 1.363 . S
C3927 C3926 1.415 . S
H3928 C3925 0.999 . S
H3929 C3910 0.913 . S
H3930 C3948 0.951 . S
H3931 C3950 0.951 . S
H3932 C3952 0.950 . S
H3933 C3953 0.950 . S
H3934 C3955 0.950 . S
H3935 C3958 0.950 . S
H3936 C3959 0.950 . S
H3937 C3961 0.950 . S
H3938 C3962 0.950 . S
H3939 C3963 0.951 . S
H3940 C3965 0.951 . S
H3941 C3967 0.950 . S
H3942 C3968 0.950 . S
H3943 C3970 0.950 . S
H3944 C3973 0.950 . S
H3945 C3974 0.950 . S
H3946 C3976 0.950 . S
H3947 C3977 0.950 . S
C3948 H3930 0.951 . S
C3948 C3949 1.366 . S
C3948 C3950 1.388 . S
C3949 C3948 1.366 . S
C3949 C3953 1.385 . S
C3950 H3931 0.951 . S
C3950 C3948 1.388 . S
C3950 C3951 1.366 . S
C3951 C3950 1.366 . S
C3951 C3952 1.414 . S
C3951 C3954 1.499 . S
C3952 H3932 0.950 . S
C3952 C3951 1.414 . S
C3952 C3953 1.374 . S
C3953 H3933 0.950 . S
C3953 C3949 1.385 . S
C3953 C3952 1.374 . S
C3954 C3951 1.499 . S
C3954 C3955 1.373 . S
C3954 C3956 1.389 . S
C3955 H3934 0.950 . S
C3955 C3954 1.373 . S
C3955 C3971 1.377 . S
C3956 C3954 1.389 . S
C3956 C3957 1.524 . S
C3956 C3970 1.377 . S
C3957 C3956 1.524 . S
C3957 C3958 1.397 . S
C3957 C3962 1.363 . S
C3958 H3935 0.950 . S
C3958 C3957 1.397 . S
C3958 C3959 1.334 . S
C3959 H3936 0.950 . S
C3959 C3958 1.334 . S
C3959 C3960 1.287 . S
C3960 C3959 1.287 . S
C3960 C3961 1.524 . S
C3960 H3979 0.913 . S
C3961 H3937 0.950 . S
C3961 C3960 1.524 . S
C3961 C3962 1.415 . S
C3962 H3938 0.950 . S
C3962 C3957 1.363 . S
C3962 C3961 1.415 . S
C3963 H3939 0.951 . S
C3963 C3964 1.366 . S
C3963 C3965 1.388 . S
C3964 C3963 1.366 . S
C3964 C3968 1.385 . S
C3965 H3940 0.951 . S
C3965 C3963 1.388 . S
C3965 C3966 1.366 . S
C3966 C3965 1.366 . S
C3966 C3967 1.414 . S
C3966 C3969 1.499 . S
C3967 H3941 0.950 . S
C3967 C3966 1.414 . S
C3967 C3968 1.374 . S
C3968 H3942 0.950 . S
C3968 C3964 1.385 . S
C3968 C3967 1.374 . S
C3969 C3966 1.499 . S
C3969 C3970 1.373 . S
C3969 C3971 1.389 . S
C3970 H3943 0.950 . S
C3970 C3956 1.377 . S
C3970 C3969 1.373 . S
C3971 C3955 1.377 . S
C3971 C3969 1.389 . S
C3971 C3972 1.524 . S
C3972 C3971 1.524 . S
C3972 C3973 1.397 . S
C3972 C3977 1.363 . S
C3973 H3944 0.950 . S
C3973 C3972 1.397 . S
C3973 C3974 1.334 . S
C3974 H3945 0.950 . S
C3974 C3973 1.334 . S
C3974 C3975 1.287 . S
C3975 C3974 1.287 . S
C3975 C3976 1.524 . S
C3975 H3978 0.999 . S
C3976 H3946 0.950 . S
C3976 C3975 1.524 . S
C3976 C3977 1.415 . S
C3977 H3947 0.950 . S
C3977 C3972 1.363 . S
C3977 C3976 1.415 . S
H3978 C3975 0.999 . S
H3979 C3960 0.913 . S
H3980 C3998 0.951 . S
H3981 C4000 0.951 . S
H3982 C4002 0.950 . S
H3983 C4003 0.950 . S
H3984 C4005 0.950 . S
H3985 C4008 0.950 . S
H3986 C4009 0.950 . S
H3987 C4011 0.950 . S
H3988 C4012 0.950 . S
H3989 C4013 0.951 . S
H3990 C4015 0.951 . S
H3991 C4017 0.950 . S
H3992 C4018 0.950 . S
H3993 C4020 0.950 . S
H3994 C4023 0.950 . S
H3995 C4024 0.950 . S
H3996 C4026 0.950 . S
H3997 C4027 0.950 . S
C3998 H3980 0.951 . S
C3998 C3999 1.366 . S
C3998 C4000 1.388 . S
C3999 C3998 1.366 . S
C3999 C4003 1.385 . S
C4000 H3981 0.951 . S
C4000 C3998 1.388 . S
C4000 C4001 1.366 . S
C4001 C4000 1.366 . S
C4001 C4002 1.414 . S
C4001 C4004 1.499 . S
C4002 H3982 0.950 . S
C4002 C4001 1.414 . S
C4002 C4003 1.374 . S
C4003 H3983 0.950 . S
C4003 C3999 1.385 . S
C4003 C4002 1.374 . S
C4004 C4001 1.499 . S
C4004 C4005 1.373 . S
C4004 C4006 1.389 . S
C4005 H3984 0.950 . S
C4005 C4004 1.373 . S
C4005 C4021 1.377 . S
C4006 C4004 1.389 . S
C4006 C4007 1.524 . S
C4006 C4020 1.377 . S
C4007 C4006 1.524 . S
C4007 C4008 1.397 . S
C4007 C4012 1.363 . S
C4008 H3985 0.950 . S
C4008 C4007 1.397 . S
C4008 C4009 1.334 . S
C4009 H3986 0.950 . S
C4009 C4008 1.334 . S
C4009 C4010 1.287 . S
C4010 C4009 1.287 . S
C4010 C4011 1.524 . S
C4010 H4029 0.913 . S
C4011 H3987 0.950 . S
C4011 C4010 1.524 . S
C4011 C4012 1.415 . S
C4012 H3988 0.950 . S
C4012 C4007 1.363 . S
C4012 C4011 1.415 . S
C4013 H3989 0.951 . S
C4013 C4014 1.366 . S
C4013 C4015 1.388 . S
C4014 C4013 1.366 . S
C4014 C4018 1.385 . S
C4015 H3990 0.951 . S
C4015 C4013 1.388 . S
C4015 C4016 1.366 . S
C4016 C4015 1.366 . S
C4016 C4017 1.414 . S
C4016 C4019 1.499 . S
C4017 H3991 0.950 . S
C4017 C4016 1.414 . S
C4017 C4018 1.374 . S
C4018 H3992 0.950 . S
C4018 C4014 1.385 . S
C4018 C4017 1.374 . S
C4019 C4016 1.499 . S
C4019 C4020 1.373 . S
C4019 C4021 1.389 . S
C4020 H3993 0.950 . S
C4020 C4006 1.377 . S
C4020 C4019 1.373 . S
C4021 C4005 1.377 . S
C4021 C4019 1.389 . S
C4021 C4022 1.524 . S
C4022 C4021 1.524 . S
C4022 C4023 1.397 . S
C4022 C4027 1.363 . S
C4023 H3994 0.950 . S
C4023 C4022 1.397 . S
C4023 C4024 1.334 . S
C4024 H3995 0.950 . S
C4024 C4023 1.334 . S
C4024 C4025 1.287 . S
C4025 C4024 1.287 . S
C4025 C4026 1.524 . S
C4025 H4028 0.999 . S
C4026 H3996 0.950 . S
C4026 C4025 1.524 . S
C4026 C4027 1.415 . S
C4027 H3997 0.950 . S
C4027 C4022 1.363 . S
C4027 C4026 1.415 . S
H4028 C4025 0.999 . S
H4029 C4010 0.913 . S
H4030 C4048 0.951 . S
H4031 C4050 0.951 . S
H4032 C4052 0.950 . S
H4033 C4053 0.950 . S
H4034 C4055 0.950 . S
H4035 C4058 0.950 . S
H4036 C4059 0.950 . S
H4037 C4061 0.950 . S
H4038 C4062 0.950 . S
H4039 C4063 0.951 . S
H4040 C4065 0.951 . S
H4041 C4067 0.950 . S
H4042 C4068 0.950 . S
H4043 C4070 0.950 . S
H4044 C4073 0.950 . S
H4045 C4074 0.950 . S
H4046 C4076 0.950 . S
H4047 C4077 0.950 . S
C4048 H4030 0.951 . S
C4048 C4049 1.366 . S
C4048 C4050 1.388 . S
C4049 C4048 1.366 . S
C4049 C4053 1.385 . S
C4050 H4031 0.951 . S
C4050 C4048 1.388 . S
C4050 C4051 1.366 . S
C4051 C4050 1.366 . S
C4051 C4052 1.414 . S
C4051 C4054 1.499 . S
C4052 H4032 0.950 . S
C4052 C4051 1.414 . S
C4052 C4053 1.374 . S
C4053 H4033 0.950 . S
C4053 C4049 1.385 . S
C4053 C4052 1.374 . S
C4054 C4051 1.499 . S
C4054 C4055 1.373 . S
C4054 C4056 1.389 . S
C4055 H4034 0.950 . S
C4055 C4054 1.373 . S
C4055 C4071 1.377 . S
C4056 C4054 1.389 . S
C4056 C4057 1.524 . S
C4056 C4070 1.377 . S
C4057 C4056 1.524 . S
C4057 C4058 1.397 . S
C4057 C4062 1.363 . S
C4058 H4035 0.950 . S
C4058 C4057 1.397 . S
C4058 C4059 1.334 . S
C4059 H4036 0.950 . S
C4059 C4058 1.334 . S
C4059 C4060 1.287 . S
C4060 C4059 1.287 . S
C4060 C4061 1.524 . S
C4060 H4079 0.913 . S
C4061 H4037 0.950 . S
C4061 C4060 1.524 . S
C4061 C4062 1.415 . S
C4062 H4038 0.950 . S
C4062 C4057 1.363 . S
C4062 C4061 1.415 . S
C4063 H4039 0.951 . S
C4063 C4064 1.366 . S
C4063 C4065 1.388 . S
C4064 C4063 1.366 . S
C4064 C4068 1.385 . S
C4065 H4040 0.951 . S
C4065 C4063 1.388 . S
C4065 C4066 1.366 . S
C4066 C4065 1.366 . S
C4066 C4067 1.414 . S
C4066 C4069 1.499 . S
C4067 H4041 0.950 . S
C4067 C4066 1.414 . S
C4067 C4068 1.374 . S
C4068 H4042 0.950 . S
C4068 C4064 1.385 . S
C4068 C4067 1.374 . S
C4069 C4066 1.499 . S
C4069 C4070 1.373 . S
C4069 C4071 1.389 . S
C4070 H4043 0.950 . S
C4070 C4056 1.377 . S
C4070 C4069 1.373 . S
C4071 C4055 1.377 . S
C4071 C4069 1.389 . S
C4071 C4072 1.524 . S
C4072 C4071 1.524 . S
C4072 C4073 1.397 . S
C4072 C4077 1.363 . S
C4073 H4044 0.950 . S
C4073 C4072 1.397 . S
C4073 C4074 1.334 . S
C4074 H4045 0.950 . S
C4074 C4073 1.334 . S
C4074 C4075 1.287 . S
C4075 C4074 1.287 . S
C4075 C4076 1.524 . S
C4075 H4078 0.999 . S
C4076 H4046 0.950 . S
C4076 C4075 1.524 . S
C4076 C4077 1.415 . S
C4077 H4047 0.950 . S
C4077 C4072 1.363 . S
C4077 C4076 1.415 . S
H4078 C4075 0.999 . S
H4079 C4060 0.913 . S
H4080 C4098 0.951 . S
H4081 C4100 0.951 . S
H4082 C4102 0.950 . S
H4083 C4103 0.958 . S
H4084 C4105 0.950 . S
H4085 C4108 0.950 . S
H4086 C4109 0.950 . S
H4087 C4111 0.950 . S
H4088 C4112 0.950 . S
H4089 C4113 0.951 . S
H4090 C4115 0.951 . S
H4091 C4117 0.950 . S
H4092 C4118 0.950 . S
H4093 C4120 0.950 . S
H4094 C4123 0.950 . S
H4095 C4124 0.950 . S
H4096 C4126 0.950 . S
H4097 C4127 0.950 . S
C4098 H4080 0.951 . S
C4098 C4099 1.366 . S
C4098 C4100 1.388 . S
C4099 C4098 1.366 . S
C4099 C4103 1.349 1_655 S
C4100 H4081 0.951 . S
C4100 C4098 1.388 . S
C4100 C4101 1.366 . S
C4101 C4100 1.366 . S
C4101 C4102 1.414 1_655 S
C4101 C4104 1.499 . S
C4102 H4082 0.950 . S
C4102 C4101 1.414 1_455 S
C4102 C4103 1.406 . S
C4103 H4083 0.958 . S
C4103 C4099 1.349 1_455 S
C4103 C4102 1.406 . S
C4104 C4101 1.499 . S
C4104 C4105 1.373 1_655 S
C4104 C4106 1.389 . S
C4105 H4084 0.950 . S
C4105 C4104 1.373 1_455 S
C4105 C4121 1.377 . S
C4106 C4104 1.389 . S
C4106 C4107 1.524 . S
C4106 C4120 1.377 . S
C4107 C4106 1.524 . S
C4107 C4108 1.397 . S
C4107 C4112 1.363 . S
C4108 H4085 0.950 . S
C4108 C4107 1.397 . S
C4108 C4109 1.334 . S
C4109 H4086 0.950 . S
C4109 C4108 1.334 . S
C4109 C4110 1.287 . S
C4110 C4109 1.287 . S
C4110 C4111 1.524 . S
C4110 H4129 0.913 . S
C4111 H4087 0.950 . S
C4111 C4110 1.524 . S
C4111 C4112 1.415 . S
C4112 H4088 0.950 . S
C4112 C4107 1.363 . S
C4112 C4111 1.415 . S
C4113 H4089 0.951 . S
C4113 C4114 1.366 1_455 S
C4113 C4115 1.388 . S
C4114 C4113 1.366 1_655 S
C4114 C4118 1.385 . S
C4115 H4090 0.951 . S
C4115 C4113 1.388 . S
C4115 C4116 1.366 1_455 S
C4116 C4115 1.366 1_655 S
C4116 C4117 1.414 . S
C4116 C4119 1.499 . S
C4117 H4091 0.950 . S
C4117 C4116 1.414 . S
C4117 C4118 1.374 . S
C4118 H4092 0.950 . S
C4118 C4114 1.385 . S
C4118 C4117 1.374 . S
C4119 C4116 1.499 . S
C4119 C4120 1.373 . S
C4119 C4121 1.389 1_655 S
C4120 H4093 0.950 . S
C4120 C4106 1.377 . S
C4120 C4119 1.373 . S
C4121 C4105 1.377 . S
C4121 C4119 1.389 1_455 S
C4121 C4122 1.524 . S
C4122 C4121 1.524 . S
C4122 C4123 1.397 . S
C4122 C4127 1.363 . S
C4123 H4094 0.950 . S
C4123 C4122 1.397 . S
C4123 C4124 1.334 . S
C4124 H4095 0.950 . S
C4124 C4123 1.334 . S
C4124 C4125 1.287 . S
C4125 C4124 1.287 . S
C4125 C4126 1.524 . S
C4125 H4128 0.999 . S
C4126 H4096 0.950 . S
C4126 C4125 1.524 . S
C4126 C4127 1.415 . S
C4127 H4097 0.950 . S
C4127 C4122 1.363 . S
C4127 C4126 1.415 . S
H4128 C4125 0.999 . S
H4129 C4110 0.913 . S
H4130 C4148 0.951 . S
H4131 C4150 0.951 . S
H4132 C4152 0.950 . S
H4133 C4153 0.950 . S
H4134 C4155 0.950 . S
H4135 C4158 0.950 . S
H4136 C4159 0.950 . S
H4137 C4161 0.950 . S
H4138 C4162 0.950 . S
H4139 C4163 0.951 . S
H4140 C4165 0.951 . S
H4141 C4167 0.950 . S
H4142 C4168 0.950 . S
H4143 C4170 0.950 . S
H4144 C4173 0.950 . S
H4145 C4174 0.950 . S
H4146 C4176 0.950 . S
H4147 C4177 0.950 . S
C4148 H4130 0.951 . S
C4148 C4149 1.366 . S
C4148 C4150 1.388 . S
C4149 C4148 1.366 . S
C4149 C4153 1.385 . S
C4150 H4131 0.951 . S
C4150 C4148 1.388 . S
C4150 C4151 1.366 . S
C4151 C4150 1.366 . S
C4151 C4152 1.414 . S
C4151 C4154 1.499 . S
C4152 H4132 0.950 . S
C4152 C4151 1.414 . S
C4152 C4153 1.374 . S
C4153 H4133 0.950 . S
C4153 C4149 1.385 . S
C4153 C4152 1.374 . S
C4154 C4151 1.499 . S
C4154 C4155 1.373 . S
C4154 C4156 1.389 . S
C4155 H4134 0.950 . S
C4155 C4154 1.373 . S
C4155 C4171 1.377 . S
C4156 C4154 1.389 . S
C4156 C4157 1.524 . S
C4156 C4170 1.377 . S
C4157 C4156 1.524 . S
C4157 C4158 1.397 . S
C4157 C4162 1.363 . S
C4158 H4135 0.950 . S
C4158 C4157 1.397 . S
C4158 C4159 1.334 . S
C4159 H4136 0.950 . S
C4159 C4158 1.334 . S
C4159 C4160 1.287 . S
C4160 C4159 1.287 . S
C4160 C4161 1.524 . S
C4160 H4179 0.913 . S
C4161 H4137 0.950 . S
C4161 C4160 1.524 . S
C4161 C4162 1.415 . S
C4162 H4138 0.950 . S
C4162 C4157 1.363 . S
C4162 C4161 1.415 . S
C4163 H4139 0.951 . S
C4163 C4164 1.366 . S
C4163 C4165 1.388 . S
C4164 C4163 1.366 . S
C4164 C4168 1.385 . S
C4165 H4140 0.951 . S
C4165 C4163 1.388 . S
C4165 C4166 1.366 . S
C4166 C4165 1.366 . S
C4166 C4167 1.414 . S
C4166 C4169 1.499 . S
C4167 H4141 0.950 . S
C4167 C4166 1.414 . S
C4167 C4168 1.374 . S
C4168 H4142 0.950 . S
C4168 C4164 1.385 . S
C4168 C4167 1.374 . S
C4169 C4166 1.499 . S
C4169 C4170 1.373 . S
C4169 C4171 1.389 . S
C4170 H4143 0.950 . S
C4170 C4156 1.377 . S
C4170 C4169 1.373 . S
C4171 C4155 1.377 . S
C4171 C4169 1.389 . S
C4171 C4172 1.524 . S
C4172 C4171 1.524 . S
C4172 C4173 1.397 . S
C4172 C4177 1.363 . S
C4173 H4144 0.950 . S
C4173 C4172 1.397 . S
C4173 C4174 1.334 . S
C4174 H4145 0.950 . S
C4174 C4173 1.334 . S
C4174 C4175 1.287 . S
C4175 C4174 1.287 . S
C4175 C4176 1.524 . S
C4175 H4178 0.999 . S
C4176 H4146 0.950 . S
C4176 C4175 1.524 . S
C4176 C4177 1.415 . S
C4177 H4147 0.950 . S
C4177 C4172 1.363 . S
C4177 C4176 1.415 . S
H4178 C4175 0.999 . S
H4179 C4160 0.913 . S
H4180 C4198 0.980 . S
H4181 C4200 0.951 1_565 S
H4182 C4202 0.950 . S
H4183 C4203 0.950 . S
H4184 C4205 0.950 . S
H4185 C4208 0.950 . S
H4186 C4209 0.950 . S
H4187 C4211 0.950 . S
H4188 C4212 0.950 . S
H4189 C4213 0.951 . S
H4190 C4215 0.951 . S
H4191 C4217 0.950 . S
H4192 C4218 0.950 . S
H4193 C4220 0.950 . S
H4194 C4223 0.950 . S
H4195 C4224 0.950 . S
H4196 C4226 0.950 . S
H4197 C4227 0.950 . S
C4198 H4180 0.980 . S
C4198 C4199 1.366 . S
C4198 C4200 1.388 . S
C4199 C4198 1.366 . S
C4199 C4203 1.385 . S
C4200 H4181 0.951 1_545 S
C4200 C4198 1.388 . S
C4200 C4201 1.366 . S
C4201 C4200 1.366 . S
C4201 C4202 1.414 . S
C4201 C4204 1.499 . S
C4202 H4182 0.950 . S
C4202 C4201 1.414 . S
C4202 C4203 1.374 . S
C4203 H4183 0.950 . S
C4203 C4199 1.385 . S
C4203 C4202 1.374 . S
C4204 C4201 1.499 . S
C4204 C4205 1.373 . S
C4204 C4206 1.389 1_545 S
C4205 H4184 0.950 . S
C4205 C4204 1.373 . S
C4205 C4221 1.377 . S
C4206 C4204 1.389 1_565 S
C4206 C4207 1.524 . S
C4206 C4220 1.377 . S
C4207 C4206 1.524 . S
C4207 C4208 1.397 . S
C4207 C4212 1.363 . S
C4208 H4185 0.950 . S
C4208 C4207 1.397 . S
C4208 C4209 1.334 . S
C4209 H4186 0.950 . S
C4209 C4208 1.334 . S
C4209 C4210 1.287 . S
C4210 C4209 1.287 . S
C4210 C4211 1.524 . S
C4210 H4229 0.913 . S
C4211 H4187 0.950 . S
C4211 C4210 1.524 . S
C4211 C4212 1.415 . S
C4212 H4188 0.950 . S
C4212 C4207 1.363 . S
C4212 C4211 1.415 . S
C4213 H4189 0.951 . S
C4213 C4214 1.403 . S
C4213 C4215 1.388 . S
C4214 C4213 1.403 . S
C4214 C4218 1.317 1_545 S
C4215 H4190 0.951 . S
C4215 C4213 1.388 . S
C4215 C4216 1.366 . S
C4216 C4215 1.366 . S
C4216 C4217 1.414 1_545 S
C4216 C4219 1.499 . S
C4217 H4191 0.950 . S
C4217 C4216 1.414 1_565 S
C4217 C4218 1.374 . S
C4218 H4192 0.950 . S
C4218 C4214 1.317 1_565 S
C4218 C4217 1.374 . S
C4219 C4216 1.499 . S
C4219 C4220 1.373 1_545 S
C4219 C4221 1.389 . S
C4220 H4193 0.950 . S
C4220 C4206 1.377 . S
C4220 C4219 1.373 1_565 S
C4221 C4205 1.377 . S
C4221 C4219 1.389 . S
C4221 C4222 1.524 . S
C4222 C4221 1.524 . S
C4222 C4223 1.397 . S
C4222 C4227 1.363 . S
C4223 H4194 0.950 . S
C4223 C4222 1.397 . S
C4223 C4224 1.334 . S
C4224 H4195 0.950 . S
C4224 C4223 1.334 . S
C4224 C4225 1.287 . S
C4225 C4224 1.287 . S
C4225 C4226 1.524 . S
C4225 H4228 0.999 . S
C4226 H4196 0.950 . S
C4226 C4225 1.524 . S
C4226 C4227 1.415 . S
C4227 H4197 0.950 . S
C4227 C4222 1.363 . S
C4227 C4226 1.415 . S
H4228 C4225 0.999 . S
H4229 C4210 0.913 . S
C649 C9 1.545 1_655 S
C664 C458 1.496 1_655 S
C699 C19 1.566 . S
C714 C471 1.530 . S
C764 C500 1.498 1_545 S
C749 C33 1.579 . S
C799 C37 1.572 . S
C814 C513 1.505 . S
C849 C5 1.539 . S
C864 C534 1.500 . S
C899 C23 1.588 . S
C914 C563 1.502 . S
C949 C47 1.560 . S
C964 C542 1.515 . S
C1014 C555 1.522 . S
C999 C65 1.591 . S
C1064 C521 1.482 . S
C1049 C75 1.560 . S
C1099 C79 1.511 . S
C1114 C492 1.445 1_545 S
C1164 C450 1.498 1_655 S
C1149 C51 1.579 1_655 S
C1199 C61 1.569 . S
C1214 C479 1.524 . S
C1249 C93 1.660 . S
C1264 C584 1.565 . S
C1299 C103 1.606 . S
C1314 C597 1.573 . S
C1364 C626 1.547 . S
C1349 C117 1.634 . S
C1399 C121 1.602 . S
C1414 C261 1.568 . S
C1449 C89 1.614 . S
C1464 C282 1.580 . S
C1499 C107 1.615 . S
C1514 C311 1.526 . S
C1549 C131 1.592 . S
C1564 C290 1.546 . S
C1599 C149 1.611 . S
C1614 C303 1.540 . S
C1664 C269 1.540 . S
C1649 C159 1.584 . S
C1714 C618 1.524 . S
C1699 C163 1.593 . S
C1764 C576 1.554 . S
C1749 C135 1.633 . S
C1814 C605 1.564 . S
C1799 C145 1.607 . S
C1849 C177 1.615 . S
C1864 C332 1.524 . S
C1899 C187 1.584 . S
C1914 C345 1.550 . S
C1949 C201 1.637 . S
C1964 C374 1.550 . S
C1999 C205 1.648 . S
C2014 C387 1.613 . S
C2064 C408 1.579 . S
C2049 C173 1.612 . S
C2114 C437 1.545 . S
C2099 C191 1.636 . S
C2164 C416 1.597 . S
C2149 C215 1.642 . S
C2214 C429 1.564 . S
C2199 C233 1.638 . S
C2249 C243 1.578 . S
C2264 C395 1.534 . S
C2314 C366 1.473 . S
C2299 C247 1.541 . S
C2349 C219 1.637 . S
C2364 C324 1.560 . S
C2414 C353 1.554 . S
C2399 C229 1.597 . S
C2464 C264 1.399 . S
C2449 C11 1.503 . S
C2499 C14 1.454 . S
C2514 C285 1.356 . S
C2564 C313 1.433 . S
C2549 C28 1.539 . S
C2614 C334 1.419 . S
C2599 C39 1.529 . S
C2664 C348 1.398 . S
C2649 C0 1.500 . S
C2714 C376 1.323 . S
C2699 C25 1.423 . S
C2749 C42 1.573 . S
C2764 C369 1.419 . S
C2799 C67 1.484 . S
C2814 C327 1.334 . S
C2849 C70 1.466 . S
C2864 C355 1.388 . S
C2899 C81 1.492 . S
C2914 C292 1.420 . S
C2964 C306 1.381 . S
C2949 C53 1.537 . S
C2999 C56 1.499 . S
C3014 C271 1.423 . S
C3064 C390 1.387 . S
C3049 C95 1.492 . S
C3099 C98 1.533 . S
C3114 C411 1.431 . S
C3149 C112 1.595 . S
C3164 C439 1.487 . S
C3214 C460 1.364 . S
C3199 C123 1.442 . S
C3249 C84 1.501 . S
C3264 C474 1.398 . S
C3299 C109 1.405 . S
C3314 C502 1.331 . S
C3349 C126 1.496 . S
C3364 C495 1.373 . S
C3399 C151 1.442 . S
C3414 C453 1.371 . S
C3464 C481 1.412 . S
C3449 C154 1.489 . S
C3499 C165 1.471 . S
C3514 C418 1.391 . S
C3549 C137 1.579 . S
C3564 C432 1.419 . S
C3614 C397 1.502 . S
C3599 C140 1.578 . S
C3664 C516 1.291 1_545 S
C3649 C179 1.441 . S
C3699 C182 1.431 . S
C3714 C537 1.327 1_655 S
C3749 C196 1.540 . S
C3764 C565 1.437 . S
C3814 C586 1.406 . S
C3799 C207 1.515 . S
C3864 C600 1.437 . S
C3849 C168 1.545 . S
C3899 C193 1.512 . S
C3914 C628 1.408 . S
C3949 C210 1.569 . S
C3964 C621 1.413 . S
C3999 C235 1.564 . S
C4014 C579 1.409 . S
C4064 C607 1.450 . S
C4049 C238 1.531 . S
C4114 C544 1.318 1_655 S
C4099 C249 1.389 . S
C4164 C558 1.379 . S
C4149 C221 1.531 . S
C4199 C224 1.465 . S
C4214 C523 1.412 1_545 S
