# Generated by pormake.
# Topology anh, (6,3)-cn, num edge types: 1
# Building blocks:
#     Node 0, Type 0, BuildingBlock: NUHQIS_clean_sbu_0, # of connection points: 6
#     Node 1, Type 0, BuildingBlock: NUHQIS_clean_sbu_0, # of connection points: 6
#     Node 2, Type 0, BuildingBlock: NUHQIS_clean_sbu_0, # of connection points: 6
#     Node 3, Type 1, BuildingBlock: KAKCAD_clean_linker_0, # of connection points: 3
#     Node 4, Type 1, BuildingBlock: KAKCAD_clean_linker_0, # of connection points: 3
#     Node 5, Type 1, BuildingBlock: KAKCAD_clean_linker_0, # of connection points: 3
#     Node 6, Type 1, BuildingBlock: KAKCAD_clean_linker_0, # of connection points: 3
#     Node 7, Type 1, BuildingBlock: KAKCAD_clean_linker_0, # of connection points: 3
#     Node 8, Type 1, BuildingBlock: KAKCAD_clean_linker_0, # of connection points: 3
#     Edge 9, Type (0, 1), BuildingBlock: KIFKEQ_clean_linker_1, # of connection points: 2
#     Edge 10, Type (0, 1), BuildingBlock: KIFKEQ_clean_linker_1, # of connection points: 2
#     Edge 11, Type (0, 1), BuildingBlock: KIFKEQ_clean_linker_1, # of connection points: 2
#     Edge 12, Type (0, 1), BuildingBlock: KIFKEQ_clean_linker_1, # of connection points: 2
#     Edge 13, Type (0, 1), BuildingBlock: KIFKEQ_clean_linker_1, # of connection points: 2
#     Edge 14, Type (0, 1), BuildingBlock: KIFKEQ_clean_linker_1, # of connection points: 2
#     Edge 15, Type (0, 1), BuildingBlock: KIFKEQ_clean_linker_1, # of connection points: 2
#     Edge 16, Type (0, 1), BuildingBlock: KIFKEQ_clean_linker_1, # of connection points: 2
#     Edge 17, Type (0, 1), BuildingBlock: KIFKEQ_clean_linker_1, # of connection points: 2
#     Edge 18, Type (0, 1), BuildingBlock: KIFKEQ_clean_linker_1, # of connection points: 2
#     Edge 19, Type (0, 1), BuildingBlock: KIFKEQ_clean_linker_1, # of connection points: 2
#     Edge 20, Type (0, 1), BuildingBlock: KIFKEQ_clean_linker_1, # of connection points: 2
#     Edge 21, Type (0, 1), BuildingBlock: KIFKEQ_clean_linker_1, # of connection points: 2
#     Edge 22, Type (0, 1), BuildingBlock: KIFKEQ_clean_linker_1, # of connection points: 2
#     Edge 23, Type (0, 1), BuildingBlock: KIFKEQ_clean_linker_1, # of connection points: 2
#     Edge 24, Type (0, 1), BuildingBlock: KIFKEQ_clean_linker_1, # of connection points: 2
#     Edge 25, Type (0, 1), BuildingBlock: KIFKEQ_clean_linker_1, # of connection points: 2
#     Edge 26, Type (0, 1), BuildingBlock: KIFKEQ_clean_linker_1, # of connection points: 2
# Relax obj value: 0.234
# Max RMSD: 0.188
# Mean RMSD: 0.154
data_MOF--net-anh--node1-NUHQIS_clean_sbu_0--node2-KAKCAD_clean_linker_0--edge1-KIFKEQ_clean_linker_1
_symmetry_space_group_name_H-M    P1
_symmetry_Int_Tables_number       1
_symmetry_cell_setting            triclinic
loop_
_symmetry_equiv_pos_as_xyz
'x, y, z'
_cell_length_a     36.789742
_cell_length_b     36.612051
_cell_length_c     67.786882
_cell_angle_alpha  89.990035
_cell_angle_beta   92.914317
_cell_angle_gamma 120.17534
loop_
_atom_site_label
_atom_site_type_symbol
_atom_site_fract_x
_atom_site_fract_y
_atom_site_fract_z
_atom_type_partial_charge
Tb0 Tb 0.18378 0.60149 0.16826 0.0
Eu1 Eu 0.13652 0.65705 0.16341 0.0
C2 C 0.15519 0.62944 0.20564 0.0
C3 C 1.08425 0.55404 0.16585 0.0
C4 C 0.23098 0.53466 0.15794 0.0
C5 C 0.22378 0.46661 0.14963 0.0
C6 C 0.21485 0.49169 0.16174 0.0
C7 C 0.25569 0.55196 0.14162 0.0
C8 C 0.26486 0.52703 0.12963 0.0
C9 C 0.24936 0.48413 0.13357 0.0
C10 C 0.22286 0.5612 0.17137 0.0
O11 O 0.18198 0.60872 0.13638 0.0
O12 O 0.14624 0.64519 0.13205 0.0
O13 O 0.20496 0.70547 0.16044 0.0
O14 O 0.23176 0.66795 0.17633 0.0
C15 C 0.16532 0.62624 0.12499 0.0
O16 O 1.08803 0.6667 0.14875 0.0
O17 O 0.12535 0.7068 0.17388 0.0
O18 O 0.15506 0.65994 0.19565 0.0
O19 O 0.15991 0.60006 0.19712 0.0
O20 O 0.11786 0.55344 0.16039 0.0
O21 O 1.08635 0.59003 0.17039 0.0
C22 C 0.23675 0.70376 0.16922 0.0
O23 O 0.24053 0.60124 0.16763 0.0
O24 O 0.18418 0.54602 0.17618 0.0
C25 C 1.05239 0.68064 0.17224 0.0
C26 C 0.96995 0.63918 0.185 0.0
C27 C 0.98232 0.67141 0.17118 0.0
C28 C 1.0233 0.69185 0.16473 0.0
C29 C 1.04107 0.65093 0.18721 0.0
C30 C 1.00015 0.63032 0.19353 0.0
C31 C 1.0914 0.69363 0.16233 0.0
H32 H 0.21091 0.43358 0.15296 0.0
H33 H 0.19567 0.47759 0.17422 0.0
H34 H 0.26866 0.585 0.13825 0.0
H35 H 0.28531 0.54187 0.11764 0.0
H36 H 0.95948 0.67846 0.1642 0.0
H37 H 1.03142 0.71435 0.15303 0.0
H38 H 1.06308 0.64163 0.19308 0.0
H39 H 0.99143 0.6057 0.20423 0.0
Tb40 Tb 0.69844 0.13979 0.50465 0.0
Eu41 Eu 0.59792 0.08725 0.49513 0.0
C42 C 0.63657 0.10275 0.53796 0.0
C43 C 0.65152 1.0385 0.50011 0.0
C44 C 0.79649 0.2273 0.52476 0.0
C45 C 0.79035 0.27809 0.54535 0.0
C46 C 0.7763 0.23632 0.53948 0.0
C47 C 0.83281 0.26033 0.51717 0.0
C48 C 0.84665 0.30212 0.52291 0.0
C49 C 0.8244 0.31159 0.5364 0.0
C50 C 0.77538 0.18559 0.51461 0.0
O51 O 0.68931 0.12155 0.47316 0.0
O52 O 0.62649 0.1191 0.46723 0.0
O53 O 0.61234 0.15322 0.50445 0.0
O54 O 0.68268 0.18958 0.49897 0.0
C55 C 0.66078 0.12202 0.46077 0.0
O56 O 0.54195 1.04376 0.4769 0.0
O57 O 0.53572 0.07103 0.50407 0.0
O58 O 0.6119 0.07228 0.52543 0.0
O59 O 0.66691 0.13815 0.53145 0.0
O60 O 0.68428 0.07399 0.50732 0.0
O61 O 0.61764 1.03782 0.49224 0.0
C62 C 0.64757 0.1892 0.50246 0.0
O63 O 0.74933 0.15375 0.52483 0.0
O64 O 0.75923 0.18492 0.49695 0.0
C65 C 0.48685 1.00017 0.49672 0.0
C66 C 0.43037 0.91901 0.50964 0.0
C67 C 0.41543 0.94325 0.49982 0.0
C68 C 0.44351 0.98357 0.49342 0.0
C69 C 0.50201 0.97653 0.50679 0.0
C70 C 0.47396 0.93617 0.51316 0.0
C71 C 0.51642 1.04231 0.48999 0.0
H72 H 0.77293 0.28419 0.55601 0.0
H73 H 0.74798 0.2114 0.54551 0.0
H74 H 0.84854 0.25406 0.50567 0.0
H75 H 0.87267 0.32698 0.51547 0.0
H76 H 0.38203 0.93057 0.49654 0.0
H77 H 0.43144 1.00157 0.48573 0.0
H78 H 0.53555 0.98924 0.50959 0.0
H79 H 0.48634 0.91832 0.52074 0.0
Tb80 Tb 0.70385 0.65953 0.83485 0.0
Eu81 Eu 0.65056 0.55664 0.8291 0.0
C82 C 0.67914 0.60085 0.8707 0.0
C83 C 0.75466 0.60963 0.83339 0.0
C84 C 0.72055 0.76616 0.83475 0.0
C85 C 0.6906 0.80786 0.84612 0.0
C86 C 0.71429 0.78815 0.84993 0.0
C87 C 0.7048 0.76633 0.81544 0.0
C88 C 0.68148 0.78631 0.81161 0.0
C89 C 0.67292 0.80612 0.82701 0.0
C90 C 0.73768 0.73826 0.83975 0.0
O91 O 0.6816 0.64712 0.80364 0.0
O92 O 0.6747 0.58194 0.79957 0.0
O93 O 0.59923 0.57405 0.82759 0.0
O94 O 0.63822 0.64319 0.83896 0.0
C95 C 0.67802 0.61641 0.79216 0.0
O96 O 0.63636 0.49517 0.84026 0.0
O97 O 0.60691 0.49915 0.8123 0.0
O98 O 0.6456 0.57386 0.86008 0.0
O99 O 0.71089 0.6319 0.86229 0.0
O100 O 0.75504 0.64575 0.83136 0.0
O101 O 0.71906 0.57336 0.83446 0.0
C102 C 0.60159 0.60929 0.83389 0.0
O103 O 0.71834 0.71141 0.85346 0.0
O104 O 0.74513 0.72042 0.82501 0.0
C105 C 0.56914 0.43751 0.8306 0.0
C106 C 0.49167 0.3632 0.83553 0.0
C107 C 0.5292 0.36191 0.83473 0.0
C108 C 0.56746 0.39868 0.83232 0.0
C109 C 0.53238 0.43966 0.83236 0.0
C110 C 0.49384 0.40269 0.83479 0.0
C111 C 0.60903 0.47441 0.82563 0.0
H112 H 0.68446 0.82262 0.85835 0.0
H113 H 0.72586 0.78821 0.86496 0.0
H114 H 0.70894 0.74958 0.80339 0.0
H115 H 0.6692 0.78525 0.79663 0.0
H116 H 0.52887 0.33218 0.83479 0.0
H117 H 0.59555 0.39651 0.83097 0.0
H118 H 0.53325 0.46961 0.83121 0.0
H119 H 0.46564 0.40486 0.83551 0.0
C120 C 0.69257 0.16744 0.30199 0.0
C121 C 0.68048 0.12957 0.31188 0.0
C122 C 0.69114 0.16802 0.28128 0.0
C123 C 0.67786 0.13078 0.26991 0.0
C124 C 0.66679 0.09315 0.27988 0.0
C125 C 0.6679 0.09253 0.30054 0.0
C126 C 0.67469 0.13078 0.24778 0.0
C127 C 0.70487 0.16467 0.23734 0.0
C128 C 0.70214 0.16561 0.2165 0.0
C129 C 0.6684 0.12976 0.20594 0.0
C130 C 0.63779 0.09452 0.21629 0.0
C131 C 0.64123 0.09661 0.23711 0.0
C132 C 0.60166 1.05449 0.20651 0.0
C133 C 0.5747 1.05479 0.19106 0.0
C134 C 0.59067 1.01506 0.21469 0.0
C135 C 0.55313 0.97804 0.20876 0.0
C136 C 0.52492 0.97804 0.19385 0.0
C137 C 0.73547 0.20485 0.20682 0.0
C138 C 0.74984 0.24503 0.2157 0.0
C139 C 0.75659 0.20309 0.19038 0.0
C140 C 0.79194 0.24001 0.18372 0.0
C141 C 0.8075 0.28002 0.19328 0.0
C142 C 0.78511 0.28151 0.20927 0.0
C143 C 0.53707 1.01722 0.18479 0.0
H144 H 0.70198 0.19646 0.31025 0.0
H145 H 0.69944 0.19749 0.27419 0.0
H146 H 0.65731 1.06402 0.27171 0.0
H147 H 0.65905 1.06296 0.30767 0.0
H148 H 0.73136 0.19043 0.2456 0.0
H149 H 0.61704 0.0713 0.24523 0.0
H150 H 0.66603 0.12928 0.18995 0.0
H151 H 0.58175 0.08431 0.18435 0.0
H152 H 0.6106 1.01296 0.22643 0.0
H153 H 0.54586 0.94971 0.21664 0.0
H154 H 0.73438 0.24828 0.2282 0.0
H155 H 0.74681 0.17297 0.1831 0.0
H156 H 0.51735 1.01926 0.17297 0.0
H157 H 0.79547 0.31072 0.2175 0.0
H158 H 0.80722 0.23691 0.17113 0.0
C159 C 0.63168 0.62586 0.63174 0.0
C160 C 0.6644 0.62427 0.64263 0.0
C161 C 0.6297 0.62453 0.61104 0.0
C162 C 0.65996 0.62081 0.60074 0.0
C163 C 0.69253 0.61891 0.61161 0.0
C164 C 0.69494 0.62101 0.63233 0.0
C165 C 0.65756 0.6191 0.57871 0.0
C166 C 0.65207 0.64897 0.56806 0.0
C167 C 0.64948 0.64819 0.54724 0.0
C168 C 0.65207 0.61564 0.53696 0.0
C169 C 0.65747 0.58484 0.54756 0.0
C170 C 0.66046 0.58755 0.56838 0.0
C171 C 0.6596 0.54892 0.53778 0.0
C172 C 0.62768 0.52026 0.52415 0.0
C173 C 0.69101 0.53963 0.54428 0.0
C174 C 0.68985 0.50243 0.53802 0.0
C175 C 0.65708 0.4727 0.52502 0.0
C176 C 0.64456 0.68243 0.53719 0.0
C177 C 0.61539 0.69318 0.54391 0.0
C178 C 0.67239 0.70858 0.52315 0.0
C179 C 0.67227 0.74536 0.5168 0.0
C180 C 0.64412 0.75703 0.52421 0.0
C181 C 0.61518 0.72963 0.5376 0.0
C182 C 0.62631 0.48264 0.51794 0.0
H183 H 0.6078 0.62856 0.63926 0.0
H184 H 0.60412 0.62584 0.60307 0.0
H185 H 0.71642 0.61628 0.60408 0.0
H186 H 0.72034 0.61939 0.64031 0.0
H187 H 0.65085 0.67384 0.57615 0.0
H188 H 0.66386 0.56405 0.57671 0.0
H189 H 0.64989 0.61428 0.52096 0.0
H190 H 0.60268 0.52596 0.51896 0.0
H191 H 0.71608 0.56074 0.55481 0.0
H192 H 0.71399 0.49629 0.54408 0.0
H193 H 0.59342 0.67397 0.55473 0.0
H194 H 0.69558 0.7017 0.51775 0.0
H195 H 0.60079 0.46111 0.50774 0.0
H196 H 0.59322 0.73712 0.54396 0.0
H197 H 0.69471 0.76495 0.50626 0.0
C198 C 0.21887 0.64385 0.96658 0.0
C199 C 0.18291 0.61468 0.97619 0.0
C200 C 0.21962 0.6426 0.94593 0.0
C201 C 0.18423 0.6125 0.93436 0.0
C202 C 0.14841 0.58315 0.94398 0.0
C203 C 0.14784 0.58409 0.96462 0.0
C204 C 0.18407 0.61239 0.91231 0.0
C205 C 0.21826 0.61566 0.90256 0.0
C206 C 0.21896 0.61602 0.88173 0.0
C207 C 0.18303 0.61227 0.87057 0.0
C208 C 0.14773 0.60851 0.88029 0.0
C209 C 0.14946 0.60907 0.9011 0.0
C210 C 0.10801 0.60376 0.8699 0.0
C211 C 0.10865 0.63248 0.85588 0.0
C212 C 1.06844 0.57378 0.8766 0.0
C213 C 1.03139 0.57384 0.87051 0.0
C214 C 1.03176 0.60351 0.8571 0.0
C215 C 0.25779 0.62 0.87265 0.0
C216 C 0.29811 0.64644 0.88193 0.0
C217 C 0.25542 0.59482 0.85634 0.0
C218 C 0.29177 0.59487 0.85018 0.0
C219 C 0.33191 0.62006 0.86012 0.0
C220 C 0.33404 0.64617 0.87599 0.0
C221 C 1.07118 0.63234 0.84957 0.0
H222 H 0.24655 0.66759 0.97505 0.0
H223 H 0.2476 0.66579 0.93897 0.0
H224 H 0.12074 0.55936 0.93552 0.0
H225 H 0.11953 0.56135 0.9715 0.0
H226 H 0.24425 0.61691 0.91142 0.0
H227 H 0.12365 0.60764 0.90877 0.0
H228 H 0.1825 0.61218 0.85458 0.0
H229 H 0.13835 0.65632 0.85047 0.0
H230 H 1.06631 0.55104 0.88738 0.0
H231 H 1.00267 0.55138 0.87714 0.0
H232 H 0.30194 0.66696 0.89433 0.0
H233 H 0.22523 0.57389 0.84875 0.0
H234 H 1.07342 0.65536 0.83896 0.0
H235 H 0.36336 0.66576 0.88448 0.0
H236 H 0.28812 0.57476 0.83766 0.0
C237 C 1.03556 0.61393 0.35013 0.0
C238 C 1.06504 0.6025 0.34493 0.0
C239 C 1.0263 0.61382 0.36993 0.0
C240 C 1.04601 0.60174 0.38477 0.0
C241 C 1.07361 0.58794 0.3792 0.0
C242 C 1.0834 0.58883 0.35955 0.0
C243 C 1.04042 0.60614 0.40607 0.0
C244 C 1.00114 0.59681 0.41291 0.0
C245 C 0.99709 0.60182 0.4331 0.0
C246 C 1.03212 0.61516 0.44645 0.0
C247 C 1.07108 0.62394 0.43998 0.0
C248 C 1.07519 0.62011 0.41978 0.0
C249 C 0.10739 0.63691 0.45441 0.0
C250 C 0.11541 0.6662 0.46976 0.0
C251 C 0.13452 0.62058 0.45281 0.0
C252 C 0.16998 0.63467 0.46581 0.0
C253 C 0.17895 0.66534 0.48064 0.0
C254 C 0.95588 0.58827 0.44134 0.0
C255 C 0.95277 0.6138 0.45588 0.0
C256 C 0.92364 0.54605 0.43871 0.0
C257 C 0.89242 0.52803 0.45232 0.0
C258 C 0.89313 0.55207 0.46873 0.0
C259 C 0.92157 0.59582 0.46949 0.0
C260 C 0.15076 0.68024 0.48273 0.0
H261 H 1.02108 0.62462 0.33901 0.0
H262 H 1.00508 0.62483 0.37367 0.0
H263 H 1.08841 0.57718 0.39011 0.0
H264 H 0.10575 0.57928 0.35578 0.0
H265 H 0.97373 0.58504 0.4027 0.0
H266 H 0.1059 0.62878 0.41472 0.0
H267 H 1.02852 0.61683 0.46215 0.0
H268 H 1.09528 0.67961 0.47127 0.0
H269 H 0.1286 0.59728 0.44136 0.0
H270 H 0.191 0.62243 0.46393 0.0
H271 H 0.97709 0.64667 0.45801 0.0
H272 H 0.92537 0.52572 0.42764 0.0
H273 H 0.1572 0.70457 0.49371 0.0
H274 H 0.92235 0.61529 0.48172 0.0
H275 H 0.87101 0.49421 0.45124 0.0
C276 C 0.47676 1.00521 0.67197 0.0
C277 C 0.50128 1.04803 0.66729 0.0
C278 C 0.45375 0.99357 0.68889 0.0
C279 C 0.45452 1.02446 0.70146 0.0
C280 C 0.47772 1.06716 0.69641 0.0
C281 C 0.50089 0.07883 0.67952 0.0
C282 C 0.43454 1.01272 0.72067 0.0
C283 C 0.44143 0.98572 0.73297 0.0
C284 C 0.42825 0.97902 0.75235 0.0
C285 C 0.40707 0.9989 0.75935 0.0
C286 C 0.39918 1.02551 0.74712 0.0
C287 C 0.41264 1.03179 0.7277 0.0
C288 C 0.38164 1.05065 0.75536 0.0
C289 C 0.3494 1.03325 0.76871 0.0
C290 C 0.39961 0.09359 0.75099 0.0
C291 C 0.38693 0.1189 0.76026 0.0
C292 C 0.35591 0.10211 0.77421 0.0
C293 C 0.44172 0.95559 0.76577 0.0
C294 C 0.43656 0.91657 0.75961 0.0
C295 C 0.46455 0.97462 0.78368 0.0
C296 C 0.48415 0.95625 0.7946 0.0
C297 C 0.48083 0.91832 0.78789 0.0
C298 C 0.45574 0.89797 0.77064 0.0
C299 C 0.33668 1.05876 0.77808 0.0
H300 H 0.47556 0.9806 0.66261 0.0
H301 H 0.43579 0.96041 0.6923 0.0
H302 H 0.47945 0.09174 0.70598 0.0
H303 H 0.51968 0.11209 0.67644 0.0
H304 H 0.45983 0.97226 0.72793 0.0
H305 H 0.40704 1.05243 0.71816 0.0
H306 H 0.39847 0.99507 0.77458 0.0
H307 H 0.33462 1.00013 0.77223 0.0
H308 H 0.42515 0.10836 0.74116 0.0
H309 H 0.40336 0.15233 0.75727 0.0
H310 H 0.41906 0.90131 0.74586 0.0
H311 H 0.46931 1.00492 0.78866 0.0
H312 H 0.31256 1.0448 0.78867 0.0
H313 H 0.4529 0.86888 0.76503 0.0
H314 H 0.50309 0.97241 0.80792 0.0
C315 C 0.63179 0.43031 -5e-05 0.0
C316 C 0.66215 0.47352 0.00175 0.0
C317 C 0.6138 0.40735 0.01673 0.0
C318 C 0.62637 0.42714 0.03558 0.0
C319 C 0.659 0.46954 0.03741 0.0
C320 C 0.67654 0.49257 0.02064 0.0
C321 C 0.60173 0.4064 0.05292 0.0
C322 C 0.62235 0.41047 0.07145 0.0
C323 C 0.60012 0.40047 0.08872 0.0
C324 C 0.55671 0.38563 0.08728 0.0
C325 C 0.53526 0.3808 0.0688 0.0
C326 C 0.55796 0.38989 0.05164 0.0
C327 C 0.49152 0.37359 0.06789 0.0
C328 C 0.46309 0.3493 0.0821 0.0
C329 C 0.47977 0.39558 0.05439 0.0
C330 C 0.44233 0.39598 0.05605 0.0
C331 C 0.41616 0.3754 0.07158 0.0
C332 C 0.62371 0.41246 0.10821 0.0
C333 C 0.65546 0.40261 0.11259 0.0
C334 C 0.61805 0.43835 0.12154 0.0
C335 C 0.64561 0.45658 0.13817 0.0
C336 C 0.67907 0.44895 0.14185 0.0
C337 C 0.68277 0.42051 0.12934 0.0
C338 C 0.42609 0.35054 0.08407 0.0
H339 H 0.62 0.415 0.9855 0.0
H340 H 0.58873 0.37472 0.01494 0.0
H341 H 0.66899 0.48581 0.05171 0.0
H342 H 0.7 0.52581 0.02238 0.0
H343 H 0.65631 0.42443 0.07255 0.0
H344 H 0.54224 0.38735 0.03733 0.0
H345 H 0.54039 0.38056 0.10075 0.0
H346 H 0.47044 0.33103 0.09242 0.0
H347 H 0.50061 0.41496 0.04327 0.0
H348 H 0.43511 0.41438 0.04576 0.0
H349 H 0.66033 0.38263 0.10256 0.0
H350 H 0.59407 0.44681 0.11844 0.0
H351 H 0.40683 0.33415 0.09621 0.0
H352 H 0.70858 0.41443 0.13172 0.0
H353 H 0.64211 0.47837 0.1476 0.0
H354 H 0.25909 0.48587 0.09364 0.0
H355 H 0.26963 0.42546 0.1467 0.0
H356 H 0.2912 0.45296 0.07539 0.0
H357 H 0.30047 0.39176 0.12827 0.0
H358 H 0.41645 0.44987 0.06761 0.0
H359 H 0.36651 0.46813 0.07943 0.0
H360 H 0.28998 0.34117 0.09953 0.0
H361 H 0.33934 0.32185 0.08687 0.0
C362 C 0.26773 0.46521 0.10137 0.0
C363 C 0.26234 0.45886 0.12173 0.0
C364 C 0.28584 0.44618 0.09087 0.0
C365 C 0.29845 0.42 0.10045 0.0
C366 C 0.29057 0.4114 0.12046 0.0
C367 C 0.27285 0.43076 0.13102 0.0
C368 C 0.3883 0.42515 0.07383 0.0
C369 C 0.38216 0.38427 0.07627 0.0
C370 C 0.35968 0.43581 0.0807 0.0
C371 C 0.32445 0.4061 0.09043 0.0
C372 C 0.31713 0.36474 0.0922 0.0
C373 C 0.34554 0.35382 0.08504 0.0
H374 H 0.76604 0.33685 0.53881 0.0
H375 H 0.90016 0.38601 0.53775 0.0
H376 H 0.77692 0.40669 0.53193 0.0
H377 H 0.9102 0.45473 0.52918 0.0
H378 H 0.81367 0.48379 0.47168 0.0
H379 H 0.79291 0.4331 0.49794 0.0
H380 H 0.90572 0.51901 0.53305 0.0
H381 H 0.92705 0.56918 0.50661 0.0
C382 C 0.79799 0.36266 0.53772 0.0
C383 C 0.83221 0.35546 0.53823 0.0
C384 C 0.80398 0.40256 0.53345 0.0
C385 C 0.84394 0.43564 0.52917 0.0
C386 C 0.87881 0.42985 0.53223 0.0
C387 C 0.873 0.39019 0.53686 0.0
C388 C 0.83321 0.49253 0.4853 0.0
C389 C 0.87251 0.52994 0.48679 0.0
C390 C 0.82118 0.4636 0.50048 0.0
C391 C 0.84833 0.47166 0.51738 0.0
C392 C 0.88459 0.51166 0.52004 0.0
C393 C 0.89659 0.54059 0.50488 0.0
H394 H 0.67884 0.87848 0.84242 0.0
H395 H 0.60023 0.77056 0.8035 0.0
H396 H 0.63004 0.90456 0.83639 0.0
H397 H 0.55309 0.7978 0.79654 0.0
H398 H 0.45638 0.83705 0.79779 0.0
H399 H 0.50144 0.80962 0.80986 0.0
H400 H 0.60953 0.93597 0.81071 0.0
H401 H 0.56424 0.96324 0.79925 0.0
C402 C 0.6512 0.86033 0.83258 0.0
C403 C 0.64372 0.82264 0.8233 0.0
C404 C 0.62341 0.87548 0.82897 0.0
C405 C 0.5876 0.85335 0.81595 0.0
C406 C 0.57996 0.81542 0.80687 0.0
C407 C 0.6075 0.80018 0.81058 0.0
C408 C 0.48969 0.8589 0.80083 0.0
C409 C 0.50683 0.90221 0.79756 0.0
C410 C 0.51558 0.84324 0.80763 0.0
C411 C 0.55926 0.8705 0.81105 0.0
C412 C 0.57602 0.91408 0.8085 0.0
C413 C 0.55006 0.92976 0.8019 0.0
H414 H 0.92812 0.55372 0.18233 0.0
H415 H 0.90973 0.65934 0.19311 0.0
H416 H 0.85281 0.50662 0.179 0.0
H417 H 0.83348 0.61165 0.19079 0.0
H418 H 0.71972 0.53417 0.14606 0.0
H419 H 0.78657 0.5794 0.16377 0.0
H420 H 0.7843 0.46949 0.18873 0.0
H421 H 0.71779 0.424 0.16993 0.0
C422 C 0.9078 0.56657 0.18479 0.0
C423 C 0.92469 0.61024 0.18775 0.0
C424 C 0.86435 0.53943 0.18297 0.0
C425 C 0.83668 0.55525 0.1843 0.0
C426 C 0.85376 0.59848 0.18913 0.0
C427 C 0.89738 0.62581 0.19058 0.0
C428 C 0.73287 0.51973 0.15579 0.0
C429 C 0.71389 0.4756 0.15645 0.0
C430 C 0.77132 0.54575 0.1661 0.0
C431 C 0.7915 0.52825 0.17752 0.0
C432 C 0.77034 0.48409 0.17966 0.0
C433 C 0.73214 0.45798 0.16902 0.0
H434 H 0.3547 0.8889 0.5261 0.0
H435 H 0.43824 0.84932 0.50436 0.0
H436 H 0.29844 0.81578 0.52615 0.0
H437 H 0.38233 0.77566 0.50524 0.0
H438 H 0.25582 0.6907 0.46665 0.0
H439 H 0.32305 0.74367 0.4816 0.0
H440 H 0.26363 0.74264 0.53517 0.0
H441 H 0.19561 0.68922 0.51996 0.0
C442 C 0.36134 0.8644 0.52189 0.0
C443 C 0.40038 0.87485 0.51465 0.0
C444 C 0.32926 0.82232 0.52221 0.0
C445 C 0.33566 0.78984 0.51533 0.0
C446 C 0.37625 0.80005 0.51029 0.0
C447 C 0.40834 0.84225 0.50989 0.0
C448 C 0.25721 0.70028 0.48192 0.0
C449 C 0.22025 0.68663 0.49195 0.0
C450 C 0.296 0.73075 0.49058 0.0
C451 C 0.29857 0.74818 0.50944 0.0
C452 C 0.26243 0.73053 0.52042 0.0
C453 C 0.22353 0.70003 0.51172 0.0
H454 H 0.47135 0.28942 0.85409 0.0
H455 H 0.41859 0.34522 0.81436 0.0
H456 H 0.41681 0.21981 0.84281 0.0
H457 H 0.36124 0.27528 0.80434 0.0
H458 H 0.35019 0.17016 0.7617 0.0
H459 H 0.36398 0.23032 0.782 0.0
H460 H 0.35457 0.15966 0.83458 0.0
H461 H 0.34456 0.1006 0.81401 0.0
C462 C 0.44714 0.28678 0.84342 0.0
C463 C 0.45062 0.32286 0.83441 0.0
C464 C 0.41514 0.24656 0.8371 0.0
C465 C 0.38527 0.2415 0.82189 0.0
C466 C 0.38476 0.2778 0.81539 0.0
C467 C 0.41744 0.31813 0.82139 0.0
C468 C 0.35041 0.16722 0.77761 0.0
C469 C 0.34832 0.13137 0.78621 0.0
C470 C 0.3577 0.20171 0.78939 0.0
C471 C 0.36226 0.20084 0.81012 0.0
C472 C 0.35317 0.16229 0.81869 0.0
C473 C 0.34677 0.12803 0.80685 0.0
H474 H 0.59036 0.95831 0.48699 0.0
H475 H 0.71277 1.02479 0.51786 0.0
H476 H 0.58927 0.89167 0.49121 0.0
H477 H 0.71122 0.95803 0.52267 0.0
H478 H 0.71321 0.83488 0.51643 0.0
H479 H 0.71561 0.90131 0.50927 0.0
H480 H 0.58093 0.83993 0.51356 0.0
H481 H 0.57828 0.77327 0.51962 0.0
C482 C 0.61718 0.95888 0.49468 0.0
C483 C 0.65172 0.99749 0.50199 0.0
C484 C 0.61641 0.92029 0.49729 0.0
C485 C 0.65007 0.91864 0.50742 0.0
C486 C 0.68482 0.95741 0.51453 0.0
C487 C 0.68564 0.99604 0.51186 0.0
C488 C 0.6839 0.83519 0.51552 0.0
C489 C 0.64555 0.79799 0.51875 0.0
C490 C 0.68536 0.87379 0.51168 0.0
C491 C 0.64853 0.87685 0.51089 0.0
C492 C 0.61012 0.83946 0.51378 0.0
C493 C 0.60866 0.80091 0.51757 0.0
H494 H 0.76872 0.54338 0.82747 0.0
H495 H 0.83464 0.67594 0.84382 0.0
H496 H 0.83428 0.54248 0.8312 0.0
H497 H 0.9002 0.67488 0.84881 0.0
H498 H 1.02199 0.67175 0.84593 0.0
H499 H 0.95756 0.67359 0.83871 0.0
H500 H 0.88442 0.54051 0.85057 0.0
H501 H 0.94834 0.53792 0.85588 0.0
C502 C 0.79724 0.57243 0.83203 0.0
C503 C 0.79587 0.60972 0.83529 0.0
C504 C 0.83531 0.57192 0.83441 0.0
C505 C 0.87373 0.60851 0.8406 0.0
C506 C 0.87219 0.64593 0.84374 0.0
C507 C 0.83416 0.64658 0.84098 0.0
C508 C 0.99229 0.64254 0.84661 0.0
C509 C 0.99151 0.60473 0.85174 0.0
C510 C 0.95473 0.64374 0.84277 0.0
C511 C 0.91454 0.60729 0.84408 0.0
C512 C 0.91392 0.56948 0.849 0.0
C513 C 0.95133 0.56815 0.85252 0.0
H514 H 0.25373 0.78592 0.17245 0.0
H515 H 0.31576 0.71274 0.17231 0.0
H516 H 0.32134 0.85043 0.1779 0.0
H517 H 0.38385 0.77711 0.17611 0.0
H518 H 0.50356 0.89376 0.19782 0.0
H519 H 0.43627 0.83064 0.19285 0.0
H520 H 0.38261 0.90463 0.17001 0.0
H521 H 0.44927 0.96866 0.17734 0.0
C522 C 0.28201 0.78364 0.17331 0.0
C523 C 0.27892 0.74377 0.17203 0.0
C524 C 0.32139 0.82109 0.17629 0.0
C525 C 0.35961 0.82045 0.17757 0.0
C526 C 0.35613 0.78019 0.17585 0.0
C527 C 0.31665 0.7427 0.17345 0.0
C528 C 0.4775 0.89728 0.1922 0.0
C529 C 0.48303 0.93774 0.1885 0.0
C530 C 0.4382 0.86009 0.18883 0.0
C531 C 0.40238 0.86101 0.18093 0.0
C532 C 0.40824 0.9014 0.17653 0.0
C533 C 0.44743 0.93881 0.18041 0.0
H534 H 0.70807 0.26862 0.49161 0.0
H535 H 0.58827 0.20411 0.51813 0.0
H536 H 0.70902 0.33516 0.49479 0.0
H537 H 0.59007 0.27093 0.52257 0.0
H538 H 0.58665 0.39278 0.51897 0.0
H539 H 0.58339 0.32595 0.51204 0.0
H540 H 0.71909 0.39105 0.51235 0.0
H541 H 0.72214 0.45764 0.51852 0.0
C542 C 0.68193 0.26861 0.49828 0.0
C543 C 0.648 0.23049 0.50449 0.0
C544 C 0.68256 0.30727 0.50033 0.0
C545 C 0.64965 0.3097 0.50907 0.0
C546 C 0.61579 0.27129 0.51535 0.0
C547 C 0.61483 0.23252 0.51295 0.0
C548 C 0.61589 0.39301 0.51736 0.0
C549 C 0.6547 0.43126 0.51959 0.0
C550 C 0.61411 0.35414 0.51366 0.0
C551 C 0.6511 0.35179 0.51204 0.0
C552 C 0.68972 0.39042 0.51364 0.0
C553 C 0.69152 0.42916 0.51737 0.0
H554 H 0.59128 0.67882 0.8356 0.0
H555 H 0.52056 0.54294 0.83764 0.0
H556 H 0.52753 0.68158 0.83995 0.0
H557 H 0.45695 0.54537 0.84329 0.0
H558 H 0.33821 0.55465 0.84232 0.0
H559 H 0.4008 0.55252 0.83451 0.0
H560 H 0.47867 0.67933 0.859 0.0
H561 H 0.4165 0.68285 0.86497 0.0
C562 C 0.5621 0.64937 0.83715 0.0
C563 C 0.56157 0.61065 0.83621 0.0
C564 C 0.52506 0.65088 0.83988 0.0
C565 C 0.48584 0.61374 0.84227 0.0
C566 C 0.48555 0.57494 0.84124 0.0
C567 C 0.5225 0.57344 0.83809 0.0
C568 C 0.36854 0.58256 0.84572 0.0
C569 C 0.37111 0.61883 0.85455 0.0
C570 C 0.40509 0.58107 0.84151 0.0
C571 C 0.44609 0.61558 0.84614 0.0
C572 C 0.4485 0.65193 0.85478 0.0
C573 C 0.41208 0.65366 0.85867 0.0
H574 H 1.00425 0.54206 0.16692 0.0
H575 H 1.07068 0.473 0.16976 0.0
H576 H 0.93835 0.47723 0.17137 0.0
H577 H 1.00524 0.40818 0.17557 0.0
H578 H 0.87778 0.28783 0.17539 0.0
H579 H 0.94157 0.35147 0.16704 0.0
H580 H 0.89359 0.42746 0.19078 0.0
H581 H 0.82867 0.3643 0.1972 0.0
C582 C 1.0049 0.51296 0.1686 0.0
C583 C 1.04322 0.5132 0.16785 0.0
C584 C 0.96673 0.47531 0.17143 0.0
C585 C 0.96525 0.43623 0.17414 0.0
C586 C 1.00386 0.43668 0.17326 0.0
C587 C 1.04193 0.47428 0.17001 0.0
C588 C 0.88021 0.31799 0.17848 0.0
C589 C 0.8471 0.31978 0.18726 0.0
C590 C 0.91771 0.35511 0.17397 0.0
C591 C 0.92417 0.39588 0.17826 0.0
C592 C 0.89076 0.39751 0.18682 0.0
C593 C 0.85311 0.36052 0.19098 0.0
H594 H 0.19114 0.58019 0.10386 0.0
H595 H 0.14645 0.66855 0.09655 0.0
H596 H 0.19616 0.57761 0.06817 0.0
H597 H 0.15147 0.66581 0.06088 0.0
H598 H 0.20975 0.68458 0.00041 0.0
H599 H 0.2062 0.68747 0.03625 0.0
H600 H 0.14891 0.55173 0.03751 0.0
H601 H 0.15288 0.54889 0.00169 0.0
C602 C 0.18238 0.59909 0.09469 0.0
C603 C 0.16835 0.62459 0.10319 0.0
C604 C 0.18506 0.59741 0.07418 0.0
C605 C 0.17426 0.62152 0.06163 0.0
C606 C 0.16046 0.64717 0.07012 0.0
C607 C 0.15734 0.64853 0.0906 0.0
C608 C 0.19672 0.65539 0.00835 0.0
C609 C 0.18161 0.6165 0.99814 0.0
C610 C 0.19432 0.657 0.02888 0.0
C611 C 0.17718 0.61983 0.03978 0.0
C612 C 0.16256 0.581 0.02961 0.0
C613 C 0.16453 0.57933 0.00905 0.0
H614 H 0.60164 0.1091 0.43144 0.0
H615 H 0.73095 0.1392 0.44078 0.0
H616 H 0.6082 0.11108 0.39593 0.0
H617 H 0.73743 0.14116 0.40488 0.0
H618 H 0.73965 0.18583 0.33952 0.0
H619 H 0.73669 0.18422 0.37557 0.0
H620 H 0.61652 1.06856 0.36995 0.0
H621 H 0.61919 0.07042 0.33408 0.0
C622 C 0.63159 0.11623 0.42595 0.0
C623 C 0.66578 0.12395 0.43906 0.0
C624 C 0.63521 0.11708 0.40551 0.0
C625 C 0.67324 0.12604 0.39753 0.0
C626 C 0.70774 0.13436 0.41058 0.0
C627 C 0.70397 0.13304 0.43113 0.0
C628 C 0.71259 0.16012 0.346 0.0
C629 C 0.67963 0.12829 0.33388 0.0
C630 C 0.71109 0.159 0.36666 0.0
C631 C 0.67632 0.12633 0.37565 0.0
C632 C 0.64358 0.09438 0.36351 0.0
C633 C 0.64528 0.09526 0.34293 0.0
H634 H 0.64625 0.55178 0.76472 0.0
H635 H 0.70496 0.68765 0.77003 0.0
H636 H 0.64265 0.55557 0.72884 0.0
H637 H 0.70188 0.69136 0.73383 0.0
H638 H 0.7322 0.67326 0.66825 0.0
H639 H 0.7352 0.6735 0.70451 0.0
H640 H 0.60379 0.57731 0.70291 0.0
H641 H 0.60067 0.57736 0.66676 0.0
C642 C 0.65854 0.58253 0.75824 0.0
C643 C 0.67597 0.61945 0.77029 0.0
C644 C 0.65622 0.58463 0.73765 0.0
C645 C 0.67192 0.62373 0.72851 0.0
C646 C 0.6897 0.66079 0.74048 0.0
C647 C 0.69129 0.65864 0.76118 0.0
C648 C 0.70397 0.65225 0.67568 0.0
C649 C 0.66621 0.62523 0.66466 0.0
C650 C 0.70561 0.65264 0.6964 0.0
C651 C 0.66974 0.62541 0.70654 0.0
C652 C 0.63198 0.59851 0.69551 0.0
C653 C 0.63015 0.59869 0.67483 0.0
H654 H 0.65579 0.16516 0.56585 0.0
H655 H 0.59238 1.02957 0.55696 0.0
H656 H 0.62891 0.15563 0.59902 0.0
H657 H 0.56579 1.02016 0.58976 0.0
H658 H 0.54863 1.01501 0.65492 0.0
H659 H 0.58879 1.03198 0.62544 0.0
H660 H 0.55536 0.12673 0.61124 0.0
H661 H 0.51458 0.10941 0.64063 0.0
C662 C 0.63683 0.13344 0.57112 0.0
C663 C 0.62597 0.0981 0.55884 0.0
C664 C 0.62122 0.12799 0.58999 0.0
C665 C 0.59518 0.08715 0.59693 0.0
C666 C 0.58609 1.052 0.58493 0.0
C667 C 0.60115 1.05741 0.56608 0.0
C668 C 0.54966 1.03935 0.64548 0.0
C669 C 0.52783 1.06038 0.64997 0.0
C670 C 0.57291 1.04925 0.62868 0.0
C671 C 0.57506 0.08055 0.61602 0.0
C672 C 0.55467 0.1028 0.62087 0.0
C673 C 0.53121 0.09277 0.63766 0.0
H674 H 0.74927 0.61157 0.89166 0.0
H675 H 0.61712 0.56807 0.89636 0.0
H676 H 0.7523 0.58595 0.9249 0.0
H677 H 0.6206 0.54394 0.9297 0.0
H678 H 0.65898 0.54505 0.9958 0.0
H679 H 0.6693 0.58332 0.96509 0.0
H680 H 0.70251 0.49931 0.93697 0.0
H681 H 0.69128 0.46019 0.96766 0.0
C682 C 0.72126 0.59758 0.90001 0.0
C683 C 0.68296 0.5918 0.89159 0.0
C684 C 0.72296 0.58275 0.91888 0.0
C685 C 0.68668 0.56315 0.92969 0.0
C686 C 0.64898 0.55922 0.92161 0.0
C687 C 0.647 0.57296 0.90261 0.0
C688 C 0.66941 0.53535 0.98319 0.0
C689 C 0.6744 0.49974 0.98403 0.0
C690 C 0.67516 0.55713 0.96568 0.0
C691 C 0.68681 0.54421 0.94885 0.0
C692 C 0.69392 0.50997 0.94991 0.0
C693 C 0.68731 0.48756 0.96734 0.0
H694 H 0.11721 0.55782 0.22687 0.0
H695 H 0.17018 0.69311 0.23155 0.0
H696 H 1.09484 0.5513 0.26075 0.0
H697 H 0.14869 0.68651 0.26559 0.0
H698 H 0.14433 0.64996 0.33293 0.0
H699 H 0.1678 0.65696 0.29922 0.0
H700 H 1.03994 0.57099 0.27744 0.0
H701 H 1.01625 0.56484 0.31119 0.0
C702 C 0.12469 0.58618 0.23525 0.0
C703 C 0.14561 0.62601 0.22665 0.0
C704 C 0.11157 0.58237 0.25451 0.0
C705 C 0.11998 0.6184 0.26562 0.0
C706 C 0.14195 0.65832 0.25726 0.0
C707 C 0.15422 0.66206 0.23785 0.0
C708 C 0.12132 0.63269 0.32089 0.0
C709 C 1.07857 0.60686 0.32451 0.0
C710 C 0.13468 0.63678 0.30169 0.0
C711 C 0.10563 0.61437 0.28587 0.0
C712 C 1.06287 0.58834 0.28948 0.0
C713 C 1.04934 0.58499 0.30867 0.0
loop_
_geom_bond_atom_site_label_1
_geom_bond_atom_site_label_2
_geom_bond_distance
_geom_bond_site_symmetry_2
_ccdc_geom_bond_type
Tb0 C10 2.825 . S
Tb0 O11 2.347 . S
Tb0 O14 2.366 . S
Tb0 O19 2.418 . S
Tb0 O20 2.384 1_455 S
Tb0 O23 2.479 . S
Tb0 O24 2.471 . S
Eu1 O12 2.409 1_655 S
Eu1 O13 2.376 1_655 S
Eu1 O16 2.488 . S
Eu1 O17 2.480 . S
Eu1 O18 2.342 1_655 S
Eu1 O21 2.368 . S
Eu1 C31 2.835 . S
C2 O18 1.259 . S
C2 O19 1.265 . S
C3 O20 1.255 . S
C3 O21 1.265 . S
C4 C6 1.380 . S
C4 C7 1.374 . S
C4 C10 1.507 . S
C5 C6 1.384 . S
C5 C9 1.387 . S
C5 H32 0.930 . S
C6 C4 1.380 . S
C6 C5 1.384 . S
C6 H33 0.931 . S
C7 C4 1.374 . S
C7 C8 1.390 . S
C7 H34 0.930 . S
C8 C7 1.390 . S
C8 C9 1.391 . S
C8 H35 0.930 . S
C9 C5 1.387 . S
C9 C8 1.391 . S
C10 Tb0 2.825 . S
C10 C4 1.507 . S
C10 O23 1.238 . S
C10 O24 1.247 . S
O11 Tb0 2.347 . S
O11 C15 1.259 . S
O12 Eu1 2.409 1_455 S
O12 C15 1.294 . S
O13 Eu1 2.376 1_455 S
O13 C22 1.255 . S
O14 Tb0 2.366 . S
O14 C22 1.265 . S
C15 O11 1.259 . S
C15 O12 1.294 . S
O16 Eu1 2.488 . S
O16 C31 1.238 . S
O17 Eu1 2.480 . S
O17 C31 1.247 . S
O18 Eu1 2.342 1_455 S
O18 C2 1.259 . S
O19 Tb0 2.418 . S
O19 C2 1.265 . S
O20 Tb0 2.384 1_655 S
O20 C3 1.255 . S
O21 Eu1 2.368 . S
O21 C3 1.265 . S
C22 O13 1.255 . S
C22 O14 1.265 . S
O23 Tb0 2.479 . S
O23 C10 1.238 . S
O24 Tb0 2.471 . S
O24 C10 1.247 . S
C25 C28 1.380 . S
C25 C29 1.374 . S
C25 C31 1.507 . S
C26 C27 1.387 . S
C26 C30 1.391 . S
C27 C26 1.387 . S
C27 C28 1.384 . S
C27 H36 0.930 . S
C28 C25 1.380 . S
C28 C27 1.384 . S
C28 H37 0.931 . S
C29 C25 1.374 . S
C29 C30 1.390 . S
C29 H38 0.930 . S
C30 C26 1.391 . S
C30 C29 1.390 . S
C30 H39 0.930 . S
C31 Eu1 2.835 . S
C31 O16 1.238 . S
C31 O17 1.247 . S
C31 C25 1.507 . S
H32 C5 0.930 . S
H33 C6 0.931 . S
H34 C7 0.930 . S
H35 C8 0.930 . S
H36 C27 0.930 . S
H37 C28 0.931 . S
H38 C29 0.930 . S
H39 C30 0.930 . S
Tb40 C50 2.825 . S
Tb40 O51 2.347 . S
Tb40 O54 2.366 . S
Tb40 O59 2.418 . S
Tb40 O60 2.384 1_545 S
Tb40 O63 2.479 . S
Tb40 O64 2.471 . S
Eu41 O52 2.418 . S
Eu41 O53 2.384 . S
Eu41 O56 2.479 1_545 S
Eu41 O57 2.471 1_545 S
Eu41 O58 2.347 . S
Eu41 O61 2.366 1_545 S
Eu41 C71 2.825 1_545 S
C42 O58 1.259 . S
C42 O59 1.265 . S
C43 O60 1.255 . S
C43 O61 1.265 . S
C44 C46 1.380 . S
C44 C47 1.374 . S
C44 C50 1.507 . S
C45 C46 1.384 . S
C45 C49 1.387 . S
C45 H72 0.930 . S
C46 C44 1.380 . S
C46 C45 1.384 . S
C46 H73 0.931 . S
C47 C44 1.374 . S
C47 C48 1.390 . S
C47 H74 0.930 . S
C48 C47 1.390 . S
C48 C49 1.391 . S
C48 H75 0.930 . S
C49 C45 1.387 . S
C49 C48 1.391 . S
C50 Tb40 2.825 . S
C50 C44 1.507 . S
C50 O63 1.238 . S
C50 O64 1.247 . S
O51 Tb40 2.347 . S
O51 C55 1.259 . S
O52 Eu41 2.418 . S
O52 C55 1.265 . S
O53 Eu41 2.384 . S
O53 C62 1.255 . S
O54 Tb40 2.366 . S
O54 C62 1.265 . S
C55 O51 1.259 . S
C55 O52 1.265 . S
O56 Eu41 2.479 1_565 S
O56 C71 1.238 . S
O57 Eu41 2.471 1_565 S
O57 C71 1.247 . S
O58 Eu41 2.347 . S
O58 C42 1.259 . S
O59 Tb40 2.418 . S
O59 C42 1.265 . S
O60 Tb40 2.384 1_565 S
O60 C43 1.255 . S
O61 Eu41 2.366 1_565 S
O61 C43 1.265 . S
C62 O53 1.255 . S
C62 O54 1.265 . S
O63 Tb40 2.479 . S
O63 C50 1.238 . S
O64 Tb40 2.471 . S
O64 C50 1.247 . S
C65 C68 1.380 . S
C65 C69 1.374 . S
C65 C71 1.507 . S
C66 C67 1.387 . S
C66 C70 1.391 . S
C67 C66 1.387 . S
C67 C68 1.384 . S
C67 H76 0.930 . S
C68 C65 1.380 . S
C68 C67 1.384 . S
C68 H77 0.931 . S
C69 C65 1.374 . S
C69 C70 1.390 . S
C69 H78 0.930 . S
C70 C66 1.391 . S
C70 C69 1.390 . S
C70 H79 0.930 . S
C71 Eu41 2.825 1_565 S
C71 O56 1.238 . S
C71 O57 1.247 . S
C71 C65 1.507 . S
H72 C45 0.930 . S
H73 C46 0.931 . S
H74 C47 0.930 . S
H75 C48 0.930 . S
H76 C67 0.930 . S
H77 C68 0.931 . S
H78 C69 0.930 . S
H79 C70 0.930 . S
Tb80 C90 2.825 . S
Tb80 O91 2.347 . S
Tb80 O94 2.366 . S
Tb80 O99 2.418 . S
Tb80 O100 2.384 . S
Tb80 O103 2.479 . S
Tb80 O104 2.471 . S
Eu81 O92 2.418 . S
Eu81 O93 2.384 . S
Eu81 O96 2.479 . S
Eu81 O97 2.471 . S
Eu81 O98 2.347 . S
Eu81 O101 2.366 . S
Eu81 C111 2.825 . S
C82 O98 1.259 . S
C82 O99 1.265 . S
C83 O100 1.255 . S
C83 O101 1.265 . S
C84 C86 1.380 . S
C84 C87 1.374 . S
C84 C90 1.507 . S
C85 C86 1.384 . S
C85 C89 1.387 . S
C85 H112 0.930 . S
C86 C84 1.380 . S
C86 C85 1.384 . S
C86 H113 0.931 . S
C87 C84 1.374 . S
C87 C88 1.390 . S
C87 H114 0.930 . S
C88 C87 1.390 . S
C88 C89 1.391 . S
C88 H115 0.930 . S
C89 C85 1.387 . S
C89 C88 1.391 . S
C90 Tb80 2.825 . S
C90 C84 1.507 . S
C90 O103 1.238 . S
C90 O104 1.247 . S
O91 Tb80 2.347 . S
O91 C95 1.259 . S
O92 Eu81 2.418 . S
O92 C95 1.265 . S
O93 Eu81 2.384 . S
O93 C102 1.255 . S
O94 Tb80 2.366 . S
O94 C102 1.265 . S
C95 O91 1.259 . S
C95 O92 1.265 . S
O96 Eu81 2.479 . S
O96 C111 1.238 . S
O97 Eu81 2.471 . S
O97 C111 1.247 . S
O98 Eu81 2.347 . S
O98 C82 1.259 . S
O99 Tb80 2.418 . S
O99 C82 1.265 . S
O100 Tb80 2.384 . S
O100 C83 1.255 . S
O101 Eu81 2.366 . S
O101 C83 1.265 . S
C102 O93 1.255 . S
C102 O94 1.265 . S
O103 Tb80 2.479 . S
O103 C90 1.238 . S
O104 Tb80 2.471 . S
O104 C90 1.247 . S
C105 C108 1.380 . S
C105 C109 1.374 . S
C105 C111 1.507 . S
C106 C107 1.387 . S
C106 C110 1.391 . S
C107 C106 1.387 . S
C107 C108 1.384 . S
C107 H116 0.930 . S
C108 C105 1.380 . S
C108 C107 1.384 . S
C108 H117 0.931 . S
C109 C105 1.374 . S
C109 C110 1.390 . S
C109 H118 0.930 . S
C110 C106 1.391 . S
C110 C109 1.390 . S
C110 H119 0.930 . S
C111 Eu81 2.825 . S
C111 O96 1.238 . S
C111 O97 1.247 . S
C111 C105 1.507 . S
H112 C85 0.930 . S
H113 C86 0.931 . S
H114 C87 0.930 . S
H115 C88 0.930 . S
H116 C107 0.930 . S
H117 C108 0.931 . S
H118 C109 0.930 . S
H119 C110 0.930 . S
C120 C121 1.386 . S
C120 C122 1.397 . S
C120 H144 0.931 . S
C121 C120 1.386 . S
C121 C125 1.397 1_545 S
C122 C120 1.397 . S
C122 C123 1.384 . S
C122 H145 0.930 . S
C123 C122 1.384 . S
C123 C124 1.377 1_545 S
C123 C126 1.481 . S
C124 C123 1.377 1_565 S
C124 C125 1.389 . S
C124 H146 0.929 . S
C125 C121 1.397 1_565 S
C125 C124 1.389 . S
C125 H147 0.931 . S
C126 C123 1.481 . S
C126 C127 1.387 . S
C126 C131 1.390 1_545 S
C127 C126 1.387 . S
C127 C128 1.401 . S
C127 H148 0.930 . S
C128 C127 1.401 . S
C128 C129 1.376 . S
C128 C137 1.511 . S
C129 C128 1.376 . S
C129 C130 1.392 1_545 S
C129 H150 0.931 . S
C130 C129 1.392 1_565 S
C130 C131 1.361 . S
C130 C132 1.500 . S
C131 C126 1.390 1_565 S
C131 C130 1.361 . S
C131 H149 0.931 . S
C132 C130 1.500 . S
C132 C133 1.371 . S
C132 C134 1.365 . S
C133 C132 1.371 . S
C133 C143 1.386 . S
C133 H151 0.931 . S
C134 C132 1.365 . S
C134 C135 1.409 . S
C134 H152 0.929 . S
C135 C134 1.409 . S
C135 C136 1.380 . S
C135 H153 0.930 . S
C136 C135 1.380 . S
C136 C143 1.357 . S
C137 C128 1.511 . S
C137 C138 1.341 . S
C137 C139 1.371 . S
C138 C137 1.341 . S
C138 C142 1.394 . S
C138 H154 0.930 . S
C139 C137 1.371 . S
C139 C140 1.392 . S
C139 H155 0.931 . S
C140 C139 1.392 . S
C140 C141 1.331 . S
C140 H158 0.932 . S
C141 C140 1.331 . S
C141 C142 1.336 . S
C142 C138 1.394 . S
C142 C141 1.336 . S
C142 H157 0.929 . S
C143 C133 1.386 . S
C143 C136 1.357 . S
C143 H156 0.928 . S
H144 C120 0.931 . S
H145 C122 0.930 . S
H146 C124 0.929 . S
H147 C125 0.931 . S
H148 C127 0.930 . S
H149 C131 0.931 . S
H150 C129 0.931 . S
H151 C133 0.931 . S
H152 C134 0.929 . S
H153 C135 0.930 . S
H154 C138 0.930 . S
H155 C139 0.931 . S
H156 C143 0.928 . S
H157 C142 0.929 . S
H158 C140 0.932 . S
C159 C160 1.386 . S
C159 C161 1.397 . S
C159 H183 0.931 . S
C160 C159 1.386 . S
C160 C164 1.397 . S
C161 C159 1.397 . S
C161 C162 1.384 . S
C161 H184 0.930 . S
C162 C161 1.384 . S
C162 C163 1.377 . S
C162 C165 1.481 . S
C163 C162 1.377 . S
C163 C164 1.389 . S
C163 H185 0.929 . S
C164 C160 1.397 . S
C164 C163 1.389 . S
C164 H186 0.931 . S
C165 C162 1.481 . S
C165 C166 1.387 . S
C165 C170 1.390 . S
C166 C165 1.387 . S
C166 C167 1.401 . S
C166 H187 0.930 . S
C167 C166 1.401 . S
C167 C168 1.376 . S
C167 C176 1.511 . S
C168 C167 1.376 . S
C168 C169 1.392 . S
C168 H189 0.931 . S
C169 C168 1.392 . S
C169 C170 1.361 . S
C169 C171 1.500 . S
C170 C165 1.390 . S
C170 C169 1.361 . S
C170 H188 0.931 . S
C171 C169 1.500 . S
C171 C172 1.371 . S
C171 C173 1.365 . S
C172 C171 1.371 . S
C172 C182 1.386 . S
C172 H190 0.931 . S
C173 C171 1.365 . S
C173 C174 1.409 . S
C173 H191 0.929 . S
C174 C173 1.409 . S
C174 C175 1.380 . S
C174 H192 0.930 . S
C175 C174 1.380 . S
C175 C182 1.357 . S
C176 C167 1.511 . S
C176 C177 1.341 . S
C176 C178 1.371 . S
C177 C176 1.341 . S
C177 C181 1.394 . S
C177 H193 0.930 . S
C178 C176 1.371 . S
C178 C179 1.392 . S
C178 H194 0.931 . S
C179 C178 1.392 . S
C179 C180 1.331 . S
C179 H197 0.932 . S
C180 C179 1.331 . S
C180 C181 1.336 . S
C181 C177 1.394 . S
C181 C180 1.336 . S
C181 H196 0.929 . S
C182 C172 1.386 . S
C182 C175 1.357 . S
C182 H195 0.928 . S
H183 C159 0.931 . S
H184 C161 0.930 . S
H185 C163 0.929 . S
H186 C164 0.931 . S
H187 C166 0.930 . S
H188 C170 0.931 . S
H189 C168 0.931 . S
H190 C172 0.931 . S
H191 C173 0.929 . S
H192 C174 0.930 . S
H193 C177 0.930 . S
H194 C178 0.931 . S
H195 C182 0.928 . S
H196 C181 0.929 . S
H197 C179 0.932 . S
C198 C199 1.386 . S
C198 C200 1.397 . S
C198 H222 0.931 . S
C199 C198 1.386 . S
C199 C203 1.397 1_455 S
C200 C198 1.397 . S
C200 C201 1.384 . S
C200 H223 0.930 . S
C201 C200 1.384 . S
C201 C202 1.377 1_455 S
C201 C204 1.481 . S
C202 C201 1.377 1_655 S
C202 C203 1.389 . S
C202 H224 0.929 . S
C203 C199 1.397 1_655 S
C203 C202 1.389 . S
C203 H225 0.931 . S
C204 C201 1.481 . S
C204 C205 1.387 . S
C204 C209 1.390 1_455 S
C205 C204 1.387 . S
C205 C206 1.401 . S
C205 H226 0.930 . S
C206 C205 1.401 . S
C206 C207 1.376 . S
C206 C215 1.511 . S
C207 C206 1.376 . S
C207 C208 1.392 1_455 S
C207 H228 0.931 . S
C208 C207 1.392 1_655 S
C208 C209 1.361 . S
C208 C210 1.500 . S
C209 C204 1.390 1_655 S
C209 C208 1.361 . S
C209 H227 0.931 . S
C210 C208 1.500 . S
C210 C211 1.371 . S
C210 C212 1.365 . S
C211 C210 1.371 . S
C211 C221 1.386 . S
C211 H229 0.931 . S
C212 C210 1.365 . S
C212 C213 1.409 . S
C212 H230 0.929 . S
C213 C212 1.409 . S
C213 C214 1.380 . S
C213 H231 0.930 . S
C214 C213 1.380 . S
C214 C221 1.357 . S
C215 C206 1.511 . S
C215 C216 1.341 . S
C215 C217 1.371 . S
C216 C215 1.341 . S
C216 C220 1.394 . S
C216 H232 0.930 . S
C217 C215 1.371 . S
C217 C218 1.392 . S
C217 H233 0.931 . S
C218 C217 1.392 . S
C218 C219 1.331 . S
C218 H236 0.932 . S
C219 C218 1.331 . S
C219 C220 1.336 . S
C220 C216 1.394 . S
C220 C219 1.336 . S
C220 H235 0.929 . S
C221 C211 1.386 . S
C221 C214 1.357 . S
C221 H234 0.928 . S
H222 C198 0.931 . S
H223 C200 0.930 . S
H224 C202 0.929 . S
H225 C203 0.931 . S
H226 C205 0.930 . S
H227 C209 0.931 . S
H228 C207 0.931 . S
H229 C211 0.931 . S
H230 C212 0.929 . S
H231 C213 0.930 . S
H232 C216 0.930 . S
H233 C217 0.931 . S
H234 C221 0.928 . S
H235 C220 0.929 . S
H236 C218 0.932 . S
C237 C238 1.386 1_655 S
C237 C239 1.397 . S
C237 H261 0.931 . S
C238 C237 1.386 1_455 S
C238 C242 1.397 . S
C239 C237 1.397 . S
C239 C240 1.384 1_655 S
C239 H262 0.930 . S
C240 C239 1.384 1_455 S
C240 C241 1.377 . S
C240 C243 1.481 . S
C241 C240 1.377 . S
C241 C242 1.389 . S
C241 H263 0.929 . S
C242 C238 1.397 . S
C242 C241 1.389 . S
C242 H264 0.931 . S
C243 C240 1.481 . S
C243 C244 1.387 1_455 S
C243 C248 1.390 . S
C244 C243 1.387 1_655 S
C244 C245 1.401 . S
C244 H265 0.930 . S
C245 C244 1.401 . S
C245 C246 1.376 1_655 S
C245 C254 1.511 . S
C246 C245 1.376 1_455 S
C246 C247 1.392 . S
C246 H267 0.931 . S
C247 C246 1.392 . S
C247 C248 1.361 . S
C247 C249 1.500 . S
C248 C243 1.390 . S
C248 C247 1.361 . S
C248 H266 0.931 . S
C249 C247 1.500 . S
C249 C250 1.371 . S
C249 C251 1.365 . S
C250 C249 1.371 . S
C250 C260 1.386 . S
C250 H268 0.931 . S
C251 C249 1.365 . S
C251 C252 1.409 . S
C251 H269 0.929 . S
C252 C251 1.409 . S
C252 C253 1.380 . S
C252 H270 0.930 . S
C253 C252 1.380 . S
C253 C260 1.357 . S
C254 C245 1.511 . S
C254 C255 1.341 . S
C254 C256 1.371 . S
C255 C254 1.341 . S
C255 C259 1.394 . S
C255 H271 0.930 . S
C256 C254 1.371 . S
C256 C257 1.392 . S
C256 H272 0.931 . S
C257 C256 1.392 . S
C257 C258 1.331 . S
C257 H275 0.932 . S
C258 C257 1.331 . S
C258 C259 1.336 . S
C259 C255 1.394 . S
C259 C258 1.336 . S
C259 H274 0.929 . S
C260 C250 1.386 . S
C260 C253 1.357 . S
C260 H273 0.928 . S
H261 C237 0.931 . S
H262 C239 0.930 . S
H263 C241 0.929 . S
H264 C242 0.931 . S
H265 C244 0.930 . S
H266 C248 0.931 . S
H267 C246 0.931 . S
H268 C250 0.931 . S
H269 C251 0.929 . S
H270 C252 0.930 . S
H271 C255 0.930 . S
H272 C256 0.931 . S
H273 C260 0.928 . S
H274 C259 0.929 . S
H275 C257 0.932 . S
C276 C277 1.386 1_565 S
C276 C278 1.397 . S
C276 H300 0.931 . S
C277 C276 1.386 1_545 S
C277 C281 1.397 . S
C278 C276 1.397 . S
C278 C279 1.382 1_565 S
C278 H301 0.930 . S
C279 C278 1.382 1_545 S
C279 C280 1.379 . S
C279 C282 1.480 1_545 S
C280 C279 1.379 . S
C280 C281 1.389 . S
C280 H302 0.929 . S
C281 C277 1.397 . S
C281 C280 1.389 . S
C281 H303 0.931 . S
C282 C279 1.480 1_565 S
C282 C283 1.411 . S
C282 C287 1.367 1_565 S
C283 C282 1.411 . S
C283 C284 1.401 . S
C283 H304 0.930 . S
C284 C283 1.401 . S
C284 C285 1.376 . S
C284 C293 1.511 . S
C285 C284 1.376 . S
C285 C286 1.392 1_565 S
C285 H306 0.931 . S
C286 C285 1.392 1_545 S
C286 C287 1.361 . S
C286 C288 1.500 . S
C287 C282 1.367 1_545 S
C287 C286 1.361 . S
C287 H305 0.931 . S
C288 C286 1.500 . S
C288 C289 1.371 . S
C288 C290 1.365 . S
C289 C288 1.371 . S
C289 C299 1.386 . S
C289 H307 0.931 . S
C290 C288 1.365 . S
C290 C291 1.409 . S
C290 H308 0.929 . S
C291 C290 1.409 . S
C291 C292 1.380 . S
C291 H309 0.930 . S
C292 C291 1.380 . S
C292 C299 1.357 . S
C293 C284 1.511 . S
C293 C294 1.341 . S
C293 C295 1.371 . S
C294 C293 1.341 . S
C294 C298 1.394 . S
C294 H310 0.930 . S
C295 C293 1.371 . S
C295 C296 1.392 . S
C295 H311 0.931 . S
C296 C295 1.392 . S
C296 C297 1.331 . S
C296 H314 0.932 . S
C297 C296 1.331 . S
C297 C298 1.336 . S
C298 C294 1.394 . S
C298 C297 1.336 . S
C298 H313 0.929 . S
C299 C289 1.386 . S
C299 C292 1.357 . S
C299 H312 0.928 . S
H300 C276 0.931 . S
H301 C278 0.930 . S
H302 C280 0.929 . S
H303 C281 0.931 . S
H304 C283 0.930 . S
H305 C287 0.931 . S
H306 C285 0.931 . S
H307 C289 0.931 . S
H308 C290 0.929 . S
H309 C291 0.930 . S
H310 C294 0.930 . S
H311 C295 0.931 . S
H312 C299 0.928 . S
H313 C298 0.929 . S
H314 C296 0.932 . S
C315 C316 1.386 . S
C315 C317 1.397 . S
C315 H339 0.931 . S
C316 C315 1.386 . S
C316 C320 1.397 . S
C317 C315 1.397 . S
C317 C318 1.384 . S
C317 H340 0.930 . S
C318 C317 1.384 . S
C318 C319 1.377 . S
C318 C321 1.481 . S
C319 C318 1.377 . S
C319 C320 1.389 . S
C319 H341 0.929 . S
C320 C316 1.397 . S
C320 C319 1.389 . S
C320 H342 0.931 . S
C321 C318 1.481 . S
C321 C322 1.387 . S
C321 C326 1.390 . S
C322 C321 1.387 . S
C322 C323 1.401 . S
C322 H343 0.930 . S
C323 C322 1.401 . S
C323 C324 1.376 . S
C323 C332 1.511 . S
C324 C323 1.376 . S
C324 C325 1.392 . S
C324 H345 0.931 . S
C325 C324 1.392 . S
C325 C326 1.361 . S
C325 C327 1.500 . S
C326 C321 1.390 . S
C326 C325 1.361 . S
C326 H344 0.931 . S
C327 C325 1.500 . S
C327 C328 1.371 . S
C327 C329 1.365 . S
C328 C327 1.371 . S
C328 C338 1.386 . S
C328 H346 0.931 . S
C329 C327 1.365 . S
C329 C330 1.409 . S
C329 H347 0.929 . S
C330 C329 1.409 . S
C330 C331 1.380 . S
C330 H348 0.930 . S
C331 C330 1.380 . S
C331 C338 1.357 . S
C332 C323 1.511 . S
C332 C333 1.341 . S
C332 C334 1.371 . S
C333 C332 1.341 . S
C333 C337 1.394 . S
C333 H349 0.930 . S
C334 C332 1.371 . S
C334 C335 1.392 . S
C334 H350 0.931 . S
C335 C334 1.392 . S
C335 C336 1.331 . S
C335 H353 0.932 . S
C336 C335 1.331 . S
C336 C337 1.336 . S
C337 C333 1.394 . S
C337 C336 1.336 . S
C337 H352 0.929 . S
C338 C328 1.386 . S
C338 C331 1.357 . S
C338 H351 0.928 . S
H339 C315 0.931 . S
H340 C317 0.930 . S
H341 C319 0.929 . S
H342 C320 0.931 . S
H343 C322 0.930 . S
H344 C326 0.931 . S
H345 C324 0.931 . S
H346 C328 0.931 . S
H347 C329 0.929 . S
H348 C330 0.930 . S
H349 C333 0.930 . S
H350 C334 0.931 . S
H351 C338 0.928 . S
H352 C337 0.929 . S
H353 C335 0.932 . S
H354 C362 0.950 . S
H355 C367 0.950 . S
H356 C364 0.950 . S
H357 C366 0.950 . S
H358 C368 0.950 . S
H359 C370 0.950 . S
H360 C372 0.950 . S
H361 C373 0.950 . S
C362 H354 0.950 . S
C362 C363 1.386 . S
C362 C364 1.391 . S
C363 C362 1.386 . S
C363 C367 1.393 . S
C364 H356 0.950 . S
C364 C362 1.391 . S
C364 C365 1.400 . S
C365 C364 1.400 . S
C365 C366 1.398 . S
C365 C371 1.491 . S
C366 H357 0.950 . S
C366 C365 1.398 . S
C366 C367 1.391 . S
C367 H355 0.950 . S
C367 C363 1.393 . S
C367 C366 1.391 . S
C368 H358 0.950 . S
C368 C369 1.386 . S
C368 C370 1.391 . S
C369 C368 1.386 . S
C369 C373 1.393 . S
C370 H359 0.950 . S
C370 C368 1.391 . S
C370 C371 1.400 . S
C371 C365 1.491 . S
C371 C370 1.400 . S
C371 C372 1.398 . S
C372 H360 0.950 . S
C372 C371 1.398 . S
C372 C373 1.391 . S
C373 H361 0.950 . S
C373 C369 1.393 . S
C373 C372 1.391 . S
H374 C382 0.950 . S
H375 C387 0.950 . S
H376 C384 0.950 . S
H377 C386 0.950 . S
H378 C388 0.950 . S
H379 C390 0.950 . S
H380 C392 0.950 . S
H381 C393 0.950 . S
C382 H374 0.950 . S
C382 C383 1.386 . S
C382 C384 1.391 . S
C383 C382 1.386 . S
C383 C387 1.393 . S
C384 H376 0.950 . S
C384 C382 1.391 . S
C384 C385 1.400 . S
C385 C384 1.400 . S
C385 C386 1.398 . S
C385 C391 1.491 . S
C386 H377 0.950 . S
C386 C385 1.398 . S
C386 C387 1.391 . S
C387 H375 0.950 . S
C387 C383 1.393 . S
C387 C386 1.391 . S
C388 H378 0.950 . S
C388 C389 1.386 . S
C388 C390 1.391 . S
C389 C388 1.386 . S
C389 C393 1.393 . S
C390 H379 0.950 . S
C390 C388 1.391 . S
C390 C391 1.400 . S
C391 C385 1.491 . S
C391 C390 1.400 . S
C391 C392 1.398 . S
C392 H380 0.950 . S
C392 C391 1.398 . S
C392 C393 1.391 . S
C393 H381 0.950 . S
C393 C389 1.393 . S
C393 C392 1.391 . S
H394 C402 0.950 . S
H395 C407 0.950 . S
H396 C404 0.950 . S
H397 C406 0.950 . S
H398 C408 0.950 . S
H399 C410 0.950 . S
H400 C412 0.950 . S
H401 C413 0.950 . S
C402 H394 0.950 . S
C402 C403 1.386 . S
C402 C404 1.391 . S
C403 C402 1.386 . S
C403 C407 1.393 . S
C404 H396 0.950 . S
C404 C402 1.391 . S
C404 C405 1.400 . S
C405 C404 1.400 . S
C405 C406 1.398 . S
C405 C411 1.491 . S
C406 H397 0.950 . S
C406 C405 1.398 . S
C406 C407 1.391 . S
C407 H395 0.950 . S
C407 C403 1.393 . S
C407 C406 1.391 . S
C408 H398 0.950 . S
C408 C409 1.386 . S
C408 C410 1.391 . S
C409 C408 1.386 . S
C409 C413 1.393 . S
C410 H399 0.950 . S
C410 C408 1.391 . S
C410 C411 1.400 . S
C411 C405 1.491 . S
C411 C410 1.400 . S
C411 C412 1.398 . S
C412 H400 0.950 . S
C412 C411 1.398 . S
C412 C413 1.391 . S
C413 H401 0.950 . S
C413 C409 1.393 . S
C413 C412 1.391 . S
H414 C422 0.950 . S
H415 C427 0.950 . S
H416 C424 0.950 . S
H417 C426 0.950 . S
H418 C428 0.950 . S
H419 C430 0.950 . S
H420 C432 0.950 . S
H421 C433 0.950 . S
C422 H414 0.950 . S
C422 C423 1.386 . S
C422 C424 1.391 . S
C423 C422 1.386 . S
C423 C427 1.393 . S
C424 H416 0.950 . S
C424 C422 1.391 . S
C424 C425 1.400 . S
C425 C424 1.400 . S
C425 C426 1.398 . S
C425 C431 1.491 . S
C426 H417 0.950 . S
C426 C425 1.398 . S
C426 C427 1.391 . S
C427 H415 0.950 . S
C427 C423 1.393 . S
C427 C426 1.391 . S
C428 H418 0.950 . S
C428 C429 1.386 . S
C428 C430 1.391 . S
C429 C428 1.386 . S
C429 C433 1.393 . S
C430 H419 0.950 . S
C430 C428 1.391 . S
C430 C431 1.400 . S
C431 C425 1.491 . S
C431 C430 1.400 . S
C431 C432 1.398 . S
C432 H420 0.950 . S
C432 C431 1.398 . S
C432 C433 1.391 . S
C433 H421 0.950 . S
C433 C429 1.393 . S
C433 C432 1.391 . S
H434 C442 0.950 . S
H435 C447 0.950 . S
H436 C444 0.950 . S
H437 C446 0.950 . S
H438 C448 0.950 . S
H439 C450 0.950 . S
H440 C452 0.950 . S
H441 C453 0.950 . S
C442 H434 0.950 . S
C442 C443 1.386 . S
C442 C444 1.391 . S
C443 C442 1.386 . S
C443 C447 1.393 . S
C444 H436 0.950 . S
C444 C442 1.391 . S
C444 C445 1.400 . S
C445 C444 1.400 . S
C445 C446 1.398 . S
C445 C451 1.491 . S
C446 H437 0.950 . S
C446 C445 1.398 . S
C446 C447 1.391 . S
C447 H435 0.950 . S
C447 C443 1.393 . S
C447 C446 1.391 . S
C448 H438 0.950 . S
C448 C449 1.386 . S
C448 C450 1.391 . S
C449 C448 1.386 . S
C449 C453 1.393 . S
C450 H439 0.950 . S
C450 C448 1.391 . S
C450 C451 1.400 . S
C451 C445 1.491 . S
C451 C450 1.400 . S
C451 C452 1.398 . S
C452 H440 0.950 . S
C452 C451 1.398 . S
C452 C453 1.391 . S
C453 H441 0.950 . S
C453 C449 1.393 . S
C453 C452 1.391 . S
H454 C462 0.950 . S
H455 C467 0.950 . S
H456 C464 0.950 . S
H457 C466 0.950 . S
H458 C468 0.950 . S
H459 C470 0.950 . S
H460 C472 0.950 . S
H461 C473 0.950 . S
C462 H454 0.950 . S
C462 C463 1.386 . S
C462 C464 1.391 . S
C463 C462 1.386 . S
C463 C467 1.393 . S
C464 H456 0.950 . S
C464 C462 1.391 . S
C464 C465 1.400 . S
C465 C464 1.400 . S
C465 C466 1.398 . S
C465 C471 1.491 . S
C466 H457 0.950 . S
C466 C465 1.398 . S
C466 C467 1.391 . S
C467 H455 0.950 . S
C467 C463 1.393 . S
C467 C466 1.391 . S
C468 H458 0.950 . S
C468 C469 1.386 . S
C468 C470 1.391 . S
C469 C468 1.386 . S
C469 C473 1.393 . S
C470 H459 0.950 . S
C470 C468 1.391 . S
C470 C471 1.400 . S
C471 C465 1.491 . S
C471 C470 1.400 . S
C471 C472 1.398 . S
C472 H460 0.950 . S
C472 C471 1.398 . S
C472 C473 1.391 . S
C473 H461 0.950 . S
C473 C469 1.393 . S
C473 C472 1.391 . S
H474 C482 0.950 . S
H475 C487 0.950 . S
H476 C484 0.950 . S
H477 C486 0.950 . S
H478 C488 0.950 . S
H479 C490 0.950 . S
H480 C492 0.950 . S
H481 C493 0.950 . S
C482 H474 0.950 . S
C482 C483 1.386 . S
C482 C484 1.391 . S
C483 C482 1.386 . S
C483 C487 1.393 . S
C484 H476 0.950 . S
C484 C482 1.391 . S
C484 C485 1.400 . S
C485 C484 1.400 . S
C485 C486 1.398 . S
C485 C491 1.491 . S
C486 H477 0.950 . S
C486 C485 1.398 . S
C486 C487 1.391 . S
C487 H475 0.950 . S
C487 C483 1.393 . S
C487 C486 1.391 . S
C488 H478 0.950 . S
C488 C489 1.386 . S
C488 C490 1.391 . S
C489 C488 1.386 . S
C489 C493 1.393 . S
C490 H479 0.950 . S
C490 C488 1.391 . S
C490 C491 1.400 . S
C491 C485 1.491 . S
C491 C490 1.400 . S
C491 C492 1.398 . S
C492 H480 0.950 . S
C492 C491 1.398 . S
C492 C493 1.391 . S
C493 H481 0.950 . S
C493 C489 1.393 . S
C493 C492 1.391 . S
H494 C502 0.950 . S
H495 C507 0.950 . S
H496 C504 0.950 . S
H497 C506 0.950 . S
H498 C508 0.950 . S
H499 C510 0.950 . S
H500 C512 0.950 . S
H501 C513 0.950 . S
C502 H494 0.950 . S
C502 C503 1.386 . S
C502 C504 1.391 . S
C503 C502 1.386 . S
C503 C507 1.393 . S
C504 H496 0.950 . S
C504 C502 1.391 . S
C504 C505 1.400 . S
C505 C504 1.400 . S
C505 C506 1.398 . S
C505 C511 1.491 . S
C506 H497 0.950 . S
C506 C505 1.398 . S
C506 C507 1.391 . S
C507 H495 0.950 . S
C507 C503 1.393 . S
C507 C506 1.391 . S
C508 H498 0.950 . S
C508 C509 1.386 . S
C508 C510 1.391 . S
C509 C508 1.386 . S
C509 C513 1.393 . S
C510 H499 0.950 . S
C510 C508 1.391 . S
C510 C511 1.400 . S
C511 C505 1.491 . S
C511 C510 1.400 . S
C511 C512 1.398 . S
C512 H500 0.950 . S
C512 C511 1.398 . S
C512 C513 1.391 . S
C513 H501 0.950 . S
C513 C509 1.393 . S
C513 C512 1.391 . S
H514 C522 0.950 . S
H515 C527 0.950 . S
H516 C524 0.950 . S
H517 C526 0.950 . S
H518 C528 0.950 . S
H519 C530 0.950 . S
H520 C532 0.950 . S
H521 C533 0.950 . S
C522 H514 0.950 . S
C522 C523 1.386 . S
C522 C524 1.391 . S
C523 C522 1.386 . S
C523 C527 1.393 . S
C524 H516 0.950 . S
C524 C522 1.391 . S
C524 C525 1.400 . S
C525 C524 1.400 . S
C525 C526 1.398 . S
C525 C531 1.491 . S
C526 H517 0.950 . S
C526 C525 1.398 . S
C526 C527 1.391 . S
C527 H515 0.950 . S
C527 C523 1.393 . S
C527 C526 1.391 . S
C528 H518 0.950 . S
C528 C529 1.386 . S
C528 C530 1.391 . S
C529 C528 1.386 . S
C529 C533 1.393 . S
C530 H519 0.950 . S
C530 C528 1.391 . S
C530 C531 1.400 . S
C531 C525 1.491 . S
C531 C530 1.400 . S
C531 C532 1.398 . S
C532 H520 0.950 . S
C532 C531 1.398 . S
C532 C533 1.391 . S
C533 H521 0.950 . S
C533 C529 1.393 . S
C533 C532 1.391 . S
H534 C542 0.950 . S
H535 C547 0.950 . S
H536 C544 0.950 . S
H537 C546 0.950 . S
H538 C548 0.950 . S
H539 C550 0.950 . S
H540 C552 0.950 . S
H541 C553 0.950 . S
C542 H534 0.950 . S
C542 C543 1.386 . S
C542 C544 1.391 . S
C543 C542 1.386 . S
C543 C547 1.393 . S
C544 H536 0.950 . S
C544 C542 1.391 . S
C544 C545 1.400 . S
C545 C544 1.400 . S
C545 C546 1.398 . S
C545 C551 1.491 . S
C546 H537 0.950 . S
C546 C545 1.398 . S
C546 C547 1.391 . S
C547 H535 0.950 . S
C547 C543 1.393 . S
C547 C546 1.391 . S
C548 H538 0.950 . S
C548 C549 1.386 . S
C548 C550 1.391 . S
C549 C548 1.386 . S
C549 C553 1.393 . S
C550 H539 0.950 . S
C550 C548 1.391 . S
C550 C551 1.400 . S
C551 C545 1.491 . S
C551 C550 1.400 . S
C551 C552 1.398 . S
C552 H540 0.950 . S
C552 C551 1.398 . S
C552 C553 1.391 . S
C553 H541 0.950 . S
C553 C549 1.393 . S
C553 C552 1.391 . S
H554 C562 0.950 . S
H555 C567 0.950 . S
H556 C564 0.950 . S
H557 C566 0.950 . S
H558 C568 0.950 . S
H559 C570 0.950 . S
H560 C572 0.950 . S
H561 C573 0.950 . S
C562 H554 0.950 . S
C562 C563 1.386 . S
C562 C564 1.391 . S
C563 C562 1.386 . S
C563 C567 1.393 . S
C564 H556 0.950 . S
C564 C562 1.391 . S
C564 C565 1.400 . S
C565 C564 1.400 . S
C565 C566 1.398 . S
C565 C571 1.491 . S
C566 H557 0.950 . S
C566 C565 1.398 . S
C566 C567 1.391 . S
C567 H555 0.950 . S
C567 C563 1.393 . S
C567 C566 1.391 . S
C568 H558 0.950 . S
C568 C569 1.386 . S
C568 C570 1.391 . S
C569 C568 1.386 . S
C569 C573 1.393 . S
C570 H559 0.950 . S
C570 C568 1.391 . S
C570 C571 1.400 . S
C571 C565 1.491 . S
C571 C570 1.400 . S
C571 C572 1.398 . S
C572 H560 0.950 . S
C572 C571 1.398 . S
C572 C573 1.391 . S
C573 H561 0.950 . S
C573 C569 1.393 . S
C573 C572 1.391 . S
H574 C582 0.950 . S
H575 C587 0.950 . S
H576 C584 0.950 . S
H577 C586 0.950 . S
H578 C588 0.950 . S
H579 C590 0.950 . S
H580 C592 0.950 . S
H581 C593 0.950 . S
C582 H574 0.950 . S
C582 C583 1.386 . S
C582 C584 1.391 . S
C583 C582 1.386 . S
C583 C587 1.393 . S
C584 H576 0.950 . S
C584 C582 1.391 . S
C584 C585 1.400 . S
C585 C584 1.400 . S
C585 C586 1.398 . S
C585 C591 1.491 . S
C586 H577 0.950 . S
C586 C585 1.398 . S
C586 C587 1.391 . S
C587 H575 0.950 . S
C587 C583 1.393 . S
C587 C586 1.391 . S
C588 H578 0.950 . S
C588 C589 1.386 . S
C588 C590 1.391 . S
C589 C588 1.386 . S
C589 C593 1.393 . S
C590 H579 0.950 . S
C590 C588 1.391 . S
C590 C591 1.400 . S
C591 C585 1.491 . S
C591 C590 1.400 . S
C591 C592 1.398 . S
C592 H580 0.950 . S
C592 C591 1.398 . S
C592 C593 1.391 . S
C593 H581 0.950 . S
C593 C589 1.393 . S
C593 C592 1.391 . S
H594 C602 0.951 . S
H595 C607 0.950 . S
H596 C604 0.955 . S
H597 C606 0.950 . S
H598 C608 0.950 . S
H599 C610 0.950 . S
H600 C612 0.949 1_655 S
H601 C613 0.957 . S
C602 H594 0.951 . S
C602 C603 1.384 1_655 S
C602 C604 1.392 . S
C603 C602 1.384 1_455 S
C603 C607 1.393 . S
C604 H596 0.955 . S
C604 C602 1.392 . S
C604 C605 1.395 1_655 S
C605 C604 1.395 1_455 S
C605 C606 1.398 . S
C605 C611 1.491 . S
C606 H597 0.950 . S
C606 C605 1.398 . S
C606 C607 1.391 . S
C607 H595 0.950 . S
C607 C603 1.393 . S
C607 C606 1.391 . S
C608 H598 0.950 . S
C608 C609 1.415 . S
C608 C610 1.391 . S
C609 C608 1.415 . S
C609 C613 1.413 1_455 S
C610 H599 0.950 . S
C610 C608 1.391 . S
C610 C611 1.400 . S
C611 C605 1.491 . S
C611 C610 1.400 . S
C611 C612 1.399 . S
C612 H600 0.949 1_455 S
C612 C611 1.399 . S
C612 C613 1.391 1_455 S
C613 H601 0.957 . S
C613 C609 1.413 1_655 S
C613 C612 1.391 1_655 S
H614 C622 0.950 1_565 S
H615 C627 0.950 . S
H616 C624 0.950 1_565 S
H617 C626 0.950 . S
H618 C628 0.950 . S
H619 C630 0.950 . S
H620 C632 0.925 1_565 S
H621 C633 0.978 . S
C622 H614 0.950 1_545 S
C622 C623 1.386 . S
C622 C624 1.391 . S
C623 C622 1.386 . S
C623 C627 1.393 . S
C624 H616 0.950 1_545 S
C624 C622 1.391 . S
C624 C625 1.400 . S
C625 C624 1.400 . S
C625 C626 1.398 . S
C625 C631 1.491 . S
C626 H617 0.950 . S
C626 C625 1.398 . S
C626 C627 1.391 . S
C627 H615 0.950 . S
C627 C623 1.393 . S
C627 C626 1.391 . S
C628 H618 0.950 . S
C628 C629 1.386 . S
C628 C630 1.391 . S
C629 C628 1.386 . S
C629 C633 1.366 1_545 S
C630 H619 0.950 . S
C630 C628 1.391 . S
C630 C631 1.400 . S
C631 C625 1.491 . S
C631 C630 1.400 . S
C631 C632 1.424 . S
C632 H620 0.925 1_545 S
C632 C631 1.424 . S
C632 C633 1.389 1_545 S
C633 H621 0.978 . S
C633 C629 1.366 1_565 S
C633 C632 1.389 1_565 S
H634 C642 0.950 . S
H635 C647 0.950 . S
H636 C644 0.950 . S
H637 C646 0.950 . S
H638 C648 0.950 . S
H639 C650 0.950 . S
H640 C652 0.950 . S
H641 C653 0.950 . S
C642 H634 0.950 . S
C642 C643 1.386 . S
C642 C644 1.391 . S
C643 C642 1.386 . S
C643 C647 1.393 . S
C644 H636 0.950 . S
C644 C642 1.391 . S
C644 C645 1.400 . S
C645 C644 1.400 . S
C645 C646 1.398 . S
C645 C651 1.491 . S
C646 H637 0.950 . S
C646 C645 1.398 . S
C646 C647 1.391 . S
C647 H635 0.950 . S
C647 C643 1.393 . S
C647 C646 1.391 . S
C648 H638 0.950 . S
C648 C649 1.386 . S
C648 C650 1.391 . S
C649 C648 1.386 . S
C649 C653 1.393 . S
C650 H639 0.950 . S
C650 C648 1.391 . S
C650 C651 1.400 . S
C651 C645 1.491 . S
C651 C650 1.400 . S
C651 C652 1.398 . S
C652 H640 0.950 . S
C652 C651 1.398 . S
C652 C653 1.391 . S
C653 H641 0.950 . S
C653 C649 1.393 . S
C653 C652 1.391 . S
H654 C662 0.950 . S
H655 C667 0.950 1_565 S
H656 C664 0.950 . S
H657 C666 0.950 . S
H658 C668 0.950 . S
H659 C670 0.950 . S
H660 C672 0.950 . S
H661 C673 0.950 . S
C662 H654 0.950 . S
C662 C663 1.386 . S
C662 C664 1.391 . S
C663 C662 1.386 . S
C663 C667 1.393 . S
C664 H656 0.950 . S
C664 C662 1.391 . S
C664 C665 1.400 . S
C665 C664 1.400 . S
C665 C666 1.398 1_545 S
C665 C671 1.491 . S
C666 H657 0.950 . S
C666 C665 1.398 1_565 S
C666 C667 1.391 1_565 S
C667 H655 0.950 1_545 S
C667 C663 1.393 . S
C667 C666 1.391 1_545 S
C668 H658 0.950 . S
C668 C669 1.386 1_565 S
C668 C670 1.391 . S
C669 C668 1.386 1_545 S
C669 C673 1.393 . S
C670 H659 0.950 . S
C670 C668 1.391 . S
C670 C671 1.400 1_565 S
C671 C665 1.491 . S
C671 C670 1.400 1_545 S
C671 C672 1.398 . S
C672 H660 0.950 . S
C672 C671 1.398 . S
C672 C673 1.391 . S
C673 H661 0.950 . S
C673 C669 1.393 . S
C673 C672 1.391 . S
H674 C682 0.950 . S
H675 C687 0.950 . S
H676 C684 0.950 . S
H677 C686 0.950 . S
H678 C688 0.950 . S
H679 C690 0.950 . S
H680 C692 0.950 . S
H681 C693 0.950 . S
C682 H674 0.950 . S
C682 C683 1.386 . S
C682 C684 1.391 . S
C683 C682 1.386 . S
C683 C687 1.393 . S
C684 H676 0.950 . S
C684 C682 1.391 . S
C684 C685 1.400 . S
C685 C684 1.400 . S
C685 C686 1.398 . S
C685 C691 1.491 . S
C686 H677 0.950 . S
C686 C685 1.398 . S
C686 C687 1.391 . S
C687 H675 0.950 . S
C687 C683 1.393 . S
C687 C686 1.391 . S
C688 H678 0.950 . S
C688 C689 1.386 . S
C688 C690 1.391 . S
C689 C688 1.386 . S
C689 C693 1.393 . S
C690 H679 0.950 . S
C690 C688 1.391 . S
C690 C691 1.400 . S
C691 C685 1.491 . S
C691 C690 1.400 . S
C691 C692 1.398 . S
C692 H680 0.950 . S
C692 C691 1.398 . S
C692 C693 1.391 . S
C693 H681 0.950 . S
C693 C689 1.393 . S
C693 C692 1.391 . S
H694 C702 0.950 1_655 S
H695 C707 0.950 . S
H696 C704 0.945 1_655 S
H697 C706 0.950 . S
H698 C708 0.950 . S
H699 C710 0.950 . S
H700 C712 0.950 . S
H701 C713 0.950 . S
C702 H694 0.950 1_455 S
C702 C703 1.386 . S
C702 C704 1.398 . S
C703 C702 1.386 . S
C703 C707 1.393 . S
C704 H696 0.945 1_455 S
C704 C702 1.398 . S
C704 C705 1.399 . S
C705 C704 1.399 . S
C705 C706 1.398 . S
C705 C711 1.491 . S
C706 H697 0.950 . S
C706 C705 1.398 . S
C706 C707 1.391 . S
C707 H695 0.950 . S
C707 C703 1.393 . S
C707 C706 1.391 . S
C708 H698 0.950 . S
C708 C709 1.386 . S
C708 C710 1.391 . S
C709 C708 1.386 . S
C709 C713 1.393 1_455 S
C710 H699 0.950 . S
C710 C708 1.391 . S
C710 C711 1.400 . S
C711 C705 1.491 . S
C711 C710 1.400 . S
C711 C712 1.398 1_455 S
C712 H700 0.950 . S
C712 C711 1.398 1_655 S
C712 C713 1.391 . S
C713 H701 0.950 . S
C713 C709 1.393 1_655 S
C713 C712 1.391 . S
C363 C9 0.521 . S
C369 C331 0.501 . S
C383 C49 0.342 . S
C389 C258 0.271 . S
C403 C89 0.295 . S
C409 C297 0.318 . S
C423 C26 0.452 . S
C429 C336 0.302 . S
C449 C253 0.384 . S
C443 C66 0.456 . S
C469 C292 0.416 . S
C463 C106 0.528 . S
C483 C43 2.962 . S
C489 C180 2.911 . S
C503 C83 3.110 . S
C509 C214 3.044 . S
C523 C22 3.156 . S
C529 C136 3.095 . S
C549 C175 3.080 . S
C543 C62 3.150 . S
C569 C219 2.945 . S
C563 C102 2.998 . S
C583 C3 2.958 . S
C589 C141 2.910 . S
C609 C199 1.735 1_554 S
C603 C15 1.718 . S
C623 C55 1.735 . S
C629 C121 1.790 . S
C643 C95 1.744 . S
C649 C160 1.785 . S
C669 C277 1.077 . S
C663 C42 1.079 . S
C689 C316 1.091 1_556 S
C683 C82 1.069 . S
C703 C2 1.057 . S
C709 C238 1.079 . S
