# Generated by pormake.
# Topology cml, (3,6)-cn, num edge types: 1
# Building blocks:
#     Node 0, Type 0, BuildingBlock: KAKCAD_clean_linker_0, # of connection points: 3
#     Node 1, Type 0, BuildingBlock: KAKCAD_clean_linker_0, # of connection points: 3
#     Node 2, Type 0, BuildingBlock: KAKCAD_clean_linker_0, # of connection points: 3
#     Node 3, Type 0, BuildingBlock: KAKCAD_clean_linker_0, # of connection points: 3
#     Node 4, Type 0, BuildingBlock: KAKCAD_clean_linker_0, # of connection points: 3
#     Node 5, Type 0, BuildingBlock: KAKCAD_clean_linker_0, # of connection points: 3
#     Node 6, Type 0, BuildingBlock: KAKCAD_clean_linker_0, # of connection points: 3
#     Node 7, Type 0, BuildingBlock: KAKCAD_clean_linker_0, # of connection points: 3
#     Node 8, Type 1, BuildingBlock: OJICUG_clean_sbu_0, # of connection points: 6
#     Node 9, Type 1, BuildingBlock: OJICUG_clean_sbu_0, # of connection points: 6
#     Node 10, Type 1, BuildingBlock: OJICUG_clean_sbu_0, # of connection points: 6
#     Node 11, Type 1, BuildingBlock: OJICUG_clean_sbu_0, # of connection points: 6
#     Edge 12, Type (0, 1), BuildingBlock: XIVTED_clean_linker_0, # of connection points: 2
#     Edge 13, Type (0, 1), BuildingBlock: XIVTED_clean_linker_0, # of connection points: 2
#     Edge 14, Type (0, 1), BuildingBlock: XIVTED_clean_linker_0, # of connection points: 2
#     Edge 15, Type (0, 1), BuildingBlock: XIVTED_clean_linker_0, # of connection points: 2
#     Edge 16, Type (0, 1), BuildingBlock: XIVTED_clean_linker_0, # of connection points: 2
#     Edge 17, Type (0, 1), BuildingBlock: XIVTED_clean_linker_0, # of connection points: 2
#     Edge 18, Type (0, 1), BuildingBlock: XIVTED_clean_linker_0, # of connection points: 2
#     Edge 19, Type (0, 1), BuildingBlock: XIVTED_clean_linker_0, # of connection points: 2
#     Edge 20, Type (0, 1), BuildingBlock: XIVTED_clean_linker_0, # of connection points: 2
#     Edge 21, Type (0, 1), BuildingBlock: XIVTED_clean_linker_0, # of connection points: 2
#     Edge 22, Type (0, 1), BuildingBlock: XIVTED_clean_linker_0, # of connection points: 2
#     Edge 23, Type (0, 1), BuildingBlock: XIVTED_clean_linker_0, # of connection points: 2
#     Edge 24, Type (0, 1), BuildingBlock: XIVTED_clean_linker_0, # of connection points: 2
#     Edge 25, Type (0, 1), BuildingBlock: XIVTED_clean_linker_0, # of connection points: 2
#     Edge 26, Type (0, 1), BuildingBlock: XIVTED_clean_linker_0, # of connection points: 2
#     Edge 27, Type (0, 1), BuildingBlock: XIVTED_clean_linker_0, # of connection points: 2
#     Edge 28, Type (0, 1), BuildingBlock: XIVTED_clean_linker_0, # of connection points: 2
#     Edge 29, Type (0, 1), BuildingBlock: XIVTED_clean_linker_0, # of connection points: 2
#     Edge 30, Type (0, 1), BuildingBlock: XIVTED_clean_linker_0, # of connection points: 2
#     Edge 31, Type (0, 1), BuildingBlock: XIVTED_clean_linker_0, # of connection points: 2
#     Edge 32, Type (0, 1), BuildingBlock: XIVTED_clean_linker_0, # of connection points: 2
#     Edge 33, Type (0, 1), BuildingBlock: XIVTED_clean_linker_0, # of connection points: 2
#     Edge 34, Type (0, 1), BuildingBlock: XIVTED_clean_linker_0, # of connection points: 2
#     Edge 35, Type (0, 1), BuildingBlock: XIVTED_clean_linker_0, # of connection points: 2
# Relax obj value: 0.072
# Max RMSD: 0.084
# Mean RMSD: 0.080
data_MOF--net-cml--node1-OJICUG_clean_sbu_0--node2-KAKCAD_clean_linker_0--edge1-XIVTED_clean_linker_0
_symmetry_space_group_name_H-M    P1
_symmetry_Int_Tables_number       1
_symmetry_cell_setting            triclinic
loop_
_symmetry_equiv_pos_as_xyz
'x, y, z'
_cell_length_a     47.87566
_cell_length_b     48.441407
_cell_length_c     45.472181
_cell_angle_alpha  89.792748
_cell_angle_beta   90.084848
_cell_angle_gamma 90.013504
loop_
_atom_site_label
_atom_site_type_symbol
_atom_site_fract_x
_atom_site_fract_y
_atom_site_fract_z
_atom_type_partial_charge
C0 C 0.28894 0.50135 0.96409 0.0
C1 C 0.31756 0.50603 0.96871 0.0
C2 C 0.27624 0.47745 0.97509 0.0
C3 C 0.29203 0.45762 0.99055 0.0
C4 C 0.3206 0.46268 0.99542 0.0
C5 C 0.33314 0.48666 0.98482 0.0
C6 C 0.27941 0.43108 0.00029 0.0
C7 C 0.26009 0.41717 0.98231 0.0
C8 C 0.25052 0.39074 0.99002 0.0
C9 C 0.25997 0.37834 0.01614 0.0
C10 C 0.27921 0.39187 0.03422 0.0
C11 C 0.28847 0.41836 0.02647 0.0
C12 C 0.29156 0.37739 0.05977 0.0
C13 C 0.27459 0.36424 0.08075 0.0
C14 C 0.32071 0.37607 0.06275 0.0
C15 C 0.33273 0.36193 0.08631 0.0
C16 C 0.31585 0.34906 0.10755 0.0
C17 C 0.23205 0.37513 0.97003 0.0
C18 C 0.20743 0.38697 0.95887 0.0
C19 C 0.23862 0.34776 0.96284 0.0
C20 C 0.22029 0.33202 0.94604 0.0
C21 C 0.19485 0.34325 0.93625 0.0
C22 C 0.18889 0.37111 0.94216 0.0
C23 C 0.28665 0.3504 0.10466 0.0
H24 H 0.27647 0.51607 0.95179 0.0
H25 H 0.25412 0.4744 0.97126 0.0
H26 H 0.33366 0.44764 0.00652 0.0
H27 H 0.35537 0.48947 0.98818 0.0
H28 H 0.25363 0.42614 0.96152 0.0
H29 H 0.30313 0.42886 0.04076 0.0
H30 H 0.25303 0.35771 0.02192 0.0
H31 H 0.25204 0.36498 0.07884 0.0
H32 H 0.33423 0.38577 0.04666 0.0
H33 H 0.35528 0.36155 0.08825 0.0
H34 H 0.20198 0.4081 0.9641 0.0
H35 H 0.25782 0.33838 0.97061 0.0
H36 H 0.27322 0.34066 0.1208 0.0
H37 H 0.16937 0.38027 0.93505 0.0
H38 H 0.22576 0.31081 0.94126 0.0
C39 C 0.68471 0.51195 0.43221 0.0
C40 C 0.65557 0.51497 0.43108 0.0
C41 C 0.70091 0.5307 0.44815 0.0
C42 C 0.68816 0.55279 0.46297 0.0
C43 C 0.65918 0.5566 0.46023 0.0
C44 C 0.64304 0.53778 0.4446 0.0
C45 C 0.70462 0.57108 0.48246 0.0
C46 C 0.73092 0.58095 0.47388 0.0
C47 C 0.74603 0.599 0.49211 0.0
C48 C 0.73468 0.60673 0.51939 0.0
C49 C 0.70817 0.59748 0.52783 0.0
C50 C 0.6935 0.57938 0.50954 0.0
C51 C 0.69466 0.60824 0.5546 0.0
C52 C 0.70818 0.60713 0.582 0.0
C53 C 0.66769 0.61944 0.5527 0.0
C54 C 0.65418 0.6289 0.5778 0.0
C55 C 0.66728 0.62713 0.60538 0.0
C56 C 0.77229 0.61177 0.48144 0.0
C57 C 0.79164 0.59653 0.46482 0.0
C58 C 0.77734 0.63994 0.48643 0.0
C59 C 0.80097 0.65265 0.47485 0.0
C60 C 0.81998 0.63759 0.45778 0.0
C61 C 0.81522 0.60939 0.45293 0.0
C62 C 0.69446 0.61629 0.6073 0.0
H63 H 0.69475 0.49438 0.42202 0.0
H64 H 0.7232 0.52723 0.44993 0.0
H65 H 0.64884 0.57386 0.47069 0.0
H66 H 0.62061 0.54069 0.44362 0.0
H67 H 0.73897 0.57562 0.45238 0.0
H68 H 0.67325 0.57179 0.51652 0.0
H69 H 0.74595 0.62077 0.53362 0.0
H70 H 0.72901 0.59858 0.58391 0.0
H71 H 0.65698 0.62076 0.53173 0.0
H72 H 0.63312 0.63685 0.57575 0.0
H73 H 0.78847 0.57472 0.46084 0.0
H74 H 0.76257 0.65249 0.49845 0.0
H75 H 0.70499 0.61479 0.62834 0.0
H76 H 0.82971 0.59733 0.43996 0.0
H77 H 0.80388 0.67456 0.47846 0.0
C78 C 0.68725 0.46777 0.93217 0.0
C79 C 0.67591 0.49052 0.94705 0.0
C80 C 0.70196 0.44747 0.94752 0.0
C81 C 0.70588 0.44953 0.97808 0.0
C82 C 0.69536 0.47275 0.99282 0.0
C83 C 0.68048 0.49299 0.97748 0.0
C84 C 0.71953 0.42675 0.99459 0.0
C85 C 0.74227 0.41261 0.9824 0.0
C86 C 0.75331 0.38908 0.99622 0.0
C87 C 0.74195 0.38012 0.02307 0.0
C88 C 0.71963 0.3944 0.0359 0.0
C89 C 0.70856 0.41769 0.02157 0.0
C90 C 0.70629 0.38409 0.06313 0.0
C91 C 0.69808 0.35633 0.0656 0.0
C92 C 0.69965 0.40249 0.08581 0.0
C93 C 0.68383 0.39368 0.10979 0.0
C94 C 0.67403 0.36634 0.11143 0.0
C95 C 0.77562 0.37304 0.98167 0.0
C96 C 0.77408 0.36767 0.95135 0.0
C97 C 0.79818 0.36249 -0.00205 0.0
C98 C 0.81864 0.34661 0.98421 0.0
C99 C 0.81688 0.34094 0.95396 0.0
C100 C 0.79453 0.35182 0.93763 0.0
C101 C 0.68202 0.34753 0.08953 0.0
H102 H 0.68446 0.46544 0.90867 0.0
H103 H 0.70948 0.4297 0.9355 0.0
H104 H 0.6983 0.4751 0.0163 0.0
H105 H 0.67181 0.51012 0.98968 0.0
H106 H 0.75127 0.4198 0.9619 0.0
H107 H 0.69041 0.42787 0.03073 0.0
H108 H 0.75002 0.36169 0.03367 0.0
H109 H 0.7028 0.34177 0.04829 0.0
H110 H 0.70613 0.4239 0.08461 0.0
H111 H 0.67859 0.40852 0.12667 0.0
H112 H 0.75667 0.37514 0.93833 0.0
H113 H 0.80006 0.36661 0.02126 0.0
H114 H 0.67465 0.3264 0.09004 0.0
H115 H 0.79239 0.34743 0.91439 0.0
H116 H 0.83587 0.33879 0.99727 0.0
C117 C 0.28391 0.62658 0.61161 0.0
C118 C 0.31277 0.63187 0.61156 0.0
C119 C 0.27099 0.61527 0.58682 0.0
C120 C 0.28683 0.60864 0.56186 0.0
C121 C 0.31558 0.6143 0.56169 0.0
C122 C 0.3284 0.62595 0.58624 0.0
C123 C 0.27364 0.59526 0.5362 0.0
C124 C 0.24985 0.60684 0.52305 0.0
C125 C 0.23788 0.59484 0.49785 0.0
C126 C 0.24966 0.57048 0.48652 0.0
C127 C 0.27378 0.55909 0.4992 0.0
C128 C 0.2856 0.57153 0.52404 0.0
C129 C 0.28813 0.53571 0.48497 0.0
C130 C 0.27365 0.51142 0.47774 0.0
C131 C 0.3165 0.53811 0.47771 0.0
C132 C 0.33009 0.51684 0.46297 0.0
C133 C 0.31566 0.49261 0.4556 0.0
C134 C 0.21464 0.60904 0.48215 0.0
C135 C 0.19418 0.62362 0.49786 0.0
C136 C 0.21376 0.60962 0.45122 0.0
C137 C 0.19337 0.62491 0.43642 0.0
C138 C 0.17361 0.64042 0.45214 0.0
C139 C 0.17412 0.63931 0.48308 0.0
C140 C 0.28744 0.48984 0.46342 0.0
H141 H 0.27142 0.63103 0.63086 0.0
H142 H 0.24877 0.61104 0.58742 0.0
H143 H 0.32817 0.60957 0.54258 0.0
H144 H 0.35073 0.62955 0.58575 0.0
H145 H 0.24164 0.626 0.5317 0.0
H146 H 0.30423 0.5627 0.5339 0.0
H147 H 0.24074 0.56089 0.46717 0.0
H148 H 0.25175 0.50917 0.48321 0.0
H149 H 0.32803 0.55674 0.48284 0.0
H150 H 0.35192 0.51932 0.4573 0.0
H151 H 0.19389 0.62332 0.52167 0.0
H152 H 0.22935 0.59898 0.43829 0.0
H153 H 0.27595 0.47132 0.45783 0.0
H154 H 0.15955 0.65121 0.49607 0.0
H155 H 0.19336 0.62477 0.41262 0.0
C156 C 0.80051 0.9825 0.95728 0.0
C157 C 0.8294 0.98489 0.96189 0.0
C158 C 0.78581 0.96006 0.96892 0.0
C159 C 0.79984 0.9394 0.98501 0.0
C160 C 0.82881 0.94191 0.98945 0.0
C161 C 0.84336 0.9645 0.97821 0.0
C162 C 0.7846 0.91492 0.99651 0.0
C163 C 0.76361 0.90227 0.97967 0.0
C164 C 0.75014 0.87822 0.98971 0.0
C165 C 0.75788 0.86692 0.01708 0.0
C166 C 0.77943 0.87877 0.03358 0.0
C167 C 0.79224 0.90304 0.02355 0.0
C168 C 0.79064 0.8644 0.05972 0.0
C169 C 0.77315 0.85622 0.08294 0.0
C170 C 0.8193 0.85855 0.06123 0.0
C171 C 0.83044 0.84515 0.0857 0.0
C172 C 0.8132 0.83757 0.10934 0.0
C173 C 0.72961 0.8638 0.97064 0.0
C174 C 0.71095 0.87876 0.95276 0.0
C175 C 0.72913 0.83482 0.96953 0.0
C176 C 0.71033 0.82114 0.95129 0.0
C177 C 0.69185 0.83603 0.93316 0.0
C178 C 0.69241 0.86504 0.93408 0.0
C179 C 0.78442 0.84314 0.10776 0.0
H180 H 0.78929 -0.00191 0.94486 0.0
H181 H 0.76346 0.95895 0.96539 0.0
H182 H 0.84047 0.9261 0.00106 0.0
H183 H 0.86574 0.96563 0.98161 0.0
H184 H 0.75876 0.91037 0.95803 0.0
H185 H 0.80848 0.91241 0.03681 0.0
H186 H 0.74795 0.84826 0.02511 0.0
H187 H 0.75095 0.86048 0.08212 0.0
H188 H 0.83313 0.86438 0.04341 0.0
H189 H 0.85276 0.84151 0.08653 0.0
H190 H 0.71056 0.90111 0.95323 0.0
H191 H 0.74354 0.82256 0.98249 0.0
H192 H 0.77073 0.83753 0.12577 0.0
H193 H 0.67869 0.87723 0.92025 0.0
H194 H 0.71017 0.79879 0.95173 0.0
C195 C 0.19103 0.00475 0.44177 0.0
C196 C 0.16254 0.00884 0.43579 0.0
C197 C 0.20599 0.0242 0.45804 0.0
C198 C 0.19257 0.04782 0.46891 0.0
C199 C 0.16417 0.05204 0.46265 0.0
C200 C 0.14932 0.03278 0.44613 0.0
C201 C 0.20803 0.06795 0.48703 0.0
C202 C 0.2339 0.07817 0.47759 0.0
C203 C 0.2483 0.098 0.49423 0.0
C204 C 0.23674 0.107 0.52096 0.0
C205 C 0.21065 0.09726 0.53036 0.0
C206 C 0.19647 0.07766 0.51333 0.0
C207 C 0.19754 0.10841 0.55727 0.0
C208 C 0.2128 0.11065 0.58356 0.0
C209 C 0.16949 0.11684 0.55671 0.0
C210 C 0.15677 0.12693 0.58205 0.0
C211 C 0.1718 0.12865 0.60853 0.0
C212 C 0.27415 0.11087 0.48251 0.0
C213 C 0.29378 0.09525 0.46665 0.0
C214 C 0.27858 0.13937 0.48581 0.0
C215 C 0.30192 0.15198 0.47345 0.0
C216 C 0.3212 0.13649 0.4572 0.0
C217 C 0.31702 0.10801 0.4539 0.0
C218 C 0.19998 0.12054 0.60904 0.0
H219 H 0.2017 0.98649 0.43392 0.0
H220 H 0.22788 0.02049 0.46267 0.0
H221 H 0.15345 0.07025 0.47055 0.0
H222 H 0.12729 0.03628 0.4421 0.0
H223 H 0.24211 0.07157 0.45656 0.0
H224 H 0.17647 0.06975 0.52071 0.0
H225 H 0.24763 0.12223 0.53408 0.0
H226 H 0.23446 0.10423 0.58456 0.0
H227 H 0.15735 0.11564 0.53663 0.0
H228 H 0.13493 0.13271 0.58108 0.0
H229 H 0.29117 0.07319 0.46399 0.0
H230 H 0.26359 0.1522 0.49719 0.0
H231 H 0.21207 0.12176 0.62915 0.0
H232 H 0.33176 0.09564 0.4416 0.0
H233 H 0.30447 0.17408 0.47589 0.0
C234 C 0.20601 0.98076 0.94993 0.0
C235 C 0.19211 0.00168 0.9654 0.0
C236 C 0.22042 0.9601 0.96494 0.0
C237 C 0.22179 0.96006 0.99586 0.0
C238 C 0.20929 0.98192 0.01128 0.0
C239 C 0.1945 0.00246 0.99622 0.0
C240 C 0.23411 0.93602 0.01162 0.0
C241 C 0.25673 0.92173 -0.00058 0.0
C242 C 0.26505 0.89596 0.0106 0.0
C243 C 0.25183 0.8854 0.03581 0.0
C244 C 0.2302 0.90019 0.04933 0.0
C245 C 0.22131 0.92532 0.03698 0.0
C246 C 0.21511 0.88867 0.07496 0.0
C247 C 0.20474 0.86153 0.07447 0.0
C248 C 0.20897 0.90562 0.09903 0.0
C249 C 0.19154 0.89618 0.12144 0.0
C250 C 0.17964 0.86967 0.1201 0.0
C251 C 0.28596 0.87936 0.99439 0.0
C252 C 0.28561 0.879 0.96347 0.0
C253 C 0.30598 0.86347 0.00941 0.0
C254 C 0.32526 0.84762 0.99379 0.0
C255 C 0.32502 0.8475 0.96283 0.0
C256 C 0.30502 0.86346 0.9479 0.0
C257 C 0.1871 0.85211 0.09686 0.0
H258 H 0.20509 0.97985 0.92615 0.0
H259 H 0.22939 0.94348 0.95221 0.0
H260 H 0.2103 0.98279 0.03505 0.0
H261 H 0.18395 0.01823 0.00884 0.0
H262 H 0.26741 0.93032 0.9805 0.0
H263 H 0.20328 0.93565 0.04621 0.0
H264 H 0.25781 0.8654 0.04452 0.0
H265 H 0.20904 0.8481 0.05603 0.0
H266 H 0.21707 0.92648 0.10012 0.0
H267 H 0.1867 0.90998 0.13942 0.0
H268 H 0.27011 0.89054 0.95116 0.0
H269 H 0.30687 0.86338 0.03321 0.0
H270 H 0.17814 0.83164 0.09514 0.0
H271 H 0.30443 0.86415 0.9241 0.0
H272 H 0.34013 0.83524 0.00601 0.0
C273 C 0.79892 0.13436 0.60848 0.0
C274 C 0.82792 0.13052 0.61053 0.0
C275 C 0.78449 0.12588 0.58325 0.0
C276 C 0.79895 0.11368 0.5597 0.0
C277 C 0.82819 0.1114 0.56134 0.0
C278 C 0.84246 0.11952 0.58655 0.0
C279 C 0.78384 0.10228 0.53391 0.0
C280 C 0.76147 0.11659 0.52091 0.0
C281 C 0.74843 0.10636 0.4954 0.0
C282 C 0.75763 0.08129 0.48333 0.0
C283 C 0.78007 0.06703 0.49595 0.0
C284 C 0.79279 0.07737 0.52135 0.0
C285 C 0.79244 0.04308 0.48092 0.0
C286 C 0.77657 0.01942 0.47468 0.0
C287 C 0.82055 0.04419 0.47234 0.0
C288 C 0.8326 0.02214 0.45748 0.0
C289 C 0.8169 -0.0016 0.45136 0.0
C290 C 0.72678 0.12293 0.48008 0.0
C291 C 0.70582 0.13653 0.49603 0.0
C292 C 0.72757 0.12602 0.44934 0.0
C293 C 0.708 0.14254 0.43487 0.0
C294 C 0.68723 0.15639 0.45083 0.0
C295 C 0.68623 0.15308 0.48154 0.0
C296 C 0.78887 -0.00301 0.46027 0.0
H297 H 0.78734 0.14278 0.62682 0.0
H298 H 0.76197 0.1279 0.58265 0.0
H299 H 0.84009 0.10292 0.54326 0.0
H300 H 0.86491 0.11677 0.58754 0.0
H301 H 0.75515 0.13637 0.52976 0.0
H302 H 0.80999 0.066 0.53109 0.0
H303 H 0.74805 0.07335 0.46346 0.0
H304 H 0.75484 0.01824 0.48116 0.0
H305 H 0.83309 0.06233 0.47679 0.0
H306 H 0.85431 0.02354 0.4509 0.0
H307 H 0.70451 0.13429 0.5197 0.0
H308 H 0.7438 0.11624 0.43647 0.0
H309 H 0.77646 0.97881 0.45566 0.0
H310 H 0.67019 0.16318 0.49439 0.0
H311 H 0.70958 0.145 0.41125 0.0
Sc312 Sc 0.99473 0.78056 0.30551 0.0
Sc313 Sc 0.98546 0.85285 0.30653 0.0
Sc314 Sc 0.9929 0.81683 0.37294 0.0
O315 O 0.99109 0.81665 0.32833 0.0
C316 C 0.95675 0.76304 0.36034 0.0
C317 C 0.94593 0.81209 0.27099 0.0
C318 C 0.94596 0.86237 0.3618 0.0
C319 C 0.02915 0.82194 0.26491 0.0
C320 C 0.03848 0.77099 0.35737 0.0
C321 C 0.02934 0.86964 0.356 0.0
O322 O 0.96578 0.75927 0.33431 0.0
O323 O 0.95248 0.83585 0.28048 0.0
O324 O 0.95792 0.84454 0.37802 0.0
O325 O 0.02445 0.79768 0.27451 0.0
O326 O 0.02737 0.78865 0.37428 0.0
O327 O 0.01787 0.87331 0.33105 0.0
O328 O 0.02965 0.76625 0.33149 0.0
O329 O 0.01614 0.84298 0.27419 0.0
O330 O 0.02237 0.8503 0.3735 0.0
O331 O 0.95981 0.79038 0.27701 0.0
O332 O 0.96429 0.7832 0.37628 0.0
O333 O 0.95391 0.86751 0.33579 0.0
Sc334 Sc 0.00026 0.2014 0.81108 0.0
Sc335 Sc 0.00318 0.12872 0.81808 0.0
Sc336 Sc 0.00445 0.16979 0.88115 0.0
O337 O 0.00261 0.1667 0.83672 0.0
C338 C 0.04386 0.21935 0.86043 0.0
C339 C 0.04261 0.16311 0.77521 0.0
C340 C 0.04711 0.12081 0.87034 0.0
C341 C 0.95885 0.16073 0.77768 0.0
C342 C 0.96039 0.2166 0.86485 0.0
C343 C 0.96333 0.11855 0.87288 0.0
O344 O 0.03359 0.2218 0.83473 0.0
O345 O 0.03501 0.14077 0.78754 0.0
O346 O 0.03837 0.14117 0.88517 0.0
O347 O 0.9667 0.18497 0.7845 0.0
O348 O 0.971 0.19887 0.88215 0.0
O349 O 0.97125 0.11306 0.84689 0.0
O350 O 0.96897 0.22037 0.83867 0.0
O351 O 0.97063 0.13914 0.78764 0.0
O352 O 0.97398 0.13782 0.88811 0.0
O353 O 0.03139 0.18636 0.78063 0.0
O354 O 0.03502 0.20189 0.8791 0.0
O355 O 0.03597 0.11348 0.84623 0.0
Sc356 Sc 0.49482 0.27949 0.30309 0.0
Sc357 Sc 0.48436 0.35151 0.30469 0.0
Sc358 Sc 0.49253 0.31534 0.37061 0.0
O359 O 0.49058 0.31533 0.32611 0.0
C360 C 0.45875 0.2597 0.3578 0.0
C361 C 0.44544 0.31072 0.26895 0.0
C362 C 0.44437 0.35892 0.36041 0.0
C363 C 0.52812 0.32135 0.26245 0.0
C364 C 0.54026 0.27251 0.35439 0.0
C365 C 0.52654 0.37006 0.35417 0.0
O366 O 0.46539 0.25766 0.3308 0.0
O367 O 0.45063 0.33425 0.27993 0.0
O368 O 0.45494 0.33939 0.37546 0.0
O369 O 0.52504 0.29722 0.27308 0.0
O370 O 0.53005 0.29124 0.37065 0.0
O371 O 0.51768 0.37188 0.32788 0.0
O372 O 0.52932 0.2654 0.33001 0.0
O373 O 0.51382 0.34186 0.27097 0.0
O374 O 0.51803 0.35176 0.37213 0.0
O375 O 0.46055 0.2895 0.27364 0.0
O376 O 0.46765 0.27892 0.37425 0.0
O377 O 0.45394 0.36614 0.33553 0.0
Sc378 Sc 0.49346 0.70543 0.80289 0.0
Sc379 Sc 0.48971 0.63292 0.81057 0.0
Sc380 Sc 0.50162 0.67425 0.87245 0.0
O381 O 0.49485 0.67087 0.82859 0.0
C382 C 0.54301 0.71936 0.84768 0.0
C383 C 0.52998 0.66365 0.76495 0.0
C384 C 0.53636 0.61985 0.85855 0.0
C385 C 0.44646 0.66832 0.77275 0.0
C386 C 0.46131 0.7256 0.85936 0.0
C387 C 0.45348 0.62894 0.86933 0.0
O388 O 0.52819 0.72472 0.82517 0.0
O389 O 0.51927 0.64204 0.77629 0.0
O390 O 0.53016 0.64034 0.87449 0.0
O391 O 0.45859 0.69126 0.77703 0.0
O392 O 0.47447 0.70918 0.87624 0.0
O393 O 0.45982 0.62094 0.84356 0.0
O394 O 0.46411 0.72568 0.83155 0.0
O395 O 0.45501 0.64583 0.78396 0.0
O396 O 0.46656 0.64804 0.8827 0.0
O397 O 0.52289 0.68802 0.77225 0.0
O398 O 0.53715 0.70038 0.86597 0.0
O399 O 0.52375 0.61453 0.83468 0.0
H400 H 0.16054 0.35439 0.88885 0.0
H401 H 0.07883 0.21162 0.90685 0.0
H402 H 0.18069 0.29102 0.95242 0.0
H403 H 0.06256 0.26765 0.83471 0.0
H404 H 0.11628 0.2414 0.92328 0.0
H405 H 0.12444 0.32397 0.86821 0.0
C406 C 0.15744 0.33409 0.89837 0.0
C407 C 0.17375 0.32515 0.92227 0.0
C408 C 0.10466 0.24726 0.90379 0.0
C409 C 0.13274 0.29046 0.8989 0.0
C410 C 0.08311 0.23026 0.89442 0.0
C411 C 0.06734 0.23723 0.86946 0.0
C412 C 0.11055 0.27167 0.8883 0.0
C413 C 0.07419 0.26152 0.8541 0.0
C414 C 0.13698 0.31674 0.88652 0.0
C415 C 0.16901 0.29863 0.93368 0.0
N416 N 0.09523 0.27803 0.8639 0.0
N417 N 0.14893 0.28234 0.92197 0.0
H418 H 0.85594 0.67338 0.48399 0.0
H419 H 0.93205 0.71765 0.33452 0.0
H420 H 0.83808 0.63468 0.40075 0.0
H421 H 0.9382 0.76149 0.41691 0.0
H422 H 0.90144 0.68376 0.35851 0.0
H423 H 0.89118 0.70188 0.46007 0.0
C424 C 0.85964 0.67079 0.46066 0.0
C425 C 0.84393 0.65196 0.44422 0.0
C426 C 0.9096 0.70083 0.37122 0.0
C427 C 0.88404 0.68462 0.41655 0.0
C428 C 0.92698 0.7202 0.35755 0.0
C429 C 0.93763 0.74256 0.37364 0.0
C430 C 0.90306 0.70385 0.40115 0.0
C431 C 0.93044 0.74475 0.40347 0.0
C432 C 0.87972 0.68706 0.44698 0.0
C433 C 0.84984 0.64901 0.41417 0.0
N434 N 0.91367 0.72568 0.41617 0.0
N435 N 0.86929 0.66544 0.40115 0.0
H436 H 0.84188 0.34768 0.90013 0.0
H437 H 0.93186 0.20955 0.91615 0.0
H438 H 0.83896 0.29293 0.97518 0.0
H439 H 0.93684 0.26313 0.84015 0.0
H440 H 0.89643 0.23943 0.93688 0.0
H441 H 0.87553 0.31669 0.87676 0.0
C442 C 0.84827 0.32911 0.91164 0.0
C443 C 0.83772 0.3229 0.93969 0.0
C444 C 0.90517 0.24469 0.91563 0.0
C445 C 0.87615 0.28752 0.9132 0.0
C446 C 0.92547 0.22761 0.90373 0.0
C447 C 0.93756 0.23394 0.87642 0.0
C448 C 0.8968 0.26844 0.90024 0.0
C449 C 0.92814 0.25749 0.86129 0.0
C450 C 0.86751 0.3115 0.89834 0.0
C451 C 0.84689 0.29875 0.95375 0.0
N452 N 0.90838 0.27401 0.87351 0.0
N453 N 0.86555 0.28196 0.94035 0.0
H454 H 0.1195 0.65248 0.46777 0.0
H455 H 0.07868 0.74121 0.32804 0.0
H456 H 0.18102 0.66979 0.40066 0.0
H457 H 0.04795 0.75956 0.41506 0.0
H458 H 0.11223 0.70859 0.35003 0.0
H459 H 0.08787 0.68507 0.44398 0.0
C460 C 0.12649 0.66311 0.44813 0.0
C461 C 0.15325 0.65851 0.43652 0.0
C462 C 0.09819 0.71999 0.36415 0.0
C463 C 0.11664 0.69523 0.40874 0.0
C464 C 0.07912 0.73853 0.3517 0.0
C465 C 0.0606 0.75318 0.36977 0.0
C466 C 0.09807 0.71564 0.39469 0.0
C467 C 0.06198 0.74891 0.4003 0.0
C468 C 0.10832 0.6816 0.43451 0.0
C469 C 0.16057 0.67234 0.41034 0.0
N470 N 0.08015 0.7303 0.41175 0.0
N471 N 0.14233 0.69007 0.39727 0.0
H472 H 0.63787 0.85075 0.91915 0.0
H473 H 0.59223 0.70346 0.87232 0.0
H474 H 0.69945 0.78721 0.9036 0.0
H475 H 0.54897 0.77461 0.83759 0.0
H476 H 0.63082 0.73344 0.88736 0.0
H477 H 0.6037 0.82347 0.89192 0.0
C478 C 0.64443 0.83134 0.90968 0.0
C479 C 0.67159 0.82114 0.91415 0.0
C480 C 0.61305 0.7424 0.87606 0.0
C481 C 0.63229 0.78962 0.88372 0.0
C482 C 0.59104 0.72538 0.86764 0.0
C483 C 0.56748 0.73671 0.85385 0.0
C484 C 0.61105 0.77097 0.87138 0.0
C485 C 0.5669 0.76517 0.84812 0.0
C486 C 0.62484 0.81577 0.89422 0.0
C487 C 0.67858 0.79557 0.9016 0.0
N488 N 0.58821 0.7815 0.85744 0.0
N489 N 0.65892 0.78047 0.8874 0.0
H490 H 0.35733 0.1725 0.48257 0.0
H491 H 0.43011 0.21687 0.33135 0.0
H492 H 0.33902 0.13258 0.40014 0.0
H493 H 0.4457 0.25461 0.41578 0.0
H494 H 0.39928 0.18333 0.3557 0.0
H495 H 0.39313 0.19994 0.45821 0.0
C496 C 0.36105 0.16944 0.45931 0.0
C497 C 0.34512 0.15053 0.44323 0.0
C498 C 0.40962 0.19894 0.36878 0.0
C499 C 0.38586 0.18201 0.415 0.0
C500 C 0.42714 0.21809 0.35492 0.0
C501 C 0.44034 0.23878 0.37146 0.0
C502 C 0.40543 0.20054 0.39932 0.0
C503 C 0.43584 0.23929 0.40196 0.0
C504 C 0.38148 0.18508 0.44536 0.0
C505 C 0.35097 0.14699 0.41325 0.0
N506 N 0.41876 0.22056 0.41479 0.0
N507 N 0.37073 0.16286 0.39994 0.0
H508 H 0.31643 0.81849 0.91179 0.0
H509 H 0.46413 0.74529 0.9151 0.0
H510 H 0.38025 0.83834 0.97561 0.0
H511 H 0.41529 0.75112 0.83541 0.0
H512 H 0.4316 0.77646 0.93919 0.0
H513 H 0.3505 0.79102 0.88476 0.0
C514 C 0.33763 0.81731 0.92002 0.0
C515 C 0.34545 0.83076 0.94611 0.0
C516 C 0.42807 0.77108 0.91638 0.0
C517 C 0.38426 0.79889 0.91553 0.0
C518 C 0.44653 0.75317 0.90265 0.0
C519 C 0.44227 0.74551 0.87326 0.0
C520 C 0.4049 0.7811 0.9008 0.0
C521 C 0.4193 0.75657 0.8581 0.0
C522 C 0.35701 0.80155 0.90459 0.0
C523 C 0.3731 0.82796 0.95596 0.0
N524 N 0.40123 0.77366 0.87217 0.0
N525 N 0.39145 0.8122 0.94075 0.0
H526 H 0.66861 0.2072 0.46804 0.0
H527 H 0.56462 0.22591 0.33145 0.0
H528 H 0.66005 0.14727 0.39859 0.0
H529 H 0.57186 0.28392 0.40302 0.0
H530 H 0.60212 0.1985 0.35348 0.0
H531 H 0.63506 0.23686 0.44276 0.0
C532 C 0.65955 0.20022 0.44754 0.0
C533 C 0.66701 0.17464 0.43551 0.0
C534 C 0.59559 0.21733 0.36423 0.0
C535 C 0.62882 0.20867 0.4062 0.0
C536 C 0.57424 0.23306 0.35161 0.0
C537 C 0.56484 0.25716 0.36552 0.0
C538 C 0.60762 0.22577 0.39092 0.0
C539 C 0.57817 0.26538 0.39161 0.0
C540 C 0.64055 0.21725 0.43299 0.0
C541 C 0.65505 0.16691 0.40855 0.0
N542 N 0.59873 0.24964 0.40352 0.0
N543 N 0.63645 0.18381 0.39485 0.0
H544 H 0.31352 0.524 0.9119 0.0
H545 H 0.43986 0.63096 0.92787 0.0
H546 H 0.3548 0.54149 0.99415 0.0
H547 H 0.41334 0.59564 0.84531 0.0
H548 H 0.40239 0.60578 0.95271 0.0
H549 H 0.34317 0.55837 0.88767 0.0
C550 C 0.32843 0.53551 0.92495 0.0
C551 C 0.33196 0.52979 0.95498 0.0
C552 C 0.40471 0.60372 0.92913 0.0
C553 C 0.36607 0.56874 0.92743 0.0
C554 C 0.42607 0.61809 0.91492 0.0
C555 C 0.43 0.61512 0.8845 0.0
C556 C 0.38702 0.58647 0.91278 0.0
C557 C 0.41137 0.59824 0.86885 0.0
C558 C 0.34549 0.55492 0.91109 0.0
C559 C 0.35174 0.54508 0.97085 0.0
N560 N 0.39076 0.58447 0.88319 0.0
N561 N 0.36823 0.56374 0.95684 0.0
H562 H 0.65917 0.49131 0.3764 0.0
H563 H 0.54031 0.38104 0.41107 0.0
H564 H 0.61214 0.48903 0.45721 0.0
H565 H 0.55959 0.40538 0.32186 0.0
H566 H 0.57308 0.41546 0.42899 0.0
H567 H 0.62866 0.45486 0.35649 0.0
C568 C 0.64246 0.48307 0.38987 0.0
C569 C 0.63787 0.49319 0.41831 0.0
C570 C 0.57015 0.41327 0.40549 0.0
C571 C 0.60355 0.45173 0.39611 0.0
C572 C 0.55153 0.39354 0.3952 0.0
C573 C 0.54706 0.39043 0.36489 0.0
C574 C 0.5847 0.42989 0.38539 0.0
C575 C 0.56224 0.40727 0.34542 0.0
C576 C 0.62509 0.46248 0.37853 0.0
C577 C 0.61606 0.48198 0.43502 0.0
N578 N 0.5805 0.42633 0.35602 0.0
N579 N 0.59979 0.46176 0.42372 0.0
H580 H 0.67395 0.54677 0.95406 0.0
H581 H 0.55018 0.56846 0.83779 0.0
H582 H 0.63714 0.48041 0.90402 0.0
H583 H 0.57445 0.62932 0.90218 0.0
H584 H 0.58657 0.5377 0.85672 0.0
H585 H 0.64194 0.57911 0.93018 0.0
C586 C 0.65918 0.53899 0.93804 0.0
C587 C 0.65814 0.51078 0.9312 0.0
C588 C 0.58394 0.55783 0.8666 0.0
C589 C 0.62167 0.54772 0.90357 0.0
C590 C 0.56322 0.57542 0.85577 0.0
C591 C 0.55906 0.6014 0.8686 0.0
C592 C 0.60072 0.56639 0.89023 0.0
C593 C 0.57667 0.60935 0.89181 0.0
C594 C 0.641 0.55748 0.92433 0.0
C595 C 0.63893 0.50199 0.90979 0.0
N596 N 0.59667 0.59189 0.90191 0.0
N597 N 0.62138 0.52038 0.89683 0.0
H598 H 0.34378 0.49815 0.40422 0.0
H599 H 0.41703 0.35154 0.41321 0.0
H600 H 0.32075 0.43782 0.46976 0.0
H601 H 0.41836 0.40358 0.33583 0.0
H602 H 0.38167 0.38195 0.4347 0.0
H603 H 0.37144 0.46316 0.37908 0.0
C604 C 0.34447 0.47739 0.41315 0.0
C605 C 0.33021 0.47077 0.43909 0.0
C606 C 0.38954 0.38645 0.41288 0.0
C607 C 0.36197 0.43067 0.41072 0.0
C608 C 0.40976 0.36915 0.40062 0.0
C609 C 0.421 0.37516 0.3728 0.0
C610 C 0.38078 0.41001 0.39732 0.0
C611 C 0.4106 0.39819 0.35745 0.0
C612 C 0.36015 0.4574 0.39879 0.0
C613 C 0.3315 0.44359 0.44973 0.0
N614 N 0.39135 0.41488 0.37004 0.0
N615 N 0.34747 0.42452 0.43568 0.0
H616 H 0.82798 0.00375 0.90522 0.0
H617 H 0.94796 0.11594 0.93078 0.0
H618 H 0.8673 0.01814 0.98918 0.0
H619 H 0.9277 0.08255 0.84539 0.0
H620 H 0.9123 0.08633 0.95268 0.0
H621 H 0.85818 0.0391 0.88322 0.0
C622 C 0.84271 0.01466 0.91906 0.0
C623 C 0.84537 0.008 0.94896 0.0
C624 C 0.91563 0.08558 0.92914 0.0
C625 C 0.87986 0.04815 0.92409 0.0
C626 C 0.93593 0.10251 0.91659 0.0
C627 C 0.94103 0.10154 0.88621 0.0
C628 C 0.90011 0.06774 0.91118 0.0
C629 C 0.92471 0.08375 0.86894 0.0
C630 C 0.86003 0.03463 0.9065 0.0
C631 C 0.86489 0.02251 0.96595 0.0
N632 N 0.90498 0.06751 0.88169 0.0
N633 N 0.88145 0.04189 0.95326 0.0
H634 H 0.12516 0.01639 0.39096 0.0
H635 H 0.06649 0.86314 0.40125 0.0
H636 H 0.16238 0.95321 0.44544 0.0
H637 H 0.04297 0.91988 0.33202 0.0
H638 H 0.1017 0.89598 0.41778 0.0
H639 H 0.09487 0.98146 0.36881 0.0
C640 C 0.12704 -0.00489 0.39808 0.0
C641 C 0.14613 0.98763 0.42013 0.0
C642 C 0.08897 0.90117 0.39885 0.0
C643 C 0.11158 0.9477 0.39511 0.0
C644 C 0.06875 0.88248 0.38947 0.0
C645 C 0.05157 0.88886 0.36535 0.0
C646 C 0.09186 0.92657 0.38422 0.0
C647 C 0.05568 0.91413 0.35077 0.0
C648 C 0.10987 0.97519 0.38538 0.0
C649 C 0.14802 0.95978 0.42838 0.0
N650 N 0.07525 0.93219 0.36061 0.0
N651 N 0.13072 0.94084 0.41608 0.0
H652 H 0.18368 0.05706 0.97581 0.0
H653 H 0.06816 0.0721 0.84944 0.0
H654 H 0.1575 0.99053 0.91907 0.0
H655 H 0.08033 0.13265 0.91784 0.0
H656 H 0.10583 0.04458 0.87063 0.0
H657 H 0.1503 0.08756 0.95097 0.0
C658 C 0.17102 0.04887 0.95812 0.0
C659 C 0.17346 0.02117 0.94954 0.0
C660 C 0.10029 0.06394 0.88094 0.0
C661 C 0.13553 0.05596 0.9209 0.0
C662 C 0.07881 0.0797 0.86882 0.0
C663 C 0.07085 0.10462 0.88203 0.0
C664 C 0.11402 0.07317 0.90638 0.0
C665 C 0.08555 0.11344 0.90707 0.0
C666 C 0.15207 0.06631 0.94389 0.0
C667 C 0.15677 0.01182 0.92616 0.0
N668 N 0.10638 0.09768 0.9185 0.0
N669 N 0.13851 0.02915 0.91274 0.0
H670 H 0.84074 0.0004 0.39745 0.0
H671 H 0.92105 0.85835 0.41628 0.0
H672 H 0.82381 0.94498 0.4696 0.0
H673 H 0.91731 0.904 0.33455 0.0
H674 H 0.88493 0.88873 0.43636 0.0
H675 H 0.86826 0.96436 0.37378 0.0
C676 C 0.8426 0.98041 0.40805 0.0
C677 C 0.83019 0.9755 0.43541 0.0
C678 C 0.89186 0.89182 0.41393 0.0
C679 C 0.862 0.93436 0.40891 0.0
C680 C 0.91254 0.87457 0.40248 0.0
C681 C 0.92256 0.87882 0.37379 0.0
C682 C 0.88137 0.91357 0.39665 0.0
C683 C 0.91054 0.90005 0.35687 0.0
C684 C 0.85827 0.95985 0.3946 0.0
C685 C 0.83309 0.94937 0.44839 0.0
N686 N 0.89085 0.91676 0.36866 0.0
N687 N 0.84909 0.92979 0.4352 0.0
H688 H 0.30266 0.35584 0.16546 0.0
H689 H 0.43855 0.2757 0.22222 0.0
H690 H 0.3592 0.31236 0.10821 0.0
H691 H 0.39797 0.34156 0.26943 0.0
H692 H 0.40179 0.27832 0.18461 0.0
H693 H 0.32964 0.33963 0.20794 0.0
C694 C 0.3204 0.34238 0.16191 0.0
C695 C 0.32901 0.33571 0.13336 0.0
C696 C 0.40077 0.29186 0.20348 0.0
C697 C 0.35994 0.3173 0.18163 0.0
C698 C 0.42162 0.2903 0.22496 0.0
C699 C 0.42148 0.30876 0.24865 0.0
C700 C 0.37955 0.31174 0.20606 0.0
C701 C 0.3991 0.32728 0.2512 0.0
C702 C 0.33585 0.33329 0.18609 0.0
C703 C 0.35222 0.31833 0.12991 0.0
N704 N 0.37914 0.32844 0.23004 0.0
N705 N 0.36707 0.30991 0.15377 0.0
H706 H 0.662 0.59803 0.65658 0.0
H707 H 0.55112 0.70226 0.72664 0.0
H708 H 0.63659 0.67392 0.61444 0.0
H709 H 0.56007 0.61703 0.75329 0.0
H710 H 0.58807 0.69547 0.69024 0.0
H711 H 0.63096 0.60852 0.69776 0.0
C712 C 0.65025 0.61714 0.65628 0.0
C713 C 0.65164 0.63506 0.63205 0.0
C714 C 0.58193 0.67832 0.70413 0.0
C715 C 0.61595 0.647 0.67874 0.0
C716 C 0.56086 0.68216 0.7249 0.0
C717 C 0.55228 0.66011 0.74285 0.0
C718 C 0.59469 0.65235 0.70156 0.0
C719 C 0.56574 0.63453 0.73968 0.0
C720 C 0.63237 0.62298 0.67961 0.0
C721 C 0.63579 0.65941 0.63258 0.0
N722 N 0.58627 0.63137 0.71944 0.0
N723 N 0.61846 0.66463 0.65551 0.0
H724 H 0.67051 0.31764 0.14305 0.0
H725 H 0.53492 0.36819 0.23007 0.0
H726 H 0.63016 0.39664 0.13142 0.0
H727 H 0.56988 0.28672 0.24234 0.0
H728 H 0.57048 0.37812 0.1939 0.0
H729 H 0.63476 0.30514 0.17947 0.0
C730 C 0.65421 0.33235 0.14817 0.0
C731 C 0.65351 0.35835 0.13437 0.0
C732 C 0.57049 0.35801 0.20437 0.0
C733 C 0.61273 0.34422 0.17582 0.0
C734 C 0.55009 0.35227 0.22516 0.0
C735 C 0.54938 0.32655 0.23946 0.0
C736 C 0.5906 0.33798 0.19762 0.0
C737 C 0.56961 0.30681 0.23186 0.0
C738 C 0.63389 0.32522 0.16896 0.0
C739 C 0.63199 0.37663 0.14191 0.0
N740 N 0.58952 0.31297 0.21147 0.0
N741 N 0.61255 0.3692 0.16205 0.0
H742 H 0.30756 0.61236 0.66767 0.0
H743 H 0.43114 0.70622 0.73082 0.0
H744 H 0.35084 0.67375 0.61605 0.0
H745 H 0.40671 0.62797 0.76864 0.0
H746 H 0.39406 0.70131 0.69408 0.0
H747 H 0.33603 0.62502 0.71033 0.0
C748 C 0.3227 0.62886 0.6655 0.0
C749 C 0.32709 0.64189 0.63831 0.0
C750 C 0.39669 0.68539 0.71064 0.0
C751 C 0.35971 0.65631 0.68679 0.0
C752 C 0.41775 0.68821 0.73167 0.0
C753 C 0.42226 0.66729 0.75258 0.0
C754 C 0.37985 0.66167 0.71077 0.0
C755 C 0.40425 0.64441 0.75265 0.0
C756 C 0.33904 0.63593 0.68975 0.0
C757 C 0.34712 0.66297 0.63658 0.0
N758 N 0.38391 0.64215 0.73196 0.0
N759 N 0.36283 0.66945 0.66047 0.0
H760 H 0.85124 0.79565 0.11376 0.0
H761 H 0.90093 0.84633 0.26948 0.0
H762 H 0.80485 0.85389 0.16598 0.0
H763 H 0.93485 0.7735 0.22843 0.0
H764 H 0.86297 0.84644 0.23379 0.0
H765 H 0.87913 0.78369 0.15709 0.0
C766 C 0.84663 0.80553 0.13453 0.0
C767 C 0.82602 0.82604 0.1363 0.0
C768 C 0.87846 0.83018 0.23276 0.0
C769 C 0.85796 0.81278 0.18573 0.0
C770 C 0.90025 0.83021 0.25304 0.0
C771 C 0.92131 0.81014 0.25157 0.0
C772 C 0.87796 0.81025 0.21046 0.0
C773 C 0.91912 0.78947 0.23017 0.0
C774 C 0.86248 0.79867 0.15924 0.0
C775 C 0.82058 0.838 0.16371 0.0
N776 N 0.89808 0.79033 0.21007 0.0
N777 N 0.83683 0.83156 0.18726 0.0
H778 H 0.17466 0.10473 0.66294 0.0
H779 H 0.05619 0.20096 0.7324 0.0
H780 H 0.13608 0.17226 0.61593 0.0
H781 H 0.08059 0.12171 0.76785 0.0
H782 H 0.09158 0.19583 0.69392 0.0
H783 H 0.14679 0.11624 0.70617 0.0
C784 C 0.16065 0.12226 0.66189 0.0
C785 C 0.15747 0.13743 0.63577 0.0
C786 C 0.08925 0.17969 0.71028 0.0
C787 C 0.12531 0.15049 0.68496 0.0
C788 C 0.06914 0.18263 0.73227 0.0
C789 C 0.06519 0.16157 0.75314 0.0
C790 C 0.10567 0.15568 0.7094 0.0
C791 C 0.0826 0.13829 0.75196 0.0
C792 C 0.1446 0.12869 0.68647 0.0
C793 C 0.13881 0.15978 0.63552 0.0
N794 N 0.10199 0.13593 0.7304 0.0
N795 N 0.12329 0.16556 0.65971 0.0
H796 H 0.13697 0.9014 0.14019 0.0
H797 H 0.06915 0.78569 0.24408 0.0
H798 H 0.17158 0.8194 0.14772 0.0
H799 H 0.03877 0.86919 0.23408 0.0
H800 H 0.10608 0.79604 0.20815 0.0
H801 H 0.1004 0.88859 0.17439 0.0
C802 C 0.13707 0.88072 0.14934 0.0
C803 C 0.15763 0.86157 0.14138 0.0
C804 C 0.09121 0.81197 0.21387 0.0
C805 C 0.11518 0.84643 0.1804 0.0
C806 C 0.07011 0.80607 0.23428 0.0
C807 C 0.05088 0.82662 0.24229 0.0
C808 C 0.09293 0.83853 0.20144 0.0
C809 C 0.05316 0.85268 0.2289 0.0
C810 C 0.11597 0.8733 0.16873 0.0
C811 C 0.15611 0.83479 0.15328 0.0
N812 N 0.07375 0.85783 0.20929 0.0
N813 N 0.13525 0.828 0.17233 0.0
H814 H 0.8308 0.17869 0.64218 0.0
H815 H 0.93494 0.11228 0.76044 0.0
H816 H 0.85943 0.09432 0.64137 0.0
H817 H 0.9295 0.20044 0.74669 0.0
H818 H 0.89957 0.10554 0.72291 0.0
H819 H 0.85971 0.18706 0.68622 0.0
C820 C 0.84295 0.16194 0.65151 0.0
C821 C 0.84308 0.13588 0.63818 0.0
C822 C 0.90602 0.12639 0.72813 0.0
C823 C 0.87565 0.1451 0.68812 0.0
C824 C 0.92626 0.13031 0.74963 0.0
C825 C 0.93562 0.157 0.7565 0.0
C826 C 0.89486 0.14926 0.71323 0.0
C827 C 0.92314 0.17949 0.74192 0.0
C828 C 0.85945 0.16672 0.67643 0.0
C829 C 0.85908 0.11478 0.65089 0.0
N830 N 0.90348 0.17511 0.72076 0.0
N831 N 0.87472 0.11986 0.67511 0.0
loop_
_geom_bond_atom_site_label_1
_geom_bond_atom_site_label_2
_geom_bond_distance
_geom_bond_site_symmetry_2
_ccdc_geom_bond_type
C0 C1 1.386 . S
C0 C2 1.397 . S
C0 H24 0.931 . S
C1 C0 1.386 . S
C1 C5 1.397 . S
C2 C0 1.397 . S
C2 C3 1.384 . S
C2 H25 0.930 . S
C3 C2 1.384 . S
C3 C4 1.377 . S
C3 C6 1.481 . S
C4 C3 1.377 . S
C4 C5 1.389 . S
C4 H26 0.929 . S
C5 C1 1.397 . S
C5 C4 1.389 . S
C5 H27 0.931 . S
C6 C3 1.481 . S
C6 C7 1.387 . S
C6 C11 1.390 1_556 S
C7 C6 1.387 . S
C7 C8 1.402 . S
C7 H28 0.930 . S
C8 C7 1.402 . S
C8 C9 1.375 1_556 S
C8 C17 1.512 . S
C9 C8 1.375 1_554 S
C9 C10 1.392 . S
C9 H30 0.931 . S
C10 C9 1.392 . S
C10 C11 1.361 . S
C10 C12 1.500 . S
C11 C6 1.390 1_554 S
C11 C10 1.361 . S
C11 H29 0.931 . S
C12 C10 1.500 . S
C12 C13 1.371 . S
C12 C14 1.365 . S
C13 C12 1.371 . S
C13 C23 1.386 . S
C13 H31 0.931 . S
C14 C12 1.365 . S
C14 C15 1.409 . S
C14 H32 0.929 . S
C15 C14 1.409 . S
C15 C16 1.380 . S
C15 H33 0.930 . S
C16 C15 1.380 . S
C16 C23 1.357 . S
C17 C8 1.512 . S
C17 C18 1.341 . S
C17 C19 1.371 . S
C18 C17 1.341 . S
C18 C22 1.394 . S
C18 H34 0.930 . S
C19 C17 1.371 . S
C19 C20 1.392 . S
C19 H35 0.931 1_556 S
C20 C19 1.392 . S
C20 C21 1.331 . S
C20 H38 0.932 . S
C21 C20 1.331 . S
C21 C22 1.336 . S
C22 C18 1.394 . S
C22 C21 1.336 . S
C22 H37 0.929 . S
C23 C13 1.386 . S
C23 C16 1.357 . S
C23 H36 0.928 . S
H24 C0 0.931 . S
H25 C2 0.930 . S
H26 C4 0.929 . S
H27 C5 0.931 . S
H28 C7 0.930 . S
H29 C11 0.931 . S
H30 C9 0.931 . S
H31 C13 0.931 . S
H32 C14 0.929 . S
H33 C15 0.930 . S
H34 C18 0.930 . S
H35 C19 0.931 1_554 S
H36 C23 0.928 . S
H37 C22 0.929 . S
H38 C20 0.932 . S
C39 C40 1.386 . S
C39 C41 1.397 . S
C39 H63 0.931 . S
C40 C39 1.386 . S
C40 C44 1.397 . S
C41 C39 1.397 . S
C41 C42 1.384 . S
C41 H64 0.930 . S
C42 C41 1.384 . S
C42 C43 1.377 . S
C42 C45 1.481 . S
C43 C42 1.377 . S
C43 C44 1.389 . S
C43 H65 0.929 . S
C44 C40 1.397 . S
C44 C43 1.389 . S
C44 H66 0.931 . S
C45 C42 1.481 . S
C45 C46 1.387 . S
C45 C50 1.390 . S
C46 C45 1.387 . S
C46 C47 1.401 . S
C46 H67 0.930 . S
C47 C46 1.401 . S
C47 C48 1.376 . S
C47 C56 1.511 . S
C48 C47 1.376 . S
C48 C49 1.392 . S
C48 H69 0.931 . S
C49 C48 1.392 . S
C49 C50 1.361 . S
C49 C51 1.500 . S
C50 C45 1.390 . S
C50 C49 1.361 . S
C50 H68 0.931 . S
C51 C49 1.500 . S
C51 C52 1.371 . S
C51 C53 1.365 . S
C52 C51 1.371 . S
C52 C62 1.386 . S
C52 H70 0.931 . S
C53 C51 1.365 . S
C53 C54 1.409 . S
C53 H71 0.929 . S
C54 C53 1.409 . S
C54 C55 1.380 . S
C54 H72 0.930 . S
C55 C54 1.380 . S
C55 C62 1.357 . S
C56 C47 1.511 . S
C56 C57 1.341 . S
C56 C58 1.371 . S
C57 C56 1.341 . S
C57 C61 1.394 . S
C57 H73 0.930 . S
C58 C56 1.371 . S
C58 C59 1.392 . S
C58 H74 0.931 . S
C59 C58 1.392 . S
C59 C60 1.331 . S
C59 H77 0.932 . S
C60 C59 1.331 . S
C60 C61 1.336 . S
C61 C57 1.394 . S
C61 C60 1.336 . S
C61 H76 0.929 . S
C62 C52 1.386 . S
C62 C55 1.357 . S
C62 H75 0.928 . S
H63 C39 0.931 . S
H64 C41 0.930 . S
H65 C43 0.929 . S
H66 C44 0.931 . S
H67 C46 0.930 . S
H68 C50 0.931 . S
H69 C48 0.931 . S
H70 C52 0.931 . S
H71 C53 0.929 . S
H72 C54 0.930 . S
H73 C57 0.930 . S
H74 C58 0.931 . S
H75 C62 0.928 . S
H76 C61 0.929 . S
H77 C59 0.932 . S
C78 C79 1.386 . S
C78 C80 1.397 . S
C78 H102 0.931 . S
C79 C78 1.386 . S
C79 C83 1.397 . S
C80 C78 1.397 . S
C80 C81 1.384 . S
C80 H103 0.930 . S
C81 C80 1.384 . S
C81 C82 1.377 . S
C81 C84 1.481 . S
C82 C81 1.377 . S
C82 C83 1.389 . S
C82 H104 0.929 1_556 S
C83 C79 1.397 . S
C83 C82 1.389 . S
C83 H105 0.931 . S
C84 C81 1.481 . S
C84 C85 1.387 . S
C84 C89 1.390 1_556 S
C85 C84 1.387 . S
C85 C86 1.419 . S
C85 H106 0.930 . S
C86 C85 1.419 . S
C86 C87 1.346 1_556 S
C86 C95 1.525 . S
C87 C86 1.346 1_554 S
C87 C88 1.392 . S
C87 H108 0.931 . S
C88 C87 1.392 . S
C88 C89 1.361 . S
C88 C90 1.500 . S
C89 C84 1.390 1_554 S
C89 C88 1.361 . S
C89 H107 0.931 . S
C90 C88 1.500 . S
C90 C91 1.371 . S
C90 C92 1.365 . S
C91 C90 1.371 . S
C91 C101 1.386 . S
C91 H109 0.931 . S
C92 C90 1.365 . S
C92 C93 1.409 . S
C92 H110 0.929 . S
C93 C92 1.409 . S
C93 C94 1.380 . S
C93 H111 0.930 . S
C94 C93 1.380 . S
C94 C101 1.357 . S
C95 C86 1.525 . S
C95 C96 1.341 . S
C95 C97 1.371 1_556 S
C96 C95 1.341 . S
C96 C100 1.394 . S
C96 H112 0.930 . S
C97 C95 1.371 1_554 S
C97 C98 1.392 1_554 S
C97 H113 0.931 . S
C98 C97 1.392 1_556 S
C98 C99 1.331 . S
C98 H116 0.932 1_556 S
C99 C98 1.331 . S
C99 C100 1.336 . S
C100 C96 1.394 . S
C100 C99 1.336 . S
C100 H115 0.929 . S
C101 C91 1.386 . S
C101 C94 1.357 . S
C101 H114 0.928 . S
H102 C78 0.931 . S
H103 C80 0.930 . S
H104 C82 0.929 1_554 S
H105 C83 0.931 . S
H106 C85 0.930 . S
H107 C89 0.931 . S
H108 C87 0.931 . S
H109 C91 0.931 . S
H110 C92 0.929 . S
H111 C93 0.930 . S
H112 C96 0.930 . S
H113 C97 0.931 . S
H114 C101 0.928 . S
H115 C100 0.929 . S
H116 C98 0.932 1_554 S
C117 C118 1.386 . S
C117 C119 1.397 . S
C117 H141 0.931 . S
C118 C117 1.386 . S
C118 C122 1.397 . S
C119 C117 1.397 . S
C119 C120 1.384 . S
C119 H142 0.930 . S
C120 C119 1.384 . S
C120 C121 1.377 . S
C120 C123 1.481 . S
C121 C120 1.377 . S
C121 C122 1.389 . S
C121 H143 0.929 . S
C122 C118 1.397 . S
C122 C121 1.389 . S
C122 H144 0.931 . S
C123 C120 1.481 . S
C123 C124 1.387 . S
C123 C128 1.390 . S
C124 C123 1.387 . S
C124 C125 1.401 . S
C124 H145 0.930 . S
C125 C124 1.401 . S
C125 C126 1.376 . S
C125 C134 1.511 . S
C126 C125 1.376 . S
C126 C127 1.392 . S
C126 H147 0.931 . S
C127 C126 1.392 . S
C127 C128 1.361 . S
C127 C129 1.500 . S
C128 C123 1.390 . S
C128 C127 1.361 . S
C128 H146 0.931 . S
C129 C127 1.500 . S
C129 C130 1.371 . S
C129 C131 1.365 . S
C130 C129 1.371 . S
C130 C140 1.386 . S
C130 H148 0.931 . S
C131 C129 1.365 . S
C131 C132 1.409 . S
C131 H149 0.929 . S
C132 C131 1.409 . S
C132 C133 1.380 . S
C132 H150 0.930 . S
C133 C132 1.380 . S
C133 C140 1.357 . S
C134 C125 1.511 . S
C134 C135 1.341 . S
C134 C136 1.371 . S
C135 C134 1.341 . S
C135 C139 1.394 . S
C135 H151 0.930 . S
C136 C134 1.371 . S
C136 C137 1.392 . S
C136 H152 0.931 . S
C137 C136 1.392 . S
C137 C138 1.331 . S
C137 H155 0.932 . S
C138 C137 1.331 . S
C138 C139 1.336 . S
C139 C135 1.394 . S
C139 C138 1.336 . S
C139 H154 0.929 . S
C140 C130 1.386 . S
C140 C133 1.357 . S
C140 H153 0.928 . S
H141 C117 0.931 . S
H142 C119 0.930 . S
H143 C121 0.929 . S
H144 C122 0.931 . S
H145 C124 0.930 . S
H146 C128 0.931 . S
H147 C126 0.931 . S
H148 C130 0.931 . S
H149 C131 0.929 . S
H150 C132 0.930 . S
H151 C135 0.930 . S
H152 C136 0.931 . S
H153 C140 0.928 . S
H154 C139 0.929 . S
H155 C137 0.932 . S
C156 C157 1.386 . S
C156 C158 1.397 . S
C156 H180 0.931 1_565 S
C157 C156 1.386 . S
C157 C161 1.397 . S
C158 C156 1.397 . S
C158 C159 1.384 . S
C158 H181 0.930 . S
C159 C158 1.384 . S
C159 C160 1.377 . S
C159 C162 1.481 . S
C160 C159 1.377 . S
C160 C161 1.389 . S
C160 H182 0.929 . S
C161 C157 1.397 . S
C161 C160 1.389 . S
C161 H183 0.931 . S
C162 C159 1.481 . S
C162 C163 1.387 . S
C162 C167 1.390 1_556 S
C163 C162 1.387 . S
C163 C164 1.402 . S
C163 H184 0.930 . S
C164 C163 1.402 . S
C164 C165 1.375 1_556 S
C164 C173 1.512 . S
C165 C164 1.375 1_554 S
C165 C166 1.392 . S
C165 H186 0.931 . S
C166 C165 1.392 . S
C166 C167 1.361 . S
C166 C168 1.500 . S
C167 C162 1.390 1_554 S
C167 C166 1.361 . S
C167 H185 0.931 . S
C168 C166 1.500 . S
C168 C169 1.371 . S
C168 C170 1.365 . S
C169 C168 1.371 . S
C169 C179 1.386 . S
C169 H187 0.931 . S
C170 C168 1.365 . S
C170 C171 1.409 . S
C170 H188 0.929 . S
C171 C170 1.409 . S
C171 C172 1.380 . S
C171 H189 0.930 . S
C172 C171 1.380 . S
C172 C179 1.357 . S
C173 C164 1.512 . S
C173 C174 1.341 . S
C173 C175 1.371 . S
C174 C173 1.341 . S
C174 C178 1.394 . S
C174 H190 0.930 . S
C175 C173 1.371 . S
C175 C176 1.392 . S
C175 H191 0.931 1_556 S
C176 C175 1.392 . S
C176 C177 1.331 . S
C176 H194 0.932 . S
C177 C176 1.331 . S
C177 C178 1.336 . S
C178 C174 1.394 . S
C178 C177 1.336 . S
C178 H193 0.929 . S
C179 C169 1.386 . S
C179 C172 1.357 . S
C179 H192 0.928 . S
H180 C156 0.931 1_545 S
H181 C158 0.930 . S
H182 C160 0.929 . S
H183 C161 0.931 . S
H184 C163 0.930 . S
H185 C167 0.931 . S
H186 C165 0.931 . S
H187 C169 0.931 . S
H188 C170 0.929 . S
H189 C171 0.930 . S
H190 C174 0.930 . S
H191 C175 0.931 1_554 S
H192 C179 0.928 . S
H193 C178 0.929 . S
H194 C176 0.932 . S
C195 C196 1.386 . S
C195 C197 1.397 . S
C195 H219 0.931 1_545 S
C196 C195 1.386 . S
C196 C200 1.397 . S
C197 C195 1.397 . S
C197 C198 1.384 . S
C197 H220 0.930 . S
C198 C197 1.384 . S
C198 C199 1.377 . S
C198 C201 1.481 . S
C199 C198 1.377 . S
C199 C200 1.389 . S
C199 H221 0.929 . S
C200 C196 1.397 . S
C200 C199 1.389 . S
C200 H222 0.931 . S
C201 C198 1.481 . S
C201 C202 1.387 . S
C201 C206 1.390 . S
C202 C201 1.387 . S
C202 C203 1.401 . S
C202 H223 0.930 . S
C203 C202 1.401 . S
C203 C204 1.376 . S
C203 C212 1.511 . S
C204 C203 1.376 . S
C204 C205 1.392 . S
C204 H225 0.931 . S
C205 C204 1.392 . S
C205 C206 1.361 . S
C205 C207 1.500 . S
C206 C201 1.390 . S
C206 C205 1.361 . S
C206 H224 0.931 . S
C207 C205 1.500 . S
C207 C208 1.371 . S
C207 C209 1.365 . S
C208 C207 1.371 . S
C208 C218 1.386 . S
C208 H226 0.931 . S
C209 C207 1.365 . S
C209 C210 1.409 . S
C209 H227 0.929 . S
C210 C209 1.409 . S
C210 C211 1.380 . S
C210 H228 0.930 . S
C211 C210 1.380 . S
C211 C218 1.357 . S
C212 C203 1.511 . S
C212 C213 1.341 . S
C212 C214 1.371 . S
C213 C212 1.341 . S
C213 C217 1.394 . S
C213 H229 0.930 . S
C214 C212 1.371 . S
C214 C215 1.392 . S
C214 H230 0.931 . S
C215 C214 1.392 . S
C215 C216 1.331 . S
C215 H233 0.932 . S
C216 C215 1.331 . S
C216 C217 1.336 . S
C217 C213 1.394 . S
C217 C216 1.336 . S
C217 H232 0.929 . S
C218 C208 1.386 . S
C218 C211 1.357 . S
C218 H231 0.928 . S
H219 C195 0.931 1_565 S
H220 C197 0.930 . S
H221 C199 0.929 . S
H222 C200 0.931 . S
H223 C202 0.930 . S
H224 C206 0.931 . S
H225 C204 0.931 . S
H226 C208 0.931 . S
H227 C209 0.929 . S
H228 C210 0.930 . S
H229 C213 0.930 . S
H230 C214 0.931 . S
H231 C218 0.928 . S
H232 C217 0.929 . S
H233 C215 0.932 . S
C234 C235 1.386 . S
C234 C236 1.397 . S
C234 H258 0.931 . S
C235 C234 1.386 . S
C235 C239 1.401 . S
C236 C234 1.397 . S
C236 C237 1.384 . S
C236 H259 0.930 . S
C237 C236 1.384 . S
C237 C238 1.377 . S
C237 C240 1.481 . S
C238 C237 1.377 . S
C238 C239 1.421 . S
C238 H260 0.929 1_556 S
C239 C235 1.401 . S
C239 C238 1.421 . S
C239 H261 0.895 1_565 S
C240 C237 1.481 . S
C240 C241 1.387 . S
C240 C245 1.390 1_556 S
C241 C240 1.387 . S
C241 C242 1.419 . S
C241 H262 0.930 . S
C242 C241 1.419 . S
C242 C243 1.346 1_556 S
C242 C251 1.525 . S
C243 C242 1.346 1_554 S
C243 C244 1.392 . S
C243 H264 0.931 . S
C244 C243 1.392 . S
C244 C245 1.361 . S
C244 C246 1.500 . S
C245 C240 1.390 1_554 S
C245 C244 1.361 . S
C245 H263 0.931 . S
C246 C244 1.500 . S
C246 C247 1.371 . S
C246 C248 1.365 . S
C247 C246 1.371 . S
C247 C257 1.386 . S
C247 H265 0.931 . S
C248 C246 1.365 . S
C248 C249 1.409 . S
C248 H266 0.929 . S
C249 C248 1.409 . S
C249 C250 1.380 . S
C249 H267 0.930 . S
C250 C249 1.380 . S
C250 C257 1.357 . S
C251 C242 1.525 . S
C251 C252 1.341 . S
C251 C253 1.371 1_556 S
C252 C251 1.341 . S
C252 C256 1.394 . S
C252 H268 0.930 . S
C253 C251 1.371 1_554 S
C253 C254 1.392 1_554 S
C253 H269 0.931 . S
C254 C253 1.392 1_556 S
C254 C255 1.331 . S
C254 H272 0.932 1_556 S
C255 C254 1.331 . S
C255 C256 1.336 . S
C256 C252 1.394 . S
C256 C255 1.336 . S
C256 H271 0.929 . S
C257 C247 1.386 . S
C257 C250 1.357 . S
C257 H270 0.928 . S
H258 C234 0.931 . S
H259 C236 0.930 . S
H260 C238 0.929 1_554 S
H261 C239 0.895 1_545 S
H262 C241 0.930 . S
H263 C245 0.931 . S
H264 C243 0.931 . S
H265 C247 0.931 . S
H266 C248 0.929 . S
H267 C249 0.930 . S
H268 C252 0.930 . S
H269 C253 0.931 . S
H270 C257 0.928 . S
H271 C256 0.929 . S
H272 C254 0.932 1_554 S
C273 C274 1.386 . S
C273 C275 1.397 . S
C273 H297 0.931 . S
C274 C273 1.386 . S
C274 C278 1.397 . S
C275 C273 1.397 . S
C275 C276 1.384 . S
C275 H298 0.930 . S
C276 C275 1.384 . S
C276 C277 1.377 . S
C276 C279 1.481 . S
C277 C276 1.377 . S
C277 C278 1.389 . S
C277 H299 0.929 . S
C278 C274 1.397 . S
C278 C277 1.389 . S
C278 H300 0.931 . S
C279 C276 1.481 . S
C279 C280 1.387 . S
C279 C284 1.390 . S
C280 C279 1.387 . S
C280 C281 1.401 . S
C280 H301 0.930 . S
C281 C280 1.401 . S
C281 C282 1.376 . S
C281 C290 1.511 . S
C282 C281 1.376 . S
C282 C283 1.392 . S
C282 H303 0.931 . S
C283 C282 1.392 . S
C283 C284 1.361 . S
C283 C285 1.500 . S
C284 C279 1.390 . S
C284 C283 1.361 . S
C284 H302 0.931 . S
C285 C283 1.500 . S
C285 C286 1.371 . S
C285 C287 1.365 . S
C286 C285 1.371 . S
C286 C296 1.386 . S
C286 H304 0.931 . S
C287 C285 1.365 . S
C287 C288 1.409 . S
C287 H305 0.929 . S
C288 C287 1.409 . S
C288 C289 1.380 . S
C288 H306 0.930 . S
C289 C288 1.380 . S
C289 C296 1.357 . S
C290 C281 1.511 . S
C290 C291 1.341 . S
C290 C292 1.371 . S
C291 C290 1.341 . S
C291 C295 1.394 . S
C291 H307 0.930 . S
C292 C290 1.371 . S
C292 C293 1.392 . S
C292 H308 0.931 . S
C293 C292 1.392 . S
C293 C294 1.331 . S
C293 H311 0.932 . S
C294 C293 1.331 . S
C294 C295 1.336 . S
C295 C291 1.394 . S
C295 C294 1.336 . S
C295 H310 0.929 . S
C296 C286 1.386 . S
C296 C289 1.357 . S
C296 H309 0.928 1_545 S
H297 C273 0.931 . S
H298 C275 0.930 . S
H299 C277 0.929 . S
H300 C278 0.931 . S
H301 C280 0.930 . S
H302 C284 0.931 . S
H303 C282 0.931 . S
H304 C286 0.931 . S
H305 C287 0.929 . S
H306 C288 0.930 . S
H307 C291 0.930 . S
H308 C292 0.931 . S
H309 C296 0.928 1_565 S
H310 C295 0.929 . S
H311 C293 0.932 . S
Sc312 O315 2.025 . S
Sc312 O322 2.105 1_455 S
Sc312 O325 2.105 . S
Sc312 O328 2.105 . S
Sc312 O331 2.105 1_455 S
Sc313 O315 2.025 . S
Sc313 O323 2.105 1_455 S
Sc313 O327 2.105 . S
Sc313 O329 2.105 . S
Sc313 O333 2.105 1_455 S
Sc314 O315 2.025 . S
Sc314 O324 2.105 1_455 S
Sc314 O326 2.105 . S
Sc314 O330 2.105 . S
Sc314 O332 2.105 1_455 S
O315 Sc312 2.025 . S
O315 Sc313 2.025 . S
O315 Sc314 2.025 . S
C316 O322 1.268 . S
C316 O332 1.268 . S
C317 O323 1.268 . S
C317 O331 1.268 . S
C318 O324 1.268 . S
C318 O333 1.268 . S
C319 O325 1.268 . S
C319 O329 1.268 . S
C320 O326 1.268 . S
C320 O328 1.268 . S
C321 O327 1.268 . S
C321 O330 1.268 . S
O322 Sc312 2.105 1_655 S
O322 C316 1.268 . S
O323 Sc313 2.105 1_655 S
O323 C317 1.268 . S
O324 Sc314 2.105 1_655 S
O324 C318 1.268 . S
O325 Sc312 2.105 . S
O325 C319 1.268 . S
O326 Sc314 2.105 . S
O326 C320 1.268 . S
O327 Sc313 2.105 . S
O327 C321 1.268 . S
O328 Sc312 2.105 . S
O328 C320 1.268 . S
O329 Sc313 2.105 . S
O329 C319 1.268 . S
O330 Sc314 2.105 . S
O330 C321 1.268 . S
O331 Sc312 2.105 1_655 S
O331 C317 1.268 . S
O332 Sc314 2.105 1_655 S
O332 C316 1.268 . S
O333 Sc313 2.105 1_655 S
O333 C318 1.268 . S
Sc334 O337 2.025 . S
Sc334 O344 2.105 . S
Sc334 O347 2.105 1_455 S
Sc334 O350 2.105 1_455 S
Sc334 O353 2.105 . S
Sc335 O337 2.025 . S
Sc335 O345 2.105 . S
Sc335 O349 2.105 1_455 S
Sc335 O351 2.105 1_455 S
Sc335 O355 2.105 . S
Sc336 O337 2.025 . S
Sc336 O346 2.105 . S
Sc336 O348 2.105 1_455 S
Sc336 O352 2.105 1_455 S
Sc336 O354 2.105 . S
O337 Sc334 2.025 . S
O337 Sc335 2.025 . S
O337 Sc336 2.025 . S
C338 O344 1.268 . S
C338 O354 1.268 . S
C339 O345 1.268 . S
C339 O353 1.268 . S
C340 O346 1.268 . S
C340 O355 1.268 . S
C341 O347 1.268 . S
C341 O351 1.268 . S
C342 O348 1.268 . S
C342 O350 1.268 . S
C343 O349 1.268 . S
C343 O352 1.268 . S
O344 Sc334 2.105 . S
O344 C338 1.268 . S
O345 Sc335 2.105 . S
O345 C339 1.268 . S
O346 Sc336 2.105 . S
O346 C340 1.268 . S
O347 Sc334 2.105 1_655 S
O347 C341 1.268 . S
O348 Sc336 2.105 1_655 S
O348 C342 1.268 . S
O349 Sc335 2.105 1_655 S
O349 C343 1.268 . S
O350 Sc334 2.105 1_655 S
O350 C342 1.268 . S
O351 Sc335 2.105 1_655 S
O351 C341 1.268 . S
O352 Sc336 2.105 1_655 S
O352 C343 1.268 . S
O353 Sc334 2.105 . S
O353 C339 1.268 . S
O354 Sc336 2.105 . S
O354 C338 1.268 . S
O355 Sc335 2.105 . S
O355 C340 1.268 . S
Sc356 O359 2.025 . S
Sc356 O366 2.105 . S
Sc356 O369 2.105 . S
Sc356 O372 2.105 . S
Sc356 O375 2.105 . S
Sc357 O359 2.025 . S
Sc357 O367 2.105 . S
Sc357 O371 2.105 . S
Sc357 O373 2.105 . S
Sc357 O377 2.105 . S
Sc358 O359 2.025 . S
Sc358 O368 2.105 . S
Sc358 O370 2.105 . S
Sc358 O374 2.105 . S
Sc358 O376 2.105 . S
O359 Sc356 2.025 . S
O359 Sc357 2.025 . S
O359 Sc358 2.025 . S
C360 O366 1.268 . S
C360 O376 1.268 . S
C361 O367 1.268 . S
C361 O375 1.268 . S
C362 O368 1.268 . S
C362 O377 1.268 . S
C363 O369 1.268 . S
C363 O373 1.268 . S
C364 O370 1.268 . S
C364 O372 1.268 . S
C365 O371 1.268 . S
C365 O374 1.268 . S
O366 Sc356 2.105 . S
O366 C360 1.268 . S
O367 Sc357 2.105 . S
O367 C361 1.268 . S
O368 Sc358 2.105 . S
O368 C362 1.268 . S
O369 Sc356 2.105 . S
O369 C363 1.268 . S
O370 Sc358 2.105 . S
O370 C364 1.268 . S
O371 Sc357 2.105 . S
O371 C365 1.268 . S
O372 Sc356 2.105 . S
O372 C364 1.268 . S
O373 Sc357 2.105 . S
O373 C363 1.268 . S
O374 Sc358 2.105 . S
O374 C365 1.268 . S
O375 Sc356 2.105 . S
O375 C361 1.268 . S
O376 Sc358 2.105 . S
O376 C360 1.268 . S
O377 Sc357 2.105 . S
O377 C362 1.268 . S
Sc378 O381 2.025 . S
Sc378 O388 2.105 . S
Sc378 O391 2.105 . S
Sc378 O394 2.105 . S
Sc378 O397 2.105 . S
Sc379 O381 2.025 . S
Sc379 O389 2.105 . S
Sc379 O393 2.105 . S
Sc379 O395 2.105 . S
Sc379 O399 2.105 . S
Sc380 O381 2.025 . S
Sc380 O390 2.105 . S
Sc380 O392 2.105 . S
Sc380 O396 2.105 . S
Sc380 O398 2.105 . S
O381 Sc378 2.025 . S
O381 Sc379 2.025 . S
O381 Sc380 2.025 . S
C382 O388 1.268 . S
C382 O398 1.268 . S
C383 O389 1.268 . S
C383 O397 1.268 . S
C384 O390 1.268 . S
C384 O399 1.268 . S
C385 O391 1.268 . S
C385 O395 1.268 . S
C386 O392 1.268 . S
C386 O394 1.268 . S
C387 O393 1.268 . S
C387 O396 1.268 . S
O388 Sc378 2.105 . S
O388 C382 1.268 . S
O389 Sc379 2.105 . S
O389 C383 1.268 . S
O390 Sc380 2.105 . S
O390 C384 1.268 . S
O391 Sc378 2.105 . S
O391 C385 1.268 . S
O392 Sc380 2.105 . S
O392 C386 1.268 . S
O393 Sc379 2.105 . S
O393 C387 1.268 . S
O394 Sc378 2.105 . S
O394 C386 1.268 . S
O395 Sc379 2.105 . S
O395 C385 1.268 . S
O396 Sc380 2.105 . S
O396 C387 1.268 . S
O397 Sc378 2.105 . S
O397 C383 1.268 . S
O398 Sc380 2.105 . S
O398 C382 1.268 . S
O399 Sc379 2.105 . S
O399 C384 1.268 . S
H400 C406 0.930 . S
H401 C410 0.930 . S
H402 C415 0.929 . S
H403 C413 0.929 . S
H404 C408 0.929 . S
H405 C414 0.929 . S
C406 H400 0.930 . S
C406 C407 1.367 . S
C406 C414 1.378 . S
C407 C406 1.367 . S
C407 C415 1.433 . S
C408 H404 0.929 . S
C408 C410 1.378 . S
C408 C412 1.350 . S
C409 C412 1.463 . S
C409 C414 1.350 . S
C409 N417 1.427 . S
C410 H401 0.930 . S
C410 C408 1.378 . S
C410 C411 1.367 . S
C411 C410 1.367 . S
C411 C413 1.433 . S
C412 C408 1.350 . S
C412 C409 1.463 . S
C412 N416 1.427 . S
C413 H403 0.929 . S
C413 C411 1.433 . S
C413 N416 1.384 . S
C414 H405 0.929 . S
C414 C406 1.378 . S
C414 C409 1.350 . S
C415 H402 0.929 . S
C415 C407 1.433 . S
C415 N417 1.384 . S
N416 C412 1.427 . S
N416 C413 1.384 . S
N417 C409 1.427 . S
N417 C415 1.384 . S
H418 C424 0.930 . S
H419 C428 0.930 . S
H420 C433 0.929 . S
H421 C431 0.929 . S
H422 C426 0.929 . S
H423 C432 0.929 . S
C424 H418 0.930 . S
C424 C425 1.367 . S
C424 C432 1.378 . S
C425 C424 1.367 . S
C425 C433 1.433 . S
C426 H422 0.929 . S
C426 C428 1.378 . S
C426 C430 1.350 . S
C427 C430 1.463 . S
C427 C432 1.350 . S
C427 N435 1.427 . S
C428 H419 0.930 . S
C428 C426 1.378 . S
C428 C429 1.367 . S
C429 C428 1.367 . S
C429 C431 1.433 . S
C430 C426 1.350 . S
C430 C427 1.463 . S
C430 N434 1.427 . S
C431 H421 0.929 . S
C431 C429 1.433 . S
C431 N434 1.384 . S
C432 H423 0.929 . S
C432 C424 1.378 . S
C432 C427 1.350 . S
C433 H420 0.929 . S
C433 C425 1.433 . S
C433 N435 1.384 . S
N434 C430 1.427 . S
N434 C431 1.384 . S
N435 C427 1.427 . S
N435 C433 1.384 . S
H436 C442 0.930 . S
H437 C446 0.930 . S
H438 C451 0.929 . S
H439 C449 0.929 . S
H440 C444 0.929 . S
H441 C450 0.929 . S
C442 H436 0.930 . S
C442 C443 1.367 . S
C442 C450 1.378 . S
C443 C442 1.367 . S
C443 C451 1.433 . S
C444 H440 0.929 . S
C444 C446 1.378 . S
C444 C448 1.350 . S
C445 C448 1.463 . S
C445 C450 1.350 . S
C445 N453 1.427 . S
C446 H437 0.930 . S
C446 C444 1.378 . S
C446 C447 1.367 . S
C447 C446 1.367 . S
C447 C449 1.433 . S
C448 C444 1.350 . S
C448 C445 1.463 . S
C448 N452 1.427 . S
C449 H439 0.929 . S
C449 C447 1.433 . S
C449 N452 1.384 . S
C450 H441 0.929 . S
C450 C442 1.378 . S
C450 C445 1.350 . S
C451 H438 0.929 . S
C451 C443 1.433 . S
C451 N453 1.384 . S
N452 C448 1.427 . S
N452 C449 1.384 . S
N453 C445 1.427 . S
N453 C451 1.384 . S
H454 C460 0.930 . S
H455 C464 0.930 . S
H456 C469 0.929 . S
H457 C467 0.929 . S
H458 C462 0.929 . S
H459 C468 0.929 . S
C460 H454 0.930 . S
C460 C461 1.367 . S
C460 C468 1.378 . S
C461 C460 1.367 . S
C461 C469 1.433 . S
C462 H458 0.929 . S
C462 C464 1.378 . S
C462 C466 1.350 . S
C463 C466 1.463 . S
C463 C468 1.350 . S
C463 N471 1.427 . S
C464 H455 0.930 . S
C464 C462 1.378 . S
C464 C465 1.367 . S
C465 C464 1.367 . S
C465 C467 1.433 . S
C466 C462 1.350 . S
C466 C463 1.463 . S
C466 N470 1.427 . S
C467 H457 0.929 . S
C467 C465 1.433 . S
C467 N470 1.384 . S
C468 H459 0.929 . S
C468 C460 1.378 . S
C468 C463 1.350 . S
C469 H456 0.929 . S
C469 C461 1.433 . S
C469 N471 1.384 . S
N470 C466 1.427 . S
N470 C467 1.384 . S
N471 C463 1.427 . S
N471 C469 1.384 . S
H472 C478 0.930 . S
H473 C482 0.930 . S
H474 C487 0.929 . S
H475 C485 0.929 . S
H476 C480 0.929 . S
H477 C486 0.929 . S
C478 H472 0.930 . S
C478 C479 1.367 . S
C478 C486 1.378 . S
C479 C478 1.367 . S
C479 C487 1.433 . S
C480 H476 0.929 . S
C480 C482 1.378 . S
C480 C484 1.350 . S
C481 C484 1.463 . S
C481 C486 1.350 . S
C481 N489 1.427 . S
C482 H473 0.930 . S
C482 C480 1.378 . S
C482 C483 1.367 . S
C483 C482 1.367 . S
C483 C485 1.433 . S
C484 C480 1.350 . S
C484 C481 1.463 . S
C484 N488 1.427 . S
C485 H475 0.929 . S
C485 C483 1.433 . S
C485 N488 1.384 . S
C486 H477 0.929 . S
C486 C478 1.378 . S
C486 C481 1.350 . S
C487 H474 0.929 . S
C487 C479 1.433 . S
C487 N489 1.384 . S
N488 C484 1.427 . S
N488 C485 1.384 . S
N489 C481 1.427 . S
N489 C487 1.384 . S
H490 C496 0.930 . S
H491 C500 0.930 . S
H492 C505 0.929 . S
H493 C503 0.929 . S
H494 C498 0.929 . S
H495 C504 0.929 . S
C496 H490 0.930 . S
C496 C497 1.367 . S
C496 C504 1.378 . S
C497 C496 1.367 . S
C497 C505 1.433 . S
C498 H494 0.929 . S
C498 C500 1.378 . S
C498 C502 1.350 . S
C499 C502 1.463 . S
C499 C504 1.350 . S
C499 N507 1.427 . S
C500 H491 0.930 . S
C500 C498 1.378 . S
C500 C501 1.367 . S
C501 C500 1.367 . S
C501 C503 1.433 . S
C502 C498 1.350 . S
C502 C499 1.463 . S
C502 N506 1.427 . S
C503 H493 0.929 . S
C503 C501 1.433 . S
C503 N506 1.384 . S
C504 H495 0.929 . S
C504 C496 1.378 . S
C504 C499 1.350 . S
C505 H492 0.929 . S
C505 C497 1.433 . S
C505 N507 1.384 . S
N506 C502 1.427 . S
N506 C503 1.384 . S
N507 C499 1.427 . S
N507 C505 1.384 . S
H508 C514 0.930 . S
H509 C518 0.930 . S
H510 C523 0.929 . S
H511 C521 0.929 . S
H512 C516 0.929 . S
H513 C522 0.929 . S
C514 H508 0.930 . S
C514 C515 1.367 . S
C514 C522 1.378 . S
C515 C514 1.367 . S
C515 C523 1.433 . S
C516 H512 0.929 . S
C516 C518 1.378 . S
C516 C520 1.350 . S
C517 C520 1.463 . S
C517 C522 1.350 . S
C517 N525 1.427 . S
C518 H509 0.930 . S
C518 C516 1.378 . S
C518 C519 1.367 . S
C519 C518 1.367 . S
C519 C521 1.433 . S
C520 C516 1.350 . S
C520 C517 1.463 . S
C520 N524 1.427 . S
C521 H511 0.929 . S
C521 C519 1.433 . S
C521 N524 1.384 . S
C522 H513 0.929 . S
C522 C514 1.378 . S
C522 C517 1.350 . S
C523 H510 0.929 . S
C523 C515 1.433 . S
C523 N525 1.384 . S
N524 C520 1.427 . S
N524 C521 1.384 . S
N525 C517 1.427 . S
N525 C523 1.384 . S
H526 C532 0.930 . S
H527 C536 0.930 . S
H528 C541 0.929 . S
H529 C539 0.929 . S
H530 C534 0.929 . S
H531 C540 0.929 . S
C532 H526 0.930 . S
C532 C533 1.367 . S
C532 C540 1.378 . S
C533 C532 1.367 . S
C533 C541 1.433 . S
C534 H530 0.929 . S
C534 C536 1.378 . S
C534 C538 1.350 . S
C535 C538 1.463 . S
C535 C540 1.350 . S
C535 N543 1.427 . S
C536 H527 0.930 . S
C536 C534 1.378 . S
C536 C537 1.367 . S
C537 C536 1.367 . S
C537 C539 1.433 . S
C538 C534 1.350 . S
C538 C535 1.463 . S
C538 N542 1.427 . S
C539 H529 0.929 . S
C539 C537 1.433 . S
C539 N542 1.384 . S
C540 H531 0.929 . S
C540 C532 1.378 . S
C540 C535 1.350 . S
C541 H528 0.929 . S
C541 C533 1.433 . S
C541 N543 1.384 . S
N542 C538 1.427 . S
N542 C539 1.384 . S
N543 C535 1.427 . S
N543 C541 1.384 . S
H544 C550 0.930 . S
H545 C554 0.930 . S
H546 C559 0.929 . S
H547 C557 0.929 . S
H548 C552 0.929 . S
H549 C558 0.929 . S
C550 H544 0.930 . S
C550 C551 1.367 . S
C550 C558 1.378 . S
C551 C550 1.367 . S
C551 C559 1.433 . S
C552 H548 0.929 . S
C552 C554 1.378 . S
C552 C556 1.350 . S
C553 C556 1.463 . S
C553 C558 1.350 . S
C553 N561 1.427 . S
C554 H545 0.930 . S
C554 C552 1.378 . S
C554 C555 1.367 . S
C555 C554 1.367 . S
C555 C557 1.433 . S
C556 C552 1.350 . S
C556 C553 1.463 . S
C556 N560 1.427 . S
C557 H547 0.929 . S
C557 C555 1.433 . S
C557 N560 1.384 . S
C558 H549 0.929 . S
C558 C550 1.378 . S
C558 C553 1.350 . S
C559 H546 0.929 . S
C559 C551 1.433 . S
C559 N561 1.384 . S
N560 C556 1.427 . S
N560 C557 1.384 . S
N561 C553 1.427 . S
N561 C559 1.384 . S
H562 C568 0.930 . S
H563 C572 0.930 . S
H564 C577 0.929 . S
H565 C575 0.929 . S
H566 C570 0.929 . S
H567 C576 0.929 . S
C568 H562 0.930 . S
C568 C569 1.367 . S
C568 C576 1.378 . S
C569 C568 1.367 . S
C569 C577 1.433 . S
C570 H566 0.929 . S
C570 C572 1.378 . S
C570 C574 1.350 . S
C571 C574 1.463 . S
C571 C576 1.350 . S
C571 N579 1.427 . S
C572 H563 0.930 . S
C572 C570 1.378 . S
C572 C573 1.367 . S
C573 C572 1.367 . S
C573 C575 1.433 . S
C574 C570 1.350 . S
C574 C571 1.463 . S
C574 N578 1.427 . S
C575 H565 0.929 . S
C575 C573 1.433 . S
C575 N578 1.384 . S
C576 H567 0.929 . S
C576 C568 1.378 . S
C576 C571 1.350 . S
C577 H564 0.929 . S
C577 C569 1.433 . S
C577 N579 1.384 . S
N578 C574 1.427 . S
N578 C575 1.384 . S
N579 C571 1.427 . S
N579 C577 1.384 . S
H580 C586 0.930 . S
H581 C590 0.930 . S
H582 C595 0.929 . S
H583 C593 0.929 . S
H584 C588 0.929 . S
H585 C594 0.929 . S
C586 H580 0.930 . S
C586 C587 1.367 . S
C586 C594 1.378 . S
C587 C586 1.367 . S
C587 C595 1.433 . S
C588 H584 0.929 . S
C588 C590 1.378 . S
C588 C592 1.350 . S
C589 C592 1.463 . S
C589 C594 1.350 . S
C589 N597 1.427 . S
C590 H581 0.930 . S
C590 C588 1.378 . S
C590 C591 1.367 . S
C591 C590 1.367 . S
C591 C593 1.433 . S
C592 C588 1.350 . S
C592 C589 1.463 . S
C592 N596 1.427 . S
C593 H583 0.929 . S
C593 C591 1.433 . S
C593 N596 1.384 . S
C594 H585 0.929 . S
C594 C586 1.378 . S
C594 C589 1.350 . S
C595 H582 0.929 . S
C595 C587 1.433 . S
C595 N597 1.384 . S
N596 C592 1.427 . S
N596 C593 1.384 . S
N597 C589 1.427 . S
N597 C595 1.384 . S
H598 C604 0.930 . S
H599 C608 0.930 . S
H600 C613 0.929 . S
H601 C611 0.929 . S
H602 C606 0.929 . S
H603 C612 0.929 . S
C604 H598 0.930 . S
C604 C605 1.367 . S
C604 C612 1.378 . S
C605 C604 1.367 . S
C605 C613 1.433 . S
C606 H602 0.929 . S
C606 C608 1.378 . S
C606 C610 1.350 . S
C607 C610 1.463 . S
C607 C612 1.350 . S
C607 N615 1.427 . S
C608 H599 0.930 . S
C608 C606 1.378 . S
C608 C609 1.367 . S
C609 C608 1.367 . S
C609 C611 1.433 . S
C610 C606 1.350 . S
C610 C607 1.463 . S
C610 N614 1.427 . S
C611 H601 0.929 . S
C611 C609 1.433 . S
C611 N614 1.384 . S
C612 H603 0.929 . S
C612 C604 1.378 . S
C612 C607 1.350 . S
C613 H600 0.929 . S
C613 C605 1.433 . S
C613 N615 1.384 . S
N614 C610 1.427 . S
N614 C611 1.384 . S
N615 C607 1.427 . S
N615 C613 1.384 . S
H616 C622 0.930 . S
H617 C626 0.930 . S
H618 C631 0.929 . S
H619 C629 0.929 . S
H620 C624 0.929 . S
H621 C630 0.929 . S
C622 H616 0.930 . S
C622 C623 1.367 . S
C622 C630 1.378 . S
C623 C622 1.367 . S
C623 C631 1.433 . S
C624 H620 0.929 . S
C624 C626 1.378 . S
C624 C628 1.350 . S
C625 C628 1.463 . S
C625 C630 1.350 . S
C625 N633 1.427 . S
C626 H617 0.930 . S
C626 C624 1.378 . S
C626 C627 1.367 . S
C627 C626 1.367 . S
C627 C629 1.433 . S
C628 C624 1.350 . S
C628 C625 1.463 . S
C628 N632 1.427 . S
C629 H619 0.929 . S
C629 C627 1.433 . S
C629 N632 1.384 . S
C630 H621 0.929 . S
C630 C622 1.378 . S
C630 C625 1.350 . S
C631 H618 0.929 . S
C631 C623 1.433 . S
C631 N633 1.384 . S
N632 C628 1.427 . S
N632 C629 1.384 . S
N633 C625 1.427 . S
N633 C631 1.384 . S
H634 C640 0.930 1_545 S
H635 C644 0.930 . S
H636 C649 0.929 . S
H637 C647 0.929 . S
H638 C642 0.929 . S
H639 C648 0.929 . S
C640 H634 0.930 1_565 S
C640 C641 1.367 . S
C640 C648 1.378 . S
C641 C640 1.367 . S
C641 C649 1.433 . S
C642 H638 0.929 . S
C642 C644 1.378 . S
C642 C646 1.350 . S
C643 C646 1.463 . S
C643 C648 1.350 . S
C643 N651 1.427 . S
C644 H635 0.930 . S
C644 C642 1.378 . S
C644 C645 1.367 . S
C645 C644 1.367 . S
C645 C647 1.433 . S
C646 C642 1.350 . S
C646 C643 1.463 . S
C646 N650 1.427 . S
C647 H637 0.929 . S
C647 C645 1.433 . S
C647 N650 1.384 . S
C648 H639 0.929 . S
C648 C640 1.378 . S
C648 C643 1.350 . S
C649 H636 0.929 . S
C649 C641 1.433 . S
C649 N651 1.384 . S
N650 C646 1.427 . S
N650 C647 1.384 . S
N651 C643 1.427 . S
N651 C649 1.384 . S
H652 C658 0.930 . S
H653 C662 0.930 . S
H654 C667 0.929 1_565 S
H655 C665 0.929 . S
H656 C660 0.929 . S
H657 C666 0.929 . S
C658 H652 0.930 . S
C658 C659 1.367 . S
C658 C666 1.378 . S
C659 C658 1.367 . S
C659 C667 1.433 . S
C660 H656 0.929 . S
C660 C662 1.378 . S
C660 C664 1.350 . S
C661 C664 1.463 . S
C661 C666 1.350 . S
C661 N669 1.427 . S
C662 H653 0.930 . S
C662 C660 1.378 . S
C662 C663 1.367 . S
C663 C662 1.367 . S
C663 C665 1.433 . S
C664 C660 1.350 . S
C664 C661 1.463 . S
C664 N668 1.427 . S
C665 H655 0.929 . S
C665 C663 1.433 . S
C665 N668 1.384 . S
C666 H657 0.929 . S
C666 C658 1.378 . S
C666 C661 1.350 . S
C667 H654 0.929 1_545 S
C667 C659 1.433 . S
C667 N669 1.384 . S
N668 C664 1.427 . S
N668 C665 1.384 . S
N669 C661 1.427 . S
N669 C667 1.384 . S
H670 C676 0.939 . S
H671 C680 0.930 . S
H672 C685 0.929 . S
H673 C683 0.929 . S
H674 C678 0.929 . S
H675 C684 0.929 . S
C676 H670 0.939 . S
C676 C677 1.367 . S
C676 C684 1.378 . S
C677 C676 1.367 . S
C677 C685 1.433 . S
C678 H674 0.929 . S
C678 C680 1.378 . S
C678 C682 1.350 . S
C679 C682 1.463 . S
C679 C684 1.350 . S
C679 N687 1.427 . S
C680 H671 0.930 . S
C680 C678 1.378 . S
C680 C681 1.367 . S
C681 C680 1.367 . S
C681 C683 1.433 . S
C682 C678 1.350 . S
C682 C679 1.463 . S
C682 N686 1.427 . S
C683 H673 0.929 . S
C683 C681 1.433 . S
C683 N686 1.384 . S
C684 H675 0.929 . S
C684 C676 1.378 . S
C684 C679 1.350 . S
C685 H672 0.929 . S
C685 C677 1.433 . S
C685 N687 1.384 . S
N686 C682 1.427 . S
N686 C683 1.384 . S
N687 C679 1.427 . S
N687 C685 1.384 . S
H688 C694 0.930 . S
H689 C698 0.930 . S
H690 C703 0.929 . S
H691 C701 0.929 . S
H692 C696 0.929 . S
H693 C702 0.929 . S
C694 H688 0.930 . S
C694 C695 1.367 . S
C694 C702 1.378 . S
C695 C694 1.367 . S
C695 C703 1.433 . S
C696 H692 0.929 . S
C696 C698 1.378 . S
C696 C700 1.350 . S
C697 C700 1.463 . S
C697 C702 1.350 . S
C697 N705 1.427 . S
C698 H689 0.930 . S
C698 C696 1.378 . S
C698 C699 1.367 . S
C699 C698 1.367 . S
C699 C701 1.433 . S
C700 C696 1.350 . S
C700 C697 1.463 . S
C700 N704 1.427 . S
C701 H691 0.929 . S
C701 C699 1.433 . S
C701 N704 1.384 . S
C702 H693 0.929 . S
C702 C694 1.378 . S
C702 C697 1.350 . S
C703 H690 0.929 . S
C703 C695 1.433 . S
C703 N705 1.384 . S
N704 C700 1.427 . S
N704 C701 1.384 . S
N705 C697 1.427 . S
N705 C703 1.384 . S
H706 C712 0.930 . S
H707 C716 0.930 . S
H708 C721 0.929 . S
H709 C719 0.929 . S
H710 C714 0.929 . S
H711 C720 0.929 . S
C712 H706 0.930 . S
C712 C713 1.367 . S
C712 C720 1.378 . S
C713 C712 1.367 . S
C713 C721 1.433 . S
C714 H710 0.929 . S
C714 C716 1.378 . S
C714 C718 1.350 . S
C715 C718 1.463 . S
C715 C720 1.350 . S
C715 N723 1.427 . S
C716 H707 0.930 . S
C716 C714 1.378 . S
C716 C717 1.367 . S
C717 C716 1.367 . S
C717 C719 1.433 . S
C718 C714 1.350 . S
C718 C715 1.463 . S
C718 N722 1.427 . S
C719 H709 0.929 . S
C719 C717 1.433 . S
C719 N722 1.384 . S
C720 H711 0.929 . S
C720 C712 1.378 . S
C720 C715 1.350 . S
C721 H708 0.929 . S
C721 C713 1.433 . S
C721 N723 1.384 . S
N722 C718 1.427 . S
N722 C719 1.384 . S
N723 C715 1.427 . S
N723 C721 1.384 . S
H724 C730 0.930 . S
H725 C734 0.930 . S
H726 C739 0.929 . S
H727 C737 0.929 . S
H728 C732 0.929 . S
H729 C738 0.929 . S
C730 H724 0.930 . S
C730 C731 1.367 . S
C730 C738 1.378 . S
C731 C730 1.367 . S
C731 C739 1.433 . S
C732 H728 0.929 . S
C732 C734 1.378 . S
C732 C736 1.350 . S
C733 C736 1.463 . S
C733 C738 1.350 . S
C733 N741 1.427 . S
C734 H725 0.930 . S
C734 C732 1.378 . S
C734 C735 1.367 . S
C735 C734 1.367 . S
C735 C737 1.433 . S
C736 C732 1.350 . S
C736 C733 1.463 . S
C736 N740 1.427 . S
C737 H727 0.929 . S
C737 C735 1.433 . S
C737 N740 1.384 . S
C738 H729 0.929 . S
C738 C730 1.378 . S
C738 C733 1.350 . S
C739 H726 0.929 . S
C739 C731 1.433 . S
C739 N741 1.384 . S
N740 C736 1.427 . S
N740 C737 1.384 . S
N741 C733 1.427 . S
N741 C739 1.384 . S
H742 C748 0.930 . S
H743 C752 0.930 . S
H744 C757 0.929 . S
H745 C755 0.929 . S
H746 C750 0.929 . S
H747 C756 0.929 . S
C748 H742 0.930 . S
C748 C749 1.367 . S
C748 C756 1.378 . S
C749 C748 1.367 . S
C749 C757 1.433 . S
C750 H746 0.929 . S
C750 C752 1.378 . S
C750 C754 1.350 . S
C751 C754 1.463 . S
C751 C756 1.350 . S
C751 N759 1.427 . S
C752 H743 0.930 . S
C752 C750 1.378 . S
C752 C753 1.367 . S
C753 C752 1.367 . S
C753 C755 1.433 . S
C754 C750 1.350 . S
C754 C751 1.463 . S
C754 N758 1.427 . S
C755 H745 0.929 . S
C755 C753 1.433 . S
C755 N758 1.384 . S
C756 H747 0.929 . S
C756 C748 1.378 . S
C756 C751 1.350 . S
C757 H744 0.929 . S
C757 C749 1.433 . S
C757 N759 1.384 . S
N758 C754 1.427 . S
N758 C755 1.384 . S
N759 C751 1.427 . S
N759 C757 1.384 . S
H760 C766 0.930 . S
H761 C770 0.930 . S
H762 C775 0.929 . S
H763 C773 0.929 . S
H764 C768 0.929 . S
H765 C774 0.929 . S
C766 H760 0.930 . S
C766 C767 1.367 . S
C766 C774 1.378 . S
C767 C766 1.367 . S
C767 C775 1.433 . S
C768 H764 0.929 . S
C768 C770 1.378 . S
C768 C772 1.350 . S
C769 C772 1.463 . S
C769 C774 1.350 . S
C769 N777 1.427 . S
C770 H761 0.930 . S
C770 C768 1.378 . S
C770 C771 1.367 . S
C771 C770 1.367 . S
C771 C773 1.433 . S
C772 C768 1.350 . S
C772 C769 1.463 . S
C772 N776 1.427 . S
C773 H763 0.929 . S
C773 C771 1.433 . S
C773 N776 1.384 . S
C774 H765 0.929 . S
C774 C766 1.378 . S
C774 C769 1.350 . S
C775 H762 0.929 . S
C775 C767 1.433 . S
C775 N777 1.384 . S
N776 C772 1.427 . S
N776 C773 1.384 . S
N777 C769 1.427 . S
N777 C775 1.384 . S
H778 C784 0.930 . S
H779 C788 0.930 . S
H780 C793 0.929 . S
H781 C791 0.929 . S
H782 C786 0.929 . S
H783 C792 0.929 . S
C784 H778 0.930 . S
C784 C785 1.367 . S
C784 C792 1.378 . S
C785 C784 1.367 . S
C785 C793 1.433 . S
C786 H782 0.929 . S
C786 C788 1.378 . S
C786 C790 1.350 . S
C787 C790 1.463 . S
C787 C792 1.350 . S
C787 N795 1.427 . S
C788 H779 0.930 . S
C788 C786 1.378 . S
C788 C789 1.367 . S
C789 C788 1.367 . S
C789 C791 1.433 . S
C790 C786 1.350 . S
C790 C787 1.463 . S
C790 N794 1.427 . S
C791 H781 0.929 . S
C791 C789 1.433 . S
C791 N794 1.384 . S
C792 H783 0.929 . S
C792 C784 1.378 . S
C792 C787 1.350 . S
C793 H780 0.929 . S
C793 C785 1.433 . S
C793 N795 1.384 . S
N794 C790 1.427 . S
N794 C791 1.384 . S
N795 C787 1.427 . S
N795 C793 1.384 . S
H796 C802 0.930 . S
H797 C806 0.930 . S
H798 C811 0.929 . S
H799 C809 0.929 . S
H800 C804 0.929 . S
H801 C810 0.929 . S
C802 H796 0.930 . S
C802 C803 1.367 . S
C802 C810 1.378 . S
C803 C802 1.367 . S
C803 C811 1.433 . S
C804 H800 0.929 . S
C804 C806 1.378 . S
C804 C808 1.350 . S
C805 C808 1.463 . S
C805 C810 1.350 . S
C805 N813 1.427 . S
C806 H797 0.930 . S
C806 C804 1.378 . S
C806 C807 1.367 . S
C807 C806 1.367 . S
C807 C809 1.433 . S
C808 C804 1.350 . S
C808 C805 1.463 . S
C808 N812 1.427 . S
C809 H799 0.929 . S
C809 C807 1.433 . S
C809 N812 1.384 . S
C810 H801 0.929 . S
C810 C802 1.378 . S
C810 C805 1.350 . S
C811 H798 0.929 . S
C811 C803 1.433 . S
C811 N813 1.384 . S
N812 C808 1.427 . S
N812 C809 1.384 . S
N813 C805 1.427 . S
N813 C811 1.384 . S
H814 C820 0.930 . S
H815 C824 0.930 . S
H816 C829 0.929 . S
H817 C827 0.929 . S
H818 C822 0.929 . S
H819 C828 0.929 . S
C820 H814 0.930 . S
C820 C821 1.367 . S
C820 C828 1.378 . S
C821 C820 1.367 . S
C821 C829 1.433 . S
C822 H818 0.929 . S
C822 C824 1.378 . S
C822 C826 1.350 . S
C823 C826 1.463 . S
C823 C828 1.350 . S
C823 N831 1.427 . S
C824 H815 0.930 . S
C824 C822 1.378 . S
C824 C825 1.367 . S
C825 C824 1.367 . S
C825 C827 1.433 . S
C826 C822 1.350 . S
C826 C823 1.463 . S
C826 N830 1.427 . S
C827 H817 0.929 . S
C827 C825 1.433 . S
C827 N830 1.384 . S
C828 H819 0.929 . S
C828 C820 1.378 . S
C828 C823 1.350 . S
C829 H816 0.929 . S
C829 C821 1.433 . S
C829 N831 1.384 . S
N830 C826 1.427 . S
N830 C827 1.384 . S
N831 C823 1.427 . S
N831 C829 1.384 . S
C407 C21 1.553 . S
C411 C338 1.520 . S
C429 C316 1.523 . S
C425 C60 1.554 . S
C447 C342 1.528 . S
C443 C99 1.552 . S
C465 C320 1.524 . S
C461 C138 1.552 . S
C483 C382 1.525 . S
C479 C177 1.556 . S
C501 C360 1.522 . S
C497 C216 1.553 . S
C515 C255 1.545 . S
C519 C386 1.519 . S
C537 C364 1.515 . S
C533 C294 1.547 . S
C551 C1 1.562 . S
C555 C387 1.564 . S
C573 C365 1.562 . S
C569 C40 1.560 . S
C587 C79 1.560 . S
C591 C384 1.569 . S
C605 C133 1.544 . S
C609 C362 1.562 . S
C627 C343 1.565 . S
C623 C157 1.561 1_545 S
C641 C196 1.553 1_565 S
C645 C321 1.569 . S
C663 C340 1.570 . S
C659 C235 1.558 1_545 S
C681 C318 1.560 . S
C677 C289 1.546 1_565 S
C699 C361 1.535 . S
C695 C16 1.529 . S
C717 C383 1.535 . S
C713 C55 1.528 . S
C731 C94 1.529 . S
C735 C363 1.533 . S
C753 C385 1.541 . S
C749 C118 1.527 . S
C771 C317 1.540 . S
C767 C172 1.519 . S
C785 C211 1.526 . S
C789 C339 1.538 . S
C803 C250 1.522 . S
C807 C319 1.540 . S
C821 C274 1.534 . S
C825 C341 1.533 . S
