# Generated by pormake.
# Topology anh, (6,3)-cn, num edge types: 1
# Building blocks:
#     Node 0, Type 0, BuildingBlock: BETDAH_clean_sbu_0, # of connection points: 6
#     Node 1, Type 0, BuildingBlock: BETDAH_clean_sbu_0, # of connection points: 6
#     Node 2, Type 0, BuildingBlock: BETDAH_clean_sbu_0, # of connection points: 6
#     Node 3, Type 1, BuildingBlock: PAMTOO_clean_linker_0, # of connection points: 3
#     Node 4, Type 1, BuildingBlock: PAMTOO_clean_linker_0, # of connection points: 3
#     Node 5, Type 1, BuildingBlock: PAMTOO_clean_linker_0, # of connection points: 3
#     Node 6, Type 1, BuildingBlock: PAMTOO_clean_linker_0, # of connection points: 3
#     Node 7, Type 1, BuildingBlock: PAMTOO_clean_linker_0, # of connection points: 3
#     Node 8, Type 1, BuildingBlock: PAMTOO_clean_linker_0, # of connection points: 3
#     Edge 9, Type (0, 1), BuildingBlock: XIVTED_clean_linker_0, # of connection points: 2
#     Edge 10, Type (0, 1), BuildingBlock: XIVTED_clean_linker_0, # of connection points: 2
#     Edge 11, Type (0, 1), BuildingBlock: XIVTED_clean_linker_0, # of connection points: 2
#     Edge 12, Type (0, 1), BuildingBlock: XIVTED_clean_linker_0, # of connection points: 2
#     Edge 13, Type (0, 1), BuildingBlock: XIVTED_clean_linker_0, # of connection points: 2
#     Edge 14, Type (0, 1), BuildingBlock: XIVTED_clean_linker_0, # of connection points: 2
#     Edge 15, Type (0, 1), BuildingBlock: XIVTED_clean_linker_0, # of connection points: 2
#     Edge 16, Type (0, 1), BuildingBlock: XIVTED_clean_linker_0, # of connection points: 2
#     Edge 17, Type (0, 1), BuildingBlock: XIVTED_clean_linker_0, # of connection points: 2
#     Edge 18, Type (0, 1), BuildingBlock: XIVTED_clean_linker_0, # of connection points: 2
#     Edge 19, Type (0, 1), BuildingBlock: XIVTED_clean_linker_0, # of connection points: 2
#     Edge 20, Type (0, 1), BuildingBlock: XIVTED_clean_linker_0, # of connection points: 2
#     Edge 21, Type (0, 1), BuildingBlock: XIVTED_clean_linker_0, # of connection points: 2
#     Edge 22, Type (0, 1), BuildingBlock: XIVTED_clean_linker_0, # of connection points: 2
#     Edge 23, Type (0, 1), BuildingBlock: XIVTED_clean_linker_0, # of connection points: 2
#     Edge 24, Type (0, 1), BuildingBlock: XIVTED_clean_linker_0, # of connection points: 2
#     Edge 25, Type (0, 1), BuildingBlock: XIVTED_clean_linker_0, # of connection points: 2
#     Edge 26, Type (0, 1), BuildingBlock: XIVTED_clean_linker_0, # of connection points: 2
# Relax obj value: 0.166
# Max RMSD: 0.187
# Mean RMSD: 0.126
data_MOF--net-anh--node1-BETDAH_clean_sbu_0--node2-PAMTOO_clean_linker_0--edge1-XIVTED_clean_linker_0
_symmetry_space_group_name_H-M    P1
_symmetry_Int_Tables_number       1
_symmetry_cell_setting            triclinic
loop_
_symmetry_equiv_pos_as_xyz
'x, y, z'
_cell_length_a     31.765691
_cell_length_b     38.057318
_cell_length_c     49.125077
_cell_angle_alpha  87.711602
_cell_angle_beta   92.704273
_cell_angle_gamma 129.93923
loop_
_atom_site_label
_atom_site_type_symbol
_atom_site_fract_x
_atom_site_fract_y
_atom_site_fract_z
_atom_type_partial_charge
Ho0 Ho 0.16118 0.53117 0.13642 0.0
Ho1 Ho 0.09702 0.55639 0.16051 0.0
C2 C 0.22256 0.63964 0.14981 0.0
C3 C 0.21821 0.5247 0.10462 0.0
C4 C 0.27519 0.54414 0.10227 0.0
C5 C 0.2859 0.5203 0.08735 0.0
C6 C 0.33788 0.5329 0.08867 0.0
C7 C 0.38026 0.56983 0.10493 0.0
C8 C 0.37021 0.59576 0.11832 0.0
C9 C 0.31782 0.58278 0.11715 0.0
C10 C 0.16164 0.53051 0.19133 0.0
C11 C 1.0358 0.44845 0.14872 0.0
C12 C 1.02739 0.55006 0.18935 0.0
C13 C 0.96804 0.51057 0.18879 0.0
C14 C 0.94122 0.48624 0.21285 0.0
C15 C 0.88769 0.44399 0.21164 0.0
C16 C 0.86053 0.42527 0.18631 0.0
C17 C 0.88733 0.45028 0.1624 0.0
C18 C 0.94034 0.49215 0.1636 0.0
C19 C 0.09702 0.55581 0.10552 0.0
O20 O 0.22237 0.60993 0.13614 0.0
O21 O 0.17991 0.62592 0.16416 0.0
O22 O 0.19352 0.4983 0.12601 0.0
O23 O 0.20756 0.5524 0.09975 0.0
O24 O 0.1642 0.50363 0.1775 0.0
O25 O 0.16455 0.55873 0.17557 0.0
O26 O 1.03827 0.4785 0.16304 0.0
O27 O 0.0765 0.46204 0.13288 0.0
O28 O 1.04698 0.57531 0.16705 0.0
O29 O 1.05802 0.54047 0.1992 0.0
O30 O 0.09682 0.58449 0.11885 0.0
O31 O 0.09313 0.52774 0.12183 0.0
H32 H 0.25318 0.49024 0.07589 0.0
H33 H 0.34341 0.51149 0.07846 0.0
H34 H 0.40207 0.62476 0.13068 0.0
H35 H 0.30997 0.60154 0.12881 0.0
H36 H 0.96228 0.49925 0.23247 0.0
H37 H 0.86792 0.42569 0.23042 0.0
H38 H 0.86718 0.43771 0.14256 0.0
H39 H 0.96013 0.5094 0.1446 0.0
Ho40 Ho 0.67242 0.03749 0.47453 0.0
Ho41 Ho 0.59737 0.05763 0.46098 0.0
C42 C 0.5411 0.9526 0.4633 0.0
C43 C 0.72168 1.00806 0.49488 0.0
C44 C 0.71163 0.96463 0.49779 0.0
C45 C 0.65817 0.92231 0.49847 0.0
C46 C 0.64983 0.88156 0.50173 0.0
C47 C 0.69486 0.88246 0.50423 0.0
C48 C 0.74831 0.925 0.5031 0.0
C49 C 0.75654 0.96566 0.49993 0.0
C50 C 0.66279 0.05051 0.42096 0.0
C51 C 0.72988 0.14277 0.46926 0.0
C52 C 0.5503 0.09015 0.44321 0.0
C53 C 0.55831 0.1321 0.44861 0.0
C54 C 0.60923 0.17607 0.44492 0.0
C55 C 0.61671 0.21511 0.45184 0.0
C56 C 0.5735 0.21099 0.46271 0.0
C57 C 0.52235 0.16699 0.4659 0.0
C58 C 0.51484 0.12803 0.45887 0.0
C59 C 0.60759 0.04528 0.51465 0.0
O60 O 0.58705 0.96659 0.47635 0.0
O61 O 0.53838 0.98268 0.451 0.0
O62 O 0.72865 0.02432 0.47009 0.0
O63 O 0.69106 0.01201 0.50904 0.0
O64 O 0.70862 0.06572 0.43314 0.0
O65 O 0.62407 0.02786 0.43733 0.0
O66 O 0.68222 0.12824 0.45827 0.0
O67 O 0.73461 0.11353 0.48095 0.0
O68 O 0.53233 0.06111 0.4636 0.0
O69 O 0.58869 0.09498 0.43008 0.0
O70 O 0.56195 0.03039 0.50251 0.0
O71 O 0.6461 0.06772 0.49813 0.0
H72 H 0.62296 0.9208 0.49665 0.0
H73 H 0.60815 0.84935 0.5022 0.0
H74 H 0.78387 0.927 0.50532 0.0
H75 H 0.79812 0.99805 0.49941 0.0
H76 H 0.64355 0.18035 0.43707 0.0
H77 H 0.65672 0.24847 0.4493 0.0
H78 H 0.48798 0.16265 0.47381 0.0
H79 H 0.47514 0.09454 0.46181 0.0
Ho80 Ho 0.66039 0.56726 0.83732 0.0
Ho81 Ho 0.58162 0.46612 0.84621 0.0
C82 C 0.52652 0.51525 0.84343 0.0
C83 C 0.71001 0.64936 0.81835 0.0
C84 C 0.69918 0.68179 0.81488 0.0
C85 C 0.69202 0.69313 0.78851 0.0
C86 C 0.68295 0.72438 0.78457 0.0
C87 C 0.68125 0.74535 0.80693 0.0
C88 C 0.68863 0.73416 0.83337 0.0
C89 C 0.6974 0.70263 0.83732 0.0
C90 C 0.6463 0.54042 0.88992 0.0
C91 C 0.71666 0.51927 0.8417 0.0
C92 C 0.53353 0.38303 0.8624 0.0
C93 C 0.54261 0.3503 0.85718 0.0
C94 C 0.59314 0.36073 0.86372 0.0
C95 C 0.60228 0.3309 0.8566 0.0
C96 C 0.56117 0.29005 0.84275 0.0
C97 C 0.51026 0.27923 0.83682 0.0
C98 C 0.50109 0.30896 0.84401 0.0
C99 C 0.59639 0.49242 0.79339 0.0
O100 O 0.57602 0.55166 0.83462 0.0
O101 O 0.51992 0.47833 0.85233 0.0
O102 O 0.71797 0.64058 0.84319 0.0
O103 O 0.67992 0.61277 0.80321 0.0
O104 O 0.69301 0.57561 0.88032 0.0
O105 O 0.60903 0.52314 0.87169 0.0
O106 O 0.66611 0.4817 0.84854 0.0
O107 O 0.7242 0.55702 0.83411 0.0
O108 O 0.51618 0.39319 0.84137 0.0
O109 O 0.57108 0.41899 0.87707 0.0
O110 O 0.54981 0.45753 0.80313 0.0
O111 O 0.63343 0.50993 0.81179 0.0
H112 H 0.69382 0.67802 0.77084 0.0
H113 H 0.67831 0.73279 0.76393 0.0
H114 H 0.68715 0.74948 0.85101 0.0
H115 H 0.70291 0.69476 0.85794 0.0
H116 H 0.62602 0.39231 0.87389 0.0
H117 H 0.64207 0.34043 0.86131 0.0
H118 H 0.47739 0.24768 0.82659 0.0
H119 H 0.46172 0.30001 0.83884 0.0
H120 H 0.72046 0.14234 0.21887 0.0
H121 H 0.5843 0.99822 0.20878 0.0
H122 H 0.67172 0.08373 0.139 0.0
H123 H 0.54649 0.99076 0.12333 0.0
C124 C 0.54169 0.9816 0.14538 0.0
O125 O 0.59232 0.99838 0.15658 0.0
H126 H 0.52706 0.99818 0.15468 0.0
C127 C 0.69244 0.11293 0.20593 0.0
C128 C 0.69993 0.11889 0.17767 0.0
C129 C 0.651 0.06986 0.21769 0.0
C130 C 0.617 0.03181 0.20049 0.0
C131 C 0.62443 0.03646 0.17228 0.0
C132 C 0.66614 0.0801 0.16081 0.0
H133 H 0.66119 0.61969 0.59806 0.0
H134 H 0.64661 0.50205 0.58132 0.0
H135 H 0.65955 0.58542 0.51524 0.0
H136 H 0.59342 0.49038 0.4972 0.0
C137 C 0.6002 0.47744 0.51615 0.0
O138 O 0.64962 0.51305 0.52838 0.0
H139 H 0.56534 0.4638 0.5297 0.0
C140 C 0.65937 0.59794 0.58358 0.0
C141 C 0.66075 0.60728 0.55551 0.0
C142 C 0.65437 0.5602 0.59317 0.0
C143 C 0.65096 0.53159 0.57434 0.0
C144 C 0.65344 0.54107 0.54634 0.0
C145 C 0.65885 0.57905 0.53697 0.0
H146 H 1.03246 0.53314 0.89968 0.0
H147 H 0.16148 0.52522 0.90071 0.0
H148 H 0.07931 0.51292 0.82441 0.0
H149 H 0.23588 0.56698 0.86626 0.0
C150 C 0.2191 0.54542 0.84776 0.0
O151 O 0.16072 0.51227 0.84933 0.0
H152 H 0.22814 0.56889 0.83048 0.0
C153 C 1.05837 0.52981 0.8885 0.0
C154 C 1.04915 0.52291 0.86033 0.0
C155 C 0.09862 0.53116 0.90294 0.0
C156 C 0.13136 0.52501 0.88921 0.0
C157 C 0.12723 0.51969 0.86085 0.0
C158 C 0.08504 0.51847 0.84617 0.0
H159 H 1.04498 0.44623 0.39239 0.0
H160 H 0.19679 0.58408 0.40256 0.0
H161 H 0.10069 0.50524 0.47241 0.0
H162 H 0.17746 0.61584 0.48213 0.0
C163 C 0.19101 0.6207 0.46088 0.0
O164 O 0.19196 0.58582 0.45504 0.0
H165 H 0.16012 0.61859 0.44751 0.0
C166 C 0.07511 0.47482 0.40552 0.0
C167 C 1.06655 0.47043 0.43368 0.0
C168 C 0.12188 0.51537 0.39403 0.0
C169 C 0.16032 0.55259 0.41103 0.0
C170 C 0.15295 0.54934 0.43919 0.0
C171 C 0.10627 0.50791 0.45062 0.0
H172 H 0.64437 0.96911 0.7135 0.0
H173 H 0.64448 0.07998 0.7276 0.0
H174 H 0.65279 0.00986 0.79553 0.0
H175 H 0.59172 0.03786 0.8109 0.0
C176 C 0.59859 0.05791 0.79204 0.0
O177 O 0.64723 0.07381 0.78084 0.0
H178 H 0.56308 0.0343 0.7778 0.0
C179 C 0.64541 0.99093 0.72755 0.0
C180 C 0.64873 0.98502 0.75578 0.0
C181 C 0.64447 0.0253 0.71717 0.0
C182 C 0.64645 0.05396 0.73529 0.0
C183 C 0.64906 0.0481 0.76349 0.0
C184 C 0.65127 0.01431 0.77368 0.0
H185 H 0.58209 0.37413 0.07551 0.0
H186 H 0.62302 0.49973 0.10205 0.0
H187 H 0.61194 0.40888 0.16074 0.0
H188 H 0.6156 0.49467 0.19113 0.0
C189 C 0.59472 0.4803 0.17098 0.0
O190 O 0.63162 0.48559 0.15378 0.0
H191 H 0.55944 0.44335 0.17466 0.0
C192 C 0.59006 0.39625 0.09179 0.0
C193 C 0.5935 0.38494 0.11902 0.0
C194 C 0.60135 0.43795 0.08536 0.0
C195 C 0.61379 0.46734 0.10655 0.0
C196 C 0.61614 0.45594 0.13361 0.0
C197 C 0.60636 0.41524 0.13973 0.0
H198 H 0.43726 0.55917 0.07055 0.0
H199 H 0.61994 0.56031 0.18762 0.0
H200 H 0.43843 0.59356 0.15354 0.0
H201 H 0.52264 0.45364 0.12799 0.0
H202 H 0.58258 0.59652 0.16866 0.0
H203 H 0.50176 0.54682 0.08471 0.0
C204 C 0.45182 0.56507 0.09159 0.0
C205 C 0.43087 0.57597 0.11104 0.0
C206 C 0.57042 0.56565 0.15953 0.0
C207 C 0.50564 0.56324 0.12698 0.0
C208 C 0.59132 0.54494 0.17034 0.0
C209 C 0.57421 0.50405 0.15925 0.0
C210 C 0.5335 0.54582 0.13713 0.0
C211 C 0.53722 0.48541 0.13688 0.0
C212 C 0.4887 0.55817 0.09955 0.0
C213 C 0.45297 0.58488 0.1378 0.0
N214 N 0.51815 0.50652 0.12647 0.0
N215 N 0.48863 0.57762 0.1451 0.0
H216 H 0.83427 0.18773 0.49165 0.0
H217 H 0.96057 0.42763 0.41756 0.0
H218 H 0.73861 0.21241 0.44312 0.0
H219 H 1.05637 0.4112 0.47281 0.0
H220 H 0.87836 0.34976 0.42878 0.0
H221 H 0.91508 0.26911 0.48672 0.0
C222 C 0.82999 0.21017 0.4801 0.0
C223 C 0.77909 0.19276 0.46778 0.0
C224 C 0.91708 0.36312 0.43876 0.0
C225 C 0.87209 0.28645 0.46197 0.0
C226 C 0.96409 0.40777 0.43243 0.0
C227 C 1.01551 0.42612 0.44431 0.0
C228 C 0.9211 0.33583 0.45693 0.0
C229 C 1.01754 0.39864 0.46336 0.0
C230 C 0.87629 0.25677 0.47733 0.0
C231 C 0.77655 0.22387 0.45308 0.0
N232 N 0.97122 0.35475 0.46885 0.0
N233 N 0.82217 0.26881 0.45049 0.0
H234 H 0.73408 0.82768 0.83239 0.0
H235 H 0.5835 0.89658 0.73834 0.0
H236 H 0.6086 0.74016 0.77127 0.0
H237 H 0.71294 0.98811 0.79691 0.0
H238 H 0.58774 0.83693 0.75293 0.0
H239 H 0.72232 0.88462 0.82264 0.0
C240 C 0.70367 0.82023 0.81712 0.0
C241 C 0.67256 0.7792 0.80247 0.0
C242 C 0.61516 0.86996 0.76271 0.0
C243 C 0.6592 0.84435 0.79108 0.0
C244 C 0.61291 0.90414 0.75429 0.0
C245 C 0.64843 0.94763 0.76617 0.0
C246 C 0.65333 0.87915 0.78318 0.0
C247 C 0.68477 0.95506 0.78722 0.0
C248 C 0.69719 0.85286 0.81147 0.0
C249 C 0.63415 0.77161 0.78273 0.0
N250 N 0.6866 0.92128 0.79491 0.0
N251 N 0.62873 0.80388 0.77758 0.0
H252 H 0.77465 0.39667 0.21808 0.0
H253 H 0.63971 0.35756 0.09001 0.0
H254 H 0.81366 0.35551 0.14965 0.0
H255 H 0.55321 0.32701 0.16398 0.0
H256 H 0.68171 0.32782 0.11099 0.0
H257 H 0.67872 0.34526 0.20324 0.0
C258 C 0.76282 0.37552 0.20048 0.0
C259 C 0.80259 0.38233 0.18417 0.0
C260 C 0.65204 0.32595 0.12249 0.0
C261 C 0.6931 0.32475 0.16641 0.0
C262 C 0.62753 0.34283 0.11031 0.0
C263 C 0.59567 0.34768 0.1259 0.0
C264 C 0.64623 0.31579 0.15059 0.0
C265 C 0.58051 0.32666 0.15184 0.0
C266 C 0.70773 0.34603 0.19189 0.0
C267 C 0.7845 0.35316 0.16193 0.0
N268 N 0.60798 0.31361 0.16393 0.0
N269 N 0.73131 0.32692 0.15303 0.0
H270 H 0.52297 0.88019 0.49205 0.0
H271 H 0.22391 0.68908 0.4231 0.0
H272 H 0.44723 0.9102 0.43122 0.0
H273 H 0.28536 0.66055 0.49292 0.0
H274 H 0.31024 0.76839 0.42254 0.0
H275 H 0.44131 0.79871 0.48983 0.0
C276 C 0.48946 0.86976 0.47809 0.0
C277 C 0.49235 0.9025 0.46182 0.0
C278 C 0.3052 0.74483 0.43791 0.0
C279 C 0.39823 0.80871 0.45915 0.0
C280 C 0.25593 0.69938 0.43812 0.0
C281 C 0.24724 0.66805 0.45814 0.0
C282 C 0.34665 0.75945 0.4578 0.0
C283 C 0.29033 0.68352 0.47712 0.0
C284 C 0.44265 0.82311 0.4769 0.0
C285 C 0.44712 0.88655 0.44427 0.0
N286 N 0.33794 0.72805 0.47658 0.0
N287 N 0.40226 0.84108 0.44341 0.0
H288 H 0.53185 0.24547 0.79423 0.0
H289 H 0.63829 0.10885 0.8387 0.0
H290 H 0.61417 0.2643 0.87146 0.0
H291 H 0.5642 0.09649 0.76005 0.0
H292 H 0.63423 0.16872 0.8504 0.0
H293 H 0.54634 0.19291 0.78084 0.0
C294 C 0.55282 0.23842 0.80844 0.0
C295 C 0.57138 0.25908 0.83413 0.0
C296 C 0.61905 0.15309 0.83053 0.0
C297 C 0.58864 0.19907 0.81878 0.0
C298 C 0.62143 0.11902 0.82389 0.0
C299 C 0.60056 0.09727 0.79862 0.0
C300 C 0.59575 0.16552 0.81171 0.0
C301 C 0.5799 0.11202 0.77992 0.0
C302 C 0.56143 0.20862 0.80069 0.0
C303 C 0.59937 0.24936 0.85142 0.0
N304 N 0.57752 0.14491 0.78692 0.0
N305 N 0.60683 0.21986 0.84351 0.0
H306 H 0.7498 0.85738 0.48194 0.0
H307 H 0.6004 0.62942 0.57347 0.0
H308 H 0.62099 0.80975 0.53755 0.0
H309 H 0.72352 0.67174 0.51544 0.0
H310 H 0.60556 0.69414 0.55918 0.0
H311 H 0.73901 0.78864 0.4925 0.0
C312 C 0.71921 0.83245 0.49635 0.0
C313 C 0.68642 0.83951 0.50898 0.0
C314 C 0.63139 0.68932 0.54947 0.0
C315 C 0.67371 0.76062 0.52106 0.0
C316 C 0.6287 0.65248 0.55775 0.0
C317 C 0.66206 0.64546 0.54585 0.0
C318 C 0.66789 0.71968 0.52917 0.0
C319 C 0.69702 0.67585 0.52512 0.0
C320 C 0.7129 0.79311 0.50227 0.0
C321 C 0.64684 0.80564 0.52713 0.0
N322 N 0.69932 0.71184 0.51756 0.0
N323 N 0.64186 0.76789 0.53274 0.0
H324 H 0.71853 0.44725 0.854 0.0
H325 H 1.04842 0.59178 0.83828 0.0
H326 H 0.82908 0.5897 0.83045 0.0
H327 H 0.93638 0.4492 0.86078 0.0
H328 H 0.97008 0.59112 0.83295 0.0
H329 H 0.79592 0.4469 0.85499 0.0
C330 C 0.75882 0.4787 0.84901 0.0
C331 C 0.76551 0.5186 0.84217 0.0
C332 C 0.96206 0.55952 0.83845 0.0
C333 C 0.85753 0.51838 0.84323 0.0
C334 C 1.0073 0.55966 0.84103 0.0
C335 C 1.00033 0.51988 0.8487 0.0
C336 C 0.90777 0.51944 0.84408 0.0
C337 C 0.94497 0.48044 0.85362 0.0
C338 C 0.80366 0.47841 0.84955 0.0
C339 C 0.82028 0.55778 0.83589 0.0
N340 N 0.90198 0.4813 0.85129 0.0
N341 N 0.8631 0.55662 0.83662 0.0
H342 H 0.31646 0.68472 0.11985 0.0
H343 H 0.46145 0.93179 0.18372 0.0
H344 H 0.24326 0.70852 0.18031 0.0
H345 H 0.5243 0.91375 0.1147 0.0
H346 H 0.38636 0.84865 0.18587 0.0
H347 H 0.3969 0.76673 0.12028 0.0
C348 C 0.31721 0.70702 0.13327 0.0
C349 C 0.27254 0.68935 0.14998 0.0
C350 C 0.41663 0.86271 0.17029 0.0
C351 C 0.36512 0.78366 0.15069 0.0
C352 C 0.45966 0.91021 0.16916 0.0
C353 C 0.49882 0.9298 0.14879 0.0
C354 C 0.41269 0.83422 0.15105 0.0
C355 C 0.49473 0.90008 0.13059 0.0
C356 C 0.36325 0.75396 0.13348 0.0
C357 C 0.27629 0.72027 0.16694 0.0
N358 N 0.45235 0.85392 0.13202 0.0
N359 N 0.3215 0.76561 0.16684 0.0
H360 H 0.62833 0.29391 0.43589 0.0
H361 H 0.5655 0.40224 0.54739 0.0
H362 H 0.53782 0.2222 0.50869 0.0
H363 H 0.63789 0.46764 0.47027 0.0
H364 H 0.56273 0.33886 0.53536 0.0
H365 H 0.63968 0.36069 0.44981 0.0
C366 C 0.61113 0.2923 0.45488 0.0
C367 C 0.58176 0.25224 0.47105 0.0
C368 C 0.57923 0.36702 0.52102 0.0
C369 C 0.59443 0.32852 0.48707 0.0
C370 C 0.5808 0.40311 0.52791 0.0
C371 C 0.60083 0.4395 0.5095 0.0
C372 C 0.59836 0.36759 0.49564 0.0
C373 C 0.62128 0.43969 0.48477 0.0
C374 C 0.6174 0.33036 0.46275 0.0
C375 C 0.55998 0.25203 0.49535 0.0
N376 N 0.61921 0.40411 0.47846 0.0
N377 N 0.56672 0.2895 0.50259 0.0
H378 H 0.51827 0.57884 0.8193 0.0
H379 H 0.22283 0.48056 0.87787 0.0
H380 H 0.42227 0.45545 0.8681 0.0
H381 H 0.30462 0.57981 0.81276 0.0
H382 H 0.29354 0.47138 0.87692 0.0
H383 H 0.44267 0.58128 0.81935 0.0
C384 C 0.48155 0.55206 0.83015 0.0
C385 C 0.47833 0.51676 0.84364 0.0
C386 C 0.29567 0.49468 0.86247 0.0
C387 C 0.38856 0.5198 0.84407 0.0
C388 C 0.25432 0.49954 0.86278 0.0
C389 C 0.25486 0.52981 0.8446 0.0
C390 C 0.34027 0.52124 0.84443 0.0
C391 C 0.29988 0.55479 0.82668 0.0
C392 C 0.43767 0.55349 0.83012 0.0
C393 C 0.42809 0.4835 0.85721 0.0
N394 N 0.33969 0.55018 0.82719 0.0
N395 N 0.38631 0.48601 0.85719 0.0
H396 H 1.01262 0.3738 0.12327 0.0
H397 H 0.71337 0.19546 0.18738 0.0
H398 H 0.94229 0.41019 0.17669 0.0
H399 H 0.78712 0.151 0.1448 0.0
H400 H 0.79292 0.27502 0.17777 0.0
H401 H 0.92813 0.29325 0.12615 0.0
C402 C 0.9795 0.36504 0.13551 0.0
C403 C 0.98491 0.39918 0.14974 0.0
C404 C 0.7918 0.24806 0.17025 0.0
C405 C 0.88772 0.30688 0.15293 0.0
C406 C 0.7461 0.2025 0.1756 0.0
C407 C 0.74356 0.1664 0.16699 0.0
C408 C 0.83607 0.25819 0.15622 0.0
C409 C 0.78721 0.1777 0.15171 0.0
C410 C 0.93122 0.31898 0.13712 0.0
C411 C 0.94035 0.38545 0.16526 0.0
N412 N 0.83193 0.2226 0.14705 0.0
N413 N 0.89402 0.34069 0.1664 0.0
H414 H 0.10614 0.61401 0.06663 0.0
H415 H 0.10856 0.48391 0.94273 0.0
H416 H 0.09574 0.49556 0.0767 0.0
H417 H 0.1027 0.59373 0.93148 0.0
H418 H 0.1119 0.49211 0.99212 0.0
H419 H 0.1114 0.61089 0.01718 0.0
C420 C 0.10502 0.58742 0.05841 0.0
C421 C 0.10041 0.55498 0.0757 0.0
C422 C 0.11009 0.51455 0.97886 0.0
C423 C 0.10664 0.55122 0.01935 0.0
C424 C 0.1086 0.51008 0.95065 0.0
C425 C 0.10501 0.53797 0.93294 0.0
C426 C 0.10817 0.54726 0.98949 0.0
C427 C 0.10464 0.57104 0.94439 0.0
C428 C 0.10807 0.58564 0.03023 0.0
C429 C 0.09925 0.52126 0.06407 0.0
N430 N 0.106 0.57467 0.97189 0.0
N431 N 0.10233 0.52026 0.03666 0.0
H432 H 0.57415 0.98614 0.38886 0.0
H433 H 0.67075 0.13283 0.25402 0.0
H434 H 0.73541 0.11909 0.386 0.0
H435 H 0.61666 0.99574 0.25102 0.0
H436 H 0.67126 0.1278 0.30368 0.0
H437 H 0.56582 0.9888 0.3388 0.0
C438 C 0.60745 0.01601 0.37767 0.0
C439 C 0.65567 0.05242 0.39131 0.0
C440 C 0.65894 0.09886 0.29195 0.0
C441 C 0.64573 0.05603 0.33482 0.0
C442 C 0.65907 0.10167 0.26358 0.0
C443 C 0.64495 0.06505 0.24794 0.0
C444 C 0.64271 0.05863 0.3049 0.0
C445 C 0.62766 0.02486 0.26191 0.0
C446 C 0.60274 0.01735 0.34929 0.0
C447 C 0.69781 0.0903 0.37607 0.0
N448 N 0.62697 0.0227 0.28962 0.0
N449 N 0.69168 0.09138 0.34856 0.0
H450 H 0.52327 0.44416 0.75145 0.0
H451 H 0.72048 0.61897 0.63463 0.0
H452 H 0.6918 0.56301 0.76851 0.0
H453 H 0.57835 0.47831 0.61902 0.0
H454 H 0.70839 0.60253 0.68374 0.0
H455 H 0.53976 0.45971 0.70269 0.0
C456 C 0.56376 0.47364 0.7449 0.0
C457 C 0.60624 0.50243 0.76399 0.0
C458 C 0.68016 0.57521 0.66955 0.0
C459 C 0.6253 0.52054 0.70824 0.0
C460 C 0.68691 0.58458 0.64159 0.0
C461 C 0.65029 0.54991 0.62281 0.0
C462 C 0.63591 0.53107 0.67876 0.0
C463 C 0.60769 0.50589 0.63283 0.0
C464 C 0.57319 0.48235 0.71708 0.0
C465 C 0.65791 0.54009 0.75441 0.0
N466 N 0.60134 0.49783 0.66014 0.0
N467 N 0.66597 0.54826 0.72715 0.0
H468 H 0.52751 0.98506 0.54994 0.0
H469 H 0.71092 0.10197 0.68498 0.0
H470 H 0.70172 0.0977 0.5466 0.0
H471 H 0.56748 0.95887 0.6818 0.0
H472 H 0.7037 0.10724 0.6351 0.0
H473 H 0.53688 0.98064 0.59942 0.0
C474 C 0.56776 1.00884 0.55969 0.0
C475 C 0.61393 0.04177 0.54429 0.0
C476 C 0.67391 0.07476 0.6454 0.0
C477 C 0.62479 0.03739 0.6008 0.0
C478 C 0.67776 0.07183 0.67375 0.0
C479 C 0.63973 0.02992 0.68736 0.0
C480 C 0.63105 0.03572 0.63077 0.0
C481 C 0.59772 0.99173 0.67198 0.0
C482 C 0.57308 1.00624 0.58786 0.0
C483 C 0.66519 0.07173 0.55783 0.0
N484 N 0.59427 0.99559 0.64452 0.0
N485 N 0.66923 0.06914 0.58544 0.0
H486 H 0.55175 0.46495 0.91255 0.0
H487 H 0.68296 0.52183 0.06354 0.0
H488 H 0.72083 0.57996 0.93226 0.0
H489 H 0.5314 0.3888 0.04165 0.0
H490 H 0.69248 0.54674 0.01611 0.0
H491 H 0.53893 0.43913 0.9603 0.0
C492 C 0.58612 0.48473 0.92695 0.0
C493 C 0.63747 0.52456 0.91853 0.0
C494 C 0.65706 0.5121 0.02163 0.0
C495 C 0.62301 0.4956 0.97299 0.0
C496 C 0.65134 0.49797 0.04876 0.0
C497 C 0.6061 0.45324 0.05658 0.0
C498 C 0.61714 0.48145 0.00206 0.0
C499 C 0.56699 0.42352 0.03644 0.0
C500 C 0.5788 0.46996 0.95413 0.0
C501 C 0.6806 0.54903 0.93793 0.0
N502 N 0.57329 0.4382 0.01006 0.0
N503 N 0.67235 0.53425 0.96427 0.0
H504 H 0.17041 0.59255 0.22276 0.0
H505 H 0.10762 0.45128 0.36174 0.0
H506 H 0.14538 0.46691 0.22777 0.0
H507 H 0.15559 0.58617 0.35851 0.0
H508 H 0.11877 0.45544 0.31255 0.0
H509 H 0.1628 0.59 0.27227 0.0
C510 C 0.1634 0.56445 0.23434 0.0
C511 C 0.15844 0.52983 0.22123 0.0
C512 C 0.12703 0.48421 0.32257 0.0
C513 C 0.14961 0.52663 0.27784 0.0
C514 C 0.12037 0.48175 0.35065 0.0
C515 C 0.13043 0.51835 0.36425 0.0
C516 C 0.14359 0.52346 0.30786 0.0
C517 C 0.14775 0.55729 0.34889 0.0
C518 C 0.15916 0.56305 0.26259 0.0
C519 C 0.14951 0.4943 0.23714 0.0
N520 N 0.1535 0.55872 0.3215 0.0
N521 N 0.14518 0.49351 0.26461 0.0
loop_
_geom_bond_atom_site_label_1
_geom_bond_atom_site_label_2
_geom_bond_distance
_geom_bond_site_symmetry_2
_ccdc_geom_bond_type
Ho0 C3 2.811 . S
Ho0 O20 2.322 . S
Ho0 O22 2.378 . S
Ho0 O23 2.524 . S
Ho0 O24 2.381 . S
Ho0 O25 2.669 1_455 S
Ho0 O27 2.346 1_455 S
Ho0 O31 2.305 . S
Ho1 C12 2.811 . S
Ho1 O21 2.346 1_655 S
Ho1 O25 2.305 . S
Ho1 O26 2.322 . S
Ho1 O28 2.378 . S
Ho1 O29 2.524 . S
Ho1 O30 2.381 . S
Ho1 O31 2.669 1_655 S
C2 O20 1.259 . S
C2 O21 1.268 . S
C3 Ho0 2.811 . S
C3 C4 1.488 . S
C3 O22 1.215 . S
C3 O23 1.289 . S
C4 C3 1.488 . S
C4 C5 1.348 . S
C4 C9 1.413 . S
C5 C4 1.348 . S
C5 C6 1.442 . S
C5 H32 0.930 . S
C6 C5 1.442 . S
C6 C7 1.381 . S
C6 H33 0.931 . S
C7 C6 1.381 . S
C7 C8 1.321 . S
C8 C7 1.321 . S
C8 C9 1.403 . S
C8 H34 0.934 . S
C9 C4 1.413 . S
C9 C8 1.403 . S
C9 H35 0.930 . S
C10 O24 1.275 . S
C10 O25 1.256 1_455 S
C11 O26 1.259 . S
C11 O27 1.268 . S
C12 Ho1 2.811 . S
C12 C13 1.488 . S
C12 O28 1.215 . S
C12 O29 1.289 . S
C13 C12 1.488 . S
C13 C14 1.348 . S
C13 C18 1.413 . S
C14 C13 1.348 . S
C14 C15 1.442 . S
C14 H36 0.930 . S
C15 C14 1.442 . S
C15 C16 1.381 . S
C15 H37 0.931 . S
C16 C15 1.381 . S
C16 C17 1.321 . S
C17 C16 1.321 . S
C17 C18 1.403 . S
C17 H38 0.934 . S
C18 C13 1.413 . S
C18 C17 1.403 . S
C18 H39 0.930 . S
C19 O30 1.275 1_455 S
C19 O31 1.256 . S
O20 Ho0 2.322 . S
O20 C2 1.259 . S
O21 Ho1 2.346 1_455 S
O21 C2 1.268 . S
O22 Ho0 2.378 . S
O22 C3 1.215 . S
O23 Ho0 2.524 . S
O23 C3 1.289 . S
O24 Ho0 2.381 . S
O24 C10 1.275 . S
O25 Ho0 2.669 1_655 S
O25 Ho1 2.305 . S
O25 C10 1.256 1_655 S
O26 Ho1 2.322 . S
O26 C11 1.259 . S
O27 Ho0 2.346 1_655 S
O27 C11 1.268 . S
O28 Ho1 2.378 . S
O28 C12 1.215 . S
O29 Ho1 2.524 . S
O29 C12 1.289 . S
O30 Ho1 2.381 . S
O30 C19 1.275 1_655 S
O31 Ho0 2.305 . S
O31 Ho1 2.669 1_455 S
O31 C19 1.256 . S
H32 C5 0.930 . S
H33 C6 0.931 . S
H34 C8 0.934 . S
H35 C9 0.930 . S
H36 C14 0.930 . S
H37 C15 0.931 . S
H38 C17 0.934 . S
H39 C18 0.930 . S
Ho40 C43 2.794 1_545 S
Ho40 O60 2.319 1_545 S
Ho40 O62 2.361 1_545 S
Ho40 O63 2.510 1_545 S
Ho40 O64 2.383 . S
Ho40 O65 2.683 . S
Ho40 O67 2.360 . S
Ho40 O71 2.314 . S
Ho41 C52 2.811 . S
Ho41 O61 2.346 1_545 S
Ho41 O65 2.305 . S
Ho41 O66 2.322 . S
Ho41 O68 2.378 . S
Ho41 O69 2.524 . S
Ho41 O70 2.381 . S
Ho41 O71 2.669 . S
C42 O60 1.259 . S
C42 O61 1.268 . S
C43 Ho40 2.794 1_565 S
C43 C44 1.488 . S
C43 O62 1.215 . S
C43 O63 1.289 . S
C44 C43 1.488 . S
C44 C45 1.348 . S
C44 C49 1.413 . S
C45 C44 1.348 . S
C45 C46 1.442 . S
C45 H72 0.930 . S
C46 C45 1.442 . S
C46 C47 1.381 . S
C46 H73 0.931 . S
C47 C46 1.381 . S
C47 C48 1.321 . S
C48 C47 1.321 . S
C48 C49 1.403 . S
C48 H74 0.934 . S
C49 C44 1.413 . S
C49 C48 1.403 . S
C49 H75 0.930 . S
C50 O64 1.275 . S
C50 O65 1.256 . S
C51 O66 1.259 . S
C51 O67 1.268 . S
C52 Ho41 2.811 . S
C52 C53 1.488 . S
C52 O68 1.215 . S
C52 O69 1.289 . S
C53 C52 1.488 . S
C53 C54 1.348 . S
C53 C58 1.413 . S
C54 C53 1.348 . S
C54 C55 1.442 . S
C54 H76 0.930 . S
C55 C54 1.442 . S
C55 C56 1.381 . S
C55 H77 0.931 . S
C56 C55 1.381 . S
C56 C57 1.321 . S
C57 C56 1.321 . S
C57 C58 1.403 . S
C57 H78 0.934 . S
C58 C53 1.413 . S
C58 C57 1.403 . S
C58 H79 0.930 . S
C59 O70 1.275 . S
C59 O71 1.256 . S
O60 Ho40 2.319 1_565 S
O60 C42 1.259 . S
O61 Ho41 2.346 1_565 S
O61 C42 1.268 . S
O62 Ho40 2.361 1_565 S
O62 C43 1.215 . S
O63 Ho40 2.510 1_565 S
O63 C43 1.289 . S
O64 Ho40 2.383 . S
O64 C50 1.275 . S
O65 Ho40 2.683 . S
O65 Ho41 2.305 . S
O65 C50 1.256 . S
O66 Ho41 2.322 . S
O66 C51 1.259 . S
O67 Ho40 2.360 . S
O67 C51 1.268 . S
O68 Ho41 2.378 . S
O68 C52 1.215 . S
O69 Ho41 2.524 . S
O69 C52 1.289 . S
O70 Ho41 2.381 . S
O70 C59 1.275 . S
O71 Ho40 2.314 . S
O71 Ho41 2.669 . S
O71 C59 1.256 . S
H72 C45 0.930 . S
H73 C46 0.931 . S
H74 C48 0.934 . S
H75 C49 0.930 . S
H76 C54 0.930 . S
H77 C55 0.931 . S
H78 C57 0.934 . S
H79 C58 0.930 . S
Ho80 C83 2.811 . S
Ho80 O100 2.322 . S
Ho80 O102 2.378 . S
Ho80 O103 2.524 . S
Ho80 O104 2.381 . S
Ho80 O105 2.669 . S
Ho80 O107 2.346 . S
Ho80 O111 2.305 . S
Ho81 C92 2.811 . S
Ho81 O101 2.346 . S
Ho81 O105 2.305 . S
Ho81 O106 2.322 . S
Ho81 O108 2.378 . S
Ho81 O109 2.524 . S
Ho81 O110 2.381 . S
Ho81 O111 2.669 . S
C82 O100 1.259 . S
C82 O101 1.268 . S
C83 Ho80 2.811 . S
C83 C84 1.488 . S
C83 O102 1.215 . S
C83 O103 1.289 . S
C84 C83 1.488 . S
C84 C85 1.348 . S
C84 C89 1.413 . S
C85 C84 1.348 . S
C85 C86 1.442 . S
C85 H112 0.930 . S
C86 C85 1.442 . S
C86 C87 1.381 . S
C86 H113 0.931 . S
C87 C86 1.381 . S
C87 C88 1.321 . S
C88 C87 1.321 . S
C88 C89 1.403 . S
C88 H114 0.934 . S
C89 C84 1.413 . S
C89 C88 1.403 . S
C89 H115 0.930 . S
C90 O104 1.275 . S
C90 O105 1.256 . S
C91 O106 1.259 . S
C91 O107 1.268 . S
C92 Ho81 2.811 . S
C92 C93 1.488 . S
C92 O108 1.215 . S
C92 O109 1.289 . S
C93 C92 1.488 . S
C93 C94 1.348 . S
C93 C98 1.413 . S
C94 C93 1.348 . S
C94 C95 1.442 . S
C94 H116 0.930 . S
C95 C94 1.442 . S
C95 C96 1.381 . S
C95 H117 0.931 . S
C96 C95 1.381 . S
C96 C97 1.321 . S
C97 C96 1.321 . S
C97 C98 1.403 . S
C97 H118 0.934 . S
C98 C93 1.413 . S
C98 C97 1.403 . S
C98 H119 0.930 . S
C99 O110 1.275 . S
C99 O111 1.256 . S
O100 Ho80 2.322 . S
O100 C82 1.259 . S
O101 Ho81 2.346 . S
O101 C82 1.268 . S
O102 Ho80 2.378 . S
O102 C83 1.215 . S
O103 Ho80 2.524 . S
O103 C83 1.289 . S
O104 Ho80 2.381 . S
O104 C90 1.275 . S
O105 Ho80 2.669 . S
O105 Ho81 2.305 . S
O105 C90 1.256 . S
O106 Ho81 2.322 . S
O106 C91 1.259 . S
O107 Ho80 2.346 . S
O107 C91 1.268 . S
O108 Ho81 2.378 . S
O108 C92 1.215 . S
O109 Ho81 2.524 . S
O109 C92 1.289 . S
O110 Ho81 2.381 . S
O110 C99 1.275 . S
O111 Ho80 2.305 . S
O111 Ho81 2.669 . S
O111 C99 1.256 . S
H112 C85 0.930 . S
H113 C86 0.931 . S
H114 C88 0.934 . S
H115 C89 0.930 . S
H116 C94 0.930 . S
H117 C95 0.931 . S
H118 C97 0.934 . S
H119 C98 0.930 . S
H120 C127 0.929 . S
H121 C130 0.930 . S
H122 C132 0.929 . S
H123 C124 0.969 . S
C124 H123 0.969 . S
C124 O125 1.550 . S
C124 H126 0.973 . S
O125 C124 1.550 . S
O125 C131 1.412 . S
H126 C124 0.973 . S
C127 H120 0.929 . S
C127 C128 1.400 . S
C127 C129 1.364 . S
C128 C127 1.400 . S
C128 C132 1.377 . S
C129 C127 1.364 . S
C129 C130 1.374 1_545 S
C130 H121 0.930 . S
C130 C129 1.374 1_565 S
C130 C131 1.383 . S
C131 O125 1.412 . S
C131 C130 1.383 . S
C131 C132 1.394 1_565 S
C132 H122 0.929 . S
C132 C128 1.377 . S
C132 C131 1.394 1_545 S
H133 C140 0.929 . S
H134 C143 0.930 . S
H135 C145 0.929 . S
H136 C137 0.969 . S
C137 H136 0.969 . S
C137 O138 1.550 . S
C137 H139 0.973 . S
O138 C137 1.550 . S
O138 C144 1.412 . S
H139 C137 0.973 . S
C140 H133 0.929 . S
C140 C141 1.400 . S
C140 C142 1.364 . S
C141 C140 1.400 . S
C141 C145 1.377 . S
C142 C140 1.364 . S
C142 C143 1.374 . S
C143 H134 0.930 . S
C143 C142 1.374 . S
C143 C144 1.383 . S
C144 O138 1.412 . S
C144 C143 1.383 . S
C144 C145 1.394 . S
C145 H135 0.929 . S
C145 C141 1.377 . S
C145 C144 1.394 . S
H146 C153 0.929 . S
H147 C156 0.930 . S
H148 C158 0.929 . S
H149 C150 0.969 . S
C150 H149 0.969 . S
C150 O151 1.550 . S
C150 H152 0.973 . S
O151 C150 1.550 . S
O151 C157 1.412 . S
H152 C150 0.973 . S
C153 H146 0.929 . S
C153 C154 1.400 . S
C153 C155 1.364 . S
C154 C153 1.400 . S
C154 C158 1.377 . S
C155 C153 1.364 . S
C155 C156 1.374 . S
C156 H147 0.930 . S
C156 C155 1.374 . S
C156 C157 1.383 . S
C157 O151 1.412 . S
C157 C156 1.383 . S
C157 C158 1.394 . S
C158 H148 0.929 . S
C158 C154 1.377 . S
C158 C157 1.394 . S
H159 C166 0.929 . S
H160 C169 0.930 . S
H161 C171 0.929 . S
H162 C163 0.969 . S
C163 H162 0.969 . S
C163 O164 1.550 . S
C163 H165 0.973 . S
O164 C163 1.550 . S
O164 C170 1.412 . S
H165 C163 0.973 . S
C166 H159 0.929 . S
C166 C167 1.400 . S
C166 C168 1.364 1_655 S
C167 C166 1.400 . S
C167 C171 1.377 1_655 S
C168 C166 1.364 1_455 S
C168 C169 1.374 . S
C169 H160 0.930 . S
C169 C168 1.374 . S
C169 C170 1.383 . S
C170 O164 1.412 . S
C170 C169 1.383 . S
C170 C171 1.394 . S
C171 H161 0.929 . S
C171 C167 1.377 1_455 S
C171 C170 1.394 . S
H172 C179 0.929 . S
H173 C182 0.930 . S
H174 C184 0.929 . S
H175 C176 0.969 . S
C176 H175 0.969 . S
C176 O177 1.550 . S
C176 H178 0.973 . S
O177 C176 1.550 . S
O177 C183 1.412 . S
H178 C176 0.973 . S
C179 H172 0.929 . S
C179 C180 1.400 . S
C179 C181 1.364 1_565 S
C180 C179 1.400 . S
C180 C184 1.377 1_565 S
C181 C179 1.364 1_545 S
C181 C182 1.374 . S
C182 H173 0.930 . S
C182 C181 1.374 . S
C182 C183 1.383 . S
C183 O177 1.412 . S
C183 C182 1.383 . S
C183 C184 1.394 . S
C184 H174 0.929 . S
C184 C180 1.377 1_545 S
C184 C183 1.394 . S
H185 C192 0.929 . S
H186 C195 0.930 . S
H187 C197 0.929 . S
H188 C189 0.969 . S
C189 H188 0.969 . S
C189 O190 1.550 . S
C189 H191 0.973 . S
O190 C189 1.550 . S
O190 C196 1.412 . S
H191 C189 0.973 . S
C192 H185 0.929 . S
C192 C193 1.400 . S
C192 C194 1.364 . S
C193 C192 1.400 . S
C193 C197 1.377 . S
C194 C192 1.364 . S
C194 C195 1.374 . S
C195 H186 0.930 . S
C195 C194 1.374 . S
C195 C196 1.383 . S
C196 O190 1.412 . S
C196 C195 1.383 . S
C196 C197 1.394 . S
C197 H187 0.929 . S
C197 C193 1.377 . S
C197 C196 1.394 . S
H198 C204 0.930 . S
H199 C208 0.930 . S
H200 C213 0.929 . S
H201 C211 0.929 . S
H202 C206 0.929 . S
H203 C212 0.929 . S
C204 H198 0.930 . S
C204 C205 1.367 . S
C204 C212 1.378 . S
C205 C204 1.367 . S
C205 C213 1.433 . S
C206 H202 0.929 . S
C206 C208 1.378 . S
C206 C210 1.350 . S
C207 C210 1.463 . S
C207 C212 1.350 . S
C207 N215 1.427 . S
C208 H199 0.930 . S
C208 C206 1.378 . S
C208 C209 1.367 . S
C209 C208 1.367 . S
C209 C211 1.433 . S
C210 C206 1.350 . S
C210 C207 1.463 . S
C210 N214 1.427 . S
C211 H201 0.929 . S
C211 C209 1.433 . S
C211 N214 1.384 . S
C212 H203 0.929 . S
C212 C204 1.378 . S
C212 C207 1.350 . S
C213 H200 0.929 . S
C213 C205 1.433 . S
C213 N215 1.384 . S
N214 C210 1.427 . S
N214 C211 1.384 . S
N215 C207 1.427 . S
N215 C213 1.384 . S
H216 C222 0.930 . S
H217 C226 0.930 . S
H218 C231 0.929 . S
H219 C229 0.929 . S
H220 C224 0.929 . S
H221 C230 0.929 . S
C222 H216 0.930 . S
C222 C223 1.367 . S
C222 C230 1.378 . S
C223 C222 1.367 . S
C223 C231 1.433 . S
C224 H220 0.929 . S
C224 C226 1.378 . S
C224 C228 1.350 . S
C225 C228 1.463 . S
C225 C230 1.350 . S
C225 N233 1.427 . S
C226 H217 0.930 . S
C226 C224 1.378 . S
C226 C227 1.367 . S
C227 C226 1.367 . S
C227 C229 1.433 . S
C228 C224 1.350 . S
C228 C225 1.463 . S
C228 N232 1.427 . S
C229 H219 0.929 . S
C229 C227 1.433 . S
C229 N232 1.384 . S
C230 H221 0.929 . S
C230 C222 1.378 . S
C230 C225 1.350 . S
C231 H218 0.929 . S
C231 C223 1.433 . S
C231 N233 1.384 . S
N232 C228 1.427 . S
N232 C229 1.384 . S
N233 C225 1.427 . S
N233 C231 1.384 . S
H234 C240 0.930 . S
H235 C244 0.930 . S
H236 C249 0.929 . S
H237 C247 0.933 . S
H238 C242 0.929 . S
H239 C248 0.929 . S
C240 H234 0.930 . S
C240 C241 1.367 . S
C240 C248 1.378 . S
C241 C240 1.367 . S
C241 C249 1.433 . S
C242 H238 0.929 . S
C242 C244 1.378 . S
C242 C246 1.350 . S
C243 C246 1.463 . S
C243 C248 1.350 . S
C243 N251 1.427 . S
C244 H235 0.930 . S
C244 C242 1.378 . S
C244 C245 1.367 . S
C245 C244 1.367 . S
C245 C247 1.433 . S
C246 C242 1.350 . S
C246 C243 1.463 . S
C246 N250 1.427 . S
C247 H237 0.933 . S
C247 C245 1.433 . S
C247 N250 1.384 . S
C248 H239 0.929 . S
C248 C240 1.378 . S
C248 C243 1.350 . S
C249 H236 0.929 . S
C249 C241 1.433 . S
C249 N251 1.384 . S
N250 C246 1.427 . S
N250 C247 1.384 . S
N251 C243 1.427 . S
N251 C249 1.384 . S
H252 C258 0.930 . S
H253 C262 0.930 . S
H254 C267 0.929 . S
H255 C265 0.929 . S
H256 C260 0.929 . S
H257 C266 0.929 . S
C258 H252 0.930 . S
C258 C259 1.367 . S
C258 C266 1.378 . S
C259 C258 1.367 . S
C259 C267 1.433 . S
C260 H256 0.929 . S
C260 C262 1.378 . S
C260 C264 1.350 . S
C261 C264 1.463 . S
C261 C266 1.350 . S
C261 N269 1.427 . S
C262 H253 0.930 . S
C262 C260 1.378 . S
C262 C263 1.367 . S
C263 C262 1.367 . S
C263 C265 1.433 . S
C264 C260 1.350 . S
C264 C261 1.463 . S
C264 N268 1.427 . S
C265 H255 0.929 . S
C265 C263 1.433 . S
C265 N268 1.384 . S
C266 H257 0.929 . S
C266 C258 1.378 . S
C266 C261 1.350 . S
C267 H254 0.929 . S
C267 C259 1.433 . S
C267 N269 1.384 . S
N268 C264 1.427 . S
N268 C265 1.384 . S
N269 C261 1.427 . S
N269 C267 1.384 . S
H270 C276 0.930 . S
H271 C280 0.930 . S
H272 C285 0.929 . S
H273 C283 0.929 . S
H274 C278 0.929 . S
H275 C284 0.929 . S
C276 H270 0.930 . S
C276 C277 1.367 . S
C276 C284 1.378 . S
C277 C276 1.367 . S
C277 C285 1.433 . S
C278 H274 0.929 . S
C278 C280 1.378 . S
C278 C282 1.350 . S
C279 C282 1.463 . S
C279 C284 1.350 . S
C279 N287 1.427 . S
C280 H271 0.930 . S
C280 C278 1.378 . S
C280 C281 1.367 . S
C281 C280 1.367 . S
C281 C283 1.433 . S
C282 C278 1.350 . S
C282 C279 1.463 . S
C282 N286 1.427 . S
C283 H273 0.929 . S
C283 C281 1.433 . S
C283 N286 1.384 . S
C284 H275 0.929 . S
C284 C276 1.378 . S
C284 C279 1.350 . S
C285 H272 0.929 . S
C285 C277 1.433 . S
C285 N287 1.384 . S
N286 C282 1.427 . S
N286 C283 1.384 . S
N287 C279 1.427 . S
N287 C285 1.384 . S
H288 C294 0.930 . S
H289 C298 0.930 . S
H290 C303 0.929 . S
H291 C301 0.929 . S
H292 C296 0.929 . S
H293 C302 0.929 . S
C294 H288 0.930 . S
C294 C295 1.367 . S
C294 C302 1.378 . S
C295 C294 1.367 . S
C295 C303 1.433 . S
C296 H292 0.929 . S
C296 C298 1.378 . S
C296 C300 1.350 . S
C297 C300 1.463 . S
C297 C302 1.350 . S
C297 N305 1.427 . S
C298 H289 0.930 . S
C298 C296 1.378 . S
C298 C299 1.367 . S
C299 C298 1.367 . S
C299 C301 1.433 . S
C300 C296 1.350 . S
C300 C297 1.463 . S
C300 N304 1.427 . S
C301 H291 0.929 . S
C301 C299 1.433 . S
C301 N304 1.384 . S
C302 H293 0.929 . S
C302 C294 1.378 . S
C302 C297 1.350 . S
C303 H290 0.929 . S
C303 C295 1.433 . S
C303 N305 1.384 . S
N304 C300 1.427 . S
N304 C301 1.384 . S
N305 C297 1.427 . S
N305 C303 1.384 . S
H306 C312 0.930 . S
H307 C316 0.930 . S
H308 C321 0.929 . S
H309 C319 0.929 . S
H310 C314 0.929 . S
H311 C320 0.929 . S
C312 H306 0.930 . S
C312 C313 1.367 . S
C312 C320 1.378 . S
C313 C312 1.367 . S
C313 C321 1.433 . S
C314 H310 0.929 . S
C314 C316 1.378 . S
C314 C318 1.350 . S
C315 C318 1.463 . S
C315 C320 1.350 . S
C315 N323 1.427 . S
C316 H307 0.930 . S
C316 C314 1.378 . S
C316 C317 1.367 . S
C317 C316 1.367 . S
C317 C319 1.433 . S
C318 C314 1.350 . S
C318 C315 1.463 . S
C318 N322 1.427 . S
C319 H309 0.929 . S
C319 C317 1.433 . S
C319 N322 1.384 . S
C320 H311 0.929 . S
C320 C312 1.378 . S
C320 C315 1.350 . S
C321 H308 0.929 . S
C321 C313 1.433 . S
C321 N323 1.384 . S
N322 C318 1.427 . S
N322 C319 1.384 . S
N323 C315 1.427 . S
N323 C321 1.384 . S
H324 C330 0.930 . S
H325 C334 0.930 1_455 S
H326 C339 0.929 . S
H327 C337 0.929 . S
H328 C332 0.929 . S
H329 C338 0.929 . S
C330 H324 0.930 . S
C330 C331 1.367 . S
C330 C338 1.378 . S
C331 C330 1.367 . S
C331 C339 1.433 . S
C332 H328 0.929 . S
C332 C334 1.378 . S
C332 C336 1.350 . S
C333 C336 1.463 . S
C333 C338 1.350 . S
C333 N341 1.427 . S
C334 H325 0.930 1_655 S
C334 C332 1.378 . S
C334 C335 1.367 . S
C335 C334 1.367 . S
C335 C337 1.433 . S
C336 C332 1.350 . S
C336 C333 1.463 . S
C336 N340 1.427 . S
C337 H327 0.929 . S
C337 C335 1.433 . S
C337 N340 1.384 . S
C338 H329 0.929 . S
C338 C330 1.378 . S
C338 C333 1.350 . S
C339 H326 0.929 . S
C339 C331 1.433 . S
C339 N341 1.384 . S
N340 C336 1.427 . S
N340 C337 1.384 . S
N341 C333 1.427 . S
N341 C339 1.384 . S
H342 C348 0.930 . S
H343 C352 0.930 . S
H344 C357 0.929 . S
H345 C355 0.929 . S
H346 C350 0.929 . S
H347 C356 0.929 . S
C348 H342 0.930 . S
C348 C349 1.367 . S
C348 C356 1.378 . S
C349 C348 1.367 . S
C349 C357 1.433 . S
C350 H346 0.929 . S
C350 C352 1.378 . S
C350 C354 1.350 . S
C351 C354 1.463 . S
C351 C356 1.350 . S
C351 N359 1.427 . S
C352 H343 0.930 . S
C352 C350 1.378 . S
C352 C353 1.367 . S
C353 C352 1.367 . S
C353 C355 1.433 . S
C354 C350 1.350 . S
C354 C351 1.463 . S
C354 N358 1.427 . S
C355 H345 0.929 . S
C355 C353 1.433 . S
C355 N358 1.384 . S
C356 H347 0.929 . S
C356 C348 1.378 . S
C356 C351 1.350 . S
C357 H344 0.929 . S
C357 C349 1.433 . S
C357 N359 1.384 . S
N358 C354 1.427 . S
N358 C355 1.384 . S
N359 C351 1.427 . S
N359 C357 1.384 . S
H360 C366 0.930 . S
H361 C370 0.930 . S
H362 C375 0.929 . S
H363 C373 0.929 . S
H364 C368 0.929 . S
H365 C374 0.929 . S
C366 H360 0.930 . S
C366 C367 1.367 . S
C366 C374 1.378 . S
C367 C366 1.367 . S
C367 C375 1.433 . S
C368 H364 0.929 . S
C368 C370 1.378 . S
C368 C372 1.350 . S
C369 C372 1.463 . S
C369 C374 1.350 . S
C369 N377 1.427 . S
C370 H361 0.930 . S
C370 C368 1.378 . S
C370 C371 1.367 . S
C371 C370 1.367 . S
C371 C373 1.433 . S
C372 C368 1.350 . S
C372 C369 1.463 . S
C372 N376 1.427 . S
C373 H363 0.929 . S
C373 C371 1.433 . S
C373 N376 1.384 . S
C374 H365 0.929 . S
C374 C366 1.378 . S
C374 C369 1.350 . S
C375 H362 0.929 . S
C375 C367 1.433 . S
C375 N377 1.384 . S
N376 C372 1.427 . S
N376 C373 1.384 . S
N377 C369 1.427 . S
N377 C375 1.384 . S
H378 C384 0.930 . S
H379 C388 0.930 . S
H380 C393 0.929 . S
H381 C391 0.929 . S
H382 C386 0.929 . S
H383 C392 0.929 . S
C384 H378 0.930 . S
C384 C385 1.367 . S
C384 C392 1.378 . S
C385 C384 1.367 . S
C385 C393 1.433 . S
C386 H382 0.929 . S
C386 C388 1.378 . S
C386 C390 1.350 . S
C387 C390 1.463 . S
C387 C392 1.350 . S
C387 N395 1.427 . S
C388 H379 0.930 . S
C388 C386 1.378 . S
C388 C389 1.367 . S
C389 C388 1.367 . S
C389 C391 1.433 . S
C390 C386 1.350 . S
C390 C387 1.463 . S
C390 N394 1.427 . S
C391 H381 0.929 . S
C391 C389 1.433 . S
C391 N394 1.384 . S
C392 H383 0.929 . S
C392 C384 1.378 . S
C392 C387 1.350 . S
C393 H380 0.929 . S
C393 C385 1.433 . S
C393 N395 1.384 . S
N394 C390 1.427 . S
N394 C391 1.384 . S
N395 C387 1.427 . S
N395 C393 1.384 . S
H396 C402 0.930 . S
H397 C406 0.930 . S
H398 C411 0.929 . S
H399 C409 0.929 . S
H400 C404 0.929 . S
H401 C410 0.929 . S
C402 H396 0.930 . S
C402 C403 1.367 . S
C402 C410 1.378 . S
C403 C402 1.367 . S
C403 C411 1.433 . S
C404 H400 0.929 . S
C404 C406 1.378 . S
C404 C408 1.350 . S
C405 C408 1.463 . S
C405 C410 1.350 . S
C405 N413 1.427 . S
C406 H397 0.930 . S
C406 C404 1.378 . S
C406 C407 1.367 . S
C407 C406 1.367 . S
C407 C409 1.433 . S
C408 C404 1.350 . S
C408 C405 1.463 . S
C408 N412 1.427 . S
C409 H399 0.929 . S
C409 C407 1.433 . S
C409 N412 1.384 . S
C410 H401 0.929 . S
C410 C402 1.378 . S
C410 C405 1.350 . S
C411 H398 0.929 . S
C411 C403 1.433 . S
C411 N413 1.384 . S
N412 C408 1.427 . S
N412 C409 1.384 . S
N413 C405 1.427 . S
N413 C411 1.384 . S
H414 C420 0.930 . S
H415 C424 0.930 1_655 S
H416 C429 0.929 . S
H417 C427 0.929 . S
H418 C422 0.929 1_655 S
H419 C428 0.929 . S
C420 H414 0.930 . S
C420 C421 1.367 . S
C420 C428 1.378 . S
C421 C420 1.367 . S
C421 C429 1.433 1_455 S
C422 H418 0.929 1_455 S
C422 C424 1.378 . S
C422 C426 1.350 . S
C423 C426 1.463 1_554 S
C423 C428 1.350 . S
C423 N431 1.427 1_455 S
C424 H415 0.930 1_455 S
C424 C422 1.378 . S
C424 C425 1.367 . S
C425 C424 1.367 . S
C425 C427 1.433 . S
C426 C422 1.350 . S
C426 C423 1.463 1_556 S
C426 N430 1.427 . S
C427 H417 0.929 . S
C427 C425 1.433 . S
C427 N430 1.384 . S
C428 H419 0.929 . S
C428 C420 1.378 . S
C428 C423 1.350 . S
C429 H416 0.929 . S
C429 C421 1.433 1_655 S
C429 N431 1.384 . S
N430 C426 1.427 . S
N430 C427 1.384 . S
N431 C423 1.427 1_655 S
N431 C429 1.384 . S
H432 C438 0.930 . S
H433 C442 0.930 . S
H434 C447 0.929 . S
H435 C445 0.929 . S
H436 C440 0.929 . S
H437 C446 0.929 . S
C438 H432 0.930 . S
C438 C439 1.367 1_565 S
C438 C446 1.378 . S
C439 C438 1.367 1_545 S
C439 C447 1.433 . S
C440 H436 0.929 . S
C440 C442 1.378 . S
C440 C444 1.350 . S
C441 C444 1.463 . S
C441 C446 1.350 1_545 S
C441 N449 1.427 . S
C442 H433 0.930 . S
C442 C440 1.378 . S
C442 C443 1.367 . S
C443 C442 1.367 . S
C443 C445 1.433 1_545 S
C444 C440 1.350 . S
C444 C441 1.463 . S
C444 N448 1.427 1_545 S
C445 H435 0.929 . S
C445 C443 1.433 1_565 S
C445 N448 1.384 . S
C446 H437 0.929 . S
C446 C438 1.378 . S
C446 C441 1.350 1_565 S
C447 H434 0.929 . S
C447 C439 1.433 . S
C447 N449 1.384 . S
N448 C444 1.427 1_565 S
N448 C445 1.384 . S
N449 C441 1.427 . S
N449 C447 1.384 . S
H450 C456 0.930 . S
H451 C460 0.930 . S
H452 C465 0.929 . S
H453 C463 0.929 . S
H454 C458 0.929 . S
H455 C464 0.929 . S
C456 H450 0.930 . S
C456 C457 1.367 . S
C456 C464 1.378 . S
C457 C456 1.367 . S
C457 C465 1.433 . S
C458 H454 0.929 . S
C458 C460 1.378 . S
C458 C462 1.350 . S
C459 C462 1.463 . S
C459 C464 1.350 . S
C459 N467 1.427 . S
C460 H451 0.930 . S
C460 C458 1.378 . S
C460 C461 1.367 . S
C461 C460 1.367 . S
C461 C463 1.433 . S
C462 C458 1.350 . S
C462 C459 1.463 . S
C462 N466 1.427 . S
C463 H453 0.929 . S
C463 C461 1.433 . S
C463 N466 1.384 . S
C464 H455 0.929 . S
C464 C456 1.378 . S
C464 C459 1.350 . S
C465 H452 0.929 . S
C465 C457 1.433 . S
C465 N467 1.384 . S
N466 C462 1.427 . S
N466 C463 1.384 . S
N467 C459 1.427 . S
N467 C465 1.384 . S
H468 C474 0.930 . S
H469 C478 0.930 . S
H470 C483 0.929 . S
H471 C481 0.929 . S
H472 C476 0.929 . S
H473 C482 0.929 . S
C474 H468 0.930 . S
C474 C475 1.367 1_565 S
C474 C482 1.378 . S
C475 C474 1.367 1_545 S
C475 C483 1.433 . S
C476 H472 0.929 . S
C476 C478 1.378 . S
C476 C480 1.350 . S
C477 C480 1.463 . S
C477 C482 1.350 1_545 S
C477 N485 1.427 . S
C478 H469 0.930 . S
C478 C476 1.378 . S
C478 C479 1.367 . S
C479 C478 1.367 . S
C479 C481 1.433 1_545 S
C480 C476 1.350 . S
C480 C477 1.463 . S
C480 N484 1.427 1_545 S
C481 H471 0.929 . S
C481 C479 1.433 1_565 S
C481 N484 1.384 . S
C482 H473 0.929 . S
C482 C474 1.378 . S
C482 C477 1.350 1_565 S
C483 H470 0.929 . S
C483 C475 1.433 . S
C483 N485 1.384 . S
N484 C480 1.427 1_565 S
N484 C481 1.384 . S
N485 C477 1.427 . S
N485 C483 1.384 . S
H486 C492 0.930 . S
H487 C496 0.930 . S
H488 C501 0.929 . S
H489 C499 0.929 . S
H490 C494 0.929 . S
H491 C500 0.929 . S
C492 H486 0.930 . S
C492 C493 1.367 . S
C492 C500 1.378 . S
C493 C492 1.367 . S
C493 C501 1.433 . S
C494 H490 0.929 . S
C494 C496 1.378 . S
C494 C498 1.350 1_554 S
C495 C498 1.463 . S
C495 C500 1.350 . S
C495 N503 1.427 . S
C496 H487 0.930 . S
C496 C494 1.378 . S
C496 C497 1.367 . S
C497 C496 1.367 . S
C497 C499 1.433 . S
C498 C494 1.350 1_556 S
C498 C495 1.463 . S
C498 N502 1.427 . S
C499 H489 0.929 . S
C499 C497 1.433 . S
C499 N502 1.384 1_554 S
C500 H491 0.929 . S
C500 C492 1.378 . S
C500 C495 1.350 . S
C501 H488 0.929 . S
C501 C493 1.433 . S
C501 N503 1.384 . S
N502 C498 1.427 . S
N502 C499 1.384 1_556 S
N503 C495 1.427 . S
N503 C501 1.384 . S
H504 C510 0.930 . S
H505 C514 0.930 . S
H506 C519 0.929 . S
H507 C517 0.929 . S
H508 C512 0.929 1_655 S
H509 C518 0.929 . S
C510 H504 0.930 . S
C510 C511 1.378 1_455 S
C510 C518 1.378 . S
C511 C510 1.378 1_655 S
C511 C519 1.422 . S
C512 H508 0.929 1_455 S
C512 C514 1.378 . S
C512 C516 1.350 . S
C513 C516 1.463 . S
C513 C518 1.350 . S
C513 N521 1.427 1_455 S
C514 H505 0.930 . S
C514 C512 1.378 . S
C514 C515 1.367 . S
C515 C514 1.367 . S
C515 C517 1.433 . S
C516 C512 1.350 . S
C516 C513 1.463 . S
C516 N520 1.427 . S
C517 H507 0.929 . S
C517 C515 1.433 . S
C517 N520 1.384 . S
C518 H509 0.929 . S
C518 C510 1.378 . S
C518 C513 1.350 . S
C519 H506 0.929 . S
C519 C511 1.422 . S
C519 N521 1.384 . S
N520 C516 1.427 . S
N520 C517 1.384 . S
N521 C513 1.427 1_655 S
N521 C519 1.384 . S
C205 C7 0.654 . S
C209 C189 0.648 . S
C223 C51 1.833 . S
C227 C167 1.804 . S
C241 C87 1.187 . S
C245 C180 1.188 . S
C259 C16 0.443 . S
C263 C193 0.263 . S
C281 C163 1.870 . S
C277 C42 2.025 . S
C299 C176 1.284 . S
C295 C96 1.331 . S
C313 C47 1.096 . S
C317 C141 1.086 . S
C331 C91 3.039 . S
C335 C154 3.002 1_655 S
C349 C2 2.034 . S
C353 C124 1.884 . S
C371 C137 1.306 . S
C367 C56 1.363 . S
C389 C150 2.886 . S
C385 C82 3.064 . S
C403 C11 1.840 . S
C407 C128 1.825 . S
C425 C155 1.748 . S
C421 C19 1.709 . S
C439 C50 1.460 . S
C443 C129 1.489 . S
C457 C99 1.508 . S
C461 C142 1.602 . S
C479 C181 1.545 . S
C475 C59 1.482 . S
C497 C194 1.320 . S
C493 C90 1.318 . S
C511 C10 1.430 1_655 S
C515 C168 1.479 . S
