# Generated by pormake.
# Topology ctn, (3,4)-cn, num edge types: 1
# Building blocks:
#     Node 0, Type 0, BuildingBlock: BETDAH_clean_linker_0, # of connection points: 3
#     Node 1, Type 0, BuildingBlock: BETDAH_clean_linker_0, # of connection points: 3
#     Node 2, Type 0, BuildingBlock: BETDAH_clean_linker_0, # of connection points: 3
#     Node 3, Type 0, BuildingBlock: BETDAH_clean_linker_0, # of connection points: 3
#     Node 4, Type 0, BuildingBlock: BETDAH_clean_linker_0, # of connection points: 3
#     Node 5, Type 0, BuildingBlock: BETDAH_clean_linker_0, # of connection points: 3
#     Node 6, Type 0, BuildingBlock: BETDAH_clean_linker_0, # of connection points: 3
#     Node 7, Type 0, BuildingBlock: BETDAH_clean_linker_0, # of connection points: 3
#     Node 8, Type 0, BuildingBlock: BETDAH_clean_linker_0, # of connection points: 3
#     Node 9, Type 0, BuildingBlock: BETDAH_clean_linker_0, # of connection points: 3
#     Node 10, Type 0, BuildingBlock: BETDAH_clean_linker_0, # of connection points: 3
#     Node 11, Type 0, BuildingBlock: BETDAH_clean_linker_0, # of connection points: 3
#     Node 12, Type 0, BuildingBlock: BETDAH_clean_linker_0, # of connection points: 3
#     Node 13, Type 0, BuildingBlock: BETDAH_clean_linker_0, # of connection points: 3
#     Node 14, Type 0, BuildingBlock: BETDAH_clean_linker_0, # of connection points: 3
#     Node 15, Type 0, BuildingBlock: BETDAH_clean_linker_0, # of connection points: 3
#     Node 16, Type 1, BuildingBlock: TATPOV_clean_sbu_0, # of connection points: 4
#     Node 17, Type 1, BuildingBlock: TATPOV_clean_sbu_0, # of connection points: 4
#     Node 18, Type 1, BuildingBlock: TATPOV_clean_sbu_0, # of connection points: 4
#     Node 19, Type 1, BuildingBlock: TATPOV_clean_sbu_0, # of connection points: 4
#     Node 20, Type 1, BuildingBlock: TATPOV_clean_sbu_0, # of connection points: 4
#     Node 21, Type 1, BuildingBlock: TATPOV_clean_sbu_0, # of connection points: 4
#     Node 22, Type 1, BuildingBlock: TATPOV_clean_sbu_0, # of connection points: 4
#     Node 23, Type 1, BuildingBlock: TATPOV_clean_sbu_0, # of connection points: 4
#     Node 24, Type 1, BuildingBlock: TATPOV_clean_sbu_0, # of connection points: 4
#     Node 25, Type 1, BuildingBlock: TATPOV_clean_sbu_0, # of connection points: 4
#     Node 26, Type 1, BuildingBlock: TATPOV_clean_sbu_0, # of connection points: 4
#     Node 27, Type 1, BuildingBlock: TATPOV_clean_sbu_0, # of connection points: 4
#     Edge 28, Type (0, 1), BuildingBlock: TEMPAE_clean_linker_10, # of connection points: 2
#     Edge 29, Type (0, 1), BuildingBlock: TEMPAE_clean_linker_10, # of connection points: 2
#     Edge 30, Type (0, 1), BuildingBlock: TEMPAE_clean_linker_10, # of connection points: 2
#     Edge 31, Type (0, 1), BuildingBlock: TEMPAE_clean_linker_10, # of connection points: 2
#     Edge 32, Type (0, 1), BuildingBlock: TEMPAE_clean_linker_10, # of connection points: 2
#     Edge 33, Type (0, 1), BuildingBlock: TEMPAE_clean_linker_10, # of connection points: 2
#     Edge 34, Type (0, 1), BuildingBlock: TEMPAE_clean_linker_10, # of connection points: 2
#     Edge 35, Type (0, 1), BuildingBlock: TEMPAE_clean_linker_10, # of connection points: 2
#     Edge 36, Type (0, 1), BuildingBlock: TEMPAE_clean_linker_10, # of connection points: 2
#     Edge 37, Type (0, 1), BuildingBlock: TEMPAE_clean_linker_10, # of connection points: 2
#     Edge 38, Type (0, 1), BuildingBlock: TEMPAE_clean_linker_10, # of connection points: 2
#     Edge 39, Type (0, 1), BuildingBlock: TEMPAE_clean_linker_10, # of connection points: 2
#     Edge 40, Type (0, 1), BuildingBlock: TEMPAE_clean_linker_10, # of connection points: 2
#     Edge 41, Type (0, 1), BuildingBlock: TEMPAE_clean_linker_10, # of connection points: 2
#     Edge 42, Type (0, 1), BuildingBlock: TEMPAE_clean_linker_10, # of connection points: 2
#     Edge 43, Type (0, 1), BuildingBlock: TEMPAE_clean_linker_10, # of connection points: 2
#     Edge 44, Type (0, 1), BuildingBlock: TEMPAE_clean_linker_10, # of connection points: 2
#     Edge 45, Type (0, 1), BuildingBlock: TEMPAE_clean_linker_10, # of connection points: 2
#     Edge 46, Type (0, 1), BuildingBlock: TEMPAE_clean_linker_10, # of connection points: 2
#     Edge 47, Type (0, 1), BuildingBlock: TEMPAE_clean_linker_10, # of connection points: 2
#     Edge 48, Type (0, 1), BuildingBlock: TEMPAE_clean_linker_10, # of connection points: 2
#     Edge 49, Type (0, 1), BuildingBlock: TEMPAE_clean_linker_10, # of connection points: 2
#     Edge 50, Type (0, 1), BuildingBlock: TEMPAE_clean_linker_10, # of connection points: 2
#     Edge 51, Type (0, 1), BuildingBlock: TEMPAE_clean_linker_10, # of connection points: 2
#     Edge 52, Type (0, 1), BuildingBlock: TEMPAE_clean_linker_10, # of connection points: 2
#     Edge 53, Type (0, 1), BuildingBlock: TEMPAE_clean_linker_10, # of connection points: 2
#     Edge 54, Type (0, 1), BuildingBlock: TEMPAE_clean_linker_10, # of connection points: 2
#     Edge 55, Type (0, 1), BuildingBlock: TEMPAE_clean_linker_10, # of connection points: 2
#     Edge 56, Type (0, 1), BuildingBlock: TEMPAE_clean_linker_10, # of connection points: 2
#     Edge 57, Type (0, 1), BuildingBlock: TEMPAE_clean_linker_10, # of connection points: 2
#     Edge 58, Type (0, 1), BuildingBlock: TEMPAE_clean_linker_10, # of connection points: 2
#     Edge 59, Type (0, 1), BuildingBlock: TEMPAE_clean_linker_10, # of connection points: 2
#     Edge 60, Type (0, 1), BuildingBlock: TEMPAE_clean_linker_10, # of connection points: 2
#     Edge 61, Type (0, 1), BuildingBlock: TEMPAE_clean_linker_10, # of connection points: 2
#     Edge 62, Type (0, 1), BuildingBlock: TEMPAE_clean_linker_10, # of connection points: 2
#     Edge 63, Type (0, 1), BuildingBlock: TEMPAE_clean_linker_10, # of connection points: 2
#     Edge 64, Type (0, 1), BuildingBlock: TEMPAE_clean_linker_10, # of connection points: 2
#     Edge 65, Type (0, 1), BuildingBlock: TEMPAE_clean_linker_10, # of connection points: 2
#     Edge 66, Type (0, 1), BuildingBlock: TEMPAE_clean_linker_10, # of connection points: 2
#     Edge 67, Type (0, 1), BuildingBlock: TEMPAE_clean_linker_10, # of connection points: 2
#     Edge 68, Type (0, 1), BuildingBlock: TEMPAE_clean_linker_10, # of connection points: 2
#     Edge 69, Type (0, 1), BuildingBlock: TEMPAE_clean_linker_10, # of connection points: 2
#     Edge 70, Type (0, 1), BuildingBlock: TEMPAE_clean_linker_10, # of connection points: 2
#     Edge 71, Type (0, 1), BuildingBlock: TEMPAE_clean_linker_10, # of connection points: 2
#     Edge 72, Type (0, 1), BuildingBlock: TEMPAE_clean_linker_10, # of connection points: 2
#     Edge 73, Type (0, 1), BuildingBlock: TEMPAE_clean_linker_10, # of connection points: 2
#     Edge 74, Type (0, 1), BuildingBlock: TEMPAE_clean_linker_10, # of connection points: 2
#     Edge 75, Type (0, 1), BuildingBlock: TEMPAE_clean_linker_10, # of connection points: 2
# Relax obj value: 0.047
# Max RMSD: 0.164
# Mean RMSD: 0.097
data_MOF--net-ctn--node1-TATPOV_clean_sbu_0--node2-BETDAH_clean_linker_0--edge1-TEMPAE_clean_linker_10
_symmetry_space_group_name_H-M    P1
_symmetry_Int_Tables_number       1
_symmetry_cell_setting            triclinic
loop_
_symmetry_equiv_pos_as_xyz
'x, y, z'
_cell_length_a     54.245383
_cell_length_b     54.280283
_cell_length_c     55.001361
_cell_angle_alpha  99.91657
_cell_angle_beta   91.555353
_cell_angle_gamma 96.138883
loop_
_atom_site_label
_atom_site_type_symbol
_atom_site_fract_x
_atom_site_fract_y
_atom_site_fract_z
_atom_type_partial_charge
H0 H 0.05268 0.99331 0.09473 0.0
H1 H 0.06649 0.0286 0.03106 0.0
H2 H 0.00921 0.05114 0.07959 0.0
C3 C 0.04848 0.00692 0.08338 0.0
C4 C 0.02954 0.02221 0.0901 0.0
C5 C 0.06197 0.00896 0.06208 0.0
C6 C 0.05622 0.02671 0.04737 0.0
C7 C 0.03724 0.04204 0.05391 0.0
C8 C 0.02409 0.03954 0.07506 0.0
N9 N 0.03025 0.06002 0.03979 0.0
C10 C 0.04216 0.06742 0.01968 0.0
H11 H 0.30499 0.67727 0.25765 0.0
H12 H 0.34457 0.72844 0.21703 0.0
H13 H 0.26582 0.70927 0.20355 0.0
C14 C 0.30497 0.68965 0.24414 0.0
C15 C 0.28268 0.69175 0.23132 0.0
C16 C 0.32743 0.70255 0.23892 0.0
C17 C 0.32738 0.71805 0.22099 0.0
C18 C 0.30534 0.72094 0.20845 0.0
C19 C 0.28291 0.70752 0.21343 0.0
N20 N 0.30694 0.7374 0.19094 0.0
C21 C 0.28733 0.74515 0.17844 0.0
H22 H 0.053 0.4162 0.0478 0.0
H23 H 0.03789 0.49323 0.05203 0.0
H24 H 0.02969 0.44273 0.98251 0.0
C25 C 0.04732 0.43121 0.039 0.0
C26 C 0.04095 0.42633 0.01359 0.0
C27 C 0.04637 0.4553 0.05313 0.0
C28 C 0.03821 0.47442 0.04161 0.0
C29 C 0.03215 0.46974 0.01616 0.0
C30 C 0.03374 0.44588 0.00229 0.0
N31 N 0.02698 0.48944 0.0037 0.0
C32 C 0.00673 0.5028 0.00866 0.0
H33 H 0.81047 0.77837 0.19153 0.0
H34 H 0.78348 0.70717 0.21097 0.0
H35 H 0.78298 0.77514 0.26385 0.0
C36 C 0.802 0.76764 0.20464 0.0
C37 C 0.79725 0.78007 0.22836 0.0
C38 C 0.79707 0.74136 0.19808 0.0
C39 C 0.78737 0.72747 0.21565 0.0
C40 C 0.78187 0.7396 0.2391 0.0
C41 C 0.78679 0.76589 0.24548 0.0
N42 N 0.77267 0.72482 0.25643 0.0
C43 C 0.75027 0.72797 0.26755 0.0
H44 H 0.08305 0.02992 0.44716 0.0
H45 H 0.1031 0.03394 0.52419 0.0
H46 H 0.02754 0.01155 0.49772 0.0
C47 C 0.07803 0.02753 0.46563 0.0
C48 C 0.05317 0.02021 0.47008 0.0
C49 C 0.09628 0.0324 0.485 0.0
C50 C 0.08941 0.02966 0.5089 0.0
C51 C 0.06489 0.02165 0.51341 0.0
C52 C 0.04669 0.01703 0.49404 0.0
N53 N 0.05863 0.02 0.53792 0.0
C54 C 0.04857 0.99763 0.54452 0.0
H55 H 0.26901 0.72273 0.80601 0.0
H56 H 0.20353 0.74619 0.77494 0.0
H57 H 0.24255 0.69031 0.73174 0.0
C58 C 0.25598 0.72173 0.79047 0.0
C59 C 0.25825 0.70456 0.76861 0.0
C60 C 0.23623 0.73672 0.79294 0.0
C61 C 0.21874 0.73469 0.77311 0.0
C62 C 0.22125 0.71805 0.75089 0.0
C63 C 0.24089 0.70316 0.74889 0.0
N64 N 0.20454 0.71548 0.73004 0.0
C65 C 0.18346 0.72779 0.72873 0.0
H66 H 0.91509 0.5663 0.52137 0.0
H67 H 0.95631 0.5963 0.46483 0.0
H68 H 0.91047 0.52604 0.44654 0.0
C69 C 0.92062 0.56477 0.50245 0.0
C70 C 0.91064 0.5438 0.48493 0.0
C71 C 0.93702 0.58412 0.49555 0.0
C72 C 0.94432 0.58148 0.47089 0.0
C73 C 0.93468 0.5605 0.45338 0.0
C74 C 0.91775 0.54206 0.46039 0.0
N75 N 0.94003 0.55843 0.42811 0.0
C76 C 0.96377 0.56265 0.41971 0.0
H77 H 0.86102 0.78543 0.83521 0.0
H78 H 0.83998 0.85827 0.82779 0.0
H79 H 0.81857 0.82529 0.8907 0.0
C80 C 0.85181 0.80182 0.84212 0.0
C81 C 0.83935 0.80269 0.86424 0.0
C82 C 0.85228 0.82178 0.82876 0.0
C83 C 0.84001 0.84285 0.83793 0.0
C84 C 0.82799 0.84412 0.86037 0.0
C85 C 0.8279 0.82415 0.87341 0.0
N86 N 0.81623 0.86539 0.87066 0.0
C87 C 0.80543 0.88091 0.85685 0.0
H88 H 0.37071 0.29405 0.33397 0.0
H89 H 0.34521 0.36451 0.32436 0.0
H90 H 0.32348 0.3308 0.38676 0.0
C91 C 0.36012 0.30961 0.34017 0.0
C92 C 0.34678 0.30977 0.3617 0.0
C93 C 0.35981 0.3293 0.32656 0.0
C94 C 0.34574 0.34928 0.3347 0.0
C95 C 0.33266 0.34974 0.35647 0.0
C96 C 0.33348 0.33017 0.3699 0.0
N97 N 0.31918 0.37 0.36593 0.0
C98 C 0.30627 0.38338 0.35145 0.0
H99 H 0.52797 0.90568 0.56686 0.0
H100 H 0.4763 0.96032 0.58593 0.0
H101 H 0.45998 0.90113 0.52348 0.0
C102 C 0.51095 0.91336 0.56299 0.0
C103 C 0.4953 0.90116 0.54278 0.0
C104 C 0.5044 0.93475 0.57876 0.0
C105 C 0.48175 0.94395 0.574 0.0
C106 C 0.46566 0.93139 0.55427 0.0
C107 C 0.47244 0.91015 0.53894 0.0
N108 N 0.44188 0.93876 0.55013 0.0
C109 C 0.43718 0.96355 0.55127 0.0
H110 H 0.31908 0.29366 0.69505 0.0
H111 H 0.29161 0.2317 0.73013 0.0
H112 H 0.31107 0.30514 0.77371 0.0
C113 C 0.31364 0.28642 0.71153 0.0
C114 C 0.31561 0.3027 0.73444 0.0
C115 C 0.30527 0.26072 0.70977 0.0
C116 C 0.29788 0.25151 0.73115 0.0
C117 C 0.30015 0.26756 0.75419 0.0
C118 C 0.30935 0.29293 0.7558 0.0
N119 N 0.29485 0.25813 0.77615 0.0
C120 C 0.27125 0.24761 0.78048 0.0
H121 H 0.82025 0.17352 0.76426 0.0
H122 H 0.84678 0.24801 0.75307 0.0
H123 H 0.77174 0.21735 0.7306 0.0
C124 C 0.81728 0.19039 0.75704 0.0
C125 C 0.79375 0.19279 0.74685 0.0
C126 C 0.83661 0.2101 0.75937 0.0
C127 C 0.83214 0.23249 0.75134 0.0
C128 C 0.80906 0.23505 0.74057 0.0
C129 C 0.78981 0.21515 0.73827 0.0
N130 N 0.80549 0.25861 0.73398 0.0
C131 C 0.7912 0.26195 0.71366 0.0
H132 H 0.56388 0.49676 0.57889 0.0
H133 H 0.57439 0.49643 0.50153 0.0
H134 H 0.51248 0.52877 0.53543 0.0
C135 C 0.55805 0.50149 0.56143 0.0
C136 C 0.53636 0.51348 0.55994 0.0
C137 C 0.57219 0.49543 0.54058 0.0
C138 C 0.56451 0.5019 0.51811 0.0
C139 C 0.5435 0.51452 0.51643 0.0
C140 C 0.52949 0.52033 0.53731 0.0
N141 N 0.53447 0.51747 0.49282 0.0
C142 C 0.53492 0.54062 0.48514 0.0
H143 H 0.59096 0.51125 0.92281 0.0
H144 H 0.60354 0.45434 0.96603 0.0
H145 H 0.54137 0.4426 0.9141 0.0
C146 C 0.58537 0.49319 0.92796 0.0
C147 C 0.56372 0.4786 0.91674 0.0
C148 C 0.60028 0.48444 0.94531 0.0
C149 C 0.59253 0.46124 0.95246 0.0
C150 C 0.57109 0.44639 0.94128 0.0
C151 C 0.55729 0.45482 0.92313 0.0
N152 N 0.56352 0.42223 0.94682 0.0
C153 C 0.56666 0.41558 0.96991 0.0
H154 H 0.77165 0.20722 0.31512 0.0
H155 H 0.71185 0.23659 0.28053 0.0
H156 H 0.74871 0.1776 0.23927 0.0
C157 C 0.76002 0.20743 0.29883 0.0
C158 C 0.76248 0.19021 0.27707 0.0
C159 C 0.7418 0.22413 0.3002 0.0
C160 C 0.72593 0.22376 0.27945 0.0
C161 C 0.72866 0.20704 0.25733 0.0
C162 C 0.74685 0.19046 0.25636 0.0
N163 N 0.71359 0.20611 0.23559 0.0
C164 C 0.69384 0.22007 0.23342 0.0
H165 H 0.41432 0.07387 0.01247 0.0
H166 H 0.45844 0.10308 0.95756 0.0
H167 H 0.40215 0.04129 0.9354 0.0
C168 C 0.41909 0.0732 0.99342 0.0
C169 C 0.4066 0.05442 0.97496 0.0
C170 C 0.43736 0.09143 0.98739 0.0
C171 C 0.444 0.08975 0.96263 0.0
C172 C 0.43122 0.07164 0.94404 0.0
C173 C 0.41225 0.05463 0.95018 0.0
N174 N 0.43627 0.07091 0.91883 0.0
C175 C 0.46019 0.07235 0.9104 0.0
Zn176 Zn 0.28411 0.85374 0.00546 0.0
Zn177 Zn 0.24212 0.8745 0.01105 0.0
O178 O 0.24391 0.85536 0.04133 0.0
O179 O 0.28005 0.84048 0.03675 0.0
O180 O 0.21238 0.89455 0.01646 0.0
O181 O 0.30487 0.88679 0.00631 0.0
O182 O 0.26986 0.90388 0.01017 0.0
C183 C 0.26075 0.84326 0.04886 0.0
C184 C 0.2484 0.83552 0.96471 0.0
O185 O 0.23522 0.85123 0.97666 0.0
O186 O 0.26962 0.83282 0.97339 0.0
C187 C 0.19078 0.88716 0.02267 0.0
O188 O 0.18571 0.86374 0.02584 0.0
C189 C 0.29336 0.90605 0.00842 0.0
Zn190 Zn 0.11246 0.46344 0.27886 0.0
Zn191 Zn 0.13926 0.50732 0.27651 0.0
O192 O 0.11543 0.51832 0.30415 0.0
O193 O 0.09399 0.48202 0.30633 0.0
O194 O 0.16092 0.53896 0.27275 0.0
O195 O 0.14341 0.44821 0.28683 0.0
O196 O 0.1652 0.48443 0.28527 0.0
C197 C 0.09841 0.50556 0.31378 0.0
C198 C 0.10675 0.47796 0.23162 0.0
O199 O 0.1218 0.49672 0.24199 0.0
O200 O 0.09979 0.46059 0.24346 0.0
C201 C 0.15252 0.55839 0.26722 0.0
O202 O 0.1284 0.55871 0.26484 0.0
C203 C 0.16415 0.46167 0.28864 0.0
Zn204 Zn 0.8177 0.59005 0.93532 0.0
Zn205 Zn 0.81433 0.61573 0.98151 0.0
O206 O 0.84474 0.59708 0.98545 0.0
O207 O 0.84771 0.57566 0.94805 0.0
O208 O 0.81049 0.63467 0.01566 0.0
O209 O 0.82204 0.62317 0.92274 0.0
O210 O 0.81937 0.64375 0.96054 0.0
C211 C 0.85565 0.58173 0.97042 0.0
C212 C 0.77136 0.57703 0.95669 0.0
O213 O 0.78127 0.59288 0.97505 0.0
O214 O 0.78298 0.57248 0.93703 0.0
C215 C 0.82717 0.65128 0.02682 0.0
O216 O 0.8478 0.65632 0.01575 0.0
C217 C 0.82207 0.6438 0.93759 0.0
Zn218 Zn 0.86974 0.00653 0.31875 0.0
Zn219 Zn 0.90037 0.00967 0.28252 0.0
O220 O 0.88018 0.04041 0.28242 0.0
O221 O 0.85728 0.03911 0.31467 0.0
O222 O 0.92418 0.01157 0.25463 0.0
O223 O 0.89824 0.00566 0.34256 0.0
O224 O 0.92408 0.01212 0.3135 0.0
C225 C 0.86417 0.04974 0.29685 0.0
C226 C 0.86105 0.96341 0.28105 0.0
O227 O 0.8799 0.97439 0.27221 0.0
O228 O 0.85213 0.97399 0.30064 0.0
C229 C 0.91634 0.01055 0.23241 0.0
O230 O 0.89228 0.00842 0.2275 0.0
C231 C 0.92021 0.00919 0.33568 0.0
Zn232 Zn 0.32276 0.10522 0.44789 0.0
Zn233 Zn 0.31972 0.1354 0.49242 0.0
O234 O 0.34622 0.11281 0.49932 0.0
O235 O 0.34934 0.08843 0.46344 0.0
O236 O 0.31642 0.15729 0.52548 0.0
O237 O 0.33142 0.13663 0.43305 0.0
O238 O 0.32915 0.16062 0.46935 0.0
C239 C 0.35588 0.095 0.48614 0.0
C240 C 0.27438 0.0999 0.46791 0.0
O241 O 0.28486 0.1166 0.48531 0.0
O242 O 0.28655 0.09163 0.44949 0.0
C243 C 0.31604 0.14786 0.54512 0.0
O244 O 0.31828 0.12379 0.54362 0.0
C245 C 0.3329 0.15833 0.44633 0.0
Zn246 Zn 0.38818 0.53305 0.79842 0.0
Zn247 Zn 0.41066 0.53388 0.75623 0.0
O248 O 0.38972 0.56482 0.75994 0.0
O249 O 0.37171 0.5634 0.79512 0.0
O250 O 0.43045 0.53584 0.72547 0.0
O251 O 0.42049 0.53656 0.8181 0.0
O252 O 0.43876 0.53383 0.78262 0.0
C253 C 0.3753 0.57379 0.77644 0.0
C254 C 0.37531 0.48768 0.76234 0.0
O255 O 0.38996 0.49894 0.74896 0.0
O256 O 0.37127 0.49841 0.78398 0.0
C257 C 0.42206 0.52747 0.70341 0.0
O258 O 0.39883 0.5175 0.69963 0.0
C259 C 0.43995 0.53527 0.80602 0.0
Zn260 Zn 0.79328 0.3363 0.5122 0.0
Zn261 Zn 0.75266 0.35886 0.51932 0.0
O262 O 0.75523 0.34102 0.55017 0.0
O263 O 0.7909 0.32533 0.54503 0.0
O264 O 0.7214 0.37658 0.52359 0.0
O265 O 0.81316 0.36912 0.50937 0.0
O266 O 0.78008 0.38843 0.51843 0.0
C267 C 0.77216 0.3291 0.55779 0.0
C268 C 0.75718 0.31806 0.47316 0.0
O269 O 0.74566 0.3353 0.48505 0.0
O270 O 0.77783 0.3136 0.48166 0.0
C271 C 0.72032 0.39604 0.53999 0.0
O272 O 0.73965 0.40433 0.55524 0.0
C273 C 0.80299 0.38927 0.51355 0.0
Zn274 Zn 0.61491 0.9636 0.78677 0.0
Zn275 Zn 0.64023 0.00648 0.77973 0.0
O276 O 0.61742 0.01936 0.80753 0.0
O277 O 0.59661 0.98385 0.81321 0.0
O278 O 0.65968 0.03784 0.77207 0.0
O279 O 0.64634 0.95021 0.79561 0.0
O280 O 0.66759 0.98528 0.7895 0.0
C281 C 0.60088 0.00761 0.81866 0.0
C282 C 0.60617 0.97309 0.73818 0.0
O283 O 0.62067 0.99294 0.74669 0.0
O284 O 0.60106 0.95661 0.75156 0.0
C285 C 0.67597 0.0514 0.78705 0.0
O286 O 0.68017 0.04516 0.8087 0.0
C287 C 0.66696 0.96345 0.79532 0.0
Zn288 Zn 0.05604 0.25069 0.83575 0.0
Zn289 Zn 0.05408 0.21654 0.86459 0.0
O290 O 0.08723 0.21286 0.84589 0.0
O291 O 0.08659 0.23987 0.82032 0.0
O292 O 0.05236 0.1902 0.88728 0.0
O293 O 0.05841 0.27842 0.86535 0.0
O294 O 0.05492 0.24998 0.88952 0.0
C295 C 0.09706 0.22316 0.82869 0.0
C296 C 0.01123 0.21812 0.82629 0.0
O297 O 0.02051 0.20814 0.84337 0.0
O298 O 0.02317 0.2368 0.81938 0.0
C299 C 0.06793 0.17442 0.88865 0.0
O300 O 0.08679 0.17406 0.87416 0.0
C301 C 0.05699 0.27297 0.88678 0.0
Zn302 Zn 0.53744 0.76416 0.34389 0.0
Zn303 Zn 0.53606 0.72439 0.36565 0.0
O304 O 0.56977 0.72443 0.34792 0.0
O305 O 0.57001 0.75748 0.32966 0.0
O306 O 0.53585 0.69595 0.38547 0.0
O307 O 0.53605 0.78776 0.37585 0.0
O308 O 0.53433 0.7546 0.394 0.0
C309 C 0.58042 0.73897 0.33441 0.0
C310 C 0.49421 0.72923 0.3282 0.0
O311 O 0.50362 0.71635 0.34275 0.0
O312 O 0.50552 0.75008 0.32534 0.0
C313 C 0.53467 0.67251 0.37693 0.0
O314 O 0.53337 0.6649 0.35287 0.0
C315 C 0.5344 0.77829 0.39528 0.0
Zn316 Zn 0.94654 0.80344 0.61678 0.0
Zn317 Zn 0.98975 0.79982 0.64021 0.0
O318 O 0.99775 0.83085 0.62303 0.0
O319 O 0.96203 0.83392 0.60445 0.0
O320 O 0.02226 0.79621 0.65767 0.0
O321 O 0.92993 0.80748 0.64947 0.0
O322 O 0.96556 0.80507 0.66856 0.0
C323 C 0.98467 0.84197 0.60957 0.0
C324 C 0.96551 0.75653 0.59994 0.0
O325 O 0.98252 0.7656 0.61649 0.0
O326 O 0.94794 0.76918 0.5961 0.0
C327 C 0.02273 0.77967 0.67145 0.0
O328 O 0.00196 0.76583 0.67431 0.0
C329 C 0.94249 0.80772 0.66929 0.0
Zn330 Zn 0.46072 0.30338 0.12007 0.0
Zn331 Zn 0.50262 0.29662 0.14307 0.0
O332 O 0.51494 0.32311 0.12172 0.0
O333 O 0.48017 0.32837 0.10271 0.0
O334 O 0.53342 0.29108 0.16218 0.0
O335 O 0.44493 0.31481 0.15191 0.0
O336 O 0.47881 0.30759 0.1711 0.0
C337 C 0.50344 0.33355 0.10642 0.0
C338 C 0.47284 0.25264 0.10796 0.0
O339 O 0.49207 0.26162 0.1218 0.0
O340 O 0.45613 0.26652 0.10474 0.0
C341 C 0.55095 0.28079 0.15107 0.0
O342 O 0.54912 0.27452 0.12687 0.0
C343 C 0.45693 0.31427 0.17182 0.0
C344 C 0.25391 0.77114 0.82704 0.0
C345 C 0.23377 0.75386 0.81666 0.0
C346 C 0.25292 0.78576 0.8506 0.0
C347 C 0.23145 0.78262 0.86439 0.0
C348 C 0.21071 0.76581 0.85361 0.0
C349 C 0.21204 0.75177 0.82974 0.0
C350 C 0.27529 0.80379 0.86116 0.0
C351 C 0.18766 0.76157 0.86778 0.0
C352 C 0.24672 0.79641 0.93338 0.0
C353 C 0.23999 0.8208 0.94014 0.0
C354 C 0.24256 0.78323 0.90911 0.0
C355 C 0.23199 0.79495 0.89088 0.0
C356 C 0.22414 0.81918 0.89782 0.0
C357 C 0.22799 0.83175 0.92251 0.0
C358 C 0.25066 0.7572 0.90274 0.0
C359 C 0.21312 0.83247 0.87891 0.0
H360 H 0.27064 0.7729 0.81684 0.0
H361 H 0.19651 0.73828 0.82176 0.0
H362 H 0.26961 0.82255 0.86868 0.0
H363 H 0.28414 0.79677 0.87665 0.0
H364 H 0.28934 0.80607 0.84715 0.0
H365 H 0.17222 0.75008 0.85593 0.0
H366 H 0.19196 0.75169 0.88318 0.0
H367 H 0.18134 0.7798 0.87608 0.0
H368 H 0.25586 0.78784 0.94704 0.0
H369 H 0.22299 0.85069 0.92765 0.0
H370 H 0.26684 0.75775 0.89085 0.0
H371 H 0.23555 0.74395 0.89217 0.0
H372 H 0.256 0.7497 0.91945 0.0
H373 H 0.22772 0.83773 0.86639 0.0
H374 H 0.20536 0.84982 0.88762 0.0
H375 H 0.19824 0.81982 0.86735 0.0
C376 C 0.98577 0.5608 0.3814 0.0
C377 C 0.98669 0.56256 0.40705 0.0
C378 C 0.00662 0.55556 0.36772 0.0
C379 C 0.02887 0.55202 0.38012 0.0
C380 C 0.03031 0.55564 0.40631 0.0
C381 C 0.00902 0.56067 0.41952 0.0
C382 C 0.00415 0.55175 0.33987 0.0
C383 C 0.05375 0.55243 0.42025 0.0
C384 C 0.06442 0.50312 0.34326 0.0
C385 C 0.08261 0.51793 0.3328 0.0
C386 C 0.04753 0.51407 0.3594 0.0
C387 C 0.04883 0.54061 0.3655 0.0
C388 C 0.06784 0.55575 0.356 0.0
C389 C 0.08449 0.54423 0.33965 0.0
C390 C 0.02756 0.49715 0.36905 0.0
C391 C 0.07002 0.58409 0.36237 0.0
H392 H 0.96831 0.56214 0.37187 0.0
H393 H 0.00954 0.56195 0.43943 0.0
H394 H 0.02012 0.56214 0.33245 0.0
H395 H 0.00419 0.53147 0.33214 0.0
H396 H 0.98673 0.55803 0.33328 0.0
H397 H 0.05334 0.56022 0.44026 0.0
H398 H 0.05599 0.5321 0.41819 0.0
H399 H 0.07025 0.56177 0.41261 0.0
H400 H 0.06288 0.48278 0.33832 0.0
H401 H 0.09853 0.55585 0.33178 0.0
H402 H 0.00905 0.5004 0.36196 0.0
H403 H 0.02776 0.50162 0.38951 0.0
H404 H 0.02983 0.47688 0.36347 0.0
H405 H 0.0542 0.59104 0.35342 0.0
H406 H 0.08756 0.59303 0.35614 0.0
H407 H 0.06913 0.59026 0.38261 0.0
C408 C 0.81446 0.77127 0.88479 0.0
C409 C 0.83752 0.78079 0.87725 0.0
C410 C 0.81205 0.74967 0.89576 0.0
C411 C 0.83325 0.73743 0.89951 0.0
C412 C 0.85671 0.74736 0.89255 0.0
C413 C 0.85853 0.76884 0.88136 0.0
C414 C 0.78666 0.73951 0.90262 0.0
C415 C 0.8798 0.73502 0.8965 0.0
C416 C 0.82943 0.69102 0.94428 0.0
C417 C 0.82508 0.66787 0.92806 0.0
C418 C 0.83237 0.71384 0.93528 0.0
C419 C 0.83064 0.71349 0.90947 0.0
C420 C 0.82615 0.6902 0.89304 0.0
C421 C 0.82356 0.66771 0.90251 0.0
C422 C 0.83737 0.7383 0.95335 0.0
C423 C 0.82391 0.68902 0.86542 0.0
H424 H 0.79813 0.7803 0.88139 0.0
H425 H 0.87643 0.77631 0.87578 0.0
H426 H 0.78123 0.72052 0.89152 0.0
H427 H 0.78703 0.73747 0.92235 0.0
H428 H 0.77223 0.75183 0.89946 0.0
H429 H 0.89682 0.74593 0.89146 0.0
H430 H 0.88199 0.73289 0.91612 0.0
H431 H 0.87808 0.71586 0.88518 0.0
H432 H 0.83072 0.69133 0.96403 0.0
H433 H 0.8201 0.64994 0.88982 0.0
H434 H 0.82238 0.75031 0.95139 0.0
H435 H 0.855 0.74883 0.94924 0.0
H436 H 0.83863 0.73534 0.97281 0.0
H437 H 0.80862 0.69969 0.86074 0.0
H438 H 0.82023 0.6694 0.85516 0.0
H439 H 0.84125 0.69799 0.8589 0.0
C440 C 0.03561 1.00056 0.42784 0.0
C441 C 0.03393 0.01743 0.44991 0.0
C442 C 0.0179 0.99846 0.40824 0.0
C443 C 0.9985 0.01412 0.41061 0.0
C444 C 0.99699 0.03144 0.43281 0.0
C445 C 0.01456 0.03266 0.45232 0.0
C446 C 0.01977 0.9793 0.38516 0.0
C447 C 0.9769 0.04882 0.4359 0.0
C448 C 0.9636 0.02446 0.35276 0.0
C449 C 0.94106 0.00947 0.35367 0.0
C450 C 0.98261 0.02607 0.37109 0.0
C451 C 0.97919 0.0118 0.3903 0.0
C452 C 0.95681 0.9959 0.39066 0.0
C453 C 0.93792 0.99521 0.37256 0.0
C454 C 0.006 0.04364 0.37039 0.0
C455 C 0.95265 0.97987 0.41039 0.0
H456 H 0.05066 0.98882 0.42604 0.0
H457 H 0.01353 0.04595 0.46931 0.0
H458 H 0.00258 0.96589 0.38197 0.0
H459 H 0.02148 0.98877 0.36886 0.0
H460 H 0.03591 0.96848 0.3863 0.0
H461 H 0.97907 0.06206 0.45383 0.0
H462 H 0.97714 0.05988 0.42071 0.0
H463 H 0.95843 0.03764 0.43481 0.0
H464 H 0.96601 0.0356 0.33824 0.0
H465 H 0.92061 0.98337 0.37317 0.0
H466 H 0.0225 0.03321 0.37033 0.0
H467 H 0.00793 0.05838 0.38724 0.0
H468 H 0.00606 0.05296 0.35391 0.0
H469 H 0.96817 0.96825 0.4113 0.0
H470 H 0.93496 0.96718 0.40702 0.0
H471 H 0.95226 0.9921 0.42871 0.0
C472 C 0.28514 0.22636 0.6765 0.0
C473 C 0.30582 0.24343 0.68584 0.0
C474 C 0.2856 0.21029 0.65359 0.0
C475 C 0.30741 0.21109 0.64 0.0
C476 C 0.32845 0.22805 0.64958 0.0
C477 C 0.32734 0.2441 0.6723 0.0
C478 C 0.26271 0.19268 0.64381 0.0
C479 C 0.35218 0.22921 0.63587 0.0
C480 C 0.31844 0.15509 0.59132 0.0
C481 C 0.31314 0.16376 0.56937 0.0
C482 C 0.31633 0.17016 0.61446 0.0
C483 C 0.30836 0.19432 0.61568 0.0
C484 C 0.30245 0.20296 0.59359 0.0
C485 C 0.30509 0.18765 0.5707 0.0
C486 C 0.32316 0.16045 0.63759 0.0
C487 C 0.2936 0.22849 0.59414 0.0
H488 H 0.26847 0.22592 0.68693 0.0
H489 H 0.34348 0.25704 0.67968 0.0
H490 H 0.25636 0.19667 0.62568 0.0
H491 H 0.26711 0.17292 0.64073 0.0
H492 H 0.24724 0.19441 0.6566 0.0
H493 H 0.36703 0.24309 0.64613 0.0
H494 H 0.35902 0.21042 0.63256 0.0
H495 H 0.34864 0.23439 0.61755 0.0
H496 H 0.32473 0.13668 0.59045 0.0
H497 H 0.30076 0.19438 0.55381 0.0
H498 H 0.30739 0.16071 0.65001 0.0
H499 H 0.339 0.17293 0.64781 0.0
H500 H 0.32839 0.14097 0.6335 0.0
H501 H 0.27728 0.23033 0.60577 0.0
H502 H 0.28843 0.23182 0.57539 0.0
H503 H 0.30842 0.24345 0.60257 0.0
C504 C 0.51561 0.49816 0.59575 0.0
C505 C 0.52007 0.51716 0.58147 0.0
C506 C 0.49986 0.50085 0.61567 0.0
C507 C 0.48809 0.52304 0.62154 0.0
C508 C 0.49254 0.54235 0.60731 0.0
C509 C 0.50844 0.53918 0.58746 0.0
C510 C 0.49561 0.47974 0.63027 0.0
C511 C 0.48039 0.56631 0.61298 0.0
C512 C 0.42959 0.51789 0.65806 0.0
C513 C 0.43869 0.52771 0.68232 0.0
C514 C 0.44532 0.5168 0.63807 0.0
C515 C 0.47084 0.52573 0.64236 0.0
C516 C 0.48006 0.53616 0.66672 0.0
C517 C 0.46391 0.53703 0.68637 0.0
C518 C 0.43471 0.50557 0.61241 0.0
C519 C 0.50713 0.54587 0.67212 0.0
H520 H 0.52406 0.48086 0.59103 0.0
H521 H 0.5119 0.55405 0.5767 0.0
H522 H 0.50067 0.48689 0.65011 0.0
H523 H 0.47564 0.47237 0.6289 0.0
H524 H 0.50657 0.46394 0.6237 0.0
H525 H 0.48596 0.57965 0.60036 0.0
H526 H 0.4599 0.56187 0.61139 0.0
H527 H 0.48537 0.57578 0.63228 0.0
H528 H 0.41016 0.51069 0.65466 0.0
H529 H 0.47117 0.5447 0.705 0.0
H530 H 0.44348 0.48837 0.60528 0.0
H531 H 0.43891 0.51905 0.59963 0.0
H532 H 0.41429 0.50051 0.61198 0.0
H533 H 0.51868 0.53019 0.6674 0.0
H534 H 0.51116 0.55452 0.69184 0.0
H535 H 0.51287 0.56009 0.66049 0.0
C536 C 0.77451 0.25378 0.67036 0.0
C537 C 0.78059 0.27043 0.69259 0.0
C538 C 0.76866 0.26287 0.64867 0.0
C539 C 0.76935 0.2892 0.64933 0.0
C540 C 0.77405 0.30585 0.67221 0.0
C541 C 0.77961 0.29622 0.69358 0.0
C542 C 0.76348 0.24445 0.62476 0.0
C543 C 0.77524 0.334 0.67382 0.0
C544 C 0.79252 0.31371 0.59255 0.0
C545 C 0.77074 0.31961 0.58157 0.0
C546 C 0.79216 0.30392 0.6145 0.0
C547 C 0.76938 0.29951 0.62584 0.0
C548 C 0.74725 0.30544 0.61496 0.0
C549 C 0.74821 0.31564 0.59301 0.0
C550 C 0.81632 0.29835 0.6256 0.0
C551 C 0.72259 0.30075 0.62637 0.0
H552 H 0.77544 0.23381 0.66968 0.0
H553 H 0.78452 0.30904 0.71086 0.0
H554 H 0.7474 0.24913 0.61424 0.0
H555 H 0.7798 0.24565 0.61311 0.0
H556 H 0.75966 0.22476 0.62792 0.0
H557 H 0.77569 0.34404 0.69325 0.0
H558 H 0.79225 0.34091 0.66514 0.0
H559 H 0.7591 0.33895 0.6636 0.0
H560 H 0.81008 0.3169 0.58401 0.0
H561 H 0.73129 0.32001 0.58458 0.0
H562 H 0.81532 0.27808 0.62682 0.0
H563 H 0.81962 0.30917 0.64466 0.0
H564 H 0.83248 0.30315 0.61463 0.0
H565 H 0.71864 0.28048 0.62739 0.0
H566 H 0.70708 0.30635 0.6157 0.0
H567 H 0.72324 0.31135 0.64555 0.0
C568 C 0.51022 0.95319 0.62387 0.0
C569 C 0.52061 0.94612 0.60099 0.0
C570 C 0.52528 0.96051 0.64561 0.0
C571 C 0.55132 0.96042 0.64447 0.0
C572 C 0.56203 0.95465 0.62131 0.0
C573 C 0.54655 0.94778 0.59982 0.0
C574 C 0.51319 0.96692 0.66995 0.0
C575 C 0.5897 0.95427 0.61932 0.0
C576 C 0.59175 0.99057 0.70166 0.0
C577 C 0.59403 0.96977 0.71324 0.0
C578 C 0.57816 0.98785 0.67905 0.0
C579 C 0.56696 0.96372 0.66767 0.0
C580 C 0.57 0.94255 0.67886 0.0
C581 C 0.58332 0.94587 0.70158 0.0
C582 C 0.57508 0.01088 0.6678 0.0
C583 C 0.55871 0.91642 0.66707 0.0
H584 H 0.49022 0.95182 0.62503 0.0
H585 H 0.55477 0.94289 0.58214 0.0
H586 H 0.51484 0.95175 0.68088 0.0
H587 H 0.52274 0.9846 0.68093 0.0
H588 H 0.49321 0.96913 0.66742 0.0
H589 H 0.59528 0.95192 0.59985 0.0
H590 H 0.59983 0.97189 0.6298 0.0
H591 H 0.59562 0.93846 0.62759 0.0
H592 H 0.59987 0.00913 0.71066 0.0
H593 H 0.58517 0.9297 0.71036 0.0
H594 H 0.55522 0.01412 0.66751 0.0
H595 H 0.58072 0.00796 0.64837 0.0
H596 H 0.58614 0.02805 0.6782 0.0
H597 H 0.53818 0.91564 0.66606 0.0
H598 H 0.56389 0.9018 0.67751 0.0
H599 H 0.56478 0.91176 0.64789 0.0
C600 C 0.87397 0.22745 0.78743 0.0
C601 C 0.86128 0.20748 0.7706 0.0
C602 C 0.89775 0.22574 0.79726 0.0
C603 C 0.9092 0.2035 0.79011 0.0
C604 C 0.89615 0.18292 0.77383 0.0
C605 C 0.87236 0.18516 0.76424 0.0
C606 C 0.91098 0.24813 0.81464 0.0
C607 C 0.9077 0.15891 0.76575 0.0
C608 C 0.97929 0.21565 0.79241 0.0
C609 C 0.98579 0.20973 0.81542 0.0
C610 C 0.95455 0.21236 0.78339 0.0
C611 C 0.93569 0.203 0.79777 0.0
C612 C 0.94223 0.19547 0.82031 0.0
C613 C 0.9673 0.19885 0.82887 0.0
C614 C 0.9485 0.22037 0.75913 0.0
C615 C 0.92266 0.18525 0.83607 0.0
H616 H 0.86534 0.24455 0.79284 0.0
H617 H 0.86274 0.16967 0.75114 0.0
H618 H 0.91768 0.24226 0.83177 0.0
H619 H 0.92749 0.25595 0.80581 0.0
H620 H 0.89888 0.2633 0.81975 0.0
H621 H 0.89415 0.14371 0.75532 0.0
H622 H 0.92332 0.16254 0.75377 0.0
H623 H 0.91543 0.15221 0.782 0.0
H624 H 0.99354 0.2238 0.78177 0.0
H625 H 0.9722 0.19431 0.84669 0.0
H626 H 0.93822 0.23715 0.76257 0.0
H627 H 0.93636 0.20521 0.74696 0.0
H628 H 0.96543 0.22513 0.74919 0.0
H629 H 0.91192 0.20064 0.84434 0.0
H630 H 0.93086 0.17718 0.85124 0.0
H631 H 0.90938 0.17053 0.82465 0.0
C632 C 0.5277 0.87998 0.51793 0.0
C633 C 0.50305 0.87965 0.52516 0.0
C634 C 0.53464 0.86142 0.49915 0.0
C635 C 0.51642 0.84235 0.48699 0.0
C636 C 0.49186 0.84108 0.4951 0.0
C637 C 0.48554 0.8596 0.51426 0.0
C638 C 0.56114 0.86314 0.49132 0.0
C639 C 0.47184 0.82115 0.48249 0.0
C640 C 0.52394 0.81885 0.41905 0.0
C641 C 0.53103 0.79475 0.41906 0.0
C642 C 0.51926 0.83445 0.44106 0.0
C643 C 0.52215 0.82597 0.46379 0.0
C644 C 0.52988 0.80191 0.46408 0.0
C645 C 0.534 0.78643 0.44163 0.0
C646 C 0.51072 0.85986 0.43991 0.0
C647 C 0.53362 0.7925 0.48804 0.0
H648 H 0.54139 0.89542 0.52608 0.0
H649 H 0.46662 0.85877 0.52018 0.0
H650 H 0.568 0.84437 0.48874 0.0
H651 H 0.56207 0.86975 0.47333 0.0
H652 H 0.57375 0.87644 0.505 0.0
H653 H 0.45436 0.82121 0.49257 0.0
H654 H 0.46776 0.82447 0.46351 0.0
H655 H 0.47818 0.8022 0.48078 0.0
H656 H 0.52144 0.82538 0.40169 0.0
H657 H 0.53958 0.76786 0.44176 0.0
H658 H 0.52384 0.875 0.45095 0.0
H659 H 0.49229 0.86101 0.44804 0.0
H660 H 0.50928 0.86355 0.4207 0.0
H661 H 0.54682 0.80618 0.50073 0.0
H662 H 0.54082 0.77387 0.48518 0.0
H663 H 0.51578 0.79088 0.49735 0.0
C664 C 0.2339 0.2568 0.80259 0.0
C665 C 0.24665 0.23956 0.78746 0.0
C666 C 0.20977 0.24993 0.80943 0.0
C667 C 0.19817 0.22516 0.80088 0.0
C668 C 0.21135 0.20745 0.78602 0.0
C669 C 0.23555 0.21492 0.77941 0.0
C670 C 0.19641 0.26946 0.8252 0.0
C671 C 0.19967 0.1809 0.77663 0.0
C672 C 0.13965 0.21021 0.83464 0.0
C673 C 0.12173 0.21785 0.81956 0.0
C674 C 0.16457 0.21069 0.82797 0.0
C675 C 0.17153 0.21891 0.80574 0.0
C676 C 0.15306 0.22453 0.78956 0.0
C677 C 0.12844 0.22394 0.79667 0.0
C678 C 0.18369 0.20423 0.84557 0.0
C679 C 0.15953 0.2332 0.76561 0.0
H680 H 0.24274 0.27582 0.80885 0.0
H681 H 0.24566 0.20163 0.76777 0.0
H682 H 0.18007 0.27344 0.81455 0.0
H683 H 0.18946 0.26226 0.84172 0.0
H684 H 0.20852 0.28741 0.83142 0.0
H685 H 0.21314 0.1688 0.76735 0.0
H686 H 0.19188 0.17233 0.79209 0.0
H687 H 0.18405 0.18114 0.76326 0.0
H688 H 0.13457 0.20546 0.85233 0.0
H689 H 0.11459 0.2295 0.78475 0.0
H690 H 0.19462 0.22181 0.85522 0.0
H691 H 0.19683 0.19238 0.8354 0.0
H692 H 0.17498 0.19418 0.85969 0.0
H693 H 0.16992 0.25231 0.7697 0.0
H694 H 0.14277 0.23394 0.75382 0.0
H695 H 0.17169 0.22052 0.75499 0.0
C696 C 0.55759 0.57342 0.4658 0.0
C697 C 0.53518 0.56234 0.47311 0.0
C698 C 0.5579 0.59238 0.45125 0.0
C699 C 0.53521 0.60026 0.44379 0.0
C700 C 0.51256 0.58949 0.45183 0.0
C701 C 0.51283 0.57057 0.46637 0.0
C702 C 0.58244 0.60337 0.44317 0.0
C703 C 0.48799 0.59733 0.44436 0.0
C704 C 0.53646 0.66223 0.41977 0.0
C705 C 0.5348 0.65404 0.39405 0.0
C706 C 0.53663 0.64499 0.43616 0.0
C707 C 0.53508 0.61888 0.42669 0.0
C708 C 0.5334 0.61049 0.40076 0.0
C709 C 0.53329 0.62813 0.38479 0.0
C710 C 0.53846 0.65473 0.46364 0.0
C711 C 0.53172 0.58283 0.38987 0.0
H712 H 0.57483 0.56676 0.47086 0.0
H713 H 0.4955 0.5617 0.47188 0.0
H714 H 0.58316 0.5985 0.42279 0.0
H715 H 0.58441 0.6242 0.44809 0.0
H716 H 0.59847 0.59631 0.45172 0.0
H717 H 0.4722 0.58823 0.45329 0.0
H718 H 0.48823 0.61805 0.44932 0.0
H719 H 0.48476 0.59224 0.42402 0.0
H720 H 0.53764 0.68218 0.42717 0.0
H721 H 0.532 0.62157 0.36499 0.0
H722 H 0.55515 0.64872 0.47202 0.0
H723 H 0.52208 0.64661 0.47244 0.0
H724 H 0.53955 0.67559 0.46808 0.0
H725 H 0.54822 0.57473 0.39609 0.0
H726 H 0.53051 0.57935 0.36934 0.0
H727 H 0.51513 0.5726 0.3965 0.0
C728 C 0.86425 0.79781 0.78842 0.0
C729 C 0.86565 0.82049 0.80535 0.0
C730 C 0.87737 0.79601 0.76666 0.0
C731 C 0.89207 0.8175 0.76151 0.0
C732 C 0.89341 0.84052 0.77837 0.0
C733 C 0.88025 0.84173 0.80012 0.0
C734 C 0.87542 0.77111 0.74914 0.0
C735 C 0.90876 0.86388 0.77342 0.0
C736 C 0.94211 0.80698 0.71482 0.0
C737 C 0.93008 0.81096 0.69316 0.0
C738 C 0.93007 0.80929 0.73729 0.0
C739 C 0.90551 0.81594 0.73814 0.0
C740 C 0.89346 0.82041 0.71645 0.0
C741 C 0.90583 0.81777 0.69424 0.0
C742 C 0.94345 0.80418 0.76001 0.0
C743 C 0.86736 0.82775 0.71662 0.0
H744 H 0.85269 0.78141 0.79207 0.0
H745 H 0.88171 0.85924 0.81323 0.0
H746 H 0.86732 0.77315 0.73096 0.0
H747 H 0.89418 0.76513 0.74601 0.0
H748 H 0.86376 0.75602 0.75619 0.0
H749 H 0.9078 0.88034 0.78835 0.0
H750 H 0.92845 0.86036 0.77156 0.0
H751 H 0.90224 0.86868 0.75571 0.0
H752 H 0.96082 0.80167 0.71416 0.0
H753 H 0.89641 0.82105 0.67765 0.0
H754 H 0.93314 0.78807 0.76672 0.0
H755 H 0.94417 0.82074 0.77508 0.0
H756 H 0.9627 0.7998 0.75643 0.0
H757 H 0.85437 0.8125 0.72181 0.0
H758 H 0.86094 0.83144 0.69838 0.0
H759 H 0.86634 0.84488 0.73067 0.0
C760 C 0.02848 0.97661 0.57607 0.0
C761 C 0.03984 0.97496 0.55344 0.0
C762 C 0.02068 0.95482 0.58559 0.0
C763 C 0.02443 0.93092 0.57208 0.0
C764 C 0.03615 0.92931 0.54921 0.0
C765 C 0.04376 0.95146 0.54015 0.0
C766 C 0.00822 0.95735 0.60998 0.0
C767 C 0.04041 0.90421 0.53425 0.0
C768 C 0.01993 0.87521 0.60614 0.0
C769 C 0.99546 0.86437 0.59972 0.0
C770 C 0.02977 0.89675 0.59708 0.0
C771 C 0.01481 0.90762 0.58123 0.0
C772 C 0.99024 0.89658 0.57448 0.0
C773 C 0.98089 0.87517 0.58379 0.0
C774 C 0.05607 0.90805 0.60469 0.0
C775 C 0.97367 0.90754 0.55759 0.0
H776 H 0.02574 0.99497 0.58634 0.0
H777 H 0.0528 0.95042 0.52271 0.0
H778 H 0.98898 0.94777 0.60722 0.0
H779 H 0.01824 0.948 0.62303 0.0
H780 H 0.00752 0.97732 0.61859 0.0
H781 H 0.05058 0.90626 0.51732 0.0
H782 H 0.05114 0.89366 0.5456 0.0
H783 H 0.02234 0.8927 0.52873 0.0
H784 H 0.03133 0.86701 0.6184 0.0
H785 H 0.96199 0.86695 0.57859 0.0
H786 H 0.05609 0.92755 0.61492 0.0
H787 H 0.067 0.90918 0.58808 0.0
H788 H 0.06551 0.89698 0.61658 0.0
H789 H 0.97092 0.92706 0.56611 0.0
H790 H 0.95519 0.89635 0.55366 0.0
H791 H 0.9826 0.90849 0.53981 0.0
C792 C 0.14937 0.72854 0.69905 0.0
C793 C 0.1608 0.73746 0.72244 0.0
C794 C 0.12712 0.73698 0.6921 0.0
C795 C 0.11609 0.75483 0.70903 0.0
C796 C 0.12779 0.76406 0.73273 0.0
C797 C 0.15012 0.75519 0.7392 0.0
C798 C 0.1153 0.72658 0.66672 0.0
C799 C 0.11662 0.78309 0.75124 0.0
C800 C 0.06888 0.78921 0.67968 0.0
C801 C 0.04647 0.7749 0.68294 0.0
C802 C 0.09162 0.78361 0.68905 0.0
C803 C 0.092 0.76316 0.70189 0.0
C804 C 0.06937 0.74922 0.70598 0.0
C805 C 0.04692 0.75527 0.69651 0.0
C806 C 0.11532 0.79901 0.6844 0.0
C807 C 0.06894 0.72722 0.71951 0.0
H808 H 0.15781 0.71478 0.68617 0.0
H809 H 0.15913 0.762 0.75731 0.0
H810 H 0.09655 0.71682 0.6684 0.0
H811 H 0.11297 0.74217 0.65649 0.0
H812 H 0.12647 0.71311 0.65564 0.0
H813 H 0.12834 0.78888 0.76859 0.0
H814 H 0.11407 0.80006 0.74316 0.0
H815 H 0.098 0.77509 0.75584 0.0
H816 H 0.06874 0.80451 0.66936 0.0
H817 H 0.02973 0.74416 0.69925 0.0
H818 H 0.12658 0.78715 0.67165 0.0
H819 H 0.12659 0.80556 0.7019 0.0
H820 H 0.11174 0.81565 0.67613 0.0
H821 H 0.07811 0.71195 0.70854 0.0
H822 H 0.04975 0.71955 0.72285 0.0
H823 H 0.07947 0.73291 0.73753 0.0
C824 C 0.96828 0.62144 0.51256 0.0
C825 C 0.94483 0.60788 0.51344 0.0
C826 C 0.97463 0.64516 0.52749 0.0
C827 C 0.95736 0.65538 0.54411 0.0
C828 C 0.93425 0.64123 0.54609 0.0
C829 C 0.92815 0.61791 0.53054 0.0
C830 C 0.99933 0.6598 0.52462 0.0
C831 C 0.91543 0.65126 0.56384 0.0
C832 C 0.97588 0.71204 0.59495 0.0
C833 C 0.96582 0.73114 0.58507 0.0
C834 C 0.97391 0.68729 0.5816 0.0
C835 C 0.96216 0.68178 0.55765 0.0
C836 C 0.95316 0.70134 0.54717 0.0
C837 C 0.95482 0.72568 0.56112 0.0
C838 C 0.98331 0.66686 0.59356 0.0
C839 C 0.94103 0.69644 0.52148 0.0
H840 H 0.98155 0.61375 0.49983 0.0
H841 H 0.90981 0.60804 0.53121 0.0
H842 H 0.99625 0.67659 0.51642 0.0
H843 H 0.00909 0.66667 0.5429 0.0
H844 H 0.01156 0.64838 0.51256 0.0
H845 H 0.89968 0.63678 0.56525 0.0
H846 H 0.92431 0.65816 0.58253 0.0
H847 H 0.90792 0.66744 0.55755 0.0
H848 H 0.98432 0.71621 0.6135 0.0
H849 H 0.9473 0.74048 0.55331 0.0
H850 H 0.99533 0.65579 0.58098 0.0
H851 H 0.96734 0.65366 0.59726 0.0
H852 H 0.99394 0.67455 0.61128 0.0
H853 H 0.9531 0.6864 0.5081 0.0
H854 H 0.93714 0.71408 0.5152 0.0
H855 H 0.92326 0.68416 0.52112 0.0
C856 C 0.79938 0.82396 0.21928 0.0
C857 C 0.80466 0.8076 0.23541 0.0
C858 C 0.80786 0.84975 0.22489 0.0
C859 C 0.82215 0.85938 0.24706 0.0
C860 C 0.82737 0.84297 0.2635 0.0
C861 C 0.81847 0.81731 0.25753 0.0
C862 C 0.8016 0.86669 0.20708 0.0
C863 C 0.84264 0.85248 0.28729 0.0
C864 C 0.86395 0.92145 0.25428 0.0
C865 C 0.85019 0.93762 0.26971 0.0
C866 C 0.85479 0.89602 0.24619 0.0
C867 C 0.83122 0.8867 0.25347 0.0
C868 C 0.81679 0.90326 0.26804 0.0
C869 C 0.82648 0.92843 0.27607 0.0
C870 C 0.87076 0.8789 0.23072 0.0
C871 C 0.79142 0.89419 0.27588 0.0
H872 H 0.78857 0.81654 0.20223 0.0
H873 H 0.82291 0.80467 0.26986 0.0
H874 H 0.79127 0.88188 0.21653 0.0
H875 H 0.81889 0.87586 0.20067 0.0
H876 H 0.7902 0.85628 0.19068 0.0
H877 H 0.84532 0.83723 0.2979 0.0
H878 H 0.86113 0.8613 0.28323 0.0
H879 H 0.83346 0.86718 0.29909 0.0
H880 H 0.8823 0.92839 0.24936 0.0
H881 H 0.81561 0.94086 0.2878 0.0
H882 H 0.86019 0.86881 0.21372 0.0
H883 H 0.87613 0.86445 0.24125 0.0
H884 H 0.88792 0.88934 0.22534 0.0
H885 H 0.77962 0.88436 0.25957 0.0
H886 H 0.7818 0.90985 0.28561 0.0
H887 H 0.79323 0.88045 0.28842 0.0
C888 C 0.80427 0.17761 0.28766 0.0
C889 C 0.78035 0.17109 0.27647 0.0
C890 C 0.8204 0.15922 0.28909 0.0
C891 C 0.81238 0.13367 0.27924 0.0
C892 C 0.78867 0.12714 0.267 0.0
C893 C 0.77298 0.14589 0.26577 0.0
C894 C 0.84559 0.16701 0.30212 0.0
C895 C 0.7793 0.10012 0.25636 0.0
C896 C 0.85698 0.08326 0.27162 0.0
C897 C 0.8526 0.07241 0.29273 0.0
C898 C 0.84455 0.10369 0.2672 0.0
C899 C 0.82736 0.11342 0.28425 0.0
C900 C 0.82343 0.10297 0.30587 0.0
C901 C 0.83607 0.08272 0.30983 0.0
C902 C 0.84933 0.11446 0.24402 0.0
C903 C 0.8053 0.11274 0.32457 0.0
H904 H 0.81026 0.19709 0.29564 0.0
H905 H 0.75446 0.14061 0.25732 0.0
H906 H 0.84598 0.15984 0.31983 0.0
H907 H 0.86021 0.15866 0.29077 0.0
H908 H 0.85019 0.18779 0.30616 0.0
H909 H 0.76153 0.09845 0.24537 0.0
H910 H 0.79324 0.09129 0.2444 0.0
H911 H 0.77636 0.08926 0.27159 0.0
H912 H 0.86972 0.07549 0.25832 0.0
H913 H 0.83262 0.07467 0.3263 0.0
H914 H 0.85419 0.13516 0.24868 0.0
H915 H 0.83222 0.11095 0.23185 0.0
H916 H 0.86454 0.10609 0.23356 0.0
H917 H 0.81012 0.13323 0.33112 0.0
H918 H 0.80502 0.10312 0.34085 0.0
H919 H 0.78631 0.10998 0.31581 0.0
C920 C 0.38593 0.00989 0.96744 0.0
C921 C 0.388 0.03437 0.98132 0.0
C922 C 0.36877 0.99068 0.97298 0.0
C923 C 0.3538 0.99565 0.99353 0.0
C924 C 0.3558 0.02016 0.00782 0.0
C925 C 0.37259 0.03931 0.00133 0.0
C926 C 0.36695 0.9649 0.95698 0.0
C927 C 0.34057 0.02602 0.03022 0.0
C928 C 0.29743 0.94781 0.99469 0.0
C929 C 0.30737 0.93073 0.00756 0.0
C930 C 0.31206 0.96961 0.99068 0.0
C931 C 0.33689 0.97474 1.00044 0.0
C932 C 0.34638 0.95834 0.01487 0.0
C933 C 0.33164 0.93631 0.01788 0.0
C934 C 0.30146 0.98624 0.97466 0.0
C935 C 0.37247 0.9635 0.02625 0.0
H936 H 0.39805 0.00549 0.95234 0.0
H937 H 0.37355 0.05815 0.01199 0.0
H938 H 0.37323 0.95114 0.96787 0.0
H939 H 0.34736 0.95841 0.95064 0.0
H940 H 0.37838 0.96468 0.94051 0.0
H941 H 0.34421 0.04606 0.03934 0.0
H942 H 0.32051 0.02167 0.02492 0.0
H943 H 0.34482 0.01397 0.04382 0.0
H944 H 0.27871 0.94339 0.98656 0.0
H945 H 0.33925 0.9232 0.02804 0.0
H946 H 0.31108 0.98461 0.957 0.0
H947 H 0.30463 0.00626 0.98378 0.0
H948 H 0.28124 0.98103 0.97042 0.0
H949 H 0.38599 0.96085 0.01151 0.0
H950 H 0.37587 0.95079 0.0395 0.0
H951 H 0.37614 0.98328 0.03603 0.0
C952 C 0.28375 0.39195 0.31467 0.0
C953 C 0.28956 0.39748 0.34007 0.0
C954 C 0.26513 0.40362 0.30423 0.0
C955 C 0.252 0.42089 0.31974 0.0
C956 C 0.25861 0.42708 0.34534 0.0
C957 C 0.27737 0.41527 0.35518 0.0
C958 C 0.25878 0.39668 0.27686 0.0
C959 C 0.24503 0.44521 0.36257 0.0
C960 C 0.21058 0.46409 0.29467 0.0
C961 C 0.18696 0.4509 0.29527 0.0
C962 C 0.23208 0.45419 0.30174 0.0
C963 C 0.22986 0.4307 0.30986 0.0
C964 C 0.20611 0.41712 0.31007 0.0
C965 C 0.18502 0.4273 0.30268 0.0
C966 C 0.25711 0.46907 0.30098 0.0
C967 C 0.20286 0.39211 0.31881 0.0
H968 H 0.29323 0.378 0.30311 0.0
H969 H 0.2819 0.41932 0.3749 0.0
H970 H 0.24018 0.38568 0.27373 0.0
H971 H 0.25792 0.41389 0.26865 0.0
H972 H 0.27247 0.38527 0.267 0.0
H973 H 0.25359 0.44935 0.38162 0.0
H974 H 0.24476 0.46317 0.35558 0.0
H975 H 0.22546 0.43712 0.36337 0.0
H976 H 0.2123 0.48225 0.28881 0.0
H977 H 0.16689 0.41691 0.30322 0.0
H978 H 0.26992 0.45712 0.29038 0.0
H979 H 0.26542 0.47509 0.32001 0.0
H980 H 0.25588 0.48606 0.29248 0.0
H981 H 0.21435 0.37876 0.3081 0.0
H982 H 0.18323 0.38349 0.31699 0.0
H983 H 0.20931 0.39467 0.3385 0.0
C984 C 0.12769 0.06042 0.46686 0.0
C985 C 0.12235 0.04121 0.48065 0.0
C986 C 0.1523 0.06989 0.46382 0.0
C987 C 0.17199 0.05982 0.47475 0.0
C988 C 0.16672 0.04007 0.48826 0.0
C989 C 0.14195 0.03103 0.49108 0.0
C990 C 0.15721 0.09104 0.44937 0.0
C991 C 0.18723 0.02874 0.50005 0.0
C992 C 0.23681 0.07019 0.45127 0.0
C993 C 0.24804 0.08994 0.46937 0.0
C994 C 0.21202 0.06027 0.45272 0.0
C995 C 0.19811 0.07041 0.47267 0.0
C996 C 0.20924 0.09046 0.49087 0.0
C997 C 0.23408 0.09995 0.48903 0.0
C998 C 0.20078 0.0388 0.43302 0.0
C999 C 0.19495 0.1018 0.51239 0.0
H1000 H 0.11258 0.06853 0.45901 0.0
H1001 H 0.13788 0.01598 0.50151 0.0
H1002 H 0.1668 0.10794 0.46161 0.0
H1003 H 0.16969 0.08561 0.43419 0.0
H1004 H 0.13987 0.09618 0.44133 0.0
H1005 H 0.18001 0.01294 0.50927 0.0
H1006 H 0.20018 0.02171 0.48589 0.0
H1007 H 0.19811 0.04336 0.51397 0.0
H1008 H 0.24744 0.06229 0.43603 0.0
H1009 H 0.24256 0.11523 0.50308 0.0
H1010 H 0.18408 0.04418 0.42405 0.0
H1011 H 0.19467 0.02219 0.44153 0.0
H1012 H 0.21402 0.03322 0.41857 0.0
H1013 H 0.17807 0.10881 0.50553 0.0
H1014 H 0.20618 0.11762 0.52473 0.0
H1015 H 0.18872 0.0872 0.52343 0.0
C1016 C 0.75046 0.1783 0.75716 0.0
C1017 C 0.77315 0.17251 0.74732 0.0
C1018 C 0.73255 0.1592 0.76187 0.0
C1019 C 0.7375 0.13376 0.7566 0.0
C1020 C 0.75973 0.12776 0.74526 0.0
C1021 C 0.77725 0.14719 0.74073 0.0
C1022 C 0.709 0.16636 0.7738 0.0
C1023 C 0.76566 0.10089 0.73915 0.0
C1024 C 0.70969 0.08749 0.79568 0.0
C1025 C 0.69079 0.07332 0.77968 0.0
C1026 C 0.72464 0.10753 0.78855 0.0
C1027 C 0.72059 0.11363 0.76484 0.0
C1028 C 0.7012 0.09979 0.74879 0.0
C1029 C 0.68654 0.07978 0.75639 0.0
C1030 C 0.74515 0.12184 0.80622 0.0
C1031 C 0.69626 0.10578 0.72342 0.0
H1032 H 0.74727 0.19783 0.76247 0.0
H1033 H 0.79465 0.14263 0.73283 0.0
H1034 H 0.69259 0.15452 0.76395 0.0
H1035 H 0.70942 0.16297 0.79313 0.0
H1036 H 0.70662 0.18647 0.77404 0.0
H1037 H 0.78267 0.09921 0.72846 0.0
H1038 H 0.76845 0.09349 0.75649 0.0
H1039 H 0.74994 0.08878 0.72834 0.0
H1040 H 0.71309 0.0827 0.81372 0.0
H1041 H 0.67193 0.06901 0.74391 0.0
H1042 H 0.74308 0.14224 0.80948 0.0
H1043 H 0.7634 0.11952 0.798 0.0
H1044 H 0.7453 0.11535 0.8243 0.0
H1045 H 0.69362 0.12595 0.72481 0.0
H1046 H 0.6796 0.09418 0.71372 0.0
H1047 H 0.71252 0.10241 0.712 0.0
C1048 C 0.40309 0.98881 0.5478 0.0
C1049 C 0.42859 0.98708 0.54824 0.0
C1050 C 0.39351 0.00939 0.54023 0.0
C1051 C 0.40995 0.02865 0.53301 0.0
C1052 C 0.43593 0.02765 0.53494 0.0
C1053 C 0.44498 0.00664 0.54238 0.0
C1054 C 0.36571 0.00961 0.53835 0.0
C1055 C 0.45405 0.04796 0.52777 0.0
C1056 C 0.38126 0.05891 0.48368 0.0
C1057 C 0.37293 0.08027 0.49773 0.0
C1058 C 0.39442 0.04263 0.49484 0.0
C1059 C 0.39963 0.04793 0.5207 0.0
C1060 C 0.39266 0.07026 0.53479 0.0
C1061 C 0.37927 0.08613 0.52316 0.0
C1062 C 0.40146 0.01898 0.47911 0.0
C1063 C 0.39826 0.07676 0.56232 0.0
H1064 H 0.39053 0.97342 0.55218 0.0
H1065 H 0.46474 0.00502 0.54261 0.0
H1066 H 0.36047 0.02797 0.5477 0.0
H1067 H 0.35941 0.00713 0.51862 0.0
H1068 H 0.35565 0.9944 0.54664 0.0
H1069 H 0.47341 0.0465 0.534 0.0
H1070 H 0.45329 0.04637 0.50738 0.0
H1071 H 0.44904 0.06688 0.53573 0.0
H1072 H 0.37662 0.05425 0.46402 0.0
H1073 H 0.37308 0.10268 0.53417 0.0
H1074 H 0.39084 0.00226 0.48447 0.0
H1075 H 0.42146 0.01732 0.48221 0.0
H1076 H 0.39763 0.01852 0.45908 0.0
H1077 H 0.38638 0.06369 0.5717 0.0
H1078 H 0.39479 0.09633 0.56998 0.0
H1079 H 0.41786 0.07447 0.56679 0.0
C1080 C 0.61559 0.48723 0.52921 0.0
C1081 C 0.59421 0.48126 0.54183 0.0
C1082 C 0.63604 0.47337 0.52933 0.0
C1083 C 0.63524 0.45304 0.54246 0.0
C1084 C 0.61388 0.44711 0.5555 0.0
C1085 C 0.59364 0.46122 0.55499 0.0
C1086 C 0.65846 0.48037 0.51521 0.0
C1087 C 0.61228 0.42563 0.56977 0.0
C1088 C 0.67835 0.40273 0.52344 0.0
C1089 C 0.69807 0.40998 0.54116 0.0
C1090 C 0.65772 0.41643 0.52377 0.0
C1091 C 0.65668 0.43787 0.54232 0.0
C1092 C 0.67635 0.44507 0.56047 0.0
C1093 C 0.69679 0.4311 0.55965 0.0
C1094 C 0.63719 0.40814 0.50404 0.0
C1095 C 0.67592 0.46773 0.58063 0.0
H1096 H 0.61637 0.50286 0.51926 0.0
H1097 H 0.57711 0.45616 0.56448 0.0
H1098 H 0.67521 0.48496 0.52789 0.0
H1099 H 0.66184 0.46415 0.50091 0.0
H1100 H 0.65624 0.49676 0.50604 0.0
H1101 H 0.59467 0.42386 0.57951 0.0
H1102 H 0.61366 0.40767 0.55702 0.0
H1103 H 0.62805 0.42835 0.58359 0.0
H1104 H 0.67914 0.38648 0.50905 0.0
H1105 H 0.71187 0.43687 0.57346 0.0
H1106 H 0.63538 0.42334 0.49317 0.0
H1107 H 0.61921 0.4046 0.51268 0.0
H1108 H 0.64054 0.39079 0.49118 0.0
H1109 H 0.67543 0.48493 0.57236 0.0
H1110 H 0.69234 0.47048 0.59373 0.0
H1111 H 0.65889 0.46566 0.59116 0.0
C1112 C 0.71747 0.2395 0.33669 0.0
C1113 C 0.73931 0.24136 0.32378 0.0
C1114 C 0.71637 0.25298 0.36083 0.0
C1115 C 0.73751 0.26892 0.37204 0.0
C1116 C 0.75906 0.27198 0.35837 0.0
C1117 C 0.75978 0.25793 0.33452 0.0
C1118 C 0.69319 0.24892 0.37485 0.0
C1119 C 0.78185 0.28912 0.36938 0.0
C1120 C 0.73613 0.31634 0.43164 0.0
C1121 C 0.74786 0.30422 0.4485 0.0
C1122 C 0.73154 0.30469 0.40676 0.0
C1123 C 0.73839 0.2802 0.39882 0.0
C1124 C 0.74859 0.26728 0.41627 0.0
C1125 C 0.75347 0.27955 0.44079 0.0
C1126 C 0.72092 0.31922 0.3887 0.0
C1127 C 0.75565 0.24095 0.40879 0.0
H1128 H 0.70171 0.2265 0.3284 0.0
H1129 H 0.77663 0.25939 0.32444 0.0
H1130 H 0.69695 0.23789 0.38949 0.0
H1131 H 0.68764 0.26717 0.38411 0.0
H1132 H 0.67742 0.23858 0.36264 0.0
H1133 H 0.79592 0.29161 0.35543 0.0
H1134 H 0.77673 0.30788 0.37769 0.0
H1135 H 0.79047 0.28111 0.38435 0.0
H1136 H 0.73195 0.3355 0.43751 0.0
H1137 H 0.76237 0.27006 0.45384 0.0
H1138 H 0.70583 0.30734 0.37675 0.0
H1139 H 0.73565 0.3248 0.37646 0.0
H1140 H 0.71357 0.3365 0.3982 0.0
H1141 H 0.74011 0.22857 0.39794 0.0
H1142 H 0.76067 0.2325 0.425 0.0
H1143 H 0.77177 0.24137 0.39682 0.0
C1144 C 0.4837 0.06272 0.87338 0.0
C1145 C 0.48361 0.06999 0.89899 0.0
C1146 C 0.50546 0.05634 0.8619 0.0
C1147 C 0.5276 0.05732 0.87651 0.0
C1148 C 0.52783 0.06617 0.90233 0.0
C1149 C 0.50566 0.07225 0.91335 0.0
C1150 C 0.50431 0.04692 0.83436 0.0
C1151 C 0.55109 0.06779 0.91847 0.0
C1152 C 0.56806 0.00783 0.84957 0.0
C1153 C 0.58495 0.0214 0.83652 0.0
C1154 C 0.55019 0.01965 0.86374 0.0
C1155 C 0.54917 0.04579 0.86509 0.0
C1156 C 0.56715 0.05996 0.85332 0.0
C1157 C 0.58484 0.04757 0.83909 0.0
C1158 C 0.53144 0.00379 0.87604 0.0
C1159 C 0.56689 0.08792 0.85465 0.0
H1160 H 0.46646 0.06093 0.86242 0.0
H1161 H 0.50536 0.07785 0.93324 0.0
H1162 H 0.51962 0.05684 0.82557 0.0
H1163 H 0.50666 0.02656 0.83072 0.0
H1164 H 0.48639 0.04951 0.82541 0.0
H1165 H 0.5493 0.0788 0.93721 0.0
H1166 H 0.55497 0.04856 0.92044 0.0
H1167 H 0.5673 0.07656 0.90991 0.0
H1168 H 0.56816 0.98766 0.84799 0.0
H1169 H 0.59789 0.05825 0.82919 0.0
H1170 H 0.51274 0.00332 0.86714 0.0
H1171 H 0.53045 0.01213 0.89582 0.0
H1172 H 0.53592 0.98412 0.87477 0.0
H1173 H 0.55091 0.09139 0.84318 0.0
H1174 H 0.58417 0.09678 0.84786 0.0
H1175 H 0.56452 0.09727 0.8739 0.0
C1176 C 0.32345 0.27745 0.38231 0.0
C1177 C 0.34616 0.28833 0.37528 0.0
C1178 C 0.32232 0.25668 0.39446 0.0
C1179 C 0.34448 0.24669 0.39993 0.0
C1180 C 0.36752 0.25783 0.3932 0.0
C1181 C 0.36808 0.27845 0.38081 0.0
C1182 C 0.29734 0.24514 0.40104 0.0
C1183 C 0.39155 0.24786 0.39894 0.0
C1184 C 0.34103 0.20518 0.44911 0.0
C1185 C 0.33766 0.18099 0.43467 0.0
C1186 C 0.34399 0.22675 0.43808 0.0
C1187 C 0.34332 0.22408 0.412 0.0
C1188 C 0.34044 0.19973 0.39734 0.0
C1189 C 0.33776 0.17851 0.40884 0.0
C1190 C 0.34728 0.25241 0.45432 0.0
C1191 C 0.33945 0.19609 0.36946 0.0
H1192 H 0.30645 0.28486 0.37779 0.0
H1193 H 0.38568 0.28697 0.37559 0.0
H1194 H 0.29383 0.22528 0.39147 0.0
H1195 H 0.29718 0.24504 0.42118 0.0
H1196 H 0.28192 0.25542 0.39585 0.0
H1197 H 0.40798 0.25919 0.39326 0.0
H1198 H 0.39368 0.24777 0.41904 0.0
H1199 H 0.39126 0.22811 0.38929 0.0
H1200 H 0.34108 0.20729 0.46907 0.0
H1201 H 0.33513 0.15994 0.39748 0.0
H1202 H 0.33119 0.26269 0.45122 0.0
H1203 H 0.36411 0.26369 0.44943 0.0
H1204 H 0.34894 0.25127 0.47426 0.0
H1205 H 0.3232 0.20435 0.36289 0.0
H1206 H 0.33801 0.17591 0.36074 0.0
H1207 H 0.35628 0.20605 0.36301 0.0
C1208 C 0.55822 0.50391 0.88275 0.0
C1209 C 0.54782 0.48813 0.89851 0.0
C1210 C 0.54321 0.51379 0.86642 0.0
C1211 C 0.51723 0.50698 0.86503 0.0
C1212 C 0.50666 0.49054 0.88028 0.0
C1213 C 0.52196 0.48177 0.89711 0.0
C1214 C 0.55509 0.53182 0.85095 0.0
C1215 C 0.47908 0.48231 0.87899 0.0
C1216 C 0.4694 0.54509 0.8428 0.0
C1217 C 0.46311 0.53168 0.81895 0.0
C1218 C 0.48849 0.53849 0.85731 0.0
C1219 C 0.5008 0.51731 0.84809 0.0
C1220 C 0.49525 0.50442 0.82355 0.0
C1221 C 0.47671 0.51207 0.80911 0.0
C1222 C 0.49449 0.55333 0.883 0.0
C1223 C 0.50735 0.48129 0.81326 0.0
H1224 H 0.57814 0.5086 0.88306 0.0
H1225 H 0.51345 0.47015 0.90945 0.0
H1226 H 0.55126 0.5241 0.83103 0.0
H1227 H 0.54693 0.54991 0.85483 0.0
H1228 H 0.57551 0.53567 0.85457 0.0
H1229 H 0.47406 0.46789 0.89064 0.0
H1230 H 0.46891 0.49876 0.88523 0.0
H1231 H 0.47258 0.47444 0.85962 0.0
H1232 H 0.45886 0.56028 0.85038 0.0
H1233 H 0.47156 0.50145 0.79078 0.0
H1234 H 0.51488 0.55742 0.88656 0.0
H1235 H 0.48723 0.54208 0.89682 0.0
H1236 H 0.48616 0.57138 0.88591 0.0
H1237 H 0.52778 0.48478 0.81654 0.0
H1238 H 0.50306 0.47511 0.79312 0.0
H1239 H 0.50063 0.46567 0.8229 0.0
C1240 C 0.79565 0.73843 0.1521 0.0
C1241 C 0.80222 0.72848 0.17296 0.0
C1242 C 0.80012 0.72635 0.12822 0.0
C1243 C 0.81144 0.70376 0.12514 0.0
C1244 C 0.81829 0.69371 0.14611 0.0
C1245 C 0.8136 0.70619 0.16978 0.0
C1246 C 0.79247 0.73759 0.10629 0.0
C1247 C 0.83046 0.66969 0.14355 0.0
C1248 C 0.80104 0.65939 0.06351 0.0
C1249 C 0.82326 0.66474 0.05198 0.0
C1250 C 0.79697 0.67195 0.0873 0.0
C1251 C 0.81558 0.69032 0.09991 0.0
C1252 C 0.83806 0.69584 0.08842 0.0
C1253 C 0.84163 0.68298 0.06457 0.0
C1254 C 0.77274 0.66558 0.09894 0.0
C1255 C 0.85831 0.71533 0.10132 0.0
H1256 H 0.78659 0.75549 0.15443 0.0
H1257 H 0.81904 0.69861 0.18585 0.0
H1258 H 0.80871 0.74104 0.095 0.0
H1259 H 0.77849 0.72415 0.09429 0.0
H1260 H 0.78446 0.7556 0.11188 0.0
H1261 H 0.835 0.66458 0.16173 0.0
H1262 H 0.81797 0.65396 0.13253 0.0
H1263 H 0.84779 0.67169 0.13347 0.0
H1264 H 0.78672 0.64534 0.05393 0.0
H1265 H 0.85885 0.68724 0.05582 0.0
H1266 H 0.76306 0.68267 0.1035 0.0
H1267 H 0.77636 0.65887 0.11651 0.0
H1268 H 0.76017 0.65084 0.08666 0.0
H1269 H 0.8511 0.73387 0.10589 0.0
H1270 H 0.87472 0.71737 0.08988 0.0
H1271 H 0.86438 0.71012 0.119 0.0
C1272 C 0.00878 0.04172 0.12787 0.0
C1273 C 0.01504 0.02003 0.11252 0.0
C1274 C 0.99375 0.04007 0.14808 0.0
C1275 C 0.98475 0.01614 0.15325 0.0
C1276 C 0.99157 0.99417 0.13828 0.0
C1277 C 0.00659 0.99637 0.11811 0.0
C1278 C 0.98704 0.06398 0.16358 0.0
C1279 C 0.98243 0.9683 0.14317 0.0
C1280 C 0.95969 0.01293 0.21698 0.0
C1281 C 0.93398 0.01172 0.21223 0.0
C1282 C 0.97643 0.0141 0.19797 0.0
C1283 C 0.96729 0.01415 0.1736 0.0
C1284 C 0.94137 0.01284 0.16869 0.0
C1285 C 0.92507 0.0116 0.188 0.0
C1286 C 0.00391 0.01543 0.20398 0.0
C1287 C 0.93081 0.01294 0.14301 0.0
H1288 H 0.01555 0.06009 0.124 0.0
H1289 H 0.01111 0.97949 0.10627 0.0
H1290 H 0.96667 0.06451 0.16217 0.0
H1291 H 0.99225 0.06448 0.18332 0.0
H1292 H 0.99634 0.08113 0.15776 0.0
H1293 H 0.99058 0.95317 0.1308 0.0
H1294 H 0.98704 0.96691 0.16263 0.0
H1295 H 0.96193 0.965 0.14043 0.0
H1296 H 0.9668 0.01297 0.2356 0.0
H1297 H 0.90528 0.01068 0.18407 0.0
H1298 H 0.01358 0.03312 0.19968 0.0
H1299 H 0.01173 0.99959 0.19236 0.0
H1300 H 0.00803 0.01469 0.22372 0.0
H1301 H 0.93811 0.03054 0.13671 0.0
H1302 H 0.91021 0.01145 0.14215 0.0
H1303 H 0.93672 0.99701 0.12984 0.0
C1304 C 0.26786 0.74643 0.13792 0.0
C1305 C 0.27237 0.75717 0.16283 0.0
C1306 C 0.25998 0.76074 0.12078 0.0
C1307 C 0.2568 0.78643 0.12882 0.0
C1308 C 0.25905 0.79653 0.15443 0.0
C1309 C 0.267 0.78177 0.17116 0.0
C1310 C 0.25766 0.74909 0.09373 0.0
C1311 C 0.25557 0.82365 0.16391 0.0
C1312 C 0.28047 0.82787 0.08374 0.0
C1313 C 0.25861 0.83184 0.07149 0.0
C1314 C 0.2799 0.81402 0.10298 0.0
C1315 C 0.25681 0.80365 0.11033 0.0
C1316 C 0.23451 0.80862 0.09896 0.0
C1317 C 0.23565 0.82276 0.07963 0.0
C1318 C 0.30421 0.80959 0.11469 0.0
C1319 C 0.20954 0.79809 0.1064 0.0
H1320 H 0.27226 0.72743 0.13152 0.0
H1321 H 0.27072 0.7901 0.19047 0.0
H1322 H 0.24096 0.75442 0.08473 0.0
H1323 H 0.2741 0.75623 0.08435 0.0
H1324 H 0.25656 0.72823 0.09091 0.0
H1325 H 0.25278 0.82708 0.1841 0.0
H1326 H 0.27231 0.83591 0.16037 0.0
H1327 H 0.23946 0.82928 0.15418 0.0
H1328 H 0.29829 0.83513 0.0778 0.0
H1329 H 0.21869 0.82571 0.0702 0.0
H1330 H 0.30639 0.78921 0.11094 0.0
H1331 H 0.3044 0.81557 0.13503 0.0
H1332 H 0.32048 0.81995 0.10761 0.0
H1333 H 0.20657 0.77753 0.09934 0.0
H1334 H 0.19415 0.80693 0.09887 0.0
H1335 H 0.20877 0.80084 0.12681 0.0
C1336 C 0.04185 0.4745 0.09752 0.0
C1337 C 0.05517 0.46063 0.07952 0.0
C1338 C 0.04984 0.47895 0.12257 0.0
C1339 C 0.0717 0.46937 0.12972 0.0
C1340 C 0.08548 0.45584 0.11155 0.0
C1341 C 0.07706 0.45166 0.08671 0.0
C1342 C 0.03464 0.49342 0.14145 0.0
C1343 C 0.10894 0.44542 0.11838 0.0
C1344 C 0.10511 0.49507 0.19206 0.0
C1345 C 0.09727 0.47635 0.20577 0.0
C1346 C 0.09652 0.49336 0.16743 0.0
C1347 C 0.0797 0.47246 0.15626 0.0
C1348 C 0.0714 0.45375 0.17012 0.0
C1349 C 0.08028 0.45591 0.19466 0.0
C1350 C 0.10578 0.51368 0.15322 0.0
C1351 C 0.05346 0.43118 0.15887 0.0
H1352 H 0.02487 0.48138 0.09207 0.0
H1353 H 0.08772 0.44138 0.07281 0.0
H1354 H 0.02726 0.48109 0.15432 0.0
H1355 H 0.04648 0.50954 0.15265 0.0
H1356 H 0.01881 0.50066 0.13277 0.0
H1357 H 0.11794 0.43605 0.10193 0.0
H1358 H 0.12239 0.46076 0.12867 0.0
H1359 H 0.10465 0.43155 0.13075 0.0
H1360 H 0.11814 0.51098 0.2005 0.0
H1361 H 0.074 0.44139 0.20509 0.0
H1362 H 0.08987 0.52154 0.14544 0.0
H1363 H 0.11641 0.50553 0.13743 0.0
H1364 H 0.11792 0.52929 0.1649 0.0
H1365 H 0.03646 0.4374 0.15132 0.0
H1366 H 0.04799 0.41886 0.17244 0.0
H1367 H 0.06201 0.41988 0.14324 0.0
C1368 C 0.37239 0.69576 0.23944 0.0
C1369 C 0.35097 0.7003 0.2524 0.0
C1370 C 0.39536 0.69614 0.25199 0.0
C1371 C 0.39702 0.70164 0.27816 0.0
C1372 C 0.37518 0.70491 0.29134 0.0
C1373 C 0.35237 0.70404 0.27829 0.0
C1374 C 0.41808 0.69217 0.23721 0.0
C1375 C 0.37614 0.71115 0.3192 0.0
C1376 C 0.45777 0.69655 0.31297 0.0
C1377 C 0.46936 0.7213 0.31556 0.0
C1378 C 0.43419 0.68965 0.30075 0.0
C1379 C 0.42186 0.70806 0.29137 0.0
C1380 C 0.4334 0.73308 0.2943 0.0
C1381 C 0.45694 0.73929 0.30613 0.0
C1382 C 0.42258 0.66272 0.29765 0.0
C1383 C 0.42086 0.75344 0.28493 0.0
H1384 H 0.37127 0.69245 0.2194 0.0
H1385 H 0.33584 0.70759 0.28836 0.0
H1386 H 0.42981 0.71041 0.23831 0.0
H1387 H 0.42941 0.67922 0.24491 0.0
H1388 H 0.41319 0.68436 0.21743 0.0
H1389 H 0.35734 0.70976 0.32672 0.0
H1390 H 0.38739 0.69841 0.32728 0.0
H1391 H 0.3852 0.73065 0.3253 0.0
H1392 H 0.46724 0.68255 0.32018 0.0
H1393 H 0.46553 0.75856 0.30825 0.0
H1394 H 0.41927 0.65476 0.27771 0.0
H1395 H 0.40426 0.66189 0.30615 0.0
H1396 H 0.43442 0.65071 0.30614 0.0
H1397 H 0.41758 0.74854 0.26459 0.0
H1398 H 0.43205 0.77215 0.28938 0.0
H1399 H 0.4025 0.75496 0.29313 0.0
C1400 C 0.02371 0.38989 0.98124 0.0
C1401 C 0.04282 0.40121 0.99852 0.0
C1402 C 0.02608 0.36722 0.96532 0.0
C1403 C 0.0482 0.35571 0.96655 0.0
C1404 C 0.06714 0.3665 0.98465 0.0
C1405 C 0.06419 0.38911 0.0005 0.0
C1406 C 0.00533 0.35618 0.94645 0.0
C1407 C 0.09106 0.3549 0.98644 0.0
C1408 C 0.04766 0.28896 0.93084 0.0
C1409 C 0.0568 0.2936 0.90824 0.0
C1410 C 0.04529 0.30895 0.95034 0.0
C1411 C 0.05248 0.33403 0.94718 0.0
C1412 C 0.06266 0.33867 0.92476 0.0
C1413 C 0.06458 0.31844 0.90558 0.0
C1414 C 0.03427 0.30331 0.97396 0.0
C1415 C 0.07083 0.3651 0.92072 0.0
H1416 H 0.00701 0.39903 0.97994 0.0
H1417 H 0.07907 0.39789 0.01374 0.0
H1418 H 0.0116 0.35757 0.92765 0.0
H1419 H 1.00033 0.33593 0.947 0.0
H1420 H 0.98845 0.36603 0.94949 0.0
H1421 H 0.10271 0.36396 0.00317 0.0
H1422 H 0.08717 0.33448 0.98678 0.0
H1423 H 0.10186 0.35687 0.9699 0.0
H1424 H 0.04157 0.26982 0.933 0.0
H1425 H 0.07191 0.32218 0.88827 0.0
H1426 H 0.01609 0.31088 0.97608 0.0
H1427 H 0.04646 0.31274 0.99014 0.0
H1428 H 0.03143 0.28279 0.97426 0.0
H1429 H 0.05456 0.3759 0.92106 0.0
H1430 H 0.07975 0.36537 0.90281 0.0
H1431 H 0.08414 0.37499 0.93583 0.0
C1432 C 0.72307 0.74367 0.30058 0.0
C1433 C 0.72615 0.72842 0.27793 0.0
C1434 C 0.69957 0.74399 0.31074 0.0
C1435 C 0.67885 0.72866 0.29783 0.0
C1436 C 0.68216 0.71291 0.27507 0.0
C1437 C 0.70585 0.71299 0.26538 0.0
C1438 C 0.69681 0.76109 0.335 0.0
C1439 C 0.66059 0.6964 0.26067 0.0
C1440 C 0.61933 0.71716 0.33168 0.0
C1441 C 0.60527 0.73521 0.32461 0.0
C1442 C 0.64335 0.71471 0.32311 0.0
C1443 C 0.65344 0.73063 0.30708 0.0
C1444 C 0.63918 0.74862 0.29967 0.0
C1445 C 0.61538 0.75068 0.30849 0.0
C1446 C 0.65802 0.69527 0.33135 0.0
C1447 C 0.64915 0.76589 0.28252 0.0
H1448 H 0.73898 0.75545 0.31025 0.0
H1449 H 0.70847 0.7011 0.24788 0.0
H1450 H 0.6847 0.77565 0.3321 0.0
H1451 H 0.68772 0.75018 0.34825 0.0
H1452 H 0.71494 0.77065 0.34341 0.0
H1453 H 0.66654 0.68416 0.24404 0.0
H1454 H 0.65083 0.68431 0.27256 0.0
H1455 H 0.64701 0.70831 0.25469 0.0
H1456 H 0.61173 0.70518 0.34414 0.0
H1457 H 0.60471 0.76465 0.30278 0.0
H1458 H 0.67545 0.70464 0.34141 0.0
H1459 H 0.66333 0.6822 0.31503 0.0
H1460 H 0.64745 0.68413 0.34359 0.0
H1461 H 0.6664 0.7774 0.29089 0.0
H1462 H 0.63562 0.77877 0.2784 0.0
H1463 H 0.65398 0.75463 0.26484 0.0
C1464 C 0.06584 0.10219 0.00403 0.0
C1465 C 0.05034 0.07944 0.99931 0.0
C1466 C 0.07025 0.11668 0.98538 0.0
C1467 C 0.05873 0.10821 0.96152 0.0
C1468 C 0.04385 0.08462 0.95649 0.0
C1469 C 0.03975 0.07054 0.97553 0.0
C1470 C 0.08626 0.14164 0.99157 0.0
C1471 C 0.03131 0.07481 0.93134 0.0
C1472 C 0.04584 0.15812 0.92328 0.0
C1473 C 0.06524 0.15706 0.9069 0.0
C1474 C 0.04346 0.14225 0.94099 0.0
C1475 C 0.06087 0.12478 0.9424 0.0
C1476 C 0.08037 0.12344 0.92578 0.0
C1477 C 0.08234 0.13958 0.90828 0.0
C1478 C 0.02239 0.14434 0.95835 0.0
C1479 C 0.09927 0.10507 0.92662 0.0
H1480 H 0.07369 0.10917 0.0226 0.0
H1481 H 0.02745 0.05308 0.97207 0.0
H1482 H 0.10075 0.14291 0.97785 0.0
H1483 H 0.07469 0.15715 0.99068 0.0
H1484 H 0.09544 0.14459 0.01031 0.0
H1485 H 0.02217 0.05525 0.9298 0.0
H1486 H 0.01705 0.0871 0.9277 0.0
H1487 H 0.04498 0.07528 0.91674 0.0
H1488 H 0.03253 0.17153 0.92242 0.0
H1489 H 0.0974 0.13854 0.89573 0.0
H1490 H 0.02991 0.14943 0.97774 0.0
H1491 H 0.01088 0.1259 0.95657 0.0
H1492 H 0.01027 0.15867 0.95471 0.0
H1493 H 0.1093 0.10901 0.94496 0.0
H1494 H 0.11305 0.10601 0.91214 0.0
H1495 H 0.0898 0.08559 0.92415 0.0
C1496 C 0.38923 0.35049 0.30004 0.0
C1497 C 0.37441 0.32887 0.30402 0.0
C1498 C 0.40393 0.34993 0.27933 0.0
C1499 C 0.4037 0.32722 0.26216 0.0
C1500 C 0.38863 0.3054 0.26601 0.0
C1501 C 0.37419 0.30649 0.28686 0.0
C1502 C 0.41976 0.37357 0.27586 0.0
C1503 C 0.38765 0.28088 0.24802 0.0
C1504 C 0.42083 0.32802 0.19588 0.0
C1505 C 0.4446 0.31994 0.19561 0.0
C1506 C 0.40769 0.33124 0.21759 0.0
C1507 C 0.41852 0.32632 0.23968 0.0
C1508 C 0.44286 0.31907 0.23982 0.0
C1509 C 0.45563 0.31597 0.21777 0.0
C1510 C 0.38181 0.33903 0.21664 0.0
C1511 C 0.45505 0.31375 0.26307 0.0
H1512 H 0.3897 0.36776 0.31339 0.0
H1513 H 0.36253 0.2898 0.28967 0.0
H1514 H 0.43953 0.3701 0.27497 0.0
H1515 H 0.41433 0.37897 0.25808 0.0
H1516 H 0.41807 0.38962 0.29102 0.0
H1517 H 0.3753 0.26552 0.25392 0.0
H1518 H 0.38089 0.28344 0.2295 0.0
H1519 H 0.40655 0.27494 0.24606 0.0
H1520 H 0.41216 0.3313 0.17892 0.0
H1521 H 0.47397 0.30977 0.21777 0.0
H1522 H 0.38022 0.35566 0.23114 0.0
H1523 H 0.36818 0.32356 0.22042 0.0
H1524 H 0.37666 0.34367 0.19841 0.0
H1525 H 0.45444 0.32983 0.27844 0.0
H1526 H 0.47469 0.31016 0.26059 0.0
H1527 H 0.44472 0.29701 0.26867 0.0
C1528 C 0.56648 0.42152 0.01546 0.0
C1529 C 0.56524 0.40553 0.99252 0.0
C1530 C 0.56063 0.41187 0.03703 0.0
C1531 C 0.55303 0.38578 0.03532 0.0
C1532 C 0.55323 0.3695 0.01224 0.0
C1533 C 0.55937 0.37962 0.9911 0.0
C1534 C 0.56104 0.42979 0.06131 0.0
C1535 C 0.54515 0.34162 0.00948 0.0
C1536 C 0.54298 0.35186 0.09003 0.0
C1537 C 0.51704 0.35014 0.09118 0.0
C1538 C 0.55531 0.3647 0.07286 0.0
C1539 C 0.54133 0.3759 0.05646 0.0
C1540 C 0.51535 0.37543 0.05857 0.0
C1541 C 0.50358 0.36266 0.07591 0.0
C1542 C 0.58308 0.36516 0.07145 0.0
C1543 C 0.49967 0.38714 0.04152 0.0
H1544 H 0.57095 0.44163 0.01638 0.0
H1545 H 0.55832 0.36739 0.9732 0.0
H1546 H 0.54174 0.43275 0.0662 0.0
H1547 H 0.56957 0.42182 0.07636 0.0
H1548 H 0.57142 0.44838 0.06043 0.0
H1549 H 0.54874 0.33125 0.99091 0.0
H1550 H 0.55492 0.33347 0.02365 0.0
H1551 H 0.52496 0.33854 0.01238 0.0
H1552 H 0.55356 0.34234 0.10181 0.0
H1553 H 0.48358 0.36174 0.07682 0.0
H1554 H 0.59173 0.3843 0.07001 0.0
H1555 H 0.58745 0.35221 0.05461 0.0
H1556 H 0.59163 0.35923 0.08778 0.0
H1557 H 0.50716 0.407 0.04172 0.0
H1558 H 0.47998 0.38663 0.04668 0.0
H1559 H 0.50023 0.37689 0.02229 0.0
C1560 C 0.67581 0.25627 0.22143 0.0
C1561 C 0.67265 0.23189 0.22677 0.0
C1562 C 0.65598 0.2664 0.21117 0.0
C1563 C 0.63265 0.25162 0.206 0.0
C1564 C 0.62926 0.22731 0.2124 0.0
C1565 C 0.64938 0.21773 0.2227 0.0
C1566 C 0.66032 0.29242 0.20477 0.0
C1567 C 0.60476 0.21091 0.20719 0.0
C1568 C 0.57444 0.2808 0.19112 0.0
C1569 C 0.57252 0.27466 0.16522 0.0
C1570 C 0.5942 0.27394 0.20467 0.0
C1571 C 0.61242 0.26056 0.19204 0.0
C1572 C 0.61083 0.25475 0.16589 0.0
C1573 C 0.59097 0.2619 0.15283 0.0
C1574 C 0.59531 0.28058 0.23251 0.0
C1575 C 0.62986 0.24049 0.15168 0.0
H1576 H 0.69399 0.26704 0.22443 0.0
H1577 H 0.64717 0.19875 0.22668 0.0
H1578 H 0.65959 0.29101 0.18439 0.0
H1579 H 0.64551 0.30387 0.21204 0.0
H1580 H 0.67861 0.30242 0.21226 0.0
H1581 H 0.6046 0.19336 0.21504 0.0
H1582 H 0.58943 0.22135 0.21493 0.0
H1583 H 0.60092 0.20571 0.18693 0.0
H1584 H 0.56033 0.29072 0.20088 0.0
H1585 H 0.58971 0.25709 0.13284 0.0
H1586 H 0.61359 0.29107 0.23925 0.0
H1587 H 0.59342 0.26312 0.24055 0.0
H1588 H 0.58046 0.29217 0.23949 0.0
H1589 H 0.64874 0.25047 0.15655 0.0
H1590 H 0.62641 0.23813 0.13136 0.0
H1591 H 0.62965 0.22157 0.1568 0.0
C1592 C 0.45204 0.1107 0.0312 0.0
C1593 C 0.44785 0.11331 0.00649 0.0
C1594 C 0.45868 0.13184 0.04976 0.0
C1595 C 0.46165 0.15614 0.04341 0.0
C1596 C 0.45899 0.15876 0.01835 0.0
C1597 C 0.45188 0.13742 1.00029 0.0
C1598 C 0.46121 0.12828 0.0763 0.0
C1599 C 0.46233 0.1843 0.01072 0.0
C1600 C 0.4466 0.21406 0.08682 0.0
C1601 C 0.47028 0.22643 0.09439 0.0
C1602 C 0.44361 0.19042 0.07143 0.0
C1603 C 0.46483 0.17907 0.06295 0.0
C1604 C 0.48881 0.19096 0.07137 0.0
C1605 C 0.49125 0.21446 0.08723 0.0
C1606 C 0.41769 0.17816 0.06333 0.0
C1607 C 0.51188 0.17962 0.06249 0.0
H1608 H 0.44956 0.09216 0.03619 0.0
H1609 H 0.44837 0.1399 0.98143 0.0
H1610 H 0.47862 0.13888 0.08535 0.0
H1611 H 0.44557 0.13586 0.08662 0.0
H1612 H 0.4611 0.10814 0.0779 0.0
H1613 H 0.46249 0.18289 0.99033 0.0
H1614 H 0.44695 0.19516 0.01757 0.0
H1615 H 0.47994 0.19514 0.01903 0.0
H1616 H 0.43033 0.22313 0.09256 0.0
H1617 H 0.5096 0.22402 0.09297 0.0
H1618 H 0.41553 0.15829 0.0661 0.0
H1619 H 0.41438 0.17807 0.04331 0.0
H1620 H 0.40323 0.18813 0.07356 0.0
H1621 H 0.51043 0.15941 0.064 0.0
H1622 H 0.5289 0.18948 0.07306 0.0
H1623 H 0.51388 0.18082 0.04269 0.0
C1624 C 0.31435 0.3438 0.71979 0.0
C1625 C 0.32442 0.32981 0.73603 0.0
C1626 C 0.32199 0.36963 0.72153 0.0
C1627 C 0.34031 0.38167 0.73978 0.0
C1628 C 0.35094 0.36748 0.75585 0.0
C1629 C 0.34275 0.34177 0.75388 0.0
C1630 C 0.30998 0.38416 0.70429 0.0
C1631 C 0.37072 0.37956 0.7754 0.0
C1632 C 0.37572 0.44521 0.73584 0.0
C1633 C 0.3644 0.46128 0.75383 0.0
C1634 C 0.3676 0.41928 0.73045 0.0
C1635 C 0.3475 0.40935 0.7431 0.0
C1636 C 0.33516 0.42575 0.76024 0.0
C1637 C 0.34386 0.45146 0.76551 0.0
C1638 C 0.38132 0.40236 0.71216 0.0
C1639 C 0.31338 0.41602 0.7738 0.0
H1640 H 0.30004 0.33464 0.70608 0.0
H1641 H 0.3508 0.33093 0.76624 0.0
H1642 H 0.29966 0.39858 0.71509 0.0
H1643 H 0.32436 0.39425 0.69451 0.0
H1644 H 0.2969 0.37179 0.69034 0.0
H1645 H 0.37805 0.36565 0.78551 0.0
H1646 H 0.38638 0.38926 0.76684 0.0
H1647 H 0.36301 0.39401 0.78894 0.0
H1648 H 0.39166 0.45267 0.72683 0.0
H1649 H 0.33488 0.46381 0.77928 0.0
H1650 H 0.3681 0.39024 0.69823 0.0
H1651 H 0.3911 0.38973 0.72197 0.0
H1652 H 0.39519 0.4132 0.70243 0.0
H1653 H 0.29919 0.40439 0.76052 0.0
H1654 H 0.30452 0.43148 0.78491 0.0
H1655 H 0.31967 0.40377 0.78638 0.0
C1656 C 0.27173 0.66148 0.75703 0.0
C1657 C 0.27784 0.68713 0.76677 0.0
C1658 C 0.28943 0.64436 0.75654 0.0
C1659 C 0.31399 0.65303 0.76593 0.0
C1660 C 0.32055 0.67905 0.77491 0.0
C1661 C 0.30237 0.69577 0.77538 0.0
C1662 C 0.2815 0.61676 0.74711 0.0
C1663 C 0.34655 0.6891 0.78486 0.0
C1664 C 0.34691 0.60522 0.79324 0.0
C1665 C 0.36159 0.59565 0.77394 0.0
C1666 C 0.33199 0.62432 0.79104 0.0
C1667 C 0.33172 0.63444 0.76902 0.0
C1668 C 0.34717 0.62563 0.74975 0.0
C1669 C 0.3619 0.60626 0.7524 0.0
C1670 C 0.3158 0.63302 0.81206 0.0
C1671 C 0.34758 0.63617 0.7261 0.0
H1672 H 0.25277 0.65459 0.7506 0.0
H1673 H 0.3073 0.7156 0.78264 0.0
H1674 H 0.29442 0.60901 0.73326 0.0
H1675 H 0.28218 0.60618 0.76264 0.0
H1676 H 0.26237 0.61333 0.73857 0.0
H1677 H 0.34943 0.71001 0.78844 0.0
H1678 H 0.35027 0.68241 0.80242 0.0
H1679 H 0.36034 0.68194 0.77168 0.0
H1680 H 0.34659 0.59739 0.81009 0.0
H1681 H 0.37321 0.59909 0.73742 0.0
H1682 H 0.29596 0.62863 0.80577 0.0
H1683 H 0.31944 0.65372 0.81797 0.0
H1684 H 0.3189 0.62394 0.82833 0.0
H1685 H 0.32931 0.63095 0.71593 0.0
H1686 H 0.36218 0.62906 0.71387 0.0
H1687 H 0.35076 0.65703 0.73024 0.0
C1688 C 0.89594 0.51501 0.51425 0.0
C1689 C 0.89259 0.52377 0.49194 0.0
C1690 C 0.88007 0.49483 0.52004 0.0
C1691 C 0.86059 0.48288 0.50299 0.0
C1692 C 0.85653 0.49225 0.48092 0.0
C1693 C 0.87241 0.51268 0.47578 0.0
C1694 C 0.8848 0.4856 0.54393 0.0
C1695 C 0.83609 0.47998 0.46215 0.0
C1696 C 0.84082 0.41334 0.50077 0.0
C1697 C 0.8178 0.41348 0.51182 0.0
C1698 C 0.85494 0.43579 0.49806 0.0
C1699 C 0.84606 0.45912 0.50692 0.0
C1700 C 0.82309 0.4595 0.51857 0.0
C1701 C 0.8091 0.43664 0.52071 0.0
C1702 C 0.87915 0.4345 0.4852 0.0
C1703 C 0.81323 0.48403 0.5286 0.0
H1704 H 0.9115 0.52333 0.52682 0.0
H1705 H 0.86924 0.51971 0.45882 0.0
H1706 H 0.86728 0.48314 0.55364 0.0
H1707 H 0.89186 0.46696 0.53991 0.0
H1708 H 0.8986 0.49873 0.5565 0.0
H1709 H 0.83436 0.49054 0.4467 0.0
H1710 H 0.83991 0.46058 0.45436 0.0
H1711 H 0.81804 0.47847 0.47107 0.0
H1712 H 0.84767 0.39556 0.49374 0.0
H1713 H 0.7914 0.43692 0.52938 0.0
H1714 H 0.8946 0.44522 0.49753 0.0
H1715 H 0.8783 0.4433 0.46846 0.0
H1716 H 0.88355 0.41485 0.47958 0.0
H1717 H 0.82724 0.49623 0.54166 0.0
H1718 H 0.79572 0.48116 0.53827 0.0
H1719 H 0.80973 0.49428 0.51329 0.0
C1720 C 0.78373 0.89072 0.8203 0.0
C1721 C 0.7909 0.8969 0.8454 0.0
C1722 C 0.76624 0.90384 0.81006 0.0
C1723 C 0.7556 0.92327 0.82547 0.0
C1724 C 0.76402 0.9304 0.85057 0.0
C1725 C 0.7816 0.91707 0.86024 0.0
C1726 C 0.75796 0.89581 0.78319 0.0
C1727 C 0.75311 0.95085 0.86771 0.0
C1728 C 0.71362 0.96554 0.79942 0.0
C1729 C 0.69001 0.95329 0.80227 0.0
C1730 C 0.73529 0.95575 0.80633 0.0
C1731 C 0.73322 0.93342 0.81656 0.0
C1732 C 0.70945 0.92096 0.81931 0.0
C1733 C 0.68824 0.93096 0.81206 0.0
C1734 C 0.76034 0.96937 0.80288 0.0
C1735 C 0.70633 0.89723 0.83035 0.0
H1736 H 0.79099 0.87497 0.80894 0.0
H1737 H 0.7872 0.92165 0.87972 0.0
H1738 H 0.73903 0.88549 0.78175 0.0
H1739 H 0.75704 0.91247 0.77415 0.0
H1740 H 0.77057 0.88331 0.77293 0.0
H1741 H 0.76371 0.95619 0.88576 0.0
H1742 H 0.75269 0.96787 0.85914 0.0
H1743 H 0.73367 0.9442 0.87116 0.0
H1744 H 0.71518 0.98273 0.79177 0.0
H1745 H 0.67014 0.92133 0.81442 0.0
H1746 H 0.77181 0.95632 0.79173 0.0
H1747 H 0.77031 0.97602 0.82109 0.0
H1748 H 0.75883 0.98582 0.79361 0.0
H1749 H 0.71621 0.88249 0.81947 0.0
H1750 H 0.68653 0.88968 0.83092 0.0
H1751 H 0.71466 0.90106 0.84946 0.0
C1752 C 0.62813 0.52502 0.95813 0.0
C1753 C 0.62493 0.49858 0.95395 0.0
C1754 C 0.65191 0.53846 0.96153 0.0
C1755 C 0.673 0.52518 0.96134 0.0
C1756 C 0.66984 0.49866 0.95921 0.0
C1757 C 0.64587 0.48566 0.95532 0.0
C1758 C 0.65447 0.56673 0.96362 0.0
C1759 C 0.69184 0.48385 0.95945 0.0
C1760 C 0.73214 0.55317 0.93642 0.0
C1761 C 0.74619 0.56396 0.95814 0.0
C1762 C 0.70823 0.54079 0.9373 0.0
C1763 C 0.69825 0.53867 0.96048 0.0
C1764 C 0.71239 0.54935 0.98251 0.0
C1765 C 0.73612 0.56211 0.98108 0.0
C1766 C 0.69358 0.53004 0.91337 0.0
C1767 C 0.70256 0.54702 0.00753 0.0
H1768 H 0.61206 0.53523 0.95778 0.0
H1769 H 0.64373 0.46527 0.95196 0.0
H1770 H 0.66727 0.57585 0.97944 0.0
H1771 H 0.66257 0.57195 0.94665 0.0
H1772 H 0.63634 0.57441 0.96598 0.0
H1773 H 0.68622 0.46398 0.96128 0.0
H1774 H 0.70159 0.48392 0.94199 0.0
H1775 H 0.70528 0.49262 0.97488 0.0
H1776 H 0.73973 0.55469 0.91864 0.0
H1777 H 0.74696 0.57029 0.99794 0.0
H1778 H 0.67563 0.5381 0.91317 0.0
H1779 H 0.68929 0.50937 0.91179 0.0
H1780 H 0.70374 0.53393 0.89693 0.0
H1781 H 0.68487 0.55549 0.00987 0.0
H1782 H 0.71589 0.55634 0.0229 0.0
H1783 H 0.69851 0.52685 0.00893 0.0
C1784 C 0.25311 0.67553 0.26051 0.0
C1785 C 0.25967 0.67631 0.23615 0.0
C1786 C 0.23373 0.65819 0.26568 0.0
C1787 C 0.22077 0.64102 0.24601 0.0
C1788 C 0.22649 0.64259 0.22129 0.0
C1789 C 0.24582 0.66034 0.21664 0.0
C1790 C 0.228 0.65742 0.29226 0.0
C1791 C 0.21322 0.62454 0.19981 0.0
C1792 C 0.1953 0.57749 0.26049 0.0
C1793 C 0.16987 0.57981 0.26223 0.0
C1794 C 0.21193 0.59719 0.25502 0.0
C1795 C 0.20303 0.61996 0.25143 0.0
C1796 C 0.17742 0.62255 0.25335 0.0
C1797 C 0.16111 0.60239 0.25861 0.0
C1798 C 0.23908 0.59359 0.25298 0.0
C1799 C 0.16729 0.64663 0.24992 0.0
H1800 H 0.26369 0.68804 0.2756 0.0
H1801 H 0.25099 0.66078 0.19781 0.0
H1802 H 0.20775 0.65715 0.29473 0.0
H1803 H 0.23369 0.6399 0.29742 0.0
H1804 H 0.23781 0.67375 0.30516 0.0
H1805 H 0.2181 0.62979 0.18174 0.0
H1806 H 0.21823 0.60529 0.20008 0.0
H1807 H 0.19282 0.62383 0.20138 0.0
H1808 H 0.20224 0.56009 0.26313 0.0
H1809 H 0.1415 0.60438 0.25995 0.0
H1810 H 0.25041 0.60784 0.26689 0.0
H1811 H 0.24527 0.59639 0.23449 0.0
H1812 H 0.24294 0.57457 0.25583 0.0
H1813 H 0.17656 0.66261 0.26358 0.0
H1814 H 0.14693 0.64569 0.25209 0.0
H1815 H 0.17135 0.65076 0.23128 0.0
C1816 C 0.98742 0.54056 0.00374 0.0
C1817 C 0.98525 0.51635 0.00946 0.0
C1818 C 0.96623 0.55251 1.00022 0.0
C1819 C 0.94241 0.53975 0.00239 0.0
C1820 C 0.94032 0.51573 0.00947 0.0
C1821 C 0.96187 0.50423 0.01283 0.0
C1822 C 0.96929 0.57809 0.99269 0.0
C1823 C 0.9153 0.50158 0.0121 0.0
C1824 C 0.88647 0.57674 0.00372 0.0
C1825 C 0.87767 0.5709 0.97891 0.0
C1826 C 0.90739 0.56659 0.01177 0.0
C1827 C 0.91983 0.5503 0.9946 0.0
C1828 C 0.91098 0.54427 0.96959 0.0
C1829 C 0.89004 0.5546 0.96208 0.0
C1830 C 0.91626 0.57338 0.03858 0.0
C1831 C 0.92374 0.527 0.95066 0.0
H1832 H 0.00565 0.54972 0.00098 0.0
H1833 H 0.96037 0.48535 0.01708 0.0
H1834 H 0.96242 0.57637 0.97322 0.0
H1835 H 0.95808 0.59112 0.00422 0.0
H1836 H 0.98897 0.58654 0.99434 0.0
H1837 H 0.91692 0.48458 0.02048 0.0
H1838 H 0.90347 0.51392 0.02364 0.0
H1839 H 0.90568 0.49562 0.99363 0.0
H1840 H 0.87703 0.58929 0.01688 0.0
H1841 H 0.88343 0.54994 0.94289 0.0
H1842 H 0.9355 0.58296 0.0401 0.0
H1843 H 0.91668 0.55606 0.04667 0.0
H1844 H 0.90426 0.58593 0.0497 0.0
H1845 H 0.94326 0.53501 0.94941 0.0
H1846 H 0.91438 0.52402 0.932 0.0
H1847 H 0.92417 0.50844 0.95642 0.0
C1848 C 0.09848 0.98765 0.07347 0.0
C1849 C 0.08178 0.99224 0.05525 0.0
C1850 C 0.1164 0.97093 0.06766 0.0
C1851 C 0.11773 0.95836 0.04301 0.0
C1852 C 0.10121 0.96322 0.02443 0.0
C1853 C 0.08349 0.98012 0.03076 0.0
C1854 C 0.13376 0.96651 0.08801 0.0
C1855 C 0.10196 0.95021 0.99794 0.0
C1856 C 0.17773 0.93058 0.0251 0.0
C1857 C 0.17179 0.90517 0.02705 0.0
C1858 C 0.16027 0.94799 0.02992 0.0
C1859 C 0.13618 0.93989 0.03682 0.0
C1860 C 0.12995 0.91422 0.03849 0.0
C1861 C 0.1478 0.89721 0.03363 0.0
C1862 C 0.16772 0.97517 0.02798 0.0
C1863 C 0.10447 0.90476 0.04572 0.0
H1864 H 0.09756 0.99721 0.09237 0.0
H1865 H 0.07053 0.98334 0.01661 0.0
H1866 H 0.13118 0.94639 0.08989 0.0
H1867 H 0.15332 0.97091 0.08331 0.0
H1868 H 0.13069 0.97814 0.10613 0.0
H1869 H 0.08835 0.95654 0.98557 0.0
H1870 H 0.12081 0.95383 0.99106 0.0
H1871 H 0.09792 0.92955 0.9968 0.0
H1872 H 0.19618 0.93699 0.02003 0.0
H1873 H 0.14295 0.87766 0.03516 0.0
H1874 H 0.16644 0.98733 0.0462 0.0
H1875 H 0.15481 0.98126 0.01479 0.0
H1876 H 0.18694 0.97835 0.02177 0.0
H1877 H 0.10099 0.91444 0.06457 0.0
H1878 H 0.10227 0.88413 0.04544 0.0
H1879 H 0.09006 0.90922 0.03296 0.0
loop_
_geom_bond_atom_site_label_1
_geom_bond_atom_site_label_2
_geom_bond_distance
_geom_bond_site_symmetry_2
_ccdc_geom_bond_type
H0 C3 0.929 . S
H1 C6 0.929 . S
H2 C8 0.930 . S
C3 H0 0.929 . S
C3 C4 1.398 . S
C3 C5 1.396 . S
C4 C3 1.398 . S
C4 C8 1.407 . S
C5 C3 1.396 . S
C5 C6 1.394 . S
C6 H1 0.929 . S
C6 C5 1.394 . S
C6 C7 1.382 . S
C7 C6 1.382 . S
C7 C8 1.392 . S
C7 N9 1.420 . S
C8 H2 0.930 . S
C8 C4 1.407 . S
C8 C7 1.392 . S
N9 C7 1.420 . S
N9 C10 1.244 . S
C10 N9 1.244 . S
H11 C14 0.929 . S
H12 C17 0.929 . S
H13 C19 0.930 . S
C14 H11 0.929 . S
C14 C15 1.398 . S
C14 C16 1.396 . S
C15 C14 1.398 . S
C15 C19 1.407 . S
C16 C14 1.396 . S
C16 C17 1.394 . S
C17 H12 0.929 . S
C17 C16 1.394 . S
C17 C18 1.382 . S
C18 C17 1.382 . S
C18 C19 1.392 . S
C18 N20 1.420 . S
C19 H13 0.930 . S
C19 C15 1.407 . S
C19 C18 1.392 . S
N20 C18 1.420 . S
N20 C21 1.244 . S
C21 N20 1.244 . S
H22 C25 0.926 1_455 S
H23 C28 0.929 . S
H24 C30 0.930 . S
C25 H22 0.926 1_655 S
C25 C26 1.398 . S
C25 C27 1.396 . S
C26 C25 1.398 . S
C26 C30 1.407 . S
C27 C25 1.396 . S
C27 C28 1.394 . S
C28 H23 0.929 . S
C28 C27 1.394 . S
C28 C29 1.382 . S
C29 C28 1.382 . S
C29 C30 1.392 . S
C29 N31 1.420 . S
C30 H24 0.930 . S
C30 C26 1.407 . S
C30 C29 1.392 . S
N31 C29 1.420 . S
N31 C32 1.244 . S
C32 N31 1.244 . S
H33 C36 0.929 . S
H34 C39 0.929 . S
H35 C41 0.930 . S
C36 H33 0.929 . S
C36 C37 1.398 . S
C36 C38 1.396 . S
C37 C36 1.398 . S
C37 C41 1.407 . S
C38 C36 1.396 . S
C38 C39 1.394 . S
C39 H34 0.929 . S
C39 C38 1.394 . S
C39 C40 1.382 . S
C40 C39 1.382 . S
C40 C41 1.392 . S
C40 N42 1.420 . S
C41 H35 0.930 . S
C41 C37 1.407 . S
C41 C40 1.392 . S
N42 C40 1.420 . S
N42 C43 1.244 . S
C43 N42 1.244 . S
H44 C47 0.929 . S
H45 C50 0.929 . S
H46 C52 0.930 . S
C47 H44 0.929 . S
C47 C48 1.398 . S
C47 C49 1.396 . S
C48 C47 1.398 . S
C48 C52 1.407 . S
C49 C47 1.396 . S
C49 C50 1.394 . S
C50 H45 0.929 . S
C50 C49 1.394 . S
C50 C51 1.382 . S
C51 C50 1.382 . S
C51 C52 1.392 . S
C51 N53 1.420 . S
C52 H46 0.930 . S
C52 C48 1.407 . S
C52 C51 1.392 . S
N53 C51 1.420 . S
N53 C54 1.244 . S
C54 N53 1.244 . S
H55 C58 0.929 . S
H56 C61 0.929 . S
H57 C63 0.930 . S
C58 H55 0.929 . S
C58 C59 1.398 . S
C58 C60 1.396 . S
C59 C58 1.398 . S
C59 C63 1.407 . S
C60 C58 1.396 . S
C60 C61 1.394 . S
C61 H56 0.929 . S
C61 C60 1.394 . S
C61 C62 1.382 . S
C62 C61 1.382 . S
C62 C63 1.392 . S
C62 N64 1.420 . S
C63 H57 0.930 . S
C63 C59 1.407 . S
C63 C62 1.392 . S
N64 C62 1.420 . S
N64 C65 1.244 . S
C65 N64 1.244 . S
H66 C69 0.929 . S
H67 C72 0.929 1_455 S
H68 C74 0.930 . S
C69 H66 0.929 . S
C69 C70 1.398 . S
C69 C71 1.396 . S
C70 C69 1.398 . S
C70 C74 1.407 . S
C71 C69 1.396 . S
C71 C72 1.394 . S
C72 H67 0.929 1_655 S
C72 C71 1.394 . S
C72 C73 1.382 . S
C73 C72 1.382 . S
C73 C74 1.392 . S
C73 N75 1.432 . S
C74 H68 0.930 . S
C74 C70 1.407 . S
C74 C73 1.392 . S
N75 C73 1.432 . S
N75 C76 1.237 1_655 S
C76 N75 1.237 1_455 S
H77 C80 0.929 . S
H78 C83 0.929 . S
H79 C85 0.930 . S
C80 H77 0.929 . S
C80 C81 1.398 . S
C80 C82 1.396 . S
C81 C80 1.398 . S
C81 C85 1.407 . S
C82 C80 1.396 . S
C82 C83 1.394 . S
C83 H78 0.929 . S
C83 C82 1.394 . S
C83 C84 1.382 . S
C84 C83 1.382 . S
C84 C85 1.392 . S
C84 N86 1.420 . S
C85 H79 0.930 . S
C85 C81 1.407 . S
C85 C84 1.392 . S
N86 C84 1.420 . S
N86 C87 1.244 . S
C87 N86 1.244 . S
H88 C91 0.929 . S
H89 C94 0.929 . S
H90 C96 0.930 . S
C91 H88 0.929 . S
C91 C92 1.398 . S
C91 C93 1.396 . S
C92 C91 1.398 . S
C92 C96 1.407 . S
C93 C91 1.396 . S
C93 C94 1.394 . S
C94 H89 0.929 . S
C94 C93 1.394 . S
C94 C95 1.382 . S
C95 C94 1.382 . S
C95 C96 1.392 . S
C95 N97 1.420 . S
C96 H90 0.930 . S
C96 C92 1.407 . S
C96 C95 1.392 . S
N97 C95 1.420 . S
N97 C98 1.244 . S
C98 N97 1.244 . S
H99 C102 0.929 . S
H100 C105 0.929 . S
H101 C107 0.930 . S
C102 H99 0.929 . S
C102 C103 1.398 . S
C102 C104 1.396 . S
C103 C102 1.398 . S
C103 C107 1.407 . S
C104 C102 1.396 . S
C104 C105 1.394 . S
C105 H100 0.929 . S
C105 C104 1.394 . S
C105 C106 1.382 . S
C106 C105 1.382 . S
C106 C107 1.392 . S
C106 N108 1.420 . S
C107 H101 0.930 . S
C107 C103 1.407 . S
C107 C106 1.392 . S
N108 C106 1.420 . S
N108 C109 1.244 1_565 S
C109 N108 1.244 1_545 S
H110 C113 0.929 . S
H111 C116 0.929 . S
H112 C118 0.930 . S
C113 H110 0.929 . S
C113 C114 1.398 . S
C113 C115 1.396 . S
C114 C113 1.398 . S
C114 C118 1.407 . S
C115 C113 1.396 . S
C115 C116 1.394 . S
C116 H111 0.929 . S
C116 C115 1.394 . S
C116 C117 1.382 . S
C117 C116 1.382 . S
C117 C118 1.392 . S
C117 N119 1.420 . S
C118 H112 0.930 . S
C118 C114 1.407 . S
C118 C117 1.392 . S
N119 C117 1.420 . S
N119 C120 1.244 . S
C120 N119 1.244 . S
H121 C124 0.929 . S
H122 C127 0.929 . S
H123 C129 0.930 . S
C124 H121 0.929 . S
C124 C125 1.398 . S
C124 C126 1.396 . S
C125 C124 1.398 . S
C125 C129 1.407 . S
C126 C124 1.396 . S
C126 C127 1.394 . S
C127 H122 0.929 . S
C127 C126 1.394 . S
C127 C128 1.382 . S
C128 C127 1.382 . S
C128 C129 1.392 . S
C128 N130 1.420 . S
C129 H123 0.930 . S
C129 C125 1.407 . S
C129 C128 1.392 . S
N130 C128 1.420 . S
N130 C131 1.244 . S
C131 N130 1.244 . S
H132 C135 0.929 . S
H133 C138 0.929 . S
H134 C140 0.930 . S
C135 H132 0.929 . S
C135 C136 1.398 . S
C135 C137 1.396 . S
C136 C135 1.398 . S
C136 C140 1.407 . S
C137 C135 1.396 . S
C137 C138 1.394 . S
C138 H133 0.929 . S
C138 C137 1.394 . S
C138 C139 1.382 . S
C139 C138 1.382 . S
C139 C140 1.392 . S
C139 N141 1.420 . S
C140 H134 0.930 . S
C140 C136 1.407 . S
C140 C139 1.392 . S
N141 C139 1.420 . S
N141 C142 1.244 . S
C142 N141 1.244 . S
H143 C146 0.929 . S
H144 C149 0.929 1_554 S
H145 C151 0.930 . S
C146 H143 0.929 . S
C146 C147 1.398 . S
C146 C148 1.396 . S
C147 C146 1.398 . S
C147 C151 1.407 . S
C148 C146 1.396 . S
C148 C149 1.394 . S
C149 H144 0.929 1_556 S
C149 C148 1.394 . S
C149 C150 1.382 . S
C150 C149 1.382 . S
C150 C151 1.392 . S
C150 N152 1.420 1_556 S
C151 H145 0.930 . S
C151 C147 1.407 . S
C151 C150 1.392 . S
N152 C150 1.420 1_554 S
N152 C153 1.244 . S
C153 N152 1.244 . S
H154 C157 0.929 . S
H155 C160 0.929 . S
H156 C162 0.930 . S
C157 H154 0.929 . S
C157 C158 1.398 . S
C157 C159 1.396 . S
C158 C157 1.398 . S
C158 C162 1.407 . S
C159 C157 1.396 . S
C159 C160 1.394 . S
C160 H155 0.929 . S
C160 C159 1.394 . S
C160 C161 1.382 . S
C161 C160 1.382 . S
C161 C162 1.392 . S
C161 N163 1.420 . S
C162 H156 0.930 . S
C162 C158 1.407 . S
C162 C161 1.392 . S
N163 C161 1.420 . S
N163 C164 1.244 . S
C164 N163 1.244 . S
H165 C168 0.929 . S
H166 C171 0.929 . S
H167 C173 0.930 . S
C168 H165 0.929 . S
C168 C169 1.398 . S
C168 C170 1.396 . S
C169 C168 1.398 . S
C169 C173 1.407 . S
C170 C168 1.396 . S
C170 C171 1.394 . S
C171 H166 0.929 . S
C171 C170 1.394 . S
C171 C172 1.382 . S
C172 C171 1.382 . S
C172 C173 1.392 . S
C172 N174 1.420 . S
C173 H167 0.930 . S
C173 C169 1.407 . S
C173 C172 1.392 . S
N174 C172 1.420 . S
N174 C175 1.244 . S
C175 N174 1.244 . S
Zn176 O179 2.031 . S
Zn176 O181 2.049 . S
Zn176 O186 2.067 1_554 S
Zn177 O178 1.962 . S
Zn177 O180 1.986 . S
Zn177 O182 1.996 . S
Zn177 O185 1.943 . S
O178 Zn177 1.962 . S
O178 C183 1.254 . S
O179 Zn176 2.031 . S
O179 C183 1.269 . S
O180 Zn177 1.986 . S
O180 C187 1.262 . S
O181 Zn176 2.049 . S
O181 C189 1.260 . S
O182 Zn177 1.996 . S
O182 C189 1.257 . S
C183 O178 1.254 . S
C183 O179 1.269 . S
C184 O185 1.249 1_556 S
C184 O186 1.270 . S
O185 Zn177 1.943 . S
O185 C184 1.249 1_554 S
O186 Zn176 2.067 1_556 S
O186 C184 1.270 . S
C187 O180 1.262 . S
C187 O188 1.232 . S
O188 C187 1.232 . S
C189 O181 1.260 . S
C189 O182 1.257 . S
Zn190 O193 2.031 . S
Zn190 O195 2.049 . S
Zn190 O200 2.067 . S
Zn191 O192 1.962 . S
Zn191 O194 1.986 . S
Zn191 O196 1.996 . S
Zn191 O199 1.943 . S
O192 Zn191 1.962 . S
O192 C197 1.254 . S
O193 Zn190 2.031 . S
O193 C197 1.269 . S
O194 Zn191 1.986 . S
O194 C201 1.262 . S
O195 Zn190 2.049 . S
O195 C203 1.260 . S
O196 Zn191 1.996 . S
O196 C203 1.257 . S
C197 O192 1.254 . S
C197 O193 1.269 . S
C198 O199 1.249 . S
C198 O200 1.270 . S
O199 Zn191 1.943 . S
O199 C198 1.249 . S
O200 Zn190 2.067 . S
O200 C198 1.270 . S
C201 O194 1.262 . S
C201 O202 1.232 . S
O202 C201 1.232 . S
C203 O195 1.260 . S
C203 O196 1.257 . S
Zn204 O207 2.031 . S
Zn204 O209 2.049 . S
Zn204 O214 2.067 . S
Zn205 O206 1.962 . S
Zn205 O208 1.986 . S
Zn205 O210 1.996 1_554 S
Zn205 O213 1.943 . S
O206 Zn205 1.962 . S
O206 C211 1.254 . S
O207 Zn204 2.031 . S
O207 C211 1.269 1_556 S
O208 Zn205 1.986 . S
O208 C215 1.262 . S
O209 Zn204 2.049 . S
O209 C217 1.260 . S
O210 Zn205 1.996 1_556 S
O210 C217 1.257 . S
C211 O206 1.254 . S
C211 O207 1.269 1_554 S
C212 O213 1.249 1_556 S
C212 O214 1.270 . S
O213 Zn205 1.943 . S
O213 C212 1.249 1_554 S
O214 Zn204 2.067 . S
O214 C212 1.270 . S
C215 O208 1.262 . S
C215 O216 1.232 . S
O216 C215 1.232 . S
C217 O209 1.260 . S
C217 O210 1.257 . S
Zn218 O221 2.031 . S
Zn218 O223 2.049 . S
Zn218 O228 2.067 1_545 S
Zn219 O220 1.962 . S
Zn219 O222 1.986 . S
Zn219 O224 1.996 . S
Zn219 O227 1.943 1_545 S
O220 Zn219 1.962 . S
O220 C225 1.254 . S
O221 Zn218 2.031 . S
O221 C225 1.269 . S
O222 Zn219 1.986 . S
O222 C229 1.262 . S
O223 Zn218 2.049 . S
O223 C231 1.260 . S
O224 Zn219 1.996 . S
O224 C231 1.257 . S
C225 O220 1.254 . S
C225 O221 1.269 . S
C226 O227 1.249 . S
C226 O228 1.270 . S
O227 Zn219 1.943 1_565 S
O227 C226 1.249 . S
O228 Zn218 2.067 1_565 S
O228 C226 1.270 . S
C229 O222 1.262 . S
C229 O230 1.232 . S
O230 C229 1.232 . S
C231 O223 1.260 . S
C231 O224 1.257 . S
Zn232 O235 2.031 . S
Zn232 O237 2.049 . S
Zn232 O242 2.067 . S
Zn233 O234 1.962 . S
Zn233 O236 1.986 . S
Zn233 O238 1.996 . S
Zn233 O241 1.943 . S
O234 Zn233 1.962 . S
O234 C239 1.254 . S
O235 Zn232 2.031 . S
O235 C239 1.269 . S
O236 Zn233 1.986 . S
O236 C243 1.262 . S
O237 Zn232 2.049 . S
O237 C245 1.260 . S
O238 Zn233 1.996 . S
O238 C245 1.257 . S
C239 O234 1.254 . S
C239 O235 1.269 . S
C240 O241 1.249 . S
C240 O242 1.270 . S
O241 Zn233 1.943 . S
O241 C240 1.249 . S
O242 Zn232 2.067 . S
O242 C240 1.270 . S
C243 O236 1.262 . S
C243 O244 1.232 . S
O244 C243 1.232 . S
C245 O237 1.260 . S
C245 O238 1.257 . S
Zn246 O249 2.031 . S
Zn246 O251 2.049 . S
Zn246 O256 2.067 . S
Zn247 O248 1.962 . S
Zn247 O250 1.986 . S
Zn247 O252 1.996 . S
Zn247 O255 1.943 . S
O248 Zn247 1.962 . S
O248 C253 1.254 . S
O249 Zn246 2.031 . S
O249 C253 1.269 . S
O250 Zn247 1.986 . S
O250 C257 1.262 . S
O251 Zn246 2.049 . S
O251 C259 1.260 . S
O252 Zn247 1.996 . S
O252 C259 1.257 . S
C253 O248 1.254 . S
C253 O249 1.269 . S
C254 O255 1.249 . S
C254 O256 1.270 . S
O255 Zn247 1.943 . S
O255 C254 1.249 . S
O256 Zn246 2.067 . S
O256 C254 1.270 . S
C257 O250 1.262 . S
C257 O258 1.232 . S
O258 C257 1.232 . S
C259 O251 1.260 . S
C259 O252 1.257 . S
Zn260 O263 2.031 . S
Zn260 O265 2.049 . S
Zn260 O270 2.067 . S
Zn261 O262 1.962 . S
Zn261 O264 1.986 . S
Zn261 O266 1.996 . S
Zn261 O269 1.943 . S
O262 Zn261 1.962 . S
O262 C267 1.254 . S
O263 Zn260 2.031 . S
O263 C267 1.269 . S
O264 Zn261 1.986 . S
O264 C271 1.262 . S
O265 Zn260 2.049 . S
O265 C273 1.260 . S
O266 Zn261 1.996 . S
O266 C273 1.257 . S
C267 O262 1.254 . S
C267 O263 1.269 . S
C268 O269 1.249 . S
C268 O270 1.270 . S
O269 Zn261 1.943 . S
O269 C268 1.249 . S
O270 Zn260 2.067 . S
O270 C268 1.270 . S
C271 O264 1.262 . S
C271 O272 1.232 . S
O272 C271 1.232 . S
C273 O265 1.260 . S
C273 O266 1.257 . S
Zn274 O277 2.031 . S
Zn274 O279 2.049 . S
Zn274 O284 2.067 . S
Zn275 O276 1.962 . S
Zn275 O278 1.986 . S
Zn275 O280 1.996 1_545 S
Zn275 O283 1.943 . S
O276 Zn275 1.962 . S
O276 C281 1.254 . S
O277 Zn274 2.031 . S
O277 C281 1.269 1_565 S
O278 Zn275 1.986 . S
O278 C285 1.262 . S
O279 Zn274 2.049 . S
O279 C287 1.260 . S
O280 Zn275 1.996 1_565 S
O280 C287 1.257 . S
C281 O276 1.254 . S
C281 O277 1.269 1_545 S
C282 O283 1.222 1_565 S
C282 O284 1.270 . S
O283 Zn275 1.943 . S
O283 C282 1.222 1_545 S
O284 Zn274 2.067 . S
O284 C282 1.270 . S
C285 O278 1.262 . S
C285 O286 1.232 . S
O286 C285 1.232 . S
C287 O279 1.260 . S
C287 O280 1.257 . S
Zn288 O291 2.031 . S
Zn288 O293 2.049 . S
Zn288 O298 2.067 1_455 S
Zn289 O290 1.962 . S
Zn289 O292 1.986 . S
Zn289 O294 1.996 . S
Zn289 O297 1.943 1_455 S
O290 Zn289 1.962 . S
O290 C295 1.254 . S
O291 Zn288 2.031 . S
O291 C295 1.269 . S
O292 Zn289 1.986 . S
O292 C299 1.262 . S
O293 Zn288 2.049 . S
O293 C301 1.260 . S
O294 Zn289 1.996 . S
O294 C301 1.257 . S
C295 O290 1.254 . S
C295 O291 1.269 . S
C296 O297 1.249 . S
C296 O298 1.270 . S
O297 Zn289 1.943 1_655 S
O297 C296 1.249 . S
O298 Zn288 2.067 1_655 S
O298 C296 1.270 . S
C299 O292 1.262 . S
C299 O300 1.232 . S
O300 C299 1.232 . S
C301 O293 1.260 . S
C301 O294 1.257 . S
Zn302 O305 2.031 . S
Zn302 O307 2.049 . S
Zn302 O312 2.067 . S
Zn303 O304 1.962 . S
Zn303 O306 1.986 . S
Zn303 O308 1.996 . S
Zn303 O311 1.943 . S
O304 Zn303 1.962 . S
O304 C309 1.254 . S
O305 Zn302 2.031 . S
O305 C309 1.269 . S
O306 Zn303 1.986 . S
O306 C313 1.262 . S
O307 Zn302 2.049 . S
O307 C315 1.260 . S
O308 Zn303 1.996 . S
O308 C315 1.257 . S
C309 O304 1.254 . S
C309 O305 1.269 . S
C310 O311 1.249 . S
C310 O312 1.270 . S
O311 Zn303 1.943 . S
O311 C310 1.249 . S
O312 Zn302 2.067 . S
O312 C310 1.270 . S
C313 O306 1.262 . S
C313 O314 1.232 . S
O314 C313 1.232 . S
C315 O307 1.260 . S
C315 O308 1.257 . S
Zn316 O319 2.031 1_655 S
Zn316 O321 2.049 . S
Zn316 O326 2.067 . S
Zn317 O318 1.962 . S
Zn317 O320 1.986 . S
Zn317 O322 1.996 1_455 S
Zn317 O325 1.943 . S
O318 Zn317 1.962 . S
O318 C323 1.254 . S
O319 Zn316 2.031 1_455 S
O319 C323 1.269 . S
O320 Zn317 1.986 . S
O320 C327 1.262 . S
O321 Zn316 2.049 . S
O321 C329 1.260 . S
O322 Zn317 1.996 1_655 S
O322 C329 1.257 . S
C323 O318 1.254 . S
C323 O319 1.269 . S
C324 O325 1.249 1_655 S
C324 O326 1.270 . S
O325 Zn317 1.943 . S
O325 C324 1.249 1_455 S
O326 Zn316 2.067 . S
O326 C324 1.270 . S
C327 O320 1.262 . S
C327 O328 1.232 . S
O328 C327 1.232 . S
C329 O321 1.260 . S
C329 O322 1.257 . S
Zn330 O333 2.031 . S
Zn330 O335 2.049 . S
Zn330 O340 2.067 . S
Zn331 O332 1.962 . S
Zn331 O334 1.986 . S
Zn331 O336 1.996 . S
Zn331 O339 1.943 . S
O332 Zn331 1.962 . S
O332 C337 1.254 . S
O333 Zn330 2.031 . S
O333 C337 1.269 . S
O334 Zn331 1.986 . S
O334 C341 1.262 . S
O335 Zn330 2.049 . S
O335 C343 1.260 . S
O336 Zn331 1.996 . S
O336 C343 1.257 . S
C337 O332 1.254 . S
C337 O333 1.269 . S
C338 O339 1.249 . S
C338 O340 1.270 . S
O339 Zn331 1.943 . S
O339 C338 1.249 . S
O340 Zn330 2.067 . S
O340 C338 1.270 . S
C341 O334 1.262 . S
C341 O342 1.232 . S
O342 C341 1.232 . S
C343 O335 1.260 . S
C343 O336 1.257 . S
C344 C345 1.391 . S
C344 C346 1.394 . S
C344 H360 0.931 . S
C345 C344 1.391 . S
C345 C349 1.376 . S
C346 C344 1.394 . S
C346 C347 1.369 . S
C346 C350 1.531 . S
C347 C346 1.369 . S
C347 C348 1.410 . S
C347 C355 1.503 . S
C348 C347 1.410 . S
C348 C349 1.392 . S
C348 C351 1.511 . S
C349 C345 1.376 . S
C349 C348 1.392 . S
C349 H361 0.929 . S
C350 C346 1.531 . S
C350 H362 0.960 . S
C350 H363 0.962 . S
C350 H364 0.960 . S
C351 C348 1.511 . S
C351 H365 0.961 . S
C351 H366 0.961 . S
C351 H367 0.961 . S
C352 C353 1.370 . S
C352 C354 1.363 . S
C352 H368 0.931 . S
C353 C352 1.370 . S
C353 C357 1.408 . S
C354 C352 1.363 . S
C354 C355 1.370 . S
C354 C358 1.524 . S
C355 C347 1.503 . S
C355 C354 1.370 . S
C355 C356 1.403 . S
C356 C355 1.403 . S
C356 C357 1.404 . S
C356 C359 1.539 . S
C357 C353 1.408 . S
C357 C356 1.404 . S
C357 H369 0.930 . S
C358 C354 1.524 . S
C358 H370 0.956 . S
C358 H371 0.961 . S
C358 H372 0.961 . S
C359 C356 1.539 . S
C359 H373 0.958 . S
C359 H374 0.961 . S
C359 H375 0.960 . S
H360 C344 0.931 . S
H361 C349 0.929 . S
H362 C350 0.960 . S
H363 C350 0.962 . S
H364 C350 0.960 . S
H365 C351 0.961 . S
H366 C351 0.961 . S
H367 C351 0.961 . S
H368 C352 0.931 . S
H369 C357 0.930 . S
H370 C358 0.956 . S
H371 C358 0.961 . S
H372 C358 0.961 . S
H373 C359 0.958 . S
H374 C359 0.961 . S
H375 C359 0.960 . S
C376 C377 1.391 . S
C376 C378 1.394 . S
C376 H392 0.931 1_455 S
C377 C376 1.391 . S
C377 C381 1.376 . S
C378 C376 1.394 . S
C378 C379 1.369 . S
C378 C382 1.531 . S
C379 C378 1.369 . S
C379 C380 1.410 . S
C379 C387 1.503 . S
C380 C379 1.410 . S
C380 C381 1.392 . S
C380 C383 1.511 . S
C381 C377 1.376 . S
C381 C380 1.392 . S
C381 H393 0.929 . S
C382 C378 1.531 . S
C382 H394 0.960 . S
C382 H395 0.962 . S
C382 H396 0.960 . S
C383 C380 1.511 . S
C383 H397 0.961 . S
C383 H398 0.961 . S
C383 H399 0.961 . S
C384 C385 1.370 . S
C384 C386 1.363 . S
C384 H400 0.931 . S
C385 C384 1.370 . S
C385 C389 1.408 . S
C386 C384 1.363 . S
C386 C387 1.370 . S
C386 C390 1.524 . S
C387 C379 1.503 . S
C387 C386 1.370 . S
C387 C388 1.403 . S
C388 C387 1.403 . S
C388 C389 1.404 . S
C388 C391 1.539 . S
C389 C385 1.408 . S
C389 C388 1.404 . S
C389 H401 0.930 . S
C390 C386 1.524 . S
C390 H402 0.956 . S
C390 H403 0.961 . S
C390 H404 0.961 . S
C391 C388 1.539 . S
C391 H405 0.958 . S
C391 H406 0.961 . S
C391 H407 0.960 . S
H392 C376 0.931 1_655 S
H393 C381 0.929 . S
H394 C382 0.960 . S
H395 C382 0.962 . S
H396 C382 0.960 . S
H397 C383 0.961 . S
H398 C383 0.961 . S
H399 C383 0.961 . S
H400 C384 0.931 . S
H401 C389 0.930 . S
H402 C390 0.956 . S
H403 C390 0.961 . S
H404 C390 0.961 . S
H405 C391 0.958 . S
H406 C391 0.961 . S
H407 C391 0.960 . S
C408 C409 1.391 . S
C408 C410 1.394 . S
C408 H424 0.931 . S
C409 C408 1.391 . S
C409 C413 1.376 . S
C410 C408 1.394 . S
C410 C411 1.369 . S
C410 C414 1.531 . S
C411 C410 1.369 . S
C411 C412 1.410 . S
C411 C419 1.503 . S
C412 C411 1.410 . S
C412 C413 1.392 . S
C412 C415 1.511 . S
C413 C409 1.376 . S
C413 C412 1.392 . S
C413 H425 0.929 . S
C414 C410 1.531 . S
C414 H426 0.960 . S
C414 H427 0.962 . S
C414 H428 0.960 . S
C415 C412 1.511 . S
C415 H429 0.961 . S
C415 H430 0.961 . S
C415 H431 0.961 . S
C416 C417 1.370 . S
C416 C418 1.363 . S
C416 H432 0.931 . S
C417 C416 1.370 . S
C417 C421 1.408 . S
C418 C416 1.363 . S
C418 C419 1.370 . S
C418 C422 1.524 . S
C419 C411 1.503 . S
C419 C418 1.370 . S
C419 C420 1.403 . S
C420 C419 1.403 . S
C420 C421 1.404 . S
C420 C423 1.539 . S
C421 C417 1.408 . S
C421 C420 1.404 . S
C421 H433 0.930 . S
C422 C418 1.524 . S
C422 H434 0.956 . S
C422 H435 0.961 . S
C422 H436 0.961 . S
C423 C420 1.539 . S
C423 H437 0.958 . S
C423 H438 0.961 . S
C423 H439 0.960 . S
H424 C408 0.931 . S
H425 C413 0.929 . S
H426 C414 0.960 . S
H427 C414 0.962 . S
H428 C414 0.960 . S
H429 C415 0.961 . S
H430 C415 0.961 . S
H431 C415 0.961 . S
H432 C416 0.931 . S
H433 C421 0.930 . S
H434 C422 0.956 . S
H435 C422 0.961 . S
H436 C422 0.961 . S
H437 C423 0.958 . S
H438 C423 0.961 . S
H439 C423 0.960 . S
C440 C441 1.391 . S
C440 C442 1.394 . S
C440 H456 0.931 . S
C441 C440 1.391 . S
C441 C445 1.376 . S
C442 C440 1.394 . S
C442 C443 1.369 . S
C442 C446 1.531 . S
C443 C442 1.369 . S
C443 C444 1.410 . S
C443 C451 1.503 . S
C444 C443 1.410 . S
C444 C445 1.392 . S
C444 C447 1.511 1_455 S
C445 C441 1.376 . S
C445 C444 1.392 . S
C445 H457 0.929 . S
C446 C442 1.531 . S
C446 H458 0.960 . S
C446 H459 0.962 . S
C446 H460 0.960 . S
C447 C444 1.511 1_655 S
C447 H461 0.961 . S
C447 H462 0.961 . S
C447 H463 0.961 . S
C448 C449 1.370 . S
C448 C450 1.363 1_655 S
C448 H464 0.931 . S
C449 C448 1.370 . S
C449 C453 1.408 1_545 S
C450 C448 1.363 1_455 S
C450 C451 1.370 1_545 S
C450 C454 1.524 . S
C451 C443 1.503 . S
C451 C450 1.370 1_565 S
C451 C452 1.403 1_455 S
C452 C451 1.403 1_655 S
C452 C453 1.404 . S
C452 C455 1.539 . S
C453 C449 1.408 1_565 S
C453 C452 1.404 . S
C453 H465 0.930 . S
C454 C450 1.524 . S
C454 H466 0.956 . S
C454 H467 0.961 . S
C454 H468 0.961 . S
C455 C452 1.539 . S
C455 H469 0.958 . S
C455 H470 0.961 . S
C455 H471 0.960 . S
H456 C440 0.931 . S
H457 C445 0.929 . S
H458 C446 0.960 . S
H459 C446 0.962 . S
H460 C446 0.960 . S
H461 C447 0.961 . S
H462 C447 0.961 . S
H463 C447 0.961 . S
H464 C448 0.931 . S
H465 C453 0.930 . S
H466 C454 0.956 . S
H467 C454 0.961 . S
H468 C454 0.961 . S
H469 C455 0.958 . S
H470 C455 0.961 . S
H471 C455 0.960 . S
C472 C473 1.391 . S
C472 C474 1.394 . S
C472 H488 0.931 . S
C473 C472 1.391 . S
C473 C477 1.376 . S
C474 C472 1.394 . S
C474 C475 1.369 . S
C474 C478 1.531 . S
C475 C474 1.369 . S
C475 C476 1.410 . S
C475 C483 1.503 . S
C476 C475 1.410 . S
C476 C477 1.392 . S
C476 C479 1.511 . S
C477 C473 1.376 . S
C477 C476 1.392 . S
C477 H489 0.929 . S
C478 C474 1.531 . S
C478 H490 0.960 . S
C478 H491 0.962 . S
C478 H492 0.960 . S
C479 C476 1.511 . S
C479 H493 0.961 . S
C479 H494 0.961 . S
C479 H495 0.961 . S
C480 C481 1.370 . S
C480 C482 1.363 . S
C480 H496 0.931 . S
C481 C480 1.370 . S
C481 C485 1.408 . S
C482 C480 1.363 . S
C482 C483 1.370 . S
C482 C486 1.524 . S
C483 C475 1.503 . S
C483 C482 1.370 . S
C483 C484 1.403 . S
C484 C483 1.403 . S
C484 C485 1.404 . S
C484 C487 1.539 . S
C485 C481 1.408 . S
C485 C484 1.404 . S
C485 H497 0.930 . S
C486 C482 1.524 . S
C486 H498 0.956 . S
C486 H499 0.961 . S
C486 H500 0.961 . S
C487 C484 1.539 . S
C487 H501 0.958 . S
C487 H502 0.961 . S
C487 H503 0.960 . S
H488 C472 0.931 . S
H489 C477 0.929 . S
H490 C478 0.960 . S
H491 C478 0.962 . S
H492 C478 0.960 . S
H493 C479 0.961 . S
H494 C479 0.961 . S
H495 C479 0.961 . S
H496 C480 0.931 . S
H497 C485 0.930 . S
H498 C486 0.956 . S
H499 C486 0.961 . S
H500 C486 0.961 . S
H501 C487 0.958 . S
H502 C487 0.961 . S
H503 C487 0.960 . S
C504 C505 1.391 . S
C504 C506 1.394 . S
C504 H520 0.931 . S
C505 C504 1.391 . S
C505 C509 1.376 . S
C506 C504 1.394 . S
C506 C507 1.369 . S
C506 C510 1.531 . S
C507 C506 1.369 . S
C507 C508 1.410 . S
C507 C515 1.503 . S
C508 C507 1.410 . S
C508 C509 1.392 . S
C508 C511 1.511 . S
C509 C505 1.376 . S
C509 C508 1.392 . S
C509 H521 0.929 . S
C510 C506 1.531 . S
C510 H522 0.960 . S
C510 H523 0.962 . S
C510 H524 0.960 . S
C511 C508 1.511 . S
C511 H525 0.961 . S
C511 H526 0.961 . S
C511 H527 0.961 . S
C512 C513 1.370 . S
C512 C514 1.363 . S
C512 H528 0.931 . S
C513 C512 1.370 . S
C513 C517 1.408 . S
C514 C512 1.363 . S
C514 C515 1.370 . S
C514 C518 1.524 . S
C515 C507 1.503 . S
C515 C514 1.370 . S
C515 C516 1.403 . S
C516 C515 1.403 . S
C516 C517 1.404 . S
C516 C519 1.539 . S
C517 C513 1.408 . S
C517 C516 1.404 . S
C517 H529 0.930 . S
C518 C514 1.524 . S
C518 H530 0.956 . S
C518 H531 0.961 . S
C518 H532 0.961 . S
C519 C516 1.539 . S
C519 H533 0.958 . S
C519 H534 0.961 . S
C519 H535 0.960 . S
H520 C504 0.931 . S
H521 C509 0.929 . S
H522 C510 0.960 . S
H523 C510 0.962 . S
H524 C510 0.960 . S
H525 C511 0.961 . S
H526 C511 0.961 . S
H527 C511 0.961 . S
H528 C512 0.931 . S
H529 C517 0.930 . S
H530 C518 0.956 . S
H531 C518 0.961 . S
H532 C518 0.961 . S
H533 C519 0.958 . S
H534 C519 0.961 . S
H535 C519 0.960 . S
C536 C537 1.391 . S
C536 C538 1.394 . S
C536 H552 0.931 . S
C537 C536 1.391 . S
C537 C541 1.376 . S
C538 C536 1.394 . S
C538 C539 1.369 . S
C538 C542 1.531 . S
C539 C538 1.369 . S
C539 C540 1.410 . S
C539 C547 1.503 . S
C540 C539 1.410 . S
C540 C541 1.392 . S
C540 C543 1.511 . S
C541 C537 1.376 . S
C541 C540 1.392 . S
C541 H553 0.929 . S
C542 C538 1.531 . S
C542 H554 0.960 . S
C542 H555 0.962 . S
C542 H556 0.960 . S
C543 C540 1.511 . S
C543 H557 0.961 . S
C543 H558 0.961 . S
C543 H559 0.961 . S
C544 C545 1.370 . S
C544 C546 1.363 . S
C544 H560 0.931 . S
C545 C544 1.370 . S
C545 C549 1.408 . S
C546 C544 1.363 . S
C546 C547 1.370 . S
C546 C550 1.524 . S
C547 C539 1.503 . S
C547 C546 1.370 . S
C547 C548 1.403 . S
C548 C547 1.403 . S
C548 C549 1.404 . S
C548 C551 1.539 . S
C549 C545 1.408 . S
C549 C548 1.404 . S
C549 H561 0.930 . S
C550 C546 1.524 . S
C550 H562 0.956 . S
C550 H563 0.961 . S
C550 H564 0.961 . S
C551 C548 1.539 . S
C551 H565 0.958 . S
C551 H566 0.961 . S
C551 H567 0.960 . S
H552 C536 0.931 . S
H553 C541 0.929 . S
H554 C542 0.960 . S
H555 C542 0.962 . S
H556 C542 0.960 . S
H557 C543 0.961 . S
H558 C543 0.961 . S
H559 C543 0.961 . S
H560 C544 0.931 . S
H561 C549 0.930 . S
H562 C550 0.956 . S
H563 C550 0.961 . S
H564 C550 0.961 . S
H565 C551 0.958 . S
H566 C551 0.961 . S
H567 C551 0.960 . S
C568 C569 1.391 . S
C568 C570 1.394 . S
C568 H584 0.931 . S
C569 C568 1.391 . S
C569 C573 1.376 . S
C570 C568 1.394 . S
C570 C571 1.369 . S
C570 C574 1.531 . S
C571 C570 1.369 . S
C571 C572 1.410 . S
C571 C579 1.503 . S
C572 C571 1.410 . S
C572 C573 1.392 . S
C572 C575 1.511 . S
C573 C569 1.376 . S
C573 C572 1.392 . S
C573 H585 0.929 . S
C574 C570 1.531 . S
C574 H586 0.960 . S
C574 H587 0.962 . S
C574 H588 0.960 . S
C575 C572 1.511 . S
C575 H589 0.961 . S
C575 H590 0.961 . S
C575 H591 0.961 . S
C576 C577 1.370 1_545 S
C576 C578 1.364 1_545 S
C576 H592 0.931 . S
C577 C576 1.370 1_565 S
C577 C581 1.408 . S
C578 C576 1.364 1_565 S
C578 C579 1.383 . S
C578 C582 1.511 1_565 S
C579 C571 1.503 . S
C579 C578 1.383 . S
C579 C580 1.403 . S
C580 C579 1.403 . S
C580 C581 1.404 . S
C580 C583 1.539 . S
C581 C577 1.408 . S
C581 C580 1.404 . S
C581 H593 0.930 . S
C582 C578 1.511 1_545 S
C582 H594 0.956 . S
C582 H595 0.961 . S
C582 H596 0.961 . S
C583 C580 1.539 . S
C583 H597 0.958 . S
C583 H598 0.961 . S
C583 H599 0.960 . S
H584 C568 0.931 . S
H585 C573 0.929 . S
H586 C574 0.960 . S
H587 C574 0.962 . S
H588 C574 0.960 . S
H589 C575 0.961 . S
H590 C575 0.961 . S
H591 C575 0.961 . S
H592 C576 0.931 . S
H593 C581 0.930 . S
H594 C582 0.956 . S
H595 C582 0.961 . S
H596 C582 0.961 . S
H597 C583 0.958 . S
H598 C583 0.961 . S
H599 C583 0.960 . S
C600 C601 1.391 . S
C600 C602 1.394 . S
C600 H616 0.931 . S
C601 C600 1.391 . S
C601 C605 1.376 . S
C602 C600 1.394 . S
C602 C603 1.369 . S
C602 C606 1.531 . S
C603 C602 1.369 . S
C603 C604 1.410 . S
C603 C611 1.503 . S
C604 C603 1.410 . S
C604 C605 1.392 . S
C604 C607 1.511 . S
C605 C601 1.376 . S
C605 C604 1.392 . S
C605 H617 0.929 . S
C606 C602 1.531 . S
C606 H618 0.960 . S
C606 H619 0.962 . S
C606 H620 0.960 . S
C607 C604 1.511 . S
C607 H621 0.961 . S
C607 H622 0.961 . S
C607 H623 0.961 . S
C608 C609 1.370 . S
C608 C610 1.363 . S
C608 H624 0.931 . S
C609 C608 1.370 . S
C609 C613 1.408 . S
C610 C608 1.363 . S
C610 C611 1.370 . S
C610 C614 1.524 . S
C611 C603 1.503 . S
C611 C610 1.370 . S
C611 C612 1.403 . S
C612 C611 1.403 . S
C612 C613 1.404 . S
C612 C615 1.539 . S
C613 C609 1.408 . S
C613 C612 1.404 . S
C613 H625 0.930 . S
C614 C610 1.524 . S
C614 H626 0.956 . S
C614 H627 0.961 . S
C614 H628 0.961 . S
C615 C612 1.539 . S
C615 H629 0.958 . S
C615 H630 0.961 . S
C615 H631 0.960 . S
H616 C600 0.931 . S
H617 C605 0.929 . S
H618 C606 0.960 . S
H619 C606 0.962 . S
H620 C606 0.960 . S
H621 C607 0.961 . S
H622 C607 0.961 . S
H623 C607 0.961 . S
H624 C608 0.931 . S
H625 C613 0.930 . S
H626 C614 0.956 . S
H627 C614 0.961 . S
H628 C614 0.961 . S
H629 C615 0.958 . S
H630 C615 0.961 . S
H631 C615 0.960 . S
C632 C633 1.391 . S
C632 C634 1.394 . S
C632 H648 0.931 . S
C633 C632 1.391 . S
C633 C637 1.376 . S
C634 C632 1.394 . S
C634 C635 1.369 . S
C634 C638 1.531 . S
C635 C634 1.369 . S
C635 C636 1.410 . S
C635 C643 1.503 . S
C636 C635 1.410 . S
C636 C637 1.392 . S
C636 C639 1.511 . S
C637 C633 1.376 . S
C637 C636 1.392 . S
C637 H649 0.929 . S
C638 C634 1.531 . S
C638 H650 0.960 . S
C638 H651 0.962 . S
C638 H652 0.960 . S
C639 C636 1.511 . S
C639 H653 0.961 . S
C639 H654 0.961 . S
C639 H655 0.961 . S
C640 C641 1.370 . S
C640 C642 1.363 . S
C640 H656 0.931 . S
C641 C640 1.370 . S
C641 C645 1.408 . S
C642 C640 1.363 . S
C642 C643 1.370 . S
C642 C646 1.524 . S
C643 C635 1.503 . S
C643 C642 1.370 . S
C643 C644 1.403 . S
C644 C643 1.403 . S
C644 C645 1.404 . S
C644 C647 1.539 . S
C645 C641 1.408 . S
C645 C644 1.404 . S
C645 H657 0.930 . S
C646 C642 1.524 . S
C646 H658 0.956 . S
C646 H659 0.961 . S
C646 H660 0.961 . S
C647 C644 1.539 . S
C647 H661 0.958 . S
C647 H662 0.961 . S
C647 H663 0.960 . S
H648 C632 0.931 . S
H649 C637 0.929 . S
H650 C638 0.960 . S
H651 C638 0.962 . S
H652 C638 0.960 . S
H653 C639 0.961 . S
H654 C639 0.961 . S
H655 C639 0.961 . S
H656 C640 0.931 . S
H657 C645 0.930 . S
H658 C646 0.956 . S
H659 C646 0.961 . S
H660 C646 0.961 . S
H661 C647 0.958 . S
H662 C647 0.961 . S
H663 C647 0.960 . S
C664 C665 1.391 . S
C664 C666 1.394 . S
C664 H680 0.931 . S
C665 C664 1.391 . S
C665 C669 1.376 . S
C666 C664 1.394 . S
C666 C667 1.369 . S
C666 C670 1.531 . S
C667 C666 1.369 . S
C667 C668 1.410 . S
C667 C675 1.503 . S
C668 C667 1.410 . S
C668 C669 1.392 . S
C668 C671 1.511 . S
C669 C665 1.376 . S
C669 C668 1.392 . S
C669 H681 0.929 . S
C670 C666 1.531 . S
C670 H682 0.960 . S
C670 H683 0.962 . S
C670 H684 0.960 . S
C671 C668 1.511 . S
C671 H685 0.961 . S
C671 H686 0.961 . S
C671 H687 0.961 . S
C672 C673 1.370 . S
C672 C674 1.363 . S
C672 H688 0.931 . S
C673 C672 1.370 . S
C673 C677 1.408 . S
C674 C672 1.363 . S
C674 C675 1.370 . S
C674 C678 1.524 . S
C675 C667 1.503 . S
C675 C674 1.370 . S
C675 C676 1.403 . S
C676 C675 1.403 . S
C676 C677 1.404 . S
C676 C679 1.539 . S
C677 C673 1.408 . S
C677 C676 1.404 . S
C677 H689 0.930 . S
C678 C674 1.524 . S
C678 H690 0.956 . S
C678 H691 0.961 . S
C678 H692 0.961 . S
C679 C676 1.539 . S
C679 H693 0.958 . S
C679 H694 0.961 . S
C679 H695 0.960 . S
H680 C664 0.931 . S
H681 C669 0.929 . S
H682 C670 0.960 . S
H683 C670 0.962 . S
H684 C670 0.960 . S
H685 C671 0.961 . S
H686 C671 0.961 . S
H687 C671 0.961 . S
H688 C672 0.931 . S
H689 C677 0.930 . S
H690 C678 0.956 . S
H691 C678 0.961 . S
H692 C678 0.961 . S
H693 C679 0.958 . S
H694 C679 0.961 . S
H695 C679 0.960 . S
C696 C697 1.391 . S
C696 C698 1.394 . S
C696 H712 0.931 . S
C697 C696 1.391 . S
C697 C701 1.376 . S
C698 C696 1.394 . S
C698 C699 1.369 . S
C698 C702 1.531 . S
C699 C698 1.369 . S
C699 C700 1.410 . S
C699 C707 1.503 . S
C700 C699 1.410 . S
C700 C701 1.392 . S
C700 C703 1.511 . S
C701 C697 1.376 . S
C701 C700 1.392 . S
C701 H713 0.929 . S
C702 C698 1.531 . S
C702 H714 0.960 . S
C702 H715 0.962 . S
C702 H716 0.960 . S
C703 C700 1.511 . S
C703 H717 0.961 . S
C703 H718 0.961 . S
C703 H719 0.961 . S
C704 C705 1.370 . S
C704 C706 1.363 . S
C704 H720 0.931 . S
C705 C704 1.370 . S
C705 C709 1.408 . S
C706 C704 1.363 . S
C706 C707 1.370 . S
C706 C710 1.524 . S
C707 C699 1.503 . S
C707 C706 1.370 . S
C707 C708 1.403 . S
C708 C707 1.403 . S
C708 C709 1.404 . S
C708 C711 1.539 . S
C709 C705 1.408 . S
C709 C708 1.404 . S
C709 H721 0.930 . S
C710 C706 1.524 . S
C710 H722 0.956 . S
C710 H723 0.961 . S
C710 H724 0.961 . S
C711 C708 1.539 . S
C711 H725 0.958 . S
C711 H726 0.961 . S
C711 H727 0.960 . S
H712 C696 0.931 . S
H713 C701 0.929 . S
H714 C702 0.960 . S
H715 C702 0.962 . S
H716 C702 0.960 . S
H717 C703 0.961 . S
H718 C703 0.961 . S
H719 C703 0.961 . S
H720 C704 0.931 . S
H721 C709 0.930 . S
H722 C710 0.956 . S
H723 C710 0.961 . S
H724 C710 0.961 . S
H725 C711 0.958 . S
H726 C711 0.961 . S
H727 C711 0.960 . S
C728 C729 1.391 . S
C728 C730 1.394 . S
C728 H744 0.931 . S
C729 C728 1.391 . S
C729 C733 1.376 . S
C730 C728 1.394 . S
C730 C731 1.369 . S
C730 C734 1.531 . S
C731 C730 1.369 . S
C731 C732 1.410 . S
C731 C739 1.503 . S
C732 C731 1.410 . S
C732 C733 1.392 . S
C732 C735 1.511 . S
C733 C729 1.376 . S
C733 C732 1.392 . S
C733 H745 0.929 . S
C734 C730 1.531 . S
C734 H746 0.960 . S
C734 H747 0.962 . S
C734 H748 0.960 . S
C735 C732 1.511 . S
C735 H749 0.961 . S
C735 H750 0.961 . S
C735 H751 0.961 . S
C736 C737 1.370 . S
C736 C738 1.363 . S
C736 H752 0.931 . S
C737 C736 1.370 . S
C737 C741 1.408 . S
C738 C736 1.363 . S
C738 C739 1.370 . S
C738 C742 1.524 . S
C739 C731 1.503 . S
C739 C738 1.370 . S
C739 C740 1.403 . S
C740 C739 1.403 . S
C740 C741 1.404 . S
C740 C743 1.539 . S
C741 C737 1.408 . S
C741 C740 1.404 . S
C741 H753 0.930 . S
C742 C738 1.524 . S
C742 H754 0.956 . S
C742 H755 0.961 . S
C742 H756 0.961 . S
C743 C740 1.539 . S
C743 H757 0.958 . S
C743 H758 0.961 . S
C743 H759 0.960 . S
H744 C728 0.931 . S
H745 C733 0.929 . S
H746 C734 0.960 . S
H747 C734 0.962 . S
H748 C734 0.960 . S
H749 C735 0.961 . S
H750 C735 0.961 . S
H751 C735 0.961 . S
H752 C736 0.931 . S
H753 C741 0.930 . S
H754 C742 0.956 . S
H755 C742 0.961 . S
H756 C742 0.961 . S
H757 C743 0.958 . S
H758 C743 0.961 . S
H759 C743 0.960 . S
C760 C761 1.391 . S
C760 C762 1.394 . S
C760 H776 0.931 . S
C761 C760 1.391 . S
C761 C765 1.376 . S
C762 C760 1.394 . S
C762 C763 1.369 . S
C762 C766 1.531 . S
C763 C762 1.369 . S
C763 C764 1.410 . S
C763 C771 1.503 . S
C764 C763 1.410 . S
C764 C765 1.392 . S
C764 C767 1.511 . S
C765 C761 1.376 . S
C765 C764 1.392 . S
C765 H777 0.929 . S
C766 C762 1.531 . S
C766 H778 0.960 . S
C766 H779 0.952 1_455 S
C766 H780 0.960 . S
C767 C764 1.511 . S
C767 H781 0.961 . S
C767 H782 0.961 . S
C767 H783 0.961 . S
C768 C769 1.370 . S
C768 C770 1.363 . S
C768 H784 0.931 . S
C769 C768 1.370 . S
C769 C773 1.408 . S
C770 C768 1.363 . S
C770 C771 1.370 . S
C770 C774 1.524 . S
C771 C763 1.503 . S
C771 C770 1.370 . S
C771 C772 1.403 . S
C772 C771 1.403 . S
C772 C773 1.404 . S
C772 C775 1.539 . S
C773 C769 1.408 . S
C773 C772 1.404 . S
C773 H785 0.930 . S
C774 C770 1.524 . S
C774 H786 0.956 . S
C774 H787 0.961 . S
C774 H788 0.961 . S
C775 C772 1.539 . S
C775 H789 0.958 . S
C775 H790 0.961 . S
C775 H791 0.960 . S
H776 C760 0.931 . S
H777 C765 0.929 . S
H778 C766 0.960 . S
H779 C766 0.952 1_655 S
H780 C766 0.960 . S
H781 C767 0.961 . S
H782 C767 0.961 . S
H783 C767 0.961 . S
H784 C768 0.931 . S
H785 C773 0.930 . S
H786 C774 0.956 . S
H787 C774 0.961 . S
H788 C774 0.961 . S
H789 C775 0.958 . S
H790 C775 0.961 . S
H791 C775 0.960 . S
C792 C793 1.391 . S
C792 C794 1.394 . S
C792 H808 0.931 . S
C793 C792 1.391 . S
C793 C797 1.376 . S
C794 C792 1.394 . S
C794 C795 1.369 . S
C794 C798 1.531 . S
C795 C794 1.369 . S
C795 C796 1.410 . S
C795 C803 1.503 . S
C796 C795 1.410 . S
C796 C797 1.392 . S
C796 C799 1.511 . S
C797 C793 1.376 . S
C797 C796 1.392 . S
C797 H809 0.929 . S
C798 C794 1.531 . S
C798 H810 0.960 . S
C798 H811 0.962 . S
C798 H812 0.960 . S
C799 C796 1.511 . S
C799 H813 0.961 . S
C799 H814 0.961 . S
C799 H815 0.961 . S
C800 C801 1.370 . S
C800 C802 1.363 . S
C800 H816 0.931 . S
C801 C800 1.370 . S
C801 C805 1.408 . S
C802 C800 1.363 . S
C802 C803 1.370 . S
C802 C806 1.524 . S
C803 C795 1.503 . S
C803 C802 1.370 . S
C803 C804 1.403 . S
C804 C803 1.403 . S
C804 C805 1.404 . S
C804 C807 1.539 . S
C805 C801 1.408 . S
C805 C804 1.404 . S
C805 H817 0.930 . S
C806 C802 1.524 . S
C806 H818 0.956 . S
C806 H819 0.961 . S
C806 H820 0.961 . S
C807 C804 1.539 . S
C807 H821 0.958 . S
C807 H822 0.961 . S
C807 H823 0.960 . S
H808 C792 0.931 . S
H809 C797 0.929 . S
H810 C798 0.960 . S
H811 C798 0.962 . S
H812 C798 0.960 . S
H813 C799 0.961 . S
H814 C799 0.961 . S
H815 C799 0.961 . S
H816 C800 0.931 . S
H817 C805 0.930 . S
H818 C806 0.956 . S
H819 C806 0.961 . S
H820 C806 0.961 . S
H821 C807 0.958 . S
H822 C807 0.961 . S
H823 C807 0.960 . S
C824 C825 1.391 1_455 S
C824 C826 1.394 . S
C824 H840 0.931 . S
C825 C824 1.391 1_655 S
C825 C829 1.376 . S
C826 C824 1.394 . S
C826 C827 1.369 1_455 S
C826 C830 1.531 . S
C827 C826 1.369 1_655 S
C827 C828 1.410 . S
C827 C835 1.503 . S
C828 C827 1.410 . S
C828 C829 1.392 . S
C828 C831 1.511 . S
C829 C825 1.376 . S
C829 C828 1.392 . S
C829 H841 0.929 . S
C830 C826 1.531 . S
C830 H842 0.960 . S
C830 H843 0.962 . S
C830 H844 0.960 . S
C831 C828 1.511 . S
C831 H845 0.961 . S
C831 H846 0.961 . S
C831 H847 0.961 . S
C832 C833 1.363 1_455 S
C832 C834 1.366 . S
C832 H848 0.931 . S
C833 C832 1.363 1_655 S
C833 C837 1.417 . S
C834 C832 1.366 . S
C834 C835 1.357 1_455 S
C834 C838 1.536 . S
C835 C827 1.503 . S
C835 C834 1.357 1_655 S
C835 C836 1.403 . S
C836 C835 1.403 . S
C836 C837 1.404 . S
C836 C839 1.539 . S
C837 C833 1.417 . S
C837 C836 1.404 . S
C837 H849 0.930 . S
C838 C834 1.536 . S
C838 H850 0.956 . S
C838 H851 0.961 1_455 S
C838 H852 0.961 . S
C839 C836 1.539 . S
C839 H853 0.958 . S
C839 H854 0.961 . S
C839 H855 0.960 . S
H840 C824 0.931 . S
H841 C829 0.929 . S
H842 C830 0.960 . S
H843 C830 0.962 . S
H844 C830 0.960 . S
H845 C831 0.961 . S
H846 C831 0.961 . S
H847 C831 0.961 . S
H848 C832 0.931 . S
H849 C837 0.930 . S
H850 C838 0.956 . S
H851 C838 0.961 1_655 S
H852 C838 0.961 . S
H853 C839 0.958 . S
H854 C839 0.961 . S
H855 C839 0.960 . S
C856 C857 1.391 . S
C856 C858 1.394 . S
C856 H872 0.931 . S
C857 C856 1.391 . S
C857 C861 1.376 . S
C858 C856 1.394 . S
C858 C859 1.369 . S
C858 C862 1.531 . S
C859 C858 1.369 . S
C859 C860 1.410 . S
C859 C867 1.503 . S
C860 C859 1.410 . S
C860 C861 1.392 . S
C860 C863 1.511 . S
C861 C857 1.376 . S
C861 C860 1.392 . S
C861 H873 0.929 . S
C862 C858 1.531 . S
C862 H874 0.960 . S
C862 H875 0.962 . S
C862 H876 0.960 . S
C863 C860 1.511 . S
C863 H877 0.961 . S
C863 H878 0.961 . S
C863 H879 0.961 . S
C864 C865 1.370 . S
C864 C866 1.363 . S
C864 H880 0.931 . S
C865 C864 1.370 . S
C865 C869 1.408 . S
C866 C864 1.363 . S
C866 C867 1.370 . S
C866 C870 1.524 . S
C867 C859 1.503 . S
C867 C866 1.370 . S
C867 C868 1.403 . S
C868 C867 1.403 . S
C868 C869 1.404 . S
C868 C871 1.539 . S
C869 C865 1.408 . S
C869 C868 1.404 . S
C869 H881 0.930 . S
C870 C866 1.524 . S
C870 H882 0.956 . S
C870 H883 0.961 . S
C870 H884 0.961 . S
C871 C868 1.539 . S
C871 H885 0.958 . S
C871 H886 0.961 . S
C871 H887 0.960 . S
H872 C856 0.931 . S
H873 C861 0.929 . S
H874 C862 0.960 . S
H875 C862 0.962 . S
H876 C862 0.960 . S
H877 C863 0.961 . S
H878 C863 0.961 . S
H879 C863 0.961 . S
H880 C864 0.931 . S
H881 C869 0.930 . S
H882 C870 0.956 . S
H883 C870 0.961 . S
H884 C870 0.961 . S
H885 C871 0.958 . S
H886 C871 0.961 . S
H887 C871 0.960 . S
C888 C889 1.391 . S
C888 C890 1.394 . S
C888 H904 0.931 . S
C889 C888 1.391 . S
C889 C893 1.376 . S
C890 C888 1.394 . S
C890 C891 1.369 . S
C890 C894 1.531 . S
C891 C890 1.369 . S
C891 C892 1.410 . S
C891 C899 1.503 . S
C892 C891 1.410 . S
C892 C893 1.392 . S
C892 C895 1.511 . S
C893 C889 1.376 . S
C893 C892 1.392 . S
C893 H905 0.929 . S
C894 C890 1.531 . S
C894 H906 0.960 . S
C894 H907 0.962 . S
C894 H908 0.960 . S
C895 C892 1.511 . S
C895 H909 0.961 . S
C895 H910 0.961 . S
C895 H911 0.961 . S
C896 C897 1.370 . S
C896 C898 1.363 . S
C896 H912 0.931 . S
C897 C896 1.370 . S
C897 C901 1.408 . S
C898 C896 1.363 . S
C898 C899 1.370 . S
C898 C902 1.524 . S
C899 C891 1.503 . S
C899 C898 1.370 . S
C899 C900 1.403 . S
C900 C899 1.403 . S
C900 C901 1.404 . S
C900 C903 1.539 . S
C901 C897 1.408 . S
C901 C900 1.404 . S
C901 H913 0.930 . S
C902 C898 1.524 . S
C902 H914 0.956 . S
C902 H915 0.961 . S
C902 H916 0.961 . S
C903 C900 1.539 . S
C903 H917 0.958 . S
C903 H918 0.961 . S
C903 H919 0.960 . S
H904 C888 0.931 . S
H905 C893 0.929 . S
H906 C894 0.960 . S
H907 C894 0.962 . S
H908 C894 0.960 . S
H909 C895 0.961 . S
H910 C895 0.961 . S
H911 C895 0.961 . S
H912 C896 0.931 . S
H913 C901 0.930 . S
H914 C902 0.956 . S
H915 C902 0.961 . S
H916 C902 0.961 . S
H917 C903 0.958 . S
H918 C903 0.961 . S
H919 C903 0.960 . S
C920 C921 1.391 1_565 S
C920 C922 1.394 . S
C920 H936 0.931 . S
C921 C920 1.391 1_545 S
C921 C925 1.376 . S
C922 C920 1.394 . S
C922 C923 1.369 . S
C922 C926 1.531 . S
C923 C922 1.369 . S
C923 C924 1.410 1_565 S
C923 C931 1.503 . S
C924 C923 1.410 1_545 S
C924 C925 1.392 . S
C924 C927 1.511 1_556 S
C925 C921 1.376 . S
C925 C924 1.392 . S
C925 H937 0.929 . S
C926 C922 1.531 . S
C926 H938 0.960 . S
C926 H939 0.962 . S
C926 H940 0.960 . S
C927 C924 1.511 1_554 S
C927 H941 0.961 . S
C927 H942 0.961 . S
C927 H943 0.961 . S
C928 C929 1.370 1_556 S
C928 C930 1.363 . S
C928 H944 0.931 . S
C929 C928 1.370 1_554 S
C929 C933 1.408 . S
C930 C928 1.363 . S
C930 C931 1.370 . S
C930 C934 1.524 . S
C931 C923 1.503 . S
C931 C930 1.370 . S
C931 C932 1.403 1_556 S
C932 C931 1.403 1_554 S
C932 C933 1.404 . S
C932 C935 1.539 . S
C933 C929 1.408 . S
C933 C932 1.404 . S
C933 H945 0.930 . S
C934 C930 1.524 . S
C934 H946 0.956 . S
C934 H947 0.961 . S
C934 H948 0.961 . S
C935 C932 1.539 . S
C935 H949 0.958 . S
C935 H950 0.961 . S
C935 H951 0.960 . S
H936 C920 0.931 . S
H937 C925 0.929 . S
H938 C926 0.960 . S
H939 C926 0.962 . S
H940 C926 0.960 . S
H941 C927 0.961 . S
H942 C927 0.961 . S
H943 C927 0.961 . S
H944 C928 0.931 . S
H945 C933 0.930 . S
H946 C934 0.956 . S
H947 C934 0.961 . S
H948 C934 0.961 . S
H949 C935 0.958 . S
H950 C935 0.961 . S
H951 C935 0.960 . S
C952 C953 1.391 . S
C952 C954 1.394 . S
C952 H968 0.931 . S
C953 C952 1.391 . S
C953 C957 1.376 . S
C954 C952 1.394 . S
C954 C955 1.369 . S
C954 C958 1.531 . S
C955 C954 1.369 . S
C955 C956 1.410 . S
C955 C963 1.503 . S
C956 C955 1.410 . S
C956 C957 1.392 . S
C956 C959 1.511 . S
C957 C953 1.376 . S
C957 C956 1.392 . S
C957 H969 0.929 . S
C958 C954 1.531 . S
C958 H970 0.960 . S
C958 H971 0.962 . S
C958 H972 0.960 . S
C959 C956 1.511 . S
C959 H973 0.961 . S
C959 H974 0.961 . S
C959 H975 0.961 . S
C960 C961 1.370 . S
C960 C962 1.363 . S
C960 H976 0.931 . S
C961 C960 1.370 . S
C961 C965 1.408 . S
C962 C960 1.363 . S
C962 C963 1.370 . S
C962 C966 1.524 . S
C963 C955 1.503 . S
C963 C962 1.370 . S
C963 C964 1.403 . S
C964 C963 1.403 . S
C964 C965 1.404 . S
C964 C967 1.539 . S
C965 C961 1.408 . S
C965 C964 1.404 . S
C965 H977 0.930 . S
C966 C962 1.524 . S
C966 H978 0.956 . S
C966 H979 0.961 . S
C966 H980 0.961 . S
C967 C964 1.539 . S
C967 H981 0.958 . S
C967 H982 0.961 . S
C967 H983 0.960 . S
H968 C952 0.931 . S
H969 C957 0.929 . S
H970 C958 0.960 . S
H971 C958 0.962 . S
H972 C958 0.960 . S
H973 C959 0.961 . S
H974 C959 0.961 . S
H975 C959 0.961 . S
H976 C960 0.931 . S
H977 C965 0.930 . S
H978 C966 0.956 . S
H979 C966 0.961 . S
H980 C966 0.961 . S
H981 C967 0.958 . S
H982 C967 0.961 . S
H983 C967 0.960 . S
C984 C985 1.391 1_545 S
C984 C986 1.394 . S
C984 H1000 0.931 . S
C985 C984 1.391 1_565 S
C985 C989 1.378 1_565 S
C986 C984 1.394 . S
C986 C987 1.369 . S
C986 C990 1.531 . S
C987 C986 1.369 . S
C987 C988 1.410 . S
C987 C995 1.503 . S
C988 C987 1.410 . S
C988 C989 1.415 . S
C988 C991 1.511 . S
C989 C985 1.378 1_545 S
C989 C988 1.415 . S
C989 H1001 0.904 1_545 S
C990 C986 1.531 . S
C990 H1002 0.960 . S
C990 H1003 0.962 . S
C990 H1004 0.960 . S
C991 C988 1.511 . S
C991 H1005 0.961 . S
C991 H1006 0.961 . S
C991 H1007 0.961 . S
C992 C993 1.370 . S
C992 C994 1.363 . S
C992 H1008 0.931 . S
C993 C992 1.370 . S
C993 C997 1.408 . S
C994 C992 1.363 . S
C994 C995 1.370 . S
C994 C998 1.524 . S
C995 C987 1.503 . S
C995 C994 1.370 . S
C995 C996 1.403 . S
C996 C995 1.403 . S
C996 C997 1.404 . S
C996 C999 1.539 . S
C997 C993 1.408 . S
C997 C996 1.404 . S
C997 H1009 0.930 . S
C998 C994 1.524 . S
C998 H1010 0.956 . S
C998 H1011 0.961 . S
C998 H1012 0.961 . S
C999 C996 1.539 . S
C999 H1013 0.958 . S
C999 H1014 0.961 . S
C999 H1015 0.960 . S
H1000 C984 0.931 . S
H1001 C989 0.904 1_565 S
H1002 C990 0.960 . S
H1003 C990 0.962 . S
H1004 C990 0.960 . S
H1005 C991 0.961 . S
H1006 C991 0.961 . S
H1007 C991 0.961 . S
H1008 C992 0.931 . S
H1009 C997 0.930 . S
H1010 C998 0.956 . S
H1011 C998 0.961 . S
H1012 C998 0.961 . S
H1013 C999 0.958 . S
H1014 C999 0.961 . S
H1015 C999 0.960 . S
C1016 C1017 1.391 . S
C1016 C1018 1.394 . S
C1016 H1032 0.931 . S
C1017 C1016 1.391 . S
C1017 C1021 1.376 . S
C1018 C1016 1.394 . S
C1018 C1019 1.369 . S
C1018 C1022 1.531 . S
C1019 C1018 1.369 . S
C1019 C1020 1.410 . S
C1019 C1027 1.503 . S
C1020 C1019 1.410 . S
C1020 C1021 1.392 . S
C1020 C1023 1.511 . S
C1021 C1017 1.376 . S
C1021 C1020 1.392 . S
C1021 H1033 0.929 . S
C1022 C1018 1.531 . S
C1022 H1034 0.960 . S
C1022 H1035 0.962 . S
C1022 H1036 0.960 . S
C1023 C1020 1.511 . S
C1023 H1037 0.961 . S
C1023 H1038 0.961 . S
C1023 H1039 0.961 . S
C1024 C1025 1.370 . S
C1024 C1026 1.363 . S
C1024 H1040 0.931 . S
C1025 C1024 1.370 . S
C1025 C1029 1.408 . S
C1026 C1024 1.363 . S
C1026 C1027 1.370 . S
C1026 C1030 1.524 . S
C1027 C1019 1.503 . S
C1027 C1026 1.370 . S
C1027 C1028 1.403 . S
C1028 C1027 1.403 . S
C1028 C1029 1.404 . S
C1028 C1031 1.539 . S
C1029 C1025 1.408 . S
C1029 C1028 1.404 . S
C1029 H1041 0.930 . S
C1030 C1026 1.524 . S
C1030 H1042 0.956 . S
C1030 H1043 0.961 . S
C1030 H1044 0.961 . S
C1031 C1028 1.539 . S
C1031 H1045 0.958 . S
C1031 H1046 0.961 . S
C1031 H1047 0.960 . S
H1032 C1016 0.931 . S
H1033 C1021 0.929 . S
H1034 C1022 0.960 . S
H1035 C1022 0.962 . S
H1036 C1022 0.960 . S
H1037 C1023 0.961 . S
H1038 C1023 0.961 . S
H1039 C1023 0.961 . S
H1040 C1024 0.931 . S
H1041 C1029 0.930 . S
H1042 C1030 0.956 . S
H1043 C1030 0.961 . S
H1044 C1030 0.961 . S
H1045 C1031 0.958 . S
H1046 C1031 0.961 . S
H1047 C1031 0.960 . S
C1048 C1049 1.391 . S
C1048 C1050 1.394 . S
C1048 H1064 0.931 . S
C1049 C1048 1.391 . S
C1049 C1053 1.376 . S
C1050 C1048 1.394 . S
C1050 C1051 1.369 . S
C1050 C1054 1.531 . S
C1051 C1050 1.369 . S
C1051 C1052 1.410 . S
C1051 C1059 1.503 . S
C1052 C1051 1.410 . S
C1052 C1053 1.392 . S
C1052 C1055 1.511 . S
C1053 C1049 1.376 . S
C1053 C1052 1.392 . S
C1053 H1065 0.929 . S
C1054 C1050 1.531 . S
C1054 H1066 0.960 . S
C1054 H1067 0.962 . S
C1054 H1068 0.960 . S
C1055 C1052 1.511 . S
C1055 H1069 0.961 . S
C1055 H1070 0.961 . S
C1055 H1071 0.961 . S
C1056 C1057 1.370 . S
C1056 C1058 1.363 . S
C1056 H1072 0.931 . S
C1057 C1056 1.370 . S
C1057 C1061 1.408 . S
C1058 C1056 1.363 . S
C1058 C1059 1.370 . S
C1058 C1062 1.524 . S
C1059 C1051 1.503 . S
C1059 C1058 1.370 . S
C1059 C1060 1.403 . S
C1060 C1059 1.403 . S
C1060 C1061 1.404 . S
C1060 C1063 1.539 . S
C1061 C1057 1.408 . S
C1061 C1060 1.404 . S
C1061 H1073 0.930 . S
C1062 C1058 1.524 . S
C1062 H1074 0.956 . S
C1062 H1075 0.961 . S
C1062 H1076 0.961 . S
C1063 C1060 1.539 . S
C1063 H1077 0.958 . S
C1063 H1078 0.961 . S
C1063 H1079 0.960 . S
H1064 C1048 0.931 . S
H1065 C1053 0.929 . S
H1066 C1054 0.960 . S
H1067 C1054 0.962 . S
H1068 C1054 0.960 . S
H1069 C1055 0.961 . S
H1070 C1055 0.961 . S
H1071 C1055 0.961 . S
H1072 C1056 0.931 . S
H1073 C1061 0.930 . S
H1074 C1062 0.956 . S
H1075 C1062 0.961 . S
H1076 C1062 0.961 . S
H1077 C1063 0.958 . S
H1078 C1063 0.961 . S
H1079 C1063 0.960 . S
C1080 C1081 1.391 . S
C1080 C1082 1.394 . S
C1080 H1096 0.931 . S
C1081 C1080 1.391 . S
C1081 C1085 1.376 . S
C1082 C1080 1.394 . S
C1082 C1083 1.369 . S
C1082 C1086 1.531 . S
C1083 C1082 1.369 . S
C1083 C1084 1.410 . S
C1083 C1091 1.503 . S
C1084 C1083 1.410 . S
C1084 C1085 1.392 . S
C1084 C1087 1.511 . S
C1085 C1081 1.376 . S
C1085 C1084 1.392 . S
C1085 H1097 0.929 . S
C1086 C1082 1.531 . S
C1086 H1098 0.960 . S
C1086 H1099 0.962 . S
C1086 H1100 0.960 . S
C1087 C1084 1.511 . S
C1087 H1101 0.961 . S
C1087 H1102 0.961 . S
C1087 H1103 0.961 . S
C1088 C1089 1.370 . S
C1088 C1090 1.363 . S
C1088 H1104 0.931 . S
C1089 C1088 1.370 . S
C1089 C1093 1.408 . S
C1090 C1088 1.363 . S
C1090 C1091 1.370 . S
C1090 C1094 1.524 . S
C1091 C1083 1.503 . S
C1091 C1090 1.370 . S
C1091 C1092 1.403 . S
C1092 C1091 1.403 . S
C1092 C1093 1.404 . S
C1092 C1095 1.539 . S
C1093 C1089 1.408 . S
C1093 C1092 1.404 . S
C1093 H1105 0.930 . S
C1094 C1090 1.524 . S
C1094 H1106 0.956 . S
C1094 H1107 0.961 . S
C1094 H1108 0.961 . S
C1095 C1092 1.539 . S
C1095 H1109 0.958 . S
C1095 H1110 0.961 . S
C1095 H1111 0.960 . S
H1096 C1080 0.931 . S
H1097 C1085 0.929 . S
H1098 C1086 0.960 . S
H1099 C1086 0.962 . S
H1100 C1086 0.960 . S
H1101 C1087 0.961 . S
H1102 C1087 0.961 . S
H1103 C1087 0.961 . S
H1104 C1088 0.931 . S
H1105 C1093 0.930 . S
H1106 C1094 0.956 . S
H1107 C1094 0.961 . S
H1108 C1094 0.961 . S
H1109 C1095 0.958 . S
H1110 C1095 0.961 . S
H1111 C1095 0.960 . S
C1112 C1113 1.391 . S
C1112 C1114 1.394 . S
C1112 H1128 0.931 . S
C1113 C1112 1.391 . S
C1113 C1117 1.376 . S
C1114 C1112 1.394 . S
C1114 C1115 1.369 . S
C1114 C1118 1.531 . S
C1115 C1114 1.369 . S
C1115 C1116 1.410 . S
C1115 C1123 1.503 . S
C1116 C1115 1.410 . S
C1116 C1117 1.392 . S
C1116 C1119 1.511 . S
C1117 C1113 1.376 . S
C1117 C1116 1.392 . S
C1117 H1129 0.929 . S
C1118 C1114 1.531 . S
C1118 H1130 0.960 . S
C1118 H1131 0.962 . S
C1118 H1132 0.960 . S
C1119 C1116 1.511 . S
C1119 H1133 0.961 . S
C1119 H1134 0.961 . S
C1119 H1135 0.961 . S
C1120 C1121 1.370 . S
C1120 C1122 1.363 . S
C1120 H1136 0.931 . S
C1121 C1120 1.370 . S
C1121 C1125 1.408 . S
C1122 C1120 1.363 . S
C1122 C1123 1.370 . S
C1122 C1126 1.524 . S
C1123 C1115 1.503 . S
C1123 C1122 1.370 . S
C1123 C1124 1.403 . S
C1124 C1123 1.403 . S
C1124 C1125 1.404 . S
C1124 C1127 1.539 . S
C1125 C1121 1.408 . S
C1125 C1124 1.404 . S
C1125 H1137 0.930 . S
C1126 C1122 1.524 . S
C1126 H1138 0.956 . S
C1126 H1139 0.961 . S
C1126 H1140 0.961 . S
C1127 C1124 1.539 . S
C1127 H1141 0.958 . S
C1127 H1142 0.961 . S
C1127 H1143 0.960 . S
H1128 C1112 0.931 . S
H1129 C1117 0.929 . S
H1130 C1118 0.960 . S
H1131 C1118 0.962 . S
H1132 C1118 0.960 . S
H1133 C1119 0.961 . S
H1134 C1119 0.961 . S
H1135 C1119 0.961 . S
H1136 C1120 0.931 . S
H1137 C1125 0.930 . S
H1138 C1126 0.956 . S
H1139 C1126 0.961 . S
H1140 C1126 0.961 . S
H1141 C1127 0.958 . S
H1142 C1127 0.961 . S
H1143 C1127 0.960 . S
C1144 C1145 1.391 . S
C1144 C1146 1.394 . S
C1144 H1160 0.931 . S
C1145 C1144 1.391 . S
C1145 C1149 1.376 . S
C1146 C1144 1.394 . S
C1146 C1147 1.369 . S
C1146 C1150 1.531 . S
C1147 C1146 1.369 . S
C1147 C1148 1.410 . S
C1147 C1155 1.503 . S
C1148 C1147 1.410 . S
C1148 C1149 1.392 . S
C1148 C1151 1.511 . S
C1149 C1145 1.376 . S
C1149 C1148 1.392 . S
C1149 H1161 0.929 . S
C1150 C1146 1.531 . S
C1150 H1162 0.960 . S
C1150 H1163 0.962 1_545 S
C1150 H1164 0.960 . S
C1151 C1148 1.511 . S
C1151 H1165 0.961 . S
C1151 H1166 0.961 . S
C1151 H1167 0.961 . S
C1152 C1153 1.370 . S
C1152 C1154 1.363 . S
C1152 H1168 0.931 1_545 S
C1153 C1152 1.370 . S
C1153 C1157 1.408 . S
C1154 C1152 1.363 . S
C1154 C1155 1.370 . S
C1154 C1158 1.524 1_545 S
C1155 C1147 1.503 . S
C1155 C1154 1.370 . S
C1155 C1156 1.403 . S
C1156 C1155 1.403 . S
C1156 C1157 1.404 . S
C1156 C1159 1.539 . S
C1157 C1153 1.408 . S
C1157 C1156 1.404 . S
C1157 H1169 0.930 . S
C1158 C1154 1.524 1_565 S
C1158 H1170 0.956 . S
C1158 H1171 0.961 1_565 S
C1158 H1172 0.961 . S
C1159 C1156 1.539 . S
C1159 H1173 0.958 . S
C1159 H1174 0.961 . S
C1159 H1175 0.960 . S
H1160 C1144 0.931 . S
H1161 C1149 0.929 . S
H1162 C1150 0.960 . S
H1163 C1150 0.962 1_565 S
H1164 C1150 0.960 . S
H1165 C1151 0.961 . S
H1166 C1151 0.961 . S
H1167 C1151 0.961 . S
H1168 C1152 0.931 1_565 S
H1169 C1157 0.930 . S
H1170 C1158 0.956 . S
H1171 C1158 0.961 1_545 S
H1172 C1158 0.961 . S
H1173 C1159 0.958 . S
H1174 C1159 0.961 . S
H1175 C1159 0.960 . S
C1176 C1177 1.391 . S
C1176 C1178 1.394 . S
C1176 H1192 0.931 . S
C1177 C1176 1.391 . S
C1177 C1181 1.376 . S
C1178 C1176 1.394 . S
C1178 C1179 1.369 . S
C1178 C1182 1.531 . S
C1179 C1178 1.369 . S
C1179 C1180 1.410 . S
C1179 C1187 1.503 . S
C1180 C1179 1.410 . S
C1180 C1181 1.392 . S
C1180 C1183 1.511 . S
C1181 C1177 1.376 . S
C1181 C1180 1.392 . S
C1181 H1193 0.929 . S
C1182 C1178 1.531 . S
C1182 H1194 0.960 . S
C1182 H1195 0.962 . S
C1182 H1196 0.960 . S
C1183 C1180 1.511 . S
C1183 H1197 0.961 . S
C1183 H1198 0.961 . S
C1183 H1199 0.961 . S
C1184 C1185 1.370 . S
C1184 C1186 1.363 . S
C1184 H1200 0.931 . S
C1185 C1184 1.370 . S
C1185 C1189 1.408 . S
C1186 C1184 1.363 . S
C1186 C1187 1.370 . S
C1186 C1190 1.524 . S
C1187 C1179 1.503 . S
C1187 C1186 1.370 . S
C1187 C1188 1.403 . S
C1188 C1187 1.403 . S
C1188 C1189 1.404 . S
C1188 C1191 1.539 . S
C1189 C1185 1.408 . S
C1189 C1188 1.404 . S
C1189 H1201 0.930 . S
C1190 C1186 1.524 . S
C1190 H1202 0.956 . S
C1190 H1203 0.961 . S
C1190 H1204 0.961 . S
C1191 C1188 1.539 . S
C1191 H1205 0.958 . S
C1191 H1206 0.961 . S
C1191 H1207 0.960 . S
H1192 C1176 0.931 . S
H1193 C1181 0.929 . S
H1194 C1182 0.960 . S
H1195 C1182 0.962 . S
H1196 C1182 0.960 . S
H1197 C1183 0.961 . S
H1198 C1183 0.961 . S
H1199 C1183 0.961 . S
H1200 C1184 0.931 . S
H1201 C1189 0.930 . S
H1202 C1190 0.956 . S
H1203 C1190 0.961 . S
H1204 C1190 0.961 . S
H1205 C1191 0.958 . S
H1206 C1191 0.961 . S
H1207 C1191 0.960 . S
C1208 C1209 1.391 . S
C1208 C1210 1.394 . S
C1208 H1224 0.931 . S
C1209 C1208 1.391 . S
C1209 C1213 1.376 . S
C1210 C1208 1.394 . S
C1210 C1211 1.369 . S
C1210 C1214 1.531 . S
C1211 C1210 1.369 . S
C1211 C1212 1.410 . S
C1211 C1219 1.503 . S
C1212 C1211 1.410 . S
C1212 C1213 1.392 . S
C1212 C1215 1.511 . S
C1213 C1209 1.376 . S
C1213 C1212 1.392 . S
C1213 H1225 0.929 . S
C1214 C1210 1.531 . S
C1214 H1226 0.960 . S
C1214 H1227 0.962 . S
C1214 H1228 0.960 . S
C1215 C1212 1.511 . S
C1215 H1229 0.961 . S
C1215 H1230 0.961 . S
C1215 H1231 0.961 . S
C1216 C1217 1.370 . S
C1216 C1218 1.363 . S
C1216 H1232 0.931 . S
C1217 C1216 1.370 . S
C1217 C1221 1.408 . S
C1218 C1216 1.363 . S
C1218 C1219 1.370 . S
C1218 C1222 1.524 . S
C1219 C1211 1.503 . S
C1219 C1218 1.370 . S
C1219 C1220 1.403 . S
C1220 C1219 1.403 . S
C1220 C1221 1.404 . S
C1220 C1223 1.539 . S
C1221 C1217 1.408 . S
C1221 C1220 1.404 . S
C1221 H1233 0.930 . S
C1222 C1218 1.524 . S
C1222 H1234 0.956 . S
C1222 H1235 0.961 . S
C1222 H1236 0.961 . S
C1223 C1220 1.539 . S
C1223 H1237 0.958 . S
C1223 H1238 0.961 . S
C1223 H1239 0.960 . S
H1224 C1208 0.931 . S
H1225 C1213 0.929 . S
H1226 C1214 0.960 . S
H1227 C1214 0.962 . S
H1228 C1214 0.960 . S
H1229 C1215 0.961 . S
H1230 C1215 0.961 . S
H1231 C1215 0.961 . S
H1232 C1216 0.931 . S
H1233 C1221 0.930 . S
H1234 C1222 0.956 . S
H1235 C1222 0.961 . S
H1236 C1222 0.961 . S
H1237 C1223 0.958 . S
H1238 C1223 0.961 . S
H1239 C1223 0.960 . S
C1240 C1241 1.391 . S
C1240 C1242 1.394 . S
C1240 H1256 0.931 . S
C1241 C1240 1.391 . S
C1241 C1245 1.376 . S
C1242 C1240 1.394 . S
C1242 C1243 1.369 . S
C1242 C1246 1.531 . S
C1243 C1242 1.369 . S
C1243 C1244 1.410 . S
C1243 C1251 1.503 . S
C1244 C1243 1.410 . S
C1244 C1245 1.392 . S
C1244 C1247 1.511 . S
C1245 C1241 1.376 . S
C1245 C1244 1.392 . S
C1245 H1257 0.929 . S
C1246 C1242 1.531 . S
C1246 H1258 0.960 . S
C1246 H1259 0.962 . S
C1246 H1260 0.960 . S
C1247 C1244 1.511 . S
C1247 H1261 0.961 . S
C1247 H1262 0.961 . S
C1247 H1263 0.961 . S
C1248 C1249 1.370 . S
C1248 C1250 1.363 . S
C1248 H1264 0.931 . S
C1249 C1248 1.370 . S
C1249 C1253 1.408 . S
C1250 C1248 1.363 . S
C1250 C1251 1.370 . S
C1250 C1254 1.524 . S
C1251 C1243 1.503 . S
C1251 C1250 1.370 . S
C1251 C1252 1.403 . S
C1252 C1251 1.403 . S
C1252 C1253 1.404 . S
C1252 C1255 1.539 . S
C1253 C1249 1.408 . S
C1253 C1252 1.404 . S
C1253 H1265 0.930 . S
C1254 C1250 1.524 . S
C1254 H1266 0.956 . S
C1254 H1267 0.961 . S
C1254 H1268 0.961 . S
C1255 C1252 1.539 . S
C1255 H1269 0.958 . S
C1255 H1270 0.961 . S
C1255 H1271 0.960 . S
H1256 C1240 0.931 . S
H1257 C1245 0.929 . S
H1258 C1246 0.960 . S
H1259 C1246 0.962 . S
H1260 C1246 0.960 . S
H1261 C1247 0.961 . S
H1262 C1247 0.961 . S
H1263 C1247 0.961 . S
H1264 C1248 0.931 . S
H1265 C1253 0.930 . S
H1266 C1254 0.956 . S
H1267 C1254 0.961 . S
H1268 C1254 0.961 . S
H1269 C1255 0.958 . S
H1270 C1255 0.961 . S
H1271 C1255 0.960 . S
C1272 C1273 1.391 . S
C1272 C1274 1.394 . S
C1272 H1288 0.931 . S
C1273 C1272 1.391 . S
C1273 C1277 1.376 . S
C1274 C1272 1.394 . S
C1274 C1275 1.369 . S
C1274 C1278 1.531 . S
C1275 C1274 1.369 . S
C1275 C1276 1.410 . S
C1275 C1283 1.501 1_455 S
C1276 C1275 1.410 . S
C1276 C1277 1.392 . S
C1276 C1279 1.511 1_545 S
C1277 C1273 1.376 . S
C1277 C1276 1.392 . S
C1277 H1289 0.929 . S
C1278 C1274 1.531 . S
C1278 H1290 0.960 1_455 S
C1278 H1291 0.962 . S
C1278 H1292 0.968 . S
C1279 C1276 1.511 1_565 S
C1279 H1293 0.961 . S
C1279 H1294 0.961 . S
C1279 H1295 0.961 . S
C1280 C1281 1.370 1_455 S
C1280 C1282 1.363 . S
C1280 H1296 0.931 . S
C1281 C1280 1.370 1_655 S
C1281 C1285 1.408 . S
C1282 C1280 1.363 . S
C1282 C1283 1.368 1_455 S
C1282 C1286 1.524 . S
C1283 C1275 1.501 1_655 S
C1283 C1282 1.368 1_655 S
C1283 C1284 1.407 . S
C1284 C1283 1.407 . S
C1284 C1285 1.404 . S
C1284 C1287 1.539 . S
C1285 C1281 1.408 . S
C1285 C1284 1.404 . S
C1285 H1297 0.930 . S
C1286 C1282 1.524 . S
C1286 H1298 0.956 . S
C1286 H1299 0.961 . S
C1286 H1300 0.961 . S
C1287 C1284 1.539 . S
C1287 H1301 0.958 . S
C1287 H1302 0.961 . S
C1287 H1303 0.960 . S
H1288 C1272 0.931 . S
H1289 C1277 0.929 . S
H1290 C1278 0.960 1_655 S
H1291 C1278 0.962 . S
H1292 C1278 0.968 . S
H1293 C1279 0.961 . S
H1294 C1279 0.961 . S
H1295 C1279 0.961 . S
H1296 C1280 0.931 . S
H1297 C1285 0.930 . S
H1298 C1286 0.956 . S
H1299 C1286 0.961 . S
H1300 C1286 0.961 . S
H1301 C1287 0.958 . S
H1302 C1287 0.961 . S
H1303 C1287 0.960 . S
C1304 C1305 1.391 . S
C1304 C1306 1.394 . S
C1304 H1320 0.931 . S
C1305 C1304 1.391 . S
C1305 C1309 1.376 . S
C1306 C1304 1.394 . S
C1306 C1307 1.369 . S
C1306 C1310 1.531 . S
C1307 C1306 1.369 . S
C1307 C1308 1.410 . S
C1307 C1315 1.503 . S
C1308 C1307 1.410 . S
C1308 C1309 1.392 . S
C1308 C1311 1.511 . S
C1309 C1305 1.376 . S
C1309 C1308 1.392 . S
C1309 H1321 0.929 . S
C1310 C1306 1.531 . S
C1310 H1322 0.960 . S
C1310 H1323 0.962 . S
C1310 H1324 0.960 . S
C1311 C1308 1.511 . S
C1311 H1325 0.961 . S
C1311 H1326 0.961 . S
C1311 H1327 0.961 . S
C1312 C1313 1.370 . S
C1312 C1314 1.363 . S
C1312 H1328 0.931 . S
C1313 C1312 1.370 . S
C1313 C1317 1.408 . S
C1314 C1312 1.363 . S
C1314 C1315 1.370 . S
C1314 C1318 1.524 . S
C1315 C1307 1.503 . S
C1315 C1314 1.370 . S
C1315 C1316 1.403 . S
C1316 C1315 1.403 . S
C1316 C1317 1.404 . S
C1316 C1319 1.539 . S
C1317 C1313 1.408 . S
C1317 C1316 1.404 . S
C1317 H1329 0.930 . S
C1318 C1314 1.524 . S
C1318 H1330 0.956 . S
C1318 H1331 0.961 . S
C1318 H1332 0.961 . S
C1319 C1316 1.539 . S
C1319 H1333 0.958 . S
C1319 H1334 0.961 . S
C1319 H1335 0.960 . S
H1320 C1304 0.931 . S
H1321 C1309 0.929 . S
H1322 C1310 0.960 . S
H1323 C1310 0.962 . S
H1324 C1310 0.960 . S
H1325 C1311 0.961 . S
H1326 C1311 0.961 . S
H1327 C1311 0.961 . S
H1328 C1312 0.931 . S
H1329 C1317 0.930 . S
H1330 C1318 0.956 . S
H1331 C1318 0.961 . S
H1332 C1318 0.961 . S
H1333 C1319 0.958 . S
H1334 C1319 0.961 . S
H1335 C1319 0.960 . S
C1336 C1337 1.391 . S
C1336 C1338 1.394 . S
C1336 H1352 0.931 1_455 S
C1337 C1336 1.391 . S
C1337 C1341 1.376 . S
C1338 C1336 1.394 . S
C1338 C1339 1.369 . S
C1338 C1342 1.531 . S
C1339 C1338 1.369 . S
C1339 C1340 1.410 . S
C1339 C1347 1.503 . S
C1340 C1339 1.410 . S
C1340 C1341 1.392 . S
C1340 C1343 1.511 . S
C1341 C1337 1.376 . S
C1341 C1340 1.392 . S
C1341 H1353 0.929 . S
C1342 C1338 1.531 . S
C1342 H1354 0.960 . S
C1342 H1355 0.962 . S
C1342 H1356 0.960 . S
C1343 C1340 1.511 . S
C1343 H1357 0.961 . S
C1343 H1358 0.961 . S
C1343 H1359 0.961 . S
C1344 C1345 1.370 . S
C1344 C1346 1.363 . S
C1344 H1360 0.931 . S
C1345 C1344 1.370 . S
C1345 C1349 1.408 . S
C1346 C1344 1.363 . S
C1346 C1347 1.370 . S
C1346 C1350 1.524 . S
C1347 C1339 1.503 . S
C1347 C1346 1.370 . S
C1347 C1348 1.403 . S
C1348 C1347 1.403 . S
C1348 C1349 1.404 . S
C1348 C1351 1.539 . S
C1349 C1345 1.408 . S
C1349 C1348 1.404 . S
C1349 H1361 0.930 . S
C1350 C1346 1.524 . S
C1350 H1362 0.956 . S
C1350 H1363 0.961 . S
C1350 H1364 0.961 . S
C1351 C1348 1.539 . S
C1351 H1365 0.958 . S
C1351 H1366 0.961 . S
C1351 H1367 0.960 . S
H1352 C1336 0.931 1_655 S
H1353 C1341 0.929 . S
H1354 C1342 0.960 . S
H1355 C1342 0.962 . S
H1356 C1342 0.960 . S
H1357 C1343 0.961 . S
H1358 C1343 0.961 . S
H1359 C1343 0.961 . S
H1360 C1344 0.931 . S
H1361 C1349 0.930 . S
H1362 C1350 0.956 . S
H1363 C1350 0.961 . S
H1364 C1350 0.961 . S
H1365 C1351 0.958 . S
H1366 C1351 0.961 . S
H1367 C1351 0.960 . S
C1368 C1369 1.391 . S
C1368 C1370 1.394 . S
C1368 H1384 0.931 . S
C1369 C1368 1.391 . S
C1369 C1373 1.376 . S
C1370 C1368 1.394 . S
C1370 C1371 1.369 . S
C1370 C1374 1.531 . S
C1371 C1370 1.369 . S
C1371 C1372 1.410 . S
C1371 C1379 1.503 . S
C1372 C1371 1.410 . S
C1372 C1373 1.392 . S
C1372 C1375 1.511 . S
C1373 C1369 1.376 . S
C1373 C1372 1.392 . S
C1373 H1385 0.929 . S
C1374 C1370 1.531 . S
C1374 H1386 0.960 . S
C1374 H1387 0.962 . S
C1374 H1388 0.960 . S
C1375 C1372 1.511 . S
C1375 H1389 0.961 . S
C1375 H1390 0.961 . S
C1375 H1391 0.961 . S
C1376 C1377 1.370 . S
C1376 C1378 1.363 . S
C1376 H1392 0.931 . S
C1377 C1376 1.370 . S
C1377 C1381 1.408 . S
C1378 C1376 1.363 . S
C1378 C1379 1.370 . S
C1378 C1382 1.524 . S
C1379 C1371 1.503 . S
C1379 C1378 1.370 . S
C1379 C1380 1.403 . S
C1380 C1379 1.403 . S
C1380 C1381 1.404 . S
C1380 C1383 1.539 . S
C1381 C1377 1.408 . S
C1381 C1380 1.404 . S
C1381 H1393 0.930 . S
C1382 C1378 1.524 . S
C1382 H1394 0.956 . S
C1382 H1395 0.961 . S
C1382 H1396 0.961 . S
C1383 C1380 1.539 . S
C1383 H1397 0.958 . S
C1383 H1398 0.961 . S
C1383 H1399 0.960 . S
H1384 C1368 0.931 . S
H1385 C1373 0.929 . S
H1386 C1374 0.960 . S
H1387 C1374 0.962 . S
H1388 C1374 0.960 . S
H1389 C1375 0.961 . S
H1390 C1375 0.961 . S
H1391 C1375 0.961 . S
H1392 C1376 0.931 . S
H1393 C1381 0.930 . S
H1394 C1382 0.956 . S
H1395 C1382 0.961 . S
H1396 C1382 0.961 . S
H1397 C1383 0.958 . S
H1398 C1383 0.961 . S
H1399 C1383 0.960 . S
C1400 C1401 1.391 . S
C1400 C1402 1.394 1_554 S
C1400 H1416 0.931 . S
C1401 C1400 1.391 . S
C1401 C1405 1.376 1_655 S
C1402 C1400 1.394 1_556 S
C1402 C1403 1.369 . S
C1402 C1406 1.531 . S
C1403 C1402 1.369 . S
C1403 C1404 1.410 1_655 S
C1403 C1411 1.503 . S
C1404 C1403 1.410 1_455 S
C1404 C1405 1.392 1_556 S
C1404 C1407 1.511 . S
C1405 C1401 1.376 1_455 S
C1405 C1404 1.392 1_554 S
C1405 H1417 0.929 . S
C1406 C1402 1.531 . S
C1406 H1418 0.960 . S
C1406 H1419 0.962 . S
C1406 H1420 0.960 . S
C1407 C1404 1.511 . S
C1407 H1421 0.961 1_556 S
C1407 H1422 0.961 . S
C1407 H1423 0.961 . S
C1408 C1409 1.371 1_655 S
C1408 C1410 1.362 . S
C1408 H1424 0.931 . S
C1409 C1408 1.371 1_455 S
C1409 C1413 1.408 . S
C1410 C1408 1.362 . S
C1410 C1411 1.370 . S
C1410 C1414 1.524 1_556 S
C1411 C1403 1.503 . S
C1411 C1410 1.370 . S
C1411 C1412 1.403 . S
C1412 C1411 1.403 . S
C1412 C1413 1.404 1_655 S
C1412 C1415 1.537 . S
C1413 C1409 1.408 . S
C1413 C1412 1.404 1_455 S
C1413 H1425 0.930 . S
C1414 C1410 1.524 1_554 S
C1414 H1426 0.956 . S
C1414 H1427 0.961 1_655 S
C1414 H1428 0.961 . S
C1415 C1412 1.537 . S
C1415 H1429 1.002 . S
C1415 H1430 0.929 1_655 S
C1415 H1431 0.952 1_655 S
H1416 C1400 0.931 . S
H1417 C1405 0.929 . S
H1418 C1406 0.960 . S
H1419 C1406 0.962 . S
H1420 C1406 0.960 . S
H1421 C1407 0.961 1_554 S
H1422 C1407 0.961 . S
H1423 C1407 0.961 . S
H1424 C1408 0.931 . S
H1425 C1413 0.930 . S
H1426 C1414 0.956 . S
H1427 C1414 0.961 1_455 S
H1428 C1414 0.961 . S
H1429 C1415 1.002 . S
H1430 C1415 0.929 1_455 S
H1431 C1415 0.952 1_455 S
C1432 C1433 1.391 . S
C1432 C1434 1.394 . S
C1432 H1448 0.931 . S
C1433 C1432 1.391 . S
C1433 C1437 1.376 . S
C1434 C1432 1.394 . S
C1434 C1435 1.369 . S
C1434 C1438 1.531 . S
C1435 C1434 1.369 . S
C1435 C1436 1.410 . S
C1435 C1443 1.503 . S
C1436 C1435 1.410 . S
C1436 C1437 1.392 . S
C1436 C1439 1.511 . S
C1437 C1433 1.376 . S
C1437 C1436 1.392 . S
C1437 H1449 0.929 . S
C1438 C1434 1.531 . S
C1438 H1450 0.960 . S
C1438 H1451 0.962 . S
C1438 H1452 0.960 . S
C1439 C1436 1.511 . S
C1439 H1453 0.961 . S
C1439 H1454 0.961 . S
C1439 H1455 0.961 . S
C1440 C1441 1.370 . S
C1440 C1442 1.363 . S
C1440 H1456 0.931 . S
C1441 C1440 1.370 . S
C1441 C1445 1.408 . S
C1442 C1440 1.363 . S
C1442 C1443 1.370 . S
C1442 C1446 1.524 . S
C1443 C1435 1.503 . S
C1443 C1442 1.370 . S
C1443 C1444 1.403 . S
C1444 C1443 1.403 . S
C1444 C1445 1.404 . S
C1444 C1447 1.539 . S
C1445 C1441 1.408 . S
C1445 C1444 1.404 . S
C1445 H1457 0.930 . S
C1446 C1442 1.524 . S
C1446 H1458 0.956 . S
C1446 H1459 0.961 . S
C1446 H1460 0.961 . S
C1447 C1444 1.539 . S
C1447 H1461 0.958 . S
C1447 H1462 0.961 . S
C1447 H1463 0.960 . S
H1448 C1432 0.931 . S
H1449 C1437 0.929 . S
H1450 C1438 0.960 . S
H1451 C1438 0.962 . S
H1452 C1438 0.960 . S
H1453 C1439 0.961 . S
H1454 C1439 0.961 . S
H1455 C1439 0.961 . S
H1456 C1440 0.931 . S
H1457 C1445 0.930 . S
H1458 C1446 0.956 . S
H1459 C1446 0.961 . S
H1460 C1446 0.961 . S
H1461 C1447 0.958 . S
H1462 C1447 0.961 . S
H1463 C1447 0.960 . S
C1464 C1465 1.391 . S
C1464 C1466 1.394 1_554 S
C1464 H1480 0.931 . S
C1465 C1464 1.391 . S
C1465 C1469 1.376 1_554 S
C1466 C1464 1.394 1_556 S
C1466 C1467 1.369 . S
C1466 C1470 1.531 . S
C1467 C1466 1.369 . S
C1467 C1468 1.410 . S
C1467 C1475 1.503 . S
C1468 C1467 1.410 . S
C1468 C1469 1.392 . S
C1468 C1471 1.511 . S
C1469 C1465 1.376 1_556 S
C1469 C1468 1.392 . S
C1469 H1481 0.929 . S
C1470 C1466 1.531 . S
C1470 H1482 0.960 . S
C1470 H1483 0.962 1_556 S
C1470 H1484 0.960 1_556 S
C1471 C1468 1.511 . S
C1471 H1485 0.961 . S
C1471 H1486 0.961 . S
C1471 H1487 0.961 . S
C1472 C1473 1.370 . S
C1472 C1474 1.363 . S
C1472 H1488 0.931 . S
C1473 C1472 1.370 . S
C1473 C1477 1.408 . S
C1474 C1472 1.363 . S
C1474 C1475 1.370 . S
C1474 C1478 1.524 . S
C1475 C1467 1.503 . S
C1475 C1474 1.370 . S
C1475 C1476 1.403 . S
C1476 C1475 1.403 . S
C1476 C1477 1.404 . S
C1476 C1479 1.539 . S
C1477 C1473 1.408 . S
C1477 C1476 1.404 . S
C1477 H1489 0.930 . S
C1478 C1474 1.524 . S
C1478 H1490 0.925 1_556 S
C1478 H1491 0.961 . S
C1478 H1492 0.961 1_455 S
C1479 C1476 1.539 . S
C1479 H1493 0.958 . S
C1479 H1494 0.961 . S
C1479 H1495 0.960 . S
H1480 C1464 0.931 . S
H1481 C1469 0.929 . S
H1482 C1470 0.960 . S
H1483 C1470 0.962 1_554 S
H1484 C1470 0.960 1_554 S
H1485 C1471 0.961 . S
H1486 C1471 0.961 . S
H1487 C1471 0.961 . S
H1488 C1472 0.931 . S
H1489 C1477 0.930 . S
H1490 C1478 0.925 1_554 S
H1491 C1478 0.961 . S
H1492 C1478 0.961 1_655 S
H1493 C1479 0.958 . S
H1494 C1479 0.961 . S
H1495 C1479 0.960 . S
C1496 C1497 1.391 . S
C1496 C1498 1.394 . S
C1496 H1512 0.931 . S
C1497 C1496 1.391 . S
C1497 C1501 1.376 . S
C1498 C1496 1.394 . S
C1498 C1499 1.369 . S
C1498 C1502 1.531 . S
C1499 C1498 1.369 . S
C1499 C1500 1.410 . S
C1499 C1507 1.503 . S
C1500 C1499 1.410 . S
C1500 C1501 1.392 . S
C1500 C1503 1.511 . S
C1501 C1497 1.376 . S
C1501 C1500 1.392 . S
C1501 H1513 0.929 . S
C1502 C1498 1.531 . S
C1502 H1514 0.960 . S
C1502 H1515 0.962 . S
C1502 H1516 0.960 . S
C1503 C1500 1.511 . S
C1503 H1517 0.961 . S
C1503 H1518 0.961 . S
C1503 H1519 0.961 . S
C1504 C1505 1.370 . S
C1504 C1506 1.363 . S
C1504 H1520 0.931 . S
C1505 C1504 1.370 . S
C1505 C1509 1.408 . S
C1506 C1504 1.363 . S
C1506 C1507 1.370 . S
C1506 C1510 1.524 . S
C1507 C1499 1.503 . S
C1507 C1506 1.370 . S
C1507 C1508 1.403 . S
C1508 C1507 1.403 . S
C1508 C1509 1.404 . S
C1508 C1511 1.539 . S
C1509 C1505 1.408 . S
C1509 C1508 1.404 . S
C1509 H1521 0.930 . S
C1510 C1506 1.524 . S
C1510 H1522 0.956 . S
C1510 H1523 0.961 . S
C1510 H1524 0.961 . S
C1511 C1508 1.539 . S
C1511 H1525 0.958 . S
C1511 H1526 0.961 . S
C1511 H1527 0.960 . S
H1512 C1496 0.931 . S
H1513 C1501 0.929 . S
H1514 C1502 0.960 . S
H1515 C1502 0.962 . S
H1516 C1502 0.960 . S
H1517 C1503 0.961 . S
H1518 C1503 0.961 . S
H1519 C1503 0.961 . S
H1520 C1504 0.931 . S
H1521 C1509 0.930 . S
H1522 C1510 0.956 . S
H1523 C1510 0.961 . S
H1524 C1510 0.961 . S
H1525 C1511 0.958 . S
H1526 C1511 0.961 . S
H1527 C1511 0.960 . S
C1528 C1529 1.391 . S
C1528 C1530 1.394 . S
C1528 H1544 0.931 . S
C1529 C1528 1.391 . S
C1529 C1533 1.376 . S
C1530 C1528 1.394 . S
C1530 C1531 1.369 . S
C1530 C1534 1.531 . S
C1531 C1530 1.369 . S
C1531 C1532 1.410 . S
C1531 C1539 1.503 . S
C1532 C1531 1.410 . S
C1532 C1533 1.392 . S
C1532 C1535 1.511 . S
C1533 C1529 1.376 . S
C1533 C1532 1.392 . S
C1533 H1545 0.929 . S
C1534 C1530 1.531 . S
C1534 H1546 0.960 . S
C1534 H1547 0.962 . S
C1534 H1548 0.960 . S
C1535 C1532 1.511 . S
C1535 H1549 0.961 . S
C1535 H1550 0.961 . S
C1535 H1551 0.961 . S
C1536 C1537 1.370 . S
C1536 C1538 1.363 . S
C1536 H1552 0.931 . S
C1537 C1536 1.370 . S
C1537 C1541 1.408 . S
C1538 C1536 1.363 . S
C1538 C1539 1.370 . S
C1538 C1542 1.524 . S
C1539 C1531 1.503 . S
C1539 C1538 1.370 . S
C1539 C1540 1.403 . S
C1540 C1539 1.403 . S
C1540 C1541 1.404 . S
C1540 C1543 1.539 . S
C1541 C1537 1.408 . S
C1541 C1540 1.404 . S
C1541 H1553 0.930 . S
C1542 C1538 1.524 . S
C1542 H1554 0.956 . S
C1542 H1555 0.961 . S
C1542 H1556 0.961 . S
C1543 C1540 1.539 . S
C1543 H1557 0.958 . S
C1543 H1558 0.961 . S
C1543 H1559 0.960 . S
H1544 C1528 0.931 . S
H1545 C1533 0.929 . S
H1546 C1534 0.960 . S
H1547 C1534 0.962 . S
H1548 C1534 0.960 . S
H1549 C1535 0.961 . S
H1550 C1535 0.961 . S
H1551 C1535 0.961 . S
H1552 C1536 0.931 . S
H1553 C1541 0.930 . S
H1554 C1542 0.956 . S
H1555 C1542 0.961 . S
H1556 C1542 0.961 . S
H1557 C1543 0.958 . S
H1558 C1543 0.961 . S
H1559 C1543 0.960 . S
C1560 C1561 1.391 . S
C1560 C1562 1.394 . S
C1560 H1576 0.931 . S
C1561 C1560 1.391 . S
C1561 C1565 1.376 . S
C1562 C1560 1.394 . S
C1562 C1563 1.369 . S
C1562 C1566 1.531 . S
C1563 C1562 1.369 . S
C1563 C1564 1.410 . S
C1563 C1571 1.503 . S
C1564 C1563 1.410 . S
C1564 C1565 1.392 . S
C1564 C1567 1.511 . S
C1565 C1561 1.376 . S
C1565 C1564 1.392 . S
C1565 H1577 0.929 . S
C1566 C1562 1.531 . S
C1566 H1578 0.960 . S
C1566 H1579 0.962 . S
C1566 H1580 0.960 . S
C1567 C1564 1.511 . S
C1567 H1581 0.961 . S
C1567 H1582 0.961 . S
C1567 H1583 0.961 . S
C1568 C1569 1.370 . S
C1568 C1570 1.363 . S
C1568 H1584 0.931 . S
C1569 C1568 1.370 . S
C1569 C1573 1.408 . S
C1570 C1568 1.363 . S
C1570 C1571 1.370 . S
C1570 C1574 1.524 . S
C1571 C1563 1.503 . S
C1571 C1570 1.370 . S
C1571 C1572 1.403 . S
C1572 C1571 1.403 . S
C1572 C1573 1.404 . S
C1572 C1575 1.539 . S
C1573 C1569 1.408 . S
C1573 C1572 1.404 . S
C1573 H1585 0.930 . S
C1574 C1570 1.524 . S
C1574 H1586 0.956 . S
C1574 H1587 0.961 . S
C1574 H1588 0.961 . S
C1575 C1572 1.539 . S
C1575 H1589 0.958 . S
C1575 H1590 0.961 . S
C1575 H1591 0.960 . S
H1576 C1560 0.931 . S
H1577 C1565 0.929 . S
H1578 C1566 0.960 . S
H1579 C1566 0.962 . S
H1580 C1566 0.960 . S
H1581 C1567 0.961 . S
H1582 C1567 0.961 . S
H1583 C1567 0.961 . S
H1584 C1568 0.931 . S
H1585 C1573 0.930 . S
H1586 C1574 0.956 . S
H1587 C1574 0.961 . S
H1588 C1574 0.961 . S
H1589 C1575 0.958 . S
H1590 C1575 0.961 . S
H1591 C1575 0.960 . S
C1592 C1593 1.391 . S
C1592 C1594 1.394 1_556 S
C1592 H1608 0.931 . S
C1593 C1592 1.391 . S
C1593 C1597 1.376 . S
C1594 C1592 1.394 1_554 S
C1594 C1595 1.369 . S
C1594 C1598 1.531 . S
C1595 C1594 1.369 . S
C1595 C1596 1.410 . S
C1595 C1603 1.503 . S
C1596 C1595 1.410 . S
C1596 C1597 1.392 1_554 S
C1596 C1599 1.511 . S
C1597 C1593 1.376 . S
C1597 C1596 1.392 1_556 S
C1597 H1609 0.929 . S
C1598 C1594 1.531 . S
C1598 H1610 0.960 . S
C1598 H1611 0.962 . S
C1598 H1612 0.960 . S
C1599 C1596 1.511 . S
C1599 H1613 0.961 . S
C1599 H1614 0.961 . S
C1599 H1615 0.961 . S
C1600 C1601 1.370 . S
C1600 C1602 1.363 . S
C1600 H1616 0.931 . S
C1601 C1600 1.370 . S
C1601 C1605 1.408 . S
C1602 C1600 1.363 . S
C1602 C1603 1.370 . S
C1602 C1606 1.524 . S
C1603 C1595 1.503 . S
C1603 C1602 1.370 . S
C1603 C1604 1.403 . S
C1604 C1603 1.403 . S
C1604 C1605 1.404 . S
C1604 C1607 1.539 . S
C1605 C1601 1.408 . S
C1605 C1604 1.404 . S
C1605 H1617 0.930 . S
C1606 C1602 1.524 . S
C1606 H1618 0.956 . S
C1606 H1619 0.961 . S
C1606 H1620 0.961 . S
C1607 C1604 1.539 . S
C1607 H1621 0.958 . S
C1607 H1622 0.961 . S
C1607 H1623 0.960 . S
H1608 C1592 0.931 . S
H1609 C1597 0.929 . S
H1610 C1598 0.960 . S
H1611 C1598 0.962 . S
H1612 C1598 0.960 . S
H1613 C1599 0.961 . S
H1614 C1599 0.961 . S
H1615 C1599 0.961 . S
H1616 C1600 0.931 . S
H1617 C1605 0.930 . S
H1618 C1606 0.956 . S
H1619 C1606 0.961 . S
H1620 C1606 0.961 . S
H1621 C1607 0.958 . S
H1622 C1607 0.961 . S
H1623 C1607 0.960 . S
C1624 C1625 1.391 . S
C1624 C1626 1.394 . S
C1624 H1640 0.931 . S
C1625 C1624 1.391 . S
C1625 C1629 1.376 . S
C1626 C1624 1.394 . S
C1626 C1627 1.369 . S
C1626 C1630 1.531 . S
C1627 C1626 1.369 . S
C1627 C1628 1.410 . S
C1627 C1635 1.503 . S
C1628 C1627 1.410 . S
C1628 C1629 1.392 . S
C1628 C1631 1.511 . S
C1629 C1625 1.376 . S
C1629 C1628 1.392 . S
C1629 H1641 0.929 . S
C1630 C1626 1.531 . S
C1630 H1642 0.960 . S
C1630 H1643 0.962 . S
C1630 H1644 0.960 . S
C1631 C1628 1.511 . S
C1631 H1645 0.961 . S
C1631 H1646 0.961 . S
C1631 H1647 0.961 . S
C1632 C1633 1.370 . S
C1632 C1634 1.363 . S
C1632 H1648 0.931 . S
C1633 C1632 1.370 . S
C1633 C1637 1.408 . S
C1634 C1632 1.363 . S
C1634 C1635 1.370 . S
C1634 C1638 1.524 . S
C1635 C1627 1.503 . S
C1635 C1634 1.370 . S
C1635 C1636 1.403 . S
C1636 C1635 1.403 . S
C1636 C1637 1.404 . S
C1636 C1639 1.539 . S
C1637 C1633 1.408 . S
C1637 C1636 1.404 . S
C1637 H1649 0.930 . S
C1638 C1634 1.524 . S
C1638 H1650 0.956 . S
C1638 H1651 0.961 . S
C1638 H1652 0.961 . S
C1639 C1636 1.539 . S
C1639 H1653 0.958 . S
C1639 H1654 0.961 . S
C1639 H1655 0.960 . S
H1640 C1624 0.931 . S
H1641 C1629 0.929 . S
H1642 C1630 0.960 . S
H1643 C1630 0.962 . S
H1644 C1630 0.960 . S
H1645 C1631 0.961 . S
H1646 C1631 0.961 . S
H1647 C1631 0.961 . S
H1648 C1632 0.931 . S
H1649 C1637 0.930 . S
H1650 C1638 0.956 . S
H1651 C1638 0.961 . S
H1652 C1638 0.961 . S
H1653 C1639 0.958 . S
H1654 C1639 0.961 . S
H1655 C1639 0.960 . S
C1656 C1657 1.391 . S
C1656 C1658 1.394 . S
C1656 H1672 0.931 . S
C1657 C1656 1.391 . S
C1657 C1661 1.376 . S
C1658 C1656 1.394 . S
C1658 C1659 1.369 . S
C1658 C1662 1.531 . S
C1659 C1658 1.369 . S
C1659 C1660 1.410 . S
C1659 C1667 1.503 . S
C1660 C1659 1.410 . S
C1660 C1661 1.392 . S
C1660 C1663 1.511 . S
C1661 C1657 1.376 . S
C1661 C1660 1.392 . S
C1661 H1673 0.929 . S
C1662 C1658 1.531 . S
C1662 H1674 0.960 . S
C1662 H1675 0.962 . S
C1662 H1676 0.960 . S
C1663 C1660 1.511 . S
C1663 H1677 0.961 . S
C1663 H1678 0.961 . S
C1663 H1679 0.961 . S
C1664 C1665 1.370 . S
C1664 C1666 1.363 . S
C1664 H1680 0.931 . S
C1665 C1664 1.370 . S
C1665 C1669 1.408 . S
C1666 C1664 1.363 . S
C1666 C1667 1.370 . S
C1666 C1670 1.524 . S
C1667 C1659 1.503 . S
C1667 C1666 1.370 . S
C1667 C1668 1.403 . S
C1668 C1667 1.403 . S
C1668 C1669 1.404 . S
C1668 C1671 1.539 . S
C1669 C1665 1.408 . S
C1669 C1668 1.404 . S
C1669 H1681 0.930 . S
C1670 C1666 1.524 . S
C1670 H1682 0.956 . S
C1670 H1683 0.961 . S
C1670 H1684 0.961 . S
C1671 C1668 1.539 . S
C1671 H1685 0.958 . S
C1671 H1686 0.961 . S
C1671 H1687 0.960 . S
H1672 C1656 0.931 . S
H1673 C1661 0.929 . S
H1674 C1662 0.960 . S
H1675 C1662 0.962 . S
H1676 C1662 0.960 . S
H1677 C1663 0.961 . S
H1678 C1663 0.961 . S
H1679 C1663 0.961 . S
H1680 C1664 0.931 . S
H1681 C1669 0.930 . S
H1682 C1670 0.956 . S
H1683 C1670 0.961 . S
H1684 C1670 0.961 . S
H1685 C1671 0.958 . S
H1686 C1671 0.961 . S
H1687 C1671 0.960 . S
C1688 C1689 1.391 . S
C1688 C1690 1.394 . S
C1688 H1704 0.931 . S
C1689 C1688 1.391 . S
C1689 C1693 1.376 . S
C1690 C1688 1.394 . S
C1690 C1691 1.369 . S
C1690 C1694 1.531 . S
C1691 C1690 1.369 . S
C1691 C1692 1.410 . S
C1691 C1699 1.503 . S
C1692 C1691 1.410 . S
C1692 C1693 1.392 . S
C1692 C1695 1.511 . S
C1693 C1689 1.376 . S
C1693 C1692 1.392 . S
C1693 H1705 0.929 . S
C1694 C1690 1.531 . S
C1694 H1706 0.960 . S
C1694 H1707 0.962 . S
C1694 H1708 0.960 . S
C1695 C1692 1.511 . S
C1695 H1709 0.961 . S
C1695 H1710 0.961 . S
C1695 H1711 0.961 . S
C1696 C1697 1.370 . S
C1696 C1698 1.363 . S
C1696 H1712 0.931 . S
C1697 C1696 1.370 . S
C1697 C1701 1.408 . S
C1698 C1696 1.363 . S
C1698 C1699 1.370 . S
C1698 C1702 1.524 . S
C1699 C1691 1.503 . S
C1699 C1698 1.370 . S
C1699 C1700 1.403 . S
C1700 C1699 1.403 . S
C1700 C1701 1.404 . S
C1700 C1703 1.539 . S
C1701 C1697 1.408 . S
C1701 C1700 1.404 . S
C1701 H1713 0.930 . S
C1702 C1698 1.524 . S
C1702 H1714 0.956 . S
C1702 H1715 0.961 . S
C1702 H1716 0.961 . S
C1703 C1700 1.539 . S
C1703 H1717 0.958 . S
C1703 H1718 0.961 . S
C1703 H1719 0.960 . S
H1704 C1688 0.931 . S
H1705 C1693 0.929 . S
H1706 C1694 0.960 . S
H1707 C1694 0.962 . S
H1708 C1694 0.960 . S
H1709 C1695 0.961 . S
H1710 C1695 0.961 . S
H1711 C1695 0.961 . S
H1712 C1696 0.931 . S
H1713 C1701 0.930 . S
H1714 C1702 0.956 . S
H1715 C1702 0.961 . S
H1716 C1702 0.961 . S
H1717 C1703 0.958 . S
H1718 C1703 0.961 . S
H1719 C1703 0.960 . S
C1720 C1721 1.391 . S
C1720 C1722 1.394 . S
C1720 H1736 0.931 . S
C1721 C1720 1.391 . S
C1721 C1725 1.376 . S
C1722 C1720 1.394 . S
C1722 C1723 1.369 . S
C1722 C1726 1.531 . S
C1723 C1722 1.369 . S
C1723 C1724 1.410 . S
C1723 C1731 1.503 . S
C1724 C1723 1.410 . S
C1724 C1725 1.392 . S
C1724 C1727 1.511 . S
C1725 C1721 1.376 . S
C1725 C1724 1.392 . S
C1725 H1737 0.929 . S
C1726 C1722 1.531 . S
C1726 H1738 0.960 . S
C1726 H1739 0.962 . S
C1726 H1740 0.960 . S
C1727 C1724 1.511 . S
C1727 H1741 0.961 . S
C1727 H1742 0.961 . S
C1727 H1743 0.961 . S
C1728 C1729 1.370 . S
C1728 C1730 1.363 . S
C1728 H1744 0.931 . S
C1729 C1728 1.370 . S
C1729 C1733 1.408 . S
C1730 C1728 1.363 . S
C1730 C1731 1.370 . S
C1730 C1734 1.524 . S
C1731 C1723 1.503 . S
C1731 C1730 1.370 . S
C1731 C1732 1.403 . S
C1732 C1731 1.403 . S
C1732 C1733 1.404 . S
C1732 C1735 1.539 . S
C1733 C1729 1.408 . S
C1733 C1732 1.404 . S
C1733 H1745 0.930 . S
C1734 C1730 1.524 . S
C1734 H1746 0.956 . S
C1734 H1747 0.961 . S
C1734 H1748 0.961 . S
C1735 C1732 1.539 . S
C1735 H1749 0.958 . S
C1735 H1750 0.961 . S
C1735 H1751 0.960 . S
H1736 C1720 0.931 . S
H1737 C1725 0.929 . S
H1738 C1726 0.960 . S
H1739 C1726 0.962 . S
H1740 C1726 0.960 . S
H1741 C1727 0.961 . S
H1742 C1727 0.961 . S
H1743 C1727 0.961 . S
H1744 C1728 0.931 . S
H1745 C1733 0.930 . S
H1746 C1734 0.956 . S
H1747 C1734 0.961 . S
H1748 C1734 0.961 . S
H1749 C1735 0.958 . S
H1750 C1735 0.961 . S
H1751 C1735 0.960 . S
C1752 C1753 1.391 . S
C1752 C1754 1.394 . S
C1752 H1768 0.931 . S
C1753 C1752 1.391 . S
C1753 C1757 1.376 . S
C1754 C1752 1.394 . S
C1754 C1755 1.369 . S
C1754 C1758 1.531 . S
C1755 C1754 1.369 . S
C1755 C1756 1.410 . S
C1755 C1763 1.503 . S
C1756 C1755 1.410 . S
C1756 C1757 1.392 . S
C1756 C1759 1.511 . S
C1757 C1753 1.376 . S
C1757 C1756 1.392 . S
C1757 H1769 0.929 . S
C1758 C1754 1.531 . S
C1758 H1770 0.960 1_556 S
C1758 H1771 0.962 . S
C1758 H1772 0.960 1_556 S
C1759 C1756 1.511 . S
C1759 H1773 0.961 . S
C1759 H1774 0.961 . S
C1759 H1775 0.961 1_556 S
C1760 C1761 1.370 . S
C1760 C1762 1.363 . S
C1760 H1776 0.931 . S
C1761 C1760 1.370 . S
C1761 C1765 1.408 1_556 S
C1762 C1760 1.363 . S
C1762 C1763 1.370 . S
C1762 C1766 1.524 . S
C1763 C1755 1.503 . S
C1763 C1762 1.370 . S
C1763 C1764 1.403 1_556 S
C1764 C1763 1.403 1_554 S
C1764 C1765 1.404 . S
C1764 C1767 1.539 . S
C1765 C1761 1.408 1_554 S
C1765 C1764 1.404 . S
C1765 H1777 0.930 . S
C1766 C1762 1.524 . S
C1766 H1778 0.956 . S
C1766 H1779 0.961 . S
C1766 H1780 0.961 . S
C1767 C1764 1.539 . S
C1767 H1781 0.958 . S
C1767 H1782 0.961 . S
C1767 H1783 0.960 . S
H1768 C1752 0.931 . S
H1769 C1757 0.929 . S
H1770 C1758 0.960 1_554 S
H1771 C1758 0.962 . S
H1772 C1758 0.960 1_554 S
H1773 C1759 0.961 . S
H1774 C1759 0.961 . S
H1775 C1759 0.961 1_554 S
H1776 C1760 0.931 . S
H1777 C1765 0.930 . S
H1778 C1766 0.956 . S
H1779 C1766 0.961 . S
H1780 C1766 0.961 . S
H1781 C1767 0.958 . S
H1782 C1767 0.961 . S
H1783 C1767 0.960 . S
C1784 C1785 1.391 . S
C1784 C1786 1.394 . S
C1784 H1800 0.931 . S
C1785 C1784 1.391 . S
C1785 C1789 1.376 . S
C1786 C1784 1.394 . S
C1786 C1787 1.369 . S
C1786 C1790 1.531 . S
C1787 C1786 1.369 . S
C1787 C1788 1.410 . S
C1787 C1795 1.503 . S
C1788 C1787 1.410 . S
C1788 C1789 1.392 . S
C1788 C1791 1.511 . S
C1789 C1785 1.376 . S
C1789 C1788 1.392 . S
C1789 H1801 0.929 . S
C1790 C1786 1.531 . S
C1790 H1802 0.960 . S
C1790 H1803 0.962 . S
C1790 H1804 0.960 . S
C1791 C1788 1.511 . S
C1791 H1805 0.961 . S
C1791 H1806 0.961 . S
C1791 H1807 0.961 . S
C1792 C1793 1.370 . S
C1792 C1794 1.363 . S
C1792 H1808 0.931 . S
C1793 C1792 1.370 . S
C1793 C1797 1.408 . S
C1794 C1792 1.363 . S
C1794 C1795 1.370 . S
C1794 C1798 1.524 . S
C1795 C1787 1.503 . S
C1795 C1794 1.370 . S
C1795 C1796 1.403 . S
C1796 C1795 1.403 . S
C1796 C1797 1.404 . S
C1796 C1799 1.539 . S
C1797 C1793 1.408 . S
C1797 C1796 1.404 . S
C1797 H1809 0.930 . S
C1798 C1794 1.524 . S
C1798 H1810 0.956 . S
C1798 H1811 0.961 . S
C1798 H1812 0.961 . S
C1799 C1796 1.539 . S
C1799 H1813 0.958 . S
C1799 H1814 0.961 . S
C1799 H1815 0.960 . S
H1800 C1784 0.931 . S
H1801 C1789 0.929 . S
H1802 C1790 0.960 . S
H1803 C1790 0.962 . S
H1804 C1790 0.960 . S
H1805 C1791 0.961 . S
H1806 C1791 0.961 . S
H1807 C1791 0.961 . S
H1808 C1792 0.931 . S
H1809 C1797 0.930 . S
H1810 C1798 0.956 . S
H1811 C1798 0.961 . S
H1812 C1798 0.961 . S
H1813 C1799 0.958 . S
H1814 C1799 0.961 . S
H1815 C1799 0.960 . S
C1816 C1817 1.391 . S
C1816 C1818 1.394 . S
C1816 H1832 0.931 . S
C1817 C1816 1.391 . S
C1817 C1821 1.376 . S
C1818 C1816 1.394 . S
C1818 C1819 1.369 . S
C1818 C1822 1.531 . S
C1819 C1818 1.369 . S
C1819 C1820 1.410 . S
C1819 C1827 1.503 . S
C1820 C1819 1.410 . S
C1820 C1821 1.392 . S
C1820 C1823 1.511 1_554 S
C1821 C1817 1.376 . S
C1821 C1820 1.392 . S
C1821 H1833 0.929 . S
C1822 C1818 1.531 . S
C1822 H1834 0.960 . S
C1822 H1835 0.962 . S
C1822 H1836 0.960 . S
C1823 C1820 1.511 1_556 S
C1823 H1837 0.961 . S
C1823 H1838 0.961 . S
C1823 H1839 0.961 . S
C1824 C1825 1.370 . S
C1824 C1826 1.363 . S
C1824 H1840 0.931 . S
C1825 C1824 1.370 . S
C1825 C1829 1.408 . S
C1826 C1824 1.363 . S
C1826 C1827 1.370 . S
C1826 C1830 1.524 . S
C1827 C1819 1.503 . S
C1827 C1826 1.370 . S
C1827 C1828 1.403 . S
C1828 C1827 1.403 . S
C1828 C1829 1.404 . S
C1828 C1831 1.539 . S
C1829 C1825 1.408 . S
C1829 C1828 1.404 . S
C1829 H1841 0.930 1_554 S
C1830 C1826 1.524 . S
C1830 H1842 0.956 . S
C1830 H1843 0.961 . S
C1830 H1844 0.961 . S
C1831 C1828 1.539 . S
C1831 H1845 0.958 . S
C1831 H1846 0.961 1_554 S
C1831 H1847 0.960 1_554 S
H1832 C1816 0.931 . S
H1833 C1821 0.929 . S
H1834 C1822 0.960 . S
H1835 C1822 0.962 . S
H1836 C1822 0.960 . S
H1837 C1823 0.961 . S
H1838 C1823 0.961 . S
H1839 C1823 0.961 . S
H1840 C1824 0.931 . S
H1841 C1829 0.930 1_556 S
H1842 C1830 0.956 . S
H1843 C1830 0.961 . S
H1844 C1830 0.961 . S
H1845 C1831 0.958 . S
H1846 C1831 0.961 1_556 S
H1847 C1831 0.960 1_556 S
C1848 C1849 1.391 . S
C1848 C1850 1.394 1_545 S
C1848 H1864 0.931 . S
C1849 C1848 1.391 . S
C1849 C1853 1.376 . S
C1850 C1848 1.394 1_565 S
C1850 C1851 1.369 . S
C1850 C1854 1.531 . S
C1851 C1850 1.369 . S
C1851 C1852 1.410 . S
C1851 C1859 1.503 . S
C1852 C1851 1.410 . S
C1852 C1853 1.392 1_565 S
C1852 C1855 1.511 . S
C1853 C1849 1.376 . S
C1853 C1852 1.392 1_545 S
C1853 H1865 0.929 . S
C1854 C1850 1.531 . S
C1854 H1866 0.960 . S
C1854 H1867 0.962 1_565 S
C1854 H1868 0.960 . S
C1855 C1852 1.511 . S
C1855 H1869 0.961 1_554 S
C1855 H1870 0.961 . S
C1855 H1871 0.961 . S
C1856 C1857 1.370 . S
C1856 C1858 1.363 . S
C1856 H1872 0.931 . S
C1857 C1856 1.370 . S
C1857 C1861 1.408 . S
C1858 C1856 1.363 . S
C1858 C1859 1.370 . S
C1858 C1862 1.524 1_565 S
C1859 C1851 1.503 . S
C1859 C1858 1.370 . S
C1859 C1860 1.403 . S
C1860 C1859 1.403 . S
C1860 C1861 1.404 . S
C1860 C1863 1.539 . S
C1861 C1857 1.408 . S
C1861 C1860 1.404 . S
C1861 H1873 0.930 . S
C1862 C1858 1.524 1_545 S
C1862 H1874 0.956 . S
C1862 H1875 0.961 . S
C1862 H1876 0.961 . S
C1863 C1860 1.539 . S
C1863 H1877 0.958 . S
C1863 H1878 0.961 . S
C1863 H1879 0.960 . S
H1864 C1848 0.931 . S
H1865 C1853 0.929 . S
H1866 C1854 0.960 . S
H1867 C1854 0.962 1_545 S
H1868 C1854 0.960 . S
H1869 C1855 0.961 1_556 S
H1870 C1855 0.961 . S
H1871 C1855 0.961 . S
H1872 C1856 0.931 . S
H1873 C1861 0.930 . S
H1874 C1862 0.956 . S
H1875 C1862 0.961 . S
H1876 C1862 0.961 . S
H1877 C1863 0.958 . S
H1878 C1863 0.961 . S
H1879 C1863 0.960 . S
C353 C184 1.595 . S
C345 C60 1.628 . S
C385 C197 1.315 . S
C377 C76 1.305 . S
C409 C81 1.808 . S
C417 C217 1.665 . S
C449 C231 1.408 . S
C441 C48 1.516 . S
C481 C243 1.537 . S
C473 C115 1.524 . S
C513 C257 1.533 . S
C505 C136 1.533 . S
C537 C131 1.323 . S
C545 C267 1.303 . S
C577 C282 1.540 . S
C569 C104 1.534 . S
C601 C126 1.483 . S
C609 C296 1.447 . S
C641 C315 1.260 . S
C633 C103 1.331 . S
C665 C120 1.412 . S
C673 C295 1.384 . S
C705 C313 1.366 . S
C697 C142 1.367 . S
C729 C82 1.660 . S
C737 C329 1.525 . S
C761 C54 1.780 . S
C769 C323 1.774 . S
C793 C65 1.450 . S
C801 C327 1.449 . S
C825 C71 1.309 . S
C833 C324 1.286 . S
C857 C37 1.568 . S
C865 C226 1.538 . S
C889 C158 1.900 . S
C897 C225 1.886 . S
C929 C189 1.283 . S
C921 C169 1.325 . S
C961 C203 1.322 . S
C953 C98 1.424 . S
C985 C49 1.716 . S
C993 C240 1.733 . S
C1025 C285 1.460 . S
C1017 C125 1.457 . S
C1057 C239 1.360 . S
C1049 C109 1.348 . S
C1089 C271 1.710 . S
C1081 C137 1.688 . S
C1121 C268 1.595 . S
C1113 C159 1.630 . S
C1145 C175 1.311 . S
C1153 C281 1.313 . S
C1177 C92 1.811 . S
C1185 C245 1.663 . S
C1217 C259 1.409 . S
C1209 C147 1.517 . S
C1241 C38 1.522 . S
C1249 C215 1.528 . S
C1281 C229 1.529 . S
C1273 C4 1.535 . S
C1313 C183 1.306 . S
C1305 C21 1.321 . S
C1345 C198 1.540 . S
C1337 C27 1.544 1_455 S
C1369 C16 1.501 . S
C1377 C310 1.432 . S
C1401 C26 1.320 . S
C1409 C301 1.220 . S
C1433 C43 1.412 . S
C1441 C309 1.384 . S
C1465 C10 1.362 . S
C1473 C299 1.360 . S
C1505 C343 1.542 . S
C1497 C93 1.652 . S
C1537 C337 1.767 . S
C1529 C153 1.782 . S
C1569 C341 1.444 . S
C1561 C164 1.452 . S
C1593 C170 1.316 . S
C1601 C338 1.288 . S
C1625 C114 1.572 . S
C1633 C254 1.547 . S
C1665 C253 1.892 . S
C1657 C59 1.895 . S
C1697 C273 1.303 . S
C1689 C70 1.350 . S
C1729 C287 1.309 . S
C1721 C87 1.436 . S
C1753 C148 1.732 . S
C1761 C212 1.734 . S
C1793 C201 1.451 . S
C1785 C15 1.459 . S
C1817 C32 1.349 . S
C1825 C211 1.357 . S
C1857 C187 1.708 . S
C1849 C5 1.693 . S
