# Generated by pormake.
# Topology ctn, (3,4)-cn, num edge types: 1
# Building blocks:
#     Node 0, Type 0, BuildingBlock: CUQRIR_clean_linker_1, # of connection points: 3
#     Node 1, Type 0, BuildingBlock: CUQRIR_clean_linker_1, # of connection points: 3
#     Node 2, Type 0, BuildingBlock: CUQRIR_clean_linker_1, # of connection points: 3
#     Node 3, Type 0, BuildingBlock: CUQRIR_clean_linker_1, # of connection points: 3
#     Node 4, Type 0, BuildingBlock: CUQRIR_clean_linker_1, # of connection points: 3
#     Node 5, Type 0, BuildingBlock: CUQRIR_clean_linker_1, # of connection points: 3
#     Node 6, Type 0, BuildingBlock: CUQRIR_clean_linker_1, # of connection points: 3
#     Node 7, Type 0, BuildingBlock: CUQRIR_clean_linker_1, # of connection points: 3
#     Node 8, Type 0, BuildingBlock: CUQRIR_clean_linker_1, # of connection points: 3
#     Node 9, Type 0, BuildingBlock: CUQRIR_clean_linker_1, # of connection points: 3
#     Node 10, Type 0, BuildingBlock: CUQRIR_clean_linker_1, # of connection points: 3
#     Node 11, Type 0, BuildingBlock: CUQRIR_clean_linker_1, # of connection points: 3
#     Node 12, Type 0, BuildingBlock: CUQRIR_clean_linker_1, # of connection points: 3
#     Node 13, Type 0, BuildingBlock: CUQRIR_clean_linker_1, # of connection points: 3
#     Node 14, Type 0, BuildingBlock: CUQRIR_clean_linker_1, # of connection points: 3
#     Node 15, Type 0, BuildingBlock: CUQRIR_clean_linker_1, # of connection points: 3
#     Node 16, Type 1, BuildingBlock: UXUYUI_clean_sbu_0, # of connection points: 4
#     Node 17, Type 1, BuildingBlock: UXUYUI_clean_sbu_0, # of connection points: 4
#     Node 18, Type 1, BuildingBlock: UXUYUI_clean_sbu_0, # of connection points: 4
#     Node 19, Type 1, BuildingBlock: UXUYUI_clean_sbu_0, # of connection points: 4
#     Node 20, Type 1, BuildingBlock: UXUYUI_clean_sbu_0, # of connection points: 4
#     Node 21, Type 1, BuildingBlock: UXUYUI_clean_sbu_0, # of connection points: 4
#     Node 22, Type 1, BuildingBlock: UXUYUI_clean_sbu_0, # of connection points: 4
#     Node 23, Type 1, BuildingBlock: UXUYUI_clean_sbu_0, # of connection points: 4
#     Node 24, Type 1, BuildingBlock: UXUYUI_clean_sbu_0, # of connection points: 4
#     Node 25, Type 1, BuildingBlock: UXUYUI_clean_sbu_0, # of connection points: 4
#     Node 26, Type 1, BuildingBlock: UXUYUI_clean_sbu_0, # of connection points: 4
#     Node 27, Type 1, BuildingBlock: UXUYUI_clean_sbu_0, # of connection points: 4
#     Edge 28, Type (0, 1), BuildingBlock: ZUJKAS_clean_linker_0, # of connection points: 2
#     Edge 29, Type (0, 1), BuildingBlock: ZUJKAS_clean_linker_0, # of connection points: 2
#     Edge 30, Type (0, 1), BuildingBlock: ZUJKAS_clean_linker_0, # of connection points: 2
#     Edge 31, Type (0, 1), BuildingBlock: ZUJKAS_clean_linker_0, # of connection points: 2
#     Edge 32, Type (0, 1), BuildingBlock: ZUJKAS_clean_linker_0, # of connection points: 2
#     Edge 33, Type (0, 1), BuildingBlock: ZUJKAS_clean_linker_0, # of connection points: 2
#     Edge 34, Type (0, 1), BuildingBlock: ZUJKAS_clean_linker_0, # of connection points: 2
#     Edge 35, Type (0, 1), BuildingBlock: ZUJKAS_clean_linker_0, # of connection points: 2
#     Edge 36, Type (0, 1), BuildingBlock: ZUJKAS_clean_linker_0, # of connection points: 2
#     Edge 37, Type (0, 1), BuildingBlock: ZUJKAS_clean_linker_0, # of connection points: 2
#     Edge 38, Type (0, 1), BuildingBlock: ZUJKAS_clean_linker_0, # of connection points: 2
#     Edge 39, Type (0, 1), BuildingBlock: ZUJKAS_clean_linker_0, # of connection points: 2
#     Edge 40, Type (0, 1), BuildingBlock: ZUJKAS_clean_linker_0, # of connection points: 2
#     Edge 41, Type (0, 1), BuildingBlock: ZUJKAS_clean_linker_0, # of connection points: 2
#     Edge 42, Type (0, 1), BuildingBlock: ZUJKAS_clean_linker_0, # of connection points: 2
#     Edge 43, Type (0, 1), BuildingBlock: ZUJKAS_clean_linker_0, # of connection points: 2
#     Edge 44, Type (0, 1), BuildingBlock: ZUJKAS_clean_linker_0, # of connection points: 2
#     Edge 45, Type (0, 1), BuildingBlock: ZUJKAS_clean_linker_0, # of connection points: 2
#     Edge 46, Type (0, 1), BuildingBlock: ZUJKAS_clean_linker_0, # of connection points: 2
#     Edge 47, Type (0, 1), BuildingBlock: ZUJKAS_clean_linker_0, # of connection points: 2
#     Edge 48, Type (0, 1), BuildingBlock: ZUJKAS_clean_linker_0, # of connection points: 2
#     Edge 49, Type (0, 1), BuildingBlock: ZUJKAS_clean_linker_0, # of connection points: 2
#     Edge 50, Type (0, 1), BuildingBlock: ZUJKAS_clean_linker_0, # of connection points: 2
#     Edge 51, Type (0, 1), BuildingBlock: ZUJKAS_clean_linker_0, # of connection points: 2
#     Edge 52, Type (0, 1), BuildingBlock: ZUJKAS_clean_linker_0, # of connection points: 2
#     Edge 53, Type (0, 1), BuildingBlock: ZUJKAS_clean_linker_0, # of connection points: 2
#     Edge 54, Type (0, 1), BuildingBlock: ZUJKAS_clean_linker_0, # of connection points: 2
#     Edge 55, Type (0, 1), BuildingBlock: ZUJKAS_clean_linker_0, # of connection points: 2
#     Edge 56, Type (0, 1), BuildingBlock: ZUJKAS_clean_linker_0, # of connection points: 2
#     Edge 57, Type (0, 1), BuildingBlock: ZUJKAS_clean_linker_0, # of connection points: 2
#     Edge 58, Type (0, 1), BuildingBlock: ZUJKAS_clean_linker_0, # of connection points: 2
#     Edge 59, Type (0, 1), BuildingBlock: ZUJKAS_clean_linker_0, # of connection points: 2
#     Edge 60, Type (0, 1), BuildingBlock: ZUJKAS_clean_linker_0, # of connection points: 2
#     Edge 61, Type (0, 1), BuildingBlock: ZUJKAS_clean_linker_0, # of connection points: 2
#     Edge 62, Type (0, 1), BuildingBlock: ZUJKAS_clean_linker_0, # of connection points: 2
#     Edge 63, Type (0, 1), BuildingBlock: ZUJKAS_clean_linker_0, # of connection points: 2
#     Edge 64, Type (0, 1), BuildingBlock: ZUJKAS_clean_linker_0, # of connection points: 2
#     Edge 65, Type (0, 1), BuildingBlock: ZUJKAS_clean_linker_0, # of connection points: 2
#     Edge 66, Type (0, 1), BuildingBlock: ZUJKAS_clean_linker_0, # of connection points: 2
#     Edge 67, Type (0, 1), BuildingBlock: ZUJKAS_clean_linker_0, # of connection points: 2
#     Edge 68, Type (0, 1), BuildingBlock: ZUJKAS_clean_linker_0, # of connection points: 2
#     Edge 69, Type (0, 1), BuildingBlock: ZUJKAS_clean_linker_0, # of connection points: 2
#     Edge 70, Type (0, 1), BuildingBlock: ZUJKAS_clean_linker_0, # of connection points: 2
#     Edge 71, Type (0, 1), BuildingBlock: ZUJKAS_clean_linker_0, # of connection points: 2
#     Edge 72, Type (0, 1), BuildingBlock: ZUJKAS_clean_linker_0, # of connection points: 2
#     Edge 73, Type (0, 1), BuildingBlock: ZUJKAS_clean_linker_0, # of connection points: 2
#     Edge 74, Type (0, 1), BuildingBlock: ZUJKAS_clean_linker_0, # of connection points: 2
#     Edge 75, Type (0, 1), BuildingBlock: ZUJKAS_clean_linker_0, # of connection points: 2
# Relax obj value: 0.077
# Max RMSD: 0.211
# Mean RMSD: 0.130
data_MOF--net-ctn--node1-UXUYUI_clean_sbu_0--node2-CUQRIR_clean_linker_1--edge1-ZUJKAS_clean_linker_0
_symmetry_space_group_name_H-M    P1
_symmetry_Int_Tables_number       1
_symmetry_cell_setting            triclinic
loop_
_symmetry_equiv_pos_as_xyz
'x, y, z'
_cell_length_a     82.349756
_cell_length_b     76.995128
_cell_length_c     78.868669
_cell_angle_alpha  96.387206
_cell_angle_beta   88.865356
_cell_angle_gamma 92.541205
loop_
_atom_site_label
_atom_site_type_symbol
_atom_site_fract_x
_atom_site_fract_y
_atom_site_fract_z
_atom_type_partial_charge
C0 C 0.04484 0.0258 0.07178 0.0
N1 N 0.05172 0.03047 0.05711 0.0
N2 N 0.02968 0.03189 0.07397 0.0
C3 C 0.05243 0.0142 0.0833 0.0
C4 C 0.02753 0.0403 0.06005 0.0
N5 N 0.04084 0.03922 0.04966 0.0
C6 C 0.01299 0.0508 0.05731 0.0
H7 H 0.043 0.00717 0.09049 0.0
H8 H 0.06029 0.0224 0.09256 0.0
H9 H 0.06009 1.0045 0.07585 0.0
H10 H 0.00682 0.05513 0.06958 0.0
H11 H 1.00424 0.04253 0.04908 0.0
H12 H 0.0166 0.06246 0.0508 0.0
C13 C 0.29526 0.72822 0.22276 0.0
N14 N 0.30141 0.72098 0.236 0.0
N15 N 0.30351 0.74338 0.22037 0.0
C16 C 0.28037 0.72119 0.21305 0.0
C17 C 0.3148 0.74521 0.23281 0.0
N18 N 0.31342 0.73165 0.24244 0.0
C19 C 0.32798 0.75942 0.2346 0.0
H20 H 0.28411 0.7117 0.2022 0.0
H21 H 0.274 0.73184 0.20795 0.0
H22 H 0.27179 0.71428 0.22131 0.0
H23 H 0.3239 0.77028 0.24393 0.0
H24 H 0.33062 0.76463 0.22223 0.0
H25 H 0.33931 0.75449 0.23936 0.0
C26 C 0.97457 0.48918 0.07578 0.0
N27 N 0.98421 0.47526 0.0748 0.0
N28 N 0.96438 0.48784 0.06234 0.0
C29 C 0.97608 0.50477 0.08907 0.0
C30 C 0.96827 0.47263 0.05312 0.0
N31 N 0.98043 0.46513 0.06057 0.0
C32 C 0.95942 0.46438 0.03753 0.0
H33 H 0.96815 0.50237 0.10017 0.0
H34 H 0.97226 0.51678 0.08396 0.0
H35 H 0.98878 0.50687 0.09355 0.0
H36 H 0.96567 0.4686 0.02599 0.0
H37 H 0.94665 0.46843 0.0377 0.0
H38 H 0.95947 0.4499 0.03662 0.0
C39 C 0.70277 0.77169 0.23542 0.0
N40 N 0.71649 0.77948 0.22948 0.0
N41 N 0.69863 0.77942 0.2511 0.0
C42 C 0.6942 0.75563 0.22657 0.0
C43 C 0.71041 0.79211 0.25453 0.0
N44 N 0.72137 0.79201 0.24149 0.0
C45 C 0.71041 0.8056 0.2699 0.0
H46 H 0.68497 0.75968 0.21791 0.0
H47 H 0.68795 0.74779 0.23594 0.0
H48 H 0.70291 0.74733 0.21883 0.0
H49 H 0.7176 0.80092 0.2801 0.0
H50 H 0.69787 0.80778 0.27482 0.0
H51 H 0.71603 0.81823 0.26677 0.0
C52 C 0.04022 0.98031 0.47962 0.0
N53 N 0.05396 0.98216 0.48889 0.0
N54 N 0.04082 0.99137 0.46737 0.0
C55 C 0.02661 0.96707 0.48198 0.0
C56 C 0.05546 1.0 0.46957 0.0
N57 N 0.06347 0.99436 0.48263 0.0
C58 C 0.06191 0.01399 0.45903 0.0
H59 H 0.02041 0.96289 0.46974 0.0
H60 H 0.01759 0.97307 0.49123 0.0
H61 H 0.03118 0.95541 0.48714 0.0
H62 H 0.05182 0.0209 0.45399 0.0
H63 H 0.06905 0.00779 0.4481 0.0
H64 H 0.07006 0.02365 0.46655 0.0
C65 C 0.21159 0.7339 0.79465 0.0
N66 N 0.22273 0.7257 0.80293 0.0
N67 N 0.20595 0.72339 0.78094 0.0
C68 C 0.20511 0.75152 0.80081 0.0
C69 C 0.21392 0.70843 0.78126 0.0
N70 N 0.22403 0.70976 0.79475 0.0
C71 C 0.21258 0.69304 0.76775 0.0
H72 H 0.1926 0.75271 0.79623 0.0
H73 H 0.2131 0.76183 0.79583 0.0
H74 H 0.20502 0.75378 0.81496 0.0
H75 H 0.20858 0.69712 0.75549 0.0
H76 H 0.20344 0.68333 0.77196 0.0
H77 H 0.22439 0.68668 0.76572 0.0
C78 C 0.96539 0.54313 0.46493 0.0
N79 N 0.97679 0.55644 0.46645 0.0
N80 N 0.9558 0.54358 0.47911 0.0
C81 C 0.96434 0.52895 0.45019 0.0
C82 C 0.96182 0.55757 0.48935 0.0
N83 N 0.97471 0.56527 0.48174 0.0
C84 C 0.95426 0.56456 0.50612 0.0
H85 H 0.9568 0.53335 0.44011 0.0
H86 H 0.95864 0.51671 0.45421 0.0
H87 H 0.97659 0.52621 0.44469 0.0
H88 H 0.96054 0.55922 0.51661 0.0
H89 H 0.94116 0.56062 0.50676 0.0
H90 H 0.95561 0.57904 0.50813 0.0
C91 C 0.79558 0.81225 0.81808 0.0
N92 N 0.80868 0.80213 0.8159 0.0
N93 N 0.79461 0.82233 0.80514 0.0
C94 C 0.78306 0.81143 0.83216 0.0
C95 C 0.80755 0.81792 0.79496 0.0
N96 N 0.81602 0.80554 0.8014 0.0
C97 C 0.81219 0.82616 0.77901 0.0
H98 H 0.7711 0.81553 0.82816 0.0
H99 H 0.78709 0.82039 0.84343 0.0
H100 H 0.78164 0.798 0.83598 0.0
H101 H 0.82541 0.82558 0.7762 0.0
H102 H 0.80867 0.83999 0.78016 0.0
H103 H 0.80563 0.81891 0.76808 0.0
C104 C 0.29853 0.31089 0.31896 0.0
N105 N 0.31129 0.30036 0.31631 0.0
N106 N 0.29713 0.32063 0.30582 0.0
C107 C 0.28678 0.31082 0.33381 0.0
C108 C 0.30946 0.31554 0.29502 0.0
N109 N 0.31795 0.30305 0.30129 0.0
C110 C 0.31402 0.32384 0.27909 0.0
H111 H 0.28533 0.29758 0.33808 0.0
H112 H 0.27469 0.31514 0.33046 0.0
H113 H 0.29161 0.31993 0.34461 0.0
H114 H 0.30963 0.33731 0.27975 0.0
H115 H 0.3084 0.31588 0.26797 0.0
H116 H 0.3274 0.3243 0.27704 0.0
C117 C 0.47234 0.98891 0.57503 0.0
N118 N 0.48278 0.97567 0.57334 0.0
N119 N 0.46299 0.98835 0.56102 0.0
C120 C 0.47131 1.00234 0.59035 0.0
C121 C 0.46822 0.97442 0.55068 0.0
N122 N 0.4804 0.96685 0.55807 0.0
C123 C 0.46146 0.96811 0.53338 0.0
H124 H 0.46468 0.99638 0.60079 0.0
H125 H 0.46475 0.01393 0.58758 0.0
H126 H 0.48368 1.00656 0.59491 0.0
H127 H 0.45001 0.97436 0.53094 0.0
H128 H 0.45932 0.95369 0.53216 0.0
H129 H 0.4705 0.9712 0.52343 0.0
C130 C 0.20213 0.27628 0.7349 0.0
N131 N 0.21603 0.28353 0.72879 0.0
N132 N 0.19896 0.28339 0.75105 0.0
C133 C 0.19233 0.26133 0.72562 0.0
C134 C 0.2115 0.29515 0.75458 0.0
N135 N 0.22198 0.29508 0.74112 0.0
C136 C 0.21274 0.30772 0.77059 0.0
H137 H 0.18332 0.26667 0.71753 0.0
H138 H 0.1857 0.25348 0.73472 0.0
H139 H 0.20026 0.25269 0.71723 0.0
H140 H 0.22032 0.30206 0.77989 0.0
H141 H 0.20058 0.3101 0.77647 0.0
H142 H 0.21859 0.3204 0.76787 0.0
C143 C 0.7959 0.22866 0.72194 0.0
N144 N 0.80154 0.22141 0.73542 0.0
N145 N 0.80415 0.24392 0.71999 0.0
C146 C 0.78152 0.2215 0.71145 0.0
C147 C 0.81493 0.24579 0.73288 0.0
N148 N 0.81326 0.23215 0.74241 0.0
C149 C 0.82794 0.26016 0.73524 0.0
H150 H 0.7858 0.212 0.70087 0.0
H151 H 0.77544 0.23209 0.7059 0.0
H152 H 0.77255 0.21459 0.71928 0.0
H153 H 0.82354 0.27082 0.74459 0.0
H154 H 0.83082 0.26563 0.72304 0.0
H155 H 0.8392 0.25529 0.74021 0.0
C156 C 0.54278 0.52071 0.56962 0.0
N157 N 0.55062 0.52782 0.55659 0.0
N158 N 0.53045 0.53075 0.57583 0.0
C159 C 0.54804 0.50487 0.57732 0.0
C160 C 0.53114 0.54429 0.56624 0.0
N161 N 0.54351 0.54264 0.55469 0.0
C162 C 0.51905 0.5585 0.56743 0.0
H163 H 0.54248 0.49296 0.57012 0.0
H164 H 0.54407 0.50522 0.59088 0.0
H165 H 0.56145 0.50398 0.57654 0.0
H166 H 0.52399 0.56999 0.57578 0.0
H167 H 0.50729 0.55406 0.57294 0.0
H168 H 0.51692 0.56267 0.55466 0.0
C169 C 0.54715 0.47445 0.97678 0.0
N170 N 0.56009 0.47762 0.98719 0.0
N171 N 0.5465 0.48693 0.96604 0.0
C172 C 0.53449 0.4599 0.97792 0.0
C173 C 0.55944 0.49788 0.97035 0.0
N174 N 0.56762 0.49235 0.98339 0.0
C175 C 0.56482 0.5131 0.96086 0.0
H176 H 0.53863 0.44796 0.97014 0.0
H177 H 0.52266 0.46332 0.97301 0.0
H178 H 0.53279 0.45689 0.9913 0.0
H179 H 0.55995 0.52525 0.96758 0.0
H180 H 0.5602 0.51139 0.94763 0.0
H181 H 0.57828 0.51464 0.9604 0.0
C182 C 0.70574 0.23266 0.30146 0.0
N183 N 0.71816 0.22507 0.30838 0.0
N184 N 0.70196 0.22415 0.286 0.0
C185 C 0.6982 0.24924 0.30918 0.0
C186 C 0.71267 0.2112 0.28367 0.0
N187 N 0.72266 0.21186 0.29723 0.0
C188 C 0.71238 0.19701 0.26892 0.0
H189 H 0.6879 0.24586 0.31766 0.0
H190 H 0.69353 0.25664 0.29914 0.0
H191 H 0.70715 0.25774 0.31693 0.0
H192 H 0.72081 0.20096 0.25876 0.0
H193 H 0.70001 0.19488 0.26355 0.0
H194 H 0.71638 0.18453 0.27292 0.0
C195 C 0.46549 0.04162 0.96515 0.0
N196 N 0.47578 0.0559 0.96553 0.0
N197 N 0.45212 0.04519 0.97498 0.0
C198 C 0.46786 0.02464 0.95413 0.0
C199 C 0.45459 0.06217 0.98127 0.0
N200 N 0.46886 0.06873 0.97536 0.0
C201 C 0.44366 0.07195 0.99418 0.0
H202 H 0.45603 0.0177 0.95098 0.0
H203 H 0.47521 0.01614 0.96115 0.0
H204 H 0.47444 0.02694 0.94212 0.0
H205 H 0.43657 0.06285 1.00174 0.0
H206 H 0.43505 0.07932 0.98738 0.0
H207 H 0.45082 0.08146 1.00299 0.0
Li208 Li 0.26862 0.89681 0.02011 0.0
Li209 Li 0.25736 0.87615 0.03879 0.0
Li210 Li 0.25281 0.87306 0.00777 0.0
Li211 Li 0.23887 0.89682 0.0241 0.0
C212 C 0.28976 0.87197 0.01858 0.0
N213 N 0.32329 0.87315 0.01571 0.0
C214 C 0.29924 0.87087 0.0329 0.0
C215 C 0.29735 0.87355 1.00278 0.0
C216 C 0.31617 0.8715 0.03119 0.0
C217 C 0.31431 0.87417 1.0016 0.0
C218 C 0.26427 0.91643 0.04987 0.0
C219 C 0.27127 0.94732 0.05219 0.0
N220 N 0.28142 0.94542 0.0652 0.0
C221 C 0.2747 0.91476 0.06331 0.0
C222 C 0.26244 0.93283 0.04431 0.0
C223 C 0.28328 0.92959 0.07088 0.0
C224 C 0.28711 0.92176 1.00333 0.0
N225 N 0.28709 0.91245 0.017 0.0
C226 C 0.31326 0.92502 0.02517 0.0
C227 C 0.29974 0.91407 0.02799 0.0
C228 C 0.31376 0.93452 0.01095 0.0
C229 C 0.30038 0.93288 1.00002 0.0
H230 H 0.27685 0.92051 0.99491 0.0
H231 H 0.29939 0.90681 0.03894 0.0
C232 C 0.26761 0.84853 0.05567 0.0
N233 N 0.26017 0.86403 0.05825 0.0
C234 C 0.27065 0.83922 0.06939 0.0
C235 C 0.25793 0.86175 0.08822 0.0
C236 C 0.25521 0.8707 0.0741 0.0
C237 C 0.26584 0.8458 0.086 0.0
H238 H 0.27144 0.84355 0.04292 0.0
H239 H 0.24924 0.88303 0.07577 0.0
C240 C 0.24794 0.89603 0.98607 0.0
N241 N 0.24019 0.89193 0.95188 0.0
C242 C 0.23195 0.89781 0.98109 0.0
C243 C 0.26 0.8923 0.97364 0.0
C244 C 0.22828 0.89568 0.96375 0.0
C245 C 0.25583 0.89022 0.95643 0.0
C246 C 0.22679 0.85689 0.02077 0.0
C247 C 0.21144 0.85866 0.01408 0.0
C248 C 0.23271 0.84024 0.0213 0.0
C249 C 0.20229 0.84366 0.00786 0.0
C250 C 0.22321 0.82557 0.01493 0.0
N251 N 0.20833 0.82757 0.0084 0.0
C252 C 0.26294 0.84471 0.98448 0.0
C253 C 0.23671 0.85397 0.97901 0.0
C254 C 0.26213 0.83219 0.97023 0.0
N255 N 0.25045 0.85548 0.98845 0.0
C256 C 0.23536 0.84163 0.96468 0.0
C257 C 0.24825 0.83063 0.96 0.0
H258 H 0.27362 0.84589 0.99231 0.0
H259 H 0.22678 0.8624 0.98252 0.0
C260 C 0.22098 0.92596 0.01901 0.0
N261 N 0.22034 0.91095 0.02663 0.0
C262 C 0.20767 0.93667 0.01998 0.0
C263 C 0.19332 0.91644 0.0369 0.0
C264 C 0.20693 0.90608 0.03556 0.0
C265 C 0.19353 0.93196 0.02898 0.0
H266 H 0.23179 0.92948 0.01193 0.0
H267 H 0.20679 0.89412 0.04159 0.0
O268 O 0.27316 0.87147 0.02001 0.0
O269 O 0.25592 0.90204 0.04216 0.0
O270 O 0.25177 0.89798 1.003 0.0
O271 O 0.23602 0.87141 0.02668 0.0
H272 H 0.29363 0.86987 0.04528 0.0
H273 H 0.29022 0.87436 0.99156 0.0
H274 H 0.32365 0.87078 0.04219 0.0
H275 H 0.32033 0.87549 0.98946 0.0
H276 H 0.27007 0.96008 0.04795 0.0
H277 H 0.27629 0.90213 0.0677 0.0
H278 H 0.25445 0.9343 0.03389 0.0
H279 H 0.29147 0.92849 0.08123 0.0
H280 H 0.32316 0.92612 0.03411 0.0
H281 H 0.30026 0.93985 0.98884 0.0
H282 H 0.27702 0.82717 0.06701 0.0
H283 H 0.25378 0.86723 0.10071 0.0
H284 H 0.22241 0.90048 0.9905 0.0
H285 H 0.27244 0.89096 0.97724 0.0
H286 H 0.21594 0.8969 0.95972 0.0
H287 H 0.26504 0.88724 0.94669 0.0
H288 H 0.20672 0.87147 0.0135 0.0
H289 H 0.2446 0.83868 0.02638 0.0
H290 H 0.19043 0.84481 1.00256 0.0
H291 H 0.22768 0.8126 0.01515 0.0
H292 H 0.2724 0.82407 0.96709 0.0
H293 H 0.22428 0.84067 0.9574 0.0
H294 H 0.20836 0.94834 0.01347 0.0
H295 H 0.18282 0.9124 0.0442 0.0
Li296 Li 0.13253 0.52055 0.28777 0.0
Li297 Li 0.15258 0.50032 0.27431 0.0
Li298 Li 0.15458 0.53207 0.26961 0.0
Li299 Li 0.13349 0.51162 0.25579 0.0
C300 C 0.16107 0.52985 0.30653 0.0
N301 N 0.17056 0.5475 0.33742 0.0
C302 C 0.16736 0.52074 0.31912 0.0
C303 C 0.15984 0.54797 0.30957 0.0
C304 C 0.17202 0.52989 0.33468 0.0
C305 C 0.16464 0.55665 0.32528 0.0
C306 C 0.1266 0.48018 0.2785 0.0
C307 C 0.12794 0.4492 0.27007 0.0
N308 N 0.12378 0.44606 0.28626 0.0
C309 C 0.12223 0.47666 0.29502 0.0
C310 C 0.12937 0.46636 0.26588 0.0
C311 C 0.12089 0.45931 0.2987 0.0
C312 C 0.10426 0.53367 0.30437 0.0
N313 N 0.11847 0.52616 0.30705 0.0
C314 C 0.11212 0.52667 0.33684 0.0
C315 C 0.12248 0.52247 0.32288 0.0
C316 C 0.09742 0.53467 0.33451 0.0
C317 C 0.09355 0.53814 0.31797 0.0
H318 H 0.1012 0.53616 0.29161 0.0
H319 H 0.13365 0.51611 0.32466 0.0
C320 C 0.17539 0.47435 0.26505 0.0
N321 N 0.16528 0.48082 0.27781 0.0
C322 C 0.18527 0.46053 0.26734 0.0
C323 C 0.17418 0.46026 0.2959 0.0
C324 C 0.16449 0.47407 0.29304 0.0
C325 C 0.18483 0.45336 0.28297 0.0
H326 H 0.176 0.4801 0.25316 0.0
H327 H 0.15639 0.47949 0.30302 0.0
C328 C 0.12634 0.55199 0.26781 0.0
N329 N 0.11734 0.58594 0.26624 0.0
C330 C 0.12199 0.55742 0.25225 0.0
C331 C 0.12583 0.56377 0.28263 0.0
C332 C 0.11756 0.57465 0.2517 0.0
C333 C 0.12132 0.58089 0.28156 0.0
C334 C 0.15994 0.50839 0.23565 0.0
C335 C 0.16579 0.52215 0.22675 0.0
C336 C 0.15639 0.49196 0.22678 0.0
C337 C 0.16783 0.51927 0.20904 0.0
C338 C 0.15856 0.48962 0.20907 0.0
N339 N 0.16418 0.50321 0.20064 0.0
C340 C 0.18453 0.55032 0.27491 0.0
C341 C 0.16643 0.56528 0.25929 0.0
C342 C 0.19637 0.56383 0.2744 0.0
N343 N 0.16984 0.55134 0.26758 0.0
C344 C 0.17792 0.5791 0.25847 0.0
C345 C 0.19313 0.57854 0.26615 0.0
H346 H 0.18701 0.53902 0.28129 0.0
H347 H 0.1549 0.56565 0.25314 0.0
C348 C 0.10806 0.49345 0.23676 0.0
N349 N 0.12012 0.506 0.23599 0.0
C350 C 0.09789 0.4888 0.22286 0.0
C351 C 0.11268 0.51007 0.20754 0.0
C352 C 0.12251 0.51437 0.22178 0.0
C353 C 0.10011 0.49715 0.20796 0.0
H354 H 0.10628 0.48706 0.24822 0.0
H355 H 0.13202 0.52446 0.22148 0.0
O356 O 0.1564 0.52105 0.29124 0.0
O357 O 0.12824 0.49709 0.27473 0.0
O358 O 0.13066 0.53513 0.26856 0.0
O359 O 0.15778 0.51099 0.25297 0.0
H360 H 0.16857 0.50674 0.31694 0.0
H361 H 0.15542 0.55529 0.29985 0.0
H362 H 0.17681 0.52298 0.34458 0.0
H363 H 0.16372 0.57068 0.3278 0.0
H364 H 0.13016 0.43837 0.26046 0.0
H365 H 0.12 0.48721 0.30493 0.0
H366 H 0.13271 0.46888 0.25302 0.0
H367 H 0.1176 0.45639 0.31146 0.0
H368 H 0.11563 0.52379 0.34935 0.0
H369 H 0.08223 0.54396 0.31548 0.0
H370 H 0.19347 0.45583 0.25711 0.0
H371 H 0.17332 0.45503 0.30809 0.0
H372 H 0.12214 0.54847 0.24069 0.0
H373 H 0.12869 0.55972 0.29486 0.0
H374 H 0.11428 0.57904 0.23972 0.0
H375 H 0.12092 0.59014 0.29292 0.0
H376 H 0.16865 0.53492 0.23341 0.0
H377 H 0.15188 0.48117 0.23347 0.0
H378 H 0.17228 0.52981 0.20197 0.0
H379 H 0.15576 0.47701 0.20203 0.0
H380 H 0.20786 0.56286 0.28061 0.0
H381 H 0.175 0.58999 0.25165 0.0
H382 H 0.08846 0.47866 0.22373 0.0
H383 H 0.1147 0.51703 0.19644 0.0
Li384 Li 0.76355 0.63037 1.00263 0.0
Li385 Li 0.77688 0.65465 0.02058 0.0
Li386 Li 0.7824 0.65092 0.98883 0.0
Li387 Li 0.79401 0.63121 0.00784 0.0
C388 C 0.74727 0.65832 0.99379 0.0
N389 N 0.71833 0.66277 0.97801 0.0
C390 C 0.73421 0.66554 1.00326 0.0
C391 C 0.74567 0.6535 0.97628 0.0
C392 C 0.71966 0.66764 0.99505 0.0
C393 C 0.73093 0.65582 0.96853 0.0
C394 C 0.77452 0.62962 0.04151 0.0
C395 C 0.78734 0.63333 0.06897 0.0
N396 N 0.77261 0.6308 0.07662 0.0
C397 C 0.75954 0.62689 0.04962 0.0
C398 C 0.78856 0.63272 0.05123 0.0
C399 C 0.75881 0.6276 0.06739 0.0
C400 C 0.74391 0.60003 0.99088 0.0
N401 N 0.74413 0.61567 1.00076 0.0
C402 C 0.71683 0.61009 0.01032 0.0
C403 C 0.73096 0.62083 0.01038 0.0
C404 C 0.71617 0.59381 1.00025 0.0
C405 C 0.72997 0.5889 0.99034 0.0
H406 H 0.75463 0.59605 0.98359 0.0
H407 H 0.73157 0.63316 0.01842 0.0
C408 C 0.78531 0.68232 0.04659 0.0
N409 N 0.77327 0.67088 0.04032 0.0
C410 C 0.78275 0.69348 0.06155 0.0
C411 C 0.7553 0.68124 0.06303 0.0
C412 C 0.75841 0.6703 0.04809 0.0
C413 C 0.7676 0.69296 0.07004 0.0
H414 H 0.79691 0.6828 0.04001 0.0
H415 H 0.74903 0.66112 0.0428 0.0
C416 C 0.78511 0.61705 0.97021 0.0
N417 N 0.79176 0.60144 0.9377 0.0
C418 C 0.80081 0.61181 0.96575 0.0
C419 C 0.77276 0.61418 0.95819 0.0
C420 C 0.80393 0.60398 0.94924 0.0
C421 C 0.77638 0.60632 0.9418 0.0
C422 C 0.81406 0.66146 0.00918 0.0
C423 C 0.82294 0.66567 0.99479 0.0
C424 C 0.82188 0.66183 0.0248 0.0
C425 C 0.83954 0.67004 0.99625 0.0
C426 C 0.83851 0.66623 0.02572 0.0
N427 N 0.84692 0.67021 0.01154 0.0
C428 C 0.78186 0.68068 0.97124 0.0
C429 C 0.79416 0.65701 0.95492 0.0
C430 C 0.78496 0.69139 0.95823 0.0
N431 N 0.78646 0.66382 0.96941 0.0
C432 C 0.7974 0.6672 0.94153 0.0
C433 C 0.79288 0.68471 0.94307 0.0
H434 H 0.77595 0.68589 0.98297 0.0
H435 H 0.79807 0.64377 0.95373 0.0
C436 C 0.80806 0.60268 0.02032 0.0
N437 N 0.81174 0.61681 0.01182 0.0
C438 C 0.8203 0.59188 0.02436 0.0
C439 C 0.83991 0.61027 0.01073 0.0
C440 C 0.82725 0.62049 0.00664 0.0
C441 C 0.83648 0.59582 0.01977 0.0
H442 H 0.79562 0.59988 0.02412 0.0
H443 H 0.82989 0.63132 0.99932 0.0
O444 O 0.76154 0.65596 1.00165 0.0
O445 O 0.77544 0.62937 0.02414 0.0
O446 O 0.78183 0.62466 0.98634 0.0
O447 O 0.79778 0.65719 0.00798 0.0
H448 H 0.73528 0.66941 0.01682 0.0
H449 H 0.7557 0.64805 0.96874 0.0
H450 H 0.70942 0.67313 1.00224 0.0
H451 H 0.72951 0.65211 0.95499 0.0
H452 H 0.79811 0.6358 0.07666 0.0
H453 H 0.74856 0.62439 0.04229 0.0
H454 H 0.80028 0.63464 0.04514 0.0
H455 H 0.74727 0.62563 0.07385 0.0
H456 H 0.70668 0.61435 0.01843 0.0
H457 H 0.73004 0.5766 0.98224 0.0
H458 H 0.79249 0.7025 0.06635 0.0
H459 H 0.74349 0.68026 0.06922 0.0
H460 H 0.8105 0.61388 0.97489 0.0
H461 H 0.76049 0.61792 0.96147 0.0
H462 H 0.81604 0.59994 0.94558 0.0
H463 H 0.76695 0.60408 0.93236 0.0
H464 H 0.81712 0.6655 0.98262 0.0
H465 H 0.81524 0.65867 0.03608 0.0
H466 H 0.84656 0.67327 0.9852 0.0
H467 H 0.84472 0.66648 0.0377 0.0
H468 H 0.78147 0.70486 0.96021 0.0
H469 H 0.80336 0.66134 0.93007 0.0
H470 H 0.81721 0.58081 0.03134 0.0
H471 H 0.85223 0.61352 0.00674 0.0
Li472 Li 0.86517 0.02417 0.28203 0.0
Li473 Li 0.88564 0.00716 0.29428 0.0
Li474 Li 0.88559 0.01093 0.263 0.0
Li475 Li 0.86513 0.99131 0.27494 0.0
C476 C 0.8905 0.04635 0.28815 0.0
N477 N 0.89247 0.08175 0.29905 0.0
C478 C 0.89449 0.05218 0.30503 0.0
C479 C 0.88769 0.05853 0.27676 0.0
C480 C 0.8954 0.07013 0.3103 0.0
C481 C 0.88868 0.07637 0.28254 0.0
C482 C 0.85681 1.00009 0.31287 0.0
C483 C 0.85218 0.97722 0.3312 0.0
N484 N 0.84713 0.98926 0.34392 0.0
C485 C 0.85134 0.01219 0.32605 0.0
C486 C 0.85703 0.98242 0.3154 0.0
C487 C 0.8466 1.00648 0.34168 0.0
C488 C 0.84184 0.04763 0.27375 0.0
N489 N 0.85168 0.04392 0.28638 0.0
C490 C 0.8427 0.06872 0.30459 0.0
C491 C 0.85221 0.05406 0.30164 0.0
C492 C 0.83258 0.07302 0.29168 0.0
C493 C 0.8322 0.06221 0.2761 0.0
H494 H 0.84145 0.03928 0.26181 0.0
H495 H 0.86017 0.05091 0.31148 0.0
C496 C 0.91457 0.99899 0.309 0.0
N497 N 0.89976 1.00554 0.31301 0.0
C498 C 0.92585 0.99769 0.32173 0.0
C499 C 0.90663 0.01036 0.34256 0.0
C500 C 0.89566 0.01128 0.32941 0.0
C501 C 0.92201 1.0035 0.33881 0.0
H502 H 0.91767 0.9948 0.29583 0.0
H503 H 0.88405 0.01698 0.33226 0.0
C504 C 0.86051 0.01042 0.24251 0.0
N505 N 0.85904 0.01155 0.20768 0.0
C506 C 0.85586 0.99542 0.23179 0.0
C507 C 0.86421 0.02606 0.23553 0.0
C508 C 0.85523 0.99624 0.21421 0.0
C509 C 0.86346 0.02635 0.21788 0.0
C510 C 0.89432 0.97295 0.27432 0.0
C511 C 0.90137 0.96423 0.25969 0.0
C512 C 0.89296 0.96473 0.28924 0.0
C513 C 0.90656 0.94726 0.26012 0.0
C514 C 0.89832 0.94776 0.28918 0.0
N515 N 0.90492 0.93943 0.27473 0.0
C516 C 0.90978 0.02757 0.24368 0.0
C517 C 0.89859 1.00088 0.22999 0.0
C518 C 0.92012 0.02953 0.2297 0.0
N519 N 0.89929 0.01343 0.24355 0.0
C520 C 0.90869 1.00232 0.21575 0.0
C521 C 0.9197 0.01677 0.21549 0.0
H522 H 0.91021 0.03728 0.25467 0.0
H523 H 0.89022 0.9897 0.23028 0.0
C524 C 0.83709 0.96916 0.27794 0.0
N525 N 0.85191 0.97032 0.27015 0.0
C526 C 0.82701 0.95413 0.27457 0.0
C527 C 0.84747 0.94189 0.25495 0.0
C528 C 0.85715 0.95714 0.25871 0.0
C529 C 0.83216 0.94021 0.26293 0.0
H530 H 0.83309 0.97993 0.28679 0.0
H531 H 0.8687 0.9586 0.25222 0.0
O532 O 0.88933 0.02882 0.28281 0.0
O533 O 0.86145 1.00549 0.29746 0.0
O534 O 0.86144 0.0098 0.25974 0.0
O535 O 0.88916 0.9896 0.27409 0.0
H536 H 0.89677 0.04296 0.31399 0.0
H537 H 0.88468 0.05427 0.26364 0.0
H538 H 0.89839 0.07482 0.32335 0.0
H539 H 0.88643 0.08593 0.27389 0.0
H540 H 0.85234 0.96359 0.33333 0.0
H541 H 0.85085 0.02587 0.32429 0.0
H542 H 0.86069 0.97277 0.30522 0.0
H543 H 0.84247 0.01575 0.35202 0.0
H544 H 0.84348 0.07678 0.31673 0.0
H545 H 0.82438 0.06488 0.2659 0.0
H546 H 0.93744 0.99211 0.31818 0.0
H547 H 0.90323 0.01535 0.35545 0.0
H548 H 0.85282 0.98325 0.23697 0.0
H549 H 0.86774 0.03782 0.24363 0.0
H550 H 0.85173 0.98469 0.20576 0.0
H551 H 0.86642 0.03833 0.2123 0.0
H552 H 0.90275 0.97044 0.24809 0.0
H553 H 0.88809 0.97145 0.30084 0.0
H554 H 0.91192 0.94032 0.24885 0.0
H555 H 0.89731 0.94125 0.30065 0.0
H556 H 0.92828 0.04098 0.23 0.0
H557 H 0.9081 0.99203 0.2052 0.0
H558 H 0.81537 0.95338 0.28114 0.0
H559 H 0.85181 0.93167 0.24563 0.0
Li560 Li 0.27406 0.15354 0.52092 0.0
Li561 Li 0.26132 0.12962 0.5017 0.0
Li562 Li 0.29141 0.13005 0.50725 0.0
Li563 Li 0.27985 0.15008 0.48889 0.0
C564 C 0.27419 0.12416 0.53983 0.0
N565 N 0.27732 0.11623 0.57292 0.0
C566 C 0.2613 0.11579 0.54794 0.0
C567 C 0.28875 0.12821 0.54848 0.0
C568 C 0.26309 0.11197 0.5647 0.0
C569 C 0.29008 0.12417 0.56521 0.0
C570 C 0.24279 0.15633 0.4994 0.0
C571 C 0.2193 0.15242 0.48137 0.0
N572 N 0.20964 0.15732 0.4951 0.0
C573 C 0.23265 0.16148 0.5133 0.0
C574 C 0.2361 0.15191 0.48327 0.0
C575 C 0.21591 0.16184 0.51088 0.0
C576 C 0.27833 0.18534 0.54316 0.0
N577 N 0.27055 0.1693 0.54106 0.0
C578 C 0.25751 0.17466 0.56838 0.0
C579 C 0.26007 0.16398 0.55317 0.0
C580 C 0.26567 0.19112 0.57115 0.0
C581 C 0.27607 0.19651 0.5582 0.0
H582 H 0.28641 0.18938 0.53322 0.0
H583 H 0.25358 0.15146 0.55097 0.0
C584 C 0.23943 0.10294 0.48562 0.0
N585 N 0.24181 0.11502 0.49937 0.0
C586 C 0.22534 0.09203 0.48455 0.0
C587 C 0.21645 0.10621 0.5118 0.0
C588 C 0.23065 0.11685 0.5123 0.0
C589 C 0.21362 0.0935 0.49782 0.0
H590 H 0.24852 0.10166 0.47553 0.0
H591 H 0.23287 0.1265 0.52314 0.0
C592 C 0.31028 0.16231 0.51327 0.0
N593 N 0.34082 0.17543 0.52335 0.0
C594 C 0.32197 0.16648 0.50111 0.0
C595 C 0.31405 0.1652 0.53059 0.0
C596 C 0.33736 0.17298 0.50644 0.0
C597 C 0.32956 0.17174 0.53543 0.0
C598 C 0.28383 0.12007 0.46864 0.0
C599 C 0.29933 0.11427 0.46412 0.0
C600 C 0.27271 0.12201 0.45589 0.0
C601 C 0.30354 0.11076 0.44687 0.0
C602 C 0.27739 0.11839 0.43879 0.0
N603 N 0.29259 0.1129 0.43467 0.0
C604 C 0.30614 0.10122 0.51881 0.0
C605 C 0.3247 0.12024 0.50584 0.0
C606 C 0.31875 0.0908 0.52261 0.0
N607 N 0.30933 0.11584 0.5109 0.0
C608 C 0.33768 0.11012 0.50925 0.0
C609 C 0.33484 0.09526 0.51794 0.0
H610 H 0.29378 0.09775 0.52241 0.0
H611 H 0.32691 0.13152 0.49902 0.0
C612 C 0.27382 0.17494 0.46587 0.0
N613 N 0.28433 0.16274 0.46944 0.0
C614 C 0.27701 0.18488 0.45227 0.0
C615 C 0.30176 0.16954 0.44618 0.0
C616 C 0.29807 0.15987 0.45986 0.0
C617 C 0.29122 0.18234 0.44227 0.0
H618 H 0.26307 0.17716 0.47377 0.0
H619 H 0.30631 0.1502 0.46294 0.0
O620 O 0.27259 0.12812 0.52345 0.0
O621 O 0.25916 0.15554 0.50159 0.0
O622 O 0.29509 0.156 0.50824 0.0
O623 O 0.27954 0.12371 0.48546 0.0
H624 H 0.25002 0.11228 0.54141 0.0
H625 H 0.29902 0.1341 0.54224 0.0
H626 H 0.25318 0.1056 0.57115 0.0
H627 H 0.3013 0.12725 0.57203 0.0
H628 H 0.21395 0.14893 0.46898 0.0
H629 H 0.23763 0.16503 0.52586 0.0
H630 H 0.24379 0.14806 0.47236 0.0
H631 H 0.20791 0.16569 0.52155 0.0
H632 H 0.24906 0.17014 0.5778 0.0
H633 H 0.28261 0.20909 0.5598 0.0
H634 H 0.22363 0.0826 0.47341 0.0
H635 H 0.20796 0.10771 0.52246 0.0
H636 H 0.31927 0.16459 0.48769 0.0
H637 H 0.30506 0.16266 0.54026 0.0
H638 H 0.34655 0.1761 0.49714 0.0
H639 H 0.33263 0.17396 0.54879 0.0
H640 H 0.30805 0.11259 0.47381 0.0
H641 H 0.26063 0.12635 0.45916 0.0
H642 H 0.31553 0.10636 0.44318 0.0
H643 H 0.26895 0.11995 0.42879 0.0
H644 H 0.31591 0.07958 0.52943 0.0
H645 H 0.34979 0.11384 0.50499 0.0
H646 H 0.26864 0.19476 0.44991 0.0
H647 H 0.31276 0.16697 0.43874 0.0
Li648 Li 0.38918 0.5078 0.79658 0.0
Li649 Li 0.36846 0.52373 0.78452 0.0
Li650 Li 0.36739 0.4918 0.77813 0.0
Li651 Li 0.38791 0.51055 0.76563 0.0
C652 C 0.35539 0.51423 0.81285 0.0
N653 N 0.33499 0.53246 0.83599 0.0
C654 C 0.3616 0.52309 0.82793 0.0
C655 C 0.33881 0.51471 0.80951 0.0
C656 C 0.35108 0.53219 0.83949 0.0
C657 C 0.3287 0.524 0.82137 0.0
C658 C 0.39398 0.54627 0.79068 0.0
C659 C 0.39239 0.57675 0.78665 0.0
N660 N 0.39718 0.58127 0.803 0.0
C661 C 0.39893 0.55123 0.80745 0.0
C662 C 0.39074 0.55913 0.78017 0.0
C663 C 0.40048 0.56899 0.81344 0.0
C664 C 0.41969 0.51059 0.8118 0.0
N665 N 0.40393 0.50544 0.8144 0.0
C666 C 0.41028 0.49664 0.84155 0.0
C667 C 0.39908 0.49838 0.82881 0.0
C668 C 0.42665 0.50209 0.83935 0.0
C669 C 0.43129 0.50907 0.82416 0.0
H670 H 0.42323 0.5159 0.80007 0.0
H671 H 0.38652 0.49409 0.83041 0.0
C672 C 0.34239 0.54437 0.77748 0.0
N673 N 0.35456 0.54345 0.78871 0.0
C674 C 0.33169 0.55804 0.77972 0.0
C675 C 0.34606 0.5696 0.80519 0.0
C676 C 0.35641 0.55562 0.80252 0.0
C677 C 0.3335 0.57094 0.7937 0.0
H678 H 0.34091 0.5344 0.76678 0.0
H679 H 0.3658 0.55444 0.81161 0.0
C680 C 0.39602 0.47409 0.78229 0.0
N681 N 0.40573 0.44363 0.79379 0.0
C682 C 0.40936 0.46553 0.77468 0.0
C683 C 0.38761 0.46717 0.79575 0.0
C684 C 0.41408 0.45014 0.78067 0.0
C685 C 0.39271 0.45176 0.80138 0.0
C686 C 0.36379 0.51094 0.74549 0.0
C687 C 0.36178 0.49594 0.73389 0.0
C688 C 0.36617 0.52728 0.73948 0.0
C689 C 0.36239 0.49752 0.71641 0.0
C690 C 0.36672 0.52831 0.7219 0.0
N691 N 0.36485 0.51354 0.71083 0.0
C692 C 0.3404 0.46814 0.78254 0.0
C693 C 0.36009 0.45784 0.76198 0.0
C694 C 0.33082 0.45277 0.77902 0.0
N695 N 0.35464 0.47046 0.77391 0.0
C696 C 0.35094 0.44222 0.75811 0.0
C697 C 0.336 0.43955 0.76658 0.0
H698 H 0.33641 0.47826 0.79208 0.0
H699 H 0.37153 0.45996 0.75539 0.0
C700 C 0.40825 0.5273 0.74222 0.0
N701 N 0.40115 0.5118 0.74568 0.0
C702 C 0.41803 0.52817 0.72765 0.0
C703 C 0.41314 0.49704 0.72055 0.0
C704 C 0.40341 0.49679 0.73525 0.0
C705 C 0.42062 0.51288 0.7166 0.0
H706 H 0.40642 0.53898 0.75083 0.0
H707 H 0.39762 0.48464 0.73835 0.0
O708 O 0.36554 0.50542 0.80128 0.0
O709 O 0.39253 0.52894 0.78456 0.0
O710 O 0.39134 0.48922 0.77659 0.0
O711 O 0.36372 0.50962 0.76265 0.0
H712 H 0.37443 0.52321 0.83058 0.0
H713 H 0.33385 0.50835 0.79771 0.0
H714 H 0.35574 0.53914 0.85119 0.0
H715 H 0.31588 0.52459 0.81888 0.0
H716 H 0.38981 0.58683 0.77868 0.0
H717 H 0.40139 0.5415 0.81583 0.0
H718 H 0.38679 0.55558 0.76721 0.0
H719 H 0.40423 0.573 0.8264 0.0
H720 H 0.40611 0.49128 0.85307 0.0
H721 H 0.4438 0.51312 0.82173 0.0
H722 H 0.32222 0.55861 0.7705 0.0
H723 H 0.34771 0.57909 0.8163 0.0
H724 H 0.416 0.47075 0.76425 0.0
H725 H 0.37726 0.47362 0.80181 0.0
H726 H 0.42439 0.44337 0.77491 0.0
H727 H 0.38633 0.44627 0.81179 0.0
H728 H 0.3599 0.48321 0.73832 0.0
H729 H 0.36773 0.53902 0.74828 0.0
H730 H 0.36095 0.48601 0.70728 0.0
H731 H 0.36867 0.54086 0.71707 0.0
H732 H 0.31933 0.45144 0.78576 0.0
H733 H 0.35559 0.43232 0.74865 0.0
H734 H 0.42376 0.54061 0.72524 0.0
H735 H 0.41468 0.48498 0.71232 0.0
Li736 Li 0.76887 0.39921 0.5208 0.0
Li737 Li 0.75715 0.37945 0.54064 0.0
Li738 Li 0.75289 0.37427 0.50875 0.0
Li739 Li 0.7394 0.39796 0.52579 0.0
C740 C 0.78989 0.375 0.52122 0.0
N741 N 0.82346 0.37791 0.52014 0.0
C742 C 0.79873 0.37546 0.53621 0.0
C743 C 0.79814 0.37587 0.50565 0.0
C744 C 0.81569 0.37695 0.53541 0.0
C745 C 0.8151 0.3774 0.50537 0.0
C746 C 0.7501 0.41218 0.55786 0.0
C747 C 0.73087 0.40985 0.58104 0.0
N748 N 0.73606 0.42598 0.58821 0.0
C749 C 0.75524 0.42872 0.56544 0.0
C750 C 0.73782 0.40265 0.5657 0.0
C751 C 0.74799 0.43547 0.5808 0.0
C752 C 0.79001 0.42023 0.50193 0.0
N753 N 0.78729 0.41447 0.51745 0.0
C754 C 0.81159 0.42956 0.52823 0.0
C755 C 0.7976 0.41909 0.53059 0.0
C756 C 0.81492 0.43539 0.5122 0.0
C757 C 0.80384 0.43069 0.49899 0.0
H758 H 0.78148 0.41668 0.49179 0.0
H759 H 0.79507 0.4144 0.54284 0.0
C760 C 0.7566 0.35052 0.55927 0.0
N761 N 0.76072 0.36788 0.56037 0.0
C762 C 0.75975 0.34088 0.57273 0.0
C763 C 0.77139 0.36716 0.58827 0.0
C764 C 0.76796 0.37632 0.5745 0.0
C765 C 0.7674 0.34913 0.58746 0.0
H766 H 0.75102 0.34411 0.54779 0.0
H767 H 0.77142 0.39007 0.57491 0.0
C768 C 0.74775 0.39653 0.48685 0.0
N769 N 0.74017 0.39094 0.45262 0.0
C770 C 0.73204 0.39922 0.48153 0.0
C771 C 0.75961 0.3911 0.47471 0.0
C772 C 0.72845 0.39631 0.46418 0.0
C773 C 0.75553 0.3883 0.45749 0.0
C774 C 0.72086 0.36703 0.52839 0.0
C775 C 0.71045 0.37012 0.51537 0.0
C776 C 0.7147 0.35874 0.5422 0.0
C777 C 0.69407 0.36472 0.51629 0.0
C778 C 0.69824 0.35352 0.54265 0.0
N779 N 0.68836 0.35659 0.52979 0.0
C780 C 0.76424 0.34555 0.48702 0.0
C781 C 0.7379 0.35348 0.48015 0.0
C782 C 0.7642 0.33246 0.47325 0.0
N783 N 0.7513 0.35589 0.49011 0.0
C784 C 0.73731 0.3405 0.4663 0.0
C785 C 0.75062 0.32984 0.46263 0.0
H786 H 0.77465 0.34748 0.49523 0.0
H787 H 0.72778 0.36182 0.48269 0.0
C788 C 0.72163 0.42691 0.52017 0.0
N789 N 0.72074 0.41228 0.52839 0.0
C790 C 0.70861 0.43802 0.52092 0.0
C791 C 0.69409 0.41914 0.53906 0.0
C792 C 0.70744 0.40843 0.53802 0.0
C793 C 0.69452 0.43412 0.53033 0.0
H794 H 0.73244 0.42985 0.51283 0.0
H795 H 0.70712 0.39706 0.54492 0.0
O796 O 0.77325 0.374 0.52181 0.0
O797 O 0.757 0.40549 0.54275 0.0
O798 O 0.75148 0.39917 0.50382 0.0
O799 O 0.73691 0.37237 0.52784 0.0
H800 H 0.79258 0.37482 0.54837 0.0
H801 H 0.79151 0.37555 0.49391 0.0
H802 H 0.82268 0.37741 0.54693 0.0
H803 H 0.82163 0.37821 0.49343 0.0
H804 H 0.72135 0.40262 0.58724 0.0
H805 H 0.76472 0.43625 0.55949 0.0
H806 H 0.73368 0.38984 0.56001 0.0
H807 H 0.75185 0.44826 0.58681 0.0
H808 H 0.81985 0.43278 0.53874 0.0
H809 H 0.80575 0.43517 0.48654 0.0
H810 H 0.75623 0.32708 0.57159 0.0
H811 H 0.77752 0.37404 0.59922 0.0
H812 H 0.72265 0.40334 0.49067 0.0
H813 H 0.77177 0.38879 0.47856 0.0
H814 H 0.71633 0.39826 0.45991 0.0
H815 H 0.76457 0.38396 0.448 0.0
H816 H 0.71487 0.37704 0.50493 0.0
H817 H 0.72252 0.35643 0.5525 0.0
H818 H 0.68588 0.36712 0.50634 0.0
H819 H 0.69332 0.34708 0.55325 0.0
H820 H 0.77463 0.32438 0.47102 0.0
H821 H 0.72668 0.33909 0.45832 0.0
H822 H 0.70947 0.44938 0.51394 0.0
H823 H 0.68362 0.41582 0.54676 0.0
Li824 Li 0.65153 1.00281 0.77199 0.0
Li825 Li 0.63101 0.0232 0.78657 0.0
Li826 Li 0.63198 0.0143 0.75452 0.0
Li827 Li 0.65262 0.03353 0.76797 0.0
C828 C 0.62581 0.98323 0.7789 0.0
N829 N 0.62377 0.95052 0.7903 0.0
C830 C 0.62162 0.98148 0.79591 0.0
C831 C 0.62883 0.96832 0.76766 0.0
C832 C 0.62067 0.96483 0.80143 0.0
C833 C 0.62779 0.95191 0.77368 0.0
C834 C 0.66832 0.03087 0.79674 0.0
C835 C 0.68168 0.0534 0.81588 0.0
N836 N 0.69636 0.04789 0.80975 0.0
C837 C 0.68353 0.02537 0.79068 0.0
C838 C 0.66736 0.04495 0.80947 0.0
C839 C 0.69756 0.03417 0.7974 0.0
C840 C 0.67388 0.9762 0.76262 0.0
N841 N 0.66443 0.98352 0.77558 0.0
C842 C 0.67406 0.96405 0.79439 0.0
C843 C 0.66446 0.97786 0.79131 0.0
C844 C 0.68385 0.9561 0.78119 0.0
C845 C 0.68367 0.96237 0.76513 0.0
H846 H 0.67405 0.98127 0.7504 0.0
H847 H 0.65706 0.98413 0.80149 0.0
C848 C 0.6016 0.03161 0.80376 0.0
N849 N 0.61746 0.02846 0.80614 0.0
C850 C 0.59123 0.03547 0.81778 0.0
C851 C 0.61366 0.0326 0.83643 0.0
C852 C 0.62361 0.02883 0.82204 0.0
C853 C 0.59721 0.036 0.83441 0.0
H854 H 0.59703 0.03111 0.79094 0.0
H855 H 0.63624 0.02609 0.82355 0.0
C856 C 0.65571 0.0095 0.73326 0.0
N857 N 0.65418 1.00177 0.69823 0.0
C858 C 0.65861 0.02269 0.7226 0.0
C859 C 0.65206 0.99238 0.72608 0.0
C860 C 0.6578 0.01851 0.70493 0.0
C861 C 0.65131 0.98874 0.70835 0.0
C862 C 0.62846 0.05529 0.76623 0.0
C863 C 0.63388 0.06211 0.75132 0.0
C864 C 0.62263 0.06653 0.77993 0.0
C865 C 0.6335 0.0801 0.75041 0.0
C866 C 0.62242 0.08444 0.77851 0.0
N867 N 0.62782 0.0908 0.7639 0.0
C868 C 0.60875 0.99345 0.73431 0.0
C869 C 0.61742 0.01943 0.7227 0.0
C870 C 0.59859 0.98856 0.72044 0.0
N871 N 0.61799 0.0086 0.73516 0.0
C872 C 0.60752 0.01499 0.70853 0.0
C873 C 0.59791 0.99936 0.70726 0.0
H874 H 0.60924 0.98513 0.74442 0.0
H875 H 0.62471 0.03148 0.72366 0.0
C876 C 0.68124 0.05058 0.75613 0.0
N877 N 0.66799 0.05304 0.76656 0.0
C878 C 0.69318 0.06394 0.75533 0.0
C879 C 0.67796 0.08202 0.7764 0.0
C880 C 0.66631 0.06831 0.77679 0.0
C881 C 0.69164 0.07997 0.76553 0.0
H882 H 0.68267 0.03811 0.74862 0.0
H883 H 0.65611 0.06974 0.78557 0.0
O884 O 0.62709 0.99946 0.77333 0.0
O885 O 0.65446 0.02275 0.78995 0.0
O886 O 0.65615 0.01337 0.75063 0.0
O887 O 0.62876 0.03772 0.76742 0.0
H888 H 0.61923 0.99283 0.80479 0.0
H889 H 0.63213 0.96941 0.75448 0.0
H890 H 0.61751 0.9633 0.81457 0.0
H891 H 0.63021 0.94029 0.76515 0.0
H892 H 0.68113 0.06439 0.82566 0.0
H893 H 0.68447 0.01459 0.78071 0.0
H894 H 0.65568 0.04949 0.81416 0.0
H895 H 0.70941 0.03014 0.79276 0.0
H896 H 0.67374 0.95959 0.80694 0.0
H897 H 0.69128 0.95693 0.75469 0.0
H898 H 0.57859 0.03773 0.81559 0.0
H899 H 0.61883 0.03298 0.84899 0.0
H900 H 0.66124 0.03606 0.72787 0.0
H901 H 0.64959 0.98204 0.7341 0.0
H902 H 0.65994 0.0286 0.69654 0.0
H903 H 0.6484 0.97557 0.70264 0.0
H904 H 0.63863 0.05366 0.74069 0.0
H905 H 0.61845 0.06151 0.7916 0.0
H906 H 0.63778 0.08556 0.73899 0.0
H907 H 0.61799 0.0933 0.78903 0.0
H908 H 0.59149 0.97635 0.71996 0.0
H909 H 0.60721 0.02384 0.6988 0.0
H910 H 0.70347 0.06174 0.74672 0.0
H911 H 0.67643 0.09396 0.78481 0.0
Li912 Li 0.01678 0.24017 0.89532 0.0
Li913 Li 1.00062 0.25227 0.92017 0.0
Li914 Li 1.0046 0.21974 0.91482 0.0
Li915 Li 0.98625 0.23468 0.89732 0.0
C916 C 0.03687 0.23805 0.92412 0.0
N917 N 0.06896 0.23531 0.93273 0.0
C918 C 0.04523 0.25213 0.93332 0.0
C919 C 0.04477 0.22249 0.91957 0.0
C920 C 0.06148 0.25053 0.93747 0.0
C921 C 0.061 0.22137 0.92397 0.0
C922 C 0.99787 0.27475 0.8972 0.0
C923 C 0.98274 0.30058 0.90523 0.0
N924 N 0.99569 0.31067 0.90059 0.0
C925 C 0.01098 0.28537 0.89238 0.0
C926 C 0.98358 0.28238 0.90355 0.0
C927 C 0.00965 0.30351 0.89423 0.0
C928 C 0.03441 0.23742 0.86402 0.0
N929 N 0.03484 0.24453 0.88058 0.0
C930 C 0.0612 0.25773 0.87618 0.0
C931 C 0.04777 0.25475 0.88672 0.0
C932 C 0.06127 0.25027 0.85909 0.0
C933 C 0.04758 0.24008 0.85301 0.0
H934 H 0.02387 0.22956 0.85938 0.0
H935 H 0.04761 0.26075 0.89975 0.0
C936 C 0.98798 0.27246 0.94966 0.0
N937 N 0.99977 0.27191 0.93732 0.0
C938 C 0.98722 0.28693 0.96202 0.0
C939 C 0.01077 0.29995 0.94879 0.0
C940 C 0.01114 0.2852 0.93679 0.0
C941 C 0.99868 0.30102 0.96166 0.0
H942 H 0.97917 0.26165 0.94991 0.0
H943 H 0.02044 0.28442 0.9269 0.0
C944 C 0.00795 0.20256 0.88088 0.0
N945 N 0.01698 0.17119 0.86351 0.0
C946 C 0.99617 0.19064 0.87341 0.0
C947 C 0.02436 0.19862 0.87924 0.0
C948 C 1.00096 0.17482 0.86476 0.0
C949 C 0.02867 0.18268 0.87049 0.0
C950 C 0.96866 0.22734 0.92436 0.0
C951 C 0.96431 0.20981 0.92582 0.0
C952 C 0.9566 0.23959 0.92474 0.0
C953 C 0.94789 0.20479 0.92745 0.0
C954 C 0.94031 0.23404 0.92635 0.0
N955 N 0.93633 0.2169 0.92765 0.0
C956 C 0.01556 0.20201 0.94135 0.0
C957 C 1.00505 0.18281 0.91824 0.0
C958 C 0.01969 0.18787 0.94983 0.0
N959 N 0.0086 0.19928 0.92573 0.0
C960 C 0.00898 0.16828 0.92627 0.0
C961 C 0.01654 0.17068 0.94224 0.0
H962 H 0.01806 0.21523 0.94715 0.0
H963 H 0.99921 0.18089 0.90602 0.0
C964 C 0.96265 0.24576 0.87569 0.0
N965 N 0.96666 0.23215 0.88416 0.0
C966 C 0.94875 0.24454 0.86566 0.0
C967 C 0.94334 0.21522 0.87308 0.0
C968 C 0.95732 0.21705 0.88304 0.0
C969 C 0.9389 0.22909 0.86419 0.0
H970 H 0.97036 0.25753 0.87652 0.0
H971 H 0.96075 0.20636 0.88981 0.0
O972 O 0.02095 0.23944 0.91995 0.0
O973 O 0.99904 0.25698 0.89572 0.0
O974 O 1.00343 0.21811 0.8894 0.0
O975 O 0.98465 0.23247 0.92257 0.0
H976 H 0.03929 0.26421 0.93717 0.0
H977 H 0.03839 0.21128 0.91293 0.0
H978 H 0.06812 0.26137 0.94448 0.0
H979 H 0.06725 0.2094 0.9205 0.0
H980 H 0.9718 0.30667 0.91025 0.0
H981 H 0.0221 0.27967 0.88736 0.0
H982 H 0.97331 0.27435 0.90728 0.0
H983 H 0.01974 0.31189 0.89064 0.0
H984 H 0.07132 0.266 0.88131 0.0
H985 H 0.04713 0.23401 0.83996 0.0
H986 H 0.97782 0.287 0.97182 0.0
H987 H 0.01971 0.31054 0.94776 0.0
H988 H 0.98344 0.19351 0.87435 0.0
H989 H 0.0337 0.20786 0.88446 0.0
H990 H 0.99195 0.16544 0.85903 0.0
H991 H 0.04133 0.17947 0.86917 0.0
H992 H 0.97351 0.20018 0.92558 0.0
H993 H 0.95977 0.25322 0.92371 0.0
H994 H 0.94434 0.19125 0.92851 0.0
H995 H 0.93084 0.24335 0.92656 0.0
H996 H 0.02516 0.19041 0.96228 0.0
H997 H 0.00636 0.1553 0.91988 0.0
H998 H 0.94597 0.25546 0.85883 0.0
H999 H 0.93605 0.20312 0.87243 0.0
Li1000 Li 0.51602 0.7391 0.3963 0.0
Li1001 Li 0.50015 0.75224 0.42113 0.0
Li1002 Li 0.50394 0.72013 0.41657 0.0
Li1003 Li 0.48607 0.73376 0.39815 0.0
C1004 C 0.53596 0.74024 0.42641 0.0
N1005 N 0.56767 0.74191 0.43753 0.0
C1006 C 0.54262 0.75579 0.43483 0.0
C1007 C 0.54536 0.72547 0.42388 0.0
C1008 C 0.55869 0.7564 0.44028 0.0
C1009 C 0.56138 0.72659 0.42954 0.0
C1010 C 0.48815 0.76924 0.39458 0.0
C1011 C 0.46401 0.7848 0.40306 0.0
N1012 N 0.46672 0.79489 0.3901 0.0
C1013 C 0.4907 0.77974 0.38135 0.0
C1014 C 0.47471 0.77176 0.40554 0.0
C1015 C 0.47972 0.79265 0.3793 0.0
C1016 C 0.53335 0.73586 0.36486 0.0
N1017 N 0.53402 0.74308 0.38138 0.0
C1018 C 0.56044 0.7559 0.37656 0.0
C1019 C 0.5471 0.75318 0.38727 0.0
C1020 C 0.56023 0.74848 0.35944 0.0
C1021 C 0.54636 0.73841 0.35362 0.0
H1022 H 0.52266 0.72814 0.36041 0.0
H1023 H 0.54721 0.75918 0.40029 0.0
C1024 C 0.49176 0.77206 0.45262 0.0
N1025 N 0.49959 0.77253 0.43733 0.0
C1026 C 0.49156 0.78706 0.46439 0.0
C1027 C 0.50757 0.80265 0.44447 0.0
C1028 C 0.50739 0.7874 0.43308 0.0
C1029 C 0.49958 0.80263 0.46039 0.0
H1030 H 0.48572 0.76002 0.45568 0.0
H1031 H 0.5135 0.78738 0.42081 0.0
C1032 C 0.50863 0.70148 0.38363 0.0
N1033 N 0.51985 0.6701 0.36846 0.0
C1034 C 0.4978 0.68884 0.37557 0.0
C1035 C 0.52519 0.69826 0.38374 0.0
C1036 C 0.5037 0.67302 0.36804 0.0
C1037 C 0.53062 0.68229 0.37606 0.0
C1038 C 0.47141 0.72085 0.42689 0.0
C1039 C 0.46883 0.70549 0.4159 0.0
C1040 C 0.46159 0.72397 0.44146 0.0
C1041 C 0.45647 0.69346 0.41969 0.0
C1042 C 0.44934 0.71161 0.44482 0.0
N1043 N 0.44706 0.69674 0.43396 0.0
C1044 C 0.51532 0.70369 0.44371 0.0
C1045 C 0.5042 0.68352 0.42167 0.0
C1046 C 0.51973 0.69004 0.45271 0.0
N1047 N 0.50797 0.70024 0.42835 0.0
C1048 C 0.5083 0.66945 0.43031 0.0
C1049 C 0.51637 0.67261 0.44596 0.0
H1050 H 0.51796 0.71709 0.44889 0.0
H1051 H 0.4981 0.68103 0.40961 0.0
C1052 C 0.4688 0.72532 0.36771 0.0
N1053 N 0.46691 0.73094 0.38456 0.0
C1054 C 0.4554 0.72344 0.35696 0.0
C1055 C 0.43831 0.73325 0.38107 0.0
C1056 C 0.45204 0.73486 0.39138 0.0
C1057 C 0.43988 0.7275 0.36357 0.0
H1058 H 0.4808 0.72245 0.3626 0.0
H1059 H 0.45085 0.73936 0.40481 0.0
O1060 O 0.52021 0.73945 0.42104 0.0
O1061 O 0.49875 0.75649 0.39667 0.0
O1062 O 0.50302 0.71701 0.3911 0.0
O1063 O 0.48343 0.73286 0.42345 0.0
H1064 H 0.53549 0.76731 0.43703 0.0
H1065 H 0.54032 0.7132 0.41781 0.0
H1066 H 0.56403 0.76838 0.44671 0.0
H1067 H 0.56879 0.71527 0.42764 0.0
H1068 H 0.45355 0.78689 0.41144 0.0
H1069 H 0.50105 0.77792 0.37275 0.0
H1070 H 0.47251 0.76372 0.41583 0.0
H1071 H 0.48154 0.80089 0.36911 0.0
H1072 H 0.57087 0.76361 0.38175 0.0
H1073 H 0.54544 0.73271 0.34048 0.0
H1074 H 0.48537 0.78642 0.47656 0.0
H1075 H 0.51369 0.8144 0.44074 0.0
H1076 H 0.48495 0.69118 0.37521 0.0
H1077 H 0.53378 0.70805 0.38952 0.0
H1078 H 0.49544 0.66308 0.36185 0.0
H1079 H 0.5434 0.67962 0.37609 0.0
H1080 H 0.47623 0.70291 0.40453 0.0
H1081 H 0.4634 0.73583 0.45008 0.0
H1082 H 0.45435 0.68151 0.41128 0.0
H1083 H 0.44165 0.71386 0.45606 0.0
H1084 H 0.52562 0.69312 0.4649 0.0
H1085 H 0.50547 0.65623 0.42462 0.0
H1086 H 0.45726 0.71922 0.34352 0.0
H1087 H 0.42657 0.73637 0.38676 0.0
Li1088 Li 0.01813 0.80401 0.63205 0.0
Li1089 Li 0.99985 0.78908 0.65327 0.0
Li1090 Li 0.02847 0.7845 0.65159 0.0
Li1091 Li 0.01091 0.77172 0.62867 0.0
C1092 C 0.02754 0.81738 0.66895 0.0
N1093 N 0.04691 0.83803 0.69207 0.0
C1094 C 0.02807 0.81375 0.6859 0.0
C1095 C 0.03685 0.83154 0.66377 0.0
C1096 C 0.03796 0.82433 0.69739 0.0
C1097 C 0.04656 0.84182 0.67564 0.0
C1098 C 0.98754 0.78624 0.61426 0.0
C1099 C 0.96659 0.76782 0.59965 0.0
N1100 N 0.97122 0.77406 0.58474 0.0
C1101 C 0.99204 0.79255 0.59883 0.0
C1102 C 0.97466 0.77385 0.61472 0.0
C1103 C 0.98365 0.78621 0.58403 0.0
C1104 C 0.03437 0.82217 0.60731 0.0
N1105 N 0.02275 0.82381 0.61981 0.0
C1106 C 0.0185 0.8532 0.61426 0.0
C1107 C 0.01473 0.83889 0.62336 0.0
C1108 C 0.03068 0.85197 0.60147 0.0
C1109 C 0.03861 0.83616 0.59803 0.0
H1110 H 0.04032 0.80994 0.60448 0.0
H1111 H 1.00549 0.83981 0.63332 0.0
C1112 C 0.98372 0.79107 0.68554 0.0
N1113 N 0.98133 0.79186 0.66863 0.0
C1114 C 0.97057 0.79116 0.69698 0.0
C1115 C 0.95266 0.79406 0.67368 0.0
C1116 C 0.96618 0.79355 0.66258 0.0
C1117 C 0.95478 0.79253 0.69108 0.0
H1118 H 0.9958 0.78982 0.69012 0.0
H1119 H 0.96456 0.79422 0.6491 0.0
C1120 C 0.04798 0.77955 0.62496 0.0
N1121 N 0.07994 0.76995 0.6234 0.0
C1122 C 0.05161 0.7619 0.62192 0.0
C1123 C 0.06059 0.79232 0.62717 0.0
C1124 C 0.06786 0.75732 0.62118 0.0
C1125 C 0.07667 0.7872 0.62634 0.0
C1126 C 1.00179 0.7582 0.66418 0.0
C1127 C 0.00792 0.75696 0.6804 0.0
C1128 C 0.98616 0.75132 0.66016 0.0
C1129 C 0.99832 0.74884 0.69229 0.0
C1130 C 0.97693 0.74335 0.67242 0.0
N1131 N 0.98315 0.74227 0.68809 0.0
C1132 C 0.05923 0.79161 0.66916 0.0
C1133 C 0.0491 0.76221 0.66571 0.0
C1134 C 0.07269 0.78694 0.67788 0.0
N1135 N 0.04752 0.77936 0.66369 0.0
C1136 C 0.06243 0.75692 0.67418 0.0
C1137 C 0.07437 0.76938 0.68065 0.0
H1138 H 0.0583 0.805 0.66665 0.0
H1139 H 0.04001 0.75257 0.66061 0.0
C1140 C 0.013 0.75424 0.59532 0.0
N1141 N 0.00801 0.75223 0.61155 0.0
C1142 C 0.01192 0.74013 0.58255 0.0
C1143 C 1.00063 0.72212 0.60344 0.0
C1144 C 1.00197 0.73656 0.6158 0.0
C1145 C 1.00574 0.72373 0.58654 0.0
H1146 H 0.01809 0.76676 0.59236 0.0
H1147 H 0.99843 0.73514 0.62883 0.0
O1148 O 0.01778 0.80735 0.65753 0.0
O1149 O 0.9959 0.79193 0.62878 0.0
O1150 O 0.03216 0.78425 0.62625 0.0
O1151 O 0.01092 0.76631 0.65242 0.0
H1152 H 0.0212 0.80271 0.69009 0.0
H1153 H 0.03667 0.83453 0.65071 0.0
H1154 H 0.03855 0.82161 0.71052 0.0
H1155 H 0.05385 0.85279 0.67179 0.0
H1156 H 0.95666 0.75815 0.59979 0.0
H1157 H 1.00201 0.8021 0.59823 0.0
H1158 H 0.97101 0.76884 0.62655 0.0
H1159 H 0.98706 0.7909 0.57198 0.0
H1160 H 0.01213 0.86518 0.61736 0.0
H1161 H 0.04782 0.8345 0.58806 0.0
H1162 H 0.97273 0.79015 0.71034 0.0
H1163 H 0.94065 0.79514 0.66865 0.0
H1164 H 0.04198 0.75185 0.62034 0.0
H1165 H 0.05797 0.80602 0.62979 0.0
H1166 H 0.07085 0.74371 0.61892 0.0
H1167 H 0.08655 0.79693 0.62814 0.0
H1168 H 0.01983 0.76251 0.68393 0.0
H1169 H 0.9811 0.75237 0.6478 0.0
H1170 H 1.00289 0.74788 0.7049 0.0
H1171 H 0.96478 0.73808 0.6695 0.0
H1172 H 0.08156 0.79704 0.68256 0.0
H1173 H 0.06341 0.74316 0.6755 0.0
H1174 H 0.01625 0.74195 0.56979 0.0
H1175 H 0.99562 0.70982 0.60711 0.0
Li1176 Li 0.51639 0.30314 0.13118 0.0
Li1177 Li 0.49909 0.28766 0.15167 0.0
Li1178 Li 0.52798 0.28226 0.14955 0.0
Li1179 Li 0.50871 0.27155 0.12628 0.0
C1180 C 0.52924 0.31757 0.16244 0.0
N1181 N 0.55245 0.34309 0.17357 0.0
C1182 C 0.52603 0.32957 0.17661 0.0
C1183 C 0.54427 0.3185 0.15397 0.0
C1184 C 0.53792 0.34239 0.18203 0.0
C1185 C 0.55584 0.33151 0.15978 0.0
C1186 C 0.4843 0.2873 0.11426 0.0
C1187 C 0.46345 0.26834 0.10007 0.0
N1188 N 0.46504 0.27738 0.08623 0.0
C1189 C 0.4856 0.29652 0.09997 0.0
C1190 C 0.47301 0.27321 0.1144 0.0
C1191 C 0.4758 0.29127 0.0859 0.0
C1192 C 0.52591 0.32062 0.10308 0.0
N1193 N 0.52147 0.32353 0.11981 0.0
C1194 C 0.52564 0.35445 0.11923 0.0
C1195 C 0.52113 0.34006 0.12795 0.0
C1196 C 0.53031 0.3518 0.10192 0.0
C1197 C 0.53033 0.33459 0.09384 0.0
H1198 H 0.52605 0.30736 0.09689 0.0
H1199 H 0.51744 0.34209 0.14123 0.0
C1200 C 0.48525 0.29196 0.18492 0.0
N1201 N 0.48153 0.28989 0.16807 0.0
C1202 C 0.47291 0.29208 0.19737 0.0
C1203 C 0.45309 0.28855 0.17494 0.0
C1204 C 0.46582 0.28839 0.16291 0.0
C1205 C 0.45655 0.29023 0.19245 0.0
H1206 H 0.49785 0.29316 0.18867 0.0
H1207 H 0.46316 0.28676 0.14946 0.0
C1208 C 0.54316 0.27737 0.11477 0.0
N1209 N 0.56888 0.2648 0.09467 0.0
C1210 C 0.54458 0.25935 0.11062 0.0
C1211 C 0.55488 0.28897 0.10875 0.0
C1212 C 0.55765 0.25326 0.10043 0.0
C1213 C 0.56778 0.28236 0.09861 0.0
C1214 C 0.50126 0.25652 0.16178 0.0
C1215 C 0.50793 0.25601 0.17787 0.0
C1216 C 0.48572 0.24904 0.15839 0.0
C1217 C 0.49882 0.24831 0.1904 0.0
C1218 C 0.47698 0.24149 0.17127 0.0
N1219 N 0.48365 0.2413 0.18688 0.0
C1220 C 0.54736 0.2837 0.17888 0.0
C1221 C 0.55895 0.26804 0.15441 0.0
C1222 C 0.56037 0.27996 0.1888 0.0
N1223 N 0.5468 0.2776 0.16203 0.0
C1224 C 0.57225 0.26414 0.16378 0.0
C1225 C 0.57303 0.26993 0.1813 0.0
H1226 H 0.53748 0.29113 0.18472 0.0
H1227 H 0.55831 0.26322 0.1411 0.0
C1228 C 0.50657 0.25617 0.09186 0.0
N1229 N 0.50488 0.25294 0.10843 0.0
C1230 C 0.50481 0.2425 0.0787 0.0
C1231 C 0.49984 0.22245 0.09992 0.0
C1232 C 0.50157 0.2365 0.11264 0.0
C1233 C 0.50154 0.22533 0.08268 0.0
H1234 H 0.50956 0.26932 0.08889 0.0
H1235 H 0.50061 0.23424 0.1259 0.0
O1236 O 0.51771 0.30495 0.15704 0.0
O1237 O 0.49398 0.29209 0.12807 0.0
O1238 O 0.53028 0.28365 0.12448 0.0
O1239 O 0.50983 0.26445 0.1495 0.0
H1240 H 0.51447 0.32897 0.18333 0.0
H1241 H 0.547 0.30928 0.14305 0.0
H1242 H 0.5356 0.35178 0.19297 0.0
H1243 H 0.56751 0.33239 0.15333 0.0
H1244 H 0.45478 0.25735 0.09995 0.0
H1245 H 0.49404 0.30763 0.09973 0.0
H1246 H 0.47178 0.26596 0.12534 0.0
H1247 H 0.47674 0.29824 0.07473 0.0
H1248 H 0.52529 0.36751 0.12589 0.0
H1249 H 0.53398 0.33193 0.08057 0.0
H1250 H 0.47615 0.29364 0.21071 0.0
H1251 H 0.44069 0.28695 0.17054 0.0
H1252 H 0.53588 0.25014 0.11548 0.0
H1253 H 0.55406 0.30294 0.11191 0.0
H1254 H 0.55891 0.23936 0.09716 0.0
H1255 H 0.57692 0.2912 0.09386 0.0
H1256 H 0.51995 0.2616 0.18071 0.0
H1257 H 0.48038 0.24922 0.14602 0.0
H1258 H 0.5038 0.24794 0.20294 0.0
H1259 H 0.46489 0.23582 0.16885 0.0
H1260 H 0.56026 0.28451 0.2023 0.0
H1261 H 0.58182 0.25664 0.15733 0.0
H1262 H 0.5064 0.24527 0.0656 0.0
H1263 H 0.49718 0.20945 0.10354 0.0
H1264 H 0.21971 0.71129 0.83247 0.0
H1265 H 0.22716 0.72559 0.86089 0.0
H1266 H 0.24878 0.76945 0.83777 0.0
H1267 H 0.24148 0.75502 0.80944 0.0
H1268 H 0.26617 0.75962 0.86683 0.0
H1269 H 0.20007 0.76847 0.87914 0.0
H1270 H 0.20607 0.7464 0.87331 0.0
H1271 H 0.20825 0.76207 0.85809 0.0
C1272 C 0.2265 0.72372 0.83353 0.0
C1273 C 0.22999 0.73219 0.81896 0.0
C1274 C 0.23062 0.73193 0.8497 0.0
C1275 C 0.23828 0.74869 0.85141 0.0
C1276 C 0.24284 0.75654 0.83672 0.0
H1277 H 0.23568 0.83529 0.92905 0.0
H1278 H 0.23389 0.81429 0.90349 0.0
C1279 C 0.23868 0.74836 0.8206 0.0
C1280 C 0.24004 0.7589 0.86839 0.0
H1281 H 0.21796 0.7805 0.90058 0.0
C1282 C 0.25566 0.76404 0.87434 0.0
C1283 C 0.22627 0.76486 0.87797 0.0
C1284 C 0.20919 0.76033 0.87182 0.0
C1285 C 0.25788 0.77514 0.88959 0.0
C1286 C 0.24409 0.78112 0.89912 0.0
C1287 C 0.22849 0.7758 0.89327 0.0
C1288 C 0.24551 0.79374 0.9147 0.0
C1289 C 0.27489 0.7809 0.89509 0.0
C1290 C 0.25252 0.78908 0.92953 0.0
C1291 C 0.25344 0.80103 0.94425 0.0
C1292 C 0.24731 0.81784 0.94441 0.0
C1293 C 0.24029 0.8224 0.92949 0.0
C1294 C 0.23935 0.81045 0.91482 0.0
H1295 H 0.28402 0.77776 0.88477 0.0
H1296 H 0.2757 0.7952 0.89909 0.0
H1297 H 0.27807 0.77413 0.90621 0.0
H1298 H 0.25708 0.77614 0.92978 0.0
H1299 H 0.25871 0.797 0.95558 0.0
H1300 H 0.009 0.55737 0.47196 0.0
H1301 H 0.0307 0.55721 0.45009 0.0
H1302 H 0.99495 0.56175 0.41174 0.0
H1303 H 0.97335 0.56178 0.43364 0.0
H1304 H 0.01421 0.53379 0.40385 0.0
H1305 H 0.05241 0.59384 0.42228 0.0
H1306 H 0.04856 0.58036 0.43923 0.0
H1307 H 0.03198 0.59069 0.43047 0.0
C1308 C 1.00594 0.55885 0.45893 0.0
C1309 C 0.98962 0.55953 0.45435 0.0
C1310 C 0.01829 0.55877 0.44645 0.0
C1311 C 0.01446 0.55955 0.42927 0.0
C1312 C 0.99818 0.56113 0.4249 0.0
H1313 H 0.07974 0.56406 0.34149 0.0
H1314 H 0.05992 0.57036 0.36468 0.0
C1315 C 0.98588 0.56117 0.43735 0.0
C1316 C 0.02707 0.55685 0.4156 0.0
H1317 H 0.06342 0.57297 0.401 0.0
C1318 C 0.02493 0.54241 0.40319 0.0
C1319 C 0.041 0.56815 0.4147 0.0
C1320 C 0.04361 0.58423 0.42728 0.0
C1321 C 0.03641 0.53884 0.39003 0.0
C1322 C 0.05058 0.54984 0.38939 0.0
C1323 C 0.05263 0.56445 0.40163 0.0
C1324 C 0.06324 0.54642 0.37593 0.0
C1325 C 0.03317 0.52344 0.37676 0.0
C1326 C 0.07187 0.53101 0.37474 0.0
C1327 C 0.08312 0.52731 0.36145 0.0
C1328 C 0.08601 0.53899 0.3491 0.0
C1329 C 0.07763 0.55465 0.35061 0.0
C1330 C 0.06639 0.55835 0.36393 0.0
H1331 H 0.02016 0.51896 0.37667 0.0
H1332 H 0.03672 0.52677 0.36382 0.0
H1333 H 0.04048 0.51238 0.37963 0.0
H1334 H 0.06976 0.52173 0.38399 0.0
H1335 H 0.08926 0.51509 0.36063 0.0
H1336 H 0.81144 0.76741 0.80754 0.0
H1337 H 0.8129 0.74535 0.82767 0.0
H1338 H 0.81608 0.78648 0.8695 0.0
H1339 H 0.81533 0.80839 0.84928 0.0
H1340 H 0.83435 0.75943 0.87526 0.0
H1341 H 0.77244 0.7349 0.85525 0.0
H1342 H 0.78743 0.73334 0.83838 0.0
H1343 H 0.7819 0.75449 0.84826 0.0
C1344 C 0.81307 0.77165 0.82096 0.0
C1345 C 0.81323 0.78951 0.82694 0.0
C1346 C 0.81362 0.75908 0.83249 0.0
C1347 C 0.81412 0.76423 0.85017 0.0
C1348 C 0.81555 0.78214 0.85597 0.0
H1349 H 0.77424 0.71007 0.93241 0.0
H1350 H 0.78051 0.72886 0.90998 0.0
C1351 C 0.81514 0.79465 0.84445 0.0
C1352 C 0.81186 0.75123 0.86276 0.0
H1353 H 0.78461 0.7208 0.87642 0.0
C1354 C 0.82353 0.75089 0.87545 0.0
C1355 C 0.79756 0.74034 0.86323 0.0
C1356 C 0.78403 0.74084 0.85067 0.0
C1357 C 0.82126 0.74008 0.88865 0.0
C1358 C 0.80709 0.72898 0.88894 0.0
C1359 C 0.79552 0.7292 0.87614 0.0
C1360 C 0.80361 0.71761 0.9028 0.0
C1361 C 0.83378 0.7412 0.90249 0.0
C1362 C 0.81443 0.70489 0.90622 0.0
C1363 C 0.811 0.69429 0.91928 0.0
C1364 C 0.79655 0.69598 0.92909 0.0
C1365 C 0.78563 0.70857 0.92541 0.0
C1366 C 0.78913 0.71924 0.91244 0.0
H1367 H 0.84138 0.75353 0.90297 0.0
H1368 H 0.82791 0.74043 0.9152 0.0
H1369 H 0.84196 0.73012 0.89991 0.0
H1370 H 0.82551 0.70308 0.89874 0.0
H1371 H 0.81981 0.68489 0.9218 0.0
H1372 H 0.04542 0.98939 0.43327 0.0
H1373 H 0.02492 0.99253 0.41178 0.0
H1374 H 0.98832 0.99949 0.4516 0.0
H1375 H 0.00904 0.99722 0.47308 0.0
H1376 H 0.99792 0.97272 0.40376 0.0
H1377 H 0.98057 0.0404 0.42566 0.0
H1378 H 0.99831 0.03103 0.43341 0.0
H1379 H 0.97848 0.02605 0.44207 0.0
C1380 C 0.03305 0.9919 0.43737 0.0
C1381 C 0.02878 0.99323 0.45477 0.0
C1382 C 0.02133 0.99356 0.42513 0.0
C1383 C 1.00511 0.99655 0.43008 0.0
C1384 C 1.00081 0.99764 0.44748 0.0
H1385 H 0.91635 0.99575 0.37168 0.0
H1386 H 0.93635 0.99424 0.394 0.0
C1387 C 0.01257 0.99613 0.45972 0.0
C1388 C 0.99265 0.99791 0.41697 0.0
H1389 H 0.96377 0.02432 0.40464 0.0
C1390 C 0.99052 0.98405 0.40393 0.0
C1391 C 0.983 0.01272 0.41715 0.0
C1392 C 0.98529 0.02847 0.43022 0.0
C1393 C 0.9789 0.98451 0.39121 0.0
C1394 C 0.96917 0.99919 0.39156 0.0
C1395 C 0.97122 0.01304 0.40455 0.0
C1396 C 0.95707 1.00051 0.37821 0.0
C1397 C 0.97698 0.9693 0.3775 0.0
C1398 C 0.96215 1.00474 0.36207 0.0
C1399 C 0.95078 1.00585 0.34935 0.0
C1400 C 0.93407 1.00263 0.35251 0.0
C1401 C 0.92906 0.99851 0.36882 0.0
C1402 C 0.94046 0.99754 0.38158 0.0
H1403 H 0.98413 0.95802 0.38013 0.0
H1404 H 0.96397 0.96496 0.37629 0.0
H1405 H 0.98112 0.97351 0.36506 0.0
H1406 H 0.97493 0.00723 0.35932 0.0
H1407 H 0.95509 0.0094 0.33709 0.0
H1408 H 0.20286 0.28433 0.698 0.0
H1409 H 0.21372 0.27129 0.6705 0.0
H1410 H 0.257 0.25825 0.69543 0.0
H1411 H 0.24607 0.27144 0.72296 0.0
H1412 H 0.26259 0.26997 0.66208 0.0
H1413 H 0.21432 0.21728 0.66249 0.0
H1414 H 0.20695 0.23903 0.66446 0.0
H1415 H 0.21906 0.23235 0.6811 0.0
C1416 C 0.21479 0.27892 0.69746 0.0
C1417 C 0.22361 0.27865 0.71246 0.0
C1418 C 0.22097 0.27146 0.68184 0.0
C1419 C 0.23602 0.26351 0.68101 0.0
C1420 C 0.24533 0.26426 0.69583 0.0
H1421 H 0.26418 0.1814 0.60344 0.0
H1422 H 0.25838 0.1996 0.63008 0.0
C1423 C 0.23915 0.2718 0.71148 0.0
C1424 C 0.24135 0.2532 0.66502 0.0
H1425 H 0.23072 0.21724 0.63754 0.0
C1426 C 0.25567 0.25843 0.65668 0.0
C1427 C 0.23242 0.23798 0.6582 0.0
C1428 C 0.21741 0.23119 0.66707 0.0
C1429 C 0.26112 0.24899 0.64148 0.0
C1430 C 0.2519 0.23408 0.6344 0.0
C1431 C 0.23772 0.22875 0.64291 0.0
C1432 C 0.25673 0.22353 0.61832 0.0
C1433 C 0.27684 0.25486 0.63332 0.0
C1434 C 0.25781 0.23094 0.60282 0.0
C1435 C 0.2611 0.22054 0.58753 0.0
C1436 C 0.2632 0.20249 0.58744 0.0
C1437 C 0.26239 0.1952 0.60303 0.0
C1438 C 0.25916 0.2056 0.61828 0.0
H1439 H 0.28447 0.26351 0.64249 0.0
H1440 H 0.28395 0.24347 0.6282 0.0
H1441 H 0.27409 0.26234 0.62256 0.0
H1442 H 0.25562 0.24466 0.60248 0.0
H1443 H 0.26145 0.22651 0.57572 0.0
H1444 H 0.52512 0.55319 0.60384 0.0
H1445 H 0.50614 0.54873 0.62753 0.0
H1446 H 0.49223 0.4975 0.60294 0.0
H1447 H 0.51107 0.50217 0.57909 0.0
H1448 H 0.46571 0.518 0.61505 0.0
H1449 H 0.51212 0.51607 0.66482 0.0
H1450 H 0.51411 0.53492 0.65329 0.0
H1451 H 0.51705 0.51354 0.64229 0.0
C1452 C 0.51795 0.54103 0.60356 0.0
C1453 C 0.51947 0.52799 0.58978 0.0
C1454 C 0.50725 0.53842 0.6171 0.0
C1455 C 0.49795 0.52269 0.61708 0.0
C1456 C 0.49937 0.50969 0.60322 0.0
H1457 H 0.44343 0.48962 0.70455 0.0
H1458 H 0.46156 0.49102 0.67971 0.0
C1459 C 0.51012 0.5123 0.5897 0.0
C1460 C 0.48651 0.51998 0.63137 0.0
H1461 H 0.48461 0.51794 0.67439 0.0
C1462 C 0.46982 0.51789 0.62801 0.0
C1463 C 0.49195 0.51963 0.64822 0.0
C1464 C 0.5098 0.521 0.65241 0.0
C1465 C 0.45837 0.51591 0.64117 0.0
C1466 C 0.46378 0.51622 0.65812 0.0
C1467 C 0.4805 0.51786 0.66139 0.0
C1468 C 0.45229 0.51503 0.67268 0.0
C1469 C 0.44061 0.51337 0.63681 0.0
C1470 C 0.44112 0.52811 0.67698 0.0
C1471 C 0.43072 0.52732 0.69112 0.0
C1472 C 0.43132 0.51345 0.70126 0.0
C1473 C 0.4425 0.50033 0.69686 0.0
C1474 C 0.45293 0.50117 0.68275 0.0
H1475 H 0.43888 0.50894 0.62305 0.0
H1476 H 0.43445 0.50366 0.64445 0.0
H1477 H 0.43461 0.52599 0.63979 0.0
H1478 H 0.44061 0.53907 0.66954 0.0
H1479 H 0.42217 0.53756 0.69409 0.0
H1480 H 0.80504 0.23541 0.68597 0.0
H1481 H 0.79956 0.25448 0.66395 0.0
H1482 H 0.79211 0.29729 0.70312 0.0
H1483 H 0.79778 0.27817 0.72508 0.0
H1484 H 0.77148 0.27109 0.65969 0.0
H1485 H 0.82292 0.31992 0.67035 0.0
H1486 H 0.82231 0.29928 0.67923 0.0
H1487 H 0.81084 0.3171 0.68912 0.0
C1488 C 0.80235 0.24894 0.68977 0.0
C1489 C 0.80185 0.25542 0.70711 0.0
C1490 C 0.79924 0.25981 0.67725 0.0
C1491 C 0.79562 0.27739 0.68186 0.0
C1492 C 0.79524 0.28391 0.69922 0.0
H1493 H 0.76561 0.35905 0.62202 0.0
H1494 H 0.77233 0.34195 0.64515 0.0
C1495 C 0.79842 0.27302 0.71175 0.0
C1496 C 0.79147 0.28855 0.66849 0.0
H1497 H 0.80261 0.32619 0.65122 0.0
C1498 C 0.77833 0.28311 0.65781 0.0
C1499 C 0.80036 0.30427 0.66609 0.0
C1500 C 0.81499 0.31045 0.67669 0.0
C1501 C 0.77379 0.29298 0.64488 0.0
C1502 C 0.78274 0.30862 0.6424 0.0
C1503 C 0.79576 0.3142 0.65318 0.0
C1504 C 0.77898 0.31911 0.6284 0.0
C1505 C 0.7593 0.28671 0.63409 0.0
C1506 C 0.78076 0.31204 0.61133 0.0
C1507 C 0.77705 0.32179 0.59809 0.0
C1508 C 0.7715 0.33887 0.60164 0.0
C1509 C 0.76997 0.34601 0.6188 0.0
C1510 C 0.77374 0.33624 0.63204 0.0
H1511 H 0.75142 0.27704 0.64023 0.0
H1512 H 0.75188 0.29784 0.63162 0.0
H1513 H 0.76362 0.2803 0.62162 0.0
H1514 H 0.78511 0.29898 0.60823 0.0
H1515 H 0.77875 0.316 0.58506 0.0
H1516 H 0.47888 0.96935 0.60611 0.0
H1517 H 0.50039 0.9701 0.62738 0.0
H1518 H 0.53661 0.97683 0.58812 0.0
H1519 H 0.51499 0.97627 0.56691 0.0
H1520 H 0.52989 0.95024 0.62908 0.0
H1521 H 0.54217 0.02112 0.62377 0.0
H1522 H 0.52388 0.00953 0.61572 0.0
H1523 H 0.54277 1.00673 0.6042 0.0
C1524 C 0.49147 0.97072 0.60207 0.0
C1525 C 0.49539 0.97292 0.58502 0.0
C1526 C 0.50372 0.97112 0.61415 0.0
C1527 C 0.52006 0.97381 0.60937 0.0
C1528 C 0.52405 0.97496 0.59211 0.0
H1529 H 0.60465 1.00215 0.67346 0.0
H1530 H 0.58662 0.99466 0.64918 0.0
C1531 C 0.51178 0.97449 0.58001 0.0
C1532 C 0.53271 0.97665 0.62265 0.0
H1533 H 0.55794 0.00828 0.64312 0.0
C1534 C 0.53611 0.96289 0.63212 0.0
C1535 C 0.54077 0.99318 0.62658 0.0
C1536 C 0.53719 0.00857 0.61716 0.0
C1537 C 0.54741 0.96521 0.6454 0.0
C1538 C 0.55521 0.98186 0.6496 0.0
C1539 C 0.55198 0.99553 0.63992 0.0
C1540 C 0.56638 0.98563 0.66428 0.0
C1541 C 0.55102 0.94973 0.65467 0.0
C1542 C 0.56098 0.98322 0.68089 0.0
C1543 C 0.57126 0.98748 0.69479 0.0
C1544 C 0.58711 0.99447 0.69241 0.0
C1545 C 0.59247 0.99695 0.67576 0.0
C1546 C 0.58221 0.99259 0.66186 0.0
H1547 H 0.54818 0.93717 0.64671 0.0
H1548 H 0.56398 0.95009 0.65838 0.0
H1549 H 0.54336 0.95 0.66642 0.0
H1550 H 0.54867 0.97836 0.68318 0.0
H1551 H 0.56664 0.9857 0.70746 0.0
H1552 H 0.81937 0.25419 0.77078 0.0
H1553 H 0.83935 0.25076 0.79271 0.0
H1554 H 0.84926 0.19939 0.76802 0.0
H1555 H 0.8297 0.20318 0.74572 0.0
H1556 H 0.84283 0.22691 0.81582 0.0
H1557 H 0.89401 0.22389 0.76874 0.0
H1558 H 0.87402 0.23022 0.76359 0.0
H1559 H 0.87803 0.20752 0.7641 0.0
C1560 C 0.82581 0.24217 0.77014 0.0
C1561 C 0.82322 0.22904 0.75651 0.0
C1562 C 0.83715 0.24017 0.78267 0.0
C1563 C 0.84609 0.22497 0.78181 0.0
C1564 C 0.8428 0.2114 0.76873 0.0
H1565 H 0.92868 0.20087 0.84208 0.0
H1566 H 0.90538 0.19861 0.82299 0.0
C1567 C 0.8315 0.21345 0.75613 0.0
C1568 C 0.85926 0.22377 0.79422 0.0
H1569 H 0.90035 0.22047 0.79717 0.0
C1570 C 0.8554 0.22544 0.81174 0.0
C1571 C 0.87569 0.22192 0.7889 0.0
C1572 C 0.88077 0.22094 0.77033 0.0
C1573 C 0.8675 0.22531 0.82406 0.0
C1574 C 0.88392 0.22366 0.81873 0.0
C1575 C 0.88775 0.22167 0.80122 0.0
C1576 C 0.89742 0.22467 0.83107 0.0
C1577 C 0.86261 0.22684 0.84268 0.0
C1578 C 0.90072 0.24009 0.84192 0.0
C1579 C 0.91401 0.24143 0.85284 0.0
C1580 C 0.92432 0.22737 0.85312 0.0
C1581 C 0.92087 0.21186 0.84235 0.0
C1582 C 0.90762 0.21057 0.83137 0.0
H1583 H 0.8495 0.22334 0.84446 0.0
H1584 H 0.86988 0.2183 0.84976 0.0
H1585 H 0.86485 0.24056 0.84836 0.0
H1586 H 0.89318 0.25124 0.84171 0.0
H1587 H 0.91624 0.25351 0.86105 0.0
H1588 H 0.4784 0.93635 0.57172 0.0
H1589 H 0.48524 0.90762 0.55714 0.0
H1590 H 0.5051 0.93268 0.51456 0.0
H1591 H 0.49818 0.96128 0.5292 0.0
H1592 H 0.48068 0.90755 0.50567 0.0
H1593 H 0.52692 0.88104 0.54494 0.0
H1594 H 0.50934 0.88909 0.55664 0.0
H1595 H 0.5228 0.90403 0.54665 0.0
C1596 C 0.48475 0.93565 0.55953 0.0
C1597 C 0.48776 0.95084 0.55148 0.0
C1598 C 0.48864 0.9193 0.55119 0.0
C1599 C 0.49571 0.918 0.53476 0.0
C1600 C 0.49965 0.93337 0.52722 0.0
H1601 H 0.52481 0.82636 0.46843 0.0
H1602 H 0.52407 0.854 0.48706 0.0
C1603 C 0.49575 0.94965 0.53555 0.0
C1604 C 0.49711 0.90071 0.52454 0.0
H1605 H 0.51458 0.86112 0.52314 0.0
C1606 C 0.48815 0.89743 0.50946 0.0
C1607 C 0.50689 0.88755 0.52948 0.0
C1608 C 0.51716 0.89059 0.54523 0.0
C1609 C 0.48857 0.88131 0.49929 0.0
C1610 C 0.49804 0.86799 0.50441 0.0
C1611 C 0.5072 0.87131 0.51935 0.0
C1612 C 0.49872 0.85068 0.49415 0.0
C1613 C 0.47902 0.87872 0.483 0.0
C1614 C 0.48478 0.83952 0.49221 0.0
C1615 C 0.48513 0.82376 0.48153 0.0
C1616 C 0.49945 0.81887 0.47256 0.0
C1617 C 0.51352 0.82987 0.47494 0.0
C1618 C 0.51317 0.84559 0.48568 0.0
H1619 H 0.47527 0.89133 0.47903 0.0
H1620 H 0.48625 0.87188 0.47246 0.0
H1621 H 0.46787 0.8705 0.48498 0.0
H1622 H 0.47354 0.84315 0.49876 0.0
H1623 H 0.47406 0.81566 0.47992 0.0
H1624 H 0.16729 0.28384 0.74326 0.0
H1625 H 0.14384 0.27775 0.76177 0.0
H1626 H 0.17639 0.26844 0.80167 0.0
H1627 H 0.1998 0.27443 0.78307 0.0
H1628 H 0.13586 0.24698 0.77762 0.0
H1629 H 0.14591 0.30515 0.82519 0.0
H1630 H 0.15562 0.30323 0.80438 0.0
H1631 H 0.16319 0.29179 0.82103 0.0
C1632 C 0.16935 0.28039 0.75596 0.0
C1633 C 0.18524 0.27963 0.76184 0.0
C1634 C 0.15601 0.27698 0.76651 0.0
C1635 C 0.15839 0.27289 0.78317 0.0
C1636 C 0.17429 0.27191 0.78899 0.0
H1637 H 0.09355 0.25015 0.86677 0.0
H1638 H 0.11699 0.25516 0.84812 0.0
C1639 C 0.18762 0.27529 0.77841 0.0
C1640 C 0.14421 0.26945 0.79437 0.0
H1641 H 0.1253 0.28441 0.83174 0.0
C1642 C 0.1335 0.25518 0.78943 0.0
C1643 C 0.14121 0.28016 0.80978 0.0
C1644 C 0.15199 0.29604 0.81539 0.0
C1645 C 0.11998 0.25116 0.79964 0.0
C1646 C 0.11693 0.26192 0.81501 0.0
C1647 C 0.12767 0.27617 0.81996 0.0
C1648 C 0.10264 0.25866 0.82616 0.0
C1649 C 0.10929 0.2352 0.79405 0.0
C1650 C 0.08679 0.25917 0.82006 0.0
C1651 C 0.07336 0.25635 0.8307 0.0
C1652 C 0.07553 0.25313 0.84771 0.0
C1653 C 0.09144 0.25278 0.8538 0.0
C1654 C 0.10485 0.25555 0.84314 0.0
H1655 H 0.11562 0.22589 0.78466 0.0
H1656 H 0.10528 0.22828 0.80513 0.0
H1657 H 0.09831 0.23931 0.78787 0.0
H1658 H 0.08479 0.26196 0.80713 0.0
H1659 H 0.06128 0.25702 0.8257 0.0
H1660 H 0.54161 0.53477 0.52065 0.0
H1661 H 0.54072 0.55609 0.49966 0.0
H1662 H 0.55198 0.59792 0.53929 0.0
H1663 H 0.55272 0.57658 0.56014 0.0
H1664 H 0.52279 0.60121 0.52268 0.0
H1665 H 0.57341 0.58837 0.47595 0.0
H1666 H 0.56114 0.56948 0.48047 0.0
H1667 H 0.5733 0.58116 0.497 0.0
C1668 C 0.54452 0.54846 0.52461 0.0
C1669 C 0.54725 0.55417 0.54187 0.0
C1670 C 0.54398 0.56062 0.51269 0.0
C1671 C 0.5463 0.57861 0.51791 0.0
C1672 C 0.55018 0.58412 0.53498 0.0
H1673 H 0.54498 0.66953 0.46227 0.0
H1674 H 0.55238 0.64608 0.47888 0.0
C1675 C 0.55068 0.57199 0.54684 0.0
C1676 C 0.54253 0.5918 0.50636 0.0
H1677 H 0.55375 0.60809 0.46908 0.0
C1678 C 0.52959 0.60273 0.51098 0.0
C1679 C 0.55142 0.59377 0.49112 0.0
C1680 C 0.56569 0.58269 0.48583 0.0
C1681 C 0.52526 0.61554 0.50077 0.0
C1682 C 0.53397 0.61736 0.4854 0.0
C1683 C 0.54701 0.60654 0.4808 0.0
C1684 C 0.52991 0.63082 0.47429 0.0
C1685 C 0.51154 0.62724 0.50665 0.0
C1686 C 0.51492 0.62986 0.46599 0.0
C1687 C 0.51061 0.64327 0.45656 0.0
C1688 C 0.52122 0.65791 0.45527 0.0
C1689 C 0.53642 0.65858 0.46324 0.0
C1690 C 0.54073 0.64513 0.47261 0.0
H1691 H 0.50832 0.62655 0.52032 0.0
H1692 H 0.51482 0.64105 0.50478 0.0
H1693 H 0.50061 0.62312 0.49898 0.0
H1694 H 0.50644 0.61886 0.46704 0.0
H1695 H 0.4988 0.64238 0.45066 0.0
H1696 H 0.84554 0.82025 0.8082 0.0
H1697 H 0.87014 0.8151 0.79058 0.0
H1698 H 0.8451 0.77163 0.76133 0.0
H1699 H 0.82031 0.77756 0.77848 0.0
H1700 H 0.89075 0.7903 0.78143 0.0
H1701 H 0.856 0.80225 0.72471 0.0
H1702 H 0.84756 0.80538 0.74602 0.0
H1703 H 0.84794 0.78379 0.7346 0.0
C1704 C 0.84558 0.80927 0.79835 0.0
C1705 C 0.83124 0.79915 0.79472 0.0
C1706 C 0.85954 0.80639 0.7882 0.0
C1707 C 0.85937 0.79328 0.77428 0.0
C1708 C 0.84542 0.78216 0.77165 0.0
H1709 H 0.9475 0.76862 0.71342 0.0
H1710 H 0.92448 0.76804 0.73349 0.0
C1711 C 0.83137 0.78528 0.78162 0.0
C1712 C 0.87328 0.79224 0.76186 0.0
H1713 H 0.88305 0.79378 0.71971 0.0
C1714 C 0.88907 0.79103 0.76793 0.0
C1715 C 0.87117 0.79366 0.74427 0.0
C1716 C 0.85479 0.79653 0.73702 0.0
C1717 C 0.90275 0.79114 0.75695 0.0
C1718 C 0.90057 0.79184 0.73925 0.0
C1719 C 0.88477 0.79306 0.73321 0.0
C1720 C 0.91445 0.79187 0.7268 0.0
C1721 C 0.9194 0.79116 0.76461 0.0
C1722 C 0.91616 0.80497 0.71571 0.0
C1723 C 0.92908 0.80504 0.7039 0.0
C1724 C 0.94067 0.79212 0.70307 0.0
C1725 C 0.93887 0.7789 0.71399 0.0
C1726 C 0.92578 0.77865 0.72557 0.0
H1727 H 0.91922 0.79618 0.77838 0.0
H1728 H 0.92356 0.77756 0.76351 0.0
H1729 H 0.92838 0.79929 0.75793 0.0
H1730 H 0.90757 0.81528 0.7163 0.0
H1731 H 0.93021 0.8154 0.69567 0.0
H1732 H 0.04103 0.9868 0.52037 0.0
H1733 H 0.04116 0.96591 0.54175 0.0
H1734 H 0.07357 0.93393 0.50941 0.0
H1735 H 0.07336 0.95497 0.48809 0.0
H1736 H 0.04412 0.91669 0.51848 0.0
H1737 H 0.07432 0.9512 0.57569 0.0
H1738 H 0.0592 0.96346 0.56672 0.0
H1739 H 0.07733 0.958 0.55461 0.0
C1740 C 0.04869 0.97566 0.51827 0.0
C1741 C 0.05745 0.97254 0.50289 0.0
C1742 C 0.04875 0.96373 0.5304 0.0
C1743 C 0.0575 0.94843 0.52725 0.0
C1744 C 0.06687 0.94573 0.51217 0.0
H1745 H 0.06106 0.86417 0.59262 0.0
H1746 H 0.06812 0.88767 0.57487 0.0
C1747 C 0.06689 0.95777 0.5001 0.0
C1748 C 0.05511 0.93431 0.53856 0.0
H1749 H 0.05869 0.92502 0.57968 0.0
C1750 C 0.04746 0.91845 0.53182 0.0
C1751 C 0.05946 0.93663 0.55595 0.0
C1752 C 0.06816 0.95318 0.56369 0.0
C1753 C 0.04366 0.90502 0.5421 0.0
C1754 C 0.04752 0.90756 0.55961 0.0
C1755 C 0.05559 0.9232 0.56628 0.0
C1756 C 0.04323 0.89401 0.5711 0.0
C1757 C 0.03552 0.88821 0.53417 0.0
C1758 C 0.0269 0.89 0.57509 0.0
C1759 C 0.02282 0.87661 0.58525 0.0
C1760 C 0.03501 0.86691 0.59153 0.0
C1761 C 0.05138 0.87124 0.58779 0.0
C1762 C 0.05545 0.88472 0.57775 0.0
H1763 H 0.0363 0.88695 0.52001 0.0
H1764 H 0.0411 0.87674 0.53873 0.0
H1765 H 0.02248 0.88789 0.53801 0.0
H1766 H 0.0173 0.89711 0.57018 0.0
H1767 H 0.0101 0.87354 0.5878 0.0
H1768 H 0.17781 0.70495 0.77463 0.0
H1769 H 0.15583 0.71209 0.75622 0.0
H1770 H 0.18419 0.75732 0.74325 0.0
H1771 H 0.20615 0.75011 0.76165 0.0
H1772 H 0.14006 0.74648 0.76045 0.0
H1773 H 0.16859 0.72999 0.69646 0.0
H1774 H 0.17499 0.72079 0.71522 0.0
H1775 H 0.18077 0.74299 0.71223 0.0
C1776 C 0.17935 0.71624 0.76761 0.0
C1777 C 0.19356 0.72698 0.76939 0.0
C1778 C 0.16685 0.72035 0.75721 0.0
C1779 C 0.16849 0.73513 0.74829 0.0
C1780 C 0.1828 0.74574 0.74987 0.0
H1781 H 0.1061 0.78211 0.68016 0.0
H1782 H 0.12869 0.77411 0.69694 0.0
C1783 C 0.19525 0.74169 0.76038 0.0
C1784 C 0.15487 0.73999 0.73807 0.0
H1785 H 0.14329 0.74342 0.69731 0.0
C1786 C 0.14069 0.74576 0.74664 0.0
C1787 C 0.15589 0.73918 0.7201 0.0
C1788 C 0.17081 0.73281 0.71036 0.0
C1789 C 0.12751 0.751 0.73771 0.0
C1790 C 0.12837 0.74992 0.71967 0.0
C1791 C 0.14262 0.74419 0.71112 0.0
C1792 C 0.11463 0.75468 0.70945 0.0
C1793 C 0.11298 0.75806 0.74776 0.0
C1794 C 0.09926 0.74625 0.71071 0.0
C1795 C 0.08624 0.75101 0.70138 0.0
C1796 C 0.08836 0.76412 0.69033 0.0
C1797 C 0.1039 0.77222 0.68878 0.0
C1798 C 0.11689 0.76755 0.69825 0.0
H1799 H 0.1162 0.76294 0.76111 0.0
H1800 H 0.10773 0.76887 0.74174 0.0
H1801 H 0.1035 0.74742 0.74823 0.0
H1802 H 0.09731 0.73598 0.71895 0.0
H1803 H 0.07446 0.74457 0.70305 0.0
H1804 H 0.97648 0.59544 0.46744 0.0
H1805 H 0.98595 0.62421 0.48139 0.0
H1806 H 1.00052 0.5998 0.52503 0.0
H1807 H 0.9912 0.57119 0.51096 0.0
H1808 H 0.97202 0.63803 0.51217 0.0
H1809 H 0.03857 0.63464 0.51887 0.0
H1810 H 0.02702 0.61988 0.50374 0.0
H1811 H 0.02737 0.61612 0.52584 0.0
C1812 C 0.98225 0.59628 0.47974 0.0
C1813 C 0.98321 0.58128 0.4882 0.0
C1814 C 0.98755 0.61264 0.48774 0.0
C1815 C 0.99407 0.61414 0.5042 0.0
C1816 C 0.99584 0.59895 0.51221 0.0
H1817 H 0.01224 0.68974 0.59014 0.0
H1818 H 0.0098 0.66429 0.56878 0.0
C1819 C 0.99047 0.58265 0.50425 0.0
C1820 C 0.99705 0.63159 0.51393 0.0
H1821 H 0.02547 0.65672 0.53756 0.0
C1822 C 0.98377 0.64229 0.51748 0.0
C1823 C 0.01235 0.63703 0.52095 0.0
C1824 C 0.02718 0.62639 0.51703 0.0
C1825 C 0.98518 0.6579 0.52851 0.0
C1826 C 1.00039 0.66313 0.53589 0.0
C1827 C 0.01381 0.65268 0.53192 0.0
C1828 C 1.00238 0.67886 0.54853 0.0
C1829 C 0.97016 0.66817 0.5328 0.0
C1830 C 0.99924 0.69557 0.54419 0.0
C1831 C 1.00039 0.71015 0.55647 0.0
C1832 C 1.00485 0.70833 0.5733 0.0
C1833 C 0.00842 0.6916 0.57743 0.0
C1834 C 0.0072 0.67705 0.56518 0.0
H1835 H 0.95884 0.66031 0.52928 0.0
H1836 H 0.96954 0.6728 0.54663 0.0
H1837 H 0.97058 0.67979 0.52563 0.0
H1838 H 0.99578 0.69733 0.53134 0.0
H1839 H 0.99749 0.7228 0.55284 0.0
H1840 H 0.72711 0.81445 0.21794 0.0
H1841 H 0.74813 0.83829 0.21925 0.0
H1842 H 0.76734 0.82045 0.26449 0.0
H1843 H 0.74624 0.79683 0.26317 0.0
H1844 H 0.76 0.85501 0.26896 0.0
H1845 H 0.79722 0.84106 0.20998 0.0
H1846 H 0.77572 0.84102 0.20648 0.0
H1847 H 0.78376 0.82475 0.21827 0.0
C1848 C 0.73615 0.81543 0.22783 0.0
C1849 C 0.73518 0.80397 0.24047 0.0
C1850 C 0.74813 0.82898 0.22859 0.0
C1851 C 0.75937 0.83109 0.24193 0.0
C1852 C 0.75881 0.81906 0.25408 0.0
H1853 H 0.84126 0.90613 0.25836 0.0
H1854 H 0.82375 0.87967 0.25267 0.0
C1855 C 0.74684 0.8056 0.25334 0.0
C1856 C 0.77057 0.84678 0.24433 0.0
H1857 H 0.80151 0.86918 0.2256 0.0
C1858 C 0.76912 0.85806 0.2595 0.0
C1859 C 0.78252 0.85068 0.23204 0.0
C1860 C 0.78505 0.83868 0.21583 0.0
C1861 C 0.77917 0.87322 0.26265 0.0
C1862 C 0.79081 0.8774 0.25015 0.0
C1863 C 0.79245 0.86601 0.23508 0.0
C1864 C 0.80146 0.89349 0.25269 0.0
C1865 C 0.77738 0.88452 0.27943 0.0
C1866 C 0.79475 0.91004 0.25429 0.0
C1867 C 0.80471 0.92519 0.2575 0.0
C1868 C 0.82161 0.92409 0.25909 0.0
C1869 C 0.82833 0.90747 0.25708 0.0
C1870 C 0.81834 0.89233 0.25387 0.0
H1871 H 0.77083 0.87736 0.28916 0.0
H1872 H 0.78945 0.8893 0.2845 0.0
H1873 H 0.77032 0.89606 0.27747 0.0
H1874 H 0.78177 0.91124 0.25311 0.0
H1875 H 0.79916 0.93777 0.25862 0.0
H1876 H 0.74762 0.20382 0.27571 0.0
H1877 H 0.76739 0.18129 0.2779 0.0
H1878 H 0.74626 0.17108 0.32649 0.0
H1879 H 0.72606 0.19318 0.3239 0.0
H1880 H 0.79059 0.17693 0.30137 0.0
H1881 H 0.74326 0.12302 0.29946 0.0
H1882 H 0.73892 0.1447 0.29467 0.0
H1883 H 0.74068 0.14027 0.31645 0.0
C1884 C 0.74726 0.19672 0.28683 0.0
C1885 C 0.73528 0.20001 0.29954 0.0
C1886 C 0.75856 0.18395 0.28812 0.0
C1887 C 0.7581 0.17425 0.30219 0.0
C1888 C 0.74661 0.17813 0.31534 0.0
H1889 H 0.81436 0.08415 0.31994 0.0
H1890 H 0.79709 0.10947 0.32396 0.0
C1891 C 0.73523 0.19086 0.31397 0.0
C1892 C 0.76935 0.15976 0.3027 0.0
H1893 H 0.77037 0.11542 0.30263 0.0
C1894 C 0.78617 0.16349 0.30172 0.0
C1895 C 0.76356 0.1422 0.3031 0.0
C1896 C 0.74563 0.13721 0.30333 0.0
C1897 C 0.79734 0.15016 0.30105 0.0
C1898 C 0.79154 0.13262 0.3012 0.0
C1899 C 0.77476 0.1289 0.30257 0.0
C1900 C 0.8026 0.11782 0.29912 0.0
C1901 C 0.81529 0.15492 0.30018 0.0
C1902 C 0.81133 0.11409 0.28378 0.0
C1903 C 0.82115 0.09964 0.28143 0.0
C1904 C 0.82244 0.08863 0.29439 0.0
C1905 C 0.81377 0.09249 0.3098 0.0
C1906 C 0.80385 0.10689 0.31209 0.0
H1907 H 0.81789 0.16898 0.30451 0.0
H1908 H 0.82226 0.14691 0.30811 0.0
H1909 H 0.81967 0.15232 0.28678 0.0
H1910 H 0.81034 0.12221 0.27351 0.0
H1911 H 0.82778 0.09711 0.26948 0.0
H1912 H 0.42051 0.05081 0.97068 0.0
H1913 H 0.39711 0.03158 0.97709 0.0
H1914 H 0.42972 0.99406 0.99244 0.0
H1915 H 0.45306 0.01356 0.98644 0.0
H1916 H 0.38941 0.99725 0.96345 0.0
H1917 H 0.39851 1.00139 0.0334 0.0
H1918 H 0.40868 0.01636 0.0202 0.0
H1919 H 0.41595 0.99475 0.02067 0.0
C1920 C 0.42258 0.0385 0.97553 0.0
C1921 C 0.43847 0.03363 0.97819 0.0
C1922 C 0.40928 0.02752 0.97912 0.0
C1923 C 0.41167 0.01153 0.98549 0.0
C1924 C 0.42759 1.0065 0.98785 0.0
H1925 H 0.3459 0.92789 0.01413 0.0
H1926 H 0.36964 0.94648 0.0078 0.0
C1927 C 0.44089 0.0175 0.98428 0.0
C1928 C 0.39749 1.00004 0.98944 0.0
H1929 H 0.37814 0.98102 0.02182 0.0
C1930 C 0.38691 0.99373 0.97622 0.0
C1931 C 0.39428 0.99548 0.00611 0.0
C1932 C 0.40485 1.00245 0.02097 0.0
C1933 C 0.37329 0.98279 0.97916 0.0
C1934 C 0.37005 0.97827 0.99584 0.0
C1935 C 0.38067 0.9845 0.00905 0.0
C1936 C 0.35563 0.96718 0.99985 0.0
C1937 C 0.36265 0.97588 0.96434 0.0
C1938 C 0.33989 0.9728 0.99775 0.0
C1939 C 0.32631 0.96227 1.00144 0.0
C1940 C 0.3282 0.94593 0.0074 0.0
C1941 C 0.34401 0.94047 0.00974 0.0
C1942 C 0.35758 0.95102 0.00605 0.0
H1943 H 0.36899 0.97688 0.95189 0.0
H1944 H 0.35873 0.96201 0.96514 0.0
H1945 H 0.35161 0.98368 0.96466 0.0
H1946 H 0.33812 0.98541 0.99335 0.0
H1947 H 0.31432 0.96701 0.9998 0.0
H1948 H 0.29025 0.34845 0.32826 0.0
H1949 H 0.27021 0.37051 0.32497 0.0
H1950 H 0.25806 0.34432 0.27533 0.0
H1951 H 0.27774 0.322 0.27891 0.0
H1952 H 0.26923 0.39315 0.30029 0.0
H1953 H 0.21353 0.34976 0.29815 0.0
H1954 H 0.23278 0.34311 0.30526 0.0
H1955 H 0.22889 0.34252 0.28284 0.0
C1956 C 0.28311 0.34736 0.31678 0.0
C1957 C 0.28539 0.33356 0.30387 0.0
C1958 C 0.27176 0.35996 0.31486 0.0
C1959 C 0.26245 0.35891 0.30002 0.0
C1960 C 0.26484 0.34519 0.28704 0.0
H1961 H 0.19238 0.42472 0.26085 0.0
H1962 H 0.21128 0.40201 0.26526 0.0
C1963 C 0.27617 0.33257 0.28899 0.0
C1964 C 0.25063 0.37251 0.2979 0.0
H1965 H 0.21056 0.37862 0.29094 0.0
C1966 C 0.25638 0.38999 0.29836 0.0
C1967 C 0.23388 0.36836 0.29535 0.0
C1968 C 0.22684 0.34995 0.29552 0.0
C1969 C 0.2459 0.4034 0.296 0.0
C1970 C 0.22917 0.39923 0.29337 0.0
C1971 C 0.2234 0.38176 0.29294 0.0
C1972 C 0.21749 0.41283 0.29092 0.0
C1973 C 0.25287 0.42185 0.29596 0.0
C1974 C 0.21452 0.42628 0.30399 0.0
C1975 C 0.20377 0.4393 0.3015 0.0
C1976 C 0.19574 0.4391 0.28588 0.0
C1977 C 0.19853 0.4254 0.27293 0.0
C1978 C 0.20925 0.41236 0.27546 0.0
H1979 H 0.26629 0.42221 0.29409 0.0
H1980 H 0.24739 0.42843 0.28576 0.0
H1981 H 0.25009 0.42943 0.3084 0.0
H1982 H 0.22056 0.42674 0.31611 0.0
H1983 H 0.202 0.44972 0.31169 0.0
H1984 H 0.07026 0.02393 0.50294 0.0
H1985 H 0.09732 0.03828 0.5076 0.0
H1986 H 0.11914 0.99348 0.47988 0.0
H1987 H 0.09194 0.97947 0.47489 0.0
H1988 H 0.12609 0.03068 0.52185 0.0
H1989 H 0.13381 0.03265 0.45193 0.0
H1990 H 0.11469 0.02647 0.46159 0.0
H1991 H 0.13054 0.01106 0.45824 0.0
C1992 C 0.08094 0.01706 0.4983 0.0
C1993 C 0.07922 1.00067 0.48866 0.0
C1994 C 0.09634 0.02523 0.50086 0.0
C1995 C 0.11025 0.01713 0.49375 0.0
C1996 C 0.10857 1.00015 0.48515 0.0
H1997 H 0.21053 0.05859 0.48581 0.0
H1998 H 0.186 0.0394 0.48528 0.0
C1999 C 0.09313 0.99205 0.4825 0.0
C2000 C 0.12622 0.02699 0.49438 0.0
H2001 H 0.15573 0.04404 0.46914 0.0
C2002 C 0.1326 0.03354 0.51033 0.0
C2003 C 0.13467 0.03084 0.47933 0.0
C2004 C 0.12804 0.02505 0.46179 0.0
C2005 C 0.14719 0.04378 0.51162 0.0
C2006 C 0.15554 0.04772 0.49657 0.0
C2007 C 0.14932 0.04094 0.48065 0.0
C2008 C 0.17044 0.05935 0.49704 0.0
C2009 C 0.15361 0.05025 0.52907 0.0
C2010 C 0.16976 0.07703 0.50353 0.0
C2011 C 0.1837 0.08811 0.50365 0.0
C2012 C 0.19866 0.08176 0.49728 0.0
C2013 C 0.19923 0.06403 0.49063 0.0
C2014 C 0.18524 0.05298 0.49044 0.0
H2015 H 0.14812 0.04266 0.53908 0.0
H2016 H 0.16704 0.04946 0.52932 0.0
H2017 H 0.15061 0.06415 0.53228 0.0
H2018 H 0.15837 0.08232 0.50833 0.0
H2019 H 0.18268 0.10173 0.50855 0.0
H2020 H 0.80051 0.18903 0.71885 0.0
H2021 H 0.78386 0.16387 0.7268 0.0
H2022 H 0.77016 0.1938 0.77401 0.0
H2023 H 0.78704 0.21893 0.76602 0.0
H2024 H 0.77503 0.15688 0.77648 0.0
H2025 H 0.73395 0.16816 0.72415 0.0
H2026 H 0.75474 0.16512 0.7176 0.0
H2027 H 0.74966 0.18393 0.73199 0.0
C2028 C 0.79426 0.18997 0.7311 0.0
C2029 C 0.79489 0.20578 0.74183 0.0
C2030 C 0.78471 0.17571 0.7356 0.0
C2031 C 0.77552 0.17711 0.75083 0.0
C2032 C 0.77711 0.19249 0.76217 0.0
H2033 H 0.68692 0.11507 0.76641 0.0
H2034 H 0.70745 0.13873 0.76461 0.0
C2035 C 0.78676 0.20676 0.75768 0.0
C2036 C 0.76314 0.16321 0.75404 0.0
H2037 H 0.72819 0.1428 0.73798 0.0
C2038 C 0.76476 0.15379 0.76811 0.0
C2039 C 0.7496 0.15945 0.74327 0.0
C2040 C 0.74674 0.16978 0.72849 0.0
C2041 C 0.75336 0.14038 0.77145 0.0
C2042 C 0.74014 0.13621 0.7603 0.0
C2043 C 0.73839 0.14591 0.74645 0.0
C2044 C 0.72789 0.12188 0.76266 0.0
C2045 C 0.75543 0.13101 0.78702 0.0
C2046 C 0.73254 0.1045 0.76214 0.0
C2047 C 0.72082 0.09093 0.76329 0.0
C2048 C 0.70419 0.09444 0.76485 0.0
C2049 C 0.69961 0.11189 0.76546 0.0
C2050 C 0.71133 0.12544 0.76434 0.0
H2051 H 0.7633 0.1388 0.7966 0.0
H2052 H 0.74349 0.1281 0.79312 0.0
H2053 H 0.76126 0.11843 0.78317 0.0
H2054 H 0.7452 0.10137 0.76051 0.0
H2055 H 0.72481 0.07768 0.76296 0.0
H2056 H 0.46645 0.0222 0.55568 0.0
H2057 H 0.44474 0.04144 0.54947 0.0
H2058 H 0.40938 0.99871 0.55218 0.0
H2059 H 0.43107 0.97981 0.55896 0.0
H2060 H 0.42452 0.0384 0.52281 0.0
H2061 H 0.38806 0.03694 0.58244 0.0
H2062 H 0.40837 0.029 0.58026 0.0
H2063 H 0.39131 0.01547 0.57195 0.0
C2064 C 0.45397 0.01713 0.55516 0.0
C2065 C 0.45026 0.99971 0.55789 0.0
C2066 C 0.44162 0.02802 0.55157 0.0
C2067 C 0.42537 0.02162 0.55064 0.0
C2068 C 0.42173 1.0041 0.55327 0.0
H2069 H 0.33517 0.05955 0.51776 0.0
H2070 H 0.35739 0.04222 0.52579 0.0
C2071 C 0.43407 0.99328 0.557 0.0
C2072 C 0.41235 0.03301 0.5462 0.0
H2073 H 0.37537 0.04846 0.55936 0.0
C2074 C 0.41385 0.04072 0.53088 0.0
C2075 C 0.39842 0.03608 0.55676 0.0
C2076 C 0.39649 0.02908 0.57385 0.0
C2077 C 0.40165 0.05105 0.52565 0.0
C2078 C 0.38761 0.05377 0.53603 0.0
C2079 C 0.38613 0.04622 0.55139 0.0
C2080 C 0.37427 0.06437 0.53108 0.0
C2081 C 0.40363 0.05872 0.50891 0.0
C2082 C 0.37642 0.08258 0.53153 0.0
C2083 C 0.36368 0.09259 0.52717 0.0
C2084 C 0.34854 0.08456 0.52224 0.0
C2085 C 0.34653 0.06624 0.52174 0.0
C2086 C 0.35924 0.05628 0.52622 0.0
H2087 H 0.41398 0.05321 0.50115 0.0
H2088 H 0.39235 0.0563 0.50137 0.0
H2089 H 0.40585 0.07309 0.51143 0.0
H2090 H 0.38789 0.08907 0.53545 0.0
H2091 H 0.36561 0.10666 0.52801 0.0
H2092 H 0.57964 0.54523 0.55516 0.0
H2093 H 0.60565 0.53234 0.54614 0.0
H2094 H 0.5803 0.48296 0.53102 0.0
H2095 H 0.55443 0.49605 0.53954 0.0
H2096 H 0.61772 0.50624 0.56127 0.0
H2097 H 0.61259 0.48456 0.49234 0.0
H2098 H 0.59906 0.49997 0.50343 0.0
H2099 H 0.59544 0.47682 0.50415 0.0
C2100 C 0.57967 0.53184 0.54927 0.0
C2101 C 0.56516 0.52157 0.54797 0.0
C2102 C 0.59449 0.52444 0.54426 0.0
C2103 C 0.59497 0.50669 0.53777 0.0
C2104 C 0.58029 0.49674 0.53561 0.0
H2105 H 0.66222 0.42413 0.52816 0.0
H2106 H 0.63891 0.44294 0.52942 0.0
C2107 C 0.56552 0.50416 0.54056 0.0
C2108 C 0.61073 0.49795 0.53535 0.0
H2109 H 0.63227 0.47012 0.50754 0.0
C2110 C 0.62104 0.49861 0.54941 0.0
C2111 C 0.61506 0.4879 0.51991 0.0
C2112 C 0.60502 0.48741 0.50406 0.0
C2113 C 0.63515 0.48893 0.5487 0.0
C2114 C 0.63915 0.47843 0.53346 0.0
C2115 C 0.62911 0.47811 0.51924 0.0
C2116 C 0.6534 0.46718 0.53229 0.0
C2117 C 0.64532 0.48944 0.56447 0.0
C2118 C 0.66927 0.47459 0.53336 0.0
C2119 C 0.68262 0.46388 0.5327 0.0
C2120 C 0.68034 0.44555 0.53098 0.0
C2121 C 0.6644 0.43819 0.52975 0.0
C2122 C 0.65107 0.44891 0.53032 0.0
H2123 H 0.63897 0.49556 0.57603 0.0
H2124 H 0.64854 0.47603 0.5667 0.0
H2125 H 0.6568 0.49716 0.56266 0.0
H2126 H 0.67133 0.48867 0.53473 0.0
H2127 H 0.69472 0.46998 0.53379 0.0
H2128 H 0.70275 0.22772 0.33872 0.0
H2129 H 0.71332 0.24223 0.36573 0.0
H2130 H 0.76036 0.24942 0.34179 0.0
H2131 H 0.7495 0.23521 0.31456 0.0
H2132 H 0.73898 0.23706 0.38695 0.0
H2133 H 0.74769 0.29948 0.35772 0.0
H2134 H 0.7366 0.28071 0.34726 0.0
H2135 H 0.75842 0.28125 0.34755 0.0
C2136 C 0.71539 0.2322 0.33938 0.0
C2137 C 0.72531 0.23063 0.32468 0.0
C2138 C 0.72144 0.24042 0.35476 0.0
C2139 C 0.73753 0.24722 0.35568 0.0
C2140 C 0.74781 0.24456 0.34126 0.0
H2141 H 0.77514 0.32209 0.43942 0.0
H2142 H 0.77428 0.30055 0.41407 0.0
C2143 C 0.7417 0.23634 0.32581 0.0
C2144 C 0.7429 0.25819 0.37139 0.0
H2145 H 0.75261 0.30048 0.38699 0.0
C2146 C 0.74216 0.25088 0.38694 0.0
C2147 C 0.747 0.27625 0.37136 0.0
C2148 C 0.74738 0.28499 0.35514 0.0
C2149 C 0.74502 0.26123 0.4025 0.0
C2150 C 0.7485 0.27938 0.4025 0.0
C2151 C 0.74993 0.28655 0.38692 0.0
C2152 C 0.74951 0.29142 0.41851 0.0
C2153 C 0.74409 0.2527 0.41882 0.0
C2154 C 0.73584 0.29347 0.42934 0.0
C2155 C 0.73628 0.30575 0.44379 0.0
C2156 C 0.7504 0.31627 0.44767 0.0
C2157 C 0.76415 0.31404 0.43689 0.0
C2158 C 0.76367 0.3018 0.42238 0.0
H2159 H 0.74611 0.23846 0.41644 0.0
H2160 H 0.75319 0.25882 0.42811 0.0
H2161 H 0.73181 0.25434 0.42468 0.0
H2162 H 0.72468 0.28584 0.42641 0.0
H2163 H 0.72553 0.30706 0.45189 0.0
H2164 H 0.50185 0.03616 0.9661 0.0
H2165 H 0.52503 0.03528 0.946 0.0
H2166 H 0.50574 0.07768 0.92226 0.0
H2167 H 0.48268 0.07859 0.94254 0.0
H2168 H 0.52146 0.02747 0.91173 0.0
H2169 H 0.55375 0.09216 0.92489 0.0
H2170 H 0.53918 0.08379 0.9397 0.0
H2171 H 0.53236 0.09347 0.92152 0.0
C2172 C 0.50285 0.04551 0.9568 0.0
C2173 C 0.49061 0.05742 0.95575 0.0
C2174 C 0.51602 0.04501 0.94534 0.0
C2175 C 0.5172 0.05649 0.93267 0.0
C2176 C 0.5053 0.06895 0.93212 0.0
H2177 H 0.57364 0.06024 0.8391 0.0
H2178 H 0.55477 0.06532 0.86335 0.0
C2179 C 0.49214 0.06947 0.94366 0.0
C2180 C 0.52983 0.0541 0.91899 0.0
H2181 H 0.56089 0.07501 0.89891 0.0
C2182 C 0.53019 0.03781 0.90905 0.0
C2183 C 0.54112 0.06766 0.9154 0.0
C2184 C 0.54173 0.08521 0.92603 0.0
C2185 C 0.5413 0.03479 0.89544 0.0
C2186 C 0.55256 0.04834 0.89181 0.0
C2187 C 0.55226 0.06464 0.90174 0.0
C2188 C 0.56456 0.04582 0.87755 0.0
C2189 C 0.54061 0.01724 0.88476 0.0
C2190 C 0.57649 0.03337 0.87763 0.0
C2191 C 0.58722 0.03034 0.86374 0.0
C2192 C 0.58626 0.03976 0.84952 0.0
C2193 C 0.57454 0.05255 0.84971 0.0
C2194 C 0.56384 0.05558 0.86361 0.0
H2195 H 0.52894 0.00984 0.88664 0.0
H2196 H 0.54216 0.01882 0.87099 0.0
H2197 H 0.55062 0.00932 0.88847 0.0
H2198 H 0.5774 0.02585 0.88836 0.0
H2199 H 0.596 0.02032 0.86399 0.0
H2200 H 0.3222 0.30645 0.34831 0.0
H2201 H 0.32288 0.28499 0.36905 0.0
H2202 H 0.30908 0.24386 0.32961 0.0
H2203 H 0.30886 0.26542 0.30886 0.0
H2204 H 0.29607 0.26725 0.37783 0.0
H2205 H 0.34239 0.21984 0.35472 0.0
H2206 H 0.34144 0.24096 0.34695 0.0
H2207 H 0.32797 0.2231 0.33872 0.0
C2208 C 0.31996 0.2927 0.34404 0.0
C2209 C 0.31563 0.28744 0.32708 0.0
C2210 C 0.32022 0.28048 0.35586 0.0
C2211 C 0.31608 0.26275 0.35094 0.0
C2212 C 0.31265 0.25735 0.3337 0.0
H2213 H 0.27058 0.1927 0.41879 0.0
H2214 H 0.27696 0.2117 0.39646 0.0
C2215 C 0.31253 0.26962 0.32183 0.0
C2216 C 0.31338 0.25052 0.36419 0.0
H2217 H 0.32356 0.21104 0.37599 0.0
C2218 C 0.3022 0.25502 0.37747 0.0
C2219 C 0.3214 0.23459 0.36381 0.0
C2220 C 0.33409 0.22939 0.35038 0.0
C2221 C 0.29865 0.24401 0.39021 0.0
C2222 C 0.30621 0.22779 0.3895 0.0
C2223 C 0.31762 0.22338 0.37641 0.0
C2224 C 0.30251 0.2154 0.4024 0.0
C2225 C 0.28702 0.25001 0.40449 0.0
C2226 C 0.31484 0.21067 0.41282 0.0
C2227 C 0.31123 0.19976 0.42558 0.0
C2228 C 0.2952 0.1933 0.42816 0.0
C2229 C 0.28297 0.1977 0.41739 0.0
C2230 C 0.28661 0.20855 0.4046 0.0
H2231 H 0.2858 0.26442 0.40573 0.0
H2232 H 0.27482 0.24374 0.40176 0.0
H2233 H 0.29106 0.24627 0.41688 0.0
H2234 H 0.3272 0.21577 0.41135 0.0
H2235 H 0.32093 0.19677 0.43372 0.0
H2236 H 0.53817 0.46275 0.93997 0.0
H2237 H 0.51763 0.4652 0.91823 0.0
H2238 H 0.50756 0.51702 0.94164 0.0
H2239 H 0.52799 0.51442 0.96345 0.0
H2240 H 0.47932 0.49422 0.93378 0.0
H2241 H 0.52212 0.49673 0.87862 0.0
H2242 H 0.5244 0.47885 0.89111 0.0
H2243 H 0.52864 0.50088 0.90048 0.0
C2244 C 0.53151 0.47461 0.94039 0.0
C2245 C 0.53459 0.48843 0.95323 0.0
C2246 C 0.5199 0.47606 0.92798 0.0
C2247 C 0.51121 0.49137 0.92824 0.0
C2248 C 0.51419 0.50514 0.94118 0.0
H2249 H 0.45162 0.5253 0.84982 0.0
H2250 H 0.47188 0.52249 0.87148 0.0
C2251 C 0.52586 0.5037 0.95354 0.0
C2252 C 0.49883 0.49296 0.91518 0.0
H2253 H 0.494 0.49492 0.87253 0.0
C2254 C 0.4825 0.49438 0.92039 0.0
C2255 C 0.50308 0.49334 0.89776 0.0
C2256 C 0.52052 0.49251 0.8916 0.0
C2257 C 0.47025 0.49594 0.90857 0.0
C2258 C 0.47446 0.49596 0.8911 0.0
C2259 C 0.49082 0.49476 0.88593 0.0
C2260 C 0.46209 0.49753 0.87802 0.0
C2261 C 0.45294 0.49785 0.91489 0.0
C2262 C 0.44996 0.48433 0.87441 0.0
C2263 C 0.43842 0.48581 0.86191 0.0
C2264 C 0.43882 0.50052 0.85276 0.0
C2265 C 0.45106 0.51369 0.85643 0.0
C2266 C 0.46261 0.51216 0.86887 0.0
H2267 H 0.45225 0.50143 0.92892 0.0
H2268 H 0.44695 0.50796 0.90851 0.0
H2269 H 0.44602 0.48524 0.91183 0.0
H2270 H 0.44953 0.47278 0.88112 0.0
H2271 H 0.42937 0.47528 0.85923 0.0
H2272 H 0.70331 0.77742 0.19841 0.0
H2273 H 0.71565 0.76541 0.17131 0.0
H2274 H 0.7604 0.75922 0.19713 0.0
H2275 H 0.74777 0.77078 0.22438 0.0
H2276 H 0.74314 0.77481 0.15271 0.0
H2277 H 0.74869 0.70956 0.17559 0.0
H2278 H 0.7369 0.72643 0.18698 0.0
H2279 H 0.75868 0.72756 0.18831 0.0
C2280 C 0.7158 0.77356 0.19819 0.0
C2281 C 0.72457 0.77475 0.21338 0.0
C2282 C 0.72287 0.7668 0.18276 0.0
C2283 C 0.73884 0.7611 0.18225 0.0
C2284 C 0.74795 0.76321 0.19729 0.0
H2285 H 0.78804 0.70051 0.0971 0.0
H2286 H 0.78276 0.7185 0.12411 0.0
C2287 C 0.74083 0.76995 0.21278 0.0
C2288 C 0.74549 0.75219 0.16611 0.0
H2289 H 0.75751 0.71252 0.14749 0.0
C2290 C 0.74641 0.76123 0.15159 0.0
C2291 C 0.74971 0.73445 0.16466 0.0
C2292 C 0.74835 0.72383 0.17965 0.0
C2293 C 0.75125 0.75296 0.13562 0.0
C2294 C 0.75504 0.73511 0.1341 0.0
C2295 C 0.7546 0.72621 0.1487 0.0
C2296 C 0.75865 0.72513 0.11735 0.0
C2297 C 0.75221 0.76338 0.1205 0.0
C2298 C 0.74681 0.72282 0.10464 0.0
C2299 C 0.74979 0.71258 0.08922 0.0
C2300 C 0.76467 0.70438 0.0862 0.0
C2301 C 0.77655 0.70683 0.09893 0.0
C2302 C 0.77353 0.71703 0.11439 0.0
H2303 H 0.7535 0.77766 0.12456 0.0
H2304 H 0.76261 0.75949 0.11194 0.0
H2305 H 0.74087 0.76089 0.1131 0.0
H2306 H 0.73513 0.72869 0.10678 0.0
H2307 H 0.74043 0.71107 0.07965 0.0
H2308 H 0.99864 0.01932 0.0723 0.0
H2309 H 0.97946 0.01707 0.09632 0.0
H2310 H 0.01683 0.03797 0.13139 0.0
H2311 H 0.0358 0.04065 0.10731 0.0
H2312 H 0.98189 0.9983 0.12437 0.0
H2313 H 0.97896 0.06942 0.14493 0.0
H2314 H 0.98736 0.06097 0.12451 0.0
H2315 H 0.99922 0.06163 0.14349 0.0
C2316 C 1.00262 0.02353 0.08516 0.0
C2317 C 0.01857 0.03022 0.08806 0.0
C2318 C 0.99175 0.0222 0.09884 0.0
C2319 C 0.99666 0.02761 0.11561 0.0
C2320 C 0.0127 0.03405 0.11853 0.0
H2321 H 0.95176 0.02794 0.2158 0.0
H2322 H 0.97012 0.03035 0.19134 0.0
C2323 C 0.02355 0.03541 0.10485 0.0
C2324 C 0.98508 0.02623 0.13008 0.0
H2325 H 0.96661 0.05022 0.16346 0.0
C2326 C 0.97846 0.00965 0.13286 0.0
C2327 C 0.98065 0.04107 0.14113 0.0
C2328 C 0.98678 0.05931 0.13832 0.0
C2329 C 0.96778 0.00746 0.14664 0.0
C2330 C 0.96345 0.02229 0.15775 0.0
C2331 C 0.97001 0.03888 0.15493 0.0
C2332 C 0.95219 0.02087 0.17247 0.0
C2333 C 0.96153 0.98927 0.14943 0.0
C2334 C 0.93597 0.01498 0.16993 0.0
C2335 C 0.9254 0.01369 0.18387 0.0
C2336 C 0.93085 0.01836 0.20062 0.0
C2337 C 0.9471 0.02444 0.20308 0.0
C2338 C 0.95764 0.02574 0.18913 0.0
H2339 H 0.96892 0.97906 0.14231 0.0
H2340 H 0.9615 0.98743 0.1632 0.0
H2341 H 0.94884 0.9873 0.14489 0.0
H2342 H 0.93144 0.01151 0.15714 0.0
H2343 H 0.9129 0.00926 0.18151 0.0
H2344 H 0.2992 0.77819 0.22508 0.0
H2345 H 0.29304 0.79711 0.20304 0.0
H2346 H 0.29522 0.75284 0.16456 0.0
H2347 H 0.30176 0.73408 0.1865 0.0
H2348 H 0.31216 0.80126 0.16969 0.0
H2349 H 0.24853 0.77454 0.1619 0.0
H2350 H 0.25996 0.77313 0.181 0.0
H2351 H 0.26411 0.75888 0.16198 0.0
C2352 C 0.29858 0.77264 0.21187 0.0
C2353 C 0.30085 0.75472 0.20742 0.0
C2354 C 0.295 0.78338 0.19934 0.0
C2355 C 0.2935 0.77629 0.18224 0.0
C2356 C 0.29614 0.75849 0.17773 0.0
H2357 H 0.26459 0.81029 0.08732 0.0
H2358 H 0.27167 0.79441 0.11105 0.0
C2359 C 0.29983 0.74781 0.19022 0.0
C2360 C 0.28891 0.78736 0.16904 0.0
H2361 H 0.2582 0.7938 0.14229 0.0
C2362 C 0.30034 0.79977 0.16375 0.0
C2363 C 0.27351 0.78527 0.16133 0.0
C2364 C 0.26072 0.77233 0.16686 0.0
C2365 C 0.29693 0.80982 0.15052 0.0
C2366 C 0.28149 0.8077 0.14272 0.0
C2367 C 0.27001 0.79544 0.14825 0.0
C2368 C 0.27718 0.81762 0.12841 0.0
C2369 C 0.3101 0.82211 0.1446 0.0
C2370 C 0.27766 0.83598 0.13032 0.0
C2371 C 0.27386 0.84514 0.11664 0.0
C2372 C 0.26929 0.83612 0.10082 0.0
C2373 C 0.26839 0.81771 0.09916 0.0
C2374 C 0.2723 0.80858 0.11278 0.0
H2375 H 0.32234 0.81869 0.14854 0.0
H2376 H 0.31014 0.82197 0.13051 0.0
H2377 H 0.30791 0.83562 0.15039 0.0
H2378 H 0.281 0.84326 0.14238 0.0
H2379 H 0.27479 0.8593 0.11841 0.0
H2380 H 0.01619 0.4719 0.06793 0.0
H2381 H 0.03786 0.47161 0.089 0.0
H2382 H 1.00168 0.47272 0.12938 0.0
H2383 H 0.98018 0.47283 0.10831 0.0
H2384 H 0.04313 0.49866 0.11564 0.0
H2385 H 0.03184 0.43514 0.14152 0.0
H2386 H 0.02379 0.43965 0.1214 0.0
H2387 H 0.01396 0.44761 0.14113 0.0
C2388 C 0.01296 0.47158 0.08127 0.0
C2389 C 0.99664 0.47233 0.08662 0.0
C2390 C 0.02528 0.47152 0.09328 0.0
C2391 C 0.02138 0.47198 0.11076 0.0
C2392 C 1.00498 0.47204 0.11597 0.0
H2393 H 0.0671 0.49099 0.20836 0.0
H2394 H 0.04914 0.48413 0.18398 0.0
C2395 C 0.99273 0.47219 0.10399 0.0
C2396 C 0.03436 0.47411 0.12374 0.0
H2397 H 0.04848 0.45657 0.15826 0.0
C2398 C 0.04449 0.48934 0.12481 0.0
C2399 C 0.03603 0.46199 0.13576 0.0
C2400 C 0.02593 0.44509 0.13484 0.0
C2401 C 0.05576 0.49314 0.138 0.0
C2402 C 0.05721 0.4812 0.15025 0.0
C2403 C 0.04735 0.46575 0.14891 0.0
C2404 C 0.06836 0.48484 0.16494 0.0
C2405 C 0.06551 0.5103 0.13911 0.0
C2406 C 0.0852 0.48727 0.16238 0.0
C2407 C 0.09551 0.49122 0.17631 0.0
C2408 C 0.08922 0.49264 0.19311 0.0
C2409 C 0.07238 0.48984 0.19562 0.0
C2410 C 0.06208 0.48597 0.18169 0.0
H2411 H 0.06015 0.51975 0.13138 0.0
H2412 H 0.06633 0.51635 0.15254 0.0
H2413 H 0.07802 0.50791 0.1342 0.0
H2414 H 0.09038 0.48607 0.1496 0.0
H2415 H 0.10845 0.493 0.17393 0.0
H2416 H 0.31959 0.75352 0.27086 0.0
H2417 H 0.33989 0.75017 0.29255 0.0
H2418 H 0.35082 0.69953 0.26683 0.0
H2419 H 0.3307 0.70311 0.24496 0.0
H2420 H 0.34383 0.72381 0.31488 0.0
H2421 H 0.39495 0.72742 0.26809 0.0
H2422 H 0.37471 0.73365 0.26374 0.0
H2423 H 0.37927 0.71094 0.26237 0.0
C2424 C 0.32628 0.74165 0.26999 0.0
C2425 C 0.32377 0.72863 0.25625 0.0
C2426 C 0.3378 0.73971 0.28236 0.0
C2427 C 0.34706 0.72473 0.28115 0.0
C2428 C 0.344 0.71132 0.26785 0.0
H2429 H 0.4322 0.70171 0.33775 0.0
H2430 H 0.40915 0.7 0.31842 0.0
C2431 C 0.33243 0.71327 0.25549 0.0
C2432 C 0.36036 0.72359 0.29339 0.0
H2433 H 0.40168 0.72301 0.29613 0.0
C2434 C 0.35648 0.72357 0.3108 0.0
C2435 C 0.37685 0.72331 0.28803 0.0
C2436 C 0.38179 0.72397 0.26957 0.0
C2437 C 0.36866 0.72319 0.32299 0.0
C2438 C 0.38519 0.7232 0.31767 0.0
C2439 C 0.38902 0.72298 0.30022 0.0
C2440 C 0.39874 0.72389 0.32996 0.0
C2441 C 0.36369 0.72254 0.34143 0.0
C2442 C 0.40066 0.73795 0.34282 0.0
C2443 C 0.41384 0.73898 0.35388 0.0
C2444 C 0.42551 0.72606 0.3522 0.0
C2445 C 0.42354 0.71198 0.3393 0.0
C2446 C 0.41033 0.71094 0.32829 0.0
H2447 H 0.35096 0.71738 0.34267 0.0
H2448 H 0.37181 0.71426 0.34786 0.0
H2449 H 0.36449 0.73597 0.3482 0.0
H2450 H 0.39214 0.74836 0.34409 0.0
H2451 H 0.41512 0.75016 0.36345 0.0
H2452 H 0.99928 0.45849 0.0328 0.0
H2453 H 1.0051 0.42944 0.01842 0.0
H2454 H 0.98117 0.40554 0.05968 0.0
H2455 H 0.9758 0.43478 0.07422 0.0
H2456 H 0.00816 0.38716 0.04597 0.0
H2457 H 0.96658 0.40168 0.99539 0.0
H2458 H 0.98344 0.41721 0.99863 0.0
H2459 H 0.96855 0.41536 0.01541 0.0
C2460 C 0.99581 0.44698 0.03898 0.0
C2461 C 0.98719 0.44867 0.05453 0.0
C2462 C 0.99895 0.43044 0.03073 0.0
C2463 C 0.99321 0.41532 0.03778 0.0
C2464 C 0.98564 0.41703 0.05398 0.0
H2465 H 0.97154 0.31705 0.97539 0.0
H2466 H 0.97031 0.34357 0.99536 0.0
C2467 C 0.98265 0.43364 0.06231 0.0
C2468 C 0.99375 0.39794 0.02755 0.0
H2469 H 0.98089 0.37556 0.99006 0.0
C2470 C 1.00219 0.38458 0.03376 0.0
C2471 C 0.98562 0.39447 0.0118 0.0
C2472 C 0.97539 0.40786 1.00497 0.0
C2473 C 1.00303 0.36795 0.02443 0.0
C2474 C 0.99549 0.36474 0.00832 0.0
C2475 C 0.98679 0.37803 1.00233 0.0
C2476 C 0.9964 0.34777 0.99736 0.0
C2477 C 0.01174 0.35391 0.03207 0.0
C2478 C 0.01147 0.3412 0.99185 0.0
C2479 C 0.01222 0.32585 0.98059 0.0
C2480 C 0.9979 0.31684 0.97439 0.0
C2481 C 0.98282 0.32342 0.98006 0.0
C2482 C 0.98209 0.33869 0.9914 0.0
H2483 H 0.01238 0.35663 0.04618 0.0
H2484 H 1.00563 0.34085 0.02883 0.0
H2485 H 0.02437 0.35347 0.02694 0.0
H2486 H 0.02268 0.34814 0.99593 0.0
H2487 H 0.02405 0.32111 0.9767 0.0
H2488 H 0.66731 0.7758 0.24141 0.0
H2489 H 0.64355 0.76947 0.25928 0.0
H2490 H 0.67477 0.76867 0.30249 0.0
H2491 H 0.69858 0.77395 0.28429 0.0
H2492 H 0.65245 0.74272 0.30155 0.0
H2493 H 0.6221 0.80395 0.29335 0.0
H2494 H 0.62586 0.79102 0.27343 0.0
H2495 H 0.6427 0.80019 0.28619 0.0
C2496 C 0.66904 0.77405 0.25467 0.0
C2497 C 0.6847 0.77543 0.26155 0.0
C2498 C 0.65548 0.77069 0.26494 0.0
C2499 C 0.65731 0.76901 0.28235 0.0
C2500 C 0.67302 0.77007 0.28913 0.0
H2501 H 0.58004 0.77804 0.35857 0.0
H2502 H 0.60376 0.78225 0.34027 0.0
C2503 C 0.68659 0.7732 0.27881 0.0
C2504 C 0.64292 0.76602 0.29348 0.0
H2505 H 0.60653 0.78262 0.30701 0.0
C2506 C 0.64243 0.75148 0.30279 0.0
C2507 C 0.62996 0.77761 0.29533 0.0
C2508 C 0.63023 0.79416 0.28669 0.0
C2509 C 0.6293 0.74811 0.31377 0.0
C2510 C 0.61604 0.7593 0.31507 0.0
C2511 C 0.6166 0.77392 0.30586 0.0
C2512 C 0.60167 0.75644 0.32628 0.0
C2513 C 0.63003 0.73288 0.32419 0.0
C2514 C 0.59244 0.74059 0.32443 0.0
C2515 C 0.57903 0.73797 0.33517 0.0
C2516 C 0.57437 0.75129 0.3478 0.0
C2517 C 0.58343 0.76732 0.34929 0.0
C2518 C 0.59694 0.76983 0.3387 0.0
H2519 H 0.64274 0.72903 0.32561 0.0
H2520 H 0.6246 0.73601 0.3371 0.0
H2521 H 0.62315 0.72143 0.31764 0.0
H2522 H 0.59558 0.73021 0.31466 0.0
H2523 H 0.57247 0.72541 0.33368 0.0
H2524 H 0.06288 0.0652 0.04515 0.0
H2525 H 0.06165 0.0856 0.02331 0.0
H2526 H 0.02241 0.05382 0.99903 0.0
H2527 H 0.02363 0.03362 0.02092 0.0
H2528 H 0.06091 0.08241 0.98479 0.0
H2529 H 1.00315 0.1021 0.01773 0.0
H2530 H 0.01784 0.0896 0.02729 0.0
H2531 H 1.00459 0.07911 0.01108 0.0
C2532 C 0.05448 0.0623 0.03473 0.0
C2533 C 0.04332 0.04799 0.0346 0.0
C2534 C 0.0537 0.07395 0.02235 0.0
C2535 C 0.04175 0.07134 0.00974 0.0
C2536 C 0.0316 0.05615 0.00875 0.0
H2537 H 0.99927 0.13958 0.94383 0.0
H2538 H 0.00637 0.11488 0.95878 0.0
C2539 C 0.03236 0.04458 0.02113 0.0
C2540 C 0.03849 0.08544 0.99906 0.0
H2541 H 0.01038 0.11537 0.993 0.0
C2542 C 0.04988 0.08964 0.98654 0.0
C2543 C 0.02412 0.09488 1.00147 0.0
C2544 C 0.01175 0.09135 0.0152 0.0
C2545 C 0.0471 0.10286 0.97609 0.0
C2546 C 0.0327 0.11231 0.97852 0.0
C2547 C 0.02137 0.10808 0.99109 0.0
C2548 C 0.02913 0.12682 0.96839 0.0
C2549 C 0.05942 0.10634 0.96234 0.0
C2550 C 0.03954 0.1418 0.96883 0.0
C2551 C 0.03557 0.15591 0.96017 0.0
C2552 C 0.02102 0.15542 0.95101 0.0
C2553 C 0.01067 0.14034 0.95053 0.0
C2554 C 0.01467 0.12623 0.95916 0.0
H2555 H 0.06718 0.09498 0.95897 0.0
H2556 H 0.05339 0.10941 0.95063 0.0
H2557 H 0.06747 0.11774 0.96701 0.0
H2558 H 0.05059 0.14274 0.97615 0.0
H2559 H 0.04392 0.16722 0.96068 0.0
H2560 H 0.32118 0.28456 0.27059 0.0
H2561 H 0.34679 0.27871 0.25506 0.0
H2562 H 0.37355 0.30029 0.29955 0.0
H2563 H 0.34776 0.30628 0.31498 0.0
H2564 H 0.38199 0.31616 0.27085 0.0
H2565 H 0.3829 0.24429 0.25566 0.0
H2566 H 0.36409 0.253 0.25015 0.0
H2567 H 0.3699 0.25463 0.27216 0.0
C2568 C 0.33257 0.28745 0.27716 0.0
C2569 C 0.33262 0.29575 0.29392 0.0
C2570 C 0.34719 0.2841 0.26833 0.0
C2571 C 0.36213 0.28894 0.27616 0.0
C2572 C 0.36217 0.29634 0.29329 0.0
H2573 H 0.45535 0.27345 0.2214 0.0
H2574 H 0.43338 0.27312 0.24282 0.0
C2575 C 0.3475 0.29963 0.30214 0.0
C2576 C 0.37743 0.28832 0.26578 0.0
H2577 H 0.4002 0.26141 0.23832 0.0
C2578 C 0.3861 0.30414 0.26394 0.0
C2579 C 0.38287 0.27265 0.25682 0.0
C2580 C 0.37455 0.25515 0.25891 0.0
C2581 C 0.39963 0.30481 0.25286 0.0
C2582 C 0.40453 0.28929 0.2432 0.0
C2583 C 0.39631 0.27334 0.24558 0.0
C2584 C 0.41786 0.28947 0.23022 0.0
C2585 C 0.40852 0.32218 0.25152 0.0
C2586 C 0.41636 0.29861 0.21593 0.0
C2587 C 0.42889 0.29886 0.20369 0.0
C2588 C 0.4432 0.28995 0.20548 0.0
C2589 C 0.4446 0.28067 0.21976 0.0
C2590 C 0.43202 0.28036 0.23196 0.0
H2591 H 0.4061 0.33172 0.26283 0.0
H2592 H 0.42184 0.32061 0.25019 0.0
H2593 H 0.40433 0.32774 0.24005 0.0
H2594 H 0.40545 0.30553 0.2142 0.0
H2595 H 0.42743 0.30622 0.19293 0.0
H2596 H 0.55854 0.48894 0.02066 0.0
H2597 H 0.55766 0.47032 0.04414 0.0
H2598 H 0.56753 0.42548 0.00815 0.0
H2599 H 0.56838 0.44415 0.98486 0.0
H2600 H 0.53427 0.44266 0.04417 0.0
H2601 H 0.59614 0.41826 0.04874 0.0
H2602 H 0.59224 0.43767 0.03878 0.0
H2603 H 0.58879 0.41635 0.0273 0.0
C2604 C 0.56114 0.47524 0.01799 0.0
C2605 C 0.56365 0.46789 1.00112 0.0
C2606 C 0.56053 0.4646 0.03132 0.0
C2607 C 0.56265 0.44651 0.02793 0.0
C2608 C 0.56617 0.43942 0.01115 0.0
H2609 H 0.5212 0.35708 0.06982 0.0
H2610 H 0.52953 0.38132 0.05355 0.0
C2611 C 0.56665 0.45003 0.99786 0.0
C2612 C 0.55901 0.43467 0.04128 0.0
H2613 H 0.57431 0.40157 0.06079 0.0
C2614 C 0.54311 0.43389 0.04803 0.0
C2615 C 0.57053 0.42324 0.04634 0.0
C2616 C 0.58793 0.42399 0.04005 0.0
C2617 C 0.53824 0.42144 0.05905 0.0
C2618 C 0.54953 0.40943 0.06339 0.0
C2619 C 0.56564 0.41072 0.05732 0.0
C2620 C 0.54455 0.39485 0.07345 0.0
C2621 C 0.52096 0.421 0.06574 0.0
C2622 C 0.55035 0.39436 0.08999 0.0
C2623 C 0.54556 0.38052 0.09937 0.0
C2624 C 0.53508 0.36681 0.09225 0.0
C2625 C 0.52938 0.36735 0.07562 0.0
C2626 C 0.53405 0.38124 0.06634 0.0
H2627 H 0.51491 0.43339 0.06444 0.0
H2628 H 0.51393 0.41015 0.0584 0.0
H2629 H 0.52056 0.41861 0.07938 0.0
H2630 H 0.55853 0.40471 0.09565 0.0
H2631 H 0.55029 0.38038 0.11206 0.0
H2632 H 0.70467 0.22828 0.25248 0.0
H2633 H 0.68295 0.23543 0.23385 0.0
H2634 H 0.64891 0.2363 0.27623 0.0
H2635 H 0.67043 0.22826 0.29452 0.0
H2636 H 0.63575 0.21974 0.24809 0.0
H2637 H 0.66444 0.28282 0.23305 0.0
H2638 H 0.67699 0.26457 0.2273 0.0
H2639 H 0.672 0.2708 0.24939 0.0
C2640 C 0.69249 0.22984 0.25768 0.0
C2641 C 0.68917 0.22787 0.27491 0.0
C2642 C 0.68015 0.23414 0.24714 0.0
C2643 C 0.66437 0.23681 0.25374 0.0
C2644 C 0.66101 0.23447 0.27088 0.0
H2645 H 0.58838 0.28991 0.20784 0.0
H2646 H 0.61016 0.28149 0.22547 0.0
C2647 C 0.67329 0.22999 0.28134 0.0
C2648 C 0.65124 0.24183 0.24282 0.0
H2649 H 0.6408 0.27269 0.21753 0.0
C2650 C 0.63684 0.23134 0.24143 0.0
C2651 C 0.65256 0.25713 0.23436 0.0
C2652 C 0.66726 0.26959 0.23621 0.0
C2653 C 0.62378 0.23563 0.23174 0.0
C2654 C 0.62534 0.25057 0.22276 0.0
C2655 C 0.63968 0.26115 0.22426 0.0
C2656 C 0.61213 0.2556 0.21197 0.0
C2657 C 0.60831 0.22435 0.23159 0.0
C2658 C 0.60612 0.24395 0.19837 0.0
C2659 C 0.59346 0.24859 0.18846 0.0
C2660 C 0.58671 0.26514 0.19173 0.0
C2661 C 0.59304 0.27695 0.20513 0.0
C2662 C 0.60561 0.27222 0.21514 0.0
H2663 H 0.60736 0.21687 0.24286 0.0
H2664 H 0.59743 0.23234 0.23145 0.0
H2665 H 0.60823 0.21477 0.21999 0.0
H2666 H 0.6112 0.23121 0.19542 0.0
H2667 H 0.58883 0.23906 0.17839 0.0
H2668 H 0.45726 0.09945 0.96943 0.0
H2669 H 0.4658 0.12836 0.98351 0.0
H2670 H 0.50421 0.10492 0.00835 0.0
H2671 H 0.49586 0.07616 0.99375 0.0
H2672 H 0.46387 0.13577 0.017 0.0
H2673 H 0.52752 0.14908 0.99681 0.0
H2674 H 0.51457 0.13226 0.98556 0.0
H2675 H 0.5247 0.12815 1.00466 0.0
C2676 C 0.46788 0.10071 0.97743 0.0
C2677 C 0.47603 0.08581 0.98052 0.0
C2678 C 0.47271 0.11714 0.98552 0.0
C2679 C 0.48573 0.11889 0.99693 0.0
C2680 C 0.4944 0.10404 0.99931 0.0
H2681 H 0.51446 0.19313 0.0819 0.0
H2682 H 0.51101 0.16815 0.05998 0.0
C2683 C 0.48965 0.08762 0.99104 0.0
C2684 C 0.48874 0.13564 0.00796 0.0
H2685 H 0.51825 0.16605 0.02234 0.0
C2686 C 0.47571 0.14252 0.01795 0.0
C2687 C 0.50422 0.1444 0.00933 0.0
C2688 C 0.5185 0.13818 0.99839 0.0
C2689 C 0.47781 0.1576 0.02953 0.0
C2690 C 0.49334 0.16614 0.03113 0.0
C2691 C 0.50636 0.15944 0.02106 0.0
C2692 C 0.49629 0.18168 0.0437 0.0
C2693 C 0.46353 0.16402 0.04039 0.0
C2694 C 0.48932 0.19761 0.04165 0.0
C2695 C 0.49123 0.21189 0.05417 0.0
C2696 C 0.50008 0.21045 0.06899 0.0
C2697 C 0.50735 0.19457 0.07077 0.0
C2698 C 0.50552 0.18034 0.05821 0.0
H2699 H 0.45311 0.15431 0.03968 0.0
H2700 H 0.46711 0.16704 0.05394 0.0
H2701 H 0.45941 0.17625 0.03595 0.0
H2702 H 0.48222 0.1989 0.03048 0.0
H2703 H 0.48543 0.22392 0.05246 0.0
H2704 H 0.24797 0.2985 0.76147 0.0
H2705 H 0.26939 0.32185 0.76252 0.0
H2706 H 0.24862 0.34149 0.71901 0.0
H2707 H 0.22713 0.31813 0.7181 0.0
H2708 H 0.29279 0.33385 0.73654 0.0
H2709 H 0.24637 0.38167 0.7599 0.0
H2710 H 0.24289 0.35838 0.76011 0.0
H2711 H 0.24197 0.36792 0.74042 0.0
C2712 C 0.24826 0.30764 0.75197 0.0
C2713 C 0.23599 0.30672 0.73977 0.0
C2714 C 0.26044 0.32091 0.75254 0.0
C2715 C 0.26045 0.33349 0.74097 0.0
C2716 C 0.24873 0.33196 0.72813 0.0
H2717 H 0.33096 0.42116 0.73509 0.0
H2718 H 0.31347 0.3949 0.72814 0.0
C2719 C 0.23657 0.31862 0.72752 0.0
C2720 C 0.27182 0.34898 0.74337 0.0
H2721 H 0.27327 0.3927 0.75699 0.0
C2722 C 0.28856 0.34676 0.74086 0.0
C2723 C 0.26622 0.36572 0.74927 0.0
C2724 C 0.2484 0.36867 0.75273 0.0
C2725 C 0.29986 0.36092 0.74409 0.0
C2726 C 0.29424 0.37765 0.74996 0.0
C2727 C 0.27751 0.37985 0.75242 0.0
C2728 C 0.30551 0.39299 0.75418 0.0
C2729 C 0.31776 0.35785 0.74167 0.0
C2730 C 0.30677 0.40063 0.77112 0.0
C2731 C 0.31686 0.41554 0.77518 0.0
C2732 C 0.32576 0.42324 0.76234 0.0
C2733 C 0.32451 0.41544 0.74536 0.0
C2734 C 0.31448 0.40046 0.74133 0.0
H2735 H 0.32026 0.3437 0.73987 0.0
H2736 H 0.32234 0.36381 0.73023 0.0
H2737 H 0.32466 0.36417 0.75283 0.0
H2738 H 0.29993 0.39504 0.78122 0.0
H2739 H 0.31769 0.42098 0.78841 0.0
H2740 H 0.2564 0.71414 0.79909 0.0
H2741 H 0.27556 0.69101 0.80197 0.0
H2742 H 0.2354 0.65311 0.80201 0.0
H2743 H 0.21632 0.67625 0.7994 0.0
H2744 H 0.27621 0.66347 0.82708 0.0
H2745 H 0.26579 0.63771 0.75925 0.0
H2746 H 0.261 0.65967 0.76778 0.0
H2747 H 0.24792 0.64147 0.7724 0.0
C2748 C 0.25173 0.70092 0.80012 0.0
C2749 C 0.23499 0.69682 0.79883 0.0
C2750 C 0.26262 0.68776 0.8017 0.0
C2751 C 0.25687 0.67035 0.80196 0.0
C2752 C 0.24007 0.66644 0.80162 0.0
H2753 H 0.30046 0.56951 0.79046 0.0
H2754 H 0.28215 0.59387 0.79366 0.0
C2755 C 0.22922 0.67959 0.80011 0.0
C2756 C 0.26839 0.65606 0.80133 0.0
H2757 H 0.28218 0.62134 0.77517 0.0
C2758 C 0.2776 0.65426 0.81575 0.0
C2759 C 0.27011 0.64412 0.78651 0.0
C2760 C 0.2608 0.64582 0.77052 0.0
C2761 C 0.28827 0.64049 0.81586 0.0
C2762 C 0.28999 0.62851 0.80101 0.0
C2763 C 0.28083 0.63048 0.78656 0.0
C2764 C 0.30112 0.61375 0.80007 0.0
C2765 C 0.29723 0.63864 0.83201 0.0
C2766 C 0.31788 0.61682 0.80255 0.0
C2767 C 0.32837 0.60289 0.80078 0.0
C2768 C 0.32231 0.58567 0.79623 0.0
C2769 C 0.30552 0.58264 0.79379 0.0
C2770 C 0.29504 0.59654 0.79568 0.0
H2771 H 0.29122 0.6456 0.84338 0.0
H2772 H 0.29808 0.62467 0.83405 0.0
H2773 H 0.30975 0.64442 0.83101 0.0
H2774 H 0.32292 0.63001 0.80549 0.0
H2775 H 0.34128 0.60566 0.8025 0.0
H2776 H 0.95117 0.52538 0.50618 0.0
H2777 H 0.92737 0.50646 0.51213 0.0
H2778 H 0.90579 0.51716 0.46519 0.0
H2779 H 0.92948 0.53632 0.45946 0.0
H2780 H 0.88454 0.52056 0.49382 0.0
H2781 H 0.91543 0.45743 0.48786 0.0
H2782 H 0.92482 0.47449 0.50227 0.0
H2783 H 0.92436 0.47683 0.47988 0.0
C2784 C 0.9413 0.52362 0.4972 0.0
C2785 C 0.94206 0.53216 0.48237 0.0
C2786 C 0.92782 0.51276 0.50051 0.0
C2787 C 0.91492 0.51024 0.48898 0.0
C2788 C 0.91566 0.51886 0.47418 0.0
H2789 H 0.83523 0.43268 0.48425 0.0
H2790 H 0.85934 0.45112 0.4789 0.0
C2791 C 0.92916 0.52968 0.47088 0.0
C2792 C 0.90046 0.49901 0.49256 0.0
H2793 H 0.88814 0.45704 0.49807 0.0
C2794 C 0.8853 0.50667 0.49474 0.0
C2795 C 0.9015 0.48087 0.49358 0.0
C2796 C 0.91736 0.47183 0.49063 0.0
C2797 C 0.87115 0.4967 0.49811 0.0
C2798 C 0.87225 0.47863 0.49952 0.0
C2799 C 0.88738 0.47093 0.49714 0.0
C2800 C 0.85775 0.46741 0.503 0.0
C2801 C 0.8551 0.50549 0.49981 0.0
C2802 C 0.84899 0.47033 0.51843 0.0
C2803 C 0.83516 0.45987 0.5215 0.0
C2804 C 0.82985 0.44627 0.50919 0.0
C2805 C 0.83883 0.44322 0.49387 0.0
C2806 C 0.85267 0.45366 0.49084 0.0
H2807 H 0.85576 0.5183 0.49453 0.0
H2808 H 0.84536 0.49706 0.49318 0.0
H2809 H 0.85163 0.50784 0.51352 0.0
H2810 H 0.85286 0.48072 0.52809 0.0
H2811 H 0.82847 0.46262 0.53339 0.0
H2812 H 0.77583 0.82427 0.77785 0.0
H2813 H 0.75658 0.84702 0.7741 0.0
H2814 H 0.76774 0.87215 0.82441 0.0
H2815 H 0.78725 0.84963 0.82792 0.0
H2816 H 0.72893 0.8568 0.79412 0.0
H2817 H 0.77485 0.91183 0.79394 0.0
H2818 H 0.78027 0.88922 0.79112 0.0
H2819 H 0.77565 0.89971 0.81206 0.0
C2820 C 0.7742 0.83476 0.78799 0.0
C2821 C 0.783 0.83536 0.80311 0.0
C2822 C 0.76319 0.84765 0.7859 0.0
C2823 C 0.76091 0.86141 0.79888 0.0
C2824 C 0.76953 0.86184 0.81412 0.0
H2825 H 0.70212 0.95308 0.80933 0.0
H2826 H 0.72002 0.92957 0.81394 0.0
C2827 C 0.78052 0.84894 0.81619 0.0
C2828 C 0.74941 0.87521 0.79652 0.0
H2829 H 0.74718 0.91913 0.79455 0.0
C2830 C 0.7329 0.87043 0.79415 0.0
C2831 C 0.75465 0.89297 0.7966 0.0
C2832 C 0.77234 0.89878 0.79841 0.0
C2833 C 0.72142 0.88298 0.79212 0.0
C2834 C 0.72667 0.90074 0.79217 0.0
C2835 C 0.74318 0.90552 0.79456 0.0
C2836 C 0.71527 0.91458 0.78956 0.0
C2837 C 0.70374 0.87717 0.79031 0.0
C2838 C 0.7067 0.91399 0.77429 0.0
C2839 C 0.69637 0.92734 0.77165 0.0
C2840 C 0.69447 0.94162 0.78421 0.0
C2841 C 0.70309 0.94215 0.7995 0.0
C2842 C 0.71342 0.92879 0.80212 0.0
H2843 H 0.70119 0.86427 0.7951 0.0
H2844 H 0.69578 0.88689 0.79731 0.0
H2845 H 0.70053 0.87587 0.77661 0.0
H2846 H 0.70817 0.90331 0.76429 0.0
H2847 H 0.68984 0.92644 0.75979 0.0
H2848 H 0.57295 0.52567 0.997 0.0
H2849 H 0.59949 0.54053 1.00297 0.0
H2850 H 0.62266 0.49127 0.99201 0.0
H2851 H 0.59603 0.47657 0.98538 0.0
H2852 H 0.62458 0.53794 0.02447 0.0
H2853 H 0.6443 0.52003 0.95722 0.0
H2854 H 0.62359 0.51666 0.96439 0.0
H2855 H 0.6388 0.50176 0.96874 0.0
C2856 C 0.58373 0.51805 0.99613 0.0
C2857 C 0.58257 0.50009 0.99052 0.0
C2858 C 0.59886 0.52649 0.99955 0.0
C2859 C 0.61314 0.51711 0.99749 0.0
C2860 C 0.61186 0.49886 0.99324 0.0
H2861 H 0.71434 0.55788 0.99872 0.0
H2862 H 0.68993 0.53859 0.99889 0.0
C2863 C 0.59667 0.49043 0.98971 0.0
C2864 C 0.62923 0.52671 0.99868 0.0
H2865 H 0.6631 0.53657 0.97521 0.0
C2866 C 0.63304 0.53755 0.01373 0.0
C2867 C 0.64025 0.52632 0.98462 0.0
C2868 C 0.63653 0.51571 0.96777 0.0
C2869 C 0.64748 0.54805 0.01505 0.0
C2870 C 0.65833 0.54781 1.00092 0.0
C2871 C 0.65475 0.53668 0.98603 0.0
C2872 C 0.67314 0.55955 1.00105 0.0
C2873 C 0.65101 0.55936 0.03154 0.0
C2874 C 0.67179 0.57772 1.00191 0.0
C2875 C 0.6857 0.5888 1.00155 0.0
C2876 C 0.70131 0.58194 1.00035 0.0
C2877 C 0.70257 0.56367 0.99941 0.0
C2878 C 0.68863 0.55259 0.99965 0.0
H2879 H 0.64359 0.55502 0.04234 0.0
H2880 H 0.66407 0.55922 0.03472 0.0
H2881 H 0.6481 0.57305 0.03012 0.0
H2882 H 0.65993 0.58334 1.00263 0.0
H2883 H 0.68418 0.60274 1.00197 0.0
H2884 H 0.30019 0.68874 0.21921 0.0
H2885 H 0.28384 0.66345 0.22736 0.0
H2886 H 0.27139 0.69287 0.27527 0.0
H2887 H 0.28793 0.71816 0.26704 0.0
H2888 H 0.27682 0.65498 0.27637 0.0
H2889 H 0.23346 0.66902 0.22704 0.0
H2890 H 0.25406 0.66635 0.21958 0.0
H2891 H 0.24938 0.68451 0.23497 0.0
C2892 C 0.29432 0.68953 0.23167 0.0
C2893 C 0.29516 0.70525 0.24251 0.0
C2894 C 0.28495 0.67519 0.23628 0.0
C2895 C 0.27619 0.67643 0.25178 0.0
C2896 C 0.27803 0.6917 0.26323 0.0
H2897 H 0.18838 0.61377 0.26981 0.0
H2898 H 0.2087 0.63763 0.26779 0.0
C2899 C 0.28749 0.70606 0.2586 0.0
C2900 C 0.26388 0.66253 0.2551 0.0
H2901 H 0.22813 0.6431 0.2401 0.0
C2902 C 0.26614 0.65238 0.2685 0.0
C2903 C 0.24983 0.6594 0.24498 0.0
C2904 C 0.24639 0.67047 0.23092 0.0
C2905 C 0.25487 0.63882 0.27176 0.0
C2906 C 0.24113 0.63528 0.26123 0.0
C2907 C 0.23872 0.64574 0.24809 0.0
C2908 C 0.22904 0.62077 0.26345 0.0
C2909 C 0.25767 0.62855 0.28657 0.0
C2910 C 0.2337 0.60333 0.26157 0.0
C2911 C 0.22209 0.58965 0.26261 0.0
C2912 C 0.20556 0.59311 0.26545 0.0
C2913 C 0.20096 0.61061 0.2674 0.0
C2914 C 0.21258 0.62428 0.26637 0.0
H2915 H 0.26607 0.63578 0.296 0.0
H2916 H 0.24604 0.62545 0.29317 0.0
H2917 H 0.26321 0.61604 0.28176 0.0
H2918 H 0.24626 0.60028 0.25887 0.0
H2919 H 0.22603 0.57632 0.26077 0.0
H2920 H 0.95959 0.50064 0.03239 0.0
H2921 H 0.93788 0.51937 0.02577 0.0
H2922 H 0.92043 0.52156 0.07791 0.0
H2923 H 0.94136 0.5016 0.08407 0.0
H2924 H 0.89597 0.51718 0.05806 0.0
H2925 H 0.9349 0.57053 0.03564 0.0
H2926 H 0.9386 0.55013 0.02323 0.0
H2927 H 0.94317 0.55301 0.04566 0.0
C2928 C 0.95102 0.50504 0.04236 0.0
C2929 C 0.95213 0.4997 0.05874 0.0
C2930 C 0.93878 0.51599 0.03867 0.0
C2931 C 0.92769 0.52229 0.05143 0.0
C2932 C 0.92888 0.51702 0.06785 0.0
H2933 H 0.86399 0.60697 0.03701 0.0
H2934 H 0.88568 0.58915 0.0456 0.0
C2935 C 0.94092 0.50576 0.07144 0.0
C2936 C 0.91444 0.53372 0.04749 0.0
H2937 H 0.90669 0.57033 0.02874 0.0
C2938 C 0.89836 0.5289 0.0518 0.0
C2939 C 0.91749 0.54922 0.03959 0.0
C2940 C 0.93449 0.55612 0.03595 0.0
C2941 C 0.88526 0.53892 0.04818 0.0
C2942 C 0.88821 0.5538 0.03932 0.0
C2943 C 0.90433 0.5588 0.03529 0.0
C2944 C 0.87485 0.56451 0.03427 0.0
C2945 C 0.86848 0.53361 0.05433 0.0
C2946 C 0.86159 0.5567 0.02488 0.0
C2947 C 0.84903 0.56684 0.02032 0.0
C2948 C 0.84975 0.58505 0.02458 0.0
C2949 C 0.8632 0.59294 0.03354 0.0
C2950 C 0.87557 0.58277 0.03844 0.0
H2951 H 0.86906 0.52608 0.06552 0.0
H2952 H 0.86106 0.54517 0.05796 0.0
H2953 H 0.86223 0.52505 0.044 0.0
H2954 H 0.86098 0.54276 0.02096 0.0
H2955 H 0.83888 0.56049 0.0132 0.0
H2956 H 0.0575 0.01056 0.02751 0.0
H2957 H 0.08283 0.99556 0.01966 0.0
H2958 H 0.106 0.02317 0.06392 0.0
H2959 H 0.08072 0.03805 0.07168 0.0
H2960 H 0.11806 0.0071 0.01563 0.0
H2961 H 0.10416 0.96956 0.07081 0.0
H2962 H 0.08918 0.98203 0.06167 0.0
H2963 H 0.10441 0.99296 0.07546 0.0
C2964 C 0.06823 0.01381 0.03514 0.0
C2965 C 0.06729 0.02531 0.0502 0.0
C2966 C 0.08261 1.00521 0.03074 0.0
C2967 C 0.09617 0.00806 0.04138 0.0
C2968 C 0.09561 0.02066 0.05565 0.0
H2969 H 0.19314 0.96784 0.03281 0.0
H2970 H 0.1695 0.9861 0.03445 0.0
C2971 C 0.08126 0.0292 0.06003 0.0
C2972 C 0.11021 0.9966 0.03873 0.0
H2973 H 0.12937 0.96479 0.05659 0.0
C2974 C 0.12055 0.99782 0.02454 0.0
C2975 C 0.11325 0.98433 0.05026 0.0
C2976 C 0.10212 0.98196 0.06535 0.0
C2977 C 0.13414 0.98733 0.02179 0.0
C2978 C 0.13745 0.97545 0.03362 0.0
C2979 C 0.12687 0.97399 0.0476 0.0
C2980 C 0.15183 0.96437 0.03183 0.0
C2981 C 0.14471 0.98889 0.00615 0.0
C2982 C 0.14976 0.94607 0.03013 0.0
C2983 C 0.16325 0.93556 0.02915 0.0
C2984 C 0.17913 0.94315 0.03001 0.0
C2985 C 0.18113 0.96152 0.0318 0.0
C2986 C 0.16762 0.97201 0.03272 0.0
H2987 H 0.13839 0.99526 0.99633 0.0
H2988 H 0.15584 0.99697 0.00984 0.0
H2989 H 0.1485 0.97583 1.00043 0.0
H2990 H 0.13767 0.93991 0.0295 0.0
H2991 H 0.16123 0.92149 0.02755 0.0
loop_
_geom_bond_atom_site_label_1
_geom_bond_atom_site_label_2
_geom_bond_distance
_geom_bond_site_symmetry_2
_ccdc_geom_bond_type
C0 N1 1.317 1_565 S
C0 N2 1.348 1_565 S
C0 C3 1.485 . S
N1 C0 1.317 1_545 S
N1 N5 1.370 . S
N2 C0 1.348 1_545 S
N2 C4 1.346 . S
C3 C0 1.485 . S
C3 H7 0.960 . S
C3 H8 0.961 . S
C3 H9 0.960 . S
C4 N2 1.346 . S
C4 N5 1.307 . S
C4 C6 1.486 1_455 S
N5 N1 1.370 . S
N5 C4 1.307 . S
C6 C4 1.486 1_655 S
C6 H10 0.960 . S
C6 H11 0.960 . S
C6 H12 0.959 . S
H7 C3 0.960 . S
H8 C3 0.961 . S
H9 C3 0.960 . S
H10 C6 0.960 . S
H11 C6 0.960 . S
H12 C6 0.959 . S
C13 N14 1.317 . S
C13 N15 1.348 . S
C13 C16 1.485 . S
N14 C13 1.317 . S
N14 N18 1.370 . S
N15 C13 1.348 . S
N15 C17 1.346 . S
C16 C13 1.485 . S
C16 H20 0.960 . S
C16 H21 0.961 . S
C16 H22 0.960 . S
C17 N15 1.346 . S
C17 N18 1.307 . S
C17 C19 1.486 . S
N18 N14 1.370 . S
N18 C17 1.307 . S
C19 C17 1.486 . S
C19 H23 0.960 . S
C19 H24 0.960 . S
C19 H25 0.959 . S
H20 C16 0.960 . S
H21 C16 0.961 . S
H22 C16 0.960 . S
H23 C19 0.960 . S
H24 C19 0.960 . S
H25 C19 0.959 . S
C26 N27 1.317 . S
C26 N28 1.348 . S
C26 C29 1.485 . S
N27 C26 1.317 . S
N27 N31 1.370 . S
N28 C26 1.348 . S
N28 C30 1.346 . S
C29 C26 1.485 . S
C29 H33 0.960 . S
C29 H34 0.961 . S
C29 H35 0.960 . S
C30 N28 1.346 . S
C30 N31 1.307 . S
C30 C32 1.486 . S
N31 N27 1.370 . S
N31 C30 1.307 . S
C32 C30 1.486 . S
C32 H36 0.960 . S
C32 H37 0.960 . S
C32 H38 0.959 . S
H33 C29 0.960 . S
H34 C29 0.961 . S
H35 C29 0.960 . S
H36 C32 0.960 . S
H37 C32 0.960 . S
H38 C32 0.959 . S
C39 N40 1.317 . S
C39 N41 1.348 . S
C39 C42 1.485 . S
N40 C39 1.317 . S
N40 N44 1.370 . S
N41 C39 1.348 . S
N41 C43 1.346 . S
C42 C39 1.485 . S
C42 H46 0.960 . S
C42 H47 0.961 . S
C42 H48 0.960 . S
C43 N41 1.346 . S
C43 N44 1.307 . S
C43 C45 1.486 . S
N44 N40 1.370 . S
N44 C43 1.307 . S
C45 C43 1.486 . S
C45 H49 0.960 . S
C45 H50 0.960 . S
C45 H51 0.959 . S
H46 C42 0.960 . S
H47 C42 0.961 . S
H48 C42 0.960 . S
H49 C45 0.960 . S
H50 C45 0.960 . S
H51 C45 0.959 . S
C52 N53 1.317 . S
C52 N54 1.348 . S
C52 C55 1.485 . S
N53 C52 1.317 . S
N53 N57 1.370 . S
N54 C52 1.348 . S
N54 C56 1.346 . S
C55 C52 1.485 . S
C55 H59 0.960 . S
C55 H60 0.961 . S
C55 H61 0.960 . S
C56 N54 1.346 . S
C56 N57 1.307 . S
C56 C58 1.486 1_565 S
N57 N53 1.370 . S
N57 C56 1.307 . S
C58 C56 1.486 1_545 S
C58 H62 0.960 . S
C58 H63 0.960 . S
C58 H64 0.959 . S
H59 C55 0.960 . S
H60 C55 0.961 . S
H61 C55 0.960 . S
H62 C58 0.960 . S
H63 C58 0.960 . S
H64 C58 0.959 . S
C65 N66 1.317 . S
C65 N67 1.348 . S
C65 C68 1.485 . S
N66 C65 1.317 . S
N66 N70 1.370 . S
N67 C65 1.348 . S
N67 C69 1.346 . S
C68 C65 1.485 . S
C68 H72 0.960 . S
C68 H73 0.961 . S
C68 H74 0.960 . S
C69 N67 1.346 . S
C69 N70 1.307 . S
C69 C71 1.486 . S
N70 N66 1.370 . S
N70 C69 1.307 . S
C71 C69 1.486 . S
C71 H75 0.960 . S
C71 H76 0.960 . S
C71 H77 0.959 . S
H72 C68 0.960 . S
H73 C68 0.961 . S
H74 C68 0.960 . S
H75 C71 0.960 . S
H76 C71 0.960 . S
H77 C71 0.959 . S
C78 N79 1.317 . S
C78 N80 1.348 . S
C78 C81 1.485 . S
N79 C78 1.317 . S
N79 N83 1.370 . S
N80 C78 1.348 . S
N80 C82 1.346 . S
C81 C78 1.485 . S
C81 H85 0.960 . S
C81 H86 0.961 . S
C81 H87 0.960 . S
C82 N80 1.346 . S
C82 N83 1.307 . S
C82 C84 1.486 . S
N83 N79 1.370 . S
N83 C82 1.307 . S
C84 C82 1.486 . S
C84 H88 0.960 . S
C84 H89 0.960 . S
C84 H90 0.959 . S
H85 C81 0.960 . S
H86 C81 0.961 . S
H87 C81 0.960 . S
H88 C84 0.960 . S
H89 C84 0.960 . S
H90 C84 0.959 . S
C91 N92 1.317 . S
C91 N93 1.348 . S
C91 C94 1.485 . S
N92 C91 1.317 . S
N92 N96 1.370 . S
N93 C91 1.348 . S
N93 C95 1.346 . S
C94 C91 1.485 . S
C94 H98 0.960 . S
C94 H99 0.961 . S
C94 H100 0.960 . S
C95 N93 1.346 . S
C95 N96 1.307 . S
C95 C97 1.486 . S
N96 N92 1.370 . S
N96 C95 1.307 . S
C97 C95 1.486 . S
C97 H101 0.960 . S
C97 H102 0.960 . S
C97 H103 0.959 . S
H98 C94 0.960 . S
H99 C94 0.961 . S
H100 C94 0.960 . S
H101 C97 0.960 . S
H102 C97 0.960 . S
H103 C97 0.959 . S
C104 N105 1.317 . S
C104 N106 1.348 . S
C104 C107 1.485 . S
N105 C104 1.317 . S
N105 N109 1.370 . S
N106 C104 1.348 . S
N106 C108 1.346 . S
C107 C104 1.485 . S
C107 H111 0.960 . S
C107 H112 0.961 . S
C107 H113 0.960 . S
C108 N106 1.346 . S
C108 N109 1.307 . S
C108 C110 1.486 . S
N109 N105 1.370 . S
N109 C108 1.307 . S
C110 C108 1.486 . S
C110 H114 0.960 . S
C110 H115 0.960 . S
C110 H116 0.959 . S
H111 C107 0.960 . S
H112 C107 0.961 . S
H113 C107 0.960 . S
H114 C110 0.960 . S
H115 C110 0.960 . S
H116 C110 0.959 . S
C117 N118 1.317 . S
C117 N119 1.348 . S
C117 C120 1.485 1_565 S
N118 C117 1.317 . S
N118 N122 1.370 . S
N119 C117 1.348 . S
N119 C121 1.346 . S
C120 C117 1.485 1_545 S
C120 H124 0.960 . S
C120 H125 0.961 . S
C120 H126 0.960 . S
C121 N119 1.346 . S
C121 N122 1.307 . S
C121 C123 1.486 . S
N122 N118 1.370 . S
N122 C121 1.307 . S
C123 C121 1.486 . S
C123 H127 0.960 . S
C123 H128 0.960 . S
C123 H129 0.959 . S
H124 C120 0.960 . S
H125 C120 0.961 . S
H126 C120 0.960 . S
H127 C123 0.960 . S
H128 C123 0.960 . S
H129 C123 0.959 . S
C130 N131 1.317 . S
C130 N132 1.348 . S
C130 C133 1.485 . S
N131 C130 1.317 . S
N131 N135 1.370 . S
N132 C130 1.348 . S
N132 C134 1.346 . S
C133 C130 1.485 . S
C133 H137 0.960 . S
C133 H138 0.961 . S
C133 H139 0.960 . S
C134 N132 1.346 . S
C134 N135 1.307 . S
C134 C136 1.486 . S
N135 N131 1.370 . S
N135 C134 1.307 . S
C136 C134 1.486 . S
C136 H140 0.960 . S
C136 H141 0.960 . S
C136 H142 0.959 . S
H137 C133 0.960 . S
H138 C133 0.961 . S
H139 C133 0.960 . S
H140 C136 0.960 . S
H141 C136 0.960 . S
H142 C136 0.959 . S
C143 N144 1.317 . S
C143 N145 1.348 . S
C143 C146 1.485 . S
N144 C143 1.317 . S
N144 N148 1.370 . S
N145 C143 1.348 . S
N145 C147 1.346 . S
C146 C143 1.485 . S
C146 H150 0.960 . S
C146 H151 0.961 . S
C146 H152 0.960 . S
C147 N145 1.346 . S
C147 N148 1.307 . S
C147 C149 1.486 . S
N148 N144 1.370 . S
N148 C147 1.307 . S
C149 C147 1.486 . S
C149 H153 0.960 . S
C149 H154 0.960 . S
C149 H155 0.959 . S
H150 C146 0.960 . S
H151 C146 0.961 . S
H152 C146 0.960 . S
H153 C149 0.960 . S
H154 C149 0.960 . S
H155 C149 0.959 . S
C156 N157 1.317 . S
C156 N158 1.348 . S
C156 C159 1.485 . S
N157 C156 1.317 . S
N157 N161 1.370 . S
N158 C156 1.348 . S
N158 C160 1.346 . S
C159 C156 1.485 . S
C159 H163 0.960 . S
C159 H164 0.961 . S
C159 H165 0.960 . S
C160 N158 1.346 . S
C160 N161 1.307 . S
C160 C162 1.486 . S
N161 N157 1.370 . S
N161 C160 1.307 . S
C162 C160 1.486 . S
C162 H166 0.960 . S
C162 H167 0.960 . S
C162 H168 0.959 . S
H163 C159 0.960 . S
H164 C159 0.961 . S
H165 C159 0.960 . S
H166 C162 0.960 . S
H167 C162 0.960 . S
H168 C162 0.959 . S
C169 N170 1.317 . S
C169 N171 1.348 . S
C169 C172 1.485 . S
N170 C169 1.317 . S
N170 N174 1.370 . S
N171 C169 1.348 . S
N171 C173 1.346 . S
C172 C169 1.485 . S
C172 H176 0.960 . S
C172 H177 0.961 . S
C172 H178 0.960 . S
C173 N171 1.346 . S
C173 N174 1.307 . S
C173 C175 1.486 . S
N174 N170 1.370 . S
N174 C173 1.307 . S
C175 C173 1.486 . S
C175 H179 0.960 . S
C175 H180 0.960 . S
C175 H181 0.959 . S
H176 C172 0.960 . S
H177 C172 0.961 . S
H178 C172 0.960 . S
H179 C175 0.960 . S
H180 C175 0.960 . S
H181 C175 0.959 . S
C182 N183 1.317 . S
C182 N184 1.348 . S
C182 C185 1.485 . S
N183 C182 1.317 . S
N183 N187 1.370 . S
N184 C182 1.348 . S
N184 C186 1.346 . S
C185 C182 1.485 . S
C185 H189 0.960 . S
C185 H190 0.961 . S
C185 H191 0.960 . S
C186 N184 1.346 . S
C186 N187 1.307 . S
C186 C188 1.486 . S
N187 N183 1.370 . S
N187 C186 1.307 . S
C188 C186 1.486 . S
C188 H192 0.960 . S
C188 H193 0.960 . S
C188 H194 0.959 . S
H189 C185 0.960 . S
H190 C185 0.961 . S
H191 C185 0.960 . S
H192 C188 0.960 . S
H193 C188 0.960 . S
H194 C188 0.959 . S
C195 N196 1.317 . S
C195 N197 1.348 . S
C195 C198 1.485 . S
N196 C195 1.317 . S
N196 N200 1.370 . S
N197 C195 1.348 . S
N197 C199 1.346 . S
C198 C195 1.485 . S
C198 H202 0.960 . S
C198 H203 0.961 . S
C198 H204 0.960 . S
C199 N197 1.346 . S
C199 N200 1.307 . S
C199 C201 1.486 1_556 S
N200 N196 1.370 . S
N200 C199 1.307 . S
C201 C199 1.486 1_554 S
C201 H205 0.960 . S
C201 H206 0.979 . S
C201 H207 0.959 . S
H202 C198 0.960 . S
H203 C198 0.961 . S
H204 C198 0.960 . S
H205 C201 0.960 . S
H206 C201 0.979 . S
H207 C201 0.959 . S
Li208 N225 1.990 . S
Li208 O268 1.956 . S
Li208 O269 1.970 . S
Li208 O270 1.961 1_554 S
Li209 N233 1.990 . S
Li209 O268 1.970 . S
Li209 O269 1.956 . S
Li209 O271 1.961 . S
Li210 N255 1.990 . S
Li210 O268 1.961 1_556 S
Li210 O270 1.956 . S
Li210 O271 1.970 1_556 S
Li211 N261 1.990 . S
Li211 O269 1.961 . S
Li211 O270 1.970 1_554 S
Li211 O271 1.956 . S
C212 C214 1.348 . S
C212 C215 1.356 1_554 S
C212 O268 1.325 . S
N213 C216 1.314 1_556 S
N213 C217 1.279 . S
C214 C212 1.348 . S
C214 C216 1.353 . S
C214 H272 0.929 . S
C215 C212 1.356 1_556 S
C215 C217 1.358 . S
C215 H273 0.930 . S
C216 N213 1.314 1_554 S
C216 C214 1.353 . S
C216 H274 0.930 . S
C217 N213 1.279 . S
C217 C215 1.358 . S
C217 H275 0.930 . S
C218 C221 1.348 . S
C218 C222 1.356 . S
C218 O269 1.325 . S
C219 N220 1.279 . S
C219 C222 1.358 . S
C219 H276 0.930 . S
N220 C219 1.279 . S
N220 C223 1.314 . S
C221 C218 1.348 . S
C221 C223 1.353 . S
C221 H277 0.929 . S
C222 C218 1.356 . S
C222 C219 1.358 . S
C222 H278 0.930 . S
C223 N220 1.314 . S
C223 C221 1.353 . S
C223 H279 0.930 . S
C224 N225 1.314 . S
C224 C229 1.352 1_554 S
C224 H230 0.932 . S
N225 Li208 1.990 . S
N225 C224 1.314 . S
N225 C227 1.279 . S
C226 C227 1.358 . S
C226 C228 1.356 . S
C226 H280 0.930 . S
C227 N225 1.279 . S
C227 C226 1.358 . S
C227 H231 0.930 . S
C228 C226 1.356 . S
C228 C229 1.346 1_554 S
C229 C224 1.352 1_556 S
C229 C228 1.346 1_556 S
C229 H281 0.933 . S
H230 C224 0.932 . S
H231 C227 0.930 . S
C232 N233 1.314 . S
C232 C234 1.353 . S
C232 H238 0.930 . S
N233 Li209 1.990 . S
N233 C232 1.314 . S
N233 C236 1.279 . S
C234 C232 1.353 . S
C234 C237 1.348 . S
C234 H282 0.929 . S
C235 C236 1.358 . S
C235 C237 1.356 . S
C235 H283 0.930 . S
C236 N233 1.279 . S
C236 C235 1.358 . S
C236 H239 0.930 . S
C237 C234 1.348 . S
C237 C235 1.356 . S
H238 C232 0.930 . S
H239 C236 0.930 . S
C240 C242 1.348 . S
C240 C243 1.356 . S
C240 O270 1.325 . S
N241 C244 1.314 . S
N241 C245 1.279 . S
C242 C240 1.348 . S
C242 C244 1.353 . S
C242 H284 0.929 . S
C243 C240 1.356 . S
C243 C245 1.358 . S
C243 H285 0.930 . S
C244 N241 1.314 . S
C244 C242 1.353 . S
C244 H286 0.930 . S
C245 N241 1.279 . S
C245 C243 1.358 . S
C245 H287 0.930 . S
C246 C247 1.303 1_554 S
C246 C248 1.356 . S
C246 O271 1.325 . S
C247 C246 1.303 1_556 S
C247 C249 1.341 1_556 S
C247 H288 0.988 . S
C248 C246 1.356 . S
C248 C250 1.358 . S
C248 H289 0.930 . S
C249 C247 1.341 1_554 S
C249 N251 1.314 . S
C249 H290 0.930 1_554 S
C250 C248 1.358 . S
C250 N251 1.279 . S
C250 H291 0.930 . S
N251 C249 1.314 . S
N251 C250 1.279 . S
C252 C254 1.353 . S
C252 N255 1.314 . S
C252 H258 0.930 . S
C253 N255 1.279 . S
C253 C256 1.358 . S
C253 H259 0.930 . S
C254 C252 1.353 . S
C254 C257 1.348 . S
C254 H292 0.929 . S
N255 Li210 1.990 . S
N255 C252 1.314 . S
N255 C253 1.279 . S
C256 C253 1.358 . S
C256 C257 1.356 . S
C256 H293 0.930 . S
C257 C254 1.348 . S
C257 C256 1.356 . S
H258 C252 0.930 . S
H259 C253 0.930 . S
C260 N261 1.314 . S
C260 C262 1.353 . S
C260 H266 0.930 . S
N261 Li211 1.990 . S
N261 C260 1.314 . S
N261 C264 1.279 . S
C262 C260 1.353 . S
C262 C265 1.348 . S
C262 H294 0.929 . S
C263 C264 1.358 . S
C263 C265 1.356 . S
C263 H295 0.930 . S
C264 N261 1.279 . S
C264 C263 1.358 . S
C264 H267 0.930 . S
C265 C262 1.348 . S
C265 C263 1.356 . S
H266 C260 0.930 . S
H267 C264 0.930 . S
O268 Li208 1.956 . S
O268 Li209 1.970 . S
O268 Li210 1.961 1_554 S
O268 C212 1.325 . S
O269 Li208 1.970 . S
O269 Li209 1.956 . S
O269 Li211 1.961 . S
O269 C218 1.325 . S
O270 Li208 1.961 1_556 S
O270 Li210 1.956 . S
O270 Li211 1.970 1_556 S
O270 C240 1.325 . S
O271 Li209 1.961 . S
O271 Li210 1.970 1_554 S
O271 Li211 1.956 . S
O271 C246 1.325 . S
H272 C214 0.929 . S
H273 C215 0.930 . S
H274 C216 0.930 . S
H275 C217 0.930 . S
H276 C219 0.930 . S
H277 C221 0.929 . S
H278 C222 0.930 . S
H279 C223 0.930 . S
H280 C226 0.930 . S
H281 C229 0.933 . S
H282 C234 0.929 . S
H283 C235 0.930 . S
H284 C242 0.929 . S
H285 C243 0.930 . S
H286 C244 0.930 . S
H287 C245 0.930 . S
H288 C247 0.988 . S
H289 C248 0.930 . S
H290 C249 0.930 1_556 S
H291 C250 0.930 . S
H292 C254 0.929 . S
H293 C256 0.930 . S
H294 C262 0.929 . S
H295 C263 0.930 . S
Li296 N313 1.990 . S
Li296 O356 1.956 . S
Li296 O357 1.970 . S
Li296 O358 1.961 . S
Li297 N321 1.990 . S
Li297 O356 1.970 . S
Li297 O357 1.956 . S
Li297 O359 1.961 . S
Li298 N343 1.990 . S
Li298 O356 1.961 . S
Li298 O358 1.956 . S
Li298 O359 1.970 . S
Li299 N349 1.990 . S
Li299 O357 1.961 . S
Li299 O358 1.970 . S
Li299 O359 1.956 . S
C300 C302 1.348 . S
C300 C303 1.356 . S
C300 O356 1.325 . S
N301 C304 1.314 . S
N301 C305 1.279 . S
C302 C300 1.348 . S
C302 C304 1.353 . S
C302 H360 0.929 . S
C303 C300 1.356 . S
C303 C305 1.358 . S
C303 H361 0.930 . S
C304 N301 1.314 . S
C304 C302 1.353 . S
C304 H362 0.930 . S
C305 N301 1.279 . S
C305 C303 1.358 . S
C305 H363 0.930 . S
C306 C309 1.348 . S
C306 C310 1.356 . S
C306 O357 1.325 . S
C307 N308 1.279 . S
C307 C310 1.358 . S
C307 H364 0.930 . S
N308 C307 1.279 . S
N308 C311 1.314 . S
C309 C306 1.348 . S
C309 C311 1.353 . S
C309 H365 0.929 . S
C310 C306 1.356 . S
C310 C307 1.358 . S
C310 H366 0.930 . S
C311 N308 1.314 . S
C311 C309 1.353 . S
C311 H367 0.930 . S
C312 N313 1.314 . S
C312 C317 1.353 . S
C312 H318 0.930 . S
N313 Li296 1.990 . S
N313 C312 1.314 . S
N313 C315 1.279 . S
C314 C315 1.358 . S
C314 C316 1.356 . S
C314 H368 0.930 . S
C315 N313 1.279 . S
C315 C314 1.358 . S
C315 H319 0.930 . S
C316 C314 1.356 . S
C316 C317 1.348 . S
C317 C312 1.353 . S
C317 C316 1.348 . S
C317 H369 0.929 . S
H318 C312 0.930 . S
H319 C315 0.930 . S
C320 N321 1.314 . S
C320 C322 1.353 . S
C320 H326 0.930 . S
N321 Li297 1.990 . S
N321 C320 1.314 . S
N321 C324 1.279 . S
C322 C320 1.353 . S
C322 C325 1.348 . S
C322 H370 0.929 . S
C323 C324 1.358 . S
C323 C325 1.356 . S
C323 H371 0.930 . S
C324 N321 1.279 . S
C324 C323 1.358 . S
C324 H327 0.930 . S
C325 C322 1.348 . S
C325 C323 1.356 . S
H326 C320 0.930 . S
H327 C324 0.930 . S
C328 C330 1.348 . S
C328 C331 1.356 . S
C328 O358 1.325 . S
N329 C332 1.314 . S
N329 C333 1.279 . S
C330 C328 1.348 . S
C330 C332 1.353 . S
C330 H372 0.929 . S
C331 C328 1.356 . S
C331 C333 1.358 . S
C331 H373 0.930 . S
C332 N329 1.314 . S
C332 C330 1.353 . S
C332 H374 0.930 . S
C333 N329 1.279 . S
C333 C331 1.358 . S
C333 H375 0.930 . S
C334 C335 1.348 . S
C334 C336 1.356 . S
C334 O359 1.325 . S
C335 C334 1.348 . S
C335 C337 1.353 . S
C335 H376 0.929 . S
C336 C334 1.356 . S
C336 C338 1.358 . S
C336 H377 0.930 . S
C337 C335 1.353 . S
C337 N339 1.314 . S
C337 H378 0.930 . S
C338 C336 1.358 . S
C338 N339 1.279 . S
C338 H379 0.930 . S
N339 C337 1.314 . S
N339 C338 1.279 . S
C340 C342 1.353 . S
C340 N343 1.314 . S
C340 H346 0.930 . S
C341 N343 1.279 . S
C341 C344 1.358 . S
C341 H347 0.930 . S
C342 C340 1.353 . S
C342 C345 1.348 . S
C342 H380 0.929 . S
N343 Li298 1.990 . S
N343 C340 1.314 . S
N343 C341 1.279 . S
C344 C341 1.358 . S
C344 C345 1.356 . S
C344 H381 0.930 . S
C345 C342 1.348 . S
C345 C344 1.356 . S
H346 C340 0.930 . S
H347 C341 0.930 . S
C348 N349 1.314 . S
C348 C350 1.353 . S
C348 H354 0.930 . S
N349 Li299 1.990 . S
N349 C348 1.314 . S
N349 C352 1.279 . S
C350 C348 1.353 . S
C350 C353 1.348 . S
C350 H382 0.929 . S
C351 C352 1.358 . S
C351 C353 1.356 . S
C351 H383 0.930 . S
C352 N349 1.279 . S
C352 C351 1.358 . S
C352 H355 0.930 . S
C353 C350 1.348 . S
C353 C351 1.356 . S
H354 C348 0.930 . S
H355 C352 0.930 . S
O356 Li296 1.956 . S
O356 Li297 1.970 . S
O356 Li298 1.961 . S
O356 C300 1.325 . S
O357 Li296 1.970 . S
O357 Li297 1.956 . S
O357 Li299 1.961 . S
O357 C306 1.325 . S
O358 Li296 1.961 . S
O358 Li298 1.956 . S
O358 Li299 1.970 . S
O358 C328 1.325 . S
O359 Li297 1.961 . S
O359 Li298 1.970 . S
O359 Li299 1.956 . S
O359 C334 1.325 . S
H360 C302 0.929 . S
H361 C303 0.930 . S
H362 C304 0.930 . S
H363 C305 0.930 . S
H364 C307 0.930 . S
H365 C309 0.929 . S
H366 C310 0.930 . S
H367 C311 0.930 . S
H368 C314 0.930 . S
H369 C317 0.929 . S
H370 C322 0.929 . S
H371 C323 0.930 . S
H372 C330 0.929 . S
H373 C331 0.930 . S
H374 C332 0.930 . S
H375 C333 0.930 . S
H376 C335 0.929 . S
H377 C336 0.930 . S
H378 C337 0.930 . S
H379 C338 0.930 . S
H380 C342 0.929 . S
H381 C344 0.930 . S
H382 C350 0.929 . S
H383 C351 0.930 . S
Li384 N401 1.990 1_554 S
Li384 O444 1.956 . S
Li384 O445 1.970 . S
Li384 O446 1.961 1_554 S
Li385 N409 1.990 . S
Li385 O444 1.970 . S
Li385 O445 1.956 . S
Li385 O447 1.961 . S
Li386 N431 1.990 . S
Li386 O444 1.961 1_556 S
Li386 O446 1.956 . S
Li386 O447 1.970 1_556 S
Li387 N437 1.990 . S
Li387 O445 1.961 . S
Li387 O446 1.970 1_554 S
Li387 O447 1.956 . S
C388 C390 1.348 . S
C388 C391 1.356 1_554 S
C388 O444 1.325 . S
N389 C392 1.314 . S
N389 C393 1.279 1_554 S
C390 C388 1.348 . S
C390 C392 1.353 . S
C390 H448 0.929 . S
C391 C388 1.356 1_556 S
C391 C393 1.358 . S
C391 H449 0.930 . S
C392 N389 1.314 . S
C392 C390 1.353 . S
C392 H450 0.930 . S
C393 N389 1.279 1_556 S
C393 C391 1.358 . S
C393 H451 0.930 . S
C394 C397 1.348 . S
C394 C398 1.356 . S
C394 O445 1.325 . S
C395 N396 1.279 . S
C395 C398 1.358 . S
C395 H452 0.930 . S
N396 C395 1.279 . S
N396 C399 1.314 . S
C397 C394 1.348 . S
C397 C399 1.353 . S
C397 H453 0.929 . S
C398 C394 1.356 . S
C398 C395 1.358 . S
C398 H454 0.930 . S
C399 N396 1.314 . S
C399 C397 1.353 . S
C399 H455 0.930 . S
C400 N401 1.314 . S
C400 C405 1.353 . S
C400 H406 0.930 . S
N401 Li384 1.990 1_556 S
N401 C400 1.314 . S
N401 C403 1.279 . S
C402 C403 1.358 . S
C402 C404 1.356 . S
C402 H456 0.930 . S
C403 N401 1.279 . S
C403 C402 1.358 . S
C403 H407 0.930 1_556 S
C404 C402 1.356 . S
C404 C405 1.348 . S
C405 C400 1.353 . S
C405 C404 1.348 . S
C405 H457 0.929 . S
H406 C400 0.930 . S
H407 C403 0.930 1_554 S
C408 N409 1.314 . S
C408 C410 1.353 . S
C408 H414 0.930 . S
N409 Li385 1.990 . S
N409 C408 1.314 . S
N409 C412 1.279 . S
C410 C408 1.353 . S
C410 C413 1.348 . S
C410 H458 0.929 . S
C411 C412 1.358 . S
C411 C413 1.356 . S
C411 H459 0.930 . S
C412 N409 1.279 . S
C412 C411 1.358 . S
C412 H415 0.930 . S
C413 C410 1.348 . S
C413 C411 1.356 . S
H414 C408 0.930 . S
H415 C412 0.930 . S
C416 C418 1.348 . S
C416 C419 1.356 . S
C416 O446 1.325 . S
N417 C420 1.314 . S
N417 C421 1.279 . S
C418 C416 1.348 . S
C418 C420 1.353 . S
C418 H460 0.929 . S
C419 C416 1.356 . S
C419 C421 1.358 . S
C419 H461 0.930 . S
C420 N417 1.314 . S
C420 C418 1.353 . S
C420 H462 0.930 . S
C421 N417 1.279 . S
C421 C419 1.358 . S
C421 H463 0.930 . S
C422 C423 1.348 . S
C422 C424 1.356 . S
C422 O447 1.325 . S
C423 C422 1.348 . S
C423 C425 1.353 . S
C423 H464 0.929 1_554 S
C424 C422 1.356 . S
C424 C426 1.358 . S
C424 H465 0.930 . S
C425 C423 1.353 . S
C425 N427 1.314 . S
C425 H466 0.930 . S
C426 C424 1.358 . S
C426 N427 1.279 . S
C426 H467 0.930 . S
N427 C425 1.314 . S
N427 C426 1.279 . S
C428 C430 1.353 . S
C428 N431 1.314 . S
C428 H434 0.930 . S
C429 N431 1.279 . S
C429 C432 1.358 . S
C429 H435 0.930 . S
C430 C428 1.353 . S
C430 C433 1.348 . S
C430 H468 0.929 . S
N431 Li386 1.990 . S
N431 C428 1.314 . S
N431 C429 1.279 . S
C432 C429 1.358 . S
C432 C433 1.356 . S
C432 H469 0.930 . S
C433 C430 1.348 . S
C433 C432 1.356 . S
H434 C428 0.930 . S
H435 C429 0.930 . S
C436 N437 1.314 . S
C436 C438 1.353 . S
C436 H442 0.930 . S
N437 Li387 1.990 . S
N437 C436 1.314 . S
N437 C440 1.279 . S
C438 C436 1.353 . S
C438 C441 1.348 . S
C438 H470 0.929 . S
C439 C440 1.358 . S
C439 C441 1.356 . S
C439 H471 0.930 . S
C440 N437 1.279 . S
C440 C439 1.358 . S
C440 H443 0.930 . S
C441 C438 1.348 . S
C441 C439 1.356 . S
H442 C436 0.930 . S
H443 C440 0.930 . S
O444 Li384 1.956 . S
O444 Li385 1.970 . S
O444 Li386 1.961 1_554 S
O444 C388 1.325 . S
O445 Li384 1.970 . S
O445 Li385 1.956 . S
O445 Li387 1.961 . S
O445 C394 1.325 . S
O446 Li384 1.961 1_556 S
O446 Li386 1.956 . S
O446 Li387 1.970 1_556 S
O446 C416 1.325 . S
O447 Li385 1.961 . S
O447 Li386 1.970 1_554 S
O447 Li387 1.956 . S
O447 C422 1.325 . S
H448 C390 0.929 . S
H449 C391 0.930 . S
H450 C392 0.930 . S
H451 C393 0.930 . S
H452 C395 0.930 . S
H453 C397 0.929 . S
H454 C398 0.930 . S
H455 C399 0.930 . S
H456 C402 0.930 . S
H457 C405 0.929 . S
H458 C410 0.929 . S
H459 C411 0.930 . S
H460 C418 0.929 . S
H461 C419 0.930 . S
H462 C420 0.930 . S
H463 C421 0.930 . S
H464 C423 0.929 1_556 S
H465 C424 0.930 . S
H466 C425 0.930 . S
H467 C426 0.930 . S
H468 C430 0.929 . S
H469 C432 0.930 . S
H470 C438 0.929 . S
H471 C439 0.930 . S
Li472 N489 1.990 . S
Li472 O532 1.956 . S
Li472 O533 1.970 . S
Li472 O534 1.961 . S
Li473 N497 1.990 . S
Li473 O532 1.970 . S
Li473 O533 1.956 . S
Li473 O535 1.961 1_545 S
Li474 N519 1.990 . S
Li474 O532 1.961 . S
Li474 O534 1.956 . S
Li474 O535 1.970 1_545 S
Li475 N525 1.990 . S
Li475 O533 1.961 1_565 S
Li475 O534 1.970 1_565 S
Li475 O535 1.956 . S
C476 C478 1.348 . S
C476 C479 1.356 . S
C476 O532 1.325 . S
N477 C480 1.314 . S
N477 C481 1.279 . S
C478 C476 1.348 . S
C478 C480 1.353 . S
C478 H536 0.929 . S
C479 C476 1.356 . S
C479 C481 1.358 . S
C479 H537 0.930 . S
C480 N477 1.314 . S
C480 C478 1.353 . S
C480 H538 0.930 . S
C481 N477 1.279 . S
C481 C479 1.358 . S
C481 H539 0.930 . S
C482 C485 1.348 . S
C482 C486 1.356 1_545 S
C482 O533 1.325 . S
C483 N484 1.279 1_565 S
C483 C486 1.358 . S
C483 H540 0.930 . S
N484 C483 1.279 1_545 S
N484 C487 1.314 . S
C485 C482 1.348 . S
C485 C487 1.353 . S
C485 H541 0.929 . S
C486 C482 1.356 1_565 S
C486 C483 1.358 . S
C486 H542 0.930 . S
C487 N484 1.314 . S
C487 C485 1.353 . S
C487 H543 0.930 . S
C488 N489 1.314 . S
C488 C493 1.353 . S
C488 H494 0.930 . S
N489 Li472 1.990 . S
N489 C488 1.314 . S
N489 C491 1.279 . S
C490 C491 1.358 . S
C490 C492 1.356 . S
C490 H544 0.930 . S
C491 N489 1.279 . S
C491 C490 1.358 . S
C491 H495 0.930 . S
C492 C490 1.356 . S
C492 C493 1.348 . S
C493 C488 1.353 . S
C493 C492 1.348 . S
C493 H545 0.929 . S
H494 C488 0.930 . S
H495 C491 0.930 . S
C496 N497 1.314 1_565 S
C496 C498 1.353 . S
C496 H502 0.930 . S
N497 Li473 1.990 . S
N497 C496 1.314 1_545 S
N497 C500 1.279 . S
C498 C496 1.353 . S
C498 C501 1.348 1_565 S
C498 H546 0.929 . S
C499 C500 1.358 . S
C499 C501 1.356 . S
C499 H547 0.930 . S
C500 N497 1.279 . S
C500 C499 1.358 . S
C500 H503 0.930 . S
C501 C498 1.348 1_545 S
C501 C499 1.356 . S
H502 C496 0.930 . S
H503 C500 0.930 . S
C504 C506 1.348 1_545 S
C504 C507 1.356 . S
C504 O534 1.325 . S
N505 C508 1.314 1_545 S
N505 C509 1.279 . S
C506 C504 1.348 1_565 S
C506 C508 1.353 . S
C506 H548 0.929 . S
C507 C504 1.356 . S
C507 C509 1.358 . S
C507 H549 0.930 . S
C508 N505 1.314 1_565 S
C508 C506 1.353 . S
C508 H550 0.930 . S
C509 N505 1.279 . S
C509 C507 1.358 . S
C509 H551 0.930 . S
C510 C511 1.348 . S
C510 C512 1.356 . S
C510 O535 1.325 . S
C511 C510 1.348 . S
C511 C513 1.353 . S
C511 H552 0.929 . S
C512 C510 1.356 . S
C512 C514 1.358 . S
C512 H553 0.930 . S
C513 C511 1.353 . S
C513 N515 1.314 . S
C513 H554 0.930 . S
C514 C512 1.358 . S
C514 N515 1.279 . S
C514 H555 0.930 . S
N515 C513 1.314 . S
N515 C514 1.279 . S
C516 C518 1.353 . S
C516 N519 1.314 . S
C516 H522 0.930 . S
C517 N519 1.279 . S
C517 C520 1.359 1_545 S
C517 H523 0.931 1_545 S
C518 C516 1.353 . S
C518 C521 1.348 . S
C518 H556 0.929 . S
N519 Li474 1.990 . S
N519 C516 1.314 . S
N519 C517 1.279 . S
C520 C517 1.359 1_565 S
C520 C521 1.354 1_565 S
C520 H557 0.931 . S
C521 C518 1.348 . S
C521 C520 1.354 1_545 S
H522 C516 0.930 . S
H523 C517 0.931 1_565 S
C524 N525 1.314 . S
C524 C526 1.353 . S
C524 H530 0.930 . S
N525 Li475 1.990 . S
N525 C524 1.314 . S
N525 C528 1.279 . S
C526 C524 1.353 . S
C526 C529 1.348 . S
C526 H558 0.929 . S
C527 C528 1.358 . S
C527 C529 1.356 . S
C527 H559 0.930 . S
C528 N525 1.279 . S
C528 C527 1.358 . S
C528 H531 0.930 . S
C529 C526 1.348 . S
C529 C527 1.356 . S
H530 C524 0.930 . S
H531 C528 0.930 . S
O532 Li472 1.956 . S
O532 Li473 1.970 . S
O532 Li474 1.961 . S
O532 C476 1.325 . S
O533 Li472 1.970 . S
O533 Li473 1.956 . S
O533 Li475 1.961 1_545 S
O533 C482 1.325 . S
O534 Li472 1.961 . S
O534 Li474 1.956 . S
O534 Li475 1.970 1_545 S
O534 C504 1.325 . S
O535 Li473 1.961 1_565 S
O535 Li474 1.970 1_565 S
O535 Li475 1.956 . S
O535 C510 1.325 . S
H536 C478 0.929 . S
H537 C479 0.930 . S
H538 C480 0.930 . S
H539 C481 0.930 . S
H540 C483 0.930 . S
H541 C485 0.929 . S
H542 C486 0.930 . S
H543 C487 0.930 . S
H544 C490 0.930 . S
H545 C493 0.929 . S
H546 C498 0.929 . S
H547 C499 0.930 . S
H548 C506 0.929 . S
H549 C507 0.930 . S
H550 C508 0.930 . S
H551 C509 0.930 . S
H552 C511 0.929 . S
H553 C512 0.930 . S
H554 C513 0.930 . S
H555 C514 0.930 . S
H556 C518 0.929 . S
H557 C520 0.931 . S
H558 C526 0.929 . S
H559 C527 0.930 . S
Li560 N577 1.990 . S
Li560 O620 1.956 . S
Li560 O621 1.970 . S
Li560 O622 1.961 . S
Li561 N585 1.990 . S
Li561 O620 1.970 . S
Li561 O621 1.956 . S
Li561 O623 1.961 . S
Li562 N607 1.990 . S
Li562 O620 1.961 . S
Li562 O622 1.956 . S
Li562 O623 1.970 . S
Li563 N613 1.990 . S
Li563 O621 1.961 . S
Li563 O622 1.970 . S
Li563 O623 1.956 . S
C564 C566 1.348 . S
C564 C567 1.356 . S
C564 O620 1.325 . S
N565 C568 1.314 . S
N565 C569 1.279 . S
C566 C564 1.348 . S
C566 C568 1.353 . S
C566 H624 0.929 . S
C567 C564 1.356 . S
C567 C569 1.358 . S
C567 H625 0.930 . S
C568 N565 1.314 . S
C568 C566 1.353 . S
C568 H626 0.930 . S
C569 N565 1.279 . S
C569 C567 1.358 . S
C569 H627 0.930 . S
C570 C573 1.348 . S
C570 C574 1.356 . S
C570 O621 1.325 . S
C571 N572 1.279 . S
C571 C574 1.358 . S
C571 H628 0.930 . S
N572 C571 1.279 . S
N572 C575 1.314 . S
C573 C570 1.348 . S
C573 C575 1.353 . S
C573 H629 0.929 . S
C574 C570 1.356 . S
C574 C571 1.358 . S
C574 H630 0.930 . S
C575 N572 1.314 . S
C575 C573 1.353 . S
C575 H631 0.930 . S
C576 N577 1.314 . S
C576 C581 1.353 . S
C576 H582 0.930 . S
N577 Li560 1.990 . S
N577 C576 1.314 . S
N577 C579 1.279 . S
C578 C579 1.358 . S
C578 C580 1.356 . S
C578 H632 0.930 . S
C579 N577 1.279 . S
C579 C578 1.358 . S
C579 H583 0.930 . S
C580 C578 1.356 . S
C580 C581 1.348 . S
C581 C576 1.353 . S
C581 C580 1.348 . S
C581 H633 0.929 . S
H582 C576 0.930 . S
H583 C579 0.930 . S
C584 N585 1.314 . S
C584 C586 1.353 . S
C584 H590 0.930 . S
N585 Li561 1.990 . S
N585 C584 1.314 . S
N585 C588 1.279 . S
C586 C584 1.353 . S
C586 C589 1.348 . S
C586 H634 0.929 . S
C587 C588 1.358 . S
C587 C589 1.356 . S
C587 H635 0.930 . S
C588 N585 1.279 . S
C588 C587 1.358 . S
C588 H591 0.930 . S
C589 C586 1.348 . S
C589 C587 1.356 . S
H590 C584 0.930 . S
H591 C588 0.930 . S
C592 C594 1.348 . S
C592 C595 1.356 . S
C592 O622 1.325 . S
N593 C596 1.314 . S
N593 C597 1.279 . S
C594 C592 1.348 . S
C594 C596 1.353 . S
C594 H636 0.929 . S
C595 C592 1.356 . S
C595 C597 1.358 . S
C595 H637 0.930 . S
C596 N593 1.314 . S
C596 C594 1.353 . S
C596 H638 0.930 . S
C597 N593 1.279 . S
C597 C595 1.358 . S
C597 H639 0.930 . S
C598 C599 1.348 . S
C598 C600 1.356 . S
C598 O623 1.325 . S
C599 C598 1.348 . S
C599 C601 1.353 . S
C599 H640 0.929 . S
C600 C598 1.356 . S
C600 C602 1.358 . S
C600 H641 0.930 . S
C601 C599 1.353 . S
C601 N603 1.314 . S
C601 H642 0.930 . S
C602 C600 1.358 . S
C602 N603 1.279 . S
C602 H643 0.930 . S
N603 C601 1.314 . S
N603 C602 1.279 . S
C604 C606 1.353 . S
C604 N607 1.314 . S
C604 H610 0.930 . S
C605 N607 1.279 . S
C605 C608 1.358 . S
C605 H611 0.930 . S
C606 C604 1.353 . S
C606 C609 1.348 . S
C606 H644 0.929 . S
N607 Li562 1.990 . S
N607 C604 1.314 . S
N607 C605 1.279 . S
C608 C605 1.358 . S
C608 C609 1.356 . S
C608 H645 0.930 . S
C609 C606 1.348 . S
C609 C608 1.356 . S
H610 C604 0.930 . S
H611 C605 0.930 . S
C612 N613 1.314 . S
C612 C614 1.353 . S
C612 H618 0.930 . S
N613 Li563 1.990 . S
N613 C612 1.314 . S
N613 C616 1.279 . S
C614 C612 1.353 . S
C614 C617 1.348 . S
C614 H646 0.929 . S
C615 C616 1.358 . S
C615 C617 1.356 . S
C615 H647 0.930 . S
C616 N613 1.279 . S
C616 C615 1.358 . S
C616 H619 0.930 . S
C617 C614 1.348 . S
C617 C615 1.356 . S
H618 C612 0.930 . S
H619 C616 0.930 . S
O620 Li560 1.956 . S
O620 Li561 1.970 . S
O620 Li562 1.961 . S
O620 C564 1.325 . S
O621 Li560 1.970 . S
O621 Li561 1.956 . S
O621 Li563 1.961 . S
O621 C570 1.325 . S
O622 Li560 1.961 . S
O622 Li562 1.956 . S
O622 Li563 1.970 . S
O622 C592 1.325 . S
O623 Li561 1.961 . S
O623 Li562 1.970 . S
O623 Li563 1.956 . S
O623 C598 1.325 . S
H624 C566 0.929 . S
H625 C567 0.930 . S
H626 C568 0.930 . S
H627 C569 0.930 . S
H628 C571 0.930 . S
H629 C573 0.929 . S
H630 C574 0.930 . S
H631 C575 0.930 . S
H632 C578 0.930 . S
H633 C581 0.929 . S
H634 C586 0.929 . S
H635 C587 0.930 . S
H636 C594 0.929 . S
H637 C595 0.930 . S
H638 C596 0.930 . S
H639 C597 0.930 . S
H640 C599 0.929 . S
H641 C600 0.930 . S
H642 C601 0.930 . S
H643 C602 0.930 . S
H644 C606 0.929 . S
H645 C608 0.930 . S
H646 C614 0.929 . S
H647 C615 0.930 . S
Li648 N665 1.990 . S
Li648 O708 1.956 . S
Li648 O709 1.970 . S
Li648 O710 1.961 . S
Li649 N673 1.990 . S
Li649 O708 1.970 . S
Li649 O709 1.956 . S
Li649 O711 1.961 . S
Li650 N695 1.990 . S
Li650 O708 1.961 . S
Li650 O710 1.956 . S
Li650 O711 1.970 . S
Li651 N701 1.990 . S
Li651 O709 1.961 . S
Li651 O710 1.970 . S
Li651 O711 1.956 . S
C652 C654 1.348 . S
C652 C655 1.356 . S
C652 O708 1.325 . S
N653 C656 1.314 . S
N653 C657 1.279 . S
C654 C652 1.348 . S
C654 C656 1.353 . S
C654 H712 0.929 . S
C655 C652 1.356 . S
C655 C657 1.358 . S
C655 H713 0.930 . S
C656 N653 1.314 . S
C656 C654 1.353 . S
C656 H714 0.930 . S
C657 N653 1.279 . S
C657 C655 1.358 . S
C657 H715 0.930 . S
C658 C661 1.348 . S
C658 C662 1.356 . S
C658 O709 1.325 . S
C659 N660 1.279 . S
C659 C662 1.358 . S
C659 H716 0.930 . S
N660 C659 1.279 . S
N660 C663 1.314 . S
C661 C658 1.348 . S
C661 C663 1.353 . S
C661 H717 0.929 . S
C662 C658 1.356 . S
C662 C659 1.358 . S
C662 H718 0.930 . S
C663 N660 1.314 . S
C663 C661 1.353 . S
C663 H719 0.930 . S
C664 N665 1.314 . S
C664 C669 1.353 . S
C664 H670 0.930 . S
N665 Li648 1.990 . S
N665 C664 1.314 . S
N665 C667 1.279 . S
C666 C667 1.358 . S
C666 C668 1.356 . S
C666 H720 0.930 . S
C667 N665 1.279 . S
C667 C666 1.358 . S
C667 H671 0.930 . S
C668 C666 1.356 . S
C668 C669 1.348 . S
C669 C664 1.353 . S
C669 C668 1.348 . S
C669 H721 0.929 . S
H670 C664 0.930 . S
H671 C667 0.930 . S
C672 N673 1.314 . S
C672 C674 1.353 . S
C672 H678 0.930 . S
N673 Li649 1.990 . S
N673 C672 1.314 . S
N673 C676 1.279 . S
C674 C672 1.353 . S
C674 C677 1.348 . S
C674 H722 0.929 . S
C675 C676 1.358 . S
C675 C677 1.356 . S
C675 H723 0.930 . S
C676 N673 1.279 . S
C676 C675 1.358 . S
C676 H679 0.930 . S
C677 C674 1.348 . S
C677 C675 1.356 . S
H678 C672 0.930 . S
H679 C676 0.930 . S
C680 C682 1.348 . S
C680 C683 1.356 . S
C680 O710 1.325 . S
N681 C684 1.314 . S
N681 C685 1.279 . S
C682 C680 1.348 . S
C682 C684 1.353 . S
C682 H724 0.929 . S
C683 C680 1.356 . S
C683 C685 1.358 . S
C683 H725 0.930 . S
C684 N681 1.314 . S
C684 C682 1.353 . S
C684 H726 0.930 . S
C685 N681 1.279 . S
C685 C683 1.358 . S
C685 H727 0.930 . S
C686 C687 1.348 . S
C686 C688 1.356 . S
C686 O711 1.325 . S
C687 C686 1.348 . S
C687 C689 1.353 . S
C687 H728 0.929 . S
C688 C686 1.356 . S
C688 C690 1.358 . S
C688 H729 0.930 . S
C689 C687 1.353 . S
C689 N691 1.314 . S
C689 H730 0.930 . S
C690 C688 1.358 . S
C690 N691 1.279 . S
C690 H731 0.930 . S
N691 C689 1.314 . S
N691 C690 1.279 . S
C692 C694 1.353 . S
C692 N695 1.314 . S
C692 H698 0.930 . S
C693 N695 1.279 . S
C693 C696 1.358 . S
C693 H699 0.930 . S
C694 C692 1.353 . S
C694 C697 1.348 . S
C694 H732 0.929 . S
N695 Li650 1.990 . S
N695 C692 1.314 . S
N695 C693 1.279 . S
C696 C693 1.358 . S
C696 C697 1.356 . S
C696 H733 0.930 . S
C697 C694 1.348 . S
C697 C696 1.356 . S
H698 C692 0.930 . S
H699 C693 0.930 . S
C700 N701 1.314 . S
C700 C702 1.353 . S
C700 H706 0.930 . S
N701 Li651 1.990 . S
N701 C700 1.314 . S
N701 C704 1.279 . S
C702 C700 1.353 . S
C702 C705 1.348 . S
C702 H734 0.929 . S
C703 C704 1.358 . S
C703 C705 1.356 . S
C703 H735 0.930 . S
C704 N701 1.279 . S
C704 C703 1.358 . S
C704 H707 0.930 . S
C705 C702 1.348 . S
C705 C703 1.356 . S
H706 C700 0.930 . S
H707 C704 0.930 . S
O708 Li648 1.956 . S
O708 Li649 1.970 . S
O708 Li650 1.961 . S
O708 C652 1.325 . S
O709 Li648 1.970 . S
O709 Li649 1.956 . S
O709 Li651 1.961 . S
O709 C658 1.325 . S
O710 Li648 1.961 . S
O710 Li650 1.956 . S
O710 Li651 1.970 . S
O710 C680 1.325 . S
O711 Li649 1.961 . S
O711 Li650 1.970 . S
O711 Li651 1.956 . S
O711 C686 1.325 . S
H712 C654 0.929 . S
H713 C655 0.930 . S
H714 C656 0.930 . S
H715 C657 0.930 . S
H716 C659 0.930 . S
H717 C661 0.929 . S
H718 C662 0.930 . S
H719 C663 0.930 . S
H720 C666 0.930 . S
H721 C669 0.929 . S
H722 C674 0.929 . S
H723 C675 0.930 . S
H724 C682 0.929 . S
H725 C683 0.930 . S
H726 C684 0.930 . S
H727 C685 0.930 . S
H728 C687 0.929 . S
H729 C688 0.930 . S
H730 C689 0.930 . S
H731 C690 0.930 . S
H732 C694 0.929 . S
H733 C696 0.930 . S
H734 C702 0.929 . S
H735 C703 0.930 . S
Li736 N753 1.990 . S
Li736 O796 1.956 . S
Li736 O797 1.970 . S
Li736 O798 1.961 . S
Li737 N761 1.990 . S
Li737 O796 1.970 . S
Li737 O797 1.956 . S
Li737 O799 1.961 . S
Li738 N783 1.990 . S
Li738 O796 1.961 . S
Li738 O798 1.956 . S
Li738 O799 1.970 . S
Li739 N789 1.990 . S
Li739 O797 1.961 . S
Li739 O798 1.970 . S
Li739 O799 1.956 . S
C740 C742 1.348 . S
C740 C743 1.356 . S
C740 O796 1.325 . S
N741 C744 1.314 . S
N741 C745 1.279 . S
C742 C740 1.348 . S
C742 C744 1.353 . S
C742 H800 0.929 . S
C743 C740 1.356 . S
C743 C745 1.358 . S
C743 H801 0.930 . S
C744 N741 1.314 . S
C744 C742 1.353 . S
C744 H802 0.930 . S
C745 N741 1.279 . S
C745 C743 1.358 . S
C745 H803 0.930 . S
C746 C749 1.348 . S
C746 C750 1.356 . S
C746 O797 1.325 . S
C747 N748 1.279 . S
C747 C750 1.358 . S
C747 H804 0.930 . S
N748 C747 1.279 . S
N748 C751 1.314 . S
C749 C746 1.348 . S
C749 C751 1.353 . S
C749 H805 0.929 . S
C750 C746 1.356 . S
C750 C747 1.358 . S
C750 H806 0.930 . S
C751 N748 1.314 . S
C751 C749 1.353 . S
C751 H807 0.930 . S
C752 N753 1.314 . S
C752 C757 1.353 . S
C752 H758 0.930 . S
N753 Li736 1.990 . S
N753 C752 1.314 . S
N753 C755 1.279 . S
C754 C755 1.358 . S
C754 C756 1.356 . S
C754 H808 0.930 . S
C755 N753 1.279 . S
C755 C754 1.358 . S
C755 H759 0.930 . S
C756 C754 1.356 . S
C756 C757 1.348 . S
C757 C752 1.353 . S
C757 C756 1.348 . S
C757 H809 0.929 . S
H758 C752 0.930 . S
H759 C755 0.930 . S
C760 N761 1.314 . S
C760 C762 1.353 . S
C760 H766 0.930 . S
N761 Li737 1.990 . S
N761 C760 1.314 . S
N761 C764 1.279 . S
C762 C760 1.353 . S
C762 C765 1.348 . S
C762 H810 0.929 . S
C763 C764 1.358 . S
C763 C765 1.356 . S
C763 H811 0.930 . S
C764 N761 1.279 . S
C764 C763 1.358 . S
C764 H767 0.930 . S
C765 C762 1.348 . S
C765 C763 1.356 . S
H766 C760 0.930 . S
H767 C764 0.930 . S
C768 C770 1.348 . S
C768 C771 1.356 . S
C768 O798 1.325 . S
N769 C772 1.314 . S
N769 C773 1.279 . S
C770 C768 1.348 . S
C770 C772 1.353 . S
C770 H812 0.929 . S
C771 C768 1.356 . S
C771 C773 1.358 . S
C771 H813 0.930 . S
C772 N769 1.314 . S
C772 C770 1.353 . S
C772 H814 0.930 . S
C773 N769 1.279 . S
C773 C771 1.358 . S
C773 H815 0.930 . S
C774 C775 1.348 . S
C774 C776 1.356 . S
C774 O799 1.325 . S
C775 C774 1.348 . S
C775 C777 1.353 . S
C775 H816 0.929 . S
C776 C774 1.356 . S
C776 C778 1.358 . S
C776 H817 0.930 . S
C777 C775 1.353 . S
C777 N779 1.314 . S
C777 H818 0.930 . S
C778 C776 1.358 . S
C778 N779 1.279 . S
C778 H819 0.930 . S
N779 C777 1.314 . S
N779 C778 1.279 . S
C780 C782 1.353 . S
C780 N783 1.314 . S
C780 H786 0.930 . S
C781 N783 1.279 . S
C781 C784 1.358 . S
C781 H787 0.930 . S
C782 C780 1.353 . S
C782 C785 1.348 . S
C782 H820 0.929 . S
N783 Li738 1.990 . S
N783 C780 1.314 . S
N783 C781 1.279 . S
C784 C781 1.358 . S
C784 C785 1.356 . S
C784 H821 0.930 . S
C785 C782 1.348 . S
C785 C784 1.356 . S
H786 C780 0.930 . S
H787 C781 0.930 . S
C788 N789 1.314 . S
C788 C790 1.353 . S
C788 H794 0.930 . S
N789 Li739 1.990 . S
N789 C788 1.314 . S
N789 C792 1.279 . S
C790 C788 1.353 . S
C790 C793 1.348 . S
C790 H822 0.929 . S
C791 C792 1.358 . S
C791 C793 1.356 . S
C791 H823 0.930 . S
C792 N789 1.279 . S
C792 C791 1.358 . S
C792 H795 0.930 . S
C793 C790 1.348 . S
C793 C791 1.356 . S
H794 C788 0.930 . S
H795 C792 0.930 . S
O796 Li736 1.956 . S
O796 Li737 1.970 . S
O796 Li738 1.961 . S
O796 C740 1.325 . S
O797 Li736 1.970 . S
O797 Li737 1.956 . S
O797 Li739 1.961 . S
O797 C746 1.325 . S
O798 Li736 1.961 . S
O798 Li738 1.956 . S
O798 Li739 1.970 . S
O798 C768 1.325 . S
O799 Li737 1.961 . S
O799 Li738 1.970 . S
O799 Li739 1.956 . S
O799 C774 1.325 . S
H800 C742 0.929 . S
H801 C743 0.930 . S
H802 C744 0.930 . S
H803 C745 0.930 . S
H804 C747 0.930 . S
H805 C749 0.929 . S
H806 C750 0.930 . S
H807 C751 0.930 . S
H808 C754 0.930 . S
H809 C757 0.929 . S
H810 C762 0.929 . S
H811 C763 0.930 . S
H812 C770 0.929 . S
H813 C771 0.930 . S
H814 C772 0.930 . S
H815 C773 0.930 . S
H816 C775 0.929 . S
H817 C776 0.930 . S
H818 C777 0.930 . S
H819 C778 0.930 . S
H820 C782 0.929 . S
H821 C784 0.930 . S
H822 C790 0.929 . S
H823 C791 0.930 . S
Li824 N841 1.990 . S
Li824 O884 1.956 . S
Li824 O885 1.970 1_565 S
Li824 O886 1.961 1_565 S
Li825 N849 1.990 . S
Li825 O884 1.970 1_545 S
Li825 O885 1.956 . S
Li825 O887 1.961 . S
Li826 N871 1.990 . S
Li826 O884 1.961 1_545 S
Li826 O886 1.956 . S
Li826 O887 1.970 . S
Li827 N877 1.990 . S
Li827 O885 1.961 . S
Li827 O886 1.970 . S
Li827 O887 1.956 . S
C828 C830 1.348 . S
C828 C831 1.356 . S
C828 O884 1.325 . S
N829 C832 1.314 . S
N829 C833 1.279 . S
C830 C828 1.348 . S
C830 C832 1.353 . S
C830 H888 0.929 . S
C831 C828 1.356 . S
C831 C833 1.358 . S
C831 H889 0.930 . S
C832 N829 1.314 . S
C832 C830 1.353 . S
C832 H890 0.930 . S
C833 N829 1.279 . S
C833 C831 1.358 . S
C833 H891 0.930 . S
C834 C837 1.348 . S
C834 C838 1.356 . S
C834 O885 1.325 . S
C835 N836 1.279 . S
C835 C838 1.358 . S
C835 H892 0.930 . S
N836 C835 1.279 . S
N836 C839 1.314 . S
C837 C834 1.348 . S
C837 C839 1.353 . S
C837 H893 0.901 1_545 S
C838 C834 1.356 . S
C838 C835 1.358 . S
C838 H894 0.930 . S
C839 N836 1.314 . S
C839 C837 1.353 . S
C839 H895 0.930 . S
C840 N841 1.314 . S
C840 C845 1.353 . S
C840 H846 0.930 . S
N841 Li824 1.990 . S
N841 C840 1.314 . S
N841 C843 1.279 . S
C842 C843 1.358 . S
C842 C844 1.356 . S
C842 H896 0.930 . S
C843 N841 1.279 . S
C843 C842 1.358 . S
C843 H847 0.930 . S
C844 C842 1.356 . S
C844 C845 1.348 . S
C845 C840 1.353 . S
C845 C844 1.348 . S
C845 H897 0.929 . S
H846 C840 0.930 . S
H847 C843 0.930 . S
C848 N849 1.314 . S
C848 C850 1.353 . S
C848 H854 0.930 . S
N849 Li825 1.990 . S
N849 C848 1.314 . S
N849 C852 1.279 . S
C850 C848 1.353 . S
C850 C853 1.348 . S
C850 H898 0.929 . S
C851 C852 1.358 . S
C851 C853 1.356 . S
C851 H899 0.930 . S
C852 N849 1.279 . S
C852 C851 1.358 . S
C852 H855 0.930 . S
C853 C850 1.348 . S
C853 C851 1.356 . S
H854 C848 0.930 . S
H855 C852 0.930 . S
C856 C858 1.348 . S
C856 C859 1.356 1_545 S
C856 O886 1.325 . S
N857 C860 1.314 . S
N857 C861 1.279 1_545 S
C858 C856 1.348 . S
C858 C860 1.353 . S
C858 H900 0.929 . S
C859 C856 1.356 1_565 S
C859 C861 1.358 . S
C859 H901 0.930 . S
C860 N857 1.314 . S
C860 C858 1.353 . S
C860 H902 0.930 . S
C861 N857 1.279 1_565 S
C861 C859 1.358 . S
C861 H903 0.930 . S
C862 C863 1.348 . S
C862 C864 1.356 . S
C862 O887 1.325 . S
C863 C862 1.348 . S
C863 C865 1.353 . S
C863 H904 0.929 . S
C864 C862 1.356 . S
C864 C866 1.358 . S
C864 H905 0.930 . S
C865 C863 1.353 . S
C865 N867 1.314 . S
C865 H906 0.930 . S
C866 C864 1.358 . S
C866 N867 1.279 . S
C866 H907 0.930 . S
N867 C865 1.314 . S
N867 C866 1.279 . S
C868 C870 1.353 . S
C868 N871 1.314 1_565 S
C868 H874 0.930 . S
C869 N871 1.279 . S
C869 C872 1.359 . S
C869 H875 0.930 . S
C870 C868 1.353 . S
C870 C873 1.348 . S
C870 H908 0.929 . S
N871 Li826 1.990 . S
N871 C868 1.314 1_545 S
N871 C869 1.279 . S
C872 C869 1.359 . S
C872 C873 1.356 1_545 S
C872 H909 0.928 . S
C873 C870 1.348 . S
C873 C872 1.356 1_565 S
H874 C868 0.930 . S
H875 C869 0.930 . S
C876 N877 1.314 . S
C876 C878 1.353 . S
C876 H882 0.930 . S
N877 Li827 1.990 . S
N877 C876 1.314 . S
N877 C880 1.279 . S
C878 C876 1.353 . S
C878 C881 1.348 . S
C878 H910 0.929 . S
C879 C880 1.358 . S
C879 C881 1.356 . S
C879 H911 0.930 . S
C880 N877 1.279 . S
C880 C879 1.358 . S
C880 H883 0.930 . S
C881 C878 1.348 . S
C881 C879 1.356 . S
H882 C876 0.930 . S
H883 C880 0.930 . S
O884 Li824 1.956 . S
O884 Li825 1.970 1_565 S
O884 Li826 1.961 1_565 S
O884 C828 1.325 . S
O885 Li824 1.970 1_545 S
O885 Li825 1.956 . S
O885 Li827 1.961 . S
O885 C834 1.325 . S
O886 Li824 1.961 1_545 S
O886 Li826 1.956 . S
O886 Li827 1.970 . S
O886 C856 1.325 . S
O887 Li825 1.961 . S
O887 Li826 1.970 . S
O887 Li827 1.956 . S
O887 C862 1.325 . S
H888 C830 0.929 . S
H889 C831 0.930 . S
H890 C832 0.930 . S
H891 C833 0.930 . S
H892 C835 0.930 . S
H893 C837 0.901 1_565 S
H894 C838 0.930 . S
H895 C839 0.930 . S
H896 C842 0.930 . S
H897 C845 0.929 . S
H898 C850 0.929 . S
H899 C851 0.930 . S
H900 C858 0.929 . S
H901 C859 0.930 . S
H902 C860 0.930 . S
H903 C861 0.930 . S
H904 C863 0.929 . S
H905 C864 0.930 . S
H906 C865 0.930 . S
H907 C866 0.930 . S
H908 C870 0.929 . S
H909 C872 0.928 . S
H910 C878 0.929 . S
H911 C879 0.930 . S
Li912 N929 1.990 . S
Li912 O972 1.956 . S
Li912 O973 1.970 . S
Li912 O974 1.961 . S
Li913 N937 1.988 1_455 S
Li913 O972 1.970 . S
Li913 O973 1.956 . S
Li913 O975 1.961 1_455 S
Li914 N959 1.990 . S
Li914 O972 1.961 . S
Li914 O974 1.956 . S
Li914 O975 1.970 1_455 S
Li915 N965 1.990 . S
Li915 O973 1.961 1_655 S
Li915 O974 1.970 1_655 S
Li915 O975 1.956 . S
C916 C918 1.348 . S
C916 C919 1.356 . S
C916 O972 1.325 . S
N917 C920 1.314 . S
N917 C921 1.279 . S
C918 C916 1.348 . S
C918 C920 1.353 . S
C918 H976 0.929 . S
C919 C916 1.356 . S
C919 C921 1.358 . S
C919 H977 0.930 . S
C920 N917 1.314 . S
C920 C918 1.353 . S
C920 H978 0.930 . S
C921 N917 1.279 . S
C921 C919 1.358 . S
C921 H979 0.930 . S
C922 C925 1.348 . S
C922 C926 1.356 1_455 S
C922 O973 1.325 . S
C923 N924 1.279 1_655 S
C923 C926 1.358 . S
C923 H980 0.930 . S
N924 C923 1.279 1_455 S
N924 C927 1.314 . S
C925 C922 1.348 . S
C925 C927 1.353 . S
C925 H981 0.929 . S
C926 C922 1.356 1_655 S
C926 C923 1.358 . S
C926 H982 0.930 . S
C927 N924 1.314 . S
C927 C925 1.353 . S
C927 H983 0.930 . S
C928 N929 1.314 . S
C928 C933 1.353 . S
C928 H934 0.930 . S
N929 Li912 1.990 . S
N929 C928 1.314 . S
N929 C931 1.279 . S
C930 C931 1.358 . S
C930 C932 1.356 . S
C930 H984 0.930 . S
C931 N929 1.279 . S
C931 C930 1.358 . S
C931 H935 0.930 . S
C932 C930 1.356 . S
C932 C933 1.348 . S
C933 C928 1.353 . S
C933 C932 1.348 . S
C933 H985 0.929 . S
H934 C928 0.930 . S
H935 C931 0.930 . S
C936 N937 1.319 . S
C936 C938 1.353 . S
C936 H942 0.930 . S
N937 Li913 1.988 1_655 S
N937 C936 1.319 . S
N937 C940 1.277 1_655 S
C938 C936 1.353 . S
C938 C941 1.348 . S
C938 H986 0.929 . S
C939 C940 1.358 . S
C939 C941 1.356 1_455 S
C939 H987 0.930 . S
C940 N937 1.277 1_455 S
C940 C939 1.358 . S
C940 H943 0.930 . S
C941 C938 1.348 . S
C941 C939 1.356 1_655 S
H942 C936 0.930 . S
H943 C940 0.930 . S
C944 C946 1.348 1_455 S
C944 C947 1.356 . S
C944 O974 1.325 . S
N945 C948 1.314 1_455 S
N945 C949 1.279 . S
C946 C944 1.348 1_655 S
C946 C948 1.353 . S
C946 H988 0.929 . S
C947 C944 1.356 . S
C947 C949 1.358 . S
C947 H989 0.930 . S
C948 N945 1.314 1_655 S
C948 C946 1.353 . S
C948 H990 0.930 . S
C949 N945 1.279 . S
C949 C947 1.358 . S
C949 H991 0.930 . S
C950 C951 1.348 . S
C950 C952 1.356 . S
C950 O975 1.325 . S
C951 C950 1.348 . S
C951 C953 1.353 . S
C951 H992 0.929 . S
C952 C950 1.356 . S
C952 C954 1.358 . S
C952 H993 0.930 . S
C953 C951 1.353 . S
C953 N955 1.314 . S
C953 H994 0.930 . S
C954 C952 1.358 . S
C954 N955 1.279 . S
C954 H995 0.930 . S
N955 C953 1.314 . S
N955 C954 1.279 . S
C956 C958 1.353 . S
C956 N959 1.314 . S
C956 H962 0.930 . S
C957 N959 1.279 . S
C957 C960 1.358 . S
C957 H963 0.930 . S
C958 C956 1.353 . S
C958 C961 1.348 . S
C958 H996 0.929 . S
N959 Li914 1.990 . S
N959 C956 1.314 . S
N959 C957 1.279 . S
C960 C957 1.358 . S
C960 C961 1.356 . S
C960 H997 0.930 . S
C961 C958 1.348 . S
C961 C960 1.356 . S
H962 C956 0.930 . S
H963 C957 0.930 . S
C964 N965 1.314 . S
C964 C966 1.353 . S
C964 H970 0.930 . S
N965 Li915 1.990 . S
N965 C964 1.314 . S
N965 C968 1.279 . S
C966 C964 1.353 . S
C966 C969 1.348 . S
C966 H998 0.929 . S
C967 C968 1.358 . S
C967 C969 1.356 . S
C967 H999 0.930 . S
C968 N965 1.279 . S
C968 C967 1.358 . S
C968 H971 0.930 . S
C969 C966 1.348 . S
C969 C967 1.356 . S
H970 C964 0.930 . S
H971 C968 0.930 . S
O972 Li912 1.956 . S
O972 Li913 1.970 . S
O972 Li914 1.961 . S
O972 C916 1.325 . S
O973 Li912 1.970 . S
O973 Li913 1.956 . S
O973 Li915 1.961 1_455 S
O973 C922 1.325 . S
O974 Li912 1.961 . S
O974 Li914 1.956 . S
O974 Li915 1.970 1_455 S
O974 C944 1.325 . S
O975 Li913 1.961 1_655 S
O975 Li914 1.970 1_655 S
O975 Li915 1.956 . S
O975 C950 1.325 . S
H976 C918 0.929 . S
H977 C919 0.930 . S
H978 C920 0.930 . S
H979 C921 0.930 . S
H980 C923 0.930 . S
H981 C925 0.929 . S
H982 C926 0.930 . S
H983 C927 0.930 . S
H984 C930 0.930 . S
H985 C933 0.929 . S
H986 C938 0.929 . S
H987 C939 0.930 . S
H988 C946 0.929 . S
H989 C947 0.930 . S
H990 C948 0.930 . S
H991 C949 0.930 . S
H992 C951 0.929 . S
H993 C952 0.930 . S
H994 C953 0.930 . S
H995 C954 0.930 . S
H996 C958 0.929 . S
H997 C960 0.930 . S
H998 C966 0.929 . S
H999 C967 0.930 . S
Li1000 N1017 1.990 . S
Li1000 O1060 1.956 . S
Li1000 O1061 1.970 . S
Li1000 O1062 1.961 . S
Li1001 N1025 1.990 . S
Li1001 O1060 1.970 . S
Li1001 O1061 1.956 . S
Li1001 O1063 1.961 . S
Li1002 N1047 1.990 . S
Li1002 O1060 1.961 . S
Li1002 O1062 1.956 . S
Li1002 O1063 1.970 . S
Li1003 N1053 1.990 . S
Li1003 O1061 1.961 . S
Li1003 O1062 1.970 . S
Li1003 O1063 1.956 . S
C1004 C1006 1.348 . S
C1004 C1007 1.356 . S
C1004 O1060 1.325 . S
N1005 C1008 1.314 . S
N1005 C1009 1.279 . S
C1006 C1004 1.348 . S
C1006 C1008 1.353 . S
C1006 H1064 0.929 . S
C1007 C1004 1.356 . S
C1007 C1009 1.358 . S
C1007 H1065 0.930 . S
C1008 N1005 1.314 . S
C1008 C1006 1.353 . S
C1008 H1066 0.930 . S
C1009 N1005 1.279 . S
C1009 C1007 1.358 . S
C1009 H1067 0.930 . S
C1010 C1013 1.348 . S
C1010 C1014 1.356 . S
C1010 O1061 1.325 . S
C1011 N1012 1.279 . S
C1011 C1014 1.358 . S
C1011 H1068 0.930 . S
N1012 C1011 1.279 . S
N1012 C1015 1.314 . S
C1013 C1010 1.348 . S
C1013 C1015 1.353 . S
C1013 H1069 0.929 . S
C1014 C1010 1.356 . S
C1014 C1011 1.358 . S
C1014 H1070 0.930 . S
C1015 N1012 1.314 . S
C1015 C1013 1.353 . S
C1015 H1071 0.930 . S
C1016 N1017 1.314 . S
C1016 C1021 1.353 . S
C1016 H1022 0.930 . S
N1017 Li1000 1.990 . S
N1017 C1016 1.314 . S
N1017 C1019 1.279 . S
C1018 C1019 1.358 . S
C1018 C1020 1.356 . S
C1018 H1072 0.930 . S
C1019 N1017 1.279 . S
C1019 C1018 1.358 . S
C1019 H1023 0.930 . S
C1020 C1018 1.356 . S
C1020 C1021 1.348 . S
C1021 C1016 1.353 . S
C1021 C1020 1.348 . S
C1021 H1073 0.929 . S
H1022 C1016 0.930 . S
H1023 C1019 0.930 . S
C1024 N1025 1.314 . S
C1024 C1026 1.353 . S
C1024 H1030 0.930 . S
N1025 Li1001 1.990 . S
N1025 C1024 1.314 . S
N1025 C1028 1.279 . S
C1026 C1024 1.353 . S
C1026 C1029 1.348 . S
C1026 H1074 0.929 . S
C1027 C1028 1.358 . S
C1027 C1029 1.356 . S
C1027 H1075 0.930 . S
C1028 N1025 1.279 . S
C1028 C1027 1.358 . S
C1028 H1031 0.930 . S
C1029 C1026 1.348 . S
C1029 C1027 1.356 . S
H1030 C1024 0.930 . S
H1031 C1028 0.930 . S
C1032 C1034 1.348 . S
C1032 C1035 1.356 . S
C1032 O1062 1.325 . S
N1033 C1036 1.314 . S
N1033 C1037 1.279 . S
C1034 C1032 1.348 . S
C1034 C1036 1.353 . S
C1034 H1076 0.929 . S
C1035 C1032 1.356 . S
C1035 C1037 1.358 . S
C1035 H1077 0.930 . S
C1036 N1033 1.314 . S
C1036 C1034 1.353 . S
C1036 H1078 0.930 . S
C1037 N1033 1.279 . S
C1037 C1035 1.358 . S
C1037 H1079 0.930 . S
C1038 C1039 1.348 . S
C1038 C1040 1.356 . S
C1038 O1063 1.325 . S
C1039 C1038 1.348 . S
C1039 C1041 1.353 . S
C1039 H1080 0.929 . S
C1040 C1038 1.356 . S
C1040 C1042 1.358 . S
C1040 H1081 0.930 . S
C1041 C1039 1.353 . S
C1041 N1043 1.314 . S
C1041 H1082 0.930 . S
C1042 C1040 1.358 . S
C1042 N1043 1.279 . S
C1042 H1083 0.930 . S
N1043 C1041 1.314 . S
N1043 C1042 1.279 . S
C1044 C1046 1.353 . S
C1044 N1047 1.314 . S
C1044 H1050 0.930 . S
C1045 N1047 1.279 . S
C1045 C1048 1.358 . S
C1045 H1051 0.930 . S
C1046 C1044 1.353 . S
C1046 C1049 1.348 . S
C1046 H1084 0.929 . S
N1047 Li1002 1.990 . S
N1047 C1044 1.314 . S
N1047 C1045 1.279 . S
C1048 C1045 1.358 . S
C1048 C1049 1.356 . S
C1048 H1085 0.930 . S
C1049 C1046 1.348 . S
C1049 C1048 1.356 . S
H1050 C1044 0.930 . S
H1051 C1045 0.930 . S
C1052 N1053 1.314 . S
C1052 C1054 1.353 . S
C1052 H1058 0.930 . S
N1053 Li1003 1.990 . S
N1053 C1052 1.314 . S
N1053 C1056 1.279 . S
C1054 C1052 1.353 . S
C1054 C1057 1.348 . S
C1054 H1086 0.929 . S
C1055 C1056 1.358 . S
C1055 C1057 1.356 . S
C1055 H1087 0.930 . S
C1056 N1053 1.279 . S
C1056 C1055 1.358 . S
C1056 H1059 0.930 . S
C1057 C1054 1.348 . S
C1057 C1055 1.356 . S
H1058 C1052 0.930 . S
H1059 C1056 0.930 . S
O1060 Li1000 1.956 . S
O1060 Li1001 1.970 . S
O1060 Li1002 1.961 . S
O1060 C1004 1.325 . S
O1061 Li1000 1.970 . S
O1061 Li1001 1.956 . S
O1061 Li1003 1.961 . S
O1061 C1010 1.325 . S
O1062 Li1000 1.961 . S
O1062 Li1002 1.956 . S
O1062 Li1003 1.970 . S
O1062 C1032 1.325 . S
O1063 Li1001 1.961 . S
O1063 Li1002 1.970 . S
O1063 Li1003 1.956 . S
O1063 C1038 1.325 . S
H1064 C1006 0.929 . S
H1065 C1007 0.930 . S
H1066 C1008 0.930 . S
H1067 C1009 0.930 . S
H1068 C1011 0.930 . S
H1069 C1013 0.929 . S
H1070 C1014 0.930 . S
H1071 C1015 0.930 . S
H1072 C1018 0.930 . S
H1073 C1021 0.929 . S
H1074 C1026 0.929 . S
H1075 C1027 0.930 . S
H1076 C1034 0.929 . S
H1077 C1035 0.930 . S
H1078 C1036 0.930 . S
H1079 C1037 0.930 . S
H1080 C1039 0.929 . S
H1081 C1040 0.930 . S
H1082 C1041 0.930 . S
H1083 C1042 0.930 . S
H1084 C1046 0.929 . S
H1085 C1048 0.930 . S
H1086 C1054 0.929 . S
H1087 C1055 0.930 . S
Li1088 N1105 1.990 . S
Li1088 O1148 1.956 . S
Li1088 O1149 1.970 . S
Li1088 O1150 1.961 . S
Li1089 N1113 1.990 1_455 S
Li1089 O1148 1.970 . S
Li1089 O1149 1.956 . S
Li1089 O1151 1.961 . S
Li1090 N1135 1.990 . S
Li1090 O1148 1.961 . S
Li1090 O1150 1.956 . S
Li1090 O1151 1.970 . S
Li1091 N1141 1.990 . S
Li1091 O1149 1.961 . S
Li1091 O1150 1.970 . S
Li1091 O1151 1.956 . S
C1092 C1094 1.348 . S
C1092 C1095 1.356 . S
C1092 O1148 1.325 . S
N1093 C1096 1.314 . S
N1093 C1097 1.279 . S
C1094 C1092 1.348 . S
C1094 C1096 1.353 . S
C1094 H1152 0.929 . S
C1095 C1092 1.356 . S
C1095 C1097 1.358 . S
C1095 H1153 0.930 . S
C1096 N1093 1.314 . S
C1096 C1094 1.353 . S
C1096 H1154 0.930 . S
C1097 N1093 1.279 . S
C1097 C1095 1.358 . S
C1097 H1155 0.930 . S
C1098 C1101 1.348 . S
C1098 C1102 1.356 . S
C1098 O1149 1.325 1_655 S
C1099 N1100 1.279 . S
C1099 C1102 1.358 . S
C1099 H1156 0.930 . S
N1100 C1099 1.279 . S
N1100 C1103 1.314 . S
C1101 C1098 1.348 . S
C1101 C1103 1.353 . S
C1101 H1157 0.929 . S
C1102 C1098 1.356 . S
C1102 C1099 1.358 . S
C1102 H1158 0.930 . S
C1103 N1100 1.314 . S
C1103 C1101 1.353 . S
C1103 H1159 0.930 . S
C1104 N1105 1.314 . S
C1104 C1109 1.353 . S
C1104 H1110 0.930 . S
N1105 Li1088 1.990 . S
N1105 C1104 1.314 . S
N1105 C1107 1.279 . S
C1106 C1107 1.358 . S
C1106 C1108 1.356 . S
C1106 H1160 0.930 . S
C1107 N1105 1.279 . S
C1107 C1106 1.358 . S
C1107 H1111 0.930 . S
C1108 C1106 1.356 . S
C1108 C1109 1.348 . S
C1109 C1104 1.353 . S
C1109 C1108 1.348 . S
C1109 H1161 0.929 . S
H1110 C1104 0.930 . S
H1111 C1107 0.930 . S
C1112 N1113 1.314 . S
C1112 C1114 1.353 . S
C1112 H1118 0.930 . S
N1113 Li1089 1.990 1_655 S
N1113 C1112 1.314 . S
N1113 C1116 1.279 . S
C1114 C1112 1.353 . S
C1114 C1117 1.348 . S
C1114 H1162 0.929 . S
C1115 C1116 1.358 . S
C1115 C1117 1.356 . S
C1115 H1163 0.930 . S
C1116 N1113 1.279 . S
C1116 C1115 1.358 . S
C1116 H1119 0.930 . S
C1117 C1114 1.348 . S
C1117 C1115 1.356 . S
H1118 C1112 0.930 . S
H1119 C1116 0.930 . S
C1120 C1122 1.348 . S
C1120 C1123 1.356 . S
C1120 O1150 1.325 . S
N1121 C1124 1.314 . S
N1121 C1125 1.279 . S
C1122 C1120 1.348 . S
C1122 C1124 1.353 . S
C1122 H1164 0.929 . S
C1123 C1120 1.356 . S
C1123 C1125 1.358 . S
C1123 H1165 0.930 . S
C1124 N1121 1.314 . S
C1124 C1122 1.353 . S
C1124 H1166 0.930 . S
C1125 N1121 1.279 . S
C1125 C1123 1.358 . S
C1125 H1167 0.930 . S
C1126 C1127 1.348 . S
C1126 C1128 1.395 . S
C1126 O1151 1.325 . S
C1127 C1126 1.348 . S
C1127 C1129 1.353 . S
C1127 H1168 0.929 . S
C1128 C1126 1.395 . S
C1128 C1130 1.355 1_455 S
C1128 H1169 0.895 1_455 S
C1129 C1127 1.353 . S
C1129 N1131 1.314 . S
C1129 H1170 0.930 . S
C1130 C1128 1.355 1_655 S
C1130 N1131 1.279 1_655 S
C1130 H1171 0.930 . S
N1131 C1129 1.314 . S
N1131 C1130 1.279 1_455 S
C1132 C1134 1.353 . S
C1132 N1135 1.314 . S
C1132 H1138 0.930 . S
C1133 N1135 1.279 . S
C1133 C1136 1.358 . S
C1133 H1139 0.930 . S
C1134 C1132 1.353 . S
C1134 C1137 1.348 . S
C1134 H1172 0.929 . S
N1135 Li1090 1.990 . S
N1135 C1132 1.314 . S
N1135 C1133 1.279 . S
C1136 C1133 1.358 . S
C1136 C1137 1.356 . S
C1136 H1173 0.930 . S
C1137 C1134 1.348 . S
C1137 C1136 1.356 . S
H1138 C1132 0.930 . S
H1139 C1133 0.930 . S
C1140 N1141 1.314 . S
C1140 C1142 1.353 . S
C1140 H1146 0.930 . S
N1141 Li1091 1.990 . S
N1141 C1140 1.314 . S
N1141 C1144 1.279 . S
C1142 C1140 1.353 . S
C1142 C1145 1.348 . S
C1142 H1174 0.953 . S
C1143 C1144 1.358 . S
C1143 C1145 1.356 . S
C1143 H1175 0.930 . S
C1144 N1141 1.279 . S
C1144 C1143 1.358 . S
C1144 H1147 0.930 . S
C1145 C1142 1.348 . S
C1145 C1143 1.356 . S
H1146 C1140 0.930 . S
H1147 C1144 0.930 . S
O1148 Li1088 1.956 . S
O1148 Li1089 1.970 . S
O1148 Li1090 1.961 . S
O1148 C1092 1.325 . S
O1149 Li1088 1.970 . S
O1149 Li1089 1.956 . S
O1149 Li1091 1.961 . S
O1149 C1098 1.325 1_455 S
O1150 Li1088 1.961 . S
O1150 Li1090 1.956 . S
O1150 Li1091 1.970 . S
O1150 C1120 1.325 . S
O1151 Li1089 1.961 . S
O1151 Li1090 1.970 . S
O1151 Li1091 1.956 . S
O1151 C1126 1.325 . S
H1152 C1094 0.929 . S
H1153 C1095 0.930 . S
H1154 C1096 0.930 . S
H1155 C1097 0.930 . S
H1156 C1099 0.930 . S
H1157 C1101 0.929 . S
H1158 C1102 0.930 . S
H1159 C1103 0.930 . S
H1160 C1106 0.930 . S
H1161 C1109 0.929 . S
H1162 C1114 0.929 . S
H1163 C1115 0.930 . S
H1164 C1122 0.929 . S
H1165 C1123 0.930 . S
H1166 C1124 0.930 . S
H1167 C1125 0.930 . S
H1168 C1127 0.929 . S
H1169 C1128 0.895 1_655 S
H1170 C1129 0.930 . S
H1171 C1130 0.930 . S
H1172 C1134 0.929 . S
H1173 C1136 0.930 . S
H1174 C1142 0.953 . S
H1175 C1143 0.930 . S
Li1176 N1193 1.990 . S
Li1176 O1236 1.956 . S
Li1176 O1237 1.970 . S
Li1176 O1238 1.961 . S
Li1177 N1201 1.990 . S
Li1177 O1236 1.970 . S
Li1177 O1237 1.956 . S
Li1177 O1239 1.961 . S
Li1178 N1223 1.990 . S
Li1178 O1236 1.961 . S
Li1178 O1238 1.956 . S
Li1178 O1239 1.970 . S
Li1179 N1229 1.990 . S
Li1179 O1237 1.961 . S
Li1179 O1238 1.970 . S
Li1179 O1239 1.956 . S
C1180 C1182 1.348 . S
C1180 C1183 1.356 . S
C1180 O1236 1.325 . S
N1181 C1184 1.314 . S
N1181 C1185 1.279 . S
C1182 C1180 1.348 . S
C1182 C1184 1.353 . S
C1182 H1240 0.929 . S
C1183 C1180 1.356 . S
C1183 C1185 1.358 . S
C1183 H1241 0.930 . S
C1184 N1181 1.314 . S
C1184 C1182 1.353 . S
C1184 H1242 0.930 . S
C1185 N1181 1.279 . S
C1185 C1183 1.358 . S
C1185 H1243 0.930 . S
C1186 C1189 1.348 . S
C1186 C1190 1.356 . S
C1186 O1237 1.325 . S
C1187 N1188 1.279 . S
C1187 C1190 1.358 . S
C1187 H1244 0.930 . S
N1188 C1187 1.279 . S
N1188 C1191 1.314 . S
C1189 C1186 1.348 . S
C1189 C1191 1.353 . S
C1189 H1245 0.929 . S
C1190 C1186 1.356 . S
C1190 C1187 1.358 . S
C1190 H1246 0.930 . S
C1191 N1188 1.314 . S
C1191 C1189 1.353 . S
C1191 H1247 0.930 . S
C1192 N1193 1.314 . S
C1192 C1197 1.353 . S
C1192 H1198 0.930 . S
N1193 Li1176 1.990 . S
N1193 C1192 1.314 . S
N1193 C1195 1.279 . S
C1194 C1195 1.358 . S
C1194 C1196 1.356 . S
C1194 H1248 0.930 . S
C1195 N1193 1.279 . S
C1195 C1194 1.358 . S
C1195 H1199 0.930 . S
C1196 C1194 1.356 . S
C1196 C1197 1.348 . S
C1197 C1192 1.353 . S
C1197 C1196 1.348 . S
C1197 H1249 0.929 . S
H1198 C1192 0.930 . S
H1199 C1195 0.930 . S
C1200 N1201 1.314 . S
C1200 C1202 1.353 . S
C1200 H1206 0.930 . S
N1201 Li1177 1.990 . S
N1201 C1200 1.314 . S
N1201 C1204 1.279 . S
C1202 C1200 1.353 . S
C1202 C1205 1.348 . S
C1202 H1250 0.929 . S
C1203 C1204 1.358 . S
C1203 C1205 1.356 . S
C1203 H1251 0.930 . S
C1204 N1201 1.279 . S
C1204 C1203 1.358 . S
C1204 H1207 0.930 . S
C1205 C1202 1.348 . S
C1205 C1203 1.356 . S
H1206 C1200 0.930 . S
H1207 C1204 0.930 . S
C1208 C1210 1.348 . S
C1208 C1211 1.356 . S
C1208 O1238 1.325 . S
N1209 C1212 1.314 . S
N1209 C1213 1.279 . S
C1210 C1208 1.348 . S
C1210 C1212 1.353 . S
C1210 H1252 0.929 . S
C1211 C1208 1.356 . S
C1211 C1213 1.358 . S
C1211 H1253 0.930 . S
C1212 N1209 1.314 . S
C1212 C1210 1.353 . S
C1212 H1254 0.930 . S
C1213 N1209 1.279 . S
C1213 C1211 1.358 . S
C1213 H1255 0.930 . S
C1214 C1215 1.348 . S
C1214 C1216 1.356 . S
C1214 O1239 1.325 . S
C1215 C1214 1.348 . S
C1215 C1217 1.353 . S
C1215 H1256 0.929 . S
C1216 C1214 1.356 . S
C1216 C1218 1.358 . S
C1216 H1257 0.930 . S
C1217 C1215 1.353 . S
C1217 N1219 1.314 . S
C1217 H1258 0.930 . S
C1218 C1216 1.358 . S
C1218 N1219 1.279 . S
C1218 H1259 0.930 . S
N1219 C1217 1.314 . S
N1219 C1218 1.279 . S
C1220 C1222 1.353 . S
C1220 N1223 1.314 . S
C1220 H1226 0.930 . S
C1221 N1223 1.279 . S
C1221 C1224 1.358 . S
C1221 H1227 0.930 . S
C1222 C1220 1.353 . S
C1222 C1225 1.348 . S
C1222 H1260 0.929 . S
N1223 Li1178 1.990 . S
N1223 C1220 1.314 . S
N1223 C1221 1.279 . S
C1224 C1221 1.358 . S
C1224 C1225 1.356 . S
C1224 H1261 0.930 . S
C1225 C1222 1.348 . S
C1225 C1224 1.356 . S
H1226 C1220 0.930 . S
H1227 C1221 0.930 . S
C1228 N1229 1.314 . S
C1228 C1230 1.353 . S
C1228 H1234 0.930 . S
N1229 Li1179 1.990 . S
N1229 C1228 1.314 . S
N1229 C1232 1.279 . S
C1230 C1228 1.353 . S
C1230 C1233 1.348 . S
C1230 H1262 0.929 . S
C1231 C1232 1.358 . S
C1231 C1233 1.356 . S
C1231 H1263 0.930 . S
C1232 N1229 1.279 . S
C1232 C1231 1.358 . S
C1232 H1235 0.930 . S
C1233 C1230 1.348 . S
C1233 C1231 1.356 . S
H1234 C1228 0.930 . S
H1235 C1232 0.930 . S
O1236 Li1176 1.956 . S
O1236 Li1177 1.970 . S
O1236 Li1178 1.961 . S
O1236 C1180 1.325 . S
O1237 Li1176 1.970 . S
O1237 Li1177 1.956 . S
O1237 Li1179 1.961 . S
O1237 C1186 1.325 . S
O1238 Li1176 1.961 . S
O1238 Li1178 1.956 . S
O1238 Li1179 1.970 . S
O1238 C1208 1.325 . S
O1239 Li1177 1.961 . S
O1239 Li1178 1.970 . S
O1239 Li1179 1.956 . S
O1239 C1214 1.325 . S
H1240 C1182 0.929 . S
H1241 C1183 0.930 . S
H1242 C1184 0.930 . S
H1243 C1185 0.930 . S
H1244 C1187 0.930 . S
H1245 C1189 0.929 . S
H1246 C1190 0.930 . S
H1247 C1191 0.930 . S
H1248 C1194 0.930 . S
H1249 C1197 0.929 . S
H1250 C1202 0.929 . S
H1251 C1203 0.930 . S
H1252 C1210 0.929 . S
H1253 C1211 0.930 . S
H1254 C1212 0.930 . S
H1255 C1213 0.930 . S
H1256 C1215 0.929 . S
H1257 C1216 0.930 . S
H1258 C1217 0.930 . S
H1259 C1218 0.930 . S
H1260 C1222 0.929 . S
H1261 C1224 0.930 . S
H1262 C1230 0.929 . S
H1263 C1231 0.930 . S
H1264 C1272 0.929 . S
H1265 C1274 0.930 . S
H1266 C1276 0.930 . S
H1267 C1279 0.929 . S
H1268 C1282 0.930 . S
H1269 C1284 0.960 . S
H1270 C1284 0.960 . S
H1271 C1284 0.960 . S
C1272 H1264 0.929 . S
C1272 C1273 1.377 . S
C1272 C1274 1.384 . S
C1273 C1272 1.377 . S
C1273 C1279 1.390 . S
C1274 H1265 0.930 . S
C1274 C1272 1.384 . S
C1274 C1275 1.372 . S
C1275 C1274 1.372 . S
C1275 C1276 1.400 . S
C1275 C1280 1.490 . S
C1276 H1266 0.930 . S
C1276 C1275 1.400 . S
C1276 C1279 1.386 . S
H1277 C1293 0.930 . S
H1278 C1294 0.931 . S
C1279 H1267 0.929 . S
C1279 C1273 1.390 . S
C1279 C1276 1.386 . S
C1280 C1275 1.490 . S
C1280 C1282 1.395 . S
C1280 C1283 1.403 . S
H1281 C1287 0.930 . S
C1282 H1268 0.930 . S
C1282 C1280 1.395 . S
C1282 C1285 1.403 . S
C1283 C1280 1.403 . S
C1283 C1284 1.524 . S
C1283 C1287 1.400 . S
C1284 H1269 0.960 . S
C1284 H1270 0.960 . S
C1284 H1271 0.960 . S
C1284 C1283 1.524 . S
C1285 C1282 1.403 . S
C1285 C1286 1.392 . S
C1285 C1289 1.495 . S
C1286 C1285 1.392 . S
C1286 C1287 1.385 . S
C1286 C1288 1.478 . S
C1287 H1281 0.930 . S
C1287 C1283 1.400 . S
C1287 C1286 1.385 . S
C1288 C1286 1.478 . S
C1288 C1290 1.381 . S
C1288 C1294 1.383 . S
C1289 C1285 1.495 . S
C1289 H1295 0.959 . S
C1289 H1296 0.961 . S
C1289 H1297 0.960 . S
C1290 C1288 1.381 . S
C1290 C1291 1.394 . S
C1290 H1298 0.930 . S
C1291 C1290 1.394 . S
C1291 C1292 1.383 . S
C1291 H1299 0.929 . S
C1292 C1291 1.383 . S
C1292 C1293 1.377 . S
C1293 H1277 0.930 . S
C1293 C1292 1.377 . S
C1293 C1294 1.379 . S
C1294 H1278 0.931 . S
C1294 C1288 1.383 . S
C1294 C1293 1.379 . S
H1295 C1289 0.959 . S
H1296 C1289 0.961 . S
H1297 C1289 0.960 . S
H1298 C1290 0.930 . S
H1299 C1291 0.929 . S
H1300 C1308 0.929 . S
H1301 C1310 0.930 . S
H1302 C1312 0.930 . S
H1303 C1315 0.929 . S
H1304 C1318 0.930 . S
H1305 C1320 0.960 . S
H1306 C1320 0.960 . S
H1307 C1320 0.960 . S
C1308 H1300 0.929 . S
C1308 C1309 1.377 . S
C1308 C1310 1.384 . S
C1309 C1308 1.377 . S
C1309 C1315 1.390 . S
C1310 H1301 0.930 . S
C1310 C1308 1.384 . S
C1310 C1311 1.372 1_655 S
C1311 C1310 1.372 1_455 S
C1311 C1312 1.400 . S
C1311 C1316 1.490 . S
C1312 H1302 0.930 . S
C1312 C1311 1.400 . S
C1312 C1315 1.386 1_455 S
H1313 C1329 0.930 . S
H1314 C1330 0.931 . S
C1315 H1303 0.929 . S
C1315 C1309 1.390 . S
C1315 C1312 1.386 1_655 S
C1316 C1311 1.490 . S
C1316 C1318 1.395 . S
C1316 C1319 1.403 . S
H1317 C1323 0.930 . S
C1318 H1304 0.930 . S
C1318 C1316 1.395 . S
C1318 C1321 1.403 . S
C1319 C1316 1.403 . S
C1319 C1320 1.524 . S
C1319 C1323 1.400 . S
C1320 H1305 0.960 . S
C1320 H1306 0.960 . S
C1320 H1307 0.960 . S
C1320 C1319 1.524 . S
C1321 C1318 1.403 . S
C1321 C1322 1.392 . S
C1321 C1325 1.495 . S
C1322 C1321 1.392 . S
C1322 C1323 1.385 . S
C1322 C1324 1.478 . S
C1323 H1317 0.930 . S
C1323 C1319 1.400 . S
C1323 C1322 1.385 . S
C1324 C1322 1.478 . S
C1324 C1326 1.381 . S
C1324 C1330 1.383 . S
C1325 C1321 1.495 . S
C1325 H1331 0.959 . S
C1325 H1332 0.961 . S
C1325 H1333 0.960 . S
C1326 C1324 1.381 . S
C1326 C1327 1.394 . S
C1326 H1334 0.930 . S
C1327 C1326 1.394 . S
C1327 C1328 1.383 . S
C1327 H1335 0.929 . S
C1328 C1327 1.383 . S
C1328 C1329 1.377 . S
C1329 H1313 0.930 . S
C1329 C1328 1.377 . S
C1329 C1330 1.379 . S
C1330 H1314 0.931 . S
C1330 C1324 1.383 . S
C1330 C1329 1.379 . S
H1331 C1325 0.959 . S
H1332 C1325 0.961 . S
H1333 C1325 0.960 . S
H1334 C1326 0.930 . S
H1335 C1327 0.929 . S
H1336 C1344 0.929 . S
H1337 C1346 0.930 . S
H1338 C1348 0.930 . S
H1339 C1351 0.929 . S
H1340 C1354 0.930 . S
H1341 C1356 0.960 . S
H1342 C1356 0.960 . S
H1343 C1356 0.960 . S
C1344 H1336 0.929 . S
C1344 C1345 1.377 . S
C1344 C1346 1.384 . S
C1345 C1344 1.377 . S
C1345 C1351 1.390 . S
C1346 H1337 0.930 . S
C1346 C1344 1.384 . S
C1346 C1347 1.372 . S
C1347 C1346 1.372 . S
C1347 C1348 1.400 . S
C1347 C1352 1.490 . S
C1348 H1338 0.930 . S
C1348 C1347 1.400 . S
C1348 C1351 1.386 . S
H1349 C1365 0.930 . S
H1350 C1366 0.931 . S
C1351 H1339 0.929 . S
C1351 C1345 1.390 . S
C1351 C1348 1.386 . S
C1352 C1347 1.490 . S
C1352 C1354 1.395 . S
C1352 C1355 1.403 . S
H1353 C1359 0.930 . S
C1354 H1340 0.930 . S
C1354 C1352 1.395 . S
C1354 C1357 1.403 . S
C1355 C1352 1.403 . S
C1355 C1356 1.524 . S
C1355 C1359 1.400 . S
C1356 H1341 0.960 . S
C1356 H1342 0.960 . S
C1356 H1343 0.960 . S
C1356 C1355 1.524 . S
C1357 C1354 1.403 . S
C1357 C1358 1.392 . S
C1357 C1361 1.495 . S
C1358 C1357 1.392 . S
C1358 C1359 1.385 . S
C1358 C1360 1.478 . S
C1359 H1353 0.930 . S
C1359 C1355 1.400 . S
C1359 C1358 1.385 . S
C1360 C1358 1.478 . S
C1360 C1362 1.381 . S
C1360 C1366 1.383 . S
C1361 C1357 1.495 . S
C1361 H1367 0.959 . S
C1361 H1368 0.961 . S
C1361 H1369 0.960 . S
C1362 C1360 1.381 . S
C1362 C1363 1.394 . S
C1362 H1370 0.930 . S
C1363 C1362 1.394 . S
C1363 C1364 1.383 . S
C1363 H1371 0.929 . S
C1364 C1363 1.383 . S
C1364 C1365 1.377 . S
C1365 H1349 0.930 . S
C1365 C1364 1.377 . S
C1365 C1366 1.379 . S
C1366 H1350 0.931 . S
C1366 C1360 1.383 . S
C1366 C1365 1.379 . S
H1367 C1361 0.959 . S
H1368 C1361 0.961 . S
H1369 C1361 0.960 . S
H1370 C1362 0.930 . S
H1371 C1363 0.929 . S
H1372 C1380 0.929 1_545 S
H1373 C1382 0.931 . S
H1374 C1384 0.930 . S
H1375 C1387 0.929 1_655 S
H1376 C1390 0.930 . S
H1377 C1392 0.960 . S
H1378 C1392 0.960 . S
H1379 C1392 0.960 . S
C1380 H1372 0.929 1_565 S
C1380 C1381 1.377 . S
C1380 C1382 1.383 1_565 S
C1381 C1380 1.377 . S
C1381 C1387 1.390 . S
C1382 H1373 0.931 . S
C1382 C1380 1.383 1_545 S
C1382 C1383 1.371 1_445 S
C1383 C1382 1.371 1_665 S
C1383 C1384 1.400 . S
C1383 C1388 1.490 . S
C1384 H1374 0.930 . S
C1384 C1383 1.400 . S
C1384 C1387 1.386 1_655 S
H1385 C1401 0.930 . S
H1386 C1402 0.931 . S
C1387 H1375 0.929 1_455 S
C1387 C1381 1.390 . S
C1387 C1384 1.386 1_455 S
C1388 C1383 1.490 . S
C1388 C1390 1.395 . S
C1388 C1391 1.403 1_565 S
H1389 C1395 0.930 . S
C1390 H1376 0.930 . S
C1390 C1388 1.395 . S
C1390 C1393 1.403 . S
C1391 C1388 1.403 1_545 S
C1391 C1392 1.524 . S
C1391 C1395 1.400 . S
C1392 H1377 0.960 . S
C1392 H1378 0.960 . S
C1392 H1379 0.960 . S
C1392 C1391 1.524 . S
C1393 C1390 1.403 . S
C1393 C1394 1.392 . S
C1393 C1397 1.495 . S
C1394 C1393 1.392 . S
C1394 C1395 1.385 1_565 S
C1394 C1396 1.478 . S
C1395 H1389 0.930 . S
C1395 C1391 1.400 . S
C1395 C1394 1.385 1_545 S
C1396 C1394 1.478 . S
C1396 C1398 1.381 1_565 S
C1396 C1402 1.383 . S
C1397 C1393 1.495 . S
C1397 H1403 0.959 . S
C1397 H1404 0.961 . S
C1397 H1405 0.960 . S
C1398 C1396 1.381 1_545 S
C1398 C1399 1.394 . S
C1398 H1406 0.930 . S
C1399 C1398 1.394 . S
C1399 C1400 1.383 . S
C1399 H1407 0.929 . S
C1400 C1399 1.383 . S
C1400 C1401 1.377 1_545 S
C1401 H1385 0.930 . S
C1401 C1400 1.377 1_565 S
C1401 C1402 1.379 . S
C1402 H1386 0.931 . S
C1402 C1396 1.383 . S
C1402 C1401 1.379 . S
H1403 C1397 0.959 . S
H1404 C1397 0.961 . S
H1405 C1397 0.960 . S
H1406 C1398 0.930 . S
H1407 C1399 0.929 . S
H1408 C1416 0.929 . S
H1409 C1418 0.930 . S
H1410 C1420 0.930 . S
H1411 C1423 0.929 . S
H1412 C1426 0.930 . S
H1413 C1428 0.960 . S
H1414 C1428 0.960 . S
H1415 C1428 0.960 . S
C1416 H1408 0.929 . S
C1416 C1417 1.377 . S
C1416 C1418 1.384 . S
C1417 C1416 1.377 . S
C1417 C1423 1.390 . S
C1418 H1409 0.930 . S
C1418 C1416 1.384 . S
C1418 C1419 1.372 . S
C1419 C1418 1.372 . S
C1419 C1420 1.400 . S
C1419 C1424 1.490 . S
C1420 H1410 0.930 . S
C1420 C1419 1.400 . S
C1420 C1423 1.386 . S
H1421 C1437 0.930 . S
H1422 C1438 0.931 . S
C1423 H1411 0.929 . S
C1423 C1417 1.390 . S
C1423 C1420 1.386 . S
C1424 C1419 1.490 . S
C1424 C1426 1.395 . S
C1424 C1427 1.403 . S
H1425 C1431 0.930 . S
C1426 H1412 0.930 . S
C1426 C1424 1.395 . S
C1426 C1429 1.403 . S
C1427 C1424 1.403 . S
C1427 C1428 1.524 . S
C1427 C1431 1.400 . S
C1428 H1413 0.960 . S
C1428 H1414 0.960 . S
C1428 H1415 0.960 . S
C1428 C1427 1.524 . S
C1429 C1426 1.403 . S
C1429 C1430 1.392 . S
C1429 C1433 1.495 . S
C1430 C1429 1.392 . S
C1430 C1431 1.385 . S
C1430 C1432 1.478 . S
C1431 H1425 0.930 . S
C1431 C1427 1.400 . S
C1431 C1430 1.385 . S
C1432 C1430 1.478 . S
C1432 C1434 1.381 . S
C1432 C1438 1.383 . S
C1433 C1429 1.495 . S
C1433 H1439 0.959 . S
C1433 H1440 0.961 . S
C1433 H1441 0.960 . S
C1434 C1432 1.381 . S
C1434 C1435 1.394 . S
C1434 H1442 0.930 . S
C1435 C1434 1.394 . S
C1435 C1436 1.383 . S
C1435 H1443 0.929 . S
C1436 C1435 1.383 . S
C1436 C1437 1.377 . S
C1437 H1421 0.930 . S
C1437 C1436 1.377 . S
C1437 C1438 1.379 . S
C1438 H1422 0.931 . S
C1438 C1432 1.383 . S
C1438 C1437 1.379 . S
H1439 C1433 0.959 . S
H1440 C1433 0.961 . S
H1441 C1433 0.960 . S
H1442 C1434 0.930 . S
H1443 C1435 0.929 . S
H1444 C1452 0.929 . S
H1445 C1454 0.930 . S
H1446 C1456 0.930 . S
H1447 C1459 0.929 . S
H1448 C1462 0.930 . S
H1449 C1464 0.960 . S
H1450 C1464 0.960 . S
H1451 C1464 0.960 . S
C1452 H1444 0.929 . S
C1452 C1453 1.377 . S
C1452 C1454 1.384 . S
C1453 C1452 1.377 . S
C1453 C1459 1.390 . S
C1454 H1445 0.930 . S
C1454 C1452 1.384 . S
C1454 C1455 1.372 . S
C1455 C1454 1.372 . S
C1455 C1456 1.400 . S
C1455 C1460 1.490 . S
C1456 H1446 0.930 . S
C1456 C1455 1.400 . S
C1456 C1459 1.386 . S
H1457 C1473 0.930 . S
H1458 C1474 0.931 . S
C1459 H1447 0.929 . S
C1459 C1453 1.390 . S
C1459 C1456 1.386 . S
C1460 C1455 1.490 . S
C1460 C1462 1.395 . S
C1460 C1463 1.403 . S
H1461 C1467 0.930 . S
C1462 H1448 0.930 . S
C1462 C1460 1.395 . S
C1462 C1465 1.403 . S
C1463 C1460 1.403 . S
C1463 C1464 1.524 . S
C1463 C1467 1.400 . S
C1464 H1449 0.960 . S
C1464 H1450 0.960 . S
C1464 H1451 0.960 . S
C1464 C1463 1.524 . S
C1465 C1462 1.403 . S
C1465 C1466 1.392 . S
C1465 C1469 1.495 . S
C1466 C1465 1.392 . S
C1466 C1467 1.385 . S
C1466 C1468 1.478 . S
C1467 H1461 0.930 . S
C1467 C1463 1.400 . S
C1467 C1466 1.385 . S
C1468 C1466 1.478 . S
C1468 C1470 1.381 . S
C1468 C1474 1.383 . S
C1469 C1465 1.495 . S
C1469 H1475 0.959 . S
C1469 H1476 0.961 . S
C1469 H1477 0.960 . S
C1470 C1468 1.381 . S
C1470 C1471 1.394 . S
C1470 H1478 0.930 . S
C1471 C1470 1.394 . S
C1471 C1472 1.383 . S
C1471 H1479 0.929 . S
C1472 C1471 1.383 . S
C1472 C1473 1.377 . S
C1473 H1457 0.930 . S
C1473 C1472 1.377 . S
C1473 C1474 1.379 . S
C1474 H1458 0.931 . S
C1474 C1468 1.383 . S
C1474 C1473 1.379 . S
H1475 C1469 0.959 . S
H1476 C1469 0.961 . S
H1477 C1469 0.960 . S
H1478 C1470 0.930 . S
H1479 C1471 0.929 . S
H1480 C1488 0.929 . S
H1481 C1490 0.930 . S
H1482 C1492 0.930 . S
H1483 C1495 0.929 . S
H1484 C1498 0.930 . S
H1485 C1500 0.960 . S
H1486 C1500 0.960 . S
H1487 C1500 0.960 . S
C1488 H1480 0.929 . S
C1488 C1489 1.377 . S
C1488 C1490 1.384 . S
C1489 C1488 1.377 . S
C1489 C1495 1.390 . S
C1490 H1481 0.930 . S
C1490 C1488 1.384 . S
C1490 C1491 1.372 . S
C1491 C1490 1.372 . S
C1491 C1492 1.400 . S
C1491 C1496 1.490 . S
C1492 H1482 0.930 . S
C1492 C1491 1.400 . S
C1492 C1495 1.386 . S
H1493 C1509 0.930 . S
H1494 C1510 0.931 . S
C1495 H1483 0.929 . S
C1495 C1489 1.390 . S
C1495 C1492 1.386 . S
C1496 C1491 1.490 . S
C1496 C1498 1.395 . S
C1496 C1499 1.403 . S
H1497 C1503 0.930 . S
C1498 H1484 0.930 . S
C1498 C1496 1.395 . S
C1498 C1501 1.403 . S
C1499 C1496 1.403 . S
C1499 C1500 1.524 . S
C1499 C1503 1.400 . S
C1500 H1485 0.960 . S
C1500 H1486 0.960 . S
C1500 H1487 0.960 . S
C1500 C1499 1.524 . S
C1501 C1498 1.403 . S
C1501 C1502 1.392 . S
C1501 C1505 1.495 . S
C1502 C1501 1.392 . S
C1502 C1503 1.385 . S
C1502 C1504 1.478 . S
C1503 H1497 0.930 . S
C1503 C1499 1.400 . S
C1503 C1502 1.385 . S
C1504 C1502 1.478 . S
C1504 C1506 1.381 . S
C1504 C1510 1.383 . S
C1505 C1501 1.495 . S
C1505 H1511 0.959 . S
C1505 H1512 0.961 . S
C1505 H1513 0.960 . S
C1506 C1504 1.381 . S
C1506 C1507 1.394 . S
C1506 H1514 0.930 . S
C1507 C1506 1.394 . S
C1507 C1508 1.383 . S
C1507 H1515 0.929 . S
C1508 C1507 1.383 . S
C1508 C1509 1.377 . S
C1509 H1493 0.930 . S
C1509 C1508 1.377 . S
C1509 C1510 1.379 . S
C1510 H1494 0.931 . S
C1510 C1504 1.383 . S
C1510 C1509 1.379 . S
H1511 C1505 0.959 . S
H1512 C1505 0.961 . S
H1513 C1505 0.960 . S
H1514 C1506 0.930 . S
H1515 C1507 0.929 . S
H1516 C1524 0.929 . S
H1517 C1526 0.930 . S
H1518 C1528 0.930 . S
H1519 C1531 0.929 . S
H1520 C1534 0.930 . S
H1521 C1536 0.960 1_545 S
H1522 C1536 0.960 1_545 S
H1523 C1536 0.960 . S
C1524 H1516 0.929 . S
C1524 C1525 1.377 . S
C1524 C1526 1.384 . S
C1525 C1524 1.377 . S
C1525 C1531 1.390 . S
C1526 H1517 0.930 . S
C1526 C1524 1.384 . S
C1526 C1527 1.372 . S
C1527 C1526 1.372 . S
C1527 C1528 1.400 . S
C1527 C1532 1.490 . S
C1528 H1518 0.930 . S
C1528 C1527 1.400 . S
C1528 C1531 1.386 . S
H1529 C1545 0.930 . S
H1530 C1546 0.931 . S
C1531 H1519 0.929 . S
C1531 C1525 1.390 . S
C1531 C1528 1.386 . S
C1532 C1527 1.490 . S
C1532 C1534 1.395 . S
C1532 C1535 1.403 . S
H1533 C1539 0.930 . S
C1534 H1520 0.930 . S
C1534 C1532 1.395 . S
C1534 C1537 1.403 . S
C1535 C1532 1.403 . S
C1535 C1536 1.524 . S
C1535 C1539 1.400 . S
C1536 H1521 0.960 1_565 S
C1536 H1522 0.960 1_565 S
C1536 H1523 0.960 . S
C1536 C1535 1.524 . S
C1537 C1534 1.403 . S
C1537 C1538 1.392 . S
C1537 C1541 1.495 . S
C1538 C1537 1.392 . S
C1538 C1539 1.385 . S
C1538 C1540 1.478 . S
C1539 H1533 0.930 . S
C1539 C1535 1.400 . S
C1539 C1538 1.385 . S
C1540 C1538 1.478 . S
C1540 C1542 1.381 . S
C1540 C1546 1.383 . S
C1541 C1537 1.495 . S
C1541 H1547 0.959 . S
C1541 H1548 0.961 . S
C1541 H1549 0.960 . S
C1542 C1540 1.381 . S
C1542 C1543 1.393 1_565 S
C1542 H1550 0.930 1_565 S
C1543 C1542 1.393 1_545 S
C1543 C1544 1.362 1_545 S
C1543 H1551 0.953 . S
C1544 C1543 1.362 1_565 S
C1544 C1545 1.377 . S
C1545 H1529 0.930 . S
C1545 C1544 1.377 . S
C1545 C1546 1.379 . S
C1546 H1530 0.931 . S
C1546 C1540 1.383 . S
C1546 C1545 1.379 . S
H1547 C1541 0.959 . S
H1548 C1541 0.961 . S
H1549 C1541 0.960 . S
H1550 C1542 0.930 1_545 S
H1551 C1543 0.953 . S
H1552 C1560 0.929 . S
H1553 C1562 0.930 . S
H1554 C1564 0.930 . S
H1555 C1567 0.929 . S
H1556 C1570 0.930 . S
H1557 C1572 0.960 . S
H1558 C1572 0.960 . S
H1559 C1572 0.960 . S
C1560 H1552 0.929 . S
C1560 C1561 1.377 . S
C1560 C1562 1.384 . S
C1561 C1560 1.377 . S
C1561 C1567 1.390 . S
C1562 H1553 0.930 . S
C1562 C1560 1.384 . S
C1562 C1563 1.372 . S
C1563 C1562 1.372 . S
C1563 C1564 1.400 . S
C1563 C1568 1.490 . S
C1564 H1554 0.930 . S
C1564 C1563 1.400 . S
C1564 C1567 1.386 . S
H1565 C1581 0.930 . S
H1566 C1582 0.931 . S
C1567 H1555 0.929 . S
C1567 C1561 1.390 . S
C1567 C1564 1.386 . S
C1568 C1563 1.490 . S
C1568 C1570 1.395 . S
C1568 C1571 1.403 . S
H1569 C1575 0.930 . S
C1570 H1556 0.930 . S
C1570 C1568 1.395 . S
C1570 C1573 1.403 . S
C1571 C1568 1.403 . S
C1571 C1572 1.524 . S
C1571 C1575 1.400 . S
C1572 H1557 0.960 . S
C1572 H1558 0.960 . S
C1572 H1559 0.960 . S
C1572 C1571 1.524 . S
C1573 C1570 1.403 . S
C1573 C1574 1.392 . S
C1573 C1577 1.495 . S
C1574 C1573 1.392 . S
C1574 C1575 1.385 . S
C1574 C1576 1.478 . S
C1575 H1569 0.930 . S
C1575 C1571 1.400 . S
C1575 C1574 1.385 . S
C1576 C1574 1.478 . S
C1576 C1578 1.381 . S
C1576 C1582 1.383 . S
C1577 C1573 1.495 . S
C1577 H1583 0.959 . S
C1577 H1584 0.961 . S
C1577 H1585 0.960 . S
C1578 C1576 1.381 . S
C1578 C1579 1.394 . S
C1578 H1586 0.930 . S
C1579 C1578 1.394 . S
C1579 C1580 1.383 . S
C1579 H1587 0.929 . S
C1580 C1579 1.383 . S
C1580 C1581 1.377 . S
C1581 H1565 0.930 . S
C1581 C1580 1.377 . S
C1581 C1582 1.379 . S
C1582 H1566 0.931 . S
C1582 C1576 1.383 . S
C1582 C1581 1.379 . S
H1583 C1577 0.959 . S
H1584 C1577 0.961 . S
H1585 C1577 0.960 . S
H1586 C1578 0.930 . S
H1587 C1579 0.929 . S
H1588 C1596 0.929 . S
H1589 C1598 0.930 . S
H1590 C1600 0.930 . S
H1591 C1603 0.929 . S
H1592 C1606 0.930 . S
H1593 C1608 0.960 . S
H1594 C1608 0.960 . S
H1595 C1608 0.960 . S
C1596 H1588 0.929 . S
C1596 C1597 1.377 . S
C1596 C1598 1.384 . S
C1597 C1596 1.377 . S
C1597 C1603 1.390 . S
C1598 H1589 0.930 . S
C1598 C1596 1.384 . S
C1598 C1599 1.372 . S
C1599 C1598 1.372 . S
C1599 C1600 1.400 . S
C1599 C1604 1.490 . S
C1600 H1590 0.930 . S
C1600 C1599 1.400 . S
C1600 C1603 1.386 . S
H1601 C1617 0.930 . S
H1602 C1618 0.931 . S
C1603 H1591 0.929 . S
C1603 C1597 1.390 . S
C1603 C1600 1.386 . S
C1604 C1599 1.490 . S
C1604 C1606 1.395 . S
C1604 C1607 1.403 . S
H1605 C1611 0.930 . S
C1606 H1592 0.930 . S
C1606 C1604 1.395 . S
C1606 C1609 1.403 . S
C1607 C1604 1.403 . S
C1607 C1608 1.524 . S
C1607 C1611 1.400 . S
C1608 H1593 0.960 . S
C1608 H1594 0.960 . S
C1608 H1595 0.960 . S
C1608 C1607 1.524 . S
C1609 C1606 1.403 . S
C1609 C1610 1.392 . S
C1609 C1613 1.495 . S
C1610 C1609 1.392 . S
C1610 C1611 1.385 . S
C1610 C1612 1.478 . S
C1611 H1605 0.930 . S
C1611 C1607 1.400 . S
C1611 C1610 1.385 . S
C1612 C1610 1.478 . S
C1612 C1614 1.381 . S
C1612 C1618 1.383 . S
C1613 C1609 1.495 . S
C1613 H1619 0.959 . S
C1613 H1620 0.961 . S
C1613 H1621 0.960 . S
C1614 C1612 1.381 . S
C1614 C1615 1.394 . S
C1614 H1622 0.930 . S
C1615 C1614 1.394 . S
C1615 C1616 1.383 . S
C1615 H1623 0.929 . S
C1616 C1615 1.383 . S
C1616 C1617 1.377 . S
C1617 H1601 0.930 . S
C1617 C1616 1.377 . S
C1617 C1618 1.379 . S
C1618 H1602 0.931 . S
C1618 C1612 1.383 . S
C1618 C1617 1.379 . S
H1619 C1613 0.959 . S
H1620 C1613 0.961 . S
H1621 C1613 0.960 . S
H1622 C1614 0.930 . S
H1623 C1615 0.929 . S
H1624 C1632 0.929 . S
H1625 C1634 0.930 . S
H1626 C1636 0.930 . S
H1627 C1639 0.929 . S
H1628 C1642 0.930 . S
H1629 C1644 0.960 . S
H1630 C1644 0.960 . S
H1631 C1644 0.960 . S
C1632 H1624 0.929 . S
C1632 C1633 1.377 . S
C1632 C1634 1.384 . S
C1633 C1632 1.377 . S
C1633 C1639 1.390 . S
C1634 H1625 0.930 . S
C1634 C1632 1.384 . S
C1634 C1635 1.372 . S
C1635 C1634 1.372 . S
C1635 C1636 1.400 . S
C1635 C1640 1.490 . S
C1636 H1626 0.930 . S
C1636 C1635 1.400 . S
C1636 C1639 1.386 . S
H1637 C1653 0.930 . S
H1638 C1654 0.931 . S
C1639 H1627 0.929 . S
C1639 C1633 1.390 . S
C1639 C1636 1.386 . S
C1640 C1635 1.490 . S
C1640 C1642 1.395 . S
C1640 C1643 1.403 . S
H1641 C1647 0.930 . S
C1642 H1628 0.930 . S
C1642 C1640 1.395 . S
C1642 C1645 1.403 . S
C1643 C1640 1.403 . S
C1643 C1644 1.524 . S
C1643 C1647 1.400 . S
C1644 H1629 0.960 . S
C1644 H1630 0.960 . S
C1644 H1631 0.960 . S
C1644 C1643 1.524 . S
C1645 C1642 1.403 . S
C1645 C1646 1.392 . S
C1645 C1649 1.495 . S
C1646 C1645 1.392 . S
C1646 C1647 1.385 . S
C1646 C1648 1.478 . S
C1647 H1641 0.930 . S
C1647 C1643 1.400 . S
C1647 C1646 1.385 . S
C1648 C1646 1.478 . S
C1648 C1650 1.381 . S
C1648 C1654 1.383 . S
C1649 C1645 1.495 . S
C1649 H1655 0.959 . S
C1649 H1656 0.961 . S
C1649 H1657 0.960 . S
C1650 C1648 1.381 . S
C1650 C1651 1.394 . S
C1650 H1658 0.930 . S
C1651 C1650 1.394 . S
C1651 C1652 1.383 . S
C1651 H1659 0.929 . S
C1652 C1651 1.383 . S
C1652 C1653 1.377 . S
C1653 H1637 0.930 . S
C1653 C1652 1.377 . S
C1653 C1654 1.379 . S
C1654 H1638 0.931 . S
C1654 C1648 1.383 . S
C1654 C1653 1.379 . S
H1655 C1649 0.959 . S
H1656 C1649 0.961 . S
H1657 C1649 0.960 . S
H1658 C1650 0.930 . S
H1659 C1651 0.929 . S
H1660 C1668 0.929 . S
H1661 C1670 0.930 . S
H1662 C1672 0.930 . S
H1663 C1675 0.929 . S
H1664 C1678 0.930 . S
H1665 C1680 0.960 . S
H1666 C1680 0.960 . S
H1667 C1680 0.960 . S
C1668 H1660 0.929 . S
C1668 C1669 1.377 . S
C1668 C1670 1.384 . S
C1669 C1668 1.377 . S
C1669 C1675 1.390 . S
C1670 H1661 0.930 . S
C1670 C1668 1.384 . S
C1670 C1671 1.372 . S
C1671 C1670 1.372 . S
C1671 C1672 1.400 . S
C1671 C1676 1.490 . S
C1672 H1662 0.930 . S
C1672 C1671 1.400 . S
C1672 C1675 1.386 . S
H1673 C1689 0.930 . S
H1674 C1690 0.931 . S
C1675 H1663 0.929 . S
C1675 C1669 1.390 . S
C1675 C1672 1.386 . S
C1676 C1671 1.490 . S
C1676 C1678 1.395 . S
C1676 C1679 1.403 . S
H1677 C1683 0.930 . S
C1678 H1664 0.930 . S
C1678 C1676 1.395 . S
C1678 C1681 1.403 . S
C1679 C1676 1.403 . S
C1679 C1680 1.524 . S
C1679 C1683 1.400 . S
C1680 H1665 0.960 . S
C1680 H1666 0.960 . S
C1680 H1667 0.960 . S
C1680 C1679 1.524 . S
C1681 C1678 1.403 . S
C1681 C1682 1.392 . S
C1681 C1685 1.495 . S
C1682 C1681 1.392 . S
C1682 C1683 1.385 . S
C1682 C1684 1.478 . S
C1683 H1677 0.930 . S
C1683 C1679 1.400 . S
C1683 C1682 1.385 . S
C1684 C1682 1.478 . S
C1684 C1686 1.381 . S
C1684 C1690 1.383 . S
C1685 C1681 1.495 . S
C1685 H1691 0.959 . S
C1685 H1692 0.961 . S
C1685 H1693 0.960 . S
C1686 C1684 1.381 . S
C1686 C1687 1.394 . S
C1686 H1694 0.930 . S
C1687 C1686 1.394 . S
C1687 C1688 1.383 . S
C1687 H1695 0.929 . S
C1688 C1687 1.383 . S
C1688 C1689 1.377 . S
C1689 H1673 0.930 . S
C1689 C1688 1.377 . S
C1689 C1690 1.379 . S
C1690 H1674 0.931 . S
C1690 C1684 1.383 . S
C1690 C1689 1.379 . S
H1691 C1685 0.959 . S
H1692 C1685 0.961 . S
H1693 C1685 0.960 . S
H1694 C1686 0.930 . S
H1695 C1687 0.929 . S
H1696 C1704 0.929 . S
H1697 C1706 0.930 . S
H1698 C1708 0.930 . S
H1699 C1711 0.929 . S
H1700 C1714 0.930 . S
H1701 C1716 0.960 . S
H1702 C1716 0.960 . S
H1703 C1716 0.960 . S
C1704 H1696 0.929 . S
C1704 C1705 1.377 . S
C1704 C1706 1.384 . S
C1705 C1704 1.377 . S
C1705 C1711 1.390 . S
C1706 H1697 0.930 . S
C1706 C1704 1.384 . S
C1706 C1707 1.372 . S
C1707 C1706 1.372 . S
C1707 C1708 1.400 . S
C1707 C1712 1.490 . S
C1708 H1698 0.930 . S
C1708 C1707 1.400 . S
C1708 C1711 1.386 . S
H1709 C1725 0.930 . S
H1710 C1726 0.931 . S
C1711 H1699 0.929 . S
C1711 C1705 1.390 . S
C1711 C1708 1.386 . S
C1712 C1707 1.490 . S
C1712 C1714 1.395 . S
C1712 C1715 1.403 . S
H1713 C1719 0.930 . S
C1714 H1700 0.930 . S
C1714 C1712 1.395 . S
C1714 C1717 1.403 . S
C1715 C1712 1.403 . S
C1715 C1716 1.524 . S
C1715 C1719 1.400 . S
C1716 H1701 0.960 . S
C1716 H1702 0.960 . S
C1716 H1703 0.960 . S
C1716 C1715 1.524 . S
C1717 C1714 1.403 . S
C1717 C1718 1.392 . S
C1717 C1721 1.495 . S
C1718 C1717 1.392 . S
C1718 C1719 1.385 . S
C1718 C1720 1.478 . S
C1719 H1713 0.930 . S
C1719 C1715 1.400 . S
C1719 C1718 1.385 . S
C1720 C1718 1.478 . S
C1720 C1722 1.381 . S
C1720 C1726 1.383 . S
C1721 C1717 1.495 . S
C1721 H1727 0.959 . S
C1721 H1728 0.961 . S
C1721 H1729 0.960 . S
C1722 C1720 1.381 . S
C1722 C1723 1.394 . S
C1722 H1730 0.930 . S
C1723 C1722 1.394 . S
C1723 C1724 1.383 . S
C1723 H1731 0.929 . S
C1724 C1723 1.383 . S
C1724 C1725 1.377 . S
C1725 H1709 0.930 . S
C1725 C1724 1.377 . S
C1725 C1726 1.379 . S
C1726 H1710 0.931 . S
C1726 C1720 1.383 . S
C1726 C1725 1.379 . S
H1727 C1721 0.959 . S
H1728 C1721 0.961 . S
H1729 C1721 0.960 . S
H1730 C1722 0.930 . S
H1731 C1723 0.929 . S
H1732 C1740 0.929 . S
H1733 C1742 0.930 . S
H1734 C1744 0.930 . S
H1735 C1747 0.929 . S
H1736 C1750 0.930 . S
H1737 C1752 0.960 . S
H1738 C1752 0.960 . S
H1739 C1752 0.960 . S
C1740 H1732 0.929 . S
C1740 C1741 1.377 . S
C1740 C1742 1.384 . S
C1741 C1740 1.377 . S
C1741 C1747 1.390 . S
C1742 H1733 0.930 . S
C1742 C1740 1.384 . S
C1742 C1743 1.372 . S
C1743 C1742 1.372 . S
C1743 C1744 1.400 . S
C1743 C1748 1.490 . S
C1744 H1734 0.930 . S
C1744 C1743 1.400 . S
C1744 C1747 1.386 . S
H1745 C1761 0.930 . S
H1746 C1762 0.931 . S
C1747 H1735 0.929 . S
C1747 C1741 1.390 . S
C1747 C1744 1.386 . S
C1748 C1743 1.490 . S
C1748 C1750 1.395 . S
C1748 C1751 1.403 . S
H1749 C1755 0.930 . S
C1750 H1736 0.930 . S
C1750 C1748 1.395 . S
C1750 C1753 1.403 . S
C1751 C1748 1.403 . S
C1751 C1752 1.524 . S
C1751 C1755 1.400 . S
C1752 H1737 0.960 . S
C1752 H1738 0.960 . S
C1752 H1739 0.960 . S
C1752 C1751 1.524 . S
C1753 C1750 1.403 . S
C1753 C1754 1.392 . S
C1753 C1757 1.495 . S
C1754 C1753 1.392 . S
C1754 C1755 1.385 . S
C1754 C1756 1.478 . S
C1755 H1749 0.930 . S
C1755 C1751 1.400 . S
C1755 C1754 1.385 . S
C1756 C1754 1.478 . S
C1756 C1758 1.381 . S
C1756 C1762 1.383 . S
C1757 C1753 1.495 . S
C1757 H1763 0.959 . S
C1757 H1764 0.961 . S
C1757 H1765 0.960 . S
C1758 C1756 1.381 . S
C1758 C1759 1.394 . S
C1758 H1766 0.930 . S
C1759 C1758 1.394 . S
C1759 C1760 1.383 . S
C1759 H1767 0.929 . S
C1760 C1759 1.383 . S
C1760 C1761 1.377 . S
C1761 H1745 0.930 . S
C1761 C1760 1.377 . S
C1761 C1762 1.379 . S
C1762 H1746 0.931 . S
C1762 C1756 1.383 . S
C1762 C1761 1.379 . S
H1763 C1757 0.959 . S
H1764 C1757 0.961 . S
H1765 C1757 0.960 . S
H1766 C1758 0.930 . S
H1767 C1759 0.929 . S
H1768 C1776 0.929 . S
H1769 C1778 0.930 . S
H1770 C1780 0.930 . S
H1771 C1783 0.929 . S
H1772 C1786 0.930 . S
H1773 C1788 0.960 . S
H1774 C1788 0.960 . S
H1775 C1788 0.960 . S
C1776 H1768 0.929 . S
C1776 C1777 1.377 . S
C1776 C1778 1.384 . S
C1777 C1776 1.377 . S
C1777 C1783 1.390 . S
C1778 H1769 0.930 . S
C1778 C1776 1.384 . S
C1778 C1779 1.372 . S
C1779 C1778 1.372 . S
C1779 C1780 1.400 . S
C1779 C1784 1.490 . S
C1780 H1770 0.930 . S
C1780 C1779 1.400 . S
C1780 C1783 1.386 . S
H1781 C1797 0.930 . S
H1782 C1798 0.931 . S
C1783 H1771 0.929 . S
C1783 C1777 1.390 . S
C1783 C1780 1.386 . S
C1784 C1779 1.490 . S
C1784 C1786 1.395 . S
C1784 C1787 1.403 . S
H1785 C1791 0.930 . S
C1786 H1772 0.930 . S
C1786 C1784 1.395 . S
C1786 C1789 1.403 . S
C1787 C1784 1.403 . S
C1787 C1788 1.524 . S
C1787 C1791 1.400 . S
C1788 H1773 0.960 . S
C1788 H1774 0.960 . S
C1788 H1775 0.960 . S
C1788 C1787 1.524 . S
C1789 C1786 1.403 . S
C1789 C1790 1.392 . S
C1789 C1793 1.495 . S
C1790 C1789 1.392 . S
C1790 C1791 1.385 . S
C1790 C1792 1.478 . S
C1791 H1785 0.930 . S
C1791 C1787 1.400 . S
C1791 C1790 1.385 . S
C1792 C1790 1.478 . S
C1792 C1794 1.381 . S
C1792 C1798 1.383 . S
C1793 C1789 1.495 . S
C1793 H1799 0.959 . S
C1793 H1800 0.961 . S
C1793 H1801 0.960 . S
C1794 C1792 1.381 . S
C1794 C1795 1.394 . S
C1794 H1802 0.930 . S
C1795 C1794 1.394 . S
C1795 C1796 1.383 . S
C1795 H1803 0.929 . S
C1796 C1795 1.383 . S
C1796 C1797 1.377 . S
C1797 H1781 0.930 . S
C1797 C1796 1.377 . S
C1797 C1798 1.379 . S
C1798 H1782 0.931 . S
C1798 C1792 1.383 . S
C1798 C1797 1.379 . S
H1799 C1793 0.959 . S
H1800 C1793 0.961 . S
H1801 C1793 0.960 . S
H1802 C1794 0.930 . S
H1803 C1795 0.929 . S
H1804 C1812 0.929 . S
H1805 C1814 0.930 . S
H1806 C1816 0.930 . S
H1807 C1819 0.929 . S
H1808 C1822 0.930 . S
H1809 C1824 0.960 . S
H1810 C1824 0.960 . S
H1811 C1824 0.960 . S
C1812 H1804 0.929 . S
C1812 C1813 1.377 . S
C1812 C1814 1.384 . S
C1813 C1812 1.377 . S
C1813 C1819 1.390 . S
C1814 H1805 0.930 . S
C1814 C1812 1.384 . S
C1814 C1815 1.372 . S
C1815 C1814 1.372 . S
C1815 C1816 1.400 . S
C1815 C1820 1.490 . S
C1816 H1806 0.930 . S
C1816 C1815 1.400 . S
C1816 C1819 1.386 . S
H1817 C1833 0.930 . S
H1818 C1834 0.931 . S
C1819 H1807 0.929 . S
C1819 C1813 1.390 . S
C1819 C1816 1.386 . S
C1820 C1815 1.490 . S
C1820 C1822 1.395 . S
C1820 C1823 1.403 . S
H1821 C1827 0.930 1_455 S
C1822 H1808 0.930 . S
C1822 C1820 1.395 . S
C1822 C1825 1.403 . S
C1823 C1820 1.403 . S
C1823 C1824 1.524 1_655 S
C1823 C1827 1.400 . S
C1824 H1809 0.960 . S
C1824 H1810 0.960 . S
C1824 H1811 0.960 . S
C1824 C1823 1.524 1_455 S
C1825 C1822 1.403 . S
C1825 C1826 1.392 . S
C1825 C1829 1.495 . S
C1826 C1825 1.392 . S
C1826 C1827 1.385 . S
C1826 C1828 1.478 . S
C1827 H1821 0.930 1_655 S
C1827 C1823 1.400 . S
C1827 C1826 1.385 . S
C1828 C1826 1.478 . S
C1828 C1830 1.381 . S
C1828 C1834 1.383 1_655 S
C1829 C1825 1.495 . S
C1829 H1835 0.959 . S
C1829 H1836 0.961 . S
C1829 H1837 0.960 . S
C1830 C1828 1.381 . S
C1830 C1831 1.394 . S
C1830 H1838 0.930 . S
C1831 C1830 1.394 . S
C1831 C1832 1.383 1_655 S
C1831 H1839 0.929 . S
C1832 C1831 1.383 1_455 S
C1832 C1833 1.377 . S
C1833 H1817 0.930 . S
C1833 C1832 1.377 . S
C1833 C1834 1.379 . S
C1834 H1818 0.931 . S
C1834 C1828 1.383 1_455 S
C1834 C1833 1.379 . S
H1835 C1829 0.959 . S
H1836 C1829 0.961 . S
H1837 C1829 0.960 . S
H1838 C1830 0.930 . S
H1839 C1831 0.929 . S
H1840 C1848 0.929 . S
H1841 C1850 0.930 . S
H1842 C1852 0.930 . S
H1843 C1855 0.929 . S
H1844 C1858 0.930 . S
H1845 C1860 0.960 . S
H1846 C1860 0.960 . S
H1847 C1860 0.960 . S
C1848 H1840 0.929 . S
C1848 C1849 1.377 . S
C1848 C1850 1.384 . S
C1849 C1848 1.377 . S
C1849 C1855 1.390 . S
C1850 H1841 0.930 . S
C1850 C1848 1.384 . S
C1850 C1851 1.372 . S
C1851 C1850 1.372 . S
C1851 C1852 1.400 . S
C1851 C1856 1.490 . S
C1852 H1842 0.930 . S
C1852 C1851 1.400 . S
C1852 C1855 1.386 . S
H1853 C1869 0.930 . S
H1854 C1870 0.931 . S
C1855 H1843 0.929 . S
C1855 C1849 1.390 . S
C1855 C1852 1.386 . S
C1856 C1851 1.490 . S
C1856 C1858 1.395 . S
C1856 C1859 1.403 . S
H1857 C1863 0.930 . S
C1858 H1844 0.930 . S
C1858 C1856 1.395 . S
C1858 C1861 1.403 . S
C1859 C1856 1.403 . S
C1859 C1860 1.524 . S
C1859 C1863 1.400 . S
C1860 H1845 0.960 . S
C1860 H1846 0.960 . S
C1860 H1847 0.960 . S
C1860 C1859 1.524 . S
C1861 C1858 1.403 . S
C1861 C1862 1.392 . S
C1861 C1865 1.495 . S
C1862 C1861 1.392 . S
C1862 C1863 1.385 . S
C1862 C1864 1.478 . S
C1863 H1857 0.930 . S
C1863 C1859 1.400 . S
C1863 C1862 1.385 . S
C1864 C1862 1.478 . S
C1864 C1866 1.381 . S
C1864 C1870 1.383 . S
C1865 C1861 1.495 . S
C1865 H1871 0.959 . S
C1865 H1872 0.961 . S
C1865 H1873 0.960 . S
C1866 C1864 1.381 . S
C1866 C1867 1.394 . S
C1866 H1874 0.930 . S
C1867 C1866 1.394 . S
C1867 C1868 1.383 . S
C1867 H1875 0.929 . S
C1868 C1867 1.383 . S
C1868 C1869 1.377 . S
C1869 H1853 0.930 . S
C1869 C1868 1.377 . S
C1869 C1870 1.379 . S
C1870 H1854 0.931 . S
C1870 C1864 1.383 . S
C1870 C1869 1.379 . S
H1871 C1865 0.959 . S
H1872 C1865 0.961 . S
H1873 C1865 0.960 . S
H1874 C1866 0.930 . S
H1875 C1867 0.929 . S
H1876 C1884 0.929 . S
H1877 C1886 0.930 . S
H1878 C1888 0.930 . S
H1879 C1891 0.929 . S
H1880 C1894 0.930 . S
H1881 C1896 0.960 . S
H1882 C1896 0.960 . S
H1883 C1896 0.960 . S
C1884 H1876 0.929 . S
C1884 C1885 1.377 . S
C1884 C1886 1.384 . S
C1885 C1884 1.377 . S
C1885 C1891 1.390 . S
C1886 H1877 0.930 . S
C1886 C1884 1.384 . S
C1886 C1887 1.372 . S
C1887 C1886 1.372 . S
C1887 C1888 1.400 . S
C1887 C1892 1.490 . S
C1888 H1878 0.930 . S
C1888 C1887 1.400 . S
C1888 C1891 1.386 . S
H1889 C1905 0.930 . S
H1890 C1906 0.931 . S
C1891 H1879 0.929 . S
C1891 C1885 1.390 . S
C1891 C1888 1.386 . S
C1892 C1887 1.490 . S
C1892 C1894 1.395 . S
C1892 C1895 1.403 . S
H1893 C1899 0.930 . S
C1894 H1880 0.930 . S
C1894 C1892 1.395 . S
C1894 C1897 1.403 . S
C1895 C1892 1.403 . S
C1895 C1896 1.524 . S
C1895 C1899 1.400 . S
C1896 H1881 0.960 . S
C1896 H1882 0.960 . S
C1896 H1883 0.960 . S
C1896 C1895 1.524 . S
C1897 C1894 1.403 . S
C1897 C1898 1.392 . S
C1897 C1901 1.495 . S
C1898 C1897 1.392 . S
C1898 C1899 1.385 . S
C1898 C1900 1.478 . S
C1899 H1893 0.930 . S
C1899 C1895 1.400 . S
C1899 C1898 1.385 . S
C1900 C1898 1.478 . S
C1900 C1902 1.381 . S
C1900 C1906 1.383 . S
C1901 C1897 1.495 . S
C1901 H1907 0.959 . S
C1901 H1908 0.961 . S
C1901 H1909 0.960 . S
C1902 C1900 1.381 . S
C1902 C1903 1.394 . S
C1902 H1910 0.930 . S
C1903 C1902 1.394 . S
C1903 C1904 1.383 . S
C1903 H1911 0.929 . S
C1904 C1903 1.383 . S
C1904 C1905 1.377 . S
C1905 H1889 0.930 . S
C1905 C1904 1.377 . S
C1905 C1906 1.379 . S
C1906 H1890 0.931 . S
C1906 C1900 1.383 . S
C1906 C1905 1.379 . S
H1907 C1901 0.959 . S
H1908 C1901 0.961 . S
H1909 C1901 0.960 . S
H1910 C1902 0.930 . S
H1911 C1903 0.929 . S
H1912 C1920 0.929 . S
H1913 C1922 0.930 1_554 S
H1914 C1924 0.930 . S
H1915 C1927 0.929 . S
H1916 C1930 0.913 1_545 S
H1917 C1932 0.965 . S
H1918 C1932 0.969 . S
H1919 C1932 0.951 1_556 S
C1920 H1912 0.929 . S
C1920 C1921 1.377 . S
C1920 C1922 1.384 . S
C1921 C1920 1.377 . S
C1921 C1927 1.390 . S
C1922 H1913 0.930 1_556 S
C1922 C1920 1.384 . S
C1922 C1923 1.372 . S
C1923 C1922 1.372 . S
C1923 C1924 1.400 1_545 S
C1923 C1928 1.490 1_545 S
C1924 H1914 0.930 . S
C1924 C1923 1.400 1_565 S
C1924 C1927 1.386 1_565 S
H1925 C1941 0.930 . S
H1926 C1942 0.931 . S
C1927 H1915 0.929 . S
C1927 C1921 1.390 . S
C1927 C1924 1.386 1_545 S
C1928 C1923 1.490 1_565 S
C1928 C1930 1.403 . S
C1928 C1931 1.403 . S
H1929 C1935 0.927 1_554 S
C1930 H1916 0.913 1_565 S
C1930 C1928 1.403 . S
C1930 C1933 1.412 . S
C1931 C1928 1.403 . S
C1931 C1932 1.519 1_556 S
C1931 C1935 1.400 . S
C1932 H1917 0.965 . S
C1932 H1918 0.969 . S
C1932 H1919 0.951 1_554 S
C1932 C1931 1.519 1_554 S
C1933 C1930 1.412 . S
C1933 C1934 1.392 . S
C1933 C1937 1.495 . S
C1934 C1933 1.392 . S
C1934 C1935 1.385 . S
C1934 C1936 1.478 . S
C1935 H1929 0.927 1_556 S
C1935 C1931 1.400 . S
C1935 C1934 1.385 . S
C1936 C1934 1.478 . S
C1936 C1938 1.381 1_556 S
C1936 C1942 1.383 . S
C1937 C1933 1.495 . S
C1937 H1943 0.959 1_565 S
C1937 H1944 0.961 . S
C1937 H1945 0.959 . S
C1938 C1936 1.381 1_554 S
C1938 C1939 1.394 . S
C1938 H1946 0.930 . S
C1939 C1938 1.394 . S
C1939 C1940 1.386 1_554 S
C1939 H1947 0.929 . S
C1940 C1939 1.386 1_556 S
C1940 C1941 1.373 . S
C1941 H1925 0.930 . S
C1941 C1940 1.373 . S
C1941 C1942 1.379 . S
C1942 H1926 0.931 . S
C1942 C1936 1.383 . S
C1942 C1941 1.379 . S
H1943 C1937 0.959 1_545 S
H1944 C1937 0.961 . S
H1945 C1937 0.959 . S
H1946 C1938 0.930 . S
H1947 C1939 0.929 . S
H1948 C1956 0.929 . S
H1949 C1958 0.930 . S
H1950 C1960 0.930 . S
H1951 C1963 0.929 . S
H1952 C1966 0.930 . S
H1953 C1968 0.960 . S
H1954 C1968 0.960 . S
H1955 C1968 0.960 . S
C1956 H1948 0.929 . S
C1956 C1957 1.377 . S
C1956 C1958 1.384 . S
C1957 C1956 1.377 . S
C1957 C1963 1.390 . S
C1958 H1949 0.930 . S
C1958 C1956 1.384 . S
C1958 C1959 1.372 . S
C1959 C1958 1.372 . S
C1959 C1960 1.400 . S
C1959 C1964 1.490 . S
C1960 H1950 0.930 . S
C1960 C1959 1.400 . S
C1960 C1963 1.386 . S
H1961 C1977 0.930 . S
H1962 C1978 0.931 . S
C1963 H1951 0.929 . S
C1963 C1957 1.390 . S
C1963 C1960 1.386 . S
C1964 C1959 1.490 . S
C1964 C1966 1.395 . S
C1964 C1967 1.403 . S
H1965 C1971 0.930 . S
C1966 H1952 0.930 . S
C1966 C1964 1.395 . S
C1966 C1969 1.403 . S
C1967 C1964 1.403 . S
C1967 C1968 1.524 . S
C1967 C1971 1.400 . S
C1968 H1953 0.960 . S
C1968 H1954 0.960 . S
C1968 H1955 0.960 . S
C1968 C1967 1.524 . S
C1969 C1966 1.403 . S
C1969 C1970 1.392 . S
C1969 C1973 1.495 . S
C1970 C1969 1.392 . S
C1970 C1971 1.385 . S
C1970 C1972 1.478 . S
C1971 H1965 0.930 . S
C1971 C1967 1.400 . S
C1971 C1970 1.385 . S
C1972 C1970 1.478 . S
C1972 C1974 1.381 . S
C1972 C1978 1.383 . S
C1973 C1969 1.495 . S
C1973 H1979 0.959 . S
C1973 H1980 0.961 . S
C1973 H1981 0.960 . S
C1974 C1972 1.381 . S
C1974 C1975 1.394 . S
C1974 H1982 0.930 . S
C1975 C1974 1.394 . S
C1975 C1976 1.383 . S
C1975 H1983 0.929 . S
C1976 C1975 1.383 . S
C1976 C1977 1.377 . S
C1977 H1961 0.930 . S
C1977 C1976 1.377 . S
C1977 C1978 1.379 . S
C1978 H1962 0.931 . S
C1978 C1972 1.383 . S
C1978 C1977 1.379 . S
H1979 C1973 0.959 . S
H1980 C1973 0.961 . S
H1981 C1973 0.960 . S
H1982 C1974 0.930 . S
H1983 C1975 0.929 . S
H1984 C1992 0.929 . S
H1985 C1994 0.930 . S
H1986 C1996 0.930 . S
H1987 C1999 0.929 . S
H1988 C2002 0.930 . S
H1989 C2004 0.960 . S
H1990 C2004 0.960 . S
H1991 C2004 0.960 1_565 S
C1992 H1984 0.929 . S
C1992 C1993 1.377 . S
C1992 C1994 1.384 . S
C1993 C1992 1.377 . S
C1993 C1999 1.390 1_545 S
C1994 H1985 0.930 . S
C1994 C1992 1.384 . S
C1994 C1995 1.372 . S
C1995 C1994 1.372 . S
C1995 C1996 1.400 . S
C1995 C2000 1.490 . S
C1996 H1986 0.930 . S
C1996 C1995 1.400 . S
C1996 C1999 1.386 1_545 S
H1997 C2013 0.930 . S
H1998 C2014 0.931 . S
C1999 H1987 0.929 . S
C1999 C1993 1.390 1_565 S
C1999 C1996 1.386 1_565 S
C2000 C1995 1.490 . S
C2000 C2002 1.395 . S
C2000 C2003 1.403 . S
H2001 C2007 0.930 . S
C2002 H1988 0.930 . S
C2002 C2000 1.395 . S
C2002 C2005 1.403 . S
C2003 C2000 1.403 . S
C2003 C2004 1.524 . S
C2003 C2007 1.400 . S
C2004 H1989 0.960 . S
C2004 H1990 0.960 . S
C2004 H1991 0.960 1_545 S
C2004 C2003 1.524 . S
C2005 C2002 1.403 . S
C2005 C2006 1.392 . S
C2005 C2009 1.495 . S
C2006 C2005 1.392 . S
C2006 C2007 1.385 . S
C2006 C2008 1.478 . S
C2007 H2001 0.930 . S
C2007 C2003 1.400 . S
C2007 C2006 1.385 . S
C2008 C2006 1.478 . S
C2008 C2010 1.381 . S
C2008 C2014 1.383 . S
C2009 C2005 1.495 . S
C2009 H2015 0.959 . S
C2009 H2016 0.961 . S
C2009 H2017 0.960 . S
C2010 C2008 1.381 . S
C2010 C2011 1.394 . S
C2010 H2018 0.930 . S
C2011 C2010 1.394 . S
C2011 C2012 1.383 . S
C2011 H2019 0.929 . S
C2012 C2011 1.383 . S
C2012 C2013 1.377 . S
C2013 H1997 0.930 . S
C2013 C2012 1.377 . S
C2013 C2014 1.379 . S
C2014 H1998 0.931 . S
C2014 C2008 1.383 . S
C2014 C2013 1.379 . S
H2015 C2009 0.959 . S
H2016 C2009 0.961 . S
H2017 C2009 0.960 . S
H2018 C2010 0.930 . S
H2019 C2011 0.929 . S
H2020 C2028 0.929 . S
H2021 C2030 0.930 . S
H2022 C2032 0.930 . S
H2023 C2035 0.929 . S
H2024 C2038 0.930 . S
H2025 C2040 0.960 . S
H2026 C2040 0.960 . S
H2027 C2040 0.960 . S
C2028 H2020 0.929 . S
C2028 C2029 1.377 . S
C2028 C2030 1.384 . S
C2029 C2028 1.377 . S
C2029 C2035 1.390 . S
C2030 H2021 0.930 . S
C2030 C2028 1.384 . S
C2030 C2031 1.372 . S
C2031 C2030 1.372 . S
C2031 C2032 1.400 . S
C2031 C2036 1.490 . S
C2032 H2022 0.930 . S
C2032 C2031 1.400 . S
C2032 C2035 1.386 . S
H2033 C2049 0.930 . S
H2034 C2050 0.931 . S
C2035 H2023 0.929 . S
C2035 C2029 1.390 . S
C2035 C2032 1.386 . S
C2036 C2031 1.490 . S
C2036 C2038 1.395 . S
C2036 C2039 1.403 . S
H2037 C2043 0.930 . S
C2038 H2024 0.930 . S
C2038 C2036 1.395 . S
C2038 C2041 1.403 . S
C2039 C2036 1.403 . S
C2039 C2040 1.524 . S
C2039 C2043 1.400 . S
C2040 H2025 0.960 . S
C2040 H2026 0.960 . S
C2040 H2027 0.960 . S
C2040 C2039 1.524 . S
C2041 C2038 1.403 . S
C2041 C2042 1.392 . S
C2041 C2045 1.495 . S
C2042 C2041 1.392 . S
C2042 C2043 1.385 . S
C2042 C2044 1.478 . S
C2043 H2037 0.930 . S
C2043 C2039 1.400 . S
C2043 C2042 1.385 . S
C2044 C2042 1.478 . S
C2044 C2046 1.381 . S
C2044 C2050 1.383 . S
C2045 C2041 1.495 . S
C2045 H2051 0.959 . S
C2045 H2052 0.961 . S
C2045 H2053 0.960 . S
C2046 C2044 1.381 . S
C2046 C2047 1.394 . S
C2046 H2054 0.930 . S
C2047 C2046 1.394 . S
C2047 C2048 1.383 . S
C2047 H2055 0.929 . S
C2048 C2047 1.383 . S
C2048 C2049 1.377 . S
C2049 H2033 0.930 . S
C2049 C2048 1.377 . S
C2049 C2050 1.379 . S
C2050 H2034 0.931 . S
C2050 C2044 1.383 . S
C2050 C2049 1.379 . S
H2051 C2045 0.959 . S
H2052 C2045 0.961 . S
H2053 C2045 0.960 . S
H2054 C2046 0.930 . S
H2055 C2047 0.929 . S
H2056 C2064 0.929 . S
H2057 C2066 0.930 . S
H2058 C2068 0.943 . S
H2059 C2071 0.929 . S
H2060 C2074 0.930 . S
H2061 C2076 0.960 . S
H2062 C2076 0.960 . S
H2063 C2076 0.960 . S
C2064 H2056 0.929 . S
C2064 C2065 1.377 1_545 S
C2064 C2066 1.384 . S
C2065 C2064 1.377 1_565 S
C2065 C2071 1.390 . S
C2066 H2057 0.930 . S
C2066 C2064 1.384 . S
C2066 C2067 1.372 . S
C2067 C2066 1.372 . S
C2067 C2068 1.364 1_545 S
C2067 C2072 1.490 . S
C2068 H2058 0.943 . S
C2068 C2067 1.364 1_565 S
C2068 C2071 1.409 . S
H2069 C2085 0.930 . S
H2070 C2086 0.931 . S
C2071 H2059 0.929 . S
C2071 C2065 1.390 . S
C2071 C2068 1.409 . S
C2072 C2067 1.490 . S
C2072 C2074 1.395 . S
C2072 C2075 1.403 . S
H2073 C2079 0.930 . S
C2074 H2060 0.930 . S
C2074 C2072 1.395 . S
C2074 C2077 1.403 . S
C2075 C2072 1.403 . S
C2075 C2076 1.524 . S
C2075 C2079 1.400 . S
C2076 H2061 0.960 . S
C2076 H2062 0.960 . S
C2076 H2063 0.960 . S
C2076 C2075 1.524 . S
C2077 C2074 1.403 . S
C2077 C2078 1.392 . S
C2077 C2081 1.495 . S
C2078 C2077 1.392 . S
C2078 C2079 1.385 . S
C2078 C2080 1.478 . S
C2079 H2073 0.930 . S
C2079 C2075 1.400 . S
C2079 C2078 1.385 . S
C2080 C2078 1.478 . S
C2080 C2082 1.381 . S
C2080 C2086 1.383 . S
C2081 C2077 1.495 . S
C2081 H2087 0.959 . S
C2081 H2088 0.961 . S
C2081 H2089 0.960 . S
C2082 C2080 1.381 . S
C2082 C2083 1.394 . S
C2082 H2090 0.930 . S
C2083 C2082 1.394 . S
C2083 C2084 1.383 . S
C2083 H2091 0.929 . S
C2084 C2083 1.383 . S
C2084 C2085 1.377 . S
C2085 H2069 0.930 . S
C2085 C2084 1.377 . S
C2085 C2086 1.379 . S
C2086 H2070 0.931 . S
C2086 C2080 1.383 . S
C2086 C2085 1.379 . S
H2087 C2081 0.959 . S
H2088 C2081 0.961 . S
H2089 C2081 0.960 . S
H2090 C2082 0.930 . S
H2091 C2083 0.929 . S
H2092 C2100 0.929 . S
H2093 C2102 0.930 . S
H2094 C2104 0.930 . S
H2095 C2107 0.929 . S
H2096 C2110 0.930 . S
H2097 C2112 0.960 . S
H2098 C2112 0.960 . S
H2099 C2112 0.960 . S
C2100 H2092 0.929 . S
C2100 C2101 1.377 . S
C2100 C2102 1.384 . S
C2101 C2100 1.377 . S
C2101 C2107 1.390 . S
C2102 H2093 0.930 . S
C2102 C2100 1.384 . S
C2102 C2103 1.372 . S
C2103 C2102 1.372 . S
C2103 C2104 1.400 . S
C2103 C2108 1.490 . S
C2104 H2094 0.930 . S
C2104 C2103 1.400 . S
C2104 C2107 1.386 . S
H2105 C2121 0.930 . S
H2106 C2122 0.931 . S
C2107 H2095 0.929 . S
C2107 C2101 1.390 . S
C2107 C2104 1.386 . S
C2108 C2103 1.490 . S
C2108 C2110 1.395 . S
C2108 C2111 1.403 . S
H2109 C2115 0.930 . S
C2110 H2096 0.930 . S
C2110 C2108 1.395 . S
C2110 C2113 1.403 . S
C2111 C2108 1.403 . S
C2111 C2112 1.524 . S
C2111 C2115 1.400 . S
C2112 H2097 0.960 . S
C2112 H2098 0.960 . S
C2112 H2099 0.960 . S
C2112 C2111 1.524 . S
C2113 C2110 1.403 . S
C2113 C2114 1.392 . S
C2113 C2117 1.495 . S
C2114 C2113 1.392 . S
C2114 C2115 1.385 . S
C2114 C2116 1.478 . S
C2115 H2109 0.930 . S
C2115 C2111 1.400 . S
C2115 C2114 1.385 . S
C2116 C2114 1.478 . S
C2116 C2118 1.381 . S
C2116 C2122 1.383 . S
C2117 C2113 1.495 . S
C2117 H2123 0.959 . S
C2117 H2124 0.961 . S
C2117 H2125 0.960 . S
C2118 C2116 1.381 . S
C2118 C2119 1.394 . S
C2118 H2126 0.930 . S
C2119 C2118 1.394 . S
C2119 C2120 1.383 . S
C2119 H2127 0.929 . S
C2120 C2119 1.383 . S
C2120 C2121 1.377 . S
C2121 H2105 0.930 . S
C2121 C2120 1.377 . S
C2121 C2122 1.379 . S
C2122 H2106 0.931 . S
C2122 C2116 1.383 . S
C2122 C2121 1.379 . S
H2123 C2117 0.959 . S
H2124 C2117 0.961 . S
H2125 C2117 0.960 . S
H2126 C2118 0.930 . S
H2127 C2119 0.929 . S
H2128 C2136 0.929 . S
H2129 C2138 0.930 . S
H2130 C2140 0.930 . S
H2131 C2143 0.929 . S
H2132 C2146 0.930 . S
H2133 C2148 0.960 . S
H2134 C2148 0.960 . S
H2135 C2148 0.960 . S
C2136 H2128 0.929 . S
C2136 C2137 1.377 . S
C2136 C2138 1.384 . S
C2137 C2136 1.377 . S
C2137 C2143 1.390 . S
C2138 H2129 0.930 . S
C2138 C2136 1.384 . S
C2138 C2139 1.372 . S
C2139 C2138 1.372 . S
C2139 C2140 1.400 . S
C2139 C2144 1.490 . S
C2140 H2130 0.930 . S
C2140 C2139 1.400 . S
C2140 C2143 1.386 . S
H2141 C2157 0.930 . S
H2142 C2158 0.931 . S
C2143 H2131 0.929 . S
C2143 C2137 1.390 . S
C2143 C2140 1.386 . S
C2144 C2139 1.490 . S
C2144 C2146 1.395 . S
C2144 C2147 1.403 . S
H2145 C2151 0.930 . S
C2146 H2132 0.930 . S
C2146 C2144 1.395 . S
C2146 C2149 1.403 . S
C2147 C2144 1.403 . S
C2147 C2148 1.524 . S
C2147 C2151 1.400 . S
C2148 H2133 0.960 . S
C2148 H2134 0.960 . S
C2148 H2135 0.960 . S
C2148 C2147 1.524 . S
C2149 C2146 1.403 . S
C2149 C2150 1.392 . S
C2149 C2153 1.495 . S
C2150 C2149 1.392 . S
C2150 C2151 1.385 . S
C2150 C2152 1.478 . S
C2151 H2145 0.930 . S
C2151 C2147 1.400 . S
C2151 C2150 1.385 . S
C2152 C2150 1.478 . S
C2152 C2154 1.381 . S
C2152 C2158 1.383 . S
C2153 C2149 1.495 . S
C2153 H2159 0.959 . S
C2153 H2160 0.961 . S
C2153 H2161 0.960 . S
C2154 C2152 1.381 . S
C2154 C2155 1.394 . S
C2154 H2162 0.930 . S
C2155 C2154 1.394 . S
C2155 C2156 1.383 . S
C2155 H2163 0.929 . S
C2156 C2155 1.383 . S
C2156 C2157 1.377 . S
C2157 H2141 0.930 . S
C2157 C2156 1.377 . S
C2157 C2158 1.379 . S
C2158 H2142 0.931 . S
C2158 C2152 1.383 . S
C2158 C2157 1.379 . S
H2159 C2153 0.959 . S
H2160 C2153 0.961 . S
H2161 C2153 0.960 . S
H2162 C2154 0.930 . S
H2163 C2155 0.929 . S
H2164 C2172 0.929 . S
H2165 C2174 0.930 . S
H2166 C2176 0.930 . S
H2167 C2179 0.929 . S
H2168 C2182 0.930 . S
H2169 C2184 0.960 . S
H2170 C2184 0.960 . S
H2171 C2184 0.960 . S
C2172 H2164 0.929 . S
C2172 C2173 1.377 . S
C2172 C2174 1.384 . S
C2173 C2172 1.377 . S
C2173 C2179 1.390 . S
C2174 H2165 0.930 . S
C2174 C2172 1.384 . S
C2174 C2175 1.372 . S
C2175 C2174 1.372 . S
C2175 C2176 1.400 . S
C2175 C2180 1.490 . S
C2176 H2166 0.930 . S
C2176 C2175 1.400 . S
C2176 C2179 1.386 . S
H2177 C2193 0.930 . S
H2178 C2194 0.931 . S
C2179 H2167 0.929 . S
C2179 C2173 1.390 . S
C2179 C2176 1.386 . S
C2180 C2175 1.490 . S
C2180 C2182 1.395 . S
C2180 C2183 1.403 . S
H2181 C2187 0.930 . S
C2182 H2168 0.930 . S
C2182 C2180 1.395 . S
C2182 C2185 1.403 . S
C2183 C2180 1.403 . S
C2183 C2184 1.524 . S
C2183 C2187 1.400 . S
C2184 H2169 0.960 . S
C2184 H2170 0.960 . S
C2184 H2171 0.960 . S
C2184 C2183 1.524 . S
C2185 C2182 1.403 . S
C2185 C2186 1.392 . S
C2185 C2189 1.510 . S
C2186 C2185 1.392 . S
C2186 C2187 1.385 . S
C2186 C2188 1.478 . S
C2187 H2181 0.930 . S
C2187 C2183 1.400 . S
C2187 C2186 1.385 . S
C2188 C2186 1.478 . S
C2188 C2190 1.381 . S
C2188 C2194 1.383 . S
C2189 C2185 1.510 . S
C2189 H2195 0.949 1_545 S
C2189 H2196 0.966 . S
C2189 H2197 0.951 1_545 S
C2190 C2188 1.381 . S
C2190 C2191 1.394 . S
C2190 H2198 0.930 . S
C2191 C2190 1.394 . S
C2191 C2192 1.383 . S
C2191 H2199 0.929 . S
C2192 C2191 1.383 . S
C2192 C2193 1.377 . S
C2193 H2177 0.930 . S
C2193 C2192 1.377 . S
C2193 C2194 1.379 . S
C2194 H2178 0.931 . S
C2194 C2188 1.383 . S
C2194 C2193 1.379 . S
H2195 C2189 0.949 1_565 S
H2196 C2189 0.966 . S
H2197 C2189 0.951 1_565 S
H2198 C2190 0.930 . S
H2199 C2191 0.929 . S
H2200 C2208 0.929 . S
H2201 C2210 0.930 . S
H2202 C2212 0.930 . S
H2203 C2215 0.929 . S
H2204 C2218 0.930 . S
H2205 C2220 0.960 . S
H2206 C2220 0.960 . S
H2207 C2220 0.960 . S
C2208 H2200 0.929 . S
C2208 C2209 1.377 . S
C2208 C2210 1.384 . S
C2209 C2208 1.377 . S
C2209 C2215 1.390 . S
C2210 H2201 0.930 . S
C2210 C2208 1.384 . S
C2210 C2211 1.372 . S
C2211 C2210 1.372 . S
C2211 C2212 1.400 . S
C2211 C2216 1.490 . S
C2212 H2202 0.930 . S
C2212 C2211 1.400 . S
C2212 C2215 1.386 . S
H2213 C2229 0.930 . S
H2214 C2230 0.931 . S
C2215 H2203 0.929 . S
C2215 C2209 1.390 . S
C2215 C2212 1.386 . S
C2216 C2211 1.490 . S
C2216 C2218 1.395 . S
C2216 C2219 1.403 . S
H2217 C2223 0.930 . S
C2218 H2204 0.930 . S
C2218 C2216 1.395 . S
C2218 C2221 1.403 . S
C2219 C2216 1.403 . S
C2219 C2220 1.524 . S
C2219 C2223 1.400 . S
C2220 H2205 0.960 . S
C2220 H2206 0.960 . S
C2220 H2207 0.960 . S
C2220 C2219 1.524 . S
C2221 C2218 1.403 . S
C2221 C2222 1.392 . S
C2221 C2225 1.495 . S
C2222 C2221 1.392 . S
C2222 C2223 1.385 . S
C2222 C2224 1.478 . S
C2223 H2217 0.930 . S
C2223 C2219 1.400 . S
C2223 C2222 1.385 . S
C2224 C2222 1.478 . S
C2224 C2226 1.381 . S
C2224 C2230 1.383 . S
C2225 C2221 1.495 . S
C2225 H2231 0.959 . S
C2225 H2232 0.961 . S
C2225 H2233 0.960 . S
C2226 C2224 1.381 . S
C2226 C2227 1.394 . S
C2226 H2234 0.930 . S
C2227 C2226 1.394 . S
C2227 C2228 1.383 . S
C2227 H2235 0.929 . S
C2228 C2227 1.383 . S
C2228 C2229 1.377 . S
C2229 H2213 0.930 . S
C2229 C2228 1.377 . S
C2229 C2230 1.379 . S
C2230 H2214 0.931 . S
C2230 C2224 1.383 . S
C2230 C2229 1.379 . S
H2231 C2225 0.959 . S
H2232 C2225 0.961 . S
H2233 C2225 0.960 . S
H2234 C2226 0.930 . S
H2235 C2227 0.929 . S
H2236 C2244 0.929 . S
H2237 C2246 0.930 . S
H2238 C2248 0.930 . S
H2239 C2251 0.929 . S
H2240 C2254 0.930 . S
H2241 C2256 0.960 . S
H2242 C2256 0.960 . S
H2243 C2256 0.960 . S
C2244 H2236 0.929 . S
C2244 C2245 1.377 . S
C2244 C2246 1.384 . S
C2245 C2244 1.377 . S
C2245 C2251 1.390 . S
C2246 H2237 0.930 . S
C2246 C2244 1.384 . S
C2246 C2247 1.372 . S
C2247 C2246 1.372 . S
C2247 C2248 1.400 . S
C2247 C2252 1.490 . S
C2248 H2238 0.930 . S
C2248 C2247 1.400 . S
C2248 C2251 1.386 . S
H2249 C2265 0.930 . S
H2250 C2266 0.931 . S
C2251 H2239 0.929 . S
C2251 C2245 1.390 . S
C2251 C2248 1.386 . S
C2252 C2247 1.490 . S
C2252 C2254 1.395 . S
C2252 C2255 1.403 . S
H2253 C2259 0.930 . S
C2254 H2240 0.930 . S
C2254 C2252 1.395 . S
C2254 C2257 1.403 . S
C2255 C2252 1.403 . S
C2255 C2256 1.524 . S
C2255 C2259 1.400 . S
C2256 H2241 0.960 . S
C2256 H2242 0.960 . S
C2256 H2243 0.960 . S
C2256 C2255 1.524 . S
C2257 C2254 1.403 . S
C2257 C2258 1.392 . S
C2257 C2261 1.495 . S
C2258 C2257 1.392 . S
C2258 C2259 1.385 . S
C2258 C2260 1.478 . S
C2259 H2253 0.930 . S
C2259 C2255 1.400 . S
C2259 C2258 1.385 . S
C2260 C2258 1.478 . S
C2260 C2262 1.381 . S
C2260 C2266 1.383 . S
C2261 C2257 1.495 . S
C2261 H2267 0.959 . S
C2261 H2268 0.961 . S
C2261 H2269 0.960 . S
C2262 C2260 1.381 . S
C2262 C2263 1.394 . S
C2262 H2270 0.930 . S
C2263 C2262 1.394 . S
C2263 C2264 1.383 . S
C2263 H2271 0.929 . S
C2264 C2263 1.383 . S
C2264 C2265 1.377 . S
C2265 H2249 0.930 . S
C2265 C2264 1.377 . S
C2265 C2266 1.379 . S
C2266 H2250 0.931 . S
C2266 C2260 1.383 . S
C2266 C2265 1.379 . S
H2267 C2261 0.959 . S
H2268 C2261 0.961 . S
H2269 C2261 0.960 . S
H2270 C2262 0.930 . S
H2271 C2263 0.929 . S
H2272 C2280 0.929 . S
H2273 C2282 0.930 . S
H2274 C2284 0.930 . S
H2275 C2287 0.929 . S
H2276 C2290 0.930 . S
H2277 C2292 0.960 . S
H2278 C2292 0.960 . S
H2279 C2292 0.960 . S
C2280 H2272 0.929 . S
C2280 C2281 1.377 . S
C2280 C2282 1.384 . S
C2281 C2280 1.377 . S
C2281 C2287 1.390 . S
C2282 H2273 0.930 . S
C2282 C2280 1.384 . S
C2282 C2283 1.372 . S
C2283 C2282 1.372 . S
C2283 C2284 1.400 . S
C2283 C2288 1.490 . S
C2284 H2274 0.930 . S
C2284 C2283 1.400 . S
C2284 C2287 1.386 . S
H2285 C2301 0.930 . S
H2286 C2302 0.931 . S
C2287 H2275 0.929 . S
C2287 C2281 1.390 . S
C2287 C2284 1.386 . S
C2288 C2283 1.490 . S
C2288 C2290 1.395 . S
C2288 C2291 1.403 . S
H2289 C2295 0.930 . S
C2290 H2276 0.930 . S
C2290 C2288 1.395 . S
C2290 C2293 1.403 . S
C2291 C2288 1.403 . S
C2291 C2292 1.524 . S
C2291 C2295 1.400 . S
C2292 H2277 0.960 . S
C2292 H2278 0.960 . S
C2292 H2279 0.960 . S
C2292 C2291 1.524 . S
C2293 C2290 1.403 . S
C2293 C2294 1.392 . S
C2293 C2297 1.495 . S
C2294 C2293 1.392 . S
C2294 C2295 1.385 . S
C2294 C2296 1.478 . S
C2295 H2289 0.930 . S
C2295 C2291 1.400 . S
C2295 C2294 1.385 . S
C2296 C2294 1.478 . S
C2296 C2298 1.381 . S
C2296 C2302 1.383 . S
C2297 C2293 1.495 . S
C2297 H2303 0.959 . S
C2297 H2304 0.961 . S
C2297 H2305 0.960 . S
C2298 C2296 1.381 . S
C2298 C2299 1.394 . S
C2298 H2306 0.930 . S
C2299 C2298 1.394 . S
C2299 C2300 1.383 . S
C2299 H2307 0.929 . S
C2300 C2299 1.383 . S
C2300 C2301 1.377 . S
C2301 H2285 0.930 . S
C2301 C2300 1.377 . S
C2301 C2302 1.379 . S
C2302 H2286 0.931 . S
C2302 C2296 1.383 . S
C2302 C2301 1.379 . S
H2303 C2297 0.959 . S
H2304 C2297 0.961 . S
H2305 C2297 0.960 . S
H2306 C2298 0.930 . S
H2307 C2299 0.929 . S
H2308 C2316 0.929 . S
H2309 C2318 0.930 . S
H2310 C2320 0.930 . S
H2311 C2323 0.933 1_455 S
H2312 C2326 0.930 . S
H2313 C2328 0.960 . S
H2314 C2328 0.960 . S
H2315 C2328 0.960 . S
C2316 H2308 0.929 . S
C2316 C2317 1.377 . S
C2316 C2318 1.384 . S
C2317 C2316 1.377 . S
C2317 C2323 1.389 1_545 S
C2318 H2309 0.930 . S
C2318 C2316 1.384 . S
C2318 C2319 1.372 . S
C2319 C2318 1.372 . S
C2319 C2320 1.400 1_545 S
C2319 C2324 1.490 . S
C2320 H2310 0.930 . S
C2320 C2319 1.400 1_565 S
C2320 C2323 1.383 . S
H2321 C2337 0.930 . S
H2322 C2338 0.931 . S
C2323 H2311 0.933 1_655 S
C2323 C2317 1.389 1_565 S
C2323 C2320 1.383 . S
C2324 C2319 1.490 . S
C2324 C2326 1.395 1_545 S
C2324 C2327 1.403 . S
H2325 C2331 0.930 . S
C2326 H2312 0.930 . S
C2326 C2324 1.395 1_565 S
C2326 C2329 1.403 . S
C2327 C2324 1.403 . S
C2327 C2328 1.524 . S
C2327 C2331 1.400 . S
C2328 H2313 0.960 . S
C2328 H2314 0.960 . S
C2328 H2315 0.960 . S
C2328 C2327 1.524 . S
C2329 C2326 1.403 . S
C2329 C2330 1.392 1_565 S
C2329 C2333 1.495 . S
C2330 C2329 1.392 1_545 S
C2330 C2331 1.385 . S
C2330 C2332 1.478 . S
C2331 H2325 0.930 . S
C2331 C2327 1.400 . S
C2331 C2330 1.385 . S
C2332 C2330 1.478 . S
C2332 C2334 1.381 . S
C2332 C2338 1.383 1_545 S
C2333 C2329 1.495 . S
C2333 H2339 0.959 . S
C2333 H2340 0.961 . S
C2333 H2341 0.960 . S
C2334 C2332 1.381 . S
C2334 C2335 1.394 . S
C2334 H2342 0.930 . S
C2335 C2334 1.394 . S
C2335 C2336 1.383 . S
C2335 H2343 0.929 . S
C2336 C2335 1.383 . S
C2336 C2337 1.377 1_545 S
C2337 H2321 0.930 . S
C2337 C2336 1.377 1_565 S
C2337 C2338 1.379 . S
C2338 H2322 0.931 . S
C2338 C2332 1.383 1_565 S
C2338 C2337 1.379 . S
H2339 C2333 0.959 . S
H2340 C2333 0.961 . S
H2341 C2333 0.960 . S
H2342 C2334 0.930 . S
H2343 C2335 0.929 . S
H2344 C2352 0.929 . S
H2345 C2354 0.930 . S
H2346 C2356 0.930 . S
H2347 C2359 0.929 . S
H2348 C2362 0.930 . S
H2349 C2364 0.960 . S
H2350 C2364 0.960 . S
H2351 C2364 0.960 . S
C2352 H2344 0.929 . S
C2352 C2353 1.377 . S
C2352 C2354 1.384 . S
C2353 C2352 1.377 . S
C2353 C2359 1.390 . S
C2354 H2345 0.930 . S
C2354 C2352 1.384 . S
C2354 C2355 1.372 . S
C2355 C2354 1.372 . S
C2355 C2356 1.400 . S
C2355 C2360 1.490 . S
C2356 H2346 0.930 . S
C2356 C2355 1.400 . S
C2356 C2359 1.386 . S
H2357 C2373 0.930 . S
H2358 C2374 0.931 . S
C2359 H2347 0.929 . S
C2359 C2353 1.390 . S
C2359 C2356 1.386 . S
C2360 C2355 1.490 . S
C2360 C2362 1.395 . S
C2360 C2363 1.403 . S
H2361 C2367 0.930 . S
C2362 H2348 0.930 . S
C2362 C2360 1.395 . S
C2362 C2365 1.403 . S
C2363 C2360 1.403 . S
C2363 C2364 1.524 . S
C2363 C2367 1.400 . S
C2364 H2349 0.960 . S
C2364 H2350 0.960 . S
C2364 H2351 0.960 . S
C2364 C2363 1.524 . S
C2365 C2362 1.403 . S
C2365 C2366 1.392 . S
C2365 C2369 1.495 . S
C2366 C2365 1.392 . S
C2366 C2367 1.385 . S
C2366 C2368 1.478 . S
C2367 H2361 0.930 . S
C2367 C2363 1.400 . S
C2367 C2366 1.385 . S
C2368 C2366 1.478 . S
C2368 C2370 1.381 . S
C2368 C2374 1.383 . S
C2369 C2365 1.495 . S
C2369 H2375 0.959 . S
C2369 H2376 0.961 . S
C2369 H2377 0.960 . S
C2370 C2368 1.381 . S
C2370 C2371 1.394 . S
C2370 H2378 0.930 . S
C2371 C2370 1.394 . S
C2371 C2372 1.383 . S
C2371 H2379 0.929 . S
C2372 C2371 1.383 . S
C2372 C2373 1.377 . S
C2373 H2357 0.930 . S
C2373 C2372 1.377 . S
C2373 C2374 1.379 . S
C2374 H2358 0.931 . S
C2374 C2368 1.383 . S
C2374 C2373 1.379 . S
H2375 C2369 0.959 . S
H2376 C2369 0.961 . S
H2377 C2369 0.960 . S
H2378 C2370 0.930 . S
H2379 C2371 0.929 . S
H2380 C2388 0.929 . S
H2381 C2390 0.930 . S
H2382 C2392 0.930 . S
H2383 C2395 0.929 . S
H2384 C2398 0.930 . S
H2385 C2400 0.960 . S
H2386 C2400 0.960 . S
H2387 C2400 0.960 . S
C2388 H2380 0.929 . S
C2388 C2389 1.377 1_455 S
C2388 C2390 1.384 . S
C2389 C2388 1.377 1_655 S
C2389 C2395 1.390 . S
C2390 H2381 0.930 . S
C2390 C2388 1.384 . S
C2390 C2391 1.372 . S
C2391 C2390 1.372 . S
C2391 C2392 1.400 . S
C2391 C2396 1.490 . S
C2392 H2382 0.930 . S
C2392 C2391 1.400 . S
C2392 C2395 1.386 1_455 S
H2393 C2409 0.930 . S
H2394 C2410 0.931 . S
C2395 H2383 0.929 . S
C2395 C2389 1.390 . S
C2395 C2392 1.386 1_655 S
C2396 C2391 1.490 . S
C2396 C2398 1.395 . S
C2396 C2399 1.403 . S
H2397 C2403 0.930 . S
C2398 H2384 0.930 . S
C2398 C2396 1.395 . S
C2398 C2401 1.403 . S
C2399 C2396 1.403 . S
C2399 C2400 1.524 . S
C2399 C2403 1.400 . S
C2400 H2385 0.960 . S
C2400 H2386 0.960 . S
C2400 H2387 0.960 . S
C2400 C2399 1.524 . S
C2401 C2398 1.403 . S
C2401 C2402 1.392 . S
C2401 C2405 1.495 . S
C2402 C2401 1.392 . S
C2402 C2403 1.385 . S
C2402 C2404 1.478 . S
C2403 H2397 0.930 . S
C2403 C2399 1.400 . S
C2403 C2402 1.385 . S
C2404 C2402 1.478 . S
C2404 C2406 1.381 . S
C2404 C2410 1.383 . S
C2405 C2401 1.495 . S
C2405 H2411 0.959 . S
C2405 H2412 0.961 . S
C2405 H2413 0.960 . S
C2406 C2404 1.381 . S
C2406 C2407 1.394 . S
C2406 H2414 0.930 . S
C2407 C2406 1.394 . S
C2407 C2408 1.383 . S
C2407 H2415 0.929 . S
C2408 C2407 1.383 . S
C2408 C2409 1.377 . S
C2409 H2393 0.930 . S
C2409 C2408 1.377 . S
C2409 C2410 1.379 . S
C2410 H2394 0.931 . S
C2410 C2404 1.383 . S
C2410 C2409 1.379 . S
H2411 C2405 0.959 . S
H2412 C2405 0.961 . S
H2413 C2405 0.960 . S
H2414 C2406 0.930 . S
H2415 C2407 0.929 . S
H2416 C2424 0.929 . S
H2417 C2426 0.930 . S
H2418 C2428 0.930 . S
H2419 C2431 0.929 . S
H2420 C2434 0.930 . S
H2421 C2436 0.960 . S
H2422 C2436 0.960 . S
H2423 C2436 0.960 . S
C2424 H2416 0.929 . S
C2424 C2425 1.377 . S
C2424 C2426 1.384 . S
C2425 C2424 1.377 . S
C2425 C2431 1.390 . S
C2426 H2417 0.930 . S
C2426 C2424 1.384 . S
C2426 C2427 1.372 . S
C2427 C2426 1.372 . S
C2427 C2428 1.400 . S
C2427 C2432 1.490 . S
C2428 H2418 0.930 . S
C2428 C2427 1.400 . S
C2428 C2431 1.386 . S
H2429 C2445 0.930 . S
H2430 C2446 0.931 . S
C2431 H2419 0.929 . S
C2431 C2425 1.390 . S
C2431 C2428 1.386 . S
C2432 C2427 1.490 . S
C2432 C2434 1.395 . S
C2432 C2435 1.403 . S
H2433 C2439 0.930 . S
C2434 H2420 0.930 . S
C2434 C2432 1.395 . S
C2434 C2437 1.403 . S
C2435 C2432 1.403 . S
C2435 C2436 1.524 . S
C2435 C2439 1.400 . S
C2436 H2421 0.960 . S
C2436 H2422 0.960 . S
C2436 H2423 0.960 . S
C2436 C2435 1.524 . S
C2437 C2434 1.403 . S
C2437 C2438 1.392 . S
C2437 C2441 1.495 . S
C2438 C2437 1.392 . S
C2438 C2439 1.385 . S
C2438 C2440 1.478 . S
C2439 H2433 0.930 . S
C2439 C2435 1.400 . S
C2439 C2438 1.385 . S
C2440 C2438 1.478 . S
C2440 C2442 1.381 . S
C2440 C2446 1.383 . S
C2441 C2437 1.495 . S
C2441 H2447 0.959 . S
C2441 H2448 0.961 . S
C2441 H2449 0.960 . S
C2442 C2440 1.381 . S
C2442 C2443 1.394 . S
C2442 H2450 0.930 . S
C2443 C2442 1.394 . S
C2443 C2444 1.383 . S
C2443 H2451 0.929 . S
C2444 C2443 1.383 . S
C2444 C2445 1.377 . S
C2445 H2429 0.930 . S
C2445 C2444 1.377 . S
C2445 C2446 1.379 . S
C2446 H2430 0.931 . S
C2446 C2440 1.383 . S
C2446 C2445 1.379 . S
H2447 C2441 0.959 . S
H2448 C2441 0.961 . S
H2449 C2441 0.960 . S
H2450 C2442 0.930 . S
H2451 C2443 0.929 . S
H2452 C2460 0.929 1_455 S
H2453 C2462 0.944 . S
H2454 C2464 0.930 . S
H2455 C2467 0.929 . S
H2456 C2470 0.930 . S
H2457 C2472 0.960 . S
H2458 C2472 0.960 . S
H2459 C2472 0.960 . S
C2460 H2452 0.929 1_655 S
C2460 C2461 1.377 . S
C2460 C2462 1.382 1_655 S
C2461 C2460 1.377 . S
C2461 C2467 1.390 . S
C2462 H2453 0.944 . S
C2462 C2460 1.382 1_455 S
C2462 C2463 1.360 1_455 S
C2463 C2462 1.360 1_655 S
C2463 C2464 1.400 . S
C2463 C2468 1.490 . S
C2464 H2454 0.930 . S
C2464 C2463 1.400 . S
C2464 C2467 1.386 . S
H2465 C2481 0.930 . S
H2466 C2482 0.931 . S
C2467 H2455 0.929 . S
C2467 C2461 1.390 . S
C2467 C2464 1.386 . S
C2468 C2463 1.490 . S
C2468 C2470 1.395 . S
C2468 C2471 1.403 1_554 S
H2469 C2475 0.930 . S
C2470 H2456 0.930 . S
C2470 C2468 1.395 . S
C2470 C2473 1.403 . S
C2471 C2468 1.403 1_556 S
C2471 C2472 1.524 . S
C2471 C2475 1.400 . S
C2472 H2457 0.960 . S
C2472 H2458 0.960 . S
C2472 H2459 0.960 . S
C2472 C2471 1.524 . S
C2473 C2470 1.403 . S
C2473 C2474 1.392 1_554 S
C2473 C2477 1.495 1_655 S
C2474 C2473 1.392 1_556 S
C2474 C2475 1.385 . S
C2474 C2476 1.478 . S
C2475 H2469 0.930 . S
C2475 C2471 1.400 . S
C2475 C2474 1.385 . S
C2476 C2474 1.478 . S
C2476 C2478 1.381 1_655 S
C2476 C2482 1.383 . S
C2477 C2473 1.495 1_455 S
C2477 H2483 0.959 . S
C2477 H2484 0.961 1_455 S
C2477 H2485 0.960 . S
C2478 C2476 1.381 1_455 S
C2478 C2479 1.394 . S
C2478 H2486 0.930 . S
C2479 C2478 1.394 . S
C2479 C2480 1.383 1_455 S
C2479 H2487 0.929 . S
C2480 C2479 1.383 1_655 S
C2480 C2481 1.377 . S
C2481 H2465 0.930 . S
C2481 C2480 1.377 . S
C2481 C2482 1.379 . S
C2482 H2466 0.931 . S
C2482 C2476 1.383 . S
C2482 C2481 1.379 . S
H2483 C2477 0.959 . S
H2484 C2477 0.961 1_655 S
H2485 C2477 0.960 . S
H2486 C2478 0.930 . S
H2487 C2479 0.929 . S
H2488 C2496 0.929 . S
H2489 C2498 0.930 . S
H2490 C2500 0.930 . S
H2491 C2503 0.929 . S
H2492 C2506 0.930 . S
H2493 C2508 0.960 . S
H2494 C2508 0.960 . S
H2495 C2508 0.960 . S
C2496 H2488 0.929 . S
C2496 C2497 1.377 . S
C2496 C2498 1.384 . S
C2497 C2496 1.377 . S
C2497 C2503 1.390 . S
C2498 H2489 0.930 . S
C2498 C2496 1.384 . S
C2498 C2499 1.372 . S
C2499 C2498 1.372 . S
C2499 C2500 1.400 . S
C2499 C2504 1.490 . S
C2500 H2490 0.930 . S
C2500 C2499 1.400 . S
C2500 C2503 1.386 . S
H2501 C2517 0.930 . S
H2502 C2518 0.931 . S
C2503 H2491 0.929 . S
C2503 C2497 1.390 . S
C2503 C2500 1.386 . S
C2504 C2499 1.490 . S
C2504 C2506 1.395 . S
C2504 C2507 1.403 . S
H2505 C2511 0.930 . S
C2506 H2492 0.930 . S
C2506 C2504 1.395 . S
C2506 C2509 1.403 . S
C2507 C2504 1.403 . S
C2507 C2508 1.524 . S
C2507 C2511 1.400 . S
C2508 H2493 0.960 . S
C2508 H2494 0.960 . S
C2508 H2495 0.960 . S
C2508 C2507 1.524 . S
C2509 C2506 1.403 . S
C2509 C2510 1.392 . S
C2509 C2513 1.495 . S
C2510 C2509 1.392 . S
C2510 C2511 1.385 . S
C2510 C2512 1.478 . S
C2511 H2505 0.930 . S
C2511 C2507 1.400 . S
C2511 C2510 1.385 . S
C2512 C2510 1.478 . S
C2512 C2514 1.381 . S
C2512 C2518 1.383 . S
C2513 C2509 1.495 . S
C2513 H2519 0.959 . S
C2513 H2520 0.961 . S
C2513 H2521 0.960 . S
C2514 C2512 1.381 . S
C2514 C2515 1.394 . S
C2514 H2522 0.930 . S
C2515 C2514 1.394 . S
C2515 C2516 1.383 . S
C2515 H2523 0.929 . S
C2516 C2515 1.383 . S
C2516 C2517 1.377 . S
C2517 H2501 0.930 . S
C2517 C2516 1.377 . S
C2517 C2518 1.379 . S
C2518 H2502 0.931 . S
C2518 C2512 1.383 . S
C2518 C2517 1.379 . S
H2519 C2513 0.959 . S
H2520 C2513 0.961 . S
H2521 C2513 0.960 . S
H2522 C2514 0.930 . S
H2523 C2515 0.929 . S
H2524 C2532 0.929 . S
H2525 C2534 0.930 . S
H2526 C2536 0.930 1_556 S
H2527 C2539 0.929 . S
H2528 C2542 0.930 1_554 S
H2529 C2544 0.960 . S
H2530 C2544 0.960 . S
H2531 C2544 0.960 . S
C2532 H2524 0.929 . S
C2532 C2533 1.377 . S
C2532 C2534 1.384 . S
C2533 C2532 1.377 . S
C2533 C2539 1.390 . S
C2534 H2525 0.930 . S
C2534 C2532 1.384 . S
C2534 C2535 1.372 . S
C2535 C2534 1.372 . S
C2535 C2536 1.400 . S
C2535 C2540 1.490 . S
C2536 H2526 0.930 1_554 S
C2536 C2535 1.400 . S
C2536 C2539 1.386 . S
H2537 C2553 0.930 1_655 S
H2538 C2554 0.931 . S
C2539 H2527 0.929 . S
C2539 C2533 1.390 . S
C2539 C2536 1.386 . S
C2540 C2535 1.490 . S
C2540 C2542 1.395 1_554 S
C2540 C2543 1.392 1_454 S
H2541 C2547 0.982 . S
C2542 H2528 0.930 1_556 S
C2542 C2540 1.395 1_556 S
C2542 C2545 1.403 . S
C2543 C2540 1.392 1_656 S
C2543 C2544 1.511 1_556 S
C2543 C2547 1.425 . S
C2544 H2529 0.960 . S
C2544 H2530 0.960 . S
C2544 H2531 0.960 . S
C2544 C2543 1.511 1_554 S
C2545 C2542 1.403 . S
C2545 C2546 1.392 . S
C2545 C2549 1.495 . S
C2546 C2545 1.392 . S
C2546 C2547 1.337 1_455 S
C2546 C2548 1.478 . S
C2547 H2541 0.982 . S
C2547 C2543 1.425 . S
C2547 C2546 1.337 1_655 S
C2548 C2546 1.478 . S
C2548 C2550 1.381 . S
C2548 C2554 1.383 . S
C2549 C2545 1.495 . S
C2549 H2555 0.959 . S
C2549 H2556 0.961 . S
C2549 H2557 0.960 . S
C2550 C2548 1.381 . S
C2550 C2551 1.394 . S
C2550 H2558 0.930 . S
C2551 C2550 1.394 . S
C2551 C2552 1.383 . S
C2551 H2559 0.929 . S
C2552 C2551 1.383 . S
C2552 C2553 1.377 . S
C2553 H2537 0.930 1_455 S
C2553 C2552 1.377 . S
C2553 C2554 1.379 . S
C2554 H2538 0.931 . S
C2554 C2548 1.383 . S
C2554 C2553 1.379 . S
H2555 C2549 0.959 . S
H2556 C2549 0.961 . S
H2557 C2549 0.960 . S
H2558 C2550 0.930 . S
H2559 C2551 0.929 . S
H2560 C2568 0.929 . S
H2561 C2570 0.930 . S
H2562 C2572 0.930 . S
H2563 C2575 0.929 . S
H2564 C2578 0.930 . S
H2565 C2580 0.960 . S
H2566 C2580 0.960 . S
H2567 C2580 0.960 . S
C2568 H2560 0.929 . S
C2568 C2569 1.377 . S
C2568 C2570 1.384 . S
C2569 C2568 1.377 . S
C2569 C2575 1.390 . S
C2570 H2561 0.930 . S
C2570 C2568 1.384 . S
C2570 C2571 1.372 . S
C2571 C2570 1.372 . S
C2571 C2572 1.400 . S
C2571 C2576 1.490 . S
C2572 H2562 0.930 . S
C2572 C2571 1.400 . S
C2572 C2575 1.386 . S
H2573 C2589 0.930 . S
H2574 C2590 0.931 . S
C2575 H2563 0.929 . S
C2575 C2569 1.390 . S
C2575 C2572 1.386 . S
C2576 C2571 1.490 . S
C2576 C2578 1.395 . S
C2576 C2579 1.403 . S
H2577 C2583 0.930 . S
C2578 H2564 0.930 . S
C2578 C2576 1.395 . S
C2578 C2581 1.403 . S
C2579 C2576 1.403 . S
C2579 C2580 1.524 . S
C2579 C2583 1.400 . S
C2580 H2565 0.960 . S
C2580 H2566 0.960 . S
C2580 H2567 0.960 . S
C2580 C2579 1.524 . S
C2581 C2578 1.403 . S
C2581 C2582 1.392 . S
C2581 C2585 1.495 . S
C2582 C2581 1.392 . S
C2582 C2583 1.385 . S
C2582 C2584 1.478 . S
C2583 H2577 0.930 . S
C2583 C2579 1.400 . S
C2583 C2582 1.385 . S
C2584 C2582 1.478 . S
C2584 C2586 1.381 . S
C2584 C2590 1.383 . S
C2585 C2581 1.495 . S
C2585 H2591 0.959 . S
C2585 H2592 0.961 . S
C2585 H2593 0.960 . S
C2586 C2584 1.381 . S
C2586 C2587 1.394 . S
C2586 H2594 0.930 . S
C2587 C2586 1.394 . S
C2587 C2588 1.383 . S
C2587 H2595 0.929 . S
C2588 C2587 1.383 . S
C2588 C2589 1.377 . S
C2589 H2573 0.930 . S
C2589 C2588 1.377 . S
C2589 C2590 1.379 . S
C2590 H2574 0.931 . S
C2590 C2584 1.383 . S
C2590 C2589 1.379 . S
H2591 C2585 0.959 . S
H2592 C2585 0.961 . S
H2593 C2585 0.960 . S
H2594 C2586 0.930 . S
H2595 C2587 0.929 . S
H2596 C2604 0.929 . S
H2597 C2606 0.930 . S
H2598 C2608 0.930 . S
H2599 C2611 0.929 . S
H2600 C2614 0.930 . S
H2601 C2616 0.965 1_556 S
H2602 C2616 0.958 1_556 S
H2603 C2616 0.955 1_556 S
C2604 H2596 0.929 . S
C2604 C2605 1.377 1_554 S
C2604 C2606 1.384 . S
C2605 C2604 1.377 1_556 S
C2605 C2611 1.390 . S
C2606 H2597 0.930 . S
C2606 C2604 1.384 . S
C2606 C2607 1.372 . S
C2607 C2606 1.372 . S
C2607 C2608 1.400 1_554 S
C2607 C2612 1.490 . S
C2608 H2598 0.930 . S
C2608 C2607 1.400 1_556 S
C2608 C2611 1.386 . S
H2609 C2625 0.930 . S
H2610 C2626 0.931 . S
C2611 H2599 0.929 . S
C2611 C2605 1.390 . S
C2611 C2608 1.386 . S
C2612 C2607 1.490 . S
C2612 C2614 1.395 . S
C2612 C2615 1.403 . S
H2613 C2619 0.930 . S
C2614 H2600 0.930 . S
C2614 C2612 1.395 . S
C2614 C2617 1.403 . S
C2615 C2612 1.403 . S
C2615 C2616 1.531 . S
C2615 C2619 1.400 . S
C2616 H2601 0.965 1_554 S
C2616 H2602 0.958 1_554 S
C2616 H2603 0.955 1_554 S
C2616 C2615 1.531 . S
C2617 C2614 1.403 . S
C2617 C2618 1.392 . S
C2617 C2621 1.495 . S
C2618 C2617 1.392 . S
C2618 C2619 1.385 . S
C2618 C2620 1.478 . S
C2619 H2613 0.930 . S
C2619 C2615 1.400 . S
C2619 C2618 1.385 . S
C2620 C2618 1.478 . S
C2620 C2622 1.381 . S
C2620 C2626 1.383 . S
C2621 C2617 1.495 . S
C2621 H2627 0.959 . S
C2621 H2628 0.961 . S
C2621 H2629 0.960 . S
C2622 C2620 1.381 . S
C2622 C2623 1.394 . S
C2622 H2630 0.930 . S
C2623 C2622 1.394 . S
C2623 C2624 1.383 . S
C2623 H2631 0.929 . S
C2624 C2623 1.383 . S
C2624 C2625 1.377 . S
C2625 H2609 0.930 . S
C2625 C2624 1.377 . S
C2625 C2626 1.379 . S
C2626 H2610 0.931 . S
C2626 C2620 1.383 . S
C2626 C2625 1.379 . S
H2627 C2621 0.959 . S
H2628 C2621 0.961 . S
H2629 C2621 0.960 . S
H2630 C2622 0.930 . S
H2631 C2623 0.929 . S
H2632 C2640 0.929 . S
H2633 C2642 0.930 . S
H2634 C2644 0.930 . S
H2635 C2647 0.929 . S
H2636 C2650 0.930 . S
H2637 C2652 0.960 . S
H2638 C2652 0.960 . S
H2639 C2652 0.960 . S
C2640 H2632 0.929 . S
C2640 C2641 1.377 . S
C2640 C2642 1.384 . S
C2641 C2640 1.377 . S
C2641 C2647 1.390 . S
C2642 H2633 0.930 . S
C2642 C2640 1.384 . S
C2642 C2643 1.372 . S
C2643 C2642 1.372 . S
C2643 C2644 1.400 . S
C2643 C2648 1.490 . S
C2644 H2634 0.930 . S
C2644 C2643 1.400 . S
C2644 C2647 1.386 . S
H2645 C2661 0.930 . S
H2646 C2662 0.931 . S
C2647 H2635 0.929 . S
C2647 C2641 1.390 . S
C2647 C2644 1.386 . S
C2648 C2643 1.490 . S
C2648 C2650 1.395 . S
C2648 C2651 1.403 . S
H2649 C2655 0.930 . S
C2650 H2636 0.930 . S
C2650 C2648 1.395 . S
C2650 C2653 1.403 . S
C2651 C2648 1.403 . S
C2651 C2652 1.524 . S
C2651 C2655 1.400 . S
C2652 H2637 0.960 . S
C2652 H2638 0.960 . S
C2652 H2639 0.960 . S
C2652 C2651 1.524 . S
C2653 C2650 1.403 . S
C2653 C2654 1.392 . S
C2653 C2657 1.495 . S
C2654 C2653 1.392 . S
C2654 C2655 1.385 . S
C2654 C2656 1.478 . S
C2655 H2649 0.930 . S
C2655 C2651 1.400 . S
C2655 C2654 1.385 . S
C2656 C2654 1.478 . S
C2656 C2658 1.381 . S
C2656 C2662 1.383 . S
C2657 C2653 1.495 . S
C2657 H2663 0.959 . S
C2657 H2664 0.961 . S
C2657 H2665 0.960 . S
C2658 C2656 1.381 . S
C2658 C2659 1.394 . S
C2658 H2666 0.930 . S
C2659 C2658 1.394 . S
C2659 C2660 1.383 . S
C2659 H2667 0.929 . S
C2660 C2659 1.383 . S
C2660 C2661 1.377 . S
C2661 H2645 0.930 . S
C2661 C2660 1.377 . S
C2661 C2662 1.379 . S
C2662 H2646 0.931 . S
C2662 C2656 1.383 . S
C2662 C2661 1.379 . S
H2663 C2657 0.959 . S
H2664 C2657 0.961 . S
H2665 C2657 0.960 . S
H2666 C2658 0.930 . S
H2667 C2659 0.929 . S
H2668 C2676 0.929 . S
H2669 C2678 0.930 . S
H2670 C2680 0.930 . S
H2671 C2683 0.932 . S
H2672 C2686 0.930 . S
H2673 C2688 0.960 . S
H2674 C2688 0.960 1_556 S
H2675 C2688 0.960 . S
C2676 H2668 0.929 . S
C2676 C2677 1.377 . S
C2676 C2678 1.384 1_556 S
C2677 C2676 1.377 . S
C2677 C2683 1.392 . S
C2678 H2669 0.930 . S
C2678 C2676 1.384 1_554 S
C2678 C2679 1.372 . S
C2679 C2678 1.372 . S
C2679 C2680 1.400 . S
C2679 C2684 1.490 . S
C2680 H2670 0.930 . S
C2680 C2679 1.400 . S
C2680 C2683 1.384 1_554 S
H2681 C2697 0.930 . S
H2682 C2698 0.931 . S
C2683 H2671 0.932 . S
C2683 C2677 1.392 . S
C2683 C2680 1.384 1_556 S
C2684 C2679 1.490 . S
C2684 C2686 1.395 . S
C2684 C2687 1.403 . S
H2685 C2691 0.930 . S
C2686 H2672 0.930 . S
C2686 C2684 1.395 . S
C2686 C2689 1.403 . S
C2687 C2684 1.403 . S
C2687 C2688 1.524 . S
C2687 C2691 1.400 . S
C2688 H2673 0.960 . S
C2688 H2674 0.960 1_554 S
C2688 H2675 0.960 . S
C2688 C2687 1.524 . S
C2689 C2686 1.403 . S
C2689 C2690 1.392 . S
C2689 C2693 1.495 . S
C2690 C2689 1.392 . S
C2690 C2691 1.385 . S
C2690 C2692 1.478 . S
C2691 H2685 0.930 . S
C2691 C2687 1.400 . S
C2691 C2690 1.385 . S
C2692 C2690 1.478 . S
C2692 C2694 1.381 . S
C2692 C2698 1.383 . S
C2693 C2689 1.495 . S
C2693 H2699 0.959 . S
C2693 H2700 0.961 . S
C2693 H2701 0.960 . S
C2694 C2692 1.381 . S
C2694 C2695 1.394 . S
C2694 H2702 0.930 . S
C2695 C2694 1.394 . S
C2695 C2696 1.383 . S
C2695 H2703 0.929 . S
C2696 C2695 1.383 . S
C2696 C2697 1.377 . S
C2697 H2681 0.930 . S
C2697 C2696 1.377 . S
C2697 C2698 1.379 . S
C2698 H2682 0.931 . S
C2698 C2692 1.383 . S
C2698 C2697 1.379 . S
H2699 C2693 0.959 . S
H2700 C2693 0.961 . S
H2701 C2693 0.960 . S
H2702 C2694 0.930 . S
H2703 C2695 0.929 . S
H2704 C2712 0.929 . S
H2705 C2714 0.930 . S
H2706 C2716 0.930 . S
H2707 C2719 0.929 . S
H2708 C2722 0.930 . S
H2709 C2724 0.960 . S
H2710 C2724 0.960 . S
H2711 C2724 0.960 . S
C2712 H2704 0.929 . S
C2712 C2713 1.377 . S
C2712 C2714 1.384 . S
C2713 C2712 1.377 . S
C2713 C2719 1.390 . S
C2714 H2705 0.930 . S
C2714 C2712 1.384 . S
C2714 C2715 1.372 . S
C2715 C2714 1.372 . S
C2715 C2716 1.400 . S
C2715 C2720 1.490 . S
C2716 H2706 0.930 . S
C2716 C2715 1.400 . S
C2716 C2719 1.386 . S
H2717 C2733 0.930 . S
H2718 C2734 0.931 . S
C2719 H2707 0.929 . S
C2719 C2713 1.390 . S
C2719 C2716 1.386 . S
C2720 C2715 1.490 . S
C2720 C2722 1.395 . S
C2720 C2723 1.403 . S
H2721 C2727 0.930 . S
C2722 H2708 0.930 . S
C2722 C2720 1.395 . S
C2722 C2725 1.403 . S
C2723 C2720 1.403 . S
C2723 C2724 1.524 . S
C2723 C2727 1.400 . S
C2724 H2709 0.960 . S
C2724 H2710 0.960 . S
C2724 H2711 0.960 . S
C2724 C2723 1.524 . S
C2725 C2722 1.403 . S
C2725 C2726 1.392 . S
C2725 C2729 1.495 . S
C2726 C2725 1.392 . S
C2726 C2727 1.385 . S
C2726 C2728 1.478 . S
C2727 H2721 0.930 . S
C2727 C2723 1.400 . S
C2727 C2726 1.385 . S
C2728 C2726 1.478 . S
C2728 C2730 1.381 . S
C2728 C2734 1.383 . S
C2729 C2725 1.495 . S
C2729 H2735 0.959 . S
C2729 H2736 0.961 . S
C2729 H2737 0.960 . S
C2730 C2728 1.381 . S
C2730 C2731 1.394 . S
C2730 H2738 0.930 . S
C2731 C2730 1.394 . S
C2731 C2732 1.383 . S
C2731 H2739 0.929 . S
C2732 C2731 1.383 . S
C2732 C2733 1.377 . S
C2733 H2717 0.930 . S
C2733 C2732 1.377 . S
C2733 C2734 1.379 . S
C2734 H2718 0.931 . S
C2734 C2728 1.383 . S
C2734 C2733 1.379 . S
H2735 C2729 0.959 . S
H2736 C2729 0.961 . S
H2737 C2729 0.960 . S
H2738 C2730 0.930 . S
H2739 C2731 0.929 . S
H2740 C2748 0.929 . S
H2741 C2750 0.930 . S
H2742 C2752 0.930 . S
H2743 C2755 0.929 . S
H2744 C2758 0.930 . S
H2745 C2760 0.960 . S
H2746 C2760 0.960 . S
H2747 C2760 0.960 . S
C2748 H2740 0.929 . S
C2748 C2749 1.377 . S
C2748 C2750 1.384 . S
C2749 C2748 1.377 . S
C2749 C2755 1.390 . S
C2750 H2741 0.930 . S
C2750 C2748 1.384 . S
C2750 C2751 1.372 . S
C2751 C2750 1.372 . S
C2751 C2752 1.400 . S
C2751 C2756 1.490 . S
C2752 H2742 0.930 . S
C2752 C2751 1.400 . S
C2752 C2755 1.386 . S
H2753 C2769 0.930 . S
H2754 C2770 0.931 . S
C2755 H2743 0.929 . S
C2755 C2749 1.390 . S
C2755 C2752 1.386 . S
C2756 C2751 1.490 . S
C2756 C2758 1.395 . S
C2756 C2759 1.403 . S
H2757 C2763 0.930 . S
C2758 H2744 0.930 . S
C2758 C2756 1.395 . S
C2758 C2761 1.403 . S
C2759 C2756 1.403 . S
C2759 C2760 1.524 . S
C2759 C2763 1.400 . S
C2760 H2745 0.960 . S
C2760 H2746 0.960 . S
C2760 H2747 0.960 . S
C2760 C2759 1.524 . S
C2761 C2758 1.403 . S
C2761 C2762 1.392 . S
C2761 C2765 1.495 . S
C2762 C2761 1.392 . S
C2762 C2763 1.385 . S
C2762 C2764 1.478 . S
C2763 H2757 0.930 . S
C2763 C2759 1.400 . S
C2763 C2762 1.385 . S
C2764 C2762 1.478 . S
C2764 C2766 1.381 . S
C2764 C2770 1.383 . S
C2765 C2761 1.495 . S
C2765 H2771 0.959 . S
C2765 H2772 0.961 . S
C2765 H2773 0.960 . S
C2766 C2764 1.381 . S
C2766 C2767 1.394 . S
C2766 H2774 0.930 . S
C2767 C2766 1.394 . S
C2767 C2768 1.383 . S
C2767 H2775 0.929 . S
C2768 C2767 1.383 . S
C2768 C2769 1.377 . S
C2769 H2753 0.930 . S
C2769 C2768 1.377 . S
C2769 C2770 1.379 . S
C2770 H2754 0.931 . S
C2770 C2764 1.383 . S
C2770 C2769 1.379 . S
H2771 C2765 0.959 . S
H2772 C2765 0.961 . S
H2773 C2765 0.960 . S
H2774 C2766 0.930 . S
H2775 C2767 0.929 . S
H2776 C2784 0.929 . S
H2777 C2786 0.930 . S
H2778 C2788 0.930 . S
H2779 C2791 0.929 . S
H2780 C2794 0.930 . S
H2781 C2796 0.960 . S
H2782 C2796 0.960 . S
H2783 C2796 0.960 . S
C2784 H2776 0.929 . S
C2784 C2785 1.377 . S
C2784 C2786 1.384 . S
C2785 C2784 1.377 . S
C2785 C2791 1.390 . S
C2786 H2777 0.930 . S
C2786 C2784 1.384 . S
C2786 C2787 1.372 . S
C2787 C2786 1.372 . S
C2787 C2788 1.400 . S
C2787 C2792 1.490 . S
C2788 H2778 0.930 . S
C2788 C2787 1.400 . S
C2788 C2791 1.386 . S
H2789 C2805 0.930 . S
H2790 C2806 0.931 . S
C2791 H2779 0.929 . S
C2791 C2785 1.390 . S
C2791 C2788 1.386 . S
C2792 C2787 1.490 . S
C2792 C2794 1.395 . S
C2792 C2795 1.403 . S
H2793 C2799 0.930 . S
C2794 H2780 0.930 . S
C2794 C2792 1.395 . S
C2794 C2797 1.403 . S
C2795 C2792 1.403 . S
C2795 C2796 1.524 . S
C2795 C2799 1.400 . S
C2796 H2781 0.960 . S
C2796 H2782 0.960 . S
C2796 H2783 0.960 . S
C2796 C2795 1.524 . S
C2797 C2794 1.403 . S
C2797 C2798 1.392 . S
C2797 C2801 1.495 . S
C2798 C2797 1.392 . S
C2798 C2799 1.385 . S
C2798 C2800 1.478 . S
C2799 H2793 0.930 . S
C2799 C2795 1.400 . S
C2799 C2798 1.385 . S
C2800 C2798 1.478 . S
C2800 C2802 1.381 . S
C2800 C2806 1.383 . S
C2801 C2797 1.495 . S
C2801 H2807 0.959 . S
C2801 H2808 0.961 . S
C2801 H2809 0.960 . S
C2802 C2800 1.381 . S
C2802 C2803 1.394 . S
C2802 H2810 0.930 . S
C2803 C2802 1.394 . S
C2803 C2804 1.383 . S
C2803 H2811 0.929 . S
C2804 C2803 1.383 . S
C2804 C2805 1.377 . S
C2805 H2789 0.930 . S
C2805 C2804 1.377 . S
C2805 C2806 1.379 . S
C2806 H2790 0.931 . S
C2806 C2800 1.383 . S
C2806 C2805 1.379 . S
H2807 C2801 0.959 . S
H2808 C2801 0.961 . S
H2809 C2801 0.960 . S
H2810 C2802 0.930 . S
H2811 C2803 0.929 . S
H2812 C2820 0.929 . S
H2813 C2822 0.930 . S
H2814 C2824 0.930 . S
H2815 C2827 0.929 . S
H2816 C2830 0.930 . S
H2817 C2832 0.960 . S
H2818 C2832 0.960 . S
H2819 C2832 0.960 . S
C2820 H2812 0.929 . S
C2820 C2821 1.377 . S
C2820 C2822 1.384 . S
C2821 C2820 1.377 . S
C2821 C2827 1.390 . S
C2822 H2813 0.930 . S
C2822 C2820 1.384 . S
C2822 C2823 1.372 . S
C2823 C2822 1.372 . S
C2823 C2824 1.400 . S
C2823 C2828 1.490 . S
C2824 H2814 0.930 . S
C2824 C2823 1.400 . S
C2824 C2827 1.386 . S
H2825 C2841 0.930 . S
H2826 C2842 0.931 . S
C2827 H2815 0.929 . S
C2827 C2821 1.390 . S
C2827 C2824 1.386 . S
C2828 C2823 1.490 . S
C2828 C2830 1.395 . S
C2828 C2831 1.403 . S
H2829 C2835 0.930 . S
C2830 H2816 0.930 . S
C2830 C2828 1.395 . S
C2830 C2833 1.403 . S
C2831 C2828 1.403 . S
C2831 C2832 1.524 . S
C2831 C2835 1.400 . S
C2832 H2817 0.960 . S
C2832 H2818 0.960 . S
C2832 H2819 0.960 . S
C2832 C2831 1.524 . S
C2833 C2830 1.403 . S
C2833 C2834 1.392 . S
C2833 C2837 1.495 . S
C2834 C2833 1.392 . S
C2834 C2835 1.385 . S
C2834 C2836 1.478 . S
C2835 H2829 0.930 . S
C2835 C2831 1.400 . S
C2835 C2834 1.385 . S
C2836 C2834 1.478 . S
C2836 C2838 1.381 . S
C2836 C2842 1.383 . S
C2837 C2833 1.495 . S
C2837 H2843 0.959 . S
C2837 H2844 0.961 . S
C2837 H2845 0.960 . S
C2838 C2836 1.381 . S
C2838 C2839 1.394 . S
C2838 H2846 0.930 . S
C2839 C2838 1.394 . S
C2839 C2840 1.383 . S
C2839 H2847 0.929 . S
C2840 C2839 1.383 . S
C2840 C2841 1.377 . S
C2841 H2825 0.930 . S
C2841 C2840 1.377 . S
C2841 C2842 1.379 . S
C2842 H2826 0.931 . S
C2842 C2836 1.383 . S
C2842 C2841 1.379 . S
H2843 C2837 0.959 . S
H2844 C2837 0.961 . S
H2845 C2837 0.960 . S
H2846 C2838 0.930 . S
H2847 C2839 0.929 . S
H2848 C2856 0.929 . S
H2849 C2858 0.930 . S
H2850 C2860 0.930 . S
H2851 C2863 0.929 . S
H2852 C2866 0.930 . S
H2853 C2868 0.960 . S
H2854 C2868 0.960 . S
H2855 C2868 0.960 . S
C2856 H2848 0.929 . S
C2856 C2857 1.377 . S
C2856 C2858 1.384 . S
C2857 C2856 1.377 . S
C2857 C2863 1.390 . S
C2858 H2849 0.930 . S
C2858 C2856 1.384 . S
C2858 C2859 1.372 . S
C2859 C2858 1.372 . S
C2859 C2860 1.400 . S
C2859 C2864 1.490 . S
C2860 H2850 0.930 . S
C2860 C2859 1.400 . S
C2860 C2863 1.386 . S
H2861 C2877 0.930 1_554 S
H2862 C2878 0.931 1_554 S
C2863 H2851 0.929 . S
C2863 C2857 1.390 . S
C2863 C2860 1.386 . S
C2864 C2859 1.490 . S
C2864 C2866 1.395 . S
C2864 C2867 1.403 . S
H2865 C2871 0.930 . S
C2866 H2852 0.930 . S
C2866 C2864 1.395 . S
C2866 C2869 1.403 . S
C2867 C2864 1.403 . S
C2867 C2868 1.524 . S
C2867 C2871 1.400 . S
C2868 H2853 0.960 . S
C2868 H2854 0.960 . S
C2868 H2855 0.960 . S
C2868 C2867 1.524 . S
C2869 C2866 1.403 . S
C2869 C2870 1.392 . S
C2869 C2873 1.495 . S
C2870 C2869 1.392 . S
C2870 C2871 1.385 . S
C2870 C2872 1.478 . S
C2871 H2865 0.930 . S
C2871 C2867 1.400 . S
C2871 C2870 1.385 . S
C2872 C2870 1.478 . S
C2872 C2874 1.381 . S
C2872 C2878 1.383 . S
C2873 C2869 1.495 . S
C2873 H2879 0.959 . S
C2873 H2880 0.961 1_556 S
C2873 H2881 0.960 . S
C2874 C2872 1.381 . S
C2874 C2875 1.394 . S
C2874 H2882 0.930 . S
C2875 C2874 1.394 . S
C2875 C2876 1.383 . S
C2875 H2883 0.929 . S
C2876 C2875 1.383 . S
C2876 C2877 1.377 . S
C2877 H2861 0.930 1_556 S
C2877 C2876 1.377 . S
C2877 C2878 1.379 . S
C2878 H2862 0.931 1_556 S
C2878 C2872 1.383 . S
C2878 C2877 1.379 . S
H2879 C2873 0.959 . S
H2880 C2873 0.961 1_554 S
H2881 C2873 0.960 . S
H2882 C2874 0.930 . S
H2883 C2875 0.929 . S
H2884 C2892 0.929 . S
H2885 C2894 0.930 . S
H2886 C2896 0.930 . S
H2887 C2899 0.929 . S
H2888 C2902 0.930 . S
H2889 C2904 0.960 . S
H2890 C2904 0.960 . S
H2891 C2904 0.960 . S
C2892 H2884 0.929 . S
C2892 C2893 1.377 . S
C2892 C2894 1.384 . S
C2893 C2892 1.377 . S
C2893 C2899 1.390 . S
C2894 H2885 0.930 . S
C2894 C2892 1.384 . S
C2894 C2895 1.372 . S
C2895 C2894 1.372 . S
C2895 C2896 1.400 . S
C2895 C2900 1.490 . S
C2896 H2886 0.930 . S
C2896 C2895 1.400 . S
C2896 C2899 1.386 . S
H2897 C2913 0.930 . S
H2898 C2914 0.931 . S
C2899 H2887 0.929 . S
C2899 C2893 1.390 . S
C2899 C2896 1.386 . S
C2900 C2895 1.490 . S
C2900 C2902 1.395 . S
C2900 C2903 1.403 . S
H2901 C2907 0.930 . S
C2902 H2888 0.930 . S
C2902 C2900 1.395 . S
C2902 C2905 1.403 . S
C2903 C2900 1.403 . S
C2903 C2904 1.524 . S
C2903 C2907 1.400 . S
C2904 H2889 0.960 . S
C2904 H2890 0.960 . S
C2904 H2891 0.960 . S
C2904 C2903 1.524 . S
C2905 C2902 1.403 . S
C2905 C2906 1.392 . S
C2905 C2909 1.495 . S
C2906 C2905 1.392 . S
C2906 C2907 1.385 . S
C2906 C2908 1.478 . S
C2907 H2901 0.930 . S
C2907 C2903 1.400 . S
C2907 C2906 1.385 . S
C2908 C2906 1.478 . S
C2908 C2910 1.381 . S
C2908 C2914 1.383 . S
C2909 C2905 1.495 . S
C2909 H2915 0.959 . S
C2909 H2916 0.961 . S
C2909 H2917 0.960 . S
C2910 C2908 1.381 . S
C2910 C2911 1.394 . S
C2910 H2918 0.930 . S
C2911 C2910 1.394 . S
C2911 C2912 1.383 . S
C2911 H2919 0.929 . S
C2912 C2911 1.383 . S
C2912 C2913 1.377 . S
C2913 H2897 0.930 . S
C2913 C2912 1.377 . S
C2913 C2914 1.379 . S
C2914 H2898 0.931 . S
C2914 C2908 1.383 . S
C2914 C2913 1.379 . S
H2915 C2909 0.959 . S
H2916 C2909 0.961 . S
H2917 C2909 0.960 . S
H2918 C2910 0.930 . S
H2919 C2911 0.929 . S
H2920 C2928 0.929 . S
H2921 C2930 0.930 . S
H2922 C2932 0.930 . S
H2923 C2935 0.929 . S
H2924 C2938 0.930 . S
H2925 C2940 0.960 . S
H2926 C2940 0.960 . S
H2927 C2940 0.960 . S
C2928 H2920 0.929 . S
C2928 C2929 1.377 . S
C2928 C2930 1.384 . S
C2929 C2928 1.377 . S
C2929 C2935 1.390 . S
C2930 H2921 0.930 . S
C2930 C2928 1.384 . S
C2930 C2931 1.372 . S
C2931 C2930 1.372 . S
C2931 C2932 1.400 . S
C2931 C2936 1.490 . S
C2932 H2922 0.930 . S
C2932 C2931 1.400 . S
C2932 C2935 1.386 . S
H2933 C2949 0.930 . S
H2934 C2950 0.931 . S
C2935 H2923 0.929 . S
C2935 C2929 1.390 . S
C2935 C2932 1.386 . S
C2936 C2931 1.490 . S
C2936 C2938 1.395 . S
C2936 C2939 1.403 . S
H2937 C2943 0.930 . S
C2938 H2924 0.930 . S
C2938 C2936 1.395 . S
C2938 C2941 1.403 . S
C2939 C2936 1.403 . S
C2939 C2940 1.524 . S
C2939 C2943 1.400 . S
C2940 H2925 0.960 . S
C2940 H2926 0.960 . S
C2940 H2927 0.960 . S
C2940 C2939 1.524 . S
C2941 C2938 1.403 . S
C2941 C2942 1.392 . S
C2941 C2945 1.495 . S
C2942 C2941 1.392 . S
C2942 C2943 1.385 . S
C2942 C2944 1.478 . S
C2943 H2937 0.930 . S
C2943 C2939 1.400 . S
C2943 C2942 1.385 . S
C2944 C2942 1.478 . S
C2944 C2946 1.381 . S
C2944 C2950 1.383 . S
C2945 C2941 1.495 . S
C2945 H2951 0.959 . S
C2945 H2952 0.961 . S
C2945 H2953 0.960 . S
C2946 C2944 1.381 . S
C2946 C2947 1.407 . S
C2946 H2954 0.930 1_554 S
C2947 C2946 1.407 . S
C2947 C2948 1.412 . S
C2947 H2955 0.889 1_554 S
C2948 C2947 1.412 . S
C2948 C2949 1.377 . S
C2949 H2933 0.930 . S
C2949 C2948 1.377 . S
C2949 C2950 1.379 . S
C2950 H2934 0.931 . S
C2950 C2944 1.383 . S
C2950 C2949 1.379 . S
H2951 C2945 0.959 . S
H2952 C2945 0.961 . S
H2953 C2945 0.960 . S
H2954 C2946 0.930 1_556 S
H2955 C2947 0.889 1_556 S
H2956 C2964 0.929 . S
H2957 C2966 0.930 . S
H2958 C2968 0.930 1_545 S
H2959 C2971 0.929 . S
H2960 C2974 0.930 . S
H2961 C2976 0.960 . S
H2962 C2976 0.960 . S
H2963 C2976 0.960 . S
C2964 H2956 0.929 . S
C2964 C2965 1.377 . S
C2964 C2966 1.384 . S
C2965 C2964 1.377 . S
C2965 C2971 1.390 1_565 S
C2966 H2957 0.930 . S
C2966 C2964 1.384 . S
C2966 C2967 1.372 . S
C2967 C2966 1.372 . S
C2967 C2968 1.400 . S
C2967 C2972 1.490 . S
C2968 H2958 0.930 1_565 S
C2968 C2967 1.400 . S
C2968 C2971 1.386 1_565 S
H2969 C2985 0.930 . S
H2970 C2986 0.931 . S
C2971 H2959 0.929 . S
C2971 C2965 1.390 1_545 S
C2971 C2968 1.386 1_545 S
C2972 C2967 1.490 . S
C2972 C2974 1.395 . S
C2972 C2975 1.403 . S
H2973 C2979 0.930 . S
C2974 H2960 0.930 . S
C2974 C2972 1.395 . S
C2974 C2977 1.403 . S
C2975 C2972 1.403 . S
C2975 C2976 1.524 . S
C2975 C2979 1.400 . S
C2976 H2961 0.960 . S
C2976 H2962 0.960 . S
C2976 H2963 0.960 . S
C2976 C2975 1.524 . S
C2977 C2974 1.403 . S
C2977 C2978 1.392 . S
C2977 C2981 1.495 1_554 S
C2978 C2977 1.392 . S
C2978 C2979 1.385 . S
C2978 C2980 1.478 . S
C2979 H2973 0.930 . S
C2979 C2975 1.400 . S
C2979 C2978 1.385 . S
C2980 C2978 1.478 . S
C2980 C2982 1.381 . S
C2980 C2986 1.383 . S
C2981 C2977 1.495 1_556 S
C2981 H2987 0.959 . S
C2981 H2988 0.961 . S
C2981 H2989 0.960 . S
C2982 C2980 1.381 . S
C2982 C2983 1.394 . S
C2982 H2990 0.930 . S
C2983 C2982 1.394 . S
C2983 C2984 1.383 . S
C2983 H2991 0.929 . S
C2984 C2983 1.383 . S
C2984 C2985 1.377 . S
C2985 H2969 0.930 . S
C2985 C2984 1.377 . S
C2985 C2986 1.379 . S
C2986 H2970 0.931 . S
C2986 C2980 1.383 . S
C2986 C2985 1.379 . S
H2987 C2981 0.959 . S
H2988 C2981 0.961 . S
H2989 C2981 0.960 . S
H2990 C2982 0.930 . S
H2991 C2983 0.929 . S
C1292 C257 1.185 . S
C1273 N66 1.166 . S
C1328 C316 1.590 . S
C1309 N79 1.584 . S
C1345 N92 1.911 . S
C1364 C433 1.938 . S
C1400 C501 1.277 . S
C1381 N54 1.294 . S
C1436 C580 1.563 . S
C1417 N131 1.556 . S
C1472 C705 1.058 . S
C1453 N158 1.053 . S
C1489 N145 1.559 . S
C1508 C765 1.560 . S
C1544 C873 1.903 . S
C1525 N118 1.883 . S
C1561 N148 2.138 . S
C1580 C969 2.127 . S
C1616 C1029 1.626 . S
C1597 N122 1.621 . S
C1633 N132 1.152 . S
C1652 C932 1.156 . S
C1688 C1049 1.490 . S
C1669 N161 1.461 . S
C1705 N96 2.019 . S
C1724 C1117 2.059 . S
C1741 N53 1.835 . S
C1760 C1108 1.854 . S
C1777 N67 0.875 . S
C1796 C1137 0.871 . S
C1813 N83 1.268 . S
C1832 C1145 1.270 . S
C1849 N44 1.432 . S
C1868 C529 1.450 . S
C1885 N187 1.527 . S
C1904 C492 1.527 . S
C1940 C228 1.054 1_556 S
C1921 N197 1.051 . S
C1976 C325 1.176 . S
C1957 N106 1.183 . S
C1993 N57 1.945 1_545 S
C2012 C589 1.957 . S
C2048 C881 1.401 . S
C2029 N144 1.383 . S
C2084 C609 1.330 . S
C2065 N119 1.331 . S
C2120 C793 1.931 . S
C2101 N157 1.897 . S
C2156 C785 1.188 . S
C2137 N183 1.163 . S
C2173 N196 1.586 . S
C2192 C853 1.592 . S
C2209 N105 1.912 . S
C2228 C617 1.935 . S
C2264 C668 1.296 . S
C2245 N171 1.293 . S
C2281 N40 1.554 . S
C2300 C413 1.561 . S
C2336 C521 1.059 . S
C2317 N2 1.054 1_655 S
C2372 C237 1.558 . S
C2353 N15 1.559 . S
C2408 C353 1.904 . S
C2389 N27 1.887 . S
C2425 N18 2.139 . S
C2444 C1057 2.135 . S
C2461 N31 1.623 . S
C2480 C941 1.644 . S
C2497 N41 1.151 . S
C2516 C1020 1.154 . S
C2533 N5 1.457 . S
C2552 C961 1.485 . S
C2588 C1205 2.058 . S
C2569 N109 2.021 . S
C2624 C1196 1.855 . S
C2605 N170 1.838 . S
C2660 C1225 0.865 . S
C2641 N184 0.875 . S
C2677 N200 1.267 . S
C2696 C1233 1.270 . S
C2713 N135 1.429 . S
C2732 C697 1.443 . S
C2768 C677 1.539 . S
C2749 N70 1.528 . S
C2804 C756 1.058 . S
C2785 N80 1.051 . S
C2840 C844 1.185 . S
C2821 N93 1.184 . S
C2857 N174 1.945 . S
C2876 C404 1.957 . S
C2912 C345 1.397 . S
C2893 N14 1.380 . S
C2929 N28 1.330 . S
C2948 C441 1.323 . S
C2984 C265 1.928 . S
C2965 N1 1.894 1_565 S
