# Generated by pormake.
# Topology anh, (6,3)-cn, num edge types: 1
# Building blocks:
#     Node 0, Type 0, BuildingBlock: MIFKUJ_clean_sbu_0, # of connection points: 6
#     Node 1, Type 0, BuildingBlock: MIFKUJ_clean_sbu_0, # of connection points: 6
#     Node 2, Type 0, BuildingBlock: MIFKUJ_clean_sbu_0, # of connection points: 6
#     Node 3, Type 1, BuildingBlock: BETDIP_clean_linker_0, # of connection points: 3
#     Node 4, Type 1, BuildingBlock: BETDIP_clean_linker_0, # of connection points: 3
#     Node 5, Type 1, BuildingBlock: BETDIP_clean_linker_0, # of connection points: 3
#     Node 6, Type 1, BuildingBlock: BETDIP_clean_linker_0, # of connection points: 3
#     Node 7, Type 1, BuildingBlock: BETDIP_clean_linker_0, # of connection points: 3
#     Node 8, Type 1, BuildingBlock: BETDIP_clean_linker_0, # of connection points: 3
#     Edge 9, Type (0, 1), BuildingBlock: FUNLAD_clean_linker_1, # of connection points: 2
#     Edge 10, Type (0, 1), BuildingBlock: FUNLAD_clean_linker_1, # of connection points: 2
#     Edge 11, Type (0, 1), BuildingBlock: FUNLAD_clean_linker_1, # of connection points: 2
#     Edge 12, Type (0, 1), BuildingBlock: FUNLAD_clean_linker_1, # of connection points: 2
#     Edge 13, Type (0, 1), BuildingBlock: FUNLAD_clean_linker_1, # of connection points: 2
#     Edge 14, Type (0, 1), BuildingBlock: FUNLAD_clean_linker_1, # of connection points: 2
#     Edge 15, Type (0, 1), BuildingBlock: FUNLAD_clean_linker_1, # of connection points: 2
#     Edge 16, Type (0, 1), BuildingBlock: FUNLAD_clean_linker_1, # of connection points: 2
#     Edge 17, Type (0, 1), BuildingBlock: FUNLAD_clean_linker_1, # of connection points: 2
#     Edge 18, Type (0, 1), BuildingBlock: FUNLAD_clean_linker_1, # of connection points: 2
#     Edge 19, Type (0, 1), BuildingBlock: FUNLAD_clean_linker_1, # of connection points: 2
#     Edge 20, Type (0, 1), BuildingBlock: FUNLAD_clean_linker_1, # of connection points: 2
#     Edge 21, Type (0, 1), BuildingBlock: FUNLAD_clean_linker_1, # of connection points: 2
#     Edge 22, Type (0, 1), BuildingBlock: FUNLAD_clean_linker_1, # of connection points: 2
#     Edge 23, Type (0, 1), BuildingBlock: FUNLAD_clean_linker_1, # of connection points: 2
#     Edge 24, Type (0, 1), BuildingBlock: FUNLAD_clean_linker_1, # of connection points: 2
#     Edge 25, Type (0, 1), BuildingBlock: FUNLAD_clean_linker_1, # of connection points: 2
#     Edge 26, Type (0, 1), BuildingBlock: FUNLAD_clean_linker_1, # of connection points: 2
# Relax obj value: 0.084
# Max RMSD: 0.183
# Mean RMSD: 0.117
data_MOF--net-anh--node1-MIFKUJ_clean_sbu_0--node2-BETDIP_clean_linker_0--edge1-FUNLAD_clean_linker_1
_symmetry_space_group_name_H-M    P1
_symmetry_Int_Tables_number       1
_symmetry_cell_setting            triclinic
loop_
_symmetry_equiv_pos_as_xyz
'x, y, z'
_cell_length_a     33.574159
_cell_length_b     33.208289
_cell_length_c     49.189708
_cell_angle_alpha  97.503315
_cell_angle_beta   90.933089
_cell_angle_gamma 120.75671
loop_
_atom_site_label
_atom_site_type_symbol
_atom_site_fract_x
_atom_site_fract_y
_atom_site_fract_z
_atom_type_partial_charge
Zn0 Zn 0.08505 0.60975 0.16586 0.0
Zn1 Zn 0.93833 0.53541 0.16394 0.0
C2 C 0.15539 0.5903 0.17634 0.0
O3 O 0.16126 0.61895 0.19917 0.0
C4 C 0.86563 0.55137 0.15838 0.0
O5 O 0.85797 0.52115 0.13595 0.0
O6 O 0.12779 0.67893 0.16377 0.0
O7 O 0.02943 0.58077 0.13592 0.0
O8 O 0.95305 0.54181 0.12496 0.0
C9 C 0.1578 0.69006 0.14633 0.0
O10 O 0.15849 0.65642 0.12947 0.0
O11 O 0.12254 0.57889 0.15817 0.0
C12 C 0.87085 0.45203 0.18372 0.0
O13 O 0.86493 0.48299 0.19984 0.0
O14 O 0.90221 0.46641 0.16725 0.0
O15 O -0.00031 0.56826 0.18388 0.0
O16 O 0.06755 0.60227 0.20552 0.0
O17 O 0.90121 0.56563 0.17498 0.0
C18 C -0.0056 0.56254 0.11788 0.0
C19 C 0.02391 0.5796 0.20637 0.0
Zn20 Zn 0.50029 0.07574 0.50102 0.0
Zn21 Zn 0.47303 0.94841 0.48927 0.0
C22 C 0.59377 0.15401 0.50187 0.0
O23 O 0.57969 0.1717 0.52233 0.0
C24 C 0.38313 0.8751 0.46239 0.0
O25 O 0.40807 0.87571 0.44199 0.0
O26 O 0.47822 0.12172 0.50402 0.0
O27 O 0.45778 0.02226 0.47119 0.0
O28 O 0.49446 0.98548 0.45827 0.0
C29 C 0.48807 0.14699 0.48508 0.0
O30 O 0.50925 0.14004 0.46437 0.0
O31 O 0.56633 0.11168 0.48969 0.0
C32 C 0.48138 0.87002 0.49735 0.0
O33 O 0.44243 0.85766 0.50874 0.0
O34 O 0.50133 0.90809 0.48719 0.0
O35 O 0.49072 0.98423 0.52782 0.0
O36 O 0.50235 0.05696 0.53815 0.0
O37 O 0.40301 0.9045 0.4845 0.0
C38 C 0.47952 0.0122 0.45346 0.0
C39 C 0.50004 0.02036 0.54524 0.0
Zn40 Zn 0.57703 0.50622 0.83886 0.0
Zn41 Zn 0.48374 0.53982 0.82872 0.0
C42 C 0.54157 0.41025 0.84637 0.0
O43 O 0.55598 0.4313 0.87209 0.0
C44 C 0.49482 0.61381 0.80084 0.0
O45 O 0.46887 0.57656 0.78197 0.0
O46 O 0.64354 0.52655 0.84858 0.0
O47 O 0.5771 0.53757 0.80655 0.0
O48 O 0.5014 0.50626 0.7985 0.0
C49 C 0.66399 0.51305 0.83153 0.0
O50 O 0.64175 0.48752 0.80759 0.0
O51 O 0.54457 0.43486 0.82788 0.0
C52 C 0.4019 0.53656 0.83912 0.0
O53 O 0.43268 0.57167 0.8578 0.0
O54 O 0.41471 0.51263 0.82346 0.0
O55 O 0.49875 0.53843 0.86838 0.0
O56 O 0.55461 0.52204 0.87372 0.0
O57 O 0.50954 0.60816 0.8232 0.0
C58 C 0.54216 0.52851 0.79092 0.0
C59 C 0.52577 0.53251 0.88354 0.0
H60 H 0.47866 0.04565 0.16978 0.0
H61 H 0.57649 0.0985 0.2418 0.0
H62 H 0.43281 0.99373 0.24579 0.0
H63 H 0.53097 0.12685 0.16397 0.0
C64 C 0.56486 0.13317 0.17088 0.0
C65 C 0.48605 0.0464 0.19143 0.0
C66 C 0.45062 0.01558 0.20618 0.0
C67 C 0.5316 0.07608 0.20435 0.0
C68 C 0.54123 0.07553 0.23203 0.0
C69 C 0.50549 0.0475 0.24744 0.0
C70 C 0.46036 0.01702 0.23429 0.0
N71 N 0.5688 0.10693 0.19022 0.0
H72 H 0.56305 0.50885 0.50347 0.0
H73 H 0.56284 0.60126 0.57332 0.0
H74 H 0.55926 0.4731 0.58451 0.0
H75 H 0.61858 0.65739 0.54221 0.0
C76 C 0.58933 0.63962 0.52635 0.0
C77 C 0.56311 0.51739 0.52552 0.0
C78 C 0.56204 0.48687 0.54302 0.0
C79 C 0.5653 0.55954 0.53646 0.0
C80 C 0.56377 0.56993 0.56495 0.0
C81 C 0.56187 0.53922 0.5826 0.0
C82 C 0.56211 0.49815 0.57146 0.0
N83 N 0.56626 0.58978 0.51837 0.0
H84 H 0.02308 0.56673 0.83307 0.0
H85 H 0.11313 0.59947 0.90599 0.0
H86 H 0.96965 0.5557 0.91239 0.0
H87 H 0.16506 0.65746 0.8758 0.0
C88 C 0.15641 0.62698 0.86029 0.0
C89 C 0.02835 0.57045 0.85528 0.0
C90 C 0.9915 0.5618 0.87138 0.0
C91 C 0.07244 0.58516 0.86767 0.0
C92 C 0.07939 0.58954 0.89639 0.0
C93 C 0.0428 0.57988 0.91281 0.0
C94 C -0.00126 0.56568 0.90012 0.0
N95 N 0.10903 0.59336 0.85091 0.0
H96 H 0.01707 0.56054 0.48891 0.0
H97 H 0.94342 0.47575 0.41059 0.0
H98 H 0.07697 0.60181 0.4132 0.0
H99 H 0.91876 0.41588 0.43756 0.0
C100 C 0.91019 0.43195 0.45542 0.0
C101 C 0.0155 0.55403 0.46663 0.0
C102 C 0.05281 0.58556 0.45306 0.0
C103 C 0.97658 0.51329 0.45159 0.0
C104 C 0.97388 0.50583 0.42255 0.0
C105 C 0.01048 0.53771 0.40887 0.0
C106 C 0.04974 0.57676 0.42418 0.0
N107 N 0.94015 0.48107 0.46598 0.0
H108 H 0.51088 0.04494 0.83631 0.0
H109 H 0.5082 0.9771 0.75487 0.0
H110 H 0.50101 0.10306 0.76491 0.0
H111 H 0.47364 0.91148 0.77452 0.0
C112 C 0.49368 0.92314 0.7945 0.0
C113 C 0.50934 0.0438 0.81418 0.0
C114 C 0.50802 0.07999 0.80289 0.0
C115 C 0.50844 0.00587 0.797 0.0
C116 C 0.50763 0.00525 0.76827 0.0
C117 C 0.5055 0.04074 0.75677 0.0
C118 C 0.50458 0.07703 0.77412 0.0
N119 N 0.50937 0.96949 0.80906 0.0
H120 H 0.46811 0.54881 0.1695 0.0
H121 H 0.51985 0.52417 0.09408 0.0
H122 H 0.40536 0.54743 0.09189 0.0
H123 H 0.51897 0.46589 0.12405 0.0
C124 C 0.54291 0.49718 0.13878 0.0
C125 C 0.46653 0.54558 0.14723 0.0
C126 C 0.4331 0.54997 0.13262 0.0
C127 C 0.49718 0.53563 0.13329 0.0
C128 C 0.4957 0.53167 0.10447 0.0
C129 C 0.46345 0.53747 0.08947 0.0
C130 C 0.4316 0.54542 0.10368 0.0
N131 N 0.53026 0.53083 0.14856 0.0
H132 H 0.18673 0.55789 0.1495 0.0
C133 C 0.19007 0.57688 0.16997 0.0
H134 H 0.23189 0.61133 0.20782 0.0
H135 H 0.31156 0.48433 0.13563 0.0
H136 H 0.23954 0.41469 0.14312 0.0
H137 H 0.17992 0.42251 0.16791 0.0
H138 H 0.19181 0.50028 0.18486 0.0
C139 C 0.22743 0.59102 0.18763 0.0
C140 C 0.26676 0.58605 0.17829 0.0
C141 C 0.26032 0.54046 0.16983 0.0
C142 C 0.2956 0.53606 0.15671 0.0
C143 C 0.28685 0.48998 0.14672 0.0
C144 C 0.24546 0.4496 0.15073 0.0
C145 C 0.21183 0.45399 0.1646 0.0
C146 C 0.21896 0.4988 0.17406 0.0
H147 H 0.39339 0.5472 0.16858 0.0
C148 C 0.39875 0.55671 0.14805 0.0
H149 H 0.38055 0.58699 0.11842 0.0
H150 H 0.29175 0.679 0.19419 0.0
H151 H 0.36576 0.74874 0.18943 0.0
H152 H 0.42838 0.74105 0.1686 0.0
H153 H 0.41708 0.66342 0.15216 0.0
C154 C 0.37377 0.57347 0.13779 0.0
C155 C 0.3381 0.57743 0.15331 0.0
C156 C 0.34566 0.62299 0.16338 0.0
C157 C 0.30988 0.62736 0.17581 0.0
C158 C 0.31787 0.67342 0.1849 0.0
C159 C 0.36024 0.71385 0.18227 0.0
C160 C 0.39546 0.70953 0.17051 0.0
C161 C 0.38846 0.66475 0.1611 0.0
H162 H 0.65017 0.16826 0.47484 0.0
C163 C 0.63918 0.18423 0.49146 0.0
H164 H 0.65534 0.24725 0.51786 0.0
H165 H 0.87181 0.35562 0.50753 0.0
H166 H 0.86935 0.33919 0.55421 0.0
H167 H 0.79452 0.28772 0.57211 0.0
H168 H 0.72167 0.25201 0.5433 0.0
C169 C 0.66574 0.23111 0.501 0.0
C170 C 0.71073 0.26249 0.48993 0.0
C171 C 0.75305 0.28398 0.50718 0.0
C172 C 0.79622 0.31446 0.49702 0.0
C173 C 0.83796 0.33353 0.51438 0.0
C174 C 0.83709 0.32408 0.5412 0.0
C175 C 0.79496 0.29505 0.55127 0.0
C176 C 0.75337 0.27492 0.53452 0.0
H177 H 0.86162 0.41985 0.48587 0.0
C178 C 0.87051 0.40369 0.46823 0.0
H179 H 0.85027 0.3393 0.44024 0.0
H180 H 0.63572 0.2319 0.45233 0.0
H181 H 0.63817 0.24974 0.40596 0.0
H182 H 0.71285 0.30132 0.38813 0.0
H183 H 0.78572 0.33614 0.41666 0.0
C184 C 0.8419 0.35493 0.45839 0.0
C185 C 0.79695 0.32429 0.46974 0.0
C186 C 0.75455 0.30327 0.4526 0.0
C187 C 0.7114 0.27273 0.46275 0.0
C188 C 0.66958 0.25408 0.4455 0.0
C189 C 0.67039 0.26425 0.41886 0.0
C190 C 0.71248 0.2934 0.40882 0.0
C191 C 0.75411 0.31297 0.42542 0.0
H192 H 0.48931 0.66229 0.77672 0.0
C193 C 0.50124 0.65999 0.79683 0.0
H194 H 0.5259 0.69436 0.83794 0.0
H195 H 0.55538 0.86088 0.76186 0.0
H196 H 0.61203 0.84654 0.7397 0.0
H197 H 0.62551 0.78425 0.75156 0.0
H198 H 0.58227 0.73578 0.78554 0.0
C199 C 0.51635 0.69703 0.81733 0.0
C200 C 0.51372 0.73943 0.81312 0.0
C201 C 0.54027 0.76843 0.7938 0.0
C202 C 0.53301 0.80487 0.78728 0.0
C203 C 0.55938 0.83263 0.76751 0.0
C204 C 0.59214 0.82491 0.75472 0.0
C205 C 0.59971 0.78982 0.76138 0.0
C206 C 0.57436 0.76197 0.78076 0.0
H207 H 0.52251 0.90273 0.82573 0.0
C208 C 0.503 0.89177 0.80563 0.0
H209 H 0.47047 0.83671 0.77008 0.0
H210 H 0.45965 0.69308 0.85279 0.0
H211 H 0.40417 0.70849 0.87547 0.0
H212 H 0.39156 0.77153 0.86404 0.0
H213 H 0.43466 0.81982 0.82996 0.0
C214 C 0.48816 0.84667 0.7907 0.0
C215 C 0.49994 0.81301 0.80045 0.0
C216 C 0.47513 0.7857 0.82081 0.0
C217 C 0.48223 0.74907 0.82727 0.0
C218 C 0.45607 0.72161 0.84722 0.0
C219 C 0.424 0.73001 0.86039 0.0
C220 C 0.41686 0.76547 0.85393 0.0
C221 C 0.44191 0.793 0.83435 0.0
H222 H 0.83619 0.58609 0.18552 0.0
C223 C 0.8308 0.56419 0.16576 0.0
H224 H 0.78563 0.52485 0.1295 0.0
H225 H 0.61603 0.49526 0.20012 0.0
H226 H 0.6321 0.44329 0.22258 0.0
H227 H 0.70351 0.44091 0.21533 0.0
H228 H 0.75939 0.49068 0.18595 0.0
C229 C 0.79128 0.54642 0.14941 0.0
C230 C 0.75298 0.55367 0.15783 0.0
C231 C 0.72091 0.52427 0.17514 0.0
C232 C 0.67929 0.52476 0.17881 0.0
C233 C 0.64769 0.49531 0.19622 0.0
C234 C 0.65661 0.46556 0.2093 0.0
C235 C 0.69685 0.4643 0.20526 0.0
C236 C 0.7287 0.49312 0.18834 0.0
H237 H 0.59376 0.47712 0.13769 0.0
C238 C 0.58638 0.50415 0.14642 0.0
H239 H 0.61636 0.57436 0.17069 0.0
H240 H 0.81077 0.61906 0.1268 0.0
H241 H 0.79563 0.67266 0.10554 0.0
H242 H 0.72274 0.67263 0.11135 0.0
H243 H 0.66462 0.61918 0.13848 0.0
C244 C 0.6218 0.54563 0.16271 0.0
C245 C 0.66958 0.5538 0.16474 0.0
C246 C 0.7035 0.58615 0.14942 0.0
C247 C 0.74531 0.58596 0.14591 0.0
C248 C 0.77825 0.61762 0.1299 0.0
C249 C 0.77004 0.64858 0.11767 0.0
C250 C 0.729 0.64858 0.12095 0.0
C251 C 0.69592 0.61771 0.13656 0.0
H252 H 0.31894 0.81251 0.44102 0.0
C253 C 0.33361 0.83723 0.46028 0.0
H254 H 0.32208 0.85344 0.50129 0.0
H255 H 0.11485 0.69417 0.42936 0.0
H256 H 0.12815 0.75744 0.40414 0.0
H257 H 0.20087 0.83566 0.41403 0.0
H258 H 0.26104 0.85081 0.44892 0.0
C259 C 0.30733 0.83018 0.48157 0.0
C260 C 0.25973 0.78712 0.47957 0.0
C261 C 0.22421 0.77951 0.45991 0.0
C262 C 0.18185 0.73479 0.45467 0.0
C263 C 0.14765 0.7275 0.43419 0.0
C264 C 0.15475 0.76357 0.41965 0.0
C265 C 0.19572 0.80759 0.42519 0.0
C266 C 0.23011 0.81571 0.44511 0.0
H267 H 0.08828 0.64751 0.48699 0.0
C268 C 0.09363 0.62948 0.46863 0.0
H269 H 0.14228 0.63027 0.44161 0.0
H270 H 0.3176 0.79228 0.52165 0.0
H271 H 0.30188 0.73059 0.54874 0.0
H272 H 0.22769 0.65362 0.54008 0.0
H273 H 0.16862 0.63789 0.50413 0.0
C274 C 0.1361 0.64882 0.45933 0.0
C275 C 0.17463 0.69818 0.46956 0.0
C276 C 0.20815 0.70731 0.49101 0.0
C277 C 0.25082 0.75188 0.49608 0.0
C278 C 0.28442 0.75935 0.51703 0.0
C279 C 0.27587 0.72418 0.53272 0.0
C280 C 0.2341 0.68081 0.52783 0.0
C281 C 0.20057 0.67219 0.50715 0.0
H282 H 0.52544 0.34697 0.81654 0.0
C283 C 0.52856 0.36027 0.83834 0.0
H284 H 0.52794 0.34595 0.87888 0.0
H285 H 0.44605 0.14005 0.79073 0.0
H286 H 0.38318 0.15064 0.7758 0.0
H287 H 0.3809 0.22169 0.79529 0.0
H288 H 0.4419 0.28296 0.82945 0.0
C289 C 0.52411 0.33239 0.85708 0.0
C290 C 0.52016 0.2854 0.84896 0.0
C291 C 0.48306 0.24893 0.82995 0.0
C292 C 0.48355 0.20722 0.81938 0.0
C293 C 0.44719 0.17227 0.79954 0.0
C294 C 0.41081 0.17782 0.79088 0.0
C295 C 0.40958 0.21786 0.80181 0.0
C296 C 0.44506 0.253 0.82121 0.0
H297 H 0.4933 0.11363 0.84052 0.0
C298 C 0.50824 0.11983 0.82096 0.0
H299 H 0.54278 0.17056 0.79459 0.0
H300 H 0.59382 0.34531 0.88792 0.0
H301 H 0.65267 0.33113 0.9053 0.0
H302 H 0.65196 0.25775 0.88766 0.0
H303 H 0.59168 0.19758 0.85268 0.0
C304 C 0.52564 0.16289 0.81336 0.0
C305 C 0.52013 0.20121 0.82855 0.0
C306 C 0.55486 0.23555 0.84931 0.0
C307 C 0.55502 0.27779 0.85953 0.0
C308 C 0.5913 0.31222 0.87963 0.0
C309 C 0.62558 0.30468 0.88971 0.0
C310 C 0.62516 0.26334 0.8798 0.0
C311 C 0.59044 0.22915 0.85973 0.0
H312 H 0.53884 0.85694 0.49144 0.0
C313 C 0.50394 0.84221 0.49799 0.0
H314 H 0.44921 0.78608 0.51456 0.0
H315 H 0.59452 0.7131 0.47228 0.0
H316 H 0.57137 0.71615 0.42596 0.0
H317 H 0.51806 0.74492 0.4181 0.0
H318 H 0.48845 0.77175 0.45654 0.0
C319 C 0.48359 0.80061 0.50731 0.0
C320 C 0.50996 0.77684 0.5114 0.0
C321 C 0.52511 0.75926 0.48857 0.0
C322 C 0.55383 0.74038 0.493 0.0
C323 C 0.57095 0.72583 0.47 0.0
C324 C 0.5582 0.72771 0.44331 0.0
C325 C 0.52834 0.74408 0.43889 0.0
C326 C 0.51187 0.7597 0.46117 0.0
H327 H 0.53985 0.64552 0.50191 0.0
C328 C 0.57162 0.66476 0.51587 0.0
H329 H 0.62288 0.73241 0.53926 0.0
H330 H 0.48658 0.8075 0.55965 0.0
H331 H 0.50621 0.8005 0.6057 0.0
H332 H 0.55211 0.76331 0.61323 0.0
H333 H 0.57912 0.73351 0.57481 0.0
C334 C 0.59156 0.71333 0.52492 0.0
C335 C 0.5651 0.73675 0.52013 0.0
C336 C 0.54903 0.75332 0.54291 0.0
C337 C 0.52167 0.77371 0.53853 0.0
C338 C 0.50688 0.79097 0.56168 0.0
C339 C 0.51794 0.78725 0.58828 0.0
C340 C 0.54383 0.76639 0.59252 0.0
C341 C 0.55924 0.74952 0.57022 0.0
H342 H 0.72703 0.5429 0.86021 0.0
C343 C 0.71108 0.52351 0.83966 0.0
H344 H 0.7192 0.48984 0.80234 0.0
H345 H 0.9404 0.61428 0.83414 0.0
H346 H 0.93267 0.65303 0.79765 0.0
H347 H 0.85515 0.6299 0.77669 0.0
H348 H 0.78482 0.56798 0.79229 0.0
C349 C 0.73387 0.5084 0.82317 0.0
C350 C 0.78021 0.51755 0.83307 0.0
C351 C 0.82086 0.55267 0.82312 0.0
C352 C 0.86553 0.5654 0.8349 0.0
C353 C 0.90559 0.60229 0.82551 0.0
C354 C 0.90165 0.62505 0.80465 0.0
C355 C 0.85801 0.61208 0.79287 0.0
C356 C 0.81794 0.57649 0.80201 0.0
H357 H 0.93701 0.53088 0.83611 0.0
C358 C 0.94556 0.54773 0.85759 0.0
H359 H 0.92322 0.57514 0.89132 0.0
H360 H 0.70896 0.4438 0.85383 0.0
H361 H 0.71644 0.40333 0.88942 0.0
H362 H 0.79381 0.42569 0.91019 0.0
H363 H 0.86426 0.48868 0.8954 0.0
C364 C 0.91538 0.55731 0.87012 0.0
C365 C 0.86921 0.54211 0.85617 0.0
C366 C 0.82847 0.5055 0.86524 0.0
C367 C 0.78389 0.49293 0.85351 0.0
C368 C 0.74372 0.45552 0.8625 0.0
C369 C 0.7475 0.43176 0.88279 0.0
C370 C 0.79107 0.44435 0.89447 0.0
C371 C 0.83122 0.48068 0.88584 0.0
H372 H 0.22896 0.74433 0.14031 0.0
C373 C 0.197 0.73914 0.1484 0.0
H374 H 0.16399 0.771 0.17005 0.0
H375 H 0.3478 0.92949 0.24276 0.0
H376 H 0.29464 0.89254 0.27667 0.0
H377 H 0.21603 0.82286 0.2624 0.0
H378 H 0.18995 0.79026 0.21428 0.0
C379 C 0.19598 0.77636 0.16198 0.0
C380 C 0.24001 0.823 0.17015 0.0
C381 C 0.25452 0.8415 0.19854 0.0
C382 C 0.30027 0.88077 0.20682 0.0
C383 C 0.31384 0.89894 0.2353 0.0
C384 C 0.28359 0.87821 0.25502 0.0
C385 C 0.23933 0.83906 0.24699 0.0
C386 C 0.2248 0.82072 0.21916 0.0
H387 H 0.38709 0.99265 0.17865 0.0
C388 C 0.40357 0.98098 0.19228 0.0
H389 H 0.39887 0.92439 0.20983 0.0
H390 H 0.21866 0.80508 0.11436 0.0
H391 H 0.27233 0.84086 0.08022 0.0
H392 H 0.35456 0.90259 0.0945 0.0
H393 H 0.38321 0.92993 0.1428 0.0
C394 C 0.38154 0.9356 0.19645 0.0
C395 C 0.33181 0.90066 0.18683 0.0
C396 C 0.31647 0.88394 0.15838 0.0
C397 C 0.26989 0.84621 0.15008 0.0
C398 C 0.25438 0.83195 0.12164 0.0
C399 C 0.2847 0.85243 0.10189 0.0
C400 C 0.33093 0.88732 0.10994 0.0
C401 C 0.34687 0.90296 0.13781 0.0
H402 H 0.45442 0.18694 0.49945 0.0
C403 C 0.48351 0.18885 0.48905 0.0
H404 H 0.54776 0.23241 0.47392 0.0
H405 H 0.53426 0.409 0.46009 0.0
H406 H 0.54163 0.38151 0.41336 0.0
H407 H 0.53685 0.30458 0.40132 0.0
H408 H 0.52537 0.25502 0.43597 0.0
C409 C 0.51817 0.23062 0.48369 0.0
C410 C 0.51812 0.27551 0.49091 0.0
C411 C 0.52332 0.30329 0.47013 0.0
C412 C 0.52494 0.3471 0.4769 0.0
C413 C 0.53207 0.37509 0.45601 0.0
C414 C 0.53638 0.35974 0.42908 0.0
C415 C 0.53374 0.31646 0.42231 0.0
C416 C 0.52726 0.2884 0.44247 0.0
H417 H 0.58067 0.43229 0.54308 0.0
C418 C 0.55925 0.44202 0.53211 0.0
H419 H 0.50405 0.41907 0.50141 0.0
H420 H 0.51877 0.23764 0.53759 0.0
H421 H 0.50342 0.26092 0.58302 0.0
H422 H 0.49049 0.32802 0.59233 0.0
H423 H 0.49536 0.37354 0.55646 0.0
C424 C 0.52656 0.41027 0.512 0.0
C425 C 0.51997 0.36227 0.50424 0.0
C426 C 0.51156 0.33288 0.52457 0.0
C427 C 0.51386 0.29121 0.51841 0.0
C428 C 0.51283 0.2669 0.5403 0.0
C429 C 0.50473 0.28034 0.56668 0.0
C430 C 0.4978 0.31829 0.57197 0.0
C431 C 0.50118 0.34441 0.55125 0.0
H432 H 0.33054 0.50068 0.81811 0.0
C433 C 0.35517 0.52934 0.83401 0.0
H434 H 0.36971 0.59014 0.86202 0.0
H435 H 0.2385 0.64017 0.80446 0.0
H436 H 0.31149 0.69414 0.78721 0.0
H437 H 0.38008 0.68607 0.79313 0.0
H438 H 0.37624 0.62429 0.81649 0.0
C439 C 0.34431 0.55999 0.84712 0.0
C440 C 0.30087 0.55883 0.83932 0.0
C441 C 0.30364 0.59484 0.82543 0.0
C442 C 0.26424 0.5996 0.8221 0.0
C443 C 0.26781 0.63574 0.80805 0.0
C444 C 0.30934 0.66667 0.79787 0.0
C445 C 0.34795 0.6621 0.80118 0.0
C446 C 0.34533 0.62665 0.81475 0.0
H447 H 0.22721 0.64556 0.86171 0.0
C448 C 0.19217 0.61976 0.85226 0.0
H449 H 0.14957 0.55225 0.82554 0.0
H450 H 0.28286 0.4831 0.86448 0.0
H451 H 0.20905 0.42706 0.87981 0.0
H452 H 0.14032 0.4348 0.87368 0.0
H453 H 0.145 0.49863 0.85226 0.0
C454 C 0.18443 0.57916 0.83472 0.0
C455 C 0.22232 0.5685 0.83287 0.0
C456 C 0.21838 0.52995 0.84462 0.0
C457 C 0.25791 0.5253 0.84803 0.0
C458 C 0.25378 0.48792 0.86105 0.0
C459 C 0.21164 0.45557 0.87002 0.0
C460 C 0.17294 0.45994 0.86657 0.0
C461 C 0.17612 0.49676 0.8542 0.0
H462 H 0.84575 0.3763 0.16998 0.0
C463 C 0.83768 0.40085 0.18178 0.0
H464 H 0.78737 0.40837 0.2034 0.0
H465 H 0.6614 0.19787 0.12386 0.0
H466 H 0.68452 0.2413 0.08534 0.0
H467 H 0.74058 0.3277 0.09293 0.0
H468 H 0.77479 0.3708 0.13887 0.0
C469 C 0.79597 0.3843 0.19156 0.0
C470 C 0.76026 0.33286 0.18679 0.0
C471 C 0.73884 0.30885 0.15984 0.0
C472 C 0.70437 0.25968 0.15561 0.0
C473 C 0.68596 0.23571 0.12834 0.0
C474 C 0.6992 0.26014 0.10603 0.0
C475 C 0.73091 0.30872 0.11029 0.0
C476 C 0.75057 0.33299 0.13681 0.0
H477 H 0.60003 0.19853 0.15512 0.0
C478 C 0.60461 0.17386 0.16531 0.0
H479 H 0.65432 0.16018 0.18395 0.0
H480 H 0.79649 0.36786 0.24064 0.0
H481 H 0.77116 0.32526 0.27937 0.0
H482 H 0.70705 0.24157 0.27263 0.0
H483 H 0.66848 0.19981 0.22724 0.0
C484 C 0.64947 0.18568 0.17487 0.0
C485 C 0.68914 0.23552 0.17851 0.0
C486 C 0.71065 0.25956 0.20546 0.0
C487 C 0.74666 0.30816 0.20951 0.0
C488 C 0.76834 0.33115 0.23648 0.0
C489 C 0.75421 0.30712 0.2589 0.0
C490 C 0.7182 0.25999 0.2551 0.0
C491 C 0.69646 0.23635 0.2288 0.0
H492 H 0.96913 0.54725 0.0742 0.0
C493 C 0.0005 0.5647 0.08848 0.0
H494 H 0.07414 0.60642 0.09245 0.0
H495 H -0.0027 0.49973 0.96089 0.0
H496 H 0.9806 0.42819 0.97823 0.0
H497 H -0.00529 0.42961 0.02783 0.0
H498 H 0.02496 0.50267 0.06043 0.0
C499 C 0.04222 0.5872 0.07865 0.0
C500 C 0.04462 0.58884 0.04863 0.0
C501 C 0.02914 0.54648 0.02971 0.0
C502 C 0.02287 0.54616 0.00102 0.0
C503 C 0.00443 0.50258 0.98279 0.0
C504 C -0.00561 0.46109 0.99249 0.0
C505 C 0.00218 0.46185 0.02042 0.0
C506 C 0.01928 0.50392 0.03891 0.0
H507 H 0.08011 0.57908 0.9501 0.0
C508 C 0.05117 0.58223 0.94288 0.0
H509 H -0.00174 0.59533 0.95551 0.0
H510 H 0.07999 0.67696 0.0793 0.0
H511 H 0.10091 0.74978 0.06189 0.0
H512 H 0.0919 0.74982 0.01201 0.0
H513 H 0.06181 0.67703 0.97921 0.0
C514 C 0.02512 0.58833 0.96151 0.0
C515 C 0.03399 0.58877 0.99128 0.0
C516 C 0.05217 0.63171 0.01011 0.0
C517 C 0.05764 0.63177 0.03884 0.0
C518 C 0.07519 0.67498 0.05725 0.0
C519 C 0.08739 0.71702 0.04754 0.0
C520 C 0.08231 0.71704 0.01945 0.0
C521 C 0.06492 0.67501 0.00085 0.0
H522 H 0.46022 0.03969 0.42042 0.0
C523 C 0.4829 0.02726 0.4264 0.0
H524 H 0.53391 0.01112 0.41458 0.0
H525 H 0.464 0.95638 0.2884 0.0
H526 H 0.44926 0.88159 0.30008 0.0
H527 H 0.46108 0.87372 0.34828 0.0
H528 H 0.48766 0.9405 0.38502 0.0
C529 C 0.51148 0.02389 0.40872 0.0
C530 C 0.50821 0.03037 0.37964 0.0
C531 C 0.49329 0.99095 0.35838 0.0
C532 C 0.48644 0.99541 0.33063 0.0
C533 C 0.47031 0.95518 0.30983 0.0
C534 C 0.46153 0.91192 0.31624 0.0
C535 C 0.46818 0.9075 0.34337 0.0
C536 C 0.48366 0.9463 0.36428 0.0
H537 H 0.55024 0.05557 0.28383 0.0
C538 C 0.5162 0.04909 0.27699 0.0
H539 H 0.45216 0.03921 0.28957 0.0
H540 H 0.54303 0.11461 0.41497 0.0
H541 H 0.5553 0.18864 0.40337 0.0
H542 H 0.54117 0.19562 0.35528 0.0
H543 H 0.51379 0.12809 0.31858 0.0
C544 C 0.48535 0.04296 0.29545 0.0
C545 C 0.49474 0.03928 0.32424 0.0
C546 C 0.51039 0.07891 0.34536 0.0
C547 C 0.51781 0.07468 0.3731 0.0
C548 C 0.53508 0.1153 0.39371 0.0
C549 C 0.54289 0.15823 0.38726 0.0
C550 C 0.53486 0.16211 0.36019 0.0
C551 C 0.51906 0.1231 0.33936 0.0
H552 H 0.58464 0.55218 0.7563 0.0
C553 C 0.54927 0.5364 0.7622 0.0
H554 H 0.4783 0.50559 0.74816 0.0
H555 H 0.60857 0.62338 0.6511 0.0
H556 H 0.62876 0.69475 0.68297 0.0
H557 H 0.59949 0.68977 0.72887 0.0
H558 H 0.55053 0.61325 0.74332 0.0
C559 C 0.5141 0.52304 0.74301 0.0
C560 C 0.5232 0.52615 0.71367 0.0
C561 C 0.55015 0.57099 0.70512 0.0
C562 C 0.56535 0.57374 0.67824 0.0
C563 C 0.5946 0.61909 0.67087 0.0
C564 C 0.60669 0.66038 0.68905 0.0
C565 C 0.59035 0.6576 0.71492 0.0
C566 C 0.56251 0.61351 0.72301 0.0
H567 H 0.5347 0.56495 0.61703 0.0
C568 C 0.55446 0.54779 0.61192 0.0
H569 H 0.58926 0.51632 0.62729 0.0
H570 H 0.46789 0.43453 0.72279 0.0
H571 H 0.44276 0.36295 0.68991 0.0
H572 H 0.46638 0.3675 0.64265 0.0
H573 H 0.5155 0.44356 0.62806 0.0
C574 C 0.56903 0.53303 0.63193 0.0
C575 C 0.55184 0.53146 0.65965 0.0
C576 C 0.52228 0.48659 0.66765 0.0
C577 C 0.50804 0.48394 0.69472 0.0
C578 C 0.47946 0.43866 0.70239 0.0
C579 C 0.46474 0.39723 0.68372 0.0
C580 C 0.47807 0.39979 0.65713 0.0
C581 C 0.50646 0.44378 0.64907 0.0
H582 H 0.50967 0.98823 0.57913 0.0
C583 C 0.50635 0.01758 0.57445 0.0
H584 H 0.50211 0.07707 0.59109 0.0
H585 H 0.4487 0.94105 0.68985 0.0
H586 H 0.38127 0.88199 0.65854 0.0
H587 H 0.37013 0.89581 0.61168 0.0
H588 H 0.42646 0.96823 0.59573 0.0
C589 C 0.50493 0.0472 0.59518 0.0
C590 C 0.50867 0.04054 0.62426 0.0
C591 C 0.47428 0.99853 0.63351 0.0
C592 C 0.4797 0.99126 0.66084 0.0
C593 C 0.44573 0.94858 0.6694 0.0
C594 C 0.40692 0.91441 0.65166 0.0
C595 C 0.40073 0.92213 0.62526 0.0
C596 C 0.43369 0.96372 0.61624 0.0
H597 H 0.48784 0.06016 0.71909 0.0
C598 C 0.5028 0.04091 0.72668 0.0
H599 H 0.53765 0.00393 0.71501 0.0
H600 H 0.58055 0.12517 0.61331 0.0
H601 H 0.64641 0.18492 0.6453 0.0
H602 H 0.65445 0.17296 0.69308 0.0
H603 H 0.59674 0.10097 0.70913 0.0
C604 C 0.52049 0.02182 0.70861 0.0
C605 C 0.51818 0.0268 0.67918 0.0
C606 C 0.55222 0.06894 0.67012 0.0
C607 C 0.54746 0.07586 0.64261 0.0
C608 C 0.5822 0.11817 0.63404 0.0
C609 C 0.62024 0.15275 0.65218 0.0
C610 C 0.62477 0.14603 0.67909 0.0
C611 C 0.59132 0.10464 0.68806 0.0
H612 H 0.54979 0.53503 0.92593 0.0
C613 C 0.52379 0.53691 0.91358 0.0
H614 H 0.46296 0.54114 0.91421 0.0
H615 H 0.42881 0.45193 0.02602 0.0
H616 H 0.371 0.38363 0.99392 0.0
H617 H 0.36595 0.38711 0.94428 0.0
H618 H 0.41914 0.45895 0.92643 0.0
C619 C 0.49063 0.54125 0.92606 0.0
C620 C 0.48909 0.54196 0.95626 0.0
C621 C 0.4566 0.50042 0.96648 0.0
C622 C 0.45875 0.49887 0.99519 0.0
C623 C 0.42772 0.45583 0.00459 0.0
C624 C 0.39456 0.41613 0.98633 0.0
C625 C 0.39178 0.41805 0.95838 0.0
C626 C 0.4225 0.45951 0.94842 0.0
H627 H 0.43063 0.53168 0.04859 0.0
C628 C 0.4612 0.53489 0.059 0.0
H629 H 0.52808 0.54526 0.05331 0.0
H630 H 0.55347 0.62839 0.94343 0.0
H631 H 0.61038 0.69769 0.9755 0.0
H632 H 0.61367 0.69566 0.02541 0.0
H633 H 0.56019 0.62441 0.04356 0.0
C634 C 0.49548 0.53856 0.04377 0.0
C635 C 0.49245 0.53959 0.01369 0.0
C636 C 0.52407 0.58162 0.00347 0.0
C637 C 0.5223 0.58282 0.97472 0.0
C638 C 0.55386 0.62536 0.96506 0.0
C639 C 0.58652 0.66547 0.98325 0.0
C640 C 0.58835 0.66433 0.01135 0.0
C641 C 0.5575 0.62308 0.02147 0.0
H642 H 0.96475 0.54966 0.23183 0.0
C643 C 0.00219 0.56523 0.23192 0.0
H644 H 0.06498 0.58617 0.2551 0.0
H645 H 0.00623 0.61359 0.37248 0.0
H646 H 0.05378 0.69566 0.36579 0.0
H647 H 0.07989 0.71543 0.3202 0.0
H648 H 0.05848 0.65324 0.28105 0.0
C649 C 0.02743 0.56983 0.2548 0.0
C650 C 0.0066 0.55733 0.28111 0.0
C651 C 0.01933 0.59413 0.30371 0.0
C652 C 0.00474 0.58278 0.33001 0.0
C653 C 0.01739 0.62025 0.35219 0.0
C654 C 0.04438 0.66752 0.34859 0.0
C655 C 0.05904 0.67864 0.32292 0.0
C656 C 0.04666 0.64256 0.30065 0.0
H657 H 0.04236 0.54606 0.36976 0.0
C658 C 0.00918 0.53295 0.37855 0.0
H659 H 0.9385 0.51224 0.37028 0.0
H660 H 0.97351 0.47777 0.24177 0.0
H661 H 0.92306 0.39612 0.24836 0.0
H662 H 0.89711 0.3769 0.29405 0.0
H663 H 0.9217 0.43957 0.33356 0.0
C664 C 0.97187 0.52317 0.36224 0.0
C665 C 0.97834 0.53461 0.3338 0.0
C666 C 0.96267 0.49791 0.31087 0.0
C667 C 0.97711 0.50917 0.28444 0.0
C668 C 0.96278 0.47153 0.26215 0.0
C669 C 0.93399 0.42441 0.26569 0.0
C670 C 0.91943 0.41357 0.29143 0.0
C671 C 0.93377 0.44976 0.3139 0.0
loop_
_geom_bond_atom_site_label_1
_geom_bond_atom_site_label_2
_geom_bond_distance
_geom_bond_site_symmetry_2
_ccdc_geom_bond_type
Zn0 O6 1.969 . S
Zn0 O7 1.965 . S
Zn0 O11 2.024 . S
Zn0 O16 1.969 . S
Zn1 O8 1.969 . S
Zn1 O14 1.969 . S
Zn1 O15 1.965 1_655 S
Zn1 O17 2.024 . S
C2 O3 1.229 . S
C2 O11 1.058 . S
O3 C2 1.229 . S
C4 O5 1.229 . S
C4 O17 1.058 . S
O5 C4 1.229 . S
O6 Zn0 1.969 . S
O6 C9 1.267 . S
O7 Zn0 1.965 . S
O7 C18 1.260 . S
O8 Zn1 1.969 . S
O8 C18 1.258 1_655 S
C9 O6 1.267 . S
C9 O10 1.228 . S
O10 C9 1.228 . S
O11 Zn0 2.024 . S
O11 C2 1.058 . S
C12 O13 1.228 . S
C12 O14 1.267 . S
O13 C12 1.228 . S
O14 Zn1 1.969 . S
O14 C12 1.267 . S
O15 Zn1 1.965 1_455 S
O15 C19 1.260 . S
O16 Zn0 1.969 . S
O16 C19 1.258 . S
O17 Zn1 2.024 . S
O17 C4 1.058 . S
C18 O7 1.260 . S
C18 O8 1.258 1_455 S
C19 O15 1.260 . S
C19 O16 1.258 . S
Zn20 O26 1.969 . S
Zn20 O27 1.965 . S
Zn20 O31 2.024 . S
Zn20 O36 1.969 . S
Zn21 O28 1.969 . S
Zn21 O34 1.969 . S
Zn21 O35 1.965 1_565 S
Zn21 O37 2.024 . S
C22 O23 1.229 . S
C22 O31 1.058 . S
O23 C22 1.229 . S
C24 O25 1.229 . S
C24 O37 1.058 . S
O25 C24 1.229 . S
O26 Zn20 1.969 . S
O26 C29 1.267 . S
O27 Zn20 1.965 . S
O27 C38 1.260 . S
O28 Zn21 1.969 . S
O28 C38 1.258 1_565 S
C29 O26 1.267 . S
C29 O30 1.228 . S
O30 C29 1.228 . S
O31 Zn20 2.024 . S
O31 C22 1.058 . S
C32 O33 1.228 . S
C32 O34 1.267 . S
O33 C32 1.228 . S
O34 Zn21 1.969 . S
O34 C32 1.267 . S
O35 Zn21 1.965 1_545 S
O35 C39 1.260 . S
O36 Zn20 1.969 . S
O36 C39 1.258 . S
O37 Zn21 2.024 . S
O37 C24 1.058 . S
C38 O27 1.260 . S
C38 O28 1.258 1_545 S
C39 O35 1.260 . S
C39 O36 1.258 . S
Zn40 O46 1.969 . S
Zn40 O47 1.965 . S
Zn40 O51 2.024 . S
Zn40 O56 1.969 . S
Zn41 O48 1.969 . S
Zn41 O54 1.969 . S
Zn41 O55 1.965 . S
Zn41 O57 2.024 . S
C42 O43 1.229 . S
C42 O51 1.058 . S
O43 C42 1.229 . S
C44 O45 1.229 . S
C44 O57 1.058 . S
O45 C44 1.229 . S
O46 Zn40 1.969 . S
O46 C49 1.267 . S
O47 Zn40 1.965 . S
O47 C58 1.260 . S
O48 Zn41 1.969 . S
O48 C58 1.258 . S
C49 O46 1.267 . S
C49 O50 1.228 . S
O50 C49 1.228 . S
O51 Zn40 2.024 . S
O51 C42 1.058 . S
C52 O53 1.228 . S
C52 O54 1.267 . S
O53 C52 1.228 . S
O54 Zn41 1.969 . S
O54 C52 1.267 . S
O55 Zn41 1.965 . S
O55 C59 1.260 . S
O56 Zn40 1.969 . S
O56 C59 1.258 . S
O57 Zn41 2.024 . S
O57 C44 1.058 . S
C58 O47 1.260 . S
C58 O48 1.258 . S
C59 O55 1.260 . S
C59 O56 1.258 . S
H60 C65 0.930 . S
H61 C68 0.930 . S
H62 C70 0.930 1_565 S
H63 C64 1.016 . S
C64 H63 1.016 . S
C64 N71 1.286 . S
C65 H60 0.930 . S
C65 C66 1.397 . S
C65 C67 1.361 . S
C66 C65 1.397 . S
C66 C70 1.390 . S
C67 C65 1.361 . S
C67 C68 1.393 . S
C67 N71 1.413 . S
C68 H61 0.930 . S
C68 C67 1.393 . S
C68 C69 1.399 . S
C69 C68 1.399 . S
C69 C70 1.381 . S
C70 H62 0.930 1_545 S
C70 C66 1.390 . S
C70 C69 1.381 . S
N71 C64 1.286 . S
N71 C67 1.413 . S
H72 C77 0.930 . S
H73 C80 0.930 . S
H74 C82 0.930 . S
H75 C76 1.016 . S
C76 H75 1.016 . S
C76 N83 1.286 . S
C77 H72 0.930 . S
C77 C78 1.397 . S
C77 C79 1.361 . S
C78 C77 1.397 . S
C78 C82 1.390 . S
C79 C77 1.361 . S
C79 C80 1.393 . S
C79 N83 1.413 . S
C80 H73 0.930 . S
C80 C79 1.393 . S
C80 C81 1.399 . S
C81 C80 1.399 . S
C81 C82 1.381 . S
C82 H74 0.930 . S
C82 C78 1.390 . S
C82 C81 1.381 . S
N83 C76 1.286 . S
N83 C79 1.413 . S
H84 C89 0.930 1_655 S
H85 C92 0.930 . S
H86 C94 0.930 . S
H87 C88 1.016 . S
C88 H87 1.016 . S
C88 N95 1.286 . S
C89 H84 0.930 1_455 S
C89 C90 1.397 1_455 S
C89 C91 1.361 . S
C90 C89 1.397 1_655 S
C90 C94 1.390 . S
C91 C89 1.361 . S
C91 C92 1.393 . S
C91 N95 1.413 . S
C92 H85 0.930 . S
C92 C91 1.393 . S
C92 C93 1.399 . S
C93 C92 1.399 . S
C93 C94 1.381 1_455 S
C94 H86 0.930 . S
C94 C90 1.390 . S
C94 C93 1.381 1_655 S
N95 C88 1.286 . S
N95 C91 1.413 . S
H96 C101 0.930 . S
H97 C104 0.930 . S
H98 C106 0.930 . S
H99 C100 1.016 . S
C100 H99 1.016 . S
C100 N107 1.286 . S
C101 H96 0.930 . S
C101 C102 1.397 . S
C101 C103 1.361 . S
C102 C101 1.397 . S
C102 C106 1.390 . S
C103 C101 1.361 . S
C103 C104 1.393 1_455 S
C103 N107 1.413 1_455 S
C104 H97 0.930 . S
C104 C103 1.393 1_655 S
C104 C105 1.399 1_655 S
C105 C104 1.399 1_455 S
C105 C106 1.381 . S
C106 H98 0.930 . S
C106 C102 1.390 . S
C106 C105 1.381 . S
N107 C100 1.286 . S
N107 C103 1.413 1_655 S
H108 C113 0.930 . S
H109 C116 0.930 1_565 S
H110 C118 0.930 . S
H111 C112 1.016 . S
C112 H111 1.016 . S
C112 N119 1.286 . S
C113 H108 0.930 . S
C113 C114 1.397 . S
C113 C115 1.361 . S
C114 C113 1.397 . S
C114 C118 1.390 . S
C115 C113 1.361 . S
C115 C116 1.393 . S
C115 N119 1.413 1_545 S
C116 H109 0.930 1_545 S
C116 C115 1.393 . S
C116 C117 1.399 . S
C117 C116 1.399 . S
C117 C118 1.381 . S
C118 H110 0.930 . S
C118 C114 1.390 . S
C118 C117 1.381 . S
N119 C112 1.286 . S
N119 C115 1.413 1_565 S
H120 C125 0.930 . S
H121 C128 0.930 . S
H122 C130 0.930 . S
H123 C124 1.016 . S
C124 H123 1.016 . S
C124 N131 1.286 . S
C125 H120 0.930 . S
C125 C126 1.397 . S
C125 C127 1.361 . S
C126 C125 1.397 . S
C126 C130 1.390 . S
C127 C125 1.361 . S
C127 C128 1.393 . S
C127 N131 1.413 . S
C128 H121 0.930 . S
C128 C127 1.393 . S
C128 C129 1.399 . S
C129 C128 1.399 . S
C129 C130 1.381 . S
C130 H122 0.930 . S
C130 C126 1.390 . S
C130 C129 1.381 . S
N131 C124 1.286 . S
N131 C127 1.413 . S
H132 C133 0.951 . S
C133 H132 0.951 . S
C133 C139 1.265 . S
H134 C139 0.950 . S
H135 C143 0.949 . S
H136 C144 0.950 . S
H137 C145 0.951 . S
H138 C146 0.951 . S
C139 C133 1.265 . S
C139 H134 0.950 . S
C139 C140 1.478 . S
C140 C139 1.478 . S
C140 C141 1.397 . S
C140 C157 1.394 . S
C141 C140 1.397 . S
C141 C142 1.438 . S
C141 C146 1.429 . S
C142 C141 1.438 . S
C142 C143 1.428 . S
C142 C155 1.394 . S
C143 H135 0.949 . S
C143 C142 1.428 . S
C143 C144 1.345 . S
C144 H136 0.950 . S
C144 C143 1.345 . S
C144 C145 1.424 . S
C145 H137 0.951 . S
C145 C144 1.424 . S
C145 C146 1.347 . S
C146 H138 0.951 . S
C146 C141 1.429 . S
C146 C145 1.347 . S
H147 C148 0.951 . S
C148 H147 0.951 . S
C148 C154 1.265 . S
H149 C154 0.950 . S
H150 C158 0.949 . S
H151 C159 0.950 . S
H152 C160 0.951 . S
H153 C161 0.951 . S
C154 C148 1.265 . S
C154 H149 0.950 . S
C154 C155 1.478 . S
C155 C142 1.394 . S
C155 C154 1.478 . S
C155 C156 1.397 . S
C156 C155 1.397 . S
C156 C157 1.438 . S
C156 C161 1.429 . S
C157 C140 1.394 . S
C157 C156 1.438 . S
C157 C158 1.428 . S
C158 H150 0.949 . S
C158 C157 1.428 . S
C158 C159 1.345 . S
C159 H151 0.950 . S
C159 C158 1.345 . S
C159 C160 1.424 . S
C160 H152 0.951 . S
C160 C159 1.424 . S
C160 C161 1.347 . S
C161 H153 0.951 . S
C161 C156 1.429 . S
C161 C160 1.347 . S
H162 C163 0.951 . S
C163 H162 0.951 . S
C163 C169 1.265 . S
H164 C169 0.950 . S
H165 C173 0.949 . S
H166 C174 0.950 . S
H167 C175 0.951 . S
H168 C176 0.951 . S
C169 C163 1.265 . S
C169 H164 0.950 . S
C169 C170 1.478 . S
C170 C169 1.478 . S
C170 C171 1.397 . S
C170 C187 1.394 . S
C171 C170 1.397 . S
C171 C172 1.438 . S
C171 C176 1.429 . S
C172 C171 1.438 . S
C172 C173 1.428 . S
C172 C185 1.394 . S
C173 H165 0.949 . S
C173 C172 1.428 . S
C173 C174 1.345 . S
C174 H166 0.950 . S
C174 C173 1.345 . S
C174 C175 1.424 . S
C175 H167 0.951 . S
C175 C174 1.424 . S
C175 C176 1.347 . S
C176 H168 0.951 . S
C176 C171 1.429 . S
C176 C175 1.347 . S
H177 C178 0.951 . S
C178 H177 0.951 . S
C178 C184 1.265 . S
H179 C184 0.950 . S
H180 C188 0.949 . S
H181 C189 0.950 . S
H182 C190 0.951 . S
H183 C191 0.951 . S
C184 C178 1.265 . S
C184 H179 0.950 . S
C184 C185 1.478 . S
C185 C172 1.394 . S
C185 C184 1.478 . S
C185 C186 1.397 . S
C186 C185 1.397 . S
C186 C187 1.438 . S
C186 C191 1.429 . S
C187 C170 1.394 . S
C187 C186 1.438 . S
C187 C188 1.428 . S
C188 H180 0.949 . S
C188 C187 1.428 . S
C188 C189 1.345 . S
C189 H181 0.950 . S
C189 C188 1.345 . S
C189 C190 1.424 . S
C190 H182 0.951 . S
C190 C189 1.424 . S
C190 C191 1.347 . S
C191 H183 0.951 . S
C191 C186 1.429 . S
C191 C190 1.347 . S
H192 C193 0.951 . S
C193 H192 0.951 . S
C193 C199 1.265 . S
H194 C199 0.950 . S
H195 C203 0.949 . S
H196 C204 0.950 . S
H197 C205 0.951 . S
H198 C206 0.951 . S
C199 C193 1.265 . S
C199 H194 0.950 . S
C199 C200 1.478 . S
C200 C199 1.478 . S
C200 C201 1.397 . S
C200 C217 1.394 . S
C201 C200 1.397 . S
C201 C202 1.438 . S
C201 C206 1.429 . S
C202 C201 1.438 . S
C202 C203 1.428 . S
C202 C215 1.394 . S
C203 H195 0.949 . S
C203 C202 1.428 . S
C203 C204 1.345 . S
C204 H196 0.950 . S
C204 C203 1.345 . S
C204 C205 1.424 . S
C205 H197 0.951 . S
C205 C204 1.424 . S
C205 C206 1.347 . S
C206 H198 0.951 . S
C206 C201 1.429 . S
C206 C205 1.347 . S
H207 C208 0.951 . S
C208 H207 0.951 . S
C208 C214 1.265 . S
H209 C214 0.950 . S
H210 C218 0.949 . S
H211 C219 0.950 . S
H212 C220 0.951 . S
H213 C221 0.951 . S
C214 C208 1.265 . S
C214 H209 0.950 . S
C214 C215 1.478 . S
C215 C202 1.394 . S
C215 C214 1.478 . S
C215 C216 1.397 . S
C216 C215 1.397 . S
C216 C217 1.438 . S
C216 C221 1.429 . S
C217 C200 1.394 . S
C217 C216 1.438 . S
C217 C218 1.428 . S
C218 H210 0.949 . S
C218 C217 1.428 . S
C218 C219 1.345 . S
C219 H211 0.950 . S
C219 C218 1.345 . S
C219 C220 1.424 . S
C220 H212 0.951 . S
C220 C219 1.424 . S
C220 C221 1.347 . S
C221 H213 0.951 . S
C221 C216 1.429 . S
C221 C220 1.347 . S
H222 C223 0.951 . S
C223 H222 0.951 . S
C223 C229 1.265 . S
H224 C229 0.950 . S
H225 C233 0.949 . S
H226 C234 0.950 . S
H227 C235 0.951 . S
H228 C236 0.951 . S
C229 C223 1.265 . S
C229 H224 0.950 . S
C229 C230 1.478 . S
C230 C229 1.478 . S
C230 C231 1.397 . S
C230 C247 1.394 . S
C231 C230 1.397 . S
C231 C232 1.438 . S
C231 C236 1.429 . S
C232 C231 1.438 . S
C232 C233 1.428 . S
C232 C245 1.394 . S
C233 H225 0.949 . S
C233 C232 1.428 . S
C233 C234 1.345 . S
C234 H226 0.950 . S
C234 C233 1.345 . S
C234 C235 1.424 . S
C235 H227 0.951 . S
C235 C234 1.424 . S
C235 C236 1.347 . S
C236 H228 0.951 . S
C236 C231 1.429 . S
C236 C235 1.347 . S
H237 C238 0.951 . S
C238 H237 0.951 . S
C238 C244 1.265 . S
H239 C244 0.950 . S
H240 C248 0.949 . S
H241 C249 0.950 . S
H242 C250 0.951 . S
H243 C251 0.951 . S
C244 C238 1.265 . S
C244 H239 0.950 . S
C244 C245 1.478 . S
C245 C232 1.394 . S
C245 C244 1.478 . S
C245 C246 1.397 . S
C246 C245 1.397 . S
C246 C247 1.438 . S
C246 C251 1.429 . S
C247 C230 1.394 . S
C247 C246 1.438 . S
C247 C248 1.428 . S
C248 H240 0.949 . S
C248 C247 1.428 . S
C248 C249 1.345 . S
C249 H241 0.950 . S
C249 C248 1.345 . S
C249 C250 1.424 . S
C250 H242 0.951 . S
C250 C249 1.424 . S
C250 C251 1.347 . S
C251 H243 0.951 . S
C251 C246 1.429 . S
C251 C250 1.347 . S
H252 C253 0.951 . S
C253 H252 0.951 . S
C253 C259 1.265 . S
H254 C259 0.950 . S
H255 C263 0.949 . S
H256 C264 0.950 . S
H257 C265 0.951 . S
H258 C266 0.951 . S
C259 C253 1.265 . S
C259 H254 0.950 . S
C259 C260 1.478 . S
C260 C259 1.478 . S
C260 C261 1.397 . S
C260 C277 1.394 . S
C261 C260 1.397 . S
C261 C262 1.438 . S
C261 C266 1.429 . S
C262 C261 1.438 . S
C262 C263 1.428 . S
C262 C275 1.394 . S
C263 H255 0.949 . S
C263 C262 1.428 . S
C263 C264 1.345 . S
C264 H256 0.950 . S
C264 C263 1.345 . S
C264 C265 1.424 . S
C265 H257 0.951 . S
C265 C264 1.424 . S
C265 C266 1.347 . S
C266 H258 0.951 . S
C266 C261 1.429 . S
C266 C265 1.347 . S
H267 C268 0.951 . S
C268 H267 0.951 . S
C268 C274 1.265 . S
H269 C274 0.950 . S
H270 C278 0.949 . S
H271 C279 0.950 . S
H272 C280 0.951 . S
H273 C281 0.951 . S
C274 C268 1.265 . S
C274 H269 0.950 . S
C274 C275 1.478 . S
C275 C262 1.394 . S
C275 C274 1.478 . S
C275 C276 1.397 . S
C276 C275 1.397 . S
C276 C277 1.438 . S
C276 C281 1.429 . S
C277 C260 1.394 . S
C277 C276 1.438 . S
C277 C278 1.428 . S
C278 H270 0.949 . S
C278 C277 1.428 . S
C278 C279 1.345 . S
C279 H271 0.950 . S
C279 C278 1.345 . S
C279 C280 1.424 . S
C280 H272 0.951 . S
C280 C279 1.424 . S
C280 C281 1.347 . S
C281 H273 0.951 . S
C281 C276 1.429 . S
C281 C280 1.347 . S
H282 C283 0.951 . S
C283 H282 0.951 . S
C283 C289 1.265 . S
H284 C289 0.950 . S
H285 C293 0.949 . S
H286 C294 0.950 . S
H287 C295 0.951 . S
H288 C296 0.951 . S
C289 C283 1.265 . S
C289 H284 0.950 . S
C289 C290 1.478 . S
C290 C289 1.478 . S
C290 C291 1.397 . S
C290 C307 1.394 . S
C291 C290 1.397 . S
C291 C292 1.438 . S
C291 C296 1.429 . S
C292 C291 1.438 . S
C292 C293 1.428 . S
C292 C305 1.394 . S
C293 H285 0.949 . S
C293 C292 1.428 . S
C293 C294 1.345 . S
C294 H286 0.950 . S
C294 C293 1.345 . S
C294 C295 1.424 . S
C295 H287 0.951 . S
C295 C294 1.424 . S
C295 C296 1.347 . S
C296 H288 0.951 . S
C296 C291 1.429 . S
C296 C295 1.347 . S
H297 C298 0.951 . S
C298 H297 0.951 . S
C298 C304 1.265 . S
H299 C304 0.950 . S
H300 C308 0.949 . S
H301 C309 0.950 . S
H302 C310 0.951 . S
H303 C311 0.951 . S
C304 C298 1.265 . S
C304 H299 0.950 . S
C304 C305 1.478 . S
C305 C292 1.394 . S
C305 C304 1.478 . S
C305 C306 1.397 . S
C306 C305 1.397 . S
C306 C307 1.438 . S
C306 C311 1.429 . S
C307 C290 1.394 . S
C307 C306 1.438 . S
C307 C308 1.428 . S
C308 H300 0.949 . S
C308 C307 1.428 . S
C308 C309 1.345 . S
C309 H301 0.950 . S
C309 C308 1.345 . S
C309 C310 1.424 . S
C310 H302 0.951 . S
C310 C309 1.424 . S
C310 C311 1.347 . S
C311 H303 0.951 . S
C311 C306 1.429 . S
C311 C310 1.347 . S
H312 C313 0.951 . S
C313 H312 0.951 . S
C313 C319 1.265 . S
H314 C319 0.950 . S
H315 C323 0.949 . S
H316 C324 0.950 . S
H317 C325 0.951 . S
H318 C326 0.951 . S
C319 C313 1.265 . S
C319 H314 0.950 . S
C319 C320 1.478 . S
C320 C319 1.478 . S
C320 C321 1.397 . S
C320 C337 1.394 . S
C321 C320 1.397 . S
C321 C322 1.438 . S
C321 C326 1.429 . S
C322 C321 1.438 . S
C322 C323 1.428 . S
C322 C335 1.394 . S
C323 H315 0.949 . S
C323 C322 1.428 . S
C323 C324 1.345 . S
C324 H316 0.950 . S
C324 C323 1.345 . S
C324 C325 1.424 . S
C325 H317 0.951 . S
C325 C324 1.424 . S
C325 C326 1.347 . S
C326 H318 0.951 . S
C326 C321 1.429 . S
C326 C325 1.347 . S
H327 C328 0.951 . S
C328 H327 0.951 . S
C328 C334 1.265 . S
H329 C334 0.950 . S
H330 C338 0.949 . S
H331 C339 0.950 . S
H332 C340 0.951 . S
H333 C341 0.951 . S
C334 C328 1.265 . S
C334 H329 0.950 . S
C334 C335 1.478 . S
C335 C322 1.394 . S
C335 C334 1.478 . S
C335 C336 1.397 . S
C336 C335 1.397 . S
C336 C337 1.438 . S
C336 C341 1.429 . S
C337 C320 1.394 . S
C337 C336 1.438 . S
C337 C338 1.428 . S
C338 H330 0.949 . S
C338 C337 1.428 . S
C338 C339 1.345 . S
C339 H331 0.950 . S
C339 C338 1.345 . S
C339 C340 1.424 . S
C340 H332 0.951 . S
C340 C339 1.424 . S
C340 C341 1.347 . S
C341 H333 0.951 . S
C341 C336 1.429 . S
C341 C340 1.347 . S
H342 C343 0.951 . S
C343 H342 0.951 . S
C343 C349 1.265 . S
H344 C349 0.950 . S
H345 C353 0.949 . S
H346 C354 0.950 . S
H347 C355 0.951 . S
H348 C356 0.951 . S
C349 C343 1.265 . S
C349 H344 0.950 . S
C349 C350 1.478 . S
C350 C349 1.478 . S
C350 C351 1.397 . S
C350 C367 1.394 . S
C351 C350 1.397 . S
C351 C352 1.438 . S
C351 C356 1.429 . S
C352 C351 1.438 . S
C352 C353 1.428 . S
C352 C365 1.394 . S
C353 H345 0.949 . S
C353 C352 1.428 . S
C353 C354 1.345 . S
C354 H346 0.950 . S
C354 C353 1.345 . S
C354 C355 1.424 . S
C355 H347 0.951 . S
C355 C354 1.424 . S
C355 C356 1.347 . S
C356 H348 0.951 . S
C356 C351 1.429 . S
C356 C355 1.347 . S
H357 C358 0.951 . S
C358 H357 0.951 . S
C358 C364 1.265 . S
H359 C364 0.950 . S
H360 C368 0.949 . S
H361 C369 0.950 . S
H362 C370 0.951 . S
H363 C371 0.951 . S
C364 C358 1.265 . S
C364 H359 0.950 . S
C364 C365 1.478 . S
C365 C352 1.394 . S
C365 C364 1.478 . S
C365 C366 1.397 . S
C366 C365 1.397 . S
C366 C367 1.438 . S
C366 C371 1.429 . S
C367 C350 1.394 . S
C367 C366 1.438 . S
C367 C368 1.428 . S
C368 H360 0.949 . S
C368 C367 1.428 . S
C368 C369 1.345 . S
C369 H361 0.950 . S
C369 C368 1.345 . S
C369 C370 1.424 . S
C370 H362 0.951 . S
C370 C369 1.424 . S
C370 C371 1.347 . S
C371 H363 0.951 . S
C371 C366 1.429 . S
C371 C370 1.347 . S
H372 C373 0.951 . S
C373 H372 0.951 . S
C373 C379 1.265 . S
H374 C379 0.950 . S
H375 C383 0.949 . S
H376 C384 0.950 . S
H377 C385 0.951 . S
H378 C386 0.951 . S
C379 C373 1.265 . S
C379 H374 0.950 . S
C379 C380 1.478 . S
C380 C379 1.478 . S
C380 C381 1.397 . S
C380 C397 1.394 . S
C381 C380 1.397 . S
C381 C382 1.438 . S
C381 C386 1.429 . S
C382 C381 1.438 . S
C382 C383 1.428 . S
C382 C395 1.394 . S
C383 H375 0.949 . S
C383 C382 1.428 . S
C383 C384 1.345 . S
C384 H376 0.950 . S
C384 C383 1.345 . S
C384 C385 1.424 . S
C385 H377 0.951 . S
C385 C384 1.424 . S
C385 C386 1.347 . S
C386 H378 0.951 . S
C386 C381 1.429 . S
C386 C385 1.347 . S
H387 C388 0.951 . S
C388 H387 0.951 . S
C388 C394 1.265 . S
H389 C394 0.950 . S
H390 C398 0.949 . S
H391 C399 0.950 . S
H392 C400 0.951 . S
H393 C401 0.951 . S
C394 C388 1.265 . S
C394 H389 0.950 . S
C394 C395 1.478 . S
C395 C382 1.394 . S
C395 C394 1.478 . S
C395 C396 1.397 . S
C396 C395 1.397 . S
C396 C397 1.438 . S
C396 C401 1.429 . S
C397 C380 1.394 . S
C397 C396 1.438 . S
C397 C398 1.428 . S
C398 H390 0.949 . S
C398 C397 1.428 . S
C398 C399 1.345 . S
C399 H391 0.950 . S
C399 C398 1.345 . S
C399 C400 1.424 . S
C400 H392 0.951 . S
C400 C399 1.424 . S
C400 C401 1.347 . S
C401 H393 0.951 . S
C401 C396 1.429 . S
C401 C400 1.347 . S
H402 C403 0.951 . S
C403 H402 0.951 . S
C403 C409 1.265 . S
H404 C409 0.950 . S
H405 C413 0.949 . S
H406 C414 0.950 . S
H407 C415 0.951 . S
H408 C416 0.951 . S
C409 C403 1.265 . S
C409 H404 0.950 . S
C409 C410 1.478 . S
C410 C409 1.478 . S
C410 C411 1.397 . S
C410 C427 1.394 . S
C411 C410 1.397 . S
C411 C412 1.438 . S
C411 C416 1.429 . S
C412 C411 1.438 . S
C412 C413 1.428 . S
C412 C425 1.394 . S
C413 H405 0.949 . S
C413 C412 1.428 . S
C413 C414 1.345 . S
C414 H406 0.950 . S
C414 C413 1.345 . S
C414 C415 1.424 . S
C415 H407 0.951 . S
C415 C414 1.424 . S
C415 C416 1.347 . S
C416 H408 0.951 . S
C416 C411 1.429 . S
C416 C415 1.347 . S
H417 C418 0.951 . S
C418 H417 0.951 . S
C418 C424 1.265 . S
H419 C424 0.950 . S
H420 C428 0.949 . S
H421 C429 0.950 . S
H422 C430 0.951 . S
H423 C431 0.951 . S
C424 C418 1.265 . S
C424 H419 0.950 . S
C424 C425 1.478 . S
C425 C412 1.394 . S
C425 C424 1.478 . S
C425 C426 1.397 . S
C426 C425 1.397 . S
C426 C427 1.438 . S
C426 C431 1.429 . S
C427 C410 1.394 . S
C427 C426 1.438 . S
C427 C428 1.428 . S
C428 H420 0.949 . S
C428 C427 1.428 . S
C428 C429 1.345 . S
C429 H421 0.950 . S
C429 C428 1.345 . S
C429 C430 1.424 . S
C430 H422 0.951 . S
C430 C429 1.424 . S
C430 C431 1.347 . S
C431 H423 0.951 . S
C431 C426 1.429 . S
C431 C430 1.347 . S
H432 C433 0.951 . S
C433 H432 0.951 . S
C433 C439 1.265 . S
H434 C439 0.950 . S
H435 C443 0.949 . S
H436 C444 0.950 . S
H437 C445 0.951 . S
H438 C446 0.951 . S
C439 C433 1.265 . S
C439 H434 0.950 . S
C439 C440 1.478 . S
C440 C439 1.478 . S
C440 C441 1.397 . S
C440 C457 1.394 . S
C441 C440 1.397 . S
C441 C442 1.438 . S
C441 C446 1.429 . S
C442 C441 1.438 . S
C442 C443 1.428 . S
C442 C455 1.394 . S
C443 H435 0.949 . S
C443 C442 1.428 . S
C443 C444 1.345 . S
C444 H436 0.950 . S
C444 C443 1.345 . S
C444 C445 1.424 . S
C445 H437 0.951 . S
C445 C444 1.424 . S
C445 C446 1.347 . S
C446 H438 0.951 . S
C446 C441 1.429 . S
C446 C445 1.347 . S
H447 C448 0.951 . S
C448 H447 0.951 . S
C448 C454 1.265 . S
H449 C454 0.950 . S
H450 C458 0.949 . S
H451 C459 0.950 . S
H452 C460 0.951 . S
H453 C461 0.951 . S
C454 C448 1.265 . S
C454 H449 0.950 . S
C454 C455 1.478 . S
C455 C442 1.394 . S
C455 C454 1.478 . S
C455 C456 1.397 . S
C456 C455 1.397 . S
C456 C457 1.438 . S
C456 C461 1.429 . S
C457 C440 1.394 . S
C457 C456 1.438 . S
C457 C458 1.428 . S
C458 H450 0.949 . S
C458 C457 1.428 . S
C458 C459 1.345 . S
C459 H451 0.950 . S
C459 C458 1.345 . S
C459 C460 1.424 . S
C460 H452 0.951 . S
C460 C459 1.424 . S
C460 C461 1.347 . S
C461 H453 0.951 . S
C461 C456 1.429 . S
C461 C460 1.347 . S
H462 C463 0.951 . S
C463 H462 0.951 . S
C463 C469 1.265 . S
H464 C469 0.950 . S
H465 C473 0.949 . S
H466 C474 0.950 . S
H467 C475 0.951 . S
H468 C476 0.951 . S
C469 C463 1.265 . S
C469 H464 0.950 . S
C469 C470 1.478 . S
C470 C469 1.478 . S
C470 C471 1.397 . S
C470 C487 1.394 . S
C471 C470 1.397 . S
C471 C472 1.438 . S
C471 C476 1.429 . S
C472 C471 1.438 . S
C472 C473 1.428 . S
C472 C485 1.394 . S
C473 H465 0.949 . S
C473 C472 1.428 . S
C473 C474 1.345 . S
C474 H466 0.950 . S
C474 C473 1.345 . S
C474 C475 1.424 . S
C475 H467 0.951 . S
C475 C474 1.424 . S
C475 C476 1.347 . S
C476 H468 0.951 . S
C476 C471 1.429 . S
C476 C475 1.347 . S
H477 C478 0.951 . S
C478 H477 0.951 . S
C478 C484 1.265 . S
H479 C484 0.950 . S
H480 C488 0.949 . S
H481 C489 0.950 . S
H482 C490 0.951 . S
H483 C491 0.951 . S
C484 C478 1.265 . S
C484 H479 0.950 . S
C484 C485 1.478 . S
C485 C472 1.394 . S
C485 C484 1.478 . S
C485 C486 1.397 . S
C486 C485 1.397 . S
C486 C487 1.438 . S
C486 C491 1.429 . S
C487 C470 1.394 . S
C487 C486 1.438 . S
C487 C488 1.428 . S
C488 H480 0.949 . S
C488 C487 1.428 . S
C488 C489 1.345 . S
C489 H481 0.950 . S
C489 C488 1.345 . S
C489 C490 1.424 . S
C490 H482 0.951 . S
C490 C489 1.424 . S
C490 C491 1.347 . S
C491 H483 0.951 . S
C491 C486 1.429 . S
C491 C490 1.347 . S
H492 C493 0.951 1_655 S
C493 H492 0.951 1_455 S
C493 C499 1.265 . S
H494 C499 0.950 . S
H495 C503 0.949 . S
H496 C504 0.950 . S
H497 C505 0.958 1_655 S
H498 C506 0.951 . S
C499 C493 1.265 . S
C499 H494 0.950 . S
C499 C500 1.478 . S
C500 C499 1.478 . S
C500 C501 1.397 . S
C500 C517 1.394 . S
C501 C500 1.397 . S
C501 C502 1.481 . S
C501 C506 1.429 . S
C502 C501 1.481 . S
C502 C503 1.407 1_454 S
C502 C515 1.376 1_554 S
C503 H495 0.949 . S
C503 C502 1.407 1_656 S
C503 C504 1.345 . S
C504 H496 0.950 . S
C504 C503 1.345 . S
C504 C505 1.424 1_656 S
C505 H497 0.958 1_455 S
C505 C504 1.424 1_454 S
C505 C506 1.347 . S
C506 H498 0.951 . S
C506 C501 1.429 . S
C506 C505 1.347 . S
H507 C508 0.951 . S
C508 H507 0.951 . S
C508 C514 1.265 . S
H509 C514 0.950 1_655 S
H510 C518 0.949 . S
H511 C519 0.950 . S
H512 C520 0.951 . S
H513 C521 0.951 1_556 S
C514 C508 1.265 . S
C514 H509 0.950 1_455 S
C514 C515 1.478 . S
C515 C502 1.376 1_556 S
C515 C514 1.478 . S
C515 C516 1.397 1_556 S
C516 C515 1.397 1_554 S
C516 C517 1.438 . S
C516 C521 1.429 . S
C517 C500 1.394 . S
C517 C516 1.438 . S
C517 C518 1.428 . S
C518 H510 0.949 . S
C518 C517 1.428 . S
C518 C519 1.345 . S
C519 H511 0.950 . S
C519 C518 1.345 . S
C519 C520 1.424 . S
C520 H512 0.951 . S
C520 C519 1.424 . S
C520 C521 1.347 . S
C521 H513 0.951 1_554 S
C521 C516 1.429 . S
C521 C520 1.347 . S
H522 C523 0.951 . S
C523 H522 0.951 . S
C523 C529 1.265 . S
H524 C529 0.950 . S
H525 C533 0.949 . S
H526 C534 0.950 . S
H527 C535 0.951 . S
H528 C536 0.951 . S
C529 C523 1.265 . S
C529 H524 0.950 . S
C529 C530 1.478 . S
C530 C529 1.478 . S
C530 C531 1.384 1_545 S
C530 C547 1.394 . S
C531 C530 1.384 1_565 S
C531 C532 1.432 1_565 S
C531 C536 1.447 . S
C532 C531 1.432 1_545 S
C532 C533 1.428 1_545 S
C532 C545 1.394 . S
C533 H525 0.949 . S
C533 C532 1.428 1_565 S
C533 C534 1.345 . S
C534 H526 0.950 . S
C534 C533 1.345 . S
C534 C535 1.424 . S
C535 H527 0.951 . S
C535 C534 1.424 . S
C535 C536 1.347 . S
C536 H528 0.951 . S
C536 C531 1.447 . S
C536 C535 1.347 . S
H537 C538 0.951 . S
C538 H537 0.951 . S
C538 C544 1.265 . S
H539 C544 0.950 . S
H540 C548 0.949 . S
H541 C549 0.950 . S
H542 C550 0.951 . S
H543 C551 0.951 . S
C544 C538 1.265 . S
C544 H539 0.950 . S
C544 C545 1.478 . S
C545 C532 1.394 . S
C545 C544 1.478 . S
C545 C546 1.397 . S
C546 C545 1.397 . S
C546 C547 1.438 . S
C546 C551 1.429 . S
C547 C530 1.394 . S
C547 C546 1.438 . S
C547 C548 1.428 . S
C548 H540 0.949 . S
C548 C547 1.428 . S
C548 C549 1.345 . S
C549 H541 0.950 . S
C549 C548 1.345 . S
C549 C550 1.424 . S
C550 H542 0.951 . S
C550 C549 1.424 . S
C550 C551 1.347 . S
C551 H543 0.951 . S
C551 C546 1.429 . S
C551 C550 1.347 . S
H552 C553 0.951 . S
C553 H552 0.951 . S
C553 C559 1.265 . S
H554 C559 0.950 . S
H555 C563 0.949 . S
H556 C564 0.950 . S
H557 C565 0.951 . S
H558 C566 0.951 . S
C559 C553 1.265 . S
C559 H554 0.950 . S
C559 C560 1.478 . S
C560 C559 1.478 . S
C560 C561 1.397 . S
C560 C577 1.394 . S
C561 C560 1.397 . S
C561 C562 1.438 . S
C561 C566 1.429 . S
C562 C561 1.438 . S
C562 C563 1.428 . S
C562 C575 1.394 . S
C563 H555 0.949 . S
C563 C562 1.428 . S
C563 C564 1.345 . S
C564 H556 0.950 . S
C564 C563 1.345 . S
C564 C565 1.424 . S
C565 H557 0.951 . S
C565 C564 1.424 . S
C565 C566 1.347 . S
C566 H558 0.951 . S
C566 C561 1.429 . S
C566 C565 1.347 . S
H567 C568 0.951 . S
C568 H567 0.951 . S
C568 C574 1.265 . S
H569 C574 0.950 . S
H570 C578 0.949 . S
H571 C579 0.950 . S
H572 C580 0.951 . S
H573 C581 0.951 . S
C574 C568 1.265 . S
C574 H569 0.950 . S
C574 C575 1.478 . S
C575 C562 1.394 . S
C575 C574 1.478 . S
C575 C576 1.397 . S
C576 C575 1.397 . S
C576 C577 1.438 . S
C576 C581 1.429 . S
C577 C560 1.394 . S
C577 C576 1.438 . S
C577 C578 1.428 . S
C578 H570 0.949 . S
C578 C577 1.428 . S
C578 C579 1.345 . S
C579 H571 0.950 . S
C579 C578 1.345 . S
C579 C580 1.424 . S
C580 H572 0.951 . S
C580 C579 1.424 . S
C580 C581 1.347 . S
C581 H573 0.951 . S
C581 C576 1.429 . S
C581 C580 1.347 . S
H582 C583 0.951 . S
C583 H582 0.951 . S
C583 C589 1.265 . S
H584 C589 0.950 . S
H585 C593 0.949 . S
H586 C594 0.950 . S
H587 C595 0.951 . S
H588 C596 0.951 . S
C589 C583 1.265 . S
C589 H584 0.950 . S
C589 C590 1.478 . S
C590 C589 1.478 . S
C590 C591 1.397 1_545 S
C590 C607 1.394 . S
C591 C590 1.397 1_565 S
C591 C592 1.438 . S
C591 C596 1.429 . S
C592 C591 1.438 . S
C592 C593 1.428 . S
C592 C605 1.394 1_565 S
C593 H585 0.949 . S
C593 C592 1.428 . S
C593 C594 1.345 . S
C594 H586 0.950 . S
C594 C593 1.345 . S
C594 C595 1.424 . S
C595 H587 0.951 . S
C595 C594 1.424 . S
C595 C596 1.347 . S
C596 H588 0.951 . S
C596 C591 1.429 . S
C596 C595 1.347 . S
H597 C598 0.951 . S
C598 H597 0.951 . S
C598 C604 1.265 . S
H599 C604 0.950 . S
H600 C608 0.949 . S
H601 C609 0.950 . S
H602 C610 0.951 . S
H603 C611 0.951 . S
C604 C598 1.265 . S
C604 H599 0.950 . S
C604 C605 1.478 . S
C605 C592 1.394 1_545 S
C605 C604 1.478 . S
C605 C606 1.397 . S
C606 C605 1.397 . S
C606 C607 1.438 . S
C606 C611 1.429 . S
C607 C590 1.394 . S
C607 C606 1.438 . S
C607 C608 1.428 . S
C608 H600 0.949 . S
C608 C607 1.428 . S
C608 C609 1.345 . S
C609 H601 0.950 . S
C609 C608 1.345 . S
C609 C610 1.424 . S
C610 H602 0.951 . S
C610 C609 1.424 . S
C610 C611 1.347 . S
C611 H603 0.951 . S
C611 C606 1.429 . S
C611 C610 1.347 . S
H612 C613 0.951 . S
C613 H612 0.951 . S
C613 C619 1.265 . S
H614 C619 0.950 . S
H615 C623 0.949 . S
H616 C624 0.950 1_554 S
H617 C625 0.951 . S
H618 C626 0.951 . S
C619 C613 1.265 . S
C619 H614 0.950 . S
C619 C620 1.478 . S
C620 C619 1.478 . S
C620 C621 1.397 . S
C620 C637 1.394 . S
C621 C620 1.397 . S
C621 C622 1.438 . S
C621 C626 1.429 . S
C622 C621 1.438 . S
C622 C623 1.428 1_556 S
C622 C635 1.394 1_556 S
C623 H615 0.949 . S
C623 C622 1.428 1_554 S
C623 C624 1.345 1_554 S
C624 H616 0.950 1_556 S
C624 C623 1.345 1_556 S
C624 C625 1.424 . S
C625 H617 0.951 . S
C625 C624 1.424 . S
C625 C626 1.347 . S
C626 H618 0.951 . S
C626 C621 1.429 . S
C626 C625 1.347 . S
H627 C628 0.951 . S
C628 H627 0.951 . S
C628 C634 1.265 . S
H629 C634 0.950 . S
H630 C638 0.949 . S
H631 C639 0.950 . S
H632 C640 0.951 1_554 S
H633 C641 0.951 . S
C634 C628 1.265 . S
C634 H629 0.950 . S
C634 C635 1.478 . S
C635 C622 1.394 1_554 S
C635 C634 1.478 . S
C635 C636 1.397 1_554 S
C636 C635 1.397 1_556 S
C636 C637 1.438 . S
C636 C641 1.429 1_556 S
C637 C620 1.394 . S
C637 C636 1.438 . S
C637 C638 1.428 . S
C638 H630 0.949 . S
C638 C637 1.428 . S
C638 C639 1.345 . S
C639 H631 0.950 . S
C639 C638 1.345 . S
C639 C640 1.424 . S
C640 H632 0.951 1_556 S
C640 C639 1.424 . S
C640 C641 1.347 1_556 S
C641 H633 0.951 . S
C641 C636 1.429 1_554 S
C641 C640 1.347 1_554 S
H642 C643 0.951 1_655 S
C643 H642 0.951 1_455 S
C643 C649 1.265 . S
H644 C649 0.950 . S
H645 C653 0.949 . S
H646 C654 0.950 . S
H647 C655 0.951 . S
H648 C656 0.951 . S
C649 C643 1.265 . S
C649 H644 0.950 . S
C649 C650 1.478 . S
C650 C649 1.478 . S
C650 C651 1.397 . S
C650 C667 1.394 . S
C651 C650 1.397 . S
C651 C652 1.438 . S
C651 C656 1.429 . S
C652 C651 1.438 . S
C652 C653 1.428 . S
C652 C665 1.394 . S
C653 H645 0.949 . S
C653 C652 1.428 . S
C653 C654 1.345 . S
C654 H646 0.950 . S
C654 C653 1.345 . S
C654 C655 1.424 . S
C655 H647 0.951 . S
C655 C654 1.424 . S
C655 C656 1.347 . S
C656 H648 0.951 . S
C656 C651 1.429 . S
C656 C655 1.347 . S
H657 C658 0.951 . S
C658 H657 0.951 . S
C658 C664 1.265 1_455 S
H659 C664 0.950 . S
H660 C668 0.949 1_455 S
H661 C669 0.950 . S
H662 C670 0.951 . S
H663 C671 0.951 . S
C664 C658 1.265 1_655 S
C664 H659 0.950 . S
C664 C665 1.478 1_655 S
C665 C652 1.394 . S
C665 C664 1.478 1_455 S
C665 C666 1.397 1_455 S
C666 C665 1.397 1_655 S
C666 C667 1.438 1_655 S
C666 C671 1.429 . S
C667 C650 1.394 . S
C667 C666 1.438 1_455 S
C667 C668 1.428 1_455 S
C668 H660 0.949 1_655 S
C668 C667 1.428 1_655 S
C668 C669 1.345 . S
C669 H661 0.950 . S
C669 C668 1.345 . S
C669 C670 1.424 . S
C670 H662 0.951 . S
C670 C669 1.424 . S
C670 C671 1.347 . S
C671 H663 0.951 . S
C671 C666 1.429 . S
C671 C670 1.347 . S
C133 C2 1.572 . S
C148 C126 1.709 . S
C163 C22 1.489 . S
C178 C100 1.494 . S
C193 C44 1.400 . S
C208 C112 1.520 . S
C223 C4 1.366 . S
C238 C124 1.316 . S
C268 C102 1.501 . S
C253 C24 1.351 . S
C298 C114 1.472 . S
C283 C42 1.309 . S
C313 C32 1.418 . S
C328 C76 1.377 . S
C343 C49 1.499 . S
C358 C90 1.520 . S
C373 C9 1.071 . S
C388 C66 1.152 1_565 S
C418 C78 1.185 . S
C403 C29 1.202 . S
C448 C88 1.032 . S
C433 C52 1.134 . S
C463 C12 1.347 . S
C478 C64 1.321 . S
C508 C93 1.493 . S
C493 C18 1.442 . S
C523 C38 1.457 . S
C538 C69 1.471 . S
C553 C58 1.479 . S
C568 C81 1.493 . S
C598 C117 1.503 . S
C583 C39 1.477 . S
C628 C129 1.564 . S
C613 C59 1.534 . S
C643 C19 1.516 . S
C658 C105 1.494 . S
