# Generated by pormake.
# Topology ptr, (4,4)-cn, num edge types: 1
# Building blocks:
#     Node 0, Type 0, BuildingBlock: TATPOV_clean_sbu_0, # of connection points: 4
#     Node 1, Type 0, BuildingBlock: TATPOV_clean_sbu_0, # of connection points: 4
#     Node 2, Type 0, BuildingBlock: TATPOV_clean_sbu_0, # of connection points: 4
#     Node 3, Type 0, BuildingBlock: TATPOV_clean_sbu_0, # of connection points: 4
#     Node 4, Type 0, BuildingBlock: TATPOV_clean_sbu_0, # of connection points: 4
#     Node 5, Type 0, BuildingBlock: TATPOV_clean_sbu_0, # of connection points: 4
#     Node 6, Type 0, BuildingBlock: TATPOV_clean_sbu_0, # of connection points: 4
#     Node 7, Type 0, BuildingBlock: TATPOV_clean_sbu_0, # of connection points: 4
#     Node 8, Type 0, BuildingBlock: TATPOV_clean_sbu_0, # of connection points: 4
#     Node 9, Type 0, BuildingBlock: TATPOV_clean_sbu_0, # of connection points: 4
#     Node 10, Type 0, BuildingBlock: TATPOV_clean_sbu_0, # of connection points: 4
#     Node 11, Type 0, BuildingBlock: TATPOV_clean_sbu_0, # of connection points: 4
#     Node 12, Type 0, BuildingBlock: TATPOV_clean_sbu_0, # of connection points: 4
#     Node 13, Type 0, BuildingBlock: TATPOV_clean_sbu_0, # of connection points: 4
#     Node 14, Type 0, BuildingBlock: TATPOV_clean_sbu_0, # of connection points: 4
#     Node 15, Type 0, BuildingBlock: TATPOV_clean_sbu_0, # of connection points: 4
#     Node 16, Type 0, BuildingBlock: TATPOV_clean_sbu_0, # of connection points: 4
#     Node 17, Type 0, BuildingBlock: TATPOV_clean_sbu_0, # of connection points: 4
#     Node 18, Type 1, BuildingBlock: GIZVER_clean_linker_0, # of connection points: 4
#     Node 19, Type 1, BuildingBlock: GIZVER_clean_linker_0, # of connection points: 4
#     Node 20, Type 1, BuildingBlock: GIZVER_clean_linker_0, # of connection points: 4
#     Node 21, Type 1, BuildingBlock: GIZVER_clean_linker_0, # of connection points: 4
#     Node 22, Type 1, BuildingBlock: GIZVER_clean_linker_0, # of connection points: 4
#     Node 23, Type 1, BuildingBlock: GIZVER_clean_linker_0, # of connection points: 4
#     Node 24, Type 1, BuildingBlock: GIZVER_clean_linker_0, # of connection points: 4
#     Node 25, Type 1, BuildingBlock: GIZVER_clean_linker_0, # of connection points: 4
#     Node 26, Type 1, BuildingBlock: GIZVER_clean_linker_0, # of connection points: 4
#     Node 27, Type 1, BuildingBlock: GIZVER_clean_linker_0, # of connection points: 4
#     Node 28, Type 1, BuildingBlock: GIZVER_clean_linker_0, # of connection points: 4
#     Node 29, Type 1, BuildingBlock: GIZVER_clean_linker_0, # of connection points: 4
#     Node 30, Type 1, BuildingBlock: GIZVER_clean_linker_0, # of connection points: 4
#     Node 31, Type 1, BuildingBlock: GIZVER_clean_linker_0, # of connection points: 4
#     Node 32, Type 1, BuildingBlock: GIZVER_clean_linker_0, # of connection points: 4
#     Node 33, Type 1, BuildingBlock: GIZVER_clean_linker_0, # of connection points: 4
#     Node 34, Type 1, BuildingBlock: GIZVER_clean_linker_0, # of connection points: 4
#     Node 35, Type 1, BuildingBlock: GIZVER_clean_linker_0, # of connection points: 4
#     Edge 36, Type (0, 1), BuildingBlock: EZIPEK_clean_linker_0, # of connection points: 2
#     Edge 37, Type (0, 1), BuildingBlock: EZIPEK_clean_linker_0, # of connection points: 2
#     Edge 38, Type (0, 1), BuildingBlock: EZIPEK_clean_linker_0, # of connection points: 2
#     Edge 39, Type (0, 1), BuildingBlock: EZIPEK_clean_linker_0, # of connection points: 2
#     Edge 40, Type (0, 1), BuildingBlock: EZIPEK_clean_linker_0, # of connection points: 2
#     Edge 41, Type (0, 1), BuildingBlock: EZIPEK_clean_linker_0, # of connection points: 2
#     Edge 42, Type (0, 1), BuildingBlock: EZIPEK_clean_linker_0, # of connection points: 2
#     Edge 43, Type (0, 1), BuildingBlock: EZIPEK_clean_linker_0, # of connection points: 2
#     Edge 44, Type (0, 1), BuildingBlock: EZIPEK_clean_linker_0, # of connection points: 2
#     Edge 45, Type (0, 1), BuildingBlock: EZIPEK_clean_linker_0, # of connection points: 2
#     Edge 46, Type (0, 1), BuildingBlock: EZIPEK_clean_linker_0, # of connection points: 2
#     Edge 47, Type (0, 1), BuildingBlock: EZIPEK_clean_linker_0, # of connection points: 2
#     Edge 48, Type (0, 1), BuildingBlock: EZIPEK_clean_linker_0, # of connection points: 2
#     Edge 49, Type (0, 1), BuildingBlock: EZIPEK_clean_linker_0, # of connection points: 2
#     Edge 50, Type (0, 1), BuildingBlock: EZIPEK_clean_linker_0, # of connection points: 2
#     Edge 51, Type (0, 1), BuildingBlock: EZIPEK_clean_linker_0, # of connection points: 2
#     Edge 52, Type (0, 1), BuildingBlock: EZIPEK_clean_linker_0, # of connection points: 2
#     Edge 53, Type (0, 1), BuildingBlock: EZIPEK_clean_linker_0, # of connection points: 2
#     Edge 54, Type (0, 1), BuildingBlock: EZIPEK_clean_linker_0, # of connection points: 2
#     Edge 55, Type (0, 1), BuildingBlock: EZIPEK_clean_linker_0, # of connection points: 2
#     Edge 56, Type (0, 1), BuildingBlock: EZIPEK_clean_linker_0, # of connection points: 2
#     Edge 57, Type (0, 1), BuildingBlock: EZIPEK_clean_linker_0, # of connection points: 2
#     Edge 58, Type (0, 1), BuildingBlock: EZIPEK_clean_linker_0, # of connection points: 2
#     Edge 59, Type (0, 1), BuildingBlock: EZIPEK_clean_linker_0, # of connection points: 2
#     Edge 60, Type (0, 1), BuildingBlock: EZIPEK_clean_linker_0, # of connection points: 2
#     Edge 61, Type (0, 1), BuildingBlock: EZIPEK_clean_linker_0, # of connection points: 2
#     Edge 62, Type (0, 1), BuildingBlock: EZIPEK_clean_linker_0, # of connection points: 2
#     Edge 63, Type (0, 1), BuildingBlock: EZIPEK_clean_linker_0, # of connection points: 2
#     Edge 64, Type (0, 1), BuildingBlock: EZIPEK_clean_linker_0, # of connection points: 2
#     Edge 65, Type (0, 1), BuildingBlock: EZIPEK_clean_linker_0, # of connection points: 2
#     Edge 66, Type (0, 1), BuildingBlock: EZIPEK_clean_linker_0, # of connection points: 2
#     Edge 67, Type (0, 1), BuildingBlock: EZIPEK_clean_linker_0, # of connection points: 2
#     Edge 68, Type (0, 1), BuildingBlock: EZIPEK_clean_linker_0, # of connection points: 2
#     Edge 69, Type (0, 1), BuildingBlock: EZIPEK_clean_linker_0, # of connection points: 2
#     Edge 70, Type (0, 1), BuildingBlock: EZIPEK_clean_linker_0, # of connection points: 2
#     Edge 71, Type (0, 1), BuildingBlock: EZIPEK_clean_linker_0, # of connection points: 2
#     Edge 72, Type (0, 1), BuildingBlock: EZIPEK_clean_linker_0, # of connection points: 2
#     Edge 73, Type (0, 1), BuildingBlock: EZIPEK_clean_linker_0, # of connection points: 2
#     Edge 74, Type (0, 1), BuildingBlock: EZIPEK_clean_linker_0, # of connection points: 2
#     Edge 75, Type (0, 1), BuildingBlock: EZIPEK_clean_linker_0, # of connection points: 2
#     Edge 76, Type (0, 1), BuildingBlock: EZIPEK_clean_linker_0, # of connection points: 2
#     Edge 77, Type (0, 1), BuildingBlock: EZIPEK_clean_linker_0, # of connection points: 2
#     Edge 78, Type (0, 1), BuildingBlock: EZIPEK_clean_linker_0, # of connection points: 2
#     Edge 79, Type (0, 1), BuildingBlock: EZIPEK_clean_linker_0, # of connection points: 2
#     Edge 80, Type (0, 1), BuildingBlock: EZIPEK_clean_linker_0, # of connection points: 2
#     Edge 81, Type (0, 1), BuildingBlock: EZIPEK_clean_linker_0, # of connection points: 2
#     Edge 82, Type (0, 1), BuildingBlock: EZIPEK_clean_linker_0, # of connection points: 2
#     Edge 83, Type (0, 1), BuildingBlock: EZIPEK_clean_linker_0, # of connection points: 2
#     Edge 84, Type (0, 1), BuildingBlock: EZIPEK_clean_linker_0, # of connection points: 2
#     Edge 85, Type (0, 1), BuildingBlock: EZIPEK_clean_linker_0, # of connection points: 2
#     Edge 86, Type (0, 1), BuildingBlock: EZIPEK_clean_linker_0, # of connection points: 2
#     Edge 87, Type (0, 1), BuildingBlock: EZIPEK_clean_linker_0, # of connection points: 2
#     Edge 88, Type (0, 1), BuildingBlock: EZIPEK_clean_linker_0, # of connection points: 2
#     Edge 89, Type (0, 1), BuildingBlock: EZIPEK_clean_linker_0, # of connection points: 2
#     Edge 90, Type (0, 1), BuildingBlock: EZIPEK_clean_linker_0, # of connection points: 2
#     Edge 91, Type (0, 1), BuildingBlock: EZIPEK_clean_linker_0, # of connection points: 2
#     Edge 92, Type (0, 1), BuildingBlock: EZIPEK_clean_linker_0, # of connection points: 2
#     Edge 93, Type (0, 1), BuildingBlock: EZIPEK_clean_linker_0, # of connection points: 2
#     Edge 94, Type (0, 1), BuildingBlock: EZIPEK_clean_linker_0, # of connection points: 2
#     Edge 95, Type (0, 1), BuildingBlock: EZIPEK_clean_linker_0, # of connection points: 2
#     Edge 96, Type (0, 1), BuildingBlock: EZIPEK_clean_linker_0, # of connection points: 2
#     Edge 97, Type (0, 1), BuildingBlock: EZIPEK_clean_linker_0, # of connection points: 2
#     Edge 98, Type (0, 1), BuildingBlock: EZIPEK_clean_linker_0, # of connection points: 2
#     Edge 99, Type (0, 1), BuildingBlock: EZIPEK_clean_linker_0, # of connection points: 2
#     Edge 100, Type (0, 1), BuildingBlock: EZIPEK_clean_linker_0, # of connection points: 2
#     Edge 101, Type (0, 1), BuildingBlock: EZIPEK_clean_linker_0, # of connection points: 2
#     Edge 102, Type (0, 1), BuildingBlock: EZIPEK_clean_linker_0, # of connection points: 2
#     Edge 103, Type (0, 1), BuildingBlock: EZIPEK_clean_linker_0, # of connection points: 2
#     Edge 104, Type (0, 1), BuildingBlock: EZIPEK_clean_linker_0, # of connection points: 2
#     Edge 105, Type (0, 1), BuildingBlock: EZIPEK_clean_linker_0, # of connection points: 2
#     Edge 106, Type (0, 1), BuildingBlock: EZIPEK_clean_linker_0, # of connection points: 2
#     Edge 107, Type (0, 1), BuildingBlock: EZIPEK_clean_linker_0, # of connection points: 2
# Relax obj value: 0.070
# Max RMSD: 0.191
# Mean RMSD: 0.115
data_MOF--net-ptr--node1-TATPOV_clean_sbu_0--node2-GIZVER_clean_linker_0--edge1-EZIPEK_clean_linker_0
_symmetry_space_group_name_H-M    P1
_symmetry_Int_Tables_number       1
_symmetry_cell_setting            triclinic
loop_
_symmetry_equiv_pos_as_xyz
'x, y, z'
_cell_length_a     59.179605
_cell_length_b     59.846723
_cell_length_c     35.740558
_cell_angle_alpha  89.843848
_cell_angle_beta   92.19563
_cell_angle_gamma 121.0087
loop_
_atom_site_label
_atom_site_type_symbol
_atom_site_fract_x
_atom_site_fract_y
_atom_site_fract_z
_atom_type_partial_charge
Zn0 Zn 0.94846 0.39142 0.0156 0.0
Zn1 Zn 0.99145 0.38633 0.01447 0.0
O2 O 0.95943 0.34865 0.0101 0.0
O3 O 0.92453 0.35206 0.01758 0.0
O4 O 0.02306 0.38117 0.02094 0.0
O5 O 0.96126 0.41345 0.06255 0.0
O6 O 0.99554 0.40825 0.06226 0.0
C7 C 0.93448 0.33808 0.01194 0.0
C8 C 0.97971 0.41202 0.94902 0.0
O9 O 0.99478 0.40495 0.96451 0.0
O10 O 0.95953 0.40868 0.96525 0.0
C11 C 0.03033 0.37058 -0.00288 0.0
O12 O 0.01787 0.36307 0.96419 0.0
C13 C 0.98284 0.41758 0.07739 0.0
Zn14 Zn 0.60973 0.57141 -0.00032 0.0
Zn15 Zn 0.6225 0.62076 0.00973 0.0
O16 O 0.65797 0.62449 -0.00369 0.0
O17 O 0.64841 0.58377 -0.00133 0.0
O18 O 0.63126 0.6576 0.02008 0.0
O19 O 0.59204 0.5606 0.04845 0.0
O20 O 0.60671 0.6023 0.05915 0.0
C21 C 0.66509 0.60772 -0.00548 0.0
C22 C 0.58537 0.58846 0.94436 0.0
O23 O 0.59583 0.60888 0.96516 0.0
O24 O 0.58908 0.56989 0.95213 0.0
C25 C 0.64369 0.67634 -0.00209 0.0
O26 O 0.65167 0.67231 0.96622 0.0
C27 C 0.59487 0.57873 0.06981 0.0
Zn28 Zn 0.37959 0.94894 -0.01185 0.0
Zn29 Zn 0.37839 0.99264 -0.00982 0.0
O30 O 0.33876 0.96466 -0.0115 0.0
O31 O 0.33994 0.92897 0.98161 0.0
O32 O 0.37868 0.02658 -0.01371 0.0
O33 O 0.40159 0.95904 0.94321 0.0
O34 O 0.3972 0.99345 0.94201 0.0
C35 C 0.32661 0.94003 0.98332 0.0
C36 C 0.40212 0.97775 0.05676 0.0
O37 O 0.39707 0.99407 0.04138 0.0
O38 O 0.39629 0.95678 0.03989 0.0
C39 C 0.37059 0.03637 0.01007 0.0
O40 O 0.36205 0.02486 0.04215 0.0
C41 C 0.40539 0.97958 0.92755 0.0
Zn42 Zn 0.0679 0.63877 -0.00684 0.0
Zn43 Zn 0.01623 0.62592 -0.00424 0.0
O44 O 0.03737 0.66577 -0.0069 0.0
O45 O 0.07905 0.67706 -0.00323 0.0
O46 O 0.97849 0.61776 -0.00189 0.0
O47 O 0.05803 0.61899 0.94324 0.0
O48 O 0.01621 0.60713 0.94792 0.0
C49 C 0.06165 0.6834 -0.00447 0.0
C50 C 0.04248 0.61079 0.05896 0.0
O51 O 0.02296 0.61196 0.04505 0.0
O52 O 0.06367 0.61992 0.04169 0.0
C53 C 0.9718 0.63136 0.97851 0.0
O54 O 0.98929 0.65002 0.95791 0.0
C55 C 0.03433 0.60665 0.93047 0.0
Zn56 Zn 0.3738 0.42287 0.00188 0.0
Zn57 Zn 0.37399 0.3778 -0.00486 0.0
O58 O 0.33427 0.36527 -0.00056 0.0
O59 O 0.33409 0.40164 0.00683 0.0
O60 O 0.37461 0.34445 -0.01184 0.0
O61 O 0.39111 0.43413 0.95147 0.0
O62 O 0.39025 0.39698 0.94694 0.0
C63 C 0.32167 0.37694 0.00493 0.0
C64 C 0.40494 0.41692 0.0606 0.0
O65 O 0.39821 0.39587 0.04252 0.0
O66 O 0.39679 0.43171 0.04918 0.0
C67 C 0.3651 0.325 0.00972 0.0
O68 O 0.35406 0.32557 0.0406 0.0
C69 C 0.39616 0.41903 0.93367 0.0
Zn70 Zn 0.61177 0.03588 -0.00249 0.0
Zn71 Zn 0.61661 0.99376 -0.00203 0.0
O72 O 0.65495 0.02422 -0.00203 0.0
O73 O 0.65111 0.05854 -0.01041 0.0
O74 O 0.62132 0.96253 0.00396 0.0
O75 O 0.59696 0.02864 0.04867 0.0
O76 O 0.59772 0.99224 0.04599 0.0
C77 C 0.66546 0.04855 -0.00768 0.0
C78 C 0.58499 0.00154 0.93425 0.0
O79 O 0.59604 0.98935 0.94704 0.0
O80 O 0.58693 0.02056 0.95261 0.0
C81 C 0.63065 0.95393 0.98025 0.0
O82 O 0.63616 0.96406 0.9468 0.0
C83 C 0.59199 0.00729 0.06292 0.0
Zn84 Zn 0.61338 0.71951 0.34635 0.0
Zn85 Zn 0.6565 0.71477 0.34282 0.0
O86 O 0.62452 0.67724 0.33752 0.0
O87 O 0.58944 0.67995 0.34671 0.0
O88 O 0.68749 0.70876 0.3475 0.0
O89 O 0.62695 0.74076 0.39418 0.0
O90 O 0.66134 0.73589 0.39172 0.0
C91 C 0.59958 0.66632 0.3398 0.0
C92 C 0.64475 0.7422 0.28003 0.0
O93 O 0.65987 0.73475 0.29426 0.0
O94 O 0.62449 0.73815 0.29677 0.0
C95 C 0.69917 0.70493 0.32129 0.0
O96 O 0.69229 0.7058 0.28619 0.0
C97 C 0.64879 0.74492 0.40805 0.0
Zn98 Zn 0.2979 0.91124 0.34355 0.0
Zn99 Zn 0.2989 0.95611 0.34459 0.0
O100 O 0.33862 0.96793 0.34699 0.0
O101 O 0.33719 0.9307 0.34973 0.0
O102 O 0.30011 0.99053 0.35044 0.0
O103 O 0.27642 0.89765 0.38835 0.0
O104 O 0.27799 0.93531 0.3905 0.0
C105 C 0.35061 0.95538 0.35008 0.0
C106 C 0.27517 0.91909 0.27635 0.0
O107 O 0.28068 0.9404 0.29258 0.0
O108 O 0.28069 0.90349 0.29226 0.0
C109 C 0.30211 0.00584 0.32429 0.0
O110 O 0.30273 0.99952 0.28935 0.0
C111 C 0.27064 0.91287 0.40387 0.0
Zn112 Zn 0.03583 0.28369 0.33743 0.0
Zn113 Zn 0.04792 0.33393 0.34209 0.0
O114 O 0.00729 0.31231 0.34277 0.0
O115 O 0.99734 0.27151 0.34366 0.0
O116 O 0.05583 0.37127 0.34383 0.0
O117 O 0.05134 0.2903 0.2865 0.0
O118 O 0.0631 0.33168 0.29225 0.0
C119 C 0.99018 0.28812 0.34475 0.0
C120 C 0.06924 0.31156 0.40184 0.0
O121 O 0.06644 0.33018 0.39007 0.0
O122 O 0.05891 0.29018 0.38363 0.0
C123 C 0.04106 0.37652 0.32361 0.0
O124 O 0.02146 0.35791 0.30326 0.0
C125 C 0.06253 0.31317 0.27383 0.0
Zn126 Zn 0.73316 0.9797 0.32686 0.0
Zn127 Zn 0.68283 0.96646 0.33032 0.0
O128 O 0.70413 0.00661 0.32751 0.0
O129 O 0.74575 0.01782 0.33409 0.0
O130 O 0.64576 0.95976 0.32633 0.0
O131 O 0.72516 0.96371 0.2743 0.0
O132 O 0.68315 0.94563 0.28528 0.0
C133 C 0.72842 0.0242 0.33165 0.0
C134 C 0.70651 0.94943 0.39206 0.0
O135 O 0.68748 0.95216 0.38027 0.0
O136 O 0.72708 0.95789 0.3734 0.0
C137 C 0.63491 0.96617 0.35068 0.0
O138 O 0.64682 0.97537 0.38361 0.0
C139 C 0.70123 0.94788 0.26465 0.0
Zn140 Zn 0.03575 0.76527 0.32039 0.0
Zn141 Zn 0.03532 0.7201 0.3281 0.0
O142 O 0.99601 0.70923 0.33152 0.0
O143 O 0.99595 0.74557 0.32163 0.0
O144 O 0.03504 0.68589 0.32466 0.0
O145 O 0.05326 0.77355 0.27136 0.0
O146 O 0.05546 0.73832 0.28053 0.0
C147 C 0.98361 0.72145 0.32857 0.0
C148 C 0.06404 0.76238 0.38795 0.0
O149 O 0.05624 0.73926 0.37637 0.0
O150 O 0.05857 0.77704 0.36888 0.0
C151 C 0.02034 0.6645 0.34095 0.0
O152 O 0.00363 0.66312 0.36533 0.0
C153 C 0.06088 0.75835 0.26129 0.0
Zn154 Zn 0.28547 0.37679 0.33965 0.0
Zn155 Zn 0.28649 0.33207 0.33593 0.0
O156 O 0.32543 0.36078 0.33417 0.0
O157 O 0.32462 0.39701 0.32963 0.0
O158 O 0.2888 0.29923 0.34063 0.0
O159 O 0.27142 0.36903 0.3915 0.0
O160 O 0.2695 0.33147 0.38511 0.0
C161 C 0.33739 0.38532 0.32949 0.0
C162 C 0.25555 0.344 0.27593 0.0
O163 O 0.26496 0.32989 0.28683 0.0
O164 O 0.25984 0.36357 0.29537 0.0
C165 C 0.29746 0.2899 0.31697 0.0
O166 O 0.30368 0.30023 0.28371 0.0
C167 C 0.2653 0.3469 0.404 0.0
Zn168 Zn 0.28661 0.0547 0.66703 0.0
Zn169 Zn 0.32938 0.04987 0.66801 0.0
O170 O 0.29723 0.01237 0.65893 0.0
O171 O 0.26245 0.01561 0.6685 0.0
O172 O 0.36083 0.04457 0.67406 0.0
O173 O 0.29892 0.07606 0.71502 0.0
O174 O 0.33138 0.06806 0.7182 0.0
C175 C 0.27228 0.00178 0.66112 0.0
C176 C 0.32058 0.07873 0.60414 0.0
O177 O 0.33604 0.07314 0.62208 0.0
O178 O 0.29821 0.07196 0.61667 0.0
C179 C 0.36748 0.03346 0.65021 0.0
O180 O 0.35421 0.0252 0.61794 0.0
C181 C 0.31883 0.07784 0.73238 0.0
Zn182 Zn 0.95589 0.23557 0.68852 0.0
Zn183 Zn 0.96504 0.28378 0.68808 0.0
O184 O 0.00156 0.28856 0.67947 0.0
O185 O 0.99489 0.24953 0.69148 0.0
O186 O 0.97196 0.32052 0.69416 0.0
O187 O 0.93587 0.22552 0.7349 0.0
O188 O 0.94718 0.26686 0.7377 0.0
C189 C 0.01023 0.27304 0.68284 0.0
C190 C 0.93335 0.24687 0.62333 0.0
O191 O 0.94177 0.26877 0.63987 0.0
O192 O 0.93743 0.22985 0.63774 0.0
C193 C 0.978 0.33714 0.66841 0.0
O194 O 0.97997 0.33101 0.63393 0.0
C195 C 0.93623 0.2442 0.75177 0.0
Zn196 Zn 0.69922 0.61713 0.66156 0.0
Zn197 Zn 0.70914 0.66631 0.66128 0.0
O198 O 0.66865 0.64362 0.66371 0.0
O199 O 0.66065 0.60365 0.66986 0.0
O200 O 0.71463 0.7025 0.65619 0.0
O201 O 0.71353 0.62096 0.61019 0.0
O202 O 0.72475 0.66226 0.61292 0.0
C203 C 0.6525 0.6195 0.66903 0.0
C204 C 0.73291 0.64892 0.72389 0.0
O205 O 0.72862 0.66631 0.71073 0.0
O206 O 0.72366 0.62718 0.70698 0.0
C207 C 0.70994 0.71462 0.68098 0.0
O208 O 0.70289 0.70459 0.71426 0.0
C209 C 0.72452 0.64339 0.5961 0.0
Zn210 Zn 0.40628 0.30751 0.65909 0.0
Zn211 Zn 0.35561 0.29501 0.65858 0.0
O212 O 0.37772 0.33525 0.65924 0.0
O213 O 0.4188 0.34581 0.65514 0.0
O214 O 0.31875 0.28899 0.6553 0.0
O215 O 0.39774 0.28543 0.61135 0.0
O216 O 0.35702 0.27772 0.61027 0.0
C217 C 0.40186 0.35268 0.65581 0.0
C218 C 0.37808 0.27819 0.72378 0.0
O219 O 0.3582 0.27656 0.70589 0.0
O220 O 0.40082 0.2916 0.71071 0.0
C221 C 0.30782 0.29399 0.68128 0.0
O222 O 0.31957 0.30126 0.71465 0.0
C223 C 0.37491 0.27526 0.59565 0.0
Zn224 Zn 0.71515 0.09985 0.66506 0.0
Zn225 Zn 0.71426 0.05448 0.66576 0.0
O226 O 0.67518 0.04449 0.67196 0.0
O227 O 0.6755 0.08108 0.66297 0.0
O228 O 0.71239 0.01972 0.65944 0.0
O229 O 0.73427 0.11059 0.61689 0.0
O230 O 0.73292 0.07317 0.61785 0.0
C231 C 0.66294 0.0569 0.66935 0.0
C232 C 0.74317 0.09333 0.72982 0.0
O233 O 0.73773 0.07229 0.7129 0.0
O234 O 0.73515 0.10768 0.71587 0.0
C235 C 0.69919 0.99903 0.67798 0.0
O236 O 0.68556 0.99897 0.70618 0.0
C237 C 0.73965 0.09477 0.60218 0.0
Zn238 Zn 0.94491 0.6979 0.65841 0.0
Zn239 Zn 0.94625 0.65384 0.65874 0.0
O240 O 0.98544 0.68253 0.65752 0.0
O241 O 0.98435 0.71853 0.65127 0.0
O242 O 0.94866 0.62142 0.66668 0.0
O243 O 0.92962 0.69189 0.70897 0.0
O244 O 0.92803 0.65431 0.70645 0.0
C245 C 0.99733 0.70705 0.65274 0.0
C246 C 0.91593 0.66349 0.59551 0.0
O247 O 0.9254 0.64982 0.60816 0.0
O248 O 0.92004 0.68352 0.61352 0.0
C249 C 0.9579 0.61195 0.64425 0.0
O250 O 0.9645 0.62175 0.61075 0.0
C251 C 0.92327 0.67016 0.72315 0.0
H252 H 0.12694 0.31046 0.13435 0.0
H253 H 0.12601 0.33888 0.02357 0.0
H254 H 0.08347 0.34815 0.11107 0.0
H255 H 0.13518 0.29223 0.07388 0.0
H256 H 0.14408 0.31162 0.03321 0.0
H257 H 0.16768 0.32135 0.13735 0.0
H258 H 0.24672 0.34625 0.11028 0.0
H259 H 0.18863 0.32809 0.02138 0.0
C260 C 0.12255 0.32192 0.11534 0.0
C261 C 0.10629 0.33087 0.12739 0.0
C262 C 0.13119 0.32588 0.07837 0.0
C263 C 0.12142 0.33745 0.05285 0.0
C264 C 0.10364 0.34492 0.06447 0.0
C265 C 0.09719 0.34254 0.10203 0.0
C266 C 0.14566 0.31273 0.06434 0.0
C267 C 0.17457 0.32491 0.07762 0.0
C268 C 0.18191 0.32662 0.11614 0.0
C269 C 0.20785 0.33412 0.12778 0.0
C270 C 0.22668 0.34035 0.10107 0.0
C271 C 0.22008 0.33842 0.06279 0.0
C272 C 0.19395 0.33052 0.05106 0.0
H273 H 0.67383 0.82375 0.1397 0.0
H274 H 0.67262 0.80031 0.02487 0.0
H275 H 0.65141 0.74513 0.113 0.0
H276 H 0.70882 0.85334 0.08116 0.0
H277 H 0.69136 0.84477 0.03737 0.0
H278 H 0.69062 0.86573 0.13631 0.0
H279 H 0.66398 0.91667 0.09888 0.0
H280 H 0.66294 0.8614 0.0215 0.0
C281 C 0.66976 0.80915 0.11864 0.0
C282 C 0.66154 0.78371 0.13037 0.0
C283 C 0.6739 0.81561 0.08043 0.0
C284 C 0.66895 0.7958 0.0542 0.0
C285 C 0.66102 0.77049 0.06602 0.0
C286 C 0.65734 0.76466 0.10392 0.0
C287 C 0.68855 0.84385 0.06806 0.0
C288 C 0.67687 0.86037 0.07821 0.0
C289 C 0.6814 0.87132 0.11455 0.0
C290 C 0.67652 0.89142 0.12233 0.0
C291 C 0.66695 0.90055 0.09341 0.0
C292 C 0.66141 0.88946 0.05742 0.0
C293 C 0.66609 0.86913 0.04984 0.0
H294 H 0.15824 0.80172 0.14931 0.0
H295 H 0.15118 0.79169 0.03045 0.0
H296 H 0.08212 0.7673 0.09528 0.0
H297 H 0.19249 0.80072 0.1117 0.0
H298 H 0.19092 0.80177 0.06201 0.0
H299 H 0.20374 0.84019 0.15087 0.0
H300 H 0.25976 0.91122 0.09919 0.0
H301 H 0.20953 0.84289 0.03097 0.0
C302 C 0.14617 0.79639 0.12357 0.0
C303 C 0.11886 0.78489 0.12524 0.0
C304 C 0.15775 0.79967 0.089 0.0
C305 C 0.14164 0.79071 0.05597 0.0
C306 C 0.11386 0.77881 0.05671 0.0
C307 C 0.10313 0.77703 0.09208 0.0
C308 C 0.18674 0.80906 0.08791 0.0
C309 C 0.20375 0.83842 0.09046 0.0
C310 C 0.21166 0.85118 0.12568 0.0
C311 C 0.2314 0.87763 0.12874 0.0
C312 C 0.2433 0.89129 0.09646 0.0
C313 C 0.23606 0.8787 0.06128 0.0
C314 C 0.21501 0.85273 0.05812 0.0
H315 H 0.38501 0.20752 0.85967 0.0
H316 H 0.37905 0.2204 0.97675 0.0
H317 H 0.36845 0.26608 0.89305 0.0
H318 H 0.41113 0.20017 0.91363 0.0
H319 H 0.40037 0.19768 0.95999 0.0
H320 H 0.36404 0.1659 0.86562 0.0
H321 H 0.34728 0.0906 0.89949 0.0
H322 H 0.38631 0.155 0.97777 0.0
C323 C 0.38014 0.21655 0.88154 0.0
C324 C 0.3749 0.23627 0.87175 0.0
C325 C 0.38146 0.21027 0.91936 0.0
C326 C 0.37716 0.22412 0.94744 0.0
C327 C 0.37248 0.24424 0.93782 0.0
C328 C 0.37145 0.25013 0.9002 0.0
C329 C 0.39328 0.19364 0.9301 0.0
C330 C 0.37584 0.16426 0.92343 0.0
C331 C 0.36407 0.15371 0.88776 0.0
C332 C 0.35385 0.12724 0.87917 0.0
C333 C 0.35458 0.1109 0.90651 0.0
C334 C 0.366 0.12074 0.94211 0.0
C335 C 0.37639 0.14731 0.95067 0.0
H336 H 0.87113 0.17767 0.88807 0.0
H337 H 0.8569 0.20395 -0.00781 0.0
H338 H 0.90548 0.25923 0.91051 0.0
H339 H 0.85505 0.14869 0.94443 0.0
H340 H 0.84435 0.1585 0.98388 0.0
H341 H 0.82903 0.14703 0.8779 0.0
H342 H 0.74575 0.10229 0.89172 0.0
H343 H 0.79832 0.13355 -0.0113 0.0
C344 C 0.87308 0.19308 0.90617 0.0
C345 C 0.88846 0.21893 0.89501 0.0
C346 C 0.86077 0.18724 0.9407 0.0
C347 C 0.86548 0.20798 0.96496 0.0
C348 C 0.88216 0.23402 0.95438 0.0
C349 C 0.89296 0.23922 0.91906 0.0
C350 C 0.84494 0.15912 0.9528 0.0
C351 C 0.8171 0.14441 0.93531 0.0
C352 C 0.81268 0.13987 0.89616 0.0
C353 C 0.78694 0.12503 0.88032 0.0
C354 C 0.76562 0.11433 0.9038 0.0
C355 C 0.7696 0.11666 0.94275 0.0
C356 C 0.79529 0.1321 0.9585 0.0
H357 H 0.83619 0.6324 0.84961 0.0
H358 H 0.84659 0.61376 0.96345 0.0
H359 H 0.91072 0.64456 0.88889 0.0
H360 H 0.79858 0.59403 0.89034 0.0
H361 H 0.8033 0.5989 0.93952 0.0
H362 H 0.79917 0.63052 0.84932 0.0
H363 H 0.74901 0.65335 0.89648 0.0
H364 H 0.78353 0.6196 0.96659 0.0
C365 C 0.84849 0.63269 0.87283 0.0
C366 C 0.87471 0.64062 0.86613 0.0
C367 C 0.83796 0.62321 0.90802 0.0
C368 C 0.85446 0.622 0.93663 0.0
C369 C 0.88066 0.62955 0.92957 0.0
C370 C 0.89064 0.63914 0.89455 0.0
C371 C 0.80841 0.60944 0.91259 0.0
C372 C 0.79646 0.62664 0.90962 0.0
C373 C 0.79239 0.63492 0.87426 0.0
C374 C 0.77613 0.64551 0.86983 0.0
C375 C 0.76351 0.64752 0.90076 0.0
C376 C 0.76514 0.63705 0.93507 0.0
C377 C 0.78309 0.62846 0.9403 0.0
H378 H 0.79004 0.6385 0.45872 0.0
H379 H 0.78732 0.66413 0.34652 0.0
H380 H 0.74881 0.6785 0.43477 0.0
H381 H 0.79345 0.61628 0.39795 0.0
H382 H 0.80301 0.63484 0.35653 0.0
H383 H 0.82565 0.6354 0.45816 0.0
H384 H 0.90617 0.66862 0.42932 0.0
H385 H 0.84917 0.66293 0.34601 0.0
C386 C 0.78538 0.6495 0.43919 0.0
C387 C 0.77006 0.65959 0.45116 0.0
C388 C 0.79259 0.65166 0.40163 0.0
C389 C 0.78349 0.6637 0.37599 0.0
C390 C 0.76752 0.67326 0.38793 0.0
C391 C 0.76163 0.67176 0.42566 0.0
C392 C 0.80496 0.63655 0.38763 0.0
C393 C 0.83365 0.64756 0.40037 0.0
C394 C 0.84048 0.64418 0.43747 0.0
C395 C 0.86671 0.65208 0.44801 0.0
C396 C 0.88586 0.6623 0.4211 0.0
C397 C 0.87986 0.66677 0.38475 0.0
C398 C 0.85377 0.65948 0.37429 0.0
H399 H 0.35025 0.15935 0.46148 0.0
H400 H 0.33179 0.13045 0.34715 0.0
H401 H 0.31256 0.07756 0.43809 0.0
H402 H 0.3757 0.18534 0.39655 0.0
H403 H 0.35362 0.17583 0.35689 0.0
H404 H 0.36486 0.20055 0.45689 0.0
H405 H 0.32992 0.24669 0.43531 0.0
H406 H 0.32705 0.19531 0.3489 0.0
C407 C 0.34086 0.14353 0.44125 0.0
C408 C 0.33029 0.11799 0.45425 0.0
C409 C 0.34027 0.14838 0.40261 0.0
C410 C 0.33051 0.1271 0.37701 0.0
C411 C 0.32112 0.10167 0.38987 0.0
C412 C 0.31986 0.09721 0.42831 0.0
C413 C 0.35443 0.17613 0.38804 0.0
C414 C 0.34486 0.19367 0.40231 0.0
C415 C 0.35268 0.20485 0.4386 0.0
C416 C 0.34641 0.22313 0.45089 0.0
C417 C 0.33355 0.23157 0.42624 0.0
C418 C 0.32695 0.22201 0.3893 0.0
C419 C 0.33179 0.20239 0.37767 0.0
H420 H 0.83097 0.14122 0.47976 0.0
H421 H 0.81863 0.13594 0.36088 0.0
H422 H 0.75259 0.10558 0.43363 0.0
H423 H 0.86515 0.14533 0.43366 0.0
H424 H 0.86139 0.15155 0.38575 0.0
H425 H 0.87232 0.17793 0.48387 0.0
H426 H 0.9147 0.25694 0.45101 0.0
H427 H 0.87653 0.19472 0.36736 0.0
C428 C 0.81778 0.13632 0.45533 0.0
C429 C 0.79063 0.12375 0.45999 0.0
C430 C 0.82781 0.14186 0.4194 0.0
C431 C 0.8102 0.1331 0.38787 0.0
C432 C 0.7825 0.11948 0.3916 0.0
C433 C 0.77338 0.11617 0.42841 0.0
C434 C 0.85718 0.15468 0.41472 0.0
C435 C 0.87151 0.18354 0.42424 0.0
C436 C 0.87782 0.19197 0.46173 0.0
C437 C 0.89296 0.21849 0.47082 0.0
C438 C 0.90157 0.23683 0.44239 0.0
C439 C 0.89595 0.22926 0.40406 0.0
C440 C 0.88055 0.20212 0.39571 0.0
H441 H 0.05654 0.55294 0.20417 0.0
H442 H 0.03871 0.56209 0.317 0.0
H443 H 0.02522 0.60176 0.22644 0.0
H444 H 0.07881 0.54682 0.26493 0.0
H445 H 0.06144 0.53993 0.30706 0.0
H446 H 0.02872 0.51036 0.21015 0.0
H447 H 0.02257 0.43755 0.23431 0.0
H448 H 0.05899 0.49945 0.31664 0.0
C449 C 0.0477 0.55975 0.22367 0.0
C450 C 0.03893 0.57624 0.21078 0.0
C451 C 0.04622 0.55304 0.26169 0.0
C452 C 0.03802 0.56527 0.28722 0.0
C453 C 0.03116 0.58344 0.27464 0.0
C454 C 0.03058 0.58787 0.23629 0.0
C455 C 0.05871 0.53769 0.27604 0.0
C456 C 0.04472 0.5087 0.26547 0.0
C457 C 0.03209 0.49865 0.22988 0.0
C458 C 0.02435 0.47309 0.21867 0.0
C459 C 0.02842 0.45721 0.24317 0.0
C460 C 0.04051 0.46647 0.27853 0.0
C461 C 0.04868 0.49213 0.28968 0.0
H462 H 0.53751 0.50838 0.20844 0.0
H463 H 0.52675 0.53228 0.31703 0.0
H464 H 0.57041 0.58934 0.23425 0.0
H465 H 0.52605 0.47914 0.26495 0.0
H466 H 0.51582 0.48746 0.30634 0.0
H467 H 0.49736 0.47271 0.20189 0.0
H468 H 0.41456 0.43032 0.22048 0.0
H469 H 0.4699 0.46504 0.31409 0.0
C470 C 0.53988 0.52335 0.22787 0.0
C471 C 0.5541 0.5494 0.21718 0.0
C472 C 0.52937 0.51673 0.2636 0.0
C473 C 0.5342 0.53692 0.2891 0.0
C474 C 0.54948 0.56322 0.27873 0.0
C475 C 0.55894 0.56915 0.24259 0.0
C476 C 0.51531 0.48848 0.27525 0.0
C477 C 0.48705 0.47283 0.25957 0.0
C478 C 0.48153 0.46657 0.22089 0.0
C479 C 0.45535 0.45156 0.20663 0.0
C480 C 0.43478 0.44236 0.23131 0.0
C481 C 0.43986 0.44643 0.27001 0.0
C482 C 0.46598 0.46209 0.28409 0.0
H483 H 0.50664 0.96958 0.18985 0.0
H484 H 0.51603 0.95204 0.30458 0.0
H485 H 0.58146 0.98319 0.23232 0.0
H486 H 0.46916 0.93059 0.23032 0.0
H487 H 0.47293 0.93658 0.2793 0.0
H488 H 0.46452 0.96112 0.18617 0.0
H489 H 0.41755 0.98815 0.23382 0.0
H490 H 0.46322 0.96717 0.30607 0.0
C491 C 0.51892 0.96996 0.21331 0.0
C492 C 0.54536 0.97815 0.20757 0.0
C493 C 0.50802 0.96051 0.24825 0.0
C494 C 0.52424 0.96 0.27779 0.0
C495 C 0.55073 0.96823 0.27204 0.0
C496 C 0.56116 0.97739 0.23702 0.0
C497 C 0.47851 0.94651 0.25192 0.0
C498 C 0.46671 0.96363 0.24678 0.0
C499 C 0.45916 0.96762 0.2107 0.0
C500 C 0.44245 0.9777 0.20611 0.0
C501 C 0.43232 0.98267 0.23766 0.0
C502 C 0.43902 0.97808 0.27374 0.0
C503 C 0.45811 0.97084 0.2782 0.0
H504 H 0.46827 0.97895 0.78833 0.0
H505 H 0.46235 0.00069 0.67483 0.0
H506 H 0.42512 0.01662 0.76332 0.0
H507 H 0.47018 0.95509 0.72595 0.0
H508 H 0.48186 0.9749 0.68597 0.0
H509 H 0.50007 0.97171 0.78891 0.0
H510 H 0.58182 0.00576 0.76779 0.0
H511 H 0.52861 0.00161 0.67926 0.0
C512 C 0.46321 0.98932 0.76831 0.0
C513 C 0.44778 0.99928 0.78015 0.0
C514 C 0.46978 0.99064 0.73058 0.0
C515 C 0.45938 0.00128 0.70445 0.0
C516 C 0.44288 0.01031 0.71621 0.0
C517 C 0.43826 0.01027 0.75425 0.0
C518 C 0.4825 0.97565 0.71711 0.0
C519 C 0.51062 0.98564 0.7322 0.0
C520 C 0.51577 0.98122 0.76966 0.0
C521 C 0.54153 0.98908 0.78267 0.0
C522 C 0.56188 0.99957 0.75763 0.0
C523 C 0.55747 0.00432 0.72061 0.0
C524 C 0.5319 0.99765 0.70791 0.0
H525 H 0.00601 0.48712 0.80254 0.0
H526 H 0.00541 0.46088 0.68959 0.0
H527 H 0.98506 0.40828 0.7811 0.0
H528 H 0.04059 0.51547 0.73982 0.0
H529 H 0.02008 0.50521 0.69864 0.0
H530 H 0.02704 0.5301 0.79749 0.0
H531 H 0.98938 0.57301 0.76892 0.0
H532 H 0.99086 0.5213 0.68715 0.0
C533 C 0.00242 0.47211 0.78248 0.0
C534 C 0.99482 0.44719 0.79587 0.0
C535 C 0.00637 0.47752 0.74397 0.0
C536 C 0.00191 0.45716 0.71912 0.0
C537 C 0.99418 0.43221 0.73252 0.0
C538 C 0.99072 0.42746 0.77074 0.0
C539 C 0.01956 0.50531 0.72972 0.0
C540 C 0.0081 0.52163 0.74199 0.0
C541 C 0.01478 0.53352 0.77789 0.0
C542 C 0.00718 0.55125 0.788 0.0
C543 C 0.99399 0.55826 0.76161 0.0
C544 C 0.98849 0.54792 0.72509 0.0
C545 C 0.99468 0.52888 0.71565 0.0
H546 H 0.48854 0.47911 0.82111 0.0
H547 H 0.48934 0.46925 0.70322 0.0
H548 H 0.41764 0.423 0.76244 0.0
H549 H 0.52977 0.48935 0.788 0.0
H550 H 0.52956 0.48911 0.73824 0.0
H551 H 0.522 0.52175 0.82074 0.0
H552 H 0.56967 0.59695 0.77584 0.0
H553 H 0.54531 0.52877 0.7089 0.0
C554 C 0.47804 0.47042 0.7947 0.0
C555 C 0.4512 0.45144 0.79462 0.0
C556 C 0.49165 0.47672 0.76142 0.0
C557 C 0.47781 0.46456 0.7276 0.0
C558 C 0.45042 0.44585 0.7263 0.0
C559 C 0.43782 0.43893 0.76088 0.0
C560 C 0.52144 0.49379 0.76257 0.0
C561 C 0.53083 0.5226 0.76365 0.0
C562 C 0.52993 0.5342 0.79703 0.0
C563 C 0.54183 0.56143 0.80125 0.0
C564 C 0.55618 0.57665 0.77087 0.0
C565 C 0.55615 0.56582 0.73564 0.0
C566 C 0.54352 0.53833 0.73312 0.0
H567 H 0.72135 0.88443 0.52653 0.0
H568 H 0.71311 0.89465 0.64365 0.0
H569 H 0.6939 0.93462 0.56002 0.0
H570 H 0.74775 0.87804 0.57907 0.0
H571 H 0.73775 0.87537 0.62597 0.0
H572 H 0.70064 0.84124 0.53302 0.0
H573 H 0.68679 0.76727 0.56982 0.0
H574 H 0.72642 0.83354 0.6447 0.0
C575 C 0.7143 0.89146 0.54844 0.0
C576 C 0.7055 0.90856 0.53905 0.0
C577 C 0.71607 0.88523 0.5861 0.0
C578 C 0.71001 0.89759 0.61441 0.0
C579 C 0.70248 0.91581 0.60501 0.0
C580 C 0.69928 0.9203 0.56734 0.0
C581 C 0.73013 0.8706 0.59635 0.0
C582 C 0.71414 0.84109 0.59043 0.0
C583 C 0.70173 0.82962 0.55533 0.0
C584 C 0.69187 0.80301 0.54794 0.0
C585 C 0.69398 0.78768 0.57577 0.0
C586 C 0.70617 0.79852 0.61064 0.0
C587 C 0.7161 0.82512 0.61806 0.0
H588 H 0.19833 0.83915 0.53681 0.0
H589 H 0.18931 0.86848 0.6421 0.0
H590 H 0.23851 0.9214 0.55876 0.0
H591 H 0.18309 0.81126 0.59405 0.0
H592 H 0.17504 0.82271 0.63461 0.0
H593 H 0.1535 0.81861 0.53044 0.0
H594 H 0.07299 0.76276 0.55111 0.0
H595 H 0.13045 0.79118 0.64274 0.0
C596 C 0.20191 0.85522 0.55498 0.0
C597 C 0.21853 0.8808 0.54342 0.0
C598 C 0.1905 0.8504 0.59018 0.0
C599 C 0.19715 0.87177 0.61441 0.0
C600 C 0.21492 0.89739 0.60327 0.0
C601 C 0.22502 0.90165 0.56757 0.0
C602 C 0.17416 0.8226 0.60345 0.0
C603 C 0.14553 0.80811 0.58889 0.0
C604 C 0.13872 0.80729 0.55033 0.0
C605 C 0.11261 0.79077 0.53674 0.0
C606 C 0.09315 0.77554 0.5617 0.0
C607 C 0.09936 0.77577 0.59985 0.0
C608 C 0.12557 0.79184 0.61337 0.0
H609 H 0.17946 0.30255 0.52958 0.0
H610 H 0.1874 0.27855 0.64087 0.0
H611 H 0.2543 0.31631 0.57143 0.0
H612 H 0.14197 0.25993 0.56555 0.0
H613 H 0.14453 0.26333 0.61498 0.0
H614 H 0.13834 0.29307 0.525 0.0
H615 H 0.08821 0.31568 0.57358 0.0
H616 H 0.12688 0.28602 0.64364 0.0
C617 C 0.19142 0.30209 0.55277 0.0
C618 C 0.21816 0.31153 0.54734 0.0
C619 C 0.17994 0.29013 0.58642 0.0
C620 C 0.19598 0.28849 0.61521 0.0
C621 C 0.22283 0.29806 0.60983 0.0
C622 C 0.23377 0.30965 0.57601 0.0
C623 C 0.15023 0.27471 0.58878 0.0
C624 C 0.13721 0.29085 0.58555 0.0
C625 C 0.13177 0.29777 0.54999 0.0
C626 C 0.11495 0.30774 0.54589 0.0
C627 C 0.10312 0.31036 0.57736 0.0
C628 C 0.10654 0.30155 0.61219 0.0
C629 C 0.12505 0.29365 0.61688 0.0
C630 C 0.0186 0.45613 0.1146 0.0
C631 C 0.99312 0.43325 0.11274 0.0
C632 C 0.98608 0.442 0.17695 0.0
C633 C 0.01281 0.46241 0.18059 0.0
N634 N 0.05568 0.48738 0.15426 0.0
N635 N 0.95396 0.40213 0.14417 0.0
C636 C 0.02938 0.46923 0.14971 0.0
C637 C 0.97708 0.42567 0.14436 0.0
N638 N 0.03213 0.46585 0.08267 0.0
N639 N 0.96933 0.43828 0.20477 0.0
H640 H 0.94706 0.38904 0.12147 0.0
H641 H 0.94288 0.39441 0.1678 0.0
H642 H 0.97543 0.45004 0.22894 0.0
H643 H 0.94903 0.42534 0.20225 0.0
H644 H 0.04954 0.4839 0.08175 0.0
H645 H 0.02472 0.4571 0.05632 0.0
H646 H 0.06929 0.49081 0.13406 0.0
H647 H 0.06431 0.49777 0.17926 0.0
C648 C 0.55702 0.56033 0.11224 0.0
C649 C 0.58455 0.57222 0.10765 0.0
C650 C 0.59162 0.56655 0.1741 0.0
C651 C 0.56439 0.5564 0.17919 0.0
N652 N 0.52177 0.54727 0.15516 0.0
N653 N 0.62872 0.58974 0.13407 0.0
C654 C 0.5472 0.55421 0.1488 0.0
C655 C 0.60208 0.57634 0.13861 0.0
N656 N 0.54026 0.55462 0.08157 0.0
N657 N 0.60722 0.56602 0.20291 0.0
H658 H 0.63708 0.59638 0.10819 0.0
H659 H 0.64269 0.59594 0.15622 0.0
H660 H 0.60019 0.559 0.22933 0.0
H661 H 0.62656 0.57055 0.20001 0.0
H662 H 0.51981 0.5431 0.08254 0.0
H663 H 0.54682 0.56006 0.05452 0.0
H664 H 0.50914 0.54823 0.135 0.0
H665 H 0.51376 0.54238 0.18153 0.0
C666 C 0.39482 0.9633 0.12262 0.0
C667 C 0.41193 0.98114 0.09624 0.0
C668 C 0.44839 0.99928 0.14361 0.0
C669 C 0.43208 0.97913 0.1682 0.0
N670 N 0.39086 0.93945 0.17911 0.0
N671 N 0.45534 0.01505 0.07989 0.0
C672 C 0.40552 0.96051 0.15725 0.0
C673 C 0.43881 0.99904 0.10632 0.0
N674 N 0.3682 0.94931 0.11468 0.0
N675 N 0.47277 0.01886 0.15618 0.0
H676 H 0.44875 0.01584 0.0527 0.0
H677 H 0.47575 0.02638 0.08417 0.0
H678 H 0.48045 0.01944 0.18318 0.0
H679 H 0.48456 0.03549 0.14097 0.0
H680 H 0.35443 0.93796 0.13425 0.0
H681 H 0.35967 0.95113 0.08963 0.0
H682 H 0.37237 0.92385 0.17063 0.0
H683 H 0.3981 0.93625 0.20436 0.0
C684 C 0.40109 0.96795 0.85965 0.0
C685 C 0.41624 0.98535 0.88982 0.0
C686 C 0.45295 0.01092 0.84871 0.0
C687 C 0.43748 0.99403 0.81836 0.0
N688 N 0.39681 0.9573 0.79327 0.0
N689 N 0.45517 0.02438 0.91358 0.0
C690 C 0.41155 0.9727 0.82342 0.0
C691 C 0.44178 0.00718 0.88448 0.0
N692 N 0.37669 0.94678 0.86584 0.0
N693 N 0.47845 0.03016 0.8433 0.0
H694 H 0.44802 0.02162 0.94046 0.0
H695 H 0.47269 0.04209 0.91101 0.0
H696 H 0.48692 0.03378 0.81724 0.0
H697 H 0.49185 0.04166 0.86469 0.0
H698 H 0.36592 0.93145 0.84677 0.0
H699 H 0.36718 0.94391 0.89091 0.0
H700 H 0.37676 0.94351 0.79355 0.0
H701 H 0.40435 0.95884 0.76687 0.0
C702 C 0.00875 0.44369 0.90056 0.0
C703 C 0.98405 0.4221 0.91027 0.0
C704 C 0.96557 0.42204 0.84769 0.0
C705 C 0.99103 0.44102 0.83636 0.0
N706 N 0.03793 0.46729 0.8506 0.0
N707 N 0.94065 0.38689 0.8898 0.0
C708 C 0.01297 0.45126 0.86243 0.0
C709 C 0.96285 0.41027 0.88299 0.0
N710 N 0.02787 0.45751 0.92778 0.0
N711 N 0.94391 0.41536 0.82476 0.0
H712 H 0.93838 0.37658 0.91431 0.0
H713 H 0.92579 0.37627 0.86941 0.0
H714 H 0.94516 0.4239 0.79882 0.0
H715 H 0.92464 0.40343 0.83314 0.0
H716 H 0.04521 0.47498 0.92279 0.0
H717 H 0.02535 0.45288 0.95606 0.0
H718 H 0.05481 0.47295 0.86752 0.0
H719 H 0.04191 0.47322 0.82296 0.0
C720 C 0.57825 0.60502 0.88251 0.0
C721 C 0.5686 0.58591 0.91085 0.0
C722 C 0.52981 0.55785 0.8699 0.0
C723 C 0.54365 0.57353 0.83953 0.0
N724 N 0.56481 0.61935 0.8274 0.0
N725 N 0.53179 0.54674 0.93483 0.0
C726 C 0.56315 0.59964 0.84855 0.0
C727 C 0.54301 0.56325 0.9058 0.0
N728 N 0.60229 0.62742 0.8865 0.0
N729 N 0.50371 0.53946 0.86464 0.0
H730 H 0.54002 0.55127 0.9621 0.0
H731 H 0.51471 0.52846 0.93173 0.0
H732 H 0.49379 0.53716 0.8388 0.0
H733 H 0.49164 0.52849 0.88607 0.0
H734 H 0.61059 0.64036 0.86459 0.0
H735 H 0.61474 0.63219 0.91028 0.0
H736 H 0.57735 0.63898 0.83477 0.0
H737 H 0.55117 0.61562 0.80529 0.0
C738 C 0.0098 0.56475 0.89286 0.0
C739 C 0.02784 0.5921 0.89435 0.0
C740 C 0.03554 0.59138 0.82761 0.0
C741 C 0.01529 0.56472 0.82519 0.0
N742 N 0.9808 0.52648 0.85419 0.0
N743 N 0.05455 0.63233 0.86202 0.0
C744 C 0.00179 0.55147 0.85749 0.0
C745 C 0.03992 0.60567 0.86144 0.0
N746 N 0.00108 0.55133 0.9253 0.0
N747 N 0.05099 0.60288 0.79775 0.0
H748 H 0.05778 0.64364 0.88602 0.0
H749 H 0.0614 0.64334 0.83799 0.0
H750 H 0.04847 0.59298 0.77251 0.0
H751 H 0.06781 0.62145 0.79914 0.0
H752 H 0.99015 0.53106 0.92626 0.0
H753 H 0.00673 0.56032 0.95174 0.0
H754 H 0.9683 0.51681 0.87589 0.0
H755 H 0.97464 0.51598 0.82888 0.0
C756 C 0.40081 0.43698 0.86861 0.0
C757 C 0.41026 0.42756 0.89811 0.0
C758 C 0.44469 0.43114 0.85812 0.0
C759 C 0.4372 0.44339 0.83041 0.0
N760 N 0.41124 0.46256 0.81239 0.0
N761 N 0.44532 0.42183 0.92383 0.0
C762 C 0.41614 0.44767 0.83656 0.0
C763 C 0.43336 0.42634 0.8937 0.0
N764 N 0.37665 0.43465 0.87031 0.0
N765 N 0.46193 0.42322 0.85014 0.0
H766 H 0.43852 0.41947 0.95088 0.0
H767 H 0.46362 0.42333 0.92274 0.0
H768 H 0.47019 0.42572 0.82407 0.0
H769 H 0.46592 0.41182 0.86811 0.0
H770 H 0.36768 0.43876 0.8479 0.0
H771 H 0.36435 0.4261 0.89264 0.0
H772 H 0.39791 0.46852 0.8176 0.0
H773 H 0.42229 0.47107 0.78889 0.0
C774 C 0.55337 0.97154 0.882 0.0
C775 C 0.5732 0.99679 0.89542 0.0
C776 C 0.56582 0.01596 0.83925 0.0
C777 C 0.54898 0.99078 0.8233 0.0
N778 N 0.52884 0.94419 0.82764 0.0
N779 N 0.60354 0.04194 0.88075 0.0
C780 C 0.54322 0.96836 0.84418 0.0
C781 C 0.58088 0.01872 0.87236 0.0
N782 N 0.54361 0.95088 0.9055 0.0
N783 N 0.56745 0.03733 0.8227 0.0
H784 H 0.61657 0.0444 0.90305 0.0
H785 H 0.61106 0.05774 0.86284 0.0
H786 H 0.55609 0.03598 0.79879 0.0
H787 H 0.57784 0.05591 0.83507 0.0
H788 H 0.5274 0.9326 0.89828 0.0
H789 H 0.55031 0.95257 0.93335 0.0
H790 H 0.5264 0.92737 0.84009 0.0
H791 H 0.52083 0.94126 0.80032 0.0
C792 C 0.55658 0.97516 0.10394 0.0
C793 C 0.57963 0.99994 0.09968 0.0
C794 C 0.57718 0.01176 0.16433 0.0
C795 C 0.55631 0.9859 0.1699 0.0
N796 N 0.52969 0.94136 0.14698 0.0
N797 N 0.61516 0.03984 0.12842 0.0
C798 C 0.54694 0.96709 0.14026 0.0
C799 C 0.59084 0.01779 0.13056 0.0
N800 N 0.54322 0.95971 0.07325 0.0
N801 N 0.58363 0.03069 0.19097 0.0
H802 H 0.62649 0.04447 0.10485 0.0
H803 H 0.6253 0.05211 0.15141 0.0
H804 H 0.57382 0.02704 0.21593 0.0
H805 H 0.59692 0.0504 0.1867 0.0
H806 H 0.52487 0.94265 0.07461 0.0
H807 H 0.54902 0.96525 0.04594 0.0
H808 H 0.52446 0.92657 0.12714 0.0
H809 H 0.52256 0.93444 0.17336 0.0
C810 C 0.05931 0.61896 0.12564 0.0
C811 C 0.04167 0.60128 0.0974 0.0
C812 C 0.02212 0.56657 0.14348 0.0
C813 C 0.04101 0.58386 0.17097 0.0
N814 N 0.0811 0.6245 0.18654 0.0
N815 N 0.00924 0.55736 0.07741 0.0
C816 C 0.06072 0.60945 0.16147 0.0
C817 C 0.02386 0.57478 0.10572 0.0
N818 N 0.07379 0.64509 0.11882 0.0
N819 N 0.00203 0.54269 0.15371 0.0
H820 H 0.00999 0.56276 0.0495 0.0
H821 H 0.99799 0.53729 0.08105 0.0
H822 H 1.00043 0.53585 0.18094 0.0
H823 H 0.98599 0.53038 0.13593 0.0
H824 H 0.08472 0.65917 0.13961 0.0
H825 H 0.07293 0.65307 0.0932 0.0
H826 H 0.0975 0.64228 0.1798 0.0
H827 H 0.08289 0.61809 0.21306 0.0
C828 C 0.41775 0.40681 0.12441 0.0
C829 C 0.42236 0.42477 0.09533 0.0
C830 C 0.45279 0.46102 0.13785 0.0
C831 C 0.44852 0.44299 0.16648 0.0
N832 N 0.43492 0.39877 0.18218 0.0
N833 N 0.45167 0.46755 0.0711 0.0
C834 C 0.43377 0.41586 0.15794 0.0
C835 C 0.44234 0.45145 0.101 0.0
N836 N 0.39696 0.3817 0.12169 0.0
N837 N 0.46546 0.48711 0.14598 0.0
H838 H 0.4454 0.46087 0.04354 0.0
H839 H 0.46771 0.48659 0.07337 0.0
H840 H 0.4732 0.49496 0.17264 0.0
H841 H 0.46641 0.50071 0.12685 0.0
H842 H 0.39141 0.36892 0.14399 0.0
H843 H 0.38355 0.37425 0.09887 0.0
H844 H 0.4262 0.37892 0.17603 0.0
H845 H 0.44717 0.40505 0.20641 0.0
C846 C 0.68567 0.783 0.44487 0.0
C847 C 0.65979 0.76067 0.44332 0.0
C848 C 0.6534 0.77076 0.50714 0.0
C849 C 0.68037 0.7907 0.51048 0.0
N850 N 0.72347 0.81319 0.48427 0.0
N851 N 0.62064 0.73059 0.47567 0.0
C852 C 0.69689 0.79622 0.47978 0.0
C853 C 0.64399 0.75388 0.47513 0.0
N854 N 0.69919 0.79225 0.41283 0.0
N855 N 0.63672 0.76813 0.53451 0.0
H856 H 0.61351 0.71705 0.45352 0.0
H857 H 0.60968 0.72349 0.49954 0.0
H858 H 0.64298 0.78036 0.55819 0.0
H859 H 0.61634 0.7556 0.53193 0.0
H860 H 0.71698 0.80996 0.41184 0.0
H861 H 0.69145 0.78365 0.3865 0.0
H862 H 0.73676 0.81559 0.46409 0.0
H863 H 0.73258 0.82327 0.50931 0.0
C864 C 0.23004 0.89731 0.44045 0.0
C865 C 0.25701 0.90496 0.43942 0.0
C866 C 0.25679 0.89182 0.5044 0.0
C867 C 0.23059 0.88641 0.50651 0.0
N868 N 0.19266 0.88602 0.47859 0.0
N869 N 0.29741 0.91327 0.47116 0.0
C870 C 0.21724 0.88963 0.47504 0.0
C871 C 0.27076 0.90316 0.47159 0.0
N872 N 0.21651 0.89664 0.40817 0.0
N873 N 0.26813 0.88576 0.53367 0.0
H874 H 0.30841 0.92198 0.44769 0.0
H875 H 0.30908 0.91511 0.49486 0.0
H876 H 0.2585 0.87765 0.55833 0.0
H877 H 0.28613 0.88666 0.53241 0.0
H878 H 0.19615 0.88853 0.40616 0.0
H879 H 0.22543 0.90263 0.38251 0.0
H880 H 0.1831 0.89098 0.45812 0.0
H881 H 0.18228 0.87937 0.50308 0.0
C882 C 0.10843 0.33084 0.44816 0.0
C883 C 0.08128 0.31287 0.43949 0.0
C884 C 0.07791 0.28995 0.49756 0.0
C885 C 0.10429 0.30921 0.50817 0.0
N886 N 0.1439 0.34991 0.49614 0.0
N887 N 0.03869 0.2798 0.4605 0.0
C888 C 0.11939 0.33028 0.48419 0.0
C889 C 0.06558 0.29378 0.46561 0.0
N890 N 0.1239 0.34767 0.42158 0.0
N891 N 0.06489 0.26744 0.51723 0.0
H892 H 0.02875 0.28265 0.43798 0.0
H893 H 0.02618 0.2675 0.48067 0.0
H894 H 0.07367 0.2633 0.53986 0.0
H895 H 0.04651 0.25171 0.50858 0.0
H896 H 0.14435 0.3593 0.42477 0.0
H897 H 0.11644 0.34871 0.39514 0.0
H898 H 0.1548 0.36713 0.48165 0.0
H899 H 0.1526 0.34972 0.52199 0.0
C900 C 0.10157 0.3355 0.23294 0.0
C901 C 0.07411 0.31794 0.23658 0.0
C902 C 0.0692 0.30582 0.17009 0.0
C903 C 0.09595 0.32538 0.16558 0.0
N904 N 0.13705 0.36111 0.19125 0.0
N905 N 0.03083 0.28993 0.20752 0.0
C906 C 0.11204 0.34085 0.19663 0.0
C907 C 0.05765 0.30399 0.20486 0.0
N908 N 0.11777 0.34627 0.26421 0.0
N909 N 0.055 0.28864 0.14131 0.0
H910 H 0.02147 0.28861 0.23228 0.0
H911 H 0.01773 0.28167 0.18444 0.0
H912 H 0.06286 0.28928 0.11542 0.0
H913 H 0.03631 0.2723 0.14421 0.0
H914 H 0.13827 0.35696 0.2636 0.0
H915 H 0.11087 0.34269 0.29128 0.0
H916 H 0.14868 0.37493 0.21198 0.0
H917 H 0.14556 0.36525 0.1652 0.0
C918 C 0.62844 0.74365 0.21472 0.0
C919 C 0.64946 0.75403 0.24234 0.0
C920 C 0.67903 0.7851 0.19666 0.0
C921 C 0.65732 0.77621 0.17041 0.0
N922 N 0.61026 0.75162 0.15797 0.0
N923 N 0.69332 0.78846 0.26196 0.0
C924 C 0.63165 0.75702 0.18071 0.0
C925 C 0.67439 0.7759 0.23404 0.0
N926 N 0.60596 0.72014 0.2198 0.0
N927 N 0.70416 0.80136 0.18562 0.0
H928 H 0.69047 0.78272 0.28979 0.0
H929 H 0.71083 0.80603 0.25816 0.0
H930 H 0.70845 0.80849 0.15857 0.0
H931 H 0.72085 0.80607 0.20246 0.0
H932 H 0.5912 0.71059 0.19889 0.0
H933 H 0.60331 0.70869 0.24315 0.0
H934 H 0.59087 0.73954 0.1658 0.0
H935 H 0.6119 0.76133 0.133 0.0
C936 C 0.28078 0.91083 0.21052 0.0
C937 C 0.26487 0.91309 0.23707 0.0
C938 C 0.22796 0.89579 0.1905 0.0
C939 C 0.24277 0.89006 0.16608 0.0
N940 N 0.28176 0.88786 0.15579 0.0
N941 N 0.22277 0.9062 0.25407 0.0
C942 C 0.26886 0.89655 0.17678 0.0
C943 C 0.23833 0.9054 0.22747 0.0
N944 N 0.30741 0.9226 0.21754 0.0
N945 N 0.20427 0.89249 0.17812 0.0
H946 H 0.22996 0.91372 0.28107 0.0
H947 H 0.20247 0.89801 0.25013 0.0
H948 H 0.1961 0.88539 0.1513 0.0
H949 H 0.19373 0.89868 0.19326 0.0
H950 H 0.32039 0.92379 0.19766 0.0
H951 H 0.31684 0.93358 0.24192 0.0
H952 H 0.29973 0.88982 0.1644 0.0
H953 H 0.27341 0.87634 0.1316 0.0
C954 C 0.71142 0.92407 0.21589 0.0
C955 C 0.69429 0.93212 0.22921 0.0
C956 C 0.66293 0.90718 0.17748 0.0
C957 C 0.68235 0.90401 0.16029 0.0
N958 N 0.72833 0.91637 0.16023 0.0
N959 N 0.65642 0.93671 0.21454 0.0
C960 C 0.70759 0.9144 0.1786 0.0
C961 C 0.67067 0.92513 0.20788 0.0
N962 N 0.73058 0.92446 0.2389 0.0
N963 N 0.63709 0.89297 0.16521 0.0
H964 H 0.66274 0.95229 0.2333 0.0
H965 H 0.64015 0.93322 0.19754 0.0
H966 H 0.6304 0.87864 0.14416 0.0
H967 H 0.62209 0.89342 0.17895 0.0
H968 H 0.74213 0.917 0.23051 0.0
H969 H 0.73247 0.92877 0.26749 0.0
H970 H 0.74748 0.92579 0.17208 0.0
H971 H 0.72711 0.9115 0.13195 0.0
C972 C 0.09855 0.79053 0.22326 0.0
C973 C 0.07708 0.76466 0.2278 0.0
C974 C 0.08792 0.75148 0.16968 0.0
C975 C 0.10596 0.77806 0.16189 0.0
N976 N 0.12567 0.82353 0.17932 0.0
N977 N 0.04841 0.72137 0.20114 0.0
C978 C 0.1106 0.79782 0.18818 0.0
C979 C 0.07101 0.74526 0.19998 0.0
N980 N 0.10823 0.80785 0.25284 0.0
N981 N 0.08733 0.73211 0.14867 0.0
H982 H 0.03465 0.71629 0.22171 0.0
H983 H 0.04195 0.70759 0.17939 0.0
H984 H 0.10011 0.73586 0.12706 0.0
H985 H 0.0762 0.71247 0.15537 0.0
H986 H 0.12536 0.82614 0.25179 0.0
H987 H 0.10104 0.8029 0.27966 0.0
H988 H 0.12738 0.83857 0.19613 0.0
H989 H 0.13451 0.82975 0.15367 0.0
C990 C 0.22023 0.31597 0.22621 0.0
C991 C 0.24243 0.34029 0.23817 0.0
C992 C 0.23607 0.3608 0.18258 0.0
C993 C 0.21644 0.33605 0.16799 0.0
N994 N 0.1922 0.28921 0.17363 0.0
N995 N 0.27553 0.38429 0.22213 0.0
C996 C 0.20903 0.31332 0.18922 0.0
C997 C 0.25144 0.36233 0.21485 0.0
N998 N 0.20933 0.29569 0.25037 0.0
N999 N 0.24007 0.38292 0.16545 0.0
H1000 H 0.28852 0.38567 0.24382 0.0
H1001 H 0.28396 0.39991 0.20396 0.0
H1002 H 0.22881 0.38246 0.14192 0.0
H1003 H 0.25254 0.40155 0.1769 0.0
H1004 H 0.19156 0.27839 0.24439 0.0
H1005 H 0.21681 0.29699 0.2777 0.0
H1006 H 0.18845 0.27198 0.18623 0.0
H1007 H 0.1835 0.28646 0.14681 0.0
C1008 C 0.22931 0.31372 0.44298 0.0
C1009 C 0.25262 0.33853 0.44043 0.0
C1010 C 0.25032 0.34726 0.50667 0.0
C1011 C 0.22941 0.32114 0.51023 0.0
N1012 N 0.20291 0.27771 0.48308 0.0
N1013 N 0.28836 0.37697 0.47199 0.0
C1014 C 0.21994 0.30382 0.47875 0.0
C1015 C 0.26396 0.35489 0.47283 0.0
N1016 N 0.21549 0.29999 0.41129 0.0
N1017 N 0.25685 0.36491 0.53532 0.0
H1018 H 0.29966 0.38273 0.44832 0.0
H1019 H 0.29855 0.38809 0.49587 0.0
H1020 H 0.24704 0.36007 0.56038 0.0
H1021 H 0.27022 0.3848 0.53277 0.0
H1022 H 0.19705 0.28295 0.41184 0.0
H1023 H 0.22092 0.30706 0.38439 0.0
H1024 H 0.1976 0.26403 0.46145 0.0
H1025 H 0.19622 0.26935 0.50901 0.0
C1026 C 0.68685 0.91201 0.43663 0.0
C1027 C 0.7059 0.93839 0.42937 0.0
C1028 C 0.72716 0.94302 0.49133 0.0
C1029 C 0.70654 0.91765 0.50014 0.0
N1030 N 0.66518 0.87872 0.48323 0.0
N1031 N 0.74107 0.98055 0.45219 0.0
C1032 C 0.68594 0.90227 0.47331 0.0
C1033 C 0.72528 0.95431 0.45734 0.0
N1034 N 0.67025 0.89609 0.40822 0.0
N1035 N 0.74879 0.95614 0.51525 0.0
H1036 H 0.73988 0.98982 0.42808 0.0
H1037 H 0.75352 0.99355 0.47325 0.0
H1038 H 0.75096 0.94844 0.54044 0.0
H1039 H 0.76568 0.97353 0.50852 0.0
H1040 H 0.65784 0.87603 0.41071 0.0
H1041 H 0.67036 0.90258 0.38108 0.0
H1042 H 0.6481 0.86789 0.4664 0.0
H1043 H 0.66426 0.87073 0.50952 0.0
C1044 C 0.07062 0.78408 0.45101 0.0
C1045 C 0.07872 0.77208 0.4247 0.0
C1046 C 0.11172 0.77466 0.47105 0.0
C1047 C 0.10471 0.78821 0.49621 0.0
N1048 N 0.08287 0.81215 0.50599 0.0
N1049 N 0.11179 0.76251 0.40649 0.0
C1050 C 0.08604 0.79515 0.4846 0.0
C1051 C 0.10078 0.76937 0.43371 0.0
N1052 N 0.04722 0.78329 0.44546 0.0
N1053 N 0.12771 0.76564 0.48315 0.0
H1054 H 0.10494 0.75937 0.37856 0.0
H1055 H 0.12938 0.76265 0.41084 0.0
H1056 H 0.13617 0.76903 0.5102 0.0
H1057 H 0.1309 0.75307 0.46716 0.0
H1058 H 0.03933 0.78953 0.46565 0.0
H1059 H 0.03415 0.77372 0.42269 0.0
H1060 H 0.0712 0.81972 0.49723 0.0
H1061 H 0.09411 0.82073 0.53068 0.0
C1062 C 0.35383 0.11263 0.77533 0.0
C1063 C 0.32756 0.09144 0.76941 0.0
C1064 C 0.3175 0.09787 0.83304 0.0
C1065 C 0.34453 0.11663 0.84043 0.0
N1066 N 0.38945 0.13883 0.82048 0.0
N1067 N 0.28546 0.0609 0.79478 0.0
C1068 C 0.36301 0.12328 0.81206 0.0
C1069 C 0.30958 0.08332 0.79878 0.0
N1070 N 0.36975 0.12324 0.7457 0.0
N1071 N 0.29936 0.0942 0.85863 0.0
H1072 H 0.27918 0.04911 0.77068 0.0
H1073 H 0.27271 0.05261 0.81667 0.0
H1074 H 0.30453 0.10463 0.88398 0.0
H1075 H 0.27906 0.0827 0.85322 0.0
H1076 H 0.38811 0.1404 0.74787 0.0
H1077 H 0.36359 0.11643 0.71818 0.0
H1078 H 0.40387 0.14183 0.80191 0.0
H1079 H 0.39715 0.14692 0.84706 0.0
C1080 C 0.89925 0.23583 0.79219 0.0
C1081 C 0.92476 0.23955 0.78888 0.0
C1082 C 0.9269 0.23073 0.85551 0.0
C1083 C 0.90065 0.22518 0.85818 0.0
N1084 N 0.8606 0.21987 0.82951 0.0
N1085 N 0.9625 0.23892 0.81552 0.0
C1086 C 0.88647 0.22705 0.82662 0.0
C1087 C 0.93851 0.23658 0.82006 0.0
N1088 N 0.88744 0.24094 0.76247 0.0
N1089 N 0.94086 0.23097 0.8871 0.0
H1090 H 0.97241 0.2448 0.79057 0.0
H1091 H 0.9721 0.23384 0.83572 0.0
H1092 H 0.93263 0.22569 0.9133 0.0
H1093 H 0.96099 0.23785 0.88804 0.0
H1094 H 0.87008 0.24124 0.76399 0.0
H1095 H 0.89594 0.24666 0.73651 0.0
H1096 H 0.8482 0.21805 0.8068 0.0
H1097 H 0.85083 0.214 0.85457 0.0
C1098 C 0.72804 0.63224 0.7882 0.0
C1099 C 0.74417 0.65128 0.76236 0.0
C1100 C 0.78154 0.66867 0.80833 0.0
C1101 C 0.7661 0.6474 0.83184 0.0
N1102 N 0.72663 0.60542 0.83945 0.0
N1103 N 0.78688 0.68653 0.74585 0.0
C1104 C 0.73988 0.62818 0.82043 0.0
C1105 C 0.77112 0.66939 0.77191 0.0
N1106 N 0.70122 0.61833 0.78227 0.0
N1107 N 0.80587 0.68824 0.82102 0.0
H1108 H 0.77964 0.68778 0.71933 0.0
H1109 H 0.80727 0.69836 0.74965 0.0
H1110 H 0.81413 0.68787 0.84717 0.0
H1111 H 0.81704 0.70553 0.8068 0.0
H1112 H 0.68838 0.60597 0.80211 0.0
H1113 H 0.69166 0.62132 0.75936 0.0
H1114 H 0.70834 0.58979 0.83023 0.0
H1115 H 0.73521 0.60094 0.86194 0.0
C1116 C 0.72063 0.63287 0.5276 0.0
C1117 C 0.73662 0.6474 0.55933 0.0
C1118 C 0.77507 0.6701 0.5202 0.0
C1119 C 0.75941 0.65427 0.48916 0.0
N1120 N 0.71892 0.61709 0.46461 0.0
N1121 N 0.77989 0.67637 0.58769 0.0
C1122 C 0.73267 0.63454 0.49331 0.0
C1123 C 0.76411 0.66511 0.55618 0.0
N1124 N 0.69378 0.61845 0.5297 0.0
N1125 N 0.80013 0.69032 0.51506 0.0
H1126 H 0.77263 0.67302 0.61455 0.0
H1127 H 0.80041 0.68727 0.58762 0.0
H1128 H 0.809 0.69408 0.48929 0.0
H1129 H 0.81149 0.70441 0.53562 0.0
H1130 H 0.68095 0.60978 0.50645 0.0
H1131 H 0.68407 0.61716 0.55408 0.0
H1132 H 0.70029 0.60061 0.46735 0.0
H1133 H 0.72708 0.61768 0.43899 0.0
C1134 C 0.32103 0.11177 0.56005 0.0
C1135 C 0.32792 0.09264 0.56784 0.0
C1136 C 0.34504 0.09866 0.505 0.0
C1137 C 0.33237 0.11259 0.49471 0.0
N1138 N 0.30553 0.13021 0.51263 0.0
N1139 N 0.34291 0.06474 0.54386 0.0
C1140 C 0.31981 0.11884 0.52235 0.0
C1141 C 0.33932 0.08542 0.53949 0.0
N1142 N 0.31622 0.12362 0.58868 0.0
N1143 N 0.36255 0.09805 0.48181 0.0
H1144 H 0.33729 0.05296 0.56722 0.0
H1145 H 0.34878 0.05746 0.52222 0.0
H1146 H 0.36783 0.10828 0.45685 0.0
H1147 H 0.37391 0.08992 0.48949 0.0
H1148 H 0.31329 0.13922 0.58466 0.0
H1149 H 0.31834 0.11996 0.61677 0.0
H1150 H 0.29389 0.1327 0.53136 0.0
H1151 H 0.30334 0.13501 0.48523 0.0
C1152 C 0.94058 0.24628 0.5556 0.0
C1153 C 0.92311 0.24272 0.58413 0.0
C1154 C 0.88628 0.22638 0.53761 0.0
C1155 C 0.90321 0.22709 0.50993 0.0
N1156 N 0.94546 0.23369 0.49358 0.0
N1157 N 0.8792 0.22774 0.60391 0.0
C1158 C 0.93015 0.23607 0.51913 0.0
C1159 C 0.89589 0.23243 0.5756 0.0
N1160 N 0.96724 0.2597 0.56335 0.0
N1161 N 0.86128 0.22049 0.52739 0.0
H1162 H 0.88587 0.23286 0.63179 0.0
H1163 H 0.85873 0.2175 0.60017 0.0
H1164 H 0.85363 0.21579 0.49986 0.0
H1165 H 0.84882 0.22213 0.5455 0.0
H1166 H 0.98112 0.26528 0.54287 0.0
H1167 H 0.97563 0.26745 0.58987 0.0
H1168 H 0.96435 0.23723 0.50006 0.0
H1169 H 0.93853 0.22587 0.46666 0.0
C1170 C 0.38224 0.27515 0.52705 0.0
C1171 C 0.36918 0.26123 0.55925 0.0
C1172 C 0.34154 0.22178 0.52062 0.0
C1173 C 0.3554 0.23545 0.48876 0.0
N1174 N 0.39255 0.27301 0.46265 0.0
N1175 N 0.34027 0.22034 0.58842 0.0
C1176 C 0.37692 0.2615 0.49233 0.0
C1177 C 0.34994 0.23422 0.55654 0.0
N1178 N 0.39872 0.30163 0.52917 0.0
N1179 N 0.31982 0.19727 0.51634 0.0
H1180 H 0.3461 0.22884 0.61517 0.0
H1181 H 0.3283 0.20012 0.58863 0.0
H1182 H 0.31337 0.18737 0.49057 0.0
H1183 H 0.30712 0.1874 0.53775 0.0
H1184 H 0.40637 0.31318 0.5058 0.0
H1185 H 0.40306 0.31248 0.55398 0.0
H1186 H 0.41015 0.29094 0.46463 0.0
H1187 H 0.38925 0.26357 0.43676 0.0
C1188 C 0.74606 0.08302 0.53716 0.0
C1189 C 0.7541 0.10171 0.56681 0.0
C1190 C 0.78591 0.13545 0.52607 0.0
C1191 C 0.77962 0.11622 0.4979 0.0
N1192 N 0.75952 0.07044 0.48199 0.0
N1193 N 0.78759 0.14391 0.59245 0.0
C1194 C 0.76156 0.08957 0.50519 0.0
C1195 C 0.77582 0.12743 0.56221 0.0
N1196 N 0.72289 0.05962 0.53819 0.0
N1197 N 0.80055 0.16135 0.51815 0.0
H1198 H 0.78201 0.1383 0.61982 0.0
H1199 H 0.8049 0.16201 0.5908 0.0
H1200 H 0.80769 0.16817 0.49175 0.0
H1201 H 0.80333 0.17597 0.53687 0.0
H1202 H 0.71523 0.04654 0.51549 0.0
H1203 H 0.70978 0.05453 0.55968 0.0
H1204 H 0.74824 0.05067 0.488 0.0
H1205 H 0.77135 0.0744 0.45908 0.0
C1206 C 0.88142 0.63399 0.54541 0.0
C1207 C 0.90295 0.65879 0.55745 0.0
C1208 C 0.89469 0.67864 0.50286 0.0
C1209 C 0.87593 0.65366 0.48787 0.0
N1210 N 0.85374 0.6069 0.49268 0.0
N1211 N 0.93479 0.70305 0.54065 0.0
C1212 C 0.86982 0.63105 0.50854 0.0
C1213 C 0.91093 0.68066 0.53416 0.0
N1214 N 0.87142 0.61358 0.56936 0.0
N1215 N 0.89699 0.70054 0.48718 0.0
H1216 H 0.94847 0.70476 0.56145 0.0
H1217 H 0.94231 0.71866 0.52238 0.0
H1218 H 0.88473 0.69978 0.46481 0.0
H1219 H 0.909 0.71912 0.49908 0.0
H1220 H 0.85415 0.59584 0.56326 0.0
H1221 H 0.87908 0.61509 0.5966 0.0
H1222 H 0.85084 0.58983 0.50489 0.0
H1223 H 0.84481 0.6041 0.466 0.0
C1224 C 0.88623 0.6387 0.76242 0.0
C1225 C 0.91001 0.66304 0.75921 0.0
C1226 C 0.90682 0.67449 0.82368 0.0
C1227 C 0.88542 0.64878 0.82844 0.0
N1228 N 0.85788 0.60468 0.80411 0.0
N1229 N 0.9458 0.70214 0.78937 0.0
C1230 C 0.87589 0.63036 0.79829 0.0
C1231 C 0.92108 0.68053 0.79048 0.0
N1232 N 0.87294 0.62396 0.73115 0.0
N1233 N 0.91333 0.69321 0.85069 0.0
H1234 H 0.95757 0.70671 0.76629 0.0
H1235 H 0.95574 0.71404 0.81275 0.0
H1236 H 0.90306 0.68951 0.87523 0.0
H1237 H 0.92713 0.71287 0.84704 0.0
H1238 H 0.85421 0.60731 0.73179 0.0
H1239 H 0.87925 0.62982 0.70411 0.0
H1240 H 0.8525 0.59011 0.78386 0.0
H1241 H 0.85017 0.59751 0.83014 0.0
C1242 C 0.3558 0.26107 0.78574 0.0
C1243 C 0.37509 0.26452 0.76002 0.0
C1244 C 0.39522 0.25022 0.80818 0.0
C1245 C 0.37408 0.24371 0.83194 0.0
N1246 N 0.32959 0.23499 0.83645 0.0
N1247 N 0.40662 0.25206 0.74383 0.0
C1248 C 0.35274 0.24639 0.81836 0.0
C1249 C 0.39277 0.25584 0.77022 0.0
N1250 N 0.34176 0.27325 0.78112 0.0
N1251 N 0.41826 0.25265 0.82183 0.0
H1252 H 0.40352 0.25338 0.71519 0.0
H1253 H 0.41838 0.24415 0.75023 0.0
H1254 H 0.42203 0.25105 0.85012 0.0
H1255 H 0.43474 0.25937 0.80556 0.0
H1256 H 0.32897 0.27252 0.80102 0.0
H1257 H 0.34551 0.28693 0.76057 0.0
H1258 H 0.31292 0.23498 0.8258 0.0
H1259 H 0.32622 0.22311 0.85955 0.0
C1260 C 0.75271 0.08252 0.79506 0.0
C1261 C 0.75834 0.10111 0.76656 0.0
C1262 C 0.78629 0.13643 0.81195 0.0
C1263 C 0.78147 0.11768 0.83968 0.0
N1264 N 0.76836 0.07323 0.85311 0.0
N1265 N 0.78782 0.14489 0.74556 0.0
C1266 C 0.76757 0.09082 0.82954 0.0
C1267 C 0.77749 0.12784 0.77425 0.0
N1268 N 0.73194 0.05747 0.79088 0.0
N1269 N 0.79802 0.16222 0.82163 0.0
H1270 H 0.78301 0.13902 0.71749 0.0
H1271 H 0.80338 0.16406 0.74953 0.0
H1272 H 0.80461 0.16932 0.84891 0.0
H1273 H 0.7993 0.17622 0.80302 0.0
H1274 H 0.72585 0.0442 0.8126 0.0
H1275 H 0.71883 0.05067 0.76768 0.0
H1276 H 0.76018 0.05362 0.84578 0.0
H1277 H 0.77985 0.07896 0.87804 0.0
C1278 C 0.04392 0.33774 0.01132 0.0
C1279 C 0.05092 0.36422 0.0082 0.0
C1280 C 0.09543 0.37846 0.03469 0.0
C1281 C 0.08837 0.35201 0.03778 0.0
N1282 N 0.05839 0.30681 0.02128 0.0
N1283 N 0.08468 0.40973 0.00911 0.0
C1284 C 0.06348 0.33181 0.02317 0.0
C1285 C 0.07716 0.38459 0.01745 0.0
N1286 N 0.01815 0.31823 0.00562 0.0
N1287 N 0.11927 0.39762 0.04957 0.0
H1288 H 0.07179 0.41477 -0.00358 0.0
H1289 H 0.10407 0.42525 0.01185 0.0
H1290 H 0.13351 0.39376 0.06046 0.0
H1291 H 0.12451 0.41702 0.05261 0.0
H1292 H 0.01122 0.2988 0.01184 0.0
H1293 H 0.00305 0.32159 -0.00237 0.0
H1294 H 0.04174 0.2916 0.00748 0.0
H1295 H 0.07202 0.30169 0.03053 0.0
C1296 C 0.67506 0.72255 0.01959 0.0
C1297 C 0.64908 0.70266 0.00823 0.0
C1298 C 0.63168 0.73003 0.02744 0.0
C1299 C 0.65753 0.74964 0.03973 0.0
N1300 N 0.70447 0.7675 0.04035 0.0
N1301 N 0.60388 0.68939 -0.00731 0.0
C1302 C 0.67947 0.74689 0.03315 0.0
C1303 C 0.62775 0.70706 0.00939 0.0
N1304 N 0.69519 0.71759 0.01955 0.0
N1305 N 0.61083 0.73302 0.03443 0.0
H1306 H 0.6005 0.67245 0.97911 0.0
H1307 H 0.58814 0.69245 -0.01058 0.0
H1308 H 0.61323 0.75021 0.04578 0.0
H1309 H 0.59117 0.71822 0.03061 0.0
H1310 H 0.71392 0.73001 0.03161 0.0
H1311 H 0.6928 0.70013 0.00943 0.0
H1312 H 0.72142 0.76775 0.03287 0.0
H1313 H 0.70829 0.78535 0.05111 0.0
C1314 C 0.28607 0.89604 -0.0139 0.0
C1315 C 0.29723 0.92332 -0.01371 0.0
C1316 C 0.25871 0.9171 0.01884 0.0
C1317 C 0.25347 0.892 0.02954 0.0
N1318 N 0.26498 0.85847 0.02474 0.0
N1319 N 0.28903 0.95867 -0.0091 0.0
C1320 C 0.26737 0.88129 0.01285 0.0
C1321 C 0.28178 0.93356 -0.00137 0.0
N1322 N 0.2937 0.88441 0.96089 0.0
N1323 N 0.24154 0.92486 0.02793 0.0
H1324 H 0.30287 0.96938 0.97102 0.0
H1325 H 0.28093 0.96857 0.00318 0.0
H1326 H 0.22428 0.91271 0.0418 0.0
H1327 H 0.24315 0.94222 0.01931 0.0
H1328 H 0.28487 0.86421 0.95838 0.0
H1329 H 0.30636 0.89497 0.93963 0.0
H1330 H 0.27681 0.85166 0.01514 0.0
H1331 H 0.25359 0.84781 0.04686 0.0
C1332 C 0.39413 0.083 -0.00938 0.0
C1333 C 0.3703 0.06042 0.00053 0.0
C1334 C 0.34608 0.08258 0.98459 0.0
C1335 C 0.36893 0.10297 0.96841 0.0
N1336 N 0.41469 0.12212 0.95377 0.0
N1337 N 0.32287 0.0377 0.00446 0.0
C1338 C 0.3931 0.1033 0.97131 0.0
C1339 C 0.34609 0.06007 -0.00246 0.0
N1340 N 0.41776 0.08514 0.00013 0.0
N1341 N 0.32431 0.08475 -0.01286 0.0
H1342 H 0.32183 0.02063 0.01343 0.0
H1343 H 0.30441 0.03538 -0.00149 0.0
H1344 H 0.32388 0.10106 0.97771 0.0
H1345 H 0.30779 0.07174 0.00168 0.0
H1346 H 0.43591 0.10214 -0.00311 0.0
H1347 H 0.41915 0.07074 0.01476 0.0
H1348 H 0.43179 0.12149 0.95089 0.0
H1349 H 0.41496 0.13759 0.93987 0.0
C1350 C 0.89565 0.30047 0.97657 0.0
C1351 C 0.91695 0.3096 0.00381 0.0
C1352 C 0.91072 0.26575 0.00598 0.0
C1353 C 0.88937 0.25684 0.97921 0.0
N1354 N 0.85631 0.26312 0.94865 0.0
N1355 N 0.93943 0.29907 0.05204 0.0
C1356 C 0.87991 0.27335 0.9683 0.0
C1357 C 0.92273 0.29158 0.02105 0.0
N1358 N 0.89187 0.31761 0.95584 0.0
N1359 N 0.92046 0.25009 0.01544 0.0
H1360 H 0.94793 0.31761 0.06436 0.0
H1361 H 0.94266 0.28617 0.06766 0.0
H1362 H 0.91163 0.23082 0.00586 0.0
H1363 H 0.93805 0.25666 0.03106 0.0
H1364 H 0.87834 0.31181 0.93314 0.0
H1365 H 0.90402 0.33778 0.95819 0.0
H1366 H 0.84721 0.27375 0.94255 0.0
H1367 H 0.84466 0.24323 0.94203 0.0
C1368 C 0.7151 0.63719 -0.00109 0.0
C1369 C 0.69191 0.61524 0.98277 0.0
C1370 C 0.71929 0.60338 0.94866 0.0
C1371 C 0.74204 0.6276 0.95899 0.0
N1372 N 0.76178 0.66866 -0.00762 0.0
N1373 N 0.67286 0.58229 0.93315 0.0
C1374 C 0.74004 0.64485 0.98385 0.0
C1375 C 0.69421 0.59951 0.95533 0.0
N1376 N 0.71348 0.65018 0.02907 0.0
N1377 N 0.72143 0.58425 0.93144 0.0
H1378 H 0.65447 0.58064 0.93391 0.0
H1379 H 0.67436 0.57226 0.9105 0.0
H1380 H 0.73946 0.58613 0.92585 0.0
H1381 H 0.70529 0.56552 0.9263 0.0
H1382 H 0.72999 0.6649 0.04381 0.0
H1383 H 0.69574 0.64461 0.04154 0.0
H1384 H 0.761 0.6833 0.00693 0.0
H1385 H 0.78042 0.67407 0.98312 0.0
C1386 C 0.94128 0.64752 -0.01034 0.0
C1387 C 0.94468 0.62678 0.97835 0.0
C1388 C 0.89904 0.60277 0.95299 0.0
C1389 C 0.89802 0.62579 0.95662 0.0
N1390 N 0.91639 0.66932 0.98115 0.0
N1391 N 0.92669 0.58386 0.95069 0.0
C1392 C 0.9184 0.64776 0.97666 0.0
C1393 C 0.92326 0.60379 0.96139 0.0
N1394 N 0.96008 0.66693 0.01266 0.0
N1395 N 0.87703 0.58029 0.94029 0.0
H1396 H 0.94398 0.58373 0.95673 0.0
H1397 H 0.91296 0.568 0.93413 0.0
H1398 H 0.85925 0.57937 0.93358 0.0
H1399 H 0.87561 0.56222 0.9397 0.0
H1400 H 0.95812 0.68175 0.02423 0.0
H1401 H 0.97676 0.66679 0.0229 0.0
H1402 H 0.93176 0.68723 -0.0086 0.0
H1403 H 0.89922 0.66934 0.97331 0.0
C1404 C 0.39172 0.30433 -0.00255 0.0
C1405 C 0.3666 0.30177 -0.00052 0.0
C1406 C 0.34552 0.25696 0.97439 0.0
C1407 C 0.37071 0.26131 0.96632 0.0
N1408 N 0.41807 0.28879 0.96982 0.0
N1409 N 0.31928 0.27599 -0.01042 0.0
C1410 C 0.39394 0.28474 0.97838 0.0
C1411 C 0.34332 0.27796 -0.01141 0.0
N1412 N 0.41335 0.32537 0.01423 0.0
N1413 N 0.32376 0.23275 0.96794 0.0
H1414 H 0.31684 0.29084 -4e-05 0.0
H1415 H 0.3019 0.26034 0.97803 0.0
H1416 H 0.32502 0.21721 0.95736 0.0
H1417 H 0.30496 0.22742 0.9761 0.0
H1418 H 0.43186 0.32729 0.01686 0.0
H1419 H 0.41225 0.33991 0.02863 0.0
H1420 H 0.43559 0.30667 0.97339 0.0
H1421 H 0.42046 0.27444 0.95734 0.0
C1422 C 0.70867 0.09124 0.00083 0.0
C1423 C 0.69432 0.06511 -0.0135 0.0
C1424 C 0.73479 0.07209 0.95962 0.0
C1425 C 0.74669 0.09929 0.96556 0.0
N1426 N 0.74465 0.13536 -0.00881 0.0
N1427 N 0.6937 0.03248 0.94525 0.0
C1428 C 0.73372 0.1091 -0.01357 0.0
C1429 C 0.70741 0.05575 0.96452 0.0
N1430 N 0.69875 0.0988 0.02872 0.0
N1431 N 0.74956 0.06207 0.94807 0.0
H1432 H 0.67322 0.02082 0.94402 0.0
H1433 H 0.7025 0.02632 0.92642 0.0
H1434 H 0.76986 0.07379 0.9449 0.0
H1435 H 0.74223 0.04209 0.94592 0.0
H1436 H 0.70937 0.11703 0.04207 0.0
H1437 H 0.68123 0.08585 0.04144 0.0
H1438 H 0.73459 0.14362 0.00255 0.0
H1439 H 0.76317 0.14891 0.98161 0.0
C1440 C 0.61799 0.90981 0.00503 0.0
C1441 C 0.63785 0.93445 -0.00773 0.0
C1442 C 0.67156 0.92348 0.00945 0.0
C1443 C 0.65234 0.90114 0.02801 0.0
N1444 N 0.60723 0.87248 0.04383 0.0
N1445 N 0.68409 0.96587 0.98476 0.0
C1446 C 0.62543 0.89393 0.0254 0.0
C1447 C 0.66477 0.94141 -0.00562 0.0
N1448 N 0.59202 0.90154 -0.0028 0.0
N1449 N 0.69646 0.92775 0.00697 0.0
H1450 H 0.68022 0.97989 0.97431 0.0
H1451 H 0.70414 0.97313 -0.01009 0.0
H1452 H 0.70204 0.91514 0.01834 0.0
H1453 H 0.71076 0.94225 -0.00926 0.0
H1454 H 0.57657 0.88287 0.00272 0.0
H1455 H 0.58605 0.91268 0.98204 0.0
H1456 H 0.5879 0.86787 0.04717 0.0
H1457 H 0.61191 0.85979 0.05733 0.0
C1458 C 0.09306 0.73049 0.98031 0.0
C1459 C 0.06998 0.71151 -0.00153 0.0
C1460 C 0.06856 0.74741 0.02816 0.0
C1461 C 0.09579 0.76347 0.02326 0.0
N1462 N 0.12433 0.77681 0.9719 0.0
N1463 N 0.03442 0.70354 0.03955 0.0
C1464 C 0.10552 0.75714 -0.00786 0.0
C1465 C 0.05667 0.72032 0.02134 0.0
N1466 N 0.10304 0.723 0.95243 0.0
N1467 N 0.05436 0.75822 0.0387 0.0
H1468 H 0.02536 0.68338 0.03845 0.0
H1469 H 0.02621 0.71005 0.05888 0.0
H1470 H 0.06341 0.77839 0.04272 0.0
H1471 H 0.03386 0.7475 0.04001 0.0
H1472 H 0.12138 0.73526 0.94135 0.0
H1473 H 0.09277 0.70428 0.94045 0.0
H1474 H 0.13119 0.77398 0.94702 0.0
H1475 H 0.13104 0.79628 0.97877 0.0
C1476 C 0.27722 0.37288 -0.0027 0.0
C1477 C 0.29256 0.36219 0.0108 0.0
C1478 C 0.25327 0.32815 0.04094 0.0
C1479 C 0.2411 0.34315 0.03648 0.0
N1480 N 0.24225 0.381 0.01061 0.0
N1481 N 0.29473 0.33008 0.05036 0.0
C1482 C 0.25301 0.36564 0.01412 0.0
C1483 C 0.28036 0.33952 0.03325 0.0
N1484 N 0.28561 0.38968 0.96812 0.0
N1485 N 0.23911 0.30341 0.05412 0.0
H1486 H 0.315 0.33858 0.0487 0.0
H1487 H 0.28685 0.31525 0.06986 0.0
H1488 H 0.2192 0.29482 0.06001 0.0
H1489 H 0.2463 0.29076 0.0552 0.0
H1490 H 0.27421 0.39649 0.95542 0.0
H1491 H 0.30248 0.39423 0.95386 0.0
H1492 H 0.25189 0.3992 -0.00183 0.0
H1493 H 0.22452 0.37637 0.0223 0.0
C1494 C 0.74446 0.71653 0.34585 0.0
C1495 C 0.71909 0.69749 0.33087 0.0
C1496 C 0.72837 0.66276 0.34536 0.0
C1497 C 0.75345 0.68172 0.36131 0.0
N1498 N 0.78789 0.72653 0.36959 0.0
N1499 N 0.68891 0.65343 0.30881 0.0
C1500 C 0.76232 0.70864 0.35902 0.0
C1501 C 0.71183 0.67093 0.32788 0.0
N1502 N 0.75111 0.74201 0.34842 0.0
N1503 N 0.71965 0.63684 0.34913 0.0
H1504 H 0.67569 0.65838 0.29716 0.0
H1505 H 0.68384 0.63445 0.30207 0.0
H1506 H 0.73146 0.63007 0.36054 0.0
H1507 H 0.70033 0.62197 0.34286 0.0
H1508 H 0.76797 0.75649 0.36278 0.0
H1509 H 0.73902 0.74857 0.33737 0.0
H1510 H 0.79656 0.74652 0.36607 0.0
H1511 H 0.80121 0.72104 0.37914 0.0
C1512 C 0.33266 0.05369 0.33652 0.0
C1513 C 0.30651 0.03193 0.33399 0.0
C1514 C 0.2898 0.05927 0.35659 0.0
C1515 C 0.31612 0.07978 0.36436 0.0
N1516 N 0.36294 0.09643 0.36401 0.0
N1517 N 0.25994 0.0133 0.34136 0.0
C1518 C 0.33767 0.07716 0.35431 0.0
C1519 C 0.28494 0.03459 0.34361 0.0
N1520 N 0.35275 0.05181 0.32224 0.0
N1521 N 0.26957 0.06357 0.36166 0.0
H1522 H 0.25565 0.99531 0.33043 0.0
H1523 H 0.24361 0.01299 0.35182 0.0
H1524 H 0.27279 0.08153 0.37102 0.0
H1525 H 0.24997 0.05032 0.35376 0.0
H1526 H 0.37174 0.06771 0.3195 0.0
H1527 H 0.35001 0.03466 0.3103 0.0
H1528 H 0.37925 0.09433 0.36213 0.0
H1529 H 0.3676 0.11418 0.37624 0.0
C1530 C 0.95313 0.28993 0.37612 0.0
C1531 C 0.96169 0.27876 0.34888 0.0
C1532 C 0.91594 0.24249 0.33974 0.0
C1533 C 0.91052 0.24947 0.37446 0.0
N1534 N 0.91501 0.28752 0.40371 0.0
N1535 N 0.9493 0.24803 0.29721 0.0
C1536 C 0.92618 0.276 0.38518 0.0
C1537 C 0.94236 0.25627 0.32793 0.0
N1538 N 0.97052 0.31217 0.39582 0.0
N1539 N 0.8955 0.22572 0.3162 0.0
H1540 H 0.96774 0.25914 0.28564 0.0
H1541 H 0.93689 0.2301 0.28377 0.0
H1542 H 0.876 0.21914 0.32267 0.0
H1543 H 0.89784 0.22125 0.28901 0.0
H1544 H 0.96507 0.31886 0.41868 0.0
H1545 H 0.99058 0.32323 0.39131 0.0
H1546 H 0.92482 0.30746 0.40978 0.0
H1547 H 0.89501 0.27698 0.40963 0.0
C1548 C 0.06721 0.42338 0.30426 0.0
C1549 C 0.04529 0.4032 0.32256 0.0
C1550 C 0.0242 0.42932 0.3228 0.0
C1551 C 0.0452 0.44867 0.30223 0.0
N1552 N 0.08968 0.468 0.2824 0.0
N1553 N 0.00695 0.38961 0.35859 0.0
C1554 C 0.06786 0.44704 0.29635 0.0
C1555 C 0.02512 0.40715 0.33503 0.0
N1556 N 0.0864 0.41923 0.2921 0.0
N1557 N 0.0028 0.43161 0.3288 0.0
H1558 H 0.00745 0.37336 0.36815 0.0
H1559 H 0.99292 0.39225 0.37123 0.0
H1560 H 0.00226 0.44826 0.3217 0.0
H1561 H 0.98532 0.41681 0.33942 0.0
H1562 H 0.1012 0.43182 0.27466 0.0
H1563 H 0.0868 0.40235 0.29784 0.0
H1564 H 0.10772 0.46911 0.28026 0.0
H1565 H 0.09037 0.48537 0.27605 0.0
C1566 C 0.58913 0.6201 0.34707 0.0
C1567 C 0.58243 0.63784 0.33114 0.0
C1568 C 0.54586 0.60149 0.29512 0.0
C1569 C 0.55633 0.58555 0.30447 0.0
N1570 N 0.58869 0.57968 0.33881 0.0
N1571 N 0.55603 0.64549 0.28501 0.0
C1572 C 0.57792 0.59466 0.33084 0.0
C1573 C 0.56084 0.62852 0.30438 0.0
N1574 N 0.60594 0.62748 0.37791 0.0
N1575 N 0.52202 0.59083 0.27604 0.0
H1576 H 0.5675 0.66567 0.28821 0.0
H1577 H 0.54228 0.63967 0.26258 0.0
H1578 H 0.51089 0.57103 0.26875 0.0
H1579 H 0.51223 0.60095 0.27111 0.0
H1580 H 0.60982 0.61468 0.39261 0.0
H1581 H 0.61382 0.64568 0.39109 0.0
H1582 H 0.60646 0.5866 0.35413 0.0
H1583 H 0.58059 0.56072 0.32827 0.0
C1584 C 0.39061 0.95207 0.35233 0.0
C1585 C 0.37998 0.9683 0.34792 0.0
C1586 C 0.41833 0.99774 0.3119 0.0
C1587 C 0.42252 0.97671 0.30526 0.0
N1588 N 0.40879 0.93139 0.31751 0.0
N1589 N 0.38872 0.01139 0.3336 0.0
C1590 C 0.40825 0.95338 0.32582 0.0
C1591 C 0.39559 0.99292 0.33124 0.0
N1592 N 0.38256 0.93444 0.38038 0.0
N1593 N 0.43611 0.02205 0.29982 0.0
H1594 H 0.37515 0.01011 0.35252 0.0
H1595 H 0.39692 0.02815 0.31764 0.0
H1596 H 0.45316 0.02593 0.28659 0.0
H1597 H 0.43528 0.03862 0.30575 0.0
H1598 H 0.39089 0.92301 0.38584 0.0
H1599 H 0.3698 0.93374 0.40039 0.0
H1600 H 0.39675 0.91366 0.33035 0.0
H1601 H 0.4184 0.92961 0.29499 0.0
C1602 C 0.60991 0.98919 0.33719 0.0
C1603 C 0.61016 0.96559 0.33972 0.0
C1604 C 0.56766 0.94213 0.30453 0.0
C1605 C 0.56777 0.96582 0.30134 0.0
N1606 N 0.58447 0.0098 0.32286 0.0
N1607 N 0.58637 0.91873 0.3353 0.0
C1608 C 0.58736 0.98862 0.32074 0.0
C1609 C 0.58797 0.94173 0.32652 0.0
N1610 N 0.63187 0.01243 0.34775 0.0
N1611 N 0.54897 0.92042 0.28491 0.0
H1612 H 0.60089 0.91795 0.35177 0.0
H1613 H 0.56967 0.90051 0.32943 0.0
H1614 H 0.53334 0.91978 0.26944 0.0
H1615 H 0.54973 0.9035 0.28227 0.0
H1616 H 0.63396 0.03048 0.34222 0.0
H1617 H 0.64892 0.01394 0.35968 0.0
H1618 H 0.59675 0.02625 0.33952 0.0
H1619 H 0.56815 0.00982 0.3107 0.0
C1620 C 0.04653 0.64255 0.33475 0.0
C1621 C 0.02184 0.64109 0.3312 0.0
C1622 C 0.00201 0.59707 0.30332 0.0
C1623 C 0.02749 0.60064 0.30075 0.0
N1624 N 0.07465 0.62769 0.31179 0.0
N1625 N 0.97608 0.61757 0.30926 0.0
C1626 C 0.04992 0.62347 0.31638 0.0
C1627 C 0.9994 0.6183 0.31535 0.0
N1628 N 0.06665 0.66202 0.3562 0.0
N1629 N 0.98035 0.57337 0.29383 0.0
H1630 H 0.97334 0.63279 0.31679 0.0
H1631 H 0.95999 0.60275 0.29398 0.0
H1632 H 0.98189 0.55763 0.28486 0.0
H1633 H 0.96109 0.5686 0.29825 0.0
H1634 H 0.0843 0.66273 0.36287 0.0
H1635 H 0.06466 0.67606 0.37048 0.0
H1636 H 0.09185 0.6454 0.31825 0.0
H1637 H 0.07807 0.61407 0.29923 0.0
C1638 C 0.37654 0.38889 0.2973 0.0
C1639 C 0.3659 0.40009 0.32082 0.0
C1640 C 0.40683 0.44262 0.31668 0.0
C1641 C 0.41747 0.43088 0.2947 0.0
N1642 N 0.41641 0.39144 0.27771 0.0
N1643 N 0.37514 0.43565 0.36302 0.0
C1644 C 0.40371 0.40344 0.29017 0.0
C1645 C 0.38241 0.42638 0.33383 0.0
N1646 N 0.3607 0.36571 0.27856 0.0
N1647 N 0.41924 0.46912 0.31988 0.0
H1648 H 0.35826 0.42384 0.3778 0.0
H1649 H 0.38745 0.45405 0.37525 0.0
H1650 H 0.4372 0.48159 0.30788 0.0
H1651 H 0.41072 0.47862 0.33225 0.0
H1652 H 0.36785 0.35828 0.25893 0.0
H1653 H 0.3402 0.35557 0.27836 0.0
H1654 H 0.4076 0.37122 0.27638 0.0
H1655 H 0.43658 0.4018 0.27298 0.0
C1656 C 0.33106 0.27678 0.3314 0.0
C1657 C 0.30424 0.27014 0.32933 0.0
C1658 C 0.29134 0.22891 0.361 0.0
C1659 C 0.31807 0.2355 0.36264 0.0
N1660 N 0.36234 0.26243 0.34193 0.0
N1661 N 0.25828 0.23779 0.33478 0.0
C1662 C 0.33751 0.25828 0.34503 0.0
C1663 C 0.28417 0.24549 0.34184 0.0
N1664 N 0.35064 0.30146 0.32311 0.0
N1665 N 0.27299 0.20727 0.37893 0.0
H1666 H 0.25248 0.24943 0.32064 0.0
H1667 H 0.24264 0.21916 0.34 0.0
H1668 H 0.27743 0.19414 0.3915 0.0
H1669 H 0.25383 0.20295 0.38289 0.0
H1670 H 0.37063 0.30841 0.32838 0.0
H1671 H 0.34708 0.31596 0.31404 0.0
H1672 H 0.37662 0.27718 0.32596 0.0
H1673 H 0.36796 0.24967 0.35248 0.0
C1674 C 0.75926 0.07115 0.31557 0.0
C1675 C 0.73684 0.05225 0.3349 0.0
C1676 C 0.73627 0.08808 0.36633 0.0
C1677 C 0.76316 0.10434 0.35915 0.0
N1678 N 0.78909 0.1174 0.30493 0.0
N1679 N 0.70304 0.04397 0.37911 0.0
C1680 C 0.77169 0.09788 0.32682 0.0
C1681 C 0.72433 0.06098 0.3594 0.0
N1682 N 0.76875 0.06353 0.28718 0.0
N1683 N 0.7226 0.09867 0.37996 0.0
H1684 H 0.69448 0.02385 0.37776 0.0
H1685 H 0.69535 0.05022 0.39963 0.0
H1686 H 0.73178 0.11879 0.38461 0.0
H1687 H 0.70229 0.08784 0.38334 0.0
H1688 H 0.78673 0.07591 0.27521 0.0
H1689 H 0.75861 0.04458 0.276 0.0
H1690 H 0.79477 0.11429 0.27917 0.0
H1691 H 0.79542 0.13686 0.31126 0.0
C1692 C 0.9468 0.72054 0.36307 0.0
C1693 C 0.95521 0.70829 0.33754 0.0
C1694 C 0.91076 0.66918 0.3361 0.0
C1695 C 0.90248 0.68203 0.36037 0.0
N1696 N 0.90999 0.7222 0.38711 0.0
N1697 N 0.94327 0.67344 0.2927 0.0
C1698 C 0.91962 0.70864 0.36996 0.0
C1699 C 0.93655 0.68334 0.32176 0.0
N1700 N 0.96481 0.74216 0.38357 0.0
N1701 N 0.89438 0.64324 0.32803 0.0
H1702 H 0.96169 0.68361 0.28087 0.0
H1703 H 0.92983 0.65637 0.27804 0.0
H1704 H 0.87506 0.63275 0.33691 0.0
H1705 H 0.90036 0.63196 0.31425 0.0
H1706 H 0.95958 0.75013 0.40507 0.0
H1707 H 0.98514 0.75033 0.38266 0.0
H1708 H 0.92114 0.74229 0.39203 0.0
H1709 H 0.89005 0.71373 0.3927 0.0
C1710 C 0.41489 0.04795 0.66708 0.0
C1711 C 0.38834 0.02738 0.66065 0.0
C1712 C 0.40117 0.99549 0.67772 0.0
C1713 C 0.42664 0.01619 0.68957 0.0
N1714 N 0.45818 0.06211 0.69604 0.0
N1715 N 0.35541 0.98156 0.66272 0.0
C1716 C 0.43372 0.04245 0.68392 0.0
C1717 C 0.38134 0.00108 0.66609 0.0
N1718 N 0.42211 0.07265 0.65651 0.0
N1719 N 0.39582 0.97038 0.67828 0.0
H1720 H 0.34018 0.98473 0.65469 0.0
H1721 H 0.34858 0.96246 0.67075 0.0
H1722 H 0.40961 0.96549 0.68756 0.0
H1723 H 0.37862 0.95463 0.66646 0.0
H1724 H 0.44155 0.08814 0.65715 0.0
H1725 H 0.40877 0.07721 0.6441 0.0
H1726 H 0.4637 0.08166 0.6972 0.0
H1727 H 0.47276 0.0586 0.70652 0.0
C1728 C 0.96021 0.36578 0.68477 0.0
C1729 C 0.98222 0.36322 0.67762 0.0
C1730 C 0.01253 0.40829 0.69953 0.0
C1731 C 0.99051 0.41063 0.70753 0.0
N1732 N 0.94402 0.39446 0.70041 0.0
N1733 N 0.02898 0.38315 0.6702 0.0
C1734 C 0.9645 0.39023 0.6976 0.0
C1735 C 0.00829 0.38496 0.68216 0.0
N1736 N 0.93524 0.34457 0.68024 0.0
N1737 N 0.03739 0.42781 0.71051 0.0
H1738 H 0.02665 0.36609 0.65854 0.0
H1739 H 0.04816 0.39899 0.66915 0.0
H1740 H 0.0413 0.44546 0.72222 0.0
H1741 H 0.05401 0.42611 0.70992 0.0
H1742 H 0.91845 0.34409 0.68909 0.0
H1743 H 0.93134 0.3268 0.66898 0.0
H1744 H 0.92478 0.38136 0.69073 0.0
H1745 H 0.94674 0.41224 0.70969 0.0
C1746 C 0.61672 0.62275 0.70143 0.0
C1747 C 0.62421 0.60966 0.67588 0.0
C1748 C 0.57814 0.57315 0.67222 0.0
C1749 C 0.57366 0.58328 0.70494 0.0
N1750 N 0.57946 0.62467 0.72262 0.0
N1751 N 0.60999 0.57504 0.62955 0.0
C1752 C 0.59 0.61046 0.7109 0.0
C1753 C 0.60415 0.58574 0.65857 0.0
N1754 N 0.63484 0.64557 0.71926 0.0
N1755 N 0.55707 0.5541 0.65179 0.0
H1756 H 0.62789 0.58505 0.61629 0.0
H1757 H 0.59724 0.5562 0.6191 0.0
H1758 H 0.53777 0.54759 0.6593 0.0
H1759 H 0.55847 0.54714 0.62585 0.0
H1760 H 0.62969 0.65393 0.74037 0.0
H1761 H 0.65505 0.65495 0.7159 0.0
H1762 H 0.59023 0.64499 0.72441 0.0
H1763 H 0.55922 0.61586 0.72649 0.0
C1764 C 0.68706 0.74003 0.67045 0.0
C1765 C 0.71057 0.73903 0.67083 0.0
C1766 C 0.73327 0.7807 0.63835 0.0
C1767 C 0.70972 0.78153 0.63772 0.0
N1768 N 0.66679 0.76621 0.66134 0.0
N1769 N 0.75759 0.76133 0.66444 0.0
C1770 C 0.68753 0.76262 0.6568 0.0
C1771 C 0.73421 0.76039 0.65779 0.0
N1772 N 0.66385 0.71874 0.68047 0.0
N1773 N 0.75424 0.7985 0.6187 0.0
H1774 H 0.75889 0.74686 0.67897 0.0
H1775 H 0.77588 0.77749 0.65879 0.0
H1776 H 0.75458 0.81411 0.60511 0.0
H1777 H 0.77067 0.79699 0.61408 0.0
H1778 H 0.64559 0.71723 0.67658 0.0
H1779 H 0.66237 0.70159 0.69001 0.0
H1780 H 0.65099 0.75444 0.67794 0.0
H1781 H 0.6667 0.78257 0.65133 0.0
C1782 C 0.23275 0.96524 0.62568 0.0
C1783 C 0.25444 0.97351 0.65197 0.0
C1784 C 0.24601 0.92882 0.65336 0.0
C1785 C 0.22408 0.92072 0.62788 0.0
N1786 N 0.19186 0.92902 0.59919 0.0
N1787 N 0.27696 0.96164 0.69835 0.0
C1788 C 0.21572 0.93823 0.61773 0.0
C1789 C 0.25956 0.95478 0.66827 0.0
N1790 N 0.22966 0.98306 0.60561 0.0
N1791 N 0.25471 0.91216 0.66181 0.0
H1792 H 0.28663 0.98026 0.71063 0.0
H1793 H 0.27976 0.94826 0.71338 0.0
H1794 H 0.24473 0.89278 0.65243 0.0
H1795 H 0.27253 0.91797 0.67636 0.0
H1796 H 0.21571 0.97784 0.58359 0.0
H1797 H 0.2428 0.0031 0.6077 0.0
H1798 H 0.1836 0.9405 0.59378 0.0
H1799 H 0.17922 0.90922 0.59284 0.0
C1800 C 0.05983 0.30331 0.68101 0.0
C1801 C 0.03626 0.28031 0.66845 0.0
C1802 C 0.06187 0.26806 0.63076 0.0
C1803 C 0.0847 0.29284 0.6382 0.0
N1804 N 0.10562 0.33499 0.66873 0.0
N1805 N 0.01467 0.24507 0.6223 0.0
C1806 C 0.08381 0.31076 0.66308 0.0
C1807 C 0.03719 0.26369 0.64107 0.0
N1808 N 0.05938 0.31766 0.7103 0.0
N1809 N 0.06349 0.24882 0.61288 0.0
H1810 H 0.99611 0.24253 0.62604 0.0
H1811 H 0.01487 0.2344 0.59944 0.0
H1812 H 0.08114 0.25107 0.60429 0.0
H1813 H 0.04758 0.22972 0.61005 0.0
H1814 H 0.07633 0.33336 0.72279 0.0
H1815 H 0.04219 0.31252 0.7241 0.0
H1816 H 0.10548 0.34999 0.6832 0.0
H1817 H 0.12365 0.34034 0.65724 0.0
C1818 C 0.28121 0.31603 0.67514 0.0
C1819 C 0.28262 0.29306 0.67246 0.0
C1820 C 0.24054 0.27093 0.63614 0.0
C1821 C 0.23968 0.29415 0.63766 0.0
N1822 N 0.25439 0.33582 0.66671 0.0
N1823 N 0.2603 0.24675 0.66074 0.0
C1824 C 0.25839 0.31565 0.66019 0.0
C1825 C 0.26109 0.26984 0.65635 0.0
N1826 N 0.30232 0.3387 0.68935 0.0
N1827 N 0.22259 0.25047 0.61374 0.0
H1828 H 0.27494 0.24542 0.676 0.0
H1829 H 0.24406 0.22873 0.65257 0.0
H1830 H 0.20676 0.25024 0.5995 0.0
H1831 H 0.22415 0.23432 0.60768 0.0
H1832 H 0.30367 0.35671 0.68766 0.0
H1833 H 0.31943 0.34003 0.70074 0.0
H1834 H 0.26595 0.35107 0.68566 0.0
H1835 H 0.23786 0.33594 0.6557 0.0
C1836 C 0.67554 0.95211 0.65472 0.0
C1837 C 0.69929 0.97506 0.66709 0.0
C1838 C 0.72513 0.95636 0.64584 0.0
C1839 C 0.70143 0.93347 0.63334 0.0
N1840 N 0.65424 0.90671 0.63429 0.0
N1841 N 0.74559 0.99585 0.68434 0.0
C1842 C 0.67666 0.9304 0.64089 0.0
C1843 C 0.72374 0.97611 0.66587 0.0
N1844 N 0.65219 0.95166 0.65367 0.0
N1845 N 0.749 0.96002 0.63662 0.0
H1846 H 0.74511 0.01039 0.69971 0.0
H1847 H 0.76342 0.99636 0.68756 0.0
H1848 H 0.75103 0.94591 0.62271 0.0
H1849 H 0.76671 0.97769 0.64064 0.0
H1850 H 0.63482 0.93667 0.64098 0.0
H1851 H 0.65047 0.96719 0.66293 0.0
H1852 H 0.63567 0.90233 0.64223 0.0
H1853 H 0.65472 0.89064 0.62406 0.0
C1854 C 0.04154 0.74773 0.66407 0.0
C1855 C 0.02628 0.72247 0.64715 0.0
C1856 C 0.06541 0.7303 0.61487 0.0
C1857 C 0.07786 0.7572 0.6239 0.0
N1858 N 0.07755 0.7921 0.65701 0.0
N1859 N 0.02374 0.69075 0.60214 0.0
C1860 C 0.06613 0.76609 0.64907 0.0
C1861 C 0.03832 0.71367 0.62201 0.0
N1862 N 0.03266 0.75404 0.69467 0.0
N1863 N 0.07934 0.72095 0.59813 0.0
H1864 H 0.00345 0.67851 0.60375 0.0
H1865 H 0.03141 0.68513 0.58081 0.0
H1866 H 0.09926 0.73297 0.59254 0.0
H1867 H 0.07195 0.70112 0.59366 0.0
H1868 H 0.04395 0.77144 0.70989 0.0
H1869 H 0.01526 0.74061 0.70727 0.0
H1870 H 0.06818 0.79986 0.67165 0.0
H1871 H 0.09571 0.80611 0.64697 0.0
C1872 C 0.9922 0.60051 0.66255 0.0
C1873 C 0.96517 0.59299 0.65856 0.0
C1874 C 0.95268 0.55276 0.69274 0.0
C1875 C 0.97965 0.56027 0.69642 0.0
N1876 N 0.02433 0.58784 0.67754 0.0
N1877 N 0.91936 0.55979 0.6626 0.0
C1878 C 0.99909 0.58292 0.67857 0.0
C1879 C 0.94528 0.56836 0.67139 0.0
N1880 N 0.01147 0.62523 0.65379 0.0
N1881 N 0.93432 0.53122 0.71084 0.0
H1882 H 0.91343 0.57073 0.64685 0.0
H1883 H 0.90394 0.5411 0.66808 0.0
H1884 H 0.93901 0.51878 0.72506 0.0
H1885 H 0.91482 0.52632 0.71325 0.0
H1886 H 0.03144 0.63288 0.66037 0.0
H1887 H 0.00755 0.6391 0.64285 0.0
H1888 H 0.03873 0.60246 0.66157 0.0
H1889 H 0.03029 0.57581 0.68992 0.0
C1890 C 0.39478 0.39034 0.67059 0.0
C1891 C 0.4109 0.3812 0.65675 0.0
C1892 C 0.44832 0.42593 0.66207 0.0
C1893 C 0.43542 0.43041 0.69097 0.0
N1894 N 0.39357 0.42502 0.70476 0.0
N1895 N 0.45082 0.39396 0.62425 0.0
C1896 C 0.40745 0.41519 0.6893 0.0
C1897 C 0.43713 0.40015 0.64768 0.0
N1898 N 0.36809 0.37621 0.66406 0.0
N1899 N 0.46785 0.44649 0.64402 0.0
H1900 H 0.44177 0.37673 0.60822 0.0
H1901 H 0.47098 0.40622 0.6206 0.0
H1902 H 0.47186 0.46542 0.64885 0.0
H1903 H 0.47674 0.44441 0.62074 0.0
H1904 H 0.35531 0.38198 0.67292 0.0
H1905 H 0.35902 0.36021 0.64562 0.0
H1906 H 0.37325 0.41457 0.70753 0.0
H1907 H 0.40311 0.44422 0.71506 0.0
C1908 C 0.62615 0.05647 0.70305 0.0
C1909 C 0.63446 0.04398 0.67784 0.0
C1910 C 0.58933 0.0059 0.67421 0.0
C1911 C 0.58114 0.01915 0.69789 0.0
N1912 N 0.58967 0.05958 0.7251 0.0
N1913 N 0.62237 0.00936 0.63248 0.0
C1914 C 0.59888 0.04545 0.7085 0.0
C1915 C 0.61554 0.01943 0.66119 0.0
N1916 N 0.64423 0.07751 0.7245 0.0
N1917 N 0.57242 0.98016 0.66541 0.0
H1918 H 0.6411 0.01906 0.62156 0.0
H1919 H 0.6088 0.99267 0.61717 0.0
H1920 H 0.55285 0.97012 0.67331 0.0
H1921 H 0.57818 0.96855 0.65205 0.0
H1922 H 0.63894 0.08561 0.74574 0.0
H1923 H 0.66448 0.0849 0.72462 0.0
H1924 H 0.6014 0.07955 0.73069 0.0
H1925 H 0.56965 0.05178 0.7295 0.0
loop_
_geom_bond_atom_site_label_1
_geom_bond_atom_site_label_2
_geom_bond_distance
_geom_bond_site_symmetry_2
_ccdc_geom_bond_type
Zn0 O3 2.031 1_554 S
Zn0 O5 2.049 . S
Zn0 O10 2.067 1_554 S
Zn1 O2 1.962 1_455 S
Zn1 O4 1.986 . S
Zn1 O6 1.996 1_455 S
Zn1 O9 1.943 1_554 S
O2 Zn1 1.962 1_655 S
O2 C7 1.254 1_554 S
O3 Zn0 2.031 1_556 S
O3 C7 1.269 . S
O4 Zn1 1.986 . S
O4 C11 1.262 . S
O5 Zn0 2.049 . S
O5 C13 1.260 . S
O6 Zn1 1.996 1_655 S
O6 C13 1.257 . S
C7 O2 1.254 1_556 S
C7 O3 1.269 . S
C8 O9 1.249 . S
C8 O10 1.270 1_455 S
O9 Zn1 1.943 1_556 S
O9 C8 1.249 . S
O10 Zn0 2.067 1_556 S
O10 C8 1.270 1_655 S
C11 O4 1.262 . S
C11 O12 1.232 . S
O12 C11 1.232 . S
C13 O5 1.260 . S
C13 O6 1.257 . S
Zn14 O17 2.031 1_554 S
Zn14 O19 2.049 . S
Zn14 O24 2.067 1_554 S
Zn15 O16 1.962 . S
Zn15 O18 1.986 . S
Zn15 O20 1.996 . S
Zn15 O23 1.943 1_554 S
O16 Zn15 1.962 . S
O16 C21 1.254 1_554 S
O17 Zn14 2.031 1_556 S
O17 C21 1.269 . S
O18 Zn15 1.986 . S
O18 C25 1.262 . S
O19 Zn14 2.049 . S
O19 C27 1.260 . S
O20 Zn15 1.996 . S
O20 C27 1.257 . S
C21 O16 1.254 1_556 S
C21 O17 1.269 . S
C22 O23 1.249 . S
C22 O24 1.270 . S
O23 Zn15 1.943 1_556 S
O23 C22 1.249 . S
O24 Zn14 2.067 1_556 S
O24 C22 1.270 . S
C25 O18 1.262 . S
C25 O26 1.232 . S
O26 C25 1.232 . S
C27 O19 1.260 . S
C27 O20 1.257 . S
Zn28 O31 2.031 . S
Zn28 O33 2.049 1_554 S
Zn28 O38 2.067 . S
Zn29 O30 1.962 1_545 S
Zn29 O32 1.986 1_554 S
Zn29 O34 1.996 1_544 S
Zn29 O37 1.943 . S
O30 Zn29 1.962 1_565 S
O30 C35 1.254 . S
O31 Zn28 2.031 . S
O31 C35 1.269 . S
O32 Zn29 1.986 1_556 S
O32 C39 1.262 . S
O33 Zn28 2.049 1_556 S
O33 C41 1.260 . S
O34 Zn29 1.996 1_566 S
O34 C41 1.257 . S
C35 O30 1.254 . S
C35 O31 1.269 . S
C36 O37 1.249 . S
C36 O38 1.270 1_545 S
O37 Zn29 1.943 . S
O37 C36 1.249 . S
O38 Zn28 2.067 . S
O38 C36 1.270 1_565 S
C39 O32 1.262 . S
C39 O40 1.232 1_556 S
O40 C39 1.232 1_554 S
C41 O33 1.260 . S
C41 O34 1.257 . S
Zn42 O45 2.031 . S
Zn42 O47 2.049 1_554 S
Zn42 O52 2.067 . S
Zn43 O44 1.962 1_655 S
Zn43 O46 1.986 1_554 S
Zn43 O48 1.996 1_654 S
Zn43 O51 1.943 . S
O44 Zn43 1.962 1_455 S
O44 C49 1.254 . S
O45 Zn42 2.031 . S
O45 C49 1.269 . S
O46 Zn43 1.986 1_556 S
O46 C53 1.262 . S
O47 Zn42 2.049 1_556 S
O47 C55 1.260 . S
O48 Zn43 1.996 1_456 S
O48 C55 1.257 . S
C49 O44 1.254 . S
C49 O45 1.269 . S
C50 O51 1.249 . S
C50 O52 1.270 1_655 S
O51 Zn43 1.943 . S
O51 C50 1.249 . S
O52 Zn42 2.067 . S
O52 C50 1.270 1_455 S
C53 O46 1.262 . S
C53 O54 1.232 1_556 S
O54 C53 1.232 1_554 S
C55 O47 1.260 . S
C55 O48 1.257 . S
Zn56 O59 2.031 . S
Zn56 O61 2.049 1_554 S
Zn56 O66 2.067 . S
Zn57 O58 1.962 . S
Zn57 O60 1.986 1_554 S
Zn57 O62 1.996 1_554 S
Zn57 O65 1.943 . S
O58 Zn57 1.962 . S
O58 C63 1.254 . S
O59 Zn56 2.031 . S
O59 C63 1.269 . S
O60 Zn57 1.986 1_556 S
O60 C67 1.262 . S
O61 Zn56 2.049 1_556 S
O61 C69 1.260 . S
O62 Zn57 1.996 1_556 S
O62 C69 1.257 . S
C63 O58 1.254 . S
C63 O59 1.269 . S
C64 O65 1.249 . S
C64 O66 1.270 . S
O65 Zn57 1.943 . S
O65 C64 1.249 . S
O66 Zn56 2.067 . S
O66 C64 1.270 . S
C67 O60 1.262 . S
C67 O68 1.232 1_556 S
O68 C67 1.232 1_554 S
C69 O61 1.260 . S
C69 O62 1.257 . S
Zn70 O73 2.031 1_554 S
Zn70 O75 2.049 . S
Zn70 O80 2.067 1_554 S
Zn71 O72 1.962 1_565 S
Zn71 O74 1.986 . S
Zn71 O76 1.996 1_565 S
Zn71 O79 1.943 1_554 S
O72 Zn71 1.962 1_545 S
O72 C77 1.254 1_554 S
O73 Zn70 2.031 1_556 S
O73 C77 1.269 . S
O74 Zn71 1.986 . S
O74 C81 1.262 . S
O75 Zn70 2.049 . S
O75 C83 1.260 . S
O76 Zn71 1.996 1_545 S
O76 C83 1.257 . S
C77 O72 1.254 1_556 S
C77 O73 1.269 . S
C78 O79 1.249 . S
C78 O80 1.270 1_565 S
O79 Zn71 1.943 1_556 S
O79 C78 1.249 . S
O80 Zn70 2.067 1_556 S
O80 C78 1.270 1_545 S
C81 O74 1.262 . S
C81 O82 1.232 . S
O82 C81 1.232 . S
C83 O75 1.260 . S
C83 O76 1.257 . S
Zn84 O87 2.031 . S
Zn84 O89 2.049 . S
Zn84 O94 2.067 . S
Zn85 O86 1.962 . S
Zn85 O88 1.986 . S
Zn85 O90 1.996 . S
Zn85 O93 1.943 . S
O86 Zn85 1.962 . S
O86 C91 1.254 . S
O87 Zn84 2.031 . S
O87 C91 1.269 . S
O88 Zn85 1.986 . S
O88 C95 1.262 . S
O89 Zn84 2.049 . S
O89 C97 1.260 . S
O90 Zn85 1.996 . S
O90 C97 1.257 . S
C91 O86 1.254 . S
C91 O87 1.269 . S
C92 O93 1.249 . S
C92 O94 1.270 . S
O93 Zn85 1.943 . S
O93 C92 1.249 . S
O94 Zn84 2.067 . S
O94 C92 1.270 . S
C95 O88 1.262 . S
C95 O96 1.232 . S
O96 C95 1.232 . S
C97 O89 1.260 . S
C97 O90 1.257 . S
Zn98 O101 2.031 . S
Zn98 O103 2.049 . S
Zn98 O108 2.067 . S
Zn99 O100 1.962 . S
Zn99 O102 1.986 1_565 S
Zn99 O104 1.996 . S
Zn99 O107 1.943 . S
O100 Zn99 1.962 . S
O100 C105 1.254 . S
O101 Zn98 2.031 . S
O101 C105 1.269 . S
O102 Zn99 1.986 1_545 S
O102 C109 1.262 . S
O103 Zn98 2.049 . S
O103 C111 1.260 . S
O104 Zn99 1.996 . S
O104 C111 1.257 . S
C105 O100 1.254 . S
C105 O101 1.269 . S
C106 O107 1.249 . S
C106 O108 1.270 . S
O107 Zn99 1.943 . S
O107 C106 1.249 . S
O108 Zn98 2.067 . S
O108 C106 1.270 . S
C109 O102 1.262 . S
C109 O110 1.232 . S
O110 C109 1.232 . S
C111 O103 1.260 . S
C111 O104 1.257 . S
Zn112 O115 2.031 1_455 S
Zn112 O117 2.049 . S
Zn112 O122 2.067 . S
Zn113 O114 1.962 1_455 S
Zn113 O116 1.986 . S
Zn113 O118 1.996 . S
Zn113 O121 1.943 . S
O114 Zn113 1.962 1_655 S
O114 C119 1.254 . S
O115 Zn112 2.031 1_655 S
O115 C119 1.269 . S
O116 Zn113 1.986 . S
O116 C123 1.262 . S
O117 Zn112 2.049 . S
O117 C125 1.260 . S
O118 Zn113 1.996 . S
O118 C125 1.257 . S
C119 O114 1.254 . S
C119 O115 1.269 . S
C120 O121 1.249 . S
C120 O122 1.270 . S
O121 Zn113 1.943 . S
O121 C120 1.249 . S
O122 Zn112 2.067 . S
O122 C120 1.270 . S
C123 O116 1.262 . S
C123 O124 1.232 . S
O124 C123 1.232 . S
C125 O117 1.260 . S
C125 O118 1.257 . S
Zn126 O129 2.031 1_565 S
Zn126 O131 2.049 . S
Zn126 O136 2.067 . S
Zn127 O128 1.962 1_565 S
Zn127 O130 1.986 . S
Zn127 O132 1.996 . S
Zn127 O135 1.943 . S
O128 Zn127 1.962 1_545 S
O128 C133 1.254 . S
O129 Zn126 2.031 1_545 S
O129 C133 1.269 . S
O130 Zn127 1.986 . S
O130 C137 1.262 . S
O131 Zn126 2.049 . S
O131 C139 1.260 . S
O132 Zn127 1.996 . S
O132 C139 1.257 . S
C133 O128 1.254 . S
C133 O129 1.269 . S
C134 O135 1.249 . S
C134 O136 1.270 . S
O135 Zn127 1.943 . S
O135 C134 1.249 . S
O136 Zn126 2.067 . S
O136 C134 1.270 . S
C137 O130 1.262 . S
C137 O138 1.232 . S
O138 C137 1.232 . S
C139 O131 1.260 . S
C139 O132 1.257 . S
Zn140 O143 2.031 1_455 S
Zn140 O145 2.049 . S
Zn140 O150 2.067 . S
Zn141 O142 1.962 1_455 S
Zn141 O144 1.986 . S
Zn141 O146 1.996 . S
Zn141 O149 1.943 . S
O142 Zn141 1.962 1_655 S
O142 C147 1.254 . S
O143 Zn140 2.031 1_655 S
O143 C147 1.269 . S
O144 Zn141 1.986 . S
O144 C151 1.262 . S
O145 Zn140 2.049 . S
O145 C153 1.260 . S
O146 Zn141 1.996 . S
O146 C153 1.257 . S
C147 O142 1.254 . S
C147 O143 1.269 . S
C148 O149 1.249 . S
C148 O150 1.270 . S
O149 Zn141 1.943 . S
O149 C148 1.249 . S
O150 Zn140 2.067 . S
O150 C148 1.270 . S
C151 O144 1.262 . S
C151 O152 1.232 . S
O152 C151 1.232 . S
C153 O145 1.260 . S
C153 O146 1.257 . S
Zn154 O157 2.031 . S
Zn154 O159 2.049 . S
Zn154 O164 2.067 . S
Zn155 O156 1.962 . S
Zn155 O158 1.986 . S
Zn155 O160 1.996 . S
Zn155 O163 1.943 . S
O156 Zn155 1.962 . S
O156 C161 1.254 . S
O157 Zn154 2.031 . S
O157 C161 1.269 . S
O158 Zn155 1.986 . S
O158 C165 1.262 . S
O159 Zn154 2.049 . S
O159 C167 1.260 . S
O160 Zn155 1.996 . S
O160 C167 1.257 . S
C161 O156 1.254 . S
C161 O157 1.269 . S
C162 O163 1.249 . S
C162 O164 1.270 . S
O163 Zn155 1.943 . S
O163 C162 1.249 . S
O164 Zn154 2.067 . S
O164 C162 1.270 . S
C165 O158 1.262 . S
C165 O166 1.232 . S
O166 C165 1.232 . S
C167 O159 1.260 . S
C167 O160 1.257 . S
Zn168 O171 2.031 1_545 S
Zn168 O173 2.049 . S
Zn168 O178 2.067 . S
Zn169 O170 1.962 1_545 S
Zn169 O172 1.986 . S
Zn169 O174 1.996 . S
Zn169 O177 1.943 . S
O170 Zn169 1.962 1_565 S
O170 C175 1.254 . S
O171 Zn168 2.031 1_565 S
O171 C175 1.269 . S
O172 Zn169 1.986 . S
O172 C179 1.262 . S
O173 Zn168 2.049 . S
O173 C181 1.260 . S
O174 Zn169 1.996 . S
O174 C181 1.257 . S
C175 O170 1.254 . S
C175 O171 1.269 . S
C176 O177 1.249 . S
C176 O178 1.270 . S
O177 Zn169 1.943 . S
O177 C176 1.249 . S
O178 Zn168 2.067 . S
O178 C176 1.270 . S
C179 O172 1.262 . S
C179 O180 1.232 . S
O180 C179 1.232 . S
C181 O173 1.260 . S
C181 O174 1.257 . S
Zn182 O185 2.031 1_655 S
Zn182 O187 2.049 . S
Zn182 O192 2.067 . S
Zn183 O184 1.962 1_655 S
Zn183 O186 1.986 . S
Zn183 O188 1.996 . S
Zn183 O191 1.943 . S
O184 Zn183 1.962 1_455 S
O184 C189 1.254 . S
O185 Zn182 2.031 1_455 S
O185 C189 1.269 . S
O186 Zn183 1.986 . S
O186 C193 1.262 . S
O187 Zn182 2.049 . S
O187 C195 1.260 . S
O188 Zn183 1.996 . S
O188 C195 1.257 . S
C189 O184 1.254 . S
C189 O185 1.269 . S
C190 O191 1.249 . S
C190 O192 1.270 . S
O191 Zn183 1.943 . S
O191 C190 1.249 . S
O192 Zn182 2.067 . S
O192 C190 1.270 . S
C193 O186 1.262 . S
C193 O194 1.254 . S
O194 C193 1.254 . S
C195 O187 1.260 . S
C195 O188 1.257 . S
Zn196 O199 2.031 . S
Zn196 O201 2.049 . S
Zn196 O206 2.067 . S
Zn197 O198 1.962 . S
Zn197 O200 1.986 . S
Zn197 O202 1.996 . S
Zn197 O205 1.943 . S
O198 Zn197 1.962 . S
O198 C203 1.254 . S
O199 Zn196 2.031 . S
O199 C203 1.269 . S
O200 Zn197 1.986 . S
O200 C207 1.262 . S
O201 Zn196 2.049 . S
O201 C209 1.260 . S
O202 Zn197 1.996 . S
O202 C209 1.257 . S
C203 O198 1.254 . S
C203 O199 1.269 . S
C204 O205 1.249 . S
C204 O206 1.270 . S
O205 Zn197 1.943 . S
O205 C204 1.249 . S
O206 Zn196 2.067 . S
O206 C204 1.270 . S
C207 O200 1.262 . S
C207 O208 1.232 . S
O208 C207 1.232 . S
C209 O201 1.260 . S
C209 O202 1.257 . S
Zn210 O213 2.031 . S
Zn210 O215 2.049 . S
Zn210 O220 2.067 . S
Zn211 O212 1.962 . S
Zn211 O214 1.986 . S
Zn211 O216 1.996 . S
Zn211 O219 1.943 . S
O212 Zn211 1.962 . S
O212 C217 1.254 . S
O213 Zn210 2.031 . S
O213 C217 1.269 . S
O214 Zn211 1.986 . S
O214 C221 1.262 . S
O215 Zn210 2.049 . S
O215 C223 1.260 . S
O216 Zn211 1.996 . S
O216 C223 1.257 . S
C217 O212 1.254 . S
C217 O213 1.269 . S
C218 O219 1.249 . S
C218 O220 1.270 . S
O219 Zn211 1.943 . S
O219 C218 1.249 . S
O220 Zn210 2.067 . S
O220 C218 1.270 . S
C221 O214 1.262 . S
C221 O222 1.232 . S
O222 C221 1.232 . S
C223 O215 1.260 . S
C223 O216 1.257 . S
Zn224 O227 2.031 . S
Zn224 O229 2.049 . S
Zn224 O234 2.067 . S
Zn225 O226 1.962 . S
Zn225 O228 1.986 1_545 S
Zn225 O230 1.996 . S
Zn225 O233 1.943 . S
O226 Zn225 1.962 . S
O226 C231 1.254 . S
O227 Zn224 2.031 . S
O227 C231 1.269 . S
O228 Zn225 1.986 1_565 S
O228 C235 1.262 . S
O229 Zn224 2.049 . S
O229 C237 1.260 . S
O230 Zn225 1.996 . S
O230 C237 1.257 . S
C231 O226 1.254 . S
C231 O227 1.269 . S
C232 O233 1.249 . S
C232 O234 1.270 . S
O233 Zn225 1.943 . S
O233 C232 1.249 . S
O234 Zn224 2.067 . S
O234 C232 1.270 . S
C235 O228 1.262 . S
C235 O236 1.232 . S
O236 C235 1.232 . S
C237 O229 1.260 . S
C237 O230 1.257 . S
Zn238 O241 2.031 1_655 S
Zn238 O243 2.049 . S
Zn238 O248 2.067 . S
Zn239 O240 1.962 1_655 S
Zn239 O242 1.986 . S
Zn239 O244 1.996 . S
Zn239 O247 1.943 . S
O240 Zn239 1.962 1_455 S
O240 C245 1.254 . S
O241 Zn238 2.031 1_455 S
O241 C245 1.269 . S
O242 Zn239 1.986 . S
O242 C249 1.262 . S
O243 Zn238 2.049 . S
O243 C251 1.260 . S
O244 Zn239 1.996 . S
O244 C251 1.257 . S
C245 O240 1.254 . S
C245 O241 1.269 . S
C246 O247 1.249 . S
C246 O248 1.270 . S
O247 Zn239 1.943 . S
O247 C246 1.249 . S
O248 Zn238 2.067 . S
O248 C246 1.270 . S
C249 O242 1.262 . S
C249 O250 1.232 . S
O250 C249 1.232 . S
C251 O243 1.260 . S
C251 O244 1.257 . S
H252 C260 0.930 . S
H253 C263 0.930 . S
H254 C265 0.930 . S
H255 C266 0.970 . S
H256 C266 0.970 . S
H257 C268 0.930 . S
H258 C270 0.930 . S
H259 C272 0.930 . S
C260 H252 0.930 . S
C260 C261 1.382 . S
C260 C262 1.426 . S
C261 C260 1.382 . S
C261 C265 1.389 . S
C262 C260 1.426 . S
C262 C263 1.375 . S
C262 C266 1.532 . S
C263 H253 0.930 . S
C263 C262 1.375 . S
C263 C264 1.416 . S
C264 C263 1.416 . S
C264 C265 1.371 . S
C265 H254 0.930 . S
C265 C261 1.389 . S
C265 C264 1.371 . S
C266 H255 0.970 . S
C266 H256 0.970 . S
C266 C262 1.532 . S
C266 C267 1.499 . S
C267 C266 1.499 . S
C267 C268 1.370 . S
C267 C272 1.415 . S
C268 H257 0.930 . S
C268 C267 1.370 . S
C268 C269 1.407 . S
C269 C268 1.407 . S
C269 C270 1.365 . S
C270 H258 0.930 . S
C270 C269 1.365 . S
C270 C271 1.393 . S
C271 C270 1.393 . S
C271 C272 1.387 . S
C272 H259 0.930 . S
C272 C267 1.415 . S
C272 C271 1.387 . S
H273 C281 0.930 . S
H274 C284 0.930 . S
H275 C286 0.930 . S
H276 C287 0.970 . S
H277 C287 0.970 . S
H278 C289 0.930 . S
H279 C291 0.930 . S
H280 C293 0.930 . S
C281 H273 0.930 . S
C281 C282 1.382 . S
C281 C283 1.426 . S
C282 C281 1.382 . S
C282 C286 1.389 . S
C283 C281 1.426 . S
C283 C284 1.375 . S
C283 C287 1.532 . S
C284 H274 0.930 . S
C284 C283 1.375 . S
C284 C285 1.416 . S
C285 C284 1.416 . S
C285 C286 1.371 . S
C286 H275 0.930 . S
C286 C282 1.389 . S
C286 C285 1.371 . S
C287 H276 0.970 . S
C287 H277 0.970 . S
C287 C283 1.532 . S
C287 C288 1.499 . S
C288 C287 1.499 . S
C288 C289 1.370 . S
C288 C293 1.415 . S
C289 H278 0.930 . S
C289 C288 1.370 . S
C289 C290 1.407 . S
C290 C289 1.407 . S
C290 C291 1.365 . S
C291 H279 0.930 . S
C291 C290 1.365 . S
C291 C292 1.393 . S
C292 C291 1.393 . S
C292 C293 1.387 . S
C293 H280 0.930 . S
C293 C288 1.415 . S
C293 C292 1.387 . S
H294 C302 0.930 . S
H295 C305 0.930 . S
H296 C307 0.930 . S
H297 C308 0.970 . S
H298 C308 0.970 . S
H299 C310 0.930 . S
H300 C312 0.930 . S
H301 C314 0.930 . S
C302 H294 0.930 . S
C302 C303 1.382 . S
C302 C304 1.426 . S
C303 C302 1.382 . S
C303 C307 1.389 . S
C304 C302 1.426 . S
C304 C305 1.375 . S
C304 C308 1.532 . S
C305 H295 0.930 . S
C305 C304 1.375 . S
C305 C306 1.416 . S
C306 C305 1.416 . S
C306 C307 1.371 . S
C307 H296 0.930 . S
C307 C303 1.389 . S
C307 C306 1.371 . S
C308 H297 0.970 . S
C308 H298 0.970 . S
C308 C304 1.532 . S
C308 C309 1.499 . S
C309 C308 1.499 . S
C309 C310 1.370 . S
C309 C314 1.415 . S
C310 H299 0.930 . S
C310 C309 1.370 . S
C310 C311 1.407 . S
C311 C310 1.407 . S
C311 C312 1.365 . S
C312 H300 0.930 . S
C312 C311 1.365 . S
C312 C313 1.393 . S
C313 C312 1.393 . S
C313 C314 1.387 . S
C314 H301 0.930 . S
C314 C309 1.415 . S
C314 C313 1.387 . S
H315 C323 0.930 . S
H316 C326 0.930 . S
H317 C328 0.930 . S
H318 C329 0.970 . S
H319 C329 0.970 . S
H320 C331 0.930 . S
H321 C333 0.930 . S
H322 C335 0.930 . S
C323 H315 0.930 . S
C323 C324 1.382 . S
C323 C325 1.426 . S
C324 C323 1.382 . S
C324 C328 1.389 . S
C325 C323 1.426 . S
C325 C326 1.375 . S
C325 C329 1.532 . S
C326 H316 0.930 . S
C326 C325 1.375 . S
C326 C327 1.416 . S
C327 C326 1.416 . S
C327 C328 1.371 . S
C328 H317 0.930 . S
C328 C324 1.389 . S
C328 C327 1.371 . S
C329 H318 0.970 . S
C329 H319 0.970 . S
C329 C325 1.532 . S
C329 C330 1.499 . S
C330 C329 1.499 . S
C330 C331 1.370 . S
C330 C335 1.415 . S
C331 H320 0.930 . S
C331 C330 1.370 . S
C331 C332 1.407 . S
C332 C331 1.407 . S
C332 C333 1.365 . S
C333 H321 0.930 . S
C333 C332 1.365 . S
C333 C334 1.393 . S
C334 C333 1.393 . S
C334 C335 1.387 . S
C335 H322 0.930 . S
C335 C330 1.415 . S
C335 C334 1.387 . S
H336 C344 0.930 . S
H337 C347 0.930 . S
H338 C349 0.930 . S
H339 C350 0.970 . S
H340 C350 0.970 . S
H341 C352 0.930 . S
H342 C354 0.930 . S
H343 C356 0.930 . S
C344 H336 0.930 . S
C344 C345 1.382 . S
C344 C346 1.426 . S
C345 C344 1.382 . S
C345 C349 1.389 . S
C346 C344 1.426 . S
C346 C347 1.375 . S
C346 C350 1.532 . S
C347 H337 0.930 . S
C347 C346 1.375 . S
C347 C348 1.416 . S
C348 C347 1.416 . S
C348 C349 1.371 . S
C349 H338 0.930 . S
C349 C345 1.389 . S
C349 C348 1.371 . S
C350 H339 0.970 . S
C350 H340 0.970 . S
C350 C346 1.532 . S
C350 C351 1.499 . S
C351 C350 1.499 . S
C351 C352 1.370 . S
C351 C356 1.415 . S
C352 H341 0.930 . S
C352 C351 1.370 . S
C352 C353 1.407 . S
C353 C352 1.407 . S
C353 C354 1.365 . S
C354 H342 0.930 . S
C354 C353 1.365 . S
C354 C355 1.393 . S
C355 C354 1.393 . S
C355 C356 1.387 . S
C356 H343 0.930 . S
C356 C351 1.415 . S
C356 C355 1.387 . S
H357 C365 0.930 . S
H358 C368 0.930 . S
H359 C370 0.930 . S
H360 C371 0.970 . S
H361 C371 0.970 . S
H362 C373 0.930 . S
H363 C375 0.930 . S
H364 C377 0.930 . S
C365 H357 0.930 . S
C365 C366 1.382 . S
C365 C367 1.426 . S
C366 C365 1.382 . S
C366 C370 1.389 . S
C367 C365 1.426 . S
C367 C368 1.375 . S
C367 C371 1.532 . S
C368 H358 0.930 . S
C368 C367 1.375 . S
C368 C369 1.416 . S
C369 C368 1.416 . S
C369 C370 1.371 . S
C370 H359 0.930 . S
C370 C366 1.389 . S
C370 C369 1.371 . S
C371 H360 0.970 . S
C371 H361 0.970 . S
C371 C367 1.532 . S
C371 C372 1.499 . S
C372 C371 1.499 . S
C372 C373 1.370 . S
C372 C377 1.415 . S
C373 H362 0.930 . S
C373 C372 1.370 . S
C373 C374 1.407 . S
C374 C373 1.407 . S
C374 C375 1.365 . S
C375 H363 0.930 . S
C375 C374 1.365 . S
C375 C376 1.393 . S
C376 C375 1.393 . S
C376 C377 1.387 . S
C377 H364 0.930 . S
C377 C372 1.415 . S
C377 C376 1.387 . S
H378 C386 0.930 . S
H379 C389 0.930 . S
H380 C391 0.930 . S
H381 C392 0.970 . S
H382 C392 0.970 . S
H383 C394 0.930 . S
H384 C396 0.930 . S
H385 C398 0.930 . S
C386 H378 0.930 . S
C386 C387 1.382 . S
C386 C388 1.426 . S
C387 C386 1.382 . S
C387 C391 1.389 . S
C388 C386 1.426 . S
C388 C389 1.375 . S
C388 C392 1.532 . S
C389 H379 0.930 . S
C389 C388 1.375 . S
C389 C390 1.416 . S
C390 C389 1.416 . S
C390 C391 1.371 . S
C391 H380 0.930 . S
C391 C387 1.389 . S
C391 C390 1.371 . S
C392 H381 0.970 . S
C392 H382 0.970 . S
C392 C388 1.532 . S
C392 C393 1.499 . S
C393 C392 1.499 . S
C393 C394 1.370 . S
C393 C398 1.415 . S
C394 H383 0.930 . S
C394 C393 1.370 . S
C394 C395 1.407 . S
C395 C394 1.407 . S
C395 C396 1.365 . S
C396 H384 0.930 . S
C396 C395 1.365 . S
C396 C397 1.393 . S
C397 C396 1.393 . S
C397 C398 1.387 . S
C398 H385 0.930 . S
C398 C393 1.415 . S
C398 C397 1.387 . S
H399 C407 0.930 . S
H400 C410 0.930 . S
H401 C412 0.930 . S
H402 C413 0.970 . S
H403 C413 0.970 . S
H404 C415 0.930 . S
H405 C417 0.930 . S
H406 C419 0.930 . S
C407 H399 0.930 . S
C407 C408 1.382 . S
C407 C409 1.426 . S
C408 C407 1.382 . S
C408 C412 1.389 . S
C409 C407 1.426 . S
C409 C410 1.375 . S
C409 C413 1.532 . S
C410 H400 0.930 . S
C410 C409 1.375 . S
C410 C411 1.416 . S
C411 C410 1.416 . S
C411 C412 1.371 . S
C412 H401 0.930 . S
C412 C408 1.389 . S
C412 C411 1.371 . S
C413 H402 0.970 . S
C413 H403 0.970 . S
C413 C409 1.532 . S
C413 C414 1.499 . S
C414 C413 1.499 . S
C414 C415 1.370 . S
C414 C419 1.415 . S
C415 H404 0.930 . S
C415 C414 1.370 . S
C415 C416 1.407 . S
C416 C415 1.407 . S
C416 C417 1.365 . S
C417 H405 0.930 . S
C417 C416 1.365 . S
C417 C418 1.393 . S
C418 C417 1.393 . S
C418 C419 1.387 . S
C419 H406 0.930 . S
C419 C414 1.415 . S
C419 C418 1.387 . S
H420 C428 0.930 . S
H421 C431 0.930 . S
H422 C433 0.930 . S
H423 C434 0.970 . S
H424 C434 0.970 . S
H425 C436 0.930 . S
H426 C438 0.930 . S
H427 C440 0.930 . S
C428 H420 0.930 . S
C428 C429 1.382 . S
C428 C430 1.426 . S
C429 C428 1.382 . S
C429 C433 1.389 . S
C430 C428 1.426 . S
C430 C431 1.375 . S
C430 C434 1.532 . S
C431 H421 0.930 . S
C431 C430 1.375 . S
C431 C432 1.416 . S
C432 C431 1.416 . S
C432 C433 1.371 . S
C433 H422 0.930 . S
C433 C429 1.389 . S
C433 C432 1.371 . S
C434 H423 0.970 . S
C434 H424 0.970 . S
C434 C430 1.532 . S
C434 C435 1.499 . S
C435 C434 1.499 . S
C435 C436 1.370 . S
C435 C440 1.415 . S
C436 H425 0.930 . S
C436 C435 1.370 . S
C436 C437 1.407 . S
C437 C436 1.407 . S
C437 C438 1.365 . S
C438 H426 0.930 . S
C438 C437 1.365 . S
C438 C439 1.393 . S
C439 C438 1.393 . S
C439 C440 1.387 . S
C440 H427 0.930 . S
C440 C435 1.415 . S
C440 C439 1.387 . S
H441 C449 0.930 . S
H442 C452 0.930 . S
H443 C454 0.930 . S
H444 C455 0.970 . S
H445 C455 0.970 . S
H446 C457 0.930 . S
H447 C459 0.930 . S
H448 C461 0.930 . S
C449 H441 0.930 . S
C449 C450 1.382 . S
C449 C451 1.426 . S
C450 C449 1.382 . S
C450 C454 1.389 1_455 S
C451 C449 1.426 . S
C451 C452 1.375 . S
C451 C455 1.532 . S
C452 H442 0.930 . S
C452 C451 1.375 . S
C452 C453 1.416 . S
C453 C452 1.416 . S
C453 C454 1.371 1_455 S
C454 H443 0.930 . S
C454 C450 1.389 1_655 S
C454 C453 1.371 1_655 S
C455 H444 0.970 . S
C455 H445 0.970 . S
C455 C451 1.532 . S
C455 C456 1.499 . S
C456 C455 1.499 . S
C456 C457 1.370 . S
C456 C461 1.415 . S
C457 H446 0.930 . S
C457 C456 1.370 . S
C457 C458 1.409 . S
C458 C457 1.409 . S
C458 C459 1.369 1_455 S
C459 H447 0.930 . S
C459 C458 1.369 1_655 S
C459 C460 1.393 1_655 S
C460 C459 1.393 1_455 S
C460 C461 1.387 . S
C461 H448 0.930 . S
C461 C456 1.415 . S
C461 C460 1.387 . S
H462 C470 0.930 . S
H463 C473 0.930 . S
H464 C475 0.930 . S
H465 C476 0.970 . S
H466 C476 0.970 . S
H467 C478 0.930 . S
H468 C480 0.930 . S
H469 C482 0.930 . S
C470 H462 0.930 . S
C470 C471 1.382 . S
C470 C472 1.426 . S
C471 C470 1.382 . S
C471 C475 1.389 . S
C472 C470 1.426 . S
C472 C473 1.375 . S
C472 C476 1.532 . S
C473 H463 0.930 . S
C473 C472 1.375 . S
C473 C474 1.416 . S
C474 C473 1.416 . S
C474 C475 1.371 . S
C475 H464 0.930 . S
C475 C471 1.389 . S
C475 C474 1.371 . S
C476 H465 0.970 . S
C476 H466 0.970 . S
C476 C472 1.532 . S
C476 C477 1.499 . S
C477 C476 1.499 . S
C477 C478 1.370 . S
C477 C482 1.415 . S
C478 H467 0.930 . S
C478 C477 1.370 . S
C478 C479 1.407 . S
C479 C478 1.407 . S
C479 C480 1.365 . S
C480 H468 0.930 . S
C480 C479 1.365 . S
C480 C481 1.393 . S
C481 C480 1.393 . S
C481 C482 1.387 . S
C482 H469 0.930 . S
C482 C477 1.415 . S
C482 C481 1.387 . S
H483 C491 0.930 . S
H484 C494 0.930 . S
H485 C496 0.930 . S
H486 C497 0.970 . S
H487 C497 0.970 . S
H488 C499 0.930 . S
H489 C501 0.930 . S
H490 C503 0.930 . S
C491 H483 0.930 . S
C491 C492 1.382 . S
C491 C493 1.426 . S
C492 C491 1.382 . S
C492 C496 1.389 1_565 S
C493 C491 1.426 . S
C493 C494 1.375 . S
C493 C497 1.532 . S
C494 H484 0.930 . S
C494 C493 1.375 . S
C494 C495 1.416 . S
C495 C494 1.416 . S
C495 C496 1.371 1_565 S
C496 H485 0.930 . S
C496 C492 1.389 1_545 S
C496 C495 1.371 1_545 S
C497 H486 0.970 . S
C497 H487 0.970 . S
C497 C493 1.532 . S
C497 C498 1.499 . S
C498 C497 1.499 . S
C498 C499 1.370 . S
C498 C503 1.415 . S
C499 H488 0.930 . S
C499 C498 1.370 . S
C499 C500 1.402 . S
C500 C499 1.402 . S
C500 C501 1.366 1_565 S
C501 H489 0.930 . S
C501 C500 1.366 1_545 S
C501 C502 1.393 1_545 S
C502 C501 1.393 1_565 S
C502 C503 1.387 . S
C503 H490 0.930 . S
C503 C498 1.415 . S
C503 C502 1.387 . S
H504 C512 0.930 . S
H505 C515 0.930 . S
H506 C517 0.930 . S
H507 C518 0.970 . S
H508 C518 0.970 . S
H509 C520 0.930 . S
H510 C522 0.930 . S
H511 C524 0.930 . S
C512 H504 0.930 . S
C512 C513 1.382 . S
C512 C514 1.426 . S
C513 C512 1.382 . S
C513 C517 1.389 1_565 S
C514 C512 1.426 . S
C514 C515 1.375 . S
C514 C518 1.532 . S
C515 H505 0.930 . S
C515 C514 1.375 . S
C515 C516 1.462 . S
C516 C515 1.462 . S
C516 C517 1.354 1_565 S
C517 H506 0.930 . S
C517 C513 1.389 1_545 S
C517 C516 1.354 1_545 S
C518 H507 0.970 . S
C518 H508 0.970 . S
C518 C514 1.532 . S
C518 C519 1.499 . S
C519 C518 1.499 . S
C519 C520 1.370 . S
C519 C524 1.415 . S
C520 H509 0.930 . S
C520 C519 1.370 . S
C520 C521 1.407 . S
C521 C520 1.407 . S
C521 C522 1.365 1_565 S
C522 H510 0.930 . S
C522 C521 1.365 1_545 S
C522 C523 1.393 1_545 S
C523 C522 1.393 1_565 S
C523 C524 1.387 . S
C524 H511 0.930 . S
C524 C519 1.415 . S
C524 C523 1.387 . S
H525 C533 0.930 . S
H526 C536 0.930 . S
H527 C538 0.930 . S
H528 C539 0.970 . S
H529 C539 0.970 . S
H530 C541 0.930 . S
H531 C543 0.930 . S
H532 C545 0.930 . S
C533 H525 0.930 . S
C533 C534 1.382 . S
C533 C535 1.426 . S
C534 C533 1.382 . S
C534 C538 1.389 1_455 S
C535 C533 1.426 . S
C535 C536 1.375 . S
C535 C539 1.532 . S
C536 H526 0.930 . S
C536 C535 1.375 . S
C536 C537 1.416 . S
C537 C536 1.416 . S
C537 C538 1.371 1_455 S
C538 H527 0.930 . S
C538 C534 1.389 1_655 S
C538 C537 1.371 1_655 S
C539 H528 0.970 . S
C539 H529 0.970 . S
C539 C535 1.532 . S
C539 C540 1.499 . S
C540 C539 1.499 . S
C540 C541 1.370 . S
C540 C545 1.415 . S
C541 H530 0.930 . S
C541 C540 1.370 . S
C541 C542 1.407 . S
C542 C541 1.407 . S
C542 C543 1.365 1_455 S
C543 H531 0.930 . S
C543 C542 1.365 1_655 S
C543 C544 1.393 1_655 S
C544 C543 1.393 1_455 S
C544 C545 1.387 . S
C545 H532 0.930 . S
C545 C540 1.415 . S
C545 C544 1.387 . S
H546 C554 0.930 . S
H547 C557 0.930 . S
H548 C559 0.930 . S
H549 C560 0.970 . S
H550 C560 0.970 . S
H551 C562 0.930 . S
H552 C564 0.930 . S
H553 C566 0.930 . S
C554 H546 0.930 . S
C554 C555 1.382 . S
C554 C556 1.426 . S
C555 C554 1.382 . S
C555 C559 1.389 . S
C556 C554 1.426 . S
C556 C557 1.375 . S
C556 C560 1.532 . S
C557 H547 0.930 . S
C557 C556 1.375 . S
C557 C558 1.416 . S
C558 C557 1.416 . S
C558 C559 1.371 . S
C559 H548 0.930 . S
C559 C555 1.389 . S
C559 C558 1.371 . S
C560 H549 0.970 . S
C560 H550 0.970 . S
C560 C556 1.532 . S
C560 C561 1.499 . S
C561 C560 1.499 . S
C561 C562 1.370 . S
C561 C566 1.415 . S
C562 H551 0.930 . S
C562 C561 1.370 . S
C562 C563 1.407 . S
C563 C562 1.407 . S
C563 C564 1.365 . S
C564 H552 0.930 . S
C564 C563 1.365 . S
C564 C565 1.393 . S
C565 C564 1.393 . S
C565 C566 1.387 . S
C566 H553 0.930 . S
C566 C561 1.415 . S
C566 C565 1.387 . S
H567 C575 0.930 . S
H568 C578 0.930 . S
H569 C580 0.930 . S
H570 C581 0.970 . S
H571 C581 0.970 . S
H572 C583 0.930 . S
H573 C585 0.930 . S
H574 C587 0.930 . S
C575 H567 0.930 . S
C575 C576 1.382 . S
C575 C577 1.426 . S
C576 C575 1.382 . S
C576 C580 1.389 . S
C577 C575 1.426 . S
C577 C578 1.375 . S
C577 C581 1.532 . S
C578 H568 0.930 . S
C578 C577 1.375 . S
C578 C579 1.416 . S
C579 C578 1.416 . S
C579 C580 1.371 . S
C580 H569 0.930 . S
C580 C576 1.389 . S
C580 C579 1.371 . S
C581 H570 0.970 . S
C581 H571 0.970 . S
C581 C577 1.532 . S
C581 C582 1.499 . S
C582 C581 1.499 . S
C582 C583 1.370 . S
C582 C587 1.415 . S
C583 H572 0.930 . S
C583 C582 1.370 . S
C583 C584 1.407 . S
C584 C583 1.407 . S
C584 C585 1.365 . S
C585 H573 0.930 . S
C585 C584 1.365 . S
C585 C586 1.393 . S
C586 C585 1.393 . S
C586 C587 1.387 . S
C587 H574 0.930 . S
C587 C582 1.415 . S
C587 C586 1.387 . S
H588 C596 0.930 . S
H589 C599 0.930 . S
H590 C601 0.930 . S
H591 C602 0.970 . S
H592 C602 0.970 . S
H593 C604 0.930 . S
H594 C606 0.930 . S
H595 C608 0.930 . S
C596 H588 0.930 . S
C596 C597 1.382 . S
C596 C598 1.426 . S
C597 C596 1.382 . S
C597 C601 1.389 . S
C598 C596 1.426 . S
C598 C599 1.375 . S
C598 C602 1.532 . S
C599 H589 0.930 . S
C599 C598 1.375 . S
C599 C600 1.416 . S
C600 C599 1.416 . S
C600 C601 1.371 . S
C601 H590 0.930 . S
C601 C597 1.389 . S
C601 C600 1.371 . S
C602 H591 0.970 . S
C602 H592 0.970 . S
C602 C598 1.532 . S
C602 C603 1.499 . S
C603 C602 1.499 . S
C603 C604 1.370 . S
C603 C608 1.415 . S
C604 H593 0.930 . S
C604 C603 1.370 . S
C604 C605 1.407 . S
C605 C604 1.407 . S
C605 C606 1.365 . S
C606 H594 0.930 . S
C606 C605 1.365 . S
C606 C607 1.393 . S
C607 C606 1.393 . S
C607 C608 1.387 . S
C608 H595 0.930 . S
C608 C603 1.415 . S
C608 C607 1.387 . S
H609 C617 0.930 . S
H610 C620 0.930 . S
H611 C622 0.930 . S
H612 C623 0.970 . S
H613 C623 0.970 . S
H614 C625 0.930 . S
H615 C627 0.930 . S
H616 C629 0.930 . S
C617 H609 0.930 . S
C617 C618 1.382 . S
C617 C619 1.426 . S
C618 C617 1.382 . S
C618 C622 1.389 . S
C619 C617 1.426 . S
C619 C620 1.375 . S
C619 C623 1.532 . S
C620 H610 0.930 . S
C620 C619 1.375 . S
C620 C621 1.416 . S
C621 C620 1.416 . S
C621 C622 1.371 . S
C622 H611 0.930 . S
C622 C618 1.389 . S
C622 C621 1.371 . S
C623 H612 0.970 . S
C623 H613 0.970 . S
C623 C619 1.532 . S
C623 C624 1.499 . S
C624 C623 1.499 . S
C624 C625 1.370 . S
C624 C629 1.415 . S
C625 H614 0.930 . S
C625 C624 1.370 . S
C625 C626 1.407 . S
C626 C625 1.407 . S
C626 C627 1.365 . S
C627 H615 0.930 . S
C627 C626 1.365 . S
C627 C628 1.393 . S
C628 C627 1.393 . S
C628 C629 1.387 . S
C629 H616 0.930 . S
C629 C624 1.415 . S
C629 C628 1.387 . S
C630 C631 1.363 1_455 S
C630 C636 1.379 . S
C630 N638 1.356 . S
C631 C630 1.363 1_655 S
C631 C637 1.363 . S
C632 C633 1.363 . S
C632 C637 1.379 . S
C632 N639 1.356 . S
C633 C632 1.363 . S
C633 C636 1.363 1_655 S
N634 C636 1.356 . S
N634 H646 0.984 . S
N634 H647 0.985 . S
N635 C637 1.356 . S
N635 H640 0.984 . S
N635 H641 0.985 . S
C636 C630 1.379 . S
C636 C633 1.363 1_455 S
C636 N634 1.356 . S
C637 C631 1.363 . S
C637 C632 1.379 . S
C637 N635 1.356 . S
N638 C630 1.356 . S
N638 H644 0.984 . S
N638 H645 0.984 . S
N639 C632 1.356 . S
N639 H642 0.984 . S
N639 H643 0.985 . S
H640 N635 0.984 . S
H641 N635 0.985 . S
H642 N639 0.984 . S
H643 N639 0.985 . S
H644 N638 0.984 . S
H645 N638 0.984 . S
H646 N634 0.984 . S
H647 N634 0.985 . S
C648 C649 1.363 . S
C648 C654 1.379 . S
C648 N656 1.356 . S
C649 C648 1.363 . S
C649 C655 1.363 . S
C650 C651 1.363 . S
C650 C655 1.379 . S
C650 N657 1.356 . S
C651 C650 1.363 . S
C651 C654 1.363 . S
N652 C654 1.356 . S
N652 H664 0.984 . S
N652 H665 0.985 . S
N653 C655 1.356 . S
N653 H658 0.984 . S
N653 H659 0.985 . S
C654 C648 1.379 . S
C654 C651 1.363 . S
C654 N652 1.356 . S
C655 C649 1.363 . S
C655 C650 1.379 . S
C655 N653 1.356 . S
N656 C648 1.356 . S
N656 H662 0.984 . S
N656 H663 0.984 . S
N657 C650 1.356 . S
N657 H660 0.984 . S
N657 H661 0.985 . S
H658 N653 0.984 . S
H659 N653 0.985 . S
H660 N657 0.984 . S
H661 N657 0.985 . S
H662 N656 0.984 . S
H663 N656 0.984 . S
H664 N652 0.984 . S
H665 N652 0.985 . S
C666 C667 1.363 1_565 S
C666 C672 1.379 . S
C666 N674 1.356 . S
C667 C666 1.363 1_545 S
C667 C673 1.363 . S
C668 C669 1.363 . S
C668 C673 1.379 . S
C668 N675 1.356 . S
C669 C668 1.363 . S
C669 C672 1.363 1_545 S
N670 C672 1.356 . S
N670 H682 0.984 . S
N670 H683 0.985 . S
N671 C673 1.356 . S
N671 H676 0.984 . S
N671 H677 0.985 . S
C672 C666 1.379 . S
C672 C669 1.363 1_565 S
C672 N670 1.356 . S
C673 C667 1.363 . S
C673 C668 1.379 . S
C673 N671 1.356 . S
N674 C666 1.356 . S
N674 H680 0.984 . S
N674 H681 0.984 . S
N675 C668 1.356 . S
N675 H678 0.984 . S
N675 H679 0.985 . S
H676 N671 0.984 . S
H677 N671 0.985 . S
H678 N675 0.984 . S
H679 N675 0.985 . S
H680 N674 0.984 . S
H681 N674 0.984 . S
H682 N670 0.984 . S
H683 N670 0.985 . S
C684 C685 1.363 . S
C684 C690 1.379 . S
C684 N692 1.356 . S
C685 C684 1.363 . S
C685 C691 1.363 1_565 S
C686 C687 1.363 1_545 S
C686 C691 1.379 . S
C686 N693 1.356 . S
C687 C686 1.363 1_565 S
C687 C690 1.363 . S
N688 C690 1.356 . S
N688 H700 0.984 . S
N688 H701 0.985 . S
N689 C691 1.356 . S
N689 H694 0.984 . S
N689 H695 0.985 . S
C690 C684 1.379 . S
C690 C687 1.363 . S
C690 N688 1.356 . S
C691 C685 1.363 1_545 S
C691 C686 1.379 . S
C691 N689 1.356 . S
N692 C684 1.356 . S
N692 H698 0.984 . S
N692 H699 0.984 . S
N693 C686 1.356 . S
N693 H696 0.984 . S
N693 H697 0.985 . S
H694 N689 0.984 . S
H695 N689 0.985 . S
H696 N693 0.984 . S
H697 N693 0.985 . S
H698 N692 0.984 . S
H699 N692 0.984 . S
H700 N688 0.984 . S
H701 N688 0.985 . S
C702 C703 1.363 . S
C702 C708 1.379 . S
C702 N710 1.356 . S
C703 C702 1.363 . S
C703 C709 1.363 1_455 S
C704 C705 1.363 1_655 S
C704 C709 1.379 . S
C704 N711 1.356 . S
C705 C704 1.363 1_455 S
C705 C708 1.363 . S
N706 C708 1.356 . S
N706 H718 0.984 . S
N706 H719 0.985 . S
N707 C709 1.356 . S
N707 H712 0.984 . S
N707 H713 0.985 . S
C708 C702 1.379 . S
C708 C705 1.363 . S
C708 N706 1.356 . S
C709 C703 1.363 1_655 S
C709 C704 1.379 . S
C709 N707 1.356 . S
N710 C702 1.356 . S
N710 H716 0.984 . S
N710 H717 0.984 . S
N711 C704 1.356 . S
N711 H714 0.984 . S
N711 H715 0.985 . S
H712 N707 0.984 . S
H713 N707 0.985 . S
H714 N711 0.984 . S
H715 N711 0.985 . S
H716 N710 0.984 . S
H717 N710 0.984 . S
H718 N706 0.984 . S
H719 N706 0.985 . S
C720 C721 1.363 . S
C720 C726 1.379 . S
C720 N728 1.356 . S
C721 C720 1.363 . S
C721 C727 1.363 . S
C722 C723 1.363 . S
C722 C727 1.379 . S
C722 N729 1.356 . S
C723 C722 1.363 . S
C723 C726 1.363 . S
N724 C726 1.356 . S
N724 H736 0.984 . S
N724 H737 0.985 . S
N725 C727 1.356 . S
N725 H730 0.984 . S
N725 H731 0.985 . S
C726 C720 1.379 . S
C726 C723 1.363 . S
C726 N724 1.356 . S
C727 C721 1.363 . S
C727 C722 1.379 . S
C727 N725 1.356 . S
N728 C720 1.356 . S
N728 H734 0.984 . S
N728 H735 0.984 . S
N729 C722 1.356 . S
N729 H732 0.984 . S
N729 H733 0.985 . S
H730 N725 0.984 . S
H731 N725 0.985 . S
H732 N729 0.984 . S
H733 N729 0.985 . S
H734 N728 0.984 . S
H735 N728 0.984 . S
H736 N724 0.984 . S
H737 N724 0.985 . S
C738 C739 1.363 1_655 S
C738 C744 1.379 . S
C738 N746 1.356 . S
C739 C738 1.363 1_455 S
C739 C745 1.363 . S
C740 C741 1.363 . S
C740 C745 1.379 . S
C740 N747 1.356 . S
C741 C740 1.363 . S
C741 C744 1.363 1_455 S
N742 C744 1.356 . S
N742 H754 0.984 . S
N742 H755 0.985 . S
N743 C745 1.356 . S
N743 H748 0.984 . S
N743 H749 0.985 . S
C744 C738 1.379 . S
C744 C741 1.363 1_655 S
C744 N742 1.356 . S
C745 C739 1.363 . S
C745 C740 1.379 . S
C745 N743 1.356 . S
N746 C738 1.356 . S
N746 H752 0.984 . S
N746 H753 0.984 . S
N747 C740 1.356 . S
N747 H750 0.984 . S
N747 H751 0.985 . S
H748 N743 0.984 . S
H749 N743 0.985 . S
H750 N747 0.984 . S
H751 N747 0.985 . S
H752 N746 0.984 . S
H753 N746 0.984 . S
H754 N742 0.984 . S
H755 N742 0.985 . S
C756 C757 1.363 . S
C756 C762 1.379 . S
C756 N764 1.356 . S
C757 C756 1.363 . S
C757 C763 1.363 . S
C758 C759 1.363 . S
C758 C763 1.379 . S
C758 N765 1.356 . S
C759 C758 1.363 . S
C759 C762 1.363 . S
N760 C762 1.356 . S
N760 H772 0.984 . S
N760 H773 0.985 . S
N761 C763 1.356 . S
N761 H766 0.984 . S
N761 H767 0.985 . S
C762 C756 1.379 . S
C762 C759 1.363 . S
C762 N760 1.356 . S
C763 C757 1.363 . S
C763 C758 1.379 . S
C763 N761 1.356 . S
N764 C756 1.356 . S
N764 H770 0.984 . S
N764 H771 0.984 . S
N765 C758 1.356 . S
N765 H768 0.984 . S
N765 H769 0.985 . S
H766 N761 0.984 . S
H767 N761 0.985 . S
H768 N765 0.984 . S
H769 N765 0.985 . S
H770 N764 0.984 . S
H771 N764 0.984 . S
H772 N760 0.984 . S
H773 N760 0.985 . S
C774 C775 1.363 . S
C774 C780 1.379 . S
C774 N782 1.356 . S
C775 C774 1.363 . S
C775 C781 1.363 1_565 S
C776 C777 1.363 1_545 S
C776 C781 1.379 . S
C776 N783 1.356 . S
C777 C776 1.363 1_565 S
C777 C780 1.363 . S
N778 C780 1.356 . S
N778 H790 0.984 . S
N778 H791 0.985 . S
N779 C781 1.356 . S
N779 H784 0.984 . S
N779 H785 0.985 . S
C780 C774 1.379 . S
C780 C777 1.363 . S
C780 N778 1.356 . S
C781 C775 1.363 1_545 S
C781 C776 1.379 . S
C781 N779 1.356 . S
N782 C774 1.356 . S
N782 H788 0.984 . S
N782 H789 0.984 . S
N783 C776 1.356 . S
N783 H786 0.984 . S
N783 H787 0.985 . S
H784 N779 0.984 . S
H785 N779 0.985 . S
H786 N783 0.984 . S
H787 N783 0.985 . S
H788 N782 0.984 . S
H789 N782 0.984 . S
H790 N778 0.984 . S
H791 N778 0.985 . S
C792 C793 1.363 1_565 S
C792 C798 1.379 . S
C792 N800 1.356 . S
C793 C792 1.363 1_545 S
C793 C799 1.363 . S
C794 C795 1.363 . S
C794 C799 1.379 . S
C794 N801 1.356 . S
C795 C794 1.363 . S
C795 C798 1.363 1_545 S
N796 C798 1.356 . S
N796 H808 0.984 . S
N796 H809 0.985 . S
N797 C799 1.356 . S
N797 H802 0.984 . S
N797 H803 0.985 . S
C798 C792 1.379 . S
C798 C795 1.363 1_565 S
C798 N796 1.356 . S
C799 C793 1.363 . S
C799 C794 1.379 . S
C799 N797 1.356 . S
N800 C792 1.356 . S
N800 H806 0.984 . S
N800 H807 0.984 . S
N801 C794 1.356 . S
N801 H804 0.984 . S
N801 H805 0.985 . S
H802 N797 0.984 . S
H803 N797 0.985 . S
H804 N801 0.984 . S
H805 N801 0.985 . S
H806 N800 0.984 . S
H807 N800 0.984 . S
H808 N796 0.984 . S
H809 N796 0.985 . S
C810 C811 1.363 1_455 S
C810 C816 1.379 . S
C810 N818 1.356 . S
C811 C810 1.363 1_655 S
C811 C817 1.363 . S
C812 C813 1.363 . S
C812 C817 1.379 . S
C812 N819 1.356 . S
C813 C812 1.363 . S
C813 C816 1.363 1_655 S
N814 C816 1.356 . S
N814 H826 0.984 . S
N814 H827 0.985 . S
N815 C817 1.356 . S
N815 H820 0.984 . S
N815 H821 0.985 . S
C816 C810 1.379 . S
C816 C813 1.363 1_455 S
C816 N814 1.356 . S
C817 C811 1.363 . S
C817 C812 1.379 . S
C817 N815 1.356 . S
N818 C810 1.356 . S
N818 H824 0.984 . S
N818 H825 0.984 . S
N819 C812 1.356 . S
N819 H822 0.984 . S
N819 H823 0.985 . S
H820 N815 0.984 . S
H821 N815 0.985 . S
H822 N819 0.984 . S
H823 N819 0.985 . S
H824 N818 0.984 . S
H825 N818 0.984 . S
H826 N814 0.984 . S
H827 N814 0.985 . S
C828 C829 1.363 . S
C828 C834 1.379 . S
C828 N836 1.356 . S
C829 C828 1.363 . S
C829 C835 1.363 . S
C830 C831 1.363 . S
C830 C835 1.379 . S
C830 N837 1.356 . S
C831 C830 1.363 . S
C831 C834 1.363 . S
N832 C834 1.356 . S
N832 H844 0.984 . S
N832 H845 0.985 . S
N833 C835 1.356 . S
N833 H838 0.984 . S
N833 H839 0.985 . S
C834 C828 1.379 . S
C834 C831 1.363 . S
C834 N832 1.356 . S
C835 C829 1.363 . S
C835 C830 1.379 . S
C835 N833 1.356 . S
N836 C828 1.356 . S
N836 H842 0.984 . S
N836 H843 0.984 . S
N837 C830 1.356 . S
N837 H840 0.984 . S
N837 H841 0.985 . S
H838 N833 0.984 . S
H839 N833 0.985 . S
H840 N837 0.984 . S
H841 N837 0.985 . S
H842 N836 0.984 . S
H843 N836 0.984 . S
H844 N832 0.984 . S
H845 N832 0.985 . S
C846 C847 1.363 . S
C846 C852 1.379 . S
C846 N854 1.356 . S
C847 C846 1.363 . S
C847 C853 1.363 . S
C848 C849 1.363 . S
C848 C853 1.379 . S
C848 N855 1.356 . S
C849 C848 1.363 . S
C849 C852 1.363 . S
N850 C852 1.356 . S
N850 H862 0.984 . S
N850 H863 0.985 . S
N851 C853 1.356 . S
N851 H856 0.984 . S
N851 H857 0.985 . S
C852 C846 1.379 . S
C852 C849 1.363 . S
C852 N850 1.356 . S
C853 C847 1.363 . S
C853 C848 1.379 . S
C853 N851 1.356 . S
N854 C846 1.356 . S
N854 H860 0.984 . S
N854 H861 0.984 . S
N855 C848 1.356 . S
N855 H858 0.984 . S
N855 H859 0.985 . S
H856 N851 0.984 . S
H857 N851 0.985 . S
H858 N855 0.984 . S
H859 N855 0.985 . S
H860 N854 0.984 . S
H861 N854 0.984 . S
H862 N850 0.984 . S
H863 N850 0.985 . S
C864 C865 1.363 . S
C864 C870 1.379 . S
C864 N872 1.356 . S
C865 C864 1.363 . S
C865 C871 1.363 . S
C866 C867 1.363 . S
C866 C871 1.379 . S
C866 N873 1.356 . S
C867 C866 1.363 . S
C867 C870 1.363 . S
N868 C870 1.356 . S
N868 H880 0.984 . S
N868 H881 0.985 . S
N869 C871 1.356 . S
N869 H874 0.984 . S
N869 H875 0.985 . S
C870 C864 1.379 . S
C870 C867 1.363 . S
C870 N868 1.356 . S
C871 C865 1.363 . S
C871 C866 1.379 . S
C871 N869 1.356 . S
N872 C864 1.356 . S
N872 H878 0.984 . S
N872 H879 0.984 . S
N873 C866 1.356 . S
N873 H876 0.984 . S
N873 H877 0.985 . S
H874 N869 0.984 . S
H875 N869 0.985 . S
H876 N873 0.984 . S
H877 N873 0.985 . S
H878 N872 0.984 . S
H879 N872 0.984 . S
H880 N868 0.984 . S
H881 N868 0.985 . S
C882 C883 1.363 . S
C882 C888 1.379 . S
C882 N890 1.356 . S
C883 C882 1.363 . S
C883 C889 1.363 . S
C884 C885 1.363 . S
C884 C889 1.379 . S
C884 N891 1.356 . S
C885 C884 1.363 . S
C885 C888 1.363 . S
N886 C888 1.356 . S
N886 H898 0.984 . S
N886 H899 0.985 . S
N887 C889 1.356 . S
N887 H892 0.984 . S
N887 H893 0.985 . S
C888 C882 1.379 . S
C888 C885 1.363 . S
C888 N886 1.356 . S
C889 C883 1.363 . S
C889 C884 1.379 . S
C889 N887 1.356 . S
N890 C882 1.356 . S
N890 H896 0.984 . S
N890 H897 0.984 . S
N891 C884 1.356 . S
N891 H894 0.984 . S
N891 H895 0.985 . S
H892 N887 0.984 . S
H893 N887 0.985 . S
H894 N891 0.984 . S
H895 N891 0.985 . S
H896 N890 0.984 . S
H897 N890 0.984 . S
H898 N886 0.984 . S
H899 N886 0.985 . S
C900 C901 1.363 . S
C900 C906 1.379 . S
C900 N908 1.356 . S
C901 C900 1.363 . S
C901 C907 1.363 . S
C902 C903 1.363 . S
C902 C907 1.379 . S
C902 N909 1.356 . S
C903 C902 1.363 . S
C903 C906 1.363 . S
N904 C906 1.356 . S
N904 H916 0.984 . S
N904 H917 0.985 . S
N905 C907 1.356 . S
N905 H910 0.984 . S
N905 H911 0.985 . S
C906 C900 1.379 . S
C906 C903 1.363 . S
C906 N904 1.356 . S
C907 C901 1.363 . S
C907 C902 1.379 . S
C907 N905 1.356 . S
N908 C900 1.356 . S
N908 H914 0.984 . S
N908 H915 0.984 . S
N909 C902 1.356 . S
N909 H912 0.984 . S
N909 H913 0.985 . S
H910 N905 0.984 . S
H911 N905 0.985 . S
H912 N909 0.984 . S
H913 N909 0.985 . S
H914 N908 0.984 . S
H915 N908 0.984 . S
H916 N904 0.984 . S
H917 N904 0.985 . S
C918 C919 1.363 . S
C918 C924 1.379 . S
C918 N926 1.356 . S
C919 C918 1.363 . S
C919 C925 1.363 . S
C920 C921 1.363 . S
C920 C925 1.379 . S
C920 N927 1.356 . S
C921 C920 1.363 . S
C921 C924 1.363 . S
N922 C924 1.356 . S
N922 H934 0.984 . S
N922 H935 0.985 . S
N923 C925 1.356 . S
N923 H928 0.984 . S
N923 H929 0.985 . S
C924 C918 1.379 . S
C924 C921 1.363 . S
C924 N922 1.356 . S
C925 C919 1.363 . S
C925 C920 1.379 . S
C925 N923 1.356 . S
N926 C918 1.356 . S
N926 H932 0.984 . S
N926 H933 0.984 . S
N927 C920 1.356 . S
N927 H930 0.984 . S
N927 H931 0.985 . S
H928 N923 0.984 . S
H929 N923 0.985 . S
H930 N927 0.984 . S
H931 N927 0.985 . S
H932 N926 0.984 . S
H933 N926 0.984 . S
H934 N922 0.984 . S
H935 N922 0.985 . S
C936 C937 1.363 . S
C936 C942 1.379 . S
C936 N944 1.356 . S
C937 C936 1.363 . S
C937 C943 1.363 . S
C938 C939 1.363 . S
C938 C943 1.379 . S
C938 N945 1.356 . S
C939 C938 1.363 . S
C939 C942 1.363 . S
N940 C942 1.356 . S
N940 H952 0.984 . S
N940 H953 0.985 . S
N941 C943 1.356 . S
N941 H946 0.984 . S
N941 H947 0.985 . S
C942 C936 1.379 . S
C942 C939 1.363 . S
C942 N940 1.356 . S
C943 C937 1.363 . S
C943 C938 1.379 . S
C943 N941 1.356 . S
N944 C936 1.356 . S
N944 H950 0.984 . S
N944 H951 0.984 . S
N945 C938 1.356 . S
N945 H948 0.984 . S
N945 H949 0.985 . S
H946 N941 0.984 . S
H947 N941 0.985 . S
H948 N945 0.984 . S
H949 N945 0.985 . S
H950 N944 0.984 . S
H951 N944 0.984 . S
H952 N940 0.984 . S
H953 N940 0.985 . S
C954 C955 1.363 . S
C954 C960 1.379 . S
C954 N962 1.356 . S
C955 C954 1.363 . S
C955 C961 1.363 . S
C956 C957 1.363 . S
C956 C961 1.379 . S
C956 N963 1.356 . S
C957 C956 1.363 . S
C957 C960 1.363 . S
N958 C960 1.356 . S
N958 H970 0.984 . S
N958 H971 0.985 . S
N959 C961 1.356 . S
N959 H964 0.984 . S
N959 H965 0.985 . S
C960 C954 1.379 . S
C960 C957 1.363 . S
C960 N958 1.356 . S
C961 C955 1.363 . S
C961 C956 1.379 . S
C961 N959 1.356 . S
N962 C954 1.356 . S
N962 H968 0.984 . S
N962 H969 0.984 . S
N963 C956 1.356 . S
N963 H966 0.984 . S
N963 H967 0.985 . S
H964 N959 0.984 . S
H965 N959 0.985 . S
H966 N963 0.984 . S
H967 N963 0.985 . S
H968 N962 0.984 . S
H969 N962 0.984 . S
H970 N958 0.984 . S
H971 N958 0.985 . S
C972 C973 1.363 . S
C972 C978 1.379 . S
C972 N980 1.356 . S
C973 C972 1.363 . S
C973 C979 1.363 . S
C974 C975 1.363 . S
C974 C979 1.379 . S
C974 N981 1.356 . S
C975 C974 1.363 . S
C975 C978 1.363 . S
N976 C978 1.356 . S
N976 H988 0.984 . S
N976 H989 0.985 . S
N977 C979 1.356 . S
N977 H982 0.984 . S
N977 H983 0.985 . S
C978 C972 1.379 . S
C978 C975 1.363 . S
C978 N976 1.356 . S
C979 C973 1.363 . S
C979 C974 1.379 . S
C979 N977 1.356 . S
N980 C972 1.356 . S
N980 H986 0.984 . S
N980 H987 0.984 . S
N981 C974 1.356 . S
N981 H984 0.984 . S
N981 H985 0.985 . S
H982 N977 0.984 . S
H983 N977 0.985 . S
H984 N981 0.984 . S
H985 N981 0.985 . S
H986 N980 0.984 . S
H987 N980 0.984 . S
H988 N976 0.984 . S
H989 N976 0.985 . S
C990 C991 1.363 . S
C990 C996 1.379 . S
C990 N998 1.356 . S
C991 C990 1.363 . S
C991 C997 1.363 . S
C992 C993 1.363 . S
C992 C997 1.379 . S
C992 N999 1.356 . S
C993 C992 1.363 . S
C993 C996 1.363 . S
N994 C996 1.356 . S
N994 H1006 0.984 . S
N994 H1007 0.985 . S
N995 C997 1.356 . S
N995 H1000 0.984 . S
N995 H1001 0.985 . S
C996 C990 1.379 . S
C996 C993 1.363 . S
C996 N994 1.356 . S
C997 C991 1.363 . S
C997 C992 1.379 . S
C997 N995 1.356 . S
N998 C990 1.356 . S
N998 H1004 0.984 . S
N998 H1005 0.984 . S
N999 C992 1.356 . S
N999 H1002 0.984 . S
N999 H1003 0.985 . S
H1000 N995 0.984 . S
H1001 N995 0.985 . S
H1002 N999 0.984 . S
H1003 N999 0.985 . S
H1004 N998 0.984 . S
H1005 N998 0.984 . S
H1006 N994 0.984 . S
H1007 N994 0.985 . S
C1008 C1009 1.363 . S
C1008 C1014 1.379 . S
C1008 N1016 1.356 . S
C1009 C1008 1.363 . S
C1009 C1015 1.363 . S
C1010 C1011 1.363 . S
C1010 C1015 1.379 . S
C1010 N1017 1.356 . S
C1011 C1010 1.363 . S
C1011 C1014 1.363 . S
N1012 C1014 1.356 . S
N1012 H1024 0.984 . S
N1012 H1025 0.985 . S
N1013 C1015 1.356 . S
N1013 H1018 0.984 . S
N1013 H1019 0.985 . S
C1014 C1008 1.379 . S
C1014 C1011 1.363 . S
C1014 N1012 1.356 . S
C1015 C1009 1.363 . S
C1015 C1010 1.379 . S
C1015 N1013 1.356 . S
N1016 C1008 1.356 . S
N1016 H1022 0.984 . S
N1016 H1023 0.984 . S
N1017 C1010 1.356 . S
N1017 H1020 0.984 . S
N1017 H1021 0.985 . S
H1018 N1013 0.984 . S
H1019 N1013 0.985 . S
H1020 N1017 0.984 . S
H1021 N1017 0.985 . S
H1022 N1016 0.984 . S
H1023 N1016 0.984 . S
H1024 N1012 0.984 . S
H1025 N1012 0.985 . S
C1026 C1027 1.363 . S
C1026 C1032 1.379 . S
C1026 N1034 1.356 . S
C1027 C1026 1.363 . S
C1027 C1033 1.363 . S
C1028 C1029 1.363 . S
C1028 C1033 1.379 . S
C1028 N1035 1.356 . S
C1029 C1028 1.363 . S
C1029 C1032 1.363 . S
N1030 C1032 1.356 . S
N1030 H1042 0.984 . S
N1030 H1043 0.985 . S
N1031 C1033 1.356 . S
N1031 H1036 0.984 . S
N1031 H1037 0.985 . S
C1032 C1026 1.379 . S
C1032 C1029 1.363 . S
C1032 N1030 1.356 . S
C1033 C1027 1.363 . S
C1033 C1028 1.379 . S
C1033 N1031 1.356 . S
N1034 C1026 1.356 . S
N1034 H1040 0.984 . S
N1034 H1041 0.984 . S
N1035 C1028 1.356 . S
N1035 H1038 0.984 . S
N1035 H1039 0.985 . S
H1036 N1031 0.984 . S
H1037 N1031 0.985 . S
H1038 N1035 0.984 . S
H1039 N1035 0.985 . S
H1040 N1034 0.984 . S
H1041 N1034 0.984 . S
H1042 N1030 0.984 . S
H1043 N1030 0.985 . S
C1044 C1045 1.363 . S
C1044 C1050 1.379 . S
C1044 N1052 1.356 . S
C1045 C1044 1.363 . S
C1045 C1051 1.363 . S
C1046 C1047 1.363 . S
C1046 C1051 1.379 . S
C1046 N1053 1.356 . S
C1047 C1046 1.363 . S
C1047 C1050 1.363 . S
N1048 C1050 1.356 . S
N1048 H1060 0.984 . S
N1048 H1061 0.985 . S
N1049 C1051 1.356 . S
N1049 H1054 0.984 . S
N1049 H1055 0.985 . S
C1050 C1044 1.379 . S
C1050 C1047 1.363 . S
C1050 N1048 1.356 . S
C1051 C1045 1.363 . S
C1051 C1046 1.379 . S
C1051 N1049 1.356 . S
N1052 C1044 1.356 . S
N1052 H1058 0.984 . S
N1052 H1059 0.984 . S
N1053 C1046 1.356 . S
N1053 H1056 0.984 . S
N1053 H1057 0.985 . S
H1054 N1049 0.984 . S
H1055 N1049 0.985 . S
H1056 N1053 0.984 . S
H1057 N1053 0.985 . S
H1058 N1052 0.984 . S
H1059 N1052 0.984 . S
H1060 N1048 0.984 . S
H1061 N1048 0.985 . S
C1062 C1063 1.363 . S
C1062 C1068 1.379 . S
C1062 N1070 1.356 . S
C1063 C1062 1.363 . S
C1063 C1069 1.363 . S
C1064 C1065 1.363 . S
C1064 C1069 1.379 . S
C1064 N1071 1.356 . S
C1065 C1064 1.363 . S
C1065 C1068 1.363 . S
N1066 C1068 1.356 . S
N1066 H1078 0.984 . S
N1066 H1079 0.985 . S
N1067 C1069 1.356 . S
N1067 H1072 0.984 . S
N1067 H1073 0.985 . S
C1068 C1062 1.379 . S
C1068 C1065 1.363 . S
C1068 N1066 1.356 . S
C1069 C1063 1.363 . S
C1069 C1064 1.379 . S
C1069 N1067 1.356 . S
N1070 C1062 1.356 . S
N1070 H1076 0.984 . S
N1070 H1077 0.984 . S
N1071 C1064 1.356 . S
N1071 H1074 0.984 . S
N1071 H1075 0.985 . S
H1072 N1067 0.984 . S
H1073 N1067 0.985 . S
H1074 N1071 0.984 . S
H1075 N1071 0.985 . S
H1076 N1070 0.984 . S
H1077 N1070 0.984 . S
H1078 N1066 0.984 . S
H1079 N1066 0.985 . S
C1080 C1081 1.363 . S
C1080 C1086 1.379 . S
C1080 N1088 1.356 . S
C1081 C1080 1.363 . S
C1081 C1087 1.363 . S
C1082 C1083 1.363 . S
C1082 C1087 1.379 . S
C1082 N1089 1.356 . S
C1083 C1082 1.363 . S
C1083 C1086 1.363 . S
N1084 C1086 1.356 . S
N1084 H1096 0.984 . S
N1084 H1097 0.985 . S
N1085 C1087 1.356 . S
N1085 H1090 0.984 . S
N1085 H1091 0.985 . S
C1086 C1080 1.379 . S
C1086 C1083 1.363 . S
C1086 N1084 1.356 . S
C1087 C1081 1.363 . S
C1087 C1082 1.379 . S
C1087 N1085 1.356 . S
N1088 C1080 1.356 . S
N1088 H1094 0.984 . S
N1088 H1095 0.984 . S
N1089 C1082 1.356 . S
N1089 H1092 0.984 . S
N1089 H1093 0.985 . S
H1090 N1085 0.984 . S
H1091 N1085 0.985 . S
H1092 N1089 0.984 . S
H1093 N1089 0.985 . S
H1094 N1088 0.984 . S
H1095 N1088 0.984 . S
H1096 N1084 0.984 . S
H1097 N1084 0.985 . S
C1098 C1099 1.363 . S
C1098 C1104 1.379 . S
C1098 N1106 1.356 . S
C1099 C1098 1.363 . S
C1099 C1105 1.363 . S
C1100 C1101 1.363 . S
C1100 C1105 1.379 . S
C1100 N1107 1.356 . S
C1101 C1100 1.363 . S
C1101 C1104 1.363 . S
N1102 C1104 1.356 . S
N1102 H1114 0.984 . S
N1102 H1115 0.985 . S
N1103 C1105 1.356 . S
N1103 H1108 0.984 . S
N1103 H1109 0.985 . S
C1104 C1098 1.379 . S
C1104 C1101 1.363 . S
C1104 N1102 1.356 . S
C1105 C1099 1.363 . S
C1105 C1100 1.379 . S
C1105 N1103 1.356 . S
N1106 C1098 1.356 . S
N1106 H1112 0.984 . S
N1106 H1113 0.984 . S
N1107 C1100 1.356 . S
N1107 H1110 0.984 . S
N1107 H1111 0.985 . S
H1108 N1103 0.984 . S
H1109 N1103 0.985 . S
H1110 N1107 0.984 . S
H1111 N1107 0.985 . S
H1112 N1106 0.984 . S
H1113 N1106 0.984 . S
H1114 N1102 0.984 . S
H1115 N1102 0.985 . S
C1116 C1117 1.363 . S
C1116 C1122 1.379 . S
C1116 N1124 1.356 . S
C1117 C1116 1.363 . S
C1117 C1123 1.363 . S
C1118 C1119 1.363 . S
C1118 C1123 1.379 . S
C1118 N1125 1.356 . S
C1119 C1118 1.363 . S
C1119 C1122 1.363 . S
N1120 C1122 1.356 . S
N1120 H1132 0.984 . S
N1120 H1133 0.985 . S
N1121 C1123 1.356 . S
N1121 H1126 0.984 . S
N1121 H1127 0.985 . S
C1122 C1116 1.379 . S
C1122 C1119 1.363 . S
C1122 N1120 1.356 . S
C1123 C1117 1.363 . S
C1123 C1118 1.379 . S
C1123 N1121 1.356 . S
N1124 C1116 1.356 . S
N1124 H1130 0.984 . S
N1124 H1131 0.984 . S
N1125 C1118 1.356 . S
N1125 H1128 0.984 . S
N1125 H1129 0.985 . S
H1126 N1121 0.984 . S
H1127 N1121 0.985 . S
H1128 N1125 0.984 . S
H1129 N1125 0.985 . S
H1130 N1124 0.984 . S
H1131 N1124 0.984 . S
H1132 N1120 0.984 . S
H1133 N1120 0.985 . S
C1134 C1135 1.363 . S
C1134 C1140 1.379 . S
C1134 N1142 1.356 . S
C1135 C1134 1.363 . S
C1135 C1141 1.363 . S
C1136 C1137 1.363 . S
C1136 C1141 1.379 . S
C1136 N1143 1.356 . S
C1137 C1136 1.363 . S
C1137 C1140 1.363 . S
N1138 C1140 1.356 . S
N1138 H1150 0.984 . S
N1138 H1151 0.985 . S
N1139 C1141 1.356 . S
N1139 H1144 0.984 . S
N1139 H1145 0.985 . S
C1140 C1134 1.379 . S
C1140 C1137 1.363 . S
C1140 N1138 1.356 . S
C1141 C1135 1.363 . S
C1141 C1136 1.379 . S
C1141 N1139 1.356 . S
N1142 C1134 1.356 . S
N1142 H1148 0.984 . S
N1142 H1149 0.984 . S
N1143 C1136 1.356 . S
N1143 H1146 0.984 . S
N1143 H1147 0.985 . S
H1144 N1139 0.984 . S
H1145 N1139 0.985 . S
H1146 N1143 0.984 . S
H1147 N1143 0.985 . S
H1148 N1142 0.984 . S
H1149 N1142 0.984 . S
H1150 N1138 0.984 . S
H1151 N1138 0.985 . S
C1152 C1153 1.363 . S
C1152 C1158 1.379 . S
C1152 N1160 1.356 . S
C1153 C1152 1.363 . S
C1153 C1159 1.363 . S
C1154 C1155 1.363 . S
C1154 C1159 1.379 . S
C1154 N1161 1.356 . S
C1155 C1154 1.363 . S
C1155 C1158 1.363 . S
N1156 C1158 1.356 . S
N1156 H1168 0.984 . S
N1156 H1169 0.985 . S
N1157 C1159 1.356 . S
N1157 H1162 0.984 . S
N1157 H1163 0.985 . S
C1158 C1152 1.379 . S
C1158 C1155 1.363 . S
C1158 N1156 1.356 . S
C1159 C1153 1.363 . S
C1159 C1154 1.379 . S
C1159 N1157 1.356 . S
N1160 C1152 1.356 . S
N1160 H1166 0.984 . S
N1160 H1167 0.984 . S
N1161 C1154 1.356 . S
N1161 H1164 0.984 . S
N1161 H1165 0.985 . S
H1162 N1157 0.984 . S
H1163 N1157 0.985 . S
H1164 N1161 0.984 . S
H1165 N1161 0.985 . S
H1166 N1160 0.984 . S
H1167 N1160 0.984 . S
H1168 N1156 0.984 . S
H1169 N1156 0.985 . S
C1170 C1171 1.363 . S
C1170 C1176 1.379 . S
C1170 N1178 1.356 . S
C1171 C1170 1.363 . S
C1171 C1177 1.363 . S
C1172 C1173 1.363 . S
C1172 C1177 1.379 . S
C1172 N1179 1.356 . S
C1173 C1172 1.363 . S
C1173 C1176 1.363 . S
N1174 C1176 1.356 . S
N1174 H1186 0.984 . S
N1174 H1187 0.985 . S
N1175 C1177 1.356 . S
N1175 H1180 0.984 . S
N1175 H1181 0.985 . S
C1176 C1170 1.379 . S
C1176 C1173 1.363 . S
C1176 N1174 1.356 . S
C1177 C1171 1.363 . S
C1177 C1172 1.379 . S
C1177 N1175 1.356 . S
N1178 C1170 1.356 . S
N1178 H1184 0.984 . S
N1178 H1185 0.984 . S
N1179 C1172 1.356 . S
N1179 H1182 0.984 . S
N1179 H1183 0.985 . S
H1180 N1175 0.984 . S
H1181 N1175 0.985 . S
H1182 N1179 0.984 . S
H1183 N1179 0.985 . S
H1184 N1178 0.984 . S
H1185 N1178 0.984 . S
H1186 N1174 0.984 . S
H1187 N1174 0.985 . S
C1188 C1189 1.363 . S
C1188 C1194 1.379 . S
C1188 N1196 1.356 . S
C1189 C1188 1.363 . S
C1189 C1195 1.363 . S
C1190 C1191 1.363 . S
C1190 C1195 1.379 . S
C1190 N1197 1.356 . S
C1191 C1190 1.363 . S
C1191 C1194 1.363 . S
N1192 C1194 1.356 . S
N1192 H1204 0.984 . S
N1192 H1205 0.985 . S
N1193 C1195 1.356 . S
N1193 H1198 0.984 . S
N1193 H1199 0.985 . S
C1194 C1188 1.379 . S
C1194 C1191 1.363 . S
C1194 N1192 1.356 . S
C1195 C1189 1.363 . S
C1195 C1190 1.379 . S
C1195 N1193 1.356 . S
N1196 C1188 1.356 . S
N1196 H1202 0.984 . S
N1196 H1203 0.984 . S
N1197 C1190 1.356 . S
N1197 H1200 0.984 . S
N1197 H1201 0.985 . S
H1198 N1193 0.984 . S
H1199 N1193 0.985 . S
H1200 N1197 0.984 . S
H1201 N1197 0.985 . S
H1202 N1196 0.984 . S
H1203 N1196 0.984 . S
H1204 N1192 0.984 . S
H1205 N1192 0.985 . S
C1206 C1207 1.363 . S
C1206 C1212 1.379 . S
C1206 N1214 1.356 . S
C1207 C1206 1.363 . S
C1207 C1213 1.363 . S
C1208 C1209 1.363 . S
C1208 C1213 1.379 . S
C1208 N1215 1.356 . S
C1209 C1208 1.363 . S
C1209 C1212 1.363 . S
N1210 C1212 1.356 . S
N1210 H1222 0.984 . S
N1210 H1223 0.985 . S
N1211 C1213 1.356 . S
N1211 H1216 0.984 . S
N1211 H1217 0.985 . S
C1212 C1206 1.379 . S
C1212 C1209 1.363 . S
C1212 N1210 1.356 . S
C1213 C1207 1.363 . S
C1213 C1208 1.379 . S
C1213 N1211 1.356 . S
N1214 C1206 1.356 . S
N1214 H1220 0.984 . S
N1214 H1221 0.984 . S
N1215 C1208 1.356 . S
N1215 H1218 0.984 . S
N1215 H1219 0.985 . S
H1216 N1211 0.984 . S
H1217 N1211 0.985 . S
H1218 N1215 0.984 . S
H1219 N1215 0.985 . S
H1220 N1214 0.984 . S
H1221 N1214 0.984 . S
H1222 N1210 0.984 . S
H1223 N1210 0.985 . S
C1224 C1225 1.363 . S
C1224 C1230 1.379 . S
C1224 N1232 1.356 . S
C1225 C1224 1.363 . S
C1225 C1231 1.363 . S
C1226 C1227 1.363 . S
C1226 C1231 1.379 . S
C1226 N1233 1.356 . S
C1227 C1226 1.363 . S
C1227 C1230 1.363 . S
N1228 C1230 1.356 . S
N1228 H1240 0.984 . S
N1228 H1241 0.985 . S
N1229 C1231 1.356 . S
N1229 H1234 0.984 . S
N1229 H1235 0.985 . S
C1230 C1224 1.379 . S
C1230 C1227 1.363 . S
C1230 N1228 1.356 . S
C1231 C1225 1.363 . S
C1231 C1226 1.379 . S
C1231 N1229 1.356 . S
N1232 C1224 1.356 . S
N1232 H1238 0.984 . S
N1232 H1239 0.984 . S
N1233 C1226 1.356 . S
N1233 H1236 0.984 . S
N1233 H1237 0.985 . S
H1234 N1229 0.984 . S
H1235 N1229 0.985 . S
H1236 N1233 0.984 . S
H1237 N1233 0.985 . S
H1238 N1232 0.984 . S
H1239 N1232 0.984 . S
H1240 N1228 0.984 . S
H1241 N1228 0.985 . S
C1242 C1243 1.363 . S
C1242 C1248 1.379 . S
C1242 N1250 1.356 . S
C1243 C1242 1.363 . S
C1243 C1249 1.363 . S
C1244 C1245 1.363 . S
C1244 C1249 1.379 . S
C1244 N1251 1.356 . S
C1245 C1244 1.363 . S
C1245 C1248 1.363 . S
N1246 C1248 1.356 . S
N1246 H1258 0.984 . S
N1246 H1259 0.985 . S
N1247 C1249 1.356 . S
N1247 H1252 0.984 . S
N1247 H1253 0.985 . S
C1248 C1242 1.379 . S
C1248 C1245 1.363 . S
C1248 N1246 1.356 . S
C1249 C1243 1.363 . S
C1249 C1244 1.379 . S
C1249 N1247 1.356 . S
N1250 C1242 1.356 . S
N1250 H1256 0.984 . S
N1250 H1257 0.984 . S
N1251 C1244 1.356 . S
N1251 H1254 0.984 . S
N1251 H1255 0.985 . S
H1252 N1247 0.984 . S
H1253 N1247 0.985 . S
H1254 N1251 0.984 . S
H1255 N1251 0.985 . S
H1256 N1250 0.984 . S
H1257 N1250 0.984 . S
H1258 N1246 0.984 . S
H1259 N1246 0.985 . S
C1260 C1261 1.363 . S
C1260 C1266 1.379 . S
C1260 N1268 1.356 . S
C1261 C1260 1.363 . S
C1261 C1267 1.363 . S
C1262 C1263 1.363 . S
C1262 C1267 1.379 . S
C1262 N1269 1.356 . S
C1263 C1262 1.363 . S
C1263 C1266 1.363 . S
N1264 C1266 1.356 . S
N1264 H1276 0.984 . S
N1264 H1277 0.985 . S
N1265 C1267 1.356 . S
N1265 H1270 0.984 . S
N1265 H1271 0.985 . S
C1266 C1260 1.379 . S
C1266 C1263 1.363 . S
C1266 N1264 1.356 . S
C1267 C1261 1.363 . S
C1267 C1262 1.379 . S
C1267 N1265 1.356 . S
N1268 C1260 1.356 . S
N1268 H1274 0.984 . S
N1268 H1275 0.984 . S
N1269 C1262 1.356 . S
N1269 H1272 0.984 . S
N1269 H1273 0.985 . S
H1270 N1265 0.984 . S
H1271 N1265 0.985 . S
H1272 N1269 0.984 . S
H1273 N1269 0.985 . S
H1274 N1268 0.984 . S
H1275 N1268 0.984 . S
H1276 N1264 0.984 . S
H1277 N1264 0.985 . S
C1278 C1279 1.363 . S
C1278 C1284 1.379 . S
C1278 N1286 1.356 . S
C1279 C1278 1.363 . S
C1279 C1285 1.363 . S
C1280 C1281 1.363 . S
C1280 C1285 1.379 . S
C1280 N1287 1.356 . S
C1281 C1280 1.363 . S
C1281 C1284 1.363 . S
N1282 C1284 1.356 . S
N1282 H1294 0.984 . S
N1282 H1295 0.985 . S
N1283 C1285 1.356 . S
N1283 H1288 0.984 . S
N1283 H1289 0.985 . S
C1284 C1278 1.379 . S
C1284 C1281 1.363 . S
C1284 N1282 1.356 . S
C1285 C1279 1.363 . S
C1285 C1280 1.379 . S
C1285 N1283 1.356 . S
N1286 C1278 1.356 . S
N1286 H1292 0.984 . S
N1286 H1293 0.984 . S
N1287 C1280 1.356 . S
N1287 H1290 0.984 . S
N1287 H1291 0.985 . S
H1288 N1283 0.984 . S
H1289 N1283 0.985 . S
H1290 N1287 0.984 . S
H1291 N1287 0.985 . S
H1292 N1286 0.984 . S
H1293 N1286 0.984 . S
H1294 N1282 0.984 . S
H1295 N1282 0.985 . S
C1296 C1297 1.363 . S
C1296 C1302 1.379 . S
C1296 N1304 1.356 . S
C1297 C1296 1.363 . S
C1297 C1303 1.363 . S
C1298 C1299 1.363 . S
C1298 C1303 1.379 . S
C1298 N1305 1.356 . S
C1299 C1298 1.363 . S
C1299 C1302 1.363 . S
N1300 C1302 1.356 . S
N1300 H1312 0.984 . S
N1300 H1313 0.985 . S
N1301 C1303 1.356 . S
N1301 H1306 0.984 . S
N1301 H1307 0.985 . S
C1302 C1296 1.379 . S
C1302 C1299 1.363 . S
C1302 N1300 1.356 . S
C1303 C1297 1.363 . S
C1303 C1298 1.379 . S
C1303 N1301 1.356 . S
N1304 C1296 1.356 . S
N1304 H1310 0.984 . S
N1304 H1311 0.984 . S
N1305 C1298 1.356 . S
N1305 H1308 0.984 . S
N1305 H1309 0.985 . S
H1306 N1301 0.984 . S
H1307 N1301 0.985 . S
H1308 N1305 0.984 . S
H1309 N1305 0.985 . S
H1310 N1304 0.984 . S
H1311 N1304 0.984 . S
H1312 N1300 0.984 . S
H1313 N1300 0.985 . S
C1314 C1315 1.363 . S
C1314 C1320 1.379 . S
C1314 N1322 1.356 . S
C1315 C1314 1.363 . S
C1315 C1321 1.363 . S
C1316 C1317 1.363 . S
C1316 C1321 1.379 . S
C1316 N1323 1.356 . S
C1317 C1316 1.363 . S
C1317 C1320 1.363 . S
N1318 C1320 1.356 . S
N1318 H1330 0.984 . S
N1318 H1331 0.985 . S
N1319 C1321 1.356 . S
N1319 H1324 0.984 . S
N1319 H1325 0.985 . S
C1320 C1314 1.379 . S
C1320 C1317 1.363 . S
C1320 N1318 1.356 . S
C1321 C1315 1.363 . S
C1321 C1316 1.379 . S
C1321 N1319 1.356 . S
N1322 C1314 1.356 . S
N1322 H1328 0.984 . S
N1322 H1329 0.984 . S
N1323 C1316 1.356 . S
N1323 H1326 0.984 . S
N1323 H1327 0.985 . S
H1324 N1319 0.984 . S
H1325 N1319 0.985 . S
H1326 N1323 0.984 . S
H1327 N1323 0.985 . S
H1328 N1322 0.984 . S
H1329 N1322 0.984 . S
H1330 N1318 0.984 . S
H1331 N1318 0.985 . S
C1332 C1333 1.363 . S
C1332 C1338 1.379 . S
C1332 N1340 1.356 . S
C1333 C1332 1.363 . S
C1333 C1339 1.370 . S
C1334 C1335 1.363 . S
C1334 C1339 1.383 . S
C1334 N1341 1.356 . S
C1335 C1334 1.363 . S
C1335 C1338 1.363 . S
N1336 C1338 1.356 . S
N1336 H1348 0.984 . S
N1336 H1349 0.985 . S
N1337 C1339 1.346 1_554 S
N1337 H1342 0.984 . S
N1337 H1343 0.985 . S
C1338 C1332 1.379 . S
C1338 C1335 1.363 . S
C1338 N1336 1.356 . S
C1339 C1333 1.370 . S
C1339 C1334 1.383 . S
C1339 N1337 1.346 1_556 S
N1340 C1332 1.356 . S
N1340 H1346 0.984 . S
N1340 H1347 0.984 . S
N1341 C1334 1.356 . S
N1341 H1344 0.984 . S
N1341 H1345 0.985 1_556 S
H1342 N1337 0.984 . S
H1343 N1337 0.985 . S
H1344 N1341 0.984 . S
H1345 N1341 0.985 1_554 S
H1346 N1340 0.984 . S
H1347 N1340 0.984 . S
H1348 N1336 0.984 . S
H1349 N1336 0.985 . S
C1350 C1351 1.363 . S
C1350 C1356 1.379 . S
C1350 N1358 1.356 . S
C1351 C1350 1.363 . S
C1351 C1357 1.363 . S
C1352 C1353 1.363 . S
C1352 C1357 1.379 . S
C1352 N1359 1.356 . S
C1353 C1352 1.363 . S
C1353 C1356 1.363 . S
N1354 C1356 1.356 . S
N1354 H1366 0.984 . S
N1354 H1367 0.985 . S
N1355 C1357 1.356 1_554 S
N1355 H1360 0.984 . S
N1355 H1361 0.985 . S
C1356 C1350 1.379 . S
C1356 C1353 1.363 . S
C1356 N1354 1.356 . S
C1357 C1351 1.363 . S
C1357 C1352 1.379 . S
C1357 N1355 1.356 1_556 S
N1358 C1350 1.356 . S
N1358 H1364 0.984 . S
N1358 H1365 0.984 . S
N1359 C1352 1.356 . S
N1359 H1362 0.984 . S
N1359 H1363 0.985 1_556 S
H1360 N1355 0.984 . S
H1361 N1355 0.985 . S
H1362 N1359 0.984 . S
H1363 N1359 0.985 1_554 S
H1364 N1358 0.984 . S
H1365 N1358 0.984 . S
H1366 N1354 0.984 . S
H1367 N1354 0.985 . S
C1368 C1369 1.347 1_554 S
C1368 C1374 1.368 1_554 S
C1368 N1376 1.382 . S
C1369 C1368 1.347 1_556 S
C1369 C1375 1.363 . S
C1370 C1371 1.363 . S
C1370 C1375 1.379 . S
C1370 N1377 1.356 . S
C1371 C1370 1.363 . S
C1371 C1374 1.363 . S
N1372 C1374 1.349 1_554 S
N1372 H1384 1.005 . S
N1372 H1385 0.971 1_554 S
N1373 C1375 1.356 . S
N1373 H1378 0.984 . S
N1373 H1379 0.985 . S
C1374 C1368 1.368 1_556 S
C1374 C1371 1.363 . S
C1374 N1372 1.349 1_556 S
C1375 C1369 1.363 . S
C1375 C1370 1.379 . S
C1375 N1373 1.356 . S
N1376 C1368 1.382 . S
N1376 H1382 0.984 . S
N1376 H1383 0.984 . S
N1377 C1370 1.356 . S
N1377 H1380 0.984 . S
N1377 H1381 0.985 . S
H1378 N1373 0.984 . S
H1379 N1373 0.985 . S
H1380 N1377 0.984 . S
H1381 N1377 0.985 . S
H1382 N1376 0.984 . S
H1383 N1376 0.984 . S
H1384 N1372 1.005 . S
H1385 N1372 0.971 1_556 S
C1386 C1387 1.363 1_554 S
C1386 C1392 1.379 1_554 S
C1386 N1394 1.356 . S
C1387 C1386 1.363 1_556 S
C1387 C1393 1.363 . S
C1388 C1389 1.363 . S
C1388 C1393 1.379 . S
C1388 N1395 1.356 . S
C1389 C1388 1.363 . S
C1389 C1392 1.363 . S
N1390 C1392 1.356 1_554 S
N1390 H1402 0.984 . S
N1390 H1403 0.985 1_554 S
N1391 C1393 1.356 . S
N1391 H1396 0.984 . S
N1391 H1397 0.985 . S
C1392 C1386 1.379 1_556 S
C1392 C1389 1.363 . S
C1392 N1390 1.356 1_556 S
C1393 C1387 1.363 . S
C1393 C1388 1.379 . S
C1393 N1391 1.356 . S
N1394 C1386 1.356 . S
N1394 H1400 0.984 . S
N1394 H1401 0.984 . S
N1395 C1388 1.356 . S
N1395 H1398 0.984 . S
N1395 H1399 0.985 . S
H1396 N1391 0.984 . S
H1397 N1391 0.985 . S
H1398 N1395 0.984 . S
H1399 N1395 0.985 . S
H1400 N1394 0.984 . S
H1401 N1394 0.984 . S
H1402 N1390 0.984 . S
H1403 N1390 0.985 1_556 S
C1404 C1405 1.363 1_554 S
C1404 C1410 1.379 1_554 S
C1404 N1412 1.356 . S
C1405 C1404 1.363 1_556 S
C1405 C1411 1.363 . S
C1406 C1407 1.363 . S
C1406 C1411 1.379 . S
C1406 N1413 1.356 . S
C1407 C1406 1.363 . S
C1407 C1410 1.363 . S
N1408 C1410 1.356 . S
N1408 H1420 0.984 1_556 S
N1408 H1421 0.985 . S
N1409 C1411 1.356 . S
N1409 H1414 0.984 . S
N1409 H1415 0.985 . S
C1410 C1404 1.379 1_556 S
C1410 C1407 1.363 . S
C1410 N1408 1.356 . S
C1411 C1405 1.363 . S
C1411 C1406 1.379 . S
C1411 N1409 1.356 . S
N1412 C1404 1.356 . S
N1412 H1418 0.984 . S
N1412 H1419 0.984 . S
N1413 C1406 1.356 . S
N1413 H1416 0.984 . S
N1413 H1417 0.985 . S
H1414 N1409 0.984 . S
H1415 N1409 0.985 . S
H1416 N1413 0.984 . S
H1417 N1413 0.985 . S
H1418 N1412 0.984 . S
H1419 N1412 0.984 . S
H1420 N1408 0.984 1_554 S
H1421 N1408 0.985 . S
C1422 C1423 1.363 . S
C1422 C1428 1.379 . S
C1422 N1430 1.356 1_556 S
C1423 C1422 1.363 . S
C1423 C1429 1.363 . S
C1424 C1425 1.363 . S
C1424 C1429 1.379 . S
C1424 N1431 1.356 . S
C1425 C1424 1.363 . S
C1425 C1428 1.363 . S
N1426 C1428 1.356 . S
N1426 H1438 0.984 . S
N1426 H1439 0.985 . S
N1427 C1429 1.356 . S
N1427 H1432 0.984 . S
N1427 H1433 0.985 . S
C1428 C1422 1.379 . S
C1428 C1425 1.363 . S
C1428 N1426 1.356 . S
C1429 C1423 1.363 . S
C1429 C1424 1.379 . S
C1429 N1427 1.356 . S
N1430 C1422 1.356 1_554 S
N1430 H1436 0.984 . S
N1430 H1437 0.984 . S
N1431 C1424 1.356 . S
N1431 H1434 0.984 . S
N1431 H1435 0.985 . S
H1432 N1427 0.984 . S
H1433 N1427 0.985 . S
H1434 N1431 0.984 . S
H1435 N1431 0.985 . S
H1436 N1430 0.984 . S
H1437 N1430 0.984 . S
H1438 N1426 0.984 . S
H1439 N1426 0.985 . S
C1440 C1441 1.363 . S
C1440 C1446 1.379 . S
C1440 N1448 1.356 . S
C1441 C1440 1.363 . S
C1441 C1447 1.363 . S
C1442 C1443 1.363 . S
C1442 C1447 1.379 . S
C1442 N1449 1.356 . S
C1443 C1442 1.363 . S
C1443 C1446 1.363 . S
N1444 C1446 1.356 . S
N1444 H1456 0.984 . S
N1444 H1457 0.985 . S
N1445 C1447 1.356 . S
N1445 H1450 0.984 . S
N1445 H1451 0.985 . S
C1446 C1440 1.379 . S
C1446 C1443 1.363 . S
C1446 N1444 1.356 . S
C1447 C1441 1.363 . S
C1447 C1442 1.379 . S
C1447 N1445 1.356 . S
N1448 C1440 1.356 . S
N1448 H1454 0.984 . S
N1448 H1455 0.984 . S
N1449 C1442 1.356 . S
N1449 H1452 0.984 . S
N1449 H1453 0.985 . S
H1450 N1445 0.984 . S
H1451 N1445 0.985 . S
H1452 N1449 0.984 . S
H1453 N1449 0.985 . S
H1454 N1448 0.984 . S
H1455 N1448 0.984 . S
H1456 N1444 0.984 . S
H1457 N1444 0.985 . S
C1458 C1459 1.363 . S
C1458 C1464 1.379 . S
C1458 N1466 1.356 1_554 S
C1459 C1458 1.363 . S
C1459 C1465 1.363 . S
C1460 C1461 1.363 . S
C1460 C1465 1.379 . S
C1460 N1467 1.356 . S
C1461 C1460 1.363 . S
C1461 C1464 1.363 . S
N1462 C1464 1.356 . S
N1462 H1474 0.984 1_554 S
N1462 H1475 0.985 . S
N1463 C1465 1.356 . S
N1463 H1468 0.984 . S
N1463 H1469 0.985 . S
C1464 C1458 1.379 . S
C1464 C1461 1.363 . S
C1464 N1462 1.356 . S
C1465 C1459 1.363 . S
C1465 C1460 1.379 . S
C1465 N1463 1.356 . S
N1466 C1458 1.356 1_556 S
N1466 H1472 0.984 . S
N1466 H1473 0.984 . S
N1467 C1460 1.356 . S
N1467 H1470 0.984 . S
N1467 H1471 0.985 . S
H1468 N1463 0.984 . S
H1469 N1463 0.985 . S
H1470 N1467 0.984 . S
H1471 N1467 0.985 . S
H1472 N1466 0.984 . S
H1473 N1466 0.984 . S
H1474 N1462 0.984 1_556 S
H1475 N1462 0.985 . S
C1476 C1477 1.363 . S
C1476 C1482 1.379 . S
C1476 N1484 1.356 1_554 S
C1477 C1476 1.363 . S
C1477 C1483 1.363 . S
C1478 C1479 1.363 . S
C1478 C1483 1.379 . S
C1478 N1485 1.356 . S
C1479 C1478 1.363 . S
C1479 C1482 1.363 . S
N1480 C1482 1.356 . S
N1480 H1492 0.984 1_554 S
N1480 H1493 0.985 . S
N1481 C1483 1.356 . S
N1481 H1486 0.984 . S
N1481 H1487 0.985 . S
C1482 C1476 1.379 . S
C1482 C1479 1.363 . S
C1482 N1480 1.356 . S
C1483 C1477 1.363 . S
C1483 C1478 1.379 . S
C1483 N1481 1.356 . S
N1484 C1476 1.356 1_556 S
N1484 H1490 0.984 . S
N1484 H1491 0.984 . S
N1485 C1478 1.356 . S
N1485 H1488 0.984 . S
N1485 H1489 0.985 . S
H1486 N1481 0.984 . S
H1487 N1481 0.985 . S
H1488 N1485 0.984 . S
H1489 N1485 0.985 . S
H1490 N1484 0.984 . S
H1491 N1484 0.984 . S
H1492 N1480 0.984 1_556 S
H1493 N1480 0.985 . S
C1494 C1495 1.363 . S
C1494 C1500 1.379 . S
C1494 N1502 1.356 . S
C1495 C1494 1.363 . S
C1495 C1501 1.363 . S
C1496 C1497 1.363 . S
C1496 C1501 1.379 . S
C1496 N1503 1.356 . S
C1497 C1496 1.363 . S
C1497 C1500 1.363 . S
N1498 C1500 1.356 . S
N1498 H1510 0.984 . S
N1498 H1511 0.985 . S
N1499 C1501 1.356 . S
N1499 H1504 0.984 . S
N1499 H1505 0.985 . S
C1500 C1494 1.379 . S
C1500 C1497 1.363 . S
C1500 N1498 1.356 . S
C1501 C1495 1.363 . S
C1501 C1496 1.379 . S
C1501 N1499 1.356 . S
N1502 C1494 1.356 . S
N1502 H1508 0.984 . S
N1502 H1509 0.984 . S
N1503 C1496 1.356 . S
N1503 H1506 0.984 . S
N1503 H1507 0.985 . S
H1504 N1499 0.984 . S
H1505 N1499 0.985 . S
H1506 N1503 0.984 . S
H1507 N1503 0.985 . S
H1508 N1502 0.984 . S
H1509 N1502 0.984 . S
H1510 N1498 0.984 . S
H1511 N1498 0.985 . S
C1512 C1513 1.363 . S
C1512 C1518 1.379 . S
C1512 N1520 1.356 . S
C1513 C1512 1.363 . S
C1513 C1519 1.363 . S
C1514 C1515 1.363 . S
C1514 C1519 1.379 . S
C1514 N1521 1.356 . S
C1515 C1514 1.363 . S
C1515 C1518 1.363 . S
N1516 C1518 1.356 . S
N1516 H1528 0.984 . S
N1516 H1529 0.985 . S
N1517 C1519 1.356 . S
N1517 H1522 0.984 . S
N1517 H1523 0.985 . S
C1518 C1512 1.379 . S
C1518 C1515 1.363 . S
C1518 N1516 1.356 . S
C1519 C1513 1.363 . S
C1519 C1514 1.379 . S
C1519 N1517 1.356 . S
N1520 C1512 1.356 . S
N1520 H1526 0.984 . S
N1520 H1527 0.984 . S
N1521 C1514 1.356 . S
N1521 H1524 0.984 . S
N1521 H1525 0.985 . S
H1522 N1517 0.984 . S
H1523 N1517 0.985 . S
H1524 N1521 0.984 . S
H1525 N1521 0.985 . S
H1526 N1520 0.984 . S
H1527 N1520 0.984 . S
H1528 N1516 0.984 . S
H1529 N1516 0.985 . S
C1530 C1531 1.363 . S
C1530 C1536 1.379 . S
C1530 N1538 1.356 . S
C1531 C1530 1.363 . S
C1531 C1537 1.363 . S
C1532 C1533 1.363 . S
C1532 C1537 1.379 . S
C1532 N1539 1.356 . S
C1533 C1532 1.363 . S
C1533 C1536 1.363 . S
N1534 C1536 1.356 . S
N1534 H1546 0.984 . S
N1534 H1547 0.985 . S
N1535 C1537 1.356 . S
N1535 H1540 0.984 . S
N1535 H1541 0.985 . S
C1536 C1530 1.379 . S
C1536 C1533 1.363 . S
C1536 N1534 1.356 . S
C1537 C1531 1.363 . S
C1537 C1532 1.379 . S
C1537 N1535 1.356 . S
N1538 C1530 1.356 . S
N1538 H1544 0.984 . S
N1538 H1545 0.984 . S
N1539 C1532 1.356 . S
N1539 H1542 0.984 . S
N1539 H1543 0.985 . S
H1540 N1535 0.984 . S
H1541 N1535 0.985 . S
H1542 N1539 0.984 . S
H1543 N1539 0.985 . S
H1544 N1538 0.984 . S
H1545 N1538 0.984 . S
H1546 N1534 0.984 . S
H1547 N1534 0.985 . S
C1548 C1549 1.363 . S
C1548 C1554 1.379 . S
C1548 N1556 1.356 . S
C1549 C1548 1.363 . S
C1549 C1555 1.363 . S
C1550 C1551 1.363 . S
C1550 C1555 1.379 . S
C1550 N1557 1.340 1_455 S
C1551 C1550 1.363 . S
C1551 C1554 1.363 . S
N1552 C1554 1.356 . S
N1552 H1564 0.984 . S
N1552 H1565 0.985 . S
N1553 C1555 1.356 . S
N1553 H1558 0.984 . S
N1553 H1559 0.985 . S
C1554 C1548 1.379 . S
C1554 C1551 1.363 . S
C1554 N1552 1.356 . S
C1555 C1549 1.363 . S
C1555 C1550 1.379 . S
C1555 N1553 1.356 . S
N1556 C1548 1.356 . S
N1556 H1562 0.984 . S
N1556 H1563 0.984 . S
N1557 C1550 1.340 1_655 S
N1557 H1560 0.996 . S
N1557 H1561 0.990 . S
H1558 N1553 0.984 . S
H1559 N1553 0.985 . S
H1560 N1557 0.996 . S
H1561 N1557 0.990 . S
H1562 N1556 0.984 . S
H1563 N1556 0.984 . S
H1564 N1552 0.984 . S
H1565 N1552 0.985 . S
C1566 C1567 1.363 . S
C1566 C1572 1.379 . S
C1566 N1574 1.356 . S
C1567 C1566 1.363 . S
C1567 C1573 1.363 . S
C1568 C1569 1.363 . S
C1568 C1573 1.379 . S
C1568 N1575 1.356 . S
C1569 C1568 1.363 . S
C1569 C1572 1.363 . S
N1570 C1572 1.356 . S
N1570 H1582 0.984 . S
N1570 H1583 0.985 . S
N1571 C1573 1.356 . S
N1571 H1576 0.984 . S
N1571 H1577 0.985 . S
C1572 C1566 1.379 . S
C1572 C1569 1.363 . S
C1572 N1570 1.356 . S
C1573 C1567 1.363 . S
C1573 C1568 1.379 . S
C1573 N1571 1.356 . S
N1574 C1566 1.356 . S
N1574 H1580 0.984 . S
N1574 H1581 0.984 . S
N1575 C1568 1.356 . S
N1575 H1578 0.984 . S
N1575 H1579 0.985 . S
H1576 N1571 0.984 . S
H1577 N1571 0.985 . S
H1578 N1575 0.984 . S
H1579 N1575 0.985 . S
H1580 N1574 0.984 . S
H1581 N1574 0.984 . S
H1582 N1570 0.984 . S
H1583 N1570 0.985 . S
C1584 C1585 1.363 . S
C1584 C1590 1.379 . S
C1584 N1592 1.356 . S
C1585 C1584 1.363 . S
C1585 C1591 1.363 1_565 S
C1586 C1587 1.363 1_545 S
C1586 C1591 1.379 . S
C1586 N1593 1.356 . S
C1587 C1586 1.363 1_565 S
C1587 C1590 1.363 . S
N1588 C1590 1.356 . S
N1588 H1600 0.984 . S
N1588 H1601 0.985 . S
N1589 C1591 1.356 . S
N1589 H1594 0.984 . S
N1589 H1595 0.985 . S
C1590 C1584 1.379 . S
C1590 C1587 1.363 . S
C1590 N1588 1.356 . S
C1591 C1585 1.363 1_545 S
C1591 C1586 1.379 . S
C1591 N1589 1.356 . S
N1592 C1584 1.356 . S
N1592 H1598 0.984 . S
N1592 H1599 0.984 . S
N1593 C1586 1.356 . S
N1593 H1596 0.984 . S
N1593 H1597 0.985 . S
H1594 N1589 0.984 . S
H1595 N1589 0.985 . S
H1596 N1593 0.984 . S
H1597 N1593 0.985 . S
H1598 N1592 0.984 . S
H1599 N1592 0.984 . S
H1600 N1588 0.984 . S
H1601 N1588 0.985 . S
C1602 C1603 1.363 . S
C1602 C1608 1.379 1_565 S
C1602 N1610 1.347 . S
C1603 C1602 1.363 . S
C1603 C1609 1.363 . S
C1604 C1605 1.363 . S
C1604 C1609 1.379 . S
C1604 N1611 1.356 . S
C1605 C1604 1.363 . S
C1605 C1608 1.363 1_565 S
N1606 C1608 1.356 . S
N1606 H1618 0.984 . S
N1606 H1619 0.985 . S
N1607 C1609 1.356 . S
N1607 H1612 0.984 . S
N1607 H1613 0.985 . S
C1608 C1602 1.379 1_545 S
C1608 C1605 1.363 1_545 S
C1608 N1606 1.356 . S
C1609 C1603 1.363 . S
C1609 C1604 1.379 . S
C1609 N1607 1.356 . S
N1610 C1602 1.347 . S
N1610 H1616 0.980 1_565 S
N1610 H1617 0.999 . S
N1611 C1604 1.356 . S
N1611 H1614 0.984 . S
N1611 H1615 0.985 . S
H1612 N1607 0.984 . S
H1613 N1607 0.985 . S
H1614 N1611 0.984 . S
H1615 N1611 0.985 . S
H1616 N1610 0.980 1_545 S
H1617 N1610 0.999 . S
H1618 N1606 0.984 . S
H1619 N1606 0.985 . S
C1620 C1621 1.363 . S
C1620 C1626 1.379 . S
C1620 N1628 1.356 . S
C1621 C1620 1.363 . S
C1621 C1627 1.363 . S
C1622 C1623 1.363 1_655 S
C1622 C1627 1.379 1_655 S
C1622 N1629 1.356 . S
C1623 C1622 1.363 1_455 S
C1623 C1626 1.363 . S
N1624 C1626 1.356 . S
N1624 H1636 0.984 . S
N1624 H1637 0.985 . S
N1625 C1627 1.349 1_655 S
N1625 H1630 0.987 1_655 S
N1625 H1631 0.989 . S
C1626 C1620 1.379 . S
C1626 C1623 1.363 . S
C1626 N1624 1.356 . S
C1627 C1621 1.363 . S
C1627 C1622 1.379 1_455 S
C1627 N1625 1.349 1_455 S
N1628 C1620 1.356 . S
N1628 H1634 0.984 . S
N1628 H1635 0.984 . S
N1629 C1622 1.356 . S
N1629 H1632 0.984 . S
N1629 H1633 0.985 . S
H1630 N1625 0.987 1_455 S
H1631 N1625 0.989 . S
H1632 N1629 0.984 . S
H1633 N1629 0.985 . S
H1634 N1628 0.984 . S
H1635 N1628 0.984 . S
H1636 N1624 0.984 . S
H1637 N1624 0.985 . S
C1638 C1639 1.363 . S
C1638 C1644 1.379 . S
C1638 N1646 1.356 . S
C1639 C1638 1.363 . S
C1639 C1645 1.363 . S
C1640 C1641 1.363 . S
C1640 C1645 1.379 . S
C1640 N1647 1.356 . S
C1641 C1640 1.363 . S
C1641 C1644 1.363 . S
N1642 C1644 1.356 . S
N1642 H1654 0.984 . S
N1642 H1655 0.985 . S
N1643 C1645 1.356 . S
N1643 H1648 0.984 . S
N1643 H1649 0.985 . S
C1644 C1638 1.379 . S
C1644 C1641 1.363 . S
C1644 N1642 1.356 . S
C1645 C1639 1.363 . S
C1645 C1640 1.379 . S
C1645 N1643 1.356 . S
N1646 C1638 1.356 . S
N1646 H1652 0.984 . S
N1646 H1653 0.984 . S
N1647 C1640 1.356 . S
N1647 H1650 0.984 . S
N1647 H1651 0.985 . S
H1648 N1643 0.984 . S
H1649 N1643 0.985 . S
H1650 N1647 0.984 . S
H1651 N1647 0.985 . S
H1652 N1646 0.984 . S
H1653 N1646 0.984 . S
H1654 N1642 0.984 . S
H1655 N1642 0.985 . S
C1656 C1657 1.363 . S
C1656 C1662 1.379 . S
C1656 N1664 1.356 . S
C1657 C1656 1.363 . S
C1657 C1663 1.363 . S
C1658 C1659 1.363 . S
C1658 C1663 1.379 . S
C1658 N1665 1.356 . S
C1659 C1658 1.363 . S
C1659 C1662 1.363 . S
N1660 C1662 1.356 . S
N1660 H1672 0.984 . S
N1660 H1673 0.985 . S
N1661 C1663 1.356 . S
N1661 H1666 0.984 . S
N1661 H1667 0.985 . S
C1662 C1656 1.379 . S
C1662 C1659 1.363 . S
C1662 N1660 1.356 . S
C1663 C1657 1.363 . S
C1663 C1658 1.379 . S
C1663 N1661 1.356 . S
N1664 C1656 1.356 . S
N1664 H1670 0.984 . S
N1664 H1671 0.984 . S
N1665 C1658 1.356 . S
N1665 H1668 0.984 . S
N1665 H1669 0.985 . S
H1666 N1661 0.984 . S
H1667 N1661 0.985 . S
H1668 N1665 0.984 . S
H1669 N1665 0.985 . S
H1670 N1664 0.984 . S
H1671 N1664 0.984 . S
H1672 N1660 0.984 . S
H1673 N1660 0.985 . S
C1674 C1675 1.363 . S
C1674 C1680 1.379 . S
C1674 N1682 1.356 . S
C1675 C1674 1.363 . S
C1675 C1681 1.363 . S
C1676 C1677 1.363 . S
C1676 C1681 1.379 . S
C1676 N1683 1.356 . S
C1677 C1676 1.363 . S
C1677 C1680 1.363 . S
N1678 C1680 1.356 . S
N1678 H1690 0.984 . S
N1678 H1691 0.985 . S
N1679 C1681 1.356 . S
N1679 H1684 0.984 . S
N1679 H1685 0.985 . S
C1680 C1674 1.379 . S
C1680 C1677 1.363 . S
C1680 N1678 1.356 . S
C1681 C1675 1.363 . S
C1681 C1676 1.379 . S
C1681 N1679 1.356 . S
N1682 C1674 1.356 . S
N1682 H1688 0.984 . S
N1682 H1689 0.984 . S
N1683 C1676 1.356 . S
N1683 H1686 0.984 . S
N1683 H1687 0.985 . S
H1684 N1679 0.984 . S
H1685 N1679 0.985 . S
H1686 N1683 0.984 . S
H1687 N1683 0.985 . S
H1688 N1682 0.984 . S
H1689 N1682 0.984 . S
H1690 N1678 0.984 . S
H1691 N1678 0.985 . S
C1692 C1693 1.363 . S
C1692 C1698 1.379 . S
C1692 N1700 1.356 . S
C1693 C1692 1.363 . S
C1693 C1699 1.363 . S
C1694 C1695 1.363 . S
C1694 C1699 1.379 . S
C1694 N1701 1.356 . S
C1695 C1694 1.363 . S
C1695 C1698 1.363 . S
N1696 C1698 1.356 . S
N1696 H1708 0.984 . S
N1696 H1709 0.985 . S
N1697 C1699 1.356 . S
N1697 H1702 0.984 . S
N1697 H1703 0.985 . S
C1698 C1692 1.379 . S
C1698 C1695 1.363 . S
C1698 N1696 1.356 . S
C1699 C1693 1.363 . S
C1699 C1694 1.379 . S
C1699 N1697 1.356 . S
N1700 C1692 1.356 . S
N1700 H1706 0.984 . S
N1700 H1707 0.984 . S
N1701 C1694 1.356 . S
N1701 H1704 0.984 . S
N1701 H1705 0.985 . S
H1702 N1697 0.984 . S
H1703 N1697 0.985 . S
H1704 N1701 0.984 . S
H1705 N1701 0.985 . S
H1706 N1700 0.984 . S
H1707 N1700 0.984 . S
H1708 N1696 0.984 . S
H1709 N1696 0.985 . S
C1710 C1711 1.363 . S
C1710 C1716 1.379 . S
C1710 N1718 1.356 . S
C1711 C1710 1.363 . S
C1711 C1717 1.363 . S
C1712 C1713 1.363 . S
C1712 C1717 1.379 . S
C1712 N1719 1.356 . S
C1713 C1712 1.363 . S
C1713 C1716 1.363 . S
N1714 C1716 1.356 . S
N1714 H1726 0.984 . S
N1714 H1727 0.985 . S
N1715 C1717 1.356 . S
N1715 H1720 0.984 . S
N1715 H1721 0.985 . S
C1716 C1710 1.379 . S
C1716 C1713 1.363 . S
C1716 N1714 1.356 . S
C1717 C1711 1.363 . S
C1717 C1712 1.379 . S
C1717 N1715 1.356 . S
N1718 C1710 1.356 . S
N1718 H1724 0.984 . S
N1718 H1725 0.984 . S
N1719 C1712 1.356 . S
N1719 H1722 0.984 . S
N1719 H1723 0.985 . S
H1720 N1715 0.984 . S
H1721 N1715 0.985 . S
H1722 N1719 0.984 . S
H1723 N1719 0.985 . S
H1724 N1718 0.984 . S
H1725 N1718 0.984 . S
H1726 N1714 0.984 . S
H1727 N1714 0.985 . S
C1728 C1729 1.363 . S
C1728 C1734 1.379 . S
C1728 N1736 1.356 . S
C1729 C1728 1.363 . S
C1729 C1735 1.363 1_655 S
C1730 C1731 1.363 1_455 S
C1730 C1735 1.379 . S
C1730 N1737 1.356 . S
C1731 C1730 1.363 1_655 S
C1731 C1734 1.363 . S
N1732 C1734 1.356 . S
N1732 H1744 0.984 . S
N1732 H1745 0.985 . S
N1733 C1735 1.356 . S
N1733 H1738 0.984 . S
N1733 H1739 0.985 . S
C1734 C1728 1.379 . S
C1734 C1731 1.363 . S
C1734 N1732 1.356 . S
C1735 C1729 1.363 1_455 S
C1735 C1730 1.379 . S
C1735 N1733 1.356 . S
N1736 C1728 1.356 . S
N1736 H1742 0.984 . S
N1736 H1743 0.984 . S
N1737 C1730 1.356 . S
N1737 H1740 0.984 . S
N1737 H1741 0.985 . S
H1738 N1733 0.984 . S
H1739 N1733 0.985 . S
H1740 N1737 0.984 . S
H1741 N1737 0.985 . S
H1742 N1736 0.984 . S
H1743 N1736 0.984 . S
H1744 N1732 0.984 . S
H1745 N1732 0.985 . S
C1746 C1747 1.363 . S
C1746 C1752 1.379 . S
C1746 N1754 1.356 . S
C1747 C1746 1.363 . S
C1747 C1753 1.363 . S
C1748 C1749 1.363 . S
C1748 C1753 1.379 . S
C1748 N1755 1.356 . S
C1749 C1748 1.363 . S
C1749 C1752 1.363 . S
N1750 C1752 1.356 . S
N1750 H1762 0.984 . S
N1750 H1763 0.985 . S
N1751 C1753 1.356 . S
N1751 H1756 0.984 . S
N1751 H1757 0.985 . S
C1752 C1746 1.379 . S
C1752 C1749 1.363 . S
C1752 N1750 1.356 . S
C1753 C1747 1.363 . S
C1753 C1748 1.379 . S
C1753 N1751 1.356 . S
N1754 C1746 1.356 . S
N1754 H1760 0.984 . S
N1754 H1761 0.984 . S
N1755 C1748 1.356 . S
N1755 H1758 0.984 . S
N1755 H1759 0.985 . S
H1756 N1751 0.984 . S
H1757 N1751 0.985 . S
H1758 N1755 0.984 . S
H1759 N1755 0.985 . S
H1760 N1754 0.984 . S
H1761 N1754 0.984 . S
H1762 N1750 0.984 . S
H1763 N1750 0.985 . S
C1764 C1765 1.363 . S
C1764 C1770 1.379 . S
C1764 N1772 1.356 . S
C1765 C1764 1.363 . S
C1765 C1771 1.363 . S
C1766 C1767 1.363 . S
C1766 C1771 1.379 . S
C1766 N1773 1.356 . S
C1767 C1766 1.363 . S
C1767 C1770 1.363 . S
N1768 C1770 1.356 . S
N1768 H1780 0.984 . S
N1768 H1781 0.985 . S
N1769 C1771 1.356 . S
N1769 H1774 0.984 . S
N1769 H1775 0.985 . S
C1770 C1764 1.379 . S
C1770 C1767 1.363 . S
C1770 N1768 1.356 . S
C1771 C1765 1.363 . S
C1771 C1766 1.379 . S
C1771 N1769 1.356 . S
N1772 C1764 1.356 . S
N1772 H1778 0.984 . S
N1772 H1779 0.984 . S
N1773 C1766 1.356 . S
N1773 H1776 0.984 . S
N1773 H1777 0.985 . S
H1774 N1769 0.984 . S
H1775 N1769 0.985 . S
H1776 N1773 0.984 . S
H1777 N1773 0.985 . S
H1778 N1772 0.984 . S
H1779 N1772 0.984 . S
H1780 N1768 0.984 . S
H1781 N1768 0.985 . S
C1782 C1783 1.363 . S
C1782 C1788 1.379 . S
C1782 N1790 1.356 . S
C1783 C1782 1.363 . S
C1783 C1789 1.363 . S
C1784 C1785 1.363 . S
C1784 C1789 1.379 . S
C1784 N1791 1.356 . S
C1785 C1784 1.363 . S
C1785 C1788 1.363 . S
N1786 C1788 1.356 . S
N1786 H1798 0.984 . S
N1786 H1799 0.985 . S
N1787 C1789 1.356 . S
N1787 H1792 0.984 . S
N1787 H1793 0.985 . S
C1788 C1782 1.379 . S
C1788 C1785 1.363 . S
C1788 N1786 1.356 . S
C1789 C1783 1.363 . S
C1789 C1784 1.379 . S
C1789 N1787 1.356 . S
N1790 C1782 1.356 . S
N1790 H1796 0.984 . S
N1790 H1797 0.984 . S
N1791 C1784 1.356 . S
N1791 H1794 0.984 . S
N1791 H1795 0.985 . S
H1792 N1787 0.984 . S
H1793 N1787 0.985 . S
H1794 N1791 0.984 . S
H1795 N1791 0.985 . S
H1796 N1790 0.984 . S
H1797 N1790 0.984 . S
H1798 N1786 0.984 . S
H1799 N1786 0.985 . S
C1800 C1801 1.363 . S
C1800 C1806 1.379 . S
C1800 N1808 1.356 . S
C1801 C1800 1.363 . S
C1801 C1807 1.363 . S
C1802 C1803 1.363 . S
C1802 C1807 1.379 . S
C1802 N1809 1.356 . S
C1803 C1802 1.363 . S
C1803 C1806 1.363 . S
N1804 C1806 1.356 . S
N1804 H1816 0.984 . S
N1804 H1817 0.985 . S
N1805 C1807 1.356 . S
N1805 H1810 0.984 . S
N1805 H1811 0.985 . S
C1806 C1800 1.379 . S
C1806 C1803 1.363 . S
C1806 N1804 1.356 . S
C1807 C1801 1.363 . S
C1807 C1802 1.379 . S
C1807 N1805 1.356 . S
N1808 C1800 1.356 . S
N1808 H1814 0.984 . S
N1808 H1815 0.984 . S
N1809 C1802 1.356 . S
N1809 H1812 0.984 . S
N1809 H1813 0.985 . S
H1810 N1805 0.984 . S
H1811 N1805 0.985 . S
H1812 N1809 0.984 . S
H1813 N1809 0.985 . S
H1814 N1808 0.984 . S
H1815 N1808 0.984 . S
H1816 N1804 0.984 . S
H1817 N1804 0.985 . S
C1818 C1819 1.363 . S
C1818 C1824 1.379 . S
C1818 N1826 1.356 . S
C1819 C1818 1.363 . S
C1819 C1825 1.363 . S
C1820 C1821 1.363 . S
C1820 C1825 1.379 . S
C1820 N1827 1.356 . S
C1821 C1820 1.363 . S
C1821 C1824 1.363 . S
N1822 C1824 1.356 . S
N1822 H1834 0.984 . S
N1822 H1835 0.985 . S
N1823 C1825 1.356 . S
N1823 H1828 0.984 . S
N1823 H1829 0.985 . S
C1824 C1818 1.379 . S
C1824 C1821 1.363 . S
C1824 N1822 1.356 . S
C1825 C1819 1.363 . S
C1825 C1820 1.379 . S
C1825 N1823 1.356 . S
N1826 C1818 1.356 . S
N1826 H1832 0.984 . S
N1826 H1833 0.984 . S
N1827 C1820 1.356 . S
N1827 H1830 0.984 . S
N1827 H1831 0.985 . S
H1828 N1823 0.984 . S
H1829 N1823 0.985 . S
H1830 N1827 0.984 . S
H1831 N1827 0.985 . S
H1832 N1826 0.984 . S
H1833 N1826 0.984 . S
H1834 N1822 0.984 . S
H1835 N1822 0.985 . S
C1836 C1837 1.363 . S
C1836 C1842 1.379 . S
C1836 N1844 1.356 . S
C1837 C1836 1.363 . S
C1837 C1843 1.363 . S
C1838 C1839 1.363 . S
C1838 C1843 1.379 . S
C1838 N1845 1.356 . S
C1839 C1838 1.363 . S
C1839 C1842 1.363 . S
N1840 C1842 1.356 . S
N1840 H1852 0.984 . S
N1840 H1853 0.985 . S
N1841 C1843 1.356 . S
N1841 H1846 0.984 . S
N1841 H1847 0.985 . S
C1842 C1836 1.379 . S
C1842 C1839 1.363 . S
C1842 N1840 1.356 . S
C1843 C1837 1.363 . S
C1843 C1838 1.379 . S
C1843 N1841 1.356 . S
N1844 C1836 1.356 . S
N1844 H1850 0.984 . S
N1844 H1851 0.984 . S
N1845 C1838 1.356 . S
N1845 H1848 0.984 . S
N1845 H1849 0.985 . S
H1846 N1841 0.984 . S
H1847 N1841 0.985 . S
H1848 N1845 0.984 . S
H1849 N1845 0.985 . S
H1850 N1844 0.984 . S
H1851 N1844 0.984 . S
H1852 N1840 0.984 . S
H1853 N1840 0.985 . S
C1854 C1855 1.363 . S
C1854 C1860 1.379 . S
C1854 N1862 1.356 . S
C1855 C1854 1.363 . S
C1855 C1861 1.363 . S
C1856 C1857 1.363 . S
C1856 C1861 1.379 . S
C1856 N1863 1.356 . S
C1857 C1856 1.363 . S
C1857 C1860 1.363 . S
N1858 C1860 1.356 . S
N1858 H1870 0.984 . S
N1858 H1871 0.985 . S
N1859 C1861 1.356 . S
N1859 H1864 0.984 . S
N1859 H1865 0.985 . S
C1860 C1854 1.379 . S
C1860 C1857 1.363 . S
C1860 N1858 1.356 . S
C1861 C1855 1.363 . S
C1861 C1856 1.379 . S
C1861 N1859 1.356 . S
N1862 C1854 1.356 . S
N1862 H1868 0.984 . S
N1862 H1869 0.984 . S
N1863 C1856 1.356 . S
N1863 H1866 0.984 . S
N1863 H1867 0.985 . S
H1864 N1859 0.984 . S
H1865 N1859 0.985 . S
H1866 N1863 0.984 . S
H1867 N1863 0.985 . S
H1868 N1862 0.984 . S
H1869 N1862 0.984 . S
H1870 N1858 0.984 . S
H1871 N1858 0.985 . S
C1872 C1873 1.363 1_455 S
C1872 C1878 1.379 . S
C1872 N1880 1.356 . S
C1873 C1872 1.363 1_655 S
C1873 C1879 1.363 . S
C1874 C1875 1.363 . S
C1874 C1879 1.379 . S
C1874 N1881 1.356 . S
C1875 C1874 1.363 . S
C1875 C1878 1.363 1_655 S
N1876 C1878 1.356 . S
N1876 H1888 0.984 . S
N1876 H1889 0.985 . S
N1877 C1879 1.356 . S
N1877 H1882 0.984 . S
N1877 H1883 0.985 . S
C1878 C1872 1.379 . S
C1878 C1875 1.363 1_455 S
C1878 N1876 1.356 . S
C1879 C1873 1.363 . S
C1879 C1874 1.379 . S
C1879 N1877 1.356 . S
N1880 C1872 1.356 . S
N1880 H1886 0.984 . S
N1880 H1887 0.984 . S
N1881 C1874 1.356 . S
N1881 H1884 0.984 . S
N1881 H1885 0.985 . S
H1882 N1877 0.984 . S
H1883 N1877 0.985 . S
H1884 N1881 0.984 . S
H1885 N1881 0.985 . S
H1886 N1880 0.984 . S
H1887 N1880 0.984 . S
H1888 N1876 0.984 . S
H1889 N1876 0.985 . S
C1890 C1891 1.363 . S
C1890 C1896 1.379 . S
C1890 N1898 1.356 . S
C1891 C1890 1.363 . S
C1891 C1897 1.363 . S
C1892 C1893 1.363 . S
C1892 C1897 1.379 . S
C1892 N1899 1.356 . S
C1893 C1892 1.363 . S
C1893 C1896 1.363 . S
N1894 C1896 1.356 . S
N1894 H1906 0.984 . S
N1894 H1907 0.985 . S
N1895 C1897 1.356 . S
N1895 H1900 0.984 . S
N1895 H1901 0.985 . S
C1896 C1890 1.379 . S
C1896 C1893 1.363 . S
C1896 N1894 1.356 . S
C1897 C1891 1.363 . S
C1897 C1892 1.379 . S
C1897 N1895 1.356 . S
N1898 C1890 1.356 . S
N1898 H1904 0.984 . S
N1898 H1905 0.984 . S
N1899 C1892 1.356 . S
N1899 H1902 0.984 . S
N1899 H1903 0.985 . S
H1900 N1895 0.984 . S
H1901 N1895 0.985 . S
H1902 N1899 0.984 . S
H1903 N1899 0.985 . S
H1904 N1898 0.984 . S
H1905 N1898 0.984 . S
H1906 N1894 0.984 . S
H1907 N1894 0.985 . S
C1908 C1909 1.363 . S
C1908 C1914 1.379 . S
C1908 N1916 1.356 . S
C1909 C1908 1.363 . S
C1909 C1915 1.363 . S
C1910 C1911 1.363 . S
C1910 C1915 1.379 . S
C1910 N1917 1.356 1_545 S
C1911 C1910 1.363 . S
C1911 C1914 1.363 . S
N1912 C1914 1.356 . S
N1912 H1924 0.984 . S
N1912 H1925 0.985 . S
N1913 C1915 1.356 . S
N1913 H1918 0.984 . S
N1913 H1919 0.985 . S
C1914 C1908 1.379 . S
C1914 C1911 1.363 . S
C1914 N1912 1.356 . S
C1915 C1909 1.363 . S
C1915 C1910 1.379 . S
C1915 N1913 1.356 . S
N1916 C1908 1.356 . S
N1916 H1922 0.984 . S
N1916 H1923 0.984 . S
N1917 C1910 1.356 1_565 S
N1917 H1920 0.984 . S
N1917 H1921 0.985 . S
H1918 N1913 0.984 . S
H1919 N1913 0.985 . S
H1920 N1917 0.984 . S
H1921 N1917 0.985 . S
H1922 N1916 0.984 . S
H1923 N1916 0.984 . S
H1924 N1912 0.984 . S
H1925 N1912 0.985 . S
C631 C13 1.501 . S
C633 C458 1.537 1_655 S
C649 C27 1.418 . S
C651 C471 1.455 . S
C669 C500 1.521 1_545 S
C667 C36 1.471 . S
C685 C41 1.464 . S
C687 C513 1.505 . S
C703 C8 1.552 . S
C705 C534 1.612 . S
C721 C22 1.465 . S
C723 C563 1.501 . S
C739 C55 1.513 . S
C741 C542 1.521 . S
C759 C555 1.457 . S
C757 C69 1.426 . S
C777 C521 1.523 . S
C775 C78 1.472 . S
C793 C83 1.477 . S
C795 C492 1.512 1_545 S
C813 C450 1.605 1_655 S
C811 C50 1.547 . S
C829 C64 1.454 . S
C831 C479 1.505 . S
C847 C97 1.510 . S
C849 C584 1.535 . S
C865 C111 1.427 . S
C867 C597 1.476 . S
C885 C626 1.522 . S
C883 C120 1.514 . S
C901 C125 1.473 . S
C903 C261 1.535 . S
C919 C92 1.612 . S
C921 C282 1.663 . S
C937 C106 1.487 . S
C939 C311 1.513 . S
C955 C139 1.495 . S
C957 C290 1.546 . S
C973 C153 1.439 . S
C975 C303 1.466 . S
C993 C269 1.548 . S
C991 C162 1.498 . S
C1011 C618 1.518 . S
C1009 C167 1.479 . S
C1029 C576 1.599 . S
C1027 C134 1.587 . S
C1047 C605 1.523 . S
C1045 C148 1.477 . S
C1063 C181 1.502 . S
C1065 C332 1.524 . S
C1081 C195 1.431 . S
C1083 C345 1.469 . S
C1099 C204 1.515 . S
C1101 C374 1.528 . S
C1117 C209 1.479 . S
C1119 C387 1.547 . S
C1137 C408 1.667 . S
C1135 C176 1.616 . S
C1155 C437 1.512 . S
C1153 C190 1.491 . S
C1173 C416 1.564 . S
C1171 C223 1.506 . S
C1191 C429 1.469 . S
C1189 C237 1.435 . S
C1207 C246 1.494 . S
C1209 C395 1.540 . S
C1227 C366 1.503 . S
C1225 C251 1.470 . S
C1243 C218 1.585 . S
C1245 C324 1.602 . S
C1263 C353 1.526 . S
C1261 C232 1.476 . S
C1281 C264 1.352 . S
C1279 C11 1.438 . S
C1297 C25 1.343 . S
C1299 C285 1.276 . S
C1317 C313 1.305 . S
C1315 C35 1.415 . S
C1335 C334 1.301 . S
C1333 C39 1.412 . S
C1353 C348 1.379 . S
C1351 C7 1.497 . S
C1371 C376 1.286 . S
C1369 C21 1.410 . S
C1387 C53 1.459 . S
C1389 C369 1.305 . S
C1405 C67 1.362 . S
C1407 C327 1.218 . S
C1423 C77 1.427 . S
C1425 C355 1.350 . S
C1441 C81 1.443 . S
C1443 C292 1.387 . S
C1461 C306 1.329 . S
C1459 C49 1.515 . S
C1477 C63 1.436 . S
C1479 C271 1.354 . S
C1497 C390 1.330 . S
C1495 C95 1.431 . S
C1513 C109 1.368 . S
C1515 C411 1.294 . S
C1531 C119 1.444 . S
C1533 C439 1.331 . S
C1551 C460 1.265 . S
C1549 C123 1.366 . S
C1567 C91 1.486 . S
C1569 C474 1.360 . S
C1585 C105 1.371 . S
C1587 C502 1.278 . S
C1603 C137 1.415 . S
C1605 C495 1.267 . S
C1621 C151 1.313 . S
C1623 C453 1.197 . S
C1641 C481 1.347 . S
C1639 C161 1.429 . S
C1657 C165 1.437 . S
C1659 C418 1.372 . S
C1675 C133 1.526 . S
C1677 C432 1.335 . S
C1695 C397 1.379 . S
C1693 C147 1.463 . S
C1713 C516 1.266 1_545 S
C1711 C179 1.411 . S
C1729 C193 1.305 . S
C1731 C537 1.209 1_655 S
C1747 C203 1.410 . S
C1749 C565 1.304 . S
C1767 C586 1.290 . S
C1765 C207 1.408 . S
C1785 C600 1.381 . S
C1783 C175 1.508 . S
C1801 C189 1.440 . S
C1803 C628 1.319 . S
C1819 C221 1.452 . S
C1821 C621 1.284 . S
C1837 C235 1.387 . S
C1839 C579 1.239 . S
C1857 C607 1.372 . S
C1855 C245 1.458 . S
C1875 C544 1.288 1_655 S
C1873 C249 1.368 . S
C1893 C558 1.324 . S
C1891 C217 1.505 . S
C1909 C231 1.394 . S
C1911 C523 1.314 1_545 S
