# Generated by pormake.
# Topology pto, (3,4)-cn, num edge types: 1
# Building blocks:
#     Node 0, Type 0, BuildingBlock: OLANEW_clean_sbu_2, # of connection points: 3
#     Node 1, Type 0, BuildingBlock: OLANEW_clean_sbu_2, # of connection points: 3
#     Node 2, Type 0, BuildingBlock: OLANEW_clean_sbu_2, # of connection points: 3
#     Node 3, Type 0, BuildingBlock: OLANEW_clean_sbu_2, # of connection points: 3
#     Node 4, Type 0, BuildingBlock: OLANEW_clean_sbu_2, # of connection points: 3
#     Node 5, Type 0, BuildingBlock: OLANEW_clean_sbu_2, # of connection points: 3
#     Node 6, Type 0, BuildingBlock: OLANEW_clean_sbu_2, # of connection points: 3
#     Node 7, Type 0, BuildingBlock: OLANEW_clean_sbu_2, # of connection points: 3
#     Node 8, Type 1, BuildingBlock: KUFVIS_clean_linker_0, # of connection points: 4
#     Node 9, Type 1, BuildingBlock: KUFVIS_clean_linker_0, # of connection points: 4
#     Node 10, Type 1, BuildingBlock: KUFVIS_clean_linker_0, # of connection points: 4
#     Node 11, Type 1, BuildingBlock: KUFVIS_clean_linker_0, # of connection points: 4
#     Node 12, Type 1, BuildingBlock: KUFVIS_clean_linker_0, # of connection points: 4
#     Node 13, Type 1, BuildingBlock: KUFVIS_clean_linker_0, # of connection points: 4
#     Edge 14, Type (0, 1), BuildingBlock: XIVTED_clean_linker_0, # of connection points: 2
#     Edge 15, Type (0, 1), BuildingBlock: XIVTED_clean_linker_0, # of connection points: 2
#     Edge 16, Type (0, 1), BuildingBlock: XIVTED_clean_linker_0, # of connection points: 2
#     Edge 17, Type (0, 1), BuildingBlock: XIVTED_clean_linker_0, # of connection points: 2
#     Edge 18, Type (0, 1), BuildingBlock: XIVTED_clean_linker_0, # of connection points: 2
#     Edge 19, Type (0, 1), BuildingBlock: XIVTED_clean_linker_0, # of connection points: 2
#     Edge 20, Type (0, 1), BuildingBlock: XIVTED_clean_linker_0, # of connection points: 2
#     Edge 21, Type (0, 1), BuildingBlock: XIVTED_clean_linker_0, # of connection points: 2
#     Edge 22, Type (0, 1), BuildingBlock: XIVTED_clean_linker_0, # of connection points: 2
#     Edge 23, Type (0, 1), BuildingBlock: XIVTED_clean_linker_0, # of connection points: 2
#     Edge 24, Type (0, 1), BuildingBlock: XIVTED_clean_linker_0, # of connection points: 2
#     Edge 25, Type (0, 1), BuildingBlock: XIVTED_clean_linker_0, # of connection points: 2
#     Edge 26, Type (0, 1), BuildingBlock: XIVTED_clean_linker_0, # of connection points: 2
#     Edge 27, Type (0, 1), BuildingBlock: XIVTED_clean_linker_0, # of connection points: 2
#     Edge 28, Type (0, 1), BuildingBlock: XIVTED_clean_linker_0, # of connection points: 2
#     Edge 29, Type (0, 1), BuildingBlock: XIVTED_clean_linker_0, # of connection points: 2
#     Edge 30, Type (0, 1), BuildingBlock: XIVTED_clean_linker_0, # of connection points: 2
#     Edge 31, Type (0, 1), BuildingBlock: XIVTED_clean_linker_0, # of connection points: 2
#     Edge 32, Type (0, 1), BuildingBlock: XIVTED_clean_linker_0, # of connection points: 2
#     Edge 33, Type (0, 1), BuildingBlock: XIVTED_clean_linker_0, # of connection points: 2
#     Edge 34, Type (0, 1), BuildingBlock: XIVTED_clean_linker_0, # of connection points: 2
#     Edge 35, Type (0, 1), BuildingBlock: XIVTED_clean_linker_0, # of connection points: 2
#     Edge 36, Type (0, 1), BuildingBlock: XIVTED_clean_linker_0, # of connection points: 2
#     Edge 37, Type (0, 1), BuildingBlock: XIVTED_clean_linker_0, # of connection points: 2
# Relax obj value: 0.008
# Max RMSD: 0.120
# Mean RMSD: 0.069
data_MOF--net-pto--node1-OLANEW_clean_sbu_2--node2-KUFVIS_clean_linker_0--edge1-XIVTED_clean_linker_0
_symmetry_space_group_name_H-M    P1
_symmetry_Int_Tables_number       1
_symmetry_cell_setting            triclinic
loop_
_symmetry_equiv_pos_as_xyz
'x, y, z'
_cell_length_a     30.380473
_cell_length_b     55.035953
_cell_length_c     42.729692
_cell_angle_alpha  92.612081
_cell_angle_beta   89.210318
_cell_angle_gamma 107.67395
loop_
_atom_site_label
_atom_site_type_symbol
_atom_site_fract_x
_atom_site_fract_y
_atom_site_fract_z
_atom_type_partial_charge
O0 O 0.26935 0.27807 0.22546 0.0
Cd1 Cd 0.20878 0.2589 0.2631 0.0
O2 O 0.27804 0.31526 0.24945 0.0
Cd3 Cd 0.30284 0.35697 0.25348 0.0
O4 O 0.30426 0.39679 0.25854 0.0
C5 C 0.29311 0.40735 0.23536 0.0
O6 O 0.28396 0.39443 0.20837 0.0
C7 C 0.28919 0.30201 0.22737 0.0
C8 C 0.23873 0.23804 0.31395 0.0
O9 O 0.22409 0.2245 0.28883 0.0
O10 O 0.23993 0.26154 0.31479 0.0
O11 O 0.21488 0.91182 0.83465 0.0
Cd12 Cd 0.15904 0.92779 0.80797 0.0
O13 O 0.18986 0.87485 0.80897 0.0
Cd14 Cd 0.18347 0.83481 0.79624 0.0
O15 O 0.16731 0.79636 0.77434 0.0
C16 C 0.15559 0.77625 0.78994 0.0
O17 O 0.15412 0.77838 0.82066 0.0
C18 C 0.21711 0.88932 0.82915 0.0
C19 C 0.19612 0.95899 0.75831 0.0
O20 O 0.19697 0.96844 0.78635 0.0
O21 O 0.17835 0.93479 0.75386 0.0
O22 O 0.82202 0.78175 0.37977 0.0
Cd23 Cd 0.77563 0.73694 0.37011 0.0
O24 O 0.80311 0.78819 0.33249 0.0
Cd25 Cd 0.79437 0.8066 0.28975 0.0
O26 O 0.75935 0.80466 0.24498 0.0
C27 C 0.77756 0.81523 0.22014 0.0
O28 O 0.82097 0.82948 0.22048 0.0
C29 C 0.82252 0.79725 0.35848 0.0
C30 C 0.82102 0.69993 0.3724 0.0
O31 O 0.81625 0.70969 0.34646 0.0
O32 O 0.80537 0.70816 0.39739 0.0
O33 O 0.78466 0.30093 0.58459 0.0
Cd34 Cd 0.74771 0.25619 0.56673 0.0
O35 O 0.76776 0.29381 0.63402 0.0
Cd36 Cd 0.7603 0.3047 0.68325 0.0
O37 O 0.75346 0.3181 0.73138 0.0
C38 C 0.75644 0.3414 0.73724 0.0
O39 O 0.76405 0.35704 0.71407 0.0
C40 C 0.78489 0.30943 0.61277 0.0
C41 C 0.78102 0.21622 0.58303 0.0
O42 O 0.80041 0.23137 0.56151 0.0
O43 O 0.74744 0.22078 0.59817 0.0
O44 O 0.68607 0.76633 0.57772 0.0
Cd45 Cd 0.65492 0.71942 0.57689 0.0
O46 O 0.70026 0.77198 0.62825 0.0
Cd47 Cd 0.71526 0.79515 0.67208 0.0
O48 O 0.71071 0.81412 0.71753 0.0
C49 C 0.7139 0.80336 0.74274 0.0
O50 O 0.72204 0.78122 0.74106 0.0
C51 C 0.69954 0.78128 0.60163 0.0
C52 C 0.71506 0.69044 0.58465 0.0
O53 O 0.71037 0.69897 0.55787 0.0
O54 O 0.6927 0.69639 0.60792 0.0
O55 O 0.94634 0.29292 0.33988 0.0
Cd56 Cd 0.94135 0.25337 0.30862 0.0
O57 O 0.91756 0.30063 0.29645 0.0
Cd58 Cd 0.89433 0.32039 0.25994 0.0
O59 O 0.85051 0.32454 0.22195 0.0
C60 C 0.86365 0.33933 0.19939 0.0
O61 O 0.90664 0.35411 0.19837 0.0
C62 C 0.93272 0.30822 0.32393 0.0
C63 C 0.91166 0.2063 0.33676 0.0
O64 O 0.95468 0.21896 0.33557 0.0
O65 O 0.88252 0.21634 0.32572 0.0
O66 O 0.1838 0.3633 0.86775 0.0
Cd67 Cd 0.11196 0.36745 0.84775 0.0
O68 O 0.19375 0.34476 0.82284 0.0
Cd69 Cd 0.22846 0.32424 0.79083 0.0
O70 O 0.24496 0.29998 0.75337 0.0
C71 C 0.27632 0.28917 0.75512 0.0
O72 O 0.30158 0.29278 0.78062 0.0
C73 C 0.20791 0.35299 0.85032 0.0
C74 C 0.12606 0.40892 0.80956 0.0
O75 O 0.11961 0.41129 0.83911 0.0
O76 O 0.12644 0.38702 0.79819 0.0
O77 O 0.31109 0.90556 0.25538 0.0
Cd78 Cd 0.2674 0.91211 0.30169 0.0
O79 O 0.30387 0.86812 0.27364 0.0
Cd80 Cd 0.31041 0.82976 0.278 0.0
O81 O 0.29886 0.79012 0.29037 0.0
C82 C 0.29598 0.78495 0.31917 0.0
O83 O 0.30193 0.8037 0.34041 0.0
C84 C 0.31774 0.88388 0.25203 0.0
C85 C 0.31128 0.95309 0.3424 0.0
O86 O 0.31584 0.93094 0.34573 0.0
O87 O 0.28718 0.95597 0.31926 0.0
H88 H 0.08543 0.4719 0.31604 0.0
H89 H 0.01592 0.51721 0.36928 0.0
H90 H 0.13713 0.55318 0.31388 0.0
H91 H 0.14811 0.58279 0.35284 0.0
H92 H 0.06839 0.63292 0.37741 0.0
H93 H 0.99872 0.55391 0.35557 0.0
C94 C 0.08243 0.49051 0.32328 0.0
C95 C 0.11516 0.51245 0.3131 0.0
C96 C 0.04665 0.49211 0.34332 0.0
C97 C 0.04322 0.51619 0.35319 0.0
C98 C 0.07602 0.53876 0.34299 0.0
C99 C 0.11186 0.53646 0.32268 0.0
C100 C 0.07371 0.56466 0.35366 0.0
C101 C 0.11462 0.58547 0.35694 0.0
C102 C 0.11289 0.61012 0.3652 0.0
C103 C 0.07014 0.6138 0.3719 0.0
C104 C 0.02911 0.59361 0.36876 0.0
C105 C 0.0308 0.56914 0.35924 0.0
H106 H 0.96347 0.63648 0.65161 0.0
H107 H 0.02281 0.58484 0.69355 0.0
H108 H 0.90927 0.55668 0.62763 0.0
H109 H 0.90011 0.51974 0.64825 0.0
H110 H 0.98112 0.47168 0.67114 0.0
H111 H 0.04325 0.55235 0.6778 0.0
C112 C 0.96513 0.61718 0.65357 0.0
C113 C 0.93234 0.59693 0.63807 0.0
C114 C 0.99808 0.61283 0.67317 0.0
C115 C 0.99834 0.5877 0.6771 0.0
C116 C 0.96763 0.5668 0.66005 0.0
C117 C 0.93399 0.57186 0.64084 0.0
C118 C 0.97115 0.54014 0.6624 0.0
C119 C 0.93319 0.51812 0.65509 0.0
C120 C 0.93719 0.49351 0.65791 0.0
C121 C 0.97871 0.49072 0.66813 0.0
C122 C 0.01632 0.51188 0.67597 0.0
C123 C 0.01287 0.53643 0.67254 0.0
H124 H 0.30136 0.2028 0.53912 0.0
H125 H 0.32906 0.14736 0.59703 0.0
H126 H 0.31446 0.13336 0.49688 0.0
H127 H 0.36299 0.11136 0.50479 0.0
H128 H 0.33047 0.04068 0.55111 0.0
H129 H 0.29746 0.10438 0.59556 0.0
C130 C 0.30799 0.18469 0.54136 0.0
C131 C 0.30868 0.1693 0.51445 0.0
C132 C 0.31425 0.17666 0.57125 0.0
C133 C 0.32344 0.15327 0.57399 0.0
C134 C 0.32382 0.13726 0.54728 0.0
C135 C 0.3158 0.14552 0.51768 0.0
C136 C 0.32985 0.11137 0.54997 0.0
C137 C 0.34852 0.10025 0.52478 0.0
C138 C 0.34722 0.07453 0.52439 0.0
C139 C 0.33134 0.06049 0.55107 0.0
C140 C 0.31459 0.07137 0.57721 0.0
C141 C 0.3134 0.0967 0.57632 0.0
H142 H 0.52526 0.82601 0.10484 0.0
H143 H 0.5789 0.82203 0.01236 0.0
H144 H 0.46656 0.85435 0.02973 0.0
H145 H 0.44598 0.84029 0.98213 0.0
H146 H 0.50843 0.84975 0.89148 0.0
H147 H 0.58947 0.84361 0.97012 0.0
C148 C 0.52389 0.82903 0.07999 0.0
C149 C 0.49116 0.83971 0.06906 0.0
C150 C 0.55643 0.82353 0.05975 0.0
C151 C 0.55473 0.82763 0.02767 0.0
C152 C 0.52162 0.83825 0.01578 0.0
C153 C 0.49098 0.84506 0.0373 0.0
C154 C 0.51842 0.84185 0.98124 0.0
C155 C 0.47664 0.84282 0.96793 0.0
C156 C 0.47315 0.84622 0.93579 0.0
C157 C 0.51126 0.84765 0.91641 0.0
C158 C 0.55277 0.84604 0.92865 0.0
C159 C 0.5565 0.84371 0.96104 0.0
H160 H 0.82461 0.08823 0.48927 0.0
H161 H 0.82862 0.02596 0.5444 0.0
H162 H 0.83028 0.01888 0.44267 0.0
H163 H 0.86737 0.99101 0.45103 0.0
H164 H 0.83692 0.92184 0.50009 0.0
H165 H 0.79223 0.98334 0.53908 0.0
C166 C 0.82508 0.06864 0.49049 0.0
C167 C 0.82776 0.05465 0.46291 0.0
C168 C 0.82521 0.05839 0.51969 0.0
C169 C 0.82719 0.03331 0.5215 0.0
C170 C 0.82881 0.01831 0.49378 0.0
C171 C 0.82927 0.02951 0.46445 0.0
C172 C 0.831 0.99142 0.49544 0.0
C173 C 0.85213 0.98037 0.47118 0.0
C174 C 0.85415 0.9553 0.47284 0.0
C175 C 0.83638 0.94143 0.49912 0.0
C176 C 0.81442 0.95149 0.52297 0.0
C177 C 0.81105 0.97626 0.52099 0.0
H178 H 0.57827 0.35121 0.10621 0.0
H179 H 0.63758 0.3549 0.01471 0.0
H180 H 0.50713 0.37051 0.03032 0.0
H181 H 0.49228 0.35682 0.98322 0.0
H182 H 0.55258 0.36718 0.89201 0.0
H183 H 0.6402 0.37411 0.97138 0.0
C184 C 0.57678 0.35506 0.08164 0.0
C185 C 0.53802 0.3603 0.07004 0.0
C186 C 0.61307 0.35384 0.06178 0.0
C187 C 0.61028 0.35751 0.02969 0.0
C188 C 0.5717 0.36312 0.01721 0.0
C189 C 0.53644 0.36523 0.03823 0.0
C190 C 0.5669 0.36532 0.98246 0.0
C191 C 0.52291 0.36134 0.96887 0.0
C192 C 0.51752 0.3629 0.93649 0.0
C193 C 0.55652 0.36745 0.91721 0.0
C194 C 0.60042 0.37105 0.92978 0.0
C195 C 0.60567 0.37046 0.96229 0.0
H196 H 0.24904 0.42971 0.19527 0.0
H197 H 0.20444 0.52314 0.33147 0.0
H198 H 0.31202 0.44037 0.28686 0.0
H199 H 0.1131 0.49298 0.25337 0.0
H200 H 0.26191 0.50529 0.30671 0.0
H201 H 0.2176 0.46488 0.20818 0.0
C202 C 0.25711 0.43977 0.21785 0.0
C203 C 0.28227 0.43168 0.24032 0.0
C204 C 0.22988 0.50326 0.29454 0.0
C205 C 0.24643 0.47191 0.25514 0.0
C206 C 0.19739 0.51364 0.30849 0.0
C207 C 0.15427 0.5094 0.29431 0.0
C208 C 0.21887 0.48862 0.26631 0.0
C209 C 0.14614 0.4966 0.26488 0.0
C210 C 0.23907 0.45982 0.22519 0.0
C211 C 0.29201 0.44564 0.26906 0.0
N212 N 0.17793 0.48634 0.252 0.0
N213 N 0.2735 0.46484 0.27584 0.0
H214 H 0.12182 0.72921 0.81541 0.0
H215 H 0.05132 0.65691 0.64863 0.0
H216 H 0.1546 0.76523 0.7268 0.0
H217 H 0.01883 0.61918 0.73601 0.0
H218 H 0.09677 0.69563 0.67712 0.0
H219 H 0.09103 0.68786 0.7872 0.0
C220 C 0.12292 0.72843 0.79005 0.0
C221 C 0.14042 0.7508 0.77346 0.0
C222 C 0.08016 0.67886 0.69014 0.0
C223 C 0.10516 0.70353 0.74105 0.0
C224 C 0.05422 0.65676 0.67386 0.0
C225 C 0.03098 0.63493 0.69005 0.0
C226 C 0.08263 0.67931 0.72297 0.0
C227 C 0.03629 0.63562 0.72268 0.0
C228 C 0.10532 0.7048 0.77396 0.0
C229 C 0.14112 0.74857 0.74061 0.0
N230 N 0.06112 0.65759 0.73815 0.0
N231 N 0.12346 0.72543 0.72554 0.0
H232 H 0.84682 0.67992 0.42413 0.0
H233 H 0.96423 0.58972 0.32387 0.0
H234 H 0.84646 0.67358 0.32306 0.0
H235 H 0.99672 0.61324 0.42053 0.0
H236 H 0.90462 0.61151 0.3257 0.0
H237 H 0.88705 0.6476 0.42517 0.0
C238 C 0.85497 0.67165 0.40216 0.0
C239 C 0.8438 0.67972 0.37345 0.0
C240 C 0.92408 0.61141 0.34671 0.0
C241 C 0.88934 0.64252 0.37451 0.0
C242 C 0.95758 0.5987 0.34576 0.0
C243 C 0.98514 0.59973 0.37211 0.0
C244 C 0.91823 0.6251 0.37422 0.0
C245 C 0.97596 0.61203 0.39978 0.0
C246 C 0.87785 0.65317 0.40278 0.0
C247 C 0.85492 0.66817 0.34572 0.0
N248 N 0.94358 0.62447 0.40005 0.0
N249 N 0.87724 0.65024 0.34694 0.0
H250 H 0.82759 0.3346 0.66644 0.0
H251 H 0.8977 0.47353 0.60149 0.0
H252 H 0.78435 0.348 0.57481 0.0
H253 H 0.89326 0.45887 0.69981 0.0
H254 H 0.85417 0.42842 0.59025 0.0
H255 H 0.85278 0.38049 0.6783 0.0
C256 C 0.82226 0.34712 0.64909 0.0
C257 C 0.80233 0.33732 0.62 0.0
C258 C 0.86168 0.43525 0.61435 0.0
C259 C 0.83295 0.3902 0.63293 0.0
C260 C 0.88593 0.46102 0.62075 0.0
C261 C 0.89873 0.46983 0.6516 0.0
C262 C 0.85106 0.41828 0.63898 0.0
C263 C 0.88375 0.45276 0.67572 0.0
C264 C 0.83712 0.37341 0.65574 0.0
C265 C 0.79922 0.35473 0.59766 0.0
N266 N 0.86145 0.42774 0.66888 0.0
N267 N 0.81446 0.38032 0.60453 0.0
H268 H 0.23639 0.18836 0.32051 0.0
H269 H 0.25527 0.14091 0.46641 0.0
H270 H 0.27222 0.26176 0.37027 0.0
H271 H 0.34223 0.21712 0.49116 0.0
H272 H 0.23978 0.15554 0.416 0.0
H273 H 0.2555 0.1696 0.36709 0.0
C274 C 0.24811 0.20052 0.3413 0.0
C275 C 0.25224 0.22663 0.34157 0.0
C276 C 0.26307 0.169 0.43207 0.0
C277 C 0.27306 0.20513 0.39542 0.0
C278 C 0.27184 0.16063 0.46101 0.0
C279 C 0.30031 0.17776 0.48308 0.0
C280 C 0.28297 0.19474 0.42502 0.0
C281 C 0.3197 0.20328 0.47504 0.0
C282 C 0.25856 0.18972 0.36807 0.0
C283 C 0.26814 0.2415 0.36906 0.0
N284 N 0.31047 0.211 0.44676 0.0
N285 N 0.27793 0.23053 0.39486 0.0
H286 H 0.24984 0.90443 0.88811 0.0
H287 H 0.42945 0.82389 0.8813 0.0
H288 H 0.26227 0.85498 0.80946 0.0
H289 H 0.41901 0.87452 0.95924 0.0
H290 H 0.36373 0.83219 0.85656 0.0
H291 H 0.30783 0.89131 0.91617 0.0
C292 C 0.26447 0.89061 0.87686 0.0
C293 C 0.2506 0.88044 0.84659 0.0
C294 C 0.37557 0.84136 0.87917 0.0
C295 C 0.31725 0.86544 0.87849 0.0
C296 C 0.41318 0.83669 0.89327 0.0
C297 C 0.43007 0.84876 0.92224 0.0
C298 C 0.35468 0.85831 0.89406 0.0
C299 C 0.40706 0.86475 0.93696 0.0
C300 C 0.2975 0.88308 0.89292 0.0
C301 C 0.27076 0.86268 0.83309 0.0
N302 N 0.37081 0.86923 0.92258 0.0
N303 N 0.30322 0.85582 0.84908 0.0
H304 H 0.79658 0.83625 0.33404 0.0
H305 H 0.92246 0.9327 0.47233 0.0
H306 H 0.89035 0.82153 0.40019 0.0
H307 H 0.81713 0.94488 0.41415 0.0
H308 H 0.92743 0.8979 0.43619 0.0
H309 H 0.81875 0.88081 0.35352 0.0
C310 C 0.82293 0.84253 0.35193 0.0
C311 C 0.84163 0.82509 0.3655 0.0
C312 C 0.90404 0.90856 0.43078 0.0
C313 C 0.86644 0.87599 0.38841 0.0
C314 C 0.90164 0.92862 0.45124 0.0
C315 C 0.86923 0.94155 0.44621 0.0
C316 C 0.87327 0.9011 0.40537 0.0
C317 C 0.84269 0.93541 0.41874 0.0
C318 C 0.83526 0.86797 0.36328 0.0
C319 C 0.87477 0.83426 0.38923 0.0
N320 N 0.84453 0.91522 0.39966 0.0
N321 N 0.88573 0.85896 0.40012 0.0
H322 H 0.74681 0.38774 0.75606 0.0
H323 H 0.65911 0.34207 0.927 0.0
H324 H 0.74498 0.31513 0.79124 0.0
H325 H 0.62892 0.4039 0.88242 0.0
H326 H 0.71017 0.33866 0.88316 0.0
H327 H 0.72234 0.39994 0.80759 0.0
C328 C 0.74182 0.37447 0.7747 0.0
C329 C 0.74713 0.35018 0.76917 0.0
C330 C 0.6931 0.35331 0.8833 0.0
C331 C 0.71931 0.36409 0.82819 0.0
C332 C 0.66437 0.35541 0.90842 0.0
C333 C 0.63955 0.37311 0.90803 0.0
C334 C 0.69702 0.3691 0.85781 0.0
C335 C 0.64717 0.38982 0.88332 0.0
C336 C 0.72784 0.38146 0.80411 0.0
C337 C 0.7406 0.33389 0.79432 0.0
N338 N 0.67482 0.38722 0.85899 0.0
N339 N 0.7266 0.34104 0.82266 0.0
H340 H 0.19336 0.94506 0.69592 0.0
H341 H 0.32586 0.08548 0.63989 0.0
H342 H 0.2398 0.01064 0.76002 0.0
H343 H 0.26046 0.02138 0.57704 0.0
H344 H 0.29711 0.05852 0.68442 0.0
H345 H 0.22143 0.97268 0.65223 0.0
C346 C 0.20957 0.96527 0.70084 0.0
C347 C 0.21417 0.97553 0.73171 0.0
C348 C 0.28908 0.05039 0.66086 0.0
C349 C 0.24641 0.00738 0.68166 0.0
C350 C 0.30528 0.06581 0.63544 0.0
C351 C 0.296 0.05565 0.60463 0.0
C352 C 0.26345 0.02463 0.65543 0.0
C353 C 0.26942 0.02994 0.60031 0.0
C354 C 0.22549 0.98107 0.67584 0.0
C355 C 0.23547 1.0019 0.7366 0.0
N356 N 0.25428 0.01535 0.62536 0.0
N357 N 0.25084 0.01692 0.71184 0.0
H358 H 0.69278 0.78085 0.20883 0.0
H359 H 0.6496 0.84548 0.05415 0.0
H360 H 0.79784 0.84154 0.16591 0.0
H361 H 0.54781 0.78394 0.0978 0.0
H362 H 0.70885 0.83932 0.08868 0.0
H363 H 0.64365 0.77728 0.16331 0.0
C364 C 0.70564 0.79339 0.18974 0.0
C365 C 0.74924 0.81181 0.19142 0.0
C366 C 0.67376 0.82679 0.09023 0.0
C367 C 0.69284 0.80788 0.13902 0.0
C368 C 0.6401 0.83013 0.07031 0.0
C369 C 0.59382 0.81535 0.07346 0.0
C370 C 0.66079 0.80859 0.1134 0.0
C371 C 0.5831 0.79589 0.09494 0.0
C372 C 0.67757 0.79126 0.16362 0.0
C373 C 0.76428 0.82723 0.16571 0.0
N374 N 0.61617 0.79333 0.1144 0.0
N375 N 0.73586 0.82516 0.14072 0.0
H376 H 0.72934 0.17235 0.60994 0.0
H377 H 0.89805 0.09568 0.54417 0.0
H378 H 0.861 0.20611 0.56579 0.0
H379 H 0.75131 0.06175 0.55451 0.0
H380 H 0.89232 0.13463 0.57165 0.0
H381 H 0.74475 0.13104 0.60775 0.0
C382 C 0.76199 0.17124 0.60051 0.0
C383 C 0.7937 0.19265 0.58762 0.0
C384 C 0.86159 0.11836 0.56893 0.0
C385 C 0.81155 0.14554 0.58529 0.0
C386 C 0.86499 0.096 0.55374 0.0
C387 C 0.82512 0.0755 0.54733 0.0
C388 C 0.81795 0.12023 0.57761 0.0
C389 C 0.78287 0.07708 0.55937 0.0
C390 C 0.77063 0.14764 0.59918 0.0
C391 C 0.83535 0.19005 0.57563 0.0
N392 N 0.78019 0.09929 0.57345 0.0
N393 N 0.84288 0.1669 0.57451 0.0
H394 H 0.36705 0.34295 0.23518 0.0
H395 H 0.44768 0.33466 0.05702 0.0
H396 H 0.28961 0.2881 0.16542 0.0
H397 H 0.53615 0.37931 0.1304 0.0
H398 H 0.38362 0.32367 0.09429 0.0
H399 H 0.42388 0.36198 0.19518 0.0
C400 C 0.36152 0.33525 0.2113 0.0
C401 C 0.32328 0.31416 0.20346 0.0
C402 C 0.4169 0.33613 0.10215 0.0
C403 C 0.38857 0.33544 0.15773 0.0
C404 C 0.45334 0.34263 0.08081 0.0
C405 C 0.49738 0.35773 0.09073 0.0
C406 C 0.42454 0.34483 0.13362 0.0
C407 C 0.50288 0.36731 0.12193 0.0
C408 C 0.39419 0.34596 0.18854 0.0
C409 C 0.3187 0.30433 0.17241 0.0
N410 N 0.46699 0.36051 0.14235 0.0
N411 N 0.35097 0.31505 0.15067 0.0
H412 H 0.78172 0.68281 0.54483 0.0
H413 H 0.84088 0.58144 0.65246 0.0
H414 H 0.71433 0.65928 0.63281 0.0
H415 H 0.93883 0.62724 0.58837 0.0
H416 H 0.78323 0.60122 0.63567 0.0
H417 H 0.82992 0.65489 0.55208 0.0
C418 C 0.77694 0.67172 0.5656 0.0
C419 C 0.74433 0.6736 0.58844 0.0
C420 C 0.81703 0.60651 0.62478 0.0
C421 C 0.79856 0.64129 0.59648 0.0
C422 C 0.84961 0.59498 0.63402 0.0
C423 C 0.89441 0.60271 0.62164 0.0
C424 C 0.82939 0.62574 0.60289 0.0
C425 C 0.90447 0.62074 0.59831 0.0
C426 C 0.80437 0.65578 0.56966 0.0
C427 C 0.73944 0.65867 0.6148 0.0
N428 N 0.87232 0.63182 0.58983 0.0
N429 N 0.76622 0.64314 0.61809 0.0
H430 H 0.99237 0.33582 0.36903 0.0
H431 H 0.96055 0.46711 0.32091 0.0
H432 H 0.88455 0.3409 0.30748 0.0
H433 H 0.06287 0.46118 0.38634 0.0
H434 H 0.92205 0.4211 0.32381 0.0
H435 H 0.00892 0.38117 0.38346 0.0
C436 C 0.97191 0.34641 0.35868 0.0
C437 C 0.93827 0.33472 0.33599 0.0
C438 C 0.95211 0.42994 0.3383 0.0
C439 C 0.95715 0.38681 0.35233 0.0
C440 C 0.97364 0.45625 0.33694 0.0
C441 C 0.01456 0.46784 0.35363 0.0
C442 C 0.97222 0.41518 0.35609 0.0
C443 C 0.03104 0.45289 0.3734 0.0
C444 C 0.98141 0.37236 0.36691 0.0
C445 C 0.91242 0.34935 0.32376 0.0
N446 N 0.0103 0.42727 0.37368 0.0
N447 N 0.92284 0.37469 0.33171 0.0
H448 H 0.14149 0.4102 0.74629 0.0
H449 H 0.05292 0.53067 0.73315 0.0
H450 H 0.11819 0.45623 0.82555 0.0
H451 H 0.06808 0.4817 0.65482 0.0
H452 H 0.09801 0.51131 0.76548 0.0
H453 H 0.1347 0.44285 0.7115 0.0
C454 C 0.13557 0.42734 0.75643 0.0
C455 C 0.12938 0.43023 0.78884 0.0
C456 C 0.09262 0.50527 0.74099 0.0
C457 C 0.12128 0.46766 0.74909 0.0
C458 C 0.06736 0.51656 0.72245 0.0
C459 C 0.05627 0.50744 0.69149 0.0
C460 C 0.10649 0.48469 0.7284 0.0
C461 C 0.07545 0.48898 0.67877 0.0
C462 C 0.13178 0.44602 0.73654 0.0
C463 C 0.12247 0.45302 0.80067 0.0
N464 N 0.0988 0.47782 0.69745 0.0
N465 N 0.11783 0.47066 0.78077 0.0
H466 H 0.2763 0.76728 0.3782 0.0
H467 H 0.1745 0.6217 0.31692 0.0
H468 H 0.28183 0.74135 0.28176 0.0
H469 H 0.14365 0.65065 0.40735 0.0
H470 H 0.23025 0.66341 0.30772 0.0
H471 H 0.24333 0.72297 0.3926 0.0
C472 C 0.27111 0.75227 0.36008 0.0
C473 C 0.28123 0.75809 0.32862 0.0
C474 C 0.21191 0.6605 0.32981 0.0
C475 C 0.24349 0.70727 0.34502 0.0
C476 C 0.18047 0.63662 0.33522 0.0
C477 C 0.15417 0.63283 0.36283 0.0
C478 C 0.21712 0.68066 0.35223 0.0
C479 C 0.16289 0.65291 0.3856 0.0
C480 C 0.25223 0.72696 0.36834 0.0
C481 C 0.27405 0.73779 0.30623 0.0
N482 N 0.19323 0.67605 0.37965 0.0
N483 N 0.25523 0.71329 0.31482 0.0
H484 H 0.76839 0.81943 0.63134 0.0
H485 H 0.72257 0.9277 0.52912 0.0
H486 H 0.65887 0.80644 0.5636 0.0
H487 H 0.85458 0.93387 0.56983 0.0
H488 H 0.68876 0.88777 0.55591 0.0
H489 H 0.79084 0.86527 0.62172 0.0
C490 C 0.7485 0.8263 0.61495 0.0
C491 C 0.71174 0.80917 0.59822 0.0
C492 C 0.72483 0.89826 0.55975 0.0
C493 C 0.73709 0.86138 0.58717 0.0
C494 C 0.74388 0.92121 0.54488 0.0
C495 C 0.79123 0.93406 0.54756 0.0
C496 C 0.75345 0.88816 0.57731 0.0
C497 C 0.81779 0.92455 0.56752 0.0
C498 C 0.76145 0.85239 0.60937 0.0
C499 C 0.68769 0.819 0.57679 0.0
N500 N 0.7987 0.90196 0.58133 0.0
N501 N 0.70082 0.84441 0.57183 0.0
H502 H 0.87505 0.37206 0.15101 0.0
H503 H 0.61169 0.31362 0.09674 0.0
H504 H 0.77601 0.30732 0.19147 0.0
H505 H 0.70475 0.38096 0.05775 0.0
H506 H 0.67563 0.30783 0.12624 0.0
H507 H 0.81698 0.37303 0.11213 0.0
C508 C 0.84126 0.35798 0.15162 0.0
C509 C 0.83022 0.33975 0.17474 0.0
C510 C 0.68239 0.32377 0.11103 0.0
C511 C 0.76395 0.34066 0.13034 0.0
C512 C 0.6459 0.327 0.09415 0.0
C513 C 0.65306 0.34793 0.07515 0.0
C514 C 0.72638 0.34176 0.10918 0.0
C515 C 0.698 0.3646 0.07225 0.0
C516 C 0.80819 0.35853 0.12941 0.0
C517 C 0.78599 0.3219 0.17433 0.0
N518 N 0.733 0.36137 0.08949 0.0
N519 N 0.75453 0.32289 0.15263 0.0
H520 H 0.34098 0.26337 0.74961 0.0
H521 H 0.24693 0.19933 0.58181 0.0
H522 H 0.22736 0.27628 0.70054 0.0
H523 H 0.36736 0.18919 0.62498 0.0
H524 H 0.23833 0.22632 0.62664 0.0
H525 H 0.35055 0.23513 0.70567 0.0
C526 C 0.31808 0.2603 0.72964 0.0
C527 C 0.28331 0.27225 0.72879 0.0
C528 C 0.26674 0.21827 0.62643 0.0
C529 C 0.29398 0.23993 0.67858 0.0
C530 C 0.27181 0.20292 0.6007 0.0
C531 C 0.30832 0.19225 0.59941 0.0
C532 C 0.29829 0.22305 0.65133 0.0
C533 C 0.3387 0.19702 0.62502 0.0
C534 C 0.32357 0.24418 0.70459 0.0
C535 C 0.25466 0.26755 0.7023 0.0
N536 N 0.33314 0.21219 0.64993 0.0
N537 N 0.26064 0.25179 0.67836 0.0
H538 H 0.37599 0.91681 0.21293 0.0
H539 H 0.43286 0.8069 0.10759 0.0
H540 H 0.3093 0.83655 0.22456 0.0
H541 H 0.47571 0.88562 0.08252 0.0
H542 H 0.38686 0.81746 0.15043 0.0
H543 H 0.41298 0.90614 0.16524 0.0
C544 C 0.36937 0.89692 0.20561 0.0
C545 C 0.34065 0.87749 0.22341 0.0
C546 C 0.4058 0.83242 0.13539 0.0
C547 C 0.38254 0.86517 0.16873 0.0
C548 C 0.43195 0.82638 0.11094 0.0
C549 C 0.45802 0.84546 0.09166 0.0
C550 C 0.40626 0.85784 0.14093 0.0
C551 C 0.45581 0.87039 0.09685 0.0
C552 C 0.39037 0.89086 0.17832 0.0
C553 C 0.33281 0.8521 0.21256 0.0
N554 N 0.43079 0.87596 0.1213 0.0
N555 N 0.35384 0.84668 0.18605 0.0
H556 H 0.82302 0.17654 0.34792 0.0
H557 H 0.90298 0.06683 0.42478 0.0
H558 H 0.96502 0.17726 0.35493 0.0
H559 H 0.7671 0.07509 0.43613 0.0
H560 H 0.92187 0.10126 0.38768 0.0
H561 H 0.79855 0.1344 0.37038 0.0
C562 C 0.84906 0.16782 0.35409 0.0
C563 C 0.8962 0.18061 0.3499 0.0
C564 C 0.88752 0.09512 0.39768 0.0
C565 C 0.86835 0.13222 0.37524 0.0
C566 C 0.87655 0.07522 0.41842 0.0
C567 C 0.83345 0.06818 0.43334 0.0
C568 C 0.85508 0.10798 0.39195 0.0
C569 C 0.80065 0.07998 0.42492 0.0
C570 C 0.83504 0.14372 0.36681 0.0
C571 C 0.92835 0.16826 0.35809 0.0
N572 N 0.81233 0.09955 0.4051 0.0
N573 N 0.91385 0.14482 0.37047 0.0
H574 H 0.22704 0.34211 0.90914 0.0
H575 H 0.4966 0.38771 0.88714 0.0
H576 H 0.28898 0.36049 0.8184 0.0
H577 H 0.4324 0.33085 0.95392 0.0
H578 H 0.42087 0.38237 0.86453 0.0
H579 H 0.30235 0.34228 0.92941 0.0
C580 C 0.25647 0.34593 0.89346 0.0
C581 C 0.25195 0.35103 0.86203 0.0
C582 C 0.42356 0.37101 0.88404 0.0
C583 C 0.33778 0.35185 0.8851 0.0
C584 C 0.46681 0.37392 0.89694 0.0
C585 C 0.47126 0.35969 0.92257 0.0
C586 C 0.38419 0.35418 0.89723 0.0
C587 C 0.43087 0.34264 0.93465 0.0
C588 C 0.29921 0.34595 0.90498 0.0
C589 C 0.29098 0.35601 0.84264 0.0
N590 N 0.38897 0.34054 0.92205 0.0
N591 N 0.33252 0.35662 0.8546 0.0
H592 H 0.36004 0.95255 0.39582 0.0
H593 H 0.32481 0.082 0.46447 0.0
H594 H 0.30475 1.0016 0.34292 0.0
H595 H 0.38929 0.03658 0.51665 0.0
H596 H 0.32805 0.056 0.41755 0.0
H597 H 0.3808 0.98565 0.43787 0.0
C598 C 0.35282 0.97041 0.39284 0.0
C599 C 0.33 0.97416 0.36597 0.0
C600 C 0.34207 0.05187 0.43914 0.0
C601 C 0.35341 0.01205 0.41412 0.0
C602 C 0.34066 0.06693 0.46603 0.0
C603 C 0.35638 0.0614 0.49484 0.0
C604 C 0.35879 0.03084 0.44096 0.0
C605 C 0.37578 0.04124 0.49519 0.0
C606 C 0.36468 0.9893 0.41689 0.0
C607 C 0.32182 0.99774 0.36333 0.0
N608 N 0.37584 0.02648 0.46878 0.0
N609 N 0.33301 0.01565 0.38725 0.0
H610 H 0.69515 0.84857 0.75458 0.0
H611 H 0.60359 0.8126 0.92739 0.0
H612 H 0.70765 0.78267 0.80042 0.0
H613 H 0.58724 0.87675 0.87974 0.0
H614 H 0.65441 0.80584 0.88514 0.0
H615 H 0.66776 0.86328 0.80366 0.0
C616 C 0.69262 0.83731 0.77505 0.0
C617 C 0.70305 0.81413 0.77322 0.0
C618 C 0.64029 0.82164 0.88415 0.0
C619 C 0.67138 0.83083 0.82956 0.0
C620 C 0.61158 0.82563 0.9084 0.0
C621 C 0.59065 0.84503 0.90681 0.0
C622 C 0.64801 0.83716 0.85814 0.0
C623 C 0.60196 0.86125 0.88156 0.0
C624 C 0.67696 0.84574 0.80311 0.0
C625 C 0.69954 0.80051 0.80063 0.0
N626 N 0.62937 0.85675 0.85805 0.0
N627 N 0.68346 0.8089 0.82756 0.0
loop_
_geom_bond_atom_site_label_1
_geom_bond_atom_site_label_2
_geom_bond_distance
_geom_bond_site_symmetry_2
_ccdc_geom_bond_type
O0 Cd1 2.300 . S
O0 C7 1.275 . S
Cd1 O0 2.300 . S
Cd1 O9 2.381 . S
Cd1 O10 2.378 . S
O2 Cd3 2.385 . S
O2 C7 1.255 . S
Cd3 O2 2.385 . S
Cd3 O4 2.317 . S
O4 Cd3 2.317 . S
O4 C5 1.232 . S
C5 O4 1.232 . S
C5 O6 1.218 . S
O6 C5 1.218 . S
C7 O0 1.275 . S
C7 O2 1.255 . S
C8 O9 1.258 . S
C8 O10 1.256 . S
O9 Cd1 2.381 . S
O9 C8 1.258 . S
O10 Cd1 2.378 . S
O10 C8 1.256 . S
O11 Cd12 2.300 . S
O11 C18 1.275 . S
Cd12 O11 2.300 . S
Cd12 O20 2.381 . S
Cd12 O21 2.378 . S
O13 Cd14 2.385 . S
O13 C18 1.255 . S
Cd14 O13 2.385 . S
Cd14 O15 2.317 . S
O15 Cd14 2.317 . S
O15 C16 1.232 . S
C16 O15 1.232 . S
C16 O17 1.218 . S
O17 C16 1.218 . S
C18 O11 1.275 . S
C18 O13 1.255 . S
C19 O20 1.258 . S
C19 O21 1.256 . S
O20 Cd12 2.381 . S
O20 C19 1.258 . S
O21 Cd12 2.378 . S
O21 C19 1.256 . S
O22 Cd23 2.300 . S
O22 C29 1.275 . S
Cd23 O22 2.300 . S
Cd23 O31 2.381 . S
Cd23 O32 2.378 . S
O24 Cd25 2.385 . S
O24 C29 1.255 . S
Cd25 O24 2.385 . S
Cd25 O26 2.317 . S
O26 Cd25 2.317 . S
O26 C27 1.232 . S
C27 O26 1.232 . S
C27 O28 1.218 . S
O28 C27 1.218 . S
C29 O22 1.275 . S
C29 O24 1.255 . S
C30 O31 1.258 . S
C30 O32 1.256 . S
O31 Cd23 2.381 . S
O31 C30 1.258 . S
O32 Cd23 2.378 . S
O32 C30 1.256 . S
O33 Cd34 2.300 . S
O33 C40 1.275 . S
Cd34 O33 2.300 . S
Cd34 O42 2.381 . S
Cd34 O43 2.378 . S
O35 Cd36 2.385 . S
O35 C40 1.255 . S
Cd36 O35 2.385 . S
Cd36 O37 2.317 . S
O37 Cd36 2.317 . S
O37 C38 1.232 . S
C38 O37 1.232 . S
C38 O39 1.218 . S
O39 C38 1.218 . S
C40 O33 1.275 . S
C40 O35 1.255 . S
C41 O42 1.258 . S
C41 O43 1.256 . S
O42 Cd34 2.381 . S
O42 C41 1.258 . S
O43 Cd34 2.378 . S
O43 C41 1.256 . S
O44 Cd45 2.300 . S
O44 C51 1.275 . S
Cd45 O44 2.300 . S
Cd45 O53 2.381 . S
Cd45 O54 2.378 . S
O46 Cd47 2.385 . S
O46 C51 1.255 . S
Cd47 O46 2.385 . S
Cd47 O48 2.317 . S
O48 Cd47 2.317 . S
O48 C49 1.232 . S
C49 O48 1.232 . S
C49 O50 1.218 . S
O50 C49 1.218 . S
C51 O44 1.275 . S
C51 O46 1.255 . S
C52 O53 1.258 . S
C52 O54 1.256 . S
O53 Cd45 2.381 . S
O53 C52 1.258 . S
O54 Cd45 2.378 . S
O54 C52 1.256 . S
O55 Cd56 2.300 . S
O55 C62 1.275 . S
Cd56 O55 2.300 . S
Cd56 O64 2.381 . S
Cd56 O65 2.378 . S
O57 Cd58 2.385 . S
O57 C62 1.255 . S
Cd58 O57 2.385 . S
Cd58 O59 2.317 . S
O59 Cd58 2.317 . S
O59 C60 1.232 . S
C60 O59 1.232 . S
C60 O61 1.218 . S
O61 C60 1.218 . S
C62 O55 1.275 . S
C62 O57 1.255 . S
C63 O64 1.258 . S
C63 O65 1.256 . S
O64 Cd56 2.381 . S
O64 C63 1.258 . S
O65 Cd56 2.378 . S
O65 C63 1.256 . S
O66 Cd67 2.300 . S
O66 C73 1.275 . S
Cd67 O66 2.300 . S
Cd67 O75 2.381 . S
Cd67 O76 2.378 . S
O68 Cd69 2.385 . S
O68 C73 1.255 . S
Cd69 O68 2.385 . S
Cd69 O70 2.317 . S
O70 Cd69 2.317 . S
O70 C71 1.232 . S
C71 O70 1.232 . S
C71 O72 1.218 . S
O72 C71 1.218 . S
C73 O66 1.275 . S
C73 O68 1.255 . S
C74 O75 1.258 . S
C74 O76 1.256 . S
O75 Cd67 2.381 . S
O75 C74 1.258 . S
O76 Cd67 2.378 . S
O76 C74 1.256 . S
O77 Cd78 2.300 . S
O77 C84 1.275 . S
Cd78 O77 2.300 . S
Cd78 O86 2.381 . S
Cd78 O87 2.378 . S
O79 Cd80 2.385 . S
O79 C84 1.255 . S
Cd80 O79 2.385 . S
Cd80 O81 2.317 . S
O81 Cd80 2.317 . S
O81 C82 1.232 . S
C82 O81 1.232 . S
C82 O83 1.218 . S
O83 C82 1.218 . S
C84 O77 1.275 . S
C84 O79 1.255 . S
C85 O86 1.258 . S
C85 O87 1.256 . S
O86 Cd78 2.381 . S
O86 C85 1.258 . S
O87 Cd78 2.378 . S
O87 C85 1.256 . S
H88 C94 0.930 . S
H89 C97 0.931 1_655 S
H90 C99 0.931 . S
H91 C101 0.930 . S
H92 C103 0.930 . S
H93 C105 0.931 1_655 S
C94 H88 0.930 . S
C94 C95 1.380 . S
C94 C96 1.394 . S
C95 C94 1.380 . S
C95 C99 1.382 . S
C96 C94 1.394 . S
C96 C97 1.400 . S
C97 H89 0.931 1_455 S
C97 C96 1.400 . S
C97 C98 1.375 . S
C98 C97 1.375 . S
C98 C99 1.415 . S
C98 C100 1.501 . S
C99 H90 0.931 . S
C99 C95 1.382 . S
C99 C98 1.415 . S
C100 C98 1.501 . S
C100 C101 1.384 . S
C100 C105 1.408 . S
C101 H91 0.930 . S
C101 C100 1.384 . S
C101 C102 1.389 . S
C102 C101 1.389 . S
C102 C103 1.405 . S
C103 H92 0.930 . S
C103 C102 1.405 . S
C103 C104 1.364 . S
C104 C103 1.364 . S
C104 C105 1.400 . S
C105 H93 0.931 1_455 S
C105 C100 1.408 . S
C105 C104 1.400 . S
H106 C112 0.930 . S
H107 C115 0.931 . S
H108 C117 0.931 . S
H109 C119 0.930 . S
H110 C121 0.930 . S
H111 C123 0.931 . S
C112 H106 0.930 . S
C112 C113 1.380 1_455 S
C112 C114 1.394 . S
C113 C112 1.380 1_655 S
C113 C117 1.382 . S
C114 C112 1.394 . S
C114 C115 1.400 . S
C115 H107 0.931 . S
C115 C114 1.400 . S
C115 C116 1.375 . S
C116 C115 1.375 . S
C116 C117 1.415 1_455 S
C116 C118 1.506 1_455 S
C117 H108 0.931 . S
C117 C113 1.382 . S
C117 C116 1.415 1_655 S
C118 C116 1.506 1_655 S
C118 C119 1.396 . S
C118 C123 1.391 1_655 S
C119 H109 0.930 . S
C119 C118 1.396 . S
C119 C120 1.389 . S
C120 C119 1.389 . S
C120 C121 1.405 . S
C121 H110 0.930 . S
C121 C120 1.405 . S
C121 C122 1.364 1_655 S
C122 C121 1.364 1_455 S
C122 C123 1.400 . S
C123 H111 0.931 . S
C123 C118 1.391 1_455 S
C123 C122 1.400 . S
H124 C130 0.930 . S
H125 C133 0.931 . S
H126 C135 0.931 . S
H127 C137 0.930 . S
H128 C139 0.930 . S
H129 C141 0.931 . S
C130 H124 0.930 . S
C130 C131 1.380 . S
C130 C132 1.394 . S
C131 C130 1.380 . S
C131 C135 1.382 . S
C132 C130 1.394 . S
C132 C133 1.400 . S
C133 H125 0.931 . S
C133 C132 1.400 . S
C133 C134 1.375 . S
C134 C133 1.375 . S
C134 C135 1.415 . S
C134 C136 1.501 . S
C135 H126 0.931 . S
C135 C131 1.382 . S
C135 C134 1.415 . S
C136 C134 1.501 . S
C136 C137 1.384 . S
C136 C141 1.408 . S
C137 H127 0.930 . S
C137 C136 1.384 . S
C137 C138 1.389 . S
C138 C137 1.389 . S
C138 C139 1.405 . S
C139 H128 0.930 . S
C139 C138 1.405 . S
C139 C140 1.364 . S
C140 C139 1.364 . S
C140 C141 1.400 . S
C141 H129 0.931 . S
C141 C136 1.408 . S
C141 C140 1.400 . S
H142 C148 0.930 . S
H143 C151 0.931 . S
H144 C153 0.931 . S
H145 C155 0.930 . S
H146 C157 0.930 . S
H147 C159 0.931 . S
C148 H142 0.930 . S
C148 C149 1.380 . S
C148 C150 1.394 . S
C149 C148 1.380 . S
C149 C153 1.382 . S
C150 C148 1.394 . S
C150 C151 1.400 . S
C151 H143 0.931 . S
C151 C150 1.400 . S
C151 C152 1.375 . S
C152 C151 1.375 . S
C152 C153 1.415 . S
C152 C154 1.501 1_554 S
C153 H144 0.931 . S
C153 C149 1.382 . S
C153 C152 1.415 . S
C154 C152 1.501 1_556 S
C154 C155 1.384 . S
C154 C159 1.408 . S
C155 H145 0.930 . S
C155 C154 1.384 . S
C155 C156 1.389 . S
C156 C155 1.389 . S
C156 C157 1.405 . S
C157 H146 0.930 . S
C157 C156 1.405 . S
C157 C158 1.364 . S
C158 C157 1.364 . S
C158 C159 1.400 . S
C159 H147 0.931 . S
C159 C154 1.408 . S
C159 C158 1.400 . S
H160 C166 0.930 . S
H161 C169 0.931 . S
H162 C171 0.931 . S
H163 C173 0.930 1_545 S
H164 C175 0.930 . S
H165 C177 0.931 1_545 S
C166 H160 0.930 . S
C166 C167 1.380 . S
C166 C168 1.394 . S
C167 C166 1.380 . S
C167 C171 1.382 . S
C168 C166 1.394 . S
C168 C169 1.400 . S
C169 H161 0.931 . S
C169 C168 1.400 . S
C169 C170 1.375 . S
C170 C169 1.375 . S
C170 C171 1.415 . S
C170 C172 1.501 . S
C171 H162 0.931 . S
C171 C167 1.382 . S
C171 C170 1.415 . S
C172 C170 1.501 . S
C172 C173 1.384 1_545 S
C172 C177 1.408 1_545 S
C173 H163 0.930 1_565 S
C173 C172 1.384 1_565 S
C173 C174 1.389 . S
C174 C173 1.389 . S
C174 C175 1.405 . S
C175 H164 0.930 . S
C175 C174 1.405 . S
C175 C176 1.364 . S
C176 C175 1.364 . S
C176 C177 1.400 . S
C177 H165 0.931 1_565 S
C177 C172 1.408 1_565 S
C177 C176 1.400 . S
H178 C184 0.930 . S
H179 C187 0.931 . S
H180 C189 0.931 . S
H181 C191 0.930 . S
H182 C193 0.930 . S
H183 C195 0.931 . S
C184 H178 0.930 . S
C184 C185 1.380 . S
C184 C186 1.394 . S
C185 C184 1.380 . S
C185 C189 1.382 . S
C186 C184 1.394 . S
C186 C187 1.400 . S
C187 H179 0.931 . S
C187 C186 1.400 . S
C187 C188 1.375 . S
C188 C187 1.375 . S
C188 C189 1.415 . S
C188 C190 1.501 1_554 S
C189 H180 0.931 . S
C189 C185 1.382 . S
C189 C188 1.415 . S
C190 C188 1.501 1_556 S
C190 C191 1.384 . S
C190 C195 1.408 . S
C191 H181 0.930 . S
C191 C190 1.384 . S
C191 C192 1.389 . S
C192 C191 1.389 . S
C192 C193 1.405 . S
C193 H182 0.930 . S
C193 C192 1.405 . S
C193 C194 1.364 . S
C194 C193 1.364 . S
C194 C195 1.400 . S
C195 H183 0.931 . S
C195 C190 1.408 . S
C195 C194 1.400 . S
H196 C202 0.930 . S
H197 C206 0.930 . S
H198 C211 0.929 . S
H199 C209 0.929 . S
H200 C204 0.929 . S
H201 C210 0.929 . S
C202 H196 0.930 . S
C202 C203 1.367 . S
C202 C210 1.378 . S
C203 C202 1.367 . S
C203 C211 1.433 . S
C204 H200 0.929 . S
C204 C206 1.378 . S
C204 C208 1.350 . S
C205 C208 1.463 . S
C205 C210 1.350 . S
C205 N213 1.427 . S
C206 H197 0.930 . S
C206 C204 1.378 . S
C206 C207 1.367 . S
C207 C206 1.367 . S
C207 C209 1.433 . S
C208 C204 1.350 . S
C208 C205 1.463 . S
C208 N212 1.427 . S
C209 H199 0.929 . S
C209 C207 1.433 . S
C209 N212 1.384 . S
C210 H201 0.929 . S
C210 C202 1.378 . S
C210 C205 1.350 . S
C211 H198 0.929 . S
C211 C203 1.433 . S
C211 N213 1.384 . S
N212 C208 1.427 . S
N212 C209 1.384 . S
N213 C205 1.427 . S
N213 C211 1.384 . S
H214 C220 0.930 . S
H215 C224 0.930 . S
H216 C229 0.929 . S
H217 C227 0.929 . S
H218 C222 0.929 . S
H219 C228 0.929 . S
C220 H214 0.930 . S
C220 C221 1.367 . S
C220 C228 1.378 . S
C221 C220 1.367 . S
C221 C229 1.433 . S
C222 H218 0.929 . S
C222 C224 1.378 . S
C222 C226 1.350 . S
C223 C226 1.463 . S
C223 C228 1.350 . S
C223 N231 1.427 . S
C224 H215 0.930 . S
C224 C222 1.378 . S
C224 C225 1.367 . S
C225 C224 1.367 . S
C225 C227 1.433 . S
C226 C222 1.350 . S
C226 C223 1.463 . S
C226 N230 1.427 . S
C227 H217 0.929 . S
C227 C225 1.433 . S
C227 N230 1.384 . S
C228 H219 0.929 . S
C228 C220 1.378 . S
C228 C223 1.350 . S
C229 H216 0.929 . S
C229 C221 1.433 . S
C229 N231 1.384 . S
N230 C226 1.427 . S
N230 C227 1.384 . S
N231 C223 1.427 . S
N231 C229 1.384 . S
H232 C238 0.930 . S
H233 C242 0.926 1_455 S
H234 C247 0.929 . S
H235 C245 0.929 . S
H236 C240 0.929 . S
H237 C246 0.929 . S
C238 H232 0.930 . S
C238 C239 1.367 . S
C238 C246 1.378 . S
C239 C238 1.367 . S
C239 C247 1.433 . S
C240 H236 0.929 . S
C240 C242 1.382 . S
C240 C244 1.350 . S
C241 C244 1.463 . S
C241 C246 1.350 . S
C241 N249 1.427 . S
C242 H233 0.926 1_655 S
C242 C240 1.382 . S
C242 C243 1.368 . S
C243 C242 1.368 . S
C243 C245 1.433 . S
C244 C240 1.350 . S
C244 C241 1.463 . S
C244 N248 1.427 . S
C245 H235 0.929 . S
C245 C243 1.433 . S
C245 N248 1.384 . S
C246 H237 0.929 . S
C246 C238 1.378 . S
C246 C241 1.350 . S
C247 H234 0.929 . S
C247 C239 1.433 . S
C247 N249 1.384 . S
N248 C244 1.427 . S
N248 C245 1.384 . S
N249 C241 1.427 . S
N249 C247 1.384 . S
H250 C256 0.930 . S
H251 C260 0.930 . S
H252 C265 0.929 . S
H253 C263 0.929 . S
H254 C258 0.929 . S
H255 C264 0.929 . S
C256 H250 0.930 . S
C256 C257 1.367 . S
C256 C264 1.378 . S
C257 C256 1.367 . S
C257 C265 1.433 . S
C258 H254 0.929 . S
C258 C260 1.378 . S
C258 C262 1.350 . S
C259 C262 1.463 . S
C259 C264 1.350 . S
C259 N267 1.427 . S
C260 H251 0.930 . S
C260 C258 1.378 . S
C260 C261 1.367 . S
C261 C260 1.367 . S
C261 C263 1.433 . S
C262 C258 1.350 . S
C262 C259 1.463 . S
C262 N266 1.427 . S
C263 H253 0.929 . S
C263 C261 1.433 . S
C263 N266 1.384 . S
C264 H255 0.929 . S
C264 C256 1.378 . S
C264 C259 1.350 . S
C265 H252 0.929 . S
C265 C257 1.433 . S
C265 N267 1.384 . S
N266 C262 1.427 . S
N266 C263 1.384 . S
N267 C259 1.427 . S
N267 C265 1.384 . S
H268 C274 0.930 . S
H269 C278 0.930 . S
H270 C283 0.929 . S
H271 C281 0.929 . S
H272 C276 0.929 . S
H273 C282 0.929 . S
C274 H268 0.930 . S
C274 C275 1.367 . S
C274 C282 1.378 . S
C275 C274 1.367 . S
C275 C283 1.433 . S
C276 H272 0.929 . S
C276 C278 1.378 . S
C276 C280 1.350 . S
C277 C280 1.463 . S
C277 C282 1.350 . S
C277 N285 1.427 . S
C278 H269 0.930 . S
C278 C276 1.378 . S
C278 C279 1.367 . S
C279 C278 1.367 . S
C279 C281 1.433 . S
C280 C276 1.350 . S
C280 C277 1.463 . S
C280 N284 1.427 . S
C281 H271 0.929 . S
C281 C279 1.433 . S
C281 N284 1.384 . S
C282 H273 0.929 . S
C282 C274 1.378 . S
C282 C277 1.350 . S
C283 H270 0.929 . S
C283 C275 1.433 . S
C283 N285 1.384 . S
N284 C280 1.427 . S
N284 C281 1.384 . S
N285 C277 1.427 . S
N285 C283 1.384 . S
H286 C292 0.930 . S
H287 C296 0.930 . S
H288 C301 0.929 . S
H289 C299 0.929 . S
H290 C294 0.929 . S
H291 C300 0.929 . S
C292 H286 0.930 . S
C292 C293 1.367 . S
C292 C300 1.378 . S
C293 C292 1.367 . S
C293 C301 1.433 . S
C294 H290 0.929 . S
C294 C296 1.378 . S
C294 C298 1.350 . S
C295 C298 1.463 . S
C295 C300 1.350 . S
C295 N303 1.427 . S
C296 H287 0.930 . S
C296 C294 1.378 . S
C296 C297 1.367 . S
C297 C296 1.367 . S
C297 C299 1.433 . S
C298 C294 1.350 . S
C298 C295 1.463 . S
C298 N302 1.427 . S
C299 H289 0.929 . S
C299 C297 1.433 . S
C299 N302 1.384 . S
C300 H291 0.929 . S
C300 C292 1.378 . S
C300 C295 1.350 . S
C301 H288 0.929 . S
C301 C293 1.433 . S
C301 N303 1.384 . S
N302 C298 1.427 . S
N302 C299 1.384 . S
N303 C295 1.427 . S
N303 C301 1.384 . S
H304 C310 0.930 . S
H305 C314 0.930 . S
H306 C319 0.929 . S
H307 C317 0.929 . S
H308 C312 0.929 . S
H309 C318 0.929 . S
C310 H304 0.930 . S
C310 C311 1.367 . S
C310 C318 1.378 . S
C311 C310 1.367 . S
C311 C319 1.433 . S
C312 H308 0.929 . S
C312 C314 1.378 . S
C312 C316 1.350 . S
C313 C316 1.463 . S
C313 C318 1.350 . S
C313 N321 1.427 . S
C314 H305 0.930 . S
C314 C312 1.378 . S
C314 C315 1.367 . S
C315 C314 1.367 . S
C315 C317 1.433 . S
C316 C312 1.350 . S
C316 C313 1.463 . S
C316 N320 1.427 . S
C317 H307 0.929 . S
C317 C315 1.433 . S
C317 N320 1.384 . S
C318 H309 0.929 . S
C318 C310 1.378 . S
C318 C313 1.350 . S
C319 H306 0.929 . S
C319 C311 1.433 . S
C319 N321 1.384 . S
N320 C316 1.427 . S
N320 C317 1.384 . S
N321 C313 1.427 . S
N321 C319 1.384 . S
H322 C328 0.930 . S
H323 C332 0.930 . S
H324 C337 0.929 . S
H325 C335 0.929 . S
H326 C330 0.929 . S
H327 C336 0.929 . S
C328 H322 0.930 . S
C328 C329 1.367 . S
C328 C336 1.378 . S
C329 C328 1.367 . S
C329 C337 1.433 . S
C330 H326 0.929 . S
C330 C332 1.378 . S
C330 C334 1.350 . S
C331 C334 1.463 . S
C331 C336 1.350 . S
C331 N339 1.427 . S
C332 H323 0.930 . S
C332 C330 1.378 . S
C332 C333 1.367 . S
C333 C332 1.367 . S
C333 C335 1.433 . S
C334 C330 1.350 . S
C334 C331 1.463 . S
C334 N338 1.427 . S
C335 H325 0.929 . S
C335 C333 1.433 . S
C335 N338 1.384 . S
C336 H327 0.929 . S
C336 C328 1.378 . S
C336 C331 1.350 . S
C337 H324 0.929 . S
C337 C329 1.433 . S
C337 N339 1.384 . S
N338 C334 1.427 . S
N338 C335 1.384 . S
N339 C331 1.427 . S
N339 C337 1.384 . S
H340 C346 0.930 . S
H341 C350 0.930 . S
H342 C355 0.929 . S
H343 C353 0.929 . S
H344 C348 0.929 . S
H345 C354 0.929 . S
C346 H340 0.930 . S
C346 C347 1.367 . S
C346 C354 1.378 . S
C347 C346 1.367 . S
C347 C355 1.433 . S
C348 H344 0.929 . S
C348 C350 1.378 . S
C348 C352 1.346 1_545 S
C349 C352 1.468 . S
C349 C354 1.350 . S
C349 N357 1.427 . S
C350 H341 0.930 . S
C350 C348 1.378 . S
C350 C351 1.367 . S
C351 C350 1.367 . S
C351 C353 1.433 . S
C352 C348 1.346 1_565 S
C352 C349 1.468 . S
C352 N356 1.426 1_565 S
C353 H343 0.929 . S
C353 C351 1.433 . S
C353 N356 1.384 . S
C354 H345 0.929 . S
C354 C346 1.378 . S
C354 C349 1.350 . S
C355 H342 0.929 . S
C355 C347 1.433 . S
C355 N357 1.384 . S
N356 C352 1.426 1_545 S
N356 C353 1.384 . S
N357 C349 1.427 . S
N357 C355 1.384 . S
H358 C364 0.930 . S
H359 C368 0.930 . S
H360 C373 0.929 . S
H361 C371 0.929 . S
H362 C366 0.929 . S
H363 C372 0.929 . S
C364 H358 0.930 . S
C364 C365 1.367 . S
C364 C372 1.378 . S
C365 C364 1.367 . S
C365 C373 1.433 . S
C366 H362 0.929 . S
C366 C368 1.378 . S
C366 C370 1.350 . S
C367 C370 1.463 . S
C367 C372 1.350 . S
C367 N375 1.427 . S
C368 H359 0.930 . S
C368 C366 1.378 . S
C368 C369 1.367 . S
C369 C368 1.367 . S
C369 C371 1.433 . S
C370 C366 1.350 . S
C370 C367 1.463 . S
C370 N374 1.427 . S
C371 H361 0.929 . S
C371 C369 1.433 . S
C371 N374 1.384 . S
C372 H363 0.929 . S
C372 C364 1.378 . S
C372 C367 1.350 . S
C373 H360 0.929 . S
C373 C365 1.433 . S
C373 N375 1.384 . S
N374 C370 1.427 . S
N374 C371 1.384 . S
N375 C367 1.427 . S
N375 C373 1.384 . S
H376 C382 0.930 . S
H377 C386 0.930 . S
H378 C391 0.929 . S
H379 C389 0.929 . S
H380 C384 0.929 . S
H381 C390 0.929 . S
C382 H376 0.930 . S
C382 C383 1.367 . S
C382 C390 1.378 . S
C383 C382 1.367 . S
C383 C391 1.433 . S
C384 H380 0.929 . S
C384 C386 1.378 . S
C384 C388 1.350 . S
C385 C388 1.463 . S
C385 C390 1.350 . S
C385 N393 1.427 . S
C386 H377 0.930 . S
C386 C384 1.378 . S
C386 C387 1.367 . S
C387 C386 1.367 . S
C387 C389 1.433 . S
C388 C384 1.350 . S
C388 C385 1.463 . S
C388 N392 1.427 . S
C389 H379 0.929 . S
C389 C387 1.433 . S
C389 N392 1.384 . S
C390 H381 0.929 . S
C390 C382 1.378 . S
C390 C385 1.350 . S
C391 H378 0.929 . S
C391 C383 1.433 . S
C391 N393 1.384 . S
N392 C388 1.427 . S
N392 C389 1.384 . S
N393 C385 1.427 . S
N393 C391 1.384 . S
H394 C400 0.930 . S
H395 C404 0.930 . S
H396 C409 0.929 . S
H397 C407 0.929 . S
H398 C402 0.929 . S
H399 C408 0.929 . S
C400 H394 0.930 . S
C400 C401 1.367 . S
C400 C408 1.378 . S
C401 C400 1.367 . S
C401 C409 1.433 . S
C402 H398 0.929 . S
C402 C404 1.378 . S
C402 C406 1.350 . S
C403 C406 1.463 . S
C403 C408 1.350 . S
C403 N411 1.427 . S
C404 H395 0.930 . S
C404 C402 1.378 . S
C404 C405 1.367 . S
C405 C404 1.367 . S
C405 C407 1.433 . S
C406 C402 1.350 . S
C406 C403 1.463 . S
C406 N410 1.427 . S
C407 H397 0.929 . S
C407 C405 1.433 . S
C407 N410 1.384 . S
C408 H399 0.929 . S
C408 C400 1.378 . S
C408 C403 1.350 . S
C409 H396 0.929 . S
C409 C401 1.433 . S
C409 N411 1.384 . S
N410 C406 1.427 . S
N410 C407 1.384 . S
N411 C403 1.427 . S
N411 C409 1.384 . S
H412 C418 0.930 . S
H413 C422 0.930 . S
H414 C427 0.929 . S
H415 C425 0.929 . S
H416 C420 0.929 . S
H417 C426 0.929 . S
C418 H412 0.930 . S
C418 C419 1.367 . S
C418 C426 1.378 . S
C419 C418 1.367 . S
C419 C427 1.433 . S
C420 H416 0.929 . S
C420 C422 1.378 . S
C420 C424 1.350 . S
C421 C424 1.463 . S
C421 C426 1.350 . S
C421 N429 1.427 . S
C422 H413 0.930 . S
C422 C420 1.378 . S
C422 C423 1.367 . S
C423 C422 1.367 . S
C423 C425 1.433 . S
C424 C420 1.350 . S
C424 C421 1.463 . S
C424 N428 1.427 . S
C425 H415 0.929 . S
C425 C423 1.433 . S
C425 N428 1.384 . S
C426 H417 0.929 . S
C426 C418 1.378 . S
C426 C421 1.350 . S
C427 H414 0.929 . S
C427 C419 1.433 . S
C427 N429 1.384 . S
N428 C424 1.427 . S
N428 C425 1.384 . S
N429 C421 1.427 . S
N429 C427 1.384 . S
H430 C436 0.930 . S
H431 C440 0.930 . S
H432 C445 0.929 . S
H433 C443 0.929 . S
H434 C438 0.929 . S
H435 C444 0.929 . S
C436 H430 0.930 . S
C436 C437 1.367 . S
C436 C444 1.378 . S
C437 C436 1.367 . S
C437 C445 1.433 . S
C438 H434 0.929 . S
C438 C440 1.378 . S
C438 C442 1.350 . S
C439 C442 1.463 . S
C439 C444 1.350 . S
C439 N447 1.427 . S
C440 H431 0.930 . S
C440 C438 1.378 . S
C440 C441 1.367 . S
C441 C440 1.367 . S
C441 C443 1.433 . S
C442 C438 1.350 . S
C442 C439 1.463 . S
C442 N446 1.427 . S
C443 H433 0.929 . S
C443 C441 1.433 . S
C443 N446 1.384 . S
C444 H435 0.929 . S
C444 C436 1.378 . S
C444 C439 1.350 . S
C445 H432 0.929 . S
C445 C437 1.433 . S
C445 N447 1.384 . S
N446 C442 1.427 . S
N446 C443 1.384 . S
N447 C439 1.427 . S
N447 C445 1.384 . S
H448 C454 0.930 . S
H449 C458 0.930 . S
H450 C463 0.929 . S
H451 C461 0.929 . S
H452 C456 0.929 . S
H453 C462 0.929 . S
C454 H448 0.930 . S
C454 C455 1.367 . S
C454 C462 1.378 . S
C455 C454 1.367 . S
C455 C463 1.433 . S
C456 H452 0.929 . S
C456 C458 1.378 . S
C456 C460 1.350 . S
C457 C460 1.463 . S
C457 C462 1.350 . S
C457 N465 1.427 . S
C458 H449 0.930 . S
C458 C456 1.378 . S
C458 C459 1.367 . S
C459 C458 1.367 . S
C459 C461 1.433 . S
C460 C456 1.350 . S
C460 C457 1.463 . S
C460 N464 1.427 . S
C461 H451 0.929 . S
C461 C459 1.433 . S
C461 N464 1.384 . S
C462 H453 0.929 . S
C462 C454 1.378 . S
C462 C457 1.350 . S
C463 H450 0.929 . S
C463 C455 1.433 . S
C463 N465 1.384 . S
N464 C460 1.427 . S
N464 C461 1.384 . S
N465 C457 1.427 . S
N465 C463 1.384 . S
H466 C472 0.930 . S
H467 C476 0.930 . S
H468 C481 0.929 . S
H469 C479 0.929 . S
H470 C474 0.929 . S
H471 C480 0.929 . S
C472 H466 0.930 . S
C472 C473 1.367 . S
C472 C480 1.378 . S
C473 C472 1.367 . S
C473 C481 1.433 . S
C474 H470 0.929 . S
C474 C476 1.378 . S
C474 C478 1.350 . S
C475 C478 1.463 . S
C475 C480 1.350 . S
C475 N483 1.427 . S
C476 H467 0.930 . S
C476 C474 1.378 . S
C476 C477 1.367 . S
C477 C476 1.367 . S
C477 C479 1.433 . S
C478 C474 1.350 . S
C478 C475 1.463 . S
C478 N482 1.427 . S
C479 H469 0.929 . S
C479 C477 1.433 . S
C479 N482 1.384 . S
C480 H471 0.929 . S
C480 C472 1.378 . S
C480 C475 1.350 . S
C481 H468 0.929 . S
C481 C473 1.433 . S
C481 N483 1.384 . S
N482 C478 1.427 . S
N482 C479 1.384 . S
N483 C475 1.427 . S
N483 C481 1.384 . S
H484 C490 0.930 . S
H485 C494 0.930 . S
H486 C499 0.929 . S
H487 C497 0.929 . S
H488 C492 0.929 . S
H489 C498 0.929 . S
C490 H484 0.930 . S
C490 C491 1.367 . S
C490 C498 1.378 . S
C491 C490 1.367 . S
C491 C499 1.433 . S
C492 H488 0.929 . S
C492 C494 1.378 . S
C492 C496 1.350 . S
C493 C496 1.463 . S
C493 C498 1.350 . S
C493 N501 1.427 . S
C494 H485 0.930 . S
C494 C492 1.378 . S
C494 C495 1.367 . S
C495 C494 1.367 . S
C495 C497 1.433 . S
C496 C492 1.350 . S
C496 C493 1.463 . S
C496 N500 1.427 . S
C497 H487 0.929 . S
C497 C495 1.433 . S
C497 N500 1.384 . S
C498 H489 0.929 . S
C498 C490 1.378 . S
C498 C493 1.350 . S
C499 H486 0.929 . S
C499 C491 1.433 . S
C499 N501 1.384 . S
N500 C496 1.427 . S
N500 C497 1.384 . S
N501 C493 1.427 . S
N501 C499 1.384 . S
H502 C508 0.930 . S
H503 C512 0.930 . S
H504 C517 0.929 . S
H505 C515 0.929 . S
H506 C510 0.929 . S
H507 C516 0.929 . S
C508 H502 0.930 . S
C508 C509 1.367 . S
C508 C516 1.378 . S
C509 C508 1.367 . S
C509 C517 1.433 . S
C510 H506 0.929 . S
C510 C512 1.378 . S
C510 C514 1.350 . S
C511 C514 1.463 . S
C511 C516 1.350 . S
C511 N519 1.427 . S
C512 H503 0.930 . S
C512 C510 1.378 . S
C512 C513 1.367 . S
C513 C512 1.367 . S
C513 C515 1.433 . S
C514 C510 1.350 . S
C514 C511 1.463 . S
C514 N518 1.427 . S
C515 H505 0.929 . S
C515 C513 1.433 . S
C515 N518 1.384 . S
C516 H507 0.929 . S
C516 C508 1.378 . S
C516 C511 1.350 . S
C517 H504 0.929 . S
C517 C509 1.433 . S
C517 N519 1.384 . S
N518 C514 1.427 . S
N518 C515 1.384 . S
N519 C511 1.427 . S
N519 C517 1.384 . S
H520 C526 0.930 . S
H521 C530 0.930 . S
H522 C535 0.929 . S
H523 C533 0.929 . S
H524 C528 0.929 . S
H525 C534 0.929 . S
C526 H520 0.930 . S
C526 C527 1.367 . S
C526 C534 1.378 . S
C527 C526 1.367 . S
C527 C535 1.433 . S
C528 H524 0.929 . S
C528 C530 1.378 . S
C528 C532 1.350 . S
C529 C532 1.463 . S
C529 C534 1.350 . S
C529 N537 1.427 . S
C530 H521 0.930 . S
C530 C528 1.378 . S
C530 C531 1.367 . S
C531 C530 1.367 . S
C531 C533 1.433 . S
C532 C528 1.350 . S
C532 C529 1.463 . S
C532 N536 1.427 . S
C533 H523 0.929 . S
C533 C531 1.433 . S
C533 N536 1.384 . S
C534 H525 0.929 . S
C534 C526 1.378 . S
C534 C529 1.350 . S
C535 H522 0.929 . S
C535 C527 1.433 . S
C535 N537 1.384 . S
N536 C532 1.427 . S
N536 C533 1.384 . S
N537 C529 1.427 . S
N537 C535 1.384 . S
H538 C544 0.930 . S
H539 C548 0.930 . S
H540 C553 0.929 . S
H541 C551 0.929 . S
H542 C546 0.929 . S
H543 C552 0.929 . S
C544 H538 0.930 . S
C544 C545 1.367 . S
C544 C552 1.378 . S
C545 C544 1.367 . S
C545 C553 1.433 . S
C546 H542 0.929 . S
C546 C548 1.378 . S
C546 C550 1.350 . S
C547 C550 1.463 . S
C547 C552 1.350 . S
C547 N555 1.427 . S
C548 H539 0.930 . S
C548 C546 1.378 . S
C548 C549 1.367 . S
C549 C548 1.367 . S
C549 C551 1.433 . S
C550 C546 1.350 . S
C550 C547 1.463 . S
C550 N554 1.427 . S
C551 H541 0.929 . S
C551 C549 1.433 . S
C551 N554 1.384 . S
C552 H543 0.929 . S
C552 C544 1.378 . S
C552 C547 1.350 . S
C553 H540 0.929 . S
C553 C545 1.433 . S
C553 N555 1.384 . S
N554 C550 1.427 . S
N554 C551 1.384 . S
N555 C547 1.427 . S
N555 C553 1.384 . S
H556 C562 0.930 . S
H557 C566 0.930 . S
H558 C571 0.929 . S
H559 C569 0.929 . S
H560 C564 0.929 . S
H561 C570 0.929 . S
C562 H556 0.930 . S
C562 C563 1.367 . S
C562 C570 1.378 . S
C563 C562 1.367 . S
C563 C571 1.433 . S
C564 H560 0.929 . S
C564 C566 1.378 . S
C564 C568 1.350 . S
C565 C568 1.463 . S
C565 C570 1.350 . S
C565 N573 1.427 . S
C566 H557 0.930 . S
C566 C564 1.378 . S
C566 C567 1.367 . S
C567 C566 1.367 . S
C567 C569 1.433 . S
C568 C564 1.350 . S
C568 C565 1.463 . S
C568 N572 1.427 . S
C569 H559 0.929 . S
C569 C567 1.433 . S
C569 N572 1.384 . S
C570 H561 0.929 . S
C570 C562 1.378 . S
C570 C565 1.350 . S
C571 H558 0.929 . S
C571 C563 1.433 . S
C571 N573 1.384 . S
N572 C568 1.427 . S
N572 C569 1.384 . S
N573 C565 1.427 . S
N573 C571 1.384 . S
H574 C580 0.930 . S
H575 C584 0.930 . S
H576 C589 0.929 . S
H577 C587 0.929 . S
H578 C582 0.929 . S
H579 C588 0.929 . S
C580 H574 0.930 . S
C580 C581 1.367 . S
C580 C588 1.378 . S
C581 C580 1.367 . S
C581 C589 1.433 . S
C582 H578 0.929 . S
C582 C584 1.378 . S
C582 C586 1.350 . S
C583 C586 1.463 . S
C583 C588 1.350 . S
C583 N591 1.427 . S
C584 H575 0.930 . S
C584 C582 1.378 . S
C584 C585 1.367 . S
C585 C584 1.367 . S
C585 C587 1.433 . S
C586 C582 1.350 . S
C586 C583 1.463 . S
C586 N590 1.427 . S
C587 H577 0.929 . S
C587 C585 1.433 . S
C587 N590 1.384 . S
C588 H579 0.929 . S
C588 C580 1.378 . S
C588 C583 1.350 . S
C589 H576 0.929 . S
C589 C581 1.433 . S
C589 N591 1.384 . S
N590 C586 1.427 . S
N590 C587 1.384 . S
N591 C583 1.427 . S
N591 C589 1.384 . S
H592 C598 0.930 . S
H593 C602 0.930 . S
H594 C607 0.929 . S
H595 C605 0.929 . S
H596 C600 0.929 . S
H597 C606 0.929 . S
C598 H592 0.930 . S
C598 C599 1.367 . S
C598 C606 1.378 . S
C599 C598 1.367 . S
C599 C607 1.433 . S
C600 H596 0.929 . S
C600 C602 1.378 . S
C600 C604 1.350 1_545 S
C601 C604 1.463 . S
C601 C606 1.350 . S
C601 N609 1.427 . S
C602 H593 0.930 . S
C602 C600 1.378 . S
C602 C603 1.367 . S
C603 C602 1.367 . S
C603 C605 1.433 . S
C604 C600 1.350 1_565 S
C604 C601 1.463 . S
C604 N608 1.427 1_565 S
C605 H595 0.929 . S
C605 C603 1.433 . S
C605 N608 1.384 . S
C606 H597 0.929 . S
C606 C598 1.378 . S
C606 C601 1.350 . S
C607 H594 0.929 . S
C607 C599 1.433 . S
C607 N609 1.384 . S
N608 C604 1.427 1_545 S
N608 C605 1.384 . S
N609 C601 1.427 . S
N609 C607 1.384 . S
H610 C616 0.930 . S
H611 C620 0.930 . S
H612 C625 0.929 . S
H613 C623 0.929 . S
H614 C618 0.929 . S
H615 C624 0.929 . S
C616 H610 0.930 . S
C616 C617 1.367 . S
C616 C624 1.378 . S
C617 C616 1.367 . S
C617 C625 1.433 . S
C618 H614 0.929 . S
C618 C620 1.378 . S
C618 C622 1.350 . S
C619 C622 1.463 . S
C619 C624 1.350 . S
C619 N627 1.427 . S
C620 H611 0.930 . S
C620 C618 1.378 . S
C620 C621 1.367 . S
C621 C620 1.367 . S
C621 C623 1.433 . S
C622 C618 1.350 . S
C622 C619 1.463 . S
C622 N626 1.427 . S
C623 H613 0.929 . S
C623 C621 1.433 . S
C623 N626 1.384 . S
C624 H615 0.929 . S
C624 C616 1.378 . S
C624 C619 1.350 . S
C625 H612 0.929 . S
C625 C617 1.433 . S
C625 N627 1.384 . S
N626 C622 1.427 . S
N626 C623 1.384 . S
N627 C619 1.427 . S
N627 C625 1.384 . S
C207 C95 1.480 . S
C203 C5 1.365 . S
C225 C114 1.474 . S
C221 C16 1.305 . S
C243 C104 1.636 1_655 S
C239 C30 1.698 . S
C261 C120 1.652 . S
C257 C40 1.634 . S
C279 C131 1.374 . S
C275 C8 1.442 . S
C297 C156 1.394 . S
C293 C18 1.410 . S
C311 C29 1.710 . S
C315 C174 1.677 . S
C333 C194 1.538 . S
C329 C38 1.314 . S
C351 C140 1.359 . S
C347 C19 1.404 . S
C365 C27 1.412 . S
C369 C150 1.539 . S
C387 C168 1.563 . S
C383 C41 1.615 . S
C405 C185 1.450 . S
C401 C7 1.498 . S
C419 C52 1.679 . S
C423 C113 1.632 . S
C441 C96 1.578 1_655 S
C437 C62 1.592 . S
C455 C74 1.486 . S
C459 C122 1.410 . S
C473 C82 1.269 . S
C477 C102 1.391 . S
C495 C176 1.758 . S
C491 C51 1.751 . S
C513 C186 1.535 . S
C509 C60 1.355 . S
C531 C132 1.391 . S
C527 C71 1.216 . S
C545 C84 1.450 . S
C549 C149 1.422 . S
C567 C167 1.642 . S
C563 C63 1.724 . S
C585 C192 1.408 . S
C581 C73 1.438 . S
C603 C138 1.433 . S
C599 C85 1.479 . S
C617 C49 1.343 . S
C621 C158 1.579 . S
