# Generated by pormake.
# Topology pyr, (3,6)-cn, num edge types: 1
# Building blocks:
#     Node 0, Type 0, BuildingBlock: QEWDON_clean_linker_0, # of connection points: 3
#     Node 1, Type 0, BuildingBlock: QEWDON_clean_linker_0, # of connection points: 3
#     Node 2, Type 0, BuildingBlock: QEWDON_clean_linker_0, # of connection points: 3
#     Node 3, Type 0, BuildingBlock: QEWDON_clean_linker_0, # of connection points: 3
#     Node 4, Type 0, BuildingBlock: QEWDON_clean_linker_0, # of connection points: 3
#     Node 5, Type 0, BuildingBlock: QEWDON_clean_linker_0, # of connection points: 3
#     Node 6, Type 0, BuildingBlock: QEWDON_clean_linker_0, # of connection points: 3
#     Node 7, Type 0, BuildingBlock: QEWDON_clean_linker_0, # of connection points: 3
#     Node 8, Type 1, BuildingBlock: VOLQOD_clean_sbu_1, # of connection points: 6
#     Node 9, Type 1, BuildingBlock: VOLQOD_clean_sbu_1, # of connection points: 6
#     Node 10, Type 1, BuildingBlock: VOLQOD_clean_sbu_1, # of connection points: 6
#     Node 11, Type 1, BuildingBlock: VOLQOD_clean_sbu_1, # of connection points: 6
#     Edge 12, Type (0, 1), BuildingBlock: CIFDUS_clean_linker_0, # of connection points: 2
#     Edge 13, Type (0, 1), BuildingBlock: CIFDUS_clean_linker_0, # of connection points: 2
#     Edge 14, Type (0, 1), BuildingBlock: CIFDUS_clean_linker_0, # of connection points: 2
#     Edge 15, Type (0, 1), BuildingBlock: CIFDUS_clean_linker_0, # of connection points: 2
#     Edge 16, Type (0, 1), BuildingBlock: CIFDUS_clean_linker_0, # of connection points: 2
#     Edge 17, Type (0, 1), BuildingBlock: CIFDUS_clean_linker_0, # of connection points: 2
#     Edge 18, Type (0, 1), BuildingBlock: CIFDUS_clean_linker_0, # of connection points: 2
#     Edge 19, Type (0, 1), BuildingBlock: CIFDUS_clean_linker_0, # of connection points: 2
#     Edge 20, Type (0, 1), BuildingBlock: CIFDUS_clean_linker_0, # of connection points: 2
#     Edge 21, Type (0, 1), BuildingBlock: CIFDUS_clean_linker_0, # of connection points: 2
#     Edge 22, Type (0, 1), BuildingBlock: CIFDUS_clean_linker_0, # of connection points: 2
#     Edge 23, Type (0, 1), BuildingBlock: CIFDUS_clean_linker_0, # of connection points: 2
#     Edge 24, Type (0, 1), BuildingBlock: CIFDUS_clean_linker_0, # of connection points: 2
#     Edge 25, Type (0, 1), BuildingBlock: CIFDUS_clean_linker_0, # of connection points: 2
#     Edge 26, Type (0, 1), BuildingBlock: CIFDUS_clean_linker_0, # of connection points: 2
#     Edge 27, Type (0, 1), BuildingBlock: CIFDUS_clean_linker_0, # of connection points: 2
#     Edge 28, Type (0, 1), BuildingBlock: CIFDUS_clean_linker_0, # of connection points: 2
#     Edge 29, Type (0, 1), BuildingBlock: CIFDUS_clean_linker_0, # of connection points: 2
#     Edge 30, Type (0, 1), BuildingBlock: CIFDUS_clean_linker_0, # of connection points: 2
#     Edge 31, Type (0, 1), BuildingBlock: CIFDUS_clean_linker_0, # of connection points: 2
#     Edge 32, Type (0, 1), BuildingBlock: CIFDUS_clean_linker_0, # of connection points: 2
#     Edge 33, Type (0, 1), BuildingBlock: CIFDUS_clean_linker_0, # of connection points: 2
#     Edge 34, Type (0, 1), BuildingBlock: CIFDUS_clean_linker_0, # of connection points: 2
#     Edge 35, Type (0, 1), BuildingBlock: CIFDUS_clean_linker_0, # of connection points: 2
# Relax obj value: 0.171
# Max RMSD: 0.274
# Mean RMSD: 0.203
data_MOF--net-pry--node1-VOLQOD_clean_sbu_1--node2-QEWDON_clean_linker_0--edge1-CIFDUS_clean_linker_0
_symmetry_space_group_name_H-M    P1
_symmetry_Int_Tables_number       1
_symmetry_cell_setting            triclinic
loop_
_symmetry_equiv_pos_as_xyz
'x, y, z'
_cell_length_a     32.709042
_cell_length_b     32.882293
_cell_length_c     35.069556
_cell_angle_alpha  90.29147
_cell_angle_beta   90.591941
_cell_angle_gamma 98.853983
loop_
_atom_site_label
_atom_site_type_symbol
_atom_site_fract_x
_atom_site_fract_y
_atom_site_fract_z
_atom_type_partial_charge
H0 H 0.22183 0.223 0.15632 0.0
C1 C 0.20399 0.20787 0.17952 0.0
C2 C 0.20915 0.16771 0.19016 0.0
C3 C 0.17877 0.23034 0.20078 0.0
H4 H 0.19095 0.11932 0.23107 0.0
C5 C 0.18771 0.15019 0.22224 0.0
C6 C 0.1635 0.17276 0.24448 0.0
C7 C 0.15846 0.21261 0.23315 0.0
C8 C 0.18153 0.27501 0.19422 0.0
H9 H 0.14136 0.23092 0.25104 0.0
C10 C 0.1527 0.29149 0.17105 0.0
C11 C 0.1583 0.33413 0.16364 0.0
C12 C 0.21508 0.30133 0.21049 0.0
H13 H 0.2375 0.28909 0.22833 0.0
C14 C 0.22029 0.34348 0.20361 0.0
H15 H 0.12688 0.27129 0.15819 0.0
C16 C 0.19228 0.35979 0.18018 0.0
H17 H 0.19704 0.39265 0.17507 0.0
H18 H 0.2463 0.36355 0.21622 0.0
H19 H 0.3688 0.94685 0.80231 0.0
C20 C 0.38033 0.92282 0.7862 0.0
C21 C 0.41658 0.90893 0.79843 0.0
C22 C 0.35754 0.90497 0.75482 0.0
H23 H 0.45793 0.86475 0.78865 0.0
C24 C 0.43072 0.87653 0.77837 0.0
C25 C 0.40899 0.85896 0.74558 0.0
C26 C 0.37273 0.87421 0.73385 0.0
C27 C 0.31588 0.9159 0.74696 0.0
H28 H 0.35528 0.86119 0.70911 0.0
C29 C 0.30291 0.92472 0.70984 0.0
C30 C 0.26363 0.93622 0.70403 0.0
C31 C 0.28867 0.91772 0.77759 0.0
H32 H 0.29745 0.91027 0.80629 0.0
C33 C 0.24973 0.92883 0.77162 0.0
H34 H 0.32334 0.92341 0.68588 0.0
C35 C 0.2373 0.93822 0.73508 0.0
H36 H 0.2069 0.94685 0.73091 0.0
H37 H 0.22913 0.93016 0.7954 0.0
H38 H 0.65724 0.46647 0.95244 0.0
C39 C 0.64852 0.43545 0.9629 0.0
C40 C 0.67891 0.41176 0.97408 0.0
C41 C 0.6064 0.41959 0.96578 0.0
H42 H 0.68889 0.35404 0.99848 0.0
C43 C 0.66604 0.37157 0.98745 0.0
C44 C 0.62398 0.35406 0.98765 0.0
C45 C 0.59434 0.37876 0.97708 0.0
C46 C 0.57462 0.44586 0.95794 0.0
H47 H 0.56169 0.36639 0.97687 0.0
C48 C 0.57124 0.46315 0.92177 0.0
C49 C 0.53929 0.48608 0.91381 0.0
C50 C 0.54665 0.45258 0.98653 0.0
H51 H 0.5489 0.4395 0.01464 0.0
C52 C 0.51566 0.47633 0.97909 0.0
H53 H 0.59221 0.45708 0.89943 0.0
C54 C 0.51177 0.49282 0.94289 0.0
H55 H 0.48708 0.51062 0.9375 0.0
H56 H 0.49427 0.48153 1.00129 0.0
H57 H 0.85373 0.74891 0.33969 0.0
C58 C 0.83755 0.73677 0.36499 0.0
C59 C 0.84752 0.75637 0.40015 0.0
C60 C 0.8066 0.70199 0.36249 0.0
H61 H 0.83273 0.75793 0.45982 0.0
C62 C 0.82571 0.74205 0.4328 0.0
C63 C 0.79416 0.70826 0.43077 0.0
C64 C 0.78524 0.68781 0.39571 0.0
C65 C 0.79617 0.68088 0.32525 0.0
H66 H 0.7611 0.66129 0.39424 0.0
C67 C 0.82748 0.67655 0.29895 0.0
C68 C 0.81786 0.65611 0.26402 0.0
C69 C 0.75491 0.66473 0.31576 0.0
H70 H 0.72989 0.66832 0.33486 0.0
C71 C 0.74532 0.64416 0.28116 0.0
H72 H 0.85953 0.68809 0.30593 0.0
C73 C 0.77658 0.63968 0.25544 0.0
H74 H 0.76845 0.62392 0.22858 0.0
H75 H 0.7135 0.63183 0.27416 0.0
H76 H 0.85904 0.87745 0.92616 0.0
C77 C 0.87456 0.89467 0.90278 0.0
C78 C 0.91509 0.88921 0.89323 0.0
C79 C 0.85256 0.91926 0.88028 0.0
H80 H 0.96474 0.90517 0.85299 0.0
C81 C 0.93378 0.90954 0.86097 0.0
C82 C 0.91254 0.93556 0.83902 0.0
C83 C 0.87212 0.94026 0.84913 0.0
C84 C 0.80761 0.91889 0.88599 0.0
H85 H 0.85501 0.95903 0.83157 0.0
C86 C 0.79129 0.92502 0.92229 0.0
C87 C 0.74829 0.92277 0.92675 0.0
C88 C 0.78045 0.91083 0.85453 0.0
H89 H 0.79208 0.90541 0.82644 0.0
C90 C 0.73792 0.90868 0.85905 0.0
H91 H 0.81177 0.9313 0.94681 0.0
C92 C 0.72187 0.91447 0.89493 0.0
H93 H 0.68869 0.91273 0.89788 0.0
H94 H 0.71731 0.90228 0.83468 0.0
H95 H 0.6879 0.16645 0.4992 0.0
C96 C 0.68042 0.16795 0.46912 0.0
C97 C 0.70536 0.15239 0.44176 0.0
C98 C 0.64449 0.1837 0.45808 0.0
H99 H 0.71217 0.14102 0.38157 0.0
C100 C 0.69363 0.15309 0.40304 0.0
C101 C 0.6568 0.16681 0.39174 0.0
C102 C 0.63279 0.18292 0.41942 0.0
C103 C 0.61596 0.19524 0.48737 0.0
H104 H 0.60395 0.19301 0.41114 0.0
C105 C 0.60789 0.23598 0.49116 0.0
C106 C 0.57933 0.24604 0.51847 0.0
C107 C 0.59557 0.16453 0.511 0.0
H108 H 0.60126 0.13303 0.5084 0.0
C109 C 0.56689 0.17392 0.53744 0.0
H110 H 0.6245 0.25964 0.47334 0.0
C111 C 0.55854 0.21409 0.54099 0.0
H112 H 0.53527 0.21982 0.5612 0.0
H113 H 0.55074 0.14983 0.55508 0.0
H114 H 0.42866 0.66797 0.22215 0.0
C115 C 0.39974 0.66248 0.20618 0.0
C116 C 0.38546 0.69519 0.18753 0.0
C117 C 0.37769 0.62249 0.20309 0.0
H118 H 0.33839 0.71325 0.15085 0.0
C119 C 0.34854 0.688 0.16622 0.0
C120 C 0.32634 0.64811 0.16237 0.0
C121 C 0.34122 0.61535 0.18091 0.0
C122 C 0.39452 0.58802 0.22117 0.0
H123 H 0.32442 0.58436 0.17826 0.0
C124 C 0.40468 0.58944 0.26027 0.0
C125 C 0.42354 0.5581 0.27719 0.0
C126 C 0.40252 0.55467 0.19891 0.0
H127 H 0.39513 0.55317 0.1687 0.0
C128 C 0.42153 0.52373 0.21521 0.0
H129 H 0.39717 0.61474 0.27737 0.0
C130 C 0.43237 0.52554 0.25385 0.0
H131 H 0.44809 0.50152 0.26519 0.0
H132 H 0.42839 0.49846 0.19771 0.0
H133 H 0.14539 0.50785 0.63916 0.0
C134 C 0.13672 0.47672 0.62838 0.0
C135 C 0.16758 0.45276 0.62043 0.0
C136 C 0.0947 0.46015 0.62354 0.0
H137 H 0.18025 0.39396 0.60062 0.0
C138 C 0.15639 0.41256 0.60666 0.0
C139 C 0.11477 0.39578 0.60138 0.0
C140 C 0.08397 0.41961 0.60988 0.0
C141 C 0.06195 0.48357 0.63594 0.0
H142 H 0.05167 0.40621 0.60681 0.0
C143 C 0.06508 0.50295 0.67184 0.0
C144 C 0.03221 0.52112 0.68637 0.0
C145 C 0.02623 0.48412 0.61354 0.0
H146 H 0.02318 0.46954 0.58567 0.0
C147 C 0.99397 0.50323 0.62712 0.0
H148 H 0.09282 0.50271 0.6889 0.0
C149 C 0.99663 0.52121 0.66341 0.0
H150 H 0.9703 0.53415 0.67373 0.0
H151 H 0.96639 0.5033 0.60981 0.0
O152 O 0.0161 0.13219 0.58644 0.0
Zn153 Zn 0.98689 0.07579 0.57319 0.0
O154 O 0.01819 0.05097 0.53423 0.0
Zn155 Zn 0.98606 0.04376 0.48672 0.0
Zn156 Zn 0.07106 0.08564 0.52393 0.0
Zn157 Zn 0.02939 0.99823 0.553 0.0
O158 O 0.97485 0.98381 0.47203 0.0
O159 O 0.00689 0.95292 0.51709 0.0
O160 O 0.9312 0.08547 0.55236 0.0
O161 O 0.93146 0.06473 0.49197 0.0
O162 O 0.01693 0.07393 0.44301 0.0
O163 O 0.07958 0.09562 0.46713 0.0
O164 O 0.11953 0.06154 0.54644 0.0
O165 O 0.97892 0.04135 0.62151 0.0
O166 O 0.09011 0.99801 0.56022 0.0
O167 O 0.00469 0.98533 0.60493 0.0
C168 C 0.04779 0.1546 0.57294 0.0
C169 C 0.98568 0.95151 0.48636 0.0
C170 C 0.05422 0.0913 0.43899 0.0
C171 C 0.91395 0.08035 0.51956 0.0
C172 C 0.12202 0.02542 0.55835 0.0
C173 C 0.98704 0.00553 0.62923 0.0
O174 O 0.07059 0.14084 0.54826 0.0
O175 O 0.4943 0.10996 0.05551 0.0
Zn176 Zn 0.46714 0.05281 0.06989 0.0
O177 O 0.50431 0.02945 0.10602 0.0
Zn178 Zn 0.51472 0.97602 0.08786 0.0
Zn179 Zn 0.5579 0.06543 0.11308 0.0
Zn180 Zn 0.47741 0.0216 0.15492 0.0
O181 O 0.49352 0.93025 0.12349 0.0
O182 O 0.46342 0.96206 0.16879 0.0
O183 O 0.45805 0.01711 0.02101 0.0
O184 O 0.48722 0.96271 0.03705 0.0
O185 O 0.57493 0.97582 0.07839 0.0
O186 O 0.60537 0.03945 0.09142 0.0
O187 O 0.56951 0.08161 0.16913 0.0
O188 O 0.41191 0.06107 0.09475 0.0
O189 O 0.51216 0.05119 0.19663 0.0
O190 O 0.4245 0.04393 0.15429 0.0
C191 C 0.52953 0.13106 0.06298 0.0
C192 C 0.47268 0.92935 0.15399 0.0
C193 C 0.60708 0.00308 0.07941 0.0
C194 C 0.46746 0.98163 0.01327 0.0
C195 C 0.54741 0.07373 0.19876 0.0
C196 C 0.40128 0.05749 0.12969 0.0
O197 O 0.55635 0.11745 0.08393 0.0
O198 O 0.56448 0.58653 0.67992 0.0
Zn199 Zn 0.55771 0.61367 0.62869 0.0
O200 O 0.51583 0.5784 0.59763 0.0
Zn201 Zn 0.53996 0.55521 0.55422 0.0
Zn202 Zn 0.48916 0.53175 0.62684 0.0
Zn203 Zn 0.47598 0.61229 0.57876 0.0
O204 O 0.51157 0.56766 0.50597 0.0
O205 O 0.47756 0.61901 0.52092 0.0
O206 O 0.6125 0.62377 0.60025 0.0
O207 O 0.59876 0.58013 0.55128 0.0
O208 O 0.53897 0.49415 0.55619 0.0
O209 O 0.50412 0.47667 0.60882 0.0
O210 O 0.42723 0.52916 0.62451 0.0
O211 O 0.53839 0.66834 0.64218 0.0
O212 O 0.41911 0.58398 0.59011 0.0
O213 O 0.4809 0.66631 0.60754 0.0
C214 C 0.53975 0.55928 0.69752 0.0
C215 C 0.49003 0.59508 0.49633 0.0
C216 C 0.52397 0.46697 0.5799 0.0
C217 C 0.6236 0.60642 0.57022 0.0
C218 C 0.40406 0.55212 0.60863 0.0
C219 C 0.50666 0.6841 0.63215 0.0
O220 O 0.5083 0.53871 0.68096 0.0
O221 O 0.96498 0.56284 0.08519 0.0
Zn222 Zn 0.98435 0.54069 0.03659 0.0
O223 O 0.01446 0.58668 0.00837 0.0
Zn224 Zn 0.98192 0.59608 0.96434 0.0
Zn225 Zn 0.02283 0.63801 0.03828 0.0
Zn226 Zn 0.06657 0.57108 0.9925 0.0
O227 O 0.00672 0.57672 0.91749 0.0
O228 O 0.06995 0.56645 0.93488 0.0
O229 O 0.93126 0.51673 0.00918 0.0
O230 O 0.92359 0.56746 0.96923 0.0
O231 O 0.98152 0.65565 0.9556 0.0
O232 O 0.00981 0.6879 0.00734 0.0
O233 O 0.08274 0.64848 0.05582 0.0
O234 O 0.01895 0.49582 0.04928 0.0
O235 O 0.11367 0.60935 0.01671 0.0
O236 O 0.07416 0.51626 0.01427 0.0
C237 C 0.96599 0.59838 0.10012 0.0
C238 C 0.04216 0.56798 0.90934 0.0
C239 C 0.99342 0.68866 0.97418 0.0
C240 C 0.90929 0.53416 0.98601 0.0
C241 C 0.11527 0.63583 0.04364 0.0
C242 C 0.05434 0.49057 0.03703 0.0
O243 O 0.98594 0.63052 0.08481 0.0
H244 H 0.0846 0.16167 0.27185 0.0
H245 H 0.20997 0.14845 0.3018 0.0
H246 H 0.18777 0.12317 0.36484 0.0
H247 H 0.13272 0.1046 0.4116 0.0
H248 H 0.00645 0.11349 0.38067 0.0
H249 H 0.02878 0.14047 0.31817 0.0
C250 C 0.10689 0.1532 0.29229 0.0
C251 C 0.14879 0.15681 0.28227 0.0
C252 C 0.09374 0.13787 0.32834 0.0
C253 C 0.17747 0.14558 0.30883 0.0
C254 C 0.16483 0.13125 0.3449 0.0
C255 C 0.11011 0.11253 0.39122 0.0
C256 C 0.06802 0.10719 0.40092 0.0
C257 C 0.12305 0.12724 0.355 0.0
C258 C 0.03905 0.11716 0.37394 0.0
C259 C 0.0518 0.1327 0.33818 0.0
H260 H 0.42703 0.87045 0.86553 0.0
H261 H 0.44701 0.98921 0.81179 0.0
H262 H 0.46288 0.02286 0.8737 0.0
H263 H 0.46646 0.01888 0.94392 0.0
H264 H 0.4479 0.89993 0.99763 0.0
H265 H 0.43552 0.86615 0.93545 0.0
C266 C 0.43612 0.90355 0.86738 0.0
C267 C 0.43635 0.92729 0.83415 0.0
C268 C 0.4443 0.92279 0.90328 0.0
C269 C 0.44716 0.9703 0.83699 0.0
C270 C 0.45572 0.98958 0.87243 0.0
C271 C 0.45934 0.98561 0.94195 0.0
C272 C 0.45741 0.96202 0.9754 0.0
C273 C 0.45333 0.96625 0.90591 0.0
C274 C 0.44919 0.91884 0.97233 0.0
C275 C 0.44233 0.89945 0.93675 0.0
H276 H 0.59672 0.52658 0.86597 0.0
H277 H 0.46713 0.47668 0.8737 0.0
H278 H 0.45594 0.49598 0.80781 0.0
H279 H 0.48313 0.52449 0.74764 0.0
H280 H 0.61222 0.57596 0.73887 0.0
H281 H 0.62354 0.55864 0.80567 0.0
C282 C 0.56609 0.52007 0.85312 0.0
C283 C 0.53278 0.50025 0.87456 0.0
C284 C 0.55984 0.53135 0.81515 0.0
C285 C 0.49312 0.4923 0.85786 0.0
C286 C 0.48675 0.50308 0.82015 0.0
C287 C 0.51381 0.53194 0.76026 0.0
C288 C 0.5469 0.55104 0.73824 0.0
C289 C 0.51993 0.52224 0.79849 0.0
C290 C 0.58627 0.56116 0.75524 0.0
C291 C 0.59275 0.55118 0.79337 0.0
H292 H 0.83311 0.58627 0.22992 0.0
H293 H 0.87644 0.71668 0.23681 0.0
H294 H 0.92834 0.71029 0.18813 0.0
H295 H 0.9584 0.66794 0.14095 0.0
H296 H 0.91501 0.53704 0.13559 0.0
H297 H 0.86649 0.54334 0.18647 0.0
C298 C 0.85402 0.61321 0.22073 0.0
C299 C 0.85083 0.65189 0.23643 0.0
C300 C 0.88375 0.60925 0.19303 0.0
C301 C 0.87846 0.68657 0.22496 0.0
C302 C 0.90799 0.68294 0.19711 0.0
C303 C 0.93865 0.64074 0.15116 0.0
C304 C 0.9402 0.60219 0.13407 0.0
C305 C 0.91054 0.64448 0.18056 0.0
C306 C 0.91448 0.56721 0.14794 0.0
C307 C 0.88653 0.57072 0.17704 0.0
H308 H 0.25916 0.11834 0.22289 0.0
H309 H 0.23137 0.1692 0.1141 0.0
H310 H 0.28722 0.13864 0.08489 0.0
H311 H 0.34646 0.09953 0.0912 0.0
H312 H 0.36915 0.04644 0.20049 0.0
H313 H 0.31186 0.07458 0.22777 0.0
C314 C 0.26415 0.12195 0.19252 0.0
C315 C 0.24061 0.14617 0.17095 0.0
C316 C 0.29568 0.10375 0.17577 0.0
C317 C 0.24914 0.15127 0.13178 0.0
C318 C 0.28102 0.13356 0.11492 0.0
C319 C 0.3385 0.0937 0.12082 0.0
C320 C 0.36272 0.0712 0.14368 0.0
C321 C 0.30492 0.11008 0.13677 0.0
C322 C 0.35167 0.06393 0.18206 0.0
C323 C 0.31876 0.08008 0.19789 0.0
H324 H 0.26602 0.01143 0.67314 0.0
H325 H 0.22478 0.88251 0.65197 0.0
H326 H 0.18102 0.8992 0.599 0.0
H327 H 0.14554 0.95049 0.56729 0.0
H328 H 0.18529 0.07975 0.5896 0.0
H329 H 0.23937 0.06315 0.63282 0.0
C330 C 0.24861 0.98716 0.65584 0.0
C331 C 0.24851 0.94589 0.66597 0.0
C332 C 0.22284 0.99711 0.62612 0.0
C333 C 0.22548 0.91444 0.64412 0.0
C334 C 0.20021 0.92402 0.61418 0.0
C335 C 0.16671 0.97506 0.58089 0.0
C336 C 0.16092 0.01623 0.57584 0.0
C337 C 0.19723 0.96525 0.60616 0.0
C338 C 0.18896 0.0478 0.59314 0.0
C339 C 0.2197 0.03831 0.61811 0.0
H340 H 0.71571 0.49194 0.98431 0.0
H341 H 0.74437 0.37036 0.96021 0.0
H342 H 0.81787 0.39703 0.96316 0.0
H343 H 0.87458 0.45483 0.97373 0.0
H344 H 0.84553 0.57732 0.98876 0.0
H345 H 0.77153 0.55047 0.98689 0.0
C346 C 0.7377 0.47119 0.97875 0.0
C347 C 0.72392 0.42888 0.97278 0.0
C348 C 0.78006 0.48696 0.97871 0.0
C349 C 0.75361 0.4028 0.96627 0.0
C350 C 0.79586 0.41807 0.9675 0.0
C351 C 0.85189 0.4755 0.97629 0.0
C352 C 0.86512 0.51779 0.98159 0.0
C353 C 0.80945 0.46002 0.97408 0.0
C354 C 0.83577 0.54459 0.98449 0.0
C355 C 0.79356 0.52926 0.9836 0.0
H356 H 0.77095 0.63121 0.45807 0.0
H357 H 0.76039 0.75843 0.47942 0.0
H358 H 0.712 0.73829 0.53095 0.0
H359 H 0.66506 0.68386 0.56338 0.0
H360 H 0.67246 0.5567 0.5386 0.0
H361 H 0.73016 0.57727 0.49571 0.0
C362 C 0.75825 0.65446 0.47426 0.0
C363 C 0.76873 0.69609 0.46471 0.0
C364 C 0.72989 0.64263 0.50333 0.0
C365 C 0.75278 0.7261 0.48631 0.0
C366 C 0.72497 0.71462 0.51568 0.0
C367 C 0.68034 0.66081 0.54954 0.0
C368 C 0.66471 0.61896 0.55386 0.0
C369 C 0.71234 0.6729 0.52367 0.0
C370 C 0.68414 0.58917 0.53546 0.0
C371 C 0.71685 0.60089 0.51074 0.0
H372 H 0.17806 0.37719 0.09962 0.0
H373 H 0.07523 0.3342 0.17215 0.0
H374 H 0.03189 0.3765 0.13714 0.0
H375 H 0.02617 0.43167 0.09018 0.0
H376 H 0.13036 0.47336 0.01798 0.0
H377 H 0.1699 0.42552 0.04828 0.0
C378 C 0.14589 0.37657 0.10724 0.0
C379 C 0.1298 0.35293 0.13842 0.0
C380 C 0.12152 0.40111 0.08727 0.0
C381 C 0.08812 0.35208 0.14806 0.0
C382 C 0.06352 0.37651 0.12824 0.0
C383 C 0.05727 0.42984 0.08067 0.0
C384 C 0.07527 0.45672 0.0521 0.0
C385 C 0.08026 0.40208 0.09842 0.0
C386 C 0.11562 0.45354 0.04006 0.0
C387 C 0.13844 0.42614 0.05743 0.0
H388 H 0.55214 0.31863 0.02225 0.0
H389 H 0.66689 0.28928 0.97724 0.0
H390 H 0.64827 0.21851 0.99756 0.0
H391 H 0.59973 0.16458 0.02854 0.0
H392 H 0.48118 0.19111 0.06493 0.0
H393 H 0.5003 0.26315 0.04601 0.0
C394 C 0.57289 0.29686 0.01596 0.0
C395 C 0.61138 0.31012 0.99872 0.0
C396 C 0.56112 0.25546 0.0259 0.0
C397 C 0.63776 0.28087 0.99167 0.0
C398 C 0.62693 0.24003 1.00282 0.0
C399 C 0.57808 0.18621 0.03198 0.0
C400 C 0.53935 0.17306 0.04822 0.0
C401 C 0.58885 0.22706 0.02015 0.0
C402 C 0.51115 0.20085 0.05229 0.0
C403 C 0.52216 0.24195 0.04169 0.0
H404 H 0.91262 0.76841 0.44843 0.0
H405 H 0.85148 0.82731 0.35968 0.0
H406 H 0.89352 0.89359 0.37567 0.0
H407 H 0.93968 0.93568 0.42126 0.0
H408 H 0.99858 0.87615 0.51163 0.0
H409 H 0.96557 0.80911 0.48845 0.0
C410 C 0.90925 0.79571 0.43215 0.0
C411 C 0.87892 0.79347 0.40336 0.0
C412 C 0.93258 0.83356 0.44217 0.0
C413 C 0.87483 0.82859 0.38198 0.0
C414 C 0.89852 0.86644 0.39136 0.0
C415 C 0.94577 0.90804 0.43558 0.0
C416 C 0.9708 0.91103 0.46865 0.0
C417 C 0.92625 0.86951 0.42243 0.0
C418 C 0.97893 0.87484 0.48646 0.0
C419 C 0.96007 0.83643 0.47326 0.0
H420 H 0.48806 0.84373 0.72971 0.0
H421 H 0.3591 0.79245 0.71444 0.0
H422 H 0.37806 0.73706 0.67584 0.0
H423 H 0.43047 0.70219 0.64643 0.0
H424 H 0.55979 0.74754 0.66593 0.0
H425 H 0.54153 0.80573 0.70284 0.0
C426 C 0.46411 0.82026 0.71826 0.0
C427 C 0.42203 0.82333 0.72442 0.0
C428 C 0.47526 0.78732 0.69658 0.0
C429 C 0.39164 0.7922 0.70928 0.0
C430 C 0.40243 0.76008 0.68733 0.0
C431 C 0.45476 0.72505 0.65835 0.0
C432 C 0.49647 0.72086 0.65282 0.0
C433 C 0.44403 0.75749 0.68051 0.0
C434 C 0.52744 0.75021 0.66944 0.0
C435 C 0.51697 0.78342 0.69066 0.0
H436 H 0.94849 0.90098 0.77969 0.0
H437 H 0.91543 0.01587 0.81905 0.0
H438 H 0.93563 0.04783 0.75794 0.0
H439 H 0.95939 0.04228 0.6921 0.0
H440 H 0.99202 0.9271 0.65242 0.0
H441 H 0.97532 0.89633 0.71455 0.0
C442 C 0.9465 0.93321 0.77508 0.0
C443 C 0.9305 0.95601 0.80388 0.0
C444 C 0.95757 0.95127 0.73955 0.0
C445 C 0.9275 0.99762 0.79727 0.0
C446 C 0.93892 0.01588 0.76229 0.0
C447 C 0.96285 0.01044 0.69697 0.0
C448 C 0.9767 0.9871 0.66732 0.0
C449 C 0.9533 0.99282 0.73294 0.0
C450 C 0.9813 0.94592 0.6745 0.0
C451 C 0.97181 0.92822 0.71014 0.0
H452 H 0.58036 0.13023 0.37014 0.0
H453 H 0.69846 0.18296 0.3246 0.0
H454 H 0.67501 0.1598 0.26038 0.0
H455 H 0.62192 0.12083 0.21778 0.0
H456 H 0.50474 0.06686 0.26524 0.0
H457 H 0.52685 0.09431 0.32774 0.0
C458 C 0.60065 0.1375 0.34603 0.0
C459 C 0.64096 0.15851 0.3521 0.0
C460 C 0.5873 0.12333 0.30947 0.0
C461 C 0.66724 0.16682 0.32065 0.0
C462 C 0.65389 0.15345 0.28397 0.0
C463 C 0.6012 0.11517 0.24176 0.0
C464 C 0.56179 0.09145 0.23658 0.0
C465 C 0.61419 0.13096 0.27811 0.0
C466 C 0.53536 0.08465 0.26814 0.0
C467 C 0.5479 0.10047 0.30406 0.0
H468 H 0.44672 0.62558 0.32405 0.0
H469 H 0.42271 0.49245 0.32525 0.0
H470 H 0.44265 0.49282 0.39203 0.0
H471 H 0.46699 0.53022 0.45024 0.0
H472 H 0.48346 0.66277 0.45249 0.0
H473 H 0.46502 0.66331 0.38437 0.0
C474 C 0.44505 0.59656 0.33888 0.0
C475 C 0.43384 0.559 0.31888 0.0
C476 C 0.45503 0.59686 0.37803 0.0
C477 C 0.43251 0.5219 0.33906 0.0
C478 C 0.44347 0.52198 0.37756 0.0
C479 C 0.46655 0.55926 0.43577 0.0
C480 C 0.47703 0.59642 0.45601 0.0
C481 C 0.45502 0.5592 0.3972 0.0
C482 C 0.47554 0.63381 0.43731 0.0
C483 C 0.46514 0.63406 0.39844 0.0
H484 H 0.06939 0.49248 0.74894 0.0
H485 H -0.00047 0.58755 0.71368 0.0
H486 H 0.99787 0.61114 0.77951 0.0
H487 H 0.0134 0.60276 0.84731 0.0
H488 H 0.08796 0.51177 0.88192 0.0
H489 H 0.09225 0.48971 0.81541 0.0
C490 C 0.05471 0.51909 0.75519 0.0
C491 C 0.03421 0.53782 0.72606 0.0
C492 C 0.05492 0.53336 0.79294 0.0
C493 C 0.01463 0.57171 0.73542 0.0
C494 C 0.01398 0.58554 0.77306 0.0
C495 C 0.03094 0.57837 0.84016 0.0
C496 C 0.04998 0.55852 0.86927 0.0
C497 C 0.03348 0.56619 0.80206 0.0
C498 C 0.07315 0.52746 0.85984 0.0
C499 C 0.07533 0.51471 0.82193 0.0
H500 H 0.75383 0.99383 0.96748 0.0
H501 H 0.69941 0.86593 0.96786 0.0
H502 H 0.65493 0.87866 0.02083 0.0
H503 H 0.62418 0.92778 0.05938 0.0
H504 H 0.67502 0.05688 0.05667 0.0
H505 H 0.7288 0.04208 0.01309 0.0
C506 C 0.7331 0.96868 0.98012 0.0
C507 C 0.72972 0.92903 0.9641 0.0
C508 C 0.70662 0.97658 0.00975 0.0
C509 C 0.70244 0.89662 0.98004 0.0
C510 C 0.67688 0.90397 0.01009 0.0
C511 C 0.64748 0.95267 0.04989 0.0
C512 C 0.64505 0.99347 0.06079 0.0
C513 C 0.67753 0.9441 0.02405 0.0
C514 C 0.67593 0.02519 0.04862 0.0
C515 C 0.70657 0.01678 0.02344 0.0
H516 H 0.76048 0.17434 0.50082 0.0
H517 H 0.73235 0.08505 0.40973 0.0
H518 H 0.79378 0.05534 0.42564 0.0
H519 H 0.85665 0.05521 0.46429 0.0
H520 H 0.88221 0.14018 0.55874 0.0
H521 H 0.82007 0.16999 0.54334 0.0
C522 C 0.76734 0.14804 0.48472 0.0
C523 C 0.74199 0.1329 0.45341 0.0
C524 C 0.80227 0.12998 0.49476 0.0
C525 C 0.75183 0.09869 0.43301 0.0
C526 C 0.78684 0.08118 0.44237 0.0
C527 C 0.84849 0.08009 0.48166 0.0
C528 C 0.87419 0.09558 0.51245 0.0
C529 C 0.81251 0.09682 0.47291 0.0
C530 C 0.8629 0.12753 0.53494 0.0
C531 C 0.82747 0.14477 0.52602 0.0
H532 H 0.26359 0.69363 0.15759 0.0
H533 H 0.3059 0.58631 0.11014 0.0
H534 H 0.24598 0.57518 0.06716 0.0
H535 H 0.18119 0.59502 0.04397 0.0
H536 H 0.13736 0.70114 0.09233 0.0
H537 H 0.19902 0.71436 0.13333 0.0
C538 C 0.25981 0.66796 0.13766 0.0
C539 C 0.28909 0.64072 0.13722 0.0
C540 C 0.22534 0.66182 0.11292 0.0
C541 C 0.28349 0.60732 0.11154 0.0
C542 C 0.24945 0.60117 0.08669 0.0
C543 C 0.18536 0.62148 0.06299 0.0
C544 C 0.15479 0.64724 0.06485 0.0
C545 C 0.22019 0.62818 0.08718 0.0
C546 C 0.16047 0.68093 0.09022 0.0
C547 C 0.1956 0.68837 0.1138 0.0
H548 H 0.20947 0.52454 0.59468 0.0
H549 H 0.22427 0.41664 0.65957 0.0
H550 H 0.29899 0.43896 0.6634 0.0
H551 H 0.36026 0.48659 0.64449 0.0
H552 H 0.34562 0.59389 0.57817 0.0
H553 H 0.27072 0.57449 0.57894 0.0
C554 C 0.22911 0.50639 0.61018 0.0
C555 C 0.21174 0.469 0.6266 0.0
C556 C 0.27202 0.51906 0.6117 0.0
C557 C 0.23728 0.4454 0.64638 0.0
C558 C 0.27989 0.45811 0.64856 0.0
C559 C 0.34072 0.50589 0.63037 0.0
C560 C 0.35862 0.54139 0.61101 0.0
C561 C 0.29767 0.49443 0.63063 0.0
C562 C 0.33275 0.56618 0.59307 0.0
C563 C 0.28986 0.55516 0.5935 0.0
H564 H 0.95452 0.82902 0.86474 0.0
H565 H 0.92074 0.88104 0.97076 0.0
H566 H 0.94617 0.82584 1.0062 0.0
H567 H 0.9723 0.7588 1.00645 0.0
H568 H 0.00195 0.7059 0.89935 0.0
H569 H 0.98473 0.76544 0.86522 0.0
C570 C 0.95359 0.82882 0.89565 0.0
C571 C 0.93573 0.8591 0.91502 0.0
C572 C 0.96738 0.7965 0.91574 0.0
C573 C 0.93409 0.8579 0.95511 0.0
C574 C 0.94862 0.82633 0.9754 0.0
C575 C 0.97568 0.76081 0.97576 0.0
C576 C 0.98823 0.72791 0.95547 0.0
C577 C 0.96449 0.79484 0.95598 0.0
C578 C 0.99205 0.73068 0.91561 0.0
C579 C 0.98217 0.76472 0.89601 0.0
H580 H 0.36314 0.76745 0.20964 0.0
H581 H 0.46417 0.71416 0.1627 0.0
H582 H 0.50242 0.78289 0.15096 0.0
H583 H 0.50338 0.85764 0.14773 0.0
H584 H 0.40306 0.91109 0.19633 0.0
H585 H 0.36844 0.84285 0.2143 0.0
C586 C 0.39385 0.77113 0.19748 0.0
C587 C 0.4109 0.73622 0.18675 0.0
C588 C 0.41555 0.8106 0.1909 0.0
C589 C 0.45072 0.74087 0.17125 0.0
C590 C 0.47239 0.78005 0.16433 0.0
C591 C 0.47422 0.85433 0.16272 0.0
C592 C 0.45549 0.88916 0.1702 0.0
C593 C 0.45458 0.81508 0.17306 0.0
C594 C 0.41805 0.88466 0.19019 0.0
C595 C 0.39812 0.84565 0.20029 0.0
H596 H 0.06065 0.33652 0.63489 0.0
H597 H 0.14605 0.35805 0.54165 0.0
H598 H 0.13386 0.28478 0.52544 0.0
H599 H 0.10005 0.21488 0.53855 0.0
H600 H 0.01409 0.19295 0.63157 0.0
H601 H 0.02556 0.26628 0.64726 0.0
C602 C 0.07601 0.32514 0.61068 0.0
C603 C 0.10405 0.35238 0.58937 0.0
C604 C 0.06918 0.28303 0.60182 0.0
C605 C 0.12441 0.3374 0.55845 0.0
C606 C 0.11754 0.29562 0.54927 0.0
C607 C 0.08402 0.22602 0.56245 0.0
C608 C 0.05646 0.19846 0.58398 0.0
C609 C 0.09035 0.26814 0.57102 0.0
C610 C 0.03558 0.21353 0.61458 0.0
C611 C 0.04199 0.25545 0.62351 0.0
H612 H 0.55936 0.28358 0.5844 0.0
H613 H 0.57976 0.3068 0.46434 0.0
H614 H 0.56528 0.37675 0.47299 0.0
H615 H 0.54564 0.43126 0.5143 0.0
H616 H 0.51947 0.40576 0.63292 0.0
H617 H 0.53583 0.33621 0.62463 0.0
C618 C 0.55995 0.30341 0.55977 0.0
C619 C 0.57077 0.28929 0.52367 0.0
C620 C 0.55012 0.34327 0.5646 0.0
C621 C 0.5724 0.31653 0.49265 0.0
C622 C 0.56365 0.3566 0.49747 0.0
C623 C 0.54339 0.41046 0.53835 0.0
C624 C 0.53143 0.42387 0.57426 0.0
C625 C 0.55238 0.37027 0.53328 0.0
C626 C 0.52838 0.39631 0.60497 0.0
C627 C 0.53794 0.35656 0.60028 0.0
loop_
_geom_bond_atom_site_label_1
_geom_bond_atom_site_label_2
_geom_bond_distance
_geom_bond_site_symmetry_2
_ccdc_geom_bond_type
H0 C1 0.949 . S
C1 H0 0.949 . S
C1 C2 1.395 . S
C1 C3 1.391 . S
C2 C1 1.395 . S
C2 C5 1.390 . S
C3 C1 1.391 . S
C3 C7 1.387 . S
C3 C8 1.491 . S
H4 C5 0.950 . S
C5 C2 1.390 . S
C5 H4 0.950 . S
C5 C6 1.378 . S
C6 C5 1.378 . S
C6 C7 1.409 . S
C7 C3 1.387 . S
C7 C6 1.409 . S
C7 H9 0.951 . S
C8 C3 1.491 . S
C8 C10 1.382 . S
C8 C12 1.404 . S
H9 C7 0.951 . S
C10 C8 1.382 . S
C10 C11 1.390 . S
C10 H15 0.949 . S
C11 C10 1.390 . S
C11 C16 1.399 . S
C12 C8 1.404 . S
C12 H13 0.950 . S
C12 C14 1.375 . S
H13 C12 0.950 . S
C14 C12 1.375 . S
C14 C16 1.382 . S
C14 H18 0.950 . S
H15 C10 0.949 . S
C16 C11 1.399 . S
C16 C14 1.382 . S
C16 H17 0.952 . S
H17 C16 0.952 . S
H18 C14 0.950 . S
H19 C20 0.949 . S
C20 H19 0.949 . S
C20 C21 1.395 . S
C20 C22 1.391 . S
C21 C20 1.395 . S
C21 C24 1.390 . S
C22 C20 1.391 . S
C22 C26 1.387 . S
C22 C27 1.491 . S
H23 C24 0.950 . S
C24 C21 1.390 . S
C24 H23 0.950 . S
C24 C25 1.378 . S
C25 C24 1.378 . S
C25 C26 1.409 . S
C26 C22 1.387 . S
C26 C25 1.409 . S
C26 H28 0.951 . S
C27 C22 1.491 . S
C27 C29 1.382 . S
C27 C31 1.404 . S
H28 C26 0.951 . S
C29 C27 1.382 . S
C29 C30 1.390 . S
C29 H34 0.949 . S
C30 C29 1.390 . S
C30 C35 1.399 . S
C31 C27 1.404 . S
C31 H32 0.950 . S
C31 C33 1.375 . S
H32 C31 0.950 . S
C33 C31 1.375 . S
C33 C35 1.382 . S
C33 H37 0.950 . S
H34 C29 0.949 . S
C35 C30 1.399 . S
C35 C33 1.382 . S
C35 H36 0.952 . S
H36 C35 0.952 . S
H37 C33 0.950 . S
H38 C39 0.949 . S
C39 H38 0.949 . S
C39 C40 1.395 . S
C39 C41 1.391 . S
C40 C39 1.395 . S
C40 C43 1.390 . S
C41 C39 1.391 . S
C41 C45 1.387 . S
C41 C46 1.491 . S
H42 C43 0.950 1_554 S
C43 C40 1.390 . S
C43 H42 0.950 1_556 S
C43 C44 1.378 . S
C44 C43 1.378 . S
C44 C45 1.409 . S
C45 C41 1.387 . S
C45 C44 1.409 . S
C45 H47 0.951 . S
C46 C41 1.491 . S
C46 C48 1.382 . S
C46 C50 1.404 . S
H47 C45 0.951 . S
C48 C46 1.382 . S
C48 C49 1.390 . S
C48 H53 0.949 . S
C49 C48 1.390 . S
C49 C54 1.399 . S
C50 C46 1.404 . S
C50 H51 0.950 . S
C50 C52 1.375 . S
H51 C50 0.950 . S
C52 C50 1.375 . S
C52 C54 1.382 . S
C52 H56 0.950 . S
H53 C48 0.949 . S
C54 C49 1.399 . S
C54 C52 1.382 . S
C54 H55 0.952 . S
H55 C54 0.952 . S
H56 C52 0.950 . S
H57 C58 0.949 . S
C58 H57 0.949 . S
C58 C59 1.395 . S
C58 C60 1.391 . S
C59 C58 1.395 . S
C59 C62 1.390 . S
C60 C58 1.391 . S
C60 C64 1.387 . S
C60 C65 1.491 . S
H61 C62 0.950 . S
C62 C59 1.390 . S
C62 H61 0.950 . S
C62 C63 1.378 . S
C63 C62 1.378 . S
C63 C64 1.409 . S
C64 C60 1.387 . S
C64 C63 1.409 . S
C64 H66 0.951 . S
C65 C60 1.491 . S
C65 C67 1.382 . S
C65 C69 1.404 . S
H66 C64 0.951 . S
C67 C65 1.382 . S
C67 C68 1.390 . S
C67 H72 0.949 . S
C68 C67 1.390 . S
C68 C73 1.399 . S
C69 C65 1.404 . S
C69 H70 0.950 . S
C69 C71 1.375 . S
H70 C69 0.950 . S
C71 C69 1.375 . S
C71 C73 1.382 . S
C71 H75 0.950 . S
H72 C67 0.949 . S
C73 C68 1.399 . S
C73 C71 1.382 . S
C73 H74 0.952 . S
H74 C73 0.952 . S
H75 C71 0.950 . S
H76 C77 0.949 . S
C77 H76 0.949 . S
C77 C78 1.395 . S
C77 C79 1.391 . S
C78 C77 1.395 . S
C78 C81 1.390 . S
C79 C77 1.391 . S
C79 C83 1.387 1_565 S
C79 C84 1.491 1_565 S
H80 C81 0.950 . S
C81 C78 1.390 . S
C81 H80 0.950 . S
C81 C82 1.378 . S
C82 C81 1.378 . S
C82 C83 1.409 1_565 S
C83 C79 1.387 1_545 S
C83 C82 1.409 1_545 S
C83 H85 0.951 . S
C84 C79 1.491 1_545 S
C84 C86 1.382 . S
C84 C88 1.404 . S
H85 C83 0.951 . S
C86 C84 1.382 . S
C86 C87 1.390 . S
C86 H91 0.949 . S
C87 C86 1.390 . S
C87 C92 1.399 . S
C88 C84 1.404 . S
C88 H89 0.950 . S
C88 C90 1.375 . S
H89 C88 0.950 . S
C90 C88 1.375 . S
C90 C92 1.382 . S
C90 H94 0.950 . S
H91 C86 0.949 . S
C92 C87 1.399 . S
C92 C90 1.382 . S
C92 H93 0.952 . S
H93 C92 0.952 . S
H94 C90 0.950 . S
H95 C96 0.949 . S
C96 H95 0.949 . S
C96 C97 1.395 . S
C96 C98 1.391 . S
C97 C96 1.395 . S
C97 C100 1.390 . S
C98 C96 1.391 . S
C98 C102 1.387 . S
C98 C103 1.491 . S
H99 C100 0.950 . S
C100 C97 1.390 . S
C100 H99 0.950 . S
C100 C101 1.378 . S
C101 C100 1.378 . S
C101 C102 1.409 . S
C102 C98 1.387 . S
C102 C101 1.409 . S
C102 H104 0.951 . S
C103 C98 1.491 . S
C103 C105 1.382 . S
C103 C107 1.404 . S
H104 C102 0.951 . S
C105 C103 1.382 . S
C105 C106 1.390 . S
C105 H110 0.949 . S
C106 C105 1.390 . S
C106 C111 1.399 . S
C107 C103 1.404 . S
C107 H108 0.950 . S
C107 C109 1.375 . S
H108 C107 0.950 . S
C109 C107 1.375 . S
C109 C111 1.382 . S
C109 H113 0.950 . S
H110 C105 0.949 . S
C111 C106 1.399 . S
C111 C109 1.382 . S
C111 H112 0.952 . S
H112 C111 0.952 . S
H113 C109 0.950 . S
H114 C115 0.949 . S
C115 H114 0.949 . S
C115 C116 1.395 . S
C115 C117 1.391 . S
C116 C115 1.395 . S
C116 C119 1.390 . S
C117 C115 1.391 . S
C117 C121 1.387 . S
C117 C122 1.491 . S
H118 C119 0.950 . S
C119 C116 1.390 . S
C119 H118 0.950 . S
C119 C120 1.378 . S
C120 C119 1.378 . S
C120 C121 1.409 . S
C121 C117 1.387 . S
C121 C120 1.409 . S
C121 H123 0.951 . S
C122 C117 1.491 . S
C122 C124 1.382 . S
C122 C126 1.404 . S
H123 C121 0.951 . S
C124 C122 1.382 . S
C124 C125 1.390 . S
C124 H129 0.949 . S
C125 C124 1.390 . S
C125 C130 1.399 . S
C126 C122 1.404 . S
C126 H127 0.950 . S
C126 C128 1.375 . S
H127 C126 0.950 . S
C128 C126 1.375 . S
C128 C130 1.382 . S
C128 H132 0.950 . S
H129 C124 0.949 . S
C130 C125 1.399 . S
C130 C128 1.382 . S
C130 H131 0.952 . S
H131 C130 0.952 . S
H132 C128 0.950 . S
H133 C134 0.949 . S
C134 H133 0.949 . S
C134 C135 1.395 . S
C134 C136 1.391 . S
C135 C134 1.395 . S
C135 C138 1.390 . S
C136 C134 1.391 . S
C136 C140 1.387 . S
C136 C141 1.491 . S
H137 C138 0.950 . S
C138 C135 1.390 . S
C138 H137 0.950 . S
C138 C139 1.378 . S
C139 C138 1.378 . S
C139 C140 1.409 . S
C140 C136 1.387 . S
C140 C139 1.409 . S
C140 H142 0.951 . S
C141 C136 1.491 . S
C141 C143 1.382 . S
C141 C145 1.404 . S
H142 C140 0.951 . S
C143 C141 1.382 . S
C143 C144 1.390 . S
C143 H148 0.949 . S
C144 C143 1.390 . S
C144 C149 1.399 . S
C145 C141 1.404 . S
C145 H146 0.950 . S
C145 C147 1.375 . S
H146 C145 0.950 . S
C147 C145 1.375 . S
C147 C149 1.382 . S
C147 H151 0.950 . S
H148 C143 0.949 . S
C149 C144 1.399 . S
C149 C147 1.382 . S
C149 H150 0.952 . S
H150 C149 0.952 . S
H151 C147 0.950 . S
O152 Zn153 1.953 . S
O152 C168 1.225 1_655 S
Zn153 O152 1.953 . S
Zn153 O154 1.949 1_655 S
Zn153 O160 1.919 . S
Zn153 O165 1.924 . S
O154 Zn153 1.949 1_455 S
O154 Zn155 1.923 1_455 S
O154 Zn156 1.950 . S
O154 Zn157 1.945 1_545 S
Zn155 O154 1.923 1_655 S
Zn155 O158 1.933 1_545 S
Zn155 O161 1.941 . S
Zn155 O162 1.965 1_655 S
Zn156 O154 1.950 . S
Zn156 O163 1.938 . S
Zn156 O164 1.906 . S
Zn156 O174 1.953 . S
Zn157 O154 1.945 1_565 S
Zn157 O159 1.932 1_455 S
Zn157 O166 1.977 . S
Zn157 O167 1.910 1_455 S
O158 Zn155 1.933 1_565 S
O158 C169 1.226 . S
O159 Zn157 1.932 1_655 S
O159 C169 1.307 . S
O160 Zn153 1.919 . S
O160 C171 1.253 . S
O161 Zn155 1.941 . S
O161 C171 1.283 . S
O162 Zn155 1.965 1_455 S
O162 C170 1.303 . S
O163 Zn156 1.938 . S
O163 C170 1.247 . S
O164 Zn156 1.906 . S
O164 C172 1.304 . S
O165 Zn153 1.924 . S
O165 C173 1.311 . S
O166 Zn157 1.977 . S
O166 C172 1.272 1_565 S
O167 Zn157 1.910 1_655 S
O167 C173 1.231 1_565 S
C168 O152 1.225 1_455 S
C168 O174 1.298 . S
C169 O158 1.226 . S
C169 O159 1.307 . S
C170 O162 1.303 . S
C170 O163 1.247 . S
C171 O160 1.253 . S
C171 O161 1.283 . S
C172 O164 1.304 . S
C172 O166 1.272 1_545 S
C173 O165 1.311 . S
C173 O167 1.231 1_545 S
O174 Zn156 1.953 . S
O174 C168 1.298 . S
O175 Zn176 1.953 . S
O175 C191 1.225 . S
Zn176 O175 1.953 . S
Zn176 O177 1.949 . S
Zn176 O183 1.919 1_554 S
Zn176 O188 1.924 . S
O177 Zn176 1.949 . S
O177 Zn178 1.923 1_545 S
O177 Zn179 1.950 . S
O177 Zn180 1.945 . S
Zn178 O177 1.923 1_565 S
Zn178 O181 1.933 . S
Zn178 O184 1.941 . S
Zn178 O185 1.965 . S
Zn179 O177 1.950 . S
Zn179 O186 1.938 . S
Zn179 O187 1.906 . S
Zn179 O197 1.953 . S
Zn180 O177 1.945 . S
Zn180 O182 1.932 1_545 S
Zn180 O189 1.977 . S
Zn180 O190 1.910 . S
O181 Zn178 1.933 . S
O181 C192 1.226 . S
O182 Zn180 1.932 1_565 S
O182 C192 1.307 . S
O183 Zn176 1.919 1_556 S
O183 C194 1.253 1_545 S
O184 Zn178 1.941 . S
O184 C194 1.283 1_554 S
O185 Zn178 1.965 . S
O185 C193 1.303 1_565 S
O186 Zn179 1.938 . S
O186 C193 1.247 . S
O187 Zn179 1.906 . S
O187 C195 1.304 . S
O188 Zn176 1.924 . S
O188 C196 1.311 . S
O189 Zn180 1.977 . S
O189 C195 1.272 . S
O190 Zn180 1.910 . S
O190 C196 1.231 . S
C191 O175 1.225 . S
C191 O197 1.298 . S
C192 O181 1.226 . S
C192 O182 1.307 . S
C193 O185 1.303 1_545 S
C193 O186 1.247 . S
C194 O183 1.253 1_565 S
C194 O184 1.283 1_556 S
C195 O187 1.304 . S
C195 O189 1.272 . S
C196 O188 1.311 . S
C196 O190 1.231 . S
O197 Zn179 1.953 . S
O197 C191 1.298 . S
O198 Zn199 1.953 . S
O198 C214 1.225 . S
Zn199 O198 1.953 . S
Zn199 O200 1.949 . S
Zn199 O206 1.919 . S
Zn199 O211 1.924 . S
O200 Zn199 1.949 . S
O200 Zn201 1.923 . S
O200 Zn202 1.950 . S
O200 Zn203 1.945 . S
Zn201 O200 1.923 . S
Zn201 O204 1.933 . S
Zn201 O207 1.941 . S
Zn201 O208 1.965 . S
Zn202 O200 1.950 . S
Zn202 O209 1.938 . S
Zn202 O210 1.906 . S
Zn202 O220 1.953 . S
Zn203 O200 1.945 . S
Zn203 O205 1.932 . S
Zn203 O212 1.977 . S
Zn203 O213 1.910 . S
O204 Zn201 1.933 . S
O204 C215 1.226 . S
O205 Zn203 1.932 . S
O205 C215 1.307 . S
O206 Zn199 1.919 . S
O206 C217 1.253 . S
O207 Zn201 1.941 . S
O207 C217 1.283 . S
O208 Zn201 1.965 . S
O208 C216 1.303 . S
O209 Zn202 1.938 . S
O209 C216 1.247 . S
O210 Zn202 1.906 . S
O210 C218 1.304 . S
O211 Zn199 1.924 . S
O211 C219 1.311 . S
O212 Zn203 1.977 . S
O212 C218 1.272 . S
O213 Zn203 1.910 . S
O213 C219 1.231 . S
C214 O198 1.225 . S
C214 O220 1.298 . S
C215 O204 1.226 . S
C215 O205 1.307 . S
C216 O208 1.303 . S
C216 O209 1.247 . S
C217 O206 1.253 . S
C217 O207 1.283 . S
C218 O210 1.304 . S
C218 O212 1.272 . S
C219 O211 1.311 . S
C219 O213 1.231 . S
O220 Zn202 1.953 . S
O220 C214 1.298 . S
O221 Zn222 1.953 . S
O221 C237 1.225 . S
Zn222 O221 1.953 . S
Zn222 O223 1.949 1_655 S
Zn222 O229 1.919 . S
Zn222 O234 1.924 . S
O223 Zn222 1.949 1_455 S
O223 Zn224 1.923 1_454 S
O223 Zn225 1.950 . S
O223 Zn226 1.945 . S
Zn224 O223 1.923 1_656 S
Zn224 O227 1.933 1_655 S
Zn224 O230 1.941 . S
Zn224 O231 1.965 . S
Zn225 O223 1.950 . S
Zn225 O232 1.938 . S
Zn225 O233 1.906 . S
Zn225 O243 1.953 . S
Zn226 O223 1.945 . S
Zn226 O228 1.932 1_554 S
Zn226 O235 1.977 . S
Zn226 O236 1.910 . S
O227 Zn224 1.933 1_455 S
O227 C238 1.226 . S
O228 Zn226 1.932 1_556 S
O228 C238 1.307 . S
O229 Zn222 1.919 . S
O229 C240 1.253 1_554 S
O230 Zn224 1.941 . S
O230 C240 1.283 . S
O231 Zn224 1.965 . S
O231 C239 1.303 1_656 S
O232 Zn225 1.938 . S
O232 C239 1.247 . S
O233 Zn225 1.906 . S
O233 C241 1.304 . S
O234 Zn222 1.924 . S
O234 C242 1.311 1_655 S
O235 Zn226 1.977 . S
O235 C241 1.272 . S
O236 Zn226 1.910 . S
O236 C242 1.231 . S
C237 O221 1.225 . S
C237 O243 1.298 1_655 S
C238 O227 1.226 . S
C238 O228 1.307 . S
C239 O231 1.303 1_454 S
C239 O232 1.247 . S
C240 O229 1.253 1_556 S
C240 O230 1.283 . S
C241 O233 1.304 . S
C241 O235 1.272 . S
C242 O234 1.311 1_455 S
C242 O236 1.231 . S
O243 Zn225 1.953 . S
O243 C237 1.298 1_455 S
H244 C250 0.930 . S
H245 C253 0.930 . S
H246 C254 0.930 . S
H247 C255 0.930 . S
H248 C258 0.930 . S
H249 C259 0.930 . S
C250 H244 0.930 . S
C250 C251 1.355 . S
C250 C252 1.415 . S
C251 C250 1.355 . S
C251 C253 1.419 . S
C252 C250 1.415 . S
C252 C257 1.425 . S
C252 C259 1.409 . S
C253 H245 0.930 . S
C253 C251 1.419 . S
C253 C254 1.362 . S
C254 H246 0.930 . S
C254 C253 1.362 . S
C254 C257 1.409 . S
C255 H247 0.930 . S
C255 C256 1.355 . S
C255 C257 1.415 . S
C256 C255 1.355 . S
C256 C258 1.419 . S
C257 C252 1.425 . S
C257 C254 1.409 . S
C257 C255 1.415 . S
C258 H248 0.930 . S
C258 C256 1.419 . S
C258 C259 1.362 . S
C259 H249 0.930 . S
C259 C252 1.409 . S
C259 C258 1.362 . S
H260 C266 0.930 . S
H261 C269 0.930 . S
H262 C270 0.930 . S
H263 C271 0.936 . S
H264 C274 0.930 . S
H265 C275 0.930 . S
C266 H260 0.930 . S
C266 C267 1.355 . S
C266 C268 1.415 . S
C267 C266 1.355 . S
C267 C269 1.419 . S
C268 C266 1.415 . S
C268 C273 1.425 . S
C268 C275 1.409 . S
C269 H261 0.930 . S
C269 C267 1.419 . S
C269 C270 1.362 . S
C270 H262 0.930 . S
C270 C269 1.362 . S
C270 C273 1.409 . S
C271 H263 0.936 . S
C271 C272 1.355 . S
C271 C273 1.415 . S
C272 C271 1.355 . S
C272 C274 1.419 . S
C273 C268 1.425 . S
C273 C270 1.409 . S
C273 C271 1.415 . S
C274 H264 0.930 . S
C274 C272 1.419 . S
C274 C275 1.362 . S
C275 H265 0.930 . S
C275 C268 1.409 . S
C275 C274 1.362 . S
H276 C282 0.930 . S
H277 C285 0.930 . S
H278 C286 0.930 . S
H279 C287 0.930 . S
H280 C290 0.930 . S
H281 C291 0.930 . S
C282 H276 0.930 . S
C282 C283 1.355 . S
C282 C284 1.415 . S
C283 C282 1.355 . S
C283 C285 1.419 . S
C284 C282 1.415 . S
C284 C289 1.425 . S
C284 C291 1.409 . S
C285 H277 0.930 . S
C285 C283 1.419 . S
C285 C286 1.362 . S
C286 H278 0.930 . S
C286 C285 1.362 . S
C286 C289 1.409 . S
C287 H279 0.930 . S
C287 C288 1.355 . S
C287 C289 1.415 . S
C288 C287 1.355 . S
C288 C290 1.419 . S
C289 C284 1.425 . S
C289 C286 1.409 . S
C289 C287 1.415 . S
C290 H280 0.930 . S
C290 C288 1.419 . S
C290 C291 1.362 . S
C291 H281 0.930 . S
C291 C284 1.409 . S
C291 C290 1.362 . S
H292 C298 0.930 . S
H293 C301 0.930 . S
H294 C302 0.919 1_455 S
H295 C303 0.930 . S
H296 C306 0.930 . S
H297 C307 0.930 . S
C298 H292 0.930 . S
C298 C299 1.355 . S
C298 C300 1.415 . S
C299 C298 1.355 . S
C299 C301 1.419 . S
C300 C298 1.415 . S
C300 C305 1.425 . S
C300 C307 1.409 . S
C301 H293 0.930 . S
C301 C299 1.419 . S
C301 C302 1.362 . S
C302 H294 0.919 1_655 S
C302 C301 1.362 . S
C302 C305 1.409 . S
C303 H295 0.930 . S
C303 C304 1.355 . S
C303 C305 1.415 . S
C304 C303 1.355 . S
C304 C306 1.419 . S
C305 C300 1.425 . S
C305 C302 1.409 . S
C305 C303 1.415 . S
C306 H296 0.930 . S
C306 C304 1.419 . S
C306 C307 1.362 . S
C307 H297 0.930 . S
C307 C300 1.409 . S
C307 C306 1.362 . S
H308 C314 0.930 . S
H309 C317 0.930 . S
H310 C318 0.930 . S
H311 C319 0.930 . S
H312 C322 0.930 . S
H313 C323 0.930 . S
C314 H308 0.930 . S
C314 C315 1.355 . S
C314 C316 1.415 . S
C315 C314 1.355 . S
C315 C317 1.419 . S
C316 C314 1.415 . S
C316 C321 1.425 . S
C316 C323 1.409 . S
C317 H309 0.930 . S
C317 C315 1.419 . S
C317 C318 1.362 . S
C318 H310 0.930 . S
C318 C317 1.362 . S
C318 C321 1.409 . S
C319 H311 0.930 . S
C319 C320 1.355 . S
C319 C321 1.415 . S
C320 C319 1.355 . S
C320 C322 1.419 . S
C321 C316 1.425 . S
C321 C318 1.409 . S
C321 C319 1.415 . S
C322 H312 0.930 . S
C322 C320 1.419 . S
C322 C323 1.362 . S
C323 H313 0.930 . S
C323 C316 1.409 . S
C323 C322 1.362 . S
H324 C330 0.930 . S
H325 C333 0.930 . S
H326 C334 0.930 . S
H327 C335 0.930 . S
H328 C338 0.930 . S
H329 C339 0.930 . S
C330 H324 0.930 . S
C330 C331 1.355 . S
C330 C332 1.415 . S
C331 C330 1.355 . S
C331 C333 1.419 . S
C332 C330 1.415 . S
C332 C337 1.425 . S
C332 C339 1.409 . S
C333 H325 0.930 . S
C333 C331 1.419 . S
C333 C334 1.362 . S
C334 H326 0.930 . S
C334 C333 1.362 . S
C334 C337 1.409 . S
C335 H327 0.930 . S
C335 C336 1.355 . S
C335 C337 1.415 . S
C336 C335 1.355 . S
C336 C338 1.419 . S
C337 C332 1.425 . S
C337 C334 1.409 . S
C337 C335 1.415 . S
C338 H328 0.930 . S
C338 C336 1.419 . S
C338 C339 1.362 . S
C339 H329 0.930 . S
C339 C332 1.409 . S
C339 C338 1.362 . S
H340 C346 0.930 . S
H341 C349 0.930 . S
H342 C350 0.930 . S
H343 C351 0.930 . S
H344 C354 0.930 . S
H345 C355 0.930 . S
C346 H340 0.930 . S
C346 C347 1.355 . S
C346 C348 1.415 . S
C347 C346 1.355 . S
C347 C349 1.419 . S
C348 C346 1.415 . S
C348 C353 1.425 . S
C348 C355 1.409 . S
C349 H341 0.930 . S
C349 C347 1.419 . S
C349 C350 1.362 . S
C350 H342 0.930 . S
C350 C349 1.362 . S
C350 C353 1.409 . S
C351 H343 0.930 . S
C351 C352 1.355 . S
C351 C353 1.415 . S
C352 C351 1.355 . S
C352 C354 1.419 . S
C353 C348 1.425 . S
C353 C350 1.409 . S
C353 C351 1.415 . S
C354 H344 0.930 . S
C354 C352 1.419 . S
C354 C355 1.362 . S
C355 H345 0.930 . S
C355 C348 1.409 . S
C355 C354 1.362 . S
H356 C362 0.930 . S
H357 C365 0.930 . S
H358 C366 0.930 . S
H359 C367 0.930 . S
H360 C370 0.930 . S
H361 C371 0.930 . S
C362 H356 0.930 . S
C362 C363 1.355 . S
C362 C364 1.415 . S
C363 C362 1.355 . S
C363 C365 1.419 . S
C364 C362 1.415 . S
C364 C369 1.425 . S
C364 C371 1.409 . S
C365 H357 0.930 . S
C365 C363 1.419 . S
C365 C366 1.362 . S
C366 H358 0.930 . S
C366 C365 1.362 . S
C366 C369 1.409 . S
C367 H359 0.930 . S
C367 C368 1.355 . S
C367 C369 1.415 . S
C368 C367 1.355 . S
C368 C370 1.419 . S
C369 C364 1.425 . S
C369 C366 1.409 . S
C369 C367 1.415 . S
C370 H360 0.930 . S
C370 C368 1.419 . S
C370 C371 1.362 . S
C371 H361 0.930 . S
C371 C364 1.409 . S
C371 C370 1.362 . S
H372 C378 0.930 . S
H373 C381 0.930 . S
H374 C382 0.930 1_655 S
H375 C383 0.930 1_655 S
H376 C386 0.930 . S
H377 C387 0.930 . S
C378 H372 0.930 . S
C378 C379 1.355 . S
C378 C380 1.415 . S
C379 C378 1.355 . S
C379 C381 1.419 . S
C380 C378 1.415 . S
C380 C385 1.425 . S
C380 C387 1.409 . S
C381 H373 0.930 . S
C381 C379 1.419 . S
C381 C382 1.362 . S
C382 H374 0.930 1_455 S
C382 C381 1.362 . S
C382 C385 1.409 . S
C383 H375 0.930 1_455 S
C383 C384 1.355 . S
C383 C385 1.415 . S
C384 C383 1.355 . S
C384 C386 1.419 . S
C385 C380 1.425 . S
C385 C382 1.409 . S
C385 C383 1.415 . S
C386 H376 0.930 . S
C386 C384 1.419 . S
C386 C387 1.362 . S
C387 H377 0.930 . S
C387 C380 1.409 . S
C387 C386 1.362 . S
H388 C394 0.930 . S
H389 C397 0.930 . S
H390 C398 0.930 . S
H391 C399 0.930 1_556 S
H392 C402 0.930 . S
H393 C403 0.930 . S
C394 H388 0.930 . S
C394 C395 1.355 1_554 S
C394 C396 1.415 . S
C395 C394 1.355 1_556 S
C395 C397 1.419 . S
C396 C394 1.415 . S
C396 C401 1.425 . S
C396 C403 1.409 . S
C397 H389 0.930 . S
C397 C395 1.419 . S
C397 C398 1.362 . S
C398 H390 0.930 . S
C398 C397 1.362 . S
C398 C401 1.409 1_556 S
C399 H391 0.930 1_554 S
C399 C400 1.355 . S
C399 C401 1.415 . S
C400 C399 1.355 . S
C400 C402 1.419 . S
C401 C396 1.425 . S
C401 C398 1.409 1_554 S
C401 C399 1.415 . S
C402 H392 0.930 . S
C402 C400 1.419 . S
C402 C403 1.362 . S
C403 H393 0.930 . S
C403 C396 1.409 . S
C403 C402 1.362 . S
H404 C410 0.930 . S
H405 C413 0.930 . S
H406 C414 0.930 . S
H407 C415 0.930 . S
H408 C418 0.930 . S
H409 C419 0.930 . S
C410 H404 0.930 . S
C410 C411 1.355 . S
C410 C412 1.415 . S
C411 C410 1.355 . S
C411 C413 1.419 . S
C412 C410 1.415 . S
C412 C417 1.425 . S
C412 C419 1.409 . S
C413 H405 0.930 . S
C413 C411 1.419 . S
C413 C414 1.362 . S
C414 H406 0.930 . S
C414 C413 1.362 . S
C414 C417 1.409 . S
C415 H407 0.930 . S
C415 C416 1.355 . S
C415 C417 1.415 . S
C416 C415 1.355 . S
C416 C418 1.419 . S
C417 C412 1.425 . S
C417 C414 1.409 . S
C417 C415 1.415 . S
C418 H408 0.930 . S
C418 C416 1.419 . S
C418 C419 1.362 . S
C419 H409 0.930 . S
C419 C412 1.409 . S
C419 C418 1.362 . S
H420 C426 0.930 . S
H421 C429 0.930 . S
H422 C430 0.930 . S
H423 C431 0.930 . S
H424 C434 0.930 . S
H425 C435 0.930 . S
C426 H420 0.930 . S
C426 C427 1.355 . S
C426 C428 1.415 . S
C427 C426 1.355 . S
C427 C429 1.419 . S
C428 C426 1.415 . S
C428 C433 1.425 . S
C428 C435 1.409 . S
C429 H421 0.930 . S
C429 C427 1.419 . S
C429 C430 1.362 . S
C430 H422 0.930 . S
C430 C429 1.362 . S
C430 C433 1.409 . S
C431 H423 0.930 . S
C431 C432 1.355 . S
C431 C433 1.415 . S
C432 C431 1.355 . S
C432 C434 1.419 . S
C433 C428 1.425 . S
C433 C430 1.409 . S
C433 C431 1.415 . S
C434 H424 0.930 . S
C434 C432 1.419 . S
C434 C435 1.362 . S
C435 H425 0.930 . S
C435 C428 1.409 . S
C435 C434 1.362 . S
H436 C442 0.930 . S
H437 C445 0.930 . S
H438 C446 0.930 1_455 S
H439 C447 0.930 . S
H440 C450 0.930 . S
H441 C451 0.930 . S
C442 H436 0.930 . S
C442 C443 1.355 1_565 S
C442 C444 1.415 . S
C443 C442 1.355 1_545 S
C443 C445 1.419 . S
C444 C442 1.415 . S
C444 C449 1.425 1_565 S
C444 C451 1.409 . S
C445 H437 0.930 . S
C445 C443 1.419 . S
C445 C446 1.362 . S
C446 H438 0.930 1_655 S
C446 C445 1.362 . S
C446 C449 1.409 . S
C447 H439 0.930 . S
C447 C448 1.355 . S
C447 C449 1.415 . S
C448 C447 1.355 . S
C448 C450 1.419 1_545 S
C449 C444 1.425 1_545 S
C449 C446 1.409 . S
C449 C447 1.415 . S
C450 H440 0.930 . S
C450 C448 1.419 1_565 S
C450 C451 1.362 . S
C451 H441 0.930 . S
C451 C444 1.409 . S
C451 C450 1.362 . S
H452 C458 0.930 . S
H453 C461 0.930 . S
H454 C462 0.930 . S
H455 C463 0.930 . S
H456 C466 0.930 1_565 S
H457 C467 0.930 1_565 S
C458 H452 0.930 . S
C458 C459 1.355 . S
C458 C460 1.415 . S
C459 C458 1.355 . S
C459 C461 1.419 . S
C460 C458 1.415 . S
C460 C465 1.425 . S
C460 C467 1.409 . S
C461 H453 0.930 . S
C461 C459 1.419 . S
C461 C462 1.362 . S
C462 H454 0.930 . S
C462 C461 1.362 . S
C462 C465 1.409 . S
C463 H455 0.930 . S
C463 C464 1.355 . S
C463 C465 1.415 . S
C464 C463 1.355 . S
C464 C466 1.419 . S
C465 C460 1.425 . S
C465 C462 1.409 . S
C465 C463 1.415 . S
C466 H456 0.930 1_545 S
C466 C464 1.419 . S
C466 C467 1.362 . S
C467 H457 0.930 1_545 S
C467 C460 1.409 . S
C467 C466 1.362 . S
H468 C474 0.930 . S
H469 C477 0.930 . S
H470 C478 0.930 . S
H471 C479 0.930 . S
H472 C482 0.930 . S
H473 C483 0.930 . S
C474 H468 0.930 . S
C474 C475 1.355 . S
C474 C476 1.415 . S
C475 C474 1.355 . S
C475 C477 1.419 . S
C476 C474 1.415 . S
C476 C481 1.425 . S
C476 C483 1.409 . S
C477 H469 0.930 . S
C477 C475 1.419 . S
C477 C478 1.362 . S
C478 H470 0.930 . S
C478 C477 1.362 . S
C478 C481 1.409 . S
C479 H471 0.930 . S
C479 C480 1.355 . S
C479 C481 1.415 . S
C480 C479 1.355 . S
C480 C482 1.419 . S
C481 C476 1.425 . S
C481 C478 1.409 . S
C481 C479 1.415 . S
C482 H472 0.930 . S
C482 C480 1.419 . S
C482 C483 1.362 . S
C483 H473 0.930 . S
C483 C476 1.409 . S
C483 C482 1.362 . S
H484 C490 0.930 . S
H485 C493 0.930 . S
H486 C494 0.930 . S
H487 C495 0.930 . S
H488 C498 0.930 . S
H489 C499 0.930 . S
C490 H484 0.930 . S
C490 C491 1.355 . S
C490 C492 1.415 . S
C491 C490 1.355 . S
C491 C493 1.419 . S
C492 C490 1.415 . S
C492 C497 1.425 . S
C492 C499 1.409 . S
C493 H485 0.930 . S
C493 C491 1.419 . S
C493 C494 1.362 . S
C494 H486 0.930 . S
C494 C493 1.362 . S
C494 C497 1.409 . S
C495 H487 0.930 . S
C495 C496 1.355 . S
C495 C497 1.415 . S
C496 C495 1.355 . S
C496 C498 1.419 . S
C497 C492 1.425 . S
C497 C494 1.409 . S
C497 C495 1.415 . S
C498 H488 0.930 . S
C498 C496 1.419 . S
C498 C499 1.362 . S
C499 H489 0.930 . S
C499 C492 1.409 . S
C499 C498 1.362 . S
H500 C506 0.930 . S
H501 C509 0.930 1_565 S
H502 C510 0.930 1_565 S
H503 C511 0.930 . S
H504 C514 0.930 1_556 S
H505 C515 0.930 . S
C506 H500 0.930 . S
C506 C507 1.355 1_556 S
C506 C508 1.415 1_556 S
C507 C506 1.355 1_554 S
C507 C509 1.419 . S
C508 C506 1.415 1_554 S
C508 C513 1.425 . S
C508 C515 1.409 1_554 S
C509 H501 0.930 1_545 S
C509 C507 1.419 . S
C509 C510 1.362 . S
C510 H502 0.930 1_545 S
C510 C509 1.362 . S
C510 C513 1.409 . S
C511 H503 0.930 . S
C511 C512 1.355 . S
C511 C513 1.415 . S
C512 C511 1.355 . S
C512 C514 1.419 . S
C513 C508 1.425 . S
C513 C510 1.409 . S
C513 C511 1.415 . S
C514 H504 0.930 1_554 S
C514 C512 1.419 . S
C514 C515 1.362 1_554 S
C515 H505 0.930 . S
C515 C508 1.409 1_556 S
C515 C514 1.362 1_556 S
H516 C522 0.930 . S
H517 C525 0.930 . S
H518 C526 0.930 1_565 S
H519 C527 0.930 . S
H520 C530 0.930 . S
H521 C531 0.930 . S
C522 H516 0.930 . S
C522 C523 1.355 . S
C522 C524 1.415 . S
C523 C522 1.355 . S
C523 C525 1.419 . S
C524 C522 1.415 . S
C524 C529 1.425 . S
C524 C531 1.409 . S
C525 H517 0.930 . S
C525 C523 1.419 . S
C525 C526 1.362 . S
C526 H518 0.930 1_545 S
C526 C525 1.362 . S
C526 C529 1.409 . S
C527 H519 0.930 . S
C527 C528 1.355 . S
C527 C529 1.415 . S
C528 C527 1.355 . S
C528 C530 1.419 . S
C529 C524 1.425 . S
C529 C526 1.409 . S
C529 C527 1.415 . S
C530 H520 0.930 . S
C530 C528 1.419 . S
C530 C531 1.362 . S
C531 H521 0.930 . S
C531 C524 1.409 . S
C531 C530 1.362 . S
H532 C538 0.930 . S
H533 C541 0.930 . S
H534 C542 0.930 . S
H535 C543 0.930 . S
H536 C546 0.930 . S
H537 C547 0.930 . S
C538 H532 0.930 . S
C538 C539 1.355 . S
C538 C540 1.415 . S
C539 C538 1.355 . S
C539 C541 1.419 . S
C540 C538 1.415 . S
C540 C545 1.425 . S
C540 C547 1.409 . S
C541 H533 0.930 . S
C541 C539 1.419 . S
C541 C542 1.362 . S
C542 H534 0.930 . S
C542 C541 1.362 . S
C542 C545 1.409 . S
C543 H535 0.930 . S
C543 C544 1.355 . S
C543 C545 1.415 . S
C544 C543 1.355 . S
C544 C546 1.419 . S
C545 C540 1.425 . S
C545 C542 1.409 . S
C545 C543 1.415 . S
C546 H536 0.930 . S
C546 C544 1.419 . S
C546 C547 1.362 . S
C547 H537 0.930 . S
C547 C540 1.409 . S
C547 C546 1.362 . S
H548 C554 0.930 . S
H549 C557 0.930 . S
H550 C558 0.930 . S
H551 C559 0.930 . S
H552 C562 0.930 . S
H553 C563 0.930 . S
C554 H548 0.930 . S
C554 C555 1.355 . S
C554 C556 1.415 . S
C555 C554 1.355 . S
C555 C557 1.419 . S
C556 C554 1.415 . S
C556 C561 1.425 . S
C556 C563 1.409 . S
C557 H549 0.930 . S
C557 C555 1.419 . S
C557 C558 1.362 . S
C558 H550 0.930 . S
C558 C557 1.362 . S
C558 C561 1.409 . S
C559 H551 0.930 . S
C559 C560 1.355 . S
C559 C561 1.415 . S
C560 C559 1.355 . S
C560 C562 1.419 . S
C561 C556 1.425 . S
C561 C558 1.409 . S
C561 C559 1.415 . S
C562 H552 0.930 . S
C562 C560 1.419 . S
C562 C563 1.362 . S
C563 H553 0.930 . S
C563 C556 1.409 . S
C563 C562 1.362 . S
H564 C570 0.930 . S
H565 C573 0.930 1_554 S
H566 C574 0.930 . S
H567 C575 0.930 . S
H568 C578 0.930 . S
H569 C579 0.930 . S
C570 H564 0.930 . S
C570 C571 1.355 . S
C570 C572 1.415 . S
C571 C570 1.355 . S
C571 C573 1.419 . S
C572 C570 1.415 . S
C572 C577 1.425 . S
C572 C579 1.409 1_655 S
C573 H565 0.930 1_556 S
C573 C571 1.419 . S
C573 C574 1.362 1_556 S
C574 H566 0.930 . S
C574 C573 1.362 1_554 S
C574 C577 1.409 1_554 S
C575 H567 0.930 . S
C575 C576 1.355 1_554 S
C575 C577 1.415 1_554 S
C576 C575 1.355 1_556 S
C576 C578 1.419 1_655 S
C577 C572 1.425 . S
C577 C574 1.409 1_556 S
C577 C575 1.415 1_556 S
C578 H568 0.930 . S
C578 C576 1.419 1_455 S
C578 C579 1.362 . S
C579 H569 0.930 . S
C579 C572 1.409 1_455 S
C579 C578 1.362 . S
H580 C586 0.930 . S
H581 C589 0.930 . S
H582 C590 0.930 . S
H583 C591 0.930 . S
H584 C594 0.930 . S
H585 C595 0.930 . S
C586 H580 0.930 . S
C586 C587 1.355 . S
C586 C588 1.415 . S
C587 C586 1.355 . S
C587 C589 1.419 . S
C588 C586 1.415 . S
C588 C593 1.425 . S
C588 C595 1.409 . S
C589 H581 0.930 . S
C589 C587 1.419 . S
C589 C590 1.362 . S
C590 H582 0.930 . S
C590 C589 1.362 . S
C590 C593 1.409 . S
C591 H583 0.930 . S
C591 C592 1.355 . S
C591 C593 1.415 . S
C592 C591 1.355 . S
C592 C594 1.419 . S
C593 C588 1.425 . S
C593 C590 1.409 . S
C593 C591 1.415 . S
C594 H584 0.930 . S
C594 C592 1.419 . S
C594 C595 1.362 . S
C595 H585 0.930 . S
C595 C588 1.409 . S
C595 C594 1.362 . S
H596 C602 0.930 . S
H597 C605 0.930 . S
H598 C606 0.930 . S
H599 C607 0.930 . S
H600 C610 0.930 . S
H601 C611 0.930 . S
C602 H596 0.930 . S
C602 C603 1.355 . S
C602 C604 1.415 . S
C603 C602 1.355 . S
C603 C605 1.419 . S
C604 C602 1.415 . S
C604 C609 1.425 . S
C604 C611 1.409 . S
C605 H597 0.930 . S
C605 C603 1.419 . S
C605 C606 1.362 . S
C606 H598 0.930 . S
C606 C605 1.362 . S
C606 C609 1.409 . S
C607 H599 0.930 . S
C607 C608 1.355 . S
C607 C609 1.415 . S
C608 C607 1.355 . S
C608 C610 1.419 . S
C609 C604 1.425 . S
C609 C606 1.409 . S
C609 C607 1.415 . S
C610 H600 0.930 . S
C610 C608 1.419 . S
C610 C611 1.362 . S
C611 H601 0.930 . S
C611 C604 1.409 . S
C611 C610 1.362 . S
H612 C618 0.930 . S
H613 C621 0.930 . S
H614 C622 0.930 . S
H615 C623 0.930 . S
H616 C626 0.930 . S
H617 C627 0.930 . S
C618 H612 0.930 . S
C618 C619 1.355 . S
C618 C620 1.415 . S
C619 C618 1.355 . S
C619 C621 1.419 . S
C620 C618 1.415 . S
C620 C625 1.425 . S
C620 C627 1.409 . S
C621 H613 0.930 . S
C621 C619 1.419 . S
C621 C622 1.362 . S
C622 H614 0.930 . S
C622 C621 1.362 . S
C622 C625 1.409 . S
C623 H615 0.930 . S
C623 C624 1.355 . S
C623 C625 1.415 . S
C624 C623 1.355 . S
C624 C626 1.419 . S
C625 C620 1.425 . S
C625 C622 1.409 . S
C625 C623 1.415 . S
C626 H616 0.930 . S
C626 C624 1.419 . S
C626 C627 1.362 . S
C627 H617 0.930 . S
C627 C620 1.409 . S
C627 C626 1.362 . S
C251 C6 1.817 . S
C256 C170 1.775 . S
C267 C21 2.117 . S
C272 C194 2.035 . S
C288 C214 0.944 . S
C283 C49 0.856 . S
C299 C68 1.214 . S
C304 C237 1.301 . S
C320 C196 2.288 . S
C315 C2 2.302 . S
C336 C172 1.348 1_565 S
C331 C30 1.259 . S
C352 C240 1.429 . S
C347 C40 1.516 . S
C368 C217 1.326 . S
C363 C63 1.358 . S
C379 C11 1.329 . S
C384 C242 1.466 . S
C400 C191 1.761 . S
C395 C44 1.732 . S
C411 C59 1.259 . S
C416 C169 1.292 . S
C427 C25 1.701 . S
C432 C219 1.705 . S
C448 C173 2.057 . S
C443 C82 2.049 1_545 S
C459 C101 1.809 . S
C464 C195 1.860 . S
C475 C125 1.473 . S
C480 C215 1.568 . S
C491 C144 1.084 . S
C496 C238 1.326 . S
C507 C87 1.250 1_554 S
C512 C193 1.390 . S
C528 C171 2.089 . S
C523 C97 2.117 . S
C544 C241 1.280 . S
C539 C120 1.411 . S
C560 C218 1.398 . S
C555 C135 1.353 . S
C571 C78 2.094 . S
C576 C239 2.055 1_656 S
C592 C192 1.225 . S
C587 C116 1.223 . S
C608 C168 1.700 . S
C603 C139 1.670 . S
C619 C106 1.615 . S
C624 C216 1.731 . S
