# Generated by pormake.
# Topology anh, (6,3)-cn, num edge types: 1
# Building blocks:
#     Node 0, Type 0, BuildingBlock: VOLQOD_clean_sbu_1, # of connection points: 6
#     Node 1, Type 0, BuildingBlock: VOLQOD_clean_sbu_1, # of connection points: 6
#     Node 2, Type 0, BuildingBlock: VOLQOD_clean_sbu_1, # of connection points: 6
#     Node 3, Type 1, BuildingBlock: PAMTOO_clean_linker_0, # of connection points: 3
#     Node 4, Type 1, BuildingBlock: PAMTOO_clean_linker_0, # of connection points: 3
#     Node 5, Type 1, BuildingBlock: PAMTOO_clean_linker_0, # of connection points: 3
#     Node 6, Type 1, BuildingBlock: PAMTOO_clean_linker_0, # of connection points: 3
#     Node 7, Type 1, BuildingBlock: PAMTOO_clean_linker_0, # of connection points: 3
#     Node 8, Type 1, BuildingBlock: PAMTOO_clean_linker_0, # of connection points: 3
#     Edge 9, Type (0, 1), BuildingBlock: AJUNOK_clean_linker_0, # of connection points: 2
#     Edge 10, Type (0, 1), BuildingBlock: AJUNOK_clean_linker_0, # of connection points: 2
#     Edge 11, Type (0, 1), BuildingBlock: AJUNOK_clean_linker_0, # of connection points: 2
#     Edge 12, Type (0, 1), BuildingBlock: AJUNOK_clean_linker_0, # of connection points: 2
#     Edge 13, Type (0, 1), BuildingBlock: AJUNOK_clean_linker_0, # of connection points: 2
#     Edge 14, Type (0, 1), BuildingBlock: AJUNOK_clean_linker_0, # of connection points: 2
#     Edge 15, Type (0, 1), BuildingBlock: AJUNOK_clean_linker_0, # of connection points: 2
#     Edge 16, Type (0, 1), BuildingBlock: AJUNOK_clean_linker_0, # of connection points: 2
#     Edge 17, Type (0, 1), BuildingBlock: AJUNOK_clean_linker_0, # of connection points: 2
#     Edge 18, Type (0, 1), BuildingBlock: AJUNOK_clean_linker_0, # of connection points: 2
#     Edge 19, Type (0, 1), BuildingBlock: AJUNOK_clean_linker_0, # of connection points: 2
#     Edge 20, Type (0, 1), BuildingBlock: AJUNOK_clean_linker_0, # of connection points: 2
#     Edge 21, Type (0, 1), BuildingBlock: AJUNOK_clean_linker_0, # of connection points: 2
#     Edge 22, Type (0, 1), BuildingBlock: AJUNOK_clean_linker_0, # of connection points: 2
#     Edge 23, Type (0, 1), BuildingBlock: AJUNOK_clean_linker_0, # of connection points: 2
#     Edge 24, Type (0, 1), BuildingBlock: AJUNOK_clean_linker_0, # of connection points: 2
#     Edge 25, Type (0, 1), BuildingBlock: AJUNOK_clean_linker_0, # of connection points: 2
#     Edge 26, Type (0, 1), BuildingBlock: AJUNOK_clean_linker_0, # of connection points: 2
# Relax obj value: 0.161
# Max RMSD: 0.219
# Mean RMSD: 0.134
data_MOF--net-anh--node1-VOLQOD_clean_sbu_1--node2-PAMTOO_clean_linker_0--edge1-AJUNOK_clean_linker_0
_symmetry_space_group_name_H-M    P1
_symmetry_Int_Tables_number       1
_symmetry_cell_setting            triclinic
loop_
_symmetry_equiv_pos_as_xyz
'x, y, z'
_cell_length_a     22.139515
_cell_length_b     21.988471
_cell_length_c     41.595276
_cell_angle_alpha  84.452262
_cell_angle_beta   92.458185
_cell_angle_gamma 120.571
loop_
_atom_site_label
_atom_site_type_symbol
_atom_site_fract_x
_atom_site_fract_y
_atom_site_fract_z
_atom_type_partial_charge
O0 O 0.09436 0.56591 0.23469 0.0
Zn1 Zn 0.09809 0.59225 0.18653 0.0
O2 O 0.10576 0.52372 0.16278 0.0
Zn3 Zn 0.02398 0.47244 0.1362 0.0
Zn4 Zn 0.11358 0.45551 0.19364 0.0
Zn5 Zn 0.1864 0.57249 0.13401 0.0
O6 O 0.04732 0.48474 0.08893 0.0
O7 O 0.15926 0.56923 0.08685 0.0
O8 O 0.01026 0.5959 0.17401 0.0
O9 O 0.96075 0.51032 0.1405 0.0
O10 O 0.96445 0.36992 0.15212 0.0
O11 O 0.02133 0.36329 0.19632 0.0
O12 O 0.19328 0.44177 0.18149 0.0
O13 O 0.18445 0.68917 0.17892 0.0
O14 O 0.24174 0.52349 0.13996 0.0
O15 O 0.24829 0.6741 0.14426 0.0
C16 C 0.1107 0.52526 0.25191 0.0
C17 C 0.10246 0.52842 0.0727 0.0
C18 C 0.96831 0.33611 0.17791 0.0
C19 C 0.9603 0.55756 0.15562 0.0
C20 C 0.23921 0.47332 0.15902 0.0
C21 C 0.24027 0.71329 0.16223 0.0
O22 O 0.12631 0.48486 0.23892 0.0
O23 O 0.55421 0.06171 0.42476 0.0
Zn24 Zn 0.52201 0.05775 0.47045 0.0
O25 O 0.58327 0.04424 0.50208 0.0
Zn26 Zn 0.63105 0.12324 0.5282 0.0
Zn27 Zn 0.65375 0.03418 0.48051 0.0
Zn28 Zn 0.52754 0.96228 0.53139 0.0
O29 O 0.6287 0.09285 0.57575 0.0
O30 O 0.53532 0.98488 0.57747 0.0
O31 O 0.51792 0.14598 0.47875 0.0
O32 O 0.58317 0.17897 0.52299 0.0
O33 O 0.73004 0.18886 0.51253 0.0
O34 O 0.74859 0.12462 0.48072 0.0
O35 O 0.65851 0.94798 0.49976 0.0
O36 O 0.42333 0.97183 0.47403 0.0
O37 O 0.56457 0.89729 0.53166 0.0
O38 O 0.42737 0.90799 0.51782 0.0
C39 C 0.59343 0.0407 0.41436 0.0
C40 C 0.58287 0.03669 0.59179 0.0
C41 C 0.7699 0.18229 0.49374 0.0
C42 C 0.54268 0.1855 0.50213 0.0
C43 C 0.61615 0.89709 0.51951 0.0
C44 C 0.3937 0.9171 0.49413 0.0
O45 O 0.62949 0.02343 0.43369 0.0
O46 O 0.56077 0.48293 0.76153 0.0
Zn47 Zn 0.53556 0.45429 0.80894 0.0
O48 O 0.6114 0.52087 0.83571 0.0
Zn49 Zn 0.5767 0.56433 0.8623 0.0
Zn50 Zn 0.68854 0.59541 0.8084 0.0
Zn51 Zn 0.64475 0.47002 0.86469 0.0
O52 O 0.59991 0.55811 0.90928 0.0
O53 O 0.63566 0.48037 0.91164 0.0
O54 O 0.44306 0.44852 0.81843 0.0
O55 O 0.47283 0.51639 0.85929 0.0
O56 O 0.61254 0.66561 0.84622 0.0
O57 O 0.69189 0.68928 0.80893 0.0
O58 O 0.78234 0.60504 0.82195 0.0
O59 O 0.52311 0.35615 0.81712 0.0
O60 O 0.74617 0.50894 0.85648 0.0
O61 O 0.59698 0.36754 0.85695 0.0
C62 C 0.61757 0.52787 0.74665 0.0
C63 C 0.62017 0.51979 0.92557 0.0
C64 C 0.65747 0.70838 0.82496 0.0
C65 C 0.4269 0.47455 0.84042 0.0
C66 C 0.79452 0.56272 0.84038 0.0
C67 C 0.55099 0.32983 0.83697 0.0
O68 O 0.67114 0.57161 0.76191 0.0
H69 H 0.72987 0.12734 0.27884 0.0
H70 H 0.51611 0.96535 0.26432 0.0
H71 H 0.65317 0.07477 0.18256 0.0
H72 H 0.50372 0.02639 0.16539 0.0
C73 C 0.48007 0.98933 0.18735 0.0
O74 O 0.52807 0.97285 0.20147 0.0
H75 H 0.46548 0.0163 0.2042 0.0
C76 C 0.68775 0.09665 0.2626 0.0
C77 C 0.69966 0.109 0.22907 0.0
C78 C 0.62168 0.04587 0.27553 0.0
C79 C 0.56728 0.0053 0.25467 0.0
C80 C 0.57928 0.01508 0.22126 0.0
C81 C 0.64513 0.0669 0.20849 0.0
H82 H 0.64974 0.66979 0.61099 0.0
H83 H 0.60421 0.46108 0.59297 0.0
H84 H 0.61318 0.60647 0.51403 0.0
H85 H 0.5117 0.45812 0.4992 0.0
C86 C 0.52488 0.43386 0.521 0.0
O87 O 0.59283 0.47991 0.53014 0.0
H88 H 0.48678 0.42364 0.54039 0.0
C89 C 0.63963 0.63086 0.59421 0.0
C90 C 0.63408 0.64683 0.56111 0.0
C91 C 0.62832 0.56397 0.60613 0.0
C92 C 0.61314 0.5131 0.5843 0.0
C93 C 0.60867 0.52912 0.55109 0.0
C94 C 0.61946 0.59585 0.53956 0.0
H95 H 0.01908 0.57978 0.92864 0.0
H96 H 0.17913 0.52384 0.92621 0.0
H97 H 0.0861 0.55379 0.83796 0.0
H98 H 0.12427 0.44196 0.83478 0.0
C99 C 0.15816 0.45535 0.85649 0.0
O100 O 0.17873 0.5235 0.86321 0.0
H101 H 0.12692 0.41637 0.87692 0.0
C102 C 0.05319 0.56937 0.91513 0.0
C103 C 0.0479 0.57018 0.88136 0.0
C104 C 0.09956 0.55166 0.93169 0.0
C105 C 0.14313 0.5378 0.91391 0.0
C106 C 0.13819 0.53877 0.88016 0.0
C107 C 0.09059 0.5547 0.86398 0.0
H108 H -0.00478 0.40076 0.39356 0.0
H109 H 0.16055 0.61775 0.39731 0.0
H110 H 0.04851 0.49703 0.48383 0.0
H111 H 0.08639 0.65029 0.48133 0.0
C112 C 0.12796 0.67089 0.46248 0.0
O113 O 0.14683 0.62091 0.45903 0.0
H114 H 0.1062 0.68193 0.43947 0.0
C115 C 0.02822 0.44537 0.40745 0.0
C116 C 0.01635 0.43987 0.44085 0.0
C117 C 0.08053 0.50901 0.39152 0.0
C118 C 0.12011 0.56816 0.40918 0.0
C119 C 0.10797 0.56375 0.44228 0.0
C120 C 0.05671 0.49978 0.45811 0.0
H121 H 0.63892 0.93121 0.72994 0.0
H122 H 0.58781 0.09249 0.74102 0.0
H123 H 0.63154 0.99134 0.82465 0.0
H124 H 0.5178 0.02418 0.83732 0.0
C125 C 0.52914 0.06183 0.81549 0.0
O126 O 0.59551 0.08449 0.80399 0.0
H127 H 0.48867 0.03317 0.79714 0.0
C128 C 0.63192 0.96427 0.74532 0.0
C129 C 0.63924 0.95611 0.77894 0.0
C130 C 0.61333 0.01321 0.7314 0.0
C131 C 0.6028 0.05493 0.75135 0.0
C132 C 0.60861 0.04623 0.78489 0.0
C133 C 0.62722 0.99742 0.79863 0.0
H134 H 0.7485 0.55971 0.06771 0.0
H135 H 0.53259 0.5055 0.07135 0.0
H136 H 0.64906 0.53077 0.15911 0.0
H137 H 0.49292 0.41859 0.16816 0.0
C138 C 0.47681 0.43502 0.14479 0.0
O139 O 0.5281 0.50303 0.1343 0.0
H140 H 0.46938 0.39676 0.12715 0.0
C141 C 0.70277 0.54824 0.08142 0.0
C142 C 0.70641 0.54755 0.11521 0.0
C143 C 0.63995 0.53191 0.06533 0.0
C144 C 0.58137 0.51784 0.08337 0.0
C145 C 0.58478 0.51724 0.1171 0.0
C146 C 0.64709 0.53192 0.13299 0.0
C147 C 0.32462 0.43898 0.18242 0.0
C148 C 0.29278 0.45363 0.15518 0.0
C149 C 0.38256 0.43033 0.17903 0.0
C150 C 0.4092 0.4344 0.14828 0.0
H151 H 0.30696 0.43777 0.20649 0.0
H152 H 0.4079 0.42251 0.20058 0.0
S153 S 0.33933 0.46364 0.06945 0.0
N154 N 0.28879 0.46678 0.09653 0.0
N155 N 0.39629 0.44852 0.09025 0.0
C156 C 0.37533 0.44515 0.12093 0.0
C157 C 0.31738 0.45519 0.12434 0.0
C158 C 0.85267 0.31354 0.49066 0.0
C159 C 0.83842 0.246 0.48367 0.0
C160 C 0.91147 0.37564 0.47762 0.0
C161 C 0.95887 0.37302 0.45716 0.0
H162 H 0.81657 0.31896 0.50524 0.0
H163 H 0.91815 0.42618 0.48257 0.0
S164 S 0.95184 0.21005 0.43495 0.0
N165 N 0.8808 0.18049 0.45728 0.0
N166 N 0.99208 0.29738 0.43334 0.0
C167 C 0.94767 0.30599 0.45142 0.0
C168 C 0.88745 0.24255 0.46456 0.0
C169 C 0.61426 0.79242 0.82983 0.0
C170 C 0.66251 0.77807 0.81623 0.0
C171 C 0.60942 0.85186 0.81862 0.0
C172 C 0.65281 0.89977 0.79344 0.0
H173 H 0.57744 0.75581 0.84837 0.0
H174 H 0.56896 0.85836 0.82873 0.0
S175 S 0.79554 0.89361 0.75303 0.0
N176 N 0.75994 0.82161 0.77848 0.0
N177 N 0.75129 0.93404 0.75782 0.0
C178 C 0.70441 0.88893 0.78104 0.0
C179 C 0.70926 0.82809 0.79237 0.0
C180 C 0.89885 0.62041 0.13352 0.0
C181 C 0.89733 0.56341 0.15257 0.0
C182 C 0.83621 0.617 0.12301 0.0
C183 C 0.77068 0.55686 0.1316 0.0
H184 H 0.94843 0.66543 0.12488 0.0
H185 H 0.839 0.66003 0.10681 0.0
S186 S 0.73991 0.39621 0.18304 0.0
N187 N 0.82614 0.44733 0.18108 0.0
N188 N 0.70836 0.4412 0.16178 0.0
C189 C 0.76884 0.50167 0.15235 0.0
C190 C 0.83238 0.50486 0.16269 0.0
C191 C 0.29325 0.85436 0.4566 0.0
C192 C 0.32147 0.85889 0.48789 0.0
C193 C 0.22986 0.79466 0.44878 0.0
C194 C 0.19169 0.73783 0.47207 0.0
H195 H 0.32176 0.89575 0.43755 0.0
H196 H 0.21148 0.79215 0.42411 0.0
S197 S 0.23925 0.72487 0.5579 0.0
N198 N 0.30367 0.80222 0.54274 0.0
N199 N 0.18458 0.69047 0.5278 0.0
C200 C 0.21776 0.74257 0.50363 0.0
C201 C 0.28243 0.80305 0.51163 0.0
C202 C 0.50635 0.22323 0.80582 0.0
C203 C 0.53625 0.25666 0.83427 0.0
C204 C 0.50189 0.15912 0.80041 0.0
C205 C 0.52598 0.12542 0.82348 0.0
H206 H 0.48916 0.24825 0.78684 0.0
H207 H 0.48132 0.13678 0.77761 0.0
S208 S 0.6039 0.18734 0.90285 0.0
N209 N 0.58675 0.24844 0.88662 0.0
N210 N 0.57813 0.12802 0.87619 0.0
C211 C 0.55353 0.1566 0.85247 0.0
C212 C 0.55843 0.22199 0.85799 0.0
C213 C 0.58708 0.78995 0.55645 0.0
C214 C 0.62565 0.83599 0.5296 0.0
C215 C 0.59115 0.72984 0.56641 0.0
C216 C 0.63409 0.71289 0.55008 0.0
H217 H 0.5527 0.79987 0.57 0.0
H218 H 0.55917 0.69552 0.5868 0.0
S219 S 0.7478 0.81625 0.47907 0.0
N220 N 0.70961 0.861 0.48715 0.0
N221 N 0.7176 0.7473 0.50629 0.0
C222 C 0.67378 0.75846 0.52344 0.0
C223 C 0.66974 0.82031 0.5132 0.0
C224 C 0.87721 0.51897 0.83868 0.0
C225 C 0.86583 0.57452 0.84394 0.0
C226 C 0.93914 0.52074 0.84874 0.0
C227 C 0.99095 0.57742 0.86507 0.0
H228 H 0.83645 0.47223 0.82809 0.0
H229 H 0.9444 0.47527 0.84564 0.0
S230 S 0.98821 0.73806 0.88265 0.0
N231 N 0.91291 0.68989 0.86433 0.0
N232 N 0.02925 0.69266 0.88406 0.0
C233 C 0.98173 0.63497 0.86904 0.0
C234 C 0.91909 0.63371 0.85822 0.0
C235 C 0.29843 0.8228 0.19204 0.0
C236 C 0.29909 0.78654 0.166 0.0
C237 C 0.35603 0.88887 0.19828 0.0
C238 C 0.41609 0.92188 0.17844 0.0
H239 H 0.25402 0.79905 0.20848 0.0
H240 H 0.3541 0.91368 0.21918 0.0
S241 S 0.44413 0.85215 0.10642 0.0
N242 N 0.36496 0.79066 0.11956 0.0
N243 N 0.47283 0.91505 0.13144 0.0
C244 C 0.41707 0.88745 0.15193 0.0
C245 C 0.35866 0.81992 0.14561 0.0
C246 C 0.52511 0.26117 0.53675 0.0
C247 C 0.52695 0.24228 0.50556 0.0
C248 C 0.52108 0.32115 0.5413 0.0
C249 C 0.51909 0.3648 0.51486 0.0
H250 H 0.52882 0.23038 0.55791 0.0
H251 H 0.52204 0.33499 0.5657 0.0
S252 S 0.52015 0.3377 0.42828 0.0
N253 N 0.52372 0.2705 0.4478 0.0
N254 N 0.51719 0.3844 0.45636 0.0
C255 C 0.51865 0.34555 0.48352 0.0
C256 C 0.52199 0.28376 0.47887 0.0
C257 C 0.33073 0.46156 0.87448 0.0
C258 C 0.35426 0.45945 0.84392 0.0
C259 C 0.26612 0.45711 0.8783 0.0
C260 C 0.22276 0.45093 0.8517 0.0
H261 H 0.36329 0.4684 0.89559 0.0
H262 H 0.25086 0.46084 0.90211 0.0
S263 S 0.25888 0.44111 0.76667 0.0
N264 N 0.32798 0.44833 0.7867 0.0
N265 N 0.20659 0.44107 0.79385 0.0
C266 C 0.24452 0.44678 0.82111 0.0
C267 C 0.31018 0.45049 0.81725 0.0
C268 C 0.86852 0.21027 0.17895 0.0
C269 C 0.90239 0.27657 0.19164 0.0
C270 C 0.80278 0.15593 0.19114 0.0
C271 C 0.7686 0.16698 0.21588 0.0
H272 H 0.89295 0.20044 0.15966 0.0
H273 H 0.7788 0.10489 0.1813 0.0
S274 S 0.83306 0.33548 0.25376 0.0
N275 N 0.89619 0.35233 0.22844 0.0
N276 N 0.77171 0.25221 0.25021 0.0
C277 C 0.80157 0.2343 0.2278 0.0
C278 C 0.86869 0.28861 0.21593 0.0
C279 C 0.16299 0.57366 0.01858 0.0
C280 C 0.10044 0.53239 0.03674 0.0
C281 C 0.16252 0.57905 0.98466 0.0
C282 C 0.09948 0.54397 0.96757 0.0
H283 H 0.21292 0.6022 0.03059 0.0
H284 H 0.21177 0.61182 0.97172 0.0
S285 S 0.92159 0.4268 0.00305 0.0
N286 N 0.97362 0.45422 0.03455 0.0
N287 N 0.97331 0.46417 0.97103 0.0
C288 C 0.03673 0.50183 0.98527 0.0
C289 C 0.03708 0.49606 0.01975 0.0
C290 C 0.55397 0.04891 0.35728 0.0
C291 C 0.5984 0.03723 0.37906 0.0
C292 C 0.55965 0.04859 0.32381 0.0
C293 C 0.61029 0.03715 0.31089 0.0
H294 H 0.51501 0.0593 0.36606 0.0
H295 H 0.52579 0.05972 0.30787 0.0
S296 S 0.73625 0.99922 0.35681 0.0
N297 N 0.69271 0.0102 0.38473 0.0
N298 N 0.70287 0.01003 0.32197 0.0
C299 C 0.65357 0.02339 0.3322 0.0
C300 C 0.64775 0.02329 0.36622 0.0
C301 C 0.68062 0.58705 0.69406 0.0
C302 C 0.62129 0.53128 0.71077 0.0
C303 C 0.6838 0.59514 0.66024 0.0
C304 C 0.62813 0.54756 0.64163 0.0
H305 H 0.72445 0.62622 0.70711 0.0
H306 H 0.7296 0.64015 0.64851 0.0
S307 S 0.46263 0.39007 0.67296 0.0
N308 N 0.50677 0.42527 0.70568 0.0
N309 N 0.51304 0.44124 0.6421 0.0
C310 C 0.5697 0.48998 0.65781 0.0
C311 C 0.56616 0.48173 0.69234 0.0
C312 C 0.63178 0.09006 0.64421 0.0
C313 C 0.58691 0.03007 0.62761 0.0
C314 C 0.63909 0.08454 0.67786 0.0
C315 C 0.60249 0.01874 0.69611 0.0
H316 H 0.66196 0.14174 0.63112 0.0
H317 H 0.6748 0.13181 0.68962 0.0
S318 S 0.476 0.84607 0.66512 0.0
N319 N 0.5034 0.9028 0.63264 0.0
N320 N 0.5175 0.89309 0.69574 0.0
C321 C 0.55655 0.95865 0.68008 0.0
C322 C 0.54861 0.96415 0.6459 0.0
C323 C 0.60314 0.56079 0.97686 0.0
C324 C 0.62557 0.52138 0.9613 0.0
C325 C 0.60756 0.56358 0.01045 0.0
C326 C 0.63503 0.52755 0.02984 0.0
H327 H 0.58186 0.58986 0.96305 0.0
H328 H 0.59012 0.59495 0.0213 0.0
S329 S 0.69863 0.41463 0.00177 0.0
N330 N 0.67509 0.44414 0.96842 0.0
N331 N 0.68258 0.44911 0.0315 0.0
C332 C 0.65709 0.48745 0.01481 0.0
C333 C 0.65251 0.4844 0.9806 0.0
C334 C 0.09999 0.57321 0.30237 0.0
C335 C 0.10777 0.52234 0.28774 0.0
C336 C 0.09271 0.56937 0.33595 0.0
C337 C 0.09224 0.51417 0.35624 0.0
H338 H 0.09876 0.61611 0.28778 0.0
H339 H 0.08564 0.60898 0.34603 0.0
S340 S 0.11425 0.36948 0.33084 0.0
N341 N 0.117 0.41612 0.29678 0.0
N342 N 0.10343 0.40948 0.35979 0.0
C343 C 0.10137 0.46379 0.34219 0.0
C344 C 0.10923 0.4678 0.30801 0.0
loop_
_geom_bond_atom_site_label_1
_geom_bond_atom_site_label_2
_geom_bond_distance
_geom_bond_site_symmetry_2
_ccdc_geom_bond_type
O0 Zn1 1.953 . S
O0 C16 1.225 . S
Zn1 O0 1.953 . S
Zn1 O2 1.949 . S
Zn1 O8 1.919 1_455 S
Zn1 O13 1.924 . S
O2 Zn1 1.949 . S
O2 Zn3 1.923 1_455 S
O2 Zn4 1.950 . S
O2 Zn5 1.945 . S
Zn3 O2 1.923 1_655 S
Zn3 O6 1.933 . S
Zn3 O9 1.941 . S
Zn3 O10 1.965 . S
Zn4 O2 1.950 . S
Zn4 O11 1.938 1_455 S
Zn4 O12 1.906 . S
Zn4 O22 1.953 . S
Zn5 O2 1.945 . S
Zn5 O7 1.932 . S
Zn5 O14 1.977 . S
Zn5 O15 1.910 . S
O6 Zn3 1.933 . S
O6 C17 1.226 1_655 S
O7 Zn5 1.932 . S
O7 C17 1.307 . S
O8 Zn1 1.919 1_655 S
O8 C19 1.253 . S
O9 Zn3 1.941 . S
O9 C19 1.283 . S
O10 Zn3 1.965 . S
O10 C18 1.303 . S
O11 Zn4 1.938 1_655 S
O11 C18 1.247 . S
O12 Zn4 1.906 . S
O12 C20 1.304 . S
O13 Zn1 1.924 . S
O13 C21 1.311 . S
O14 Zn5 1.977 . S
O14 C20 1.272 . S
O15 Zn5 1.910 . S
O15 C21 1.231 . S
C16 O0 1.225 . S
C16 O22 1.298 . S
C17 O6 1.226 1_455 S
C17 O7 1.307 . S
C18 O10 1.303 . S
C18 O11 1.247 . S
C19 O8 1.253 . S
C19 O9 1.283 . S
C20 O12 1.304 . S
C20 O14 1.272 . S
C21 O13 1.311 . S
C21 O15 1.231 . S
O22 Zn4 1.953 . S
O22 C16 1.298 . S
O23 Zn24 1.953 . S
O23 C39 1.225 . S
Zn24 O23 1.953 . S
Zn24 O25 1.949 . S
Zn24 O31 1.919 . S
Zn24 O36 1.924 1_545 S
O25 Zn24 1.949 . S
O25 Zn26 1.923 . S
O25 Zn27 1.950 . S
O25 Zn28 1.945 1_545 S
Zn26 O25 1.923 . S
Zn26 O29 1.933 . S
Zn26 O32 1.941 . S
Zn26 O33 1.965 . S
Zn27 O25 1.950 . S
Zn27 O34 1.938 . S
Zn27 O35 1.906 1_545 S
Zn27 O45 1.953 . S
Zn28 O25 1.945 1_565 S
Zn28 O30 1.932 . S
Zn28 O37 1.977 . S
Zn28 O38 1.910 . S
O29 Zn26 1.933 . S
O29 C40 1.226 . S
O30 Zn28 1.932 . S
O30 C40 1.307 1_565 S
O31 Zn24 1.919 . S
O31 C42 1.253 . S
O32 Zn26 1.941 . S
O32 C42 1.283 . S
O33 Zn26 1.965 . S
O33 C41 1.303 . S
O34 Zn27 1.938 . S
O34 C41 1.247 . S
O35 Zn27 1.906 1_565 S
O35 C43 1.304 . S
O36 Zn24 1.924 1_565 S
O36 C44 1.311 . S
O37 Zn28 1.977 . S
O37 C43 1.272 . S
O38 Zn28 1.910 . S
O38 C44 1.231 . S
C39 O23 1.225 . S
C39 O45 1.298 . S
C40 O29 1.226 . S
C40 O30 1.307 1_545 S
C41 O33 1.303 . S
C41 O34 1.247 . S
C42 O31 1.253 . S
C42 O32 1.283 . S
C43 O35 1.304 . S
C43 O37 1.272 . S
C44 O36 1.311 . S
C44 O38 1.231 . S
O45 Zn27 1.953 . S
O45 C39 1.298 . S
O46 Zn47 1.953 . S
O46 C62 1.225 . S
Zn47 O46 1.953 . S
Zn47 O48 1.949 . S
Zn47 O54 1.919 . S
Zn47 O59 1.924 . S
O48 Zn47 1.949 . S
O48 Zn49 1.923 . S
O48 Zn50 1.950 . S
O48 Zn51 1.945 . S
Zn49 O48 1.923 . S
Zn49 O52 1.933 . S
Zn49 O55 1.941 . S
Zn49 O56 1.965 . S
Zn50 O48 1.950 . S
Zn50 O57 1.938 . S
Zn50 O58 1.906 . S
Zn50 O68 1.953 . S
Zn51 O48 1.945 . S
Zn51 O53 1.932 . S
Zn51 O60 1.977 . S
Zn51 O61 1.910 . S
O52 Zn49 1.933 . S
O52 C63 1.226 . S
O53 Zn51 1.932 . S
O53 C63 1.307 . S
O54 Zn47 1.919 . S
O54 C65 1.253 . S
O55 Zn49 1.941 . S
O55 C65 1.283 . S
O56 Zn49 1.965 . S
O56 C64 1.303 . S
O57 Zn50 1.938 . S
O57 C64 1.247 . S
O58 Zn50 1.906 . S
O58 C66 1.304 . S
O59 Zn47 1.924 . S
O59 C67 1.311 . S
O60 Zn51 1.977 . S
O60 C66 1.272 . S
O61 Zn51 1.910 . S
O61 C67 1.231 . S
C62 O46 1.225 . S
C62 O68 1.298 . S
C63 O52 1.226 . S
C63 O53 1.307 . S
C64 O56 1.303 . S
C64 O57 1.247 . S
C65 O54 1.253 . S
C65 O55 1.283 . S
C66 O58 1.304 . S
C66 O60 1.272 . S
C67 O59 1.311 . S
C67 O61 1.231 . S
O68 Zn50 1.953 . S
O68 C62 1.298 . S
H69 C76 0.929 . S
H70 C79 0.930 . S
H71 C81 0.929 . S
H72 C73 0.969 . S
C73 H72 0.969 . S
C73 O74 1.550 . S
C73 H75 0.973 . S
O74 C73 1.550 . S
O74 C80 1.412 1_565 S
H75 C73 0.973 . S
C76 H69 0.929 . S
C76 C77 1.400 . S
C76 C78 1.364 . S
C77 C76 1.400 . S
C77 C81 1.377 . S
C78 C76 1.364 . S
C78 C79 1.374 1_545 S
C79 H70 0.930 . S
C79 C78 1.374 1_565 S
C79 C80 1.383 1_565 S
C80 O74 1.412 1_545 S
C80 C79 1.383 1_545 S
C80 C81 1.394 . S
C81 H71 0.929 . S
C81 C77 1.377 . S
C81 C80 1.394 . S
H82 C89 0.929 . S
H83 C92 0.930 . S
H84 C94 0.929 . S
H85 C86 0.969 . S
C86 H85 0.969 . S
C86 O87 1.550 . S
C86 H88 0.973 . S
O87 C86 1.550 . S
O87 C93 1.412 . S
H88 C86 0.973 . S
C89 H82 0.929 . S
C89 C90 1.400 . S
C89 C91 1.364 . S
C90 C89 1.400 . S
C90 C94 1.377 . S
C91 C89 1.364 . S
C91 C92 1.374 . S
C92 H83 0.930 . S
C92 C91 1.374 . S
C92 C93 1.383 . S
C93 O87 1.412 . S
C93 C92 1.383 . S
C93 C94 1.394 . S
C94 H84 0.929 . S
C94 C90 1.377 . S
C94 C93 1.394 . S
H95 C102 0.912 1_655 S
H96 C105 0.930 . S
H97 C107 0.929 . S
H98 C99 0.969 . S
C99 H98 0.969 . S
C99 O100 1.550 . S
C99 H101 0.973 . S
O100 C99 1.550 . S
O100 C106 1.412 . S
H101 C99 0.973 . S
C102 H95 0.912 1_455 S
C102 C103 1.400 . S
C102 C104 1.364 . S
C103 C102 1.400 . S
C103 C107 1.377 . S
C104 C102 1.364 . S
C104 C105 1.374 . S
C105 H96 0.930 . S
C105 C104 1.374 . S
C105 C106 1.383 . S
C106 O100 1.412 . S
C106 C105 1.383 . S
C106 C107 1.394 . S
C107 H97 0.929 . S
C107 C103 1.377 . S
C107 C106 1.394 . S
H108 C115 0.929 1_655 S
H109 C118 0.930 . S
H110 C120 0.929 . S
H111 C112 0.969 . S
C112 H111 0.969 . S
C112 O113 1.550 . S
C112 H114 0.973 . S
O113 C112 1.550 . S
O113 C119 1.412 . S
H114 C112 0.973 . S
C115 H108 0.929 1_455 S
C115 C116 1.400 . S
C115 C117 1.364 . S
C116 C115 1.400 . S
C116 C120 1.377 . S
C117 C115 1.364 . S
C117 C118 1.374 . S
C118 H109 0.930 . S
C118 C117 1.374 . S
C118 C119 1.383 . S
C119 O113 1.412 . S
C119 C118 1.383 . S
C119 C120 1.394 . S
C120 H110 0.929 . S
C120 C116 1.377 . S
C120 C119 1.394 . S
H121 C128 0.929 . S
H122 C131 0.930 . S
H123 C133 0.928 1_565 S
H124 C125 0.969 . S
C125 H124 0.969 . S
C125 O126 1.550 . S
C125 H127 0.973 . S
O126 C125 1.550 . S
O126 C132 1.412 . S
H127 C125 0.973 . S
C128 H121 0.929 . S
C128 C129 1.400 . S
C128 C130 1.364 1_565 S
C129 C128 1.400 . S
C129 C133 1.364 1_565 S
C130 C128 1.364 1_545 S
C130 C131 1.374 . S
C131 H122 0.930 . S
C131 C130 1.374 . S
C131 C132 1.383 . S
C132 O126 1.412 . S
C132 C131 1.383 . S
C132 C133 1.408 . S
C133 H123 0.928 1_545 S
C133 C129 1.364 1_545 S
C133 C132 1.408 . S
H134 C141 0.929 . S
H135 C144 0.930 . S
H136 C146 0.929 . S
H137 C138 0.969 . S
C138 H137 0.969 . S
C138 O139 1.550 . S
C138 H140 0.973 . S
O139 C138 1.550 . S
O139 C145 1.412 . S
H140 C138 0.973 . S
C141 H134 0.929 . S
C141 C142 1.400 . S
C141 C143 1.364 . S
C142 C141 1.400 . S
C142 C146 1.377 . S
C143 C141 1.364 . S
C143 C144 1.374 . S
C144 H135 0.930 . S
C144 C143 1.374 . S
C144 C145 1.383 . S
C145 O139 1.412 . S
C145 C144 1.383 . S
C145 C146 1.394 . S
C146 H136 0.929 . S
C146 C142 1.377 . S
C146 C145 1.394 . S
C147 C148 1.369 . S
C147 C149 1.419 . S
C147 H151 0.930 . S
C148 C147 1.369 . S
C148 C157 1.429 . S
C149 C147 1.419 . S
C149 C150 1.363 . S
C149 H152 0.929 . S
C150 C149 1.363 . S
C150 C156 1.428 . S
H151 C147 0.930 . S
H152 C149 0.929 . S
S153 N154 1.613 . S
S153 N155 1.610 . S
N154 S153 1.613 . S
N154 C157 1.350 . S
N155 S153 1.610 . S
N155 C156 1.351 . S
C156 C150 1.428 . S
C156 N155 1.351 . S
C156 C157 1.434 . S
C157 C148 1.429 . S
C157 N154 1.350 . S
C157 C156 1.434 . S
C158 C159 1.369 . S
C158 C160 1.419 . S
C158 H162 0.930 . S
C159 C158 1.369 . S
C159 C168 1.429 . S
C160 C158 1.419 . S
C160 C161 1.363 . S
C160 H163 0.929 . S
C161 C160 1.363 . S
C161 C167 1.428 . S
H162 C158 0.930 . S
H163 C160 0.929 . S
S164 N165 1.613 1_455 S
S164 N166 1.610 . S
N165 S164 1.613 1_655 S
N165 C168 1.350 . S
N166 S164 1.610 . S
N166 C167 1.351 1_455 S
C167 C161 1.428 . S
C167 N166 1.351 1_655 S
C167 C168 1.434 . S
C168 C159 1.429 . S
C168 N165 1.350 . S
C168 C167 1.434 . S
C169 C170 1.369 . S
C169 C171 1.419 . S
C169 H173 0.930 . S
C170 C169 1.369 . S
C170 C179 1.429 . S
C171 C169 1.419 . S
C171 C172 1.363 . S
C171 H174 0.929 . S
C172 C171 1.363 . S
C172 C178 1.428 . S
H173 C169 0.930 . S
H174 C171 0.929 . S
S175 N176 1.613 . S
S175 N177 1.610 . S
N176 S175 1.613 . S
N176 C179 1.350 . S
N177 S175 1.610 . S
N177 C178 1.351 . S
C178 C172 1.428 . S
C178 N177 1.351 . S
C178 C179 1.434 . S
C179 C170 1.429 . S
C179 N176 1.350 . S
C179 C178 1.434 . S
C180 C181 1.369 . S
C180 C182 1.419 . S
C180 H184 0.930 . S
C181 C180 1.369 . S
C181 C190 1.429 . S
C182 C180 1.419 . S
C182 C183 1.363 . S
C182 H185 0.929 . S
C183 C182 1.363 . S
C183 C189 1.428 . S
H184 C180 0.930 . S
H185 C182 0.929 . S
S186 N187 1.613 . S
S186 N188 1.610 . S
N187 S186 1.613 . S
N187 C190 1.350 . S
N188 S186 1.610 . S
N188 C189 1.351 . S
C189 C183 1.428 . S
C189 N188 1.351 . S
C189 C190 1.434 . S
C190 C181 1.429 . S
C190 N187 1.350 . S
C190 C189 1.434 . S
C191 C192 1.369 . S
C191 C193 1.419 . S
C191 H195 0.930 . S
C192 C191 1.369 . S
C192 C201 1.429 . S
C193 C191 1.419 . S
C193 C194 1.363 . S
C193 H196 0.929 . S
C194 C193 1.363 . S
C194 C200 1.428 . S
H195 C191 0.930 . S
H196 C193 0.929 . S
S197 N198 1.613 . S
S197 N199 1.610 . S
N198 S197 1.613 . S
N198 C201 1.350 . S
N199 S197 1.610 . S
N199 C200 1.351 . S
C200 C194 1.428 . S
C200 N199 1.351 . S
C200 C201 1.434 . S
C201 C192 1.429 . S
C201 N198 1.350 . S
C201 C200 1.434 . S
C202 C203 1.369 . S
C202 C204 1.419 . S
C202 H206 0.930 . S
C203 C202 1.369 . S
C203 C212 1.429 . S
C204 C202 1.419 . S
C204 C205 1.363 . S
C204 H207 0.929 . S
C205 C204 1.363 . S
C205 C211 1.428 . S
H206 C202 0.930 . S
H207 C204 0.929 . S
S208 N209 1.613 . S
S208 N210 1.610 . S
N209 S208 1.613 . S
N209 C212 1.350 . S
N210 S208 1.610 . S
N210 C211 1.351 . S
C211 C205 1.428 . S
C211 N210 1.351 . S
C211 C212 1.434 . S
C212 C203 1.429 . S
C212 N209 1.350 . S
C212 C211 1.434 . S
C213 C214 1.369 . S
C213 C215 1.419 . S
C213 H217 0.930 . S
C214 C213 1.369 . S
C214 C223 1.429 . S
C215 C213 1.419 . S
C215 C216 1.363 . S
C215 H218 0.929 . S
C216 C215 1.363 . S
C216 C222 1.428 . S
H217 C213 0.930 . S
H218 C215 0.929 . S
S219 N220 1.613 . S
S219 N221 1.610 . S
N220 S219 1.613 . S
N220 C223 1.350 . S
N221 S219 1.610 . S
N221 C222 1.351 . S
C222 C216 1.428 . S
C222 N221 1.351 . S
C222 C223 1.434 . S
C223 C214 1.429 . S
C223 N220 1.350 . S
C223 C222 1.434 . S
C224 C225 1.369 . S
C224 C226 1.419 . S
C224 H228 0.930 . S
C225 C224 1.369 . S
C225 C234 1.429 . S
C226 C224 1.419 . S
C226 C227 1.363 . S
C226 H229 0.929 . S
C227 C226 1.363 . S
C227 C233 1.428 . S
H228 C224 0.930 . S
H229 C226 0.929 . S
S230 N231 1.613 1_455 S
S230 N232 1.610 . S
N231 S230 1.613 1_655 S
N231 C234 1.350 . S
N232 S230 1.610 . S
N232 C233 1.351 1_455 S
C233 C227 1.428 . S
C233 N232 1.351 1_655 S
C233 C234 1.434 . S
C234 C225 1.429 . S
C234 N231 1.350 . S
C234 C233 1.434 . S
C235 C236 1.369 . S
C235 C237 1.419 . S
C235 H239 0.930 . S
C236 C235 1.369 . S
C236 C245 1.429 . S
C237 C235 1.419 . S
C237 C238 1.363 . S
C237 H240 0.929 . S
C238 C237 1.363 . S
C238 C244 1.428 . S
H239 C235 0.930 . S
H240 C237 0.929 . S
S241 N242 1.613 . S
S241 N243 1.610 . S
N242 S241 1.613 . S
N242 C245 1.350 . S
N243 S241 1.610 . S
N243 C244 1.351 . S
C244 C238 1.428 . S
C244 N243 1.351 . S
C244 C245 1.434 . S
C245 C236 1.429 . S
C245 N242 1.350 . S
C245 C244 1.434 . S
C246 C247 1.369 . S
C246 C248 1.419 . S
C246 H250 0.930 . S
C247 C246 1.369 . S
C247 C256 1.429 . S
C248 C246 1.419 . S
C248 C249 1.363 . S
C248 H251 0.929 . S
C249 C248 1.363 . S
C249 C255 1.428 . S
H250 C246 0.930 . S
H251 C248 0.929 . S
S252 N253 1.613 . S
S252 N254 1.610 . S
N253 S252 1.613 . S
N253 C256 1.350 . S
N254 S252 1.610 . S
N254 C255 1.351 . S
C255 C249 1.428 . S
C255 N254 1.351 . S
C255 C256 1.434 . S
C256 C247 1.429 . S
C256 N253 1.350 . S
C256 C255 1.434 . S
C257 C258 1.369 . S
C257 C259 1.419 . S
C257 H261 0.930 . S
C258 C257 1.369 . S
C258 C267 1.429 . S
C259 C257 1.419 . S
C259 C260 1.363 . S
C259 H262 0.929 . S
C260 C259 1.363 . S
C260 C266 1.428 . S
H261 C257 0.930 . S
H262 C259 0.929 . S
S263 N264 1.613 . S
S263 N265 1.610 . S
N264 S263 1.613 . S
N264 C267 1.350 . S
N265 S263 1.610 . S
N265 C266 1.351 . S
C266 C260 1.428 . S
C266 N265 1.351 . S
C266 C267 1.434 . S
C267 C258 1.429 . S
C267 N264 1.350 . S
C267 C266 1.434 . S
C268 C269 1.369 . S
C268 C270 1.419 . S
C268 H272 0.930 . S
C269 C268 1.369 . S
C269 C278 1.429 . S
C270 C268 1.419 . S
C270 C271 1.363 . S
C270 H273 0.929 . S
C271 C270 1.363 . S
C271 C277 1.428 . S
H272 C268 0.930 . S
H273 C270 0.929 . S
S274 N275 1.613 . S
S274 N276 1.610 . S
N275 S274 1.613 . S
N275 C278 1.350 . S
N276 S274 1.610 . S
N276 C277 1.351 . S
C277 C271 1.428 . S
C277 N276 1.351 . S
C277 C278 1.434 . S
C278 C269 1.429 . S
C278 N275 1.350 . S
C278 C277 1.434 . S
C279 C280 1.369 . S
C279 C281 1.419 1_554 S
C279 H283 0.930 . S
C280 C279 1.369 . S
C280 C289 1.429 . S
C281 C279 1.419 1_556 S
C281 C282 1.363 . S
C281 H284 0.929 . S
C282 C281 1.363 . S
C282 C288 1.428 . S
H283 C279 0.930 . S
H284 C281 0.929 . S
S285 N286 1.613 . S
S285 N287 1.610 1_554 S
N286 S285 1.613 . S
N286 C289 1.350 . S
N287 S285 1.610 1_556 S
N287 C288 1.351 . S
C288 C282 1.428 . S
C288 N287 1.351 . S
C288 C289 1.434 1_556 S
C289 C280 1.429 . S
C289 N286 1.350 . S
C289 C288 1.434 1_554 S
C290 C291 1.369 . S
C290 C292 1.419 . S
C290 H294 0.930 . S
C291 C290 1.369 . S
C291 C300 1.429 1_545 S
C292 C290 1.419 . S
C292 C293 1.363 . S
C292 H295 0.929 . S
C293 C292 1.363 . S
C293 C299 1.428 1_545 S
H294 C290 0.930 . S
H295 C292 0.929 . S
S296 N297 1.613 . S
S296 N298 1.610 . S
N297 S296 1.613 . S
N297 C300 1.350 . S
N298 S296 1.610 . S
N298 C299 1.351 . S
C299 C293 1.428 1_565 S
C299 N298 1.351 . S
C299 C300 1.434 . S
C300 C291 1.429 1_565 S
C300 N297 1.350 . S
C300 C299 1.434 . S
C301 C302 1.369 . S
C301 C303 1.419 . S
C301 H305 0.930 . S
C302 C301 1.369 . S
C302 C311 1.429 . S
C303 C301 1.419 . S
C303 C304 1.363 . S
C303 H306 0.929 . S
C304 C303 1.363 . S
C304 C310 1.428 . S
H305 C301 0.930 . S
H306 C303 0.929 . S
S307 N308 1.613 . S
S307 N309 1.610 . S
N308 S307 1.613 . S
N308 C311 1.350 . S
N309 S307 1.610 . S
N309 C310 1.351 . S
C310 C304 1.428 . S
C310 N309 1.351 . S
C310 C311 1.434 . S
C311 C302 1.429 . S
C311 N308 1.350 . S
C311 C310 1.434 . S
C312 C313 1.369 . S
C312 C314 1.419 . S
C312 H316 0.930 . S
C313 C312 1.369 . S
C313 C322 1.429 1_545 S
C314 C312 1.419 . S
C314 C315 1.363 . S
C314 H317 0.929 . S
C315 C314 1.363 . S
C315 C321 1.428 1_545 S
H316 C312 0.930 . S
H317 C314 0.929 . S
S318 N319 1.613 . S
S318 N320 1.610 . S
N319 S318 1.613 . S
N319 C322 1.350 . S
N320 S318 1.610 . S
N320 C321 1.351 . S
C321 C315 1.428 1_565 S
C321 N320 1.351 . S
C321 C322 1.434 . S
C322 C313 1.429 1_565 S
C322 N319 1.350 . S
C322 C321 1.434 . S
C323 C324 1.369 . S
C323 C325 1.419 1_556 S
C323 H327 0.930 . S
C324 C323 1.369 . S
C324 C333 1.429 . S
C325 C323 1.419 1_554 S
C325 C326 1.363 . S
C325 H328 0.929 . S
C326 C325 1.363 . S
C326 C332 1.428 . S
H327 C323 0.930 . S
H328 C325 0.929 . S
S329 N330 1.613 . S
S329 N331 1.610 1_556 S
N330 S329 1.613 . S
N330 C333 1.350 . S
N331 S329 1.610 1_554 S
N331 C332 1.351 . S
C332 C326 1.428 . S
C332 N331 1.351 . S
C332 C333 1.434 1_554 S
C333 C324 1.429 . S
C333 N330 1.350 . S
C333 C332 1.434 1_556 S
C334 C335 1.369 . S
C334 C336 1.419 . S
C334 H338 0.930 . S
C335 C334 1.369 . S
C335 C344 1.424 1_455 S
C336 C334 1.419 . S
C336 C337 1.363 . S
C336 H339 0.929 . S
C337 C336 1.363 . S
C337 C343 1.428 . S
H338 C334 0.930 . S
H339 C336 0.929 . S
S340 N341 1.613 . S
S340 N342 1.610 . S
N341 S340 1.613 . S
N341 C344 1.355 . S
N342 S340 1.610 . S
N342 C343 1.351 1_655 S
C343 C337 1.428 . S
C343 N342 1.351 1_455 S
C343 C344 1.433 1_455 S
C344 C335 1.424 1_655 S
C344 N341 1.355 . S
C344 C343 1.433 1_655 S
C148 C20 1.342 . S
C150 C138 1.301 . S
C159 C41 1.440 . S
C161 C116 1.429 1_655 S
C170 C64 1.463 . S
C172 C129 1.449 . S
C181 C19 1.328 . S
C183 C142 1.403 . S
C194 C112 1.311 . S
C192 C44 1.392 . S
C205 C125 1.303 . S
C203 C67 1.388 . S
C214 C43 1.311 . S
C216 C90 1.400 . S
C225 C66 1.314 . S
C227 C103 1.390 1_655 S
C236 C21 1.398 . S
C238 C73 1.319 . S
C249 C86 1.307 . S
C247 C42 1.356 . S
C260 C99 1.309 . S
C258 C65 1.358 . S
C269 C18 1.393 . S
C271 C77 1.381 . S
C282 C104 1.517 . S
C280 C17 1.519 . S
C291 C39 1.531 . S
C293 C78 1.533 . S
C302 C62 1.538 . S
C304 C91 1.542 . S
C315 C130 1.518 . S
C313 C40 1.526 . S
C326 C143 1.538 . S
C324 C63 1.546 . S
C335 C16 1.523 . S
C337 C117 1.516 . S
