# Generated by pormake.
# Topology rtl, (3,6)-cn, num edge types: 1
# Building blocks:
#     Node 0, Type 0, BuildingBlock: BETDIP_clean_linker_0, # of connection points: 3
#     Node 1, Type 0, BuildingBlock: BETDIP_clean_linker_0, # of connection points: 3
#     Node 2, Type 0, BuildingBlock: BETDIP_clean_linker_0, # of connection points: 3
#     Node 3, Type 0, BuildingBlock: BETDIP_clean_linker_0, # of connection points: 3
#     Node 4, Type 1, BuildingBlock: LEVNOQ01_clean_sbu_1, # of connection points: 6
#     Node 5, Type 1, BuildingBlock: LEVNOQ01_clean_sbu_1, # of connection points: 6
#     Edge 6, Type (0, 1), BuildingBlock: EZIPEK_clean_linker_0, # of connection points: 2
#     Edge 7, Type (0, 1), BuildingBlock: EZIPEK_clean_linker_0, # of connection points: 2
#     Edge 8, Type (0, 1), BuildingBlock: EZIPEK_clean_linker_0, # of connection points: 2
#     Edge 9, Type (0, 1), BuildingBlock: EZIPEK_clean_linker_0, # of connection points: 2
#     Edge 10, Type (0, 1), BuildingBlock: EZIPEK_clean_linker_0, # of connection points: 2
#     Edge 11, Type (0, 1), BuildingBlock: EZIPEK_clean_linker_0, # of connection points: 2
#     Edge 12, Type (0, 1), BuildingBlock: EZIPEK_clean_linker_0, # of connection points: 2
#     Edge 13, Type (0, 1), BuildingBlock: EZIPEK_clean_linker_0, # of connection points: 2
#     Edge 14, Type (0, 1), BuildingBlock: EZIPEK_clean_linker_0, # of connection points: 2
#     Edge 15, Type (0, 1), BuildingBlock: EZIPEK_clean_linker_0, # of connection points: 2
#     Edge 16, Type (0, 1), BuildingBlock: EZIPEK_clean_linker_0, # of connection points: 2
#     Edge 17, Type (0, 1), BuildingBlock: EZIPEK_clean_linker_0, # of connection points: 2
# Relax obj value: 0.018
# Max RMSD: 0.112
# Mean RMSD: 0.086
data_MOF--net-rtl--node1-LEVNOQ01_clean_sbu_1--node2-BETDIP_clean_linker_0--edge1-EZIPEK_clean_linker_0
_symmetry_space_group_name_H-M    P1
_symmetry_Int_Tables_number       1
_symmetry_cell_setting            triclinic
loop_
_symmetry_equiv_pos_as_xyz
'x, y, z'
_cell_length_a     26.365553
_cell_length_b     26.187267
_cell_length_c     16.051075
_cell_angle_alpha  91.406333
_cell_angle_beta   101.62295
_cell_angle_gamma 89.954338
loop_
_atom_site_label
_atom_site_type_symbol
_atom_site_fract_x
_atom_site_fract_y
_atom_site_fract_z
_atom_type_partial_charge
H0 H 0.16902 0.7647 0.9532 0.0
H1 H 0.16501 0.78517 0.21881 0.0
H2 H 0.08491 0.89023 0.03599 0.0
H3 H 0.25953 0.75897 0.2181 0.0
C4 C 0.25479 0.73305 0.1632 0.0
C5 C 0.15566 0.78559 1.00375 0.0
C6 C 0.12651 0.83011 0.9851 0.0
C7 C 0.1713 0.77037 0.08826 0.0
C8 C 0.15406 0.79747 0.15371 0.0
C9 C 0.12143 0.83979 0.13417 0.0
C10 C 0.1087 0.85651 0.05037 0.0
N11 N 0.20627 0.72908 0.10542 0.0
H12 H 0.77442 0.68016 0.78628 0.0
H13 H 0.7544 0.66386 0.51375 0.0
H14 H 0.63617 0.61094 0.64069 0.0
H15 H 0.84019 0.69475 0.53955 0.0
C16 C 0.83587 0.72277 0.58861 0.0
C17 C 0.75161 0.66736 0.72542 0.0
C18 C 0.70383 0.64361 0.72189 0.0
C19 C 0.76924 0.67672 0.65083 0.0
C20 C 0.74034 0.65848 0.57178 0.0
C21 C 0.69212 0.63422 0.56738 0.0
C22 C 0.67352 0.62885 0.6429 0.0
N23 N 0.81324 0.70887 0.6576 0.0
H24 H 0.83764 0.24724 0.85419 0.0
H25 H 0.80766 0.25172 0.10869 0.0
H26 H 0.89855 0.13065 0.03042 0.0
H27 H 0.79226 0.33828 0.07348 0.0
C28 C 0.76764 0.33004 0.01171 0.0
C29 C 0.84249 0.2311 0.91685 0.0
C30 C 0.87095 0.18611 0.9349 0.0
C31 C 0.81918 0.25494 0.97834 0.0
C32 C 0.82615 0.2345 0.06059 0.0
C33 C 0.85596 0.19029 0.08014 0.0
C34 C 0.87682 0.16565 0.01626 0.0
N35 N 0.78587 0.29689 0.95336 0.0
H36 H 0.24907 0.35017 0.3233 0.0
H37 H 0.2698 0.36244 0.59566 0.0
H38 H 0.37755 0.43576 0.46721 0.0
H39 H 0.25213 0.27169 0.5652 0.0
C40 C 0.21895 0.27367 0.51275 0.0
C41 C 0.27065 0.36479 0.38391 0.0
C42 C 0.31479 0.39476 0.38669 0.0
C43 C 0.2564 0.35034 0.45904 0.0
C44 C 0.28299 0.37096 0.53782 0.0
C45 C 0.32654 0.4028 0.54158 0.0
C46 C 0.3433 0.41253 0.4655 0.0
N47 N 0.21687 0.31303 0.4532 0.0
O48 O 0.02597 0.11039 0.70441 0.0
Mg49 Mg 0.07713 0.0647 0.65556 0.0
O50 O 0.9647 0.05972 0.63373 0.0
Mg51 Mg 0.0024 0.01425 0.53137 0.0
O52 O 0.07098 0.07321 0.52748 0.0
O53 O 0.135 0.10587 0.63017 0.0
O54 O 0.03753 0.96744 0.43483 0.0
O55 O 0.95786 0.06884 0.42029 0.0
Mg56 Mg 0.92075 0.98136 0.42272 0.0
O57 O 0.94051 0.94923 0.53842 0.0
O58 O 0.9677 0.95919 0.3337 0.0
O59 O 0.87696 0.04867 0.4123 0.0
O60 O 0.87457 0.92241 0.4343 0.0
C61 C 0.08076 0.95948 0.70087 0.0
C62 C 0.9797 0.09485 0.69011 0.0
C63 C 0.11214 0.10199 0.55128 0.0
C64 C 0.01587 0.95275 0.36015 0.0
C65 C 0.90989 0.07782 0.39152 0.0
C66 C 0.90237 0.91787 0.50951 0.0
O67 O 0.10474 0.00046 0.72543 0.0
O68 O 0.04567 0.95877 0.63373 0.0
O69 O 0.58725 0.48866 0.25828 0.0
Mg70 Mg 0.5464 0.43675 0.16883 0.0
O71 O 0.54689 0.55513 0.19274 0.0
Mg72 Mg 0.50444 0.52586 0.05366 0.0
O73 O 0.55828 0.45562 0.05267 0.0
O74 O 0.58864 0.38411 0.11907 0.0
O75 O 0.46273 0.49431 0.91434 0.0
O76 O 0.57167 0.56484 1.00227 0.0
Mg77 Mg 0.46718 0.60277 0.94245 0.0
O78 O 0.44831 0.59691 0.05898 0.0
O79 O 0.41791 0.55838 0.8516 0.0
O80 O 0.53721 0.62373 0.91403 0.0
O81 O 0.43466 0.66628 0.97742 0.0
C82 C 0.43334 0.44679 0.15102 0.0
C83 C 0.57752 0.53604 0.25677 0.0
C84 C 0.58711 0.41502 0.05719 0.0
C85 C 0.42993 0.5117 0.85139 0.0
C86 C 0.57619 0.59904 0.94933 0.0
C87 C 0.42614 0.64103 0.04124 0.0
O88 O 0.47113 0.41808 0.17935 0.0
O89 O 0.43926 0.48512 0.10656 0.0
C90 C 0.21293 0.17924 0.48651 0.0
C91 C 0.18732 0.22672 0.48976 0.0
C92 C 0.10446 0.18167 0.47175 0.0
C93 C 0.13174 0.13587 0.49263 0.0
N94 N 0.20952 0.08728 0.50361 0.0
N95 N 0.10778 0.27418 0.47957 0.0
C96 C 0.18522 0.13338 0.49235 0.0
C97 C 0.13253 0.2284 0.47799 0.0
N98 N 0.26349 0.17837 0.47813 0.0
N99 N 0.05181 0.18032 0.44908 0.0
H100 H 0.12703 0.3092 0.48478 0.0
H101 H 0.06861 0.27747 0.481 0.0
H102 H 0.03127 0.14599 0.44383 0.0
H103 H 0.02961 0.21185 0.42666 0.0
H104 H 0.28357 0.14503 0.46984 0.0
H105 H 0.28415 0.21162 0.47214 0.0
H106 H 0.24949 0.08263 0.51406 0.0
H107 H 0.18864 0.05344 0.50432 0.0
C108 C 0.30462 0.71066 0.05124 0.0
C109 C 0.30121 0.70992 0.13782 0.0
C110 C 0.38379 0.66327 0.16761 0.0
C111 C 0.38173 0.65824 0.07863 0.0
N112 N 0.32736 0.66051 0.93767 0.0
N113 N 0.33513 0.67994 0.27912 0.0
C114 C 0.33784 0.67632 0.02113 0.0
C115 C 0.34017 0.68457 0.19669 0.0
N116 N 0.27956 0.74688 0.99878 0.0
N117 N 0.42742 0.64963 0.22382 0.0
H118 H 0.30408 0.69553 0.30217 0.0
H119 H 0.35966 0.65755 0.32255 0.0
H120 H 0.45971 0.63411 0.20445 0.0
H121 H 0.4328 0.657 0.28909 0.0
H122 H 0.28365 0.74995 0.93577 0.0
H123 H 0.26196 0.77819 0.02229 0.0
H124 H 0.29373 0.67129 0.89558 0.0
H125 H 0.34864 0.63201 0.91389 0.0
C126 C 0.82245 0.81763 0.58074 0.0
C127 C 0.85644 0.77517 0.58607 0.0
C128 C 0.92712 0.83093 0.56514 0.0
C129 C 0.89258 0.87296 0.55779 0.0
N130 N 0.81404 0.90992 0.58475 0.0
N131 N 0.94351 0.7429 0.60624 0.0
C132 C 0.84249 0.86737 0.57507 0.0
C133 C 0.90968 0.78236 0.58582 0.0
N134 N 0.77045 0.81032 0.57445 0.0
N135 N 0.97528 0.83658 0.54713 0.0
H136 H 0.93174 0.70683 0.62134 0.0
H137 H 0.98355 0.74704 0.61562 0.0
H138 H 0.99025 0.87177 0.53485 0.0
H139 H -0.00046 0.80605 0.54025 0.0
H140 H 0.74333 0.83945 0.56117 0.0
H141 H 0.75352 0.77445 0.57479 0.0
H142 H 0.77889 0.90889 0.60488 0.0
H143 H 0.82851 0.94674 0.58102 0.0
C144 C 0.67029 0.33229 0.95977 0.0
C145 C 0.71827 0.35836 0.98799 0.0
C146 C 0.67283 0.43457 0.02375 0.0
C147 C 0.62565 0.40681 1.00336 0.0
N148 N 0.57643 0.33932 0.92245 0.0
N149 N 0.7634 0.43875 0.01427 0.0
C150 C 0.62356 0.35933 0.9596 0.0
C151 C 0.71876 0.41128 0.00833 0.0
N152 N 0.66896 0.28105 0.94118 0.0
N153 N 0.67462 0.48102 0.06482 0.0
H154 H 0.79741 0.42218 1.00259 0.0
H155 H 0.76519 0.47837 0.02193 0.0
H156 H 0.64154 0.49957 0.07571 0.0
H157 H 0.70898 0.50011 0.09108 0.0
H158 H 0.63501 0.25946 0.93004 0.0
H159 H 0.70186 0.25898 0.94234 0.0
H160 H 0.57182 0.30639 0.88389 0.0
H161 H 0.54218 0.35914 0.92395 0.0
C162 C 0.05403 0.84504 0.22362 0.0
C163 C 0.09842 0.86625 0.20014 0.0
C164 C 0.08876 0.94503 0.2811 0.0
C165 C 0.04565 0.92286 0.30739 0.0
N166 N -0.00455 0.84762 0.32184 0.0
N167 N 0.16421 0.93159 0.21802 0.0
C168 C 0.03066 0.8716 0.28398 0.0
C169 C 0.11779 0.91481 0.23271 0.0
N170 N 0.03291 0.80048 0.18575 0.0
N171 N 0.10048 0.99549 0.29908 0.0
H172 H 0.18619 0.91029 0.18248 0.0
H173 H 0.18304 0.96433 0.24678 0.0
H174 H 0.0799 0.01887 0.33396 0.0
H175 H 0.12798 0.01531 0.2741 0.0
H176 H -0.00299 0.78658 0.19257 0.0
H177 H 0.04928 0.7792 0.1422 0.0
H178 H 0.98732 0.80868 0.31415 0.0
H179 H 0.97797 0.86539 0.3676 0.0
C180 C 0.68017 0.58029 0.82099 0.0
C181 C 0.68541 0.63208 0.80075 0.0
C182 C 0.64163 0.65801 0.9152 0.0
C183 C 0.62479 0.60698 0.91905 0.0
N184 N 0.62667 0.51845 0.87192 0.0
N185 N 0.67113 0.72149 0.82856 0.0
C186 C 0.64478 0.56739 0.87293 0.0
C187 C 0.66727 0.67153 0.8492 0.0
N188 N 0.70838 0.54357 0.78926 0.0
N189 N 0.63157 0.69348 0.97344 0.0
H190 H 0.68915 0.73302 0.77998 0.0
H191 H 0.65332 0.75127 0.85578 0.0
H192 H 0.61289 0.68376 0.02242 0.0
H193 H 0.64619 0.73062 0.97825 0.0
H194 H 0.70944 0.50565 0.8078 0.0
H195 H 0.73498 0.55235 0.75153 0.0
H196 H 0.63543 0.48983 0.8309 0.0
H197 H 0.60022 0.50682 0.9078 0.0
C198 C 0.89547 0.18916 0.23836 0.0
C199 C 0.86314 0.16641 0.16518 0.0
C200 C 0.8642 0.08593 0.23902 0.0
C201 C 0.89331 0.10933 0.31478 0.0
N202 N 0.9258 0.18653 0.39151 0.0
N203 N 0.8041 0.09865 0.10615 0.0
C204 C 0.9057 0.16206 0.31605 0.0
C205 C 0.84319 0.11666 0.16927 0.0
N206 N 0.91832 0.23539 0.23297 0.0
N207 N 0.85939 0.03398 0.23073 0.0
H208 H 0.78721 0.12066 0.0546 0.0
H209 H 0.78488 0.06427 0.10998 0.0
H210 H 0.87708 0.009 0.27706 0.0
H211 H 0.84292 0.01536 0.17356 0.0
H212 H 0.9466 0.25104 0.28173 0.0
H213 H 0.91185 0.25636 0.17746 0.0
H214 H 0.93057 0.22604 0.39752 0.0
H215 H 0.93348 0.16771 0.44925 0.0
C216 C 0.36303 0.48194 0.62463 0.0
C217 C 0.35342 0.42862 0.62327 0.0
C218 C 0.39227 0.42811 0.7764 0.0
C219 C 0.40813 0.47992 0.77335 0.0
N220 N 0.42488 0.54748 0.68172 0.0
N221 N 0.37204 0.34872 0.69566 0.0
C222 C 0.3986 0.50417 0.69349 0.0
C223 C 0.3719 0.40085 0.69855 0.0
N224 N 0.33686 0.51213 0.5622 0.0
N225 N 0.39416 0.40531 0.85253 0.0
H226 H 0.36019 0.3274 0.63939 0.0
H227 H 0.38926 0.32705 0.74733 0.0
H228 H 0.40628 0.42411 0.91104 0.0
H229 H 0.3785 0.36919 0.85719 0.0
H230 H 0.34063 0.55182 0.56469 0.0
H231 H 0.30688 0.49833 0.5144 0.0
H232 H 0.42107 0.56412 0.62238 0.0
H233 H 0.45531 0.5624 0.7277 0.0
C234 C 0.64797 0.64078 0.4105 0.0
C235 C 0.66164 0.61165 0.48555 0.0
C236 C 0.60535 0.54303 0.4145 0.0
C237 C 0.60046 0.56698 0.33493 0.0
N238 N 0.62528 0.6375 0.25646 0.0
N239 N 0.66408 0.52777 0.54658 0.0
C240 C 0.62378 0.61579 0.33237 0.0
C241 C 0.64345 0.5606 0.484 0.0
N242 N 0.65614 0.69232 0.4139 0.0
N243 N 0.57293 0.50402 0.42462 0.0
H244 H 0.6956 0.53741 0.5949 0.0
H245 H 0.65401 0.48916 0.54393 0.0
H246 H 0.5417 0.49252 0.37692 0.0
H247 H 0.57328 0.48795 0.48357 0.0
H248 H 0.64274 0.71562 0.36243 0.0
H249 H 0.67114 0.71239 0.47037 0.0
H250 H 0.64639 0.67061 0.25201 0.0
H251 H 0.60968 0.62024 0.19779 0.0
C252 C 0.95011 0.14974 0.89227 0.0
C253 C 0.89663 0.16103 0.87012 0.0
C254 C 0.8954 0.1283 0.72486 0.0
C255 C 0.94742 0.11218 0.75107 0.0
N256 N 0.0154 0.08983 0.86991 0.0
N257 N 0.81529 0.14786 0.77059 0.0
C258 C 0.97197 0.11722 0.83808 0.0
C259 C 0.86813 0.14641 0.78783 0.0
N260 N 0.98083 0.17158 0.96289 0.0
N261 N 0.87257 0.12833 0.64061 0.0
H262 H 0.79385 0.15829 0.81622 0.0
H263 H 0.79289 0.13343 0.71391 0.0
H264 H 0.89151 0.11633 0.59256 0.0
H265 H 0.8364 0.1445 0.6183 0.0
H266 H 0.02091 0.16689 0.97695 0.0
H267 H 0.9674 0.199 1.00135 0.0
H268 H 0.03214 0.09002 0.93461 0.0
H269 H 0.03045 0.06217 0.8338 0.0
C270 C 0.33125 0.46009 0.28385 0.0
C271 C 0.33151 0.40816 0.30699 0.0
C272 C 0.37111 0.38512 0.18646 0.0
C273 C 0.38422 0.43697 0.1798 0.0
N274 N 0.37115 0.52588 0.2154 0.0
N275 N 0.35265 0.32009 0.28029 0.0
C276 C 0.36157 0.47533 0.2248 0.0
C277 C 0.35049 0.37002 0.25701 0.0
N278 N 0.30161 0.4945 0.31785 0.0
N279 N 0.38046 0.3504 0.12659 0.0
H280 H 0.33972 0.30736 0.33341 0.0
H281 H 0.37124 0.29188 0.25083 0.0
H282 H 0.39554 0.36152 0.07436 0.0
H283 H 0.36834 0.31243 0.12411 0.0
H284 H 0.2962 0.53206 0.29818 0.0
H285 H 0.27806 0.48384 0.35957 0.0
H286 H 0.3626 0.55457 0.25646 0.0
H287 H 0.38817 0.53951 0.16724 0.0
C288 C 0.06444 0.8533 0.85217 0.0
C289 C 0.11612 0.85137 0.89833 0.0
C290 C 0.14386 0.90218 0.78954 0.0
C291 C 0.09147 0.91416 0.75556 0.0
N292 N 0.00044 0.90245 0.75877 0.0
N293 N 0.20574 0.87685 0.91391 0.0
C294 C 0.05111 0.88921 0.7864 0.0
C295 C 0.15632 0.87577 0.86708 0.0
N296 N 0.02808 0.82123 0.87219 0.0
N297 N 0.18163 0.91634 0.74758 0.0
H298 H 0.2166 0.85893 0.97198 0.0
H299 H 0.23513 0.89905 0.89843 0.0
H300 H 0.17321 0.93477 0.68948 0.0
H301 H 0.22008 0.90493 0.76544 0.0
H302 H 0.99083 0.8173 0.83553 0.0
H303 H 0.03703 0.79473 0.92046 0.0
H304 H 0.97062 0.8896 0.78685 0.0
H305 H 0.98796 0.92923 0.71246 0.0
loop_
_geom_bond_atom_site_label_1
_geom_bond_atom_site_label_2
_geom_bond_distance
_geom_bond_site_symmetry_2
_ccdc_geom_bond_type
H0 C5 0.930 . S
H1 C8 0.930 . S
H2 C10 0.930 . S
H3 C4 1.016 . S
C4 H3 1.016 . S
C4 N11 1.286 . S
C5 H0 0.930 . S
C5 C6 1.397 . S
C5 C7 1.361 1_556 S
C6 C5 1.397 . S
C6 C10 1.390 1_556 S
C7 C5 1.361 1_554 S
C7 C8 1.393 . S
C7 N11 1.413 . S
C8 H1 0.930 . S
C8 C7 1.393 . S
C8 C9 1.399 . S
C9 C8 1.399 . S
C9 C10 1.381 . S
C10 H2 0.930 . S
C10 C6 1.390 1_554 S
C10 C9 1.381 . S
N11 C4 1.286 . S
N11 C7 1.413 . S
H12 C17 0.930 . S
H13 C20 0.930 . S
H14 C22 0.930 . S
H15 C16 1.016 . S
C16 H15 1.016 . S
C16 N23 1.286 . S
C17 H12 0.930 . S
C17 C18 1.397 . S
C17 C19 1.361 . S
C18 C17 1.397 . S
C18 C22 1.390 . S
C19 C17 1.361 . S
C19 C20 1.393 . S
C19 N23 1.413 . S
C20 H13 0.930 . S
C20 C19 1.393 . S
C20 C21 1.399 . S
C21 C20 1.399 . S
C21 C22 1.381 . S
C22 H14 0.930 . S
C22 C18 1.390 . S
C22 C21 1.381 . S
N23 C16 1.286 . S
N23 C19 1.413 . S
H24 C29 0.930 . S
H25 C32 0.930 . S
H26 C34 0.930 . S
H27 C28 1.016 . S
C28 H27 1.016 . S
C28 N35 1.286 1_554 S
C29 H24 0.930 . S
C29 C30 1.397 . S
C29 C31 1.361 . S
C30 C29 1.397 . S
C30 C34 1.390 1_556 S
C31 C29 1.361 . S
C31 C32 1.393 1_556 S
C31 N35 1.413 . S
C32 H25 0.930 . S
C32 C31 1.393 1_554 S
C32 C33 1.399 . S
C33 C32 1.399 . S
C33 C34 1.381 . S
C34 H26 0.930 . S
C34 C30 1.390 1_554 S
C34 C33 1.381 . S
N35 C28 1.286 1_556 S
N35 C31 1.413 . S
H36 C41 0.930 . S
H37 C44 0.930 . S
H38 C46 0.930 . S
H39 C40 1.016 . S
C40 H39 1.016 . S
C40 N47 1.286 . S
C41 H36 0.930 . S
C41 C42 1.397 . S
C41 C43 1.361 . S
C42 C41 1.397 . S
C42 C46 1.390 . S
C43 C41 1.361 . S
C43 C44 1.393 . S
C43 N47 1.413 . S
C44 H37 0.930 . S
C44 C43 1.393 . S
C44 C45 1.399 . S
C45 C44 1.399 . S
C45 C46 1.381 . S
C46 H38 0.930 . S
C46 C42 1.390 . S
C46 C45 1.381 . S
N47 C40 1.286 . S
N47 C43 1.413 . S
O48 Mg49 1.990 . S
O48 C62 1.253 1_455 S
Mg49 O48 1.990 . S
Mg49 O52 2.180 . S
Mg49 O53 2.117 . S
Mg49 O67 2.030 . S
O50 Mg51 2.072 1_655 S
O50 C62 1.260 . S
Mg51 O50 2.072 1_455 S
Mg51 O52 2.099 . S
Mg51 O54 2.079 1_545 S
Mg51 O55 2.072 1_455 S
Mg51 O57 2.099 1_445 S
Mg51 O68 2.079 1_545 S
O52 Mg49 2.180 . S
O52 Mg51 2.099 . S
O52 C63 1.279 . S
O53 Mg49 2.117 . S
O53 C63 1.250 . S
O54 Mg51 2.079 1_565 S
O54 C64 1.264 . S
O55 Mg51 2.072 1_655 S
O55 C65 1.260 . S
Mg56 O57 2.180 . S
Mg56 O58 2.030 1_655 S
Mg56 O59 1.990 1_565 S
Mg56 O60 2.117 . S
O57 Mg51 2.099 1_665 S
O57 Mg56 2.180 . S
O57 C66 1.279 . S
O58 Mg56 2.030 1_455 S
O58 C64 1.248 . S
O59 Mg56 1.990 1_545 S
O59 C65 1.253 . S
O60 Mg56 2.117 . S
O60 C66 1.250 . S
C61 O67 1.248 1_565 S
C61 O68 1.264 . S
C62 O48 1.253 1_655 S
C62 O50 1.260 . S
C63 O52 1.279 . S
C63 O53 1.250 . S
C64 O54 1.264 . S
C64 O58 1.248 . S
C65 O55 1.260 . S
C65 O59 1.253 . S
C66 O57 1.279 . S
C66 O60 1.250 . S
O67 Mg49 2.030 . S
O67 C61 1.248 1_545 S
O68 Mg51 2.079 1_565 S
O68 C61 1.264 . S
O69 Mg70 1.990 . S
O69 C83 1.253 . S
Mg70 O69 1.990 . S
Mg70 O73 2.180 . S
Mg70 O74 2.117 . S
Mg70 O88 2.030 . S
O71 Mg72 2.072 . S
O71 C83 1.260 . S
Mg72 O71 2.072 . S
Mg72 O73 2.099 . S
Mg72 O75 2.079 1_554 S
Mg72 O76 2.072 1_554 S
Mg72 O78 2.099 . S
Mg72 O89 2.079 . S
O73 Mg70 2.180 . S
O73 Mg72 2.099 . S
O73 C84 1.279 . S
O74 Mg70 2.117 . S
O74 C84 1.250 . S
O75 Mg72 2.079 1_556 S
O75 C85 1.264 . S
O76 Mg72 2.072 1_556 S
O76 C86 1.260 . S
Mg77 O78 2.180 1_556 S
Mg77 O79 2.030 . S
Mg77 O80 1.990 . S
Mg77 O81 2.117 . S
O78 Mg72 2.099 . S
O78 Mg77 2.180 1_554 S
O78 C87 1.279 . S
O79 Mg77 2.030 . S
O79 C85 1.248 . S
O80 Mg77 1.990 . S
O80 C86 1.253 . S
O81 Mg77 2.117 . S
O81 C87 1.250 1_556 S
C82 O88 1.248 . S
C82 O89 1.264 . S
C83 O69 1.253 . S
C83 O71 1.260 . S
C84 O73 1.279 . S
C84 O74 1.250 . S
C85 O75 1.264 . S
C85 O79 1.248 . S
C86 O76 1.260 . S
C86 O80 1.253 . S
C87 O78 1.279 . S
C87 O81 1.250 1_554 S
O88 Mg70 2.030 . S
O88 C82 1.248 . S
O89 Mg72 2.079 . S
O89 C82 1.264 . S
C90 C91 1.363 . S
C90 C96 1.379 . S
C90 N98 1.356 . S
C91 C90 1.363 . S
C91 C97 1.363 . S
C92 C93 1.363 . S
C92 C97 1.379 . S
C92 N99 1.356 . S
C93 C92 1.363 . S
C93 C96 1.363 . S
N94 C96 1.356 . S
N94 H106 0.984 . S
N94 H107 0.985 . S
N95 C97 1.356 . S
N95 H100 0.984 . S
N95 H101 0.985 . S
C96 C90 1.379 . S
C96 C93 1.363 . S
C96 N94 1.356 . S
C97 C91 1.363 . S
C97 C92 1.379 . S
C97 N95 1.356 . S
N98 C90 1.356 . S
N98 H104 0.984 . S
N98 H105 0.984 . S
N99 C92 1.356 . S
N99 H102 0.984 . S
N99 H103 0.985 . S
H100 N95 0.984 . S
H101 N95 0.985 . S
H102 N99 0.984 . S
H103 N99 0.985 . S
H104 N98 0.984 . S
H105 N98 0.984 . S
H106 N94 0.984 . S
H107 N94 0.985 . S
C108 C109 1.363 . S
C108 C114 1.379 . S
C108 N116 1.356 1_554 S
C109 C108 1.363 . S
C109 C115 1.363 . S
C110 C111 1.363 . S
C110 C115 1.379 . S
C110 N117 1.356 . S
C111 C110 1.363 . S
C111 C114 1.363 . S
N112 C114 1.356 1_556 S
N112 H124 0.984 . S
N112 H125 0.985 . S
N113 C115 1.356 . S
N113 H118 0.984 . S
N113 H119 0.985 . S
C114 C108 1.379 . S
C114 C111 1.363 . S
C114 N112 1.356 1_554 S
C115 C109 1.363 . S
C115 C110 1.379 . S
C115 N113 1.356 . S
N116 C108 1.356 1_556 S
N116 H122 0.984 . S
N116 H123 0.984 . S
N117 C110 1.356 . S
N117 H120 0.984 . S
N117 H121 0.985 . S
H118 N113 0.984 . S
H119 N113 0.985 . S
H120 N117 0.984 . S
H121 N117 0.985 . S
H122 N116 0.984 . S
H123 N116 0.984 . S
H124 N112 0.984 . S
H125 N112 0.985 . S
C126 C127 1.363 . S
C126 C132 1.379 . S
C126 N134 1.356 . S
C127 C126 1.363 . S
C127 C133 1.363 . S
C128 C129 1.363 . S
C128 C133 1.379 . S
C128 N135 1.356 . S
C129 C128 1.363 . S
C129 C132 1.363 . S
N130 C132 1.356 . S
N130 H142 0.984 . S
N130 H143 0.985 . S
N131 C133 1.356 . S
N131 H136 0.984 . S
N131 H137 0.985 . S
C132 C126 1.379 . S
C132 C129 1.363 . S
C132 N130 1.356 . S
C133 C127 1.363 . S
C133 C128 1.379 . S
C133 N131 1.356 . S
N134 C126 1.356 . S
N134 H140 0.984 . S
N134 H141 0.984 . S
N135 C128 1.356 . S
N135 H138 0.984 . S
N135 H139 0.985 . S
H136 N131 0.984 . S
H137 N131 0.985 . S
H138 N135 0.984 . S
H139 N135 0.985 . S
H140 N134 0.984 . S
H141 N134 0.984 . S
H142 N130 0.984 . S
H143 N130 0.985 . S
C144 C145 1.363 . S
C144 C150 1.379 . S
C144 N152 1.356 . S
C145 C144 1.363 . S
C145 C151 1.363 1_554 S
C146 C147 1.363 1_556 S
C146 C151 1.379 . S
C146 N153 1.356 . S
C147 C146 1.363 1_554 S
C147 C150 1.363 . S
N148 C150 1.356 . S
N148 H160 0.984 . S
N148 H161 0.985 . S
N149 C151 1.356 . S
N149 H154 0.984 . S
N149 H155 0.985 . S
C150 C144 1.379 . S
C150 C147 1.363 . S
C150 N148 1.356 . S
C151 C145 1.363 1_556 S
C151 C146 1.379 . S
C151 N149 1.356 . S
N152 C144 1.356 . S
N152 H158 0.984 . S
N152 H159 0.984 . S
N153 C146 1.356 . S
N153 H156 0.984 . S
N153 H157 0.985 . S
H154 N149 0.984 . S
H155 N149 0.985 . S
H156 N153 0.984 . S
H157 N153 0.985 . S
H158 N152 0.984 . S
H159 N152 0.984 . S
H160 N148 0.984 . S
H161 N148 0.985 . S
C162 C163 1.363 . S
C162 C168 1.379 . S
C162 N170 1.356 . S
C163 C162 1.363 . S
C163 C169 1.363 . S
C164 C165 1.363 . S
C164 C169 1.379 . S
C164 N171 1.356 1_565 S
C165 C164 1.363 . S
C165 C168 1.363 . S
N166 C168 1.356 . S
N166 H178 0.984 . S
N166 H179 0.985 . S
N167 C169 1.356 . S
N167 H172 0.984 . S
N167 H173 0.985 . S
C168 C162 1.379 . S
C168 C165 1.363 . S
C168 N166 1.356 . S
C169 C163 1.363 . S
C169 C164 1.379 . S
C169 N167 1.356 . S
N170 C162 1.356 . S
N170 H176 0.984 . S
N170 H177 0.984 . S
N171 C164 1.356 1_545 S
N171 H174 0.984 . S
N171 H175 0.985 . S
H172 N167 0.984 . S
H173 N167 0.985 . S
H174 N171 0.984 . S
H175 N171 0.985 . S
H176 N170 0.984 . S
H177 N170 0.984 . S
H178 N166 0.984 . S
H179 N166 0.985 . S
C180 C181 1.363 . S
C180 C186 1.379 . S
C180 N188 1.356 . S
C181 C180 1.363 . S
C181 C187 1.363 . S
C182 C183 1.363 . S
C182 C187 1.379 . S
C182 N189 1.356 . S
C183 C182 1.363 . S
C183 C186 1.363 . S
N184 C186 1.356 . S
N184 H196 0.984 . S
N184 H197 0.985 . S
N185 C187 1.356 . S
N185 H190 0.984 . S
N185 H191 0.985 . S
C186 C180 1.379 . S
C186 C183 1.363 . S
C186 N184 1.356 . S
C187 C181 1.363 . S
C187 C182 1.379 . S
C187 N185 1.356 . S
N188 C180 1.356 . S
N188 H194 0.984 . S
N188 H195 0.984 . S
N189 C182 1.356 . S
N189 H192 0.984 . S
N189 H193 0.985 . S
H190 N185 0.984 . S
H191 N185 0.985 . S
H192 N189 0.984 . S
H193 N189 0.985 . S
H194 N188 0.984 . S
H195 N188 0.984 . S
H196 N184 0.984 . S
H197 N184 0.985 . S
C198 C199 1.363 . S
C198 C204 1.379 . S
C198 N206 1.356 . S
C199 C198 1.363 . S
C199 C205 1.363 . S
C200 C201 1.363 . S
C200 C205 1.379 . S
C200 N207 1.356 . S
C201 C200 1.363 . S
C201 C204 1.363 . S
N202 C204 1.356 . S
N202 H214 0.984 . S
N202 H215 0.985 . S
N203 C205 1.356 . S
N203 H208 0.984 . S
N203 H209 0.985 . S
C204 C198 1.379 . S
C204 C201 1.363 . S
C204 N202 1.356 . S
C205 C199 1.363 . S
C205 C200 1.379 . S
C205 N203 1.356 . S
N206 C198 1.356 . S
N206 H212 0.984 . S
N206 H213 0.984 . S
N207 C200 1.356 . S
N207 H210 0.984 . S
N207 H211 0.985 1_545 S
H208 N203 0.984 . S
H209 N203 0.985 . S
H210 N207 0.984 . S
H211 N207 0.985 1_565 S
H212 N206 0.984 . S
H213 N206 0.984 . S
H214 N202 0.984 . S
H215 N202 0.985 . S
C216 C217 1.363 . S
C216 C222 1.379 . S
C216 N224 1.356 . S
C217 C216 1.363 . S
C217 C223 1.363 . S
C218 C219 1.363 . S
C218 C223 1.379 . S
C218 N225 1.356 . S
C219 C218 1.363 . S
C219 C222 1.363 . S
N220 C222 1.356 . S
N220 H232 0.984 . S
N220 H233 0.985 . S
N221 C223 1.356 . S
N221 H226 0.984 . S
N221 H227 0.985 . S
C222 C216 1.379 . S
C222 C219 1.363 . S
C222 N220 1.356 . S
C223 C217 1.363 . S
C223 C218 1.379 . S
C223 N221 1.356 . S
N224 C216 1.356 . S
N224 H230 0.984 . S
N224 H231 0.984 . S
N225 C218 1.356 . S
N225 H228 0.984 . S
N225 H229 0.985 . S
H226 N221 0.984 . S
H227 N221 0.985 . S
H228 N225 0.984 . S
H229 N225 0.985 . S
H230 N224 0.984 . S
H231 N224 0.984 . S
H232 N220 0.984 . S
H233 N220 0.985 . S
C234 C235 1.363 . S
C234 C240 1.379 . S
C234 N242 1.356 . S
C235 C234 1.363 . S
C235 C241 1.363 . S
C236 C237 1.363 . S
C236 C241 1.379 . S
C236 N243 1.356 . S
C237 C236 1.363 . S
C237 C240 1.363 . S
N238 C240 1.356 . S
N238 H250 0.984 . S
N238 H251 0.985 . S
N239 C241 1.356 . S
N239 H244 0.984 . S
N239 H245 0.985 . S
C240 C234 1.379 . S
C240 C237 1.363 . S
C240 N238 1.356 . S
C241 C235 1.363 . S
C241 C236 1.379 . S
C241 N239 1.356 . S
N242 C234 1.356 . S
N242 H248 0.984 . S
N242 H249 0.984 . S
N243 C236 1.356 . S
N243 H246 0.984 . S
N243 H247 0.985 . S
H244 N239 0.984 . S
H245 N239 0.985 . S
H246 N243 0.984 . S
H247 N243 0.985 . S
H248 N242 0.984 . S
H249 N242 0.984 . S
H250 N238 0.984 . S
H251 N238 0.985 . S
C252 C253 1.363 . S
C252 C258 1.379 . S
C252 N260 1.356 . S
C253 C252 1.363 . S
C253 C259 1.363 . S
C254 C255 1.363 . S
C254 C259 1.379 . S
C254 N261 1.356 . S
C255 C254 1.363 . S
C255 C258 1.363 . S
N256 C258 1.356 . S
N256 H268 0.984 . S
N256 H269 0.985 . S
N257 C259 1.356 . S
N257 H262 0.984 . S
N257 H263 0.985 . S
C258 C252 1.379 . S
C258 C255 1.363 . S
C258 N256 1.356 . S
C259 C253 1.363 . S
C259 C254 1.379 . S
C259 N257 1.356 . S
N260 C252 1.356 . S
N260 H266 0.984 . S
N260 H267 0.984 . S
N261 C254 1.356 . S
N261 H264 0.984 . S
N261 H265 0.985 . S
H262 N257 0.984 . S
H263 N257 0.985 . S
H264 N261 0.984 . S
H265 N261 0.985 . S
H266 N260 0.984 . S
H267 N260 0.984 . S
H268 N256 0.984 . S
H269 N256 0.985 . S
C270 C271 1.363 . S
C270 C276 1.379 . S
C270 N278 1.356 . S
C271 C270 1.363 . S
C271 C277 1.363 . S
C272 C273 1.363 . S
C272 C277 1.379 . S
C272 N279 1.356 . S
C273 C272 1.363 . S
C273 C276 1.363 . S
N274 C276 1.356 . S
N274 H286 0.984 . S
N274 H287 0.985 . S
N275 C277 1.356 . S
N275 H280 0.984 . S
N275 H281 0.985 . S
C276 C270 1.379 . S
C276 C273 1.363 . S
C276 N274 1.356 . S
C277 C271 1.363 . S
C277 C272 1.379 . S
C277 N275 1.356 . S
N278 C270 1.356 . S
N278 H284 0.984 . S
N278 H285 0.984 . S
N279 C272 1.356 . S
N279 H282 0.984 . S
N279 H283 0.985 . S
H280 N275 0.984 . S
H281 N275 0.985 . S
H282 N279 0.984 . S
H283 N279 0.985 . S
H284 N278 0.984 . S
H285 N278 0.984 . S
H286 N274 0.984 . S
H287 N274 0.985 . S
C288 C289 1.363 . S
C288 C294 1.379 . S
C288 N296 1.356 . S
C289 C288 1.363 . S
C289 C295 1.363 . S
C290 C291 1.363 . S
C290 C295 1.379 . S
C290 N297 1.356 1_565 S
C291 C290 1.363 . S
C291 C294 1.363 . S
N292 C294 1.356 . S
N292 H304 0.984 . S
N292 H305 0.985 . S
N293 C295 1.356 . S
N293 H298 0.984 . S
N293 H299 0.985 . S
C294 C288 1.379 . S
C294 C291 1.363 . S
C294 N292 1.356 . S
C295 C289 1.363 . S
C295 C290 1.379 . S
C295 N293 1.356 . S
N296 C288 1.356 . S
N296 H302 0.984 . S
N296 H303 0.984 . S
N297 C290 1.356 1_545 S
N297 H300 0.984 . S
N297 H301 0.985 . S
H298 N293 0.984 . S
H299 N293 0.985 . S
H300 N297 0.984 . S
H301 N297 0.985 . S
H302 N296 0.984 . S
H303 N296 0.984 . S
H304 N292 0.984 . S
H305 N292 0.985 . S
C93 C63 1.274 . S
C91 C40 1.458 . S
C109 C4 1.496 . S
C111 C87 1.315 . S
C127 C16 1.564 . S
C129 C66 1.389 . S
C145 C28 1.565 . S
C147 C84 1.366 . S
C165 C64 1.492 . S
C163 C9 1.494 . S
C183 C86 1.521 . S
C181 C18 1.594 . S
C199 C33 1.582 . S
C201 C65 1.538 . S
C217 C45 1.504 . S
C219 C85 1.448 . S
C237 C83 1.480 . S
C235 C21 1.528 . S
C255 C62 1.468 . S
C253 C30 1.536 . S
C273 C82 1.427 . S
C271 C42 1.458 . S
C289 C6 1.461 . S
C291 C61 1.402 . S
