# Generated by pormake.
# Topology wbl, (4,4)-cn, num edge types: 1
# Building blocks:
#     Node 0, Type 0, BuildingBlock: MUDLON_clean_linker_0, # of connection points: 4
#     Node 1, Type 0, BuildingBlock: MUDLON_clean_linker_0, # of connection points: 4
#     Node 2, Type 0, BuildingBlock: MUDLON_clean_linker_0, # of connection points: 4
#     Node 3, Type 0, BuildingBlock: MUDLON_clean_linker_0, # of connection points: 4
#     Node 4, Type 0, BuildingBlock: MUDLON_clean_linker_0, # of connection points: 4
#     Node 5, Type 0, BuildingBlock: MUDLON_clean_linker_0, # of connection points: 4
#     Node 6, Type 0, BuildingBlock: MUDLON_clean_linker_0, # of connection points: 4
#     Node 7, Type 0, BuildingBlock: MUDLON_clean_linker_0, # of connection points: 4
#     Node 8, Type 1, BuildingBlock: CEKHIL_clean_sbu_0, # of connection points: 4
#     Node 9, Type 1, BuildingBlock: CEKHIL_clean_sbu_0, # of connection points: 4
#     Node 10, Type 1, BuildingBlock: CEKHIL_clean_sbu_0, # of connection points: 4
#     Node 11, Type 1, BuildingBlock: CEKHIL_clean_sbu_0, # of connection points: 4
#     Node 12, Type 1, BuildingBlock: CEKHIL_clean_sbu_0, # of connection points: 4
#     Node 13, Type 1, BuildingBlock: CEKHIL_clean_sbu_0, # of connection points: 4
#     Node 14, Type 1, BuildingBlock: CEKHIL_clean_sbu_0, # of connection points: 4
#     Node 15, Type 1, BuildingBlock: CEKHIL_clean_sbu_0, # of connection points: 4
#     Edge 16, Type (0, 1), BuildingBlock: TEMPAE_clean_linker_10, # of connection points: 2
#     Edge 17, Type (0, 1), BuildingBlock: TEMPAE_clean_linker_10, # of connection points: 2
#     Edge 18, Type (0, 1), BuildingBlock: TEMPAE_clean_linker_10, # of connection points: 2
#     Edge 19, Type (0, 1), BuildingBlock: TEMPAE_clean_linker_10, # of connection points: 2
#     Edge 20, Type (0, 1), BuildingBlock: TEMPAE_clean_linker_10, # of connection points: 2
#     Edge 21, Type (0, 1), BuildingBlock: TEMPAE_clean_linker_10, # of connection points: 2
#     Edge 22, Type (0, 1), BuildingBlock: TEMPAE_clean_linker_10, # of connection points: 2
#     Edge 23, Type (0, 1), BuildingBlock: TEMPAE_clean_linker_10, # of connection points: 2
#     Edge 24, Type (0, 1), BuildingBlock: TEMPAE_clean_linker_10, # of connection points: 2
#     Edge 25, Type (0, 1), BuildingBlock: TEMPAE_clean_linker_10, # of connection points: 2
#     Edge 26, Type (0, 1), BuildingBlock: TEMPAE_clean_linker_10, # of connection points: 2
#     Edge 27, Type (0, 1), BuildingBlock: TEMPAE_clean_linker_10, # of connection points: 2
#     Edge 28, Type (0, 1), BuildingBlock: TEMPAE_clean_linker_10, # of connection points: 2
#     Edge 29, Type (0, 1), BuildingBlock: TEMPAE_clean_linker_10, # of connection points: 2
#     Edge 30, Type (0, 1), BuildingBlock: TEMPAE_clean_linker_10, # of connection points: 2
#     Edge 31, Type (0, 1), BuildingBlock: TEMPAE_clean_linker_10, # of connection points: 2
#     Edge 32, Type (0, 1), BuildingBlock: TEMPAE_clean_linker_10, # of connection points: 2
#     Edge 33, Type (0, 1), BuildingBlock: TEMPAE_clean_linker_10, # of connection points: 2
#     Edge 34, Type (0, 1), BuildingBlock: TEMPAE_clean_linker_10, # of connection points: 2
#     Edge 35, Type (0, 1), BuildingBlock: TEMPAE_clean_linker_10, # of connection points: 2
#     Edge 36, Type (0, 1), BuildingBlock: TEMPAE_clean_linker_10, # of connection points: 2
#     Edge 37, Type (0, 1), BuildingBlock: TEMPAE_clean_linker_10, # of connection points: 2
#     Edge 38, Type (0, 1), BuildingBlock: TEMPAE_clean_linker_10, # of connection points: 2
#     Edge 39, Type (0, 1), BuildingBlock: TEMPAE_clean_linker_10, # of connection points: 2
#     Edge 40, Type (0, 1), BuildingBlock: TEMPAE_clean_linker_10, # of connection points: 2
#     Edge 41, Type (0, 1), BuildingBlock: TEMPAE_clean_linker_10, # of connection points: 2
#     Edge 42, Type (0, 1), BuildingBlock: TEMPAE_clean_linker_10, # of connection points: 2
#     Edge 43, Type (0, 1), BuildingBlock: TEMPAE_clean_linker_10, # of connection points: 2
#     Edge 44, Type (0, 1), BuildingBlock: TEMPAE_clean_linker_10, # of connection points: 2
#     Edge 45, Type (0, 1), BuildingBlock: TEMPAE_clean_linker_10, # of connection points: 2
#     Edge 46, Type (0, 1), BuildingBlock: TEMPAE_clean_linker_10, # of connection points: 2
#     Edge 47, Type (0, 1), BuildingBlock: TEMPAE_clean_linker_10, # of connection points: 2
# Relax obj value: 0.123
# Max RMSD: 0.149
# Mean RMSD: 0.134
data_MOF--net-wbl--node1-CEKHIL_clean_sbu_0--node2-MUDLON_clean_linker_0--edge1-TEMPAE_clean_linker_10
_symmetry_space_group_name_H-M    P1
_symmetry_Int_Tables_number       1
_symmetry_cell_setting            triclinic
loop_
_symmetry_equiv_pos_as_xyz
'x, y, z'
_cell_length_a     53.905381
_cell_length_b     54.132364
_cell_length_c     77.456519
_cell_angle_alpha  90.29893
_cell_angle_beta   90.101967
_cell_angle_gamma 89.997116
loop_
_atom_site_label
_atom_site_type_symbol
_atom_site_fract_x
_atom_site_fract_y
_atom_site_fract_z
_atom_type_partial_charge
H0 H 0.12759 0.98965 0.32644 0.0
N1 N 0.09433 0.97302 0.30372 0.0
H2 H 0.13705 0.97231 0.35487 0.0
H3 H 0.0683 0.93713 0.31994 0.0
H4 H 0.07819 0.91886 0.34779 0.0
H5 H 0.08507 0.92624 0.29266 0.0
H6 H 0.11537 0.89974 0.27789 0.0
H7 H 0.13305 0.98901 0.28573 0.0
H8 H 0.16275 0.96293 0.27012 0.0
H9 H 0.09816 0.02117 0.29818 0.0
H10 H 0.04562 0.96141 0.2999 0.0
H11 H 0.06435 0.05073 0.29437 0.0
H12 H 0.01134 0.99088 0.29711 0.0
H13 H 0.9521 0.13785 0.31543 0.0
H14 H 0.93361 0.14668 0.34368 0.0
H15 H 0.92068 0.06869 0.35104 0.0
H16 H 0.93944 0.06003 0.32284 0.0
H17 H 0.91833 0.05995 0.29578 0.0
H18 H 0.8784 0.06726 0.28195 0.0
H19 H 0.90436 0.13802 0.26406 0.0
H20 H 0.94476 0.13034 0.27765 0.0
H21 H 1.00015 0.09781 0.31332 0.0
H22 H 0.03379 0.06795 0.3124 0.0
H23 H 0.98942 0.02032 0.27975 0.0
N24 N 0.95533 0.09436 0.29955 0.0
H25 H 0.95559 0.04978 0.2811 0.0
C26 C 0.09731 0.96471 0.32117 0.0
C27 C 0.11648 0.97455 0.33129 0.0
C28 C 0.12202 0.96438 0.34738 0.0
C29 C 0.10858 0.94396 0.35356 0.0
C30 C 0.08878 0.93472 0.34357 0.0
C31 C 0.08312 0.94509 0.32757 0.0
C32 C 0.10714 0.95948 0.29051 0.0
C33 C 0.10163 0.93449 0.28736 0.0
C34 C 0.11887 0.9194 0.27891 0.0
C35 C 0.14134 0.92937 0.27301 0.0
C36 C 0.14545 0.9549 0.27446 0.0
C37 C 0.12853 0.96981 0.2833 0.0
C38 C 0.07429 0.98932 0.29952 0.0
C39 C 0.07923 0.0145 0.29762 0.0
C40 C 0.05985 0.03133 0.29565 0.0
C41 C 0.03501 0.0233 0.2958 0.0
C42 C 0.03019 0.99776 0.29688 0.0
C43 C 0.04972 0.98088 0.29864 0.0
C44 C 0.94709 0.09841 0.31705 0.0
C45 C 0.94564 0.12269 0.3233 0.0
C46 C 0.93507 0.12766 0.33938 0.0
C47 C 0.92556 0.10837 0.34948 0.0
C48 C 0.92757 0.08392 0.34341 0.0
C49 C 0.93836 0.07895 0.32736 0.0
C50 C 0.93479 0.09455 0.28758 0.0
C51 C 0.91596 0.07653 0.28822 0.0
C52 C 0.89305 0.08074 0.28033 0.0
C53 C 0.88834 0.10325 0.27203 0.0
C54 C 0.90761 0.12052 0.27039 0.0
C55 C 0.93069 0.11607 0.278 0.0
C56 C 0.97492 0.07619 0.2977 0.0
C57 C 0.99762 0.08091 0.30597 0.0
C58 C 0.01697 0.06386 0.30528 0.0
C59 C 0.0144 0.04165 0.29597 0.0
C60 C 0.9919 0.03704 0.28729 0.0
C61 C 0.97236 0.05409 0.28811 0.0
H62 H 0.98002 0.3893 0.57781 0.0
N63 N 0.96484 0.42773 0.55789 0.0
H64 H 0.96225 0.37743 0.60545 0.0
H65 H 0.936 0.45567 0.57787 0.0
H66 H 0.91978 0.44531 0.60631 0.0
H67 H 0.92122 0.42544 0.54202 0.0
H68 H 0.90336 0.38903 0.52783 0.0
H69 H 0.99124 0.38787 0.5469 0.0
H70 H 0.97363 0.35132 0.53272 0.0
H71 H 0.01489 0.42175 0.55848 0.0
H72 H 0.95658 0.47437 0.54943 0.0
H73 H 0.04599 0.45423 0.55453 0.0
H74 H 0.98708 0.50735 0.54661 0.0
H75 H 0.13161 0.57603 0.56771 0.0
H76 H 0.13981 0.59302 0.59652 0.0
H77 H 0.06126 0.59119 0.60758 0.0
H78 H 0.05326 0.57483 0.57865 0.0
H79 H 0.04975 0.59948 0.55265 0.0
H80 H 0.05141 0.64005 0.53903 0.0
H81 H 0.12202 0.6211 0.51623 0.0
H82 H 0.12006 0.58046 0.52981 0.0
H83 H 0.09099 0.52269 0.56988 0.0
H84 H 0.06228 0.48814 0.5691 0.0
H85 H 0.01836 0.52602 0.53072 0.0
N86 N 0.08779 0.56583 0.55349 0.0
H87 H 0.04627 0.56095 0.53215 0.0
C88 C 0.95883 0.42313 0.57565 0.0
C89 C 0.96694 0.40162 0.584 0.0
C90 C 0.95687 0.39497 0.59994 0.0
C91 C 0.93903 0.41009 0.60804 0.0
C92 C 0.9327 0.43268 0.60022 0.0
C93 C 0.94225 0.43892 0.5841 0.0
C94 C 0.95744 0.40931 0.5455 0.0
C95 C 0.93297 0.40964 0.53939 0.0
C96 C 0.9228 0.38879 0.53137 0.0
C97 C 0.93699 0.36718 0.52942 0.0
C98 C 0.96215 0.3676 0.5343 0.0
C99 C 0.97233 0.38856 0.54223 0.0
C100 C 0.98352 0.44574 0.554 0.0
C101 C 0.00886 0.44028 0.55541 0.0
C102 C 0.02656 0.45902 0.5534 0.0
C103 C 0.01918 0.48364 0.55033 0.0
C104 C 0.99368 0.4887 0.5486 0.0
C105 C 0.97613 0.46991 0.55032 0.0
C106 C 0.09197 0.57394 0.57108 0.0
C107 C 0.11625 0.57913 0.57644 0.0
C108 C 0.12085 0.58882 0.59289 0.0
C109 C 0.10117 0.59351 0.60435 0.0
C110 C 0.0768 0.58817 0.59899 0.0
C111 C 0.07221 0.57857 0.58251 0.0
C112 C 0.08492 0.5869 0.54227 0.0
C113 C 0.06525 0.60378 0.54435 0.0
C114 C 0.0663 0.62705 0.53664 0.0
C115 C 0.08703 0.63395 0.52677 0.0
C116 C 0.10571 0.61635 0.52365 0.0
C117 C 0.10463 0.59309 0.53136 0.0
C118 C 0.07058 0.54523 0.55177 0.0
C119 C 0.07502 0.52372 0.56141 0.0
C120 C 0.05869 0.50371 0.56075 0.0
C121 C 0.03767 0.50424 0.54999 0.0
C122 C 0.03389 0.52517 0.53958 0.0
C123 C 0.05006 0.5454 0.54043 0.0
H124 H 0.63353 0.4834 0.8225 0.0
N125 N 0.59106 0.48106 0.80518 0.0
H126 H 0.64379 0.46296 0.84964 0.0
H127 H 0.558 0.45805 0.82674 0.0
H128 H 0.56763 0.43882 0.8542 0.0
H129 H 0.57941 0.4323 0.80061 0.0
H130 H 0.60581 0.40254 0.78532 0.0
H131 H 0.6231 0.49219 0.78048 0.0
H132 H 0.64887 0.46266 0.7646 0.0
H133 H 0.59017 0.5298 0.80432 0.0
H134 H 0.54363 0.46578 0.79807 0.0
H135 H 0.55415 0.5567 0.80135 0.0
H136 H 0.50691 0.49244 0.79629 0.0
H137 H 0.43588 0.63649 0.81731 0.0
H138 H 0.4188 0.64564 0.84589 0.0
H139 H 0.41311 0.56737 0.85598 0.0
H140 H 0.42966 0.5585 0.8272 0.0
H141 H 0.4081 0.55568 0.7994 0.0
H142 H 0.36737 0.56062 0.78582 0.0
H143 H 0.38919 0.63237 0.76721 0.0
H144 H 0.43011 0.62714 0.78056 0.0
H145 H 0.48576 0.5962 0.81939 0.0
H146 H 0.52105 0.56854 0.81857 0.0
H147 H 0.48317 0.52265 0.78106 0.0
N148 N 0.44278 0.5924 0.80284 0.0
H149 H 0.44729 0.54981 0.78252 0.0
C150 C 0.59503 0.47256 0.8226 0.0
C151 C 0.619 0.47407 0.82957 0.0
C152 C 0.62479 0.46236 0.84509 0.0
C153 C 0.60659 0.44902 0.85409 0.0
C154 C 0.58226 0.44847 0.84746 0.0
C155 C 0.57658 0.45988 0.8318 0.0
C156 C 0.5997 0.46447 0.79191 0.0
C157 C 0.59396 0.43912 0.79229 0.0
C158 C 0.60906 0.42212 0.78359 0.0
C159 C 0.62952 0.43034 0.77397 0.0
C160 C 0.63316 0.45584 0.77186 0.0
C161 C 0.61844 0.47275 0.78087 0.0
C162 C 0.56949 0.49593 0.80178 0.0
C163 C 0.57204 0.52161 0.80233 0.0
C164 C 0.55135 0.5369 0.80082 0.0
C165 C 0.52739 0.52681 0.79905 0.0
C166 C 0.52499 0.50094 0.79765 0.0
C167 C 0.54593 0.48561 0.79885 0.0
C168 C 0.43419 0.59693 0.82021 0.0
C169 C 0.43106 0.62138 0.82578 0.0
C170 C 0.42135 0.62652 0.8421 0.0
C171 C 0.41458 0.60723 0.85323 0.0
C172 C 0.4178 0.58265 0.84763 0.0
C173 C 0.42745 0.57753 0.83126 0.0
C174 C 0.42228 0.59105 0.79087 0.0
C175 C 0.40455 0.57198 0.79175 0.0
C176 C 0.38126 0.57484 0.78403 0.0
C177 C 0.37517 0.59696 0.77562 0.0
C178 C 0.39348 0.61517 0.77366 0.0
C179 C 0.41687 0.61211 0.78112 0.0
C180 C 0.46331 0.57511 0.80147 0.0
C181 C 0.48486 0.58005 0.8111 0.0
C182 C 0.50526 0.5643 0.81042 0.0
C183 C 0.50517 0.54331 0.79965 0.0
C184 C 0.4838 0.53841 0.78971 0.0
C185 C 0.4631 0.55412 0.79057 0.0
H186 H 0.45533 0.90386 0.06853 0.0
N187 N 0.44047 0.94607 0.05168 0.0
H188 H 0.44166 0.89 0.09647 0.0
H189 H 0.41323 0.97112 0.07452 0.0
H190 H 0.40095 0.9582 0.10351 0.0
H191 H 0.39765 0.9342 0.03684 0.0
H192 H 0.3875 0.89477 0.0228 0.0
H193 H 0.4748 0.91305 0.03852 0.0
H194 H 0.46459 0.87371 0.02498 0.0
H195 H 0.48746 0.9359 0.06347 0.0
H196 H 0.44338 0.99004 0.03671 0.0
H197 H 0.52315 0.96329 0.06252 0.0
H198 H 0.47896 0.01824 0.03631 0.0
H199 H 0.629 0.05579 0.07196 0.0
H200 H 0.63982 0.06984 0.10111 0.0
H201 H 0.56655 0.10145 0.10662 0.0
H202 H 0.55556 0.08601 0.07806 0.0
H203 H 0.55067 0.09728 0.04947 0.0
H204 H 0.55808 0.13735 0.03604 0.0
H205 H 0.63226 0.11429 0.02251 0.0
H206 H 0.62479 0.07427 0.03615 0.0
H207 H 0.57026 0.02803 0.07886 0.0
H208 H 0.53572 0.99996 0.0766 0.0
H209 H 0.52025 0.02628 0.02517 0.0
N210 N 0.58608 0.06175 0.05538 0.0
H211 H 0.55454 0.05529 0.02756 0.0
C212 C 0.43484 0.93848 0.06913 0.0
C213 C 0.44332 0.91589 0.0759 0.0
C214 C 0.4357 0.90804 0.09217 0.0
C215 C 0.42001 0.92284 0.10239 0.0
C216 C 0.4125 0.94596 0.09591 0.0
C217 C 0.41971 0.95355 0.07941 0.0
C218 C 0.43684 0.92665 0.03903 0.0
C219 C 0.41251 0.92154 0.0336 0.0
C220 C 0.40672 0.89902 0.02564 0.0
C221 C 0.42525 0.88118 0.02311 0.0
C222 C 0.44998 0.88718 0.02697 0.0
C223 C 0.45581 0.90982 0.03469 0.0
C224 C 0.46261 0.96092 0.0501 0.0
C225 C 0.48545 0.95363 0.05726 0.0
C226 C 0.50587 0.96949 0.05686 0.0
C227 C 0.5039 0.99317 0.04954 0.0
C228 C 0.48125 1.0001 0.04192 0.0
C229 C 0.46087 0.98408 0.04219 0.0
C230 C 0.59163 0.0699 0.07279 0.0
C231 C 0.61532 0.06562 0.07956 0.0
C232 C 0.6215 0.07391 0.09614 0.0
C233 C 0.6041 0.08694 0.10623 0.0
C234 C 0.58033 0.09125 0.09935 0.0
C235 C 0.57409 0.08271 0.08288 0.0
C236 C 0.58735 0.08277 0.04395 0.0
C237 C 0.56837 0.10063 0.04336 0.0
C238 C 0.57265 0.12357 0.03572 0.0
C239 C 0.59588 0.12907 0.02847 0.0
C240 C 0.61414 0.11056 0.02793 0.0
C241 C 0.6099 0.08768 0.03566 0.0
C242 C 0.56443 0.04561 0.05396 0.0
C243 C 0.55916 0.0286 0.06721 0.0
C244 C 0.53953 0.01196 0.06578 0.0
C245 C 0.52496 0.01095 0.05076 0.0
C246 C 0.53067 0.02703 0.03713 0.0
C247 C 0.55035 0.04386 0.03859 0.0
H248 H 0.13518 0.52551 0.92709 0.0
N249 N 0.09309 0.52763 0.94472 0.0
H250 H 0.14508 0.54665 0.90021 0.0
H251 H 0.05976 0.55151 0.92383 0.0
H252 H 0.06901 0.57153 0.89648 0.0
H253 H 0.08134 0.57642 0.94961 0.0
H254 H 0.10766 0.60618 0.96488 0.0
H255 H 0.12621 0.51666 0.96887 0.0
H256 H 0.15211 0.54632 0.98463 0.0
H257 H 0.08553 0.48021 0.93856 0.0
H258 H 0.04909 0.54571 0.95759 0.0
H259 H 0.04712 0.45689 0.94163 0.0
H260 H 0.01065 0.52232 0.96139 0.0
H261 H 0.94203 0.38503 0.93275 0.0
H262 H 0.92598 0.37289 0.90437 0.0
H263 H 0.90129 0.4479 0.89601 0.0
H264 H 0.91604 0.45932 0.92459 0.0
H265 H 0.90347 0.46524 0.95438 0.0
H266 H 0.86305 0.45918 0.96789 0.0
H267 H 0.88407 0.38491 0.98167 0.0
H268 H 0.92462 0.39115 0.96815 0.0
H269 H 0.98156 0.4146 0.95963 0.0
H270 H 0.01936 0.43938 0.96168 0.0
H271 H 0.97837 0.5035 0.94471 0.0
N272 N 0.93748 0.42858 0.94831 0.0
H273 H 0.94067 0.47894 0.9436 0.0
C274 C 0.09677 0.53666 0.92741 0.0
C275 C 0.12058 0.53516 0.92026 0.0
C276 C 0.12617 0.54727 0.90488 0.0
C277 C 0.10789 0.56098 0.89617 0.0
C278 C 0.08369 0.56158 0.90299 0.0
C279 C 0.07822 0.54975 0.91853 0.0
C280 C 0.10216 0.54426 0.95789 0.0
C281 C 0.09616 0.56959 0.95773 0.0
C282 C 0.11122 0.58662 0.96641 0.0
C283 C 0.13203 0.57851 0.97573 0.0
C284 C 0.1361 0.55303 0.9776 0.0
C285 C 0.12132 0.53607 0.96865 0.0
C286 C 0.0703 0.51454 0.94794 0.0
C287 C 0.06927 0.48941 0.94369 0.0
C288 C 0.0473 0.4761 0.94559 0.0
C289 C 0.02572 0.48762 0.95191 0.0
C290 C 0.02683 0.51288 0.95636 0.0
C291 C 0.04889 0.52626 0.95434 0.0
C292 C 0.93072 0.4231 0.93071 0.0
C293 C 0.93344 0.39885 0.92463 0.0
C294 C 0.92425 0.39199 0.90842 0.0
C295 C 0.91223 0.4094 0.89788 0.0
C296 C 0.91004 0.43389 0.90387 0.0
C297 C 0.91896 0.44062 0.92017 0.0
C298 C 0.91711 0.42855 0.96025 0.0
C299 C 0.89988 0.44803 0.96089 0.0
C300 C 0.8767 0.44453 0.96861 0.0
C301 C 0.87039 0.42147 0.9756 0.0
C302 C 0.88843 0.40279 0.97623 0.0
C303 C 0.91161 0.40638 0.96867 0.0
C304 C 0.95834 0.44467 0.95126 0.0
C305 C 0.98072 0.43411 0.95666 0.0
C306 C 0.00233 0.44828 0.95765 0.0
C307 C 0.00209 0.4734 0.95304 0.0
C308 C 0.97931 0.48427 0.94843 0.0
C309 C 0.95762 0.47008 0.94761 0.0
H310 H 0.54437 0.40379 0.17517 0.0
N311 N 0.56631 0.43951 0.19544 0.0
H312 H 0.55575 0.39222 0.14614 0.0
H313 H 0.60199 0.459 0.17617 0.0
H314 H 0.61525 0.44586 0.14736 0.0
H315 H 0.60887 0.43048 0.21133 0.0
H316 H 0.62129 0.39169 0.22502 0.0
H317 H 0.53421 0.40278 0.20594 0.0
H318 H 0.54655 0.36421 0.21933 0.0
H319 H 0.51742 0.42958 0.1869 0.0
H320 H 0.56591 0.48437 0.20946 0.0
H321 H 0.48276 0.45748 0.18944 0.0
H322 H 0.53088 0.5132 0.21144 0.0
H323 H 0.37782 0.55498 0.1824 0.0
H324 H 0.3654 0.57246 0.15456 0.0
H325 H 0.44101 0.59566 0.14573 0.0
H326 H 0.45313 0.57845 0.17356 0.0
H327 H 0.45913 0.59141 0.20268 0.0
H328 H 0.45303 0.63237 0.21542 0.0
H329 H 0.37816 0.6125 0.22924 0.0
H330 H 0.38444 0.57134 0.21666 0.0
H331 H 0.4355 0.52215 0.17372 0.0
H332 H 0.46997 0.49379 0.17477 0.0
H333 H 0.49041 0.52187 0.22508 0.0
N334 N 0.42239 0.55701 0.19729 0.0
H335 H 0.45608 0.55098 0.22397 0.0
C336 C 0.57185 0.43295 0.17778 0.0
C337 C 0.55926 0.41379 0.1691 0.0
C338 C 0.56629 0.40667 0.15249 0.0
C339 C 0.58663 0.41789 0.1443 0.0
C340 C 0.59924 0.43703 0.15305 0.0
C341 C 0.59177 0.44455 0.16955 0.0
C342 C 0.57075 0.41965 0.2074 0.0
C343 C 0.59498 0.41643 0.21363 0.0
C344 C 0.60205 0.39426 0.22138 0.0
C345 C 0.58495 0.37486 0.22292 0.0
C346 C 0.56018 0.3788 0.21802 0.0
C347 C 0.55308 0.40102 0.21039 0.0
C348 C 0.54462 0.45475 0.19804 0.0
C349 C 0.5208 0.44747 0.19256 0.0
C350 C 0.50079 0.46369 0.19386 0.0
C351 C 0.50405 0.48774 0.2004 0.0
C352 C 0.52766 0.49476 0.20643 0.0
C353 C 0.54771 0.47837 0.20524 0.0
C354 C 0.41628 0.56537 0.18007 0.0
C355 C 0.39169 0.56361 0.17434 0.0
C356 C 0.38468 0.57357 0.15845 0.0
C357 C 0.40222 0.58557 0.148 0.0
C358 C 0.427 0.58691 0.15362 0.0
C359 C 0.43398 0.57696 0.16949 0.0
C360 C 0.42215 0.5782 0.20873 0.0
C361 C 0.44171 0.59549 0.20899 0.0
C362 C 0.43822 0.6189 0.21629 0.0
C363 C 0.41505 0.62556 0.22313 0.0
C364 C 0.39615 0.60778 0.22396 0.0
C365 C 0.39978 0.58426 0.21693 0.0
C366 C 0.4438 0.54052 0.19811 0.0
C367 C 0.44766 0.52298 0.18485 0.0
C368 C 0.46725 0.50625 0.18558 0.0
C369 C 0.48318 0.50571 0.19992 0.0
C370 C 0.47888 0.52228 0.21362 0.0
C371 C 0.45919 0.53917 0.21288 0.0
H372 H 0.39855 0.95155 0.42963 0.0
N373 N 0.43926 0.93637 0.4483 0.0
H374 H 0.38649 0.93757 0.40102 0.0
H375 H 0.46365 0.90527 0.42766 0.0
H376 H 0.45181 0.89144 0.39857 0.0
H377 H 0.42746 0.89462 0.46416 0.0
H378 H 0.38816 0.88526 0.47865 0.0
H379 H 0.40529 0.97096 0.4598 0.0
H380 H 0.36631 0.96159 0.47397 0.0
H381 H 0.42879 0.9823 0.43496 0.0
H382 H 0.48259 0.94125 0.46445 0.0
H383 H 0.45484 0.01869 0.43649 0.0
H384 H 0.50954 0.97776 0.46551 0.0
H385 H 0.54439 0.13039 0.43265 0.0
H386 H 0.5638 0.14293 0.40547 0.0
H387 H 0.59396 0.06944 0.39932 0.0
H388 H 0.57481 0.05723 0.42649 0.0
H389 H 0.58483 0.05318 0.45627 0.0
H390 H 0.62457 0.06302 0.46984 0.0
H391 H 0.59843 0.13672 0.48112 0.0
H392 H 0.55857 0.12673 0.46752 0.0
H393 H 0.5182 0.0689 0.42331 0.0
H394 H 0.49222 0.03271 0.42413 0.0
H395 H 0.51423 0.01958 0.47691 0.0
N396 N 0.54851 0.087 0.44853 0.0
H397 H 0.54118 0.05558 0.47601 0.0
C398 C 0.4322 0.92946 0.4309 0.0
C399 C 0.41046 0.93854 0.42303 0.0
C400 C 0.40354 0.93056 0.40656 0.0
C401 C 0.41815 0.91336 0.39751 0.0
C402 C 0.43997 0.90446 0.4053 0.0
C403 C 0.44689 0.91247 0.42183 0.0
C404 C 0.41942 0.93333 0.46064 0.0
C405 C 0.41458 0.9095 0.46685 0.0
C406 C 0.39217 0.90417 0.47509 0.0
C407 C 0.37417 0.92267 0.47714 0.0
C408 C 0.37986 0.94698 0.47234 0.0
C409 C 0.40231 0.95234 0.46425 0.0
C410 C 0.45372 0.9588 0.44961 0.0
C411 C 0.44621 0.981 0.44179 0.0
C412 C 0.46132 0.00191 0.44257 0.0
C413 C 0.48448 0.00114 0.45094 0.0
C414 C 0.49174 0.9791 0.45907 0.0
C415 C 0.47646 0.95819 0.45841 0.0
C416 C 0.55808 0.09297 0.4316 0.0
C417 C 0.55496 0.11698 0.4253 0.0
C418 C 0.56605 0.12407 0.4098 0.0
C419 C 0.58056 0.10721 0.40032 0.0
C420 C 0.58328 0.08298 0.40649 0.0
C421 C 0.57221 0.07592 0.42197 0.0
C422 C 0.56865 0.08933 0.46081 0.0
C423 C 0.58726 0.07116 0.4622 0.0
C424 C 0.60999 0.0768 0.46999 0.0
C425 C 0.61464 0.10074 0.47632 0.0
C426 C 0.59536 0.11819 0.47621 0.0
C427 C 0.57255 0.11245 0.46861 0.0
C428 C 0.53361 0.06447 0.44912 0.0
C429 C 0.51832 0.058 0.43498 0.0
C430 C 0.50288 0.03738 0.43555 0.0
C431 C 0.50128 0.02298 0.45053 0.0
C432 C 0.51556 0.02985 0.46499 0.0
C433 C 0.5312 0.05051 0.4644 0.0
H434 H 0.04278 0.90239 0.67889 0.0
N435 N 0.06302 0.94175 0.69653 0.0
H436 H 0.05415 0.8881 0.65022 0.0
H437 H 0.09393 0.96328 0.67456 0.0
H438 H 0.10491 0.94948 0.64538 0.0
H439 H 0.10635 0.93246 0.71128 0.0
H440 H 0.11853 0.89435 0.72591 0.0
H441 H 0.03052 0.90718 0.70955 0.0
H442 H 0.04264 0.86908 0.72388 0.0
H443 H 0.01421 0.93246 0.68825 0.0
H444 H 0.06385 0.98723 0.70943 0.0
H445 H 0.98021 0.96183 0.68944 0.0
H446 H 0.02994 0.01733 0.70999 0.0
H447 H 0.87964 0.06246 0.67832 0.0
H448 H 0.86771 0.07632 0.64946 0.0
H449 H 0.94339 0.0992 0.64015 0.0
H450 H 0.95528 0.0838 0.66844 0.0
H451 H 0.96104 0.09996 0.6958 0.0
H452 H 0.95612 0.14135 0.7081 0.0
H453 H 0.88361 0.12136 0.72699 0.0
H454 H 0.88833 0.08009 0.71418 0.0
H455 H 0.93537 0.02736 0.67126 0.0
H456 H 0.96818 0.9972 0.67375 0.0
H457 H 0.9906 0.02947 0.72242 0.0
N458 N 0.92423 0.06506 0.69311 0.0
H459 H 0.95817 0.06036 0.71976 0.0
C460 C 0.06764 0.934 0.67897 0.0
C461 C 0.05624 0.91295 0.67172 0.0
C462 C 0.06271 0.90478 0.65521 0.0
C463 C 0.08058 0.91752 0.64553 0.0
C464 C 0.09144 0.93894 0.65262 0.0
C465 C 0.08503 0.94703 0.66919 0.0
C466 C 0.06766 0.92273 0.70911 0.0
C467 C 0.0922 0.91911 0.71459 0.0
C468 C 0.09913 0.89731 0.72289 0.0
C469 C 0.08158 0.87862 0.72574 0.0
C470 C 0.0566 0.88308 0.72158 0.0
C471 C 0.04963 0.90501 0.71345 0.0
C472 C 0.04173 0.95758 0.6989 0.0
C473 C 0.01781 0.95068 0.69342 0.0
C474 C 0.99834 0.96771 0.69389 0.0
C475 C 0.00234 0.99212 0.69959 0.0
C476 C 0.02607 0.99867 0.70566 0.0
C477 C 0.0455 0.98153 0.70532 0.0
C478 C 0.91821 0.07214 0.6756 0.0
C479 C 0.89362 0.07022 0.66992 0.0
C480 C 0.88683 0.07846 0.65351 0.0
C481 C 0.90453 0.08914 0.64246 0.0
C482 C 0.92928 0.09087 0.64817 0.0
C483 C 0.93609 0.08232 0.66448 0.0
C484 C 0.92482 0.08696 0.70388 0.0
C485 C 0.94424 0.10429 0.7028 0.0
C486 C 0.94144 0.12793 0.70984 0.0
C487 C 0.91937 0.13457 0.71829 0.0
C488 C 0.90085 0.11666 0.7206 0.0
C489 C 0.90353 0.09311 0.71335 0.0
C490 C 0.94489 0.04774 0.69462 0.0
C491 C 0.94766 0.02865 0.68229 0.0
C492 C 0.96626 0.0109 0.6839 0.0
C493 C 0.98226 0.01097 0.69822 0.0
C494 C 0.97902 0.02925 0.71098 0.0
C495 C 0.96041 0.04717 0.70934 0.0
Co496 Co 0.33712 0.66249 0.00575 0.0
O497 O 0.31358 0.63598 0.00383 0.0
O498 O 0.30604 0.67489 0.99672 0.0
C499 C 0.34991 0.65315 0.03269 0.0
O500 O 0.35628 0.69494 0.00652 0.0
Co501 Co 0.39327 0.65158 0.01011 0.0
O502 O 0.39678 0.68795 0.01172 0.0
C503 C 0.36893 0.64271 0.97658 0.0
C504 C 0.29801 0.65234 -0.00182 0.0
C505 C 0.37862 0.70253 0.00912 0.0
O506 O 0.34968 0.65476 0.98173 0.0
O507 O 0.38704 0.63729 0.98658 0.0
O508 O 0.32986 0.66602 0.03032 0.0
O509 O 0.36035 0.64485 0.01884 0.0
Co510 Co 0.34873 0.84979 0.24475 0.0
O511 O 0.32557 0.87644 0.24805 0.0
O512 O 0.31782 0.83704 0.2536 0.0
C513 C 0.36057 0.86161 0.21814 0.0
O514 O 0.36697 0.81701 0.24254 0.0
Co515 Co 0.40484 0.85798 0.23909 0.0
O516 O 0.40535 0.82269 0.23211 0.0
C517 C 0.38333 0.86378 0.27412 0.0
C518 C 0.30994 0.85972 0.25308 0.0
C519 C 0.38752 0.80862 0.23647 0.0
O520 O 0.36232 0.85529 0.26878 0.0
O521 O 0.4017 0.86773 0.26402 0.0
O522 O 0.34064 0.84845 0.22017 0.0
O523 O 0.37192 0.86819 0.23211 0.0
Co524 Co 0.15028 0.84765 0.49413 0.0
O525 O 0.12191 0.82591 0.49391 0.0
O526 O 0.15935 0.81588 0.50336 0.0
C527 C 0.14542 0.86224 0.46714 0.0
O528 O 0.18429 0.864 0.49563 0.0
Co529 Co 0.14474 0.90461 0.49044 0.0
O530 O 0.18145 0.90477 0.49033 0.0
C531 C 0.1311 0.88057 0.52313 0.0
C532 C 0.13655 0.80927 0.50037 0.0
C533 C 0.19411 0.88545 0.49354 0.0
O534 O 0.14088 0.86012 0.51792 0.0
O535 O 0.1288 0.89949 0.51341 0.0
O536 O 0.15595 0.84093 0.46958 0.0
O537 O 0.1363 0.8727 0.48071 0.0
Co538 Co 0.15062 0.66673 0.75895 0.0
O539 O 0.12372 0.69007 0.75878 0.0
O540 O 0.16215 0.6983 0.75052 0.0
C541 C 0.14256 0.65194 0.78552 0.0
O542 O 0.18347 0.64807 0.75815 0.0
Co543 Co 0.14152 0.61027 0.76201 0.0
O544 O 0.17751 0.60929 0.76754 0.0
C545 C 0.13187 0.63566 0.72891 0.0
C546 C 0.1396 0.70607 0.75306 0.0
C547 C 0.19174 0.62701 0.76323 0.0
O548 O 0.14201 0.65559 0.73474 0.0
O549 O 0.12821 0.61651 0.73822 0.0
O550 O 0.15527 0.67219 0.78378 0.0
O551 O 0.13389 0.64249 0.77144 0.0
Co552 Co 0.8429 0.16625 0.49142 0.0
O553 O 0.87207 0.18652 0.49306 0.0
O554 O 0.83447 0.19825 0.50112 0.0
C555 C 0.85085 0.15322 0.46425 0.0
O556 O 0.80818 0.15111 0.49088 0.0
Co557 Co 0.84589 0.10971 0.48576 0.0
O558 O 0.8104 0.11288 0.47956 0.0
C559 C 0.85503 0.13073 0.52057 0.0
C560 C 0.85779 0.20375 0.49915 0.0
C561 C 0.79791 0.13149 0.48467 0.0
O562 O 0.84942 0.15249 0.51518 0.0
O563 O 0.8559 0.11169 0.51069 0.0
O564 O 0.83996 0.1743 0.46695 0.0
O565 O 0.85771 0.14146 0.47791 0.0
Co566 Co 0.83732 0.35279 0.74446 0.0
O567 O 0.81294 0.37859 0.74632 0.0
O568 O 0.80601 0.33915 0.75211 0.0
C569 C 0.85186 0.36384 0.71838 0.0
O570 O 0.85732 0.32088 0.74335 0.0
Co571 Co 0.89357 0.36501 0.74207 0.0
O572 O 0.89752 0.32903 0.73805 0.0
C573 C 0.86694 0.37174 0.77497 0.0
C574 C 0.79747 0.36157 0.75108 0.0
C575 C 0.87969 0.31388 0.74017 0.0
O576 O 0.84826 0.35945 0.76906 0.0
O577 O 0.88544 0.37803 0.76564 0.0
O578 O 0.83195 0.3504 0.71951 0.0
O579 O 0.86094 0.37166 0.73281 0.0
Co580 Co 0.64942 0.34447 0.99183 0.0
O581 O 0.62388 0.31965 0.99235 0.0
O582 O 0.66282 0.31378 0.0005 0.0
C583 C 0.64057 0.35854 0.96517 0.0
O584 O 0.68102 0.36499 0.99243 0.0
Co585 Co 0.63659 0.40032 0.98853 0.0
O586 O 0.67266 0.40368 0.98368 0.0
C587 C 0.62861 0.37456 0.02153 0.0
C588 C 0.64069 0.3047 -0.00178 0.0
C589 C 0.68794 0.38671 0.98779 0.0
O590 O 0.64062 0.35558 0.01596 0.0
O591 O 0.62295 0.39307 0.01208 0.0
O592 O 0.65417 0.33888 0.96704 0.0
O593 O 0.63132 0.36757 0.97918 0.0
Co594 Co 0.66025 0.16601 0.25801 0.0
O595 O 0.63163 0.18698 0.25594 0.0
O596 O 0.66965 0.19706 0.24775 0.0
C597 C 0.65213 0.15462 0.28538 0.0
O598 O 0.69454 0.15023 0.25877 0.0
Co599 Co 0.65639 0.10988 0.26473 0.0
O600 O 0.69209 0.11251 0.27056 0.0
C601 C 0.64755 0.12922 0.22954 0.0
C602 C 0.64653 0.20342 0.24959 0.0
C603 C 0.70468 0.13075 0.26509 0.0
O604 O 0.6535 0.15114 0.23455 0.0
O605 O 0.64633 0.11073 0.23976 0.0
O606 O 0.66339 0.17534 0.28227 0.0
O607 O 0.64498 0.14223 0.27197 0.0
C608 C 0.17458 0.91582 0.25262 0.0
C609 C 0.16227 0.91308 0.26837 0.0
C610 C 0.1972 0.90371 0.24955 0.0
C611 C 0.20805 0.88934 0.26282 0.0
C612 C 0.19502 0.88562 0.27845 0.0
C613 C 0.17211 0.89735 0.28095 0.0
C614 C 0.21015 0.90749 0.23251 0.0
C615 C 0.20614 0.87094 0.29307 0.0
C616 C 0.26472 0.84975 0.25307 0.0
C617 C 0.28399 0.86627 0.25692 0.0
C618 C 0.23979 0.85692 0.25489 0.0
C619 C 0.23419 0.88088 0.2612 0.0
C620 C 0.2537 0.89721 0.26576 0.0
C621 C 0.27836 0.88983 0.26329 0.0
C622 C 0.21951 0.83926 0.24949 0.0
C623 C 0.24853 0.92265 0.27302 0.0
H624 H 0.16691 0.92807 0.24295 0.0
H625 H 0.16268 0.89558 0.29324 0.0
H626 H 0.22635 0.91986 0.23441 0.0
H627 H 0.21721 0.88965 0.2274 0.0
H628 H 0.1977 0.91591 0.22273 0.0
H629 H 0.19253 0.86749 0.30353 0.0
H630 H 0.2133 0.85295 0.28833 0.0
H631 H 0.2221 0.88127 0.29861 0.0
H632 H 0.26911 0.8316 0.24794 0.0
H633 H 0.2933 0.90255 0.26634 0.0
H634 H 0.20894 0.84722 0.23854 0.0
H635 H 0.20621 0.83652 0.26022 0.0
H636 H 0.22693 0.82097 0.24548 0.0
H637 H 0.23886 0.93401 0.26322 0.0
H638 H 0.26577 0.93241 0.27699 0.0
H639 H 0.23611 0.9213 0.28439 0.0
C640 C 0.08591 0.67926 0.53325 0.0
C641 C 0.09063 0.66007 0.52145 0.0
C642 C 0.0919 0.70382 0.52935 0.0
C643 C 0.10288 0.70939 0.51326 0.0
C644 C 0.10685 0.69027 0.50102 0.0
C645 C 0.10073 0.66581 0.50528 0.0
C646 C 0.08743 0.72366 0.54278 0.0
C647 C 0.11832 0.69552 0.48366 0.0
C648 C 0.10372 0.77658 0.49912 0.0
C649 C 0.12783 0.78381 0.50376 0.0
C650 C 0.09539 0.75235 0.50196 0.0
C651 C 0.11153 0.73498 0.50969 0.0
C652 C 0.13589 0.74218 0.5144 0.0
C653 C 0.14376 0.76649 0.51135 0.0
C654 C 0.06932 0.74535 0.49673 0.0
C655 C 0.15363 0.72423 0.52274 0.0
H656 H 0.0785 0.67496 0.54588 0.0
H657 H 0.10422 0.6511 0.49605 0.0
H658 H 0.10545 0.7313 0.54723 0.0
H659 H 0.07671 0.73913 0.53712 0.0
H660 H 0.07721 0.71658 0.55417 0.0
H661 H 0.1185 0.67896 0.47512 0.0
H662 H 0.10803 0.71052 0.47706 0.0
H663 H 0.1377 0.70197 0.48545 0.0
H664 H 0.09133 0.78984 0.49319 0.0
H665 H 0.16243 0.77192 0.51495 0.0
H666 H 0.0587 0.73936 0.50823 0.0
H667 H 0.06977 0.72951 0.48759 0.0
H668 H 0.05925 0.76088 0.49054 0.0
H669 H 0.1457 0.71741 0.53504 0.0
H670 H 0.17201 0.73267 0.52549 0.0
H671 H 0.15639 0.70794 0.51421 0.0
C672 C 0.33769 0.62336 0.77872 0.0
C673 C 0.349 0.60253 0.77134 0.0
C674 C 0.31227 0.62783 0.77654 0.0
C675 C 0.2979 0.61133 0.76641 0.0
C676 C 0.30945 0.59076 0.75836 0.0
C677 C 0.33485 0.58638 0.76115 0.0
C678 C 0.30061 0.64963 0.78569 0.0
C679 C 0.29486 0.5731 0.74714 0.0
C680 C 0.22903 0.60705 0.77622 0.0
C681 C 0.21885 0.62293 0.76385 0.0
C682 C 0.25472 0.60314 0.77717 0.0
C683 C 0.27056 0.61485 0.76516 0.0
C684 C 0.26033 0.63055 0.75242 0.0
C685 C 0.23459 0.6347 0.75208 0.0
C686 C 0.26495 0.58683 0.79126 0.0
C687 C 0.27655 0.6429 0.73915 0.0
H688 H 0.34859 0.63564 0.78684 0.0
H689 H 0.34365 0.57028 0.75546 0.0
H690 H 0.29067 0.66148 0.77631 0.0
H691 H 0.2867 0.64297 0.79513 0.0
H692 H 0.31451 0.6611 0.79265 0.0
H693 H 0.30698 0.55939 0.74055 0.0
H694 H 0.28119 0.56299 0.75512 0.0
H695 H 0.28429 0.58345 0.73722 0.0
H696 H 0.21691 0.59809 0.78542 0.0
H697 H 0.22673 0.64682 0.74241 0.0
H698 H 0.27817 0.59748 0.79939 0.0
H699 H 0.27537 0.57116 0.78551 0.0
H700 H 0.25015 0.5793 0.79969 0.0
H701 H 0.28972 0.65569 0.74563 0.0
H702 H 0.26558 0.65351 0.72956 0.0
H703 H 0.28776 0.62883 0.7322 0.0
C704 C 0.42494 0.83677 0.03082 0.0
C705 C 0.41834 0.85533 0.01916 0.0
C706 C 0.41726 0.81231 0.02827 0.0
C707 C 0.40307 0.80615 0.01347 0.0
C708 C 0.39663 0.82479 0.00148 0.0
C709 C 0.40406 0.84932 0.00461 0.0
C710 C 0.42407 0.79312 0.04156 0.0
C711 C 0.38203 0.81879 0.98536 0.0
C712 C 0.4061 0.73805 0.00214 0.0
C713 C 0.38371 0.72931 0.00896 0.0
C714 C 0.41196 0.76328 0.00261 0.0
C715 C 0.39537 0.78006 0.0106 0.0
C716 C 0.37247 0.77139 0.01719 0.0
C717 C 0.36674 0.74611 0.01605 0.0
C718 C 0.43625 0.77186 0.99503 0.0
C719 C 0.35459 0.7886 0.02619 0.0
H720 H 0.43559 0.84156 0.04225 0.0
H721 H 0.3989 0.86378 0.99566 0.0
H722 H 0.40705 0.78407 0.0465 0.0
H723 H 0.4357 0.77853 0.03556 0.0
H724 H 0.43441 0.80116 0.05267 0.0
H725 H 0.37905 0.83528 0.97713 0.0
H726 H 0.39191 0.80451 0.97768 0.0
H727 H 0.36369 0.81102 0.98886 0.0
H728 H 0.41909 0.72509 0.99643 0.0
H729 H 0.34946 0.73932 0.02137 0.0
H730 H 0.44882 0.77808 0.00554 0.0
H731 H 0.43314 0.78786 0.98639 0.0
H732 H 0.44571 0.75701 0.98759 0.0
H733 H 0.36327 0.79589 0.03818 0.0
H734 H 0.33694 0.77927 0.02965 0.0
H735 H 0.35029 0.80467 0.01789 0.0
C736 C 0.16278 0.59535 0.99702 0.0
C737 C 0.15196 0.59603 0.98058 0.0
C738 C 0.18484 0.60827 0.00051 0.0
C739 C 0.19663 0.6215 0.98708 0.0
C740 C 0.18496 0.62339 0.97075 0.0
C741 C 0.16262 0.6108 0.96776 0.0
C742 C 0.19636 0.60639 0.01823 0.0
C743 C 0.1971 0.63684 0.95598 0.0
C744 C 0.25269 0.66215 0.99678 0.0
C745 C 0.27217 0.64538 0.99423 0.0
C746 C 0.22787 0.6547 0.99461 0.0
C747 C 0.22263 0.63016 0.9893 0.0
C748 C 0.24238 0.61349 0.98614 0.0
C749 C 0.26687 0.62121 0.98889 0.0
C750 C 0.20729 0.67278 -0.00152 0.0
C751 C 0.23766 0.58736 0.98001 0.0
H752 H 0.1545 0.58395 0.00693 0.0
H753 H 0.15445 0.61104 0.95496 0.0
H754 H 0.21266 0.5939 0.01767 0.0
H755 H 0.20301 0.62474 0.0227 0.0
H756 H 0.1831 0.599 0.02787 0.0
H757 H 0.18426 0.63929 0.94488 0.0
H758 H 0.20385 0.65526 0.9602 0.0
H759 H 0.21345 0.62615 0.95149 0.0
H760 H 0.25681 0.68078 0.0011 0.0
H761 H 0.28197 0.60829 0.98683 0.0
H762 H 0.19591 0.6658 0.00934 0.0
H763 H 0.1948 0.67456 0.98716 0.0
H764 H 0.21446 0.69139 0.00198 0.0
H765 H 0.22718 0.57707 0.98996 0.0
H766 H 0.25513 0.57719 0.97725 0.0
H767 H 0.22617 0.58752 0.96811 0.0
C768 C 0.3897 0.66343 0.21887 0.0
C769 C 0.40962 0.65175 0.22715 0.0
C770 C 0.38555 0.68883 0.22094 0.0
C771 C 0.40145 0.70278 0.23179 0.0
C772 C 0.42108 0.6909 0.24067 0.0
C773 C 0.42515 0.66551 0.23805 0.0
C774 C 0.36472 0.70087 0.21098 0.0
C775 C 0.43806 0.70508 0.25265 0.0
C776 C 0.40757 0.7715 0.22317 0.0
C777 C 0.39097 0.78157 0.23521 0.0
C778 C 0.41108 0.74587 0.2219 0.0
C779 C 0.39813 0.72999 0.23322 0.0
C780 C 0.38159 0.74006 0.24556 0.0
C781 C 0.37798 0.76573 0.24627 0.0
C782 C 0.42842 0.73577 0.20829 0.0
C783 C 0.36781 0.72375 0.25806 0.0
H784 H 0.37793 0.65282 0.21022 0.0
H785 H 0.44053 0.65642 0.24443 0.0
H786 H 0.35212 0.71082 0.21993 0.0
H787 H 0.37245 0.71473 0.20197 0.0
H788 H 0.35366 0.68727 0.20342 0.0
H789 H 0.45123 0.69279 0.25955 0.0
H790 H 0.44888 0.71879 0.2452 0.0
H791 H 0.42699 0.71547 0.26233 0.0
H792 H 0.41752 0.78366 0.21453 0.0
H793 H 0.36531 0.77345 0.25572 0.0
H794 H 0.41821 0.72293 0.19961 0.0
H795 H 0.44353 0.72505 0.21447 0.0
H796 H 0.43685 0.75059 0.20036 0.0
H797 H 0.35553 0.71085 0.25088 0.0
H798 H 0.35634 0.73456 0.2673 0.0
H799 H 0.38118 0.71235 0.26548 0.0
C800 C 0.34313 0.90232 0.49661 0.0
C801 C 0.34842 0.91608 0.48179 0.0
C802 C 0.31857 0.8956 0.50055 0.0
C803 C 0.29914 0.90234 0.48916 0.0
C804 C 0.30458 0.9159 0.47405 0.0
C805 C 0.3291 0.92277 0.47065 0.0
C806 C 0.31338 0.88156 0.51693 0.0
C807 C 0.2845 0.92309 0.46139 0.0
C808 C 0.23685 0.86979 0.48759 0.0
C809 C 0.22131 0.888 0.49458 0.0
C810 C 0.26258 0.87362 0.4865 0.0
C811 C 0.27292 0.8959 0.49297 0.0
C812 C 0.25743 0.9135 0.50116 0.0
C813 C 0.23175 0.90952 0.50162 0.0
C814 C 0.27839 0.85463 0.47736 0.0
C815 C 0.26781 0.93717 0.50863 0.0
H816 H 0.35815 0.89709 0.50517 0.0
H817 H 0.33329 0.93299 0.45901 0.0
H818 H 0.30043 0.89228 0.52519 0.0
H819 H 0.3042 0.86374 0.51383 0.0
H820 H 0.33055 0.87776 0.52441 0.0
H821 H 0.29203 0.9327 0.4499 0.0
H822 H 0.27429 0.90641 0.45698 0.0
H823 H 0.2709 0.93547 0.46779 0.0
H824 H 0.22875 0.85317 0.48211 0.0
H825 H 0.21975 0.92345 0.50725 0.0
H826 H 0.29516 0.8503 0.4851 0.0
H827 H 0.28479 0.86223 0.46486 0.0
H828 H 0.2681 0.83722 0.47478 0.0
H829 H 0.28444 0.9333 0.51664 0.0
H830 H 0.25398 0.94715 0.51668 0.0
H831 H 0.27368 0.94951 0.49801 0.0
C832 C 0.10625 0.85046 0.74487 0.0
C833 C 0.08979 0.85364 0.73103 0.0
C834 C 0.11515 0.82687 0.74919 0.0
C835 C 0.10773 0.80612 0.73922 0.0
C836 C 0.09118 0.8093 0.72519 0.0
C837 C 0.0823 0.83298 0.72135 0.0
C838 C 0.13244 0.82413 0.76441 0.0
C839 C 0.0831 0.78773 0.71409 0.0
C840 C 0.14656 0.74741 0.73949 0.0
C841 C 0.13218 0.73196 0.74992 0.0
C842 C 0.13903 0.77177 0.73606 0.0
C843 C 0.11686 0.78094 0.74353 0.0
C844 C 0.10268 0.76559 0.75447 0.0
C845 C 0.11038 0.74123 0.75739 0.0
C846 C 0.15442 0.78746 0.7241 0.0
C847 C 0.07916 0.7748 0.7629 0.0
H848 H 0.11207 0.86643 0.75235 0.0
H849 H 0.06997 0.83547 0.71042 0.0
H850 H 0.12436 0.81115 0.77391 0.0
H851 H 0.15036 0.81615 0.76009 0.0
H852 H 0.13615 0.84204 0.77099 0.0
H853 H 0.07054 0.79342 0.70344 0.0
H854 H 0.09958 0.7785 0.70841 0.0
H855 H 0.07336 0.77385 0.7221 0.0
H856 H 0.16341 0.74029 0.73368 0.0
H857 H 0.09932 0.72943 0.76562 0.0
H858 H 0.15974 0.80497 0.73063 0.0
H859 H 0.1433 0.79242 0.71256 0.0
H860 H 0.17155 0.77786 0.71977 0.0
H861 H 0.08287 0.79217 0.77012 0.0
H862 H 0.07114 0.76108 0.77192 0.0
H863 H 0.06511 0.77906 0.75286 0.0
C864 C 0.66 0.41378 0.75245 0.0
C865 C 0.64962 0.41307 0.76901 0.0
C866 C 0.68237 0.40148 0.74884 0.0
C867 C 0.69493 0.38886 0.76225 0.0
C868 C 0.68368 0.38681 0.77868 0.0
C869 C 0.66103 0.39877 0.78181 0.0
C870 C 0.69339 0.40351 0.73101 0.0
C871 C 0.69659 0.37395 0.79343 0.0
C872 C 0.75241 0.35025 0.75236 0.0
C873 C 0.77131 0.36774 0.75476 0.0
C874 C 0.72735 0.35678 0.75463 0.0
C875 C 0.72124 0.38115 0.75986 0.0
C876 C 0.7404 0.39859 0.7628 0.0
C877 C 0.76514 0.39176 0.75999 0.0
C878 C 0.70741 0.33787 0.75102 0.0
C879 C 0.73478 0.42459 0.76882 0.0
H880 H 0.65115 0.42481 0.74255 0.0
H881 H 0.6532 0.39849 0.79469 0.0
H882 H 0.70919 0.41664 0.73132 0.0
H883 H 0.70066 0.38536 0.72662 0.0
H884 H 0.67962 0.41021 0.72142 0.0
H885 H 0.68402 0.37106 0.80459 0.0
H886 H 0.70403 0.3558 0.78923 0.0
H887 H 0.71255 0.38534 0.79781 0.0
H888 H 0.75717 0.33171 0.74816 0.0
H889 H 0.77974 0.40526 0.76197 0.0
H890 H 0.69545 0.34433 0.74028 0.0
H891 H 0.69533 0.33566 0.76248 0.0
H892 H 0.71524 0.31955 0.74749 0.0
H893 H 0.72361 0.43432 0.75891 0.0
H894 H 0.75188 0.4355 0.77133 0.0
H895 H 0.72362 0.42413 0.78084 0.0
C896 C 0.61464 0.15912 0.00759 0.0
C897 C 0.60188 0.15465 0.02303 0.0
C898 C 0.62145 0.18323 0.00291 0.0
C899 C 0.6156 0.20326 0.01402 0.0
C900 C 0.60273 0.19881 0.02961 0.0
C901 C 0.59595 0.1746 0.03388 0.0
C902 C 0.6349 0.18729 0.98608 0.0
C903 C 0.59637 0.21962 0.0419 0.0
C904 C 0.65167 0.26348 0.01073 0.0
C905 C 0.63475 0.27856 0.00194 0.0
C906 C 0.64583 0.2388 0.01457 0.0
C907 C 0.62264 0.22896 0.00934 0.0
C908 C 0.6057 0.24399 0.00018 0.0
C909 C 0.6119 0.26863 0.99669 0.0
C910 C 0.66428 0.2234 0.0245 0.0
C911 C 0.58088 0.23412 0.99424 0.0
H912 H 0.61919 0.14374 -0.00084 0.0
H913 H 0.58652 0.17118 0.04599 0.0
H914 H 0.62418 0.20017 0.97784 0.0
H915 H 0.65321 0.19597 0.98859 0.0
H916 H 0.63786 0.16979 0.97881 0.0
H917 H 0.58647 0.21302 0.05357 0.0
H918 H 0.61355 0.22926 0.04605 0.0
H919 H 0.58451 0.23341 0.03529 0.0
H920 H 0.66936 0.27105 0.01482 0.0
H921 H 0.59879 0.28012 0.98978 0.0
H922 H 0.66887 0.20639 0.01711 0.0
H923 H 0.65601 0.21751 0.03692 0.0
H924 H 0.68174 0.23359 0.02726 0.0
H925 H 0.58354 0.21726 0.98625 0.0
H926 H 0.57029 0.24786 0.98658 0.0
H927 H 0.56959 0.2288 0.00559 0.0
C928 C 0.84745 0.09404 0.25804 0.0
C929 C 0.86252 0.11007 0.26767 0.0
C930 C 0.822 0.0988 0.25603 0.0
C931 C 0.81139 0.11972 0.26425 0.0
C932 C 0.82674 0.1364 0.27348 0.0
C933 C 0.85219 0.13147 0.27494 0.0
C934 C 0.80631 0.0809 0.24575 0.0
C935 C 0.8161 0.15863 0.28271 0.0
C936 C 0.74621 0.14074 0.25258 0.0
C937 C 0.73202 0.12876 0.26518 0.0
C938 C 0.77208 0.13777 0.25196 0.0
C939 C 0.78401 0.12298 0.2645 0.0
C940 C 0.7698 0.11132 0.27748 0.0
C941 C 0.74394 0.1141 0.27753 0.0
C942 C 0.78658 0.15007 0.23773 0.0
C943 C 0.7819 0.09589 0.29134 0.0
H944 H 0.8555 0.0775 0.25242 0.0
H945 H 0.86379 0.14367 0.28263 0.0
H946 H 0.79381 0.07071 0.25457 0.0
H947 H 0.79444 0.09101 0.23644 0.0
H948 H 0.81776 0.06726 0.23855 0.0
H949 H 0.83077 0.17075 0.28823 0.0
H950 H 0.80452 0.1697 0.27378 0.0
H951 H 0.80389 0.1524 0.29336 0.0
H952 H 0.73701 0.15189 0.24291 0.0
H953 H 0.73303 0.10496 0.28736 0.0
H954 H 0.79665 0.1359 0.23007 0.0
H955 H 0.80072 0.16267 0.24333 0.0
H956 H 0.77449 0.16082 0.2289 0.0
H957 H 0.79164 0.07994 0.28538 0.0
H958 H 0.76827 0.08877 0.30084 0.0
H959 H 0.79602 0.10701 0.29834 0.0
C960 C 0.90807 0.34298 0.51027 0.0
C961 C 0.92488 0.34369 0.5241 0.0
C962 C 0.89569 0.32099 0.50579 0.0
C963 C 0.90009 0.29931 0.51549 0.0
C964 C 0.91686 0.30002 0.52957 0.0
C965 C 0.92911 0.32214 0.53365 0.0
C966 C 0.87813 0.3209 0.49059 0.0
C967 C 0.92187 0.27737 0.54034 0.0
C968 C 0.85498 0.2452 0.51369 0.0
C969 C 0.86779 0.22861 0.50299 0.0
C970 C 0.86502 0.26854 0.51767 0.0
C971 C 0.88816 0.27551 0.51052 0.0
C972 C 0.90072 0.25909 0.49927 0.0
C973 C 0.89051 0.23578 0.49579 0.0
C974 C 0.85123 0.28545 0.52988 0.0
C975 C 0.9252 0.26596 0.49114 0.0
H976 H 0.90475 0.35959 0.50286 0.0
H977 H 0.94165 0.32272 0.5446 0.0
H978 H 0.88494 0.30786 0.48057 0.0
H979 H 0.85954 0.31436 0.49465 0.0
H980 H 0.87613 0.33948 0.48473 0.0
H981 H 0.93468 0.28125 0.55127 0.0
H982 H 0.90422 0.27004 0.54559 0.0
H983 H 0.93013 0.26264 0.53217 0.0
H984 H 0.8374 0.23972 0.51926 0.0
H985 H 0.90034 0.22316 0.48731 0.0
H986 H 0.84841 0.3038 0.52387 0.0
H987 H 0.86242 0.2884 0.54175 0.0
H988 H 0.83287 0.27786 0.53361 0.0
H989 H 0.92352 0.28389 0.48435 0.0
H990 H 0.93174 0.25179 0.48177 0.0
H991 H 0.93953 0.26826 0.50132 0.0
C992 C 0.65053 0.1292 0.47255 0.0
C993 C 0.64035 0.10837 0.48058 0.0
C994 C 0.67579 0.1349 0.47427 0.0
C995 C 0.69118 0.11958 0.48445 0.0
C996 C 0.68071 0.09929 0.49335 0.0
C997 C 0.65543 0.09376 0.49115 0.0
C998 C 0.68626 0.15643 0.46432 0.0
C999 C 0.69643 0.0828 0.50459 0.0
C1000 C 0.75904 0.11384 0.47222 0.0
C1001 C 0.77052 0.12965 0.48419 0.0
C1002 C 0.73323 0.11072 0.47205 0.0
C1003 C 0.71852 0.12333 0.4844 0.0
C1004 C 0.72996 0.13943 0.49649 0.0
C1005 C 0.75585 0.14262 0.49612 0.0
C1006 C 0.72171 0.0938 0.45869 0.0
C1007 C 0.71491 0.15289 0.51 0.0
H1008 H 0.63899 0.14032 0.46414 0.0
H1009 H 0.64755 0.07771 0.49741 0.0
H1010 H 0.69743 0.16851 0.47294 0.0
H1011 H 0.69881 0.14944 0.45406 0.0
H1012 H 0.6715 0.16774 0.45819 0.0
H1013 H 0.68504 0.06964 0.51215 0.0
H1014 H 0.70945 0.07205 0.4964 0.0
H1015 H 0.70776 0.09406 0.51365 0.0
H1016 H 0.77027 0.10391 0.46288 0.0
H1017 H 0.76467 0.15469 0.5055 0.0
H1018 H 0.7076 0.10401 0.45109 0.0
H1019 H 0.71206 0.0783 0.46515 0.0
H1020 H 0.73567 0.08601 0.44965 0.0
H1021 H 0.70062 0.16455 0.50372 0.0
H1022 H 0.7266 0.1648 0.51844 0.0
H1023 H 0.70501 0.13933 0.51818 0.0
C1024 C 0.91749 0.17906 0.7104 0.0
C1025 C 0.91452 0.16071 0.72292 0.0
C1026 C 0.91143 0.20374 0.71395 0.0
C1027 C 0.90258 0.21031 0.73055 0.0
C1028 C 0.89993 0.19192 0.74336 0.0
C1029 C 0.90567 0.16722 0.73933 0.0
C1030 C 0.9141 0.2227 0.69984 0.0
C1031 C 0.89099 0.19832 0.76129 0.0
C1032 C 0.90912 0.27829 0.74185 0.0
C1033 C 0.88506 0.28713 0.73876 0.0
C1034 C 0.91483 0.25315 0.7399 0.0
C1035 C 0.89615 0.23651 0.73437 0.0
C1036 C 0.87173 0.24524 0.73148 0.0
C1037 C 0.86641 0.27042 0.73389 0.0
C1038 C 0.94097 0.24448 0.74343 0.0
C1039 C 0.85142 0.22814 0.72526 0.0
H1040 H 0.92391 0.17395 0.69761 0.0
H1041 H 0.90338 0.153 0.749 0.0
H1042 H 0.89595 0.23171 0.69738 0.0
H1043 H 0.92724 0.23737 0.70395 0.0
H1044 H 0.92088 0.21447 0.68756 0.0
H1045 H 0.89067 0.182 0.76992 0.0
H1046 H 0.9032 0.21263 0.76712 0.0
H1047 H 0.87203 0.20622 0.76065 0.0
H1048 H 0.92356 0.29108 0.74581 0.0
H1049 H 0.84781 0.27717 0.7314 0.0
H1050 H 0.94959 0.23786 0.73126 0.0
H1051 H 0.94075 0.2287 0.75252 0.0
H1052 H 0.95279 0.25936 0.74897 0.0
H1053 H 0.85633 0.22058 0.71237 0.0
H1054 H 0.8332 0.23761 0.72428 0.0
H1055 H 0.84953 0.21224 0.73413 0.0
C1056 C 0.83012 0.43141 0.99032 0.0
C1057 C 0.84423 0.41573 0.97977 0.0
C1058 C 0.80477 0.42683 0.99309 0.0
C1059 C 0.79326 0.40649 0.98472 0.0
C1060 C 0.80756 0.39047 0.97422 0.0
C1061 C 0.8329 0.39518 0.97199 0.0
C1062 C 0.79021 0.44398 0.00468 0.0
C1063 C 0.79592 0.36887 0.9648 0.0
C1064 C 0.73102 0.38089 -0.00097 0.0
C1065 C 0.71475 0.39235 0.98742 0.0
C1066 C 0.75655 0.38604 -0.00125 0.0
C1067 C 0.76605 0.40247 0.98622 0.0
C1068 C 0.74967 0.41407 0.97447 0.0
C1069 C 0.72415 0.40912 0.97537 0.0
C1070 C 0.77337 0.37376 0.01173 0.0
C1071 C 0.75916 0.43118 0.96063 0.0
H1072 H 0.83892 0.44729 0.99634 0.0
H1073 H 0.84371 0.38328 0.96358 0.0
H1074 H 0.7761 0.45401 0.99698 0.0
H1075 H 0.78014 0.43321 0.0146 0.0
H1076 H 0.80228 0.45775 0.01127 0.0
H1077 H 0.80976 0.35792 0.95739 0.0
H1078 H 0.78655 0.35646 0.97408 0.0
H1079 H 0.78155 0.37566 0.9557 0.0
H1080 H 0.72374 0.3681 0.00848 0.0
H1081 H 0.71161 0.41786 0.9663 0.0
H1082 H 0.78464 0.38787 0.01862 0.0
H1083 H 0.78646 0.36119 0.005 0.0
H1084 H 0.76285 0.3629 0.0214 0.0
H1085 H 0.76963 0.44669 0.96656 0.0
H1086 H 0.74394 0.43892 0.95262 0.0
H1087 H 0.77217 0.42106 0.95205 0.0
C1088 C 0.60888 0.34609 0.24202 0.0
C1089 C 0.59351 0.3498 0.22765 0.0
C1090 C 0.61793 0.32244 0.24595 0.0
C1091 C 0.61177 0.30222 0.23508 0.0
C1092 C 0.59638 0.30594 0.22051 0.0
C1093 C 0.58732 0.32966 0.21704 0.0
C1094 C 0.63402 0.31907 0.26174 0.0
C1095 C 0.58969 0.28492 0.20847 0.0
C1096 C 0.65225 0.24474 0.2358 0.0
C1097 C 0.63771 0.22858 0.24559 0.0
C1098 C 0.64409 0.26884 0.2323 0.0
C1099 C 0.62106 0.27702 0.23901 0.0
C1100 C 0.60646 0.26084 0.24906 0.0
C1101 C 0.61486 0.23675 0.2521 0.0
C1102 C 0.65996 0.28547 0.22129 0.0
C1103 C 0.58196 0.26899 0.25662 0.0
H1104 H 0.61367 0.36168 0.25021 0.0
H1105 H 0.57584 0.33259 0.20572 0.0
H1106 H 0.62541 0.30541 0.27052 0.0
H1107 H 0.6524 0.31165 0.25792 0.0
H1108 H 0.63686 0.33664 0.26896 0.0
H1109 H 0.57788 0.29104 0.19752 0.0
H1110 H 0.6068 0.27639 0.20319 0.0
H1111 H 0.57963 0.27036 0.21565 0.0
H1112 H 0.66992 0.23847 0.23075 0.0
H1113 H 0.60365 0.22441 0.25982 0.0
H1114 H 0.66474 0.30254 0.22855 0.0
H1115 H 0.64944 0.29117 0.20964 0.0
H1116 H 0.67741 0.27633 0.21711 0.0
H1117 H 0.58463 0.2858 0.26467 0.0
H1118 H 0.57329 0.25446 0.26468 0.0
H1119 H 0.56888 0.27388 0.2461 0.0
C1120 C 0.14076 0.92892 0.37454 0.0
C1121 C 0.11566 0.93182 0.37005 0.0
C1122 C 0.14769 0.91727 0.38996 0.0
C1123 C 0.12911 0.90796 0.40103 0.0
C1124 C 0.10379 0.91053 0.3965 0.0
C1125 C 0.09738 0.9226 0.38116 0.0
C1126 C 0.17487 0.91511 0.39447 0.0
C1127 C 0.08343 0.9007 0.40795 0.0
C1128 C 0.14427 0.8597 0.43493 0.0
C1129 C 0.14377 0.87399 0.45005 0.0
C1130 C 0.14011 0.87058 0.41874 0.0
C1131 C 0.13593 0.89638 0.41774 0.0
C1132 C 0.1367 0.911 0.43292 0.0
C1133 C 0.14031 0.89958 0.44891 0.0
C1134 C 0.13909 0.85435 0.40285 0.0
C1135 C 0.13297 0.93864 0.43234 0.0
H1136 H 0.15505 0.93553 0.3659 0.0
H1137 H 0.07796 0.92504 0.37795 0.0
H1138 H 0.1786 0.92464 0.40692 0.0
H1139 H 0.17998 0.89543 0.39615 0.0
H1140 H 0.18703 0.92323 0.38442 0.0
H1141 H 0.06473 0.90306 0.40214 0.0
H1142 H 0.08648 0.88077 0.4105 0.0
H1143 H 0.0838 0.91042 0.42059 0.0
H1144 H 0.14689 0.83989 0.43581 0.0
H1145 H 0.14021 0.91072 0.46057 0.0
H1146 H 0.15164 0.86159 0.39273 0.0
H1147 H 0.12001 0.85452 0.39745 0.0
H1148 H 0.14434 0.83493 0.40566 0.0
H1149 H 0.14561 0.94702 0.42272 0.0
H1150 H 0.13631 0.94757 0.44508 0.0
H1151 H 0.1137 0.94282 0.42823 0.0
C1152 C 0.09048 0.62149 0.62924 0.0
C1153 C 0.10608 0.60348 0.62196 0.0
C1154 C 0.09415 0.62997 0.64623 0.0
C1155 C 0.1139 0.62022 0.65614 0.0
C1156 C 0.13023 0.60271 0.64865 0.0
C1157 C 0.12608 0.59451 0.63169 0.0
C1158 C 0.07642 0.64872 0.65374 0.0
C1159 C 0.15153 0.59187 0.65879 0.0
C1160 C 0.13588 0.64969 0.69816 0.0
C1161 C 0.12513 0.63393 0.71038 0.0
C1162 C 0.13169 0.6461 0.68039 0.0
C1163 C 0.11627 0.62643 0.6748 0.0
C1164 C 0.10438 0.61132 0.68712 0.0
C1165 C 0.10901 0.6152 0.70472 0.0
C1166 C 0.14465 0.6626 0.66761 0.0
C1167 C 0.08755 0.59033 0.68171 0.0
H1168 H 0.07526 0.62885 0.62169 0.0
H1169 H 0.13808 0.58043 0.62624 0.0
H1170 H 0.06543 0.64007 0.6642 0.0
H1171 H 0.08681 0.66436 0.65958 0.0
H1172 H 0.06339 0.65609 0.6439 0.0
H1173 H 0.16366 0.57997 0.65068 0.0
H1174 H 0.16298 0.60683 0.66456 0.0
H1175 H 0.14419 0.58061 0.66957 0.0
H1176 H 0.14835 0.66422 0.70241 0.0
H1177 H 0.10033 0.60315 0.71407 0.0
H1178 H 0.13128 0.66962 0.6579 0.0
H1179 H 0.15892 0.6518 0.66055 0.0
H1180 H 0.15385 0.67859 0.674 0.0
H1181 H 0.07303 0.59709 0.67273 0.0
H1182 H 0.07835 0.58145 0.6929 0.0
H1183 H 0.09846 0.57609 0.67471 0.0
C1184 C 0.41516 0.63164 0.88079 0.0
C1185 C 0.4046 0.61276 0.87071 0.0
C1186 C 0.40663 0.63658 0.89754 0.0
C1187 C 0.38713 0.6222 0.90447 0.0
C1188 C 0.37596 0.60352 0.89424 0.0
C1189 C 0.38483 0.59902 0.87747 0.0
C1190 C 0.41907 0.65666 0.90804 0.0
C1191 C 0.35511 0.58784 0.90118 0.0
C1192 C 0.38866 0.61772 0.95319 0.0
C1193 C 0.37121 0.63565 0.95813 0.0
C1194 C 0.39316 0.61243 0.93576 0.0
C1195 C 0.38003 0.62548 0.92288 0.0
C1196 C 0.3616 0.64283 0.92773 0.0
C1197 C 0.35732 0.64766 0.94534 0.0
C1198 C 0.41276 0.59357 0.93115 0.0
C1199 C 0.34723 0.65709 0.91434 0.0
H1200 H 0.43063 0.64216 0.87575 0.0
H1201 H 0.3763 0.58468 0.86966 0.0
H1202 H 0.40501 0.66965 0.91325 0.0
H1203 H 0.42884 0.64835 0.91922 0.0
H1204 H 0.43275 0.6673 0.90036 0.0
H1205 H 0.34718 0.57535 0.89117 0.0
H1206 H 0.36204 0.57643 0.91202 0.0
H1207 H 0.34008 0.59974 0.90635 0.0
H1208 H 0.39923 0.60808 0.96298 0.0
H1209 H 0.3438 0.66151 0.94904 0.0
H1210 H 0.42853 0.60286 0.92468 0.0
H1211 H 0.40515 0.57974 0.92195 0.0
H1212 H 0.41995 0.58372 0.94267 0.0
H1213 H 0.3599 0.66995 0.90757 0.0
H1214 H 0.33186 0.66799 0.92013 0.0
H1215 H 0.33941 0.64436 0.90447 0.0
C1216 C 0.42642 0.89891 0.12984 0.0
C1217 C 0.41115 0.91384 0.1195 0.0
C1218 C 0.41794 0.88935 0.14556 0.0
C1219 C 0.39389 0.89551 0.15145 0.0
C1220 C 0.37849 0.91088 0.1413 0.0
C1221 C 0.38716 0.91955 0.12536 0.0
C1222 C 0.43476 0.87267 0.15589 0.0
C1223 C 0.35292 0.9183 0.14733 0.0
C1224 C 0.36321 0.85645 0.18608 0.0
C1225 C 0.3692 0.8698 0.20105 0.0
C1226 C 0.3714 0.8644 0.16982 0.0
C1227 C 0.38521 0.8866 0.16853 0.0
C1228 C 0.39095 0.90029 0.18363 0.0
C1229 C 0.3832 0.89151 0.19973 0.0
C1230 C 0.36553 0.84895 0.15405 0.0
C1231 C 0.40505 0.92437 0.18277 0.0
H1232 H 0.44516 0.89473 0.12573 0.0
H1233 H 0.37494 0.93061 0.11741 0.0
H1234 H 0.43946 0.88158 0.1684 0.0
H1235 H 0.4251 0.85509 0.15882 0.0
H1236 H 0.45228 0.86835 0.14898 0.0
H1237 H 0.34348 0.93082 0.1381 0.0
H1238 H 0.34123 0.90165 0.1491 0.0
H1239 H 0.3542 0.92775 0.16005 0.0
H1240 H 0.35247 0.83959 0.18713 0.0
H1241 H 0.38763 0.90199 0.2113 0.0
H1242 H 0.38298 0.84366 0.1474 0.0
H1243 H 0.35437 0.85986 0.14477 0.0
H1244 H 0.35513 0.83189 0.1573 0.0
H1245 H 0.42374 0.92118 0.17724 0.0
H1246 H 0.40722 0.9332 0.19566 0.0
H1247 H 0.39525 0.93743 0.17412 0.0
C1248 C 0.13114 0.56582 0.86826 0.0
C1249 C 0.11427 0.57529 0.88041 0.0
C1250 C 0.13736 0.57921 0.85342 0.0
C1251 C 0.12611 0.60242 0.85045 0.0
C1252 C 0.1093 0.61224 0.86271 0.0
C1253 C 0.10375 0.59866 0.87759 0.0
C1254 C 0.15558 0.56825 0.84072 0.0
C1255 C 0.09671 0.63682 0.8599 0.0
C1256 C 0.15323 0.64555 0.8167 0.0
C1257 C 0.13853 0.63981 0.8023 0.0
C1258 C 0.14957 0.63342 0.83251 0.0
C1259 C 0.13047 0.61555 0.83392 0.0
C1260 C 0.1154 0.61001 0.81944 0.0
C1261 C 0.11977 0.62203 0.80378 0.0
C1262 C 0.16626 0.63948 0.84761 0.0
C1263 C 0.09458 0.59139 0.82049 0.0
H1264 H 0.13919 0.5477 0.87018 0.0
H1265 H 0.09118 0.60646 0.88706 0.0
H1266 H 0.14596 0.56392 0.8284 0.0
H1267 H 0.17043 0.58178 0.8378 0.0
H1268 H 0.16429 0.55105 0.84563 0.0
H1269 H 0.08474 0.64225 0.87095 0.0
H1270 H 0.11076 0.65148 0.85788 0.0
H1271 H 0.08508 0.63592 0.84808 0.0
H1272 H 0.16784 0.65921 0.81554 0.0
H1273 H 0.10825 0.61765 0.79269 0.0
H1274 H 0.17605 0.62255 0.85191 0.0
H1275 H 0.15504 0.64619 0.85868 0.0
H1276 H 0.18028 0.65376 0.84439 0.0
H1277 H 0.10212 0.57297 0.82388 0.0
H1278 H 0.08417 0.58967 0.80815 0.0
H1279 H 0.08141 0.5968 0.83083 0.0
C1280 C 0.3785 0.58443 0.12016 0.0
C1281 C 0.39465 0.59693 0.1314 0.0
C1282 C 0.37136 0.59489 0.10439 0.0
C1283 C 0.38062 0.61841 0.09974 0.0
C1284 C 0.39676 0.63123 0.11108 0.0
C1285 C 0.40358 0.62034 0.12679 0.0
C1286 C 0.35413 0.58064 0.0926 0.0
C1287 C 0.40694 0.65637 0.10658 0.0
C1288 C 0.38069 0.63242 0.05182 0.0
C1289 C 0.35894 0.64637 0.05005 0.0
C1290 C 0.38834 0.6238 0.06802 0.0
C1291 C 0.37384 0.62923 0.08278 0.0
C1292 C 0.3523 0.64402 0.08115 0.0
C1293 C 0.34512 0.65246 0.06478 0.0
C1294 C 0.41153 0.60825 0.06926 0.0
C1295 C 0.33641 0.65022 0.09661 0.0
H1296 H 0.37175 0.56625 0.12358 0.0
H1297 H 0.41577 0.63026 0.13555 0.0
H1298 H 0.33742 0.59185 0.0897 0.0
H1299 H 0.36352 0.57673 0.08015 0.0
H1300 H 0.34811 0.56284 0.09831 0.0
H1301 H 0.41899 0.66406 0.11694 0.0
H1302 H 0.41787 0.65517 0.09448 0.0
H1303 H 0.39147 0.66946 0.10422 0.0
H1304 H 0.39151 0.62776 0.04048 0.0
H1305 H 0.32829 0.66326 0.06347 0.0
H1306 H 0.40662 0.58933 0.07352 0.0
H1307 H 0.42436 0.61613 0.07905 0.0
H1308 H 0.42146 0.60687 0.05673 0.0
H1309 H 0.3282 0.63305 0.10189 0.0
H1310 H 0.32113 0.66316 0.09335 0.0
H1311 H 0.3479 0.65861 0.10699 0.0
C1312 C 0.41266 0.87996 0.37522 0.0
C1313 C 0.41066 0.90493 0.37996 0.0
C1314 C 0.40631 0.87194 0.35851 0.0
C1315 C 0.39782 0.88933 0.34625 0.0
C1316 C 0.39513 0.91443 0.3511 0.0
C1317 C 0.40161 0.92193 0.36787 0.0
C1318 C 0.40934 0.845 0.35384 0.0
C1319 C 0.38623 0.93355 0.33838 0.0
C1320 C 0.41021 0.8769 0.29887 0.0
C1321 C 0.3868 0.86945 0.29276 0.0
C1322 C 0.41401 0.88305 0.31625 0.0
C1323 C 0.39394 0.88176 0.32795 0.0
C1324 C 0.37032 0.87396 0.32202 0.0
C1325 C 0.36702 0.86787 0.30448 0.0
C1326 C 0.43951 0.89126 0.32206 0.0
C1327 C 0.3485 0.87237 0.33415 0.0
H1328 H 0.41923 0.86666 0.38459 0.0
H1329 H 0.40022 0.94129 0.37138 0.0
H1330 H 0.39193 0.83769 0.34812 0.0
H1331 H 0.42409 0.84294 0.34397 0.0
H1332 H 0.41434 0.83355 0.36519 0.0
H1333 H 0.38331 0.9519 0.34454 0.0
H1334 H 0.40006 0.93561 0.3279 0.0
H1335 H 0.36856 0.92753 0.33231 0.0
H1336 H 0.42571 0.87809 0.29002 0.0
H1337 H 0.34887 0.86214 0.29993 0.0
H1338 H 0.44624 0.87923 0.33263 0.0
H1339 H 0.43861 0.91039 0.32723 0.0
H1340 H 0.45328 0.89075 0.3114 0.0
H1341 H 0.35309 0.86022 0.34519 0.0
H1342 H 0.33158 0.86513 0.32766 0.0
H1343 H 0.34432 0.89094 0.33952 0.0
C1344 C 0.07014 0.8993 0.61654 0.0
C1345 C 0.08799 0.90843 0.62814 0.0
C1346 C 0.0768 0.8917 0.59982 0.0
C1347 C 0.10185 0.8935 0.59454 0.0
C1348 C 0.12008 0.90187 0.60637 0.0
C1349 C 0.11294 0.90915 0.62304 0.0
C1350 C 0.05684 0.88279 0.58759 0.0
C1351 C 0.14698 0.90412 0.6012 0.0
C1352 C 0.12371 0.86312 0.55279 0.0
C1353 C 0.12283 0.88311 0.54132 0.0
C1354 C 0.11656 0.86603 0.57014 0.0
C1355 C 0.10854 0.88946 0.57613 0.0
C1356 C 0.10736 0.90957 0.56459 0.0
C1357 C 0.11442 0.90614 0.54738 0.0
C1358 C 0.11783 0.84414 0.5821 0.0
C1359 C 0.09899 0.9349 0.57047 0.0
H1360 H 0.0508 0.89882 0.62031 0.0
H1361 H 0.12692 0.91564 0.63205 0.0
H1362 H 0.05396 0.89667 0.57729 0.0
H1363 H 0.06258 0.86531 0.58121 0.0
H1364 H 0.03888 0.87971 0.59425 0.0
H1365 H 0.15913 0.90897 0.61231 0.0
H1366 H 0.15363 0.88655 0.59542 0.0
H1367 H 0.14892 0.91866 0.59124 0.0
H1368 H 0.13009 0.84525 0.54824 0.0
H1369 H 0.11363 0.92177 0.53871 0.0
H1370 H 0.0995 0.84108 0.58823 0.0
H1371 H 0.1313 0.84789 0.59263 0.0
H1372 H 0.12348 0.82694 0.57529 0.0
H1373 H 0.08005 0.93385 0.57599 0.0
H1374 H 0.09884 0.94852 0.55979 0.0
H1375 H 0.1115 0.94185 0.5808 0.0
C1376 C 0.60246 0.41171 0.87299 0.0
C1377 C 0.61311 0.43496 0.86996 0.0
C1378 C 0.60797 0.39839 0.888 0.0
C1379 C 0.62489 0.40832 0.90017 0.0
C1380 C 0.63631 0.4314 0.89698 0.0
C1381 C 0.63013 0.44453 0.88199 0.0
C1382 C 0.59525 0.37393 0.89102 0.0
C1383 C 0.65464 0.44247 0.9096 0.0
C1384 C 0.61823 0.38885 0.94685 0.0
C1385 C 0.63678 0.37084 0.94841 0.0
C1386 C 0.61416 0.40105 0.93121 0.0
C1387 C 0.62926 0.3954 0.9168 0.0
C1388 C 0.64817 0.37734 0.91829 0.0
C1389 C 0.65159 0.3651 0.93409 0.0
C1390 C 0.59357 0.41992 0.93008 0.0
C1391 C 0.66486 0.37112 0.90326 0.0
H1392 H 0.58978 0.40382 0.8636 0.0
H1393 H 0.63832 0.46254 0.87988 0.0
H1394 H 0.60922 0.35922 0.89315 0.0
H1395 H 0.5837 0.3751 0.90284 0.0
H1396 H 0.58317 0.36839 0.88002 0.0
H1397 H 0.6634 0.45954 0.90455 0.0
H1398 H 0.6451 0.44704 0.92188 0.0
H1399 H 0.66943 0.42891 0.91263 0.0
H1400 H 0.60667 0.39328 0.95788 0.0
H1401 H 0.66605 0.35129 0.9353 0.0
H1402 H 0.58022 0.41449 0.91982 0.0
H1403 H 0.60129 0.43818 0.92651 0.0
H1404 H 0.58331 0.42195 0.94244 0.0
H1405 H 0.65363 0.36421 0.89224 0.0
H1406 H 0.67893 0.35692 0.90661 0.0
H1407 H 0.6746 0.388 0.89885 0.0
C1408 C 0.59301 0.09441 0.13728 0.0
C1409 C 0.61057 0.0956 0.12395 0.0
C1410 C 0.599 0.10182 0.15415 0.0
C1411 C 0.62328 0.11023 0.15789 0.0
C1412 C 0.64101 0.11188 0.14449 0.0
C1413 C 0.63439 0.10471 0.12766 0.0
C1414 C 0.57951 0.10001 0.16807 0.0
C1415 C 0.66716 0.12056 0.14802 0.0
C1416 C 0.6342 0.14417 0.20036 0.0
C1417 C 0.6421 0.12484 0.21104 0.0
C1418 C 0.62816 0.13979 0.18296 0.0
C1419 C 0.63053 0.11562 0.17605 0.0
C1420 C 0.63913 0.09622 0.18667 0.0
C1421 C 0.6446 0.10102 0.20405 0.0
C1422 C 0.61869 0.16085 0.17207 0.0
C1423 C 0.64234 0.07029 0.17971 0.0
H1424 H 0.57467 0.08709 0.13465 0.0
H1425 H 0.64795 0.10617 0.11741 0.0
H1426 H 0.58501 0.08576 0.17758 0.0
H1427 H 0.57795 0.11782 0.17514 0.0
H1428 H 0.56098 0.09507 0.16278 0.0
H1429 H 0.6784 0.12183 0.13605 0.0
H1430 H 0.66689 0.13895 0.15441 0.0
H1431 H 0.67645 0.10759 0.157 0.0
H1432 H 0.63217 0.1626 0.20571 0.0
H1433 H 0.651 0.08605 0.21217 0.0
H1434 H 0.5995 0.15681 0.16769 0.0
H1435 H 0.63028 0.16287 0.16034 0.0
H1436 H 0.61865 0.17869 0.17922 0.0
H1437 H 0.62414 0.06285 0.17546 0.0
H1438 H 0.65033 0.05756 0.18945 0.0
H1439 H 0.65465 0.07046 0.16825 0.0
C1440 C 0.92382 0.13038 0.37792 0.0
C1441 C 0.91305 0.11389 0.36609 0.0
C1442 C 0.91202 0.13615 0.39354 0.0
C1443 C 0.88876 0.12532 0.39736 0.0
C1444 C 0.87769 0.10878 0.38541 0.0
C1445 C 0.89004 0.10316 0.36994 0.0
C1446 C 0.92454 0.15368 0.40604 0.0
C1447 C 0.8528 0.09709 0.38896 0.0
C1448 C 0.87236 0.12322 0.44489 0.0
C1449 C 0.85782 0.14454 0.44679 0.0
C1450 C 0.88184 0.11628 0.42874 0.0
C1451 C 0.87648 0.1309 0.41411 0.0
C1452 C 0.86078 0.15175 0.41579 0.0
C1453 C 0.85169 0.1584 0.43215 0.0
C1454 C 0.89853 0.09393 0.42749 0.0
C1455 C 0.85439 0.1676 0.40043 0.0
H1456 H 0.94169 0.13855 0.37502 0.0
H1457 H 0.88151 0.09067 0.36069 0.0
H1458 H 0.9123 0.16973 0.40869 0.0
H1459 H 0.92788 0.14426 0.41851 0.0
H1460 H 0.94255 0.16062 0.40107 0.0
H1461 H 0.84652 0.08497 0.3782 0.0
H1462 H 0.85379 0.08594 0.40092 0.0
H1463 H 0.83864 0.11165 0.39112 0.0
H1464 H 0.87709 0.11237 0.45615 0.0
H1465 H 0.84036 0.17483 0.43354 0.0
H1466 H 0.91755 0.09984 0.42392 0.0
H1467 H 0.89187 0.08121 0.41721 0.0
H1468 H 0.89955 0.08361 0.43983 0.0
H1469 H 0.87131 0.17717 0.39582 0.0
H1470 H 0.84013 0.18174 0.40357 0.0
H1471 H 0.84747 0.15596 0.38962 0.0
C1472 C 0.93837 0.38775 0.63656 0.0
C1473 C 0.92606 0.40188 0.62403 0.0
C1474 C 0.92604 0.37978 0.65149 0.0
C1475 C 0.90102 0.38667 0.65421 0.0
C1476 C 0.88843 0.40078 0.64163 0.0
C1477 C 0.90095 0.40784 0.62661 0.0
C1478 C 0.9399 0.36428 0.66448 0.0
C1479 C 0.86187 0.4089 0.6442 0.0
C1480 C 0.86131 0.35378 0.68752 0.0
C1481 C 0.86403 0.36944 0.70185 0.0
C1482 C 0.87365 0.35885 0.67197 0.0
C1483 C 0.8884 0.38043 0.67067 0.0
C1484 C 0.89082 0.39646 0.68506 0.0
C1485 C 0.87889 0.39057 0.70055 0.0
C1486 C 0.87116 0.34102 0.65701 0.0
C1487 C 0.90579 0.42001 0.68406 0.0
H1488 H 0.95778 0.38316 0.63487 0.0
H1489 H 0.89091 0.41804 0.61684 0.0
H1490 H 0.94226 0.37483 0.67669 0.0
H1491 H 0.9291 0.34741 0.66756 0.0
H1492 H 0.95852 0.35865 0.65976 0.0
H1493 H 0.8547 0.41974 0.63312 0.0
H1494 H 0.84974 0.39259 0.64604 0.0
H1495 H 0.86045 0.42043 0.65605 0.0
H1496 H 0.84998 0.33731 0.6886 0.0
H1497 H 0.88086 0.40278 0.71161 0.0
H1498 H 0.88978 0.3343 0.65309 0.0
H1499 H 0.86297 0.35052 0.64571 0.0
H1500 H 0.85939 0.32485 0.66023 0.0
H1501 H 0.92542 0.41564 0.68107 0.0
H1502 H 0.90518 0.43082 0.69628 0.0
H1503 H 0.89865 0.43176 0.67345 0.0
C1504 C 0.61751 0.1076 0.38073 0.0
C1505 C 0.59299 0.11485 0.38412 0.0
C1506 C 0.62928 0.11414 0.36527 0.0
C1507 C 0.6162 0.12825 0.35292 0.0
C1508 C 0.59161 0.13601 0.35639 0.0
C1509 C 0.5803 0.12921 0.37195 0.0
C1510 C 0.65555 0.10563 0.36204 0.0
C1511 C 0.57706 0.15106 0.34351 0.0
C1512 C 0.64979 0.16244 0.3172 0.0
C1513 C 0.6455 0.1468 0.30302 0.0
C1514 C 0.64102 0.1563 0.33369 0.0
C1515 C 0.62772 0.13401 0.33599 0.0
C1516 C 0.62424 0.11771 0.32185 0.0
C1517 C 0.63317 0.12431 0.30553 0.0
C1518 C 0.64518 0.17408 0.3485 0.0
C1519 C 0.61028 0.09369 0.32381 0.0
H1520 H 0.62755 0.09686 0.39022 0.0
H1521 H 0.56128 0.13466 0.37442 0.0
H1522 H 0.65603 0.09323 0.3506 0.0
H1523 H 0.66759 0.1217 0.35916 0.0
H1524 H 0.66347 0.0956 0.37325 0.0
H1525 H 0.5585 0.15645 0.34847 0.0
H1526 H 0.58745 0.16806 0.34015 0.0
H1527 H 0.57451 0.14027 0.33141 0.0
H1528 H 0.65934 0.17984 0.31532 0.0
H1529 H 0.62991 0.11209 0.29464 0.0
H1530 H 0.65349 0.16433 0.35967 0.0
H1531 H 0.62712 0.18173 0.35282 0.0
H1532 H 0.65749 0.18967 0.34489 0.0
H1533 H 0.61845 0.08262 0.33441 0.0
H1534 H 0.61046 0.08243 0.31178 0.0
H1535 H 0.59071 0.09758 0.32732 0.0
C1536 C 0.91325 0.09508 0.61089 0.0
C1537 C 0.89726 0.09819 0.62503 0.0
C1538 C 0.90636 0.10279 0.5943 0.0
C1539 C 0.88268 0.11343 0.59165 0.0
C1540 C 0.86662 0.1171 0.60587 0.0
C1541 C 0.87417 0.10963 0.62239 0.0
C1542 C 0.92414 0.0988 0.5795 0.0
C1543 C 0.84113 0.12819 0.60353 0.0
C1544 C 0.87097 0.14629 0.54907 0.0
C1545 C 0.86071 0.12716 0.53908 0.0
C1546 C 0.87795 0.14227 0.56633 0.0
C1547 C 0.87405 0.11875 0.5738 0.0
C1548 C 0.86282 0.09972 0.56394 0.0
C1549 C 0.85653 0.10408 0.54667 0.0
C1550 C 0.89022 0.16289 0.57638 0.0
C1551 C 0.85786 0.07455 0.57153 0.0
H1552 H 0.93097 0.086 0.61267 0.0
H1553 H 0.86188 0.11264 0.63325 0.0
H1554 H 0.91649 0.08473 0.57049 0.0
H1555 H 0.92647 0.11615 0.57211 0.0
H1556 H 0.94267 0.09248 0.58395 0.0
H1557 H 0.83145 0.13113 0.61602 0.0
H1558 H 0.84246 0.14615 0.59676 0.0
H1559 H 0.82964 0.11577 0.59535 0.0
H1560 H 0.87431 0.16414 0.54322 0.0
H1561 H 0.84829 0.08933 0.53907 0.0
H1562 H 0.90955 0.15756 0.57962 0.0
H1563 H 0.88036 0.16613 0.58874 0.0
H1564 H 0.89068 0.18046 0.56903 0.0
H1565 H 0.87567 0.06549 0.5749 0.0
H1566 H 0.84756 0.06229 0.56247 0.0
H1567 H 0.84697 0.0764 0.58361 0.0
C1568 C 0.87949 0.41217 0.8748 0.0
C1569 C 0.90197 0.40212 0.88072 0.0
C1570 C 0.87044 0.40671 0.85821 0.0
C1571 C 0.88401 0.39058 0.84735 0.0
C1572 C 0.90608 0.37948 0.85352 0.0
C1573 C 0.91487 0.38551 0.87006 0.0
C1574 C 0.8469 0.419 0.85207 0.0
C1575 C 0.92099 0.36202 0.84236 0.0
C1576 C 0.85675 0.36342 0.80603 0.0
C1577 C 0.86822 0.37817 0.79354 0.0
C1578 C 0.86099 0.36769 0.82373 0.0
C1579 C 0.87677 0.38731 0.82894 0.0
C1580 C 0.88719 0.40306 0.81637 0.0
C1581 C 0.88289 0.39822 0.79886 0.0
C1582 C 0.84962 0.35048 0.83678 0.0
C1583 C 0.90377 0.42444 0.82137 0.0
H1584 H 0.86905 0.42455 0.88308 0.0
H1585 H 0.93234 0.3778 0.8744 0.0
H1586 H 0.85135 0.43219 0.84161 0.0
H1587 H 0.83394 0.40508 0.84661 0.0
H1588 H 0.83733 0.42922 0.8626 0.0
H1589 H 0.93628 0.35305 0.84964 0.0
H1590 H 0.90883 0.34742 0.83685 0.0
H1591 H 0.92915 0.3723 0.83139 0.0
H1592 H 0.84544 0.34787 0.80198 0.0
H1593 H 0.89153 0.4099 0.78926 0.0
H1594 H 0.84058 0.36113 0.8473 0.0
H1595 H 0.86442 0.33912 0.84276 0.0
H1596 H 0.8357 0.33789 0.83084 0.0
H1597 H 0.89449 0.4363 0.83114 0.0
H1598 H 0.90882 0.43604 0.81012 0.0
H1599 H 0.9211 0.41733 0.8273 0.0
C1600 C 0.60392 0.42636 0.11475 0.0
C1601 C 0.59459 0.40945 0.1268 0.0
C1602 C 0.61065 0.41874 0.09806 0.0
C1603 C 0.60733 0.39376 0.09309 0.0
C1604 C 0.59826 0.37651 0.10518 0.0
C1605 C 0.59238 0.38448 0.12194 0.0
C1606 C 0.6208 0.4376 0.08562 0.0
C1607 C 0.59406 0.3498 0.10026 0.0
C1608 C 0.59884 0.38473 0.04491 0.0
C1609 C 0.62227 0.37617 0.03995 0.0
C1610 C 0.59335 0.38928 0.06232 0.0
C1611 C 0.6121 0.38608 0.07494 0.0
C1612 C 0.63566 0.37687 0.07002 0.0
C1613 C 0.64035 0.37163 0.05254 0.0
C1614 C 0.56774 0.39826 0.06712 0.0
C1615 C 0.65632 0.37386 0.08303 0.0
H1616 H 0.60546 0.44572 0.11819 0.0
H1617 H 0.58589 0.37105 0.13122 0.0
H1618 H 0.63835 0.4308 0.07981 0.0
H1619 H 0.60741 0.44046 0.07493 0.0
H1620 H 0.62441 0.4557 0.09196 0.0
H1621 H 0.5874 0.3386 0.1113 0.0
H1622 H 0.58013 0.34866 0.08972 0.0
H1623 H 0.61146 0.3415 0.0953 0.0
H1624 H 0.58488 0.38814 0.03511 0.0
H1625 H 0.65858 0.3653 0.04861 0.0
H1626 H 0.56877 0.41767 0.07174 0.0
H1627 H 0.56014 0.38703 0.07782 0.0
H1628 H 0.55464 0.3974 0.05605 0.0
H1629 H 0.66174 0.39227 0.08815 0.0
H1630 H 0.67297 0.36492 0.07732 0.0
H1631 H 0.64998 0.36269 0.09414 0.0
loop_
_geom_bond_atom_site_label_1
_geom_bond_atom_site_label_2
_geom_bond_distance
_geom_bond_site_symmetry_2
_ccdc_geom_bond_type
H0 C27 0.929 . S
N1 C26 1.433 . S
N1 C32 1.435 . S
N1 C38 1.423 . S
H2 C28 0.930 . S
H3 C31 0.931 . S
H4 C30 0.929 . S
H5 C33 0.930 . S
H6 C34 0.932 . S
H7 C37 0.929 . S
H8 C36 0.931 . S
H9 C39 0.932 . S
H10 C43 0.932 . S
H11 C40 0.931 . S
H12 C42 0.929 . S
H13 C45 0.929 . S
H14 C46 0.930 . S
H15 C48 0.929 . S
H16 C49 0.931 . S
H17 C51 0.930 . S
H18 C52 0.932 . S
H19 C54 0.931 . S
H20 C55 0.929 . S
H21 C57 0.929 . S
H22 C58 0.961 . S
H23 C60 0.929 . S
N24 C44 1.433 . S
N24 C50 1.435 . S
N24 C56 1.423 . S
H25 C61 0.932 . S
C26 N1 1.433 . S
C26 C27 1.363 . S
C26 C31 1.370 . S
C27 H0 0.929 . S
C27 C26 1.363 . S
C27 C28 1.385 . S
C28 H2 0.930 . S
C28 C27 1.385 . S
C28 C29 1.357 . S
C29 C28 1.357 . S
C29 C30 1.406 . S
C30 H4 0.929 . S
C30 C29 1.406 . S
C30 C31 1.391 . S
C31 H3 0.931 . S
C31 C26 1.370 . S
C31 C30 1.391 . S
C32 N1 1.435 . S
C32 C33 1.358 . S
C32 C37 1.371 . S
C33 H5 0.930 . S
C33 C32 1.358 . S
C33 C34 1.405 . S
C34 H6 0.932 . S
C34 C33 1.405 . S
C34 C35 1.383 . S
C35 C34 1.383 . S
C35 C36 1.393 . S
C36 H8 0.931 . S
C36 C35 1.393 . S
C36 C37 1.382 . S
C37 H7 0.929 . S
C37 C32 1.371 . S
C37 C36 1.382 . S
C38 N1 1.423 . S
C38 C39 1.362 . S
C38 C43 1.388 . S
C39 H9 0.932 . S
C39 C38 1.362 . S
C39 C40 1.376 1_565 S
C40 H11 0.931 . S
C40 C39 1.376 1_545 S
C40 C41 1.396 . S
C41 C40 1.396 . S
C41 C42 1.348 1_545 S
C41 C59 1.472 . S
C42 H12 0.929 . S
C42 C41 1.348 1_565 S
C42 C43 1.443 . S
C43 H10 0.932 . S
C43 C38 1.388 . S
C43 C42 1.443 . S
C44 N24 1.433 . S
C44 C45 1.363 . S
C44 C49 1.370 . S
C45 H13 0.929 . S
C45 C44 1.363 . S
C45 C46 1.385 . S
C46 H14 0.930 . S
C46 C45 1.385 . S
C46 C47 1.357 . S
C47 C46 1.357 . S
C47 C48 1.406 . S
C48 H15 0.929 . S
C48 C47 1.406 . S
C48 C49 1.391 . S
C49 H16 0.931 . S
C49 C44 1.370 . S
C49 C48 1.391 . S
C50 N24 1.435 . S
C50 C51 1.358 . S
C50 C55 1.371 . S
C51 H17 0.930 . S
C51 C50 1.358 . S
C51 C52 1.405 . S
C52 H18 0.932 . S
C52 C51 1.405 . S
C52 C53 1.383 . S
C53 C52 1.383 . S
C53 C54 1.393 . S
C54 H19 0.931 . S
C54 C53 1.393 . S
C54 C55 1.382 . S
C55 H20 0.929 . S
C55 C50 1.371 . S
C55 C54 1.382 . S
C56 N24 1.423 . S
C56 C57 1.362 . S
C56 C61 1.388 . S
C57 H21 0.929 . S
C57 C56 1.362 . S
C57 C58 1.345 1_655 S
C58 H22 0.961 . S
C58 C57 1.345 1_455 S
C58 C59 1.400 . S
C59 C41 1.472 . S
C59 C58 1.400 . S
C59 C60 1.348 1_455 S
C60 H23 0.929 . S
C60 C59 1.348 1_655 S
C60 C61 1.443 . S
C61 H25 0.932 . S
C61 C56 1.388 . S
C61 C60 1.443 . S
H62 C89 0.929 . S
N63 C88 1.433 . S
N63 C94 1.435 . S
N63 C100 1.423 . S
H64 C90 0.930 . S
H65 C93 0.931 . S
H66 C92 0.929 . S
H67 C95 0.930 . S
H68 C96 0.932 . S
H69 C99 0.929 . S
H70 C98 0.931 . S
H71 C101 0.929 . S
H72 C105 0.932 . S
H73 C102 0.931 . S
H74 C104 0.929 . S
H75 C107 0.929 . S
H76 C108 0.930 . S
H77 C110 0.929 . S
H78 C111 0.931 . S
H79 C113 0.930 . S
H80 C114 0.932 . S
H81 C116 0.931 . S
H82 C117 0.929 . S
H83 C119 0.929 . S
H84 C120 0.931 . S
H85 C122 0.929 . S
N86 C106 1.433 . S
N86 C112 1.435 . S
N86 C118 1.423 . S
H87 C123 0.932 . S
C88 N63 1.433 . S
C88 C89 1.363 . S
C88 C93 1.370 . S
C89 H62 0.929 . S
C89 C88 1.363 . S
C89 C90 1.385 . S
C90 H64 0.930 . S
C90 C89 1.385 . S
C90 C91 1.357 . S
C91 C90 1.357 . S
C91 C92 1.406 . S
C92 H66 0.929 . S
C92 C91 1.406 . S
C92 C93 1.391 . S
C93 H65 0.931 . S
C93 C88 1.370 . S
C93 C92 1.391 . S
C94 N63 1.435 . S
C94 C95 1.358 . S
C94 C99 1.371 . S
C95 H67 0.930 . S
C95 C94 1.358 . S
C95 C96 1.405 . S
C96 H68 0.932 . S
C96 C95 1.405 . S
C96 C97 1.383 . S
C97 C96 1.383 . S
C97 C98 1.393 . S
C98 H70 0.931 . S
C98 C97 1.393 . S
C98 C99 1.382 . S
C99 H69 0.929 . S
C99 C94 1.371 . S
C99 C98 1.382 . S
C100 N63 1.423 . S
C100 C101 1.362 . S
C100 C105 1.388 . S
C101 H71 0.929 . S
C101 C100 1.362 . S
C101 C102 1.376 1_655 S
C102 H73 0.931 . S
C102 C101 1.376 1_455 S
C102 C103 1.396 . S
C103 C102 1.396 . S
C103 C104 1.348 1_455 S
C103 C121 1.472 . S
C104 H74 0.929 . S
C104 C103 1.348 1_655 S
C104 C105 1.443 . S
C105 H72 0.932 . S
C105 C100 1.388 . S
C105 C104 1.443 . S
C106 N86 1.433 . S
C106 C107 1.363 . S
C106 C111 1.370 . S
C107 H75 0.929 . S
C107 C106 1.363 . S
C107 C108 1.385 . S
C108 H76 0.930 . S
C108 C107 1.385 . S
C108 C109 1.357 . S
C109 C108 1.357 . S
C109 C110 1.406 . S
C110 H77 0.929 . S
C110 C109 1.406 . S
C110 C111 1.391 . S
C111 H78 0.931 . S
C111 C106 1.370 . S
C111 C110 1.391 . S
C112 N86 1.435 . S
C112 C113 1.358 . S
C112 C117 1.371 . S
C113 H79 0.930 . S
C113 C112 1.358 . S
C113 C114 1.405 . S
C114 H80 0.932 . S
C114 C113 1.405 . S
C114 C115 1.383 . S
C115 C114 1.383 . S
C115 C116 1.393 . S
C116 H81 0.931 . S
C116 C115 1.393 . S
C116 C117 1.382 . S
C117 H82 0.929 . S
C117 C112 1.371 . S
C117 C116 1.382 . S
C118 N86 1.423 . S
C118 C119 1.362 . S
C118 C123 1.388 . S
C119 H83 0.929 . S
C119 C118 1.362 . S
C119 C120 1.376 . S
C120 H84 0.931 . S
C120 C119 1.376 . S
C120 C121 1.396 . S
C121 C103 1.472 . S
C121 C120 1.396 . S
C121 C122 1.348 . S
C122 H85 0.929 . S
C122 C121 1.348 . S
C122 C123 1.443 . S
C123 H87 0.932 . S
C123 C118 1.388 . S
C123 C122 1.443 . S
H124 C151 0.929 . S
N125 C150 1.433 . S
N125 C156 1.435 . S
N125 C162 1.423 . S
H126 C152 0.930 . S
H127 C155 0.931 . S
H128 C154 0.929 . S
H129 C157 0.930 . S
H130 C158 0.932 . S
H131 C161 0.929 . S
H132 C160 0.931 . S
H133 C163 0.929 . S
H134 C167 0.932 . S
H135 C164 0.931 . S
H136 C166 0.929 . S
H137 C169 0.929 . S
H138 C170 0.930 . S
H139 C172 0.929 . S
H140 C173 0.931 . S
H141 C175 0.930 . S
H142 C176 0.932 . S
H143 C178 0.931 . S
H144 C179 0.929 . S
H145 C181 0.929 . S
H146 C182 0.931 . S
H147 C184 0.929 . S
N148 C168 1.433 . S
N148 C174 1.435 . S
N148 C180 1.423 . S
H149 C185 0.932 . S
C150 N125 1.433 . S
C150 C151 1.363 . S
C150 C155 1.370 . S
C151 H124 0.929 . S
C151 C150 1.363 . S
C151 C152 1.385 . S
C152 H126 0.930 . S
C152 C151 1.385 . S
C152 C153 1.357 . S
C153 C152 1.357 . S
C153 C154 1.406 . S
C154 H128 0.929 . S
C154 C153 1.406 . S
C154 C155 1.391 . S
C155 H127 0.931 . S
C155 C150 1.370 . S
C155 C154 1.391 . S
C156 N125 1.435 . S
C156 C157 1.358 . S
C156 C161 1.371 . S
C157 H129 0.930 . S
C157 C156 1.358 . S
C157 C158 1.405 . S
C158 H130 0.932 . S
C158 C157 1.405 . S
C158 C159 1.383 . S
C159 C158 1.383 . S
C159 C160 1.393 . S
C160 H132 0.931 . S
C160 C159 1.393 . S
C160 C161 1.382 . S
C161 H131 0.929 . S
C161 C156 1.371 . S
C161 C160 1.382 . S
C162 N125 1.423 . S
C162 C163 1.362 . S
C162 C167 1.388 . S
C163 H133 0.929 . S
C163 C162 1.362 . S
C163 C164 1.376 . S
C164 H135 0.931 . S
C164 C163 1.376 . S
C164 C165 1.396 . S
C165 C164 1.396 . S
C165 C166 1.348 . S
C165 C183 1.472 . S
C166 H136 0.929 . S
C166 C165 1.348 . S
C166 C167 1.443 . S
C167 H134 0.932 . S
C167 C162 1.388 . S
C167 C166 1.443 . S
C168 N148 1.433 . S
C168 C169 1.363 . S
C168 C173 1.370 . S
C169 H137 0.929 . S
C169 C168 1.363 . S
C169 C170 1.385 . S
C170 H138 0.930 . S
C170 C169 1.385 . S
C170 C171 1.357 . S
C171 C170 1.357 . S
C171 C172 1.406 . S
C172 H139 0.929 . S
C172 C171 1.406 . S
C172 C173 1.391 . S
C173 H140 0.931 . S
C173 C168 1.370 . S
C173 C172 1.391 . S
C174 N148 1.435 . S
C174 C175 1.358 . S
C174 C179 1.371 . S
C175 H141 0.930 . S
C175 C174 1.358 . S
C175 C176 1.405 . S
C176 H142 0.932 . S
C176 C175 1.405 . S
C176 C177 1.383 . S
C177 C176 1.383 . S
C177 C178 1.393 . S
C178 H143 0.931 . S
C178 C177 1.393 . S
C178 C179 1.382 . S
C179 H144 0.929 . S
C179 C174 1.371 . S
C179 C178 1.382 . S
C180 N148 1.423 . S
C180 C181 1.362 . S
C180 C185 1.388 . S
C181 H145 0.929 . S
C181 C180 1.362 . S
C181 C182 1.376 . S
C182 H146 0.931 . S
C182 C181 1.376 . S
C182 C183 1.396 . S
C183 C165 1.472 . S
C183 C182 1.396 . S
C183 C184 1.348 . S
C184 H147 0.929 . S
C184 C183 1.348 . S
C184 C185 1.443 . S
C185 H149 0.932 . S
C185 C180 1.388 . S
C185 C184 1.443 . S
H186 C213 0.929 . S
N187 C212 1.433 . S
N187 C218 1.435 . S
N187 C224 1.423 . S
H188 C214 0.930 . S
H189 C217 0.931 . S
H190 C216 0.929 . S
H191 C219 0.930 . S
H192 C220 0.932 . S
H193 C223 0.929 . S
H194 C222 0.931 . S
H195 C225 0.929 . S
H196 C229 0.932 . S
H197 C226 0.931 . S
H198 C228 0.929 . S
H199 C231 0.929 . S
H200 C232 0.930 . S
H201 C234 0.929 . S
H202 C235 0.931 . S
H203 C237 0.930 . S
H204 C238 0.932 . S
H205 C240 0.931 . S
H206 C241 0.929 . S
H207 C243 0.929 . S
H208 C244 0.931 1_565 S
H209 C246 0.929 . S
N210 C230 1.433 . S
N210 C236 1.435 . S
N210 C242 1.423 . S
H211 C247 0.932 . S
C212 N187 1.433 . S
C212 C213 1.363 . S
C212 C217 1.370 . S
C213 H186 0.929 . S
C213 C212 1.363 . S
C213 C214 1.385 . S
C214 H188 0.930 . S
C214 C213 1.385 . S
C214 C215 1.357 . S
C215 C214 1.357 . S
C215 C216 1.406 . S
C216 H190 0.929 . S
C216 C215 1.406 . S
C216 C217 1.391 . S
C217 H189 0.931 . S
C217 C212 1.370 . S
C217 C216 1.391 . S
C218 N187 1.435 . S
C218 C219 1.358 . S
C218 C223 1.371 . S
C219 H191 0.930 . S
C219 C218 1.358 . S
C219 C220 1.405 . S
C220 H192 0.932 . S
C220 C219 1.405 . S
C220 C221 1.383 . S
C221 C220 1.383 . S
C221 C222 1.393 . S
C222 H194 0.931 . S
C222 C221 1.393 . S
C222 C223 1.382 . S
C223 H193 0.929 . S
C223 C218 1.371 . S
C223 C222 1.382 . S
C224 N187 1.423 . S
C224 C225 1.362 . S
C224 C229 1.388 . S
C225 H195 0.929 . S
C225 C224 1.362 . S
C225 C226 1.376 . S
C226 H197 0.931 . S
C226 C225 1.376 . S
C226 C227 1.396 . S
C227 C226 1.396 . S
C227 C228 1.348 . S
C227 C245 1.472 1_565 S
C228 H198 0.929 . S
C228 C227 1.348 . S
C228 C229 1.443 . S
C229 H196 0.932 . S
C229 C224 1.388 . S
C229 C228 1.443 . S
C230 N210 1.433 . S
C230 C231 1.363 . S
C230 C235 1.370 . S
C231 H199 0.929 . S
C231 C230 1.363 . S
C231 C232 1.385 . S
C232 H200 0.930 . S
C232 C231 1.385 . S
C232 C233 1.357 . S
C233 C232 1.357 . S
C233 C234 1.406 . S
C234 H201 0.929 . S
C234 C233 1.406 . S
C234 C235 1.391 . S
C235 H202 0.931 . S
C235 C230 1.370 . S
C235 C234 1.391 . S
C236 N210 1.435 . S
C236 C237 1.358 . S
C236 C241 1.371 . S
C237 H203 0.930 . S
C237 C236 1.358 . S
C237 C238 1.405 . S
C238 H204 0.932 . S
C238 C237 1.405 . S
C238 C239 1.383 . S
C239 C238 1.383 . S
C239 C240 1.393 . S
C240 H205 0.931 . S
C240 C239 1.393 . S
C240 C241 1.382 . S
C241 H206 0.929 . S
C241 C236 1.371 . S
C241 C240 1.382 . S
C242 N210 1.423 . S
C242 C243 1.362 . S
C242 C247 1.388 . S
C243 H207 0.929 . S
C243 C242 1.362 . S
C243 C244 1.376 . S
C244 H208 0.931 1_545 S
C244 C243 1.376 . S
C244 C245 1.396 . S
C245 C227 1.472 1_545 S
C245 C244 1.396 . S
C245 C246 1.348 . S
C246 H209 0.929 . S
C246 C245 1.348 . S
C246 C247 1.443 . S
C247 H211 0.932 . S
C247 C242 1.388 . S
C247 C246 1.443 . S
H248 C275 0.929 . S
N249 C274 1.433 . S
N249 C280 1.435 . S
N249 C286 1.423 . S
H250 C276 0.930 . S
H251 C279 0.931 . S
H252 C278 0.929 . S
H253 C281 0.930 . S
H254 C282 0.932 . S
H255 C285 0.929 . S
H256 C284 0.931 . S
H257 C287 0.929 . S
H258 C291 0.932 . S
H259 C288 0.931 . S
H260 C290 0.929 . S
H261 C293 0.929 . S
H262 C294 0.930 . S
H263 C296 0.929 . S
H264 C297 0.931 . S
H265 C299 0.930 . S
H266 C300 0.932 . S
H267 C302 0.931 . S
H268 C303 0.929 . S
H269 C305 0.929 . S
H270 C306 0.931 1_455 S
H271 C308 0.929 . S
N272 C292 1.433 . S
N272 C298 1.435 . S
N272 C304 1.423 . S
H273 C309 0.932 . S
C274 N249 1.433 . S
C274 C275 1.363 . S
C274 C279 1.370 . S
C275 H248 0.929 . S
C275 C274 1.363 . S
C275 C276 1.385 . S
C276 H250 0.930 . S
C276 C275 1.385 . S
C276 C277 1.357 . S
C277 C276 1.357 . S
C277 C278 1.406 . S
C278 H252 0.929 . S
C278 C277 1.406 . S
C278 C279 1.391 . S
C279 H251 0.931 . S
C279 C274 1.370 . S
C279 C278 1.391 . S
C280 N249 1.435 . S
C280 C281 1.358 . S
C280 C285 1.371 . S
C281 H253 0.930 . S
C281 C280 1.358 . S
C281 C282 1.405 . S
C282 H254 0.932 . S
C282 C281 1.405 . S
C282 C283 1.383 . S
C283 C282 1.383 . S
C283 C284 1.393 . S
C284 H256 0.931 . S
C284 C283 1.393 . S
C284 C285 1.382 . S
C285 H255 0.929 . S
C285 C280 1.371 . S
C285 C284 1.382 . S
C286 N249 1.423 . S
C286 C287 1.362 . S
C286 C291 1.388 . S
C287 H257 0.929 . S
C287 C286 1.362 . S
C287 C288 1.376 . S
C288 H259 0.931 . S
C288 C287 1.376 . S
C288 C289 1.396 . S
C289 C288 1.396 . S
C289 C290 1.348 . S
C289 C307 1.499 . S
C290 H260 0.929 . S
C290 C289 1.348 . S
C290 C291 1.443 . S
C291 H258 0.932 . S
C291 C286 1.388 . S
C291 C290 1.443 . S
C292 N272 1.433 . S
C292 C293 1.363 . S
C292 C297 1.370 . S
C293 H261 0.929 . S
C293 C292 1.363 . S
C293 C294 1.385 . S
C294 H262 0.930 . S
C294 C293 1.385 . S
C294 C295 1.357 . S
C295 C294 1.357 . S
C295 C296 1.406 . S
C296 H263 0.929 . S
C296 C295 1.406 . S
C296 C297 1.391 . S
C297 H264 0.931 . S
C297 C292 1.370 . S
C297 C296 1.391 . S
C298 N272 1.435 . S
C298 C299 1.358 . S
C298 C303 1.371 . S
C299 H265 0.930 . S
C299 C298 1.358 . S
C299 C300 1.405 . S
C300 H266 0.932 . S
C300 C299 1.405 . S
C300 C301 1.383 . S
C301 C300 1.383 . S
C301 C302 1.393 . S
C302 H267 0.931 . S
C302 C301 1.393 . S
C302 C303 1.382 . S
C303 H268 0.929 . S
C303 C298 1.371 . S
C303 C302 1.382 . S
C304 N272 1.423 . S
C304 C305 1.362 . S
C304 C309 1.388 . S
C305 H269 0.929 . S
C305 C304 1.362 . S
C305 C306 1.376 . S
C306 H270 0.931 1_655 S
C306 C305 1.376 . S
C306 C307 1.393 1_655 S
C307 C289 1.499 . S
C307 C306 1.393 1_455 S
C307 C308 1.323 1_455 S
C308 H271 0.929 . S
C308 C307 1.323 1_655 S
C308 C309 1.443 . S
C309 H273 0.932 . S
C309 C304 1.388 . S
C309 C308 1.443 . S
H310 C337 0.929 . S
N311 C336 1.433 . S
N311 C342 1.435 . S
N311 C348 1.423 . S
H312 C338 0.930 . S
H313 C341 0.931 . S
H314 C340 0.929 . S
H315 C343 0.930 . S
H316 C344 0.932 . S
H317 C347 0.929 . S
H318 C346 0.931 . S
H319 C349 0.929 . S
H320 C353 0.932 . S
H321 C350 0.931 . S
H322 C352 0.929 . S
H323 C355 0.929 . S
H324 C356 0.930 . S
H325 C358 0.929 . S
H326 C359 0.931 . S
H327 C361 0.930 . S
H328 C362 0.932 . S
H329 C364 0.931 . S
H330 C365 0.929 . S
H331 C367 0.929 . S
H332 C368 0.931 . S
H333 C370 0.929 . S
N334 C354 1.433 . S
N334 C360 1.435 . S
N334 C366 1.423 . S
H335 C371 0.932 . S
C336 N311 1.433 . S
C336 C337 1.363 . S
C336 C341 1.370 . S
C337 H310 0.929 . S
C337 C336 1.363 . S
C337 C338 1.385 . S
C338 H312 0.930 . S
C338 C337 1.385 . S
C338 C339 1.357 . S
C339 C338 1.357 . S
C339 C340 1.406 . S
C340 H314 0.929 . S
C340 C339 1.406 . S
C340 C341 1.391 . S
C341 H313 0.931 . S
C341 C336 1.370 . S
C341 C340 1.391 . S
C342 N311 1.435 . S
C342 C343 1.358 . S
C342 C347 1.371 . S
C343 H315 0.930 . S
C343 C342 1.358 . S
C343 C344 1.405 . S
C344 H316 0.932 . S
C344 C343 1.405 . S
C344 C345 1.383 . S
C345 C344 1.383 . S
C345 C346 1.393 . S
C346 H318 0.931 . S
C346 C345 1.393 . S
C346 C347 1.382 . S
C347 H317 0.929 . S
C347 C342 1.371 . S
C347 C346 1.382 . S
C348 N311 1.423 . S
C348 C349 1.362 . S
C348 C353 1.388 . S
C349 H319 0.929 . S
C349 C348 1.362 . S
C349 C350 1.376 . S
C350 H321 0.931 . S
C350 C349 1.376 . S
C350 C351 1.396 . S
C351 C350 1.396 . S
C351 C352 1.348 . S
C351 C369 1.472 . S
C352 H322 0.929 . S
C352 C351 1.348 . S
C352 C353 1.443 . S
C353 H320 0.932 . S
C353 C348 1.388 . S
C353 C352 1.443 . S
C354 N334 1.433 . S
C354 C355 1.363 . S
C354 C359 1.370 . S
C355 H323 0.929 . S
C355 C354 1.363 . S
C355 C356 1.385 . S
C356 H324 0.930 . S
C356 C355 1.385 . S
C356 C357 1.357 . S
C357 C356 1.357 . S
C357 C358 1.406 . S
C358 H325 0.929 . S
C358 C357 1.406 . S
C358 C359 1.391 . S
C359 H326 0.931 . S
C359 C354 1.370 . S
C359 C358 1.391 . S
C360 N334 1.435 . S
C360 C361 1.358 . S
C360 C365 1.371 . S
C361 H327 0.930 . S
C361 C360 1.358 . S
C361 C362 1.405 . S
C362 H328 0.932 . S
C362 C361 1.405 . S
C362 C363 1.383 . S
C363 C362 1.383 . S
C363 C364 1.393 . S
C364 H329 0.931 . S
C364 C363 1.393 . S
C364 C365 1.382 . S
C365 H330 0.929 . S
C365 C360 1.371 . S
C365 C364 1.382 . S
C366 N334 1.423 . S
C366 C367 1.362 . S
C366 C371 1.388 . S
C367 H331 0.929 . S
C367 C366 1.362 . S
C367 C368 1.376 . S
C368 H332 0.931 . S
C368 C367 1.376 . S
C368 C369 1.396 . S
C369 C351 1.472 . S
C369 C368 1.396 . S
C369 C370 1.348 . S
C370 H333 0.929 . S
C370 C369 1.348 . S
C370 C371 1.443 . S
C371 H335 0.932 . S
C371 C366 1.388 . S
C371 C370 1.443 . S
H372 C399 0.929 . S
N373 C398 1.433 . S
N373 C404 1.435 . S
N373 C410 1.423 . S
H374 C400 0.930 . S
H375 C403 0.931 . S
H376 C402 0.929 . S
H377 C405 0.930 . S
H378 C406 0.932 . S
H379 C409 0.929 . S
H380 C408 0.931 . S
H381 C411 0.932 . S
H382 C415 0.932 . S
H383 C412 0.931 . S
H384 C414 0.929 . S
H385 C417 0.929 . S
H386 C418 0.930 . S
H387 C420 0.929 . S
H388 C421 0.931 . S
H389 C423 0.930 . S
H390 C424 0.932 . S
H391 C426 0.931 . S
H392 C427 0.929 . S
H393 C429 0.929 . S
H394 C430 0.931 . S
H395 C432 0.929 . S
N396 C416 1.433 . S
N396 C422 1.435 . S
N396 C428 1.423 . S
H397 C433 0.932 . S
C398 N373 1.433 . S
C398 C399 1.363 . S
C398 C403 1.370 . S
C399 H372 0.929 . S
C399 C398 1.363 . S
C399 C400 1.385 . S
C400 H374 0.930 . S
C400 C399 1.385 . S
C400 C401 1.357 . S
C401 C400 1.357 . S
C401 C402 1.406 . S
C402 H376 0.929 . S
C402 C401 1.406 . S
C402 C403 1.391 . S
C403 H375 0.931 . S
C403 C398 1.370 . S
C403 C402 1.391 . S
C404 N373 1.435 . S
C404 C405 1.358 . S
C404 C409 1.371 . S
C405 H377 0.930 . S
C405 C404 1.358 . S
C405 C406 1.405 . S
C406 H378 0.932 . S
C406 C405 1.405 . S
C406 C407 1.383 . S
C407 C406 1.383 . S
C407 C408 1.393 . S
C408 H380 0.931 . S
C408 C407 1.393 . S
C408 C409 1.382 . S
C409 H379 0.929 . S
C409 C404 1.371 . S
C409 C408 1.382 . S
C410 N373 1.423 . S
C410 C411 1.362 . S
C410 C415 1.388 . S
C411 H381 0.932 . S
C411 C410 1.362 . S
C411 C412 1.376 1_565 S
C412 H383 0.931 . S
C412 C411 1.376 1_545 S
C412 C413 1.396 . S
C413 C412 1.396 . S
C413 C414 1.348 1_545 S
C413 C431 1.472 . S
C414 H384 0.929 . S
C414 C413 1.348 1_565 S
C414 C415 1.443 . S
C415 H382 0.932 . S
C415 C410 1.388 . S
C415 C414 1.443 . S
C416 N396 1.433 . S
C416 C417 1.363 . S
C416 C421 1.370 . S
C417 H385 0.929 . S
C417 C416 1.363 . S
C417 C418 1.385 . S
C418 H386 0.930 . S
C418 C417 1.385 . S
C418 C419 1.357 . S
C419 C418 1.357 . S
C419 C420 1.406 . S
C420 H387 0.929 . S
C420 C419 1.406 . S
C420 C421 1.391 . S
C421 H388 0.931 . S
C421 C416 1.370 . S
C421 C420 1.391 . S
C422 N396 1.435 . S
C422 C423 1.358 . S
C422 C427 1.371 . S
C423 H389 0.930 . S
C423 C422 1.358 . S
C423 C424 1.405 . S
C424 H390 0.932 . S
C424 C423 1.405 . S
C424 C425 1.383 . S
C425 C424 1.383 . S
C425 C426 1.393 . S
C426 H391 0.931 . S
C426 C425 1.393 . S
C426 C427 1.382 . S
C427 H392 0.929 . S
C427 C422 1.371 . S
C427 C426 1.382 . S
C428 N396 1.423 . S
C428 C429 1.362 . S
C428 C433 1.388 . S
C429 H393 0.929 . S
C429 C428 1.362 . S
C429 C430 1.376 . S
C430 H394 0.931 . S
C430 C429 1.376 . S
C430 C431 1.396 . S
C431 C413 1.472 . S
C431 C430 1.396 . S
C431 C432 1.348 . S
C432 H395 0.929 . S
C432 C431 1.348 . S
C432 C433 1.443 . S
C433 H397 0.932 . S
C433 C428 1.388 . S
C433 C432 1.443 . S
H434 C461 0.929 . S
N435 C460 1.433 . S
N435 C466 1.435 . S
N435 C472 1.423 . S
H436 C462 0.930 . S
H437 C465 0.931 . S
H438 C464 0.929 . S
H439 C467 0.930 . S
H440 C468 0.932 . S
H441 C471 0.929 . S
H442 C470 0.931 . S
H443 C473 0.929 . S
H444 C477 0.932 . S
H445 C474 0.931 . S
H446 C476 0.929 . S
H447 C479 0.929 . S
H448 C480 0.930 . S
H449 C482 0.929 . S
H450 C483 0.931 . S
H451 C485 0.930 . S
H452 C486 0.932 . S
H453 C488 0.931 . S
H454 C489 0.929 . S
H455 C491 0.929 . S
H456 C492 0.932 . S
H457 C494 0.929 . S
N458 C478 1.433 . S
N458 C484 1.435 . S
N458 C490 1.423 . S
H459 C495 0.932 . S
C460 N435 1.433 . S
C460 C461 1.363 . S
C460 C465 1.370 . S
C461 H434 0.929 . S
C461 C460 1.363 . S
C461 C462 1.385 . S
C462 H436 0.930 . S
C462 C461 1.385 . S
C462 C463 1.357 . S
C463 C462 1.357 . S
C463 C464 1.406 . S
C464 H438 0.929 . S
C464 C463 1.406 . S
C464 C465 1.391 . S
C465 H437 0.931 . S
C465 C460 1.370 . S
C465 C464 1.391 . S
C466 N435 1.435 . S
C466 C467 1.358 . S
C466 C471 1.371 . S
C467 H439 0.930 . S
C467 C466 1.358 . S
C467 C468 1.405 . S
C468 H440 0.932 . S
C468 C467 1.405 . S
C468 C469 1.383 . S
C469 C468 1.383 . S
C469 C470 1.393 . S
C470 H442 0.931 . S
C470 C469 1.393 . S
C470 C471 1.382 . S
C471 H441 0.929 . S
C471 C466 1.371 . S
C471 C470 1.382 . S
C472 N435 1.423 . S
C472 C473 1.362 . S
C472 C477 1.388 . S
C473 H443 0.929 . S
C473 C472 1.362 . S
C473 C474 1.376 1_455 S
C474 H445 0.931 . S
C474 C473 1.376 1_655 S
C474 C475 1.401 . S
C475 C474 1.401 . S
C475 C476 1.315 1_655 S
C475 C493 1.499 1_565 S
C476 H446 0.929 . S
C476 C475 1.315 1_455 S
C476 C477 1.443 . S
C477 H444 0.932 . S
C477 C472 1.388 . S
C477 C476 1.443 . S
C478 N458 1.433 . S
C478 C479 1.363 . S
C478 C483 1.370 . S
C479 H447 0.929 . S
C479 C478 1.363 . S
C479 C480 1.385 . S
C480 H448 0.930 . S
C480 C479 1.385 . S
C480 C481 1.357 . S
C481 C480 1.357 . S
C481 C482 1.406 . S
C482 H449 0.929 . S
C482 C481 1.406 . S
C482 C483 1.391 . S
C483 H450 0.931 . S
C483 C478 1.370 . S
C483 C482 1.391 . S
C484 N458 1.435 . S
C484 C485 1.358 . S
C484 C489 1.371 . S
C485 H451 0.930 . S
C485 C484 1.358 . S
C485 C486 1.405 . S
C486 H452 0.932 . S
C486 C485 1.405 . S
C486 C487 1.383 . S
C487 C486 1.383 . S
C487 C488 1.393 . S
C488 H453 0.931 . S
C488 C487 1.393 . S
C488 C489 1.382 . S
C489 H454 0.929 . S
C489 C484 1.371 . S
C489 C488 1.382 . S
C490 N458 1.423 . S
C490 C491 1.362 . S
C490 C495 1.388 . S
C491 H455 0.929 . S
C491 C490 1.362 . S
C491 C492 1.376 . S
C492 H456 0.932 . S
C492 C491 1.376 . S
C492 C493 1.396 . S
C493 C475 1.499 1_545 S
C493 C492 1.396 . S
C493 C494 1.348 . S
C494 H457 0.929 . S
C494 C493 1.348 . S
C494 C495 1.443 . S
C495 H459 0.932 . S
C495 C490 1.388 . S
C495 C494 1.443 . S
Co496 O497 2.218 . S
Co496 O498 2.090 . S
Co496 O500 2.004 . S
Co496 O506 2.021 1_554 S
Co496 O508 2.137 . S
Co496 O509 2.244 . S
O497 Co496 2.218 . S
O497 C504 1.245 1_554 S
O498 Co496 2.090 . S
O498 C504 1.262 1_554 S
C499 O508 1.247 . S
C499 O509 1.272 . S
O500 Co496 2.004 . S
O500 C505 1.259 . S
Co501 O502 2.061 . S
Co501 O507 2.052 1_554 S
Co501 O509 2.135 . S
O502 Co501 2.061 . S
O502 C505 1.235 . S
C503 O506 1.238 . S
C503 O507 1.241 . S
C504 O497 1.245 1_556 S
C504 O498 1.262 1_556 S
C505 O500 1.259 . S
C505 O502 1.235 . S
O506 Co496 2.021 1_556 S
O506 C503 1.238 . S
O507 Co501 2.052 1_556 S
O507 C503 1.241 . S
O508 Co496 2.137 . S
O508 C499 1.247 . S
O509 Co496 2.244 . S
O509 C499 1.272 . S
O509 Co501 2.135 . S
Co510 O511 2.216 . S
Co510 O512 2.091 . S
Co510 O514 2.004 . S
Co510 O520 2.021 . S
Co510 O522 2.137 . S
Co510 O523 2.244 . S
O511 Co510 2.216 . S
O511 C518 1.247 . S
O512 Co510 2.091 . S
O512 C518 1.261 . S
C513 O522 1.247 . S
C513 O523 1.272 . S
O514 Co510 2.004 . S
O514 C519 1.259 . S
Co515 O516 2.061 . S
Co515 O521 2.052 . S
Co515 O523 2.135 . S
O516 Co515 2.061 . S
O516 C519 1.235 . S
C517 O520 1.238 . S
C517 O521 1.241 . S
C518 O511 1.247 . S
C518 O512 1.261 . S
C519 O514 1.259 . S
C519 O516 1.235 . S
O520 Co510 2.021 . S
O520 C517 1.238 . S
O521 Co515 2.052 . S
O521 C517 1.241 . S
O522 Co510 2.137 . S
O522 C513 1.247 . S
O523 Co510 2.244 . S
O523 C513 1.272 . S
O523 Co515 2.135 . S
Co524 O525 2.216 . S
Co524 O526 2.091 . S
Co524 O528 2.004 . S
Co524 O534 2.021 . S
Co524 O536 2.137 . S
Co524 O537 2.244 . S
O525 Co524 2.216 . S
O525 C532 1.247 . S
O526 Co524 2.091 . S
O526 C532 1.261 . S
C527 O536 1.247 . S
C527 O537 1.272 . S
O528 Co524 2.004 . S
O528 C533 1.259 . S
Co529 O530 2.061 . S
Co529 O535 2.052 . S
Co529 O537 2.135 . S
O530 Co529 2.061 . S
O530 C533 1.235 . S
C531 O534 1.238 . S
C531 O535 1.241 . S
C532 O525 1.247 . S
C532 O526 1.261 . S
C533 O528 1.259 . S
C533 O530 1.235 . S
O534 Co524 2.021 . S
O534 C531 1.238 . S
O535 Co529 2.052 . S
O535 C531 1.241 . S
O536 Co524 2.137 . S
O536 C527 1.247 . S
O537 Co524 2.244 . S
O537 C527 1.272 . S
O537 Co529 2.135 . S
Co538 O539 2.216 . S
Co538 O540 2.091 . S
Co538 O542 2.004 . S
Co538 O548 2.021 . S
Co538 O550 2.137 . S
Co538 O551 2.244 . S
O539 Co538 2.216 . S
O539 C546 1.247 . S
O540 Co538 2.091 . S
O540 C546 1.261 . S
C541 O550 1.247 . S
C541 O551 1.272 . S
O542 Co538 2.004 . S
O542 C547 1.259 . S
Co543 O544 2.061 . S
Co543 O549 2.052 . S
Co543 O551 2.135 . S
O544 Co543 2.061 . S
O544 C547 1.235 . S
C545 O548 1.238 . S
C545 O549 1.241 . S
C546 O539 1.247 . S
C546 O540 1.261 . S
C547 O542 1.259 . S
C547 O544 1.235 . S
O548 Co538 2.021 . S
O548 C545 1.238 . S
O549 Co543 2.052 . S
O549 C545 1.241 . S
O550 Co538 2.137 . S
O550 C541 1.247 . S
O551 Co538 2.244 . S
O551 C541 1.272 . S
O551 Co543 2.135 . S
Co552 O553 2.216 . S
Co552 O554 2.091 . S
Co552 O556 2.004 . S
Co552 O562 2.021 . S
Co552 O564 2.137 . S
Co552 O565 2.244 . S
O553 Co552 2.216 . S
O553 C560 1.247 . S
O554 Co552 2.091 . S
O554 C560 1.261 . S
C555 O564 1.247 . S
C555 O565 1.272 . S
O556 Co552 2.004 . S
O556 C561 1.259 . S
Co557 O558 2.061 . S
Co557 O563 2.052 . S
Co557 O565 2.135 . S
O558 Co557 2.061 . S
O558 C561 1.235 . S
C559 O562 1.238 . S
C559 O563 1.241 . S
C560 O553 1.247 . S
C560 O554 1.261 . S
C561 O556 1.259 . S
C561 O558 1.235 . S
O562 Co552 2.021 . S
O562 C559 1.238 . S
O563 Co557 2.052 . S
O563 C559 1.241 . S
O564 Co552 2.137 . S
O564 C555 1.247 . S
O565 Co552 2.244 . S
O565 C555 1.272 . S
O565 Co557 2.135 . S
Co566 O567 2.216 . S
Co566 O568 2.091 . S
Co566 O570 2.004 . S
Co566 O576 2.021 . S
Co566 O578 2.137 . S
Co566 O579 2.244 . S
O567 Co566 2.216 . S
O567 C574 1.247 . S
O568 Co566 2.091 . S
O568 C574 1.261 . S
C569 O578 1.247 . S
C569 O579 1.272 . S
O570 Co566 2.004 . S
O570 C575 1.259 . S
Co571 O572 2.061 . S
Co571 O577 2.052 . S
Co571 O579 2.135 . S
O572 Co571 2.061 . S
O572 C575 1.235 . S
C573 O576 1.238 . S
C573 O577 1.241 . S
C574 O567 1.247 . S
C574 O568 1.261 . S
C575 O570 1.259 . S
C575 O572 1.235 . S
O576 Co566 2.021 . S
O576 C573 1.238 . S
O577 Co571 2.052 . S
O577 C573 1.241 . S
O578 Co566 2.137 . S
O578 C569 1.247 . S
O579 Co566 2.244 . S
O579 C569 1.272 . S
O579 Co571 2.135 . S
Co580 O581 2.216 1_556 S
Co580 O582 2.091 1_556 S
Co580 O584 2.004 . S
Co580 O590 2.021 1_556 S
Co580 O592 2.137 . S
Co580 O593 2.244 . S
O581 Co580 2.216 1_554 S
O581 C588 1.247 . S
O582 Co580 2.091 1_554 S
O582 C588 1.261 . S
C583 O592 1.247 . S
C583 O593 1.272 . S
O584 Co580 2.004 . S
O584 C589 1.259 . S
Co585 O586 2.061 . S
Co585 O591 2.052 1_556 S
Co585 O593 2.135 . S
O586 Co585 2.061 . S
O586 C589 1.235 . S
C587 O590 1.238 . S
C587 O591 1.241 . S
C588 O581 1.247 . S
C588 O582 1.261 . S
C589 O584 1.259 . S
C589 O586 1.235 . S
O590 Co580 2.021 1_554 S
O590 C587 1.238 . S
O591 Co585 2.052 1_554 S
O591 C587 1.241 . S
O592 Co580 2.137 . S
O592 C583 1.247 . S
O593 Co580 2.244 . S
O593 C583 1.272 . S
O593 Co585 2.135 . S
Co594 O595 2.216 . S
Co594 O596 2.091 . S
Co594 O598 2.004 . S
Co594 O604 2.021 . S
Co594 O606 2.137 . S
Co594 O607 2.244 . S
O595 Co594 2.216 . S
O595 C602 1.247 . S
O596 Co594 2.091 . S
O596 C602 1.261 . S
C597 O606 1.247 . S
C597 O607 1.272 . S
O598 Co594 2.004 . S
O598 C603 1.259 . S
Co599 O600 2.061 . S
Co599 O605 2.052 . S
Co599 O607 2.135 . S
O600 Co599 2.061 . S
O600 C603 1.235 . S
C601 O604 1.238 . S
C601 O605 1.241 . S
C602 O595 1.247 . S
C602 O596 1.261 . S
C603 O598 1.259 . S
C603 O600 1.235 . S
O604 Co594 2.021 . S
O604 C601 1.238 . S
O605 Co599 2.052 . S
O605 C601 1.241 . S
O606 Co594 2.137 . S
O606 C597 1.247 . S
O607 Co594 2.244 . S
O607 C597 1.272 . S
O607 Co599 2.135 . S
C608 C609 1.391 . S
C608 C610 1.394 . S
C608 H624 0.931 . S
C609 C608 1.391 . S
C609 C613 1.376 . S
C610 C608 1.394 . S
C610 C611 1.369 . S
C610 C614 1.531 . S
C611 C610 1.369 . S
C611 C612 1.410 . S
C611 C619 1.503 . S
C612 C611 1.410 . S
C612 C613 1.392 . S
C612 C615 1.511 . S
C613 C609 1.376 . S
C613 C612 1.392 . S
C613 H625 0.929 . S
C614 C610 1.531 . S
C614 H626 0.960 . S
C614 H627 0.962 . S
C614 H628 0.960 . S
C615 C612 1.511 . S
C615 H629 0.961 . S
C615 H630 0.961 . S
C615 H631 0.961 . S
C616 C617 1.370 . S
C616 C618 1.363 . S
C616 H632 0.931 . S
C617 C616 1.370 . S
C617 C621 1.408 . S
C618 C616 1.363 . S
C618 C619 1.370 . S
C618 C622 1.524 . S
C619 C611 1.503 . S
C619 C618 1.370 . S
C619 C620 1.403 . S
C620 C619 1.403 . S
C620 C621 1.404 . S
C620 C623 1.539 . S
C621 C617 1.408 . S
C621 C620 1.404 . S
C621 H633 0.930 . S
C622 C618 1.524 . S
C622 H634 0.956 . S
C622 H635 0.961 . S
C622 H636 0.961 . S
C623 C620 1.539 . S
C623 H637 0.958 . S
C623 H638 0.961 . S
C623 H639 0.960 . S
H624 C608 0.931 . S
H625 C613 0.929 . S
H626 C614 0.960 . S
H627 C614 0.962 . S
H628 C614 0.960 . S
H629 C615 0.961 . S
H630 C615 0.961 . S
H631 C615 0.961 . S
H632 C616 0.931 . S
H633 C621 0.930 . S
H634 C622 0.956 . S
H635 C622 0.961 . S
H636 C622 0.961 . S
H637 C623 0.958 . S
H638 C623 0.961 . S
H639 C623 0.960 . S
C640 C641 1.391 . S
C640 C642 1.394 . S
C640 H656 0.931 . S
C641 C640 1.391 . S
C641 C645 1.376 . S
C642 C640 1.394 . S
C642 C643 1.369 . S
C642 C646 1.531 . S
C643 C642 1.369 . S
C643 C644 1.410 . S
C643 C651 1.503 . S
C644 C643 1.410 . S
C644 C645 1.392 . S
C644 C647 1.511 . S
C645 C641 1.376 . S
C645 C644 1.392 . S
C645 H657 0.929 . S
C646 C642 1.531 . S
C646 H658 0.960 . S
C646 H659 0.962 . S
C646 H660 0.960 . S
C647 C644 1.511 . S
C647 H661 0.961 . S
C647 H662 0.961 . S
C647 H663 0.961 . S
C648 C649 1.370 . S
C648 C650 1.363 . S
C648 H664 0.931 . S
C649 C648 1.370 . S
C649 C653 1.408 . S
C650 C648 1.363 . S
C650 C651 1.370 . S
C650 C654 1.524 . S
C651 C643 1.503 . S
C651 C650 1.370 . S
C651 C652 1.403 . S
C652 C651 1.403 . S
C652 C653 1.404 . S
C652 C655 1.539 . S
C653 C649 1.408 . S
C653 C652 1.404 . S
C653 H665 0.930 . S
C654 C650 1.524 . S
C654 H666 0.956 . S
C654 H667 0.961 . S
C654 H668 0.961 . S
C655 C652 1.539 . S
C655 H669 0.958 . S
C655 H670 0.961 . S
C655 H671 0.960 . S
H656 C640 0.931 . S
H657 C645 0.929 . S
H658 C646 0.960 . S
H659 C646 0.962 . S
H660 C646 0.960 . S
H661 C647 0.961 . S
H662 C647 0.961 . S
H663 C647 0.961 . S
H664 C648 0.931 . S
H665 C653 0.930 . S
H666 C654 0.956 . S
H667 C654 0.961 . S
H668 C654 0.961 . S
H669 C655 0.958 . S
H670 C655 0.961 . S
H671 C655 0.960 . S
C672 C673 1.391 . S
C672 C674 1.394 . S
C672 H688 0.931 . S
C673 C672 1.391 . S
C673 C677 1.376 . S
C674 C672 1.394 . S
C674 C675 1.369 . S
C674 C678 1.531 . S
C675 C674 1.369 . S
C675 C676 1.410 . S
C675 C683 1.503 . S
C676 C675 1.410 . S
C676 C677 1.392 . S
C676 C679 1.511 . S
C677 C673 1.376 . S
C677 C676 1.392 . S
C677 H689 0.929 . S
C678 C674 1.531 . S
C678 H690 0.960 . S
C678 H691 0.962 . S
C678 H692 0.960 . S
C679 C676 1.511 . S
C679 H693 0.961 . S
C679 H694 0.961 . S
C679 H695 0.961 . S
C680 C681 1.370 . S
C680 C682 1.363 . S
C680 H696 0.931 . S
C681 C680 1.370 . S
C681 C685 1.408 . S
C682 C680 1.363 . S
C682 C683 1.370 . S
C682 C686 1.524 . S
C683 C675 1.503 . S
C683 C682 1.370 . S
C683 C684 1.403 . S
C684 C683 1.403 . S
C684 C685 1.404 . S
C684 C687 1.539 . S
C685 C681 1.408 . S
C685 C684 1.404 . S
C685 H697 0.930 . S
C686 C682 1.524 . S
C686 H698 0.956 . S
C686 H699 0.961 . S
C686 H700 0.961 . S
C687 C684 1.539 . S
C687 H701 0.958 . S
C687 H702 0.961 . S
C687 H703 0.960 . S
H688 C672 0.931 . S
H689 C677 0.929 . S
H690 C678 0.960 . S
H691 C678 0.962 . S
H692 C678 0.960 . S
H693 C679 0.961 . S
H694 C679 0.961 . S
H695 C679 0.961 . S
H696 C680 0.931 . S
H697 C685 0.930 . S
H698 C686 0.956 . S
H699 C686 0.961 . S
H700 C686 0.961 . S
H701 C687 0.958 . S
H702 C687 0.961 . S
H703 C687 0.960 . S
C704 C705 1.391 . S
C704 C706 1.394 . S
C704 H720 0.931 . S
C705 C704 1.391 . S
C705 C709 1.376 . S
C706 C704 1.394 . S
C706 C707 1.369 . S
C706 C710 1.531 . S
C707 C706 1.369 . S
C707 C708 1.410 . S
C707 C715 1.503 . S
C708 C707 1.410 . S
C708 C709 1.392 . S
C708 C711 1.511 . S
C709 C705 1.376 . S
C709 C708 1.392 . S
C709 H721 0.929 . S
C710 C706 1.531 . S
C710 H722 0.960 . S
C710 H723 0.962 . S
C710 H724 0.960 . S
C711 C708 1.511 . S
C711 H725 0.961 1_554 S
C711 H726 0.992 . S
C711 H727 0.961 . S
C712 C713 1.370 1_556 S
C712 C714 1.363 . S
C712 H728 0.931 . S
C713 C712 1.370 1_554 S
C713 C717 1.408 . S
C714 C712 1.363 . S
C714 C715 1.370 1_556 S
C714 C718 1.524 . S
C715 C707 1.503 . S
C715 C714 1.370 1_554 S
C715 C716 1.403 . S
C716 C715 1.403 . S
C716 C717 1.404 . S
C716 C719 1.539 . S
C717 C713 1.408 . S
C717 C716 1.404 . S
C717 H729 0.930 . S
C718 C714 1.524 . S
C718 H730 0.956 . S
C718 H731 0.961 . S
C718 H732 0.961 . S
C719 C716 1.539 . S
C719 H733 0.958 . S
C719 H734 0.961 . S
C719 H735 0.960 . S
H720 C704 0.931 . S
H721 C709 0.929 . S
H722 C710 0.960 . S
H723 C710 0.962 . S
H724 C710 0.960 . S
H725 C711 0.961 1_556 S
H726 C711 0.992 . S
H727 C711 0.961 . S
H728 C712 0.931 . S
H729 C717 0.930 . S
H730 C718 0.956 . S
H731 C718 0.961 . S
H732 C718 0.961 . S
H733 C719 0.958 . S
H734 C719 0.961 . S
H735 C719 0.960 . S
C736 C737 1.391 1_554 S
C736 C738 1.394 . S
C736 H752 0.931 . S
C737 C736 1.391 1_556 S
C737 C741 1.376 . S
C738 C736 1.394 . S
C738 C739 1.369 1_554 S
C738 C742 1.531 . S
C739 C738 1.369 1_556 S
C739 C740 1.410 . S
C739 C747 1.503 . S
C740 C739 1.410 . S
C740 C741 1.392 . S
C740 C743 1.511 . S
C741 C737 1.376 . S
C741 C740 1.392 . S
C741 H753 0.929 . S
C742 C738 1.531 . S
C742 H754 0.960 . S
C742 H755 0.962 . S
C742 H756 0.960 . S
C743 C740 1.511 . S
C743 H757 0.961 . S
C743 H758 0.961 . S
C743 H759 0.961 . S
C744 C745 1.369 . S
C744 C746 1.363 . S
C744 H760 0.932 1_556 S
C745 C744 1.369 . S
C745 C749 1.408 . S
C746 C744 1.363 . S
C746 C747 1.370 . S
C746 C750 1.524 1_556 S
C747 C739 1.503 . S
C747 C746 1.370 . S
C747 C748 1.403 . S
C748 C747 1.403 . S
C748 C749 1.404 . S
C748 C751 1.539 . S
C749 C745 1.408 . S
C749 C748 1.404 . S
C749 H761 0.930 . S
C750 C746 1.524 1_554 S
C750 H762 0.956 . S
C750 H763 0.961 1_554 S
C750 H764 0.961 . S
C751 C748 1.539 . S
C751 H765 0.958 . S
C751 H766 0.961 . S
C751 H767 0.960 . S
H752 C736 0.931 . S
H753 C741 0.929 . S
H754 C742 0.960 . S
H755 C742 0.962 . S
H756 C742 0.960 . S
H757 C743 0.961 . S
H758 C743 0.961 . S
H759 C743 0.961 . S
H760 C744 0.932 1_554 S
H761 C749 0.930 . S
H762 C750 0.956 . S
H763 C750 0.961 1_556 S
H764 C750 0.961 . S
H765 C751 0.958 . S
H766 C751 0.961 . S
H767 C751 0.960 . S
C768 C769 1.391 . S
C768 C770 1.394 . S
C768 H784 0.931 . S
C769 C768 1.391 . S
C769 C773 1.376 . S
C770 C768 1.394 . S
C770 C771 1.369 . S
C770 C774 1.531 . S
C771 C770 1.369 . S
C771 C772 1.410 . S
C771 C779 1.503 . S
C772 C771 1.410 . S
C772 C773 1.392 . S
C772 C775 1.511 . S
C773 C769 1.376 . S
C773 C772 1.392 . S
C773 H785 0.929 . S
C774 C770 1.531 . S
C774 H786 0.960 . S
C774 H787 0.962 . S
C774 H788 0.960 . S
C775 C772 1.511 . S
C775 H789 0.961 . S
C775 H790 0.961 . S
C775 H791 0.961 . S
C776 C777 1.370 . S
C776 C778 1.363 . S
C776 H792 0.931 . S
C777 C776 1.370 . S
C777 C781 1.408 . S
C778 C776 1.363 . S
C778 C779 1.370 . S
C778 C782 1.524 . S
C779 C771 1.503 . S
C779 C778 1.370 . S
C779 C780 1.403 . S
C780 C779 1.403 . S
C780 C781 1.404 . S
C780 C783 1.539 . S
C781 C777 1.408 . S
C781 C780 1.404 . S
C781 H793 0.930 . S
C782 C778 1.524 . S
C782 H794 0.956 . S
C782 H795 0.961 . S
C782 H796 0.961 . S
C783 C780 1.539 . S
C783 H797 0.958 . S
C783 H798 0.961 . S
C783 H799 0.960 . S
H784 C768 0.931 . S
H785 C773 0.929 . S
H786 C774 0.960 . S
H787 C774 0.962 . S
H788 C774 0.960 . S
H789 C775 0.961 . S
H790 C775 0.961 . S
H791 C775 0.961 . S
H792 C776 0.931 . S
H793 C781 0.930 . S
H794 C782 0.956 . S
H795 C782 0.961 . S
H796 C782 0.961 . S
H797 C783 0.958 . S
H798 C783 0.961 . S
H799 C783 0.960 . S
C800 C801 1.391 . S
C800 C802 1.394 . S
C800 H816 0.931 . S
C801 C800 1.391 . S
C801 C805 1.376 . S
C802 C800 1.394 . S
C802 C803 1.369 . S
C802 C806 1.531 . S
C803 C802 1.369 . S
C803 C804 1.410 . S
C803 C811 1.503 . S
C804 C803 1.410 . S
C804 C805 1.392 . S
C804 C807 1.511 . S
C805 C801 1.376 . S
C805 C804 1.392 . S
C805 H817 0.929 . S
C806 C802 1.531 . S
C806 H818 0.960 . S
C806 H819 0.962 . S
C806 H820 0.960 . S
C807 C804 1.511 . S
C807 H821 0.961 . S
C807 H822 0.961 . S
C807 H823 0.961 . S
C808 C809 1.370 . S
C808 C810 1.363 . S
C808 H824 0.931 . S
C809 C808 1.370 . S
C809 C813 1.408 . S
C810 C808 1.363 . S
C810 C811 1.370 . S
C810 C814 1.524 . S
C811 C803 1.503 . S
C811 C810 1.370 . S
C811 C812 1.403 . S
C812 C811 1.403 . S
C812 C813 1.404 . S
C812 C815 1.539 . S
C813 C809 1.408 . S
C813 C812 1.404 . S
C813 H825 0.930 . S
C814 C810 1.524 . S
C814 H826 0.956 . S
C814 H827 0.961 . S
C814 H828 0.961 . S
C815 C812 1.539 . S
C815 H829 0.958 . S
C815 H830 0.961 . S
C815 H831 0.960 . S
H816 C800 0.931 . S
H817 C805 0.929 . S
H818 C806 0.960 . S
H819 C806 0.962 . S
H820 C806 0.960 . S
H821 C807 0.961 . S
H822 C807 0.961 . S
H823 C807 0.961 . S
H824 C808 0.931 . S
H825 C813 0.930 . S
H826 C814 0.956 . S
H827 C814 0.961 . S
H828 C814 0.961 . S
H829 C815 0.958 . S
H830 C815 0.961 . S
H831 C815 0.960 . S
C832 C833 1.391 . S
C832 C834 1.394 . S
C832 H848 0.931 . S
C833 C832 1.391 . S
C833 C837 1.376 . S
C834 C832 1.394 . S
C834 C835 1.369 . S
C834 C838 1.531 . S
C835 C834 1.369 . S
C835 C836 1.410 . S
C835 C843 1.503 . S
C836 C835 1.410 . S
C836 C837 1.392 . S
C836 C839 1.511 . S
C837 C833 1.376 . S
C837 C836 1.392 . S
C837 H849 0.929 . S
C838 C834 1.531 . S
C838 H850 0.960 . S
C838 H851 0.962 . S
C838 H852 0.960 . S
C839 C836 1.511 . S
C839 H853 0.961 . S
C839 H854 0.961 . S
C839 H855 0.961 . S
C840 C841 1.370 . S
C840 C842 1.363 . S
C840 H856 0.931 . S
C841 C840 1.370 . S
C841 C845 1.408 . S
C842 C840 1.363 . S
C842 C843 1.370 . S
C842 C846 1.524 . S
C843 C835 1.503 . S
C843 C842 1.370 . S
C843 C844 1.403 . S
C844 C843 1.403 . S
C844 C845 1.404 . S
C844 C847 1.539 . S
C845 C841 1.408 . S
C845 C844 1.404 . S
C845 H857 0.930 . S
C846 C842 1.524 . S
C846 H858 0.956 . S
C846 H859 0.961 . S
C846 H860 0.961 . S
C847 C844 1.539 . S
C847 H861 0.958 . S
C847 H862 0.961 . S
C847 H863 0.960 . S
H848 C832 0.931 . S
H849 C837 0.929 . S
H850 C838 0.960 . S
H851 C838 0.962 . S
H852 C838 0.960 . S
H853 C839 0.961 . S
H854 C839 0.961 . S
H855 C839 0.961 . S
H856 C840 0.931 . S
H857 C845 0.930 . S
H858 C846 0.956 . S
H859 C846 0.961 . S
H860 C846 0.961 . S
H861 C847 0.958 . S
H862 C847 0.961 . S
H863 C847 0.960 . S
C864 C865 1.391 . S
C864 C866 1.394 . S
C864 H880 0.931 . S
C865 C864 1.391 . S
C865 C869 1.376 . S
C866 C864 1.394 . S
C866 C867 1.369 . S
C866 C870 1.531 . S
C867 C866 1.369 . S
C867 C868 1.410 . S
C867 C875 1.503 . S
C868 C867 1.410 . S
C868 C869 1.392 . S
C868 C871 1.511 . S
C869 C865 1.376 . S
C869 C868 1.392 . S
C869 H881 0.929 . S
C870 C866 1.531 . S
C870 H882 0.960 . S
C870 H883 0.962 . S
C870 H884 0.960 . S
C871 C868 1.511 . S
C871 H885 0.961 . S
C871 H886 0.961 . S
C871 H887 0.961 . S
C872 C873 1.370 . S
C872 C874 1.363 . S
C872 H888 0.931 . S
C873 C872 1.370 . S
C873 C877 1.408 . S
C874 C872 1.363 . S
C874 C875 1.370 . S
C874 C878 1.524 . S
C875 C867 1.503 . S
C875 C874 1.370 . S
C875 C876 1.403 . S
C876 C875 1.403 . S
C876 C877 1.404 . S
C876 C879 1.539 . S
C877 C873 1.408 . S
C877 C876 1.404 . S
C877 H889 0.930 . S
C878 C874 1.524 . S
C878 H890 0.956 . S
C878 H891 0.961 . S
C878 H892 0.961 . S
C879 C876 1.539 . S
C879 H893 0.958 . S
C879 H894 0.961 . S
C879 H895 0.960 . S
H880 C864 0.931 . S
H881 C869 0.929 . S
H882 C870 0.960 . S
H883 C870 0.962 . S
H884 C870 0.960 . S
H885 C871 0.961 . S
H886 C871 0.961 . S
H887 C871 0.961 . S
H888 C872 0.931 . S
H889 C877 0.930 . S
H890 C878 0.956 . S
H891 C878 0.961 . S
H892 C878 0.961 . S
H893 C879 0.958 . S
H894 C879 0.961 . S
H895 C879 0.960 . S
C896 C897 1.391 1_556 S
C896 C898 1.394 . S
C896 H912 0.931 . S
C897 C896 1.391 1_554 S
C897 C901 1.376 . S
C898 C896 1.394 . S
C898 C899 1.369 1_556 S
C898 C902 1.531 . S
C899 C898 1.369 1_554 S
C899 C900 1.410 . S
C899 C907 1.503 . S
C900 C899 1.410 . S
C900 C901 1.392 . S
C900 C903 1.511 . S
C901 C897 1.376 . S
C901 C900 1.392 . S
C901 H913 0.929 . S
C902 C898 1.531 . S
C902 H914 0.960 . S
C902 H915 0.962 . S
C902 H916 0.960 . S
C903 C900 1.511 . S
C903 H917 0.961 . S
C903 H918 0.961 . S
C903 H919 0.961 . S
C904 C905 1.370 . S
C904 C906 1.363 . S
C904 H920 0.931 . S
C905 C904 1.370 . S
C905 C909 1.408 . S
C906 C904 1.363 . S
C906 C907 1.370 . S
C906 C910 1.524 . S
C907 C899 1.503 . S
C907 C906 1.370 . S
C907 C908 1.403 . S
C908 C907 1.403 . S
C908 C909 1.404 . S
C908 C911 1.539 . S
C909 C905 1.408 . S
C909 C908 1.404 . S
C909 H921 0.930 . S
C910 C906 1.524 . S
C910 H922 0.956 . S
C910 H923 0.961 . S
C910 H924 0.961 . S
C911 C908 1.539 . S
C911 H925 0.958 1_554 S
C911 H926 0.961 . S
C911 H927 0.960 . S
H912 C896 0.931 . S
H913 C901 0.929 . S
H914 C902 0.960 . S
H915 C902 0.962 . S
H916 C902 0.960 . S
H917 C903 0.961 . S
H918 C903 0.961 . S
H919 C903 0.961 . S
H920 C904 0.931 . S
H921 C909 0.930 . S
H922 C910 0.956 . S
H923 C910 0.961 . S
H924 C910 0.961 . S
H925 C911 0.958 1_556 S
H926 C911 0.961 . S
H927 C911 0.960 . S
C928 C929 1.391 . S
C928 C930 1.394 . S
C928 H944 0.931 . S
C929 C928 1.391 . S
C929 C933 1.376 . S
C930 C928 1.394 . S
C930 C931 1.369 . S
C930 C934 1.531 . S
C931 C930 1.369 . S
C931 C932 1.410 . S
C931 C939 1.503 . S
C932 C931 1.410 . S
C932 C933 1.392 . S
C932 C935 1.511 . S
C933 C929 1.376 . S
C933 C932 1.392 . S
C933 H945 0.929 . S
C934 C930 1.531 . S
C934 H946 0.960 . S
C934 H947 0.962 . S
C934 H948 0.960 . S
C935 C932 1.511 . S
C935 H949 0.961 . S
C935 H950 0.961 . S
C935 H951 0.961 . S
C936 C937 1.370 . S
C936 C938 1.363 . S
C936 H952 0.931 . S
C937 C936 1.370 . S
C937 C941 1.408 . S
C938 C936 1.363 . S
C938 C939 1.370 . S
C938 C942 1.524 . S
C939 C931 1.503 . S
C939 C938 1.370 . S
C939 C940 1.403 . S
C940 C939 1.403 . S
C940 C941 1.404 . S
C940 C943 1.539 . S
C941 C937 1.408 . S
C941 C940 1.404 . S
C941 H953 0.930 . S
C942 C938 1.524 . S
C942 H954 0.956 . S
C942 H955 0.961 . S
C942 H956 0.961 . S
C943 C940 1.539 . S
C943 H957 0.958 . S
C943 H958 0.961 . S
C943 H959 0.960 . S
H944 C928 0.931 . S
H945 C933 0.929 . S
H946 C934 0.960 . S
H947 C934 0.962 . S
H948 C934 0.960 . S
H949 C935 0.961 . S
H950 C935 0.961 . S
H951 C935 0.961 . S
H952 C936 0.931 . S
H953 C941 0.930 . S
H954 C942 0.956 . S
H955 C942 0.961 . S
H956 C942 0.961 . S
H957 C943 0.958 . S
H958 C943 0.961 . S
H959 C943 0.960 . S
C960 C961 1.391 . S
C960 C962 1.394 . S
C960 H976 0.931 . S
C961 C960 1.391 . S
C961 C965 1.376 . S
C962 C960 1.394 . S
C962 C963 1.369 . S
C962 C966 1.531 . S
C963 C962 1.369 . S
C963 C964 1.410 . S
C963 C971 1.503 . S
C964 C963 1.410 . S
C964 C965 1.392 . S
C964 C967 1.511 . S
C965 C961 1.376 . S
C965 C964 1.392 . S
C965 H977 0.929 . S
C966 C962 1.531 . S
C966 H978 0.960 . S
C966 H979 0.962 . S
C966 H980 0.960 . S
C967 C964 1.511 . S
C967 H981 0.961 . S
C967 H982 0.961 . S
C967 H983 0.961 . S
C968 C969 1.370 . S
C968 C970 1.363 . S
C968 H984 0.931 . S
C969 C968 1.370 . S
C969 C973 1.408 . S
C970 C968 1.363 . S
C970 C971 1.370 . S
C970 C974 1.524 . S
C971 C963 1.503 . S
C971 C970 1.370 . S
C971 C972 1.403 . S
C972 C971 1.403 . S
C972 C973 1.404 . S
C972 C975 1.539 . S
C973 C969 1.408 . S
C973 C972 1.404 . S
C973 H985 0.930 . S
C974 C970 1.524 . S
C974 H986 0.956 . S
C974 H987 0.961 . S
C974 H988 0.961 . S
C975 C972 1.539 . S
C975 H989 0.958 . S
C975 H990 0.961 . S
C975 H991 0.960 . S
H976 C960 0.931 . S
H977 C965 0.929 . S
H978 C966 0.960 . S
H979 C966 0.962 . S
H980 C966 0.960 . S
H981 C967 0.961 . S
H982 C967 0.961 . S
H983 C967 0.961 . S
H984 C968 0.931 . S
H985 C973 0.930 . S
H986 C974 0.956 . S
H987 C974 0.961 . S
H988 C974 0.961 . S
H989 C975 0.958 . S
H990 C975 0.961 . S
H991 C975 0.960 . S
C992 C993 1.391 . S
C992 C994 1.394 . S
C992 H1008 0.931 . S
C993 C992 1.391 . S
C993 C997 1.376 . S
C994 C992 1.394 . S
C994 C995 1.369 . S
C994 C998 1.531 . S
C995 C994 1.369 . S
C995 C996 1.410 . S
C995 C1003 1.503 . S
C996 C995 1.410 . S
C996 C997 1.392 . S
C996 C999 1.511 . S
C997 C993 1.376 . S
C997 C996 1.392 . S
C997 H1009 0.929 . S
C998 C994 1.531 . S
C998 H1010 0.960 . S
C998 H1011 0.962 . S
C998 H1012 0.960 . S
C999 C996 1.511 . S
C999 H1013 0.961 . S
C999 H1014 0.961 . S
C999 H1015 0.961 . S
C1000 C1001 1.370 . S
C1000 C1002 1.363 . S
C1000 H1016 0.931 . S
C1001 C1000 1.370 . S
C1001 C1005 1.408 . S
C1002 C1000 1.363 . S
C1002 C1003 1.370 . S
C1002 C1006 1.524 . S
C1003 C995 1.503 . S
C1003 C1002 1.370 . S
C1003 C1004 1.403 . S
C1004 C1003 1.403 . S
C1004 C1005 1.404 . S
C1004 C1007 1.539 . S
C1005 C1001 1.408 . S
C1005 C1004 1.404 . S
C1005 H1017 0.930 . S
C1006 C1002 1.524 . S
C1006 H1018 0.956 . S
C1006 H1019 0.961 . S
C1006 H1020 0.961 . S
C1007 C1004 1.539 . S
C1007 H1021 0.958 . S
C1007 H1022 0.961 . S
C1007 H1023 0.960 . S
H1008 C992 0.931 . S
H1009 C997 0.929 . S
H1010 C998 0.960 . S
H1011 C998 0.962 . S
H1012 C998 0.960 . S
H1013 C999 0.961 . S
H1014 C999 0.961 . S
H1015 C999 0.961 . S
H1016 C1000 0.931 . S
H1017 C1005 0.930 . S
H1018 C1006 0.956 . S
H1019 C1006 0.961 . S
H1020 C1006 0.961 . S
H1021 C1007 0.958 . S
H1022 C1007 0.961 . S
H1023 C1007 0.960 . S
C1024 C1025 1.391 . S
C1024 C1026 1.394 . S
C1024 H1040 0.931 . S
C1025 C1024 1.391 . S
C1025 C1029 1.376 . S
C1026 C1024 1.394 . S
C1026 C1027 1.369 . S
C1026 C1030 1.531 . S
C1027 C1026 1.369 . S
C1027 C1028 1.410 . S
C1027 C1035 1.503 . S
C1028 C1027 1.410 . S
C1028 C1029 1.392 . S
C1028 C1031 1.511 . S
C1029 C1025 1.376 . S
C1029 C1028 1.392 . S
C1029 H1041 0.929 . S
C1030 C1026 1.531 . S
C1030 H1042 0.960 . S
C1030 H1043 0.962 . S
C1030 H1044 0.960 . S
C1031 C1028 1.511 . S
C1031 H1045 0.961 . S
C1031 H1046 0.961 . S
C1031 H1047 0.961 . S
C1032 C1033 1.370 . S
C1032 C1034 1.363 . S
C1032 H1048 0.931 . S
C1033 C1032 1.370 . S
C1033 C1037 1.408 . S
C1034 C1032 1.363 . S
C1034 C1035 1.370 . S
C1034 C1038 1.524 . S
C1035 C1027 1.503 . S
C1035 C1034 1.370 . S
C1035 C1036 1.403 . S
C1036 C1035 1.403 . S
C1036 C1037 1.404 . S
C1036 C1039 1.539 . S
C1037 C1033 1.408 . S
C1037 C1036 1.404 . S
C1037 H1049 0.930 . S
C1038 C1034 1.524 . S
C1038 H1050 0.956 . S
C1038 H1051 0.961 . S
C1038 H1052 0.961 . S
C1039 C1036 1.539 . S
C1039 H1053 0.958 . S
C1039 H1054 0.961 . S
C1039 H1055 0.960 . S
H1040 C1024 0.931 . S
H1041 C1029 0.929 . S
H1042 C1030 0.960 . S
H1043 C1030 0.962 . S
H1044 C1030 0.960 . S
H1045 C1031 0.961 . S
H1046 C1031 0.961 . S
H1047 C1031 0.961 . S
H1048 C1032 0.931 . S
H1049 C1037 0.930 . S
H1050 C1038 0.956 . S
H1051 C1038 0.961 . S
H1052 C1038 0.961 . S
H1053 C1039 0.958 . S
H1054 C1039 0.961 . S
H1055 C1039 0.960 . S
C1056 C1057 1.391 . S
C1056 C1058 1.394 . S
C1056 H1072 0.931 . S
C1057 C1056 1.391 . S
C1057 C1061 1.376 . S
C1058 C1056 1.394 . S
C1058 C1059 1.369 . S
C1058 C1062 1.531 . S
C1059 C1058 1.369 . S
C1059 C1060 1.410 . S
C1059 C1067 1.503 . S
C1060 C1059 1.410 . S
C1060 C1061 1.392 . S
C1060 C1063 1.511 . S
C1061 C1057 1.376 . S
C1061 C1060 1.392 . S
C1061 H1073 0.929 . S
C1062 C1058 1.531 . S
C1062 H1074 0.960 . S
C1062 H1075 0.962 . S
C1062 H1076 0.960 . S
C1063 C1060 1.511 . S
C1063 H1077 0.961 1_556 S
C1063 H1078 0.961 1_556 S
C1063 H1079 0.961 . S
C1064 C1065 1.370 1_554 S
C1064 C1066 1.363 . S
C1064 H1080 0.931 . S
C1065 C1064 1.370 1_556 S
C1065 C1069 1.408 . S
C1066 C1064 1.363 . S
C1066 C1067 1.370 1_554 S
C1066 C1070 1.524 . S
C1067 C1059 1.503 . S
C1067 C1066 1.370 1_556 S
C1067 C1068 1.403 . S
C1068 C1067 1.403 . S
C1068 C1069 1.404 . S
C1068 C1071 1.539 . S
C1069 C1065 1.408 . S
C1069 C1068 1.404 . S
C1069 H1081 0.930 . S
C1070 C1066 1.524 . S
C1070 H1082 0.956 . S
C1070 H1083 0.961 . S
C1070 H1084 0.961 . S
C1071 C1068 1.539 . S
C1071 H1085 0.958 . S
C1071 H1086 0.961 . S
C1071 H1087 0.960 . S
H1072 C1056 0.931 . S
H1073 C1061 0.929 . S
H1074 C1062 0.960 . S
H1075 C1062 0.962 . S
H1076 C1062 0.960 . S
H1077 C1063 0.961 1_554 S
H1078 C1063 0.961 1_554 S
H1079 C1063 0.961 . S
H1080 C1064 0.931 . S
H1081 C1069 0.930 . S
H1082 C1070 0.956 . S
H1083 C1070 0.961 . S
H1084 C1070 0.961 . S
H1085 C1071 0.958 . S
H1086 C1071 0.961 . S
H1087 C1071 0.960 . S
C1088 C1089 1.391 . S
C1088 C1090 1.394 . S
C1088 H1104 0.931 . S
C1089 C1088 1.391 . S
C1089 C1093 1.376 . S
C1090 C1088 1.394 . S
C1090 C1091 1.369 . S
C1090 C1094 1.531 . S
C1091 C1090 1.369 . S
C1091 C1092 1.410 . S
C1091 C1099 1.503 . S
C1092 C1091 1.410 . S
C1092 C1093 1.392 . S
C1092 C1095 1.511 . S
C1093 C1089 1.376 . S
C1093 C1092 1.392 . S
C1093 H1105 0.929 . S
C1094 C1090 1.531 . S
C1094 H1106 0.960 . S
C1094 H1107 0.962 . S
C1094 H1108 0.960 . S
C1095 C1092 1.511 . S
C1095 H1109 0.961 . S
C1095 H1110 0.961 . S
C1095 H1111 0.961 . S
C1096 C1097 1.370 . S
C1096 C1098 1.363 . S
C1096 H1112 0.931 . S
C1097 C1096 1.370 . S
C1097 C1101 1.408 . S
C1098 C1096 1.363 . S
C1098 C1099 1.370 . S
C1098 C1102 1.524 . S
C1099 C1091 1.503 . S
C1099 C1098 1.370 . S
C1099 C1100 1.403 . S
C1100 C1099 1.403 . S
C1100 C1101 1.404 . S
C1100 C1103 1.539 . S
C1101 C1097 1.408 . S
C1101 C1100 1.404 . S
C1101 H1113 0.930 . S
C1102 C1098 1.524 . S
C1102 H1114 0.956 . S
C1102 H1115 0.961 . S
C1102 H1116 0.961 . S
C1103 C1100 1.539 . S
C1103 H1117 0.958 . S
C1103 H1118 0.961 . S
C1103 H1119 0.960 . S
H1104 C1088 0.931 . S
H1105 C1093 0.929 . S
H1106 C1094 0.960 . S
H1107 C1094 0.962 . S
H1108 C1094 0.960 . S
H1109 C1095 0.961 . S
H1110 C1095 0.961 . S
H1111 C1095 0.961 . S
H1112 C1096 0.931 . S
H1113 C1101 0.930 . S
H1114 C1102 0.956 . S
H1115 C1102 0.961 . S
H1116 C1102 0.961 . S
H1117 C1103 0.958 . S
H1118 C1103 0.961 . S
H1119 C1103 0.960 . S
C1120 C1121 1.391 . S
C1120 C1122 1.394 . S
C1120 H1136 0.931 . S
C1121 C1120 1.391 . S
C1121 C1125 1.376 . S
C1122 C1120 1.394 . S
C1122 C1123 1.369 . S
C1122 C1126 1.531 . S
C1123 C1122 1.369 . S
C1123 C1124 1.410 . S
C1123 C1131 1.503 . S
C1124 C1123 1.410 . S
C1124 C1125 1.392 . S
C1124 C1127 1.511 . S
C1125 C1121 1.376 . S
C1125 C1124 1.392 . S
C1125 H1137 0.929 . S
C1126 C1122 1.531 . S
C1126 H1138 0.960 . S
C1126 H1139 0.962 . S
C1126 H1140 0.960 . S
C1127 C1124 1.511 . S
C1127 H1141 0.961 . S
C1127 H1142 0.961 . S
C1127 H1143 0.961 . S
C1128 C1129 1.370 . S
C1128 C1130 1.363 . S
C1128 H1144 0.931 . S
C1129 C1128 1.370 . S
C1129 C1133 1.408 . S
C1130 C1128 1.363 . S
C1130 C1131 1.370 . S
C1130 C1134 1.524 . S
C1131 C1123 1.503 . S
C1131 C1130 1.370 . S
C1131 C1132 1.403 . S
C1132 C1131 1.403 . S
C1132 C1133 1.404 . S
C1132 C1135 1.539 . S
C1133 C1129 1.408 . S
C1133 C1132 1.404 . S
C1133 H1145 0.930 . S
C1134 C1130 1.524 . S
C1134 H1146 0.956 . S
C1134 H1147 0.961 . S
C1134 H1148 0.961 . S
C1135 C1132 1.539 . S
C1135 H1149 0.958 . S
C1135 H1150 0.961 . S
C1135 H1151 0.960 . S
H1136 C1120 0.931 . S
H1137 C1125 0.929 . S
H1138 C1126 0.960 . S
H1139 C1126 0.962 . S
H1140 C1126 0.960 . S
H1141 C1127 0.961 . S
H1142 C1127 0.961 . S
H1143 C1127 0.961 . S
H1144 C1128 0.931 . S
H1145 C1133 0.930 . S
H1146 C1134 0.956 . S
H1147 C1134 0.961 . S
H1148 C1134 0.961 . S
H1149 C1135 0.958 . S
H1150 C1135 0.961 . S
H1151 C1135 0.960 . S
C1152 C1153 1.391 . S
C1152 C1154 1.394 . S
C1152 H1168 0.931 . S
C1153 C1152 1.391 . S
C1153 C1157 1.376 . S
C1154 C1152 1.394 . S
C1154 C1155 1.369 . S
C1154 C1158 1.531 . S
C1155 C1154 1.369 . S
C1155 C1156 1.410 . S
C1155 C1163 1.503 . S
C1156 C1155 1.410 . S
C1156 C1157 1.392 . S
C1156 C1159 1.511 . S
C1157 C1153 1.376 . S
C1157 C1156 1.392 . S
C1157 H1169 0.929 . S
C1158 C1154 1.531 . S
C1158 H1170 0.960 . S
C1158 H1171 0.962 . S
C1158 H1172 0.960 . S
C1159 C1156 1.511 . S
C1159 H1173 0.961 . S
C1159 H1174 0.961 . S
C1159 H1175 0.961 . S
C1160 C1161 1.370 . S
C1160 C1162 1.363 . S
C1160 H1176 0.931 . S
C1161 C1160 1.370 . S
C1161 C1165 1.408 . S
C1162 C1160 1.363 . S
C1162 C1163 1.370 . S
C1162 C1166 1.524 . S
C1163 C1155 1.503 . S
C1163 C1162 1.370 . S
C1163 C1164 1.403 . S
C1164 C1163 1.403 . S
C1164 C1165 1.404 . S
C1164 C1167 1.539 . S
C1165 C1161 1.408 . S
C1165 C1164 1.404 . S
C1165 H1177 0.930 . S
C1166 C1162 1.524 . S
C1166 H1178 0.956 . S
C1166 H1179 0.961 . S
C1166 H1180 0.961 . S
C1167 C1164 1.539 . S
C1167 H1181 0.958 . S
C1167 H1182 0.961 . S
C1167 H1183 0.960 . S
H1168 C1152 0.931 . S
H1169 C1157 0.929 . S
H1170 C1158 0.960 . S
H1171 C1158 0.962 . S
H1172 C1158 0.960 . S
H1173 C1159 0.961 . S
H1174 C1159 0.961 . S
H1175 C1159 0.961 . S
H1176 C1160 0.931 . S
H1177 C1165 0.930 . S
H1178 C1166 0.956 . S
H1179 C1166 0.961 . S
H1180 C1166 0.961 . S
H1181 C1167 0.958 . S
H1182 C1167 0.961 . S
H1183 C1167 0.960 . S
C1184 C1185 1.391 . S
C1184 C1186 1.394 . S
C1184 H1200 0.931 . S
C1185 C1184 1.391 . S
C1185 C1189 1.376 . S
C1186 C1184 1.394 . S
C1186 C1187 1.369 . S
C1186 C1190 1.531 . S
C1187 C1186 1.369 . S
C1187 C1188 1.410 . S
C1187 C1195 1.503 . S
C1188 C1187 1.410 . S
C1188 C1189 1.392 . S
C1188 C1191 1.511 . S
C1189 C1185 1.376 . S
C1189 C1188 1.392 . S
C1189 H1201 0.929 . S
C1190 C1186 1.531 . S
C1190 H1202 0.960 . S
C1190 H1203 0.962 . S
C1190 H1204 0.960 . S
C1191 C1188 1.511 . S
C1191 H1205 0.961 . S
C1191 H1206 0.961 . S
C1191 H1207 0.961 . S
C1192 C1193 1.370 . S
C1192 C1194 1.363 . S
C1192 H1208 0.931 . S
C1193 C1192 1.370 . S
C1193 C1197 1.408 . S
C1194 C1192 1.363 . S
C1194 C1195 1.370 . S
C1194 C1198 1.524 . S
C1195 C1187 1.503 . S
C1195 C1194 1.370 . S
C1195 C1196 1.403 . S
C1196 C1195 1.403 . S
C1196 C1197 1.404 . S
C1196 C1199 1.539 . S
C1197 C1193 1.408 . S
C1197 C1196 1.404 . S
C1197 H1209 0.930 . S
C1198 C1194 1.524 . S
C1198 H1210 0.956 . S
C1198 H1211 0.961 . S
C1198 H1212 0.961 . S
C1199 C1196 1.539 . S
C1199 H1213 0.958 . S
C1199 H1214 0.961 . S
C1199 H1215 0.960 . S
H1200 C1184 0.931 . S
H1201 C1189 0.929 . S
H1202 C1190 0.960 . S
H1203 C1190 0.962 . S
H1204 C1190 0.960 . S
H1205 C1191 0.961 . S
H1206 C1191 0.961 . S
H1207 C1191 0.961 . S
H1208 C1192 0.931 . S
H1209 C1197 0.930 . S
H1210 C1198 0.956 . S
H1211 C1198 0.961 . S
H1212 C1198 0.961 . S
H1213 C1199 0.958 . S
H1214 C1199 0.961 . S
H1215 C1199 0.960 . S
C1216 C1217 1.391 . S
C1216 C1218 1.394 . S
C1216 H1232 0.931 . S
C1217 C1216 1.391 . S
C1217 C1221 1.376 . S
C1218 C1216 1.394 . S
C1218 C1219 1.369 . S
C1218 C1222 1.531 . S
C1219 C1218 1.369 . S
C1219 C1220 1.410 . S
C1219 C1227 1.503 . S
C1220 C1219 1.410 . S
C1220 C1221 1.392 . S
C1220 C1223 1.511 . S
C1221 C1217 1.376 . S
C1221 C1220 1.392 . S
C1221 H1233 0.929 . S
C1222 C1218 1.531 . S
C1222 H1234 0.960 . S
C1222 H1235 0.962 . S
C1222 H1236 0.960 . S
C1223 C1220 1.511 . S
C1223 H1237 0.961 . S
C1223 H1238 0.961 . S
C1223 H1239 0.961 . S
C1224 C1225 1.370 . S
C1224 C1226 1.363 . S
C1224 H1240 0.931 . S
C1225 C1224 1.370 . S
C1225 C1229 1.408 . S
C1226 C1224 1.363 . S
C1226 C1227 1.370 . S
C1226 C1230 1.524 . S
C1227 C1219 1.503 . S
C1227 C1226 1.370 . S
C1227 C1228 1.403 . S
C1228 C1227 1.403 . S
C1228 C1229 1.404 . S
C1228 C1231 1.539 . S
C1229 C1225 1.408 . S
C1229 C1228 1.404 . S
C1229 H1241 0.930 . S
C1230 C1226 1.524 . S
C1230 H1242 0.956 . S
C1230 H1243 0.961 . S
C1230 H1244 0.961 . S
C1231 C1228 1.539 . S
C1231 H1245 0.958 . S
C1231 H1246 0.961 . S
C1231 H1247 0.960 . S
H1232 C1216 0.931 . S
H1233 C1221 0.929 . S
H1234 C1222 0.960 . S
H1235 C1222 0.962 . S
H1236 C1222 0.960 . S
H1237 C1223 0.961 . S
H1238 C1223 0.961 . S
H1239 C1223 0.961 . S
H1240 C1224 0.931 . S
H1241 C1229 0.930 . S
H1242 C1230 0.956 . S
H1243 C1230 0.961 . S
H1244 C1230 0.961 . S
H1245 C1231 0.958 . S
H1246 C1231 0.961 . S
H1247 C1231 0.960 . S
C1248 C1249 1.391 . S
C1248 C1250 1.394 . S
C1248 H1264 0.931 . S
C1249 C1248 1.391 . S
C1249 C1253 1.376 . S
C1250 C1248 1.394 . S
C1250 C1251 1.369 . S
C1250 C1254 1.531 . S
C1251 C1250 1.369 . S
C1251 C1252 1.410 . S
C1251 C1259 1.503 . S
C1252 C1251 1.410 . S
C1252 C1253 1.392 . S
C1252 C1255 1.511 . S
C1253 C1249 1.376 . S
C1253 C1252 1.392 . S
C1253 H1265 0.929 . S
C1254 C1250 1.531 . S
C1254 H1266 0.960 . S
C1254 H1267 0.962 . S
C1254 H1268 0.960 . S
C1255 C1252 1.511 . S
C1255 H1269 0.961 . S
C1255 H1270 0.961 . S
C1255 H1271 0.961 . S
C1256 C1257 1.370 . S
C1256 C1258 1.363 . S
C1256 H1272 0.931 . S
C1257 C1256 1.370 . S
C1257 C1261 1.408 . S
C1258 C1256 1.363 . S
C1258 C1259 1.370 . S
C1258 C1262 1.524 . S
C1259 C1251 1.503 . S
C1259 C1258 1.370 . S
C1259 C1260 1.403 . S
C1260 C1259 1.403 . S
C1260 C1261 1.404 . S
C1260 C1263 1.539 . S
C1261 C1257 1.408 . S
C1261 C1260 1.404 . S
C1261 H1273 0.930 . S
C1262 C1258 1.524 . S
C1262 H1274 0.956 . S
C1262 H1275 0.961 . S
C1262 H1276 0.961 . S
C1263 C1260 1.539 . S
C1263 H1277 0.958 . S
C1263 H1278 0.961 . S
C1263 H1279 0.960 . S
H1264 C1248 0.931 . S
H1265 C1253 0.929 . S
H1266 C1254 0.960 . S
H1267 C1254 0.962 . S
H1268 C1254 0.960 . S
H1269 C1255 0.961 . S
H1270 C1255 0.961 . S
H1271 C1255 0.961 . S
H1272 C1256 0.931 . S
H1273 C1261 0.930 . S
H1274 C1262 0.956 . S
H1275 C1262 0.961 . S
H1276 C1262 0.961 . S
H1277 C1263 0.958 . S
H1278 C1263 0.961 . S
H1279 C1263 0.960 . S
C1280 C1281 1.391 . S
C1280 C1282 1.394 . S
C1280 H1296 0.931 . S
C1281 C1280 1.391 . S
C1281 C1285 1.376 . S
C1282 C1280 1.394 . S
C1282 C1283 1.369 . S
C1282 C1286 1.531 . S
C1283 C1282 1.369 . S
C1283 C1284 1.410 . S
C1283 C1291 1.503 . S
C1284 C1283 1.410 . S
C1284 C1285 1.392 . S
C1284 C1287 1.511 . S
C1285 C1281 1.376 . S
C1285 C1284 1.392 . S
C1285 H1297 0.929 . S
C1286 C1282 1.531 . S
C1286 H1298 0.960 . S
C1286 H1299 0.962 . S
C1286 H1300 0.960 . S
C1287 C1284 1.511 . S
C1287 H1301 0.961 . S
C1287 H1302 0.961 . S
C1287 H1303 0.961 . S
C1288 C1289 1.370 . S
C1288 C1290 1.363 . S
C1288 H1304 0.931 . S
C1289 C1288 1.370 . S
C1289 C1293 1.408 . S
C1290 C1288 1.363 . S
C1290 C1291 1.370 . S
C1290 C1294 1.524 . S
C1291 C1283 1.503 . S
C1291 C1290 1.370 . S
C1291 C1292 1.403 . S
C1292 C1291 1.403 . S
C1292 C1293 1.404 . S
C1292 C1295 1.539 . S
C1293 C1289 1.408 . S
C1293 C1292 1.404 . S
C1293 H1305 0.930 . S
C1294 C1290 1.524 . S
C1294 H1306 0.956 . S
C1294 H1307 0.961 . S
C1294 H1308 0.961 . S
C1295 C1292 1.539 . S
C1295 H1309 0.958 . S
C1295 H1310 0.961 . S
C1295 H1311 0.960 . S
H1296 C1280 0.931 . S
H1297 C1285 0.929 . S
H1298 C1286 0.960 . S
H1299 C1286 0.962 . S
H1300 C1286 0.960 . S
H1301 C1287 0.961 . S
H1302 C1287 0.961 . S
H1303 C1287 0.961 . S
H1304 C1288 0.931 . S
H1305 C1293 0.930 . S
H1306 C1294 0.956 . S
H1307 C1294 0.961 . S
H1308 C1294 0.961 . S
H1309 C1295 0.958 . S
H1310 C1295 0.961 . S
H1311 C1295 0.960 . S
C1312 C1313 1.391 . S
C1312 C1314 1.394 . S
C1312 H1328 0.931 . S
C1313 C1312 1.391 . S
C1313 C1317 1.376 . S
C1314 C1312 1.394 . S
C1314 C1315 1.369 . S
C1314 C1318 1.531 . S
C1315 C1314 1.369 . S
C1315 C1316 1.410 . S
C1315 C1323 1.503 . S
C1316 C1315 1.410 . S
C1316 C1317 1.392 . S
C1316 C1319 1.511 . S
C1317 C1313 1.376 . S
C1317 C1316 1.392 . S
C1317 H1329 0.929 . S
C1318 C1314 1.531 . S
C1318 H1330 0.960 . S
C1318 H1331 0.962 . S
C1318 H1332 0.960 . S
C1319 C1316 1.511 . S
C1319 H1333 0.961 . S
C1319 H1334 0.961 . S
C1319 H1335 0.961 . S
C1320 C1321 1.370 . S
C1320 C1322 1.363 . S
C1320 H1336 0.931 . S
C1321 C1320 1.370 . S
C1321 C1325 1.408 . S
C1322 C1320 1.363 . S
C1322 C1323 1.370 . S
C1322 C1326 1.524 . S
C1323 C1315 1.503 . S
C1323 C1322 1.370 . S
C1323 C1324 1.403 . S
C1324 C1323 1.403 . S
C1324 C1325 1.404 . S
C1324 C1327 1.539 . S
C1325 C1321 1.408 . S
C1325 C1324 1.404 . S
C1325 H1337 0.930 . S
C1326 C1322 1.524 . S
C1326 H1338 0.956 . S
C1326 H1339 0.961 . S
C1326 H1340 0.961 . S
C1327 C1324 1.539 . S
C1327 H1341 0.958 . S
C1327 H1342 0.961 . S
C1327 H1343 0.960 . S
H1328 C1312 0.931 . S
H1329 C1317 0.929 . S
H1330 C1318 0.960 . S
H1331 C1318 0.962 . S
H1332 C1318 0.960 . S
H1333 C1319 0.961 . S
H1334 C1319 0.961 . S
H1335 C1319 0.961 . S
H1336 C1320 0.931 . S
H1337 C1325 0.930 . S
H1338 C1326 0.956 . S
H1339 C1326 0.961 . S
H1340 C1326 0.961 . S
H1341 C1327 0.958 . S
H1342 C1327 0.961 . S
H1343 C1327 0.960 . S
C1344 C1345 1.391 . S
C1344 C1346 1.394 . S
C1344 H1360 0.931 . S
C1345 C1344 1.391 . S
C1345 C1349 1.376 . S
C1346 C1344 1.394 . S
C1346 C1347 1.369 . S
C1346 C1350 1.531 . S
C1347 C1346 1.369 . S
C1347 C1348 1.410 . S
C1347 C1355 1.503 . S
C1348 C1347 1.410 . S
C1348 C1349 1.392 . S
C1348 C1351 1.511 . S
C1349 C1345 1.376 . S
C1349 C1348 1.392 . S
C1349 H1361 0.929 . S
C1350 C1346 1.531 . S
C1350 H1362 0.960 . S
C1350 H1363 0.962 . S
C1350 H1364 0.960 . S
C1351 C1348 1.511 . S
C1351 H1365 0.961 . S
C1351 H1366 0.961 . S
C1351 H1367 0.961 . S
C1352 C1353 1.370 . S
C1352 C1354 1.363 . S
C1352 H1368 0.931 . S
C1353 C1352 1.370 . S
C1353 C1357 1.408 . S
C1354 C1352 1.363 . S
C1354 C1355 1.370 . S
C1354 C1358 1.524 . S
C1355 C1347 1.503 . S
C1355 C1354 1.370 . S
C1355 C1356 1.403 . S
C1356 C1355 1.403 . S
C1356 C1357 1.404 . S
C1356 C1359 1.539 . S
C1357 C1353 1.408 . S
C1357 C1356 1.404 . S
C1357 H1369 0.930 . S
C1358 C1354 1.524 . S
C1358 H1370 0.956 . S
C1358 H1371 0.961 . S
C1358 H1372 0.961 . S
C1359 C1356 1.539 . S
C1359 H1373 0.958 . S
C1359 H1374 0.961 . S
C1359 H1375 0.960 . S
H1360 C1344 0.931 . S
H1361 C1349 0.929 . S
H1362 C1350 0.960 . S
H1363 C1350 0.962 . S
H1364 C1350 0.960 . S
H1365 C1351 0.961 . S
H1366 C1351 0.961 . S
H1367 C1351 0.961 . S
H1368 C1352 0.931 . S
H1369 C1357 0.930 . S
H1370 C1358 0.956 . S
H1371 C1358 0.961 . S
H1372 C1358 0.961 . S
H1373 C1359 0.958 . S
H1374 C1359 0.961 . S
H1375 C1359 0.960 . S
C1376 C1377 1.391 . S
C1376 C1378 1.394 . S
C1376 H1392 0.931 . S
C1377 C1376 1.391 . S
C1377 C1381 1.376 . S
C1378 C1376 1.394 . S
C1378 C1379 1.369 . S
C1378 C1382 1.531 . S
C1379 C1378 1.369 . S
C1379 C1380 1.410 . S
C1379 C1387 1.503 . S
C1380 C1379 1.410 . S
C1380 C1381 1.392 . S
C1380 C1383 1.511 . S
C1381 C1377 1.376 . S
C1381 C1380 1.392 . S
C1381 H1393 0.929 . S
C1382 C1378 1.531 . S
C1382 H1394 0.960 . S
C1382 H1395 0.962 . S
C1382 H1396 0.960 . S
C1383 C1380 1.511 . S
C1383 H1397 0.961 . S
C1383 H1398 0.961 . S
C1383 H1399 0.961 . S
C1384 C1385 1.370 . S
C1384 C1386 1.363 . S
C1384 H1400 0.931 . S
C1385 C1384 1.370 . S
C1385 C1389 1.408 . S
C1386 C1384 1.363 . S
C1386 C1387 1.370 . S
C1386 C1390 1.524 . S
C1387 C1379 1.503 . S
C1387 C1386 1.370 . S
C1387 C1388 1.403 . S
C1388 C1387 1.403 . S
C1388 C1389 1.404 . S
C1388 C1391 1.539 . S
C1389 C1385 1.408 . S
C1389 C1388 1.404 . S
C1389 H1401 0.930 . S
C1390 C1386 1.524 . S
C1390 H1402 0.956 . S
C1390 H1403 0.961 . S
C1390 H1404 0.961 . S
C1391 C1388 1.539 . S
C1391 H1405 0.958 . S
C1391 H1406 0.961 . S
C1391 H1407 0.960 . S
H1392 C1376 0.931 . S
H1393 C1381 0.929 . S
H1394 C1382 0.960 . S
H1395 C1382 0.962 . S
H1396 C1382 0.960 . S
H1397 C1383 0.961 . S
H1398 C1383 0.961 . S
H1399 C1383 0.961 . S
H1400 C1384 0.931 . S
H1401 C1389 0.930 . S
H1402 C1390 0.956 . S
H1403 C1390 0.961 . S
H1404 C1390 0.961 . S
H1405 C1391 0.958 . S
H1406 C1391 0.961 . S
H1407 C1391 0.960 . S
C1408 C1409 1.391 . S
C1408 C1410 1.394 . S
C1408 H1424 0.931 . S
C1409 C1408 1.391 . S
C1409 C1413 1.376 . S
C1410 C1408 1.394 . S
C1410 C1411 1.369 . S
C1410 C1414 1.531 . S
C1411 C1410 1.369 . S
C1411 C1412 1.410 . S
C1411 C1419 1.503 . S
C1412 C1411 1.410 . S
C1412 C1413 1.392 . S
C1412 C1415 1.511 . S
C1413 C1409 1.376 . S
C1413 C1412 1.392 . S
C1413 H1425 0.929 . S
C1414 C1410 1.531 . S
C1414 H1426 0.960 . S
C1414 H1427 0.962 . S
C1414 H1428 0.960 . S
C1415 C1412 1.511 . S
C1415 H1429 0.961 . S
C1415 H1430 0.961 . S
C1415 H1431 0.961 . S
C1416 C1417 1.370 . S
C1416 C1418 1.363 . S
C1416 H1432 0.931 . S
C1417 C1416 1.370 . S
C1417 C1421 1.408 . S
C1418 C1416 1.363 . S
C1418 C1419 1.370 . S
C1418 C1422 1.524 . S
C1419 C1411 1.503 . S
C1419 C1418 1.370 . S
C1419 C1420 1.403 . S
C1420 C1419 1.403 . S
C1420 C1421 1.404 . S
C1420 C1423 1.539 . S
C1421 C1417 1.408 . S
C1421 C1420 1.404 . S
C1421 H1433 0.930 . S
C1422 C1418 1.524 . S
C1422 H1434 0.956 . S
C1422 H1435 0.961 . S
C1422 H1436 0.961 . S
C1423 C1420 1.539 . S
C1423 H1437 0.958 . S
C1423 H1438 0.961 . S
C1423 H1439 0.960 . S
H1424 C1408 0.931 . S
H1425 C1413 0.929 . S
H1426 C1414 0.960 . S
H1427 C1414 0.962 . S
H1428 C1414 0.960 . S
H1429 C1415 0.961 . S
H1430 C1415 0.961 . S
H1431 C1415 0.961 . S
H1432 C1416 0.931 . S
H1433 C1421 0.930 . S
H1434 C1422 0.956 . S
H1435 C1422 0.961 . S
H1436 C1422 0.961 . S
H1437 C1423 0.958 . S
H1438 C1423 0.961 . S
H1439 C1423 0.960 . S
C1440 C1441 1.391 . S
C1440 C1442 1.394 . S
C1440 H1456 0.931 . S
C1441 C1440 1.391 . S
C1441 C1445 1.376 . S
C1442 C1440 1.394 . S
C1442 C1443 1.369 . S
C1442 C1446 1.531 . S
C1443 C1442 1.369 . S
C1443 C1444 1.410 . S
C1443 C1451 1.503 . S
C1444 C1443 1.410 . S
C1444 C1445 1.392 . S
C1444 C1447 1.511 . S
C1445 C1441 1.376 . S
C1445 C1444 1.392 . S
C1445 H1457 0.929 . S
C1446 C1442 1.531 . S
C1446 H1458 0.960 . S
C1446 H1459 0.962 . S
C1446 H1460 0.960 . S
C1447 C1444 1.511 . S
C1447 H1461 0.961 . S
C1447 H1462 0.961 . S
C1447 H1463 0.961 . S
C1448 C1449 1.370 . S
C1448 C1450 1.363 . S
C1448 H1464 0.931 . S
C1449 C1448 1.370 . S
C1449 C1453 1.408 . S
C1450 C1448 1.363 . S
C1450 C1451 1.370 . S
C1450 C1454 1.524 . S
C1451 C1443 1.503 . S
C1451 C1450 1.370 . S
C1451 C1452 1.403 . S
C1452 C1451 1.403 . S
C1452 C1453 1.404 . S
C1452 C1455 1.539 . S
C1453 C1449 1.408 . S
C1453 C1452 1.404 . S
C1453 H1465 0.930 . S
C1454 C1450 1.524 . S
C1454 H1466 0.956 . S
C1454 H1467 0.961 . S
C1454 H1468 0.961 . S
C1455 C1452 1.539 . S
C1455 H1469 0.958 . S
C1455 H1470 0.961 . S
C1455 H1471 0.960 . S
H1456 C1440 0.931 . S
H1457 C1445 0.929 . S
H1458 C1446 0.960 . S
H1459 C1446 0.962 . S
H1460 C1446 0.960 . S
H1461 C1447 0.961 . S
H1462 C1447 0.961 . S
H1463 C1447 0.961 . S
H1464 C1448 0.931 . S
H1465 C1453 0.930 . S
H1466 C1454 0.956 . S
H1467 C1454 0.961 . S
H1468 C1454 0.961 . S
H1469 C1455 0.958 . S
H1470 C1455 0.961 . S
H1471 C1455 0.960 . S
C1472 C1473 1.391 . S
C1472 C1474 1.394 . S
C1472 H1488 0.931 . S
C1473 C1472 1.391 . S
C1473 C1477 1.376 . S
C1474 C1472 1.394 . S
C1474 C1475 1.369 . S
C1474 C1478 1.531 . S
C1475 C1474 1.369 . S
C1475 C1476 1.410 . S
C1475 C1483 1.503 . S
C1476 C1475 1.410 . S
C1476 C1477 1.392 . S
C1476 C1479 1.511 . S
C1477 C1473 1.376 . S
C1477 C1476 1.392 . S
C1477 H1489 0.929 . S
C1478 C1474 1.531 . S
C1478 H1490 0.960 . S
C1478 H1491 0.962 . S
C1478 H1492 0.960 . S
C1479 C1476 1.511 . S
C1479 H1493 0.961 . S
C1479 H1494 0.961 . S
C1479 H1495 0.961 . S
C1480 C1481 1.370 . S
C1480 C1482 1.363 . S
C1480 H1496 0.931 . S
C1481 C1480 1.370 . S
C1481 C1485 1.408 . S
C1482 C1480 1.363 . S
C1482 C1483 1.370 . S
C1482 C1486 1.524 . S
C1483 C1475 1.503 . S
C1483 C1482 1.370 . S
C1483 C1484 1.403 . S
C1484 C1483 1.403 . S
C1484 C1485 1.404 . S
C1484 C1487 1.539 . S
C1485 C1481 1.408 . S
C1485 C1484 1.404 . S
C1485 H1497 0.930 . S
C1486 C1482 1.524 . S
C1486 H1498 0.956 . S
C1486 H1499 0.961 . S
C1486 H1500 0.961 . S
C1487 C1484 1.539 . S
C1487 H1501 0.958 . S
C1487 H1502 0.961 . S
C1487 H1503 0.960 . S
H1488 C1472 0.931 . S
H1489 C1477 0.929 . S
H1490 C1478 0.960 . S
H1491 C1478 0.962 . S
H1492 C1478 0.960 . S
H1493 C1479 0.961 . S
H1494 C1479 0.961 . S
H1495 C1479 0.961 . S
H1496 C1480 0.931 . S
H1497 C1485 0.930 . S
H1498 C1486 0.956 . S
H1499 C1486 0.961 . S
H1500 C1486 0.961 . S
H1501 C1487 0.958 . S
H1502 C1487 0.961 . S
H1503 C1487 0.960 . S
C1504 C1505 1.391 . S
C1504 C1506 1.394 . S
C1504 H1520 0.931 . S
C1505 C1504 1.391 . S
C1505 C1509 1.376 . S
C1506 C1504 1.394 . S
C1506 C1507 1.369 . S
C1506 C1510 1.531 . S
C1507 C1506 1.369 . S
C1507 C1508 1.410 . S
C1507 C1515 1.503 . S
C1508 C1507 1.410 . S
C1508 C1509 1.392 . S
C1508 C1511 1.511 . S
C1509 C1505 1.376 . S
C1509 C1508 1.392 . S
C1509 H1521 0.929 . S
C1510 C1506 1.531 . S
C1510 H1522 0.960 . S
C1510 H1523 0.962 . S
C1510 H1524 0.960 . S
C1511 C1508 1.511 . S
C1511 H1525 0.961 . S
C1511 H1526 0.961 . S
C1511 H1527 0.961 . S
C1512 C1513 1.370 . S
C1512 C1514 1.363 . S
C1512 H1528 0.931 . S
C1513 C1512 1.370 . S
C1513 C1517 1.408 . S
C1514 C1512 1.363 . S
C1514 C1515 1.370 . S
C1514 C1518 1.524 . S
C1515 C1507 1.503 . S
C1515 C1514 1.370 . S
C1515 C1516 1.403 . S
C1516 C1515 1.403 . S
C1516 C1517 1.404 . S
C1516 C1519 1.539 . S
C1517 C1513 1.408 . S
C1517 C1516 1.404 . S
C1517 H1529 0.930 . S
C1518 C1514 1.524 . S
C1518 H1530 0.956 . S
C1518 H1531 0.961 . S
C1518 H1532 0.961 . S
C1519 C1516 1.539 . S
C1519 H1533 0.958 . S
C1519 H1534 0.961 . S
C1519 H1535 0.960 . S
H1520 C1504 0.931 . S
H1521 C1509 0.929 . S
H1522 C1510 0.960 . S
H1523 C1510 0.962 . S
H1524 C1510 0.960 . S
H1525 C1511 0.961 . S
H1526 C1511 0.961 . S
H1527 C1511 0.961 . S
H1528 C1512 0.931 . S
H1529 C1517 0.930 . S
H1530 C1518 0.956 . S
H1531 C1518 0.961 . S
H1532 C1518 0.961 . S
H1533 C1519 0.958 . S
H1534 C1519 0.961 . S
H1535 C1519 0.960 . S
C1536 C1537 1.391 . S
C1536 C1538 1.394 . S
C1536 H1552 0.931 . S
C1537 C1536 1.391 . S
C1537 C1541 1.376 . S
C1538 C1536 1.394 . S
C1538 C1539 1.369 . S
C1538 C1542 1.531 . S
C1539 C1538 1.369 . S
C1539 C1540 1.410 . S
C1539 C1547 1.503 . S
C1540 C1539 1.410 . S
C1540 C1541 1.392 . S
C1540 C1543 1.511 . S
C1541 C1537 1.376 . S
C1541 C1540 1.392 . S
C1541 H1553 0.929 . S
C1542 C1538 1.531 . S
C1542 H1554 0.960 . S
C1542 H1555 0.962 . S
C1542 H1556 0.960 . S
C1543 C1540 1.511 . S
C1543 H1557 0.961 . S
C1543 H1558 0.961 . S
C1543 H1559 0.961 . S
C1544 C1545 1.370 . S
C1544 C1546 1.363 . S
C1544 H1560 0.931 . S
C1545 C1544 1.370 . S
C1545 C1549 1.408 . S
C1546 C1544 1.363 . S
C1546 C1547 1.370 . S
C1546 C1550 1.524 . S
C1547 C1539 1.503 . S
C1547 C1546 1.370 . S
C1547 C1548 1.403 . S
C1548 C1547 1.403 . S
C1548 C1549 1.404 . S
C1548 C1551 1.539 . S
C1549 C1545 1.408 . S
C1549 C1548 1.404 . S
C1549 H1561 0.930 . S
C1550 C1546 1.524 . S
C1550 H1562 0.956 . S
C1550 H1563 0.961 . S
C1550 H1564 0.961 . S
C1551 C1548 1.539 . S
C1551 H1565 0.958 . S
C1551 H1566 0.961 . S
C1551 H1567 0.960 . S
H1552 C1536 0.931 . S
H1553 C1541 0.929 . S
H1554 C1542 0.960 . S
H1555 C1542 0.962 . S
H1556 C1542 0.960 . S
H1557 C1543 0.961 . S
H1558 C1543 0.961 . S
H1559 C1543 0.961 . S
H1560 C1544 0.931 . S
H1561 C1549 0.930 . S
H1562 C1550 0.956 . S
H1563 C1550 0.961 . S
H1564 C1550 0.961 . S
H1565 C1551 0.958 . S
H1566 C1551 0.961 . S
H1567 C1551 0.960 . S
C1568 C1569 1.391 . S
C1568 C1570 1.394 . S
C1568 H1584 0.931 . S
C1569 C1568 1.391 . S
C1569 C1573 1.376 . S
C1570 C1568 1.394 . S
C1570 C1571 1.369 . S
C1570 C1574 1.531 . S
C1571 C1570 1.369 . S
C1571 C1572 1.410 . S
C1571 C1579 1.503 . S
C1572 C1571 1.410 . S
C1572 C1573 1.392 . S
C1572 C1575 1.511 . S
C1573 C1569 1.376 . S
C1573 C1572 1.392 . S
C1573 H1585 0.929 . S
C1574 C1570 1.531 . S
C1574 H1586 0.960 . S
C1574 H1587 0.962 . S
C1574 H1588 0.960 . S
C1575 C1572 1.511 . S
C1575 H1589 0.961 . S
C1575 H1590 0.961 . S
C1575 H1591 0.961 . S
C1576 C1577 1.370 . S
C1576 C1578 1.363 . S
C1576 H1592 0.931 . S
C1577 C1576 1.370 . S
C1577 C1581 1.408 . S
C1578 C1576 1.363 . S
C1578 C1579 1.370 . S
C1578 C1582 1.524 . S
C1579 C1571 1.503 . S
C1579 C1578 1.370 . S
C1579 C1580 1.403 . S
C1580 C1579 1.403 . S
C1580 C1581 1.404 . S
C1580 C1583 1.539 . S
C1581 C1577 1.408 . S
C1581 C1580 1.404 . S
C1581 H1593 0.930 . S
C1582 C1578 1.524 . S
C1582 H1594 0.956 . S
C1582 H1595 0.961 . S
C1582 H1596 0.961 . S
C1583 C1580 1.539 . S
C1583 H1597 0.958 . S
C1583 H1598 0.961 . S
C1583 H1599 0.960 . S
H1584 C1568 0.931 . S
H1585 C1573 0.929 . S
H1586 C1574 0.960 . S
H1587 C1574 0.962 . S
H1588 C1574 0.960 . S
H1589 C1575 0.961 . S
H1590 C1575 0.961 . S
H1591 C1575 0.961 . S
H1592 C1576 0.931 . S
H1593 C1581 0.930 . S
H1594 C1582 0.956 . S
H1595 C1582 0.961 . S
H1596 C1582 0.961 . S
H1597 C1583 0.958 . S
H1598 C1583 0.961 . S
H1599 C1583 0.960 . S
C1600 C1601 1.391 . S
C1600 C1602 1.394 . S
C1600 H1616 0.931 . S
C1601 C1600 1.391 . S
C1601 C1605 1.376 . S
C1602 C1600 1.394 . S
C1602 C1603 1.369 . S
C1602 C1606 1.531 . S
C1603 C1602 1.369 . S
C1603 C1604 1.410 . S
C1603 C1611 1.503 . S
C1604 C1603 1.410 . S
C1604 C1605 1.392 . S
C1604 C1607 1.511 . S
C1605 C1601 1.376 . S
C1605 C1604 1.392 . S
C1605 H1617 0.929 . S
C1606 C1602 1.531 . S
C1606 H1618 0.960 . S
C1606 H1619 0.962 . S
C1606 H1620 0.960 . S
C1607 C1604 1.511 . S
C1607 H1621 0.961 . S
C1607 H1622 0.961 . S
C1607 H1623 0.961 . S
C1608 C1609 1.370 . S
C1608 C1610 1.363 . S
C1608 H1624 0.931 . S
C1609 C1608 1.370 . S
C1609 C1613 1.408 . S
C1610 C1608 1.363 . S
C1610 C1611 1.370 . S
C1610 C1614 1.524 . S
C1611 C1603 1.503 . S
C1611 C1610 1.370 . S
C1611 C1612 1.403 . S
C1612 C1611 1.403 . S
C1612 C1613 1.404 . S
C1612 C1615 1.539 . S
C1613 C1609 1.408 . S
C1613 C1612 1.404 . S
C1613 H1625 0.930 . S
C1614 C1610 1.524 . S
C1614 H1626 0.956 . S
C1614 H1627 0.961 . S
C1614 H1628 0.961 . S
C1615 C1612 1.539 . S
C1615 H1629 0.958 . S
C1615 H1630 0.961 . S
C1615 H1631 0.960 . S
H1616 C1600 0.931 . S
H1617 C1605 0.929 . S
H1618 C1606 0.960 . S
H1619 C1606 0.962 . S
H1620 C1606 0.960 . S
H1621 C1607 0.961 . S
H1622 C1607 0.961 . S
H1623 C1607 0.961 . S
H1624 C1608 0.931 . S
H1625 C1613 0.930 . S
H1626 C1614 0.956 . S
H1627 C1614 0.961 . S
H1628 C1614 0.961 . S
H1629 C1615 0.958 . S
H1630 C1615 0.961 . S
H1631 C1615 0.960 . S
C617 C518 1.463 . S
C609 C35 1.252 . S
C649 C532 1.459 . S
C641 C115 1.288 . S
C681 C547 1.450 . S
C673 C177 1.379 . S
C705 C221 1.251 . S
C713 C505 1.441 . S
C737 C283 1.262 . S
C745 C504 1.447 . S
C769 C363 1.346 . S
C777 C519 1.443 . S
C809 C533 1.481 . S
C801 C407 1.387 . S
C841 C546 1.469 . S
C833 C469 1.369 . S
C865 C159 1.276 . S
C873 C574 1.448 . S
C905 C588 1.488 . S
C897 C239 1.353 . S
C929 C53 1.281 . S
C937 C603 1.437 . S
C969 C560 1.426 . S
C961 C97 1.332 . S
C993 C425 1.373 . S
C1001 C561 1.446 . S
C1025 C487 1.297 . S
C1033 C575 1.456 . S
C1065 C589 1.457 . S
C1057 C301 1.277 . S
C1089 C345 1.374 . S
C1097 C602 1.479 . S
C1129 C527 1.887 . S
C1121 C29 1.869 . S
C1161 C545 1.844 . S
C1153 C109 1.827 . S
C1185 C171 1.818 . S
C1193 C503 1.863 . S
C1217 C215 1.893 . S
C1225 C513 1.905 . S
C1249 C277 1.884 . S
C1257 C541 1.886 . S
C1289 C499 1.901 . S
C1281 C357 1.811 . S
C1321 C517 1.853 . S
C1313 C401 1.858 . S
C1353 C531 1.840 . S
C1345 C463 1.883 . S
C1385 C583 1.892 . S
C1377 C153 1.850 . S
C1417 C601 1.845 . S
C1409 C233 1.810 . S
C1441 C47 1.815 . S
C1449 C555 1.890 . S
C1481 C569 1.887 . S
C1473 C91 1.881 . S
C1513 C597 1.903 . S
C1505 C419 1.860 . S
C1537 C481 1.819 . S
C1545 C559 1.864 . S
C1577 C573 1.851 . S
C1569 C295 1.835 . S
C1609 C587 1.857 . S
C1601 C339 1.859 . S
