# Generated by pormake.
# Topology ana-f, (3,3)-cn, num edge types: 1
# Building blocks:
#     Node 0, Type 0, BuildingBlock: WUSLED_clean_sbu_0, # of connection points: 3
#     Node 1, Type 0, BuildingBlock: WUSLED_clean_sbu_0, # of connection points: 3
#     Node 2, Type 0, BuildingBlock: WUSLED_clean_sbu_0, # of connection points: 3
#     Node 3, Type 0, BuildingBlock: WUSLED_clean_sbu_0, # of connection points: 3
#     Node 4, Type 0, BuildingBlock: WUSLED_clean_sbu_0, # of connection points: 3
#     Node 5, Type 0, BuildingBlock: WUSLED_clean_sbu_0, # of connection points: 3
#     Node 6, Type 0, BuildingBlock: WUSLED_clean_sbu_0, # of connection points: 3
#     Node 7, Type 0, BuildingBlock: WUSLED_clean_sbu_0, # of connection points: 3
#     Node 8, Type 0, BuildingBlock: WUSLED_clean_sbu_0, # of connection points: 3
#     Node 9, Type 0, BuildingBlock: WUSLED_clean_sbu_0, # of connection points: 3
#     Node 10, Type 0, BuildingBlock: WUSLED_clean_sbu_0, # of connection points: 3
#     Node 11, Type 0, BuildingBlock: WUSLED_clean_sbu_0, # of connection points: 3
#     Node 12, Type 0, BuildingBlock: WUSLED_clean_sbu_0, # of connection points: 3
#     Node 13, Type 0, BuildingBlock: WUSLED_clean_sbu_0, # of connection points: 3
#     Node 14, Type 0, BuildingBlock: WUSLED_clean_sbu_0, # of connection points: 3
#     Node 15, Type 0, BuildingBlock: WUSLED_clean_sbu_0, # of connection points: 3
#     Node 16, Type 0, BuildingBlock: WUSLED_clean_sbu_0, # of connection points: 3
#     Node 17, Type 0, BuildingBlock: WUSLED_clean_sbu_0, # of connection points: 3
#     Node 18, Type 0, BuildingBlock: WUSLED_clean_sbu_0, # of connection points: 3
#     Node 19, Type 0, BuildingBlock: WUSLED_clean_sbu_0, # of connection points: 3
#     Node 20, Type 0, BuildingBlock: WUSLED_clean_sbu_0, # of connection points: 3
#     Node 21, Type 0, BuildingBlock: WUSLED_clean_sbu_0, # of connection points: 3
#     Node 22, Type 0, BuildingBlock: WUSLED_clean_sbu_0, # of connection points: 3
#     Node 23, Type 0, BuildingBlock: WUSLED_clean_sbu_0, # of connection points: 3
#     Node 24, Type 0, BuildingBlock: WUSLED_clean_sbu_0, # of connection points: 3
#     Node 25, Type 0, BuildingBlock: WUSLED_clean_sbu_0, # of connection points: 3
#     Node 26, Type 0, BuildingBlock: WUSLED_clean_sbu_0, # of connection points: 3
#     Node 27, Type 0, BuildingBlock: WUSLED_clean_sbu_0, # of connection points: 3
#     Node 28, Type 0, BuildingBlock: WUSLED_clean_sbu_0, # of connection points: 3
#     Node 29, Type 0, BuildingBlock: WUSLED_clean_sbu_0, # of connection points: 3
#     Node 30, Type 0, BuildingBlock: WUSLED_clean_sbu_0, # of connection points: 3
#     Node 31, Type 0, BuildingBlock: WUSLED_clean_sbu_0, # of connection points: 3
#     Node 32, Type 0, BuildingBlock: WUSLED_clean_sbu_0, # of connection points: 3
#     Node 33, Type 0, BuildingBlock: WUSLED_clean_sbu_0, # of connection points: 3
#     Node 34, Type 0, BuildingBlock: WUSLED_clean_sbu_0, # of connection points: 3
#     Node 35, Type 0, BuildingBlock: WUSLED_clean_sbu_0, # of connection points: 3
#     Node 36, Type 0, BuildingBlock: WUSLED_clean_sbu_0, # of connection points: 3
#     Node 37, Type 0, BuildingBlock: WUSLED_clean_sbu_0, # of connection points: 3
#     Node 38, Type 0, BuildingBlock: WUSLED_clean_sbu_0, # of connection points: 3
#     Node 39, Type 0, BuildingBlock: WUSLED_clean_sbu_0, # of connection points: 3
#     Node 40, Type 0, BuildingBlock: WUSLED_clean_sbu_0, # of connection points: 3
#     Node 41, Type 0, BuildingBlock: WUSLED_clean_sbu_0, # of connection points: 3
#     Node 42, Type 0, BuildingBlock: WUSLED_clean_sbu_0, # of connection points: 3
#     Node 43, Type 0, BuildingBlock: WUSLED_clean_sbu_0, # of connection points: 3
#     Node 44, Type 0, BuildingBlock: WUSLED_clean_sbu_0, # of connection points: 3
#     Node 45, Type 0, BuildingBlock: WUSLED_clean_sbu_0, # of connection points: 3
#     Node 46, Type 0, BuildingBlock: WUSLED_clean_sbu_0, # of connection points: 3
#     Node 47, Type 0, BuildingBlock: WUSLED_clean_sbu_0, # of connection points: 3
#     Node 48, Type 0, BuildingBlock: WUSLED_clean_sbu_0, # of connection points: 3
#     Node 49, Type 0, BuildingBlock: WUSLED_clean_sbu_0, # of connection points: 3
#     Node 50, Type 0, BuildingBlock: WUSLED_clean_sbu_0, # of connection points: 3
#     Node 51, Type 0, BuildingBlock: WUSLED_clean_sbu_0, # of connection points: 3
#     Node 52, Type 0, BuildingBlock: WUSLED_clean_sbu_0, # of connection points: 3
#     Node 53, Type 0, BuildingBlock: WUSLED_clean_sbu_0, # of connection points: 3
#     Node 54, Type 0, BuildingBlock: WUSLED_clean_sbu_0, # of connection points: 3
#     Node 55, Type 0, BuildingBlock: WUSLED_clean_sbu_0, # of connection points: 3
#     Node 56, Type 0, BuildingBlock: WUSLED_clean_sbu_0, # of connection points: 3
#     Node 57, Type 0, BuildingBlock: WUSLED_clean_sbu_0, # of connection points: 3
#     Node 58, Type 0, BuildingBlock: WUSLED_clean_sbu_0, # of connection points: 3
#     Node 59, Type 0, BuildingBlock: WUSLED_clean_sbu_0, # of connection points: 3
#     Node 60, Type 0, BuildingBlock: WUSLED_clean_sbu_0, # of connection points: 3
#     Node 61, Type 0, BuildingBlock: WUSLED_clean_sbu_0, # of connection points: 3
#     Node 62, Type 0, BuildingBlock: WUSLED_clean_sbu_0, # of connection points: 3
#     Node 63, Type 0, BuildingBlock: WUSLED_clean_sbu_0, # of connection points: 3
#     Node 64, Type 0, BuildingBlock: WUSLED_clean_sbu_0, # of connection points: 3
#     Node 65, Type 0, BuildingBlock: WUSLED_clean_sbu_0, # of connection points: 3
#     Node 66, Type 0, BuildingBlock: WUSLED_clean_sbu_0, # of connection points: 3
#     Node 67, Type 0, BuildingBlock: WUSLED_clean_sbu_0, # of connection points: 3
#     Node 68, Type 0, BuildingBlock: WUSLED_clean_sbu_0, # of connection points: 3
#     Node 69, Type 0, BuildingBlock: WUSLED_clean_sbu_0, # of connection points: 3
#     Node 70, Type 0, BuildingBlock: WUSLED_clean_sbu_0, # of connection points: 3
#     Node 71, Type 0, BuildingBlock: WUSLED_clean_sbu_0, # of connection points: 3
#     Node 72, Type 0, BuildingBlock: WUSLED_clean_sbu_0, # of connection points: 3
#     Node 73, Type 0, BuildingBlock: WUSLED_clean_sbu_0, # of connection points: 3
#     Node 74, Type 0, BuildingBlock: WUSLED_clean_sbu_0, # of connection points: 3
#     Node 75, Type 0, BuildingBlock: WUSLED_clean_sbu_0, # of connection points: 3
#     Node 76, Type 0, BuildingBlock: WUSLED_clean_sbu_0, # of connection points: 3
#     Node 77, Type 0, BuildingBlock: WUSLED_clean_sbu_0, # of connection points: 3
#     Node 78, Type 0, BuildingBlock: WUSLED_clean_sbu_0, # of connection points: 3
#     Node 79, Type 0, BuildingBlock: WUSLED_clean_sbu_0, # of connection points: 3
#     Node 80, Type 0, BuildingBlock: WUSLED_clean_sbu_0, # of connection points: 3
#     Node 81, Type 0, BuildingBlock: WUSLED_clean_sbu_0, # of connection points: 3
#     Node 82, Type 0, BuildingBlock: WUSLED_clean_sbu_0, # of connection points: 3
#     Node 83, Type 0, BuildingBlock: WUSLED_clean_sbu_0, # of connection points: 3
#     Node 84, Type 0, BuildingBlock: WUSLED_clean_sbu_0, # of connection points: 3
#     Node 85, Type 0, BuildingBlock: WUSLED_clean_sbu_0, # of connection points: 3
#     Node 86, Type 0, BuildingBlock: WUSLED_clean_sbu_0, # of connection points: 3
#     Node 87, Type 0, BuildingBlock: WUSLED_clean_sbu_0, # of connection points: 3
#     Node 88, Type 0, BuildingBlock: WUSLED_clean_sbu_0, # of connection points: 3
#     Node 89, Type 0, BuildingBlock: WUSLED_clean_sbu_0, # of connection points: 3
#     Node 90, Type 0, BuildingBlock: WUSLED_clean_sbu_0, # of connection points: 3
#     Node 91, Type 0, BuildingBlock: WUSLED_clean_sbu_0, # of connection points: 3
#     Node 92, Type 0, BuildingBlock: WUSLED_clean_sbu_0, # of connection points: 3
#     Node 93, Type 0, BuildingBlock: WUSLED_clean_sbu_0, # of connection points: 3
#     Node 94, Type 0, BuildingBlock: WUSLED_clean_sbu_0, # of connection points: 3
#     Node 95, Type 0, BuildingBlock: WUSLED_clean_sbu_0, # of connection points: 3
#     Node 96, Type 1, BuildingBlock: KAKCAD_clean_linker_0, # of connection points: 3
#     Node 97, Type 1, BuildingBlock: KAKCAD_clean_linker_0, # of connection points: 3
#     Node 98, Type 1, BuildingBlock: KAKCAD_clean_linker_0, # of connection points: 3
#     Node 99, Type 1, BuildingBlock: KAKCAD_clean_linker_0, # of connection points: 3
#     Node 100, Type 1, BuildingBlock: KAKCAD_clean_linker_0, # of connection points: 3
#     Node 101, Type 1, BuildingBlock: KAKCAD_clean_linker_0, # of connection points: 3
#     Node 102, Type 1, BuildingBlock: KAKCAD_clean_linker_0, # of connection points: 3
#     Node 103, Type 1, BuildingBlock: KAKCAD_clean_linker_0, # of connection points: 3
#     Node 104, Type 1, BuildingBlock: KAKCAD_clean_linker_0, # of connection points: 3
#     Node 105, Type 1, BuildingBlock: KAKCAD_clean_linker_0, # of connection points: 3
#     Node 106, Type 1, BuildingBlock: KAKCAD_clean_linker_0, # of connection points: 3
#     Node 107, Type 1, BuildingBlock: KAKCAD_clean_linker_0, # of connection points: 3
#     Node 108, Type 1, BuildingBlock: KAKCAD_clean_linker_0, # of connection points: 3
#     Node 109, Type 1, BuildingBlock: KAKCAD_clean_linker_0, # of connection points: 3
#     Node 110, Type 1, BuildingBlock: KAKCAD_clean_linker_0, # of connection points: 3
#     Node 111, Type 1, BuildingBlock: KAKCAD_clean_linker_0, # of connection points: 3
#     Node 112, Type 1, BuildingBlock: KAKCAD_clean_linker_0, # of connection points: 3
#     Node 113, Type 1, BuildingBlock: KAKCAD_clean_linker_0, # of connection points: 3
#     Node 114, Type 1, BuildingBlock: KAKCAD_clean_linker_0, # of connection points: 3
#     Node 115, Type 1, BuildingBlock: KAKCAD_clean_linker_0, # of connection points: 3
#     Node 116, Type 1, BuildingBlock: KAKCAD_clean_linker_0, # of connection points: 3
#     Node 117, Type 1, BuildingBlock: KAKCAD_clean_linker_0, # of connection points: 3
#     Node 118, Type 1, BuildingBlock: KAKCAD_clean_linker_0, # of connection points: 3
#     Node 119, Type 1, BuildingBlock: KAKCAD_clean_linker_0, # of connection points: 3
#     Node 120, Type 1, BuildingBlock: KAKCAD_clean_linker_0, # of connection points: 3
#     Node 121, Type 1, BuildingBlock: KAKCAD_clean_linker_0, # of connection points: 3
#     Node 122, Type 1, BuildingBlock: KAKCAD_clean_linker_0, # of connection points: 3
#     Node 123, Type 1, BuildingBlock: KAKCAD_clean_linker_0, # of connection points: 3
#     Node 124, Type 1, BuildingBlock: KAKCAD_clean_linker_0, # of connection points: 3
#     Node 125, Type 1, BuildingBlock: KAKCAD_clean_linker_0, # of connection points: 3
#     Node 126, Type 1, BuildingBlock: KAKCAD_clean_linker_0, # of connection points: 3
#     Node 127, Type 1, BuildingBlock: KAKCAD_clean_linker_0, # of connection points: 3
#     Node 128, Type 1, BuildingBlock: KAKCAD_clean_linker_0, # of connection points: 3
#     Node 129, Type 1, BuildingBlock: KAKCAD_clean_linker_0, # of connection points: 3
#     Node 130, Type 1, BuildingBlock: KAKCAD_clean_linker_0, # of connection points: 3
#     Node 131, Type 1, BuildingBlock: KAKCAD_clean_linker_0, # of connection points: 3
#     Node 132, Type 1, BuildingBlock: KAKCAD_clean_linker_0, # of connection points: 3
#     Node 133, Type 1, BuildingBlock: KAKCAD_clean_linker_0, # of connection points: 3
#     Node 134, Type 1, BuildingBlock: KAKCAD_clean_linker_0, # of connection points: 3
#     Node 135, Type 1, BuildingBlock: KAKCAD_clean_linker_0, # of connection points: 3
#     Node 136, Type 1, BuildingBlock: KAKCAD_clean_linker_0, # of connection points: 3
#     Node 137, Type 1, BuildingBlock: KAKCAD_clean_linker_0, # of connection points: 3
#     Node 138, Type 1, BuildingBlock: KAKCAD_clean_linker_0, # of connection points: 3
#     Node 139, Type 1, BuildingBlock: KAKCAD_clean_linker_0, # of connection points: 3
#     Node 140, Type 1, BuildingBlock: KAKCAD_clean_linker_0, # of connection points: 3
#     Node 141, Type 1, BuildingBlock: KAKCAD_clean_linker_0, # of connection points: 3
#     Node 142, Type 1, BuildingBlock: KAKCAD_clean_linker_0, # of connection points: 3
#     Node 143, Type 1, BuildingBlock: KAKCAD_clean_linker_0, # of connection points: 3
#     Node 144, Type 1, BuildingBlock: KAKCAD_clean_linker_0, # of connection points: 3
#     Node 145, Type 1, BuildingBlock: KAKCAD_clean_linker_0, # of connection points: 3
#     Node 146, Type 1, BuildingBlock: KAKCAD_clean_linker_0, # of connection points: 3
#     Node 147, Type 1, BuildingBlock: KAKCAD_clean_linker_0, # of connection points: 3
#     Node 148, Type 1, BuildingBlock: KAKCAD_clean_linker_0, # of connection points: 3
#     Node 149, Type 1, BuildingBlock: KAKCAD_clean_linker_0, # of connection points: 3
#     Node 150, Type 1, BuildingBlock: KAKCAD_clean_linker_0, # of connection points: 3
#     Node 151, Type 1, BuildingBlock: KAKCAD_clean_linker_0, # of connection points: 3
#     Node 152, Type 1, BuildingBlock: KAKCAD_clean_linker_0, # of connection points: 3
#     Node 153, Type 1, BuildingBlock: KAKCAD_clean_linker_0, # of connection points: 3
#     Node 154, Type 1, BuildingBlock: KAKCAD_clean_linker_0, # of connection points: 3
#     Node 155, Type 1, BuildingBlock: KAKCAD_clean_linker_0, # of connection points: 3
#     Node 156, Type 1, BuildingBlock: KAKCAD_clean_linker_0, # of connection points: 3
#     Node 157, Type 1, BuildingBlock: KAKCAD_clean_linker_0, # of connection points: 3
#     Node 158, Type 1, BuildingBlock: KAKCAD_clean_linker_0, # of connection points: 3
#     Node 159, Type 1, BuildingBlock: KAKCAD_clean_linker_0, # of connection points: 3
#     Node 160, Type 1, BuildingBlock: KAKCAD_clean_linker_0, # of connection points: 3
#     Node 161, Type 1, BuildingBlock: KAKCAD_clean_linker_0, # of connection points: 3
#     Node 162, Type 1, BuildingBlock: KAKCAD_clean_linker_0, # of connection points: 3
#     Node 163, Type 1, BuildingBlock: KAKCAD_clean_linker_0, # of connection points: 3
#     Node 164, Type 1, BuildingBlock: KAKCAD_clean_linker_0, # of connection points: 3
#     Node 165, Type 1, BuildingBlock: KAKCAD_clean_linker_0, # of connection points: 3
#     Node 166, Type 1, BuildingBlock: KAKCAD_clean_linker_0, # of connection points: 3
#     Node 167, Type 1, BuildingBlock: KAKCAD_clean_linker_0, # of connection points: 3
#     Node 168, Type 1, BuildingBlock: KAKCAD_clean_linker_0, # of connection points: 3
#     Node 169, Type 1, BuildingBlock: KAKCAD_clean_linker_0, # of connection points: 3
#     Node 170, Type 1, BuildingBlock: KAKCAD_clean_linker_0, # of connection points: 3
#     Node 171, Type 1, BuildingBlock: KAKCAD_clean_linker_0, # of connection points: 3
#     Node 172, Type 1, BuildingBlock: KAKCAD_clean_linker_0, # of connection points: 3
#     Node 173, Type 1, BuildingBlock: KAKCAD_clean_linker_0, # of connection points: 3
#     Node 174, Type 1, BuildingBlock: KAKCAD_clean_linker_0, # of connection points: 3
#     Node 175, Type 1, BuildingBlock: KAKCAD_clean_linker_0, # of connection points: 3
#     Node 176, Type 1, BuildingBlock: KAKCAD_clean_linker_0, # of connection points: 3
#     Node 177, Type 1, BuildingBlock: KAKCAD_clean_linker_0, # of connection points: 3
#     Node 178, Type 1, BuildingBlock: KAKCAD_clean_linker_0, # of connection points: 3
#     Node 179, Type 1, BuildingBlock: KAKCAD_clean_linker_0, # of connection points: 3
#     Node 180, Type 1, BuildingBlock: KAKCAD_clean_linker_0, # of connection points: 3
#     Node 181, Type 1, BuildingBlock: KAKCAD_clean_linker_0, # of connection points: 3
#     Node 182, Type 1, BuildingBlock: KAKCAD_clean_linker_0, # of connection points: 3
#     Node 183, Type 1, BuildingBlock: KAKCAD_clean_linker_0, # of connection points: 3
#     Node 184, Type 1, BuildingBlock: KAKCAD_clean_linker_0, # of connection points: 3
#     Node 185, Type 1, BuildingBlock: KAKCAD_clean_linker_0, # of connection points: 3
#     Node 186, Type 1, BuildingBlock: KAKCAD_clean_linker_0, # of connection points: 3
#     Node 187, Type 1, BuildingBlock: KAKCAD_clean_linker_0, # of connection points: 3
#     Node 188, Type 1, BuildingBlock: KAKCAD_clean_linker_0, # of connection points: 3
#     Node 189, Type 1, BuildingBlock: KAKCAD_clean_linker_0, # of connection points: 3
#     Node 190, Type 1, BuildingBlock: KAKCAD_clean_linker_0, # of connection points: 3
#     Node 191, Type 1, BuildingBlock: KAKCAD_clean_linker_0, # of connection points: 3
#     Edge 192, Type (0, 1), BuildingBlock: OJICUG_clean_linker_0, # of connection points: 2
#     Edge 193, Type (0, 1), BuildingBlock: OJICUG_clean_linker_0, # of connection points: 2
#     Edge 194, Type (0, 1), BuildingBlock: OJICUG_clean_linker_0, # of connection points: 2
#     Edge 195, Type (0, 1), BuildingBlock: OJICUG_clean_linker_0, # of connection points: 2
#     Edge 196, Type (0, 1), BuildingBlock: OJICUG_clean_linker_0, # of connection points: 2
#     Edge 197, Type (0, 1), BuildingBlock: OJICUG_clean_linker_0, # of connection points: 2
#     Edge 198, Type (0, 1), BuildingBlock: OJICUG_clean_linker_0, # of connection points: 2
#     Edge 199, Type (0, 1), BuildingBlock: OJICUG_clean_linker_0, # of connection points: 2
#     Edge 200, Type (0, 1), BuildingBlock: OJICUG_clean_linker_0, # of connection points: 2
#     Edge 201, Type (0, 1), BuildingBlock: OJICUG_clean_linker_0, # of connection points: 2
#     Edge 202, Type (0, 1), BuildingBlock: OJICUG_clean_linker_0, # of connection points: 2
#     Edge 203, Type (0, 1), BuildingBlock: OJICUG_clean_linker_0, # of connection points: 2
#     Edge 204, Type (0, 1), BuildingBlock: OJICUG_clean_linker_0, # of connection points: 2
#     Edge 205, Type (0, 1), BuildingBlock: OJICUG_clean_linker_0, # of connection points: 2
#     Edge 206, Type (0, 1), BuildingBlock: OJICUG_clean_linker_0, # of connection points: 2
#     Edge 207, Type (0, 1), BuildingBlock: OJICUG_clean_linker_0, # of connection points: 2
#     Edge 208, Type (0, 1), BuildingBlock: OJICUG_clean_linker_0, # of connection points: 2
#     Edge 209, Type (0, 1), BuildingBlock: OJICUG_clean_linker_0, # of connection points: 2
#     Edge 210, Type (0, 1), BuildingBlock: OJICUG_clean_linker_0, # of connection points: 2
#     Edge 211, Type (0, 1), BuildingBlock: OJICUG_clean_linker_0, # of connection points: 2
#     Edge 212, Type (0, 1), BuildingBlock: OJICUG_clean_linker_0, # of connection points: 2
#     Edge 213, Type (0, 1), BuildingBlock: OJICUG_clean_linker_0, # of connection points: 2
#     Edge 214, Type (0, 1), BuildingBlock: OJICUG_clean_linker_0, # of connection points: 2
#     Edge 215, Type (0, 1), BuildingBlock: OJICUG_clean_linker_0, # of connection points: 2
#     Edge 216, Type (0, 1), BuildingBlock: OJICUG_clean_linker_0, # of connection points: 2
#     Edge 217, Type (0, 1), BuildingBlock: OJICUG_clean_linker_0, # of connection points: 2
#     Edge 218, Type (0, 1), BuildingBlock: OJICUG_clean_linker_0, # of connection points: 2
#     Edge 219, Type (0, 1), BuildingBlock: OJICUG_clean_linker_0, # of connection points: 2
#     Edge 220, Type (0, 1), BuildingBlock: OJICUG_clean_linker_0, # of connection points: 2
#     Edge 221, Type (0, 1), BuildingBlock: OJICUG_clean_linker_0, # of connection points: 2
#     Edge 222, Type (0, 1), BuildingBlock: OJICUG_clean_linker_0, # of connection points: 2
#     Edge 223, Type (0, 1), BuildingBlock: OJICUG_clean_linker_0, # of connection points: 2
#     Edge 224, Type (0, 1), BuildingBlock: OJICUG_clean_linker_0, # of connection points: 2
#     Edge 225, Type (0, 1), BuildingBlock: OJICUG_clean_linker_0, # of connection points: 2
#     Edge 226, Type (0, 1), BuildingBlock: OJICUG_clean_linker_0, # of connection points: 2
#     Edge 227, Type (0, 1), BuildingBlock: OJICUG_clean_linker_0, # of connection points: 2
#     Edge 228, Type (0, 1), BuildingBlock: OJICUG_clean_linker_0, # of connection points: 2
#     Edge 229, Type (0, 1), BuildingBlock: OJICUG_clean_linker_0, # of connection points: 2
#     Edge 230, Type (0, 1), BuildingBlock: OJICUG_clean_linker_0, # of connection points: 2
#     Edge 231, Type (0, 1), BuildingBlock: OJICUG_clean_linker_0, # of connection points: 2
#     Edge 232, Type (0, 1), BuildingBlock: OJICUG_clean_linker_0, # of connection points: 2
#     Edge 233, Type (0, 1), BuildingBlock: OJICUG_clean_linker_0, # of connection points: 2
#     Edge 234, Type (0, 1), BuildingBlock: OJICUG_clean_linker_0, # of connection points: 2
#     Edge 235, Type (0, 1), BuildingBlock: OJICUG_clean_linker_0, # of connection points: 2
#     Edge 236, Type (0, 1), BuildingBlock: OJICUG_clean_linker_0, # of connection points: 2
#     Edge 237, Type (0, 1), BuildingBlock: OJICUG_clean_linker_0, # of connection points: 2
#     Edge 238, Type (0, 1), BuildingBlock: OJICUG_clean_linker_0, # of connection points: 2
#     Edge 239, Type (0, 1), BuildingBlock: OJICUG_clean_linker_0, # of connection points: 2
#     Edge 240, Type (0, 1), BuildingBlock: OJICUG_clean_linker_0, # of connection points: 2
#     Edge 241, Type (0, 1), BuildingBlock: OJICUG_clean_linker_0, # of connection points: 2
#     Edge 242, Type (0, 1), BuildingBlock: OJICUG_clean_linker_0, # of connection points: 2
#     Edge 243, Type (0, 1), BuildingBlock: OJICUG_clean_linker_0, # of connection points: 2
#     Edge 244, Type (0, 1), BuildingBlock: OJICUG_clean_linker_0, # of connection points: 2
#     Edge 245, Type (0, 1), BuildingBlock: OJICUG_clean_linker_0, # of connection points: 2
#     Edge 246, Type (0, 1), BuildingBlock: OJICUG_clean_linker_0, # of connection points: 2
#     Edge 247, Type (0, 1), BuildingBlock: OJICUG_clean_linker_0, # of connection points: 2
#     Edge 248, Type (0, 1), BuildingBlock: OJICUG_clean_linker_0, # of connection points: 2
#     Edge 249, Type (0, 1), BuildingBlock: OJICUG_clean_linker_0, # of connection points: 2
#     Edge 250, Type (0, 1), BuildingBlock: OJICUG_clean_linker_0, # of connection points: 2
#     Edge 251, Type (0, 1), BuildingBlock: OJICUG_clean_linker_0, # of connection points: 2
#     Edge 252, Type (0, 1), BuildingBlock: OJICUG_clean_linker_0, # of connection points: 2
#     Edge 253, Type (0, 1), BuildingBlock: OJICUG_clean_linker_0, # of connection points: 2
#     Edge 254, Type (0, 1), BuildingBlock: OJICUG_clean_linker_0, # of connection points: 2
#     Edge 255, Type (0, 1), BuildingBlock: OJICUG_clean_linker_0, # of connection points: 2
#     Edge 256, Type (0, 1), BuildingBlock: OJICUG_clean_linker_0, # of connection points: 2
#     Edge 257, Type (0, 1), BuildingBlock: OJICUG_clean_linker_0, # of connection points: 2
#     Edge 258, Type (0, 1), BuildingBlock: OJICUG_clean_linker_0, # of connection points: 2
#     Edge 259, Type (0, 1), BuildingBlock: OJICUG_clean_linker_0, # of connection points: 2
#     Edge 260, Type (0, 1), BuildingBlock: OJICUG_clean_linker_0, # of connection points: 2
#     Edge 261, Type (0, 1), BuildingBlock: OJICUG_clean_linker_0, # of connection points: 2
#     Edge 262, Type (0, 1), BuildingBlock: OJICUG_clean_linker_0, # of connection points: 2
#     Edge 263, Type (0, 1), BuildingBlock: OJICUG_clean_linker_0, # of connection points: 2
#     Edge 264, Type (0, 1), BuildingBlock: OJICUG_clean_linker_0, # of connection points: 2
#     Edge 265, Type (0, 1), BuildingBlock: OJICUG_clean_linker_0, # of connection points: 2
#     Edge 266, Type (0, 1), BuildingBlock: OJICUG_clean_linker_0, # of connection points: 2
#     Edge 267, Type (0, 1), BuildingBlock: OJICUG_clean_linker_0, # of connection points: 2
#     Edge 268, Type (0, 1), BuildingBlock: OJICUG_clean_linker_0, # of connection points: 2
#     Edge 269, Type (0, 1), BuildingBlock: OJICUG_clean_linker_0, # of connection points: 2
#     Edge 270, Type (0, 1), BuildingBlock: OJICUG_clean_linker_0, # of connection points: 2
#     Edge 271, Type (0, 1), BuildingBlock: OJICUG_clean_linker_0, # of connection points: 2
#     Edge 272, Type (0, 1), BuildingBlock: OJICUG_clean_linker_0, # of connection points: 2
#     Edge 273, Type (0, 1), BuildingBlock: OJICUG_clean_linker_0, # of connection points: 2
#     Edge 274, Type (0, 1), BuildingBlock: OJICUG_clean_linker_0, # of connection points: 2
#     Edge 275, Type (0, 1), BuildingBlock: OJICUG_clean_linker_0, # of connection points: 2
#     Edge 276, Type (0, 1), BuildingBlock: OJICUG_clean_linker_0, # of connection points: 2
#     Edge 277, Type (0, 1), BuildingBlock: OJICUG_clean_linker_0, # of connection points: 2
#     Edge 278, Type (0, 1), BuildingBlock: OJICUG_clean_linker_0, # of connection points: 2
#     Edge 279, Type (0, 1), BuildingBlock: OJICUG_clean_linker_0, # of connection points: 2
#     Edge 280, Type (0, 1), BuildingBlock: OJICUG_clean_linker_0, # of connection points: 2
#     Edge 281, Type (0, 1), BuildingBlock: OJICUG_clean_linker_0, # of connection points: 2
#     Edge 282, Type (0, 1), BuildingBlock: OJICUG_clean_linker_0, # of connection points: 2
#     Edge 283, Type (0, 1), BuildingBlock: OJICUG_clean_linker_0, # of connection points: 2
#     Edge 284, Type (0, 1), BuildingBlock: OJICUG_clean_linker_0, # of connection points: 2
#     Edge 285, Type (0, 1), BuildingBlock: OJICUG_clean_linker_0, # of connection points: 2
#     Edge 286, Type (0, 1), BuildingBlock: OJICUG_clean_linker_0, # of connection points: 2
#     Edge 287, Type (0, 1), BuildingBlock: OJICUG_clean_linker_0, # of connection points: 2
#     Edge 288, Type (0, 1), BuildingBlock: OJICUG_clean_linker_0, # of connection points: 2
#     Edge 289, Type (0, 1), BuildingBlock: OJICUG_clean_linker_0, # of connection points: 2
#     Edge 290, Type (0, 1), BuildingBlock: OJICUG_clean_linker_0, # of connection points: 2
#     Edge 291, Type (0, 1), BuildingBlock: OJICUG_clean_linker_0, # of connection points: 2
#     Edge 292, Type (0, 1), BuildingBlock: OJICUG_clean_linker_0, # of connection points: 2
#     Edge 293, Type (0, 1), BuildingBlock: OJICUG_clean_linker_0, # of connection points: 2
#     Edge 294, Type (0, 1), BuildingBlock: OJICUG_clean_linker_0, # of connection points: 2
#     Edge 295, Type (0, 1), BuildingBlock: OJICUG_clean_linker_0, # of connection points: 2
#     Edge 296, Type (0, 1), BuildingBlock: OJICUG_clean_linker_0, # of connection points: 2
#     Edge 297, Type (0, 1), BuildingBlock: OJICUG_clean_linker_0, # of connection points: 2
#     Edge 298, Type (0, 1), BuildingBlock: OJICUG_clean_linker_0, # of connection points: 2
#     Edge 299, Type (0, 1), BuildingBlock: OJICUG_clean_linker_0, # of connection points: 2
#     Edge 300, Type (0, 1), BuildingBlock: OJICUG_clean_linker_0, # of connection points: 2
#     Edge 301, Type (0, 1), BuildingBlock: OJICUG_clean_linker_0, # of connection points: 2
#     Edge 302, Type (0, 1), BuildingBlock: OJICUG_clean_linker_0, # of connection points: 2
#     Edge 303, Type (0, 1), BuildingBlock: OJICUG_clean_linker_0, # of connection points: 2
#     Edge 304, Type (0, 1), BuildingBlock: OJICUG_clean_linker_0, # of connection points: 2
#     Edge 305, Type (0, 1), BuildingBlock: OJICUG_clean_linker_0, # of connection points: 2
#     Edge 306, Type (0, 1), BuildingBlock: OJICUG_clean_linker_0, # of connection points: 2
#     Edge 307, Type (0, 1), BuildingBlock: OJICUG_clean_linker_0, # of connection points: 2
#     Edge 308, Type (0, 1), BuildingBlock: OJICUG_clean_linker_0, # of connection points: 2
#     Edge 309, Type (0, 1), BuildingBlock: OJICUG_clean_linker_0, # of connection points: 2
#     Edge 310, Type (0, 1), BuildingBlock: OJICUG_clean_linker_0, # of connection points: 2
#     Edge 311, Type (0, 1), BuildingBlock: OJICUG_clean_linker_0, # of connection points: 2
#     Edge 312, Type (0, 1), BuildingBlock: OJICUG_clean_linker_0, # of connection points: 2
#     Edge 313, Type (0, 1), BuildingBlock: OJICUG_clean_linker_0, # of connection points: 2
#     Edge 314, Type (0, 1), BuildingBlock: OJICUG_clean_linker_0, # of connection points: 2
#     Edge 315, Type (0, 1), BuildingBlock: OJICUG_clean_linker_0, # of connection points: 2
#     Edge 316, Type (0, 1), BuildingBlock: OJICUG_clean_linker_0, # of connection points: 2
#     Edge 317, Type (0, 1), BuildingBlock: OJICUG_clean_linker_0, # of connection points: 2
#     Edge 318, Type (0, 1), BuildingBlock: OJICUG_clean_linker_0, # of connection points: 2
#     Edge 319, Type (0, 1), BuildingBlock: OJICUG_clean_linker_0, # of connection points: 2
#     Edge 320, Type (0, 1), BuildingBlock: OJICUG_clean_linker_0, # of connection points: 2
#     Edge 321, Type (0, 1), BuildingBlock: OJICUG_clean_linker_0, # of connection points: 2
#     Edge 322, Type (0, 1), BuildingBlock: OJICUG_clean_linker_0, # of connection points: 2
#     Edge 323, Type (0, 1), BuildingBlock: OJICUG_clean_linker_0, # of connection points: 2
#     Edge 324, Type (0, 1), BuildingBlock: OJICUG_clean_linker_0, # of connection points: 2
#     Edge 325, Type (0, 1), BuildingBlock: OJICUG_clean_linker_0, # of connection points: 2
#     Edge 326, Type (0, 1), BuildingBlock: OJICUG_clean_linker_0, # of connection points: 2
#     Edge 327, Type (0, 1), BuildingBlock: OJICUG_clean_linker_0, # of connection points: 2
#     Edge 328, Type (0, 1), BuildingBlock: OJICUG_clean_linker_0, # of connection points: 2
#     Edge 329, Type (0, 1), BuildingBlock: OJICUG_clean_linker_0, # of connection points: 2
#     Edge 330, Type (0, 1), BuildingBlock: OJICUG_clean_linker_0, # of connection points: 2
#     Edge 331, Type (0, 1), BuildingBlock: OJICUG_clean_linker_0, # of connection points: 2
#     Edge 332, Type (0, 1), BuildingBlock: OJICUG_clean_linker_0, # of connection points: 2
#     Edge 333, Type (0, 1), BuildingBlock: OJICUG_clean_linker_0, # of connection points: 2
#     Edge 334, Type (0, 1), BuildingBlock: OJICUG_clean_linker_0, # of connection points: 2
#     Edge 335, Type (0, 1), BuildingBlock: OJICUG_clean_linker_0, # of connection points: 2
#     Edge 336, Type (0, 1), BuildingBlock: OJICUG_clean_linker_0, # of connection points: 2
#     Edge 337, Type (0, 1), BuildingBlock: OJICUG_clean_linker_0, # of connection points: 2
#     Edge 338, Type (0, 1), BuildingBlock: OJICUG_clean_linker_0, # of connection points: 2
#     Edge 339, Type (0, 1), BuildingBlock: OJICUG_clean_linker_0, # of connection points: 2
#     Edge 340, Type (0, 1), BuildingBlock: OJICUG_clean_linker_0, # of connection points: 2
#     Edge 341, Type (0, 1), BuildingBlock: OJICUG_clean_linker_0, # of connection points: 2
#     Edge 342, Type (0, 1), BuildingBlock: OJICUG_clean_linker_0, # of connection points: 2
#     Edge 343, Type (0, 1), BuildingBlock: OJICUG_clean_linker_0, # of connection points: 2
#     Edge 344, Type (0, 1), BuildingBlock: OJICUG_clean_linker_0, # of connection points: 2
#     Edge 345, Type (0, 1), BuildingBlock: OJICUG_clean_linker_0, # of connection points: 2
#     Edge 346, Type (0, 1), BuildingBlock: OJICUG_clean_linker_0, # of connection points: 2
#     Edge 347, Type (0, 1), BuildingBlock: OJICUG_clean_linker_0, # of connection points: 2
#     Edge 348, Type (0, 1), BuildingBlock: OJICUG_clean_linker_0, # of connection points: 2
#     Edge 349, Type (0, 1), BuildingBlock: OJICUG_clean_linker_0, # of connection points: 2
#     Edge 350, Type (0, 1), BuildingBlock: OJICUG_clean_linker_0, # of connection points: 2
#     Edge 351, Type (0, 1), BuildingBlock: OJICUG_clean_linker_0, # of connection points: 2
#     Edge 352, Type (0, 1), BuildingBlock: OJICUG_clean_linker_0, # of connection points: 2
#     Edge 353, Type (0, 1), BuildingBlock: OJICUG_clean_linker_0, # of connection points: 2
#     Edge 354, Type (0, 1), BuildingBlock: OJICUG_clean_linker_0, # of connection points: 2
#     Edge 355, Type (0, 1), BuildingBlock: OJICUG_clean_linker_0, # of connection points: 2
#     Edge 356, Type (0, 1), BuildingBlock: OJICUG_clean_linker_0, # of connection points: 2
#     Edge 357, Type (0, 1), BuildingBlock: OJICUG_clean_linker_0, # of connection points: 2
#     Edge 358, Type (0, 1), BuildingBlock: OJICUG_clean_linker_0, # of connection points: 2
#     Edge 359, Type (0, 1), BuildingBlock: OJICUG_clean_linker_0, # of connection points: 2
#     Edge 360, Type (0, 1), BuildingBlock: OJICUG_clean_linker_0, # of connection points: 2
#     Edge 361, Type (0, 1), BuildingBlock: OJICUG_clean_linker_0, # of connection points: 2
#     Edge 362, Type (0, 1), BuildingBlock: OJICUG_clean_linker_0, # of connection points: 2
#     Edge 363, Type (0, 1), BuildingBlock: OJICUG_clean_linker_0, # of connection points: 2
#     Edge 364, Type (0, 1), BuildingBlock: OJICUG_clean_linker_0, # of connection points: 2
#     Edge 365, Type (0, 1), BuildingBlock: OJICUG_clean_linker_0, # of connection points: 2
#     Edge 366, Type (0, 1), BuildingBlock: OJICUG_clean_linker_0, # of connection points: 2
#     Edge 367, Type (0, 1), BuildingBlock: OJICUG_clean_linker_0, # of connection points: 2
#     Edge 368, Type (0, 1), BuildingBlock: OJICUG_clean_linker_0, # of connection points: 2
#     Edge 369, Type (0, 1), BuildingBlock: OJICUG_clean_linker_0, # of connection points: 2
#     Edge 370, Type (0, 1), BuildingBlock: OJICUG_clean_linker_0, # of connection points: 2
#     Edge 371, Type (0, 1), BuildingBlock: OJICUG_clean_linker_0, # of connection points: 2
#     Edge 372, Type (0, 1), BuildingBlock: OJICUG_clean_linker_0, # of connection points: 2
#     Edge 373, Type (0, 1), BuildingBlock: OJICUG_clean_linker_0, # of connection points: 2
#     Edge 374, Type (0, 1), BuildingBlock: OJICUG_clean_linker_0, # of connection points: 2
#     Edge 375, Type (0, 1), BuildingBlock: OJICUG_clean_linker_0, # of connection points: 2
#     Edge 376, Type (0, 1), BuildingBlock: OJICUG_clean_linker_0, # of connection points: 2
#     Edge 377, Type (0, 1), BuildingBlock: OJICUG_clean_linker_0, # of connection points: 2
#     Edge 378, Type (0, 1), BuildingBlock: OJICUG_clean_linker_0, # of connection points: 2
#     Edge 379, Type (0, 1), BuildingBlock: OJICUG_clean_linker_0, # of connection points: 2
#     Edge 380, Type (0, 1), BuildingBlock: OJICUG_clean_linker_0, # of connection points: 2
#     Edge 381, Type (0, 1), BuildingBlock: OJICUG_clean_linker_0, # of connection points: 2
#     Edge 382, Type (0, 1), BuildingBlock: OJICUG_clean_linker_0, # of connection points: 2
#     Edge 383, Type (0, 1), BuildingBlock: OJICUG_clean_linker_0, # of connection points: 2
#     Edge 384, Type (0, 1), BuildingBlock: OJICUG_clean_linker_0, # of connection points: 2
#     Edge 385, Type (0, 1), BuildingBlock: OJICUG_clean_linker_0, # of connection points: 2
#     Edge 386, Type (0, 1), BuildingBlock: OJICUG_clean_linker_0, # of connection points: 2
#     Edge 387, Type (0, 1), BuildingBlock: OJICUG_clean_linker_0, # of connection points: 2
#     Edge 388, Type (0, 1), BuildingBlock: OJICUG_clean_linker_0, # of connection points: 2
#     Edge 389, Type (0, 1), BuildingBlock: OJICUG_clean_linker_0, # of connection points: 2
#     Edge 390, Type (0, 1), BuildingBlock: OJICUG_clean_linker_0, # of connection points: 2
#     Edge 391, Type (0, 1), BuildingBlock: OJICUG_clean_linker_0, # of connection points: 2
#     Edge 392, Type (0, 1), BuildingBlock: OJICUG_clean_linker_0, # of connection points: 2
#     Edge 393, Type (0, 1), BuildingBlock: OJICUG_clean_linker_0, # of connection points: 2
#     Edge 394, Type (0, 1), BuildingBlock: OJICUG_clean_linker_0, # of connection points: 2
#     Edge 395, Type (0, 1), BuildingBlock: OJICUG_clean_linker_0, # of connection points: 2
#     Edge 396, Type (0, 1), BuildingBlock: OJICUG_clean_linker_0, # of connection points: 2
#     Edge 397, Type (0, 1), BuildingBlock: OJICUG_clean_linker_0, # of connection points: 2
#     Edge 398, Type (0, 1), BuildingBlock: OJICUG_clean_linker_0, # of connection points: 2
#     Edge 399, Type (0, 1), BuildingBlock: OJICUG_clean_linker_0, # of connection points: 2
#     Edge 400, Type (0, 1), BuildingBlock: OJICUG_clean_linker_0, # of connection points: 2
#     Edge 401, Type (0, 1), BuildingBlock: OJICUG_clean_linker_0, # of connection points: 2
#     Edge 402, Type (0, 1), BuildingBlock: OJICUG_clean_linker_0, # of connection points: 2
#     Edge 403, Type (0, 1), BuildingBlock: OJICUG_clean_linker_0, # of connection points: 2
#     Edge 404, Type (0, 1), BuildingBlock: OJICUG_clean_linker_0, # of connection points: 2
#     Edge 405, Type (0, 1), BuildingBlock: OJICUG_clean_linker_0, # of connection points: 2
#     Edge 406, Type (0, 1), BuildingBlock: OJICUG_clean_linker_0, # of connection points: 2
#     Edge 407, Type (0, 1), BuildingBlock: OJICUG_clean_linker_0, # of connection points: 2
#     Edge 408, Type (0, 1), BuildingBlock: OJICUG_clean_linker_0, # of connection points: 2
#     Edge 409, Type (0, 1), BuildingBlock: OJICUG_clean_linker_0, # of connection points: 2
#     Edge 410, Type (0, 1), BuildingBlock: OJICUG_clean_linker_0, # of connection points: 2
#     Edge 411, Type (0, 1), BuildingBlock: OJICUG_clean_linker_0, # of connection points: 2
#     Edge 412, Type (0, 1), BuildingBlock: OJICUG_clean_linker_0, # of connection points: 2
#     Edge 413, Type (0, 1), BuildingBlock: OJICUG_clean_linker_0, # of connection points: 2
#     Edge 414, Type (0, 1), BuildingBlock: OJICUG_clean_linker_0, # of connection points: 2
#     Edge 415, Type (0, 1), BuildingBlock: OJICUG_clean_linker_0, # of connection points: 2
#     Edge 416, Type (0, 1), BuildingBlock: OJICUG_clean_linker_0, # of connection points: 2
#     Edge 417, Type (0, 1), BuildingBlock: OJICUG_clean_linker_0, # of connection points: 2
#     Edge 418, Type (0, 1), BuildingBlock: OJICUG_clean_linker_0, # of connection points: 2
#     Edge 419, Type (0, 1), BuildingBlock: OJICUG_clean_linker_0, # of connection points: 2
#     Edge 420, Type (0, 1), BuildingBlock: OJICUG_clean_linker_0, # of connection points: 2
#     Edge 421, Type (0, 1), BuildingBlock: OJICUG_clean_linker_0, # of connection points: 2
#     Edge 422, Type (0, 1), BuildingBlock: OJICUG_clean_linker_0, # of connection points: 2
#     Edge 423, Type (0, 1), BuildingBlock: OJICUG_clean_linker_0, # of connection points: 2
#     Edge 424, Type (0, 1), BuildingBlock: OJICUG_clean_linker_0, # of connection points: 2
#     Edge 425, Type (0, 1), BuildingBlock: OJICUG_clean_linker_0, # of connection points: 2
#     Edge 426, Type (0, 1), BuildingBlock: OJICUG_clean_linker_0, # of connection points: 2
#     Edge 427, Type (0, 1), BuildingBlock: OJICUG_clean_linker_0, # of connection points: 2
#     Edge 428, Type (0, 1), BuildingBlock: OJICUG_clean_linker_0, # of connection points: 2
#     Edge 429, Type (0, 1), BuildingBlock: OJICUG_clean_linker_0, # of connection points: 2
#     Edge 430, Type (0, 1), BuildingBlock: OJICUG_clean_linker_0, # of connection points: 2
#     Edge 431, Type (0, 1), BuildingBlock: OJICUG_clean_linker_0, # of connection points: 2
#     Edge 432, Type (0, 1), BuildingBlock: OJICUG_clean_linker_0, # of connection points: 2
#     Edge 433, Type (0, 1), BuildingBlock: OJICUG_clean_linker_0, # of connection points: 2
#     Edge 434, Type (0, 1), BuildingBlock: OJICUG_clean_linker_0, # of connection points: 2
#     Edge 435, Type (0, 1), BuildingBlock: OJICUG_clean_linker_0, # of connection points: 2
#     Edge 436, Type (0, 1), BuildingBlock: OJICUG_clean_linker_0, # of connection points: 2
#     Edge 437, Type (0, 1), BuildingBlock: OJICUG_clean_linker_0, # of connection points: 2
#     Edge 438, Type (0, 1), BuildingBlock: OJICUG_clean_linker_0, # of connection points: 2
#     Edge 439, Type (0, 1), BuildingBlock: OJICUG_clean_linker_0, # of connection points: 2
#     Edge 440, Type (0, 1), BuildingBlock: OJICUG_clean_linker_0, # of connection points: 2
#     Edge 441, Type (0, 1), BuildingBlock: OJICUG_clean_linker_0, # of connection points: 2
#     Edge 442, Type (0, 1), BuildingBlock: OJICUG_clean_linker_0, # of connection points: 2
#     Edge 443, Type (0, 1), BuildingBlock: OJICUG_clean_linker_0, # of connection points: 2
#     Edge 444, Type (0, 1), BuildingBlock: OJICUG_clean_linker_0, # of connection points: 2
#     Edge 445, Type (0, 1), BuildingBlock: OJICUG_clean_linker_0, # of connection points: 2
#     Edge 446, Type (0, 1), BuildingBlock: OJICUG_clean_linker_0, # of connection points: 2
#     Edge 447, Type (0, 1), BuildingBlock: OJICUG_clean_linker_0, # of connection points: 2
#     Edge 448, Type (0, 1), BuildingBlock: OJICUG_clean_linker_0, # of connection points: 2
#     Edge 449, Type (0, 1), BuildingBlock: OJICUG_clean_linker_0, # of connection points: 2
#     Edge 450, Type (0, 1), BuildingBlock: OJICUG_clean_linker_0, # of connection points: 2
#     Edge 451, Type (0, 1), BuildingBlock: OJICUG_clean_linker_0, # of connection points: 2
#     Edge 452, Type (0, 1), BuildingBlock: OJICUG_clean_linker_0, # of connection points: 2
#     Edge 453, Type (0, 1), BuildingBlock: OJICUG_clean_linker_0, # of connection points: 2
#     Edge 454, Type (0, 1), BuildingBlock: OJICUG_clean_linker_0, # of connection points: 2
#     Edge 455, Type (0, 1), BuildingBlock: OJICUG_clean_linker_0, # of connection points: 2
#     Edge 456, Type (0, 1), BuildingBlock: OJICUG_clean_linker_0, # of connection points: 2
#     Edge 457, Type (0, 1), BuildingBlock: OJICUG_clean_linker_0, # of connection points: 2
#     Edge 458, Type (0, 1), BuildingBlock: OJICUG_clean_linker_0, # of connection points: 2
#     Edge 459, Type (0, 1), BuildingBlock: OJICUG_clean_linker_0, # of connection points: 2
#     Edge 460, Type (0, 1), BuildingBlock: OJICUG_clean_linker_0, # of connection points: 2
#     Edge 461, Type (0, 1), BuildingBlock: OJICUG_clean_linker_0, # of connection points: 2
#     Edge 462, Type (0, 1), BuildingBlock: OJICUG_clean_linker_0, # of connection points: 2
#     Edge 463, Type (0, 1), BuildingBlock: OJICUG_clean_linker_0, # of connection points: 2
#     Edge 464, Type (0, 1), BuildingBlock: OJICUG_clean_linker_0, # of connection points: 2
#     Edge 465, Type (0, 1), BuildingBlock: OJICUG_clean_linker_0, # of connection points: 2
#     Edge 466, Type (0, 1), BuildingBlock: OJICUG_clean_linker_0, # of connection points: 2
#     Edge 467, Type (0, 1), BuildingBlock: OJICUG_clean_linker_0, # of connection points: 2
#     Edge 468, Type (0, 1), BuildingBlock: OJICUG_clean_linker_0, # of connection points: 2
#     Edge 469, Type (0, 1), BuildingBlock: OJICUG_clean_linker_0, # of connection points: 2
#     Edge 470, Type (0, 1), BuildingBlock: OJICUG_clean_linker_0, # of connection points: 2
#     Edge 471, Type (0, 1), BuildingBlock: OJICUG_clean_linker_0, # of connection points: 2
#     Edge 472, Type (0, 1), BuildingBlock: OJICUG_clean_linker_0, # of connection points: 2
#     Edge 473, Type (0, 1), BuildingBlock: OJICUG_clean_linker_0, # of connection points: 2
#     Edge 474, Type (0, 1), BuildingBlock: OJICUG_clean_linker_0, # of connection points: 2
#     Edge 475, Type (0, 1), BuildingBlock: OJICUG_clean_linker_0, # of connection points: 2
#     Edge 476, Type (0, 1), BuildingBlock: OJICUG_clean_linker_0, # of connection points: 2
#     Edge 477, Type (0, 1), BuildingBlock: OJICUG_clean_linker_0, # of connection points: 2
#     Edge 478, Type (0, 1), BuildingBlock: OJICUG_clean_linker_0, # of connection points: 2
#     Edge 479, Type (0, 1), BuildingBlock: OJICUG_clean_linker_0, # of connection points: 2
# Relax obj value: 0.115
# Max RMSD: 0.095
# Mean RMSD: 0.093
data_MOF--net-ana-f--node1-WUSLED_clean_sbu_0--node2-KAKCAD_clean_linker_0--edge1-OJICUG_clean_linker_0
_symmetry_space_group_name_H-M    P1
_symmetry_Int_Tables_number       1
_symmetry_cell_setting            triclinic
loop_
_symmetry_equiv_pos_as_xyz
'x, y, z'
_cell_length_a     167.55142
_cell_length_b     167.70455
_cell_length_c     167.67452
_cell_angle_alpha  89.962522
_cell_angle_beta   89.988463
_cell_angle_gamma 90.000152
loop_
_atom_site_label
_atom_site_type_symbol
_atom_site_fract_x
_atom_site_fract_y
_atom_site_fract_z
_atom_type_partial_charge
C0 C 0.0846 0.11576 0.40923 0.0
C1 C 0.09197 0.11939 0.40759 0.0
C2 C 0.09807 0.11228 0.41873 0.0
C3 C 0.09865 0.11767 0.41231 0.0
C4 C 0.09082 0.10827 0.42 0.0
C5 C 0.08413 0.11003 0.4153 0.0
U6 U 0.07385 0.12837 0.39355 0.0
O7 O 0.06257 0.12641 0.38699 0.0
O8 O 0.0638 0.13665 0.3951 0.0
C9 C 0.05916 0.13273 0.39016 0.0
C10 C 0.07722 0.11856 0.40531 0.0
C11 C 0.05058 0.13236 0.39215 0.0
C12 C 0.03917 0.12829 0.40026 0.0
C13 C 0.0474 0.1279 0.39851 0.0
C14 C 0.03738 0.13768 0.38945 0.0
C15 C 0.03402 0.13322 0.39574 0.0
C16 C 0.04548 0.13717 0.38765 0.0
C17 C 0.08852 0.14039 0.37958 0.0
C18 C 0.08605 0.15056 0.36948 0.0
C19 C 0.09951 0.14817 0.37419 0.0
C20 C 0.09669 0.14216 0.37921 0.0
C21 C 0.09422 0.1525 0.36938 0.0
C22 C 0.08319 0.14452 0.37459 0.0
C23 C 0.08594 0.13458 0.38568 0.0
O24 O 0.07569 0.12617 0.40631 0.0
O25 O 0.07597 0.11613 0.39796 0.0
O26 O 0.08218 0.12812 0.38333 0.0
O27 O 0.08312 0.13756 0.39235 0.0
H28 H 0.09247 0.12381 0.40291 0.0
H29 H 0.10419 0.12077 0.41112 0.0
H30 H 0.09018 0.10413 0.42492 0.0
H31 H 0.07849 0.10718 0.41667 0.0
H32 H 0.03686 0.12473 0.40513 0.0
H33 H 0.05126 0.12418 0.40212 0.0
H34 H 0.03384 0.14179 0.38596 0.0
H35 H 0.04781 0.14074 0.38279 0.0
H36 H 0.08187 0.1539 0.36586 0.0
H37 H 0.10581 0.14961 0.37426 0.0
H38 H 0.10089 0.13907 0.38303 0.0
H39 H 0.07686 0.14325 0.3748 0.0
C40 C 0.11851 0.81833 0.69454 0.0
C41 C 0.11712 0.82553 0.69051 0.0
C42 C 0.12781 0.83194 0.69808 0.0
C43 C 0.12172 0.83229 0.69228 0.0
C44 C 0.12894 0.82475 0.70227 0.0
C45 C 0.12433 0.81804 0.70052 0.0
U46 U 0.10224 0.80675 0.6833 0.0
O47 O 0.10335 0.79583 0.67617 0.0
O48 O 0.09575 0.79584 0.68685 0.0
C49 C 0.09884 0.79162 0.68101 0.0
C50 C 0.1144 0.81091 0.69225 0.0
C51 C 0.10182 0.78357 0.68295 0.0
C52 C 0.11244 0.77447 0.68696 0.0
C53 C 0.10935 0.78225 0.68642 0.0
C54 C 0.10033 0.76933 0.68099 0.0
C55 C 0.10806 0.76796 0.68395 0.0
C56 C 0.09727 0.77704 0.68048 0.0
C57 C 0.08754 0.81994 0.67061 0.0
C58 C 0.0799 0.8172 0.65854 0.0
C59 C 0.07943 0.83032 0.66457 0.0
C60 C 0.08453 0.82774 0.67062 0.0
C61 C 0.07722 0.82515 0.6584 0.0
C62 C 0.08503 0.81459 0.66465 0.0
C63 C 0.09403 0.81809 0.67624 0.0
O64 O 0.10716 0.80989 0.69509 0.0
O65 O 0.11508 0.8089 0.68471 0.0
O66 O 0.10052 0.8149 0.67321 0.0
O67 O 0.0921 0.81518 0.68326 0.0
H68 H 0.11261 0.82588 0.68589 0.0
H69 H 0.12055 0.83775 0.68904 0.0
H70 H 0.13361 0.82419 0.70669 0.0
H71 H 0.12548 0.81252 0.70368 0.0
H72 H 0.11841 0.7736 0.68929 0.0
H73 H 0.11296 0.78724 0.68839 0.0
H74 H 0.09674 0.76444 0.67877 0.0
H75 H 0.09144 0.77793 0.67782 0.0
H76 H 0.07832 0.81315 0.65377 0.0
H77 H 0.07753 0.8365 0.66448 0.0
H78 H 0.08646 0.83198 0.67509 0.0
H79 H 0.08732 0.80855 0.66452 0.0
C80 C 0.43265 0.90123 0.9087 0.0
C81 C 0.42527 0.89762 0.90708 0.0
C82 C 0.4192 0.9048 0.91821 0.0
C83 C 0.41859 0.8994 0.91179 0.0
C84 C 0.42646 0.90879 0.91943 0.0
C85 C 0.43313 0.907 0.91473 0.0
U86 U 0.44432 0.88883 0.89322 0.0
O87 O 0.456 0.89124 0.88754 0.0
O88 O 0.45442 0.88071 0.89525 0.0
C89 C 0.45927 0.88483 0.89068 0.0
C90 C 0.44009 0.89839 0.90492 0.0
C91 C 0.46781 0.88491 0.89289 0.0
C92 C 0.47969 0.89023 0.89944 0.0
C93 C 0.47146 0.89075 0.8977 0.0
C94 C 0.48053 0.87812 0.89164 0.0
C95 C 0.48432 0.88392 0.89634 0.0
C96 C 0.47242 0.87863 0.88994 0.0
C97 C 0.431 0.87658 0.87814 0.0
C98 C 0.43378 0.86471 0.87023 0.0
C99 C 0.42047 0.87034 0.87034 0.0
C100 C 0.42308 0.87636 0.87546 0.0
C101 C 0.42573 0.86434 0.86781 0.0
C102 C 0.43642 0.87082 0.87535 0.0
C103 C 0.43298 0.88234 0.88451 0.0
O104 O 0.44159 0.89077 0.90587 0.0
O105 O 0.44162 0.90095 0.89766 0.0
O106 O 0.4366 0.889 0.88252 0.0
O107 O 0.43549 0.87935 0.8913 0.0
H108 H 0.42476 0.89318 0.90242 0.0
H109 H 0.41303 0.89631 0.91063 0.0
H110 H 0.42714 0.91294 0.92434 0.0
H111 H 0.43878 0.90983 0.91609 0.0
H112 H 0.48245 0.89479 0.90309 0.0
H113 H 0.46799 0.89566 0.90007 0.0
H114 H 0.48383 0.87309 0.88929 0.0
H115 H 0.46973 0.87403 0.88628 0.0
H116 H 0.43794 0.86014 0.86836 0.0
H117 H 0.41422 0.87014 0.8687 0.0
H118 H 0.41879 0.88069 0.87763 0.0
H119 H 0.44256 0.87086 0.87735 0.0
C120 C 0.39934 0.19958 0.19487 0.0
C121 C 0.40177 0.19188 0.19265 0.0
C122 C 0.3898 0.18628 0.19878 0.0
C123 C 0.39704 0.18526 0.19463 0.0
C124 C 0.38754 0.19399 0.20114 0.0
C125 C 0.39227 0.20056 0.19921 0.0
U126 U 0.41605 0.21066 0.18348 0.0
O127 O 0.41508 0.22154 0.17628 0.0
O128 O 0.42256 0.22154 0.18703 0.0
C129 C 0.41955 0.22575 0.18114 0.0
C130 C 0.40375 0.20676 0.1924 0.0
C131 C 0.41658 0.23382 0.183 0.0
C132 C 0.40618 0.24294 0.1875 0.0
C133 C 0.40931 0.23517 0.18699 0.0
C134 C 0.41773 0.248 0.18044 0.0
C135 C 0.41024 0.24939 0.18396 0.0
C136 C 0.42084 0.24031 0.17996 0.0
C137 C 0.43072 0.19734 0.17088 0.0
C138 C 0.43859 0.20013 0.15896 0.0
C139 C 0.43858 0.18687 0.1647 0.0
C140 C 0.4335 0.18946 0.17075 0.0
C141 C 0.44102 0.19211 0.15866 0.0
C142 C 0.43345 0.20275 0.16506 0.0
C143 C 0.42422 0.19924 0.17649 0.0
O144 O 0.41101 0.20761 0.19524 0.0
O145 O 0.40317 0.20862 0.18481 0.0
O146 O 0.41776 0.20246 0.17343 0.0
O147 O 0.42614 0.20215 0.18352 0.0
H148 H 0.40721 0.19101 0.18926 0.0
H149 H 0.39891 0.17938 0.1927 0.0
H150 H 0.38206 0.19495 0.20443 0.0
H151 H 0.39032 0.20646 0.20098 0.0
H152 H 0.4004 0.24384 0.19027 0.0
H153 H 0.40594 0.23022 0.18939 0.0
H154 H 0.42107 0.25286 0.17779 0.0
H155 H 0.42646 0.2394 0.17688 0.0
H156 H 0.44035 0.20424 0.15429 0.0
H157 H 0.4403 0.18064 0.1645 0.0
H158 H 0.43141 0.18519 0.17512 0.0
H159 H 0.43134 0.20885 0.16503 0.0
C160 C 0.08417 0.90085 0.10753 0.0
C161 C 0.09177 0.89773 0.1092 0.0
C162 C 0.09745 0.90523 0.09804 0.0
C163 C 0.09835 0.8999 0.1045 0.0
C164 C 0.08988 0.90863 0.09671 0.0
C165 C 0.08332 0.90643 0.10138 0.0
U166 U 0.07369 0.88851 0.12375 0.0
O167 O 0.06252 0.89085 0.13038 0.0
O168 O 0.06351 0.88033 0.12263 0.0
C169 C 0.05895 0.88452 0.12743 0.0
C170 C 0.07696 0.89791 0.11164 0.0
C171 C 0.05044 0.88515 0.12524 0.0
C172 C 0.03962 0.88818 0.11596 0.0
C173 C 0.04773 0.88873 0.11814 0.0
C174 C 0.03694 0.88072 0.12804 0.0
C175 C 0.03421 0.88393 0.1208 0.0
C176 C 0.04494 0.88134 0.13022 0.0
C177 C 0.08778 0.8769 0.13834 0.0
C178 C 0.08529 0.86492 0.14617 0.0
C179 C 0.09832 0.87117 0.14649 0.0
C180 C 0.0956 0.87709 0.1413 0.0
C181 C 0.09327 0.86489 0.14884 0.0
C182 C 0.08256 0.87089 0.14096 0.0
C183 C 0.08569 0.88248 0.13188 0.0
O184 O 0.07561 0.89023 0.11092 0.0
O185 O 0.07571 0.90059 0.11891 0.0
O186 O 0.08214 0.88919 0.13385 0.0
O187 O 0.08283 0.87928 0.12533 0.0
H188 H 0.09255 0.89341 0.11394 0.0
H189 H 0.10406 0.89711 0.1057 0.0
H190 H 0.08897 0.91289 0.09195 0.0
H191 H 0.07752 0.90894 0.10003 0.0
H192 H 0.03767 0.89074 0.11036 0.0
H193 H 0.0519 0.89172 0.1142 0.0
H194 H 0.0329 0.87754 0.13196 0.0
H195 H 0.04689 0.87855 0.13572 0.0
H196 H 0.08123 0.86022 0.14795 0.0
H197 H 0.10452 0.87129 0.14832 0.0
H198 H 0.09973 0.88164 0.1393 0.0
H199 H 0.07649 0.87064 0.13875 0.0
C200 C 0.39946 0.81781 0.32255 0.0
C201 C 0.40135 0.82535 0.32569 0.0
C202 C 0.38997 0.83115 0.31875 0.0
C203 C 0.39663 0.832 0.32377 0.0
C204 C 0.38824 0.82366 0.31547 0.0
C205 C 0.39298 0.81706 0.31733 0.0
U206 U 0.416 0.8065 0.33395 0.0
O207 O 0.41494 0.79564 0.3412 0.0
O208 O 0.42242 0.79554 0.33045 0.0
C209 C 0.41939 0.79137 0.33637 0.0
C210 C 0.40375 0.81054 0.32501 0.0
C211 C 0.41633 0.78333 0.33452 0.0
C212 C 0.40606 0.77439 0.32939 0.0
C213 C 0.4093 0.7821 0.33009 0.0
C214 C 0.41697 0.76912 0.33729 0.0
C215 C 0.4098 0.76789 0.33315 0.0
C216 C 0.42021 0.77676 0.33794 0.0
C217 C 0.43073 0.81981 0.3465 0.0
C218 C 0.43864 0.81704 0.3584 0.0
C219 C 0.43847 0.83034 0.35274 0.0
C220 C 0.43343 0.82772 0.34667 0.0
C221 C 0.44096 0.82508 0.35875 0.0
C222 C 0.43353 0.8144 0.35228 0.0
C223 C 0.42424 0.81788 0.34089 0.0
O224 O 0.411 0.80957 0.32216 0.0
O225 O 0.40314 0.80867 0.33259 0.0
O226 O 0.41776 0.81472 0.34396 0.0
O227 O 0.42616 0.81491 0.33389 0.0
H228 H 0.40632 0.82605 0.32976 0.0
H229 H 0.39802 0.83774 0.32639 0.0
H230 H 0.38313 0.8229 0.31159 0.0
H231 H 0.39143 0.81129 0.31486 0.0
H232 H 0.40049 0.77355 0.32624 0.0
H233 H 0.40619 0.7871 0.32744 0.0
H234 H 0.4199 0.7642 0.34027 0.0
H235 H 0.4256 0.7776 0.3414 0.0
H236 H 0.44044 0.81292 0.36304 0.0
H237 H 0.44011 0.83658 0.35298 0.0
H238 H 0.43128 0.832 0.34233 0.0
H239 H 0.43148 0.80827 0.35227 0.0
C240 C 0.4338 0.11657 0.60834 0.0
C241 C 0.42636 0.12001 0.61005 0.0
C242 C 0.42037 0.11285 0.59889 0.0
C243 C 0.4197 0.11817 0.60536 0.0
C244 C 0.42771 0.10902 0.59755 0.0
C245 C 0.43438 0.1109 0.60222 0.0
U246 U 0.44425 0.12912 0.62421 0.0
O247 O 0.45549 0.1272 0.63079 0.0
O248 O 0.45419 0.13756 0.62284 0.0
C249 C 0.45887 0.13357 0.62769 0.0
C250 C 0.44111 0.11948 0.61226 0.0
C251 C 0.46736 0.13304 0.62543 0.0
C252 C 0.4783 0.12891 0.61677 0.0
C253 C 0.47013 0.12878 0.61875 0.0
C254 C 0.48085 0.13752 0.62808 0.0
C255 C 0.48376 0.13329 0.62145 0.0
C256 C 0.47278 0.13737 0.63004 0.0
C257 C 0.43022 0.14061 0.63882 0.0
C258 C 0.43325 0.15228 0.6469 0.0
C259 C 0.41984 0.14687 0.64679 0.0
C260 C 0.42231 0.14089 0.64155 0.0
C261 C 0.42522 0.15275 0.64935 0.0
C262 C 0.43575 0.14622 0.6417 0.0
C263 C 0.43219 0.13496 0.63238 0.0
O264 O 0.44242 0.12715 0.61141 0.0
O265 O 0.44243 0.11693 0.61956 0.0
O266 O 0.43591 0.12836 0.63439 0.0
O267 O 0.43486 0.13812 0.62573 0.0
H268 H 0.42578 0.12437 0.61477 0.0
H269 H 0.41409 0.12113 0.6066 0.0
H270 H 0.42842 0.10495 0.59259 0.0
H271 H 0.44008 0.1082 0.60081 0.0
H272 H 0.48035 0.12558 0.61163 0.0
H273 H 0.466 0.12543 0.61508 0.0
H274 H 0.4848 0.14113 0.6317 0.0
H275 H 0.47075 0.14077 0.63515 0.0
H276 H 0.4375 0.15677 0.64879 0.0
H277 H 0.4136 0.14718 0.64847 0.0
H278 H 0.41795 0.13667 0.63934 0.0
H279 H 0.44188 0.1461 0.63966 0.0
C280 C 0.11863 0.19902 0.82296 0.0
C281 C 0.11661 0.19161 0.82629 0.0
C282 C 0.1279 0.18535 0.8195 0.0
C283 C 0.12119 0.18482 0.82456 0.0
C284 C 0.12972 0.19278 0.81602 0.0
C285 C 0.12512 0.19951 0.81773 0.0
U286 U 0.1022 0.21053 0.83408 0.0
O287 O 0.10321 0.22144 0.84122 0.0
O288 O 0.09574 0.22142 0.83046 0.0
C289 C 0.09874 0.22564 0.83635 0.0
C290 C 0.11446 0.2064 0.82522 0.0
C291 C 0.1017 0.23371 0.83448 0.0
C292 C 0.11206 0.24284 0.82986 0.0
C293 C 0.10891 0.23507 0.8304 0.0
C294 C 0.10062 0.24788 0.83711 0.0
C295 C 0.10806 0.24927 0.83349 0.0
C296 C 0.0975 0.24019 0.83761 0.0
C297 C 0.08751 0.19725 0.84674 0.0
C298 C 0.0797 0.19999 0.8587 0.0
C299 C 0.07973 0.18673 0.85296 0.0
C300 C 0.08476 0.18936 0.84688 0.0
C301 C 0.07731 0.19196 0.85901 0.0
C302 C 0.08479 0.20264 0.85257 0.0
C303 C 0.094 0.19916 0.84112 0.0
O304 O 0.10722 0.20737 0.82234 0.0
O305 O 0.11506 0.2084 0.83277 0.0
O306 O 0.10046 0.20238 0.84418 0.0
O307 O 0.09207 0.20207 0.83409 0.0
H308 H 0.1116 0.19111 0.83035 0.0
H309 H 0.11952 0.17919 0.82725 0.0
H310 H 0.13488 0.19348 0.81221 0.0
H311 H 0.12679 0.20519 0.81512 0.0
H312 H 0.11779 0.24374 0.82702 0.0
H313 H 0.11225 0.23012 0.82792 0.0
H314 H 0.09734 0.25273 0.83985 0.0
H315 H 0.09193 0.23927 0.84076 0.0
H316 H 0.07795 0.20408 0.86338 0.0
H317 H 0.07804 0.1805 0.85317 0.0
H318 H 0.08686 0.18509 0.8425 0.0
H319 H 0.08688 0.20875 0.85259 0.0
C320 C 0.40973 0.08394 0.11652 0.0
C321 C 0.40815 0.09132 0.12015 0.0
C322 C 0.41925 0.09736 0.11293 0.0
C323 C 0.41288 0.09797 0.11838 0.0
C324 C 0.42047 0.09011 0.10893 0.0
C325 C 0.41577 0.08344 0.11075 0.0
U326 U 0.39385 0.07327 0.12899 0.0
O327 O 0.38704 0.06222 0.12671 0.0
O328 O 0.39513 0.06301 0.13701 0.0
C329 C 0.39019 0.05854 0.13288 0.0
C330 C 0.40572 0.07661 0.11928 0.0
C331 C 0.3924 0.05007 0.13199 0.0
C332 C 0.40211 0.03946 0.12976 0.0
C333 C 0.39991 0.04755 0.1292 0.0
C334 C 0.38922 0.03642 0.13557 0.0
C335 C 0.39686 0.03388 0.13322 0.0
C336 C 0.38703 0.0444 0.13495 0.0
C337 C 0.37984 0.08785 0.141 0.0
C338 C 0.36974 0.08541 0.15119 0.0
C339 C 0.37359 0.09893 0.14789 0.0
C340 C 0.37891 0.09604 0.1422 0.0
C341 C 0.36893 0.0937 0.15252 0.0
C342 C 0.37518 0.08251 0.14548 0.0
C343 C 0.38608 0.08532 0.13534 0.0
O344 O 0.40666 0.07501 0.12689 0.0
O345 O 0.39837 0.07547 0.1168 0.0
O346 O 0.38382 0.08181 0.12871 0.0
O347 O 0.39262 0.08229 0.13842 0.0
H348 H 0.40349 0.09184 0.12461 0.0
H349 H 0.41176 0.10351 0.12149 0.0
H350 H 0.42535 0.08945 0.10475 0.0
H351 H 0.41708 0.0778 0.10789 0.0
H352 H 0.40802 0.03764 0.12789 0.0
H353 H 0.40415 0.05185 0.12691 0.0
H354 H 0.38503 0.03224 0.13816 0.0
H355 H 0.38121 0.04622 0.13713 0.0
H356 H 0.36623 0.08119 0.15459 0.0
H357 H 0.37337 0.10531 0.14882 0.0
H358 H 0.3825 0.10026 0.13886 0.0
H359 H 0.37582 0.07613 0.14464 0.0
C360 C 0.19932 0.19468 0.39931 0.0
C361 C 0.19214 0.1906 0.4007 0.0
C362 C 0.18568 0.19808 0.38997 0.0
C363 C 0.18537 0.1923 0.39608 0.0
C364 C 0.19284 0.20233 0.38885 0.0
C365 C 0.19957 0.20065 0.39348 0.0
U366 U 0.21094 0.18351 0.41561 0.0
O367 O 0.22187 0.17639 0.41453 0.0
O368 O 0.22183 0.18709 0.42209 0.0
C369 C 0.22607 0.18125 0.41902 0.0
C370 C 0.20676 0.19243 0.40342 0.0
C371 C 0.23411 0.1832 0.41604 0.0
C372 C 0.24321 0.18714 0.40538 0.0
C373 C 0.23542 0.18661 0.40848 0.0
C374 C 0.24837 0.18128 0.41754 0.0
C375 C 0.24972 0.18418 0.40978 0.0
C376 C 0.24066 0.18078 0.42061 0.0
C377 C 0.19768 0.17083 0.43029 0.0
C378 C 0.20051 0.15897 0.43821 0.0
C379 C 0.18718 0.16456 0.43804 0.0
C380 C 0.18977 0.17063 0.43298 0.0
C381 C 0.19246 0.15859 0.44054 0.0
C382 C 0.20313 0.16509 0.43309 0.0
C383 C 0.19958 0.17646 0.42381 0.0
O384 O 0.20776 0.19528 0.41065 0.0
O385 O 0.2088 0.1849 0.40277 0.0
O386 O 0.2028 0.17341 0.41734 0.0
O387 O 0.20249 0.18348 0.42574 0.0
H388 H 0.19182 0.18598 0.40521 0.0
H389 H 0.17993 0.18901 0.39724 0.0
H390 H 0.19338 0.20674 0.38417 0.0
H391 H 0.20507 0.20385 0.39232 0.0
H392 H 0.24407 0.18942 0.3994 0.0
H393 H 0.23042 0.18853 0.40486 0.0
H394 H 0.25328 0.1791 0.42114 0.0
H395 H 0.23977 0.17816 0.42645 0.0
H396 H 0.20465 0.15435 0.44003 0.0
H397 H 0.18093 0.1643 0.43968 0.0
H398 H 0.18547 0.17496 0.43083 0.0
H399 H 0.20926 0.16512 0.43104 0.0
C400 C 0.10848 0.93406 0.61629 0.0
C401 C 0.11058 0.92659 0.61944 0.0
C402 C 0.09923 0.92042 0.6127 0.0
C403 C 0.106 0.91983 0.61766 0.0
C404 C 0.09745 0.92783 0.6092 0.0
C405 C 0.10202 0.93459 0.611 0.0
U406 U 0.1245 0.94479 0.6285 0.0
O407 O 0.13099 0.95604 0.62623 0.0
O408 O 0.12331 0.95483 0.63681 0.0
C409 C 0.12804 0.95948 0.63264 0.0
C410 C 0.11243 0.94142 0.61905 0.0
C411 C 0.12573 0.96796 0.63216 0.0
C412 C 0.11708 0.97889 0.62792 0.0
C413 C 0.11942 0.97082 0.62741 0.0
C414 C 0.12742 0.9812 0.63773 0.0
C415 C 0.12095 0.98409 0.63327 0.0
C416 C 0.12978 0.97326 0.63717 0.0
C417 C 0.13883 0.93009 0.64004 0.0
C418 C 0.14694 0.93173 0.652 0.0
C419 C 0.14577 0.91876 0.64577 0.0
C420 C 0.14094 0.92202 0.63985 0.0
C421 C 0.14859 0.92348 0.6521 0.0
C422 C 0.14203 0.93501 0.64603 0.0
C423 C 0.13253 0.93272 0.63449 0.0
O424 O 0.11166 0.94289 0.6267 0.0
O425 O 0.11971 0.94272 0.6164 0.0
O426 O 0.13466 0.93638 0.62789 0.0
O427 O 0.12599 0.93561 0.63771 0.0
H428 H 0.11557 0.92604 0.62352 0.0
H429 H 0.1076 0.91419 0.62036 0.0
H430 H 0.09226 0.92852 0.60541 0.0
H431 H 0.10031 0.9403 0.60852 0.0
H432 H 0.11208 0.98097 0.62439 0.0
H433 H 0.11621 0.96681 0.6235 0.0
H434 H 0.1306 0.98509 0.6418 0.0
H435 H 0.13466 0.97119 0.64087 0.0
H436 H 0.14905 0.93553 0.65677 0.0
H437 H 0.14707 0.91244 0.64554 0.0
H438 H 0.13854 0.91813 0.63528 0.0
H439 H 0.14047 0.94128 0.64627 0.0
C440 C 0.31812 0.8223 0.89928 0.0
C441 C 0.32538 0.82626 0.9006 0.0
C442 C 0.33168 0.81847 0.89003 0.0
C443 C 0.33212 0.82435 0.89601 0.0
C444 C 0.32445 0.81434 0.88897 0.0
C445 C 0.31774 0.81625 0.89354 0.0
U446 U 0.30673 0.8336 0.91564 0.0
O447 O 0.29588 0.84087 0.91467 0.0
O448 O 0.29582 0.83012 0.92216 0.0
C449 C 0.29165 0.83604 0.91916 0.0
C450 C 0.31073 0.82467 0.90341 0.0
C451 C 0.28358 0.83422 0.91619 0.0
C452 C 0.27448 0.82927 0.90598 0.0
C453 C 0.28223 0.82985 0.90916 0.0
C454 C 0.26943 0.83713 0.917 0.0
C455 C 0.26807 0.83317 0.90975 0.0
C456 C 0.2771 0.83765 0.92017 0.0
C457 C 0.32005 0.8461 0.9303 0.0
C458 C 0.31718 0.85798 0.93815 0.0
C459 C 0.33052 0.85237 0.93807 0.0
C460 C 0.32795 0.84629 0.93303 0.0
C461 C 0.32522 0.85836 0.9405 0.0
C462 C 0.31459 0.85185 0.93305 0.0
C463 C 0.31818 0.84049 0.92381 0.0
O464 O 0.3097 0.82181 0.91064 0.0
O465 O 0.30882 0.83225 0.90279 0.0
O466 O 0.31501 0.84358 0.91734 0.0
O467 O 0.31521 0.83349 0.92573 0.0
H468 H 0.32578 0.83095 0.90502 0.0
H469 H 0.33757 0.82768 0.89696 0.0
H470 H 0.32394 0.80967 0.88453 0.0
H471 H 0.3122 0.8131 0.89247 0.0
H472 H 0.27358 0.82618 0.90038 0.0
H473 H 0.28718 0.82716 0.906 0.0
H474 H 0.26458 0.8401 0.92008 0.0
H475 H 0.27802 0.84104 0.9256 0.0
H476 H 0.31304 0.86261 0.93991 0.0
H477 H 0.33676 0.85264 0.93974 0.0
H478 H 0.33226 0.84196 0.93092 0.0
H479 H 0.30848 0.85182 0.93096 0.0
C480 C 0.40968 0.93372 0.401 0.0
C481 C 0.4073 0.92617 0.39828 0.0
C482 C 0.41897 0.92009 0.40455 0.0
C483 C 0.4119 0.91941 0.40005 0.0
C484 C 0.42108 0.92762 0.4076 0.0
C485 C 0.41649 0.93436 0.40581 0.0
U486 U 0.39374 0.94442 0.38859 0.0
O487 O 0.38697 0.9555 0.39088 0.0
O488 O 0.39505 0.95468 0.38058 0.0
C489 C 0.39013 0.95917 0.3847 0.0
C490 C 0.40563 0.94104 0.39827 0.0
C491 C 0.39235 0.96764 0.38557 0.0
C492 C 0.40202 0.97825 0.388 0.0
C493 C 0.39979 0.97017 0.38854 0.0
C494 C 0.38931 0.98128 0.38182 0.0
C495 C 0.39688 0.98382 0.38436 0.0
C496 C 0.38708 0.9733 0.38244 0.0
C497 C 0.37998 0.92958 0.37644 0.0
C498 C 0.36892 0.93143 0.36717 0.0
C499 C 0.37491 0.9184 0.36881 0.0
C500 C 0.38018 0.9215 0.37441 0.0
C501 C 0.36917 0.92327 0.36508 0.0
C502 C 0.3743 0.93457 0.37282 0.0
C503 C 0.38606 0.93236 0.38216 0.0
O504 O 0.40656 0.94266 0.39067 0.0
O505 O 0.39826 0.94214 0.40076 0.0
O506 O 0.38367 0.93592 0.38873 0.0
O507 O 0.39263 0.93539 0.37916 0.0
H508 H 0.40205 0.92555 0.39455 0.0
H509 H 0.41004 0.91369 0.3977 0.0
H510 H 0.42652 0.92838 0.41101 0.0
H511 H 0.41844 0.94014 0.40794 0.0
H512 H 0.40788 0.98007 0.39002 0.0
H513 H 0.40396 0.96588 0.39098 0.0
H514 H 0.38519 0.98546 0.3791 0.0
H515 H 0.38132 0.97149 0.38011 0.0
H516 H 0.36459 0.93537 0.36445 0.0
H517 H 0.37552 0.91217 0.36724 0.0
H518 H 0.38456 0.91756 0.37708 0.0
H519 H 0.37407 0.94085 0.3743 0.0
C520 C 0.31814 0.19488 0.6183 0.0
C521 C 0.3257 0.19222 0.61586 0.0
C522 C 0.33177 0.19836 0.6276 0.0
C523 C 0.33246 0.19396 0.62046 0.0
C524 C 0.32419 0.20118 0.62986 0.0
C525 C 0.31746 0.19945 0.62525 0.0
U526 U 0.30685 0.18363 0.6018 0.0
O527 O 0.29592 0.1765 0.60279 0.0
O528 O 0.296 0.1872 0.59521 0.0
C529 C 0.29173 0.18138 0.5983 0.0
C530 C 0.31082 0.19257 0.61404 0.0
C531 C 0.28373 0.18342 0.60134 0.0
C532 C 0.27464 0.18654 0.61226 0.0
C533 C 0.28244 0.186 0.60921 0.0
C534 C 0.26941 0.18242 0.59944 0.0
C535 C 0.26806 0.18444 0.60747 0.0
C536 C 0.27715 0.1819 0.59643 0.0
C537 C 0.3202 0.17095 0.58723 0.0
C538 C 0.31748 0.15899 0.57945 0.0
C539 C 0.33073 0.16477 0.57943 0.0
C540 C 0.32809 0.17085 0.58446 0.0
C541 C 0.32551 0.15869 0.57705 0.0
C542 C 0.31482 0.16511 0.58453 0.0
C543 C 0.31828 0.17658 0.5937 0.0
O544 O 0.30994 0.1954 0.60678 0.0
O545 O 0.30885 0.18501 0.61467 0.0
O546 O 0.31502 0.17354 0.60015 0.0
O547 O 0.31539 0.18361 0.59175 0.0
H548 H 0.32634 0.18868 0.6105 0.0
H549 H 0.33822 0.1918 0.61847 0.0
H550 H 0.32338 0.20447 0.63535 0.0
H551 H 0.31166 0.20152 0.62724 0.0
H552 H 0.27379 0.18813 0.61846 0.0
H553 H 0.28745 0.18724 0.6131 0.0
H554 H 0.26447 0.18093 0.59555 0.0
H555 H 0.27802 0.17994 0.59033 0.0
H556 H 0.31339 0.15429 0.57772 0.0
H557 H 0.33697 0.16458 0.57774 0.0
H558 H 0.33235 0.17525 0.58653 0.0
H559 H 0.30871 0.16507 0.58664 0.0
C560 C 0.10862 0.0834 0.90131 0.0
C561 C 0.11042 0.09081 0.89783 0.0
C562 C 0.09924 0.09694 0.90486 0.0
C563 C 0.10577 0.09751 0.89959 0.0
C564 C 0.09779 0.08963 0.90871 0.0
C565 C 0.10243 0.08291 0.90691 0.0
U566 U 0.12447 0.07279 0.88885 0.0
O567 O 0.13107 0.06156 0.89091 0.0
O568 O 0.12317 0.06277 0.88051 0.0
C569 C 0.12801 0.05812 0.88456 0.0
C570 C 0.11256 0.07604 0.89852 0.0
C571 C 0.12577 0.04962 0.88506 0.0
C572 C 0.11698 0.03868 0.88899 0.0
C573 C 0.11925 0.04677 0.88952 0.0
C574 C 0.12781 0.03632 0.87972 0.0
C575 C 0.12113 0.03344 0.88389 0.0
C576 C 0.13009 0.04429 0.88031 0.0
C577 C 0.13852 0.08741 0.87703 0.0
C578 C 0.14758 0.0848 0.86597 0.0
C579 C 0.14501 0.0984 0.87013 0.0
C580 C 0.13992 0.0956 0.8761 0.0
C581 C 0.14876 0.09304 0.86492 0.0
C582 C 0.1425 0.08198 0.87204 0.0
C583 C 0.13231 0.08496 0.88276 0.0
O584 O 0.11165 0.07455 0.89089 0.0
O585 O 0.11989 0.0748 0.90104 0.0
O586 O 0.13458 0.08124 0.88928 0.0
O587 O 0.12571 0.08208 0.87969 0.0
H588 H 0.1152 0.09132 0.89351 0.0
H589 H 0.1071 0.10309 0.89662 0.0
H590 H 0.09279 0.08898 0.91275 0.0
H591 H 0.10095 0.07725 0.90965 0.0
H592 H 0.11183 0.03661 0.8923 0.0
H593 H 0.11583 0.0508 0.89323 0.0
H594 H 0.13122 0.03242 0.87587 0.0
H595 H 0.13514 0.04635 0.87683 0.0
H596 H 0.1504 0.08058 0.86198 0.0
H597 H 0.14574 0.10477 0.86934 0.0
H598 H 0.13684 0.09988 0.87984 0.0
H599 H 0.14148 0.07564 0.87265 0.0
C600 C 0.19955 0.82263 0.11832 0.0
C601 C 0.19212 0.82591 0.11626 0.0
C602 C 0.18589 0.81915 0.12757 0.0
C603 C 0.18534 0.82416 0.12084 0.0
C604 C 0.19334 0.81573 0.12943 0.0
C605 C 0.20007 0.81745 0.12484 0.0
U606 U 0.211 0.83378 0.10187 0.0
O607 O 0.22194 0.84091 0.10286 0.0
O608 O 0.22187 0.83018 0.09535 0.0
C609 C 0.22612 0.83602 0.09839 0.0
C610 C 0.20693 0.82491 0.11413 0.0
C611 C 0.23414 0.83403 0.1014 0.0
C612 C 0.24321 0.8304 0.11217 0.0
C613 C 0.23542 0.83093 0.10909 0.0
C614 C 0.24843 0.83558 0.09974 0.0
C615 C 0.24977 0.83302 0.10762 0.0
C616 C 0.24071 0.8361 0.09669 0.0
C617 C 0.19773 0.8464 0.08719 0.0
C618 C 0.20054 0.85831 0.07934 0.0
C619 C 0.18725 0.85262 0.07936 0.0
C620 C 0.18985 0.84655 0.08442 0.0
C621 C 0.19251 0.85865 0.07694 0.0
C622 C 0.20316 0.8522 0.08446 0.0
C623 C 0.19962 0.8408 0.0937 0.0
O624 O 0.20788 0.82204 0.1069 0.0
O625 O 0.20892 0.83246 0.11473 0.0
O626 O 0.20284 0.84387 0.10014 0.0
O627 O 0.20251 0.83377 0.09179 0.0
H628 H 0.1916 0.82993 0.11122 0.0
H629 H 0.17969 0.8268 0.11914 0.0
H630 H 0.19406 0.81195 0.13461 0.0
H631 H 0.20577 0.8149 0.12653 0.0
H632 H 0.24405 0.82838 0.11825 0.0
H633 H 0.23041 0.82927 0.11282 0.0
H634 H 0.25336 0.8375 0.09602 0.0
H635 H 0.23985 0.83847 0.09073 0.0
H636 H 0.20466 0.86297 0.07758 0.0
H637 H 0.18102 0.85284 0.07767 0.0
H638 H 0.18556 0.84219 0.08652 0.0
H639 H 0.20927 0.85221 0.08656 0.0
C640 C 0.11711 0.40928 0.08376 0.0
C641 C 0.12025 0.40723 0.09125 0.0
C642 C 0.11347 0.4186 0.09733 0.0
C643 C 0.11844 0.41185 0.09797 0.0
C644 C 0.10996 0.42032 0.08991 0.0
C645 C 0.11179 0.41571 0.08319 0.0
U646 U 0.12926 0.39321 0.07299 0.0
O647 O 0.12705 0.38682 0.06169 0.0
O648 O 0.13761 0.39452 0.06297 0.0
C649 C 0.13346 0.3898 0.05828 0.0
C650 C 0.11993 0.40534 0.07642 0.0
C651 C 0.13296 0.39209 0.04981 0.0
C652 C 0.12924 0.40098 0.0389 0.0
C653 C 0.12902 0.39898 0.04706 0.0
C654 C 0.13727 0.38927 0.03629 0.0
C655 C 0.13337 0.39612 0.03341 0.0
C656 C 0.13703 0.38728 0.04435 0.0
C657 C 0.1404 0.37832 0.08741 0.0
C658 C 0.15258 0.3705 0.08587 0.0
C659 C 0.14573 0.37081 0.09858 0.0
C660 C 0.13985 0.3757 0.09531 0.0
C661 C 0.15235 0.36843 0.09401 0.0
C662 C 0.14665 0.37546 0.08258 0.0
C663 C 0.135 0.38481 0.08494 0.0
O664 O 0.12762 0.40602 0.07507 0.0
O665 O 0.1172 0.39813 0.07502 0.0
O666 O 0.12836 0.38293 0.08122 0.0
O667 O 0.13837 0.39134 0.08221 0.0
H668 H 0.12435 0.40227 0.09183 0.0
H669 H 0.12114 0.41029 0.10363 0.0
H670 H 0.10615 0.42549 0.08919 0.0
H671 H 0.10931 0.41739 0.07746 0.0
H672 H 0.12616 0.40629 0.03687 0.0
H673 H 0.12588 0.4028 0.05121 0.0
H674 H 0.14069 0.38548 0.03234 0.0
H675 H 0.14018 0.382 0.04636 0.0
H676 H 0.15759 0.36873 0.08219 0.0
H677 H 0.1453 0.36922 0.10483 0.0
H678 H 0.13508 0.37782 0.09913 0.0
H679 H 0.14717 0.3774 0.07644 0.0
C680 C 0.61715 0.10743 0.93369 0.0
C681 C 0.61854 0.11004 0.92584 0.0
C682 C 0.61302 0.09759 0.92062 0.0
C683 C 0.61644 0.10516 0.91934 0.0
C684 C 0.61134 0.09522 0.92849 0.0
C685 C 0.6134 0.10008 0.93493 0.0
U686 U 0.62967 0.12379 0.94411 0.0
O687 O 0.62744 0.13018 0.95542 0.0
O688 O 0.63789 0.12234 0.95422 0.0
C689 C 0.63379 0.12712 0.95887 0.0
C690 C 0.62013 0.11179 0.94073 0.0
C691 C 0.63334 0.12495 0.96739 0.0
C692 C 0.62868 0.11695 0.97865 0.0
C693 C 0.62845 0.11884 0.97045 0.0
C694 C 0.63864 0.12721 0.98066 0.0
C695 C 0.63378 0.12117 0.98386 0.0
C696 C 0.63839 0.12908 0.97258 0.0
C697 C 0.64162 0.13794 0.92946 0.0
C698 C 0.65078 0.14909 0.93141 0.0
C699 C 0.64934 0.1431 0.91836 0.0
C700 C 0.64375 0.13777 0.9214 0.0
C701 C 0.65295 0.14887 0.92327 0.0
C702 C 0.64514 0.14365 0.93449 0.0
C703 C 0.63592 0.1318 0.93216 0.0
O704 O 0.62779 0.11098 0.94215 0.0
O705 O 0.61755 0.11912 0.94182 0.0
O706 O 0.62938 0.13407 0.93585 0.0
O707 O 0.63898 0.12517 0.93498 0.0
H708 H 0.62146 0.1157 0.92475 0.0
H709 H 0.61784 0.10716 0.91335 0.0
H710 H 0.60857 0.08951 0.9297 0.0
H711 H 0.61228 0.09795 0.94093 0.0
H712 H 0.62485 0.11227 0.98092 0.0
H713 H 0.62453 0.11554 0.96652 0.0
H714 H 0.6428 0.13045 0.9844 0.0
H715 H 0.64228 0.13374 0.97034 0.0
H716 H 0.65342 0.15344 0.93538 0.0
H717 H 0.65099 0.1425 0.91214 0.0
H718 H 0.64117 0.13337 0.91743 0.0
H719 H 0.64359 0.14386 0.94076 0.0
C720 C 0.19527 0.39891 0.19953 0.0
C721 C 0.19199 0.40065 0.19202 0.0
C722 C 0.19929 0.38948 0.18616 0.0
C723 C 0.194 0.39597 0.18537 0.0
C724 C 0.20272 0.38796 0.19366 0.0
C725 C 0.20073 0.39263 0.20026 0.0
U726 U 0.18381 0.41539 0.21082 0.0
O727 O 0.17672 0.41431 0.22177 0.0
O728 O 0.18739 0.42192 0.22168 0.0
C729 C 0.18161 0.41878 0.22596 0.0
C730 C 0.19278 0.40318 0.20678 0.0
C731 C 0.18371 0.41573 0.23394 0.0
C732 C 0.18656 0.40477 0.24307 0.0
C733 C 0.18596 0.40776 0.23526 0.0
C734 C 0.18318 0.41781 0.24825 0.0
C735 C 0.18486 0.40971 0.24964 0.0
C736 C 0.18259 0.42077 0.2405 0.0
C737 C 0.17121 0.43013 0.19751 0.0
C738 C 0.15931 0.43805 0.20019 0.0
C739 C 0.16507 0.4379 0.18694 0.0
C740 C 0.17111 0.43285 0.18961 0.0
C741 C 0.15901 0.44038 0.19214 0.0
C742 C 0.16539 0.43293 0.20288 0.0
C743 C 0.17679 0.42362 0.19946 0.0
O744 O 0.19561 0.41043 0.20773 0.0
O745 O 0.1852 0.40255 0.20865 0.0
O746 O 0.17371 0.41717 0.20268 0.0
O747 O 0.18383 0.42551 0.20236 0.0
H748 H 0.18775 0.40548 0.19134 0.0
H749 H 0.19121 0.39728 0.17969 0.0
H750 H 0.20691 0.38311 0.19445 0.0
H751 H 0.20334 0.39122 0.206 0.0
H752 H 0.18788 0.39851 0.24394 0.0
H753 H 0.18689 0.40377 0.23026 0.0
H754 H 0.18201 0.42182 0.25318 0.0
H755 H 0.1809 0.42695 0.23961 0.0
H756 H 0.15463 0.43985 0.20427 0.0
H757 H 0.16489 0.43955 0.18069 0.0
H758 H 0.17549 0.43071 0.18536 0.0
H759 H 0.16534 0.43086 0.209 0.0
C760 C 0.90064 0.90944 0.43305 0.0
C761 C 0.89712 0.90756 0.42567 0.0
C762 C 0.90437 0.91845 0.41935 0.0
C763 C 0.89894 0.91209 0.41888 0.0
C764 C 0.90821 0.92002 0.42662 0.0
C765 C 0.90633 0.91556 0.43343 0.0
U766 U 0.88858 0.89357 0.44421 0.0
O767 O 0.89095 0.88721 0.4555 0.0
O768 O 0.88044 0.89498 0.45439 0.0
C769 C 0.88464 0.89026 0.45902 0.0
C770 C 0.89787 0.90565 0.4405 0.0
C771 C 0.88533 0.89255 0.4675 0.0
C772 C 0.88814 0.90195 0.47825 0.0
C773 C 0.88831 0.89996 0.47008 0.0
C774 C 0.8821 0.88917 0.48119 0.0
C775 C 0.88499 0.89656 0.48391 0.0
C776 C 0.88232 0.88719 0.47313 0.0
C777 C 0.87744 0.87841 0.4301 0.0
C778 C 0.86501 0.87097 0.43135 0.0
C779 C 0.87287 0.86997 0.41927 0.0
C780 C 0.87858 0.87506 0.42254 0.0
C781 C 0.86584 0.86814 0.42348 0.0
C782 C 0.87076 0.87612 0.43463 0.0
C783 C 0.88276 0.88503 0.43243 0.0
O784 O 0.8902 0.90636 0.44192 0.0
O785 O 0.90063 0.89846 0.44202 0.0
O786 O 0.88949 0.88327 0.43604 0.0
O787 O 0.87934 0.89153 0.43516 0.0
H788 H 0.89272 0.90285 0.42525 0.0
H789 H 0.89589 0.91082 0.41332 0.0
H790 H 0.91233 0.92497 0.42713 0.0
H791 H 0.90907 0.91712 0.43907 0.0
H792 H 0.89044 0.90768 0.48012 0.0
H793 H 0.89063 0.90421 0.4658 0.0
H794 H 0.87944 0.88493 0.48528 0.0
H795 H 0.8799 0.88149 0.47126 0.0
H796 H 0.85967 0.86966 0.43475 0.0
H797 H 0.87377 0.86778 0.41326 0.0
H798 H 0.88369 0.87673 0.41896 0.0
H799 H 0.86979 0.87862 0.44051 0.0
C800 C 0.82273 0.11861 0.19999 0.0
C801 C 0.82541 0.11641 0.19237 0.0
C802 C 0.8188 0.12804 0.1866 0.0
C803 C 0.82344 0.12108 0.18571 0.0
C804 C 0.81597 0.13005 0.19423 0.0
C805 C 0.81792 0.12538 0.20085 0.0
U806 U 0.83417 0.10204 0.21117 0.0
O807 O 0.84128 0.10305 0.22211 0.0
O808 O 0.8306 0.09545 0.22201 0.0
C809 C 0.83641 0.09854 0.22628 0.0
C810 C 0.82519 0.11427 0.20723 0.0
C811 C 0.83435 0.10154 0.2343 0.0
C812 C 0.83099 0.11237 0.2434 0.0
C813 C 0.83155 0.10934 0.2356 0.0
C814 C 0.83555 0.09968 0.24859 0.0
C815 C 0.83331 0.10765 0.24996 0.0
C816 C 0.83609 0.09668 0.24086 0.0
C817 C 0.84679 0.0876 0.19742 0.0
C818 C 0.85863 0.07944 0.19967 0.0
C819 C 0.85299 0.08055 0.18641 0.0
C820 C 0.84693 0.08541 0.18937 0.0
C821 C 0.85902 0.07771 0.19146 0.0
C822 C 0.85256 0.08442 0.20264 0.0
C823 C 0.8412 0.094 0.19971 0.0
O824 O 0.82238 0.107 0.2081 0.0
O825 O 0.83277 0.1149 0.20912 0.0
O826 O 0.84429 0.10038 0.20303 0.0
O827 O 0.8342 0.09199 0.20263 0.0
H828 H 0.82916 0.1112 0.1916 0.0
H829 H 0.82575 0.1194 0.17992 0.0
H830 H 0.81227 0.13527 0.19511 0.0
H831 H 0.81578 0.12715 0.20668 0.0
H832 H 0.82922 0.11852 0.24426 0.0
H833 H 0.83015 0.11318 0.2306 0.0
H834 H 0.83721 0.09584 0.25352 0.0
H835 H 0.83822 0.09065 0.23998 0.0
H836 H 0.86325 0.07732 0.20366 0.0
H837 H 0.85318 0.0793 0.18007 0.0
H838 H 0.84257 0.08782 0.18525 0.0
H839 H 0.85257 0.08607 0.20889 0.0
C840 C 0.40058 0.60776 0.58416 0.0
C841 C 0.39759 0.61002 0.59165 0.0
C842 C 0.40436 0.59872 0.59792 0.0
C843 C 0.39949 0.60557 0.59847 0.0
C844 C 0.40758 0.59672 0.59042 0.0
C845 C 0.40571 0.6012 0.58363 0.0
U846 U 0.38824 0.62351 0.57315 0.0
O847 O 0.39048 0.63012 0.56196 0.0
O848 O 0.38022 0.62198 0.5629 0.0
C849 C 0.38431 0.62688 0.55834 0.0
C850 C 0.39785 0.61166 0.57675 0.0
C851 C 0.38521 0.62464 0.54988 0.0
C852 C 0.38784 0.61512 0.53918 0.0
C853 C 0.38793 0.61712 0.54734 0.0
C854 C 0.38241 0.62815 0.53612 0.0
C855 C 0.38501 0.62062 0.53346 0.0
C856 C 0.38256 0.63012 0.54419 0.0
C857 C 0.37638 0.63766 0.58786 0.0
C858 C 0.36723 0.6488 0.58594 0.0
C859 C 0.36892 0.64297 0.59905 0.0
C860 C 0.37443 0.63759 0.59596 0.0
C861 C 0.36522 0.64868 0.59412 0.0
C862 C 0.37279 0.64332 0.58282 0.0
C863 C 0.38198 0.63148 0.5851 0.0
O864 O 0.39023 0.61074 0.57518 0.0
O865 O 0.40039 0.61896 0.57545 0.0
O866 O 0.38855 0.63372 0.58145 0.0
O867 O 0.37886 0.62491 0.58221 0.0
H868 H 0.39361 0.61509 0.59218 0.0
H869 H 0.39701 0.6074 0.60415 0.0
H870 H 0.41124 0.59146 0.58968 0.0
H871 H 0.40804 0.59934 0.5779 0.0
H872 H 0.38992 0.60929 0.53735 0.0
H873 H 0.38998 0.61277 0.55166 0.0
H874 H 0.37999 0.63249 0.53199 0.0
H875 H 0.38034 0.63591 0.54601 0.0
H876 H 0.36452 0.65311 0.58197 0.0
H877 H 0.3674 0.64246 0.6053 0.0
H878 H 0.37709 0.63324 0.59993 0.0
H879 H 0.37421 0.64344 0.57652 0.0
C880 C 0.19526 0.61824 0.31773 0.0
C881 C 0.1917 0.61669 0.32516 0.0
C882 C 0.19925 0.62762 0.33114 0.0
C883 C 0.19369 0.62134 0.33182 0.0
C884 C 0.20297 0.62892 0.32374 0.0
C885 C 0.20099 0.62428 0.31711 0.0
U886 U 0.18387 0.60175 0.30647 0.0
O887 O 0.17662 0.60272 0.29562 0.0
O888 O 0.18737 0.59524 0.29558 0.0
C889 C 0.18153 0.59834 0.29136 0.0
C890 C 0.1928 0.61401 0.31044 0.0
C891 C 0.18363 0.60163 0.28348 0.0
C892 C 0.18706 0.61285 0.27493 0.0
C893 C 0.18622 0.60955 0.28257 0.0
C894 C 0.18319 0.60023 0.26907 0.0
C895 C 0.18537 0.60828 0.2681 0.0
C896 C 0.18231 0.59696 0.27668 0.0
C897 C 0.17144 0.58702 0.31979 0.0
C898 C 0.15954 0.57916 0.31697 0.0
C899 C 0.16521 0.57923 0.33027 0.0
C900 C 0.17129 0.58427 0.32768 0.0
C901 C 0.15919 0.57681 0.32501 0.0
C902 C 0.16567 0.58427 0.31436 0.0
C903 C 0.17702 0.59354 0.31792 0.0
O904 O 0.19567 0.60679 0.30944 0.0
O905 O 0.1852 0.6146 0.30859 0.0
O906 O 0.17389 0.59999 0.31475 0.0
O907 O 0.18403 0.59165 0.31494 0.0
H908 H 0.18725 0.61204 0.32575 0.0
H909 H 0.19068 0.6202 0.33742 0.0
H910 H 0.20738 0.63359 0.32303 0.0
H911 H 0.20382 0.62554 0.31144 0.0
H912 H 0.18884 0.61904 0.27436 0.0
H913 H 0.18731 0.61325 0.28775 0.0
H914 H 0.18176 0.59657 0.26394 0.0
H915 H 0.18029 0.59085 0.27727 0.0
H916 H 0.15488 0.57741 0.31286 0.0
H917 H 0.16496 0.57756 0.33651 0.0
H918 H 0.17564 0.58639 0.33197 0.0
H919 H 0.16567 0.58636 0.30825 0.0
C920 C 0.32265 0.39887 0.81773 0.0
C921 C 0.32654 0.40019 0.82504 0.0
C922 C 0.31874 0.38954 0.83121 0.0
C923 C 0.32459 0.39557 0.83173 0.0
C924 C 0.31469 0.38848 0.82394 0.0
C925 C 0.31664 0.3931 0.81728 0.0
U926 U 0.3341 0.41522 0.80637 0.0
O927 O 0.34124 0.4142 0.79545 0.0
O928 O 0.33058 0.42183 0.79554 0.0
C929 C 0.3364 0.41874 0.79128 0.0
C930 C 0.32507 0.40305 0.81039 0.0
C931 C 0.33439 0.4158 0.78324 0.0
C932 C 0.33073 0.40509 0.77412 0.0
C933 C 0.33127 0.40812 0.78192 0.0
C934 C 0.33595 0.41754 0.76897 0.0
C935 C 0.33338 0.40968 0.7676 0.0
C936 C 0.33647 0.42055 0.77671 0.0
C937 C 0.34668 0.42965 0.82011 0.0
C938 C 0.35852 0.4378 0.81783 0.0
C939 C 0.35284 0.43677 0.83108 0.0
C940 C 0.34679 0.43189 0.82814 0.0
C941 C 0.35887 0.43958 0.82602 0.0
C942 C 0.35246 0.43279 0.81488 0.0
C943 C 0.3411 0.42325 0.81785 0.0
O944 O 0.32227 0.4103 0.8094 0.0
O945 O 0.33264 0.40237 0.80845 0.0
O946 O 0.34419 0.41686 0.81455 0.0
O947 O 0.33411 0.42526 0.81491 0.0
H948 H 0.33121 0.40464 0.8255 0.0
H949 H 0.32786 0.39651 0.83722 0.0
H950 H 0.31006 0.38402 0.82337 0.0
H951 H 0.31356 0.39203 0.8117 0.0
H952 H 0.3287 0.39902 0.77324 0.0
H953 H 0.3296 0.40437 0.78691 0.0
H954 H 0.33788 0.42128 0.76407 0.0
H955 H 0.33885 0.42648 0.7776 0.0
H956 H 0.36315 0.43989 0.81384 0.0
H957 H 0.353 0.43808 0.83741 0.0
H958 H 0.34242 0.42951 0.83227 0.0
H959 H 0.35248 0.4311 0.80864 0.0
C960 C 0.93417 0.89845 0.6055 0.0
C961 C 0.92705 0.89415 0.60648 0.0
C962 C 0.92063 0.90219 0.59619 0.0
C963 C 0.92035 0.89599 0.60185 0.0
C964 C 0.92759 0.90683 0.59563 0.0
C965 C 0.93432 0.90495 0.60023 0.0
U966 U 0.94496 0.88624 0.62136 0.0
O967 O 0.95532 0.8783 0.62027 0.0
O968 O 0.9559 0.88863 0.62832 0.0
C969 C 0.95969 0.8825 0.62523 0.0
C970 C 0.9416 0.8958 0.6094 0.0
C971 C 0.9682 0.88355 0.62316 0.0
C972 C 0.97903 0.88488 0.61352 0.0
C973 C 0.97084 0.88517 0.61536 0.0
C974 C 0.98196 0.88169 0.6273 0.0
C975 C 0.98466 0.88287 0.61945 0.0
C976 C 0.97384 0.88202 0.62912 0.0
C977 C 0.93068 0.87459 0.63577 0.0
C978 C 0.93279 0.8626 0.64367 0.0
C979 C 0.92013 0.86955 0.64434 0.0
C980 C 0.92299 0.87524 0.63898 0.0
C981 C 0.92491 0.86304 0.64662 0.0
C982 C 0.93565 0.86833 0.63828 0.0
C983 C 0.93289 0.88007 0.62926 0.0
O984 O 0.94282 0.89838 0.6167 0.0
O985 O 0.94324 0.88818 0.60853 0.0
O986 O 0.93594 0.87684 0.62281 0.0
O987 O 0.93629 0.88684 0.63126 0.0
H988 H 0.92677 0.88915 0.61058 0.0
H989 H 0.91502 0.89238 0.60251 0.0
H990 H 0.928 0.91163 0.59132 0.0
H991 H 0.93975 0.90836 0.59942 0.0
H992 H 0.98092 0.88585 0.60742 0.0
H993 H 0.96657 0.88637 0.61065 0.0
H994 H 0.98613 0.8803 0.63204 0.0
H995 H 0.97194 0.88076 0.63517 0.0
H996 H 0.93665 0.85771 0.64538 0.0
H997 H 0.91401 0.87004 0.64637 0.0
H998 H 0.91905 0.88 0.63708 0.0
H999 H 0.94163 0.86773 0.63588 0.0
C1000 C 0.90107 0.19976 0.32047 0.0
C1001 C 0.90404 0.19202 0.32175 0.0
C1002 C 0.89143 0.18635 0.31716 0.0
C1003 C 0.89926 0.18534 0.32005 0.0
C1004 C 0.88863 0.19411 0.31567 0.0
C1005 C 0.8934 0.20072 0.3173 0.0
U1006 U 0.91781 0.21108 0.33162 0.0
O1007 O 0.92401 0.22219 0.32813 0.0
O1008 O 0.91672 0.22183 0.33901 0.0
C1009 C 0.92108 0.22621 0.33419 0.0
C1010 C 0.90549 0.20699 0.32281 0.0
C1011 C 0.91813 0.23439 0.33273 0.0
C1012 C 0.90838 0.2439 0.32755 0.0
C1013 C 0.91153 0.23611 0.32782 0.0
C1014 C 0.91856 0.24827 0.33681 0.0
C1015 C 0.91174 0.25 0.33226 0.0
C1016 C 0.92171 0.24058 0.33703 0.0
C1017 C 0.93247 0.19756 0.34417 0.0
C1018 C 0.94067 0.20031 0.35587 0.0
C1019 C 0.93941 0.1868 0.35095 0.0
C1020 C 0.93455 0.18949 0.34476 0.0
C1021 C 0.94235 0.19213 0.35666 0.0
C1022 C 0.93573 0.20303 0.34964 0.0
C1023 C 0.92608 0.19967 0.33851 0.0
O1024 O 0.90494 0.20894 0.33037 0.0
O1025 O 0.91273 0.2079 0.3199 0.0
O1026 O 0.92807 0.20277 0.33158 0.0
O1027 O 0.91958 0.20278 0.34158 0.0
H1028 H 0.90995 0.19116 0.32423 0.0
H1029 H 0.90156 0.17943 0.32128 0.0
H1030 H 0.88268 0.19507 0.31333 0.0
H1031 H 0.89101 0.20663 0.31627 0.0
H1032 H 0.90309 0.24507 0.32401 0.0
H1033 H 0.90866 0.2314 0.32446 0.0
H1034 H 0.92131 0.25285 0.34045 0.0
H1035 H 0.92679 0.23939 0.34085 0.0
H1036 H 0.94283 0.20451 0.36027 0.0
H1037 H 0.94055 0.18046 0.35151 0.0
H1038 H 0.93204 0.18517 0.34066 0.0
H1039 H 0.93415 0.20928 0.34932 0.0
C1040 C 0.58399 0.11915 0.106 0.0
C1041 C 0.59159 0.12195 0.10823 0.0
C1042 C 0.59753 0.11503 0.09692 0.0
C1043 C 0.59834 0.11987 0.10371 0.0
C1044 C 0.58998 0.112 0.09493 0.0
C1045 C 0.58328 0.11401 0.09946 0.0
U1046 U 0.57338 0.13157 0.12193 0.0
O1047 O 0.56315 0.13969 0.12076 0.0
O1048 O 0.56233 0.12934 0.12876 0.0
C1049 C 0.55867 0.13556 0.12569 0.0
C1050 C 0.57667 0.12206 0.10993 0.0
C1051 C 0.55016 0.13465 0.12356 0.0
C1052 C 0.5394 0.13216 0.11409 0.0
C1053 C 0.54758 0.13214 0.11598 0.0
C1054 C 0.53637 0.13702 0.12734 0.0
C1055 C 0.53369 0.13467 0.11975 0.0
C1056 C 0.54448 0.13699 0.12921 0.0
C1057 C 0.5876 0.14292 0.13651 0.0
C1058 C 0.58548 0.15498 0.14427 0.0
C1059 C 0.5981 0.14798 0.14511 0.0
C1060 C 0.59526 0.14225 0.13979 0.0
C1061 C 0.59333 0.15452 0.14726 0.0
C1062 C 0.58262 0.14921 0.13893 0.0
C1063 C 0.58545 0.13748 0.12998 0.0
O1064 O 0.57532 0.11945 0.1172 0.0
O1065 O 0.57529 0.12973 0.1091 0.0
O1066 O 0.58255 0.14078 0.12349 0.0
O1067 O 0.58191 0.13076 0.13192 0.0
H1068 H 0.59225 0.12596 0.11325 0.0
H1069 H 0.6041 0.12236 0.10528 0.0
H1070 H 0.58924 0.10831 0.08968 0.0
H1071 H 0.57748 0.11182 0.09765 0.0
H1072 H 0.53754 0.13025 0.10821 0.0
H1073 H 0.55188 0.13032 0.11151 0.0
H1074 H 0.5322 0.13913 0.1318 0.0
H1075 H 0.54634 0.13903 0.13505 0.0
H1076 H 0.58164 0.15993 0.14588 0.0
H1077 H 0.6042 0.1475 0.1472 0.0
H1078 H 0.5992 0.13747 0.13795 0.0
H1079 H 0.57668 0.14982 0.13647 0.0
C1080 C 0.61699 0.81739 0.82005 0.0
C1081 C 0.61432 0.82499 0.82239 0.0
C1082 C 0.62632 0.83099 0.81679 0.0
C1083 C 0.61896 0.83177 0.82073 0.0
C1084 C 0.62884 0.82343 0.81428 0.0
C1085 C 0.6242 0.8167 0.81587 0.0
U1086 U 0.60058 0.80601 0.83138 0.0
O1087 O 0.59416 0.79499 0.82806 0.0
O1088 O 0.60166 0.79528 0.8388 0.0
C1089 C 0.59715 0.79095 0.83408 0.0
C1090 C 0.61278 0.81004 0.82238 0.0
C1091 C 0.59998 0.78275 0.83256 0.0
C1092 C 0.60982 0.77321 0.82765 0.0
C1093 C 0.60677 0.78103 0.82792 0.0
C1094 C 0.59915 0.76881 0.83636 0.0
C1095 C 0.60616 0.76709 0.8321 0.0
C1096 C 0.59611 0.77654 0.83658 0.0
C1097 C 0.58628 0.82001 0.84392 0.0
C1098 C 0.57794 0.81779 0.85563 0.0
C1099 C 0.58003 0.83119 0.85063 0.0
C1100 C 0.58468 0.82818 0.84444 0.0
C1101 C 0.57682 0.82607 0.85642 0.0
C1102 C 0.58272 0.81476 0.84942 0.0
C1103 C 0.59254 0.81757 0.83825 0.0
O1104 O 0.61344 0.80808 0.82994 0.0
O1105 O 0.60552 0.80906 0.81957 0.0
O1106 O 0.59041 0.81444 0.83139 0.0
O1107 O 0.599 0.81437 0.84131 0.0
H1108 H 0.60879 0.82564 0.82568 0.0
H1109 H 0.61695 0.83757 0.82277 0.0
H1110 H 0.63452 0.82272 0.81126 0.0
H1111 H 0.62637 0.81089 0.81404 0.0
H1112 H 0.61525 0.77204 0.82434 0.0
H1113 H 0.60986 0.78577 0.82479 0.0
H1114 H 0.59618 0.76421 0.83979 0.0
H1115 H 0.59088 0.77774 0.84019 0.0
H1116 H 0.57552 0.81374 0.86005 0.0
H1117 H 0.57922 0.83758 0.85109 0.0
H1118 H 0.58739 0.83233 0.84028 0.0
H1119 H 0.58393 0.80842 0.84913 0.0
C1120 C 0.93416 0.11881 0.91189 0.0
C1121 C 0.92703 0.12307 0.91082 0.0
C1122 C 0.92058 0.11515 0.92118 0.0
C1123 C 0.92031 0.12127 0.91543 0.0
C1124 C 0.92756 0.11054 0.92184 0.0
C1125 C 0.93431 0.11239 0.91725 0.0
U1126 U 0.94494 0.131 0.89604 0.0
O1127 O 0.95528 0.13898 0.89713 0.0
O1128 O 0.95589 0.12865 0.88908 0.0
C1129 C 0.95967 0.1348 0.89216 0.0
C1130 C 0.9416 0.12145 0.908 0.0
C1131 C 0.96818 0.13378 0.89423 0.0
C1132 C 0.97901 0.13217 0.90383 0.0
C1133 C 0.97082 0.13188 0.90197 0.0
C1134 C 0.98193 0.13593 0.8902 0.0
C1135 C 0.98463 0.13446 0.898 0.0
C1136 C 0.97382 0.13561 0.88835 0.0
C1137 C 0.9306 0.14266 0.88172 0.0
C1138 C 0.93281 0.15461 0.87379 0.0
C1139 C 0.91998 0.14794 0.87339 0.0
C1140 C 0.92282 0.1422 0.8787 0.0
C1141 C 0.92487 0.15432 0.87103 0.0
C1142 C 0.93567 0.14879 0.87909 0.0
C1143 C 0.93283 0.13715 0.88818 0.0
O1144 O 0.94282 0.11886 0.9007 0.0
O1145 O 0.94325 0.12906 0.90887 0.0
O1146 O 0.93588 0.14036 0.89464 0.0
O1147 O 0.93627 0.13041 0.88614 0.0
H1148 H 0.92676 0.12801 0.90665 0.0
H1149 H 0.91497 0.12484 0.91469 0.0
H1150 H 0.92796 0.10581 0.92623 0.0
H1151 H 0.93975 0.10901 0.91814 0.0
H1152 H 0.9809 0.13098 0.90989 0.0
H1153 H 0.96655 0.13045 0.90661 0.0
H1154 H 0.9861 0.13754 0.88552 0.0
H1155 H 0.97192 0.13708 0.88235 0.0
H1156 H 0.9367 0.15946 0.87202 0.0
H1157 H 0.91382 0.14763 0.87145 0.0
H1158 H 0.9188 0.13755 0.88071 0.0
H1159 H 0.94171 0.14925 0.88134 0.0
C1160 C 0.61723 0.19986 0.69691 0.0
C1161 C 0.61419 0.19217 0.69557 0.0
C1162 C 0.62662 0.18625 0.70052 0.0
C1163 C 0.61883 0.18543 0.6974 0.0
C1164 C 0.62953 0.19402 0.70189 0.0
C1165 C 0.62487 0.2007 0.70016 0.0
U1166 U 0.60055 0.21121 0.68575 0.0
O1167 O 0.59416 0.2222 0.68924 0.0
O1168 O 0.60157 0.22202 0.67844 0.0
C1169 C 0.59709 0.2263 0.68323 0.0
C1170 C 0.61285 0.20714 0.6946 0.0
C1171 C 0.59993 0.23449 0.6848 0.0
C1172 C 0.60985 0.24401 0.68959 0.0
C1173 C 0.60682 0.23617 0.6893 0.0
C1174 C 0.59898 0.24848 0.6812 0.0
C1175 C 0.60609 0.25018 0.68531 0.0
C1176 C 0.59595 0.24074 0.68096 0.0
C1177 C 0.58621 0.19721 0.67319 0.0
C1178 C 0.57765 0.1994 0.66164 0.0
C1179 C 0.58004 0.18599 0.66648 0.0
C1180 C 0.58474 0.18902 0.67262 0.0
C1181 C 0.57664 0.19111 0.66079 0.0
C1182 C 0.58249 0.20245 0.66779 0.0
C1183 C 0.59249 0.1997 0.67882 0.0
O1184 O 0.61344 0.20915 0.68706 0.0
O1185 O 0.6056 0.20803 0.69748 0.0
O1186 O 0.59039 0.20277 0.68573 0.0
O1187 O 0.59891 0.20296 0.67574 0.0
H1188 H 0.6083 0.19139 0.69303 0.0
H1189 H 0.61629 0.17958 0.69636 0.0
H1190 H 0.63552 0.195 0.70408 0.0
H1191 H 0.62735 0.20659 0.70118 0.0
H1192 H 0.61536 0.24515 0.69279 0.0
H1193 H 0.60999 0.23141 0.6923 0.0
H1194 H 0.59592 0.25312 0.6779 0.0
H1195 H 0.59064 0.23958 0.67746 0.0
H1196 H 0.57508 0.20345 0.6573 0.0
H1197 H 0.57932 0.17959 0.66597 0.0
H1198 H 0.58758 0.18488 0.67669 0.0
H1199 H 0.58359 0.20881 0.66812 0.0
C1200 C 0.58458 0.89789 0.41131 0.0
C1201 C 0.59165 0.89352 0.41022 0.0
C1202 C 0.5984 0.90163 0.42023 0.0
C1203 C 0.59849 0.89536 0.41465 0.0
C1204 C 0.59144 0.90626 0.42097 0.0
C1205 C 0.58459 0.90438 0.41657 0.0
U1206 U 0.57342 0.88598 0.3955 0.0
O1207 O 0.56299 0.87813 0.39665 0.0
O1208 O 0.56244 0.88852 0.38866 0.0
C1209 C 0.55862 0.88239 0.39173 0.0
C1210 C 0.57705 0.89537 0.4075 0.0
C1211 C 0.55011 0.88345 0.39382 0.0
C1212 C 0.5393 0.88506 0.40345 0.0
C1213 C 0.54749 0.88533 0.40157 0.0
C1214 C 0.53634 0.88136 0.38981 0.0
C1215 C 0.53366 0.88281 0.39762 0.0
C1216 C 0.54445 0.88167 0.38795 0.0
C1217 C 0.58819 0.87434 0.38131 0.0
C1218 C 0.58612 0.86368 0.37167 0.0
C1219 C 0.59954 0.86782 0.37513 0.0
C1220 C 0.59645 0.87359 0.38023 0.0
C1221 C 0.59443 0.86271 0.37094 0.0
C1222 C 0.58299 0.86947 0.37689 0.0
C1223 C 0.58548 0.87979 0.38763 0.0
O1224 O 0.57575 0.89804 0.40024 0.0
O1225 O 0.5753 0.88778 0.40833 0.0
O1226 O 0.58236 0.87651 0.39403 0.0
O1227 O 0.58199 0.88648 0.3855 0.0
H1228 H 0.5918 0.88851 0.40613 0.0
H1229 H 0.6038 0.89176 0.41385 0.0
H1230 H 0.59115 0.91109 0.42525 0.0
H1231 H 0.5792 0.90784 0.41748 0.0
H1232 H 0.53742 0.88624 0.40951 0.0
H1233 H 0.55177 0.88673 0.40621 0.0
H1234 H 0.53217 0.87977 0.38514 0.0
H1235 H 0.54634 0.88021 0.38194 0.0
H1236 H 0.58209 0.85974 0.36852 0.0
H1237 H 0.60595 0.86714 0.37468 0.0
H1238 H 0.60054 0.87729 0.38361 0.0
H1239 H 0.5766 0.86995 0.37767 0.0
C1240 C 0.90116 0.81744 0.19704 0.0
C1241 C 0.90425 0.82517 0.19597 0.0
C1242 C 0.89159 0.83091 0.20033 0.0
C1243 C 0.8995 0.83187 0.19767 0.0
C1244 C 0.88865 0.82317 0.20159 0.0
C1245 C 0.89339 0.81652 0.19998 0.0
U1246 U 0.91784 0.80604 0.18586 0.0
O1247 O 0.92405 0.79494 0.18935 0.0
O1248 O 0.91668 0.79526 0.17852 0.0
C1249 C 0.92107 0.7909 0.18332 0.0
C1250 C 0.90557 0.8102 0.1947 0.0
C1251 C 0.91812 0.78273 0.18485 0.0
C1252 C 0.90813 0.77328 0.18969 0.0
C1253 C 0.91125 0.78108 0.18941 0.0
C1254 C 0.91887 0.76875 0.18116 0.0
C1255 C 0.91179 0.76709 0.18533 0.0
C1256 C 0.92198 0.77646 0.18093 0.0
C1257 C 0.93246 0.81966 0.17325 0.0
C1258 C 0.94079 0.81705 0.1616 0.0
C1259 C 0.93915 0.83056 0.16645 0.0
C1260 C 0.93434 0.82777 0.17264 0.0
C1261 C 0.94225 0.82527 0.16077 0.0
C1262 C 0.93587 0.81424 0.16782 0.0
C1263 C 0.9261 0.81744 0.17891 0.0
O1264 O 0.90498 0.80822 0.18715 0.0
O1265 O 0.91281 0.80929 0.19758 0.0
O1266 O 0.92811 0.81434 0.18584 0.0
O1267 O 0.9196 0.8143 0.17586 0.0
H1268 H 0.91023 0.82601 0.19366 0.0
H1269 H 0.9019 0.83778 0.19662 0.0
H1270 H 0.88261 0.82225 0.20371 0.0
H1271 H 0.8909 0.81062 0.20084 0.0
H1272 H 0.90265 0.77217 0.19293 0.0
H1273 H 0.90816 0.78585 0.19247 0.0
H1274 H 0.92186 0.76411 0.1778 0.0
H1275 H 0.92728 0.77759 0.17739 0.0
H1276 H 0.94308 0.81289 0.15723 0.0
H1277 H 0.94014 0.83692 0.16587 0.0
H1278 H 0.93171 0.83205 0.17671 0.0
H1279 H 0.93445 0.80795 0.16816 0.0
C1280 C 0.60631 0.93374 0.89841 0.0
C1281 C 0.60847 0.92617 0.89549 0.0
C1282 C 0.59728 0.92018 0.90256 0.0
C1283 C 0.60397 0.91942 0.89757 0.0
C1284 C 0.59535 0.92768 0.90571 0.0
C1285 C 0.59986 0.9344 0.90368 0.0
U1286 U 0.6222 0.94441 0.88597 0.0
O1287 O 0.621 0.95459 0.87779 0.0
O1288 O 0.62892 0.95552 0.8882 0.0
C1289 C 0.62592 0.9591 0.88189 0.0
C1290 C 0.6102 0.94107 0.89549 0.0
C1291 C 0.6239 0.96765 0.88254 0.0
C1292 C 0.61551 0.97878 0.88673 0.0
C1293 C 0.61727 0.97055 0.88677 0.0
C1294 C 0.62695 0.98114 0.87824 0.0
C1295 C 0.62034 0.98419 0.88243 0.0
C1296 C 0.62872 0.97302 0.87834 0.0
C1297 C 0.63675 0.92996 0.87466 0.0
C1298 C 0.64552 0.93228 0.86331 0.0
C1299 C 0.64465 0.91912 0.8692 0.0
C1300 C 0.63922 0.92199 0.87481 0.0
C1301 C 0.64777 0.92418 0.86329 0.0
C1302 C 0.64004 0.93516 0.86897 0.0
C1303 C 0.63026 0.93231 0.88008 0.0
O1304 O 0.61747 0.94245 0.8981 0.0
O1305 O 0.60938 0.94245 0.88782 0.0
O1306 O 0.62379 0.93524 0.87675 0.0
O1307 O 0.63224 0.93591 0.88675 0.0
H1308 H 0.61341 0.92555 0.89137 0.0
H1309 H 0.60547 0.91369 0.89498 0.0
H1310 H 0.59017 0.92839 0.9095 0.0
H1311 H 0.5981 0.94017 0.90598 0.0
H1312 H 0.6104 0.98089 0.89007 0.0
H1313 H 0.61345 0.96649 0.89003 0.0
H1314 H 0.63072 0.98501 0.87469 0.0
H1315 H 0.63381 0.9709 0.87497 0.0
H1316 H 0.64787 0.93635 0.85887 0.0
H1317 H 0.64611 0.91283 0.86929 0.0
H1318 H 0.63669 0.91787 0.87912 0.0
H1319 H 0.6382 0.94135 0.86876 0.0
C1320 C 0.818 0.82034 0.61662 0.0
C1321 C 0.82571 0.82201 0.61376 0.0
C1322 C 0.83149 0.81699 0.62616 0.0
C1323 C 0.83243 0.8203 0.61849 0.0
C1324 C 0.82376 0.81511 0.62884 0.0
C1325 C 0.81711 0.81677 0.62412 0.0
U1326 U 0.80653 0.83153 0.60002 0.0
O1327 O 0.79543 0.82803 0.59381 0.0
O1328 O 0.79572 0.83883 0.60121 0.0
C1329 C 0.79136 0.83403 0.59682 0.0
C1330 C 0.81073 0.82269 0.61228 0.0
C1331 C 0.78321 0.83243 0.59978 0.0
C1332 C 0.77383 0.82798 0.61001 0.0
C1333 C 0.78165 0.82828 0.60692 0.0
C1334 C 0.76912 0.83564 0.59871 0.0
C1335 C 0.76754 0.83191 0.60605 0.0
C1336 C 0.77685 0.83589 0.59563 0.0
C1337 C 0.8201 0.84408 0.58532 0.0
C1338 C 0.81747 0.85571 0.57698 0.0
C1339 C 0.83099 0.85083 0.57855 0.0
C1340 C 0.82821 0.84466 0.58339 0.0
C1341 C 0.82569 0.85652 0.57547 0.0
C1342 C 0.81467 0.84952 0.58192 0.0
C1343 C 0.81791 0.83845 0.59171 0.0
O1344 O 0.80877 0.83025 0.61286 0.0
O1345 O 0.80977 0.81981 0.60505 0.0
O1346 O 0.81482 0.83152 0.58974 0.0
O1347 O 0.81478 0.84153 0.5982 0.0
H1348 H 0.82652 0.82481 0.60799 0.0
H1349 H 0.83831 0.82183 0.61629 0.0
H1350 H 0.82285 0.81245 0.63466 0.0
H1351 H 0.81122 0.81543 0.62642 0.0
H1352 H 0.77278 0.82508 0.61569 0.0
H1353 H 0.78649 0.82557 0.61023 0.0
H1354 H 0.76439 0.83865 0.59548 0.0
H1355 H 0.77791 0.83911 0.59012 0.0
H1356 H 0.8133 0.86009 0.5747 0.0
H1357 H 0.83735 0.85138 0.57752 0.0
H1358 H 0.8325 0.84058 0.586 0.0
H1359 H 0.80839 0.8492 0.58338 0.0
C1360 C 0.91189 0.08339 0.39873 0.0
C1361 C 0.91048 0.09064 0.39479 0.0
C1362 C 0.92111 0.09698 0.40243 0.0
C1363 C 0.91505 0.09737 0.39662 0.0
C1364 C 0.92215 0.08985 0.40671 0.0
C1365 C 0.91759 0.0831 0.40485 0.0
U1366 U 0.89595 0.07282 0.3865 0.0
O1367 O 0.89694 0.06254 0.37847 0.0
O1368 O 0.8889 0.06193 0.38882 0.0
C1369 C 0.89197 0.05816 0.38267 0.0
C1370 C 0.90796 0.076 0.39606 0.0
C1371 C 0.89408 0.04967 0.38372 0.0
C1372 C 0.9038 0.03888 0.38473 0.0
C1373 C 0.90195 0.04706 0.38505 0.0
C1374 C 0.8899 0.03589 0.38213 0.0
C1375 C 0.89781 0.03323 0.38299 0.0
C1376 C 0.88807 0.044 0.38248 0.0
C1377 C 0.88168 0.08722 0.37492 0.0
C1378 C 0.87389 0.08512 0.36286 0.0
C1379 C 0.87318 0.09777 0.3698 0.0
C1380 C 0.87849 0.09491 0.37554 0.0
C1381 C 0.87097 0.09299 0.36329 0.0
C1382 C 0.87921 0.08224 0.36865 0.0
C1383 C 0.88816 0.08499 0.38042 0.0
O1384 O 0.90065 0.07481 0.39864 0.0
O1385 O 0.90881 0.07441 0.38843 0.0
O1386 O 0.89461 0.08193 0.37719 0.0
O1387 O 0.88612 0.08156 0.38716 0.0
H1388 H 0.90605 0.09101 0.39009 0.0
H1389 H 0.91402 0.10283 0.39331 0.0
H1390 H 0.92678 0.08935 0.41119 0.0
H1391 H 0.91874 0.07756 0.40797 0.0
H1392 H 0.90995 0.03703 0.38544 0.0
H1393 H 0.90669 0.05134 0.38604 0.0
H1394 H 0.88512 0.0317 0.38096 0.0
H1395 H 0.88197 0.04588 0.38145 0.0
H1396 H 0.87224 0.08129 0.35793 0.0
H1397 H 0.87113 0.10388 0.37025 0.0
H1398 H 0.88038 0.09885 0.3803 0.0
H1399 H 0.8816 0.07626 0.36808 0.0
C1400 C 0.70029 0.19703 0.11646 0.0
C1401 C 0.69284 0.19388 0.11427 0.0
C1402 C 0.68657 0.20043 0.12569 0.0
C1403 C 0.68603 0.19558 0.11884 0.0
C1404 C 0.69403 0.20375 0.12766 0.0
C1405 C 0.70079 0.20208 0.12309 0.0
U1406 U 0.71181 0.18558 0.10029 0.0
O1407 O 0.72293 0.18875 0.09396 0.0
O1408 O 0.72249 0.1781 0.10158 0.0
C1409 C 0.72693 0.18277 0.09712 0.0
C1410 C 0.70771 0.19465 0.1124 0.0
C1411 C 0.735 0.18447 0.10021 0.0
C1412 C 0.74406 0.18952 0.11039 0.0
C1413 C 0.73631 0.1888 0.10726 0.0
C1414 C 0.74921 0.18174 0.09938 0.0
C1415 C 0.75062 0.18588 0.10655 0.0
C1416 C 0.74152 0.18108 0.09626 0.0
C1417 C 0.69777 0.17322 0.08587 0.0
C1418 C 0.69996 0.1616 0.07741 0.0
C1419 C 0.68656 0.16657 0.07961 0.0
C1420 C 0.68959 0.17271 0.0843 0.0
C1421 C 0.69167 0.16082 0.07632 0.0
C1422 C 0.70301 0.16776 0.08224 0.0
C1423 C 0.70025 0.17884 0.09214 0.0
O1424 O 0.7096 0.18708 0.1131 0.0
O1425 O 0.70883 0.19744 0.10515 0.0
O1426 O 0.7035 0.18567 0.09003 0.0
O1427 O 0.70335 0.17574 0.09863 0.0
H1428 H 0.69234 0.18996 0.10916 0.0
H1429 H 0.68037 0.19302 0.11705 0.0
H1430 H 0.69474 0.2074 0.13294 0.0
H1431 H 0.7065 0.20453 0.12489 0.0
H1432 H 0.7449 0.19283 0.11587 0.0
H1433 H 0.73133 0.19146 0.11042 0.0
H1434 H 0.75401 0.1787 0.0963 0.0
H1435 H 0.74062 0.17766 0.09085 0.0
H1436 H 0.704 0.15722 0.07493 0.0
H1437 H 0.68016 0.1661 0.07883 0.0
H1438 H 0.68545 0.17683 0.08707 0.0
H1439 H 0.70936 0.16805 0.08341 0.0
C1440 C 0.6072 0.08641 0.61903 0.0
C1441 C 0.60842 0.09359 0.62314 0.0
C1442 C 0.59794 0.09988 0.61522 0.0
C1443 C 0.60383 0.1003 0.62122 0.0
C1444 C 0.59706 0.09276 0.61091 0.0
C1445 C 0.60166 0.0861 0.6128 0.0
U1446 U 0.62203 0.07258 0.63048 0.0
O1447 O 0.61835 0.06164 0.63679 0.0
O1448 O 0.6263 0.06091 0.62612 0.0
C1449 C 0.62217 0.05714 0.63165 0.0
C1450 C 0.61081 0.0789 0.62161 0.0
C1451 C 0.62226 0.04845 0.63231 0.0
C1452 C 0.61791 0.0356 0.62732 0.0
C1453 C 0.61893 0.04379 0.62623 0.0
C1454 C 0.62374 0.03665 0.64052 0.0
C1455 C 0.62023 0.03194 0.63451 0.0
C1456 C 0.62469 0.04485 0.63944 0.0
C1457 C 0.63777 0.08554 0.64344 0.0
C1458 C 0.64707 0.08507 0.65456 0.0
C1459 C 0.64342 0.09776 0.64867 0.0
C1460 C 0.63859 0.09383 0.64319 0.0
C1461 C 0.64753 0.09347 0.65458 0.0
C1462 C 0.64215 0.08112 0.64904 0.0
C1463 C 0.6317 0.08198 0.63824 0.0
O1464 O 0.61796 0.07719 0.61886 0.0
O1465 O 0.60981 0.07702 0.62914 0.0
O1466 O 0.62494 0.07943 0.64129 0.0
O1467 O 0.63351 0.07908 0.63118 0.0
H1468 H 0.61268 0.09391 0.62798 0.0
H1469 H 0.60473 0.10575 0.62457 0.0
H1470 H 0.59253 0.09216 0.60635 0.0
H1471 H 0.60062 0.08057 0.60962 0.0
H1472 H 0.61526 0.03215 0.62255 0.0
H1473 H 0.61688 0.04653 0.62075 0.0
H1474 H 0.6255 0.03406 0.64616 0.0
H1475 H 0.62716 0.04841 0.64423 0.0
H1476 H 0.65018 0.0816 0.65904 0.0
H1477 H 0.64377 0.1042 0.64841 0.0
H1478 H 0.63523 0.09733 0.6389 0.0
H1479 H 0.64158 0.07469 0.64931 0.0
C1480 C 0.7002 0.82011 0.4007 0.0
C1481 C 0.69246 0.82137 0.40371 0.0
C1482 C 0.68673 0.81676 0.39113 0.0
C1483 C 0.68576 0.81965 0.39896 0.0
C1484 C 0.69449 0.81529 0.38831 0.0
C1485 C 0.70113 0.81695 0.39304 0.0
U1486 U 0.71158 0.83141 0.41728 0.0
O1487 O 0.72264 0.82797 0.4236 0.0
O1488 O 0.7224 0.8387 0.4161 0.0
C1489 C 0.72673 0.83394 0.42056 0.0
C1490 C 0.70745 0.82247 0.4051 0.0
C1491 C 0.73488 0.83231 0.41764 0.0
C1492 C 0.74426 0.82782 0.40744 0.0
C1493 C 0.73644 0.82813 0.41053 0.0
C1494 C 0.74897 0.83554 0.41869 0.0
C1495 C 0.75054 0.83177 0.41137 0.0
C1496 C 0.74124 0.83579 0.42177 0.0
C1497 C 0.69765 0.84406 0.43164 0.0
C1498 C 0.69986 0.85566 0.44013 0.0
C1499 C 0.68644 0.85078 0.43785 0.0
C1500 C 0.68946 0.84463 0.43317 0.0
C1501 C 0.69156 0.85649 0.44119 0.0
C1502 C 0.7029 0.84949 0.43531 0.0
C1503 C 0.70012 0.8384 0.42539 0.0
O1504 O 0.70945 0.83001 0.40444 0.0
O1505 O 0.70834 0.81965 0.41236 0.0
O1506 O 0.70321 0.83151 0.4275 0.0
O1507 O 0.70334 0.84145 0.41892 0.0
H1508 H 0.69161 0.82385 0.40961 0.0
H1509 H 0.67985 0.82086 0.40128 0.0
H1510 H 0.69544 0.81296 0.38236 0.0
H1511 H 0.70704 0.81592 0.39062 0.0
H1512 H 0.7453 0.82489 0.40178 0.0
H1513 H 0.7316 0.8254 0.40723 0.0
H1514 H 0.75369 0.83857 0.42189 0.0
H1515 H 0.74018 0.83904 0.42725 0.0
H1516 H 0.70391 0.86002 0.44264 0.0
H1517 H 0.68004 0.85128 0.4386 0.0
H1518 H 0.68532 0.84053 0.43038 0.0
H1519 H 0.70926 0.84917 0.43417 0.0
C1520 C 0.91194 0.93389 0.11855 0.0
C1521 C 0.91074 0.92674 0.12274 0.0
C1522 C 0.92124 0.9203 0.11498 0.0
C1523 C 0.91535 0.92001 0.12097 0.0
C1524 C 0.92205 0.92732 0.11046 0.0
C1525 C 0.91746 0.93407 0.11227 0.0
U1526 U 0.89618 0.94467 0.13088 0.0
O1527 O 0.89734 0.95502 0.1388 0.0
O1528 O 0.88913 0.95557 0.12857 0.0
C1529 C 0.89226 0.95936 0.13468 0.0
C1530 C 0.90802 0.94133 0.12116 0.0
C1531 C 0.89426 0.96787 0.13367 0.0
C1532 C 0.90372 0.97873 0.13156 0.0
C1533 C 0.90183 0.97055 0.13122 0.0
C1534 C 0.89042 0.98155 0.13645 0.0
C1535 C 0.89809 0.98427 0.13444 0.0
C1536 C 0.88854 0.97346 0.13607 0.0
C1537 C 0.88252 0.92962 0.14284 0.0
C1538 C 0.87149 0.93136 0.15216 0.0
C1539 C 0.87703 0.91823 0.14985 0.0
C1540 C 0.88242 0.92144 0.14443 0.0
C1541 C 0.87144 0.92309 0.1538 0.0
C1542 C 0.87702 0.93461 0.14672 0.0
C1543 C 0.88866 0.93249 0.13726 0.0
O1544 O 0.90066 0.94246 0.11869 0.0
O1545 O 0.909 0.94308 0.12873 0.0
O1546 O 0.89511 0.93567 0.14036 0.0
O1547 O 0.8863 0.93597 0.13064 0.0
H1548 H 0.90646 0.92645 0.12758 0.0
H1549 H 0.91448 0.91464 0.12446 0.0
H1550 H 0.92654 0.92775 0.10584 0.0
H1551 H 0.91845 0.93953 0.10896 0.0
H1552 H 0.90967 0.98065 0.12994 0.0
H1553 H 0.90634 0.96632 0.12934 0.0
H1554 H 0.88589 0.98567 0.13853 0.0
H1555 H 0.88267 0.97152 0.13798 0.0
H1556 H 0.86728 0.93531 0.15505 0.0
H1557 H 0.87745 0.91191 0.15108 0.0
H1558 H 0.88666 0.9175 0.14154 0.0
H1559 H 0.87702 0.94097 0.14558 0.0
C1560 C 0.81828 0.19697 0.90105 0.0
C1561 C 0.8257 0.19367 0.90313 0.0
C1562 C 0.83197 0.20026 0.89172 0.0
C1563 C 0.83249 0.19532 0.89852 0.0
C1564 C 0.82455 0.20374 0.88987 0.0
C1565 C 0.8178 0.20211 0.89449 0.0
U1566 U 0.80664 0.18579 0.91738 0.0
O1567 O 0.79555 0.18922 0.92364 0.0
O1568 O 0.79586 0.17845 0.91619 0.0
C1569 C 0.7915 0.18322 0.92063 0.0
C1570 C 0.81086 0.19468 0.90517 0.0
C1571 C 0.78334 0.1848 0.91769 0.0
C1572 C 0.77395 0.18942 0.90756 0.0
C1573 C 0.78176 0.18911 0.91066 0.0
C1574 C 0.76929 0.18143 0.91866 0.0
C1575 C 0.7677 0.18533 0.91141 0.0
C1576 C 0.77701 0.18118 0.92175 0.0
C1577 C 0.8202 0.17325 0.93204 0.0
C1578 C 0.81747 0.16167 0.94042 0.0
C1579 C 0.83103 0.16644 0.93884 0.0
C1580 C 0.82831 0.17261 0.93397 0.0
C1581 C 0.82569 0.16081 0.94194 0.0
C1582 C 0.81473 0.16787 0.93545 0.0
C1583 C 0.81805 0.1789 0.92566 0.0
O1584 O 0.80889 0.18713 0.90455 0.0
O1585 O 0.80979 0.19756 0.91239 0.0
O1586 O 0.81493 0.18582 0.92765 0.0
O1587 O 0.81494 0.17583 0.91916 0.0
H1588 H 0.82619 0.18967 0.90819 0.0
H1589 H 0.83812 0.19264 0.90022 0.0
H1590 H 0.82385 0.20747 0.88465 0.0
H1591 H 0.81212 0.20469 0.89277 0.0
H1592 H 0.77289 0.19245 0.90195 0.0
H1593 H 0.78659 0.19195 0.90743 0.0
H1594 H 0.76459 0.17829 0.9218 0.0
H1595 H 0.7781 0.17783 0.92717 0.0
H1596 H 0.81327 0.15733 0.94271 0.0
H1597 H 0.83739 0.16583 0.93987 0.0
H1598 H 0.83263 0.17665 0.93135 0.0
H1599 H 0.80845 0.16824 0.934 0.0
C1600 C 0.89811 0.6061 0.93355 0.0
C1601 C 0.89338 0.6068 0.92666 0.0
C1602 C 0.90187 0.59726 0.91972 0.0
C1603 C 0.89522 0.60238 0.91983 0.0
C1604 C 0.90688 0.59697 0.92644 0.0
C1605 C 0.90498 0.60133 0.93331 0.0
U1606 U 0.8862 0.62178 0.94485 0.0
O1607 O 0.87825 0.6206 0.9552 0.0
O1608 O 0.88868 0.62853 0.95589 0.0
C1609 C 0.88252 0.62544 0.95964 0.0
C1610 C 0.89559 0.60979 0.94115 0.0
C1611 C 0.8836 0.62318 0.96809 0.0
C1612 C 0.8849 0.61332 0.97871 0.0
C1613 C 0.88497 0.61527 0.97055 0.0
C1614 C 0.88239 0.62716 0.98197 0.0
C1615 C 0.88351 0.61924 0.98451 0.0
C1616 C 0.88244 0.62908 0.97387 0.0
C1617 C 0.87488 0.63629 0.93016 0.0
C1618 C 0.86308 0.64466 0.93149 0.0
C1619 C 0.86991 0.6437 0.91879 0.0
C1620 C 0.87554 0.63862 0.92218 0.0
C1621 C 0.86344 0.64654 0.92331 0.0
C1622 C 0.86876 0.6395 0.9349 0.0
C1623 C 0.88018 0.62984 0.93285 0.0
O1624 O 0.89829 0.61702 0.94257 0.0
O1625 O 0.88798 0.60896 0.94288 0.0
O1626 O 0.87678 0.62347 0.9359 0.0
O1627 O 0.88691 0.63181 0.93635 0.0
H1628 H 0.88809 0.61052 0.92668 0.0
H1629 H 0.8913 0.60277 0.9147 0.0
H1630 H 0.91201 0.59305 0.92653 0.0
H1631 H 0.90872 0.60074 0.93855 0.0
H1632 H 0.88586 0.60718 0.98048 0.0
H1633 H 0.88587 0.61061 0.96618 0.0
H1634 H 0.88117 0.63185 0.98624 0.0
H1635 H 0.88129 0.6352 0.97211 0.0
H1636 H 0.85818 0.64679 0.93512 0.0
H1637 H 0.87046 0.64516 0.91252 0.0
H1638 H 0.88023 0.63622 0.91843 0.0
H1639 H 0.86818 0.63777 0.9411 0.0
C1640 C 0.39896 0.91082 0.08498 0.0
C1641 C 0.3963 0.90859 0.09264 0.0
C1642 C 0.40309 0.92011 0.09841 0.0
C1643 C 0.39841 0.9132 0.09934 0.0
C1644 C 0.40599 0.92206 0.09081 0.0
C1645 C 0.40398 0.91744 0.08419 0.0
U1646 U 0.38673 0.89534 0.0727 0.0
O1647 O 0.37945 0.89753 0.06201 0.0
O1648 O 0.38982 0.88947 0.06129 0.0
C1649 C 0.38373 0.89271 0.05755 0.0
C1650 C 0.3961 0.90694 0.07759 0.0
C1651 C 0.38446 0.89462 0.04899 0.0
C1652 C 0.38756 0.90343 0.03784 0.0
C1653 C 0.38794 0.90167 0.04605 0.0
C1654 C 0.38051 0.89103 0.03552 0.0
C1655 C 0.38376 0.89813 0.03256 0.0
C1656 C 0.38084 0.88932 0.04365 0.0
C1657 C 0.37451 0.88011 0.08638 0.0
C1658 C 0.36281 0.87155 0.08525 0.0
C1659 C 0.36948 0.87312 0.09797 0.0
C1660 C 0.37507 0.87811 0.09445 0.0
C1661 C 0.3631 0.87002 0.09352 0.0
C1662 C 0.36848 0.87664 0.08169 0.0
C1663 C 0.37986 0.8865 0.08361 0.0
O1664 O 0.39871 0.89972 0.07604 0.0
O1665 O 0.38851 0.90792 0.07591 0.0
O1666 O 0.37666 0.89306 0.08078 0.0
O1667 O 0.38675 0.88461 0.08036 0.0
H1668 H 0.3924 0.90349 0.09339 0.0
H1669 H 0.39605 0.91163 0.10515 0.0
H1670 H 0.40959 0.92736 0.08994 0.0
H1671 H 0.40609 0.91926 0.07835 0.0
H1672 H 0.39015 0.90892 0.03563 0.0
H1673 H 0.39076 0.90586 0.05008 0.0
H1674 H 0.3775 0.8869 0.03157 0.0
H1675 H 0.37805 0.8839 0.0458 0.0
H1676 H 0.35798 0.86919 0.08166 0.0
H1677 H 0.36999 0.87193 0.1043 0.0
H1678 H 0.37969 0.88072 0.09815 0.0
H1679 H 0.36796 0.8781 0.07541 0.0
C1680 C 0.8207 0.61657 0.81786 0.0
C1681 C 0.82352 0.61435 0.82545 0.0
C1682 C 0.81718 0.62607 0.83132 0.0
C1683 C 0.82173 0.61906 0.83215 0.0
C1684 C 0.81413 0.62804 0.82376 0.0
C1685 C 0.81587 0.62334 0.81712 0.0
U1686 U 0.83223 0.60026 0.80641 0.0
O1687 O 0.82905 0.59407 0.79523 0.0
O1688 O 0.83976 0.60159 0.79577 0.0
C1689 C 0.83509 0.59718 0.79129 0.0
C1690 C 0.82319 0.61239 0.81053 0.0
C1691 C 0.83355 0.60024 0.78317 0.0
C1692 C 0.82777 0.6098 0.77383 0.0
C1693 C 0.82846 0.60673 0.78162 0.0
C1694 C 0.8371 0.59984 0.76912 0.0
C1695 C 0.83216 0.60643 0.76748 0.0
C1696 C 0.83776 0.5968 0.77684 0.0
C1697 C 0.84458 0.5857 0.82035 0.0
C1698 C 0.85626 0.57731 0.81814 0.0
C1699 C 0.85123 0.57936 0.83153 0.0
C1700 C 0.84506 0.58405 0.82852 0.0
C1701 C 0.85702 0.57615 0.82643 0.0
C1702 C 0.85008 0.58214 0.81511 0.0
C1703 C 0.83895 0.59199 0.81791 0.0
O1704 O 0.83078 0.61306 0.80871 0.0
O1705 O 0.82037 0.60516 0.80942 0.0
O1706 O 0.83212 0.58993 0.81464 0.0
O1707 O 0.84206 0.5985 0.81487 0.0
H1708 H 0.82729 0.60914 0.82614 0.0
H1709 H 0.82417 0.6174 0.83789 0.0
H1710 H 0.8105 0.63333 0.82295 0.0
H1711 H 0.81363 0.62513 0.81133 0.0
H1712 H 0.82385 0.61483 0.7728 0.0
H1713 H 0.82516 0.6095 0.78644 0.0
H1714 H 0.84072 0.59718 0.76448 0.0
H1715 H 0.84177 0.59184 0.77791 0.0
H1716 H 0.86068 0.57489 0.8141 0.0
H1717 H 0.85167 0.57853 0.83793 0.0
H1718 H 0.84091 0.58677 0.83266 0.0
H1719 H 0.84982 0.58337 0.80877 0.0
C1720 C 0.11943 0.10584 0.58337 0.0
C1721 C 0.12358 0.10703 0.59054 0.0
C1722 C 0.11569 0.09663 0.59697 0.0
C1723 C 0.12173 0.10246 0.59728 0.0
C1724 C 0.11119 0.09585 0.58994 0.0
C1725 C 0.11307 0.1004 0.58318 0.0
U1726 U 0.13176 0.12165 0.57272 0.0
O1727 O 0.13986 0.12056 0.56249 0.0
O1728 O 0.12955 0.12863 0.56176 0.0
C1729 C 0.1357 0.12549 0.55804 0.0
C1730 C 0.12213 0.10971 0.57594 0.0
C1731 C 0.13461 0.12324 0.54959 0.0
C1732 C 0.13322 0.11338 0.53901 0.0
C1733 C 0.13318 0.11535 0.54716 0.0
C1734 C 0.13584 0.12719 0.5357 0.0
C1735 C 0.13466 0.11928 0.53319 0.0
C1736 C 0.13582 0.12913 0.5438 0.0
C1737 C 0.14319 0.1359 0.58737 0.0
C1738 C 0.15439 0.14486 0.58511 0.0
C1739 C 0.14865 0.14363 0.59831 0.0
C1740 C 0.14309 0.13818 0.59539 0.0
C1741 C 0.15445 0.14695 0.59325 0.0
C1742 C 0.14878 0.13936 0.58217 0.0
C1743 C 0.13775 0.12946 0.58492 0.0
O1744 O 0.11957 0.11702 0.57469 0.0
O1745 O 0.12976 0.10883 0.57437 0.0
O1746 O 0.14105 0.12304 0.58186 0.0
O1747 O 0.13106 0.13152 0.58139 0.0
H1748 H 0.12846 0.11126 0.59084 0.0
H1749 H 0.12522 0.1033 0.60265 0.0
H1750 H 0.10652 0.09141 0.58951 0.0
H1751 H 0.10978 0.09943 0.57771 0.0
H1752 H 0.13221 0.10724 0.53726 0.0
H1753 H 0.13224 0.11069 0.55154 0.0
H1754 H 0.13709 0.13186 0.53142 0.0
H1755 H 0.13702 0.13524 0.54554 0.0
H1756 H 0.15875 0.14736 0.58105 0.0
H1757 H 0.1486 0.14497 0.60463 0.0
H1758 H 0.13886 0.13552 0.5995 0.0
H1759 H 0.14894 0.13768 0.57594 0.0
C1760 C 0.19715 0.90057 0.81769 0.0
C1761 C 0.19442 0.90299 0.82523 0.0
C1762 C 0.20061 0.89128 0.83137 0.0
C1763 C 0.19616 0.89839 0.83202 0.0
C1764 C 0.20349 0.88905 0.8238 0.0
C1765 C 0.20178 0.89365 0.81706 0.0
U1766 U 0.1859 0.917 0.80622 0.0
O1767 O 0.18923 0.92332 0.79515 0.0
O1768 O 0.17849 0.91584 0.79548 0.0
C1769 C 0.18325 0.92026 0.7911 0.0
C1770 C 0.19479 0.90475 0.81032 0.0
C1771 C 0.18498 0.91719 0.78303 0.0
C1772 C 0.18971 0.90685 0.77398 0.0
C1773 C 0.189 0.90995 0.78174 0.0
C1774 C 0.18259 0.91829 0.76878 0.0
C1775 C 0.18637 0.91092 0.7674 0.0
C1776 C 0.18193 0.92137 0.77649 0.0
C1777 C 0.17352 0.9317 0.81981 0.0
C1778 C 0.16187 0.93998 0.81711 0.0
C1779 C 0.16683 0.93863 0.83062 0.0
C1780 C 0.17299 0.93375 0.82789 0.0
C1781 C 0.16111 0.94161 0.8253 0.0
C1782 C 0.16806 0.93501 0.81437 0.0
C1783 C 0.17913 0.92529 0.81768 0.0
O1784 O 0.18721 0.90416 0.80843 0.0
O1785 O 0.19768 0.91197 0.80926 0.0
O1786 O 0.18605 0.92724 0.81453 0.0
O1787 O 0.17601 0.9188 0.8146 0.0
H1788 H 0.19082 0.90832 0.82584 0.0
H1789 H 0.19394 0.90037 0.83775 0.0
H1790 H 0.20681 0.88358 0.823 0.0
H1791 H 0.2039 0.89167 0.81129 0.0
H1792 H 0.19276 0.90122 0.77316 0.0
H1793 H 0.1914 0.90662 0.78673 0.0
H1794 H 0.17979 0.92155 0.76396 0.0
H1795 H 0.17876 0.92694 0.77737 0.0
H1796 H 0.15745 0.94217 0.81293 0.0
H1797 H 0.1663 0.93976 0.83696 0.0
H1798 H 0.17709 0.93121 0.83219 0.0
H1799 H 0.16835 0.93345 0.8081 0.0
C1800 C 0.61927 0.41148 0.43402 0.0
C1801 C 0.62298 0.40982 0.4267 0.0
C1802 C 0.61558 0.42064 0.42036 0.0
C1803 C 0.62115 0.41436 0.41994 0.0
C1804 C 0.61154 0.42195 0.4276 0.0
C1805 C 0.6134 0.41742 0.43437 0.0
U1806 U 0.63138 0.39543 0.44464 0.0
O1807 O 0.63956 0.39633 0.45484 0.0
O1808 O 0.62901 0.38858 0.45565 0.0
C1809 C 0.63534 0.39145 0.4593 0.0
C1810 C 0.62195 0.40753 0.44142 0.0
C1811 C 0.63458 0.39361 0.46779 0.0
C1812 C 0.63022 0.40229 0.47861 0.0
C1813 C 0.63007 0.40015 0.47049 0.0
C1814 C 0.63926 0.39135 0.48132 0.0
C1815 C 0.63495 0.39798 0.48404 0.0
C1816 C 0.63904 0.38917 0.4733 0.0
C1817 C 0.64289 0.3811 0.43021 0.0
C1818 C 0.65467 0.37289 0.43241 0.0
C1819 C 0.64815 0.37288 0.41951 0.0
C1820 C 0.64246 0.37823 0.42238 0.0
C1821 C 0.65443 0.37026 0.42442 0.0
C1822 C 0.64894 0.37829 0.43528 0.0
C1823 C 0.63741 0.38757 0.43249 0.0
O1824 O 0.61929 0.40026 0.44265 0.0
O1825 O 0.6296 0.4083 0.44298 0.0
O1826 O 0.64068 0.39401 0.43552 0.0
O1827 O 0.63067 0.38556 0.43597 0.0
H1828 H 0.6275 0.40521 0.42629 0.0
H1829 H 0.62427 0.4131 0.41442 0.0
H1830 H 0.60726 0.42676 0.42814 0.0
H1831 H 0.61046 0.41877 0.43997 0.0
H1832 H 0.62686 0.40745 0.48059 0.0
H1833 H 0.62662 0.40367 0.46632 0.0
H1834 H 0.64292 0.38793 0.4854 0.0
H1835 H 0.64256 0.38412 0.47134 0.0
H1836 H 0.65938 0.37092 0.43637 0.0
H1837 H 0.64784 0.37112 0.41331 0.0
H1838 H 0.63788 0.38039 0.41836 0.0
H1839 H 0.64937 0.38044 0.44136 0.0
C1840 C 0.82046 0.40053 0.69998 0.0
C1841 C 0.82165 0.40358 0.69225 0.0
C1842 C 0.81709 0.391 0.68651 0.0
C1843 C 0.81992 0.39886 0.68555 0.0
C1844 C 0.8157 0.38813 0.69426 0.0
C1845 C 0.81737 0.39284 0.7009 0.0
U1846 U 0.83184 0.41706 0.71131 0.0
O1847 O 0.82844 0.42344 0.72234 0.0
O1848 O 0.83913 0.41587 0.72211 0.0
C1849 C 0.83438 0.42035 0.72643 0.0
C1850 C 0.82284 0.4049 0.70723 0.0
C1851 C 0.83268 0.41743 0.73457 0.0
C1852 C 0.82881 0.40695 0.74392 0.0
C1853 C 0.82911 0.40998 0.73608 0.0
C1854 C 0.83529 0.41892 0.74874 0.0
C1855 C 0.83217 0.41129 0.75028 0.0
C1856 C 0.83553 0.42194 0.74098 0.0
C1857 C 0.84446 0.43139 0.69734 0.0
C1858 C 0.85606 0.43989 0.69953 0.0
C1859 C 0.85115 0.43762 0.68613 0.0
C1860 C 0.84501 0.43293 0.68915 0.0
C1861 C 0.85688 0.44095 0.69124 0.0
C1862 C 0.8499 0.43505 0.70258 0.0
C1863 C 0.8388 0.42513 0.69982 0.0
O1864 O 0.83038 0.40422 0.70921 0.0
O1865 O 0.82004 0.41217 0.70812 0.0
O1866 O 0.83191 0.42725 0.70291 0.0
O1867 O 0.84186 0.41868 0.70304 0.0
H1868 H 0.82408 0.40951 0.69142 0.0
H1869 H 0.82107 0.40122 0.67964 0.0
H1870 H 0.81342 0.38215 0.69519 0.0
H1871 H 0.81641 0.39038 0.7068 0.0
H1872 H 0.82639 0.40104 0.74493 0.0
H1873 H 0.82688 0.40639 0.7312 0.0
H1874 H 0.83783 0.42245 0.75351 0.0
H1875 H 0.8383 0.42769 0.73995 0.0
H1876 H 0.86043 0.4424 0.70357 0.0
H1877 H 0.85164 0.43839 0.67973 0.0
H1878 H 0.8409 0.43014 0.68502 0.0
H1879 H 0.84959 0.4339 0.70893 0.0
C1880 C 0.69756 0.6167 0.20001 0.0
C1881 C 0.6961 0.61373 0.1923 0.0
C1882 C 0.7009 0.62619 0.18652 0.0
C1883 C 0.69782 0.61844 0.18558 0.0
C1884 C 0.70253 0.62901 0.19423 0.0
C1885 C 0.7009 0.62429 0.20089 0.0
U1886 U 0.68632 0.60006 0.21132 0.0
O1887 O 0.68974 0.59367 0.22233 0.0
O1888 O 0.67896 0.6011 0.2221 0.0
C1889 C 0.68378 0.59669 0.22644 0.0
C1890 C 0.69521 0.61233 0.20728 0.0
C1891 C 0.68556 0.59982 0.23447 0.0
C1892 C 0.68987 0.61049 0.24333 0.0
C1893 C 0.68937 0.6072 0.23564 0.0
C1894 C 0.68318 0.59889 0.24875 0.0
C1895 C 0.68664 0.60641 0.24991 0.0
C1896 C 0.68264 0.59563 0.2411 0.0
C1897 C 0.67383 0.5855 0.19774 0.0
C1898 C 0.6622 0.57723 0.20054 0.0
C1899 C 0.667 0.57865 0.18698 0.0
C1900 C 0.67319 0.5835 0.18966 0.0
C1901 C 0.66133 0.57566 0.19236 0.0
C1902 C 0.66843 0.58217 0.20324 0.0
C1903 C 0.67947 0.59189 0.19984 0.0
O1904 O 0.68764 0.61292 0.20923 0.0
O1905 O 0.69808 0.6051 0.20821 0.0
O1906 O 0.68641 0.58989 0.20293 0.0
O1907 O 0.67638 0.59836 0.20299 0.0
H1908 H 0.69346 0.60788 0.1915 0.0
H1909 H 0.69647 0.61617 0.17968 0.0
H1910 H 0.70492 0.63495 0.1951 0.0
H1911 H 0.70206 0.62669 0.20678 0.0
H1912 H 0.69248 0.61636 0.24411 0.0
H1913 H 0.69163 0.61055 0.2306 0.0
H1914 H 0.68053 0.59572 0.25372 0.0
H1915 H 0.67963 0.58997 0.24032 0.0
H1916 H 0.65783 0.57502 0.20476 0.0
H1917 H 0.66638 0.57757 0.18064 0.0
H1918 H 0.67725 0.58606 0.18532 0.0
H1919 H 0.6688 0.58369 0.20951 0.0
C1920 C 0.5841 0.61601 0.90935 0.0
C1921 C 0.59148 0.61959 0.90764 0.0
C1922 C 0.59762 0.61244 0.91872 0.0
C1923 C 0.59818 0.61782 0.9123 0.0
C1924 C 0.59035 0.60848 0.92006 0.0
C1925 C 0.58363 0.61029 0.91543 0.0
U1926 U 0.57351 0.62845 0.8935 0.0
O1927 O 0.56232 0.62634 0.88685 0.0
O1928 O 0.56345 0.63674 0.89474 0.0
C1929 C 0.55884 0.63268 0.88989 0.0
C1930 C 0.57673 0.6188 0.90543 0.0
C1931 C 0.55033 0.63212 0.89212 0.0
C1932 C 0.53948 0.62861 0.90118 0.0
C1933 C 0.54757 0.62806 0.89893 0.0
C1934 C 0.53693 0.63705 0.88974 0.0
C1935 C 0.53414 0.63333 0.89671 0.0
C1936 C 0.54491 0.63644 0.88748 0.0
C1937 C 0.58779 0.64022 0.87922 0.0
C1938 C 0.58529 0.65216 0.87135 0.0
C1939 C 0.59843 0.64614 0.87134 0.0
C1940 C 0.59569 0.64018 0.87647 0.0
C1941 C 0.59333 0.65231 0.86886 0.0
C1942 C 0.58253 0.64614 0.87648 0.0
C1943 C 0.58561 0.63453 0.88556 0.0
O1944 O 0.57526 0.62644 0.90632 0.0
O1945 O 0.57548 0.61627 0.89812 0.0
O1946 O 0.58199 0.62791 0.88342 0.0
O1947 O 0.58275 0.63762 0.89216 0.0
H1948 H 0.59197 0.624 0.90294 0.0
H1949 H 0.60374 0.62089 0.91107 0.0
H1950 H 0.58974 0.60434 0.92499 0.0
H1951 H 0.57799 0.60747 0.91684 0.0
H1952 H 0.53748 0.62565 0.90657 0.0
H1953 H 0.55168 0.62468 0.9026 0.0
H1954 H 0.53295 0.6406 0.88609 0.0
H1955 H 0.54691 0.6396 0.8822 0.0
H1956 H 0.58121 0.65681 0.86948 0.0
H1957 H 0.60467 0.64613 0.86963 0.0
H1958 H 0.59986 0.6357 0.87857 0.0
H1959 H 0.5764 0.64627 0.87854 0.0
C1960 C 0.61855 0.31818 0.19494 0.0
C1961 C 0.61751 0.32524 0.19053 0.0
C1962 C 0.62779 0.33175 0.19844 0.0
C1963 C 0.62215 0.33198 0.19225 0.0
C1964 C 0.62857 0.32482 0.20304 0.0
C1965 C 0.62399 0.31807 0.20128 0.0
U1966 U 0.60236 0.30653 0.18371 0.0
O1967 O 0.60346 0.29566 0.17652 0.0
O1968 O 0.59587 0.29562 0.18722 0.0
C1969 C 0.59896 0.29143 0.18135 0.0
C1970 C 0.61451 0.31072 0.19266 0.0
C1971 C 0.60194 0.28339 0.18326 0.0
C1972 C 0.61265 0.27427 0.187 0.0
C1973 C 0.60957 0.28206 0.18651 0.0
C1974 C 0.60033 0.26914 0.18145 0.0
C1975 C 0.60815 0.26776 0.18417 0.0
C1976 C 0.59728 0.27686 0.18099 0.0
C1977 C 0.58763 0.3198 0.17114 0.0
C1978 C 0.57991 0.31711 0.15912 0.0
C1979 C 0.57988 0.33033 0.16495 0.0
C1980 C 0.58484 0.32767 0.17106 0.0
C1981 C 0.57756 0.32515 0.15882 0.0
C1982 C 0.58496 0.31444 0.16527 0.0
C1983 C 0.59412 0.3179 0.17675 0.0
O1984 O 0.60728 0.30963 0.19551 0.0
O1985 O 0.61519 0.30871 0.18512 0.0
O1986 O 0.6006 0.31474 0.17367 0.0
O1987 O 0.59219 0.31494 0.18375 0.0
H1988 H 0.61331 0.32545 0.18562 0.0
H1989 H 0.62148 0.3373 0.18863 0.0
H1990 H 0.63294 0.32452 0.2078 0.0
H1991 H 0.62489 0.31267 0.20473 0.0
H1992 H 0.61868 0.2734 0.18914 0.0
H1993 H 0.61326 0.28705 0.18833 0.0
H1994 H 0.59665 0.26424 0.17939 0.0
H1995 H 0.59138 0.27776 0.1785 0.0
H1996 H 0.57823 0.31306 0.15439 0.0
H1997 H 0.5782 0.33657 0.16477 0.0
H1998 H 0.58689 0.33191 0.17549 0.0
H1999 H 0.58708 0.30834 0.16522 0.0
C2000 C 0.93398 0.40071 0.40924 0.0
C2001 C 0.92656 0.39725 0.40748 0.0
C2002 C 0.92049 0.4043 0.41866 0.0
C2003 C 0.91988 0.39903 0.41216 0.0
C2004 C 0.92782 0.40813 0.42008 0.0
C2005 C 0.93452 0.40631 0.41542 0.0
U2006 U 0.94454 0.38825 0.39335 0.0
O2007 O 0.95561 0.39049 0.38655 0.0
O2008 O 0.95474 0.38014 0.39457 0.0
C2009 C 0.95924 0.38427 0.38966 0.0
C2010 C 0.94131 0.39794 0.40525 0.0
C2011 C 0.9677 0.3851 0.3919 0.0
C2012 C 0.9783 0.38787 0.40148 0.0
C2013 C 0.97023 0.38839 0.39919 0.0
C2014 C 0.98131 0.38106 0.3891 0.0
C2015 C 0.98385 0.38394 0.39654 0.0
C2016 C 0.97335 0.38165 0.38681 0.0
C2017 C 0.92998 0.37634 0.37931 0.0
C2018 C 0.93256 0.36595 0.36948 0.0
C2019 C 0.91897 0.36959 0.37277 0.0
C2020 C 0.92179 0.3753 0.3781 0.0
C2021 C 0.92427 0.36476 0.3684 0.0
C2022 C 0.93539 0.37168 0.37491 0.0
C2023 C 0.93244 0.38199 0.38557 0.0
O2024 O 0.94285 0.39031 0.40616 0.0
O2025 O 0.94245 0.40043 0.3979 0.0
O2026 O 0.93597 0.38863 0.38335 0.0
O2027 O 0.93544 0.37889 0.39212 0.0
H2028 H 0.92602 0.39293 0.40271 0.0
H2029 H 0.91428 0.39607 0.41086 0.0
H2030 H 0.92849 0.41217 0.42506 0.0
H2031 H 0.9402 0.40904 0.41686 0.0
H2032 H 0.98012 0.39017 0.40723 0.0
H2033 H 0.96594 0.39108 0.40321 0.0
H2034 H 0.98547 0.37811 0.38513 0.0
H2035 H 0.97152 0.37907 0.38117 0.0
H2036 H 0.93684 0.3624 0.36619 0.0
H2037 H 0.91258 0.36878 0.37235 0.0
H2038 H 0.91752 0.37879 0.38148 0.0
H2039 H 0.94176 0.37239 0.37578 0.0
C2040 C 0.8997 0.69973 0.69479 0.0
C2041 C 0.90138 0.69231 0.6913 0.0
C2042 C 0.89036 0.68617 0.6987 0.0
C2043 C 0.89674 0.6856 0.69322 0.0
C2044 C 0.88897 0.69359 0.70239 0.0
C2045 C 0.89355 0.70028 0.70041 0.0
U2046 U 0.91616 0.71116 0.68342 0.0
O2047 O 0.91513 0.72204 0.6762 0.0
O2048 O 0.92264 0.72209 0.68692 0.0
C2049 C 0.91956 0.7263 0.68106 0.0
C2050 C 0.90391 0.70707 0.69235 0.0
C2051 C 0.91636 0.73424 0.68309 0.0
C2052 C 0.90536 0.74286 0.68707 0.0
C2053 C 0.90868 0.73521 0.68633 0.0
C2054 C 0.91754 0.74864 0.68184 0.0
C2055 C 0.90973 0.74961 0.68469 0.0
C2056 C 0.92081 0.74101 0.68101 0.0
C2057 C 0.93084 0.69771 0.67089 0.0
C2058 C 0.93882 0.70029 0.65901 0.0
C2059 C 0.93832 0.68701 0.66467 0.0
C2060 C 0.93335 0.68975 0.67074 0.0
C2061 C 0.94093 0.69219 0.65865 0.0
C2062 C 0.93376 0.70306 0.66511 0.0
C2063 C 0.92437 0.69976 0.67648 0.0
O2064 O 0.91115 0.70809 0.6952 0.0
O2065 O 0.9033 0.70897 0.68478 0.0
O2066 O 0.91792 0.70296 0.67338 0.0
O2067 O 0.9263 0.70273 0.68348 0.0
H2068 H 0.90612 0.69175 0.68694 0.0
H2069 H 0.898 0.68005 0.69018 0.0
H2070 H 0.8843 0.69429 0.70679 0.0
H2071 H 0.89219 0.70595 0.70319 0.0
H2072 H 0.89932 0.74349 0.68929 0.0
H2073 H 0.90515 0.73005 0.68798 0.0
H2074 H 0.92097 0.75376 0.67988 0.0
H2075 H 0.92671 0.74038 0.67845 0.0
H2076 H 0.94073 0.70436 0.65436 0.0
H2077 H 0.93981 0.68072 0.66444 0.0
H2078 H 0.93111 0.68553 0.67509 0.0
H2079 H 0.93185 0.70923 0.66511 0.0
C2080 C 0.58418 0.40124 0.6081 0.0
C2081 C 0.59157 0.3977 0.60983 0.0
C2082 C 0.59771 0.40481 0.59871 0.0
C2083 C 0.59828 0.39946 0.60517 0.0
C2084 C 0.59042 0.40874 0.59735 0.0
C2085 C 0.58371 0.40693 0.60199 0.0
U2086 U 0.57353 0.38885 0.62398 0.0
O2087 O 0.5623 0.39098 0.63057 0.0
O2088 O 0.56349 0.38053 0.62274 0.0
C2089 C 0.55885 0.38461 0.62756 0.0
C2090 C 0.57681 0.39846 0.61203 0.0
C2091 C 0.55034 0.3851 0.62533 0.0
C2092 C 0.53939 0.38899 0.61654 0.0
C2093 C 0.54749 0.38954 0.6188 0.0
C2094 C 0.53704 0.37977 0.62742 0.0
C2095 C 0.53416 0.38389 0.62072 0.0
C2096 C 0.54502 0.38037 0.62968 0.0
C2097 C 0.58782 0.37707 0.63828 0.0
C2098 C 0.58529 0.36519 0.64625 0.0
C2099 C 0.5985 0.37105 0.64602 0.0
C2100 C 0.59576 0.37701 0.6409 0.0
C2101 C 0.59336 0.36496 0.64861 0.0
C2102 C 0.58253 0.37123 0.64113 0.0
C2103 C 0.58561 0.38277 0.63195 0.0
O2104 O 0.57533 0.39082 0.61117 0.0
O2105 O 0.57555 0.40101 0.61934 0.0
O2106 O 0.58198 0.38938 0.63409 0.0
O2107 O 0.58277 0.37967 0.62535 0.0
H2108 H 0.59207 0.39331 0.61455 0.0
H2109 H 0.60384 0.39642 0.60643 0.0
H2110 H 0.58979 0.41284 0.5924 0.0
H2111 H 0.57805 0.40972 0.60057 0.0
H2112 H 0.53732 0.39226 0.61137 0.0
H2113 H 0.55152 0.39323 0.61536 0.0
H2114 H 0.53314 0.37592 0.63085 0.0
H2115 H 0.54709 0.37692 0.63474 0.0
H2116 H 0.58119 0.36059 0.6482 0.0
H2117 H 0.60477 0.37097 0.64763 0.0
H2118 H 0.59995 0.38142 0.6387 0.0
H2119 H 0.57636 0.37117 0.63918 0.0
C2120 C 0.89974 0.31773 0.82228 0.0
C2121 C 0.90098 0.32491 0.8264 0.0
C2122 C 0.89025 0.33123 0.81883 0.0
C2123 C 0.89629 0.33161 0.82467 0.0
C2124 C 0.8893 0.32411 0.8145 0.0
C2125 C 0.894 0.31744 0.81622 0.0
U2126 U 0.91605 0.30632 0.83365 0.0
O2127 O 0.91497 0.29549 0.84091 0.0
O2128 O 0.92257 0.2954 0.83023 0.0
C2129 C 0.91949 0.29124 0.83612 0.0
C2130 C 0.90388 0.31034 0.82461 0.0
C2131 C 0.91653 0.28318 0.83428 0.0
C2132 C 0.90604 0.27404 0.83003 0.0
C2133 C 0.90916 0.28182 0.8305 0.0
C2134 C 0.91782 0.26898 0.8367 0.0
C2135 C 0.91022 0.26759 0.83341 0.0
C2136 C 0.92091 0.27668 0.83715 0.0
C2137 C 0.93062 0.31971 0.84628 0.0
C2138 C 0.9384 0.31701 0.85827 0.0
C2139 C 0.93834 0.33026 0.8525 0.0
C2140 C 0.93334 0.32761 0.84641 0.0
C2141 C 0.94075 0.32505 0.85857 0.0
C2142 C 0.93334 0.31434 0.85213 0.0
C2143 C 0.92417 0.31776 0.84063 0.0
O2144 O 0.91115 0.30936 0.82181 0.0
O2145 O 0.9032 0.30837 0.83216 0.0
O2146 O 0.91768 0.31458 0.84366 0.0
O2147 O 0.92616 0.31479 0.83365 0.0
H2148 H 0.90543 0.32527 0.83107 0.0
H2149 H 0.89731 0.33704 0.82801 0.0
H2150 H 0.88469 0.32356 0.81001 0.0
H2151 H 0.89296 0.31194 0.81298 0.0
H2152 H 0.90018 0.27314 0.82744 0.0
H2153 H 0.90569 0.28678 0.82824 0.0
H2154 H 0.92126 0.26412 0.83922 0.0
H2155 H 0.92661 0.2776 0.84006 0.0
H2156 H 0.94014 0.31293 0.86296 0.0
H2157 H 0.94 0.3365 0.85269 0.0
H2158 H 0.93125 0.33186 0.84201 0.0
H2159 H 0.93127 0.30822 0.85215 0.0
C2160 C 0.93367 0.61638 0.10795 0.0
C2161 C 0.92598 0.61892 0.11014 0.0
C2162 C 0.92039 0.61236 0.09844 0.0
C2163 C 0.91938 0.61694 0.10538 0.0
C2164 C 0.92802 0.60952 0.09649 0.0
C2165 C 0.9346 0.61153 0.1012 0.0
U2166 U 0.94414 0.62889 0.12409 0.0
O2167 O 0.95554 0.62685 0.13039 0.0
O2168 O 0.95406 0.63736 0.12268 0.0
C2169 C 0.95884 0.6333 0.12738 0.0
C2170 C 0.94085 0.61941 0.11204 0.0
C2171 C 0.96735 0.63301 0.12512 0.0
C2172 C 0.97868 0.62822 0.11731 0.0
C2173 C 0.97048 0.62795 0.1192 0.0
C2174 C 0.98056 0.63859 0.12716 0.0
C2175 C 0.98383 0.63353 0.12134 0.0
C2176 C 0.97247 0.6383 0.12904 0.0
C2177 C 0.92999 0.64039 0.13881 0.0
C2178 C 0.93309 0.65124 0.14796 0.0
C2179 C 0.91932 0.64764 0.14542 0.0
C2180 C 0.92185 0.64159 0.1403 0.0
C2181 C 0.9249 0.65262 0.14916 0.0
C2182 C 0.93564 0.64512 0.14281 0.0
C2183 C 0.93217 0.63473 0.13243 0.0
O2184 O 0.94208 0.62711 0.11129 0.0
O2185 O 0.94219 0.61678 0.11931 0.0
O2186 O 0.93599 0.62818 0.13444 0.0
O2187 O 0.93479 0.63791 0.12576 0.0
H2188 H 0.92514 0.62271 0.1153 0.0
H2189 H 0.91355 0.61927 0.10692 0.0
H2190 H 0.92894 0.60611 0.09108 0.0
H2191 H 0.94049 0.60959 0.09938 0.0
H2192 H 0.98101 0.62423 0.11279 0.0
H2193 H 0.96661 0.62384 0.11607 0.0
H2194 H 0.98424 0.6429 0.13025 0.0
H2195 H 0.97017 0.64232 0.13356 0.0
H2196 H 0.93747 0.65511 0.15071 0.0
H2197 H 0.91298 0.6487 0.14614 0.0
H2198 H 0.91741 0.63805 0.13722 0.0
H2199 H 0.94196 0.64431 0.14171 0.0
C2200 C 0.6186 0.69898 0.32294 0.0
C2201 C 0.61715 0.69177 0.32695 0.0
C2202 C 0.62788 0.68535 0.31946 0.0
C2203 C 0.62174 0.685 0.32521 0.0
C2204 C 0.62906 0.69253 0.31528 0.0
C2205 C 0.62445 0.69926 0.31699 0.0
U2206 U 0.60239 0.7105 0.33427 0.0
O2207 O 0.60347 0.72141 0.3414 0.0
O2208 O 0.59583 0.72137 0.33075 0.0
C2209 C 0.59892 0.7256 0.33659 0.0
C2210 C 0.61451 0.7064 0.32523 0.0
C2211 C 0.60186 0.73365 0.33464 0.0
C2212 C 0.61241 0.74279 0.33054 0.0
C2213 C 0.60934 0.735 0.33107 0.0
C2214 C 0.60037 0.74788 0.3367 0.0
C2215 C 0.60806 0.74927 0.33364 0.0
C2216 C 0.59733 0.74016 0.33721 0.0
C2217 C 0.58768 0.69751 0.34704 0.0
C2218 C 0.58101 0.69961 0.35978 0.0
C2219 C 0.57816 0.68777 0.35202 0.0
C2220 C 0.58343 0.69037 0.34612 0.0
C2221 C 0.57705 0.69225 0.35901 0.0
C2222 C 0.58627 0.70225 0.35381 0.0
C2223 C 0.59422 0.69917 0.34138 0.0
O2224 O 0.60725 0.7074 0.32244 0.0
O2225 O 0.61523 0.70841 0.33277 0.0
O2226 O 0.60075 0.70233 0.34435 0.0
O2227 O 0.59231 0.702 0.33432 0.0
H2228 H 0.61262 0.69143 0.33155 0.0
H2229 H 0.62055 0.67954 0.32844 0.0
H2230 H 0.63376 0.69309 0.31088 0.0
H2231 H 0.62565 0.70478 0.31385 0.0
H2232 H 0.61834 0.74368 0.32813 0.0
H2233 H 0.61292 0.73003 0.32903 0.0
H2234 H 0.5968 0.75276 0.33899 0.0
H2235 H 0.59154 0.73925 0.33996 0.0
H2236 H 0.58023 0.70319 0.36509 0.0
H2237 H 0.57531 0.68202 0.3513 0.0
H2238 H 0.5845 0.68659 0.34099 0.0
H2239 H 0.58948 0.70779 0.35465 0.0
C2240 C 0.9098 0.58378 0.61664 0.0
C2241 C 0.90778 0.59124 0.61985 0.0
C2242 C 0.91914 0.59736 0.61307 0.0
C2243 C 0.91241 0.59797 0.61808 0.0
C2244 C 0.92084 0.58996 0.6095 0.0
C2245 C 0.91622 0.58324 0.6113 0.0
U2246 U 0.89359 0.573 0.6286 0.0
O2247 O 0.88706 0.56182 0.62611 0.0
O2248 O 0.89466 0.56281 0.63676 0.0
C2249 C 0.88995 0.55825 0.63247 0.0
C2250 C 0.90579 0.57644 0.61936 0.0
C2251 C 0.89225 0.54979 0.63182 0.0
C2252 C 0.90177 0.53915 0.629 0.0
C2253 C 0.89947 0.54721 0.62839 0.0
C2254 C 0.88956 0.53626 0.63617 0.0
C2255 C 0.89693 0.53367 0.63315 0.0
C2256 C 0.88725 0.54421 0.63551 0.0
C2257 C 0.8788 0.58731 0.63996 0.0
C2258 C 0.87128 0.5859 0.65233 0.0
C2259 C 0.87079 0.59829 0.64493 0.0
C2260 C 0.87576 0.59504 0.63911 0.0
C2261 C 0.86876 0.5939 0.65178 0.0
C2262 C 0.87632 0.58263 0.64646 0.0
C2263 C 0.88533 0.58493 0.63455 0.0
O2264 O 0.90645 0.57496 0.62703 0.0
O2265 O 0.89856 0.57515 0.61659 0.0
O2266 O 0.88345 0.5814 0.62781 0.0
O2267 O 0.89181 0.58204 0.63789 0.0
H2268 H 0.90282 0.5918 0.62396 0.0
H2269 H 0.91087 0.60361 0.62082 0.0
H2270 H 0.92599 0.58926 0.60567 0.0
H2271 H 0.91787 0.57753 0.60877 0.0
H2272 H 0.90747 0.53729 0.62659 0.0
H2273 H 0.90342 0.55145 0.62552 0.0
H2274 H 0.88565 0.53216 0.63929 0.0
H2275 H 0.88166 0.54608 0.63818 0.0
H2276 H 0.86981 0.58236 0.65753 0.0
H2277 H 0.86884 0.60441 0.64424 0.0
H2278 H 0.87759 0.59874 0.63414 0.0
H2279 H 0.87859 0.57663 0.64722 0.0
C2280 C 0.69952 0.69472 0.89915 0.0
C2281 C 0.69222 0.69101 0.90092 0.0
C2282 C 0.68583 0.69812 0.88991 0.0
C2283 C 0.68542 0.69272 0.89635 0.0
C2284 C 0.69314 0.70197 0.88837 0.0
C2285 C 0.69989 0.7003 0.89296 0.0
U2286 U 0.71106 0.6836 0.9155 0.0
O2287 O 0.72198 0.67645 0.9145 0.0
O2288 O 0.72194 0.68718 0.92202 0.0
C2289 C 0.72618 0.68133 0.91897 0.0
C2290 C 0.70695 0.69247 0.90327 0.0
C2291 C 0.73421 0.6833 0.91597 0.0
C2292 C 0.74331 0.68679 0.90518 0.0
C2293 C 0.73551 0.68627 0.90824 0.0
C2294 C 0.74849 0.68183 0.91773 0.0
C2295 C 0.74985 0.68426 0.90982 0.0
C2296 C 0.74076 0.68133 0.92075 0.0
C2297 C 0.69783 0.67104 0.93022 0.0
C2298 C 0.70068 0.65914 0.93806 0.0
C2299 C 0.68737 0.6648 0.93805 0.0
C2300 C 0.68995 0.67088 0.933 0.0
C2301 C 0.69265 0.65878 0.94045 0.0
C2302 C 0.70328 0.66527 0.93295 0.0
C2303 C 0.69968 0.67663 0.92371 0.0
O2304 O 0.70795 0.69536 0.91049 0.0
O2305 O 0.70896 0.68493 0.90265 0.0
O2306 O 0.70288 0.67355 0.91726 0.0
O2307 O 0.70259 0.68366 0.9256 0.0
H2308 H 0.69182 0.68669 0.90571 0.0
H2309 H 0.67988 0.68974 0.89781 0.0
H2310 H 0.69375 0.70607 0.88342 0.0
H2311 H 0.70548 0.70319 0.8915 0.0
H2312 H 0.74418 0.68871 0.89908 0.0
H2313 H 0.73051 0.68785 0.90446 0.0
H2314 H 0.75341 0.68 0.92151 0.0
H2315 H 0.73987 0.67905 0.92674 0.0
H2316 H 0.70481 0.65448 0.93979 0.0
H2317 H 0.68114 0.66455 0.93974 0.0
H2318 H 0.68564 0.67523 0.93091 0.0
H2319 H 0.70938 0.66528 0.93083 0.0
C2320 C 0.60905 0.43269 0.11544 0.0
C2321 C 0.6107 0.42536 0.11914 0.0
C2322 C 0.59967 0.41915 0.11194 0.0
C2323 C 0.60604 0.41864 0.1174 0.0
C2324 C 0.59843 0.42635 0.10784 0.0
C2325 C 0.60307 0.43307 0.1096 0.0
U2326 U 0.6244 0.44439 0.12789 0.0
O2327 O 0.63038 0.4559 0.12543 0.0
O2328 O 0.62239 0.45465 0.13579 0.0
C2329 C 0.62718 0.45932 0.13172 0.0
C2330 C 0.61279 0.44017 0.1182 0.0
C2331 C 0.62522 0.4679 0.13147 0.0
C2332 C 0.61717 0.47941 0.12759 0.0
C2333 C 0.61912 0.47126 0.12676 0.0
C2334 C 0.62751 0.48081 0.13757 0.0
C2335 C 0.62121 0.48421 0.1332 0.0
C2336 C 0.62945 0.4728 0.13673 0.0
C2337 C 0.63917 0.43081 0.14032 0.0
C2338 C 0.64695 0.43315 0.15237 0.0
C2339 C 0.64688 0.42007 0.14627 0.0
C2340 C 0.64185 0.4229 0.14027 0.0
C2341 C 0.64935 0.42509 0.1525 0.0
C2342 C 0.64189 0.43601 0.1463 0.0
C2343 C 0.63287 0.43297 0.13455 0.0
O2344 O 0.61174 0.44178 0.1258 0.0
O2345 O 0.62009 0.44164 0.11574 0.0
O2346 O 0.63497 0.43649 0.12787 0.0
O2347 O 0.62612 0.43565 0.13751 0.0
H2348 H 0.61533 0.42493 0.12364 0.0
H2349 H 0.60721 0.41313 0.12057 0.0
H2350 H 0.59355 0.42695 0.10365 0.0
H2351 H 0.60171 0.43867 0.10669 0.0
H2352 H 0.61232 0.48187 0.12409 0.0
H2353 H 0.61578 0.46758 0.12264 0.0
H2354 H 0.6309 0.48435 0.14178 0.0
H2355 H 0.63418 0.47034 0.14039 0.0
H2356 H 0.64882 0.43719 0.15705 0.0
H2357 H 0.64849 0.41381 0.14625 0.0
H2358 H 0.63976 0.41878 0.13576 0.0
H2359 H 0.63989 0.44215 0.14645 0.0
C2360 C 0.81806 0.32235 0.39908 0.0
C2361 C 0.8256 0.32508 0.40152 0.0
C2362 C 0.83173 0.3189 0.38982 0.0
C2363 C 0.83238 0.32335 0.39693 0.0
C2364 C 0.82417 0.31603 0.38757 0.0
C2365 C 0.81742 0.31774 0.39216 0.0
U2366 U 0.80676 0.33354 0.4156 0.0
O2367 O 0.79587 0.34074 0.41465 0.0
O2368 O 0.79588 0.33 0.42216 0.0
C2369 C 0.79166 0.33588 0.41914 0.0
C2370 C 0.81073 0.32465 0.40333 0.0
C2371 C 0.78361 0.33396 0.41615 0.0
C2372 C 0.77451 0.33018 0.40546 0.0
C2373 C 0.7823 0.33067 0.40855 0.0
C2374 C 0.76935 0.33581 0.41771 0.0
C2375 C 0.76799 0.33305 0.40991 0.0
C2376 C 0.77707 0.33629 0.42078 0.0
C2377 C 0.82009 0.34612 0.43021 0.0
C2378 C 0.81727 0.35802 0.43805 0.0
C2379 C 0.83058 0.35236 0.43799 0.0
C2380 C 0.82798 0.34628 0.43296 0.0
C2381 C 0.82531 0.35838 0.44042 0.0
C2382 C 0.81466 0.3519 0.43295 0.0
C2383 C 0.8182 0.34051 0.42373 0.0
O2384 O 0.80981 0.32179 0.41057 0.0
O2385 O 0.80876 0.33221 0.40273 0.0
O2386 O 0.81498 0.34358 0.41728 0.0
O2387 O 0.81528 0.33349 0.42566 0.0
H2388 H 0.82621 0.32866 0.40686 0.0
H2389 H 0.83812 0.32556 0.39892 0.0
H2390 H 0.82339 0.31269 0.3821 0.0
H2391 H 0.81164 0.31563 0.39018 0.0
H2392 H 0.77365 0.328 0.39944 0.0
H2393 H 0.7873 0.32881 0.40489 0.0
H2394 H 0.76444 0.33792 0.42136 0.0
H2395 H 0.77795 0.33881 0.42666 0.0
H2396 H 0.81315 0.36268 0.4398 0.0
H2397 H 0.83682 0.35261 0.43966 0.0
H2398 H 0.83228 0.34193 0.43085 0.0
H2399 H 0.80854 0.35189 0.43086 0.0
C2400 C 0.91022 0.43377 0.90047 0.0
C2401 C 0.90801 0.42599 0.89828 0.0
C2402 C 0.91991 0.42064 0.90484 0.0
C2403 C 0.91282 0.41947 0.90046 0.0
C2404 C 0.92183 0.42843 0.90732 0.0
C2405 C 0.91706 0.4349 0.90512 0.0
U2406 U 0.8938 0.44408 0.88807 0.0
O2407 O 0.88707 0.45515 0.89052 0.0
O2408 O 0.89491 0.45437 0.88004 0.0
C2409 C 0.89007 0.45884 0.88428 0.0
C2410 C 0.90591 0.44085 0.89751 0.0
C2411 C 0.89231 0.46731 0.88512 0.0
C2412 C 0.90188 0.47794 0.88787 0.0
C2413 C 0.89964 0.46985 0.88834 0.0
C2414 C 0.88939 0.48095 0.88124 0.0
C2415 C 0.89686 0.48351 0.88405 0.0
C2416 C 0.88715 0.47296 0.88178 0.0
C2417 C 0.87954 0.42956 0.8763 0.0
C2418 C 0.86963 0.43203 0.86595 0.0
C2419 C 0.87304 0.41849 0.86962 0.0
C2420 C 0.87838 0.42136 0.8753 0.0
C2421 C 0.86861 0.42374 0.86479 0.0
C2422 C 0.87508 0.43492 0.87165 0.0
C2423 C 0.88589 0.43205 0.88185 0.0
O2424 O 0.90666 0.44226 0.88985 0.0
O2425 O 0.89859 0.44192 0.90014 0.0
O2426 O 0.88377 0.43554 0.88855 0.0
O2427 O 0.89237 0.43508 0.87866 0.0
H2428 H 0.90274 0.42499 0.89468 0.0
H2429 H 0.91115 0.41358 0.89841 0.0
H2430 H 0.92711 0.42957 0.91085 0.0
H2431 H 0.91884 0.44086 0.90689 0.0
H2432 H 0.90766 0.47977 0.89011 0.0
H2433 H 0.90372 0.46557 0.89095 0.0
H2434 H 0.88535 0.48511 0.87839 0.0
H2435 H 0.88148 0.47114 0.87927 0.0
H2436 H 0.86629 0.43627 0.8624 0.0
H2437 H 0.87267 0.41209 0.86883 0.0
H2438 H 0.88182 0.41713 0.87878 0.0
H2439 H 0.87592 0.44129 0.87232 0.0
C2440 C 0.81822 0.69495 0.11822 0.0
C2441 C 0.82568 0.69169 0.11625 0.0
C2442 C 0.83176 0.69844 0.12764 0.0
C2443 C 0.8324 0.69344 0.12091 0.0
C2444 C 0.82431 0.70188 0.12939 0.0
C2445 C 0.81762 0.70015 0.12473 0.0
U2446 U 0.8069 0.68361 0.1018 0.0
O2447 O 0.79597 0.67649 0.10284 0.0
O2448 O 0.79605 0.68715 0.09521 0.0
C2449 C 0.79178 0.68136 0.09834 0.0
C2450 C 0.8109 0.6926 0.11399 0.0
C2451 C 0.78378 0.68342 0.10136 0.0
C2452 C 0.77467 0.68646 0.11229 0.0
C2453 C 0.78248 0.6859 0.10927 0.0
C2454 C 0.76946 0.68259 0.09939 0.0
C2455 C 0.7681 0.68449 0.10745 0.0
C2456 C 0.77721 0.68204 0.0964 0.0
C2457 C 0.82025 0.67091 0.08723 0.0
C2458 C 0.81749 0.659 0.07937 0.0
C2459 C 0.83077 0.6647 0.07947 0.0
C2460 C 0.82815 0.67077 0.08451 0.0
C2461 C 0.82553 0.65867 0.07702 0.0
C2462 C 0.81484 0.66512 0.08447 0.0
C2463 C 0.81831 0.67655 0.0937 0.0
O2464 O 0.81 0.6954 0.10672 0.0
O2465 O 0.80893 0.68505 0.11465 0.0
O2466 O 0.81507 0.67351 0.10015 0.0
O2467 O 0.81542 0.68357 0.09173 0.0
H2468 H 0.82626 0.68767 0.11123 0.0
H2469 H 0.83807 0.6908 0.11929 0.0
H2470 H 0.82354 0.70567 0.13456 0.0
H2471 H 0.8119 0.70269 0.12635 0.0
H2472 H 0.77382 0.68796 0.11851 0.0
H2473 H 0.78749 0.68704 0.11319 0.0
H2474 H 0.76453 0.6812 0.09546 0.0
H2475 H 0.77808 0.68016 0.09028 0.0
H2476 H 0.81338 0.65434 0.07759 0.0
H2477 H 0.83702 0.66449 0.07781 0.0
H2478 H 0.83242 0.67513 0.08663 0.0
H2479 H 0.80871 0.66511 0.08654 0.0
C2480 C 0.6085 0.5834 0.4014 0.0
C2481 C 0.6103 0.59079 0.39789 0.0
C2482 C 0.5992 0.59696 0.40498 0.0
C2483 C 0.60569 0.59751 0.39966 0.0
C2484 C 0.59776 0.58968 0.40887 0.0
C2485 C 0.60236 0.58295 0.40706 0.0
U2486 U 0.62435 0.57282 0.38897 0.0
O2487 O 0.63102 0.56164 0.39106 0.0
O2488 O 0.62311 0.56278 0.38066 0.0
C2489 C 0.62797 0.55817 0.38473 0.0
C2490 C 0.61241 0.57604 0.39861 0.0
C2491 C 0.62575 0.54967 0.38529 0.0
C2492 C 0.61652 0.53887 0.38847 0.0
C2493 C 0.61876 0.54695 0.38906 0.0
C2494 C 0.62834 0.53625 0.38058 0.0
C2495 C 0.6212 0.5335 0.384 0.0
C2496 C 0.63058 0.54422 0.38123 0.0
C2497 C 0.63868 0.58711 0.37727 0.0
C2498 C 0.64645 0.58471 0.36524 0.0
C2499 C 0.6467 0.59772 0.3715 0.0
C2500 C 0.64157 0.59494 0.37744 0.0
C2501 C 0.64906 0.5927 0.36521 0.0
C2502 C 0.6413 0.58192 0.37123 0.0
C2503 C 0.63232 0.58492 0.38294 0.0
O2504 O 0.61153 0.57458 0.39096 0.0
O2505 O 0.61972 0.57476 0.40115 0.0
O2506 O 0.63443 0.5813 0.38956 0.0
O2507 O 0.62572 0.58208 0.37981 0.0
H2508 H 0.61505 0.59127 0.39353 0.0
H2509 H 0.607 0.60307 0.39664 0.0
H2510 H 0.59279 0.58907 0.41295 0.0
H2511 H 0.60089 0.57729 0.40983 0.0
H2512 H 0.611 0.5369 0.39119 0.0
H2513 H 0.61493 0.55109 0.39222 0.0
H2514 H 0.63214 0.53224 0.37722 0.0
H2515 H 0.636 0.54619 0.37829 0.0
H2516 H 0.64823 0.58067 0.36052 0.0
H2517 H 0.64848 0.60392 0.37161 0.0
H2518 H 0.63957 0.59905 0.38201 0.0
H2519 H 0.63914 0.57584 0.371 0.0
C2520 C 0.69943 0.32254 0.61822 0.0
C2521 C 0.69221 0.32649 0.61669 0.0
C2522 C 0.68577 0.31915 0.62752 0.0
C2523 C 0.68543 0.32479 0.62129 0.0
C2524 C 0.69298 0.31503 0.62879 0.0
C2525 C 0.69972 0.3167 0.62418 0.0
U2526 U 0.711 0.3337 0.60192 0.0
O2527 O 0.72192 0.34083 0.60296 0.0
O2528 O 0.72188 0.33014 0.59539 0.0
C2529 C 0.72612 0.33597 0.59847 0.0
C2530 C 0.70686 0.32478 0.61411 0.0
C2531 C 0.73414 0.33397 0.60147 0.0
C2532 C 0.74325 0.33052 0.61227 0.0
C2533 C 0.73545 0.33104 0.60923 0.0
C2534 C 0.74843 0.33537 0.59968 0.0
C2535 C 0.7498 0.33298 0.60761 0.0
C2536 C 0.7407 0.33588 0.59667 0.0
C2537 C 0.69777 0.34634 0.58723 0.0
C2538 C 0.70059 0.35831 0.57948 0.0
C2539 C 0.68733 0.35253 0.57934 0.0
C2540 C 0.68991 0.34645 0.58439 0.0
C2541 C 0.69258 0.35861 0.57701 0.0
C2542 C 0.70319 0.35218 0.58458 0.0
C2543 C 0.69963 0.34072 0.59373 0.0
O2544 O 0.70786 0.32193 0.60688 0.0
O2545 O 0.70889 0.33232 0.61476 0.0
O2546 O 0.70283 0.34378 0.60019 0.0
O2547 O 0.70253 0.3337 0.59181 0.0
H2548 H 0.69186 0.331 0.61208 0.0
H2549 H 0.67995 0.32797 0.62002 0.0
H2550 H 0.69355 0.31072 0.63357 0.0
H2551 H 0.70526 0.31361 0.62545 0.0
H2552 H 0.74411 0.32864 0.61839 0.0
H2553 H 0.73044 0.32952 0.61302 0.0
H2554 H 0.75335 0.33715 0.59589 0.0
H2555 H 0.73982 0.33812 0.59067 0.0
H2556 H 0.70469 0.36301 0.57779 0.0
H2557 H 0.68111 0.35273 0.57759 0.0
H2558 H 0.68563 0.34206 0.58643 0.0
H2559 H 0.70928 0.35221 0.58674 0.0
C2560 C 0.61702 0.90904 0.58363 0.0
C2561 C 0.61967 0.90665 0.59121 0.0
C2562 C 0.61335 0.91832 0.59721 0.0
C2563 C 0.61784 0.91125 0.59794 0.0
C2564 C 0.61035 0.92042 0.58966 0.0
C2565 C 0.6122 0.91584 0.58294 0.0
U2566 U 0.62944 0.89301 0.57314 0.0
O2567 O 0.62744 0.88654 0.56186 0.0
O2568 O 0.63788 0.89438 0.5632 0.0
C2569 C 0.63384 0.88961 0.55849 0.0
C2570 C 0.61991 0.90505 0.57635 0.0
C2571 C 0.63335 0.8919 0.55001 0.0
C2572 C 0.62925 0.90057 0.53905 0.0
C2573 C 0.62908 0.89857 0.54722 0.0
C2574 C 0.63792 0.8893 0.53654 0.0
C2575 C 0.63368 0.89592 0.53361 0.0
C2576 C 0.63773 0.88732 0.54459 0.0
C2577 C 0.64088 0.8785 0.58757 0.0
C2578 C 0.65172 0.86921 0.58476 0.0
C2579 C 0.64815 0.87223 0.59843 0.0
C2580 C 0.64208 0.87725 0.59575 0.0
C2581 C 0.65313 0.8683 0.59298 0.0
C2582 C 0.6456 0.8743 0.58205 0.0
C2583 C 0.63525 0.88484 0.58522 0.0
O2584 O 0.6276 0.90583 0.57504 0.0
O2585 O 0.61729 0.89778 0.57504 0.0
O2586 O 0.62872 0.88276 0.58141 0.0
O2587 O 0.63845 0.89146 0.58252 0.0
H2588 H 0.6234 0.90142 0.59187 0.0
H2589 H 0.62014 0.9094 0.60369 0.0
H2590 H 0.60695 0.92586 0.58887 0.0
H2591 H 0.61014 0.91779 0.57713 0.0
H2592 H 0.62591 0.9057 0.53699 0.0
H2593 H 0.62569 0.90222 0.55133 0.0
H2594 H 0.64157 0.88569 0.53261 0.0
H2595 H 0.64113 0.88222 0.54664 0.0
H2596 H 0.65558 0.86632 0.58046 0.0
H2597 H 0.64922 0.87172 0.60478 0.0
H2598 H 0.63855 0.88048 0.60009 0.0
H2599 H 0.64479 0.87521 0.57571 0.0
C2600 C 0.11754 0.60771 0.43409 0.0
C2601 C 0.11752 0.6112 0.42647 0.0
C2602 C 0.11322 0.59854 0.42054 0.0
C2603 C 0.11531 0.60668 0.41977 0.0
C2604 C 0.11318 0.5952 0.42825 0.0
C2605 C 0.11525 0.59973 0.43492 0.0
U2606 U 0.12966 0.62422 0.4445 0.0
O2607 O 0.12736 0.63074 0.45572 0.0
O2608 O 0.1379 0.62301 0.45461 0.0
C2609 C 0.13367 0.62769 0.45926 0.0
C2610 C 0.12042 0.61198 0.44122 0.0
C2611 C 0.13285 0.62523 0.46767 0.0
C2612 C 0.1305 0.61535 0.47811 0.0
C2613 C 0.13037 0.61755 0.47 0.0
C2614 C 0.13543 0.62848 0.48154 0.0
C2615 C 0.13309 0.62079 0.48397 0.0
C2616 C 0.13528 0.63065 0.47352 0.0
C2617 C 0.14098 0.63889 0.43011 0.0
C2618 C 0.15203 0.64796 0.43274 0.0
C2619 C 0.14787 0.64539 0.41915 0.0
C2620 C 0.14184 0.64038 0.42193 0.0
C2621 C 0.15314 0.64906 0.4245 0.0
C2622 C 0.14596 0.64288 0.43555 0.0
C2623 C 0.13548 0.63246 0.43248 0.0
O2624 O 0.12811 0.61136 0.44258 0.0
O2625 O 0.11765 0.61922 0.44244 0.0
O2626 O 0.12884 0.63442 0.43618 0.0
O2627 O 0.1388 0.62594 0.43529 0.0
H2628 H 0.11931 0.61735 0.42569 0.0
H2629 H 0.11531 0.60957 0.414 0.0
H2630 H 0.11185 0.58896 0.42919 0.0
H2631 H 0.1153 0.59691 0.44073 0.0
H2632 H 0.12862 0.6094 0.47978 0.0
H2633 H 0.12849 0.61325 0.46557 0.0
H2634 H 0.13763 0.63278 0.48582 0.0
H2635 H 0.1373 0.63656 0.47185 0.0
H2636 H 0.15612 0.65066 0.43695 0.0
H2637 H 0.1487 0.64605 0.41277 0.0
H2638 H 0.13809 0.63732 0.41764 0.0
H2639 H 0.14541 0.64177 0.44189 0.0
C2640 C 0.69523 0.89895 0.69983 0.0
C2641 C 0.69275 0.90148 0.69224 0.0
C2642 C 0.69882 0.88966 0.68622 0.0
C2643 C 0.69455 0.89688 0.68549 0.0
C2644 C 0.70143 0.88731 0.69384 0.0
C2645 C 0.69966 0.89191 0.70056 0.0
U2646 U 0.684 0.91553 0.71103 0.0
O2647 O 0.67673 0.91462 0.72188 0.0
O2648 O 0.68751 0.92207 0.72192 0.0
C2649 C 0.68165 0.91898 0.72614 0.0
C2650 C 0.69288 0.90323 0.70712 0.0
C2651 C 0.68373 0.9157 0.73404 0.0
C2652 C 0.68711 0.90449 0.74262 0.0
C2653 C 0.68628 0.90777 0.73497 0.0
C2654 C 0.68325 0.91712 0.74845 0.0
C2655 C 0.68541 0.90908 0.74946 0.0
C2656 C 0.68241 0.92039 0.74082 0.0
C2657 C 0.67151 0.93021 0.69776 0.0
C2658 C 0.65948 0.93785 0.70061 0.0
C2659 C 0.66542 0.93833 0.68744 0.0
C2660 C 0.67147 0.93322 0.68996 0.0
C2661 C 0.65928 0.94052 0.69267 0.0
C2662 C 0.6656 0.93273 0.70317 0.0
C2663 C 0.67711 0.92369 0.69957 0.0
O2664 O 0.69576 0.91046 0.70803 0.0
O2665 O 0.6853 0.90266 0.70904 0.0
O2666 O 0.67401 0.91724 0.70276 0.0
O2667 O 0.68413 0.92559 0.70251 0.0
H2668 H 0.68932 0.90691 0.69156 0.0
H2669 H 0.69253 0.89894 0.6797 0.0
H2670 H 0.70462 0.88176 0.69468 0.0
H2671 H 0.70158 0.88985 0.70637 0.0
H2672 H 0.68889 0.89831 0.74319 0.0
H2673 H 0.68736 0.90406 0.7298 0.0
H2674 H 0.68181 0.92082 0.75354 0.0
H2675 H 0.68041 0.9265 0.74022 0.0
H2676 H 0.65472 0.93943 0.70469 0.0
H2677 H 0.66528 0.94022 0.68125 0.0
H2678 H 0.67592 0.93128 0.68569 0.0
H2679 H 0.6655 0.93043 0.70921 0.0
C2680 C 0.40066 0.4096 0.93323 0.0
C2681 C 0.3986 0.40688 0.92558 0.0
C2682 C 0.40453 0.4188 0.91956 0.0
C2683 C 0.40057 0.4114 0.91881 0.0
C2684 C 0.40673 0.42133 0.92727 0.0
C2685 C 0.40485 0.41677 0.93399 0.0
U2686 U 0.38897 0.39313 0.94406 0.0
O2687 O 0.39152 0.38687 0.95538 0.0
O2688 O 0.38069 0.39417 0.95416 0.0
C2689 C 0.38504 0.38964 0.95884 0.0
C2690 C 0.39797 0.40548 0.94052 0.0
C2691 C 0.38547 0.39201 0.96731 0.0
C2692 C 0.38959 0.40074 0.9782 0.0
C2693 C 0.39014 0.39839 0.97014 0.0
C2694 C 0.37992 0.39027 0.98056 0.0
C2695 C 0.38429 0.39682 0.98342 0.0
C2696 C 0.38051 0.38791 0.97262 0.0
C2697 C 0.37757 0.37837 0.92981 0.0
C2698 C 0.36657 0.36926 0.93254 0.0
C2699 C 0.37045 0.37204 0.9189 0.0
C2700 C 0.37654 0.37701 0.92163 0.0
C2701 C 0.3653 0.36828 0.92431 0.0
C2702 C 0.37269 0.37431 0.9353 0.0
C2703 C 0.38309 0.3848 0.93214 0.0
O2704 O 0.39029 0.40599 0.94198 0.0
O2705 O 0.40088 0.3983 0.94182 0.0
O2706 O 0.38975 0.38286 0.93582 0.0
O2707 O 0.37978 0.39132 0.93492 0.0
H2708 H 0.39534 0.40134 0.92487 0.0
H2709 H 0.39888 0.40914 0.91301 0.0
H2710 H 0.40963 0.42702 0.92821 0.0
H2711 H 0.40645 0.419 0.93984 0.0
H2712 H 0.39306 0.40579 0.98027 0.0
H2713 H 0.39401 0.40164 0.96612 0.0
H2714 H 0.37591 0.38704 0.98446 0.0
H2715 H 0.37689 0.38297 0.97058 0.0
H2716 H 0.36257 0.36649 0.9368 0.0
H2717 H 0.36949 0.37147 0.91254 0.0
H2718 H 0.38019 0.38014 0.91731 0.0
H2719 H 0.37336 0.37533 0.94164 0.0
C2720 C 0.32286 0.61831 0.6999 0.0
C2721 C 0.32661 0.61686 0.69255 0.0
C2722 C 0.31892 0.62761 0.68641 0.0
C2723 C 0.32465 0.62148 0.68585 0.0
C2724 C 0.31501 0.62881 0.69373 0.0
C2725 C 0.31697 0.62421 0.7004 0.0
U2726 U 0.33431 0.60193 0.71122 0.0
O2727 O 0.34152 0.60293 0.72209 0.0
O2728 O 0.33083 0.59535 0.7221 0.0
C2729 C 0.33663 0.59851 0.72634 0.0
C2730 C 0.3253 0.61412 0.70724 0.0
C2731 C 0.33447 0.60176 0.73422 0.0
C2732 C 0.33098 0.61292 0.74281 0.0
C2733 C 0.33187 0.60966 0.73516 0.0
C2734 C 0.33487 0.60028 0.74863 0.0
C2735 C 0.33267 0.60832 0.74964 0.0
C2736 C 0.33576 0.59705 0.741 0.0
C2737 C 0.34682 0.58748 0.69745 0.0
C2738 C 0.35868 0.57936 0.69973 0.0
C2739 C 0.35301 0.58039 0.68647 0.0
C2740 C 0.34695 0.58525 0.68941 0.0
C2741 C 0.35904 0.57759 0.69154 0.0
C2742 C 0.3526 0.58435 0.70268 0.0
C2743 C 0.34124 0.59387 0.69971 0.0
O2744 O 0.32248 0.60687 0.70823 0.0
O2745 O 0.33287 0.61477 0.70913 0.0
O2746 O 0.34435 0.60028 0.70298 0.0
O2747 O 0.33427 0.59186 0.7027 0.0
H2748 H 0.33118 0.61232 0.69205 0.0
H2749 H 0.32781 0.62042 0.68032 0.0
H2750 H 0.31048 0.63338 0.69434 0.0
H2751 H 0.31399 0.62538 0.70602 0.0
H2752 H 0.32916 0.61909 0.74338 0.0
H2753 H 0.3308 0.61339 0.72999 0.0
H2754 H 0.33631 0.59658 0.75372 0.0
H2755 H 0.33779 0.59095 0.7404 0.0
H2756 H 0.36331 0.57728 0.70373 0.0
H2757 H 0.3532 0.5791 0.68014 0.0
H2758 H 0.34259 0.58764 0.68528 0.0
H2759 H 0.35261 0.58604 0.70892 0.0
C2760 C 0.90069 0.10801 0.08419 0.0
C2761 C 0.89673 0.1096 0.09141 0.0
C2762 C 0.90422 0.099 0.098 0.0
C2763 C 0.89845 0.1051 0.09824 0.0
C2764 C 0.90849 0.09776 0.09089 0.0
C2765 C 0.9067 0.1022 0.08404 0.0
U2766 U 0.88845 0.1236 0.07297 0.0
O2767 O 0.89069 0.13019 0.06177 0.0
O2768 O 0.8804 0.12211 0.06275 0.0
C2769 C 0.88452 0.12694 0.05816 0.0
C2770 C 0.89807 0.11179 0.07667 0.0
C2771 C 0.88549 0.12453 0.04974 0.0
C2772 C 0.88759 0.11455 0.03937 0.0
C2773 C 0.88779 0.11679 0.04746 0.0
C2774 C 0.88311 0.12782 0.03583 0.0
C2775 C 0.88516 0.12004 0.0335 0.0
C2776 C 0.88325 0.13002 0.04385 0.0
C2777 C 0.87655 0.13767 0.08773 0.0
C2778 C 0.86736 0.14879 0.08589 0.0
C2779 C 0.86909 0.1429 0.09896 0.0
C2780 C 0.87462 0.13756 0.09584 0.0
C2781 C 0.86536 0.14861 0.09407 0.0
C2782 C 0.87293 0.14334 0.08273 0.0
C2783 C 0.88217 0.13153 0.08493 0.0
O2784 O 0.89048 0.11083 0.07499 0.0
O2785 O 0.90061 0.11908 0.07532 0.0
O2786 O 0.88872 0.13381 0.08127 0.0
O2787 O 0.87906 0.12496 0.08203 0.0
H2788 H 0.89208 0.11408 0.09167 0.0
H2789 H 0.89512 0.10624 0.10366 0.0
H2790 H 0.9129 0.09306 0.0905 0.0
H2791 H 0.9098 0.10087 0.07853 0.0
H2792 H 0.88923 0.10853 0.03772 0.0
H2793 H 0.88953 0.11245 0.05192 0.0
H2794 H 0.88112 0.13214 0.03146 0.0
H2795 H 0.88136 0.13598 0.04549 0.0
H2796 H 0.86462 0.15311 0.08194 0.0
H2797 H 0.86759 0.14235 0.10521 0.0
H2798 H 0.87731 0.1332 0.09978 0.0
H2799 H 0.87433 0.14351 0.07642 0.0
C2800 C 0.69541 0.11813 0.81793 0.0
C2801 C 0.69149 0.11684 0.82522 0.0
C2802 C 0.69932 0.12744 0.8314 0.0
C2803 C 0.69344 0.12146 0.83191 0.0
C2804 C 0.70341 0.12847 0.82415 0.0
C2805 C 0.70146 0.12386 0.81749 0.0
U2806 U 0.684 0.10177 0.80656 0.0
O2807 O 0.67683 0.10282 0.79566 0.0
O2808 O 0.68752 0.09522 0.79569 0.0
C2809 C 0.68167 0.09831 0.79146 0.0
C2810 C 0.69299 0.11396 0.81058 0.0
C2811 C 0.68365 0.10128 0.78342 0.0
C2812 C 0.68734 0.112 0.77431 0.0
C2813 C 0.6868 0.10895 0.78211 0.0
C2814 C 0.68205 0.09959 0.76915 0.0
C2815 C 0.68467 0.10745 0.76778 0.0
C2816 C 0.68153 0.09657 0.77688 0.0
C2817 C 0.67141 0.08711 0.8199 0.0
C2818 C 0.65944 0.07931 0.81722 0.0
C2819 C 0.66526 0.07933 0.83045 0.0
C2820 C 0.67133 0.08435 0.82779 0.0
C2821 C 0.65916 0.07693 0.82526 0.0
C2822 C 0.66556 0.0844 0.81454 0.0
C2823 C 0.67702 0.0936 0.81797 0.0
O2824 O 0.69582 0.10672 0.80958 0.0
O2825 O 0.68541 0.11462 0.80867 0.0
O2826 O 0.67395 0.10006 0.81476 0.0
O2827 O 0.68404 0.09168 0.81504 0.0
H2828 H 0.68679 0.11242 0.82567 0.0
H2829 H 0.69014 0.12053 0.83739 0.0
H2830 H 0.70808 0.13291 0.82359 0.0
H2831 H 0.70458 0.12491 0.81192 0.0
H2832 H 0.68941 0.11806 0.77344 0.0
H2833 H 0.6885 0.11267 0.7871 0.0
H2834 H 0.68011 0.09587 0.76424 0.0
H2835 H 0.67912 0.09064 0.77777 0.0
H2836 H 0.65473 0.07757 0.81315 0.0
H2837 H 0.66509 0.07764 0.83669 0.0
H2838 H 0.67574 0.08643 0.83203 0.0
H2839 H 0.6655 0.0865 0.80843 0.0
C2840 C 0.82289 0.89892 0.31767 0.0
C2841 C 0.82671 0.9003 0.32499 0.0
C2842 C 0.81897 0.88961 0.33117 0.0
C2843 C 0.82475 0.89569 0.33169 0.0
C2844 C 0.81499 0.88847 0.32387 0.0
C2845 C 0.81694 0.89307 0.3172 0.0
U2846 U 0.83432 0.9153 0.3063 0.0
O2847 O 0.84151 0.91428 0.29541 0.0
O2848 O 0.83083 0.92185 0.29542 0.0
C2849 C 0.83662 0.9187 0.29117 0.0
C2850 C 0.82532 0.9031 0.31032 0.0
C2851 C 0.83446 0.91545 0.28329 0.0
C2852 C 0.83096 0.9043 0.27468 0.0
C2853 C 0.83185 0.90755 0.28234 0.0
C2854 C 0.83486 0.91694 0.26888 0.0
C2855 C 0.83265 0.90891 0.26786 0.0
C2856 C 0.83576 0.92016 0.27651 0.0
C2857 C 0.84685 0.92975 0.32005 0.0
C2858 C 0.85873 0.93785 0.31779 0.0
C2859 C 0.85305 0.93682 0.33104 0.0
C2860 C 0.84698 0.93198 0.3281 0.0
C2861 C 0.85909 0.93962 0.32599 0.0
C2862 C 0.85264 0.93288 0.31483 0.0
C2863 C 0.84127 0.92336 0.31779 0.0
O2864 O 0.8225 0.91035 0.30933 0.0
O2865 O 0.83289 0.90245 0.30841 0.0
O2866 O 0.84437 0.91696 0.31451 0.0
O2867 O 0.83429 0.92537 0.3148 0.0
H2868 H 0.83133 0.9048 0.32547 0.0
H2869 H 0.82797 0.8967 0.3372 0.0
H2870 H 0.81041 0.88395 0.32329 0.0
H2871 H 0.81391 0.89195 0.3116 0.0
H2872 H 0.82914 0.89813 0.27411 0.0
H2873 H 0.83078 0.90382 0.28751 0.0
H2874 H 0.8363 0.92065 0.26379 0.0
H2875 H 0.83779 0.92627 0.27712 0.0
H2876 H 0.86337 0.93993 0.3138 0.0
H2877 H 0.85322 0.9381 0.33738 0.0
H2878 H 0.8426 0.9296 0.33222 0.0
H2879 H 0.85266 0.9312 0.30859 0.0
C2880 C 0.43255 0.3991 0.10661 0.0
C2881 C 0.4255 0.39463 0.10748 0.0
C2882 C 0.41905 0.40259 0.09711 0.0
C2883 C 0.41881 0.39637 0.10277 0.0
C2884 C 0.42591 0.40739 0.0967 0.0
C2885 C 0.43259 0.40564 0.1014 0.0
U2886 U 0.44508 0.38686 0.12163 0.0
O2887 O 0.4558 0.3797 0.11923 0.0
O2888 O 0.45645 0.38977 0.12766 0.0
C2889 C 0.46023 0.38384 0.12419 0.0
C2890 C 0.44015 0.3965 0.11025 0.0
C2891 C 0.46881 0.38468 0.12238 0.0
C2892 C 0.48007 0.38669 0.11337 0.0
C2893 C 0.47182 0.38724 0.11498 0.0
C2894 C 0.48225 0.38137 0.12661 0.0
C2895 C 0.48534 0.38347 0.1191 0.0
C2896 C 0.47412 0.38193 0.1282 0.0
C2897 C 0.43108 0.3742 0.1363 0.0
C2898 C 0.43248 0.36382 0.14641 0.0
C2899 C 0.41937 0.36763 0.14167 0.0
C2900 C 0.4228 0.37329 0.13669 0.0
C2901 C 0.42414 0.36266 0.14642 0.0
C2902 C 0.43596 0.36955 0.14131 0.0
C2903 C 0.43407 0.37975 0.13018 0.0
O2904 O 0.44167 0.39894 0.11754 0.0
O2905 O 0.44205 0.38899 0.10907 0.0
O2906 O 0.43689 0.37677 0.12351 0.0
O2907 O 0.43743 0.38649 0.13236 0.0
H2908 H 0.4253 0.38959 0.11152 0.0
H2909 H 0.41355 0.39265 0.10333 0.0
H2910 H 0.42631 0.41219 0.0924 0.0
H2911 H 0.43796 0.40916 0.10064 0.0
H2912 H 0.48224 0.38841 0.10753 0.0
H2913 H 0.46781 0.38939 0.11039 0.0
H2914 H 0.48612 0.37909 0.13126 0.0
H2915 H 0.47192 0.37993 0.13394 0.0
H2916 H 0.43629 0.36006 0.15004 0.0
H2917 H 0.41294 0.36696 0.14163 0.0
H2918 H 0.41893 0.37685 0.13291 0.0
H2919 H 0.44239 0.37018 0.14112 0.0
C2920 C 0.4012 0.69968 0.82058 0.0
C2921 C 0.40362 0.69207 0.82316 0.0
C2922 C 0.39168 0.68619 0.81721 0.0
C2923 C 0.3989 0.68535 0.82144 0.0
C2924 C 0.38949 0.69379 0.81442 0.0
C2925 C 0.39421 0.70044 0.81609 0.0
U2926 U 0.41768 0.71126 0.8318 0.0
O2927 O 0.42387 0.72237 0.82831 0.0
O2928 O 0.41643 0.72207 0.83909 0.0
C2929 C 0.42084 0.72643 0.8343 0.0
C2930 C 0.40545 0.707 0.82295 0.0
C2931 C 0.4179 0.73459 0.83271 0.0
C2932 C 0.40772 0.744 0.8282 0.0
C2933 C 0.4108 0.73618 0.82851 0.0
C2934 C 0.41897 0.74865 0.83598 0.0
C2935 C 0.41166 0.75027 0.83219 0.0
C2936 C 0.42203 0.74093 0.83623 0.0
C2937 C 0.43243 0.69768 0.84432 0.0
C2938 C 0.44071 0.70019 0.85602 0.0
C2939 C 0.4392 0.68675 0.85097 0.0
C2940 C 0.43439 0.68958 0.84481 0.0
C2941 C 0.44223 0.69198 0.85675 0.0
C2942 C 0.43578 0.70305 0.84984 0.0
C2943 C 0.42603 0.69992 0.8387 0.0
O2944 O 0.40485 0.70893 0.83052 0.0
O2945 O 0.41268 0.70804 0.82006 0.0
O2946 O 0.428 0.70302 0.83177 0.0
O2947 O 0.41954 0.70302 0.8418 0.0
H2948 H 0.409 0.69136 0.82666 0.0
H2949 H 0.40073 0.67958 0.82368 0.0
H2950 H 0.38404 0.69461 0.81105 0.0
H2951 H 0.39226 0.70626 0.81404 0.0
H2952 H 0.40208 0.74507 0.82525 0.0
H2953 H 0.4075 0.73136 0.82574 0.0
H2954 H 0.42218 0.75336 0.83903 0.0
H2955 H 0.42751 0.73984 0.83949 0.0
H2956 H 0.44294 0.70431 0.86047 0.0
H2957 H 0.44025 0.68039 0.85146 0.0
H2958 H 0.43182 0.68534 0.84067 0.0
H2959 H 0.4343 0.70933 0.84959 0.0
C2960 C 0.08445 0.61955 0.60607 0.0
C2961 C 0.09153 0.62388 0.60721 0.0
C2962 C 0.09829 0.6158 0.59716 0.0
C2963 C 0.09838 0.62203 0.60279 0.0
C2964 C 0.0913 0.61121 0.59637 0.0
C2965 C 0.08444 0.61309 0.60077 0.0
U2966 U 0.07331 0.63144 0.62191 0.0
O2967 O 0.06298 0.63942 0.62077 0.0
O2968 O 0.06227 0.629 0.6287 0.0
C2969 C 0.05852 0.63516 0.62561 0.0
C2970 C 0.07691 0.62208 0.60987 0.0
C2971 C 0.05008 0.63405 0.6233 0.0
C2972 C 0.03953 0.6328 0.61337 0.0
C2973 C 0.04768 0.63275 0.61537 0.0
C2974 C 0.03615 0.63513 0.62721 0.0
C2975 C 0.03368 0.63409 0.61927 0.0
C2976 C 0.04424 0.63513 0.62919 0.0
C2977 C 0.0881 0.6429 0.63617 0.0
C2978 C 0.08601 0.65351 0.64586 0.0
C2979 C 0.09943 0.64946 0.64229 0.0
C2980 C 0.09635 0.64368 0.6372 0.0
C2981 C 0.09432 0.65454 0.64652 0.0
C2982 C 0.08289 0.64772 0.64065 0.0
C2983 C 0.08539 0.63748 0.62984 0.0
O2984 O 0.07556 0.61938 0.61711 0.0
O2985 O 0.0752 0.62969 0.60907 0.0
O2986 O 0.08234 0.6408 0.62344 0.0
O2987 O 0.08182 0.63082 0.63194 0.0
H2988 H 0.09169 0.62885 0.61133 0.0
H2989 H 0.1037 0.62561 0.60364 0.0
H2990 H 0.091 0.60642 0.59206 0.0
H2991 H 0.07904 0.60967 0.59981 0.0
H2992 H 0.03779 0.63192 0.60721 0.0
H2993 H 0.05208 0.63191 0.61072 0.0
H2994 H 0.03182 0.63625 0.63188 0.0
H2995 H 0.04596 0.63623 0.63532 0.0
H2996 H 0.08198 0.65742 0.64905 0.0
H2997 H 0.10585 0.65016 0.64271 0.0
H2998 H 0.10045 0.64003 0.63379 0.0
H2999 H 0.07649 0.6472 0.63991 0.0
C3000 C 0.11703 0.31766 0.32032 0.0
C3001 C 0.11501 0.32516 0.32349 0.0
C3002 C 0.12657 0.33113 0.31692 0.0
C3003 C 0.11973 0.33186 0.32176 0.0
C3004 C 0.12833 0.32366 0.31354 0.0
C3005 C 0.12361 0.31702 0.31522 0.0
U3006 U 0.10065 0.3062 0.33169 0.0
O3007 O 0.09426 0.29518 0.32832 0.0
O3008 O 0.10179 0.29542 0.33903 0.0
C3009 C 0.09727 0.29111 0.33431 0.0
C3010 C 0.11282 0.31031 0.3227 0.0
C3011 C 0.10008 0.28291 0.33274 0.0
C3012 C 0.10997 0.27336 0.32794 0.0
C3013 C 0.10697 0.28121 0.32824 0.0
C3014 C 0.09906 0.26892 0.33631 0.0
C3015 C 0.10617 0.2672 0.33221 0.0
C3016 C 0.09606 0.27667 0.33656 0.0
C3017 C 0.08627 0.32005 0.34428 0.0
C3018 C 0.07777 0.31763 0.35583 0.0
C3019 C 0.07987 0.33111 0.35107 0.0
C3020 C 0.08463 0.32821 0.34491 0.0
C3021 C 0.07657 0.32589 0.3567 0.0
C3022 C 0.08266 0.31471 0.34966 0.0
C3023 C 0.09256 0.3177 0.33861 0.0
O3024 O 0.11349 0.30835 0.33025 0.0
O3025 O 0.10557 0.3093 0.31988 0.0
O3026 O 0.09046 0.31459 0.33173 0.0
O3027 O 0.09903 0.31451 0.34167 0.0
H3028 H 0.10994 0.32577 0.32746 0.0
H3029 H 0.11823 0.33753 0.32447 0.0
H3030 H 0.13347 0.32293 0.30969 0.0
H3031 H 0.12524 0.31129 0.31271 0.0
H3032 H 0.11547 0.2722 0.32475 0.0
H3033 H 0.11016 0.28596 0.32525 0.0
H3034 H 0.09597 0.26429 0.3396 0.0
H3035 H 0.09075 0.27785 0.34006 0.0
H3036 H 0.07529 0.31351 0.36015 0.0
H3037 H 0.07903 0.33749 0.35163 0.0
H3038 H 0.08739 0.33243 0.34086 0.0
H3039 H 0.08389 0.30838 0.34929 0.0
C3040 C 0.43422 0.61884 0.41182 0.0
C3041 C 0.42713 0.62319 0.41083 0.0
C3042 C 0.42063 0.61519 0.42111 0.0
C3043 C 0.42041 0.62139 0.41544 0.0
C3044 C 0.42757 0.61051 0.42168 0.0
C3045 C 0.43432 0.61235 0.41709 0.0
U3046 U 0.44524 0.63097 0.396 0.0
O3047 O 0.45564 0.63886 0.39719 0.0
O3048 O 0.45624 0.62851 0.38915 0.0
C3049 C 0.46002 0.63465 0.39224 0.0
C3050 C 0.4417 0.62145 0.40795 0.0
C3051 C 0.46854 0.63365 0.3943 0.0
C3052 C 0.47938 0.63181 0.40384 0.0
C3053 C 0.47119 0.63149 0.40196 0.0
C3054 C 0.48226 0.63612 0.39036 0.0
C3055 C 0.48497 0.63439 0.39811 0.0
C3056 C 0.47416 0.63576 0.3885 0.0
C3057 C 0.43047 0.64259 0.38175 0.0
C3058 C 0.43206 0.65411 0.37302 0.0
C3059 C 0.41905 0.64805 0.37476 0.0
C3060 C 0.42235 0.64236 0.37982 0.0
C3061 C 0.42378 0.65417 0.37151 0.0
C3062 C 0.43539 0.64836 0.37817 0.0
C3063 C 0.4332 0.63717 0.38811 0.0
O3064 O 0.44296 0.61885 0.40066 0.0
O3065 O 0.4434 0.62905 0.40882 0.0
O3066 O 0.43631 0.64045 0.39451 0.0
O3067 O 0.43666 0.63046 0.38602 0.0
H3068 H 0.4269 0.62819 0.40673 0.0
H3069 H 0.4151 0.62502 0.41477 0.0
H3070 H 0.42793 0.60571 0.42599 0.0
H3071 H 0.43972 0.6089 0.41791 0.0
H3072 H 0.48128 0.6304 0.40985 0.0
H3073 H 0.46693 0.62983 0.40654 0.0
H3074 H 0.48641 0.63796 0.38576 0.0
H3075 H 0.47225 0.63744 0.38255 0.0
H3076 H 0.43586 0.65873 0.37058 0.0
H3077 H 0.41269 0.64783 0.3736 0.0
H3078 H 0.41847 0.63795 0.38251 0.0
H3079 H 0.4417 0.64861 0.37958 0.0
C3080 C 0.11709 0.69991 0.19711 0.0
C3081 C 0.11398 0.69218 0.19607 0.0
C3082 C 0.12665 0.68643 0.2004 0.0
C3083 C 0.11873 0.68547 0.19776 0.0
C3084 C 0.1296 0.69417 0.20163 0.0
C3085 C 0.12486 0.70082 0.20002 0.0
U3086 U 0.10039 0.71117 0.1859 0.0
O3087 O 0.09401 0.72218 0.18937 0.0
O3088 O 0.10141 0.72196 0.17856 0.0
C3089 C 0.09696 0.72626 0.18335 0.0
C3090 C 0.11266 0.70715 0.1948 0.0
C3091 C 0.09984 0.73444 0.18489 0.0
C3092 C 0.10964 0.74394 0.18997 0.0
C3093 C 0.10653 0.73614 0.18967 0.0
C3094 C 0.09923 0.74837 0.18098 0.0
C3095 C 0.10615 0.75007 0.18539 0.0
C3096 C 0.09612 0.74066 0.18074 0.0
C3097 C 0.08612 0.69715 0.17329 0.0
C3098 C 0.07789 0.69917 0.16146 0.0
C3099 C 0.07979 0.68588 0.16679 0.0
C3100 C 0.08442 0.68898 0.17294 0.0
C3101 C 0.07669 0.69088 0.16084 0.0
C3102 C 0.08266 0.7023 0.16763 0.0
C3103 C 0.09237 0.69965 0.17894 0.0
O3104 O 0.11327 0.70917 0.18726 0.0
O3105 O 0.10539 0.70799 0.19765 0.0
O3106 O 0.09024 0.70271 0.18584 0.0
O3107 O 0.0988 0.70292 0.17588 0.0
H3108 H 0.10799 0.69135 0.19379 0.0
H3109 H 0.11632 0.67957 0.19674 0.0
H3110 H 0.13564 0.69509 0.20375 0.0
H3111 H 0.12736 0.70672 0.20086 0.0
H3112 H 0.115 0.74509 0.19339 0.0
H3113 H 0.1095 0.7314 0.19291 0.0
H3114 H 0.09639 0.75297 0.17744 0.0
H3115 H 0.09097 0.73949 0.17702 0.0
H3116 H 0.07554 0.70314 0.15693 0.0
H3117 H 0.07891 0.67948 0.16647 0.0
H3118 H 0.08706 0.68491 0.17722 0.0
H3119 H 0.08393 0.70863 0.16778 0.0
C3120 C 0.08462 0.39773 0.91151 0.0
C3121 C 0.09159 0.39315 0.91064 0.0
C3122 C 0.09849 0.40154 0.92031 0.0
C3123 C 0.09845 0.39503 0.91502 0.0
C3124 C 0.09166 0.40639 0.92078 0.0
C3125 C 0.08478 0.40448 0.91645 0.0
U3126 U 0.07326 0.38592 0.89576 0.0
O3127 O 0.06277 0.37814 0.89688 0.0
O3128 O 0.06228 0.3886 0.88897 0.0
C3129 C 0.05843 0.38246 0.89198 0.0
C3130 C 0.07704 0.39521 0.90779 0.0
C3131 C 0.04991 0.38351 0.89401 0.0
C3132 C 0.03898 0.38467 0.90357 0.0
C3133 C 0.0472 0.38498 0.90182 0.0
C3134 C 0.03617 0.38181 0.88971 0.0
C3135 C 0.03339 0.38281 0.89756 0.0
C3136 C 0.04431 0.38213 0.88798 0.0
C3137 C 0.0875 0.3745 0.88095 0.0
C3138 C 0.0867 0.36191 0.87377 0.0
C3139 C 0.09816 0.37054 0.872 0.0
C3140 C 0.09479 0.37608 0.87719 0.0
C3141 C 0.09432 0.36324 0.87047 0.0
C3142 C 0.08332 0.3675 0.87902 0.0
C3143 C 0.08514 0.37978 0.88757 0.0
O3144 O 0.07563 0.39794 0.90058 0.0
O3145 O 0.07531 0.3876 0.90858 0.0
O3146 O 0.08209 0.37641 0.89396 0.0
O3147 O 0.0818 0.38664 0.88575 0.0
H3148 H 0.09164 0.38797 0.90679 0.0
H3149 H 0.10366 0.39124 0.91445 0.0
H3150 H 0.09149 0.41142 0.92483 0.0
H3151 H 0.07947 0.4081 0.91717 0.0
H3152 H 0.03706 0.3855 0.90968 0.0
H3153 H 0.05142 0.38607 0.90658 0.0
H3154 H 0.03206 0.38058 0.88488 0.0
H3155 H 0.04626 0.38099 0.88192 0.0
H3156 H 0.08359 0.35635 0.87269 0.0
H3157 H 0.10394 0.37183 0.86942 0.0
H3158 H 0.0981 0.38145 0.87859 0.0
H3159 H 0.07766 0.36617 0.88184 0.0
C3160 C 0.40136 0.31763 0.69698 0.0
C3161 C 0.4034 0.32504 0.69363 0.0
C3162 C 0.39202 0.33131 0.70028 0.0
C3163 C 0.39878 0.33182 0.69529 0.0
C3164 C 0.39021 0.32391 0.70381 0.0
C3165 C 0.39484 0.31717 0.70218 0.0
U3166 U 0.41769 0.30595 0.68581 0.0
O3167 O 0.42389 0.29483 0.68925 0.0
O3168 O 0.41648 0.29519 0.67845 0.0
C3169 C 0.42089 0.29081 0.68322 0.0
C3170 C 0.40547 0.31021 0.69469 0.0
C3171 C 0.41797 0.28263 0.68472 0.0
C3172 C 0.4081 0.27314 0.68971 0.0
C3173 C 0.4112 0.28095 0.68941 0.0
C3174 C 0.41868 0.26868 0.68093 0.0
C3175 C 0.41169 0.26699 0.68524 0.0
C3176 C 0.42177 0.2764 0.68068 0.0
C3177 C 0.43237 0.31958 0.67329 0.0
C3178 C 0.44072 0.31702 0.66165 0.0
C3179 C 0.43905 0.33051 0.66653 0.0
C3180 C 0.43423 0.3277 0.6727 0.0
C3181 C 0.44216 0.32524 0.66084 0.0
C3182 C 0.4358 0.31419 0.66785 0.0
C3183 C 0.426 0.31735 0.67894 0.0
O3184 O 0.40486 0.30825 0.68713 0.0
O3185 O 0.41269 0.30911 0.69758 0.0
O3186 O 0.428 0.31421 0.68584 0.0
O3187 O 0.4195 0.31425 0.67586 0.0
H3188 H 0.40843 0.32552 0.6896 0.0
H3189 H 0.40045 0.33744 0.69257 0.0
H3190 H 0.38502 0.32321 0.70758 0.0
H3191 H 0.39315 0.3115 0.70479 0.0
H3192 H 0.40269 0.272 0.69306 0.0
H3193 H 0.40817 0.2857 0.69257 0.0
H3194 H 0.42161 0.26406 0.67749 0.0
H3195 H 0.42699 0.27756 0.67705 0.0
H3196 H 0.44302 0.31287 0.65727 0.0
H3197 H 0.44003 0.33688 0.66597 0.0
H3198 H 0.4316 0.33197 0.67678 0.0
H3199 H 0.43438 0.3079 0.66818 0.0
C3200 C 0.10683 0.43206 0.39843 0.0
C3201 C 0.10799 0.425 0.39407 0.0
C3202 C 0.09801 0.41815 0.40222 0.0
C3203 C 0.10362 0.41811 0.39595 0.0
C3204 C 0.09725 0.42511 0.40685 0.0
C3205 C 0.1016 0.43198 0.40495 0.0
U3206 U 0.12223 0.4444 0.38668 0.0
O3207 O 0.12049 0.45489 0.37897 0.0
O3208 O 0.12812 0.45584 0.38962 0.0
C3209 C 0.12516 0.45944 0.3833 0.0
C3210 C 0.1104 0.43972 0.39588 0.0
C3211 C 0.12323 0.46803 0.3837 0.0
C3212 C 0.11635 0.47968 0.38908 0.0
C3213 C 0.11804 0.47144 0.38936 0.0
C3214 C 0.125 0.48107 0.37759 0.0
C3215 C 0.11975 0.48451 0.3831 0.0
C3216 C 0.12673 0.47295 0.37791 0.0
C3217 C 0.1375 0.43102 0.37463 0.0
C3218 C 0.14509 0.43281 0.36237 0.0
C3219 C 0.14587 0.42033 0.3696 0.0
C3220 C 0.1407 0.42335 0.37537 0.0
C3221 C 0.14799 0.42493 0.36292 0.0
C3222 C 0.13986 0.43584 0.36819 0.0
C3223 C 0.13097 0.43317 0.38011 0.0
O3224 O 0.11755 0.44139 0.39864 0.0
O3225 O 0.10955 0.4415 0.38829 0.0
O3226 O 0.12437 0.43595 0.37692 0.0
O3227 O 0.1328 0.43652 0.38696 0.0
H3228 H 0.11205 0.42489 0.38904 0.0
H3229 H 0.10446 0.41281 0.39235 0.0
H3230 H 0.09296 0.4254 0.41167 0.0
H3231 H 0.10063 0.43735 0.4084 0.0
H3232 H 0.11227 0.48224 0.39339 0.0
H3233 H 0.11526 0.46776 0.39389 0.0
H3234 H 0.12772 0.48468 0.37296 0.0
H3235 H 0.13077 0.47045 0.37352 0.0
H3236 H 0.14669 0.43653 0.35734 0.0
H3237 H 0.14784 0.4142 0.37016 0.0
H3238 H 0.13888 0.4195 0.38024 0.0
H3239 H 0.13745 0.44179 0.3675 0.0
C3240 C 0.31828 0.32026 0.11646 0.0
C3241 C 0.32564 0.3238 0.11454 0.0
C3242 C 0.33198 0.31696 0.12576 0.0
C3243 C 0.33244 0.32215 0.11914 0.0
C3244 C 0.32463 0.31324 0.12743 0.0
C3245 C 0.31788 0.31488 0.12282 0.0
U3246 U 0.30658 0.33148 0.1002 0.0
O3247 O 0.29548 0.32808 0.09394 0.0
O3248 O 0.29579 0.3388 0.10145 0.0
C3249 C 0.29142 0.33405 0.09701 0.0
C3250 C 0.31083 0.32256 0.11237 0.0
C3251 C 0.28328 0.33241 0.09996 0.0
C3252 C 0.27395 0.32817 0.11031 0.0
C3253 C 0.28178 0.32851 0.10725 0.0
C3254 C 0.26914 0.33527 0.09869 0.0
C3255 C 0.2676 0.3318 0.10617 0.0
C3256 C 0.27688 0.33557 0.09564 0.0
C3257 C 0.32012 0.344 0.0855 0.0
C3258 C 0.31737 0.35554 0.07708 0.0
C3259 C 0.33094 0.35082 0.07869 0.0
C3260 C 0.32823 0.34466 0.08358 0.0
C3261 C 0.32558 0.35642 0.07556 0.0
C3262 C 0.31464 0.34935 0.08207 0.0
C3263 C 0.31797 0.33836 0.09189 0.0
O3264 O 0.30887 0.33011 0.11302 0.0
O3265 O 0.30973 0.3197 0.10516 0.0
O3266 O 0.31484 0.33145 0.08991 0.0
O3267 O 0.31488 0.34144 0.0984 0.0
H3268 H 0.32607 0.32798 0.10963 0.0
H3269 H 0.33801 0.32501 0.11758 0.0
H3270 H 0.32399 0.30931 0.13251 0.0
H3271 H 0.31225 0.31212 0.12441 0.0
H3272 H 0.27295 0.32546 0.11609 0.0
H3273 H 0.28666 0.32603 0.11068 0.0
H3274 H 0.26437 0.33804 0.09532 0.0
H3275 H 0.27791 0.33859 0.09002 0.0
H3276 H 0.31315 0.35985 0.07476 0.0
H3277 H 0.33729 0.35143 0.07766 0.0
H3278 H 0.33255 0.34064 0.08622 0.0
H3279 H 0.30835 0.34897 0.08352 0.0
C3280 C 0.41193 0.58316 0.89866 0.0
C3281 C 0.41052 0.5904 0.89469 0.0
C3282 C 0.42118 0.59677 0.90228 0.0
C3283 C 0.4151 0.59714 0.89648 0.0
C3284 C 0.42223 0.58964 0.90658 0.0
C3285 C 0.41765 0.58289 0.90476 0.0
U3286 U 0.39613 0.57253 0.88628 0.0
O3287 O 0.39726 0.56227 0.87823 0.0
O3288 O 0.38908 0.56161 0.88847 0.0
C3289 C 0.39228 0.55784 0.88238 0.0
C3290 C 0.408 0.57574 0.89601 0.0
C3291 C 0.39456 0.54942 0.88356 0.0
C3292 C 0.40452 0.53889 0.88476 0.0
C3293 C 0.4025 0.54703 0.88483 0.0
C3294 C 0.39064 0.53551 0.88253 0.0
C3295 C 0.39861 0.53306 0.88349 0.0
C3296 C 0.38866 0.54359 0.88254 0.0
C3297 C 0.38249 0.58768 0.87448 0.0
C3298 C 0.37138 0.58601 0.86525 0.0
C3299 C 0.37709 0.59909 0.86745 0.0
C3300 C 0.38249 0.59585 0.87285 0.0
C3301 C 0.37142 0.59427 0.86357 0.0
C3302 C 0.37691 0.58273 0.87067 0.0
C3303 C 0.38862 0.58477 0.88004 0.0
O3304 O 0.40064 0.57461 0.89848 0.0
O3305 O 0.40896 0.57408 0.88841 0.0
O3306 O 0.39508 0.58163 0.8769 0.0
O3307 O 0.38627 0.58122 0.88662 0.0
H3308 H 0.40608 0.59075 0.89 0.0
H3309 H 0.41405 0.60258 0.89316 0.0
H3310 H 0.42687 0.58915 0.91104 0.0
H3311 H 0.41881 0.57736 0.90789 0.0
H3312 H 0.41069 0.53717 0.88559 0.0
H3313 H 0.40716 0.55143 0.88563 0.0
H3314 H 0.38597 0.53118 0.88144 0.0
H3315 H 0.38252 0.54531 0.88147 0.0
H3316 H 0.3671 0.58209 0.86242 0.0
H3317 H 0.37757 0.6054 0.86618 0.0
H3318 H 0.38679 0.59975 0.87568 0.0
H3319 H 0.37685 0.57637 0.87184 0.0
C3320 C 0.2 0.69739 0.61626 0.0
C3321 C 0.19275 0.69348 0.61465 0.0
C3322 C 0.18637 0.70068 0.62553 0.0
C3323 C 0.18599 0.69509 0.61931 0.0
C3324 C 0.19351 0.70483 0.62688 0.0
C3325 C 0.20028 0.70317 0.62229 0.0
U3326 U 0.21169 0.68591 0.60022 0.0
O3327 O 0.22278 0.68918 0.59387 0.0
O3328 O 0.22244 0.67855 0.60153 0.0
C3329 C 0.22681 0.68322 0.59699 0.0
C3330 C 0.20748 0.69505 0.61224 0.0
C3331 C 0.23499 0.6848 0.59985 0.0
C3332 C 0.24446 0.68956 0.60983 0.0
C3333 C 0.23664 0.68926 0.60677 0.0
C3334 C 0.249 0.68126 0.59893 0.0
C3335 C 0.25066 0.68532 0.60607 0.0
C3336 C 0.24127 0.68101 0.59587 0.0
C3337 C 0.19771 0.67325 0.58592 0.0
C3338 C 0.19993 0.66172 0.57733 0.0
C3339 C 0.1865 0.66647 0.57979 0.0
C3340 C 0.18951 0.67261 0.58448 0.0
C3341 C 0.19163 0.66084 0.57635 0.0
C3342 C 0.20297 0.66789 0.58217 0.0
C3343 C 0.2002 0.67895 0.59213 0.0
O3344 O 0.20946 0.68752 0.61302 0.0
O3345 O 0.20858 0.69779 0.60497 0.0
O3346 O 0.20337 0.68579 0.58996 0.0
O3347 O 0.20336 0.67593 0.59864 0.0
H3348 H 0.19242 0.689 0.61001 0.0
H3349 H 0.18052 0.69182 0.6182 0.0
H3350 H 0.19394 0.7091 0.6317 0.0
H3351 H 0.20583 0.7062 0.62364 0.0
H3352 H 0.24557 0.69272 0.61536 0.0
H3353 H 0.23185 0.69223 0.60994 0.0
H3354 H 0.25366 0.678 0.59586 0.0
H3355 H 0.24014 0.67755 0.59054 0.0
H3356 H 0.20399 0.65742 0.57474 0.0
H3357 H 0.18009 0.66592 0.57909 0.0
H3358 H 0.18536 0.67666 0.58734 0.0
H3359 H 0.20933 0.66827 0.58323 0.0
C3360 C 0.10608 0.58365 0.1195 0.0
C3361 C 0.10785 0.59096 0.12318 0.0
C3362 C 0.09731 0.59754 0.11554 0.0
C3363 C 0.10352 0.59784 0.12122 0.0
C3364 C 0.09584 0.59026 0.11162 0.0
C3365 C 0.10018 0.5834 0.11359 0.0
U3366 U 0.12195 0.57273 0.13157 0.0
O3367 O 0.12087 0.56242 0.13959 0.0
O3368 O 0.12882 0.56174 0.12918 0.0
C3369 C 0.12582 0.55801 0.1354 0.0
C3370 C 0.1099 0.57618 0.12216 0.0
C3371 C 0.12375 0.5495 0.13448 0.0
C3372 C 0.11444 0.53866 0.13173 0.0
C3373 C 0.11629 0.54686 0.13171 0.0
C3374 C 0.12751 0.53576 0.13714 0.0
C3375 C 0.12003 0.53302 0.13452 0.0
C3376 C 0.12934 0.54387 0.1371 0.0
C3377 C 0.13632 0.58746 0.14291 0.0
C3378 C 0.14607 0.58522 0.15344 0.0
C3379 C 0.14343 0.59863 0.14876 0.0
C3380 C 0.13792 0.59564 0.14329 0.0
C3381 C 0.14751 0.59349 0.15398 0.0
C3382 C 0.1405 0.58221 0.14793 0.0
C3383 C 0.12987 0.58487 0.13755 0.0
O3384 O 0.11715 0.57483 0.11949 0.0
O3385 O 0.1091 0.57459 0.1298 0.0
O3386 O 0.1235 0.58178 0.14092 0.0
O3387 O 0.13189 0.58134 0.13085 0.0
H3388 H 0.11242 0.5913 0.12774 0.0
H3389 H 0.10493 0.60335 0.12425 0.0
H3390 H 0.09108 0.58974 0.10729 0.0
H3391 H 0.09874 0.57782 0.11067 0.0
H3392 H 0.10864 0.53675 0.12961 0.0
H3393 H 0.11187 0.55111 0.12967 0.0
H3394 H 0.13192 0.53164 0.13947 0.0
H3395 H 0.1351 0.54579 0.13935 0.0
H3396 H 0.14915 0.5811 0.15734 0.0
H3397 H 0.14423 0.60503 0.14909 0.0
H3398 H 0.13471 0.59978 0.13951 0.0
H3399 H 0.13934 0.57586 0.14771 0.0
C3400 C 0.20006 0.32005 0.90106 0.0
C3401 C 0.19275 0.32374 0.90284 0.0
C3402 C 0.18636 0.31672 0.89178 0.0
C3403 C 0.18595 0.32208 0.89825 0.0
C3404 C 0.19365 0.31285 0.89025 0.0
C3405 C 0.20041 0.31449 0.89485 0.0
U3406 U 0.21175 0.33137 0.91722 0.0
O3407 O 0.22283 0.32802 0.92355 0.0
O3408 O 0.22252 0.33871 0.91597 0.0
C3409 C 0.22687 0.334 0.92048 0.0
C3410 C 0.20752 0.32234 0.90512 0.0
C3411 C 0.23506 0.33243 0.91762 0.0
C3412 C 0.24456 0.32767 0.90767 0.0
C3413 C 0.23673 0.32796 0.91072 0.0
C3414 C 0.24907 0.33599 0.91857 0.0
C3415 C 0.25075 0.33193 0.91144 0.0
C3416 C 0.24133 0.33624 0.92161 0.0
C3417 C 0.19776 0.34397 0.93156 0.0
C3418 C 0.19994 0.35554 0.9401 0.0
C3419 C 0.18653 0.35072 0.93769 0.0
C3420 C 0.18956 0.34457 0.93301 0.0
C3421 C 0.19164 0.3564 0.94108 0.0
C3422 C 0.203 0.34936 0.93528 0.0
C3423 C 0.20026 0.3383 0.92533 0.0
O3424 O 0.20953 0.32988 0.90441 0.0
O3425 O 0.20861 0.31954 0.91237 0.0
O3426 O 0.20342 0.33144 0.92747 0.0
O3427 O 0.20344 0.34135 0.91885 0.0
H3428 H 0.19236 0.32805 0.90764 0.0
H3429 H 0.18042 0.32508 0.8997 0.0
H3430 H 0.19426 0.30877 0.88528 0.0
H3431 H 0.206 0.3116 0.89337 0.0
H3432 H 0.24569 0.32451 0.90215 0.0
H3433 H 0.23196 0.32499 0.90754 0.0
H3434 H 0.25372 0.33927 0.92164 0.0
H3435 H 0.24018 0.33971 0.92693 0.0
H3436 H 0.20399 0.35987 0.94266 0.0
H3437 H 0.18012 0.35125 0.93839 0.0
H3438 H 0.18542 0.3405 0.93017 0.0
H3439 H 0.20937 0.34901 0.9342 0.0
C3440 C 0.41202 0.43389 0.61863 0.0
C3441 C 0.41081 0.42673 0.62281 0.0
C3442 C 0.42129 0.42029 0.61503 0.0
C3443 C 0.41541 0.42 0.62103 0.0
C3444 C 0.4221 0.42731 0.61051 0.0
C3445 C 0.41752 0.43407 0.61233 0.0
U3446 U 0.39622 0.44462 0.63093 0.0
O3447 O 0.39731 0.45497 0.63886 0.0
O3448 O 0.38915 0.4555 0.62861 0.0
C3449 C 0.39226 0.4593 0.63472 0.0
C3450 C 0.4081 0.44132 0.62125 0.0
C3451 C 0.39428 0.4678 0.63367 0.0
C3452 C 0.40383 0.47862 0.63184 0.0
C3453 C 0.40195 0.47045 0.63152 0.0
C3454 C 0.39033 0.48151 0.63611 0.0
C3455 C 0.39809 0.4842 0.63441 0.0
C3456 C 0.38846 0.47342 0.63575 0.0
C3457 C 0.38244 0.42963 0.64276 0.0
C3458 C 0.37185 0.43153 0.65254 0.0
C3459 C 0.37646 0.41823 0.64933 0.0
C3460 C 0.38185 0.4214 0.64388 0.0
C3461 C 0.37133 0.4232 0.65375 0.0
C3462 C 0.37739 0.43473 0.64708 0.0
C3463 C 0.38866 0.43243 0.63723 0.0
O3464 O 0.40075 0.44246 0.61875 0.0
O3465 O 0.40905 0.44304 0.62883 0.0
O3466 O 0.39507 0.43562 0.6404 0.0
O3467 O 0.38638 0.4359 0.63058 0.0
H3468 H 0.40654 0.42644 0.62766 0.0
H3469 H 0.41455 0.41463 0.62452 0.0
H3470 H 0.42658 0.42774 0.60588 0.0
H3471 H 0.41851 0.43953 0.60902 0.0
H3472 H 0.40986 0.48052 0.63047 0.0
H3473 H 0.40654 0.4662 0.62989 0.0
H3474 H 0.38572 0.48565 0.63794 0.0
H3475 H 0.38251 0.4715 0.63742 0.0
H3476 H 0.368 0.43557 0.65578 0.0
H3477 H 0.37653 0.41184 0.65021 0.0
H3478 H 0.38574 0.41737 0.64065 0.0
H3479 H 0.37778 0.44113 0.6463 0.0
C3480 C 0.31823 0.69688 0.40092 0.0
C3481 C 0.32569 0.69378 0.40315 0.0
C3482 C 0.33195 0.70023 0.39165 0.0
C3483 C 0.3325 0.69546 0.39857 0.0
C3484 C 0.32448 0.70348 0.38963 0.0
C3485 C 0.31771 0.70184 0.39422 0.0
U3486 U 0.30655 0.68573 0.41727 0.0
O3487 O 0.29544 0.68919 0.42349 0.0
O3488 O 0.29575 0.67841 0.41607 0.0
C3489 C 0.29139 0.68318 0.42049 0.0
C3490 C 0.31081 0.69459 0.40505 0.0
C3491 C 0.28322 0.68475 0.41757 0.0
C3492 C 0.27377 0.68936 0.40749 0.0
C3493 C 0.2816 0.68906 0.41055 0.0
C3494 C 0.26917 0.68135 0.4186 0.0
C3495 C 0.26753 0.68526 0.41137 0.0
C3496 C 0.27691 0.68111 0.42165 0.0
C3497 C 0.32011 0.67322 0.43199 0.0
C3498 C 0.31743 0.66165 0.4404 0.0
C3499 C 0.33097 0.66645 0.43877 0.0
C3500 C 0.32822 0.6726 0.4339 0.0
C3501 C 0.32565 0.66081 0.44189 0.0
C3502 C 0.31466 0.66784 0.43543 0.0
C3503 C 0.31793 0.67885 0.4256 0.0
O3504 O 0.30884 0.68703 0.40445 0.0
O3505 O 0.30972 0.69748 0.41226 0.0
O3506 O 0.31481 0.68577 0.42757 0.0
O3507 O 0.31483 0.67576 0.41911 0.0
H3508 H 0.32621 0.68994 0.40832 0.0
H3509 H 0.33816 0.69295 0.4004 0.0
H3510 H 0.32375 0.70707 0.3843 0.0
H3511 H 0.312 0.70425 0.39238 0.0
H3512 H 0.27268 0.6924 0.40189 0.0
H3513 H 0.2864 0.69192 0.4073 0.0
H3514 H 0.26449 0.67821 0.42176 0.0
H3515 H 0.27802 0.67776 0.42707 0.0
H3516 H 0.31324 0.65731 0.44271 0.0
H3517 H 0.33734 0.66586 0.43978 0.0
H3518 H 0.33253 0.67664 0.43126 0.0
H3519 H 0.30837 0.66819 0.43399 0.0
C3520 C 0.39816 0.10585 0.43345 0.0
C3521 C 0.39378 0.10699 0.4264 0.0
C3522 C 0.40199 0.09711 0.41955 0.0
C3523 C 0.39566 0.10264 0.41952 0.0
C3524 C 0.40664 0.09634 0.4265 0.0
C3525 C 0.40472 0.10066 0.43339 0.0
U3526 U 0.38637 0.12166 0.44474 0.0
O3527 O 0.37859 0.12059 0.45523 0.0
O3528 O 0.38909 0.12845 0.4557 0.0
C3529 C 0.38296 0.12545 0.45957 0.0
C3530 C 0.39563 0.10959 0.44101 0.0
C3531 C 0.38407 0.12333 0.46805 0.0
C3532 C 0.38519 0.11365 0.47886 0.0
C3533 C 0.38548 0.11549 0.47067 0.0
C3534 C 0.38246 0.12751 0.48182 0.0
C3535 C 0.3834 0.11962 0.4845 0.0
C3536 C 0.38278 0.12933 0.47371 0.0
C3537 C 0.37497 0.13642 0.43043 0.0
C3538 C 0.36249 0.14381 0.43135 0.0
C3539 C 0.37086 0.14514 0.41965 0.0
C3540 C 0.37642 0.13995 0.42301 0.0
C3541 C 0.36368 0.14688 0.42362 0.0
C3542 C 0.3681 0.13857 0.43473 0.0
C3543 C 0.38025 0.12982 0.43285 0.0
O3544 O 0.39839 0.11679 0.4424 0.0
O3545 O 0.38801 0.10883 0.44273 0.0
O3546 O 0.37685 0.12346 0.43593 0.0
O3547 O 0.38711 0.13164 0.43618 0.0
H3548 H 0.38873 0.11103 0.42629 0.0
H3549 H 0.39204 0.10347 0.41423 0.0
H3550 H 0.41151 0.09211 0.42674 0.0
H3551 H 0.40819 0.09972 0.43876 0.0
H3552 H 0.38597 0.10752 0.48074 0.0
H3553 H 0.38649 0.11076 0.46639 0.0
H3554 H 0.38124 0.13228 0.48601 0.0
H3555 H 0.38169 0.13542 0.47183 0.0
H3556 H 0.35703 0.14505 0.43457 0.0
H3557 H 0.37205 0.14754 0.41376 0.0
H3558 H 0.38169 0.13839 0.41961 0.0
H3559 H 0.36688 0.13591 0.4405 0.0
C3560 C 0.89858 0.41054 0.58546 0.0
C3561 C 0.89369 0.41007 0.59227 0.0
C3562 C 0.90234 0.41946 0.59925 0.0
C3563 C 0.89553 0.41455 0.59909 0.0
C3564 C 0.90752 0.41944 0.59267 0.0
C3565 C 0.90563 0.41504 0.58582 0.0
U3566 U 0.8867 0.39565 0.57255 0.0
O3567 O 0.87948 0.39789 0.56183 0.0
O3568 O 0.88983 0.3898 0.56115 0.0
C3569 C 0.88376 0.39306 0.55739 0.0
C3570 C 0.89605 0.40715 0.57771 0.0
C3571 C 0.88449 0.39492 0.54881 0.0
C3572 C 0.88735 0.40374 0.53761 0.0
C3573 C 0.88775 0.40206 0.54584 0.0
C3574 C 0.88073 0.3911 0.53535 0.0
C3575 C 0.88375 0.39828 0.53234 0.0
C3576 C 0.88108 0.38946 0.54349 0.0
C3577 C 0.87454 0.38014 0.58592 0.0
C3578 C 0.86194 0.37289 0.58548 0.0
C3579 C 0.87066 0.37159 0.59693 0.0
C3580 C 0.87616 0.37665 0.59332 0.0
C3581 C 0.86334 0.36989 0.59322 0.0
C3582 C 0.86749 0.37805 0.58186 0.0
C3583 C 0.87985 0.3867 0.58342 0.0
O3584 O 0.8987 0.39999 0.57593 0.0
O3585 O 0.8885 0.4082 0.57584 0.0
O3586 O 0.87661 0.39325 0.58059 0.0
O3587 O 0.8868 0.38494 0.58023 0.0
H3588 H 0.88826 0.40657 0.59217 0.0
H3589 H 0.89148 0.41443 0.60412 0.0
H3590 H 0.91276 0.42322 0.59262 0.0
H3591 H 0.90948 0.41548 0.58065 0.0
H3592 H 0.88977 0.4093 0.53537 0.0
H3593 H 0.89041 0.40636 0.54985 0.0
H3594 H 0.87787 0.38685 0.53142 0.0
H3595 H 0.87846 0.38397 0.54568 0.0
H3596 H 0.85636 0.37165 0.58246 0.0
H3597 H 0.87201 0.36925 0.6028 0.0
H3598 H 0.88155 0.37819 0.59655 0.0
H3599 H 0.86612 0.38067 0.57612 0.0
C3600 C 0.3203 0.11625 0.31774 0.0
C3601 C 0.32435 0.11475 0.32493 0.0
C3602 C 0.31697 0.12546 0.3314 0.0
C3603 C 0.32272 0.11937 0.33171 0.0
C3604 C 0.31268 0.12669 0.32432 0.0
C3605 C 0.31437 0.12214 0.31753 0.0
U3606 U 0.33184 0.10029 0.30603 0.0
O3607 O 0.32861 0.09393 0.29495 0.0
O3608 O 0.33919 0.10166 0.29528 0.0
C3609 C 0.33454 0.0971 0.29091 0.0
C3610 C 0.32265 0.11228 0.31025 0.0
C3611 C 0.33288 0.09998 0.28276 0.0
C3612 C 0.32872 0.11029 0.27335 0.0
C3613 C 0.32903 0.10728 0.28119 0.0
C3614 C 0.33576 0.09859 0.26864 0.0
C3615 C 0.33235 0.10608 0.26704 0.0
C3616 C 0.33602 0.09559 0.27639 0.0
C3617 C 0.34447 0.08599 0.32005 0.0
C3618 C 0.35605 0.07743 0.31793 0.0
C3619 C 0.35119 0.07986 0.33131 0.0
C3620 C 0.34504 0.08454 0.32825 0.0
C3621 C 0.35688 0.07645 0.32623 0.0
C3622 C 0.34989 0.08225 0.31484 0.0
C3623 C 0.33879 0.0922 0.31752 0.0
O3624 O 0.33019 0.11308 0.30827 0.0
O3625 O 0.31993 0.10501 0.30912 0.0
O3626 O 0.33195 0.09003 0.31434 0.0
O3627 O 0.34181 0.0987 0.31436 0.0
H3628 H 0.32894 0.11021 0.32522 0.0
H3629 H 0.3261 0.11834 0.33712 0.0
H3630 H 0.30829 0.13141 0.32393 0.0
H3631 H 0.31123 0.12342 0.31203 0.0
H3632 H 0.32606 0.11608 0.27229 0.0
H3633 H 0.32657 0.11077 0.28603 0.0
H3634 H 0.33853 0.09518 0.2639 0.0
H3635 H 0.33901 0.08996 0.27747 0.0
H3636 H 0.3604 0.07485 0.3139 0.0
H3637 H 0.35168 0.07916 0.33772 0.0
H3638 H 0.34095 0.08738 0.33237 0.0
H3639 H 0.34956 0.08332 0.30848 0.0
C3640 C 0.61896 0.60659 0.08483 0.0
C3641 C 0.62345 0.60742 0.09186 0.0
C3642 C 0.61528 0.59728 0.09841 0.0
C3643 C 0.62162 0.6028 0.09859 0.0
C3644 C 0.61043 0.59695 0.09158 0.0
C3645 C 0.61228 0.60155 0.08485 0.0
U3646 U 0.63119 0.62164 0.07241 0.0
O3647 O 0.63854 0.61948 0.06178 0.0
O3648 O 0.6283 0.62768 0.06104 0.0
C3649 C 0.63435 0.62436 0.0573 0.0
C3650 C 0.62164 0.61014 0.07721 0.0
C3651 C 0.63356 0.62243 0.04876 0.0
C3652 C 0.63126 0.6133 0.03768 0.0
C3653 C 0.63084 0.61503 0.04589 0.0
C3654 C 0.63683 0.6264 0.03521 0.0
C3655 C 0.63435 0.61897 0.03229 0.0
C3656 C 0.63645 0.62809 0.04333 0.0
C3657 C 0.64332 0.63696 0.08591 0.0
C3658 C 0.65598 0.64412 0.08544 0.0
C3659 C 0.6472 0.64567 0.0968 0.0
C3660 C 0.64168 0.64058 0.09325 0.0
C3661 C 0.65456 0.64726 0.09312 0.0
C3662 C 0.65041 0.63895 0.08187 0.0
C3663 C 0.63796 0.63043 0.08346 0.0
O3664 O 0.6191 0.61737 0.07555 0.0
O3665 O 0.62921 0.60907 0.07546 0.0
O3666 O 0.64117 0.62386 0.08063 0.0
O3667 O 0.63106 0.63225 0.08022 0.0
H3668 H 0.62859 0.61134 0.09202 0.0
H3669 H 0.62537 0.60331 0.10383 0.0
H3670 H 0.60552 0.59276 0.09124 0.0
H3671 H 0.60872 0.60085 0.0795 0.0
H3672 H 0.62925 0.60755 0.03554 0.0
H3673 H 0.62859 0.61056 0.04998 0.0
H3674 H 0.63932 0.63084 0.03122 0.0
H3675 H 0.63867 0.63379 0.04543 0.0
H3676 H 0.66158 0.64527 0.08243 0.0
H3677 H 0.64582 0.64811 0.10262 0.0
H3678 H 0.63625 0.63914 0.09646 0.0
H3679 H 0.6518 0.63623 0.07618 0.0
C3680 C 0.69708 0.40055 0.31758 0.0
C3681 C 0.69478 0.40319 0.32519 0.0
C3682 C 0.70064 0.39127 0.33124 0.0
C3683 C 0.69656 0.3986 0.33197 0.0
C3684 C 0.70308 0.3888 0.3236 0.0
C3685 C 0.70133 0.3934 0.31687 0.0
U3686 U 0.68575 0.41701 0.30618 0.0
O3687 O 0.68897 0.42322 0.29501 0.0
O3688 O 0.67818 0.41581 0.29555 0.0
C3689 C 0.68289 0.42019 0.29108 0.0
C3690 C 0.69466 0.40475 0.31024 0.0
C3691 C 0.68439 0.41715 0.28295 0.0
C3692 C 0.69024 0.40771 0.27356 0.0
C3693 C 0.68954 0.41074 0.28136 0.0
C3694 C 0.68074 0.41755 0.26893 0.0
C3695 C 0.68577 0.41105 0.26724 0.0
C3696 C 0.68008 0.42056 0.27666 0.0
C3697 C 0.67348 0.43176 0.31981 0.0
C3698 C 0.66189 0.44012 0.31707 0.0
C3699 C 0.66671 0.43863 0.33061 0.0
C3700 C 0.67287 0.43375 0.3279 0.0
C3701 C 0.66106 0.44169 0.32526 0.0
C3702 C 0.66808 0.43514 0.31434 0.0
C3703 C 0.6791 0.42535 0.31767 0.0
O3704 O 0.68706 0.40417 0.30843 0.0
O3705 O 0.69755 0.41196 0.30914 0.0
O3706 O 0.68597 0.42731 0.31442 0.0
O3707 O 0.67596 0.41884 0.31467 0.0
H3708 H 0.69147 0.4087 0.32586 0.0
H3709 H 0.69468 0.40076 0.33775 0.0
H3710 H 0.70609 0.38316 0.32275 0.0
H3711 H 0.70311 0.39123 0.31105 0.0
H3712 H 0.69421 0.40273 0.27249 0.0
H3713 H 0.69291 0.408 0.28615 0.0
H3714 H 0.67706 0.42019 0.26432 0.0
H3715 H 0.67602 0.42546 0.27777 0.0
H3716 H 0.65753 0.44237 0.31286 0.0
H3717 H 0.66612 0.43971 0.33695 0.0
H3718 H 0.67692 0.43115 0.33222 0.0
H3719 H 0.66842 0.43364 0.30807 0.0
C3720 C 0.1195 0.91186 0.9341 0.0
C3721 C 0.12206 0.90969 0.92641 0.0
C3722 C 0.11511 0.92116 0.92078 0.0
C3723 C 0.11983 0.9143 0.91977 0.0
C3724 C 0.11233 0.9231 0.92843 0.0
C3725 C 0.11448 0.91847 0.93502 0.0
U3726 U 0.13189 0.89569 0.94464 0.0
O3727 O 0.13995 0.89682 0.95492 0.0
O3728 O 0.12952 0.8889 0.95569 0.0
C3729 C 0.13574 0.89193 0.95938 0.0
C3730 C 0.12249 0.90779 0.94132 0.0
C3731 C 0.1348 0.89408 0.96788 0.0
C3732 C 0.13259 0.90362 0.97863 0.0
C3733 C 0.13254 0.90174 0.97044 0.0
C3734 C 0.13695 0.8902 0.98167 0.0
C3735 C 0.13487 0.89787 0.98433 0.0
C3736 C 0.1369 0.88834 0.97356 0.0
C3737 C 0.14304 0.88103 0.93007 0.0
C3738 C 0.15505 0.87296 0.93143 0.0
C3739 C 0.14777 0.87311 0.91895 0.0
C3740 C 0.14215 0.87826 0.92225 0.0
C3741 C 0.15445 0.87065 0.92337 0.0
C3742 C 0.14938 0.87817 0.93476 0.0
C3743 C 0.13776 0.88757 0.9326 0.0
O3744 O 0.11981 0.90054 0.94264 0.0
O3745 O 0.13018 0.90852 0.94264 0.0
O3746 O 0.14119 0.89396 0.93558 0.0
O3747 O 0.13101 0.88568 0.93614 0.0
H3748 H 0.12597 0.90461 0.92558 0.0
H3749 H 0.1221 0.91275 0.91392 0.0
H3750 H 0.1087 0.92837 0.92935 0.0
H3751 H 0.11245 0.92023 0.9409 0.0
H3752 H 0.13088 0.90957 0.98048 0.0
H3753 H 0.13091 0.90627 0.96614 0.0
H3754 H 0.13888 0.88566 0.98584 0.0
H3755 H 0.13874 0.88243 0.97171 0.0
H3756 H 0.16012 0.87112 0.93499 0.0
H3757 H 0.14704 0.87131 0.91278 0.0
H3758 H 0.1373 0.88038 0.91855 0.0
H3759 H 0.15014 0.88024 0.94083 0.0
C3760 C 0.32069 0.9005 0.2 0.0
C3761 C 0.32268 0.90338 0.19238 0.0
C3762 C 0.31721 0.8913 0.18629 0.0
C3763 C 0.32093 0.89882 0.18558 0.0
C3764 C 0.31514 0.88858 0.19396 0.0
C3765 C 0.31685 0.89313 0.20071 0.0
U3766 U 0.33178 0.91707 0.21144 0.0
O3767 O 0.3283 0.92336 0.22248 0.0
O3768 O 0.33918 0.91607 0.22219 0.0
C3769 C 0.33437 0.92046 0.22653 0.0
C3770 C 0.32297 0.90476 0.20735 0.0
C3771 C 0.33286 0.91752 0.2347 0.0
C3772 C 0.32742 0.90789 0.24418 0.0
C3773 C 0.32775 0.91108 0.23641 0.0
C3774 C 0.33706 0.91771 0.24856 0.0
C3775 C 0.33228 0.91106 0.25026 0.0
C3776 C 0.33733 0.92091 0.24089 0.0
C3777 C 0.34425 0.93145 0.19743 0.0
C3778 C 0.35584 0.93997 0.19963 0.0
C3779 C 0.35099 0.93764 0.18622 0.0
C3780 C 0.34483 0.93296 0.18924 0.0
C3781 C 0.35669 0.941 0.19134 0.0
C3782 C 0.34967 0.93514 0.20267 0.0
C3783 C 0.33863 0.92517 0.1999 0.0
O3784 O 0.33053 0.9042 0.20934 0.0
O3785 O 0.32005 0.91197 0.20832 0.0
O3786 O 0.33173 0.92725 0.20303 0.0
O3787 O 0.34174 0.91875 0.20312 0.0
H3788 H 0.32568 0.90906 0.19171 0.0
H3789 H 0.32254 0.90116 0.17977 0.0
H3790 H 0.31242 0.88278 0.1948 0.0
H3791 H 0.31533 0.89079 0.20654 0.0
H3792 H 0.32373 0.90271 0.24534 0.0
H3793 H 0.32427 0.90835 0.2317 0.0
H3794 H 0.34086 0.92026 0.25313 0.0
H3795 H 0.34132 0.92586 0.2397 0.0
H3796 H 0.36019 0.9425 0.20368 0.0
H3797 H 0.3515 0.93839 0.17982 0.0
H3798 H 0.34074 0.93014 0.18509 0.0
H3799 H 0.34934 0.93401 0.20902 0.0
C3800 C 0.19726 0.1167 0.69992 0.0
C3801 C 0.1949 0.11408 0.69233 0.0
C3802 C 0.2007 0.12602 0.68626 0.0
C3803 C 0.19663 0.11869 0.68555 0.0
C3804 C 0.20318 0.12848 0.6939 0.0
C3805 C 0.20148 0.12387 0.70063 0.0
U3806 U 0.18614 0.10015 0.71139 0.0
O3807 O 0.18962 0.09384 0.72243 0.0
O3808 O 0.17879 0.10121 0.72218 0.0
C3809 C 0.18359 0.09678 0.72651 0.0
C3810 C 0.19495 0.11245 0.70727 0.0
C3811 C 0.18514 0.09965 0.73468 0.0
C3812 C 0.18982 0.10965 0.74417 0.0
C3813 C 0.18954 0.10661 0.73634 0.0
C3814 C 0.18162 0.09866 0.74869 0.0
C3815 C 0.18562 0.10582 0.75036 0.0
C3816 C 0.18139 0.09562 0.74096 0.0
C3817 C 0.17364 0.08552 0.69776 0.0
C3818 C 0.16199 0.07719 0.70039 0.0
C3819 C 0.16688 0.07878 0.68688 0.0
C3820 C 0.17305 0.0836 0.68965 0.0
C3821 C 0.16118 0.0757 0.69217 0.0
C3822 C 0.16819 0.08212 0.70318 0.0
C3823 C 0.17927 0.09191 0.69995 0.0
O3824 O 0.18738 0.113 0.70922 0.0
O3825 O 0.19787 0.10523 0.70826 0.0
O3826 O 0.18621 0.08993 0.70304 0.0
O3827 O 0.17616 0.09837 0.7031 0.0
H3828 H 0.19162 0.10855 0.69166 0.0
H3829 H 0.19472 0.11654 0.67977 0.0
H3830 H 0.20619 0.13413 0.69474 0.0
H3831 H 0.2033 0.12602 0.70644 0.0
H3832 H 0.19294 0.1152 0.74529 0.0
H3833 H 0.19247 0.10982 0.73156 0.0
H3834 H 0.17839 0.09554 0.75335 0.0
H3835 H 0.17797 0.09025 0.73982 0.0
H3836 H 0.1576 0.07492 0.70455 0.0
H3837 H 0.16632 0.07776 0.68052 0.0
H3838 H 0.17714 0.08621 0.68537 0.0
H3839 H 0.16851 0.08358 0.70947 0.0
C3840 C 0.15478 0.20974 0.36779 0.0
C3841 C 0.1595 0.2028 0.3676 0.0
C3842 C 0.14818 0.21055 0.36276 0.0
C3843 C 0.14608 0.2044 0.35745 0.0
C3844 C 0.15093 0.19759 0.35705 0.0
C3845 C 0.15759 0.19682 0.36202 0.0
C3846 C 0.1385 0.20485 0.35286 0.0
C3847 C 0.13617 0.21198 0.34915 0.0
C3848 C 0.12851 0.21283 0.34576 0.0
C3849 C 0.12329 0.20622 0.34589 0.0
C3850 C 0.12563 0.19894 0.34939 0.0
C3851 C 0.13325 0.19834 0.35283 0.0
C3852 C 0.11993 0.19217 0.35028 0.0
C3853 C 0.11213 0.19353 0.35306 0.0
C3854 C 0.1225 0.18425 0.34919 0.0
C3855 C 0.11752 0.17784 0.35119 0.0
C3856 C 0.10991 0.17923 0.35441 0.0
C3857 C 0.12582 0.2208 0.34275 0.0
C3858 C 0.12835 0.22779 0.34663 0.0
C3859 C 0.12057 0.22155 0.33622 0.0
C3860 C 0.11778 0.22908 0.3338 0.0
C3861 C 0.12017 0.23601 0.33788 0.0
C3862 C 0.12563 0.23526 0.34419 0.0
C3863 C 0.1072 0.18713 0.35515 0.0
H3864 H 0.15599 0.21444 0.37204 0.0
H3865 H 0.1445 0.21583 0.36328 0.0
H3866 H 0.14953 0.19281 0.35295 0.0
H3867 H 0.16119 0.19148 0.36153 0.0
H3868 H 0.14032 0.21692 0.34903 0.0
H3869 H 0.13492 0.19292 0.35594 0.0
H3870 H 0.11731 0.2068 0.3435 0.0
H3871 H 0.10999 0.19954 0.35405 0.0
H3872 H 0.12846 0.18301 0.34702 0.0
H3873 H 0.11978 0.17182 0.35062 0.0
H3874 H 0.13225 0.22754 0.35177 0.0
H3875 H 0.11856 0.21632 0.33301 0.0
H3876 H 0.10135 0.18835 0.35762 0.0
H3877 H 0.12767 0.24048 0.34741 0.0
H3878 H 0.11356 0.22946 0.32892 0.0
C3879 C 0.05604 0.84338 0.62959 0.0
C3880 C 0.06296 0.84454 0.6342 0.0
C3881 C 0.05321 0.84949 0.62458 0.0
C3882 C 0.0572 0.85688 0.6242 0.0
C3883 C 0.06396 0.85803 0.62905 0.0
C3884 C 0.06683 0.85194 0.63391 0.0
C3885 C 0.05441 0.86354 0.61898 0.0
C3886 C 0.04629 0.86542 0.61818 0.0
C3887 C 0.04384 0.87249 0.61429 0.0
C3888 C 0.04974 0.87794 0.6117 0.0
C3889 C 0.05793 0.87618 0.61258 0.0
C3890 C 0.06007 0.86865 0.61554 0.0
C3891 C 0.06432 0.88237 0.61144 0.0
C3892 C 0.06354 0.88878 0.60605 0.0
C3893 C 0.07123 0.8821 0.61624 0.0
C3894 C 0.0771 0.88792 0.61569 0.0
C3895 C 0.07619 0.89451 0.61061 0.0
C3896 C 0.03511 0.8743 0.6135 0.0
C3897 C 0.02959 0.86809 0.61233 0.0
C3898 C 0.03216 0.88214 0.61427 0.0
C3899 C 0.02392 0.88364 0.61424 0.0
C3900 C 0.01843 0.87734 0.61353 0.0
C3901 C 0.02138 0.86958 0.61239 0.0
C3902 C 0.06938 0.8948 0.60567 0.0
H3903 H 0.05292 0.83773 0.62975 0.0
H3904 H 0.04797 0.8484 0.62096 0.0
H3905 H 0.06704 0.86371 0.62919 0.0
H3906 H 0.07204 0.85309 0.63756 0.0
H3907 H 0.04189 0.86157 0.62094 0.0
H3908 H 0.06628 0.86689 0.61565 0.0
H3909 H 0.04796 0.88362 0.60921 0.0
H3910 H 0.05839 0.88922 0.60218 0.0
H3911 H 0.07209 0.87751 0.62069 0.0
H3912 H 0.08233 0.8873 0.61944 0.0
H3913 H 0.03159 0.86201 0.61148 0.0
H3914 H 0.03617 0.8871 0.61525 0.0
H3915 H 0.06844 0.89978 0.60167 0.0
H3916 H 0.01732 0.8646 0.61165 0.0
H3917 H 0.02185 0.88969 0.61517 0.0
C3918 C 0.4079 0.83474 0.84715 0.0
C3919 C 0.40846 0.83752 0.85506 0.0
C3920 C 0.40275 0.82839 0.84523 0.0
C3921 C 0.39797 0.82488 0.85116 0.0
C3922 C 0.39855 0.82772 0.85903 0.0
C3923 C 0.40372 0.83393 0.86095 0.0
C3924 C 0.39212 0.81845 0.84939 0.0
C3925 C 0.39442 0.81121 0.84584 0.0
C3926 C 0.38914 0.80462 0.84576 0.0
C3927 C 0.38156 0.80545 0.84938 0.0
C3928 C 0.37925 0.81264 0.85304 0.0
C3929 C 0.38441 0.8192 0.85252 0.0
C3930 C 0.37201 0.81313 0.85826 0.0
C3931 C 0.36505 0.8087 0.85668 0.0
C3932 C 0.37219 0.81791 0.86517 0.0
C3933 C 0.36562 0.8184 0.87023 0.0
C3934 C 0.35869 0.81395 0.86871 0.0
C3935 C 0.39183 0.79663 0.84276 0.0
C3936 C 0.39689 0.79588 0.83608 0.0
C3937 C 0.38951 0.78964 0.84679 0.0
C3938 C 0.39227 0.78218 0.84435 0.0
C3939 C 0.39752 0.78143 0.83787 0.0
C3940 C 0.39969 0.78835 0.83364 0.0
C3941 C 0.35848 0.80908 0.86187 0.0
H3942 H 0.4115 0.83743 0.8425 0.0
H3943 H 0.40239 0.82634 0.83912 0.0
H3944 H 0.39498 0.82511 0.86375 0.0
H3945 H 0.40395 0.836 0.86707 0.0
H3946 H 0.40046 0.81055 0.84365 0.0
H3947 H 0.38263 0.82488 0.85502 0.0
H3948 H 0.37757 0.80038 0.84965 0.0
H3949 H 0.36463 0.80497 0.85144 0.0
H3950 H 0.37748 0.82122 0.86682 0.0
H3951 H 0.36599 0.82234 0.87533 0.0
H3952 H 0.39875 0.80111 0.83277 0.0
H3953 H 0.38578 0.78989 0.85205 0.0
H3954 H 0.35327 0.8055 0.86054 0.0
H3955 H 0.40377 0.78798 0.82864 0.0
H3956 H 0.39041 0.77696 0.84769 0.0
C3957 C 0.4623 0.17413 0.12972 0.0
C3958 C 0.45556 0.17279 0.13456 0.0
C3959 C 0.4652 0.16806 0.12471 0.0
C3960 C 0.46145 0.16055 0.12453 0.0
C3961 C 0.45491 0.1592 0.12964 0.0
C3962 C 0.45199 0.16524 0.13451 0.0
C3963 C 0.46419 0.15397 0.11918 0.0
C3964 C 0.47232 0.15219 0.11814 0.0
C3965 C 0.47471 0.1451 0.11426 0.0
C3966 C 0.46879 0.13967 0.11168 0.0
C3967 C 0.46064 0.14137 0.11274 0.0
C3968 C 0.45848 0.1488 0.11591 0.0
C3969 C 0.45434 0.13511 0.11175 0.0
C3970 C 0.45469 0.12925 0.10574 0.0
C3971 C 0.44799 0.13481 0.11724 0.0
C3972 C 0.4422 0.1289 0.11678 0.0
C3973 C 0.44265 0.12287 0.111 0.0
C3974 C 0.48338 0.14305 0.11366 0.0
C3975 C 0.48912 0.14897 0.11204 0.0
C3976 C 0.48602 0.13521 0.11511 0.0
C3977 C 0.49417 0.13341 0.11524 0.0
C3978 C 0.49989 0.13938 0.11387 0.0
C3979 C 0.49729 0.14715 0.11211 0.0
C3980 C 0.4489 0.12318 0.10537 0.0
H3981 H 0.46521 0.1799 0.1297 0.0
H3982 H 0.47027 0.16928 0.1209 0.0
H3983 H 0.45204 0.15342 0.12994 0.0
H3984 H 0.44693 0.16395 0.13833 0.0
H3985 H 0.47677 0.15606 0.12077 0.0
H3986 H 0.45222 0.15036 0.11634 0.0
H3987 H 0.47054 0.13401 0.10913 0.0
H3988 H 0.45946 0.1293 0.10138 0.0
H3989 H 0.44755 0.13903 0.1221 0.0
H3990 H 0.4374 0.12901 0.12111 0.0
H3991 H 0.48731 0.15505 0.11082 0.0
H3992 H 0.48183 0.1305 0.11647 0.0
H3993 H 0.44944 0.11863 0.10083 0.0
H3994 H 0.50157 0.15188 0.1111 0.0
H3995 H 0.49603 0.12737 0.1166 0.0
C3996 C 0.15531 0.80715 0.15003 0.0
C3997 C 0.15957 0.81438 0.14971 0.0
C3998 C 0.1487 0.80632 0.15504 0.0
C3999 C 0.14617 0.81271 0.15985 0.0
C4000 C 0.15063 0.8198 0.1598 0.0
C4001 C 0.15725 0.82063 0.1548 0.0
C4002 C 0.13851 0.81222 0.16433 0.0
C4003 C 0.13627 0.8052 0.1683 0.0
C4004 C 0.1286 0.80435 0.17165 0.0
C4005 C 0.12332 0.81092 0.17139 0.0
C4006 C 0.12557 0.81812 0.16765 0.0
C4007 C 0.13314 0.81861 0.16406 0.0
C4008 C 0.11996 0.82501 0.16687 0.0
C4009 C 0.11179 0.82382 0.16535 0.0
C4010 C 0.1229 0.83287 0.16697 0.0
C4011 C 0.11796 0.83931 0.16508 0.0
C4012 C 0.10986 0.83812 0.16319 0.0
C4013 C 0.12596 0.79639 0.17478 0.0
C4014 C 0.12872 0.78936 0.17112 0.0
C4015 C 0.1205 0.79567 0.18114 0.0
C4016 C 0.11773 0.78814 0.18359 0.0
C4017 C 0.12036 0.78117 0.17972 0.0
C4018 C 0.12604 0.7819 0.17361 0.0
C4019 C 0.1068 0.8303 0.16359 0.0
H4020 H 0.15688 0.80223 0.14616 0.0
H4021 H 0.14535 0.8008 0.15487 0.0
H4022 H 0.14892 0.82479 0.16354 0.0
H4023 H 0.16051 0.8262 0.15488 0.0
H4024 H 0.14052 0.80035 0.16865 0.0
H4025 H 0.13473 0.82388 0.16067 0.0
H4026 H 0.1174 0.81037 0.1739 0.0
H4027 H 0.10929 0.81787 0.16518 0.0
H4028 H 0.12911 0.83406 0.16829 0.0
H4029 H 0.12062 0.84518 0.16478 0.0
H4030 H 0.13278 0.78957 0.1661 0.0
H4031 H 0.1183 0.80091 0.1842 0.0
H4032 H 0.10057 0.82912 0.16237 0.0
H4033 H 0.12831 0.77666 0.17057 0.0
H4034 H 0.11333 0.7878 0.18831 0.0
C4035 C 0.46211 0.84307 0.38776 0.0
C4036 C 0.45535 0.84439 0.38296 0.0
C4037 C 0.46502 0.84915 0.39277 0.0
C4038 C 0.46123 0.85664 0.39299 0.0
C4039 C 0.45466 0.85797 0.38794 0.0
C4040 C 0.45175 0.85194 0.38305 0.0
C4041 C 0.464 0.86325 0.39826 0.0
C4042 C 0.47211 0.86516 0.39906 0.0
C4043 C 0.47452 0.87227 0.40288 0.0
C4044 C 0.46858 0.87772 0.40542 0.0
C4045 C 0.46039 0.8759 0.40459 0.0
C4046 C 0.45832 0.86832 0.40169 0.0
C4047 C 0.45395 0.88204 0.40577 0.0
C4048 C 0.45485 0.88863 0.41092 0.0
C4049 C 0.44685 0.88155 0.40127 0.0
C4050 C 0.44092 0.88732 0.40187 0.0
C4051 C 0.44197 0.8941 0.40665 0.0
C4052 C 0.48323 0.87415 0.40365 0.0
C4053 C 0.48877 0.86799 0.40504 0.0
C4054 C 0.48615 0.88197 0.40266 0.0
C4055 C 0.49438 0.88351 0.40269 0.0
C4056 C 0.4999 0.87726 0.40364 0.0
C4057 C 0.49697 0.86952 0.405 0.0
C4058 C 0.44897 0.89462 0.4113 0.0
H4059 H 0.46504 0.83731 0.38776 0.0
H4060 H 0.47012 0.84794 0.39654 0.0
H4061 H 0.45176 0.86374 0.38769 0.0
H4062 H 0.44668 0.85324 0.37924 0.0
H4063 H 0.47653 0.8613 0.39634 0.0
H4064 H 0.45213 0.86648 0.4016 0.0
H4065 H 0.47036 0.88342 0.40785 0.0
H4066 H 0.46013 0.88927 0.41458 0.0
H4067 H 0.44585 0.87683 0.397 0.0
H4068 H 0.43555 0.8865 0.39837 0.0
H4069 H 0.48678 0.86193 0.40605 0.0
H4070 H 0.48211 0.88688 0.40152 0.0
H4071 H 0.45004 0.89975 0.41507 0.0
H4072 H 0.50104 0.86459 0.40592 0.0
H4073 H 0.49642 0.88954 0.40158 0.0
C4074 C 0.40807 0.18273 0.66995 0.0
C4075 C 0.40857 0.1799 0.66206 0.0
C4076 C 0.40295 0.1891 0.67186 0.0
C4077 C 0.39815 0.19259 0.66593 0.0
C4078 C 0.39871 0.18972 0.65807 0.0
C4079 C 0.40382 0.18347 0.65617 0.0
C4080 C 0.39226 0.19897 0.66772 0.0
C4081 C 0.39445 0.20613 0.67153 0.0
C4082 C 0.38909 0.21265 0.67181 0.0
C4083 C 0.38147 0.2118 0.66826 0.0
C4084 C 0.37934 0.20475 0.66429 0.0
C4085 C 0.3846 0.19828 0.66446 0.0
C4086 C 0.3722 0.20436 0.65902 0.0
C4087 C 0.36475 0.20742 0.66135 0.0
C4088 C 0.37293 0.20087 0.65142 0.0
C4089 C 0.36635 0.20017 0.64641 0.0
C4090 C 0.35883 0.20297 0.64879 0.0
C4091 C 0.39173 0.22063 0.67489 0.0
C4092 C 0.39707 0.22136 0.68135 0.0
C4093 C 0.38914 0.22765 0.67108 0.0
C4094 C 0.39188 0.23511 0.67352 0.0
C4095 C 0.39743 0.23584 0.67975 0.0
C4096 C 0.39988 0.22889 0.68377 0.0
C4097 C 0.35811 0.20672 0.65628 0.0
H4098 H 0.41168 0.18006 0.6746 0.0
H4099 H 0.40261 0.19117 0.67797 0.0
H4100 H 0.39514 0.19232 0.65334 0.0
H4101 H 0.40399 0.18136 0.65007 0.0
H4102 H 0.40049 0.20679 0.67374 0.0
H4103 H 0.3829 0.19275 0.66157 0.0
H4104 H 0.37733 0.21675 0.66821 0.0
H4105 H 0.36401 0.21017 0.66714 0.0
H4106 H 0.37863 0.19869 0.6493 0.0
H4107 H 0.36718 0.19746 0.6406 0.0
H4108 H 0.39914 0.21612 0.6845 0.0
H4109 H 0.3852 0.22744 0.66597 0.0
H4110 H 0.35239 0.20895 0.6583 0.0
H4111 H 0.40418 0.22924 0.68858 0.0
H4112 H 0.38977 0.24034 0.67035 0.0
C4113 C 0.05626 0.17387 0.88803 0.0
C4114 C 0.06301 0.17256 0.88321 0.0
C4115 C 0.05336 0.16778 0.89303 0.0
C4116 C 0.05715 0.16029 0.89323 0.0
C4117 C 0.06372 0.15898 0.88817 0.0
C4118 C 0.06663 0.16502 0.88329 0.0
C4119 C 0.05437 0.15367 0.89851 0.0
C4120 C 0.04625 0.15187 0.89943 0.0
C4121 C 0.04379 0.1448 0.90333 0.0
C4122 C 0.04968 0.13933 0.90589 0.0
C4123 C 0.05787 0.14103 0.90492 0.0
C4124 C 0.06003 0.14852 0.90186 0.0
C4125 C 0.0642 0.13481 0.90599 0.0
C4126 C 0.06362 0.12866 0.9117 0.0
C4127 C 0.07086 0.13481 0.90085 0.0
C4128 C 0.0767 0.12896 0.90137 0.0
C4129 C 0.07599 0.12264 0.90681 0.0
C4130 C 0.03507 0.14297 0.9041 0.0
C4131 C 0.02955 0.14916 0.90541 0.0
C4132 C 0.03213 0.13516 0.90316 0.0
C4133 C 0.02389 0.13365 0.90316 0.0
C4134 C 0.01839 0.13993 0.90403 0.0
C4135 C 0.02134 0.14767 0.90534 0.0
C4136 C 0.06944 0.12263 0.91209 0.0
H4137 H 0.05332 0.17962 0.88804 0.0
H4138 H 0.04827 0.16898 0.89682 0.0
H4139 H 0.06662 0.15321 0.8879 0.0
H4140 H 0.0717 0.16375 0.87948 0.0
H4141 H 0.04184 0.15576 0.89673 0.0
H4142 H 0.06628 0.15017 0.90159 0.0
H4143 H 0.0479 0.13366 0.90842 0.0
H4144 H 0.05864 0.12846 0.91581 0.0
H4145 H 0.07153 0.13922 0.89618 0.0
H4146 H 0.08174 0.12934 0.89734 0.0
H4147 H 0.03156 0.15522 0.90637 0.0
H4148 H 0.03615 0.13022 0.90207 0.0
H4149 H 0.06868 0.11784 0.91637 0.0
H4150 H 0.01729 0.15262 0.90621 0.0
H4151 H 0.02183 0.12762 0.9021 0.0
C4152 C 0.34793 0.10893 0.18374 0.0
C4153 C 0.35503 0.10972 0.17935 0.0
C4154 C 0.34643 0.11397 0.19028 0.0
C4155 C 0.35205 0.1198 0.19254 0.0
C4156 C 0.35928 0.12026 0.18826 0.0
C4157 C 0.36069 0.11538 0.18171 0.0
C4158 C 0.35053 0.12554 0.19919 0.0
C4159 C 0.34683 0.12323 0.20638 0.0
C4160 C 0.34643 0.12854 0.21293 0.0
C4161 C 0.34985 0.1362 0.21215 0.0
C4162 C 0.35369 0.1385 0.20508 0.0
C4163 C 0.35357 0.13332 0.19855 0.0
C4164 C 0.35877 0.14576 0.20473 0.0
C4165 C 0.35622 0.15312 0.20784 0.0
C4166 C 0.36643 0.14524 0.20132 0.0
C4167 C 0.37137 0.1519 0.2009 0.0
C4168 C 0.36882 0.15928 0.20388 0.0
C4169 C 0.34331 0.12585 0.22084 0.0
C4170 C 0.33663 0.12076 0.22148 0.0
C4171 C 0.34722 0.12818 0.22789 0.0
C4172 C 0.34468 0.1254 0.23531 0.0
C4173 C 0.3382 0.12014 0.23593 0.0
C4174 C 0.33408 0.11796 0.22896 0.0
C4175 C 0.36118 0.15984 0.20736 0.0
H4176 H 0.3435 0.10456 0.182 0.0
H4177 H 0.34082 0.11342 0.19343 0.0
H4178 H 0.36391 0.12443 0.18996 0.0
H4179 H 0.36625 0.11601 0.17846 0.0
H4180 H 0.34469 0.11717 0.20705 0.0
H4181 H 0.35622 0.13529 0.19299 0.0
H4182 H 0.34985 0.14027 0.21716 0.0
H4183 H 0.35037 0.15369 0.21052 0.0
H4184 H 0.36865 0.13963 0.19902 0.0
H4185 H 0.37716 0.15129 0.1981 0.0
H4186 H 0.33343 0.11889 0.21619 0.0
H4187 H 0.35246 0.13195 0.22771 0.0
H4188 H 0.35908 0.16546 0.20975 0.0
H4189 H 0.32909 0.11386 0.22927 0.0
H4190 H 0.34795 0.12721 0.24058 0.0
C4191 C 0.17472 0.12949 0.46178 0.0
C4192 C 0.17328 0.1344 0.45513 0.0
C4193 C 0.1687 0.12443 0.46471 0.0
C4194 C 0.16113 0.12427 0.46106 0.0
C4195 C 0.15967 0.12946 0.45463 0.0
C4196 C 0.16565 0.1344 0.45168 0.0
C4197 C 0.15461 0.11887 0.46379 0.0
C4198 C 0.15279 0.11789 0.47191 0.0
C4199 C 0.14569 0.11401 0.47429 0.0
C4200 C 0.14029 0.11139 0.46836 0.0
C4201 C 0.14203 0.11239 0.46021 0.0
C4202 C 0.14949 0.11554 0.45809 0.0
C4203 C 0.1358 0.11135 0.45389 0.0
C4204 C 0.12981 0.10547 0.45436 0.0
C4205 C 0.13563 0.11668 0.4474 0.0
C4206 C 0.12974 0.11618 0.44159 0.0
C4207 C 0.12359 0.11054 0.44217 0.0
C4208 C 0.1436 0.11346 0.48294 0.0
C4209 C 0.14951 0.11192 0.4887 0.0
C4210 C 0.13573 0.11486 0.48553 0.0
C4211 C 0.13388 0.11495 0.49366 0.0
C4212 C 0.13984 0.11367 0.49943 0.0
C4213 C 0.14765 0.11201 0.49685 0.0
C4214 C 0.12376 0.10507 0.44856 0.0
H4215 H 0.18055 0.12943 0.46459 0.0
H4216 H 0.16999 0.12055 0.46972 0.0
H4217 H 0.15384 0.12977 0.45185 0.0
H4218 H 0.16427 0.13829 0.44671 0.0
H4219 H 0.15664 0.12057 0.47635 0.0
H4220 H 0.15112 0.11593 0.45184 0.0
H4221 H 0.13461 0.10885 0.4701 0.0
H4222 H 0.12975 0.10122 0.45923 0.0
H4223 H 0.13993 0.12146 0.44685 0.0
H4224 H 0.12997 0.12037 0.43668 0.0
H4225 H 0.15561 0.11073 0.48693 0.0
H4226 H 0.13103 0.11617 0.48131 0.0
H4227 H 0.1191 0.10065 0.44922 0.0
H4228 H 0.15239 0.11106 0.50114 0.0
H4229 H 0.12779 0.11616 0.49545 0.0
C4230 C 0.14971 0.86283 0.71023 0.0
C4231 C 0.15 0.85818 0.70325 0.0
C4232 C 0.15464 0.8695 0.71112 0.0
C4233 C 0.15995 0.87171 0.70502 0.0
C4234 C 0.1605 0.86689 0.69819 0.0
C4235 C 0.15562 0.86018 0.69734 0.0
C4236 C 0.16434 0.87941 0.70544 0.0
C4237 C 0.1681 0.88186 0.7125 0.0
C4238 C 0.17155 0.8895 0.71315 0.0
C4239 C 0.17144 0.89458 0.70641 0.0
C4240 C 0.16784 0.89214 0.69921 0.0
C4241 C 0.16425 0.88457 0.69887 0.0
C4242 C 0.16725 0.89755 0.69213 0.0
C4243 C 0.16578 0.90578 0.69302 0.0
C4244 C 0.16739 0.89434 0.68437 0.0
C4245 C 0.16539 0.89903 0.67779 0.0
C4246 C 0.1634 0.9071 0.67875 0.0
C4247 C 0.17487 0.89226 0.72098 0.0
C4248 C 0.1714 0.8897 0.72819 0.0
C4249 C 0.18138 0.89757 0.72138 0.0
C4250 C 0.18424 0.90029 0.72875 0.0
C4251 C 0.18073 0.89771 0.73593 0.0
C4252 C 0.17431 0.89233 0.73553 0.0
C4253 C 0.16392 0.91052 0.68637 0.0
H4254 H 0.14542 0.86154 0.71489 0.0
H4255 H 0.15403 0.87314 0.71641 0.0
H4256 H 0.16463 0.86838 0.69344 0.0
H4257 H 0.1562 0.85663 0.69198 0.0
H4258 H 0.16828 0.87776 0.71749 0.0
H4259 H 0.16101 0.88279 0.69357 0.0
H4260 H 0.17401 0.90049 0.7068 0.0
H4261 H 0.16559 0.90848 0.69888 0.0
H4262 H 0.16874 0.8881 0.68339 0.0
H4263 H 0.16511 0.89627 0.67195 0.0
H4264 H 0.16624 0.88581 0.72821 0.0
H4265 H 0.18432 0.89961 0.716 0.0
H4266 H 0.16239 0.91673 0.68726 0.0
H4267 H 0.17133 0.89035 0.74091 0.0
H4268 H 0.18923 0.90439 0.72883 0.0
C4269 C 0.34281 0.88769 0.96138 0.0
C4270 C 0.34431 0.88274 0.95477 0.0
C4271 C 0.34877 0.89283 0.96425 0.0
C4272 C 0.35632 0.89304 0.96057 0.0
C4273 C 0.35784 0.88784 0.95417 0.0
C4274 C 0.35192 0.8828 0.9513 0.0
C4275 C 0.36279 0.89846 0.96331 0.0
C4276 C 0.36465 0.89927 0.97142 0.0
C4277 C 0.37172 0.90314 0.97384 0.0
C4278 C 0.37709 0.9059 0.96794 0.0
C4279 C 0.37534 0.90501 0.95978 0.0
C4280 C 0.36786 0.9019 0.95763 0.0
C4281 C 0.38159 0.90605 0.95348 0.0
C4282 C 0.38776 0.91173 0.9541 0.0
C4283 C 0.38164 0.90086 0.94688 0.0
C4284 C 0.38758 0.90129 0.94112 0.0
C4285 C 0.3939 0.90672 0.94186 0.0
C4286 C 0.37381 0.90352 0.98248 0.0
C4287 C 0.36784 0.90464 0.98829 0.0
C4288 C 0.38172 0.90235 0.98505 0.0
C4289 C 0.38357 0.90212 0.99317 0.0
C4290 C 0.37756 0.90296 0.99896 0.0
C4291 C 0.36968 0.90434 0.99642 0.0
C4292 C 0.39387 0.91205 0.94835 0.0
H4293 H 0.33699 0.8877 0.9642 0.0
H4294 H 0.34745 0.89672 0.96923 0.0
H4295 H 0.36367 0.8876 0.95138 0.0
H4296 H 0.35334 0.87888 0.94636 0.0
H4297 H 0.36085 0.89644 0.97581 0.0
H4298 H 0.3662 0.90161 0.9514 0.0
H4299 H 0.38276 0.90843 0.9697 0.0
H4300 H 0.38793 0.91587 0.95905 0.0
H4301 H 0.37722 0.89621 0.94621 0.0
H4302 H 0.38725 0.89722 0.93612 0.0
H4303 H 0.36169 0.90567 0.98655 0.0
H4304 H 0.38648 0.90135 0.98081 0.0
H4305 H 0.39867 0.91631 0.94912 0.0
H4306 H 0.36489 0.90496 1.00071 0.0
H4307 H 0.38972 0.90117 0.99491 0.0
C4308 C 0.34817 0.90807 0.33391 0.0
C4309 C 0.35528 0.90722 0.33828 0.0
C4310 C 0.34668 0.90316 0.32726 0.0
C4311 C 0.35234 0.89742 0.32486 0.0
C4312 C 0.35959 0.89694 0.32908 0.0
C4313 C 0.36099 0.90168 0.33574 0.0
C4314 C 0.35079 0.89169 0.31822 0.0
C4315 C 0.34721 0.89404 0.31098 0.0
C4316 C 0.34669 0.88867 0.30447 0.0
C4317 C 0.34994 0.88093 0.30537 0.0
C4318 C 0.35377 0.87863 0.31245 0.0
C4319 C 0.35368 0.88387 0.31894 0.0
C4320 C 0.35874 0.87126 0.31289 0.0
C4321 C 0.35629 0.86402 0.30943 0.0
C4322 C 0.36623 0.87157 0.3167 0.0
C4323 C 0.37109 0.86484 0.31714 0.0
C4324 C 0.3686 0.85762 0.3138 0.0
C4325 C 0.34349 0.89133 0.29652 0.0
C4326 C 0.33749 0.89721 0.29587 0.0
C4327 C 0.34662 0.88812 0.28941 0.0
C4328 C 0.34396 0.89072 0.28197 0.0
C4329 C 0.33826 0.89683 0.2813 0.0
C4330 C 0.33494 0.89995 0.28836 0.0
C4331 C 0.36116 0.85722 0.30994 0.0
H4332 H 0.3437 0.91235 0.33576 0.0
H4333 H 0.34105 0.90371 0.32414 0.0
H4334 H 0.36423 0.89282 0.32728 0.0
H4335 H 0.36657 0.90102 0.33894 0.0
H4336 H 0.34525 0.90015 0.31029 0.0
H4337 H 0.35623 0.88191 0.32455 0.0
H4338 H 0.34979 0.87674 0.30047 0.0
H4339 H 0.35057 0.86357 0.30645 0.0
H4340 H 0.36843 0.87707 0.31927 0.0
H4341 H 0.37679 0.86526 0.32016 0.0
H4342 H 0.33481 0.89977 0.30115 0.0
H4343 H 0.35136 0.88375 0.28949 0.0
H4344 H 0.35916 0.85167 0.30731 0.0
H4345 H 0.33055 0.90469 0.28809 0.0
H4346 H 0.34654 0.88802 0.27671 0.0
C4347 C 0.34353 0.12962 0.55607 0.0
C4348 C 0.34491 0.13451 0.56275 0.0
C4349 C 0.34959 0.1246 0.55316 0.0
C4350 C 0.35714 0.12445 0.55687 0.0
C4351 C 0.35852 0.12959 0.56335 0.0
C4352 C 0.3525 0.13449 0.56627 0.0
C4353 C 0.36371 0.11913 0.5541 0.0
C4354 C 0.36551 0.11819 0.54598 0.0
C4355 C 0.37253 0.11421 0.54353 0.0
C4356 C 0.37797 0.11158 0.54943 0.0
C4357 C 0.37628 0.11261 0.5576 0.0
C4358 C 0.36883 0.11576 0.55977 0.0
C4359 C 0.38253 0.11156 0.56391 0.0
C4360 C 0.38859 0.10576 0.56339 0.0
C4361 C 0.38263 0.11682 0.57046 0.0
C4362 C 0.38853 0.11633 0.57626 0.0
C4363 C 0.39477 0.1108 0.57561 0.0
C4364 C 0.37439 0.11345 0.53482 0.0
C4365 C 0.36818 0.11246 0.52924 0.0
C4366 C 0.38227 0.11409 0.53193 0.0
C4367 C 0.38383 0.1141 0.52371 0.0
C4368 C 0.37755 0.11358 0.51817 0.0
C4369 C 0.36973 0.11258 0.52105 0.0
C4370 C 0.39467 0.10539 0.56917 0.0
H4371 H 0.33773 0.12956 0.55322 0.0
H4372 H 0.34834 0.12076 0.54813 0.0
H4373 H 0.36433 0.12989 0.56618 0.0
H4374 H 0.35383 0.13836 0.57127 0.0
H4375 H 0.36165 0.12095 0.5416 0.0
H4376 H 0.36721 0.11609 0.56601 0.0
H4377 H 0.3836 0.10897 0.54767 0.0
H4378 H 0.38871 0.10156 0.55849 0.0
H4379 H 0.37829 0.12155 0.57106 0.0
H4380 H 0.38824 0.12046 0.58122 0.0
H4381 H 0.36207 0.11171 0.53119 0.0
H4382 H 0.38723 0.11494 0.53597 0.0
H4383 H 0.39939 0.10104 0.56847 0.0
H4384 H 0.36477 0.112 0.51695 0.0
H4385 H 0.38992 0.11492 0.52169 0.0
C4386 C 0.15037 0.15475 0.80761 0.0
C4387 C 0.15007 0.15903 0.81482 0.0
C4388 C 0.15541 0.14815 0.8068 0.0
C4389 C 0.16027 0.14566 0.81318 0.0
C4390 C 0.16021 0.15014 0.82026 0.0
C4391 C 0.15519 0.15674 0.82107 0.0
C4392 C 0.16482 0.13804 0.81267 0.0
C4393 C 0.16865 0.13578 0.80557 0.0
C4394 C 0.17201 0.12812 0.80468 0.0
C4395 C 0.17178 0.12283 0.81122 0.0
C4396 C 0.16817 0.12509 0.81847 0.0
C4397 C 0.16471 0.13269 0.81909 0.0
C4398 C 0.16726 0.11937 0.82522 0.0
C4399 C 0.16469 0.11151 0.82384 0.0
C4400 C 0.16817 0.12197 0.83315 0.0
C4401 C 0.16616 0.11698 0.83953 0.0
C4402 C 0.16318 0.10927 0.83815 0.0
C4403 C 0.17507 0.1255 0.79672 0.0
C4404 C 0.1712 0.12804 0.78972 0.0
C4405 C 0.18161 0.12025 0.79598 0.0
C4406 C 0.18404 0.11748 0.78844 0.0
C4407 C 0.17996 0.11988 0.78151 0.0
C4408 C 0.17364 0.12533 0.78225 0.0
C4409 C 0.16267 0.10653 0.83023 0.0
H4410 H 0.14648 0.15629 0.80269 0.0
H4411 H 0.15522 0.14478 0.80129 0.0
H4412 H 0.16398 0.14846 0.82523 0.0
H4413 H 0.15527 0.16002 0.82663 0.0
H4414 H 0.1689 0.14 0.80068 0.0
H4415 H 0.16148 0.13427 0.82447 0.0
H4416 H 0.17418 0.11686 0.81062 0.0
H4417 H 0.16386 0.10933 0.81782 0.0
H4418 H 0.17021 0.12797 0.83441 0.0
H4419 H 0.16659 0.11932 0.84553 0.0
H4420 H 0.16606 0.13195 0.78998 0.0
H4421 H 0.1848 0.11822 0.80121 0.0
H4422 H 0.1605 0.10058 0.82896 0.0
H4423 H 0.17043 0.12737 0.77703 0.0
H4424 H 0.18892 0.11326 0.78807 0.0
C4425 C 0.17451 0.88767 0.05585 0.0
C4426 C 0.17314 0.88274 0.06251 0.0
C4427 C 0.16842 0.89265 0.05293 0.0
C4428 C 0.16085 0.8927 0.0566 0.0
C4429 C 0.15947 0.88751 0.06304 0.0
C4430 C 0.16553 0.88266 0.06598 0.0
C4431 C 0.15426 0.89801 0.05385 0.0
C4432 C 0.15251 0.89906 0.04572 0.0
C4433 C 0.14545 0.90297 0.04331 0.0
C4434 C 0.14003 0.9056 0.0492 0.0
C4435 C 0.1417 0.90458 0.05738 0.0
C4436 C 0.14908 0.90128 0.05955 0.0
C4437 C 0.13553 0.90605 0.06368 0.0
C4438 C 0.12972 0.91208 0.06293 0.0
C4439 C 0.13521 0.90105 0.07045 0.0
C4440 C 0.12937 0.90206 0.07627 0.0
C4441 C 0.1235 0.90795 0.07544 0.0
C4442 C 0.14342 0.90358 0.03465 0.0
C4443 C 0.14935 0.90523 0.02892 0.0
C4444 C 0.13558 0.90215 0.03199 0.0
C4445 C 0.13378 0.90208 0.02385 0.0
C4446 C 0.13976 0.90349 0.01814 0.0
C4447 C 0.14753 0.90522 0.02076 0.0
C4448 C 0.12372 0.91297 0.06872 0.0
H4449 H 0.18033 0.8878 0.05303 0.0
H4450 H 0.16966 0.89654 0.04793 0.0
H4451 H 0.15366 0.88713 0.06584 0.0
H4452 H 0.16421 0.87875 0.07096 0.0
H4453 H 0.15641 0.89643 0.04129 0.0
H4454 H 0.15066 0.90086 0.0658 0.0
H4455 H 0.1344 0.90822 0.04741 0.0
H4456 H 0.12976 0.91609 0.05787 0.0
H4457 H 0.13932 0.89613 0.07118 0.0
H4458 H 0.12924 0.89797 0.08128 0.0
H4459 H 0.15543 0.90644 0.03075 0.0
H4460 H 0.13086 0.90076 0.03618 0.0
H4461 H 0.11925 0.91756 0.06793 0.0
H4462 H 0.15227 0.90627 0.01649 0.0
H4463 H 0.12773 0.90076 0.02199 0.0
C4464 C 0.18234 0.34794 0.11116 0.0
C4465 C 0.18044 0.35608 0.11023 0.0
C4466 C 0.1889 0.34559 0.11586 0.0
C4467 C 0.1936 0.35137 0.1197 0.0
C4468 C 0.19194 0.35946 0.11841 0.0
C4469 C 0.1855 0.36179 0.11371 0.0
C4470 C 0.19977 0.34927 0.12567 0.0
C4471 C 0.20692 0.34545 0.12351 0.0
C4472 C 0.2134 0.34515 0.1289 0.0
C4473 C 0.21254 0.34872 0.1365 0.0
C4474 C 0.20546 0.35267 0.13864 0.0
C4475 C 0.19901 0.35251 0.13332 0.0
C4476 C 0.20504 0.35789 0.14585 0.0
C4477 C 0.2088 0.35582 0.15307 0.0
C4478 C 0.20097 0.36522 0.14542 0.0
C4479 C 0.2005 0.37025 0.15201 0.0
C4480 C 0.20422 0.36823 0.15922 0.0
C4481 C 0.22136 0.34207 0.12628 0.0
C4482 C 0.22207 0.3354 0.1212 0.0
C4483 C 0.22837 0.34611 0.12855 0.0
C4484 C 0.23581 0.3437 0.1257 0.0
C4485 C 0.2365 0.33722 0.12045 0.0
C4486 C 0.22958 0.33298 0.11834 0.0
C4487 C 0.2084 0.36094 0.15968 0.0
H4488 H 0.17857 0.34338 0.10856 0.0
H4489 H 0.19007 0.33931 0.11679 0.0
H4490 H 0.19553 0.36403 0.12124 0.0
H4491 H 0.18441 0.3681 0.11295 0.0
H4492 H 0.20761 0.34328 0.11747 0.0
H4493 H 0.19344 0.3554 0.13492 0.0
H4494 H 0.21754 0.34879 0.14059 0.0
H4495 H 0.21199 0.35024 0.15364 0.0
H4496 H 0.19819 0.36718 0.13993 0.0
H4497 H 0.19711 0.37572 0.15143 0.0
H4498 H 0.21682 0.33212 0.11937 0.0
H4499 H 0.22812 0.35136 0.13229 0.0
H4500 H 0.21142 0.35922 0.16513 0.0
H4501 H 0.22993 0.32799 0.11426 0.0
H4502 H 0.24104 0.34706 0.12745 0.0
C4503 C 0.68397 0.17029 0.90822 0.0
C4504 C 0.67965 0.16316 0.90732 0.0
C4505 C 0.69059 0.17189 0.90328 0.0
C4506 C 0.69298 0.16634 0.89745 0.0
C4507 C 0.68882 0.15905 0.89693 0.0
C4508 C 0.68221 0.15754 0.90171 0.0
C4509 C 0.69961 0.16794 0.89171 0.0
C4510 C 0.70691 0.17135 0.89408 0.0
C4511 C 0.7135 0.17152 0.8888 0.0
C4512 C 0.71267 0.16802 0.88117 0.0
C4513 C 0.70545 0.16449 0.87879 0.0
C4514 C 0.69885 0.16509 0.88388 0.0
C4515 C 0.70492 0.1593 0.87156 0.0
C4516 C 0.70933 0.16087 0.86458 0.0
C4517 C 0.70012 0.1524 0.87177 0.0
C4518 C 0.6996 0.14733 0.86522 0.0
C4519 C 0.70403 0.14883 0.85827 0.0
C4520 C 0.72146 0.17456 0.89149 0.0
C4521 C 0.72217 0.18119 0.8966 0.0
C4522 C 0.72849 0.17063 0.88909 0.0
C4523 C 0.73594 0.17314 0.89181 0.0
C4524 C 0.73664 0.17956 0.89713 0.0
C4525 C 0.72968 0.18368 0.89939 0.0
C4526 C 0.70891 0.15568 0.85802 0.0
H4527 H 0.6821 0.17469 0.91256 0.0
H4528 H 0.69368 0.17753 0.90388 0.0
H4529 H 0.69063 0.15448 0.89275 0.0
H4530 H 0.67906 0.15194 0.90101 0.0
H4531 H 0.70761 0.17342 0.90016 0.0
H4532 H 0.69312 0.16287 0.88189 0.0
H4533 H 0.71774 0.16777 0.87719 0.0
H4534 H 0.71308 0.1661 0.86416 0.0
H4535 H 0.69681 0.15077 0.87707 0.0
H4536 H 0.69566 0.14223 0.86562 0.0
H4537 H 0.71691 0.18442 0.89852 0.0
H4538 H 0.72827 0.16542 0.8853 0.0
H4539 H 0.71246 0.157 0.8528 0.0
H4540 H 0.73002 0.18864 0.90351 0.0
H4541 H 0.74118 0.16988 0.88989 0.0
C4542 C 0.12989 0.46153 0.17426 0.0
C4543 C 0.1349 0.45496 0.17277 0.0
C4544 C 0.12485 0.46449 0.16823 0.0
C4545 C 0.12478 0.46093 0.16063 0.0
C4546 C 0.13006 0.45458 0.15913 0.0
C4547 C 0.135 0.45163 0.1651 0.0
C4548 C 0.11939 0.46365 0.1541 0.0
C4549 C 0.11844 0.47175 0.15222 0.0
C4550 C 0.11463 0.4741 0.14508 0.0
C4551 C 0.11211 0.46814 0.13966 0.0
C4552 C 0.11305 0.45997 0.14147 0.0
C4553 C 0.11606 0.45792 0.14901 0.0
C4554 C 0.11199 0.45357 0.13529 0.0
C4555 C 0.10659 0.45431 0.12888 0.0
C4556 C 0.11686 0.44672 0.13556 0.0
C4557 C 0.11638 0.44085 0.12973 0.0
C4558 C 0.11128 0.44172 0.12315 0.0
C4559 C 0.11402 0.48275 0.14299 0.0
C4560 C 0.11237 0.4885 0.14889 0.0
C4561 C 0.11546 0.48538 0.13514 0.0
C4562 C 0.11557 0.49352 0.13332 0.0
C4563 C 0.11418 0.49924 0.13927 0.0
C4564 C 0.11242 0.49665 0.14704 0.0
C4565 C 0.10627 0.44847 0.12286 0.0
H4566 H 0.12974 0.46425 0.18011 0.0
H4567 H 0.1209 0.46943 0.16955 0.0
H4568 H 0.13042 0.45187 0.15327 0.0
H4569 H 0.13896 0.44672 0.16368 0.0
H4570 H 0.12108 0.47621 0.15608 0.0
H4571 H 0.11634 0.45171 0.15077 0.0
H4572 H 0.10966 0.46987 0.13395 0.0
H4573 H 0.10266 0.45941 0.12844 0.0
H4574 H 0.12132 0.4459 0.14016 0.0
H4575 H 0.12018 0.43566 0.13035 0.0
H4576 H 0.11115 0.4867 0.15498 0.0
H4577 H 0.11684 0.48118 0.13044 0.0
H4578 H 0.10227 0.44939 0.11787 0.0
H4579 H 0.1114 0.50095 0.15176 0.0
H4580 H 0.11693 0.49537 0.12728 0.0
C4581 C 0.83568 0.84756 0.40653 0.0
C4582 C 0.83806 0.8556 0.40707 0.0
C4583 C 0.82903 0.8454 0.40187 0.0
C4584 C 0.82472 0.85127 0.39772 0.0
C4585 C 0.82685 0.8593 0.39866 0.0
C4586 C 0.8334 0.86144 0.40327 0.0
C4587 C 0.81845 0.84928 0.3918 0.0
C4588 C 0.81125 0.84559 0.394 0.0
C4589 C 0.80475 0.84539 0.38863 0.0
C4590 C 0.80562 0.849 0.38105 0.0
C4591 C 0.81277 0.85281 0.37885 0.0
C4592 C 0.81925 0.85245 0.38412 0.0
C4593 C 0.81328 0.85801 0.3716 0.0
C4594 C 0.80912 0.85624 0.36453 0.0
C4595 C 0.81783 0.86508 0.37187 0.0
C4596 C 0.81838 0.87009 0.36527 0.0
C4597 C 0.8142 0.86838 0.35822 0.0
C4598 C 0.79677 0.84232 0.39126 0.0
C4599 C 0.79606 0.83565 0.39635 0.0
C4600 C 0.78976 0.84631 0.38893 0.0
C4601 C 0.78231 0.84386 0.39172 0.0
C4602 C 0.78161 0.83741 0.39701 0.0
C4603 C 0.78855 0.83321 0.39918 0.0
C4604 C 0.80955 0.86138 0.35793 0.0
H4605 H 0.83914 0.84293 0.40942 0.0
H4606 H 0.82749 0.83916 0.40123 0.0
H4607 H 0.82355 0.86396 0.39562 0.0
H4608 H 0.83493 0.8677 0.40373 0.0
H4609 H 0.81055 0.84342 0.40005 0.0
H4610 H 0.8249 0.85513 0.38246 0.0
H4611 H 0.8006 0.84916 0.377 0.0
H4612 H 0.80556 0.85088 0.36406 0.0
H4613 H 0.82094 0.86686 0.37723 0.0
H4614 H 0.82214 0.87532 0.36572 0.0
H4615 H 0.80131 0.83238 0.39822 0.0
H4616 H 0.79 0.85155 0.38517 0.0
H4617 H 0.80618 0.85989 0.35263 0.0
H4618 H 0.7882 0.82823 0.40328 0.0
H4619 H 0.77708 0.84718 0.38988 0.0
C4620 C 0.90436 0.06754 0.12083 0.0
C4621 C 0.9073 0.07514 0.12273 0.0
C4622 C 0.90393 0.06159 0.12665 0.0
C4623 C 0.90634 0.06315 0.13453 0.0
C4624 C 0.90958 0.07068 0.13635 0.0
C4625 C 0.91011 0.07661 0.13047 0.0
C4626 C 0.90473 0.05717 0.1409 0.0
C4627 C 0.90609 0.04901 0.13955 0.0
C4628 C 0.9036 0.04323 0.14511 0.0
C4629 C 0.89985 0.04577 0.1522 0.0
C4630 C 0.89851 0.05391 0.15371 0.0
C4631 C 0.90103 0.05956 0.14803 0.0
C4632 C 0.89391 0.05655 0.16086 0.0
C4633 C 0.88707 0.05237 0.16336 0.0
C4634 C 0.89599 0.0636 0.16489 0.0
C4635 C 0.89114 0.06661 0.17097 0.0
C4636 C 0.88406 0.06266 0.17319 0.0
C4637 C 0.90439 0.03454 0.1433 0.0
C4638 C 0.90306 0.03163 0.13553 0.0
C4639 C 0.90603 0.02901 0.1494 0.0
C4640 C 0.90599 0.02082 0.14785 0.0
C4641 C 0.90431 0.01791 0.14016 0.0
C4642 C 0.90304 0.02343 0.13398 0.0
C4643 C 0.88221 0.05538 0.16946 0.0
H4644 H 0.90217 0.06629 0.11488 0.0
H4645 H 0.90134 0.0559 0.12506 0.0
H4646 H 0.91152 0.07204 0.14236 0.0
H4647 H 0.91238 0.08245 0.13206 0.0
H4648 H 0.90901 0.04716 0.13409 0.0
H4649 H 0.89966 0.06581 0.14893 0.0
H4650 H 0.89776 0.04139 0.15646 0.0
H4651 H 0.88522 0.04696 0.16035 0.0
H4652 H 0.90129 0.0669 0.16323 0.0
H4653 H 0.89284 0.07214 0.17382 0.0
H4654 H 0.90168 0.03568 0.13068 0.0
H4655 H 0.90726 0.03101 0.15541 0.0
H4656 H 0.87677 0.05221 0.17094 0.0
H4657 H 0.90166 0.02142 0.128 0.0
H4658 H 0.90716 0.01675 0.15273 0.0
C4659 C 0.33429 0.67007 0.60927 0.0
C4660 C 0.33865 0.66297 0.6102 0.0
C4661 C 0.32768 0.67166 0.61422 0.0
C4662 C 0.32534 0.66612 0.62009 0.0
C4663 C 0.32954 0.65886 0.62065 0.0
C4664 C 0.33615 0.65737 0.61587 0.0
C4665 C 0.3187 0.66772 0.62582 0.0
C4666 C 0.31142 0.67117 0.62343 0.0
C4667 C 0.30484 0.67142 0.62872 0.0
C4668 C 0.30565 0.66795 0.63637 0.0
C4669 C 0.31284 0.66436 0.63875 0.0
C4670 C 0.31943 0.66486 0.63365 0.0
C4671 C 0.31332 0.6592 0.64601 0.0
C4672 C 0.30908 0.66095 0.65304 0.0
C4673 C 0.31792 0.65216 0.64577 0.0
C4674 C 0.31841 0.64713 0.65236 0.0
C4675 C 0.31418 0.64883 0.65938 0.0
C4676 C 0.29688 0.67448 0.62601 0.0
C4677 C 0.29621 0.68104 0.62079 0.0
C4678 C 0.28983 0.67064 0.62849 0.0
C4679 C 0.28239 0.67316 0.62576 0.0
C4680 C 0.28172 0.67951 0.62033 0.0
C4681 C 0.2887 0.68354 0.61799 0.0
C4682 C 0.3095 0.65581 0.65965 0.0
H4683 H 0.33611 0.67446 0.60489 0.0
H4684 H 0.32456 0.67728 0.61359 0.0
H4685 H 0.32776 0.65429 0.62486 0.0
H4686 H 0.33933 0.65179 0.61659 0.0
H4687 H 0.31073 0.67323 0.61735 0.0
H4688 H 0.32513 0.66257 0.63565 0.0
H4689 H 0.30059 0.66777 0.64038 0.0
H4690 H 0.30549 0.66629 0.65348 0.0
H4691 H 0.3211 0.65042 0.64043 0.0
H4692 H 0.3222 0.64192 0.65194 0.0
H4693 H 0.30148 0.68421 0.61881 0.0
H4694 H 0.29002 0.66547 0.63236 0.0
H4695 H 0.30608 0.65728 0.66493 0.0
H4696 H 0.28839 0.68844 0.61379 0.0
H4697 H 0.27714 0.66998 0.62776 0.0
C4698 C 0.12994 0.55632 0.34325 0.0
C4699 C 0.13513 0.56277 0.34459 0.0
C4700 C 0.12501 0.55351 0.34943 0.0
C4701 C 0.12528 0.55707 0.35703 0.0
C4702 C 0.13073 0.56331 0.35836 0.0
C4703 C 0.13552 0.56615 0.35223 0.0
C4704 C 0.12004 0.55438 0.36369 0.0
C4705 C 0.11882 0.54625 0.36527 0.0
C4706 C 0.11474 0.54372 0.37221 0.0
C4707 C 0.11203 0.54959 0.37766 0.0
C4708 C 0.11346 0.55773 0.37623 0.0
C4709 C 0.11704 0.56003 0.36905 0.0
C4710 C 0.11247 0.56383 0.38259 0.0
C4711 C 0.10542 0.56457 0.38706 0.0
C4712 C 0.11882 0.56907 0.38417 0.0
C4713 C 0.11815 0.57498 0.38995 0.0
C4714 C 0.11106 0.57593 0.39433 0.0
C4715 C 0.11411 0.53499 0.37408 0.0
C4716 C 0.11379 0.52928 0.36793 0.0
C4717 C 0.11435 0.5322 0.38201 0.0
C4718 C 0.1145 0.52403 0.3837 0.0
C4719 C 0.11462 0.51834 0.37753 0.0
C4720 C 0.11417 0.52112 0.36961 0.0
C4721 C 0.1047 0.5706 0.39285 0.0
H4722 H 0.12957 0.55359 0.33742 0.0
H4723 H 0.12091 0.54867 0.34822 0.0
H4724 H 0.13134 0.56601 0.3642 0.0
H4725 H 0.13963 0.57098 0.35349 0.0
H4726 H 0.12151 0.54191 0.36132 0.0
H4727 H 0.11789 0.56633 0.36786 0.0
H4728 H 0.10913 0.54787 0.38316 0.0
H4729 H 0.10044 0.56061 0.38598 0.0
H4730 H 0.12442 0.56852 0.38098 0.0
H4731 H 0.12331 0.57869 0.39107 0.0
H4732 H 0.11339 0.5311 0.36174 0.0
H4733 H 0.1147 0.5363 0.38698 0.0
H4734 H 0.09912 0.57113 0.39607 0.0
H4735 H 0.11433 0.51702 0.36463 0.0
H4736 H 0.11462 0.5222 0.38989 0.0
C4737 C 0.40667 0.44985 0.89631 0.0
C4738 C 0.40786 0.44189 0.89402 0.0
C4739 C 0.40591 0.45584 0.89055 0.0
C4740 C 0.40648 0.45403 0.88236 0.0
C4741 C 0.40818 0.44609 0.88015 0.0
C4742 C 0.40873 0.44007 0.88592 0.0
C4743 C 0.40462 0.4602 0.87617 0.0
C4744 C 0.40625 0.46834 0.87749 0.0
C4745 C 0.40358 0.47424 0.87212 0.0
C4746 C 0.39964 0.47184 0.86509 0.0
C4747 C 0.39818 0.46374 0.86353 0.0
C4748 C 0.4006 0.45802 0.86915 0.0
C4749 C 0.39364 0.46116 0.85633 0.0
C4750 C 0.38682 0.46534 0.85378 0.0
C4751 C 0.39577 0.45412 0.85231 0.0
C4752 C 0.39094 0.45106 0.84625 0.0
C4753 C 0.38386 0.45497 0.84403 0.0
C4754 C 0.40433 0.48289 0.87414 0.0
C4755 C 0.40333 0.48548 0.88206 0.0
C4756 C 0.40555 0.48868 0.86817 0.0
C4757 C 0.40545 0.49682 0.87003 0.0
C4758 C 0.40418 0.49939 0.87792 0.0
C4759 C 0.40329 0.4936 0.88393 0.0
C4760 C 0.38198 0.46228 0.84769 0.0
H4761 H 0.40593 0.45137 0.90255 0.0
H4762 H 0.4045 0.46181 0.89254 0.0
H4763 H 0.4089 0.44446 0.87395 0.0
H4764 H 0.40973 0.43398 0.88403 0.0
H4765 H 0.40951 0.4701 0.88277 0.0
H4766 H 0.39894 0.45185 0.86822 0.0
H4767 H 0.3975 0.47628 0.86092 0.0
H4768 H 0.38496 0.47075 0.85677 0.0
H4769 H 0.40108 0.45084 0.85399 0.0
H4770 H 0.39265 0.4455 0.84345 0.0
H4771 H 0.40228 0.48126 0.88683 0.0
H4772 H 0.40646 0.48694 0.86202 0.0
H4773 H 0.37654 0.46542 0.84617 0.0
H4774 H 0.40242 0.49535 0.89008 0.0
H4775 H 0.40611 0.50111 0.86525 0.0
C4776 C 0.9105 0.8296 0.6629 0.0
C4777 C 0.90755 0.8374 0.66197 0.0
C4778 C 0.90538 0.82331 0.66484 0.0
C4779 C 0.89717 0.82465 0.66598 0.0
C4780 C 0.8943 0.83253 0.66553 0.0
C4781 C 0.89941 0.83881 0.66351 0.0
C4782 C 0.89155 0.81781 0.66681 0.0
C4783 C 0.89371 0.8109 0.67105 0.0
C4784 C 0.8889 0.804 0.67087 0.0
C4785 C 0.88161 0.80429 0.66666 0.0
C4786 C 0.8792 0.81125 0.66265 0.0
C4787 C 0.88424 0.81792 0.66272 0.0
C4788 C 0.87167 0.81151 0.65794 0.0
C4789 C 0.86946 0.80512 0.65297 0.0
C4790 C 0.86689 0.81841 0.658 0.0
C4791 C 0.86024 0.81902 0.65302 0.0
C4792 C 0.85818 0.81275 0.64785 0.0
C4793 C 0.89172 0.79635 0.67458 0.0
C4794 C 0.89993 0.7945 0.67488 0.0
C4795 C 0.88625 0.79062 0.6774 0.0
C4796 C 0.88887 0.78313 0.68 0.0
C4797 C 0.89704 0.78126 0.68006 0.0
C4798 C 0.90255 0.78709 0.67767 0.0
C4799 C 0.86279 0.80575 0.64797 0.0
H4800 H 0.91676 0.8283 0.66193 0.0
H4801 H 0.90781 0.81733 0.66507 0.0
H4802 H 0.88805 0.83382 0.66651 0.0
H4803 H 0.89687 0.8447 0.66281 0.0
H4804 H 0.89922 0.8109 0.67441 0.0
H4805 H 0.88265 0.8231 0.65919 0.0
H4806 H 0.87785 0.79905 0.6663 0.0
H4807 H 0.87303 0.79975 0.65275 0.0
H4808 H 0.86837 0.8234 0.66182 0.0
H4809 H 0.85685 0.82452 0.65305 0.0
H4810 H 0.90438 0.79861 0.67264 0.0
H4811 H 0.87991 0.79183 0.67752 0.0
H4812 H 0.86129 0.80077 0.64415 0.0
H4813 H 0.90888 0.78577 0.67759 0.0
H4814 H 0.8845 0.77875 0.68188 0.0
C4815 C 0.95007 0.12332 0.41073 0.0
C4816 C 0.94369 0.12313 0.40525 0.0
C4817 C 0.95571 0.12953 0.4105 0.0
C4818 C 0.95507 0.13566 0.40479 0.0
C4819 C 0.94856 0.13549 0.39947 0.0
C4820 C 0.94293 0.12942 0.39979 0.0
C4821 C 0.96119 0.14211 0.40396 0.0
C4822 C 0.96942 0.14053 0.4046 0.0
C4823 C 0.97521 0.14635 0.4025 0.0
C4824 C 0.97239 0.15366 0.39926 0.0
C4825 C 0.9642 0.15514 0.39822 0.0
C4826 C 0.95874 0.14965 0.40132 0.0
C4827 C 0.96125 0.1617 0.39291 0.0
C4828 C 0.96511 0.16915 0.39234 0.0
C4829 C 0.95465 0.16026 0.3879 0.0
C4830 C 0.95188 0.16608 0.38267 0.0
C4831 C 0.95567 0.17352 0.38214 0.0
C4832 C 0.98409 0.1445 0.40288 0.0
C4833 C 0.98711 0.13788 0.4072 0.0
C4834 C 0.98971 0.14918 0.39866 0.0
C4835 C 0.99776 0.14713 0.39841 0.0
C4836 C 1.00058 0.14022 0.40219 0.0
C4837 C 0.99521 0.13573 0.40679 0.0
C4838 C 0.96238 0.17499 0.38696 0.0
H4839 H 0.95083 0.11856 0.41503 0.0
H4840 H 0.96059 0.12949 0.41473 0.0
H4841 H 0.94789 0.13993 0.39484 0.0
H4842 H 0.93802 0.1296 0.39559 0.0
H4843 H 0.97122 0.13458 0.40629 0.0
H4844 H 0.95243 0.15105 0.4011 0.0
H4845 H 0.97645 0.15818 0.3972 0.0
H4846 H 0.9702 0.17051 0.39607 0.0
H4847 H 0.95168 0.15453 0.38784 0.0
H4848 H 0.94683 0.16468 0.37889 0.0
H4849 H 0.98327 0.13421 0.41085 0.0
H4850 H 0.98805 0.15432 0.3952 0.0
H4851 H 0.96543 0.18067 0.38665 0.0
H4852 H 0.99722 0.1304 0.40984 0.0
H4853 H 1.00179 0.15085 0.39499 0.0
C4854 C 0.60816 0.18808 0.16262 0.0
C4855 C 0.61094 0.18019 0.16207 0.0
C4856 C 0.61336 0.19429 0.16458 0.0
C4857 C 0.62147 0.19277 0.1661 0.0
C4858 C 0.62417 0.18483 0.16594 0.0
C4859 C 0.61898 0.17863 0.16392 0.0
C4860 C 0.62718 0.19948 0.16717 0.0
C4861 C 0.62495 0.20636 0.17138 0.0
C4862 C 0.62984 0.21319 0.17142 0.0
C4863 C 0.63729 0.21288 0.16753 0.0
C4864 C 0.63973 0.20595 0.16346 0.0
C4865 C 0.6346 0.19933 0.1633 0.0
C4866 C 0.64727 0.20574 0.15875 0.0
C4867 C 0.64958 0.21226 0.15401 0.0
C4868 C 0.65186 0.19872 0.15843 0.0
C4869 C 0.65834 0.1981 0.15323 0.0
C4870 C 0.66044 0.20449 0.14821 0.0
C4871 C 0.62674 0.22083 0.17477 0.0
C4872 C 0.61868 0.2229 0.17363 0.0
C4873 C 0.63178 0.22631 0.17867 0.0
C4874 C 0.62888 0.23379 0.18107 0.0
C4875 C 0.6209 0.23593 0.17957 0.0
C4876 C 0.6158 0.23031 0.17604 0.0
C4877 C 0.65609 0.21165 0.1488 0.0
H4878 H 0.60198 0.18951 0.16137 0.0
H4879 H 0.61107 0.20033 0.16456 0.0
H4880 H 0.63036 0.18343 0.16718 0.0
H4881 H 0.62138 0.17265 0.1635 0.0
H4882 H 0.61928 0.20646 0.17448 0.0
H4883 H 0.6362 0.19418 0.15974 0.0
H4884 H 0.64107 0.21812 0.16743 0.0
H4885 H 0.64614 0.21773 0.15403 0.0
H4886 H 0.65035 0.19363 0.16212 0.0
H4887 H 0.66168 0.19257 0.15309 0.0
H4888 H 0.61462 0.21893 0.17056 0.0
H4889 H 0.63799 0.22488 0.17973 0.0
H4890 H 0.6575 0.21668 0.14501 0.0
H4891 H 0.6096 0.23174 0.1749 0.0
H4892 H 0.63295 0.23801 0.18378 0.0
C4893 C 0.55514 0.84714 0.8811 0.0
C4894 C 0.56264 0.84363 0.88246 0.0
C4895 C 0.5522 0.853 0.88626 0.0
C4896 C 0.55669 0.8555 0.8929 0.0
C4897 C 0.56401 0.85173 0.89447 0.0
C4898 C 0.56693 0.84585 0.88934 0.0
C4899 C 0.55401 0.86245 0.89774 0.0
C4900 C 0.54591 0.86342 0.89963 0.0
C4901 C 0.543 0.87063 0.90285 0.0
C4902 C 0.5486 0.87655 0.90497 0.0
C4903 C 0.55684 0.87558 0.90346 0.0
C4904 C 0.55942 0.86852 0.89973 0.0
C4905 C 0.56267 0.88218 0.90502 0.0
C4906 C 0.56034 0.89022 0.90433 0.0
C4907 C 0.57075 0.88054 0.9067 0.0
C4908 C 0.5764 0.88668 0.90708 0.0
C4909 C 0.5741 0.89468 0.90597 0.0
C4910 C 0.53415 0.87225 0.90313 0.0
C4911 C 0.52893 0.86825 0.89788 0.0
C4912 C 0.53084 0.87818 0.90812 0.0
C4913 C 0.52277 0.88037 0.90748 0.0
C4914 C 0.51772 0.87655 0.90197 0.0
C4915 C 0.52087 0.87025 0.89744 0.0
C4916 C 0.56594 0.89635 0.90494 0.0
H4917 H 0.55171 0.84567 0.87583 0.0
H4918 H 0.54659 0.85585 0.88481 0.0
H4919 H 0.56755 0.85345 0.89959 0.0
H4920 H 0.57266 0.84316 0.89066 0.0
H4921 H 0.54189 0.85855 0.89835 0.0
H4922 H 0.56559 0.86791 0.89792 0.0
H4923 H 0.54655 0.88208 0.90755 0.0
H4924 H 0.55424 0.89184 0.90298 0.0
H4925 H 0.57279 0.87447 0.90753 0.0
H4926 H 0.58261 0.8851 0.90792 0.0
H4927 H 0.53103 0.86375 0.89377 0.0
H4928 H 0.53445 0.88129 0.91246 0.0
H4929 H 0.56384 0.90243 0.90435 0.0
H4930 H 0.51714 0.86694 0.89333 0.0
H4931 H 0.52057 0.88522 0.91113 0.0
C4932 C 0.91028 0.18797 0.8557 0.0
C4933 C 0.90756 0.18003 0.85591 0.0
C4934 C 0.90513 0.19417 0.85357 0.0
C4935 C 0.89714 0.19259 0.85156 0.0
C4936 C 0.89452 0.18463 0.85139 0.0
C4937 C 0.89966 0.17842 0.85355 0.0
C4938 C 0.89143 0.19927 0.85038 0.0
C4939 C 0.89371 0.20618 0.84623 0.0
C4940 C 0.88877 0.21297 0.84607 0.0
C4941 C 0.88127 0.21263 0.84987 0.0
C4942 C 0.87881 0.2057 0.85392 0.0
C4943 C 0.88394 0.19907 0.85412 0.0
C4944 C 0.87126 0.20549 0.85861 0.0
C4945 C 0.86899 0.21199 0.8634 0.0
C4946 C 0.86662 0.1985 0.85888 0.0
C4947 C 0.86012 0.19789 0.86406 0.0
C4948 C 0.85806 0.20425 0.86913 0.0
C4949 C 0.89183 0.22061 0.84268 0.0
C4950 C 0.89983 0.22281 0.84395 0.0
C4951 C 0.88678 0.22597 0.83861 0.0
C4952 C 0.88961 0.23346 0.83617 0.0
C4953 C 0.89751 0.23574 0.83781 0.0
C4954 C 0.90263 0.23025 0.84153 0.0
C4955 C 0.86247 0.21138 0.86859 0.0
H4956 H 0.91635 0.18942 0.85736 0.0
H4957 H 0.90733 0.20023 0.85384 0.0
H4958 H 0.88842 0.18321 0.8498 0.0
H4959 H 0.89733 0.17241 0.85369 0.0
H4960 H 0.89946 0.20631 0.84326 0.0
H4961 H 0.88231 0.19389 0.85763 0.0
H4962 H 0.87747 0.21785 0.84992 0.0
H4963 H 0.87247 0.21743 0.86342 0.0
H4964 H 0.8681 0.19343 0.85516 0.0
H4965 H 0.85673 0.19239 0.86415 0.0
H4966 H 0.90388 0.21894 0.84715 0.0
H4967 H 0.88061 0.22443 0.83745 0.0
H4968 H 0.86111 0.21639 0.87243 0.0
H4969 H 0.90877 0.23183 0.84281 0.0
H4970 H 0.88554 0.2376 0.83332 0.0
C4971 C 0.55445 0.17001 0.63654 0.0
C4972 C 0.56188 0.17359 0.63502 0.0
C4973 C 0.5514 0.16422 0.63136 0.0
C4974 C 0.55569 0.16187 0.62454 0.0
C4975 C 0.56294 0.16573 0.62283 0.0
C4976 C 0.56599 0.17153 0.62799 0.0
C4977 C 0.55297 0.15497 0.61966 0.0
C4978 C 0.54482 0.15378 0.61809 0.0
C4979 C 0.54204 0.14662 0.61467 0.0
C4980 C 0.54768 0.14087 0.61227 0.0
C4981 C 0.5559 0.14207 0.61353 0.0
C4982 C 0.55845 0.14912 0.61728 0.0
C4983 C 0.56181 0.13568 0.61178 0.0
C4984 C 0.56003 0.12766 0.61352 0.0
C4985 C 0.56954 0.13762 0.60908 0.0
C4986 C 0.57546 0.13177 0.60862 0.0
C4987 C 0.57375 0.1239 0.61081 0.0
C4988 C 0.53329 0.14479 0.61449 0.0
C4989 C 0.52829 0.14775 0.62055 0.0
C4990 C 0.52992 0.13969 0.6087 0.0
C4991 C 0.52189 0.13736 0.6092 0.0
C4992 C 0.51704 0.14012 0.61546 0.0
C4993 C 0.5203 0.14553 0.62096 0.0
C4994 C 0.56597 0.12183 0.61305 0.0
H4995 H 0.55117 0.17136 0.64193 0.0
H4996 H 0.54585 0.16129 0.63294 0.0
H4997 H 0.56635 0.16415 0.61757 0.0
H4998 H 0.57166 0.17427 0.62655 0.0
H4999 H 0.54064 0.15841 0.61975 0.0
H5000 H 0.56469 0.14983 0.6188 0.0
H5001 H 0.54569 0.13529 0.60971 0.0
H5002 H 0.5542 0.12594 0.61569 0.0
H5003 H 0.57108 0.14371 0.60758 0.0
H5004 H 0.58147 0.13346 0.60691 0.0
H5005 H 0.53057 0.15155 0.62523 0.0
H5006 H 0.5335 0.13738 0.60385 0.0
H5007 H 0.56457 0.11576 0.61479 0.0
H5008 H 0.51669 0.14793 0.62575 0.0
H5009 H 0.51954 0.13321 0.60484 0.0
C5010 C 0.6083 0.82924 0.35545 0.0
C5011 C 0.61105 0.83713 0.35524 0.0
C5012 C 0.61334 0.82297 0.35329 0.0
C5013 C 0.62128 0.82447 0.35101 0.0
C5014 C 0.62391 0.83242 0.35047 0.0
C5015 C 0.61882 0.83871 0.35255 0.0
C5016 C 0.62696 0.81774 0.35003 0.0
C5017 C 0.62468 0.81079 0.34597 0.0
C5018 C 0.62955 0.80395 0.34603 0.0
C5019 C 0.63696 0.80426 0.35 0.0
C5020 C 0.6394 0.81123 0.35401 0.0
C5021 C 0.63434 0.81792 0.35396 0.0
C5022 C 0.64689 0.81146 0.35881 0.0
C5023 C 0.64916 0.80497 0.36363 0.0
C5024 C 0.65152 0.81845 0.35906 0.0
C5025 C 0.65805 0.81905 0.3642 0.0
C5026 C 0.66019 0.81267 0.3692 0.0
C5027 C 0.62648 0.7963 0.3427 0.0
C5028 C 0.61845 0.79418 0.34387 0.0
C5029 C 0.63155 0.79086 0.33877 0.0
C5030 C 0.62869 0.78336 0.33636 0.0
C5031 C 0.62074 0.78116 0.33791 0.0
C5032 C 0.61562 0.78674 0.34148 0.0
C5033 C 0.65573 0.80557 0.36877 0.0
H5034 H 0.60235 0.82791 0.35762 0.0
H5035 H 0.61117 0.81691 0.35387 0.0
H5036 H 0.62998 0.83376 0.34871 0.0
H5037 H 0.62108 0.84476 0.35246 0.0
H5038 H 0.61898 0.81067 0.34291 0.0
H5039 H 0.63593 0.82315 0.3574 0.0
H5040 H 0.64071 0.799 0.35021 0.0
H5041 H 0.6457 0.79951 0.36365 0.0
H5042 H 0.65002 0.82353 0.35536 0.0
H5043 H 0.66129 0.82464 0.3644 0.0
H5044 H 0.61437 0.79813 0.34696 0.0
H5045 H 0.63774 0.79233 0.33768 0.0
H5046 H 0.65729 0.80049 0.37245 0.0
H5047 H 0.60944 0.78524 0.34268 0.0
H5048 H 0.63277 0.77917 0.33363 0.0
C5049 C 0.9503 0.89402 0.10671 0.0
C5050 C 0.94399 0.89428 0.11227 0.0
C5051 C 0.95596 0.88783 0.10698 0.0
C5052 C 0.95539 0.88178 0.11279 0.0
C5053 C 0.94894 0.88202 0.11817 0.0
C5054 C 0.9433 0.88808 0.11784 0.0
C5055 C 0.96153 0.87538 0.11367 0.0
C5056 C 0.96975 0.87703 0.11307 0.0
C5057 C 0.9755 0.87135 0.11552 0.0
C5058 C 0.97282 0.86405 0.1188 0.0
C5059 C 0.96464 0.86242 0.11962 0.0
C5060 C 0.95914 0.86784 0.11641 0.0
C5061 C 0.96168 0.85588 0.12492 0.0
C5062 C 0.96536 0.84834 0.1253 0.0
C5063 C 0.9552 0.85742 0.13003 0.0
C5064 C 0.95233 0.8516 0.13519 0.0
C5065 C 0.95587 0.84402 0.1355 0.0
C5066 C 0.98422 0.87336 0.11543 0.0
C5067 C 0.98757 0.87825 0.10945 0.0
C5068 C 0.98928 0.87051 0.1215 0.0
C5069 C 0.99741 0.87232 0.1215 0.0
C5070 C 1.00076 0.87714 0.11552 0.0
C5071 C 0.99574 0.88017 0.10953 0.0
C5072 C 0.96249 0.84246 0.13057 0.0
H5073 H 0.951 0.89872 0.10234 0.0
H5074 H 0.96082 0.88782 0.10272 0.0
H5075 H 0.94834 0.87763 0.12288 0.0
H5076 H 0.93845 0.88797 0.12211 0.0
H5077 H 0.97166 0.88292 0.11122 0.0
H5078 H 0.95284 0.8664 0.11662 0.0
H5079 H 0.97708 0.85975 0.12106 0.0
H5080 H 0.97039 0.84696 0.12149 0.0
H5081 H 0.95239 0.86324 0.1302 0.0
H5082 H 0.94739 0.8531 0.13908 0.0
H5083 H 0.98391 0.88053 0.10464 0.0
H5084 H 0.98698 0.86699 0.12639 0.0
H5085 H 0.96537 0.83668 0.1307 0.0
H5086 H 0.99815 0.88389 0.10482 0.0
H5087 H 1.00106 0.87003 0.12632 0.0
C5088 C 0.66437 0.91004 0.82985 0.0
C5089 C 0.66309 0.90699 0.83757 0.0
C5090 C 0.66601 0.90494 0.82345 0.0
C5091 C 0.66654 0.89664 0.82462 0.0
C5092 C 0.6658 0.89366 0.83243 0.0
C5093 C 0.66401 0.89873 0.83879 0.0
C5094 C 0.66719 0.89108 0.81769 0.0
C5095 C 0.67153 0.89314 0.81082 0.0
C5096 C 0.67146 0.88822 0.80401 0.0
C5097 C 0.6674 0.88085 0.80438 0.0
C5098 C 0.66315 0.87857 0.81127 0.0
C5099 C 0.66295 0.88386 0.81777 0.0
C5100 C 0.65853 0.87093 0.81166 0.0
C5101 C 0.65477 0.86771 0.80488 0.0
C5102 C 0.65748 0.867 0.81901 0.0
C5103 C 0.65244 0.86041 0.81967 0.0
C5104 C 0.64847 0.85733 0.81295 0.0
C5105 C 0.67509 0.89106 0.79636 0.0
C5106 C 0.67474 0.8992 0.79428 0.0
C5107 C 0.67849 0.8857 0.79086 0.0
C5108 C 0.68119 0.88835 0.7834 0.0
C5109 C 0.68063 0.89645 0.78129 0.0
C5110 C 0.67751 0.90185 0.78688 0.0
C5111 C 0.64987 0.86096 0.80551 0.0
H5112 H 0.66392 0.91637 0.82868 0.0
H5113 H 0.66651 0.90749 0.81754 0.0
H5114 H 0.66636 0.88733 0.83362 0.0
H5115 H 0.66302 0.89608 0.84459 0.0
H5116 H 0.67491 0.89863 0.81076 0.0
H5117 H 0.65917 0.8825 0.82283 0.0
H5118 H 0.66738 0.87697 0.79923 0.0
H5119 H 0.65537 0.87053 0.7991 0.0
H5120 H 0.66044 0.86909 0.82436 0.0
H5121 H 0.65152 0.85788 0.82554 0.0
H5122 H 0.67202 0.90352 0.79822 0.0
H5123 H 0.67904 0.87942 0.79227 0.0
H5124 H 0.6471 0.85867 0.80015 0.0
H5125 H 0.67687 0.90811 0.78541 0.0
H5126 H 0.68366 0.88405 0.77927 0.0
C5127 C 0.89416 0.91093 0.56741 0.0
C5128 C 0.89469 0.90508 0.57342 0.0
C5129 C 0.8879 0.91073 0.56182 0.0
C5130 C 0.88204 0.90472 0.5622 0.0
C5131 C 0.88256 0.89901 0.56834 0.0
C5132 C 0.8887 0.89926 0.57389 0.0
C5133 C 0.87553 0.90397 0.55616 0.0
C5134 C 0.87702 0.90486 0.54795 0.0
C5135 C 0.87128 0.90246 0.54225 0.0
C5136 C 0.86407 0.89899 0.54495 0.0
C5137 C 0.8626 0.89792 0.55312 0.0
C5138 C 0.86808 0.90104 0.55861 0.0
C5139 C 0.85615 0.8925 0.55604 0.0
C5140 C 0.84855 0.89215 0.55244 0.0
C5141 C 0.85779 0.88726 0.56239 0.0
C5142 C 0.85201 0.88204 0.56524 0.0
C5143 C 0.84439 0.88178 0.5618 0.0
C5144 C 0.87324 0.9026 0.53354 0.0
C5145 C 0.87785 0.90878 0.53015 0.0
C5146 C 0.8708 0.89629 0.52858 0.0
C5147 C 0.87303 0.89604 0.52057 0.0
C5148 C 0.87785 0.90204 0.51725 0.0
C5149 C 0.88011 0.90851 0.52208 0.0
C5150 C 0.84273 0.88681 0.55528 0.0
H5151 H 0.8987 0.9155 0.56688 0.0
H5152 H 0.88767 0.91523 0.55719 0.0
H5153 H 0.87833 0.89415 0.56877 0.0
H5154 H 0.88882 0.89475 0.57852 0.0
H5155 H 0.88284 0.90686 0.54599 0.0
H5156 H 0.86678 0.90059 0.56493 0.0
H5157 H 0.85978 0.89674 0.54069 0.0
H5158 H 0.84709 0.89605 0.54751 0.0
H5159 H 0.86365 0.88706 0.56512 0.0
H5160 H 0.85358 0.87808 0.57011 0.0
H5161 H 0.87978 0.91378 0.53374 0.0
H5162 H 0.86739 0.89133 0.53092 0.0
H5163 H 0.83691 0.88671 0.55248 0.0
H5164 H 0.88382 0.91323 0.51968 0.0
H5165 H 0.87108 0.89104 0.51698 0.0
C5166 C 0.8554 0.10766 0.32974 0.0
C5167 C 0.85588 0.11045 0.33764 0.0
C5168 C 0.85334 0.11282 0.32352 0.0
C5169 C 0.85165 0.12089 0.32504 0.0
C5170 C 0.85174 0.12359 0.33298 0.0
C5171 C 0.85384 0.11844 0.3392 0.0
C5172 C 0.85056 0.12657 0.31831 0.0
C5173 C 0.84631 0.12433 0.31146 0.0
C5174 C 0.84629 0.12918 0.3046 0.0
C5175 C 0.85025 0.1366 0.30485 0.0
C5176 C 0.85435 0.13904 0.31176 0.0
C5177 C 0.85447 0.13396 0.31842 0.0
C5178 C 0.85907 0.14657 0.31195 0.0
C5179 C 0.86385 0.14886 0.30544 0.0
C5180 C 0.85933 0.15119 0.31894 0.0
C5181 C 0.86445 0.15773 0.31953 0.0
C5182 C 0.86942 0.15988 0.31313 0.0
C5183 C 0.84287 0.12609 0.29697 0.0
C5184 C 0.84381 0.11799 0.29499 0.0
C5185 C 0.83911 0.13116 0.29142 0.0
C5186 C 0.83669 0.12826 0.28395 0.0
C5187 C 0.838 0.12024 0.28188 0.0
C5188 C 0.84136 0.11511 0.2876 0.0
C5189 C 0.86898 0.15544 0.30603 0.0
H5190 H 0.8568 0.10152 0.32832 0.0
H5191 H 0.85342 0.11054 0.31748 0.0
H5192 H 0.85038 0.12975 0.33436 0.0
H5193 H 0.8542 0.12084 0.34518 0.0
H5194 H 0.84318 0.11868 0.31142 0.0
H5195 H 0.85804 0.13556 0.32357 0.0
H5196 H 0.85038 0.14035 0.29959 0.0
H5197 H 0.86386 0.14541 0.29999 0.0
H5198 H 0.85566 0.14966 0.32404 0.0
H5199 H 0.86466 0.16097 0.32512 0.0
H5200 H 0.84677 0.11389 0.29901 0.0
H5201 H 0.83817 0.1374 0.29279 0.0
H5202 H 0.87263 0.15701 0.30094 0.0
H5203 H 0.84233 0.10887 0.28626 0.0
H5204 H 0.83411 0.13237 0.27968 0.0
C5205 C 0.67033 0.13645 0.05451 0.0
C5206 C 0.67394 0.13499 0.06194 0.0
C5207 C 0.66445 0.1313 0.05156 0.0
C5208 C 0.66203 0.12459 0.05597 0.0
C5209 C 0.66589 0.12292 0.06321 0.0
C5210 C 0.6718 0.12803 0.06614 0.0
C5211 C 0.65506 0.11974 0.05332 0.0
C5212 C 0.65401 0.1179 0.04523 0.0
C5213 C 0.64683 0.11454 0.04241 0.0
C5214 C 0.64097 0.11233 0.04806 0.0
C5215 C 0.642 0.11389 0.05628 0.0
C5216 C 0.64906 0.11769 0.05878 0.0
C5217 C 0.63543 0.11234 0.06217 0.0
C5218 C 0.62737 0.11292 0.05989 0.0
C5219 C 0.63714 0.11082 0.07027 0.0
C5220 C 0.63103 0.11052 0.07597 0.0
C5221 C 0.623 0.11152 0.07371 0.0
C5222 C 0.64512 0.11423 0.0336 0.0
C5223 C 0.64863 0.11988 0.02845 0.0
C5224 C 0.63959 0.1088 0.03029 0.0
C5225 C 0.63735 0.10932 0.02222 0.0
C5226 C 0.64066 0.11522 0.01725 0.0
C5227 C 0.64653 0.12027 0.02042 0.0
C5228 C 0.62127 0.11238 0.06554 0.0
H5229 H 0.67173 0.14178 0.05115 0.0
H5230 H 0.66153 0.13282 0.046 0.0
H5231 H 0.66424 0.11773 0.0667 0.0
H5232 H 0.67456 0.12662 0.07181 0.0
H5233 H 0.65879 0.1193 0.04112 0.0
H5234 H 0.64972 0.11951 0.06494 0.0
H5235 H 0.63547 0.10967 0.04603 0.0
H5236 H 0.62569 0.11415 0.05378 0.0
H5237 H 0.64323 0.11007 0.07229 0.0
H5238 H 0.63267 0.10981 0.08217 0.0
H5239 H 0.65279 0.12431 0.03061 0.0
H5240 H 0.63686 0.10422 0.03391 0.0
H5241 H 0.61517 0.11287 0.06346 0.0
H5242 H 0.64939 0.12474 0.01673 0.0
H5243 H 0.63284 0.10529 0.01996 0.0
C5244 C 0.66392 0.10805 0.68726 0.0
C5245 C 0.66315 0.11128 0.67959 0.0
C5246 C 0.66593 0.11296 0.6937 0.0
C5247 C 0.66725 0.12117 0.69252 0.0
C5248 C 0.66702 0.12424 0.68471 0.0
C5249 C 0.66491 0.11935 0.67832 0.0
C5250 C 0.66802 0.12667 0.69944 0.0
C5251 C 0.67226 0.12444 0.70629 0.0
C5252 C 0.67222 0.12927 0.71316 0.0
C5253 C 0.66826 0.13669 0.7129 0.0
C5254 C 0.66404 0.1391 0.70602 0.0
C5255 C 0.66389 0.13394 0.69942 0.0
C5256 C 0.65926 0.14665 0.70578 0.0
C5257 C 0.65537 0.14959 0.71263 0.0
C5258 C 0.65808 0.15069 0.6985 0.0
C5259 C 0.65277 0.15709 0.69796 0.0
C5260 C 0.64869 0.1598 0.70474 0.0
C5261 C 0.67557 0.12613 0.72079 0.0
C5262 C 0.67445 0.11806 0.72279 0.0
C5263 C 0.67942 0.13113 0.72633 0.0
C5264 C 0.68177 0.12819 0.73381 0.0
C5265 C 0.68028 0.12021 0.73589 0.0
C5266 C 0.67682 0.11514 0.7302 0.0
C5267 C 0.6502 0.15614 0.71212 0.0
H5268 H 0.66249 0.10184 0.68835 0.0
H5269 H 0.66597 0.11042 0.69963 0.0
H5270 H 0.66817 0.13049 0.68358 0.0
H5271 H 0.66434 0.12195 0.67243 0.0
H5272 H 0.67547 0.11883 0.70633 0.0
H5273 H 0.66018 0.13538 0.69433 0.0
H5274 H 0.66824 0.14045 0.71814 0.0
H5275 H 0.65603 0.14665 0.71834 0.0
H5276 H 0.66116 0.14885 0.69313 0.0
H5277 H 0.65185 0.15992 0.69223 0.0
H5278 H 0.67143 0.11401 0.71877 0.0
H5279 H 0.68047 0.13735 0.72495 0.0
H5280 H 0.64715 0.15815 0.71745 0.0
H5281 H 0.6757 0.10892 0.73158 0.0
H5282 H 0.68443 0.13224 0.73808 0.0
C5283 C 0.67018 0.88086 0.46301 0.0
C5284 C 0.67384 0.88234 0.45561 0.0
C5285 C 0.66431 0.88601 0.46596 0.0
C5286 C 0.66195 0.89278 0.46158 0.0
C5287 C 0.66586 0.89446 0.45436 0.0
C5288 C 0.67175 0.88933 0.45143 0.0
C5289 C 0.655 0.89766 0.46425 0.0
C5290 C 0.65383 0.89929 0.47237 0.0
C5291 C 0.64662 0.90261 0.47517 0.0
C5292 C 0.64078 0.90486 0.46954 0.0
C5293 C 0.64196 0.90356 0.46132 0.0
C5294 C 0.64909 0.89994 0.45876 0.0
C5295 C 0.63544 0.90509 0.45545 0.0
C5296 C 0.6275 0.90307 0.4573 0.0
C5297 C 0.63717 0.90791 0.44771 0.0
C5298 C 0.63119 0.90831 0.44189 0.0
C5299 C 0.62339 0.90586 0.44368 0.0
C5300 C 0.64487 0.90283 0.48394 0.0
C5301 C 0.64798 0.89686 0.48897 0.0
C5302 C 0.63972 0.90857 0.48733 0.0
C5303 C 0.6375 0.90811 0.4954 0.0
C5304 C 0.64041 0.90193 0.50027 0.0
C5305 C 0.64586 0.89648 0.49699 0.0
C5306 C 0.62156 0.90342 0.45147 0.0
H5307 H 0.67153 0.8755 0.46635 0.0
H5308 H 0.66135 0.88447 0.47149 0.0
H5309 H 0.66427 0.89968 0.4509 0.0
H5310 H 0.67456 0.89076 0.44579 0.0
H5311 H 0.65851 0.89774 0.47654 0.0
H5312 H 0.64981 0.8984 0.45252 0.0
H5313 H 0.63516 0.90732 0.47156 0.0
H5314 H 0.62594 0.90079 0.46314 0.0
H5315 H 0.6432 0.9096 0.4461 0.0
H5316 H 0.63272 0.91018 0.43589 0.0
H5317 H 0.65183 0.89221 0.48669 0.0
H5318 H 0.6373 0.91335 0.48374 0.0
H5319 H 0.61557 0.90149 0.45296 0.0
H5320 H 0.64838 0.89175 0.5006 0.0
H5321 H 0.63332 0.91243 0.49776 0.0
C5322 C 0.85687 0.909 0.18735 0.0
C5323 C 0.85506 0.90657 0.1795 0.0
C5324 C 0.85504 0.90414 0.19388 0.0
C5325 C 0.85153 0.89664 0.19275 0.0
C5326 C 0.84943 0.89428 0.18501 0.0
C5327 C 0.85102 0.89924 0.17849 0.0
C5328 C 0.85079 0.89104 0.19953 0.0
C5329 C 0.84688 0.89333 0.20655 0.0
C5330 C 0.84691 0.88836 0.21333 0.0
C5331 C 0.85085 0.88093 0.21288 0.0
C5332 C 0.85479 0.87852 0.20585 0.0
C5333 C 0.85466 0.88364 0.19921 0.0
C5334 C 0.8595 0.87096 0.20552 0.0
C5335 C 0.86396 0.86832 0.21214 0.0
C5336 C 0.86001 0.86659 0.19838 0.0
C5337 C 0.86507 0.86 0.19776 0.0
C5338 C 0.8697 0.85749 0.20429 0.0
C5339 C 0.84333 0.89117 0.22101 0.0
C5340 C 0.84375 0.89927 0.22317 0.0
C5341 C 0.83979 0.88579 0.2264 0.0
C5342 C 0.837 0.88839 0.23383 0.0
C5343 C 0.8376 0.89646 0.23603 0.0
C5344 C 0.84089 0.90188 0.23054 0.0
C5345 C 0.86897 0.86165 0.21154 0.0
H5346 H 0.86008 0.91447 0.18852 0.0
H5347 H 0.85677 0.90607 0.1998 0.0
H5348 H 0.84665 0.88853 0.184 0.0
H5349 H 0.8492 0.89719 0.17266 0.0
H5350 H 0.84385 0.89904 0.2067 0.0
H5351 H 0.85797 0.8821 0.19387 0.0
H5352 H 0.85103 0.87709 0.21807 0.0
H5353 H 0.8638 0.87153 0.21773 0.0
H5354 H 0.85657 0.86832 0.19319 0.0
H5355 H 0.8655 0.85701 0.19205 0.0
H5356 H 0.84658 0.90361 0.2193 0.0
H5357 H 0.83919 0.87953 0.22491 0.0
H5358 H 0.87232 0.85981 0.21674 0.0
H5359 H 0.84157 0.90812 0.23207 0.0
H5360 H 0.83441 0.88408 0.23788 0.0
C5361 C 0.89421 0.10669 0.95011 0.0
C5362 C 0.89461 0.1124 0.94395 0.0
C5363 C 0.88799 0.10694 0.95574 0.0
C5364 C 0.88206 0.11288 0.95528 0.0
C5365 C 0.88245 0.11843 0.94899 0.0
C5366 C 0.88854 0.11812 0.94338 0.0
C5367 C 0.87562 0.11372 0.96139 0.0
C5368 C 0.8772 0.11291 0.9696 0.0
C5369 C 0.87149 0.11525 0.97535 0.0
C5370 C 0.86425 0.1187 0.9727 0.0
C5371 C 0.8627 0.11972 0.96453 0.0
C5372 C 0.86813 0.11658 0.959 0.0
C5373 C 0.85619 0.12508 0.96161 0.0
C5374 C 0.84863 0.12544 0.96527 0.0
C5375 C 0.85775 0.13022 0.95515 0.0
C5376 C 0.85191 0.13536 0.95227 0.0
C5377 C 0.84432 0.13564 0.95578 0.0
C5378 C 0.87344 0.11486 0.98407 0.0
C5379 C 0.87828 0.10872 0.9872 0.0
C5380 C 0.87072 0.12083 0.98933 0.0
C5381 C 0.87288 0.12075 0.99737 0.0
C5382 C 0.87784 0.11474 1.00039 0.0
C5383 C 0.88047 0.10867 0.99528 0.0
C5384 C 0.84275 0.1307 0.96239 0.0
H5385 H 0.89881 0.1022 0.95071 0.0
H5386 H 0.88786 0.10256 0.96048 0.0
H5387 H 0.87815 0.12323 0.94848 0.0
H5388 H 0.88856 0.12252 0.93864 0.0
H5389 H 0.88306 0.11095 0.97149 0.0
H5390 H 0.86675 0.11693 0.9527 0.0
H5391 H 0.85995 0.12091 0.97698 0.0
H5392 H 0.84722 0.12161 0.97028 0.0
H5393 H 0.86358 0.13041 0.95236 0.0
H5394 H 0.85341 0.13924 0.94732 0.0
H5395 H 0.88044 0.10397 0.9834 0.0
H5396 H 0.86713 0.12576 0.98722 0.0
H5397 H 0.83695 0.13083 0.96525 0.0
H5398 H 0.88434 0.10399 0.99749 0.0
H5399 H 0.87081 0.12551 1.00122 0.0
C5400 C 0.8305 0.66335 0.90921 0.0
C5401 C 0.83816 0.66242 0.90597 0.0
C5402 C 0.82407 0.66542 0.90429 0.0
C5403 C 0.82523 0.66667 0.89606 0.0
C5404 C 0.83304 0.66635 0.89299 0.0
C5405 C 0.83941 0.66418 0.89788 0.0
C5406 C 0.81828 0.66745 0.89056 0.0
C5407 C 0.81138 0.67159 0.89288 0.0
C5408 C 0.80443 0.67143 0.88815 0.0
C5409 C 0.8046 0.66733 0.88081 0.0
C5410 C 0.81154 0.66333 0.8783 0.0
C5411 C 0.8183 0.6634 0.88324 0.0
C5412 C 0.81168 0.65852 0.87083 0.0
C5413 C 0.80539 0.65329 0.86896 0.0
C5414 C 0.81844 0.65868 0.86586 0.0
C5415 C 0.819 0.65357 0.85931 0.0
C5416 C 0.81286 0.64814 0.85761 0.0
C5417 C 0.79683 0.67482 0.89127 0.0
C5418 C 0.79488 0.67387 0.89937 0.0
C5419 C 0.79127 0.67858 0.88621 0.0
C5420 C 0.7838 0.681 0.88913 0.0
C5421 C 0.78175 0.67966 0.89715 0.0
C5422 C 0.78747 0.6763 0.90227 0.0
C5423 C 0.806 0.64811 0.86244 0.0
H5424 H 0.82938 0.66195 0.91542 0.0
H5425 H 0.81814 0.66554 0.90685 0.0
H5426 H 0.83418 0.66747 0.88673 0.0
H5427 H 0.8453 0.66356 0.89527 0.0
H5428 H 0.81137 0.67482 0.89847 0.0
H5429 H 0.82346 0.6599 0.88155 0.0
H5430 H 0.79928 0.66704 0.87716 0.0
H5431 H 0.80013 0.65299 0.8727 0.0
H5432 H 0.82336 0.66268 0.86711 0.0
H5433 H 0.82436 0.6537 0.85569 0.0
H5434 H 0.79893 0.67093 0.90345 0.0
H5435 H 0.79262 0.67951 0.87996 0.0
H5436 H 0.80114 0.64404 0.8612 0.0
H5437 H 0.78613 0.6753 0.90851 0.0
H5438 H 0.77951 0.68358 0.88504 0.0
C5439 C 0.3303 0.85362 0.10823 0.0
C5440 C 0.33798 0.85449 0.11143 0.0
C5441 C 0.32387 0.85168 0.11318 0.0
C5442 C 0.32503 0.85048 0.12142 0.0
C5443 C 0.33285 0.85077 0.12447 0.0
C5444 C 0.33924 0.85283 0.11954 0.0
C5445 C 0.3181 0.84975 0.12693 0.0
C5446 C 0.31122 0.84555 0.1247 0.0
C5447 C 0.30433 0.84566 0.12951 0.0
C5448 C 0.30458 0.84965 0.13691 0.0
C5449 C 0.31149 0.85379 0.13933 0.0
C5450 C 0.31814 0.85387 0.13421 0.0
C5451 C 0.31174 0.85856 0.14686 0.0
C5452 C 0.30503 0.86284 0.14953 0.0
C5453 C 0.31895 0.85936 0.15111 0.0
C5454 C 0.31956 0.86465 0.15752 0.0
C5455 C 0.31295 0.86917 0.15996 0.0
C5456 C 0.29669 0.84232 0.12638 0.0
C5457 C 0.29472 0.84338 0.11829 0.0
C5458 C 0.29113 0.8385 0.1314 0.0
C5459 C 0.28366 0.83612 0.12846 0.0
C5460 C 0.28161 0.83755 0.12045 0.0
C5461 C 0.28732 0.84098 0.11537 0.0
C5462 C 0.30562 0.86805 0.15603 0.0
H5463 H 0.32919 0.85496 0.102 0.0
H5464 H 0.31793 0.85158 0.11064 0.0
H5465 H 0.33399 0.84971 0.13074 0.0
H5466 H 0.34514 0.85342 0.12213 0.0
H5467 H 0.31118 0.84232 0.11911 0.0
H5468 H 0.32326 0.85751 0.13571 0.0
H5469 H 0.29932 0.84977 0.14065 0.0
H5470 H 0.29939 0.86246 0.1464 0.0
H5471 H 0.3242 0.85599 0.14942 0.0
H5472 H 0.32525 0.86521 0.16054 0.0
H5473 H 0.29876 0.84638 0.11424 0.0
H5474 H 0.2925 0.83749 0.13763 0.0
H5475 H 0.30041 0.87145 0.15779 0.0
H5476 H 0.28596 0.84206 0.10915 0.0
H5477 H 0.27938 0.83348 0.13252 0.0
C5478 C 0.88122 0.55438 0.84793 0.0
C5479 C 0.88279 0.56175 0.84427 0.0
C5480 C 0.88628 0.55142 0.85387 0.0
C5481 C 0.89305 0.55576 0.85631 0.0
C5482 C 0.89482 0.56295 0.85239 0.0
C5483 C 0.88977 0.5659 0.84643 0.0
C5484 C 0.89783 0.55306 0.86332 0.0
C5485 C 0.89927 0.54491 0.8646 0.0
C5486 C 0.90258 0.54213 0.87181 0.0
C5487 C 0.90495 0.54776 0.87758 0.0
C5488 C 0.90377 0.55599 0.87634 0.0
C5489 C 0.90021 0.55856 0.86918 0.0
C5490 C 0.90528 0.56184 0.88287 0.0
C5491 C 0.90312 0.55998 0.89076 0.0
C5492 C 0.90822 0.56954 0.88121 0.0
C5493 C 0.9086 0.57534 0.88722 0.0
C5494 C 0.90598 0.57356 0.89497 0.0
C5495 C 0.90277 0.53338 0.87358 0.0
C5496 C 0.89659 0.52844 0.87078 0.0
C5497 C 0.90881 0.52993 0.87831 0.0
C5498 C 0.90866 0.52175 0.88015 0.0
C5499 C 0.90253 0.51684 0.8772 0.0
C5500 C 0.8965 0.52031 0.87252 0.0
C5501 C 0.90344 0.56577 0.89672 0.0
H5502 H 0.87586 0.55106 0.84651 0.0
H5503 H 0.88465 0.54591 0.85683 0.0
H5504 H 0.90005 0.56638 0.85403 0.0
H5505 H 0.89126 0.57153 0.84363 0.0
H5506 H 0.89761 0.54069 0.86 0.0
H5507 H 0.8988 0.56482 0.86841 0.0
H5508 H 0.90741 0.54572 0.88319 0.0
H5509 H 0.90075 0.55416 0.89227 0.0
H5510 H 0.91002 0.57114 0.87521 0.0
H5511 H 0.91056 0.58131 0.88572 0.0
H5512 H 0.89167 0.53085 0.86736 0.0
H5513 H 0.91369 0.53351 0.88056 0.0
H5514 H 0.90144 0.56424 0.90267 0.0
H5515 H 0.89158 0.51676 0.87031 0.0
H5516 H 0.9134 0.51925 0.88375 0.0
C5517 C 0.18767 0.16383 0.6076 0.0
C5518 C 0.17994 0.16248 0.61061 0.0
C5519 C 0.19401 0.16561 0.61273 0.0
C5520 C 0.19278 0.16625 0.62101 0.0
C5521 C 0.18496 0.16541 0.62395 0.0
C5522 C 0.17866 0.16347 0.61886 0.0
C5523 C 0.19966 0.16716 0.62661 0.0
C5524 C 0.20649 0.1715 0.62442 0.0
C5525 C 0.21338 0.17151 0.62924 0.0
C5526 C 0.21314 0.16755 0.63667 0.0
C5527 C 0.20626 0.16337 0.6391 0.0
C5528 C 0.19965 0.16311 0.63394 0.0
C5529 C 0.20603 0.15872 0.6467 0.0
C5530 C 0.21272 0.1544 0.64936 0.0
C5531 C 0.19887 0.15809 0.65105 0.0
C5532 C 0.19826 0.15292 0.65756 0.0
C5533 C 0.20484 0.14832 0.65998 0.0
C5534 C 0.22102 0.17491 0.62612 0.0
C5535 C 0.22293 0.17406 0.61799 0.0
C5536 C 0.22666 0.17854 0.63118 0.0
C5537 C 0.23414 0.18092 0.62824 0.0
C5538 C 0.23613 0.1797 0.62018 0.0
C5539 C 0.23033 0.17648 0.61507 0.0
C5540 C 0.21214 0.14928 0.65595 0.0
H5541 H 0.1889 0.16333 0.60129 0.0
H5542 H 0.19993 0.16615 0.61021 0.0
H5543 H 0.18371 0.16605 0.63026 0.0
H5544 H 0.17286 0.16242 0.62148 0.0
H5545 H 0.2065 0.17477 0.61885 0.0
H5546 H 0.19461 0.15939 0.63549 0.0
H5547 H 0.21838 0.16751 0.64044 0.0
H5548 H 0.21833 0.15468 0.64616 0.0
H5549 H 0.19364 0.16148 0.64933 0.0
H5550 H 0.19261 0.15249 0.66066 0.0
H5551 H 0.21885 0.1712 0.61388 0.0
H5552 H 0.22536 0.17942 0.63745 0.0
H5553 H 0.21732 0.14583 0.65766 0.0
H5554 H 0.23159 0.1756 0.60879 0.0
H5555 H 0.23847 0.18339 0.63235 0.0
C5556 C 0.10614 0.94918 0.89366 0.0
C5557 C 0.11209 0.94337 0.89472 0.0
C5558 C 0.10684 0.95486 0.88753 0.0
C5559 C 0.11349 0.95475 0.88239 0.0
C5560 C 0.11936 0.94885 0.88351 0.0
C5561 C 0.11866 0.94323 0.88958 0.0
C5562 C 0.11458 0.96078 0.87596 0.0
C5563 C 0.11373 0.96899 0.87745 0.0
C5564 C 0.11608 0.97471 0.8717 0.0
C5565 C 0.11942 0.97196 0.86444 0.0
C5566 C 0.12055 0.96377 0.86301 0.0
C5567 C 0.11761 0.95829 0.86859 0.0
C5568 C 0.12574 0.96086 0.85637 0.0
C5569 C 0.12589 0.96452 0.8488 0.0
C5570 C 0.13096 0.95443 0.85779 0.0
C5571 C 0.13598 0.9516 0.85182 0.0
C5572 C 0.13607 0.95515 0.84425 0.0
C5573 C 0.11579 0.98348 0.87357 0.0
C5574 C 0.11007 0.98669 0.87887 0.0
C5575 C 0.12144 0.98874 0.87024 0.0
C5576 C 0.12132 0.99687 0.87202 0.0
C5577 C 0.11568 1.00003 0.87734 0.0
C5578 C 0.11008 0.99484 0.88081 0.0
C5579 C 0.13105 0.96172 0.8428 0.0
H5580 H 0.10107 0.94942 0.89765 0.0
H5581 H 0.10222 0.95932 0.88681 0.0
H5582 H 0.12465 0.94869 0.87979 0.0
H5583 H 0.12337 0.93888 0.89041 0.0
H5584 H 0.11172 0.97089 0.88329 0.0
H5585 H 0.11812 0.95196 0.8674 0.0
H5586 H 0.12147 0.97617 0.86 0.0
H5587 H 0.12199 0.9695 0.84748 0.0
H5588 H 0.13133 0.95164 0.8636 0.0
H5589 H 0.13993 0.94667 0.85321 0.0
H5590 H 0.10553 0.98293 0.88151 0.0
H5591 H 0.12616 0.98662 0.86638 0.0
H5592 H 0.13102 0.96459 0.83701 0.0
H5593 H 0.10563 0.99711 0.8849 0.0
H5594 H 0.12582 1.00068 0.86936 0.0
C5595 C 0.68786 0.35386 0.40998 0.0
C5596 C 0.68009 0.35503 0.40702 0.0
C5597 C 0.69416 0.35202 0.40483 0.0
C5598 C 0.69285 0.35118 0.39658 0.0
C5599 C 0.68499 0.35189 0.39369 0.0
C5600 C 0.67872 0.35386 0.39882 0.0
C5601 C 0.69968 0.35021 0.39094 0.0
C5602 C 0.7065 0.34586 0.39312 0.0
C5603 C 0.71335 0.34576 0.38824 0.0
C5604 C 0.71308 0.34967 0.38079 0.0
C5605 C 0.70622 0.3539 0.37839 0.0
C5606 C 0.69964 0.3542 0.38359 0.0
C5607 C 0.70599 0.35855 0.37079 0.0
C5608 C 0.71269 0.36284 0.36811 0.0
C5609 C 0.69881 0.35923 0.36648 0.0
C5610 C 0.69821 0.3644 0.35997 0.0
C5611 C 0.7048 0.36897 0.35752 0.0
C5612 C 0.72097 0.34234 0.39133 0.0
C5613 C 0.72304 0.34345 0.39938 0.0
C5614 C 0.72646 0.33844 0.38629 0.0
C5615 C 0.73395 0.33604 0.38918 0.0
C5616 C 0.73611 0.33754 0.39714 0.0
C5617 C 0.73047 0.34105 0.40224 0.0
C5618 C 0.71211 0.36797 0.36153 0.0
H5619 H 0.68914 0.35455 0.41627 0.0
H5620 H 0.70012 0.35158 0.40729 0.0
H5621 H 0.6837 0.35113 0.38741 0.0
H5622 H 0.67286 0.35477 0.39626 0.0
H5623 H 0.70655 0.34265 0.39873 0.0
H5624 H 0.69459 0.35793 0.38206 0.0
H5625 H 0.7183 0.34965 0.37698 0.0
H5626 H 0.7183 0.36253 0.37129 0.0
H5627 H 0.69357 0.35586 0.36821 0.0
H5628 H 0.69255 0.36487 0.35689 0.0
H5629 H 0.71907 0.34651 0.40345 0.0
H5630 H 0.72503 0.33739 0.38008 0.0
H5631 H 0.7173 0.3714 0.3598 0.0
H5632 H 0.73191 0.34219 0.40844 0.0
H5633 H 0.73818 0.33335 0.3851 0.0
C5634 C 0.88109 0.463 0.66995 0.0
C5635 C 0.88265 0.4556 0.67358 0.0
C5636 C 0.88621 0.46602 0.66409 0.0
C5637 C 0.89302 0.46172 0.6617 0.0
C5638 C 0.89478 0.45452 0.6656 0.0
C5639 C 0.88967 0.4515 0.67148 0.0
C5640 C 0.89787 0.46445 0.65475 0.0
C5641 C 0.89932 0.4726 0.65349 0.0
C5642 C 0.90275 0.47537 0.64633 0.0
C5643 C 0.90522 0.46974 0.64061 0.0
C5644 C 0.904 0.46152 0.64182 0.0
C5645 C 0.90033 0.45895 0.64892 0.0
C5646 C 0.90564 0.45568 0.63532 0.0
C5647 C 0.90369 0.45756 0.62738 0.0
C5648 C 0.90847 0.44796 0.63706 0.0
C5649 C 0.9089 0.44214 0.63108 0.0
C5650 C 0.90646 0.44393 0.62326 0.0
C5651 C 0.90299 0.4841 0.64451 0.0
C5652 C 0.89683 0.4891 0.64725 0.0
C5653 C 0.90905 0.48748 0.63974 0.0
C5654 C 0.90889 0.49561 0.63774 0.0
C5655 C 0.90275 0.50056 0.64058 0.0
C5656 C 0.89674 0.49719 0.64536 0.0
C5657 C 0.9041 0.45175 0.62143 0.0
H5658 H 0.8757 0.46628 0.67133 0.0
H5659 H 0.88459 0.47154 0.66114 0.0
H5660 H 0.90004 0.45112 0.66401 0.0
H5661 H 0.89115 0.44586 0.67425 0.0
H5662 H 0.89758 0.47682 0.65806 0.0
H5663 H 0.8989 0.4527 0.64966 0.0
H5664 H 0.90778 0.47176 0.63503 0.0
H5665 H 0.90142 0.46339 0.62581 0.0
H5666 H 0.91012 0.44634 0.64309 0.0
H5667 H 0.91075 0.43616 0.63265 0.0
H5668 H 0.8919 0.48676 0.6507 0.0
H5669 H 0.91395 0.48387 0.63757 0.0
H5670 H 0.90229 0.45331 0.61543 0.0
H5671 H 0.89183 0.5008 0.64751 0.0
H5672 H 0.91363 0.49805 0.63407 0.0
C5673 C 0.60681 0.56772 0.12418 0.0
C5674 C 0.61253 0.57386 0.12377 0.0
C5675 C 0.60704 0.56211 0.13043 0.0
C5676 C 0.61295 0.56262 0.13638 0.0
C5677 C 0.61853 0.56888 0.13597 0.0
C5678 C 0.61826 0.57443 0.12984 0.0
C5679 C 0.61377 0.55655 0.14283 0.0
C5680 C 0.61321 0.54834 0.14121 0.0
C5681 C 0.61567 0.54263 0.1469 0.0
C5682 C 0.61892 0.54533 0.15421 0.0
C5683 C 0.61972 0.55352 0.15579 0.0
C5684 C 0.6165 0.55898 0.15035 0.0
C5685 C 0.62506 0.55649 0.16226 0.0
C5686 C 0.62547 0.55283 0.16982 0.0
C5687 C 0.63022 0.56291 0.16063 0.0
C5688 C 0.63546 0.56574 0.16639 0.0
C5689 C 0.63581 0.56221 0.17397 0.0
C5690 C 0.61567 0.53393 0.14487 0.0
C5691 C 0.60982 0.53062 0.1398 0.0
C5692 C 0.62172 0.52886 0.14778 0.0
C5693 C 0.62186 0.52079 0.14579 0.0
C5694 C 0.61607 0.51753 0.14068 0.0
C5695 C 0.61007 0.52254 0.13766 0.0
C5696 C 0.63083 0.55566 0.17562 0.0
H5697 H 0.60232 0.56712 0.11958 0.0
H5698 H 0.60265 0.55738 0.13057 0.0
H5699 H 0.6233 0.56939 0.14029 0.0
H5700 H 0.62268 0.57916 0.1298 0.0
H5701 H 0.61141 0.54643 0.13531 0.0
H5702 H 0.61675 0.5653 0.15172 0.0
H5703 H 0.62119 0.5411 0.15852 0.0
H5704 H 0.62163 0.54784 0.17126 0.0
H5705 H 0.63036 0.56569 0.1548 0.0
H5706 H 0.63938 0.57065 0.16484 0.0
H5707 H 0.60501 0.53426 0.1375 0.0
H5708 H 0.6265 0.53112 0.15147 0.0
H5709 H 0.631 0.5528 0.18141 0.0
H5710 H 0.6055 0.52017 0.13376 0.0
H5711 H 0.62663 0.5171 0.14812 0.0
C5712 C 0.65508 0.70992 0.86763 0.0
C5713 C 0.65954 0.70281 0.86771 0.0
C5714 C 0.64846 0.71074 0.86261 0.0
C5715 C 0.64613 0.70446 0.85758 0.0
C5716 C 0.65077 0.69749 0.85742 0.0
C5717 C 0.65741 0.69668 0.86239 0.0
C5718 C 0.63849 0.70492 0.85309 0.0
C5719 C 0.63621 0.71197 0.8492 0.0
C5720 C 0.62854 0.7128 0.84585 0.0
C5721 C 0.62328 0.70622 0.8461 0.0
C5722 C 0.62556 0.69901 0.84979 0.0
C5723 C 0.63316 0.6985 0.8533 0.0
C5724 C 0.61993 0.69215 0.85064 0.0
C5725 C 0.61183 0.69339 0.85242 0.0
C5726 C 0.62281 0.68427 0.85036 0.0
C5727 C 0.61787 0.67785 0.85232 0.0
C5728 C 0.60984 0.67909 0.85447 0.0
C5729 C 0.62588 0.72075 0.84276 0.0
C5730 C 0.62853 0.72778 0.84652 0.0
C5731 C 0.62052 0.72147 0.83631 0.0
C5732 C 0.61774 0.729 0.83387 0.0
C5733 C 0.62026 0.73596 0.83782 0.0
C5734 C 0.62583 0.73523 0.84404 0.0
C5735 C 0.60684 0.68694 0.85426 0.0
H5736 H 0.65648 0.71475 0.87168 0.0
H5737 H 0.64496 0.71616 0.86295 0.0
H5738 H 0.64918 0.69259 0.85352 0.0
H5739 H 0.66082 0.69121 0.86212 0.0
H5740 H 0.64043 0.71685 0.84891 0.0
H5741 H 0.6348 0.6932 0.85662 0.0
H5742 H 0.61734 0.70677 0.84363 0.0
H5743 H 0.60939 0.69936 0.85273 0.0
H5744 H 0.62898 0.68306 0.84886 0.0
H5745 H 0.62048 0.67195 0.85246 0.0
H5746 H 0.63251 0.72755 0.85159 0.0
H5747 H 0.61841 0.71623 0.83319 0.0
H5748 H 0.60066 0.68815 0.85569 0.0
H5749 H 0.62799 0.74047 0.84715 0.0
H5750 H 0.61343 0.72935 0.82907 0.0
C5751 C 0.55707 0.34264 0.12912 0.0
C5752 C 0.56339 0.34436 0.13438 0.0
C5753 C 0.55413 0.34856 0.12395 0.0
C5754 C 0.55749 0.35625 0.12399 0.0
C5755 C 0.56358 0.35798 0.12949 0.0
C5756 C 0.56649 0.35213 0.13458 0.0
C5757 C 0.55476 0.36265 0.11849 0.0
C5758 C 0.54665 0.36445 0.11757 0.0
C5759 C 0.54422 0.37148 0.11362 0.0
C5760 C 0.55012 0.37686 0.1109 0.0
C5761 C 0.55829 0.37516 0.1119 0.0
C5762 C 0.56045 0.36774 0.1151 0.0
C5763 C 0.56456 0.38143 0.11085 0.0
C5764 C 0.56399 0.38749 0.10505 0.0
C5765 C 0.57108 0.3816 0.11615 0.0
C5766 C 0.57681 0.38755 0.1157 0.0
C5767 C 0.57613 0.39377 0.11015 0.0
C5768 C 0.53555 0.37349 0.11309 0.0
C5769 C 0.52985 0.36744 0.11198 0.0
C5770 C 0.53285 0.38138 0.11411 0.0
C5771 C 0.52468 0.38311 0.11429 0.0
C5772 C 0.519 0.37699 0.11353 0.0
C5773 C 0.5217 0.36916 0.11222 0.0
C5774 C 0.56971 0.39362 0.10472 0.0
H5775 H 0.55454 0.33671 0.12889 0.0
H5776 H 0.54938 0.34709 0.11983 0.0
H5777 H 0.5661 0.36392 0.12988 0.0
H5778 H 0.57118 0.35372 0.13873 0.0
H5779 H 0.54225 0.36062 0.12036 0.0
H5780 H 0.5667 0.36613 0.11554 0.0
H5781 H 0.54835 0.3825 0.10829 0.0
H5782 H 0.5591 0.38756 0.10083 0.0
H5783 H 0.5717 0.37726 0.12089 0.0
H5784 H 0.58175 0.38732 0.11985 0.0
H5785 H 0.53168 0.36132 0.111 0.0
H5786 H 0.53702 0.38621 0.1151 0.0
H5787 H 0.56898 0.39833 0.10036 0.0
H5788 H 0.5175 0.36431 0.11145 0.0
H5789 H 0.52282 0.3892 0.11538 0.0
C5790 C 0.90904 0.33357 0.34733 0.0
C5791 C 0.90837 0.33787 0.35449 0.0
C5792 C 0.90401 0.32701 0.34586 0.0
C5793 C 0.89828 0.32467 0.35156 0.0
C5794 C 0.89793 0.32887 0.35883 0.0
C5795 C 0.90282 0.33543 0.36022 0.0
C5796 C 0.89248 0.31807 0.35006 0.0
C5797 C 0.89473 0.31082 0.34643 0.0
C5798 C 0.88934 0.30432 0.34609 0.0
C5799 C 0.88168 0.30521 0.34954 0.0
C5800 C 0.87949 0.31232 0.35336 0.0
C5801 C 0.88472 0.31881 0.35311 0.0
C5802 C 0.8723 0.3128 0.35856 0.0
C5803 C 0.86487 0.30967 0.35624 0.0
C5804 C 0.87296 0.31641 0.3661 0.0
C5805 C 0.86636 0.31715 0.37108 0.0
C5806 C 0.85887 0.31427 0.36871 0.0
C5807 C 0.89194 0.29634 0.34296 0.0
C5808 C 0.89742 0.29563 0.3366 0.0
C5809 C 0.88913 0.28929 0.34655 0.0
C5810 C 0.89177 0.28183 0.34401 0.0
C5811 C 0.89748 0.28111 0.33792 0.0
C5812 C 0.90016 0.2881 0.33411 0.0
C5813 C 0.8582 0.31041 0.36127 0.0
H5814 H 0.91333 0.33537 0.34285 0.0
H5815 H 0.90446 0.32392 0.34021 0.0
H5816 H 0.89382 0.32712 0.3635 0.0
H5817 H 0.90228 0.33861 0.36582 0.0
H5818 H 0.90079 0.31011 0.34432 0.0
H5819 H 0.88283 0.32442 0.3557 0.0
H5820 H 0.87751 0.30029 0.34957 0.0
H5821 H 0.86417 0.30682 0.35049 0.0
H5822 H 0.87865 0.31865 0.36821 0.0
H5823 H 0.86715 0.31995 0.37685 0.0
H5824 H 0.89966 0.30089 0.3336 0.0
H5825 H 0.88506 0.28947 0.35156 0.0
H5826 H 0.8525 0.30813 0.35926 0.0
H5827 H 0.90458 0.28777 0.32941 0.0
H5828 H 0.88946 0.27659 0.347 0.0
C5829 C 0.96195 0.67431 0.62947 0.0
C5830 C 0.95543 0.67277 0.63455 0.0
C5831 C 0.96493 0.66829 0.62444 0.0
C5832 C 0.96143 0.66065 0.62446 0.0
C5833 C 0.95515 0.6591 0.62979 0.0
C5834 C 0.95218 0.66506 0.63473 0.0
C5835 C 0.96417 0.65413 0.61908 0.0
C5836 C 0.97228 0.65225 0.6182 0.0
C5837 C 0.97465 0.64512 0.61439 0.0
C5838 C 0.96869 0.63972 0.61181 0.0
C5839 C 0.96052 0.64152 0.61272 0.0
C5840 C 0.95845 0.64905 0.61573 0.0
C5841 C 0.95412 0.63534 0.61164 0.0
C5842 C 0.95485 0.62896 0.60622 0.0
C5843 C 0.94727 0.63558 0.61653 0.0
C5844 C 0.9414 0.62975 0.61604 0.0
C5845 C 0.94227 0.62319 0.61092 0.0
C5846 C 0.98332 0.64305 0.61381 0.0
C5847 C 0.9891 0.64901 0.61249 0.0
C5848 C 0.98595 0.63515 0.61491 0.0
C5849 C 0.9941 0.63332 0.61492 0.0
C5850 C 0.99987 0.63932 0.6139 0.0
C5851 C 0.99725 0.64718 0.61256 0.0
C5852 C 0.94902 0.62293 0.60589 0.0
H5853 H 0.96461 0.68019 0.62926 0.0
H5854 H 0.96982 0.66964 0.62045 0.0
H5855 H 0.9525 0.65322 0.63019 0.0
H5856 H 0.94733 0.6636 0.63875 0.0
H5857 H 0.97671 0.65609 0.62091 0.0
H5858 H 0.95224 0.65081 0.616 0.0
H5859 H 0.97042 0.63403 0.60933 0.0
H5860 H 0.95995 0.62855 0.60228 0.0
H5861 H 0.94646 0.64015 0.621 0.0
H5862 H 0.93622 0.63034 0.61985 0.0
H5863 H 0.98732 0.65514 0.6115 0.0
H5864 H 0.98175 0.63038 0.61604 0.0
H5865 H 0.94992 0.61797 0.60186 0.0
H5866 H 1.00151 0.65198 0.61181 0.0
H5867 H 0.99588 0.62718 0.61586 0.0
C5868 C 0.65494 0.30741 0.64971 0.0
C5869 C 0.65955 0.31442 0.64981 0.0
C5870 C 0.64832 0.30658 0.65472 0.0
C5871 C 0.64612 0.31277 0.65992 0.0
C5872 C 0.65089 0.31965 0.66026 0.0
C5873 C 0.65755 0.32045 0.6553 0.0
C5874 C 0.6385 0.31233 0.66443 0.0
C5875 C 0.63618 0.30527 0.66827 0.0
C5876 C 0.62851 0.30446 0.67163 0.0
C5877 C 0.62328 0.31106 0.6714 0.0
C5878 C 0.62559 0.31828 0.66774 0.0
C5879 C 0.6332 0.31879 0.66425 0.0
C5880 C 0.61995 0.32513 0.66687 0.0
C5881 C 0.61187 0.32388 0.66498 0.0
C5882 C 0.6228 0.33301 0.6672 0.0
C5883 C 0.61786 0.33943 0.66522 0.0
C5884 C 0.60986 0.33818 0.66298 0.0
C5885 C 0.62583 0.29651 0.6747 0.0
C5886 C 0.62839 0.2895 0.67087 0.0
C5887 C 0.62054 0.29579 0.68121 0.0
C5888 C 0.61776 0.28827 0.68365 0.0
C5889 C 0.62018 0.28132 0.67962 0.0
C5890 C 0.62567 0.28204 0.67334 0.0
C5891 C 0.60689 0.33032 0.66311 0.0
H5892 H 0.65622 0.30266 0.64552 0.0
H5893 H 0.64471 0.30125 0.65426 0.0
H5894 H 0.6494 0.32448 0.66429 0.0
H5895 H 0.66108 0.32584 0.65573 0.0
H5896 H 0.64037 0.30036 0.66851 0.0
H5897 H 0.63487 0.32411 0.66098 0.0
H5898 H 0.61733 0.31051 0.67387 0.0
H5899 H 0.60946 0.3179 0.66462 0.0
H5900 H 0.62895 0.33423 0.66877 0.0
H5901 H 0.62046 0.34534 0.66514 0.0
H5902 H 0.63232 0.28973 0.66575 0.0
H5903 H 0.61851 0.30103 0.68437 0.0
H5904 H 0.60073 0.32909 0.6616 0.0
H5905 H 0.62775 0.27681 0.67016 0.0
H5906 H 0.6135 0.28791 0.6885 0.0
C5907 C 0.9616 0.34331 0.88756 0.0
C5908 C 0.95491 0.34461 0.88266 0.0
C5909 C 0.96449 0.34943 0.89251 0.0
C5910 C 0.96076 0.35696 0.89257 0.0
C5911 C 0.95425 0.35827 0.88744 0.0
C5912 C 0.95135 0.35218 0.88261 0.0
C5913 C 0.96354 0.36359 0.89782 0.0
C5914 C 0.97167 0.36531 0.89879 0.0
C5915 C 0.97419 0.37223 0.90289 0.0
C5916 C 0.96833 0.37764 0.90564 0.0
C5917 C 0.96012 0.37607 0.90457 0.0
C5918 C 0.95789 0.36875 0.90118 0.0
C5919 C 0.95384 0.38226 0.9061 0.0
C5920 C 0.95472 0.38814 0.91205 0.0
C5921 C 0.94698 0.38256 0.90122 0.0
C5922 C 0.94121 0.38846 0.90224 0.0
C5923 C 0.94222 0.39441 0.90799 0.0
C5924 C 0.98294 0.374 0.90371 0.0
C5925 C 0.9885 0.36773 0.90436 0.0
C5926 C 0.98589 0.38187 0.90344 0.0
C5927 C 0.99413 0.38339 0.90345 0.0
C5928 C 0.99963 0.37706 0.90359 0.0
C5929 C 0.99671 0.36923 0.90424 0.0
C5930 C 0.94901 0.39421 0.91292 0.0
H5931 H 0.96449 0.33753 0.88768 0.0
H5932 H 0.96953 0.34824 0.89637 0.0
H5933 H 0.95139 0.36405 0.88708 0.0
H5934 H 0.94633 0.35345 0.87873 0.0
H5935 H 0.97603 0.36144 0.89599 0.0
H5936 H 0.95163 0.36718 0.90081 0.0
H5937 H 0.97015 0.38316 0.90842 0.0
H5938 H 0.95983 0.38811 0.916 0.0
H5939 H 0.94613 0.37842 0.89635 0.0
H5940 H 0.93612 0.38858 0.89825 0.0
H5941 H 0.98654 0.3616 0.90485 0.0
H5942 H 0.98188 0.3869 0.90287 0.0
H5943 H 0.94992 0.39878 0.91739 0.0
H5944 H 1.00079 0.36423 0.90452 0.0
H5945 H 0.99618 0.38949 0.90292 0.0
C5946 C 0.90862 0.68334 0.1694 0.0
C5947 C 0.90819 0.67983 0.16177 0.0
C5948 C 0.90347 0.68965 0.17149 0.0
C5949 C 0.89775 0.69245 0.16601 0.0
C5950 C 0.8974 0.68889 0.15842 0.0
C5951 C 0.90245 0.68265 0.15638 0.0
C5952 C 0.89198 0.69895 0.16796 0.0
C5953 C 0.89437 0.70619 0.17151 0.0
C5954 C 0.88909 0.71278 0.17181 0.0
C5955 C 0.88141 0.71199 0.16838 0.0
C5956 C 0.87906 0.70486 0.16469 0.0
C5957 C 0.88416 0.69828 0.16506 0.0
C5958 C 0.87191 0.70446 0.15941 0.0
C5959 C 0.86457 0.70794 0.16151 0.0
C5960 C 0.87254 0.70057 0.152 0.0
C5961 C 0.86598 0.69986 0.14698 0.0
C5962 C 0.85857 0.70309 0.14915 0.0
C5963 C 0.89184 0.72075 0.1748 0.0
C5964 C 0.89712 0.72148 0.18131 0.0
C5965 C 0.88933 0.72778 0.17093 0.0
C5966 C 0.89208 0.73523 0.17338 0.0
C5967 C 0.89755 0.73596 0.17968 0.0
C5968 C 0.89994 0.729 0.18374 0.0
C5969 C 0.85795 0.70726 0.15641 0.0
H5970 H 0.913 0.68129 0.17369 0.0
H5971 H 0.90389 0.69225 0.17738 0.0
H5972 H 0.8932 0.69096 0.15397 0.0
H5973 H 0.90182 0.68001 0.15052 0.0
H5974 H 0.90047 0.70685 0.17354 0.0
H5975 H 0.88221 0.69266 0.16251 0.0
H5976 H 0.87737 0.71702 0.16824 0.0
H5977 H 0.8639 0.71103 0.16714 0.0
H5978 H 0.87817 0.69808 0.15003 0.0
H5979 H 0.86673 0.69681 0.14133 0.0
H5980 H 0.89914 0.71623 0.18448 0.0
H5981 H 0.88542 0.72756 0.1658 0.0
H5982 H 0.85231 0.70983 0.15824 0.0
H5983 H 0.90418 0.72934 0.1886 0.0
H5984 H 0.89003 0.74046 0.17018 0.0
C5985 C 0.55585 0.67422 0.3882 0.0
C5986 C 0.56255 0.67313 0.3833 0.0
C5987 C 0.55327 0.66805 0.39325 0.0
C5988 C 0.55732 0.66069 0.39339 0.0
C5989 C 0.56396 0.65966 0.38834 0.0
C5990 C 0.56658 0.66582 0.38342 0.0
C5991 C 0.55462 0.65392 0.39852 0.0
C5992 C 0.5465 0.65209 0.39949 0.0
C5993 C 0.54407 0.645 0.40333 0.0
C5994 C 0.54997 0.63953 0.40586 0.0
C5995 C 0.55815 0.64124 0.40484 0.0
C5996 C 0.56031 0.64871 0.40174 0.0
C5997 C 0.56446 0.63501 0.40593 0.0
C5998 C 0.56391 0.629 0.41178 0.0
C5999 C 0.57102 0.63487 0.40068 0.0
C6000 C 0.57681 0.62897 0.40122 0.0
C6001 C 0.57614 0.62277 0.40681 0.0
C6002 C 0.53537 0.64313 0.40412 0.0
C6003 C 0.52984 0.64926 0.4056 0.0
C6004 C 0.53246 0.63532 0.40301 0.0
C6005 C 0.52424 0.63377 0.40304 0.0
C6006 C 0.51871 0.64 0.40411 0.0
C6007 C 0.52164 0.64772 0.40557 0.0
C6008 C 0.56969 0.62293 0.41221 0.0
H6009 H 0.55265 0.67983 0.38814 0.0
H6010 H 0.54815 0.66906 0.39706 0.0
H6011 H 0.56709 0.65402 0.38805 0.0
H6012 H 0.57169 0.66483 0.37958 0.0
H6013 H 0.54206 0.65599 0.39687 0.0
H6014 H 0.56656 0.65033 0.40141 0.0
H6015 H 0.54821 0.63386 0.40838 0.0
H6016 H 0.559 0.62893 0.41598 0.0
H6017 H 0.57163 0.6392 0.39593 0.0
H6018 H 0.58177 0.62921 0.39708 0.0
H6019 H 0.53183 0.6553 0.40668 0.0
H6020 H 0.5365 0.63044 0.40178 0.0
H6021 H 0.56897 0.61825 0.41659 0.0
H6022 H 0.51757 0.65263 0.4066 0.0
H6023 H 0.52221 0.62776 0.40184 0.0
C6024 C 0.84828 0.61082 0.68198 0.0
C6025 C 0.85637 0.61007 0.67979 0.0
C6026 C 0.8461 0.61547 0.68863 0.0
C6027 C 0.85198 0.6194 0.69312 0.0
C6028 C 0.86004 0.61828 0.69115 0.0
C6029 C 0.86221 0.61367 0.68462 0.0
C6030 C 0.85002 0.62528 0.69941 0.0
C6031 C 0.84656 0.62297 0.70667 0.0
C6032 C 0.84625 0.62832 0.71319 0.0
C6033 C 0.84981 0.63595 0.71229 0.0
C6034 C 0.8535 0.63825 0.70507 0.0
C6035 C 0.85301 0.63301 0.69856 0.0
C6036 C 0.85864 0.64559 0.70443 0.0
C6037 C 0.85731 0.65242 0.70914 0.0
C6038 C 0.86526 0.64564 0.69922 0.0
C6039 C 0.87025 0.65226 0.69861 0.0
C6040 C 0.86901 0.65902 0.70337 0.0
C6041 C 0.84283 0.62569 0.72107 0.0
C6042 C 0.83677 0.61985 0.72146 0.0
C6043 C 0.84577 0.62876 0.72833 0.0
C6044 C 0.84285 0.62605 0.73566 0.0
C6045 C 0.83701 0.62005 0.73601 0.0
C6046 C 0.83397 0.61702 0.72881 0.0
C6047 C 0.86246 0.65903 0.70865 0.0
H6048 H 0.84366 0.60811 0.67838 0.0
H6049 H 0.83984 0.61626 0.69004 0.0
H6050 H 0.86469 0.62119 0.69458 0.0
H6051 H 0.86849 0.61305 0.68324 0.0
H6052 H 0.84457 0.61687 0.70733 0.0
H6053 H 0.85542 0.63472 0.69281 0.0
H6054 H 0.84993 0.64002 0.71727 0.0
H6055 H 0.8523 0.65273 0.7132 0.0
H6056 H 0.8668 0.64049 0.69566 0.0
H6057 H 0.8751 0.65204 0.69435 0.0
H6058 H 0.83416 0.61743 0.71608 0.0
H6059 H 0.85056 0.63308 0.72844 0.0
H6060 H 0.86134 0.6641 0.71248 0.0
H6061 H 0.82941 0.61244 0.72886 0.0
H6062 H 0.84543 0.62842 0.74108 0.0
C6063 C 0.67489 0.62934 0.96106 0.0
C6064 C 0.67343 0.6344 0.95453 0.0
C6065 C 0.66888 0.62421 0.96387 0.0
C6066 C 0.66132 0.62414 0.96022 0.0
C6067 C 0.65983 0.62946 0.9539 0.0
C6068 C 0.6658 0.63447 0.95108 0.0
C6069 C 0.6548 0.61875 0.96293 0.0
C6070 C 0.65305 0.61775 0.97105 0.0
C6071 C 0.64597 0.61391 0.97348 0.0
C6072 C 0.64052 0.61128 0.96761 0.0
C6073 C 0.64218 0.61231 0.95945 0.0
C6074 C 0.64961 0.61549 0.95725 0.0
C6075 C 0.63587 0.61128 0.95321 0.0
C6076 C 0.62991 0.60537 0.95374 0.0
C6077 C 0.63557 0.61667 0.94678 0.0
C6078 C 0.62957 0.61621 0.94108 0.0
C6079 C 0.62344 0.61055 0.94174 0.0
C6080 C 0.64394 0.61347 0.98213 0.0
C6081 C 0.64989 0.61197 0.98787 0.0
C6082 C 0.63612 0.61501 0.98476 0.0
C6083 C 0.63435 0.61529 0.99289 0.0
C6084 C 0.64034 0.61404 0.99862 0.0
C6085 C 0.64811 0.61225 0.99602 0.0
C6086 C 0.62375 0.60502 0.94806 0.0
H6087 H 0.68072 0.62922 0.96386 0.0
H6088 H 0.67018 0.62023 0.96879 0.0
H6089 H 0.654 0.62981 0.95114 0.0
H6090 H 0.66442 0.63848 0.9462 0.0
H6091 H 0.65694 0.62043 0.97546 0.0
H6092 H 0.65115 0.61595 0.95099 0.0
H6093 H 0.63485 0.60876 0.96941 0.0
H6094 H 0.62996 0.60109 0.95857 0.0
H6095 H 0.63985 0.62147 0.94619 0.0
H6096 H 0.62968 0.62045 0.93621 0.0
H6097 H 0.65596 0.61069 0.98606 0.0
H6098 H 0.63139 0.6163 0.98055 0.0
H6099 H 0.61912 0.60057 0.94876 0.0
H6100 H 0.65287 0.61131 1.00029 0.0
H6101 H 0.62828 0.61659 0.99471 0.0
C6102 C 0.65164 0.36114 0.21063 0.0
C6103 C 0.65025 0.35769 0.20309 0.0
C6104 C 0.65642 0.36795 0.2114 0.0
C6105 C 0.6601 0.37141 0.20469 0.0
C6106 C 0.65913 0.36764 0.19726 0.0
C6107 C 0.65418 0.361 0.19644 0.0
C6108 C 0.66435 0.37924 0.20526 0.0
C6109 C 0.66856 0.38147 0.21217 0.0
C6110 C 0.67181 0.3892 0.21301 0.0
C6111 C 0.67125 0.39452 0.20648 0.0
C6112 C 0.66735 0.39228 0.19938 0.0
C6113 C 0.66377 0.38473 0.19897 0.0
C6114 C 0.66654 0.39787 0.19248 0.0
C6115 C 0.66508 0.40605 0.19365 0.0
C6116 C 0.66666 0.39494 0.18461 0.0
C6117 C 0.66487 0.39991 0.17816 0.0
C6118 C 0.66306 0.40802 0.17934 0.0
C6119 C 0.67533 0.39184 0.22082 0.0
C6120 C 0.67248 0.38867 0.22808 0.0
C6121 C 0.68129 0.39778 0.22119 0.0
C6122 C 0.68406 0.40063 0.22855 0.0
C6123 C 0.68109 0.39752 0.23575 0.0
C6124 C 0.67537 0.39141 0.23541 0.0
C6125 C 0.66342 0.41105 0.18717 0.0
H6126 H 0.64895 0.35868 0.21595 0.0
H6127 H 0.65698 0.37065 0.21724 0.0
H6128 H 0.66203 0.36994 0.19196 0.0
H6129 H 0.65327 0.35866 0.1905 0.0
H6130 H 0.66926 0.37716 0.21692 0.0
H6131 H 0.66019 0.38327 0.1938 0.0
H6132 H 0.67369 0.40046 0.20695 0.0
H6133 H 0.66491 0.40854 0.1996 0.0
H6134 H 0.66794 0.38872 0.18343 0.0
H6135 H 0.66462 0.39727 0.17227 0.0
H6136 H 0.66777 0.38426 0.22819 0.0
H6137 H 0.68382 0.40028 0.21581 0.0
H6138 H 0.66227 0.41729 0.18834 0.0
H6139 H 0.67284 0.38897 0.24083 0.0
H6140 H 0.68853 0.4053 0.2286 0.0
C6141 C 0.84315 0.3877 0.46111 0.0
C6142 C 0.84457 0.38272 0.45451 0.0
C6143 C 0.84919 0.3928 0.46392 0.0
C6144 C 0.85672 0.39294 0.4602 0.0
C6145 C 0.85815 0.3877 0.4538 0.0
C6146 C 0.85216 0.38271 0.45098 0.0
C6147 C 0.86327 0.39828 0.46292 0.0
C6148 C 0.86506 0.39919 0.47103 0.0
C6149 C 0.87215 0.40303 0.47347 0.0
C6150 C 0.87759 0.40568 0.46759 0.0
C6151 C 0.87589 0.40471 0.45942 0.0
C6152 C 0.86843 0.4016 0.45724 0.0
C6153 C 0.88218 0.40575 0.45315 0.0
C6154 C 0.88833 0.41146 0.4538 0.0
C6155 C 0.8823 0.40055 0.44656 0.0
C6156 C 0.88829 0.40098 0.44085 0.0
C6157 C 0.89461 0.40642 0.44164 0.0
C6158 C 0.87416 0.40348 0.48213 0.0
C6159 C 0.86816 0.40475 0.48788 0.0
C6160 C 0.88203 0.40221 0.48478 0.0
C6161 C 0.8838 0.40199 0.49292 0.0
C6162 C 0.87776 0.40298 0.49865 0.0
C6163 C 0.86993 0.40448 0.49603 0.0
C6164 C 0.89449 0.41177 0.44811 0.0
H6165 H 0.83736 0.38777 0.46397 0.0
H6166 H 0.84792 0.39672 0.4689 0.0
H6167 H 0.86395 0.38739 0.45098 0.0
H6168 H 0.8535 0.37877 0.44605 0.0
H6169 H 0.86119 0.39646 0.47544 0.0
H6170 H 0.86682 0.40124 0.451 0.0
H6171 H 0.88325 0.40819 0.46937 0.0
H6172 H 0.88844 0.41562 0.45873 0.0
H6173 H 0.87789 0.39589 0.44586 0.0
H6174 H 0.88802 0.39689 0.43587 0.0
H6175 H 0.86205 0.40586 0.48607 0.0
H6176 H 0.88682 0.4011 0.48058 0.0
H6177 H 0.89927 0.41604 0.44892 0.0
H6178 H 0.86512 0.40522 0.50028 0.0
H6179 H 0.88992 0.40094 0.49473 0.0
C6180 C 0.84768 0.40845 0.83355 0.0
C6181 C 0.85475 0.40764 0.83798 0.0
C6182 C 0.84618 0.4034 0.82702 0.0
C6183 C 0.85176 0.39752 0.82482 0.0
C6184 C 0.85896 0.397 0.82916 0.0
C6185 C 0.86037 0.40192 0.83569 0.0
C6186 C 0.85028 0.39178 0.81816 0.0
C6187 C 0.84678 0.39413 0.81089 0.0
C6188 C 0.84657 0.38885 0.80432 0.0
C6189 C 0.8501 0.38123 0.8051 0.0
C6190 C 0.8537 0.37887 0.81229 0.0
C6191 C 0.85322 0.38398 0.81887 0.0
C6192 C 0.85878 0.37156 0.81283 0.0
C6193 C 0.85686 0.36446 0.80879 0.0
C6194 C 0.86585 0.37179 0.81738 0.0
C6195 C 0.87067 0.36508 0.81815 0.0
C6196 C 0.86869 0.35796 0.81427 0.0
C6197 C 0.84342 0.39153 0.7964 0.0
C6198 C 0.83665 0.3965 0.7958 0.0
C6199 C 0.84737 0.3893 0.78934 0.0
C6200 C 0.84478 0.39208 0.78194 0.0
C6201 C 0.83819 0.39722 0.78135 0.0
C6202 C 0.83404 0.39929 0.78833 0.0
C6203 C 0.8618 0.35772 0.80947 0.0
H6204 H 0.84328 0.41287 0.83523 0.0
H6205 H 0.8406 0.40398 0.82382 0.0
H6206 H 0.86356 0.39278 0.82751 0.0
H6207 H 0.86591 0.40126 0.83897 0.0
H6208 H 0.84464 0.40018 0.8102 0.0
H6209 H 0.85554 0.38198 0.82457 0.0
H6210 H 0.8503 0.37724 0.80004 0.0
H6211 H 0.8515 0.36405 0.80521 0.0
H6212 H 0.86775 0.37721 0.82033 0.0
H6213 H 0.87604 0.36552 0.82172 0.0
H6214 H 0.83342 0.39829 0.8011 0.0
H6215 H 0.85267 0.38562 0.7895 0.0
H6216 H 0.86015 0.35229 0.8064 0.0
H6217 H 0.82898 0.4033 0.78805 0.0
H6218 H 0.84808 0.39038 0.77665 0.0
C6219 C 0.84355 0.62961 0.05598 0.0
C6220 C 0.84495 0.63464 0.06255 0.0
C6221 C 0.84964 0.62462 0.05309 0.0
C6222 C 0.85723 0.62464 0.05669 0.0
C6223 C 0.85865 0.62994 0.06303 0.0
C6224 C 0.8526 0.6348 0.06595 0.0
C6225 C 0.8638 0.61927 0.054 0.0
C6226 C 0.86547 0.61805 0.04587 0.0
C6227 C 0.8725 0.61406 0.04346 0.0
C6228 C 0.87792 0.61141 0.04936 0.0
C6229 C 0.87634 0.61267 0.05749 0.0
C6230 C 0.86905 0.61613 0.0597 0.0
C6231 C 0.88265 0.61167 0.06367 0.0
C6232 C 0.88775 0.605 0.0639 0.0
C6233 C 0.88374 0.61775 0.06935 0.0
C6234 C 0.88974 0.61724 0.07504 0.0
C6235 C 0.89493 0.61069 0.07523 0.0
C6236 C 0.87455 0.61348 0.03481 0.0
C6237 C 0.86861 0.612 0.02905 0.0
C6238 C 0.88241 0.61482 0.03218 0.0
C6239 C 0.88424 0.61493 0.02404 0.0
C6240 C 0.87826 0.61371 0.01829 0.0
C6241 C 0.87045 0.6121 0.0209 0.0
C6242 C 0.89382 0.60448 0.06968 0.0
H6243 H 0.83771 0.62942 0.05322 0.0
H6244 H 0.84836 0.62065 0.04816 0.0
H6245 H 0.86449 0.63039 0.06577 0.0
H6246 H 0.85393 0.63878 0.07087 0.0
H6247 H 0.86157 0.62066 0.04143 0.0
H6248 H 0.86771 0.61684 0.06598 0.0
H6249 H 0.88352 0.6087 0.04762 0.0
H6250 H 0.88706 0.60022 0.05961 0.0
H6251 H 0.88005 0.62305 0.06928 0.0
H6252 H 0.89039 0.62208 0.07928 0.0
H6253 H 0.8625 0.61086 0.03085 0.0
H6254 H 0.88714 0.61609 0.03639 0.0
H6255 H 0.89776 0.59937 0.06967 0.0
H6256 H 0.86568 0.6112 0.01662 0.0
H6257 H 0.89034 0.6161 0.02225 0.0
C6258 C 0.65 0.65456 0.30755 0.0
C6259 C 0.65018 0.65917 0.31456 0.0
C6260 C 0.65498 0.64793 0.30669 0.0
C6261 C 0.6602 0.64569 0.31285 0.0
C6262 C 0.66062 0.65045 0.31973 0.0
C6263 C 0.65571 0.65714 0.32055 0.0
C6264 C 0.66459 0.63801 0.3124 0.0
C6265 C 0.66855 0.63574 0.3054 0.0
C6266 C 0.67166 0.62796 0.30444 0.0
C6267 C 0.67116 0.62266 0.31101 0.0
C6268 C 0.66755 0.62501 0.31826 0.0
C6269 C 0.66419 0.63266 0.31879 0.0
C6270 C 0.66675 0.61942 0.32517 0.0
C6271 C 0.66519 0.61126 0.32402 0.0
C6272 C 0.66696 0.62236 0.33304 0.0
C6273 C 0.66513 0.61743 0.3395 0.0
C6274 C 0.66321 0.60934 0.33834 0.0
C6275 C 0.67494 0.62532 0.29647 0.0
C6276 C 0.67272 0.62929 0.28939 0.0
C6277 C 0.68009 0.61869 0.29573 0.0
C6278 C 0.68257 0.61595 0.28821 0.0
C6279 C 0.68022 0.61991 0.28117 0.0
C6280 C 0.67548 0.62679 0.28196 0.0
C6281 C 0.66351 0.60628 0.33052 0.0
H6282 H 0.64578 0.65585 0.30283 0.0
H6283 H 0.65447 0.64432 0.30136 0.0
H6284 H 0.66466 0.64891 0.32453 0.0
H6285 H 0.6562 0.66065 0.32594 0.0
H6286 H 0.6691 0.64014 0.30073 0.0
H6287 H 0.66087 0.63435 0.32407 0.0
H6288 H 0.67343 0.61666 0.31052 0.0
H6289 H 0.66493 0.60875 0.31808 0.0
H6290 H 0.66833 0.62856 0.33421 0.0
H6291 H 0.66491 0.62009 0.34538 0.0
H6292 H 0.66864 0.63428 0.28942 0.0
H6293 H 0.68221 0.6155 0.30092 0.0
H6294 H 0.66228 0.60006 0.32937 0.0
H6295 H 0.67373 0.63026 0.27681 0.0
H6296 H 0.68618 0.61061 0.28797 0.0
C6297 C 0.67452 0.38761 0.55604 0.0
C6298 C 0.6732 0.38283 0.56282 0.0
C6299 C 0.66843 0.39259 0.55312 0.0
C6300 C 0.66093 0.3928 0.55691 0.0
C6301 C 0.65961 0.38781 0.56352 0.0
C6302 C 0.66566 0.38294 0.56645 0.0
C6303 C 0.65433 0.39804 0.55406 0.0
C6304 C 0.65245 0.3987 0.54594 0.0
C6305 C 0.64555 0.40285 0.54335 0.0
C6306 C 0.64023 0.40577 0.54925 0.0
C6307 C 0.64189 0.4048 0.55745 0.0
C6308 C 0.6493 0.40162 0.55966 0.0
C6309 C 0.63564 0.40591 0.56375 0.0
C6310 C 0.6296 0.41173 0.56321 0.0
C6311 C 0.63549 0.40064 0.5703 0.0
C6312 C 0.62959 0.40115 0.5761 0.0
C6313 C 0.62338 0.40672 0.57545 0.0
C6314 C 0.64376 0.40355 0.53455 0.0
C6315 C 0.64991 0.40283 0.52886 0.0
C6316 C 0.63593 0.40471 0.53165 0.0
C6317 C 0.63433 0.40493 0.52344 0.0
C6318 C 0.64043 0.40369 0.51778 0.0
C6319 C 0.64826 0.40266 0.52069 0.0
C6320 C 0.62352 0.41212 0.569 0.0
H6321 H 0.68027 0.3876 0.5531 0.0
H6322 H 0.66962 0.39634 0.548 0.0
H6323 H 0.65384 0.38758 0.56643 0.0
H6324 H 0.66439 0.37916 0.57154 0.0
H6325 H 0.65619 0.39557 0.54173 0.0
H6326 H 0.65094 0.4014 0.56591 0.0
H6327 H 0.63467 0.40855 0.54756 0.0
H6328 H 0.62951 0.41593 0.55831 0.0
H6329 H 0.63981 0.39589 0.57091 0.0
H6330 H 0.62985 0.39701 0.58105 0.0
H6331 H 0.65609 0.40228 0.53062 0.0
H6332 H 0.6309 0.40527 0.53565 0.0
H6333 H 0.61882 0.4165 0.56829 0.0
H6334 H 0.65322 0.40154 0.51673 0.0
H6335 H 0.62824 0.40599 0.5216 0.0
C6336 C 0.68414 0.84832 0.60909 0.0
C6337 C 0.68024 0.85572 0.60996 0.0
C6338 C 0.69042 0.84616 0.61427 0.0
C6339 C 0.69284 0.85134 0.62042 0.0
C6340 C 0.68888 0.85871 0.62119 0.0
C6341 C 0.68263 0.86078 0.61617 0.0
C6342 C 0.69942 0.84937 0.62613 0.0
C6343 C 0.70666 0.84586 0.62366 0.0
C6344 C 0.71331 0.84556 0.62888 0.0
C6345 C 0.71259 0.84898 0.63656 0.0
C6346 C 0.70545 0.85261 0.63899 0.0
C6347 C 0.6988 0.85218 0.63398 0.0
C6348 C 0.7051 0.85797 0.64605 0.0
C6349 C 0.70826 0.85578 0.6535 0.0
C6350 C 0.70152 0.86551 0.64524 0.0
C6351 C 0.70082 0.87062 0.65173 0.0
C6352 C 0.70368 0.86837 0.65927 0.0
C6353 C 0.72125 0.84257 0.62607 0.0
C6354 C 0.72193 0.83595 0.62093 0.0
C6355 C 0.72829 0.84654 0.62837 0.0
C6356 C 0.73572 0.84408 0.62555 0.0
C6357 C 0.7364 0.83763 0.62026 0.0
C6358 C 0.72944 0.83348 0.61807 0.0
C6359 C 0.70753 0.86093 0.66007 0.0
H6360 H 0.68245 0.84427 0.60436 0.0
H6361 H 0.69332 0.84044 0.6135 0.0
H6362 H 0.69065 0.86301 0.62567 0.0
H6363 H 0.67968 0.86644 0.61717 0.0
H6364 H 0.7073 0.84387 0.61755 0.0
H6365 H 0.6932 0.85465 0.63607 0.0
H6366 H 0.71767 0.84917 0.64054 0.0
H6367 H 0.7111 0.85003 0.65429 0.0
H6368 H 0.69926 0.8675 0.63952 0.0
H6369 H 0.69805 0.87638 0.65082 0.0
H6370 H 0.71666 0.8327 0.61907 0.0
H6371 H 0.72808 0.85175 0.63217 0.0
H6372 H 0.7098 0.859 0.6658 0.0
H6373 H 0.72976 0.82852 0.61396 0.0
H6374 H 0.74097 0.84736 0.6274 0.0
C6375 C 0.1843 0.66878 0.4084 0.0
C6376 C 0.18013 0.66158 0.40721 0.0
C6377 C 0.19054 0.67103 0.40322 0.0
C6378 C 0.19269 0.66611 0.39676 0.0
C6379 C 0.18847 0.65893 0.39566 0.0
C6380 C 0.18223 0.6568 0.40067 0.0
C6381 C 0.19932 0.66812 0.39112 0.0
C6382 C 0.20663 0.6714 0.39371 0.0
C6383 C 0.2133 0.67167 0.38853 0.0
C6384 C 0.21259 0.66833 0.38082 0.0
C6385 C 0.20539 0.66491 0.37826 0.0
C6386 C 0.19868 0.66556 0.38318 0.0
C6387 C 0.205 0.65962 0.37111 0.0
C6388 C 0.20921 0.66131 0.36405 0.0
C6389 C 0.20051 0.65253 0.3715 0.0
C6390 C 0.20005 0.64738 0.36501 0.0
C6391 C 0.2042 0.64904 0.35793 0.0
C6392 C 0.22125 0.6746 0.3914 0.0
C6393 C 0.22193 0.68118 0.39658 0.0
C6394 C 0.22828 0.67066 0.38904 0.0
C6395 C 0.23572 0.67312 0.39184 0.0
C6396 C 0.2364 0.67952 0.39719 0.0
C6397 C 0.22944 0.68363 0.39944 0.0
C6398 C 0.2088 0.65607 0.35752 0.0
H6399 H 0.18283 0.67261 0.41339 0.0
H6400 H 0.19365 0.67659 0.40426 0.0
H6401 H 0.19003 0.6548 0.39095 0.0
H6402 H 0.17907 0.65131 0.3994 0.0
H6403 H 0.20728 0.67326 0.39986 0.0
H6404 H 0.19299 0.66342 0.38098 0.0
H6405 H 0.21773 0.66806 0.37691 0.0
H6406 H 0.21275 0.66668 0.36353 0.0
H6407 H 0.19736 0.65086 0.37689 0.0
H6408 H 0.19635 0.64212 0.36554 0.0
H6409 H 0.21666 0.68441 0.39848 0.0
H6410 H 0.22808 0.66547 0.38521 0.0
H6411 H 0.21215 0.65751 0.35219 0.0
H6412 H 0.22976 0.68856 0.40359 0.0
H6413 H 0.24097 0.66986 0.38993 0.0
C6414 C 0.63021 0.96123 0.67447 0.0
C6415 C 0.63491 0.95438 0.67333 0.0
C6416 C 0.62515 0.96395 0.66837 0.0
C6417 C 0.6248 0.9599 0.66103 0.0
C6418 C 0.62973 0.95321 0.65988 0.0
C6419 C 0.63466 0.95047 0.66595 0.0
C6420 C 0.61959 0.96263 0.65437 0.0
C6421 C 0.61892 0.97072 0.65243 0.0
C6422 C 0.61492 0.97319 0.64545 0.0
C6423 C 0.61216 0.9673 0.64008 0.0
C6424 C 0.61304 0.95911 0.64183 0.0
C6425 C 0.61606 0.95698 0.64935 0.0
C6426 C 0.61187 0.95277 0.63561 0.0
C6427 C 0.60673 0.95376 0.62902 0.0
C6428 C 0.61645 0.94572 0.63598 0.0
C6429 C 0.61594 0.93993 0.63008 0.0
C6430 C 0.61116 0.94108 0.62331 0.0
C6431 C 0.61427 0.9819 0.64359 0.0
C6432 C 0.61397 0.98755 0.64983 0.0
C6433 C 0.61438 0.98473 0.63567 0.0
C6434 C 0.61453 0.99292 0.63406 0.0
C6435 C 0.61477 0.99842 0.64033 0.0
C6436 C 0.61437 0.9957 0.64821 0.0
C6437 C 0.60643 0.94803 0.62291 0.0
H6438 H 0.63035 0.96438 0.68011 0.0
H6439 H 0.62146 0.96914 0.66944 0.0
H6440 H 0.62987 0.95011 0.65421 0.0
H6441 H 0.63839 0.9453 0.66483 0.0
H6442 H 0.62189 0.97505 0.65618 0.0
H6443 H 0.61614 0.95079 0.65116 0.0
H6444 H 0.60955 0.96908 0.63447 0.0
H6445 H 0.603 0.959 0.62848 0.0
H6446 H 0.62073 0.94467 0.64069 0.0
H6447 H 0.61949 0.93458 0.63079 0.0
H6448 H 0.61358 0.9857 0.656 0.0
H6449 H 0.61471 0.98068 0.63066 0.0
H6450 H 0.60267 0.94917 0.61779 0.0
H6451 H 0.61447 0.99988 0.65313 0.0
H6452 H 0.61486 0.99493 0.62793 0.0
C6453 C 0.33409 0.34841 0.9085 0.0
C6454 C 0.33824 0.35562 0.90726 0.0
C6455 C 0.32785 0.34613 0.90336 0.0
C6456 C 0.32568 0.35101 0.89686 0.0
C6457 C 0.32988 0.35819 0.89571 0.0
C6458 C 0.33612 0.36037 0.9007 0.0
C6459 C 0.31905 0.34896 0.89124 0.0
C6460 C 0.31172 0.34576 0.89387 0.0
C6461 C 0.30505 0.34549 0.88869 0.0
C6462 C 0.30578 0.34879 0.88096 0.0
C6463 C 0.31301 0.35213 0.87836 0.0
C6464 C 0.31972 0.35143 0.88327 0.0
C6465 C 0.31343 0.35739 0.87117 0.0
C6466 C 0.30895 0.35587 0.86423 0.0
C6467 C 0.31818 0.36432 0.87141 0.0
C6468 C 0.31859 0.36948 0.86492 0.0
C6469 C 0.31413 0.36801 0.858 0.0
C6470 C 0.29709 0.34261 0.89157 0.0
C6471 C 0.29638 0.33607 0.89683 0.0
C6472 C 0.29006 0.34651 0.88914 0.0
C6473 C 0.28261 0.34406 0.8919 0.0
C6474 C 0.2819 0.33771 0.89732 0.0
C6475 C 0.28886 0.33364 0.89966 0.0
C6476 C 0.30929 0.36113 0.85772 0.0
H6477 H 0.33557 0.34461 0.91352 0.0
H6478 H 0.32475 0.34056 0.90444 0.0
H6479 H 0.32831 0.36228 0.89097 0.0
H6480 H 0.33926 0.36586 0.8994 0.0
H6481 H 0.31106 0.34396 0.90004 0.0
H6482 H 0.32544 0.35347 0.88106 0.0
H6483 H 0.30064 0.34906 0.87706 0.0
H6484 H 0.30522 0.35062 0.86381 0.0
H6485 H 0.32154 0.36589 0.8767 0.0
H6486 H 0.32249 0.37461 0.86534 0.0
H6487 H 0.30164 0.33287 0.89878 0.0
H6488 H 0.29028 0.35166 0.88525 0.0
H6489 H 0.30571 0.35984 0.85251 0.0
H6490 H 0.28852 0.32874 0.90387 0.0
H6491 H 0.27737 0.34727 0.8899 0.0
C6492 C 0.40586 0.56753 0.62085 0.0
C6493 C 0.4077 0.57536 0.62311 0.0
C6494 C 0.4052 0.56151 0.6266 0.0
C6495 C 0.40641 0.56322 0.63473 0.0
C6496 C 0.40868 0.57102 0.6369 0.0
C6497 C 0.40925 0.57705 0.63115 0.0
C6498 C 0.40458 0.5571 0.64096 0.0
C6499 C 0.40608 0.54895 0.63962 0.0
C6500 C 0.40352 0.54312 0.64511 0.0
C6501 C 0.39964 0.54559 0.65215 0.0
C6502 C 0.39823 0.55371 0.65367 0.0
C6503 C 0.40069 0.55939 0.64803 0.0
C6504 C 0.39368 0.55631 0.66086 0.0
C6505 C 0.38681 0.55218 0.66334 0.0
C6506 C 0.39585 0.5633 0.66494 0.0
C6507 C 0.39106 0.56631 0.67106 0.0
C6508 C 0.38395 0.56243 0.67325 0.0
C6509 C 0.4044 0.53444 0.6433 0.0
C6510 C 0.40323 0.53154 0.6355 0.0
C6511 C 0.4059 0.52891 0.64943 0.0
C6512 C 0.40584 0.52071 0.64789 0.0
C6513 C 0.40431 0.51781 0.64016 0.0
C6514 C 0.40322 0.52334 0.63395 0.0
C6515 C 0.382 0.5552 0.66947 0.0
H6516 H 0.4046 0.56614 0.61467 0.0
H6517 H 0.40334 0.55563 0.62469 0.0
H6518 H 0.40982 0.57253 0.64307 0.0
H6519 H 0.41069 0.58307 0.63299 0.0
H6520 H 0.40919 0.54713 0.63427 0.0
H6521 H 0.39917 0.5656 0.64896 0.0
H6522 H 0.39753 0.54119 0.65638 0.0
H6523 H 0.38491 0.54681 0.66029 0.0
H6524 H 0.40119 0.56655 0.66329 0.0
H6525 H 0.39284 0.57181 0.67395 0.0
H6526 H 0.40197 0.53559 0.63063 0.0
H6527 H 0.40702 0.53089 0.65547 0.0
H6528 H 0.37653 0.55209 0.67094 0.0
H6529 H 0.40196 0.52132 0.62795 0.0
H6530 H 0.40688 0.51664 0.65279 0.0
C6531 C 0.83428 0.16967 0.1093 0.0
C6532 C 0.83869 0.1626 0.11023 0.0
C6533 C 0.82762 0.17118 0.11419 0.0
C6534 C 0.82526 0.16558 0.12 0.0
C6535 C 0.82953 0.15836 0.12058 0.0
C6536 C 0.83619 0.15696 0.11585 0.0
C6537 C 0.81854 0.16712 0.12565 0.0
C6538 C 0.81133 0.17068 0.1232 0.0
C6539 C 0.80473 0.17115 0.12845 0.0
C6540 C 0.80545 0.1678 0.13617 0.0
C6541 C 0.81254 0.16405 0.13857 0.0
C6542 C 0.81915 0.16424 0.13348 0.0
C6543 C 0.81289 0.15899 0.14587 0.0
C6544 C 0.80945 0.16137 0.15314 0.0
C6545 C 0.81667 0.1515 0.14547 0.0
C6546 C 0.81714 0.14659 0.15214 0.0
C6547 C 0.81377 0.14894 0.15943 0.0
C6548 C 0.7969 0.17452 0.12569 0.0
C6549 C 0.79658 0.1808 0.12011 0.0
C6550 C 0.78964 0.17132 0.12848 0.0
C6551 C 0.78232 0.17427 0.12577 0.0
C6552 C 0.782 0.18044 0.1201 0.0
C6553 C 0.78923 0.18369 0.11732 0.0
C6554 C 0.80991 0.1564 0.15987 0.0
H6555 H 0.8361 0.17409 0.10495 0.0
H6556 H 0.82447 0.17678 0.11356 0.0
H6557 H 0.82774 0.15375 0.12474 0.0
H6558 H 0.83942 0.1514 0.11657 0.0
H6559 H 0.81074 0.17268 0.11709 0.0
H6560 H 0.82474 0.16173 0.13553 0.0
H6561 H 0.80043 0.16784 0.14022 0.0
H6562 H 0.80649 0.16708 0.15364 0.0
H6563 H 0.81924 0.14938 0.13993 0.0
H6564 H 0.82027 0.14096 0.15159 0.0
H6565 H 0.802 0.18353 0.11789 0.0
H6566 H 0.78953 0.16634 0.13258 0.0
H6567 H 0.8072 0.15836 0.16539 0.0
H6568 H 0.78922 0.18849 0.113 0.0
H6569 H 0.7769 0.17149 0.12793 0.0
C6570 C 0.63018 0.05596 0.84347 0.0
C6571 C 0.6352 0.06254 0.84486 0.0
C6572 C 0.62526 0.053 0.84959 0.0
C6573 C 0.62534 0.05656 0.8572 0.0
C6574 C 0.63062 0.06293 0.85859 0.0
C6575 C 0.63543 0.0659 0.85252 0.0
C6576 C 0.62003 0.05382 0.86378 0.0
C6577 C 0.61894 0.04569 0.86549 0.0
C6578 C 0.61482 0.04322 0.87243 0.0
C6579 C 0.61205 0.04913 0.87779 0.0
C6580 C 0.61325 0.0573 0.87622 0.0
C6581 C 0.61674 0.0595 0.86895 0.0
C6582 C 0.61181 0.06358 0.88242 0.0
C6583 C 0.60555 0.063 0.88801 0.0
C6584 C 0.61707 0.07013 0.88298 0.0
C6585 C 0.61612 0.07591 0.88888 0.0
C6586 C 0.61001 0.07522 0.89451 0.0
C6587 C 0.61406 0.0345 0.87436 0.0
C6588 C 0.61346 0.02876 0.86823 0.0
C6589 C 0.61437 0.03176 0.88231 0.0
C6590 C 0.61441 0.02358 0.88404 0.0
C6591 C 0.61415 0.01795 0.87788 0.0
C6592 C 0.61357 0.02059 0.86997 0.0
C6593 C 0.60471 0.06874 0.89406 0.0
H6594 H 0.62994 0.05322 0.83762 0.0
H6595 H 0.62129 0.04806 0.84833 0.0
H6596 H 0.63107 0.06565 0.86443 0.0
H6597 H 0.6394 0.07082 0.85385 0.0
H6598 H 0.62171 0.04131 0.86164 0.0
H6599 H 0.61727 0.06576 0.86744 0.0
H6600 H 0.60919 0.04738 0.8833 0.0
H6601 H 0.60135 0.05811 0.88777 0.0
H6602 H 0.62216 0.0707 0.87904 0.0
H6603 H 0.62038 0.08075 0.88924 0.0
H6604 H 0.61305 0.03057 0.86204 0.0
H6605 H 0.61497 0.03588 0.88723 0.0
H6606 H 0.6 0.06808 0.89843 0.0
H6607 H 0.61344 0.01633 0.86512 0.0
H6608 H 0.61495 0.02165 0.89019 0.0
C6609 C 0.9047 0.95022 0.39668 0.0
C6610 C 0.90734 0.9425 0.3948 0.0
C6611 C 0.90432 0.95612 0.39081 0.0
C6612 C 0.90652 0.95443 0.3829 0.0
C6613 C 0.90954 0.9468 0.3811 0.0
C6614 C 0.91 0.9409 0.38702 0.0
C6615 C 0.90489 0.96036 0.37649 0.0
C6616 C 0.9063 0.96853 0.37774 0.0
C6617 C 0.90365 0.97429 0.37221 0.0
C6618 C 0.89974 0.97167 0.36524 0.0
C6619 C 0.89844 0.96351 0.36378 0.0
C6620 C 0.90106 0.95792 0.36945 0.0
C6621 C 0.8938 0.96081 0.35669 0.0
C6622 C 0.8869 0.96493 0.35423 0.0
C6623 C 0.89595 0.9538 0.35263 0.0
C6624 C 0.89113 0.95077 0.34654 0.0
C6625 C 0.88401 0.95466 0.34435 0.0
C6626 C 0.90442 0.98302 0.37395 0.0
C6627 C 0.90379 0.98593 0.38181 0.0
C6628 C 0.90531 0.98858 0.36771 0.0
C6629 C 0.9051 0.99678 0.36924 0.0
C6630 C 0.90412 0.99966 0.37705 0.0
C6631 C 0.9037 0.99414 0.38334 0.0
C6632 C 0.88207 0.96189 0.34813 0.0
H6633 H 0.90269 0.95163 0.40265 0.0
H6634 H 0.90191 0.9619 0.39239 0.0
H6635 H 0.91135 0.94533 0.37508 0.0
H6636 H 0.91206 0.93499 0.38542 0.0
H6637 H 0.90938 0.97039 0.3831 0.0
H6638 H 0.89968 0.95166 0.36861 0.0
H6639 H 0.89749 0.97599 0.36099 0.0
H6640 H 0.88501 0.9703 0.35727 0.0
H6641 H 0.9013 0.95056 0.35426 0.0
H6642 H 0.89289 0.94527 0.34365 0.0
H6643 H 0.90299 0.98191 0.38679 0.0
H6644 H 0.90606 0.98663 0.36161 0.0
H6645 H 0.8766 0.96501 0.34668 0.0
H6646 H 0.90289 0.99617 0.38942 0.0
H6647 H 0.90559 1.00087 0.36427 0.0
C6648 C 0.40992 0.32962 0.16253 0.0
C6649 C 0.40697 0.33743 0.16239 0.0
C6650 C 0.40492 0.32327 0.16459 0.0
C6651 C 0.39686 0.32463 0.16651 0.0
C6652 C 0.39404 0.33253 0.16674 0.0
C6653 C 0.39905 0.33888 0.16466 0.0
C6654 C 0.39126 0.3178 0.16743 0.0
C6655 C 0.3936 0.31084 0.17145 0.0
C6656 C 0.38873 0.30399 0.17145 0.0
C6657 C 0.38128 0.30429 0.16756 0.0
C6658 C 0.37877 0.31127 0.1636 0.0
C6659 C 0.38382 0.31796 0.16359 0.0
C6660 C 0.37124 0.31148 0.15887 0.0
C6661 C 0.3691 0.30508 0.1539 0.0
C6662 C 0.3665 0.3184 0.15878 0.0
C6663 C 0.36 0.31905 0.1536 0.0
C6664 C 0.35806 0.3128 0.14835 0.0
C6665 C 0.3918 0.29635 0.17483 0.0
C6666 C 0.39981 0.29417 0.1736 0.0
C6667 C 0.38675 0.29098 0.17888 0.0
C6668 C 0.38959 0.2835 0.18135 0.0
C6669 C 0.3975 0.28124 0.17974 0.0
C6670 C 0.40261 0.28673 0.17603 0.0
C6671 C 0.36259 0.30573 0.1487 0.0
H6672 H 0.41598 0.32839 0.16062 0.0
H6673 H 0.40726 0.31726 0.16422 0.0
H6674 H 0.38788 0.33379 0.16827 0.0
H6675 H 0.39664 0.34487 0.16448 0.0
H6676 H 0.39931 0.31071 0.17448 0.0
H6677 H 0.38215 0.32318 0.16017 0.0
H6678 H 0.37754 0.29903 0.16739 0.0
H6679 H 0.37267 0.2997 0.15375 0.0
H6680 H 0.36789 0.32339 0.16264 0.0
H6681 H 0.35652 0.32449 0.15367 0.0
H6682 H 0.40387 0.29807 0.17042 0.0
H6683 H 0.38057 0.2925 0.18001 0.0
H6684 H 0.36133 0.30081 0.14473 0.0
H6685 H 0.40875 0.28515 0.17475 0.0
H6686 H 0.38552 0.27935 0.18418 0.0
C6687 C 0.45029 0.62298 0.91044 0.0
C6688 C 0.44384 0.62289 0.90504 0.0
C6689 C 0.45597 0.62916 0.9102 0.0
C6690 C 0.45529 0.63536 0.90456 0.0
C6691 C 0.44871 0.63528 0.89933 0.0
C6692 C 0.44305 0.62924 0.89965 0.0
C6693 C 0.46146 0.64175 0.90368 0.0
C6694 C 0.46968 0.64007 0.90426 0.0
C6695 C 0.47545 0.64577 0.90192 0.0
C6696 C 0.47279 0.65312 0.8987 0.0
C6697 C 0.46461 0.65474 0.89786 0.0
C6698 C 0.4591 0.64932 0.90103 0.0
C6699 C 0.46167 0.66127 0.89255 0.0
C6700 C 0.46525 0.66887 0.89227 0.0
C6701 C 0.45531 0.65966 0.88731 0.0
C6702 C 0.45244 0.66548 0.88214 0.0
C6703 C 0.45585 0.67312 0.88195 0.0
C6704 C 0.48418 0.64377 0.90206 0.0
C6705 C 0.48744 0.63865 0.90791 0.0
C6706 C 0.48935 0.64684 0.89618 0.0
C6707 C 0.49747 0.64504 0.89624 0.0
C6708 C 0.50072 0.63997 0.90207 0.0
C6709 C 0.4956 0.63672 0.90787 0.0
C6710 C 0.46237 0.67474 0.887 0.0
H6711 H 0.45109 0.61817 0.91467 0.0
H6712 H 0.46091 0.62904 0.91435 0.0
H6713 H 0.44801 0.63976 0.89474 0.0
H6714 H 0.43808 0.62949 0.89552 0.0
H6715 H 0.47157 0.63415 0.90604 0.0
H6716 H 0.4528 0.6508 0.90082 0.0
H6717 H 0.47704 0.65745 0.89652 0.0
H6718 H 0.4702 0.67029 0.89617 0.0
H6719 H 0.45259 0.65381 0.88707 0.0
H6720 H 0.44758 0.66392 0.87817 0.0
H6721 H 0.48372 0.6362 0.91258 0.0
H6722 H 0.48714 0.65054 0.89138 0.0
H6723 H 0.46515 0.68057 0.88696 0.0
H6724 H 0.49794 0.63281 0.91245 0.0
H6725 H 0.50121 0.64751 0.89158 0.0
C6726 C 0.10796 0.68806 0.66219 0.0
C6727 C 0.11076 0.68018 0.66231 0.0
C6728 C 0.11302 0.69434 0.66428 0.0
C6729 C 0.121 0.69285 0.66643 0.0
C6730 C 0.12366 0.6849 0.66691 0.0
C6731 C 0.11857 0.67861 0.66487 0.0
C6732 C 0.1267 0.69957 0.66734 0.0
C6733 C 0.12456 0.70646 0.67153 0.0
C6734 C 0.12956 0.7132 0.67159 0.0
C6735 C 0.13705 0.71276 0.66776 0.0
C6736 C 0.13936 0.70585 0.66354 0.0
C6737 C 0.13403 0.69935 0.66332 0.0
C6738 C 0.14701 0.70545 0.65886 0.0
C6739 C 0.15051 0.7123 0.65549 0.0
C6740 C 0.15063 0.69804 0.65729 0.0
C6741 C 0.15707 0.69741 0.65206 0.0
C6742 C 0.16049 0.70422 0.64849 0.0
C6743 C 0.12653 0.7209 0.6749 0.0
C6744 C 0.11851 0.72305 0.67366 0.0
C6745 C 0.13158 0.72633 0.67885 0.0
C6746 C 0.12873 0.73384 0.68122 0.0
C6747 C 0.1208 0.73607 0.67962 0.0
C6748 C 0.11568 0.7305 0.67603 0.0
C6749 C 0.15722 0.71171 0.65052 0.0
H6750 H 0.10199 0.68937 0.6601 0.0
H6751 H 0.11083 0.70039 0.66376 0.0
H6752 H 0.12976 0.68358 0.66858 0.0
H6753 H 0.12085 0.67257 0.66488 0.0
H6754 H 0.11887 0.70662 0.67461 0.0
H6755 H 0.13533 0.69421 0.65965 0.0
H6756 H 0.14093 0.71791 0.66786 0.0
H6757 H 0.14798 0.71815 0.65647 0.0
H6758 H 0.14842 0.6926 0.65997 0.0
H6759 H 0.15915 0.69147 0.65072 0.0
H6760 H 0.11443 0.71913 0.67054 0.0
H6761 H 0.13776 0.72483 0.67999 0.0
H6762 H 0.15973 0.71719 0.64823 0.0
H6763 H 0.10951 0.732 0.6748 0.0
H6764 H 0.1328 0.73803 0.68397 0.0
C6765 C 0.05469 0.34774 0.38041 0.0
C6766 C 0.06183 0.34373 0.38222 0.0
C6767 C 0.05171 0.35363 0.38552 0.0
C6768 C 0.05581 0.35569 0.39254 0.0
C6769 C 0.06278 0.35146 0.39452 0.0
C6770 C 0.06572 0.34553 0.38945 0.0
C6771 C 0.05313 0.36261 0.39743 0.0
C6772 C 0.04498 0.36394 0.3988 0.0
C6773 C 0.04226 0.37109 0.40228 0.0
C6774 C 0.04794 0.37673 0.40485 0.0
C6775 C 0.05617 0.37542 0.40372 0.0
C6776 C 0.05868 0.36833 0.40001 0.0
C6777 C 0.0621 0.38181 0.40548 0.0
C6778 C 0.0604 0.3898 0.40357 0.0
C6779 C 0.06978 0.3799 0.40835 0.0
C6780 C 0.07572 0.38576 0.40884 0.0
C6781 C 0.07409 0.39361 0.40647 0.0
C6782 C 0.03353 0.37295 0.40249 0.0
C6783 C 0.02855 0.3703 0.39627 0.0
C6784 C 0.03012 0.37761 0.40861 0.0
C6785 C 0.02197 0.37955 0.40848 0.0
C6786 C 0.01704 0.37677 0.4023 0.0
C6787 C 0.02044 0.37214 0.39621 0.0
C6788 C 0.06634 0.39563 0.40402 0.0
H6789 H 0.05158 0.34663 0.37487 0.0
H6790 H 0.04638 0.35684 0.38375 0.0
H6791 H 0.06602 0.35283 0.39994 0.0
H6792 H 0.07115 0.34246 0.39113 0.0
H6793 H 0.04073 0.35944 0.39695 0.0
H6794 H 0.06495 0.36749 0.39865 0.0
H6795 H 0.04595 0.3823 0.40744 0.0
H6796 H 0.05461 0.3915 0.40126 0.0
H6797 H 0.07126 0.37383 0.40997 0.0
H6798 H 0.08167 0.38409 0.41072 0.0
H6799 H 0.03092 0.36695 0.39129 0.0
H6800 H 0.03372 0.37972 0.41353 0.0
H6801 H 0.06498 0.40166 0.40216 0.0
H6802 H 0.01685 0.37004 0.39126 0.0
H6803 H 0.0195 0.38312 0.41326 0.0
C6804 C 0.41029 0.68729 0.35442 0.0
C6805 C 0.40701 0.67964 0.35528 0.0
C6806 C 0.40541 0.69374 0.35233 0.0
C6807 C 0.39718 0.69263 0.351 0.0
C6808 C 0.39409 0.68483 0.35123 0.0
C6809 C 0.39894 0.67842 0.35342 0.0
C6810 C 0.39168 0.69959 0.35031 0.0
C6811 C 0.39393 0.70656 0.34623 0.0
C6812 C 0.38907 0.71343 0.34636 0.0
C6813 C 0.3817 0.7131 0.35044 0.0
C6814 C 0.37926 0.70612 0.35442 0.0
C6815 C 0.38434 0.69946 0.35436 0.0
C6816 C 0.37169 0.70581 0.3591 0.0
C6817 C 0.36925 0.7123 0.36382 0.0
C6818 C 0.36712 0.69876 0.35933 0.0
C6819 C 0.36055 0.69809 0.36442 0.0
C6820 C 0.35832 0.70445 0.3694 0.0
C6821 C 0.39192 0.72109 0.34273 0.0
C6822 C 0.40009 0.72312 0.34288 0.0
C6823 C 0.38649 0.72667 0.33954 0.0
C6824 C 0.3891 0.73418 0.33696 0.0
C6825 C 0.39721 0.73621 0.33736 0.0
C6826 C 0.4027 0.73057 0.34018 0.0
C6827 C 0.36264 0.71163 0.3689 0.0
H6828 H 0.41649 0.68836 0.35589 0.0
H6829 H 0.40798 0.69966 0.35227 0.0
H6830 H 0.38784 0.68371 0.35005 0.0
H6831 H 0.3963 0.67255 0.35401 0.0
H6832 H 0.39951 0.70662 0.34297 0.0
H6833 H 0.38274 0.69427 0.35786 0.0
H6834 H 0.37793 0.71832 0.35071 0.0
H6835 H 0.37264 0.71779 0.36387 0.0
H6836 H 0.3687 0.6937 0.35564 0.0
H6837 H 0.35725 0.69254 0.36448 0.0
H6838 H 0.40447 0.71911 0.34541 0.0
H6839 H 0.38019 0.72532 0.33914 0.0
H6840 H 0.36112 0.71665 0.37266 0.0
H6841 H 0.40897 0.73208 0.34064 0.0
H6842 H 0.38477 0.73849 0.33485 0.0
C6843 C 0.05467 0.66999 0.13612 0.0
C6844 C 0.06229 0.67327 0.13487 0.0
C6845 C 0.05168 0.66414 0.13097 0.0
C6846 C 0.05621 0.66145 0.12443 0.0
C6847 C 0.06363 0.66506 0.12294 0.0
C6848 C 0.06663 0.6709 0.12808 0.0
C6849 C 0.05352 0.65443 0.11966 0.0
C6850 C 0.04542 0.65331 0.11788 0.0
C6851 C 0.04258 0.64605 0.1147 0.0
C6852 C 0.04823 0.64015 0.11261 0.0
C6853 C 0.05646 0.64131 0.11396 0.0
C6854 C 0.05898 0.64843 0.1176 0.0
C6855 C 0.06241 0.63486 0.11233 0.0
C6856 C 0.06052 0.6268 0.11377 0.0
C6857 C 0.07027 0.63676 0.10996 0.0
C6858 C 0.07615 0.63086 0.10951 0.0
C6859 C 0.07428 0.62292 0.11132 0.0
C6860 C 0.03375 0.64436 0.11441 0.0
C6861 C 0.02857 0.64812 0.11986 0.0
C6862 C 0.03043 0.63865 0.10917 0.0
C6863 C 0.02233 0.6365 0.10969 0.0
C6864 C 0.01733 0.64008 0.1154 0.0
C6865 C 0.02051 0.64611 0.12025 0.0
C6866 C 0.0664 0.6209 0.11326 0.0
H6867 H 0.0512 0.6716 0.14132 0.0
H6868 H 0.04598 0.66143 0.13238 0.0
H6869 H 0.06722 0.66325 0.11788 0.0
H6870 H 0.07245 0.67342 0.12685 0.0
H6871 H 0.04131 0.65812 0.11918 0.0
H6872 H 0.06519 0.64911 0.11927 0.0
H6873 H 0.04624 0.63453 0.11016 0.0
H6874 H 0.0546 0.62507 0.1157 0.0
H6875 H 0.07193 0.64287 0.10865 0.0
H6876 H 0.08222 0.63252 0.10802 0.0
H6877 H 0.03071 0.65242 0.12416 0.0
H6878 H 0.03408 0.63572 0.10473 0.0
H6879 H 0.06487 0.6148 0.11472 0.0
H6880 H 0.0168 0.64918 0.12456 0.0
H6881 H 0.02007 0.63186 0.10582 0.0
C6882 C 0.10868 0.32999 0.85473 0.0
C6883 C 0.11193 0.33771 0.85508 0.0
C6884 C 0.11349 0.32347 0.85269 0.0
C6885 C 0.12164 0.32456 0.85093 0.0
C6886 C 0.12471 0.33236 0.85073 0.0
C6887 C 0.11992 0.33885 0.85278 0.0
C6888 C 0.12709 0.31759 0.85014 0.0
C6889 C 0.12469 0.31065 0.84612 0.0
C6890 C 0.12952 0.30377 0.84612 0.0
C6891 C 0.13697 0.30401 0.85004 0.0
C6892 C 0.13951 0.31095 0.85401 0.0
C6893 C 0.13451 0.31767 0.85402 0.0
C6894 C 0.14706 0.31114 0.8587 0.0
C6895 C 0.14914 0.30479 0.86376 0.0
C6896 C 0.15188 0.31801 0.85867 0.0
C6897 C 0.1584 0.31866 0.86382 0.0
C6898 C 0.16028 0.31247 0.86917 0.0
C6899 C 0.12646 0.29617 0.84266 0.0
C6900 C 0.11844 0.294 0.84381 0.0
C6901 C 0.13154 0.29082 0.83863 0.0
C6902 C 0.12872 0.28335 0.83612 0.0
C6903 C 0.1208 0.28109 0.83765 0.0
C6904 C 0.11565 0.28657 0.84134 0.0
C6905 C 0.15567 0.30545 0.86895 0.0
H6906 H 0.10256 0.32892 0.8565 0.0
H6907 H 0.11094 0.31755 0.85295 0.0
H6908 H 0.13091 0.33342 0.84923 0.0
H6909 H 0.12255 0.34475 0.85283 0.0
H6910 H 0.119 0.31059 0.84306 0.0
H6911 H 0.13623 0.32288 0.85744 0.0
H6912 H 0.14068 0.29872 0.85022 0.0
H6913 H 0.14552 0.29945 0.864 0.0
H6914 H 0.15052 0.32295 0.85474 0.0
H6915 H 0.16194 0.32406 0.86364 0.0
H6916 H 0.11436 0.29789 0.84696 0.0
H6917 H 0.13773 0.29234 0.83756 0.0
H6918 H 0.15688 0.30057 0.873 0.0
H6919 H 0.10951 0.28497 0.84257 0.0
H6920 H 0.13281 0.27921 0.83332 0.0
C6921 C 0.45027 0.39395 0.60678 0.0
C6922 C 0.44398 0.39424 0.61234 0.0
C6923 C 0.45593 0.38775 0.60707 0.0
C6924 C 0.45536 0.38174 0.61291 0.0
C6925 C 0.44892 0.382 0.6183 0.0
C6926 C 0.44329 0.38806 0.61794 0.0
C6927 C 0.46151 0.37535 0.61381 0.0
C6928 C 0.46972 0.37702 0.61321 0.0
C6929 C 0.4755 0.37132 0.61557 0.0
C6930 C 0.47282 0.36399 0.61882 0.0
C6931 C 0.46464 0.36239 0.61971 0.0
C6932 C 0.45913 0.36781 0.61654 0.0
C6933 C 0.4617 0.35586 0.62503 0.0
C6934 C 0.46533 0.34829 0.62538 0.0
C6935 C 0.45527 0.35744 0.6302 0.0
C6936 C 0.45239 0.35161 0.63536 0.0
C6937 C 0.45587 0.34401 0.63563 0.0
C6938 C 0.48424 0.37333 0.61538 0.0
C6939 C 0.48743 0.37862 0.60964 0.0
C6940 C 0.48948 0.37011 0.62111 0.0
C6941 C 0.4976 0.37196 0.62102 0.0
C6942 C 0.50075 0.37724 0.61533 0.0
C6943 C 0.49557 0.38062 0.60968 0.0
C6944 C 0.46246 0.34242 0.63065 0.0
H6945 H 0.45098 0.39863 0.60238 0.0
H6946 H 0.46078 0.38772 0.6028 0.0
H6947 H 0.44832 0.37763 0.62302 0.0
H6948 H 0.43844 0.38798 0.62222 0.0
H6949 H 0.47159 0.38293 0.61141 0.0
H6950 H 0.45283 0.36637 0.61679 0.0
H6951 H 0.47706 0.35965 0.621 0.0
H6952 H 0.47033 0.34688 0.62153 0.0
H6953 H 0.4525 0.36327 0.6304 0.0
H6954 H 0.44748 0.35314 0.63928 0.0
H6955 H 0.48367 0.38118 0.60506 0.0
H6956 H 0.48736 0.36627 0.62583 0.0
H6957 H 0.46529 0.33662 0.63075 0.0
H6958 H 0.49784 0.38469 0.6052 0.0
H6959 H 0.50141 0.36937 0.62555 0.0
C6960 C 0.16335 0.40947 0.32957 0.0
C6961 C 0.16254 0.40666 0.33744 0.0
C6962 C 0.16536 0.40427 0.32338 0.0
C6963 C 0.1667 0.39613 0.32489 0.0
C6964 C 0.16629 0.39339 0.33281 0.0
C6965 C 0.16421 0.39858 0.339 0.0
C6966 C 0.16778 0.39044 0.31813 0.0
C6967 C 0.17202 0.3927 0.31127 0.0
C6968 C 0.17193 0.38795 0.30433 0.0
C6969 C 0.16788 0.38058 0.30455 0.0
C6970 C 0.16387 0.37807 0.31148 0.0
C6971 C 0.16383 0.38306 0.31821 0.0
C6972 C 0.15909 0.37059 0.31162 0.0
C6973 C 0.15391 0.36869 0.3053 0.0
C6974 C 0.15919 0.36564 0.31839 0.0
C6975 C 0.15409 0.35907 0.31893 0.0
C6976 C 0.14871 0.35736 0.31275 0.0
C6977 C 0.17531 0.3911 0.2967 0.0
C6978 C 0.17465 0.39927 0.2949 0.0
C6979 C 0.17877 0.38602 0.29097 0.0
C6980 C 0.18115 0.38899 0.28351 0.0
C6981 C 0.18014 0.39711 0.28163 0.0
C6982 C 0.1771 0.40223 0.28752 0.0
C6983 C 0.14872 0.36217 0.30589 0.0
H6984 H 0.16227 0.41567 0.32815 0.0
H6985 H 0.16553 0.4066 0.31736 0.0
H6986 H 0.16738 0.38718 0.33421 0.0
H6987 H 0.1636 0.39616 0.34495 0.0
H6988 H 0.17525 0.39829 0.31127 0.0
H6989 H 0.1603 0.38139 0.32335 0.0
H6990 H 0.16762 0.3769 0.29925 0.0
H6991 H 0.15364 0.37242 0.30003 0.0
H6992 H 0.16315 0.36692 0.32334 0.0
H6993 H 0.15419 0.35545 0.32429 0.0
H6994 H 0.17192 0.4034 0.29905 0.0
H6995 H 0.17951 0.37973 0.29218 0.0
H6996 H 0.14468 0.36091 0.30101 0.0
H6997 H 0.17639 0.40854 0.28636 0.0
H6998 H 0.18348 0.38488 0.27911 0.0
C6999 C 0.3936 0.41077 0.06722 0.0
C7000 C 0.39385 0.40516 0.07347 0.0
C7001 C 0.38744 0.4105 0.06152 0.0
C7002 C 0.38143 0.40465 0.06203 0.0
C7003 C 0.38167 0.3992 0.06841 0.0
C7004 C 0.38771 0.39952 0.07407 0.0
C7005 C 0.37507 0.40377 0.05585 0.0
C7006 C 0.37681 0.40431 0.04766 0.0
C7007 C 0.37117 0.40192 0.04186 0.0
C7008 C 0.36384 0.39861 0.04451 0.0
C7009 C 0.36218 0.39776 0.05268 0.0
C7010 C 0.36752 0.40105 0.0582 0.0
C7011 C 0.35573 0.39236 0.05564 0.0
C7012 C 0.34818 0.39186 0.05198 0.0
C7013 C 0.35736 0.38729 0.06214 0.0
C7014 C 0.3516 0.38209 0.06507 0.0
C7015 C 0.34401 0.38168 0.06156 0.0
C7016 C 0.37325 0.40215 0.03314 0.0
C7017 C 0.3787 0.40781 0.03006 0.0
C7018 C 0.36997 0.39655 0.0278 0.0
C7019 C 0.37194 0.39668 0.01971 0.0
C7020 C 0.37741 0.40226 0.0167 0.0
C7021 C 0.38083 0.40779 0.02196 0.0
C7022 C 0.34237 0.38654 0.0549 0.0
H7023 H 0.39826 0.4152 0.0666 0.0
H7024 H 0.38742 0.41481 0.0567 0.0
H7025 H 0.37731 0.39447 0.06895 0.0
H7026 H 0.38762 0.3952 0.07888 0.0
H7027 H 0.38275 0.4061 0.04586 0.0
H7028 H 0.36604 0.40084 0.06449 0.0
H7029 H 0.35953 0.39637 0.04026 0.0
H7030 H 0.34673 0.39562 0.04693 0.0
H7031 H 0.36318 0.38721 0.06493 0.0
H7032 H 0.35316 0.37827 0.07004 0.0
H7033 H 0.38129 0.41232 0.03387 0.0
H7034 H 0.36599 0.39189 0.02981 0.0
H7035 H 0.33658 0.38631 0.05205 0.0
H7036 H 0.38504 0.41219 0.01979 0.0
H7037 H 0.36929 0.39226 0.01581 0.0
C7038 C 0.35677 0.60847 0.83014 0.0
C7039 C 0.355 0.6109 0.838 0.0
C7040 C 0.35493 0.61333 0.82362 0.0
C7041 C 0.35145 0.62085 0.82478 0.0
C7042 C 0.34939 0.62322 0.83252 0.0
C7043 C 0.351 0.61825 0.83903 0.0
C7044 C 0.35068 0.62644 0.81798 0.0
C7045 C 0.34686 0.62407 0.81093 0.0
C7046 C 0.34699 0.62896 0.8041 0.0
C7047 C 0.35099 0.63636 0.8045 0.0
C7048 C 0.35477 0.63885 0.81156 0.0
C7049 C 0.35449 0.63387 0.8183 0.0
C7050 C 0.35955 0.64633 0.81182 0.0
C7051 C 0.36479 0.64829 0.80556 0.0
C7052 C 0.35933 0.65128 0.81858 0.0
C7053 C 0.36437 0.6579 0.81917 0.0
C7054 C 0.36979 0.65969 0.81303 0.0
C7055 C 0.34343 0.62613 0.79643 0.0
C7056 C 0.3438 0.61801 0.79432 0.0
C7057 C 0.33992 0.63151 0.79101 0.0
C7058 C 0.33713 0.62889 0.7836 0.0
C7059 C 0.33768 0.6208 0.78144 0.0
C7060 C 0.34093 0.61538 0.78695 0.0
C7061 C 0.36989 0.65488 0.80618 0.0
H7062 H 0.35995 0.60299 0.82896 0.0
H7063 H 0.35663 0.61141 0.8177 0.0
H7064 H 0.34663 0.62897 0.83355 0.0
H7065 H 0.34922 0.6203 0.84488 0.0
H7066 H 0.34385 0.61836 0.8108 0.0
H7067 H 0.35767 0.63555 0.82367 0.0
H7068 H 0.35135 0.64011 0.79925 0.0
H7069 H 0.36516 0.64457 0.80029 0.0
H7070 H 0.35531 0.64998 0.82348 0.0
H7071 H 0.36417 0.66149 0.82453 0.0
H7072 H 0.34658 0.61368 0.79821 0.0
H7073 H 0.33937 0.63777 0.79247 0.0
H7074 H 0.37395 0.65618 0.80132 0.0
H7075 H 0.34157 0.60914 0.78545 0.0
H7076 H 0.33456 0.6332 0.77953 0.0
C7077 C 0.17004 0.63682 0.55437 0.0
C7078 C 0.1738 0.6352 0.5617 0.0
C7079 C 0.16412 0.63173 0.55141 0.0
C7080 C 0.16179 0.6249 0.5557 0.0
C7081 C 0.1658 0.62308 0.56284 0.0
C7082 C 0.17174 0.62815 0.56578 0.0
C7083 C 0.15482 0.62006 0.55305 0.0
C7084 C 0.15357 0.6185 0.54492 0.0
C7085 C 0.14645 0.61496 0.54221 0.0
C7086 C 0.1407 0.61258 0.54786 0.0
C7087 C 0.14188 0.61396 0.55607 0.0
C7088 C 0.14898 0.61768 0.55858 0.0
C7089 C 0.13539 0.61239 0.56197 0.0
C7090 C 0.12742 0.6143 0.56011 0.0
C7091 C 0.13716 0.60969 0.56973 0.0
C7092 C 0.13119 0.60928 0.57558 0.0
C7093 C 0.12336 0.61161 0.57376 0.0
C7094 C 0.14468 0.6146 0.53347 0.0
C7095 C 0.14703 0.62094 0.52849 0.0
C7096 C 0.14026 0.60829 0.5301 0.0
C7097 C 0.13808 0.60845 0.522 0.0
C7098 C 0.14021 0.61496 0.51718 0.0
C7099 C 0.14484 0.6211 0.52048 0.0
C7100 C 0.12149 0.61394 0.56595 0.0
H7101 H 0.17138 0.64223 0.55111 0.0
H7102 H 0.1611 0.63337 0.54594 0.0
H7103 H 0.16424 0.61781 0.56622 0.0
H7104 H 0.17462 0.62661 0.57135 0.0
H7105 H 0.15812 0.62023 0.54066 0.0
H7106 H 0.14973 0.61921 0.56481 0.0
H7107 H 0.13514 0.60997 0.54586 0.0
H7108 H 0.12583 0.61649 0.55425 0.0
H7109 H 0.14321 0.60809 0.57135 0.0
H7110 H 0.13275 0.6075 0.58159 0.0
H7111 H 0.1503 0.62598 0.53084 0.0
H7112 H 0.13841 0.60327 0.53372 0.0
H7113 H 0.11547 0.61578 0.56445 0.0
H7114 H 0.14665 0.62615 0.51687 0.0
H7115 H 0.13451 0.60364 0.51959 0.0
C7116 C 0.16381 0.60751 0.18764 0.0
C7117 C 0.16322 0.61051 0.17978 0.0
C7118 C 0.16542 0.61255 0.19409 0.0
C7119 C 0.16673 0.62074 0.19289 0.0
C7120 C 0.16675 0.62367 0.18505 0.0
C7121 C 0.16492 0.61869 0.17863 0.0
C7122 C 0.16737 0.6263 0.19979 0.0
C7123 C 0.17149 0.62412 0.20675 0.0
C7124 C 0.17132 0.629 0.2136 0.0
C7125 C 0.16722 0.63634 0.21322 0.0
C7126 C 0.16322 0.63872 0.20623 0.0
C7127 C 0.16329 0.6336 0.1996 0.0
C7128 C 0.15852 0.64627 0.20589 0.0
C7129 C 0.15393 0.64884 0.21244 0.0
C7130 C 0.1582 0.65073 0.19878 0.0
C7131 C 0.15317 0.65733 0.19811 0.0
C7132 C 0.1484 0.65976 0.20457 0.0
C7133 C 0.17494 0.62618 0.22126 0.0
C7134 C 0.17485 0.61802 0.22328 0.0
C7135 C 0.17814 0.63161 0.22682 0.0
C7136 C 0.18084 0.62899 0.23428 0.0
C7137 C 0.18054 0.62087 0.23633 0.0
C7138 C 0.17766 0.6154 0.23067 0.0
C7139 C 0.14894 0.65551 0.21179 0.0
H7140 H 0.16289 0.60127 0.18896 0.0
H7141 H 0.16534 0.61007 0.20005 0.0
H7142 H 0.16791 0.62992 0.18388 0.0
H7143 H 0.16454 0.62147 0.17283 0.0
H7144 H 0.17478 0.61856 0.20683 0.0
H7145 H 0.15981 0.63514 0.19438 0.0
H7146 H 0.16696 0.64014 0.21843 0.0
H7147 H 0.15398 0.64555 0.21799 0.0
H7148 H 0.16175 0.64903 0.19366 0.0
H7149 H 0.15289 0.66041 0.19244 0.0
H7150 H 0.1723 0.61364 0.21929 0.0
H7151 H 0.17851 0.63791 0.22547 0.0
H7152 H 0.14546 0.6573 0.21692 0.0
H7153 H 0.17724 0.60912 0.23209 0.0
H7154 H 0.18313 0.63334 0.23847 0.0
C7155 C 0.17022 0.38074 0.96291 0.0
C7156 C 0.17392 0.38223 0.95553 0.0
C7157 C 0.16437 0.38591 0.96586 0.0
C7158 C 0.16206 0.39271 0.96151 0.0
C7159 C 0.166 0.3944 0.95431 0.0
C7160 C 0.17187 0.38925 0.95137 0.0
C7161 C 0.15514 0.39762 0.96419 0.0
C7162 C 0.15398 0.39923 0.97232 0.0
C7163 C 0.14681 0.40264 0.97512 0.0
C7164 C 0.14099 0.40493 0.9695 0.0
C7165 C 0.14214 0.40362 0.96128 0.0
C7166 C 0.14924 0.39996 0.9587 0.0
C7167 C 0.13558 0.40512 0.95546 0.0
C7168 C 0.12769 0.40299 0.95736 0.0
C7169 C 0.13723 0.40802 0.94774 0.0
C7170 C 0.13119 0.40841 0.94196 0.0
C7171 C 0.12344 0.40583 0.94379 0.0
C7172 C 0.14506 0.40288 0.98387 0.0
C7173 C 0.14796 0.39679 0.98888 0.0
C7174 C 0.14007 0.40876 0.98725 0.0
C7175 C 0.1378 0.40834 0.99531 0.0
C7176 C 0.14048 0.40204 1.00016 0.0
C7177 C 0.14577 0.39643 0.99689 0.0
C7178 C 0.1217 0.40331 0.95157 0.0
H7179 H 0.17155 0.37536 0.96623 0.0
H7180 H 0.16138 0.38435 0.97138 0.0
H7181 H 0.16444 0.39964 0.95087 0.0
H7182 H 0.1747 0.39069 0.94575 0.0
H7183 H 0.15863 0.39761 0.9765 0.0
H7184 H 0.14994 0.39844 0.95246 0.0
H7185 H 0.13539 0.40743 0.97153 0.0
H7186 H 0.1262 0.40065 0.96319 0.0
H7187 H 0.14323 0.40979 0.9461 0.0
H7188 H 0.13267 0.41035 0.93598 0.0
H7189 H 0.15168 0.39205 0.98659 0.0
H7190 H 0.13781 0.41362 0.98366 0.0
H7191 H 0.11575 0.4013 0.95311 0.0
H7192 H 0.1481 0.3916 1.00049 0.0
H7193 H 0.13375 0.41278 0.99767 0.0
C7194 C 0.35705 0.40864 0.68733 0.0
C7195 C 0.35513 0.40643 0.67943 0.0
C7196 C 0.35514 0.40369 0.69376 0.0
C7197 C 0.35146 0.3963 0.6925 0.0
C7198 C 0.34931 0.39412 0.68473 0.0
C7199 C 0.35095 0.39918 0.67831 0.0
C7200 C 0.35045 0.39066 0.69922 0.0
C7201 C 0.34653 0.39306 0.70619 0.0
C7202 C 0.34642 0.38815 0.713 0.0
C7203 C 0.35019 0.38064 0.71264 0.0
C7204 C 0.35411 0.3781 0.70564 0.0
C7205 C 0.35412 0.38316 0.69895 0.0
C7206 C 0.35883 0.37056 0.70545 0.0
C7207 C 0.36366 0.36833 0.71194 0.0
C7208 C 0.35906 0.36588 0.69849 0.0
C7209 C 0.36425 0.35938 0.6979 0.0
C7210 C 0.36935 0.35736 0.70425 0.0
C7211 C 0.34308 0.39123 0.72066 0.0
C7212 C 0.34418 0.39928 0.72273 0.0
C7213 C 0.33914 0.38619 0.72612 0.0
C7214 C 0.33668 0.38907 0.73358 0.0
C7215 C 0.33814 0.39704 0.73573 0.0
C7216 C 0.34169 0.40215 0.73012 0.0
C7217 C 0.36885 0.36181 0.71135 0.0
H7218 H 0.36036 0.41402 0.68861 0.0
H7219 H 0.35691 0.40548 0.69972 0.0
H7220 H 0.34639 0.38846 0.68363 0.0
H7221 H 0.34902 0.39728 0.67246 0.0
H7222 H 0.34367 0.39886 0.70631 0.0
H7223 H 0.35742 0.38149 0.69364 0.0
H7224 H 0.35032 0.37687 0.71789 0.0
H7225 H 0.36371 0.37183 0.71736 0.0
H7226 H 0.35531 0.36732 0.69343 0.0
H7227 H 0.36431 0.35597 0.69242 0.0
H7228 H 0.34727 0.40336 0.71879 0.0
H7229 H 0.33808 0.37998 0.72468 0.0
H7230 H 0.37271 0.36047 0.71636 0.0
H7231 H 0.34279 0.40835 0.73155 0.0
H7232 H 0.33395 0.38499 0.73779 0.0
C7233 C 0.39418 0.60652 0.44996 0.0
C7234 C 0.39466 0.61232 0.4439 0.0
C7235 C 0.38792 0.60671 0.45556 0.0
C7236 C 0.38202 0.61268 0.45516 0.0
C7237 C 0.3825 0.61835 0.44898 0.0
C7238 C 0.38863 0.6181 0.4434 0.0
C7239 C 0.37552 0.61343 0.46121 0.0
C7240 C 0.37702 0.61254 0.46943 0.0
C7241 C 0.37129 0.61494 0.47513 0.0
C7242 C 0.36409 0.61844 0.47245 0.0
C7243 C 0.3626 0.61949 0.46428 0.0
C7244 C 0.36806 0.61636 0.45878 0.0
C7245 C 0.35612 0.6249 0.46137 0.0
C7246 C 0.34857 0.62531 0.46505 0.0
C7247 C 0.3577 0.63006 0.45494 0.0
C7248 C 0.3519 0.63526 0.45209 0.0
C7249 C 0.34432 0.63559 0.45563 0.0
C7250 C 0.37325 0.61476 0.48384 0.0
C7251 C 0.37776 0.60851 0.48722 0.0
C7252 C 0.3709 0.6211 0.48881 0.0
C7253 C 0.37312 0.6213 0.49682 0.0
C7254 C 0.37784 0.61521 0.50013 0.0
C7255 C 0.38 0.60872 0.4953 0.0
C7256 C 0.34273 0.63063 0.46223 0.0
H7257 H 0.39875 0.60198 0.45052 0.0
H7258 H 0.38773 0.60224 0.46023 0.0
H7259 H 0.37823 0.62317 0.44852 0.0
H7260 H 0.3887 0.62258 0.43874 0.0
H7261 H 0.38284 0.61052 0.47138 0.0
H7262 H 0.36674 0.61678 0.45247 0.0
H7263 H 0.35982 0.6207 0.47673 0.0
H7264 H 0.34714 0.62147 0.47005 0.0
H7265 H 0.36353 0.63022 0.45213 0.0
H7266 H 0.35342 0.63916 0.44716 0.0
H7267 H 0.37961 0.60349 0.48361 0.0
H7268 H 0.36756 0.62611 0.48647 0.0
H7269 H 0.33694 0.63079 0.4651 0.0
H7270 H 0.38363 0.60394 0.49769 0.0
H7271 H 0.37126 0.62633 0.50041 0.0
C7272 C 0.33044 0.16289 0.40943 0.0
C7273 C 0.33815 0.16239 0.40615 0.0
C7274 C 0.32392 0.16492 0.40462 0.0
C7275 C 0.325 0.16651 0.39645 0.0
C7276 C 0.3328 0.16661 0.39335 0.0
C7277 C 0.33929 0.16456 0.39814 0.0
C7278 C 0.31805 0.16723 0.39098 0.0
C7279 C 0.3112 0.17148 0.39318 0.0
C7280 C 0.30439 0.17153 0.38826 0.0
C7281 C 0.30471 0.16765 0.38079 0.0
C7282 C 0.31158 0.16338 0.37844 0.0
C7283 C 0.31811 0.16311 0.38372 0.0
C7284 C 0.31196 0.15877 0.37077 0.0
C7285 C 0.30513 0.15533 0.36731 0.0
C7286 C 0.31936 0.15735 0.36707 0.0
C7287 C 0.32004 0.15214 0.36064 0.0
C7288 C 0.31327 0.14845 0.35726 0.0
C7289 C 0.29675 0.17494 0.39131 0.0
C7290 C 0.29463 0.1738 0.39935 0.0
C7291 C 0.2913 0.17888 0.38625 0.0
C7292 C 0.28381 0.1813 0.38911 0.0
C7293 C 0.28161 0.17978 0.39706 0.0
C7294 C 0.28721 0.17622 0.40218 0.0
C7295 C 0.30575 0.15038 0.36059 0.0
H7296 H 0.32938 0.16123 0.41558 0.0
H7297 H 0.31799 0.16476 0.40718 0.0
H7298 H 0.33385 0.16799 0.38712 0.0
H7299 H 0.34518 0.16439 0.39548 0.0
H7300 H 0.31113 0.17464 0.39881 0.0
H7301 H 0.32319 0.15937 0.38237 0.0
H7302 H 0.29952 0.16775 0.37695 0.0
H7303 H 0.29928 0.15623 0.3699 0.0
H7304 H 0.32478 0.16012 0.36925 0.0
H7305 H 0.32601 0.15093 0.35855 0.0
H7306 H 0.29858 0.17071 0.40343 0.0
H7307 H 0.29277 0.17996 0.38006 0.0
H7308 H 0.30027 0.14805 0.35815 0.0
H7309 H 0.28572 0.17505 0.40837 0.0
H7310 H 0.27961 0.18403 0.38503 0.0
C7311 C 0.83055 0.35419 0.60846 0.0
C7312 C 0.83827 0.35472 0.61168 0.0
C7313 C 0.82405 0.35222 0.61333 0.0
C7314 C 0.82516 0.35069 0.62151 0.0
C7315 C 0.83296 0.35069 0.62459 0.0
C7316 C 0.83944 0.35271 0.61974 0.0
C7317 C 0.81818 0.34992 0.62694 0.0
C7318 C 0.81129 0.34578 0.6246 0.0
C7319 C 0.80434 0.34589 0.62934 0.0
C7320 C 0.8045 0.34994 0.63671 0.0
C7321 C 0.81142 0.354 0.63922 0.0
C7322 C 0.81816 0.35399 0.63424 0.0
C7323 C 0.8116 0.35872 0.64674 0.0
C7324 C 0.80509 0.3635 0.64905 0.0
C7325 C 0.81861 0.35897 0.65136 0.0
C7326 C 0.81924 0.36411 0.65786 0.0
C7327 C 0.81284 0.36908 0.66004 0.0
C7328 C 0.79675 0.34247 0.62619 0.0
C7329 C 0.79482 0.3434 0.61809 0.0
C7330 C 0.79118 0.3387 0.63124 0.0
C7331 C 0.78373 0.33627 0.62831 0.0
C7332 C 0.7817 0.33758 0.62028 0.0
C7333 C 0.78744 0.34095 0.61517 0.0
C7334 C 0.80571 0.36862 0.65563 0.0
H7335 H 0.82944 0.35577 0.6023 0.0
H7336 H 0.81812 0.35234 0.61077 0.0
H7337 H 0.83404 0.34939 0.63083 0.0
H7338 H 0.84534 0.35292 0.62237 0.0
H7339 H 0.81131 0.34258 0.61899 0.0
H7340 H 0.82332 0.35752 0.63588 0.0
H7341 H 0.79919 0.35014 0.64037 0.0
H7342 H 0.79962 0.3635 0.64562 0.0
H7343 H 0.8237 0.35529 0.64984 0.0
H7344 H 0.82485 0.36433 0.66106 0.0
H7345 H 0.79888 0.34634 0.61401 0.0
H7346 H 0.79252 0.33778 0.6375 0.0
H7347 H 0.80062 0.37227 0.65722 0.0
H7348 H 0.78611 0.34193 0.60892 0.0
H7349 H 0.77944 0.33368 0.63239 0.0
C7350 C 0.38102 0.05454 0.34777 0.0
C7351 C 0.38259 0.06191 0.34408 0.0
C7352 C 0.3861 0.05158 0.35369 0.0
C7353 C 0.3929 0.05589 0.35608 0.0
C7354 C 0.39468 0.06307 0.35213 0.0
C7355 C 0.38961 0.06602 0.34619 0.0
C7356 C 0.39772 0.0532 0.36306 0.0
C7357 C 0.39917 0.04505 0.36434 0.0
C7358 C 0.40257 0.0423 0.37152 0.0
C7359 C 0.40501 0.04793 0.37724 0.0
C7360 C 0.4038 0.05616 0.37601 0.0
C7361 C 0.40016 0.05871 0.36889 0.0
C7362 C 0.40542 0.06203 0.38249 0.0
C7363 C 0.40341 0.06019 0.39043 0.0
C7364 C 0.40827 0.06974 0.38074 0.0
C7365 C 0.40872 0.07557 0.38671 0.0
C7366 C 0.40628 0.07379 0.39451 0.0
C7367 C 0.40279 0.03356 0.37331 0.0
C7368 C 0.39656 0.02861 0.37063 0.0
C7369 C 0.4089 0.03012 0.37796 0.0
C7370 C 0.40876 0.02195 0.37985 0.0
C7371 C 0.40256 0.01704 0.37705 0.0
C7372 C 0.39648 0.0205 0.37243 0.0
C7373 C 0.40381 0.06602 0.39636 0.0
H7374 H 0.37563 0.05125 0.34639 0.0
H7375 H 0.38447 0.04608 0.35667 0.0
H7376 H 0.39993 0.06648 0.35372 0.0
H7377 H 0.39111 0.07164 0.34337 0.0
H7378 H 0.39745 0.04082 0.35978 0.0
H7379 H 0.39873 0.06496 0.36811 0.0
H7380 H 0.40755 0.04591 0.38283 0.0
H7381 H 0.4011 0.05437 0.39201 0.0
H7382 H 0.40995 0.07134 0.37471 0.0
H7383 H 0.4106 0.08155 0.38516 0.0
H7384 H 0.39159 0.03101 0.36729 0.0
H7385 H 0.41383 0.0337 0.3801 0.0
H7386 H 0.40189 0.06454 0.40236 0.0
H7387 H 0.3915 0.01695 0.37033 0.0
H7388 H 0.41356 0.01946 0.3834 0.0
C7389 C 0.68741 0.66296 0.1083 0.0
C7390 C 0.67966 0.66248 0.1115 0.0
C7391 C 0.69389 0.66494 0.11318 0.0
C7392 C 0.69276 0.66651 0.12134 0.0
C7393 C 0.68494 0.66656 0.1244 0.0
C7394 C 0.67848 0.66456 0.11954 0.0
C7395 C 0.69972 0.66729 0.12681 0.0
C7396 C 0.70658 0.67149 0.12451 0.0
C7397 C 0.7135 0.67143 0.12929 0.0
C7398 C 0.71328 0.66745 0.13671 0.0
C7399 C 0.70638 0.66333 0.1392 0.0
C7400 C 0.69971 0.66322 0.13411 0.0
C7401 C 0.70613 0.65867 0.14681 0.0
C7402 C 0.71285 0.6545 0.14963 0.0
C7403 C 0.69891 0.6579 0.15103 0.0
C7404 C 0.69828 0.65277 0.15755 0.0
C7405 C 0.70491 0.64839 0.16023 0.0
C7406 C 0.72111 0.67485 0.12614 0.0
C7407 C 0.72296 0.67408 0.11799 0.0
C7408 C 0.72678 0.67845 0.1312 0.0
C7409 C 0.73424 0.68087 0.12822 0.0
C7410 C 0.73617 0.67974 0.12014 0.0
C7411 C 0.73033 0.67656 0.11503 0.0
C7412 C 0.71226 0.64945 0.15628 0.0
H7413 H 0.68853 0.66135 0.10215 0.0
H7414 H 0.69983 0.66479 0.11065 0.0
H7415 H 0.68385 0.6679 0.13062 0.0
H7416 H 0.67256 0.6644 0.12214 0.0
H7417 H 0.70655 0.6747 0.11891 0.0
H7418 H 0.69458 0.6596 0.13564 0.0
H7419 H 0.71855 0.66736 0.14044 0.0
H7420 H 0.71852 0.65488 0.14656 0.0
H7421 H 0.69363 0.66115 0.14921 0.0
H7422 H 0.69249 0.65209 0.16034 0.0
H7423 H 0.71886 0.67126 0.11389 0.0
H7424 H 0.72553 0.67927 0.13748 0.0
H7425 H 0.71755 0.64632 0.15827 0.0
H7426 H 0.73154 0.67575 0.10874 0.0
H7427 H 0.73859 0.68331 0.13232 0.0
C7428 C 0.60752 0.44978 0.39421 0.0
C7429 C 0.61274 0.44319 0.39415 0.0
C7430 C 0.60776 0.45547 0.38805 0.0
C7431 C 0.61322 0.45468 0.38171 0.0
C7432 C 0.61827 0.44796 0.38163 0.0
C7433 C 0.61793 0.44227 0.38765 0.0
C7434 C 0.61414 0.4609 0.37536 0.0
C7435 C 0.61366 0.46911 0.37709 0.0
C7436 C 0.61605 0.47488 0.37142 0.0
C7437 C 0.61925 0.47224 0.36406 0.0
C7438 C 0.61997 0.46407 0.36237 0.0
C7439 C 0.61671 0.45857 0.36774 0.0
C7440 C 0.62522 0.46111 0.35578 0.0
C7441 C 0.62572 0.46493 0.34831 0.0
C7442 C 0.63019 0.4545 0.35722 0.0
C7443 C 0.63533 0.45165 0.35137 0.0
C7444 C 0.63577 0.45535 0.34388 0.0
C7445 C 0.61593 0.48359 0.37344 0.0
C7446 C 0.60999 0.48687 0.37844 0.0
C7447 C 0.62189 0.48872 0.37048 0.0
C7448 C 0.62184 0.49683 0.37229 0.0
C7449 C 0.61591 0.50011 0.37722 0.0
C7450 C 0.61003 0.49503 0.38036 0.0
C7451 C 0.63098 0.46209 0.34242 0.0
H7452 H 0.60344 0.45068 0.39914 0.0
H7453 H 0.60373 0.46052 0.3883 0.0
H7454 H 0.62274 0.44716 0.37704 0.0
H7455 H 0.62192 0.4372 0.38727 0.0
H7456 H 0.61191 0.47098 0.38301 0.0
H7457 H 0.61676 0.4523 0.36619 0.0
H7458 H 0.6215 0.4765 0.35978 0.0
H7459 H 0.62202 0.47006 0.347 0.0
H7460 H 0.63028 0.45157 0.36298 0.0
H7461 H 0.6391 0.4466 0.35279 0.0
H7462 H 0.60526 0.48317 0.3808 0.0
H7463 H 0.62676 0.48648 0.36688 0.0
H7464 H 0.63122 0.46509 0.3367 0.0
H7465 H 0.60536 0.49738 0.38416 0.0
H7466 H 0.62657 0.50054 0.36991 0.0
C7467 C 0.18757 0.85398 0.90948 0.0
C7468 C 0.1799 0.85478 0.90621 0.0
C7469 C 0.19404 0.85193 0.9046 0.0
C7470 C 0.19292 0.85057 0.89638 0.0
C7471 C 0.18512 0.85073 0.8933 0.0
C7472 C 0.1787 0.85286 0.89815 0.0
C7473 C 0.19987 0.84984 0.89089 0.0
C7474 C 0.20679 0.8457 0.89316 0.0
C7475 C 0.21364 0.84573 0.88828 0.0
C7476 C 0.21337 0.84971 0.88087 0.0
C7477 C 0.20644 0.8538 0.87844 0.0
C7478 C 0.19979 0.85387 0.88355 0.0
C7479 C 0.20617 0.85851 0.87088 0.0
C7480 C 0.21276 0.86307 0.86837 0.0
C7481 C 0.19906 0.85897 0.86643 0.0
C7482 C 0.19841 0.86415 0.85994 0.0
C7483 C 0.20487 0.86897 0.85765 0.0
C7484 C 0.22126 0.84224 0.89129 0.0
C7485 C 0.22344 0.84329 0.89933 0.0
C7486 C 0.22662 0.83829 0.88616 0.0
C7487 C 0.2341 0.83575 0.88894 0.0
C7488 C 0.23634 0.83716 0.89688 0.0
C7489 C 0.23088 0.84079 0.90207 0.0
C7490 C 0.21213 0.86822 0.86181 0.0
H7491 H 0.18866 0.85546 0.91567 0.0
H7492 H 0.19997 0.8519 0.90717 0.0
H7493 H 0.18401 0.84952 0.88706 0.0
H7494 H 0.17281 0.85333 0.89551 0.0
H7495 H 0.20687 0.84253 0.89879 0.0
H7496 H 0.19463 0.85743 0.88197 0.0
H7497 H 0.21861 0.84982 0.8771 0.0
H7498 H 0.21832 0.86294 0.87167 0.0
H7499 H 0.19392 0.8554 0.86805 0.0
H7500 H 0.1928 0.86441 0.85674 0.0
H7501 H 0.21955 0.8464 0.90344 0.0
H7502 H 0.22511 0.83731 0.87996 0.0
H7503 H 0.21723 0.87185 0.86022 0.0
H7504 H 0.23251 0.84198 0.90821 0.0
H7505 H 0.23826 0.83301 0.88482 0.0
C7506 C 0.38076 0.96319 0.17009 0.0
C7507 C 0.38237 0.95579 0.17371 0.0
C7508 C 0.38583 0.96623 0.1642 0.0
C7509 C 0.39264 0.96195 0.16177 0.0
C7510 C 0.39446 0.95476 0.16568 0.0
C7511 C 0.38941 0.95173 0.17158 0.0
C7512 C 0.39745 0.96466 0.1548 0.0
C7513 C 0.39901 0.97278 0.15358 0.0
C7514 C 0.40262 0.9755 0.1465 0.0
C7515 C 0.40529 0.96984 0.14089 0.0
C7516 C 0.40386 0.96161 0.142 0.0
C7517 C 0.39985 0.95915 0.14897 0.0
C7518 C 0.40577 0.95563 0.13561 0.0
C7519 C 0.40575 0.95781 0.1275 0.0
C7520 C 0.40704 0.94752 0.13749 0.0
C7521 C 0.40748 0.94173 0.1315 0.0
C7522 C 0.40695 0.94387 0.1234 0.0
C7523 C 0.40283 0.98424 0.14466 0.0
C7524 C 0.39648 0.98914 0.14713 0.0
C7525 C 0.40902 0.98771 0.14014 0.0
C7526 C 0.40884 0.99586 0.13817 0.0
C7527 C 0.40251 1.00072 0.14078 0.0
C7528 C 0.39635 0.99724 0.14526 0.0
C7529 C 0.4065 0.95205 0.12152 0.0
H7530 H 0.37536 0.96644 0.1715 0.0
H7531 H 0.38419 0.97174 0.16126 0.0
H7532 H 0.39973 0.95138 0.16406 0.0
H7533 H 0.39092 0.94609 0.17435 0.0
H7534 H 0.39722 0.97702 0.15811 0.0
H7535 H 0.39814 0.95297 0.1497 0.0
H7536 H 0.40819 0.9719 0.13552 0.0
H7537 H 0.40479 0.96391 0.12565 0.0
H7538 H 0.40746 0.94556 0.14363 0.0
H7539 H 0.40789 0.93555 0.13329 0.0
H7540 H 0.39144 0.98672 0.15037 0.0
H7541 H 0.41405 0.98417 0.13816 0.0
H7542 H 0.40645 0.95407 0.11539 0.0
H7543 H 0.39128 1.00075 0.1472 0.0
H7544 H 0.4137 0.99837 0.13473 0.0
C7545 C 0.10724 0.06782 0.62342 0.0
C7546 C 0.11286 0.07406 0.62309 0.0
C7547 C 0.1075 0.06218 0.62963 0.0
C7548 C 0.11337 0.06272 0.63562 0.0
C7549 C 0.11881 0.0691 0.63533 0.0
C7550 C 0.11849 0.07472 0.62924 0.0
C7551 C 0.11424 0.05658 0.64202 0.0
C7552 C 0.11359 0.04838 0.64035 0.0
C7553 C 0.11583 0.04258 0.64607 0.0
C7554 C 0.11906 0.04524 0.65342 0.0
C7555 C 0.12004 0.05341 0.655 0.0
C7556 C 0.11696 0.05894 0.64956 0.0
C7557 C 0.12537 0.05631 0.66154 0.0
C7558 C 0.12564 0.05269 0.66913 0.0
C7559 C 0.13062 0.06267 0.65996 0.0
C7560 C 0.13578 0.06552 0.66579 0.0
C7561 C 0.13596 0.06206 0.67341 0.0
C7562 C 0.11554 0.03384 0.64407 0.0
C7563 C 0.11001 0.03078 0.63848 0.0
C7564 C 0.12097 0.02844 0.64757 0.0
C7565 C 0.12082 0.02035 0.64566 0.0
C7566 C 0.11539 0.01736 0.64004 0.0
C7567 C 0.11002 0.02266 0.63641 0.0
C7568 C 0.13092 0.05554 0.67501 0.0
H7569 H 0.10282 0.06714 0.61876 0.0
H7570 H 0.10318 0.05737 0.62969 0.0
H7571 H 0.12355 0.06967 0.63968 0.0
H7572 H 0.12281 0.07952 0.62928 0.0
H7573 H 0.11183 0.04655 0.63442 0.0
H7574 H 0.11727 0.06524 0.65098 0.0
H7575 H 0.12113 0.04101 0.65782 0.0
H7576 H 0.12174 0.04775 0.67054 0.0
H7577 H 0.13088 0.06541 0.65412 0.0
H7578 H 0.13975 0.07038 0.66427 0.0
H7579 H 0.10561 0.03461 0.63572 0.0
H7580 H 0.12554 0.03043 0.65166 0.0
H7581 H 0.13096 0.05273 0.68083 0.0
H7582 H 0.10573 0.02051 0.63208 0.0
H7583 H 0.12512 0.01643 0.64847 0.0
C7584 C 0.02213 0.13335 0.4053 0.0
C7585 C 0.02524 0.13401 0.3975 0.0
H7586 H 0.01188 0.13472 0.41295 0.0
C7587 C 0.01989 0.13595 0.3913 0.0
H7588 H 0.02598 0.13184 0.41026 0.0
C7589 C 0.01194 0.13779 0.39289 0.0
C7590 C 1.00894 0.13756 0.4007 0.0
H7591 H 0.02183 0.13616 0.38515 0.0
H7592 H 1.00812 0.13946 0.38795 0.0
C7593 C 0.01404 0.13504 0.40688 0.0
C7594 C 0.1161 0.75621 0.68916 0.0
C7595 C 0.11171 0.75991 0.68302 0.0
H7596 H 0.12241 0.74567 0.69295 0.0
C7597 C 0.11071 0.75584 0.67577 0.0
H7598 H 0.11698 0.75922 0.69481 0.0
C7599 C 0.11377 0.7482 0.67473 0.0
C7600 C 0.11794 0.74437 0.68089 0.0
H7601 H 0.10757 0.75859 0.67084 0.0
H7602 H 0.11288 0.74528 0.66904 0.0
C7603 C 0.1192 0.74849 0.6881 0.0
C7604 C 0.4981 0.88083 0.8915 0.0
C7605 C 0.49307 0.88317 0.8978 0.0
H7606 H 0.50968 0.87714 0.88782 0.0
C7607 C 0.49639 0.88398 0.90547 0.0
H7608 H 0.49581 0.88033 0.88548 0.0
C7609 C 0.50443 0.88202 0.90686 0.0
C7610 C 0.50932 0.87925 0.9006 0.0
H7611 H 0.49268 0.88577 0.91044 0.0
H7612 H 0.50671 0.88239 0.91289 0.0
C7613 C 0.50607 0.87893 0.89287 0.0
C7614 C 0.40278 0.26136 0.18949 0.0
C7615 C 0.40648 0.25739 0.18308 0.0
H7616 H 0.39704 0.27215 0.1935 0.0
C7617 C 0.40675 0.26117 0.17561 0.0
H7618 H 0.40248 0.25858 0.19532 0.0
C7619 C 0.40372 0.26883 0.1746 0.0
C7620 C 0.40027 0.27293 0.18102 0.0
H7621 H 0.40935 0.2582 0.17049 0.0
H7622 H 0.40409 0.27157 0.16876 0.0
C7623 C 0.39969 0.2691 0.18847 0.0
C7624 C 0.02294 0.87442 0.11882 0.0
C7625 C 0.02586 0.88225 0.11826 0.0
H7626 H 0.01284 0.86667 0.11822 0.0
C7627 C 0.02059 0.88835 0.1159 0.0
H7628 H 0.02688 0.86956 0.12046 0.0
C7629 C 0.01246 0.88668 0.11463 0.0
C7630 C 0.00949 0.87889 0.1157 0.0
H7631 H 0.02268 0.89445 0.11541 0.0
H7632 H 1.00844 0.89154 0.1132 0.0
C7633 C 0.01489 0.87276 0.11755 0.0
C7634 C 0.40219 0.75782 0.3409 0.0
C7635 C 0.40587 0.76001 0.3337 0.0
H7636 H 0.39649 0.74853 0.3476 0.0
C7637 C 0.40638 0.75442 0.32749 0.0
H7638 H 0.40182 0.76203 0.34579 0.0
C7639 C 0.4034 0.74666 0.32856 0.0
C7640 C 0.39983 0.74447 0.33582 0.0
H7641 H 0.40928 0.75598 0.32193 0.0
H7642 H 0.40401 0.74234 0.3238 0.0
C7643 C 0.39916 0.75013 0.34193 0.0
C7644 C 0.49804 0.13372 0.62579 0.0
C7645 C 0.49245 0.1337 0.61954 0.0
H7646 H 0.5101 0.13563 0.62938 0.0
C7647 C 0.49521 0.13487 0.61169 0.0
H7648 H 0.49618 0.1326 0.63188 0.0
C7649 C 0.5033 0.1366 0.61024 0.0
C7650 C 0.50872 0.13723 0.61662 0.0
H7651 H 0.49108 0.13486 0.60673 0.0
H7652 H 0.5052 0.13786 0.6042 0.0
C7653 C 0.50603 0.13547 0.62436 0.0
C7654 C 0.11177 0.26095 0.84186 0.0
C7655 C 0.11185 0.25725 0.83435 0.0
H7656 H 0.11457 0.2713 0.84872 0.0
C7657 C 0.11535 0.2613 0.82787 0.0
H7658 H 0.10931 0.25792 0.84701 0.0
C7659 C 0.11845 0.26903 0.82889 0.0
C7660 C 0.11805 0.27279 0.83638 0.0
H7661 H 0.1155 0.25858 0.82202 0.0
H7662 H 0.12095 0.27215 0.82381 0.0
C7663 C 0.1148 0.26861 0.84285 0.0
C7664 C 0.39824 0.02275 0.14295 0.0
C7665 C 0.39939 0.02561 0.13516 0.0
H7666 H 0.39853 0.01277 0.15084 0.0
C7667 C 0.40241 0.0204 0.12933 0.0
H7668 H 0.39606 0.02668 0.1476 0.0
C7669 C 0.40378 0.01233 0.13119 0.0
C7670 C 0.40217 0.0094 0.1389 0.0
H7671 H 0.40337 0.02246 0.12329 0.0
H7672 H 0.40574 1.00833 0.12651 0.0
C7673 C 0.39963 0.01477 0.1448 0.0
C7674 C 0.26146 0.18934 0.40171 0.0
C7675 C 0.25777 0.18323 0.40614 0.0
H7676 H 0.272 0.19309 0.39536 0.0
C7677 C 0.26185 0.17599 0.40718 0.0
H7678 H 0.25845 0.19498 0.40079 0.0
C7679 C 0.2695 0.17493 0.40413 0.0
C7680 C 0.27332 0.18107 0.39992 0.0
H7681 H 0.2591 0.17107 0.41036 0.0
H7682 H 0.27243 0.16924 0.40506 0.0
C7683 C 0.26919 0.18826 0.39861 0.0
C7684 C 0.11734 0.99793 0.62843 0.0
C7685 C 0.11817 0.9924 0.63468 0.0
H7686 H 0.1158 0.01027 0.62522 0.0
C7687 C 0.11711 0.99504 0.64257 0.0
H7688 H 0.11815 0.99607 0.6223 0.0
C7689 C 0.11581 1.00308 0.64423 0.0
C7690 C 0.11549 0.00872 0.63805 0.0
H7691 H 0.11758 0.99089 0.6475 0.0
H7692 H 0.11529 1.00493 0.6504 0.0
C7693 C 0.11601 1.00604 0.6301 0.0
C7694 C 0.25671 0.84156 0.90521 0.0
C7695 C 0.26014 0.83395 0.90586 0.0
H7696 H 0.24654 0.84846 0.90181 0.0
C7697 C 0.25585 0.8273 0.90306 0.0
H7698 H 0.25994 0.8468 0.90716 0.0
C7699 C 0.24812 0.82827 0.89993 0.0
C7700 C 0.24465 0.8359 0.89958 0.0
H7701 H 0.25836 0.82136 0.90352 0.0
H7702 H 0.24479 0.82309 0.898 0.0
C7703 C 0.24906 0.84252 0.90213 0.0
C7704 C 0.39848 0.99498 0.37469 0.0
C7705 C 0.39946 0.9921 0.38249 0.0
H7706 H 0.39891 1.005 0.36684 0.0
C7707 C 0.40233 0.99731 0.3884 0.0
H7708 H 0.39643 0.99107 0.36998 0.0
C7709 C 0.4037 1.00539 0.3866 0.0
C7710 C 0.40225 1.00835 0.37887 0.0
H7711 H 0.40315 0.99523 0.39446 0.0
H7712 H 0.40553 0.00938 0.39134 0.0
C7713 C 0.39988 1.00298 0.3729 0.0
C7714 C 0.25548 0.17662 0.60895 0.0
C7715 C 0.25993 0.18344 0.61093 0.0
H7716 H 0.24469 0.17007 0.6104 0.0
C7717 C 0.25658 0.18902 0.61623 0.0
H7718 H 0.25795 0.17208 0.60508 0.0
C7719 C 0.24886 0.18787 0.61931 0.0
C7720 C 0.24437 0.1811 0.61715 0.0
H7721 H 0.25988 0.19433 0.61789 0.0
H7722 H 0.24635 0.19232 0.62327 0.0
C7723 C 0.24784 0.17547 0.61201 0.0
C7724 C 0.11799 0.02229 0.87453 0.0
C7725 C 0.11846 0.02509 0.88242 0.0
H7726 H 0.11662 0.01227 0.86678 0.0
C7727 C 0.11705 0.01969 0.8887 0.0
H7728 H 0.11888 0.02633 0.86957 0.0
C7729 C 0.11573 0.01156 0.88708 0.0
C7730 C 0.11581 0.00872 0.87917 0.0
H7731 H 0.11737 0.02167 0.89483 0.0
H7732 H 0.11506 1.00744 0.89202 0.0
C7733 C 0.1167 0.01423 0.87293 0.0
C7734 C 0.26137 0.82807 0.11599 0.0
C7735 C 0.25784 0.83399 0.1112 0.0
H7736 H 0.27176 0.82448 0.12266 0.0
C7737 C 0.26207 0.84108 0.10978 0.0
H7738 H 0.25824 0.82255 0.1172 0.0
C7739 C 0.2697 0.84217 0.11286 0.0
C7740 C 0.27336 0.83621 0.11747 0.0
H7741 H 0.25945 0.84587 0.10632 0.0
H7742 H 0.27273 0.84776 0.11168 0.0
C7743 C 0.26908 0.82917 0.11911 0.0
C7744 C 0.13538 0.40587 0.02201 0.0
C7745 C 0.13391 0.39805 0.02473 0.0
H7746 H 0.13865 0.41331 0.01207 0.0
C7747 C 0.13371 0.39184 0.01911 0.0
H7748 H 0.13555 0.4108 0.02617 0.0
C7749 C 0.13555 0.39326 0.01113 0.0
C7750 C 0.13758 0.40094 1.00848 0.0
H7751 H 0.13236 0.38579 0.02091 0.0
H7752 H 0.13554 0.38826 1.00704 0.0
C7753 C 0.13718 0.4073 0.01394 0.0
C7754 C 0.63522 0.12575 0.99801 0.0
C7755 C 0.63427 0.11942 0.9926 0.0
H7756 H 0.63783 0.12939 0.0099 0.0
C7757 C 0.63454 0.11156 0.99557 0.0
H7758 H 0.6348 0.13188 0.99602 0.0
C7759 C 0.63631 0.11011 1.00365 0.0
C7760 C 0.63785 0.1165 0.00889 0.0
H7761 H 0.6338 0.10654 0.99158 0.0
H7762 H 0.63684 0.10401 1.0057 0.0
C7763 C 0.63699 0.12432 1.006 0.0
C7764 C 0.18928 0.40076 0.26104 0.0
C7765 C 0.18391 0.40637 0.25783 0.0
H7766 H 0.19242 0.3935 0.27115 0.0
C7767 C 0.17733 0.40873 0.26246 0.0
H7768 H 0.1944 0.39881 0.25762 0.0
C7769 C 0.17618 0.40569 0.2701 0.0
C7770 C 0.18158 0.40021 0.27341 0.0
H7771 H 0.17294 0.41285 0.2601 0.0
H7772 H 0.17092 0.40757 0.27336 0.0
C7773 C 0.18813 0.39772 0.26877 0.0
C7774 C 0.88201 0.90615 0.49525 0.0
C7775 C 0.88438 0.89853 0.49259 0.0
H7776 H 0.87808 0.91327 0.50518 0.0
C7777 C 0.88546 0.89247 0.4983 0.0
H7778 H 0.88114 0.91096 0.49104 0.0
C7779 C 0.8836 0.89376 0.5063 0.0
C7780 C 0.88073 0.90118 0.50889 0.0
H7781 H 0.88753 0.88661 0.49656 0.0
H7782 H 0.88427 0.88886 0.51046 0.0
C7783 C 0.88023 0.90747 0.50335 0.0
C7784 C 0.84126 0.10936 0.2624 0.0
C7785 C 0.8343 0.11113 0.25807 0.0
H7786 H 0.84789 0.11095 0.27312 0.0
C7787 C 0.82857 0.1162 0.26152 0.0
H7788 H 0.84591 0.10569 0.25984 0.0
C7789 C 0.82971 0.11925 0.26926 0.0
C7790 C 0.83662 0.11728 0.27363 0.0
H7791 H 0.82316 0.11768 0.25832 0.0
H7792 H 0.82515 0.12301 0.27186 0.0
C7793 C 0.84239 0.11239 0.27004 0.0
C7794 C 0.38173 0.61109 0.52216 0.0
C7795 C 0.38439 0.61863 0.52478 0.0
H7796 H 0.37757 0.60406 0.51225 0.0
C7797 C 0.38573 0.6246 0.51904 0.0
H7798 H 0.38064 0.60634 0.52639 0.0
C7799 C 0.38387 0.62333 0.51104 0.0
C7800 C 0.38072 0.61601 0.50849 0.0
H7801 H 0.38802 0.63039 0.52076 0.0
H7802 H 0.38473 0.62818 0.50685 0.0
C7803 C 0.37994 0.60979 0.51407 0.0
C7804 C 0.1881 0.60792 0.25333 0.0
C7805 C 0.18512 0.61199 0.26004 0.0
H7806 H 0.18915 0.60761 0.2406 0.0
C7807 C 0.18122 0.61932 0.25889 0.0
H7808 H 0.19121 0.6023 0.25403 0.0
C7809 C 0.18001 0.62234 0.25121 0.0
C7810 C 0.18269 0.61811 0.24449 0.0
H7811 H 0.17874 0.62254 0.26392 0.0
H7812 H 0.17664 0.62782 0.25053 0.0
C7813 C 0.1869 0.61095 0.24565 0.0
C7814 C 0.32847 0.40139 0.75591 0.0
C7815 C 0.33439 0.40614 0.75952 0.0
H7816 H 0.32495 0.39483 0.74545 0.0
C7817 C 0.34154 0.40753 0.75537 0.0
H7818 H 0.32291 0.4002 0.75898 0.0
C7819 C 0.34269 0.40449 0.74774 0.0
C7820 C 0.33674 0.39995 0.74399 0.0
H7821 H 0.34632 0.41094 0.75806 0.0
H7822 H 0.34832 0.40566 0.74478 0.0
C7823 C 0.32964 0.39832 0.74819 0.0
C7824 C 0.99761 0.88662 0.61256 0.0
C7825 C 0.99323 0.88143 0.6175 0.0
H7826 H 1.00903 0.88944 0.60743 0.0
C7827 C 0.99715 0.87479 0.6208 0.0
H7828 H 0.99477 0.89179 0.60992 0.0
C7829 C 1.00524 0.87345 0.61939 0.0
C7830 C 0.0097 0.87871 0.61461 0.0
H7831 H 0.99394 0.87059 0.62453 0.0
H7832 H 1.00806 0.86837 0.62221 0.0
C7833 C 1.00578 0.88531 0.61118 0.0
C7834 C 0.90589 0.26292 0.32691 0.0
C7835 C 0.90775 0.25786 0.33334 0.0
H7836 H 0.90126 0.27435 0.32327 0.0
C7837 C 0.90612 0.26047 0.34112 0.0
H7838 H 0.90713 0.26107 0.32084 0.0
C7839 C 0.90283 0.26797 0.3425 0.0
C7840 C 0.90101 0.27312 0.33614 0.0
H7841 H 0.90745 0.2567 0.3462 0.0
H7842 H 0.90183 0.26977 0.34862 0.0
C7843 C 0.90261 0.27053 0.3283 0.0
C7844 C 0.52234 0.13831 0.11049 0.0
C7845 C 0.525 0.13516 0.11781 0.0
H7846 H 0.51228 0.14222 0.10352 0.0
C7847 C 0.51927 0.13302 0.12356 0.0
H7848 H 0.52658 0.14007 0.10594 0.0
C7849 C 0.51114 0.13422 0.12216 0.0
C7850 C 0.50851 0.13764 0.11499 0.0
H7851 H 0.52108 0.13049 0.12923 0.0
H7852 H 0.50691 0.13269 0.1268 0.0
C7853 C 0.51417 0.13961 0.10912 0.0
C7854 C 0.61123 0.75639 0.84104 0.0
C7855 C 0.61002 0.75918 0.83324 0.0
H7856 H 0.61522 0.74694 0.84854 0.0
C7857 C 0.61225 0.75428 0.8268 0.0
H7858 H 0.60962 0.76004 0.84612 0.0
C7859 C 0.6155 0.74666 0.8282 0.0
C7860 C 0.6167 0.74391 0.83605 0.0
H7861 H 0.61134 0.75628 0.82072 0.0
H7862 H 0.61715 0.74297 0.82316 0.0
C7863 C 0.6145 0.74889 0.84242 0.0
C7864 C 0.99706 0.14268 0.89698 0.0
C7865 C 0.99319 0.13588 0.90001 0.0
H7866 H 1.00793 0.1492 0.89578 0.0
C7867 C 0.99761 0.13051 0.90471 0.0
H7868 H 0.99382 0.14701 0.89344 0.0
C7869 C 1.00578 0.13181 0.90612 0.0
C7870 C 0.00965 0.13857 0.90294 0.0
H7871 H 0.99481 0.12522 0.90713 0.0
H7872 H 1.00906 0.12754 0.90968 0.0
C7873 C 1.00515 0.144 0.89841 0.0
C7874 C 0.61236 0.2629 0.69062 0.0
C7875 C 0.6099 0.25811 0.68417 0.0
H7876 H 0.61744 0.27413 0.69427 0.0
C7877 C 0.61089 0.26101 0.67638 0.0
H7878 H 0.61163 0.26081 0.69669 0.0
C7879 C 0.61417 0.26852 0.67501 0.0
C7880 C 0.61659 0.27338 0.68139 0.0
H7881 H 0.60911 0.25745 0.6713 0.0
H7882 H 0.61472 0.27055 0.6689 0.0
C7883 C 0.6156 0.27052 0.68923 0.0
C7884 C 0.52066 0.88674 0.40431 0.0
C7885 C 0.52511 0.88136 0.39964 0.0
H7886 H 0.50918 0.8897 0.40924 0.0
C7887 C 0.52126 0.87454 0.39664 0.0
H7888 H 0.52345 0.89205 0.40671 0.0
C7889 C 0.51317 0.87321 0.39807 0.0
C7890 C 0.50864 0.87864 0.40257 0.0
H7891 H 0.52452 0.87021 0.39313 0.0
H7892 H 0.51042 0.86798 0.39547 0.0
C7893 C 0.51249 0.88542 0.40571 0.0
C7894 C 0.90544 0.75439 0.19066 0.0
C7895 C 0.9079 0.75918 0.18421 0.0
H7896 H 0.90034 0.74316 0.19433 0.0
C7897 C 0.90688 0.75627 0.17643 0.0
H7898 H 0.90618 0.75647 0.19673 0.0
C7899 C 0.90358 0.74878 0.17507 0.0
C7900 C 0.90116 0.74391 0.18144 0.0
H7901 H 0.90866 0.75984 0.17133 0.0
H7902 H 0.90301 0.74675 0.16896 0.0
C7903 C 0.90217 0.74677 0.18929 0.0
C7904 C 0.61066 0.99583 0.88157 0.0
C7905 C 0.61856 0.99295 0.88205 0.0
H7906 H 0.60306 1.00605 0.87982 0.0
C7907 C 0.62486 0.99851 0.88162 0.0
H7908 H 0.60565 0.99176 0.88184 0.0
C7909 C 0.62335 1.00661 0.88038 0.0
C7910 C 0.61551 0.0094 0.87962 0.0
H7911 H 0.63101 0.99661 0.88216 0.0
H7912 H 0.62833 0.0107 0.87989 0.0
C7913 C 0.60916 1.00399 0.88035 0.0
C7914 C 0.75639 0.8408 0.61024 0.0
C7915 C 0.75957 0.83306 0.60984 0.0
H7916 H 0.74665 0.84822 0.61371 0.0
C7917 C 0.75504 0.82668 0.61288 0.0
H7918 H 0.75975 0.84585 0.60802 0.0
C7919 C 0.74741 0.82805 0.61615 0.0
C7920 C 0.7443 0.83584 0.61657 0.0
H7921 H 0.75734 0.82064 0.61262 0.0
H7922 H 0.74401 0.82306 0.61845 0.0
C7923 C 0.74889 0.84216 0.61356 0.0
C7924 C 0.89618 0.02072 0.37501 0.0
C7925 C 0.89977 0.02469 0.38147 0.0
H7926 H 0.8947 0.0098 0.36861 0.0
C7927 C 0.90507 0.02041 0.38637 0.0
H7928 H 0.89216 0.02385 0.37103 0.0
C7929 C 0.90657 0.01229 0.38494 0.0
C7930 C 0.90289 1.00833 0.37851 0.0
H7931 H 0.90793 0.02328 0.3914 0.0
H7932 H 0.91062 0.00911 0.38885 0.0
C7933 C 0.89772 0.01267 0.37355 0.0
C7934 C 0.75979 0.18494 0.11847 0.0
C7935 C 0.75878 0.18579 0.11018 0.0
H7936 H 0.76789 0.18275 0.12812 0.0
C7937 C 0.76565 0.18579 0.10532 0.0
H7938 H 0.75468 0.1849 0.12243 0.0
C7939 C 0.77321 0.1844 0.10858 0.0
C7940 C 0.77415 0.18305 0.1168 0.0
H7941 H 0.76517 0.18661 0.09894 0.0
H7942 H 0.77828 0.18402 0.10459 0.0
C7943 C 0.76737 0.1836 0.12174 0.0
C7944 C 0.61185 0.01955 0.63302 0.0
C7945 C 0.61884 0.02328 0.63583 0.0
H7946 H 0.60509 0.00869 0.63222 0.0
C7947 C 0.62447 0.01869 0.64003 0.0
H7948 H 0.60733 0.02293 0.62987 0.0
C7949 C 0.62308 0.01063 0.64152 0.0
C7950 C 0.61611 1.00695 0.63872 0.0
H7951 H 0.62999 0.02131 0.64214 0.0
H7952 H 0.6275 1.00722 0.64478 0.0
C7953 C 0.61053 0.01143 0.6344 0.0
C7954 C 0.76301 0.82651 0.40453 0.0
C7955 C 0.7585 0.83291 0.40756 0.0
H7956 H 0.774 0.82286 0.39892 0.0
C7957 C 0.76167 0.84064 0.4071 0.0
H7958 H 0.76071 0.82048 0.40484 0.0
C7959 C 0.76915 0.84199 0.40373 0.0
C7960 C 0.77372 0.83565 0.40072 0.0
H7961 H 0.75833 0.84571 0.40931 0.0
H7962 H 0.7714 0.84805 0.40353 0.0
C7963 C 0.77061 0.82786 0.40121 0.0
C7964 C 0.90444 0.99736 0.1303 0.0
C7965 C 0.90022 0.99278 0.13593 0.0
H7966 H 0.90908 0.00889 0.1272 0.0
C7967 C 0.89776 0.99644 0.14306 0.0
H7968 H 0.90641 0.99471 0.12475 0.0
C7969 C 0.89925 1.00451 0.14444 0.0
C7970 C 0.90327 0.00918 0.13876 0.0
H7971 H 0.89462 0.99307 0.14758 0.0
H7972 H 0.89702 1.00713 0.14991 0.0
C7973 C 0.90591 1.00549 0.13168 0.0
C7974 C 0.75513 0.19058 0.90475 0.0
C7975 C 0.75977 0.18417 0.90757 0.0
H7976 H 0.74403 0.19419 0.89933 0.0
C7977 C 0.75674 0.1764 0.9069 0.0
H7978 H 0.75732 0.19663 0.90522 0.0
C7979 C 0.74926 0.17501 0.90357 0.0
C7980 C 0.74455 0.18135 0.90078 0.0
H7981 H 0.76019 0.17133 0.90895 0.0
H7982 H 0.74712 0.16893 0.90324 0.0
C7983 C 0.74753 0.18918 0.90145 0.0
C7984 C 0.87832 0.61068 0.99576 0.0
C7985 C 0.88283 0.61727 0.99316 0.0
H7986 H 0.87331 0.60438 1.00573 0.0
C7987 C 0.88616 0.62237 0.99891 0.0
H7988 H 0.87561 0.60667 0.99148 0.0
C7989 C 0.88482 0.62108 1.00704 0.0
C7990 C 0.88009 0.61466 0.00964 0.0
H7991 H 0.88972 0.62746 0.99713 0.0
H7992 H 0.88729 0.62528 0.01127 0.0
C7993 C 0.87692 0.60942 1.00391 0.0
C7994 C 0.38644 0.89506 0.01825 0.0
C7995 C 0.38282 0.89996 0.02398 0.0
H7996 H 0.38761 0.89214 1.00589 0.0
C7997 C 0.37757 0.90597 0.02148 0.0
H7998 H 0.39041 0.89028 0.02007 0.0
C7999 C 0.37588 0.90701 0.01336 0.0
C8000 C 0.37949 0.90208 1.00759 0.0
H8001 H 0.37458 0.9097 0.02582 0.0
H8002 H 0.37175 0.91165 0.0116 0.0
C8003 C 0.38484 0.89614 0.01014 0.0
C8004 C 0.8328 0.60505 0.75249 0.0
C8005 C 0.8321 0.60997 0.75927 0.0
H8006 H 0.83494 0.60433 0.73992 0.0
C8007 C 0.83212 0.61829 0.75815 0.0
H8008 H 0.83264 0.59862 0.75307 0.0
C8009 C 0.83336 0.62157 0.75055 0.0
C8010 C 0.83456 0.61663 0.74387 0.0
H8011 H 0.8316 0.62229 0.76319 0.0
H8012 H 0.83359 0.628 0.74993 0.0
C8013 C 0.83403 0.60833 0.74491 0.0
C8014 C 0.132 0.1224 0.51878 0.0
C8015 C 0.13531 0.11728 0.52455 0.0
H8016 H 0.13089 0.12531 0.50642 0.0
C8017 C 0.13976 0.11065 0.52197 0.0
H8018 H 0.12849 0.12752 0.52056 0.0
C8019 C 0.14113 0.10936 0.51381 0.0
C8020 C 0.138 0.11463 0.50807 0.0
H8021 H 0.14243 0.10663 0.52625 0.0
H8022 H 0.1447 0.1043 0.51201 0.0
C8023 C 0.13332 0.12109 0.51066 0.0
C8024 C 0.18654 0.91219 0.75237 0.0
C8025 C 0.18622 0.90733 0.75922 0.0
H8026 H 0.185 0.91304 0.73972 0.0
C8027 C 0.18498 0.89909 0.75818 0.0
H8028 H 0.18767 0.91853 0.75288 0.0
C8029 C 0.1836 0.89591 0.75059 0.0
C8030 C 0.18338 0.90088 0.74382 0.0
H8031 H 0.18467 0.89513 0.76327 0.0
H8032 H 0.18245 0.88958 0.75005 0.0
C8033 C 0.18512 0.90902 0.74478 0.0
C8034 C 0.64343 0.40293 0.49517 0.0
C8035 C 0.63591 0.40051 0.49245 0.0
H8036 H 0.65064 0.40639 0.50499 0.0
C8037 C 0.62966 0.39974 0.49795 0.0
H8038 H 0.64834 0.4036 0.49102 0.0
C8039 C 0.63104 0.40095 0.50612 0.0
C8040 C 0.63868 0.40314 0.50897 0.0
H8041 H 0.62381 0.39782 0.49598 0.0
H8042 H 0.62614 0.39981 0.51016 0.0
C8043 C 0.64476 0.40438 0.50327 0.0
C8044 C 0.841 0.40804 0.76179 0.0
C8045 C 0.83339 0.40765 0.7583 0.0
H8046 H 0.84839 0.40512 0.77175 0.0
C8047 C 0.8272 0.40385 0.76252 0.0
H8048 H 0.84592 0.41084 0.75867 0.0
C8049 C 0.82862 0.4006 0.77013 0.0
C8050 C 0.8363 0.40094 0.77353 0.0
H8051 H 0.82127 0.40347 0.75997 0.0
H8052 H 0.82379 0.39768 0.77329 0.0
C8053 C 0.84243 0.40472 0.76927 0.0
C8054 C 0.67894 0.6152 0.25893 0.0
C8055 C 0.68566 0.6104 0.25771 0.0
H8056 H 0.67175 0.62156 0.26716 0.0
C8057 C 0.69079 0.60884 0.26413 0.0
H8058 H 0.67483 0.61634 0.25408 0.0
C8059 C 0.6892 0.61207 0.2717 0.0
C8060 C 0.68232 0.61676 0.27304 0.0
H8061 H 0.69597 0.60506 0.26332 0.0
H8062 H 0.69335 0.61083 0.27648 0.0
C8063 C 0.67724 0.61825 0.26648 0.0
C8064 C 0.52048 0.62869 0.90122 0.0
C8065 C 0.5258 0.6349 0.89934 0.0
H8066 H 0.50827 0.62541 0.90356 0.0
C8067 C 0.52294 0.64278 0.89931 0.0
H8068 H 0.52252 0.62256 0.9013 0.0
C8069 C 0.51488 0.6444 0.90058 0.0
C8070 C 0.50943 0.63818 0.90194 0.0
H8071 H 0.52693 0.64771 0.89804 0.0
H8072 H 0.51287 0.65053 0.90029 0.0
C8073 C 0.51234 0.63032 0.90251 0.0
C8074 C 0.6105 0.25559 0.176 0.0
C8075 C 0.61175 0.25971 0.18318 0.0
H8076 H 0.6125 0.24501 0.16924 0.0
C8077 C 0.61637 0.25607 0.18918 0.0
H8078 H 0.60718 0.25829 0.17116 0.0
C8079 C 0.61947 0.24836 0.18805 0.0
C8080 C 0.61798 0.24419 0.18092 0.0
H8081 H 0.61745 0.25911 0.19477 0.0
H8082 H 0.62287 0.24559 0.1928 0.0
C8083 C 0.61356 0.24796 0.17489 0.0
C8084 C 0.99495 0.3743 0.39854 0.0
C8085 C 0.99211 0.38215 0.39921 0.0
H8086 H 1.00497 0.36645 0.39919 0.0
C8087 C 0.99736 0.38816 0.40179 0.0
H8088 H 0.991 0.36952 0.39671 0.0
C8089 C 1.00545 0.38639 0.40319 0.0
C8090 C 1.00836 0.37859 0.40203 0.0
H8091 H 0.99531 0.39425 0.40236 0.0
H8092 H 0.00948 0.39117 0.40479 0.0
C8093 C 1.00295 0.37254 0.39995 0.0
C8094 C 0.89956 0.75886 0.67901 0.0
C8095 C 0.90592 0.75757 0.68431 0.0
H8096 H 0.89183 0.76741 0.67348 0.0
C8097 C 0.90906 0.76405 0.68858 0.0
H8098 H 0.89717 0.75397 0.67554 0.0
C8099 C 0.906 0.77175 0.68742 0.0
C8100 C 0.89978 0.77306 0.68195 0.0
H8101 H 0.91398 0.76318 0.69269 0.0
H8102 H 0.90858 0.77669 0.69069 0.0
C8103 C 0.89652 0.76653 0.67784 0.0
C8104 C 0.52303 0.3745 0.61765 0.0
C8105 C 0.52581 0.38239 0.61805 0.0
H8106 H 0.51301 0.36672 0.61635 0.0
C8107 C 0.5204 0.38865 0.6166 0.0
H8108 H 0.52707 0.36954 0.61858 0.0
C8109 C 0.51227 0.38701 0.6153 0.0
C8110 C 0.50944 0.3791 0.61544 0.0
H8111 H 0.52238 0.39479 0.61687 0.0
H8112 H 0.50814 0.39193 0.61459 0.0
C8113 C 0.51497 0.37287 0.61638 0.0
C8114 C 0.90253 0.2557 0.82806 0.0
C8115 C 0.90651 0.25958 0.83435 0.0
H8116 H 0.89656 0.24499 0.82417 0.0
C8117 C 0.90707 0.25571 0.84176 0.0
H8118 H 0.90199 0.25854 0.82228 0.0
C8119 C 0.90403 0.24807 0.84282 0.0
C8120 C 0.9003 0.24405 0.8365 0.0
H8121 H 0.90989 0.25862 0.8468 0.0
H8122 H 0.90462 0.24527 0.84862 0.0
C8123 C 0.89943 0.24797 0.82913 0.0
C8124 C 0.99794 0.63521 0.12597 0.0
C8125 C 0.99258 0.63399 0.11964 0.0
H8126 H 0.00982 0.63791 0.12961 0.0
C8127 C 0.99562 0.63393 0.1118 0.0
H8128 H 0.9959 0.63505 0.1321 0.0
C8129 C 1.00373 0.63561 0.11035 0.0
C8130 C 1.00893 0.63738 0.11671 0.0
H8131 H 0.99168 0.63298 0.10678 0.0
H8132 H 1.00584 0.63586 0.10425 0.0
C8133 C 1.00596 0.63688 0.12454 0.0
C8134 C 0.616 0.76105 0.32836 0.0
C8135 C 0.6117 0.75732 0.33455 0.0
H8136 H 0.62222 0.77163 0.32453 0.0
C8137 C 0.6108 0.76136 0.34183 0.0
H8138 H 0.6168 0.75808 0.32269 0.0
C8139 C 0.61383 0.76901 0.34286 0.0
C8140 C 0.6179 0.77287 0.33664 0.0
H8141 H 0.60774 0.75858 0.3468 0.0
H8142 H 0.61301 0.77191 0.34857 0.0
C8143 C 0.61908 0.76879 0.32941 0.0
C8144 C 0.89909 0.52266 0.64287 0.0
C8145 C 0.89961 0.52543 0.63498 0.0
H8146 H 0.89983 0.51273 0.65082 0.0
C8147 C 0.90207 0.52011 0.62899 0.0
H8148 H 0.89736 0.52666 0.64764 0.0
C8149 C 0.90348 0.51204 0.63081 0.0
C8150 C 0.90245 0.50922 0.63866 0.0
H8151 H 0.90253 0.52209 0.62285 0.0
H8152 H 0.90498 0.50796 0.62604 0.0
C8153 C 0.90049 0.51468 0.64469 0.0
C8154 C 0.76146 0.68912 0.9014 0.0
C8155 C 0.75795 0.68327 0.90629 0.0
H8156 H 0.77185 0.69264 0.89469 0.0
C8157 C 0.76222 0.67624 0.90786 0.0
H8158 H 0.7583 0.6946 0.90007 0.0
C8159 C 0.76986 0.67513 0.90482 0.0
C8160 C 0.7735 0.68102 0.90011 0.0
H8161 H 0.75961 0.6715 0.9114 0.0
H8162 H 0.77291 0.66958 0.90612 0.0
C8163 C 0.76919 0.688 0.89833 0.0
C8164 C 0.6187 0.49526 0.14291 0.0
C8165 C 0.61884 0.49262 0.13494 0.0
H8166 H 0.61768 0.50512 0.15092 0.0
C8167 C 0.61728 0.49817 0.12884 0.0
H8168 H 0.61966 0.49112 0.14778 0.0
C8169 C 0.61604 0.50626 0.13069 0.0
C8170 C 0.61639 0.50891 0.13865 0.0
H8171 H 0.61735 0.49634 0.12265 0.0
H8172 H 0.61516 0.51049 0.12588 0.0
C8173 C 0.61754 0.50329 0.14473 0.0
C8174 C 0.75578 0.3412 0.4075 0.0
C8175 C 0.75993 0.33402 0.4063 0.0
H8176 H 0.74518 0.34792 0.40547 0.0
C8177 C 0.7563 0.328 0.4017 0.0
H8178 H 0.75848 0.34605 0.4108 0.0
C8179 C 0.74858 0.32909 0.39859 0.0
C8180 C 0.74439 0.33622 0.40005 0.0
H8181 H 0.75936 0.3224 0.40065 0.0
H8182 H 0.74583 0.32433 0.39521 0.0
C8183 C 0.74815 0.34228 0.40443 0.0
C8184 C 0.89863 0.49478 0.87453 0.0
C8185 C 0.89945 0.49182 0.88233 0.0
H8186 H 0.89917 0.50488 0.8668 0.0
C8187 C 0.90215 0.49699 0.88835 0.0
H8188 H 0.89672 0.4909 0.86973 0.0
C8189 C 0.90352 0.50509 0.88667 0.0
C8190 C 0.90223 0.50812 0.87893 0.0
H8191 H 0.90284 0.49485 0.89441 0.0
H8192 H 0.90522 0.50905 0.89148 0.0
C8193 C 0.90002 0.5028 0.87285 0.0
C8194 C 0.75544 0.67677 0.10875 0.0
C8195 C 0.75995 0.68351 0.11086 0.0
H8196 H 0.74462 0.67025 0.11012 0.0
C8197 C 0.75664 0.68903 0.11626 0.0
H8198 H 0.75788 0.67227 0.10481 0.0
C8199 C 0.74892 0.68787 0.11933 0.0
C8200 C 0.74439 0.68116 0.11707 0.0
H8201 H 0.75998 0.69428 0.11801 0.0
H8202 H 0.74645 0.69226 0.12337 0.0
C8203 C 0.74781 0.67561 0.11181 0.0
C8204 C 0.61891 0.5223 0.37448 0.0
C8205 C 0.6186 0.52517 0.38235 0.0
H8206 H 0.61815 0.51224 0.36671 0.0
C8207 C 0.61646 0.51987 0.38849 0.0
H8208 H 0.62038 0.52628 0.3696 0.0
C8209 C 0.61519 0.51174 0.38683 0.0
C8210 C 0.61604 0.50882 0.37899 0.0
H8211 H 0.61617 0.52192 0.39461 0.0
H8212 H 0.61395 0.50769 0.39171 0.0
C8213 C 0.61765 0.51426 0.37283 0.0
C8214 C 0.76219 0.34097 0.6095 0.0
C8215 C 0.7579 0.33396 0.61112 0.0
H8216 H 0.7729 0.34761 0.61119 0.0
C8217 C 0.76139 0.32814 0.61607 0.0
H8218 H 0.7596 0.34569 0.60592 0.0
C8219 C 0.76912 0.32926 0.61913 0.0
C8220 C 0.77345 0.33622 0.6173 0.0
H8221 H 0.75821 0.32269 0.61744 0.0
H8222 H 0.77176 0.32464 0.62281 0.0
C8223 C 0.76984 0.34208 0.61253 0.0
C8224 C 0.6342 0.89157 0.51933 0.0
C8225 C 0.63412 0.89782 0.52491 0.0
H8226 H 0.63613 0.88798 0.50729 0.0
C8227 C 0.63521 0.90568 0.52213 0.0
H8228 H 0.63314 0.88547 0.52119 0.0
C8229 C 0.63692 0.90714 0.51404 0.0
C8230 C 0.63759 0.90076 0.50862 0.0
H8231 H 0.63515 0.91065 0.52625 0.0
H8232 H 0.6381 0.91319 0.51211 0.0
C8233 C 0.63593 0.89301 0.51134 0.0
C8234 C 0.13182 0.62426 0.49846 0.0
C8235 C 0.13371 0.61859 0.49259 0.0
H8236 H 0.13239 0.62752 0.51078 0.0
C8237 C 0.13692 0.61121 0.49503 0.0
H8238 H 0.12914 0.62992 0.49685 0.0
C8239 C 0.13869 0.60979 0.5031 0.0
C8240 C 0.13733 0.61575 0.50884 0.0
H8241 H 0.13846 0.60671 0.49067 0.0
H8242 H 0.14151 0.60423 0.5048 0.0
C8243 C 0.13365 0.62289 0.50646 0.0
C8244 C 0.68781 0.90965 0.76429 0.0
C8245 C 0.6852 0.90539 0.75755 0.0
H8246 H 0.68858 0.91012 0.77704 0.0
C8247 C 0.68171 0.89784 0.75869 0.0
H8248 H 0.69064 0.91542 0.76363 0.0
C8249 C 0.68053 0.89481 0.76638 0.0
C8250 C 0.6828 0.89924 0.77312 0.0
H8251 H 0.67952 0.89444 0.75366 0.0
H8252 H 0.67748 0.88915 0.76704 0.0
C8253 C 0.68663 0.90662 0.77198 0.0
C8254 C 0.37491 0.40044 0.99438 0.0
C8255 C 0.38282 0.39958 0.99173 0.0
H8256 H 0.36704 0.40205 1.00429 0.0
C8257 C 0.38906 0.4006 0.99725 0.0
H8258 H 0.36998 0.39984 0.99025 0.0
C8259 C 0.38736 0.4019 1.00537 0.0
C8260 C 0.3794 0.40219 1.00805 0.0
H8261 H 0.39522 0.39996 0.99538 0.0
H8262 H 0.39224 0.40225 0.00959 0.0
C8263 C 0.37322 0.4017 1.00243 0.0
C8264 C 0.33633 0.61955 0.75887 0.0
C8265 C 0.33287 0.61199 0.75774 0.0
H8266 H 0.3406 0.62822 0.7672 0.0
C8267 C 0.33034 0.60768 0.76448 0.0
H8268 H 0.33845 0.62299 0.75383 0.0
C8269 C 0.33159 0.61068 0.77217 0.0
C8270 C 0.3354 0.61807 0.7733 0.0
H8271 H 0.32753 0.6019 0.76383 0.0
H8272 H 0.32971 0.60714 0.77724 0.0
C8273 C 0.33757 0.62255 0.76655 0.0
C8274 C 0.88768 0.12261 0.01902 0.0
C8275 C 0.88433 0.11776 0.02498 0.0
H8276 H 0.88828 0.12535 1.00654 0.0
C8277 C 0.87939 0.11136 0.02271 0.0
H8278 H 0.89152 0.12755 0.0206 0.0
C8279 C 0.87753 0.11011 0.01464 0.0
C8280 C 0.88061 0.11522 0.00875 0.0
H8281 H 0.87664 0.10761 0.02719 0.0
H8282 H 0.87342 0.10539 0.01303 0.0
C8283 C 0.88583 0.12135 0.01099 0.0
C8284 C 0.6897 0.11575 0.75616 0.0
C8285 C 0.68374 0.111 0.7597 0.0
H8286 H 0.69335 0.12235 0.74575 0.0
C8287 C 0.67664 0.10962 0.75546 0.0
H8288 H 0.69523 0.11693 0.75929 0.0
C8289 C 0.67558 0.11269 0.74782 0.0
C8290 C 0.68158 0.11724 0.74415 0.0
H8291 H 0.67183 0.1062 0.75809 0.0
H8292 H 0.66999 0.11153 0.74479 0.0
C8293 C 0.68863 0.11885 0.74843 0.0
C8294 C 0.83626 0.89767 0.2586 0.0
C8295 C 0.83284 0.90525 0.25975 0.0
H8296 H 0.84049 0.889 0.25025 0.0
C8297 C 0.83032 0.90958 0.25301 0.0
H8298 H 0.83837 0.89421 0.26363 0.0
C8299 C 0.83155 0.90659 0.24532 0.0
C8300 C 0.83533 0.89919 0.24417 0.0
H8301 H 0.82754 0.91537 0.25368 0.0
H8302 H 0.82969 0.91015 0.24026 0.0
C8303 C 0.83748 0.89468 0.25091 0.0
C8304 C 0.49751 0.37485 0.12027 0.0
C8305 C 0.49391 0.38183 0.11729 0.0
H8306 H 0.50815 0.36798 0.1216 0.0
C8307 C 0.49861 0.38714 0.1128 0.0
H8308 H 0.49408 0.37051 0.12362 0.0
C8309 C 0.50674 0.38558 0.11149 0.0
C8310 C 0.51033 0.37865 0.11461 0.0
H8311 H 0.49605 0.39258 0.11043 0.0
H8312 H 0.51021 0.38978 0.10802 0.0
C8313 C 0.50559 0.37331 0.119 0.0
C8314 C 0.4074 0.76138 0.84107 0.0
C8315 C 0.40788 0.75823 0.83333 0.0
H8316 H 0.4039 0.7711 0.8485 0.0
C8317 C 0.40491 0.76279 0.82693 0.0
H8318 H 0.40956 0.758 0.84614 0.0
C8319 C 0.40166 0.77042 0.82829 0.0
C8320 C 0.40116 0.77351 0.8361 0.0
H8321 H 0.40523 0.76052 0.82089 0.0
H8322 H 0.39942 0.77384 0.82329 0.0
C8323 C 0.40409 0.76888 0.84243 0.0
C8324 C 0.02246 0.63977 0.61105 0.0
C8325 C 0.02506 0.63476 0.61725 0.0
H8326 H 0.01248 0.64516 0.6051 0.0
C8327 C 0.01931 0.63092 0.622 0.0
H8328 H 0.02675 0.64287 0.60733 0.0
C8329 C 0.01117 0.63224 0.62075 0.0
C8330 C 1.00854 0.63748 0.61474 0.0
H8331 H 0.02112 0.627 0.62681 0.0
H8332 H 1.00694 0.62937 0.62471 0.0
C8333 C 0.01429 0.64115 0.60983 0.0
C8334 C 0.11087 0.25631 0.34112 0.0
C8335 C 0.10995 0.25925 0.33334 0.0
H8336 H 0.11464 0.24674 0.3486 0.0
C8337 C 0.11244 0.25448 0.3269 0.0
H8338 H 0.10907 0.25986 0.34621 0.0
C8339 C 0.11567 0.24684 0.32827 0.0
C8340 C 0.11659 0.24396 0.33612 0.0
H8341 H 0.11176 0.25659 0.32083 0.0
H8342 H 0.11753 0.24326 0.32324 0.0
C8343 C 0.11413 0.2488 0.34249 0.0
C8344 C 0.49727 0.64282 0.3974 0.0
C8345 C 0.49351 0.63585 0.40016 0.0
H8346 H 0.50805 0.64951 0.39638 0.0
C8347 C 0.49803 0.63035 0.40461 0.0
H8348 H 0.49395 0.64726 0.39407 0.0
C8349 C 0.50619 0.63169 0.40601 0.0
C8350 C 0.50997 0.63861 0.40308 0.0
H8351 H 0.49531 0.62492 0.40682 0.0
H8352 H 0.50955 0.62731 0.40936 0.0
C8353 C 0.50536 0.64417 0.39882 0.0
C8354 C 0.11205 0.76295 0.19073 0.0
C8355 C 0.11009 0.75794 0.18429 0.0
H8356 H 0.11676 0.77434 0.19437 0.0
C8357 C 0.11161 0.7606 0.1765 0.0
H8358 H 0.1109 0.76105 0.19679 0.0
C8359 C 0.1149 0.7681 0.17512 0.0
C8360 C 0.11681 0.7732 0.18148 0.0
H8361 H 0.1102 0.75686 0.17142 0.0
H8362 H 0.11582 0.76995 0.169 0.0
C8363 C 0.11532 0.77056 0.18933 0.0
C8364 C 0.02053 0.38611 0.9049 0.0
C8365 C 0.02478 0.38136 0.89941 0.0
H8366 H 0.00925 0.3885 0.91054 0.0
C8367 C 0.02069 0.37512 0.89557 0.0
H8368 H 0.02347 0.39097 0.90797 0.0
C8369 C 0.01261 0.37373 0.89702 0.0
C8370 C 1.00833 0.37852 0.90239 0.0
H8371 H 0.02376 0.37122 0.89143 0.0
H8372 H 0.00968 0.36896 0.8938 0.0
C8373 C 0.01238 0.38473 0.90633 0.0
C8374 C 0.40551 0.25424 0.69064 0.0
C8375 C 0.4078 0.25907 0.68417 0.0
H8376 H 0.40052 0.24298 0.69436 0.0
C8377 C 0.40661 0.25621 0.67639 0.0
H8378 H 0.40638 0.25628 0.6967 0.0
C8379 C 0.40331 0.24871 0.67506 0.0
C8380 C 0.40104 0.2438 0.68147 0.0
H8381 H 0.40826 0.25981 0.67128 0.0
H8382 H 0.40261 0.24672 0.66896 0.0
C8383 C 0.40222 0.24662 0.6893 0.0
C8384 C 0.11344 0.49567 0.37555 0.0
C8385 C 0.11773 0.49308 0.38225 0.0
H8386 H 0.10877 0.50552 0.36897 0.0
C8387 C 0.12078 0.49876 0.38756 0.0
H8388 H 0.1111 0.49138 0.37133 0.0
C8389 C 0.11972 0.50693 0.38609 0.0
C8390 C 0.11546 0.5096 0.37932 0.0
H8391 H 0.12425 0.49689 0.39268 0.0
H8392 H 0.12248 0.51112 0.39014 0.0
C8393 C 0.11223 0.50381 0.37415 0.0
C8394 C 0.25616 0.34052 0.1099 0.0
C8395 C 0.2596 0.33289 0.10988 0.0
H8396 H 0.24622 0.3478 0.11317 0.0
C8397 C 0.25533 0.32652 0.11332 0.0
H8398 H 0.25932 0.34556 0.10738 0.0
C8399 C 0.24771 0.32781 0.11662 0.0
C8400 C 0.24435 0.33551 0.11669 0.0
H8401 H 0.25783 0.32057 0.11337 0.0
H8402 H 0.24451 0.32285 0.11925 0.0
C8403 C 0.24867 0.34182 0.11327 0.0
C8404 C 0.40684 0.52196 0.87763 0.0
C8405 C 0.40066 0.52446 0.88272 0.0
H8406 H 0.41283 0.51209 0.87211 0.0
C8407 C 0.39597 0.51866 0.88654 0.0
H8408 H 0.41051 0.52631 0.87455 0.0
C8409 C 0.39726 0.51055 0.88512 0.0
C8410 C 0.40326 0.50803 0.87982 0.0
H8411 H 0.39118 0.5204 0.89051 0.0
H8412 H 0.39336 0.50627 0.88798 0.0
C8413 C 0.40811 0.51383 0.87617 0.0
C8414 C 0.2615 0.67636 0.61081 0.0
C8415 C 0.25858 0.68416 0.60992 0.0
H8416 H 0.27103 0.66886 0.61462 0.0
C8417 C 0.26333 0.69057 0.61251 0.0
H8418 H 0.25796 0.67129 0.60893 0.0
C8419 C 0.27094 0.68916 0.6158 0.0
C8420 C 0.27381 0.68131 0.6167 0.0
H8421 H 0.26123 0.69665 0.61186 0.0
H8422 H 0.27452 0.69418 0.61774 0.0
C8423 C 0.26898 0.67496 0.61413 0.0
C8424 C 0.12401 0.51862 0.13318 0.0
C8425 C 0.11812 0.52432 0.13501 0.0
H8426 H 0.12734 0.50628 0.13312 0.0
C8427 C 0.11068 0.52163 0.13785 0.0
H8428 H 0.12978 0.52044 0.1309 0.0
C8429 C 0.10931 0.51347 0.13917 0.0
C8430 C 0.11531 0.50785 0.13752 0.0
H8431 H 0.10603 0.52585 0.13936 0.0
H8432 H 0.10361 0.51156 0.14154 0.0
C8433 C 0.12261 0.5105 0.1344 0.0
C8434 C 0.26346 0.32666 0.90506 0.0
C8435 C 0.25869 0.33308 0.90761 0.0
H8436 H 0.27467 0.32304 0.8999 0.0
C8437 C 0.26161 0.34087 0.90672 0.0
H8438 H 0.26135 0.32059 0.90571 0.0
C8439 C 0.26912 0.34226 0.90344 0.0
C8440 C 0.27396 0.33591 0.90092 0.0
H8441 H 0.25806 0.34594 0.90857 0.0
H8442 H 0.27117 0.34837 0.90296 0.0
C8443 C 0.27108 0.32806 0.90181 0.0
C8444 C 0.40464 0.49722 0.63042 0.0
C8445 C 0.40017 0.49271 0.63591 0.0
H8446 H 0.40948 0.50871 0.62744 0.0
C8447 C 0.39745 0.49644 0.6429 0.0
H8448 H 0.40682 0.49452 0.62497 0.0
C8449 C 0.39894 0.5045 0.6443 0.0
C8450 C 0.40322 0.5091 0.63876 0.0
H8451 H 0.39409 0.49312 0.64732 0.0
H8452 H 0.39653 0.50718 0.64966 0.0
C8453 C 0.40611 0.50536 0.63181 0.0
C8454 C 0.25494 0.69052 0.40475 0.0
C8455 C 0.25958 0.68411 0.40757 0.0
H8456 H 0.24382 0.69414 0.39937 0.0
C8457 C 0.25652 0.67634 0.40693 0.0
H8458 H 0.25715 0.69657 0.40519 0.0
C8459 C 0.24902 0.67497 0.40364 0.0
C8460 C 0.24431 0.68131 0.40085 0.0
H8461 H 0.25997 0.67128 0.40898 0.0
H8462 H 0.24687 0.66888 0.40333 0.0
C8463 C 0.24731 0.68914 0.40149 0.0
C8464 C 0.38691 0.11254 0.49741 0.0
C8465 C 0.3819 0.11769 0.49306 0.0
H8466 H 0.3895 0.1072 0.50879 0.0
C8467 C 0.37537 0.12119 0.49699 0.0
H8468 H 0.39199 0.10975 0.49456 0.0
C8469 C 0.37395 0.11974 0.50506 0.0
C8470 C 0.37901 0.11473 0.50947 0.0
H8471 H 0.37131 0.12509 0.49382 0.0
H8472 H 0.36895 0.1227 0.50789 0.0
C8473 C 0.38551 0.11112 0.50556 0.0
C8474 C 0.87776 0.40618 0.52115 0.0
C8475 C 0.88281 0.40002 0.52373 0.0
H8476 H 0.87214 0.41194 0.51119 0.0
C8477 C 0.88628 0.39495 0.51805 0.0
H8478 H 0.87489 0.41005 0.52545 0.0
C8479 C 0.88474 0.39601 0.50993 0.0
C8480 C 0.87959 0.4021 0.5073 0.0
H8481 H 0.8901 0.39008 0.51992 0.0
H8482 H 0.8874 0.39189 0.50572 0.0
C8483 C 0.87612 0.40718 0.51301 0.0
C8484 C 0.32722 0.11317 0.25467 0.0
C8485 C 0.33353 0.10975 0.25904 0.0
H8486 H 0.32369 0.11902 0.24376 0.0
C8487 C 0.34122 0.10974 0.2557 0.0
H8488 H 0.32123 0.11324 0.2571 0.0
C8489 C 0.34261 0.11305 0.24821 0.0
C8490 C 0.33636 0.11644 0.24379 0.0
H8491 H 0.34622 0.10724 0.25894 0.0
H8492 H 0.34863 0.11293 0.24584 0.0
C8493 C 0.32861 0.11641 0.24704 0.0
C8494 C 0.63979 0.61064 0.02108 0.0
C8495 C 0.6353 0.61723 0.02366 0.0
H8496 H 0.645 0.6045 0.01112 0.0
C8497 C 0.63237 0.62263 0.01797 0.0
H8498 H 0.64224 0.60647 0.02537 0.0
C8499 C 0.63392 0.6215 0.00986 0.0
C8500 C 0.63852 0.615 1.00725 0.0
H8501 H 0.62895 0.62779 0.01981 0.0
H8502 H 0.63168 0.62586 1.00564 0.0
C8503 C 0.64145 0.60957 0.01295 0.0
C8504 C 0.68596 0.39924 0.25787 0.0
C8505 C 0.68585 0.40756 0.25902 0.0
H8506 H 0.68466 0.38955 0.24962 0.0
C8507 C 0.68505 0.4125 0.25227 0.0
H8508 H 0.68655 0.39523 0.26289 0.0
C8509 C 0.68388 0.40924 0.24468 0.0
C8510 C 0.68349 0.40094 0.24361 0.0
H8511 H 0.68511 0.41893 0.25287 0.0
H8512 H 0.68289 0.41324 0.2397 0.0
C8513 C 0.68478 0.39598 0.25026 0.0
C8514 C 0.13302 0.89412 0.99873 0.0
C8515 C 0.13541 0.89979 0.99302 0.0
H8516 H 0.13255 0.89086 0.01107 0.0
C8517 C 0.13888 0.90695 0.99569 0.0
H8518 H 0.13025 0.88857 0.99692 0.0
C8519 C 0.14023 0.90825 1.00386 0.0
C8520 C 0.138 0.90246 0.00951 0.0
H8521 H 0.14084 0.91143 0.99146 0.0
H8522 H 0.14306 0.91373 1.00575 0.0
C8523 C 0.13428 0.89545 1.00686 0.0
C8524 C 0.34101 0.90434 0.26012 0.0
C8525 C 0.33335 0.90695 0.25803 0.0
H8526 H 0.34858 0.89936 0.26901 0.0
C8527 C 0.32711 0.90608 0.26358 0.0
H8528 H 0.34593 0.90495 0.25596 0.0
C8529 C 0.32862 0.90279 0.27117 0.0
C8530 C 0.33636 0.90024 0.27327 0.0
H8531 H 0.32115 0.90811 0.26212 0.0
H8532 H 0.32373 0.90223 0.27536 0.0
C8533 C 0.34251 0.90107 0.26761 0.0
C8534 C 0.19093 0.11222 0.76302 0.0
C8535 C 0.18449 0.10962 0.7583 0.0
H8536 H 0.19459 0.11741 0.77419 0.0
C8537 C 0.1767 0.11044 0.76129 0.0
H8538 H 0.197 0.11162 0.76087 0.0
C8539 C 0.17534 0.11372 0.76879 0.0
C8540 C 0.18172 0.11629 0.77357 0.0
H8541 H 0.17161 0.10855 0.75778 0.0
H8542 H 0.16924 0.11417 0.77089 0.0
C8543 C 0.18956 0.11546 0.77064 0.0
C8544 C 0.10825 0.11856 0.42757 0.0
C8545 C 0.10469 0.11159 0.42461 0.0
H8546 H 0.11663 0.1237 0.4356 0.0
C8547 C 0.1072 0.10417 0.42764 0.0
H8548 H 0.1063 0.12437 0.42554 0.0
C8549 C 0.11329 0.10375 0.43339 0.0
C8550 C 0.11691 0.11076 0.43627 0.0
H8551 H 0.10452 0.0987 0.42549 0.0
H8552 H 0.11523 0.09796 0.43547 0.0
C8553 C 0.11421 0.11815 0.43335 0.0
C8554 C 0.13626 0.84049 0.70716 0.0
C8555 C 0.13323 0.83887 0.69949 0.0
H8556 H 0.14403 0.84762 0.71433 0.0
C8557 C 0.13574 0.84371 0.69311 0.0
H8558 H 0.1344 0.83697 0.71225 0.0
C8559 C 0.14113 0.84994 0.69434 0.0
C8560 C 0.14426 0.85148 0.70198 0.0
H8561 H 0.13365 0.8426 0.6871 0.0
H8562 H 0.1428 0.85359 0.68928 0.0
C8563 C 0.14172 0.84668 0.70838 0.0
C8564 C 0.41034 0.91294 0.92734 0.0
C8565 C 0.41263 0.90552 0.92414 0.0
H8566 H 0.40256 0.9192 0.93538 0.0
C8567 C 0.40893 0.89859 0.92703 0.0
H8568 H 0.41312 0.91839 0.92526 0.0
C8569 C 0.40306 0.89903 0.93289 0.0
C8570 C 0.40057 0.90643 0.93596 0.0
H8571 H 0.41072 0.89276 0.92489 0.0
H8572 H 0.40052 0.8935 0.93507 0.0
C8573 C 0.40434 0.9134 0.93317 0.0
C8574 C 0.37617 0.18008 0.19892 0.0
C8575 C 0.38441 0.17942 0.20039 0.0
H8576 H 0.36479 0.17425 0.19886 0.0
C8577 C 0.38743 0.17219 0.20336 0.0
H8578 H 0.37368 0.18555 0.19654 0.0
C8579 C 0.38232 0.16573 0.20472 0.0
C8580 C 0.3741 0.16635 0.20311 0.0
H8581 H 0.39373 0.17154 0.20465 0.0
H8582 H 0.38481 0.16023 0.20701 0.0
C8583 C 0.37107 0.17362 0.20027 0.0
C8584 C 0.10265 0.90749 0.08413 0.0
C8585 C 0.10416 0.90678 0.09237 0.0
H8586 H 0.10756 0.90851 0.07237 0.0
C8587 C 0.11212 0.90714 0.09502 0.0
H8588 H 0.09664 0.90709 0.08181 0.0
C8589 C 0.1184 0.90787 0.08955 0.0
C8590 C 0.11687 0.90832 0.08131 0.0
H8591 H 0.11352 0.90676 0.10131 0.0
H8592 H 0.12448 0.90793 0.09175 0.0
C8593 C 0.10892 0.9083 0.07868 0.0
C8594 C 0.38639 0.84387 0.31179 0.0
C8595 C 0.38447 0.83788 0.31731 0.0
H8596 H 0.38269 0.85484 0.30626 0.0
C8597 C 0.37715 0.83821 0.32138 0.0
H8598 H 0.39197 0.84367 0.30855 0.0
C8599 C 0.37184 0.84451 0.32002 0.0
C8600 C 0.37379 0.85055 0.31457 0.0
H8601 H 0.37559 0.83364 0.32567 0.0
H8602 H 0.36631 0.84477 0.32335 0.0
C8603 C 0.38108 0.85019 0.31045 0.0
C8604 C 0.41002 0.11899 0.59017 0.0
C8605 C 0.41375 0.11208 0.59305 0.0
H8606 H 0.40149 0.12403 0.58225 0.0
C8607 C 0.41138 0.10463 0.58998 0.0
H8608 H 0.41186 0.12483 0.59224 0.0
C8609 C 0.40526 0.10414 0.58427 0.0
C8610 C 0.40147 0.11109 0.58147 0.0
H8611 H 0.41419 0.0992 0.59206 0.0
H8612 H 0.40343 0.09832 0.58215 0.0
C8613 C 0.40404 0.11851 0.58443 0.0
C8614 C 0.13705 0.1772 0.81074 0.0
C8615 C 0.13324 0.17835 0.81815 0.0
H8616 H 0.14544 0.17039 0.80394 0.0
C8617 C 0.13491 0.17297 0.82437 0.0
H8618 H 0.13585 0.18113 0.80576 0.0
C8619 C 0.14031 0.16671 0.82327 0.0
C8620 C 0.14425 0.16567 0.81593 0.0
H8621 H 0.13219 0.17369 0.83018 0.0
H8622 H 0.14138 0.16266 0.82819 0.0
C8623 C 0.1425 0.17097 0.80966 0.0
C8624 C 0.42791 0.10663 0.10473 0.0
C8625 C 0.42514 0.10394 0.11219 0.0
H8626 H 0.43552 0.11483 0.09844 0.0
C8627 C 0.42836 0.10732 0.11913 0.0
H8628 H 0.42556 0.10409 0.09927 0.0
C8629 C 0.43413 0.11327 0.11867 0.0
C8630 C 0.43678 0.11617 0.11125 0.0
H8631 H 0.42652 0.10522 0.12496 0.0
H8632 H 0.43658 0.11555 0.1242 0.0
C8633 C 0.43365 0.11273 0.10426 0.0
C8634 C 0.17401 0.19293 0.38202 0.0
C8635 C 0.17876 0.19938 0.38451 0.0
H8636 H 0.16421 0.18894 0.37494 0.0
C8637 C 0.17706 0.20701 0.38142 0.0
H8638 H 0.17519 0.18695 0.38415 0.0
C8639 C 0.17089 0.20812 0.37592 0.0
C8640 C 0.16617 0.20165 0.3734 0.0
H8641 H 0.18051 0.21215 0.38326 0.0
H8642 H 0.16989 0.21405 0.37357 0.0
C8643 C 0.16779 0.19405 0.37659 0.0
C8644 C 0.09148 0.90917 0.61868 0.0
C8645 C 0.09359 0.91359 0.6119 0.0
H8646 H 0.08419 0.90008 0.62369 0.0
C8647 C 0.08989 0.91174 0.60458 0.0
H8648 H 0.09403 0.91057 0.62445 0.0
C8649 C 0.08426 0.90556 0.60409 0.0
C8650 C 0.08215 0.90114 0.61092 0.0
H8651 H 0.09139 0.91504 0.59924 0.0
H8652 H 0.08163 0.9042 0.59836 0.0
C8653 C 0.08581 0.90311 0.61822 0.0
C8654 C 0.34643 0.81678 0.88763 0.0
C8655 C 0.33859 0.81688 0.88466 0.0
H8656 H 0.35884 0.81548 0.88504 0.0
C8657 C 0.33739 0.81562 0.87644 0.0
H8658 H 0.34756 0.81758 0.89394 0.0
C8659 C 0.34387 0.81449 0.8713 0.0
C8660 C 0.35173 0.81456 0.87424 0.0
H8661 H 0.33145 0.81577 0.87392 0.0
H8662 H 0.34272 0.81383 0.86499 0.0
C8663 C 0.3529 0.81559 0.88251 0.0
C8664 C 0.42867 0.9117 0.41255 0.0
C8665 C 0.42453 0.91319 0.4054 0.0
H8666 H 0.43726 0.90444 0.41867 0.0
C8667 C 0.42613 0.90834 0.39877 0.0
H8668 H 0.42756 0.91532 0.41778 0.0
C8669 C 0.43178 0.90226 0.39922 0.0
C8670 C 0.43593 0.90068 0.40636 0.0
H8671 H 0.42322 0.90943 0.39311 0.0
H8672 H 0.43302 0.89892 0.39383 0.0
C8673 C 0.43428 0.90549 0.41304 0.0
C8674 C 0.33974 0.20687 0.63713 0.0
C8675 C 0.3388 0.19968 0.63289 0.0
H8676 H 0.34679 0.21357 0.64544 0.0
C8677 C 0.34445 0.19359 0.63402 0.0
H8678 H 0.33556 0.21173 0.63634 0.0
C8679 C 0.35087 0.19466 0.63923 0.0
C8680 C 0.35183 0.20185 0.64345 0.0
H8681 H 0.34384 0.18791 0.63102 0.0
H8682 H 0.35504 0.18979 0.64003 0.0
C8683 C 0.34617 0.20793 0.64236 0.0
C8684 C 0.09021 0.1059 0.91302 0.0
C8685 C 0.09346 0.10364 0.90561 0.0
H8686 H 0.08225 0.11376 0.91928 0.0
C8687 C 0.09081 0.10754 0.8987 0.0
H8688 H 0.09213 0.10298 0.91845 0.0
C8689 C 0.08508 0.11355 0.89915 0.0
C8690 C 0.08191 0.11597 0.90654 0.0
H8691 H 0.093 0.10581 0.89288 0.0
H8692 H 0.08305 0.11621 0.89362 0.0
C8693 C 0.08452 0.11204 0.91349 0.0
C8694 C 0.17777 0.81037 0.13673 0.0
C8695 C 0.17888 0.81777 0.1329 0.0
H8696 H 0.171 0.80355 0.14514 0.0
C8697 C 0.17346 0.82396 0.13453 0.0
H8698 H 0.18174 0.80541 0.13555 0.0
C8699 C 0.1672 0.82284 0.13993 0.0
C8700 C 0.16621 0.81551 0.1439 0.0
H8701 H 0.17415 0.82977 0.13179 0.0
H8702 H 0.16312 0.82773 0.14098 0.0
C8703 C 0.17155 0.80927 0.14218 0.0
C8704 C 0.10531 0.42795 0.10596 0.0
C8705 C 0.11264 0.42427 0.10412 0.0
H8706 H 0.09905 0.43622 0.11347 0.0
C8707 C 0.11943 0.42643 0.10852 0.0
H8708 H 0.09997 0.42642 0.10267 0.0
C8709 C 0.11895 0.43212 0.11455 0.0
C8710 C 0.11163 0.43576 0.11652 0.0
H8711 H 0.12521 0.4239 0.10713 0.0
H8712 H 0.12441 0.43377 0.11757 0.0
C8713 C 0.1048 0.43361 0.11212 0.0
C8714 C 0.61373 0.08376 0.91494 0.0
C8715 C 0.61172 0.09186 0.91392 0.0
H8716 H 0.6146 0.07218 0.9096 0.0
C8717 C 0.60869 0.09435 0.9065 0.0
H8718 H 0.61627 0.08166 0.92049 0.0
C8719 C 0.6078 0.08888 0.90022 0.0
C8720 C 0.60986 0.08083 0.90131 0.0
H8721 H 0.60703 0.10052 0.90553 0.0
H8722 H 0.60563 0.09094 0.8945 0.0
C8723 C 0.61278 0.07831 0.90871 0.0
C8724 C 0.20217 0.38715 0.1716 0.0
C8725 C 0.20097 0.38408 0.17931 0.0
H8726 H 0.20443 0.38462 0.15932 0.0
C8727 C 0.20126 0.37576 0.18042 0.0
H8728 H 0.20212 0.39352 0.17056 0.0
C8729 C 0.20252 0.37063 0.17396 0.0
C8730 C 0.20354 0.37369 0.16622 0.0
H8731 H 0.20027 0.37318 0.18626 0.0
H8732 H 0.20242 0.36426 0.17502 0.0
C8733 C 0.20349 0.38202 0.16516 0.0
C8734 C 0.91243 0.92517 0.40858 0.0
C8735 C 0.90517 0.92415 0.41266 0.0
H8736 H 0.91879 0.93173 0.39956 0.0
C8737 C 0.89866 0.92903 0.41069 0.0
H8738 H 0.91753 0.92148 0.41005 0.0
C8739 C 0.89942 0.93494 0.40489 0.0
C8740 C 0.90667 0.93604 0.40082 0.0
H8741 H 0.89303 0.92839 0.41381 0.0
H8742 H 0.89431 0.93868 0.40356 0.0
C8743 C 0.91314 0.931 0.40262 0.0
C8744 C 0.81763 0.14172 0.18056 0.0
C8745 C 0.81715 0.13339 0.17969 0.0
H8746 H 0.81699 0.15315 0.17488 0.0
C8747 C 0.81517 0.13024 0.17219 0.0
H8748 H 0.81924 0.14435 0.18623 0.0
C8749 C 0.81383 0.13529 0.16569 0.0
C8750 C 0.8145 0.14362 0.16651 0.0
H8751 H 0.81462 0.12386 0.17134 0.0
H8752 H 0.8123 0.13266 0.16 0.0
C8753 C 0.81632 0.14678 0.17405 0.0
C8754 C 0.41279 0.58904 0.60589 0.0
C8755 C 0.40561 0.59334 0.60493 0.0
H8756 H 0.41905 0.57992 0.61239 0.0
C8757 C 0.39938 0.59197 0.61042 0.0
H8758 H 0.41777 0.59001 0.6019 0.0
C8759 C 0.40021 0.58631 0.61649 0.0
C8760 C 0.40724 0.58185 0.61719 0.0
H8761 H 0.39372 0.59503 0.60984 0.0
H8762 H 0.39525 0.58522 0.62049 0.0
C8763 C 0.41357 0.5833 0.61192 0.0
C8764 C 0.20166 0.63004 0.34578 0.0
C8765 C 0.20092 0.63303 0.33799 0.0
H8766 H 0.20356 0.63266 0.35811 0.0
C8767 C 0.20164 0.64131 0.33677 0.0
H8768 H 0.20127 0.62369 0.34691 0.0
C8769 C 0.20291 0.64648 0.3432 0.0
C8770 C 0.2035 0.6435 0.35101 0.0
H8771 H 0.20098 0.64385 0.33087 0.0
H8772 H 0.20316 0.65283 0.34205 0.0
C8773 C 0.20298 0.6352 0.3522 0.0
C8774 C 0.31602 0.37589 0.83681 0.0
C8775 C 0.31712 0.38412 0.83807 0.0
H8776 H 0.3143 0.36438 0.84204 0.0
C8777 C 0.31683 0.38705 0.84591 0.0
H8778 H 0.31631 0.37341 0.83086 0.0
C8779 C 0.31561 0.38186 0.85233 0.0
C8780 C 0.31473 0.3736 0.85109 0.0
H8781 H 0.31753 0.39336 0.84708 0.0
H8782 H 0.31538 0.38435 0.85828 0.0
C8783 C 0.31485 0.3707 0.84323 0.0
C8784 C 0.91092 0.89642 0.58654 0.0
C8785 C 0.91403 0.90318 0.59034 0.0
H8786 H 0.90267 0.89177 0.57806 0.0
C8787 C 0.91101 0.91074 0.58828 0.0
H8788 H 0.91327 0.89054 0.58781 0.0
C8789 C 0.90481 0.91146 0.58267 0.0
C8790 C 0.90159 0.90463 0.57901 0.0
H8791 H 0.91333 0.91607 0.5911 0.0
H8792 H 0.90243 0.91732 0.58134 0.0
C8793 C 0.90483 0.89714 0.58093 0.0
C8794 C 0.87809 0.17993 0.31905 0.0
C8795 C 0.88593 0.17946 0.3161 0.0
H8796 H 0.86674 0.17425 0.32031 0.0
C8797 C 0.88832 0.17251 0.31209 0.0
H8798 H 0.87608 0.18517 0.32225 0.0
C8799 C 0.88294 0.16619 0.31099 0.0
C8800 C 0.87509 0.16667 0.31396 0.0
H8801 H 0.89432 0.17199 0.30972 0.0
H8802 H 0.88497 0.16088 0.30792 0.0
C8803 C 0.87275 0.17363 0.318 0.0
C8804 C 0.61077 0.10916 0.09288 0.0
C8805 C 0.6042 0.11409 0.09123 0.0
H8806 H 0.62174 0.1042 0.08855 0.0
C8807 C 0.60384 0.11812 0.08393 0.0
H8808 H 0.61112 0.10597 0.09848 0.0
C8809 C 0.60994 0.11729 0.07834 0.0
C8810 C 0.61651 0.11225 0.0798 0.0
H8811 H 0.59885 0.122 0.08258 0.0
H8812 H 0.60952 0.12074 0.0729 0.0
C8813 C 0.61684 0.10819 0.08718 0.0
C8814 C 0.6386 0.83835 0.82065 0.0
C8815 C 0.63176 0.83787 0.81587 0.0
H8816 H 0.64932 0.84464 0.82336 0.0
C8817 C 0.63043 0.84369 0.81002 0.0
H8818 H 0.63975 0.83386 0.82516 0.0
C8819 C 0.63589 0.84996 0.809 0.0
C8820 C 0.64278 0.8505 0.81381 0.0
H8821 H 0.62522 0.84337 0.80622 0.0
H8822 H 0.63461 0.85443 0.80452 0.0
C8823 C 0.64405 0.84457 0.81963 0.0
C8824 C 0.91071 0.121 0.93063 0.0
C8825 C 0.91395 0.1142 0.927 0.0
H8826 H 0.90236 0.12573 0.93897 0.0
C8827 C 0.91103 0.10664 0.92923 0.0
H8828 H 0.91298 0.12689 0.92924 0.0
C8829 C 0.90483 0.10596 0.93484 0.0
C8830 C 0.90149 0.11283 0.93833 0.0
H8831 H 0.91345 0.10129 0.92656 0.0
H8832 H 0.90254 0.1001 0.93631 0.0
C8833 C 0.90461 0.12032 0.93624 0.0
C8834 C 0.63775 0.17933 0.70806 0.0
C8835 C 0.63188 0.17916 0.70202 0.0
H8836 H 0.64768 0.17342 0.71359 0.0
C8837 C 0.6314 0.17232 0.69717 0.0
H8838 H 0.63825 0.18437 0.71206 0.0
C8839 C 0.63677 0.166 0.69815 0.0
C8840 C 0.64275 0.16634 0.70401 0.0
H8841 H 0.62705 0.17192 0.69241 0.0
H8842 H 0.6363 0.16086 0.69427 0.0
C8843 C 0.64312 0.17301 0.70903 0.0
C8844 C 0.60789 0.91057 0.42785 0.0
C8845 C 0.60525 0.90286 0.42577 0.0
H8846 H 0.61584 0.91758 0.43511 0.0
C8847 C 0.60888 0.89624 0.42944 0.0
H8848 H 0.60524 0.91578 0.42511 0.0
C8849 C 0.61483 0.89729 0.43517 0.0
C8850 C 0.61736 0.90496 0.43731 0.0
H8851 H 0.60693 0.89024 0.42808 0.0
H8852 H 0.6174 0.89209 0.43802 0.0
C8853 C 0.61395 0.9116 0.43353 0.0
C8854 C 0.88829 0.84444 0.20602 0.0
C8855 C 0.88614 0.83783 0.20134 0.0
H8856 H 0.88476 0.85581 0.21068 0.0
C8857 C 0.87858 0.8377 0.19773 0.0
H8858 H 0.89406 0.84466 0.20891 0.0
C8859 C 0.87326 0.84402 0.19876 0.0
C8860 C 0.87534 0.85065 0.20345 0.0
H8861 H 0.87679 0.8327 0.19405 0.0
H8862 H 0.86746 0.84365 0.19593 0.0
C8863 C 0.88292 0.85077 0.2071 0.0
C8864 C 0.58439 0.91375 0.89928 0.0
C8865 C 0.59158 0.91352 0.9035 0.0
H8866 H 0.57345 0.90797 0.89649 0.0
C8867 C 0.59312 0.90707 0.90862 0.0
H8868 H 0.58312 0.91866 0.89526 0.0
C8869 C 0.58744 0.90099 0.90956 0.0
C8870 C 0.58017 0.9012 0.9053 0.0
H8871 H 0.59865 0.90682 0.91196 0.0
H8872 H 0.58871 0.89618 0.91367 0.0
C8873 C 0.5788 0.90765 0.90009 0.0
C8874 C 0.84553 0.8123 0.62898 0.0
C8875 C 0.83841 0.81586 0.63162 0.0
H8876 H 0.85734 0.80845 0.63207 0.0
C8877 C 0.83783 0.81831 0.63962 0.0
H8878 H 0.84613 0.81033 0.62286 0.0
C8879 C 0.8442 0.81722 0.64487 0.0
C8880 C 0.85132 0.81363 0.64228 0.0
H8881 H 0.83246 0.82115 0.64181 0.0
H8882 H 0.84353 0.81915 0.651 0.0
C8883 C 0.85191 0.81115 0.63428 0.0
C8884 C 0.92946 0.10626 0.41094 0.0
C8885 C 0.92683 0.10371 0.40338 0.0
H8886 H 0.9368 0.11447 0.41752 0.0
C8887 C 0.92998 0.1074 0.39657 0.0
H8888 H 0.92715 0.1035 0.41631 0.0
C8889 C 0.93553 0.11354 0.39725 0.0
C8890 C 0.93805 0.11627 0.40477 0.0
H8891 H 0.92828 0.10544 0.39066 0.0
H8892 H 0.93792 0.11611 0.39182 0.0
C8893 C 0.93501 0.11251 0.41163 0.0
C8894 C 0.67413 0.19543 0.13255 0.0
C8895 C 0.67955 0.20167 0.13106 0.0
H8896 H 0.66386 0.19145 0.13899 0.0
C8897 C 0.67846 0.20894 0.13511 0.0
H8898 H 0.6748 0.18971 0.12963 0.0
C8899 C 0.67227 0.20988 0.14064 0.0
C8900 C 0.66697 0.20358 0.14223 0.0
H8901 H 0.68242 0.21393 0.13406 0.0
H8902 H 0.67174 0.2155 0.14378 0.0
C8903 C 0.66792 0.19638 0.13804 0.0
C8904 C 0.58907 0.11069 0.62048 0.0
C8905 C 0.59224 0.10654 0.61391 0.0
H8906 H 0.58067 0.11942 0.62455 0.0
C8907 C 0.58943 0.10839 0.60621 0.0
H8908 H 0.59098 0.10933 0.6265 0.0
C8909 C 0.58347 0.11413 0.60513 0.0
C8910 C 0.58023 0.11808 0.61174 0.0
H8911 H 0.59178 0.10534 0.60102 0.0
H8912 H 0.5813 0.1154 0.59917 0.0
C8913 C 0.58312 0.11639 0.61939 0.0
C8914 C 0.67288 0.81165 0.38807 0.0
C8915 C 0.67982 0.81569 0.38566 0.0
H8916 H 0.66124 0.80745 0.38474 0.0
C8917 C 0.68026 0.81864 0.37782 0.0
H8918 H 0.67238 0.80928 0.39406 0.0
C8919 C 0.67395 0.81757 0.3725 0.0
C8920 C 0.667 0.81351 0.37486 0.0
H8921 H 0.6855 0.82185 0.3758 0.0
H8922 H 0.67456 0.81988 0.3665 0.0
C8923 C 0.66654 0.81053 0.38271 0.0
C8924 C 0.92948 0.91088 0.1065 0.0
C8925 C 0.92702 0.91362 0.11405 0.0
H8926 H 0.93672 0.90255 0.09996 0.0
C8927 C 0.9304 0.91015 0.12088 0.0
H8928 H 0.92699 0.91346 0.10112 0.0
C8929 C 0.93599 0.90404 0.12022 0.0
C8930 C 0.93833 0.90113 0.11271 0.0
H8931 H 0.92883 0.91226 0.12678 0.0
H8932 H 0.93854 0.90163 0.12565 0.0
C8933 C 0.93507 0.90467 0.10583 0.0
C8934 C 0.84014 0.20878 0.88235 0.0
C8935 C 0.83896 0.20147 0.88631 0.0
H8936 H 0.84692 0.21536 0.87374 0.0
C8937 C 0.84427 0.19516 0.88471 0.0
H8938 H 0.83627 0.21382 0.8835 0.0
C8939 C 0.85047 0.1961 0.8792 0.0
C8940 C 0.85152 0.20335 0.8751 0.0
H8941 H 0.84352 0.18941 0.88755 0.0
H8942 H 0.85445 0.19112 0.87817 0.0
C8943 C 0.84632 0.2097 0.8768 0.0
C8944 C 0.89658 0.58681 0.91057 0.0
C8945 C 0.90301 0.59158 0.91302 0.0
H8946 H 0.89255 0.57736 0.90301 0.0
C8947 C 0.91049 0.59053 0.90934 0.0
H8948 H 0.89077 0.58741 0.91335 0.0
C8949 C 0.91148 0.58481 0.90331 0.0
C8950 C 0.90506 0.57991 0.90104 0.0
H8951 H 0.91554 0.59414 0.91113 0.0
H8952 H 0.91729 0.58407 0.90056 0.0
C8953 C 0.8976 0.58101 0.9047 0.0
C8954 C 0.40087 0.93359 0.10409 0.0
C8955 C 0.4041 0.92594 0.10498 0.0
H8956 H 0.39891 0.94502 0.10916 0.0
C8957 C 0.40843 0.92413 0.11192 0.0
H8958 H 0.39747 0.93511 0.09881 0.0
C8959 C 0.40957 0.92997 0.11783 0.0
C8960 C 0.40624 0.93767 0.11699 0.0
H8961 H 0.41104 0.91828 0.11269 0.0
H8962 H 0.4131 0.92843 0.123 0.0
C8963 C 0.40183 0.93933 0.11003 0.0
C8964 C 0.81711 0.63988 0.83702 0.0
C8965 C 0.81597 0.63164 0.83813 0.0
H8966 H 0.81701 0.65151 0.84229 0.0
C8967 C 0.81369 0.62886 0.84571 0.0
H8968 H 0.81896 0.6422 0.83129 0.0
C8969 C 0.8125 0.63423 0.85201 0.0
C8970 C 0.81371 0.64245 0.85088 0.0
H8971 H 0.81275 0.62255 0.84674 0.0
H8972 H 0.81078 0.63194 0.85781 0.0
C8973 C 0.81604 0.64521 0.84333 0.0
C8974 C 0.10714 0.08855 0.60646 0.0
C8975 C 0.11472 0.09087 0.60364 0.0
H8976 H 0.10057 0.08146 0.61491 0.0
C8977 C 0.12153 0.08738 0.60705 0.0
H8978 H 0.10178 0.09112 0.60393 0.0
C8979 C 0.12084 0.08184 0.61319 0.0
C8980 C 0.11332 0.07965 0.6162 0.0
H8981 H 0.12743 0.08885 0.60486 0.0
H8982 H 0.12625 0.07921 0.61555 0.0
C8983 C 0.10645 0.083 0.61271 0.0
C8984 C 0.1959 0.88485 0.84413 0.0
C8985 C 0.20194 0.88595 0.8384 0.0
H8986 H 0.19211 0.87873 0.85468 0.0
C8987 C 0.20907 0.88158 0.83923 0.0
H8988 H 0.19029 0.88802 0.84368 0.0
C8989 C 0.21006 0.87612 0.84547 0.0
C8990 C 0.20395 0.8749 0.85108 0.0
H8991 H 0.21391 0.88234 0.83502 0.0
H8992 H 0.21556 0.87274 0.84581 0.0
C8993 C 0.19689 0.87941 0.85038 0.0
C8994 C 0.62142 0.42901 0.4095 0.0
C8995 C 0.61462 0.42628 0.41356 0.0
H8996 H 0.62618 0.43663 0.40052 0.0
C8997 C 0.6071 0.42927 0.4113 0.0
H8998 H 0.62732 0.42702 0.41122 0.0
C8999 C 0.60641 0.43481 0.40504 0.0
C9000 C 0.61325 0.43747 0.40095 0.0
H9001 H 0.60174 0.42728 0.41432 0.0
H9002 H 0.60054 0.4369 0.40334 0.0
C9003 C 0.62075 0.43455 0.40334 0.0
C9004 C 0.81181 0.38792 0.67274 0.0
C9005 C 0.81601 0.38556 0.6796 0.0
H9006 H 0.80744 0.38456 0.66119 0.0
C9007 C 0.81909 0.37777 0.67997 0.0
H9008 H 0.80934 0.39388 0.67231 0.0
C9009 C 0.81795 0.37244 0.67369 0.0
C9010 C 0.81373 0.37475 0.66683 0.0
H9011 H 0.82242 0.37579 0.68514 0.0
H9012 H 0.82035 0.36647 0.67426 0.0
C9013 C 0.81064 0.38255 0.66643 0.0
C9014 C 0.7071 0.62987 0.17334 0.0
C9015 C 0.70188 0.63165 0.17964 0.0
H9016 H 0.71222 0.63377 0.16229 0.0
C9017 C 0.69776 0.63893 0.17958 0.0
H9018 H 0.7104 0.62432 0.17331 0.0
C9019 C 0.69883 0.64436 0.17336 0.0
C9020 C 0.70405 0.64266 0.16701 0.0
H9021 H 0.6937 0.64043 0.18438 0.0
H9022 H 0.6956 0.64995 0.1736 0.0
C9023 C 0.70821 0.63534 0.1671 0.0
C9024 C 0.60686 0.60427 0.92741 0.0
C9025 C 0.60427 0.61171 0.92452 0.0
H9026 H 0.61506 0.598 0.93502 0.0
C9027 C 0.60782 0.61866 0.92753 0.0
H9028 H 0.60419 0.59881 0.92522 0.0
C9029 C 0.61385 0.61822 0.93322 0.0
C9030 C 0.61666 0.6108 0.93598 0.0
H9031 H 0.6058 0.62449 0.92561 0.0
H9032 H 0.61627 0.62375 0.93551 0.0
C9033 C 0.61304 0.60381 0.93306 0.0
C9034 C 0.63996 0.33927 0.19456 0.0
C9035 C 0.63338 0.33844 0.19965 0.0
H9036 H 0.65063 0.34563 0.19187 0.0
C9037 C 0.63241 0.34376 0.20601 0.0
H9038 H 0.64086 0.33513 0.18969 0.0
C9039 C 0.63788 0.34997 0.20716 0.0
C9040 C 0.64454 0.35088 0.20207 0.0
H9041 H 0.62738 0.34316 0.21002 0.0
H9042 H 0.63677 0.35413 0.21196 0.0
C9043 C 0.64552 0.34535 0.19581 0.0
C9044 C 0.9115 0.41252 0.42758 0.0
C9045 C 0.91381 0.40508 0.42444 0.0
H9046 H 0.90353 0.41884 0.43537 0.0
C9047 C 0.90995 0.39818 0.42718 0.0
H9048 H 0.9144 0.41794 0.4256 0.0
C9049 C 0.9039 0.39867 0.43285 0.0
C9050 C 0.90139 0.40609 0.43587 0.0
H9051 H 0.91174 0.39235 0.42507 0.0
H9052 H 0.90124 0.39316 0.43493 0.0
C9053 C 0.90531 0.41302 0.43321 0.0
C9054 C 0.87681 0.68034 0.70204 0.0
C9055 C 0.88498 0.6792 0.70034 0.0
H9056 H 0.86543 0.675 0.7043 0.0
C9057 C 0.88788 0.67132 0.70005 0.0
H9058 H 0.87426 0.68626 0.7022 0.0
C9059 C 0.88276 0.66483 0.70121 0.0
C9060 C 0.87456 0.66599 0.70271 0.0
H9061 H 0.89414 0.67014 0.69895 0.0
H9062 H 0.88525 0.65888 0.70094 0.0
C9063 C 0.8717 0.67385 0.70324 0.0
C9064 C 0.60808 0.39861 0.59004 0.0
C9065 C 0.60438 0.40555 0.5929 0.0
H9066 H 0.61659 0.39352 0.58213 0.0
C9067 C 0.6068 0.41298 0.58982 0.0
H9068 H 0.6062 0.39279 0.59211 0.0
C9069 C 0.61292 0.41343 0.58411 0.0
C9070 C 0.61668 0.40646 0.58132 0.0
H9071 H 0.60401 0.41842 0.59188 0.0
H9072 H 0.61479 0.41924 0.58198 0.0
C9073 C 0.61407 0.39905 0.5843 0.0
C9074 C 0.88186 0.34003 0.80989 0.0
C9075 C 0.88468 0.33805 0.81756 0.0
H9076 H 0.87455 0.34784 0.80283 0.0
C9077 C 0.88192 0.34251 0.82411 0.0
H9078 H 0.8839 0.33677 0.8047 0.0
C9079 C 0.87661 0.34883 0.82302 0.0
C9080 C 0.87389 0.35086 0.81536 0.0
H9081 H 0.88378 0.34105 0.83012 0.0
H9082 H 0.87462 0.35213 0.8282 0.0
C9083 C 0.87649 0.34635 0.80881 0.0
C9084 C 0.91224 0.61818 0.0876 0.0
C9085 C 0.91386 0.61167 0.09257 0.0
H9086 H 0.90516 0.62286 0.07809 0.0
C9087 C 0.90947 0.60459 0.09162 0.0
H9088 H 0.91565 0.62364 0.08815 0.0
C9089 C 0.9034 0.60412 0.08585 0.0
C9090 C 0.90169 0.61074 0.08097 0.0
H9091 H 0.91069 0.59948 0.09538 0.0
H9092 H 0.89995 0.59869 0.08533 0.0
C9093 C 0.90625 0.61772 0.08185 0.0
C9094 C 0.63642 0.6768 0.31048 0.0
C9095 C 0.63332 0.67843 0.31811 0.0
H9096 H 0.6443 0.66969 0.3034 0.0
C9097 C 0.63577 0.67361 0.32453 0.0
H9098 H 0.63462 0.6803 0.30536 0.0
C9099 C 0.64119 0.66738 0.32336 0.0
C9100 C 0.64441 0.66584 0.31576 0.0
H9101 H 0.63362 0.67472 0.33051 0.0
H9102 H 0.64281 0.66374 0.32845 0.0
C9103 C 0.64193 0.67063 0.30933 0.0
C9104 C 0.92703 0.6085 0.61905 0.0
C9105 C 0.92482 0.60415 0.61226 0.0
H9106 H 0.93441 0.61752 0.62405 0.0
C9107 C 0.92846 0.60604 0.60492 0.0
H9108 H 0.92453 0.60707 0.62484 0.0
C9109 C 0.93412 0.6122 0.60441 0.0
C9110 C 0.93631 0.61655 0.61125 0.0
H9111 H 0.92689 0.60279 0.59956 0.0
H9112 H 0.93669 0.6136 0.59866 0.0
C9113 C 0.93272 0.61454 0.61858 0.0
C9114 C 0.67375 0.69309 0.88251 0.0
C9115 C 0.67885 0.69944 0.88454 0.0
H9116 H 0.66365 0.68919 0.87578 0.0
C9117 C 0.67744 0.70696 0.88106 0.0
H9118 H 0.67467 0.68719 0.88497 0.0
C9119 C 0.67124 0.70805 0.87559 0.0
C9120 C 0.6662 0.70168 0.8735 0.0
H9121 H 0.68116 0.71203 0.88255 0.0
H9122 H 0.67047 0.71388 0.87292 0.0
C9123 C 0.6675 0.69421 0.8771 0.0
C9124 C 0.59069 0.41012 0.10383 0.0
C9125 C 0.59378 0.41255 0.11125 0.0
H9126 H 0.58276 0.40221 0.0976 0.0
C9127 C 0.5908 0.40898 0.11821 0.0
H9128 H 0.59283 0.41282 0.09836 0.0
C9129 C 0.58495 0.40309 0.11779 0.0
C9130 C 0.582 0.40046 0.11039 0.0
H9131 H 0.59286 0.41088 0.12403 0.0
H9132 H 0.58271 0.40065 0.12334 0.0
C9133 C 0.58488 0.4041 0.1034 0.0
C9134 C 0.8444 0.32369 0.38338 0.0
C9135 C 0.83878 0.31759 0.38455 0.0
H9136 H 0.85498 0.32751 0.37736 0.0
C9137 C 0.83977 0.31037 0.38037 0.0
H9138 H 0.84375 0.32939 0.38634 0.0
C9139 C 0.84621 0.3093 0.37515 0.0
C9140 C 0.85184 0.31541 0.37402 0.0
H9141 H 0.83561 0.30549 0.38118 0.0
H9142 H 0.84686 0.30364 0.37211 0.0
C9143 C 0.85083 0.32262 0.37819 0.0
C9144 C 0.92284 0.40614 0.90792 0.0
C9145 C 0.92559 0.41393 0.90638 0.0
H9146 H 0.92599 0.39384 0.90974 0.0
C9147 C 0.93389 0.41524 0.90599 0.0
H9148 H 0.91652 0.4049 0.90838 0.0
C9149 C 0.93928 0.40895 0.90696 0.0
C9150 C 0.93652 0.40117 0.90823 0.0
H9151 H 0.93626 0.42109 0.90463 0.0
H9152 H 0.94561 0.41012 0.90634 0.0
C9153 C 0.92826 0.39982 0.90878 0.0
C9154 C 0.83997 0.70717 0.13679 0.0
C9155 C 0.8387 0.69975 0.13307 0.0
H9156 H 0.8472 0.71406 0.1448 0.0
C9157 C 0.84395 0.69345 0.13482 0.0
H9158 H 0.8361 0.71219 0.13553 0.0
C9159 C 0.85029 0.69453 0.1401 0.0
C9160 C 0.85158 0.70195 0.1438 0.0
H9161 H 0.84307 0.6876 0.13223 0.0
H9162 H 0.85416 0.68951 0.14137 0.0
C9163 C 0.84631 0.70825 0.14212 0.0
C9164 C 0.5906 0.60736 0.39875 0.0
C9165 C 0.59343 0.60366 0.40569 0.0
H9166 H 0.58275 0.61591 0.39363 0.0
C9167 C 0.59039 0.60613 0.41312 0.0
H9168 H 0.59264 0.60544 0.39292 0.0
C9169 C 0.58474 0.6123 0.41356 0.0
C9170 C 0.58197 0.61605 0.40657 0.0
H9171 H 0.59245 0.60335 0.41858 0.0
H9172 H 0.58264 0.61421 0.41936 0.0
C9173 C 0.58491 0.61339 0.39917 0.0
C9174 C 0.67396 0.32425 0.63527 0.0
C9175 C 0.67883 0.31783 0.63295 0.0
H9176 H 0.66404 0.32821 0.64224 0.0
C9177 C 0.67724 0.31024 0.63616 0.0
H9178 H 0.67504 0.33021 0.63303 0.0
C9179 C 0.67106 0.30914 0.64166 0.0
C9180 C 0.66622 0.31557 0.64403 0.0
H9181 H 0.68078 0.30512 0.63445 0.0
H9182 H 0.67014 0.30324 0.64412 0.0
C9183 C 0.66772 0.32313 0.6407 0.0
C9184 C 0.61916 0.92553 0.60888 0.0
C9185 C 0.61251 0.92388 0.60408 0.0
H9186 H 0.62408 0.93241 0.61831 0.0
C9187 C 0.60532 0.92796 0.60559 0.0
H9188 H 0.62484 0.92267 0.60775 0.0
C9189 C 0.60481 0.93352 0.61183 0.0
C9190 C 0.6115 0.93518 0.61663 0.0
H9191 H 0.60008 0.92682 0.60199 0.0
H9192 H 0.59915 0.93644 0.61292 0.0
C9193 C 0.61869 0.93114 0.61499 0.0
C9194 C 0.10679 0.58652 0.41399 0.0
C9195 C 0.11165 0.59337 0.41339 0.0
H9196 H 0.10295 0.5756 0.40866 0.0
C9197 C 0.11548 0.59486 0.40607 0.0
H9198 H 0.10347 0.58526 0.41937 0.0
C9199 C 0.11485 0.58946 0.39975 0.0
C9200 C 0.11058 0.58227 0.4006 0.0
H9201 H 0.11927 0.60002 0.40526 0.0
H9202 H 0.11796 0.59084 0.39426 0.0
C9203 C 0.10635 0.58101 0.40773 0.0
C9204 C 0.70739 0.88008 0.67837 0.0
C9205 C 0.70022 0.88439 0.67919 0.0
H9206 H 0.71414 0.8717 0.67147 0.0
C9207 C 0.69423 0.88335 0.67342 0.0
H9208 H 0.71217 0.8808 0.68265 0.0
C9209 C 0.69535 0.87811 0.66704 0.0
C9210 C 0.7025 0.87379 0.66622 0.0
H9211 H 0.68857 0.88642 0.67393 0.0
H9212 H 0.69052 0.87736 0.66281 0.0
C9213 C 0.70851 0.87483 0.67197 0.0
C9214 C 0.40048 0.42432 0.9061 0.0
C9215 C 0.40593 0.42412 0.9125 0.0
H9216 H 0.39691 0.43004 0.89521 0.0
C9217 C 0.41242 0.42949 0.91235 0.0
H9218 H 0.39533 0.42042 0.90599 0.0
C9219 C 0.41315 0.43517 0.90627 0.0
C9220 C 0.40756 0.43546 0.90007 0.0
H9221 H 0.4169 0.42942 0.91699 0.0
H9222 H 0.41804 0.43939 0.90645 0.0
C9223 C 0.40133 0.42987 0.89992 0.0
C9224 C 0.31633 0.64124 0.68067 0.0
C9225 C 0.31727 0.63297 0.67951 0.0
H9226 H 0.31473 0.6527 0.67529 0.0
C9227 C 0.31677 0.62993 0.67172 0.0
H9228 H 0.31678 0.6438 0.68657 0.0
C9229 C 0.31552 0.63504 0.66524 0.0
C9230 C 0.31482 0.64334 0.66637 0.0
H9231 H 0.31733 0.62359 0.67063 0.0
H9232 H 0.31512 0.63246 0.65934 0.0
C9233 C 0.31514 0.64635 0.67418 0.0
C9234 C 0.89836 0.08981 0.10817 0.0
C9235 C 0.90515 0.0934 0.10481 0.0
H9236 H 0.89378 0.08116 0.1164 0.0
C9237 C 0.91274 0.09117 0.10765 0.0
H9238 H 0.89244 0.09133 0.10605 0.0
C9239 C 0.91349 0.0854 0.11368 0.0
C9240 C 0.90668 0.08165 0.1168 0.0
H9241 H 0.91808 0.09384 0.10517 0.0
H9242 H 0.91938 0.08369 0.11573 0.0
C9243 C 0.89912 0.08396 0.11405 0.0
C9244 C 0.70217 0.14105 0.83704 0.0
C9245 C 0.70097 0.13283 0.83827 0.0
H9246 H 0.70398 0.15253 0.8423 0.0
C9247 C 0.70117 0.12988 0.84611 0.0
H9248 H 0.70195 0.14356 0.83109 0.0
C9249 C 0.70241 0.13502 0.85255 0.0
C9250 C 0.70339 0.14329 0.85134 0.0
H9251 H 0.70041 0.12357 0.84727 0.0
H9252 H 0.70259 0.1325 0.85849 0.0
C9253 C 0.70336 0.14621 0.84348 0.0
C9254 C 0.81629 0.87599 0.33691 0.0
C9255 C 0.81731 0.88425 0.33807 0.0
H9256 H 0.81463 0.86454 0.34228 0.0
C9257 C 0.81691 0.88727 0.34587 0.0
H9258 H 0.81666 0.87344 0.33099 0.0
C9259 C 0.81565 0.88217 0.35235 0.0
C9260 C 0.81487 0.87387 0.35122 0.0
H9261 H 0.81753 0.89361 0.34697 0.0
H9262 H 0.8153 0.88475 0.35825 0.0
C9263 C 0.8151 0.87087 0.3434 0.0
C9264 C 0.40952 0.39664 0.08732 0.0
C9265 C 0.41259 0.40347 0.09107 0.0
H9266 H 0.40152 0.39187 0.07867 0.0
C9267 C 0.40974 0.41101 0.08867 0.0
H9268 H 0.41175 0.39077 0.08882 0.0
C9269 C 0.40379 0.41165 0.08281 0.0
C9270 C 0.4006 0.40477 0.07923 0.0
H9271 H 0.41203 0.41639 0.09141 0.0
H9272 H 0.40154 0.4175 0.08122 0.0
C9273 C 0.40366 0.39729 0.08147 0.0
C9274 C 0.38895 0.67187 0.81346 0.0
C9275 C 0.38615 0.67933 0.81606 0.0
H9276 H 0.38592 0.65982 0.81035 0.0
C9277 C 0.37795 0.68028 0.81757 0.0
H9278 H 0.39523 0.67097 0.81223 0.0
C9279 C 0.37266 0.67393 0.81653 0.0
C9280 C 0.37542 0.66648 0.81389 0.0
H9281 H 0.37562 0.68593 0.81966 0.0
H9282 H 0.36638 0.67485 0.81777 0.0
C9283 C 0.38362 0.66552 0.81232 0.0
C9284 C 0.10771 0.60687 0.58945 0.0
C9285 C 0.10516 0.61458 0.59164 0.0
H9286 H 0.1156 0.59987 0.58211 0.0
C9287 C 0.10891 0.6212 0.5881 0.0
H9288 H 0.10497 0.60164 0.59209 0.0
C9289 C 0.11489 0.62016 0.58239 0.0
C9290 C 0.11732 0.6125 0.58014 0.0
H9291 H 0.10704 0.62721 0.58955 0.0
H9292 H 0.11756 0.62537 0.57965 0.0
C9293 C 0.11379 0.60584 0.58378 0.0
C9294 C 0.14044 0.3367 0.31649 0.0
C9295 C 0.13216 0.33792 0.31575 0.0
H9296 H 0.15213 0.34189 0.31613 0.0
C9297 C 0.12936 0.34562 0.31392 0.0
H9298 H 0.14278 0.33087 0.31799 0.0
C9299 C 0.13475 0.35191 0.31277 0.0
C9300 C 0.14301 0.35066 0.31358 0.0
H9301 H 0.12303 0.34674 0.3133 0.0
H9302 H 0.13246 0.3578 0.31138 0.0
C9303 C 0.14579 0.343 0.31547 0.0
C9304 C 0.4108 0.62099 0.43066 0.0
C9305 C 0.414 0.61421 0.42694 0.0
H9306 H 0.40251 0.62567 0.43908 0.0
C9307 C 0.41103 0.60665 0.42909 0.0
H9308 H 0.41311 0.62688 0.42933 0.0
C9309 C 0.40483 0.60594 0.4347 0.0
C9310 C 0.40154 0.61278 0.43829 0.0
H9311 H 0.4134 0.60131 0.42634 0.0
H9312 H 0.40251 0.60008 0.4361 0.0
C9313 C 0.40472 0.62028 0.43628 0.0
C9314 C 0.13975 0.67968 0.1981 0.0
C9315 C 0.13207 0.67949 0.20146 0.0
H9316 H 0.15093 0.67376 0.19656 0.0
C9317 C 0.12977 0.67278 0.20593 0.0
H9318 H 0.14167 0.68475 0.19458 0.0
C9319 C 0.1351 0.66642 0.20705 0.0
C9320 C 0.1428 0.66662 0.20367 0.0
H9321 H 0.1239 0.67249 0.20862 0.0
H9322 H 0.13313 0.6613 0.21046 0.0
C9323 C 0.14504 0.67334 0.19919 0.0
C9324 C 0.10844 0.4104 0.9274 0.0
C9325 C 0.10528 0.40276 0.92589 0.0
H9326 H 0.11683 0.41737 0.93419 0.0
C9327 C 0.10834 0.39621 0.93015 0.0
H9328 H 0.1062 0.41554 0.9242 0.0
C9329 C 0.11427 0.39728 0.93589 0.0
C9330 C 0.11736 0.40489 0.93745 0.0
H9331 H 0.10598 0.39028 0.92921 0.0
H9332 H 0.11642 0.39214 0.93917 0.0
C9333 C 0.11451 0.41144 0.93308 0.0
C9334 C 0.38493 0.34356 0.69516 0.0
C9335 C 0.38659 0.33829 0.70148 0.0
H9336 H 0.37834 0.3537 0.69109 0.0
C9337 C 0.38266 0.3395 0.70881 0.0
H9338 H 0.38775 0.3428 0.6894 0.0
C9339 C 0.3771 0.34567 0.70973 0.0
C9340 C 0.37534 0.35083 0.70336 0.0
H9341 H 0.38385 0.33566 0.71386 0.0
H9342 H 0.37407 0.34629 0.7154 0.0
C9343 C 0.37941 0.34975 0.69609 0.0
C9344 C 0.09007 0.40892 0.41118 0.0
C9345 C 0.09244 0.41131 0.40346 0.0
H9346 H 0.08242 0.40135 0.4182 0.0
C9347 C 0.08893 0.40753 0.39685 0.0
H9348 H 0.09268 0.41167 0.41641 0.0
C9349 C 0.08305 0.40171 0.3979 0.0
C9350 C 0.0806 0.39947 0.40557 0.0
H9351 H 0.09049 0.40927 0.39083 0.0
H9352 H 0.08033 0.39902 0.3927 0.0
C9353 C 0.08423 0.40301 0.41222 0.0
C9354 C 0.34031 0.30831 0.13487 0.0
C9355 C 0.33896 0.31574 0.13118 0.0
H9356 H 0.34721 0.30159 0.14326 0.0
C9357 C 0.34408 0.32211 0.13306 0.0
H9358 H 0.33658 0.30323 0.13351 0.0
C9359 C 0.35028 0.32113 0.13856 0.0
C9360 C 0.35151 0.31376 0.14239 0.0
H9361 H 0.3432 0.32795 0.13043 0.0
H9362 H 0.35412 0.32618 0.1398 0.0
C9363 C 0.34648 0.30735 0.14042 0.0
C9364 C 0.42995 0.60729 0.89639 0.0
C9365 C 0.4269 0.60351 0.90322 0.0
H9366 H 0.43782 0.61604 0.89162 0.0
C9367 C 0.42964 0.606 0.91076 0.0
H9368 H 0.42816 0.60538 0.89049 0.0
C9369 C 0.4352 0.61223 0.91143 0.0
C9370 C 0.43815 0.61606 0.90457 0.0
H9371 H 0.4274 0.60319 0.91613 0.0
H9372 H 0.43708 0.61413 0.91731 0.0
C9373 C 0.43551 0.61342 0.89706 0.0
C9374 C 0.1751 0.70862 0.63138 0.0
C9375 C 0.17964 0.70161 0.63117 0.0
H9376 H 0.16535 0.71485 0.63663 0.0
C9377 C 0.17805 0.69556 0.63669 0.0
H9378 H 0.17628 0.71339 0.62719 0.0
C9379 C 0.17207 0.69651 0.64242 0.0
C9380 C 0.16725 0.70343 0.6426 0.0
H9381 H 0.1816 0.69016 0.63672 0.0
H9382 H 0.17138 0.69178 0.64674 0.0
C9383 C 0.16889 0.70947 0.63693 0.0
C9384 C 0.08872 0.60618 0.1066 0.0
C9385 C 0.09197 0.60455 0.11419 0.0
H9386 H 0.08055 0.61332 0.09972 0.0
C9387 C 0.08963 0.60938 0.12065 0.0
H9388 H 0.09045 0.60267 0.10146 0.0
C9389 C 0.08404 0.61547 0.11961 0.0
C9390 C 0.08065 0.61689 0.1121 0.0
H9391 H 0.09187 0.60827 0.1266 0.0
H9392 H 0.08219 0.61896 0.12472 0.0
C9393 C 0.0831 0.61229 0.10557 0.0
C9394 C 0.17442 0.32192 0.88424 0.0
C9395 C 0.17939 0.3155 0.88634 0.0
H9396 H 0.1645 0.326 0.87735 0.0
C9397 C 0.1779 0.308 0.88286 0.0
H9398 H 0.17542 0.32781 0.8867 0.0
C9399 C 0.17173 0.30701 0.87731 0.0
C9400 C 0.16684 0.31347 0.87513 0.0
H9401 H 0.18152 0.30288 0.88439 0.0
H9402 H 0.1709 0.30119 0.87464 0.0
C9403 C 0.16822 0.32092 0.87874 0.0
C9404 C 0.43048 0.41018 0.62093 0.0
C9405 C 0.42706 0.41361 0.6141 0.0
H9406 H 0.43863 0.40168 0.6257 0.0
C9407 C 0.42948 0.41083 0.60655 0.0
H9408 H 0.42894 0.41233 0.62682 0.0
C9409 C 0.43506 0.40461 0.60589 0.0
C9410 C 0.43834 0.4011 0.61277 0.0
H9411 H 0.42697 0.41339 0.60117 0.0
H9412 H 0.43667 0.40245 0.60002 0.0
C9413 C 0.43605 0.40406 0.62027 0.0
C9414 C 0.34448 0.6953 0.38492 0.0
C9415 C 0.33899 0.70149 0.38631 0.0
H9416 H 0.35487 0.69139 0.37861 0.0
C9417 C 0.34005 0.70875 0.3822 0.0
H9418 H 0.34385 0.6896 0.38787 0.0
C9419 C 0.3463 0.70973 0.37675 0.0
C9420 C 0.35169 0.70348 0.37527 0.0
H9421 H 0.33602 0.71371 0.38318 0.0
H9422 H 0.34681 0.71534 0.37359 0.0
C9423 C 0.35075 0.69629 0.37949 0.0
C9424 C 0.41095 0.08966 0.40997 0.0
C9425 C 0.40323 0.09163 0.41268 0.0
H9426 H 0.41798 0.08249 0.40195 0.0
C9427 C 0.39662 0.08792 0.40909 0.0
H9428 H 0.41616 0.09244 0.41259 0.0
C9429 C 0.39768 0.08222 0.40313 0.0
C9430 C 0.40536 0.08017 0.40053 0.0
H9431 H 0.39061 0.0892 0.4111 0.0
H9432 H 0.39249 0.07933 0.40059 0.0
C9433 C 0.412 0.08401 0.40388 0.0
C9434 C 0.91067 0.42601 0.60995 0.0
C9435 C 0.90344 0.42539 0.60572 0.0
H9436 H 0.91729 0.43233 0.61895 0.0
C9437 C 0.89731 0.43086 0.60732 0.0
H9438 H 0.9155 0.42188 0.60878 0.0
C9439 C 0.89838 0.43688 0.61295 0.0
C9440 C 0.90557 0.43752 0.61721 0.0
H9441 H 0.89173 0.43058 0.60408 0.0
H9442 H 0.89353 0.44102 0.61403 0.0
C9443 C 0.91169 0.43197 0.61574 0.0
C9444 C 0.3088 0.1316 0.34234 0.0
C9445 C 0.316 0.13108 0.33813 0.0
H9446 H 0.30235 0.13703 0.3518 0.0
C9447 C 0.32221 0.13629 0.34005 0.0
H9448 H 0.30389 0.12765 0.3409 0.0
C9449 C 0.32124 0.14203 0.34601 0.0
C9450 C 0.31411 0.14253 0.3505 0.0
H9451 H 0.32778 0.13609 0.33676 0.0
H9452 H 0.32614 0.1461 0.34689 0.0
C9453 C 0.30791 0.13714 0.34854 0.0
C9454 C 0.62112 0.58735 0.10785 0.0
C9455 C 0.61434 0.59128 0.10489 0.0
H9456 H 0.62581 0.57862 0.11581 0.0
C9457 C 0.60678 0.58909 0.10787 0.0
H9458 H 0.627 0.58869 0.10551 0.0
C9459 C 0.60609 0.58327 0.11387 0.0
C9460 C 0.61294 0.57953 0.11695 0.0
H9461 H 0.60143 0.59197 0.10566 0.0
H9462 H 0.60024 0.58186 0.11623 0.0
C9463 C 0.62043 0.58154 0.11374 0.0
C9464 C 0.69613 0.38521 0.34426 0.0
C9465 C 0.70198 0.38597 0.33829 0.0
H9466 H 0.69245 0.37934 0.35499 0.0
C9467 C 0.70893 0.38127 0.33889 0.0
H9468 H 0.69067 0.38866 0.344 0.0
C9469 C 0.70989 0.37581 0.34514 0.0
C9470 C 0.70393 0.37492 0.35098 0.0
H9471 H 0.71363 0.38175 0.33449 0.0
H9472 H 0.71522 0.37217 0.3453 0.0
C9473 C 0.69709 0.37977 0.35051 0.0
C9474 C 0.11717 0.93453 0.9147 0.0
C9475 C 0.11387 0.92685 0.91414 0.0
H9476 H 0.11913 0.94577 0.90892 0.0
C9477 C 0.10952 0.92476 0.90729 0.0
H9478 H 0.1206 0.93624 0.9199 0.0
C9479 C 0.10857 0.93027 0.90105 0.0
C9480 C 0.11201 0.9379 0.90161 0.0
H9481 H 0.10691 0.91888 0.90675 0.0
H9482 H 0.10534 0.92854 0.89574 0.0
C9483 C 0.11629 0.93998 0.90847 0.0
C9484 C 0.32148 0.88562 0.17303 0.0
C9485 C 0.3158 0.8861 0.17919 0.0
H9486 H 0.32501 0.87995 0.16214 0.0
C9487 C 0.30898 0.88119 0.17876 0.0
H9488 H 0.32682 0.88924 0.17317 0.0
C9489 C 0.308 0.87579 0.17248 0.0
C9490 C 0.3138 0.87515 0.16647 0.0
H9491 H 0.30441 0.88147 0.18331 0.0
H9492 H 0.30278 0.87197 0.17244 0.0
C9493 C 0.32049 0.8802 0.16676 0.0
C9494 C 0.19616 0.1321 0.67327 0.0
C9495 C 0.20204 0.13132 0.67921 0.0
H9496 H 0.19246 0.13799 0.66256 0.0
C9497 C 0.20899 0.13601 0.6786 0.0
H9498 H 0.19069 0.12867 0.67355 0.0
C9499 C 0.20994 0.14147 0.67235 0.0
C9500 C 0.20397 0.14237 0.66653 0.0
H9501 H 0.21371 0.1355 0.68298 0.0
H9502 H 0.21529 0.1451 0.67216 0.0
C9503 C 0.19712 0.13755 0.66702 0.0
C9504 C 0.09946 0.15922 0.35703 0.0
C9505 C 0.09727 0.15959 0.36511 0.0
H9506 H 0.10526 0.16521 0.34725 0.0
C9507 C 0.09895 0.16651 0.36947 0.0
H9508 H 0.09833 0.15387 0.35359 0.0
C9509 C 0.10281 0.17296 0.36588 0.0
C9510 C 0.1052 0.17257 0.35786 0.0
H9511 H 0.09745 0.16685 0.37575 0.0
H9512 H 0.10421 0.17815 0.36946 0.0
C9513 C 0.10345 0.16566 0.35343 0.0
C9514 C 0.06491 0.82976 0.65123 0.0
C9515 C 0.0732 0.82853 0.65133 0.0
H9516 H 0.05508 0.83571 0.64553 0.0
C9517 C 0.07791 0.8318 0.64524 0.0
H9518 H 0.06121 0.82737 0.65595 0.0
C9519 C 0.07446 0.83661 0.63938 0.0
C9520 C 0.06623 0.83822 0.63948 0.0
H9521 H 0.08433 0.83101 0.64528 0.0
H9522 H 0.07829 0.83936 0.63496 0.0
C9523 C 0.06142 0.83451 0.64528 0.0
C9524 C 0.41756 0.85818 0.8568 0.0
C9525 C 0.42246 0.85728 0.86356 0.0
H9526 H 0.4094 0.85254 0.84865 0.0
C9527 C 0.42334 0.84966 0.86693 0.0
H9528 H 0.41675 0.864 0.85411 0.0
C9529 C 0.41905 0.84318 0.86391 0.0
C9530 C 0.41389 0.84413 0.85736 0.0
H9531 H 0.42697 0.84882 0.87221 0.0
H9532 H 0.41954 0.83746 0.86688 0.0
C9533 C 0.41338 0.85164 0.85367 0.0
C9534 C 0.45336 0.18799 0.1512 0.0
C9535 C 0.44501 0.18874 0.15156 0.0
H9536 H 0.46332 0.18239 0.14536 0.0
C9537 C 0.44031 0.18504 0.14573 0.0
H9538 H 0.45707 0.19072 0.15573 0.0
C9539 C 0.44384 0.18027 0.13989 0.0
C9540 C 0.45214 0.17909 0.13977 0.0
H9541 H 0.43387 0.18548 0.14596 0.0
H9542 H 0.44002 0.1772 0.13568 0.0
C9543 C 0.45691 0.18323 0.14529 0.0
C9544 C 0.09493 0.85016 0.15098 0.0
C9545 C 0.09663 0.85801 0.15336 0.0
H9546 H 0.09784 0.83782 0.15201 0.0
C9547 C 0.10218 0.85922 0.15954 0.0
H9548 H 0.09077 0.84902 0.14617 0.0
C9549 C 0.10619 0.85276 0.16299 0.0
C9550 C 0.10483 0.84492 0.1603 0.0
H9551 H 0.10355 0.86519 0.16159 0.0
H9552 H 0.11046 0.85396 0.16769 0.0
C9553 C 0.09901 0.84371 0.15437 0.0
C9554 C 0.45323 0.82905 0.36641 0.0
C9555 C 0.44488 0.82846 0.36588 0.0
H9556 H 0.46317 0.83454 0.3724 0.0
C9557 C 0.44013 0.83231 0.37158 0.0
H9558 H 0.45699 0.8262 0.362 0.0
C9559 C 0.44361 0.83706 0.37745 0.0
C9560 C 0.45194 0.8381 0.37773 0.0
H9561 H 0.43368 0.83198 0.37122 0.0
H9562 H 0.43976 0.84021 0.38156 0.0
C9563 C 0.45675 0.83381 0.37235 0.0
C9564 C 0.41755 0.15917 0.66056 0.0
C9565 C 0.42214 0.15989 0.65356 0.0
H9566 H 0.40979 0.16507 0.6689 0.0
C9567 C 0.42289 0.16739 0.64994 0.0
H9568 H 0.41686 0.15343 0.66342 0.0
C9569 C 0.41879 0.17397 0.65297 0.0
C9570 C 0.41392 0.17322 0.65976 0.0
H9571 H 0.42629 0.16807 0.64448 0.0
H9572 H 0.41918 0.1796 0.64983 0.0
C9573 C 0.41354 0.16582 0.66369 0.0
C9574 C 0.06506 0.18785 0.86661 0.0
C9575 C 0.0734 0.18857 0.86614 0.0
H9576 H 0.05515 0.18226 0.87256 0.0
C9577 C 0.07816 0.1848 0.87188 0.0
H9578 H 0.06129 0.19063 0.86216 0.0
C9579 C 0.0747 0.18002 0.87775 0.0
C9580 C 0.06639 0.17887 0.87798 0.0
H9581 H 0.08461 0.18521 0.87156 0.0
H9582 H 0.07856 0.17691 0.8819 0.0
C9583 C 0.06156 0.18307 0.87255 0.0
C9584 C 0.36308 0.09313 0.16645 0.0
C9585 C 0.36376 0.09701 0.15901 0.0
H9586 H 0.35961 0.09412 0.17876 0.0
C9587 C 0.36022 0.10459 0.15815 0.0
H9588 H 0.36573 0.08732 0.16739 0.0
C9589 C 0.35686 0.1085 0.1647 0.0
C9590 C 0.35673 0.10484 0.17221 0.0
H9591 H 0.36036 0.10769 0.15249 0.0
H9592 H 0.35471 0.11455 0.16398 0.0
C9593 C 0.35958 0.09702 0.17298 0.0
C9594 C 0.18863 0.15091 0.45283 0.0
C9595 C 0.18911 0.15146 0.44449 0.0
H9596 H 0.18326 0.14491 0.46283 0.0
C9597 C 0.18518 0.14579 0.43978 0.0
H9598 H 0.19155 0.15531 0.45655 0.0
C9599 C 0.18046 0.13993 0.44331 0.0
C9600 C 0.17953 0.13963 0.45164 0.0
H9601 H 0.18542 0.14617 0.43333 0.0
H9602 H 0.17723 0.13583 0.4395 0.0
C9603 C 0.1839 0.14498 0.4564 0.0
C9604 C 0.14938 0.91233 0.66196 0.0
C9605 C 0.15251 0.91955 0.65905 0.0
H9606 H 0.15039 0.90282 0.67039 0.0
C9607 C 0.15927 0.92282 0.66284 0.0
H9608 H 0.14405 0.90974 0.65936 0.0
C9609 C 0.16286 0.91884 0.6693 0.0
C9610 C 0.15978 0.91153 0.67201 0.0
H9611 H 0.16183 0.92836 0.66073 0.0
H9612 H 0.1681 0.9214 0.67209 0.0
C9613 C 0.15299 0.90836 0.6683 0.0
C9614 C 0.33246 0.87115 0.93958 0.0
C9615 C 0.32855 0.86552 0.94437 0.0
H9616 H 0.34038 0.88112 0.93917 0.0
C9617 C 0.32903 0.86616 0.9527 0.0
H9618 H 0.33222 0.8707 0.93314 0.0
C9619 C 0.33375 0.87213 0.95619 0.0
C9620 C 0.3381 0.87744 0.95136 0.0
H9621 H 0.32612 0.86179 0.95648 0.0
H9622 H 0.3344 0.87228 0.96262 0.0
C9623 C 0.33717 0.87706 0.94304 0.0
C9624 C 0.36148 0.91173 0.35935 0.0
C9625 C 0.36391 0.91976 0.35878 0.0
H9626 H 0.35687 0.9015 0.35325 0.0
C9627 C 0.36209 0.92398 0.35173 0.0
H9628 H 0.36251 0.90833 0.36474 0.0
C9629 C 0.3586 0.92007 0.3452 0.0
C9630 C 0.35693 0.91187 0.34559 0.0
H9631 H 0.36385 0.93016 0.35105 0.0
H9632 H 0.35774 0.92329 0.33967 0.0
C9633 C 0.35815 0.90782 0.3528 0.0
C9634 C 0.33283 0.14593 0.57794 0.0
C9635 C 0.32892 0.15157 0.57317 0.0
H9636 H 0.34082 0.136 0.57835 0.0
C9637 C 0.32949 0.15099 0.56483 0.0
H9638 H 0.33252 0.14633 0.58438 0.0
C9639 C 0.33427 0.14506 0.56134 0.0
C9640 C 0.33862 0.13974 0.56616 0.0
H9641 H 0.32659 0.15536 0.56106 0.0
H9642 H 0.33497 0.14497 0.55492 0.0
C9643 C 0.33761 0.14007 0.57448 0.0
C9644 C 0.14938 0.09614 0.85044 0.0
C9645 C 0.15308 0.09622 0.85793 0.0
H9646 H 0.14957 0.1003 0.83839 0.0
C9647 C 0.16038 0.10024 0.85883 0.0
H9648 H 0.14365 0.09323 0.84966 0.0
C9649 C 0.16384 0.10424 0.85235 0.0
C9650 C 0.16001 0.10437 0.84487 0.0
H9651 H 0.16329 0.10044 0.8646 0.0
H9652 H 0.16944 0.10734 0.85323 0.0
C9653 C 0.15278 0.10018 0.84399 0.0
C9654 C 0.18522 0.87143 0.07777 0.0
C9655 C 0.18914 0.86578 0.07303 0.0
H9656 H 0.17721 0.88134 0.07811 0.0
C9657 C 0.18861 0.86633 0.06469 0.0
H9658 H 0.1855 0.87104 0.08421 0.0
C9659 C 0.18383 0.87224 0.06115 0.0
C9660 C 0.17946 0.87757 0.06595 0.0
H9661 H 0.19152 0.86195 0.06094 0.0
H9662 H 0.18314 0.87232 0.05473 0.0
C9663 C 0.18045 0.87727 0.07427 0.0
C9664 C 0.16206 0.36828 0.10526 0.0
C9665 C 0.15938 0.36485 0.09811 0.0
H9666 H 0.17051 0.36809 0.11473 0.0
C9667 C 0.16355 0.35826 0.095 0.0
H9668 H 0.15907 0.37343 0.10778 0.0
C9669 C 0.17029 0.35522 0.09899 0.0
C9670 C 0.17303 0.35879 0.10609 0.0
H9671 H 0.1616 0.35547 0.08951 0.0
H9672 H 0.17346 0.35021 0.09643 0.0
C9673 C 0.16872 0.36528 0.1092 0.0
C9674 C 0.66622 0.15613 0.92405 0.0
C9675 C 0.65921 0.15422 0.9198 0.0
H9676 H 0.67824 0.16064 0.92341 0.0
C9677 C 0.65865 0.15666 0.91177 0.0
H9678 H 0.66689 0.15437 0.93023 0.0
C9679 C 0.66516 0.1601 0.90789 0.0
C9680 C 0.67234 0.1614 0.91197 0.0
H9681 H 0.65328 0.15557 0.90835 0.0
H9682 H 0.66472 0.16138 0.90157 0.0
C9683 C 0.67273 0.15972 0.92016 0.0
C9684 C 0.15112 0.45261 0.18846 0.0
C9685 C 0.15189 0.44427 0.1887 0.0
H9686 H 0.14499 0.46261 0.18325 0.0
C9687 C 0.14644 0.43955 0.18447 0.0
H9688 H 0.15534 0.45635 0.19162 0.0
C9689 C 0.1406 0.44308 0.17972 0.0
C9690 C 0.1401 0.45142 0.17903 0.0
H9691 H 0.14697 0.43311 0.18453 0.0
H9692 H 0.13667 0.43925 0.1763 0.0
C9693 C 0.14522 0.45617 0.18368 0.0
C9694 C 0.85714 0.8668 0.41147 0.0
C9695 C 0.85906 0.86426 0.41922 0.0
H9696 H 0.84921 0.86594 0.40156 0.0
C9697 C 0.85425 0.85839 0.42284 0.0
H9698 H 0.86061 0.87139 0.40852 0.0
C9699 C 0.84758 0.85528 0.41882 0.0
C9700 C 0.84555 0.85808 0.41117 0.0
H9701 H 0.85561 0.85628 0.42879 0.0
H9702 H 0.84386 0.8509 0.42179 0.0
C9703 C 0.85052 0.86374 0.4075 0.0
C9704 C 0.87078 0.07838 0.18252 0.0
C9705 C 0.8661 0.0739 0.18781 0.0
H9706 H 0.88001 0.07837 0.17377 0.0
C9707 C 0.86773 0.06574 0.1888 0.0
H9708 H 0.86958 0.08467 0.18163 0.0
C9709 C 0.87375 0.06208 0.18426 0.0
C9710 C 0.87826 0.06653 0.17872 0.0
H9711 H 0.86415 0.06217 0.19282 0.0
H9712 H 0.87477 0.05574 0.18496 0.0
C9713 C 0.87678 0.07476 0.17805 0.0
C9714 C 0.35191 0.65584 0.59342 0.0
C9715 C 0.35898 0.65403 0.59761 0.0
H9716 H 0.33988 0.66028 0.59415 0.0
C9717 C 0.35964 0.65657 0.6056 0.0
H9718 H 0.35117 0.654 0.58728 0.0
C9719 C 0.35315 0.66 0.60952 0.0
C9720 C 0.34591 0.66122 0.60551 0.0
H9721 H 0.36506 0.65554 0.60897 0.0
H9722 H 0.35366 0.66136 0.61582 0.0
C9723 C 0.34544 0.65943 0.59735 0.0
C9724 C 0.14648 0.57783 0.33237 0.0
C9725 C 0.15201 0.573 0.32839 0.0
H9726 H 0.13667 0.57832 0.3405 0.0
C9727 C 0.15133 0.56467 0.32891 0.0
H9728 H 0.14696 0.58427 0.33209 0.0
C9729 C 0.14542 0.56124 0.33375 0.0
C9730 C 0.14023 0.56612 0.33819 0.0
H9731 H 0.15563 0.56086 0.32595 0.0
H9732 H 0.14525 0.55482 0.33444 0.0
C9733 C 0.14064 0.57443 0.3372 0.0
C9734 C 0.3705 0.4391 0.83513 0.0
C9735 C 0.36592 0.44346 0.82965 0.0
H9736 H 0.37967 0.43931 0.84395 0.0
C9737 C 0.36764 0.45156 0.82842 0.0
H9738 H 0.36925 0.43285 0.8362 0.0
C9739 C 0.37364 0.45532 0.8329 0.0
C9740 C 0.37805 0.45099 0.8386 0.0
H9741 H 0.36413 0.45504 0.82425 0.0
H9742 H 0.37473 0.46162 0.83201 0.0
C9743 C 0.3765 0.44281 0.83954 0.0
C9744 C 0.92273 0.84846 0.64925 0.0
C9745 C 0.92136 0.85644 0.6514 0.0
H9746 H 0.91939 0.83627 0.65073 0.0
C9747 C 0.91593 0.85805 0.65759 0.0
H9748 H 0.92679 0.847 0.64443 0.0
C9749 C 0.91169 0.85186 0.66127 0.0
C9750 C 0.91275 0.84391 0.65882 0.0
H9751 H 0.91482 0.86412 0.65949 0.0
H9752 H 0.90748 0.85335 0.66594 0.0
C9753 C 0.91847 0.84228 0.65289 0.0
C9754 C 0.95435 0.18794 0.36466 0.0
C9755 C 0.94604 0.18883 0.36396 0.0
H9756 H 0.96398 0.18242 0.3711 0.0
C9757 C 0.94106 0.18542 0.36974 0.0
H9758 H 0.95828 0.19045 0.36018 0.0
C9759 C 0.94427 0.18084 0.37591 0.0
C9760 C 0.95254 0.17954 0.37642 0.0
H9761 H 0.93464 0.18598 0.36926 0.0
H9762 H 0.94024 0.17805 0.38012 0.0
C9763 C 0.95759 0.18336 0.37089 0.0
C9764 C 0.60204 0.15967 0.15833 0.0
C9765 C 0.5969 0.16119 0.15187 0.0
H9766 H 0.61033 0.16447 0.16676 0.0
C9767 C 0.5959 0.16909 0.14927 0.0
H9768 H 0.60286 0.15365 0.16052 0.0
C9769 C 0.60025 0.17527 0.15277 0.0
C9770 C 0.60566 0.17373 0.159 0.0
H9771 H 0.59209 0.17044 0.14423 0.0
H9772 H 0.59965 0.18121 0.1503 0.0
C9773 C 0.60635 0.16587 0.16187 0.0
C9774 C 0.5652 0.82845 0.86568 0.0
C9775 C 0.57324 0.82964 0.86366 0.0
H9776 H 0.55549 0.83192 0.8733 0.0
C9777 C 0.57785 0.83494 0.86821 0.0
H9778 H 0.56153 0.82441 0.86222 0.0
C9779 C 0.57445 0.83922 0.87446 0.0
C9780 C 0.56632 0.83833 0.87635 0.0
H9781 H 0.58407 0.83595 0.86675 0.0
H9782 H 0.57814 0.8435 0.87759 0.0
C9783 C 0.56175 0.83279 0.87196 0.0
C9784 C 0.91665 0.15957 0.85965 0.0
C9785 C 0.92136 0.16102 0.86644 0.0
H9786 H 0.9088 0.16447 0.85084 0.0
C9787 C 0.92195 0.16883 0.86937 0.0
H9788 H 0.91612 0.1536 0.85726 0.0
C9789 C 0.91765 0.17502 0.86581 0.0
C9790 C 0.91273 0.17356 0.85916 0.0
H9791 H 0.92541 0.17008 0.87468 0.0
H9792 H 0.91792 0.18088 0.86851 0.0
C9793 C 0.91242 0.16579 0.85602 0.0
C9794 C 0.57742 0.18228 0.64894 0.0
C9795 C 0.5729 0.18754 0.65363 0.0
H9796 H 0.57751 0.17377 0.6395 0.0
C9797 C 0.5648 0.18868 0.65183 0.0
H9798 H 0.58368 0.1813 0.65022 0.0
C9799 C 0.56121 0.18434 0.64563 0.0
C9800 C 0.5657 0.17885 0.64109 0.0
H9801 H 0.56119 0.19268 0.6554 0.0
H9802 H 0.55491 0.18518 0.64446 0.0
C9803 C 0.57388 0.17801 0.64275 0.0
C9804 C 0.59804 0.85541 0.35834 0.0
C9805 C 0.59794 0.85583 0.3667 0.0
H9806 H 0.60246 0.84909 0.34805 0.0
C9807 C 0.60191 0.84998 0.37117 0.0
H9808 H 0.59509 0.85993 0.3548 0.0
C9809 C 0.60601 0.84383 0.36737 0.0
C9810 C 0.60631 0.84348 0.35902 0.0
H9811 H 0.60196 0.85024 0.37763 0.0
H9812 H 0.60912 0.83943 0.37094 0.0
C9813 C 0.60227 0.84928 0.3545 0.0
C9814 C 0.94097 0.83265 0.14804 0.0
C9815 C 0.9459 0.82865 0.15348 0.0
H9816 H 0.94025 0.84041 0.13797 0.0
C9817 C 0.95422 0.82893 0.15243 0.0
H9818 H 0.93454 0.83252 0.14876 0.0
C9819 C 0.95754 0.83355 0.14625 0.0
C9820 C 0.95257 0.83796 0.14111 0.0
H9821 H 0.95813 0.82595 0.15661 0.0
H9822 H 0.96397 0.83404 0.1458 0.0
C9823 C 0.94425 0.8372 0.14191 0.0
C9824 C 0.65834 0.9147 0.85839 0.0
C9825 C 0.65274 0.92074 0.85677 0.0
H9826 H 0.66621 0.90584 0.85369 0.0
C9827 C 0.65128 0.92282 0.84878 0.0
H9828 H 0.65973 0.91305 0.86448 0.0
C9829 C 0.65491 0.91859 0.84257 0.0
C9830 C 0.66016 0.91223 0.84417 0.0
H9831 H 0.64696 0.92738 0.84731 0.0
H9832 H 0.65322 0.92006 0.83652 0.0
C9833 C 0.66203 0.91053 0.85218 0.0
C9834 C 0.83309 0.86922 0.57673 0.0
C9835 C 0.82906 0.8638 0.5718 0.0
H9836 H 0.84088 0.87927 0.57741 0.0
C9837 C 0.82932 0.86485 0.56349 0.0
H9838 H 0.83298 0.86849 0.58315 0.0
C9839 C 0.83393 0.87102 0.56016 0.0
C9840 C 0.83836 0.87616 0.56512 0.0
H9841 H 0.82632 0.86067 0.55959 0.0
H9842 H 0.83439 0.87149 0.55374 0.0
C9843 C 0.83764 0.87535 0.57343 0.0
C9844 C 0.85976 0.10154 0.35815 0.0
C9845 C 0.86634 0.09655 0.35663 0.0
H9846 H 0.85115 0.10966 0.35334 0.0
C9847 C 0.86902 0.09569 0.34874 0.0
H9848 H 0.85753 0.10227 0.36416 0.0
C9849 C 0.86546 0.10001 0.34256 0.0
C9850 C 0.85907 0.10524 0.3441 0.0
H9851 H 0.87415 0.092 0.3474 0.0
H9852 H 0.86798 0.09951 0.33664 0.0
C9853 C 0.85615 0.10581 0.35195 0.0
C9854 C 0.68291 0.14894 0.07728 0.0
C9855 C 0.68808 0.15363 0.07267 0.0
H9856 H 0.67439 0.13951 0.07754 0.0
C9857 C 0.6891 0.15181 0.06456 0.0
H9858 H 0.68202 0.15025 0.08355 0.0
C9859 C 0.68471 0.14559 0.06107 0.0
C9860 C 0.67929 0.14106 0.06565 0.0
H9861 H 0.69304 0.15538 0.06088 0.0
H9862 H 0.68546 0.14441 0.05476 0.0
C9863 C 0.67858 0.14274 0.07383 0.0
C9864 C 0.65922 0.09544 0.66392 0.0
C9865 C 0.65171 0.09787 0.66104 0.0
H9866 H 0.6688 0.09785 0.67214 0.0
C9867 C 0.64808 0.10465 0.66438 0.0
H9868 H 0.66218 0.09027 0.66143 0.0
C9869 C 0.65189 0.10899 0.67034 0.0
C9870 C 0.65938 0.10661 0.67317 0.0
H9871 H 0.64221 0.10658 0.66246 0.0
H9872 H 0.64894 0.11418 0.67282 0.0
C9873 C 0.66302 0.09977 0.66999 0.0
C9874 C 0.68897 0.86547 0.45298 0.0
C9875 C 0.68799 0.86369 0.44486 0.0
H9876 H 0.68529 0.87283 0.4628 0.0
C9877 C 0.68285 0.86842 0.44025 0.0
H9878 H 0.69287 0.86186 0.45666 0.0
C9879 C 0.67852 0.87462 0.4437 0.0
C9880 C 0.67919 0.87626 0.45189 0.0
H9881 H 0.68199 0.86715 0.43397 0.0
H9882 H 0.67437 0.87788 0.43998 0.0
C9883 C 0.68457 0.87169 0.45648 0.0
C9884 C 0.8638 0.92346 0.16686 0.0
C9885 C 0.86596 0.91942 0.15984 0.0
H9886 H 0.85832 0.92282 0.17834 0.0
C9887 C 0.86346 0.91146 0.15895 0.0
H9888 H 0.86553 0.92961 0.16778 0.0
C9889 C 0.85972 0.9074 0.16518 0.0
C9890 C 0.85801 0.91126 0.17245 0.0
H9891 H 0.86468 0.90819 0.15352 0.0
H9892 H 0.85856 0.90112 0.16434 0.0
C9893 C 0.85979 0.91947 0.17303 0.0
C9894 C 0.83289 0.14798 0.94079 0.0
C9895 C 0.82899 0.15353 0.94567 0.0
H9896 H 0.84059 0.13785 0.94017 0.0
C9897 C 0.82935 0.15262 0.95399 0.0
H9898 H 0.83271 0.1486 0.93435 0.0
C9899 C 0.83394 0.14646 0.95737 0.0
C9900 C 0.83826 0.1412 0.95244 0.0
H9901 H 0.82645 0.1569 0.95786 0.0
H9902 H 0.8345 0.14611 0.96379 0.0
C9903 C 0.83743 0.14187 0.94412 0.0
C9904 C 0.85406 0.64769 0.91184 0.0
C9905 C 0.8568 0.65071 0.91916 0.0
H9906 H 0.84609 0.64907 0.902 0.0
C9907 C 0.8532 0.65761 0.9223 0.0
H9908 H 0.85654 0.64227 0.90936 0.0
C9909 C 0.84708 0.66149 0.91807 0.0
C9910 C 0.84457 0.65853 0.91063 0.0
H9911 H 0.85518 0.66006 0.92793 0.0
H9912 H 0.84442 0.66683 0.92052 0.0
C9913 C 0.84807 0.65158 0.90761 0.0
C9914 C 0.35376 0.86912 0.10507 0.0
C9915 C 0.35649 0.86591 0.09782 0.0
H9916 H 0.34588 0.86795 0.11502 0.0
C9917 C 0.35297 0.85886 0.09494 0.0
H9918 H 0.35617 0.87466 0.10736 0.0
C9919 C 0.34693 0.85505 0.09934 0.0
C9920 C 0.34441 0.85822 0.10668 0.0
H9921 H 0.35497 0.85624 0.08939 0.0
H9922 H 0.34431 0.8496 0.09708 0.0
C9923 C 0.34785 0.86529 0.10947 0.0
C9924 C 0.86605 0.56439 0.82901 0.0
C9925 C 0.86423 0.5725 0.83001 0.0
H9926 H 0.87343 0.55459 0.83271 0.0
C9927 C 0.86892 0.57712 0.83518 0.0
H9928 H 0.86248 0.56071 0.82508 0.0
C9929 C 0.87511 0.57367 0.83952 0.0
C9930 C 0.87678 0.56548 0.83885 0.0
H9931 H 0.86761 0.58338 0.83604 0.0
H9932 H 0.87834 0.57738 0.8437 0.0
C9933 C 0.87226 0.5609 0.83343 0.0
C9934 C 0.15919 0.1575 0.60282 0.0
C9935 C 0.1609 0.15199 0.59673 0.0
H9936 H 0.16375 0.16535 0.61174 0.0
C9937 C 0.16891 0.15067 0.59464 0.0
H9938 H 0.15307 0.15876 0.60447 0.0
C9939 C 0.17507 0.15434 0.59891 0.0
C9940 C 0.17339 0.15949 0.60533 0.0
H9941 H 0.17045 0.14643 0.59003 0.0
H9942 H 0.18115 0.15274 0.59743 0.0
C9943 C 0.16534 0.16123 0.60703 0.0
C9944 C 0.14827 0.94035 0.83246 0.0
C9945 C 0.15383 0.94529 0.82864 0.0
H9946 H 0.13818 0.93962 0.84022 0.0
C9947 C 0.15294 0.95361 0.82916 0.0
H9948 H 0.14888 0.93392 0.83218 0.0
C9949 C 0.14681 0.95691 0.83382 0.0
C9950 C 0.14155 0.95191 0.83807 0.0
H9951 H 0.15724 0.95752 0.82632 0.0
H9952 H 0.14648 0.96332 0.8345 0.0
C9953 C 0.14219 0.94361 0.8371 0.0
C9954 C 0.65937 0.3595 0.41518 0.0
C9955 C 0.66101 0.3654 0.42092 0.0
H9956 H 0.66405 0.35144 0.40649 0.0
C9957 C 0.66901 0.36722 0.42264 0.0
H9958 H 0.65328 0.35784 0.41382 0.0
C9959 C 0.67521 0.3636 0.41837 0.0
C9960 C 0.67356 0.35803 0.4123 0.0
H9961 H 0.6705 0.37178 0.42695 0.0
H9962 H 0.68126 0.36553 0.41955 0.0
C9963 C 0.66556 0.35585 0.41095 0.0
C9964 C 0.86875 0.44013 0.68243 0.0
C9965 C 0.86406 0.44467 0.68766 0.0
H9966 H 0.87819 0.43998 0.67391 0.0
C9967 C 0.86587 0.45277 0.68875 0.0
H9968 H 0.86746 0.43386 0.68149 0.0
C9969 C 0.87207 0.45633 0.68438 0.0
C9970 C 0.87661 0.45181 0.67891 0.0
H9971 H 0.86229 0.45639 0.69273 0.0
H9972 H 0.87323 0.46263 0.68517 0.0
C9973 C 0.87494 0.44364 0.67813 0.0
C9974 C 0.65298 0.56373 0.18873 0.0
C9975 C 0.654 0.57203 0.18909 0.0
H9976 H 0.6463 0.55404 0.18364 0.0
C9977 C 0.64849 0.57701 0.18525 0.0
H9978 H 0.65724 0.5598 0.19159 0.0
C9979 C 0.64229 0.57377 0.18076 0.0
C9980 C 0.6415 0.56546 0.17994 0.0
H9981 H 0.6492 0.58343 0.18543 0.0
H9982 H 0.63829 0.57778 0.17765 0.0
C9983 C 0.64674 0.56045 0.18419 0.0
C9984 C 0.60202 0.65802 0.85804 0.0
C9985 C 0.59666 0.65921 0.86437 0.0
H9986 H 0.61012 0.66332 0.84972 0.0
C9987 C 0.59515 0.66703 0.86696 0.0
H9988 H 0.60325 0.65207 0.85586 0.0
C9989 C 0.59922 0.67348 0.86357 0.0
C9990 C 0.60484 0.6723 0.85743 0.0
H9991 H 0.59114 0.66813 0.8719 0.0
H9992 H 0.59822 0.67935 0.86607 0.0
C9993 C 0.60601 0.66449 0.85456 0.0
C9994 C 0.56557 0.32852 0.15046 0.0
C9995 C 0.57386 0.32862 0.15163 0.0
H9996 H 0.55566 0.33344 0.14394 0.0
C9997 C 0.57868 0.33314 0.14651 0.0
H9998 H 0.56176 0.32511 0.15442 0.0
C9999 C 0.57525 0.33785 0.14058 0.0
C10000 C 0.56692 0.33821 0.1397 0.0
H10001 H 0.58509 0.33332 0.14735 0.0
H10002 H 0.57913 0.34148 0.1369 0.0
C10003 C 0.5621 0.33327 0.14449 0.0
C10004 C 0.91358 0.3591 0.35944 0.0
C10005 C 0.92103 0.35821 0.36327 0.0
H10006 H 0.90374 0.35329 0.35368 0.0
C10007 C 0.92482 0.35072 0.36289 0.0
H10008 H 0.91055 0.3648 0.35938 0.0
C10009 C 0.92097 0.34417 0.35938 0.0
C10010 C 0.91328 0.34499 0.3562 0.0
H10011 H 0.93052 0.34975 0.36577 0.0
H10012 H 0.92378 0.33835 0.35963 0.0
C10013 C 0.90971 0.35254 0.35606 0.0
C10014 C 0.95309 0.68864 0.65059 0.0
C10015 C 0.94476 0.6887 0.65152 0.0
H10016 H 0.96308 0.68354 0.64434 0.0
C10017 C 0.94001 0.6843 0.64624 0.0
H10018 H 0.95685 0.69194 0.65467 0.0
C10019 C 0.94352 0.67955 0.64039 0.0
C10020 C 0.95187 0.67902 0.63974 0.0
H10021 H 0.93358 0.68424 0.64689 0.0
H10022 H 0.93969 0.676 0.63659 0.0
C10023 C 0.95663 0.68384 0.64469 0.0
C10024 C 0.59526 0.35025 0.6504 0.0
C10025 C 0.59668 0.35805 0.65308 0.0
H10026 H 0.59842 0.33795 0.65121 0.0
C10027 C 0.60196 0.35922 0.65948 0.0
H10028 H 0.59132 0.34918 0.6454 0.0
C10029 C 0.60595 0.35275 0.66295 0.0
C10030 C 0.60487 0.34496 0.66 0.0
H10031 H 0.60312 0.36517 0.66171 0.0
H10032 H 0.60999 0.35391 0.66785 0.0
C10033 C 0.59935 0.3438 0.65377 0.0
C10034 C 0.9398 0.33236 0.87133 0.0
C10035 C 0.94461 0.32847 0.86571 0.0
H10036 H 0.93934 0.34039 0.88122 0.0
C10037 C 0.95295 0.3291 0.86629 0.0
H10038 H 0.93336 0.33201 0.87093 0.0
C10039 C 0.95641 0.33393 0.87219 0.0
C10040 C 0.95154 0.33827 0.87748 0.0
H10041 H 0.95674 0.32622 0.86192 0.0
H10042 H 0.96283 0.33468 0.87228 0.0
C10043 C 0.94323 0.33719 0.87716 0.0
C10044 C 0.92087 0.66679 0.14838 0.0
C10045 C 0.92199 0.65998 0.15307 0.0
H10046 H 0.91583 0.67845 0.14752 0.0
C10047 C 0.91925 0.65996 0.161 0.0
H10048 H 0.92285 0.66688 0.14223 0.0
C10049 C 0.91516 0.66661 0.16407 0.0
C10050 C 0.91365 0.67329 0.1592 0.0
H10051 H 0.91999 0.65471 0.16468 0.0
H10052 H 0.9128 0.66635 0.17008 0.0
C10053 C 0.91678 0.67337 0.15141 0.0
C10054 C 0.56512 0.68492 0.36436 0.0
C10055 C 0.57248 0.68873 0.36574 0.0
H10056 H 0.5561 0.6771 0.36902 0.0
C10057 C 0.57597 0.68818 0.37334 0.0
H10058 H 0.5623 0.68525 0.35856 0.0
C10059 C 0.57245 0.68347 0.37927 0.0
C10060 C 0.56531 0.67937 0.37775 0.0
H10061 H 0.58168 0.69094 0.37454 0.0
H10062 H 0.5755 0.68271 0.38492 0.0
C10063 C 0.56155 0.68031 0.37034 0.0
C10064 C 0.8679 0.60561 0.66091 0.0
C10065 C 0.86502 0.59806 0.65869 0.0
H10066 H 0.86731 0.61532 0.66908 0.0
C10067 C 0.85888 0.59459 0.66326 0.0
H10068 H 0.87269 0.60843 0.65762 0.0
C10069 C 0.8558 0.59857 0.66998 0.0
C10070 C 0.85891 0.60602 0.6723 0.0
H10071 H 0.85651 0.5888 0.66167 0.0
H10072 H 0.85119 0.59571 0.6735 0.0
C10073 C 0.86487 0.60953 0.66757 0.0
C10074 C 0.6888 0.65091 0.9526 0.0
C10075 C 0.6893 0.6516 0.94427 0.0
H10076 H 0.68338 0.64474 0.96247 0.0
C10077 C 0.68538 0.64603 0.93944 0.0
H10078 H 0.69172 0.65524 0.9564 0.0
C10079 C 0.68063 0.64012 0.94285 0.0
C10080 C 0.67968 0.63968 0.95117 0.0
H10081 H 0.68564 0.64652 0.933 0.0
H10082 H 0.6774 0.6361 0.93896 0.0
C10083 C 0.68404 0.64494 0.95604 0.0
C10084 C 0.65982 0.41595 0.15825 0.0
C10085 C 0.65374 0.42162 0.15942 0.0
H10086 H 0.66773 0.40745 0.16354 0.0
C10087 C 0.65125 0.42325 0.16725 0.0
H10088 H 0.66194 0.41461 0.15229 0.0
C10089 C 0.65445 0.41903 0.17371 0.0
C10090 C 0.66031 0.41311 0.17253 0.0
H10091 H 0.6465 0.42749 0.16836 0.0
H10092 H 0.65201 0.42016 0.17957 0.0
C10093 C 0.6631 0.4118 0.16471 0.0
C10094 C 0.82926 0.36615 0.45259 0.0
C10095 C 0.82867 0.36554 0.44426 0.0
H10096 H 0.83474 0.37225 0.46245 0.0
C10097 C 0.83251 0.37119 0.43944 0.0
H10098 H 0.8264 0.36177 0.45639 0.0
C10099 C 0.83727 0.37709 0.44286 0.0
C10100 C 0.8383 0.37744 0.45117 0.0
H10101 H 0.83219 0.37076 0.433 0.0
H10102 H 0.84043 0.38116 0.43896 0.0
C10103 C 0.83402 0.37212 0.45604 0.0
C10104 C 0.85975 0.41294 0.85918 0.0
C10105 C 0.86348 0.42043 0.85826 0.0
H10106 H 0.8541 0.40302 0.85341 0.0
C10107 C 0.86302 0.42421 0.85076 0.0
H10108 H 0.85974 0.40992 0.86489 0.0
C10109 C 0.85953 0.42031 0.84423 0.0
C10110 C 0.85647 0.41257 0.84508 0.0
H10111 H 0.86582 0.42994 0.84977 0.0
H10112 H 0.85971 0.42311 0.83841 0.0
C10113 C 0.8564 0.40901 0.85264 0.0
C10114 C 0.82944 0.651 0.06475 0.0
C10115 C 0.82893 0.65156 0.0731 0.0
H10116 H 0.8349 0.64503 0.05479 0.0
C10117 C 0.83288 0.64592 0.07783 0.0
H10118 H 0.82651 0.65537 0.06101 0.0
C10119 C 0.83767 0.64009 0.07433 0.0
C10120 C 0.83863 0.63979 0.066 0.0
H10121 H 0.83262 0.6463 0.08428 0.0
H10122 H 0.84093 0.63603 0.07816 0.0
C10123 C 0.83423 0.6451 0.06122 0.0
C10124 C 0.65969 0.60167 0.35948 0.0
C10125 C 0.65353 0.59609 0.35831 0.0
H10126 H 0.66779 0.60997 0.35417 0.0
C10127 C 0.65111 0.59439 0.35047 0.0
H10128 H 0.66177 0.60304 0.36544 0.0
C10129 C 0.65444 0.59848 0.344 0.0
C10130 C 0.66037 0.60432 0.34517 0.0
H10131 H 0.64631 0.59022 0.34935 0.0
H10132 H 0.65205 0.59731 0.33812 0.0
C10133 C 0.6631 0.60569 0.353 0.0
C10134 C 0.68849 0.36625 0.5648 0.0
C10135 C 0.68921 0.36575 0.57313 0.0
H10136 H 0.68289 0.37223 0.55492 0.0
C10137 C 0.68545 0.37147 0.57791 0.0
H10138 H 0.69128 0.36181 0.56102 0.0
C10139 C 0.68066 0.37734 0.57448 0.0
C10140 C 0.6795 0.37759 0.56618 0.0
H10141 H 0.68586 0.37113 0.58435 0.0
H10142 H 0.67755 0.38148 0.57836 0.0
C10143 C 0.68371 0.37219 0.56133 0.0
C10144 C 0.66097 0.85639 0.5978 0.0
C10145 C 0.66052 0.86456 0.596 0.0
H10146 H 0.66764 0.84709 0.60363 0.0
C10147 C 0.66689 0.86954 0.59809 0.0
H10148 H 0.65606 0.85246 0.5963 0.0
C10149 C 0.67346 0.86652 0.60219 0.0
C10150 C 0.67378 0.85844 0.60445 0.0
H10151 H 0.66664 0.87587 0.5968 0.0
H10152 H 0.67819 0.87061 0.60381 0.0
C10153 C 0.66758 0.85333 0.60198 0.0
C10154 C 0.16129 0.66091 0.42005 0.0
C10155 C 0.16052 0.65266 0.42129 0.0
H10156 H 0.16816 0.67029 0.41459 0.0
C10157 C 0.16654 0.64755 0.41857 0.0
H10158 H 0.15666 0.66494 0.42206 0.0
C10159 C 0.17308 0.65055 0.41442 0.0
C10160 C 0.17371 0.65875 0.41271 0.0
H10161 H 0.16604 0.64117 0.41945 0.0
H10162 H 0.17755 0.64637 0.41234 0.0
C10163 C 0.16786 0.66395 0.41579 0.0
C10164 C 0.64611 0.93966 0.68611 0.0
C10165 C 0.65215 0.94445 0.68933 0.0
H10166 H 0.63582 0.93913 0.67859 0.0
C10167 C 0.65196 0.95273 0.68807 0.0
H10168 H 0.64623 0.93325 0.68693 0.0
C10169 C 0.64597 0.95612 0.68331 0.0
C10170 C 0.64022 0.95123 0.67965 0.0
H10171 H 0.65666 0.95649 0.69043 0.0
H10172 H 0.64613 0.96246 0.68208 0.0
C10173 C 0.6402 0.94302 0.68131 0.0
C10174 C 0.35715 0.35639 0.91998 0.0
C10175 C 0.35789 0.36464 0.92119 0.0
H10176 H 0.35029 0.34698 0.91459 0.0
C10177 C 0.35183 0.36972 0.91851 0.0
H10178 H 0.36181 0.35238 0.92197 0.0
C10179 C 0.34528 0.36669 0.91441 0.0
C10180 C 0.34467 0.35848 0.91273 0.0
H10181 H 0.3523 0.37611 0.91936 0.0
H10182 H 0.34077 0.37084 0.91235 0.0
C10183 C 0.35056 0.35332 0.91578 0.0
C10184 C 0.37085 0.57823 0.68268 0.0
C10185 C 0.36611 0.57375 0.68792 0.0
H10186 H 0.38011 0.57819 0.67396 0.0
C10187 C 0.36765 0.56558 0.68885 0.0
H10188 H 0.36973 0.58454 0.68184 0.0
C10189 C 0.37364 0.56188 0.6843 0.0
C10190 C 0.3782 0.56633 0.6788 0.0
H10191 H 0.36401 0.56201 0.69282 0.0
H10192 H 0.37459 0.55553 0.68496 0.0
C10193 C 0.37683 0.57458 0.6782 0.0
C10194 C 0.85973 0.15639 0.1056 0.0
C10195 C 0.85909 0.1539 0.0976 0.0
H10196 H 0.8537 0.16105 0.11586 0.0
C10197 C 0.85202 0.1557 0.09342 0.0
H10198 H 0.86515 0.15537 0.10897 0.0
C10199 C 0.84551 0.15921 0.09736 0.0
C10200 C 0.84597 0.16092 0.10554 0.0
H10201 H 0.85129 0.1539 0.08726 0.0
H10202 H 0.83995 0.16005 0.09417 0.0
C10203 C 0.85321 0.15974 0.10955 0.0
C10204 C 0.65133 0.06474 0.82908 0.0
C10205 C 0.65203 0.07307 0.82871 0.0
H10206 H 0.64527 0.05479 0.83447 0.0
C10207 C 0.64656 0.07783 0.83285 0.0
H10208 H 0.65557 0.06097 0.82598 0.0
C10209 C 0.64075 0.07435 0.83769 0.0
C10210 C 0.64032 0.06602 0.83851 0.0
H10211 H 0.64705 0.08427 0.8327 0.0
H10212 H 0.63682 0.07819 0.84108 0.0
C10213 C 0.64546 0.06122 0.83392 0.0
C10214 C 0.8709 0.93892 0.33484 0.0
C10215 C 0.86617 0.94343 0.32962 0.0
H10216 H 0.88015 0.93891 0.34357 0.0
C10217 C 0.86772 0.9516 0.32873 0.0
H10218 H 0.86976 0.93261 0.33566 0.0
C10219 C 0.87371 0.95527 0.33329 0.0
C10220 C 0.87827 0.95079 0.33877 0.0
H10221 H 0.86409 0.9552 0.32477 0.0
H10222 H 0.87467 0.96162 0.33266 0.0
C10223 C 0.87688 0.94254 0.33935 0.0
C10224 C 0.4149 0.35105 0.14647 0.0
C10225 C 0.42027 0.35592 0.15068 0.0
H10226 H 0.40649 0.34145 0.14696 0.0
C10227 C 0.42143 0.35455 0.15888 0.0
H10228 H 0.41394 0.35191 0.14013 0.0
C10229 C 0.41712 0.34851 0.16279 0.0
C10230 C 0.41166 0.34379 0.15853 0.0
H10231 H 0.42549 0.35825 0.16227 0.0
H10232 H 0.41797 0.34757 0.16913 0.0
C10233 C 0.41064 0.34507 0.15035 0.0
C10234 C 0.45414 0.68844 0.86523 0.0
C10235 C 0.44585 0.68852 0.86402 0.0
H10236 H 0.46389 0.68347 0.87196 0.0
C10237 C 0.44091 0.68431 0.86929 0.0
H10238 H 0.45806 0.69161 0.86118 0.0
C10239 C 0.44419 0.67973 0.87541 0.0
C10240 C 0.45251 0.67917 0.87637 0.0
H10241 H 0.4345 0.68429 0.86846 0.0
H10242 H 0.44019 0.67637 0.87922 0.0
C10243 C 0.45746 0.6838 0.87139 0.0
C10244 C 0.09747 0.66214 0.65909 0.0
C10245 C 0.09782 0.66143 0.65075 0.0
H10246 H 0.10147 0.66869 0.66941 0.0
C10247 C 0.10217 0.66706 0.64633 0.0
H10248 H 0.0942 0.6578 0.6626 0.0
C10249 C 0.10622 0.67322 0.65016 0.0
C10250 C 0.10605 0.67383 0.65848 0.0
H10251 H 0.10255 0.6666 0.63989 0.0
H10252 H 0.10962 0.67743 0.64663 0.0
C10253 C 0.10163 0.66829 0.66296 0.0
C10254 C 0.0645 0.32889 0.36513 0.0
C10255 C 0.07277 0.32933 0.36388 0.0
H10256 H 0.05451 0.33302 0.372 0.0
C10257 C 0.07744 0.33396 0.36905 0.0
H10258 H 0.06079 0.3254 0.36116 0.0
C10259 C 0.0739 0.33835 0.37517 0.0
C10260 C 0.06558 0.33824 0.37628 0.0
H10261 H 0.08383 0.33442 0.36816 0.0
H10262 H 0.07769 0.34214 0.37876 0.0
C10263 C 0.06093 0.33332 0.37127 0.0
C10264 C 0.42283 0.66404 0.36008 0.0
C10265 C 0.41982 0.66088 0.36726 0.0
H10266 H 0.42108 0.67251 0.35056 0.0
C10267 C 0.41277 0.66412 0.37046 0.0
H10268 H 0.42824 0.66166 0.35747 0.0
C10269 C 0.40868 0.67016 0.36649 0.0
C10270 C 0.41157 0.67322 0.35927 0.0
H10271 H 0.4104 0.66199 0.37608 0.0
H10272 H 0.40326 0.67251 0.36912 0.0
C10273 C 0.41874 0.6702 0.35612 0.0
C10274 C 0.07751 0.68152 0.14939 0.0
C10275 C 0.07306 0.68718 0.15367 0.0
H10276 H 0.07761 0.67273 0.14021 0.0
C10277 C 0.06514 0.6887 0.1514 0.0
H10278 H 0.08364 0.68026 0.15102 0.0
C10279 C 0.06163 0.68434 0.14515 0.0
C10280 C 0.06604 0.67849 0.14102 0.0
H10281 H 0.06159 0.69302 0.15464 0.0
H10282 H 0.05546 0.68548 0.14363 0.0
C10283 C 0.07406 0.67725 0.14315 0.0
C10284 C 0.09494 0.35181 0.86061 0.0
C10285 C 0.09871 0.3568 0.8662 0.0
H10286 H 0.09619 0.34191 0.85256 0.0
C10287 C 0.10681 0.35548 0.86797 0.0
H10288 H 0.08872 0.35269 0.8591 0.0
C10289 C 0.11105 0.3494 0.86424 0.0
C10290 C 0.10733 0.34441 0.85864 0.0
H10291 H 0.10985 0.35905 0.87241 0.0
H10292 H 0.11722 0.34846 0.86593 0.0
C10293 C 0.09922 0.34566 0.85686 0.0
C10294 C 0.45414 0.32886 0.65249 0.0
C10295 C 0.44583 0.32864 0.65356 0.0
H10296 H 0.46392 0.33392 0.64586 0.0
C10297 C 0.44091 0.3327 0.64816 0.0
H10298 H 0.45804 0.32582 0.65665 0.0
C10299 C 0.44421 0.33726 0.64204 0.0
C10300 C 0.45254 0.33796 0.64122 0.0
H10301 H 0.43448 0.33263 0.64889 0.0
H10302 H 0.44023 0.34052 0.63813 0.0
C10303 C 0.45748 0.33348 0.64633 0.0
C10304 C 0.15877 0.41574 0.3579 0.0
C10305 C 0.15253 0.42114 0.35629 0.0
H10306 H 0.16692 0.40709 0.35325 0.0
C10307 C 0.15007 0.42217 0.34835 0.0
H10308 H 0.16088 0.41487 0.36394 0.0
C10309 C 0.15348 0.41765 0.34222 0.0
C10310 C 0.15949 0.41201 0.34387 0.0
H10311 H 0.14521 0.42617 0.3469 0.0
H10312 H 0.15112 0.41833 0.33625 0.0
C10313 C 0.1622 0.41125 0.35177 0.0
C10314 C 0.33276 0.36926 0.07664 0.0
C10315 C 0.32886 0.36368 0.07179 0.0
H10316 H 0.34039 0.37945 0.0772 0.0
C10317 C 0.32918 0.36458 0.06347 0.0
H10318 H 0.33261 0.36865 0.08308 0.0
C10319 C 0.33372 0.37075 0.06006 0.0
C10320 C 0.33802 0.37606 0.06494 0.0
H10321 H 0.32628 0.36028 0.05963 0.0
H10322 H 0.33423 0.37109 0.05363 0.0
C10323 C 0.33725 0.37539 0.07327 0.0
C10324 C 0.36349 0.60596 0.85849 0.0
C10325 C 0.36592 0.59798 0.85758 0.0
H10326 H 0.35865 0.61633 0.85312 0.0
C10327 C 0.36369 0.59394 0.85058 0.0
H10328 H 0.36478 0.60922 0.8639 0.0
C10329 C 0.35967 0.59796 0.84444 0.0
C10330 C 0.35796 0.60619 0.84503 0.0
H10331 H 0.36536 0.58778 0.84965 0.0
H10332 H 0.35813 0.59463 0.83914 0.0
C10333 C 0.35975 0.61004 0.85228 0.0
C10334 C 0.18894 0.65204 0.56444 0.0
C10335 C 0.18807 0.65366 0.57261 0.0
H10336 H 0.18514 0.64486 0.55453 0.0
C10337 C 0.18303 0.64882 0.5772 0.0
H10338 H 0.19277 0.65574 0.56077 0.0
C10339 C 0.17866 0.64268 0.57369 0.0
C10340 C 0.17921 0.6412 0.56546 0.0
H10341 H 0.18225 0.64997 0.58351 0.0
H10342 H 0.17457 0.63933 0.57741 0.0
C10343 C 0.18451 0.64588 0.56088 0.0
C10344 C 0.15226 0.59412 0.16819 0.0
C10345 C 0.15269 0.59695 0.16033 0.0
H10346 H 0.15486 0.5961 0.18039 0.0
C10347 C 0.15745 0.60367 0.15877 0.0
H10348 H 0.14864 0.58896 0.16963 0.0
C10349 C 0.16127 0.60775 0.16496 0.0
C10350 C 0.16028 0.60537 0.17299 0.0
H10351 H 0.15809 0.60591 0.15274 0.0
H10352 H 0.16485 0.61285 0.16335 0.0
C10353 C 0.15591 0.5983 0.17443 0.0
C10354 C 0.18297 0.36836 0.94015 0.0
C10355 C 0.18807 0.36359 0.94477 0.0
H10356 H 0.17452 0.37785 0.93988 0.0
C10357 C 0.189 0.36533 0.9529 0.0
H10358 H 0.18215 0.36712 0.93386 0.0
C10359 C 0.18461 0.37154 0.95641 0.0
C10360 C 0.17927 0.37616 0.95181 0.0
H10361 H 0.19287 0.36169 0.95659 0.0
H10362 H 0.18529 0.37265 0.96274 0.0
C10363 C 0.17864 0.37455 0.94361 0.0
C10364 C 0.36296 0.41177 0.65874 0.0
C10365 C 0.3659 0.41956 0.65984 0.0
H10366 H 0.35782 0.40146 0.6639 0.0
C10367 C 0.36421 0.42341 0.6671 0.0
H10368 H 0.36379 0.40868 0.65314 0.0
C10369 C 0.36023 0.41936 0.67326 0.0
C10370 C 0.35806 0.41126 0.67244 0.0
H10371 H 0.36626 0.42942 0.6682 0.0
H10372 H 0.35911 0.42258 0.67873 0.0
C10373 C 0.3593 0.40764 0.66496 0.0
C10374 C 0.32939 0.65262 0.45393 0.0
C10375 C 0.32899 0.65354 0.44561 0.0
H10376 H 0.33458 0.6461 0.4637 0.0
C10377 C 0.33286 0.64799 0.4407 0.0
H10378 H 0.32651 0.6569 0.45781 0.0
C10379 C 0.33742 0.64187 0.44402 0.0
C10380 C 0.33828 0.64119 0.45233 0.0
H10381 H 0.33265 0.64861 0.43427 0.0
H10382 H 0.34054 0.63785 0.44005 0.0
C10383 C 0.33399 0.64646 0.45728 0.0
C10384 C 0.35244 0.15696 0.42299 0.0
C10385 C 0.35721 0.15114 0.41928 0.0
H10386 H 0.3427 0.16522 0.42171 0.0
C10387 C 0.35565 0.14915 0.41128 0.0
H10388 H 0.3535 0.15863 0.42914 0.0
C10389 C 0.34956 0.15292 0.40707 0.0
C10390 C 0.34481 0.15876 0.41073 0.0
H10391 H 0.35904 0.14454 0.4083 0.0
H10392 H 0.34845 0.15109 0.40098 0.0
C10393 C 0.34628 0.16074 0.41875 0.0
C10394 C 0.85211 0.35983 0.59437 0.0
C10395 C 0.857 0.3657 0.59784 0.0
H10396 H 0.84243 0.35159 0.59609 0.0
C10397 C 0.85575 0.36774 0.60588 0.0
H10398 H 0.85296 0.35809 0.58821 0.0
C10399 C 0.84982 0.36402 0.61036 0.0
C10400 C 0.84491 0.35818 0.60693 0.0
H10401 H 0.85926 0.37237 0.6087 0.0
H10402 H 0.84892 0.36591 0.61647 0.0
C10403 C 0.84612 0.3561 0.59888 0.0
C10404 C 0.36582 0.06462 0.32886 0.0
C10405 C 0.36406 0.07275 0.32983 0.0
H10406 H 0.37312 0.05477 0.33259 0.0
C10407 C 0.36879 0.07734 0.33498 0.0
H10408 H 0.36221 0.06095 0.32495 0.0
C10409 C 0.37497 0.07385 0.33933 0.0
C10410 C 0.37658 0.06565 0.33868 0.0
H10411 H 0.36754 0.08362 0.33582 0.0
H10412 H 0.37823 0.07756 0.34349 0.0
C10413 C 0.37201 0.06109 0.33329 0.0
C10414 C 0.66589 0.65722 0.09417 0.0
C10415 C 0.6609 0.65147 0.09771 0.0
H10416 H 0.67566 0.66538 0.0958 0.0
C10417 C 0.66206 0.64957 0.1058 0.0
H10418 H 0.66512 0.65886 0.08797 0.0
C10419 C 0.66801 0.6533 0.11025 0.0
C10420 C 0.67302 0.65902 0.10674 0.0
H10421 H 0.65848 0.64503 0.10868 0.0
H10422 H 0.66883 0.6515 0.1164 0.0
C10423 C 0.6719 0.66097 0.09865 0.0
C10424 C 0.65294 0.45373 0.3291 0.0
C10425 C 0.65377 0.44542 0.32856 0.0
H10426 H 0.64646 0.46347 0.33437 0.0
C10427 C 0.64812 0.4405 0.33227 0.0
H10428 H 0.6573 0.45762 0.32634 0.0
C10429 C 0.64198 0.44379 0.33681 0.0
C10430 C 0.64138 0.45209 0.33781 0.0
H10431 H 0.64869 0.43407 0.33197 0.0
H10432 H 0.63788 0.4398 0.33983 0.0
C10433 C 0.64675 0.45706 0.33368 0.0
C10434 C 0.16505 0.85988 0.92264 0.0
C10435 C 0.16107 0.86644 0.91922 0.0
H10436 H 0.17416 0.85093 0.92115 0.0
C10437 C 0.16347 0.86911 0.91164 0.0
H10438 H 0.16334 0.85769 0.92847 0.0
C10439 C 0.16951 0.86524 0.90748 0.0
C10440 C 0.17341 0.85862 0.9108 0.0
H10441 H 0.16071 0.87428 0.90893 0.0
H10442 H 0.17124 0.86751 0.90168 0.0
C10443 C 0.1712 0.85601 0.91846 0.0
C10444 C 0.36565 0.95284 0.18891 0.0
C10445 C 0.36386 0.94474 0.18778 0.0
H10446 H 0.37298 0.96274 0.18536 0.0
C10447 C 0.36857 0.94023 0.18253 0.0
H10448 H 0.36207 0.95643 0.19291 0.0
C10449 C 0.37474 0.94378 0.17823 0.0
C10450 C 0.37637 0.95196 0.17905 0.0
H10451 H 0.3673 0.93397 0.18156 0.0
H10452 H 0.37799 0.94015 0.17399 0.0
C10453 C 0.37183 0.95644 0.18454 0.0
C10454 C 0.14849 0.07698 0.68474 0.0
C10455 C 0.15389 0.07205 0.6888 0.0
H10456 H 0.13847 0.07768 0.67691 0.0
C10457 C 0.1528 0.06375 0.68858 0.0
H10458 H 0.14924 0.0834 0.68481 0.0
C10459 C 0.14664 0.06042 0.68396 0.0
C10460 C 0.14154 0.06538 0.67948 0.0
H10461 H 0.15696 0.05984 0.69162 0.0
H10462 H 0.14616 0.054 0.68352 0.0
C10463 C 0.14237 0.07369 0.68017 0.0
loop_
_geom_bond_atom_site_label_1
_geom_bond_atom_site_label_2
_geom_bond_distance
_geom_bond_site_symmetry_2
_ccdc_geom_bond_type
C0 C1 1.264 . S
C0 C5 1.479 . S
C0 C10 1.465 . S
C1 C0 1.264 . S
C1 C3 1.339 . S
C1 H28 0.931 . S
C2 C3 1.395 . S
C2 C4 1.320 . S
C3 C1 1.339 . S
C3 C2 1.395 . S
C3 H29 0.929 . S
C4 C2 1.320 . S
C4 C5 1.405 . S
C4 H30 0.930 . S
C5 C0 1.479 . S
C5 C4 1.405 . S
C5 H31 0.931 . S
U6 O7 2.454 . S
U6 O8 2.458 . S
U6 C9 2.984 . S
U6 C10 2.847 . S
U6 C23 2.882 . S
U6 O24 2.441 . S
U6 O25 2.420 . S
U6 O26 2.455 . S
U6 O27 2.449 . S
O7 U6 2.454 . S
O7 C9 1.353 . S
O8 U6 2.458 . S
O8 C9 1.286 . S
C9 U6 2.984 . S
C9 O7 1.353 . S
C9 O8 1.286 . S
C9 C11 1.363 . S
C10 C0 1.465 . S
C10 U6 2.847 . S
C10 O24 1.249 . S
C10 O25 1.202 . S
C11 C9 1.363 . S
C11 C13 1.408 . S
C11 C16 1.342 . S
C12 C13 1.310 . S
C12 C15 1.461 . S
C12 H32 0.932 . S
C13 C11 1.408 . S
C13 C12 1.310 . S
C13 H33 0.930 . S
C14 C15 1.474 . S
C14 C16 1.285 . S
C14 H34 0.929 . S
C15 C12 1.461 . S
C15 C14 1.474 . S
C16 C11 1.342 . S
C16 C14 1.285 . S
C16 H35 0.930 . S
C17 C20 1.424 . S
C17 C22 1.245 . S
C17 C23 1.428 . S
C18 C21 1.260 . S
C18 C22 1.477 . S
C18 H36 0.932 . S
C19 C20 1.384 . S
C19 C21 1.479 . S
C19 H37 0.929 . S
C20 C17 1.424 . S
C20 C19 1.384 . S
C20 H38 0.928 . S
C21 C18 1.260 . S
C21 C19 1.479 . S
C22 C17 1.245 . S
C22 C18 1.477 . S
C22 H39 0.932 . S
C23 U6 2.882 . S
C23 C17 1.428 . S
C23 O26 1.301 . S
C23 O27 1.282 . S
O24 U6 2.441 . S
O24 C10 1.249 . S
O25 U6 2.420 . S
O25 C10 1.202 . S
O26 U6 2.455 . S
O26 C23 1.301 . S
O27 U6 2.449 . S
O27 C23 1.282 . S
H28 C1 0.931 . S
H29 C3 0.929 . S
H30 C4 0.930 . S
H31 C5 0.931 . S
H32 C12 0.932 . S
H33 C13 0.930 . S
H34 C14 0.929 . S
H35 C16 0.930 . S
H36 C18 0.932 . S
H37 C19 0.929 . S
H38 C20 0.928 . S
H39 C22 0.932 . S
C40 C41 1.264 . S
C40 C45 1.479 . S
C40 C50 1.465 . S
C41 C40 1.264 . S
C41 C43 1.339 . S
C41 H68 0.931 . S
C42 C43 1.395 . S
C42 C44 1.320 . S
C43 C41 1.339 . S
C43 C42 1.395 . S
C43 H69 0.929 . S
C44 C42 1.320 . S
C44 C45 1.405 . S
C44 H70 0.930 . S
C45 C40 1.479 . S
C45 C44 1.405 . S
C45 H71 0.931 . S
U46 O47 2.454 . S
U46 O48 2.458 . S
U46 C49 2.984 . S
U46 C50 2.847 . S
U46 C63 2.882 . S
U46 O64 2.441 . S
U46 O65 2.420 . S
U46 O66 2.455 . S
U46 O67 2.449 . S
O47 U46 2.454 . S
O47 C49 1.353 . S
O48 U46 2.458 . S
O48 C49 1.286 . S
C49 U46 2.984 . S
C49 O47 1.353 . S
C49 O48 1.286 . S
C49 C51 1.363 . S
C50 C40 1.465 . S
C50 U46 2.847 . S
C50 O64 1.249 . S
C50 O65 1.202 . S
C51 C49 1.363 . S
C51 C53 1.408 . S
C51 C56 1.342 . S
C52 C53 1.310 . S
C52 C55 1.461 . S
C52 H72 0.932 . S
C53 C51 1.408 . S
C53 C52 1.310 . S
C53 H73 0.930 . S
C54 C55 1.474 . S
C54 C56 1.285 . S
C54 H74 0.929 . S
C55 C52 1.461 . S
C55 C54 1.474 . S
C56 C51 1.342 . S
C56 C54 1.285 . S
C56 H75 0.930 . S
C57 C60 1.424 . S
C57 C62 1.245 . S
C57 C63 1.428 . S
C58 C61 1.260 . S
C58 C62 1.477 . S
C58 H76 0.932 . S
C59 C60 1.384 . S
C59 C61 1.479 . S
C59 H77 0.929 . S
C60 C57 1.424 . S
C60 C59 1.384 . S
C60 H78 0.928 . S
C61 C58 1.260 . S
C61 C59 1.479 . S
C62 C57 1.245 . S
C62 C58 1.477 . S
C62 H79 0.932 . S
C63 U46 2.882 . S
C63 C57 1.428 . S
C63 O66 1.301 . S
C63 O67 1.282 . S
O64 U46 2.441 . S
O64 C50 1.249 . S
O65 U46 2.420 . S
O65 C50 1.202 . S
O66 U46 2.455 . S
O66 C63 1.301 . S
O67 U46 2.449 . S
O67 C63 1.282 . S
H68 C41 0.931 . S
H69 C43 0.929 . S
H70 C44 0.930 . S
H71 C45 0.931 . S
H72 C52 0.932 . S
H73 C53 0.930 . S
H74 C54 0.929 . S
H75 C56 0.930 . S
H76 C58 0.932 . S
H77 C59 0.929 . S
H78 C60 0.928 . S
H79 C62 0.932 . S
C80 C81 1.264 . S
C80 C85 1.479 . S
C80 C90 1.465 . S
C81 C80 1.264 . S
C81 C83 1.339 . S
C81 H108 0.931 . S
C82 C83 1.395 . S
C82 C84 1.320 . S
C83 C81 1.339 . S
C83 C82 1.395 . S
C83 H109 0.929 . S
C84 C82 1.320 . S
C84 C85 1.405 . S
C84 H110 0.930 . S
C85 C80 1.479 . S
C85 C84 1.405 . S
C85 H111 0.931 . S
U86 O87 2.454 . S
U86 O88 2.458 . S
U86 C89 2.984 . S
U86 C90 2.847 . S
U86 C103 2.882 . S
U86 O104 2.441 . S
U86 O105 2.420 . S
U86 O106 2.455 . S
U86 O107 2.449 . S
O87 U86 2.454 . S
O87 C89 1.353 . S
O88 U86 2.458 . S
O88 C89 1.286 . S
C89 U86 2.984 . S
C89 O87 1.353 . S
C89 O88 1.286 . S
C89 C91 1.363 . S
C90 C80 1.465 . S
C90 U86 2.847 . S
C90 O104 1.249 . S
C90 O105 1.202 . S
C91 C89 1.363 . S
C91 C93 1.408 . S
C91 C96 1.342 . S
C92 C93 1.310 . S
C92 C95 1.461 . S
C92 H112 0.932 . S
C93 C91 1.408 . S
C93 C92 1.310 . S
C93 H113 0.930 . S
C94 C95 1.474 . S
C94 C96 1.285 . S
C94 H114 0.929 . S
C95 C92 1.461 . S
C95 C94 1.474 . S
C96 C91 1.342 . S
C96 C94 1.285 . S
C96 H115 0.930 . S
C97 C100 1.424 . S
C97 C102 1.245 . S
C97 C103 1.428 . S
C98 C101 1.260 . S
C98 C102 1.477 . S
C98 H116 0.932 . S
C99 C100 1.384 . S
C99 C101 1.479 . S
C99 H117 0.929 . S
C100 C97 1.424 . S
C100 C99 1.384 . S
C100 H118 0.928 . S
C101 C98 1.260 . S
C101 C99 1.479 . S
C102 C97 1.245 . S
C102 C98 1.477 . S
C102 H119 0.932 . S
C103 U86 2.882 . S
C103 C97 1.428 . S
C103 O106 1.301 . S
C103 O107 1.282 . S
O104 U86 2.441 . S
O104 C90 1.249 . S
O105 U86 2.420 . S
O105 C90 1.202 . S
O106 U86 2.455 . S
O106 C103 1.301 . S
O107 U86 2.449 . S
O107 C103 1.282 . S
H108 C81 0.931 . S
H109 C83 0.929 . S
H110 C84 0.930 . S
H111 C85 0.931 . S
H112 C92 0.932 . S
H113 C93 0.930 . S
H114 C94 0.929 . S
H115 C96 0.930 . S
H116 C98 0.932 . S
H117 C99 0.929 . S
H118 C100 0.928 . S
H119 C102 0.932 . S
C120 C121 1.264 . S
C120 C125 1.479 . S
C120 C130 1.465 . S
C121 C120 1.264 . S
C121 C123 1.339 . S
C121 H148 0.931 . S
C122 C123 1.395 . S
C122 C124 1.320 . S
C123 C121 1.339 . S
C123 C122 1.395 . S
C123 H149 0.929 . S
C124 C122 1.320 . S
C124 C125 1.405 . S
C124 H150 0.930 . S
C125 C120 1.479 . S
C125 C124 1.405 . S
C125 H151 0.931 . S
U126 O127 2.454 . S
U126 O128 2.458 . S
U126 C129 2.984 . S
U126 C130 2.847 . S
U126 C143 2.882 . S
U126 O144 2.441 . S
U126 O145 2.420 . S
U126 O146 2.455 . S
U126 O147 2.449 . S
O127 U126 2.454 . S
O127 C129 1.353 . S
O128 U126 2.458 . S
O128 C129 1.286 . S
C129 U126 2.984 . S
C129 O127 1.353 . S
C129 O128 1.286 . S
C129 C131 1.363 . S
C130 C120 1.465 . S
C130 U126 2.847 . S
C130 O144 1.249 . S
C130 O145 1.202 . S
C131 C129 1.363 . S
C131 C133 1.408 . S
C131 C136 1.342 . S
C132 C133 1.310 . S
C132 C135 1.461 . S
C132 H152 0.932 . S
C133 C131 1.408 . S
C133 C132 1.310 . S
C133 H153 0.930 . S
C134 C135 1.474 . S
C134 C136 1.285 . S
C134 H154 0.929 . S
C135 C132 1.461 . S
C135 C134 1.474 . S
C136 C131 1.342 . S
C136 C134 1.285 . S
C136 H155 0.930 . S
C137 C140 1.424 . S
C137 C142 1.245 . S
C137 C143 1.428 . S
C138 C141 1.260 . S
C138 C142 1.477 . S
C138 H156 0.932 . S
C139 C140 1.384 . S
C139 C141 1.479 . S
C139 H157 0.929 . S
C140 C137 1.424 . S
C140 C139 1.384 . S
C140 H158 0.928 . S
C141 C138 1.260 . S
C141 C139 1.479 . S
C142 C137 1.245 . S
C142 C138 1.477 . S
C142 H159 0.932 . S
C143 U126 2.882 . S
C143 C137 1.428 . S
C143 O146 1.301 . S
C143 O147 1.282 . S
O144 U126 2.441 . S
O144 C130 1.249 . S
O145 U126 2.420 . S
O145 C130 1.202 . S
O146 U126 2.455 . S
O146 C143 1.301 . S
O147 U126 2.449 . S
O147 C143 1.282 . S
H148 C121 0.931 . S
H149 C123 0.929 . S
H150 C124 0.930 . S
H151 C125 0.931 . S
H152 C132 0.932 . S
H153 C133 0.930 . S
H154 C134 0.929 . S
H155 C136 0.930 . S
H156 C138 0.932 . S
H157 C139 0.929 . S
H158 C140 0.928 . S
H159 C142 0.932 . S
C160 C161 1.264 . S
C160 C165 1.479 . S
C160 C170 1.465 . S
C161 C160 1.264 . S
C161 C163 1.339 . S
C161 H188 0.931 . S
C162 C163 1.395 . S
C162 C164 1.320 . S
C163 C161 1.339 . S
C163 C162 1.395 . S
C163 H189 0.929 . S
C164 C162 1.320 . S
C164 C165 1.405 . S
C164 H190 0.930 . S
C165 C160 1.479 . S
C165 C164 1.405 . S
C165 H191 0.931 . S
U166 O167 2.454 . S
U166 O168 2.458 . S
U166 C169 2.984 . S
U166 C170 2.847 . S
U166 C183 2.882 . S
U166 O184 2.441 . S
U166 O185 2.420 . S
U166 O186 2.455 . S
U166 O187 2.449 . S
O167 U166 2.454 . S
O167 C169 1.353 . S
O168 U166 2.458 . S
O168 C169 1.286 . S
C169 U166 2.984 . S
C169 O167 1.353 . S
C169 O168 1.286 . S
C169 C171 1.363 . S
C170 C160 1.465 . S
C170 U166 2.847 . S
C170 O184 1.249 . S
C170 O185 1.202 . S
C171 C169 1.363 . S
C171 C173 1.408 . S
C171 C176 1.342 . S
C172 C173 1.310 . S
C172 C175 1.461 . S
C172 H192 0.932 . S
C173 C171 1.408 . S
C173 C172 1.310 . S
C173 H193 0.930 . S
C174 C175 1.474 . S
C174 C176 1.285 . S
C174 H194 0.929 . S
C175 C172 1.461 . S
C175 C174 1.474 . S
C176 C171 1.342 . S
C176 C174 1.285 . S
C176 H195 0.930 . S
C177 C180 1.424 . S
C177 C182 1.245 . S
C177 C183 1.428 . S
C178 C181 1.260 . S
C178 C182 1.477 . S
C178 H196 0.932 . S
C179 C180 1.384 . S
C179 C181 1.479 . S
C179 H197 0.929 . S
C180 C177 1.424 . S
C180 C179 1.384 . S
C180 H198 0.928 . S
C181 C178 1.260 . S
C181 C179 1.479 . S
C182 C177 1.245 . S
C182 C178 1.477 . S
C182 H199 0.932 . S
C183 U166 2.882 . S
C183 C177 1.428 . S
C183 O186 1.301 . S
C183 O187 1.282 . S
O184 U166 2.441 . S
O184 C170 1.249 . S
O185 U166 2.420 . S
O185 C170 1.202 . S
O186 U166 2.455 . S
O186 C183 1.301 . S
O187 U166 2.449 . S
O187 C183 1.282 . S
H188 C161 0.931 . S
H189 C163 0.929 . S
H190 C164 0.930 . S
H191 C165 0.931 . S
H192 C172 0.932 . S
H193 C173 0.930 . S
H194 C174 0.929 . S
H195 C176 0.930 . S
H196 C178 0.932 . S
H197 C179 0.929 . S
H198 C180 0.928 . S
H199 C182 0.932 . S
C200 C201 1.264 . S
C200 C205 1.479 . S
C200 C210 1.465 . S
C201 C200 1.264 . S
C201 C203 1.339 . S
C201 H228 0.931 . S
C202 C203 1.395 . S
C202 C204 1.320 . S
C203 C201 1.339 . S
C203 C202 1.395 . S
C203 H229 0.929 . S
C204 C202 1.320 . S
C204 C205 1.405 . S
C204 H230 0.930 . S
C205 C200 1.479 . S
C205 C204 1.405 . S
C205 H231 0.931 . S
U206 O207 2.454 . S
U206 O208 2.458 . S
U206 C209 2.984 . S
U206 C210 2.847 . S
U206 C223 2.882 . S
U206 O224 2.441 . S
U206 O225 2.420 . S
U206 O226 2.455 . S
U206 O227 2.449 . S
O207 U206 2.454 . S
O207 C209 1.353 . S
O208 U206 2.458 . S
O208 C209 1.286 . S
C209 U206 2.984 . S
C209 O207 1.353 . S
C209 O208 1.286 . S
C209 C211 1.363 . S
C210 C200 1.465 . S
C210 U206 2.847 . S
C210 O224 1.249 . S
C210 O225 1.202 . S
C211 C209 1.363 . S
C211 C213 1.408 . S
C211 C216 1.342 . S
C212 C213 1.310 . S
C212 C215 1.461 . S
C212 H232 0.932 . S
C213 C211 1.408 . S
C213 C212 1.310 . S
C213 H233 0.930 . S
C214 C215 1.474 . S
C214 C216 1.285 . S
C214 H234 0.929 . S
C215 C212 1.461 . S
C215 C214 1.474 . S
C216 C211 1.342 . S
C216 C214 1.285 . S
C216 H235 0.930 . S
C217 C220 1.424 . S
C217 C222 1.245 . S
C217 C223 1.428 . S
C218 C221 1.260 . S
C218 C222 1.477 . S
C218 H236 0.932 . S
C219 C220 1.384 . S
C219 C221 1.479 . S
C219 H237 0.929 . S
C220 C217 1.424 . S
C220 C219 1.384 . S
C220 H238 0.928 . S
C221 C218 1.260 . S
C221 C219 1.479 . S
C222 C217 1.245 . S
C222 C218 1.477 . S
C222 H239 0.932 . S
C223 U206 2.882 . S
C223 C217 1.428 . S
C223 O226 1.301 . S
C223 O227 1.282 . S
O224 U206 2.441 . S
O224 C210 1.249 . S
O225 U206 2.420 . S
O225 C210 1.202 . S
O226 U206 2.455 . S
O226 C223 1.301 . S
O227 U206 2.449 . S
O227 C223 1.282 . S
H228 C201 0.931 . S
H229 C203 0.929 . S
H230 C204 0.930 . S
H231 C205 0.931 . S
H232 C212 0.932 . S
H233 C213 0.930 . S
H234 C214 0.929 . S
H235 C216 0.930 . S
H236 C218 0.932 . S
H237 C219 0.929 . S
H238 C220 0.928 . S
H239 C222 0.932 . S
C240 C241 1.264 . S
C240 C245 1.479 . S
C240 C250 1.465 . S
C241 C240 1.264 . S
C241 C243 1.339 . S
C241 H268 0.931 . S
C242 C243 1.395 . S
C242 C244 1.320 . S
C243 C241 1.339 . S
C243 C242 1.395 . S
C243 H269 0.929 . S
C244 C242 1.320 . S
C244 C245 1.405 . S
C244 H270 0.930 . S
C245 C240 1.479 . S
C245 C244 1.405 . S
C245 H271 0.931 . S
U246 O247 2.454 . S
U246 O248 2.458 . S
U246 C249 2.984 . S
U246 C250 2.847 . S
U246 C263 2.882 . S
U246 O264 2.441 . S
U246 O265 2.420 . S
U246 O266 2.455 . S
U246 O267 2.449 . S
O247 U246 2.454 . S
O247 C249 1.353 . S
O248 U246 2.458 . S
O248 C249 1.286 . S
C249 U246 2.984 . S
C249 O247 1.353 . S
C249 O248 1.286 . S
C249 C251 1.363 . S
C250 C240 1.465 . S
C250 U246 2.847 . S
C250 O264 1.249 . S
C250 O265 1.202 . S
C251 C249 1.363 . S
C251 C253 1.408 . S
C251 C256 1.342 . S
C252 C253 1.310 . S
C252 C255 1.461 . S
C252 H272 0.932 . S
C253 C251 1.408 . S
C253 C252 1.310 . S
C253 H273 0.930 . S
C254 C255 1.474 . S
C254 C256 1.285 . S
C254 H274 0.929 . S
C255 C252 1.461 . S
C255 C254 1.474 . S
C256 C251 1.342 . S
C256 C254 1.285 . S
C256 H275 0.930 . S
C257 C260 1.424 . S
C257 C262 1.245 . S
C257 C263 1.428 . S
C258 C261 1.260 . S
C258 C262 1.477 . S
C258 H276 0.932 . S
C259 C260 1.384 . S
C259 C261 1.479 . S
C259 H277 0.929 . S
C260 C257 1.424 . S
C260 C259 1.384 . S
C260 H278 0.928 . S
C261 C258 1.260 . S
C261 C259 1.479 . S
C262 C257 1.245 . S
C262 C258 1.477 . S
C262 H279 0.932 . S
C263 U246 2.882 . S
C263 C257 1.428 . S
C263 O266 1.301 . S
C263 O267 1.282 . S
O264 U246 2.441 . S
O264 C250 1.249 . S
O265 U246 2.420 . S
O265 C250 1.202 . S
O266 U246 2.455 . S
O266 C263 1.301 . S
O267 U246 2.449 . S
O267 C263 1.282 . S
H268 C241 0.931 . S
H269 C243 0.929 . S
H270 C244 0.930 . S
H271 C245 0.931 . S
H272 C252 0.932 . S
H273 C253 0.930 . S
H274 C254 0.929 . S
H275 C256 0.930 . S
H276 C258 0.932 . S
H277 C259 0.929 . S
H278 C260 0.928 . S
H279 C262 0.932 . S
C280 C281 1.264 . S
C280 C285 1.479 . S
C280 C290 1.465 . S
C281 C280 1.264 . S
C281 C283 1.339 . S
C281 H308 0.931 . S
C282 C283 1.395 . S
C282 C284 1.320 . S
C283 C281 1.339 . S
C283 C282 1.395 . S
C283 H309 0.929 . S
C284 C282 1.320 . S
C284 C285 1.405 . S
C284 H310 0.930 . S
C285 C280 1.479 . S
C285 C284 1.405 . S
C285 H311 0.931 . S
U286 O287 2.454 . S
U286 O288 2.458 . S
U286 C289 2.984 . S
U286 C290 2.847 . S
U286 C303 2.882 . S
U286 O304 2.441 . S
U286 O305 2.420 . S
U286 O306 2.455 . S
U286 O307 2.449 . S
O287 U286 2.454 . S
O287 C289 1.353 . S
O288 U286 2.458 . S
O288 C289 1.286 . S
C289 U286 2.984 . S
C289 O287 1.353 . S
C289 O288 1.286 . S
C289 C291 1.363 . S
C290 C280 1.465 . S
C290 U286 2.847 . S
C290 O304 1.249 . S
C290 O305 1.202 . S
C291 C289 1.363 . S
C291 C293 1.408 . S
C291 C296 1.342 . S
C292 C293 1.310 . S
C292 C295 1.461 . S
C292 H312 0.932 . S
C293 C291 1.408 . S
C293 C292 1.310 . S
C293 H313 0.930 . S
C294 C295 1.474 . S
C294 C296 1.285 . S
C294 H314 0.929 . S
C295 C292 1.461 . S
C295 C294 1.474 . S
C296 C291 1.342 . S
C296 C294 1.285 . S
C296 H315 0.930 . S
C297 C300 1.424 . S
C297 C302 1.245 . S
C297 C303 1.428 . S
C298 C301 1.260 . S
C298 C302 1.477 . S
C298 H316 0.932 . S
C299 C300 1.384 . S
C299 C301 1.479 . S
C299 H317 0.929 . S
C300 C297 1.424 . S
C300 C299 1.384 . S
C300 H318 0.928 . S
C301 C298 1.260 . S
C301 C299 1.479 . S
C302 C297 1.245 . S
C302 C298 1.477 . S
C302 H319 0.932 . S
C303 U286 2.882 . S
C303 C297 1.428 . S
C303 O306 1.301 . S
C303 O307 1.282 . S
O304 U286 2.441 . S
O304 C290 1.249 . S
O305 U286 2.420 . S
O305 C290 1.202 . S
O306 U286 2.455 . S
O306 C303 1.301 . S
O307 U286 2.449 . S
O307 C303 1.282 . S
H308 C281 0.931 . S
H309 C283 0.929 . S
H310 C284 0.930 . S
H311 C285 0.931 . S
H312 C292 0.932 . S
H313 C293 0.930 . S
H314 C294 0.929 . S
H315 C296 0.930 . S
H316 C298 0.932 . S
H317 C299 0.929 . S
H318 C300 0.928 . S
H319 C302 0.932 . S
C320 C321 1.264 . S
C320 C325 1.479 . S
C320 C330 1.465 . S
C321 C320 1.264 . S
C321 C323 1.339 . S
C321 H348 0.931 . S
C322 C323 1.395 . S
C322 C324 1.320 . S
C323 C321 1.339 . S
C323 C322 1.395 . S
C323 H349 0.929 . S
C324 C322 1.320 . S
C324 C325 1.405 . S
C324 H350 0.930 . S
C325 C320 1.479 . S
C325 C324 1.405 . S
C325 H351 0.931 . S
U326 O327 2.454 . S
U326 O328 2.458 . S
U326 C329 2.984 . S
U326 C330 2.847 . S
U326 C343 2.882 . S
U326 O344 2.441 . S
U326 O345 2.420 . S
U326 O346 2.455 . S
U326 O347 2.449 . S
O327 U326 2.454 . S
O327 C329 1.353 . S
O328 U326 2.458 . S
O328 C329 1.286 . S
C329 U326 2.984 . S
C329 O327 1.353 . S
C329 O328 1.286 . S
C329 C331 1.363 . S
C330 C320 1.465 . S
C330 U326 2.847 . S
C330 O344 1.249 . S
C330 O345 1.202 . S
C331 C329 1.363 . S
C331 C333 1.408 . S
C331 C336 1.342 . S
C332 C333 1.310 . S
C332 C335 1.461 . S
C332 H352 0.932 . S
C333 C331 1.408 . S
C333 C332 1.310 . S
C333 H353 0.930 . S
C334 C335 1.474 . S
C334 C336 1.285 . S
C334 H354 0.929 . S
C335 C332 1.461 . S
C335 C334 1.474 . S
C336 C331 1.342 . S
C336 C334 1.285 . S
C336 H355 0.930 . S
C337 C340 1.424 . S
C337 C342 1.245 . S
C337 C343 1.428 . S
C338 C341 1.260 . S
C338 C342 1.477 . S
C338 H356 0.932 . S
C339 C340 1.384 . S
C339 C341 1.479 . S
C339 H357 0.929 . S
C340 C337 1.424 . S
C340 C339 1.384 . S
C340 H358 0.928 . S
C341 C338 1.260 . S
C341 C339 1.479 . S
C342 C337 1.245 . S
C342 C338 1.477 . S
C342 H359 0.932 . S
C343 U326 2.882 . S
C343 C337 1.428 . S
C343 O346 1.301 . S
C343 O347 1.282 . S
O344 U326 2.441 . S
O344 C330 1.249 . S
O345 U326 2.420 . S
O345 C330 1.202 . S
O346 U326 2.455 . S
O346 C343 1.301 . S
O347 U326 2.449 . S
O347 C343 1.282 . S
H348 C321 0.931 . S
H349 C323 0.929 . S
H350 C324 0.930 . S
H351 C325 0.931 . S
H352 C332 0.932 . S
H353 C333 0.930 . S
H354 C334 0.929 . S
H355 C336 0.930 . S
H356 C338 0.932 . S
H357 C339 0.929 . S
H358 C340 0.928 . S
H359 C342 0.932 . S
C360 C361 1.264 . S
C360 C365 1.479 . S
C360 C370 1.465 . S
C361 C360 1.264 . S
C361 C363 1.339 . S
C361 H388 0.931 . S
C362 C363 1.395 . S
C362 C364 1.320 . S
C363 C361 1.339 . S
C363 C362 1.395 . S
C363 H389 0.929 . S
C364 C362 1.320 . S
C364 C365 1.405 . S
C364 H390 0.930 . S
C365 C360 1.479 . S
C365 C364 1.405 . S
C365 H391 0.931 . S
U366 O367 2.454 . S
U366 O368 2.458 . S
U366 C369 2.984 . S
U366 C370 2.847 . S
U366 C383 2.882 . S
U366 O384 2.441 . S
U366 O385 2.420 . S
U366 O386 2.455 . S
U366 O387 2.449 . S
O367 U366 2.454 . S
O367 C369 1.353 . S
O368 U366 2.458 . S
O368 C369 1.286 . S
C369 U366 2.984 . S
C369 O367 1.353 . S
C369 O368 1.286 . S
C369 C371 1.363 . S
C370 C360 1.465 . S
C370 U366 2.847 . S
C370 O384 1.249 . S
C370 O385 1.202 . S
C371 C369 1.363 . S
C371 C373 1.408 . S
C371 C376 1.342 . S
C372 C373 1.310 . S
C372 C375 1.461 . S
C372 H392 0.932 . S
C373 C371 1.408 . S
C373 C372 1.310 . S
C373 H393 0.930 . S
C374 C375 1.474 . S
C374 C376 1.285 . S
C374 H394 0.929 . S
C375 C372 1.461 . S
C375 C374 1.474 . S
C376 C371 1.342 . S
C376 C374 1.285 . S
C376 H395 0.930 . S
C377 C380 1.424 . S
C377 C382 1.245 . S
C377 C383 1.428 . S
C378 C381 1.260 . S
C378 C382 1.477 . S
C378 H396 0.932 . S
C379 C380 1.384 . S
C379 C381 1.479 . S
C379 H397 0.929 . S
C380 C377 1.424 . S
C380 C379 1.384 . S
C380 H398 0.928 . S
C381 C378 1.260 . S
C381 C379 1.479 . S
C382 C377 1.245 . S
C382 C378 1.477 . S
C382 H399 0.932 . S
C383 U366 2.882 . S
C383 C377 1.428 . S
C383 O386 1.301 . S
C383 O387 1.282 . S
O384 U366 2.441 . S
O384 C370 1.249 . S
O385 U366 2.420 . S
O385 C370 1.202 . S
O386 U366 2.455 . S
O386 C383 1.301 . S
O387 U366 2.449 . S
O387 C383 1.282 . S
H388 C361 0.931 . S
H389 C363 0.929 . S
H390 C364 0.930 . S
H391 C365 0.931 . S
H392 C372 0.932 . S
H393 C373 0.930 . S
H394 C374 0.929 . S
H395 C376 0.930 . S
H396 C378 0.932 . S
H397 C379 0.929 . S
H398 C380 0.928 . S
H399 C382 0.932 . S
C400 C401 1.264 . S
C400 C405 1.479 . S
C400 C410 1.465 . S
C401 C400 1.264 . S
C401 C403 1.339 . S
C401 H428 0.931 . S
C402 C403 1.395 . S
C402 C404 1.320 . S
C403 C401 1.339 . S
C403 C402 1.395 . S
C403 H429 0.929 . S
C404 C402 1.320 . S
C404 C405 1.405 . S
C404 H430 0.930 . S
C405 C400 1.479 . S
C405 C404 1.405 . S
C405 H431 0.931 . S
U406 O407 2.454 . S
U406 O408 2.458 . S
U406 C409 2.984 . S
U406 C410 2.847 . S
U406 C423 2.882 . S
U406 O424 2.441 . S
U406 O425 2.420 . S
U406 O426 2.455 . S
U406 O427 2.449 . S
O407 U406 2.454 . S
O407 C409 1.353 . S
O408 U406 2.458 . S
O408 C409 1.286 . S
C409 U406 2.984 . S
C409 O407 1.353 . S
C409 O408 1.286 . S
C409 C411 1.363 . S
C410 C400 1.465 . S
C410 U406 2.847 . S
C410 O424 1.249 . S
C410 O425 1.202 . S
C411 C409 1.363 . S
C411 C413 1.408 . S
C411 C416 1.342 . S
C412 C413 1.310 . S
C412 C415 1.461 . S
C412 H432 0.932 . S
C413 C411 1.408 . S
C413 C412 1.310 . S
C413 H433 0.930 . S
C414 C415 1.474 . S
C414 C416 1.285 . S
C414 H434 0.929 . S
C415 C412 1.461 . S
C415 C414 1.474 . S
C416 C411 1.342 . S
C416 C414 1.285 . S
C416 H435 0.930 . S
C417 C420 1.424 . S
C417 C422 1.245 . S
C417 C423 1.428 . S
C418 C421 1.260 . S
C418 C422 1.477 . S
C418 H436 0.932 . S
C419 C420 1.384 . S
C419 C421 1.479 . S
C419 H437 0.929 . S
C420 C417 1.424 . S
C420 C419 1.384 . S
C420 H438 0.928 . S
C421 C418 1.260 . S
C421 C419 1.479 . S
C422 C417 1.245 . S
C422 C418 1.477 . S
C422 H439 0.932 . S
C423 U406 2.882 . S
C423 C417 1.428 . S
C423 O426 1.301 . S
C423 O427 1.282 . S
O424 U406 2.441 . S
O424 C410 1.249 . S
O425 U406 2.420 . S
O425 C410 1.202 . S
O426 U406 2.455 . S
O426 C423 1.301 . S
O427 U406 2.449 . S
O427 C423 1.282 . S
H428 C401 0.931 . S
H429 C403 0.929 . S
H430 C404 0.930 . S
H431 C405 0.931 . S
H432 C412 0.932 . S
H433 C413 0.930 . S
H434 C414 0.929 . S
H435 C416 0.930 . S
H436 C418 0.932 . S
H437 C419 0.929 . S
H438 C420 0.928 . S
H439 C422 0.932 . S
C440 C441 1.264 . S
C440 C445 1.479 . S
C440 C450 1.465 . S
C441 C440 1.264 . S
C441 C443 1.339 . S
C441 H468 0.931 . S
C442 C443 1.395 . S
C442 C444 1.320 . S
C443 C441 1.339 . S
C443 C442 1.395 . S
C443 H469 0.929 . S
C444 C442 1.320 . S
C444 C445 1.405 . S
C444 H470 0.930 . S
C445 C440 1.479 . S
C445 C444 1.405 . S
C445 H471 0.931 . S
U446 O447 2.454 . S
U446 O448 2.458 . S
U446 C449 2.984 . S
U446 C450 2.847 . S
U446 C463 2.882 . S
U446 O464 2.441 . S
U446 O465 2.420 . S
U446 O466 2.455 . S
U446 O467 2.449 . S
O447 U446 2.454 . S
O447 C449 1.353 . S
O448 U446 2.458 . S
O448 C449 1.286 . S
C449 U446 2.984 . S
C449 O447 1.353 . S
C449 O448 1.286 . S
C449 C451 1.363 . S
C450 C440 1.465 . S
C450 U446 2.847 . S
C450 O464 1.249 . S
C450 O465 1.202 . S
C451 C449 1.363 . S
C451 C453 1.408 . S
C451 C456 1.342 . S
C452 C453 1.310 . S
C452 C455 1.461 . S
C452 H472 0.932 . S
C453 C451 1.408 . S
C453 C452 1.310 . S
C453 H473 0.930 . S
C454 C455 1.474 . S
C454 C456 1.285 . S
C454 H474 0.929 . S
C455 C452 1.461 . S
C455 C454 1.474 . S
C456 C451 1.342 . S
C456 C454 1.285 . S
C456 H475 0.930 . S
C457 C460 1.424 . S
C457 C462 1.245 . S
C457 C463 1.428 . S
C458 C461 1.260 . S
C458 C462 1.477 . S
C458 H476 0.932 . S
C459 C460 1.384 . S
C459 C461 1.479 . S
C459 H477 0.929 . S
C460 C457 1.424 . S
C460 C459 1.384 . S
C460 H478 0.928 . S
C461 C458 1.260 . S
C461 C459 1.479 . S
C462 C457 1.245 . S
C462 C458 1.477 . S
C462 H479 0.932 . S
C463 U446 2.882 . S
C463 C457 1.428 . S
C463 O466 1.301 . S
C463 O467 1.282 . S
O464 U446 2.441 . S
O464 C450 1.249 . S
O465 U446 2.420 . S
O465 C450 1.202 . S
O466 U446 2.455 . S
O466 C463 1.301 . S
O467 U446 2.449 . S
O467 C463 1.282 . S
H468 C441 0.931 . S
H469 C443 0.929 . S
H470 C444 0.930 . S
H471 C445 0.931 . S
H472 C452 0.932 . S
H473 C453 0.930 . S
H474 C454 0.929 . S
H475 C456 0.930 . S
H476 C458 0.932 . S
H477 C459 0.929 . S
H478 C460 0.928 . S
H479 C462 0.932 . S
C480 C481 1.264 . S
C480 C485 1.479 . S
C480 C490 1.465 . S
C481 C480 1.264 . S
C481 C483 1.339 . S
C481 H508 0.931 . S
C482 C483 1.395 . S
C482 C484 1.320 . S
C483 C481 1.339 . S
C483 C482 1.395 . S
C483 H509 0.929 . S
C484 C482 1.320 . S
C484 C485 1.405 . S
C484 H510 0.930 . S
C485 C480 1.479 . S
C485 C484 1.405 . S
C485 H511 0.931 . S
U486 O487 2.454 . S
U486 O488 2.458 . S
U486 C489 2.984 . S
U486 C490 2.847 . S
U486 C503 2.882 . S
U486 O504 2.441 . S
U486 O505 2.420 . S
U486 O506 2.455 . S
U486 O507 2.449 . S
O487 U486 2.454 . S
O487 C489 1.353 . S
O488 U486 2.458 . S
O488 C489 1.286 . S
C489 U486 2.984 . S
C489 O487 1.353 . S
C489 O488 1.286 . S
C489 C491 1.363 . S
C490 C480 1.465 . S
C490 U486 2.847 . S
C490 O504 1.249 . S
C490 O505 1.202 . S
C491 C489 1.363 . S
C491 C493 1.408 . S
C491 C496 1.342 . S
C492 C493 1.310 . S
C492 C495 1.461 . S
C492 H512 0.932 . S
C493 C491 1.408 . S
C493 C492 1.310 . S
C493 H513 0.930 . S
C494 C495 1.474 . S
C494 C496 1.285 . S
C494 H514 0.929 . S
C495 C492 1.461 . S
C495 C494 1.474 . S
C496 C491 1.342 . S
C496 C494 1.285 . S
C496 H515 0.930 . S
C497 C500 1.424 . S
C497 C502 1.245 . S
C497 C503 1.428 . S
C498 C501 1.260 . S
C498 C502 1.477 . S
C498 H516 0.932 . S
C499 C500 1.384 . S
C499 C501 1.479 . S
C499 H517 0.929 . S
C500 C497 1.424 . S
C500 C499 1.384 . S
C500 H518 0.928 . S
C501 C498 1.260 . S
C501 C499 1.479 . S
C502 C497 1.245 . S
C502 C498 1.477 . S
C502 H519 0.932 . S
C503 U486 2.882 . S
C503 C497 1.428 . S
C503 O506 1.301 . S
C503 O507 1.282 . S
O504 U486 2.441 . S
O504 C490 1.249 . S
O505 U486 2.420 . S
O505 C490 1.202 . S
O506 U486 2.455 . S
O506 C503 1.301 . S
O507 U486 2.449 . S
O507 C503 1.282 . S
H508 C481 0.931 . S
H509 C483 0.929 . S
H510 C484 0.930 . S
H511 C485 0.931 . S
H512 C492 0.932 . S
H513 C493 0.930 . S
H514 C494 0.929 . S
H515 C496 0.930 . S
H516 C498 0.932 . S
H517 C499 0.929 . S
H518 C500 0.928 . S
H519 C502 0.932 . S
C520 C521 1.264 . S
C520 C525 1.479 . S
C520 C530 1.465 . S
C521 C520 1.264 . S
C521 C523 1.339 . S
C521 H548 0.931 . S
C522 C523 1.395 . S
C522 C524 1.320 . S
C523 C521 1.339 . S
C523 C522 1.395 . S
C523 H549 0.929 . S
C524 C522 1.320 . S
C524 C525 1.405 . S
C524 H550 0.930 . S
C525 C520 1.479 . S
C525 C524 1.405 . S
C525 H551 0.931 . S
U526 O527 2.454 . S
U526 O528 2.458 . S
U526 C529 2.984 . S
U526 C530 2.847 . S
U526 C543 2.882 . S
U526 O544 2.441 . S
U526 O545 2.420 . S
U526 O546 2.455 . S
U526 O547 2.449 . S
O527 U526 2.454 . S
O527 C529 1.353 . S
O528 U526 2.458 . S
O528 C529 1.286 . S
C529 U526 2.984 . S
C529 O527 1.353 . S
C529 O528 1.286 . S
C529 C531 1.363 . S
C530 C520 1.465 . S
C530 U526 2.847 . S
C530 O544 1.249 . S
C530 O545 1.202 . S
C531 C529 1.363 . S
C531 C533 1.408 . S
C531 C536 1.342 . S
C532 C533 1.310 . S
C532 C535 1.461 . S
C532 H552 0.932 . S
C533 C531 1.408 . S
C533 C532 1.310 . S
C533 H553 0.930 . S
C534 C535 1.474 . S
C534 C536 1.285 . S
C534 H554 0.929 . S
C535 C532 1.461 . S
C535 C534 1.474 . S
C536 C531 1.342 . S
C536 C534 1.285 . S
C536 H555 0.930 . S
C537 C540 1.424 . S
C537 C542 1.245 . S
C537 C543 1.428 . S
C538 C541 1.260 . S
C538 C542 1.477 . S
C538 H556 0.932 . S
C539 C540 1.384 . S
C539 C541 1.479 . S
C539 H557 0.929 . S
C540 C537 1.424 . S
C540 C539 1.384 . S
C540 H558 0.928 . S
C541 C538 1.260 . S
C541 C539 1.479 . S
C542 C537 1.245 . S
C542 C538 1.477 . S
C542 H559 0.932 . S
C543 U526 2.882 . S
C543 C537 1.428 . S
C543 O546 1.301 . S
C543 O547 1.282 . S
O544 U526 2.441 . S
O544 C530 1.249 . S
O545 U526 2.420 . S
O545 C530 1.202 . S
O546 U526 2.455 . S
O546 C543 1.301 . S
O547 U526 2.449 . S
O547 C543 1.282 . S
H548 C521 0.931 . S
H549 C523 0.929 . S
H550 C524 0.930 . S
H551 C525 0.931 . S
H552 C532 0.932 . S
H553 C533 0.930 . S
H554 C534 0.929 . S
H555 C536 0.930 . S
H556 C538 0.932 . S
H557 C539 0.929 . S
H558 C540 0.928 . S
H559 C542 0.932 . S
C560 C561 1.264 . S
C560 C565 1.479 . S
C560 C570 1.465 . S
C561 C560 1.264 . S
C561 C563 1.339 . S
C561 H588 0.931 . S
C562 C563 1.395 . S
C562 C564 1.320 . S
C563 C561 1.339 . S
C563 C562 1.395 . S
C563 H589 0.929 . S
C564 C562 1.320 . S
C564 C565 1.405 . S
C564 H590 0.930 . S
C565 C560 1.479 . S
C565 C564 1.405 . S
C565 H591 0.931 . S
U566 O567 2.454 . S
U566 O568 2.458 . S
U566 C569 2.984 . S
U566 C570 2.847 . S
U566 C583 2.882 . S
U566 O584 2.441 . S
U566 O585 2.420 . S
U566 O586 2.455 . S
U566 O587 2.449 . S
O567 U566 2.454 . S
O567 C569 1.353 . S
O568 U566 2.458 . S
O568 C569 1.286 . S
C569 U566 2.984 . S
C569 O567 1.353 . S
C569 O568 1.286 . S
C569 C571 1.363 . S
C570 C560 1.465 . S
C570 U566 2.847 . S
C570 O584 1.249 . S
C570 O585 1.202 . S
C571 C569 1.363 . S
C571 C573 1.408 . S
C571 C576 1.342 . S
C572 C573 1.310 . S
C572 C575 1.461 . S
C572 H592 0.932 . S
C573 C571 1.408 . S
C573 C572 1.310 . S
C573 H593 0.930 . S
C574 C575 1.474 . S
C574 C576 1.285 . S
C574 H594 0.929 . S
C575 C572 1.461 . S
C575 C574 1.474 . S
C576 C571 1.342 . S
C576 C574 1.285 . S
C576 H595 0.930 . S
C577 C580 1.424 . S
C577 C582 1.245 . S
C577 C583 1.428 . S
C578 C581 1.260 . S
C578 C582 1.477 . S
C578 H596 0.932 . S
C579 C580 1.384 . S
C579 C581 1.479 . S
C579 H597 0.929 . S
C580 C577 1.424 . S
C580 C579 1.384 . S
C580 H598 0.928 . S
C581 C578 1.260 . S
C581 C579 1.479 . S
C582 C577 1.245 . S
C582 C578 1.477 . S
C582 H599 0.932 . S
C583 U566 2.882 . S
C583 C577 1.428 . S
C583 O586 1.301 . S
C583 O587 1.282 . S
O584 U566 2.441 . S
O584 C570 1.249 . S
O585 U566 2.420 . S
O585 C570 1.202 . S
O586 U566 2.455 . S
O586 C583 1.301 . S
O587 U566 2.449 . S
O587 C583 1.282 . S
H588 C561 0.931 . S
H589 C563 0.929 . S
H590 C564 0.930 . S
H591 C565 0.931 . S
H592 C572 0.932 . S
H593 C573 0.930 . S
H594 C574 0.929 . S
H595 C576 0.930 . S
H596 C578 0.932 . S
H597 C579 0.929 . S
H598 C580 0.928 . S
H599 C582 0.932 . S
C600 C601 1.264 . S
C600 C605 1.479 . S
C600 C610 1.465 . S
C601 C600 1.264 . S
C601 C603 1.339 . S
C601 H628 0.931 . S
C602 C603 1.395 . S
C602 C604 1.320 . S
C603 C601 1.339 . S
C603 C602 1.395 . S
C603 H629 0.929 . S
C604 C602 1.320 . S
C604 C605 1.405 . S
C604 H630 0.930 . S
C605 C600 1.479 . S
C605 C604 1.405 . S
C605 H631 0.931 . S
U606 O607 2.454 . S
U606 O608 2.458 . S
U606 C609 2.984 . S
U606 C610 2.847 . S
U606 C623 2.882 . S
U606 O624 2.441 . S
U606 O625 2.420 . S
U606 O626 2.455 . S
U606 O627 2.449 . S
O607 U606 2.454 . S
O607 C609 1.353 . S
O608 U606 2.458 . S
O608 C609 1.286 . S
C609 U606 2.984 . S
C609 O607 1.353 . S
C609 O608 1.286 . S
C609 C611 1.363 . S
C610 C600 1.465 . S
C610 U606 2.847 . S
C610 O624 1.249 . S
C610 O625 1.202 . S
C611 C609 1.363 . S
C611 C613 1.408 . S
C611 C616 1.342 . S
C612 C613 1.310 . S
C612 C615 1.461 . S
C612 H632 0.932 . S
C613 C611 1.408 . S
C613 C612 1.310 . S
C613 H633 0.930 . S
C614 C615 1.474 . S
C614 C616 1.285 . S
C614 H634 0.929 . S
C615 C612 1.461 . S
C615 C614 1.474 . S
C616 C611 1.342 . S
C616 C614 1.285 . S
C616 H635 0.930 . S
C617 C620 1.424 . S
C617 C622 1.245 . S
C617 C623 1.428 . S
C618 C621 1.260 . S
C618 C622 1.477 . S
C618 H636 0.932 . S
C619 C620 1.384 . S
C619 C621 1.479 . S
C619 H637 0.929 . S
C620 C617 1.424 . S
C620 C619 1.384 . S
C620 H638 0.928 . S
C621 C618 1.260 . S
C621 C619 1.479 . S
C622 C617 1.245 . S
C622 C618 1.477 . S
C622 H639 0.932 . S
C623 U606 2.882 . S
C623 C617 1.428 . S
C623 O626 1.301 . S
C623 O627 1.282 . S
O624 U606 2.441 . S
O624 C610 1.249 . S
O625 U606 2.420 . S
O625 C610 1.202 . S
O626 U606 2.455 . S
O626 C623 1.301 . S
O627 U606 2.449 . S
O627 C623 1.282 . S
H628 C601 0.931 . S
H629 C603 0.929 . S
H630 C604 0.930 . S
H631 C605 0.931 . S
H632 C612 0.932 . S
H633 C613 0.930 . S
H634 C614 0.929 . S
H635 C616 0.930 . S
H636 C618 0.932 . S
H637 C619 0.929 . S
H638 C620 0.928 . S
H639 C622 0.932 . S
C640 C641 1.264 . S
C640 C645 1.479 . S
C640 C650 1.465 . S
C641 C640 1.264 . S
C641 C643 1.339 . S
C641 H668 0.931 . S
C642 C643 1.395 . S
C642 C644 1.320 . S
C643 C641 1.339 . S
C643 C642 1.395 . S
C643 H669 0.929 . S
C644 C642 1.320 . S
C644 C645 1.405 . S
C644 H670 0.930 . S
C645 C640 1.479 . S
C645 C644 1.405 . S
C645 H671 0.931 . S
U646 O647 2.454 . S
U646 O648 2.458 . S
U646 C649 2.984 . S
U646 C650 2.847 . S
U646 C663 2.882 . S
U646 O664 2.441 . S
U646 O665 2.420 . S
U646 O666 2.455 . S
U646 O667 2.449 . S
O647 U646 2.454 . S
O647 C649 1.353 . S
O648 U646 2.458 . S
O648 C649 1.286 . S
C649 U646 2.984 . S
C649 O647 1.353 . S
C649 O648 1.286 . S
C649 C651 1.363 . S
C650 C640 1.465 . S
C650 U646 2.847 . S
C650 O664 1.249 . S
C650 O665 1.202 . S
C651 C649 1.363 . S
C651 C653 1.408 . S
C651 C656 1.342 . S
C652 C653 1.310 . S
C652 C655 1.461 . S
C652 H672 0.932 . S
C653 C651 1.408 . S
C653 C652 1.310 . S
C653 H673 0.930 . S
C654 C655 1.474 . S
C654 C656 1.285 . S
C654 H674 0.929 . S
C655 C652 1.461 . S
C655 C654 1.474 . S
C656 C651 1.342 . S
C656 C654 1.285 . S
C656 H675 0.930 . S
C657 C660 1.424 . S
C657 C662 1.245 . S
C657 C663 1.428 . S
C658 C661 1.260 . S
C658 C662 1.477 . S
C658 H676 0.932 . S
C659 C660 1.384 . S
C659 C661 1.479 . S
C659 H677 0.929 . S
C660 C657 1.424 . S
C660 C659 1.384 . S
C660 H678 0.928 . S
C661 C658 1.260 . S
C661 C659 1.479 . S
C662 C657 1.245 . S
C662 C658 1.477 . S
C662 H679 0.932 . S
C663 U646 2.882 . S
C663 C657 1.428 . S
C663 O666 1.301 . S
C663 O667 1.282 . S
O664 U646 2.441 . S
O664 C650 1.249 . S
O665 U646 2.420 . S
O665 C650 1.202 . S
O666 U646 2.455 . S
O666 C663 1.301 . S
O667 U646 2.449 . S
O667 C663 1.282 . S
H668 C641 0.931 . S
H669 C643 0.929 . S
H670 C644 0.930 . S
H671 C645 0.931 . S
H672 C652 0.932 . S
H673 C653 0.930 . S
H674 C654 0.929 . S
H675 C656 0.930 . S
H676 C658 0.932 . S
H677 C659 0.929 . S
H678 C660 0.928 . S
H679 C662 0.932 . S
C680 C681 1.264 . S
C680 C685 1.479 . S
C680 C690 1.465 . S
C681 C680 1.264 . S
C681 C683 1.339 . S
C681 H708 0.931 . S
C682 C683 1.395 . S
C682 C684 1.320 . S
C683 C681 1.339 . S
C683 C682 1.395 . S
C683 H709 0.929 . S
C684 C682 1.320 . S
C684 C685 1.405 . S
C684 H710 0.930 . S
C685 C680 1.479 . S
C685 C684 1.405 . S
C685 H711 0.931 . S
U686 O687 2.454 . S
U686 O688 2.458 . S
U686 C689 2.984 . S
U686 C690 2.847 . S
U686 C703 2.882 . S
U686 O704 2.441 . S
U686 O705 2.420 . S
U686 O706 2.455 . S
U686 O707 2.449 . S
O687 U686 2.454 . S
O687 C689 1.353 . S
O688 U686 2.458 . S
O688 C689 1.286 . S
C689 U686 2.984 . S
C689 O687 1.353 . S
C689 O688 1.286 . S
C689 C691 1.363 . S
C690 C680 1.465 . S
C690 U686 2.847 . S
C690 O704 1.249 . S
C690 O705 1.202 . S
C691 C689 1.363 . S
C691 C693 1.408 . S
C691 C696 1.342 . S
C692 C693 1.310 . S
C692 C695 1.461 . S
C692 H712 0.932 . S
C693 C691 1.408 . S
C693 C692 1.310 . S
C693 H713 0.930 . S
C694 C695 1.474 . S
C694 C696 1.285 . S
C694 H714 0.929 . S
C695 C692 1.461 . S
C695 C694 1.474 . S
C696 C691 1.342 . S
C696 C694 1.285 . S
C696 H715 0.930 . S
C697 C700 1.424 . S
C697 C702 1.245 . S
C697 C703 1.428 . S
C698 C701 1.260 . S
C698 C702 1.477 . S
C698 H716 0.932 . S
C699 C700 1.384 . S
C699 C701 1.479 . S
C699 H717 0.929 . S
C700 C697 1.424 . S
C700 C699 1.384 . S
C700 H718 0.928 . S
C701 C698 1.260 . S
C701 C699 1.479 . S
C702 C697 1.245 . S
C702 C698 1.477 . S
C702 H719 0.932 . S
C703 U686 2.882 . S
C703 C697 1.428 . S
C703 O706 1.301 . S
C703 O707 1.282 . S
O704 U686 2.441 . S
O704 C690 1.249 . S
O705 U686 2.420 . S
O705 C690 1.202 . S
O706 U686 2.455 . S
O706 C703 1.301 . S
O707 U686 2.449 . S
O707 C703 1.282 . S
H708 C681 0.931 . S
H709 C683 0.929 . S
H710 C684 0.930 . S
H711 C685 0.931 . S
H712 C692 0.932 . S
H713 C693 0.930 . S
H714 C694 0.929 . S
H715 C696 0.930 . S
H716 C698 0.932 . S
H717 C699 0.929 . S
H718 C700 0.928 . S
H719 C702 0.932 . S
C720 C721 1.264 . S
C720 C725 1.479 . S
C720 C730 1.465 . S
C721 C720 1.264 . S
C721 C723 1.339 . S
C721 H748 0.931 . S
C722 C723 1.395 . S
C722 C724 1.320 . S
C723 C721 1.339 . S
C723 C722 1.395 . S
C723 H749 0.929 . S
C724 C722 1.320 . S
C724 C725 1.405 . S
C724 H750 0.930 . S
C725 C720 1.479 . S
C725 C724 1.405 . S
C725 H751 0.931 . S
U726 O727 2.454 . S
U726 O728 2.458 . S
U726 C729 2.984 . S
U726 C730 2.847 . S
U726 C743 2.882 . S
U726 O744 2.441 . S
U726 O745 2.420 . S
U726 O746 2.455 . S
U726 O747 2.449 . S
O727 U726 2.454 . S
O727 C729 1.353 . S
O728 U726 2.458 . S
O728 C729 1.286 . S
C729 U726 2.984 . S
C729 O727 1.353 . S
C729 O728 1.286 . S
C729 C731 1.363 . S
C730 C720 1.465 . S
C730 U726 2.847 . S
C730 O744 1.249 . S
C730 O745 1.202 . S
C731 C729 1.363 . S
C731 C733 1.408 . S
C731 C736 1.342 . S
C732 C733 1.310 . S
C732 C735 1.461 . S
C732 H752 0.932 . S
C733 C731 1.408 . S
C733 C732 1.310 . S
C733 H753 0.930 . S
C734 C735 1.474 . S
C734 C736 1.285 . S
C734 H754 0.929 . S
C735 C732 1.461 . S
C735 C734 1.474 . S
C736 C731 1.342 . S
C736 C734 1.285 . S
C736 H755 0.930 . S
C737 C740 1.424 . S
C737 C742 1.245 . S
C737 C743 1.428 . S
C738 C741 1.260 . S
C738 C742 1.477 . S
C738 H756 0.932 . S
C739 C740 1.384 . S
C739 C741 1.479 . S
C739 H757 0.929 . S
C740 C737 1.424 . S
C740 C739 1.384 . S
C740 H758 0.928 . S
C741 C738 1.260 . S
C741 C739 1.479 . S
C742 C737 1.245 . S
C742 C738 1.477 . S
C742 H759 0.932 . S
C743 U726 2.882 . S
C743 C737 1.428 . S
C743 O746 1.301 . S
C743 O747 1.282 . S
O744 U726 2.441 . S
O744 C730 1.249 . S
O745 U726 2.420 . S
O745 C730 1.202 . S
O746 U726 2.455 . S
O746 C743 1.301 . S
O747 U726 2.449 . S
O747 C743 1.282 . S
H748 C721 0.931 . S
H749 C723 0.929 . S
H750 C724 0.930 . S
H751 C725 0.931 . S
H752 C732 0.932 . S
H753 C733 0.930 . S
H754 C734 0.929 . S
H755 C736 0.930 . S
H756 C738 0.932 . S
H757 C739 0.929 . S
H758 C740 0.928 . S
H759 C742 0.932 . S
C760 C761 1.264 . S
C760 C765 1.479 . S
C760 C770 1.465 . S
C761 C760 1.264 . S
C761 C763 1.339 . S
C761 H788 0.931 . S
C762 C763 1.395 . S
C762 C764 1.320 . S
C763 C761 1.339 . S
C763 C762 1.395 . S
C763 H789 0.929 . S
C764 C762 1.320 . S
C764 C765 1.405 . S
C764 H790 0.930 . S
C765 C760 1.479 . S
C765 C764 1.405 . S
C765 H791 0.931 . S
U766 O767 2.454 . S
U766 O768 2.458 . S
U766 C769 2.984 . S
U766 C770 2.847 . S
U766 C783 2.882 . S
U766 O784 2.441 . S
U766 O785 2.420 . S
U766 O786 2.455 . S
U766 O787 2.449 . S
O767 U766 2.454 . S
O767 C769 1.353 . S
O768 U766 2.458 . S
O768 C769 1.286 . S
C769 U766 2.984 . S
C769 O767 1.353 . S
C769 O768 1.286 . S
C769 C771 1.363 . S
C770 C760 1.465 . S
C770 U766 2.847 . S
C770 O784 1.249 . S
C770 O785 1.202 . S
C771 C769 1.363 . S
C771 C773 1.408 . S
C771 C776 1.342 . S
C772 C773 1.310 . S
C772 C775 1.461 . S
C772 H792 0.932 . S
C773 C771 1.408 . S
C773 C772 1.310 . S
C773 H793 0.930 . S
C774 C775 1.474 . S
C774 C776 1.285 . S
C774 H794 0.929 . S
C775 C772 1.461 . S
C775 C774 1.474 . S
C776 C771 1.342 . S
C776 C774 1.285 . S
C776 H795 0.930 . S
C777 C780 1.424 . S
C777 C782 1.245 . S
C777 C783 1.428 . S
C778 C781 1.260 . S
C778 C782 1.477 . S
C778 H796 0.932 . S
C779 C780 1.384 . S
C779 C781 1.479 . S
C779 H797 0.929 . S
C780 C777 1.424 . S
C780 C779 1.384 . S
C780 H798 0.928 . S
C781 C778 1.260 . S
C781 C779 1.479 . S
C782 C777 1.245 . S
C782 C778 1.477 . S
C782 H799 0.932 . S
C783 U766 2.882 . S
C783 C777 1.428 . S
C783 O786 1.301 . S
C783 O787 1.282 . S
O784 U766 2.441 . S
O784 C770 1.249 . S
O785 U766 2.420 . S
O785 C770 1.202 . S
O786 U766 2.455 . S
O786 C783 1.301 . S
O787 U766 2.449 . S
O787 C783 1.282 . S
H788 C761 0.931 . S
H789 C763 0.929 . S
H790 C764 0.930 . S
H791 C765 0.931 . S
H792 C772 0.932 . S
H793 C773 0.930 . S
H794 C774 0.929 . S
H795 C776 0.930 . S
H796 C778 0.932 . S
H797 C779 0.929 . S
H798 C780 0.928 . S
H799 C782 0.932 . S
C800 C801 1.264 . S
C800 C805 1.479 . S
C800 C810 1.465 . S
C801 C800 1.264 . S
C801 C803 1.339 . S
C801 H828 0.931 . S
C802 C803 1.395 . S
C802 C804 1.320 . S
C803 C801 1.339 . S
C803 C802 1.395 . S
C803 H829 0.929 . S
C804 C802 1.320 . S
C804 C805 1.405 . S
C804 H830 0.930 . S
C805 C800 1.479 . S
C805 C804 1.405 . S
C805 H831 0.931 . S
U806 O807 2.454 . S
U806 O808 2.458 . S
U806 C809 2.984 . S
U806 C810 2.847 . S
U806 C823 2.882 . S
U806 O824 2.441 . S
U806 O825 2.420 . S
U806 O826 2.455 . S
U806 O827 2.449 . S
O807 U806 2.454 . S
O807 C809 1.353 . S
O808 U806 2.458 . S
O808 C809 1.286 . S
C809 U806 2.984 . S
C809 O807 1.353 . S
C809 O808 1.286 . S
C809 C811 1.363 . S
C810 C800 1.465 . S
C810 U806 2.847 . S
C810 O824 1.249 . S
C810 O825 1.202 . S
C811 C809 1.363 . S
C811 C813 1.408 . S
C811 C816 1.342 . S
C812 C813 1.310 . S
C812 C815 1.461 . S
C812 H832 0.932 . S
C813 C811 1.408 . S
C813 C812 1.310 . S
C813 H833 0.930 . S
C814 C815 1.474 . S
C814 C816 1.285 . S
C814 H834 0.929 . S
C815 C812 1.461 . S
C815 C814 1.474 . S
C816 C811 1.342 . S
C816 C814 1.285 . S
C816 H835 0.930 . S
C817 C820 1.424 . S
C817 C822 1.245 . S
C817 C823 1.428 . S
C818 C821 1.260 . S
C818 C822 1.477 . S
C818 H836 0.932 . S
C819 C820 1.384 . S
C819 C821 1.479 . S
C819 H837 0.929 . S
C820 C817 1.424 . S
C820 C819 1.384 . S
C820 H838 0.928 . S
C821 C818 1.260 . S
C821 C819 1.479 . S
C822 C817 1.245 . S
C822 C818 1.477 . S
C822 H839 0.932 . S
C823 U806 2.882 . S
C823 C817 1.428 . S
C823 O826 1.301 . S
C823 O827 1.282 . S
O824 U806 2.441 . S
O824 C810 1.249 . S
O825 U806 2.420 . S
O825 C810 1.202 . S
O826 U806 2.455 . S
O826 C823 1.301 . S
O827 U806 2.449 . S
O827 C823 1.282 . S
H828 C801 0.931 . S
H829 C803 0.929 . S
H830 C804 0.930 . S
H831 C805 0.931 . S
H832 C812 0.932 . S
H833 C813 0.930 . S
H834 C814 0.929 . S
H835 C816 0.930 . S
H836 C818 0.932 . S
H837 C819 0.929 . S
H838 C820 0.928 . S
H839 C822 0.932 . S
C840 C841 1.264 . S
C840 C845 1.479 . S
C840 C850 1.465 . S
C841 C840 1.264 . S
C841 C843 1.339 . S
C841 H868 0.931 . S
C842 C843 1.395 . S
C842 C844 1.320 . S
C843 C841 1.339 . S
C843 C842 1.395 . S
C843 H869 0.929 . S
C844 C842 1.320 . S
C844 C845 1.405 . S
C844 H870 0.930 . S
C845 C840 1.479 . S
C845 C844 1.405 . S
C845 H871 0.931 . S
U846 O847 2.454 . S
U846 O848 2.458 . S
U846 C849 2.984 . S
U846 C850 2.847 . S
U846 C863 2.882 . S
U846 O864 2.441 . S
U846 O865 2.420 . S
U846 O866 2.455 . S
U846 O867 2.449 . S
O847 U846 2.454 . S
O847 C849 1.353 . S
O848 U846 2.458 . S
O848 C849 1.286 . S
C849 U846 2.984 . S
C849 O847 1.353 . S
C849 O848 1.286 . S
C849 C851 1.363 . S
C850 C840 1.465 . S
C850 U846 2.847 . S
C850 O864 1.249 . S
C850 O865 1.202 . S
C851 C849 1.363 . S
C851 C853 1.408 . S
C851 C856 1.342 . S
C852 C853 1.310 . S
C852 C855 1.461 . S
C852 H872 0.932 . S
C853 C851 1.408 . S
C853 C852 1.310 . S
C853 H873 0.930 . S
C854 C855 1.474 . S
C854 C856 1.285 . S
C854 H874 0.929 . S
C855 C852 1.461 . S
C855 C854 1.474 . S
C856 C851 1.342 . S
C856 C854 1.285 . S
C856 H875 0.930 . S
C857 C860 1.424 . S
C857 C862 1.245 . S
C857 C863 1.428 . S
C858 C861 1.260 . S
C858 C862 1.477 . S
C858 H876 0.932 . S
C859 C860 1.384 . S
C859 C861 1.479 . S
C859 H877 0.929 . S
C860 C857 1.424 . S
C860 C859 1.384 . S
C860 H878 0.928 . S
C861 C858 1.260 . S
C861 C859 1.479 . S
C862 C857 1.245 . S
C862 C858 1.477 . S
C862 H879 0.932 . S
C863 U846 2.882 . S
C863 C857 1.428 . S
C863 O866 1.301 . S
C863 O867 1.282 . S
O864 U846 2.441 . S
O864 C850 1.249 . S
O865 U846 2.420 . S
O865 C850 1.202 . S
O866 U846 2.455 . S
O866 C863 1.301 . S
O867 U846 2.449 . S
O867 C863 1.282 . S
H868 C841 0.931 . S
H869 C843 0.929 . S
H870 C844 0.930 . S
H871 C845 0.931 . S
H872 C852 0.932 . S
H873 C853 0.930 . S
H874 C854 0.929 . S
H875 C856 0.930 . S
H876 C858 0.932 . S
H877 C859 0.929 . S
H878 C860 0.928 . S
H879 C862 0.932 . S
C880 C881 1.264 . S
C880 C885 1.479 . S
C880 C890 1.465 . S
C881 C880 1.264 . S
C881 C883 1.339 . S
C881 H908 0.931 . S
C882 C883 1.395 . S
C882 C884 1.320 . S
C883 C881 1.339 . S
C883 C882 1.395 . S
C883 H909 0.929 . S
C884 C882 1.320 . S
C884 C885 1.405 . S
C884 H910 0.930 . S
C885 C880 1.479 . S
C885 C884 1.405 . S
C885 H911 0.931 . S
U886 O887 2.454 . S
U886 O888 2.458 . S
U886 C889 2.984 . S
U886 C890 2.847 . S
U886 C903 2.882 . S
U886 O904 2.441 . S
U886 O905 2.420 . S
U886 O906 2.455 . S
U886 O907 2.449 . S
O887 U886 2.454 . S
O887 C889 1.353 . S
O888 U886 2.458 . S
O888 C889 1.286 . S
C889 U886 2.984 . S
C889 O887 1.353 . S
C889 O888 1.286 . S
C889 C891 1.363 . S
C890 C880 1.465 . S
C890 U886 2.847 . S
C890 O904 1.249 . S
C890 O905 1.202 . S
C891 C889 1.363 . S
C891 C893 1.408 . S
C891 C896 1.342 . S
C892 C893 1.310 . S
C892 C895 1.461 . S
C892 H912 0.932 . S
C893 C891 1.408 . S
C893 C892 1.310 . S
C893 H913 0.930 . S
C894 C895 1.474 . S
C894 C896 1.285 . S
C894 H914 0.929 . S
C895 C892 1.461 . S
C895 C894 1.474 . S
C896 C891 1.342 . S
C896 C894 1.285 . S
C896 H915 0.930 . S
C897 C900 1.424 . S
C897 C902 1.245 . S
C897 C903 1.428 . S
C898 C901 1.260 . S
C898 C902 1.477 . S
C898 H916 0.932 . S
C899 C900 1.384 . S
C899 C901 1.479 . S
C899 H917 0.929 . S
C900 C897 1.424 . S
C900 C899 1.384 . S
C900 H918 0.928 . S
C901 C898 1.260 . S
C901 C899 1.479 . S
C902 C897 1.245 . S
C902 C898 1.477 . S
C902 H919 0.932 . S
C903 U886 2.882 . S
C903 C897 1.428 . S
C903 O906 1.301 . S
C903 O907 1.282 . S
O904 U886 2.441 . S
O904 C890 1.249 . S
O905 U886 2.420 . S
O905 C890 1.202 . S
O906 U886 2.455 . S
O906 C903 1.301 . S
O907 U886 2.449 . S
O907 C903 1.282 . S
H908 C881 0.931 . S
H909 C883 0.929 . S
H910 C884 0.930 . S
H911 C885 0.931 . S
H912 C892 0.932 . S
H913 C893 0.930 . S
H914 C894 0.929 . S
H915 C896 0.930 . S
H916 C898 0.932 . S
H917 C899 0.929 . S
H918 C900 0.928 . S
H919 C902 0.932 . S
C920 C921 1.264 . S
C920 C925 1.479 . S
C920 C930 1.465 . S
C921 C920 1.264 . S
C921 C923 1.339 . S
C921 H948 0.931 . S
C922 C923 1.395 . S
C922 C924 1.320 . S
C923 C921 1.339 . S
C923 C922 1.395 . S
C923 H949 0.929 . S
C924 C922 1.320 . S
C924 C925 1.405 . S
C924 H950 0.930 . S
C925 C920 1.479 . S
C925 C924 1.405 . S
C925 H951 0.931 . S
U926 O927 2.454 . S
U926 O928 2.458 . S
U926 C929 2.984 . S
U926 C930 2.847 . S
U926 C943 2.882 . S
U926 O944 2.441 . S
U926 O945 2.420 . S
U926 O946 2.455 . S
U926 O947 2.449 . S
O927 U926 2.454 . S
O927 C929 1.353 . S
O928 U926 2.458 . S
O928 C929 1.286 . S
C929 U926 2.984 . S
C929 O927 1.353 . S
C929 O928 1.286 . S
C929 C931 1.363 . S
C930 C920 1.465 . S
C930 U926 2.847 . S
C930 O944 1.249 . S
C930 O945 1.202 . S
C931 C929 1.363 . S
C931 C933 1.408 . S
C931 C936 1.342 . S
C932 C933 1.310 . S
C932 C935 1.461 . S
C932 H952 0.932 . S
C933 C931 1.408 . S
C933 C932 1.310 . S
C933 H953 0.930 . S
C934 C935 1.474 . S
C934 C936 1.285 . S
C934 H954 0.929 . S
C935 C932 1.461 . S
C935 C934 1.474 . S
C936 C931 1.342 . S
C936 C934 1.285 . S
C936 H955 0.930 . S
C937 C940 1.424 . S
C937 C942 1.245 . S
C937 C943 1.428 . S
C938 C941 1.260 . S
C938 C942 1.477 . S
C938 H956 0.932 . S
C939 C940 1.384 . S
C939 C941 1.479 . S
C939 H957 0.929 . S
C940 C937 1.424 . S
C940 C939 1.384 . S
C940 H958 0.928 . S
C941 C938 1.260 . S
C941 C939 1.479 . S
C942 C937 1.245 . S
C942 C938 1.477 . S
C942 H959 0.932 . S
C943 U926 2.882 . S
C943 C937 1.428 . S
C943 O946 1.301 . S
C943 O947 1.282 . S
O944 U926 2.441 . S
O944 C930 1.249 . S
O945 U926 2.420 . S
O945 C930 1.202 . S
O946 U926 2.455 . S
O946 C943 1.301 . S
O947 U926 2.449 . S
O947 C943 1.282 . S
H948 C921 0.931 . S
H949 C923 0.929 . S
H950 C924 0.930 . S
H951 C925 0.931 . S
H952 C932 0.932 . S
H953 C933 0.930 . S
H954 C934 0.929 . S
H955 C936 0.930 . S
H956 C938 0.932 . S
H957 C939 0.929 . S
H958 C940 0.928 . S
H959 C942 0.932 . S
C960 C961 1.264 . S
C960 C965 1.479 . S
C960 C970 1.465 . S
C961 C960 1.264 . S
C961 C963 1.339 . S
C961 H988 0.931 . S
C962 C963 1.395 . S
C962 C964 1.320 . S
C963 C961 1.339 . S
C963 C962 1.395 . S
C963 H989 0.929 . S
C964 C962 1.320 . S
C964 C965 1.405 . S
C964 H990 0.930 . S
C965 C960 1.479 . S
C965 C964 1.405 . S
C965 H991 0.931 . S
U966 O967 2.454 . S
U966 O968 2.458 . S
U966 C969 2.984 . S
U966 C970 2.847 . S
U966 C983 2.882 . S
U966 O984 2.441 . S
U966 O985 2.420 . S
U966 O986 2.455 . S
U966 O987 2.449 . S
O967 U966 2.454 . S
O967 C969 1.353 . S
O968 U966 2.458 . S
O968 C969 1.286 . S
C969 U966 2.984 . S
C969 O967 1.353 . S
C969 O968 1.286 . S
C969 C971 1.363 . S
C970 C960 1.465 . S
C970 U966 2.847 . S
C970 O984 1.249 . S
C970 O985 1.202 . S
C971 C969 1.363 . S
C971 C973 1.408 . S
C971 C976 1.342 . S
C972 C973 1.310 . S
C972 C975 1.461 . S
C972 H992 0.932 . S
C973 C971 1.408 . S
C973 C972 1.310 . S
C973 H993 0.930 . S
C974 C975 1.474 . S
C974 C976 1.285 . S
C974 H994 0.929 . S
C975 C972 1.461 . S
C975 C974 1.474 . S
C976 C971 1.342 . S
C976 C974 1.285 . S
C976 H995 0.930 . S
C977 C980 1.424 . S
C977 C982 1.245 . S
C977 C983 1.428 . S
C978 C981 1.260 . S
C978 C982 1.477 . S
C978 H996 0.932 . S
C979 C980 1.384 . S
C979 C981 1.479 . S
C979 H997 0.929 . S
C980 C977 1.424 . S
C980 C979 1.384 . S
C980 H998 0.928 . S
C981 C978 1.260 . S
C981 C979 1.479 . S
C982 C977 1.245 . S
C982 C978 1.477 . S
C982 H999 0.932 . S
C983 U966 2.882 . S
C983 C977 1.428 . S
C983 O986 1.301 . S
C983 O987 1.282 . S
O984 U966 2.441 . S
O984 C970 1.249 . S
O985 U966 2.420 . S
O985 C970 1.202 . S
O986 U966 2.455 . S
O986 C983 1.301 . S
O987 U966 2.449 . S
O987 C983 1.282 . S
H988 C961 0.931 . S
H989 C963 0.929 . S
H990 C964 0.930 . S
H991 C965 0.931 . S
H992 C972 0.932 . S
H993 C973 0.930 . S
H994 C974 0.929 . S
H995 C976 0.930 . S
H996 C978 0.932 . S
H997 C979 0.929 . S
H998 C980 0.928 . S
H999 C982 0.932 . S
C1000 C1001 1.264 . S
C1000 C1005 1.479 . S
C1000 C1010 1.465 . S
C1001 C1000 1.264 . S
C1001 C1003 1.339 . S
C1001 H1028 0.931 . S
C1002 C1003 1.395 . S
C1002 C1004 1.320 . S
C1003 C1001 1.339 . S
C1003 C1002 1.395 . S
C1003 H1029 0.929 . S
C1004 C1002 1.320 . S
C1004 C1005 1.405 . S
C1004 H1030 0.930 . S
C1005 C1000 1.479 . S
C1005 C1004 1.405 . S
C1005 H1031 0.931 . S
U1006 O1007 2.454 . S
U1006 O1008 2.458 . S
U1006 C1009 2.984 . S
U1006 C1010 2.847 . S
U1006 C1023 2.882 . S
U1006 O1024 2.441 . S
U1006 O1025 2.420 . S
U1006 O1026 2.455 . S
U1006 O1027 2.449 . S
O1007 U1006 2.454 . S
O1007 C1009 1.353 . S
O1008 U1006 2.458 . S
O1008 C1009 1.286 . S
C1009 U1006 2.984 . S
C1009 O1007 1.353 . S
C1009 O1008 1.286 . S
C1009 C1011 1.363 . S
C1010 C1000 1.465 . S
C1010 U1006 2.847 . S
C1010 O1024 1.249 . S
C1010 O1025 1.202 . S
C1011 C1009 1.363 . S
C1011 C1013 1.408 . S
C1011 C1016 1.342 . S
C1012 C1013 1.310 . S
C1012 C1015 1.461 . S
C1012 H1032 0.932 . S
C1013 C1011 1.408 . S
C1013 C1012 1.310 . S
C1013 H1033 0.930 . S
C1014 C1015 1.474 . S
C1014 C1016 1.285 . S
C1014 H1034 0.929 . S
C1015 C1012 1.461 . S
C1015 C1014 1.474 . S
C1016 C1011 1.342 . S
C1016 C1014 1.285 . S
C1016 H1035 0.930 . S
C1017 C1020 1.424 . S
C1017 C1022 1.245 . S
C1017 C1023 1.428 . S
C1018 C1021 1.260 . S
C1018 C1022 1.477 . S
C1018 H1036 0.932 . S
C1019 C1020 1.384 . S
C1019 C1021 1.479 . S
C1019 H1037 0.929 . S
C1020 C1017 1.424 . S
C1020 C1019 1.384 . S
C1020 H1038 0.928 . S
C1021 C1018 1.260 . S
C1021 C1019 1.479 . S
C1022 C1017 1.245 . S
C1022 C1018 1.477 . S
C1022 H1039 0.932 . S
C1023 U1006 2.882 . S
C1023 C1017 1.428 . S
C1023 O1026 1.301 . S
C1023 O1027 1.282 . S
O1024 U1006 2.441 . S
O1024 C1010 1.249 . S
O1025 U1006 2.420 . S
O1025 C1010 1.202 . S
O1026 U1006 2.455 . S
O1026 C1023 1.301 . S
O1027 U1006 2.449 . S
O1027 C1023 1.282 . S
H1028 C1001 0.931 . S
H1029 C1003 0.929 . S
H1030 C1004 0.930 . S
H1031 C1005 0.931 . S
H1032 C1012 0.932 . S
H1033 C1013 0.930 . S
H1034 C1014 0.929 . S
H1035 C1016 0.930 . S
H1036 C1018 0.932 . S
H1037 C1019 0.929 . S
H1038 C1020 0.928 . S
H1039 C1022 0.932 . S
C1040 C1041 1.264 . S
C1040 C1045 1.479 . S
C1040 C1050 1.465 . S
C1041 C1040 1.264 . S
C1041 C1043 1.339 . S
C1041 H1068 0.931 . S
C1042 C1043 1.395 . S
C1042 C1044 1.320 . S
C1043 C1041 1.339 . S
C1043 C1042 1.395 . S
C1043 H1069 0.929 . S
C1044 C1042 1.320 . S
C1044 C1045 1.405 . S
C1044 H1070 0.930 . S
C1045 C1040 1.479 . S
C1045 C1044 1.405 . S
C1045 H1071 0.931 . S
U1046 O1047 2.454 . S
U1046 O1048 2.458 . S
U1046 C1049 2.984 . S
U1046 C1050 2.847 . S
U1046 C1063 2.882 . S
U1046 O1064 2.441 . S
U1046 O1065 2.420 . S
U1046 O1066 2.455 . S
U1046 O1067 2.449 . S
O1047 U1046 2.454 . S
O1047 C1049 1.353 . S
O1048 U1046 2.458 . S
O1048 C1049 1.286 . S
C1049 U1046 2.984 . S
C1049 O1047 1.353 . S
C1049 O1048 1.286 . S
C1049 C1051 1.363 . S
C1050 C1040 1.465 . S
C1050 U1046 2.847 . S
C1050 O1064 1.249 . S
C1050 O1065 1.202 . S
C1051 C1049 1.363 . S
C1051 C1053 1.408 . S
C1051 C1056 1.342 . S
C1052 C1053 1.310 . S
C1052 C1055 1.461 . S
C1052 H1072 0.932 . S
C1053 C1051 1.408 . S
C1053 C1052 1.310 . S
C1053 H1073 0.930 . S
C1054 C1055 1.474 . S
C1054 C1056 1.285 . S
C1054 H1074 0.929 . S
C1055 C1052 1.461 . S
C1055 C1054 1.474 . S
C1056 C1051 1.342 . S
C1056 C1054 1.285 . S
C1056 H1075 0.930 . S
C1057 C1060 1.424 . S
C1057 C1062 1.245 . S
C1057 C1063 1.428 . S
C1058 C1061 1.260 . S
C1058 C1062 1.477 . S
C1058 H1076 0.932 . S
C1059 C1060 1.384 . S
C1059 C1061 1.479 . S
C1059 H1077 0.929 . S
C1060 C1057 1.424 . S
C1060 C1059 1.384 . S
C1060 H1078 0.928 . S
C1061 C1058 1.260 . S
C1061 C1059 1.479 . S
C1062 C1057 1.245 . S
C1062 C1058 1.477 . S
C1062 H1079 0.932 . S
C1063 U1046 2.882 . S
C1063 C1057 1.428 . S
C1063 O1066 1.301 . S
C1063 O1067 1.282 . S
O1064 U1046 2.441 . S
O1064 C1050 1.249 . S
O1065 U1046 2.420 . S
O1065 C1050 1.202 . S
O1066 U1046 2.455 . S
O1066 C1063 1.301 . S
O1067 U1046 2.449 . S
O1067 C1063 1.282 . S
H1068 C1041 0.931 . S
H1069 C1043 0.929 . S
H1070 C1044 0.930 . S
H1071 C1045 0.931 . S
H1072 C1052 0.932 . S
H1073 C1053 0.930 . S
H1074 C1054 0.929 . S
H1075 C1056 0.930 . S
H1076 C1058 0.932 . S
H1077 C1059 0.929 . S
H1078 C1060 0.928 . S
H1079 C1062 0.932 . S
C1080 C1081 1.264 . S
C1080 C1085 1.479 . S
C1080 C1090 1.465 . S
C1081 C1080 1.264 . S
C1081 C1083 1.339 . S
C1081 H1108 0.931 . S
C1082 C1083 1.395 . S
C1082 C1084 1.320 . S
C1083 C1081 1.339 . S
C1083 C1082 1.395 . S
C1083 H1109 0.929 . S
C1084 C1082 1.320 . S
C1084 C1085 1.405 . S
C1084 H1110 0.930 . S
C1085 C1080 1.479 . S
C1085 C1084 1.405 . S
C1085 H1111 0.931 . S
U1086 O1087 2.454 . S
U1086 O1088 2.458 . S
U1086 C1089 2.984 . S
U1086 C1090 2.847 . S
U1086 C1103 2.882 . S
U1086 O1104 2.441 . S
U1086 O1105 2.420 . S
U1086 O1106 2.455 . S
U1086 O1107 2.449 . S
O1087 U1086 2.454 . S
O1087 C1089 1.353 . S
O1088 U1086 2.458 . S
O1088 C1089 1.286 . S
C1089 U1086 2.984 . S
C1089 O1087 1.353 . S
C1089 O1088 1.286 . S
C1089 C1091 1.363 . S
C1090 C1080 1.465 . S
C1090 U1086 2.847 . S
C1090 O1104 1.249 . S
C1090 O1105 1.202 . S
C1091 C1089 1.363 . S
C1091 C1093 1.408 . S
C1091 C1096 1.342 . S
C1092 C1093 1.310 . S
C1092 C1095 1.461 . S
C1092 H1112 0.932 . S
C1093 C1091 1.408 . S
C1093 C1092 1.310 . S
C1093 H1113 0.930 . S
C1094 C1095 1.474 . S
C1094 C1096 1.285 . S
C1094 H1114 0.929 . S
C1095 C1092 1.461 . S
C1095 C1094 1.474 . S
C1096 C1091 1.342 . S
C1096 C1094 1.285 . S
C1096 H1115 0.930 . S
C1097 C1100 1.424 . S
C1097 C1102 1.245 . S
C1097 C1103 1.428 . S
C1098 C1101 1.260 . S
C1098 C1102 1.477 . S
C1098 H1116 0.932 . S
C1099 C1100 1.384 . S
C1099 C1101 1.479 . S
C1099 H1117 0.929 . S
C1100 C1097 1.424 . S
C1100 C1099 1.384 . S
C1100 H1118 0.928 . S
C1101 C1098 1.260 . S
C1101 C1099 1.479 . S
C1102 C1097 1.245 . S
C1102 C1098 1.477 . S
C1102 H1119 0.932 . S
C1103 U1086 2.882 . S
C1103 C1097 1.428 . S
C1103 O1106 1.301 . S
C1103 O1107 1.282 . S
O1104 U1086 2.441 . S
O1104 C1090 1.249 . S
O1105 U1086 2.420 . S
O1105 C1090 1.202 . S
O1106 U1086 2.455 . S
O1106 C1103 1.301 . S
O1107 U1086 2.449 . S
O1107 C1103 1.282 . S
H1108 C1081 0.931 . S
H1109 C1083 0.929 . S
H1110 C1084 0.930 . S
H1111 C1085 0.931 . S
H1112 C1092 0.932 . S
H1113 C1093 0.930 . S
H1114 C1094 0.929 . S
H1115 C1096 0.930 . S
H1116 C1098 0.932 . S
H1117 C1099 0.929 . S
H1118 C1100 0.928 . S
H1119 C1102 0.932 . S
C1120 C1121 1.264 . S
C1120 C1125 1.479 . S
C1120 C1130 1.465 . S
C1121 C1120 1.264 . S
C1121 C1123 1.339 . S
C1121 H1148 0.931 . S
C1122 C1123 1.395 . S
C1122 C1124 1.320 . S
C1123 C1121 1.339 . S
C1123 C1122 1.395 . S
C1123 H1149 0.929 . S
C1124 C1122 1.320 . S
C1124 C1125 1.405 . S
C1124 H1150 0.930 . S
C1125 C1120 1.479 . S
C1125 C1124 1.405 . S
C1125 H1151 0.931 . S
U1126 O1127 2.454 . S
U1126 O1128 2.458 . S
U1126 C1129 2.984 . S
U1126 C1130 2.847 . S
U1126 C1143 2.882 . S
U1126 O1144 2.441 . S
U1126 O1145 2.420 . S
U1126 O1146 2.455 . S
U1126 O1147 2.449 . S
O1127 U1126 2.454 . S
O1127 C1129 1.353 . S
O1128 U1126 2.458 . S
O1128 C1129 1.286 . S
C1129 U1126 2.984 . S
C1129 O1127 1.353 . S
C1129 O1128 1.286 . S
C1129 C1131 1.363 . S
C1130 C1120 1.465 . S
C1130 U1126 2.847 . S
C1130 O1144 1.249 . S
C1130 O1145 1.202 . S
C1131 C1129 1.363 . S
C1131 C1133 1.408 . S
C1131 C1136 1.342 . S
C1132 C1133 1.310 . S
C1132 C1135 1.461 . S
C1132 H1152 0.932 . S
C1133 C1131 1.408 . S
C1133 C1132 1.310 . S
C1133 H1153 0.930 . S
C1134 C1135 1.474 . S
C1134 C1136 1.285 . S
C1134 H1154 0.929 . S
C1135 C1132 1.461 . S
C1135 C1134 1.474 . S
C1136 C1131 1.342 . S
C1136 C1134 1.285 . S
C1136 H1155 0.930 . S
C1137 C1140 1.424 . S
C1137 C1142 1.245 . S
C1137 C1143 1.428 . S
C1138 C1141 1.260 . S
C1138 C1142 1.477 . S
C1138 H1156 0.932 . S
C1139 C1140 1.384 . S
C1139 C1141 1.479 . S
C1139 H1157 0.929 . S
C1140 C1137 1.424 . S
C1140 C1139 1.384 . S
C1140 H1158 0.928 . S
C1141 C1138 1.260 . S
C1141 C1139 1.479 . S
C1142 C1137 1.245 . S
C1142 C1138 1.477 . S
C1142 H1159 0.932 . S
C1143 U1126 2.882 . S
C1143 C1137 1.428 . S
C1143 O1146 1.301 . S
C1143 O1147 1.282 . S
O1144 U1126 2.441 . S
O1144 C1130 1.249 . S
O1145 U1126 2.420 . S
O1145 C1130 1.202 . S
O1146 U1126 2.455 . S
O1146 C1143 1.301 . S
O1147 U1126 2.449 . S
O1147 C1143 1.282 . S
H1148 C1121 0.931 . S
H1149 C1123 0.929 . S
H1150 C1124 0.930 . S
H1151 C1125 0.931 . S
H1152 C1132 0.932 . S
H1153 C1133 0.930 . S
H1154 C1134 0.929 . S
H1155 C1136 0.930 . S
H1156 C1138 0.932 . S
H1157 C1139 0.929 . S
H1158 C1140 0.928 . S
H1159 C1142 0.932 . S
C1160 C1161 1.264 . S
C1160 C1165 1.479 . S
C1160 C1170 1.465 . S
C1161 C1160 1.264 . S
C1161 C1163 1.339 . S
C1161 H1188 0.931 . S
C1162 C1163 1.395 . S
C1162 C1164 1.320 . S
C1163 C1161 1.339 . S
C1163 C1162 1.395 . S
C1163 H1189 0.929 . S
C1164 C1162 1.320 . S
C1164 C1165 1.405 . S
C1164 H1190 0.930 . S
C1165 C1160 1.479 . S
C1165 C1164 1.405 . S
C1165 H1191 0.931 . S
U1166 O1167 2.454 . S
U1166 O1168 2.458 . S
U1166 C1169 2.984 . S
U1166 C1170 2.847 . S
U1166 C1183 2.882 . S
U1166 O1184 2.441 . S
U1166 O1185 2.420 . S
U1166 O1186 2.455 . S
U1166 O1187 2.449 . S
O1167 U1166 2.454 . S
O1167 C1169 1.353 . S
O1168 U1166 2.458 . S
O1168 C1169 1.286 . S
C1169 U1166 2.984 . S
C1169 O1167 1.353 . S
C1169 O1168 1.286 . S
C1169 C1171 1.363 . S
C1170 C1160 1.465 . S
C1170 U1166 2.847 . S
C1170 O1184 1.249 . S
C1170 O1185 1.202 . S
C1171 C1169 1.363 . S
C1171 C1173 1.408 . S
C1171 C1176 1.342 . S
C1172 C1173 1.310 . S
C1172 C1175 1.461 . S
C1172 H1192 0.932 . S
C1173 C1171 1.408 . S
C1173 C1172 1.310 . S
C1173 H1193 0.930 . S
C1174 C1175 1.474 . S
C1174 C1176 1.285 . S
C1174 H1194 0.929 . S
C1175 C1172 1.461 . S
C1175 C1174 1.474 . S
C1176 C1171 1.342 . S
C1176 C1174 1.285 . S
C1176 H1195 0.930 . S
C1177 C1180 1.424 . S
C1177 C1182 1.245 . S
C1177 C1183 1.428 . S
C1178 C1181 1.260 . S
C1178 C1182 1.477 . S
C1178 H1196 0.932 . S
C1179 C1180 1.384 . S
C1179 C1181 1.479 . S
C1179 H1197 0.929 . S
C1180 C1177 1.424 . S
C1180 C1179 1.384 . S
C1180 H1198 0.928 . S
C1181 C1178 1.260 . S
C1181 C1179 1.479 . S
C1182 C1177 1.245 . S
C1182 C1178 1.477 . S
C1182 H1199 0.932 . S
C1183 U1166 2.882 . S
C1183 C1177 1.428 . S
C1183 O1186 1.301 . S
C1183 O1187 1.282 . S
O1184 U1166 2.441 . S
O1184 C1170 1.249 . S
O1185 U1166 2.420 . S
O1185 C1170 1.202 . S
O1186 U1166 2.455 . S
O1186 C1183 1.301 . S
O1187 U1166 2.449 . S
O1187 C1183 1.282 . S
H1188 C1161 0.931 . S
H1189 C1163 0.929 . S
H1190 C1164 0.930 . S
H1191 C1165 0.931 . S
H1192 C1172 0.932 . S
H1193 C1173 0.930 . S
H1194 C1174 0.929 . S
H1195 C1176 0.930 . S
H1196 C1178 0.932 . S
H1197 C1179 0.929 . S
H1198 C1180 0.928 . S
H1199 C1182 0.932 . S
C1200 C1201 1.264 . S
C1200 C1205 1.479 . S
C1200 C1210 1.465 . S
C1201 C1200 1.264 . S
C1201 C1203 1.339 . S
C1201 H1228 0.931 . S
C1202 C1203 1.395 . S
C1202 C1204 1.320 . S
C1203 C1201 1.339 . S
C1203 C1202 1.395 . S
C1203 H1229 0.929 . S
C1204 C1202 1.320 . S
C1204 C1205 1.405 . S
C1204 H1230 0.930 . S
C1205 C1200 1.479 . S
C1205 C1204 1.405 . S
C1205 H1231 0.931 . S
U1206 O1207 2.454 . S
U1206 O1208 2.458 . S
U1206 C1209 2.984 . S
U1206 C1210 2.847 . S
U1206 C1223 2.882 . S
U1206 O1224 2.441 . S
U1206 O1225 2.420 . S
U1206 O1226 2.455 . S
U1206 O1227 2.449 . S
O1207 U1206 2.454 . S
O1207 C1209 1.353 . S
O1208 U1206 2.458 . S
O1208 C1209 1.286 . S
C1209 U1206 2.984 . S
C1209 O1207 1.353 . S
C1209 O1208 1.286 . S
C1209 C1211 1.363 . S
C1210 C1200 1.465 . S
C1210 U1206 2.847 . S
C1210 O1224 1.249 . S
C1210 O1225 1.202 . S
C1211 C1209 1.363 . S
C1211 C1213 1.408 . S
C1211 C1216 1.342 . S
C1212 C1213 1.310 . S
C1212 C1215 1.461 . S
C1212 H1232 0.932 . S
C1213 C1211 1.408 . S
C1213 C1212 1.310 . S
C1213 H1233 0.930 . S
C1214 C1215 1.474 . S
C1214 C1216 1.285 . S
C1214 H1234 0.929 . S
C1215 C1212 1.461 . S
C1215 C1214 1.474 . S
C1216 C1211 1.342 . S
C1216 C1214 1.285 . S
C1216 H1235 0.930 . S
C1217 C1220 1.424 . S
C1217 C1222 1.245 . S
C1217 C1223 1.428 . S
C1218 C1221 1.260 . S
C1218 C1222 1.477 . S
C1218 H1236 0.932 . S
C1219 C1220 1.384 . S
C1219 C1221 1.479 . S
C1219 H1237 0.929 . S
C1220 C1217 1.424 . S
C1220 C1219 1.384 . S
C1220 H1238 0.928 . S
C1221 C1218 1.260 . S
C1221 C1219 1.479 . S
C1222 C1217 1.245 . S
C1222 C1218 1.477 . S
C1222 H1239 0.932 . S
C1223 U1206 2.882 . S
C1223 C1217 1.428 . S
C1223 O1226 1.301 . S
C1223 O1227 1.282 . S
O1224 U1206 2.441 . S
O1224 C1210 1.249 . S
O1225 U1206 2.420 . S
O1225 C1210 1.202 . S
O1226 U1206 2.455 . S
O1226 C1223 1.301 . S
O1227 U1206 2.449 . S
O1227 C1223 1.282 . S
H1228 C1201 0.931 . S
H1229 C1203 0.929 . S
H1230 C1204 0.930 . S
H1231 C1205 0.931 . S
H1232 C1212 0.932 . S
H1233 C1213 0.930 . S
H1234 C1214 0.929 . S
H1235 C1216 0.930 . S
H1236 C1218 0.932 . S
H1237 C1219 0.929 . S
H1238 C1220 0.928 . S
H1239 C1222 0.932 . S
C1240 C1241 1.264 . S
C1240 C1245 1.479 . S
C1240 C1250 1.465 . S
C1241 C1240 1.264 . S
C1241 C1243 1.339 . S
C1241 H1268 0.931 . S
C1242 C1243 1.395 . S
C1242 C1244 1.320 . S
C1243 C1241 1.339 . S
C1243 C1242 1.395 . S
C1243 H1269 0.929 . S
C1244 C1242 1.320 . S
C1244 C1245 1.405 . S
C1244 H1270 0.930 . S
C1245 C1240 1.479 . S
C1245 C1244 1.405 . S
C1245 H1271 0.931 . S
U1246 O1247 2.454 . S
U1246 O1248 2.458 . S
U1246 C1249 2.984 . S
U1246 C1250 2.847 . S
U1246 C1263 2.882 . S
U1246 O1264 2.441 . S
U1246 O1265 2.420 . S
U1246 O1266 2.455 . S
U1246 O1267 2.449 . S
O1247 U1246 2.454 . S
O1247 C1249 1.353 . S
O1248 U1246 2.458 . S
O1248 C1249 1.286 . S
C1249 U1246 2.984 . S
C1249 O1247 1.353 . S
C1249 O1248 1.286 . S
C1249 C1251 1.363 . S
C1250 C1240 1.465 . S
C1250 U1246 2.847 . S
C1250 O1264 1.249 . S
C1250 O1265 1.202 . S
C1251 C1249 1.363 . S
C1251 C1253 1.408 . S
C1251 C1256 1.342 . S
C1252 C1253 1.310 . S
C1252 C1255 1.461 . S
C1252 H1272 0.932 . S
C1253 C1251 1.408 . S
C1253 C1252 1.310 . S
C1253 H1273 0.930 . S
C1254 C1255 1.474 . S
C1254 C1256 1.285 . S
C1254 H1274 0.929 . S
C1255 C1252 1.461 . S
C1255 C1254 1.474 . S
C1256 C1251 1.342 . S
C1256 C1254 1.285 . S
C1256 H1275 0.930 . S
C1257 C1260 1.424 . S
C1257 C1262 1.245 . S
C1257 C1263 1.428 . S
C1258 C1261 1.260 . S
C1258 C1262 1.477 . S
C1258 H1276 0.932 . S
C1259 C1260 1.384 . S
C1259 C1261 1.479 . S
C1259 H1277 0.929 . S
C1260 C1257 1.424 . S
C1260 C1259 1.384 . S
C1260 H1278 0.928 . S
C1261 C1258 1.260 . S
C1261 C1259 1.479 . S
C1262 C1257 1.245 . S
C1262 C1258 1.477 . S
C1262 H1279 0.932 . S
C1263 U1246 2.882 . S
C1263 C1257 1.428 . S
C1263 O1266 1.301 . S
C1263 O1267 1.282 . S
O1264 U1246 2.441 . S
O1264 C1250 1.249 . S
O1265 U1246 2.420 . S
O1265 C1250 1.202 . S
O1266 U1246 2.455 . S
O1266 C1263 1.301 . S
O1267 U1246 2.449 . S
O1267 C1263 1.282 . S
H1268 C1241 0.931 . S
H1269 C1243 0.929 . S
H1270 C1244 0.930 . S
H1271 C1245 0.931 . S
H1272 C1252 0.932 . S
H1273 C1253 0.930 . S
H1274 C1254 0.929 . S
H1275 C1256 0.930 . S
H1276 C1258 0.932 . S
H1277 C1259 0.929 . S
H1278 C1260 0.928 . S
H1279 C1262 0.932 . S
C1280 C1281 1.264 . S
C1280 C1285 1.479 . S
C1280 C1290 1.465 . S
C1281 C1280 1.264 . S
C1281 C1283 1.339 . S
C1281 H1308 0.931 . S
C1282 C1283 1.395 . S
C1282 C1284 1.320 . S
C1283 C1281 1.339 . S
C1283 C1282 1.395 . S
C1283 H1309 0.929 . S
C1284 C1282 1.320 . S
C1284 C1285 1.405 . S
C1284 H1310 0.930 . S
C1285 C1280 1.479 . S
C1285 C1284 1.405 . S
C1285 H1311 0.931 . S
U1286 O1287 2.454 . S
U1286 O1288 2.458 . S
U1286 C1289 2.984 . S
U1286 C1290 2.847 . S
U1286 C1303 2.882 . S
U1286 O1304 2.441 . S
U1286 O1305 2.420 . S
U1286 O1306 2.455 . S
U1286 O1307 2.449 . S
O1287 U1286 2.454 . S
O1287 C1289 1.353 . S
O1288 U1286 2.458 . S
O1288 C1289 1.286 . S
C1289 U1286 2.984 . S
C1289 O1287 1.353 . S
C1289 O1288 1.286 . S
C1289 C1291 1.363 . S
C1290 C1280 1.465 . S
C1290 U1286 2.847 . S
C1290 O1304 1.249 . S
C1290 O1305 1.202 . S
C1291 C1289 1.363 . S
C1291 C1293 1.408 . S
C1291 C1296 1.342 . S
C1292 C1293 1.310 . S
C1292 C1295 1.461 . S
C1292 H1312 0.932 . S
C1293 C1291 1.408 . S
C1293 C1292 1.310 . S
C1293 H1313 0.930 . S
C1294 C1295 1.474 . S
C1294 C1296 1.285 . S
C1294 H1314 0.929 . S
C1295 C1292 1.461 . S
C1295 C1294 1.474 . S
C1296 C1291 1.342 . S
C1296 C1294 1.285 . S
C1296 H1315 0.930 . S
C1297 C1300 1.424 . S
C1297 C1302 1.245 . S
C1297 C1303 1.428 . S
C1298 C1301 1.260 . S
C1298 C1302 1.477 . S
C1298 H1316 0.932 . S
C1299 C1300 1.384 . S
C1299 C1301 1.479 . S
C1299 H1317 0.929 . S
C1300 C1297 1.424 . S
C1300 C1299 1.384 . S
C1300 H1318 0.928 . S
C1301 C1298 1.260 . S
C1301 C1299 1.479 . S
C1302 C1297 1.245 . S
C1302 C1298 1.477 . S
C1302 H1319 0.932 . S
C1303 U1286 2.882 . S
C1303 C1297 1.428 . S
C1303 O1306 1.301 . S
C1303 O1307 1.282 . S
O1304 U1286 2.441 . S
O1304 C1290 1.249 . S
O1305 U1286 2.420 . S
O1305 C1290 1.202 . S
O1306 U1286 2.455 . S
O1306 C1303 1.301 . S
O1307 U1286 2.449 . S
O1307 C1303 1.282 . S
H1308 C1281 0.931 . S
H1309 C1283 0.929 . S
H1310 C1284 0.930 . S
H1311 C1285 0.931 . S
H1312 C1292 0.932 . S
H1313 C1293 0.930 . S
H1314 C1294 0.929 . S
H1315 C1296 0.930 . S
H1316 C1298 0.932 . S
H1317 C1299 0.929 . S
H1318 C1300 0.928 . S
H1319 C1302 0.932 . S
C1320 C1321 1.264 . S
C1320 C1325 1.479 . S
C1320 C1330 1.465 . S
C1321 C1320 1.264 . S
C1321 C1323 1.339 . S
C1321 H1348 0.931 . S
C1322 C1323 1.395 . S
C1322 C1324 1.320 . S
C1323 C1321 1.339 . S
C1323 C1322 1.395 . S
C1323 H1349 0.929 . S
C1324 C1322 1.320 . S
C1324 C1325 1.405 . S
C1324 H1350 0.930 . S
C1325 C1320 1.479 . S
C1325 C1324 1.405 . S
C1325 H1351 0.931 . S
U1326 O1327 2.454 . S
U1326 O1328 2.458 . S
U1326 C1329 2.984 . S
U1326 C1330 2.847 . S
U1326 C1343 2.882 . S
U1326 O1344 2.441 . S
U1326 O1345 2.420 . S
U1326 O1346 2.455 . S
U1326 O1347 2.449 . S
O1327 U1326 2.454 . S
O1327 C1329 1.353 . S
O1328 U1326 2.458 . S
O1328 C1329 1.286 . S
C1329 U1326 2.984 . S
C1329 O1327 1.353 . S
C1329 O1328 1.286 . S
C1329 C1331 1.363 . S
C1330 C1320 1.465 . S
C1330 U1326 2.847 . S
C1330 O1344 1.249 . S
C1330 O1345 1.202 . S
C1331 C1329 1.363 . S
C1331 C1333 1.408 . S
C1331 C1336 1.342 . S
C1332 C1333 1.310 . S
C1332 C1335 1.461 . S
C1332 H1352 0.932 . S
C1333 C1331 1.408 . S
C1333 C1332 1.310 . S
C1333 H1353 0.930 . S
C1334 C1335 1.474 . S
C1334 C1336 1.285 . S
C1334 H1354 0.929 . S
C1335 C1332 1.461 . S
C1335 C1334 1.474 . S
C1336 C1331 1.342 . S
C1336 C1334 1.285 . S
C1336 H1355 0.930 . S
C1337 C1340 1.424 . S
C1337 C1342 1.245 . S
C1337 C1343 1.428 . S
C1338 C1341 1.260 . S
C1338 C1342 1.477 . S
C1338 H1356 0.932 . S
C1339 C1340 1.384 . S
C1339 C1341 1.479 . S
C1339 H1357 0.929 . S
C1340 C1337 1.424 . S
C1340 C1339 1.384 . S
C1340 H1358 0.928 . S
C1341 C1338 1.260 . S
C1341 C1339 1.479 . S
C1342 C1337 1.245 . S
C1342 C1338 1.477 . S
C1342 H1359 0.932 . S
C1343 U1326 2.882 . S
C1343 C1337 1.428 . S
C1343 O1346 1.301 . S
C1343 O1347 1.282 . S
O1344 U1326 2.441 . S
O1344 C1330 1.249 . S
O1345 U1326 2.420 . S
O1345 C1330 1.202 . S
O1346 U1326 2.455 . S
O1346 C1343 1.301 . S
O1347 U1326 2.449 . S
O1347 C1343 1.282 . S
H1348 C1321 0.931 . S
H1349 C1323 0.929 . S
H1350 C1324 0.930 . S
H1351 C1325 0.931 . S
H1352 C1332 0.932 . S
H1353 C1333 0.930 . S
H1354 C1334 0.929 . S
H1355 C1336 0.930 . S
H1356 C1338 0.932 . S
H1357 C1339 0.929 . S
H1358 C1340 0.928 . S
H1359 C1342 0.932 . S
C1360 C1361 1.264 . S
C1360 C1365 1.479 . S
C1360 C1370 1.465 . S
C1361 C1360 1.264 . S
C1361 C1363 1.339 . S
C1361 H1388 0.931 . S
C1362 C1363 1.395 . S
C1362 C1364 1.320 . S
C1363 C1361 1.339 . S
C1363 C1362 1.395 . S
C1363 H1389 0.929 . S
C1364 C1362 1.320 . S
C1364 C1365 1.405 . S
C1364 H1390 0.930 . S
C1365 C1360 1.479 . S
C1365 C1364 1.405 . S
C1365 H1391 0.931 . S
U1366 O1367 2.454 . S
U1366 O1368 2.458 . S
U1366 C1369 2.984 . S
U1366 C1370 2.847 . S
U1366 C1383 2.882 . S
U1366 O1384 2.441 . S
U1366 O1385 2.420 . S
U1366 O1386 2.455 . S
U1366 O1387 2.449 . S
O1367 U1366 2.454 . S
O1367 C1369 1.353 . S
O1368 U1366 2.458 . S
O1368 C1369 1.286 . S
C1369 U1366 2.984 . S
C1369 O1367 1.353 . S
C1369 O1368 1.286 . S
C1369 C1371 1.363 . S
C1370 C1360 1.465 . S
C1370 U1366 2.847 . S
C1370 O1384 1.249 . S
C1370 O1385 1.202 . S
C1371 C1369 1.363 . S
C1371 C1373 1.408 . S
C1371 C1376 1.342 . S
C1372 C1373 1.310 . S
C1372 C1375 1.461 . S
C1372 H1392 0.932 . S
C1373 C1371 1.408 . S
C1373 C1372 1.310 . S
C1373 H1393 0.930 . S
C1374 C1375 1.474 . S
C1374 C1376 1.285 . S
C1374 H1394 0.929 . S
C1375 C1372 1.461 . S
C1375 C1374 1.474 . S
C1376 C1371 1.342 . S
C1376 C1374 1.285 . S
C1376 H1395 0.930 . S
C1377 C1380 1.424 . S
C1377 C1382 1.245 . S
C1377 C1383 1.428 . S
C1378 C1381 1.260 . S
C1378 C1382 1.477 . S
C1378 H1396 0.932 . S
C1379 C1380 1.384 . S
C1379 C1381 1.479 . S
C1379 H1397 0.929 . S
C1380 C1377 1.424 . S
C1380 C1379 1.384 . S
C1380 H1398 0.928 . S
C1381 C1378 1.260 . S
C1381 C1379 1.479 . S
C1382 C1377 1.245 . S
C1382 C1378 1.477 . S
C1382 H1399 0.932 . S
C1383 U1366 2.882 . S
C1383 C1377 1.428 . S
C1383 O1386 1.301 . S
C1383 O1387 1.282 . S
O1384 U1366 2.441 . S
O1384 C1370 1.249 . S
O1385 U1366 2.420 . S
O1385 C1370 1.202 . S
O1386 U1366 2.455 . S
O1386 C1383 1.301 . S
O1387 U1366 2.449 . S
O1387 C1383 1.282 . S
H1388 C1361 0.931 . S
H1389 C1363 0.929 . S
H1390 C1364 0.930 . S
H1391 C1365 0.931 . S
H1392 C1372 0.932 . S
H1393 C1373 0.930 . S
H1394 C1374 0.929 . S
H1395 C1376 0.930 . S
H1396 C1378 0.932 . S
H1397 C1379 0.929 . S
H1398 C1380 0.928 . S
H1399 C1382 0.932 . S
C1400 C1401 1.264 . S
C1400 C1405 1.479 . S
C1400 C1410 1.465 . S
C1401 C1400 1.264 . S
C1401 C1403 1.339 . S
C1401 H1428 0.931 . S
C1402 C1403 1.395 . S
C1402 C1404 1.320 . S
C1403 C1401 1.339 . S
C1403 C1402 1.395 . S
C1403 H1429 0.929 . S
C1404 C1402 1.320 . S
C1404 C1405 1.405 . S
C1404 H1430 0.930 . S
C1405 C1400 1.479 . S
C1405 C1404 1.405 . S
C1405 H1431 0.931 . S
U1406 O1407 2.454 . S
U1406 O1408 2.458 . S
U1406 C1409 2.984 . S
U1406 C1410 2.847 . S
U1406 C1423 2.882 . S
U1406 O1424 2.441 . S
U1406 O1425 2.420 . S
U1406 O1426 2.455 . S
U1406 O1427 2.449 . S
O1407 U1406 2.454 . S
O1407 C1409 1.353 . S
O1408 U1406 2.458 . S
O1408 C1409 1.286 . S
C1409 U1406 2.984 . S
C1409 O1407 1.353 . S
C1409 O1408 1.286 . S
C1409 C1411 1.363 . S
C1410 C1400 1.465 . S
C1410 U1406 2.847 . S
C1410 O1424 1.249 . S
C1410 O1425 1.202 . S
C1411 C1409 1.363 . S
C1411 C1413 1.408 . S
C1411 C1416 1.342 . S
C1412 C1413 1.310 . S
C1412 C1415 1.461 . S
C1412 H1432 0.932 . S
C1413 C1411 1.408 . S
C1413 C1412 1.310 . S
C1413 H1433 0.930 . S
C1414 C1415 1.474 . S
C1414 C1416 1.285 . S
C1414 H1434 0.929 . S
C1415 C1412 1.461 . S
C1415 C1414 1.474 . S
C1416 C1411 1.342 . S
C1416 C1414 1.285 . S
C1416 H1435 0.930 . S
C1417 C1420 1.424 . S
C1417 C1422 1.245 . S
C1417 C1423 1.428 . S
C1418 C1421 1.260 . S
C1418 C1422 1.477 . S
C1418 H1436 0.932 . S
C1419 C1420 1.384 . S
C1419 C1421 1.479 . S
C1419 H1437 0.929 . S
C1420 C1417 1.424 . S
C1420 C1419 1.384 . S
C1420 H1438 0.928 . S
C1421 C1418 1.260 . S
C1421 C1419 1.479 . S
C1422 C1417 1.245 . S
C1422 C1418 1.477 . S
C1422 H1439 0.932 . S
C1423 U1406 2.882 . S
C1423 C1417 1.428 . S
C1423 O1426 1.301 . S
C1423 O1427 1.282 . S
O1424 U1406 2.441 . S
O1424 C1410 1.249 . S
O1425 U1406 2.420 . S
O1425 C1410 1.202 . S
O1426 U1406 2.455 . S
O1426 C1423 1.301 . S
O1427 U1406 2.449 . S
O1427 C1423 1.282 . S
H1428 C1401 0.931 . S
H1429 C1403 0.929 . S
H1430 C1404 0.930 . S
H1431 C1405 0.931 . S
H1432 C1412 0.932 . S
H1433 C1413 0.930 . S
H1434 C1414 0.929 . S
H1435 C1416 0.930 . S
H1436 C1418 0.932 . S
H1437 C1419 0.929 . S
H1438 C1420 0.928 . S
H1439 C1422 0.932 . S
C1440 C1441 1.264 . S
C1440 C1445 1.479 . S
C1440 C1450 1.465 . S
C1441 C1440 1.264 . S
C1441 C1443 1.339 . S
C1441 H1468 0.931 . S
C1442 C1443 1.395 . S
C1442 C1444 1.320 . S
C1443 C1441 1.339 . S
C1443 C1442 1.395 . S
C1443 H1469 0.929 . S
C1444 C1442 1.320 . S
C1444 C1445 1.405 . S
C1444 H1470 0.930 . S
C1445 C1440 1.479 . S
C1445 C1444 1.405 . S
C1445 H1471 0.931 . S
U1446 O1447 2.454 . S
U1446 O1448 2.458 . S
U1446 C1449 2.984 . S
U1446 C1450 2.847 . S
U1446 C1463 2.882 . S
U1446 O1464 2.441 . S
U1446 O1465 2.420 . S
U1446 O1466 2.455 . S
U1446 O1467 2.449 . S
O1447 U1446 2.454 . S
O1447 C1449 1.353 . S
O1448 U1446 2.458 . S
O1448 C1449 1.286 . S
C1449 U1446 2.984 . S
C1449 O1447 1.353 . S
C1449 O1448 1.286 . S
C1449 C1451 1.363 . S
C1450 C1440 1.465 . S
C1450 U1446 2.847 . S
C1450 O1464 1.249 . S
C1450 O1465 1.202 . S
C1451 C1449 1.363 . S
C1451 C1453 1.408 . S
C1451 C1456 1.342 . S
C1452 C1453 1.310 . S
C1452 C1455 1.461 . S
C1452 H1472 0.932 . S
C1453 C1451 1.408 . S
C1453 C1452 1.310 . S
C1453 H1473 0.930 . S
C1454 C1455 1.474 . S
C1454 C1456 1.285 . S
C1454 H1474 0.929 . S
C1455 C1452 1.461 . S
C1455 C1454 1.474 . S
C1456 C1451 1.342 . S
C1456 C1454 1.285 . S
C1456 H1475 0.930 . S
C1457 C1460 1.424 . S
C1457 C1462 1.245 . S
C1457 C1463 1.428 . S
C1458 C1461 1.260 . S
C1458 C1462 1.477 . S
C1458 H1476 0.932 . S
C1459 C1460 1.384 . S
C1459 C1461 1.479 . S
C1459 H1477 0.929 . S
C1460 C1457 1.424 . S
C1460 C1459 1.384 . S
C1460 H1478 0.928 . S
C1461 C1458 1.260 . S
C1461 C1459 1.479 . S
C1462 C1457 1.245 . S
C1462 C1458 1.477 . S
C1462 H1479 0.932 . S
C1463 U1446 2.882 . S
C1463 C1457 1.428 . S
C1463 O1466 1.301 . S
C1463 O1467 1.282 . S
O1464 U1446 2.441 . S
O1464 C1450 1.249 . S
O1465 U1446 2.420 . S
O1465 C1450 1.202 . S
O1466 U1446 2.455 . S
O1466 C1463 1.301 . S
O1467 U1446 2.449 . S
O1467 C1463 1.282 . S
H1468 C1441 0.931 . S
H1469 C1443 0.929 . S
H1470 C1444 0.930 . S
H1471 C1445 0.931 . S
H1472 C1452 0.932 . S
H1473 C1453 0.930 . S
H1474 C1454 0.929 . S
H1475 C1456 0.930 . S
H1476 C1458 0.932 . S
H1477 C1459 0.929 . S
H1478 C1460 0.928 . S
H1479 C1462 0.932 . S
C1480 C1481 1.264 . S
C1480 C1485 1.479 . S
C1480 C1490 1.465 . S
C1481 C1480 1.264 . S
C1481 C1483 1.339 . S
C1481 H1508 0.931 . S
C1482 C1483 1.395 . S
C1482 C1484 1.320 . S
C1483 C1481 1.339 . S
C1483 C1482 1.395 . S
C1483 H1509 0.929 . S
C1484 C1482 1.320 . S
C1484 C1485 1.405 . S
C1484 H1510 0.930 . S
C1485 C1480 1.479 . S
C1485 C1484 1.405 . S
C1485 H1511 0.931 . S
U1486 O1487 2.454 . S
U1486 O1488 2.458 . S
U1486 C1489 2.984 . S
U1486 C1490 2.847 . S
U1486 C1503 2.882 . S
U1486 O1504 2.441 . S
U1486 O1505 2.420 . S
U1486 O1506 2.455 . S
U1486 O1507 2.449 . S
O1487 U1486 2.454 . S
O1487 C1489 1.353 . S
O1488 U1486 2.458 . S
O1488 C1489 1.286 . S
C1489 U1486 2.984 . S
C1489 O1487 1.353 . S
C1489 O1488 1.286 . S
C1489 C1491 1.363 . S
C1490 C1480 1.465 . S
C1490 U1486 2.847 . S
C1490 O1504 1.249 . S
C1490 O1505 1.202 . S
C1491 C1489 1.363 . S
C1491 C1493 1.408 . S
C1491 C1496 1.342 . S
C1492 C1493 1.310 . S
C1492 C1495 1.461 . S
C1492 H1512 0.932 . S
C1493 C1491 1.408 . S
C1493 C1492 1.310 . S
C1493 H1513 0.930 . S
C1494 C1495 1.474 . S
C1494 C1496 1.285 . S
C1494 H1514 0.929 . S
C1495 C1492 1.461 . S
C1495 C1494 1.474 . S
C1496 C1491 1.342 . S
C1496 C1494 1.285 . S
C1496 H1515 0.930 . S
C1497 C1500 1.424 . S
C1497 C1502 1.245 . S
C1497 C1503 1.428 . S
C1498 C1501 1.260 . S
C1498 C1502 1.477 . S
C1498 H1516 0.932 . S
C1499 C1500 1.384 . S
C1499 C1501 1.479 . S
C1499 H1517 0.929 . S
C1500 C1497 1.424 . S
C1500 C1499 1.384 . S
C1500 H1518 0.928 . S
C1501 C1498 1.260 . S
C1501 C1499 1.479 . S
C1502 C1497 1.245 . S
C1502 C1498 1.477 . S
C1502 H1519 0.932 . S
C1503 U1486 2.882 . S
C1503 C1497 1.428 . S
C1503 O1506 1.301 . S
C1503 O1507 1.282 . S
O1504 U1486 2.441 . S
O1504 C1490 1.249 . S
O1505 U1486 2.420 . S
O1505 C1490 1.202 . S
O1506 U1486 2.455 . S
O1506 C1503 1.301 . S
O1507 U1486 2.449 . S
O1507 C1503 1.282 . S
H1508 C1481 0.931 . S
H1509 C1483 0.929 . S
H1510 C1484 0.930 . S
H1511 C1485 0.931 . S
H1512 C1492 0.932 . S
H1513 C1493 0.930 . S
H1514 C1494 0.929 . S
H1515 C1496 0.930 . S
H1516 C1498 0.932 . S
H1517 C1499 0.929 . S
H1518 C1500 0.928 . S
H1519 C1502 0.932 . S
C1520 C1521 1.264 . S
C1520 C1525 1.479 . S
C1520 C1530 1.465 . S
C1521 C1520 1.264 . S
C1521 C1523 1.339 . S
C1521 H1548 0.931 . S
C1522 C1523 1.395 . S
C1522 C1524 1.320 . S
C1523 C1521 1.339 . S
C1523 C1522 1.395 . S
C1523 H1549 0.929 . S
C1524 C1522 1.320 . S
C1524 C1525 1.405 . S
C1524 H1550 0.930 . S
C1525 C1520 1.479 . S
C1525 C1524 1.405 . S
C1525 H1551 0.931 . S
U1526 O1527 2.454 . S
U1526 O1528 2.458 . S
U1526 C1529 2.984 . S
U1526 C1530 2.847 . S
U1526 C1543 2.882 . S
U1526 O1544 2.441 . S
U1526 O1545 2.420 . S
U1526 O1546 2.455 . S
U1526 O1547 2.449 . S
O1527 U1526 2.454 . S
O1527 C1529 1.353 . S
O1528 U1526 2.458 . S
O1528 C1529 1.286 . S
C1529 U1526 2.984 . S
C1529 O1527 1.353 . S
C1529 O1528 1.286 . S
C1529 C1531 1.363 . S
C1530 C1520 1.465 . S
C1530 U1526 2.847 . S
C1530 O1544 1.249 . S
C1530 O1545 1.202 . S
C1531 C1529 1.363 . S
C1531 C1533 1.408 . S
C1531 C1536 1.342 . S
C1532 C1533 1.310 . S
C1532 C1535 1.461 . S
C1532 H1552 0.932 . S
C1533 C1531 1.408 . S
C1533 C1532 1.310 . S
C1533 H1553 0.930 . S
C1534 C1535 1.474 . S
C1534 C1536 1.285 . S
C1534 H1554 0.929 . S
C1535 C1532 1.461 . S
C1535 C1534 1.474 . S
C1536 C1531 1.342 . S
C1536 C1534 1.285 . S
C1536 H1555 0.930 . S
C1537 C1540 1.424 . S
C1537 C1542 1.245 . S
C1537 C1543 1.428 . S
C1538 C1541 1.260 . S
C1538 C1542 1.477 . S
C1538 H1556 0.932 . S
C1539 C1540 1.384 . S
C1539 C1541 1.479 . S
C1539 H1557 0.929 . S
C1540 C1537 1.424 . S
C1540 C1539 1.384 . S
C1540 H1558 0.928 . S
C1541 C1538 1.260 . S
C1541 C1539 1.479 . S
C1542 C1537 1.245 . S
C1542 C1538 1.477 . S
C1542 H1559 0.932 . S
C1543 U1526 2.882 . S
C1543 C1537 1.428 . S
C1543 O1546 1.301 . S
C1543 O1547 1.282 . S
O1544 U1526 2.441 . S
O1544 C1530 1.249 . S
O1545 U1526 2.420 . S
O1545 C1530 1.202 . S
O1546 U1526 2.455 . S
O1546 C1543 1.301 . S
O1547 U1526 2.449 . S
O1547 C1543 1.282 . S
H1548 C1521 0.931 . S
H1549 C1523 0.929 . S
H1550 C1524 0.930 . S
H1551 C1525 0.931 . S
H1552 C1532 0.932 . S
H1553 C1533 0.930 . S
H1554 C1534 0.929 . S
H1555 C1536 0.930 . S
H1556 C1538 0.932 . S
H1557 C1539 0.929 . S
H1558 C1540 0.928 . S
H1559 C1542 0.932 . S
C1560 C1561 1.264 . S
C1560 C1565 1.479 . S
C1560 C1570 1.465 . S
C1561 C1560 1.264 . S
C1561 C1563 1.339 . S
C1561 H1588 0.931 . S
C1562 C1563 1.395 . S
C1562 C1564 1.320 . S
C1563 C1561 1.339 . S
C1563 C1562 1.395 . S
C1563 H1589 0.929 . S
C1564 C1562 1.320 . S
C1564 C1565 1.405 . S
C1564 H1590 0.930 . S
C1565 C1560 1.479 . S
C1565 C1564 1.405 . S
C1565 H1591 0.931 . S
U1566 O1567 2.454 . S
U1566 O1568 2.458 . S
U1566 C1569 2.984 . S
U1566 C1570 2.847 . S
U1566 C1583 2.882 . S
U1566 O1584 2.441 . S
U1566 O1585 2.420 . S
U1566 O1586 2.455 . S
U1566 O1587 2.449 . S
O1567 U1566 2.454 . S
O1567 C1569 1.353 . S
O1568 U1566 2.458 . S
O1568 C1569 1.286 . S
C1569 U1566 2.984 . S
C1569 O1567 1.353 . S
C1569 O1568 1.286 . S
C1569 C1571 1.363 . S
C1570 C1560 1.465 . S
C1570 U1566 2.847 . S
C1570 O1584 1.249 . S
C1570 O1585 1.202 . S
C1571 C1569 1.363 . S
C1571 C1573 1.408 . S
C1571 C1576 1.342 . S
C1572 C1573 1.310 . S
C1572 C1575 1.461 . S
C1572 H1592 0.932 . S
C1573 C1571 1.408 . S
C1573 C1572 1.310 . S
C1573 H1593 0.930 . S
C1574 C1575 1.474 . S
C1574 C1576 1.285 . S
C1574 H1594 0.929 . S
C1575 C1572 1.461 . S
C1575 C1574 1.474 . S
C1576 C1571 1.342 . S
C1576 C1574 1.285 . S
C1576 H1595 0.930 . S
C1577 C1580 1.424 . S
C1577 C1582 1.245 . S
C1577 C1583 1.428 . S
C1578 C1581 1.260 . S
C1578 C1582 1.477 . S
C1578 H1596 0.932 . S
C1579 C1580 1.384 . S
C1579 C1581 1.479 . S
C1579 H1597 0.929 . S
C1580 C1577 1.424 . S
C1580 C1579 1.384 . S
C1580 H1598 0.928 . S
C1581 C1578 1.260 . S
C1581 C1579 1.479 . S
C1582 C1577 1.245 . S
C1582 C1578 1.477 . S
C1582 H1599 0.932 . S
C1583 U1566 2.882 . S
C1583 C1577 1.428 . S
C1583 O1586 1.301 . S
C1583 O1587 1.282 . S
O1584 U1566 2.441 . S
O1584 C1570 1.249 . S
O1585 U1566 2.420 . S
O1585 C1570 1.202 . S
O1586 U1566 2.455 . S
O1586 C1583 1.301 . S
O1587 U1566 2.449 . S
O1587 C1583 1.282 . S
H1588 C1561 0.931 . S
H1589 C1563 0.929 . S
H1590 C1564 0.930 . S
H1591 C1565 0.931 . S
H1592 C1572 0.932 . S
H1593 C1573 0.930 . S
H1594 C1574 0.929 . S
H1595 C1576 0.930 . S
H1596 C1578 0.932 . S
H1597 C1579 0.929 . S
H1598 C1580 0.928 . S
H1599 C1582 0.932 . S
C1600 C1601 1.264 . S
C1600 C1605 1.479 . S
C1600 C1610 1.465 . S
C1601 C1600 1.264 . S
C1601 C1603 1.339 . S
C1601 H1628 0.931 . S
C1602 C1603 1.395 . S
C1602 C1604 1.320 . S
C1603 C1601 1.339 . S
C1603 C1602 1.395 . S
C1603 H1629 0.929 . S
C1604 C1602 1.320 . S
C1604 C1605 1.405 . S
C1604 H1630 0.930 . S
C1605 C1600 1.479 . S
C1605 C1604 1.405 . S
C1605 H1631 0.931 . S
U1606 O1607 2.454 . S
U1606 O1608 2.458 . S
U1606 C1609 2.984 . S
U1606 C1610 2.847 . S
U1606 C1623 2.882 . S
U1606 O1624 2.441 . S
U1606 O1625 2.420 . S
U1606 O1626 2.455 . S
U1606 O1627 2.449 . S
O1607 U1606 2.454 . S
O1607 C1609 1.353 . S
O1608 U1606 2.458 . S
O1608 C1609 1.286 . S
C1609 U1606 2.984 . S
C1609 O1607 1.353 . S
C1609 O1608 1.286 . S
C1609 C1611 1.363 . S
C1610 C1600 1.465 . S
C1610 U1606 2.847 . S
C1610 O1624 1.249 . S
C1610 O1625 1.202 . S
C1611 C1609 1.363 . S
C1611 C1613 1.408 . S
C1611 C1616 1.342 . S
C1612 C1613 1.310 . S
C1612 C1615 1.461 . S
C1612 H1632 0.932 . S
C1613 C1611 1.408 . S
C1613 C1612 1.310 . S
C1613 H1633 0.930 . S
C1614 C1615 1.474 . S
C1614 C1616 1.285 . S
C1614 H1634 0.929 . S
C1615 C1612 1.461 . S
C1615 C1614 1.474 . S
C1616 C1611 1.342 . S
C1616 C1614 1.285 . S
C1616 H1635 0.930 . S
C1617 C1620 1.424 . S
C1617 C1622 1.245 . S
C1617 C1623 1.428 . S
C1618 C1621 1.260 . S
C1618 C1622 1.477 . S
C1618 H1636 0.932 . S
C1619 C1620 1.384 . S
C1619 C1621 1.479 . S
C1619 H1637 0.929 . S
C1620 C1617 1.424 . S
C1620 C1619 1.384 . S
C1620 H1638 0.928 . S
C1621 C1618 1.260 . S
C1621 C1619 1.479 . S
C1622 C1617 1.245 . S
C1622 C1618 1.477 . S
C1622 H1639 0.932 . S
C1623 U1606 2.882 . S
C1623 C1617 1.428 . S
C1623 O1626 1.301 . S
C1623 O1627 1.282 . S
O1624 U1606 2.441 . S
O1624 C1610 1.249 . S
O1625 U1606 2.420 . S
O1625 C1610 1.202 . S
O1626 U1606 2.455 . S
O1626 C1623 1.301 . S
O1627 U1606 2.449 . S
O1627 C1623 1.282 . S
H1628 C1601 0.931 . S
H1629 C1603 0.929 . S
H1630 C1604 0.930 . S
H1631 C1605 0.931 . S
H1632 C1612 0.932 . S
H1633 C1613 0.930 . S
H1634 C1614 0.929 . S
H1635 C1616 0.930 . S
H1636 C1618 0.932 . S
H1637 C1619 0.929 . S
H1638 C1620 0.928 . S
H1639 C1622 0.932 . S
C1640 C1641 1.264 . S
C1640 C1645 1.479 . S
C1640 C1650 1.465 . S
C1641 C1640 1.264 . S
C1641 C1643 1.339 . S
C1641 H1668 0.931 . S
C1642 C1643 1.395 . S
C1642 C1644 1.320 . S
C1643 C1641 1.339 . S
C1643 C1642 1.395 . S
C1643 H1669 0.929 . S
C1644 C1642 1.320 . S
C1644 C1645 1.405 . S
C1644 H1670 0.930 . S
C1645 C1640 1.479 . S
C1645 C1644 1.405 . S
C1645 H1671 0.931 . S
U1646 O1647 2.454 . S
U1646 O1648 2.458 . S
U1646 C1649 2.984 . S
U1646 C1650 2.847 . S
U1646 C1663 2.882 . S
U1646 O1664 2.441 . S
U1646 O1665 2.420 . S
U1646 O1666 2.455 . S
U1646 O1667 2.449 . S
O1647 U1646 2.454 . S
O1647 C1649 1.353 . S
O1648 U1646 2.458 . S
O1648 C1649 1.286 . S
C1649 U1646 2.984 . S
C1649 O1647 1.353 . S
C1649 O1648 1.286 . S
C1649 C1651 1.363 . S
C1650 C1640 1.465 . S
C1650 U1646 2.847 . S
C1650 O1664 1.249 . S
C1650 O1665 1.202 . S
C1651 C1649 1.363 . S
C1651 C1653 1.408 . S
C1651 C1656 1.342 . S
C1652 C1653 1.310 . S
C1652 C1655 1.461 . S
C1652 H1672 0.932 . S
C1653 C1651 1.408 . S
C1653 C1652 1.310 . S
C1653 H1673 0.930 . S
C1654 C1655 1.474 . S
C1654 C1656 1.285 . S
C1654 H1674 0.929 . S
C1655 C1652 1.461 . S
C1655 C1654 1.474 . S
C1656 C1651 1.342 . S
C1656 C1654 1.285 . S
C1656 H1675 0.930 . S
C1657 C1660 1.424 . S
C1657 C1662 1.245 . S
C1657 C1663 1.428 . S
C1658 C1661 1.260 . S
C1658 C1662 1.477 . S
C1658 H1676 0.932 . S
C1659 C1660 1.384 . S
C1659 C1661 1.479 . S
C1659 H1677 0.929 . S
C1660 C1657 1.424 . S
C1660 C1659 1.384 . S
C1660 H1678 0.928 . S
C1661 C1658 1.260 . S
C1661 C1659 1.479 . S
C1662 C1657 1.245 . S
C1662 C1658 1.477 . S
C1662 H1679 0.932 . S
C1663 U1646 2.882 . S
C1663 C1657 1.428 . S
C1663 O1666 1.301 . S
C1663 O1667 1.282 . S
O1664 U1646 2.441 . S
O1664 C1650 1.249 . S
O1665 U1646 2.420 . S
O1665 C1650 1.202 . S
O1666 U1646 2.455 . S
O1666 C1663 1.301 . S
O1667 U1646 2.449 . S
O1667 C1663 1.282 . S
H1668 C1641 0.931 . S
H1669 C1643 0.929 . S
H1670 C1644 0.930 . S
H1671 C1645 0.931 . S
H1672 C1652 0.932 . S
H1673 C1653 0.930 . S
H1674 C1654 0.929 . S
H1675 C1656 0.930 . S
H1676 C1658 0.932 . S
H1677 C1659 0.929 . S
H1678 C1660 0.928 . S
H1679 C1662 0.932 . S
C1680 C1681 1.264 . S
C1680 C1685 1.479 . S
C1680 C1690 1.465 . S
C1681 C1680 1.264 . S
C1681 C1683 1.339 . S
C1681 H1708 0.931 . S
C1682 C1683 1.395 . S
C1682 C1684 1.320 . S
C1683 C1681 1.339 . S
C1683 C1682 1.395 . S
C1683 H1709 0.929 . S
C1684 C1682 1.320 . S
C1684 C1685 1.405 . S
C1684 H1710 0.930 . S
C1685 C1680 1.479 . S
C1685 C1684 1.405 . S
C1685 H1711 0.931 . S
U1686 O1687 2.454 . S
U1686 O1688 2.458 . S
U1686 C1689 2.984 . S
U1686 C1690 2.847 . S
U1686 C1703 2.882 . S
U1686 O1704 2.441 . S
U1686 O1705 2.420 . S
U1686 O1706 2.455 . S
U1686 O1707 2.449 . S
O1687 U1686 2.454 . S
O1687 C1689 1.353 . S
O1688 U1686 2.458 . S
O1688 C1689 1.286 . S
C1689 U1686 2.984 . S
C1689 O1687 1.353 . S
C1689 O1688 1.286 . S
C1689 C1691 1.363 . S
C1690 C1680 1.465 . S
C1690 U1686 2.847 . S
C1690 O1704 1.249 . S
C1690 O1705 1.202 . S
C1691 C1689 1.363 . S
C1691 C1693 1.408 . S
C1691 C1696 1.342 . S
C1692 C1693 1.310 . S
C1692 C1695 1.461 . S
C1692 H1712 0.932 . S
C1693 C1691 1.408 . S
C1693 C1692 1.310 . S
C1693 H1713 0.930 . S
C1694 C1695 1.474 . S
C1694 C1696 1.285 . S
C1694 H1714 0.929 . S
C1695 C1692 1.461 . S
C1695 C1694 1.474 . S
C1696 C1691 1.342 . S
C1696 C1694 1.285 . S
C1696 H1715 0.930 . S
C1697 C1700 1.424 . S
C1697 C1702 1.245 . S
C1697 C1703 1.428 . S
C1698 C1701 1.260 . S
C1698 C1702 1.477 . S
C1698 H1716 0.932 . S
C1699 C1700 1.384 . S
C1699 C1701 1.479 . S
C1699 H1717 0.929 . S
C1700 C1697 1.424 . S
C1700 C1699 1.384 . S
C1700 H1718 0.928 . S
C1701 C1698 1.260 . S
C1701 C1699 1.479 . S
C1702 C1697 1.245 . S
C1702 C1698 1.477 . S
C1702 H1719 0.932 . S
C1703 U1686 2.882 . S
C1703 C1697 1.428 . S
C1703 O1706 1.301 . S
C1703 O1707 1.282 . S
O1704 U1686 2.441 . S
O1704 C1690 1.249 . S
O1705 U1686 2.420 . S
O1705 C1690 1.202 . S
O1706 U1686 2.455 . S
O1706 C1703 1.301 . S
O1707 U1686 2.449 . S
O1707 C1703 1.282 . S
H1708 C1681 0.931 . S
H1709 C1683 0.929 . S
H1710 C1684 0.930 . S
H1711 C1685 0.931 . S
H1712 C1692 0.932 . S
H1713 C1693 0.930 . S
H1714 C1694 0.929 . S
H1715 C1696 0.930 . S
H1716 C1698 0.932 . S
H1717 C1699 0.929 . S
H1718 C1700 0.928 . S
H1719 C1702 0.932 . S
C1720 C1721 1.264 . S
C1720 C1725 1.479 . S
C1720 C1730 1.465 . S
C1721 C1720 1.264 . S
C1721 C1723 1.339 . S
C1721 H1748 0.931 . S
C1722 C1723 1.395 . S
C1722 C1724 1.320 . S
C1723 C1721 1.339 . S
C1723 C1722 1.395 . S
C1723 H1749 0.929 . S
C1724 C1722 1.320 . S
C1724 C1725 1.405 . S
C1724 H1750 0.930 . S
C1725 C1720 1.479 . S
C1725 C1724 1.405 . S
C1725 H1751 0.931 . S
U1726 O1727 2.454 . S
U1726 O1728 2.458 . S
U1726 C1729 2.984 . S
U1726 C1730 2.847 . S
U1726 C1743 2.882 . S
U1726 O1744 2.441 . S
U1726 O1745 2.420 . S
U1726 O1746 2.455 . S
U1726 O1747 2.449 . S
O1727 U1726 2.454 . S
O1727 C1729 1.353 . S
O1728 U1726 2.458 . S
O1728 C1729 1.286 . S
C1729 U1726 2.984 . S
C1729 O1727 1.353 . S
C1729 O1728 1.286 . S
C1729 C1731 1.363 . S
C1730 C1720 1.465 . S
C1730 U1726 2.847 . S
C1730 O1744 1.249 . S
C1730 O1745 1.202 . S
C1731 C1729 1.363 . S
C1731 C1733 1.408 . S
C1731 C1736 1.342 . S
C1732 C1733 1.310 . S
C1732 C1735 1.461 . S
C1732 H1752 0.932 . S
C1733 C1731 1.408 . S
C1733 C1732 1.310 . S
C1733 H1753 0.930 . S
C1734 C1735 1.474 . S
C1734 C1736 1.285 . S
C1734 H1754 0.929 . S
C1735 C1732 1.461 . S
C1735 C1734 1.474 . S
C1736 C1731 1.342 . S
C1736 C1734 1.285 . S
C1736 H1755 0.930 . S
C1737 C1740 1.424 . S
C1737 C1742 1.245 . S
C1737 C1743 1.428 . S
C1738 C1741 1.260 . S
C1738 C1742 1.477 . S
C1738 H1756 0.932 . S
C1739 C1740 1.384 . S
C1739 C1741 1.479 . S
C1739 H1757 0.929 . S
C1740 C1737 1.424 . S
C1740 C1739 1.384 . S
C1740 H1758 0.928 . S
C1741 C1738 1.260 . S
C1741 C1739 1.479 . S
C1742 C1737 1.245 . S
C1742 C1738 1.477 . S
C1742 H1759 0.932 . S
C1743 U1726 2.882 . S
C1743 C1737 1.428 . S
C1743 O1746 1.301 . S
C1743 O1747 1.282 . S
O1744 U1726 2.441 . S
O1744 C1730 1.249 . S
O1745 U1726 2.420 . S
O1745 C1730 1.202 . S
O1746 U1726 2.455 . S
O1746 C1743 1.301 . S
O1747 U1726 2.449 . S
O1747 C1743 1.282 . S
H1748 C1721 0.931 . S
H1749 C1723 0.929 . S
H1750 C1724 0.930 . S
H1751 C1725 0.931 . S
H1752 C1732 0.932 . S
H1753 C1733 0.930 . S
H1754 C1734 0.929 . S
H1755 C1736 0.930 . S
H1756 C1738 0.932 . S
H1757 C1739 0.929 . S
H1758 C1740 0.928 . S
H1759 C1742 0.932 . S
C1760 C1761 1.264 . S
C1760 C1765 1.479 . S
C1760 C1770 1.465 . S
C1761 C1760 1.264 . S
C1761 C1763 1.339 . S
C1761 H1788 0.931 . S
C1762 C1763 1.395 . S
C1762 C1764 1.320 . S
C1763 C1761 1.339 . S
C1763 C1762 1.395 . S
C1763 H1789 0.929 . S
C1764 C1762 1.320 . S
C1764 C1765 1.405 . S
C1764 H1790 0.930 . S
C1765 C1760 1.479 . S
C1765 C1764 1.405 . S
C1765 H1791 0.931 . S
U1766 O1767 2.454 . S
U1766 O1768 2.458 . S
U1766 C1769 2.984 . S
U1766 C1770 2.847 . S
U1766 C1783 2.882 . S
U1766 O1784 2.441 . S
U1766 O1785 2.420 . S
U1766 O1786 2.455 . S
U1766 O1787 2.449 . S
O1767 U1766 2.454 . S
O1767 C1769 1.353 . S
O1768 U1766 2.458 . S
O1768 C1769 1.286 . S
C1769 U1766 2.984 . S
C1769 O1767 1.353 . S
C1769 O1768 1.286 . S
C1769 C1771 1.363 . S
C1770 C1760 1.465 . S
C1770 U1766 2.847 . S
C1770 O1784 1.249 . S
C1770 O1785 1.202 . S
C1771 C1769 1.363 . S
C1771 C1773 1.408 . S
C1771 C1776 1.342 . S
C1772 C1773 1.310 . S
C1772 C1775 1.461 . S
C1772 H1792 0.932 . S
C1773 C1771 1.408 . S
C1773 C1772 1.310 . S
C1773 H1793 0.930 . S
C1774 C1775 1.474 . S
C1774 C1776 1.285 . S
C1774 H1794 0.929 . S
C1775 C1772 1.461 . S
C1775 C1774 1.474 . S
C1776 C1771 1.342 . S
C1776 C1774 1.285 . S
C1776 H1795 0.930 . S
C1777 C1780 1.424 . S
C1777 C1782 1.245 . S
C1777 C1783 1.428 . S
C1778 C1781 1.260 . S
C1778 C1782 1.477 . S
C1778 H1796 0.932 . S
C1779 C1780 1.384 . S
C1779 C1781 1.479 . S
C1779 H1797 0.929 . S
C1780 C1777 1.424 . S
C1780 C1779 1.384 . S
C1780 H1798 0.928 . S
C1781 C1778 1.260 . S
C1781 C1779 1.479 . S
C1782 C1777 1.245 . S
C1782 C1778 1.477 . S
C1782 H1799 0.932 . S
C1783 U1766 2.882 . S
C1783 C1777 1.428 . S
C1783 O1786 1.301 . S
C1783 O1787 1.282 . S
O1784 U1766 2.441 . S
O1784 C1770 1.249 . S
O1785 U1766 2.420 . S
O1785 C1770 1.202 . S
O1786 U1766 2.455 . S
O1786 C1783 1.301 . S
O1787 U1766 2.449 . S
O1787 C1783 1.282 . S
H1788 C1761 0.931 . S
H1789 C1763 0.929 . S
H1790 C1764 0.930 . S
H1791 C1765 0.931 . S
H1792 C1772 0.932 . S
H1793 C1773 0.930 . S
H1794 C1774 0.929 . S
H1795 C1776 0.930 . S
H1796 C1778 0.932 . S
H1797 C1779 0.929 . S
H1798 C1780 0.928 . S
H1799 C1782 0.932 . S
C1800 C1801 1.264 . S
C1800 C1805 1.479 . S
C1800 C1810 1.465 . S
C1801 C1800 1.264 . S
C1801 C1803 1.339 . S
C1801 H1828 0.931 . S
C1802 C1803 1.395 . S
C1802 C1804 1.320 . S
C1803 C1801 1.339 . S
C1803 C1802 1.395 . S
C1803 H1829 0.929 . S
C1804 C1802 1.320 . S
C1804 C1805 1.405 . S
C1804 H1830 0.930 . S
C1805 C1800 1.479 . S
C1805 C1804 1.405 . S
C1805 H1831 0.931 . S
U1806 O1807 2.454 . S
U1806 O1808 2.458 . S
U1806 C1809 2.984 . S
U1806 C1810 2.847 . S
U1806 C1823 2.882 . S
U1806 O1824 2.441 . S
U1806 O1825 2.420 . S
U1806 O1826 2.455 . S
U1806 O1827 2.449 . S
O1807 U1806 2.454 . S
O1807 C1809 1.353 . S
O1808 U1806 2.458 . S
O1808 C1809 1.286 . S
C1809 U1806 2.984 . S
C1809 O1807 1.353 . S
C1809 O1808 1.286 . S
C1809 C1811 1.363 . S
C1810 C1800 1.465 . S
C1810 U1806 2.847 . S
C1810 O1824 1.249 . S
C1810 O1825 1.202 . S
C1811 C1809 1.363 . S
C1811 C1813 1.408 . S
C1811 C1816 1.342 . S
C1812 C1813 1.310 . S
C1812 C1815 1.461 . S
C1812 H1832 0.932 . S
C1813 C1811 1.408 . S
C1813 C1812 1.310 . S
C1813 H1833 0.930 . S
C1814 C1815 1.474 . S
C1814 C1816 1.285 . S
C1814 H1834 0.929 . S
C1815 C1812 1.461 . S
C1815 C1814 1.474 . S
C1816 C1811 1.342 . S
C1816 C1814 1.285 . S
C1816 H1835 0.930 . S
C1817 C1820 1.424 . S
C1817 C1822 1.245 . S
C1817 C1823 1.428 . S
C1818 C1821 1.260 . S
C1818 C1822 1.477 . S
C1818 H1836 0.932 . S
C1819 C1820 1.384 . S
C1819 C1821 1.479 . S
C1819 H1837 0.929 . S
C1820 C1817 1.424 . S
C1820 C1819 1.384 . S
C1820 H1838 0.928 . S
C1821 C1818 1.260 . S
C1821 C1819 1.479 . S
C1822 C1817 1.245 . S
C1822 C1818 1.477 . S
C1822 H1839 0.932 . S
C1823 U1806 2.882 . S
C1823 C1817 1.428 . S
C1823 O1826 1.301 . S
C1823 O1827 1.282 . S
O1824 U1806 2.441 . S
O1824 C1810 1.249 . S
O1825 U1806 2.420 . S
O1825 C1810 1.202 . S
O1826 U1806 2.455 . S
O1826 C1823 1.301 . S
O1827 U1806 2.449 . S
O1827 C1823 1.282 . S
H1828 C1801 0.931 . S
H1829 C1803 0.929 . S
H1830 C1804 0.930 . S
H1831 C1805 0.931 . S
H1832 C1812 0.932 . S
H1833 C1813 0.930 . S
H1834 C1814 0.929 . S
H1835 C1816 0.930 . S
H1836 C1818 0.932 . S
H1837 C1819 0.929 . S
H1838 C1820 0.928 . S
H1839 C1822 0.932 . S
C1840 C1841 1.264 . S
C1840 C1845 1.479 . S
C1840 C1850 1.465 . S
C1841 C1840 1.264 . S
C1841 C1843 1.339 . S
C1841 H1868 0.931 . S
C1842 C1843 1.395 . S
C1842 C1844 1.320 . S
C1843 C1841 1.339 . S
C1843 C1842 1.395 . S
C1843 H1869 0.929 . S
C1844 C1842 1.320 . S
C1844 C1845 1.405 . S
C1844 H1870 0.930 . S
C1845 C1840 1.479 . S
C1845 C1844 1.405 . S
C1845 H1871 0.931 . S
U1846 O1847 2.454 . S
U1846 O1848 2.458 . S
U1846 C1849 2.984 . S
U1846 C1850 2.847 . S
U1846 C1863 2.882 . S
U1846 O1864 2.441 . S
U1846 O1865 2.420 . S
U1846 O1866 2.455 . S
U1846 O1867 2.449 . S
O1847 U1846 2.454 . S
O1847 C1849 1.353 . S
O1848 U1846 2.458 . S
O1848 C1849 1.286 . S
C1849 U1846 2.984 . S
C1849 O1847 1.353 . S
C1849 O1848 1.286 . S
C1849 C1851 1.363 . S
C1850 C1840 1.465 . S
C1850 U1846 2.847 . S
C1850 O1864 1.249 . S
C1850 O1865 1.202 . S
C1851 C1849 1.363 . S
C1851 C1853 1.408 . S
C1851 C1856 1.342 . S
C1852 C1853 1.310 . S
C1852 C1855 1.461 . S
C1852 H1872 0.932 . S
C1853 C1851 1.408 . S
C1853 C1852 1.310 . S
C1853 H1873 0.930 . S
C1854 C1855 1.474 . S
C1854 C1856 1.285 . S
C1854 H1874 0.929 . S
C1855 C1852 1.461 . S
C1855 C1854 1.474 . S
C1856 C1851 1.342 . S
C1856 C1854 1.285 . S
C1856 H1875 0.930 . S
C1857 C1860 1.424 . S
C1857 C1862 1.245 . S
C1857 C1863 1.428 . S
C1858 C1861 1.260 . S
C1858 C1862 1.477 . S
C1858 H1876 0.932 . S
C1859 C1860 1.384 . S
C1859 C1861 1.479 . S
C1859 H1877 0.929 . S
C1860 C1857 1.424 . S
C1860 C1859 1.384 . S
C1860 H1878 0.928 . S
C1861 C1858 1.260 . S
C1861 C1859 1.479 . S
C1862 C1857 1.245 . S
C1862 C1858 1.477 . S
C1862 H1879 0.932 . S
C1863 U1846 2.882 . S
C1863 C1857 1.428 . S
C1863 O1866 1.301 . S
C1863 O1867 1.282 . S
O1864 U1846 2.441 . S
O1864 C1850 1.249 . S
O1865 U1846 2.420 . S
O1865 C1850 1.202 . S
O1866 U1846 2.455 . S
O1866 C1863 1.301 . S
O1867 U1846 2.449 . S
O1867 C1863 1.282 . S
H1868 C1841 0.931 . S
H1869 C1843 0.929 . S
H1870 C1844 0.930 . S
H1871 C1845 0.931 . S
H1872 C1852 0.932 . S
H1873 C1853 0.930 . S
H1874 C1854 0.929 . S
H1875 C1856 0.930 . S
H1876 C1858 0.932 . S
H1877 C1859 0.929 . S
H1878 C1860 0.928 . S
H1879 C1862 0.932 . S
C1880 C1881 1.264 . S
C1880 C1885 1.479 . S
C1880 C1890 1.465 . S
C1881 C1880 1.264 . S
C1881 C1883 1.339 . S
C1881 H1908 0.931 . S
C1882 C1883 1.395 . S
C1882 C1884 1.320 . S
C1883 C1881 1.339 . S
C1883 C1882 1.395 . S
C1883 H1909 0.929 . S
C1884 C1882 1.320 . S
C1884 C1885 1.405 . S
C1884 H1910 0.930 . S
C1885 C1880 1.479 . S
C1885 C1884 1.405 . S
C1885 H1911 0.931 . S
U1886 O1887 2.454 . S
U1886 O1888 2.458 . S
U1886 C1889 2.984 . S
U1886 C1890 2.847 . S
U1886 C1903 2.882 . S
U1886 O1904 2.441 . S
U1886 O1905 2.420 . S
U1886 O1906 2.455 . S
U1886 O1907 2.449 . S
O1887 U1886 2.454 . S
O1887 C1889 1.353 . S
O1888 U1886 2.458 . S
O1888 C1889 1.286 . S
C1889 U1886 2.984 . S
C1889 O1887 1.353 . S
C1889 O1888 1.286 . S
C1889 C1891 1.363 . S
C1890 C1880 1.465 . S
C1890 U1886 2.847 . S
C1890 O1904 1.249 . S
C1890 O1905 1.202 . S
C1891 C1889 1.363 . S
C1891 C1893 1.408 . S
C1891 C1896 1.342 . S
C1892 C1893 1.310 . S
C1892 C1895 1.461 . S
C1892 H1912 0.932 . S
C1893 C1891 1.408 . S
C1893 C1892 1.310 . S
C1893 H1913 0.930 . S
C1894 C1895 1.474 . S
C1894 C1896 1.285 . S
C1894 H1914 0.929 . S
C1895 C1892 1.461 . S
C1895 C1894 1.474 . S
C1896 C1891 1.342 . S
C1896 C1894 1.285 . S
C1896 H1915 0.930 . S
C1897 C1900 1.424 . S
C1897 C1902 1.245 . S
C1897 C1903 1.428 . S
C1898 C1901 1.260 . S
C1898 C1902 1.477 . S
C1898 H1916 0.932 . S
C1899 C1900 1.384 . S
C1899 C1901 1.479 . S
C1899 H1917 0.929 . S
C1900 C1897 1.424 . S
C1900 C1899 1.384 . S
C1900 H1918 0.928 . S
C1901 C1898 1.260 . S
C1901 C1899 1.479 . S
C1902 C1897 1.245 . S
C1902 C1898 1.477 . S
C1902 H1919 0.932 . S
C1903 U1886 2.882 . S
C1903 C1897 1.428 . S
C1903 O1906 1.301 . S
C1903 O1907 1.282 . S
O1904 U1886 2.441 . S
O1904 C1890 1.249 . S
O1905 U1886 2.420 . S
O1905 C1890 1.202 . S
O1906 U1886 2.455 . S
O1906 C1903 1.301 . S
O1907 U1886 2.449 . S
O1907 C1903 1.282 . S
H1908 C1881 0.931 . S
H1909 C1883 0.929 . S
H1910 C1884 0.930 . S
H1911 C1885 0.931 . S
H1912 C1892 0.932 . S
H1913 C1893 0.930 . S
H1914 C1894 0.929 . S
H1915 C1896 0.930 . S
H1916 C1898 0.932 . S
H1917 C1899 0.929 . S
H1918 C1900 0.928 . S
H1919 C1902 0.932 . S
C1920 C1921 1.264 . S
C1920 C1925 1.479 . S
C1920 C1930 1.465 . S
C1921 C1920 1.264 . S
C1921 C1923 1.339 . S
C1921 H1948 0.931 . S
C1922 C1923 1.395 . S
C1922 C1924 1.320 . S
C1923 C1921 1.339 . S
C1923 C1922 1.395 . S
C1923 H1949 0.929 . S
C1924 C1922 1.320 . S
C1924 C1925 1.405 . S
C1924 H1950 0.930 . S
C1925 C1920 1.479 . S
C1925 C1924 1.405 . S
C1925 H1951 0.931 . S
U1926 O1927 2.454 . S
U1926 O1928 2.458 . S
U1926 C1929 2.984 . S
U1926 C1930 2.847 . S
U1926 C1943 2.882 . S
U1926 O1944 2.441 . S
U1926 O1945 2.420 . S
U1926 O1946 2.455 . S
U1926 O1947 2.449 . S
O1927 U1926 2.454 . S
O1927 C1929 1.353 . S
O1928 U1926 2.458 . S
O1928 C1929 1.286 . S
C1929 U1926 2.984 . S
C1929 O1927 1.353 . S
C1929 O1928 1.286 . S
C1929 C1931 1.363 . S
C1930 C1920 1.465 . S
C1930 U1926 2.847 . S
C1930 O1944 1.249 . S
C1930 O1945 1.202 . S
C1931 C1929 1.363 . S
C1931 C1933 1.408 . S
C1931 C1936 1.342 . S
C1932 C1933 1.310 . S
C1932 C1935 1.461 . S
C1932 H1952 0.932 . S
C1933 C1931 1.408 . S
C1933 C1932 1.310 . S
C1933 H1953 0.930 . S
C1934 C1935 1.474 . S
C1934 C1936 1.285 . S
C1934 H1954 0.929 . S
C1935 C1932 1.461 . S
C1935 C1934 1.474 . S
C1936 C1931 1.342 . S
C1936 C1934 1.285 . S
C1936 H1955 0.930 . S
C1937 C1940 1.424 . S
C1937 C1942 1.245 . S
C1937 C1943 1.428 . S
C1938 C1941 1.260 . S
C1938 C1942 1.477 . S
C1938 H1956 0.932 . S
C1939 C1940 1.384 . S
C1939 C1941 1.479 . S
C1939 H1957 0.929 . S
C1940 C1937 1.424 . S
C1940 C1939 1.384 . S
C1940 H1958 0.928 . S
C1941 C1938 1.260 . S
C1941 C1939 1.479 . S
C1942 C1937 1.245 . S
C1942 C1938 1.477 . S
C1942 H1959 0.932 . S
C1943 U1926 2.882 . S
C1943 C1937 1.428 . S
C1943 O1946 1.301 . S
C1943 O1947 1.282 . S
O1944 U1926 2.441 . S
O1944 C1930 1.249 . S
O1945 U1926 2.420 . S
O1945 C1930 1.202 . S
O1946 U1926 2.455 . S
O1946 C1943 1.301 . S
O1947 U1926 2.449 . S
O1947 C1943 1.282 . S
H1948 C1921 0.931 . S
H1949 C1923 0.929 . S
H1950 C1924 0.930 . S
H1951 C1925 0.931 . S
H1952 C1932 0.932 . S
H1953 C1933 0.930 . S
H1954 C1934 0.929 . S
H1955 C1936 0.930 . S
H1956 C1938 0.932 . S
H1957 C1939 0.929 . S
H1958 C1940 0.928 . S
H1959 C1942 0.932 . S
C1960 C1961 1.264 . S
C1960 C1965 1.479 . S
C1960 C1970 1.465 . S
C1961 C1960 1.264 . S
C1961 C1963 1.339 . S
C1961 H1988 0.931 . S
C1962 C1963 1.395 . S
C1962 C1964 1.320 . S
C1963 C1961 1.339 . S
C1963 C1962 1.395 . S
C1963 H1989 0.929 . S
C1964 C1962 1.320 . S
C1964 C1965 1.405 . S
C1964 H1990 0.930 . S
C1965 C1960 1.479 . S
C1965 C1964 1.405 . S
C1965 H1991 0.931 . S
U1966 O1967 2.454 . S
U1966 O1968 2.458 . S
U1966 C1969 2.984 . S
U1966 C1970 2.847 . S
U1966 C1983 2.882 . S
U1966 O1984 2.441 . S
U1966 O1985 2.420 . S
U1966 O1986 2.455 . S
U1966 O1987 2.449 . S
O1967 U1966 2.454 . S
O1967 C1969 1.353 . S
O1968 U1966 2.458 . S
O1968 C1969 1.286 . S
C1969 U1966 2.984 . S
C1969 O1967 1.353 . S
C1969 O1968 1.286 . S
C1969 C1971 1.363 . S
C1970 C1960 1.465 . S
C1970 U1966 2.847 . S
C1970 O1984 1.249 . S
C1970 O1985 1.202 . S
C1971 C1969 1.363 . S
C1971 C1973 1.408 . S
C1971 C1976 1.342 . S
C1972 C1973 1.310 . S
C1972 C1975 1.461 . S
C1972 H1992 0.932 . S
C1973 C1971 1.408 . S
C1973 C1972 1.310 . S
C1973 H1993 0.930 . S
C1974 C1975 1.474 . S
C1974 C1976 1.285 . S
C1974 H1994 0.929 . S
C1975 C1972 1.461 . S
C1975 C1974 1.474 . S
C1976 C1971 1.342 . S
C1976 C1974 1.285 . S
C1976 H1995 0.930 . S
C1977 C1980 1.424 . S
C1977 C1982 1.245 . S
C1977 C1983 1.428 . S
C1978 C1981 1.260 . S
C1978 C1982 1.477 . S
C1978 H1996 0.932 . S
C1979 C1980 1.384 . S
C1979 C1981 1.479 . S
C1979 H1997 0.929 . S
C1980 C1977 1.424 . S
C1980 C1979 1.384 . S
C1980 H1998 0.928 . S
C1981 C1978 1.260 . S
C1981 C1979 1.479 . S
C1982 C1977 1.245 . S
C1982 C1978 1.477 . S
C1982 H1999 0.932 . S
C1983 U1966 2.882 . S
C1983 C1977 1.428 . S
C1983 O1986 1.301 . S
C1983 O1987 1.282 . S
O1984 U1966 2.441 . S
O1984 C1970 1.249 . S
O1985 U1966 2.420 . S
O1985 C1970 1.202 . S
O1986 U1966 2.455 . S
O1986 C1983 1.301 . S
O1987 U1966 2.449 . S
O1987 C1983 1.282 . S
H1988 C1961 0.931 . S
H1989 C1963 0.929 . S
H1990 C1964 0.930 . S
H1991 C1965 0.931 . S
H1992 C1972 0.932 . S
H1993 C1973 0.930 . S
H1994 C1974 0.929 . S
H1995 C1976 0.930 . S
H1996 C1978 0.932 . S
H1997 C1979 0.929 . S
H1998 C1980 0.928 . S
H1999 C1982 0.932 . S
C2000 C2001 1.264 . S
C2000 C2005 1.479 . S
C2000 C2010 1.465 . S
C2001 C2000 1.264 . S
C2001 C2003 1.339 . S
C2001 H2028 0.931 . S
C2002 C2003 1.395 . S
C2002 C2004 1.320 . S
C2003 C2001 1.339 . S
C2003 C2002 1.395 . S
C2003 H2029 0.929 . S
C2004 C2002 1.320 . S
C2004 C2005 1.405 . S
C2004 H2030 0.930 . S
C2005 C2000 1.479 . S
C2005 C2004 1.405 . S
C2005 H2031 0.931 . S
U2006 O2007 2.454 . S
U2006 O2008 2.458 . S
U2006 C2009 2.984 . S
U2006 C2010 2.847 . S
U2006 C2023 2.882 . S
U2006 O2024 2.441 . S
U2006 O2025 2.420 . S
U2006 O2026 2.455 . S
U2006 O2027 2.449 . S
O2007 U2006 2.454 . S
O2007 C2009 1.353 . S
O2008 U2006 2.458 . S
O2008 C2009 1.286 . S
C2009 U2006 2.984 . S
C2009 O2007 1.353 . S
C2009 O2008 1.286 . S
C2009 C2011 1.363 . S
C2010 C2000 1.465 . S
C2010 U2006 2.847 . S
C2010 O2024 1.249 . S
C2010 O2025 1.202 . S
C2011 C2009 1.363 . S
C2011 C2013 1.408 . S
C2011 C2016 1.342 . S
C2012 C2013 1.310 . S
C2012 C2015 1.461 . S
C2012 H2032 0.932 . S
C2013 C2011 1.408 . S
C2013 C2012 1.310 . S
C2013 H2033 0.930 . S
C2014 C2015 1.474 . S
C2014 C2016 1.285 . S
C2014 H2034 0.929 . S
C2015 C2012 1.461 . S
C2015 C2014 1.474 . S
C2016 C2011 1.342 . S
C2016 C2014 1.285 . S
C2016 H2035 0.930 . S
C2017 C2020 1.424 . S
C2017 C2022 1.245 . S
C2017 C2023 1.428 . S
C2018 C2021 1.260 . S
C2018 C2022 1.477 . S
C2018 H2036 0.932 . S
C2019 C2020 1.384 . S
C2019 C2021 1.479 . S
C2019 H2037 0.929 . S
C2020 C2017 1.424 . S
C2020 C2019 1.384 . S
C2020 H2038 0.928 . S
C2021 C2018 1.260 . S
C2021 C2019 1.479 . S
C2022 C2017 1.245 . S
C2022 C2018 1.477 . S
C2022 H2039 0.932 . S
C2023 U2006 2.882 . S
C2023 C2017 1.428 . S
C2023 O2026 1.301 . S
C2023 O2027 1.282 . S
O2024 U2006 2.441 . S
O2024 C2010 1.249 . S
O2025 U2006 2.420 . S
O2025 C2010 1.202 . S
O2026 U2006 2.455 . S
O2026 C2023 1.301 . S
O2027 U2006 2.449 . S
O2027 C2023 1.282 . S
H2028 C2001 0.931 . S
H2029 C2003 0.929 . S
H2030 C2004 0.930 . S
H2031 C2005 0.931 . S
H2032 C2012 0.932 . S
H2033 C2013 0.930 . S
H2034 C2014 0.929 . S
H2035 C2016 0.930 . S
H2036 C2018 0.932 . S
H2037 C2019 0.929 . S
H2038 C2020 0.928 . S
H2039 C2022 0.932 . S
C2040 C2041 1.264 . S
C2040 C2045 1.479 . S
C2040 C2050 1.465 . S
C2041 C2040 1.264 . S
C2041 C2043 1.339 . S
C2041 H2068 0.931 . S
C2042 C2043 1.395 . S
C2042 C2044 1.320 . S
C2043 C2041 1.339 . S
C2043 C2042 1.395 . S
C2043 H2069 0.929 . S
C2044 C2042 1.320 . S
C2044 C2045 1.405 . S
C2044 H2070 0.930 . S
C2045 C2040 1.479 . S
C2045 C2044 1.405 . S
C2045 H2071 0.931 . S
U2046 O2047 2.454 . S
U2046 O2048 2.458 . S
U2046 C2049 2.984 . S
U2046 C2050 2.847 . S
U2046 C2063 2.882 . S
U2046 O2064 2.441 . S
U2046 O2065 2.420 . S
U2046 O2066 2.455 . S
U2046 O2067 2.449 . S
O2047 U2046 2.454 . S
O2047 C2049 1.353 . S
O2048 U2046 2.458 . S
O2048 C2049 1.286 . S
C2049 U2046 2.984 . S
C2049 O2047 1.353 . S
C2049 O2048 1.286 . S
C2049 C2051 1.363 . S
C2050 C2040 1.465 . S
C2050 U2046 2.847 . S
C2050 O2064 1.249 . S
C2050 O2065 1.202 . S
C2051 C2049 1.363 . S
C2051 C2053 1.408 . S
C2051 C2056 1.342 . S
C2052 C2053 1.310 . S
C2052 C2055 1.461 . S
C2052 H2072 0.932 . S
C2053 C2051 1.408 . S
C2053 C2052 1.310 . S
C2053 H2073 0.930 . S
C2054 C2055 1.474 . S
C2054 C2056 1.285 . S
C2054 H2074 0.929 . S
C2055 C2052 1.461 . S
C2055 C2054 1.474 . S
C2056 C2051 1.342 . S
C2056 C2054 1.285 . S
C2056 H2075 0.930 . S
C2057 C2060 1.424 . S
C2057 C2062 1.245 . S
C2057 C2063 1.428 . S
C2058 C2061 1.260 . S
C2058 C2062 1.477 . S
C2058 H2076 0.932 . S
C2059 C2060 1.384 . S
C2059 C2061 1.479 . S
C2059 H2077 0.929 . S
C2060 C2057 1.424 . S
C2060 C2059 1.384 . S
C2060 H2078 0.928 . S
C2061 C2058 1.260 . S
C2061 C2059 1.479 . S
C2062 C2057 1.245 . S
C2062 C2058 1.477 . S
C2062 H2079 0.932 . S
C2063 U2046 2.882 . S
C2063 C2057 1.428 . S
C2063 O2066 1.301 . S
C2063 O2067 1.282 . S
O2064 U2046 2.441 . S
O2064 C2050 1.249 . S
O2065 U2046 2.420 . S
O2065 C2050 1.202 . S
O2066 U2046 2.455 . S
O2066 C2063 1.301 . S
O2067 U2046 2.449 . S
O2067 C2063 1.282 . S
H2068 C2041 0.931 . S
H2069 C2043 0.929 . S
H2070 C2044 0.930 . S
H2071 C2045 0.931 . S
H2072 C2052 0.932 . S
H2073 C2053 0.930 . S
H2074 C2054 0.929 . S
H2075 C2056 0.930 . S
H2076 C2058 0.932 . S
H2077 C2059 0.929 . S
H2078 C2060 0.928 . S
H2079 C2062 0.932 . S
C2080 C2081 1.264 . S
C2080 C2085 1.479 . S
C2080 C2090 1.465 . S
C2081 C2080 1.264 . S
C2081 C2083 1.339 . S
C2081 H2108 0.931 . S
C2082 C2083 1.395 . S
C2082 C2084 1.320 . S
C2083 C2081 1.339 . S
C2083 C2082 1.395 . S
C2083 H2109 0.929 . S
C2084 C2082 1.320 . S
C2084 C2085 1.405 . S
C2084 H2110 0.930 . S
C2085 C2080 1.479 . S
C2085 C2084 1.405 . S
C2085 H2111 0.931 . S
U2086 O2087 2.454 . S
U2086 O2088 2.458 . S
U2086 C2089 2.984 . S
U2086 C2090 2.847 . S
U2086 C2103 2.882 . S
U2086 O2104 2.441 . S
U2086 O2105 2.420 . S
U2086 O2106 2.455 . S
U2086 O2107 2.449 . S
O2087 U2086 2.454 . S
O2087 C2089 1.353 . S
O2088 U2086 2.458 . S
O2088 C2089 1.286 . S
C2089 U2086 2.984 . S
C2089 O2087 1.353 . S
C2089 O2088 1.286 . S
C2089 C2091 1.363 . S
C2090 C2080 1.465 . S
C2090 U2086 2.847 . S
C2090 O2104 1.249 . S
C2090 O2105 1.202 . S
C2091 C2089 1.363 . S
C2091 C2093 1.408 . S
C2091 C2096 1.342 . S
C2092 C2093 1.310 . S
C2092 C2095 1.461 . S
C2092 H2112 0.932 . S
C2093 C2091 1.408 . S
C2093 C2092 1.310 . S
C2093 H2113 0.930 . S
C2094 C2095 1.474 . S
C2094 C2096 1.285 . S
C2094 H2114 0.929 . S
C2095 C2092 1.461 . S
C2095 C2094 1.474 . S
C2096 C2091 1.342 . S
C2096 C2094 1.285 . S
C2096 H2115 0.930 . S
C2097 C2100 1.424 . S
C2097 C2102 1.245 . S
C2097 C2103 1.428 . S
C2098 C2101 1.260 . S
C2098 C2102 1.477 . S
C2098 H2116 0.932 . S
C2099 C2100 1.384 . S
C2099 C2101 1.479 . S
C2099 H2117 0.929 . S
C2100 C2097 1.424 . S
C2100 C2099 1.384 . S
C2100 H2118 0.928 . S
C2101 C2098 1.260 . S
C2101 C2099 1.479 . S
C2102 C2097 1.245 . S
C2102 C2098 1.477 . S
C2102 H2119 0.932 . S
C2103 U2086 2.882 . S
C2103 C2097 1.428 . S
C2103 O2106 1.301 . S
C2103 O2107 1.282 . S
O2104 U2086 2.441 . S
O2104 C2090 1.249 . S
O2105 U2086 2.420 . S
O2105 C2090 1.202 . S
O2106 U2086 2.455 . S
O2106 C2103 1.301 . S
O2107 U2086 2.449 . S
O2107 C2103 1.282 . S
H2108 C2081 0.931 . S
H2109 C2083 0.929 . S
H2110 C2084 0.930 . S
H2111 C2085 0.931 . S
H2112 C2092 0.932 . S
H2113 C2093 0.930 . S
H2114 C2094 0.929 . S
H2115 C2096 0.930 . S
H2116 C2098 0.932 . S
H2117 C2099 0.929 . S
H2118 C2100 0.928 . S
H2119 C2102 0.932 . S
C2120 C2121 1.264 . S
C2120 C2125 1.479 . S
C2120 C2130 1.465 . S
C2121 C2120 1.264 . S
C2121 C2123 1.339 . S
C2121 H2148 0.931 . S
C2122 C2123 1.395 . S
C2122 C2124 1.320 . S
C2123 C2121 1.339 . S
C2123 C2122 1.395 . S
C2123 H2149 0.929 . S
C2124 C2122 1.320 . S
C2124 C2125 1.405 . S
C2124 H2150 0.930 . S
C2125 C2120 1.479 . S
C2125 C2124 1.405 . S
C2125 H2151 0.931 . S
U2126 O2127 2.454 . S
U2126 O2128 2.458 . S
U2126 C2129 2.984 . S
U2126 C2130 2.847 . S
U2126 C2143 2.882 . S
U2126 O2144 2.441 . S
U2126 O2145 2.420 . S
U2126 O2146 2.455 . S
U2126 O2147 2.449 . S
O2127 U2126 2.454 . S
O2127 C2129 1.353 . S
O2128 U2126 2.458 . S
O2128 C2129 1.286 . S
C2129 U2126 2.984 . S
C2129 O2127 1.353 . S
C2129 O2128 1.286 . S
C2129 C2131 1.363 . S
C2130 C2120 1.465 . S
C2130 U2126 2.847 . S
C2130 O2144 1.249 . S
C2130 O2145 1.202 . S
C2131 C2129 1.363 . S
C2131 C2133 1.408 . S
C2131 C2136 1.342 . S
C2132 C2133 1.310 . S
C2132 C2135 1.461 . S
C2132 H2152 0.932 . S
C2133 C2131 1.408 . S
C2133 C2132 1.310 . S
C2133 H2153 0.930 . S
C2134 C2135 1.474 . S
C2134 C2136 1.285 . S
C2134 H2154 0.929 . S
C2135 C2132 1.461 . S
C2135 C2134 1.474 . S
C2136 C2131 1.342 . S
C2136 C2134 1.285 . S
C2136 H2155 0.930 . S
C2137 C2140 1.424 . S
C2137 C2142 1.245 . S
C2137 C2143 1.428 . S
C2138 C2141 1.260 . S
C2138 C2142 1.477 . S
C2138 H2156 0.932 . S
C2139 C2140 1.384 . S
C2139 C2141 1.479 . S
C2139 H2157 0.929 . S
C2140 C2137 1.424 . S
C2140 C2139 1.384 . S
C2140 H2158 0.928 . S
C2141 C2138 1.260 . S
C2141 C2139 1.479 . S
C2142 C2137 1.245 . S
C2142 C2138 1.477 . S
C2142 H2159 0.932 . S
C2143 U2126 2.882 . S
C2143 C2137 1.428 . S
C2143 O2146 1.301 . S
C2143 O2147 1.282 . S
O2144 U2126 2.441 . S
O2144 C2130 1.249 . S
O2145 U2126 2.420 . S
O2145 C2130 1.202 . S
O2146 U2126 2.455 . S
O2146 C2143 1.301 . S
O2147 U2126 2.449 . S
O2147 C2143 1.282 . S
H2148 C2121 0.931 . S
H2149 C2123 0.929 . S
H2150 C2124 0.930 . S
H2151 C2125 0.931 . S
H2152 C2132 0.932 . S
H2153 C2133 0.930 . S
H2154 C2134 0.929 . S
H2155 C2136 0.930 . S
H2156 C2138 0.932 . S
H2157 C2139 0.929 . S
H2158 C2140 0.928 . S
H2159 C2142 0.932 . S
C2160 C2161 1.264 . S
C2160 C2165 1.479 . S
C2160 C2170 1.465 . S
C2161 C2160 1.264 . S
C2161 C2163 1.339 . S
C2161 H2188 0.931 . S
C2162 C2163 1.395 . S
C2162 C2164 1.320 . S
C2163 C2161 1.339 . S
C2163 C2162 1.395 . S
C2163 H2189 0.929 . S
C2164 C2162 1.320 . S
C2164 C2165 1.405 . S
C2164 H2190 0.930 . S
C2165 C2160 1.479 . S
C2165 C2164 1.405 . S
C2165 H2191 0.931 . S
U2166 O2167 2.454 . S
U2166 O2168 2.458 . S
U2166 C2169 2.984 . S
U2166 C2170 2.847 . S
U2166 C2183 2.882 . S
U2166 O2184 2.441 . S
U2166 O2185 2.420 . S
U2166 O2186 2.455 . S
U2166 O2187 2.449 . S
O2167 U2166 2.454 . S
O2167 C2169 1.353 . S
O2168 U2166 2.458 . S
O2168 C2169 1.286 . S
C2169 U2166 2.984 . S
C2169 O2167 1.353 . S
C2169 O2168 1.286 . S
C2169 C2171 1.363 . S
C2170 C2160 1.465 . S
C2170 U2166 2.847 . S
C2170 O2184 1.249 . S
C2170 O2185 1.202 . S
C2171 C2169 1.363 . S
C2171 C2173 1.408 . S
C2171 C2176 1.342 . S
C2172 C2173 1.310 . S
C2172 C2175 1.461 . S
C2172 H2192 0.932 . S
C2173 C2171 1.408 . S
C2173 C2172 1.310 . S
C2173 H2193 0.930 . S
C2174 C2175 1.474 . S
C2174 C2176 1.285 . S
C2174 H2194 0.929 . S
C2175 C2172 1.461 . S
C2175 C2174 1.474 . S
C2176 C2171 1.342 . S
C2176 C2174 1.285 . S
C2176 H2195 0.930 . S
C2177 C2180 1.424 . S
C2177 C2182 1.245 . S
C2177 C2183 1.428 . S
C2178 C2181 1.260 . S
C2178 C2182 1.477 . S
C2178 H2196 0.932 . S
C2179 C2180 1.384 . S
C2179 C2181 1.479 . S
C2179 H2197 0.929 . S
C2180 C2177 1.424 . S
C2180 C2179 1.384 . S
C2180 H2198 0.928 . S
C2181 C2178 1.260 . S
C2181 C2179 1.479 . S
C2182 C2177 1.245 . S
C2182 C2178 1.477 . S
C2182 H2199 0.932 . S
C2183 U2166 2.882 . S
C2183 C2177 1.428 . S
C2183 O2186 1.301 . S
C2183 O2187 1.282 . S
O2184 U2166 2.441 . S
O2184 C2170 1.249 . S
O2185 U2166 2.420 . S
O2185 C2170 1.202 . S
O2186 U2166 2.455 . S
O2186 C2183 1.301 . S
O2187 U2166 2.449 . S
O2187 C2183 1.282 . S
H2188 C2161 0.931 . S
H2189 C2163 0.929 . S
H2190 C2164 0.930 . S
H2191 C2165 0.931 . S
H2192 C2172 0.932 . S
H2193 C2173 0.930 . S
H2194 C2174 0.929 . S
H2195 C2176 0.930 . S
H2196 C2178 0.932 . S
H2197 C2179 0.929 . S
H2198 C2180 0.928 . S
H2199 C2182 0.932 . S
C2200 C2201 1.264 . S
C2200 C2205 1.479 . S
C2200 C2210 1.465 . S
C2201 C2200 1.264 . S
C2201 C2203 1.339 . S
C2201 H2228 0.931 . S
C2202 C2203 1.395 . S
C2202 C2204 1.320 . S
C2203 C2201 1.339 . S
C2203 C2202 1.395 . S
C2203 H2229 0.929 . S
C2204 C2202 1.320 . S
C2204 C2205 1.405 . S
C2204 H2230 0.930 . S
C2205 C2200 1.479 . S
C2205 C2204 1.405 . S
C2205 H2231 0.931 . S
U2206 O2207 2.454 . S
U2206 O2208 2.458 . S
U2206 C2209 2.984 . S
U2206 C2210 2.847 . S
U2206 C2223 2.882 . S
U2206 O2224 2.441 . S
U2206 O2225 2.420 . S
U2206 O2226 2.455 . S
U2206 O2227 2.449 . S
O2207 U2206 2.454 . S
O2207 C2209 1.353 . S
O2208 U2206 2.458 . S
O2208 C2209 1.286 . S
C2209 U2206 2.984 . S
C2209 O2207 1.353 . S
C2209 O2208 1.286 . S
C2209 C2211 1.363 . S
C2210 C2200 1.465 . S
C2210 U2206 2.847 . S
C2210 O2224 1.249 . S
C2210 O2225 1.202 . S
C2211 C2209 1.363 . S
C2211 C2213 1.408 . S
C2211 C2216 1.342 . S
C2212 C2213 1.310 . S
C2212 C2215 1.461 . S
C2212 H2232 0.932 . S
C2213 C2211 1.408 . S
C2213 C2212 1.310 . S
C2213 H2233 0.930 . S
C2214 C2215 1.474 . S
C2214 C2216 1.285 . S
C2214 H2234 0.929 . S
C2215 C2212 1.461 . S
C2215 C2214 1.474 . S
C2216 C2211 1.342 . S
C2216 C2214 1.285 . S
C2216 H2235 0.930 . S
C2217 C2220 1.424 . S
C2217 C2222 1.245 . S
C2217 C2223 1.428 . S
C2218 C2221 1.260 . S
C2218 C2222 1.477 . S
C2218 H2236 0.932 . S
C2219 C2220 1.384 . S
C2219 C2221 1.479 . S
C2219 H2237 0.929 . S
C2220 C2217 1.424 . S
C2220 C2219 1.384 . S
C2220 H2238 0.928 . S
C2221 C2218 1.260 . S
C2221 C2219 1.479 . S
C2222 C2217 1.245 . S
C2222 C2218 1.477 . S
C2222 H2239 0.932 . S
C2223 U2206 2.882 . S
C2223 C2217 1.428 . S
C2223 O2226 1.301 . S
C2223 O2227 1.282 . S
O2224 U2206 2.441 . S
O2224 C2210 1.249 . S
O2225 U2206 2.420 . S
O2225 C2210 1.202 . S
O2226 U2206 2.455 . S
O2226 C2223 1.301 . S
O2227 U2206 2.449 . S
O2227 C2223 1.282 . S
H2228 C2201 0.931 . S
H2229 C2203 0.929 . S
H2230 C2204 0.930 . S
H2231 C2205 0.931 . S
H2232 C2212 0.932 . S
H2233 C2213 0.930 . S
H2234 C2214 0.929 . S
H2235 C2216 0.930 . S
H2236 C2218 0.932 . S
H2237 C2219 0.929 . S
H2238 C2220 0.928 . S
H2239 C2222 0.932 . S
C2240 C2241 1.264 . S
C2240 C2245 1.479 . S
C2240 C2250 1.465 . S
C2241 C2240 1.264 . S
C2241 C2243 1.339 . S
C2241 H2268 0.931 . S
C2242 C2243 1.395 . S
C2242 C2244 1.320 . S
C2243 C2241 1.339 . S
C2243 C2242 1.395 . S
C2243 H2269 0.929 . S
C2244 C2242 1.320 . S
C2244 C2245 1.405 . S
C2244 H2270 0.930 . S
C2245 C2240 1.479 . S
C2245 C2244 1.405 . S
C2245 H2271 0.931 . S
U2246 O2247 2.454 . S
U2246 O2248 2.458 . S
U2246 C2249 2.984 . S
U2246 C2250 2.847 . S
U2246 C2263 2.882 . S
U2246 O2264 2.441 . S
U2246 O2265 2.420 . S
U2246 O2266 2.455 . S
U2246 O2267 2.449 . S
O2247 U2246 2.454 . S
O2247 C2249 1.353 . S
O2248 U2246 2.458 . S
O2248 C2249 1.286 . S
C2249 U2246 2.984 . S
C2249 O2247 1.353 . S
C2249 O2248 1.286 . S
C2249 C2251 1.363 . S
C2250 C2240 1.465 . S
C2250 U2246 2.847 . S
C2250 O2264 1.249 . S
C2250 O2265 1.202 . S
C2251 C2249 1.363 . S
C2251 C2253 1.408 . S
C2251 C2256 1.342 . S
C2252 C2253 1.310 . S
C2252 C2255 1.461 . S
C2252 H2272 0.932 . S
C2253 C2251 1.408 . S
C2253 C2252 1.310 . S
C2253 H2273 0.930 . S
C2254 C2255 1.474 . S
C2254 C2256 1.285 . S
C2254 H2274 0.929 . S
C2255 C2252 1.461 . S
C2255 C2254 1.474 . S
C2256 C2251 1.342 . S
C2256 C2254 1.285 . S
C2256 H2275 0.930 . S
C2257 C2260 1.424 . S
C2257 C2262 1.245 . S
C2257 C2263 1.428 . S
C2258 C2261 1.260 . S
C2258 C2262 1.477 . S
C2258 H2276 0.932 . S
C2259 C2260 1.384 . S
C2259 C2261 1.479 . S
C2259 H2277 0.929 . S
C2260 C2257 1.424 . S
C2260 C2259 1.384 . S
C2260 H2278 0.928 . S
C2261 C2258 1.260 . S
C2261 C2259 1.479 . S
C2262 C2257 1.245 . S
C2262 C2258 1.477 . S
C2262 H2279 0.932 . S
C2263 U2246 2.882 . S
C2263 C2257 1.428 . S
C2263 O2266 1.301 . S
C2263 O2267 1.282 . S
O2264 U2246 2.441 . S
O2264 C2250 1.249 . S
O2265 U2246 2.420 . S
O2265 C2250 1.202 . S
O2266 U2246 2.455 . S
O2266 C2263 1.301 . S
O2267 U2246 2.449 . S
O2267 C2263 1.282 . S
H2268 C2241 0.931 . S
H2269 C2243 0.929 . S
H2270 C2244 0.930 . S
H2271 C2245 0.931 . S
H2272 C2252 0.932 . S
H2273 C2253 0.930 . S
H2274 C2254 0.929 . S
H2275 C2256 0.930 . S
H2276 C2258 0.932 . S
H2277 C2259 0.929 . S
H2278 C2260 0.928 . S
H2279 C2262 0.932 . S
C2280 C2281 1.264 . S
C2280 C2285 1.479 . S
C2280 C2290 1.465 . S
C2281 C2280 1.264 . S
C2281 C2283 1.339 . S
C2281 H2308 0.931 . S
C2282 C2283 1.395 . S
C2282 C2284 1.320 . S
C2283 C2281 1.339 . S
C2283 C2282 1.395 . S
C2283 H2309 0.929 . S
C2284 C2282 1.320 . S
C2284 C2285 1.405 . S
C2284 H2310 0.930 . S
C2285 C2280 1.479 . S
C2285 C2284 1.405 . S
C2285 H2311 0.931 . S
U2286 O2287 2.454 . S
U2286 O2288 2.458 . S
U2286 C2289 2.984 . S
U2286 C2290 2.847 . S
U2286 C2303 2.882 . S
U2286 O2304 2.441 . S
U2286 O2305 2.420 . S
U2286 O2306 2.455 . S
U2286 O2307 2.449 . S
O2287 U2286 2.454 . S
O2287 C2289 1.353 . S
O2288 U2286 2.458 . S
O2288 C2289 1.286 . S
C2289 U2286 2.984 . S
C2289 O2287 1.353 . S
C2289 O2288 1.286 . S
C2289 C2291 1.363 . S
C2290 C2280 1.465 . S
C2290 U2286 2.847 . S
C2290 O2304 1.249 . S
C2290 O2305 1.202 . S
C2291 C2289 1.363 . S
C2291 C2293 1.408 . S
C2291 C2296 1.342 . S
C2292 C2293 1.310 . S
C2292 C2295 1.461 . S
C2292 H2312 0.932 . S
C2293 C2291 1.408 . S
C2293 C2292 1.310 . S
C2293 H2313 0.930 . S
C2294 C2295 1.474 . S
C2294 C2296 1.285 . S
C2294 H2314 0.929 . S
C2295 C2292 1.461 . S
C2295 C2294 1.474 . S
C2296 C2291 1.342 . S
C2296 C2294 1.285 . S
C2296 H2315 0.930 . S
C2297 C2300 1.424 . S
C2297 C2302 1.245 . S
C2297 C2303 1.428 . S
C2298 C2301 1.260 . S
C2298 C2302 1.477 . S
C2298 H2316 0.932 . S
C2299 C2300 1.384 . S
C2299 C2301 1.479 . S
C2299 H2317 0.929 . S
C2300 C2297 1.424 . S
C2300 C2299 1.384 . S
C2300 H2318 0.928 . S
C2301 C2298 1.260 . S
C2301 C2299 1.479 . S
C2302 C2297 1.245 . S
C2302 C2298 1.477 . S
C2302 H2319 0.932 . S
C2303 U2286 2.882 . S
C2303 C2297 1.428 . S
C2303 O2306 1.301 . S
C2303 O2307 1.282 . S
O2304 U2286 2.441 . S
O2304 C2290 1.249 . S
O2305 U2286 2.420 . S
O2305 C2290 1.202 . S
O2306 U2286 2.455 . S
O2306 C2303 1.301 . S
O2307 U2286 2.449 . S
O2307 C2303 1.282 . S
H2308 C2281 0.931 . S
H2309 C2283 0.929 . S
H2310 C2284 0.930 . S
H2311 C2285 0.931 . S
H2312 C2292 0.932 . S
H2313 C2293 0.930 . S
H2314 C2294 0.929 . S
H2315 C2296 0.930 . S
H2316 C2298 0.932 . S
H2317 C2299 0.929 . S
H2318 C2300 0.928 . S
H2319 C2302 0.932 . S
C2320 C2321 1.264 . S
C2320 C2325 1.479 . S
C2320 C2330 1.465 . S
C2321 C2320 1.264 . S
C2321 C2323 1.339 . S
C2321 H2348 0.931 . S
C2322 C2323 1.395 . S
C2322 C2324 1.320 . S
C2323 C2321 1.339 . S
C2323 C2322 1.395 . S
C2323 H2349 0.929 . S
C2324 C2322 1.320 . S
C2324 C2325 1.405 . S
C2324 H2350 0.930 . S
C2325 C2320 1.479 . S
C2325 C2324 1.405 . S
C2325 H2351 0.931 . S
U2326 O2327 2.454 . S
U2326 O2328 2.458 . S
U2326 C2329 2.984 . S
U2326 C2330 2.847 . S
U2326 C2343 2.882 . S
U2326 O2344 2.441 . S
U2326 O2345 2.420 . S
U2326 O2346 2.455 . S
U2326 O2347 2.449 . S
O2327 U2326 2.454 . S
O2327 C2329 1.353 . S
O2328 U2326 2.458 . S
O2328 C2329 1.286 . S
C2329 U2326 2.984 . S
C2329 O2327 1.353 . S
C2329 O2328 1.286 . S
C2329 C2331 1.363 . S
C2330 C2320 1.465 . S
C2330 U2326 2.847 . S
C2330 O2344 1.249 . S
C2330 O2345 1.202 . S
C2331 C2329 1.363 . S
C2331 C2333 1.408 . S
C2331 C2336 1.342 . S
C2332 C2333 1.310 . S
C2332 C2335 1.461 . S
C2332 H2352 0.932 . S
C2333 C2331 1.408 . S
C2333 C2332 1.310 . S
C2333 H2353 0.930 . S
C2334 C2335 1.474 . S
C2334 C2336 1.285 . S
C2334 H2354 0.929 . S
C2335 C2332 1.461 . S
C2335 C2334 1.474 . S
C2336 C2331 1.342 . S
C2336 C2334 1.285 . S
C2336 H2355 0.930 . S
C2337 C2340 1.424 . S
C2337 C2342 1.245 . S
C2337 C2343 1.428 . S
C2338 C2341 1.260 . S
C2338 C2342 1.477 . S
C2338 H2356 0.932 . S
C2339 C2340 1.384 . S
C2339 C2341 1.479 . S
C2339 H2357 0.929 . S
C2340 C2337 1.424 . S
C2340 C2339 1.384 . S
C2340 H2358 0.928 . S
C2341 C2338 1.260 . S
C2341 C2339 1.479 . S
C2342 C2337 1.245 . S
C2342 C2338 1.477 . S
C2342 H2359 0.932 . S
C2343 U2326 2.882 . S
C2343 C2337 1.428 . S
C2343 O2346 1.301 . S
C2343 O2347 1.282 . S
O2344 U2326 2.441 . S
O2344 C2330 1.249 . S
O2345 U2326 2.420 . S
O2345 C2330 1.202 . S
O2346 U2326 2.455 . S
O2346 C2343 1.301 . S
O2347 U2326 2.449 . S
O2347 C2343 1.282 . S
H2348 C2321 0.931 . S
H2349 C2323 0.929 . S
H2350 C2324 0.930 . S
H2351 C2325 0.931 . S
H2352 C2332 0.932 . S
H2353 C2333 0.930 . S
H2354 C2334 0.929 . S
H2355 C2336 0.930 . S
H2356 C2338 0.932 . S
H2357 C2339 0.929 . S
H2358 C2340 0.928 . S
H2359 C2342 0.932 . S
C2360 C2361 1.264 . S
C2360 C2365 1.479 . S
C2360 C2370 1.465 . S
C2361 C2360 1.264 . S
C2361 C2363 1.339 . S
C2361 H2388 0.931 . S
C2362 C2363 1.395 . S
C2362 C2364 1.320 . S
C2363 C2361 1.339 . S
C2363 C2362 1.395 . S
C2363 H2389 0.929 . S
C2364 C2362 1.320 . S
C2364 C2365 1.405 . S
C2364 H2390 0.930 . S
C2365 C2360 1.479 . S
C2365 C2364 1.405 . S
C2365 H2391 0.931 . S
U2366 O2367 2.454 . S
U2366 O2368 2.458 . S
U2366 C2369 2.984 . S
U2366 C2370 2.847 . S
U2366 C2383 2.882 . S
U2366 O2384 2.441 . S
U2366 O2385 2.420 . S
U2366 O2386 2.455 . S
U2366 O2387 2.449 . S
O2367 U2366 2.454 . S
O2367 C2369 1.353 . S
O2368 U2366 2.458 . S
O2368 C2369 1.286 . S
C2369 U2366 2.984 . S
C2369 O2367 1.353 . S
C2369 O2368 1.286 . S
C2369 C2371 1.363 . S
C2370 C2360 1.465 . S
C2370 U2366 2.847 . S
C2370 O2384 1.249 . S
C2370 O2385 1.202 . S
C2371 C2369 1.363 . S
C2371 C2373 1.408 . S
C2371 C2376 1.342 . S
C2372 C2373 1.310 . S
C2372 C2375 1.461 . S
C2372 H2392 0.932 . S
C2373 C2371 1.408 . S
C2373 C2372 1.310 . S
C2373 H2393 0.930 . S
C2374 C2375 1.474 . S
C2374 C2376 1.285 . S
C2374 H2394 0.929 . S
C2375 C2372 1.461 . S
C2375 C2374 1.474 . S
C2376 C2371 1.342 . S
C2376 C2374 1.285 . S
C2376 H2395 0.930 . S
C2377 C2380 1.424 . S
C2377 C2382 1.245 . S
C2377 C2383 1.428 . S
C2378 C2381 1.260 . S
C2378 C2382 1.477 . S
C2378 H2396 0.932 . S
C2379 C2380 1.384 . S
C2379 C2381 1.479 . S
C2379 H2397 0.929 . S
C2380 C2377 1.424 . S
C2380 C2379 1.384 . S
C2380 H2398 0.928 . S
C2381 C2378 1.260 . S
C2381 C2379 1.479 . S
C2382 C2377 1.245 . S
C2382 C2378 1.477 . S
C2382 H2399 0.932 . S
C2383 U2366 2.882 . S
C2383 C2377 1.428 . S
C2383 O2386 1.301 . S
C2383 O2387 1.282 . S
O2384 U2366 2.441 . S
O2384 C2370 1.249 . S
O2385 U2366 2.420 . S
O2385 C2370 1.202 . S
O2386 U2366 2.455 . S
O2386 C2383 1.301 . S
O2387 U2366 2.449 . S
O2387 C2383 1.282 . S
H2388 C2361 0.931 . S
H2389 C2363 0.929 . S
H2390 C2364 0.930 . S
H2391 C2365 0.931 . S
H2392 C2372 0.932 . S
H2393 C2373 0.930 . S
H2394 C2374 0.929 . S
H2395 C2376 0.930 . S
H2396 C2378 0.932 . S
H2397 C2379 0.929 . S
H2398 C2380 0.928 . S
H2399 C2382 0.932 . S
C2400 C2401 1.264 . S
C2400 C2405 1.479 . S
C2400 C2410 1.465 . S
C2401 C2400 1.264 . S
C2401 C2403 1.339 . S
C2401 H2428 0.931 . S
C2402 C2403 1.395 . S
C2402 C2404 1.320 . S
C2403 C2401 1.339 . S
C2403 C2402 1.395 . S
C2403 H2429 0.929 . S
C2404 C2402 1.320 . S
C2404 C2405 1.405 . S
C2404 H2430 0.930 . S
C2405 C2400 1.479 . S
C2405 C2404 1.405 . S
C2405 H2431 0.931 . S
U2406 O2407 2.454 . S
U2406 O2408 2.458 . S
U2406 C2409 2.984 . S
U2406 C2410 2.847 . S
U2406 C2423 2.882 . S
U2406 O2424 2.441 . S
U2406 O2425 2.420 . S
U2406 O2426 2.455 . S
U2406 O2427 2.449 . S
O2407 U2406 2.454 . S
O2407 C2409 1.353 . S
O2408 U2406 2.458 . S
O2408 C2409 1.286 . S
C2409 U2406 2.984 . S
C2409 O2407 1.353 . S
C2409 O2408 1.286 . S
C2409 C2411 1.363 . S
C2410 C2400 1.465 . S
C2410 U2406 2.847 . S
C2410 O2424 1.249 . S
C2410 O2425 1.202 . S
C2411 C2409 1.363 . S
C2411 C2413 1.408 . S
C2411 C2416 1.342 . S
C2412 C2413 1.310 . S
C2412 C2415 1.461 . S
C2412 H2432 0.932 . S
C2413 C2411 1.408 . S
C2413 C2412 1.310 . S
C2413 H2433 0.930 . S
C2414 C2415 1.474 . S
C2414 C2416 1.285 . S
C2414 H2434 0.929 . S
C2415 C2412 1.461 . S
C2415 C2414 1.474 . S
C2416 C2411 1.342 . S
C2416 C2414 1.285 . S
C2416 H2435 0.930 . S
C2417 C2420 1.424 . S
C2417 C2422 1.245 . S
C2417 C2423 1.428 . S
C2418 C2421 1.260 . S
C2418 C2422 1.477 . S
C2418 H2436 0.932 . S
C2419 C2420 1.384 . S
C2419 C2421 1.479 . S
C2419 H2437 0.929 . S
C2420 C2417 1.424 . S
C2420 C2419 1.384 . S
C2420 H2438 0.928 . S
C2421 C2418 1.260 . S
C2421 C2419 1.479 . S
C2422 C2417 1.245 . S
C2422 C2418 1.477 . S
C2422 H2439 0.932 . S
C2423 U2406 2.882 . S
C2423 C2417 1.428 . S
C2423 O2426 1.301 . S
C2423 O2427 1.282 . S
O2424 U2406 2.441 . S
O2424 C2410 1.249 . S
O2425 U2406 2.420 . S
O2425 C2410 1.202 . S
O2426 U2406 2.455 . S
O2426 C2423 1.301 . S
O2427 U2406 2.449 . S
O2427 C2423 1.282 . S
H2428 C2401 0.931 . S
H2429 C2403 0.929 . S
H2430 C2404 0.930 . S
H2431 C2405 0.931 . S
H2432 C2412 0.932 . S
H2433 C2413 0.930 . S
H2434 C2414 0.929 . S
H2435 C2416 0.930 . S
H2436 C2418 0.932 . S
H2437 C2419 0.929 . S
H2438 C2420 0.928 . S
H2439 C2422 0.932 . S
C2440 C2441 1.264 . S
C2440 C2445 1.479 . S
C2440 C2450 1.465 . S
C2441 C2440 1.264 . S
C2441 C2443 1.339 . S
C2441 H2468 0.931 . S
C2442 C2443 1.395 . S
C2442 C2444 1.320 . S
C2443 C2441 1.339 . S
C2443 C2442 1.395 . S
C2443 H2469 0.929 . S
C2444 C2442 1.320 . S
C2444 C2445 1.405 . S
C2444 H2470 0.930 . S
C2445 C2440 1.479 . S
C2445 C2444 1.405 . S
C2445 H2471 0.931 . S
U2446 O2447 2.454 . S
U2446 O2448 2.458 . S
U2446 C2449 2.984 . S
U2446 C2450 2.847 . S
U2446 C2463 2.882 . S
U2446 O2464 2.441 . S
U2446 O2465 2.420 . S
U2446 O2466 2.455 . S
U2446 O2467 2.449 . S
O2447 U2446 2.454 . S
O2447 C2449 1.353 . S
O2448 U2446 2.458 . S
O2448 C2449 1.286 . S
C2449 U2446 2.984 . S
C2449 O2447 1.353 . S
C2449 O2448 1.286 . S
C2449 C2451 1.363 . S
C2450 C2440 1.465 . S
C2450 U2446 2.847 . S
C2450 O2464 1.249 . S
C2450 O2465 1.202 . S
C2451 C2449 1.363 . S
C2451 C2453 1.408 . S
C2451 C2456 1.342 . S
C2452 C2453 1.310 . S
C2452 C2455 1.461 . S
C2452 H2472 0.932 . S
C2453 C2451 1.408 . S
C2453 C2452 1.310 . S
C2453 H2473 0.930 . S
C2454 C2455 1.474 . S
C2454 C2456 1.285 . S
C2454 H2474 0.929 . S
C2455 C2452 1.461 . S
C2455 C2454 1.474 . S
C2456 C2451 1.342 . S
C2456 C2454 1.285 . S
C2456 H2475 0.930 . S
C2457 C2460 1.424 . S
C2457 C2462 1.245 . S
C2457 C2463 1.428 . S
C2458 C2461 1.260 . S
C2458 C2462 1.477 . S
C2458 H2476 0.932 . S
C2459 C2460 1.384 . S
C2459 C2461 1.479 . S
C2459 H2477 0.929 . S
C2460 C2457 1.424 . S
C2460 C2459 1.384 . S
C2460 H2478 0.928 . S
C2461 C2458 1.260 . S
C2461 C2459 1.479 . S
C2462 C2457 1.245 . S
C2462 C2458 1.477 . S
C2462 H2479 0.932 . S
C2463 U2446 2.882 . S
C2463 C2457 1.428 . S
C2463 O2466 1.301 . S
C2463 O2467 1.282 . S
O2464 U2446 2.441 . S
O2464 C2450 1.249 . S
O2465 U2446 2.420 . S
O2465 C2450 1.202 . S
O2466 U2446 2.455 . S
O2466 C2463 1.301 . S
O2467 U2446 2.449 . S
O2467 C2463 1.282 . S
H2468 C2441 0.931 . S
H2469 C2443 0.929 . S
H2470 C2444 0.930 . S
H2471 C2445 0.931 . S
H2472 C2452 0.932 . S
H2473 C2453 0.930 . S
H2474 C2454 0.929 . S
H2475 C2456 0.930 . S
H2476 C2458 0.932 . S
H2477 C2459 0.929 . S
H2478 C2460 0.928 . S
H2479 C2462 0.932 . S
C2480 C2481 1.264 . S
C2480 C2485 1.479 . S
C2480 C2490 1.465 . S
C2481 C2480 1.264 . S
C2481 C2483 1.339 . S
C2481 H2508 0.931 . S
C2482 C2483 1.395 . S
C2482 C2484 1.320 . S
C2483 C2481 1.339 . S
C2483 C2482 1.395 . S
C2483 H2509 0.929 . S
C2484 C2482 1.320 . S
C2484 C2485 1.405 . S
C2484 H2510 0.930 . S
C2485 C2480 1.479 . S
C2485 C2484 1.405 . S
C2485 H2511 0.931 . S
U2486 O2487 2.454 . S
U2486 O2488 2.458 . S
U2486 C2489 2.984 . S
U2486 C2490 2.847 . S
U2486 C2503 2.882 . S
U2486 O2504 2.441 . S
U2486 O2505 2.420 . S
U2486 O2506 2.455 . S
U2486 O2507 2.449 . S
O2487 U2486 2.454 . S
O2487 C2489 1.353 . S
O2488 U2486 2.458 . S
O2488 C2489 1.286 . S
C2489 U2486 2.984 . S
C2489 O2487 1.353 . S
C2489 O2488 1.286 . S
C2489 C2491 1.363 . S
C2490 C2480 1.465 . S
C2490 U2486 2.847 . S
C2490 O2504 1.249 . S
C2490 O2505 1.202 . S
C2491 C2489 1.363 . S
C2491 C2493 1.408 . S
C2491 C2496 1.342 . S
C2492 C2493 1.310 . S
C2492 C2495 1.461 . S
C2492 H2512 0.932 . S
C2493 C2491 1.408 . S
C2493 C2492 1.310 . S
C2493 H2513 0.930 . S
C2494 C2495 1.474 . S
C2494 C2496 1.285 . S
C2494 H2514 0.929 . S
C2495 C2492 1.461 . S
C2495 C2494 1.474 . S
C2496 C2491 1.342 . S
C2496 C2494 1.285 . S
C2496 H2515 0.930 . S
C2497 C2500 1.424 . S
C2497 C2502 1.245 . S
C2497 C2503 1.428 . S
C2498 C2501 1.260 . S
C2498 C2502 1.477 . S
C2498 H2516 0.932 . S
C2499 C2500 1.384 . S
C2499 C2501 1.479 . S
C2499 H2517 0.929 . S
C2500 C2497 1.424 . S
C2500 C2499 1.384 . S
C2500 H2518 0.928 . S
C2501 C2498 1.260 . S
C2501 C2499 1.479 . S
C2502 C2497 1.245 . S
C2502 C2498 1.477 . S
C2502 H2519 0.932 . S
C2503 U2486 2.882 . S
C2503 C2497 1.428 . S
C2503 O2506 1.301 . S
C2503 O2507 1.282 . S
O2504 U2486 2.441 . S
O2504 C2490 1.249 . S
O2505 U2486 2.420 . S
O2505 C2490 1.202 . S
O2506 U2486 2.455 . S
O2506 C2503 1.301 . S
O2507 U2486 2.449 . S
O2507 C2503 1.282 . S
H2508 C2481 0.931 . S
H2509 C2483 0.929 . S
H2510 C2484 0.930 . S
H2511 C2485 0.931 . S
H2512 C2492 0.932 . S
H2513 C2493 0.930 . S
H2514 C2494 0.929 . S
H2515 C2496 0.930 . S
H2516 C2498 0.932 . S
H2517 C2499 0.929 . S
H2518 C2500 0.928 . S
H2519 C2502 0.932 . S
C2520 C2521 1.264 . S
C2520 C2525 1.479 . S
C2520 C2530 1.465 . S
C2521 C2520 1.264 . S
C2521 C2523 1.339 . S
C2521 H2548 0.931 . S
C2522 C2523 1.395 . S
C2522 C2524 1.320 . S
C2523 C2521 1.339 . S
C2523 C2522 1.395 . S
C2523 H2549 0.929 . S
C2524 C2522 1.320 . S
C2524 C2525 1.405 . S
C2524 H2550 0.930 . S
C2525 C2520 1.479 . S
C2525 C2524 1.405 . S
C2525 H2551 0.931 . S
U2526 O2527 2.454 . S
U2526 O2528 2.458 . S
U2526 C2529 2.984 . S
U2526 C2530 2.847 . S
U2526 C2543 2.882 . S
U2526 O2544 2.441 . S
U2526 O2545 2.420 . S
U2526 O2546 2.455 . S
U2526 O2547 2.449 . S
O2527 U2526 2.454 . S
O2527 C2529 1.353 . S
O2528 U2526 2.458 . S
O2528 C2529 1.286 . S
C2529 U2526 2.984 . S
C2529 O2527 1.353 . S
C2529 O2528 1.286 . S
C2529 C2531 1.363 . S
C2530 C2520 1.465 . S
C2530 U2526 2.847 . S
C2530 O2544 1.249 . S
C2530 O2545 1.202 . S
C2531 C2529 1.363 . S
C2531 C2533 1.408 . S
C2531 C2536 1.342 . S
C2532 C2533 1.310 . S
C2532 C2535 1.461 . S
C2532 H2552 0.932 . S
C2533 C2531 1.408 . S
C2533 C2532 1.310 . S
C2533 H2553 0.930 . S
C2534 C2535 1.474 . S
C2534 C2536 1.285 . S
C2534 H2554 0.929 . S
C2535 C2532 1.461 . S
C2535 C2534 1.474 . S
C2536 C2531 1.342 . S
C2536 C2534 1.285 . S
C2536 H2555 0.930 . S
C2537 C2540 1.424 . S
C2537 C2542 1.245 . S
C2537 C2543 1.428 . S
C2538 C2541 1.260 . S
C2538 C2542 1.477 . S
C2538 H2556 0.932 . S
C2539 C2540 1.384 . S
C2539 C2541 1.479 . S
C2539 H2557 0.929 . S
C2540 C2537 1.424 . S
C2540 C2539 1.384 . S
C2540 H2558 0.928 . S
C2541 C2538 1.260 . S
C2541 C2539 1.479 . S
C2542 C2537 1.245 . S
C2542 C2538 1.477 . S
C2542 H2559 0.932 . S
C2543 U2526 2.882 . S
C2543 C2537 1.428 . S
C2543 O2546 1.301 . S
C2543 O2547 1.282 . S
O2544 U2526 2.441 . S
O2544 C2530 1.249 . S
O2545 U2526 2.420 . S
O2545 C2530 1.202 . S
O2546 U2526 2.455 . S
O2546 C2543 1.301 . S
O2547 U2526 2.449 . S
O2547 C2543 1.282 . S
H2548 C2521 0.931 . S
H2549 C2523 0.929 . S
H2550 C2524 0.930 . S
H2551 C2525 0.931 . S
H2552 C2532 0.932 . S
H2553 C2533 0.930 . S
H2554 C2534 0.929 . S
H2555 C2536 0.930 . S
H2556 C2538 0.932 . S
H2557 C2539 0.929 . S
H2558 C2540 0.928 . S
H2559 C2542 0.932 . S
C2560 C2561 1.264 . S
C2560 C2565 1.479 . S
C2560 C2570 1.465 . S
C2561 C2560 1.264 . S
C2561 C2563 1.339 . S
C2561 H2588 0.931 . S
C2562 C2563 1.395 . S
C2562 C2564 1.320 . S
C2563 C2561 1.339 . S
C2563 C2562 1.395 . S
C2563 H2589 0.929 . S
C2564 C2562 1.320 . S
C2564 C2565 1.405 . S
C2564 H2590 0.930 . S
C2565 C2560 1.479 . S
C2565 C2564 1.405 . S
C2565 H2591 0.931 . S
U2566 O2567 2.454 . S
U2566 O2568 2.458 . S
U2566 C2569 2.984 . S
U2566 C2570 2.847 . S
U2566 C2583 2.882 . S
U2566 O2584 2.441 . S
U2566 O2585 2.420 . S
U2566 O2586 2.455 . S
U2566 O2587 2.449 . S
O2567 U2566 2.454 . S
O2567 C2569 1.353 . S
O2568 U2566 2.458 . S
O2568 C2569 1.286 . S
C2569 U2566 2.984 . S
C2569 O2567 1.353 . S
C2569 O2568 1.286 . S
C2569 C2571 1.363 . S
C2570 C2560 1.465 . S
C2570 U2566 2.847 . S
C2570 O2584 1.249 . S
C2570 O2585 1.202 . S
C2571 C2569 1.363 . S
C2571 C2573 1.408 . S
C2571 C2576 1.342 . S
C2572 C2573 1.310 . S
C2572 C2575 1.461 . S
C2572 H2592 0.932 . S
C2573 C2571 1.408 . S
C2573 C2572 1.310 . S
C2573 H2593 0.930 . S
C2574 C2575 1.474 . S
C2574 C2576 1.285 . S
C2574 H2594 0.929 . S
C2575 C2572 1.461 . S
C2575 C2574 1.474 . S
C2576 C2571 1.342 . S
C2576 C2574 1.285 . S
C2576 H2595 0.930 . S
C2577 C2580 1.424 . S
C2577 C2582 1.245 . S
C2577 C2583 1.428 . S
C2578 C2581 1.260 . S
C2578 C2582 1.477 . S
C2578 H2596 0.932 . S
C2579 C2580 1.384 . S
C2579 C2581 1.479 . S
C2579 H2597 0.929 . S
C2580 C2577 1.424 . S
C2580 C2579 1.384 . S
C2580 H2598 0.928 . S
C2581 C2578 1.260 . S
C2581 C2579 1.479 . S
C2582 C2577 1.245 . S
C2582 C2578 1.477 . S
C2582 H2599 0.932 . S
C2583 U2566 2.882 . S
C2583 C2577 1.428 . S
C2583 O2586 1.301 . S
C2583 O2587 1.282 . S
O2584 U2566 2.441 . S
O2584 C2570 1.249 . S
O2585 U2566 2.420 . S
O2585 C2570 1.202 . S
O2586 U2566 2.455 . S
O2586 C2583 1.301 . S
O2587 U2566 2.449 . S
O2587 C2583 1.282 . S
H2588 C2561 0.931 . S
H2589 C2563 0.929 . S
H2590 C2564 0.930 . S
H2591 C2565 0.931 . S
H2592 C2572 0.932 . S
H2593 C2573 0.930 . S
H2594 C2574 0.929 . S
H2595 C2576 0.930 . S
H2596 C2578 0.932 . S
H2597 C2579 0.929 . S
H2598 C2580 0.928 . S
H2599 C2582 0.932 . S
C2600 C2601 1.264 . S
C2600 C2605 1.479 . S
C2600 C2610 1.465 . S
C2601 C2600 1.264 . S
C2601 C2603 1.339 . S
C2601 H2628 0.931 . S
C2602 C2603 1.395 . S
C2602 C2604 1.320 . S
C2603 C2601 1.339 . S
C2603 C2602 1.395 . S
C2603 H2629 0.929 . S
C2604 C2602 1.320 . S
C2604 C2605 1.405 . S
C2604 H2630 0.930 . S
C2605 C2600 1.479 . S
C2605 C2604 1.405 . S
C2605 H2631 0.931 . S
U2606 O2607 2.454 . S
U2606 O2608 2.458 . S
U2606 C2609 2.984 . S
U2606 C2610 2.847 . S
U2606 C2623 2.882 . S
U2606 O2624 2.441 . S
U2606 O2625 2.420 . S
U2606 O2626 2.455 . S
U2606 O2627 2.449 . S
O2607 U2606 2.454 . S
O2607 C2609 1.353 . S
O2608 U2606 2.458 . S
O2608 C2609 1.286 . S
C2609 U2606 2.984 . S
C2609 O2607 1.353 . S
C2609 O2608 1.286 . S
C2609 C2611 1.363 . S
C2610 C2600 1.465 . S
C2610 U2606 2.847 . S
C2610 O2624 1.249 . S
C2610 O2625 1.202 . S
C2611 C2609 1.363 . S
C2611 C2613 1.408 . S
C2611 C2616 1.342 . S
C2612 C2613 1.310 . S
C2612 C2615 1.461 . S
C2612 H2632 0.932 . S
C2613 C2611 1.408 . S
C2613 C2612 1.310 . S
C2613 H2633 0.930 . S
C2614 C2615 1.474 . S
C2614 C2616 1.285 . S
C2614 H2634 0.929 . S
C2615 C2612 1.461 . S
C2615 C2614 1.474 . S
C2616 C2611 1.342 . S
C2616 C2614 1.285 . S
C2616 H2635 0.930 . S
C2617 C2620 1.424 . S
C2617 C2622 1.245 . S
C2617 C2623 1.428 . S
C2618 C2621 1.260 . S
C2618 C2622 1.477 . S
C2618 H2636 0.932 . S
C2619 C2620 1.384 . S
C2619 C2621 1.479 . S
C2619 H2637 0.929 . S
C2620 C2617 1.424 . S
C2620 C2619 1.384 . S
C2620 H2638 0.928 . S
C2621 C2618 1.260 . S
C2621 C2619 1.479 . S
C2622 C2617 1.245 . S
C2622 C2618 1.477 . S
C2622 H2639 0.932 . S
C2623 U2606 2.882 . S
C2623 C2617 1.428 . S
C2623 O2626 1.301 . S
C2623 O2627 1.282 . S
O2624 U2606 2.441 . S
O2624 C2610 1.249 . S
O2625 U2606 2.420 . S
O2625 C2610 1.202 . S
O2626 U2606 2.455 . S
O2626 C2623 1.301 . S
O2627 U2606 2.449 . S
O2627 C2623 1.282 . S
H2628 C2601 0.931 . S
H2629 C2603 0.929 . S
H2630 C2604 0.930 . S
H2631 C2605 0.931 . S
H2632 C2612 0.932 . S
H2633 C2613 0.930 . S
H2634 C2614 0.929 . S
H2635 C2616 0.930 . S
H2636 C2618 0.932 . S
H2637 C2619 0.929 . S
H2638 C2620 0.928 . S
H2639 C2622 0.932 . S
C2640 C2641 1.264 . S
C2640 C2645 1.479 . S
C2640 C2650 1.465 . S
C2641 C2640 1.264 . S
C2641 C2643 1.339 . S
C2641 H2668 0.931 . S
C2642 C2643 1.395 . S
C2642 C2644 1.320 . S
C2643 C2641 1.339 . S
C2643 C2642 1.395 . S
C2643 H2669 0.929 . S
C2644 C2642 1.320 . S
C2644 C2645 1.405 . S
C2644 H2670 0.930 . S
C2645 C2640 1.479 . S
C2645 C2644 1.405 . S
C2645 H2671 0.931 . S
U2646 O2647 2.454 . S
U2646 O2648 2.458 . S
U2646 C2649 2.984 . S
U2646 C2650 2.847 . S
U2646 C2663 2.882 . S
U2646 O2664 2.441 . S
U2646 O2665 2.420 . S
U2646 O2666 2.455 . S
U2646 O2667 2.449 . S
O2647 U2646 2.454 . S
O2647 C2649 1.353 . S
O2648 U2646 2.458 . S
O2648 C2649 1.286 . S
C2649 U2646 2.984 . S
C2649 O2647 1.353 . S
C2649 O2648 1.286 . S
C2649 C2651 1.363 . S
C2650 C2640 1.465 . S
C2650 U2646 2.847 . S
C2650 O2664 1.249 . S
C2650 O2665 1.202 . S
C2651 C2649 1.363 . S
C2651 C2653 1.408 . S
C2651 C2656 1.342 . S
C2652 C2653 1.310 . S
C2652 C2655 1.461 . S
C2652 H2672 0.932 . S
C2653 C2651 1.408 . S
C2653 C2652 1.310 . S
C2653 H2673 0.930 . S
C2654 C2655 1.474 . S
C2654 C2656 1.285 . S
C2654 H2674 0.929 . S
C2655 C2652 1.461 . S
C2655 C2654 1.474 . S
C2656 C2651 1.342 . S
C2656 C2654 1.285 . S
C2656 H2675 0.930 . S
C2657 C2660 1.424 . S
C2657 C2662 1.245 . S
C2657 C2663 1.428 . S
C2658 C2661 1.260 . S
C2658 C2662 1.477 . S
C2658 H2676 0.932 . S
C2659 C2660 1.384 . S
C2659 C2661 1.479 . S
C2659 H2677 0.929 . S
C2660 C2657 1.424 . S
C2660 C2659 1.384 . S
C2660 H2678 0.928 . S
C2661 C2658 1.260 . S
C2661 C2659 1.479 . S
C2662 C2657 1.245 . S
C2662 C2658 1.477 . S
C2662 H2679 0.932 . S
C2663 U2646 2.882 . S
C2663 C2657 1.428 . S
C2663 O2666 1.301 . S
C2663 O2667 1.282 . S
O2664 U2646 2.441 . S
O2664 C2650 1.249 . S
O2665 U2646 2.420 . S
O2665 C2650 1.202 . S
O2666 U2646 2.455 . S
O2666 C2663 1.301 . S
O2667 U2646 2.449 . S
O2667 C2663 1.282 . S
H2668 C2641 0.931 . S
H2669 C2643 0.929 . S
H2670 C2644 0.930 . S
H2671 C2645 0.931 . S
H2672 C2652 0.932 . S
H2673 C2653 0.930 . S
H2674 C2654 0.929 . S
H2675 C2656 0.930 . S
H2676 C2658 0.932 . S
H2677 C2659 0.929 . S
H2678 C2660 0.928 . S
H2679 C2662 0.932 . S
C2680 C2681 1.264 . S
C2680 C2685 1.479 . S
C2680 C2690 1.465 . S
C2681 C2680 1.264 . S
C2681 C2683 1.339 . S
C2681 H2708 0.931 . S
C2682 C2683 1.395 . S
C2682 C2684 1.320 . S
C2683 C2681 1.339 . S
C2683 C2682 1.395 . S
C2683 H2709 0.929 . S
C2684 C2682 1.320 . S
C2684 C2685 1.405 . S
C2684 H2710 0.930 . S
C2685 C2680 1.479 . S
C2685 C2684 1.405 . S
C2685 H2711 0.931 . S
U2686 O2687 2.454 . S
U2686 O2688 2.458 . S
U2686 C2689 2.984 . S
U2686 C2690 2.847 . S
U2686 C2703 2.882 . S
U2686 O2704 2.441 . S
U2686 O2705 2.420 . S
U2686 O2706 2.455 . S
U2686 O2707 2.449 . S
O2687 U2686 2.454 . S
O2687 C2689 1.353 . S
O2688 U2686 2.458 . S
O2688 C2689 1.286 . S
C2689 U2686 2.984 . S
C2689 O2687 1.353 . S
C2689 O2688 1.286 . S
C2689 C2691 1.363 . S
C2690 C2680 1.465 . S
C2690 U2686 2.847 . S
C2690 O2704 1.249 . S
C2690 O2705 1.202 . S
C2691 C2689 1.363 . S
C2691 C2693 1.408 . S
C2691 C2696 1.342 . S
C2692 C2693 1.310 . S
C2692 C2695 1.461 . S
C2692 H2712 0.932 . S
C2693 C2691 1.408 . S
C2693 C2692 1.310 . S
C2693 H2713 0.930 . S
C2694 C2695 1.474 . S
C2694 C2696 1.285 . S
C2694 H2714 0.929 . S
C2695 C2692 1.461 . S
C2695 C2694 1.474 . S
C2696 C2691 1.342 . S
C2696 C2694 1.285 . S
C2696 H2715 0.930 . S
C2697 C2700 1.424 . S
C2697 C2702 1.245 . S
C2697 C2703 1.428 . S
C2698 C2701 1.260 . S
C2698 C2702 1.477 . S
C2698 H2716 0.932 . S
C2699 C2700 1.384 . S
C2699 C2701 1.479 . S
C2699 H2717 0.929 . S
C2700 C2697 1.424 . S
C2700 C2699 1.384 . S
C2700 H2718 0.928 . S
C2701 C2698 1.260 . S
C2701 C2699 1.479 . S
C2702 C2697 1.245 . S
C2702 C2698 1.477 . S
C2702 H2719 0.932 . S
C2703 U2686 2.882 . S
C2703 C2697 1.428 . S
C2703 O2706 1.301 . S
C2703 O2707 1.282 . S
O2704 U2686 2.441 . S
O2704 C2690 1.249 . S
O2705 U2686 2.420 . S
O2705 C2690 1.202 . S
O2706 U2686 2.455 . S
O2706 C2703 1.301 . S
O2707 U2686 2.449 . S
O2707 C2703 1.282 . S
H2708 C2681 0.931 . S
H2709 C2683 0.929 . S
H2710 C2684 0.930 . S
H2711 C2685 0.931 . S
H2712 C2692 0.932 . S
H2713 C2693 0.930 . S
H2714 C2694 0.929 . S
H2715 C2696 0.930 . S
H2716 C2698 0.932 . S
H2717 C2699 0.929 . S
H2718 C2700 0.928 . S
H2719 C2702 0.932 . S
C2720 C2721 1.264 . S
C2720 C2725 1.479 . S
C2720 C2730 1.465 . S
C2721 C2720 1.264 . S
C2721 C2723 1.339 . S
C2721 H2748 0.931 . S
C2722 C2723 1.395 . S
C2722 C2724 1.320 . S
C2723 C2721 1.339 . S
C2723 C2722 1.395 . S
C2723 H2749 0.929 . S
C2724 C2722 1.320 . S
C2724 C2725 1.405 . S
C2724 H2750 0.930 . S
C2725 C2720 1.479 . S
C2725 C2724 1.405 . S
C2725 H2751 0.931 . S
U2726 O2727 2.454 . S
U2726 O2728 2.458 . S
U2726 C2729 2.984 . S
U2726 C2730 2.847 . S
U2726 C2743 2.882 . S
U2726 O2744 2.441 . S
U2726 O2745 2.420 . S
U2726 O2746 2.455 . S
U2726 O2747 2.449 . S
O2727 U2726 2.454 . S
O2727 C2729 1.353 . S
O2728 U2726 2.458 . S
O2728 C2729 1.286 . S
C2729 U2726 2.984 . S
C2729 O2727 1.353 . S
C2729 O2728 1.286 . S
C2729 C2731 1.363 . S
C2730 C2720 1.465 . S
C2730 U2726 2.847 . S
C2730 O2744 1.249 . S
C2730 O2745 1.202 . S
C2731 C2729 1.363 . S
C2731 C2733 1.408 . S
C2731 C2736 1.342 . S
C2732 C2733 1.310 . S
C2732 C2735 1.461 . S
C2732 H2752 0.932 . S
C2733 C2731 1.408 . S
C2733 C2732 1.310 . S
C2733 H2753 0.930 . S
C2734 C2735 1.474 . S
C2734 C2736 1.285 . S
C2734 H2754 0.929 . S
C2735 C2732 1.461 . S
C2735 C2734 1.474 . S
C2736 C2731 1.342 . S
C2736 C2734 1.285 . S
C2736 H2755 0.930 . S
C2737 C2740 1.424 . S
C2737 C2742 1.245 . S
C2737 C2743 1.428 . S
C2738 C2741 1.260 . S
C2738 C2742 1.477 . S
C2738 H2756 0.932 . S
C2739 C2740 1.384 . S
C2739 C2741 1.479 . S
C2739 H2757 0.929 . S
C2740 C2737 1.424 . S
C2740 C2739 1.384 . S
C2740 H2758 0.928 . S
C2741 C2738 1.260 . S
C2741 C2739 1.479 . S
C2742 C2737 1.245 . S
C2742 C2738 1.477 . S
C2742 H2759 0.932 . S
C2743 U2726 2.882 . S
C2743 C2737 1.428 . S
C2743 O2746 1.301 . S
C2743 O2747 1.282 . S
O2744 U2726 2.441 . S
O2744 C2730 1.249 . S
O2745 U2726 2.420 . S
O2745 C2730 1.202 . S
O2746 U2726 2.455 . S
O2746 C2743 1.301 . S
O2747 U2726 2.449 . S
O2747 C2743 1.282 . S
H2748 C2721 0.931 . S
H2749 C2723 0.929 . S
H2750 C2724 0.930 . S
H2751 C2725 0.931 . S
H2752 C2732 0.932 . S
H2753 C2733 0.930 . S
H2754 C2734 0.929 . S
H2755 C2736 0.930 . S
H2756 C2738 0.932 . S
H2757 C2739 0.929 . S
H2758 C2740 0.928 . S
H2759 C2742 0.932 . S
C2760 C2761 1.264 . S
C2760 C2765 1.479 . S
C2760 C2770 1.465 . S
C2761 C2760 1.264 . S
C2761 C2763 1.339 . S
C2761 H2788 0.931 . S
C2762 C2763 1.395 . S
C2762 C2764 1.320 . S
C2763 C2761 1.339 . S
C2763 C2762 1.395 . S
C2763 H2789 0.929 . S
C2764 C2762 1.320 . S
C2764 C2765 1.405 . S
C2764 H2790 0.930 . S
C2765 C2760 1.479 . S
C2765 C2764 1.405 . S
C2765 H2791 0.931 . S
U2766 O2767 2.454 . S
U2766 O2768 2.458 . S
U2766 C2769 2.984 . S
U2766 C2770 2.847 . S
U2766 C2783 2.882 . S
U2766 O2784 2.441 . S
U2766 O2785 2.420 . S
U2766 O2786 2.455 . S
U2766 O2787 2.449 . S
O2767 U2766 2.454 . S
O2767 C2769 1.353 . S
O2768 U2766 2.458 . S
O2768 C2769 1.286 . S
C2769 U2766 2.984 . S
C2769 O2767 1.353 . S
C2769 O2768 1.286 . S
C2769 C2771 1.363 . S
C2770 C2760 1.465 . S
C2770 U2766 2.847 . S
C2770 O2784 1.249 . S
C2770 O2785 1.202 . S
C2771 C2769 1.363 . S
C2771 C2773 1.408 . S
C2771 C2776 1.342 . S
C2772 C2773 1.310 . S
C2772 C2775 1.461 . S
C2772 H2792 0.932 . S
C2773 C2771 1.408 . S
C2773 C2772 1.310 . S
C2773 H2793 0.930 . S
C2774 C2775 1.474 . S
C2774 C2776 1.285 . S
C2774 H2794 0.929 . S
C2775 C2772 1.461 . S
C2775 C2774 1.474 . S
C2776 C2771 1.342 . S
C2776 C2774 1.285 . S
C2776 H2795 0.930 . S
C2777 C2780 1.424 . S
C2777 C2782 1.245 . S
C2777 C2783 1.428 . S
C2778 C2781 1.260 . S
C2778 C2782 1.477 . S
C2778 H2796 0.932 . S
C2779 C2780 1.384 . S
C2779 C2781 1.479 . S
C2779 H2797 0.929 . S
C2780 C2777 1.424 . S
C2780 C2779 1.384 . S
C2780 H2798 0.928 . S
C2781 C2778 1.260 . S
C2781 C2779 1.479 . S
C2782 C2777 1.245 . S
C2782 C2778 1.477 . S
C2782 H2799 0.932 . S
C2783 U2766 2.882 . S
C2783 C2777 1.428 . S
C2783 O2786 1.301 . S
C2783 O2787 1.282 . S
O2784 U2766 2.441 . S
O2784 C2770 1.249 . S
O2785 U2766 2.420 . S
O2785 C2770 1.202 . S
O2786 U2766 2.455 . S
O2786 C2783 1.301 . S
O2787 U2766 2.449 . S
O2787 C2783 1.282 . S
H2788 C2761 0.931 . S
H2789 C2763 0.929 . S
H2790 C2764 0.930 . S
H2791 C2765 0.931 . S
H2792 C2772 0.932 . S
H2793 C2773 0.930 . S
H2794 C2774 0.929 . S
H2795 C2776 0.930 . S
H2796 C2778 0.932 . S
H2797 C2779 0.929 . S
H2798 C2780 0.928 . S
H2799 C2782 0.932 . S
C2800 C2801 1.264 . S
C2800 C2805 1.479 . S
C2800 C2810 1.465 . S
C2801 C2800 1.264 . S
C2801 C2803 1.339 . S
C2801 H2828 0.931 . S
C2802 C2803 1.395 . S
C2802 C2804 1.320 . S
C2803 C2801 1.339 . S
C2803 C2802 1.395 . S
C2803 H2829 0.929 . S
C2804 C2802 1.320 . S
C2804 C2805 1.405 . S
C2804 H2830 0.930 . S
C2805 C2800 1.479 . S
C2805 C2804 1.405 . S
C2805 H2831 0.931 . S
U2806 O2807 2.454 . S
U2806 O2808 2.458 . S
U2806 C2809 2.984 . S
U2806 C2810 2.847 . S
U2806 C2823 2.882 . S
U2806 O2824 2.441 . S
U2806 O2825 2.420 . S
U2806 O2826 2.455 . S
U2806 O2827 2.449 . S
O2807 U2806 2.454 . S
O2807 C2809 1.353 . S
O2808 U2806 2.458 . S
O2808 C2809 1.286 . S
C2809 U2806 2.984 . S
C2809 O2807 1.353 . S
C2809 O2808 1.286 . S
C2809 C2811 1.363 . S
C2810 C2800 1.465 . S
C2810 U2806 2.847 . S
C2810 O2824 1.249 . S
C2810 O2825 1.202 . S
C2811 C2809 1.363 . S
C2811 C2813 1.408 . S
C2811 C2816 1.342 . S
C2812 C2813 1.310 . S
C2812 C2815 1.461 . S
C2812 H2832 0.932 . S
C2813 C2811 1.408 . S
C2813 C2812 1.310 . S
C2813 H2833 0.930 . S
C2814 C2815 1.474 . S
C2814 C2816 1.285 . S
C2814 H2834 0.929 . S
C2815 C2812 1.461 . S
C2815 C2814 1.474 . S
C2816 C2811 1.342 . S
C2816 C2814 1.285 . S
C2816 H2835 0.930 . S
C2817 C2820 1.424 . S
C2817 C2822 1.245 . S
C2817 C2823 1.428 . S
C2818 C2821 1.260 . S
C2818 C2822 1.477 . S
C2818 H2836 0.932 . S
C2819 C2820 1.384 . S
C2819 C2821 1.479 . S
C2819 H2837 0.929 . S
C2820 C2817 1.424 . S
C2820 C2819 1.384 . S
C2820 H2838 0.928 . S
C2821 C2818 1.260 . S
C2821 C2819 1.479 . S
C2822 C2817 1.245 . S
C2822 C2818 1.477 . S
C2822 H2839 0.932 . S
C2823 U2806 2.882 . S
C2823 C2817 1.428 . S
C2823 O2826 1.301 . S
C2823 O2827 1.282 . S
O2824 U2806 2.441 . S
O2824 C2810 1.249 . S
O2825 U2806 2.420 . S
O2825 C2810 1.202 . S
O2826 U2806 2.455 . S
O2826 C2823 1.301 . S
O2827 U2806 2.449 . S
O2827 C2823 1.282 . S
H2828 C2801 0.931 . S
H2829 C2803 0.929 . S
H2830 C2804 0.930 . S
H2831 C2805 0.931 . S
H2832 C2812 0.932 . S
H2833 C2813 0.930 . S
H2834 C2814 0.929 . S
H2835 C2816 0.930 . S
H2836 C2818 0.932 . S
H2837 C2819 0.929 . S
H2838 C2820 0.928 . S
H2839 C2822 0.932 . S
C2840 C2841 1.264 . S
C2840 C2845 1.479 . S
C2840 C2850 1.465 . S
C2841 C2840 1.264 . S
C2841 C2843 1.339 . S
C2841 H2868 0.931 . S
C2842 C2843 1.395 . S
C2842 C2844 1.320 . S
C2843 C2841 1.339 . S
C2843 C2842 1.395 . S
C2843 H2869 0.929 . S
C2844 C2842 1.320 . S
C2844 C2845 1.405 . S
C2844 H2870 0.930 . S
C2845 C2840 1.479 . S
C2845 C2844 1.405 . S
C2845 H2871 0.931 . S
U2846 O2847 2.454 . S
U2846 O2848 2.458 . S
U2846 C2849 2.984 . S
U2846 C2850 2.847 . S
U2846 C2863 2.882 . S
U2846 O2864 2.441 . S
U2846 O2865 2.420 . S
U2846 O2866 2.455 . S
U2846 O2867 2.449 . S
O2847 U2846 2.454 . S
O2847 C2849 1.353 . S
O2848 U2846 2.458 . S
O2848 C2849 1.286 . S
C2849 U2846 2.984 . S
C2849 O2847 1.353 . S
C2849 O2848 1.286 . S
C2849 C2851 1.363 . S
C2850 C2840 1.465 . S
C2850 U2846 2.847 . S
C2850 O2864 1.249 . S
C2850 O2865 1.202 . S
C2851 C2849 1.363 . S
C2851 C2853 1.408 . S
C2851 C2856 1.342 . S
C2852 C2853 1.310 . S
C2852 C2855 1.461 . S
C2852 H2872 0.932 . S
C2853 C2851 1.408 . S
C2853 C2852 1.310 . S
C2853 H2873 0.930 . S
C2854 C2855 1.474 . S
C2854 C2856 1.285 . S
C2854 H2874 0.929 . S
C2855 C2852 1.461 . S
C2855 C2854 1.474 . S
C2856 C2851 1.342 . S
C2856 C2854 1.285 . S
C2856 H2875 0.930 . S
C2857 C2860 1.424 . S
C2857 C2862 1.245 . S
C2857 C2863 1.428 . S
C2858 C2861 1.260 . S
C2858 C2862 1.477 . S
C2858 H2876 0.932 . S
C2859 C2860 1.384 . S
C2859 C2861 1.479 . S
C2859 H2877 0.929 . S
C2860 C2857 1.424 . S
C2860 C2859 1.384 . S
C2860 H2878 0.928 . S
C2861 C2858 1.260 . S
C2861 C2859 1.479 . S
C2862 C2857 1.245 . S
C2862 C2858 1.477 . S
C2862 H2879 0.932 . S
C2863 U2846 2.882 . S
C2863 C2857 1.428 . S
C2863 O2866 1.301 . S
C2863 O2867 1.282 . S
O2864 U2846 2.441 . S
O2864 C2850 1.249 . S
O2865 U2846 2.420 . S
O2865 C2850 1.202 . S
O2866 U2846 2.455 . S
O2866 C2863 1.301 . S
O2867 U2846 2.449 . S
O2867 C2863 1.282 . S
H2868 C2841 0.931 . S
H2869 C2843 0.929 . S
H2870 C2844 0.930 . S
H2871 C2845 0.931 . S
H2872 C2852 0.932 . S
H2873 C2853 0.930 . S
H2874 C2854 0.929 . S
H2875 C2856 0.930 . S
H2876 C2858 0.932 . S
H2877 C2859 0.929 . S
H2878 C2860 0.928 . S
H2879 C2862 0.932 . S
C2880 C2881 1.264 . S
C2880 C2885 1.479 . S
C2880 C2890 1.465 . S
C2881 C2880 1.264 . S
C2881 C2883 1.339 . S
C2881 H2908 0.931 . S
C2882 C2883 1.395 . S
C2882 C2884 1.320 . S
C2883 C2881 1.339 . S
C2883 C2882 1.395 . S
C2883 H2909 0.929 . S
C2884 C2882 1.320 . S
C2884 C2885 1.405 . S
C2884 H2910 0.930 . S
C2885 C2880 1.479 . S
C2885 C2884 1.405 . S
C2885 H2911 0.931 . S
U2886 O2887 2.454 . S
U2886 O2888 2.458 . S
U2886 C2889 2.984 . S
U2886 C2890 2.847 . S
U2886 C2903 2.882 . S
U2886 O2904 2.441 . S
U2886 O2905 2.420 . S
U2886 O2906 2.455 . S
U2886 O2907 2.449 . S
O2887 U2886 2.454 . S
O2887 C2889 1.353 . S
O2888 U2886 2.458 . S
O2888 C2889 1.286 . S
C2889 U2886 2.984 . S
C2889 O2887 1.353 . S
C2889 O2888 1.286 . S
C2889 C2891 1.363 . S
C2890 C2880 1.465 . S
C2890 U2886 2.847 . S
C2890 O2904 1.249 . S
C2890 O2905 1.202 . S
C2891 C2889 1.363 . S
C2891 C2893 1.408 . S
C2891 C2896 1.342 . S
C2892 C2893 1.310 . S
C2892 C2895 1.461 . S
C2892 H2912 0.932 . S
C2893 C2891 1.408 . S
C2893 C2892 1.310 . S
C2893 H2913 0.930 . S
C2894 C2895 1.474 . S
C2894 C2896 1.285 . S
C2894 H2914 0.929 . S
C2895 C2892 1.461 . S
C2895 C2894 1.474 . S
C2896 C2891 1.342 . S
C2896 C2894 1.285 . S
C2896 H2915 0.930 . S
C2897 C2900 1.424 . S
C2897 C2902 1.245 . S
C2897 C2903 1.428 . S
C2898 C2901 1.260 . S
C2898 C2902 1.477 . S
C2898 H2916 0.932 . S
C2899 C2900 1.384 . S
C2899 C2901 1.479 . S
C2899 H2917 0.929 . S
C2900 C2897 1.424 . S
C2900 C2899 1.384 . S
C2900 H2918 0.928 . S
C2901 C2898 1.260 . S
C2901 C2899 1.479 . S
C2902 C2897 1.245 . S
C2902 C2898 1.477 . S
C2902 H2919 0.932 . S
C2903 U2886 2.882 . S
C2903 C2897 1.428 . S
C2903 O2906 1.301 . S
C2903 O2907 1.282 . S
O2904 U2886 2.441 . S
O2904 C2890 1.249 . S
O2905 U2886 2.420 . S
O2905 C2890 1.202 . S
O2906 U2886 2.455 . S
O2906 C2903 1.301 . S
O2907 U2886 2.449 . S
O2907 C2903 1.282 . S
H2908 C2881 0.931 . S
H2909 C2883 0.929 . S
H2910 C2884 0.930 . S
H2911 C2885 0.931 . S
H2912 C2892 0.932 . S
H2913 C2893 0.930 . S
H2914 C2894 0.929 . S
H2915 C2896 0.930 . S
H2916 C2898 0.932 . S
H2917 C2899 0.929 . S
H2918 C2900 0.928 . S
H2919 C2902 0.932 . S
C2920 C2921 1.264 . S
C2920 C2925 1.479 . S
C2920 C2930 1.465 . S
C2921 C2920 1.264 . S
C2921 C2923 1.339 . S
C2921 H2948 0.931 . S
C2922 C2923 1.395 . S
C2922 C2924 1.320 . S
C2923 C2921 1.339 . S
C2923 C2922 1.395 . S
C2923 H2949 0.929 . S
C2924 C2922 1.320 . S
C2924 C2925 1.405 . S
C2924 H2950 0.930 . S
C2925 C2920 1.479 . S
C2925 C2924 1.405 . S
C2925 H2951 0.931 . S
U2926 O2927 2.454 . S
U2926 O2928 2.458 . S
U2926 C2929 2.984 . S
U2926 C2930 2.847 . S
U2926 C2943 2.882 . S
U2926 O2944 2.441 . S
U2926 O2945 2.420 . S
U2926 O2946 2.455 . S
U2926 O2947 2.449 . S
O2927 U2926 2.454 . S
O2927 C2929 1.353 . S
O2928 U2926 2.458 . S
O2928 C2929 1.286 . S
C2929 U2926 2.984 . S
C2929 O2927 1.353 . S
C2929 O2928 1.286 . S
C2929 C2931 1.363 . S
C2930 C2920 1.465 . S
C2930 U2926 2.847 . S
C2930 O2944 1.249 . S
C2930 O2945 1.202 . S
C2931 C2929 1.363 . S
C2931 C2933 1.408 . S
C2931 C2936 1.342 . S
C2932 C2933 1.310 . S
C2932 C2935 1.461 . S
C2932 H2952 0.932 . S
C2933 C2931 1.408 . S
C2933 C2932 1.310 . S
C2933 H2953 0.930 . S
C2934 C2935 1.474 . S
C2934 C2936 1.285 . S
C2934 H2954 0.929 . S
C2935 C2932 1.461 . S
C2935 C2934 1.474 . S
C2936 C2931 1.342 . S
C2936 C2934 1.285 . S
C2936 H2955 0.930 . S
C2937 C2940 1.424 . S
C2937 C2942 1.245 . S
C2937 C2943 1.428 . S
C2938 C2941 1.260 . S
C2938 C2942 1.477 . S
C2938 H2956 0.932 . S
C2939 C2940 1.384 . S
C2939 C2941 1.479 . S
C2939 H2957 0.929 . S
C2940 C2937 1.424 . S
C2940 C2939 1.384 . S
C2940 H2958 0.928 . S
C2941 C2938 1.260 . S
C2941 C2939 1.479 . S
C2942 C2937 1.245 . S
C2942 C2938 1.477 . S
C2942 H2959 0.932 . S
C2943 U2926 2.882 . S
C2943 C2937 1.428 . S
C2943 O2946 1.301 . S
C2943 O2947 1.282 . S
O2944 U2926 2.441 . S
O2944 C2930 1.249 . S
O2945 U2926 2.420 . S
O2945 C2930 1.202 . S
O2946 U2926 2.455 . S
O2946 C2943 1.301 . S
O2947 U2926 2.449 . S
O2947 C2943 1.282 . S
H2948 C2921 0.931 . S
H2949 C2923 0.929 . S
H2950 C2924 0.930 . S
H2951 C2925 0.931 . S
H2952 C2932 0.932 . S
H2953 C2933 0.930 . S
H2954 C2934 0.929 . S
H2955 C2936 0.930 . S
H2956 C2938 0.932 . S
H2957 C2939 0.929 . S
H2958 C2940 0.928 . S
H2959 C2942 0.932 . S
C2960 C2961 1.264 . S
C2960 C2965 1.479 . S
C2960 C2970 1.465 . S
C2961 C2960 1.264 . S
C2961 C2963 1.339 . S
C2961 H2988 0.931 . S
C2962 C2963 1.395 . S
C2962 C2964 1.320 . S
C2963 C2961 1.339 . S
C2963 C2962 1.395 . S
C2963 H2989 0.929 . S
C2964 C2962 1.320 . S
C2964 C2965 1.405 . S
C2964 H2990 0.930 . S
C2965 C2960 1.479 . S
C2965 C2964 1.405 . S
C2965 H2991 0.931 . S
U2966 O2967 2.454 . S
U2966 O2968 2.458 . S
U2966 C2969 2.984 . S
U2966 C2970 2.847 . S
U2966 C2983 2.882 . S
U2966 O2984 2.441 . S
U2966 O2985 2.420 . S
U2966 O2986 2.455 . S
U2966 O2987 2.449 . S
O2967 U2966 2.454 . S
O2967 C2969 1.353 . S
O2968 U2966 2.458 . S
O2968 C2969 1.286 . S
C2969 U2966 2.984 . S
C2969 O2967 1.353 . S
C2969 O2968 1.286 . S
C2969 C2971 1.363 . S
C2970 C2960 1.465 . S
C2970 U2966 2.847 . S
C2970 O2984 1.249 . S
C2970 O2985 1.202 . S
C2971 C2969 1.363 . S
C2971 C2973 1.408 . S
C2971 C2976 1.342 . S
C2972 C2973 1.310 . S
C2972 C2975 1.461 . S
C2972 H2992 0.932 . S
C2973 C2971 1.408 . S
C2973 C2972 1.310 . S
C2973 H2993 0.930 . S
C2974 C2975 1.474 . S
C2974 C2976 1.285 . S
C2974 H2994 0.929 . S
C2975 C2972 1.461 . S
C2975 C2974 1.474 . S
C2976 C2971 1.342 . S
C2976 C2974 1.285 . S
C2976 H2995 0.930 . S
C2977 C2980 1.424 . S
C2977 C2982 1.245 . S
C2977 C2983 1.428 . S
C2978 C2981 1.260 . S
C2978 C2982 1.477 . S
C2978 H2996 0.932 . S
C2979 C2980 1.384 . S
C2979 C2981 1.479 . S
C2979 H2997 0.929 . S
C2980 C2977 1.424 . S
C2980 C2979 1.384 . S
C2980 H2998 0.928 . S
C2981 C2978 1.260 . S
C2981 C2979 1.479 . S
C2982 C2977 1.245 . S
C2982 C2978 1.477 . S
C2982 H2999 0.932 . S
C2983 U2966 2.882 . S
C2983 C2977 1.428 . S
C2983 O2986 1.301 . S
C2983 O2987 1.282 . S
O2984 U2966 2.441 . S
O2984 C2970 1.249 . S
O2985 U2966 2.420 . S
O2985 C2970 1.202 . S
O2986 U2966 2.455 . S
O2986 C2983 1.301 . S
O2987 U2966 2.449 . S
O2987 C2983 1.282 . S
H2988 C2961 0.931 . S
H2989 C2963 0.929 . S
H2990 C2964 0.930 . S
H2991 C2965 0.931 . S
H2992 C2972 0.932 . S
H2993 C2973 0.930 . S
H2994 C2974 0.929 . S
H2995 C2976 0.930 . S
H2996 C2978 0.932 . S
H2997 C2979 0.929 . S
H2998 C2980 0.928 . S
H2999 C2982 0.932 . S
C3000 C3001 1.264 . S
C3000 C3005 1.479 . S
C3000 C3010 1.465 . S
C3001 C3000 1.264 . S
C3001 C3003 1.339 . S
C3001 H3028 0.931 . S
C3002 C3003 1.395 . S
C3002 C3004 1.320 . S
C3003 C3001 1.339 . S
C3003 C3002 1.395 . S
C3003 H3029 0.929 . S
C3004 C3002 1.320 . S
C3004 C3005 1.405 . S
C3004 H3030 0.930 . S
C3005 C3000 1.479 . S
C3005 C3004 1.405 . S
C3005 H3031 0.931 . S
U3006 O3007 2.454 . S
U3006 O3008 2.458 . S
U3006 C3009 2.984 . S
U3006 C3010 2.847 . S
U3006 C3023 2.882 . S
U3006 O3024 2.441 . S
U3006 O3025 2.420 . S
U3006 O3026 2.455 . S
U3006 O3027 2.449 . S
O3007 U3006 2.454 . S
O3007 C3009 1.353 . S
O3008 U3006 2.458 . S
O3008 C3009 1.286 . S
C3009 U3006 2.984 . S
C3009 O3007 1.353 . S
C3009 O3008 1.286 . S
C3009 C3011 1.363 . S
C3010 C3000 1.465 . S
C3010 U3006 2.847 . S
C3010 O3024 1.249 . S
C3010 O3025 1.202 . S
C3011 C3009 1.363 . S
C3011 C3013 1.408 . S
C3011 C3016 1.342 . S
C3012 C3013 1.310 . S
C3012 C3015 1.461 . S
C3012 H3032 0.932 . S
C3013 C3011 1.408 . S
C3013 C3012 1.310 . S
C3013 H3033 0.930 . S
C3014 C3015 1.474 . S
C3014 C3016 1.285 . S
C3014 H3034 0.929 . S
C3015 C3012 1.461 . S
C3015 C3014 1.474 . S
C3016 C3011 1.342 . S
C3016 C3014 1.285 . S
C3016 H3035 0.930 . S
C3017 C3020 1.424 . S
C3017 C3022 1.245 . S
C3017 C3023 1.428 . S
C3018 C3021 1.260 . S
C3018 C3022 1.477 . S
C3018 H3036 0.932 . S
C3019 C3020 1.384 . S
C3019 C3021 1.479 . S
C3019 H3037 0.929 . S
C3020 C3017 1.424 . S
C3020 C3019 1.384 . S
C3020 H3038 0.928 . S
C3021 C3018 1.260 . S
C3021 C3019 1.479 . S
C3022 C3017 1.245 . S
C3022 C3018 1.477 . S
C3022 H3039 0.932 . S
C3023 U3006 2.882 . S
C3023 C3017 1.428 . S
C3023 O3026 1.301 . S
C3023 O3027 1.282 . S
O3024 U3006 2.441 . S
O3024 C3010 1.249 . S
O3025 U3006 2.420 . S
O3025 C3010 1.202 . S
O3026 U3006 2.455 . S
O3026 C3023 1.301 . S
O3027 U3006 2.449 . S
O3027 C3023 1.282 . S
H3028 C3001 0.931 . S
H3029 C3003 0.929 . S
H3030 C3004 0.930 . S
H3031 C3005 0.931 . S
H3032 C3012 0.932 . S
H3033 C3013 0.930 . S
H3034 C3014 0.929 . S
H3035 C3016 0.930 . S
H3036 C3018 0.932 . S
H3037 C3019 0.929 . S
H3038 C3020 0.928 . S
H3039 C3022 0.932 . S
C3040 C3041 1.264 . S
C3040 C3045 1.479 . S
C3040 C3050 1.465 . S
C3041 C3040 1.264 . S
C3041 C3043 1.339 . S
C3041 H3068 0.931 . S
C3042 C3043 1.395 . S
C3042 C3044 1.320 . S
C3043 C3041 1.339 . S
C3043 C3042 1.395 . S
C3043 H3069 0.929 . S
C3044 C3042 1.320 . S
C3044 C3045 1.405 . S
C3044 H3070 0.930 . S
C3045 C3040 1.479 . S
C3045 C3044 1.405 . S
C3045 H3071 0.931 . S
U3046 O3047 2.454 . S
U3046 O3048 2.458 . S
U3046 C3049 2.984 . S
U3046 C3050 2.847 . S
U3046 C3063 2.882 . S
U3046 O3064 2.441 . S
U3046 O3065 2.420 . S
U3046 O3066 2.455 . S
U3046 O3067 2.449 . S
O3047 U3046 2.454 . S
O3047 C3049 1.353 . S
O3048 U3046 2.458 . S
O3048 C3049 1.286 . S
C3049 U3046 2.984 . S
C3049 O3047 1.353 . S
C3049 O3048 1.286 . S
C3049 C3051 1.363 . S
C3050 C3040 1.465 . S
C3050 U3046 2.847 . S
C3050 O3064 1.249 . S
C3050 O3065 1.202 . S
C3051 C3049 1.363 . S
C3051 C3053 1.408 . S
C3051 C3056 1.342 . S
C3052 C3053 1.310 . S
C3052 C3055 1.461 . S
C3052 H3072 0.932 . S
C3053 C3051 1.408 . S
C3053 C3052 1.310 . S
C3053 H3073 0.930 . S
C3054 C3055 1.474 . S
C3054 C3056 1.285 . S
C3054 H3074 0.929 . S
C3055 C3052 1.461 . S
C3055 C3054 1.474 . S
C3056 C3051 1.342 . S
C3056 C3054 1.285 . S
C3056 H3075 0.930 . S
C3057 C3060 1.424 . S
C3057 C3062 1.245 . S
C3057 C3063 1.428 . S
C3058 C3061 1.260 . S
C3058 C3062 1.477 . S
C3058 H3076 0.932 . S
C3059 C3060 1.384 . S
C3059 C3061 1.479 . S
C3059 H3077 0.929 . S
C3060 C3057 1.424 . S
C3060 C3059 1.384 . S
C3060 H3078 0.928 . S
C3061 C3058 1.260 . S
C3061 C3059 1.479 . S
C3062 C3057 1.245 . S
C3062 C3058 1.477 . S
C3062 H3079 0.932 . S
C3063 U3046 2.882 . S
C3063 C3057 1.428 . S
C3063 O3066 1.301 . S
C3063 O3067 1.282 . S
O3064 U3046 2.441 . S
O3064 C3050 1.249 . S
O3065 U3046 2.420 . S
O3065 C3050 1.202 . S
O3066 U3046 2.455 . S
O3066 C3063 1.301 . S
O3067 U3046 2.449 . S
O3067 C3063 1.282 . S
H3068 C3041 0.931 . S
H3069 C3043 0.929 . S
H3070 C3044 0.930 . S
H3071 C3045 0.931 . S
H3072 C3052 0.932 . S
H3073 C3053 0.930 . S
H3074 C3054 0.929 . S
H3075 C3056 0.930 . S
H3076 C3058 0.932 . S
H3077 C3059 0.929 . S
H3078 C3060 0.928 . S
H3079 C3062 0.932 . S
C3080 C3081 1.264 . S
C3080 C3085 1.479 . S
C3080 C3090 1.465 . S
C3081 C3080 1.264 . S
C3081 C3083 1.339 . S
C3081 H3108 0.931 . S
C3082 C3083 1.395 . S
C3082 C3084 1.320 . S
C3083 C3081 1.339 . S
C3083 C3082 1.395 . S
C3083 H3109 0.929 . S
C3084 C3082 1.320 . S
C3084 C3085 1.405 . S
C3084 H3110 0.930 . S
C3085 C3080 1.479 . S
C3085 C3084 1.405 . S
C3085 H3111 0.931 . S
U3086 O3087 2.454 . S
U3086 O3088 2.458 . S
U3086 C3089 2.984 . S
U3086 C3090 2.847 . S
U3086 C3103 2.882 . S
U3086 O3104 2.441 . S
U3086 O3105 2.420 . S
U3086 O3106 2.455 . S
U3086 O3107 2.449 . S
O3087 U3086 2.454 . S
O3087 C3089 1.353 . S
O3088 U3086 2.458 . S
O3088 C3089 1.286 . S
C3089 U3086 2.984 . S
C3089 O3087 1.353 . S
C3089 O3088 1.286 . S
C3089 C3091 1.363 . S
C3090 C3080 1.465 . S
C3090 U3086 2.847 . S
C3090 O3104 1.249 . S
C3090 O3105 1.202 . S
C3091 C3089 1.363 . S
C3091 C3093 1.408 . S
C3091 C3096 1.342 . S
C3092 C3093 1.310 . S
C3092 C3095 1.461 . S
C3092 H3112 0.932 . S
C3093 C3091 1.408 . S
C3093 C3092 1.310 . S
C3093 H3113 0.930 . S
C3094 C3095 1.474 . S
C3094 C3096 1.285 . S
C3094 H3114 0.929 . S
C3095 C3092 1.461 . S
C3095 C3094 1.474 . S
C3096 C3091 1.342 . S
C3096 C3094 1.285 . S
C3096 H3115 0.930 . S
C3097 C3100 1.424 . S
C3097 C3102 1.245 . S
C3097 C3103 1.428 . S
C3098 C3101 1.260 . S
C3098 C3102 1.477 . S
C3098 H3116 0.932 . S
C3099 C3100 1.384 . S
C3099 C3101 1.479 . S
C3099 H3117 0.929 . S
C3100 C3097 1.424 . S
C3100 C3099 1.384 . S
C3100 H3118 0.928 . S
C3101 C3098 1.260 . S
C3101 C3099 1.479 . S
C3102 C3097 1.245 . S
C3102 C3098 1.477 . S
C3102 H3119 0.932 . S
C3103 U3086 2.882 . S
C3103 C3097 1.428 . S
C3103 O3106 1.301 . S
C3103 O3107 1.282 . S
O3104 U3086 2.441 . S
O3104 C3090 1.249 . S
O3105 U3086 2.420 . S
O3105 C3090 1.202 . S
O3106 U3086 2.455 . S
O3106 C3103 1.301 . S
O3107 U3086 2.449 . S
O3107 C3103 1.282 . S
H3108 C3081 0.931 . S
H3109 C3083 0.929 . S
H3110 C3084 0.930 . S
H3111 C3085 0.931 . S
H3112 C3092 0.932 . S
H3113 C3093 0.930 . S
H3114 C3094 0.929 . S
H3115 C3096 0.930 . S
H3116 C3098 0.932 . S
H3117 C3099 0.929 . S
H3118 C3100 0.928 . S
H3119 C3102 0.932 . S
C3120 C3121 1.264 . S
C3120 C3125 1.479 . S
C3120 C3130 1.465 . S
C3121 C3120 1.264 . S
C3121 C3123 1.339 . S
C3121 H3148 0.931 . S
C3122 C3123 1.395 . S
C3122 C3124 1.320 . S
C3123 C3121 1.339 . S
C3123 C3122 1.395 . S
C3123 H3149 0.929 . S
C3124 C3122 1.320 . S
C3124 C3125 1.405 . S
C3124 H3150 0.930 . S
C3125 C3120 1.479 . S
C3125 C3124 1.405 . S
C3125 H3151 0.931 . S
U3126 O3127 2.454 . S
U3126 O3128 2.458 . S
U3126 C3129 2.984 . S
U3126 C3130 2.847 . S
U3126 C3143 2.882 . S
U3126 O3144 2.441 . S
U3126 O3145 2.420 . S
U3126 O3146 2.455 . S
U3126 O3147 2.449 . S
O3127 U3126 2.454 . S
O3127 C3129 1.353 . S
O3128 U3126 2.458 . S
O3128 C3129 1.286 . S
C3129 U3126 2.984 . S
C3129 O3127 1.353 . S
C3129 O3128 1.286 . S
C3129 C3131 1.363 . S
C3130 C3120 1.465 . S
C3130 U3126 2.847 . S
C3130 O3144 1.249 . S
C3130 O3145 1.202 . S
C3131 C3129 1.363 . S
C3131 C3133 1.408 . S
C3131 C3136 1.342 . S
C3132 C3133 1.310 . S
C3132 C3135 1.461 . S
C3132 H3152 0.932 . S
C3133 C3131 1.408 . S
C3133 C3132 1.310 . S
C3133 H3153 0.930 . S
C3134 C3135 1.474 . S
C3134 C3136 1.285 . S
C3134 H3154 0.929 . S
C3135 C3132 1.461 . S
C3135 C3134 1.474 . S
C3136 C3131 1.342 . S
C3136 C3134 1.285 . S
C3136 H3155 0.930 . S
C3137 C3140 1.424 . S
C3137 C3142 1.245 . S
C3137 C3143 1.428 . S
C3138 C3141 1.260 . S
C3138 C3142 1.477 . S
C3138 H3156 0.932 . S
C3139 C3140 1.384 . S
C3139 C3141 1.479 . S
C3139 H3157 0.929 . S
C3140 C3137 1.424 . S
C3140 C3139 1.384 . S
C3140 H3158 0.928 . S
C3141 C3138 1.260 . S
C3141 C3139 1.479 . S
C3142 C3137 1.245 . S
C3142 C3138 1.477 . S
C3142 H3159 0.932 . S
C3143 U3126 2.882 . S
C3143 C3137 1.428 . S
C3143 O3146 1.301 . S
C3143 O3147 1.282 . S
O3144 U3126 2.441 . S
O3144 C3130 1.249 . S
O3145 U3126 2.420 . S
O3145 C3130 1.202 . S
O3146 U3126 2.455 . S
O3146 C3143 1.301 . S
O3147 U3126 2.449 . S
O3147 C3143 1.282 . S
H3148 C3121 0.931 . S
H3149 C3123 0.929 . S
H3150 C3124 0.930 . S
H3151 C3125 0.931 . S
H3152 C3132 0.932 . S
H3153 C3133 0.930 . S
H3154 C3134 0.929 . S
H3155 C3136 0.930 . S
H3156 C3138 0.932 . S
H3157 C3139 0.929 . S
H3158 C3140 0.928 . S
H3159 C3142 0.932 . S
C3160 C3161 1.264 . S
C3160 C3165 1.479 . S
C3160 C3170 1.465 . S
C3161 C3160 1.264 . S
C3161 C3163 1.339 . S
C3161 H3188 0.931 . S
C3162 C3163 1.395 . S
C3162 C3164 1.320 . S
C3163 C3161 1.339 . S
C3163 C3162 1.395 . S
C3163 H3189 0.929 . S
C3164 C3162 1.320 . S
C3164 C3165 1.405 . S
C3164 H3190 0.930 . S
C3165 C3160 1.479 . S
C3165 C3164 1.405 . S
C3165 H3191 0.931 . S
U3166 O3167 2.454 . S
U3166 O3168 2.458 . S
U3166 C3169 2.984 . S
U3166 C3170 2.847 . S
U3166 C3183 2.882 . S
U3166 O3184 2.441 . S
U3166 O3185 2.420 . S
U3166 O3186 2.455 . S
U3166 O3187 2.449 . S
O3167 U3166 2.454 . S
O3167 C3169 1.353 . S
O3168 U3166 2.458 . S
O3168 C3169 1.286 . S
C3169 U3166 2.984 . S
C3169 O3167 1.353 . S
C3169 O3168 1.286 . S
C3169 C3171 1.363 . S
C3170 C3160 1.465 . S
C3170 U3166 2.847 . S
C3170 O3184 1.249 . S
C3170 O3185 1.202 . S
C3171 C3169 1.363 . S
C3171 C3173 1.408 . S
C3171 C3176 1.342 . S
C3172 C3173 1.310 . S
C3172 C3175 1.461 . S
C3172 H3192 0.932 . S
C3173 C3171 1.408 . S
C3173 C3172 1.310 . S
C3173 H3193 0.930 . S
C3174 C3175 1.474 . S
C3174 C3176 1.285 . S
C3174 H3194 0.929 . S
C3175 C3172 1.461 . S
C3175 C3174 1.474 . S
C3176 C3171 1.342 . S
C3176 C3174 1.285 . S
C3176 H3195 0.930 . S
C3177 C3180 1.424 . S
C3177 C3182 1.245 . S
C3177 C3183 1.428 . S
C3178 C3181 1.260 . S
C3178 C3182 1.477 . S
C3178 H3196 0.932 . S
C3179 C3180 1.384 . S
C3179 C3181 1.479 . S
C3179 H3197 0.929 . S
C3180 C3177 1.424 . S
C3180 C3179 1.384 . S
C3180 H3198 0.928 . S
C3181 C3178 1.260 . S
C3181 C3179 1.479 . S
C3182 C3177 1.245 . S
C3182 C3178 1.477 . S
C3182 H3199 0.932 . S
C3183 U3166 2.882 . S
C3183 C3177 1.428 . S
C3183 O3186 1.301 . S
C3183 O3187 1.282 . S
O3184 U3166 2.441 . S
O3184 C3170 1.249 . S
O3185 U3166 2.420 . S
O3185 C3170 1.202 . S
O3186 U3166 2.455 . S
O3186 C3183 1.301 . S
O3187 U3166 2.449 . S
O3187 C3183 1.282 . S
H3188 C3161 0.931 . S
H3189 C3163 0.929 . S
H3190 C3164 0.930 . S
H3191 C3165 0.931 . S
H3192 C3172 0.932 . S
H3193 C3173 0.930 . S
H3194 C3174 0.929 . S
H3195 C3176 0.930 . S
H3196 C3178 0.932 . S
H3197 C3179 0.929 . S
H3198 C3180 0.928 . S
H3199 C3182 0.932 . S
C3200 C3201 1.264 . S
C3200 C3205 1.479 . S
C3200 C3210 1.465 . S
C3201 C3200 1.264 . S
C3201 C3203 1.339 . S
C3201 H3228 0.931 . S
C3202 C3203 1.395 . S
C3202 C3204 1.320 . S
C3203 C3201 1.339 . S
C3203 C3202 1.395 . S
C3203 H3229 0.929 . S
C3204 C3202 1.320 . S
C3204 C3205 1.405 . S
C3204 H3230 0.930 . S
C3205 C3200 1.479 . S
C3205 C3204 1.405 . S
C3205 H3231 0.931 . S
U3206 O3207 2.454 . S
U3206 O3208 2.458 . S
U3206 C3209 2.984 . S
U3206 C3210 2.847 . S
U3206 C3223 2.882 . S
U3206 O3224 2.441 . S
U3206 O3225 2.420 . S
U3206 O3226 2.455 . S
U3206 O3227 2.449 . S
O3207 U3206 2.454 . S
O3207 C3209 1.353 . S
O3208 U3206 2.458 . S
O3208 C3209 1.286 . S
C3209 U3206 2.984 . S
C3209 O3207 1.353 . S
C3209 O3208 1.286 . S
C3209 C3211 1.363 . S
C3210 C3200 1.465 . S
C3210 U3206 2.847 . S
C3210 O3224 1.249 . S
C3210 O3225 1.202 . S
C3211 C3209 1.363 . S
C3211 C3213 1.408 . S
C3211 C3216 1.342 . S
C3212 C3213 1.310 . S
C3212 C3215 1.461 . S
C3212 H3232 0.932 . S
C3213 C3211 1.408 . S
C3213 C3212 1.310 . S
C3213 H3233 0.930 . S
C3214 C3215 1.474 . S
C3214 C3216 1.285 . S
C3214 H3234 0.929 . S
C3215 C3212 1.461 . S
C3215 C3214 1.474 . S
C3216 C3211 1.342 . S
C3216 C3214 1.285 . S
C3216 H3235 0.930 . S
C3217 C3220 1.424 . S
C3217 C3222 1.245 . S
C3217 C3223 1.428 . S
C3218 C3221 1.260 . S
C3218 C3222 1.477 . S
C3218 H3236 0.932 . S
C3219 C3220 1.384 . S
C3219 C3221 1.479 . S
C3219 H3237 0.929 . S
C3220 C3217 1.424 . S
C3220 C3219 1.384 . S
C3220 H3238 0.928 . S
C3221 C3218 1.260 . S
C3221 C3219 1.479 . S
C3222 C3217 1.245 . S
C3222 C3218 1.477 . S
C3222 H3239 0.932 . S
C3223 U3206 2.882 . S
C3223 C3217 1.428 . S
C3223 O3226 1.301 . S
C3223 O3227 1.282 . S
O3224 U3206 2.441 . S
O3224 C3210 1.249 . S
O3225 U3206 2.420 . S
O3225 C3210 1.202 . S
O3226 U3206 2.455 . S
O3226 C3223 1.301 . S
O3227 U3206 2.449 . S
O3227 C3223 1.282 . S
H3228 C3201 0.931 . S
H3229 C3203 0.929 . S
H3230 C3204 0.930 . S
H3231 C3205 0.931 . S
H3232 C3212 0.932 . S
H3233 C3213 0.930 . S
H3234 C3214 0.929 . S
H3235 C3216 0.930 . S
H3236 C3218 0.932 . S
H3237 C3219 0.929 . S
H3238 C3220 0.928 . S
H3239 C3222 0.932 . S
C3240 C3241 1.264 . S
C3240 C3245 1.479 . S
C3240 C3250 1.465 . S
C3241 C3240 1.264 . S
C3241 C3243 1.339 . S
C3241 H3268 0.931 . S
C3242 C3243 1.395 . S
C3242 C3244 1.320 . S
C3243 C3241 1.339 . S
C3243 C3242 1.395 . S
C3243 H3269 0.929 . S
C3244 C3242 1.320 . S
C3244 C3245 1.405 . S
C3244 H3270 0.930 . S
C3245 C3240 1.479 . S
C3245 C3244 1.405 . S
C3245 H3271 0.931 . S
U3246 O3247 2.454 . S
U3246 O3248 2.458 . S
U3246 C3249 2.984 . S
U3246 C3250 2.847 . S
U3246 C3263 2.882 . S
U3246 O3264 2.441 . S
U3246 O3265 2.420 . S
U3246 O3266 2.455 . S
U3246 O3267 2.449 . S
O3247 U3246 2.454 . S
O3247 C3249 1.353 . S
O3248 U3246 2.458 . S
O3248 C3249 1.286 . S
C3249 U3246 2.984 . S
C3249 O3247 1.353 . S
C3249 O3248 1.286 . S
C3249 C3251 1.363 . S
C3250 C3240 1.465 . S
C3250 U3246 2.847 . S
C3250 O3264 1.249 . S
C3250 O3265 1.202 . S
C3251 C3249 1.363 . S
C3251 C3253 1.408 . S
C3251 C3256 1.342 . S
C3252 C3253 1.310 . S
C3252 C3255 1.461 . S
C3252 H3272 0.932 . S
C3253 C3251 1.408 . S
C3253 C3252 1.310 . S
C3253 H3273 0.930 . S
C3254 C3255 1.474 . S
C3254 C3256 1.285 . S
C3254 H3274 0.929 . S
C3255 C3252 1.461 . S
C3255 C3254 1.474 . S
C3256 C3251 1.342 . S
C3256 C3254 1.285 . S
C3256 H3275 0.930 . S
C3257 C3260 1.424 . S
C3257 C3262 1.245 . S
C3257 C3263 1.428 . S
C3258 C3261 1.260 . S
C3258 C3262 1.477 . S
C3258 H3276 0.932 . S
C3259 C3260 1.384 . S
C3259 C3261 1.479 . S
C3259 H3277 0.929 . S
C3260 C3257 1.424 . S
C3260 C3259 1.384 . S
C3260 H3278 0.928 . S
C3261 C3258 1.260 . S
C3261 C3259 1.479 . S
C3262 C3257 1.245 . S
C3262 C3258 1.477 . S
C3262 H3279 0.932 . S
C3263 U3246 2.882 . S
C3263 C3257 1.428 . S
C3263 O3266 1.301 . S
C3263 O3267 1.282 . S
O3264 U3246 2.441 . S
O3264 C3250 1.249 . S
O3265 U3246 2.420 . S
O3265 C3250 1.202 . S
O3266 U3246 2.455 . S
O3266 C3263 1.301 . S
O3267 U3246 2.449 . S
O3267 C3263 1.282 . S
H3268 C3241 0.931 . S
H3269 C3243 0.929 . S
H3270 C3244 0.930 . S
H3271 C3245 0.931 . S
H3272 C3252 0.932 . S
H3273 C3253 0.930 . S
H3274 C3254 0.929 . S
H3275 C3256 0.930 . S
H3276 C3258 0.932 . S
H3277 C3259 0.929 . S
H3278 C3260 0.928 . S
H3279 C3262 0.932 . S
C3280 C3281 1.264 . S
C3280 C3285 1.479 . S
C3280 C3290 1.465 . S
C3281 C3280 1.264 . S
C3281 C3283 1.339 . S
C3281 H3308 0.931 . S
C3282 C3283 1.395 . S
C3282 C3284 1.320 . S
C3283 C3281 1.339 . S
C3283 C3282 1.395 . S
C3283 H3309 0.929 . S
C3284 C3282 1.320 . S
C3284 C3285 1.405 . S
C3284 H3310 0.930 . S
C3285 C3280 1.479 . S
C3285 C3284 1.405 . S
C3285 H3311 0.931 . S
U3286 O3287 2.454 . S
U3286 O3288 2.458 . S
U3286 C3289 2.984 . S
U3286 C3290 2.847 . S
U3286 C3303 2.882 . S
U3286 O3304 2.441 . S
U3286 O3305 2.420 . S
U3286 O3306 2.455 . S
U3286 O3307 2.449 . S
O3287 U3286 2.454 . S
O3287 C3289 1.353 . S
O3288 U3286 2.458 . S
O3288 C3289 1.286 . S
C3289 U3286 2.984 . S
C3289 O3287 1.353 . S
C3289 O3288 1.286 . S
C3289 C3291 1.363 . S
C3290 C3280 1.465 . S
C3290 U3286 2.847 . S
C3290 O3304 1.249 . S
C3290 O3305 1.202 . S
C3291 C3289 1.363 . S
C3291 C3293 1.408 . S
C3291 C3296 1.342 . S
C3292 C3293 1.310 . S
C3292 C3295 1.461 . S
C3292 H3312 0.932 . S
C3293 C3291 1.408 . S
C3293 C3292 1.310 . S
C3293 H3313 0.930 . S
C3294 C3295 1.474 . S
C3294 C3296 1.285 . S
C3294 H3314 0.929 . S
C3295 C3292 1.461 . S
C3295 C3294 1.474 . S
C3296 C3291 1.342 . S
C3296 C3294 1.285 . S
C3296 H3315 0.930 . S
C3297 C3300 1.424 . S
C3297 C3302 1.245 . S
C3297 C3303 1.428 . S
C3298 C3301 1.260 . S
C3298 C3302 1.477 . S
C3298 H3316 0.932 . S
C3299 C3300 1.384 . S
C3299 C3301 1.479 . S
C3299 H3317 0.929 . S
C3300 C3297 1.424 . S
C3300 C3299 1.384 . S
C3300 H3318 0.928 . S
C3301 C3298 1.260 . S
C3301 C3299 1.479 . S
C3302 C3297 1.245 . S
C3302 C3298 1.477 . S
C3302 H3319 0.932 . S
C3303 U3286 2.882 . S
C3303 C3297 1.428 . S
C3303 O3306 1.301 . S
C3303 O3307 1.282 . S
O3304 U3286 2.441 . S
O3304 C3290 1.249 . S
O3305 U3286 2.420 . S
O3305 C3290 1.202 . S
O3306 U3286 2.455 . S
O3306 C3303 1.301 . S
O3307 U3286 2.449 . S
O3307 C3303 1.282 . S
H3308 C3281 0.931 . S
H3309 C3283 0.929 . S
H3310 C3284 0.930 . S
H3311 C3285 0.931 . S
H3312 C3292 0.932 . S
H3313 C3293 0.930 . S
H3314 C3294 0.929 . S
H3315 C3296 0.930 . S
H3316 C3298 0.932 . S
H3317 C3299 0.929 . S
H3318 C3300 0.928 . S
H3319 C3302 0.932 . S
C3320 C3321 1.264 . S
C3320 C3325 1.479 . S
C3320 C3330 1.465 . S
C3321 C3320 1.264 . S
C3321 C3323 1.339 . S
C3321 H3348 0.931 . S
C3322 C3323 1.395 . S
C3322 C3324 1.320 . S
C3323 C3321 1.339 . S
C3323 C3322 1.395 . S
C3323 H3349 0.929 . S
C3324 C3322 1.320 . S
C3324 C3325 1.405 . S
C3324 H3350 0.930 . S
C3325 C3320 1.479 . S
C3325 C3324 1.405 . S
C3325 H3351 0.931 . S
U3326 O3327 2.454 . S
U3326 O3328 2.458 . S
U3326 C3329 2.984 . S
U3326 C3330 2.847 . S
U3326 C3343 2.882 . S
U3326 O3344 2.441 . S
U3326 O3345 2.420 . S
U3326 O3346 2.455 . S
U3326 O3347 2.449 . S
O3327 U3326 2.454 . S
O3327 C3329 1.353 . S
O3328 U3326 2.458 . S
O3328 C3329 1.286 . S
C3329 U3326 2.984 . S
C3329 O3327 1.353 . S
C3329 O3328 1.286 . S
C3329 C3331 1.363 . S
C3330 C3320 1.465 . S
C3330 U3326 2.847 . S
C3330 O3344 1.249 . S
C3330 O3345 1.202 . S
C3331 C3329 1.363 . S
C3331 C3333 1.408 . S
C3331 C3336 1.342 . S
C3332 C3333 1.310 . S
C3332 C3335 1.461 . S
C3332 H3352 0.932 . S
C3333 C3331 1.408 . S
C3333 C3332 1.310 . S
C3333 H3353 0.930 . S
C3334 C3335 1.474 . S
C3334 C3336 1.285 . S
C3334 H3354 0.929 . S
C3335 C3332 1.461 . S
C3335 C3334 1.474 . S
C3336 C3331 1.342 . S
C3336 C3334 1.285 . S
C3336 H3355 0.930 . S
C3337 C3340 1.424 . S
C3337 C3342 1.245 . S
C3337 C3343 1.428 . S
C3338 C3341 1.260 . S
C3338 C3342 1.477 . S
C3338 H3356 0.932 . S
C3339 C3340 1.384 . S
C3339 C3341 1.479 . S
C3339 H3357 0.929 . S
C3340 C3337 1.424 . S
C3340 C3339 1.384 . S
C3340 H3358 0.928 . S
C3341 C3338 1.260 . S
C3341 C3339 1.479 . S
C3342 C3337 1.245 . S
C3342 C3338 1.477 . S
C3342 H3359 0.932 . S
C3343 U3326 2.882 . S
C3343 C3337 1.428 . S
C3343 O3346 1.301 . S
C3343 O3347 1.282 . S
O3344 U3326 2.441 . S
O3344 C3330 1.249 . S
O3345 U3326 2.420 . S
O3345 C3330 1.202 . S
O3346 U3326 2.455 . S
O3346 C3343 1.301 . S
O3347 U3326 2.449 . S
O3347 C3343 1.282 . S
H3348 C3321 0.931 . S
H3349 C3323 0.929 . S
H3350 C3324 0.930 . S
H3351 C3325 0.931 . S
H3352 C3332 0.932 . S
H3353 C3333 0.930 . S
H3354 C3334 0.929 . S
H3355 C3336 0.930 . S
H3356 C3338 0.932 . S
H3357 C3339 0.929 . S
H3358 C3340 0.928 . S
H3359 C3342 0.932 . S
C3360 C3361 1.264 . S
C3360 C3365 1.479 . S
C3360 C3370 1.465 . S
C3361 C3360 1.264 . S
C3361 C3363 1.339 . S
C3361 H3388 0.931 . S
C3362 C3363 1.395 . S
C3362 C3364 1.320 . S
C3363 C3361 1.339 . S
C3363 C3362 1.395 . S
C3363 H3389 0.929 . S
C3364 C3362 1.320 . S
C3364 C3365 1.405 . S
C3364 H3390 0.930 . S
C3365 C3360 1.479 . S
C3365 C3364 1.405 . S
C3365 H3391 0.931 . S
U3366 O3367 2.454 . S
U3366 O3368 2.458 . S
U3366 C3369 2.984 . S
U3366 C3370 2.847 . S
U3366 C3383 2.882 . S
U3366 O3384 2.441 . S
U3366 O3385 2.420 . S
U3366 O3386 2.455 . S
U3366 O3387 2.449 . S
O3367 U3366 2.454 . S
O3367 C3369 1.353 . S
O3368 U3366 2.458 . S
O3368 C3369 1.286 . S
C3369 U3366 2.984 . S
C3369 O3367 1.353 . S
C3369 O3368 1.286 . S
C3369 C3371 1.363 . S
C3370 C3360 1.465 . S
C3370 U3366 2.847 . S
C3370 O3384 1.249 . S
C3370 O3385 1.202 . S
C3371 C3369 1.363 . S
C3371 C3373 1.408 . S
C3371 C3376 1.342 . S
C3372 C3373 1.310 . S
C3372 C3375 1.461 . S
C3372 H3392 0.932 . S
C3373 C3371 1.408 . S
C3373 C3372 1.310 . S
C3373 H3393 0.930 . S
C3374 C3375 1.474 . S
C3374 C3376 1.285 . S
C3374 H3394 0.929 . S
C3375 C3372 1.461 . S
C3375 C3374 1.474 . S
C3376 C3371 1.342 . S
C3376 C3374 1.285 . S
C3376 H3395 0.930 . S
C3377 C3380 1.424 . S
C3377 C3382 1.245 . S
C3377 C3383 1.428 . S
C3378 C3381 1.260 . S
C3378 C3382 1.477 . S
C3378 H3396 0.932 . S
C3379 C3380 1.384 . S
C3379 C3381 1.479 . S
C3379 H3397 0.929 . S
C3380 C3377 1.424 . S
C3380 C3379 1.384 . S
C3380 H3398 0.928 . S
C3381 C3378 1.260 . S
C3381 C3379 1.479 . S
C3382 C3377 1.245 . S
C3382 C3378 1.477 . S
C3382 H3399 0.932 . S
C3383 U3366 2.882 . S
C3383 C3377 1.428 . S
C3383 O3386 1.301 . S
C3383 O3387 1.282 . S
O3384 U3366 2.441 . S
O3384 C3370 1.249 . S
O3385 U3366 2.420 . S
O3385 C3370 1.202 . S
O3386 U3366 2.455 . S
O3386 C3383 1.301 . S
O3387 U3366 2.449 . S
O3387 C3383 1.282 . S
H3388 C3361 0.931 . S
H3389 C3363 0.929 . S
H3390 C3364 0.930 . S
H3391 C3365 0.931 . S
H3392 C3372 0.932 . S
H3393 C3373 0.930 . S
H3394 C3374 0.929 . S
H3395 C3376 0.930 . S
H3396 C3378 0.932 . S
H3397 C3379 0.929 . S
H3398 C3380 0.928 . S
H3399 C3382 0.932 . S
C3400 C3401 1.264 . S
C3400 C3405 1.479 . S
C3400 C3410 1.465 . S
C3401 C3400 1.264 . S
C3401 C3403 1.339 . S
C3401 H3428 0.931 . S
C3402 C3403 1.395 . S
C3402 C3404 1.320 . S
C3403 C3401 1.339 . S
C3403 C3402 1.395 . S
C3403 H3429 0.929 . S
C3404 C3402 1.320 . S
C3404 C3405 1.405 . S
C3404 H3430 0.930 . S
C3405 C3400 1.479 . S
C3405 C3404 1.405 . S
C3405 H3431 0.931 . S
U3406 O3407 2.454 . S
U3406 O3408 2.458 . S
U3406 C3409 2.984 . S
U3406 C3410 2.847 . S
U3406 C3423 2.882 . S
U3406 O3424 2.441 . S
U3406 O3425 2.420 . S
U3406 O3426 2.455 . S
U3406 O3427 2.449 . S
O3407 U3406 2.454 . S
O3407 C3409 1.353 . S
O3408 U3406 2.458 . S
O3408 C3409 1.286 . S
C3409 U3406 2.984 . S
C3409 O3407 1.353 . S
C3409 O3408 1.286 . S
C3409 C3411 1.363 . S
C3410 C3400 1.465 . S
C3410 U3406 2.847 . S
C3410 O3424 1.249 . S
C3410 O3425 1.202 . S
C3411 C3409 1.363 . S
C3411 C3413 1.408 . S
C3411 C3416 1.342 . S
C3412 C3413 1.310 . S
C3412 C3415 1.461 . S
C3412 H3432 0.932 . S
C3413 C3411 1.408 . S
C3413 C3412 1.310 . S
C3413 H3433 0.930 . S
C3414 C3415 1.474 . S
C3414 C3416 1.285 . S
C3414 H3434 0.929 . S
C3415 C3412 1.461 . S
C3415 C3414 1.474 . S
C3416 C3411 1.342 . S
C3416 C3414 1.285 . S
C3416 H3435 0.930 . S
C3417 C3420 1.424 . S
C3417 C3422 1.245 . S
C3417 C3423 1.428 . S
C3418 C3421 1.260 . S
C3418 C3422 1.477 . S
C3418 H3436 0.932 . S
C3419 C3420 1.384 . S
C3419 C3421 1.479 . S
C3419 H3437 0.929 . S
C3420 C3417 1.424 . S
C3420 C3419 1.384 . S
C3420 H3438 0.928 . S
C3421 C3418 1.260 . S
C3421 C3419 1.479 . S
C3422 C3417 1.245 . S
C3422 C3418 1.477 . S
C3422 H3439 0.932 . S
C3423 U3406 2.882 . S
C3423 C3417 1.428 . S
C3423 O3426 1.301 . S
C3423 O3427 1.282 . S
O3424 U3406 2.441 . S
O3424 C3410 1.249 . S
O3425 U3406 2.420 . S
O3425 C3410 1.202 . S
O3426 U3406 2.455 . S
O3426 C3423 1.301 . S
O3427 U3406 2.449 . S
O3427 C3423 1.282 . S
H3428 C3401 0.931 . S
H3429 C3403 0.929 . S
H3430 C3404 0.930 . S
H3431 C3405 0.931 . S
H3432 C3412 0.932 . S
H3433 C3413 0.930 . S
H3434 C3414 0.929 . S
H3435 C3416 0.930 . S
H3436 C3418 0.932 . S
H3437 C3419 0.929 . S
H3438 C3420 0.928 . S
H3439 C3422 0.932 . S
C3440 C3441 1.264 . S
C3440 C3445 1.479 . S
C3440 C3450 1.465 . S
C3441 C3440 1.264 . S
C3441 C3443 1.339 . S
C3441 H3468 0.931 . S
C3442 C3443 1.395 . S
C3442 C3444 1.320 . S
C3443 C3441 1.339 . S
C3443 C3442 1.395 . S
C3443 H3469 0.929 . S
C3444 C3442 1.320 . S
C3444 C3445 1.405 . S
C3444 H3470 0.930 . S
C3445 C3440 1.479 . S
C3445 C3444 1.405 . S
C3445 H3471 0.931 . S
U3446 O3447 2.454 . S
U3446 O3448 2.458 . S
U3446 C3449 2.984 . S
U3446 C3450 2.847 . S
U3446 C3463 2.882 . S
U3446 O3464 2.441 . S
U3446 O3465 2.420 . S
U3446 O3466 2.455 . S
U3446 O3467 2.449 . S
O3447 U3446 2.454 . S
O3447 C3449 1.353 . S
O3448 U3446 2.458 . S
O3448 C3449 1.286 . S
C3449 U3446 2.984 . S
C3449 O3447 1.353 . S
C3449 O3448 1.286 . S
C3449 C3451 1.363 . S
C3450 C3440 1.465 . S
C3450 U3446 2.847 . S
C3450 O3464 1.249 . S
C3450 O3465 1.202 . S
C3451 C3449 1.363 . S
C3451 C3453 1.408 . S
C3451 C3456 1.342 . S
C3452 C3453 1.310 . S
C3452 C3455 1.461 . S
C3452 H3472 0.932 . S
C3453 C3451 1.408 . S
C3453 C3452 1.310 . S
C3453 H3473 0.930 . S
C3454 C3455 1.474 . S
C3454 C3456 1.285 . S
C3454 H3474 0.929 . S
C3455 C3452 1.461 . S
C3455 C3454 1.474 . S
C3456 C3451 1.342 . S
C3456 C3454 1.285 . S
C3456 H3475 0.930 . S
C3457 C3460 1.424 . S
C3457 C3462 1.245 . S
C3457 C3463 1.428 . S
C3458 C3461 1.260 . S
C3458 C3462 1.477 . S
C3458 H3476 0.932 . S
C3459 C3460 1.384 . S
C3459 C3461 1.479 . S
C3459 H3477 0.929 . S
C3460 C3457 1.424 . S
C3460 C3459 1.384 . S
C3460 H3478 0.928 . S
C3461 C3458 1.260 . S
C3461 C3459 1.479 . S
C3462 C3457 1.245 . S
C3462 C3458 1.477 . S
C3462 H3479 0.932 . S
C3463 U3446 2.882 . S
C3463 C3457 1.428 . S
C3463 O3466 1.301 . S
C3463 O3467 1.282 . S
O3464 U3446 2.441 . S
O3464 C3450 1.249 . S
O3465 U3446 2.420 . S
O3465 C3450 1.202 . S
O3466 U3446 2.455 . S
O3466 C3463 1.301 . S
O3467 U3446 2.449 . S
O3467 C3463 1.282 . S
H3468 C3441 0.931 . S
H3469 C3443 0.929 . S
H3470 C3444 0.930 . S
H3471 C3445 0.931 . S
H3472 C3452 0.932 . S
H3473 C3453 0.930 . S
H3474 C3454 0.929 . S
H3475 C3456 0.930 . S
H3476 C3458 0.932 . S
H3477 C3459 0.929 . S
H3478 C3460 0.928 . S
H3479 C3462 0.932 . S
C3480 C3481 1.264 . S
C3480 C3485 1.479 . S
C3480 C3490 1.465 . S
C3481 C3480 1.264 . S
C3481 C3483 1.339 . S
C3481 H3508 0.931 . S
C3482 C3483 1.395 . S
C3482 C3484 1.320 . S
C3483 C3481 1.339 . S
C3483 C3482 1.395 . S
C3483 H3509 0.929 . S
C3484 C3482 1.320 . S
C3484 C3485 1.405 . S
C3484 H3510 0.930 . S
C3485 C3480 1.479 . S
C3485 C3484 1.405 . S
C3485 H3511 0.931 . S
U3486 O3487 2.454 . S
U3486 O3488 2.458 . S
U3486 C3489 2.984 . S
U3486 C3490 2.847 . S
U3486 C3503 2.882 . S
U3486 O3504 2.441 . S
U3486 O3505 2.420 . S
U3486 O3506 2.455 . S
U3486 O3507 2.449 . S
O3487 U3486 2.454 . S
O3487 C3489 1.353 . S
O3488 U3486 2.458 . S
O3488 C3489 1.286 . S
C3489 U3486 2.984 . S
C3489 O3487 1.353 . S
C3489 O3488 1.286 . S
C3489 C3491 1.363 . S
C3490 C3480 1.465 . S
C3490 U3486 2.847 . S
C3490 O3504 1.249 . S
C3490 O3505 1.202 . S
C3491 C3489 1.363 . S
C3491 C3493 1.408 . S
C3491 C3496 1.342 . S
C3492 C3493 1.310 . S
C3492 C3495 1.461 . S
C3492 H3512 0.932 . S
C3493 C3491 1.408 . S
C3493 C3492 1.310 . S
C3493 H3513 0.930 . S
C3494 C3495 1.474 . S
C3494 C3496 1.285 . S
C3494 H3514 0.929 . S
C3495 C3492 1.461 . S
C3495 C3494 1.474 . S
C3496 C3491 1.342 . S
C3496 C3494 1.285 . S
C3496 H3515 0.930 . S
C3497 C3500 1.424 . S
C3497 C3502 1.245 . S
C3497 C3503 1.428 . S
C3498 C3501 1.260 . S
C3498 C3502 1.477 . S
C3498 H3516 0.932 . S
C3499 C3500 1.384 . S
C3499 C3501 1.479 . S
C3499 H3517 0.929 . S
C3500 C3497 1.424 . S
C3500 C3499 1.384 . S
C3500 H3518 0.928 . S
C3501 C3498 1.260 . S
C3501 C3499 1.479 . S
C3502 C3497 1.245 . S
C3502 C3498 1.477 . S
C3502 H3519 0.932 . S
C3503 U3486 2.882 . S
C3503 C3497 1.428 . S
C3503 O3506 1.301 . S
C3503 O3507 1.282 . S
O3504 U3486 2.441 . S
O3504 C3490 1.249 . S
O3505 U3486 2.420 . S
O3505 C3490 1.202 . S
O3506 U3486 2.455 . S
O3506 C3503 1.301 . S
O3507 U3486 2.449 . S
O3507 C3503 1.282 . S
H3508 C3481 0.931 . S
H3509 C3483 0.929 . S
H3510 C3484 0.930 . S
H3511 C3485 0.931 . S
H3512 C3492 0.932 . S
H3513 C3493 0.930 . S
H3514 C3494 0.929 . S
H3515 C3496 0.930 . S
H3516 C3498 0.932 . S
H3517 C3499 0.929 . S
H3518 C3500 0.928 . S
H3519 C3502 0.932 . S
C3520 C3521 1.264 . S
C3520 C3525 1.479 . S
C3520 C3530 1.465 . S
C3521 C3520 1.264 . S
C3521 C3523 1.339 . S
C3521 H3548 0.931 . S
C3522 C3523 1.395 . S
C3522 C3524 1.320 . S
C3523 C3521 1.339 . S
C3523 C3522 1.395 . S
C3523 H3549 0.929 . S
C3524 C3522 1.320 . S
C3524 C3525 1.405 . S
C3524 H3550 0.930 . S
C3525 C3520 1.479 . S
C3525 C3524 1.405 . S
C3525 H3551 0.931 . S
U3526 O3527 2.454 . S
U3526 O3528 2.458 . S
U3526 C3529 2.984 . S
U3526 C3530 2.847 . S
U3526 C3543 2.882 . S
U3526 O3544 2.441 . S
U3526 O3545 2.420 . S
U3526 O3546 2.455 . S
U3526 O3547 2.449 . S
O3527 U3526 2.454 . S
O3527 C3529 1.353 . S
O3528 U3526 2.458 . S
O3528 C3529 1.286 . S
C3529 U3526 2.984 . S
C3529 O3527 1.353 . S
C3529 O3528 1.286 . S
C3529 C3531 1.363 . S
C3530 C3520 1.465 . S
C3530 U3526 2.847 . S
C3530 O3544 1.249 . S
C3530 O3545 1.202 . S
C3531 C3529 1.363 . S
C3531 C3533 1.408 . S
C3531 C3536 1.342 . S
C3532 C3533 1.310 . S
C3532 C3535 1.461 . S
C3532 H3552 0.932 . S
C3533 C3531 1.408 . S
C3533 C3532 1.310 . S
C3533 H3553 0.930 . S
C3534 C3535 1.474 . S
C3534 C3536 1.285 . S
C3534 H3554 0.929 . S
C3535 C3532 1.461 . S
C3535 C3534 1.474 . S
C3536 C3531 1.342 . S
C3536 C3534 1.285 . S
C3536 H3555 0.930 . S
C3537 C3540 1.424 . S
C3537 C3542 1.245 . S
C3537 C3543 1.428 . S
C3538 C3541 1.260 . S
C3538 C3542 1.477 . S
C3538 H3556 0.932 . S
C3539 C3540 1.384 . S
C3539 C3541 1.479 . S
C3539 H3557 0.929 . S
C3540 C3537 1.424 . S
C3540 C3539 1.384 . S
C3540 H3558 0.928 . S
C3541 C3538 1.260 . S
C3541 C3539 1.479 . S
C3542 C3537 1.245 . S
C3542 C3538 1.477 . S
C3542 H3559 0.932 . S
C3543 U3526 2.882 . S
C3543 C3537 1.428 . S
C3543 O3546 1.301 . S
C3543 O3547 1.282 . S
O3544 U3526 2.441 . S
O3544 C3530 1.249 . S
O3545 U3526 2.420 . S
O3545 C3530 1.202 . S
O3546 U3526 2.455 . S
O3546 C3543 1.301 . S
O3547 U3526 2.449 . S
O3547 C3543 1.282 . S
H3548 C3521 0.931 . S
H3549 C3523 0.929 . S
H3550 C3524 0.930 . S
H3551 C3525 0.931 . S
H3552 C3532 0.932 . S
H3553 C3533 0.930 . S
H3554 C3534 0.929 . S
H3555 C3536 0.930 . S
H3556 C3538 0.932 . S
H3557 C3539 0.929 . S
H3558 C3540 0.928 . S
H3559 C3542 0.932 . S
C3560 C3561 1.264 . S
C3560 C3565 1.479 . S
C3560 C3570 1.465 . S
C3561 C3560 1.264 . S
C3561 C3563 1.339 . S
C3561 H3588 0.931 . S
C3562 C3563 1.395 . S
C3562 C3564 1.320 . S
C3563 C3561 1.339 . S
C3563 C3562 1.395 . S
C3563 H3589 0.929 . S
C3564 C3562 1.320 . S
C3564 C3565 1.405 . S
C3564 H3590 0.930 . S
C3565 C3560 1.479 . S
C3565 C3564 1.405 . S
C3565 H3591 0.931 . S
U3566 O3567 2.454 . S
U3566 O3568 2.458 . S
U3566 C3569 2.984 . S
U3566 C3570 2.847 . S
U3566 C3583 2.882 . S
U3566 O3584 2.441 . S
U3566 O3585 2.420 . S
U3566 O3586 2.455 . S
U3566 O3587 2.449 . S
O3567 U3566 2.454 . S
O3567 C3569 1.353 . S
O3568 U3566 2.458 . S
O3568 C3569 1.286 . S
C3569 U3566 2.984 . S
C3569 O3567 1.353 . S
C3569 O3568 1.286 . S
C3569 C3571 1.363 . S
C3570 C3560 1.465 . S
C3570 U3566 2.847 . S
C3570 O3584 1.249 . S
C3570 O3585 1.202 . S
C3571 C3569 1.363 . S
C3571 C3573 1.408 . S
C3571 C3576 1.342 . S
C3572 C3573 1.310 . S
C3572 C3575 1.461 . S
C3572 H3592 0.932 . S
C3573 C3571 1.408 . S
C3573 C3572 1.310 . S
C3573 H3593 0.930 . S
C3574 C3575 1.474 . S
C3574 C3576 1.285 . S
C3574 H3594 0.929 . S
C3575 C3572 1.461 . S
C3575 C3574 1.474 . S
C3576 C3571 1.342 . S
C3576 C3574 1.285 . S
C3576 H3595 0.930 . S
C3577 C3580 1.424 . S
C3577 C3582 1.245 . S
C3577 C3583 1.428 . S
C3578 C3581 1.260 . S
C3578 C3582 1.477 . S
C3578 H3596 0.932 . S
C3579 C3580 1.384 . S
C3579 C3581 1.479 . S
C3579 H3597 0.929 . S
C3580 C3577 1.424 . S
C3580 C3579 1.384 . S
C3580 H3598 0.928 . S
C3581 C3578 1.260 . S
C3581 C3579 1.479 . S
C3582 C3577 1.245 . S
C3582 C3578 1.477 . S
C3582 H3599 0.932 . S
C3583 U3566 2.882 . S
C3583 C3577 1.428 . S
C3583 O3586 1.301 . S
C3583 O3587 1.282 . S
O3584 U3566 2.441 . S
O3584 C3570 1.249 . S
O3585 U3566 2.420 . S
O3585 C3570 1.202 . S
O3586 U3566 2.455 . S
O3586 C3583 1.301 . S
O3587 U3566 2.449 . S
O3587 C3583 1.282 . S
H3588 C3561 0.931 . S
H3589 C3563 0.929 . S
H3590 C3564 0.930 . S
H3591 C3565 0.931 . S
H3592 C3572 0.932 . S
H3593 C3573 0.930 . S
H3594 C3574 0.929 . S
H3595 C3576 0.930 . S
H3596 C3578 0.932 . S
H3597 C3579 0.929 . S
H3598 C3580 0.928 . S
H3599 C3582 0.932 . S
C3600 C3601 1.264 . S
C3600 C3605 1.479 . S
C3600 C3610 1.465 . S
C3601 C3600 1.264 . S
C3601 C3603 1.339 . S
C3601 H3628 0.931 . S
C3602 C3603 1.395 . S
C3602 C3604 1.320 . S
C3603 C3601 1.339 . S
C3603 C3602 1.395 . S
C3603 H3629 0.929 . S
C3604 C3602 1.320 . S
C3604 C3605 1.405 . S
C3604 H3630 0.930 . S
C3605 C3600 1.479 . S
C3605 C3604 1.405 . S
C3605 H3631 0.931 . S
U3606 O3607 2.454 . S
U3606 O3608 2.458 . S
U3606 C3609 2.984 . S
U3606 C3610 2.847 . S
U3606 C3623 2.882 . S
U3606 O3624 2.441 . S
U3606 O3625 2.420 . S
U3606 O3626 2.455 . S
U3606 O3627 2.449 . S
O3607 U3606 2.454 . S
O3607 C3609 1.353 . S
O3608 U3606 2.458 . S
O3608 C3609 1.286 . S
C3609 U3606 2.984 . S
C3609 O3607 1.353 . S
C3609 O3608 1.286 . S
C3609 C3611 1.363 . S
C3610 C3600 1.465 . S
C3610 U3606 2.847 . S
C3610 O3624 1.249 . S
C3610 O3625 1.202 . S
C3611 C3609 1.363 . S
C3611 C3613 1.408 . S
C3611 C3616 1.342 . S
C3612 C3613 1.310 . S
C3612 C3615 1.461 . S
C3612 H3632 0.932 . S
C3613 C3611 1.408 . S
C3613 C3612 1.310 . S
C3613 H3633 0.930 . S
C3614 C3615 1.474 . S
C3614 C3616 1.285 . S
C3614 H3634 0.929 . S
C3615 C3612 1.461 . S
C3615 C3614 1.474 . S
C3616 C3611 1.342 . S
C3616 C3614 1.285 . S
C3616 H3635 0.930 . S
C3617 C3620 1.424 . S
C3617 C3622 1.245 . S
C3617 C3623 1.428 . S
C3618 C3621 1.260 . S
C3618 C3622 1.477 . S
C3618 H3636 0.932 . S
C3619 C3620 1.384 . S
C3619 C3621 1.479 . S
C3619 H3637 0.929 . S
C3620 C3617 1.424 . S
C3620 C3619 1.384 . S
C3620 H3638 0.928 . S
C3621 C3618 1.260 . S
C3621 C3619 1.479 . S
C3622 C3617 1.245 . S
C3622 C3618 1.477 . S
C3622 H3639 0.932 . S
C3623 U3606 2.882 . S
C3623 C3617 1.428 . S
C3623 O3626 1.301 . S
C3623 O3627 1.282 . S
O3624 U3606 2.441 . S
O3624 C3610 1.249 . S
O3625 U3606 2.420 . S
O3625 C3610 1.202 . S
O3626 U3606 2.455 . S
O3626 C3623 1.301 . S
O3627 U3606 2.449 . S
O3627 C3623 1.282 . S
H3628 C3601 0.931 . S
H3629 C3603 0.929 . S
H3630 C3604 0.930 . S
H3631 C3605 0.931 . S
H3632 C3612 0.932 . S
H3633 C3613 0.930 . S
H3634 C3614 0.929 . S
H3635 C3616 0.930 . S
H3636 C3618 0.932 . S
H3637 C3619 0.929 . S
H3638 C3620 0.928 . S
H3639 C3622 0.932 . S
C3640 C3641 1.264 . S
C3640 C3645 1.479 . S
C3640 C3650 1.465 . S
C3641 C3640 1.264 . S
C3641 C3643 1.339 . S
C3641 H3668 0.931 . S
C3642 C3643 1.395 . S
C3642 C3644 1.320 . S
C3643 C3641 1.339 . S
C3643 C3642 1.395 . S
C3643 H3669 0.929 . S
C3644 C3642 1.320 . S
C3644 C3645 1.405 . S
C3644 H3670 0.930 . S
C3645 C3640 1.479 . S
C3645 C3644 1.405 . S
C3645 H3671 0.931 . S
U3646 O3647 2.454 . S
U3646 O3648 2.458 . S
U3646 C3649 2.984 . S
U3646 C3650 2.847 . S
U3646 C3663 2.882 . S
U3646 O3664 2.441 . S
U3646 O3665 2.420 . S
U3646 O3666 2.455 . S
U3646 O3667 2.449 . S
O3647 U3646 2.454 . S
O3647 C3649 1.353 . S
O3648 U3646 2.458 . S
O3648 C3649 1.286 . S
C3649 U3646 2.984 . S
C3649 O3647 1.353 . S
C3649 O3648 1.286 . S
C3649 C3651 1.363 . S
C3650 C3640 1.465 . S
C3650 U3646 2.847 . S
C3650 O3664 1.249 . S
C3650 O3665 1.202 . S
C3651 C3649 1.363 . S
C3651 C3653 1.408 . S
C3651 C3656 1.342 . S
C3652 C3653 1.310 . S
C3652 C3655 1.461 . S
C3652 H3672 0.932 . S
C3653 C3651 1.408 . S
C3653 C3652 1.310 . S
C3653 H3673 0.930 . S
C3654 C3655 1.474 . S
C3654 C3656 1.285 . S
C3654 H3674 0.929 . S
C3655 C3652 1.461 . S
C3655 C3654 1.474 . S
C3656 C3651 1.342 . S
C3656 C3654 1.285 . S
C3656 H3675 0.930 . S
C3657 C3660 1.424 . S
C3657 C3662 1.245 . S
C3657 C3663 1.428 . S
C3658 C3661 1.260 . S
C3658 C3662 1.477 . S
C3658 H3676 0.932 . S
C3659 C3660 1.384 . S
C3659 C3661 1.479 . S
C3659 H3677 0.929 . S
C3660 C3657 1.424 . S
C3660 C3659 1.384 . S
C3660 H3678 0.928 . S
C3661 C3658 1.260 . S
C3661 C3659 1.479 . S
C3662 C3657 1.245 . S
C3662 C3658 1.477 . S
C3662 H3679 0.932 . S
C3663 U3646 2.882 . S
C3663 C3657 1.428 . S
C3663 O3666 1.301 . S
C3663 O3667 1.282 . S
O3664 U3646 2.441 . S
O3664 C3650 1.249 . S
O3665 U3646 2.420 . S
O3665 C3650 1.202 . S
O3666 U3646 2.455 . S
O3666 C3663 1.301 . S
O3667 U3646 2.449 . S
O3667 C3663 1.282 . S
H3668 C3641 0.931 . S
H3669 C3643 0.929 . S
H3670 C3644 0.930 . S
H3671 C3645 0.931 . S
H3672 C3652 0.932 . S
H3673 C3653 0.930 . S
H3674 C3654 0.929 . S
H3675 C3656 0.930 . S
H3676 C3658 0.932 . S
H3677 C3659 0.929 . S
H3678 C3660 0.928 . S
H3679 C3662 0.932 . S
C3680 C3681 1.264 . S
C3680 C3685 1.479 . S
C3680 C3690 1.465 . S
C3681 C3680 1.264 . S
C3681 C3683 1.339 . S
C3681 H3708 0.931 . S
C3682 C3683 1.395 . S
C3682 C3684 1.320 . S
C3683 C3681 1.339 . S
C3683 C3682 1.395 . S
C3683 H3709 0.929 . S
C3684 C3682 1.320 . S
C3684 C3685 1.405 . S
C3684 H3710 0.930 . S
C3685 C3680 1.479 . S
C3685 C3684 1.405 . S
C3685 H3711 0.931 . S
U3686 O3687 2.454 . S
U3686 O3688 2.458 . S
U3686 C3689 2.984 . S
U3686 C3690 2.847 . S
U3686 C3703 2.882 . S
U3686 O3704 2.441 . S
U3686 O3705 2.420 . S
U3686 O3706 2.455 . S
U3686 O3707 2.449 . S
O3687 U3686 2.454 . S
O3687 C3689 1.353 . S
O3688 U3686 2.458 . S
O3688 C3689 1.286 . S
C3689 U3686 2.984 . S
C3689 O3687 1.353 . S
C3689 O3688 1.286 . S
C3689 C3691 1.363 . S
C3690 C3680 1.465 . S
C3690 U3686 2.847 . S
C3690 O3704 1.249 . S
C3690 O3705 1.202 . S
C3691 C3689 1.363 . S
C3691 C3693 1.408 . S
C3691 C3696 1.342 . S
C3692 C3693 1.310 . S
C3692 C3695 1.461 . S
C3692 H3712 0.932 . S
C3693 C3691 1.408 . S
C3693 C3692 1.310 . S
C3693 H3713 0.930 . S
C3694 C3695 1.474 . S
C3694 C3696 1.285 . S
C3694 H3714 0.929 . S
C3695 C3692 1.461 . S
C3695 C3694 1.474 . S
C3696 C3691 1.342 . S
C3696 C3694 1.285 . S
C3696 H3715 0.930 . S
C3697 C3700 1.424 . S
C3697 C3702 1.245 . S
C3697 C3703 1.428 . S
C3698 C3701 1.260 . S
C3698 C3702 1.477 . S
C3698 H3716 0.932 . S
C3699 C3700 1.384 . S
C3699 C3701 1.479 . S
C3699 H3717 0.929 . S
C3700 C3697 1.424 . S
C3700 C3699 1.384 . S
C3700 H3718 0.928 . S
C3701 C3698 1.260 . S
C3701 C3699 1.479 . S
C3702 C3697 1.245 . S
C3702 C3698 1.477 . S
C3702 H3719 0.932 . S
C3703 U3686 2.882 . S
C3703 C3697 1.428 . S
C3703 O3706 1.301 . S
C3703 O3707 1.282 . S
O3704 U3686 2.441 . S
O3704 C3690 1.249 . S
O3705 U3686 2.420 . S
O3705 C3690 1.202 . S
O3706 U3686 2.455 . S
O3706 C3703 1.301 . S
O3707 U3686 2.449 . S
O3707 C3703 1.282 . S
H3708 C3681 0.931 . S
H3709 C3683 0.929 . S
H3710 C3684 0.930 . S
H3711 C3685 0.931 . S
H3712 C3692 0.932 . S
H3713 C3693 0.930 . S
H3714 C3694 0.929 . S
H3715 C3696 0.930 . S
H3716 C3698 0.932 . S
H3717 C3699 0.929 . S
H3718 C3700 0.928 . S
H3719 C3702 0.932 . S
C3720 C3721 1.264 . S
C3720 C3725 1.479 . S
C3720 C3730 1.465 . S
C3721 C3720 1.264 . S
C3721 C3723 1.339 . S
C3721 H3748 0.931 . S
C3722 C3723 1.395 . S
C3722 C3724 1.320 . S
C3723 C3721 1.339 . S
C3723 C3722 1.395 . S
C3723 H3749 0.929 . S
C3724 C3722 1.320 . S
C3724 C3725 1.405 . S
C3724 H3750 0.930 . S
C3725 C3720 1.479 . S
C3725 C3724 1.405 . S
C3725 H3751 0.931 . S
U3726 O3727 2.454 . S
U3726 O3728 2.458 . S
U3726 C3729 2.984 . S
U3726 C3730 2.847 . S
U3726 C3743 2.882 . S
U3726 O3744 2.441 . S
U3726 O3745 2.420 . S
U3726 O3746 2.455 . S
U3726 O3747 2.449 . S
O3727 U3726 2.454 . S
O3727 C3729 1.353 . S
O3728 U3726 2.458 . S
O3728 C3729 1.286 . S
C3729 U3726 2.984 . S
C3729 O3727 1.353 . S
C3729 O3728 1.286 . S
C3729 C3731 1.363 . S
C3730 C3720 1.465 . S
C3730 U3726 2.847 . S
C3730 O3744 1.249 . S
C3730 O3745 1.202 . S
C3731 C3729 1.363 . S
C3731 C3733 1.408 . S
C3731 C3736 1.342 . S
C3732 C3733 1.310 . S
C3732 C3735 1.461 . S
C3732 H3752 0.932 . S
C3733 C3731 1.408 . S
C3733 C3732 1.310 . S
C3733 H3753 0.930 . S
C3734 C3735 1.474 . S
C3734 C3736 1.285 . S
C3734 H3754 0.929 . S
C3735 C3732 1.461 . S
C3735 C3734 1.474 . S
C3736 C3731 1.342 . S
C3736 C3734 1.285 . S
C3736 H3755 0.930 . S
C3737 C3740 1.424 . S
C3737 C3742 1.245 . S
C3737 C3743 1.428 . S
C3738 C3741 1.260 . S
C3738 C3742 1.477 . S
C3738 H3756 0.932 . S
C3739 C3740 1.384 . S
C3739 C3741 1.479 . S
C3739 H3757 0.929 . S
C3740 C3737 1.424 . S
C3740 C3739 1.384 . S
C3740 H3758 0.928 . S
C3741 C3738 1.260 . S
C3741 C3739 1.479 . S
C3742 C3737 1.245 . S
C3742 C3738 1.477 . S
C3742 H3759 0.932 . S
C3743 U3726 2.882 . S
C3743 C3737 1.428 . S
C3743 O3746 1.301 . S
C3743 O3747 1.282 . S
O3744 U3726 2.441 . S
O3744 C3730 1.249 . S
O3745 U3726 2.420 . S
O3745 C3730 1.202 . S
O3746 U3726 2.455 . S
O3746 C3743 1.301 . S
O3747 U3726 2.449 . S
O3747 C3743 1.282 . S
H3748 C3721 0.931 . S
H3749 C3723 0.929 . S
H3750 C3724 0.930 . S
H3751 C3725 0.931 . S
H3752 C3732 0.932 . S
H3753 C3733 0.930 . S
H3754 C3734 0.929 . S
H3755 C3736 0.930 . S
H3756 C3738 0.932 . S
H3757 C3739 0.929 . S
H3758 C3740 0.928 . S
H3759 C3742 0.932 . S
C3760 C3761 1.264 . S
C3760 C3765 1.479 . S
C3760 C3770 1.465 . S
C3761 C3760 1.264 . S
C3761 C3763 1.339 . S
C3761 H3788 0.931 . S
C3762 C3763 1.395 . S
C3762 C3764 1.320 . S
C3763 C3761 1.339 . S
C3763 C3762 1.395 . S
C3763 H3789 0.929 . S
C3764 C3762 1.320 . S
C3764 C3765 1.405 . S
C3764 H3790 0.930 . S
C3765 C3760 1.479 . S
C3765 C3764 1.405 . S
C3765 H3791 0.931 . S
U3766 O3767 2.454 . S
U3766 O3768 2.458 . S
U3766 C3769 2.984 . S
U3766 C3770 2.847 . S
U3766 C3783 2.882 . S
U3766 O3784 2.441 . S
U3766 O3785 2.420 . S
U3766 O3786 2.455 . S
U3766 O3787 2.449 . S
O3767 U3766 2.454 . S
O3767 C3769 1.353 . S
O3768 U3766 2.458 . S
O3768 C3769 1.286 . S
C3769 U3766 2.984 . S
C3769 O3767 1.353 . S
C3769 O3768 1.286 . S
C3769 C3771 1.363 . S
C3770 C3760 1.465 . S
C3770 U3766 2.847 . S
C3770 O3784 1.249 . S
C3770 O3785 1.202 . S
C3771 C3769 1.363 . S
C3771 C3773 1.408 . S
C3771 C3776 1.342 . S
C3772 C3773 1.310 . S
C3772 C3775 1.461 . S
C3772 H3792 0.932 . S
C3773 C3771 1.408 . S
C3773 C3772 1.310 . S
C3773 H3793 0.930 . S
C3774 C3775 1.474 . S
C3774 C3776 1.285 . S
C3774 H3794 0.929 . S
C3775 C3772 1.461 . S
C3775 C3774 1.474 . S
C3776 C3771 1.342 . S
C3776 C3774 1.285 . S
C3776 H3795 0.930 . S
C3777 C3780 1.424 . S
C3777 C3782 1.245 . S
C3777 C3783 1.428 . S
C3778 C3781 1.260 . S
C3778 C3782 1.477 . S
C3778 H3796 0.932 . S
C3779 C3780 1.384 . S
C3779 C3781 1.479 . S
C3779 H3797 0.929 . S
C3780 C3777 1.424 . S
C3780 C3779 1.384 . S
C3780 H3798 0.928 . S
C3781 C3778 1.260 . S
C3781 C3779 1.479 . S
C3782 C3777 1.245 . S
C3782 C3778 1.477 . S
C3782 H3799 0.932 . S
C3783 U3766 2.882 . S
C3783 C3777 1.428 . S
C3783 O3786 1.301 . S
C3783 O3787 1.282 . S
O3784 U3766 2.441 . S
O3784 C3770 1.249 . S
O3785 U3766 2.420 . S
O3785 C3770 1.202 . S
O3786 U3766 2.455 . S
O3786 C3783 1.301 . S
O3787 U3766 2.449 . S
O3787 C3783 1.282 . S
H3788 C3761 0.931 . S
H3789 C3763 0.929 . S
H3790 C3764 0.930 . S
H3791 C3765 0.931 . S
H3792 C3772 0.932 . S
H3793 C3773 0.930 . S
H3794 C3774 0.929 . S
H3795 C3776 0.930 . S
H3796 C3778 0.932 . S
H3797 C3779 0.929 . S
H3798 C3780 0.928 . S
H3799 C3782 0.932 . S
C3800 C3801 1.264 . S
C3800 C3805 1.479 . S
C3800 C3810 1.465 . S
C3801 C3800 1.264 . S
C3801 C3803 1.339 . S
C3801 H3828 0.931 . S
C3802 C3803 1.395 . S
C3802 C3804 1.320 . S
C3803 C3801 1.339 . S
C3803 C3802 1.395 . S
C3803 H3829 0.929 . S
C3804 C3802 1.320 . S
C3804 C3805 1.405 . S
C3804 H3830 0.930 . S
C3805 C3800 1.479 . S
C3805 C3804 1.405 . S
C3805 H3831 0.931 . S
U3806 O3807 2.454 . S
U3806 O3808 2.458 . S
U3806 C3809 2.984 . S
U3806 C3810 2.847 . S
U3806 C3823 2.882 . S
U3806 O3824 2.441 . S
U3806 O3825 2.420 . S
U3806 O3826 2.455 . S
U3806 O3827 2.449 . S
O3807 U3806 2.454 . S
O3807 C3809 1.353 . S
O3808 U3806 2.458 . S
O3808 C3809 1.286 . S
C3809 U3806 2.984 . S
C3809 O3807 1.353 . S
C3809 O3808 1.286 . S
C3809 C3811 1.363 . S
C3810 C3800 1.465 . S
C3810 U3806 2.847 . S
C3810 O3824 1.249 . S
C3810 O3825 1.202 . S
C3811 C3809 1.363 . S
C3811 C3813 1.408 . S
C3811 C3816 1.342 . S
C3812 C3813 1.310 . S
C3812 C3815 1.461 . S
C3812 H3832 0.932 . S
C3813 C3811 1.408 . S
C3813 C3812 1.310 . S
C3813 H3833 0.930 . S
C3814 C3815 1.474 . S
C3814 C3816 1.285 . S
C3814 H3834 0.929 . S
C3815 C3812 1.461 . S
C3815 C3814 1.474 . S
C3816 C3811 1.342 . S
C3816 C3814 1.285 . S
C3816 H3835 0.930 . S
C3817 C3820 1.424 . S
C3817 C3822 1.245 . S
C3817 C3823 1.428 . S
C3818 C3821 1.260 . S
C3818 C3822 1.477 . S
C3818 H3836 0.932 . S
C3819 C3820 1.384 . S
C3819 C3821 1.479 . S
C3819 H3837 0.929 . S
C3820 C3817 1.424 . S
C3820 C3819 1.384 . S
C3820 H3838 0.928 . S
C3821 C3818 1.260 . S
C3821 C3819 1.479 . S
C3822 C3817 1.245 . S
C3822 C3818 1.477 . S
C3822 H3839 0.932 . S
C3823 U3806 2.882 . S
C3823 C3817 1.428 . S
C3823 O3826 1.301 . S
C3823 O3827 1.282 . S
O3824 U3806 2.441 . S
O3824 C3810 1.249 . S
O3825 U3806 2.420 . S
O3825 C3810 1.202 . S
O3826 U3806 2.455 . S
O3826 C3823 1.301 . S
O3827 U3806 2.449 . S
O3827 C3823 1.282 . S
H3828 C3801 0.931 . S
H3829 C3803 0.929 . S
H3830 C3804 0.930 . S
H3831 C3805 0.931 . S
H3832 C3812 0.932 . S
H3833 C3813 0.930 . S
H3834 C3814 0.929 . S
H3835 C3816 0.930 . S
H3836 C3818 0.932 . S
H3837 C3819 0.929 . S
H3838 C3820 0.928 . S
H3839 C3822 0.932 . S
C3840 C3841 1.386 . S
C3840 C3842 1.397 . S
C3840 H3864 0.931 . S
C3841 C3840 1.386 . S
C3841 C3845 1.397 . S
C3842 C3840 1.397 . S
C3842 C3843 1.384 . S
C3842 H3865 0.930 . S
C3843 C3842 1.384 . S
C3843 C3844 1.377 . S
C3843 C3846 1.481 . S
C3844 C3843 1.377 . S
C3844 C3845 1.389 . S
C3844 H3866 0.929 . S
C3845 C3841 1.397 . S
C3845 C3844 1.389 . S
C3845 H3867 0.931 . S
C3846 C3843 1.481 . S
C3846 C3847 1.387 . S
C3846 C3851 1.390 . S
C3847 C3846 1.387 . S
C3847 C3848 1.401 . S
C3847 H3868 0.930 . S
C3848 C3847 1.401 . S
C3848 C3849 1.376 . S
C3848 C3857 1.511 . S
C3849 C3848 1.376 . S
C3849 C3850 1.392 . S
C3849 H3870 0.931 . S
C3850 C3849 1.392 . S
C3850 C3851 1.361 . S
C3850 C3852 1.500 . S
C3851 C3846 1.390 . S
C3851 C3850 1.361 . S
C3851 H3869 0.931 . S
C3852 C3850 1.500 . S
C3852 C3853 1.371 . S
C3852 C3854 1.365 . S
C3853 C3852 1.371 . S
C3853 C3863 1.386 . S
C3853 H3871 0.931 . S
C3854 C3852 1.365 . S
C3854 C3855 1.409 . S
C3854 H3872 0.929 . S
C3855 C3854 1.409 . S
C3855 C3856 1.380 . S
C3855 H3873 0.930 . S
C3856 C3855 1.380 . S
C3856 C3863 1.357 . S
C3857 C3848 1.511 . S
C3857 C3858 1.341 . S
C3857 C3859 1.371 . S
C3858 C3857 1.341 . S
C3858 C3862 1.394 . S
C3858 H3874 0.930 . S
C3859 C3857 1.371 . S
C3859 C3860 1.392 . S
C3859 H3875 0.931 . S
C3860 C3859 1.392 . S
C3860 C3861 1.331 . S
C3860 H3878 0.932 . S
C3861 C3860 1.331 . S
C3861 C3862 1.336 . S
C3862 C3858 1.394 . S
C3862 C3861 1.336 . S
C3862 H3877 0.929 . S
C3863 C3853 1.386 . S
C3863 C3856 1.357 . S
C3863 H3876 0.928 . S
H3864 C3840 0.931 . S
H3865 C3842 0.930 . S
H3866 C3844 0.929 . S
H3867 C3845 0.931 . S
H3868 C3847 0.930 . S
H3869 C3851 0.931 . S
H3870 C3849 0.931 . S
H3871 C3853 0.931 . S
H3872 C3854 0.929 . S
H3873 C3855 0.930 . S
H3874 C3858 0.930 . S
H3875 C3859 0.931 . S
H3876 C3863 0.928 . S
H3877 C3862 0.929 . S
H3878 C3860 0.932 . S
C3879 C3880 1.386 . S
C3879 C3881 1.397 . S
C3879 H3903 0.931 . S
C3880 C3879 1.386 . S
C3880 C3884 1.397 . S
C3881 C3879 1.397 . S
C3881 C3882 1.384 . S
C3881 H3904 0.930 . S
C3882 C3881 1.384 . S
C3882 C3883 1.377 . S
C3882 C3885 1.481 . S
C3883 C3882 1.377 . S
C3883 C3884 1.389 . S
C3883 H3905 0.929 . S
C3884 C3880 1.397 . S
C3884 C3883 1.389 . S
C3884 H3906 0.931 . S
C3885 C3882 1.481 . S
C3885 C3886 1.387 . S
C3885 C3890 1.390 . S
C3886 C3885 1.387 . S
C3886 C3887 1.401 . S
C3886 H3907 0.930 . S
C3887 C3886 1.401 . S
C3887 C3888 1.376 . S
C3887 C3896 1.511 . S
C3888 C3887 1.376 . S
C3888 C3889 1.392 . S
C3888 H3909 0.931 . S
C3889 C3888 1.392 . S
C3889 C3890 1.361 . S
C3889 C3891 1.500 . S
C3890 C3885 1.390 . S
C3890 C3889 1.361 . S
C3890 H3908 0.931 . S
C3891 C3889 1.500 . S
C3891 C3892 1.371 . S
C3891 C3893 1.365 . S
C3892 C3891 1.371 . S
C3892 C3902 1.386 . S
C3892 H3910 0.931 . S
C3893 C3891 1.365 . S
C3893 C3894 1.409 . S
C3893 H3911 0.929 . S
C3894 C3893 1.409 . S
C3894 C3895 1.380 . S
C3894 H3912 0.930 . S
C3895 C3894 1.380 . S
C3895 C3902 1.357 . S
C3896 C3887 1.511 . S
C3896 C3897 1.341 . S
C3896 C3898 1.371 . S
C3897 C3896 1.341 . S
C3897 C3901 1.394 . S
C3897 H3913 0.930 . S
C3898 C3896 1.371 . S
C3898 C3899 1.392 . S
C3898 H3914 0.931 . S
C3899 C3898 1.392 . S
C3899 C3900 1.331 . S
C3899 H3917 0.932 . S
C3900 C3899 1.331 . S
C3900 C3901 1.336 . S
C3901 C3897 1.394 . S
C3901 C3900 1.336 . S
C3901 H3916 0.929 . S
C3902 C3892 1.386 . S
C3902 C3895 1.357 . S
C3902 H3915 0.928 . S
H3903 C3879 0.931 . S
H3904 C3881 0.930 . S
H3905 C3883 0.929 . S
H3906 C3884 0.931 . S
H3907 C3886 0.930 . S
H3908 C3890 0.931 . S
H3909 C3888 0.931 . S
H3910 C3892 0.931 . S
H3911 C3893 0.929 . S
H3912 C3894 0.930 . S
H3913 C3897 0.930 . S
H3914 C3898 0.931 . S
H3915 C3902 0.928 . S
H3916 C3901 0.929 . S
H3917 C3899 0.932 . S
C3918 C3919 1.386 . S
C3918 C3920 1.397 . S
C3918 H3942 0.931 . S
C3919 C3918 1.386 . S
C3919 C3923 1.397 . S
C3920 C3918 1.397 . S
C3920 C3921 1.384 . S
C3920 H3943 0.930 . S
C3921 C3920 1.384 . S
C3921 C3922 1.377 . S
C3921 C3924 1.481 . S
C3922 C3921 1.377 . S
C3922 C3923 1.389 . S
C3922 H3944 0.929 . S
C3923 C3919 1.397 . S
C3923 C3922 1.389 . S
C3923 H3945 0.931 . S
C3924 C3921 1.481 . S
C3924 C3925 1.387 . S
C3924 C3929 1.390 . S
C3925 C3924 1.387 . S
C3925 C3926 1.401 . S
C3925 H3946 0.930 . S
C3926 C3925 1.401 . S
C3926 C3927 1.376 . S
C3926 C3935 1.511 . S
C3927 C3926 1.376 . S
C3927 C3928 1.392 . S
C3927 H3948 0.931 . S
C3928 C3927 1.392 . S
C3928 C3929 1.361 . S
C3928 C3930 1.500 . S
C3929 C3924 1.390 . S
C3929 C3928 1.361 . S
C3929 H3947 0.931 . S
C3930 C3928 1.500 . S
C3930 C3931 1.371 . S
C3930 C3932 1.365 . S
C3931 C3930 1.371 . S
C3931 C3941 1.386 . S
C3931 H3949 0.931 . S
C3932 C3930 1.365 . S
C3932 C3933 1.409 . S
C3932 H3950 0.929 . S
C3933 C3932 1.409 . S
C3933 C3934 1.380 . S
C3933 H3951 0.930 . S
C3934 C3933 1.380 . S
C3934 C3941 1.357 . S
C3935 C3926 1.511 . S
C3935 C3936 1.341 . S
C3935 C3937 1.371 . S
C3936 C3935 1.341 . S
C3936 C3940 1.394 . S
C3936 H3952 0.930 . S
C3937 C3935 1.371 . S
C3937 C3938 1.392 . S
C3937 H3953 0.931 . S
C3938 C3937 1.392 . S
C3938 C3939 1.331 . S
C3938 H3956 0.932 . S
C3939 C3938 1.331 . S
C3939 C3940 1.336 . S
C3940 C3936 1.394 . S
C3940 C3939 1.336 . S
C3940 H3955 0.929 . S
C3941 C3931 1.386 . S
C3941 C3934 1.357 . S
C3941 H3954 0.928 . S
H3942 C3918 0.931 . S
H3943 C3920 0.930 . S
H3944 C3922 0.929 . S
H3945 C3923 0.931 . S
H3946 C3925 0.930 . S
H3947 C3929 0.931 . S
H3948 C3927 0.931 . S
H3949 C3931 0.931 . S
H3950 C3932 0.929 . S
H3951 C3933 0.930 . S
H3952 C3936 0.930 . S
H3953 C3937 0.931 . S
H3954 C3941 0.928 . S
H3955 C3940 0.929 . S
H3956 C3938 0.932 . S
C3957 C3958 1.386 . S
C3957 C3959 1.397 . S
C3957 H3981 0.931 . S
C3958 C3957 1.386 . S
C3958 C3962 1.397 . S
C3959 C3957 1.397 . S
C3959 C3960 1.384 . S
C3959 H3982 0.930 . S
C3960 C3959 1.384 . S
C3960 C3961 1.377 . S
C3960 C3963 1.481 . S
C3961 C3960 1.377 . S
C3961 C3962 1.389 . S
C3961 H3983 0.929 . S
C3962 C3958 1.397 . S
C3962 C3961 1.389 . S
C3962 H3984 0.931 . S
C3963 C3960 1.481 . S
C3963 C3964 1.387 . S
C3963 C3968 1.390 . S
C3964 C3963 1.387 . S
C3964 C3965 1.401 . S
C3964 H3985 0.930 . S
C3965 C3964 1.401 . S
C3965 C3966 1.376 . S
C3965 C3974 1.511 . S
C3966 C3965 1.376 . S
C3966 C3967 1.392 . S
C3966 H3987 0.931 . S
C3967 C3966 1.392 . S
C3967 C3968 1.361 . S
C3967 C3969 1.500 . S
C3968 C3963 1.390 . S
C3968 C3967 1.361 . S
C3968 H3986 0.931 . S
C3969 C3967 1.500 . S
C3969 C3970 1.371 . S
C3969 C3971 1.365 . S
C3970 C3969 1.371 . S
C3970 C3980 1.386 . S
C3970 H3988 0.931 . S
C3971 C3969 1.365 . S
C3971 C3972 1.409 . S
C3971 H3989 0.929 . S
C3972 C3971 1.409 . S
C3972 C3973 1.380 . S
C3972 H3990 0.930 . S
C3973 C3972 1.380 . S
C3973 C3980 1.357 . S
C3974 C3965 1.511 . S
C3974 C3975 1.341 . S
C3974 C3976 1.371 . S
C3975 C3974 1.341 . S
C3975 C3979 1.394 . S
C3975 H3991 0.930 . S
C3976 C3974 1.371 . S
C3976 C3977 1.392 . S
C3976 H3992 0.931 . S
C3977 C3976 1.392 . S
C3977 C3978 1.331 . S
C3977 H3995 0.932 . S
C3978 C3977 1.331 . S
C3978 C3979 1.336 . S
C3979 C3975 1.394 . S
C3979 C3978 1.336 . S
C3979 H3994 0.929 . S
C3980 C3970 1.386 . S
C3980 C3973 1.357 . S
C3980 H3993 0.928 . S
H3981 C3957 0.931 . S
H3982 C3959 0.930 . S
H3983 C3961 0.929 . S
H3984 C3962 0.931 . S
H3985 C3964 0.930 . S
H3986 C3968 0.931 . S
H3987 C3966 0.931 . S
H3988 C3970 0.931 . S
H3989 C3971 0.929 . S
H3990 C3972 0.930 . S
H3991 C3975 0.930 . S
H3992 C3976 0.931 . S
H3993 C3980 0.928 . S
H3994 C3979 0.929 . S
H3995 C3977 0.932 . S
C3996 C3997 1.386 . S
C3996 C3998 1.397 . S
C3996 H4020 0.931 . S
C3997 C3996 1.386 . S
C3997 C4001 1.397 . S
C3998 C3996 1.397 . S
C3998 C3999 1.384 . S
C3998 H4021 0.930 . S
C3999 C3998 1.384 . S
C3999 C4000 1.377 . S
C3999 C4002 1.481 . S
C4000 C3999 1.377 . S
C4000 C4001 1.389 . S
C4000 H4022 0.929 . S
C4001 C3997 1.397 . S
C4001 C4000 1.389 . S
C4001 H4023 0.931 . S
C4002 C3999 1.481 . S
C4002 C4003 1.387 . S
C4002 C4007 1.390 . S
C4003 C4002 1.387 . S
C4003 C4004 1.401 . S
C4003 H4024 0.930 . S
C4004 C4003 1.401 . S
C4004 C4005 1.376 . S
C4004 C4013 1.511 . S
C4005 C4004 1.376 . S
C4005 C4006 1.392 . S
C4005 H4026 0.931 . S
C4006 C4005 1.392 . S
C4006 C4007 1.361 . S
C4006 C4008 1.500 . S
C4007 C4002 1.390 . S
C4007 C4006 1.361 . S
C4007 H4025 0.931 . S
C4008 C4006 1.500 . S
C4008 C4009 1.371 . S
C4008 C4010 1.365 . S
C4009 C4008 1.371 . S
C4009 C4019 1.386 . S
C4009 H4027 0.931 . S
C4010 C4008 1.365 . S
C4010 C4011 1.409 . S
C4010 H4028 0.929 . S
C4011 C4010 1.409 . S
C4011 C4012 1.380 . S
C4011 H4029 0.930 . S
C4012 C4011 1.380 . S
C4012 C4019 1.357 . S
C4013 C4004 1.511 . S
C4013 C4014 1.341 . S
C4013 C4015 1.371 . S
C4014 C4013 1.341 . S
C4014 C4018 1.394 . S
C4014 H4030 0.930 . S
C4015 C4013 1.371 . S
C4015 C4016 1.392 . S
C4015 H4031 0.931 . S
C4016 C4015 1.392 . S
C4016 C4017 1.331 . S
C4016 H4034 0.932 . S
C4017 C4016 1.331 . S
C4017 C4018 1.336 . S
C4018 C4014 1.394 . S
C4018 C4017 1.336 . S
C4018 H4033 0.929 . S
C4019 C4009 1.386 . S
C4019 C4012 1.357 . S
C4019 H4032 0.928 . S
H4020 C3996 0.931 . S
H4021 C3998 0.930 . S
H4022 C4000 0.929 . S
H4023 C4001 0.931 . S
H4024 C4003 0.930 . S
H4025 C4007 0.931 . S
H4026 C4005 0.931 . S
H4027 C4009 0.931 . S
H4028 C4010 0.929 . S
H4029 C4011 0.930 . S
H4030 C4014 0.930 . S
H4031 C4015 0.931 . S
H4032 C4019 0.928 . S
H4033 C4018 0.929 . S
H4034 C4016 0.932 . S
C4035 C4036 1.386 . S
C4035 C4037 1.397 . S
C4035 H4059 0.931 . S
C4036 C4035 1.386 . S
C4036 C4040 1.397 . S
C4037 C4035 1.397 . S
C4037 C4038 1.384 . S
C4037 H4060 0.930 . S
C4038 C4037 1.384 . S
C4038 C4039 1.377 . S
C4038 C4041 1.481 . S
C4039 C4038 1.377 . S
C4039 C4040 1.389 . S
C4039 H4061 0.929 . S
C4040 C4036 1.397 . S
C4040 C4039 1.389 . S
C4040 H4062 0.931 . S
C4041 C4038 1.481 . S
C4041 C4042 1.387 . S
C4041 C4046 1.390 . S
C4042 C4041 1.387 . S
C4042 C4043 1.401 . S
C4042 H4063 0.930 . S
C4043 C4042 1.401 . S
C4043 C4044 1.376 . S
C4043 C4052 1.511 . S
C4044 C4043 1.376 . S
C4044 C4045 1.392 . S
C4044 H4065 0.931 . S
C4045 C4044 1.392 . S
C4045 C4046 1.361 . S
C4045 C4047 1.500 . S
C4046 C4041 1.390 . S
C4046 C4045 1.361 . S
C4046 H4064 0.931 . S
C4047 C4045 1.500 . S
C4047 C4048 1.371 . S
C4047 C4049 1.365 . S
C4048 C4047 1.371 . S
C4048 C4058 1.386 . S
C4048 H4066 0.931 . S
C4049 C4047 1.365 . S
C4049 C4050 1.409 . S
C4049 H4067 0.929 . S
C4050 C4049 1.409 . S
C4050 C4051 1.380 . S
C4050 H4068 0.930 . S
C4051 C4050 1.380 . S
C4051 C4058 1.357 . S
C4052 C4043 1.511 . S
C4052 C4053 1.341 . S
C4052 C4054 1.371 . S
C4053 C4052 1.341 . S
C4053 C4057 1.394 . S
C4053 H4069 0.930 . S
C4054 C4052 1.371 . S
C4054 C4055 1.392 . S
C4054 H4070 0.931 . S
C4055 C4054 1.392 . S
C4055 C4056 1.331 . S
C4055 H4073 0.932 . S
C4056 C4055 1.331 . S
C4056 C4057 1.336 . S
C4057 C4053 1.394 . S
C4057 C4056 1.336 . S
C4057 H4072 0.929 . S
C4058 C4048 1.386 . S
C4058 C4051 1.357 . S
C4058 H4071 0.928 . S
H4059 C4035 0.931 . S
H4060 C4037 0.930 . S
H4061 C4039 0.929 . S
H4062 C4040 0.931 . S
H4063 C4042 0.930 . S
H4064 C4046 0.931 . S
H4065 C4044 0.931 . S
H4066 C4048 0.931 . S
H4067 C4049 0.929 . S
H4068 C4050 0.930 . S
H4069 C4053 0.930 . S
H4070 C4054 0.931 . S
H4071 C4058 0.928 . S
H4072 C4057 0.929 . S
H4073 C4055 0.932 . S
C4074 C4075 1.386 . S
C4074 C4076 1.397 . S
C4074 H4098 0.931 . S
C4075 C4074 1.386 . S
C4075 C4079 1.397 . S
C4076 C4074 1.397 . S
C4076 C4077 1.384 . S
C4076 H4099 0.930 . S
C4077 C4076 1.384 . S
C4077 C4078 1.377 . S
C4077 C4080 1.481 . S
C4078 C4077 1.377 . S
C4078 C4079 1.389 . S
C4078 H4100 0.929 . S
C4079 C4075 1.397 . S
C4079 C4078 1.389 . S
C4079 H4101 0.931 . S
C4080 C4077 1.481 . S
C4080 C4081 1.387 . S
C4080 C4085 1.390 . S
C4081 C4080 1.387 . S
C4081 C4082 1.401 . S
C4081 H4102 0.930 . S
C4082 C4081 1.401 . S
C4082 C4083 1.376 . S
C4082 C4091 1.511 . S
C4083 C4082 1.376 . S
C4083 C4084 1.392 . S
C4083 H4104 0.931 . S
C4084 C4083 1.392 . S
C4084 C4085 1.361 . S
C4084 C4086 1.500 . S
C4085 C4080 1.390 . S
C4085 C4084 1.361 . S
C4085 H4103 0.931 . S
C4086 C4084 1.500 . S
C4086 C4087 1.371 . S
C4086 C4088 1.365 . S
C4087 C4086 1.371 . S
C4087 C4097 1.386 . S
C4087 H4105 0.931 . S
C4088 C4086 1.365 . S
C4088 C4089 1.409 . S
C4088 H4106 0.929 . S
C4089 C4088 1.409 . S
C4089 C4090 1.380 . S
C4089 H4107 0.930 . S
C4090 C4089 1.380 . S
C4090 C4097 1.357 . S
C4091 C4082 1.511 . S
C4091 C4092 1.341 . S
C4091 C4093 1.371 . S
C4092 C4091 1.341 . S
C4092 C4096 1.394 . S
C4092 H4108 0.930 . S
C4093 C4091 1.371 . S
C4093 C4094 1.392 . S
C4093 H4109 0.931 . S
C4094 C4093 1.392 . S
C4094 C4095 1.331 . S
C4094 H4112 0.932 . S
C4095 C4094 1.331 . S
C4095 C4096 1.336 . S
C4096 C4092 1.394 . S
C4096 C4095 1.336 . S
C4096 H4111 0.929 . S
C4097 C4087 1.386 . S
C4097 C4090 1.357 . S
C4097 H4110 0.928 . S
H4098 C4074 0.931 . S
H4099 C4076 0.930 . S
H4100 C4078 0.929 . S
H4101 C4079 0.931 . S
H4102 C4081 0.930 . S
H4103 C4085 0.931 . S
H4104 C4083 0.931 . S
H4105 C4087 0.931 . S
H4106 C4088 0.929 . S
H4107 C4089 0.930 . S
H4108 C4092 0.930 . S
H4109 C4093 0.931 . S
H4110 C4097 0.928 . S
H4111 C4096 0.929 . S
H4112 C4094 0.932 . S
C4113 C4114 1.386 . S
C4113 C4115 1.397 . S
C4113 H4137 0.931 . S
C4114 C4113 1.386 . S
C4114 C4118 1.397 . S
C4115 C4113 1.397 . S
C4115 C4116 1.384 . S
C4115 H4138 0.930 . S
C4116 C4115 1.384 . S
C4116 C4117 1.377 . S
C4116 C4119 1.481 . S
C4117 C4116 1.377 . S
C4117 C4118 1.389 . S
C4117 H4139 0.929 . S
C4118 C4114 1.397 . S
C4118 C4117 1.389 . S
C4118 H4140 0.931 . S
C4119 C4116 1.481 . S
C4119 C4120 1.387 . S
C4119 C4124 1.390 . S
C4120 C4119 1.387 . S
C4120 C4121 1.401 . S
C4120 H4141 0.930 . S
C4121 C4120 1.401 . S
C4121 C4122 1.376 . S
C4121 C4130 1.511 . S
C4122 C4121 1.376 . S
C4122 C4123 1.392 . S
C4122 H4143 0.931 . S
C4123 C4122 1.392 . S
C4123 C4124 1.361 . S
C4123 C4125 1.500 . S
C4124 C4119 1.390 . S
C4124 C4123 1.361 . S
C4124 H4142 0.931 . S
C4125 C4123 1.500 . S
C4125 C4126 1.371 . S
C4125 C4127 1.365 . S
C4126 C4125 1.371 . S
C4126 C4136 1.386 . S
C4126 H4144 0.931 . S
C4127 C4125 1.365 . S
C4127 C4128 1.409 . S
C4127 H4145 0.929 . S
C4128 C4127 1.409 . S
C4128 C4129 1.380 . S
C4128 H4146 0.930 . S
C4129 C4128 1.380 . S
C4129 C4136 1.357 . S
C4130 C4121 1.511 . S
C4130 C4131 1.341 . S
C4130 C4132 1.371 . S
C4131 C4130 1.341 . S
C4131 C4135 1.394 . S
C4131 H4147 0.930 . S
C4132 C4130 1.371 . S
C4132 C4133 1.392 . S
C4132 H4148 0.931 . S
C4133 C4132 1.392 . S
C4133 C4134 1.331 . S
C4133 H4151 0.932 . S
C4134 C4133 1.331 . S
C4134 C4135 1.336 . S
C4135 C4131 1.394 . S
C4135 C4134 1.336 . S
C4135 H4150 0.929 . S
C4136 C4126 1.386 . S
C4136 C4129 1.357 . S
C4136 H4149 0.928 . S
H4137 C4113 0.931 . S
H4138 C4115 0.930 . S
H4139 C4117 0.929 . S
H4140 C4118 0.931 . S
H4141 C4120 0.930 . S
H4142 C4124 0.931 . S
H4143 C4122 0.931 . S
H4144 C4126 0.931 . S
H4145 C4127 0.929 . S
H4146 C4128 0.930 . S
H4147 C4131 0.930 . S
H4148 C4132 0.931 . S
H4149 C4136 0.928 . S
H4150 C4135 0.929 . S
H4151 C4133 0.932 . S
C4152 C4153 1.386 . S
C4152 C4154 1.397 . S
C4152 H4176 0.931 . S
C4153 C4152 1.386 . S
C4153 C4157 1.397 . S
C4154 C4152 1.397 . S
C4154 C4155 1.384 . S
C4154 H4177 0.930 . S
C4155 C4154 1.384 . S
C4155 C4156 1.377 . S
C4155 C4158 1.481 . S
C4156 C4155 1.377 . S
C4156 C4157 1.389 . S
C4156 H4178 0.929 . S
C4157 C4153 1.397 . S
C4157 C4156 1.389 . S
C4157 H4179 0.931 . S
C4158 C4155 1.481 . S
C4158 C4159 1.387 . S
C4158 C4163 1.390 . S
C4159 C4158 1.387 . S
C4159 C4160 1.401 . S
C4159 H4180 0.930 . S
C4160 C4159 1.401 . S
C4160 C4161 1.376 . S
C4160 C4169 1.511 . S
C4161 C4160 1.376 . S
C4161 C4162 1.392 . S
C4161 H4182 0.931 . S
C4162 C4161 1.392 . S
C4162 C4163 1.361 . S
C4162 C4164 1.500 . S
C4163 C4158 1.390 . S
C4163 C4162 1.361 . S
C4163 H4181 0.931 . S
C4164 C4162 1.500 . S
C4164 C4165 1.371 . S
C4164 C4166 1.365 . S
C4165 C4164 1.371 . S
C4165 C4175 1.386 . S
C4165 H4183 0.931 . S
C4166 C4164 1.365 . S
C4166 C4167 1.409 . S
C4166 H4184 0.929 . S
C4167 C4166 1.409 . S
C4167 C4168 1.380 . S
C4167 H4185 0.930 . S
C4168 C4167 1.380 . S
C4168 C4175 1.357 . S
C4169 C4160 1.511 . S
C4169 C4170 1.341 . S
C4169 C4171 1.371 . S
C4170 C4169 1.341 . S
C4170 C4174 1.394 . S
C4170 H4186 0.930 . S
C4171 C4169 1.371 . S
C4171 C4172 1.392 . S
C4171 H4187 0.931 . S
C4172 C4171 1.392 . S
C4172 C4173 1.331 . S
C4172 H4190 0.932 . S
C4173 C4172 1.331 . S
C4173 C4174 1.336 . S
C4174 C4170 1.394 . S
C4174 C4173 1.336 . S
C4174 H4189 0.929 . S
C4175 C4165 1.386 . S
C4175 C4168 1.357 . S
C4175 H4188 0.928 . S
H4176 C4152 0.931 . S
H4177 C4154 0.930 . S
H4178 C4156 0.929 . S
H4179 C4157 0.931 . S
H4180 C4159 0.930 . S
H4181 C4163 0.931 . S
H4182 C4161 0.931 . S
H4183 C4165 0.931 . S
H4184 C4166 0.929 . S
H4185 C4167 0.930 . S
H4186 C4170 0.930 . S
H4187 C4171 0.931 . S
H4188 C4175 0.928 . S
H4189 C4174 0.929 . S
H4190 C4172 0.932 . S
C4191 C4192 1.386 . S
C4191 C4193 1.397 . S
C4191 H4215 0.931 . S
C4192 C4191 1.386 . S
C4192 C4196 1.397 . S
C4193 C4191 1.397 . S
C4193 C4194 1.384 . S
C4193 H4216 0.930 . S
C4194 C4193 1.384 . S
C4194 C4195 1.377 . S
C4194 C4197 1.481 . S
C4195 C4194 1.377 . S
C4195 C4196 1.389 . S
C4195 H4217 0.929 . S
C4196 C4192 1.397 . S
C4196 C4195 1.389 . S
C4196 H4218 0.931 . S
C4197 C4194 1.481 . S
C4197 C4198 1.387 . S
C4197 C4202 1.390 . S
C4198 C4197 1.387 . S
C4198 C4199 1.401 . S
C4198 H4219 0.930 . S
C4199 C4198 1.401 . S
C4199 C4200 1.376 . S
C4199 C4208 1.511 . S
C4200 C4199 1.376 . S
C4200 C4201 1.392 . S
C4200 H4221 0.931 . S
C4201 C4200 1.392 . S
C4201 C4202 1.361 . S
C4201 C4203 1.500 . S
C4202 C4197 1.390 . S
C4202 C4201 1.361 . S
C4202 H4220 0.931 . S
C4203 C4201 1.500 . S
C4203 C4204 1.371 . S
C4203 C4205 1.365 . S
C4204 C4203 1.371 . S
C4204 C4214 1.386 . S
C4204 H4222 0.931 . S
C4205 C4203 1.365 . S
C4205 C4206 1.409 . S
C4205 H4223 0.929 . S
C4206 C4205 1.409 . S
C4206 C4207 1.380 . S
C4206 H4224 0.930 . S
C4207 C4206 1.380 . S
C4207 C4214 1.357 . S
C4208 C4199 1.511 . S
C4208 C4209 1.341 . S
C4208 C4210 1.371 . S
C4209 C4208 1.341 . S
C4209 C4213 1.394 . S
C4209 H4225 0.930 . S
C4210 C4208 1.371 . S
C4210 C4211 1.392 . S
C4210 H4226 0.931 . S
C4211 C4210 1.392 . S
C4211 C4212 1.331 . S
C4211 H4229 0.932 . S
C4212 C4211 1.331 . S
C4212 C4213 1.336 . S
C4213 C4209 1.394 . S
C4213 C4212 1.336 . S
C4213 H4228 0.929 . S
C4214 C4204 1.386 . S
C4214 C4207 1.357 . S
C4214 H4227 0.928 . S
H4215 C4191 0.931 . S
H4216 C4193 0.930 . S
H4217 C4195 0.929 . S
H4218 C4196 0.931 . S
H4219 C4198 0.930 . S
H4220 C4202 0.931 . S
H4221 C4200 0.931 . S
H4222 C4204 0.931 . S
H4223 C4205 0.929 . S
H4224 C4206 0.930 . S
H4225 C4209 0.930 . S
H4226 C4210 0.931 . S
H4227 C4214 0.928 . S
H4228 C4213 0.929 . S
H4229 C4211 0.932 . S
C4230 C4231 1.386 . S
C4230 C4232 1.397 . S
C4230 H4254 0.931 . S
C4231 C4230 1.386 . S
C4231 C4235 1.397 . S
C4232 C4230 1.397 . S
C4232 C4233 1.384 . S
C4232 H4255 0.930 . S
C4233 C4232 1.384 . S
C4233 C4234 1.377 . S
C4233 C4236 1.481 . S
C4234 C4233 1.377 . S
C4234 C4235 1.389 . S
C4234 H4256 0.929 . S
C4235 C4231 1.397 . S
C4235 C4234 1.389 . S
C4235 H4257 0.931 . S
C4236 C4233 1.481 . S
C4236 C4237 1.387 . S
C4236 C4241 1.390 . S
C4237 C4236 1.387 . S
C4237 C4238 1.401 . S
C4237 H4258 0.930 . S
C4238 C4237 1.401 . S
C4238 C4239 1.376 . S
C4238 C4247 1.511 . S
C4239 C4238 1.376 . S
C4239 C4240 1.392 . S
C4239 H4260 0.931 . S
C4240 C4239 1.392 . S
C4240 C4241 1.361 . S
C4240 C4242 1.500 . S
C4241 C4236 1.390 . S
C4241 C4240 1.361 . S
C4241 H4259 0.931 . S
C4242 C4240 1.500 . S
C4242 C4243 1.371 . S
C4242 C4244 1.365 . S
C4243 C4242 1.371 . S
C4243 C4253 1.386 . S
C4243 H4261 0.931 . S
C4244 C4242 1.365 . S
C4244 C4245 1.409 . S
C4244 H4262 0.929 . S
C4245 C4244 1.409 . S
C4245 C4246 1.380 . S
C4245 H4263 0.930 . S
C4246 C4245 1.380 . S
C4246 C4253 1.357 . S
C4247 C4238 1.511 . S
C4247 C4248 1.341 . S
C4247 C4249 1.371 . S
C4248 C4247 1.341 . S
C4248 C4252 1.394 . S
C4248 H4264 0.930 . S
C4249 C4247 1.371 . S
C4249 C4250 1.392 . S
C4249 H4265 0.931 . S
C4250 C4249 1.392 . S
C4250 C4251 1.331 . S
C4250 H4268 0.932 . S
C4251 C4250 1.331 . S
C4251 C4252 1.336 . S
C4252 C4248 1.394 . S
C4252 C4251 1.336 . S
C4252 H4267 0.929 . S
C4253 C4243 1.386 . S
C4253 C4246 1.357 . S
C4253 H4266 0.928 . S
H4254 C4230 0.931 . S
H4255 C4232 0.930 . S
H4256 C4234 0.929 . S
H4257 C4235 0.931 . S
H4258 C4237 0.930 . S
H4259 C4241 0.931 . S
H4260 C4239 0.931 . S
H4261 C4243 0.931 . S
H4262 C4244 0.929 . S
H4263 C4245 0.930 . S
H4264 C4248 0.930 . S
H4265 C4249 0.931 . S
H4266 C4253 0.928 . S
H4267 C4252 0.929 . S
H4268 C4250 0.932 . S
C4269 C4270 1.386 . S
C4269 C4271 1.397 . S
C4269 H4293 0.931 . S
C4270 C4269 1.386 . S
C4270 C4274 1.397 . S
C4271 C4269 1.397 . S
C4271 C4272 1.384 . S
C4271 H4294 0.930 . S
C4272 C4271 1.384 . S
C4272 C4273 1.377 . S
C4272 C4275 1.481 . S
C4273 C4272 1.377 . S
C4273 C4274 1.389 . S
C4273 H4295 0.929 . S
C4274 C4270 1.397 . S
C4274 C4273 1.389 . S
C4274 H4296 0.931 . S
C4275 C4272 1.481 . S
C4275 C4276 1.387 . S
C4275 C4280 1.390 . S
C4276 C4275 1.387 . S
C4276 C4277 1.401 . S
C4276 H4297 0.930 . S
C4277 C4276 1.401 . S
C4277 C4278 1.376 . S
C4277 C4286 1.511 . S
C4278 C4277 1.376 . S
C4278 C4279 1.392 . S
C4278 H4299 0.931 . S
C4279 C4278 1.392 . S
C4279 C4280 1.361 . S
C4279 C4281 1.500 . S
C4280 C4275 1.390 . S
C4280 C4279 1.361 . S
C4280 H4298 0.931 . S
C4281 C4279 1.500 . S
C4281 C4282 1.371 . S
C4281 C4283 1.365 . S
C4282 C4281 1.371 . S
C4282 C4292 1.386 . S
C4282 H4300 0.931 . S
C4283 C4281 1.365 . S
C4283 C4284 1.409 . S
C4283 H4301 0.929 . S
C4284 C4283 1.409 . S
C4284 C4285 1.380 . S
C4284 H4302 0.930 . S
C4285 C4284 1.380 . S
C4285 C4292 1.357 . S
C4286 C4277 1.511 . S
C4286 C4287 1.341 . S
C4286 C4288 1.371 . S
C4287 C4286 1.341 . S
C4287 C4291 1.394 . S
C4287 H4303 0.930 . S
C4288 C4286 1.371 . S
C4288 C4289 1.392 . S
C4288 H4304 0.931 . S
C4289 C4288 1.392 . S
C4289 C4290 1.331 . S
C4289 H4307 0.932 . S
C4290 C4289 1.331 . S
C4290 C4291 1.336 . S
C4291 C4287 1.394 . S
C4291 C4290 1.336 . S
C4291 H4306 0.929 . S
C4292 C4282 1.386 . S
C4292 C4285 1.357 . S
C4292 H4305 0.928 . S
H4293 C4269 0.931 . S
H4294 C4271 0.930 . S
H4295 C4273 0.929 . S
H4296 C4274 0.931 . S
H4297 C4276 0.930 . S
H4298 C4280 0.931 . S
H4299 C4278 0.931 . S
H4300 C4282 0.931 . S
H4301 C4283 0.929 . S
H4302 C4284 0.930 . S
H4303 C4287 0.930 . S
H4304 C4288 0.931 . S
H4305 C4292 0.928 . S
H4306 C4291 0.929 . S
H4307 C4289 0.932 . S
C4308 C4309 1.386 . S
C4308 C4310 1.397 . S
C4308 H4332 0.931 . S
C4309 C4308 1.386 . S
C4309 C4313 1.397 . S
C4310 C4308 1.397 . S
C4310 C4311 1.384 . S
C4310 H4333 0.930 . S
C4311 C4310 1.384 . S
C4311 C4312 1.377 . S
C4311 C4314 1.481 . S
C4312 C4311 1.377 . S
C4312 C4313 1.389 . S
C4312 H4334 0.929 . S
C4313 C4309 1.397 . S
C4313 C4312 1.389 . S
C4313 H4335 0.931 . S
C4314 C4311 1.481 . S
C4314 C4315 1.387 . S
C4314 C4319 1.390 . S
C4315 C4314 1.387 . S
C4315 C4316 1.401 . S
C4315 H4336 0.930 . S
C4316 C4315 1.401 . S
C4316 C4317 1.376 . S
C4316 C4325 1.511 . S
C4317 C4316 1.376 . S
C4317 C4318 1.392 . S
C4317 H4338 0.931 . S
C4318 C4317 1.392 . S
C4318 C4319 1.361 . S
C4318 C4320 1.500 . S
C4319 C4314 1.390 . S
C4319 C4318 1.361 . S
C4319 H4337 0.931 . S
C4320 C4318 1.500 . S
C4320 C4321 1.371 . S
C4320 C4322 1.365 . S
C4321 C4320 1.371 . S
C4321 C4331 1.386 . S
C4321 H4339 0.931 . S
C4322 C4320 1.365 . S
C4322 C4323 1.409 . S
C4322 H4340 0.929 . S
C4323 C4322 1.409 . S
C4323 C4324 1.380 . S
C4323 H4341 0.930 . S
C4324 C4323 1.380 . S
C4324 C4331 1.357 . S
C4325 C4316 1.511 . S
C4325 C4326 1.341 . S
C4325 C4327 1.371 . S
C4326 C4325 1.341 . S
C4326 C4330 1.394 . S
C4326 H4342 0.930 . S
C4327 C4325 1.371 . S
C4327 C4328 1.392 . S
C4327 H4343 0.931 . S
C4328 C4327 1.392 . S
C4328 C4329 1.331 . S
C4328 H4346 0.932 . S
C4329 C4328 1.331 . S
C4329 C4330 1.336 . S
C4330 C4326 1.394 . S
C4330 C4329 1.336 . S
C4330 H4345 0.929 . S
C4331 C4321 1.386 . S
C4331 C4324 1.357 . S
C4331 H4344 0.928 . S
H4332 C4308 0.931 . S
H4333 C4310 0.930 . S
H4334 C4312 0.929 . S
H4335 C4313 0.931 . S
H4336 C4315 0.930 . S
H4337 C4319 0.931 . S
H4338 C4317 0.931 . S
H4339 C4321 0.931 . S
H4340 C4322 0.929 . S
H4341 C4323 0.930 . S
H4342 C4326 0.930 . S
H4343 C4327 0.931 . S
H4344 C4331 0.928 . S
H4345 C4330 0.929 . S
H4346 C4328 0.932 . S
C4347 C4348 1.386 . S
C4347 C4349 1.397 . S
C4347 H4371 0.931 . S
C4348 C4347 1.386 . S
C4348 C4352 1.397 . S
C4349 C4347 1.397 . S
C4349 C4350 1.384 . S
C4349 H4372 0.930 . S
C4350 C4349 1.384 . S
C4350 C4351 1.377 . S
C4350 C4353 1.481 . S
C4351 C4350 1.377 . S
C4351 C4352 1.389 . S
C4351 H4373 0.929 . S
C4352 C4348 1.397 . S
C4352 C4351 1.389 . S
C4352 H4374 0.931 . S
C4353 C4350 1.481 . S
C4353 C4354 1.387 . S
C4353 C4358 1.390 . S
C4354 C4353 1.387 . S
C4354 C4355 1.401 . S
C4354 H4375 0.930 . S
C4355 C4354 1.401 . S
C4355 C4356 1.376 . S
C4355 C4364 1.511 . S
C4356 C4355 1.376 . S
C4356 C4357 1.392 . S
C4356 H4377 0.931 . S
C4357 C4356 1.392 . S
C4357 C4358 1.361 . S
C4357 C4359 1.500 . S
C4358 C4353 1.390 . S
C4358 C4357 1.361 . S
C4358 H4376 0.931 . S
C4359 C4357 1.500 . S
C4359 C4360 1.371 . S
C4359 C4361 1.365 . S
C4360 C4359 1.371 . S
C4360 C4370 1.386 . S
C4360 H4378 0.931 . S
C4361 C4359 1.365 . S
C4361 C4362 1.409 . S
C4361 H4379 0.929 . S
C4362 C4361 1.409 . S
C4362 C4363 1.380 . S
C4362 H4380 0.930 . S
C4363 C4362 1.380 . S
C4363 C4370 1.357 . S
C4364 C4355 1.511 . S
C4364 C4365 1.341 . S
C4364 C4366 1.371 . S
C4365 C4364 1.341 . S
C4365 C4369 1.394 . S
C4365 H4381 0.930 . S
C4366 C4364 1.371 . S
C4366 C4367 1.392 . S
C4366 H4382 0.931 . S
C4367 C4366 1.392 . S
C4367 C4368 1.331 . S
C4367 H4385 0.932 . S
C4368 C4367 1.331 . S
C4368 C4369 1.336 . S
C4369 C4365 1.394 . S
C4369 C4368 1.336 . S
C4369 H4384 0.929 . S
C4370 C4360 1.386 . S
C4370 C4363 1.357 . S
C4370 H4383 0.928 . S
H4371 C4347 0.931 . S
H4372 C4349 0.930 . S
H4373 C4351 0.929 . S
H4374 C4352 0.931 . S
H4375 C4354 0.930 . S
H4376 C4358 0.931 . S
H4377 C4356 0.931 . S
H4378 C4360 0.931 . S
H4379 C4361 0.929 . S
H4380 C4362 0.930 . S
H4381 C4365 0.930 . S
H4382 C4366 0.931 . S
H4383 C4370 0.928 . S
H4384 C4369 0.929 . S
H4385 C4367 0.932 . S
C4386 C4387 1.386 . S
C4386 C4388 1.397 . S
C4386 H4410 0.931 . S
C4387 C4386 1.386 . S
C4387 C4391 1.397 . S
C4388 C4386 1.397 . S
C4388 C4389 1.384 . S
C4388 H4411 0.930 . S
C4389 C4388 1.384 . S
C4389 C4390 1.377 . S
C4389 C4392 1.481 . S
C4390 C4389 1.377 . S
C4390 C4391 1.389 . S
C4390 H4412 0.929 . S
C4391 C4387 1.397 . S
C4391 C4390 1.389 . S
C4391 H4413 0.931 . S
C4392 C4389 1.481 . S
C4392 C4393 1.387 . S
C4392 C4397 1.390 . S
C4393 C4392 1.387 . S
C4393 C4394 1.401 . S
C4393 H4414 0.930 . S
C4394 C4393 1.401 . S
C4394 C4395 1.376 . S
C4394 C4403 1.511 . S
C4395 C4394 1.376 . S
C4395 C4396 1.392 . S
C4395 H4416 0.931 . S
C4396 C4395 1.392 . S
C4396 C4397 1.361 . S
C4396 C4398 1.500 . S
C4397 C4392 1.390 . S
C4397 C4396 1.361 . S
C4397 H4415 0.931 . S
C4398 C4396 1.500 . S
C4398 C4399 1.371 . S
C4398 C4400 1.365 . S
C4399 C4398 1.371 . S
C4399 C4409 1.386 . S
C4399 H4417 0.931 . S
C4400 C4398 1.365 . S
C4400 C4401 1.409 . S
C4400 H4418 0.929 . S
C4401 C4400 1.409 . S
C4401 C4402 1.380 . S
C4401 H4419 0.930 . S
C4402 C4401 1.380 . S
C4402 C4409 1.357 . S
C4403 C4394 1.511 . S
C4403 C4404 1.341 . S
C4403 C4405 1.371 . S
C4404 C4403 1.341 . S
C4404 C4408 1.394 . S
C4404 H4420 0.930 . S
C4405 C4403 1.371 . S
C4405 C4406 1.392 . S
C4405 H4421 0.931 . S
C4406 C4405 1.392 . S
C4406 C4407 1.331 . S
C4406 H4424 0.932 . S
C4407 C4406 1.331 . S
C4407 C4408 1.336 . S
C4408 C4404 1.394 . S
C4408 C4407 1.336 . S
C4408 H4423 0.929 . S
C4409 C4399 1.386 . S
C4409 C4402 1.357 . S
C4409 H4422 0.928 . S
H4410 C4386 0.931 . S
H4411 C4388 0.930 . S
H4412 C4390 0.929 . S
H4413 C4391 0.931 . S
H4414 C4393 0.930 . S
H4415 C4397 0.931 . S
H4416 C4395 0.931 . S
H4417 C4399 0.931 . S
H4418 C4400 0.929 . S
H4419 C4401 0.930 . S
H4420 C4404 0.930 . S
H4421 C4405 0.931 . S
H4422 C4409 0.928 . S
H4423 C4408 0.929 . S
H4424 C4406 0.932 . S
C4425 C4426 1.386 . S
C4425 C4427 1.397 . S
C4425 H4449 0.931 . S
C4426 C4425 1.386 . S
C4426 C4430 1.397 . S
C4427 C4425 1.397 . S
C4427 C4428 1.384 . S
C4427 H4450 0.930 . S
C4428 C4427 1.384 . S
C4428 C4429 1.377 . S
C4428 C4431 1.481 . S
C4429 C4428 1.377 . S
C4429 C4430 1.389 . S
C4429 H4451 0.929 . S
C4430 C4426 1.397 . S
C4430 C4429 1.389 . S
C4430 H4452 0.931 . S
C4431 C4428 1.481 . S
C4431 C4432 1.387 . S
C4431 C4436 1.390 . S
C4432 C4431 1.387 . S
C4432 C4433 1.401 . S
C4432 H4453 0.930 . S
C4433 C4432 1.401 . S
C4433 C4434 1.376 . S
C4433 C4442 1.511 . S
C4434 C4433 1.376 . S
C4434 C4435 1.392 . S
C4434 H4455 0.931 . S
C4435 C4434 1.392 . S
C4435 C4436 1.361 . S
C4435 C4437 1.500 . S
C4436 C4431 1.390 . S
C4436 C4435 1.361 . S
C4436 H4454 0.931 . S
C4437 C4435 1.500 . S
C4437 C4438 1.371 . S
C4437 C4439 1.365 . S
C4438 C4437 1.371 . S
C4438 C4448 1.386 . S
C4438 H4456 0.931 . S
C4439 C4437 1.365 . S
C4439 C4440 1.409 . S
C4439 H4457 0.929 . S
C4440 C4439 1.409 . S
C4440 C4441 1.380 . S
C4440 H4458 0.930 . S
C4441 C4440 1.380 . S
C4441 C4448 1.357 . S
C4442 C4433 1.511 . S
C4442 C4443 1.341 . S
C4442 C4444 1.371 . S
C4443 C4442 1.341 . S
C4443 C4447 1.394 . S
C4443 H4459 0.930 . S
C4444 C4442 1.371 . S
C4444 C4445 1.392 . S
C4444 H4460 0.931 . S
C4445 C4444 1.392 . S
C4445 C4446 1.331 . S
C4445 H4463 0.932 . S
C4446 C4445 1.331 . S
C4446 C4447 1.336 . S
C4447 C4443 1.394 . S
C4447 C4446 1.336 . S
C4447 H4462 0.929 . S
C4448 C4438 1.386 . S
C4448 C4441 1.357 . S
C4448 H4461 0.928 . S
H4449 C4425 0.931 . S
H4450 C4427 0.930 . S
H4451 C4429 0.929 . S
H4452 C4430 0.931 . S
H4453 C4432 0.930 . S
H4454 C4436 0.931 . S
H4455 C4434 0.931 . S
H4456 C4438 0.931 . S
H4457 C4439 0.929 . S
H4458 C4440 0.930 . S
H4459 C4443 0.930 . S
H4460 C4444 0.931 . S
H4461 C4448 0.928 . S
H4462 C4447 0.929 . S
H4463 C4445 0.932 . S
C4464 C4465 1.386 . S
C4464 C4466 1.397 . S
C4464 H4488 0.931 . S
C4465 C4464 1.386 . S
C4465 C4469 1.397 . S
C4466 C4464 1.397 . S
C4466 C4467 1.384 . S
C4466 H4489 0.930 . S
C4467 C4466 1.384 . S
C4467 C4468 1.377 . S
C4467 C4470 1.481 . S
C4468 C4467 1.377 . S
C4468 C4469 1.389 . S
C4468 H4490 0.929 . S
C4469 C4465 1.397 . S
C4469 C4468 1.389 . S
C4469 H4491 0.931 . S
C4470 C4467 1.481 . S
C4470 C4471 1.387 . S
C4470 C4475 1.390 . S
C4471 C4470 1.387 . S
C4471 C4472 1.401 . S
C4471 H4492 0.930 . S
C4472 C4471 1.401 . S
C4472 C4473 1.376 . S
C4472 C4481 1.511 . S
C4473 C4472 1.376 . S
C4473 C4474 1.392 . S
C4473 H4494 0.931 . S
C4474 C4473 1.392 . S
C4474 C4475 1.361 . S
C4474 C4476 1.500 . S
C4475 C4470 1.390 . S
C4475 C4474 1.361 . S
C4475 H4493 0.931 . S
C4476 C4474 1.500 . S
C4476 C4477 1.371 . S
C4476 C4478 1.365 . S
C4477 C4476 1.371 . S
C4477 C4487 1.386 . S
C4477 H4495 0.931 . S
C4478 C4476 1.365 . S
C4478 C4479 1.409 . S
C4478 H4496 0.929 . S
C4479 C4478 1.409 . S
C4479 C4480 1.380 . S
C4479 H4497 0.930 . S
C4480 C4479 1.380 . S
C4480 C4487 1.357 . S
C4481 C4472 1.511 . S
C4481 C4482 1.341 . S
C4481 C4483 1.371 . S
C4482 C4481 1.341 . S
C4482 C4486 1.394 . S
C4482 H4498 0.930 . S
C4483 C4481 1.371 . S
C4483 C4484 1.392 . S
C4483 H4499 0.931 . S
C4484 C4483 1.392 . S
C4484 C4485 1.331 . S
C4484 H4502 0.932 . S
C4485 C4484 1.331 . S
C4485 C4486 1.336 . S
C4486 C4482 1.394 . S
C4486 C4485 1.336 . S
C4486 H4501 0.929 . S
C4487 C4477 1.386 . S
C4487 C4480 1.357 . S
C4487 H4500 0.928 . S
H4488 C4464 0.931 . S
H4489 C4466 0.930 . S
H4490 C4468 0.929 . S
H4491 C4469 0.931 . S
H4492 C4471 0.930 . S
H4493 C4475 0.931 . S
H4494 C4473 0.931 . S
H4495 C4477 0.931 . S
H4496 C4478 0.929 . S
H4497 C4479 0.930 . S
H4498 C4482 0.930 . S
H4499 C4483 0.931 . S
H4500 C4487 0.928 . S
H4501 C4486 0.929 . S
H4502 C4484 0.932 . S
C4503 C4504 1.386 . S
C4503 C4505 1.397 . S
C4503 H4527 0.931 . S
C4504 C4503 1.386 . S
C4504 C4508 1.397 . S
C4505 C4503 1.397 . S
C4505 C4506 1.384 . S
C4505 H4528 0.930 . S
C4506 C4505 1.384 . S
C4506 C4507 1.377 . S
C4506 C4509 1.481 . S
C4507 C4506 1.377 . S
C4507 C4508 1.389 . S
C4507 H4529 0.929 . S
C4508 C4504 1.397 . S
C4508 C4507 1.389 . S
C4508 H4530 0.931 . S
C4509 C4506 1.481 . S
C4509 C4510 1.387 . S
C4509 C4514 1.390 . S
C4510 C4509 1.387 . S
C4510 C4511 1.401 . S
C4510 H4531 0.930 . S
C4511 C4510 1.401 . S
C4511 C4512 1.376 . S
C4511 C4520 1.511 . S
C4512 C4511 1.376 . S
C4512 C4513 1.392 . S
C4512 H4533 0.931 . S
C4513 C4512 1.392 . S
C4513 C4514 1.361 . S
C4513 C4515 1.500 . S
C4514 C4509 1.390 . S
C4514 C4513 1.361 . S
C4514 H4532 0.931 . S
C4515 C4513 1.500 . S
C4515 C4516 1.371 . S
C4515 C4517 1.365 . S
C4516 C4515 1.371 . S
C4516 C4526 1.386 . S
C4516 H4534 0.931 . S
C4517 C4515 1.365 . S
C4517 C4518 1.409 . S
C4517 H4535 0.929 . S
C4518 C4517 1.409 . S
C4518 C4519 1.380 . S
C4518 H4536 0.930 . S
C4519 C4518 1.380 . S
C4519 C4526 1.357 . S
C4520 C4511 1.511 . S
C4520 C4521 1.341 . S
C4520 C4522 1.371 . S
C4521 C4520 1.341 . S
C4521 C4525 1.394 . S
C4521 H4537 0.930 . S
C4522 C4520 1.371 . S
C4522 C4523 1.392 . S
C4522 H4538 0.931 . S
C4523 C4522 1.392 . S
C4523 C4524 1.331 . S
C4523 H4541 0.932 . S
C4524 C4523 1.331 . S
C4524 C4525 1.336 . S
C4525 C4521 1.394 . S
C4525 C4524 1.336 . S
C4525 H4540 0.929 . S
C4526 C4516 1.386 . S
C4526 C4519 1.357 . S
C4526 H4539 0.928 . S
H4527 C4503 0.931 . S
H4528 C4505 0.930 . S
H4529 C4507 0.929 . S
H4530 C4508 0.931 . S
H4531 C4510 0.930 . S
H4532 C4514 0.931 . S
H4533 C4512 0.931 . S
H4534 C4516 0.931 . S
H4535 C4517 0.929 . S
H4536 C4518 0.930 . S
H4537 C4521 0.930 . S
H4538 C4522 0.931 . S
H4539 C4526 0.928 . S
H4540 C4525 0.929 . S
H4541 C4523 0.932 . S
C4542 C4543 1.386 . S
C4542 C4544 1.397 . S
C4542 H4566 0.931 . S
C4543 C4542 1.386 . S
C4543 C4547 1.397 . S
C4544 C4542 1.397 . S
C4544 C4545 1.384 . S
C4544 H4567 0.930 . S
C4545 C4544 1.384 . S
C4545 C4546 1.377 . S
C4545 C4548 1.481 . S
C4546 C4545 1.377 . S
C4546 C4547 1.389 . S
C4546 H4568 0.929 . S
C4547 C4543 1.397 . S
C4547 C4546 1.389 . S
C4547 H4569 0.931 . S
C4548 C4545 1.481 . S
C4548 C4549 1.387 . S
C4548 C4553 1.390 . S
C4549 C4548 1.387 . S
C4549 C4550 1.401 . S
C4549 H4570 0.930 . S
C4550 C4549 1.401 . S
C4550 C4551 1.376 . S
C4550 C4559 1.511 . S
C4551 C4550 1.376 . S
C4551 C4552 1.392 . S
C4551 H4572 0.931 . S
C4552 C4551 1.392 . S
C4552 C4553 1.361 . S
C4552 C4554 1.500 . S
C4553 C4548 1.390 . S
C4553 C4552 1.361 . S
C4553 H4571 0.931 . S
C4554 C4552 1.500 . S
C4554 C4555 1.371 . S
C4554 C4556 1.365 . S
C4555 C4554 1.371 . S
C4555 C4565 1.386 . S
C4555 H4573 0.931 . S
C4556 C4554 1.365 . S
C4556 C4557 1.409 . S
C4556 H4574 0.929 . S
C4557 C4556 1.409 . S
C4557 C4558 1.380 . S
C4557 H4575 0.930 . S
C4558 C4557 1.380 . S
C4558 C4565 1.357 . S
C4559 C4550 1.511 . S
C4559 C4560 1.341 . S
C4559 C4561 1.371 . S
C4560 C4559 1.341 . S
C4560 C4564 1.394 . S
C4560 H4576 0.930 . S
C4561 C4559 1.371 . S
C4561 C4562 1.392 . S
C4561 H4577 0.931 . S
C4562 C4561 1.392 . S
C4562 C4563 1.331 . S
C4562 H4580 0.932 . S
C4563 C4562 1.331 . S
C4563 C4564 1.336 . S
C4564 C4560 1.394 . S
C4564 C4563 1.336 . S
C4564 H4579 0.929 . S
C4565 C4555 1.386 . S
C4565 C4558 1.357 . S
C4565 H4578 0.928 . S
H4566 C4542 0.931 . S
H4567 C4544 0.930 . S
H4568 C4546 0.929 . S
H4569 C4547 0.931 . S
H4570 C4549 0.930 . S
H4571 C4553 0.931 . S
H4572 C4551 0.931 . S
H4573 C4555 0.931 . S
H4574 C4556 0.929 . S
H4575 C4557 0.930 . S
H4576 C4560 0.930 . S
H4577 C4561 0.931 . S
H4578 C4565 0.928 . S
H4579 C4564 0.929 . S
H4580 C4562 0.932 . S
C4581 C4582 1.386 . S
C4581 C4583 1.397 . S
C4581 H4605 0.931 . S
C4582 C4581 1.386 . S
C4582 C4586 1.397 . S
C4583 C4581 1.397 . S
C4583 C4584 1.384 . S
C4583 H4606 0.930 . S
C4584 C4583 1.384 . S
C4584 C4585 1.377 . S
C4584 C4587 1.481 . S
C4585 C4584 1.377 . S
C4585 C4586 1.389 . S
C4585 H4607 0.929 . S
C4586 C4582 1.397 . S
C4586 C4585 1.389 . S
C4586 H4608 0.931 . S
C4587 C4584 1.481 . S
C4587 C4588 1.387 . S
C4587 C4592 1.390 . S
C4588 C4587 1.387 . S
C4588 C4589 1.401 . S
C4588 H4609 0.930 . S
C4589 C4588 1.401 . S
C4589 C4590 1.376 . S
C4589 C4598 1.511 . S
C4590 C4589 1.376 . S
C4590 C4591 1.392 . S
C4590 H4611 0.931 . S
C4591 C4590 1.392 . S
C4591 C4592 1.361 . S
C4591 C4593 1.500 . S
C4592 C4587 1.390 . S
C4592 C4591 1.361 . S
C4592 H4610 0.931 . S
C4593 C4591 1.500 . S
C4593 C4594 1.371 . S
C4593 C4595 1.365 . S
C4594 C4593 1.371 . S
C4594 C4604 1.386 . S
C4594 H4612 0.931 . S
C4595 C4593 1.365 . S
C4595 C4596 1.409 . S
C4595 H4613 0.929 . S
C4596 C4595 1.409 . S
C4596 C4597 1.380 . S
C4596 H4614 0.930 . S
C4597 C4596 1.380 . S
C4597 C4604 1.357 . S
C4598 C4589 1.511 . S
C4598 C4599 1.341 . S
C4598 C4600 1.371 . S
C4599 C4598 1.341 . S
C4599 C4603 1.394 . S
C4599 H4615 0.930 . S
C4600 C4598 1.371 . S
C4600 C4601 1.392 . S
C4600 H4616 0.931 . S
C4601 C4600 1.392 . S
C4601 C4602 1.331 . S
C4601 H4619 0.932 . S
C4602 C4601 1.331 . S
C4602 C4603 1.336 . S
C4603 C4599 1.394 . S
C4603 C4602 1.336 . S
C4603 H4618 0.929 . S
C4604 C4594 1.386 . S
C4604 C4597 1.357 . S
C4604 H4617 0.928 . S
H4605 C4581 0.931 . S
H4606 C4583 0.930 . S
H4607 C4585 0.929 . S
H4608 C4586 0.931 . S
H4609 C4588 0.930 . S
H4610 C4592 0.931 . S
H4611 C4590 0.931 . S
H4612 C4594 0.931 . S
H4613 C4595 0.929 . S
H4614 C4596 0.930 . S
H4615 C4599 0.930 . S
H4616 C4600 0.931 . S
H4617 C4604 0.928 . S
H4618 C4603 0.929 . S
H4619 C4601 0.932 . S
C4620 C4621 1.386 . S
C4620 C4622 1.397 . S
C4620 H4644 0.931 . S
C4621 C4620 1.386 . S
C4621 C4625 1.397 . S
C4622 C4620 1.397 . S
C4622 C4623 1.384 . S
C4622 H4645 0.930 . S
C4623 C4622 1.384 . S
C4623 C4624 1.377 . S
C4623 C4626 1.481 . S
C4624 C4623 1.377 . S
C4624 C4625 1.389 . S
C4624 H4646 0.929 . S
C4625 C4621 1.397 . S
C4625 C4624 1.389 . S
C4625 H4647 0.931 . S
C4626 C4623 1.481 . S
C4626 C4627 1.387 . S
C4626 C4631 1.390 . S
C4627 C4626 1.387 . S
C4627 C4628 1.401 . S
C4627 H4648 0.930 . S
C4628 C4627 1.401 . S
C4628 C4629 1.376 . S
C4628 C4637 1.511 . S
C4629 C4628 1.376 . S
C4629 C4630 1.392 . S
C4629 H4650 0.931 . S
C4630 C4629 1.392 . S
C4630 C4631 1.361 . S
C4630 C4632 1.500 . S
C4631 C4626 1.390 . S
C4631 C4630 1.361 . S
C4631 H4649 0.931 . S
C4632 C4630 1.500 . S
C4632 C4633 1.371 . S
C4632 C4634 1.365 . S
C4633 C4632 1.371 . S
C4633 C4643 1.386 . S
C4633 H4651 0.931 . S
C4634 C4632 1.365 . S
C4634 C4635 1.409 . S
C4634 H4652 0.929 . S
C4635 C4634 1.409 . S
C4635 C4636 1.380 . S
C4635 H4653 0.930 . S
C4636 C4635 1.380 . S
C4636 C4643 1.357 . S
C4637 C4628 1.511 . S
C4637 C4638 1.341 . S
C4637 C4639 1.371 . S
C4638 C4637 1.341 . S
C4638 C4642 1.394 . S
C4638 H4654 0.930 . S
C4639 C4637 1.371 . S
C4639 C4640 1.392 . S
C4639 H4655 0.931 . S
C4640 C4639 1.392 . S
C4640 C4641 1.331 . S
C4640 H4658 0.932 . S
C4641 C4640 1.331 . S
C4641 C4642 1.336 . S
C4642 C4638 1.394 . S
C4642 C4641 1.336 . S
C4642 H4657 0.929 . S
C4643 C4633 1.386 . S
C4643 C4636 1.357 . S
C4643 H4656 0.928 . S
H4644 C4620 0.931 . S
H4645 C4622 0.930 . S
H4646 C4624 0.929 . S
H4647 C4625 0.931 . S
H4648 C4627 0.930 . S
H4649 C4631 0.931 . S
H4650 C4629 0.931 . S
H4651 C4633 0.931 . S
H4652 C4634 0.929 . S
H4653 C4635 0.930 . S
H4654 C4638 0.930 . S
H4655 C4639 0.931 . S
H4656 C4643 0.928 . S
H4657 C4642 0.929 . S
H4658 C4640 0.932 . S
C4659 C4660 1.386 . S
C4659 C4661 1.397 . S
C4659 H4683 0.931 . S
C4660 C4659 1.386 . S
C4660 C4664 1.397 . S
C4661 C4659 1.397 . S
C4661 C4662 1.384 . S
C4661 H4684 0.930 . S
C4662 C4661 1.384 . S
C4662 C4663 1.377 . S
C4662 C4665 1.481 . S
C4663 C4662 1.377 . S
C4663 C4664 1.389 . S
C4663 H4685 0.929 . S
C4664 C4660 1.397 . S
C4664 C4663 1.389 . S
C4664 H4686 0.931 . S
C4665 C4662 1.481 . S
C4665 C4666 1.387 . S
C4665 C4670 1.390 . S
C4666 C4665 1.387 . S
C4666 C4667 1.401 . S
C4666 H4687 0.930 . S
C4667 C4666 1.401 . S
C4667 C4668 1.376 . S
C4667 C4676 1.511 . S
C4668 C4667 1.376 . S
C4668 C4669 1.392 . S
C4668 H4689 0.931 . S
C4669 C4668 1.392 . S
C4669 C4670 1.361 . S
C4669 C4671 1.500 . S
C4670 C4665 1.390 . S
C4670 C4669 1.361 . S
C4670 H4688 0.931 . S
C4671 C4669 1.500 . S
C4671 C4672 1.371 . S
C4671 C4673 1.365 . S
C4672 C4671 1.371 . S
C4672 C4682 1.386 . S
C4672 H4690 0.931 . S
C4673 C4671 1.365 . S
C4673 C4674 1.409 . S
C4673 H4691 0.929 . S
C4674 C4673 1.409 . S
C4674 C4675 1.380 . S
C4674 H4692 0.930 . S
C4675 C4674 1.380 . S
C4675 C4682 1.357 . S
C4676 C4667 1.511 . S
C4676 C4677 1.341 . S
C4676 C4678 1.371 . S
C4677 C4676 1.341 . S
C4677 C4681 1.394 . S
C4677 H4693 0.930 . S
C4678 C4676 1.371 . S
C4678 C4679 1.392 . S
C4678 H4694 0.931 . S
C4679 C4678 1.392 . S
C4679 C4680 1.331 . S
C4679 H4697 0.932 . S
C4680 C4679 1.331 . S
C4680 C4681 1.336 . S
C4681 C4677 1.394 . S
C4681 C4680 1.336 . S
C4681 H4696 0.929 . S
C4682 C4672 1.386 . S
C4682 C4675 1.357 . S
C4682 H4695 0.928 . S
H4683 C4659 0.931 . S
H4684 C4661 0.930 . S
H4685 C4663 0.929 . S
H4686 C4664 0.931 . S
H4687 C4666 0.930 . S
H4688 C4670 0.931 . S
H4689 C4668 0.931 . S
H4690 C4672 0.931 . S
H4691 C4673 0.929 . S
H4692 C4674 0.930 . S
H4693 C4677 0.930 . S
H4694 C4678 0.931 . S
H4695 C4682 0.928 . S
H4696 C4681 0.929 . S
H4697 C4679 0.932 . S
C4698 C4699 1.386 . S
C4698 C4700 1.397 . S
C4698 H4722 0.931 . S
C4699 C4698 1.386 . S
C4699 C4703 1.397 . S
C4700 C4698 1.397 . S
C4700 C4701 1.384 . S
C4700 H4723 0.930 . S
C4701 C4700 1.384 . S
C4701 C4702 1.377 . S
C4701 C4704 1.481 . S
C4702 C4701 1.377 . S
C4702 C4703 1.389 . S
C4702 H4724 0.929 . S
C4703 C4699 1.397 . S
C4703 C4702 1.389 . S
C4703 H4725 0.931 . S
C4704 C4701 1.481 . S
C4704 C4705 1.387 . S
C4704 C4709 1.390 . S
C4705 C4704 1.387 . S
C4705 C4706 1.401 . S
C4705 H4726 0.930 . S
C4706 C4705 1.401 . S
C4706 C4707 1.376 . S
C4706 C4715 1.511 . S
C4707 C4706 1.376 . S
C4707 C4708 1.392 . S
C4707 H4728 0.931 . S
C4708 C4707 1.392 . S
C4708 C4709 1.361 . S
C4708 C4710 1.500 . S
C4709 C4704 1.390 . S
C4709 C4708 1.361 . S
C4709 H4727 0.931 . S
C4710 C4708 1.500 . S
C4710 C4711 1.371 . S
C4710 C4712 1.365 . S
C4711 C4710 1.371 . S
C4711 C4721 1.386 . S
C4711 H4729 0.931 . S
C4712 C4710 1.365 . S
C4712 C4713 1.409 . S
C4712 H4730 0.929 . S
C4713 C4712 1.409 . S
C4713 C4714 1.380 . S
C4713 H4731 0.930 . S
C4714 C4713 1.380 . S
C4714 C4721 1.357 . S
C4715 C4706 1.511 . S
C4715 C4716 1.341 . S
C4715 C4717 1.371 . S
C4716 C4715 1.341 . S
C4716 C4720 1.394 . S
C4716 H4732 0.930 . S
C4717 C4715 1.371 . S
C4717 C4718 1.392 . S
C4717 H4733 0.931 . S
C4718 C4717 1.392 . S
C4718 C4719 1.331 . S
C4718 H4736 0.932 . S
C4719 C4718 1.331 . S
C4719 C4720 1.336 . S
C4720 C4716 1.394 . S
C4720 C4719 1.336 . S
C4720 H4735 0.929 . S
C4721 C4711 1.386 . S
C4721 C4714 1.357 . S
C4721 H4734 0.928 . S
H4722 C4698 0.931 . S
H4723 C4700 0.930 . S
H4724 C4702 0.929 . S
H4725 C4703 0.931 . S
H4726 C4705 0.930 . S
H4727 C4709 0.931 . S
H4728 C4707 0.931 . S
H4729 C4711 0.931 . S
H4730 C4712 0.929 . S
H4731 C4713 0.930 . S
H4732 C4716 0.930 . S
H4733 C4717 0.931 . S
H4734 C4721 0.928 . S
H4735 C4720 0.929 . S
H4736 C4718 0.932 . S
C4737 C4738 1.386 . S
C4737 C4739 1.397 . S
C4737 H4761 0.931 . S
C4738 C4737 1.386 . S
C4738 C4742 1.397 . S
C4739 C4737 1.397 . S
C4739 C4740 1.384 . S
C4739 H4762 0.930 . S
C4740 C4739 1.384 . S
C4740 C4741 1.377 . S
C4740 C4743 1.481 . S
C4741 C4740 1.377 . S
C4741 C4742 1.389 . S
C4741 H4763 0.929 . S
C4742 C4738 1.397 . S
C4742 C4741 1.389 . S
C4742 H4764 0.931 . S
C4743 C4740 1.481 . S
C4743 C4744 1.387 . S
C4743 C4748 1.390 . S
C4744 C4743 1.387 . S
C4744 C4745 1.401 . S
C4744 H4765 0.930 . S
C4745 C4744 1.401 . S
C4745 C4746 1.376 . S
C4745 C4754 1.511 . S
C4746 C4745 1.376 . S
C4746 C4747 1.392 . S
C4746 H4767 0.931 . S
C4747 C4746 1.392 . S
C4747 C4748 1.361 . S
C4747 C4749 1.500 . S
C4748 C4743 1.390 . S
C4748 C4747 1.361 . S
C4748 H4766 0.931 . S
C4749 C4747 1.500 . S
C4749 C4750 1.371 . S
C4749 C4751 1.365 . S
C4750 C4749 1.371 . S
C4750 C4760 1.386 . S
C4750 H4768 0.931 . S
C4751 C4749 1.365 . S
C4751 C4752 1.409 . S
C4751 H4769 0.929 . S
C4752 C4751 1.409 . S
C4752 C4753 1.380 . S
C4752 H4770 0.930 . S
C4753 C4752 1.380 . S
C4753 C4760 1.357 . S
C4754 C4745 1.511 . S
C4754 C4755 1.341 . S
C4754 C4756 1.371 . S
C4755 C4754 1.341 . S
C4755 C4759 1.394 . S
C4755 H4771 0.930 . S
C4756 C4754 1.371 . S
C4756 C4757 1.392 . S
C4756 H4772 0.931 . S
C4757 C4756 1.392 . S
C4757 C4758 1.331 . S
C4757 H4775 0.932 . S
C4758 C4757 1.331 . S
C4758 C4759 1.336 . S
C4759 C4755 1.394 . S
C4759 C4758 1.336 . S
C4759 H4774 0.929 . S
C4760 C4750 1.386 . S
C4760 C4753 1.357 . S
C4760 H4773 0.928 . S
H4761 C4737 0.931 . S
H4762 C4739 0.930 . S
H4763 C4741 0.929 . S
H4764 C4742 0.931 . S
H4765 C4744 0.930 . S
H4766 C4748 0.931 . S
H4767 C4746 0.931 . S
H4768 C4750 0.931 . S
H4769 C4751 0.929 . S
H4770 C4752 0.930 . S
H4771 C4755 0.930 . S
H4772 C4756 0.931 . S
H4773 C4760 0.928 . S
H4774 C4759 0.929 . S
H4775 C4757 0.932 . S
C4776 C4777 1.386 . S
C4776 C4778 1.397 . S
C4776 H4800 0.931 . S
C4777 C4776 1.386 . S
C4777 C4781 1.397 . S
C4778 C4776 1.397 . S
C4778 C4779 1.384 . S
C4778 H4801 0.930 . S
C4779 C4778 1.384 . S
C4779 C4780 1.377 . S
C4779 C4782 1.481 . S
C4780 C4779 1.377 . S
C4780 C4781 1.389 . S
C4780 H4802 0.929 . S
C4781 C4777 1.397 . S
C4781 C4780 1.389 . S
C4781 H4803 0.931 . S
C4782 C4779 1.481 . S
C4782 C4783 1.387 . S
C4782 C4787 1.390 . S
C4783 C4782 1.387 . S
C4783 C4784 1.401 . S
C4783 H4804 0.930 . S
C4784 C4783 1.401 . S
C4784 C4785 1.376 . S
C4784 C4793 1.511 . S
C4785 C4784 1.376 . S
C4785 C4786 1.392 . S
C4785 H4806 0.931 . S
C4786 C4785 1.392 . S
C4786 C4787 1.361 . S
C4786 C4788 1.500 . S
C4787 C4782 1.390 . S
C4787 C4786 1.361 . S
C4787 H4805 0.931 . S
C4788 C4786 1.500 . S
C4788 C4789 1.371 . S
C4788 C4790 1.365 . S
C4789 C4788 1.371 . S
C4789 C4799 1.386 . S
C4789 H4807 0.931 . S
C4790 C4788 1.365 . S
C4790 C4791 1.409 . S
C4790 H4808 0.929 . S
C4791 C4790 1.409 . S
C4791 C4792 1.380 . S
C4791 H4809 0.930 . S
C4792 C4791 1.380 . S
C4792 C4799 1.357 . S
C4793 C4784 1.511 . S
C4793 C4794 1.341 . S
C4793 C4795 1.371 . S
C4794 C4793 1.341 . S
C4794 C4798 1.394 . S
C4794 H4810 0.930 . S
C4795 C4793 1.371 . S
C4795 C4796 1.392 . S
C4795 H4811 0.931 . S
C4796 C4795 1.392 . S
C4796 C4797 1.331 . S
C4796 H4814 0.932 . S
C4797 C4796 1.331 . S
C4797 C4798 1.336 . S
C4798 C4794 1.394 . S
C4798 C4797 1.336 . S
C4798 H4813 0.929 . S
C4799 C4789 1.386 . S
C4799 C4792 1.357 . S
C4799 H4812 0.928 . S
H4800 C4776 0.931 . S
H4801 C4778 0.930 . S
H4802 C4780 0.929 . S
H4803 C4781 0.931 . S
H4804 C4783 0.930 . S
H4805 C4787 0.931 . S
H4806 C4785 0.931 . S
H4807 C4789 0.931 . S
H4808 C4790 0.929 . S
H4809 C4791 0.930 . S
H4810 C4794 0.930 . S
H4811 C4795 0.931 . S
H4812 C4799 0.928 . S
H4813 C4798 0.929 . S
H4814 C4796 0.932 . S
C4815 C4816 1.386 . S
C4815 C4817 1.397 . S
C4815 H4839 0.931 . S
C4816 C4815 1.386 . S
C4816 C4820 1.397 . S
C4817 C4815 1.397 . S
C4817 C4818 1.384 . S
C4817 H4840 0.930 . S
C4818 C4817 1.384 . S
C4818 C4819 1.377 . S
C4818 C4821 1.481 . S
C4819 C4818 1.377 . S
C4819 C4820 1.389 . S
C4819 H4841 0.929 . S
C4820 C4816 1.397 . S
C4820 C4819 1.389 . S
C4820 H4842 0.931 . S
C4821 C4818 1.481 . S
C4821 C4822 1.387 . S
C4821 C4826 1.390 . S
C4822 C4821 1.387 . S
C4822 C4823 1.401 . S
C4822 H4843 0.930 . S
C4823 C4822 1.401 . S
C4823 C4824 1.376 . S
C4823 C4832 1.511 . S
C4824 C4823 1.376 . S
C4824 C4825 1.392 . S
C4824 H4845 0.931 . S
C4825 C4824 1.392 . S
C4825 C4826 1.361 . S
C4825 C4827 1.500 . S
C4826 C4821 1.390 . S
C4826 C4825 1.361 . S
C4826 H4844 0.931 . S
C4827 C4825 1.500 . S
C4827 C4828 1.371 . S
C4827 C4829 1.365 . S
C4828 C4827 1.371 . S
C4828 C4838 1.386 . S
C4828 H4846 0.931 . S
C4829 C4827 1.365 . S
C4829 C4830 1.409 . S
C4829 H4847 0.929 . S
C4830 C4829 1.409 . S
C4830 C4831 1.380 . S
C4830 H4848 0.930 . S
C4831 C4830 1.380 . S
C4831 C4838 1.357 . S
C4832 C4823 1.511 . S
C4832 C4833 1.341 . S
C4832 C4834 1.371 . S
C4833 C4832 1.341 . S
C4833 C4837 1.394 . S
C4833 H4849 0.930 . S
C4834 C4832 1.371 . S
C4834 C4835 1.392 . S
C4834 H4850 0.931 . S
C4835 C4834 1.392 . S
C4835 C4836 1.331 . S
C4835 H4853 0.932 . S
C4836 C4835 1.331 . S
C4836 C4837 1.336 . S
C4837 C4833 1.394 . S
C4837 C4836 1.336 . S
C4837 H4852 0.929 . S
C4838 C4828 1.386 . S
C4838 C4831 1.357 . S
C4838 H4851 0.928 . S
H4839 C4815 0.931 . S
H4840 C4817 0.930 . S
H4841 C4819 0.929 . S
H4842 C4820 0.931 . S
H4843 C4822 0.930 . S
H4844 C4826 0.931 . S
H4845 C4824 0.931 . S
H4846 C4828 0.931 . S
H4847 C4829 0.929 . S
H4848 C4830 0.930 . S
H4849 C4833 0.930 . S
H4850 C4834 0.931 . S
H4851 C4838 0.928 . S
H4852 C4837 0.929 . S
H4853 C4835 0.932 . S
C4854 C4855 1.386 . S
C4854 C4856 1.397 . S
C4854 H4878 0.931 . S
C4855 C4854 1.386 . S
C4855 C4859 1.397 . S
C4856 C4854 1.397 . S
C4856 C4857 1.384 . S
C4856 H4879 0.930 . S
C4857 C4856 1.384 . S
C4857 C4858 1.377 . S
C4857 C4860 1.481 . S
C4858 C4857 1.377 . S
C4858 C4859 1.389 . S
C4858 H4880 0.929 . S
C4859 C4855 1.397 . S
C4859 C4858 1.389 . S
C4859 H4881 0.931 . S
C4860 C4857 1.481 . S
C4860 C4861 1.387 . S
C4860 C4865 1.390 . S
C4861 C4860 1.387 . S
C4861 C4862 1.401 . S
C4861 H4882 0.930 . S
C4862 C4861 1.401 . S
C4862 C4863 1.376 . S
C4862 C4871 1.511 . S
C4863 C4862 1.376 . S
C4863 C4864 1.392 . S
C4863 H4884 0.931 . S
C4864 C4863 1.392 . S
C4864 C4865 1.361 . S
C4864 C4866 1.500 . S
C4865 C4860 1.390 . S
C4865 C4864 1.361 . S
C4865 H4883 0.931 . S
C4866 C4864 1.500 . S
C4866 C4867 1.371 . S
C4866 C4868 1.365 . S
C4867 C4866 1.371 . S
C4867 C4877 1.386 . S
C4867 H4885 0.931 . S
C4868 C4866 1.365 . S
C4868 C4869 1.409 . S
C4868 H4886 0.929 . S
C4869 C4868 1.409 . S
C4869 C4870 1.380 . S
C4869 H4887 0.930 . S
C4870 C4869 1.380 . S
C4870 C4877 1.357 . S
C4871 C4862 1.511 . S
C4871 C4872 1.341 . S
C4871 C4873 1.371 . S
C4872 C4871 1.341 . S
C4872 C4876 1.394 . S
C4872 H4888 0.930 . S
C4873 C4871 1.371 . S
C4873 C4874 1.392 . S
C4873 H4889 0.931 . S
C4874 C4873 1.392 . S
C4874 C4875 1.331 . S
C4874 H4892 0.932 . S
C4875 C4874 1.331 . S
C4875 C4876 1.336 . S
C4876 C4872 1.394 . S
C4876 C4875 1.336 . S
C4876 H4891 0.929 . S
C4877 C4867 1.386 . S
C4877 C4870 1.357 . S
C4877 H4890 0.928 . S
H4878 C4854 0.931 . S
H4879 C4856 0.930 . S
H4880 C4858 0.929 . S
H4881 C4859 0.931 . S
H4882 C4861 0.930 . S
H4883 C4865 0.931 . S
H4884 C4863 0.931 . S
H4885 C4867 0.931 . S
H4886 C4868 0.929 . S
H4887 C4869 0.930 . S
H4888 C4872 0.930 . S
H4889 C4873 0.931 . S
H4890 C4877 0.928 . S
H4891 C4876 0.929 . S
H4892 C4874 0.932 . S
C4893 C4894 1.386 . S
C4893 C4895 1.397 . S
C4893 H4917 0.931 . S
C4894 C4893 1.386 . S
C4894 C4898 1.397 . S
C4895 C4893 1.397 . S
C4895 C4896 1.384 . S
C4895 H4918 0.930 . S
C4896 C4895 1.384 . S
C4896 C4897 1.377 . S
C4896 C4899 1.481 . S
C4897 C4896 1.377 . S
C4897 C4898 1.389 . S
C4897 H4919 0.929 . S
C4898 C4894 1.397 . S
C4898 C4897 1.389 . S
C4898 H4920 0.931 . S
C4899 C4896 1.481 . S
C4899 C4900 1.387 . S
C4899 C4904 1.390 . S
C4900 C4899 1.387 . S
C4900 C4901 1.401 . S
C4900 H4921 0.930 . S
C4901 C4900 1.401 . S
C4901 C4902 1.376 . S
C4901 C4910 1.511 . S
C4902 C4901 1.376 . S
C4902 C4903 1.392 . S
C4902 H4923 0.931 . S
C4903 C4902 1.392 . S
C4903 C4904 1.361 . S
C4903 C4905 1.500 . S
C4904 C4899 1.390 . S
C4904 C4903 1.361 . S
C4904 H4922 0.931 . S
C4905 C4903 1.500 . S
C4905 C4906 1.371 . S
C4905 C4907 1.365 . S
C4906 C4905 1.371 . S
C4906 C4916 1.386 . S
C4906 H4924 0.931 . S
C4907 C4905 1.365 . S
C4907 C4908 1.409 . S
C4907 H4925 0.929 . S
C4908 C4907 1.409 . S
C4908 C4909 1.380 . S
C4908 H4926 0.930 . S
C4909 C4908 1.380 . S
C4909 C4916 1.357 . S
C4910 C4901 1.511 . S
C4910 C4911 1.341 . S
C4910 C4912 1.371 . S
C4911 C4910 1.341 . S
C4911 C4915 1.394 . S
C4911 H4927 0.930 . S
C4912 C4910 1.371 . S
C4912 C4913 1.392 . S
C4912 H4928 0.931 . S
C4913 C4912 1.392 . S
C4913 C4914 1.331 . S
C4913 H4931 0.932 . S
C4914 C4913 1.331 . S
C4914 C4915 1.336 . S
C4915 C4911 1.394 . S
C4915 C4914 1.336 . S
C4915 H4930 0.929 . S
C4916 C4906 1.386 . S
C4916 C4909 1.357 . S
C4916 H4929 0.928 . S
H4917 C4893 0.931 . S
H4918 C4895 0.930 . S
H4919 C4897 0.929 . S
H4920 C4898 0.931 . S
H4921 C4900 0.930 . S
H4922 C4904 0.931 . S
H4923 C4902 0.931 . S
H4924 C4906 0.931 . S
H4925 C4907 0.929 . S
H4926 C4908 0.930 . S
H4927 C4911 0.930 . S
H4928 C4912 0.931 . S
H4929 C4916 0.928 . S
H4930 C4915 0.929 . S
H4931 C4913 0.932 . S
C4932 C4933 1.386 . S
C4932 C4934 1.397 . S
C4932 H4956 0.931 . S
C4933 C4932 1.386 . S
C4933 C4937 1.397 . S
C4934 C4932 1.397 . S
C4934 C4935 1.384 . S
C4934 H4957 0.930 . S
C4935 C4934 1.384 . S
C4935 C4936 1.377 . S
C4935 C4938 1.481 . S
C4936 C4935 1.377 . S
C4936 C4937 1.389 . S
C4936 H4958 0.929 . S
C4937 C4933 1.397 . S
C4937 C4936 1.389 . S
C4937 H4959 0.931 . S
C4938 C4935 1.481 . S
C4938 C4939 1.387 . S
C4938 C4943 1.390 . S
C4939 C4938 1.387 . S
C4939 C4940 1.401 . S
C4939 H4960 0.930 . S
C4940 C4939 1.401 . S
C4940 C4941 1.376 . S
C4940 C4949 1.511 . S
C4941 C4940 1.376 . S
C4941 C4942 1.392 . S
C4941 H4962 0.931 . S
C4942 C4941 1.392 . S
C4942 C4943 1.361 . S
C4942 C4944 1.500 . S
C4943 C4938 1.390 . S
C4943 C4942 1.361 . S
C4943 H4961 0.931 . S
C4944 C4942 1.500 . S
C4944 C4945 1.371 . S
C4944 C4946 1.365 . S
C4945 C4944 1.371 . S
C4945 C4955 1.386 . S
C4945 H4963 0.931 . S
C4946 C4944 1.365 . S
C4946 C4947 1.409 . S
C4946 H4964 0.929 . S
C4947 C4946 1.409 . S
C4947 C4948 1.380 . S
C4947 H4965 0.930 . S
C4948 C4947 1.380 . S
C4948 C4955 1.357 . S
C4949 C4940 1.511 . S
C4949 C4950 1.341 . S
C4949 C4951 1.371 . S
C4950 C4949 1.341 . S
C4950 C4954 1.394 . S
C4950 H4966 0.930 . S
C4951 C4949 1.371 . S
C4951 C4952 1.392 . S
C4951 H4967 0.931 . S
C4952 C4951 1.392 . S
C4952 C4953 1.331 . S
C4952 H4970 0.932 . S
C4953 C4952 1.331 . S
C4953 C4954 1.336 . S
C4954 C4950 1.394 . S
C4954 C4953 1.336 . S
C4954 H4969 0.929 . S
C4955 C4945 1.386 . S
C4955 C4948 1.357 . S
C4955 H4968 0.928 . S
H4956 C4932 0.931 . S
H4957 C4934 0.930 . S
H4958 C4936 0.929 . S
H4959 C4937 0.931 . S
H4960 C4939 0.930 . S
H4961 C4943 0.931 . S
H4962 C4941 0.931 . S
H4963 C4945 0.931 . S
H4964 C4946 0.929 . S
H4965 C4947 0.930 . S
H4966 C4950 0.930 . S
H4967 C4951 0.931 . S
H4968 C4955 0.928 . S
H4969 C4954 0.929 . S
H4970 C4952 0.932 . S
C4971 C4972 1.386 . S
C4971 C4973 1.397 . S
C4971 H4995 0.931 . S
C4972 C4971 1.386 . S
C4972 C4976 1.397 . S
C4973 C4971 1.397 . S
C4973 C4974 1.384 . S
C4973 H4996 0.930 . S
C4974 C4973 1.384 . S
C4974 C4975 1.377 . S
C4974 C4977 1.481 . S
C4975 C4974 1.377 . S
C4975 C4976 1.389 . S
C4975 H4997 0.929 . S
C4976 C4972 1.397 . S
C4976 C4975 1.389 . S
C4976 H4998 0.931 . S
C4977 C4974 1.481 . S
C4977 C4978 1.387 . S
C4977 C4982 1.390 . S
C4978 C4977 1.387 . S
C4978 C4979 1.401 . S
C4978 H4999 0.930 . S
C4979 C4978 1.401 . S
C4979 C4980 1.376 . S
C4979 C4988 1.511 . S
C4980 C4979 1.376 . S
C4980 C4981 1.392 . S
C4980 H5001 0.931 . S
C4981 C4980 1.392 . S
C4981 C4982 1.361 . S
C4981 C4983 1.500 . S
C4982 C4977 1.390 . S
C4982 C4981 1.361 . S
C4982 H5000 0.931 . S
C4983 C4981 1.500 . S
C4983 C4984 1.371 . S
C4983 C4985 1.365 . S
C4984 C4983 1.371 . S
C4984 C4994 1.386 . S
C4984 H5002 0.931 . S
C4985 C4983 1.365 . S
C4985 C4986 1.409 . S
C4985 H5003 0.929 . S
C4986 C4985 1.409 . S
C4986 C4987 1.380 . S
C4986 H5004 0.930 . S
C4987 C4986 1.380 . S
C4987 C4994 1.357 . S
C4988 C4979 1.511 . S
C4988 C4989 1.341 . S
C4988 C4990 1.371 . S
C4989 C4988 1.341 . S
C4989 C4993 1.394 . S
C4989 H5005 0.930 . S
C4990 C4988 1.371 . S
C4990 C4991 1.392 . S
C4990 H5006 0.931 . S
C4991 C4990 1.392 . S
C4991 C4992 1.331 . S
C4991 H5009 0.932 . S
C4992 C4991 1.331 . S
C4992 C4993 1.336 . S
C4993 C4989 1.394 . S
C4993 C4992 1.336 . S
C4993 H5008 0.929 . S
C4994 C4984 1.386 . S
C4994 C4987 1.357 . S
C4994 H5007 0.928 . S
H4995 C4971 0.931 . S
H4996 C4973 0.930 . S
H4997 C4975 0.929 . S
H4998 C4976 0.931 . S
H4999 C4978 0.930 . S
H5000 C4982 0.931 . S
H5001 C4980 0.931 . S
H5002 C4984 0.931 . S
H5003 C4985 0.929 . S
H5004 C4986 0.930 . S
H5005 C4989 0.930 . S
H5006 C4990 0.931 . S
H5007 C4994 0.928 . S
H5008 C4993 0.929 . S
H5009 C4991 0.932 . S
C5010 C5011 1.386 . S
C5010 C5012 1.397 . S
C5010 H5034 0.931 . S
C5011 C5010 1.386 . S
C5011 C5015 1.397 . S
C5012 C5010 1.397 . S
C5012 C5013 1.384 . S
C5012 H5035 0.930 . S
C5013 C5012 1.384 . S
C5013 C5014 1.377 . S
C5013 C5016 1.481 . S
C5014 C5013 1.377 . S
C5014 C5015 1.389 . S
C5014 H5036 0.929 . S
C5015 C5011 1.397 . S
C5015 C5014 1.389 . S
C5015 H5037 0.931 . S
C5016 C5013 1.481 . S
C5016 C5017 1.387 . S
C5016 C5021 1.390 . S
C5017 C5016 1.387 . S
C5017 C5018 1.401 . S
C5017 H5038 0.930 . S
C5018 C5017 1.401 . S
C5018 C5019 1.376 . S
C5018 C5027 1.511 . S
C5019 C5018 1.376 . S
C5019 C5020 1.392 . S
C5019 H5040 0.931 . S
C5020 C5019 1.392 . S
C5020 C5021 1.361 . S
C5020 C5022 1.500 . S
C5021 C5016 1.390 . S
C5021 C5020 1.361 . S
C5021 H5039 0.931 . S
C5022 C5020 1.500 . S
C5022 C5023 1.371 . S
C5022 C5024 1.365 . S
C5023 C5022 1.371 . S
C5023 C5033 1.386 . S
C5023 H5041 0.931 . S
C5024 C5022 1.365 . S
C5024 C5025 1.409 . S
C5024 H5042 0.929 . S
C5025 C5024 1.409 . S
C5025 C5026 1.380 . S
C5025 H5043 0.930 . S
C5026 C5025 1.380 . S
C5026 C5033 1.357 . S
C5027 C5018 1.511 . S
C5027 C5028 1.341 . S
C5027 C5029 1.371 . S
C5028 C5027 1.341 . S
C5028 C5032 1.394 . S
C5028 H5044 0.930 . S
C5029 C5027 1.371 . S
C5029 C5030 1.392 . S
C5029 H5045 0.931 . S
C5030 C5029 1.392 . S
C5030 C5031 1.331 . S
C5030 H5048 0.932 . S
C5031 C5030 1.331 . S
C5031 C5032 1.336 . S
C5032 C5028 1.394 . S
C5032 C5031 1.336 . S
C5032 H5047 0.929 . S
C5033 C5023 1.386 . S
C5033 C5026 1.357 . S
C5033 H5046 0.928 . S
H5034 C5010 0.931 . S
H5035 C5012 0.930 . S
H5036 C5014 0.929 . S
H5037 C5015 0.931 . S
H5038 C5017 0.930 . S
H5039 C5021 0.931 . S
H5040 C5019 0.931 . S
H5041 C5023 0.931 . S
H5042 C5024 0.929 . S
H5043 C5025 0.930 . S
H5044 C5028 0.930 . S
H5045 C5029 0.931 . S
H5046 C5033 0.928 . S
H5047 C5032 0.929 . S
H5048 C5030 0.932 . S
C5049 C5050 1.386 . S
C5049 C5051 1.397 . S
C5049 H5073 0.931 . S
C5050 C5049 1.386 . S
C5050 C5054 1.397 . S
C5051 C5049 1.397 . S
C5051 C5052 1.384 . S
C5051 H5074 0.930 . S
C5052 C5051 1.384 . S
C5052 C5053 1.377 . S
C5052 C5055 1.481 . S
C5053 C5052 1.377 . S
C5053 C5054 1.389 . S
C5053 H5075 0.929 . S
C5054 C5050 1.397 . S
C5054 C5053 1.389 . S
C5054 H5076 0.931 . S
C5055 C5052 1.481 . S
C5055 C5056 1.387 . S
C5055 C5060 1.390 . S
C5056 C5055 1.387 . S
C5056 C5057 1.401 . S
C5056 H5077 0.930 . S
C5057 C5056 1.401 . S
C5057 C5058 1.376 . S
C5057 C5066 1.511 . S
C5058 C5057 1.376 . S
C5058 C5059 1.392 . S
C5058 H5079 0.931 . S
C5059 C5058 1.392 . S
C5059 C5060 1.361 . S
C5059 C5061 1.500 . S
C5060 C5055 1.390 . S
C5060 C5059 1.361 . S
C5060 H5078 0.931 . S
C5061 C5059 1.500 . S
C5061 C5062 1.371 . S
C5061 C5063 1.365 . S
C5062 C5061 1.371 . S
C5062 C5072 1.386 . S
C5062 H5080 0.931 . S
C5063 C5061 1.365 . S
C5063 C5064 1.409 . S
C5063 H5081 0.929 . S
C5064 C5063 1.409 . S
C5064 C5065 1.380 . S
C5064 H5082 0.930 . S
C5065 C5064 1.380 . S
C5065 C5072 1.357 . S
C5066 C5057 1.511 . S
C5066 C5067 1.341 . S
C5066 C5068 1.371 . S
C5067 C5066 1.341 . S
C5067 C5071 1.394 . S
C5067 H5083 0.930 . S
C5068 C5066 1.371 . S
C5068 C5069 1.392 . S
C5068 H5084 0.931 . S
C5069 C5068 1.392 . S
C5069 C5070 1.331 . S
C5069 H5087 0.932 . S
C5070 C5069 1.331 . S
C5070 C5071 1.336 . S
C5071 C5067 1.394 . S
C5071 C5070 1.336 . S
C5071 H5086 0.929 . S
C5072 C5062 1.386 . S
C5072 C5065 1.357 . S
C5072 H5085 0.928 . S
H5073 C5049 0.931 . S
H5074 C5051 0.930 . S
H5075 C5053 0.929 . S
H5076 C5054 0.931 . S
H5077 C5056 0.930 . S
H5078 C5060 0.931 . S
H5079 C5058 0.931 . S
H5080 C5062 0.931 . S
H5081 C5063 0.929 . S
H5082 C5064 0.930 . S
H5083 C5067 0.930 . S
H5084 C5068 0.931 . S
H5085 C5072 0.928 . S
H5086 C5071 0.929 . S
H5087 C5069 0.932 . S
C5088 C5089 1.386 . S
C5088 C5090 1.397 . S
C5088 H5112 0.931 . S
C5089 C5088 1.386 . S
C5089 C5093 1.397 . S
C5090 C5088 1.397 . S
C5090 C5091 1.384 . S
C5090 H5113 0.930 . S
C5091 C5090 1.384 . S
C5091 C5092 1.377 . S
C5091 C5094 1.481 . S
C5092 C5091 1.377 . S
C5092 C5093 1.389 . S
C5092 H5114 0.929 . S
C5093 C5089 1.397 . S
C5093 C5092 1.389 . S
C5093 H5115 0.931 . S
C5094 C5091 1.481 . S
C5094 C5095 1.387 . S
C5094 C5099 1.390 . S
C5095 C5094 1.387 . S
C5095 C5096 1.401 . S
C5095 H5116 0.930 . S
C5096 C5095 1.401 . S
C5096 C5097 1.376 . S
C5096 C5105 1.511 . S
C5097 C5096 1.376 . S
C5097 C5098 1.392 . S
C5097 H5118 0.931 . S
C5098 C5097 1.392 . S
C5098 C5099 1.361 . S
C5098 C5100 1.500 . S
C5099 C5094 1.390 . S
C5099 C5098 1.361 . S
C5099 H5117 0.931 . S
C5100 C5098 1.500 . S
C5100 C5101 1.371 . S
C5100 C5102 1.365 . S
C5101 C5100 1.371 . S
C5101 C5111 1.386 . S
C5101 H5119 0.931 . S
C5102 C5100 1.365 . S
C5102 C5103 1.409 . S
C5102 H5120 0.929 . S
C5103 C5102 1.409 . S
C5103 C5104 1.380 . S
C5103 H5121 0.930 . S
C5104 C5103 1.380 . S
C5104 C5111 1.357 . S
C5105 C5096 1.511 . S
C5105 C5106 1.341 . S
C5105 C5107 1.371 . S
C5106 C5105 1.341 . S
C5106 C5110 1.394 . S
C5106 H5122 0.930 . S
C5107 C5105 1.371 . S
C5107 C5108 1.392 . S
C5107 H5123 0.931 . S
C5108 C5107 1.392 . S
C5108 C5109 1.331 . S
C5108 H5126 0.932 . S
C5109 C5108 1.331 . S
C5109 C5110 1.336 . S
C5110 C5106 1.394 . S
C5110 C5109 1.336 . S
C5110 H5125 0.929 . S
C5111 C5101 1.386 . S
C5111 C5104 1.357 . S
C5111 H5124 0.928 . S
H5112 C5088 0.931 . S
H5113 C5090 0.930 . S
H5114 C5092 0.929 . S
H5115 C5093 0.931 . S
H5116 C5095 0.930 . S
H5117 C5099 0.931 . S
H5118 C5097 0.931 . S
H5119 C5101 0.931 . S
H5120 C5102 0.929 . S
H5121 C5103 0.930 . S
H5122 C5106 0.930 . S
H5123 C5107 0.931 . S
H5124 C5111 0.928 . S
H5125 C5110 0.929 . S
H5126 C5108 0.932 . S
C5127 C5128 1.386 . S
C5127 C5129 1.397 . S
C5127 H5151 0.931 . S
C5128 C5127 1.386 . S
C5128 C5132 1.397 . S
C5129 C5127 1.397 . S
C5129 C5130 1.384 . S
C5129 H5152 0.930 . S
C5130 C5129 1.384 . S
C5130 C5131 1.377 . S
C5130 C5133 1.481 . S
C5131 C5130 1.377 . S
C5131 C5132 1.389 . S
C5131 H5153 0.929 . S
C5132 C5128 1.397 . S
C5132 C5131 1.389 . S
C5132 H5154 0.931 . S
C5133 C5130 1.481 . S
C5133 C5134 1.387 . S
C5133 C5138 1.390 . S
C5134 C5133 1.387 . S
C5134 C5135 1.401 . S
C5134 H5155 0.930 . S
C5135 C5134 1.401 . S
C5135 C5136 1.376 . S
C5135 C5144 1.511 . S
C5136 C5135 1.376 . S
C5136 C5137 1.392 . S
C5136 H5157 0.931 . S
C5137 C5136 1.392 . S
C5137 C5138 1.361 . S
C5137 C5139 1.500 . S
C5138 C5133 1.390 . S
C5138 C5137 1.361 . S
C5138 H5156 0.931 . S
C5139 C5137 1.500 . S
C5139 C5140 1.371 . S
C5139 C5141 1.365 . S
C5140 C5139 1.371 . S
C5140 C5150 1.386 . S
C5140 H5158 0.931 . S
C5141 C5139 1.365 . S
C5141 C5142 1.409 . S
C5141 H5159 0.929 . S
C5142 C5141 1.409 . S
C5142 C5143 1.380 . S
C5142 H5160 0.930 . S
C5143 C5142 1.380 . S
C5143 C5150 1.357 . S
C5144 C5135 1.511 . S
C5144 C5145 1.341 . S
C5144 C5146 1.371 . S
C5145 C5144 1.341 . S
C5145 C5149 1.394 . S
C5145 H5161 0.930 . S
C5146 C5144 1.371 . S
C5146 C5147 1.392 . S
C5146 H5162 0.931 . S
C5147 C5146 1.392 . S
C5147 C5148 1.331 . S
C5147 H5165 0.932 . S
C5148 C5147 1.331 . S
C5148 C5149 1.336 . S
C5149 C5145 1.394 . S
C5149 C5148 1.336 . S
C5149 H5164 0.929 . S
C5150 C5140 1.386 . S
C5150 C5143 1.357 . S
C5150 H5163 0.928 . S
H5151 C5127 0.931 . S
H5152 C5129 0.930 . S
H5153 C5131 0.929 . S
H5154 C5132 0.931 . S
H5155 C5134 0.930 . S
H5156 C5138 0.931 . S
H5157 C5136 0.931 . S
H5158 C5140 0.931 . S
H5159 C5141 0.929 . S
H5160 C5142 0.930 . S
H5161 C5145 0.930 . S
H5162 C5146 0.931 . S
H5163 C5150 0.928 . S
H5164 C5149 0.929 . S
H5165 C5147 0.932 . S
C5166 C5167 1.386 . S
C5166 C5168 1.397 . S
C5166 H5190 0.931 . S
C5167 C5166 1.386 . S
C5167 C5171 1.397 . S
C5168 C5166 1.397 . S
C5168 C5169 1.384 . S
C5168 H5191 0.930 . S
C5169 C5168 1.384 . S
C5169 C5170 1.377 . S
C5169 C5172 1.481 . S
C5170 C5169 1.377 . S
C5170 C5171 1.389 . S
C5170 H5192 0.929 . S
C5171 C5167 1.397 . S
C5171 C5170 1.389 . S
C5171 H5193 0.931 . S
C5172 C5169 1.481 . S
C5172 C5173 1.387 . S
C5172 C5177 1.390 . S
C5173 C5172 1.387 . S
C5173 C5174 1.401 . S
C5173 H5194 0.930 . S
C5174 C5173 1.401 . S
C5174 C5175 1.376 . S
C5174 C5183 1.511 . S
C5175 C5174 1.376 . S
C5175 C5176 1.392 . S
C5175 H5196 0.931 . S
C5176 C5175 1.392 . S
C5176 C5177 1.361 . S
C5176 C5178 1.500 . S
C5177 C5172 1.390 . S
C5177 C5176 1.361 . S
C5177 H5195 0.931 . S
C5178 C5176 1.500 . S
C5178 C5179 1.371 . S
C5178 C5180 1.365 . S
C5179 C5178 1.371 . S
C5179 C5189 1.386 . S
C5179 H5197 0.931 . S
C5180 C5178 1.365 . S
C5180 C5181 1.409 . S
C5180 H5198 0.929 . S
C5181 C5180 1.409 . S
C5181 C5182 1.380 . S
C5181 H5199 0.930 . S
C5182 C5181 1.380 . S
C5182 C5189 1.357 . S
C5183 C5174 1.511 . S
C5183 C5184 1.341 . S
C5183 C5185 1.371 . S
C5184 C5183 1.341 . S
C5184 C5188 1.394 . S
C5184 H5200 0.930 . S
C5185 C5183 1.371 . S
C5185 C5186 1.392 . S
C5185 H5201 0.931 . S
C5186 C5185 1.392 . S
C5186 C5187 1.331 . S
C5186 H5204 0.932 . S
C5187 C5186 1.331 . S
C5187 C5188 1.336 . S
C5188 C5184 1.394 . S
C5188 C5187 1.336 . S
C5188 H5203 0.929 . S
C5189 C5179 1.386 . S
C5189 C5182 1.357 . S
C5189 H5202 0.928 . S
H5190 C5166 0.931 . S
H5191 C5168 0.930 . S
H5192 C5170 0.929 . S
H5193 C5171 0.931 . S
H5194 C5173 0.930 . S
H5195 C5177 0.931 . S
H5196 C5175 0.931 . S
H5197 C5179 0.931 . S
H5198 C5180 0.929 . S
H5199 C5181 0.930 . S
H5200 C5184 0.930 . S
H5201 C5185 0.931 . S
H5202 C5189 0.928 . S
H5203 C5188 0.929 . S
H5204 C5186 0.932 . S
C5205 C5206 1.386 . S
C5205 C5207 1.397 . S
C5205 H5229 0.931 . S
C5206 C5205 1.386 . S
C5206 C5210 1.397 . S
C5207 C5205 1.397 . S
C5207 C5208 1.384 . S
C5207 H5230 0.930 . S
C5208 C5207 1.384 . S
C5208 C5209 1.377 . S
C5208 C5211 1.481 . S
C5209 C5208 1.377 . S
C5209 C5210 1.389 . S
C5209 H5231 0.929 . S
C5210 C5206 1.397 . S
C5210 C5209 1.389 . S
C5210 H5232 0.931 . S
C5211 C5208 1.481 . S
C5211 C5212 1.387 . S
C5211 C5216 1.390 . S
C5212 C5211 1.387 . S
C5212 C5213 1.401 . S
C5212 H5233 0.930 . S
C5213 C5212 1.401 . S
C5213 C5214 1.376 . S
C5213 C5222 1.511 . S
C5214 C5213 1.376 . S
C5214 C5215 1.392 . S
C5214 H5235 0.931 . S
C5215 C5214 1.392 . S
C5215 C5216 1.361 . S
C5215 C5217 1.500 . S
C5216 C5211 1.390 . S
C5216 C5215 1.361 . S
C5216 H5234 0.931 . S
C5217 C5215 1.500 . S
C5217 C5218 1.371 . S
C5217 C5219 1.365 . S
C5218 C5217 1.371 . S
C5218 C5228 1.386 . S
C5218 H5236 0.931 . S
C5219 C5217 1.365 . S
C5219 C5220 1.409 . S
C5219 H5237 0.929 . S
C5220 C5219 1.409 . S
C5220 C5221 1.380 . S
C5220 H5238 0.930 . S
C5221 C5220 1.380 . S
C5221 C5228 1.357 . S
C5222 C5213 1.511 . S
C5222 C5223 1.341 . S
C5222 C5224 1.371 . S
C5223 C5222 1.341 . S
C5223 C5227 1.394 . S
C5223 H5239 0.930 . S
C5224 C5222 1.371 . S
C5224 C5225 1.392 . S
C5224 H5240 0.931 . S
C5225 C5224 1.392 . S
C5225 C5226 1.331 . S
C5225 H5243 0.932 . S
C5226 C5225 1.331 . S
C5226 C5227 1.336 . S
C5227 C5223 1.394 . S
C5227 C5226 1.336 . S
C5227 H5242 0.929 . S
C5228 C5218 1.386 . S
C5228 C5221 1.357 . S
C5228 H5241 0.928 . S
H5229 C5205 0.931 . S
H5230 C5207 0.930 . S
H5231 C5209 0.929 . S
H5232 C5210 0.931 . S
H5233 C5212 0.930 . S
H5234 C5216 0.931 . S
H5235 C5214 0.931 . S
H5236 C5218 0.931 . S
H5237 C5219 0.929 . S
H5238 C5220 0.930 . S
H5239 C5223 0.930 . S
H5240 C5224 0.931 . S
H5241 C5228 0.928 . S
H5242 C5227 0.929 . S
H5243 C5225 0.932 . S
C5244 C5245 1.386 . S
C5244 C5246 1.397 . S
C5244 H5268 0.931 . S
C5245 C5244 1.386 . S
C5245 C5249 1.397 . S
C5246 C5244 1.397 . S
C5246 C5247 1.384 . S
C5246 H5269 0.930 . S
C5247 C5246 1.384 . S
C5247 C5248 1.377 . S
C5247 C5250 1.481 . S
C5248 C5247 1.377 . S
C5248 C5249 1.389 . S
C5248 H5270 0.929 . S
C5249 C5245 1.397 . S
C5249 C5248 1.389 . S
C5249 H5271 0.931 . S
C5250 C5247 1.481 . S
C5250 C5251 1.387 . S
C5250 C5255 1.390 . S
C5251 C5250 1.387 . S
C5251 C5252 1.401 . S
C5251 H5272 0.930 . S
C5252 C5251 1.401 . S
C5252 C5253 1.376 . S
C5252 C5261 1.511 . S
C5253 C5252 1.376 . S
C5253 C5254 1.392 . S
C5253 H5274 0.931 . S
C5254 C5253 1.392 . S
C5254 C5255 1.361 . S
C5254 C5256 1.500 . S
C5255 C5250 1.390 . S
C5255 C5254 1.361 . S
C5255 H5273 0.931 . S
C5256 C5254 1.500 . S
C5256 C5257 1.371 . S
C5256 C5258 1.365 . S
C5257 C5256 1.371 . S
C5257 C5267 1.386 . S
C5257 H5275 0.931 . S
C5258 C5256 1.365 . S
C5258 C5259 1.409 . S
C5258 H5276 0.929 . S
C5259 C5258 1.409 . S
C5259 C5260 1.380 . S
C5259 H5277 0.930 . S
C5260 C5259 1.380 . S
C5260 C5267 1.357 . S
C5261 C5252 1.511 . S
C5261 C5262 1.341 . S
C5261 C5263 1.371 . S
C5262 C5261 1.341 . S
C5262 C5266 1.394 . S
C5262 H5278 0.930 . S
C5263 C5261 1.371 . S
C5263 C5264 1.392 . S
C5263 H5279 0.931 . S
C5264 C5263 1.392 . S
C5264 C5265 1.331 . S
C5264 H5282 0.932 . S
C5265 C5264 1.331 . S
C5265 C5266 1.336 . S
C5266 C5262 1.394 . S
C5266 C5265 1.336 . S
C5266 H5281 0.929 . S
C5267 C5257 1.386 . S
C5267 C5260 1.357 . S
C5267 H5280 0.928 . S
H5268 C5244 0.931 . S
H5269 C5246 0.930 . S
H5270 C5248 0.929 . S
H5271 C5249 0.931 . S
H5272 C5251 0.930 . S
H5273 C5255 0.931 . S
H5274 C5253 0.931 . S
H5275 C5257 0.931 . S
H5276 C5258 0.929 . S
H5277 C5259 0.930 . S
H5278 C5262 0.930 . S
H5279 C5263 0.931 . S
H5280 C5267 0.928 . S
H5281 C5266 0.929 . S
H5282 C5264 0.932 . S
C5283 C5284 1.386 . S
C5283 C5285 1.397 . S
C5283 H5307 0.931 . S
C5284 C5283 1.386 . S
C5284 C5288 1.397 . S
C5285 C5283 1.397 . S
C5285 C5286 1.384 . S
C5285 H5308 0.930 . S
C5286 C5285 1.384 . S
C5286 C5287 1.377 . S
C5286 C5289 1.481 . S
C5287 C5286 1.377 . S
C5287 C5288 1.389 . S
C5287 H5309 0.929 . S
C5288 C5284 1.397 . S
C5288 C5287 1.389 . S
C5288 H5310 0.931 . S
C5289 C5286 1.481 . S
C5289 C5290 1.387 . S
C5289 C5294 1.390 . S
C5290 C5289 1.387 . S
C5290 C5291 1.401 . S
C5290 H5311 0.930 . S
C5291 C5290 1.401 . S
C5291 C5292 1.376 . S
C5291 C5300 1.511 . S
C5292 C5291 1.376 . S
C5292 C5293 1.392 . S
C5292 H5313 0.931 . S
C5293 C5292 1.392 . S
C5293 C5294 1.361 . S
C5293 C5295 1.500 . S
C5294 C5289 1.390 . S
C5294 C5293 1.361 . S
C5294 H5312 0.931 . S
C5295 C5293 1.500 . S
C5295 C5296 1.371 . S
C5295 C5297 1.365 . S
C5296 C5295 1.371 . S
C5296 C5306 1.386 . S
C5296 H5314 0.931 . S
C5297 C5295 1.365 . S
C5297 C5298 1.409 . S
C5297 H5315 0.929 . S
C5298 C5297 1.409 . S
C5298 C5299 1.380 . S
C5298 H5316 0.930 . S
C5299 C5298 1.380 . S
C5299 C5306 1.357 . S
C5300 C5291 1.511 . S
C5300 C5301 1.341 . S
C5300 C5302 1.371 . S
C5301 C5300 1.341 . S
C5301 C5305 1.394 . S
C5301 H5317 0.930 . S
C5302 C5300 1.371 . S
C5302 C5303 1.392 . S
C5302 H5318 0.931 . S
C5303 C5302 1.392 . S
C5303 C5304 1.331 . S
C5303 H5321 0.932 . S
C5304 C5303 1.331 . S
C5304 C5305 1.336 . S
C5305 C5301 1.394 . S
C5305 C5304 1.336 . S
C5305 H5320 0.929 . S
C5306 C5296 1.386 . S
C5306 C5299 1.357 . S
C5306 H5319 0.928 . S
H5307 C5283 0.931 . S
H5308 C5285 0.930 . S
H5309 C5287 0.929 . S
H5310 C5288 0.931 . S
H5311 C5290 0.930 . S
H5312 C5294 0.931 . S
H5313 C5292 0.931 . S
H5314 C5296 0.931 . S
H5315 C5297 0.929 . S
H5316 C5298 0.930 . S
H5317 C5301 0.930 . S
H5318 C5302 0.931 . S
H5319 C5306 0.928 . S
H5320 C5305 0.929 . S
H5321 C5303 0.932 . S
C5322 C5323 1.386 . S
C5322 C5324 1.397 . S
C5322 H5346 0.931 . S
C5323 C5322 1.386 . S
C5323 C5327 1.397 . S
C5324 C5322 1.397 . S
C5324 C5325 1.384 . S
C5324 H5347 0.930 . S
C5325 C5324 1.384 . S
C5325 C5326 1.377 . S
C5325 C5328 1.481 . S
C5326 C5325 1.377 . S
C5326 C5327 1.389 . S
C5326 H5348 0.929 . S
C5327 C5323 1.397 . S
C5327 C5326 1.389 . S
C5327 H5349 0.931 . S
C5328 C5325 1.481 . S
C5328 C5329 1.387 . S
C5328 C5333 1.390 . S
C5329 C5328 1.387 . S
C5329 C5330 1.401 . S
C5329 H5350 0.930 . S
C5330 C5329 1.401 . S
C5330 C5331 1.376 . S
C5330 C5339 1.511 . S
C5331 C5330 1.376 . S
C5331 C5332 1.392 . S
C5331 H5352 0.931 . S
C5332 C5331 1.392 . S
C5332 C5333 1.361 . S
C5332 C5334 1.500 . S
C5333 C5328 1.390 . S
C5333 C5332 1.361 . S
C5333 H5351 0.931 . S
C5334 C5332 1.500 . S
C5334 C5335 1.371 . S
C5334 C5336 1.365 . S
C5335 C5334 1.371 . S
C5335 C5345 1.386 . S
C5335 H5353 0.931 . S
C5336 C5334 1.365 . S
C5336 C5337 1.409 . S
C5336 H5354 0.929 . S
C5337 C5336 1.409 . S
C5337 C5338 1.380 . S
C5337 H5355 0.930 . S
C5338 C5337 1.380 . S
C5338 C5345 1.357 . S
C5339 C5330 1.511 . S
C5339 C5340 1.341 . S
C5339 C5341 1.371 . S
C5340 C5339 1.341 . S
C5340 C5344 1.394 . S
C5340 H5356 0.930 . S
C5341 C5339 1.371 . S
C5341 C5342 1.392 . S
C5341 H5357 0.931 . S
C5342 C5341 1.392 . S
C5342 C5343 1.331 . S
C5342 H5360 0.932 . S
C5343 C5342 1.331 . S
C5343 C5344 1.336 . S
C5344 C5340 1.394 . S
C5344 C5343 1.336 . S
C5344 H5359 0.929 . S
C5345 C5335 1.386 . S
C5345 C5338 1.357 . S
C5345 H5358 0.928 . S
H5346 C5322 0.931 . S
H5347 C5324 0.930 . S
H5348 C5326 0.929 . S
H5349 C5327 0.931 . S
H5350 C5329 0.930 . S
H5351 C5333 0.931 . S
H5352 C5331 0.931 . S
H5353 C5335 0.931 . S
H5354 C5336 0.929 . S
H5355 C5337 0.930 . S
H5356 C5340 0.930 . S
H5357 C5341 0.931 . S
H5358 C5345 0.928 . S
H5359 C5344 0.929 . S
H5360 C5342 0.932 . S
C5361 C5362 1.386 . S
C5361 C5363 1.397 . S
C5361 H5385 0.931 . S
C5362 C5361 1.386 . S
C5362 C5366 1.397 . S
C5363 C5361 1.397 . S
C5363 C5364 1.384 . S
C5363 H5386 0.930 . S
C5364 C5363 1.384 . S
C5364 C5365 1.377 . S
C5364 C5367 1.481 . S
C5365 C5364 1.377 . S
C5365 C5366 1.389 . S
C5365 H5387 0.929 . S
C5366 C5362 1.397 . S
C5366 C5365 1.389 . S
C5366 H5388 0.931 . S
C5367 C5364 1.481 . S
C5367 C5368 1.387 . S
C5367 C5372 1.390 . S
C5368 C5367 1.387 . S
C5368 C5369 1.401 . S
C5368 H5389 0.930 . S
C5369 C5368 1.401 . S
C5369 C5370 1.376 . S
C5369 C5378 1.511 . S
C5370 C5369 1.376 . S
C5370 C5371 1.392 . S
C5370 H5391 0.931 . S
C5371 C5370 1.392 . S
C5371 C5372 1.361 . S
C5371 C5373 1.500 . S
C5372 C5367 1.390 . S
C5372 C5371 1.361 . S
C5372 H5390 0.931 . S
C5373 C5371 1.500 . S
C5373 C5374 1.371 . S
C5373 C5375 1.365 . S
C5374 C5373 1.371 . S
C5374 C5384 1.386 . S
C5374 H5392 0.931 . S
C5375 C5373 1.365 . S
C5375 C5376 1.409 . S
C5375 H5393 0.929 . S
C5376 C5375 1.409 . S
C5376 C5377 1.380 . S
C5376 H5394 0.930 . S
C5377 C5376 1.380 . S
C5377 C5384 1.357 . S
C5378 C5369 1.511 . S
C5378 C5379 1.341 . S
C5378 C5380 1.371 . S
C5379 C5378 1.341 . S
C5379 C5383 1.394 . S
C5379 H5395 0.930 . S
C5380 C5378 1.371 . S
C5380 C5381 1.392 . S
C5380 H5396 0.931 . S
C5381 C5380 1.392 . S
C5381 C5382 1.331 . S
C5381 H5399 0.932 . S
C5382 C5381 1.331 . S
C5382 C5383 1.336 . S
C5383 C5379 1.394 . S
C5383 C5382 1.336 . S
C5383 H5398 0.929 . S
C5384 C5374 1.386 . S
C5384 C5377 1.357 . S
C5384 H5397 0.928 . S
H5385 C5361 0.931 . S
H5386 C5363 0.930 . S
H5387 C5365 0.929 . S
H5388 C5366 0.931 . S
H5389 C5368 0.930 . S
H5390 C5372 0.931 . S
H5391 C5370 0.931 . S
H5392 C5374 0.931 . S
H5393 C5375 0.929 . S
H5394 C5376 0.930 . S
H5395 C5379 0.930 . S
H5396 C5380 0.931 . S
H5397 C5384 0.928 . S
H5398 C5383 0.929 . S
H5399 C5381 0.932 . S
C5400 C5401 1.386 . S
C5400 C5402 1.397 . S
C5400 H5424 0.931 . S
C5401 C5400 1.386 . S
C5401 C5405 1.397 . S
C5402 C5400 1.397 . S
C5402 C5403 1.384 . S
C5402 H5425 0.930 . S
C5403 C5402 1.384 . S
C5403 C5404 1.377 . S
C5403 C5406 1.481 . S
C5404 C5403 1.377 . S
C5404 C5405 1.389 . S
C5404 H5426 0.929 . S
C5405 C5401 1.397 . S
C5405 C5404 1.389 . S
C5405 H5427 0.931 . S
C5406 C5403 1.481 . S
C5406 C5407 1.387 . S
C5406 C5411 1.390 . S
C5407 C5406 1.387 . S
C5407 C5408 1.401 . S
C5407 H5428 0.930 . S
C5408 C5407 1.401 . S
C5408 C5409 1.376 . S
C5408 C5417 1.511 . S
C5409 C5408 1.376 . S
C5409 C5410 1.392 . S
C5409 H5430 0.931 . S
C5410 C5409 1.392 . S
C5410 C5411 1.361 . S
C5410 C5412 1.500 . S
C5411 C5406 1.390 . S
C5411 C5410 1.361 . S
C5411 H5429 0.931 . S
C5412 C5410 1.500 . S
C5412 C5413 1.371 . S
C5412 C5414 1.365 . S
C5413 C5412 1.371 . S
C5413 C5423 1.386 . S
C5413 H5431 0.931 . S
C5414 C5412 1.365 . S
C5414 C5415 1.409 . S
C5414 H5432 0.929 . S
C5415 C5414 1.409 . S
C5415 C5416 1.380 . S
C5415 H5433 0.930 . S
C5416 C5415 1.380 . S
C5416 C5423 1.357 . S
C5417 C5408 1.511 . S
C5417 C5418 1.341 . S
C5417 C5419 1.371 . S
C5418 C5417 1.341 . S
C5418 C5422 1.394 . S
C5418 H5434 0.930 . S
C5419 C5417 1.371 . S
C5419 C5420 1.392 . S
C5419 H5435 0.931 . S
C5420 C5419 1.392 . S
C5420 C5421 1.331 . S
C5420 H5438 0.932 . S
C5421 C5420 1.331 . S
C5421 C5422 1.336 . S
C5422 C5418 1.394 . S
C5422 C5421 1.336 . S
C5422 H5437 0.929 . S
C5423 C5413 1.386 . S
C5423 C5416 1.357 . S
C5423 H5436 0.928 . S
H5424 C5400 0.931 . S
H5425 C5402 0.930 . S
H5426 C5404 0.929 . S
H5427 C5405 0.931 . S
H5428 C5407 0.930 . S
H5429 C5411 0.931 . S
H5430 C5409 0.931 . S
H5431 C5413 0.931 . S
H5432 C5414 0.929 . S
H5433 C5415 0.930 . S
H5434 C5418 0.930 . S
H5435 C5419 0.931 . S
H5436 C5423 0.928 . S
H5437 C5422 0.929 . S
H5438 C5420 0.932 . S
C5439 C5440 1.386 . S
C5439 C5441 1.397 . S
C5439 H5463 0.931 . S
C5440 C5439 1.386 . S
C5440 C5444 1.397 . S
C5441 C5439 1.397 . S
C5441 C5442 1.384 . S
C5441 H5464 0.930 . S
C5442 C5441 1.384 . S
C5442 C5443 1.377 . S
C5442 C5445 1.481 . S
C5443 C5442 1.377 . S
C5443 C5444 1.389 . S
C5443 H5465 0.929 . S
C5444 C5440 1.397 . S
C5444 C5443 1.389 . S
C5444 H5466 0.931 . S
C5445 C5442 1.481 . S
C5445 C5446 1.387 . S
C5445 C5450 1.390 . S
C5446 C5445 1.387 . S
C5446 C5447 1.401 . S
C5446 H5467 0.930 . S
C5447 C5446 1.401 . S
C5447 C5448 1.376 . S
C5447 C5456 1.511 . S
C5448 C5447 1.376 . S
C5448 C5449 1.392 . S
C5448 H5469 0.931 . S
C5449 C5448 1.392 . S
C5449 C5450 1.361 . S
C5449 C5451 1.500 . S
C5450 C5445 1.390 . S
C5450 C5449 1.361 . S
C5450 H5468 0.931 . S
C5451 C5449 1.500 . S
C5451 C5452 1.371 . S
C5451 C5453 1.365 . S
C5452 C5451 1.371 . S
C5452 C5462 1.386 . S
C5452 H5470 0.931 . S
C5453 C5451 1.365 . S
C5453 C5454 1.409 . S
C5453 H5471 0.929 . S
C5454 C5453 1.409 . S
C5454 C5455 1.380 . S
C5454 H5472 0.930 . S
C5455 C5454 1.380 . S
C5455 C5462 1.357 . S
C5456 C5447 1.511 . S
C5456 C5457 1.341 . S
C5456 C5458 1.371 . S
C5457 C5456 1.341 . S
C5457 C5461 1.394 . S
C5457 H5473 0.930 . S
C5458 C5456 1.371 . S
C5458 C5459 1.392 . S
C5458 H5474 0.931 . S
C5459 C5458 1.392 . S
C5459 C5460 1.331 . S
C5459 H5477 0.932 . S
C5460 C5459 1.331 . S
C5460 C5461 1.336 . S
C5461 C5457 1.394 . S
C5461 C5460 1.336 . S
C5461 H5476 0.929 . S
C5462 C5452 1.386 . S
C5462 C5455 1.357 . S
C5462 H5475 0.928 . S
H5463 C5439 0.931 . S
H5464 C5441 0.930 . S
H5465 C5443 0.929 . S
H5466 C5444 0.931 . S
H5467 C5446 0.930 . S
H5468 C5450 0.931 . S
H5469 C5448 0.931 . S
H5470 C5452 0.931 . S
H5471 C5453 0.929 . S
H5472 C5454 0.930 . S
H5473 C5457 0.930 . S
H5474 C5458 0.931 . S
H5475 C5462 0.928 . S
H5476 C5461 0.929 . S
H5477 C5459 0.932 . S
C5478 C5479 1.386 . S
C5478 C5480 1.397 . S
C5478 H5502 0.931 . S
C5479 C5478 1.386 . S
C5479 C5483 1.397 . S
C5480 C5478 1.397 . S
C5480 C5481 1.384 . S
C5480 H5503 0.930 . S
C5481 C5480 1.384 . S
C5481 C5482 1.377 . S
C5481 C5484 1.481 . S
C5482 C5481 1.377 . S
C5482 C5483 1.389 . S
C5482 H5504 0.929 . S
C5483 C5479 1.397 . S
C5483 C5482 1.389 . S
C5483 H5505 0.931 . S
C5484 C5481 1.481 . S
C5484 C5485 1.387 . S
C5484 C5489 1.390 . S
C5485 C5484 1.387 . S
C5485 C5486 1.401 . S
C5485 H5506 0.930 . S
C5486 C5485 1.401 . S
C5486 C5487 1.376 . S
C5486 C5495 1.511 . S
C5487 C5486 1.376 . S
C5487 C5488 1.392 . S
C5487 H5508 0.931 . S
C5488 C5487 1.392 . S
C5488 C5489 1.361 . S
C5488 C5490 1.500 . S
C5489 C5484 1.390 . S
C5489 C5488 1.361 . S
C5489 H5507 0.931 . S
C5490 C5488 1.500 . S
C5490 C5491 1.371 . S
C5490 C5492 1.365 . S
C5491 C5490 1.371 . S
C5491 C5501 1.386 . S
C5491 H5509 0.931 . S
C5492 C5490 1.365 . S
C5492 C5493 1.409 . S
C5492 H5510 0.929 . S
C5493 C5492 1.409 . S
C5493 C5494 1.380 . S
C5493 H5511 0.930 . S
C5494 C5493 1.380 . S
C5494 C5501 1.357 . S
C5495 C5486 1.511 . S
C5495 C5496 1.341 . S
C5495 C5497 1.371 . S
C5496 C5495 1.341 . S
C5496 C5500 1.394 . S
C5496 H5512 0.930 . S
C5497 C5495 1.371 . S
C5497 C5498 1.392 . S
C5497 H5513 0.931 . S
C5498 C5497 1.392 . S
C5498 C5499 1.331 . S
C5498 H5516 0.932 . S
C5499 C5498 1.331 . S
C5499 C5500 1.336 . S
C5500 C5496 1.394 . S
C5500 C5499 1.336 . S
C5500 H5515 0.929 . S
C5501 C5491 1.386 . S
C5501 C5494 1.357 . S
C5501 H5514 0.928 . S
H5502 C5478 0.931 . S
H5503 C5480 0.930 . S
H5504 C5482 0.929 . S
H5505 C5483 0.931 . S
H5506 C5485 0.930 . S
H5507 C5489 0.931 . S
H5508 C5487 0.931 . S
H5509 C5491 0.931 . S
H5510 C5492 0.929 . S
H5511 C5493 0.930 . S
H5512 C5496 0.930 . S
H5513 C5497 0.931 . S
H5514 C5501 0.928 . S
H5515 C5500 0.929 . S
H5516 C5498 0.932 . S
C5517 C5518 1.386 . S
C5517 C5519 1.397 . S
C5517 H5541 0.931 . S
C5518 C5517 1.386 . S
C5518 C5522 1.397 . S
C5519 C5517 1.397 . S
C5519 C5520 1.384 . S
C5519 H5542 0.930 . S
C5520 C5519 1.384 . S
C5520 C5521 1.377 . S
C5520 C5523 1.481 . S
C5521 C5520 1.377 . S
C5521 C5522 1.389 . S
C5521 H5543 0.929 . S
C5522 C5518 1.397 . S
C5522 C5521 1.389 . S
C5522 H5544 0.931 . S
C5523 C5520 1.481 . S
C5523 C5524 1.387 . S
C5523 C5528 1.390 . S
C5524 C5523 1.387 . S
C5524 C5525 1.401 . S
C5524 H5545 0.930 . S
C5525 C5524 1.401 . S
C5525 C5526 1.376 . S
C5525 C5534 1.511 . S
C5526 C5525 1.376 . S
C5526 C5527 1.392 . S
C5526 H5547 0.931 . S
C5527 C5526 1.392 . S
C5527 C5528 1.361 . S
C5527 C5529 1.500 . S
C5528 C5523 1.390 . S
C5528 C5527 1.361 . S
C5528 H5546 0.931 . S
C5529 C5527 1.500 . S
C5529 C5530 1.371 . S
C5529 C5531 1.365 . S
C5530 C5529 1.371 . S
C5530 C5540 1.386 . S
C5530 H5548 0.931 . S
C5531 C5529 1.365 . S
C5531 C5532 1.409 . S
C5531 H5549 0.929 . S
C5532 C5531 1.409 . S
C5532 C5533 1.380 . S
C5532 H5550 0.930 . S
C5533 C5532 1.380 . S
C5533 C5540 1.357 . S
C5534 C5525 1.511 . S
C5534 C5535 1.341 . S
C5534 C5536 1.371 . S
C5535 C5534 1.341 . S
C5535 C5539 1.394 . S
C5535 H5551 0.930 . S
C5536 C5534 1.371 . S
C5536 C5537 1.392 . S
C5536 H5552 0.931 . S
C5537 C5536 1.392 . S
C5537 C5538 1.331 . S
C5537 H5555 0.932 . S
C5538 C5537 1.331 . S
C5538 C5539 1.336 . S
C5539 C5535 1.394 . S
C5539 C5538 1.336 . S
C5539 H5554 0.929 . S
C5540 C5530 1.386 . S
C5540 C5533 1.357 . S
C5540 H5553 0.928 . S
H5541 C5517 0.931 . S
H5542 C5519 0.930 . S
H5543 C5521 0.929 . S
H5544 C5522 0.931 . S
H5545 C5524 0.930 . S
H5546 C5528 0.931 . S
H5547 C5526 0.931 . S
H5548 C5530 0.931 . S
H5549 C5531 0.929 . S
H5550 C5532 0.930 . S
H5551 C5535 0.930 . S
H5552 C5536 0.931 . S
H5553 C5540 0.928 . S
H5554 C5539 0.929 . S
H5555 C5537 0.932 . S
C5556 C5557 1.386 . S
C5556 C5558 1.397 . S
C5556 H5580 0.931 . S
C5557 C5556 1.386 . S
C5557 C5561 1.397 . S
C5558 C5556 1.397 . S
C5558 C5559 1.384 . S
C5558 H5581 0.930 . S
C5559 C5558 1.384 . S
C5559 C5560 1.377 . S
C5559 C5562 1.481 . S
C5560 C5559 1.377 . S
C5560 C5561 1.389 . S
C5560 H5582 0.929 . S
C5561 C5557 1.397 . S
C5561 C5560 1.389 . S
C5561 H5583 0.931 . S
C5562 C5559 1.481 . S
C5562 C5563 1.387 . S
C5562 C5567 1.390 . S
C5563 C5562 1.387 . S
C5563 C5564 1.401 . S
C5563 H5584 0.930 . S
C5564 C5563 1.401 . S
C5564 C5565 1.376 . S
C5564 C5573 1.511 . S
C5565 C5564 1.376 . S
C5565 C5566 1.392 . S
C5565 H5586 0.931 . S
C5566 C5565 1.392 . S
C5566 C5567 1.361 . S
C5566 C5568 1.500 . S
C5567 C5562 1.390 . S
C5567 C5566 1.361 . S
C5567 H5585 0.931 . S
C5568 C5566 1.500 . S
C5568 C5569 1.371 . S
C5568 C5570 1.365 . S
C5569 C5568 1.371 . S
C5569 C5579 1.386 . S
C5569 H5587 0.931 . S
C5570 C5568 1.365 . S
C5570 C5571 1.409 . S
C5570 H5588 0.929 . S
C5571 C5570 1.409 . S
C5571 C5572 1.380 . S
C5571 H5589 0.930 . S
C5572 C5571 1.380 . S
C5572 C5579 1.357 . S
C5573 C5564 1.511 . S
C5573 C5574 1.341 . S
C5573 C5575 1.371 . S
C5574 C5573 1.341 . S
C5574 C5578 1.394 . S
C5574 H5590 0.930 . S
C5575 C5573 1.371 . S
C5575 C5576 1.392 . S
C5575 H5591 0.931 . S
C5576 C5575 1.392 . S
C5576 C5577 1.331 . S
C5576 H5594 0.932 . S
C5577 C5576 1.331 . S
C5577 C5578 1.336 . S
C5578 C5574 1.394 . S
C5578 C5577 1.336 . S
C5578 H5593 0.929 . S
C5579 C5569 1.386 . S
C5579 C5572 1.357 . S
C5579 H5592 0.928 . S
H5580 C5556 0.931 . S
H5581 C5558 0.930 . S
H5582 C5560 0.929 . S
H5583 C5561 0.931 . S
H5584 C5563 0.930 . S
H5585 C5567 0.931 . S
H5586 C5565 0.931 . S
H5587 C5569 0.931 . S
H5588 C5570 0.929 . S
H5589 C5571 0.930 . S
H5590 C5574 0.930 . S
H5591 C5575 0.931 . S
H5592 C5579 0.928 . S
H5593 C5578 0.929 . S
H5594 C5576 0.932 . S
C5595 C5596 1.386 . S
C5595 C5597 1.397 . S
C5595 H5619 0.931 . S
C5596 C5595 1.386 . S
C5596 C5600 1.397 . S
C5597 C5595 1.397 . S
C5597 C5598 1.384 . S
C5597 H5620 0.930 . S
C5598 C5597 1.384 . S
C5598 C5599 1.377 . S
C5598 C5601 1.481 . S
C5599 C5598 1.377 . S
C5599 C5600 1.389 . S
C5599 H5621 0.929 . S
C5600 C5596 1.397 . S
C5600 C5599 1.389 . S
C5600 H5622 0.931 . S
C5601 C5598 1.481 . S
C5601 C5602 1.387 . S
C5601 C5606 1.390 . S
C5602 C5601 1.387 . S
C5602 C5603 1.401 . S
C5602 H5623 0.930 . S
C5603 C5602 1.401 . S
C5603 C5604 1.376 . S
C5603 C5612 1.511 . S
C5604 C5603 1.376 . S
C5604 C5605 1.392 . S
C5604 H5625 0.931 . S
C5605 C5604 1.392 . S
C5605 C5606 1.361 . S
C5605 C5607 1.500 . S
C5606 C5601 1.390 . S
C5606 C5605 1.361 . S
C5606 H5624 0.931 . S
C5607 C5605 1.500 . S
C5607 C5608 1.371 . S
C5607 C5609 1.365 . S
C5608 C5607 1.371 . S
C5608 C5618 1.386 . S
C5608 H5626 0.931 . S
C5609 C5607 1.365 . S
C5609 C5610 1.409 . S
C5609 H5627 0.929 . S
C5610 C5609 1.409 . S
C5610 C5611 1.380 . S
C5610 H5628 0.930 . S
C5611 C5610 1.380 . S
C5611 C5618 1.357 . S
C5612 C5603 1.511 . S
C5612 C5613 1.341 . S
C5612 C5614 1.371 . S
C5613 C5612 1.341 . S
C5613 C5617 1.394 . S
C5613 H5629 0.930 . S
C5614 C5612 1.371 . S
C5614 C5615 1.392 . S
C5614 H5630 0.931 . S
C5615 C5614 1.392 . S
C5615 C5616 1.331 . S
C5615 H5633 0.932 . S
C5616 C5615 1.331 . S
C5616 C5617 1.336 . S
C5617 C5613 1.394 . S
C5617 C5616 1.336 . S
C5617 H5632 0.929 . S
C5618 C5608 1.386 . S
C5618 C5611 1.357 . S
C5618 H5631 0.928 . S
H5619 C5595 0.931 . S
H5620 C5597 0.930 . S
H5621 C5599 0.929 . S
H5622 C5600 0.931 . S
H5623 C5602 0.930 . S
H5624 C5606 0.931 . S
H5625 C5604 0.931 . S
H5626 C5608 0.931 . S
H5627 C5609 0.929 . S
H5628 C5610 0.930 . S
H5629 C5613 0.930 . S
H5630 C5614 0.931 . S
H5631 C5618 0.928 . S
H5632 C5617 0.929 . S
H5633 C5615 0.932 . S
C5634 C5635 1.386 . S
C5634 C5636 1.397 . S
C5634 H5658 0.931 . S
C5635 C5634 1.386 . S
C5635 C5639 1.397 . S
C5636 C5634 1.397 . S
C5636 C5637 1.384 . S
C5636 H5659 0.930 . S
C5637 C5636 1.384 . S
C5637 C5638 1.377 . S
C5637 C5640 1.481 . S
C5638 C5637 1.377 . S
C5638 C5639 1.389 . S
C5638 H5660 0.929 . S
C5639 C5635 1.397 . S
C5639 C5638 1.389 . S
C5639 H5661 0.931 . S
C5640 C5637 1.481 . S
C5640 C5641 1.387 . S
C5640 C5645 1.390 . S
C5641 C5640 1.387 . S
C5641 C5642 1.401 . S
C5641 H5662 0.930 . S
C5642 C5641 1.401 . S
C5642 C5643 1.376 . S
C5642 C5651 1.511 . S
C5643 C5642 1.376 . S
C5643 C5644 1.392 . S
C5643 H5664 0.931 . S
C5644 C5643 1.392 . S
C5644 C5645 1.361 . S
C5644 C5646 1.500 . S
C5645 C5640 1.390 . S
C5645 C5644 1.361 . S
C5645 H5663 0.931 . S
C5646 C5644 1.500 . S
C5646 C5647 1.371 . S
C5646 C5648 1.365 . S
C5647 C5646 1.371 . S
C5647 C5657 1.386 . S
C5647 H5665 0.931 . S
C5648 C5646 1.365 . S
C5648 C5649 1.409 . S
C5648 H5666 0.929 . S
C5649 C5648 1.409 . S
C5649 C5650 1.380 . S
C5649 H5667 0.930 . S
C5650 C5649 1.380 . S
C5650 C5657 1.357 . S
C5651 C5642 1.511 . S
C5651 C5652 1.341 . S
C5651 C5653 1.371 . S
C5652 C5651 1.341 . S
C5652 C5656 1.394 . S
C5652 H5668 0.930 . S
C5653 C5651 1.371 . S
C5653 C5654 1.392 . S
C5653 H5669 0.931 . S
C5654 C5653 1.392 . S
C5654 C5655 1.331 . S
C5654 H5672 0.932 . S
C5655 C5654 1.331 . S
C5655 C5656 1.336 . S
C5656 C5652 1.394 . S
C5656 C5655 1.336 . S
C5656 H5671 0.929 . S
C5657 C5647 1.386 . S
C5657 C5650 1.357 . S
C5657 H5670 0.928 . S
H5658 C5634 0.931 . S
H5659 C5636 0.930 . S
H5660 C5638 0.929 . S
H5661 C5639 0.931 . S
H5662 C5641 0.930 . S
H5663 C5645 0.931 . S
H5664 C5643 0.931 . S
H5665 C5647 0.931 . S
H5666 C5648 0.929 . S
H5667 C5649 0.930 . S
H5668 C5652 0.930 . S
H5669 C5653 0.931 . S
H5670 C5657 0.928 . S
H5671 C5656 0.929 . S
H5672 C5654 0.932 . S
C5673 C5674 1.386 . S
C5673 C5675 1.397 . S
C5673 H5697 0.931 . S
C5674 C5673 1.386 . S
C5674 C5678 1.397 . S
C5675 C5673 1.397 . S
C5675 C5676 1.384 . S
C5675 H5698 0.930 . S
C5676 C5675 1.384 . S
C5676 C5677 1.377 . S
C5676 C5679 1.481 . S
C5677 C5676 1.377 . S
C5677 C5678 1.389 . S
C5677 H5699 0.929 . S
C5678 C5674 1.397 . S
C5678 C5677 1.389 . S
C5678 H5700 0.931 . S
C5679 C5676 1.481 . S
C5679 C5680 1.387 . S
C5679 C5684 1.390 . S
C5680 C5679 1.387 . S
C5680 C5681 1.401 . S
C5680 H5701 0.930 . S
C5681 C5680 1.401 . S
C5681 C5682 1.376 . S
C5681 C5690 1.511 . S
C5682 C5681 1.376 . S
C5682 C5683 1.392 . S
C5682 H5703 0.931 . S
C5683 C5682 1.392 . S
C5683 C5684 1.361 . S
C5683 C5685 1.500 . S
C5684 C5679 1.390 . S
C5684 C5683 1.361 . S
C5684 H5702 0.931 . S
C5685 C5683 1.500 . S
C5685 C5686 1.371 . S
C5685 C5687 1.365 . S
C5686 C5685 1.371 . S
C5686 C5696 1.386 . S
C5686 H5704 0.931 . S
C5687 C5685 1.365 . S
C5687 C5688 1.409 . S
C5687 H5705 0.929 . S
C5688 C5687 1.409 . S
C5688 C5689 1.380 . S
C5688 H5706 0.930 . S
C5689 C5688 1.380 . S
C5689 C5696 1.357 . S
C5690 C5681 1.511 . S
C5690 C5691 1.341 . S
C5690 C5692 1.371 . S
C5691 C5690 1.341 . S
C5691 C5695 1.394 . S
C5691 H5707 0.930 . S
C5692 C5690 1.371 . S
C5692 C5693 1.392 . S
C5692 H5708 0.931 . S
C5693 C5692 1.392 . S
C5693 C5694 1.331 . S
C5693 H5711 0.932 . S
C5694 C5693 1.331 . S
C5694 C5695 1.336 . S
C5695 C5691 1.394 . S
C5695 C5694 1.336 . S
C5695 H5710 0.929 . S
C5696 C5686 1.386 . S
C5696 C5689 1.357 . S
C5696 H5709 0.928 . S
H5697 C5673 0.931 . S
H5698 C5675 0.930 . S
H5699 C5677 0.929 . S
H5700 C5678 0.931 . S
H5701 C5680 0.930 . S
H5702 C5684 0.931 . S
H5703 C5682 0.931 . S
H5704 C5686 0.931 . S
H5705 C5687 0.929 . S
H5706 C5688 0.930 . S
H5707 C5691 0.930 . S
H5708 C5692 0.931 . S
H5709 C5696 0.928 . S
H5710 C5695 0.929 . S
H5711 C5693 0.932 . S
C5712 C5713 1.386 . S
C5712 C5714 1.397 . S
C5712 H5736 0.931 . S
C5713 C5712 1.386 . S
C5713 C5717 1.397 . S
C5714 C5712 1.397 . S
C5714 C5715 1.384 . S
C5714 H5737 0.930 . S
C5715 C5714 1.384 . S
C5715 C5716 1.377 . S
C5715 C5718 1.481 . S
C5716 C5715 1.377 . S
C5716 C5717 1.389 . S
C5716 H5738 0.929 . S
C5717 C5713 1.397 . S
C5717 C5716 1.389 . S
C5717 H5739 0.931 . S
C5718 C5715 1.481 . S
C5718 C5719 1.387 . S
C5718 C5723 1.390 . S
C5719 C5718 1.387 . S
C5719 C5720 1.401 . S
C5719 H5740 0.930 . S
C5720 C5719 1.401 . S
C5720 C5721 1.376 . S
C5720 C5729 1.511 . S
C5721 C5720 1.376 . S
C5721 C5722 1.392 . S
C5721 H5742 0.931 . S
C5722 C5721 1.392 . S
C5722 C5723 1.361 . S
C5722 C5724 1.500 . S
C5723 C5718 1.390 . S
C5723 C5722 1.361 . S
C5723 H5741 0.931 . S
C5724 C5722 1.500 . S
C5724 C5725 1.371 . S
C5724 C5726 1.365 . S
C5725 C5724 1.371 . S
C5725 C5735 1.386 . S
C5725 H5743 0.931 . S
C5726 C5724 1.365 . S
C5726 C5727 1.409 . S
C5726 H5744 0.929 . S
C5727 C5726 1.409 . S
C5727 C5728 1.380 . S
C5727 H5745 0.930 . S
C5728 C5727 1.380 . S
C5728 C5735 1.357 . S
C5729 C5720 1.511 . S
C5729 C5730 1.341 . S
C5729 C5731 1.371 . S
C5730 C5729 1.341 . S
C5730 C5734 1.394 . S
C5730 H5746 0.930 . S
C5731 C5729 1.371 . S
C5731 C5732 1.392 . S
C5731 H5747 0.931 . S
C5732 C5731 1.392 . S
C5732 C5733 1.331 . S
C5732 H5750 0.932 . S
C5733 C5732 1.331 . S
C5733 C5734 1.336 . S
C5734 C5730 1.394 . S
C5734 C5733 1.336 . S
C5734 H5749 0.929 . S
C5735 C5725 1.386 . S
C5735 C5728 1.357 . S
C5735 H5748 0.928 . S
H5736 C5712 0.931 . S
H5737 C5714 0.930 . S
H5738 C5716 0.929 . S
H5739 C5717 0.931 . S
H5740 C5719 0.930 . S
H5741 C5723 0.931 . S
H5742 C5721 0.931 . S
H5743 C5725 0.931 . S
H5744 C5726 0.929 . S
H5745 C5727 0.930 . S
H5746 C5730 0.930 . S
H5747 C5731 0.931 . S
H5748 C5735 0.928 . S
H5749 C5734 0.929 . S
H5750 C5732 0.932 . S
C5751 C5752 1.386 . S
C5751 C5753 1.397 . S
C5751 H5775 0.931 . S
C5752 C5751 1.386 . S
C5752 C5756 1.397 . S
C5753 C5751 1.397 . S
C5753 C5754 1.384 . S
C5753 H5776 0.930 . S
C5754 C5753 1.384 . S
C5754 C5755 1.377 . S
C5754 C5757 1.481 . S
C5755 C5754 1.377 . S
C5755 C5756 1.389 . S
C5755 H5777 0.929 . S
C5756 C5752 1.397 . S
C5756 C5755 1.389 . S
C5756 H5778 0.931 . S
C5757 C5754 1.481 . S
C5757 C5758 1.387 . S
C5757 C5762 1.390 . S
C5758 C5757 1.387 . S
C5758 C5759 1.401 . S
C5758 H5779 0.930 . S
C5759 C5758 1.401 . S
C5759 C5760 1.376 . S
C5759 C5768 1.511 . S
C5760 C5759 1.376 . S
C5760 C5761 1.392 . S
C5760 H5781 0.931 . S
C5761 C5760 1.392 . S
C5761 C5762 1.361 . S
C5761 C5763 1.500 . S
C5762 C5757 1.390 . S
C5762 C5761 1.361 . S
C5762 H5780 0.931 . S
C5763 C5761 1.500 . S
C5763 C5764 1.371 . S
C5763 C5765 1.365 . S
C5764 C5763 1.371 . S
C5764 C5774 1.386 . S
C5764 H5782 0.931 . S
C5765 C5763 1.365 . S
C5765 C5766 1.409 . S
C5765 H5783 0.929 . S
C5766 C5765 1.409 . S
C5766 C5767 1.380 . S
C5766 H5784 0.930 . S
C5767 C5766 1.380 . S
C5767 C5774 1.357 . S
C5768 C5759 1.511 . S
C5768 C5769 1.341 . S
C5768 C5770 1.371 . S
C5769 C5768 1.341 . S
C5769 C5773 1.394 . S
C5769 H5785 0.930 . S
C5770 C5768 1.371 . S
C5770 C5771 1.392 . S
C5770 H5786 0.931 . S
C5771 C5770 1.392 . S
C5771 C5772 1.331 . S
C5771 H5789 0.932 . S
C5772 C5771 1.331 . S
C5772 C5773 1.336 . S
C5773 C5769 1.394 . S
C5773 C5772 1.336 . S
C5773 H5788 0.929 . S
C5774 C5764 1.386 . S
C5774 C5767 1.357 . S
C5774 H5787 0.928 . S
H5775 C5751 0.931 . S
H5776 C5753 0.930 . S
H5777 C5755 0.929 . S
H5778 C5756 0.931 . S
H5779 C5758 0.930 . S
H5780 C5762 0.931 . S
H5781 C5760 0.931 . S
H5782 C5764 0.931 . S
H5783 C5765 0.929 . S
H5784 C5766 0.930 . S
H5785 C5769 0.930 . S
H5786 C5770 0.931 . S
H5787 C5774 0.928 . S
H5788 C5773 0.929 . S
H5789 C5771 0.932 . S
C5790 C5791 1.386 . S
C5790 C5792 1.397 . S
C5790 H5814 0.931 . S
C5791 C5790 1.386 . S
C5791 C5795 1.397 . S
C5792 C5790 1.397 . S
C5792 C5793 1.384 . S
C5792 H5815 0.930 . S
C5793 C5792 1.384 . S
C5793 C5794 1.377 . S
C5793 C5796 1.481 . S
C5794 C5793 1.377 . S
C5794 C5795 1.389 . S
C5794 H5816 0.929 . S
C5795 C5791 1.397 . S
C5795 C5794 1.389 . S
C5795 H5817 0.931 . S
C5796 C5793 1.481 . S
C5796 C5797 1.387 . S
C5796 C5801 1.390 . S
C5797 C5796 1.387 . S
C5797 C5798 1.401 . S
C5797 H5818 0.930 . S
C5798 C5797 1.401 . S
C5798 C5799 1.376 . S
C5798 C5807 1.511 . S
C5799 C5798 1.376 . S
C5799 C5800 1.392 . S
C5799 H5820 0.931 . S
C5800 C5799 1.392 . S
C5800 C5801 1.361 . S
C5800 C5802 1.500 . S
C5801 C5796 1.390 . S
C5801 C5800 1.361 . S
C5801 H5819 0.931 . S
C5802 C5800 1.500 . S
C5802 C5803 1.371 . S
C5802 C5804 1.365 . S
C5803 C5802 1.371 . S
C5803 C5813 1.386 . S
C5803 H5821 0.931 . S
C5804 C5802 1.365 . S
C5804 C5805 1.409 . S
C5804 H5822 0.929 . S
C5805 C5804 1.409 . S
C5805 C5806 1.380 . S
C5805 H5823 0.930 . S
C5806 C5805 1.380 . S
C5806 C5813 1.357 . S
C5807 C5798 1.511 . S
C5807 C5808 1.341 . S
C5807 C5809 1.371 . S
C5808 C5807 1.341 . S
C5808 C5812 1.394 . S
C5808 H5824 0.930 . S
C5809 C5807 1.371 . S
C5809 C5810 1.392 . S
C5809 H5825 0.931 . S
C5810 C5809 1.392 . S
C5810 C5811 1.331 . S
C5810 H5828 0.932 . S
C5811 C5810 1.331 . S
C5811 C5812 1.336 . S
C5812 C5808 1.394 . S
C5812 C5811 1.336 . S
C5812 H5827 0.929 . S
C5813 C5803 1.386 . S
C5813 C5806 1.357 . S
C5813 H5826 0.928 . S
H5814 C5790 0.931 . S
H5815 C5792 0.930 . S
H5816 C5794 0.929 . S
H5817 C5795 0.931 . S
H5818 C5797 0.930 . S
H5819 C5801 0.931 . S
H5820 C5799 0.931 . S
H5821 C5803 0.931 . S
H5822 C5804 0.929 . S
H5823 C5805 0.930 . S
H5824 C5808 0.930 . S
H5825 C5809 0.931 . S
H5826 C5813 0.928 . S
H5827 C5812 0.929 . S
H5828 C5810 0.932 . S
C5829 C5830 1.386 . S
C5829 C5831 1.397 . S
C5829 H5853 0.931 . S
C5830 C5829 1.386 . S
C5830 C5834 1.397 . S
C5831 C5829 1.397 . S
C5831 C5832 1.384 . S
C5831 H5854 0.930 . S
C5832 C5831 1.384 . S
C5832 C5833 1.377 . S
C5832 C5835 1.481 . S
C5833 C5832 1.377 . S
C5833 C5834 1.389 . S
C5833 H5855 0.929 . S
C5834 C5830 1.397 . S
C5834 C5833 1.389 . S
C5834 H5856 0.931 . S
C5835 C5832 1.481 . S
C5835 C5836 1.387 . S
C5835 C5840 1.390 . S
C5836 C5835 1.387 . S
C5836 C5837 1.401 . S
C5836 H5857 0.930 . S
C5837 C5836 1.401 . S
C5837 C5838 1.376 . S
C5837 C5846 1.511 . S
C5838 C5837 1.376 . S
C5838 C5839 1.392 . S
C5838 H5859 0.931 . S
C5839 C5838 1.392 . S
C5839 C5840 1.361 . S
C5839 C5841 1.500 . S
C5840 C5835 1.390 . S
C5840 C5839 1.361 . S
C5840 H5858 0.931 . S
C5841 C5839 1.500 . S
C5841 C5842 1.371 . S
C5841 C5843 1.365 . S
C5842 C5841 1.371 . S
C5842 C5852 1.386 . S
C5842 H5860 0.931 . S
C5843 C5841 1.365 . S
C5843 C5844 1.409 . S
C5843 H5861 0.929 . S
C5844 C5843 1.409 . S
C5844 C5845 1.380 . S
C5844 H5862 0.930 . S
C5845 C5844 1.380 . S
C5845 C5852 1.357 . S
C5846 C5837 1.511 . S
C5846 C5847 1.341 . S
C5846 C5848 1.371 . S
C5847 C5846 1.341 . S
C5847 C5851 1.394 . S
C5847 H5863 0.930 . S
C5848 C5846 1.371 . S
C5848 C5849 1.392 . S
C5848 H5864 0.931 . S
C5849 C5848 1.392 . S
C5849 C5850 1.331 . S
C5849 H5867 0.932 . S
C5850 C5849 1.331 . S
C5850 C5851 1.336 . S
C5851 C5847 1.394 . S
C5851 C5850 1.336 . S
C5851 H5866 0.929 . S
C5852 C5842 1.386 . S
C5852 C5845 1.357 . S
C5852 H5865 0.928 . S
H5853 C5829 0.931 . S
H5854 C5831 0.930 . S
H5855 C5833 0.929 . S
H5856 C5834 0.931 . S
H5857 C5836 0.930 . S
H5858 C5840 0.931 . S
H5859 C5838 0.931 . S
H5860 C5842 0.931 . S
H5861 C5843 0.929 . S
H5862 C5844 0.930 . S
H5863 C5847 0.930 . S
H5864 C5848 0.931 . S
H5865 C5852 0.928 . S
H5866 C5851 0.929 . S
H5867 C5849 0.932 . S
C5868 C5869 1.386 . S
C5868 C5870 1.397 . S
C5868 H5892 0.931 . S
C5869 C5868 1.386 . S
C5869 C5873 1.397 . S
C5870 C5868 1.397 . S
C5870 C5871 1.384 . S
C5870 H5893 0.930 . S
C5871 C5870 1.384 . S
C5871 C5872 1.377 . S
C5871 C5874 1.481 . S
C5872 C5871 1.377 . S
C5872 C5873 1.389 . S
C5872 H5894 0.929 . S
C5873 C5869 1.397 . S
C5873 C5872 1.389 . S
C5873 H5895 0.931 . S
C5874 C5871 1.481 . S
C5874 C5875 1.387 . S
C5874 C5879 1.390 . S
C5875 C5874 1.387 . S
C5875 C5876 1.401 . S
C5875 H5896 0.930 . S
C5876 C5875 1.401 . S
C5876 C5877 1.376 . S
C5876 C5885 1.511 . S
C5877 C5876 1.376 . S
C5877 C5878 1.392 . S
C5877 H5898 0.931 . S
C5878 C5877 1.392 . S
C5878 C5879 1.361 . S
C5878 C5880 1.500 . S
C5879 C5874 1.390 . S
C5879 C5878 1.361 . S
C5879 H5897 0.931 . S
C5880 C5878 1.500 . S
C5880 C5881 1.371 . S
C5880 C5882 1.365 . S
C5881 C5880 1.371 . S
C5881 C5891 1.386 . S
C5881 H5899 0.931 . S
C5882 C5880 1.365 . S
C5882 C5883 1.409 . S
C5882 H5900 0.929 . S
C5883 C5882 1.409 . S
C5883 C5884 1.380 . S
C5883 H5901 0.930 . S
C5884 C5883 1.380 . S
C5884 C5891 1.357 . S
C5885 C5876 1.511 . S
C5885 C5886 1.341 . S
C5885 C5887 1.371 . S
C5886 C5885 1.341 . S
C5886 C5890 1.394 . S
C5886 H5902 0.930 . S
C5887 C5885 1.371 . S
C5887 C5888 1.392 . S
C5887 H5903 0.931 . S
C5888 C5887 1.392 . S
C5888 C5889 1.331 . S
C5888 H5906 0.932 . S
C5889 C5888 1.331 . S
C5889 C5890 1.336 . S
C5890 C5886 1.394 . S
C5890 C5889 1.336 . S
C5890 H5905 0.929 . S
C5891 C5881 1.386 . S
C5891 C5884 1.357 . S
C5891 H5904 0.928 . S
H5892 C5868 0.931 . S
H5893 C5870 0.930 . S
H5894 C5872 0.929 . S
H5895 C5873 0.931 . S
H5896 C5875 0.930 . S
H5897 C5879 0.931 . S
H5898 C5877 0.931 . S
H5899 C5881 0.931 . S
H5900 C5882 0.929 . S
H5901 C5883 0.930 . S
H5902 C5886 0.930 . S
H5903 C5887 0.931 . S
H5904 C5891 0.928 . S
H5905 C5890 0.929 . S
H5906 C5888 0.932 . S
C5907 C5908 1.386 . S
C5907 C5909 1.397 . S
C5907 H5931 0.931 . S
C5908 C5907 1.386 . S
C5908 C5912 1.397 . S
C5909 C5907 1.397 . S
C5909 C5910 1.384 . S
C5909 H5932 0.930 . S
C5910 C5909 1.384 . S
C5910 C5911 1.377 . S
C5910 C5913 1.481 . S
C5911 C5910 1.377 . S
C5911 C5912 1.389 . S
C5911 H5933 0.929 . S
C5912 C5908 1.397 . S
C5912 C5911 1.389 . S
C5912 H5934 0.931 . S
C5913 C5910 1.481 . S
C5913 C5914 1.387 . S
C5913 C5918 1.390 . S
C5914 C5913 1.387 . S
C5914 C5915 1.401 . S
C5914 H5935 0.930 . S
C5915 C5914 1.401 . S
C5915 C5916 1.376 . S
C5915 C5924 1.511 . S
C5916 C5915 1.376 . S
C5916 C5917 1.392 . S
C5916 H5937 0.931 . S
C5917 C5916 1.392 . S
C5917 C5918 1.361 . S
C5917 C5919 1.500 . S
C5918 C5913 1.390 . S
C5918 C5917 1.361 . S
C5918 H5936 0.931 . S
C5919 C5917 1.500 . S
C5919 C5920 1.371 . S
C5919 C5921 1.365 . S
C5920 C5919 1.371 . S
C5920 C5930 1.386 . S
C5920 H5938 0.931 . S
C5921 C5919 1.365 . S
C5921 C5922 1.409 . S
C5921 H5939 0.929 . S
C5922 C5921 1.409 . S
C5922 C5923 1.380 . S
C5922 H5940 0.930 . S
C5923 C5922 1.380 . S
C5923 C5930 1.357 . S
C5924 C5915 1.511 . S
C5924 C5925 1.341 . S
C5924 C5926 1.371 . S
C5925 C5924 1.341 . S
C5925 C5929 1.394 . S
C5925 H5941 0.930 . S
C5926 C5924 1.371 . S
C5926 C5927 1.392 . S
C5926 H5942 0.931 . S
C5927 C5926 1.392 . S
C5927 C5928 1.331 . S
C5927 H5945 0.932 . S
C5928 C5927 1.331 . S
C5928 C5929 1.336 . S
C5929 C5925 1.394 . S
C5929 C5928 1.336 . S
C5929 H5944 0.929 . S
C5930 C5920 1.386 . S
C5930 C5923 1.357 . S
C5930 H5943 0.928 . S
H5931 C5907 0.931 . S
H5932 C5909 0.930 . S
H5933 C5911 0.929 . S
H5934 C5912 0.931 . S
H5935 C5914 0.930 . S
H5936 C5918 0.931 . S
H5937 C5916 0.931 . S
H5938 C5920 0.931 . S
H5939 C5921 0.929 . S
H5940 C5922 0.930 . S
H5941 C5925 0.930 . S
H5942 C5926 0.931 . S
H5943 C5930 0.928 . S
H5944 C5929 0.929 . S
H5945 C5927 0.932 . S
C5946 C5947 1.386 . S
C5946 C5948 1.397 . S
C5946 H5970 0.931 . S
C5947 C5946 1.386 . S
C5947 C5951 1.397 . S
C5948 C5946 1.397 . S
C5948 C5949 1.384 . S
C5948 H5971 0.930 . S
C5949 C5948 1.384 . S
C5949 C5950 1.377 . S
C5949 C5952 1.481 . S
C5950 C5949 1.377 . S
C5950 C5951 1.389 . S
C5950 H5972 0.929 . S
C5951 C5947 1.397 . S
C5951 C5950 1.389 . S
C5951 H5973 0.931 . S
C5952 C5949 1.481 . S
C5952 C5953 1.387 . S
C5952 C5957 1.390 . S
C5953 C5952 1.387 . S
C5953 C5954 1.401 . S
C5953 H5974 0.930 . S
C5954 C5953 1.401 . S
C5954 C5955 1.376 . S
C5954 C5963 1.511 . S
C5955 C5954 1.376 . S
C5955 C5956 1.392 . S
C5955 H5976 0.931 . S
C5956 C5955 1.392 . S
C5956 C5957 1.361 . S
C5956 C5958 1.500 . S
C5957 C5952 1.390 . S
C5957 C5956 1.361 . S
C5957 H5975 0.931 . S
C5958 C5956 1.500 . S
C5958 C5959 1.371 . S
C5958 C5960 1.365 . S
C5959 C5958 1.371 . S
C5959 C5969 1.386 . S
C5959 H5977 0.931 . S
C5960 C5958 1.365 . S
C5960 C5961 1.409 . S
C5960 H5978 0.929 . S
C5961 C5960 1.409 . S
C5961 C5962 1.380 . S
C5961 H5979 0.930 . S
C5962 C5961 1.380 . S
C5962 C5969 1.357 . S
C5963 C5954 1.511 . S
C5963 C5964 1.341 . S
C5963 C5965 1.371 . S
C5964 C5963 1.341 . S
C5964 C5968 1.394 . S
C5964 H5980 0.930 . S
C5965 C5963 1.371 . S
C5965 C5966 1.392 . S
C5965 H5981 0.931 . S
C5966 C5965 1.392 . S
C5966 C5967 1.331 . S
C5966 H5984 0.932 . S
C5967 C5966 1.331 . S
C5967 C5968 1.336 . S
C5968 C5964 1.394 . S
C5968 C5967 1.336 . S
C5968 H5983 0.929 . S
C5969 C5959 1.386 . S
C5969 C5962 1.357 . S
C5969 H5982 0.928 . S
H5970 C5946 0.931 . S
H5971 C5948 0.930 . S
H5972 C5950 0.929 . S
H5973 C5951 0.931 . S
H5974 C5953 0.930 . S
H5975 C5957 0.931 . S
H5976 C5955 0.931 . S
H5977 C5959 0.931 . S
H5978 C5960 0.929 . S
H5979 C5961 0.930 . S
H5980 C5964 0.930 . S
H5981 C5965 0.931 . S
H5982 C5969 0.928 . S
H5983 C5968 0.929 . S
H5984 C5966 0.932 . S
C5985 C5986 1.386 . S
C5985 C5987 1.397 . S
C5985 H6009 0.931 . S
C5986 C5985 1.386 . S
C5986 C5990 1.397 . S
C5987 C5985 1.397 . S
C5987 C5988 1.384 . S
C5987 H6010 0.930 . S
C5988 C5987 1.384 . S
C5988 C5989 1.377 . S
C5988 C5991 1.481 . S
C5989 C5988 1.377 . S
C5989 C5990 1.389 . S
C5989 H6011 0.929 . S
C5990 C5986 1.397 . S
C5990 C5989 1.389 . S
C5990 H6012 0.931 . S
C5991 C5988 1.481 . S
C5991 C5992 1.387 . S
C5991 C5996 1.390 . S
C5992 C5991 1.387 . S
C5992 C5993 1.401 . S
C5992 H6013 0.930 . S
C5993 C5992 1.401 . S
C5993 C5994 1.376 . S
C5993 C6002 1.511 . S
C5994 C5993 1.376 . S
C5994 C5995 1.392 . S
C5994 H6015 0.931 . S
C5995 C5994 1.392 . S
C5995 C5996 1.361 . S
C5995 C5997 1.500 . S
C5996 C5991 1.390 . S
C5996 C5995 1.361 . S
C5996 H6014 0.931 . S
C5997 C5995 1.500 . S
C5997 C5998 1.371 . S
C5997 C5999 1.365 . S
C5998 C5997 1.371 . S
C5998 C6008 1.386 . S
C5998 H6016 0.931 . S
C5999 C5997 1.365 . S
C5999 C6000 1.409 . S
C5999 H6017 0.929 . S
C6000 C5999 1.409 . S
C6000 C6001 1.380 . S
C6000 H6018 0.930 . S
C6001 C6000 1.380 . S
C6001 C6008 1.357 . S
C6002 C5993 1.511 . S
C6002 C6003 1.341 . S
C6002 C6004 1.371 . S
C6003 C6002 1.341 . S
C6003 C6007 1.394 . S
C6003 H6019 0.930 . S
C6004 C6002 1.371 . S
C6004 C6005 1.392 . S
C6004 H6020 0.931 . S
C6005 C6004 1.392 . S
C6005 C6006 1.331 . S
C6005 H6023 0.932 . S
C6006 C6005 1.331 . S
C6006 C6007 1.336 . S
C6007 C6003 1.394 . S
C6007 C6006 1.336 . S
C6007 H6022 0.929 . S
C6008 C5998 1.386 . S
C6008 C6001 1.357 . S
C6008 H6021 0.928 . S
H6009 C5985 0.931 . S
H6010 C5987 0.930 . S
H6011 C5989 0.929 . S
H6012 C5990 0.931 . S
H6013 C5992 0.930 . S
H6014 C5996 0.931 . S
H6015 C5994 0.931 . S
H6016 C5998 0.931 . S
H6017 C5999 0.929 . S
H6018 C6000 0.930 . S
H6019 C6003 0.930 . S
H6020 C6004 0.931 . S
H6021 C6008 0.928 . S
H6022 C6007 0.929 . S
H6023 C6005 0.932 . S
C6024 C6025 1.386 . S
C6024 C6026 1.397 . S
C6024 H6048 0.931 . S
C6025 C6024 1.386 . S
C6025 C6029 1.397 . S
C6026 C6024 1.397 . S
C6026 C6027 1.384 . S
C6026 H6049 0.930 . S
C6027 C6026 1.384 . S
C6027 C6028 1.377 . S
C6027 C6030 1.481 . S
C6028 C6027 1.377 . S
C6028 C6029 1.389 . S
C6028 H6050 0.929 . S
C6029 C6025 1.397 . S
C6029 C6028 1.389 . S
C6029 H6051 0.931 . S
C6030 C6027 1.481 . S
C6030 C6031 1.387 . S
C6030 C6035 1.390 . S
C6031 C6030 1.387 . S
C6031 C6032 1.401 . S
C6031 H6052 0.930 . S
C6032 C6031 1.401 . S
C6032 C6033 1.376 . S
C6032 C6041 1.511 . S
C6033 C6032 1.376 . S
C6033 C6034 1.392 . S
C6033 H6054 0.931 . S
C6034 C6033 1.392 . S
C6034 C6035 1.361 . S
C6034 C6036 1.500 . S
C6035 C6030 1.390 . S
C6035 C6034 1.361 . S
C6035 H6053 0.931 . S
C6036 C6034 1.500 . S
C6036 C6037 1.371 . S
C6036 C6038 1.365 . S
C6037 C6036 1.371 . S
C6037 C6047 1.386 . S
C6037 H6055 0.931 . S
C6038 C6036 1.365 . S
C6038 C6039 1.409 . S
C6038 H6056 0.929 . S
C6039 C6038 1.409 . S
C6039 C6040 1.380 . S
C6039 H6057 0.930 . S
C6040 C6039 1.380 . S
C6040 C6047 1.357 . S
C6041 C6032 1.511 . S
C6041 C6042 1.341 . S
C6041 C6043 1.371 . S
C6042 C6041 1.341 . S
C6042 C6046 1.394 . S
C6042 H6058 0.930 . S
C6043 C6041 1.371 . S
C6043 C6044 1.392 . S
C6043 H6059 0.931 . S
C6044 C6043 1.392 . S
C6044 C6045 1.331 . S
C6044 H6062 0.932 . S
C6045 C6044 1.331 . S
C6045 C6046 1.336 . S
C6046 C6042 1.394 . S
C6046 C6045 1.336 . S
C6046 H6061 0.929 . S
C6047 C6037 1.386 . S
C6047 C6040 1.357 . S
C6047 H6060 0.928 . S
H6048 C6024 0.931 . S
H6049 C6026 0.930 . S
H6050 C6028 0.929 . S
H6051 C6029 0.931 . S
H6052 C6031 0.930 . S
H6053 C6035 0.931 . S
H6054 C6033 0.931 . S
H6055 C6037 0.931 . S
H6056 C6038 0.929 . S
H6057 C6039 0.930 . S
H6058 C6042 0.930 . S
H6059 C6043 0.931 . S
H6060 C6047 0.928 . S
H6061 C6046 0.929 . S
H6062 C6044 0.932 . S
C6063 C6064 1.386 . S
C6063 C6065 1.397 . S
C6063 H6087 0.931 . S
C6064 C6063 1.386 . S
C6064 C6068 1.397 . S
C6065 C6063 1.397 . S
C6065 C6066 1.384 . S
C6065 H6088 0.930 . S
C6066 C6065 1.384 . S
C6066 C6067 1.377 . S
C6066 C6069 1.481 . S
C6067 C6066 1.377 . S
C6067 C6068 1.389 . S
C6067 H6089 0.929 . S
C6068 C6064 1.397 . S
C6068 C6067 1.389 . S
C6068 H6090 0.931 . S
C6069 C6066 1.481 . S
C6069 C6070 1.387 . S
C6069 C6074 1.390 . S
C6070 C6069 1.387 . S
C6070 C6071 1.401 . S
C6070 H6091 0.930 . S
C6071 C6070 1.401 . S
C6071 C6072 1.376 . S
C6071 C6080 1.511 . S
C6072 C6071 1.376 . S
C6072 C6073 1.392 . S
C6072 H6093 0.931 . S
C6073 C6072 1.392 . S
C6073 C6074 1.361 . S
C6073 C6075 1.500 . S
C6074 C6069 1.390 . S
C6074 C6073 1.361 . S
C6074 H6092 0.931 . S
C6075 C6073 1.500 . S
C6075 C6076 1.371 . S
C6075 C6077 1.365 . S
C6076 C6075 1.371 . S
C6076 C6086 1.386 . S
C6076 H6094 0.931 . S
C6077 C6075 1.365 . S
C6077 C6078 1.409 . S
C6077 H6095 0.929 . S
C6078 C6077 1.409 . S
C6078 C6079 1.380 . S
C6078 H6096 0.930 . S
C6079 C6078 1.380 . S
C6079 C6086 1.357 . S
C6080 C6071 1.511 . S
C6080 C6081 1.341 . S
C6080 C6082 1.371 . S
C6081 C6080 1.341 . S
C6081 C6085 1.394 . S
C6081 H6097 0.930 . S
C6082 C6080 1.371 . S
C6082 C6083 1.392 . S
C6082 H6098 0.931 . S
C6083 C6082 1.392 . S
C6083 C6084 1.331 . S
C6083 H6101 0.932 . S
C6084 C6083 1.331 . S
C6084 C6085 1.336 . S
C6085 C6081 1.394 . S
C6085 C6084 1.336 . S
C6085 H6100 0.929 . S
C6086 C6076 1.386 . S
C6086 C6079 1.357 . S
C6086 H6099 0.928 . S
H6087 C6063 0.931 . S
H6088 C6065 0.930 . S
H6089 C6067 0.929 . S
H6090 C6068 0.931 . S
H6091 C6070 0.930 . S
H6092 C6074 0.931 . S
H6093 C6072 0.931 . S
H6094 C6076 0.931 . S
H6095 C6077 0.929 . S
H6096 C6078 0.930 . S
H6097 C6081 0.930 . S
H6098 C6082 0.931 . S
H6099 C6086 0.928 . S
H6100 C6085 0.929 . S
H6101 C6083 0.932 . S
C6102 C6103 1.386 . S
C6102 C6104 1.397 . S
C6102 H6126 0.931 . S
C6103 C6102 1.386 . S
C6103 C6107 1.397 . S
C6104 C6102 1.397 . S
C6104 C6105 1.384 . S
C6104 H6127 0.930 . S
C6105 C6104 1.384 . S
C6105 C6106 1.377 . S
C6105 C6108 1.481 . S
C6106 C6105 1.377 . S
C6106 C6107 1.389 . S
C6106 H6128 0.929 . S
C6107 C6103 1.397 . S
C6107 C6106 1.389 . S
C6107 H6129 0.931 . S
C6108 C6105 1.481 . S
C6108 C6109 1.387 . S
C6108 C6113 1.390 . S
C6109 C6108 1.387 . S
C6109 C6110 1.401 . S
C6109 H6130 0.930 . S
C6110 C6109 1.401 . S
C6110 C6111 1.376 . S
C6110 C6119 1.511 . S
C6111 C6110 1.376 . S
C6111 C6112 1.392 . S
C6111 H6132 0.931 . S
C6112 C6111 1.392 . S
C6112 C6113 1.361 . S
C6112 C6114 1.500 . S
C6113 C6108 1.390 . S
C6113 C6112 1.361 . S
C6113 H6131 0.931 . S
C6114 C6112 1.500 . S
C6114 C6115 1.371 . S
C6114 C6116 1.365 . S
C6115 C6114 1.371 . S
C6115 C6125 1.386 . S
C6115 H6133 0.931 . S
C6116 C6114 1.365 . S
C6116 C6117 1.409 . S
C6116 H6134 0.929 . S
C6117 C6116 1.409 . S
C6117 C6118 1.380 . S
C6117 H6135 0.930 . S
C6118 C6117 1.380 . S
C6118 C6125 1.357 . S
C6119 C6110 1.511 . S
C6119 C6120 1.341 . S
C6119 C6121 1.371 . S
C6120 C6119 1.341 . S
C6120 C6124 1.394 . S
C6120 H6136 0.930 . S
C6121 C6119 1.371 . S
C6121 C6122 1.392 . S
C6121 H6137 0.931 . S
C6122 C6121 1.392 . S
C6122 C6123 1.331 . S
C6122 H6140 0.932 . S
C6123 C6122 1.331 . S
C6123 C6124 1.336 . S
C6124 C6120 1.394 . S
C6124 C6123 1.336 . S
C6124 H6139 0.929 . S
C6125 C6115 1.386 . S
C6125 C6118 1.357 . S
C6125 H6138 0.928 . S
H6126 C6102 0.931 . S
H6127 C6104 0.930 . S
H6128 C6106 0.929 . S
H6129 C6107 0.931 . S
H6130 C6109 0.930 . S
H6131 C6113 0.931 . S
H6132 C6111 0.931 . S
H6133 C6115 0.931 . S
H6134 C6116 0.929 . S
H6135 C6117 0.930 . S
H6136 C6120 0.930 . S
H6137 C6121 0.931 . S
H6138 C6125 0.928 . S
H6139 C6124 0.929 . S
H6140 C6122 0.932 . S
C6141 C6142 1.386 . S
C6141 C6143 1.397 . S
C6141 H6165 0.931 . S
C6142 C6141 1.386 . S
C6142 C6146 1.397 . S
C6143 C6141 1.397 . S
C6143 C6144 1.384 . S
C6143 H6166 0.930 . S
C6144 C6143 1.384 . S
C6144 C6145 1.377 . S
C6144 C6147 1.481 . S
C6145 C6144 1.377 . S
C6145 C6146 1.389 . S
C6145 H6167 0.929 . S
C6146 C6142 1.397 . S
C6146 C6145 1.389 . S
C6146 H6168 0.931 . S
C6147 C6144 1.481 . S
C6147 C6148 1.387 . S
C6147 C6152 1.390 . S
C6148 C6147 1.387 . S
C6148 C6149 1.401 . S
C6148 H6169 0.930 . S
C6149 C6148 1.401 . S
C6149 C6150 1.376 . S
C6149 C6158 1.511 . S
C6150 C6149 1.376 . S
C6150 C6151 1.392 . S
C6150 H6171 0.931 . S
C6151 C6150 1.392 . S
C6151 C6152 1.361 . S
C6151 C6153 1.500 . S
C6152 C6147 1.390 . S
C6152 C6151 1.361 . S
C6152 H6170 0.931 . S
C6153 C6151 1.500 . S
C6153 C6154 1.371 . S
C6153 C6155 1.365 . S
C6154 C6153 1.371 . S
C6154 C6164 1.386 . S
C6154 H6172 0.931 . S
C6155 C6153 1.365 . S
C6155 C6156 1.409 . S
C6155 H6173 0.929 . S
C6156 C6155 1.409 . S
C6156 C6157 1.380 . S
C6156 H6174 0.930 . S
C6157 C6156 1.380 . S
C6157 C6164 1.357 . S
C6158 C6149 1.511 . S
C6158 C6159 1.341 . S
C6158 C6160 1.371 . S
C6159 C6158 1.341 . S
C6159 C6163 1.394 . S
C6159 H6175 0.930 . S
C6160 C6158 1.371 . S
C6160 C6161 1.392 . S
C6160 H6176 0.931 . S
C6161 C6160 1.392 . S
C6161 C6162 1.331 . S
C6161 H6179 0.932 . S
C6162 C6161 1.331 . S
C6162 C6163 1.336 . S
C6163 C6159 1.394 . S
C6163 C6162 1.336 . S
C6163 H6178 0.929 . S
C6164 C6154 1.386 . S
C6164 C6157 1.357 . S
C6164 H6177 0.928 . S
H6165 C6141 0.931 . S
H6166 C6143 0.930 . S
H6167 C6145 0.929 . S
H6168 C6146 0.931 . S
H6169 C6148 0.930 . S
H6170 C6152 0.931 . S
H6171 C6150 0.931 . S
H6172 C6154 0.931 . S
H6173 C6155 0.929 . S
H6174 C6156 0.930 . S
H6175 C6159 0.930 . S
H6176 C6160 0.931 . S
H6177 C6164 0.928 . S
H6178 C6163 0.929 . S
H6179 C6161 0.932 . S
C6180 C6181 1.386 . S
C6180 C6182 1.397 . S
C6180 H6204 0.931 . S
C6181 C6180 1.386 . S
C6181 C6185 1.397 . S
C6182 C6180 1.397 . S
C6182 C6183 1.384 . S
C6182 H6205 0.930 . S
C6183 C6182 1.384 . S
C6183 C6184 1.377 . S
C6183 C6186 1.481 . S
C6184 C6183 1.377 . S
C6184 C6185 1.389 . S
C6184 H6206 0.929 . S
C6185 C6181 1.397 . S
C6185 C6184 1.389 . S
C6185 H6207 0.931 . S
C6186 C6183 1.481 . S
C6186 C6187 1.387 . S
C6186 C6191 1.390 . S
C6187 C6186 1.387 . S
C6187 C6188 1.401 . S
C6187 H6208 0.930 . S
C6188 C6187 1.401 . S
C6188 C6189 1.376 . S
C6188 C6197 1.511 . S
C6189 C6188 1.376 . S
C6189 C6190 1.392 . S
C6189 H6210 0.931 . S
C6190 C6189 1.392 . S
C6190 C6191 1.361 . S
C6190 C6192 1.500 . S
C6191 C6186 1.390 . S
C6191 C6190 1.361 . S
C6191 H6209 0.931 . S
C6192 C6190 1.500 . S
C6192 C6193 1.371 . S
C6192 C6194 1.365 . S
C6193 C6192 1.371 . S
C6193 C6203 1.386 . S
C6193 H6211 0.931 . S
C6194 C6192 1.365 . S
C6194 C6195 1.409 . S
C6194 H6212 0.929 . S
C6195 C6194 1.409 . S
C6195 C6196 1.380 . S
C6195 H6213 0.930 . S
C6196 C6195 1.380 . S
C6196 C6203 1.357 . S
C6197 C6188 1.511 . S
C6197 C6198 1.341 . S
C6197 C6199 1.371 . S
C6198 C6197 1.341 . S
C6198 C6202 1.394 . S
C6198 H6214 0.930 . S
C6199 C6197 1.371 . S
C6199 C6200 1.392 . S
C6199 H6215 0.931 . S
C6200 C6199 1.392 . S
C6200 C6201 1.331 . S
C6200 H6218 0.932 . S
C6201 C6200 1.331 . S
C6201 C6202 1.336 . S
C6202 C6198 1.394 . S
C6202 C6201 1.336 . S
C6202 H6217 0.929 . S
C6203 C6193 1.386 . S
C6203 C6196 1.357 . S
C6203 H6216 0.928 . S
H6204 C6180 0.931 . S
H6205 C6182 0.930 . S
H6206 C6184 0.929 . S
H6207 C6185 0.931 . S
H6208 C6187 0.930 . S
H6209 C6191 0.931 . S
H6210 C6189 0.931 . S
H6211 C6193 0.931 . S
H6212 C6194 0.929 . S
H6213 C6195 0.930 . S
H6214 C6198 0.930 . S
H6215 C6199 0.931 . S
H6216 C6203 0.928 . S
H6217 C6202 0.929 . S
H6218 C6200 0.932 . S
C6219 C6220 1.386 . S
C6219 C6221 1.397 . S
C6219 H6243 0.931 . S
C6220 C6219 1.386 . S
C6220 C6224 1.397 . S
C6221 C6219 1.397 . S
C6221 C6222 1.384 . S
C6221 H6244 0.930 . S
C6222 C6221 1.384 . S
C6222 C6223 1.377 . S
C6222 C6225 1.481 . S
C6223 C6222 1.377 . S
C6223 C6224 1.389 . S
C6223 H6245 0.929 . S
C6224 C6220 1.397 . S
C6224 C6223 1.389 . S
C6224 H6246 0.931 . S
C6225 C6222 1.481 . S
C6225 C6226 1.387 . S
C6225 C6230 1.390 . S
C6226 C6225 1.387 . S
C6226 C6227 1.401 . S
C6226 H6247 0.930 . S
C6227 C6226 1.401 . S
C6227 C6228 1.376 . S
C6227 C6236 1.511 . S
C6228 C6227 1.376 . S
C6228 C6229 1.392 . S
C6228 H6249 0.931 . S
C6229 C6228 1.392 . S
C6229 C6230 1.361 . S
C6229 C6231 1.500 . S
C6230 C6225 1.390 . S
C6230 C6229 1.361 . S
C6230 H6248 0.931 . S
C6231 C6229 1.500 . S
C6231 C6232 1.371 . S
C6231 C6233 1.365 . S
C6232 C6231 1.371 . S
C6232 C6242 1.386 . S
C6232 H6250 0.931 . S
C6233 C6231 1.365 . S
C6233 C6234 1.409 . S
C6233 H6251 0.929 . S
C6234 C6233 1.409 . S
C6234 C6235 1.380 . S
C6234 H6252 0.930 . S
C6235 C6234 1.380 . S
C6235 C6242 1.357 . S
C6236 C6227 1.511 . S
C6236 C6237 1.341 . S
C6236 C6238 1.371 . S
C6237 C6236 1.341 . S
C6237 C6241 1.394 . S
C6237 H6253 0.930 . S
C6238 C6236 1.371 . S
C6238 C6239 1.392 . S
C6238 H6254 0.931 . S
C6239 C6238 1.392 . S
C6239 C6240 1.331 . S
C6239 H6257 0.932 . S
C6240 C6239 1.331 . S
C6240 C6241 1.336 . S
C6241 C6237 1.394 . S
C6241 C6240 1.336 . S
C6241 H6256 0.929 . S
C6242 C6232 1.386 . S
C6242 C6235 1.357 . S
C6242 H6255 0.928 . S
H6243 C6219 0.931 . S
H6244 C6221 0.930 . S
H6245 C6223 0.929 . S
H6246 C6224 0.931 . S
H6247 C6226 0.930 . S
H6248 C6230 0.931 . S
H6249 C6228 0.931 . S
H6250 C6232 0.931 . S
H6251 C6233 0.929 . S
H6252 C6234 0.930 . S
H6253 C6237 0.930 . S
H6254 C6238 0.931 . S
H6255 C6242 0.928 . S
H6256 C6241 0.929 . S
H6257 C6239 0.932 . S
C6258 C6259 1.386 . S
C6258 C6260 1.397 . S
C6258 H6282 0.931 . S
C6259 C6258 1.386 . S
C6259 C6263 1.397 . S
C6260 C6258 1.397 . S
C6260 C6261 1.384 . S
C6260 H6283 0.930 . S
C6261 C6260 1.384 . S
C6261 C6262 1.377 . S
C6261 C6264 1.481 . S
C6262 C6261 1.377 . S
C6262 C6263 1.389 . S
C6262 H6284 0.929 . S
C6263 C6259 1.397 . S
C6263 C6262 1.389 . S
C6263 H6285 0.931 . S
C6264 C6261 1.481 . S
C6264 C6265 1.387 . S
C6264 C6269 1.390 . S
C6265 C6264 1.387 . S
C6265 C6266 1.401 . S
C6265 H6286 0.930 . S
C6266 C6265 1.401 . S
C6266 C6267 1.376 . S
C6266 C6275 1.511 . S
C6267 C6266 1.376 . S
C6267 C6268 1.392 . S
C6267 H6288 0.931 . S
C6268 C6267 1.392 . S
C6268 C6269 1.361 . S
C6268 C6270 1.500 . S
C6269 C6264 1.390 . S
C6269 C6268 1.361 . S
C6269 H6287 0.931 . S
C6270 C6268 1.500 . S
C6270 C6271 1.371 . S
C6270 C6272 1.365 . S
C6271 C6270 1.371 . S
C6271 C6281 1.386 . S
C6271 H6289 0.931 . S
C6272 C6270 1.365 . S
C6272 C6273 1.409 . S
C6272 H6290 0.929 . S
C6273 C6272 1.409 . S
C6273 C6274 1.380 . S
C6273 H6291 0.930 . S
C6274 C6273 1.380 . S
C6274 C6281 1.357 . S
C6275 C6266 1.511 . S
C6275 C6276 1.341 . S
C6275 C6277 1.371 . S
C6276 C6275 1.341 . S
C6276 C6280 1.394 . S
C6276 H6292 0.930 . S
C6277 C6275 1.371 . S
C6277 C6278 1.392 . S
C6277 H6293 0.931 . S
C6278 C6277 1.392 . S
C6278 C6279 1.331 . S
C6278 H6296 0.932 . S
C6279 C6278 1.331 . S
C6279 C6280 1.336 . S
C6280 C6276 1.394 . S
C6280 C6279 1.336 . S
C6280 H6295 0.929 . S
C6281 C6271 1.386 . S
C6281 C6274 1.357 . S
C6281 H6294 0.928 . S
H6282 C6258 0.931 . S
H6283 C6260 0.930 . S
H6284 C6262 0.929 . S
H6285 C6263 0.931 . S
H6286 C6265 0.930 . S
H6287 C6269 0.931 . S
H6288 C6267 0.931 . S
H6289 C6271 0.931 . S
H6290 C6272 0.929 . S
H6291 C6273 0.930 . S
H6292 C6276 0.930 . S
H6293 C6277 0.931 . S
H6294 C6281 0.928 . S
H6295 C6280 0.929 . S
H6296 C6278 0.932 . S
C6297 C6298 1.386 . S
C6297 C6299 1.397 . S
C6297 H6321 0.931 . S
C6298 C6297 1.386 . S
C6298 C6302 1.397 . S
C6299 C6297 1.397 . S
C6299 C6300 1.384 . S
C6299 H6322 0.930 . S
C6300 C6299 1.384 . S
C6300 C6301 1.377 . S
C6300 C6303 1.481 . S
C6301 C6300 1.377 . S
C6301 C6302 1.389 . S
C6301 H6323 0.929 . S
C6302 C6298 1.397 . S
C6302 C6301 1.389 . S
C6302 H6324 0.931 . S
C6303 C6300 1.481 . S
C6303 C6304 1.387 . S
C6303 C6308 1.390 . S
C6304 C6303 1.387 . S
C6304 C6305 1.401 . S
C6304 H6325 0.930 . S
C6305 C6304 1.401 . S
C6305 C6306 1.376 . S
C6305 C6314 1.511 . S
C6306 C6305 1.376 . S
C6306 C6307 1.392 . S
C6306 H6327 0.931 . S
C6307 C6306 1.392 . S
C6307 C6308 1.361 . S
C6307 C6309 1.500 . S
C6308 C6303 1.390 . S
C6308 C6307 1.361 . S
C6308 H6326 0.931 . S
C6309 C6307 1.500 . S
C6309 C6310 1.371 . S
C6309 C6311 1.365 . S
C6310 C6309 1.371 . S
C6310 C6320 1.386 . S
C6310 H6328 0.931 . S
C6311 C6309 1.365 . S
C6311 C6312 1.409 . S
C6311 H6329 0.929 . S
C6312 C6311 1.409 . S
C6312 C6313 1.380 . S
C6312 H6330 0.930 . S
C6313 C6312 1.380 . S
C6313 C6320 1.357 . S
C6314 C6305 1.511 . S
C6314 C6315 1.341 . S
C6314 C6316 1.371 . S
C6315 C6314 1.341 . S
C6315 C6319 1.394 . S
C6315 H6331 0.930 . S
C6316 C6314 1.371 . S
C6316 C6317 1.392 . S
C6316 H6332 0.931 . S
C6317 C6316 1.392 . S
C6317 C6318 1.331 . S
C6317 H6335 0.932 . S
C6318 C6317 1.331 . S
C6318 C6319 1.336 . S
C6319 C6315 1.394 . S
C6319 C6318 1.336 . S
C6319 H6334 0.929 . S
C6320 C6310 1.386 . S
C6320 C6313 1.357 . S
C6320 H6333 0.928 . S
H6321 C6297 0.931 . S
H6322 C6299 0.930 . S
H6323 C6301 0.929 . S
H6324 C6302 0.931 . S
H6325 C6304 0.930 . S
H6326 C6308 0.931 . S
H6327 C6306 0.931 . S
H6328 C6310 0.931 . S
H6329 C6311 0.929 . S
H6330 C6312 0.930 . S
H6331 C6315 0.930 . S
H6332 C6316 0.931 . S
H6333 C6320 0.928 . S
H6334 C6319 0.929 . S
H6335 C6317 0.932 . S
C6336 C6337 1.386 . S
C6336 C6338 1.397 . S
C6336 H6360 0.931 . S
C6337 C6336 1.386 . S
C6337 C6341 1.397 . S
C6338 C6336 1.397 . S
C6338 C6339 1.384 . S
C6338 H6361 0.930 . S
C6339 C6338 1.384 . S
C6339 C6340 1.377 . S
C6339 C6342 1.481 . S
C6340 C6339 1.377 . S
C6340 C6341 1.389 . S
C6340 H6362 0.929 . S
C6341 C6337 1.397 . S
C6341 C6340 1.389 . S
C6341 H6363 0.931 . S
C6342 C6339 1.481 . S
C6342 C6343 1.387 . S
C6342 C6347 1.390 . S
C6343 C6342 1.387 . S
C6343 C6344 1.401 . S
C6343 H6364 0.930 . S
C6344 C6343 1.401 . S
C6344 C6345 1.376 . S
C6344 C6353 1.511 . S
C6345 C6344 1.376 . S
C6345 C6346 1.392 . S
C6345 H6366 0.931 . S
C6346 C6345 1.392 . S
C6346 C6347 1.361 . S
C6346 C6348 1.500 . S
C6347 C6342 1.390 . S
C6347 C6346 1.361 . S
C6347 H6365 0.931 . S
C6348 C6346 1.500 . S
C6348 C6349 1.371 . S
C6348 C6350 1.365 . S
C6349 C6348 1.371 . S
C6349 C6359 1.386 . S
C6349 H6367 0.931 . S
C6350 C6348 1.365 . S
C6350 C6351 1.409 . S
C6350 H6368 0.929 . S
C6351 C6350 1.409 . S
C6351 C6352 1.380 . S
C6351 H6369 0.930 . S
C6352 C6351 1.380 . S
C6352 C6359 1.357 . S
C6353 C6344 1.511 . S
C6353 C6354 1.341 . S
C6353 C6355 1.371 . S
C6354 C6353 1.341 . S
C6354 C6358 1.394 . S
C6354 H6370 0.930 . S
C6355 C6353 1.371 . S
C6355 C6356 1.392 . S
C6355 H6371 0.931 . S
C6356 C6355 1.392 . S
C6356 C6357 1.331 . S
C6356 H6374 0.932 . S
C6357 C6356 1.331 . S
C6357 C6358 1.336 . S
C6358 C6354 1.394 . S
C6358 C6357 1.336 . S
C6358 H6373 0.929 . S
C6359 C6349 1.386 . S
C6359 C6352 1.357 . S
C6359 H6372 0.928 . S
H6360 C6336 0.931 . S
H6361 C6338 0.930 . S
H6362 C6340 0.929 . S
H6363 C6341 0.931 . S
H6364 C6343 0.930 . S
H6365 C6347 0.931 . S
H6366 C6345 0.931 . S
H6367 C6349 0.931 . S
H6368 C6350 0.929 . S
H6369 C6351 0.930 . S
H6370 C6354 0.930 . S
H6371 C6355 0.931 . S
H6372 C6359 0.928 . S
H6373 C6358 0.929 . S
H6374 C6356 0.932 . S
C6375 C6376 1.386 . S
C6375 C6377 1.397 . S
C6375 H6399 0.931 . S
C6376 C6375 1.386 . S
C6376 C6380 1.397 . S
C6377 C6375 1.397 . S
C6377 C6378 1.384 . S
C6377 H6400 0.930 . S
C6378 C6377 1.384 . S
C6378 C6379 1.377 . S
C6378 C6381 1.481 . S
C6379 C6378 1.377 . S
C6379 C6380 1.389 . S
C6379 H6401 0.929 . S
C6380 C6376 1.397 . S
C6380 C6379 1.389 . S
C6380 H6402 0.931 . S
C6381 C6378 1.481 . S
C6381 C6382 1.387 . S
C6381 C6386 1.390 . S
C6382 C6381 1.387 . S
C6382 C6383 1.401 . S
C6382 H6403 0.930 . S
C6383 C6382 1.401 . S
C6383 C6384 1.376 . S
C6383 C6392 1.511 . S
C6384 C6383 1.376 . S
C6384 C6385 1.392 . S
C6384 H6405 0.931 . S
C6385 C6384 1.392 . S
C6385 C6386 1.361 . S
C6385 C6387 1.500 . S
C6386 C6381 1.390 . S
C6386 C6385 1.361 . S
C6386 H6404 0.931 . S
C6387 C6385 1.500 . S
C6387 C6388 1.371 . S
C6387 C6389 1.365 . S
C6388 C6387 1.371 . S
C6388 C6398 1.386 . S
C6388 H6406 0.931 . S
C6389 C6387 1.365 . S
C6389 C6390 1.409 . S
C6389 H6407 0.929 . S
C6390 C6389 1.409 . S
C6390 C6391 1.380 . S
C6390 H6408 0.930 . S
C6391 C6390 1.380 . S
C6391 C6398 1.357 . S
C6392 C6383 1.511 . S
C6392 C6393 1.341 . S
C6392 C6394 1.371 . S
C6393 C6392 1.341 . S
C6393 C6397 1.394 . S
C6393 H6409 0.930 . S
C6394 C6392 1.371 . S
C6394 C6395 1.392 . S
C6394 H6410 0.931 . S
C6395 C6394 1.392 . S
C6395 C6396 1.331 . S
C6395 H6413 0.932 . S
C6396 C6395 1.331 . S
C6396 C6397 1.336 . S
C6397 C6393 1.394 . S
C6397 C6396 1.336 . S
C6397 H6412 0.929 . S
C6398 C6388 1.386 . S
C6398 C6391 1.357 . S
C6398 H6411 0.928 . S
H6399 C6375 0.931 . S
H6400 C6377 0.930 . S
H6401 C6379 0.929 . S
H6402 C6380 0.931 . S
H6403 C6382 0.930 . S
H6404 C6386 0.931 . S
H6405 C6384 0.931 . S
H6406 C6388 0.931 . S
H6407 C6389 0.929 . S
H6408 C6390 0.930 . S
H6409 C6393 0.930 . S
H6410 C6394 0.931 . S
H6411 C6398 0.928 . S
H6412 C6397 0.929 . S
H6413 C6395 0.932 . S
C6414 C6415 1.386 . S
C6414 C6416 1.397 . S
C6414 H6438 0.931 . S
C6415 C6414 1.386 . S
C6415 C6419 1.397 . S
C6416 C6414 1.397 . S
C6416 C6417 1.384 . S
C6416 H6439 0.930 . S
C6417 C6416 1.384 . S
C6417 C6418 1.377 . S
C6417 C6420 1.481 . S
C6418 C6417 1.377 . S
C6418 C6419 1.389 . S
C6418 H6440 0.929 . S
C6419 C6415 1.397 . S
C6419 C6418 1.389 . S
C6419 H6441 0.931 . S
C6420 C6417 1.481 . S
C6420 C6421 1.387 . S
C6420 C6425 1.390 . S
C6421 C6420 1.387 . S
C6421 C6422 1.401 . S
C6421 H6442 0.930 . S
C6422 C6421 1.401 . S
C6422 C6423 1.376 . S
C6422 C6431 1.511 . S
C6423 C6422 1.376 . S
C6423 C6424 1.392 . S
C6423 H6444 0.931 . S
C6424 C6423 1.392 . S
C6424 C6425 1.361 . S
C6424 C6426 1.500 . S
C6425 C6420 1.390 . S
C6425 C6424 1.361 . S
C6425 H6443 0.931 . S
C6426 C6424 1.500 . S
C6426 C6427 1.371 . S
C6426 C6428 1.365 . S
C6427 C6426 1.371 . S
C6427 C6437 1.386 . S
C6427 H6445 0.931 . S
C6428 C6426 1.365 . S
C6428 C6429 1.409 . S
C6428 H6446 0.929 . S
C6429 C6428 1.409 . S
C6429 C6430 1.380 . S
C6429 H6447 0.930 . S
C6430 C6429 1.380 . S
C6430 C6437 1.357 . S
C6431 C6422 1.511 . S
C6431 C6432 1.341 . S
C6431 C6433 1.371 . S
C6432 C6431 1.341 . S
C6432 C6436 1.394 . S
C6432 H6448 0.930 . S
C6433 C6431 1.371 . S
C6433 C6434 1.392 . S
C6433 H6449 0.931 . S
C6434 C6433 1.392 . S
C6434 C6435 1.331 . S
C6434 H6452 0.932 . S
C6435 C6434 1.331 . S
C6435 C6436 1.336 . S
C6436 C6432 1.394 . S
C6436 C6435 1.336 . S
C6436 H6451 0.929 . S
C6437 C6427 1.386 . S
C6437 C6430 1.357 . S
C6437 H6450 0.928 . S
H6438 C6414 0.931 . S
H6439 C6416 0.930 . S
H6440 C6418 0.929 . S
H6441 C6419 0.931 . S
H6442 C6421 0.930 . S
H6443 C6425 0.931 . S
H6444 C6423 0.931 . S
H6445 C6427 0.931 . S
H6446 C6428 0.929 . S
H6447 C6429 0.930 . S
H6448 C6432 0.930 . S
H6449 C6433 0.931 . S
H6450 C6437 0.928 . S
H6451 C6436 0.929 . S
H6452 C6434 0.932 . S
C6453 C6454 1.386 . S
C6453 C6455 1.397 . S
C6453 H6477 0.931 . S
C6454 C6453 1.386 . S
C6454 C6458 1.397 . S
C6455 C6453 1.397 . S
C6455 C6456 1.384 . S
C6455 H6478 0.930 . S
C6456 C6455 1.384 . S
C6456 C6457 1.377 . S
C6456 C6459 1.481 . S
C6457 C6456 1.377 . S
C6457 C6458 1.389 . S
C6457 H6479 0.929 . S
C6458 C6454 1.397 . S
C6458 C6457 1.389 . S
C6458 H6480 0.931 . S
C6459 C6456 1.481 . S
C6459 C6460 1.387 . S
C6459 C6464 1.390 . S
C6460 C6459 1.387 . S
C6460 C6461 1.401 . S
C6460 H6481 0.930 . S
C6461 C6460 1.401 . S
C6461 C6462 1.376 . S
C6461 C6470 1.511 . S
C6462 C6461 1.376 . S
C6462 C6463 1.392 . S
C6462 H6483 0.931 . S
C6463 C6462 1.392 . S
C6463 C6464 1.361 . S
C6463 C6465 1.500 . S
C6464 C6459 1.390 . S
C6464 C6463 1.361 . S
C6464 H6482 0.931 . S
C6465 C6463 1.500 . S
C6465 C6466 1.371 . S
C6465 C6467 1.365 . S
C6466 C6465 1.371 . S
C6466 C6476 1.386 . S
C6466 H6484 0.931 . S
C6467 C6465 1.365 . S
C6467 C6468 1.409 . S
C6467 H6485 0.929 . S
C6468 C6467 1.409 . S
C6468 C6469 1.380 . S
C6468 H6486 0.930 . S
C6469 C6468 1.380 . S
C6469 C6476 1.357 . S
C6470 C6461 1.511 . S
C6470 C6471 1.341 . S
C6470 C6472 1.371 . S
C6471 C6470 1.341 . S
C6471 C6475 1.394 . S
C6471 H6487 0.930 . S
C6472 C6470 1.371 . S
C6472 C6473 1.392 . S
C6472 H6488 0.931 . S
C6473 C6472 1.392 . S
C6473 C6474 1.331 . S
C6473 H6491 0.932 . S
C6474 C6473 1.331 . S
C6474 C6475 1.336 . S
C6475 C6471 1.394 . S
C6475 C6474 1.336 . S
C6475 H6490 0.929 . S
C6476 C6466 1.386 . S
C6476 C6469 1.357 . S
C6476 H6489 0.928 . S
H6477 C6453 0.931 . S
H6478 C6455 0.930 . S
H6479 C6457 0.929 . S
H6480 C6458 0.931 . S
H6481 C6460 0.930 . S
H6482 C6464 0.931 . S
H6483 C6462 0.931 . S
H6484 C6466 0.931 . S
H6485 C6467 0.929 . S
H6486 C6468 0.930 . S
H6487 C6471 0.930 . S
H6488 C6472 0.931 . S
H6489 C6476 0.928 . S
H6490 C6475 0.929 . S
H6491 C6473 0.932 . S
C6492 C6493 1.386 . S
C6492 C6494 1.397 . S
C6492 H6516 0.931 . S
C6493 C6492 1.386 . S
C6493 C6497 1.397 . S
C6494 C6492 1.397 . S
C6494 C6495 1.384 . S
C6494 H6517 0.930 . S
C6495 C6494 1.384 . S
C6495 C6496 1.377 . S
C6495 C6498 1.481 . S
C6496 C6495 1.377 . S
C6496 C6497 1.389 . S
C6496 H6518 0.929 . S
C6497 C6493 1.397 . S
C6497 C6496 1.389 . S
C6497 H6519 0.931 . S
C6498 C6495 1.481 . S
C6498 C6499 1.387 . S
C6498 C6503 1.390 . S
C6499 C6498 1.387 . S
C6499 C6500 1.401 . S
C6499 H6520 0.930 . S
C6500 C6499 1.401 . S
C6500 C6501 1.376 . S
C6500 C6509 1.511 . S
C6501 C6500 1.376 . S
C6501 C6502 1.392 . S
C6501 H6522 0.931 . S
C6502 C6501 1.392 . S
C6502 C6503 1.361 . S
C6502 C6504 1.500 . S
C6503 C6498 1.390 . S
C6503 C6502 1.361 . S
C6503 H6521 0.931 . S
C6504 C6502 1.500 . S
C6504 C6505 1.371 . S
C6504 C6506 1.365 . S
C6505 C6504 1.371 . S
C6505 C6515 1.386 . S
C6505 H6523 0.931 . S
C6506 C6504 1.365 . S
C6506 C6507 1.409 . S
C6506 H6524 0.929 . S
C6507 C6506 1.409 . S
C6507 C6508 1.380 . S
C6507 H6525 0.930 . S
C6508 C6507 1.380 . S
C6508 C6515 1.357 . S
C6509 C6500 1.511 . S
C6509 C6510 1.341 . S
C6509 C6511 1.371 . S
C6510 C6509 1.341 . S
C6510 C6514 1.394 . S
C6510 H6526 0.930 . S
C6511 C6509 1.371 . S
C6511 C6512 1.392 . S
C6511 H6527 0.931 . S
C6512 C6511 1.392 . S
C6512 C6513 1.331 . S
C6512 H6530 0.932 . S
C6513 C6512 1.331 . S
C6513 C6514 1.336 . S
C6514 C6510 1.394 . S
C6514 C6513 1.336 . S
C6514 H6529 0.929 . S
C6515 C6505 1.386 . S
C6515 C6508 1.357 . S
C6515 H6528 0.928 . S
H6516 C6492 0.931 . S
H6517 C6494 0.930 . S
H6518 C6496 0.929 . S
H6519 C6497 0.931 . S
H6520 C6499 0.930 . S
H6521 C6503 0.931 . S
H6522 C6501 0.931 . S
H6523 C6505 0.931 . S
H6524 C6506 0.929 . S
H6525 C6507 0.930 . S
H6526 C6510 0.930 . S
H6527 C6511 0.931 . S
H6528 C6515 0.928 . S
H6529 C6514 0.929 . S
H6530 C6512 0.932 . S
C6531 C6532 1.386 . S
C6531 C6533 1.397 . S
C6531 H6555 0.931 . S
C6532 C6531 1.386 . S
C6532 C6536 1.397 . S
C6533 C6531 1.397 . S
C6533 C6534 1.384 . S
C6533 H6556 0.930 . S
C6534 C6533 1.384 . S
C6534 C6535 1.377 . S
C6534 C6537 1.481 . S
C6535 C6534 1.377 . S
C6535 C6536 1.389 . S
C6535 H6557 0.929 . S
C6536 C6532 1.397 . S
C6536 C6535 1.389 . S
C6536 H6558 0.931 . S
C6537 C6534 1.481 . S
C6537 C6538 1.387 . S
C6537 C6542 1.390 . S
C6538 C6537 1.387 . S
C6538 C6539 1.401 . S
C6538 H6559 0.930 . S
C6539 C6538 1.401 . S
C6539 C6540 1.376 . S
C6539 C6548 1.511 . S
C6540 C6539 1.376 . S
C6540 C6541 1.392 . S
C6540 H6561 0.931 . S
C6541 C6540 1.392 . S
C6541 C6542 1.361 . S
C6541 C6543 1.500 . S
C6542 C6537 1.390 . S
C6542 C6541 1.361 . S
C6542 H6560 0.931 . S
C6543 C6541 1.500 . S
C6543 C6544 1.371 . S
C6543 C6545 1.365 . S
C6544 C6543 1.371 . S
C6544 C6554 1.386 . S
C6544 H6562 0.931 . S
C6545 C6543 1.365 . S
C6545 C6546 1.409 . S
C6545 H6563 0.929 . S
C6546 C6545 1.409 . S
C6546 C6547 1.380 . S
C6546 H6564 0.930 . S
C6547 C6546 1.380 . S
C6547 C6554 1.357 . S
C6548 C6539 1.511 . S
C6548 C6549 1.341 . S
C6548 C6550 1.371 . S
C6549 C6548 1.341 . S
C6549 C6553 1.394 . S
C6549 H6565 0.930 . S
C6550 C6548 1.371 . S
C6550 C6551 1.392 . S
C6550 H6566 0.931 . S
C6551 C6550 1.392 . S
C6551 C6552 1.331 . S
C6551 H6569 0.932 . S
C6552 C6551 1.331 . S
C6552 C6553 1.336 . S
C6553 C6549 1.394 . S
C6553 C6552 1.336 . S
C6553 H6568 0.929 . S
C6554 C6544 1.386 . S
C6554 C6547 1.357 . S
C6554 H6567 0.928 . S
H6555 C6531 0.931 . S
H6556 C6533 0.930 . S
H6557 C6535 0.929 . S
H6558 C6536 0.931 . S
H6559 C6538 0.930 . S
H6560 C6542 0.931 . S
H6561 C6540 0.931 . S
H6562 C6544 0.931 . S
H6563 C6545 0.929 . S
H6564 C6546 0.930 . S
H6565 C6549 0.930 . S
H6566 C6550 0.931 . S
H6567 C6554 0.928 . S
H6568 C6553 0.929 . S
H6569 C6551 0.932 . S
C6570 C6571 1.386 . S
C6570 C6572 1.397 . S
C6570 H6594 0.931 . S
C6571 C6570 1.386 . S
C6571 C6575 1.397 . S
C6572 C6570 1.397 . S
C6572 C6573 1.384 . S
C6572 H6595 0.930 . S
C6573 C6572 1.384 . S
C6573 C6574 1.377 . S
C6573 C6576 1.481 . S
C6574 C6573 1.377 . S
C6574 C6575 1.389 . S
C6574 H6596 0.929 . S
C6575 C6571 1.397 . S
C6575 C6574 1.389 . S
C6575 H6597 0.931 . S
C6576 C6573 1.481 . S
C6576 C6577 1.387 . S
C6576 C6581 1.390 . S
C6577 C6576 1.387 . S
C6577 C6578 1.401 . S
C6577 H6598 0.930 . S
C6578 C6577 1.401 . S
C6578 C6579 1.376 . S
C6578 C6587 1.511 . S
C6579 C6578 1.376 . S
C6579 C6580 1.392 . S
C6579 H6600 0.931 . S
C6580 C6579 1.392 . S
C6580 C6581 1.361 . S
C6580 C6582 1.500 . S
C6581 C6576 1.390 . S
C6581 C6580 1.361 . S
C6581 H6599 0.931 . S
C6582 C6580 1.500 . S
C6582 C6583 1.371 . S
C6582 C6584 1.365 . S
C6583 C6582 1.371 . S
C6583 C6593 1.386 . S
C6583 H6601 0.931 . S
C6584 C6582 1.365 . S
C6584 C6585 1.409 . S
C6584 H6602 0.929 . S
C6585 C6584 1.409 . S
C6585 C6586 1.380 . S
C6585 H6603 0.930 . S
C6586 C6585 1.380 . S
C6586 C6593 1.357 . S
C6587 C6578 1.511 . S
C6587 C6588 1.341 . S
C6587 C6589 1.371 . S
C6588 C6587 1.341 . S
C6588 C6592 1.394 . S
C6588 H6604 0.930 . S
C6589 C6587 1.371 . S
C6589 C6590 1.392 . S
C6589 H6605 0.931 . S
C6590 C6589 1.392 . S
C6590 C6591 1.331 . S
C6590 H6608 0.932 . S
C6591 C6590 1.331 . S
C6591 C6592 1.336 . S
C6592 C6588 1.394 . S
C6592 C6591 1.336 . S
C6592 H6607 0.929 . S
C6593 C6583 1.386 . S
C6593 C6586 1.357 . S
C6593 H6606 0.928 . S
H6594 C6570 0.931 . S
H6595 C6572 0.930 . S
H6596 C6574 0.929 . S
H6597 C6575 0.931 . S
H6598 C6577 0.930 . S
H6599 C6581 0.931 . S
H6600 C6579 0.931 . S
H6601 C6583 0.931 . S
H6602 C6584 0.929 . S
H6603 C6585 0.930 . S
H6604 C6588 0.930 . S
H6605 C6589 0.931 . S
H6606 C6593 0.928 . S
H6607 C6592 0.929 . S
H6608 C6590 0.932 . S
C6609 C6610 1.386 . S
C6609 C6611 1.397 . S
C6609 H6633 0.931 . S
C6610 C6609 1.386 . S
C6610 C6614 1.397 . S
C6611 C6609 1.397 . S
C6611 C6612 1.384 . S
C6611 H6634 0.930 . S
C6612 C6611 1.384 . S
C6612 C6613 1.377 . S
C6612 C6615 1.481 . S
C6613 C6612 1.377 . S
C6613 C6614 1.389 . S
C6613 H6635 0.929 . S
C6614 C6610 1.397 . S
C6614 C6613 1.389 . S
C6614 H6636 0.931 . S
C6615 C6612 1.481 . S
C6615 C6616 1.387 . S
C6615 C6620 1.390 . S
C6616 C6615 1.387 . S
C6616 C6617 1.401 . S
C6616 H6637 0.930 . S
C6617 C6616 1.401 . S
C6617 C6618 1.376 . S
C6617 C6626 1.511 . S
C6618 C6617 1.376 . S
C6618 C6619 1.392 . S
C6618 H6639 0.931 . S
C6619 C6618 1.392 . S
C6619 C6620 1.361 . S
C6619 C6621 1.500 . S
C6620 C6615 1.390 . S
C6620 C6619 1.361 . S
C6620 H6638 0.931 . S
C6621 C6619 1.500 . S
C6621 C6622 1.371 . S
C6621 C6623 1.365 . S
C6622 C6621 1.371 . S
C6622 C6632 1.386 . S
C6622 H6640 0.931 . S
C6623 C6621 1.365 . S
C6623 C6624 1.409 . S
C6623 H6641 0.929 . S
C6624 C6623 1.409 . S
C6624 C6625 1.380 . S
C6624 H6642 0.930 . S
C6625 C6624 1.380 . S
C6625 C6632 1.357 . S
C6626 C6617 1.511 . S
C6626 C6627 1.341 . S
C6626 C6628 1.371 . S
C6627 C6626 1.341 . S
C6627 C6631 1.394 . S
C6627 H6643 0.930 . S
C6628 C6626 1.371 . S
C6628 C6629 1.392 . S
C6628 H6644 0.931 . S
C6629 C6628 1.392 . S
C6629 C6630 1.331 . S
C6629 H6647 0.932 . S
C6630 C6629 1.331 . S
C6630 C6631 1.336 . S
C6631 C6627 1.394 . S
C6631 C6630 1.336 . S
C6631 H6646 0.929 . S
C6632 C6622 1.386 . S
C6632 C6625 1.357 . S
C6632 H6645 0.928 . S
H6633 C6609 0.931 . S
H6634 C6611 0.930 . S
H6635 C6613 0.929 . S
H6636 C6614 0.931 . S
H6637 C6616 0.930 . S
H6638 C6620 0.931 . S
H6639 C6618 0.931 . S
H6640 C6622 0.931 . S
H6641 C6623 0.929 . S
H6642 C6624 0.930 . S
H6643 C6627 0.930 . S
H6644 C6628 0.931 . S
H6645 C6632 0.928 . S
H6646 C6631 0.929 . S
H6647 C6629 0.932 . S
C6648 C6649 1.386 . S
C6648 C6650 1.397 . S
C6648 H6672 0.931 . S
C6649 C6648 1.386 . S
C6649 C6653 1.397 . S
C6650 C6648 1.397 . S
C6650 C6651 1.384 . S
C6650 H6673 0.930 . S
C6651 C6650 1.384 . S
C6651 C6652 1.377 . S
C6651 C6654 1.481 . S
C6652 C6651 1.377 . S
C6652 C6653 1.389 . S
C6652 H6674 0.929 . S
C6653 C6649 1.397 . S
C6653 C6652 1.389 . S
C6653 H6675 0.931 . S
C6654 C6651 1.481 . S
C6654 C6655 1.387 . S
C6654 C6659 1.390 . S
C6655 C6654 1.387 . S
C6655 C6656 1.401 . S
C6655 H6676 0.930 . S
C6656 C6655 1.401 . S
C6656 C6657 1.376 . S
C6656 C6665 1.511 . S
C6657 C6656 1.376 . S
C6657 C6658 1.392 . S
C6657 H6678 0.931 . S
C6658 C6657 1.392 . S
C6658 C6659 1.361 . S
C6658 C6660 1.500 . S
C6659 C6654 1.390 . S
C6659 C6658 1.361 . S
C6659 H6677 0.931 . S
C6660 C6658 1.500 . S
C6660 C6661 1.371 . S
C6660 C6662 1.365 . S
C6661 C6660 1.371 . S
C6661 C6671 1.386 . S
C6661 H6679 0.931 . S
C6662 C6660 1.365 . S
C6662 C6663 1.409 . S
C6662 H6680 0.929 . S
C6663 C6662 1.409 . S
C6663 C6664 1.380 . S
C6663 H6681 0.930 . S
C6664 C6663 1.380 . S
C6664 C6671 1.357 . S
C6665 C6656 1.511 . S
C6665 C6666 1.341 . S
C6665 C6667 1.371 . S
C6666 C6665 1.341 . S
C6666 C6670 1.394 . S
C6666 H6682 0.930 . S
C6667 C6665 1.371 . S
C6667 C6668 1.392 . S
C6667 H6683 0.931 . S
C6668 C6667 1.392 . S
C6668 C6669 1.331 . S
C6668 H6686 0.932 . S
C6669 C6668 1.331 . S
C6669 C6670 1.336 . S
C6670 C6666 1.394 . S
C6670 C6669 1.336 . S
C6670 H6685 0.929 . S
C6671 C6661 1.386 . S
C6671 C6664 1.357 . S
C6671 H6684 0.928 . S
H6672 C6648 0.931 . S
H6673 C6650 0.930 . S
H6674 C6652 0.929 . S
H6675 C6653 0.931 . S
H6676 C6655 0.930 . S
H6677 C6659 0.931 . S
H6678 C6657 0.931 . S
H6679 C6661 0.931 . S
H6680 C6662 0.929 . S
H6681 C6663 0.930 . S
H6682 C6666 0.930 . S
H6683 C6667 0.931 . S
H6684 C6671 0.928 . S
H6685 C6670 0.929 . S
H6686 C6668 0.932 . S
C6687 C6688 1.386 . S
C6687 C6689 1.397 . S
C6687 H6711 0.931 . S
C6688 C6687 1.386 . S
C6688 C6692 1.397 . S
C6689 C6687 1.397 . S
C6689 C6690 1.384 . S
C6689 H6712 0.930 . S
C6690 C6689 1.384 . S
C6690 C6691 1.377 . S
C6690 C6693 1.481 . S
C6691 C6690 1.377 . S
C6691 C6692 1.389 . S
C6691 H6713 0.929 . S
C6692 C6688 1.397 . S
C6692 C6691 1.389 . S
C6692 H6714 0.931 . S
C6693 C6690 1.481 . S
C6693 C6694 1.387 . S
C6693 C6698 1.390 . S
C6694 C6693 1.387 . S
C6694 C6695 1.401 . S
C6694 H6715 0.930 . S
C6695 C6694 1.401 . S
C6695 C6696 1.376 . S
C6695 C6704 1.511 . S
C6696 C6695 1.376 . S
C6696 C6697 1.392 . S
C6696 H6717 0.931 . S
C6697 C6696 1.392 . S
C6697 C6698 1.361 . S
C6697 C6699 1.500 . S
C6698 C6693 1.390 . S
C6698 C6697 1.361 . S
C6698 H6716 0.931 . S
C6699 C6697 1.500 . S
C6699 C6700 1.371 . S
C6699 C6701 1.365 . S
C6700 C6699 1.371 . S
C6700 C6710 1.386 . S
C6700 H6718 0.931 . S
C6701 C6699 1.365 . S
C6701 C6702 1.409 . S
C6701 H6719 0.929 . S
C6702 C6701 1.409 . S
C6702 C6703 1.380 . S
C6702 H6720 0.930 . S
C6703 C6702 1.380 . S
C6703 C6710 1.357 . S
C6704 C6695 1.511 . S
C6704 C6705 1.341 . S
C6704 C6706 1.371 . S
C6705 C6704 1.341 . S
C6705 C6709 1.394 . S
C6705 H6721 0.930 . S
C6706 C6704 1.371 . S
C6706 C6707 1.392 . S
C6706 H6722 0.931 . S
C6707 C6706 1.392 . S
C6707 C6708 1.331 . S
C6707 H6725 0.932 . S
C6708 C6707 1.331 . S
C6708 C6709 1.336 . S
C6709 C6705 1.394 . S
C6709 C6708 1.336 . S
C6709 H6724 0.929 . S
C6710 C6700 1.386 . S
C6710 C6703 1.357 . S
C6710 H6723 0.928 . S
H6711 C6687 0.931 . S
H6712 C6689 0.930 . S
H6713 C6691 0.929 . S
H6714 C6692 0.931 . S
H6715 C6694 0.930 . S
H6716 C6698 0.931 . S
H6717 C6696 0.931 . S
H6718 C6700 0.931 . S
H6719 C6701 0.929 . S
H6720 C6702 0.930 . S
H6721 C6705 0.930 . S
H6722 C6706 0.931 . S
H6723 C6710 0.928 . S
H6724 C6709 0.929 . S
H6725 C6707 0.932 . S
C6726 C6727 1.386 . S
C6726 C6728 1.397 . S
C6726 H6750 0.931 . S
C6727 C6726 1.386 . S
C6727 C6731 1.397 . S
C6728 C6726 1.397 . S
C6728 C6729 1.384 . S
C6728 H6751 0.930 . S
C6729 C6728 1.384 . S
C6729 C6730 1.377 . S
C6729 C6732 1.481 . S
C6730 C6729 1.377 . S
C6730 C6731 1.389 . S
C6730 H6752 0.929 . S
C6731 C6727 1.397 . S
C6731 C6730 1.389 . S
C6731 H6753 0.931 . S
C6732 C6729 1.481 . S
C6732 C6733 1.387 . S
C6732 C6737 1.390 . S
C6733 C6732 1.387 . S
C6733 C6734 1.401 . S
C6733 H6754 0.930 . S
C6734 C6733 1.401 . S
C6734 C6735 1.376 . S
C6734 C6743 1.511 . S
C6735 C6734 1.376 . S
C6735 C6736 1.392 . S
C6735 H6756 0.931 . S
C6736 C6735 1.392 . S
C6736 C6737 1.361 . S
C6736 C6738 1.500 . S
C6737 C6732 1.390 . S
C6737 C6736 1.361 . S
C6737 H6755 0.931 . S
C6738 C6736 1.500 . S
C6738 C6739 1.371 . S
C6738 C6740 1.365 . S
C6739 C6738 1.371 . S
C6739 C6749 1.386 . S
C6739 H6757 0.931 . S
C6740 C6738 1.365 . S
C6740 C6741 1.409 . S
C6740 H6758 0.929 . S
C6741 C6740 1.409 . S
C6741 C6742 1.380 . S
C6741 H6759 0.930 . S
C6742 C6741 1.380 . S
C6742 C6749 1.357 . S
C6743 C6734 1.511 . S
C6743 C6744 1.341 . S
C6743 C6745 1.371 . S
C6744 C6743 1.341 . S
C6744 C6748 1.394 . S
C6744 H6760 0.930 . S
C6745 C6743 1.371 . S
C6745 C6746 1.392 . S
C6745 H6761 0.931 . S
C6746 C6745 1.392 . S
C6746 C6747 1.331 . S
C6746 H6764 0.932 . S
C6747 C6746 1.331 . S
C6747 C6748 1.336 . S
C6748 C6744 1.394 . S
C6748 C6747 1.336 . S
C6748 H6763 0.929 . S
C6749 C6739 1.386 . S
C6749 C6742 1.357 . S
C6749 H6762 0.928 . S
H6750 C6726 0.931 . S
H6751 C6728 0.930 . S
H6752 C6730 0.929 . S
H6753 C6731 0.931 . S
H6754 C6733 0.930 . S
H6755 C6737 0.931 . S
H6756 C6735 0.931 . S
H6757 C6739 0.931 . S
H6758 C6740 0.929 . S
H6759 C6741 0.930 . S
H6760 C6744 0.930 . S
H6761 C6745 0.931 . S
H6762 C6749 0.928 . S
H6763 C6748 0.929 . S
H6764 C6746 0.932 . S
C6765 C6766 1.386 . S
C6765 C6767 1.397 . S
C6765 H6789 0.931 . S
C6766 C6765 1.386 . S
C6766 C6770 1.397 . S
C6767 C6765 1.397 . S
C6767 C6768 1.384 . S
C6767 H6790 0.930 . S
C6768 C6767 1.384 . S
C6768 C6769 1.377 . S
C6768 C6771 1.481 . S
C6769 C6768 1.377 . S
C6769 C6770 1.389 . S
C6769 H6791 0.929 . S
C6770 C6766 1.397 . S
C6770 C6769 1.389 . S
C6770 H6792 0.931 . S
C6771 C6768 1.481 . S
C6771 C6772 1.387 . S
C6771 C6776 1.390 . S
C6772 C6771 1.387 . S
C6772 C6773 1.401 . S
C6772 H6793 0.930 . S
C6773 C6772 1.401 . S
C6773 C6774 1.376 . S
C6773 C6782 1.511 . S
C6774 C6773 1.376 . S
C6774 C6775 1.392 . S
C6774 H6795 0.931 . S
C6775 C6774 1.392 . S
C6775 C6776 1.361 . S
C6775 C6777 1.500 . S
C6776 C6771 1.390 . S
C6776 C6775 1.361 . S
C6776 H6794 0.931 . S
C6777 C6775 1.500 . S
C6777 C6778 1.371 . S
C6777 C6779 1.365 . S
C6778 C6777 1.371 . S
C6778 C6788 1.386 . S
C6778 H6796 0.931 . S
C6779 C6777 1.365 . S
C6779 C6780 1.409 . S
C6779 H6797 0.929 . S
C6780 C6779 1.409 . S
C6780 C6781 1.380 . S
C6780 H6798 0.930 . S
C6781 C6780 1.380 . S
C6781 C6788 1.357 . S
C6782 C6773 1.511 . S
C6782 C6783 1.341 . S
C6782 C6784 1.371 . S
C6783 C6782 1.341 . S
C6783 C6787 1.394 . S
C6783 H6799 0.930 . S
C6784 C6782 1.371 . S
C6784 C6785 1.392 . S
C6784 H6800 0.931 . S
C6785 C6784 1.392 . S
C6785 C6786 1.331 . S
C6785 H6803 0.932 . S
C6786 C6785 1.331 . S
C6786 C6787 1.336 . S
C6787 C6783 1.394 . S
C6787 C6786 1.336 . S
C6787 H6802 0.929 . S
C6788 C6778 1.386 . S
C6788 C6781 1.357 . S
C6788 H6801 0.928 . S
H6789 C6765 0.931 . S
H6790 C6767 0.930 . S
H6791 C6769 0.929 . S
H6792 C6770 0.931 . S
H6793 C6772 0.930 . S
H6794 C6776 0.931 . S
H6795 C6774 0.931 . S
H6796 C6778 0.931 . S
H6797 C6779 0.929 . S
H6798 C6780 0.930 . S
H6799 C6783 0.930 . S
H6800 C6784 0.931 . S
H6801 C6788 0.928 . S
H6802 C6787 0.929 . S
H6803 C6785 0.932 . S
C6804 C6805 1.386 . S
C6804 C6806 1.397 . S
C6804 H6828 0.931 . S
C6805 C6804 1.386 . S
C6805 C6809 1.397 . S
C6806 C6804 1.397 . S
C6806 C6807 1.384 . S
C6806 H6829 0.930 . S
C6807 C6806 1.384 . S
C6807 C6808 1.377 . S
C6807 C6810 1.481 . S
C6808 C6807 1.377 . S
C6808 C6809 1.389 . S
C6808 H6830 0.929 . S
C6809 C6805 1.397 . S
C6809 C6808 1.389 . S
C6809 H6831 0.931 . S
C6810 C6807 1.481 . S
C6810 C6811 1.387 . S
C6810 C6815 1.390 . S
C6811 C6810 1.387 . S
C6811 C6812 1.401 . S
C6811 H6832 0.930 . S
C6812 C6811 1.401 . S
C6812 C6813 1.376 . S
C6812 C6821 1.511 . S
C6813 C6812 1.376 . S
C6813 C6814 1.392 . S
C6813 H6834 0.931 . S
C6814 C6813 1.392 . S
C6814 C6815 1.361 . S
C6814 C6816 1.500 . S
C6815 C6810 1.390 . S
C6815 C6814 1.361 . S
C6815 H6833 0.931 . S
C6816 C6814 1.500 . S
C6816 C6817 1.371 . S
C6816 C6818 1.365 . S
C6817 C6816 1.371 . S
C6817 C6827 1.386 . S
C6817 H6835 0.931 . S
C6818 C6816 1.365 . S
C6818 C6819 1.409 . S
C6818 H6836 0.929 . S
C6819 C6818 1.409 . S
C6819 C6820 1.380 . S
C6819 H6837 0.930 . S
C6820 C6819 1.380 . S
C6820 C6827 1.357 . S
C6821 C6812 1.511 . S
C6821 C6822 1.341 . S
C6821 C6823 1.371 . S
C6822 C6821 1.341 . S
C6822 C6826 1.394 . S
C6822 H6838 0.930 . S
C6823 C6821 1.371 . S
C6823 C6824 1.392 . S
C6823 H6839 0.931 . S
C6824 C6823 1.392 . S
C6824 C6825 1.331 . S
C6824 H6842 0.932 . S
C6825 C6824 1.331 . S
C6825 C6826 1.336 . S
C6826 C6822 1.394 . S
C6826 C6825 1.336 . S
C6826 H6841 0.929 . S
C6827 C6817 1.386 . S
C6827 C6820 1.357 . S
C6827 H6840 0.928 . S
H6828 C6804 0.931 . S
H6829 C6806 0.930 . S
H6830 C6808 0.929 . S
H6831 C6809 0.931 . S
H6832 C6811 0.930 . S
H6833 C6815 0.931 . S
H6834 C6813 0.931 . S
H6835 C6817 0.931 . S
H6836 C6818 0.929 . S
H6837 C6819 0.930 . S
H6838 C6822 0.930 . S
H6839 C6823 0.931 . S
H6840 C6827 0.928 . S
H6841 C6826 0.929 . S
H6842 C6824 0.932 . S
C6843 C6844 1.386 . S
C6843 C6845 1.397 . S
C6843 H6867 0.931 . S
C6844 C6843 1.386 . S
C6844 C6848 1.397 . S
C6845 C6843 1.397 . S
C6845 C6846 1.384 . S
C6845 H6868 0.930 . S
C6846 C6845 1.384 . S
C6846 C6847 1.377 . S
C6846 C6849 1.481 . S
C6847 C6846 1.377 . S
C6847 C6848 1.389 . S
C6847 H6869 0.929 . S
C6848 C6844 1.397 . S
C6848 C6847 1.389 . S
C6848 H6870 0.931 . S
C6849 C6846 1.481 . S
C6849 C6850 1.387 . S
C6849 C6854 1.390 . S
C6850 C6849 1.387 . S
C6850 C6851 1.401 . S
C6850 H6871 0.930 . S
C6851 C6850 1.401 . S
C6851 C6852 1.376 . S
C6851 C6860 1.511 . S
C6852 C6851 1.376 . S
C6852 C6853 1.392 . S
C6852 H6873 0.931 . S
C6853 C6852 1.392 . S
C6853 C6854 1.361 . S
C6853 C6855 1.500 . S
C6854 C6849 1.390 . S
C6854 C6853 1.361 . S
C6854 H6872 0.931 . S
C6855 C6853 1.500 . S
C6855 C6856 1.371 . S
C6855 C6857 1.365 . S
C6856 C6855 1.371 . S
C6856 C6866 1.386 . S
C6856 H6874 0.931 . S
C6857 C6855 1.365 . S
C6857 C6858 1.409 . S
C6857 H6875 0.929 . S
C6858 C6857 1.409 . S
C6858 C6859 1.380 . S
C6858 H6876 0.930 . S
C6859 C6858 1.380 . S
C6859 C6866 1.357 . S
C6860 C6851 1.511 . S
C6860 C6861 1.341 . S
C6860 C6862 1.371 . S
C6861 C6860 1.341 . S
C6861 C6865 1.394 . S
C6861 H6877 0.930 . S
C6862 C6860 1.371 . S
C6862 C6863 1.392 . S
C6862 H6878 0.931 . S
C6863 C6862 1.392 . S
C6863 C6864 1.331 . S
C6863 H6881 0.932 . S
C6864 C6863 1.331 . S
C6864 C6865 1.336 . S
C6865 C6861 1.394 . S
C6865 C6864 1.336 . S
C6865 H6880 0.929 . S
C6866 C6856 1.386 . S
C6866 C6859 1.357 . S
C6866 H6879 0.928 . S
H6867 C6843 0.931 . S
H6868 C6845 0.930 . S
H6869 C6847 0.929 . S
H6870 C6848 0.931 . S
H6871 C6850 0.930 . S
H6872 C6854 0.931 . S
H6873 C6852 0.931 . S
H6874 C6856 0.931 . S
H6875 C6857 0.929 . S
H6876 C6858 0.930 . S
H6877 C6861 0.930 . S
H6878 C6862 0.931 . S
H6879 C6866 0.928 . S
H6880 C6865 0.929 . S
H6881 C6863 0.932 . S
C6882 C6883 1.386 . S
C6882 C6884 1.397 . S
C6882 H6906 0.931 . S
C6883 C6882 1.386 . S
C6883 C6887 1.397 . S
C6884 C6882 1.397 . S
C6884 C6885 1.384 . S
C6884 H6907 0.930 . S
C6885 C6884 1.384 . S
C6885 C6886 1.377 . S
C6885 C6888 1.481 . S
C6886 C6885 1.377 . S
C6886 C6887 1.389 . S
C6886 H6908 0.929 . S
C6887 C6883 1.397 . S
C6887 C6886 1.389 . S
C6887 H6909 0.931 . S
C6888 C6885 1.481 . S
C6888 C6889 1.387 . S
C6888 C6893 1.390 . S
C6889 C6888 1.387 . S
C6889 C6890 1.401 . S
C6889 H6910 0.930 . S
C6890 C6889 1.401 . S
C6890 C6891 1.376 . S
C6890 C6899 1.511 . S
C6891 C6890 1.376 . S
C6891 C6892 1.392 . S
C6891 H6912 0.931 . S
C6892 C6891 1.392 . S
C6892 C6893 1.361 . S
C6892 C6894 1.500 . S
C6893 C6888 1.390 . S
C6893 C6892 1.361 . S
C6893 H6911 0.931 . S
C6894 C6892 1.500 . S
C6894 C6895 1.371 . S
C6894 C6896 1.365 . S
C6895 C6894 1.371 . S
C6895 C6905 1.386 . S
C6895 H6913 0.931 . S
C6896 C6894 1.365 . S
C6896 C6897 1.409 . S
C6896 H6914 0.929 . S
C6897 C6896 1.409 . S
C6897 C6898 1.380 . S
C6897 H6915 0.930 . S
C6898 C6897 1.380 . S
C6898 C6905 1.357 . S
C6899 C6890 1.511 . S
C6899 C6900 1.341 . S
C6899 C6901 1.371 . S
C6900 C6899 1.341 . S
C6900 C6904 1.394 . S
C6900 H6916 0.930 . S
C6901 C6899 1.371 . S
C6901 C6902 1.392 . S
C6901 H6917 0.931 . S
C6902 C6901 1.392 . S
C6902 C6903 1.331 . S
C6902 H6920 0.932 . S
C6903 C6902 1.331 . S
C6903 C6904 1.336 . S
C6904 C6900 1.394 . S
C6904 C6903 1.336 . S
C6904 H6919 0.929 . S
C6905 C6895 1.386 . S
C6905 C6898 1.357 . S
C6905 H6918 0.928 . S
H6906 C6882 0.931 . S
H6907 C6884 0.930 . S
H6908 C6886 0.929 . S
H6909 C6887 0.931 . S
H6910 C6889 0.930 . S
H6911 C6893 0.931 . S
H6912 C6891 0.931 . S
H6913 C6895 0.931 . S
H6914 C6896 0.929 . S
H6915 C6897 0.930 . S
H6916 C6900 0.930 . S
H6917 C6901 0.931 . S
H6918 C6905 0.928 . S
H6919 C6904 0.929 . S
H6920 C6902 0.932 . S
C6921 C6922 1.386 . S
C6921 C6923 1.397 . S
C6921 H6945 0.931 . S
C6922 C6921 1.386 . S
C6922 C6926 1.397 . S
C6923 C6921 1.397 . S
C6923 C6924 1.384 . S
C6923 H6946 0.930 . S
C6924 C6923 1.384 . S
C6924 C6925 1.377 . S
C6924 C6927 1.481 . S
C6925 C6924 1.377 . S
C6925 C6926 1.389 . S
C6925 H6947 0.929 . S
C6926 C6922 1.397 . S
C6926 C6925 1.389 . S
C6926 H6948 0.931 . S
C6927 C6924 1.481 . S
C6927 C6928 1.387 . S
C6927 C6932 1.390 . S
C6928 C6927 1.387 . S
C6928 C6929 1.401 . S
C6928 H6949 0.930 . S
C6929 C6928 1.401 . S
C6929 C6930 1.376 . S
C6929 C6938 1.511 . S
C6930 C6929 1.376 . S
C6930 C6931 1.392 . S
C6930 H6951 0.931 . S
C6931 C6930 1.392 . S
C6931 C6932 1.361 . S
C6931 C6933 1.500 . S
C6932 C6927 1.390 . S
C6932 C6931 1.361 . S
C6932 H6950 0.931 . S
C6933 C6931 1.500 . S
C6933 C6934 1.371 . S
C6933 C6935 1.365 . S
C6934 C6933 1.371 . S
C6934 C6944 1.386 . S
C6934 H6952 0.931 . S
C6935 C6933 1.365 . S
C6935 C6936 1.409 . S
C6935 H6953 0.929 . S
C6936 C6935 1.409 . S
C6936 C6937 1.380 . S
C6936 H6954 0.930 . S
C6937 C6936 1.380 . S
C6937 C6944 1.357 . S
C6938 C6929 1.511 . S
C6938 C6939 1.341 . S
C6938 C6940 1.371 . S
C6939 C6938 1.341 . S
C6939 C6943 1.394 . S
C6939 H6955 0.930 . S
C6940 C6938 1.371 . S
C6940 C6941 1.392 . S
C6940 H6956 0.931 . S
C6941 C6940 1.392 . S
C6941 C6942 1.331 . S
C6941 H6959 0.932 . S
C6942 C6941 1.331 . S
C6942 C6943 1.336 . S
C6943 C6939 1.394 . S
C6943 C6942 1.336 . S
C6943 H6958 0.929 . S
C6944 C6934 1.386 . S
C6944 C6937 1.357 . S
C6944 H6957 0.928 . S
H6945 C6921 0.931 . S
H6946 C6923 0.930 . S
H6947 C6925 0.929 . S
H6948 C6926 0.931 . S
H6949 C6928 0.930 . S
H6950 C6932 0.931 . S
H6951 C6930 0.931 . S
H6952 C6934 0.931 . S
H6953 C6935 0.929 . S
H6954 C6936 0.930 . S
H6955 C6939 0.930 . S
H6956 C6940 0.931 . S
H6957 C6944 0.928 . S
H6958 C6943 0.929 . S
H6959 C6941 0.932 . S
C6960 C6961 1.386 . S
C6960 C6962 1.397 . S
C6960 H6984 0.931 . S
C6961 C6960 1.386 . S
C6961 C6965 1.397 . S
C6962 C6960 1.397 . S
C6962 C6963 1.384 . S
C6962 H6985 0.930 . S
C6963 C6962 1.384 . S
C6963 C6964 1.377 . S
C6963 C6966 1.481 . S
C6964 C6963 1.377 . S
C6964 C6965 1.389 . S
C6964 H6986 0.929 . S
C6965 C6961 1.397 . S
C6965 C6964 1.389 . S
C6965 H6987 0.931 . S
C6966 C6963 1.481 . S
C6966 C6967 1.387 . S
C6966 C6971 1.390 . S
C6967 C6966 1.387 . S
C6967 C6968 1.401 . S
C6967 H6988 0.930 . S
C6968 C6967 1.401 . S
C6968 C6969 1.376 . S
C6968 C6977 1.511 . S
C6969 C6968 1.376 . S
C6969 C6970 1.392 . S
C6969 H6990 0.931 . S
C6970 C6969 1.392 . S
C6970 C6971 1.361 . S
C6970 C6972 1.500 . S
C6971 C6966 1.390 . S
C6971 C6970 1.361 . S
C6971 H6989 0.931 . S
C6972 C6970 1.500 . S
C6972 C6973 1.371 . S
C6972 C6974 1.365 . S
C6973 C6972 1.371 . S
C6973 C6983 1.386 . S
C6973 H6991 0.931 . S
C6974 C6972 1.365 . S
C6974 C6975 1.409 . S
C6974 H6992 0.929 . S
C6975 C6974 1.409 . S
C6975 C6976 1.380 . S
C6975 H6993 0.930 . S
C6976 C6975 1.380 . S
C6976 C6983 1.357 . S
C6977 C6968 1.511 . S
C6977 C6978 1.341 . S
C6977 C6979 1.371 . S
C6978 C6977 1.341 . S
C6978 C6982 1.394 . S
C6978 H6994 0.930 . S
C6979 C6977 1.371 . S
C6979 C6980 1.392 . S
C6979 H6995 0.931 . S
C6980 C6979 1.392 . S
C6980 C6981 1.331 . S
C6980 H6998 0.932 . S
C6981 C6980 1.331 . S
C6981 C6982 1.336 . S
C6982 C6978 1.394 . S
C6982 C6981 1.336 . S
C6982 H6997 0.929 . S
C6983 C6973 1.386 . S
C6983 C6976 1.357 . S
C6983 H6996 0.928 . S
H6984 C6960 0.931 . S
H6985 C6962 0.930 . S
H6986 C6964 0.929 . S
H6987 C6965 0.931 . S
H6988 C6967 0.930 . S
H6989 C6971 0.931 . S
H6990 C6969 0.931 . S
H6991 C6973 0.931 . S
H6992 C6974 0.929 . S
H6993 C6975 0.930 . S
H6994 C6978 0.930 . S
H6995 C6979 0.931 . S
H6996 C6983 0.928 . S
H6997 C6982 0.929 . S
H6998 C6980 0.932 . S
C6999 C7000 1.386 . S
C6999 C7001 1.397 . S
C6999 H7023 0.931 . S
C7000 C6999 1.386 . S
C7000 C7004 1.397 . S
C7001 C6999 1.397 . S
C7001 C7002 1.384 . S
C7001 H7024 0.930 . S
C7002 C7001 1.384 . S
C7002 C7003 1.377 . S
C7002 C7005 1.481 . S
C7003 C7002 1.377 . S
C7003 C7004 1.389 . S
C7003 H7025 0.929 . S
C7004 C7000 1.397 . S
C7004 C7003 1.389 . S
C7004 H7026 0.931 . S
C7005 C7002 1.481 . S
C7005 C7006 1.387 . S
C7005 C7010 1.390 . S
C7006 C7005 1.387 . S
C7006 C7007 1.401 . S
C7006 H7027 0.930 . S
C7007 C7006 1.401 . S
C7007 C7008 1.376 . S
C7007 C7016 1.511 . S
C7008 C7007 1.376 . S
C7008 C7009 1.392 . S
C7008 H7029 0.931 . S
C7009 C7008 1.392 . S
C7009 C7010 1.361 . S
C7009 C7011 1.500 . S
C7010 C7005 1.390 . S
C7010 C7009 1.361 . S
C7010 H7028 0.931 . S
C7011 C7009 1.500 . S
C7011 C7012 1.371 . S
C7011 C7013 1.365 . S
C7012 C7011 1.371 . S
C7012 C7022 1.386 . S
C7012 H7030 0.931 . S
C7013 C7011 1.365 . S
C7013 C7014 1.409 . S
C7013 H7031 0.929 . S
C7014 C7013 1.409 . S
C7014 C7015 1.380 . S
C7014 H7032 0.930 . S
C7015 C7014 1.380 . S
C7015 C7022 1.357 . S
C7016 C7007 1.511 . S
C7016 C7017 1.341 . S
C7016 C7018 1.371 . S
C7017 C7016 1.341 . S
C7017 C7021 1.394 . S
C7017 H7033 0.930 . S
C7018 C7016 1.371 . S
C7018 C7019 1.392 . S
C7018 H7034 0.931 . S
C7019 C7018 1.392 . S
C7019 C7020 1.331 . S
C7019 H7037 0.932 . S
C7020 C7019 1.331 . S
C7020 C7021 1.336 . S
C7021 C7017 1.394 . S
C7021 C7020 1.336 . S
C7021 H7036 0.929 . S
C7022 C7012 1.386 . S
C7022 C7015 1.357 . S
C7022 H7035 0.928 . S
H7023 C6999 0.931 . S
H7024 C7001 0.930 . S
H7025 C7003 0.929 . S
H7026 C7004 0.931 . S
H7027 C7006 0.930 . S
H7028 C7010 0.931 . S
H7029 C7008 0.931 . S
H7030 C7012 0.931 . S
H7031 C7013 0.929 . S
H7032 C7014 0.930 . S
H7033 C7017 0.930 . S
H7034 C7018 0.931 . S
H7035 C7022 0.928 . S
H7036 C7021 0.929 . S
H7037 C7019 0.932 . S
C7038 C7039 1.386 . S
C7038 C7040 1.397 . S
C7038 H7062 0.931 . S
C7039 C7038 1.386 . S
C7039 C7043 1.397 . S
C7040 C7038 1.397 . S
C7040 C7041 1.384 . S
C7040 H7063 0.930 . S
C7041 C7040 1.384 . S
C7041 C7042 1.377 . S
C7041 C7044 1.481 . S
C7042 C7041 1.377 . S
C7042 C7043 1.389 . S
C7042 H7064 0.929 . S
C7043 C7039 1.397 . S
C7043 C7042 1.389 . S
C7043 H7065 0.931 . S
C7044 C7041 1.481 . S
C7044 C7045 1.387 . S
C7044 C7049 1.390 . S
C7045 C7044 1.387 . S
C7045 C7046 1.401 . S
C7045 H7066 0.930 . S
C7046 C7045 1.401 . S
C7046 C7047 1.376 . S
C7046 C7055 1.511 . S
C7047 C7046 1.376 . S
C7047 C7048 1.392 . S
C7047 H7068 0.931 . S
C7048 C7047 1.392 . S
C7048 C7049 1.361 . S
C7048 C7050 1.500 . S
C7049 C7044 1.390 . S
C7049 C7048 1.361 . S
C7049 H7067 0.931 . S
C7050 C7048 1.500 . S
C7050 C7051 1.371 . S
C7050 C7052 1.365 . S
C7051 C7050 1.371 . S
C7051 C7061 1.386 . S
C7051 H7069 0.931 . S
C7052 C7050 1.365 . S
C7052 C7053 1.409 . S
C7052 H7070 0.929 . S
C7053 C7052 1.409 . S
C7053 C7054 1.380 . S
C7053 H7071 0.930 . S
C7054 C7053 1.380 . S
C7054 C7061 1.357 . S
C7055 C7046 1.511 . S
C7055 C7056 1.341 . S
C7055 C7057 1.371 . S
C7056 C7055 1.341 . S
C7056 C7060 1.394 . S
C7056 H7072 0.930 . S
C7057 C7055 1.371 . S
C7057 C7058 1.392 . S
C7057 H7073 0.931 . S
C7058 C7057 1.392 . S
C7058 C7059 1.331 . S
C7058 H7076 0.932 . S
C7059 C7058 1.331 . S
C7059 C7060 1.336 . S
C7060 C7056 1.394 . S
C7060 C7059 1.336 . S
C7060 H7075 0.929 . S
C7061 C7051 1.386 . S
C7061 C7054 1.357 . S
C7061 H7074 0.928 . S
H7062 C7038 0.931 . S
H7063 C7040 0.930 . S
H7064 C7042 0.929 . S
H7065 C7043 0.931 . S
H7066 C7045 0.930 . S
H7067 C7049 0.931 . S
H7068 C7047 0.931 . S
H7069 C7051 0.931 . S
H7070 C7052 0.929 . S
H7071 C7053 0.930 . S
H7072 C7056 0.930 . S
H7073 C7057 0.931 . S
H7074 C7061 0.928 . S
H7075 C7060 0.929 . S
H7076 C7058 0.932 . S
C7077 C7078 1.386 . S
C7077 C7079 1.397 . S
C7077 H7101 0.931 . S
C7078 C7077 1.386 . S
C7078 C7082 1.397 . S
C7079 C7077 1.397 . S
C7079 C7080 1.384 . S
C7079 H7102 0.930 . S
C7080 C7079 1.384 . S
C7080 C7081 1.377 . S
C7080 C7083 1.481 . S
C7081 C7080 1.377 . S
C7081 C7082 1.389 . S
C7081 H7103 0.929 . S
C7082 C7078 1.397 . S
C7082 C7081 1.389 . S
C7082 H7104 0.931 . S
C7083 C7080 1.481 . S
C7083 C7084 1.387 . S
C7083 C7088 1.390 . S
C7084 C7083 1.387 . S
C7084 C7085 1.401 . S
C7084 H7105 0.930 . S
C7085 C7084 1.401 . S
C7085 C7086 1.376 . S
C7085 C7094 1.511 . S
C7086 C7085 1.376 . S
C7086 C7087 1.392 . S
C7086 H7107 0.931 . S
C7087 C7086 1.392 . S
C7087 C7088 1.361 . S
C7087 C7089 1.500 . S
C7088 C7083 1.390 . S
C7088 C7087 1.361 . S
C7088 H7106 0.931 . S
C7089 C7087 1.500 . S
C7089 C7090 1.371 . S
C7089 C7091 1.365 . S
C7090 C7089 1.371 . S
C7090 C7100 1.386 . S
C7090 H7108 0.931 . S
C7091 C7089 1.365 . S
C7091 C7092 1.409 . S
C7091 H7109 0.929 . S
C7092 C7091 1.409 . S
C7092 C7093 1.380 . S
C7092 H7110 0.930 . S
C7093 C7092 1.380 . S
C7093 C7100 1.357 . S
C7094 C7085 1.511 . S
C7094 C7095 1.341 . S
C7094 C7096 1.371 . S
C7095 C7094 1.341 . S
C7095 C7099 1.394 . S
C7095 H7111 0.930 . S
C7096 C7094 1.371 . S
C7096 C7097 1.392 . S
C7096 H7112 0.931 . S
C7097 C7096 1.392 . S
C7097 C7098 1.331 . S
C7097 H7115 0.932 . S
C7098 C7097 1.331 . S
C7098 C7099 1.336 . S
C7099 C7095 1.394 . S
C7099 C7098 1.336 . S
C7099 H7114 0.929 . S
C7100 C7090 1.386 . S
C7100 C7093 1.357 . S
C7100 H7113 0.928 . S
H7101 C7077 0.931 . S
H7102 C7079 0.930 . S
H7103 C7081 0.929 . S
H7104 C7082 0.931 . S
H7105 C7084 0.930 . S
H7106 C7088 0.931 . S
H7107 C7086 0.931 . S
H7108 C7090 0.931 . S
H7109 C7091 0.929 . S
H7110 C7092 0.930 . S
H7111 C7095 0.930 . S
H7112 C7096 0.931 . S
H7113 C7100 0.928 . S
H7114 C7099 0.929 . S
H7115 C7097 0.932 . S
C7116 C7117 1.386 . S
C7116 C7118 1.397 . S
C7116 H7140 0.931 . S
C7117 C7116 1.386 . S
C7117 C7121 1.397 . S
C7118 C7116 1.397 . S
C7118 C7119 1.384 . S
C7118 H7141 0.930 . S
C7119 C7118 1.384 . S
C7119 C7120 1.377 . S
C7119 C7122 1.481 . S
C7120 C7119 1.377 . S
C7120 C7121 1.389 . S
C7120 H7142 0.929 . S
C7121 C7117 1.397 . S
C7121 C7120 1.389 . S
C7121 H7143 0.931 . S
C7122 C7119 1.481 . S
C7122 C7123 1.387 . S
C7122 C7127 1.390 . S
C7123 C7122 1.387 . S
C7123 C7124 1.401 . S
C7123 H7144 0.930 . S
C7124 C7123 1.401 . S
C7124 C7125 1.376 . S
C7124 C7133 1.511 . S
C7125 C7124 1.376 . S
C7125 C7126 1.392 . S
C7125 H7146 0.931 . S
C7126 C7125 1.392 . S
C7126 C7127 1.361 . S
C7126 C7128 1.500 . S
C7127 C7122 1.390 . S
C7127 C7126 1.361 . S
C7127 H7145 0.931 . S
C7128 C7126 1.500 . S
C7128 C7129 1.371 . S
C7128 C7130 1.365 . S
C7129 C7128 1.371 . S
C7129 C7139 1.386 . S
C7129 H7147 0.931 . S
C7130 C7128 1.365 . S
C7130 C7131 1.409 . S
C7130 H7148 0.929 . S
C7131 C7130 1.409 . S
C7131 C7132 1.380 . S
C7131 H7149 0.930 . S
C7132 C7131 1.380 . S
C7132 C7139 1.357 . S
C7133 C7124 1.511 . S
C7133 C7134 1.341 . S
C7133 C7135 1.371 . S
C7134 C7133 1.341 . S
C7134 C7138 1.394 . S
C7134 H7150 0.930 . S
C7135 C7133 1.371 . S
C7135 C7136 1.392 . S
C7135 H7151 0.931 . S
C7136 C7135 1.392 . S
C7136 C7137 1.331 . S
C7136 H7154 0.932 . S
C7137 C7136 1.331 . S
C7137 C7138 1.336 . S
C7138 C7134 1.394 . S
C7138 C7137 1.336 . S
C7138 H7153 0.929 . S
C7139 C7129 1.386 . S
C7139 C7132 1.357 . S
C7139 H7152 0.928 . S
H7140 C7116 0.931 . S
H7141 C7118 0.930 . S
H7142 C7120 0.929 . S
H7143 C7121 0.931 . S
H7144 C7123 0.930 . S
H7145 C7127 0.931 . S
H7146 C7125 0.931 . S
H7147 C7129 0.931 . S
H7148 C7130 0.929 . S
H7149 C7131 0.930 . S
H7150 C7134 0.930 . S
H7151 C7135 0.931 . S
H7152 C7139 0.928 . S
H7153 C7138 0.929 . S
H7154 C7136 0.932 . S
C7155 C7156 1.386 . S
C7155 C7157 1.397 . S
C7155 H7179 0.931 . S
C7156 C7155 1.386 . S
C7156 C7160 1.397 . S
C7157 C7155 1.397 . S
C7157 C7158 1.384 . S
C7157 H7180 0.930 . S
C7158 C7157 1.384 . S
C7158 C7159 1.377 . S
C7158 C7161 1.481 . S
C7159 C7158 1.377 . S
C7159 C7160 1.389 . S
C7159 H7181 0.929 . S
C7160 C7156 1.397 . S
C7160 C7159 1.389 . S
C7160 H7182 0.931 . S
C7161 C7158 1.481 . S
C7161 C7162 1.387 . S
C7161 C7166 1.390 . S
C7162 C7161 1.387 . S
C7162 C7163 1.401 . S
C7162 H7183 0.930 . S
C7163 C7162 1.401 . S
C7163 C7164 1.376 . S
C7163 C7172 1.511 . S
C7164 C7163 1.376 . S
C7164 C7165 1.392 . S
C7164 H7185 0.931 . S
C7165 C7164 1.392 . S
C7165 C7166 1.361 . S
C7165 C7167 1.500 . S
C7166 C7161 1.390 . S
C7166 C7165 1.361 . S
C7166 H7184 0.931 . S
C7167 C7165 1.500 . S
C7167 C7168 1.371 . S
C7167 C7169 1.365 . S
C7168 C7167 1.371 . S
C7168 C7178 1.386 . S
C7168 H7186 0.931 . S
C7169 C7167 1.365 . S
C7169 C7170 1.409 . S
C7169 H7187 0.929 . S
C7170 C7169 1.409 . S
C7170 C7171 1.380 . S
C7170 H7188 0.930 . S
C7171 C7170 1.380 . S
C7171 C7178 1.357 . S
C7172 C7163 1.511 . S
C7172 C7173 1.341 . S
C7172 C7174 1.371 . S
C7173 C7172 1.341 . S
C7173 C7177 1.394 . S
C7173 H7189 0.930 . S
C7174 C7172 1.371 . S
C7174 C7175 1.392 . S
C7174 H7190 0.931 . S
C7175 C7174 1.392 . S
C7175 C7176 1.331 . S
C7175 H7193 0.932 . S
C7176 C7175 1.331 . S
C7176 C7177 1.336 . S
C7177 C7173 1.394 . S
C7177 C7176 1.336 . S
C7177 H7192 0.929 . S
C7178 C7168 1.386 . S
C7178 C7171 1.357 . S
C7178 H7191 0.928 . S
H7179 C7155 0.931 . S
H7180 C7157 0.930 . S
H7181 C7159 0.929 . S
H7182 C7160 0.931 . S
H7183 C7162 0.930 . S
H7184 C7166 0.931 . S
H7185 C7164 0.931 . S
H7186 C7168 0.931 . S
H7187 C7169 0.929 . S
H7188 C7170 0.930 . S
H7189 C7173 0.930 . S
H7190 C7174 0.931 . S
H7191 C7178 0.928 . S
H7192 C7177 0.929 . S
H7193 C7175 0.932 . S
C7194 C7195 1.386 . S
C7194 C7196 1.397 . S
C7194 H7218 0.931 . S
C7195 C7194 1.386 . S
C7195 C7199 1.397 . S
C7196 C7194 1.397 . S
C7196 C7197 1.384 . S
C7196 H7219 0.930 . S
C7197 C7196 1.384 . S
C7197 C7198 1.377 . S
C7197 C7200 1.481 . S
C7198 C7197 1.377 . S
C7198 C7199 1.389 . S
C7198 H7220 0.929 . S
C7199 C7195 1.397 . S
C7199 C7198 1.389 . S
C7199 H7221 0.931 . S
C7200 C7197 1.481 . S
C7200 C7201 1.387 . S
C7200 C7205 1.390 . S
C7201 C7200 1.387 . S
C7201 C7202 1.401 . S
C7201 H7222 0.930 . S
C7202 C7201 1.401 . S
C7202 C7203 1.376 . S
C7202 C7211 1.511 . S
C7203 C7202 1.376 . S
C7203 C7204 1.392 . S
C7203 H7224 0.931 . S
C7204 C7203 1.392 . S
C7204 C7205 1.361 . S
C7204 C7206 1.500 . S
C7205 C7200 1.390 . S
C7205 C7204 1.361 . S
C7205 H7223 0.931 . S
C7206 C7204 1.500 . S
C7206 C7207 1.371 . S
C7206 C7208 1.365 . S
C7207 C7206 1.371 . S
C7207 C7217 1.386 . S
C7207 H7225 0.931 . S
C7208 C7206 1.365 . S
C7208 C7209 1.409 . S
C7208 H7226 0.929 . S
C7209 C7208 1.409 . S
C7209 C7210 1.380 . S
C7209 H7227 0.930 . S
C7210 C7209 1.380 . S
C7210 C7217 1.357 . S
C7211 C7202 1.511 . S
C7211 C7212 1.341 . S
C7211 C7213 1.371 . S
C7212 C7211 1.341 . S
C7212 C7216 1.394 . S
C7212 H7228 0.930 . S
C7213 C7211 1.371 . S
C7213 C7214 1.392 . S
C7213 H7229 0.931 . S
C7214 C7213 1.392 . S
C7214 C7215 1.331 . S
C7214 H7232 0.932 . S
C7215 C7214 1.331 . S
C7215 C7216 1.336 . S
C7216 C7212 1.394 . S
C7216 C7215 1.336 . S
C7216 H7231 0.929 . S
C7217 C7207 1.386 . S
C7217 C7210 1.357 . S
C7217 H7230 0.928 . S
H7218 C7194 0.931 . S
H7219 C7196 0.930 . S
H7220 C7198 0.929 . S
H7221 C7199 0.931 . S
H7222 C7201 0.930 . S
H7223 C7205 0.931 . S
H7224 C7203 0.931 . S
H7225 C7207 0.931 . S
H7226 C7208 0.929 . S
H7227 C7209 0.930 . S
H7228 C7212 0.930 . S
H7229 C7213 0.931 . S
H7230 C7217 0.928 . S
H7231 C7216 0.929 . S
H7232 C7214 0.932 . S
C7233 C7234 1.386 . S
C7233 C7235 1.397 . S
C7233 H7257 0.931 . S
C7234 C7233 1.386 . S
C7234 C7238 1.397 . S
C7235 C7233 1.397 . S
C7235 C7236 1.384 . S
C7235 H7258 0.930 . S
C7236 C7235 1.384 . S
C7236 C7237 1.377 . S
C7236 C7239 1.481 . S
C7237 C7236 1.377 . S
C7237 C7238 1.389 . S
C7237 H7259 0.929 . S
C7238 C7234 1.397 . S
C7238 C7237 1.389 . S
C7238 H7260 0.931 . S
C7239 C7236 1.481 . S
C7239 C7240 1.387 . S
C7239 C7244 1.390 . S
C7240 C7239 1.387 . S
C7240 C7241 1.401 . S
C7240 H7261 0.930 . S
C7241 C7240 1.401 . S
C7241 C7242 1.376 . S
C7241 C7250 1.511 . S
C7242 C7241 1.376 . S
C7242 C7243 1.392 . S
C7242 H7263 0.931 . S
C7243 C7242 1.392 . S
C7243 C7244 1.361 . S
C7243 C7245 1.500 . S
C7244 C7239 1.390 . S
C7244 C7243 1.361 . S
C7244 H7262 0.931 . S
C7245 C7243 1.500 . S
C7245 C7246 1.371 . S
C7245 C7247 1.365 . S
C7246 C7245 1.371 . S
C7246 C7256 1.386 . S
C7246 H7264 0.931 . S
C7247 C7245 1.365 . S
C7247 C7248 1.409 . S
C7247 H7265 0.929 . S
C7248 C7247 1.409 . S
C7248 C7249 1.380 . S
C7248 H7266 0.930 . S
C7249 C7248 1.380 . S
C7249 C7256 1.357 . S
C7250 C7241 1.511 . S
C7250 C7251 1.341 . S
C7250 C7252 1.371 . S
C7251 C7250 1.341 . S
C7251 C7255 1.394 . S
C7251 H7267 0.930 . S
C7252 C7250 1.371 . S
C7252 C7253 1.392 . S
C7252 H7268 0.931 . S
C7253 C7252 1.392 . S
C7253 C7254 1.331 . S
C7253 H7271 0.932 . S
C7254 C7253 1.331 . S
C7254 C7255 1.336 . S
C7255 C7251 1.394 . S
C7255 C7254 1.336 . S
C7255 H7270 0.929 . S
C7256 C7246 1.386 . S
C7256 C7249 1.357 . S
C7256 H7269 0.928 . S
H7257 C7233 0.931 . S
H7258 C7235 0.930 . S
H7259 C7237 0.929 . S
H7260 C7238 0.931 . S
H7261 C7240 0.930 . S
H7262 C7244 0.931 . S
H7263 C7242 0.931 . S
H7264 C7246 0.931 . S
H7265 C7247 0.929 . S
H7266 C7248 0.930 . S
H7267 C7251 0.930 . S
H7268 C7252 0.931 . S
H7269 C7256 0.928 . S
H7270 C7255 0.929 . S
H7271 C7253 0.932 . S
C7272 C7273 1.386 . S
C7272 C7274 1.397 . S
C7272 H7296 0.931 . S
C7273 C7272 1.386 . S
C7273 C7277 1.397 . S
C7274 C7272 1.397 . S
C7274 C7275 1.384 . S
C7274 H7297 0.930 . S
C7275 C7274 1.384 . S
C7275 C7276 1.377 . S
C7275 C7278 1.481 . S
C7276 C7275 1.377 . S
C7276 C7277 1.389 . S
C7276 H7298 0.929 . S
C7277 C7273 1.397 . S
C7277 C7276 1.389 . S
C7277 H7299 0.931 . S
C7278 C7275 1.481 . S
C7278 C7279 1.387 . S
C7278 C7283 1.390 . S
C7279 C7278 1.387 . S
C7279 C7280 1.401 . S
C7279 H7300 0.930 . S
C7280 C7279 1.401 . S
C7280 C7281 1.376 . S
C7280 C7289 1.511 . S
C7281 C7280 1.376 . S
C7281 C7282 1.392 . S
C7281 H7302 0.931 . S
C7282 C7281 1.392 . S
C7282 C7283 1.361 . S
C7282 C7284 1.500 . S
C7283 C7278 1.390 . S
C7283 C7282 1.361 . S
C7283 H7301 0.931 . S
C7284 C7282 1.500 . S
C7284 C7285 1.371 . S
C7284 C7286 1.365 . S
C7285 C7284 1.371 . S
C7285 C7295 1.386 . S
C7285 H7303 0.931 . S
C7286 C7284 1.365 . S
C7286 C7287 1.409 . S
C7286 H7304 0.929 . S
C7287 C7286 1.409 . S
C7287 C7288 1.380 . S
C7287 H7305 0.930 . S
C7288 C7287 1.380 . S
C7288 C7295 1.357 . S
C7289 C7280 1.511 . S
C7289 C7290 1.341 . S
C7289 C7291 1.371 . S
C7290 C7289 1.341 . S
C7290 C7294 1.394 . S
C7290 H7306 0.930 . S
C7291 C7289 1.371 . S
C7291 C7292 1.392 . S
C7291 H7307 0.931 . S
C7292 C7291 1.392 . S
C7292 C7293 1.331 . S
C7292 H7310 0.932 . S
C7293 C7292 1.331 . S
C7293 C7294 1.336 . S
C7294 C7290 1.394 . S
C7294 C7293 1.336 . S
C7294 H7309 0.929 . S
C7295 C7285 1.386 . S
C7295 C7288 1.357 . S
C7295 H7308 0.928 . S
H7296 C7272 0.931 . S
H7297 C7274 0.930 . S
H7298 C7276 0.929 . S
H7299 C7277 0.931 . S
H7300 C7279 0.930 . S
H7301 C7283 0.931 . S
H7302 C7281 0.931 . S
H7303 C7285 0.931 . S
H7304 C7286 0.929 . S
H7305 C7287 0.930 . S
H7306 C7290 0.930 . S
H7307 C7291 0.931 . S
H7308 C7295 0.928 . S
H7309 C7294 0.929 . S
H7310 C7292 0.932 . S
C7311 C7312 1.386 . S
C7311 C7313 1.397 . S
C7311 H7335 0.931 . S
C7312 C7311 1.386 . S
C7312 C7316 1.397 . S
C7313 C7311 1.397 . S
C7313 C7314 1.384 . S
C7313 H7336 0.930 . S
C7314 C7313 1.384 . S
C7314 C7315 1.377 . S
C7314 C7317 1.481 . S
C7315 C7314 1.377 . S
C7315 C7316 1.389 . S
C7315 H7337 0.929 . S
C7316 C7312 1.397 . S
C7316 C7315 1.389 . S
C7316 H7338 0.931 . S
C7317 C7314 1.481 . S
C7317 C7318 1.387 . S
C7317 C7322 1.390 . S
C7318 C7317 1.387 . S
C7318 C7319 1.401 . S
C7318 H7339 0.930 . S
C7319 C7318 1.401 . S
C7319 C7320 1.376 . S
C7319 C7328 1.511 . S
C7320 C7319 1.376 . S
C7320 C7321 1.392 . S
C7320 H7341 0.931 . S
C7321 C7320 1.392 . S
C7321 C7322 1.361 . S
C7321 C7323 1.500 . S
C7322 C7317 1.390 . S
C7322 C7321 1.361 . S
C7322 H7340 0.931 . S
C7323 C7321 1.500 . S
C7323 C7324 1.371 . S
C7323 C7325 1.365 . S
C7324 C7323 1.371 . S
C7324 C7334 1.386 . S
C7324 H7342 0.931 . S
C7325 C7323 1.365 . S
C7325 C7326 1.409 . S
C7325 H7343 0.929 . S
C7326 C7325 1.409 . S
C7326 C7327 1.380 . S
C7326 H7344 0.930 . S
C7327 C7326 1.380 . S
C7327 C7334 1.357 . S
C7328 C7319 1.511 . S
C7328 C7329 1.341 . S
C7328 C7330 1.371 . S
C7329 C7328 1.341 . S
C7329 C7333 1.394 . S
C7329 H7345 0.930 . S
C7330 C7328 1.371 . S
C7330 C7331 1.392 . S
C7330 H7346 0.931 . S
C7331 C7330 1.392 . S
C7331 C7332 1.331 . S
C7331 H7349 0.932 . S
C7332 C7331 1.331 . S
C7332 C7333 1.336 . S
C7333 C7329 1.394 . S
C7333 C7332 1.336 . S
C7333 H7348 0.929 . S
C7334 C7324 1.386 . S
C7334 C7327 1.357 . S
C7334 H7347 0.928 . S
H7335 C7311 0.931 . S
H7336 C7313 0.930 . S
H7337 C7315 0.929 . S
H7338 C7316 0.931 . S
H7339 C7318 0.930 . S
H7340 C7322 0.931 . S
H7341 C7320 0.931 . S
H7342 C7324 0.931 . S
H7343 C7325 0.929 . S
H7344 C7326 0.930 . S
H7345 C7329 0.930 . S
H7346 C7330 0.931 . S
H7347 C7334 0.928 . S
H7348 C7333 0.929 . S
H7349 C7331 0.932 . S
C7350 C7351 1.386 . S
C7350 C7352 1.397 . S
C7350 H7374 0.931 . S
C7351 C7350 1.386 . S
C7351 C7355 1.397 . S
C7352 C7350 1.397 . S
C7352 C7353 1.384 . S
C7352 H7375 0.930 . S
C7353 C7352 1.384 . S
C7353 C7354 1.377 . S
C7353 C7356 1.481 . S
C7354 C7353 1.377 . S
C7354 C7355 1.389 . S
C7354 H7376 0.929 . S
C7355 C7351 1.397 . S
C7355 C7354 1.389 . S
C7355 H7377 0.931 . S
C7356 C7353 1.481 . S
C7356 C7357 1.387 . S
C7356 C7361 1.390 . S
C7357 C7356 1.387 . S
C7357 C7358 1.401 . S
C7357 H7378 0.930 . S
C7358 C7357 1.401 . S
C7358 C7359 1.376 . S
C7358 C7367 1.511 . S
C7359 C7358 1.376 . S
C7359 C7360 1.392 . S
C7359 H7380 0.931 . S
C7360 C7359 1.392 . S
C7360 C7361 1.361 . S
C7360 C7362 1.500 . S
C7361 C7356 1.390 . S
C7361 C7360 1.361 . S
C7361 H7379 0.931 . S
C7362 C7360 1.500 . S
C7362 C7363 1.371 . S
C7362 C7364 1.365 . S
C7363 C7362 1.371 . S
C7363 C7373 1.386 . S
C7363 H7381 0.931 . S
C7364 C7362 1.365 . S
C7364 C7365 1.409 . S
C7364 H7382 0.929 . S
C7365 C7364 1.409 . S
C7365 C7366 1.380 . S
C7365 H7383 0.930 . S
C7366 C7365 1.380 . S
C7366 C7373 1.357 . S
C7367 C7358 1.511 . S
C7367 C7368 1.341 . S
C7367 C7369 1.371 . S
C7368 C7367 1.341 . S
C7368 C7372 1.394 . S
C7368 H7384 0.930 . S
C7369 C7367 1.371 . S
C7369 C7370 1.392 . S
C7369 H7385 0.931 . S
C7370 C7369 1.392 . S
C7370 C7371 1.331 . S
C7370 H7388 0.932 . S
C7371 C7370 1.331 . S
C7371 C7372 1.336 . S
C7372 C7368 1.394 . S
C7372 C7371 1.336 . S
C7372 H7387 0.929 . S
C7373 C7363 1.386 . S
C7373 C7366 1.357 . S
C7373 H7386 0.928 . S
H7374 C7350 0.931 . S
H7375 C7352 0.930 . S
H7376 C7354 0.929 . S
H7377 C7355 0.931 . S
H7378 C7357 0.930 . S
H7379 C7361 0.931 . S
H7380 C7359 0.931 . S
H7381 C7363 0.931 . S
H7382 C7364 0.929 . S
H7383 C7365 0.930 . S
H7384 C7368 0.930 . S
H7385 C7369 0.931 . S
H7386 C7373 0.928 . S
H7387 C7372 0.929 . S
H7388 C7370 0.932 . S
C7389 C7390 1.386 . S
C7389 C7391 1.397 . S
C7389 H7413 0.931 . S
C7390 C7389 1.386 . S
C7390 C7394 1.397 . S
C7391 C7389 1.397 . S
C7391 C7392 1.384 . S
C7391 H7414 0.930 . S
C7392 C7391 1.384 . S
C7392 C7393 1.377 . S
C7392 C7395 1.481 . S
C7393 C7392 1.377 . S
C7393 C7394 1.389 . S
C7393 H7415 0.929 . S
C7394 C7390 1.397 . S
C7394 C7393 1.389 . S
C7394 H7416 0.931 . S
C7395 C7392 1.481 . S
C7395 C7396 1.387 . S
C7395 C7400 1.390 . S
C7396 C7395 1.387 . S
C7396 C7397 1.401 . S
C7396 H7417 0.930 . S
C7397 C7396 1.401 . S
C7397 C7398 1.376 . S
C7397 C7406 1.511 . S
C7398 C7397 1.376 . S
C7398 C7399 1.392 . S
C7398 H7419 0.931 . S
C7399 C7398 1.392 . S
C7399 C7400 1.361 . S
C7399 C7401 1.500 . S
C7400 C7395 1.390 . S
C7400 C7399 1.361 . S
C7400 H7418 0.931 . S
C7401 C7399 1.500 . S
C7401 C7402 1.371 . S
C7401 C7403 1.365 . S
C7402 C7401 1.371 . S
C7402 C7412 1.386 . S
C7402 H7420 0.931 . S
C7403 C7401 1.365 . S
C7403 C7404 1.409 . S
C7403 H7421 0.929 . S
C7404 C7403 1.409 . S
C7404 C7405 1.380 . S
C7404 H7422 0.930 . S
C7405 C7404 1.380 . S
C7405 C7412 1.357 . S
C7406 C7397 1.511 . S
C7406 C7407 1.341 . S
C7406 C7408 1.371 . S
C7407 C7406 1.341 . S
C7407 C7411 1.394 . S
C7407 H7423 0.930 . S
C7408 C7406 1.371 . S
C7408 C7409 1.392 . S
C7408 H7424 0.931 . S
C7409 C7408 1.392 . S
C7409 C7410 1.331 . S
C7409 H7427 0.932 . S
C7410 C7409 1.331 . S
C7410 C7411 1.336 . S
C7411 C7407 1.394 . S
C7411 C7410 1.336 . S
C7411 H7426 0.929 . S
C7412 C7402 1.386 . S
C7412 C7405 1.357 . S
C7412 H7425 0.928 . S
H7413 C7389 0.931 . S
H7414 C7391 0.930 . S
H7415 C7393 0.929 . S
H7416 C7394 0.931 . S
H7417 C7396 0.930 . S
H7418 C7400 0.931 . S
H7419 C7398 0.931 . S
H7420 C7402 0.931 . S
H7421 C7403 0.929 . S
H7422 C7404 0.930 . S
H7423 C7407 0.930 . S
H7424 C7408 0.931 . S
H7425 C7412 0.928 . S
H7426 C7411 0.929 . S
H7427 C7409 0.932 . S
C7428 C7429 1.386 . S
C7428 C7430 1.397 . S
C7428 H7452 0.931 . S
C7429 C7428 1.386 . S
C7429 C7433 1.397 . S
C7430 C7428 1.397 . S
C7430 C7431 1.384 . S
C7430 H7453 0.930 . S
C7431 C7430 1.384 . S
C7431 C7432 1.377 . S
C7431 C7434 1.481 . S
C7432 C7431 1.377 . S
C7432 C7433 1.389 . S
C7432 H7454 0.929 . S
C7433 C7429 1.397 . S
C7433 C7432 1.389 . S
C7433 H7455 0.931 . S
C7434 C7431 1.481 . S
C7434 C7435 1.387 . S
C7434 C7439 1.390 . S
C7435 C7434 1.387 . S
C7435 C7436 1.401 . S
C7435 H7456 0.930 . S
C7436 C7435 1.401 . S
C7436 C7437 1.376 . S
C7436 C7445 1.511 . S
C7437 C7436 1.376 . S
C7437 C7438 1.392 . S
C7437 H7458 0.931 . S
C7438 C7437 1.392 . S
C7438 C7439 1.361 . S
C7438 C7440 1.500 . S
C7439 C7434 1.390 . S
C7439 C7438 1.361 . S
C7439 H7457 0.931 . S
C7440 C7438 1.500 . S
C7440 C7441 1.371 . S
C7440 C7442 1.365 . S
C7441 C7440 1.371 . S
C7441 C7451 1.386 . S
C7441 H7459 0.931 . S
C7442 C7440 1.365 . S
C7442 C7443 1.409 . S
C7442 H7460 0.929 . S
C7443 C7442 1.409 . S
C7443 C7444 1.380 . S
C7443 H7461 0.930 . S
C7444 C7443 1.380 . S
C7444 C7451 1.357 . S
C7445 C7436 1.511 . S
C7445 C7446 1.341 . S
C7445 C7447 1.371 . S
C7446 C7445 1.341 . S
C7446 C7450 1.394 . S
C7446 H7462 0.930 . S
C7447 C7445 1.371 . S
C7447 C7448 1.392 . S
C7447 H7463 0.931 . S
C7448 C7447 1.392 . S
C7448 C7449 1.331 . S
C7448 H7466 0.932 . S
C7449 C7448 1.331 . S
C7449 C7450 1.336 . S
C7450 C7446 1.394 . S
C7450 C7449 1.336 . S
C7450 H7465 0.929 . S
C7451 C7441 1.386 . S
C7451 C7444 1.357 . S
C7451 H7464 0.928 . S
H7452 C7428 0.931 . S
H7453 C7430 0.930 . S
H7454 C7432 0.929 . S
H7455 C7433 0.931 . S
H7456 C7435 0.930 . S
H7457 C7439 0.931 . S
H7458 C7437 0.931 . S
H7459 C7441 0.931 . S
H7460 C7442 0.929 . S
H7461 C7443 0.930 . S
H7462 C7446 0.930 . S
H7463 C7447 0.931 . S
H7464 C7451 0.928 . S
H7465 C7450 0.929 . S
H7466 C7448 0.932 . S
C7467 C7468 1.386 . S
C7467 C7469 1.397 . S
C7467 H7491 0.931 . S
C7468 C7467 1.386 . S
C7468 C7472 1.397 . S
C7469 C7467 1.397 . S
C7469 C7470 1.384 . S
C7469 H7492 0.930 . S
C7470 C7469 1.384 . S
C7470 C7471 1.377 . S
C7470 C7473 1.481 . S
C7471 C7470 1.377 . S
C7471 C7472 1.389 . S
C7471 H7493 0.929 . S
C7472 C7468 1.397 . S
C7472 C7471 1.389 . S
C7472 H7494 0.931 . S
C7473 C7470 1.481 . S
C7473 C7474 1.387 . S
C7473 C7478 1.390 . S
C7474 C7473 1.387 . S
C7474 C7475 1.401 . S
C7474 H7495 0.930 . S
C7475 C7474 1.401 . S
C7475 C7476 1.376 . S
C7475 C7484 1.511 . S
C7476 C7475 1.376 . S
C7476 C7477 1.392 . S
C7476 H7497 0.931 . S
C7477 C7476 1.392 . S
C7477 C7478 1.361 . S
C7477 C7479 1.500 . S
C7478 C7473 1.390 . S
C7478 C7477 1.361 . S
C7478 H7496 0.931 . S
C7479 C7477 1.500 . S
C7479 C7480 1.371 . S
C7479 C7481 1.365 . S
C7480 C7479 1.371 . S
C7480 C7490 1.386 . S
C7480 H7498 0.931 . S
C7481 C7479 1.365 . S
C7481 C7482 1.409 . S
C7481 H7499 0.929 . S
C7482 C7481 1.409 . S
C7482 C7483 1.380 . S
C7482 H7500 0.930 . S
C7483 C7482 1.380 . S
C7483 C7490 1.357 . S
C7484 C7475 1.511 . S
C7484 C7485 1.341 . S
C7484 C7486 1.371 . S
C7485 C7484 1.341 . S
C7485 C7489 1.394 . S
C7485 H7501 0.930 . S
C7486 C7484 1.371 . S
C7486 C7487 1.392 . S
C7486 H7502 0.931 . S
C7487 C7486 1.392 . S
C7487 C7488 1.331 . S
C7487 H7505 0.932 . S
C7488 C7487 1.331 . S
C7488 C7489 1.336 . S
C7489 C7485 1.394 . S
C7489 C7488 1.336 . S
C7489 H7504 0.929 . S
C7490 C7480 1.386 . S
C7490 C7483 1.357 . S
C7490 H7503 0.928 . S
H7491 C7467 0.931 . S
H7492 C7469 0.930 . S
H7493 C7471 0.929 . S
H7494 C7472 0.931 . S
H7495 C7474 0.930 . S
H7496 C7478 0.931 . S
H7497 C7476 0.931 . S
H7498 C7480 0.931 . S
H7499 C7481 0.929 . S
H7500 C7482 0.930 . S
H7501 C7485 0.930 . S
H7502 C7486 0.931 . S
H7503 C7490 0.928 . S
H7504 C7489 0.929 . S
H7505 C7487 0.932 . S
C7506 C7507 1.386 . S
C7506 C7508 1.397 . S
C7506 H7530 0.931 . S
C7507 C7506 1.386 . S
C7507 C7511 1.397 . S
C7508 C7506 1.397 . S
C7508 C7509 1.384 . S
C7508 H7531 0.930 . S
C7509 C7508 1.384 . S
C7509 C7510 1.377 . S
C7509 C7512 1.481 . S
C7510 C7509 1.377 . S
C7510 C7511 1.389 . S
C7510 H7532 0.929 . S
C7511 C7507 1.397 . S
C7511 C7510 1.389 . S
C7511 H7533 0.931 . S
C7512 C7509 1.481 . S
C7512 C7513 1.387 . S
C7512 C7517 1.390 . S
C7513 C7512 1.387 . S
C7513 C7514 1.401 . S
C7513 H7534 0.930 . S
C7514 C7513 1.401 . S
C7514 C7515 1.376 . S
C7514 C7523 1.511 . S
C7515 C7514 1.376 . S
C7515 C7516 1.392 . S
C7515 H7536 0.931 . S
C7516 C7515 1.392 . S
C7516 C7517 1.361 . S
C7516 C7518 1.500 . S
C7517 C7512 1.390 . S
C7517 C7516 1.361 . S
C7517 H7535 0.931 . S
C7518 C7516 1.500 . S
C7518 C7519 1.371 . S
C7518 C7520 1.365 . S
C7519 C7518 1.371 . S
C7519 C7529 1.386 . S
C7519 H7537 0.931 . S
C7520 C7518 1.365 . S
C7520 C7521 1.409 . S
C7520 H7538 0.929 . S
C7521 C7520 1.409 . S
C7521 C7522 1.380 . S
C7521 H7539 0.930 . S
C7522 C7521 1.380 . S
C7522 C7529 1.357 . S
C7523 C7514 1.511 . S
C7523 C7524 1.341 . S
C7523 C7525 1.371 . S
C7524 C7523 1.341 . S
C7524 C7528 1.394 . S
C7524 H7540 0.930 . S
C7525 C7523 1.371 . S
C7525 C7526 1.392 . S
C7525 H7541 0.931 . S
C7526 C7525 1.392 . S
C7526 C7527 1.331 . S
C7526 H7544 0.932 . S
C7527 C7526 1.331 . S
C7527 C7528 1.336 . S
C7528 C7524 1.394 . S
C7528 C7527 1.336 . S
C7528 H7543 0.929 . S
C7529 C7519 1.386 . S
C7529 C7522 1.357 . S
C7529 H7542 0.928 . S
H7530 C7506 0.931 . S
H7531 C7508 0.930 . S
H7532 C7510 0.929 . S
H7533 C7511 0.931 . S
H7534 C7513 0.930 . S
H7535 C7517 0.931 . S
H7536 C7515 0.931 . S
H7537 C7519 0.931 . S
H7538 C7520 0.929 . S
H7539 C7521 0.930 . S
H7540 C7524 0.930 . S
H7541 C7525 0.931 . S
H7542 C7529 0.928 . S
H7543 C7528 0.929 . S
H7544 C7526 0.932 . S
C7545 C7546 1.386 . S
C7545 C7547 1.397 . S
C7545 H7569 0.931 . S
C7546 C7545 1.386 . S
C7546 C7550 1.397 . S
C7547 C7545 1.397 . S
C7547 C7548 1.384 . S
C7547 H7570 0.930 . S
C7548 C7547 1.384 . S
C7548 C7549 1.377 . S
C7548 C7551 1.481 . S
C7549 C7548 1.377 . S
C7549 C7550 1.389 . S
C7549 H7571 0.929 . S
C7550 C7546 1.397 . S
C7550 C7549 1.389 . S
C7550 H7572 0.931 . S
C7551 C7548 1.481 . S
C7551 C7552 1.387 . S
C7551 C7556 1.390 . S
C7552 C7551 1.387 . S
C7552 C7553 1.401 . S
C7552 H7573 0.930 . S
C7553 C7552 1.401 . S
C7553 C7554 1.376 . S
C7553 C7562 1.511 . S
C7554 C7553 1.376 . S
C7554 C7555 1.392 . S
C7554 H7575 0.931 . S
C7555 C7554 1.392 . S
C7555 C7556 1.361 . S
C7555 C7557 1.500 . S
C7556 C7551 1.390 . S
C7556 C7555 1.361 . S
C7556 H7574 0.931 . S
C7557 C7555 1.500 . S
C7557 C7558 1.371 . S
C7557 C7559 1.365 . S
C7558 C7557 1.371 . S
C7558 C7568 1.386 . S
C7558 H7576 0.931 . S
C7559 C7557 1.365 . S
C7559 C7560 1.409 . S
C7559 H7577 0.929 . S
C7560 C7559 1.409 . S
C7560 C7561 1.380 . S
C7560 H7578 0.930 . S
C7561 C7560 1.380 . S
C7561 C7568 1.357 . S
C7562 C7553 1.511 . S
C7562 C7563 1.341 . S
C7562 C7564 1.371 . S
C7563 C7562 1.341 . S
C7563 C7567 1.394 . S
C7563 H7579 0.930 . S
C7564 C7562 1.371 . S
C7564 C7565 1.392 . S
C7564 H7580 0.931 . S
C7565 C7564 1.392 . S
C7565 C7566 1.331 . S
C7565 H7583 0.932 . S
C7566 C7565 1.331 . S
C7566 C7567 1.336 . S
C7567 C7563 1.394 . S
C7567 C7566 1.336 . S
C7567 H7582 0.929 . S
C7568 C7558 1.386 . S
C7568 C7561 1.357 . S
C7568 H7581 0.928 . S
H7569 C7545 0.931 . S
H7570 C7547 0.930 . S
H7571 C7549 0.929 . S
H7572 C7550 0.931 . S
H7573 C7552 0.930 . S
H7574 C7556 0.931 . S
H7575 C7554 0.931 . S
H7576 C7558 0.931 . S
H7577 C7559 0.929 . S
H7578 C7560 0.930 . S
H7579 C7563 0.930 . S
H7580 C7564 0.931 . S
H7581 C7568 0.928 . S
H7582 C7567 0.929 . S
H7583 C7565 0.932 . S
C7584 C7585 1.387 . S
C7584 H7588 0.950 . S
C7584 C7593 1.390 . S
C7585 C7584 1.387 . S
C7585 C7587 1.387 . S
H7586 C7593 0.950 . S
C7587 C7585 1.387 . S
C7587 C7589 1.390 . S
C7587 H7591 0.950 . S
H7588 C7584 0.950 . S
C7589 C7587 1.390 . S
C7589 C7590 1.387 . S
C7589 H7592 0.950 . S
C7590 C7589 1.387 . S
C7590 C7593 1.387 . S
H7591 C7587 0.950 . S
H7592 C7589 0.950 . S
C7593 C7584 1.390 . S
C7593 H7586 0.950 . S
C7593 C7590 1.387 . S
C7594 C7595 1.387 . S
C7594 H7598 0.950 . S
C7594 C7603 1.390 . S
C7595 C7594 1.387 . S
C7595 C7597 1.387 . S
H7596 C7603 0.950 . S
C7597 C7595 1.387 . S
C7597 C7599 1.390 . S
C7597 H7601 0.950 . S
H7598 C7594 0.950 . S
C7599 C7597 1.390 . S
C7599 C7600 1.387 . S
C7599 H7602 0.950 . S
C7600 C7599 1.387 . S
C7600 C7603 1.387 . S
H7601 C7597 0.950 . S
H7602 C7599 0.950 . S
C7603 C7594 1.390 . S
C7603 H7596 0.950 . S
C7603 C7600 1.387 . S
C7604 C7605 1.387 . S
C7604 H7608 0.950 . S
C7604 C7613 1.390 . S
C7605 C7604 1.387 . S
C7605 C7607 1.387 . S
H7606 C7613 0.950 . S
C7607 C7605 1.387 . S
C7607 C7609 1.390 . S
C7607 H7611 0.950 . S
H7608 C7604 0.950 . S
C7609 C7607 1.390 . S
C7609 C7610 1.387 . S
C7609 H7612 0.950 . S
C7610 C7609 1.387 . S
C7610 C7613 1.387 . S
H7611 C7607 0.950 . S
H7612 C7609 0.950 . S
C7613 C7604 1.390 . S
C7613 H7606 0.950 . S
C7613 C7610 1.387 . S
C7614 C7615 1.387 . S
C7614 H7618 0.950 . S
C7614 C7623 1.390 . S
C7615 C7614 1.387 . S
C7615 C7617 1.387 . S
H7616 C7623 0.950 . S
C7617 C7615 1.387 . S
C7617 C7619 1.390 . S
C7617 H7621 0.950 . S
H7618 C7614 0.950 . S
C7619 C7617 1.390 . S
C7619 C7620 1.387 . S
C7619 H7622 0.950 . S
C7620 C7619 1.387 . S
C7620 C7623 1.387 . S
H7621 C7617 0.950 . S
H7622 C7619 0.950 . S
C7623 C7614 1.390 . S
C7623 H7616 0.950 . S
C7623 C7620 1.387 . S
C7624 C7625 1.387 . S
C7624 H7628 0.950 . S
C7624 C7633 1.390 . S
C7625 C7624 1.387 . S
C7625 C7627 1.387 . S
H7626 C7633 0.950 . S
C7627 C7625 1.387 . S
C7627 C7629 1.474 . S
C7627 H7631 0.950 . S
H7628 C7624 0.950 . S
C7629 C7627 1.474 . S
C7629 C7630 1.400 . S
C7629 H7632 0.868 1_455 S
C7630 C7629 1.400 . S
C7630 C7633 1.387 . S
H7631 C7627 0.950 . S
H7632 C7629 0.868 1_655 S
C7633 C7624 1.390 . S
C7633 H7626 0.950 . S
C7633 C7630 1.387 . S
C7634 C7635 1.387 . S
C7634 H7638 0.950 . S
C7634 C7643 1.390 . S
C7635 C7634 1.387 . S
C7635 C7637 1.387 . S
H7636 C7643 0.950 . S
C7637 C7635 1.387 . S
C7637 C7639 1.390 . S
C7637 H7641 0.950 . S
H7638 C7634 0.950 . S
C7639 C7637 1.390 . S
C7639 C7640 1.387 . S
C7639 H7642 0.950 . S
C7640 C7639 1.387 . S
C7640 C7643 1.387 . S
H7641 C7637 0.950 . S
H7642 C7639 0.950 . S
C7643 C7634 1.390 . S
C7643 H7636 0.950 . S
C7643 C7640 1.387 . S
C7644 C7645 1.387 . S
C7644 H7648 0.950 . S
C7644 C7653 1.390 . S
C7645 C7644 1.387 . S
C7645 C7647 1.387 . S
H7646 C7653 0.950 . S
C7647 C7645 1.387 . S
C7647 C7649 1.390 . S
C7647 H7651 0.950 . S
H7648 C7644 0.950 . S
C7649 C7647 1.390 . S
C7649 C7650 1.387 . S
C7649 H7652 0.950 . S
C7650 C7649 1.387 . S
C7650 C7653 1.387 . S
H7651 C7647 0.950 . S
H7652 C7649 0.950 . S
C7653 C7644 1.390 . S
C7653 H7646 0.950 . S
C7653 C7650 1.387 . S
C7654 C7655 1.387 . S
C7654 H7658 0.950 . S
C7654 C7663 1.390 . S
C7655 C7654 1.387 . S
C7655 C7657 1.387 . S
H7656 C7663 0.950 . S
C7657 C7655 1.387 . S
C7657 C7659 1.390 . S
C7657 H7661 0.950 . S
H7658 C7654 0.950 . S
C7659 C7657 1.390 . S
C7659 C7660 1.387 . S
C7659 H7662 0.950 . S
C7660 C7659 1.387 . S
C7660 C7663 1.387 . S
H7661 C7657 0.950 . S
H7662 C7659 0.950 . S
C7663 C7654 1.390 . S
C7663 H7656 0.950 . S
C7663 C7660 1.387 . S
C7664 C7665 1.387 . S
C7664 H7668 0.950 . S
C7664 C7673 1.390 . S
C7665 C7664 1.387 . S
C7665 C7667 1.387 . S
H7666 C7673 0.950 . S
C7667 C7665 1.387 . S
C7667 C7669 1.390 . S
C7667 H7671 0.950 . S
H7668 C7664 0.950 . S
C7669 C7667 1.390 . S
C7669 C7670 1.387 . S
C7669 H7672 0.920 1_545 S
C7670 C7669 1.387 . S
C7670 C7673 1.387 . S
H7671 C7667 0.950 . S
H7672 C7669 0.920 1_565 S
C7673 C7664 1.390 . S
C7673 H7666 0.950 . S
C7673 C7670 1.387 . S
C7674 C7675 1.387 . S
C7674 H7678 0.950 . S
C7674 C7683 1.390 . S
C7675 C7674 1.387 . S
C7675 C7677 1.387 . S
H7676 C7683 0.950 . S
C7677 C7675 1.387 . S
C7677 C7679 1.390 . S
C7677 H7681 0.950 . S
H7678 C7674 0.950 . S
C7679 C7677 1.390 . S
C7679 C7680 1.387 . S
C7679 H7682 0.950 . S
C7680 C7679 1.387 . S
C7680 C7683 1.387 . S
H7681 C7677 0.950 . S
H7682 C7679 0.950 . S
C7683 C7674 1.390 . S
C7683 H7676 0.950 . S
C7683 C7680 1.387 . S
C7684 C7685 1.387 . S
C7684 H7688 0.950 . S
C7684 C7693 1.390 1_565 S
C7685 C7684 1.387 . S
C7685 C7687 1.387 . S
H7686 C7693 0.950 . S
C7687 C7685 1.387 . S
C7687 C7689 1.390 . S
C7687 H7691 0.950 . S
H7688 C7684 0.950 . S
C7689 C7687 1.390 . S
C7689 C7690 1.387 . S
C7689 H7692 0.950 . S
C7690 C7689 1.387 . S
C7690 C7693 1.387 1_565 S
H7691 C7687 0.950 . S
H7692 C7689 0.950 . S
C7693 C7684 1.390 1_545 S
C7693 H7686 0.950 . S
C7693 C7690 1.387 1_545 S
C7694 C7695 1.387 . S
C7694 H7698 0.950 . S
C7694 C7703 1.390 . S
C7695 C7694 1.387 . S
C7695 C7697 1.387 . S
H7696 C7703 0.950 . S
C7697 C7695 1.387 . S
C7697 C7699 1.390 . S
C7697 H7701 0.950 . S
H7698 C7694 0.950 . S
C7699 C7697 1.390 . S
C7699 C7700 1.387 . S
C7699 H7702 0.950 . S
C7700 C7699 1.387 . S
C7700 C7703 1.387 . S
H7701 C7697 0.950 . S
H7702 C7699 0.950 . S
C7703 C7694 1.390 . S
C7703 H7696 0.950 . S
C7703 C7700 1.387 . S
C7704 C7705 1.387 . S
C7704 H7708 0.950 . S
C7704 C7713 1.390 . S
C7705 C7704 1.387 . S
C7705 C7707 1.387 . S
H7706 C7713 0.950 . S
C7707 C7705 1.387 . S
C7707 C7709 1.390 . S
C7707 H7711 0.950 . S
H7708 C7704 0.950 . S
C7709 C7707 1.390 . S
C7709 C7710 1.387 . S
C7709 H7712 0.950 1_565 S
C7710 C7709 1.387 . S
C7710 C7713 1.387 . S
H7711 C7707 0.950 . S
H7712 C7709 0.950 1_545 S
C7713 C7704 1.390 . S
C7713 H7706 0.950 . S
C7713 C7710 1.387 . S
C7714 C7715 1.387 . S
C7714 H7718 0.950 . S
C7714 C7723 1.390 . S
C7715 C7714 1.387 . S
C7715 C7717 1.387 . S
H7716 C7723 0.950 . S
C7717 C7715 1.387 . S
C7717 C7719 1.390 . S
C7717 H7721 0.950 . S
H7718 C7714 0.950 . S
C7719 C7717 1.390 . S
C7719 C7720 1.387 . S
C7719 H7722 0.950 . S
C7720 C7719 1.387 . S
C7720 C7723 1.387 . S
H7721 C7717 0.950 . S
H7722 C7719 0.950 . S
C7723 C7714 1.390 . S
C7723 H7716 0.950 . S
C7723 C7720 1.387 . S
C7724 C7725 1.387 . S
C7724 H7728 0.950 . S
C7724 C7733 1.390 . S
C7725 C7724 1.387 . S
C7725 C7727 1.387 . S
H7726 C7733 0.950 . S
C7727 C7725 1.387 . S
C7727 C7729 1.390 1_545 S
C7727 H7731 0.950 . S
H7728 C7724 0.950 . S
C7729 C7727 1.390 1_565 S
C7729 C7730 1.387 1_565 S
C7729 H7732 0.950 . S
C7730 C7729 1.387 1_545 S
C7730 C7733 1.387 . S
H7731 C7727 0.950 . S
H7732 C7729 0.950 . S
C7733 C7724 1.390 . S
C7733 H7726 0.950 . S
C7733 C7730 1.387 . S
C7734 C7735 1.387 . S
C7734 H7738 0.950 . S
C7734 C7743 1.390 . S
C7735 C7734 1.387 . S
C7735 C7737 1.387 . S
H7736 C7743 0.950 . S
C7737 C7735 1.387 . S
C7737 C7739 1.390 . S
C7737 H7741 0.950 . S
H7738 C7734 0.950 . S
C7739 C7737 1.390 . S
C7739 C7740 1.387 . S
C7739 H7742 0.950 . S
C7740 C7739 1.387 . S
C7740 C7743 1.387 . S
H7741 C7737 0.950 . S
H7742 C7739 0.950 . S
C7743 C7734 1.390 . S
C7743 H7736 0.950 . S
C7743 C7740 1.387 . S
C7744 C7745 1.387 . S
C7744 H7748 0.950 . S
C7744 C7753 1.390 . S
C7745 C7744 1.387 . S
C7745 C7747 1.387 . S
H7746 C7753 0.950 . S
C7747 C7745 1.387 . S
C7747 C7749 1.349 1_554 S
C7747 H7751 0.950 . S
H7748 C7744 0.950 . S
C7749 C7747 1.349 1_556 S
C7749 C7750 1.374 1_556 S
C7749 H7752 1.008 . S
C7750 C7749 1.374 1_554 S
C7750 C7753 1.387 . S
H7751 C7747 0.950 . S
H7752 C7749 1.008 . S
C7753 C7744 1.390 . S
C7753 H7746 0.950 . S
C7753 C7750 1.387 . S
C7754 C7755 1.387 . S
C7754 H7758 0.950 . S
C7754 C7763 1.390 . S
C7755 C7754 1.387 . S
C7755 C7757 1.387 . S
H7756 C7763 0.950 1_554 S
C7757 C7755 1.387 . S
C7757 C7759 1.390 . S
C7757 H7761 0.950 . S
H7758 C7754 0.950 . S
C7759 C7757 1.390 . S
C7759 C7760 1.387 . S
C7759 H7762 0.950 . S
C7760 C7759 1.387 . S
C7760 C7763 1.387 . S
H7761 C7757 0.950 . S
H7762 C7759 0.950 . S
C7763 C7754 1.390 . S
C7763 H7756 0.950 1_556 S
C7763 C7760 1.387 . S
C7764 C7765 1.387 . S
C7764 H7768 0.950 . S
C7764 C7773 1.390 . S
C7765 C7764 1.387 . S
C7765 C7767 1.387 . S
H7766 C7773 0.950 . S
C7767 C7765 1.387 . S
C7767 C7769 1.390 . S
C7767 H7771 0.950 . S
H7768 C7764 0.950 . S
C7769 C7767 1.390 . S
C7769 C7770 1.387 . S
C7769 H7772 0.950 . S
C7770 C7769 1.387 . S
C7770 C7773 1.387 . S
H7771 C7767 0.950 . S
H7772 C7769 0.950 . S
C7773 C7764 1.390 . S
C7773 H7766 0.950 . S
C7773 C7770 1.387 . S
C7774 C7775 1.387 . S
C7774 H7778 0.950 . S
C7774 C7783 1.390 . S
C7775 C7774 1.387 . S
C7775 C7777 1.387 . S
H7776 C7783 0.950 . S
C7777 C7775 1.387 . S
C7777 C7779 1.390 . S
C7777 H7781 0.950 . S
H7778 C7774 0.950 . S
C7779 C7777 1.390 . S
C7779 C7780 1.387 . S
C7779 H7782 0.950 . S
C7780 C7779 1.387 . S
C7780 C7783 1.387 . S
H7781 C7777 0.950 . S
H7782 C7779 0.950 . S
C7783 C7774 1.390 . S
C7783 H7776 0.950 . S
C7783 C7780 1.387 . S
C7784 C7785 1.387 . S
C7784 H7788 0.950 . S
C7784 C7793 1.390 . S
C7785 C7784 1.387 . S
C7785 C7787 1.387 . S
H7786 C7793 0.950 . S
C7787 C7785 1.387 . S
C7787 C7789 1.390 . S
C7787 H7791 0.950 . S
H7788 C7784 0.950 . S
C7789 C7787 1.390 . S
C7789 C7790 1.387 . S
C7789 H7792 0.950 . S
C7790 C7789 1.387 . S
C7790 C7793 1.387 . S
H7791 C7787 0.950 . S
H7792 C7789 0.950 . S
C7793 C7784 1.390 . S
C7793 H7786 0.950 . S
C7793 C7790 1.387 . S
C7794 C7795 1.387 . S
C7794 H7798 0.950 . S
C7794 C7803 1.390 . S
C7795 C7794 1.387 . S
C7795 C7797 1.387 . S
H7796 C7803 0.950 . S
C7797 C7795 1.387 . S
C7797 C7799 1.390 . S
C7797 H7801 0.950 . S
H7798 C7794 0.950 . S
C7799 C7797 1.390 . S
C7799 C7800 1.387 . S
C7799 H7802 0.950 . S
C7800 C7799 1.387 . S
C7800 C7803 1.387 . S
H7801 C7797 0.950 . S
H7802 C7799 0.950 . S
C7803 C7794 1.390 . S
C7803 H7796 0.950 . S
C7803 C7800 1.387 . S
C7804 C7805 1.387 . S
C7804 H7808 0.950 . S
C7804 C7813 1.390 . S
C7805 C7804 1.387 . S
C7805 C7807 1.387 . S
H7806 C7813 0.950 . S
C7807 C7805 1.387 . S
C7807 C7809 1.390 . S
C7807 H7811 0.950 . S
H7808 C7804 0.950 . S
C7809 C7807 1.390 . S
C7809 C7810 1.387 . S
C7809 H7812 0.950 . S
C7810 C7809 1.387 . S
C7810 C7813 1.387 . S
H7811 C7807 0.950 . S
H7812 C7809 0.950 . S
C7813 C7804 1.390 . S
C7813 H7806 0.950 . S
C7813 C7810 1.387 . S
C7814 C7815 1.387 . S
C7814 H7818 0.950 . S
C7814 C7823 1.390 . S
C7815 C7814 1.387 . S
C7815 C7817 1.387 . S
H7816 C7823 0.950 . S
C7817 C7815 1.387 . S
C7817 C7819 1.390 . S
C7817 H7821 0.950 . S
H7818 C7814 0.950 . S
C7819 C7817 1.390 . S
C7819 C7820 1.387 . S
C7819 H7822 0.950 . S
C7820 C7819 1.387 . S
C7820 C7823 1.387 . S
H7821 C7817 0.950 . S
H7822 C7819 0.950 . S
C7823 C7814 1.390 . S
C7823 H7816 0.950 . S
C7823 C7820 1.387 . S
C7824 C7825 1.387 . S
C7824 H7828 0.950 . S
C7824 C7833 1.390 . S
C7825 C7824 1.387 . S
C7825 C7827 1.387 . S
H7826 C7833 0.950 . S
C7827 C7825 1.387 . S
C7827 C7829 1.390 . S
C7827 H7831 0.950 . S
H7828 C7824 0.950 . S
C7829 C7827 1.390 . S
C7829 C7830 1.387 . S
C7829 H7832 0.950 . S
C7830 C7829 1.387 . S
C7830 C7833 1.387 . S
H7831 C7827 0.950 . S
H7832 C7829 0.950 . S
C7833 C7824 1.390 . S
C7833 H7826 0.950 . S
C7833 C7830 1.387 . S
C7834 C7835 1.387 . S
C7834 H7838 0.950 . S
C7834 C7843 1.390 . S
C7835 C7834 1.387 . S
C7835 C7837 1.387 . S
H7836 C7843 0.950 . S
C7837 C7835 1.387 . S
C7837 C7839 1.390 . S
C7837 H7841 0.950 . S
H7838 C7834 0.950 . S
C7839 C7837 1.390 . S
C7839 C7840 1.387 . S
C7839 H7842 0.950 . S
C7840 C7839 1.387 . S
C7840 C7843 1.387 . S
H7841 C7837 0.950 . S
H7842 C7839 0.950 . S
C7843 C7834 1.390 . S
C7843 H7836 0.950 . S
C7843 C7840 1.387 . S
C7844 C7845 1.387 . S
C7844 H7848 0.950 . S
C7844 C7853 1.390 . S
C7845 C7844 1.387 . S
C7845 C7847 1.387 . S
H7846 C7853 0.950 . S
C7847 C7845 1.387 . S
C7847 C7849 1.390 . S
C7847 H7851 0.950 . S
H7848 C7844 0.950 . S
C7849 C7847 1.390 . S
C7849 C7850 1.387 . S
C7849 H7852 0.950 . S
C7850 C7849 1.387 . S
C7850 C7853 1.387 . S
H7851 C7847 0.950 . S
H7852 C7849 0.950 . S
C7853 C7844 1.390 . S
C7853 H7846 0.950 . S
C7853 C7850 1.387 . S
C7854 C7855 1.387 . S
C7854 H7858 0.950 . S
C7854 C7863 1.390 . S
C7855 C7854 1.387 . S
C7855 C7857 1.387 . S
H7856 C7863 0.950 . S
C7857 C7855 1.387 . S
C7857 C7859 1.390 . S
C7857 H7861 0.950 . S
H7858 C7854 0.950 . S
C7859 C7857 1.390 . S
C7859 C7860 1.387 . S
C7859 H7862 0.950 . S
C7860 C7859 1.387 . S
C7860 C7863 1.387 . S
H7861 C7857 0.950 . S
H7862 C7859 0.950 . S
C7863 C7854 1.390 . S
C7863 H7856 0.950 . S
C7863 C7860 1.387 . S
C7864 C7865 1.387 . S
C7864 H7868 0.950 . S
C7864 C7873 1.390 . S
C7865 C7864 1.387 . S
C7865 C7867 1.387 . S
H7866 C7873 0.950 . S
C7867 C7865 1.387 . S
C7867 C7869 1.390 . S
C7867 H7871 0.950 . S
H7868 C7864 0.950 . S
C7869 C7867 1.390 . S
C7869 C7870 1.387 . S
C7869 H7872 0.976 . S
C7870 C7869 1.387 . S
C7870 C7873 1.387 . S
H7871 C7867 0.950 . S
H7872 C7869 0.976 . S
C7873 C7864 1.390 . S
C7873 H7866 0.950 . S
C7873 C7870 1.387 . S
C7874 C7875 1.387 . S
C7874 H7878 0.950 . S
C7874 C7883 1.390 . S
C7875 C7874 1.387 . S
C7875 C7877 1.387 . S
H7876 C7883 0.950 . S
C7877 C7875 1.387 . S
C7877 C7879 1.390 . S
C7877 H7881 0.950 . S
H7878 C7874 0.950 . S
C7879 C7877 1.390 . S
C7879 C7880 1.387 . S
C7879 H7882 0.950 . S
C7880 C7879 1.387 . S
C7880 C7883 1.387 . S
H7881 C7877 0.950 . S
H7882 C7879 0.950 . S
C7883 C7874 1.390 . S
C7883 H7876 0.950 . S
C7883 C7880 1.387 . S
C7884 C7885 1.387 . S
C7884 H7888 0.950 . S
C7884 C7893 1.390 . S
C7885 C7884 1.387 . S
C7885 C7887 1.387 . S
H7886 C7893 0.950 . S
C7887 C7885 1.387 . S
C7887 C7889 1.390 . S
C7887 H7891 0.950 . S
H7888 C7884 0.950 . S
C7889 C7887 1.390 . S
C7889 C7890 1.387 . S
C7889 H7892 0.950 . S
C7890 C7889 1.387 . S
C7890 C7893 1.387 . S
H7891 C7887 0.950 . S
H7892 C7889 0.950 . S
C7893 C7884 1.390 . S
C7893 H7886 0.950 . S
C7893 C7890 1.387 . S
C7894 C7895 1.387 . S
C7894 H7898 0.950 . S
C7894 C7903 1.390 . S
C7895 C7894 1.387 . S
C7895 C7897 1.387 . S
H7896 C7903 0.950 . S
C7897 C7895 1.387 . S
C7897 C7899 1.390 . S
C7897 H7901 0.950 . S
H7898 C7894 0.950 . S
C7899 C7897 1.390 . S
C7899 C7900 1.387 . S
C7899 H7902 0.950 . S
C7900 C7899 1.387 . S
C7900 C7903 1.387 . S
H7901 C7897 0.950 . S
H7902 C7899 0.950 . S
C7903 C7894 1.390 . S
C7903 H7896 0.950 . S
C7903 C7900 1.387 . S
C7904 C7905 1.387 . S
C7904 H7908 0.950 . S
C7904 C7913 1.390 . S
C7905 C7904 1.387 . S
C7905 C7907 1.387 . S
H7906 C7913 0.950 . S
C7907 C7905 1.387 . S
C7907 C7909 1.398 1_565 S
C7907 H7911 0.950 . S
H7908 C7904 0.950 . S
C7909 C7907 1.398 1_545 S
C7909 C7910 1.390 1_545 S
C7909 H7912 0.940 . S
C7910 C7909 1.390 1_565 S
C7910 C7913 1.387 . S
H7911 C7907 0.950 . S
H7912 C7909 0.940 . S
C7913 C7904 1.390 . S
C7913 H7906 0.950 . S
C7913 C7910 1.387 . S
C7914 C7915 1.387 . S
C7914 H7918 0.950 . S
C7914 C7923 1.390 . S
C7915 C7914 1.387 . S
C7915 C7917 1.387 . S
H7916 C7923 0.950 . S
C7917 C7915 1.387 . S
C7917 C7919 1.390 . S
C7917 H7921 0.950 . S
H7918 C7914 0.950 . S
C7919 C7917 1.390 . S
C7919 C7920 1.387 . S
C7919 H7922 0.950 . S
C7920 C7919 1.387 . S
C7920 C7923 1.387 . S
H7921 C7917 0.950 . S
H7922 C7919 0.950 . S
C7923 C7914 1.390 . S
C7923 H7916 0.950 . S
C7923 C7920 1.387 . S
C7924 C7925 1.387 . S
C7924 H7928 0.950 . S
C7924 C7933 1.390 . S
C7925 C7924 1.387 . S
C7925 C7927 1.387 . S
H7926 C7933 0.961 . S
C7927 C7925 1.387 . S
C7927 C7929 1.390 . S
C7927 H7931 0.950 . S
H7928 C7924 0.950 . S
C7929 C7927 1.390 . S
C7929 C7930 1.387 . S
C7929 H7932 0.950 . S
C7930 C7929 1.387 . S
C7930 C7933 1.387 . S
H7931 C7927 0.950 . S
H7932 C7929 0.950 . S
C7933 C7924 1.390 . S
C7933 H7926 0.961 . S
C7933 C7930 1.387 . S
C7934 C7935 1.387 . S
C7934 H7938 0.950 . S
C7934 C7943 1.390 . S
C7935 C7934 1.387 . S
C7935 C7937 1.387 . S
H7936 C7943 0.950 . S
C7937 C7935 1.387 . S
C7937 C7939 1.390 . S
C7937 H7941 0.950 . S
H7938 C7934 0.950 . S
C7939 C7937 1.390 . S
C7939 C7940 1.387 . S
C7939 H7942 0.950 . S
C7940 C7939 1.387 . S
C7940 C7943 1.387 . S
H7941 C7937 0.950 . S
H7942 C7939 0.950 . S
C7943 C7934 1.390 . S
C7943 H7936 0.950 . S
C7943 C7940 1.387 . S
C7944 C7945 1.387 . S
C7944 H7948 0.950 . S
C7944 C7953 1.390 . S
C7945 C7944 1.387 . S
C7945 C7947 1.387 . S
H7946 C7953 0.950 . S
C7947 C7945 1.387 . S
C7947 C7949 1.390 . S
C7947 H7951 0.950 . S
H7948 C7944 0.950 . S
C7949 C7947 1.390 . S
C7949 C7950 1.387 . S
C7949 H7952 0.950 1_545 S
C7950 C7949 1.387 . S
C7950 C7953 1.387 . S
H7951 C7947 0.950 . S
H7952 C7949 0.950 1_565 S
C7953 C7944 1.390 . S
C7953 H7946 0.950 . S
C7953 C7950 1.387 . S
C7954 C7955 1.387 . S
C7954 H7958 0.950 . S
C7954 C7963 1.390 . S
C7955 C7954 1.387 . S
C7955 C7957 1.387 . S
H7956 C7963 0.950 . S
C7957 C7955 1.387 . S
C7957 C7959 1.390 . S
C7957 H7961 0.950 . S
H7958 C7954 0.950 . S
C7959 C7957 1.390 . S
C7959 C7960 1.387 . S
C7959 H7962 0.950 . S
C7960 C7959 1.387 . S
C7960 C7963 1.387 . S
H7961 C7957 0.950 . S
H7962 C7959 0.950 . S
C7963 C7954 1.390 . S
C7963 H7956 0.950 . S
C7963 C7960 1.387 . S
C7964 C7965 1.387 . S
C7964 H7968 0.950 . S
C7964 C7973 1.483 . S
C7965 C7964 1.387 . S
C7965 C7967 1.387 . S
H7966 C7973 0.863 1_545 S
C7967 C7965 1.387 . S
C7967 C7969 1.390 . S
C7967 H7971 0.950 . S
H7968 C7964 0.950 . S
C7969 C7967 1.390 . S
C7969 C7970 1.387 . S
C7969 H7972 0.950 . S
C7970 C7969 1.387 . S
C7970 C7973 1.400 . S
H7971 C7967 0.950 . S
H7972 C7969 0.950 . S
C7973 C7964 1.483 . S
C7973 H7966 0.863 1_565 S
C7973 C7970 1.400 . S
C7974 C7975 1.387 . S
C7974 H7978 0.950 . S
C7974 C7983 1.390 . S
C7975 C7974 1.387 . S
C7975 C7977 1.387 . S
H7976 C7983 0.950 . S
C7977 C7975 1.387 . S
C7977 C7979 1.390 . S
C7977 H7981 0.950 . S
H7978 C7974 0.950 . S
C7979 C7977 1.390 . S
C7979 C7980 1.387 . S
C7979 H7982 0.950 . S
C7980 C7979 1.387 . S
C7980 C7983 1.387 . S
H7981 C7977 0.950 . S
H7982 C7979 0.950 . S
C7983 C7974 1.390 . S
C7983 H7976 0.950 . S
C7983 C7980 1.387 . S
C7984 C7985 1.387 . S
C7984 H7988 0.950 . S
C7984 C7993 1.390 . S
C7985 C7984 1.387 . S
C7985 C7987 1.387 . S
H7986 C7993 0.950 . S
C7987 C7985 1.387 . S
C7987 C7989 1.390 1_556 S
C7987 H7991 0.950 . S
H7988 C7984 0.950 . S
C7989 C7987 1.390 1_554 S
C7989 C7990 1.387 1_554 S
C7989 H7992 0.950 . S
C7990 C7989 1.387 1_556 S
C7990 C7993 1.387 . S
H7991 C7987 0.950 . S
H7992 C7989 0.950 . S
C7993 C7984 1.390 . S
C7993 H7986 0.950 . S
C7993 C7990 1.387 . S
C7994 C7995 1.387 . S
C7994 H7998 0.950 . S
C7994 C8003 1.390 1_554 S
C7995 C7994 1.387 . S
C7995 C7997 1.387 . S
H7996 C8003 0.950 . S
C7997 C7995 1.387 . S
C7997 C7999 1.390 . S
C7997 H8001 0.950 . S
H7998 C7994 0.950 . S
C7999 C7997 1.390 . S
C7999 C8000 1.387 . S
C7999 H8002 0.950 . S
C8000 C7999 1.387 . S
C8000 C8003 1.387 1_554 S
H8001 C7997 0.950 . S
H8002 C7999 0.950 . S
C8003 C7994 1.390 1_556 S
C8003 H7996 0.950 . S
C8003 C8000 1.387 1_556 S
C8004 C8005 1.387 . S
C8004 H8008 0.950 . S
C8004 C8013 1.390 . S
C8005 C8004 1.387 . S
C8005 C8007 1.387 . S
H8006 C8013 0.950 . S
C8007 C8005 1.387 . S
C8007 C8009 1.390 . S
C8007 H8011 0.950 . S
H8008 C8004 0.950 . S
C8009 C8007 1.390 . S
C8009 C8010 1.387 . S
C8009 H8012 0.950 . S
C8010 C8009 1.387 . S
C8010 C8013 1.387 . S
H8011 C8007 0.950 . S
H8012 C8009 0.950 . S
C8013 C8004 1.390 . S
C8013 H8006 0.950 . S
C8013 C8010 1.387 . S
C8014 C8015 1.387 . S
C8014 H8018 0.950 . S
C8014 C8023 1.390 . S
C8015 C8014 1.387 . S
C8015 C8017 1.387 . S
H8016 C8023 0.950 . S
C8017 C8015 1.387 . S
C8017 C8019 1.390 . S
C8017 H8021 0.950 . S
H8018 C8014 0.950 . S
C8019 C8017 1.390 . S
C8019 C8020 1.387 . S
C8019 H8022 0.950 . S
C8020 C8019 1.387 . S
C8020 C8023 1.387 . S
H8021 C8017 0.950 . S
H8022 C8019 0.950 . S
C8023 C8014 1.390 . S
C8023 H8016 0.950 . S
C8023 C8020 1.387 . S
C8024 C8025 1.387 . S
C8024 H8028 0.950 . S
C8024 C8033 1.390 . S
C8025 C8024 1.387 . S
C8025 C8027 1.387 . S
H8026 C8033 0.950 . S
C8027 C8025 1.387 . S
C8027 C8029 1.390 . S
C8027 H8031 0.950 . S
H8028 C8024 0.950 . S
C8029 C8027 1.390 . S
C8029 C8030 1.387 . S
C8029 H8032 0.950 . S
C8030 C8029 1.387 . S
C8030 C8033 1.387 . S
H8031 C8027 0.950 . S
H8032 C8029 0.950 . S
C8033 C8024 1.390 . S
C8033 H8026 0.950 . S
C8033 C8030 1.387 . S
C8034 C8035 1.387 . S
C8034 H8038 0.950 . S
C8034 C8043 1.390 . S
C8035 C8034 1.387 . S
C8035 C8037 1.387 . S
H8036 C8043 0.950 . S
C8037 C8035 1.387 . S
C8037 C8039 1.390 . S
C8037 H8041 0.950 . S
H8038 C8034 0.950 . S
C8039 C8037 1.390 . S
C8039 C8040 1.387 . S
C8039 H8042 0.950 . S
C8040 C8039 1.387 . S
C8040 C8043 1.387 . S
H8041 C8037 0.950 . S
H8042 C8039 0.950 . S
C8043 C8034 1.390 . S
C8043 H8036 0.950 . S
C8043 C8040 1.387 . S
C8044 C8045 1.387 . S
C8044 H8048 0.950 . S
C8044 C8053 1.390 . S
C8045 C8044 1.387 . S
C8045 C8047 1.387 . S
H8046 C8053 0.950 . S
C8047 C8045 1.387 . S
C8047 C8049 1.390 . S
C8047 H8051 0.950 . S
H8048 C8044 0.950 . S
C8049 C8047 1.390 . S
C8049 C8050 1.387 . S
C8049 H8052 0.950 . S
C8050 C8049 1.387 . S
C8050 C8053 1.387 . S
H8051 C8047 0.950 . S
H8052 C8049 0.950 . S
C8053 C8044 1.390 . S
C8053 H8046 0.950 . S
C8053 C8050 1.387 . S
C8054 C8055 1.387 . S
C8054 H8058 0.950 . S
C8054 C8063 1.390 . S
C8055 C8054 1.387 . S
C8055 C8057 1.387 . S
H8056 C8063 0.950 . S
C8057 C8055 1.387 . S
C8057 C8059 1.390 . S
C8057 H8061 0.950 . S
H8058 C8054 0.950 . S
C8059 C8057 1.390 . S
C8059 C8060 1.387 . S
C8059 H8062 0.950 . S
C8060 C8059 1.387 . S
C8060 C8063 1.387 . S
H8061 C8057 0.950 . S
H8062 C8059 0.950 . S
C8063 C8054 1.390 . S
C8063 H8056 0.950 . S
C8063 C8060 1.387 . S
C8064 C8065 1.387 . S
C8064 H8068 0.950 . S
C8064 C8073 1.390 . S
C8065 C8064 1.387 . S
C8065 C8067 1.387 . S
H8066 C8073 0.950 . S
C8067 C8065 1.387 . S
C8067 C8069 1.390 . S
C8067 H8071 0.950 . S
H8068 C8064 0.950 . S
C8069 C8067 1.390 . S
C8069 C8070 1.387 . S
C8069 H8072 0.950 . S
C8070 C8069 1.387 . S
C8070 C8073 1.387 . S
H8071 C8067 0.950 . S
H8072 C8069 0.950 . S
C8073 C8064 1.390 . S
C8073 H8066 0.950 . S
C8073 C8070 1.387 . S
C8074 C8075 1.387 . S
C8074 H8078 0.950 . S
C8074 C8083 1.390 . S
C8075 C8074 1.387 . S
C8075 C8077 1.387 . S
H8076 C8083 0.950 . S
C8077 C8075 1.387 . S
C8077 C8079 1.390 . S
C8077 H8081 0.950 . S
H8078 C8074 0.950 . S
C8079 C8077 1.390 . S
C8079 C8080 1.387 . S
C8079 H8082 0.950 . S
C8080 C8079 1.387 . S
C8080 C8083 1.387 . S
H8081 C8077 0.950 . S
H8082 C8079 0.950 . S
C8083 C8074 1.390 . S
C8083 H8076 0.950 . S
C8083 C8080 1.387 . S
C8084 C8085 1.387 . S
C8084 H8088 0.950 . S
C8084 C8093 1.390 . S
C8085 C8084 1.387 . S
C8085 C8087 1.387 . S
H8086 C8093 0.950 . S
C8087 C8085 1.387 . S
C8087 C8089 1.390 . S
C8087 H8091 0.950 . S
H8088 C8084 0.950 . S
C8089 C8087 1.390 . S
C8089 C8090 1.387 . S
C8089 H8092 0.950 1_655 S
C8090 C8089 1.387 . S
C8090 C8093 1.387 . S
H8091 C8087 0.950 . S
H8092 C8089 0.950 1_455 S
C8093 C8084 1.390 . S
C8093 H8086 0.950 . S
C8093 C8090 1.387 . S
C8094 C8095 1.387 . S
C8094 H8098 0.950 . S
C8094 C8103 1.390 . S
C8095 C8094 1.387 . S
C8095 C8097 1.387 . S
H8096 C8103 0.950 . S
C8097 C8095 1.387 . S
C8097 C8099 1.390 . S
C8097 H8101 0.950 . S
H8098 C8094 0.950 . S
C8099 C8097 1.390 . S
C8099 C8100 1.387 . S
C8099 H8102 0.950 . S
C8100 C8099 1.387 . S
C8100 C8103 1.387 . S
H8101 C8097 0.950 . S
H8102 C8099 0.950 . S
C8103 C8094 1.390 . S
C8103 H8096 0.950 . S
C8103 C8100 1.387 . S
C8104 C8105 1.387 . S
C8104 H8108 0.950 . S
C8104 C8113 1.390 . S
C8105 C8104 1.387 . S
C8105 C8107 1.387 . S
H8106 C8113 0.950 . S
C8107 C8105 1.387 . S
C8107 C8109 1.390 . S
C8107 H8111 0.950 . S
H8108 C8104 0.950 . S
C8109 C8107 1.390 . S
C8109 C8110 1.387 . S
C8109 H8112 0.950 . S
C8110 C8109 1.387 . S
C8110 C8113 1.387 . S
H8111 C8107 0.950 . S
H8112 C8109 0.950 . S
C8113 C8104 1.390 . S
C8113 H8106 0.950 . S
C8113 C8110 1.387 . S
C8114 C8115 1.387 . S
C8114 H8118 0.950 . S
C8114 C8123 1.390 . S
C8115 C8114 1.387 . S
C8115 C8117 1.387 . S
H8116 C8123 0.950 . S
C8117 C8115 1.387 . S
C8117 C8119 1.390 . S
C8117 H8121 0.950 . S
H8118 C8114 0.950 . S
C8119 C8117 1.390 . S
C8119 C8120 1.387 . S
C8119 H8122 0.950 . S
C8120 C8119 1.387 . S
C8120 C8123 1.387 . S
H8121 C8117 0.950 . S
H8122 C8119 0.950 . S
C8123 C8114 1.390 . S
C8123 H8116 0.950 . S
C8123 C8120 1.387 . S
C8124 C8125 1.387 . S
C8124 H8128 0.950 . S
C8124 C8133 1.390 . S
C8125 C8124 1.387 . S
C8125 C8127 1.387 . S
H8126 C8133 0.913 1_455 S
C8127 C8125 1.387 . S
C8127 C8129 1.390 . S
C8127 H8131 0.950 . S
H8128 C8124 0.950 . S
C8129 C8127 1.390 . S
C8129 C8130 1.387 . S
C8129 H8132 0.950 . S
C8130 C8129 1.387 . S
C8130 C8133 1.387 . S
H8131 C8127 0.950 . S
H8132 C8129 0.950 . S
C8133 C8124 1.390 . S
C8133 H8126 0.913 1_655 S
C8133 C8130 1.387 . S
C8134 C8135 1.387 . S
C8134 H8138 0.950 . S
C8134 C8143 1.390 . S
C8135 C8134 1.387 . S
C8135 C8137 1.387 . S
H8136 C8143 0.950 . S
C8137 C8135 1.387 . S
C8137 C8139 1.390 . S
C8137 H8141 0.950 . S
H8138 C8134 0.950 . S
C8139 C8137 1.390 . S
C8139 C8140 1.387 . S
C8139 H8142 0.950 . S
C8140 C8139 1.387 . S
C8140 C8143 1.387 . S
H8141 C8137 0.950 . S
H8142 C8139 0.950 . S
C8143 C8134 1.390 . S
C8143 H8136 0.950 . S
C8143 C8140 1.387 . S
C8144 C8145 1.387 . S
C8144 H8148 0.950 . S
C8144 C8153 1.390 . S
C8145 C8144 1.387 . S
C8145 C8147 1.387 . S
H8146 C8153 0.950 . S
C8147 C8145 1.387 . S
C8147 C8149 1.390 . S
C8147 H8151 0.950 . S
H8148 C8144 0.950 . S
C8149 C8147 1.390 . S
C8149 C8150 1.387 . S
C8149 H8152 0.950 . S
C8150 C8149 1.387 . S
C8150 C8153 1.387 . S
H8151 C8147 0.950 . S
H8152 C8149 0.950 . S
C8153 C8144 1.390 . S
C8153 H8146 0.950 . S
C8153 C8150 1.387 . S
C8154 C8155 1.387 . S
C8154 H8158 0.950 . S
C8154 C8163 1.390 . S
C8155 C8154 1.387 . S
C8155 C8157 1.387 . S
H8156 C8163 0.950 . S
C8157 C8155 1.387 . S
C8157 C8159 1.390 . S
C8157 H8161 0.950 . S
H8158 C8154 0.950 . S
C8159 C8157 1.390 . S
C8159 C8160 1.387 . S
C8159 H8162 0.950 . S
C8160 C8159 1.387 . S
C8160 C8163 1.387 . S
H8161 C8157 0.950 . S
H8162 C8159 0.950 . S
C8163 C8154 1.390 . S
C8163 H8156 0.950 . S
C8163 C8160 1.387 . S
C8164 C8165 1.387 . S
C8164 H8168 0.950 . S
C8164 C8173 1.390 . S
C8165 C8164 1.387 . S
C8165 C8167 1.387 . S
H8166 C8173 0.950 . S
C8167 C8165 1.387 . S
C8167 C8169 1.390 . S
C8167 H8171 0.950 . S
H8168 C8164 0.950 . S
C8169 C8167 1.390 . S
C8169 C8170 1.387 . S
C8169 H8172 0.950 . S
C8170 C8169 1.387 . S
C8170 C8173 1.387 . S
H8171 C8167 0.950 . S
H8172 C8169 0.950 . S
C8173 C8164 1.390 . S
C8173 H8166 0.950 . S
C8173 C8170 1.387 . S
C8174 C8175 1.387 . S
C8174 H8178 0.950 . S
C8174 C8183 1.390 . S
C8175 C8174 1.387 . S
C8175 C8177 1.387 . S
H8176 C8183 0.950 . S
C8177 C8175 1.387 . S
C8177 C8179 1.390 . S
C8177 H8181 0.950 . S
H8178 C8174 0.950 . S
C8179 C8177 1.390 . S
C8179 C8180 1.387 . S
C8179 H8182 0.950 . S
C8180 C8179 1.387 . S
C8180 C8183 1.387 . S
H8181 C8177 0.950 . S
H8182 C8179 0.950 . S
C8183 C8174 1.390 . S
C8183 H8176 0.950 . S
C8183 C8180 1.387 . S
C8184 C8185 1.387 . S
C8184 H8188 0.950 . S
C8184 C8193 1.390 . S
C8185 C8184 1.387 . S
C8185 C8187 1.387 . S
H8186 C8193 0.950 . S
C8187 C8185 1.387 . S
C8187 C8189 1.390 . S
C8187 H8191 0.950 . S
H8188 C8184 0.950 . S
C8189 C8187 1.390 . S
C8189 C8190 1.387 . S
C8189 H8192 0.950 . S
C8190 C8189 1.387 . S
C8190 C8193 1.387 . S
H8191 C8187 0.950 . S
H8192 C8189 0.950 . S
C8193 C8184 1.390 . S
C8193 H8186 0.950 . S
C8193 C8190 1.387 . S
C8194 C8195 1.387 . S
C8194 H8198 0.950 . S
C8194 C8203 1.390 . S
C8195 C8194 1.387 . S
C8195 C8197 1.387 . S
H8196 C8203 0.950 . S
C8197 C8195 1.387 . S
C8197 C8199 1.390 . S
C8197 H8201 0.950 . S
H8198 C8194 0.950 . S
C8199 C8197 1.390 . S
C8199 C8200 1.387 . S
C8199 H8202 0.950 . S
C8200 C8199 1.387 . S
C8200 C8203 1.387 . S
H8201 C8197 0.950 . S
H8202 C8199 0.950 . S
C8203 C8194 1.390 . S
C8203 H8196 0.950 . S
C8203 C8200 1.387 . S
C8204 C8205 1.387 . S
C8204 H8208 0.950 . S
C8204 C8213 1.390 . S
C8205 C8204 1.387 . S
C8205 C8207 1.387 . S
H8206 C8213 0.950 . S
C8207 C8205 1.387 . S
C8207 C8209 1.390 . S
C8207 H8211 0.950 . S
H8208 C8204 0.950 . S
C8209 C8207 1.390 . S
C8209 C8210 1.387 . S
C8209 H8212 0.950 . S
C8210 C8209 1.387 . S
C8210 C8213 1.387 . S
H8211 C8207 0.950 . S
H8212 C8209 0.950 . S
C8213 C8204 1.390 . S
C8213 H8206 0.950 . S
C8213 C8210 1.387 . S
C8214 C8215 1.387 . S
C8214 H8218 0.950 . S
C8214 C8223 1.390 . S
C8215 C8214 1.387 . S
C8215 C8217 1.387 . S
H8216 C8223 0.950 . S
C8217 C8215 1.387 . S
C8217 C8219 1.390 . S
C8217 H8221 0.950 . S
H8218 C8214 0.950 . S
C8219 C8217 1.390 . S
C8219 C8220 1.387 . S
C8219 H8222 0.950 . S
C8220 C8219 1.387 . S
C8220 C8223 1.387 . S
H8221 C8217 0.950 . S
H8222 C8219 0.950 . S
C8223 C8214 1.390 . S
C8223 H8216 0.950 . S
C8223 C8220 1.387 . S
C8224 C8225 1.387 . S
C8224 H8228 0.950 . S
C8224 C8233 1.390 . S
C8225 C8224 1.387 . S
C8225 C8227 1.387 . S
H8226 C8233 0.950 . S
C8227 C8225 1.387 . S
C8227 C8229 1.390 . S
C8227 H8231 0.950 . S
H8228 C8224 0.950 . S
C8229 C8227 1.390 . S
C8229 C8230 1.387 . S
C8229 H8232 0.950 . S
C8230 C8229 1.387 . S
C8230 C8233 1.387 . S
H8231 C8227 0.950 . S
H8232 C8229 0.950 . S
C8233 C8224 1.390 . S
C8233 H8226 0.950 . S
C8233 C8230 1.387 . S
C8234 C8235 1.387 . S
C8234 H8238 0.950 . S
C8234 C8243 1.390 . S
C8235 C8234 1.387 . S
C8235 C8237 1.387 . S
H8236 C8243 0.950 . S
C8237 C8235 1.387 . S
C8237 C8239 1.390 . S
C8237 H8241 0.950 . S
H8238 C8234 0.950 . S
C8239 C8237 1.390 . S
C8239 C8240 1.387 . S
C8239 H8242 0.950 . S
C8240 C8239 1.387 . S
C8240 C8243 1.387 . S
H8241 C8237 0.950 . S
H8242 C8239 0.950 . S
C8243 C8234 1.390 . S
C8243 H8236 0.950 . S
C8243 C8240 1.387 . S
C8244 C8245 1.387 . S
C8244 H8248 0.950 . S
C8244 C8253 1.390 . S
C8245 C8244 1.387 . S
C8245 C8247 1.387 . S
H8246 C8253 0.950 . S
C8247 C8245 1.387 . S
C8247 C8249 1.390 . S
C8247 H8251 0.950 . S
H8248 C8244 0.950 . S
C8249 C8247 1.390 . S
C8249 C8250 1.387 . S
C8249 H8252 0.950 . S
C8250 C8249 1.387 . S
C8250 C8253 1.387 . S
H8251 C8247 0.950 . S
H8252 C8249 0.950 . S
C8253 C8244 1.390 . S
C8253 H8246 0.950 . S
C8253 C8250 1.387 . S
C8254 C8255 1.387 . S
C8254 H8258 0.950 . S
C8254 C8263 1.390 . S
C8255 C8254 1.387 . S
C8255 C8257 1.387 . S
H8256 C8263 0.950 . S
C8257 C8255 1.387 . S
C8257 C8259 1.390 1_556 S
C8257 H8261 0.950 . S
H8258 C8254 0.950 . S
C8259 C8257 1.390 1_554 S
C8259 C8260 1.387 1_554 S
C8259 H8262 0.950 . S
C8260 C8259 1.387 1_556 S
C8260 C8263 1.387 . S
H8261 C8257 0.950 . S
H8262 C8259 0.950 . S
C8263 C8254 1.390 . S
C8263 H8256 0.950 . S
C8263 C8260 1.387 . S
C8264 C8265 1.387 . S
C8264 H8268 0.950 . S
C8264 C8273 1.390 . S
C8265 C8264 1.387 . S
C8265 C8267 1.387 . S
H8266 C8273 0.950 . S
C8267 C8265 1.387 . S
C8267 C8269 1.390 . S
C8267 H8271 0.950 . S
H8268 C8264 0.950 . S
C8269 C8267 1.390 . S
C8269 C8270 1.387 . S
C8269 H8272 0.950 . S
C8270 C8269 1.387 . S
C8270 C8273 1.387 . S
H8271 C8267 0.950 . S
H8272 C8269 0.950 . S
C8273 C8264 1.390 . S
C8273 H8266 0.950 . S
C8273 C8270 1.387 . S
C8274 C8275 1.387 . S
C8274 H8278 0.950 . S
C8274 C8283 1.390 1_554 S
C8275 C8274 1.387 . S
C8275 C8277 1.387 . S
H8276 C8283 0.950 . S
C8277 C8275 1.387 . S
C8277 C8279 1.390 . S
C8277 H8281 0.950 . S
H8278 C8274 0.950 . S
C8279 C8277 1.390 . S
C8279 C8280 1.387 . S
C8279 H8282 0.950 . S
C8280 C8279 1.387 . S
C8280 C8283 1.387 1_554 S
H8281 C8277 0.950 . S
H8282 C8279 0.950 . S
C8283 C8274 1.390 1_556 S
C8283 H8276 0.950 . S
C8283 C8280 1.387 1_556 S
C8284 C8285 1.387 . S
C8284 H8288 0.950 . S
C8284 C8293 1.390 . S
C8285 C8284 1.387 . S
C8285 C8287 1.387 . S
H8286 C8293 0.950 . S
C8287 C8285 1.387 . S
C8287 C8289 1.390 . S
C8287 H8291 0.950 . S
H8288 C8284 0.950 . S
C8289 C8287 1.390 . S
C8289 C8290 1.387 . S
C8289 H8292 0.950 . S
C8290 C8289 1.387 . S
C8290 C8293 1.387 . S
H8291 C8287 0.950 . S
H8292 C8289 0.950 . S
C8293 C8284 1.390 . S
C8293 H8286 0.950 . S
C8293 C8290 1.387 . S
C8294 C8295 1.387 . S
C8294 H8298 0.950 . S
C8294 C8303 1.390 . S
C8295 C8294 1.387 . S
C8295 C8297 1.387 . S
H8296 C8303 0.950 . S
C8297 C8295 1.387 . S
C8297 C8299 1.390 . S
C8297 H8301 0.950 . S
H8298 C8294 0.950 . S
C8299 C8297 1.390 . S
C8299 C8300 1.387 . S
C8299 H8302 0.950 . S
C8300 C8299 1.387 . S
C8300 C8303 1.387 . S
H8301 C8297 0.950 . S
H8302 C8299 0.950 . S
C8303 C8294 1.390 . S
C8303 H8296 0.950 . S
C8303 C8300 1.387 . S
C8304 C8305 1.387 . S
C8304 H8308 0.950 . S
C8304 C8313 1.390 . S
C8305 C8304 1.387 . S
C8305 C8307 1.387 . S
H8306 C8313 0.950 . S
C8307 C8305 1.387 . S
C8307 C8309 1.390 . S
C8307 H8311 0.950 . S
H8308 C8304 0.950 . S
C8309 C8307 1.390 . S
C8309 C8310 1.387 . S
C8309 H8312 0.950 . S
C8310 C8309 1.387 . S
C8310 C8313 1.387 . S
H8311 C8307 0.950 . S
H8312 C8309 0.950 . S
C8313 C8304 1.390 . S
C8313 H8306 0.950 . S
C8313 C8310 1.387 . S
C8314 C8315 1.387 . S
C8314 H8318 0.950 . S
C8314 C8323 1.390 . S
C8315 C8314 1.387 . S
C8315 C8317 1.387 . S
H8316 C8323 0.950 . S
C8317 C8315 1.387 . S
C8317 C8319 1.390 . S
C8317 H8321 0.950 . S
H8318 C8314 0.950 . S
C8319 C8317 1.390 . S
C8319 C8320 1.387 . S
C8319 H8322 0.950 . S
C8320 C8319 1.387 . S
C8320 C8323 1.387 . S
H8321 C8317 0.950 . S
H8322 C8319 0.950 . S
C8323 C8314 1.390 . S
C8323 H8316 0.950 . S
C8323 C8320 1.387 . S
C8324 C8325 1.387 . S
C8324 H8328 0.950 . S
C8324 C8333 1.390 . S
C8325 C8324 1.387 . S
C8325 C8327 1.387 . S
H8326 C8333 0.950 . S
C8327 C8325 1.387 . S
C8327 C8329 1.390 1_455 S
C8327 H8331 0.950 . S
H8328 C8324 0.950 . S
C8329 C8327 1.390 1_655 S
C8329 C8330 1.387 1_655 S
C8329 H8332 0.950 . S
C8330 C8329 1.387 1_455 S
C8330 C8333 1.387 . S
H8331 C8327 0.950 . S
H8332 C8329 0.950 . S
C8333 C8324 1.390 . S
C8333 H8326 0.950 . S
C8333 C8330 1.387 . S
C8334 C8335 1.387 . S
C8334 H8338 0.950 . S
C8334 C8343 1.390 . S
C8335 C8334 1.387 . S
C8335 C8337 1.387 . S
H8336 C8343 0.950 . S
C8337 C8335 1.387 . S
C8337 C8339 1.390 . S
C8337 H8341 0.950 . S
H8338 C8334 0.950 . S
C8339 C8337 1.390 . S
C8339 C8340 1.387 . S
C8339 H8342 0.950 . S
C8340 C8339 1.387 . S
C8340 C8343 1.387 . S
H8341 C8337 0.950 . S
H8342 C8339 0.950 . S
C8343 C8334 1.390 . S
C8343 H8336 0.950 . S
C8343 C8340 1.387 . S
C8344 C8345 1.387 . S
C8344 H8348 0.950 . S
C8344 C8353 1.390 . S
C8345 C8344 1.387 . S
C8345 C8347 1.387 . S
H8346 C8353 0.950 . S
C8347 C8345 1.387 . S
C8347 C8349 1.390 . S
C8347 H8351 0.950 . S
H8348 C8344 0.950 . S
C8349 C8347 1.390 . S
C8349 C8350 1.387 . S
C8349 H8352 0.950 . S
C8350 C8349 1.387 . S
C8350 C8353 1.387 . S
H8351 C8347 0.950 . S
H8352 C8349 0.950 . S
C8353 C8344 1.390 . S
C8353 H8346 0.950 . S
C8353 C8350 1.387 . S
C8354 C8355 1.387 . S
C8354 H8358 0.950 . S
C8354 C8363 1.390 . S
C8355 C8354 1.387 . S
C8355 C8357 1.387 . S
H8356 C8363 0.950 . S
C8357 C8355 1.387 . S
C8357 C8359 1.390 . S
C8357 H8361 0.950 . S
H8358 C8354 0.950 . S
C8359 C8357 1.390 . S
C8359 C8360 1.387 . S
C8359 H8362 0.950 . S
C8360 C8359 1.387 . S
C8360 C8363 1.387 . S
H8361 C8357 0.950 . S
H8362 C8359 0.950 . S
C8363 C8354 1.390 . S
C8363 H8356 0.950 . S
C8363 C8360 1.387 . S
C8364 C8365 1.387 . S
C8364 H8368 0.950 . S
C8364 C8373 1.390 . S
C8365 C8364 1.387 . S
C8365 C8367 1.387 . S
H8366 C8373 0.950 . S
C8367 C8365 1.387 . S
C8367 C8369 1.390 . S
C8367 H8371 0.950 . S
H8368 C8364 0.950 . S
C8369 C8367 1.390 . S
C8369 C8370 1.387 . S
C8369 H8372 0.894 1_455 S
C8370 C8369 1.387 . S
C8370 C8373 1.387 . S
H8371 C8367 0.950 . S
H8372 C8369 0.894 1_655 S
C8373 C8364 1.390 . S
C8373 H8366 0.950 . S
C8373 C8370 1.387 . S
C8374 C8375 1.387 . S
C8374 H8378 0.950 . S
C8374 C8383 1.390 . S
C8375 C8374 1.387 . S
C8375 C8377 1.387 . S
H8376 C8383 0.950 . S
C8377 C8375 1.387 . S
C8377 C8379 1.390 . S
C8377 H8381 0.950 . S
H8378 C8374 0.950 . S
C8379 C8377 1.390 . S
C8379 C8380 1.387 . S
C8379 H8382 0.950 . S
C8380 C8379 1.387 . S
C8380 C8383 1.387 . S
H8381 C8377 0.950 . S
H8382 C8379 0.950 . S
C8383 C8374 1.390 . S
C8383 H8376 0.950 . S
C8383 C8380 1.387 . S
C8384 C8385 1.387 . S
C8384 H8388 0.950 . S
C8384 C8393 1.390 . S
C8385 C8384 1.387 . S
C8385 C8387 1.387 . S
H8386 C8393 0.950 . S
C8387 C8385 1.387 . S
C8387 C8389 1.390 . S
C8387 H8391 0.950 . S
H8388 C8384 0.950 . S
C8389 C8387 1.390 . S
C8389 C8390 1.387 . S
C8389 H8392 0.950 . S
C8390 C8389 1.387 . S
C8390 C8393 1.387 . S
H8391 C8387 0.950 . S
H8392 C8389 0.950 . S
C8393 C8384 1.390 . S
C8393 H8386 0.950 . S
C8393 C8390 1.387 . S
C8394 C8395 1.387 . S
C8394 H8398 0.950 . S
C8394 C8403 1.390 . S
C8395 C8394 1.387 . S
C8395 C8397 1.387 . S
H8396 C8403 0.950 . S
C8397 C8395 1.387 . S
C8397 C8399 1.390 . S
C8397 H8401 0.950 . S
H8398 C8394 0.950 . S
C8399 C8397 1.390 . S
C8399 C8400 1.387 . S
C8399 H8402 0.950 . S
C8400 C8399 1.387 . S
C8400 C8403 1.387 . S
H8401 C8397 0.950 . S
H8402 C8399 0.950 . S
C8403 C8394 1.390 . S
C8403 H8396 0.950 . S
C8403 C8400 1.387 . S
C8404 C8405 1.387 . S
C8404 H8408 0.950 . S
C8404 C8413 1.390 . S
C8405 C8404 1.387 . S
C8405 C8407 1.387 . S
H8406 C8413 0.950 . S
C8407 C8405 1.387 . S
C8407 C8409 1.390 . S
C8407 H8411 0.950 . S
H8408 C8404 0.950 . S
C8409 C8407 1.390 . S
C8409 C8410 1.387 . S
C8409 H8412 0.950 . S
C8410 C8409 1.387 . S
C8410 C8413 1.387 . S
H8411 C8407 0.950 . S
H8412 C8409 0.950 . S
C8413 C8404 1.390 . S
C8413 H8406 0.950 . S
C8413 C8410 1.387 . S
C8414 C8415 1.387 . S
C8414 H8418 0.950 . S
C8414 C8423 1.390 . S
C8415 C8414 1.387 . S
C8415 C8417 1.387 . S
H8416 C8423 0.950 . S
C8417 C8415 1.387 . S
C8417 C8419 1.390 . S
C8417 H8421 0.950 . S
H8418 C8414 0.950 . S
C8419 C8417 1.390 . S
C8419 C8420 1.387 . S
C8419 H8422 0.950 . S
C8420 C8419 1.387 . S
C8420 C8423 1.387 . S
H8421 C8417 0.950 . S
H8422 C8419 0.950 . S
C8423 C8414 1.390 . S
C8423 H8416 0.950 . S
C8423 C8420 1.387 . S
C8424 C8425 1.387 . S
C8424 H8428 0.950 . S
C8424 C8433 1.390 . S
C8425 C8424 1.387 . S
C8425 C8427 1.387 . S
H8426 C8433 0.950 . S
C8427 C8425 1.387 . S
C8427 C8429 1.390 . S
C8427 H8431 0.950 . S
H8428 C8424 0.950 . S
C8429 C8427 1.390 . S
C8429 C8430 1.387 . S
C8429 H8432 0.950 . S
C8430 C8429 1.387 . S
C8430 C8433 1.387 . S
H8431 C8427 0.950 . S
H8432 C8429 0.950 . S
C8433 C8424 1.390 . S
C8433 H8426 0.950 . S
C8433 C8430 1.387 . S
C8434 C8435 1.387 . S
C8434 H8438 0.950 . S
C8434 C8443 1.390 . S
C8435 C8434 1.387 . S
C8435 C8437 1.387 . S
H8436 C8443 0.950 . S
C8437 C8435 1.387 . S
C8437 C8439 1.390 . S
C8437 H8441 0.950 . S
H8438 C8434 0.950 . S
C8439 C8437 1.390 . S
C8439 C8440 1.387 . S
C8439 H8442 0.950 . S
C8440 C8439 1.387 . S
C8440 C8443 1.387 . S
H8441 C8437 0.950 . S
H8442 C8439 0.950 . S
C8443 C8434 1.390 . S
C8443 H8436 0.950 . S
C8443 C8440 1.387 . S
C8444 C8445 1.387 . S
C8444 H8448 0.950 . S
C8444 C8453 1.390 . S
C8445 C8444 1.387 . S
C8445 C8447 1.387 . S
H8446 C8453 0.950 . S
C8447 C8445 1.387 . S
C8447 C8449 1.390 . S
C8447 H8451 0.950 . S
H8448 C8444 0.950 . S
C8449 C8447 1.390 . S
C8449 C8450 1.387 . S
C8449 H8452 0.950 . S
C8450 C8449 1.387 . S
C8450 C8453 1.387 . S
H8451 C8447 0.950 . S
H8452 C8449 0.950 . S
C8453 C8444 1.390 . S
C8453 H8446 0.950 . S
C8453 C8450 1.387 . S
C8454 C8455 1.387 . S
C8454 H8458 0.950 . S
C8454 C8463 1.390 . S
C8455 C8454 1.387 . S
C8455 C8457 1.387 . S
H8456 C8463 0.950 . S
C8457 C8455 1.387 . S
C8457 C8459 1.390 . S
C8457 H8461 0.950 . S
H8458 C8454 0.950 . S
C8459 C8457 1.390 . S
C8459 C8460 1.387 . S
C8459 H8462 0.950 . S
C8460 C8459 1.387 . S
C8460 C8463 1.387 . S
H8461 C8457 0.950 . S
H8462 C8459 0.950 . S
C8463 C8454 1.390 . S
C8463 H8456 0.950 . S
C8463 C8460 1.387 . S
C8464 C8465 1.387 . S
C8464 H8468 0.950 . S
C8464 C8473 1.390 . S
C8465 C8464 1.387 . S
C8465 C8467 1.387 . S
H8466 C8473 0.950 . S
C8467 C8465 1.387 . S
C8467 C8469 1.390 . S
C8467 H8471 0.950 . S
H8468 C8464 0.950 . S
C8469 C8467 1.390 . S
C8469 C8470 1.387 . S
C8469 H8472 0.950 . S
C8470 C8469 1.387 . S
C8470 C8473 1.387 . S
H8471 C8467 0.950 . S
H8472 C8469 0.950 . S
C8473 C8464 1.390 . S
C8473 H8466 0.950 . S
C8473 C8470 1.387 . S
C8474 C8475 1.387 . S
C8474 H8478 0.950 . S
C8474 C8483 1.390 . S
C8475 C8474 1.387 . S
C8475 C8477 1.387 . S
H8476 C8483 0.950 . S
C8477 C8475 1.387 . S
C8477 C8479 1.390 . S
C8477 H8481 0.950 . S
H8478 C8474 0.950 . S
C8479 C8477 1.390 . S
C8479 C8480 1.387 . S
C8479 H8482 0.950 . S
C8480 C8479 1.387 . S
C8480 C8483 1.387 . S
H8481 C8477 0.950 . S
H8482 C8479 0.950 . S
C8483 C8474 1.390 . S
C8483 H8476 0.950 . S
C8483 C8480 1.387 . S
C8484 C8485 1.387 . S
C8484 H8488 0.950 . S
C8484 C8493 1.390 . S
C8485 C8484 1.387 . S
C8485 C8487 1.387 . S
H8486 C8493 0.950 . S
C8487 C8485 1.387 . S
C8487 C8489 1.390 . S
C8487 H8491 0.950 . S
H8488 C8484 0.950 . S
C8489 C8487 1.390 . S
C8489 C8490 1.387 . S
C8489 H8492 0.950 . S
C8490 C8489 1.387 . S
C8490 C8493 1.387 . S
H8491 C8487 0.950 . S
H8492 C8489 0.950 . S
C8493 C8484 1.390 . S
C8493 H8486 0.950 . S
C8493 C8490 1.387 . S
C8494 C8495 1.387 . S
C8494 H8498 0.950 . S
C8494 C8503 1.390 . S
C8495 C8494 1.387 . S
C8495 C8497 1.387 . S
H8496 C8503 0.950 . S
C8497 C8495 1.387 . S
C8497 C8499 1.390 1_554 S
C8497 H8501 0.950 . S
H8498 C8494 0.950 . S
C8499 C8497 1.390 1_556 S
C8499 C8500 1.387 1_556 S
C8499 H8502 0.950 . S
C8500 C8499 1.387 1_554 S
C8500 C8503 1.387 . S
H8501 C8497 0.950 . S
H8502 C8499 0.950 . S
C8503 C8494 1.390 . S
C8503 H8496 0.950 . S
C8503 C8500 1.387 . S
C8504 C8505 1.387 . S
C8504 H8508 0.950 . S
C8504 C8513 1.390 . S
C8505 C8504 1.387 . S
C8505 C8507 1.387 . S
H8506 C8513 0.950 . S
C8507 C8505 1.387 . S
C8507 C8509 1.390 . S
C8507 H8511 0.950 . S
H8508 C8504 0.950 . S
C8509 C8507 1.390 . S
C8509 C8510 1.387 . S
C8509 H8512 0.950 . S
C8510 C8509 1.387 . S
C8510 C8513 1.387 . S
H8511 C8507 0.950 . S
H8512 C8509 0.950 . S
C8513 C8504 1.390 . S
C8513 H8506 0.950 . S
C8513 C8510 1.387 . S
C8514 C8515 1.387 . S
C8514 H8518 0.950 . S
C8514 C8523 1.390 1_556 S
C8515 C8514 1.387 . S
C8515 C8517 1.387 . S
H8516 C8523 0.950 . S
C8517 C8515 1.387 . S
C8517 C8519 1.390 . S
C8517 H8521 0.950 . S
H8518 C8514 0.950 . S
C8519 C8517 1.390 . S
C8519 C8520 1.387 . S
C8519 H8522 0.950 . S
C8520 C8519 1.387 . S
C8520 C8523 1.387 1_556 S
H8521 C8517 0.950 . S
H8522 C8519 0.950 . S
C8523 C8514 1.390 1_554 S
C8523 H8516 0.950 . S
C8523 C8520 1.387 1_554 S
C8524 C8525 1.387 . S
C8524 H8528 0.950 . S
C8524 C8533 1.390 . S
C8525 C8524 1.387 . S
C8525 C8527 1.387 . S
H8526 C8533 0.950 . S
C8527 C8525 1.387 . S
C8527 C8529 1.390 . S
C8527 H8531 0.950 . S
H8528 C8524 0.950 . S
C8529 C8527 1.390 . S
C8529 C8530 1.387 . S
C8529 H8532 0.950 . S
C8530 C8529 1.387 . S
C8530 C8533 1.387 . S
H8531 C8527 0.950 . S
H8532 C8529 0.950 . S
C8533 C8524 1.390 . S
C8533 H8526 0.950 . S
C8533 C8530 1.387 . S
C8534 C8535 1.387 . S
C8534 H8538 0.950 . S
C8534 C8543 1.390 . S
C8535 C8534 1.387 . S
C8535 C8537 1.387 . S
H8536 C8543 0.950 . S
C8537 C8535 1.387 . S
C8537 C8539 1.390 . S
C8537 H8541 0.950 . S
H8538 C8534 0.950 . S
C8539 C8537 1.390 . S
C8539 C8540 1.387 . S
C8539 H8542 0.950 . S
C8540 C8539 1.387 . S
C8540 C8543 1.387 . S
H8541 C8537 0.950 . S
H8542 C8539 0.950 . S
C8543 C8534 1.390 . S
C8543 H8536 0.950 . S
C8543 C8540 1.387 . S
C8544 C8545 1.387 . S
C8544 H8548 0.950 . S
C8544 C8553 1.390 . S
C8545 C8544 1.387 . S
C8545 C8547 1.387 . S
H8546 C8553 0.950 . S
C8547 C8545 1.387 . S
C8547 C8549 1.390 . S
C8547 H8551 0.950 . S
H8548 C8544 0.950 . S
C8549 C8547 1.390 . S
C8549 C8550 1.387 . S
C8549 H8552 0.950 . S
C8550 C8549 1.387 . S
C8550 C8553 1.387 . S
H8551 C8547 0.950 . S
H8552 C8549 0.950 . S
C8553 C8544 1.390 . S
C8553 H8546 0.950 . S
C8553 C8550 1.387 . S
C8554 C8555 1.387 . S
C8554 H8558 0.950 . S
C8554 C8563 1.390 . S
C8555 C8554 1.387 . S
C8555 C8557 1.387 . S
H8556 C8563 0.950 . S
C8557 C8555 1.387 . S
C8557 C8559 1.390 . S
C8557 H8561 0.950 . S
H8558 C8554 0.950 . S
C8559 C8557 1.390 . S
C8559 C8560 1.387 . S
C8559 H8562 0.950 . S
C8560 C8559 1.387 . S
C8560 C8563 1.387 . S
H8561 C8557 0.950 . S
H8562 C8559 0.950 . S
C8563 C8554 1.390 . S
C8563 H8556 0.950 . S
C8563 C8560 1.387 . S
C8564 C8565 1.387 . S
C8564 H8568 0.950 . S
C8564 C8573 1.390 . S
C8565 C8564 1.387 . S
C8565 C8567 1.387 . S
H8566 C8573 0.950 . S
C8567 C8565 1.387 . S
C8567 C8569 1.390 . S
C8567 H8571 0.950 . S
H8568 C8564 0.950 . S
C8569 C8567 1.390 . S
C8569 C8570 1.387 . S
C8569 H8572 0.950 . S
C8570 C8569 1.387 . S
C8570 C8573 1.387 . S
H8571 C8567 0.950 . S
H8572 C8569 0.950 . S
C8573 C8564 1.390 . S
C8573 H8566 0.950 . S
C8573 C8570 1.387 . S
C8574 C8575 1.387 . S
C8574 H8578 0.950 . S
C8574 C8583 1.390 . S
C8575 C8574 1.387 . S
C8575 C8577 1.387 . S
H8576 C8583 0.950 . S
C8577 C8575 1.387 . S
C8577 C8579 1.390 . S
C8577 H8581 0.950 . S
H8578 C8574 0.950 . S
C8579 C8577 1.390 . S
C8579 C8580 1.387 . S
C8579 H8582 0.950 . S
C8580 C8579 1.387 . S
C8580 C8583 1.387 . S
H8581 C8577 0.950 . S
H8582 C8579 0.950 . S
C8583 C8574 1.390 . S
C8583 H8576 0.950 . S
C8583 C8580 1.387 . S
C8584 C8585 1.387 . S
C8584 H8588 0.950 . S
C8584 C8593 1.390 . S
C8585 C8584 1.387 . S
C8585 C8587 1.387 . S
H8586 C8593 0.950 . S
C8587 C8585 1.387 . S
C8587 C8589 1.390 . S
C8587 H8591 0.950 . S
H8588 C8584 0.950 . S
C8589 C8587 1.390 . S
C8589 C8590 1.387 . S
C8589 H8592 0.950 . S
C8590 C8589 1.387 . S
C8590 C8593 1.387 . S
H8591 C8587 0.950 . S
H8592 C8589 0.950 . S
C8593 C8584 1.390 . S
C8593 H8586 0.950 . S
C8593 C8590 1.387 . S
C8594 C8595 1.387 . S
C8594 H8598 0.950 . S
C8594 C8603 1.390 . S
C8595 C8594 1.387 . S
C8595 C8597 1.387 . S
H8596 C8603 0.950 . S
C8597 C8595 1.387 . S
C8597 C8599 1.390 . S
C8597 H8601 0.950 . S
H8598 C8594 0.950 . S
C8599 C8597 1.390 . S
C8599 C8600 1.387 . S
C8599 H8602 0.950 . S
C8600 C8599 1.387 . S
C8600 C8603 1.387 . S
H8601 C8597 0.950 . S
H8602 C8599 0.950 . S
C8603 C8594 1.390 . S
C8603 H8596 0.950 . S
C8603 C8600 1.387 . S
C8604 C8605 1.387 . S
C8604 H8608 0.950 . S
C8604 C8613 1.390 . S
C8605 C8604 1.387 . S
C8605 C8607 1.387 . S
H8606 C8613 0.950 . S
C8607 C8605 1.387 . S
C8607 C8609 1.390 . S
C8607 H8611 0.950 . S
H8608 C8604 0.950 . S
C8609 C8607 1.390 . S
C8609 C8610 1.387 . S
C8609 H8612 0.950 . S
C8610 C8609 1.387 . S
C8610 C8613 1.387 . S
H8611 C8607 0.950 . S
H8612 C8609 0.950 . S
C8613 C8604 1.390 . S
C8613 H8606 0.950 . S
C8613 C8610 1.387 . S
C8614 C8615 1.387 . S
C8614 H8618 0.950 . S
C8614 C8623 1.390 . S
C8615 C8614 1.387 . S
C8615 C8617 1.387 . S
H8616 C8623 0.950 . S
C8617 C8615 1.387 . S
C8617 C8619 1.390 . S
C8617 H8621 0.950 . S
H8618 C8614 0.950 . S
C8619 C8617 1.390 . S
C8619 C8620 1.387 . S
C8619 H8622 0.950 . S
C8620 C8619 1.387 . S
C8620 C8623 1.387 . S
H8621 C8617 0.950 . S
H8622 C8619 0.950 . S
C8623 C8614 1.390 . S
C8623 H8616 0.950 . S
C8623 C8620 1.387 . S
C8624 C8625 1.387 . S
C8624 H8628 0.950 . S
C8624 C8633 1.390 . S
C8625 C8624 1.387 . S
C8625 C8627 1.387 . S
H8626 C8633 0.950 . S
C8627 C8625 1.387 . S
C8627 C8629 1.390 . S
C8627 H8631 0.950 . S
H8628 C8624 0.950 . S
C8629 C8627 1.390 . S
C8629 C8630 1.387 . S
C8629 H8632 0.950 . S
C8630 C8629 1.387 . S
C8630 C8633 1.387 . S
H8631 C8627 0.950 . S
H8632 C8629 0.950 . S
C8633 C8624 1.390 . S
C8633 H8626 0.950 . S
C8633 C8630 1.387 . S
C8634 C8635 1.387 . S
C8634 H8638 0.950 . S
C8634 C8643 1.390 . S
C8635 C8634 1.387 . S
C8635 C8637 1.387 . S
H8636 C8643 0.950 . S
C8637 C8635 1.387 . S
C8637 C8639 1.390 . S
C8637 H8641 0.950 . S
H8638 C8634 0.950 . S
C8639 C8637 1.390 . S
C8639 C8640 1.387 . S
C8639 H8642 0.950 . S
C8640 C8639 1.387 . S
C8640 C8643 1.387 . S
H8641 C8637 0.950 . S
H8642 C8639 0.950 . S
C8643 C8634 1.390 . S
C8643 H8636 0.950 . S
C8643 C8640 1.387 . S
C8644 C8645 1.387 . S
C8644 H8648 0.950 . S
C8644 C8653 1.390 . S
C8645 C8644 1.387 . S
C8645 C8647 1.387 . S
H8646 C8653 0.950 . S
C8647 C8645 1.387 . S
C8647 C8649 1.390 . S
C8647 H8651 0.950 . S
H8648 C8644 0.950 . S
C8649 C8647 1.390 . S
C8649 C8650 1.387 . S
C8649 H8652 0.950 . S
C8650 C8649 1.387 . S
C8650 C8653 1.387 . S
H8651 C8647 0.950 . S
H8652 C8649 0.950 . S
C8653 C8644 1.390 . S
C8653 H8646 0.950 . S
C8653 C8650 1.387 . S
C8654 C8655 1.387 . S
C8654 H8658 0.950 . S
C8654 C8663 1.390 . S
C8655 C8654 1.387 . S
C8655 C8657 1.387 . S
H8656 C8663 0.950 . S
C8657 C8655 1.387 . S
C8657 C8659 1.390 . S
C8657 H8661 0.950 . S
H8658 C8654 0.950 . S
C8659 C8657 1.390 . S
C8659 C8660 1.387 . S
C8659 H8662 0.950 . S
C8660 C8659 1.387 . S
C8660 C8663 1.387 . S
H8661 C8657 0.950 . S
H8662 C8659 0.950 . S
C8663 C8654 1.390 . S
C8663 H8656 0.950 . S
C8663 C8660 1.387 . S
C8664 C8665 1.387 . S
C8664 H8668 0.950 . S
C8664 C8673 1.390 . S
C8665 C8664 1.387 . S
C8665 C8667 1.387 . S
H8666 C8673 0.950 . S
C8667 C8665 1.387 . S
C8667 C8669 1.390 . S
C8667 H8671 0.950 . S
H8668 C8664 0.950 . S
C8669 C8667 1.390 . S
C8669 C8670 1.387 . S
C8669 H8672 0.950 . S
C8670 C8669 1.387 . S
C8670 C8673 1.387 . S
H8671 C8667 0.950 . S
H8672 C8669 0.950 . S
C8673 C8664 1.390 . S
C8673 H8666 0.950 . S
C8673 C8670 1.387 . S
C8674 C8675 1.387 . S
C8674 H8678 0.950 . S
C8674 C8683 1.390 . S
C8675 C8674 1.387 . S
C8675 C8677 1.387 . S
H8676 C8683 0.950 . S
C8677 C8675 1.387 . S
C8677 C8679 1.390 . S
C8677 H8681 0.950 . S
H8678 C8674 0.950 . S
C8679 C8677 1.390 . S
C8679 C8680 1.387 . S
C8679 H8682 0.950 . S
C8680 C8679 1.387 . S
C8680 C8683 1.387 . S
H8681 C8677 0.950 . S
H8682 C8679 0.950 . S
C8683 C8674 1.390 . S
C8683 H8676 0.950 . S
C8683 C8680 1.387 . S
C8684 C8685 1.387 . S
C8684 H8688 0.950 . S
C8684 C8693 1.390 . S
C8685 C8684 1.387 . S
C8685 C8687 1.387 . S
H8686 C8693 0.950 . S
C8687 C8685 1.387 . S
C8687 C8689 1.390 . S
C8687 H8691 0.950 . S
H8688 C8684 0.950 . S
C8689 C8687 1.390 . S
C8689 C8690 1.387 . S
C8689 H8692 0.950 . S
C8690 C8689 1.387 . S
C8690 C8693 1.387 . S
H8691 C8687 0.950 . S
H8692 C8689 0.950 . S
C8693 C8684 1.390 . S
C8693 H8686 0.950 . S
C8693 C8690 1.387 . S
C8694 C8695 1.387 . S
C8694 H8698 0.950 . S
C8694 C8703 1.390 . S
C8695 C8694 1.387 . S
C8695 C8697 1.387 . S
H8696 C8703 0.950 . S
C8697 C8695 1.387 . S
C8697 C8699 1.390 . S
C8697 H8701 0.950 . S
H8698 C8694 0.950 . S
C8699 C8697 1.390 . S
C8699 C8700 1.387 . S
C8699 H8702 0.950 . S
C8700 C8699 1.387 . S
C8700 C8703 1.387 . S
H8701 C8697 0.950 . S
H8702 C8699 0.950 . S
C8703 C8694 1.390 . S
C8703 H8696 0.950 . S
C8703 C8700 1.387 . S
C8704 C8705 1.387 . S
C8704 H8708 0.950 . S
C8704 C8713 1.390 . S
C8705 C8704 1.387 . S
C8705 C8707 1.387 . S
H8706 C8713 0.950 . S
C8707 C8705 1.387 . S
C8707 C8709 1.390 . S
C8707 H8711 0.950 . S
H8708 C8704 0.950 . S
C8709 C8707 1.390 . S
C8709 C8710 1.387 . S
C8709 H8712 0.950 . S
C8710 C8709 1.387 . S
C8710 C8713 1.387 . S
H8711 C8707 0.950 . S
H8712 C8709 0.950 . S
C8713 C8704 1.390 . S
C8713 H8706 0.950 . S
C8713 C8710 1.387 . S
C8714 C8715 1.387 . S
C8714 H8718 0.950 . S
C8714 C8723 1.390 . S
C8715 C8714 1.387 . S
C8715 C8717 1.387 . S
H8716 C8723 0.950 . S
C8717 C8715 1.387 . S
C8717 C8719 1.390 . S
C8717 H8721 0.950 . S
H8718 C8714 0.950 . S
C8719 C8717 1.390 . S
C8719 C8720 1.387 . S
C8719 H8722 0.950 . S
C8720 C8719 1.387 . S
C8720 C8723 1.387 . S
H8721 C8717 0.950 . S
H8722 C8719 0.950 . S
C8723 C8714 1.390 . S
C8723 H8716 0.950 . S
C8723 C8720 1.387 . S
C8724 C8725 1.387 . S
C8724 H8728 0.950 . S
C8724 C8733 1.390 . S
C8725 C8724 1.387 . S
C8725 C8727 1.387 . S
H8726 C8733 0.950 . S
C8727 C8725 1.387 . S
C8727 C8729 1.390 . S
C8727 H8731 0.950 . S
H8728 C8724 0.950 . S
C8729 C8727 1.390 . S
C8729 C8730 1.387 . S
C8729 H8732 0.950 . S
C8730 C8729 1.387 . S
C8730 C8733 1.387 . S
H8731 C8727 0.950 . S
H8732 C8729 0.950 . S
C8733 C8724 1.390 . S
C8733 H8726 0.950 . S
C8733 C8730 1.387 . S
C8734 C8735 1.387 . S
C8734 H8738 0.950 . S
C8734 C8743 1.390 . S
C8735 C8734 1.387 . S
C8735 C8737 1.387 . S
H8736 C8743 0.950 . S
C8737 C8735 1.387 . S
C8737 C8739 1.390 . S
C8737 H8741 0.950 . S
H8738 C8734 0.950 . S
C8739 C8737 1.390 . S
C8739 C8740 1.387 . S
C8739 H8742 0.950 . S
C8740 C8739 1.387 . S
C8740 C8743 1.387 . S
H8741 C8737 0.950 . S
H8742 C8739 0.950 . S
C8743 C8734 1.390 . S
C8743 H8736 0.950 . S
C8743 C8740 1.387 . S
C8744 C8745 1.387 . S
C8744 H8748 0.950 . S
C8744 C8753 1.390 . S
C8745 C8744 1.387 . S
C8745 C8747 1.387 . S
H8746 C8753 0.950 . S
C8747 C8745 1.387 . S
C8747 C8749 1.390 . S
C8747 H8751 0.950 . S
H8748 C8744 0.950 . S
C8749 C8747 1.390 . S
C8749 C8750 1.387 . S
C8749 H8752 0.950 . S
C8750 C8749 1.387 . S
C8750 C8753 1.387 . S
H8751 C8747 0.950 . S
H8752 C8749 0.950 . S
C8753 C8744 1.390 . S
C8753 H8746 0.950 . S
C8753 C8750 1.387 . S
C8754 C8755 1.387 . S
C8754 H8758 0.950 . S
C8754 C8763 1.390 . S
C8755 C8754 1.387 . S
C8755 C8757 1.387 . S
H8756 C8763 0.950 . S
C8757 C8755 1.387 . S
C8757 C8759 1.390 . S
C8757 H8761 0.950 . S
H8758 C8754 0.950 . S
C8759 C8757 1.390 . S
C8759 C8760 1.387 . S
C8759 H8762 0.950 . S
C8760 C8759 1.387 . S
C8760 C8763 1.387 . S
H8761 C8757 0.950 . S
H8762 C8759 0.950 . S
C8763 C8754 1.390 . S
C8763 H8756 0.950 . S
C8763 C8760 1.387 . S
C8764 C8765 1.387 . S
C8764 H8768 0.950 . S
C8764 C8773 1.390 . S
C8765 C8764 1.387 . S
C8765 C8767 1.387 . S
H8766 C8773 0.950 . S
C8767 C8765 1.387 . S
C8767 C8769 1.390 . S
C8767 H8771 0.950 . S
H8768 C8764 0.950 . S
C8769 C8767 1.390 . S
C8769 C8770 1.387 . S
C8769 H8772 0.950 . S
C8770 C8769 1.387 . S
C8770 C8773 1.387 . S
H8771 C8767 0.950 . S
H8772 C8769 0.950 . S
C8773 C8764 1.390 . S
C8773 H8766 0.950 . S
C8773 C8770 1.387 . S
C8774 C8775 1.387 . S
C8774 H8778 0.950 . S
C8774 C8783 1.390 . S
C8775 C8774 1.387 . S
C8775 C8777 1.387 . S
H8776 C8783 0.950 . S
C8777 C8775 1.387 . S
C8777 C8779 1.390 . S
C8777 H8781 0.950 . S
H8778 C8774 0.950 . S
C8779 C8777 1.390 . S
C8779 C8780 1.387 . S
C8779 H8782 0.950 . S
C8780 C8779 1.387 . S
C8780 C8783 1.387 . S
H8781 C8777 0.950 . S
H8782 C8779 0.950 . S
C8783 C8774 1.390 . S
C8783 H8776 0.950 . S
C8783 C8780 1.387 . S
C8784 C8785 1.387 . S
C8784 H8788 0.950 . S
C8784 C8793 1.390 . S
C8785 C8784 1.387 . S
C8785 C8787 1.387 . S
H8786 C8793 0.950 . S
C8787 C8785 1.387 . S
C8787 C8789 1.390 . S
C8787 H8791 0.950 . S
H8788 C8784 0.950 . S
C8789 C8787 1.390 . S
C8789 C8790 1.387 . S
C8789 H8792 0.950 . S
C8790 C8789 1.387 . S
C8790 C8793 1.387 . S
H8791 C8787 0.950 . S
H8792 C8789 0.950 . S
C8793 C8784 1.390 . S
C8793 H8786 0.950 . S
C8793 C8790 1.387 . S
C8794 C8795 1.387 . S
C8794 H8798 0.950 . S
C8794 C8803 1.390 . S
C8795 C8794 1.387 . S
C8795 C8797 1.387 . S
H8796 C8803 0.950 . S
C8797 C8795 1.387 . S
C8797 C8799 1.390 . S
C8797 H8801 0.950 . S
H8798 C8794 0.950 . S
C8799 C8797 1.390 . S
C8799 C8800 1.387 . S
C8799 H8802 0.950 . S
C8800 C8799 1.387 . S
C8800 C8803 1.387 . S
H8801 C8797 0.950 . S
H8802 C8799 0.950 . S
C8803 C8794 1.390 . S
C8803 H8796 0.950 . S
C8803 C8800 1.387 . S
C8804 C8805 1.387 . S
C8804 H8808 0.950 . S
C8804 C8813 1.390 . S
C8805 C8804 1.387 . S
C8805 C8807 1.387 . S
H8806 C8813 0.950 . S
C8807 C8805 1.387 . S
C8807 C8809 1.390 . S
C8807 H8811 0.950 . S
H8808 C8804 0.950 . S
C8809 C8807 1.390 . S
C8809 C8810 1.387 . S
C8809 H8812 0.950 . S
C8810 C8809 1.387 . S
C8810 C8813 1.387 . S
H8811 C8807 0.950 . S
H8812 C8809 0.950 . S
C8813 C8804 1.390 . S
C8813 H8806 0.950 . S
C8813 C8810 1.387 . S
C8814 C8815 1.387 . S
C8814 H8818 0.950 . S
C8814 C8823 1.390 . S
C8815 C8814 1.387 . S
C8815 C8817 1.387 . S
H8816 C8823 0.950 . S
C8817 C8815 1.387 . S
C8817 C8819 1.390 . S
C8817 H8821 0.950 . S
H8818 C8814 0.950 . S
C8819 C8817 1.390 . S
C8819 C8820 1.387 . S
C8819 H8822 0.950 . S
C8820 C8819 1.387 . S
C8820 C8823 1.387 . S
H8821 C8817 0.950 . S
H8822 C8819 0.950 . S
C8823 C8814 1.390 . S
C8823 H8816 0.950 . S
C8823 C8820 1.387 . S
C8824 C8825 1.387 . S
C8824 H8828 0.950 . S
C8824 C8833 1.390 . S
C8825 C8824 1.387 . S
C8825 C8827 1.387 . S
H8826 C8833 0.950 . S
C8827 C8825 1.387 . S
C8827 C8829 1.390 . S
C8827 H8831 0.950 . S
H8828 C8824 0.950 . S
C8829 C8827 1.390 . S
C8829 C8830 1.387 . S
C8829 H8832 0.950 . S
C8830 C8829 1.387 . S
C8830 C8833 1.387 . S
H8831 C8827 0.950 . S
H8832 C8829 0.950 . S
C8833 C8824 1.390 . S
C8833 H8826 0.950 . S
C8833 C8830 1.387 . S
C8834 C8835 1.387 . S
C8834 H8838 0.950 . S
C8834 C8843 1.390 . S
C8835 C8834 1.387 . S
C8835 C8837 1.387 . S
H8836 C8843 0.950 . S
C8837 C8835 1.387 . S
C8837 C8839 1.390 . S
C8837 H8841 0.950 . S
H8838 C8834 0.950 . S
C8839 C8837 1.390 . S
C8839 C8840 1.387 . S
C8839 H8842 0.950 . S
C8840 C8839 1.387 . S
C8840 C8843 1.387 . S
H8841 C8837 0.950 . S
H8842 C8839 0.950 . S
C8843 C8834 1.390 . S
C8843 H8836 0.950 . S
C8843 C8840 1.387 . S
C8844 C8845 1.387 . S
C8844 H8848 0.950 . S
C8844 C8853 1.390 . S
C8845 C8844 1.387 . S
C8845 C8847 1.387 . S
H8846 C8853 0.950 . S
C8847 C8845 1.387 . S
C8847 C8849 1.390 . S
C8847 H8851 0.950 . S
H8848 C8844 0.950 . S
C8849 C8847 1.390 . S
C8849 C8850 1.387 . S
C8849 H8852 0.950 . S
C8850 C8849 1.387 . S
C8850 C8853 1.387 . S
H8851 C8847 0.950 . S
H8852 C8849 0.950 . S
C8853 C8844 1.390 . S
C8853 H8846 0.950 . S
C8853 C8850 1.387 . S
C8854 C8855 1.387 . S
C8854 H8858 0.950 . S
C8854 C8863 1.390 . S
C8855 C8854 1.387 . S
C8855 C8857 1.387 . S
H8856 C8863 0.950 . S
C8857 C8855 1.387 . S
C8857 C8859 1.390 . S
C8857 H8861 0.950 . S
H8858 C8854 0.950 . S
C8859 C8857 1.390 . S
C8859 C8860 1.387 . S
C8859 H8862 0.950 . S
C8860 C8859 1.387 . S
C8860 C8863 1.387 . S
H8861 C8857 0.950 . S
H8862 C8859 0.950 . S
C8863 C8854 1.390 . S
C8863 H8856 0.950 . S
C8863 C8860 1.387 . S
C8864 C8865 1.387 . S
C8864 H8868 0.950 . S
C8864 C8873 1.390 . S
C8865 C8864 1.387 . S
C8865 C8867 1.387 . S
H8866 C8873 0.950 . S
C8867 C8865 1.387 . S
C8867 C8869 1.390 . S
C8867 H8871 0.950 . S
H8868 C8864 0.950 . S
C8869 C8867 1.390 . S
C8869 C8870 1.387 . S
C8869 H8872 0.950 . S
C8870 C8869 1.387 . S
C8870 C8873 1.387 . S
H8871 C8867 0.950 . S
H8872 C8869 0.950 . S
C8873 C8864 1.390 . S
C8873 H8866 0.950 . S
C8873 C8870 1.387 . S
C8874 C8875 1.387 . S
C8874 H8878 0.950 . S
C8874 C8883 1.390 . S
C8875 C8874 1.387 . S
C8875 C8877 1.387 . S
H8876 C8883 0.950 . S
C8877 C8875 1.387 . S
C8877 C8879 1.390 . S
C8877 H8881 0.950 . S
H8878 C8874 0.950 . S
C8879 C8877 1.390 . S
C8879 C8880 1.387 . S
C8879 H8882 0.950 . S
C8880 C8879 1.387 . S
C8880 C8883 1.387 . S
H8881 C8877 0.950 . S
H8882 C8879 0.950 . S
C8883 C8874 1.390 . S
C8883 H8876 0.950 . S
C8883 C8880 1.387 . S
C8884 C8885 1.387 . S
C8884 H8888 0.950 . S
C8884 C8893 1.390 . S
C8885 C8884 1.387 . S
C8885 C8887 1.387 . S
H8886 C8893 0.950 . S
C8887 C8885 1.387 . S
C8887 C8889 1.390 . S
C8887 H8891 0.950 . S
H8888 C8884 0.950 . S
C8889 C8887 1.390 . S
C8889 C8890 1.387 . S
C8889 H8892 0.950 . S
C8890 C8889 1.387 . S
C8890 C8893 1.387 . S
H8891 C8887 0.950 . S
H8892 C8889 0.950 . S
C8893 C8884 1.390 . S
C8893 H8886 0.950 . S
C8893 C8890 1.387 . S
C8894 C8895 1.387 . S
C8894 H8898 0.950 . S
C8894 C8903 1.390 . S
C8895 C8894 1.387 . S
C8895 C8897 1.387 . S
H8896 C8903 0.950 . S
C8897 C8895 1.387 . S
C8897 C8899 1.390 . S
C8897 H8901 0.950 . S
H8898 C8894 0.950 . S
C8899 C8897 1.390 . S
C8899 C8900 1.387 . S
C8899 H8902 0.950 . S
C8900 C8899 1.387 . S
C8900 C8903 1.387 . S
H8901 C8897 0.950 . S
H8902 C8899 0.950 . S
C8903 C8894 1.390 . S
C8903 H8896 0.950 . S
C8903 C8900 1.387 . S
C8904 C8905 1.387 . S
C8904 H8908 0.950 . S
C8904 C8913 1.390 . S
C8905 C8904 1.387 . S
C8905 C8907 1.387 . S
H8906 C8913 0.950 . S
C8907 C8905 1.387 . S
C8907 C8909 1.390 . S
C8907 H8911 0.950 . S
H8908 C8904 0.950 . S
C8909 C8907 1.390 . S
C8909 C8910 1.387 . S
C8909 H8912 0.950 . S
C8910 C8909 1.387 . S
C8910 C8913 1.387 . S
H8911 C8907 0.950 . S
H8912 C8909 0.950 . S
C8913 C8904 1.390 . S
C8913 H8906 0.950 . S
C8913 C8910 1.387 . S
C8914 C8915 1.387 . S
C8914 H8918 0.950 . S
C8914 C8923 1.390 . S
C8915 C8914 1.387 . S
C8915 C8917 1.387 . S
H8916 C8923 0.950 . S
C8917 C8915 1.387 . S
C8917 C8919 1.390 . S
C8917 H8921 0.950 . S
H8918 C8914 0.950 . S
C8919 C8917 1.390 . S
C8919 C8920 1.387 . S
C8919 H8922 0.950 . S
C8920 C8919 1.387 . S
C8920 C8923 1.387 . S
H8921 C8917 0.950 . S
H8922 C8919 0.950 . S
C8923 C8914 1.390 . S
C8923 H8916 0.950 . S
C8923 C8920 1.387 . S
C8924 C8925 1.387 . S
C8924 H8928 0.950 . S
C8924 C8933 1.390 . S
C8925 C8924 1.387 . S
C8925 C8927 1.387 . S
H8926 C8933 0.950 . S
C8927 C8925 1.387 . S
C8927 C8929 1.390 . S
C8927 H8931 0.950 . S
H8928 C8924 0.950 . S
C8929 C8927 1.390 . S
C8929 C8930 1.387 . S
C8929 H8932 0.950 . S
C8930 C8929 1.387 . S
C8930 C8933 1.387 . S
H8931 C8927 0.950 . S
H8932 C8929 0.950 . S
C8933 C8924 1.390 . S
C8933 H8926 0.950 . S
C8933 C8930 1.387 . S
C8934 C8935 1.387 . S
C8934 H8938 0.950 . S
C8934 C8943 1.390 . S
C8935 C8934 1.387 . S
C8935 C8937 1.387 . S
H8936 C8943 0.950 . S
C8937 C8935 1.387 . S
C8937 C8939 1.390 . S
C8937 H8941 0.950 . S
H8938 C8934 0.950 . S
C8939 C8937 1.390 . S
C8939 C8940 1.387 . S
C8939 H8942 0.950 . S
C8940 C8939 1.387 . S
C8940 C8943 1.387 . S
H8941 C8937 0.950 . S
H8942 C8939 0.950 . S
C8943 C8934 1.390 . S
C8943 H8936 0.950 . S
C8943 C8940 1.387 . S
C8944 C8945 1.387 . S
C8944 H8948 0.950 . S
C8944 C8953 1.390 . S
C8945 C8944 1.387 . S
C8945 C8947 1.387 . S
H8946 C8953 0.950 . S
C8947 C8945 1.387 . S
C8947 C8949 1.390 . S
C8947 H8951 0.950 . S
H8948 C8944 0.950 . S
C8949 C8947 1.390 . S
C8949 C8950 1.387 . S
C8949 H8952 0.950 . S
C8950 C8949 1.387 . S
C8950 C8953 1.387 . S
H8951 C8947 0.950 . S
H8952 C8949 0.950 . S
C8953 C8944 1.390 . S
C8953 H8946 0.950 . S
C8953 C8950 1.387 . S
C8954 C8955 1.387 . S
C8954 H8958 0.950 . S
C8954 C8963 1.390 . S
C8955 C8954 1.387 . S
C8955 C8957 1.387 . S
H8956 C8963 0.950 . S
C8957 C8955 1.387 . S
C8957 C8959 1.390 . S
C8957 H8961 0.950 . S
H8958 C8954 0.950 . S
C8959 C8957 1.390 . S
C8959 C8960 1.387 . S
C8959 H8962 0.950 . S
C8960 C8959 1.387 . S
C8960 C8963 1.387 . S
H8961 C8957 0.950 . S
H8962 C8959 0.950 . S
C8963 C8954 1.390 . S
C8963 H8956 0.950 . S
C8963 C8960 1.387 . S
C8964 C8965 1.387 . S
C8964 H8968 0.950 . S
C8964 C8973 1.390 . S
C8965 C8964 1.387 . S
C8965 C8967 1.387 . S
H8966 C8973 0.950 . S
C8967 C8965 1.387 . S
C8967 C8969 1.390 . S
C8967 H8971 0.950 . S
H8968 C8964 0.950 . S
C8969 C8967 1.390 . S
C8969 C8970 1.387 . S
C8969 H8972 0.950 . S
C8970 C8969 1.387 . S
C8970 C8973 1.387 . S
H8971 C8967 0.950 . S
H8972 C8969 0.950 . S
C8973 C8964 1.390 . S
C8973 H8966 0.950 . S
C8973 C8970 1.387 . S
C8974 C8975 1.387 . S
C8974 H8978 0.950 . S
C8974 C8983 1.390 . S
C8975 C8974 1.387 . S
C8975 C8977 1.387 . S
H8976 C8983 0.950 . S
C8977 C8975 1.387 . S
C8977 C8979 1.390 . S
C8977 H8981 0.950 . S
H8978 C8974 0.950 . S
C8979 C8977 1.390 . S
C8979 C8980 1.387 . S
C8979 H8982 0.950 . S
C8980 C8979 1.387 . S
C8980 C8983 1.387 . S
H8981 C8977 0.950 . S
H8982 C8979 0.950 . S
C8983 C8974 1.390 . S
C8983 H8976 0.950 . S
C8983 C8980 1.387 . S
C8984 C8985 1.387 . S
C8984 H8988 0.950 . S
C8984 C8993 1.390 . S
C8985 C8984 1.387 . S
C8985 C8987 1.387 . S
H8986 C8993 0.950 . S
C8987 C8985 1.387 . S
C8987 C8989 1.390 . S
C8987 H8991 0.950 . S
H8988 C8984 0.950 . S
C8989 C8987 1.390 . S
C8989 C8990 1.387 . S
C8989 H8992 0.950 . S
C8990 C8989 1.387 . S
C8990 C8993 1.387 . S
H8991 C8987 0.950 . S
H8992 C8989 0.950 . S
C8993 C8984 1.390 . S
C8993 H8986 0.950 . S
C8993 C8990 1.387 . S
C8994 C8995 1.387 . S
C8994 H8998 0.950 . S
C8994 C9003 1.390 . S
C8995 C8994 1.387 . S
C8995 C8997 1.387 . S
H8996 C9003 0.950 . S
C8997 C8995 1.387 . S
C8997 C8999 1.390 . S
C8997 H9001 0.950 . S
H8998 C8994 0.950 . S
C8999 C8997 1.390 . S
C8999 C9000 1.387 . S
C8999 H9002 0.950 . S
C9000 C8999 1.387 . S
C9000 C9003 1.387 . S
H9001 C8997 0.950 . S
H9002 C8999 0.950 . S
C9003 C8994 1.390 . S
C9003 H8996 0.950 . S
C9003 C9000 1.387 . S
C9004 C9005 1.387 . S
C9004 H9008 0.950 . S
C9004 C9013 1.390 . S
C9005 C9004 1.387 . S
C9005 C9007 1.387 . S
H9006 C9013 0.950 . S
C9007 C9005 1.387 . S
C9007 C9009 1.390 . S
C9007 H9011 0.950 . S
H9008 C9004 0.950 . S
C9009 C9007 1.390 . S
C9009 C9010 1.387 . S
C9009 H9012 0.950 . S
C9010 C9009 1.387 . S
C9010 C9013 1.387 . S
H9011 C9007 0.950 . S
H9012 C9009 0.950 . S
C9013 C9004 1.390 . S
C9013 H9006 0.950 . S
C9013 C9010 1.387 . S
C9014 C9015 1.387 . S
C9014 H9018 0.950 . S
C9014 C9023 1.390 . S
C9015 C9014 1.387 . S
C9015 C9017 1.387 . S
H9016 C9023 0.950 . S
C9017 C9015 1.387 . S
C9017 C9019 1.390 . S
C9017 H9021 0.950 . S
H9018 C9014 0.950 . S
C9019 C9017 1.390 . S
C9019 C9020 1.387 . S
C9019 H9022 0.950 . S
C9020 C9019 1.387 . S
C9020 C9023 1.387 . S
H9021 C9017 0.950 . S
H9022 C9019 0.950 . S
C9023 C9014 1.390 . S
C9023 H9016 0.950 . S
C9023 C9020 1.387 . S
C9024 C9025 1.387 . S
C9024 H9028 0.950 . S
C9024 C9033 1.390 . S
C9025 C9024 1.387 . S
C9025 C9027 1.387 . S
H9026 C9033 0.950 . S
C9027 C9025 1.387 . S
C9027 C9029 1.390 . S
C9027 H9031 0.950 . S
H9028 C9024 0.950 . S
C9029 C9027 1.390 . S
C9029 C9030 1.387 . S
C9029 H9032 0.950 . S
C9030 C9029 1.387 . S
C9030 C9033 1.387 . S
H9031 C9027 0.950 . S
H9032 C9029 0.950 . S
C9033 C9024 1.390 . S
C9033 H9026 0.950 . S
C9033 C9030 1.387 . S
C9034 C9035 1.387 . S
C9034 H9038 0.950 . S
C9034 C9043 1.390 . S
C9035 C9034 1.387 . S
C9035 C9037 1.387 . S
H9036 C9043 0.950 . S
C9037 C9035 1.387 . S
C9037 C9039 1.390 . S
C9037 H9041 0.950 . S
H9038 C9034 0.950 . S
C9039 C9037 1.390 . S
C9039 C9040 1.387 . S
C9039 H9042 0.950 . S
C9040 C9039 1.387 . S
C9040 C9043 1.387 . S
H9041 C9037 0.950 . S
H9042 C9039 0.950 . S
C9043 C9034 1.390 . S
C9043 H9036 0.950 . S
C9043 C9040 1.387 . S
C9044 C9045 1.387 . S
C9044 H9048 0.950 . S
C9044 C9053 1.390 . S
C9045 C9044 1.387 . S
C9045 C9047 1.387 . S
H9046 C9053 0.950 . S
C9047 C9045 1.387 . S
C9047 C9049 1.390 . S
C9047 H9051 0.950 . S
H9048 C9044 0.950 . S
C9049 C9047 1.390 . S
C9049 C9050 1.387 . S
C9049 H9052 0.950 . S
C9050 C9049 1.387 . S
C9050 C9053 1.387 . S
H9051 C9047 0.950 . S
H9052 C9049 0.950 . S
C9053 C9044 1.390 . S
C9053 H9046 0.950 . S
C9053 C9050 1.387 . S
C9054 C9055 1.387 . S
C9054 H9058 0.950 . S
C9054 C9063 1.390 . S
C9055 C9054 1.387 . S
C9055 C9057 1.387 . S
H9056 C9063 0.950 . S
C9057 C9055 1.387 . S
C9057 C9059 1.390 . S
C9057 H9061 0.950 . S
H9058 C9054 0.950 . S
C9059 C9057 1.390 . S
C9059 C9060 1.387 . S
C9059 H9062 0.950 . S
C9060 C9059 1.387 . S
C9060 C9063 1.387 . S
H9061 C9057 0.950 . S
H9062 C9059 0.950 . S
C9063 C9054 1.390 . S
C9063 H9056 0.950 . S
C9063 C9060 1.387 . S
C9064 C9065 1.387 . S
C9064 H9068 0.950 . S
C9064 C9073 1.390 . S
C9065 C9064 1.387 . S
C9065 C9067 1.387 . S
H9066 C9073 0.950 . S
C9067 C9065 1.387 . S
C9067 C9069 1.390 . S
C9067 H9071 0.950 . S
H9068 C9064 0.950 . S
C9069 C9067 1.390 . S
C9069 C9070 1.387 . S
C9069 H9072 0.950 . S
C9070 C9069 1.387 . S
C9070 C9073 1.387 . S
H9071 C9067 0.950 . S
H9072 C9069 0.950 . S
C9073 C9064 1.390 . S
C9073 H9066 0.950 . S
C9073 C9070 1.387 . S
C9074 C9075 1.387 . S
C9074 H9078 0.950 . S
C9074 C9083 1.390 . S
C9075 C9074 1.387 . S
C9075 C9077 1.387 . S
H9076 C9083 0.950 . S
C9077 C9075 1.387 . S
C9077 C9079 1.390 . S
C9077 H9081 0.950 . S
H9078 C9074 0.950 . S
C9079 C9077 1.390 . S
C9079 C9080 1.387 . S
C9079 H9082 0.950 . S
C9080 C9079 1.387 . S
C9080 C9083 1.387 . S
H9081 C9077 0.950 . S
H9082 C9079 0.950 . S
C9083 C9074 1.390 . S
C9083 H9076 0.950 . S
C9083 C9080 1.387 . S
C9084 C9085 1.387 . S
C9084 H9088 0.950 . S
C9084 C9093 1.390 . S
C9085 C9084 1.387 . S
C9085 C9087 1.387 . S
H9086 C9093 0.950 . S
C9087 C9085 1.387 . S
C9087 C9089 1.390 . S
C9087 H9091 0.950 . S
H9088 C9084 0.950 . S
C9089 C9087 1.390 . S
C9089 C9090 1.387 . S
C9089 H9092 0.950 . S
C9090 C9089 1.387 . S
C9090 C9093 1.387 . S
H9091 C9087 0.950 . S
H9092 C9089 0.950 . S
C9093 C9084 1.390 . S
C9093 H9086 0.950 . S
C9093 C9090 1.387 . S
C9094 C9095 1.387 . S
C9094 H9098 0.950 . S
C9094 C9103 1.390 . S
C9095 C9094 1.387 . S
C9095 C9097 1.387 . S
H9096 C9103 0.950 . S
C9097 C9095 1.387 . S
C9097 C9099 1.390 . S
C9097 H9101 0.950 . S
H9098 C9094 0.950 . S
C9099 C9097 1.390 . S
C9099 C9100 1.387 . S
C9099 H9102 0.950 . S
C9100 C9099 1.387 . S
C9100 C9103 1.387 . S
H9101 C9097 0.950 . S
H9102 C9099 0.950 . S
C9103 C9094 1.390 . S
C9103 H9096 0.950 . S
C9103 C9100 1.387 . S
C9104 C9105 1.387 . S
C9104 H9108 0.950 . S
C9104 C9113 1.390 . S
C9105 C9104 1.387 . S
C9105 C9107 1.387 . S
H9106 C9113 0.950 . S
C9107 C9105 1.387 . S
C9107 C9109 1.390 . S
C9107 H9111 0.950 . S
H9108 C9104 0.950 . S
C9109 C9107 1.390 . S
C9109 C9110 1.387 . S
C9109 H9112 0.950 . S
C9110 C9109 1.387 . S
C9110 C9113 1.387 . S
H9111 C9107 0.950 . S
H9112 C9109 0.950 . S
C9113 C9104 1.390 . S
C9113 H9106 0.950 . S
C9113 C9110 1.387 . S
C9114 C9115 1.387 . S
C9114 H9118 0.950 . S
C9114 C9123 1.390 . S
C9115 C9114 1.387 . S
C9115 C9117 1.387 . S
H9116 C9123 0.950 . S
C9117 C9115 1.387 . S
C9117 C9119 1.390 . S
C9117 H9121 0.950 . S
H9118 C9114 0.950 . S
C9119 C9117 1.390 . S
C9119 C9120 1.387 . S
C9119 H9122 0.950 . S
C9120 C9119 1.387 . S
C9120 C9123 1.387 . S
H9121 C9117 0.950 . S
H9122 C9119 0.950 . S
C9123 C9114 1.390 . S
C9123 H9116 0.950 . S
C9123 C9120 1.387 . S
C9124 C9125 1.387 . S
C9124 H9128 0.950 . S
C9124 C9133 1.390 . S
C9125 C9124 1.387 . S
C9125 C9127 1.387 . S
H9126 C9133 0.950 . S
C9127 C9125 1.387 . S
C9127 C9129 1.390 . S
C9127 H9131 0.950 . S
H9128 C9124 0.950 . S
C9129 C9127 1.390 . S
C9129 C9130 1.387 . S
C9129 H9132 0.950 . S
C9130 C9129 1.387 . S
C9130 C9133 1.387 . S
H9131 C9127 0.950 . S
H9132 C9129 0.950 . S
C9133 C9124 1.390 . S
C9133 H9126 0.950 . S
C9133 C9130 1.387 . S
C9134 C9135 1.387 . S
C9134 H9138 0.950 . S
C9134 C9143 1.390 . S
C9135 C9134 1.387 . S
C9135 C9137 1.387 . S
H9136 C9143 0.950 . S
C9137 C9135 1.387 . S
C9137 C9139 1.390 . S
C9137 H9141 0.950 . S
H9138 C9134 0.950 . S
C9139 C9137 1.390 . S
C9139 C9140 1.387 . S
C9139 H9142 0.950 . S
C9140 C9139 1.387 . S
C9140 C9143 1.387 . S
H9141 C9137 0.950 . S
H9142 C9139 0.950 . S
C9143 C9134 1.390 . S
C9143 H9136 0.950 . S
C9143 C9140 1.387 . S
C9144 C9145 1.387 . S
C9144 H9148 0.950 . S
C9144 C9153 1.390 . S
C9145 C9144 1.387 . S
C9145 C9147 1.387 . S
H9146 C9153 0.950 . S
C9147 C9145 1.387 . S
C9147 C9149 1.390 . S
C9147 H9151 0.950 . S
H9148 C9144 0.950 . S
C9149 C9147 1.390 . S
C9149 C9150 1.387 . S
C9149 H9152 0.950 . S
C9150 C9149 1.387 . S
C9150 C9153 1.387 . S
H9151 C9147 0.950 . S
H9152 C9149 0.950 . S
C9153 C9144 1.390 . S
C9153 H9146 0.950 . S
C9153 C9150 1.387 . S
C9154 C9155 1.387 . S
C9154 H9158 0.950 . S
C9154 C9163 1.390 . S
C9155 C9154 1.387 . S
C9155 C9157 1.387 . S
H9156 C9163 0.950 . S
C9157 C9155 1.387 . S
C9157 C9159 1.390 . S
C9157 H9161 0.950 . S
H9158 C9154 0.950 . S
C9159 C9157 1.390 . S
C9159 C9160 1.387 . S
C9159 H9162 0.950 . S
C9160 C9159 1.387 . S
C9160 C9163 1.387 . S
H9161 C9157 0.950 . S
H9162 C9159 0.950 . S
C9163 C9154 1.390 . S
C9163 H9156 0.950 . S
C9163 C9160 1.387 . S
C9164 C9165 1.387 . S
C9164 H9168 0.950 . S
C9164 C9173 1.390 . S
C9165 C9164 1.387 . S
C9165 C9167 1.387 . S
H9166 C9173 0.950 . S
C9167 C9165 1.387 . S
C9167 C9169 1.390 . S
C9167 H9171 0.950 . S
H9168 C9164 0.950 . S
C9169 C9167 1.390 . S
C9169 C9170 1.387 . S
C9169 H9172 0.950 . S
C9170 C9169 1.387 . S
C9170 C9173 1.387 . S
H9171 C9167 0.950 . S
H9172 C9169 0.950 . S
C9173 C9164 1.390 . S
C9173 H9166 0.950 . S
C9173 C9170 1.387 . S
C9174 C9175 1.387 . S
C9174 H9178 0.950 . S
C9174 C9183 1.390 . S
C9175 C9174 1.387 . S
C9175 C9177 1.387 . S
H9176 C9183 0.950 . S
C9177 C9175 1.387 . S
C9177 C9179 1.390 . S
C9177 H9181 0.950 . S
H9178 C9174 0.950 . S
C9179 C9177 1.390 . S
C9179 C9180 1.387 . S
C9179 H9182 0.950 . S
C9180 C9179 1.387 . S
C9180 C9183 1.387 . S
H9181 C9177 0.950 . S
H9182 C9179 0.950 . S
C9183 C9174 1.390 . S
C9183 H9176 0.950 . S
C9183 C9180 1.387 . S
C9184 C9185 1.387 . S
C9184 H9188 0.950 . S
C9184 C9193 1.390 . S
C9185 C9184 1.387 . S
C9185 C9187 1.387 . S
H9186 C9193 0.950 . S
C9187 C9185 1.387 . S
C9187 C9189 1.390 . S
C9187 H9191 0.950 . S
H9188 C9184 0.950 . S
C9189 C9187 1.390 . S
C9189 C9190 1.387 . S
C9189 H9192 0.950 . S
C9190 C9189 1.387 . S
C9190 C9193 1.387 . S
H9191 C9187 0.950 . S
H9192 C9189 0.950 . S
C9193 C9184 1.390 . S
C9193 H9186 0.950 . S
C9193 C9190 1.387 . S
C9194 C9195 1.387 . S
C9194 H9198 0.950 . S
C9194 C9203 1.390 . S
C9195 C9194 1.387 . S
C9195 C9197 1.387 . S
H9196 C9203 0.950 . S
C9197 C9195 1.387 . S
C9197 C9199 1.390 . S
C9197 H9201 0.950 . S
H9198 C9194 0.950 . S
C9199 C9197 1.390 . S
C9199 C9200 1.387 . S
C9199 H9202 0.950 . S
C9200 C9199 1.387 . S
C9200 C9203 1.387 . S
H9201 C9197 0.950 . S
H9202 C9199 0.950 . S
C9203 C9194 1.390 . S
C9203 H9196 0.950 . S
C9203 C9200 1.387 . S
C9204 C9205 1.387 . S
C9204 H9208 0.950 . S
C9204 C9213 1.390 . S
C9205 C9204 1.387 . S
C9205 C9207 1.387 . S
H9206 C9213 0.950 . S
C9207 C9205 1.387 . S
C9207 C9209 1.390 . S
C9207 H9211 0.950 . S
H9208 C9204 0.950 . S
C9209 C9207 1.390 . S
C9209 C9210 1.387 . S
C9209 H9212 0.950 . S
C9210 C9209 1.387 . S
C9210 C9213 1.387 . S
H9211 C9207 0.950 . S
H9212 C9209 0.950 . S
C9213 C9204 1.390 . S
C9213 H9206 0.950 . S
C9213 C9210 1.387 . S
C9214 C9215 1.387 . S
C9214 H9218 0.950 . S
C9214 C9223 1.390 . S
C9215 C9214 1.387 . S
C9215 C9217 1.387 . S
H9216 C9223 0.950 . S
C9217 C9215 1.387 . S
C9217 C9219 1.390 . S
C9217 H9221 0.950 . S
H9218 C9214 0.950 . S
C9219 C9217 1.390 . S
C9219 C9220 1.387 . S
C9219 H9222 0.950 . S
C9220 C9219 1.387 . S
C9220 C9223 1.387 . S
H9221 C9217 0.950 . S
H9222 C9219 0.950 . S
C9223 C9214 1.390 . S
C9223 H9216 0.950 . S
C9223 C9220 1.387 . S
C9224 C9225 1.387 . S
C9224 H9228 0.950 . S
C9224 C9233 1.390 . S
C9225 C9224 1.387 . S
C9225 C9227 1.387 . S
H9226 C9233 0.950 . S
C9227 C9225 1.387 . S
C9227 C9229 1.390 . S
C9227 H9231 0.950 . S
H9228 C9224 0.950 . S
C9229 C9227 1.390 . S
C9229 C9230 1.387 . S
C9229 H9232 0.950 . S
C9230 C9229 1.387 . S
C9230 C9233 1.387 . S
H9231 C9227 0.950 . S
H9232 C9229 0.950 . S
C9233 C9224 1.390 . S
C9233 H9226 0.950 . S
C9233 C9230 1.387 . S
C9234 C9235 1.387 . S
C9234 H9238 0.950 . S
C9234 C9243 1.390 . S
C9235 C9234 1.387 . S
C9235 C9237 1.387 . S
H9236 C9243 0.950 . S
C9237 C9235 1.387 . S
C9237 C9239 1.390 . S
C9237 H9241 0.950 . S
H9238 C9234 0.950 . S
C9239 C9237 1.390 . S
C9239 C9240 1.387 . S
C9239 H9242 0.950 . S
C9240 C9239 1.387 . S
C9240 C9243 1.387 . S
H9241 C9237 0.950 . S
H9242 C9239 0.950 . S
C9243 C9234 1.390 . S
C9243 H9236 0.950 . S
C9243 C9240 1.387 . S
C9244 C9245 1.387 . S
C9244 H9248 0.950 . S
C9244 C9253 1.390 . S
C9245 C9244 1.387 . S
C9245 C9247 1.387 . S
H9246 C9253 0.950 . S
C9247 C9245 1.387 . S
C9247 C9249 1.390 . S
C9247 H9251 0.950 . S
H9248 C9244 0.950 . S
C9249 C9247 1.390 . S
C9249 C9250 1.387 . S
C9249 H9252 0.950 . S
C9250 C9249 1.387 . S
C9250 C9253 1.387 . S
H9251 C9247 0.950 . S
H9252 C9249 0.950 . S
C9253 C9244 1.390 . S
C9253 H9246 0.950 . S
C9253 C9250 1.387 . S
C9254 C9255 1.387 . S
C9254 H9258 0.950 . S
C9254 C9263 1.390 . S
C9255 C9254 1.387 . S
C9255 C9257 1.387 . S
H9256 C9263 0.950 . S
C9257 C9255 1.387 . S
C9257 C9259 1.390 . S
C9257 H9261 0.950 . S
H9258 C9254 0.950 . S
C9259 C9257 1.390 . S
C9259 C9260 1.387 . S
C9259 H9262 0.950 . S
C9260 C9259 1.387 . S
C9260 C9263 1.387 . S
H9261 C9257 0.950 . S
H9262 C9259 0.950 . S
C9263 C9254 1.390 . S
C9263 H9256 0.950 . S
C9263 C9260 1.387 . S
C9264 C9265 1.387 . S
C9264 H9268 0.950 . S
C9264 C9273 1.390 . S
C9265 C9264 1.387 . S
C9265 C9267 1.387 . S
H9266 C9273 0.950 . S
C9267 C9265 1.387 . S
C9267 C9269 1.390 . S
C9267 H9271 0.950 . S
H9268 C9264 0.950 . S
C9269 C9267 1.390 . S
C9269 C9270 1.387 . S
C9269 H9272 0.950 . S
C9270 C9269 1.387 . S
C9270 C9273 1.387 . S
H9271 C9267 0.950 . S
H9272 C9269 0.950 . S
C9273 C9264 1.390 . S
C9273 H9266 0.950 . S
C9273 C9270 1.387 . S
C9274 C9275 1.387 . S
C9274 H9278 0.950 . S
C9274 C9283 1.390 . S
C9275 C9274 1.387 . S
C9275 C9277 1.387 . S
H9276 C9283 0.950 . S
C9277 C9275 1.387 . S
C9277 C9279 1.390 . S
C9277 H9281 0.950 . S
H9278 C9274 0.950 . S
C9279 C9277 1.390 . S
C9279 C9280 1.387 . S
C9279 H9282 0.950 . S
C9280 C9279 1.387 . S
C9280 C9283 1.387 . S
H9281 C9277 0.950 . S
H9282 C9279 0.950 . S
C9283 C9274 1.390 . S
C9283 H9276 0.950 . S
C9283 C9280 1.387 . S
C9284 C9285 1.387 . S
C9284 H9288 0.950 . S
C9284 C9293 1.390 . S
C9285 C9284 1.387 . S
C9285 C9287 1.387 . S
H9286 C9293 0.950 . S
C9287 C9285 1.387 . S
C9287 C9289 1.390 . S
C9287 H9291 0.950 . S
H9288 C9284 0.950 . S
C9289 C9287 1.390 . S
C9289 C9290 1.387 . S
C9289 H9292 0.950 . S
C9290 C9289 1.387 . S
C9290 C9293 1.387 . S
H9291 C9287 0.950 . S
H9292 C9289 0.950 . S
C9293 C9284 1.390 . S
C9293 H9286 0.950 . S
C9293 C9290 1.387 . S
C9294 C9295 1.387 . S
C9294 H9298 0.950 . S
C9294 C9303 1.390 . S
C9295 C9294 1.387 . S
C9295 C9297 1.387 . S
H9296 C9303 0.950 . S
C9297 C9295 1.387 . S
C9297 C9299 1.390 . S
C9297 H9301 0.950 . S
H9298 C9294 0.950 . S
C9299 C9297 1.390 . S
C9299 C9300 1.387 . S
C9299 H9302 0.950 . S
C9300 C9299 1.387 . S
C9300 C9303 1.387 . S
H9301 C9297 0.950 . S
H9302 C9299 0.950 . S
C9303 C9294 1.390 . S
C9303 H9296 0.950 . S
C9303 C9300 1.387 . S
C9304 C9305 1.387 . S
C9304 H9308 0.950 . S
C9304 C9313 1.390 . S
C9305 C9304 1.387 . S
C9305 C9307 1.387 . S
H9306 C9313 0.950 . S
C9307 C9305 1.387 . S
C9307 C9309 1.390 . S
C9307 H9311 0.950 . S
H9308 C9304 0.950 . S
C9309 C9307 1.390 . S
C9309 C9310 1.387 . S
C9309 H9312 0.950 . S
C9310 C9309 1.387 . S
C9310 C9313 1.387 . S
H9311 C9307 0.950 . S
H9312 C9309 0.950 . S
C9313 C9304 1.390 . S
C9313 H9306 0.950 . S
C9313 C9310 1.387 . S
C9314 C9315 1.387 . S
C9314 H9318 0.950 . S
C9314 C9323 1.390 . S
C9315 C9314 1.387 . S
C9315 C9317 1.387 . S
H9316 C9323 0.950 . S
C9317 C9315 1.387 . S
C9317 C9319 1.390 . S
C9317 H9321 0.950 . S
H9318 C9314 0.950 . S
C9319 C9317 1.390 . S
C9319 C9320 1.387 . S
C9319 H9322 0.950 . S
C9320 C9319 1.387 . S
C9320 C9323 1.387 . S
H9321 C9317 0.950 . S
H9322 C9319 0.950 . S
C9323 C9314 1.390 . S
C9323 H9316 0.950 . S
C9323 C9320 1.387 . S
C9324 C9325 1.387 . S
C9324 H9328 0.950 . S
C9324 C9333 1.390 . S
C9325 C9324 1.387 . S
C9325 C9327 1.387 . S
H9326 C9333 0.950 . S
C9327 C9325 1.387 . S
C9327 C9329 1.390 . S
C9327 H9331 0.950 . S
H9328 C9324 0.950 . S
C9329 C9327 1.390 . S
C9329 C9330 1.387 . S
C9329 H9332 0.950 . S
C9330 C9329 1.387 . S
C9330 C9333 1.387 . S
H9331 C9327 0.950 . S
H9332 C9329 0.950 . S
C9333 C9324 1.390 . S
C9333 H9326 0.950 . S
C9333 C9330 1.387 . S
C9334 C9335 1.387 . S
C9334 H9338 0.950 . S
C9334 C9343 1.390 . S
C9335 C9334 1.387 . S
C9335 C9337 1.387 . S
H9336 C9343 0.950 . S
C9337 C9335 1.387 . S
C9337 C9339 1.390 . S
C9337 H9341 0.950 . S
H9338 C9334 0.950 . S
C9339 C9337 1.390 . S
C9339 C9340 1.387 . S
C9339 H9342 0.950 . S
C9340 C9339 1.387 . S
C9340 C9343 1.387 . S
H9341 C9337 0.950 . S
H9342 C9339 0.950 . S
C9343 C9334 1.390 . S
C9343 H9336 0.950 . S
C9343 C9340 1.387 . S
C9344 C9345 1.387 . S
C9344 H9348 0.950 . S
C9344 C9353 1.390 . S
C9345 C9344 1.387 . S
C9345 C9347 1.387 . S
H9346 C9353 0.950 . S
C9347 C9345 1.387 . S
C9347 C9349 1.390 . S
C9347 H9351 0.950 . S
H9348 C9344 0.950 . S
C9349 C9347 1.390 . S
C9349 C9350 1.387 . S
C9349 H9352 0.950 . S
C9350 C9349 1.387 . S
C9350 C9353 1.387 . S
H9351 C9347 0.950 . S
H9352 C9349 0.950 . S
C9353 C9344 1.390 . S
C9353 H9346 0.950 . S
C9353 C9350 1.387 . S
C9354 C9355 1.387 . S
C9354 H9358 0.950 . S
C9354 C9363 1.390 . S
C9355 C9354 1.387 . S
C9355 C9357 1.387 . S
H9356 C9363 0.950 . S
C9357 C9355 1.387 . S
C9357 C9359 1.390 . S
C9357 H9361 0.950 . S
H9358 C9354 0.950 . S
C9359 C9357 1.390 . S
C9359 C9360 1.387 . S
C9359 H9362 0.950 . S
C9360 C9359 1.387 . S
C9360 C9363 1.387 . S
H9361 C9357 0.950 . S
H9362 C9359 0.950 . S
C9363 C9354 1.390 . S
C9363 H9356 0.950 . S
C9363 C9360 1.387 . S
C9364 C9365 1.387 . S
C9364 H9368 0.950 . S
C9364 C9373 1.390 . S
C9365 C9364 1.387 . S
C9365 C9367 1.387 . S
H9366 C9373 0.950 . S
C9367 C9365 1.387 . S
C9367 C9369 1.390 . S
C9367 H9371 0.950 . S
H9368 C9364 0.950 . S
C9369 C9367 1.390 . S
C9369 C9370 1.387 . S
C9369 H9372 0.950 . S
C9370 C9369 1.387 . S
C9370 C9373 1.387 . S
H9371 C9367 0.950 . S
H9372 C9369 0.950 . S
C9373 C9364 1.390 . S
C9373 H9366 0.950 . S
C9373 C9370 1.387 . S
C9374 C9375 1.387 . S
C9374 H9378 0.950 . S
C9374 C9383 1.390 . S
C9375 C9374 1.387 . S
C9375 C9377 1.387 . S
H9376 C9383 0.950 . S
C9377 C9375 1.387 . S
C9377 C9379 1.390 . S
C9377 H9381 0.950 . S
H9378 C9374 0.950 . S
C9379 C9377 1.390 . S
C9379 C9380 1.387 . S
C9379 H9382 0.950 . S
C9380 C9379 1.387 . S
C9380 C9383 1.387 . S
H9381 C9377 0.950 . S
H9382 C9379 0.950 . S
C9383 C9374 1.390 . S
C9383 H9376 0.950 . S
C9383 C9380 1.387 . S
C9384 C9385 1.387 . S
C9384 H9388 0.950 . S
C9384 C9393 1.390 . S
C9385 C9384 1.387 . S
C9385 C9387 1.387 . S
H9386 C9393 0.950 . S
C9387 C9385 1.387 . S
C9387 C9389 1.390 . S
C9387 H9391 0.950 . S
H9388 C9384 0.950 . S
C9389 C9387 1.390 . S
C9389 C9390 1.387 . S
C9389 H9392 0.950 . S
C9390 C9389 1.387 . S
C9390 C9393 1.387 . S
H9391 C9387 0.950 . S
H9392 C9389 0.950 . S
C9393 C9384 1.390 . S
C9393 H9386 0.950 . S
C9393 C9390 1.387 . S
C9394 C9395 1.387 . S
C9394 H9398 0.950 . S
C9394 C9403 1.390 . S
C9395 C9394 1.387 . S
C9395 C9397 1.387 . S
H9396 C9403 0.950 . S
C9397 C9395 1.387 . S
C9397 C9399 1.390 . S
C9397 H9401 0.950 . S
H9398 C9394 0.950 . S
C9399 C9397 1.390 . S
C9399 C9400 1.387 . S
C9399 H9402 0.950 . S
C9400 C9399 1.387 . S
C9400 C9403 1.387 . S
H9401 C9397 0.950 . S
H9402 C9399 0.950 . S
C9403 C9394 1.390 . S
C9403 H9396 0.950 . S
C9403 C9400 1.387 . S
C9404 C9405 1.387 . S
C9404 H9408 0.950 . S
C9404 C9413 1.390 . S
C9405 C9404 1.387 . S
C9405 C9407 1.387 . S
H9406 C9413 0.950 . S
C9407 C9405 1.387 . S
C9407 C9409 1.390 . S
C9407 H9411 0.950 . S
H9408 C9404 0.950 . S
C9409 C9407 1.390 . S
C9409 C9410 1.387 . S
C9409 H9412 0.950 . S
C9410 C9409 1.387 . S
C9410 C9413 1.387 . S
H9411 C9407 0.950 . S
H9412 C9409 0.950 . S
C9413 C9404 1.390 . S
C9413 H9406 0.950 . S
C9413 C9410 1.387 . S
C9414 C9415 1.387 . S
C9414 H9418 0.950 . S
C9414 C9423 1.390 . S
C9415 C9414 1.387 . S
C9415 C9417 1.387 . S
H9416 C9423 0.950 . S
C9417 C9415 1.387 . S
C9417 C9419 1.390 . S
C9417 H9421 0.950 . S
H9418 C9414 0.950 . S
C9419 C9417 1.390 . S
C9419 C9420 1.387 . S
C9419 H9422 0.950 . S
C9420 C9419 1.387 . S
C9420 C9423 1.387 . S
H9421 C9417 0.950 . S
H9422 C9419 0.950 . S
C9423 C9414 1.390 . S
C9423 H9416 0.950 . S
C9423 C9420 1.387 . S
C9424 C9425 1.387 . S
C9424 H9428 0.950 . S
C9424 C9433 1.390 . S
C9425 C9424 1.387 . S
C9425 C9427 1.387 . S
H9426 C9433 0.950 . S
C9427 C9425 1.387 . S
C9427 C9429 1.390 . S
C9427 H9431 0.950 . S
H9428 C9424 0.950 . S
C9429 C9427 1.390 . S
C9429 C9430 1.387 . S
C9429 H9432 0.950 . S
C9430 C9429 1.387 . S
C9430 C9433 1.387 . S
H9431 C9427 0.950 . S
H9432 C9429 0.950 . S
C9433 C9424 1.390 . S
C9433 H9426 0.950 . S
C9433 C9430 1.387 . S
C9434 C9435 1.387 . S
C9434 H9438 0.950 . S
C9434 C9443 1.390 . S
C9435 C9434 1.387 . S
C9435 C9437 1.387 . S
H9436 C9443 0.950 . S
C9437 C9435 1.387 . S
C9437 C9439 1.390 . S
C9437 H9441 0.950 . S
H9438 C9434 0.950 . S
C9439 C9437 1.390 . S
C9439 C9440 1.387 . S
C9439 H9442 0.950 . S
C9440 C9439 1.387 . S
C9440 C9443 1.387 . S
H9441 C9437 0.950 . S
H9442 C9439 0.950 . S
C9443 C9434 1.390 . S
C9443 H9436 0.950 . S
C9443 C9440 1.387 . S
C9444 C9445 1.387 . S
C9444 H9448 0.950 . S
C9444 C9453 1.390 . S
C9445 C9444 1.387 . S
C9445 C9447 1.387 . S
H9446 C9453 0.950 . S
C9447 C9445 1.387 . S
C9447 C9449 1.390 . S
C9447 H9451 0.950 . S
H9448 C9444 0.950 . S
C9449 C9447 1.390 . S
C9449 C9450 1.387 . S
C9449 H9452 0.950 . S
C9450 C9449 1.387 . S
C9450 C9453 1.387 . S
H9451 C9447 0.950 . S
H9452 C9449 0.950 . S
C9453 C9444 1.390 . S
C9453 H9446 0.950 . S
C9453 C9450 1.387 . S
C9454 C9455 1.387 . S
C9454 H9458 0.950 . S
C9454 C9463 1.390 . S
C9455 C9454 1.387 . S
C9455 C9457 1.387 . S
H9456 C9463 0.950 . S
C9457 C9455 1.387 . S
C9457 C9459 1.390 . S
C9457 H9461 0.950 . S
H9458 C9454 0.950 . S
C9459 C9457 1.390 . S
C9459 C9460 1.387 . S
C9459 H9462 0.950 . S
C9460 C9459 1.387 . S
C9460 C9463 1.387 . S
H9461 C9457 0.950 . S
H9462 C9459 0.950 . S
C9463 C9454 1.390 . S
C9463 H9456 0.950 . S
C9463 C9460 1.387 . S
C9464 C9465 1.387 . S
C9464 H9468 0.950 . S
C9464 C9473 1.390 . S
C9465 C9464 1.387 . S
C9465 C9467 1.387 . S
H9466 C9473 0.950 . S
C9467 C9465 1.387 . S
C9467 C9469 1.390 . S
C9467 H9471 0.950 . S
H9468 C9464 0.950 . S
C9469 C9467 1.390 . S
C9469 C9470 1.387 . S
C9469 H9472 0.950 . S
C9470 C9469 1.387 . S
C9470 C9473 1.387 . S
H9471 C9467 0.950 . S
H9472 C9469 0.950 . S
C9473 C9464 1.390 . S
C9473 H9466 0.950 . S
C9473 C9470 1.387 . S
C9474 C9475 1.387 . S
C9474 H9478 0.950 . S
C9474 C9483 1.390 . S
C9475 C9474 1.387 . S
C9475 C9477 1.387 . S
H9476 C9483 0.950 . S
C9477 C9475 1.387 . S
C9477 C9479 1.390 . S
C9477 H9481 0.950 . S
H9478 C9474 0.950 . S
C9479 C9477 1.390 . S
C9479 C9480 1.387 . S
C9479 H9482 0.950 . S
C9480 C9479 1.387 . S
C9480 C9483 1.387 . S
H9481 C9477 0.950 . S
H9482 C9479 0.950 . S
C9483 C9474 1.390 . S
C9483 H9476 0.950 . S
C9483 C9480 1.387 . S
C9484 C9485 1.387 . S
C9484 H9488 0.950 . S
C9484 C9493 1.390 . S
C9485 C9484 1.387 . S
C9485 C9487 1.387 . S
H9486 C9493 0.950 . S
C9487 C9485 1.387 . S
C9487 C9489 1.390 . S
C9487 H9491 0.950 . S
H9488 C9484 0.950 . S
C9489 C9487 1.390 . S
C9489 C9490 1.387 . S
C9489 H9492 0.950 . S
C9490 C9489 1.387 . S
C9490 C9493 1.387 . S
H9491 C9487 0.950 . S
H9492 C9489 0.950 . S
C9493 C9484 1.390 . S
C9493 H9486 0.950 . S
C9493 C9490 1.387 . S
C9494 C9495 1.387 . S
C9494 H9498 0.950 . S
C9494 C9503 1.390 . S
C9495 C9494 1.387 . S
C9495 C9497 1.387 . S
H9496 C9503 0.950 . S
C9497 C9495 1.387 . S
C9497 C9499 1.390 . S
C9497 H9501 0.950 . S
H9498 C9494 0.950 . S
C9499 C9497 1.390 . S
C9499 C9500 1.387 . S
C9499 H9502 0.950 . S
C9500 C9499 1.387 . S
C9500 C9503 1.387 . S
H9501 C9497 0.950 . S
H9502 C9499 0.950 . S
C9503 C9494 1.390 . S
C9503 H9496 0.950 . S
C9503 C9500 1.387 . S
C9504 C9505 1.387 . S
C9504 H9508 0.950 . S
C9504 C9513 1.390 . S
C9505 C9504 1.387 . S
C9505 C9507 1.387 . S
H9506 C9513 0.950 . S
C9507 C9505 1.387 . S
C9507 C9509 1.390 . S
C9507 H9511 0.950 . S
H9508 C9504 0.950 . S
C9509 C9507 1.390 . S
C9509 C9510 1.387 . S
C9509 H9512 0.950 . S
C9510 C9509 1.387 . S
C9510 C9513 1.387 . S
H9511 C9507 0.950 . S
H9512 C9509 0.950 . S
C9513 C9504 1.390 . S
C9513 H9506 0.950 . S
C9513 C9510 1.387 . S
C9514 C9515 1.387 . S
C9514 H9518 0.950 . S
C9514 C9523 1.390 . S
C9515 C9514 1.387 . S
C9515 C9517 1.387 . S
H9516 C9523 0.950 . S
C9517 C9515 1.387 . S
C9517 C9519 1.390 . S
C9517 H9521 0.950 . S
H9518 C9514 0.950 . S
C9519 C9517 1.390 . S
C9519 C9520 1.387 . S
C9519 H9522 0.950 . S
C9520 C9519 1.387 . S
C9520 C9523 1.387 . S
H9521 C9517 0.950 . S
H9522 C9519 0.950 . S
C9523 C9514 1.390 . S
C9523 H9516 0.950 . S
C9523 C9520 1.387 . S
C9524 C9525 1.387 . S
C9524 H9528 0.950 . S
C9524 C9533 1.390 . S
C9525 C9524 1.387 . S
C9525 C9527 1.387 . S
H9526 C9533 0.950 . S
C9527 C9525 1.387 . S
C9527 C9529 1.390 . S
C9527 H9531 0.950 . S
H9528 C9524 0.950 . S
C9529 C9527 1.390 . S
C9529 C9530 1.387 . S
C9529 H9532 0.950 . S
C9530 C9529 1.387 . S
C9530 C9533 1.387 . S
H9531 C9527 0.950 . S
H9532 C9529 0.950 . S
C9533 C9524 1.390 . S
C9533 H9526 0.950 . S
C9533 C9530 1.387 . S
C9534 C9535 1.387 . S
C9534 H9538 0.950 . S
C9534 C9543 1.390 . S
C9535 C9534 1.387 . S
C9535 C9537 1.387 . S
H9536 C9543 0.950 . S
C9537 C9535 1.387 . S
C9537 C9539 1.390 . S
C9537 H9541 0.950 . S
H9538 C9534 0.950 . S
C9539 C9537 1.390 . S
C9539 C9540 1.387 . S
C9539 H9542 0.950 . S
C9540 C9539 1.387 . S
C9540 C9543 1.387 . S
H9541 C9537 0.950 . S
H9542 C9539 0.950 . S
C9543 C9534 1.390 . S
C9543 H9536 0.950 . S
C9543 C9540 1.387 . S
C9544 C9545 1.387 . S
C9544 H9548 0.950 . S
C9544 C9553 1.390 . S
C9545 C9544 1.387 . S
C9545 C9547 1.387 . S
H9546 C9553 0.950 . S
C9547 C9545 1.387 . S
C9547 C9549 1.390 . S
C9547 H9551 0.950 . S
H9548 C9544 0.950 . S
C9549 C9547 1.390 . S
C9549 C9550 1.387 . S
C9549 H9552 0.950 . S
C9550 C9549 1.387 . S
C9550 C9553 1.387 . S
H9551 C9547 0.950 . S
H9552 C9549 0.950 . S
C9553 C9544 1.390 . S
C9553 H9546 0.950 . S
C9553 C9550 1.387 . S
C9554 C9555 1.387 . S
C9554 H9558 0.950 . S
C9554 C9563 1.390 . S
C9555 C9554 1.387 . S
C9555 C9557 1.387 . S
H9556 C9563 0.950 . S
C9557 C9555 1.387 . S
C9557 C9559 1.390 . S
C9557 H9561 0.950 . S
H9558 C9554 0.950 . S
C9559 C9557 1.390 . S
C9559 C9560 1.387 . S
C9559 H9562 0.950 . S
C9560 C9559 1.387 . S
C9560 C9563 1.387 . S
H9561 C9557 0.950 . S
H9562 C9559 0.950 . S
C9563 C9554 1.390 . S
C9563 H9556 0.950 . S
C9563 C9560 1.387 . S
C9564 C9565 1.387 . S
C9564 H9568 0.950 . S
C9564 C9573 1.390 . S
C9565 C9564 1.387 . S
C9565 C9567 1.387 . S
H9566 C9573 0.950 . S
C9567 C9565 1.387 . S
C9567 C9569 1.390 . S
C9567 H9571 0.950 . S
H9568 C9564 0.950 . S
C9569 C9567 1.390 . S
C9569 C9570 1.387 . S
C9569 H9572 0.950 . S
C9570 C9569 1.387 . S
C9570 C9573 1.387 . S
H9571 C9567 0.950 . S
H9572 C9569 0.950 . S
C9573 C9564 1.390 . S
C9573 H9566 0.950 . S
C9573 C9570 1.387 . S
C9574 C9575 1.387 . S
C9574 H9578 0.950 . S
C9574 C9583 1.390 . S
C9575 C9574 1.387 . S
C9575 C9577 1.387 . S
H9576 C9583 0.950 . S
C9577 C9575 1.387 . S
C9577 C9579 1.390 . S
C9577 H9581 0.950 . S
H9578 C9574 0.950 . S
C9579 C9577 1.390 . S
C9579 C9580 1.387 . S
C9579 H9582 0.950 . S
C9580 C9579 1.387 . S
C9580 C9583 1.387 . S
H9581 C9577 0.950 . S
H9582 C9579 0.950 . S
C9583 C9574 1.390 . S
C9583 H9576 0.950 . S
C9583 C9580 1.387 . S
C9584 C9585 1.387 . S
C9584 H9588 0.950 . S
C9584 C9593 1.390 . S
C9585 C9584 1.387 . S
C9585 C9587 1.387 . S
H9586 C9593 0.950 . S
C9587 C9585 1.387 . S
C9587 C9589 1.390 . S
C9587 H9591 0.950 . S
H9588 C9584 0.950 . S
C9589 C9587 1.390 . S
C9589 C9590 1.387 . S
C9589 H9592 0.950 . S
C9590 C9589 1.387 . S
C9590 C9593 1.387 . S
H9591 C9587 0.950 . S
H9592 C9589 0.950 . S
C9593 C9584 1.390 . S
C9593 H9586 0.950 . S
C9593 C9590 1.387 . S
C9594 C9595 1.387 . S
C9594 H9598 0.950 . S
C9594 C9603 1.390 . S
C9595 C9594 1.387 . S
C9595 C9597 1.387 . S
H9596 C9603 0.950 . S
C9597 C9595 1.387 . S
C9597 C9599 1.390 . S
C9597 H9601 0.950 . S
H9598 C9594 0.950 . S
C9599 C9597 1.390 . S
C9599 C9600 1.387 . S
C9599 H9602 0.950 . S
C9600 C9599 1.387 . S
C9600 C9603 1.387 . S
H9601 C9597 0.950 . S
H9602 C9599 0.950 . S
C9603 C9594 1.390 . S
C9603 H9596 0.950 . S
C9603 C9600 1.387 . S
C9604 C9605 1.387 . S
C9604 H9608 0.950 . S
C9604 C9613 1.390 . S
C9605 C9604 1.387 . S
C9605 C9607 1.387 . S
H9606 C9613 0.950 . S
C9607 C9605 1.387 . S
C9607 C9609 1.390 . S
C9607 H9611 0.950 . S
H9608 C9604 0.950 . S
C9609 C9607 1.390 . S
C9609 C9610 1.387 . S
C9609 H9612 0.950 . S
C9610 C9609 1.387 . S
C9610 C9613 1.387 . S
H9611 C9607 0.950 . S
H9612 C9609 0.950 . S
C9613 C9604 1.390 . S
C9613 H9606 0.950 . S
C9613 C9610 1.387 . S
C9614 C9615 1.387 . S
C9614 H9618 0.950 . S
C9614 C9623 1.390 . S
C9615 C9614 1.387 . S
C9615 C9617 1.387 . S
H9616 C9623 0.950 . S
C9617 C9615 1.387 . S
C9617 C9619 1.390 . S
C9617 H9621 0.950 . S
H9618 C9614 0.950 . S
C9619 C9617 1.390 . S
C9619 C9620 1.387 . S
C9619 H9622 0.950 . S
C9620 C9619 1.387 . S
C9620 C9623 1.387 . S
H9621 C9617 0.950 . S
H9622 C9619 0.950 . S
C9623 C9614 1.390 . S
C9623 H9616 0.950 . S
C9623 C9620 1.387 . S
C9624 C9625 1.387 . S
C9624 H9628 0.950 . S
C9624 C9633 1.390 . S
C9625 C9624 1.387 . S
C9625 C9627 1.387 . S
H9626 C9633 0.950 . S
C9627 C9625 1.387 . S
C9627 C9629 1.390 . S
C9627 H9631 0.950 . S
H9628 C9624 0.950 . S
C9629 C9627 1.390 . S
C9629 C9630 1.387 . S
C9629 H9632 0.950 . S
C9630 C9629 1.387 . S
C9630 C9633 1.387 . S
H9631 C9627 0.950 . S
H9632 C9629 0.950 . S
C9633 C9624 1.390 . S
C9633 H9626 0.950 . S
C9633 C9630 1.387 . S
C9634 C9635 1.387 . S
C9634 H9638 0.950 . S
C9634 C9643 1.390 . S
C9635 C9634 1.387 . S
C9635 C9637 1.387 . S
H9636 C9643 0.950 . S
C9637 C9635 1.387 . S
C9637 C9639 1.390 . S
C9637 H9641 0.950 . S
H9638 C9634 0.950 . S
C9639 C9637 1.390 . S
C9639 C9640 1.387 . S
C9639 H9642 0.950 . S
C9640 C9639 1.387 . S
C9640 C9643 1.387 . S
H9641 C9637 0.950 . S
H9642 C9639 0.950 . S
C9643 C9634 1.390 . S
C9643 H9636 0.950 . S
C9643 C9640 1.387 . S
C9644 C9645 1.387 . S
C9644 H9648 0.950 . S
C9644 C9653 1.390 . S
C9645 C9644 1.387 . S
C9645 C9647 1.387 . S
H9646 C9653 0.950 . S
C9647 C9645 1.387 . S
C9647 C9649 1.390 . S
C9647 H9651 0.950 . S
H9648 C9644 0.950 . S
C9649 C9647 1.390 . S
C9649 C9650 1.387 . S
C9649 H9652 0.950 . S
C9650 C9649 1.387 . S
C9650 C9653 1.387 . S
H9651 C9647 0.950 . S
H9652 C9649 0.950 . S
C9653 C9644 1.390 . S
C9653 H9646 0.950 . S
C9653 C9650 1.387 . S
C9654 C9655 1.387 . S
C9654 H9658 0.950 . S
C9654 C9663 1.390 . S
C9655 C9654 1.387 . S
C9655 C9657 1.387 . S
H9656 C9663 0.950 . S
C9657 C9655 1.387 . S
C9657 C9659 1.390 . S
C9657 H9661 0.950 . S
H9658 C9654 0.950 . S
C9659 C9657 1.390 . S
C9659 C9660 1.387 . S
C9659 H9662 0.950 . S
C9660 C9659 1.387 . S
C9660 C9663 1.387 . S
H9661 C9657 0.950 . S
H9662 C9659 0.950 . S
C9663 C9654 1.390 . S
C9663 H9656 0.950 . S
C9663 C9660 1.387 . S
C9664 C9665 1.387 . S
C9664 H9668 0.950 . S
C9664 C9673 1.390 . S
C9665 C9664 1.387 . S
C9665 C9667 1.387 . S
H9666 C9673 0.950 . S
C9667 C9665 1.387 . S
C9667 C9669 1.390 . S
C9667 H9671 0.950 . S
H9668 C9664 0.950 . S
C9669 C9667 1.390 . S
C9669 C9670 1.387 . S
C9669 H9672 0.950 . S
C9670 C9669 1.387 . S
C9670 C9673 1.387 . S
H9671 C9667 0.950 . S
H9672 C9669 0.950 . S
C9673 C9664 1.390 . S
C9673 H9666 0.950 . S
C9673 C9670 1.387 . S
C9674 C9675 1.387 . S
C9674 H9678 0.950 . S
C9674 C9683 1.390 . S
C9675 C9674 1.387 . S
C9675 C9677 1.387 . S
H9676 C9683 0.950 . S
C9677 C9675 1.387 . S
C9677 C9679 1.390 . S
C9677 H9681 0.950 . S
H9678 C9674 0.950 . S
C9679 C9677 1.390 . S
C9679 C9680 1.387 . S
C9679 H9682 0.950 . S
C9680 C9679 1.387 . S
C9680 C9683 1.387 . S
H9681 C9677 0.950 . S
H9682 C9679 0.950 . S
C9683 C9674 1.390 . S
C9683 H9676 0.950 . S
C9683 C9680 1.387 . S
C9684 C9685 1.387 . S
C9684 H9688 0.950 . S
C9684 C9693 1.390 . S
C9685 C9684 1.387 . S
C9685 C9687 1.387 . S
H9686 C9693 0.950 . S
C9687 C9685 1.387 . S
C9687 C9689 1.390 . S
C9687 H9691 0.950 . S
H9688 C9684 0.950 . S
C9689 C9687 1.390 . S
C9689 C9690 1.387 . S
C9689 H9692 0.950 . S
C9690 C9689 1.387 . S
C9690 C9693 1.387 . S
H9691 C9687 0.950 . S
H9692 C9689 0.950 . S
C9693 C9684 1.390 . S
C9693 H9686 0.950 . S
C9693 C9690 1.387 . S
C9694 C9695 1.387 . S
C9694 H9698 0.950 . S
C9694 C9703 1.390 . S
C9695 C9694 1.387 . S
C9695 C9697 1.387 . S
H9696 C9703 0.950 . S
C9697 C9695 1.387 . S
C9697 C9699 1.390 . S
C9697 H9701 0.950 . S
H9698 C9694 0.950 . S
C9699 C9697 1.390 . S
C9699 C9700 1.387 . S
C9699 H9702 0.950 . S
C9700 C9699 1.387 . S
C9700 C9703 1.387 . S
H9701 C9697 0.950 . S
H9702 C9699 0.950 . S
C9703 C9694 1.390 . S
C9703 H9696 0.950 . S
C9703 C9700 1.387 . S
C9704 C9705 1.387 . S
C9704 H9708 0.950 . S
C9704 C9713 1.390 . S
C9705 C9704 1.387 . S
C9705 C9707 1.387 . S
H9706 C9713 0.950 . S
C9707 C9705 1.387 . S
C9707 C9709 1.390 . S
C9707 H9711 0.950 . S
H9708 C9704 0.950 . S
C9709 C9707 1.390 . S
C9709 C9710 1.387 . S
C9709 H9712 0.950 . S
C9710 C9709 1.387 . S
C9710 C9713 1.387 . S
H9711 C9707 0.950 . S
H9712 C9709 0.950 . S
C9713 C9704 1.390 . S
C9713 H9706 0.950 . S
C9713 C9710 1.387 . S
C9714 C9715 1.387 . S
C9714 H9718 0.950 . S
C9714 C9723 1.390 . S
C9715 C9714 1.387 . S
C9715 C9717 1.387 . S
H9716 C9723 0.950 . S
C9717 C9715 1.387 . S
C9717 C9719 1.390 . S
C9717 H9721 0.950 . S
H9718 C9714 0.950 . S
C9719 C9717 1.390 . S
C9719 C9720 1.387 . S
C9719 H9722 0.950 . S
C9720 C9719 1.387 . S
C9720 C9723 1.387 . S
H9721 C9717 0.950 . S
H9722 C9719 0.950 . S
C9723 C9714 1.390 . S
C9723 H9716 0.950 . S
C9723 C9720 1.387 . S
C9724 C9725 1.387 . S
C9724 H9728 0.950 . S
C9724 C9733 1.390 . S
C9725 C9724 1.387 . S
C9725 C9727 1.387 . S
H9726 C9733 0.950 . S
C9727 C9725 1.387 . S
C9727 C9729 1.390 . S
C9727 H9731 0.950 . S
H9728 C9724 0.950 . S
C9729 C9727 1.390 . S
C9729 C9730 1.387 . S
C9729 H9732 0.950 . S
C9730 C9729 1.387 . S
C9730 C9733 1.387 . S
H9731 C9727 0.950 . S
H9732 C9729 0.950 . S
C9733 C9724 1.390 . S
C9733 H9726 0.950 . S
C9733 C9730 1.387 . S
C9734 C9735 1.387 . S
C9734 H9738 0.950 . S
C9734 C9743 1.390 . S
C9735 C9734 1.387 . S
C9735 C9737 1.387 . S
H9736 C9743 0.950 . S
C9737 C9735 1.387 . S
C9737 C9739 1.390 . S
C9737 H9741 0.950 . S
H9738 C9734 0.950 . S
C9739 C9737 1.390 . S
C9739 C9740 1.387 . S
C9739 H9742 0.950 . S
C9740 C9739 1.387 . S
C9740 C9743 1.387 . S
H9741 C9737 0.950 . S
H9742 C9739 0.950 . S
C9743 C9734 1.390 . S
C9743 H9736 0.950 . S
C9743 C9740 1.387 . S
C9744 C9745 1.387 . S
C9744 H9748 0.950 . S
C9744 C9753 1.390 . S
C9745 C9744 1.387 . S
C9745 C9747 1.387 . S
H9746 C9753 0.950 . S
C9747 C9745 1.387 . S
C9747 C9749 1.390 . S
C9747 H9751 0.950 . S
H9748 C9744 0.950 . S
C9749 C9747 1.390 . S
C9749 C9750 1.387 . S
C9749 H9752 0.950 . S
C9750 C9749 1.387 . S
C9750 C9753 1.387 . S
H9751 C9747 0.950 . S
H9752 C9749 0.950 . S
C9753 C9744 1.390 . S
C9753 H9746 0.950 . S
C9753 C9750 1.387 . S
C9754 C9755 1.387 . S
C9754 H9758 0.950 . S
C9754 C9763 1.390 . S
C9755 C9754 1.387 . S
C9755 C9757 1.387 . S
H9756 C9763 0.950 . S
C9757 C9755 1.387 . S
C9757 C9759 1.390 . S
C9757 H9761 0.950 . S
H9758 C9754 0.950 . S
C9759 C9757 1.390 . S
C9759 C9760 1.387 . S
C9759 H9762 0.950 . S
C9760 C9759 1.387 . S
C9760 C9763 1.387 . S
H9761 C9757 0.950 . S
H9762 C9759 0.950 . S
C9763 C9754 1.390 . S
C9763 H9756 0.950 . S
C9763 C9760 1.387 . S
C9764 C9765 1.387 . S
C9764 H9768 0.950 . S
C9764 C9773 1.390 . S
C9765 C9764 1.387 . S
C9765 C9767 1.387 . S
H9766 C9773 0.950 . S
C9767 C9765 1.387 . S
C9767 C9769 1.390 . S
C9767 H9771 0.950 . S
H9768 C9764 0.950 . S
C9769 C9767 1.390 . S
C9769 C9770 1.387 . S
C9769 H9772 0.950 . S
C9770 C9769 1.387 . S
C9770 C9773 1.387 . S
H9771 C9767 0.950 . S
H9772 C9769 0.950 . S
C9773 C9764 1.390 . S
C9773 H9766 0.950 . S
C9773 C9770 1.387 . S
C9774 C9775 1.387 . S
C9774 H9778 0.950 . S
C9774 C9783 1.390 . S
C9775 C9774 1.387 . S
C9775 C9777 1.387 . S
H9776 C9783 0.950 . S
C9777 C9775 1.387 . S
C9777 C9779 1.390 . S
C9777 H9781 0.950 . S
H9778 C9774 0.950 . S
C9779 C9777 1.390 . S
C9779 C9780 1.387 . S
C9779 H9782 0.950 . S
C9780 C9779 1.387 . S
C9780 C9783 1.387 . S
H9781 C9777 0.950 . S
H9782 C9779 0.950 . S
C9783 C9774 1.390 . S
C9783 H9776 0.950 . S
C9783 C9780 1.387 . S
C9784 C9785 1.387 . S
C9784 H9788 0.950 . S
C9784 C9793 1.390 . S
C9785 C9784 1.387 . S
C9785 C9787 1.387 . S
H9786 C9793 0.950 . S
C9787 C9785 1.387 . S
C9787 C9789 1.390 . S
C9787 H9791 0.950 . S
H9788 C9784 0.950 . S
C9789 C9787 1.390 . S
C9789 C9790 1.387 . S
C9789 H9792 0.950 . S
C9790 C9789 1.387 . S
C9790 C9793 1.387 . S
H9791 C9787 0.950 . S
H9792 C9789 0.950 . S
C9793 C9784 1.390 . S
C9793 H9786 0.950 . S
C9793 C9790 1.387 . S
C9794 C9795 1.387 . S
C9794 H9798 0.950 . S
C9794 C9803 1.390 . S
C9795 C9794 1.387 . S
C9795 C9797 1.387 . S
H9796 C9803 0.950 . S
C9797 C9795 1.387 . S
C9797 C9799 1.390 . S
C9797 H9801 0.950 . S
H9798 C9794 0.950 . S
C9799 C9797 1.390 . S
C9799 C9800 1.387 . S
C9799 H9802 0.950 . S
C9800 C9799 1.387 . S
C9800 C9803 1.387 . S
H9801 C9797 0.950 . S
H9802 C9799 0.950 . S
C9803 C9794 1.390 . S
C9803 H9796 0.950 . S
C9803 C9800 1.387 . S
C9804 C9805 1.387 . S
C9804 H9808 0.950 . S
C9804 C9813 1.390 . S
C9805 C9804 1.387 . S
C9805 C9807 1.387 . S
H9806 C9813 0.950 . S
C9807 C9805 1.387 . S
C9807 C9809 1.390 . S
C9807 H9811 0.950 . S
H9808 C9804 0.950 . S
C9809 C9807 1.390 . S
C9809 C9810 1.387 . S
C9809 H9812 0.950 . S
C9810 C9809 1.387 . S
C9810 C9813 1.387 . S
H9811 C9807 0.950 . S
H9812 C9809 0.950 . S
C9813 C9804 1.390 . S
C9813 H9806 0.950 . S
C9813 C9810 1.387 . S
C9814 C9815 1.387 . S
C9814 H9818 0.950 . S
C9814 C9823 1.390 . S
C9815 C9814 1.387 . S
C9815 C9817 1.387 . S
H9816 C9823 0.950 . S
C9817 C9815 1.387 . S
C9817 C9819 1.390 . S
C9817 H9821 0.950 . S
H9818 C9814 0.950 . S
C9819 C9817 1.390 . S
C9819 C9820 1.387 . S
C9819 H9822 0.950 . S
C9820 C9819 1.387 . S
C9820 C9823 1.387 . S
H9821 C9817 0.950 . S
H9822 C9819 0.950 . S
C9823 C9814 1.390 . S
C9823 H9816 0.950 . S
C9823 C9820 1.387 . S
C9824 C9825 1.387 . S
C9824 H9828 0.950 . S
C9824 C9833 1.390 . S
C9825 C9824 1.387 . S
C9825 C9827 1.387 . S
H9826 C9833 0.950 . S
C9827 C9825 1.387 . S
C9827 C9829 1.390 . S
C9827 H9831 0.950 . S
H9828 C9824 0.950 . S
C9829 C9827 1.390 . S
C9829 C9830 1.387 . S
C9829 H9832 0.950 . S
C9830 C9829 1.387 . S
C9830 C9833 1.387 . S
H9831 C9827 0.950 . S
H9832 C9829 0.950 . S
C9833 C9824 1.390 . S
C9833 H9826 0.950 . S
C9833 C9830 1.387 . S
C9834 C9835 1.387 . S
C9834 H9838 0.950 . S
C9834 C9843 1.390 . S
C9835 C9834 1.387 . S
C9835 C9837 1.387 . S
H9836 C9843 0.950 . S
C9837 C9835 1.387 . S
C9837 C9839 1.390 . S
C9837 H9841 0.950 . S
H9838 C9834 0.950 . S
C9839 C9837 1.390 . S
C9839 C9840 1.387 . S
C9839 H9842 0.950 . S
C9840 C9839 1.387 . S
C9840 C9843 1.387 . S
H9841 C9837 0.950 . S
H9842 C9839 0.950 . S
C9843 C9834 1.390 . S
C9843 H9836 0.950 . S
C9843 C9840 1.387 . S
C9844 C9845 1.387 . S
C9844 H9848 0.950 . S
C9844 C9853 1.390 . S
C9845 C9844 1.387 . S
C9845 C9847 1.387 . S
H9846 C9853 0.950 . S
C9847 C9845 1.387 . S
C9847 C9849 1.390 . S
C9847 H9851 0.950 . S
H9848 C9844 0.950 . S
C9849 C9847 1.390 . S
C9849 C9850 1.387 . S
C9849 H9852 0.950 . S
C9850 C9849 1.387 . S
C9850 C9853 1.387 . S
H9851 C9847 0.950 . S
H9852 C9849 0.950 . S
C9853 C9844 1.390 . S
C9853 H9846 0.950 . S
C9853 C9850 1.387 . S
C9854 C9855 1.387 . S
C9854 H9858 0.950 . S
C9854 C9863 1.390 . S
C9855 C9854 1.387 . S
C9855 C9857 1.387 . S
H9856 C9863 0.950 . S
C9857 C9855 1.387 . S
C9857 C9859 1.390 . S
C9857 H9861 0.950 . S
H9858 C9854 0.950 . S
C9859 C9857 1.390 . S
C9859 C9860 1.387 . S
C9859 H9862 0.950 . S
C9860 C9859 1.387 . S
C9860 C9863 1.387 . S
H9861 C9857 0.950 . S
H9862 C9859 0.950 . S
C9863 C9854 1.390 . S
C9863 H9856 0.950 . S
C9863 C9860 1.387 . S
C9864 C9865 1.387 . S
C9864 H9868 0.950 . S
C9864 C9873 1.390 . S
C9865 C9864 1.387 . S
C9865 C9867 1.387 . S
H9866 C9873 0.950 . S
C9867 C9865 1.387 . S
C9867 C9869 1.390 . S
C9867 H9871 0.950 . S
H9868 C9864 0.950 . S
C9869 C9867 1.390 . S
C9869 C9870 1.387 . S
C9869 H9872 0.950 . S
C9870 C9869 1.387 . S
C9870 C9873 1.387 . S
H9871 C9867 0.950 . S
H9872 C9869 0.950 . S
C9873 C9864 1.390 . S
C9873 H9866 0.950 . S
C9873 C9870 1.387 . S
C9874 C9875 1.387 . S
C9874 H9878 0.950 . S
C9874 C9883 1.390 . S
C9875 C9874 1.387 . S
C9875 C9877 1.387 . S
H9876 C9883 0.950 . S
C9877 C9875 1.387 . S
C9877 C9879 1.390 . S
C9877 H9881 0.950 . S
H9878 C9874 0.950 . S
C9879 C9877 1.390 . S
C9879 C9880 1.387 . S
C9879 H9882 0.950 . S
C9880 C9879 1.387 . S
C9880 C9883 1.387 . S
H9881 C9877 0.950 . S
H9882 C9879 0.950 . S
C9883 C9874 1.390 . S
C9883 H9876 0.950 . S
C9883 C9880 1.387 . S
C9884 C9885 1.387 . S
C9884 H9888 0.950 . S
C9884 C9893 1.390 . S
C9885 C9884 1.387 . S
C9885 C9887 1.387 . S
H9886 C9893 0.950 . S
C9887 C9885 1.387 . S
C9887 C9889 1.390 . S
C9887 H9891 0.950 . S
H9888 C9884 0.950 . S
C9889 C9887 1.390 . S
C9889 C9890 1.387 . S
C9889 H9892 0.950 . S
C9890 C9889 1.387 . S
C9890 C9893 1.387 . S
H9891 C9887 0.950 . S
H9892 C9889 0.950 . S
C9893 C9884 1.390 . S
C9893 H9886 0.950 . S
C9893 C9890 1.387 . S
C9894 C9895 1.387 . S
C9894 H9898 0.950 . S
C9894 C9903 1.390 . S
C9895 C9894 1.387 . S
C9895 C9897 1.387 . S
H9896 C9903 0.950 . S
C9897 C9895 1.387 . S
C9897 C9899 1.390 . S
C9897 H9901 0.950 . S
H9898 C9894 0.950 . S
C9899 C9897 1.390 . S
C9899 C9900 1.387 . S
C9899 H9902 0.950 . S
C9900 C9899 1.387 . S
C9900 C9903 1.387 . S
H9901 C9897 0.950 . S
H9902 C9899 0.950 . S
C9903 C9894 1.390 . S
C9903 H9896 0.950 . S
C9903 C9900 1.387 . S
C9904 C9905 1.387 . S
C9904 H9908 0.950 . S
C9904 C9913 1.390 . S
C9905 C9904 1.387 . S
C9905 C9907 1.387 . S
H9906 C9913 0.950 . S
C9907 C9905 1.387 . S
C9907 C9909 1.390 . S
C9907 H9911 0.950 . S
H9908 C9904 0.950 . S
C9909 C9907 1.390 . S
C9909 C9910 1.387 . S
C9909 H9912 0.950 . S
C9910 C9909 1.387 . S
C9910 C9913 1.387 . S
H9911 C9907 0.950 . S
H9912 C9909 0.950 . S
C9913 C9904 1.390 . S
C9913 H9906 0.950 . S
C9913 C9910 1.387 . S
C9914 C9915 1.387 . S
C9914 H9918 0.950 . S
C9914 C9923 1.390 . S
C9915 C9914 1.387 . S
C9915 C9917 1.387 . S
H9916 C9923 0.950 . S
C9917 C9915 1.387 . S
C9917 C9919 1.390 . S
C9917 H9921 0.950 . S
H9918 C9914 0.950 . S
C9919 C9917 1.390 . S
C9919 C9920 1.387 . S
C9919 H9922 0.950 . S
C9920 C9919 1.387 . S
C9920 C9923 1.387 . S
H9921 C9917 0.950 . S
H9922 C9919 0.950 . S
C9923 C9914 1.390 . S
C9923 H9916 0.950 . S
C9923 C9920 1.387 . S
C9924 C9925 1.387 . S
C9924 H9928 0.950 . S
C9924 C9933 1.390 . S
C9925 C9924 1.387 . S
C9925 C9927 1.387 . S
H9926 C9933 0.950 . S
C9927 C9925 1.387 . S
C9927 C9929 1.390 . S
C9927 H9931 0.950 . S
H9928 C9924 0.950 . S
C9929 C9927 1.390 . S
C9929 C9930 1.387 . S
C9929 H9932 0.950 . S
C9930 C9929 1.387 . S
C9930 C9933 1.387 . S
H9931 C9927 0.950 . S
H9932 C9929 0.950 . S
C9933 C9924 1.390 . S
C9933 H9926 0.950 . S
C9933 C9930 1.387 . S
C9934 C9935 1.387 . S
C9934 H9938 0.950 . S
C9934 C9943 1.390 . S
C9935 C9934 1.387 . S
C9935 C9937 1.387 . S
H9936 C9943 0.950 . S
C9937 C9935 1.387 . S
C9937 C9939 1.390 . S
C9937 H9941 0.950 . S
H9938 C9934 0.950 . S
C9939 C9937 1.390 . S
C9939 C9940 1.387 . S
C9939 H9942 0.950 . S
C9940 C9939 1.387 . S
C9940 C9943 1.387 . S
H9941 C9937 0.950 . S
H9942 C9939 0.950 . S
C9943 C9934 1.390 . S
C9943 H9936 0.950 . S
C9943 C9940 1.387 . S
C9944 C9945 1.387 . S
C9944 H9948 0.950 . S
C9944 C9953 1.390 . S
C9945 C9944 1.387 . S
C9945 C9947 1.387 . S
H9946 C9953 0.950 . S
C9947 C9945 1.387 . S
C9947 C9949 1.390 . S
C9947 H9951 0.950 . S
H9948 C9944 0.950 . S
C9949 C9947 1.390 . S
C9949 C9950 1.387 . S
C9949 H9952 0.950 . S
C9950 C9949 1.387 . S
C9950 C9953 1.387 . S
H9951 C9947 0.950 . S
H9952 C9949 0.950 . S
C9953 C9944 1.390 . S
C9953 H9946 0.950 . S
C9953 C9950 1.387 . S
C9954 C9955 1.387 . S
C9954 H9958 0.950 . S
C9954 C9963 1.390 . S
C9955 C9954 1.387 . S
C9955 C9957 1.387 . S
H9956 C9963 0.950 . S
C9957 C9955 1.387 . S
C9957 C9959 1.390 . S
C9957 H9961 0.950 . S
H9958 C9954 0.950 . S
C9959 C9957 1.390 . S
C9959 C9960 1.387 . S
C9959 H9962 0.950 . S
C9960 C9959 1.387 . S
C9960 C9963 1.387 . S
H9961 C9957 0.950 . S
H9962 C9959 0.950 . S
C9963 C9954 1.390 . S
C9963 H9956 0.950 . S
C9963 C9960 1.387 . S
C9964 C9965 1.387 . S
C9964 H9968 0.950 . S
C9964 C9973 1.390 . S
C9965 C9964 1.387 . S
C9965 C9967 1.387 . S
H9966 C9973 0.950 . S
C9967 C9965 1.387 . S
C9967 C9969 1.390 . S
C9967 H9971 0.950 . S
H9968 C9964 0.950 . S
C9969 C9967 1.390 . S
C9969 C9970 1.387 . S
C9969 H9972 0.950 . S
C9970 C9969 1.387 . S
C9970 C9973 1.387 . S
H9971 C9967 0.950 . S
H9972 C9969 0.950 . S
C9973 C9964 1.390 . S
C9973 H9966 0.950 . S
C9973 C9970 1.387 . S
C9974 C9975 1.387 . S
C9974 H9978 0.950 . S
C9974 C9983 1.390 . S
C9975 C9974 1.387 . S
C9975 C9977 1.387 . S
H9976 C9983 0.950 . S
C9977 C9975 1.387 . S
C9977 C9979 1.390 . S
C9977 H9981 0.950 . S
H9978 C9974 0.950 . S
C9979 C9977 1.390 . S
C9979 C9980 1.387 . S
C9979 H9982 0.950 . S
C9980 C9979 1.387 . S
C9980 C9983 1.387 . S
H9981 C9977 0.950 . S
H9982 C9979 0.950 . S
C9983 C9974 1.390 . S
C9983 H9976 0.950 . S
C9983 C9980 1.387 . S
C9984 C9985 1.387 . S
C9984 H9988 0.950 . S
C9984 C9993 1.390 . S
C9985 C9984 1.387 . S
C9985 C9987 1.387 . S
H9986 C9993 0.950 . S
C9987 C9985 1.387 . S
C9987 C9989 1.390 . S
C9987 H9991 0.950 . S
H9988 C9984 0.950 . S
C9989 C9987 1.390 . S
C9989 C9990 1.387 . S
C9989 H9992 0.950 . S
C9990 C9989 1.387 . S
C9990 C9993 1.387 . S
H9991 C9987 0.950 . S
H9992 C9989 0.950 . S
C9993 C9984 1.390 . S
C9993 H9986 0.950 . S
C9993 C9990 1.387 . S
C9994 C9995 1.387 . S
C9994 H9998 0.950 . S
C9994 C10003 1.390 . S
C9995 C9994 1.387 . S
C9995 C9997 1.387 . S
H9996 C10003 0.950 . S
C9997 C9995 1.387 . S
C9997 C9999 1.390 . S
C9997 H10001 0.950 . S
H9998 C9994 0.950 . S
C9999 C9997 1.390 . S
C9999 C10000 1.387 . S
C9999 H10002 0.950 . S
C10000 C9999 1.387 . S
C10000 C10003 1.387 . S
H10001 C9997 0.950 . S
H10002 C9999 0.950 . S
C10003 C9994 1.390 . S
C10003 H9996 0.950 . S
C10003 C10000 1.387 . S
C10004 C10005 1.387 . S
C10004 H10008 0.950 . S
C10004 C10013 1.390 . S
C10005 C10004 1.387 . S
C10005 C10007 1.387 . S
H10006 C10013 0.950 . S
C10007 C10005 1.387 . S
C10007 C10009 1.390 . S
C10007 H10011 0.950 . S
H10008 C10004 0.950 . S
C10009 C10007 1.390 . S
C10009 C10010 1.387 . S
C10009 H10012 0.950 . S
C10010 C10009 1.387 . S
C10010 C10013 1.387 . S
H10011 C10007 0.950 . S
H10012 C10009 0.950 . S
C10013 C10004 1.390 . S
C10013 H10006 0.950 . S
C10013 C10010 1.387 . S
C10014 C10015 1.387 . S
C10014 H10018 0.950 . S
C10014 C10023 1.390 . S
C10015 C10014 1.387 . S
C10015 C10017 1.387 . S
H10016 C10023 0.950 . S
C10017 C10015 1.387 . S
C10017 C10019 1.390 . S
C10017 H10021 0.950 . S
H10018 C10014 0.950 . S
C10019 C10017 1.390 . S
C10019 C10020 1.387 . S
C10019 H10022 0.950 . S
C10020 C10019 1.387 . S
C10020 C10023 1.387 . S
H10021 C10017 0.950 . S
H10022 C10019 0.950 . S
C10023 C10014 1.390 . S
C10023 H10016 0.950 . S
C10023 C10020 1.387 . S
C10024 C10025 1.387 . S
C10024 H10028 0.950 . S
C10024 C10033 1.390 . S
C10025 C10024 1.387 . S
C10025 C10027 1.387 . S
H10026 C10033 0.950 . S
C10027 C10025 1.387 . S
C10027 C10029 1.390 . S
C10027 H10031 0.950 . S
H10028 C10024 0.950 . S
C10029 C10027 1.390 . S
C10029 C10030 1.387 . S
C10029 H10032 0.950 . S
C10030 C10029 1.387 . S
C10030 C10033 1.387 . S
H10031 C10027 0.950 . S
H10032 C10029 0.950 . S
C10033 C10024 1.390 . S
C10033 H10026 0.950 . S
C10033 C10030 1.387 . S
C10034 C10035 1.387 . S
C10034 H10038 0.950 . S
C10034 C10043 1.390 . S
C10035 C10034 1.387 . S
C10035 C10037 1.387 . S
H10036 C10043 0.950 . S
C10037 C10035 1.387 . S
C10037 C10039 1.390 . S
C10037 H10041 0.950 . S
H10038 C10034 0.950 . S
C10039 C10037 1.390 . S
C10039 C10040 1.387 . S
C10039 H10042 0.950 . S
C10040 C10039 1.387 . S
C10040 C10043 1.387 . S
H10041 C10037 0.950 . S
H10042 C10039 0.950 . S
C10043 C10034 1.390 . S
C10043 H10036 0.950 . S
C10043 C10040 1.387 . S
C10044 C10045 1.387 . S
C10044 H10048 0.950 . S
C10044 C10053 1.390 . S
C10045 C10044 1.387 . S
C10045 C10047 1.387 . S
H10046 C10053 0.950 . S
C10047 C10045 1.387 . S
C10047 C10049 1.390 . S
C10047 H10051 0.950 . S
H10048 C10044 0.950 . S
C10049 C10047 1.390 . S
C10049 C10050 1.387 . S
C10049 H10052 0.950 . S
C10050 C10049 1.387 . S
C10050 C10053 1.387 . S
H10051 C10047 0.950 . S
H10052 C10049 0.950 . S
C10053 C10044 1.390 . S
C10053 H10046 0.950 . S
C10053 C10050 1.387 . S
C10054 C10055 1.387 . S
C10054 H10058 0.950 . S
C10054 C10063 1.390 . S
C10055 C10054 1.387 . S
C10055 C10057 1.387 . S
H10056 C10063 0.950 . S
C10057 C10055 1.387 . S
C10057 C10059 1.390 . S
C10057 H10061 0.950 . S
H10058 C10054 0.950 . S
C10059 C10057 1.390 . S
C10059 C10060 1.387 . S
C10059 H10062 0.950 . S
C10060 C10059 1.387 . S
C10060 C10063 1.387 . S
H10061 C10057 0.950 . S
H10062 C10059 0.950 . S
C10063 C10054 1.390 . S
C10063 H10056 0.950 . S
C10063 C10060 1.387 . S
C10064 C10065 1.387 . S
C10064 H10068 0.950 . S
C10064 C10073 1.390 . S
C10065 C10064 1.387 . S
C10065 C10067 1.387 . S
H10066 C10073 0.950 . S
C10067 C10065 1.387 . S
C10067 C10069 1.390 . S
C10067 H10071 0.950 . S
H10068 C10064 0.950 . S
C10069 C10067 1.390 . S
C10069 C10070 1.387 . S
C10069 H10072 0.950 . S
C10070 C10069 1.387 . S
C10070 C10073 1.387 . S
H10071 C10067 0.950 . S
H10072 C10069 0.950 . S
C10073 C10064 1.390 . S
C10073 H10066 0.950 . S
C10073 C10070 1.387 . S
C10074 C10075 1.387 . S
C10074 H10078 0.950 . S
C10074 C10083 1.390 . S
C10075 C10074 1.387 . S
C10075 C10077 1.387 . S
H10076 C10083 0.950 . S
C10077 C10075 1.387 . S
C10077 C10079 1.390 . S
C10077 H10081 0.950 . S
H10078 C10074 0.950 . S
C10079 C10077 1.390 . S
C10079 C10080 1.387 . S
C10079 H10082 0.950 . S
C10080 C10079 1.387 . S
C10080 C10083 1.387 . S
H10081 C10077 0.950 . S
H10082 C10079 0.950 . S
C10083 C10074 1.390 . S
C10083 H10076 0.950 . S
C10083 C10080 1.387 . S
C10084 C10085 1.387 . S
C10084 H10088 0.950 . S
C10084 C10093 1.390 . S
C10085 C10084 1.387 . S
C10085 C10087 1.387 . S
H10086 C10093 0.950 . S
C10087 C10085 1.387 . S
C10087 C10089 1.390 . S
C10087 H10091 0.950 . S
H10088 C10084 0.950 . S
C10089 C10087 1.390 . S
C10089 C10090 1.387 . S
C10089 H10092 0.950 . S
C10090 C10089 1.387 . S
C10090 C10093 1.387 . S
H10091 C10087 0.950 . S
H10092 C10089 0.950 . S
C10093 C10084 1.390 . S
C10093 H10086 0.950 . S
C10093 C10090 1.387 . S
C10094 C10095 1.387 . S
C10094 H10098 0.950 . S
C10094 C10103 1.390 . S
C10095 C10094 1.387 . S
C10095 C10097 1.387 . S
H10096 C10103 0.950 . S
C10097 C10095 1.387 . S
C10097 C10099 1.390 . S
C10097 H10101 0.950 . S
H10098 C10094 0.950 . S
C10099 C10097 1.390 . S
C10099 C10100 1.387 . S
C10099 H10102 0.950 . S
C10100 C10099 1.387 . S
C10100 C10103 1.387 . S
H10101 C10097 0.950 . S
H10102 C10099 0.950 . S
C10103 C10094 1.390 . S
C10103 H10096 0.950 . S
C10103 C10100 1.387 . S
C10104 C10105 1.387 . S
C10104 H10108 0.950 . S
C10104 C10113 1.390 . S
C10105 C10104 1.387 . S
C10105 C10107 1.387 . S
H10106 C10113 0.950 . S
C10107 C10105 1.387 . S
C10107 C10109 1.390 . S
C10107 H10111 0.950 . S
H10108 C10104 0.950 . S
C10109 C10107 1.390 . S
C10109 C10110 1.387 . S
C10109 H10112 0.950 . S
C10110 C10109 1.387 . S
C10110 C10113 1.387 . S
H10111 C10107 0.950 . S
H10112 C10109 0.950 . S
C10113 C10104 1.390 . S
C10113 H10106 0.950 . S
C10113 C10110 1.387 . S
C10114 C10115 1.387 . S
C10114 H10118 0.950 . S
C10114 C10123 1.390 . S
C10115 C10114 1.387 . S
C10115 C10117 1.387 . S
H10116 C10123 0.950 . S
C10117 C10115 1.387 . S
C10117 C10119 1.390 . S
C10117 H10121 0.950 . S
H10118 C10114 0.950 . S
C10119 C10117 1.390 . S
C10119 C10120 1.387 . S
C10119 H10122 0.950 . S
C10120 C10119 1.387 . S
C10120 C10123 1.387 . S
H10121 C10117 0.950 . S
H10122 C10119 0.950 . S
C10123 C10114 1.390 . S
C10123 H10116 0.950 . S
C10123 C10120 1.387 . S
C10124 C10125 1.387 . S
C10124 H10128 0.950 . S
C10124 C10133 1.390 . S
C10125 C10124 1.387 . S
C10125 C10127 1.387 . S
H10126 C10133 0.950 . S
C10127 C10125 1.387 . S
C10127 C10129 1.390 . S
C10127 H10131 0.950 . S
H10128 C10124 0.950 . S
C10129 C10127 1.390 . S
C10129 C10130 1.387 . S
C10129 H10132 0.950 . S
C10130 C10129 1.387 . S
C10130 C10133 1.387 . S
H10131 C10127 0.950 . S
H10132 C10129 0.950 . S
C10133 C10124 1.390 . S
C10133 H10126 0.950 . S
C10133 C10130 1.387 . S
C10134 C10135 1.387 . S
C10134 H10138 0.950 . S
C10134 C10143 1.390 . S
C10135 C10134 1.387 . S
C10135 C10137 1.387 . S
H10136 C10143 0.950 . S
C10137 C10135 1.387 . S
C10137 C10139 1.390 . S
C10137 H10141 0.950 . S
H10138 C10134 0.950 . S
C10139 C10137 1.390 . S
C10139 C10140 1.387 . S
C10139 H10142 0.950 . S
C10140 C10139 1.387 . S
C10140 C10143 1.387 . S
H10141 C10137 0.950 . S
H10142 C10139 0.950 . S
C10143 C10134 1.390 . S
C10143 H10136 0.950 . S
C10143 C10140 1.387 . S
C10144 C10145 1.387 . S
C10144 H10148 0.950 . S
C10144 C10153 1.390 . S
C10145 C10144 1.387 . S
C10145 C10147 1.387 . S
H10146 C10153 0.950 . S
C10147 C10145 1.387 . S
C10147 C10149 1.390 . S
C10147 H10151 0.950 . S
H10148 C10144 0.950 . S
C10149 C10147 1.390 . S
C10149 C10150 1.387 . S
C10149 H10152 0.950 . S
C10150 C10149 1.387 . S
C10150 C10153 1.387 . S
H10151 C10147 0.950 . S
H10152 C10149 0.950 . S
C10153 C10144 1.390 . S
C10153 H10146 0.950 . S
C10153 C10150 1.387 . S
C10154 C10155 1.387 . S
C10154 H10158 0.950 . S
C10154 C10163 1.390 . S
C10155 C10154 1.387 . S
C10155 C10157 1.387 . S
H10156 C10163 0.950 . S
C10157 C10155 1.387 . S
C10157 C10159 1.390 . S
C10157 H10161 0.950 . S
H10158 C10154 0.950 . S
C10159 C10157 1.390 . S
C10159 C10160 1.387 . S
C10159 H10162 0.950 . S
C10160 C10159 1.387 . S
C10160 C10163 1.387 . S
H10161 C10157 0.950 . S
H10162 C10159 0.950 . S
C10163 C10154 1.390 . S
C10163 H10156 0.950 . S
C10163 C10160 1.387 . S
C10164 C10165 1.387 . S
C10164 H10168 0.950 . S
C10164 C10173 1.390 . S
C10165 C10164 1.387 . S
C10165 C10167 1.387 . S
H10166 C10173 0.950 . S
C10167 C10165 1.387 . S
C10167 C10169 1.390 . S
C10167 H10171 0.950 . S
H10168 C10164 0.950 . S
C10169 C10167 1.390 . S
C10169 C10170 1.387 . S
C10169 H10172 0.950 . S
C10170 C10169 1.387 . S
C10170 C10173 1.387 . S
H10171 C10167 0.950 . S
H10172 C10169 0.950 . S
C10173 C10164 1.390 . S
C10173 H10166 0.950 . S
C10173 C10170 1.387 . S
C10174 C10175 1.387 . S
C10174 H10178 0.950 . S
C10174 C10183 1.390 . S
C10175 C10174 1.387 . S
C10175 C10177 1.387 . S
H10176 C10183 0.950 . S
C10177 C10175 1.387 . S
C10177 C10179 1.390 . S
C10177 H10181 0.950 . S
H10178 C10174 0.950 . S
C10179 C10177 1.390 . S
C10179 C10180 1.387 . S
C10179 H10182 0.950 . S
C10180 C10179 1.387 . S
C10180 C10183 1.387 . S
H10181 C10177 0.950 . S
H10182 C10179 0.950 . S
C10183 C10174 1.390 . S
C10183 H10176 0.950 . S
C10183 C10180 1.387 . S
C10184 C10185 1.387 . S
C10184 H10188 0.950 . S
C10184 C10193 1.390 . S
C10185 C10184 1.387 . S
C10185 C10187 1.387 . S
H10186 C10193 0.950 . S
C10187 C10185 1.387 . S
C10187 C10189 1.390 . S
C10187 H10191 0.950 . S
H10188 C10184 0.950 . S
C10189 C10187 1.390 . S
C10189 C10190 1.387 . S
C10189 H10192 0.950 . S
C10190 C10189 1.387 . S
C10190 C10193 1.387 . S
H10191 C10187 0.950 . S
H10192 C10189 0.950 . S
C10193 C10184 1.390 . S
C10193 H10186 0.950 . S
C10193 C10190 1.387 . S
C10194 C10195 1.387 . S
C10194 H10198 0.950 . S
C10194 C10203 1.390 . S
C10195 C10194 1.387 . S
C10195 C10197 1.387 . S
H10196 C10203 0.950 . S
C10197 C10195 1.387 . S
C10197 C10199 1.390 . S
C10197 H10201 0.950 . S
H10198 C10194 0.950 . S
C10199 C10197 1.390 . S
C10199 C10200 1.387 . S
C10199 H10202 0.950 . S
C10200 C10199 1.387 . S
C10200 C10203 1.387 . S
H10201 C10197 0.950 . S
H10202 C10199 0.950 . S
C10203 C10194 1.390 . S
C10203 H10196 0.950 . S
C10203 C10200 1.387 . S
C10204 C10205 1.387 . S
C10204 H10208 0.950 . S
C10204 C10213 1.390 . S
C10205 C10204 1.387 . S
C10205 C10207 1.387 . S
H10206 C10213 0.950 . S
C10207 C10205 1.387 . S
C10207 C10209 1.390 . S
C10207 H10211 0.950 . S
H10208 C10204 0.950 . S
C10209 C10207 1.390 . S
C10209 C10210 1.387 . S
C10209 H10212 0.950 . S
C10210 C10209 1.387 . S
C10210 C10213 1.387 . S
H10211 C10207 0.950 . S
H10212 C10209 0.950 . S
C10213 C10204 1.390 . S
C10213 H10206 0.950 . S
C10213 C10210 1.387 . S
C10214 C10215 1.387 . S
C10214 H10218 0.950 . S
C10214 C10223 1.390 . S
C10215 C10214 1.387 . S
C10215 C10217 1.387 . S
H10216 C10223 0.950 . S
C10217 C10215 1.387 . S
C10217 C10219 1.390 . S
C10217 H10221 0.950 . S
H10218 C10214 0.950 . S
C10219 C10217 1.390 . S
C10219 C10220 1.387 . S
C10219 H10222 0.950 . S
C10220 C10219 1.387 . S
C10220 C10223 1.387 . S
H10221 C10217 0.950 . S
H10222 C10219 0.950 . S
C10223 C10214 1.390 . S
C10223 H10216 0.950 . S
C10223 C10220 1.387 . S
C10224 C10225 1.387 . S
C10224 H10228 0.950 . S
C10224 C10233 1.390 . S
C10225 C10224 1.387 . S
C10225 C10227 1.387 . S
H10226 C10233 0.950 . S
C10227 C10225 1.387 . S
C10227 C10229 1.390 . S
C10227 H10231 0.950 . S
H10228 C10224 0.950 . S
C10229 C10227 1.390 . S
C10229 C10230 1.387 . S
C10229 H10232 0.950 . S
C10230 C10229 1.387 . S
C10230 C10233 1.387 . S
H10231 C10227 0.950 . S
H10232 C10229 0.950 . S
C10233 C10224 1.390 . S
C10233 H10226 0.950 . S
C10233 C10230 1.387 . S
C10234 C10235 1.387 . S
C10234 H10238 0.950 . S
C10234 C10243 1.390 . S
C10235 C10234 1.387 . S
C10235 C10237 1.387 . S
H10236 C10243 0.950 . S
C10237 C10235 1.387 . S
C10237 C10239 1.390 . S
C10237 H10241 0.950 . S
H10238 C10234 0.950 . S
C10239 C10237 1.390 . S
C10239 C10240 1.387 . S
C10239 H10242 0.950 . S
C10240 C10239 1.387 . S
C10240 C10243 1.387 . S
H10241 C10237 0.950 . S
H10242 C10239 0.950 . S
C10243 C10234 1.390 . S
C10243 H10236 0.950 . S
C10243 C10240 1.387 . S
C10244 C10245 1.387 . S
C10244 H10248 0.950 . S
C10244 C10253 1.390 . S
C10245 C10244 1.387 . S
C10245 C10247 1.387 . S
H10246 C10253 0.950 . S
C10247 C10245 1.387 . S
C10247 C10249 1.390 . S
C10247 H10251 0.950 . S
H10248 C10244 0.950 . S
C10249 C10247 1.390 . S
C10249 C10250 1.387 . S
C10249 H10252 0.950 . S
C10250 C10249 1.387 . S
C10250 C10253 1.387 . S
H10251 C10247 0.950 . S
H10252 C10249 0.950 . S
C10253 C10244 1.390 . S
C10253 H10246 0.950 . S
C10253 C10250 1.387 . S
C10254 C10255 1.387 . S
C10254 H10258 0.950 . S
C10254 C10263 1.390 . S
C10255 C10254 1.387 . S
C10255 C10257 1.387 . S
H10256 C10263 0.950 . S
C10257 C10255 1.387 . S
C10257 C10259 1.390 . S
C10257 H10261 0.950 . S
H10258 C10254 0.950 . S
C10259 C10257 1.390 . S
C10259 C10260 1.387 . S
C10259 H10262 0.950 . S
C10260 C10259 1.387 . S
C10260 C10263 1.387 . S
H10261 C10257 0.950 . S
H10262 C10259 0.950 . S
C10263 C10254 1.390 . S
C10263 H10256 0.950 . S
C10263 C10260 1.387 . S
C10264 C10265 1.387 . S
C10264 H10268 0.950 . S
C10264 C10273 1.390 . S
C10265 C10264 1.387 . S
C10265 C10267 1.387 . S
H10266 C10273 0.950 . S
C10267 C10265 1.387 . S
C10267 C10269 1.390 . S
C10267 H10271 0.950 . S
H10268 C10264 0.950 . S
C10269 C10267 1.390 . S
C10269 C10270 1.387 . S
C10269 H10272 0.950 . S
C10270 C10269 1.387 . S
C10270 C10273 1.387 . S
H10271 C10267 0.950 . S
H10272 C10269 0.950 . S
C10273 C10264 1.390 . S
C10273 H10266 0.950 . S
C10273 C10270 1.387 . S
C10274 C10275 1.387 . S
C10274 H10278 0.950 . S
C10274 C10283 1.390 . S
C10275 C10274 1.387 . S
C10275 C10277 1.387 . S
H10276 C10283 0.950 . S
C10277 C10275 1.387 . S
C10277 C10279 1.390 . S
C10277 H10281 0.950 . S
H10278 C10274 0.950 . S
C10279 C10277 1.390 . S
C10279 C10280 1.387 . S
C10279 H10282 0.950 . S
C10280 C10279 1.387 . S
C10280 C10283 1.387 . S
H10281 C10277 0.950 . S
H10282 C10279 0.950 . S
C10283 C10274 1.390 . S
C10283 H10276 0.950 . S
C10283 C10280 1.387 . S
C10284 C10285 1.387 . S
C10284 H10288 0.950 . S
C10284 C10293 1.390 . S
C10285 C10284 1.387 . S
C10285 C10287 1.387 . S
H10286 C10293 0.950 . S
C10287 C10285 1.387 . S
C10287 C10289 1.390 . S
C10287 H10291 0.950 . S
H10288 C10284 0.950 . S
C10289 C10287 1.390 . S
C10289 C10290 1.387 . S
C10289 H10292 0.950 . S
C10290 C10289 1.387 . S
C10290 C10293 1.387 . S
H10291 C10287 0.950 . S
H10292 C10289 0.950 . S
C10293 C10284 1.390 . S
C10293 H10286 0.950 . S
C10293 C10290 1.387 . S
C10294 C10295 1.387 . S
C10294 H10298 0.950 . S
C10294 C10303 1.390 . S
C10295 C10294 1.387 . S
C10295 C10297 1.387 . S
H10296 C10303 0.950 . S
C10297 C10295 1.387 . S
C10297 C10299 1.390 . S
C10297 H10301 0.950 . S
H10298 C10294 0.950 . S
C10299 C10297 1.390 . S
C10299 C10300 1.387 . S
C10299 H10302 0.950 . S
C10300 C10299 1.387 . S
C10300 C10303 1.387 . S
H10301 C10297 0.950 . S
H10302 C10299 0.950 . S
C10303 C10294 1.390 . S
C10303 H10296 0.950 . S
C10303 C10300 1.387 . S
C10304 C10305 1.387 . S
C10304 H10308 0.950 . S
C10304 C10313 1.390 . S
C10305 C10304 1.387 . S
C10305 C10307 1.387 . S
H10306 C10313 0.950 . S
C10307 C10305 1.387 . S
C10307 C10309 1.390 . S
C10307 H10311 0.950 . S
H10308 C10304 0.950 . S
C10309 C10307 1.390 . S
C10309 C10310 1.387 . S
C10309 H10312 0.950 . S
C10310 C10309 1.387 . S
C10310 C10313 1.387 . S
H10311 C10307 0.950 . S
H10312 C10309 0.950 . S
C10313 C10304 1.390 . S
C10313 H10306 0.950 . S
C10313 C10310 1.387 . S
C10314 C10315 1.387 . S
C10314 H10318 0.950 . S
C10314 C10323 1.390 . S
C10315 C10314 1.387 . S
C10315 C10317 1.387 . S
H10316 C10323 0.950 . S
C10317 C10315 1.387 . S
C10317 C10319 1.390 . S
C10317 H10321 0.950 . S
H10318 C10314 0.950 . S
C10319 C10317 1.390 . S
C10319 C10320 1.387 . S
C10319 H10322 0.950 . S
C10320 C10319 1.387 . S
C10320 C10323 1.387 . S
H10321 C10317 0.950 . S
H10322 C10319 0.950 . S
C10323 C10314 1.390 . S
C10323 H10316 0.950 . S
C10323 C10320 1.387 . S
C10324 C10325 1.387 . S
C10324 H10328 0.950 . S
C10324 C10333 1.390 . S
C10325 C10324 1.387 . S
C10325 C10327 1.387 . S
H10326 C10333 0.950 . S
C10327 C10325 1.387 . S
C10327 C10329 1.390 . S
C10327 H10331 0.950 . S
H10328 C10324 0.950 . S
C10329 C10327 1.390 . S
C10329 C10330 1.387 . S
C10329 H10332 0.950 . S
C10330 C10329 1.387 . S
C10330 C10333 1.387 . S
H10331 C10327 0.950 . S
H10332 C10329 0.950 . S
C10333 C10324 1.390 . S
C10333 H10326 0.950 . S
C10333 C10330 1.387 . S
C10334 C10335 1.387 . S
C10334 H10338 0.950 . S
C10334 C10343 1.390 . S
C10335 C10334 1.387 . S
C10335 C10337 1.387 . S
H10336 C10343 0.950 . S
C10337 C10335 1.387 . S
C10337 C10339 1.390 . S
C10337 H10341 0.950 . S
H10338 C10334 0.950 . S
C10339 C10337 1.390 . S
C10339 C10340 1.387 . S
C10339 H10342 0.950 . S
C10340 C10339 1.387 . S
C10340 C10343 1.387 . S
H10341 C10337 0.950 . S
H10342 C10339 0.950 . S
C10343 C10334 1.390 . S
C10343 H10336 0.950 . S
C10343 C10340 1.387 . S
C10344 C10345 1.387 . S
C10344 H10348 0.950 . S
C10344 C10353 1.390 . S
C10345 C10344 1.387 . S
C10345 C10347 1.387 . S
H10346 C10353 0.950 . S
C10347 C10345 1.387 . S
C10347 C10349 1.390 . S
C10347 H10351 0.950 . S
H10348 C10344 0.950 . S
C10349 C10347 1.390 . S
C10349 C10350 1.387 . S
C10349 H10352 0.950 . S
C10350 C10349 1.387 . S
C10350 C10353 1.387 . S
H10351 C10347 0.950 . S
H10352 C10349 0.950 . S
C10353 C10344 1.390 . S
C10353 H10346 0.950 . S
C10353 C10350 1.387 . S
C10354 C10355 1.387 . S
C10354 H10358 0.950 . S
C10354 C10363 1.390 . S
C10355 C10354 1.387 . S
C10355 C10357 1.387 . S
H10356 C10363 0.950 . S
C10357 C10355 1.387 . S
C10357 C10359 1.390 . S
C10357 H10361 0.950 . S
H10358 C10354 0.950 . S
C10359 C10357 1.390 . S
C10359 C10360 1.387 . S
C10359 H10362 0.950 . S
C10360 C10359 1.387 . S
C10360 C10363 1.387 . S
H10361 C10357 0.950 . S
H10362 C10359 0.950 . S
C10363 C10354 1.390 . S
C10363 H10356 0.950 . S
C10363 C10360 1.387 . S
C10364 C10365 1.387 . S
C10364 H10368 0.950 . S
C10364 C10373 1.390 . S
C10365 C10364 1.387 . S
C10365 C10367 1.387 . S
H10366 C10373 0.950 . S
C10367 C10365 1.387 . S
C10367 C10369 1.390 . S
C10367 H10371 0.950 . S
H10368 C10364 0.950 . S
C10369 C10367 1.390 . S
C10369 C10370 1.387 . S
C10369 H10372 0.950 . S
C10370 C10369 1.387 . S
C10370 C10373 1.387 . S
H10371 C10367 0.950 . S
H10372 C10369 0.950 . S
C10373 C10364 1.390 . S
C10373 H10366 0.950 . S
C10373 C10370 1.387 . S
C10374 C10375 1.387 . S
C10374 H10378 0.950 . S
C10374 C10383 1.390 . S
C10375 C10374 1.387 . S
C10375 C10377 1.387 . S
H10376 C10383 0.950 . S
C10377 C10375 1.387 . S
C10377 C10379 1.390 . S
C10377 H10381 0.950 . S
H10378 C10374 0.950 . S
C10379 C10377 1.390 . S
C10379 C10380 1.387 . S
C10379 H10382 0.950 . S
C10380 C10379 1.387 . S
C10380 C10383 1.387 . S
H10381 C10377 0.950 . S
H10382 C10379 0.950 . S
C10383 C10374 1.390 . S
C10383 H10376 0.950 . S
C10383 C10380 1.387 . S
C10384 C10385 1.387 . S
C10384 H10388 0.950 . S
C10384 C10393 1.390 . S
C10385 C10384 1.387 . S
C10385 C10387 1.387 . S
H10386 C10393 0.950 . S
C10387 C10385 1.387 . S
C10387 C10389 1.390 . S
C10387 H10391 0.950 . S
H10388 C10384 0.950 . S
C10389 C10387 1.390 . S
C10389 C10390 1.387 . S
C10389 H10392 0.950 . S
C10390 C10389 1.387 . S
C10390 C10393 1.387 . S
H10391 C10387 0.950 . S
H10392 C10389 0.950 . S
C10393 C10384 1.390 . S
C10393 H10386 0.950 . S
C10393 C10390 1.387 . S
C10394 C10395 1.387 . S
C10394 H10398 0.950 . S
C10394 C10403 1.390 . S
C10395 C10394 1.387 . S
C10395 C10397 1.387 . S
H10396 C10403 0.950 . S
C10397 C10395 1.387 . S
C10397 C10399 1.390 . S
C10397 H10401 0.950 . S
H10398 C10394 0.950 . S
C10399 C10397 1.390 . S
C10399 C10400 1.387 . S
C10399 H10402 0.950 . S
C10400 C10399 1.387 . S
C10400 C10403 1.387 . S
H10401 C10397 0.950 . S
H10402 C10399 0.950 . S
C10403 C10394 1.390 . S
C10403 H10396 0.950 . S
C10403 C10400 1.387 . S
C10404 C10405 1.387 . S
C10404 H10408 0.950 . S
C10404 C10413 1.390 . S
C10405 C10404 1.387 . S
C10405 C10407 1.387 . S
H10406 C10413 0.950 . S
C10407 C10405 1.387 . S
C10407 C10409 1.390 . S
C10407 H10411 0.950 . S
H10408 C10404 0.950 . S
C10409 C10407 1.390 . S
C10409 C10410 1.387 . S
C10409 H10412 0.950 . S
C10410 C10409 1.387 . S
C10410 C10413 1.387 . S
H10411 C10407 0.950 . S
H10412 C10409 0.950 . S
C10413 C10404 1.390 . S
C10413 H10406 0.950 . S
C10413 C10410 1.387 . S
C10414 C10415 1.387 . S
C10414 H10418 0.950 . S
C10414 C10423 1.390 . S
C10415 C10414 1.387 . S
C10415 C10417 1.387 . S
H10416 C10423 0.950 . S
C10417 C10415 1.387 . S
C10417 C10419 1.390 . S
C10417 H10421 0.950 . S
H10418 C10414 0.950 . S
C10419 C10417 1.390 . S
C10419 C10420 1.387 . S
C10419 H10422 0.950 . S
C10420 C10419 1.387 . S
C10420 C10423 1.387 . S
H10421 C10417 0.950 . S
H10422 C10419 0.950 . S
C10423 C10414 1.390 . S
C10423 H10416 0.950 . S
C10423 C10420 1.387 . S
C10424 C10425 1.387 . S
C10424 H10428 0.950 . S
C10424 C10433 1.390 . S
C10425 C10424 1.387 . S
C10425 C10427 1.387 . S
H10426 C10433 0.950 . S
C10427 C10425 1.387 . S
C10427 C10429 1.390 . S
C10427 H10431 0.950 . S
H10428 C10424 0.950 . S
C10429 C10427 1.390 . S
C10429 C10430 1.387 . S
C10429 H10432 0.950 . S
C10430 C10429 1.387 . S
C10430 C10433 1.387 . S
H10431 C10427 0.950 . S
H10432 C10429 0.950 . S
C10433 C10424 1.390 . S
C10433 H10426 0.950 . S
C10433 C10430 1.387 . S
C10434 C10435 1.387 . S
C10434 H10438 0.950 . S
C10434 C10443 1.390 . S
C10435 C10434 1.387 . S
C10435 C10437 1.387 . S
H10436 C10443 0.950 . S
C10437 C10435 1.387 . S
C10437 C10439 1.390 . S
C10437 H10441 0.950 . S
H10438 C10434 0.950 . S
C10439 C10437 1.390 . S
C10439 C10440 1.387 . S
C10439 H10442 0.950 . S
C10440 C10439 1.387 . S
C10440 C10443 1.387 . S
H10441 C10437 0.950 . S
H10442 C10439 0.950 . S
C10443 C10434 1.390 . S
C10443 H10436 0.950 . S
C10443 C10440 1.387 . S
C10444 C10445 1.387 . S
C10444 H10448 0.950 . S
C10444 C10453 1.390 . S
C10445 C10444 1.387 . S
C10445 C10447 1.387 . S
H10446 C10453 0.950 . S
C10447 C10445 1.387 . S
C10447 C10449 1.390 . S
C10447 H10451 0.950 . S
H10448 C10444 0.950 . S
C10449 C10447 1.390 . S
C10449 C10450 1.387 . S
C10449 H10452 0.950 . S
C10450 C10449 1.387 . S
C10450 C10453 1.387 . S
H10451 C10447 0.950 . S
H10452 C10449 0.950 . S
C10453 C10444 1.390 . S
C10453 H10446 0.950 . S
C10453 C10450 1.387 . S
C10454 C10455 1.387 . S
C10454 H10458 0.950 . S
C10454 C10463 1.390 . S
C10455 C10454 1.387 . S
C10455 C10457 1.387 . S
H10456 C10463 0.950 . S
C10457 C10455 1.387 . S
C10457 C10459 1.390 . S
C10457 H10461 0.950 . S
H10458 C10454 0.950 . S
C10459 C10457 1.390 . S
C10459 C10460 1.387 . S
C10459 H10462 0.950 . S
C10460 C10459 1.387 . S
C10460 C10463 1.387 . S
H10461 C10457 0.950 . S
H10462 C10459 0.950 . S
C10463 C10454 1.390 . S
C10463 H10456 0.950 . S
C10463 C10460 1.387 . S
C7590 C4836 2.296 1_455 S
C7585 C15 2.306 . S
C7600 C6747 1.913 . S
C7595 C55 1.885 . S
C7610 C4914 2.245 . S
C7605 C95 2.300 . S
C7620 C6669 1.912 . S
C7615 C135 1.884 . S
C7630 C5070 2.293 1_455 S
C7625 C175 2.304 . S
C7635 C215 1.887 . S
C7640 C6825 1.914 . S
C7650 C4992 2.245 . S
C7645 C255 2.300 . S
C7660 C6903 1.915 . S
C7655 C295 1.888 . S
C7670 C7527 2.242 1_545 S
C7665 C335 2.297 . S
C7675 C375 1.886 . S
C7680 C7293 1.914 . S
C7690 C7566 2.297 1_565 S
C7685 C415 2.307 . S
C7695 C455 1.889 . S
C7700 C7488 1.915 . S
C7710 C7371 2.242 1_565 S
C7705 C495 2.297 . S
C7720 C5538 1.914 . S
C7715 C535 1.889 . S
C7730 C5577 2.295 1_545 S
C7725 C575 2.306 . S
C7735 C615 1.886 . S
C7740 C5460 1.914 . S
C7745 C655 2.302 . S
C7750 C7176 2.246 1_554 S
C7760 C5226 2.244 1_556 S
C7755 C695 2.299 . S
C7770 C6981 1.913 . S
C7765 C735 1.885 . S
C7780 C5148 2.286 . S
C7775 C775 2.298 . S
C7785 C815 1.887 . S
C7790 C5187 1.912 . S
C7800 C7254 2.286 . S
C7795 C855 2.298 . S
C7810 C7137 1.912 . S
C7805 C895 1.886 . S
C7815 C935 1.884 . S
C7820 C7215 1.911 . S
C7825 C975 2.272 . S
C7830 C3900 2.274 1_655 S
C7835 C1015 1.892 . S
C7840 C5811 1.923 . S
C7850 C3978 2.281 . S
C7845 C1055 2.278 . S
C7855 C1095 1.897 . S
C7860 C5733 1.904 . S
C7870 C4134 2.277 1_655 S
C7865 C1135 2.275 . S
C7875 C1175 1.899 . S
C7880 C5889 1.906 . S
C7890 C4056 2.280 . S
C7885 C1215 2.278 . S
C7900 C5967 1.923 . S
C7895 C1255 1.892 . S
C7905 C1295 2.279 . S
C7910 C6591 2.282 1_565 S
C7920 C6357 1.923 . S
C7915 C1335 1.891 . S
C7925 C1375 2.280 . S
C7930 C6630 2.250 1_545 S
C7940 C6552 1.930 . S
C7935 C1415 1.899 . S
C7950 C6435 2.281 1_545 S
C7945 C1455 2.278 . S
C7955 C1495 1.900 . S
C7960 C4602 1.931 . S
C7965 C1535 2.277 . S
C7970 C4641 2.247 1_565 S
C7980 C4524 1.924 . S
C7975 C1575 1.893 . S
C7985 C1615 2.279 . S
C7990 C6240 2.282 1_556 S
C8000 C4290 2.281 1_554 S
C7995 C1655 2.279 . S
C8005 C1695 1.895 . S
C8010 C6045 1.928 . S
C8020 C4212 2.281 . S
C8015 C1735 2.279 . S
C8025 C1775 1.892 . S
C8030 C4251 1.900 . S
C8040 C6318 2.282 . S
C8035 C1815 2.279 . S
C8050 C6201 1.927 . S
C8045 C1855 1.894 . S
C8060 C6279 1.898 . S
C8055 C1895 1.892 . S
C8065 C1935 2.306 . S
C8070 C6708 2.296 . S
C8080 C4875 1.914 . S
C8075 C1975 1.888 . S
C8090 C6786 2.245 1_655 S
C8085 C2015 2.300 . S
C8100 C4797 1.914 . S
C8095 C2055 1.887 . S
C8105 C2095 2.304 . S
C8110 C6942 2.293 . S
C8120 C4953 1.912 . S
C8115 C2135 1.884 . S
C8130 C6864 2.245 1_655 S
C8125 C2175 2.300 . S
C8140 C5031 1.913 . S
C8135 C2215 1.885 . S
C8145 C2255 2.298 . S
C8150 C5655 2.242 . S
C8160 C5421 1.914 . S
C8155 C2295 1.886 . S
C8170 C5694 2.294 . S
C8165 C2335 2.306 . S
C8175 C2375 1.889 . S
C8180 C5616 1.915 . S
C8185 C2415 2.297 . S
C8190 C5499 2.242 . S
C8195 C2455 1.889 . S
C8200 C7410 1.914 . S
C8205 C2495 2.306 . S
C8210 C7449 2.294 . S
C8220 C7332 1.915 . S
C8215 C2535 1.889 . S
C8225 C2575 2.300 . S
C8230 C5304 2.245 . S
C8240 C7098 2.246 . S
C8235 C2615 2.301 . S
C8250 C5109 1.912 . S
C8245 C2655 1.886 . S
C8260 C7020 2.285 1_556 S
C8255 C2695 2.297 . S
C8265 C2735 1.886 . S
C8270 C7059 1.913 . S
C8275 C2775 2.297 . S
C8280 C5382 2.286 1_554 S
C8290 C5265 1.913 . S
C8285 C2815 1.885 . S
C8295 C2855 1.886 . S
C8300 C5343 1.913 . S
C8305 C2895 2.275 . S
C8310 C5772 2.277 . S
C8320 C3939 1.922 . S
C8315 C2935 1.889 . S
C8330 C5850 2.282 1_455 S
C8325 C2975 2.279 . S
C8335 C3015 1.897 . S
C8340 C3861 1.904 . S
C8350 C6006 2.277 . S
C8345 C3055 2.275 . S
C8360 C4017 1.906 . S
C8355 C3095 1.899 . S
C8365 C3135 2.278 . S
C8370 C5928 2.280 1_455 S
C8375 C3175 1.892 . S
C8380 C4095 1.923 . S
C8390 C4719 2.283 . S
C8385 C3215 2.280 . S
C8395 C3255 1.891 . S
C8400 C4485 1.923 . S
C8410 C4758 2.249 . S
C8405 C3295 2.278 . S
C8420 C4680 1.930 . S
C8415 C3335 1.897 . S
C8425 C3375 2.281 . S
C8430 C4563 2.283 . S
C8435 C3415 1.900 . S
C8440 C6474 1.931 . S
C8450 C6513 2.247 . S
C8445 C3455 2.277 . S
C8455 C3495 1.893 . S
C8460 C6396 1.924 . S
C8470 C4368 2.280 . S
C8465 C3535 2.278 . S
C8480 C6162 2.282 . S
C8475 C3575 2.279 . S
C8485 C3615 1.897 . S
C8490 C4173 1.928 . S
C8495 C3655 2.278 . S
C8500 C6084 2.281 1_554 S
C8505 C3695 1.893 . S
C8510 C6123 1.899 . S
C8515 C3735 2.279 . S
C8520 C4446 2.281 1_556 S
C8525 C3775 1.895 . S
C8530 C4329 1.927 . S
C8540 C4407 1.900 . S
C8535 C3815 1.894 . S
C8550 C4207 1.985 . S
C8545 C2 2.005 . S
C8560 C4231 2.172 . S
C8555 C42 2.051 . S
C8565 C82 2.005 . S
C8570 C4285 1.984 . S
C8575 C122 2.049 . S
C8580 C4168 2.172 . S
C8585 C162 2.005 . S
C8590 C4441 1.986 . S
C8600 C4324 2.173 . S
C8595 C202 2.048 . S
C8610 C4363 1.984 . S
C8605 C242 2.005 . S
C8615 C282 2.052 . S
C8620 C4387 2.172 . S
C8625 C322 2.005 . S
C8630 C3973 1.983 . S
C8635 C362 2.052 . S
C8640 C3841 2.171 . S
C8645 C402 2.005 . S
C8650 C3895 1.985 . S
C8660 C3934 2.169 . S
C8655 C442 2.045 . S
C8665 C482 2.005 . S
C8670 C4051 1.984 . S
C8675 C522 2.049 . S
C8680 C4090 2.171 . S
C8685 C562 2.005 . S
C8690 C4129 1.985 . S
C8695 C602 2.054 . S
C8700 C3997 2.174 . S
C8710 C4558 1.984 . S
C8705 C642 2.005 . S
C8715 C682 2.004 . S
C8720 C6586 1.984 . S
C8730 C4480 2.171 . S
C8725 C722 2.046 . S
C8740 C6610 1.986 . S
C8735 C762 2.008 . S
C8745 C802 2.047 . S
C8750 C6547 2.170 . S
C8755 C842 2.007 . S
C8760 C6493 1.986 . S
C8770 C6391 2.170 . S
C8765 C882 2.046 . S
C8780 C6469 2.171 . S
C8775 C922 2.048 . S
C8790 C5128 1.989 . S
C8785 C962 1.940 . S
C8800 C5182 2.177 . S
C8795 C1002 2.231 . S
C8810 C5221 1.987 . S
C8805 C1042 1.939 . S
C8815 C1082 2.232 . S
C8820 C5104 2.179 . S
C8825 C1122 1.940 . S
C8830 C5362 1.989 . S
C8840 C5260 2.177 . S
C8835 C1162 2.231 . S
C8845 C1202 1.939 . S
C8850 C5299 1.987 . S
C8860 C5338 2.176 . S
C8855 C1242 2.231 . S
C8865 C1282 1.940 . S
C8870 C4909 1.987 . S
C8880 C4792 2.177 . S
C8875 C1322 2.232 . S
C8885 C1362 1.941 . S
C8890 C4816 1.991 . S
C8900 C4870 2.183 . S
C8895 C1402 2.236 . S
C8910 C4987 1.987 . S
C8905 C1442 1.939 . S
C8915 C1482 2.235 . S
C8920 C5026 2.181 . S
C8930 C5050 1.991 . S
C8925 C1522 1.941 . S
C8940 C4948 2.176 . S
C8935 C1562 2.230 . S
C8950 C5494 1.986 . S
C8945 C1602 1.939 . S
C8960 C7522 1.985 . S
C8955 C1642 1.939 . S
C8970 C5416 2.181 . S
C8965 C1682 2.234 . S
C8975 C1722 1.940 . S
C8980 C7546 1.989 . S
C8985 C1762 2.230 . S
C8990 C7483 2.176 . S
C9000 C7429 1.989 . S
C8995 C1802 1.940 . S
C9010 C7327 2.181 . S
C9005 C1842 2.236 . S
C9020 C7405 2.173 . S
C9015 C1882 2.229 . S
C9025 C1922 2.005 . S
C9030 C6079 1.985 . S
C9040 C6103 2.170 . S
C9035 C1962 2.051 . S
C9045 C2002 2.005 . S
C9050 C6157 1.984 . S
C9060 C6040 2.173 . S
C9055 C2042 2.050 . S
C9065 C2082 2.005 . S
C9070 C6313 1.985 . S
C9075 C2122 2.049 . S
C9080 C6196 2.173 . S
C9085 C2162 2.005 . S
C9090 C6235 1.985 . S
C9095 C2202 2.051 . S
C9100 C6259 2.172 . S
C9105 C2242 2.004 . S
C9110 C5845 1.983 . S
C9120 C5713 2.171 . S
C9115 C2282 2.051 . S
C9130 C5767 1.985 . S
C9125 C2322 2.005 . S
C9135 C2362 2.045 . S
C9140 C5806 2.169 . S
C9145 C2402 2.005 . S
C9150 C5923 1.983 . S
C9155 C2442 2.048 . S
C9160 C5962 2.171 . S
C9165 C2482 2.005 . S
C9170 C6001 1.985 . S
C9175 C2522 2.051 . S
C9180 C5869 2.171 . S
C9190 C6430 1.983 . S
C9185 C2562 2.005 . S
C9200 C4714 1.984 . S
C9195 C2602 2.004 . S
C9210 C6352 2.173 . S
C9205 C2642 2.050 . S
C9220 C4738 1.986 . S
C9215 C2682 2.007 . S
C9230 C4675 2.171 . S
C9225 C2722 2.048 . S
C9240 C4621 1.986 . S
C9235 C2762 2.007 . S
C9245 C2802 2.050 . S
C9250 C4519 2.172 . S
C9260 C4597 2.171 . S
C9255 C2842 2.048 . S
C9265 C2882 1.940 . S
C9270 C7000 1.989 . S
C9275 C2922 2.232 . S
C9280 C7054 2.178 . S
C9290 C7093 1.987 . S
C9285 C2962 1.939 . S
C9295 C3002 2.231 . S
C9300 C6976 2.177 . S
C9310 C7234 1.989 . S
C9305 C3042 1.940 . S
C9315 C3082 2.232 . S
C9320 C7132 2.178 . S
C9325 C3122 1.939 . S
C9330 C7171 1.987 . S
C9340 C7210 2.178 . S
C9335 C3162 2.232 . S
C9350 C6781 1.987 . S
C9345 C3202 1.940 . S
C9360 C6664 2.176 . S
C9355 C3242 2.231 . S
C9370 C6688 1.991 . S
C9365 C3282 1.940 . S
C9380 C6742 2.180 . S
C9375 C3322 2.234 . S
C9385 C3362 1.940 . S
C9390 C6859 1.987 . S
C9400 C6898 2.182 . S
C9395 C3402 2.235 . S
C9405 C3442 1.941 . S
C9410 C6922 1.991 . S
C9415 C3482 2.232 . S
C9420 C6820 2.179 . S
C9425 C3522 1.939 . S
C9430 C7366 1.986 . S
C9435 C3562 1.939 . S
C9440 C5650 1.986 . S
C9445 C3602 2.235 . S
C9450 C7288 2.180 . S
C9460 C5674 1.989 . S
C9455 C3642 1.940 . S
C9465 C3682 2.230 . S
C9470 C5611 2.176 . S
C9475 C3722 1.941 . S
C9480 C5557 1.989 . S
C9485 C3762 2.236 . S
C9490 C5455 2.183 . S
C9500 C5533 2.176 . S
C9495 C3802 2.230 . S
C9505 C21 1.878 . S
C9510 C3856 1.862 . S
C9515 C61 2.181 . S
C9520 C3880 2.321 . S
C9525 C101 1.874 . S
C9530 C3919 1.861 . S
C9540 C3958 2.318 . S
C9535 C141 2.177 . S
C9550 C4012 1.861 . S
C9545 C181 1.878 . S
C9555 C221 2.177 . S
C9560 C4036 2.318 . S
C9565 C261 1.874 . S
C9570 C4075 1.861 . S
C9575 C301 2.180 . S
C9580 C4114 2.321 . S
C9590 C4153 1.860 . S
C9585 C341 1.875 . S
C9600 C4192 2.321 . S
C9595 C381 2.180 . S
C9605 C421 1.876 . S
C9610 C4246 1.860 . S
C9620 C4270 2.320 . S
C9615 C461 2.178 . S
C9625 C501 1.875 . S
C9630 C4309 1.861 . S
C9635 C541 2.178 . S
C9640 C4348 2.320 . S
C9645 C581 1.877 . S
C9650 C4402 1.860 . S
C9655 C621 2.181 . S
C9660 C4426 2.323 . S
C9665 C661 1.875 . S
C9670 C4465 1.861 . S
C9675 C701 1.875 . S
C9680 C4504 1.860 . S
C9690 C4543 2.318 . S
C9685 C741 2.177 . S
C9700 C4582 1.865 . S
C9695 C781 1.880 . S
C9710 C4636 2.317 . S
C9705 C821 2.177 . S
C9720 C4660 1.864 . S
C9715 C861 1.880 . S
C9725 C901 2.178 . S
C9730 C4699 2.321 . S
C9740 C4753 2.317 . S
C9735 C941 2.177 . S
C9745 C981 1.799 . S
C9750 C4777 1.858 . S
C9755 C1021 2.379 . S
C9760 C4831 2.306 . S
C9765 C1061 1.798 . S
C9770 C4855 1.857 . S
C9780 C4894 2.304 . S
C9775 C1101 2.381 . S
C9785 C1141 1.800 . S
C9790 C4933 1.856 . S
C9800 C4972 2.301 . S
C9795 C1181 2.380 . S
C9805 C1221 1.798 . S
C9810 C5011 1.857 . S
C9815 C1261 2.379 . S
C9820 C5065 2.304 . S
C9830 C5089 1.857 . S
C9825 C1301 1.800 . S
C9835 C1341 2.379 . S
C9840 C5143 2.304 . S
C9850 C5167 1.860 . S
C9845 C1381 1.803 . S
C9855 C1421 2.384 . S
C9860 C5206 2.305 . S
C9870 C5245 1.857 . S
C9865 C1461 1.798 . S
C9880 C5284 2.307 . S
C9875 C1501 2.384 . S
C9890 C5323 1.862 . S
C9885 C1541 1.801 . S
C9895 C1581 2.379 . S
C9900 C5377 2.304 . S
C9905 C1621 1.799 . S
C9910 C5401 1.857 . S
C9915 C1661 1.799 . S
C9920 C5440 1.857 . S
C9925 C1701 2.383 . S
C9930 C5479 2.306 . S
C9935 C1741 1.803 . S
C9940 C5518 1.859 . S
C9945 C1781 2.377 . S
C9950 C5572 2.301 . S
C9960 C5596 1.859 . S
C9955 C1821 1.803 . S
C9965 C1861 2.382 . S
C9970 C5635 2.304 . S
C9980 C5689 2.303 . S
C9975 C1901 2.377 . S
C9985 C1941 1.878 . S
C9990 C5728 1.862 . S
C10000 C5752 2.321 . S
C9995 C1981 2.180 . S
C10010 C5791 1.861 . S
C10005 C2021 1.874 . S
C10020 C5830 2.318 . S
C10015 C2061 2.177 . S
C10025 C2101 1.878 . S
C10030 C5884 1.861 . S
C10035 C2141 2.178 . S
C10040 C5908 2.321 . S
C10050 C5947 1.860 . S
C10045 C2181 1.874 . S
C10060 C5986 2.322 . S
C10055 C2221 2.181 . S
C10065 C2261 1.875 . S
C10070 C6025 1.861 . S
C10075 C2301 2.180 . S
C10080 C6064 2.321 . S
C10085 C2341 1.876 . S
C10090 C6118 1.861 . S
C10095 C2381 2.177 . S
C10100 C6142 2.318 . S
C10105 C2421 1.875 . S
C10110 C6181 1.862 . S
C10120 C6220 2.318 . S
C10115 C2461 2.177 . S
C10130 C6274 1.861 . S
C10125 C2501 1.876 . S
C10140 C6298 2.321 . S
C10135 C2541 2.180 . S
C10150 C6337 1.861 . S
C10145 C2581 1.875 . S
C10155 C2621 1.875 . S
C10160 C6376 1.861 . S
C10165 C2661 2.178 . S
C10170 C6415 2.321 . S
C10180 C6454 1.865 . S
C10175 C2701 1.879 . S
C10185 C2741 2.177 . S
C10190 C6508 2.317 . S
C10200 C6532 1.865 . S
C10195 C2781 1.879 . S
C10210 C6571 2.318 . S
C10205 C2821 2.177 . S
C10220 C6625 2.317 . S
C10215 C2861 2.177 . S
C10225 C2901 1.800 . S
C10230 C6649 1.857 . S
C10235 C2941 2.380 . S
C10240 C6703 2.307 . S
C10245 C2981 1.797 . S
C10250 C6727 1.857 . S
C10255 C3021 2.381 . S
C10260 C6766 2.304 . S
C10270 C6805 1.857 . S
C10265 C3061 1.799 . S
C10280 C6844 2.301 . S
C10275 C3101 2.380 . S
C10290 C6883 1.857 . S
C10285 C3141 1.797 . S
C10295 C3181 2.379 . S
C10300 C6937 2.307 . S
C10305 C3221 1.799 . S
C10310 C6961 1.857 . S
C10320 C7015 2.304 . S
C10315 C3261 2.379 . S
C10330 C7039 1.860 . S
C10325 C3301 1.804 . S
C10340 C7078 2.307 . S
C10335 C3341 2.384 . S
C10350 C7117 1.858 . S
C10345 C3381 1.797 . S
C10360 C7156 2.305 . S
C10355 C3421 2.384 . S
C10370 C7195 1.860 . S
C10365 C3461 1.804 . S
C10380 C7249 2.306 . S
C10375 C3501 2.379 . S
C10390 C7273 1.857 . S
C10385 C3541 1.797 . S
C10400 C7312 1.857 . S
C10395 C3581 1.797 . S
C10410 C7351 2.306 . S
C10405 C3621 2.383 . S
C10415 C3661 1.801 . S
C10420 C7390 1.860 . S
C10430 C7444 2.303 . S
C10425 C3701 2.377 . S
C10435 C3741 1.801 . S
C10440 C7468 1.860 . S
C10450 C7507 2.306 . S
C10445 C3781 2.383 . S
C10460 C7561 2.301 . S
C10455 C3821 2.377 . S
