# Generated by pormake.
# Topology nom, (4,4)-cn, num edge types: 1
# Building blocks:
#     Node 0, Type 0, BuildingBlock: NAWXER_clean_linker_0, # of connection points: 4
#     Node 1, Type 0, BuildingBlock: NAWXER_clean_linker_0, # of connection points: 4
#     Node 2, Type 0, BuildingBlock: NAWXER_clean_linker_0, # of connection points: 4
#     Node 3, Type 0, BuildingBlock: NAWXER_clean_linker_0, # of connection points: 4
#     Node 4, Type 0, BuildingBlock: NAWXER_clean_linker_0, # of connection points: 4
#     Node 5, Type 0, BuildingBlock: NAWXER_clean_linker_0, # of connection points: 4
#     Node 6, Type 1, BuildingBlock: QUQFOY_clean_sbu_3, # of connection points: 4
#     Node 7, Type 1, BuildingBlock: QUQFOY_clean_sbu_3, # of connection points: 4
#     Node 8, Type 1, BuildingBlock: QUQFOY_clean_sbu_3, # of connection points: 4
#     Node 9, Type 1, BuildingBlock: QUQFOY_clean_sbu_3, # of connection points: 4
#     Node 10, Type 1, BuildingBlock: QUQFOY_clean_sbu_3, # of connection points: 4
#     Node 11, Type 1, BuildingBlock: QUQFOY_clean_sbu_3, # of connection points: 4
#     Edge 12, Type (0, 1), BuildingBlock: AJUNOK_clean_linker_0, # of connection points: 2
#     Edge 13, Type (0, 1), BuildingBlock: AJUNOK_clean_linker_0, # of connection points: 2
#     Edge 14, Type (0, 1), BuildingBlock: AJUNOK_clean_linker_0, # of connection points: 2
#     Edge 15, Type (0, 1), BuildingBlock: AJUNOK_clean_linker_0, # of connection points: 2
#     Edge 16, Type (0, 1), BuildingBlock: AJUNOK_clean_linker_0, # of connection points: 2
#     Edge 17, Type (0, 1), BuildingBlock: AJUNOK_clean_linker_0, # of connection points: 2
#     Edge 18, Type (0, 1), BuildingBlock: AJUNOK_clean_linker_0, # of connection points: 2
#     Edge 19, Type (0, 1), BuildingBlock: AJUNOK_clean_linker_0, # of connection points: 2
#     Edge 20, Type (0, 1), BuildingBlock: AJUNOK_clean_linker_0, # of connection points: 2
#     Edge 21, Type (0, 1), BuildingBlock: AJUNOK_clean_linker_0, # of connection points: 2
#     Edge 22, Type (0, 1), BuildingBlock: AJUNOK_clean_linker_0, # of connection points: 2
#     Edge 23, Type (0, 1), BuildingBlock: AJUNOK_clean_linker_0, # of connection points: 2
#     Edge 24, Type (0, 1), BuildingBlock: AJUNOK_clean_linker_0, # of connection points: 2
#     Edge 25, Type (0, 1), BuildingBlock: AJUNOK_clean_linker_0, # of connection points: 2
#     Edge 26, Type (0, 1), BuildingBlock: AJUNOK_clean_linker_0, # of connection points: 2
#     Edge 27, Type (0, 1), BuildingBlock: AJUNOK_clean_linker_0, # of connection points: 2
#     Edge 28, Type (0, 1), BuildingBlock: AJUNOK_clean_linker_0, # of connection points: 2
#     Edge 29, Type (0, 1), BuildingBlock: AJUNOK_clean_linker_0, # of connection points: 2
#     Edge 30, Type (0, 1), BuildingBlock: AJUNOK_clean_linker_0, # of connection points: 2
#     Edge 31, Type (0, 1), BuildingBlock: AJUNOK_clean_linker_0, # of connection points: 2
#     Edge 32, Type (0, 1), BuildingBlock: AJUNOK_clean_linker_0, # of connection points: 2
#     Edge 33, Type (0, 1), BuildingBlock: AJUNOK_clean_linker_0, # of connection points: 2
#     Edge 34, Type (0, 1), BuildingBlock: AJUNOK_clean_linker_0, # of connection points: 2
#     Edge 35, Type (0, 1), BuildingBlock: AJUNOK_clean_linker_0, # of connection points: 2
# Relax obj value: 0.007
# Max RMSD: 0.111
# Mean RMSD: 0.075
data_MOF--net-nom--node1-QUQFOY_clean_sbu_3--node2-NAWXER_clean_linker_0--edge1-AJUNOK_clean_linker_0
_symmetry_space_group_name_H-M    P1
_symmetry_Int_Tables_number       1
_symmetry_cell_setting            triclinic
loop_
_symmetry_equiv_pos_as_xyz
'x, y, z'
_cell_length_a     41.358444
_cell_length_b     42.428221
_cell_length_c     45.739673
_cell_angle_alpha  89.714688
_cell_angle_beta   90.193758
_cell_angle_gamma 119.98824
loop_
_atom_site_label
_atom_site_type_symbol
_atom_site_fract_x
_atom_site_fract_y
_atom_site_fract_z
_atom_type_partial_charge
C0 C 0.86894 0.48204 0.33369 0.0
C1 C 0.85266 0.45708 0.35674 0.0
C2 C 0.90369 0.49027 0.32275 0.0
C3 C 0.9227 0.47334 0.33437 0.0
C4 C 0.87149 0.43994 0.36833 0.0
C5 C 0.90639 0.44819 0.35732 0.0
C6 C 0.96145 0.48569 0.32516 0.0
C7 C 0.89072 0.43391 0.24533 0.0
C8 C 0.89987 0.45661 0.2206 0.0
C9 C 0.91424 0.44506 0.26983 0.0
C10 C 0.9468 0.47949 0.27026 0.0
C11 C 0.93285 0.49056 0.22091 0.0
C12 C 0.95589 0.50189 0.24541 0.0
C13 C 0.97282 0.49225 0.29556 0.0
C14 C 0.13886 0.57595 0.29174 0.0
C15 C 0.14317 0.60858 0.27999 0.0
C16 C 0.10427 0.5494 0.30289 0.0
C17 C 0.07382 0.5553 0.3022 0.0
C18 C 0.11288 0.61479 0.28075 0.0
C19 C 0.07842 0.58817 0.2913 0.0
C20 C 0.03618 0.52709 0.31092 0.0
C21 C 0.09995 0.58155 0.39287 0.0
C22 C 0.10242 0.55686 0.41202 0.0
C23 C 0.07491 0.56894 0.36946 0.0
C24 C 0.05209 0.53142 0.36471 0.0
C25 C 0.07897 0.51932 0.40759 0.0
C26 C 0.0539 0.50673 0.38417 0.0
C27 C 0.02525 0.51773 0.34022 0.0
H28 H 0.85503 0.49569 0.32446 0.0
H29 H 0.91623 0.51086 0.30585 0.0
H30 H 0.8598 0.42109 0.38649 0.0
H31 H 0.92097 0.43549 0.36706 0.0
H32 H 0.86526 0.40777 0.24591 0.0
H33 H 0.90701 0.42668 0.28827 0.0
H34 H 0.941 0.50848 0.20206 0.0
H35 H 0.9809 0.52843 0.24489 0.0
H36 H 0.16188 0.57062 0.29161 0.0
H37 H 0.101 0.52403 0.31124 0.0
H38 H 0.11571 0.64019 0.27292 0.0
H39 H 0.05518 0.5932 0.29091 0.0
H40 H 0.11751 0.61061 0.39596 0.0
H41 H 0.0731 0.58852 0.35529 0.0
H42 H 0.07969 0.49973 0.42246 0.0
H43 H 0.03605 0.47769 0.38115 0.0
N44 N 0.98818 0.49766 0.34635 0.0
N45 N 0.00974 0.51346 0.28978 0.0
C46 C 0.38969 0.87242 0.49986 0.0
C47 C 0.4044 0.85683 0.51904 0.0
C48 C 0.41235 0.90749 0.4889 0.0
C49 C 0.45018 0.92753 0.49681 0.0
C50 C 0.44233 0.87666 0.52674 0.0
C51 C 0.46496 0.91198 0.51597 0.0
C52 C 0.47329 0.96566 0.48701 0.0
C53 C 0.45064 0.89726 0.40635 0.0
C54 C 0.43296 0.90495 0.38336 0.0
C55 C 0.46419 0.92018 0.43067 0.0
C56 C 0.45974 0.95087 0.43265 0.0
C57 C 0.42947 0.93618 0.38508 0.0
C58 C 0.44252 0.95872 0.40948 0.0
C59 C 0.47511 0.97657 0.45751 0.0
C60 C 0.57292 0.13977 0.46161 0.0
C61 C 0.55003 0.14992 0.44616 0.0
C62 C 0.55924 0.10358 0.47009 0.0
C63 C 0.52247 0.07701 0.46325 0.0
C64 C 0.51329 0.12309 0.43925 0.0
C65 C 0.49983 0.08692 0.44741 0.0
C66 C 0.50708 0.03872 0.4723 0.0
C67 C 0.52075 0.10263 0.55394 0.0
C68 C 0.54687 0.1025 0.57355 0.0
C69 C 0.50767 0.0785 0.53044 0.0
C70 C 0.52062 0.05393 0.5261 0.0
C71 C 0.55924 0.07741 0.56952 0.0
C72 C 0.54604 0.05319 0.54605 0.0
C73 C 0.5065 0.02789 0.50159 0.0
H74 H 0.36059 0.85747 0.49342 0.0
H75 H 0.4001 0.91924 0.4747 0.0
H76 H 0.45418 0.86511 0.54153 0.0
H77 H 0.49397 0.9272 0.52261 0.0
H78 H 0.45407 0.8736 0.40548 0.0
H79 H 0.47869 0.91417 0.4476 0.0
H80 H 0.41719 0.9436 0.3673 0.0
H81 H 0.43929 0.98253 0.41013 0.0
H82 H 0.60139 0.15983 0.46713 0.0
H83 H 0.57733 0.09635 0.48195 0.0
H84 H 0.49459 0.13013 0.42815 0.0
H85 H 0.47132 0.06679 0.44201 0.0
H86 H 0.51064 0.12157 0.55671 0.0
H87 H 0.48722 0.07884 0.51579 0.0
H88 H 0.57877 0.07627 0.58471 0.0
H89 H 0.55588 0.03402 0.54335 0.0
N90 N 0.48957 0.99175 0.50786 0.0
N91 N 0.49156 0.0127 0.45144 0.0
C92 C 0.56209 0.45707 0.59052 0.0
C93 C 0.53815 0.44112 0.5665 0.0
C94 C 0.55081 0.46962 0.61439 0.0
C95 C 0.515 0.46571 0.61503 0.0
C96 C 0.5028 0.43824 0.56678 0.0
C97 C 0.4913 0.45025 0.59084 0.0
C98 C 0.50259 0.47927 0.63997 0.0
C99 C 0.5177 0.3909 0.67846 0.0
C100 C 0.54893 0.40316 0.69679 0.0
C101 C 0.50537 0.41457 0.66953 0.0
C102 C 0.52417 0.45101 0.67866 0.0
C103 C 0.56771 0.43957 0.70607 0.0
C104 C 0.55508 0.46325 0.69736 0.0
C105 C 0.51027 0.47552 0.6695 0.0
C106 C 0.41649 0.51723 0.73903 0.0
C107 C 0.44268 0.54324 0.75827 0.0
C108 C 0.42836 0.50591 0.71474 0.0
C109 C 0.46662 0.52052 0.70928 0.0
C110 C 0.48094 0.55764 0.75285 0.0
C111 C 0.49279 0.54618 0.72863 0.0
C112 C 0.47953 0.50761 0.68448 0.0
C113 C 0.41998 0.56392 0.64761 0.0
C114 C 0.38986 0.54082 0.62954 0.0
C115 C 0.44659 0.5543 0.65584 0.0
C116 C 0.4432 0.52136 0.6462 0.0
C117 C 0.38757 0.50878 0.61898 0.0
C118 C 0.41389 0.49916 0.62724 0.0
C119 C 0.46955 0.50908 0.65514 0.0
H120 H 0.58962 0.45993 0.59084 0.0
H121 H 0.57034 0.48278 0.63213 0.0
H122 H 0.48419 0.42724 0.54821 0.0
H123 H 0.4638 0.44747 0.59049 0.0
H124 H 0.50304 0.36305 0.67078 0.0
H125 H 0.481 0.40437 0.65557 0.0
H126 H 0.59189 0.44953 0.72022 0.0
H127 H 0.56967 0.49118 0.70486 0.0
H128 H 0.38684 0.50559 0.74287 0.0
H129 H 0.40769 0.48542 0.70043 0.0
H130 H 0.50166 0.57713 0.76772 0.0
H131 H 0.52242 0.55731 0.725 0.0
H132 H 0.42257 0.58903 0.65572 0.0
H133 H 0.46959 0.57245 0.66978 0.0
H134 H 0.36526 0.49103 0.60433 0.0
H135 H 0.41091 0.47386 0.61918 0.0
N136 N 0.48196 0.49531 0.63408 0.0
N137 N 0.49925 0.49059 0.69058 0.0
C138 C 0.87582 0.39778 0.80094 0.0
C139 C 0.85769 0.40449 0.77783 0.0
C140 C 0.90924 0.42573 0.81203 0.0
C141 C 0.9249 0.46118 0.80061 0.0
C142 C 0.87288 0.44 0.76665 0.0
C143 C 0.90652 0.46812 0.77778 0.0
C144 C 0.96238 0.48951 0.81039 0.0
C145 C 0.88737 0.46658 0.88705 0.0
C146 C 0.8955 0.45197 0.91176 0.0
C147 C 0.91255 0.4806 0.8638 0.0
C148 C 0.94609 0.47972 0.86462 0.0
C149 C 0.92956 0.45219 0.91295 0.0
C150 C 0.95452 0.46582 0.8896 0.0
C151 C 0.97311 0.49432 0.8401 0.0
C152 C 0.13988 0.58404 0.84412 0.0
C153 C 0.14686 0.55715 0.85568 0.0
C154 C 0.10429 0.57458 0.83358 0.0
C155 C 0.07535 0.53828 0.83492 0.0
C156 C 0.11774 0.52081 0.8563 0.0
C157 C 0.08233 0.51159 0.84636 0.0
C158 C 0.03701 0.52698 0.82576 0.0
C159 C 0.1037 0.54634 0.74218 0.0
C160 C 0.09676 0.56602 0.72076 0.0
C161 C 0.08157 0.53395 0.76729 0.0
C162 C 0.05283 0.54198 0.77174 0.0
C163 C 0.06842 0.57444 0.72531 0.0
C164 C 0.04665 0.56251 0.75059 0.0
C165 C 0.02622 0.52584 0.7963 0.0
H166 H 0.86442 0.3707 0.81013 0.0
H167 H 0.92341 0.41929 0.82896 0.0
H168 H 0.85932 0.44571 0.74876 0.0
H169 H 0.91844 0.49511 0.76834 0.0
H170 H 0.86147 0.46705 0.88565 0.0
H171 H 0.90584 0.4923 0.84529 0.0
H172 H 0.93714 0.44219 0.9321 0.0
H173 H 0.9804 0.46528 0.89103 0.0
H174 H 0.16158 0.61237 0.84383 0.0
H175 H 0.09915 0.59553 0.82502 0.0
H176 H 0.1223 0.49938 0.8646 0.0
H177 H 0.06026 0.48338 0.84744 0.0
H178 H 0.12502 0.53901 0.73879 0.0
H179 H 0.08594 0.51674 0.78241 0.0
H180 H 0.06259 0.58952 0.70897 0.0
H181 H 0.02434 0.56861 0.75333 0.0
N182 N 0.98921 0.50655 0.78972 0.0
N183 N 0.01008 0.51193 0.84653 0.0
C184 C 0.48476 0.87847 0.96314 0.0
C185 C 0.45556 0.86171 0.94282 0.0
C186 C 0.49667 0.91382 0.97257 0.0
C187 C 0.47951 0.93294 0.96186 0.0
C188 C 0.43903 0.88117 0.93152 0.0
C189 C 0.45116 0.9167 0.94082 0.0
C190 C 0.49225 0.97039 0.97177 0.0
C191 C 0.4349 0.89739 0.04836 0.0
C192 C 0.45653 0.90488 0.07388 0.0
C193 C 0.4476 0.92173 0.02483 0.0
C194 C 0.4828 0.95349 0.02593 0.0
C195 C 0.49156 0.93678 0.07505 0.0
C196 C 0.50452 0.96083 0.05135 0.0
C197 C 0.49645 0.98022 0.00154 0.0
C198 C 0.56713 0.14518 -0.00342 0.0
C199 C 0.59358 0.1528 0.01885 0.0
C200 C 0.54433 0.10946 0.98682 0.0
C201 C 0.54847 0.08099 -0.00144 0.0
C202 C 0.59548 0.12383 0.03204 0.0
C203 C 0.57351 0.08848 0.02182 0.0
C204 C 0.52686 0.04304 0.98785 0.0
C205 C 0.58296 0.10966 0.90608 0.0
C206 C 0.55815 0.10332 0.88288 0.0
C207 C 0.57098 0.08729 0.9309 0.0
C208 C 0.53371 0.05902 0.93321 0.0
C209 C 0.52109 0.07494 0.88505 0.0
C210 C 0.50896 0.05307 0.91003 0.0
C211 C 0.52085 0.033 0.95797 0.0
H212 H 0.49792 0.86397 0.9721 0.0
H213 H 0.51929 0.92623 0.98825 0.0
H214 H 0.41679 0.86889 0.91552 0.0
H215 H 0.43803 0.93128 0.93196 0.0
H216 H 0.40808 0.87272 0.04654 0.0
H217 H 0.42961 0.91585 0.00598 0.0
H218 H 0.50874 0.94346 0.0945 0.0
H219 H 0.53159 0.98528 0.05292 0.0
H220 H 0.5646 0.1669 0.9863 0.0
H221 H 0.52397 0.10429 0.96986 0.0
H222 H 0.61432 0.12852 0.05012 0.0
H223 H 0.57667 0.06698 0.03187 0.0
H224 H 0.61187 0.13106 0.90451 0.0
H225 H 0.59103 0.09158 0.94792 0.0
H226 H 0.50165 0.06949 0.86725 0.0
H227 H 0.48027 0.03106 0.91109 0.0
N228 N 0.50387 -0.00296 0.95122 0.0
N229 N 0.51402 0.01611 0.00829 0.0
C230 C 0.47345 0.61113 0.17966 0.0
C231 C 0.44201 0.59796 0.19777 0.0
C232 C 0.48601 0.588 0.17014 0.0
C233 C 0.46725 0.55117 0.17841 0.0
C234 C 0.42351 0.56123 0.2065 0.0
C235 C 0.43628 0.53803 0.19705 0.0
C236 C 0.48191 0.52748 0.16899 0.0
C237 C 0.43175 0.54284 0.08584 0.0
C238 C 0.45888 0.5674 0.06618 0.0
C239 C 0.44221 0.53009 0.11028 0.0
C240 C 0.47991 0.54134 0.11527 0.0
C241 C 0.49675 0.57964 0.07201 0.0
C242 C 0.50708 0.56621 0.09602 0.0
C243 C 0.49105 0.52589 0.13964 0.0
C244 C 0.57163 0.43943 0.14393 0.0
C245 C 0.60215 0.46356 0.12659 0.0
C246 C 0.54514 0.44884 0.1528 0.0
C247 C 0.54923 0.48263 0.14462 0.0
C248 C 0.60493 0.49638 0.11732 0.0
C249 C 0.57889 0.50585 0.12632 0.0
C250 C 0.52311 0.49478 0.1541 0.0
C251 C 0.57261 0.47808 0.2371 0.0
C252 C 0.54613 0.45634 0.25816 0.0
C253 C 0.56183 0.49044 0.21261 0.0
C254 C 0.52414 0.48019 0.20832 0.0
C255 C 0.50865 0.44663 0.25425 0.0
C256 C 0.49772 0.45835 0.22946 0.0
C257 C 0.51229 0.49461 0.18349 0.0
H258 H 0.48817 0.63933 0.17265 0.0
H259 H 0.51074 0.59907 0.15656 0.0
H260 H 0.39945 0.55063 0.22078 0.0
H261 H 0.4219 0.50985 0.20411 0.0
H262 H 0.40234 0.53276 0.08196 0.0
H263 H 0.42081 0.51064 0.1248 0.0
H264 H 0.51847 0.59954 0.05798 0.0
H265 H 0.53637 0.57543 0.0997 0.0
H266 H 0.56867 0.41372 0.151 0.0
H267 H 0.52183 0.43 0.1662 0.0
H268 H 0.62751 0.51494 0.10318 0.0
H269 H 0.58236 0.53181 0.11932 0.0
H270 H 0.60182 0.48651 0.24014 0.0
H271 H 0.58311 0.50865 0.19744 0.0
H272 H 0.48793 0.43023 0.2705 0.0
H273 H 0.46864 0.45068 0.22694 0.0
N274 N 0.49221 0.51119 0.18977 0.0
N275 N 0.51168 0.51011 0.13339 0.0
C276 C 0.71216 0.43604 0.40264 0.0
O277 O 0.71051 0.46378 0.4108 0.0
Cd278 Cd 0.65376 0.46114 0.42686 0.0
O279 O 0.68301 0.40474 0.40292 0.0
Cd280 Cd 0.61656 0.37582 0.41575 0.0
C281 C 0.60052 0.42551 0.3653 0.0
O282 O 0.62409 0.41077 0.45985 0.0
O283 O 0.56735 0.37529 0.44553 0.0
O284 O 0.62212 0.32655 0.43761 0.0
C285 C 0.58943 0.39701 0.46464 0.0
O286 O 0.61634 0.45198 0.38308 0.0
C287 C 0.59721 0.30154 0.42197 0.0
O288 O 0.5988 0.39521 0.37068 0.0
O289 O 0.58121 0.31108 0.40298 0.0
C290 C 0.27618 0.57119 0.58614 0.0
O291 O 0.24529 0.54451 0.57786 0.0
Cd292 Cd 0.19518 0.54858 0.5554 0.0
O293 O 0.28293 0.60375 0.58274 0.0
Cd294 Cd 0.24822 0.63332 0.56375 0.0
C295 C 0.17792 0.58941 0.61248 0.0
O296 O 0.22269 0.59619 0.51998 0.0
O297 O 0.20016 0.63074 0.5305 0.0
O298 O 0.30769 0.68276 0.54572 0.0
C299 C 0.20195 0.60895 0.51261 0.0
O300 O 0.16551 0.56223 0.59538 0.0
C301 C 0.30333 0.70816 0.55595 0.0
O302 O 0.20924 0.61793 0.6077 0.0
O303 O 0.27384 0.69858 0.57066 0.0
C304 C 0.71973 0.28242 0.73443 0.0
O305 O 0.71818 0.25313 0.72626 0.0
Cd306 Cd 0.66202 0.19981 0.71115 0.0
O307 O 0.69031 0.28495 0.73481 0.0
Cd308 Cd 0.62315 0.24739 0.72313 0.0
C309 C 0.61141 0.18409 0.77414 0.0
O310 O 0.63253 0.22194 0.67858 0.0
O311 O 0.57538 0.19912 0.69215 0.0
O312 O 0.62894 0.30478 0.70691 0.0
C313 C 0.59835 0.20051 0.6732 0.0
O314 O 0.62669 0.17288 0.756 0.0
C315 C 0.59959 0.30013 0.71956 0.0
O316 O 0.60867 0.21209 0.76857 0.0
O317 O 0.58134 0.27096 0.73424 0.0
C318 C 0.28783 0.57955 0.9015 0.0
O319 O 0.28668 0.55267 0.91475 0.0
Cd320 Cd 0.34253 0.55295 0.92876 0.0
O321 O 0.31868 0.60898 0.89804 0.0
Cd322 Cd 0.38465 0.63552 0.91333 0.0
C323 C 0.39296 0.58155 0.86436 0.0
O324 O 0.37665 0.60435 0.96005 0.0
O325 O 0.43207 0.6302 0.94158 0.0
O326 O 0.37713 0.68535 0.93004 0.0
C327 C 0.41077 0.61374 0.96299 0.0
O328 O 0.37479 0.55626 0.88291 0.0
C329 C 0.40635 0.71044 0.91806 0.0
O330 O 0.39945 0.61373 0.86912 0.0
O331 O 0.42608 0.70074 0.90356 0.0
C332 C 0.71673 0.43713 0.08072 0.0
O333 O 0.74605 0.4644 0.07079 0.0
Cd334 Cd 0.79858 0.46257 0.05177 0.0
O335 O 0.71246 0.40528 0.0796 0.0
Cd336 Cd 0.7487 0.37685 0.0621 0.0
C337 C 0.81385 0.42458 0.11325 0.0
O338 O 0.77498 0.41339 0.01789 0.0
O339 O 0.79767 0.37945 0.03095 0.0
O340 O 0.68907 0.32735 0.04462 0.0
C341 C 0.79615 0.40063 0.01211 0.0
O342 O 0.82373 0.45178 0.09632 0.0
C343 C 0.6949 0.30226 0.05359 0.0
O344 O 0.78631 0.39349 0.10687 0.0
O345 O 0.72488 0.31192 0.06773 0.0
C346 C 0.28244 0.72559 0.23432 0.0
O347 O 0.28202 0.7523 0.22207 0.0
Cd348 Cd 0.33802 0.80693 0.20975 0.0
O349 O 0.31292 0.72551 0.23806 0.0
Cd350 Cd 0.37993 0.76166 0.22525 0.0
C351 C 0.38582 0.8222 0.27546 0.0
O352 O 0.37116 0.78649 0.18015 0.0
O353 O 0.42842 0.80867 0.19353 0.0
O354 O 0.36895 0.70278 0.20958 0.0
C355 C 0.40534 0.80799 0.17485 0.0
O356 O 0.36718 0.82977 0.25738 0.0
C357 C 0.39744 0.70481 0.2219 0.0
O358 O 0.39474 0.79821 0.26961 0.0
O359 O 0.41831 0.73377 0.23606 0.0
C360 C 0.21286 0.64762 0.28155 0.0
C361 C 0.17894 0.63632 0.26679 0.0
C362 C 0.2465 0.67602 0.27051 0.0
C363 C 0.24721 0.69432 0.24458 0.0
H364 H 0.21326 0.6352 0.3022 0.0
H365 H 0.27193 0.68448 0.28285 0.0
S366 S 0.16701 0.67175 0.19559 0.0
N367 N 0.14891 0.64282 0.22312 0.0
N368 N 0.21191 0.69709 0.20307 0.0
C369 C 0.21378 0.68242 0.22907 0.0
C370 C 0.17971 0.65317 0.24 0.0
C371 C 0.58273 0.21579 0.45972 0.0
C372 C 0.56374 0.18866 0.43859 0.0
C373 C 0.59404 0.25227 0.45387 0.0
C374 C 0.58645 0.26303 0.42676 0.0
H375 H 0.58809 0.20868 0.48127 0.0
H376 H 0.608 0.27203 0.47105 0.0
S377 S 0.54092 0.20327 0.36295 0.0
N378 N 0.54064 0.17557 0.38857 0.0
N379 N 0.5609 0.24408 0.3779 0.0
C380 C 0.56828 0.2364 0.40516 0.0
C381 C 0.55716 0.19925 0.41099 0.0
C382 C 0.37032 0.58363 0.60893 0.0
C383 C 0.36061 0.54967 0.62137 0.0
C384 C 0.34278 0.59082 0.59824 0.0
C385 C 0.30467 0.56419 0.59951 0.0
H386 H 0.3994 0.60431 0.60652 0.0
H387 H 0.35152 0.61697 0.58807 0.0
S388 S 0.26473 0.47286 0.63397 0.0
N389 N 0.31033 0.49072 0.6373 0.0
N390 N 0.25864 0.50387 0.6169 0.0
C391 C 0.29464 0.53075 0.61315 0.0
C392 C 0.32259 0.52359 0.62417 0.0
C393 C 0.79063 0.37595 0.76315 0.0
C394 C 0.82347 0.37403 0.7651 0.0
C395 C 0.75735 0.34633 0.75293 0.0
C396 C 0.75578 0.31378 0.74409 0.0
H397 H 0.79043 0.40018 0.77026 0.0
H398 H 0.73261 0.34894 0.7523 0.0
S399 S 0.83558 0.29667 0.74281 0.0
N400 N 0.85339 0.3383 0.75582 0.0
N401 N 0.79105 0.28251 0.73665 0.0
C402 C 0.78893 0.31208 0.74518 0.0
C403 C 0.8227 0.34221 0.75568 0.0
C404 C 0.46688 0.81297 0.92372 0.0
C405 C 0.44182 0.82354 0.93424 0.0
C406 C 0.4549 0.77644 0.9175 0.0
C407 C 0.41758 0.74916 0.92207 0.0
H408 H 0.49603 0.83307 0.92058 0.0
H409 H 0.47529 0.76943 0.90992 0.0
S410 S 0.34087 0.76316 0.94854 0.0
N411 N 0.37801 0.80429 0.94826 0.0
N412 N 0.35534 0.73558 0.93675 0.0
C413 C 0.3921 0.75959 0.932 0.0
C414 C 0.40426 0.79681 0.93803 0.0
C415 C 0.62208 0.42218 0.10413 0.0
C416 C 0.6315 0.45524 0.11792 0.0
C417 C 0.64988 0.416 0.09269 0.0
C418 C 0.68784 0.44284 0.09446 0.0
H419 H 0.59307 0.40156 0.10124 0.0
H420 H 0.64153 0.39059 0.08153 0.0
S421 S 0.72706 0.53153 0.13253 0.0
N422 N 0.68141 0.51314 0.13585 0.0
N423 N 0.7335 0.50195 0.11381 0.0
C424 C 0.69758 0.47522 0.10945 0.0
C425 C 0.66943 0.4813 0.12134 0.0
C426 C 0.38873 0.79231 0.52641 0.0
C427 C 0.37994 0.81988 0.53095 0.0
C428 C 0.36422 0.75641 0.5353 0.0
C429 C 0.33026 0.7469 0.54936 0.0
H430 H 0.41414 0.79831 0.51505 0.0
H431 H 0.37169 0.73586 0.5306 0.0
S432 S 0.29628 0.81032 0.56861 0.0
N433 N 0.33645 0.83616 0.5519 0.0
N434 N 0.29041 0.76886 0.5689 0.0
C435 C 0.32199 0.7747 0.55507 0.0
C436 C 0.3468 0.81114 0.54576 0.0
C437 C 0.59882 0.38643 0.69854 0.0
C438 C 0.56228 0.37796 0.7054 0.0
C439 C 0.61084 0.36132 0.70376 0.0
C440 C 0.58685 0.32701 0.71633 0.0
H441 H 0.61785 0.41215 0.68817 0.0
H442 H 0.63899 0.36872 0.69747 0.0
S443 S 0.4892 0.29316 0.74031 0.0
N444 N 0.50281 0.33405 0.72676 0.0
N445 N 0.5253 0.28684 0.73688 0.0
C446 C 0.55062 0.31885 0.72429 0.0
C447 C 0.53834 0.34431 0.7187 0.0
C448 C 0.18549 0.54986 0.89428 0.0
C449 C 0.18383 0.56621 0.86787 0.0
C450 C 0.21931 0.55465 0.90507 0.0
C451 C 0.25295 0.57659 0.89021 0.0
H452 H 0.1603 0.53275 0.9066 0.0
H453 H 0.21906 0.54102 0.92524 0.0
S454 S 0.26426 0.62594 0.82041 0.0
N455 N 0.21899 0.60521 0.82706 0.0
N456 N 0.28295 0.61542 0.84805 0.0
C457 C 0.25206 0.59414 0.8643 0.0
C458 C 0.21742 0.58873 0.85299 0.0
C459 C 0.6067 0.21535 0.03266 0.0
C460 C 0.61971 0.19081 0.02804 0.0
C461 C 0.6311 0.25132 0.04131 0.0
C462 C 0.66923 0.26383 0.04606 0.0
H463 H 0.57742 0.20666 0.02974 0.0
H464 H 0.62 0.26941 0.04442 0.0
S465 S 0.71797 0.21152 0.03459 0.0
N466 N 0.67387 0.18255 0.0268 0.0
N467 N 0.71925 0.24957 0.0442 0.0
C468 C 0.68264 0.23968 0.04145 0.0
C469 C 0.65801 0.20334 0.03215 0.0
C470 C 0.45376 0.65668 0.21944 0.0
C471 C 0.42866 0.62289 0.20691 0.0
C472 C 0.44298 0.68249 0.2253 0.0
C473 C 0.40683 0.67561 0.21849 0.0
H474 H 0.4822 0.66348 0.22421 0.0
H475 H 0.46355 0.70847 0.2343 0.0
S476 S 0.3301 0.59032 0.18679 0.0
N477 N 0.36579 0.58318 0.18898 0.0
N478 N 0.34527 0.63155 0.19994 0.0
C479 C 0.38107 0.64135 0.20686 0.0
C480 C 0.39203 0.615 0.20111 0.0
C481 C 0.81293 0.4804 0.37745 0.0
C482 C 0.81696 0.45061 0.36943 0.0
C483 C 0.77919 0.47535 0.38859 0.0
C484 C 0.74801 0.44027 0.39199 0.0
H485 H 0.83611 0.50791 0.37511 0.0
H486 H 0.77752 0.49926 0.39422 0.0
S487 S 0.74451 0.35317 0.37417 0.0
N488 N 0.7874 0.38492 0.36561 0.0
N489 N 0.72381 0.37506 0.38669 0.0
C490 C 0.7519 0.41015 0.38431 0.0
C491 C 0.78641 0.4154 0.37305 0.0
C492 C 0.12923 0.59656 0.45594 0.0
C493 C 0.12877 0.57033 0.43702 0.0
C494 C 0.15322 0.60909 0.48014 0.0
C495 C 0.1778 0.59598 0.48628 0.0
H496 H 0.11043 0.60703 0.4523 0.0
H497 H 0.1522 0.629 0.49425 0.0
S498 S 0.18899 0.52878 0.44212 0.0
N499 N 0.15604 0.53289 0.42506 0.0
N500 N 0.20109 0.5562 0.47057 0.0
C501 C 0.17807 0.57019 0.46714 0.0
C502 C 0.15354 0.55739 0.44254 0.0
C503 C 0.53528 0.13044 0.61741 0.0
C504 C 0.56071 0.12812 0.59847 0.0
C505 C 0.54771 0.15398 0.64145 0.0
C506 C 0.58606 0.17631 0.64731 0.0
H507 H 0.50551 0.11351 0.61385 0.0
H508 H 0.52704 0.15456 0.65556 0.0
S509 S 0.66395 0.1816 0.6032 0.0
N510 N 0.62582 0.15088 0.58638 0.0
N511 N 0.64941 0.19516 0.6315 0.0
C512 C 0.61179 0.17459 0.6282 0.0
C513 C 0.59906 0.15046 0.60383 0.0
C514 C 0.40461 0.52703 0.80386 0.0
C515 C 0.43004 0.55397 0.78473 0.0
C516 C 0.39296 0.5363 0.82949 0.0
C517 C 0.40601 0.57292 0.83692 0.0
H518 H 0.39406 0.49851 0.7992 0.0
H519 H 0.37345 0.51444 0.84353 0.0
S520 S 0.47214 0.65371 0.79327 0.0
N521 N 0.46734 0.61862 0.77429 0.0
N522 N 0.44553 0.63634 0.82246 0.0
C523 C 0.43122 0.60017 0.81769 0.0
C524 C 0.44325 0.59063 0.79165 0.0
C525 C 0.85313 0.45763 0.94767 0.0
C526 C 0.869 0.43751 0.93664 0.0
C527 C 0.8291 0.4452 0.97181 0.0
C528 C 0.82031 0.41236 0.98595 0.0
H529 H 0.85993 0.48356 0.93796 0.0
H530 H 0.818 0.46188 0.97982 0.0
S531 S 0.85159 0.34782 0.96387 0.0
N532 N 0.87187 0.38175 0.94026 0.0
N533 N 0.82746 0.35884 0.98609 0.0
C534 C 0.83533 0.39159 0.97477 0.0
C535 C 0.85949 0.40407 0.95002 0.0
C536 C 0.4665 0.87026 0.11411 0.0
C537 C 0.44262 0.87978 0.09942 0.0
C538 C 0.45426 0.84711 0.13854 0.0
C539 C 0.41756 0.8323 0.14901 0.0
H540 H 0.49485 0.88058 0.10656 0.0
H541 H 0.47362 0.84049 0.1491 0.0
S542 S 0.34472 0.85058 0.11962 0.0
N543 N 0.38116 0.87421 0.09822 0.0
N544 N 0.3578 0.82982 0.14351 0.0
C545 C 0.3934 0.84166 0.13461 0.0
C546 C 0.406 0.86558 0.10997 0.0
C547 C 0.55636 0.4615 0.31193 0.0
C548 C 0.55811 0.44617 0.28529 0.0
C549 C 0.56975 0.45423 0.33777 0.0
C550 C 0.58461 0.43076 0.33795 0.0
H551 H 0.5454 0.47995 0.31265 0.0
H552 H 0.56854 0.46719 0.35777 0.0
S553 S 0.59419 0.38299 0.27372 0.0
N554 N 0.57528 0.40633 0.26035 0.0
N555 N 0.59959 0.39169 0.30913 0.0
C556 C 0.58557 0.4145 0.31148 0.0
C557 C 0.5726 0.42252 0.28506 0.0
C558 C 0.44204 0.87004 0.34315 0.0
C559 C 0.41926 0.88135 0.3571 0.0
C560 C 0.43072 0.8501 0.31705 0.0
C561 C 0.39647 0.84124 0.30384 0.0
H562 H 0.46927 0.87753 0.35199 0.0
H563 H 0.44939 0.84258 0.30669 0.0
S564 S 0.32448 0.86001 0.33361 0.0
N565 N 0.3591 0.87862 0.35739 0.0
N566 N 0.33844 0.84231 0.30792 0.0
C567 C 0.3729 0.85124 0.31808 0.0
C568 C 0.38414 0.871 0.34481 0.0
C569 C 0.58663 0.45109 0.52926 0.0
C570 C 0.55065 0.42878 0.54077 0.0
C571 C 0.59898 0.44043 0.50476 0.0
C572 C 0.57568 0.40726 0.49062 0.0
H573 H 0.60528 0.47728 0.53899 0.0
H574 H 0.62683 0.45864 0.49657 0.0
S575 S 0.48002 0.33772 0.51329 0.0
N576 N 0.49271 0.37087 0.53723 0.0
N577 N 0.51554 0.35139 0.49058 0.0
C578 C 0.53976 0.38451 0.50199 0.0
C579 C 0.52734 0.39514 0.52719 0.0
C580 C 0.15598 0.59625 0.69181 0.0
C581 C 0.11687 0.57476 0.69261 0.0
C582 C 0.17554 0.6024 0.66544 0.0
C583 C 0.15662 0.58649 0.63921 0.0
H584 H 0.17151 0.60794 0.71177 0.0
H585 H 0.20573 0.61847 0.66584 0.0
S586 S 0.05414 0.52898 0.62976 0.0
N587 N 0.05981 0.53867 0.66498 0.0
N588 N 0.09649 0.54955 0.61553 0.0
C589 C 0.11744 0.56557 0.63971 0.0
C590 C 0.09757 0.55987 0.6664 0.0
C591 C 0.57114 0.10709 0.82951 0.0
C592 C 0.57137 0.12461 0.85554 0.0
C593 C 0.58412 0.12661 0.8033 0.0
C594 C 0.59706 0.16422 0.80208 0.0
H595 H 0.56131 0.07815 0.82953 0.0
H596 H 0.58378 0.11205 0.7838 0.0
S597 S 0.60265 0.22243 0.86442 0.0
N598 N 0.58541 0.18134 0.8788 0.0
N599 N 0.60906 0.21815 0.82935 0.0
C600 C 0.59688 0.18193 0.82798 0.0
C601 C 0.5843 0.1621 0.85478 0.0
C602 C 0.41934 0.58907 0.04122 0.0
C603 C 0.44755 0.57977 0.03954 0.0
C604 C 0.4076 0.60002 0.01633 0.0
C605 C 0.42409 0.60273 0.98894 0.0
H606 H 0.40631 0.58807 0.06197 0.0
H607 H 0.38572 0.6068 0.01861 0.0
S608 S 0.49704 0.57911 0.9721 0.0
N609 N 0.48986 0.57175 0.00758 0.0
N610 N 0.46894 0.59399 0.96117 0.0
C611 C 0.45229 0.5936 0.98684 0.0
C612 C 0.46375 0.58174 0.01205 0.0
C613 C 0.8682 0.47198 0.1812 0.0
C614 C 0.8752 0.44601 0.19449 0.0
C615 C 0.84808 0.46447 0.15512 0.0
C616 C 0.83353 0.43046 0.14144 0.0
H617 H 0.87873 0.49861 0.19087 0.0
H618 H 0.84388 0.4856 0.1456 0.0
S619 S 0.84314 0.35263 0.16738 0.0
N620 N 0.86577 0.38468 0.192 0.0
N621 N 0.82657 0.37012 0.14329 0.0
C622 C 0.8391 0.40369 0.15488 0.0
C623 C 0.86022 0.41155 0.18135 0.0
loop_
_geom_bond_atom_site_label_1
_geom_bond_atom_site_label_2
_geom_bond_distance
_geom_bond_site_symmetry_2
_ccdc_geom_bond_type
C0 C1 1.384 . S
C0 C2 1.384 . S
C0 H28 0.931 . S
C1 C0 1.384 . S
C1 C4 1.382 . S
C2 C0 1.384 . S
C2 C3 1.381 . S
C2 H29 0.930 . S
C3 C2 1.381 . S
C3 C5 1.381 . S
C3 C6 1.487 . S
C4 C1 1.382 . S
C4 C5 1.387 . S
C4 H30 0.930 . S
C5 C3 1.381 . S
C5 C4 1.387 . S
C5 H31 0.931 . S
C6 C3 1.487 . S
C6 C13 1.399 . S
C6 N44 1.343 . S
C7 C8 1.384 . S
C7 C9 1.384 . S
C7 H32 0.931 . S
C8 C7 1.384 . S
C8 C11 1.382 . S
C9 C7 1.384 . S
C9 C10 1.381 . S
C9 H33 0.930 . S
C10 C9 1.381 . S
C10 C12 1.381 . S
C10 C13 1.487 . S
C11 C8 1.382 . S
C11 C12 1.387 . S
C11 H34 0.930 . S
C12 C10 1.381 . S
C12 C11 1.387 . S
C12 H35 0.931 . S
C13 C6 1.399 . S
C13 C10 1.487 . S
C13 N45 1.343 1_655 S
C14 C15 1.384 . S
C14 C16 1.384 . S
C14 H36 0.931 . S
C15 C14 1.384 . S
C15 C18 1.382 . S
C16 C14 1.384 . S
C16 C17 1.381 . S
C16 H37 0.930 . S
C17 C16 1.381 . S
C17 C19 1.381 . S
C17 C20 1.487 . S
C18 C15 1.382 . S
C18 C19 1.387 . S
C18 H38 0.930 . S
C19 C17 1.381 . S
C19 C18 1.387 . S
C19 H39 0.931 . S
C20 C17 1.487 . S
C20 C27 1.399 . S
C20 N45 1.343 . S
C21 C22 1.384 . S
C21 C23 1.384 . S
C21 H40 0.931 . S
C22 C21 1.384 . S
C22 C25 1.382 . S
C23 C21 1.384 . S
C23 C24 1.381 . S
C23 H41 0.930 . S
C24 C23 1.381 . S
C24 C26 1.381 . S
C24 C27 1.487 . S
C25 C22 1.382 . S
C25 C26 1.387 . S
C25 H42 0.930 . S
C26 C24 1.381 . S
C26 C25 1.387 . S
C26 H43 0.931 . S
C27 C20 1.399 . S
C27 C24 1.487 . S
C27 N44 1.343 1_455 S
H28 C0 0.931 . S
H29 C2 0.930 . S
H30 C4 0.930 . S
H31 C5 0.931 . S
H32 C7 0.931 . S
H33 C9 0.930 . S
H34 C11 0.930 . S
H35 C12 0.931 . S
H36 C14 0.931 . S
H37 C16 0.930 . S
H38 C18 0.930 . S
H39 C19 0.931 . S
H40 C21 0.931 . S
H41 C23 0.930 . S
H42 C25 0.930 . S
H43 C26 0.931 . S
N44 C6 1.343 . S
N44 C27 1.343 1_655 S
N45 C13 1.343 1_455 S
N45 C20 1.343 . S
C46 C47 1.384 . S
C46 C48 1.384 . S
C46 H74 0.931 . S
C47 C46 1.384 . S
C47 C50 1.382 . S
C48 C46 1.384 . S
C48 C49 1.381 . S
C48 H75 0.930 . S
C49 C48 1.381 . S
C49 C51 1.381 . S
C49 C52 1.487 . S
C50 C47 1.382 . S
C50 C51 1.387 . S
C50 H76 0.930 . S
C51 C49 1.381 . S
C51 C50 1.387 . S
C51 H77 0.931 . S
C52 C49 1.487 . S
C52 C59 1.399 . S
C52 N90 1.341 1_565 S
C53 C54 1.384 . S
C53 C55 1.384 . S
C53 H78 0.931 . S
C54 C53 1.384 . S
C54 C57 1.382 . S
C55 C53 1.384 . S
C55 C56 1.381 . S
C55 H79 0.930 . S
C56 C55 1.381 . S
C56 C58 1.381 . S
C56 C59 1.487 . S
C57 C54 1.382 . S
C57 C58 1.387 . S
C57 H80 0.930 . S
C58 C56 1.381 . S
C58 C57 1.387 . S
C58 H81 0.931 . S
C59 C52 1.399 . S
C59 C56 1.487 . S
C59 N91 1.343 1_565 S
C60 C61 1.384 . S
C60 C62 1.384 . S
C60 H82 0.931 . S
C61 C60 1.384 . S
C61 C64 1.382 . S
C62 C60 1.384 . S
C62 C63 1.381 . S
C62 H83 0.930 . S
C63 C62 1.381 . S
C63 C65 1.381 . S
C63 C66 1.487 . S
C64 C61 1.382 . S
C64 C65 1.387 . S
C64 H84 0.930 . S
C65 C63 1.381 . S
C65 C64 1.387 . S
C65 H85 0.931 . S
C66 C63 1.487 . S
C66 C73 1.399 . S
C66 N91 1.343 . S
C67 C68 1.384 . S
C67 C69 1.384 . S
C67 H86 0.931 . S
C68 C67 1.384 . S
C68 C71 1.382 . S
C69 C67 1.384 . S
C69 C70 1.381 . S
C69 H87 0.930 . S
C70 C69 1.381 . S
C70 C72 1.381 . S
C70 C73 1.487 . S
C71 C68 1.382 . S
C71 C72 1.387 . S
C71 H88 0.930 . S
C72 C70 1.381 . S
C72 C71 1.387 . S
C72 H89 0.931 . S
C73 C66 1.399 . S
C73 C70 1.487 . S
C73 N90 1.347 . S
H74 C46 0.931 . S
H75 C48 0.930 . S
H76 C50 0.930 . S
H77 C51 0.931 . S
H78 C53 0.931 . S
H79 C55 0.930 . S
H80 C57 0.930 . S
H81 C58 0.931 . S
H82 C60 0.931 . S
H83 C62 0.930 . S
H84 C64 0.930 . S
H85 C65 0.931 . S
H86 C67 0.931 . S
H87 C69 0.930 . S
H88 C71 0.930 . S
H89 C72 0.931 . S
N90 C52 1.341 1_545 S
N90 C73 1.347 . S
N91 C59 1.343 1_545 S
N91 C66 1.343 . S
C92 C93 1.384 . S
C92 C94 1.384 . S
C92 H120 0.931 . S
C93 C92 1.384 . S
C93 C96 1.382 . S
C94 C92 1.384 . S
C94 C95 1.381 . S
C94 H121 0.930 . S
C95 C94 1.381 . S
C95 C97 1.381 . S
C95 C98 1.487 . S
C96 C93 1.382 . S
C96 C97 1.387 . S
C96 H122 0.930 . S
C97 C95 1.381 . S
C97 C96 1.387 . S
C97 H123 0.931 . S
C98 C95 1.487 . S
C98 C105 1.399 . S
C98 N136 1.343 . S
C99 C100 1.384 . S
C99 C101 1.384 . S
C99 H124 0.931 . S
C100 C99 1.384 . S
C100 C103 1.382 . S
C101 C99 1.384 . S
C101 C102 1.381 . S
C101 H125 0.930 . S
C102 C101 1.381 . S
C102 C104 1.381 . S
C102 C105 1.487 . S
C103 C100 1.382 . S
C103 C104 1.387 . S
C103 H126 0.930 . S
C104 C102 1.381 . S
C104 C103 1.387 . S
C104 H127 0.931 . S
C105 C98 1.399 . S
C105 C102 1.487 . S
C105 N137 1.343 . S
C106 C107 1.384 . S
C106 C108 1.384 . S
C106 H128 0.931 . S
C107 C106 1.384 . S
C107 C110 1.382 . S
C108 C106 1.384 . S
C108 C109 1.381 . S
C108 H129 0.930 . S
C109 C108 1.381 . S
C109 C111 1.381 . S
C109 C112 1.487 . S
C110 C107 1.382 . S
C110 C111 1.387 . S
C110 H130 0.930 . S
C111 C109 1.381 . S
C111 C110 1.387 . S
C111 H131 0.931 . S
C112 C109 1.487 . S
C112 C119 1.399 . S
C112 N137 1.343 . S
C113 C114 1.384 . S
C113 C115 1.384 . S
C113 H132 0.931 . S
C114 C113 1.384 . S
C114 C117 1.382 . S
C115 C113 1.384 . S
C115 C116 1.381 . S
C115 H133 0.930 . S
C116 C115 1.381 . S
C116 C118 1.381 . S
C116 C119 1.487 . S
C117 C114 1.382 . S
C117 C118 1.387 . S
C117 H134 0.930 . S
C118 C116 1.381 . S
C118 C117 1.387 . S
C118 H135 0.931 . S
C119 C112 1.399 . S
C119 C116 1.487 . S
C119 N136 1.343 . S
H120 C92 0.931 . S
H121 C94 0.930 . S
H122 C96 0.930 . S
H123 C97 0.931 . S
H124 C99 0.931 . S
H125 C101 0.930 . S
H126 C103 0.930 . S
H127 C104 0.931 . S
H128 C106 0.931 . S
H129 C108 0.930 . S
H130 C110 0.930 . S
H131 C111 0.931 . S
H132 C113 0.931 . S
H133 C115 0.930 . S
H134 C117 0.930 . S
H135 C118 0.931 . S
N136 C98 1.343 . S
N136 C119 1.343 . S
N137 C105 1.343 . S
N137 C112 1.343 . S
C138 C139 1.384 . S
C138 C140 1.384 . S
C138 H166 0.931 . S
C139 C138 1.384 . S
C139 C142 1.382 . S
C140 C138 1.384 . S
C140 C141 1.381 . S
C140 H167 0.930 . S
C141 C140 1.381 . S
C141 C143 1.381 . S
C141 C144 1.487 . S
C142 C139 1.382 . S
C142 C143 1.387 . S
C142 H168 0.930 . S
C143 C141 1.381 . S
C143 C142 1.387 . S
C143 H169 0.931 . S
C144 C141 1.487 . S
C144 C151 1.399 . S
C144 N182 1.343 . S
C145 C146 1.384 . S
C145 C147 1.384 . S
C145 H170 0.931 . S
C146 C145 1.384 . S
C146 C149 1.382 . S
C147 C145 1.384 . S
C147 C148 1.381 . S
C147 H171 0.930 . S
C148 C147 1.381 . S
C148 C150 1.381 . S
C148 C151 1.487 . S
C149 C146 1.382 . S
C149 C150 1.387 . S
C149 H172 0.930 . S
C150 C148 1.381 . S
C150 C149 1.387 . S
C150 H173 0.931 . S
C151 C144 1.399 . S
C151 C148 1.487 . S
C151 N183 1.343 1_655 S
C152 C153 1.384 . S
C152 C154 1.384 . S
C152 H174 0.931 . S
C153 C152 1.384 . S
C153 C156 1.382 . S
C154 C152 1.384 . S
C154 C155 1.381 . S
C154 H175 0.930 . S
C155 C154 1.381 . S
C155 C157 1.381 . S
C155 C158 1.487 . S
C156 C153 1.382 . S
C156 C157 1.387 . S
C156 H176 0.930 . S
C157 C155 1.381 . S
C157 C156 1.387 . S
C157 H177 0.931 . S
C158 C155 1.487 . S
C158 C165 1.399 . S
C158 N183 1.343 . S
C159 C160 1.384 . S
C159 C161 1.384 . S
C159 H178 0.931 . S
C160 C159 1.384 . S
C160 C163 1.382 . S
C161 C159 1.384 . S
C161 C162 1.381 . S
C161 H179 0.930 . S
C162 C161 1.381 . S
C162 C164 1.381 . S
C162 C165 1.487 . S
C163 C160 1.382 . S
C163 C164 1.387 . S
C163 H180 0.930 . S
C164 C162 1.381 . S
C164 C163 1.387 . S
C164 H181 0.931 . S
C165 C158 1.399 . S
C165 C162 1.487 . S
C165 N182 1.343 1_455 S
H166 C138 0.931 . S
H167 C140 0.930 . S
H168 C142 0.930 . S
H169 C143 0.931 . S
H170 C145 0.931 . S
H171 C147 0.930 . S
H172 C149 0.930 . S
H173 C150 0.931 . S
H174 C152 0.931 . S
H175 C154 0.930 . S
H176 C156 0.930 . S
H177 C157 0.931 . S
H178 C159 0.931 . S
H179 C161 0.930 . S
H180 C163 0.930 . S
H181 C164 0.931 . S
N182 C144 1.343 . S
N182 C165 1.343 1_655 S
N183 C151 1.343 1_455 S
N183 C158 1.343 . S
C184 C185 1.384 . S
C184 C186 1.384 . S
C184 H212 0.931 . S
C185 C184 1.384 . S
C185 C188 1.382 . S
C186 C184 1.384 . S
C186 C187 1.381 . S
C186 H213 0.930 1_556 S
C187 C186 1.381 . S
C187 C189 1.381 . S
C187 C190 1.487 . S
C188 C185 1.382 . S
C188 C189 1.387 . S
C188 H214 0.930 . S
C189 C187 1.381 . S
C189 C188 1.387 . S
C189 H215 0.931 . S
C190 C187 1.487 . S
C190 C197 1.399 1_556 S
C190 N228 1.343 . S
C191 C192 1.384 . S
C191 C193 1.384 . S
C191 H216 0.931 . S
C192 C191 1.384 . S
C192 C195 1.382 . S
C193 C191 1.384 . S
C193 C194 1.381 . S
C193 H217 0.930 . S
C194 C193 1.381 . S
C194 C196 1.381 . S
C194 C197 1.487 . S
C195 C192 1.382 . S
C195 C196 1.387 . S
C195 H218 0.930 . S
C196 C194 1.381 . S
C196 C195 1.387 . S
C196 H219 0.931 . S
C197 C190 1.399 1_554 S
C197 C194 1.487 . S
C197 N229 1.343 1_565 S
C198 C199 1.384 . S
C198 C200 1.377 1_554 S
C198 H220 0.931 . S
C199 C198 1.384 . S
C199 C202 1.382 . S
C200 C198 1.377 1_556 S
C200 C201 1.374 1_556 S
C200 H221 0.945 . S
C201 C200 1.374 1_554 S
C201 C203 1.381 . S
C201 C204 1.498 . S
C202 C199 1.382 . S
C202 C203 1.387 . S
C202 H222 0.930 . S
C203 C201 1.381 . S
C203 C202 1.387 . S
C203 H223 0.931 . S
C204 C201 1.498 . S
C204 C211 1.363 1_554 S
C204 N229 1.372 . S
C205 C206 1.384 . S
C205 C207 1.384 . S
C205 H224 0.931 . S
C206 C205 1.384 . S
C206 C209 1.382 . S
C207 C205 1.384 . S
C207 C208 1.381 . S
C207 H225 0.930 . S
C208 C207 1.381 . S
C208 C210 1.381 . S
C208 C211 1.487 . S
C209 C206 1.382 . S
C209 C210 1.387 . S
C209 H226 0.930 . S
C210 C208 1.381 . S
C210 C209 1.387 . S
C210 H227 0.931 . S
C211 C204 1.363 1_556 S
C211 C208 1.487 . S
C211 N228 1.343 1_545 S
H212 C184 0.931 . S
H213 C186 0.930 1_554 S
H214 C188 0.930 . S
H215 C189 0.931 . S
H216 C191 0.931 . S
H217 C193 0.930 . S
H218 C195 0.930 . S
H219 C196 0.931 . S
H220 C198 0.931 . S
H221 C200 0.945 . S
H222 C202 0.930 . S
H223 C203 0.931 . S
H224 C205 0.931 . S
H225 C207 0.930 . S
H226 C209 0.930 . S
H227 C210 0.931 . S
N228 C190 1.343 . S
N228 C211 1.343 1_565 S
N229 C197 1.343 1_545 S
N229 C204 1.372 . S
C230 C231 1.384 . S
C230 C232 1.384 . S
C230 H258 0.931 . S
C231 C230 1.384 . S
C231 C234 1.382 . S
C232 C230 1.384 . S
C232 C233 1.381 . S
C232 H259 0.930 . S
C233 C232 1.381 . S
C233 C235 1.381 . S
C233 C236 1.487 . S
C234 C231 1.382 . S
C234 C235 1.387 . S
C234 H260 0.930 . S
C235 C233 1.381 . S
C235 C234 1.387 . S
C235 H261 0.931 . S
C236 C233 1.487 . S
C236 C243 1.399 . S
C236 N274 1.343 . S
C237 C238 1.384 . S
C237 C239 1.384 . S
C237 H262 0.931 . S
C238 C237 1.384 . S
C238 C241 1.382 . S
C239 C237 1.384 . S
C239 C240 1.381 . S
C239 H263 0.930 . S
C240 C239 1.381 . S
C240 C242 1.381 . S
C240 C243 1.487 . S
C241 C238 1.382 . S
C241 C242 1.387 . S
C241 H264 0.930 . S
C242 C240 1.381 . S
C242 C241 1.387 . S
C242 H265 0.931 . S
C243 C236 1.399 . S
C243 C240 1.487 . S
C243 N275 1.343 . S
C244 C245 1.384 . S
C244 C246 1.384 . S
C244 H266 0.931 . S
C245 C244 1.384 . S
C245 C248 1.382 . S
C246 C244 1.384 . S
C246 C247 1.381 . S
C246 H267 0.930 . S
C247 C246 1.381 . S
C247 C249 1.381 . S
C247 C250 1.487 . S
C248 C245 1.382 . S
C248 C249 1.387 . S
C248 H268 0.930 . S
C249 C247 1.381 . S
C249 C248 1.387 . S
C249 H269 0.931 . S
C250 C247 1.487 . S
C250 C257 1.399 . S
C250 N275 1.343 . S
C251 C252 1.384 . S
C251 C253 1.384 . S
C251 H270 0.931 . S
C252 C251 1.384 . S
C252 C255 1.382 . S
C253 C251 1.384 . S
C253 C254 1.381 . S
C253 H271 0.930 . S
C254 C253 1.381 . S
C254 C256 1.381 . S
C254 C257 1.487 . S
C255 C252 1.382 . S
C255 C256 1.387 . S
C255 H272 0.930 . S
C256 C254 1.381 . S
C256 C255 1.387 . S
C256 H273 0.931 . S
C257 C250 1.399 . S
C257 C254 1.487 . S
C257 N274 1.343 . S
H258 C230 0.931 . S
H259 C232 0.930 . S
H260 C234 0.930 . S
H261 C235 0.931 . S
H262 C237 0.931 . S
H263 C239 0.930 . S
H264 C241 0.930 . S
H265 C242 0.931 . S
H266 C244 0.931 . S
H267 C246 0.930 . S
H268 C248 0.930 . S
H269 C249 0.931 . S
H270 C251 0.931 . S
H271 C253 0.930 . S
H272 C255 0.930 . S
H273 C256 0.931 . S
N274 C236 1.343 . S
N274 C257 1.343 . S
N275 C243 1.343 . S
N275 C250 1.343 . S
C276 O277 1.306 . S
C276 O279 1.160 . S
O277 C276 1.306 . S
O277 Cd278 2.228 . S
Cd278 O277 2.228 . S
Cd278 O282 2.273 . S
Cd278 O286 2.277 . S
O279 C276 1.160 . S
O279 Cd280 2.203 . S
Cd280 O279 2.203 . S
Cd280 O282 2.411 . S
Cd280 O283 2.333 . S
Cd280 O284 2.352 . S
Cd280 O288 2.277 . S
Cd280 O289 2.356 . S
C281 O286 1.209 . S
C281 O288 1.226 . S
O282 Cd278 2.273 . S
O282 Cd280 2.411 . S
O282 C285 1.320 . S
O283 Cd280 2.333 . S
O283 C285 1.214 . S
O284 Cd280 2.352 . S
O284 C287 1.258 . S
C285 O282 1.320 . S
C285 O283 1.214 . S
O286 Cd278 2.277 . S
O286 C281 1.209 . S
C287 O284 1.258 . S
C287 O289 1.282 . S
O288 Cd280 2.277 . S
O288 C281 1.226 . S
O289 Cd280 2.356 . S
O289 C287 1.282 . S
C290 O291 1.306 . S
C290 O293 1.160 . S
O291 C290 1.306 . S
O291 Cd292 2.228 . S
Cd292 O291 2.228 . S
Cd292 O296 2.273 . S
Cd292 O300 2.277 . S
O293 C290 1.160 . S
O293 Cd294 2.203 . S
Cd294 O293 2.203 . S
Cd294 O296 2.411 . S
Cd294 O297 2.333 . S
Cd294 O298 2.352 . S
Cd294 O302 2.277 . S
Cd294 O303 2.356 . S
C295 O300 1.209 . S
C295 O302 1.226 . S
O296 Cd292 2.273 . S
O296 Cd294 2.411 . S
O296 C299 1.320 . S
O297 Cd294 2.333 . S
O297 C299 1.214 . S
O298 Cd294 2.352 . S
O298 C301 1.258 . S
C299 O296 1.320 . S
C299 O297 1.214 . S
O300 Cd292 2.277 . S
O300 C295 1.209 . S
C301 O298 1.258 . S
C301 O303 1.282 . S
O302 Cd294 2.277 . S
O302 C295 1.226 . S
O303 Cd294 2.356 . S
O303 C301 1.282 . S
C304 O305 1.306 . S
C304 O307 1.160 . S
O305 C304 1.306 . S
O305 Cd306 2.228 . S
Cd306 O305 2.228 . S
Cd306 O310 2.273 . S
Cd306 O314 2.277 . S
O307 C304 1.160 . S
O307 Cd308 2.203 . S
Cd308 O307 2.203 . S
Cd308 O310 2.411 . S
Cd308 O311 2.333 . S
Cd308 O312 2.352 . S
Cd308 O316 2.277 . S
Cd308 O317 2.356 . S
C309 O314 1.209 . S
C309 O316 1.226 . S
O310 Cd306 2.273 . S
O310 Cd308 2.411 . S
O310 C313 1.320 . S
O311 Cd308 2.333 . S
O311 C313 1.214 . S
O312 Cd308 2.352 . S
O312 C315 1.258 . S
C313 O310 1.320 . S
C313 O311 1.214 . S
O314 Cd306 2.277 . S
O314 C309 1.209 . S
C315 O312 1.258 . S
C315 O317 1.282 . S
O316 Cd308 2.277 . S
O316 C309 1.226 . S
O317 Cd308 2.356 . S
O317 C315 1.282 . S
C318 O319 1.306 . S
C318 O321 1.160 . S
O319 C318 1.306 . S
O319 Cd320 2.228 . S
Cd320 O319 2.228 . S
Cd320 O324 2.273 . S
Cd320 O328 2.277 . S
O321 C318 1.160 . S
O321 Cd322 2.203 . S
Cd322 O321 2.203 . S
Cd322 O324 2.411 . S
Cd322 O325 2.333 . S
Cd322 O326 2.352 . S
Cd322 O330 2.277 . S
Cd322 O331 2.356 . S
C323 O328 1.209 . S
C323 O330 1.226 . S
O324 Cd320 2.273 . S
O324 Cd322 2.411 . S
O324 C327 1.320 . S
O325 Cd322 2.333 . S
O325 C327 1.214 . S
O326 Cd322 2.352 . S
O326 C329 1.258 . S
C327 O324 1.320 . S
C327 O325 1.214 . S
O328 Cd320 2.277 . S
O328 C323 1.209 . S
C329 O326 1.258 . S
C329 O331 1.282 . S
O330 Cd322 2.277 . S
O330 C323 1.226 . S
O331 Cd322 2.356 . S
O331 C329 1.282 . S
C332 O333 1.306 . S
C332 O335 1.160 . S
O333 C332 1.306 . S
O333 Cd334 2.228 . S
Cd334 O333 2.228 . S
Cd334 O338 2.273 . S
Cd334 O342 2.277 . S
O335 C332 1.160 . S
O335 Cd336 2.203 . S
Cd336 O335 2.203 . S
Cd336 O338 2.411 . S
Cd336 O339 2.333 . S
Cd336 O340 2.352 . S
Cd336 O344 2.277 . S
Cd336 O345 2.356 . S
C337 O342 1.209 . S
C337 O344 1.226 . S
O338 Cd334 2.273 . S
O338 Cd336 2.411 . S
O338 C341 1.320 . S
O339 Cd336 2.333 . S
O339 C341 1.214 . S
O340 Cd336 2.352 . S
O340 C343 1.258 . S
C341 O338 1.320 . S
C341 O339 1.214 . S
O342 Cd334 2.277 . S
O342 C337 1.209 . S
C343 O340 1.258 . S
C343 O345 1.282 . S
O344 Cd336 2.277 . S
O344 C337 1.226 . S
O345 Cd336 2.356 . S
O345 C343 1.282 . S
C346 O347 1.306 . S
C346 O349 1.160 . S
O347 C346 1.306 . S
O347 Cd348 2.228 . S
Cd348 O347 2.228 . S
Cd348 O352 2.273 . S
Cd348 O356 2.277 . S
O349 C346 1.160 . S
O349 Cd350 2.203 . S
Cd350 O349 2.203 . S
Cd350 O352 2.411 . S
Cd350 O353 2.333 . S
Cd350 O354 2.352 . S
Cd350 O358 2.277 . S
Cd350 O359 2.356 . S
C351 O356 1.209 . S
C351 O358 1.226 . S
O352 Cd348 2.273 . S
O352 Cd350 2.411 . S
O352 C355 1.320 . S
O353 Cd350 2.333 . S
O353 C355 1.214 . S
O354 Cd350 2.352 . S
O354 C357 1.258 . S
C355 O352 1.320 . S
C355 O353 1.214 . S
O356 Cd348 2.277 . S
O356 C351 1.209 . S
C357 O354 1.258 . S
C357 O359 1.282 . S
O358 Cd350 2.277 . S
O358 C351 1.226 . S
O359 Cd350 2.356 . S
O359 C357 1.282 . S
C360 C361 1.369 . S
C360 C362 1.419 . S
C360 H364 0.930 . S
C361 C360 1.369 . S
C361 C370 1.429 . S
C362 C360 1.419 . S
C362 C363 1.363 . S
C362 H365 0.929 . S
C363 C362 1.363 . S
C363 C369 1.428 . S
H364 C360 0.930 . S
H365 C362 0.929 . S
S366 N367 1.613 . S
S366 N368 1.610 . S
N367 S366 1.613 . S
N367 C370 1.350 . S
N368 S366 1.610 . S
N368 C369 1.351 . S
C369 C363 1.428 . S
C369 N368 1.351 . S
C369 C370 1.434 . S
C370 C361 1.429 . S
C370 N367 1.350 . S
C370 C369 1.434 . S
C371 C372 1.369 . S
C371 C373 1.419 . S
C371 H375 0.930 . S
C372 C371 1.369 . S
C372 C381 1.429 . S
C373 C371 1.419 . S
C373 C374 1.363 . S
C373 H376 0.929 . S
C374 C373 1.363 . S
C374 C380 1.428 . S
H375 C371 0.930 . S
H376 C373 0.929 . S
S377 N378 1.613 . S
S377 N379 1.610 . S
N378 S377 1.613 . S
N378 C381 1.350 . S
N379 S377 1.610 . S
N379 C380 1.351 . S
C380 C374 1.428 . S
C380 N379 1.351 . S
C380 C381 1.434 . S
C381 C372 1.429 . S
C381 N378 1.350 . S
C381 C380 1.434 . S
C382 C383 1.369 . S
C382 C384 1.419 . S
C382 H386 0.930 . S
C383 C382 1.369 . S
C383 C392 1.429 . S
C384 C382 1.419 . S
C384 C385 1.363 . S
C384 H387 0.929 . S
C385 C384 1.363 . S
C385 C391 1.428 . S
H386 C382 0.930 . S
H387 C384 0.929 . S
S388 N389 1.613 . S
S388 N390 1.610 . S
N389 S388 1.613 . S
N389 C392 1.350 . S
N390 S388 1.610 . S
N390 C391 1.351 . S
C391 C385 1.428 . S
C391 N390 1.351 . S
C391 C392 1.434 . S
C392 C383 1.429 . S
C392 N389 1.350 . S
C392 C391 1.434 . S
C393 C394 1.369 . S
C393 C395 1.419 . S
C393 H397 0.930 . S
C394 C393 1.369 . S
C394 C403 1.429 . S
C395 C393 1.419 . S
C395 C396 1.363 . S
C395 H398 0.929 . S
C396 C395 1.363 . S
C396 C402 1.428 . S
H397 C393 0.930 . S
H398 C395 0.929 . S
S399 N400 1.613 . S
S399 N401 1.610 . S
N400 S399 1.613 . S
N400 C403 1.350 . S
N401 S399 1.610 . S
N401 C402 1.351 . S
C402 C396 1.428 . S
C402 N401 1.351 . S
C402 C403 1.434 . S
C403 C394 1.429 . S
C403 N400 1.350 . S
C403 C402 1.434 . S
C404 C405 1.369 . S
C404 C406 1.419 . S
C404 H408 0.930 . S
C405 C404 1.369 . S
C405 C414 1.429 . S
C406 C404 1.419 . S
C406 C407 1.363 . S
C406 H409 0.929 . S
C407 C406 1.363 . S
C407 C413 1.428 . S
H408 C404 0.930 . S
H409 C406 0.929 . S
S410 N411 1.613 1_554 S
S410 N412 1.610 1_554 S
N411 S410 1.613 1_556 S
N411 C414 1.350 . S
N412 S410 1.610 1_556 S
N412 C413 1.351 . S
C413 C407 1.428 . S
C413 N412 1.351 . S
C413 C414 1.434 . S
C414 C405 1.429 . S
C414 N411 1.350 . S
C414 C413 1.434 . S
C415 C416 1.369 . S
C415 C417 1.419 . S
C415 H419 0.930 . S
C416 C415 1.369 . S
C416 C425 1.429 . S
C417 C415 1.419 . S
C417 C418 1.363 . S
C417 H420 0.929 . S
C418 C417 1.363 . S
C418 C424 1.428 . S
H419 C415 0.930 . S
H420 C417 0.929 . S
S421 N422 1.613 . S
S421 N423 1.610 . S
N422 S421 1.613 . S
N422 C425 1.350 . S
N423 S421 1.610 . S
N423 C424 1.351 . S
C424 C418 1.428 . S
C424 N423 1.351 . S
C424 C425 1.434 . S
C425 C416 1.429 . S
C425 N422 1.350 . S
C425 C424 1.434 . S
C426 C427 1.369 . S
C426 C428 1.419 . S
C426 H430 0.930 . S
C427 C426 1.369 . S
C427 C436 1.429 . S
C428 C426 1.419 . S
C428 C429 1.363 . S
C428 H431 0.929 . S
C429 C428 1.363 . S
C429 C435 1.428 . S
H430 C426 0.930 . S
H431 C428 0.929 . S
S432 N433 1.613 . S
S432 N434 1.610 . S
N433 S432 1.613 . S
N433 C436 1.350 . S
N434 S432 1.610 . S
N434 C435 1.351 . S
C435 C429 1.428 . S
C435 N434 1.351 . S
C435 C436 1.434 . S
C436 C427 1.429 . S
C436 N433 1.350 . S
C436 C435 1.434 . S
C437 C438 1.369 . S
C437 C439 1.419 . S
C437 H441 0.930 . S
C438 C437 1.369 . S
C438 C447 1.429 . S
C439 C437 1.419 . S
C439 C440 1.363 . S
C439 H442 0.929 . S
C440 C439 1.363 . S
C440 C446 1.428 . S
H441 C437 0.930 . S
H442 C439 0.929 . S
S443 N444 1.613 . S
S443 N445 1.610 . S
N444 S443 1.613 . S
N444 C447 1.350 . S
N445 S443 1.610 . S
N445 C446 1.351 . S
C446 C440 1.428 . S
C446 N445 1.351 . S
C446 C447 1.434 . S
C447 C438 1.429 . S
C447 N444 1.350 . S
C447 C446 1.434 . S
C448 C449 1.369 . S
C448 C450 1.419 . S
C448 H452 0.930 . S
C449 C448 1.369 . S
C449 C458 1.429 . S
C450 C448 1.419 . S
C450 C451 1.363 . S
C450 H453 0.929 . S
C451 C450 1.363 . S
C451 C457 1.428 . S
H452 C448 0.930 . S
H453 C450 0.929 . S
S454 N455 1.613 . S
S454 N456 1.610 . S
N455 S454 1.613 . S
N455 C458 1.350 . S
N456 S454 1.610 . S
N456 C457 1.351 . S
C457 C451 1.428 . S
C457 N456 1.351 . S
C457 C458 1.434 . S
C458 C449 1.429 . S
C458 N455 1.350 . S
C458 C457 1.434 . S
C459 C460 1.369 . S
C459 C461 1.419 . S
C459 H463 0.930 . S
C460 C459 1.369 . S
C460 C469 1.429 . S
C461 C459 1.419 . S
C461 C462 1.363 . S
C461 H464 0.929 . S
C462 C461 1.363 . S
C462 C468 1.428 . S
H463 C459 0.930 . S
H464 C461 0.929 . S
S465 N466 1.613 . S
S465 N467 1.610 . S
N466 S465 1.613 . S
N466 C469 1.350 . S
N467 S465 1.610 . S
N467 C468 1.351 . S
C468 C462 1.428 . S
C468 N467 1.351 . S
C468 C469 1.434 . S
C469 C460 1.429 . S
C469 N466 1.350 . S
C469 C468 1.434 . S
C470 C471 1.369 . S
C470 C472 1.419 . S
C470 H474 0.930 . S
C471 C470 1.369 . S
C471 C480 1.429 . S
C472 C470 1.419 . S
C472 C473 1.363 . S
C472 H475 0.929 . S
C473 C472 1.363 . S
C473 C479 1.428 . S
H474 C470 0.930 . S
H475 C472 0.929 . S
S476 N477 1.613 . S
S476 N478 1.610 . S
N477 S476 1.613 . S
N477 C480 1.350 . S
N478 S476 1.610 . S
N478 C479 1.351 . S
C479 C473 1.428 . S
C479 N478 1.351 . S
C479 C480 1.434 . S
C480 C471 1.429 . S
C480 N477 1.350 . S
C480 C479 1.434 . S
C481 C482 1.369 . S
C481 C483 1.419 . S
C481 H485 0.930 . S
C482 C481 1.369 . S
C482 C491 1.429 . S
C483 C481 1.419 . S
C483 C484 1.363 . S
C483 H486 0.929 . S
C484 C483 1.363 . S
C484 C490 1.428 . S
H485 C481 0.930 . S
H486 C483 0.929 . S
S487 N488 1.613 . S
S487 N489 1.610 . S
N488 S487 1.613 . S
N488 C491 1.350 . S
N489 S487 1.610 . S
N489 C490 1.351 . S
C490 C484 1.428 . S
C490 N489 1.351 . S
C490 C491 1.434 . S
C491 C482 1.429 . S
C491 N488 1.350 . S
C491 C490 1.434 . S
C492 C493 1.369 . S
C492 C494 1.419 . S
C492 H496 0.930 . S
C493 C492 1.369 . S
C493 C502 1.429 . S
C494 C492 1.419 . S
C494 C495 1.363 . S
C494 H497 0.929 . S
C495 C494 1.363 . S
C495 C501 1.428 . S
H496 C492 0.930 . S
H497 C494 0.929 . S
S498 N499 1.613 . S
S498 N500 1.610 . S
N499 S498 1.613 . S
N499 C502 1.350 . S
N500 S498 1.610 . S
N500 C501 1.351 . S
C501 C495 1.428 . S
C501 N500 1.351 . S
C501 C502 1.434 . S
C502 C493 1.429 . S
C502 N499 1.350 . S
C502 C501 1.434 . S
C503 C504 1.369 . S
C503 C505 1.419 . S
C503 H507 0.930 . S
C504 C503 1.369 . S
C504 C513 1.429 . S
C505 C503 1.419 . S
C505 C506 1.363 . S
C505 H508 0.929 . S
C506 C505 1.363 . S
C506 C512 1.428 . S
H507 C503 0.930 . S
H508 C505 0.929 . S
S509 N510 1.613 . S
S509 N511 1.610 . S
N510 S509 1.613 . S
N510 C513 1.350 . S
N511 S509 1.610 . S
N511 C512 1.351 . S
C512 C506 1.428 . S
C512 N511 1.351 . S
C512 C513 1.434 . S
C513 C504 1.429 . S
C513 N510 1.350 . S
C513 C512 1.434 . S
C514 C515 1.369 . S
C514 C516 1.419 . S
C514 H518 0.930 . S
C515 C514 1.369 . S
C515 C524 1.429 . S
C516 C514 1.419 . S
C516 C517 1.363 . S
C516 H519 0.929 . S
C517 C516 1.363 . S
C517 C523 1.428 . S
H518 C514 0.930 . S
H519 C516 0.929 . S
S520 N521 1.613 . S
S520 N522 1.610 . S
N521 S520 1.613 . S
N521 C524 1.350 . S
N522 S520 1.610 . S
N522 C523 1.351 . S
C523 C517 1.428 . S
C523 N522 1.351 . S
C523 C524 1.434 . S
C524 C515 1.429 . S
C524 N521 1.350 . S
C524 C523 1.434 . S
C525 C526 1.369 . S
C525 C527 1.419 . S
C525 H529 0.930 . S
C526 C525 1.369 . S
C526 C535 1.429 . S
C527 C525 1.419 . S
C527 C528 1.363 1_556 S
C527 H530 0.929 1_556 S
C528 C527 1.363 1_554 S
C528 C534 1.428 1_554 S
H529 C525 0.930 . S
H530 C527 0.929 1_554 S
S531 N532 1.613 . S
S531 N533 1.610 1_556 S
N532 S531 1.613 . S
N532 C535 1.350 . S
N533 S531 1.610 1_554 S
N533 C534 1.351 1_554 S
C534 C528 1.428 1_556 S
C534 N533 1.351 1_556 S
C534 C535 1.434 . S
C535 C526 1.429 . S
C535 N532 1.350 . S
C535 C534 1.434 . S
C536 C537 1.369 . S
C536 C538 1.419 . S
C536 H540 0.930 . S
C537 C536 1.369 . S
C537 C546 1.429 . S
C538 C536 1.419 . S
C538 C539 1.363 . S
C538 H541 0.929 . S
C539 C538 1.363 . S
C539 C545 1.428 . S
H540 C536 0.930 . S
H541 C538 0.929 . S
S542 N543 1.613 . S
S542 N544 1.610 . S
N543 S542 1.613 . S
N543 C546 1.350 . S
N544 S542 1.610 . S
N544 C545 1.351 . S
C545 C539 1.428 . S
C545 N544 1.351 . S
C545 C546 1.434 . S
C546 C537 1.429 . S
C546 N543 1.350 . S
C546 C545 1.434 . S
C547 C548 1.369 . S
C547 C549 1.419 . S
C547 H551 0.930 . S
C548 C547 1.369 . S
C548 C557 1.429 . S
C549 C547 1.419 . S
C549 C550 1.363 . S
C549 H552 0.929 . S
C550 C549 1.363 . S
C550 C556 1.428 . S
H551 C547 0.930 . S
H552 C549 0.929 . S
S553 N554 1.613 . S
S553 N555 1.610 . S
N554 S553 1.613 . S
N554 C557 1.350 . S
N555 S553 1.610 . S
N555 C556 1.351 . S
C556 C550 1.428 . S
C556 N555 1.351 . S
C556 C557 1.434 . S
C557 C548 1.429 . S
C557 N554 1.350 . S
C557 C556 1.434 . S
C558 C559 1.369 . S
C558 C560 1.419 . S
C558 H562 0.930 . S
C559 C558 1.369 . S
C559 C568 1.429 . S
C560 C558 1.419 . S
C560 C561 1.363 . S
C560 H563 0.929 . S
C561 C560 1.363 . S
C561 C567 1.428 . S
H562 C558 0.930 . S
H563 C560 0.929 . S
S564 N565 1.613 . S
S564 N566 1.610 . S
N565 S564 1.613 . S
N565 C568 1.350 . S
N566 S564 1.610 . S
N566 C567 1.351 . S
C567 C561 1.428 . S
C567 N566 1.351 . S
C567 C568 1.434 . S
C568 C559 1.429 . S
C568 N565 1.350 . S
C568 C567 1.434 . S
C569 C570 1.369 . S
C569 C571 1.419 . S
C569 H573 0.930 . S
C570 C569 1.369 . S
C570 C579 1.429 . S
C571 C569 1.419 . S
C571 C572 1.363 . S
C571 H574 0.929 . S
C572 C571 1.363 . S
C572 C578 1.428 . S
H573 C569 0.930 . S
H574 C571 0.929 . S
S575 N576 1.613 . S
S575 N577 1.610 . S
N576 S575 1.613 . S
N576 C579 1.350 . S
N577 S575 1.610 . S
N577 C578 1.351 . S
C578 C572 1.428 . S
C578 N577 1.351 . S
C578 C579 1.434 . S
C579 C570 1.429 . S
C579 N576 1.350 . S
C579 C578 1.434 . S
C580 C581 1.369 . S
C580 C582 1.419 . S
C580 H584 0.930 . S
C581 C580 1.369 . S
C581 C590 1.429 . S
C582 C580 1.419 . S
C582 C583 1.363 . S
C582 H585 0.929 . S
C583 C582 1.363 . S
C583 C589 1.428 . S
H584 C580 0.930 . S
H585 C582 0.929 . S
S586 N587 1.613 . S
S586 N588 1.610 . S
N587 S586 1.613 . S
N587 C590 1.350 . S
N588 S586 1.610 . S
N588 C589 1.351 . S
C589 C583 1.428 . S
C589 N588 1.351 . S
C589 C590 1.434 . S
C590 C581 1.429 . S
C590 N587 1.350 . S
C590 C589 1.434 . S
C591 C592 1.369 . S
C591 C593 1.419 . S
C591 H595 0.930 . S
C592 C591 1.369 . S
C592 C601 1.429 . S
C593 C591 1.419 . S
C593 C594 1.363 . S
C593 H596 0.929 . S
C594 C593 1.363 . S
C594 C600 1.428 . S
H595 C591 0.930 . S
H596 C593 0.929 . S
S597 N598 1.613 . S
S597 N599 1.610 . S
N598 S597 1.613 . S
N598 C601 1.350 . S
N599 S597 1.610 . S
N599 C600 1.351 . S
C600 C594 1.428 . S
C600 N599 1.351 . S
C600 C601 1.434 . S
C601 C592 1.429 . S
C601 N598 1.350 . S
C601 C600 1.434 . S
C602 C603 1.369 . S
C602 C604 1.419 . S
C602 H606 0.930 . S
C603 C602 1.369 . S
C603 C612 1.413 1_554 S
C604 C602 1.419 . S
C604 C605 1.363 1_554 S
C604 H607 0.929 . S
C605 C604 1.363 1_556 S
C605 C611 1.428 . S
H606 C602 0.930 . S
H607 C604 0.929 . S
S608 N609 1.613 . S
S608 N610 1.610 . S
N609 S608 1.613 . S
N609 C612 1.354 . S
N610 S608 1.610 . S
N610 C611 1.351 . S
C611 C605 1.428 . S
C611 N610 1.351 . S
C611 C612 1.448 . S
C612 C603 1.413 1_556 S
C612 N609 1.354 . S
C612 C611 1.448 . S
C613 C614 1.369 . S
C613 C615 1.419 . S
C613 H617 0.930 . S
C614 C613 1.369 . S
C614 C623 1.429 . S
C615 C613 1.419 . S
C615 C616 1.363 . S
C615 H618 0.929 . S
C616 C615 1.363 . S
C616 C622 1.428 . S
H617 C613 0.930 . S
H618 C615 0.929 . S
S619 N620 1.613 . S
S619 N621 1.610 . S
N620 S619 1.613 . S
N620 C623 1.350 . S
N621 S619 1.610 . S
N621 C622 1.351 . S
C622 C616 1.428 . S
C622 N621 1.351 . S
C622 C623 1.434 . S
C623 C614 1.429 . S
C623 N620 1.350 . S
C623 C622 1.434 . S
C363 C346 1.633 . S
C361 C15 1.593 . S
C372 C61 1.604 . S
C374 C287 1.645 . S
C383 C114 1.578 . S
C385 C290 1.629 . S
C394 C139 1.606 . S
C396 C304 1.634 . S
C407 C329 1.646 . S
C405 C185 1.616 . S
C416 C245 1.580 . S
C418 C332 1.629 . S
C427 C47 1.584 . S
C429 C301 1.615 . S
C438 C100 1.591 . S
C440 C315 1.618 . S
C449 C153 1.559 . S
C451 C318 1.601 . S
C462 C343 1.614 . S
C460 C199 1.566 . S
C473 C357 1.618 . S
C471 C231 1.593 . S
C484 C276 1.600 . S
C482 C1 1.573 . S
C493 C22 1.478 . S
C495 C299 1.477 . S
C504 C68 1.485 . S
C506 C313 1.484 . S
C517 C323 1.492 . S
C515 C107 1.487 . S
C526 C146 1.485 . S
C528 C341 1.474 . S
C539 C355 1.485 . S
C537 C192 1.488 . S
C550 C281 1.491 . S
C548 C252 1.488 . S
C561 C351 1.510 . S
C559 C54 1.507 . S
C570 C93 1.495 . S
C572 C285 1.490 . S
C583 C295 1.504 . S
C581 C160 1.498 . S
C592 C206 1.506 . S
C594 C309 1.510 . S
C603 C238 1.497 . S
C605 C327 1.492 . S
C614 C8 1.502 . S
C616 C337 1.504 . S
