# Generated by pormake.
# Topology pto, (3,4)-cn, num edge types: 1
# Building blocks:
#     Node 0, Type 0, BuildingBlock: KAKCAD_clean_linker_0, # of connection points: 3
#     Node 1, Type 0, BuildingBlock: KAKCAD_clean_linker_0, # of connection points: 3
#     Node 2, Type 0, BuildingBlock: KAKCAD_clean_linker_0, # of connection points: 3
#     Node 3, Type 0, BuildingBlock: KAKCAD_clean_linker_0, # of connection points: 3
#     Node 4, Type 0, BuildingBlock: KAKCAD_clean_linker_0, # of connection points: 3
#     Node 5, Type 0, BuildingBlock: KAKCAD_clean_linker_0, # of connection points: 3
#     Node 6, Type 0, BuildingBlock: KAKCAD_clean_linker_0, # of connection points: 3
#     Node 7, Type 0, BuildingBlock: KAKCAD_clean_linker_0, # of connection points: 3
#     Node 8, Type 1, BuildingBlock: KOZSID_clean_sbu_0, # of connection points: 4
#     Node 9, Type 1, BuildingBlock: KOZSID_clean_sbu_0, # of connection points: 4
#     Node 10, Type 1, BuildingBlock: KOZSID_clean_sbu_0, # of connection points: 4
#     Node 11, Type 1, BuildingBlock: KOZSID_clean_sbu_0, # of connection points: 4
#     Node 12, Type 1, BuildingBlock: KOZSID_clean_sbu_0, # of connection points: 4
#     Node 13, Type 1, BuildingBlock: KOZSID_clean_sbu_0, # of connection points: 4
#     Edge 14, Type (0, 1), BuildingBlock: AJUNOK_clean_linker_0, # of connection points: 2
#     Edge 15, Type (0, 1), BuildingBlock: AJUNOK_clean_linker_0, # of connection points: 2
#     Edge 16, Type (0, 1), BuildingBlock: AJUNOK_clean_linker_0, # of connection points: 2
#     Edge 17, Type (0, 1), BuildingBlock: AJUNOK_clean_linker_0, # of connection points: 2
#     Edge 18, Type (0, 1), BuildingBlock: AJUNOK_clean_linker_0, # of connection points: 2
#     Edge 19, Type (0, 1), BuildingBlock: AJUNOK_clean_linker_0, # of connection points: 2
#     Edge 20, Type (0, 1), BuildingBlock: AJUNOK_clean_linker_0, # of connection points: 2
#     Edge 21, Type (0, 1), BuildingBlock: AJUNOK_clean_linker_0, # of connection points: 2
#     Edge 22, Type (0, 1), BuildingBlock: AJUNOK_clean_linker_0, # of connection points: 2
#     Edge 23, Type (0, 1), BuildingBlock: AJUNOK_clean_linker_0, # of connection points: 2
#     Edge 24, Type (0, 1), BuildingBlock: AJUNOK_clean_linker_0, # of connection points: 2
#     Edge 25, Type (0, 1), BuildingBlock: AJUNOK_clean_linker_0, # of connection points: 2
#     Edge 26, Type (0, 1), BuildingBlock: AJUNOK_clean_linker_0, # of connection points: 2
#     Edge 27, Type (0, 1), BuildingBlock: AJUNOK_clean_linker_0, # of connection points: 2
#     Edge 28, Type (0, 1), BuildingBlock: AJUNOK_clean_linker_0, # of connection points: 2
#     Edge 29, Type (0, 1), BuildingBlock: AJUNOK_clean_linker_0, # of connection points: 2
#     Edge 30, Type (0, 1), BuildingBlock: AJUNOK_clean_linker_0, # of connection points: 2
#     Edge 31, Type (0, 1), BuildingBlock: AJUNOK_clean_linker_0, # of connection points: 2
#     Edge 32, Type (0, 1), BuildingBlock: AJUNOK_clean_linker_0, # of connection points: 2
#     Edge 33, Type (0, 1), BuildingBlock: AJUNOK_clean_linker_0, # of connection points: 2
#     Edge 34, Type (0, 1), BuildingBlock: AJUNOK_clean_linker_0, # of connection points: 2
#     Edge 35, Type (0, 1), BuildingBlock: AJUNOK_clean_linker_0, # of connection points: 2
#     Edge 36, Type (0, 1), BuildingBlock: AJUNOK_clean_linker_0, # of connection points: 2
#     Edge 37, Type (0, 1), BuildingBlock: AJUNOK_clean_linker_0, # of connection points: 2
# Relax obj value: 0.000
# Max RMSD: 0.029
# Mean RMSD: 0.012
data_MOF--net-pto--node1-KOZSID_clean_sbu_0--node2-KAKCAD_clean_linker_0--edge1-AJUNOK_clean_linker_0
_symmetry_space_group_name_H-M    P1
_symmetry_Int_Tables_number       1
_symmetry_cell_setting            triclinic
loop_
_symmetry_equiv_pos_as_xyz
'x, y, z'
_cell_length_a     37.477106
_cell_length_b     50.340429
_cell_length_c     43.973275
_cell_angle_alpha  87.525603
_cell_angle_beta   87.588429
_cell_angle_gamma 93.541015
loop_
_atom_site_label
_atom_site_type_symbol
_atom_site_fract_x
_atom_site_fract_y
_atom_site_fract_z
_atom_type_partial_charge
C0 C 0.29439 0.17486 0.37548 0.0
C1 C 0.26179 0.16563 0.39027 0.0
C2 C 0.29663 0.19818 0.35688 0.0
C3 C 0.2662 0.21271 0.35236 0.0
C4 C 0.23365 0.20355 0.36758 0.0
C5 C 0.23155 0.18035 0.38649 0.0
C6 C 0.26841 0.23695 0.3314 0.0
C7 C 0.29001 0.23781 0.30437 0.0
C8 C 0.29276 0.26048 0.28441 0.0
C9 C 0.273 0.2824 0.2915 0.0
C10 C 0.25084 0.28193 0.31817 0.0
C11 C 0.2489 0.25917 0.33807 0.0
C12 C 0.22922 0.30506 0.32474 0.0
C13 C 0.24377 0.33132 0.31897 0.0
C14 C 0.19339 0.30104 0.33568 0.0
C15 C 0.17234 0.32272 0.33983 0.0
C16 C 0.18659 0.34889 0.33303 0.0
C17 C 0.31619 0.26114 0.25612 0.0
C18 C 0.34994 0.25037 0.25649 0.0
C19 C 0.30511 0.27251 0.22857 0.0
C20 C 0.32719 0.27303 0.20206 0.0
C21 C 0.36073 0.26201 0.20243 0.0
C22 C 0.37192 0.2508 0.22997 0.0
C23 C 0.22271 0.35298 0.3231 0.0
H24 H 0.31826 0.16412 0.37852 0.0
H25 H 0.32235 0.20489 0.34617 0.0
H26 H 0.20956 0.21397 0.36441 0.0
H27 H 0.20609 0.17359 0.39766 0.0
H28 H 0.3041 0.22049 0.2984 0.0
H29 H 0.2327 0.25901 0.35908 0.0
H30 H 0.27474 0.29986 0.27611 0.0
H31 H 0.27143 0.33516 0.31103 0.0
H32 H 0.18127 0.2811 0.34024 0.0
H33 H 0.14478 0.31899 0.34811 0.0
H34 H 0.35958 0.24182 0.27738 0.0
H35 H 0.27919 0.2808 0.22737 0.0
H36 H 0.23444 0.37293 0.31776 0.0
H37 H 0.39764 0.24216 0.23096 0.0
H38 H 0.31811 0.28228 0.18133 0.0
C39 C 0.32737 0.80317 0.83217 0.0
C40 C 0.34465 0.78029 0.84113 0.0
C41 C 0.30412 0.80261 0.80809 0.0
C42 C 0.29757 0.77913 0.79241 0.0
C43 C 0.3149 0.75626 0.80145 0.0
C44 C 0.33796 0.75679 0.82561 0.0
C45 C 0.27249 0.77835 0.76698 0.0
C46 C 0.27175 0.80005 0.74589 0.0
C47 C 0.24771 0.79973 0.72208 0.0
C48 C 0.22519 0.77658 0.71896 0.0
C49 C 0.22614 0.7543 0.73938 0.0
C50 C 0.2493 0.75577 0.76368 0.0
C51 C 0.20345 0.72929 0.73538 0.0
C52 C 0.16876 0.73001 0.72438 0.0
C53 C 0.21654 0.70428 0.74267 0.0
C54 C 0.19534 0.6808 0.73984 0.0
C55 C 0.16061 0.6815 0.72912 0.0
C56 C 0.24632 0.82359 0.70069 0.0
C57 C 0.25294 0.84947 0.711 0.0
C58 C 0.23835 0.8209 0.66991 0.0
C59 C 0.23699 0.84335 0.65015 0.0
C60 C 0.24456 0.86912 0.66036 0.0
C61 C 0.25245 0.87183 0.69108 0.0
C62 C 0.14775 0.7064 0.72101 0.0
H63 H 0.33197 0.82157 0.84371 0.0
H64 H 0.29087 0.82049 0.80206 0.0
H65 H 0.31083 0.7379 0.78975 0.0
H66 H 0.35022 0.73866 0.83238 0.0
H67 H 0.29056 0.81705 0.74772 0.0
H68 H 0.24892 0.73937 0.78049 0.0
H69 H 0.20694 0.77584 0.70057 0.0
H70 H 0.15753 0.74879 0.71869 0.0
H71 H 0.24338 0.70272 0.75048 0.0
H72 H 0.20615 0.66202 0.74635 0.0
H73 H 0.25828 0.85264 0.73461 0.0
H74 H 0.23344 0.80144 0.66082 0.0
H75 H 0.12151 0.7077 0.71187 0.0
H76 H 0.2585 0.89131 0.69982 0.0
H77 H 0.2297 0.84044 0.62692 0.0
C78 C 0.6938 0.75169 0.22911 0.0
C79 C 0.69178 0.77537 0.21131 0.0
C80 C 0.71537 0.75099 0.2543 0.0
C81 C 0.7355 0.77397 0.26228 0.0
C82 C 0.73324 0.7977 0.24454 0.0
C83 C 0.71149 0.79843 0.21949 0.0
C84 C 0.75897 0.77319 0.28884 0.0
C85 C 0.77876 0.7509 0.29506 0.0
C86 C 0.8016 0.75028 0.31958 0.0
C87 C 0.80472 0.77236 0.33802 0.0
C88 C 0.78496 0.7948 0.33238 0.0
C89 C 0.76205 0.79491 0.30784 0.0
C90 C 0.78803 0.81816 0.35202 0.0
C91 C 0.78919 0.8146 0.38386 0.0
C92 C 0.78915 0.84426 0.33905 0.0
C93 C 0.79111 0.86623 0.35744 0.0
C94 C 0.79219 0.86265 0.38924 0.0
C95 C 0.82259 0.72663 0.32546 0.0
C96 C 0.806 0.70081 0.32564 0.0
C97 C 0.85948 0.72964 0.32997 0.0
C98 C 0.8795 0.70728 0.33396 0.0
C99 C 0.86295 0.68141 0.33405 0.0
C100 C 0.82591 0.67848 0.33001 0.0
C101 C 0.79114 0.83661 0.40226 0.0
H102 H 0.67889 0.73359 0.2234 0.0
H103 H 0.71599 0.73246 0.26767 0.0
H104 H 0.7486 0.81573 0.24977 0.0
H105 H 0.7099 0.81714 0.20667 0.0
H106 H 0.77729 0.73426 0.28024 0.0
H107 H 0.74598 0.81178 0.3039 0.0
H108 H 0.82261 0.77205 0.35675 0.0
H109 H 0.78793 0.79479 0.39464 0.0
H110 H 0.78863 0.84775 0.3146 0.0
H111 H 0.7912 0.88603 0.34677 0.0
H112 H 0.77753 0.6979 0.32247 0.0
H113 H 0.87306 0.7493 0.32949 0.0
H114 H 0.7919 0.83326 0.42672 0.0
H115 H 0.8123 0.65885 0.33014 0.0
H116 H 0.90812 0.71029 0.33613 0.0
C117 C 0.81405 0.20116 0.69072 0.0
C118 C 0.78271 0.18565 0.68515 0.0
C119 C 0.81259 0.22337 0.70873 0.0
C120 C 0.77973 0.23056 0.72153 0.0
C121 C 0.74832 0.21534 0.71537 0.0
C122 C 0.74979 0.19321 0.69734 0.0
C123 C 0.77817 0.2534 0.74188 0.0
C124 C 0.79849 0.27749 0.7347 0.0
C125 C 0.79704 0.29905 0.75403 0.0
C126 C 0.77504 0.29606 0.78084 0.0
C127 C 0.75439 0.27226 0.78831 0.0
C128 C 0.75625 0.25103 0.76873 0.0
C129 C 0.7306 0.26976 0.81642 0.0
C130 C 0.74198 0.28035 0.84373 0.0
C131 C 0.69603 0.25722 0.81599 0.0
C132 C 0.67325 0.25566 0.84211 0.0
C133 C 0.68441 0.26675 0.86918 0.0
C134 C 0.81833 0.32472 0.74647 0.0
C135 C 0.85325 0.32507 0.73331 0.0
C136 C 0.80425 0.34916 0.75337 0.0
C137 C 0.82482 0.37315 0.74815 0.0
C138 C 0.85979 0.37349 0.73524 0.0
C139 C 0.87369 0.34916 0.72771 0.0
C140 C 0.71914 0.27887 0.8698 0.0
H141 H 0.8398 0.19579 0.68163 0.0
H142 H 0.8373 0.23453 0.71323 0.0
H143 H 0.7225 0.22065 0.72436 0.0
H144 H 0.72507 0.18209 0.69276 0.0
H145 H 0.81468 0.27966 0.71365 0.0
H146 H 0.74119 0.23235 0.77478 0.0
H147 H 0.77384 0.3124 0.79601 0.0
H148 H 0.76862 0.28976 0.84502 0.0
H149 H 0.68631 0.24899 0.79531 0.0
H150 H 0.6469 0.24569 0.84112 0.0
H151 H 0.8652 0.30669 0.728 0.0
H152 H 0.77729 0.34983 0.76304 0.0
H153 H 0.7285 0.28754 0.89036 0.0
H154 H 0.90054 0.34873 0.71769 0.0
H155 H 0.81352 0.39137 0.75497 0.0
C156 C 0.77703 0.85184 0.66512 0.0
C157 C 0.78632 0.87687 0.67671 0.0
C158 C 0.77513 0.82868 0.68409 0.0
C159 C 0.78194 0.8301 0.71514 0.0
C160 C 0.79175 0.85493 0.7267 0.0
C161 C 0.7944 0.878 0.70762 0.0
C162 C 0.77773 0.80587 0.73572 0.0
C163 C 0.79627 0.78318 0.72926 0.0
C164 C 0.79263 0.76033 0.74907 0.0
C165 C 0.76917 0.76025 0.77494 0.0
C166 C 0.75032 0.78272 0.78166 0.0
C167 C 0.75509 0.80555 0.76203 0.0
C168 C 0.72585 0.78233 0.80927 0.0
C169 C 0.70267 0.75984 0.81731 0.0
C170 C 0.72566 0.80433 0.82791 0.0
C171 C 0.70306 0.80376 0.85411 0.0
C172 C 0.68016 0.78118 0.86226 0.0
C173 C 0.81389 0.73678 0.74342 0.0
C174 C 0.81975 0.72793 0.71378 0.0
C175 C 0.82836 0.72279 0.76791 0.0
C176 C 0.84761 0.70035 0.76303 0.0
C177 C 0.85326 0.69144 0.73351 0.0
C178 C 0.83928 0.7055 0.70888 0.0
C179 C 0.68 0.75932 0.84345 0.0
H180 H 0.77053 0.8502 0.64149 0.0
H181 H 0.76736 0.80975 0.67469 0.0
H182 H 0.79761 0.85646 0.7505 0.0
H183 H 0.80296 0.8967 0.71713 0.0
H184 H 0.81442 0.78374 0.70936 0.0
H185 H 0.74041 0.82292 0.76674 0.0
H186 H 0.76574 0.74267 0.79014 0.0
H187 H 0.70181 0.7427 0.80323 0.0
H188 H 0.74332 0.82189 0.82247 0.0
H189 H 0.7033 0.82109 0.86789 0.0
H190 H 0.80869 0.73801 0.69442 0.0
H191 H 0.82513 0.72931 0.79096 0.0
H192 H 0.66256 0.74168 0.84916 0.0
H193 H 0.84287 0.69885 0.68592 0.0
H194 H 0.85843 0.69007 0.78239 0.0
C195 C 0.69096 0.25438 0.24808 0.0
C196 C 0.70521 0.26131 0.21849 0.0
C197 C 0.71311 0.2541 0.27291 0.0
C198 C 0.74991 0.26104 0.26873 0.0
C199 C 0.76432 0.26761 0.23917 0.0
C200 C 0.74229 0.26745 0.21428 0.0
C201 C 0.77306 0.26207 0.29525 0.0
C202 C 0.77237 0.24053 0.31667 0.0
C203 C 0.79368 0.24156 0.3423 0.0
C204 C 0.81551 0.26488 0.34635 0.0
C205 C 0.81674 0.28652 0.32487 0.0
C206 C 0.79555 0.28482 0.29935 0.0
C207 C 0.8397 0.31116 0.32899 0.0
C208 C 0.83971 0.32341 0.35713 0.0
C209 C 0.86071 0.3232 0.30431 0.0
C210 C 0.88077 0.34718 0.30751 0.0
C211 C 0.87999 0.35981 0.33536 0.0
C212 C 0.79356 0.21804 0.36427 0.0
C213 C 0.76188 0.20201 0.37129 0.0
C214 C 0.8253 0.21083 0.37763 0.0
C215 C 0.82542 0.18803 0.39704 0.0
C216 C 0.79397 0.17173 0.40317 0.0
C217 C 0.76215 0.17907 0.39035 0.0
C218 C 0.85956 0.34758 0.36024 0.0
H219 H 0.66253 0.24963 0.25215 0.0
H220 H 0.70131 0.24911 0.29551 0.0
H221 H 0.79271 0.27266 0.2353 0.0
H222 H 0.75438 0.27198 0.19171 0.0
H223 H 0.75585 0.22268 0.31279 0.0
H224 H 0.79569 0.30162 0.28304 0.0
H225 H 0.8317 0.26623 0.36613 0.0
H226 H 0.82365 0.31468 0.3765 0.0
H227 H 0.86151 0.3141 0.28243 0.0
H228 H 0.89632 0.35618 0.28798 0.0
H229 H 0.73675 0.20718 0.36208 0.0
H230 H 0.85032 0.22239 0.37252 0.0
H231 H 0.85887 0.35674 0.38208 0.0
H232 H 0.73739 0.16707 0.39521 0.0
H233 H 0.85031 0.18275 0.40665 0.0
C234 C 0.31639 0.26962 0.85527 0.0
C235 C 0.35235 0.2636 0.85089 0.0
C236 C 0.2941 0.27112 0.83062 0.0
C237 C 0.30715 0.26639 0.80105 0.0
C238 C 0.34304 0.26036 0.79659 0.0
C239 C 0.36549 0.25925 0.82118 0.0
C240 C 0.28338 0.26793 0.77493 0.0
C241 C 0.26231 0.2898 0.77082 0.0
C242 C 0.23939 0.29146 0.74637 0.0
C243 C 0.23762 0.27063 0.72599 0.0
C244 C 0.25857 0.24853 0.72974 0.0
C245 C 0.28153 0.24749 0.75422 0.0
C246 C 0.25616 0.22625 0.70853 0.0
C247 C 0.22279 0.21617 0.69905 0.0
C248 C 0.28721 0.2144 0.69827 0.0
C249 C 0.28493 0.19287 0.67923 0.0
C250 C 0.25158 0.18267 0.66994 0.0
C251 C 0.21765 0.31508 0.74221 0.0
C252 C 0.2017 0.32655 0.76761 0.0
C253 C 0.2134 0.32681 0.71303 0.0
C254 C 0.19429 0.34972 0.70947 0.0
C255 C 0.17928 0.36149 0.735 0.0
C256 C 0.18279 0.34946 0.76404 0.0
C257 C 0.22052 0.19457 0.68004 0.0
H258 H 0.30537 0.27296 0.87785 0.0
H259 H 0.26646 0.27562 0.83473 0.0
H260 H 0.35392 0.25702 0.77396 0.0
H261 H 0.3933 0.2554 0.81681 0.0
H262 H 0.26452 0.3059 0.78635 0.0
H263 H 0.29722 0.23033 0.75776 0.0
H264 H 0.21989 0.27159 0.70719 0.0
H265 H 0.19832 0.22455 0.70693 0.0
H266 H 0.31337 0.22187 0.70483 0.0
H267 H 0.30935 0.18425 0.67163 0.0
H268 H 0.2037 0.31775 0.79034 0.0
H269 H 0.22558 0.31868 0.69299 0.0
H270 H 0.19436 0.18682 0.67381 0.0
H271 H 0.17072 0.35774 0.78405 0.0
H272 H 0.19194 0.35859 0.68681 0.0
C273 C 0.25577 0.85859 0.34892 0.0
C274 C 0.25505 0.85411 0.38072 0.0
C275 C 0.257 0.83728 0.32958 0.0
C276 C 0.2575 0.81096 0.34157 0.0
C277 C 0.25695 0.80647 0.37338 0.0
C278 C 0.25594 0.82781 0.39272 0.0
C279 C 0.25867 0.78831 0.32092 0.0
C280 C 0.28148 0.79024 0.29454 0.0
C281 C 0.28261 0.76911 0.2747 0.0
C282 C 0.26012 0.74602 0.28127 0.0
C283 C 0.2371 0.74369 0.30742 0.0
C284 C 0.2368 0.76481 0.32732 0.0
C285 C 0.21319 0.71921 0.31357 0.0
C286 C 0.19311 0.7085 0.29018 0.0
C287 C 0.21103 0.70595 0.34245 0.0
C288 C 0.18984 0.68214 0.34761 0.0
C289 C 0.16993 0.67143 0.32415 0.0
C290 C 0.3073 0.77098 0.24717 0.0
C291 C 0.31122 0.79442 0.22842 0.0
C292 C 0.3269 0.74915 0.23927 0.0
C293 C 0.34962 0.75063 0.21313 0.0
C294 C 0.35309 0.7739 0.19416 0.0
C295 C 0.33385 0.79585 0.20218 0.0
C296 C 0.17162 0.68493 0.29545 0.0
H297 H 0.25493 0.87859 0.33898 0.0
H298 H 0.25702 0.8414 0.3052 0.0
H299 H 0.2579 0.78648 0.38332 0.0
H300 H 0.25637 0.82373 0.41708 0.0
H301 H 0.29909 0.80797 0.28987 0.0
H302 H 0.21867 0.76326 0.34727 0.0
H303 H 0.2605 0.72974 0.26592 0.0
H304 H 0.19407 0.71838 0.26775 0.0
H305 H 0.22642 0.71365 0.36082 0.0
H306 H 0.18901 0.67206 0.36992 0.0
H307 H 0.29638 0.81153 0.23379 0.0
H308 H 0.32487 0.73093 0.25344 0.0
H309 H 0.15691 0.67691 0.27687 0.0
H310 H 0.33648 0.8142 0.18824 0.0
H311 H 0.36418 0.73343 0.20752 0.0
C312 C 0.07857 0.55527 0.36594 0.0
C313 C 0.08965 0.56418 0.39366 0.0
C314 C 0.07094 0.54864 0.4158 0.0
C315 C 0.04947 0.5313 0.40041 0.0
N316 N 0.05382 0.53442 0.36975 0.0
Co317 Co 0.02543 0.51524 0.33873 0.0
N318 N 0.99551 0.49405 0.37133 0.0
C319 C 0.99844 0.49525 0.40181 0.0
C320 C 0.97632 0.47684 0.41845 0.0
C321 C 0.95864 0.46264 0.39737 0.0
C322 C 0.97089 0.4734 0.36895 0.0
N323 N 0.99651 0.49663 0.30771 0.0
C324 C 0.97092 0.47638 0.31144 0.0
C325 C 0.95766 0.46908 0.2838 0.0
C326 C 0.97622 0.48481 0.26172 0.0
C327 C 0.99949 0.50086 0.27708 0.0
N328 N 0.05592 0.53582 0.30611 0.0
C329 C 0.05439 0.53357 0.27563 0.0
C330 C 0.07837 0.55068 0.25901 0.0
C331 C 0.09587 0.56503 0.28008 0.0
C332 C 0.08129 0.55591 0.30844 0.0
N333 N 0.05934 0.48635 0.33832 0.0
C334 C 0.10154 0.44188 0.33796 0.0
C335 C 0.08967 0.45305 0.31091 0.0
C336 C 0.0689 0.47509 0.31159 0.0
C337 C 0.09339 0.45408 0.36509 0.0
C338 C 0.07238 0.47614 0.36477 0.0
N339 N 0.99152 0.54414 0.33909 0.0
C340 C 0.96241 0.57921 0.31234 0.0
C341 C 0.94808 0.58802 0.33964 0.0
C342 C 0.95494 0.57394 0.36665 0.0
C343 C 0.97663 0.55229 0.36587 0.0
C344 C 0.98365 0.55739 0.31256 0.0
H345 H 0.98121 0.54263 0.38725 0.0
H346 H 0.99382 0.5519 0.29094 0.0
H347 H 0.06044 0.48239 0.29019 0.0
H348 H 0.06651 0.48426 0.38624 0.0
C349 C 0.02363 0.51288 0.41404 0.0
C350 C 0.09059 0.56823 0.33668 0.0
C351 C 0.95989 0.46241 0.34037 0.0
C352 C 0.02722 0.51765 0.26333 0.0
H353 H 0.10853 0.58069 0.39754 0.0
H354 H 0.07198 0.55037 0.4402 0.0
H355 H 0.9742 0.47354 0.44297 0.0
H356 H 0.93966 0.4458 0.4024 0.0
H357 H 0.93749 0.4534 0.27996 0.0
H358 H 0.97411 0.48383 0.23731 0.0
H359 H 0.08158 0.55328 0.23446 0.0
H360 H 0.1161 0.5811 0.27515 0.0
H361 H 0.09627 0.44472 0.28922 0.0
H362 H 0.10239 0.44623 0.38657 0.0
H363 H 0.95779 0.58942 0.29079 0.0
H364 H 0.94357 0.5795 0.38833 0.0
C365 C 0.06705 0.56584 0.75217 0.0
C366 C 0.07933 0.57366 0.77997 0.0
C367 C 0.06074 0.55784 0.80193 0.0
C368 C 0.03846 0.54121 0.78636 0.0
N369 N 0.04215 0.54512 0.75571 0.0
Co370 Co 0.01464 0.52575 0.72436 0.0
N371 N 0.98409 0.50481 0.75671 0.0
C372 C 0.98535 0.50694 0.78724 0.0
C373 C 0.96114 0.48989 0.80367 0.0
C374 C 0.94367 0.47573 0.78244 0.0
C375 C 0.95849 0.48489 0.75416 0.0
N376 N 0.98733 0.50612 0.69302 0.0
C377 C 0.96223 0.48547 0.69654 0.0
C378 C 0.95214 0.4763 0.66862 0.0
C379 C 0.97146 0.49167 0.64673 0.0
C380 C 0.99239 0.50913 0.66239 0.0
N381 N 0.04493 0.54702 0.69206 0.0
C382 C 0.04327 0.54523 0.66154 0.0
C383 C 0.06548 0.56368 0.64507 0.0
C384 C 0.08189 0.57852 0.66629 0.0
C385 C 0.06884 0.56809 0.69463 0.0
N386 N 0.0495 0.49742 0.72484 0.0
C387 C 0.09595 0.4553 0.72599 0.0
C388 C 0.08682 0.46732 0.69841 0.0
C389 C 0.0639 0.48828 0.69836 0.0
C390 C 0.08161 0.46481 0.75292 0.0
C391 C 0.05884 0.48571 0.75184 0.0
N392 N 0.97993 0.55409 0.72397 0.0
C393 C 0.94673 0.58645 0.69647 0.0
C394 C 0.93581 0.59754 0.72366 0.0
C395 C 0.94639 0.58596 0.75097 0.0
C396 C 0.96817 0.56447 0.75061 0.0
C397 C 0.96853 0.56483 0.69714 0.0
H398 H 0.97564 0.55691 0.77221 0.0
H399 H 0.97618 0.55733 0.67569 0.0
H400 H 0.058 0.49658 0.67662 0.0
H401 H 0.04875 0.49172 0.77322 0.0
C402 C 0.01136 0.52371 0.79984 0.0
C403 C 0.07821 0.57979 0.72324 0.0
C404 C 0.94846 0.47316 0.72572 0.0
C405 C 0.01851 0.52745 0.64905 0.0
H406 H 0.09884 0.58975 0.78398 0.0
H407 H 0.06224 0.55905 0.82636 0.0
H408 H 0.95736 0.4875 0.8282 0.0
H409 H 0.92294 0.46 0.78725 0.0
H410 H 0.9334 0.45978 0.66443 0.0
H411 H 0.97112 0.48978 0.62231 0.0
H412 H 0.0683 0.56669 0.62054 0.0
H413 H 0.10048 0.59561 0.66134 0.0
H414 H 0.09739 0.46063 0.67695 0.0
H415 H 0.0873 0.45578 0.77485 0.0
H416 H 0.93847 0.59437 0.67476 0.0
H417 H 0.93858 0.59387 0.77262 0.0
C418 C 0.2792 0.97956 0.57296 0.0
C419 C 0.31116 0.97247 0.58494 0.0
C420 C 0.33783 0.9878 0.56948 0.0
C421 C 0.32072 1.00347 0.54923 0.0
N422 N 0.28464 0.99943 0.55115 0.0
Co423 Co 0.24939 0.01795 0.52595 0.0
N424 N 0.28881 0.03882 0.50131 0.0
C425 C 0.32445 0.03739 0.50427 0.0
C426 C 0.34496 0.05492 0.48514 0.0
C427 C 0.32107 0.0686 0.46915 0.0
C428 C 0.28716 0.05848 0.47938 0.0
N429 N 0.21412 0.03662 0.50088 0.0
C430 C 0.21955 0.0564 0.47893 0.0
C431 C 0.18752 0.06408 0.46764 0.0
C432 C 0.16084 0.04906 0.48346 0.0
C433 C 0.17801 0.03305 0.50332 0.0
N434 N 0.20999 0.9969 0.55046 0.0
C435 C 0.17436 0.99826 0.54741 0.0
C436 C 0.15388 0.98021 0.56593 0.0
C437 C 0.17779 0.96619 0.58149 0.0
C438 C 0.21168 0.97667 0.57169 0.0
N439 N 0.24829 0.04697 0.55533 0.0
C440 C 0.24716 0.09047 0.59374 0.0
C441 C 0.21541 0.07811 0.58425 0.0
C442 C 0.21657 0.05652 0.56531 0.0
C443 C 0.27939 0.08024 0.5844 0.0
C444 C 0.27935 0.05872 0.56536 0.0
N445 N 0.25052 0.98896 0.49662 0.0
C446 C 0.21951 0.95619 0.46686 0.0
C447 C 0.25163 0.94517 0.45862 0.0
C448 C 0.28331 0.95703 0.46888 0.0
C449 C 0.28217 0.97873 0.48765 0.0
C450 C 0.21956 0.97784 0.48571 0.0
H451 H 0.30721 0.98666 0.49494 0.0
H452 H 0.19415 0.98508 0.49135 0.0
H453 H 0.19145 0.04804 0.55884 0.0
H454 H 0.30487 0.05224 0.55876 0.0
C455 C 0.33781 0.02094 0.52692 0.0
C456 C 0.24465 0.96588 0.58198 0.0
C457 C 0.25428 0.06905 0.46865 0.0
C458 C 0.161 0.01519 0.52526 0.0
H459 H 0.31488 0.95728 0.6025 0.0
H460 H 0.36635 0.98709 0.5721 0.0
H461 H 0.37383 0.05803 0.48373 0.0
H462 H 0.32792 0.0847 0.45242 0.0
H463 H 0.18381 0.07928 0.45009 0.0
H464 H 0.1323 0.05003 0.48116 0.0
H465 H 0.12502 0.97695 0.56713 0.0
H466 H 0.17091 0.94961 0.59756 0.0
H467 H 0.18972 0.08499 0.5915 0.0
H468 H 0.30469 0.08916 0.59124 0.0
H469 H 0.19434 0.94819 0.45873 0.0
H470 H 0.3089 0.94928 0.46294 0.0
C471 C 0.4642 0.80295 0.07277 0.0
C472 C 0.45494 0.82736 0.0832 0.0
C473 C 0.47538 0.84647 0.06638 0.0
C474 C 0.49604 0.83272 0.04688 0.0
N475 N 0.48978 0.80595 0.0499 0.0
Co476 Co 0.51599 0.77847 0.0277 0.0
N477 N 0.54682 0.80665 0.00361 0.0
C478 C 0.54496 0.83334 0.00476 0.0
C479 C 0.56806 0.84768 0.98437 0.0
C480 C 0.58546 0.82906 0.96893 0.0
C481 C 0.57206 0.80432 0.98102 0.0
N482 N 0.54302 0.75098 0.00633 0.0
C483 C 0.56946 0.75393 0.9842 0.0
C484 C 0.58128 0.72954 0.97598 0.0
C485 C 0.5612 0.71045 0.99317 0.0
C486 C 0.53852 0.72421 0.01096 0.0
N487 N 0.48432 0.75031 0.05097 0.0
C488 C 0.48435 0.72365 0.04814 0.0
C489 C 0.4593 0.70935 0.06686 0.0
C490 C 0.44237 0.72794 0.08278 0.0
C491 C 0.45834 0.75261 0.07294 0.0
N492 N 0.48121 0.77892 0.99478 0.0
C493 C 0.43612 0.77991 0.9451 0.0
C494 C 0.44883 0.75605 0.95614 0.0
C495 C 0.47096 0.75597 0.98089 0.0
C496 C 0.44524 0.80314 0.95995 0.0
C497 C 0.46777 0.80223 0.98449 0.0
N498 N 0.55084 0.77801 0.06057 0.0
C499 C 0.58081 0.75398 0.09985 0.0
C500 C 0.59852 0.77746 0.10847 0.0
C501 C 0.59219 0.80123 0.09266 0.0
C502 C 0.56838 0.80107 0.06902 0.0
C503 C 0.5575 0.75466 0.0759 0.0
H504 H 0.56439 0.81988 0.05813 0.0
H505 H 0.54506 0.73603 0.07035 0.0
H506 H 0.47972 0.73712 0.98814 0.0
H507 H 0.47431 0.8207 0.99447 0.0
C508 C 0.52143 0.84434 0.02542 0.0
C509 C 0.44867 0.7775 0.0859 0.0
C510 C 0.58347 0.77924 0.96967 0.0
C511 C 0.51049 0.71258 0.02995 0.0
H512 H 0.4357 0.83102 0.10135 0.0
H513 H 0.47547 0.86783 0.06837 0.0
H514 H 0.57155 0.86912 0.98092 0.0
H515 H 0.60548 0.83324 0.95061 0.0
H516 H 0.60183 0.72591 0.95889 0.0
H517 H 0.56227 0.68907 0.99215 0.0
H518 H 0.45463 0.68791 0.06932 0.0
H519 H 0.42117 0.7238 0.10013 0.0
H520 H 0.4417 0.73746 0.94571 0.0
H521 H 0.43575 0.82206 0.95219 0.0
H522 H 0.58512 0.73508 0.11141 0.0
H523 H 0.60504 0.81997 0.09888 0.0
C524 C 0.82377 0.98563 0.58447 0.0
C525 C 0.85639 0.9793 0.59576 0.0
C526 C 0.88212 0.99512 0.57973 0.0
C527 C 0.86384 0.01033 0.55985 0.0
N528 N 0.82792 0.00532 0.56231 0.0
Co529 Co 0.7913 0.02357 0.53833 0.0
N530 N 0.82937 0.04549 0.51332 0.0
C531 C 0.86518 0.04394 0.51465 0.0
C532 C 0.88464 0.06121 0.49445 0.0
C533 C 0.85981 0.07479 0.47944 0.0
C534 C 0.8265 0.06512 0.49159 0.0
N535 N 0.75465 0.04246 0.51502 0.0
C536 C 0.75881 0.0632 0.49412 0.0
C537 C 0.72602 0.07179 0.48552 0.0
C538 C 0.70028 0.05589 0.50137 0.0
C539 C 0.71865 0.03874 0.5189 0.0
N540 N 0.75324 1.00101 0.56269 0.0
C541 C 0.71747 1.00108 0.55963 0.0
C542 C 0.69807 0.98201 0.5776 0.0
C543 C 0.72288 0.96873 0.59291 0.0
C544 C 0.75618 0.98073 0.58364 0.0
N545 N 0.79015 0.0516 0.56882 0.0
C546 C 0.78811 0.09366 0.60913 0.0
C547 C 0.75679 0.07917 0.60207 0.0
C548 C 0.75841 0.05835 0.58211 0.0
C549 C 0.8205 0.08648 0.59607 0.0
C550 C 0.82095 0.06548 0.57631 0.0
N551 N 0.79245 0.99552 0.50781 0.0
C552 C 0.76159 0.96485 0.47539 0.0
C553 C 0.79355 0.95361 0.46722 0.0
C554 C 0.82502 0.96393 0.4794 0.0
C555 C 0.82391 0.98477 0.49934 0.0
C556 C 0.76165 0.98568 0.49541 0.0
H557 H 0.84881 0.99157 0.50792 0.0
H558 H 0.73639 0.99331 0.50069 0.0
H559 H 0.73356 0.04826 0.57746 0.0
H560 H 0.84652 0.06103 0.56716 0.0
C561 C 0.87972 0.02786 0.53701 0.0
C562 C 0.78977 0.9718 0.59496 0.0
C563 C 0.79308 0.07583 0.48239 0.0
C564 C 0.70289 0.01915 0.53946 0.0
H565 H 0.86117 0.96445 0.6134 0.0
H566 H 0.91079 0.99509 0.58182 0.0
H567 H 0.91347 0.06412 0.49159 0.0
H568 H 0.8656 0.09043 0.46194 0.0
H569 H 0.7211 0.0881 0.46974 0.0
H570 H 0.67157 0.05698 0.50058 0.0
H571 H 0.66933 0.97798 0.57903 0.0
H572 H 0.71702 0.95188 0.60883 0.0
H573 H 0.73098 0.08424 0.61134 0.0
H574 H 0.84549 0.09703 0.60111 0.0
H575 H 0.73655 0.95761 0.46632 0.0
H576 H 0.85039 0.95558 0.47412 0.0
C577 C 0.47025 0.28765 0.07944 0.0
C578 C 0.45786 0.31212 0.08671 0.0
C579 C 0.47825 0.33103 0.06952 0.0
C580 C 0.50163 0.31709 0.05263 0.0
N581 N 0.49733 0.29039 0.05789 0.0
Co582 Co 0.52483 0.2627 0.03738 0.0
N583 N 0.55673 0.29063 0.0141 0.0
C584 C 0.55714 0.31727 0.01704 0.0
C585 C 0.58251 0.3314 0.99845 0.0
C586 C 0.59918 0.31267 0.98254 0.0
C587 C 0.58272 0.28813 0.99224 0.0
N588 N 0.55103 0.23502 0.01557 0.0
C589 C 0.57628 0.23783 0.99244 0.0
C590 C 0.58536 0.21334 0.98215 0.0
C591 C 0.56506 0.19436 0.99929 0.0
C592 C 0.54464 0.20829 0.01882 0.0
N593 N 0.49413 0.23477 0.0619 0.0
C594 C 0.49664 0.20809 0.06163 0.0
C595 C 0.4738 0.19395 0.08239 0.0
C596 C 0.45588 0.21271 0.09714 0.0
C597 C 0.46869 0.23732 0.08427 0.0
N598 N 0.49031 0.26267 0.00428 0.0
C599 C 0.44478 0.26205 0.95474 0.0
C600 C 0.44884 0.23896 0.97275 0.0
C601 C 0.47171 0.23966 0.99706 0.0
C602 C 0.46308 0.28562 0.96259 0.0
C603 C 0.48531 0.28553 0.98731 0.0
N604 N 0.55955 0.26274 0.07042 0.0
C605 C 0.59992 0.23966 0.10235 0.0
C606 C 0.60855 0.26285 0.11754 0.0
C607 C 0.59187 0.2859 0.10893 0.0
C608 C 0.56802 0.28549 0.08535 0.0
C609 C 0.57548 0.24001 0.07919 0.0
H610 H 0.55667 0.30386 0.07979 0.0
H611 H 0.56992 0.22157 0.0688 0.0
H612 H 0.47406 0.22127 0.00955 0.0
H613 H 0.49845 0.30418 0.99204 0.0
C614 C 0.5304 0.32851 0.03437 0.0
C615 C 0.4564 0.26254 0.09451 0.0
C616 C 0.59152 0.2632 0.97895 0.0
C617 C 0.51983 0.19689 0.04086 0.0
H618 H 0.43679 0.31593 0.10325 0.0
H619 H 0.47698 0.35243 0.07002 0.0
H620 H 0.58733 0.35282 0.99588 0.0
H621 H 0.62035 0.31665 0.96513 0.0
H622 H 0.6044 0.20955 0.9639 0.0
H623 H 0.56495 0.17298 0.99755 0.0
H624 H 0.47063 0.17255 0.08638 0.0
H625 H 0.43583 0.20869 0.11546 0.0
H626 H 0.43433 0.22037 0.96826 0.0
H627 H 0.46071 0.30407 0.94942 0.0
H628 H 0.61213 0.22127 0.10818 0.0
H629 H 0.59673 0.30421 0.12058 0.0
C630 C 0.17556 0.39466 0.35052 0.0
C631 C 0.16372 0.37192 0.3353 0.0
C632 C 0.155 0.41701 0.35188 0.0
C633 C 0.12207 0.41757 0.33772 0.0
H634 H 0.20095 0.39518 0.36145 0.0
H635 H 0.16531 0.4342 0.36352 0.0
S636 S 0.07867 0.36304 0.29554 0.0
N637 N 0.1167 0.35134 0.30604 0.0
N638 N 0.07794 0.39314 0.30895 0.0
C639 C 0.1097 0.39485 0.32281 0.0
C640 C 0.13051 0.37208 0.32154 0.0
C641 C 0.15407 0.63368 0.71486 0.0
C642 C 0.13833 0.65616 0.72638 0.0
C643 C 0.13444 0.60916 0.71354 0.0
C644 C 0.0982 0.60627 0.72324 0.0
H645 H 0.18189 0.63499 0.70689 0.0
H646 H 0.14774 0.59225 0.70511 0.0
S647 S 0.04397 0.65827 0.75529 0.0
N648 N 0.08404 0.67338 0.74825 0.0
N649 N 0.04701 0.62747 0.74441 0.0
C650 C 0.08188 0.62846 0.73434 0.0
C651 C 0.10191 0.65337 0.73612 0.0
C652 C 0.87894 0.63659 0.31691 0.0
C653 C 0.88434 0.65747 0.33685 0.0
C654 C 0.89933 0.61418 0.31824 0.0
C655 C 0.926 0.61164 0.3396 0.0
H656 H 0.85918 0.63776 0.29969 0.0
H657 H 0.89414 0.59868 0.30237 0.0
S658 S 0.95048 0.66043 0.39733 0.0
N659 N 0.91769 0.67374 0.37928 0.0
N660 N 0.95685 0.63204 0.38109 0.0
C661 C 0.93154 0.63225 0.35985 0.0
C662 C 0.91063 0.65506 0.35858 0.0
C663 C 0.91798 0.40015 0.74018 0.0
C664 C 0.88232 0.39897 0.73107 0.0
C665 C 0.93925 0.42413 0.73802 0.0
C666 C 0.92565 0.44782 0.72676 0.0
H667 H 0.92933 0.38253 0.7497 0.0
H668 H 0.96643 0.42426 0.74552 0.0
S669 S 0.83497 0.45563 0.6987 0.0
N670 N 0.83516 0.42368 0.70889 0.0
N671 N 0.8749 0.46889 0.70612 0.0
C672 C 0.89033 0.44702 0.71737 0.0
C673 C 0.86873 0.42258 0.71921 0.0
C674 C 0.24648 0.14077 0.44019 0.0
C675 C 0.25943 0.14069 0.40969 0.0
C676 C 0.24496 0.11753 0.45914 0.0
C677 C 0.25599 0.09342 0.4481 0.0
H678 H 0.23803 0.15904 0.44958 0.0
H679 H 0.23526 0.11839 0.48262 0.0
S680 S 0.28935 0.08212 0.36957 0.0
N681 N 0.28199 0.11415 0.36905 0.0
N682 N 0.27842 0.07039 0.40461 0.0
C683 C 0.26815 0.09289 0.41755 0.0
C684 C 0.2701 0.11657 0.39836 0.0
C685 C 0.35839 0.79202 0.89451 0.0
C686 C 0.36897 0.78077 0.86703 0.0
C687 C 0.3804 0.79196 0.91957 0.0
C688 C 0.41367 0.78051 0.91811 0.0
H689 H 0.3326 0.80049 0.89689 0.0
H690 H 0.371 0.80047 0.94042 0.0
S691 S 0.45548 0.75096 0.85064 0.0
N692 N 0.41628 0.75973 0.83925 0.0
N693 N 0.45727 0.75927 0.88649 0.0
C694 C 0.42493 0.76973 0.89063 0.0
C695 C 0.40268 0.76994 0.86508 0.0
C696 C 0.76917 0.88663 0.43412 0.0
C697 C 0.79343 0.886 0.40889 0.0
C698 C 0.76923 0.90863 0.45266 0.0
C699 C 0.79378 0.93076 0.44686 0.0
H700 H 0.74965 0.87012 0.43938 0.0
H701 H 0.75015 0.90818 0.4719 0.0
S702 S 0.86306 0.93892 0.38378 0.0
N703 N 0.84299 0.90929 0.37933 0.0
N704 N 0.84276 0.95079 0.41388 0.0
C705 C 0.81825 0.93036 0.42176 0.0
C706 C 0.81811 0.90799 0.40282 0.0
C707 C 0.67247 0.25737 0.9253 0.0
C708 C 0.66005 0.26569 0.89684 0.0
C709 C 0.65015 0.25645 0.95178 0.0
C710 C 0.6147 0.26381 0.95067 0.0
H711 H 0.69959 0.25134 0.92707 0.0
H712 H 0.66062 0.24999 0.97328 0.0
S713 S 0.56936 0.28793 0.88258 0.0
N714 N 0.61008 0.28225 0.86962 0.0
N715 N 0.56812 0.28001 0.91947 0.0
C716 C 0.60191 0.27224 0.9226 0.0
C717 C 0.62456 0.27324 0.89564 0.0
C718 C 0.22885 0.91642 0.64983 0.0
C719 C 0.24388 0.89326 0.63942 0.0
C720 C 0.22894 0.93973 0.63115 0.0
C721 C 0.24339 0.94065 0.60113 0.0
H722 H 0.21686 0.9166 0.67266 0.0
H723 H 0.21774 0.95721 0.64028 0.0
S724 S 0.28656 0.88625 0.56256 0.0
N725 N 0.27489 0.87344 0.59702 0.0
N726 N 0.27304 0.91686 0.56157 0.0
C727 C 0.25811 0.91776 0.59019 0.0
C728 C 0.25872 0.89415 0.60934 0.0
C729 C 0.63347 0.76438 0.18723 0.0
C730 C 0.66866 0.77605 0.1846 0.0
C731 C 0.61106 0.76485 0.16249 0.0
C732 C 0.62288 0.77713 0.13421 0.0
H733 H 0.62298 0.75509 0.20871 0.0
H734 H 0.58407 0.75584 0.16563 0.0
S735 S 0.71339 0.80867 0.11455 0.0
N736 N 0.71488 0.79885 0.15077 0.0
N737 N 0.67247 0.80006 0.10447 0.0
C738 C 0.65805 0.78862 0.13111 0.0
C739 C 0.68098 0.788 0.15624 0.0
C740 C 0.80363 0.16333 0.63825 0.0
C741 C 0.78432 0.16174 0.66649 0.0
C742 C 0.80494 0.14119 0.62 0.0
C743 C 0.78698 0.11661 0.62927 0.0
H744 H 0.81735 0.18198 0.62995 0.0
H745 H 0.81963 0.14348 0.5982 0.0
S746 S 0.73556 0.10123 0.70249 0.0
N747 N 0.74881 0.13305 0.70374 0.0
N748 N 0.75118 0.09152 0.66938 0.0
C749 C 0.76816 0.11459 0.6577 0.0
C750 C 0.76686 0.13711 0.67631 0.0
C751 C 0.42082 0.27089 0.1754 0.0
C752 C 0.38436 0.26243 0.17435 0.0
C753 C 0.44385 0.27108 0.14941 0.0
C754 C 0.43126 0.26276 0.12153 0.0
H755 H 0.4316 0.27756 0.19644 0.0
H756 H 0.47176 0.27763 0.15112 0.0
S757 S 0.33876 0.23841 0.10646 0.0
N758 N 0.33712 0.24506 0.14294 0.0
N759 N 0.38051 0.24598 0.09403 0.0
C760 C 0.39502 0.25443 0.11999 0.0
C761 C 0.37153 0.25415 0.14642 0.0
C762 C 0.8639 0.64379 0.74664 0.0
C763 C 0.87336 0.66728 0.72887 0.0
C764 C 0.88367 0.62117 0.74421 0.0
C765 C 0.91377 0.62113 0.72396 0.0
H766 H 0.8411 0.64294 0.76273 0.0
H767 H 0.87547 0.60359 0.75849 0.0
S768 S 0.95052 0.67793 0.67315 0.0
N769 N 0.91509 0.6893 0.69066 0.0
N770 N 0.95249 0.64683 0.68624 0.0
C771 C 0.92331 0.6444 0.7058 0.0
C772 C 0.90306 0.66744 0.70822 0.0
C773 C 0.93663 0.38911 0.32879 0.0
C774 C 0.90013 0.38591 0.33806 0.0
C775 C 0.95586 0.41383 0.33004 0.0
C776 C 0.9392 0.43621 0.34041 0.0
H777 H 0.95041 0.37236 0.32054 0.0
H778 H 0.9839 0.41555 0.32268 0.0
S779 S 0.84406 0.43889 0.36571 0.0
N780 N 0.84797 0.40753 0.35716 0.0
N781 N 0.88418 0.45404 0.3591 0.0
C782 C 0.9028 0.4334 0.34952 0.0
C783 C 0.88326 0.40822 0.34851 0.0
C784 C 0.13217 0.38782 0.711 0.0
C785 C 0.15989 0.38626 0.7315 0.0
C786 C 0.11219 0.41049 0.70876 0.0
C787 C 0.11928 0.43243 0.72688 0.0
H788 H 0.12521 0.3711 0.69723 0.0
H789 H 0.09035 0.41049 0.69339 0.0
S790 S 0.19212 0.43963 0.7811 0.0
N791 N 0.19546 0.40951 0.76821 0.0
N792 N 0.15814 0.45209 0.76389 0.0
C793 C 0.14787 0.43151 0.74654 0.0
C794 C 0.1681 0.40845 0.74888 0.0
C795 C 0.16499 0.62285 0.33983 0.0
C796 C 0.14858 0.64565 0.3291 0.0
C797 C 0.14601 0.59786 0.34269 0.0
C798 C 0.10992 0.59499 0.3353 0.0
H799 H 0.19296 0.6242 0.34524 0.0
H800 H 0.15972 0.58062 0.35029 0.0
S801 S 0.0539 0.64854 0.30841 0.0
N802 N 0.09364 0.66381 0.31242 0.0
N803 N 0.05799 0.61686 0.31818 0.0
C804 C 0.09297 0.61764 0.32531 0.0
C805 C 0.11229 0.64299 0.32213 0.0
C806 C 0.80271 0.90166 0.62663 0.0
C807 C 0.78751 0.9016 0.65652 0.0
C808 C 0.80355 0.92444 0.60698 0.0
C809 C 0.78948 0.94808 0.61652 0.0
H810 H 0.81423 0.88399 0.61833 0.0
H811 H 0.81516 0.92357 0.58408 0.0
S812 S 0.74642 0.95878 0.69196 0.0
N813 N 0.75709 0.92743 0.69416 0.0
N814 N 0.76046 0.97048 0.65759 0.0
C815 C 0.77469 0.94855 0.64632 0.0
C816 C 0.77329 0.92528 0.66622 0.0
C817 C 0.65478 0.2414 0.18925 0.0
C818 C 0.68133 0.26205 0.19222 0.0
C819 C 0.63164 0.24175 0.165 0.0
C820 C 0.63407 0.26275 0.14265 0.0
H821 H 0.65192 0.22471 0.20575 0.0
H822 H 0.61133 0.22557 0.16402 0.0
S823 S 0.69922 0.32156 0.13963 0.0
N824 N 0.70833 0.30434 0.17084 0.0
N825 N 0.66599 0.30436 0.12457 0.0
C826 C 0.66075 0.2834 0.14514 0.0
C827 C 0.68411 0.28317 0.17 0.0
C828 C 0.26833 0.13672 0.65766 0.0
C829 C 0.24936 0.15925 0.65036 0.0
C830 C 0.2672 0.11452 0.63942 0.0
C831 C 0.24696 0.11393 0.61319 0.0
H832 H 0.28404 0.13615 0.67777 0.0
H833 H 0.28215 0.09761 0.646 0.0
S834 S 0.19433 0.16843 0.58294 0.0
N835 N 0.21092 0.18 0.61432 0.0
N836 N 0.20868 0.13823 0.58014 0.0
C837 C 0.22794 0.13633 0.60556 0.0
C838 C 0.22916 0.15897 0.6241 0.0
C839 C 0.41243 0.76754 0.16785 0.0
C840 C 0.37701 0.7752 0.16623 0.0
C841 C 0.43546 0.76841 0.14178 0.0
C842 C 0.4238 0.77684 0.11322 0.0
H843 H 0.42251 0.76106 0.1895 0.0
H844 H 0.46259 0.7625 0.14393 0.0
S845 S 0.33341 0.7975 0.09619 0.0
N846 N 0.33119 0.79057 0.13332 0.0
N847 N 0.37465 0.79209 0.08438 0.0
C848 C 0.38851 0.78424 0.11112 0.0
C849 C 0.36508 0.7835 0.13763 0.0
C850 C 0.8067 0.14801 0.4525 0.0
C851 C 0.79435 0.14699 0.42277 0.0
C852 C 0.80632 0.1249 0.47163 0.0
C853 C 0.79398 0.1 0.4615 0.0
H854 H 0.81611 0.16687 0.4612 0.0
H855 H 0.81548 0.12649 0.49456 0.0
S856 S 0.76159 0.08627 0.38499 0.0
N857 N 0.77098 0.11882 0.38372 0.0
N858 N 0.77106 0.07537 0.41951 0.0
C859 C 0.7825 0.09859 0.43163 0.0
C860 C 0.78244 0.1221 0.41231 0.0
C861 C 0.37557 0.28247 0.89871 0.0
C862 C 0.37611 0.26253 0.87723 0.0
C863 C 0.39774 0.28211 0.92362 0.0
C864 C 0.4214 0.26179 0.92814 0.0
H865 H 0.35813 0.29871 0.8961 0.0
H866 H 0.3961 0.29782 0.93961 0.0
S867 S 0.43327 0.20484 0.87856 0.0
N868 N 0.4019 0.22154 0.86254 0.0
N869 N 0.44455 0.22146 0.90862 0.0
C870 C 0.42232 0.24175 0.90681 0.0
C871 C 0.39955 0.24201 0.88153 0.0
C872 C 0.27701 0.89982 0.39514 0.0
C873 C 0.2538 0.87694 0.40115 0.0
C874 C 0.27631 0.92166 0.4139 0.0
C875 C 0.25218 0.9216 0.43932 0.0
H876 H 0.2961 0.90079 0.37587 0.0
H877 H 0.29452 0.93888 0.40823 0.0
S878 S 0.18598 0.86655 0.46523 0.0
N879 N 0.20582 0.85569 0.43435 0.0
N880 N 0.20509 0.89643 0.46996 0.0
C881 C 0.22895 0.89881 0.4457 0.0
C882 C 0.22967 0.87657 0.4266 0.0
C883 C 0.61943 0.773 0.8884 0.0
C884 C 0.65611 0.7805 0.89008 0.0
C885 C 0.59611 0.77254 0.91426 0.0
C886 C 0.60873 0.77945 0.94267 0.0
H887 H 0.60859 0.76781 0.86683 0.0
H888 H 0.56799 0.76693 0.91205 0.0
S889 S 0.70234 0.79879 0.95991 0.0
N890 N 0.70402 0.79382 0.92299 0.0
N891 N 0.65998 0.79292 0.97151 0.0
C892 C 0.64526 0.78653 0.94487 0.0
C893 C 0.669 0.78711 0.91858 0.0
loop_
_geom_bond_atom_site_label_1
_geom_bond_atom_site_label_2
_geom_bond_distance
_geom_bond_site_symmetry_2
_ccdc_geom_bond_type
C0 C1 1.386 . S
C0 C2 1.397 . S
C0 H24 0.931 . S
C1 C0 1.386 . S
C1 C5 1.397 . S
C2 C0 1.397 . S
C2 C3 1.384 . S
C2 H25 0.930 . S
C3 C2 1.384 . S
C3 C4 1.377 . S
C3 C6 1.481 . S
C4 C3 1.377 . S
C4 C5 1.389 . S
C4 H26 0.929 . S
C5 C1 1.397 . S
C5 C4 1.389 . S
C5 H27 0.931 . S
C6 C3 1.481 . S
C6 C7 1.387 . S
C6 C11 1.390 . S
C7 C6 1.387 . S
C7 C8 1.401 . S
C7 H28 0.930 . S
C8 C7 1.401 . S
C8 C9 1.376 . S
C8 C17 1.511 . S
C9 C8 1.376 . S
C9 C10 1.392 . S
C9 H30 0.931 . S
C10 C9 1.392 . S
C10 C11 1.361 . S
C10 C12 1.500 . S
C11 C6 1.390 . S
C11 C10 1.361 . S
C11 H29 0.931 . S
C12 C10 1.500 . S
C12 C13 1.371 . S
C12 C14 1.365 . S
C13 C12 1.371 . S
C13 C23 1.386 . S
C13 H31 0.931 . S
C14 C12 1.365 . S
C14 C15 1.409 . S
C14 H32 0.929 . S
C15 C14 1.409 . S
C15 C16 1.380 . S
C15 H33 0.930 . S
C16 C15 1.380 . S
C16 C23 1.357 . S
C17 C8 1.511 . S
C17 C18 1.341 . S
C17 C19 1.371 . S
C18 C17 1.341 . S
C18 C22 1.394 . S
C18 H34 0.930 . S
C19 C17 1.371 . S
C19 C20 1.392 . S
C19 H35 0.931 . S
C20 C19 1.392 . S
C20 C21 1.331 . S
C20 H38 0.932 . S
C21 C20 1.331 . S
C21 C22 1.336 . S
C22 C18 1.394 . S
C22 C21 1.336 . S
C22 H37 0.929 . S
C23 C13 1.386 . S
C23 C16 1.357 . S
C23 H36 0.928 . S
H24 C0 0.931 . S
H25 C2 0.930 . S
H26 C4 0.929 . S
H27 C5 0.931 . S
H28 C7 0.930 . S
H29 C11 0.931 . S
H30 C9 0.931 . S
H31 C13 0.931 . S
H32 C14 0.929 . S
H33 C15 0.930 . S
H34 C18 0.930 . S
H35 C19 0.931 . S
H36 C23 0.928 . S
H37 C22 0.929 . S
H38 C20 0.932 . S
C39 C40 1.386 . S
C39 C41 1.397 . S
C39 H63 0.931 . S
C40 C39 1.386 . S
C40 C44 1.397 . S
C41 C39 1.397 . S
C41 C42 1.384 . S
C41 H64 0.930 . S
C42 C41 1.384 . S
C42 C43 1.377 . S
C42 C45 1.481 . S
C43 C42 1.377 . S
C43 C44 1.389 . S
C43 H65 0.929 . S
C44 C40 1.397 . S
C44 C43 1.389 . S
C44 H66 0.931 . S
C45 C42 1.481 . S
C45 C46 1.387 . S
C45 C50 1.390 . S
C46 C45 1.387 . S
C46 C47 1.401 . S
C46 H67 0.930 . S
C47 C46 1.401 . S
C47 C48 1.376 . S
C47 C56 1.511 . S
C48 C47 1.376 . S
C48 C49 1.392 . S
C48 H69 0.931 . S
C49 C48 1.392 . S
C49 C50 1.361 . S
C49 C51 1.500 . S
C50 C45 1.390 . S
C50 C49 1.361 . S
C50 H68 0.931 . S
C51 C49 1.500 . S
C51 C52 1.371 . S
C51 C53 1.365 . S
C52 C51 1.371 . S
C52 C62 1.386 . S
C52 H70 0.931 . S
C53 C51 1.365 . S
C53 C54 1.409 . S
C53 H71 0.929 . S
C54 C53 1.409 . S
C54 C55 1.380 . S
C54 H72 0.930 . S
C55 C54 1.380 . S
C55 C62 1.357 . S
C56 C47 1.511 . S
C56 C57 1.341 . S
C56 C58 1.371 . S
C57 C56 1.341 . S
C57 C61 1.394 . S
C57 H73 0.930 . S
C58 C56 1.371 . S
C58 C59 1.392 . S
C58 H74 0.931 . S
C59 C58 1.392 . S
C59 C60 1.331 . S
C59 H77 0.932 . S
C60 C59 1.331 . S
C60 C61 1.336 . S
C61 C57 1.394 . S
C61 C60 1.336 . S
C61 H76 0.929 . S
C62 C52 1.386 . S
C62 C55 1.357 . S
C62 H75 0.928 . S
H63 C39 0.931 . S
H64 C41 0.930 . S
H65 C43 0.929 . S
H66 C44 0.931 . S
H67 C46 0.930 . S
H68 C50 0.931 . S
H69 C48 0.931 . S
H70 C52 0.931 . S
H71 C53 0.929 . S
H72 C54 0.930 . S
H73 C57 0.930 . S
H74 C58 0.931 . S
H75 C62 0.928 . S
H76 C61 0.929 . S
H77 C59 0.932 . S
C78 C79 1.386 . S
C78 C80 1.397 . S
C78 H102 0.931 . S
C79 C78 1.386 . S
C79 C83 1.397 . S
C80 C78 1.397 . S
C80 C81 1.384 . S
C80 H103 0.930 . S
C81 C80 1.384 . S
C81 C82 1.377 . S
C81 C84 1.481 . S
C82 C81 1.377 . S
C82 C83 1.389 . S
C82 H104 0.929 . S
C83 C79 1.397 . S
C83 C82 1.389 . S
C83 H105 0.931 . S
C84 C81 1.481 . S
C84 C85 1.387 . S
C84 C89 1.390 . S
C85 C84 1.387 . S
C85 C86 1.401 . S
C85 H106 0.930 . S
C86 C85 1.401 . S
C86 C87 1.376 . S
C86 C95 1.511 . S
C87 C86 1.376 . S
C87 C88 1.392 . S
C87 H108 0.931 . S
C88 C87 1.392 . S
C88 C89 1.361 . S
C88 C90 1.500 . S
C89 C84 1.390 . S
C89 C88 1.361 . S
C89 H107 0.931 . S
C90 C88 1.500 . S
C90 C91 1.371 . S
C90 C92 1.365 . S
C91 C90 1.371 . S
C91 C101 1.386 . S
C91 H109 0.931 . S
C92 C90 1.365 . S
C92 C93 1.409 . S
C92 H110 0.929 . S
C93 C92 1.409 . S
C93 C94 1.380 . S
C93 H111 0.930 . S
C94 C93 1.380 . S
C94 C101 1.357 . S
C95 C86 1.511 . S
C95 C96 1.341 . S
C95 C97 1.371 . S
C96 C95 1.341 . S
C96 C100 1.394 . S
C96 H112 0.930 . S
C97 C95 1.371 . S
C97 C98 1.392 . S
C97 H113 0.931 . S
C98 C97 1.392 . S
C98 C99 1.331 . S
C98 H116 0.932 . S
C99 C98 1.331 . S
C99 C100 1.336 . S
C100 C96 1.394 . S
C100 C99 1.336 . S
C100 H115 0.929 . S
C101 C91 1.386 . S
C101 C94 1.357 . S
C101 H114 0.928 . S
H102 C78 0.931 . S
H103 C80 0.930 . S
H104 C82 0.929 . S
H105 C83 0.931 . S
H106 C85 0.930 . S
H107 C89 0.931 . S
H108 C87 0.931 . S
H109 C91 0.931 . S
H110 C92 0.929 . S
H111 C93 0.930 . S
H112 C96 0.930 . S
H113 C97 0.931 . S
H114 C101 0.928 . S
H115 C100 0.929 . S
H116 C98 0.932 . S
C117 C118 1.386 . S
C117 C119 1.397 . S
C117 H141 0.931 . S
C118 C117 1.386 . S
C118 C122 1.397 . S
C119 C117 1.397 . S
C119 C120 1.384 . S
C119 H142 0.930 . S
C120 C119 1.384 . S
C120 C121 1.377 . S
C120 C123 1.481 . S
C121 C120 1.377 . S
C121 C122 1.389 . S
C121 H143 0.929 . S
C122 C118 1.397 . S
C122 C121 1.389 . S
C122 H144 0.931 . S
C123 C120 1.481 . S
C123 C124 1.387 . S
C123 C128 1.390 . S
C124 C123 1.387 . S
C124 C125 1.401 . S
C124 H145 0.930 . S
C125 C124 1.401 . S
C125 C126 1.376 . S
C125 C134 1.511 . S
C126 C125 1.376 . S
C126 C127 1.392 . S
C126 H147 0.931 . S
C127 C126 1.392 . S
C127 C128 1.361 . S
C127 C129 1.500 . S
C128 C123 1.390 . S
C128 C127 1.361 . S
C128 H146 0.931 . S
C129 C127 1.500 . S
C129 C130 1.371 . S
C129 C131 1.365 . S
C130 C129 1.371 . S
C130 C140 1.386 . S
C130 H148 0.931 . S
C131 C129 1.365 . S
C131 C132 1.409 . S
C131 H149 0.929 . S
C132 C131 1.409 . S
C132 C133 1.380 . S
C132 H150 0.930 . S
C133 C132 1.380 . S
C133 C140 1.357 . S
C134 C125 1.511 . S
C134 C135 1.341 . S
C134 C136 1.371 . S
C135 C134 1.341 . S
C135 C139 1.394 . S
C135 H151 0.930 . S
C136 C134 1.371 . S
C136 C137 1.392 . S
C136 H152 0.931 . S
C137 C136 1.392 . S
C137 C138 1.331 . S
C137 H155 0.932 . S
C138 C137 1.331 . S
C138 C139 1.336 . S
C139 C135 1.394 . S
C139 C138 1.336 . S
C139 H154 0.929 . S
C140 C130 1.386 . S
C140 C133 1.357 . S
C140 H153 0.928 . S
H141 C117 0.931 . S
H142 C119 0.930 . S
H143 C121 0.929 . S
H144 C122 0.931 . S
H145 C124 0.930 . S
H146 C128 0.931 . S
H147 C126 0.931 . S
H148 C130 0.931 . S
H149 C131 0.929 . S
H150 C132 0.930 . S
H151 C135 0.930 . S
H152 C136 0.931 . S
H153 C140 0.928 . S
H154 C139 0.929 . S
H155 C137 0.932 . S
C156 C157 1.386 . S
C156 C158 1.397 . S
C156 H180 0.931 . S
C157 C156 1.386 . S
C157 C161 1.397 . S
C158 C156 1.397 . S
C158 C159 1.384 . S
C158 H181 0.930 . S
C159 C158 1.384 . S
C159 C160 1.377 . S
C159 C162 1.481 . S
C160 C159 1.377 . S
C160 C161 1.389 . S
C160 H182 0.929 . S
C161 C157 1.397 . S
C161 C160 1.389 . S
C161 H183 0.931 . S
C162 C159 1.481 . S
C162 C163 1.387 . S
C162 C167 1.390 . S
C163 C162 1.387 . S
C163 C164 1.401 . S
C163 H184 0.930 . S
C164 C163 1.401 . S
C164 C165 1.376 . S
C164 C173 1.511 . S
C165 C164 1.376 . S
C165 C166 1.392 . S
C165 H186 0.931 . S
C166 C165 1.392 . S
C166 C167 1.361 . S
C166 C168 1.500 . S
C167 C162 1.390 . S
C167 C166 1.361 . S
C167 H185 0.931 . S
C168 C166 1.500 . S
C168 C169 1.371 . S
C168 C170 1.365 . S
C169 C168 1.371 . S
C169 C179 1.386 . S
C169 H187 0.931 . S
C170 C168 1.365 . S
C170 C171 1.409 . S
C170 H188 0.929 . S
C171 C170 1.409 . S
C171 C172 1.380 . S
C171 H189 0.930 . S
C172 C171 1.380 . S
C172 C179 1.357 . S
C173 C164 1.511 . S
C173 C174 1.341 . S
C173 C175 1.371 . S
C174 C173 1.341 . S
C174 C178 1.394 . S
C174 H190 0.930 . S
C175 C173 1.371 . S
C175 C176 1.392 . S
C175 H191 0.931 . S
C176 C175 1.392 . S
C176 C177 1.331 . S
C176 H194 0.932 . S
C177 C176 1.331 . S
C177 C178 1.336 . S
C178 C174 1.394 . S
C178 C177 1.336 . S
C178 H193 0.929 . S
C179 C169 1.386 . S
C179 C172 1.357 . S
C179 H192 0.928 . S
H180 C156 0.931 . S
H181 C158 0.930 . S
H182 C160 0.929 . S
H183 C161 0.931 . S
H184 C163 0.930 . S
H185 C167 0.931 . S
H186 C165 0.931 . S
H187 C169 0.931 . S
H188 C170 0.929 . S
H189 C171 0.930 . S
H190 C174 0.930 . S
H191 C175 0.931 . S
H192 C179 0.928 . S
H193 C178 0.929 . S
H194 C176 0.932 . S
C195 C196 1.386 . S
C195 C197 1.397 . S
C195 H219 0.931 . S
C196 C195 1.386 . S
C196 C200 1.397 . S
C197 C195 1.397 . S
C197 C198 1.384 . S
C197 H220 0.930 . S
C198 C197 1.384 . S
C198 C199 1.377 . S
C198 C201 1.481 . S
C199 C198 1.377 . S
C199 C200 1.389 . S
C199 H221 0.929 . S
C200 C196 1.397 . S
C200 C199 1.389 . S
C200 H222 0.931 . S
C201 C198 1.481 . S
C201 C202 1.387 . S
C201 C206 1.390 . S
C202 C201 1.387 . S
C202 C203 1.401 . S
C202 H223 0.930 . S
C203 C202 1.401 . S
C203 C204 1.376 . S
C203 C212 1.511 . S
C204 C203 1.376 . S
C204 C205 1.392 . S
C204 H225 0.931 . S
C205 C204 1.392 . S
C205 C206 1.361 . S
C205 C207 1.500 . S
C206 C201 1.390 . S
C206 C205 1.361 . S
C206 H224 0.931 . S
C207 C205 1.500 . S
C207 C208 1.371 . S
C207 C209 1.365 . S
C208 C207 1.371 . S
C208 C218 1.386 . S
C208 H226 0.931 . S
C209 C207 1.365 . S
C209 C210 1.409 . S
C209 H227 0.929 . S
C210 C209 1.409 . S
C210 C211 1.380 . S
C210 H228 0.930 . S
C211 C210 1.380 . S
C211 C218 1.357 . S
C212 C203 1.511 . S
C212 C213 1.341 . S
C212 C214 1.371 . S
C213 C212 1.341 . S
C213 C217 1.394 . S
C213 H229 0.930 . S
C214 C212 1.371 . S
C214 C215 1.392 . S
C214 H230 0.931 . S
C215 C214 1.392 . S
C215 C216 1.331 . S
C215 H233 0.932 . S
C216 C215 1.331 . S
C216 C217 1.336 . S
C217 C213 1.394 . S
C217 C216 1.336 . S
C217 H232 0.929 . S
C218 C208 1.386 . S
C218 C211 1.357 . S
C218 H231 0.928 . S
H219 C195 0.931 . S
H220 C197 0.930 . S
H221 C199 0.929 . S
H222 C200 0.931 . S
H223 C202 0.930 . S
H224 C206 0.931 . S
H225 C204 0.931 . S
H226 C208 0.931 . S
H227 C209 0.929 . S
H228 C210 0.930 . S
H229 C213 0.930 . S
H230 C214 0.931 . S
H231 C218 0.928 . S
H232 C217 0.929 . S
H233 C215 0.932 . S
C234 C235 1.386 . S
C234 C236 1.397 . S
C234 H258 0.931 . S
C235 C234 1.386 . S
C235 C239 1.397 . S
C236 C234 1.397 . S
C236 C237 1.384 . S
C236 H259 0.930 . S
C237 C236 1.384 . S
C237 C238 1.377 . S
C237 C240 1.481 . S
C238 C237 1.377 . S
C238 C239 1.389 . S
C238 H260 0.929 . S
C239 C235 1.397 . S
C239 C238 1.389 . S
C239 H261 0.931 . S
C240 C237 1.481 . S
C240 C241 1.387 . S
C240 C245 1.390 . S
C241 C240 1.387 . S
C241 C242 1.401 . S
C241 H262 0.930 . S
C242 C241 1.401 . S
C242 C243 1.376 . S
C242 C251 1.511 . S
C243 C242 1.376 . S
C243 C244 1.392 . S
C243 H264 0.931 . S
C244 C243 1.392 . S
C244 C245 1.361 . S
C244 C246 1.500 . S
C245 C240 1.390 . S
C245 C244 1.361 . S
C245 H263 0.931 . S
C246 C244 1.500 . S
C246 C247 1.371 . S
C246 C248 1.365 . S
C247 C246 1.371 . S
C247 C257 1.386 . S
C247 H265 0.931 . S
C248 C246 1.365 . S
C248 C249 1.409 . S
C248 H266 0.929 . S
C249 C248 1.409 . S
C249 C250 1.380 . S
C249 H267 0.930 . S
C250 C249 1.380 . S
C250 C257 1.357 . S
C251 C242 1.511 . S
C251 C252 1.341 . S
C251 C253 1.371 . S
C252 C251 1.341 . S
C252 C256 1.394 . S
C252 H268 0.930 . S
C253 C251 1.371 . S
C253 C254 1.392 . S
C253 H269 0.931 . S
C254 C253 1.392 . S
C254 C255 1.331 . S
C254 H272 0.932 . S
C255 C254 1.331 . S
C255 C256 1.336 . S
C256 C252 1.394 . S
C256 C255 1.336 . S
C256 H271 0.929 . S
C257 C247 1.386 . S
C257 C250 1.357 . S
C257 H270 0.928 . S
H258 C234 0.931 . S
H259 C236 0.930 . S
H260 C238 0.929 . S
H261 C239 0.931 . S
H262 C241 0.930 . S
H263 C245 0.931 . S
H264 C243 0.931 . S
H265 C247 0.931 . S
H266 C248 0.929 . S
H267 C249 0.930 . S
H268 C252 0.930 . S
H269 C253 0.931 . S
H270 C257 0.928 . S
H271 C256 0.929 . S
H272 C254 0.932 . S
C273 C274 1.386 . S
C273 C275 1.397 . S
C273 H297 0.931 . S
C274 C273 1.386 . S
C274 C278 1.397 . S
C275 C273 1.397 . S
C275 C276 1.384 . S
C275 H298 0.930 . S
C276 C275 1.384 . S
C276 C277 1.377 . S
C276 C279 1.481 . S
C277 C276 1.377 . S
C277 C278 1.389 . S
C277 H299 0.929 . S
C278 C274 1.397 . S
C278 C277 1.389 . S
C278 H300 0.931 . S
C279 C276 1.481 . S
C279 C280 1.387 . S
C279 C284 1.390 . S
C280 C279 1.387 . S
C280 C281 1.401 . S
C280 H301 0.930 . S
C281 C280 1.401 . S
C281 C282 1.376 . S
C281 C290 1.511 . S
C282 C281 1.376 . S
C282 C283 1.392 . S
C282 H303 0.931 . S
C283 C282 1.392 . S
C283 C284 1.361 . S
C283 C285 1.500 . S
C284 C279 1.390 . S
C284 C283 1.361 . S
C284 H302 0.931 . S
C285 C283 1.500 . S
C285 C286 1.371 . S
C285 C287 1.365 . S
C286 C285 1.371 . S
C286 C296 1.386 . S
C286 H304 0.931 . S
C287 C285 1.365 . S
C287 C288 1.409 . S
C287 H305 0.929 . S
C288 C287 1.409 . S
C288 C289 1.380 . S
C288 H306 0.930 . S
C289 C288 1.380 . S
C289 C296 1.357 . S
C290 C281 1.511 . S
C290 C291 1.341 . S
C290 C292 1.371 . S
C291 C290 1.341 . S
C291 C295 1.394 . S
C291 H307 0.930 . S
C292 C290 1.371 . S
C292 C293 1.392 . S
C292 H308 0.931 . S
C293 C292 1.392 . S
C293 C294 1.331 . S
C293 H311 0.932 . S
C294 C293 1.331 . S
C294 C295 1.336 . S
C295 C291 1.394 . S
C295 C294 1.336 . S
C295 H310 0.929 . S
C296 C286 1.386 . S
C296 C289 1.357 . S
C296 H309 0.928 . S
H297 C273 0.931 . S
H298 C275 0.930 . S
H299 C277 0.929 . S
H300 C278 0.931 . S
H301 C280 0.930 . S
H302 C284 0.931 . S
H303 C282 0.931 . S
H304 C286 0.931 . S
H305 C287 0.929 . S
H306 C288 0.930 . S
H307 C291 0.930 . S
H308 C292 0.931 . S
H309 C296 0.928 . S
H310 C295 0.929 . S
H311 C293 0.932 . S
C312 C313 1.443 . S
C312 N316 1.376 . S
C312 C350 1.389 . S
C313 C312 1.443 . S
C313 C314 1.340 . S
C313 H353 0.951 . S
C314 C313 1.340 . S
C314 C315 1.439 . S
C314 H354 0.950 . S
C315 C314 1.439 . S
C315 N316 1.374 . S
C315 C349 1.395 . S
N316 C312 1.376 . S
N316 C315 1.374 . S
N316 Co317 2.008 . S
Co317 N316 2.008 . S
Co317 N318 1.981 1_455 S
Co317 N323 2.008 . S
Co317 N328 1.995 . S
Co317 N333 2.282 . S
Co317 N339 2.282 1_455 S
N318 Co317 1.981 1_655 S
N318 C319 1.375 . S
N318 C322 1.400 . S
C319 N318 1.375 . S
C319 C320 1.453 . S
C319 C349 1.384 1_655 S
C320 C319 1.453 . S
C320 C321 1.339 . S
C320 H355 0.949 . S
C321 C320 1.339 . S
C321 C322 1.439 . S
C321 H356 0.950 . S
C322 N318 1.400 . S
C322 C321 1.439 . S
C322 C351 1.392 . S
N323 Co317 2.008 . S
N323 C324 1.376 1_455 S
N323 C327 1.374 . S
C324 N323 1.376 1_655 S
C324 C325 1.443 . S
C324 C351 1.389 . S
C325 C324 1.443 . S
C325 C326 1.340 . S
C325 H357 0.951 . S
C326 C325 1.340 . S
C326 C327 1.439 1_655 S
C326 H358 0.950 . S
C327 N323 1.374 . S
C327 C326 1.439 1_455 S
C327 C352 1.395 . S
N328 Co317 1.995 . S
N328 C329 1.376 . S
N328 C332 1.383 . S
C329 N328 1.376 . S
C329 C330 1.446 . S
C329 C352 1.391 . S
C330 C329 1.446 . S
C330 C331 1.339 . S
C330 H359 0.949 . S
C331 C330 1.339 . S
C331 C332 1.439 . S
C331 H360 0.950 . S
C332 N328 1.383 . S
C332 C331 1.439 . S
C332 C350 1.392 . S
N333 Co317 2.282 . S
N333 C336 1.332 . S
N333 C338 1.332 . S
C334 C335 1.386 . S
C334 C337 1.388 . S
C335 C334 1.386 . S
C335 C336 1.382 . S
C335 H361 0.950 . S
C336 N333 1.332 . S
C336 C335 1.382 . S
C336 H347 0.952 . S
C337 C334 1.388 . S
C337 C338 1.382 . S
C337 H362 0.950 . S
C338 N333 1.332 . S
C338 C337 1.382 . S
C338 H348 0.948 . S
N339 Co317 2.282 1_655 S
N339 C343 1.332 . S
N339 C344 1.332 . S
C340 C341 1.388 . S
C340 C344 1.382 . S
C340 H363 0.950 . S
C341 C340 1.388 . S
C341 C342 1.386 . S
C342 C341 1.386 . S
C342 C343 1.382 . S
C342 H364 0.950 . S
C343 N339 1.332 . S
C343 C342 1.382 . S
C343 H345 0.952 . S
C344 N339 1.332 . S
C344 C340 1.382 . S
C344 H346 0.948 . S
H345 C343 0.952 . S
H346 C344 0.948 . S
H347 C336 0.952 . S
H348 C338 0.948 . S
C349 C315 1.395 . S
C349 C319 1.384 1_455 S
C350 C312 1.389 . S
C350 C332 1.392 . S
C351 C322 1.392 . S
C351 C324 1.389 . S
C352 C327 1.395 . S
C352 C329 1.391 . S
H353 C313 0.951 . S
H354 C314 0.950 . S
H355 C320 0.949 . S
H356 C321 0.950 . S
H357 C325 0.951 . S
H358 C326 0.950 . S
H359 C330 0.949 . S
H360 C331 0.950 . S
H361 C335 0.950 . S
H362 C337 0.950 . S
H363 C340 0.950 . S
H364 C342 0.950 . S
C365 C366 1.443 . S
C365 N369 1.376 . S
C365 C403 1.389 . S
C366 C365 1.443 . S
C366 C367 1.340 . S
C366 H406 0.951 . S
C367 C366 1.340 . S
C367 C368 1.439 . S
C367 H407 0.950 . S
C368 C367 1.439 . S
C368 N369 1.374 . S
C368 C402 1.395 . S
N369 C365 1.376 . S
N369 C368 1.374 . S
N369 Co370 2.008 . S
Co370 N369 2.008 . S
Co370 N371 1.995 1_455 S
Co370 N376 2.008 1_455 S
Co370 N381 1.995 . S
Co370 N386 2.282 . S
Co370 N392 2.282 1_455 S
N371 Co370 1.995 1_655 S
N371 C372 1.376 . S
N371 C375 1.383 . S
C372 N371 1.376 . S
C372 C373 1.446 . S
C372 C402 1.391 1_655 S
C373 C372 1.446 . S
C373 C374 1.339 . S
C373 H408 0.949 . S
C374 C373 1.339 . S
C374 C375 1.439 . S
C374 H409 0.950 . S
C375 N371 1.383 . S
C375 C374 1.439 . S
C375 C404 1.392 . S
N376 Co370 2.008 1_655 S
N376 C377 1.376 . S
N376 C380 1.374 . S
C377 N376 1.376 . S
C377 C378 1.443 . S
C377 C404 1.389 . S
C378 C377 1.443 . S
C378 C379 1.340 . S
C378 H410 0.951 . S
C379 C378 1.340 . S
C379 C380 1.439 . S
C379 H411 0.950 . S
C380 N376 1.374 . S
C380 C379 1.439 . S
C380 C405 1.395 1_655 S
N381 Co370 1.995 . S
N381 C382 1.376 . S
N381 C385 1.383 . S
C382 N381 1.376 . S
C382 C383 1.446 . S
C382 C405 1.391 . S
C383 C382 1.446 . S
C383 C384 1.339 . S
C383 H412 0.949 . S
C384 C383 1.339 . S
C384 C385 1.439 . S
C384 H413 0.950 . S
C385 N381 1.383 . S
C385 C384 1.439 . S
C385 C403 1.392 . S
N386 Co370 2.282 . S
N386 C389 1.332 . S
N386 C391 1.332 . S
C387 C388 1.386 . S
C387 C390 1.388 . S
C388 C387 1.386 . S
C388 C389 1.382 . S
C388 H414 0.950 . S
C389 N386 1.332 . S
C389 C388 1.382 . S
C389 H400 0.952 . S
C390 C387 1.388 . S
C390 C391 1.382 . S
C390 H415 0.950 . S
C391 N386 1.332 . S
C391 C390 1.382 . S
C391 H401 0.948 . S
N392 Co370 2.282 1_655 S
N392 C396 1.332 . S
N392 C397 1.332 . S
C393 C394 1.388 . S
C393 C397 1.382 . S
C393 H416 0.950 . S
C394 C393 1.388 . S
C394 C395 1.386 . S
C395 C394 1.386 . S
C395 C396 1.382 . S
C395 H417 0.950 . S
C396 N392 1.332 . S
C396 C395 1.382 . S
C396 H398 0.952 . S
C397 N392 1.332 . S
C397 C393 1.382 . S
C397 H399 0.948 . S
H398 C396 0.952 . S
H399 C397 0.948 . S
H400 C389 0.952 . S
H401 C391 0.948 . S
C402 C368 1.395 . S
C402 C372 1.391 1_455 S
C403 C365 1.389 . S
C403 C385 1.392 . S
C404 C375 1.392 . S
C404 C377 1.389 . S
C405 C380 1.395 1_455 S
C405 C382 1.391 . S
H406 C366 0.951 . S
H407 C367 0.950 . S
H408 C373 0.949 . S
H409 C374 0.950 . S
H410 C378 0.951 . S
H411 C379 0.950 . S
H412 C383 0.949 . S
H413 C384 0.950 . S
H414 C388 0.950 . S
H415 C390 0.950 . S
H416 C393 0.950 . S
H417 C395 0.950 . S
C418 C419 1.443 . S
C418 N422 1.376 . S
C418 C456 1.389 . S
C419 C418 1.443 . S
C419 C420 1.340 . S
C419 H459 0.951 . S
C420 C419 1.340 . S
C420 C421 1.439 . S
C420 H460 0.950 . S
C421 C420 1.439 . S
C421 N422 1.374 . S
C421 C455 1.395 1_565 S
N422 C418 1.376 . S
N422 C421 1.374 . S
N422 Co423 2.008 1_565 S
Co423 N422 2.008 1_545 S
Co423 N424 1.995 . S
Co423 N429 2.008 . S
Co423 N434 1.995 1_545 S
Co423 N439 2.282 . S
Co423 N445 2.282 1_545 S
N424 Co423 1.995 . S
N424 C425 1.376 . S
N424 C428 1.383 . S
C425 N424 1.376 . S
C425 C426 1.446 . S
C425 C455 1.391 . S
C426 C425 1.446 . S
C426 C427 1.339 . S
C426 H461 0.949 . S
C427 C426 1.339 . S
C427 C428 1.439 . S
C427 H462 0.950 . S
C428 N424 1.383 . S
C428 C427 1.439 . S
C428 C457 1.392 . S
N429 Co423 2.008 . S
N429 C430 1.376 . S
N429 C433 1.374 . S
C430 N429 1.376 . S
C430 C431 1.443 . S
C430 C457 1.389 . S
C431 C430 1.443 . S
C431 C432 1.340 . S
C431 H463 0.951 . S
C432 C431 1.340 . S
C432 C433 1.439 . S
C432 H464 0.950 . S
C433 N429 1.374 . S
C433 C432 1.439 . S
C433 C458 1.395 . S
N434 Co423 1.995 1_565 S
N434 C435 1.376 . S
N434 C438 1.383 . S
C435 N434 1.376 . S
C435 C436 1.446 . S
C435 C458 1.391 1_565 S
C436 C435 1.446 . S
C436 C437 1.339 . S
C436 H465 0.949 . S
C437 C436 1.339 . S
C437 C438 1.439 . S
C437 H466 0.950 . S
C438 N434 1.383 . S
C438 C437 1.439 . S
C438 C456 1.392 . S
N439 Co423 2.282 . S
N439 C442 1.332 . S
N439 C444 1.332 . S
C440 C441 1.386 . S
C440 C443 1.388 . S
C441 C440 1.386 . S
C441 C442 1.382 . S
C441 H467 0.950 . S
C442 N439 1.332 . S
C442 C441 1.382 . S
C442 H453 0.952 . S
C443 C440 1.388 . S
C443 C444 1.382 . S
C443 H468 0.950 . S
C444 N439 1.332 . S
C444 C443 1.382 . S
C444 H454 0.948 . S
N445 Co423 2.282 1_565 S
N445 C449 1.332 . S
N445 C450 1.332 . S
C446 C447 1.388 . S
C446 C450 1.382 . S
C446 H469 0.950 . S
C447 C446 1.388 . S
C447 C448 1.386 . S
C448 C447 1.386 . S
C448 C449 1.382 . S
C448 H470 0.950 . S
C449 N445 1.332 . S
C449 C448 1.382 . S
C449 H451 0.952 . S
C450 N445 1.332 . S
C450 C446 1.382 . S
C450 H452 0.948 . S
H451 C449 0.952 . S
H452 C450 0.948 . S
H453 C442 0.952 . S
H454 C444 0.948 . S
C455 C421 1.395 1_545 S
C455 C425 1.391 . S
C456 C418 1.389 . S
C456 C438 1.392 . S
C457 C428 1.392 . S
C457 C430 1.389 . S
C458 C433 1.395 . S
C458 C435 1.391 1_545 S
H459 C419 0.951 . S
H460 C420 0.950 . S
H461 C426 0.949 . S
H462 C427 0.950 . S
H463 C431 0.951 . S
H464 C432 0.950 . S
H465 C436 0.949 . S
H466 C437 0.950 . S
H467 C441 0.950 . S
H468 C443 0.950 . S
H469 C446 0.950 . S
H470 C448 0.950 . S
C471 C472 1.443 . S
C471 N475 1.376 . S
C471 C509 1.389 . S
C472 C471 1.443 . S
C472 C473 1.340 . S
C472 H512 0.951 . S
C473 C472 1.340 . S
C473 C474 1.439 . S
C473 H513 0.950 . S
C474 C473 1.439 . S
C474 N475 1.374 . S
C474 C508 1.395 . S
N475 C471 1.376 . S
N475 C474 1.374 . S
N475 Co476 2.008 . S
Co476 N475 2.008 . S
Co476 N477 1.981 1_554 S
Co476 N482 2.008 1_554 S
Co476 N487 1.995 . S
Co476 N492 2.282 1_554 S
Co476 N498 2.282 . S
N477 Co476 1.981 1_556 S
N477 C478 1.372 1_556 S
N477 C481 1.407 . S
C478 N477 1.372 1_554 S
C478 C479 1.446 1_554 S
C478 C508 1.391 . S
C479 C478 1.446 1_556 S
C479 C480 1.339 . S
C479 H514 0.949 . S
C480 C479 1.339 . S
C480 C481 1.439 . S
C480 H515 0.950 . S
C481 N477 1.407 . S
C481 C480 1.439 . S
C481 C510 1.392 . S
N482 Co476 2.008 1_556 S
N482 C483 1.376 . S
N482 C486 1.374 . S
C483 N482 1.376 . S
C483 C484 1.443 . S
C483 C510 1.389 . S
C484 C483 1.443 . S
C484 C485 1.340 . S
C484 H516 0.951 . S
C485 C484 1.340 . S
C485 C486 1.439 . S
C485 H517 0.950 . S
C486 N482 1.374 . S
C486 C485 1.439 . S
C486 C511 1.395 1_556 S
N487 Co476 1.995 . S
N487 C488 1.376 . S
N487 C491 1.383 . S
C488 N487 1.376 . S
C488 C489 1.446 . S
C488 C511 1.391 . S
C489 C488 1.446 . S
C489 C490 1.339 . S
C489 H518 0.949 . S
C490 C489 1.339 . S
C490 C491 1.439 . S
C490 H519 0.950 . S
C491 N487 1.383 . S
C491 C490 1.439 . S
C491 C509 1.392 . S
N492 Co476 2.282 1_556 S
N492 C495 1.332 . S
N492 C497 1.332 . S
C493 C494 1.386 . S
C493 C496 1.388 . S
C494 C493 1.386 . S
C494 C495 1.382 . S
C494 H520 0.950 . S
C495 N492 1.332 . S
C495 C494 1.382 . S
C495 H506 0.952 . S
C496 C493 1.388 . S
C496 C497 1.382 . S
C496 H521 0.950 . S
C497 N492 1.332 . S
C497 C496 1.382 . S
C497 H507 0.948 . S
N498 Co476 2.282 . S
N498 C502 1.332 . S
N498 C503 1.332 . S
C499 C500 1.388 . S
C499 C503 1.382 . S
C499 H522 0.950 . S
C500 C499 1.388 . S
C500 C501 1.386 . S
C501 C500 1.386 . S
C501 C502 1.382 . S
C501 H523 0.950 . S
C502 N498 1.332 . S
C502 C501 1.382 . S
C502 H504 0.952 . S
C503 N498 1.332 . S
C503 C499 1.382 . S
C503 H505 0.948 . S
H504 C502 0.952 . S
H505 C503 0.948 . S
H506 C495 0.952 . S
H507 C497 0.948 . S
C508 C474 1.395 . S
C508 C478 1.391 . S
C509 C471 1.389 . S
C509 C491 1.392 . S
C510 C481 1.392 . S
C510 C483 1.389 . S
C511 C486 1.395 1_554 S
C511 C488 1.391 . S
H512 C472 0.951 . S
H513 C473 0.950 . S
H514 C479 0.949 . S
H515 C480 0.950 . S
H516 C484 0.951 . S
H517 C485 0.950 . S
H518 C489 0.949 . S
H519 C490 0.950 . S
H520 C494 0.950 . S
H521 C496 0.950 . S
H522 C499 0.950 . S
H523 C501 0.950 . S
C524 C525 1.443 . S
C524 N528 1.360 1_565 S
C524 C562 1.389 . S
C525 C524 1.443 . S
C525 C526 1.340 . S
C525 H565 0.951 . S
C526 C525 1.340 . S
C526 C527 1.439 1_565 S
C526 H566 0.950 . S
C527 C526 1.439 1_545 S
C527 N528 1.374 . S
C527 C561 1.395 . S
N528 C524 1.360 1_545 S
N528 C527 1.374 . S
N528 Co529 2.020 . S
Co529 N528 2.020 . S
Co529 N530 1.995 . S
Co529 N535 2.008 . S
Co529 N540 1.995 . S
Co529 N545 2.282 . S
Co529 N551 2.282 1_545 S
N530 Co529 1.995 . S
N530 C531 1.376 . S
N530 C534 1.383 . S
C531 N530 1.376 . S
C531 C532 1.446 . S
C531 C561 1.391 . S
C532 C531 1.446 . S
C532 C533 1.339 . S
C532 H567 0.949 . S
C533 C532 1.339 . S
C533 C534 1.439 . S
C533 H568 0.950 . S
C534 N530 1.383 . S
C534 C533 1.439 . S
C534 C563 1.392 . S
N535 Co529 2.008 . S
N535 C536 1.376 . S
N535 C539 1.374 . S
C536 N535 1.376 . S
C536 C537 1.443 . S
C536 C563 1.389 . S
C537 C536 1.443 . S
C537 C538 1.340 . S
C537 H569 0.951 . S
C538 C537 1.340 . S
C538 C539 1.439 . S
C538 H570 0.950 . S
C539 N535 1.374 . S
C539 C538 1.439 . S
C539 C564 1.395 . S
N540 Co529 1.995 . S
N540 C541 1.376 . S
N540 C544 1.383 1_545 S
C541 N540 1.376 . S
C541 C542 1.446 1_545 S
C541 C564 1.391 . S
C542 C541 1.446 1_565 S
C542 C543 1.339 . S
C542 H571 0.949 . S
C543 C542 1.339 . S
C543 C544 1.439 . S
C543 H572 0.950 . S
C544 N540 1.383 1_565 S
C544 C543 1.439 . S
C544 C562 1.392 . S
N545 Co529 2.282 . S
N545 C548 1.332 . S
N545 C550 1.332 . S
C546 C547 1.386 . S
C546 C549 1.388 . S
C547 C546 1.386 . S
C547 C548 1.382 . S
C547 H573 0.950 . S
C548 N545 1.332 . S
C548 C547 1.382 . S
C548 H559 0.952 . S
C549 C546 1.388 . S
C549 C550 1.382 . S
C549 H574 0.950 . S
C550 N545 1.332 . S
C550 C549 1.382 . S
C550 H560 0.948 . S
N551 Co529 2.282 1_565 S
N551 C555 1.332 . S
N551 C556 1.332 . S
C552 C553 1.388 . S
C552 C556 1.382 . S
C552 H575 0.950 . S
C553 C552 1.388 . S
C553 C554 1.386 . S
C554 C553 1.386 . S
C554 C555 1.382 . S
C554 H576 0.950 . S
C555 N551 1.332 . S
C555 C554 1.382 . S
C555 H557 0.952 . S
C556 N551 1.332 . S
C556 C552 1.382 . S
C556 H558 0.948 . S
H557 C555 0.952 . S
H558 C556 0.948 . S
H559 C548 0.952 . S
H560 C550 0.948 . S
C561 C527 1.395 . S
C561 C531 1.391 . S
C562 C524 1.389 . S
C562 C544 1.392 . S
C563 C534 1.392 . S
C563 C536 1.389 . S
C564 C539 1.395 . S
C564 C541 1.391 . S
H565 C525 0.951 . S
H566 C526 0.950 . S
H567 C532 0.949 . S
H568 C533 0.950 . S
H569 C537 0.951 . S
H570 C538 0.950 . S
H571 C542 0.949 . S
H572 C543 0.950 . S
H573 C547 0.950 . S
H574 C549 0.950 . S
H575 C552 0.950 . S
H576 C554 0.950 . S
C577 C578 1.443 . S
C577 N581 1.376 . S
C577 C615 1.389 . S
C578 C577 1.443 . S
C578 C579 1.340 . S
C578 H618 0.951 . S
C579 C578 1.340 . S
C579 C580 1.439 . S
C579 H619 0.950 . S
C580 C579 1.439 . S
C580 N581 1.374 . S
C580 C614 1.395 . S
N581 C577 1.376 . S
N581 C580 1.374 . S
N581 Co582 2.008 . S
Co582 N581 2.008 . S
Co582 N583 1.995 . S
Co582 N588 2.008 . S
Co582 N593 1.995 . S
Co582 N598 2.282 1_554 S
Co582 N604 2.282 . S
N583 Co582 1.995 . S
N583 C584 1.376 . S
N583 C587 1.383 1_554 S
C584 N583 1.376 . S
C584 C585 1.446 1_554 S
C584 C614 1.391 . S
C585 C584 1.446 1_556 S
C585 C586 1.339 . S
C585 H620 0.949 . S
C586 C585 1.339 . S
C586 C587 1.439 . S
C586 H621 0.950 . S
C587 N583 1.383 1_556 S
C587 C586 1.439 . S
C587 C616 1.392 . S
N588 Co582 2.008 . S
N588 C589 1.376 1_554 S
N588 C592 1.374 . S
C589 N588 1.376 1_556 S
C589 C590 1.443 . S
C589 C616 1.389 . S
C590 C589 1.443 . S
C590 C591 1.340 . S
C590 H622 0.951 . S
C591 C590 1.340 . S
C591 C592 1.439 1_556 S
C591 H623 0.950 . S
C592 N588 1.374 . S
C592 C591 1.439 1_554 S
C592 C617 1.395 . S
N593 Co582 1.995 . S
N593 C594 1.376 . S
N593 C597 1.383 . S
C594 N593 1.376 . S
C594 C595 1.446 . S
C594 C617 1.391 . S
C595 C594 1.446 . S
C595 C596 1.339 . S
C595 H624 0.949 . S
C596 C595 1.339 . S
C596 C597 1.439 . S
C596 H625 0.950 . S
C597 N593 1.383 . S
C597 C596 1.439 . S
C597 C615 1.392 . S
N598 Co582 2.282 1_556 S
N598 C601 1.332 . S
N598 C603 1.332 . S
C599 C600 1.386 . S
C599 C602 1.388 . S
C600 C599 1.386 . S
C600 C601 1.382 . S
C600 H626 0.950 . S
C601 N598 1.332 . S
C601 C600 1.382 . S
C601 H612 0.952 1_556 S
C602 C599 1.388 . S
C602 C603 1.382 . S
C602 H627 0.950 . S
C603 N598 1.332 . S
C603 C602 1.382 . S
C603 H613 0.948 . S
N604 Co582 2.282 . S
N604 C608 1.332 . S
N604 C609 1.332 . S
C605 C606 1.388 . S
C605 C609 1.382 . S
C605 H628 0.950 . S
C606 C605 1.388 . S
C606 C607 1.386 . S
C607 C606 1.386 . S
C607 C608 1.382 . S
C607 H629 0.950 . S
C608 N604 1.332 . S
C608 C607 1.382 . S
C608 H610 0.952 . S
C609 N604 1.332 . S
C609 C605 1.382 . S
C609 H611 0.948 . S
H610 C608 0.952 . S
H611 C609 0.948 . S
H612 C601 0.952 1_554 S
H613 C603 0.948 . S
C614 C580 1.395 . S
C614 C584 1.391 . S
C615 C577 1.389 . S
C615 C597 1.392 . S
C616 C587 1.392 . S
C616 C589 1.389 . S
C617 C592 1.395 . S
C617 C594 1.391 . S
H618 C578 0.951 . S
H619 C579 0.950 . S
H620 C585 0.949 . S
H621 C586 0.950 . S
H622 C590 0.951 . S
H623 C591 0.950 . S
H624 C595 0.949 . S
H625 C596 0.950 . S
H626 C600 0.950 . S
H627 C602 0.950 . S
H628 C605 0.950 . S
H629 C607 0.950 . S
C630 C631 1.369 . S
C630 C632 1.419 . S
C630 H634 0.930 . S
C631 C630 1.369 . S
C631 C640 1.429 . S
C632 C630 1.419 . S
C632 C633 1.363 . S
C632 H635 0.929 . S
C633 C632 1.363 . S
C633 C639 1.428 . S
H634 C630 0.930 . S
H635 C632 0.929 . S
S636 N637 1.613 . S
S636 N638 1.610 . S
N637 S636 1.613 . S
N637 C640 1.350 . S
N638 S636 1.610 . S
N638 C639 1.351 . S
C639 C633 1.428 . S
C639 N638 1.351 . S
C639 C640 1.434 . S
C640 C631 1.429 . S
C640 N637 1.350 . S
C640 C639 1.434 . S
C641 C642 1.369 . S
C641 C643 1.419 . S
C641 H645 0.930 . S
C642 C641 1.369 . S
C642 C651 1.429 . S
C643 C641 1.419 . S
C643 C644 1.363 . S
C643 H646 0.929 . S
C644 C643 1.363 . S
C644 C650 1.428 . S
H645 C641 0.930 . S
H646 C643 0.929 . S
S647 N648 1.613 . S
S647 N649 1.610 . S
N648 S647 1.613 . S
N648 C651 1.350 . S
N649 S647 1.610 . S
N649 C650 1.351 . S
C650 C644 1.428 . S
C650 N649 1.351 . S
C650 C651 1.434 . S
C651 C642 1.429 . S
C651 N648 1.350 . S
C651 C650 1.434 . S
C652 C653 1.369 . S
C652 C654 1.419 . S
C652 H656 0.930 . S
C653 C652 1.369 . S
C653 C662 1.429 . S
C654 C652 1.419 . S
C654 C655 1.363 . S
C654 H657 0.929 . S
C655 C654 1.363 . S
C655 C661 1.428 . S
H656 C652 0.930 . S
H657 C654 0.929 . S
S658 N659 1.613 . S
S658 N660 1.610 . S
N659 S658 1.613 . S
N659 C662 1.350 . S
N660 S658 1.610 . S
N660 C661 1.351 . S
C661 C655 1.428 . S
C661 N660 1.351 . S
C661 C662 1.434 . S
C662 C653 1.429 . S
C662 N659 1.350 . S
C662 C661 1.434 . S
C663 C664 1.369 . S
C663 C665 1.419 . S
C663 H667 0.930 . S
C664 C663 1.369 . S
C664 C673 1.429 . S
C665 C663 1.419 . S
C665 C666 1.363 . S
C665 H668 0.929 . S
C666 C665 1.363 . S
C666 C672 1.428 . S
H667 C663 0.930 . S
H668 C665 0.929 . S
S669 N670 1.613 . S
S669 N671 1.610 . S
N670 S669 1.613 . S
N670 C673 1.350 . S
N671 S669 1.610 . S
N671 C672 1.351 . S
C672 C666 1.428 . S
C672 N671 1.351 . S
C672 C673 1.434 . S
C673 C664 1.429 . S
C673 N670 1.350 . S
C673 C672 1.434 . S
C674 C675 1.369 . S
C674 C676 1.419 . S
C674 H678 0.930 . S
C675 C674 1.369 . S
C675 C684 1.429 . S
C676 C674 1.419 . S
C676 C677 1.363 . S
C676 H679 0.929 . S
C677 C676 1.363 . S
C677 C683 1.428 . S
H678 C674 0.930 . S
H679 C676 0.929 . S
S680 N681 1.613 . S
S680 N682 1.610 . S
N681 S680 1.613 . S
N681 C684 1.350 . S
N682 S680 1.610 . S
N682 C683 1.351 . S
C683 C677 1.428 . S
C683 N682 1.351 . S
C683 C684 1.434 . S
C684 C675 1.429 . S
C684 N681 1.350 . S
C684 C683 1.434 . S
C685 C686 1.369 . S
C685 C687 1.419 . S
C685 H689 0.930 . S
C686 C685 1.369 . S
C686 C695 1.429 . S
C687 C685 1.419 . S
C687 C688 1.363 . S
C687 H690 0.929 . S
C688 C687 1.363 . S
C688 C694 1.428 . S
H689 C685 0.930 . S
H690 C687 0.929 . S
S691 N692 1.613 . S
S691 N693 1.610 . S
N692 S691 1.613 . S
N692 C695 1.350 . S
N693 S691 1.610 . S
N693 C694 1.351 . S
C694 C688 1.428 . S
C694 N693 1.351 . S
C694 C695 1.434 . S
C695 C686 1.429 . S
C695 N692 1.350 . S
C695 C694 1.434 . S
C696 C697 1.369 . S
C696 C698 1.419 . S
C696 H700 0.930 . S
C697 C696 1.369 . S
C697 C706 1.429 . S
C698 C696 1.419 . S
C698 C699 1.363 . S
C698 H701 0.929 . S
C699 C698 1.363 . S
C699 C705 1.428 . S
H700 C696 0.930 . S
H701 C698 0.929 . S
S702 N703 1.613 . S
S702 N704 1.610 . S
N703 S702 1.613 . S
N703 C706 1.350 . S
N704 S702 1.610 . S
N704 C705 1.351 . S
C705 C699 1.428 . S
C705 N704 1.351 . S
C705 C706 1.434 . S
C706 C697 1.429 . S
C706 N703 1.350 . S
C706 C705 1.434 . S
C707 C708 1.369 . S
C707 C709 1.419 . S
C707 H711 0.930 . S
C708 C707 1.369 . S
C708 C717 1.429 . S
C709 C707 1.419 . S
C709 C710 1.363 . S
C709 H712 0.929 . S
C710 C709 1.363 . S
C710 C716 1.428 . S
H711 C707 0.930 . S
H712 C709 0.929 . S
S713 N714 1.613 . S
S713 N715 1.610 . S
N714 S713 1.613 . S
N714 C717 1.350 . S
N715 S713 1.610 . S
N715 C716 1.351 . S
C716 C710 1.428 . S
C716 N715 1.351 . S
C716 C717 1.434 . S
C717 C708 1.429 . S
C717 N714 1.350 . S
C717 C716 1.434 . S
C718 C719 1.369 . S
C718 C720 1.419 . S
C718 H722 0.930 . S
C719 C718 1.369 . S
C719 C728 1.429 . S
C720 C718 1.419 . S
C720 C721 1.363 . S
C720 H723 0.929 . S
C721 C720 1.363 . S
C721 C727 1.428 . S
H722 C718 0.930 . S
H723 C720 0.929 . S
S724 N725 1.613 . S
S724 N726 1.610 . S
N725 S724 1.613 . S
N725 C728 1.350 . S
N726 S724 1.610 . S
N726 C727 1.351 . S
C727 C721 1.428 . S
C727 N726 1.351 . S
C727 C728 1.434 . S
C728 C719 1.429 . S
C728 N725 1.350 . S
C728 C727 1.434 . S
C729 C730 1.369 . S
C729 C731 1.419 . S
C729 H733 0.930 . S
C730 C729 1.369 . S
C730 C739 1.429 . S
C731 C729 1.419 . S
C731 C732 1.363 . S
C731 H734 0.929 . S
C732 C731 1.363 . S
C732 C738 1.428 . S
H733 C729 0.930 . S
H734 C731 0.929 . S
S735 N736 1.613 . S
S735 N737 1.610 . S
N736 S735 1.613 . S
N736 C739 1.350 . S
N737 S735 1.610 . S
N737 C738 1.351 . S
C738 C732 1.428 . S
C738 N737 1.351 . S
C738 C739 1.434 . S
C739 C730 1.429 . S
C739 N736 1.350 . S
C739 C738 1.434 . S
C740 C741 1.369 . S
C740 C742 1.419 . S
C740 H744 0.930 . S
C741 C740 1.369 . S
C741 C750 1.429 . S
C742 C740 1.419 . S
C742 C743 1.363 . S
C742 H745 0.929 . S
C743 C742 1.363 . S
C743 C749 1.428 . S
H744 C740 0.930 . S
H745 C742 0.929 . S
S746 N747 1.613 . S
S746 N748 1.610 . S
N747 S746 1.613 . S
N747 C750 1.350 . S
N748 S746 1.610 . S
N748 C749 1.351 . S
C749 C743 1.428 . S
C749 N748 1.351 . S
C749 C750 1.434 . S
C750 C741 1.429 . S
C750 N747 1.350 . S
C750 C749 1.434 . S
C751 C752 1.369 . S
C751 C753 1.419 . S
C751 H755 0.930 . S
C752 C751 1.369 . S
C752 C761 1.429 . S
C753 C751 1.419 . S
C753 C754 1.363 . S
C753 H756 0.929 . S
C754 C753 1.363 . S
C754 C760 1.428 . S
H755 C751 0.930 . S
H756 C753 0.929 . S
S757 N758 1.613 . S
S757 N759 1.610 . S
N758 S757 1.613 . S
N758 C761 1.350 . S
N759 S757 1.610 . S
N759 C760 1.351 . S
C760 C754 1.428 . S
C760 N759 1.351 . S
C760 C761 1.434 . S
C761 C752 1.429 . S
C761 N758 1.350 . S
C761 C760 1.434 . S
C762 C763 1.369 . S
C762 C764 1.419 . S
C762 H766 0.930 . S
C763 C762 1.369 . S
C763 C772 1.429 . S
C764 C762 1.419 . S
C764 C765 1.363 . S
C764 H767 0.929 . S
C765 C764 1.363 . S
C765 C771 1.428 . S
H766 C762 0.930 . S
H767 C764 0.929 . S
S768 N769 1.613 . S
S768 N770 1.610 . S
N769 S768 1.613 . S
N769 C772 1.350 . S
N770 S768 1.610 . S
N770 C771 1.351 . S
C771 C765 1.428 . S
C771 N770 1.351 . S
C771 C772 1.434 . S
C772 C763 1.429 . S
C772 N769 1.350 . S
C772 C771 1.434 . S
C773 C774 1.369 . S
C773 C775 1.419 . S
C773 H777 0.930 . S
C774 C773 1.369 . S
C774 C783 1.429 . S
C775 C773 1.419 . S
C775 C776 1.363 . S
C775 H778 0.929 . S
C776 C775 1.363 . S
C776 C782 1.428 . S
H777 C773 0.930 . S
H778 C775 0.929 . S
S779 N780 1.613 . S
S779 N781 1.610 . S
N780 S779 1.613 . S
N780 C783 1.350 . S
N781 S779 1.610 . S
N781 C782 1.351 . S
C782 C776 1.428 . S
C782 N781 1.351 . S
C782 C783 1.434 . S
C783 C774 1.429 . S
C783 N780 1.350 . S
C783 C782 1.434 . S
C784 C785 1.369 . S
C784 C786 1.419 . S
C784 H788 0.930 . S
C785 C784 1.369 . S
C785 C794 1.429 . S
C786 C784 1.419 . S
C786 C787 1.363 . S
C786 H789 0.929 . S
C787 C786 1.363 . S
C787 C793 1.428 . S
H788 C784 0.930 . S
H789 C786 0.929 . S
S790 N791 1.613 . S
S790 N792 1.610 . S
N791 S790 1.613 . S
N791 C794 1.350 . S
N792 S790 1.610 . S
N792 C793 1.351 . S
C793 C787 1.428 . S
C793 N792 1.351 . S
C793 C794 1.434 . S
C794 C785 1.429 . S
C794 N791 1.350 . S
C794 C793 1.434 . S
C795 C796 1.369 . S
C795 C797 1.419 . S
C795 H799 0.930 . S
C796 C795 1.369 . S
C796 C805 1.429 . S
C797 C795 1.419 . S
C797 C798 1.363 . S
C797 H800 0.929 . S
C798 C797 1.363 . S
C798 C804 1.428 . S
H799 C795 0.930 . S
H800 C797 0.929 . S
S801 N802 1.613 . S
S801 N803 1.610 . S
N802 S801 1.613 . S
N802 C805 1.350 . S
N803 S801 1.610 . S
N803 C804 1.351 . S
C804 C798 1.428 . S
C804 N803 1.351 . S
C804 C805 1.434 . S
C805 C796 1.429 . S
C805 N802 1.350 . S
C805 C804 1.434 . S
C806 C807 1.369 . S
C806 C808 1.419 . S
C806 H810 0.930 . S
C807 C806 1.369 . S
C807 C816 1.429 . S
C808 C806 1.419 . S
C808 C809 1.363 . S
C808 H811 0.929 . S
C809 C808 1.363 . S
C809 C815 1.428 . S
H810 C806 0.930 . S
H811 C808 0.929 . S
S812 N813 1.613 . S
S812 N814 1.610 . S
N813 S812 1.613 . S
N813 C816 1.350 . S
N814 S812 1.610 . S
N814 C815 1.351 . S
C815 C809 1.428 . S
C815 N814 1.351 . S
C815 C816 1.434 . S
C816 C807 1.429 . S
C816 N813 1.350 . S
C816 C815 1.434 . S
C817 C818 1.369 . S
C817 C819 1.419 . S
C817 H821 0.930 . S
C818 C817 1.369 . S
C818 C827 1.429 . S
C819 C817 1.419 . S
C819 C820 1.363 . S
C819 H822 0.929 . S
C820 C819 1.363 . S
C820 C826 1.428 . S
H821 C817 0.930 . S
H822 C819 0.929 . S
S823 N824 1.613 . S
S823 N825 1.610 . S
N824 S823 1.613 . S
N824 C827 1.350 . S
N825 S823 1.610 . S
N825 C826 1.351 . S
C826 C820 1.428 . S
C826 N825 1.351 . S
C826 C827 1.434 . S
C827 C818 1.429 . S
C827 N824 1.350 . S
C827 C826 1.434 . S
C828 C829 1.369 . S
C828 C830 1.419 . S
C828 H832 0.930 . S
C829 C828 1.369 . S
C829 C838 1.429 . S
C830 C828 1.419 . S
C830 C831 1.363 . S
C830 H833 0.929 . S
C831 C830 1.363 . S
C831 C837 1.428 . S
H832 C828 0.930 . S
H833 C830 0.929 . S
S834 N835 1.613 . S
S834 N836 1.610 . S
N835 S834 1.613 . S
N835 C838 1.350 . S
N836 S834 1.610 . S
N836 C837 1.351 . S
C837 C831 1.428 . S
C837 N836 1.351 . S
C837 C838 1.434 . S
C838 C829 1.429 . S
C838 N835 1.350 . S
C838 C837 1.434 . S
C839 C840 1.369 . S
C839 C841 1.419 . S
C839 H843 0.930 . S
C840 C839 1.369 . S
C840 C849 1.429 . S
C841 C839 1.419 . S
C841 C842 1.363 . S
C841 H844 0.929 . S
C842 C841 1.363 . S
C842 C848 1.428 . S
H843 C839 0.930 . S
H844 C841 0.929 . S
S845 N846 1.613 . S
S845 N847 1.610 . S
N846 S845 1.613 . S
N846 C849 1.350 . S
N847 S845 1.610 . S
N847 C848 1.351 . S
C848 C842 1.428 . S
C848 N847 1.351 . S
C848 C849 1.434 . S
C849 C840 1.429 . S
C849 N846 1.350 . S
C849 C848 1.434 . S
C850 C851 1.369 . S
C850 C852 1.419 . S
C850 H854 0.930 . S
C851 C850 1.369 . S
C851 C860 1.429 . S
C852 C850 1.419 . S
C852 C853 1.363 . S
C852 H855 0.929 . S
C853 C852 1.363 . S
C853 C859 1.428 . S
H854 C850 0.930 . S
H855 C852 0.929 . S
S856 N857 1.613 . S
S856 N858 1.610 . S
N857 S856 1.613 . S
N857 C860 1.350 . S
N858 S856 1.610 . S
N858 C859 1.351 . S
C859 C853 1.428 . S
C859 N858 1.351 . S
C859 C860 1.434 . S
C860 C851 1.429 . S
C860 N857 1.350 . S
C860 C859 1.434 . S
C861 C862 1.369 . S
C861 C863 1.419 . S
C861 H865 0.930 . S
C862 C861 1.369 . S
C862 C871 1.429 . S
C863 C861 1.419 . S
C863 C864 1.363 . S
C863 H866 0.929 . S
C864 C863 1.363 . S
C864 C870 1.428 . S
H865 C861 0.930 . S
H866 C863 0.929 . S
S867 N868 1.613 . S
S867 N869 1.610 . S
N868 S867 1.613 . S
N868 C871 1.350 . S
N869 S867 1.610 . S
N869 C870 1.351 . S
C870 C864 1.428 . S
C870 N869 1.351 . S
C870 C871 1.434 . S
C871 C862 1.429 . S
C871 N868 1.350 . S
C871 C870 1.434 . S
C872 C873 1.369 . S
C872 C874 1.419 . S
C872 H876 0.930 . S
C873 C872 1.369 . S
C873 C882 1.429 . S
C874 C872 1.419 . S
C874 C875 1.363 . S
C874 H877 0.929 . S
C875 C874 1.363 . S
C875 C881 1.428 . S
H876 C872 0.930 . S
H877 C874 0.929 . S
S878 N879 1.613 . S
S878 N880 1.610 . S
N879 S878 1.613 . S
N879 C882 1.350 . S
N880 S878 1.610 . S
N880 C881 1.351 . S
C881 C875 1.428 . S
C881 N880 1.351 . S
C881 C882 1.434 . S
C882 C873 1.429 . S
C882 N879 1.350 . S
C882 C881 1.434 . S
C883 C884 1.369 . S
C883 C885 1.419 . S
C883 H887 0.930 . S
C884 C883 1.369 . S
C884 C893 1.429 . S
C885 C883 1.419 . S
C885 C886 1.363 . S
C885 H888 0.929 . S
C886 C885 1.363 . S
C886 C892 1.428 . S
H887 C883 0.930 . S
H888 C885 0.929 . S
S889 N890 1.613 . S
S889 N891 1.610 . S
N890 S889 1.613 . S
N890 C893 1.350 . S
N891 S889 1.610 . S
N891 C892 1.351 . S
C892 C886 1.428 . S
C892 N891 1.351 . S
C892 C893 1.434 . S
C893 C884 1.429 . S
C893 N890 1.350 . S
C893 C892 1.434 . S
C633 C334 1.564 . S
C631 C16 1.571 . S
C644 C403 1.534 . S
C642 C55 1.543 . S
C655 C341 1.552 . S
C653 C99 1.558 . S
C666 C404 1.533 . S
C664 C138 1.539 . S
C677 C457 1.575 . S
C675 C1 1.581 . S
C688 C493 1.526 . S
C686 C40 1.526 . S
C697 C94 1.557 . S
C699 C553 1.555 . S
C710 C616 1.523 . S
C708 C133 1.524 . S
C721 C456 1.545 . S
C719 C60 1.553 . S
C730 C79 1.534 . S
C732 C500 1.534 . S
C743 C546 1.544 . S
C741 C118 1.546 . S
C754 C615 1.535 . S
C752 C21 1.538 . S
C763 C177 1.548 . S
C765 C394 1.543 . S
C776 C351 1.546 . S
C774 C211 1.557 . S
C785 C255 1.548 . S
C787 C387 1.539 . S
C796 C289 1.564 . S
C798 C350 1.558 . S
C809 C562 1.550 . S
C807 C157 1.553 . S
C820 C606 1.531 . S
C818 C196 1.532 . S
C831 C440 1.566 . S
C829 C250 1.573 . S
C840 C294 1.523 . S
C842 C509 1.527 . S
C853 C563 1.543 . S
C851 C216 1.553 . S
C864 C599 1.533 . S
C862 C235 1.531 . S
C875 C447 1.573 . S
C873 C274 1.576 . S
C884 C172 1.531 . S
C886 C510 1.532 . S
