# Generated by pormake.
# Topology anh, (6,3)-cn, num edge types: 1
# Building blocks:
#     Node 0, Type 0, BuildingBlock: CUWYAW_clean_sbu_0, # of connection points: 6
#     Node 1, Type 0, BuildingBlock: CUWYAW_clean_sbu_0, # of connection points: 6
#     Node 2, Type 0, BuildingBlock: CUWYAW_clean_sbu_0, # of connection points: 6
#     Node 3, Type 1, BuildingBlock: MIDCAF_clean_linker_0, # of connection points: 3
#     Node 4, Type 1, BuildingBlock: MIDCAF_clean_linker_0, # of connection points: 3
#     Node 5, Type 1, BuildingBlock: MIDCAF_clean_linker_0, # of connection points: 3
#     Node 6, Type 1, BuildingBlock: MIDCAF_clean_linker_0, # of connection points: 3
#     Node 7, Type 1, BuildingBlock: MIDCAF_clean_linker_0, # of connection points: 3
#     Node 8, Type 1, BuildingBlock: MIDCAF_clean_linker_0, # of connection points: 3
#     Edge 9, Type (0, 1), None
#     Edge 10, Type (0, 1), None
#     Edge 11, Type (0, 1), None
#     Edge 12, Type (0, 1), None
#     Edge 13, Type (0, 1), None
#     Edge 14, Type (0, 1), None
#     Edge 15, Type (0, 1), None
#     Edge 16, Type (0, 1), None
#     Edge 17, Type (0, 1), None
#     Edge 18, Type (0, 1), None
#     Edge 19, Type (0, 1), None
#     Edge 20, Type (0, 1), None
#     Edge 21, Type (0, 1), None
#     Edge 22, Type (0, 1), None
#     Edge 23, Type (0, 1), None
#     Edge 24, Type (0, 1), None
#     Edge 25, Type (0, 1), None
#     Edge 26, Type (0, 1), None
# Relax obj value: 0.465
# Max RMSD: 0.217
# Mean RMSD: 0.182
data_MOF--net-anh--node1-CUWYAW_clean_sbu_0--node2-MIDCAF_clean_linker_0--edge1-none
_symmetry_space_group_name_H-M    P1
_symmetry_Int_Tables_number       1
_symmetry_cell_setting            triclinic
loop_
_symmetry_equiv_pos_as_xyz
'x, y, z'
_cell_length_a     20.007803
_cell_length_b     20.009764
_cell_length_c     37.218435
_cell_angle_alpha  90.037646
_cell_angle_beta   89.985386
_cell_angle_gamma 120.01586
loop_
_atom_site_label
_atom_site_type_symbol
_atom_site_fract_x
_atom_site_fract_y
_atom_site_fract_z
_atom_type_partial_charge
C0 C 1.08082 0.35989 0.15686 0.0
Eu1 Eu 1.15874 0.50883 0.15459 0.0
C2 C 0.99579 0.31631 0.16008 0.0
C3 C 0.9633 0.29302 0.19441 0.0
C4 C 0.89332 0.28893 0.20238 0.0
C5 C 0.85412 0.3061 0.17592 0.0
C6 C 0.87934 0.31531 0.14022 0.0
C7 C 0.95005 0.32052 0.13229 0.0
C8 C 1.17483 0.59155 0.21581 0.0
C9 C 1.04884 0.58506 0.1404 0.0
C10 C 0.29445 0.8151 0.13765 0.0
Eu11 Eu 0.23995 0.66705 0.13901 0.0
C12 C 0.2725 0.86834 0.1541 0.0
C13 C 0.25841 0.9172 0.13239 0.0
C14 C 0.2506 0.97666 0.14785 0.0
C15 C 0.2593 0.98963 0.18522 0.0
C16 C 0.26417 0.93451 0.20696 0.0
C17 C 0.27043 0.87449 0.19157 0.0
C18 C 0.20276 0.57422 0.08046 0.0
C19 C 0.35006 0.59127 0.13711 0.0
O20 O 1.10822 0.39787 0.12685 0.0
O21 O 1.11703 0.40202 0.1849 0.0
O22 O 1.1122 0.5315 0.20495 0.0
O23 O 0.22844 0.60887 0.19274 0.0
O24 O 1.05067 0.51941 0.14019 0.0
O25 O 1.11587 0.65029 0.14454 0.0
O26 O 0.24856 0.76878 0.11283 0.0
O27 O 0.31969 0.78131 0.15944 0.0
O28 O 0.27069 0.63413 0.08478 0.0
O29 O 1.16019 0.56845 0.10609 0.0
O30 O 0.34929 0.65708 0.13595 0.0
O31 O 0.28328 0.52631 0.14352 0.0
H32 H 0.99633 0.28773 0.21617 0.0
H33 H 0.87309 0.27866 0.22993 0.0
H34 H 0.8487 0.32636 0.11919 0.0
H35 H 0.97247 0.33663 0.10525 0.0
H36 H 0.25758 0.91205 0.10339 0.0
H37 H 0.24383 1.0159 0.13023 0.0
H38 H 0.27091 0.94125 0.23579 0.0
H39 H 0.27882 0.83614 0.20914 0.0
C40 C 0.58219 0.28329 0.49046 0.0
Eu41 Eu 0.65326 0.20545 0.48809 0.0
C42 C 0.62367 0.36832 0.49365 0.0
C43 C 0.63305 0.4009 0.52798 0.0
C44 C 0.699 0.4709 0.53589 0.0
C45 C 0.75525 0.51004 0.50936 0.0
C46 C 0.73904 0.48473 0.47367 0.0
C47 C 0.67348 0.414 0.46581 0.0
C48 C 0.71999 0.18942 0.54924 0.0
C49 C 0.8394 0.3154 0.47382 0.0
C50 C 0.8239 1.06988 0.47091 0.0
Eu51 Eu 0.73031 0.12432 0.47239 0.0
C52 C 0.89909 1.0918 0.48734 0.0
C53 C 0.96204 1.10583 0.4656 0.0
C54 C 1.0293 1.11361 0.48103 0.0
C55 C 1.03358 1.10496 0.5184 0.0
C56 C 0.97361 1.10015 0.54016 0.0
C57 C 0.90733 1.09392 0.52481 0.0
C58 C 0.6746 0.16148 0.4139 0.0
C59 C 0.54438 1.01416 0.47054 0.0
O60 O 0.59268 0.25583 0.46043 0.0
O61 O 0.58821 0.24717 0.51848 0.0
O62 O 0.72253 0.25202 0.53841 0.0
O63 O 0.68367 0.1358 0.52616 0.0
O64 O 0.77189 0.31352 0.47365 0.0
O65 O 0.83763 0.2484 0.47793 0.0
O66 O 0.82348 1.11581 0.44614 0.0
O67 O 0.76484 1.04458 0.49271 0.0
O68 O 0.66659 1.09357 0.41818 0.0
O69 O 0.71142 0.20404 0.43955 0.0
O70 O 0.61098 1.01496 0.46934 0.0
O71 O 0.54618 1.0809 0.47701 0.0
H72 H 0.59484 0.36792 0.54979 0.0
H73 H 0.70912 0.49121 0.56343 0.0
H74 H 0.78064 0.51532 0.45259 0.0
H75 H 0.66701 0.39151 0.43876 0.0
H76 H 0.9577 1.10662 0.43661 0.0
H77 H 1.0753 1.12033 0.4634 0.0
H78 H 0.97362 1.09345 0.569 0.0
H79 H 0.86061 1.08558 0.54239 0.0
C80 C 1.00474 0.7826 0.8237 0.0
Eu81 Eu 0.85579 0.71147 0.82134 0.0
C82 C 1.04831 0.74116 0.82689 0.0
C83 C 1.07146 0.73181 0.86122 0.0
C84 C 1.07551 0.66589 0.86911 0.0
C85 C 1.05845 0.60964 0.84257 0.0
C86 C 1.0494 0.62582 0.80689 0.0
C87 C 1.04424 0.69135 0.79903 0.0
C88 C 0.77299 0.64479 0.88251 0.0
C89 C 0.7796 0.52532 0.80709 0.0
C90 C 0.54953 0.54072 0.80417 0.0
Eu91 Eu 0.69759 0.63435 0.80567 0.0
C92 C 0.49622 0.46553 0.82058 0.0
C93 C 0.44731 0.40258 0.79882 0.0
C94 C 0.38777 0.33532 0.81422 0.0
C95 C 0.37477 0.33104 0.85159 0.0
C96 C 0.42993 0.39101 0.87337 0.0
C97 C 0.49003 0.45729 0.85804 0.0
C98 C 0.79051 0.69002 0.74717 0.0
C99 C 0.77334 0.82027 0.80383 0.0
O100 O 0.96679 0.77203 0.79367 0.0
O101 O 0.96257 0.77661 0.85172 0.0
O102 O 0.83308 0.64227 0.87166 0.0
O103 O 0.75568 0.68105 0.85944 0.0
O104 O 0.84524 0.59284 0.8069 0.0
O105 O 0.71435 0.52707 0.81121 0.0
O106 O 0.59592 0.54116 0.7794 0.0
O107 O 0.58326 0.59977 0.82599 0.0
O108 O 0.7306 0.69802 0.75146 0.0
O109 O 0.79624 0.65324 0.7728 0.0
O110 O 0.70754 0.75366 0.80263 0.0
O111 O 0.8383 0.81851 0.81029 0.0
H112 H 1.07666 0.77002 0.88303 0.0
H113 H 1.08565 0.65579 0.89666 0.0
H114 H 1.03844 0.58423 0.7858 0.0
H115 H 1.02825 0.6978 0.77199 0.0
H116 H 0.45249 0.40692 0.76982 0.0
H117 H 0.3485 0.28932 0.79658 0.0
H118 H 0.42317 0.391 0.90221 0.0
H119 H 0.5284 0.50401 0.87564 0.0
C120 C 0.27849 1.07673 0.23768 0.0
C121 C 0.28399 1.06758 0.20045 0.0
C122 C 0.33431 0.13329 0.18027 0.0
C123 C 0.38998 0.19962 0.1976 0.0
H124 H 0.60314 0.26011 0.17528 0.0
H125 H 0.70879 0.24968 0.1479 0.0
H126 H 0.86566 0.406 0.22767 0.0
H127 H 0.7607 0.41627 0.25513 0.0
H128 H 0.66118 0.35203 0.35023 0.0
H129 H 0.71442 0.30758 0.39722 0.0
H130 H 0.55319 1.07074 0.36915 0.0
H131 H 0.4986 1.11587 0.32213 0.0
H132 H 0.33679 0.14304 0.2842 0.0
H133 H 0.23678 1.02919 0.25391 0.0
H134 H 0.33908 0.13068 0.15142 0.0
H135 H 0.43391 0.24532 0.18126 0.0
N136 N 0.53596 0.28762 0.22985 0.0
N137 N 0.61942 0.30616 0.2774 0.0
N138 N 0.48591 0.23329 0.28633 0.0
C139 C 0.60883 0.31758 0.24257 0.0
C140 C 0.55883 0.2643 0.2994 0.0
C141 C 0.47395 0.24716 0.25174 0.0
C142 C 0.67362 0.33788 0.21781 0.0
C143 C 0.66088 0.29495 0.186 0.0
C144 C 0.72092 0.28796 0.1706 0.0
C145 C 0.79392 0.32402 0.18687 0.0
C146 C 0.80878 0.37509 0.21561 0.0
C147 C 0.74915 0.38211 0.23092 0.0
C148 C 0.57498 0.23738 0.33321 0.0
C149 C 0.63555 0.29055 0.35488 0.0
C150 C 0.66665 0.26499 0.38132 0.0
C151 C 0.63883 0.18574 0.38616 0.0
C152 C 0.57629 0.13212 0.36545 0.0
C153 C 0.54409 0.15788 0.33923 0.0
C154 C 0.39683 0.2004 0.23518 0.0
C155 C 0.33564 0.14243 0.25512 0.0
C156 C 0.86982 0.55555 0.54889 0.0
C157 C 0.83345 0.57029 0.52021 0.0
C158 C 0.8703 0.64323 0.50392 0.0
C159 C 0.93741 0.70334 0.51925 0.0
H160 H 1.11459 0.93034 0.51438 0.0
H161 H 1.0947 1.02504 0.48456 0.0
H162 H 1.09572 0.12756 0.58708 0.0
H163 H 1.10965 1.02765 0.61734 0.0
H164 H 0.92081 0.86587 0.65537 0.0
H165 H 0.82111 0.81132 0.70243 0.0
H166 H 0.89691 0.65034 0.73046 0.0
H167 H 0.99457 0.70354 0.68342 0.0
H168 H 0.95927 0.60379 0.58832 0.0
H169 H 0.84391 0.49871 0.56097 0.0
H170 H 0.84402 0.65527 0.48125 0.0
H171 H 0.96022 0.76103 0.50851 0.0
N172 N 1.0551 0.82844 0.563 0.0
N173 N 1.05087 0.8786 0.61949 0.0
N174 N 0.99034 0.74508 0.6106 0.0
C175 C 1.07663 0.89049 0.58488 0.0
C176 C 1.00905 0.80572 0.63258 0.0
C177 C 1.01228 0.7556 0.57574 0.0
C178 C 1.10688 0.96755 0.5683 0.0
C179 C 1.11284 0.97429 0.53071 0.0
C180 C 1.10216 1.02992 0.51341 0.0
C181 C 1.08684 1.08029 0.53361 0.0
C182 C 1.10153 1.08584 0.57083 0.0
C183 C 1.11011 1.02874 0.58825 0.0
C184 C 0.96603 0.78961 0.66642 0.0
C185 C 0.91738 0.82045 0.67247 0.0
C186 C 0.85944 0.78827 0.69871 0.0
C187 C 0.85055 0.7258 0.71942 0.0
C188 C 0.90204 0.69804 0.71455 0.0
C189 C 0.9587 0.72913 0.68809 0.0
C190 C 0.96776 0.69073 0.55101 0.0
C191 C 0.93654 0.61525 0.56414 0.0
C192 C 0.98928 0.4951 0.88208 0.0
C193 C 1.04047 0.53146 0.85341 0.0
C194 C 1.07659 0.49462 0.83712 0.0
C195 C 1.06954 0.42752 0.85243 0.0
H196 H 1.11914 0.2502 0.84752 0.0
H197 H 0.23378 0.26998 0.81772 0.0
H198 H 0.33505 0.26892 0.92025 0.0
H199 H 0.22117 0.25509 0.9505 0.0
H200 H 0.24838 0.444 0.98858 0.0
H201 H 0.29351 0.54364 0.03569 0.0
H202 H 1.05664 0.46792 0.06369 0.0
H203 H 1.0122 0.37033 0.01659 0.0
H204 H 0.94796 0.40566 0.92148 0.0
H205 H 0.95833 0.521 0.89415 0.0
H206 H 1.11496 0.52089 0.81446 0.0
H207 H 1.10444 0.40471 0.8417 0.0
N208 N 1.07674 0.30979 0.89615 0.0
N209 N 1.13099 0.31396 0.95264 0.0
N210 N 1.05813 0.37458 0.94376 0.0
C211 C 1.11717 0.28821 0.91803 0.0
C212 C 1.09997 0.35583 0.96575 0.0
C213 C 1.04676 0.35264 0.9089 0.0
C214 C 1.16395 0.25789 0.90145 0.0
C215 C 1.16479 0.25191 0.86386 0.0
C216 C 0.23112 0.26253 0.84656 0.0
C217 C 0.29678 0.27781 0.86678 0.0
C218 C 0.28755 0.26313 0.90399 0.0
C219 C 0.22186 0.25462 0.9214 0.0
C220 C 1.12685 0.39882 -0.0004 0.0
C221 C 0.20636 0.44743 0.00567 0.0
C222 C 0.23212 0.50534 0.03195 0.0
C223 C 1.1785 0.51423 0.05267 0.0
C224 C 1.09923 0.46278 0.04778 0.0
C225 C 1.07367 0.40617 0.02128 0.0
C226 C 1.0265 0.39718 0.88418 0.0
C227 C 0.98221 0.42839 0.89731 0.0
C228 C 0.47031 0.87608 0.44391 0.0
C229 C 0.46821 0.9376 0.46183 0.0
C230 C 0.39286 0.9239 0.46998 0.0
C231 C 0.32412 0.85293 0.4606 0.0
H232 H 0.99283 0.58755 0.45302 0.0
H233 H 0.8722 0.46969 0.4698 0.0
H234 H 0.98669 0.33721 0.46026 0.0
H235 H 1.10653 0.45449 0.44316 0.0
H236 H 1.06983 0.55868 0.33012 0.0
H237 H 1.06207 0.53671 0.26609 0.0
H238 H 0.30647 0.69523 0.25558 0.0
H239 H 0.31427 0.71897 0.32113 0.0
H240 H 0.40858 0.76364 0.41892 0.0
H241 H 0.5255 0.88233 0.43653 0.0
H242 H 0.38671 0.96842 0.48352 0.0
H243 H 0.26848 0.84686 0.4668 0.0
N244 N 0.19286 0.66524 0.4454 0.0
N245 N 1.13526 0.59572 0.39217 0.0
N246 N 0.25468 0.71105 0.38903 0.0
C247 C 1.13223 0.60123 0.42855 0.0
C248 C 0.19496 0.64957 0.37202 0.0
C249 C 0.25512 0.72107 0.42552 0.0
C250 C 1.06261 0.53329 0.4478 0.0
C251 C 0.9935 0.53399 0.4556 0.0
C252 C 0.92299 0.4652 0.46487 0.0
C253 C 0.91707 0.39147 0.4667 0.0
C254 C 0.98673 0.39133 0.45968 0.0
C255 C 1.05682 0.45978 0.45012 0.0
C256 C 0.19282 0.64014 0.33154 0.0
C257 C 1.12244 0.58942 0.31458 0.0
C258 C 1.11797 0.57689 0.27737 0.0
C259 C 0.18373 0.61354 0.25513 0.0
C260 C 0.25449 0.66574 0.27163 0.0
C261 C 0.25887 0.67923 0.30932 0.0
C262 C 0.32691 0.79236 0.44194 0.0
C263 C 0.40214 0.80661 0.43381 0.0
C264 C 0.70818 0.37788 0.79313 0.0
C265 C 0.77801 0.44763 0.8 0.0
C266 C 0.84586 0.44178 0.79807 0.0
C267 C 0.84413 0.37125 0.78883 0.0
H268 H 0.8819 1.09616 0.80018 0.0
H269 H 0.88525 0.97798 0.81686 0.0
H270 H 0.66038 0.83909 0.76983 0.0
H271 H 0.6586 0.95595 0.75226 0.0
H272 H 0.70798 1.0501 0.65452 0.0
H273 H 0.69195 1.05782 0.58899 0.0
H274 H 0.77818 0.30225 0.59951 0.0
H275 H 0.79248 0.29458 0.66352 0.0
H276 H 0.65148 0.25796 0.77675 0.0
H277 H 0.65406 0.37785 0.79379 0.0
H278 H 0.90117 0.49263 0.80288 0.0
H279 H 0.89839 0.37198 0.78617 0.0
N280 N 0.77593 0.17174 0.77878 0.0
N281 N 0.75986 1.10982 0.72241 0.0
N282 N 0.764 0.22924 0.72557 0.0
C283 C 0.76947 1.10944 0.7589 0.0
C284 C 0.75811 0.16951 0.70541 0.0
C285 C 0.77255 0.23234 0.76194 0.0
C286 C 0.76898 1.03768 0.7753 0.0
C287 C 0.83234 1.04051 0.79396 0.0
C288 C 0.83458 0.9718 0.80332 0.0
C289 C 0.77294 0.89642 0.79515 0.0
C290 C 0.70932 0.89429 0.77723 0.0
C291 C 0.70801 0.96243 0.76715 0.0
C292 C 0.75078 0.17158 0.66494 0.0
C293 C 0.7237 1.10549 0.64272 0.0
C294 C 0.71454 1.10982 0.60503 0.0
C295 C 0.73315 0.18056 0.58854 0.0
C296 C 0.7624 0.24636 0.61078 0.0
C297 C 0.77051 0.24194 0.64798 0.0
C298 C 0.77428 0.30202 0.78119 0.0
C299 C 0.70653 0.30776 0.7836 0.0
C300 C 0.97297 0.65649 0.1263 0.0
C301 C 0.97278 0.58667 0.13329 0.0
C302 C 0.899 0.51887 0.13145 0.0
C303 C 0.83022 0.52061 0.1222 0.0
H304 H 0.51731 0.48268 0.13334 0.0
H305 H 0.39574 0.47932 0.15004 0.0
H306 H 0.48197 0.70427 0.10319 0.0
H307 H 0.60066 0.70607 0.08561 0.0
H308 H 0.64544 0.65662 0.98781 0.0
H309 H 0.66928 0.67268 0.92227 0.0
H310 H 0.82769 0.58674 0.93274 0.0
H311 H 0.80562 0.57242 -0.00324 0.0
H312 H 0.90987 0.71317 0.10982 0.0
H313 H 1.02712 0.71057 0.12689 0.0
H314 H 0.89446 0.46358 0.13637 0.0
H315 H 0.77662 0.46638 0.11962 0.0
N316 N 0.699 0.58872 0.11203 0.0
N317 N 0.65325 0.60482 0.05567 0.0
N318 N 0.76856 0.60073 0.05882 0.0
C319 C 0.64319 0.59518 0.09216 0.0
C320 C 0.71474 0.60661 0.03867 0.0
C321 C 0.76302 0.59213 0.09519 0.0
C322 C 0.57188 0.59565 0.10856 0.0
C323 C 0.51127 0.53225 0.12717 0.0
C324 C 0.44029 0.53001 0.13653 0.0
C325 C 0.42662 0.59167 0.12842 0.0
C326 C 0.48819 0.65532 0.11055 0.0
C327 C 0.55766 0.65664 0.10046 0.0
C328 C 0.72421 0.61397 -0.00181 0.0
C329 C 0.68518 0.64098 0.97599 0.0
C330 C 0.69872 0.65015 0.9383 0.0
C331 C 0.75093 0.63163 0.9218 0.0
C332 C 0.78752 0.60246 0.94403 0.0
C333 C 0.77493 0.59433 0.98123 0.0
C334 C 0.83096 0.59044 0.11444 0.0
C335 C 0.90453 0.65815 0.11675 0.0
loop_
_geom_bond_atom_site_label_1
_geom_bond_atom_site_label_2
_geom_bond_distance
_geom_bond_site_symmetry_2
_ccdc_geom_bond_type
C0 Eu1 2.835 . S
C0 C2 1.500 . S
C0 O20 1.257 . S
C0 O21 1.260 . S
Eu1 C0 2.835 . S
Eu1 O20 2.473 . S
Eu1 O21 2.480 . S
Eu1 O22 2.430 . S
Eu1 O23 2.670 1_655 S
Eu1 O24 2.394 . S
Eu1 O29 2.355 1_655 S
Eu1 O31 2.374 1_655 S
C2 C0 1.500 . S
C2 C3 1.377 . S
C2 C7 1.377 . S
C3 C2 1.377 . S
C3 C4 1.395 . S
C3 H32 0.931 . S
C4 C3 1.395 . S
C4 C5 1.383 . S
C4 H33 0.931 . S
C5 C4 1.383 . S
C5 C6 1.394 . S
C6 C5 1.394 . S
C6 C7 1.378 . S
C6 H34 0.931 . S
C7 C2 1.377 . S
C7 C6 1.378 . S
C7 H35 0.931 . S
C8 O22 1.258 1_455 S
C8 O23 1.270 . S
C9 O24 1.251 . S
C9 O25 1.251 . S
C10 Eu11 2.835 . S
C10 C12 1.500 . S
C10 O26 1.257 . S
C10 O27 1.260 . S
Eu11 C10 2.835 . S
Eu11 O23 2.355 . S
Eu11 O25 2.374 1_455 S
Eu11 O26 2.473 . S
Eu11 O27 2.480 . S
Eu11 O28 2.430 . S
Eu11 O29 2.670 . S
Eu11 O30 2.394 . S
C12 C10 1.500 . S
C12 C13 1.377 . S
C12 C17 1.377 . S
C13 C12 1.377 . S
C13 C14 1.395 . S
C13 H36 0.931 . S
C14 C13 1.395 . S
C14 C15 1.383 . S
C14 H37 0.931 . S
C15 C14 1.383 . S
C15 C16 1.394 . S
C16 C15 1.394 . S
C16 C17 1.378 . S
C16 H38 0.931 . S
C17 C12 1.377 . S
C17 C16 1.378 . S
C17 H39 0.931 . S
C18 O28 1.259 . S
C18 O29 1.270 . S
C19 O30 1.251 . S
C19 O31 1.251 . S
O20 C0 1.257 . S
O20 Eu1 2.473 . S
O21 C0 1.260 . S
O21 Eu1 2.480 . S
O22 Eu1 2.430 . S
O22 C8 1.258 1_655 S
O23 Eu1 2.670 1_455 S
O23 C8 1.270 . S
O23 Eu11 2.355 . S
O24 Eu1 2.394 . S
O24 C9 1.251 . S
O25 C9 1.251 . S
O25 Eu11 2.374 1_655 S
O26 C10 1.257 . S
O26 Eu11 2.473 . S
O27 C10 1.260 . S
O27 Eu11 2.480 . S
O28 Eu11 2.430 . S
O28 C18 1.259 . S
O29 Eu1 2.355 1_455 S
O29 Eu11 2.670 . S
O29 C18 1.270 . S
O30 Eu11 2.394 . S
O30 C19 1.251 . S
O31 Eu1 2.374 1_455 S
O31 C19 1.251 . S
H32 C3 0.931 . S
H33 C4 0.931 . S
H34 C6 0.931 . S
H35 C7 0.931 . S
H36 C13 0.931 . S
H37 C14 0.931 . S
H38 C16 0.931 . S
H39 C17 0.931 . S
C40 Eu41 2.835 . S
C40 C42 1.500 . S
C40 O60 1.257 . S
C40 O61 1.260 . S
Eu41 C40 2.835 . S
Eu41 O60 2.473 . S
Eu41 O61 2.480 . S
Eu41 O62 2.430 . S
Eu41 O63 2.670 . S
Eu41 O64 2.394 . S
Eu41 O69 2.355 . S
Eu41 O71 2.374 1_545 S
C42 C40 1.500 . S
C42 C43 1.377 . S
C42 C47 1.377 . S
C43 C42 1.377 . S
C43 C44 1.395 . S
C43 H72 0.931 . S
C44 C43 1.395 . S
C44 C45 1.383 . S
C44 H73 0.931 . S
C45 C44 1.383 . S
C45 C46 1.394 . S
C46 C45 1.394 . S
C46 C47 1.378 . S
C46 H74 0.931 . S
C47 C42 1.377 . S
C47 C46 1.378 . S
C47 H75 0.931 . S
C48 O62 1.259 . S
C48 O63 1.270 . S
C49 O64 1.251 . S
C49 O65 1.251 . S
C50 Eu51 2.835 . S
C50 C52 1.500 . S
C50 O66 1.257 . S
C50 O67 1.260 . S
Eu51 C50 2.835 . S
Eu51 O63 2.355 1_565 S
Eu51 O65 2.374 1_565 S
Eu51 O66 2.473 . S
Eu51 O67 2.480 . S
Eu51 O68 2.430 . S
Eu51 O69 2.670 1_565 S
Eu51 O70 2.394 . S
C52 C50 1.500 . S
C52 C53 1.377 . S
C52 C57 1.377 . S
C53 C52 1.377 . S
C53 C54 1.395 . S
C53 H76 0.931 . S
C54 C53 1.395 . S
C54 C55 1.383 . S
C54 H77 0.931 . S
C55 C54 1.383 . S
C55 C56 1.394 . S
C56 C55 1.394 . S
C56 C57 1.378 . S
C56 H78 0.931 . S
C57 C52 1.377 . S
C57 C56 1.378 . S
C57 H79 0.931 . S
C58 O68 1.259 1_545 S
C58 O69 1.270 . S
C59 O70 1.251 . S
C59 O71 1.251 . S
O60 C40 1.257 . S
O60 Eu41 2.473 . S
O61 C40 1.260 . S
O61 Eu41 2.480 . S
O62 Eu41 2.430 . S
O62 C48 1.259 . S
O63 Eu41 2.670 . S
O63 C48 1.270 . S
O63 Eu51 2.355 1_545 S
O64 Eu41 2.394 . S
O64 C49 1.251 . S
O65 C49 1.251 . S
O65 Eu51 2.374 1_545 S
O66 C50 1.257 . S
O66 Eu51 2.473 . S
O67 C50 1.260 . S
O67 Eu51 2.480 . S
O68 Eu51 2.430 . S
O68 C58 1.259 1_565 S
O69 Eu41 2.355 . S
O69 Eu51 2.670 1_545 S
O69 C58 1.270 . S
O70 Eu51 2.394 . S
O70 C59 1.251 . S
O71 Eu41 2.374 1_565 S
O71 C59 1.251 . S
H72 C43 0.931 . S
H73 C44 0.931 . S
H74 C46 0.931 . S
H75 C47 0.931 . S
H76 C53 0.931 . S
H77 C54 0.931 . S
H78 C56 0.931 . S
H79 C57 0.931 . S
C80 Eu81 2.835 . S
C80 C82 1.500 . S
C80 O100 1.257 . S
C80 O101 1.260 . S
Eu81 C80 2.835 . S
Eu81 O100 2.473 . S
Eu81 O101 2.480 . S
Eu81 O102 2.430 . S
Eu81 O103 2.670 . S
Eu81 O104 2.394 . S
Eu81 O109 2.355 . S
Eu81 O111 2.374 . S
C82 C80 1.500 . S
C82 C83 1.377 . S
C82 C87 1.377 . S
C83 C82 1.377 . S
C83 C84 1.395 . S
C83 H112 0.931 . S
C84 C83 1.395 . S
C84 C85 1.383 . S
C84 H113 0.931 . S
C85 C84 1.383 . S
C85 C86 1.394 . S
C86 C85 1.394 . S
C86 C87 1.378 . S
C86 H114 0.931 . S
C87 C82 1.377 . S
C87 C86 1.378 . S
C87 H115 0.931 . S
C88 O102 1.259 . S
C88 O103 1.270 . S
C89 O104 1.251 . S
C89 O105 1.251 . S
C90 Eu91 2.835 . S
C90 C92 1.500 . S
C90 O106 1.257 . S
C90 O107 1.260 . S
Eu91 C90 2.835 . S
Eu91 O103 2.355 . S
Eu91 O105 2.374 . S
Eu91 O106 2.473 . S
Eu91 O107 2.480 . S
Eu91 O108 2.430 . S
Eu91 O109 2.670 . S
Eu91 O110 2.394 . S
C92 C90 1.500 . S
C92 C93 1.377 . S
C92 C97 1.377 . S
C93 C92 1.377 . S
C93 C94 1.395 . S
C93 H116 0.931 . S
C94 C93 1.395 . S
C94 C95 1.383 . S
C94 H117 0.931 . S
C95 C94 1.383 . S
C95 C96 1.394 . S
C96 C95 1.394 . S
C96 C97 1.378 . S
C96 H118 0.931 . S
C97 C92 1.377 . S
C97 C96 1.378 . S
C97 H119 0.931 . S
C98 O108 1.259 . S
C98 O109 1.270 . S
C99 O110 1.251 . S
C99 O111 1.251 . S
O100 C80 1.257 . S
O100 Eu81 2.473 . S
O101 C80 1.260 . S
O101 Eu81 2.480 . S
O102 Eu81 2.430 . S
O102 C88 1.259 . S
O103 Eu81 2.670 . S
O103 C88 1.270 . S
O103 Eu91 2.355 . S
O104 Eu81 2.394 . S
O104 C89 1.251 . S
O105 C89 1.251 . S
O105 Eu91 2.374 . S
O106 C90 1.257 . S
O106 Eu91 2.473 . S
O107 C90 1.260 . S
O107 Eu91 2.480 . S
O108 Eu91 2.430 . S
O108 C98 1.259 . S
O109 Eu81 2.355 . S
O109 Eu91 2.670 . S
O109 C98 1.270 . S
O110 Eu91 2.394 . S
O110 C99 1.251 . S
O111 Eu81 2.374 . S
O111 C99 1.251 . S
H112 C83 0.931 . S
H113 C84 0.931 . S
H114 C86 0.931 . S
H115 C87 0.931 . S
H116 C93 0.931 . S
H117 C94 0.931 . S
H118 C96 0.931 . S
H119 C97 0.931 . S
C120 C121 1.384 . S
C120 H133 0.947 . S
C120 C155 1.382 . S
C121 C120 1.384 . S
C121 C122 1.378 . S
C122 C121 1.378 . S
C122 C123 1.378 . S
C122 H134 0.952 . S
C123 C122 1.378 . S
C123 H135 0.950 . S
C123 C154 1.383 . S
H124 C143 0.947 . S
H125 C144 0.946 . S
H126 C146 0.953 . S
H127 C147 0.945 . S
H128 C149 0.952 . S
H129 C150 0.949 . S
H130 C152 0.950 . S
H131 C153 0.948 . S
H132 C155 0.951 . S
H133 C120 0.947 . S
H134 C122 0.952 . S
H135 C123 0.950 . S
N136 C139 1.382 . S
N136 C141 1.363 . S
N137 C139 1.371 . S
N137 C140 1.372 . S
N138 C140 1.361 . S
N138 C141 1.377 . S
C139 N136 1.382 . S
C139 N137 1.371 . S
C139 C142 1.480 . S
C140 N137 1.372 . S
C140 N138 1.361 . S
C140 C148 1.457 . S
C141 N136 1.363 . S
C141 N138 1.377 . S
C141 C154 1.479 1_545 S
C142 C139 1.480 . S
C142 C143 1.383 . S
C142 C147 1.385 . S
C143 H124 0.947 . S
C143 C142 1.383 . S
C143 C144 1.388 . S
C144 H125 0.946 . S
C144 C143 1.388 . S
C144 C145 1.384 . S
C145 C144 1.384 . S
C145 C146 1.377 . S
C146 H126 0.953 . S
C146 C145 1.377 . S
C146 C147 1.369 . S
C147 H127 0.945 . S
C147 C142 1.385 . S
C147 C146 1.369 . S
C148 C140 1.457 . S
C148 C149 1.372 . S
C148 C153 1.364 1_545 S
C149 H128 0.952 . S
C149 C148 1.372 . S
C149 C150 1.389 . S
C150 H129 0.949 . S
C150 C149 1.389 . S
C150 C151 1.387 . S
C151 C150 1.387 . S
C151 C152 1.372 1_545 S
C152 H130 0.950 . S
C152 C151 1.372 1_565 S
C152 C153 1.379 . S
C153 H131 0.948 . S
C153 C148 1.364 1_565 S
C153 C152 1.379 . S
C154 C123 1.383 . S
C154 C141 1.479 1_565 S
C154 C155 1.398 . S
C155 C120 1.382 . S
C155 H132 0.951 . S
C155 C154 1.398 . S
C156 C157 1.384 . S
C156 H169 0.947 . S
C156 C191 1.382 . S
C157 C156 1.384 . S
C157 C158 1.378 . S
C158 C157 1.378 . S
C158 C159 1.378 . S
C158 H170 0.952 . S
C159 C158 1.378 . S
C159 H171 0.950 . S
C159 C190 1.383 . S
H160 C179 0.947 . S
H161 C180 0.946 . S
H162 C182 0.953 . S
H163 C183 0.945 . S
H164 C185 0.952 . S
H165 C186 0.949 . S
H166 C188 0.950 . S
H167 C189 0.948 . S
H168 C191 0.951 . S
H169 C156 0.947 . S
H170 C158 0.952 . S
H171 C159 0.950 . S
N172 C175 1.382 . S
N172 C177 1.363 . S
N173 C175 1.371 . S
N173 C176 1.372 . S
N174 C176 1.361 . S
N174 C177 1.377 . S
C175 N172 1.382 . S
C175 N173 1.371 . S
C175 C178 1.480 . S
C176 N173 1.372 . S
C176 N174 1.361 . S
C176 C184 1.457 . S
C177 N172 1.363 . S
C177 N174 1.377 . S
C177 C190 1.479 . S
C178 C175 1.480 . S
C178 C179 1.383 . S
C178 C183 1.385 . S
C179 H160 0.947 . S
C179 C178 1.383 . S
C179 C180 1.388 . S
C180 H161 0.946 . S
C180 C179 1.388 . S
C180 C181 1.384 . S
C181 C180 1.384 . S
C181 C182 1.377 . S
C182 H162 0.953 . S
C182 C181 1.377 . S
C182 C183 1.369 . S
C183 H163 0.945 . S
C183 C178 1.385 . S
C183 C182 1.369 . S
C184 C176 1.457 . S
C184 C185 1.372 . S
C184 C189 1.364 . S
C185 H164 0.952 . S
C185 C184 1.372 . S
C185 C186 1.389 . S
C186 H165 0.949 . S
C186 C185 1.389 . S
C186 C187 1.387 . S
C187 C186 1.387 . S
C187 C188 1.372 . S
C188 H166 0.950 . S
C188 C187 1.372 . S
C188 C189 1.379 . S
C189 H167 0.948 . S
C189 C184 1.364 . S
C189 C188 1.379 . S
C190 C159 1.383 . S
C190 C177 1.479 . S
C190 C191 1.398 . S
C191 C156 1.382 . S
C191 H168 0.951 . S
C191 C190 1.398 . S
C192 C193 1.384 . S
C192 H205 0.947 . S
C192 C227 1.382 . S
C193 C192 1.384 . S
C193 C194 1.378 . S
C194 C193 1.378 . S
C194 C195 1.378 . S
C194 H206 0.952 . S
C195 C194 1.378 . S
C195 H207 0.950 . S
C195 C226 1.383 . S
H196 C215 0.947 . S
H197 C216 0.946 . S
H198 C218 0.953 . S
H199 C219 0.945 . S
H200 C221 0.952 . S
H201 C222 0.949 . S
H202 C224 0.950 . S
H203 C225 0.948 . S
H204 C227 0.951 . S
H205 C192 0.947 . S
H206 C194 0.952 . S
H207 C195 0.950 . S
N208 C211 1.382 1_655 S
N208 C213 1.363 . S
N209 C211 1.371 . S
N209 C212 1.370 1_455 S
N210 C212 1.362 . S
N210 C213 1.377 . S
C211 N208 1.382 1_455 S
C211 N209 1.371 . S
C211 C214 1.480 . S
C212 N209 1.370 1_655 S
C212 N210 1.362 . S
C212 C220 1.456 1_556 S
C213 N208 1.363 . S
C213 N210 1.377 . S
C213 C226 1.479 . S
C214 C211 1.480 . S
C214 C215 1.383 . S
C214 C219 1.385 . S
C215 H196 0.947 . S
C215 C214 1.383 . S
C215 C216 1.388 . S
C216 H197 0.946 . S
C216 C215 1.388 . S
C216 C217 1.384 . S
C217 C216 1.384 . S
C217 C218 1.377 . S
C218 H198 0.953 . S
C218 C217 1.377 . S
C218 C219 1.369 . S
C219 H199 0.945 . S
C219 C214 1.385 . S
C219 C218 1.369 . S
C220 C212 1.456 1_554 S
C220 C221 1.356 1_655 S
C220 C225 1.381 . S
C221 H200 0.952 . S
C221 C220 1.356 1_455 S
C221 C222 1.389 . S
C222 H201 0.949 . S
C222 C221 1.389 . S
C222 C223 1.387 . S
C223 C222 1.387 . S
C223 C224 1.372 1_455 S
C224 H202 0.950 . S
C224 C223 1.372 1_655 S
C224 C225 1.379 . S
C225 H203 0.948 . S
C225 C220 1.381 . S
C225 C224 1.379 . S
C226 C195 1.383 . S
C226 C213 1.479 . S
C226 C227 1.398 . S
C227 C192 1.382 . S
C227 H204 0.951 . S
C227 C226 1.398 . S
C228 C229 1.384 . S
C228 H241 0.947 . S
C228 C263 1.382 . S
C229 C228 1.384 . S
C229 C230 1.378 . S
C230 C229 1.378 . S
C230 C231 1.378 . S
C230 H242 0.952 . S
C231 C230 1.378 . S
C231 H243 0.950 . S
C231 C262 1.383 . S
H232 C251 0.947 . S
H233 C252 0.946 . S
H234 C254 0.953 . S
H235 C255 0.945 . S
H236 C257 0.952 1_655 S
H237 C258 0.949 . S
H238 C260 0.950 . S
H239 C261 0.948 . S
H240 C263 0.951 . S
H241 C228 0.947 . S
H242 C230 0.952 . S
H243 C231 0.950 . S
N244 C247 1.382 . S
N244 C249 1.363 . S
N245 C247 1.371 . S
N245 C248 1.372 . S
N246 C248 1.361 . S
N246 C249 1.377 . S
C247 N244 1.382 . S
C247 N245 1.371 . S
C247 C250 1.480 1_455 S
C248 N245 1.372 . S
C248 N246 1.361 . S
C248 C256 1.457 . S
C249 N244 1.363 . S
C249 N246 1.377 . S
C249 C262 1.479 . S
C250 C247 1.480 1_655 S
C250 C251 1.383 . S
C250 C255 1.385 . S
C251 H232 0.947 . S
C251 C250 1.383 . S
C251 C252 1.388 . S
C252 H233 0.946 . S
C252 C251 1.388 . S
C252 C253 1.384 . S
C253 C252 1.384 . S
C253 C254 1.377 . S
C254 H234 0.953 . S
C254 C253 1.377 . S
C254 C255 1.369 . S
C255 H235 0.945 . S
C255 C250 1.385 . S
C255 C254 1.369 . S
C256 C248 1.457 . S
C256 C257 1.372 . S
C256 C261 1.364 . S
C257 H236 0.952 1_455 S
C257 C256 1.372 . S
C257 C258 1.389 1_455 S
C258 H237 0.949 . S
C258 C257 1.389 1_655 S
C258 C259 1.387 1_655 S
C259 C258 1.387 1_455 S
C259 C260 1.372 . S
C260 H238 0.950 . S
C260 C259 1.372 . S
C260 C261 1.379 . S
C261 H239 0.948 . S
C261 C256 1.364 . S
C261 C260 1.379 . S
C262 C231 1.383 . S
C262 C249 1.479 . S
C262 C263 1.398 . S
C263 C228 1.382 . S
C263 H240 0.951 . S
C263 C262 1.398 . S
C264 C265 1.384 . S
C264 H277 0.947 . S
C264 C299 1.382 . S
C265 C264 1.384 . S
C265 C266 1.378 . S
C266 C265 1.378 . S
C266 C267 1.378 . S
C266 H278 0.952 . S
C267 C266 1.378 . S
C267 H279 0.950 . S
C267 C298 1.383 . S
H268 C287 0.947 . S
H269 C288 0.946 . S
H270 C290 0.953 . S
H271 C291 0.945 . S
H272 C293 0.952 . S
H273 C294 0.949 . S
H274 C296 0.950 . S
H275 C297 0.948 . S
H276 C299 0.951 . S
H277 C264 0.947 . S
H278 C266 0.952 . S
H279 C267 0.950 . S
N280 C283 1.382 1_545 S
N280 C285 1.363 . S
N281 C283 1.371 . S
N281 C284 1.372 1_565 S
N282 C284 1.361 . S
N282 C285 1.377 . S
C283 N280 1.382 1_565 S
C283 N281 1.371 . S
C283 C286 1.480 . S
C284 N281 1.372 1_545 S
C284 N282 1.361 . S
C284 C292 1.457 . S
C285 N280 1.363 . S
C285 N282 1.377 . S
C285 C298 1.479 . S
C286 C283 1.480 . S
C286 C287 1.383 . S
C286 C291 1.385 . S
C287 H268 0.947 . S
C287 C286 1.383 . S
C287 C288 1.388 . S
C288 H269 0.946 . S
C288 C287 1.388 . S
C288 C289 1.384 . S
C289 C288 1.384 . S
C289 C290 1.377 . S
C290 H270 0.953 . S
C290 C289 1.377 . S
C290 C291 1.369 . S
C291 H271 0.945 . S
C291 C286 1.385 . S
C291 C290 1.369 . S
C292 C284 1.457 . S
C292 C293 1.372 1_545 S
C292 C297 1.364 . S
C293 H272 0.952 . S
C293 C292 1.372 1_565 S
C293 C294 1.389 . S
C294 H273 0.949 . S
C294 C293 1.389 . S
C294 C295 1.387 1_565 S
C295 C294 1.387 1_545 S
C295 C296 1.372 . S
C296 H274 0.950 . S
C296 C295 1.372 . S
C296 C297 1.379 . S
C297 H275 0.948 . S
C297 C292 1.364 . S
C297 C296 1.379 . S
C298 C267 1.383 . S
C298 C285 1.479 . S
C298 C299 1.398 . S
C299 C264 1.382 . S
C299 H276 0.951 . S
C299 C298 1.398 . S
C300 C301 1.384 . S
C300 H313 0.947 . S
C300 C335 1.382 . S
C301 C300 1.384 . S
C301 C302 1.378 . S
C302 C301 1.378 . S
C302 C303 1.378 . S
C302 H314 0.952 . S
C303 C302 1.378 . S
C303 H315 0.950 . S
C303 C334 1.383 . S
H304 C323 0.947 . S
H305 C324 0.946 . S
H306 C326 0.953 . S
H307 C327 0.945 . S
H308 C329 0.952 1_554 S
H309 C330 0.949 . S
H310 C332 0.950 . S
H311 C333 0.948 1_554 S
H312 C335 0.951 . S
H313 C300 0.947 . S
H314 C302 0.952 . S
H315 C303 0.950 . S
N316 C319 1.382 . S
N316 C321 1.363 . S
N317 C319 1.371 . S
N317 C320 1.372 . S
N318 C320 1.361 . S
N318 C321 1.377 . S
C319 N316 1.382 . S
C319 N317 1.371 . S
C319 C322 1.480 . S
C320 N317 1.372 . S
C320 N318 1.361 . S
C320 C328 1.457 . S
C321 N316 1.363 . S
C321 N318 1.377 . S
C321 C334 1.479 . S
C322 C319 1.480 . S
C322 C323 1.383 . S
C322 C327 1.385 . S
C323 H304 0.947 . S
C323 C322 1.383 . S
C323 C324 1.388 . S
C324 H305 0.946 . S
C324 C323 1.388 . S
C324 C325 1.384 . S
C325 C324 1.384 . S
C325 C326 1.377 . S
C326 H306 0.953 . S
C326 C325 1.377 . S
C326 C327 1.369 . S
C327 H307 0.945 . S
C327 C322 1.385 . S
C327 C326 1.369 . S
C328 C320 1.457 . S
C328 C329 1.372 1_554 S
C328 C333 1.364 1_554 S
C329 H308 0.952 1_556 S
C329 C328 1.372 1_556 S
C329 C330 1.389 . S
C330 H309 0.949 . S
C330 C329 1.389 . S
C330 C331 1.387 . S
C331 C330 1.387 . S
C331 C332 1.372 . S
C332 H310 0.950 . S
C332 C331 1.372 . S
C332 C333 1.379 . S
C333 H311 0.948 1_556 S
C333 C328 1.364 1_556 S
C333 C332 1.379 . S
C334 C303 1.383 . S
C334 C321 1.479 . S
C334 C335 1.398 . S
C335 C300 1.382 . S
C335 H312 0.951 . S
C335 C334 1.398 . S
C19 C325 4.848 . S
C49 C253 4.917 . S
C99 C289 4.848 . S
C9 C301 4.978 . S
C229 C59 4.911 . S
C265 C89 4.978 . S
C55 C181 2.097 . S
C85 C193 2.113 . S
C15 C121 1.892 . S
C157 C45 2.114 . S
C217 C95 2.095 . S
C5 C145 2.142 . S
C223 C18 1.307 . S
C58 C151 1.104 . S
C98 C187 1.304 . S
C295 C48 2.053 . S
C331 C88 2.053 . S
C8 C259 2.061 . S
