# Generated by pormake.
# Topology tsx, (6,3)-cn, num edge types: 1
# Building blocks:
#     Node 0, Type 0, BuildingBlock: FUNLAD_clean_sbu_0, # of connection points: 6
#     Node 1, Type 0, BuildingBlock: FUNLAD_clean_sbu_0, # of connection points: 6
#     Node 2, Type 1, BuildingBlock: BELTOD_clean_linker_0, # of connection points: 3
#     Node 3, Type 1, BuildingBlock: BELTOD_clean_linker_0, # of connection points: 3
#     Node 4, Type 1, BuildingBlock: BELTOD_clean_linker_0, # of connection points: 3
#     Node 5, Type 1, BuildingBlock: BELTOD_clean_linker_0, # of connection points: 3
#     Edge 6, Type (0, 1), BuildingBlock: UVAHIK_clean_linker_0, # of connection points: 2
#     Edge 7, Type (0, 1), BuildingBlock: UVAHIK_clean_linker_0, # of connection points: 2
#     Edge 8, Type (0, 1), BuildingBlock: UVAHIK_clean_linker_0, # of connection points: 2
#     Edge 9, Type (0, 1), BuildingBlock: UVAHIK_clean_linker_0, # of connection points: 2
#     Edge 10, Type (0, 1), BuildingBlock: UVAHIK_clean_linker_0, # of connection points: 2
#     Edge 11, Type (0, 1), BuildingBlock: UVAHIK_clean_linker_0, # of connection points: 2
#     Edge 12, Type (0, 1), BuildingBlock: UVAHIK_clean_linker_0, # of connection points: 2
#     Edge 13, Type (0, 1), BuildingBlock: UVAHIK_clean_linker_0, # of connection points: 2
#     Edge 14, Type (0, 1), BuildingBlock: UVAHIK_clean_linker_0, # of connection points: 2
#     Edge 15, Type (0, 1), BuildingBlock: UVAHIK_clean_linker_0, # of connection points: 2
#     Edge 16, Type (0, 1), BuildingBlock: UVAHIK_clean_linker_0, # of connection points: 2
#     Edge 17, Type (0, 1), BuildingBlock: UVAHIK_clean_linker_0, # of connection points: 2
# Relax obj value: 0.152
# Max RMSD: 0.149
# Mean RMSD: 0.084
data_MOF--net-tsx--node1-FUNLAD_clean_sbu_0--node2-BELTOD_clean_linker_0--edge1-UVAHIK_clean_linker_0
_symmetry_space_group_name_H-M    P1
_symmetry_Int_Tables_number       1
_symmetry_cell_setting            triclinic
loop_
_symmetry_equiv_pos_as_xyz
'x, y, z'
_cell_length_a     27.147188
_cell_length_b     30.289099
_cell_length_c     56.368673
_cell_angle_alpha  91.657191
_cell_angle_beta   92.087209
_cell_angle_gamma 89.920456
loop_
_atom_site_label
_atom_site_type_symbol
_atom_site_fract_x
_atom_site_fract_y
_atom_site_fract_z
_atom_type_partial_charge
C0 C 0.89977 0.9329 0.00167 0.0
N1 N 0.97489 -0.00495 0.06022 0.0
C2 C 0.933 -0.00431 0.07278 0.0
C3 C 0.93573 -0.00363 0.09763 0.0
C4 C 0.98201 -0.0039 0.10965 0.0
C5 C 0.02453 -0.00534 0.09619 0.0
C6 C 0.02013 -0.00571 0.07144 0.0
Zn7 Zn 0.97131 -0.00233 0.02386 0.0
C8 C 0.04294 0.93758 1.00124 0.0
N9 N 0.96539 0.0042 0.94793 0.0
C10 C 0.92281 0.00061 0.93449 0.0
C11 C 0.0097 0.00797 0.93763 0.0
C12 C 0.01254 0.0079 0.91299 0.0
C13 C 0.96941 0.00362 0.89861 0.0
C14 C 0.924 8e-05 0.90965 0.0
Zn15 Zn 0.9662 0.00155 0.98431 0.0
O16 O 0.91818 0.94706 0.02153 0.0
C17 C 0.89491 0.06183 0.00682 0.0
O18 O 0.91326 0.94997 0.9826 0.0
H19 H 0.04324 0.01025 0.94853 0.0
H20 H 0.8974 -0.0038 0.06354 0.0
H21 H 0.88797 -0.00241 0.94302 0.0
O22 O 0.91498 0.04591 0.02543 0.0
O23 O 0.90902 0.04884 0.98649 0.0
H24 H 0.05302 0.99414 0.06118 0.0
O25 O 0.01979 0.05306 0.98684 0.0
O26 O 0.02424 0.04809 0.02558 0.0
O27 O 0.02304 0.9541 0.98279 0.0
O28 O 0.02816 0.94965 0.02155 0.0
C29 C 0.03839 0.06582 0.00688 0.0
H30 H 0.902 -0.00292 0.10732 0.0
H31 H 0.06096 -0.00496 0.1047 0.0
H32 H 0.0484 0.00991 0.90527 0.0
H33 H 0.88983 -0.00303 0.89922 0.0
C34 C 0.39316 0.43165 0.49804 0.0
N35 N 0.46255 0.49518 0.5578 0.0
C36 C 0.42046 0.49416 0.57018 0.0
C37 C 0.42285 0.49401 0.59502 0.0
C38 C 0.469 0.49469 0.60719 0.0
C39 C 0.51171 0.49518 0.59389 0.0
C40 C 0.50764 0.49548 0.56917 0.0
Zn41 Zn 0.46025 0.49835 0.52152 0.0
C42 C 0.53656 0.441 0.49982 0.0
N43 N 0.45947 0.5057 0.44581 0.0
C44 C 0.41745 0.50029 0.43212 0.0
C45 C 0.5038 0.51153 0.43582 0.0
C46 C 0.50724 0.51155 0.41121 0.0
C47 C 0.46473 0.50523 0.39659 0.0
C48 C 0.41928 0.4998 0.40733 0.0
Zn49 Zn 0.45892 0.50253 0.48207 0.0
O50 O 0.40762 0.44678 0.5184 0.0
C51 C 0.38289 0.55999 0.5036 0.0
O52 O 0.4095 0.44844 0.47946 0.0
H53 H 0.53688 0.51532 0.44696 0.0
H54 H 0.38499 0.49389 0.56079 0.0
H55 H 0.38259 0.49571 0.44042 0.0
O56 O 0.40281 0.54565 0.52264 0.0
O57 O 0.3986 0.54685 0.48361 0.0
H58 H 0.54067 0.49663 0.55906 0.0
O59 O 0.50927 0.55643 0.48539 0.0
O60 O 0.51236 0.54987 0.52403 0.0
O61 O 0.51855 0.45812 0.48114 0.0
O62 O 0.51845 0.45119 0.51972 0.0
C63 C 0.52667 0.56886 0.50572 0.0
H64 H 0.38899 0.49328 0.60459 0.0
H65 H 0.54802 0.49647 0.6025 0.0
H66 H 0.54315 0.51511 0.40372 0.0
H67 H 0.38557 0.49511 0.39669 0.0
P68 P 0.09547 0.08458 0.44304 0.0
H69 H 0.08154 0.15213 0.48038 0.0
H70 H 0.00925 0.19492 0.49216 0.0
H71 H 0.91904 0.12099 0.44028 0.0
H72 H 0.99127 0.07874 0.42855 0.0
H73 H 0.18408 0.03449 0.45401 0.0
H74 H 0.19847 0.96376 0.47274 0.0
H75 H 0.04273 0.95228 0.48448 0.0
H76 H 0.02855 0.02342 0.46572 0.0
H77 H 0.08644 0.14249 0.40296 0.0
H78 H 0.08515 0.00214 0.41387 0.0
O79 O 0.14447 0.11735 0.44765 0.0
H80 H 0.07065 0.12903 0.36034 0.0
H81 H 0.06907 0.98848 0.37138 0.0
C82 C 0.04185 0.11319 0.4532 0.0
C83 C 0.04611 0.14508 0.47166 0.0
C84 C 0.00476 0.16927 0.47847 0.0
C85 C 0.95863 0.16171 0.4669 0.0
C86 C 0.95429 0.12819 0.44917 0.0
C87 C 0.99552 0.10401 0.44246 0.0
C88 C 0.1055 0.0346 0.45893 0.0
C89 C 0.15314 0.01717 0.46099 0.0
C90 C 0.16131 0.97682 0.47178 0.0
C91 C 0.12174 0.95275 0.48028 0.0
C92 C 0.07387 0.97023 0.47812 0.0
C93 C 0.06581 0.01095 0.46753 0.0
C94 C 0.08746 0.07341 0.41155 0.0
C95 C 0.08314 0.10878 0.39614 0.0
C96 C 0.07372 0.10104 0.37184 0.0
C97 C 0.06851 0.05767 0.36248 0.0
C98 C 0.07344 0.02223 0.37799 0.0
C99 C 0.08258 0.03005 0.40234 0.0
P100 P 0.10048 0.90623 0.57209 0.0
H101 H 0.07722 0.83635 0.53645 0.0
H102 H -0.00063 0.80143 0.52305 0.0
H103 H 0.92011 0.89375 0.56746 0.0
H104 H 0.9979 0.92801 0.58089 0.0
H105 H 0.19589 0.94625 0.56549 0.0
H106 H 0.22141 0.01244 0.54534 0.0
H107 H 0.06961 0.03918 0.5251 0.0
H108 H 0.04424 0.97263 0.54509 0.0
H109 H 0.09419 0.85026 0.61279 0.0
H110 H 0.08732 0.98965 0.59951 0.0
O111 O 0.14434 0.86789 0.56956 0.0
H112 H 0.07625 0.86531 0.65445 0.0
H113 H 0.06887 0.00497 0.64108 0.0
C114 C 0.04327 0.88395 0.56008 0.0
C115 C 0.04301 0.84921 0.54312 0.0
C116 C -0.00152 0.8295 0.53537 0.0
C117 C 0.95366 0.84443 0.54449 0.0
C118 C 0.95411 0.8809 0.56051 0.0
C119 C -0.00147 0.90054 0.56818 0.0
C120 C 0.11837 0.95413 0.55642 0.0
C121 C 0.16815 0.96609 0.55651 0.0
C122 C 0.18268 0.00376 0.54493 0.0
C123 C 0.14746 0.0306 0.5335 0.0
C124 C 0.09743 0.01895 0.53376 0.0
C125 C 0.08299 0.98086 0.5451 0.0
C126 C 0.09298 0.91882 0.60318 0.0
C127 C 0.08948 0.88416 0.61894 0.0
C128 C 0.07872 0.8928 0.64268 0.0
C129 C 0.07101 0.93636 0.65108 0.0
C130 C 0.07522 0.97112 0.63525 0.0
C131 C 0.0858 0.96239 0.61145 0.0
P132 P 0.60376 0.58878 0.93808 0.0
H133 H 0.58768 0.65876 0.97386 0.0
H134 H 0.51331 0.69756 0.98628 0.0
H135 H 0.42483 0.61268 0.93884 0.0
H136 H 0.49924 0.57453 0.92637 0.0
H137 H 0.69553 0.55208 0.95753 0.0
H138 H 0.71516 0.48256 0.97661 0.0
H139 H 0.56121 0.44635 0.9721 0.0
H140 H 0.54175 0.51608 0.95289 0.0
H141 H 0.5815 0.64568 0.8986 0.0
H142 H 0.60408 0.50634 0.90855 0.0
O143 O 0.65074 0.62407 0.94193 0.0
H144 H 0.56245 0.63113 0.85637 0.0
H145 H 0.58413 0.49147 0.86653 0.0
C146 C 0.54895 0.61445 0.9489 0.0
C147 C 0.55222 0.64835 0.96631 0.0
C148 C 0.50967 0.67029 0.97348 0.0
C149 C 0.46328 0.65848 0.96332 0.0
C150 C 0.46013 0.62308 0.94665 0.0
C151 C 0.50261 0.60118 0.93956 0.0
C152 C 0.61714 0.53948 0.9541 0.0
C153 C 0.66588 0.52951 0.96092 0.0
C154 C 0.67704 0.48981 0.97187 0.0
C155 C 0.63964 0.45918 0.97591 0.0
C156 C 0.59073 0.46934 0.96912 0.0
C157 C 0.57956 0.50928 0.95833 0.0
C158 C 0.59419 0.57721 0.90673 0.0
C159 C 0.58262 0.61199 0.89165 0.0
C160 C 0.57131 0.60356 0.86757 0.0
C161 C 0.57143 0.56008 0.8581 0.0
C162 C 0.5841 0.52535 0.87321 0.0
C163 C 0.59532 0.53384 0.89733 0.0
P164 P 0.60944 0.40521 0.07215 0.0
H165 H 0.58904 0.33452 0.03656 0.0
H166 H 0.51214 0.29868 0.02243 0.0
H167 H 0.4295 0.39183 0.06482 0.0
H168 H 0.50627 0.42693 0.07905 0.0
H169 H 0.69897 0.4567 0.07549 0.0
H170 H 0.72625 0.52204 0.05525 0.0
H171 H 0.58725 0.52583 0.01552 0.0
H172 H 0.56001 0.46038 0.03592 0.0
H173 H 0.60568 0.34994 0.11333 0.0
H174 H 0.58932 0.48819 0.09858 0.0
O175 O 0.65415 0.36755 0.07024 0.0
H176 H 0.5857 0.36522 0.15473 0.0
H177 H 0.56896 0.5037 0.13987 0.0
C178 C 0.55322 0.38234 0.05943 0.0
C179 C 0.5543 0.34726 0.0427 0.0
C180 C 0.51035 0.3271 0.03448 0.0
C181 C 0.46488 0.34203 0.04285 0.0
C182 C 0.46405 0.379 0.05849 0.0
C183 C 0.50787 0.39907 0.06664 0.0
C184 C 0.62791 0.4534 0.05698 0.0
C185 C 0.67446 0.4715 0.06236 0.0
C186 C 0.69001 0.50868 0.05073 0.0
C187 C 0.65912 0.52848 0.03351 0.0
C188 C 0.61181 0.51104 0.02862 0.0
C189 C 0.59635 0.47356 0.04022 0.0
C190 C 0.60002 0.418 0.10304 0.0
C191 C 0.59847 0.38367 0.1191 0.0
C192 C 0.58657 0.3924 0.14269 0.0
C193 C 0.57573 0.43569 0.15059 0.0
C194 C 0.57781 0.47012 0.13443 0.0
C195 C 0.58951 0.46128 0.1108 0.0
C196 C 0.09374 0.11686 0.03088 0.0
C197 C 0.07809 0.09916 0.00857 0.0
C198 C 0.13405 0.14529 0.033 0.0
C199 C 0.2156 0.21676 0.99959 0.0
H200 H 0.30579 0.19663 0.05315 0.0
C201 C 0.40799 0.30084 0.01375 0.0
C202 C 0.4189 0.31712 0.03695 0.0
C203 C 0.36558 0.27548 0.00881 0.0
C204 C 0.28077 0.20286 0.03821 0.0
H205 H 0.09142 0.09852 0.97085 0.0
H206 H 0.16265 0.14784 0.97463 0.0
H207 H 0.23285 0.15062 0.04719 0.0
H208 H 0.39413 0.31954 0.07313 0.0
H209 H 0.32029 0.27578 0.06448 0.0
H210 H 0.26435 0.26896 0.99061 0.0
C211 C 0.14329 0.14005 0.99044 0.0
C212 C 0.23888 0.17661 0.03482 0.0
C213 C 0.10261 0.11171 0.98829 0.0
C214 C 0.38643 0.30796 0.05501 0.0
C215 C 0.34442 0.28249 0.05013 0.0
C216 C 0.25784 0.24298 0.00293 0.0
C217 C 0.16001 0.15644 0.0129 0.0
C218 C 0.20539 0.18364 0.0157 0.0
C219 C 0.33381 0.26559 0.02706 0.0
C220 C 0.29041 0.23663 0.02249 0.0
H221 H 0.0753 0.10822 0.04683 0.0
H222 H 0.14523 0.1582 0.05049 0.0
H223 H 0.19039 0.22312 0.98475 0.0
H224 H 0.43228 0.3076 0.99947 0.0
H225 H 0.3583 0.26269 0.99088 0.0
C226 C 0.09729 0.89036 0.97629 0.0
C227 C 0.08401 0.90584 0.9989 0.0
C228 C 0.13766 0.86236 0.97372 0.0
C229 C 0.22166 0.7868 0.00595 0.0
H230 H 0.30642 0.80941 0.95372 0.0
C231 C 0.4097 0.69888 0.99229 0.0
C232 C 0.41874 0.68465 0.96889 0.0
C233 C 0.36853 0.72505 0.99712 0.0
C234 C 0.28289 0.80244 0.96827 0.0
H235 H 0.10212 0.90334 0.03664 0.0
H236 H 0.17331 0.85474 0.03211 0.0
H237 H 0.23514 0.85641 0.96011 0.0
H238 H 0.39185 0.68682 0.93222 0.0
H239 H 0.32001 0.73194 0.94066 0.0
H240 H 0.27002 0.73281 0.0141 0.0
C241 C 0.15205 0.86394 0.01639 0.0
C242 C 0.24197 0.82931 0.97191 0.0
C243 C 0.1114 0.89191 0.01897 0.0
C244 C 0.38561 0.6968 0.95048 0.0
C245 C 0.34477 0.72307 0.95527 0.0
C246 C 0.26286 0.75993 0.00234 0.0
C247 C 0.16599 0.84934 0.99369 0.0
C248 C 0.2105 0.8215 0.99059 0.0
C249 C 0.33599 0.73781 0.97859 0.0
C250 C 0.29351 0.76719 0.98328 0.0
H251 H 0.07673 0.90015 0.96046 0.0
H252 H 0.14675 0.85097 0.95602 0.0
H253 H 0.19794 0.77973 0.0204 0.0
H254 H 0.43444 0.68977 0.00685 0.0
H255 H 0.36277 0.73612 0.01525 0.0
C256 C 0.84684 0.87679 0.97913 0.0
C257 C 0.86555 0.89494 1.0009 0.0
C258 C 0.81892 0.8379 0.97856 0.0
C259 C 0.74168 0.76377 0.98673 0.0
H260 H 0.80482 0.67257 0.02401 0.0
C261 C 0.64724 0.60541 0.01895 0.0
C262 C 0.67672 0.56747 0.02107 0.0
C263 C 0.66727 0.6445 0.01084 0.0
C264 C 0.78697 0.69738 0.01322 0.0
H265 H 0.86715 0.888 0.03916 0.0
H266 H 0.81897 0.82035 0.03806 0.0
H267 H 0.8439 0.74427 0.0219 0.0
H268 H 0.74801 0.53891 0.01376 0.0
H269 H 0.7827 0.60682 0.99934 0.0
H270 H 0.68408 0.71652 0.97848 0.0
C271 C 0.82628 0.8359 0.02147 0.0
C272 C 0.80909 0.73863 0.01227 0.0
C273 C 0.85379 0.8747 0.02207 0.0
C274 C 0.72497 0.56811 0.01295 0.0
C275 C 0.74473 0.60688 0.00463 0.0
C276 C 0.7191 0.72232 0.98787 0.0
C277 C 0.80968 0.81653 0.99971 0.0
C278 C 0.78642 0.7724 0.99932 0.0
C279 C 0.71685 0.64597 0.00454 0.0
C280 C 0.74152 0.68884 1.00128 0.0
H281 H 0.85506 0.89177 0.96252 0.0
H282 H 0.80652 0.82352 0.96157 0.0
H283 H 0.72358 0.78939 0.9766 0.0
H284 H 0.60982 0.60572 0.02498 0.0
H285 H 0.64499 0.67419 0.01104 0.0
C286 C 0.82606 0.10699 0.98939 0.0
C287 C 0.85732 0.09684 0.0089 0.0
C288 C 0.79321 0.14244 0.99089 0.0
C289 C 0.78705 0.25033 0.01698 0.0
H290 H 0.64796 0.24894 0.99874 0.0
C291 C 0.68568 0.41363 0.00567 0.0
C292 C 0.65235 0.41599 0.98616 0.0
C293 C 0.70186 0.37286 0.01379 0.0
C294 C 0.68685 0.25004 0.00368 0.0
H295 H 0.87769 0.11491 0.04548 0.0
H296 H 0.82139 0.17786 0.04774 0.0
H297 H 0.69313 0.1793 0.00192 0.0
H298 H 0.60876 0.37753 0.96012 0.0
H299 H 0.63936 0.30645 0.97308 0.0
H300 H 0.7828 0.3204 0.01697 0.0
C301 C 0.82192 0.15789 0.03148 0.0
C302 C 0.71248 0.21012 0.00566 0.0
C303 C 0.85404 0.12194 0.03015 0.0
C304 C 0.63419 0.37667 0.97537 0.0
C305 C 0.65158 0.33581 0.98297 0.0
C306 C 0.76187 0.29014 0.01446 0.0
C307 C 0.79176 0.16875 0.01177 0.0
C308 C 0.76291 0.21008 0.01204 0.0
C309 C 0.68678 0.33338 0.00189 0.0
C310 C 0.71155 0.29069 0.0074 0.0
H311 H 0.82762 0.08804 0.97283 0.0
H312 H 0.77056 0.15054 0.9754 0.0
H313 H 0.82613 0.25106 0.02164 0.0
H314 H 0.70025 0.44341 0.01429 0.0
H315 H 0.7276 0.37252 0.0289 0.0
C316 C 0.58 0.62015 0.53074 0.0
C317 C 0.56547 0.60303 0.50815 0.0
C318 C 0.61972 0.64922 0.53351 0.0
C319 C 0.70194 0.72258 0.50129 0.0
H320 H 0.79078 0.70178 0.55527 0.0
C321 C 0.89514 0.8046 0.51555 0.0
C322 C 0.90705 0.82021 0.53879 0.0
C323 C 0.85213 0.77999 0.51073 0.0
C324 C 0.76611 0.70829 0.54024 0.0
H325 H 0.58021 0.6041 0.4706 0.0
H326 H 0.65034 0.65439 0.4755 0.0
H327 H 0.71772 0.65612 0.54884 0.0
H328 H 0.8833 0.82219 0.57514 0.0
H329 H 0.80836 0.77981 0.5667 0.0
H330 H 0.75124 0.77456 0.49264 0.0
C331 C 0.63056 0.64575 0.49105 0.0
C332 C 0.72411 0.6822 0.53658 0.0
C333 C 0.59048 0.61682 0.48825 0.0
C334 C 0.87489 0.81113 0.557 0.0
C335 C 0.83222 0.78642 0.55222 0.0
C336 C 0.74427 0.74863 0.50491 0.0
C337 C 0.64622 0.66158 0.51379 0.0
C338 C 0.69121 0.68928 0.51721 0.0
C339 C 0.8206 0.77019 0.52911 0.0
C340 C 0.77649 0.74197 0.52457 0.0
H341 H 0.56119 0.61054 0.54641 0.0
H342 H 0.63004 0.66161 0.55121 0.0
H343 H 0.67719 0.72907 0.4863 0.0
H344 H 0.9191 0.81132 0.50114 0.0
H345 H 0.84418 0.7677 0.49277 0.0
C346 C 0.59704 0.39826 0.47598 0.0
C347 C 0.57921 0.41076 0.49828 0.0
C348 C 0.63868 0.37154 0.47427 0.0
C349 C 0.71761 0.293 0.50703 0.0
H350 H 0.81089 0.3218 0.45931 0.0
C351 C 0.90465 0.2019 0.49579 0.0
C352 C 0.9157 0.19015 0.47226 0.0
C353 C 0.86444 0.22936 0.5005 0.0
C354 C 0.78504 0.31318 0.47262 0.0
H355 H 0.59072 0.40439 0.53631 0.0
H356 H 0.66404 0.35784 0.5333 0.0
H357 H 0.73896 0.3685 0.46483 0.0
H358 H 0.8938 0.19844 0.43527 0.0
H359 H 0.82367 0.24586 0.44348 0.0
H360 H 0.76405 0.23748 0.5147 0.0
C361 C 0.64539 0.36848 0.51714 0.0
C362 C 0.74377 0.33987 0.47576 0.0
C363 C 0.60351 0.39525 0.51886 0.0
C364 C 0.88588 0.20645 0.45359 0.0
C365 C 0.84605 0.23403 0.45828 0.0
C366 C 0.75914 0.26629 0.50393 0.0
C367 C 0.66373 0.35676 0.49481 0.0
C368 C 0.70911 0.32969 0.4927 0.0
C369 C 0.83497 0.24594 0.48176 0.0
C370 C 0.79281 0.27574 0.48641 0.0
H371 H 0.57903 0.40936 0.45975 0.0
H372 H 0.65121 0.36236 0.45678 0.0
H373 H 0.69143 0.28412 0.52013 0.0
H374 H 0.92688 0.18962 0.51052 0.0
H375 H 0.85687 0.23818 0.51877 0.0
C376 C 0.35924 0.36506 0.47594 0.0
C377 C 0.35917 0.39367 0.49602 0.0
C378 C 0.33024 0.32691 0.47495 0.0
C379 C 0.22206 0.27344 0.49487 0.0
H380 H 0.29963 0.16657 0.50077 0.0
C381 C 0.14031 0.112 0.52796 0.0
C382 C 0.16312 0.07165 0.52235 0.0
C383 C 0.15929 0.15153 0.51994 0.0
C384 C 0.27696 0.19564 0.49843 0.0
H385 H 0.32704 0.40617 0.53023 0.0
H386 H 0.27511 0.33994 0.52809 0.0
H387 H 0.3406 0.23639 0.49499 0.0
H388 H 0.22127 0.04041 0.50266 0.0
H389 H 0.25213 0.1087 0.48712 0.0
H390 H 0.1582 0.233 0.4978 0.0
C391 C 0.29808 0.34695 0.51334 0.0
C392 C 0.30071 0.23574 0.49532 0.0
C393 C 0.32795 0.38454 0.5146 0.0
C394 C 0.2033 0.0712 0.50741 0.0
C395 C 0.22128 0.1105 0.49874 0.0
C396 C 0.19803 0.23309 0.49738 0.0
C397 C 0.29979 0.31749 0.49372 0.0
C398 C 0.27357 0.27497 0.49405 0.0
C399 C 0.2008 0.15145 0.50564 0.0
C400 C 0.22526 0.1937 0.49982 0.0
H401 H 0.38309 0.37125 0.4614 0.0
H402 H 0.33221 0.30434 0.45975 0.0
H403 H 0.20053 0.30351 0.49383 0.0
H404 H 0.10946 0.11324 0.53962 0.0
H405 H 0.14266 0.18214 0.52597 0.0
C406 C 0.34119 0.62326 0.52388 0.0
C407 C 0.34285 0.5928 0.50471 0.0
C408 C 0.30563 0.65665 0.52406 0.0
C409 C 0.22077 0.71555 0.4823 0.0
H410 H 0.18225 0.77544 0.54051 0.0
C411 C 0.10202 0.8721 0.4809 0.0
C412 C 0.13056 0.90812 0.48961 0.0
C413 C 0.11615 0.82896 0.48613 0.0
C414 C 0.19225 0.75857 0.52417 0.0
H415 H 0.30699 0.57131 0.47145 0.0
H416 H 0.24303 0.6277 0.47234 0.0
H417 H 0.22848 0.70625 0.54253 0.0
H418 H 0.19389 0.9275 0.51196 0.0
H419 H 0.21729 0.85225 0.52193 0.0
H420 H 0.18409 0.76791 0.46407 0.0
C421 C 0.27046 0.6275 0.48676 0.0
C422 C 0.21926 0.71924 0.52525 0.0
C423 C 0.30691 0.5949 0.48627 0.0
C424 C 0.1711 0.90039 0.50514 0.0
C425 C 0.18442 0.85739 0.51087 0.0
C426 C 0.19282 0.75415 0.48125 0.0
C427 C 0.27005 0.65965 0.50534 0.0
C428 C 0.2353 0.6979 0.50433 0.0
C429 C 0.15823 0.82132 0.50064 0.0
C430 C 0.17953 0.7766 0.50215 0.0
H431 H 0.36868 0.62243 0.53829 0.0
H432 H 0.30746 0.68101 0.53849 0.0
H433 H 0.23298 0.70101 0.46577 0.0
H434 H 0.0708 0.87707 0.46875 0.0
H435 H 0.09552 0.80151 0.47803 0.0
C436 C 0.95675 0.02841 0.14893 0.0
C437 C 0.98626 -0.00118 0.13603 0.0
C438 C 0.96299 0.03308 0.17362 0.0
C439 C 0.01478 0.97842 0.22679 0.0
H440 H 0.01979 0.09743 0.25401 0.0
C441 C 0.0813 0.01577 0.32401 0.0
C442 C 0.05721 0.04954 0.33671 0.0
C443 C 0.07096 0.00855 0.29971 0.0
C444 C 0.0178 0.06393 0.2468 0.0
H445 H 0.04426 0.9498 0.13907 0.0
H446 H 0.05535 0.95814 0.18213 0.0
H447 H 0.00355 0.08613 0.2115 0.0
H448 H 0.00234 0.10138 0.33395 0.0
H449 H 0.98391 0.08857 0.2917 0.0
H450 H 0.02892 0.95617 0.2621 0.0
C451 C 0.02732 0.97768 0.17316 0.0
C452 C 0.00851 0.05747 0.22239 0.0
C453 C 0.02129 0.9732 0.14846 0.0
C454 C 0.02217 0.0756 0.3246 0.0
C455 C 0.01165 0.06826 0.30035 0.0
C456 C 0.02385 0.98486 0.25125 0.0
C457 C -0.00133 0.00808 0.18599 0.0
C458 C 0.00707 0.01467 0.21208 0.0
C459 C 0.03608 0.0348 0.28754 0.0
C460 C 0.02565 0.02773 0.26156 0.0
H461 H 0.92971 0.04888 0.13988 0.0
H462 H 0.93998 0.05644 0.18302 0.0
H463 H 0.01333 0.945 0.21943 0.0
H464 H 0.10888 -0.00456 0.33277 0.0
H465 H 0.09105 0.98293 0.29037 0.0
C466 C 0.94552 0.96936 0.8587 0.0
C467 C 0.97258 0.00117 0.87232 0.0
C468 C 0.95215 0.96431 0.83426 0.0
C469 C 0.00165 0.01953 0.78231 0.0
H470 H 0.017 0.8998 0.75747 0.0
C471 C 0.07831 0.98077 0.68949 0.0
C472 C 0.05732 0.94524 0.67609 0.0
C473 C 0.06558 0.98872 0.71307 0.0
C474 C 0.01213 0.93345 0.76399 0.0
H475 H 0.02604 0.05404 0.87075 0.0
H476 H 0.0379 0.04501 0.82822 0.0
H477 H 0.99723 0.9123 0.79891 0.0
H478 H 0.00537 0.89102 0.67678 0.0
H479 H 0.98294 0.90499 0.71776 0.0
H480 H 0.01675 0.04069 0.74739 0.0
C481 C 0.0115 0.02398 0.83638 0.0
C482 C 0.00075 0.9406 0.78778 0.0
C483 C 0.00505 0.02888 0.8608 0.0
C484 C 0.02292 0.91816 0.68674 0.0
C485 C 0.01007 0.92619 0.71026 0.0
C486 C 0.01288 0.01237 0.75848 0.0
C487 C 0.98576 0.99115 0.82288 0.0
C488 C 0.99561 0.98372 0.79727 0.0
C489 C 0.03139 0.96143 0.72378 0.0
C490 C 0.0185 0.96923 0.74904 0.0
H491 H 0.92047 0.9473 0.86705 0.0
H492 H 0.9313 0.93907 0.82431 0.0
H493 H 0.99737 0.05315 0.789 0.0
H494 H 0.1053 0.00197 0.68188 0.0
H495 H 0.08328 0.01577 0.72304 0.0
C496 C 0.50963 0.47209 0.64571 0.0
C497 C 0.47302 0.49646 0.63358 0.0
C498 C 0.51613 0.47643 0.67037 0.0
C499 C 0.49431 0.55511 0.71981 0.0
H500 H 0.52771 0.45554 0.75904 0.0
C501 C 0.51779 0.57349 0.82177 0.0
C502 C 0.55752 0.55102 0.83266 0.0
C503 C 0.50477 0.5653 0.79784 0.0
C504 C 0.51886 0.48374 0.74829 0.0
H505 H 0.41376 0.54374 0.63797 0.0
H506 H 0.42461 0.5508 0.68109 0.0
H507 H 0.50851 0.44324 0.71672 0.0
H508 H 0.6148 0.50235 0.82685 0.0
H509 H 0.59224 0.48817 0.78504 0.0
H510 H 0.50521 0.59569 0.75124 0.0
C511 C 0.44867 0.5287 0.67145 0.0
C512 C 0.50778 0.47668 0.72405 0.0
C513 C 0.44208 0.52428 0.64677 0.0
C514 C 0.58366 0.51985 0.81908 0.0
C515 C 0.57066 0.51168 0.79512 0.0
C516 C 0.50541 0.56217 0.74402 0.0
C517 C 0.48623 0.5053 0.6835 0.0
C518 C 0.49565 0.51232 0.7095 0.0
C519 C 0.53117 0.53444 0.78418 0.0
C520 C 0.51809 0.52661 0.75854 0.0
H521 H 0.53369 0.44996 0.63609 0.0
H522 H 0.54563 0.45815 0.67905 0.0
H523 H 0.48596 0.58339 0.70904 0.0
H524 H 0.49629 0.59709 0.83184 0.0
H525 H 0.47364 0.58286 0.79009 0.0
C526 C 0.4998 0.53124 0.35882 0.0
C527 C 0.46865 0.50238 0.37037 0.0
C528 C 0.50705 0.52605 0.33448 0.0
C529 C 0.50247 0.44096 0.28674 0.0
H530 H 0.51287 0.54026 0.24531 0.0
C531 C 0.52808 0.41628 0.18614 0.0
C532 C 0.56103 0.44463 0.17541 0.0
C533 C 0.51419 0.42446 0.20948 0.0
C534 C 0.51059 0.5122 0.2567 0.0
H535 H 0.41972 0.44612 0.36526 0.0
H536 H 0.43195 0.43736 0.32268 0.0
H537 H 0.49188 0.55313 0.28669 0.0
H538 H 0.60539 0.50376 0.18082 0.0
H539 H 0.58161 0.51783 0.2217 0.0
H540 H 0.52195 0.40005 0.25699 0.0
C541 C 0.45112 0.46376 0.33254 0.0
C542 C 0.49843 0.51958 0.28039 0.0
C543 C 0.44369 0.46908 0.35687 0.0
C544 C 0.57955 0.48155 0.18852 0.0
C545 C 0.5658 0.48966 0.21192 0.0
C546 C 0.51478 0.43359 0.2631 0.0
C547 C 0.48346 0.49176 0.32114 0.0
C548 C 0.49437 0.48404 0.2957 0.0
C549 C 0.53305 0.46112 0.22272 0.0
C550 C 0.51914 0.46911 0.24779 0.0
H551 H 0.51915 0.55752 0.36869 0.0
H552 H 0.53242 0.54801 0.32628 0.0
H553 H 0.50053 0.41293 0.29817 0.0
H554 H 0.51244 0.38801 0.17637 0.0
H555 H 0.4882 0.40225 0.21707 0.0
loop_
_geom_bond_atom_site_label_1
_geom_bond_atom_site_label_2
_geom_bond_distance
_geom_bond_site_symmetry_2
_ccdc_geom_bond_type
C0 O16 1.251 . S
C0 O18 1.254 1_554 S
N1 C2 1.333 1_445 S
N1 C6 1.307 . S
N1 Zn7 2.020 . S
C2 N1 1.333 1_665 S
C2 C3 1.379 . S
C2 H20 0.952 . S
C3 C2 1.379 . S
C3 C4 1.390 1_665 S
C3 H30 0.949 . S
C4 C3 1.390 1_445 S
C4 C5 1.357 . S
C5 C4 1.357 . S
C5 C6 1.370 . S
C5 H31 0.950 . S
C6 N1 1.307 . S
C6 C5 1.370 . S
C6 H24 0.948 . S
Zn7 N1 2.020 . S
Zn7 O16 2.039 1_445 S
Zn7 O22 2.034 1_455 S
Zn7 O26 2.025 . S
Zn7 O28 2.024 1_545 S
C8 O27 1.246 1_554 S
C8 O28 1.249 . S
N9 C10 1.307 1_445 S
N9 C11 1.333 . S
N9 Zn15 2.020 . S
C10 N9 1.307 1_665 S
C10 C14 1.370 . S
C10 H21 0.948 . S
C11 N9 1.333 . S
C11 C12 1.379 . S
C11 H19 0.952 . S
C12 C11 1.379 . S
C12 C13 1.390 . S
C12 H32 0.949 . S
C13 C12 1.390 . S
C13 C14 1.357 1_445 S
C14 C10 1.370 . S
C14 C13 1.357 1_665 S
C14 H33 0.950 . S
Zn15 N9 2.020 . S
Zn15 O18 2.025 1_445 S
Zn15 O23 2.024 1_455 S
Zn15 O25 2.039 . S
Zn15 O27 2.034 1_545 S
O16 C0 1.251 . S
O16 Zn7 2.039 1_665 S
C17 O22 1.246 . S
C17 O23 1.249 1_554 S
O18 C0 1.254 1_556 S
O18 Zn15 2.025 1_665 S
H19 C11 0.952 . S
H20 C2 0.952 . S
H21 C10 0.948 . S
O22 Zn7 2.034 1_655 S
O22 C17 1.246 . S
O23 Zn15 2.024 1_655 S
O23 C17 1.249 1_556 S
H24 C6 0.948 . S
O25 Zn15 2.039 . S
O25 C29 1.251 1_556 S
O26 Zn7 2.025 . S
O26 C29 1.254 . S
O27 C8 1.246 1_556 S
O27 Zn15 2.034 1_565 S
O28 Zn7 2.024 1_565 S
O28 C8 1.249 . S
C29 O25 1.251 1_554 S
C29 O26 1.254 . S
H30 C3 0.949 . S
H31 C5 0.950 . S
H32 C12 0.949 . S
H33 C14 0.950 . S
C34 O50 1.251 . S
C34 O52 1.254 . S
N35 C36 1.333 . S
N35 C40 1.307 . S
N35 Zn41 2.020 . S
C36 N35 1.333 . S
C36 C37 1.379 . S
C36 H54 0.952 . S
C37 C36 1.379 . S
C37 C38 1.390 . S
C37 H64 0.949 . S
C38 C37 1.390 . S
C38 C39 1.357 . S
C39 C38 1.357 . S
C39 C40 1.370 . S
C39 H65 0.950 . S
C40 N35 1.307 . S
C40 C39 1.370 . S
C40 H58 0.948 . S
Zn41 N35 2.020 . S
Zn41 O50 2.039 . S
Zn41 O56 2.034 . S
Zn41 O60 2.025 . S
Zn41 O62 2.024 . S
C42 O61 1.246 . S
C42 O62 1.249 . S
N43 C44 1.307 . S
N43 C45 1.333 . S
N43 Zn49 2.020 . S
C44 N43 1.307 . S
C44 C48 1.370 . S
C44 H55 0.948 . S
C45 N43 1.333 . S
C45 C46 1.379 . S
C45 H53 0.952 . S
C46 C45 1.379 . S
C46 C47 1.390 . S
C46 H66 0.949 . S
C47 C46 1.390 . S
C47 C48 1.357 . S
C48 C44 1.370 . S
C48 C47 1.357 . S
C48 H67 0.950 . S
Zn49 N43 2.020 . S
Zn49 O52 2.025 . S
Zn49 O57 2.024 . S
Zn49 O59 2.039 . S
Zn49 O61 2.034 . S
O50 C34 1.251 . S
O50 Zn41 2.039 . S
C51 O56 1.246 . S
C51 O57 1.249 . S
O52 C34 1.254 . S
O52 Zn49 2.025 . S
H53 C45 0.952 . S
H54 C36 0.952 . S
H55 C44 0.948 . S
O56 Zn41 2.034 . S
O56 C51 1.246 . S
O57 Zn49 2.024 . S
O57 C51 1.249 . S
H58 C40 0.948 . S
O59 Zn49 2.039 . S
O59 C63 1.251 . S
O60 Zn41 2.025 . S
O60 C63 1.254 . S
O61 C42 1.246 . S
O61 Zn49 2.034 . S
O62 Zn41 2.024 . S
O62 C42 1.249 . S
C63 O59 1.251 . S
C63 O60 1.254 . S
H64 C37 0.949 . S
H65 C39 0.950 . S
H66 C46 0.949 . S
H67 C48 0.950 . S
P68 O79 1.490 . S
P68 C82 1.812 1_455 S
P68 C88 1.803 1_545 S
P68 C94 1.819 . S
H69 C83 0.941 . S
H70 C84 0.939 . S
H71 C86 0.940 . S
H72 C87 0.940 . S
H73 C89 0.939 . S
H74 C90 0.942 . S
H75 C92 0.940 . S
H76 C93 0.939 . S
H77 C95 0.941 . S
H78 C99 0.939 . S
O79 P68 1.490 . S
H80 C96 0.939 . S
H81 C98 0.940 . S
C82 P68 1.812 1_655 S
C82 C83 1.389 1_655 S
C82 C87 1.391 . S
C83 H69 0.941 . S
C83 C82 1.389 1_455 S
C83 C84 1.397 1_455 S
C84 H70 0.939 . S
C84 C83 1.397 1_655 S
C84 C85 1.378 . S
C85 C84 1.378 . S
C85 C86 1.378 . S
C86 H71 0.940 . S
C86 C85 1.378 . S
C86 C87 1.396 . S
C87 H72 0.940 . S
C87 C82 1.391 . S
C87 C86 1.396 . S
C88 P68 1.803 1_565 S
C88 C89 1.378 . S
C88 C93 1.400 . S
C89 H73 0.939 . S
C89 C88 1.378 . S
C89 C90 1.361 . S
C90 H74 0.942 . S
C90 C89 1.361 . S
C90 C91 1.369 . S
C91 C90 1.369 . S
C91 C92 1.404 . S
C92 H75 0.940 . S
C92 C91 1.404 . S
C92 C93 1.389 . S
C93 H76 0.939 . S
C93 C88 1.400 . S
C93 C92 1.389 . S
C94 P68 1.819 . S
C94 C95 1.391 . S
C94 C99 1.391 1_545 S
C95 H77 0.941 . S
C95 C94 1.391 . S
C95 C96 1.396 . S
C96 H80 0.939 . S
C96 C95 1.396 . S
C96 C97 1.397 . S
C97 C96 1.397 . S
C97 C98 1.385 1_545 S
C98 H81 0.940 . S
C98 C97 1.385 1_565 S
C98 C99 1.388 . S
C99 H78 0.939 . S
C99 C94 1.391 1_565 S
C99 C98 1.388 . S
P100 O111 1.490 . S
P100 C114 1.812 . S
P100 C120 1.803 1_565 S
P100 C126 1.819 . S
H101 C115 0.941 . S
H102 C116 0.939 . S
H103 C118 0.940 . S
H104 C119 0.940 . S
H105 C121 0.939 . S
H106 C122 0.942 . S
H107 C124 0.940 . S
H108 C125 0.939 . S
H109 C127 0.941 . S
H110 C131 0.939 . S
O111 P100 1.490 . S
H112 C128 0.939 . S
H113 C130 0.940 . S
C114 P100 1.812 . S
C114 C115 1.389 . S
C114 C119 1.391 1_455 S
C115 H101 0.941 . S
C115 C114 1.389 . S
C115 C116 1.397 1_455 S
C116 H102 0.939 . S
C116 C115 1.397 1_655 S
C116 C117 1.378 . S
C117 C116 1.378 . S
C117 C118 1.378 . S
C118 H103 0.940 . S
C118 C117 1.378 . S
C118 C119 1.396 . S
C119 H104 0.940 . S
C119 C114 1.391 1_655 S
C119 C118 1.396 . S
C120 P100 1.803 1_545 S
C120 C121 1.378 . S
C120 C125 1.400 . S
C121 H105 0.939 . S
C121 C120 1.378 . S
C121 C122 1.361 . S
C122 H106 0.942 . S
C122 C121 1.361 . S
C122 C123 1.369 . S
C123 C122 1.369 . S
C123 C124 1.404 . S
C124 H107 0.940 . S
C124 C123 1.404 . S
C124 C125 1.389 . S
C125 H108 0.939 . S
C125 C120 1.400 . S
C125 C124 1.389 . S
C126 P100 1.819 . S
C126 C127 1.391 . S
C126 C131 1.391 1_565 S
C127 H109 0.941 . S
C127 C126 1.391 . S
C127 C128 1.396 . S
C128 H112 0.939 . S
C128 C127 1.396 . S
C128 C129 1.408 . S
C129 C128 1.408 . S
C129 C130 1.376 1_565 S
C130 H113 0.940 . S
C130 C129 1.376 1_545 S
C130 C131 1.388 . S
C131 H110 0.939 . S
C131 C126 1.391 1_545 S
C131 C130 1.388 . S
P132 O143 1.490 . S
P132 C146 1.812 . S
P132 C152 1.803 . S
P132 C158 1.819 . S
H133 C147 0.941 . S
H134 C148 0.939 . S
H135 C150 0.940 . S
H136 C151 0.940 . S
H137 C153 0.939 . S
H138 C154 0.942 . S
H139 C156 0.940 . S
H140 C157 0.939 . S
H141 C159 0.941 . S
H142 C163 0.939 . S
O143 P132 1.490 . S
H144 C160 0.939 . S
H145 C162 0.940 . S
C146 P132 1.812 . S
C146 C147 1.389 . S
C146 C151 1.391 . S
C147 H133 0.941 . S
C147 C146 1.389 . S
C147 C148 1.397 . S
C148 H134 0.939 . S
C148 C147 1.397 . S
C148 C149 1.378 . S
C149 C148 1.378 . S
C149 C150 1.378 . S
C150 H135 0.940 . S
C150 C149 1.378 . S
C150 C151 1.396 . S
C151 H136 0.940 . S
C151 C146 1.391 . S
C151 C150 1.396 . S
C152 P132 1.803 . S
C152 C153 1.378 . S
C152 C157 1.400 . S
C153 H137 0.939 . S
C153 C152 1.378 . S
C153 C154 1.361 . S
C154 H138 0.942 . S
C154 C153 1.361 . S
C154 C155 1.369 . S
C155 C154 1.369 . S
C155 C156 1.404 . S
C156 H139 0.940 . S
C156 C155 1.404 . S
C156 C157 1.389 . S
C157 H140 0.939 . S
C157 C152 1.400 . S
C157 C156 1.389 . S
C158 P132 1.819 . S
C158 C159 1.391 . S
C158 C163 1.391 . S
C159 H141 0.941 . S
C159 C158 1.391 . S
C159 C160 1.396 . S
C160 H144 0.939 . S
C160 C159 1.396 . S
C160 C161 1.397 . S
C161 C160 1.397 . S
C161 C162 1.385 . S
C162 H145 0.940 . S
C162 C161 1.385 . S
C162 C163 1.388 . S
C163 H142 0.939 . S
C163 C158 1.391 . S
C163 C162 1.388 . S
P164 O175 1.490 . S
P164 C178 1.812 . S
P164 C184 1.803 . S
P164 C190 1.819 . S
H165 C179 0.941 . S
H166 C180 0.939 . S
H167 C182 0.940 . S
H168 C183 0.940 . S
H169 C185 0.939 . S
H170 C186 0.942 . S
H171 C188 0.940 . S
H172 C189 0.939 . S
H173 C191 0.941 . S
H174 C195 0.939 . S
O175 P164 1.490 . S
H176 C192 0.939 . S
H177 C194 0.940 . S
C178 P164 1.812 . S
C178 C179 1.389 . S
C178 C183 1.391 . S
C179 H165 0.941 . S
C179 C178 1.389 . S
C179 C180 1.397 . S
C180 H166 0.939 . S
C180 C179 1.397 . S
C180 C181 1.378 . S
C181 C180 1.378 . S
C181 C182 1.378 . S
C182 H167 0.940 . S
C182 C181 1.378 . S
C182 C183 1.396 . S
C183 H168 0.940 . S
C183 C178 1.391 . S
C183 C182 1.396 . S
C184 P164 1.803 . S
C184 C185 1.378 . S
C184 C189 1.400 . S
C185 H169 0.939 . S
C185 C184 1.378 . S
C185 C186 1.361 . S
C186 H170 0.942 . S
C186 C185 1.361 . S
C186 C187 1.369 . S
C187 C186 1.369 . S
C187 C188 1.404 . S
C188 H171 0.940 . S
C188 C187 1.404 . S
C188 C189 1.389 . S
C189 H172 0.939 . S
C189 C184 1.400 . S
C189 C188 1.389 . S
C190 P164 1.819 . S
C190 C191 1.391 . S
C190 C195 1.391 . S
C191 H173 0.941 . S
C191 C190 1.391 . S
C191 C192 1.396 . S
C192 H176 0.939 . S
C192 C191 1.396 . S
C192 C193 1.397 . S
C193 C192 1.397 . S
C193 C194 1.385 . S
C194 H177 0.940 . S
C194 C193 1.385 . S
C194 C195 1.388 . S
C195 H174 0.939 . S
C195 C190 1.391 . S
C195 C194 1.388 . S
C196 C197 1.349 . S
C196 C198 1.327 . S
C196 H221 0.950 . S
C197 C196 1.349 . S
C197 C213 1.349 1_554 S
C198 C196 1.327 . S
C198 C217 1.429 . S
C198 H222 0.950 . S
C199 C216 1.574 . S
C199 C218 1.368 1_556 S
C199 H223 0.949 . S
H200 C204 0.949 . S
C201 C202 1.349 . S
C201 C203 1.332 . S
C201 H224 0.950 1_554 S
C202 C201 1.349 . S
C202 C214 1.349 . S
C203 C201 1.332 . S
C203 C219 1.466 . S
C203 H225 0.908 1_554 S
C204 H200 0.949 . S
C204 C212 1.574 . S
C204 C220 1.368 . S
H205 C213 0.950 . S
H206 C211 0.950 . S
H207 C212 0.949 . S
H208 C214 0.950 . S
H209 C215 0.950 . S
H210 C216 0.949 . S
C211 H206 0.950 . S
C211 C213 1.327 . S
C211 C217 1.429 1_556 S
C212 C204 1.574 . S
C212 H207 0.949 . S
C212 C218 1.368 . S
C213 C197 1.349 1_556 S
C213 H205 0.950 . S
C213 C211 1.327 . S
C214 C202 1.349 . S
C214 H208 0.950 . S
C214 C215 1.327 . S
C215 H209 0.950 . S
C215 C214 1.327 . S
C215 C219 1.429 . S
C216 C199 1.574 . S
C216 H210 0.949 . S
C216 C220 1.368 1_556 S
C217 C198 1.429 . S
C217 C211 1.429 1_554 S
C217 C218 1.523 . S
C218 C199 1.368 1_554 S
C218 C212 1.368 . S
C218 C217 1.523 . S
C219 C203 1.466 . S
C219 C215 1.429 . S
C219 C220 1.523 . S
C220 C204 1.368 . S
C220 C216 1.368 1_554 S
C220 C219 1.523 . S
H221 C196 0.950 . S
H222 C198 0.950 . S
H223 C199 0.949 . S
H224 C201 0.950 1_556 S
H225 C203 0.908 1_556 S
C226 C227 1.309 1_556 S
C226 C228 1.327 . S
C226 H251 0.950 . S
C227 C226 1.309 1_554 S
C227 C243 1.384 . S
C228 C226 1.327 . S
C228 C247 1.429 . S
C228 H252 0.950 . S
C229 C246 1.574 . S
C229 C248 1.368 1_554 S
C229 H253 0.949 . S
H230 C234 0.949 . S
C231 C232 1.349 . S
C231 C233 1.327 1_556 S
C231 H254 0.950 1_556 S
C232 C231 1.349 . S
C232 C244 1.349 . S
C233 C231 1.327 1_554 S
C233 C249 1.429 1_554 S
C233 H255 0.950 . S
C234 H230 0.949 . S
C234 C242 1.574 . S
C234 C250 1.368 . S
H235 C243 0.950 . S
H236 C241 0.950 . S
H237 C242 0.949 . S
H238 C244 0.950 . S
H239 C245 0.950 . S
H240 C246 0.949 . S
C241 H236 0.950 . S
C241 C243 1.327 . S
C241 C247 1.429 1_554 S
C242 C234 1.574 . S
C242 H237 0.949 . S
C242 C248 1.368 . S
C243 C227 1.384 . S
C243 H235 0.950 . S
C243 C241 1.327 . S
C244 C232 1.349 . S
C244 H238 0.950 . S
C244 C245 1.327 . S
C245 H239 0.950 . S
C245 C244 1.327 . S
C245 C249 1.429 . S
C246 C229 1.574 . S
C246 H240 0.949 . S
C246 C250 1.368 1_554 S
C247 C228 1.429 . S
C247 C241 1.429 1_556 S
C247 C248 1.523 . S
C248 C229 1.368 1_556 S
C248 C242 1.368 . S
C248 C247 1.523 . S
C249 C233 1.429 1_556 S
C249 C245 1.429 . S
C249 C250 1.523 . S
C250 C234 1.368 . S
C250 C246 1.368 1_556 S
C250 C249 1.523 . S
H251 C226 0.950 . S
H252 C228 0.950 . S
H253 C229 0.949 . S
H254 C231 0.950 1_554 S
H255 C233 0.950 . S
C256 C257 1.349 1_556 S
C256 C258 1.327 . S
C256 H281 0.950 . S
C257 C256 1.349 1_554 S
C257 C273 1.349 . S
C258 C256 1.327 . S
C258 C277 1.429 1_556 S
C258 H282 0.950 . S
C259 C276 1.574 . S
C259 C278 1.368 . S
C259 H283 0.949 . S
H260 C264 0.949 1_556 S
C261 C262 1.349 . S
C261 C263 1.327 . S
C261 H284 0.950 . S
C262 C261 1.349 . S
C262 C274 1.349 . S
C263 C261 1.327 . S
C263 C279 1.429 . S
C263 H285 0.950 . S
C264 H260 0.949 1_554 S
C264 C272 1.571 1_554 S
C264 C280 1.368 . S
H265 C273 0.950 . S
H266 C271 0.950 . S
H267 C272 0.959 . S
H268 C274 0.950 . S
H269 C275 0.950 1_556 S
H270 C276 0.949 . S
C271 H266 0.950 . S
C271 C273 1.327 . S
C271 C277 1.429 . S
C272 C264 1.571 1_556 S
C272 H267 0.959 . S
C272 C278 1.360 1_556 S
C273 C257 1.349 . S
C273 H265 0.950 . S
C273 C271 1.327 . S
C274 C262 1.349 . S
C274 H268 0.950 . S
C274 C275 1.327 . S
C275 H269 0.950 1_554 S
C275 C274 1.327 . S
C275 C279 1.429 . S
C276 C259 1.574 . S
C276 H270 0.949 . S
C276 C280 1.368 . S
C277 C258 1.429 1_554 S
C277 C271 1.429 . S
C277 C278 1.523 . S
C278 C259 1.368 . S
C278 C272 1.360 1_554 S
C278 C277 1.523 . S
C279 C263 1.429 . S
C279 C275 1.429 . S
C279 C280 1.523 . S
C280 C264 1.368 . S
C280 C276 1.368 . S
C280 C279 1.523 . S
H281 C256 0.950 . S
H282 C258 0.950 . S
H283 C259 0.949 . S
H284 C261 0.950 . S
H285 C263 0.950 . S
C286 C287 1.349 1_556 S
C286 C288 1.327 . S
C286 H311 0.950 . S
C287 C286 1.349 1_554 S
C287 C303 1.349 . S
C288 C286 1.327 . S
C288 C307 1.429 . S
C288 H312 0.950 . S
C289 C306 1.574 . S
C289 C308 1.368 1_554 S
C289 H313 0.949 . S
H290 C294 0.949 . S
C291 C292 1.353 . S
C291 C293 1.326 1_556 S
C291 H314 0.946 1_556 S
C292 C291 1.353 . S
C292 C304 1.349 . S
C293 C291 1.326 1_554 S
C293 C309 1.429 1_554 S
C293 H315 0.950 . S
C294 H290 0.949 . S
C294 C302 1.574 . S
C294 C310 1.368 . S
H295 C303 0.950 . S
H296 C301 0.950 . S
H297 C302 0.949 . S
H298 C304 0.950 . S
H299 C305 0.950 . S
H300 C306 0.949 . S
C301 H296 0.950 . S
C301 C303 1.327 . S
C301 C307 1.429 1_554 S
C302 C294 1.574 . S
C302 H297 0.949 . S
C302 C308 1.368 . S
C303 C287 1.349 . S
C303 H295 0.950 . S
C303 C301 1.327 . S
C304 C292 1.349 . S
C304 H298 0.950 . S
C304 C305 1.327 . S
C305 H299 0.950 . S
C305 C304 1.327 . S
C305 C309 1.429 . S
C306 C289 1.574 . S
C306 H300 0.949 . S
C306 C310 1.368 1_554 S
C307 C288 1.429 . S
C307 C301 1.429 1_556 S
C307 C308 1.523 . S
C308 C289 1.368 1_556 S
C308 C302 1.368 . S
C308 C307 1.523 . S
C309 C293 1.429 1_556 S
C309 C305 1.429 . S
C309 C310 1.523 . S
C310 C294 1.368 . S
C310 C306 1.368 1_556 S
C310 C309 1.523 . S
H311 C286 0.950 . S
H312 C288 0.950 . S
H313 C289 0.949 . S
H314 C291 0.946 1_554 S
H315 C293 0.950 . S
C316 C317 1.349 . S
C316 C318 1.327 . S
C316 H341 0.950 . S
C317 C316 1.349 . S
C317 C333 1.349 . S
C318 C316 1.327 . S
C318 C337 1.429 . S
C318 H342 0.950 . S
C319 C336 1.574 . S
C319 C338 1.368 . S
C319 H343 0.949 . S
H320 C324 0.949 . S
C321 C322 1.349 . S
C321 C323 1.327 . S
C321 H344 0.950 . S
C322 C321 1.349 . S
C322 C334 1.349 . S
C323 C321 1.327 . S
C323 C339 1.429 . S
C323 H345 0.950 . S
C324 H320 0.949 . S
C324 C332 1.574 . S
C324 C340 1.368 . S
H325 C333 0.950 . S
H326 C331 0.950 . S
H327 C332 0.949 . S
H328 C334 0.950 . S
H329 C335 0.950 . S
H330 C336 0.949 . S
C331 H326 0.950 . S
C331 C333 1.327 . S
C331 C337 1.429 . S
C332 C324 1.574 . S
C332 H327 0.949 . S
C332 C338 1.368 . S
C333 C317 1.349 . S
C333 H325 0.950 . S
C333 C331 1.327 . S
C334 C322 1.349 . S
C334 H328 0.950 . S
C334 C335 1.327 . S
C335 H329 0.950 . S
C335 C334 1.327 . S
C335 C339 1.429 . S
C336 C319 1.574 . S
C336 H330 0.949 . S
C336 C340 1.368 . S
C337 C318 1.429 . S
C337 C331 1.429 . S
C337 C338 1.523 . S
C338 C319 1.368 . S
C338 C332 1.368 . S
C338 C337 1.523 . S
C339 C323 1.429 . S
C339 C335 1.429 . S
C339 C340 1.523 . S
C340 C324 1.368 . S
C340 C336 1.368 . S
C340 C339 1.523 . S
H341 C316 0.950 . S
H342 C318 0.950 . S
H343 C319 0.949 . S
H344 C321 0.950 . S
H345 C323 0.950 . S
C346 C347 1.349 . S
C346 C348 1.327 . S
C346 H371 0.950 . S
C347 C346 1.349 . S
C347 C363 1.349 . S
C348 C346 1.327 . S
C348 C367 1.429 . S
C348 H372 0.950 . S
C349 C366 1.574 . S
C349 C368 1.368 . S
C349 H373 0.949 . S
H350 C354 0.949 . S
C351 C352 1.349 . S
C351 C353 1.327 . S
C351 H374 0.950 . S
C352 C351 1.349 . S
C352 C364 1.349 . S
C353 C351 1.327 . S
C353 C369 1.429 . S
C353 H375 0.950 . S
C354 H350 0.949 . S
C354 C362 1.574 . S
C354 C370 1.368 . S
H355 C363 0.950 . S
H356 C361 0.950 . S
H357 C362 0.949 . S
H358 C364 0.950 . S
H359 C365 0.950 . S
H360 C366 0.949 . S
C361 H356 0.950 . S
C361 C363 1.327 . S
C361 C367 1.429 . S
C362 C354 1.574 . S
C362 H357 0.949 . S
C362 C368 1.368 . S
C363 C347 1.349 . S
C363 H355 0.950 . S
C363 C361 1.327 . S
C364 C352 1.349 . S
C364 H358 0.950 . S
C364 C365 1.327 . S
C365 H359 0.950 . S
C365 C364 1.327 . S
C365 C369 1.429 . S
C366 C349 1.574 . S
C366 H360 0.949 . S
C366 C370 1.368 . S
C367 C348 1.429 . S
C367 C361 1.429 . S
C367 C368 1.523 . S
C368 C349 1.368 . S
C368 C362 1.368 . S
C368 C367 1.523 . S
C369 C353 1.429 . S
C369 C365 1.429 . S
C369 C370 1.523 . S
C370 C354 1.368 . S
C370 C366 1.368 . S
C370 C369 1.523 . S
H371 C346 0.950 . S
H372 C348 0.950 . S
H373 C349 0.949 . S
H374 C351 0.950 . S
H375 C353 0.950 . S
C376 C377 1.349 . S
C376 C378 1.327 . S
C376 H401 0.950 . S
C377 C376 1.349 . S
C377 C393 1.349 . S
C378 C376 1.327 . S
C378 C397 1.429 . S
C378 H402 0.950 . S
C379 C396 1.574 . S
C379 C398 1.368 . S
C379 H403 0.949 . S
H380 C384 0.949 . S
C381 C382 1.349 . S
C381 C383 1.327 . S
C381 H404 0.950 . S
C382 C381 1.349 . S
C382 C394 1.349 . S
C383 C381 1.327 . S
C383 C399 1.429 . S
C383 H405 0.950 . S
C384 H380 0.949 . S
C384 C392 1.574 . S
C384 C400 1.368 . S
H385 C393 0.950 . S
H386 C391 0.950 . S
H387 C392 0.949 . S
H388 C394 0.950 . S
H389 C395 0.950 . S
H390 C396 0.949 . S
C391 H386 0.950 . S
C391 C393 1.327 . S
C391 C397 1.429 . S
C392 C384 1.574 . S
C392 H387 0.949 . S
C392 C398 1.368 . S
C393 C377 1.349 . S
C393 H385 0.950 . S
C393 C391 1.327 . S
C394 C382 1.349 . S
C394 H388 0.950 . S
C394 C395 1.327 . S
C395 H389 0.950 . S
C395 C394 1.327 . S
C395 C399 1.429 . S
C396 C379 1.574 . S
C396 H390 0.949 . S
C396 C400 1.368 . S
C397 C378 1.429 . S
C397 C391 1.429 . S
C397 C398 1.523 . S
C398 C379 1.368 . S
C398 C392 1.368 . S
C398 C397 1.523 . S
C399 C383 1.429 . S
C399 C395 1.429 . S
C399 C400 1.523 . S
C400 C384 1.368 . S
C400 C396 1.368 . S
C400 C399 1.523 . S
H401 C376 0.950 . S
H402 C378 0.950 . S
H403 C379 0.949 . S
H404 C381 0.950 . S
H405 C383 0.950 . S
C406 C407 1.349 . S
C406 C408 1.327 . S
C406 H431 0.950 . S
C407 C406 1.349 . S
C407 C423 1.349 . S
C408 C406 1.327 . S
C408 C427 1.429 . S
C408 H432 0.950 . S
C409 C426 1.574 . S
C409 C428 1.368 . S
C409 H433 0.949 . S
H410 C414 0.949 . S
C411 C412 1.349 . S
C411 C413 1.327 . S
C411 H434 0.950 . S
C412 C411 1.349 . S
C412 C424 1.349 . S
C413 C411 1.327 . S
C413 C429 1.429 . S
C413 H435 0.950 . S
C414 H410 0.949 . S
C414 C422 1.574 . S
C414 C430 1.368 . S
H415 C423 0.950 . S
H416 C421 0.950 . S
H417 C422 0.949 . S
H418 C424 0.950 . S
H419 C425 0.950 . S
H420 C426 0.949 . S
C421 H416 0.950 . S
C421 C423 1.327 . S
C421 C427 1.429 . S
C422 C414 1.574 . S
C422 H417 0.949 . S
C422 C428 1.368 . S
C423 C407 1.349 . S
C423 H415 0.950 . S
C423 C421 1.327 . S
C424 C412 1.349 . S
C424 H418 0.950 . S
C424 C425 1.327 . S
C425 H419 0.950 . S
C425 C424 1.327 . S
C425 C429 1.429 . S
C426 C409 1.574 . S
C426 H420 0.949 . S
C426 C430 1.368 . S
C427 C408 1.429 . S
C427 C421 1.429 . S
C427 C428 1.523 . S
C428 C409 1.368 . S
C428 C422 1.368 . S
C428 C427 1.523 . S
C429 C413 1.429 . S
C429 C425 1.429 . S
C429 C430 1.523 . S
C430 C414 1.368 . S
C430 C426 1.368 . S
C430 C429 1.523 . S
H431 C406 0.950 . S
H432 C408 0.950 . S
H433 C409 0.949 . S
H434 C411 0.950 . S
H435 C413 0.950 . S
C436 C437 1.349 1_655 S
C436 C438 1.327 . S
C436 H461 0.950 . S
C437 C436 1.349 1_455 S
C437 C453 1.349 1_545 S
C438 C436 1.327 . S
C438 C457 1.429 1_655 S
C438 H462 0.950 . S
C439 C456 1.574 . S
C439 C458 1.368 1_565 S
C439 H463 0.949 . S
H440 C444 0.949 . S
C441 C442 1.349 1_465 S
C441 C443 1.327 . S
C441 H464 0.950 . S
C442 C441 1.349 1_645 S
C442 C454 1.349 . S
C443 C441 1.327 . S
C443 C459 1.428 1_565 S
C443 H465 0.950 . S
C444 H440 0.949 . S
C444 C452 1.574 . S
C444 C460 1.368 1_655 S
H445 C453 0.950 . S
H446 C451 0.950 . S
H447 C452 0.949 . S
H448 C454 0.950 . S
H449 C455 0.950 . S
H450 C456 0.949 . S
C451 H446 0.950 . S
C451 C453 1.327 . S
C451 C457 1.429 1_565 S
C452 C444 1.574 . S
C452 H447 0.949 . S
C452 C458 1.368 1_655 S
C453 C437 1.349 1_565 S
C453 H445 0.950 . S
C453 C451 1.327 . S
C454 C442 1.349 . S
C454 H448 0.950 . S
C454 C455 1.327 . S
C455 H449 0.950 . S
C455 C454 1.327 . S
C455 C459 1.429 1_655 S
C456 C439 1.574 . S
C456 H450 0.949 . S
C456 C460 1.368 1_565 S
C457 C438 1.429 1_455 S
C457 C451 1.429 1_545 S
C457 C458 1.523 . S
C458 C439 1.368 1_545 S
C458 C452 1.368 1_455 S
C458 C457 1.523 . S
C459 C443 1.428 1_545 S
C459 C455 1.429 1_455 S
C459 C460 1.523 . S
C460 C444 1.368 1_455 S
C460 C456 1.368 1_545 S
C460 C459 1.523 . S
H461 C436 0.950 . S
H462 C438 0.950 . S
H463 C439 0.949 . S
H464 C441 0.950 . S
H465 C443 0.950 . S
C466 C467 1.349 1_665 S
C466 C468 1.327 . S
C466 H491 0.950 . S
C467 C466 1.349 1_445 S
C467 C483 1.349 . S
C468 C466 1.327 . S
C468 C487 1.429 1_665 S
C468 H492 0.950 . S
C469 C486 1.574 . S
C469 C488 1.368 . S
C469 H493 0.949 . S
H470 C474 0.949 . S
C471 C472 1.349 . S
C471 C473 1.327 . S
C471 H494 0.950 . S
C472 C471 1.349 . S
C472 C484 1.349 1_445 S
C473 C471 1.327 . S
C473 C489 1.429 . S
C473 H495 0.950 . S
C474 H470 0.949 . S
C474 C482 1.574 . S
C474 C490 1.368 1_665 S
H475 C483 0.950 . S
H476 C481 0.950 . S
H477 C482 0.949 . S
H478 C484 0.950 . S
H479 C485 0.950 . S
H480 C486 0.949 . S
C481 H476 0.950 . S
C481 C483 1.327 . S
C481 C487 1.429 . S
C482 C474 1.574 . S
C482 H477 0.949 . S
C482 C488 1.368 1_665 S
C483 C467 1.349 . S
C483 H475 0.950 . S
C483 C481 1.327 . S
C484 C472 1.349 1_665 S
C484 H478 0.950 . S
C484 C485 1.327 . S
C485 H479 0.950 . S
C485 C484 1.327 . S
C485 C489 1.429 1_665 S
C486 C469 1.574 . S
C486 H480 0.949 . S
C486 C490 1.368 . S
C487 C468 1.429 1_445 S
C487 C481 1.429 . S
C487 C488 1.523 . S
C488 C469 1.368 . S
C488 C482 1.368 1_445 S
C488 C487 1.523 . S
C489 C473 1.429 . S
C489 C485 1.429 1_445 S
C489 C490 1.523 . S
C490 C474 1.368 1_445 S
C490 C486 1.368 . S
C490 C489 1.523 . S
H491 C466 0.950 . S
H492 C468 0.950 . S
H493 C469 0.949 . S
H494 C471 0.950 . S
H495 C473 0.950 . S
C496 C497 1.349 . S
C496 C498 1.327 . S
C496 H521 0.950 . S
C497 C496 1.349 . S
C497 C513 1.349 . S
C498 C496 1.327 . S
C498 C517 1.429 . S
C498 H522 0.950 . S
C499 C516 1.574 . S
C499 C518 1.368 . S
C499 H523 0.949 . S
H500 C504 0.949 . S
C501 C502 1.349 . S
C501 C503 1.327 . S
C501 H524 0.950 . S
C502 C501 1.349 . S
C502 C514 1.349 . S
C503 C501 1.327 . S
C503 C519 1.429 . S
C503 H525 0.950 . S
C504 H500 0.949 . S
C504 C512 1.574 . S
C504 C520 1.368 . S
H505 C513 0.950 . S
H506 C511 0.950 . S
H507 C512 0.949 . S
H508 C514 0.950 . S
H509 C515 0.950 . S
H510 C516 0.949 . S
C511 H506 0.950 . S
C511 C513 1.327 . S
C511 C517 1.429 . S
C512 C504 1.574 . S
C512 H507 0.949 . S
C512 C518 1.368 . S
C513 C497 1.349 . S
C513 H505 0.950 . S
C513 C511 1.327 . S
C514 C502 1.349 . S
C514 H508 0.950 . S
C514 C515 1.327 . S
C515 H509 0.950 . S
C515 C514 1.327 . S
C515 C519 1.429 . S
C516 C499 1.574 . S
C516 H510 0.949 . S
C516 C520 1.368 . S
C517 C498 1.429 . S
C517 C511 1.429 . S
C517 C518 1.523 . S
C518 C499 1.368 . S
C518 C512 1.368 . S
C518 C517 1.523 . S
C519 C503 1.429 . S
C519 C515 1.429 . S
C519 C520 1.523 . S
C520 C504 1.368 . S
C520 C516 1.368 . S
C520 C519 1.523 . S
H521 C496 0.950 . S
H522 C498 0.950 . S
H523 C499 0.949 . S
H524 C501 0.950 . S
H525 C503 0.950 . S
C526 C527 1.349 . S
C526 C528 1.327 . S
C526 H551 0.950 . S
C527 C526 1.349 . S
C527 C543 1.349 . S
C528 C526 1.327 . S
C528 C547 1.429 . S
C528 H552 0.950 . S
C529 C546 1.574 . S
C529 C548 1.368 . S
C529 H553 0.949 . S
H530 C534 0.949 . S
C531 C532 1.349 . S
C531 C533 1.327 . S
C531 H554 0.950 . S
C532 C531 1.349 . S
C532 C544 1.349 . S
C533 C531 1.327 . S
C533 C549 1.429 . S
C533 H555 0.950 . S
C534 H530 0.949 . S
C534 C542 1.574 . S
C534 C550 1.368 . S
H535 C543 0.950 . S
H536 C541 0.950 . S
H537 C542 0.949 . S
H538 C544 0.950 . S
H539 C545 0.950 . S
H540 C546 0.949 . S
C541 H536 0.950 . S
C541 C543 1.327 . S
C541 C547 1.429 . S
C542 C534 1.574 . S
C542 H537 0.949 . S
C542 C548 1.368 . S
C543 C527 1.349 . S
C543 H535 0.950 . S
C543 C541 1.327 . S
C544 C532 1.349 . S
C544 H538 0.950 . S
C544 C545 1.327 . S
C545 H539 0.950 . S
C545 C544 1.327 . S
C545 C549 1.429 . S
C546 C529 1.574 . S
C546 H540 0.949 . S
C546 C550 1.368 . S
C547 C528 1.429 . S
C547 C541 1.429 . S
C547 C548 1.523 . S
C548 C529 1.368 . S
C548 C542 1.368 . S
C548 C547 1.523 . S
C549 C533 1.429 . S
C549 C545 1.429 . S
C549 C550 1.523 . S
C550 C534 1.368 . S
C550 C546 1.368 . S
C550 C549 1.523 . S
H551 C526 0.950 . S
H552 C528 0.950 . S
H553 C529 0.949 . S
H554 C531 0.950 . S
H555 C533 0.950 . S
C202 C181 1.344 . S
C197 C29 1.377 . S
C227 C8 1.379 . S
C232 C149 1.338 . S
C257 C0 1.370 . S
C262 C187 1.334 . S
C287 C17 1.372 . S
C292 C155 1.332 . S
C317 C63 1.377 . S
C322 C117 1.344 . S
C347 C42 1.374 . S
C352 C85 1.338 . S
C382 C123 1.334 . S
C377 C34 1.370 . S
C412 C91 1.332 . S
C407 C51 1.373 . S
C437 C4 1.484 . S
C442 C97 1.451 1_655 S
C467 C13 1.481 . S
C472 C129 1.452 1_545 S
C502 C161 1.450 . S
C497 C38 1.484 . S
C527 C47 1.481 . S
C532 C193 1.454 . S
