# Generated by pormake.
# Topology anh, (6,3)-cn, num edge types: 1
# Building blocks:
#     Node 0, Type 0, BuildingBlock: BETGAK_clean_sbu_0, # of connection points: 6
#     Node 1, Type 0, BuildingBlock: BETGAK_clean_sbu_0, # of connection points: 6
#     Node 2, Type 0, BuildingBlock: BETGAK_clean_sbu_0, # of connection points: 6
#     Node 3, Type 1, BuildingBlock: MIDCAF_clean_linker_0, # of connection points: 3
#     Node 4, Type 1, BuildingBlock: MIDCAF_clean_linker_0, # of connection points: 3
#     Node 5, Type 1, BuildingBlock: MIDCAF_clean_linker_0, # of connection points: 3
#     Node 6, Type 1, BuildingBlock: MIDCAF_clean_linker_0, # of connection points: 3
#     Node 7, Type 1, BuildingBlock: MIDCAF_clean_linker_0, # of connection points: 3
#     Node 8, Type 1, BuildingBlock: MIDCAF_clean_linker_0, # of connection points: 3
#     Edge 9, Type (0, 1), BuildingBlock: OJICUG_clean_linker_0, # of connection points: 2
#     Edge 10, Type (0, 1), BuildingBlock: OJICUG_clean_linker_0, # of connection points: 2
#     Edge 11, Type (0, 1), BuildingBlock: OJICUG_clean_linker_0, # of connection points: 2
#     Edge 12, Type (0, 1), BuildingBlock: OJICUG_clean_linker_0, # of connection points: 2
#     Edge 13, Type (0, 1), BuildingBlock: OJICUG_clean_linker_0, # of connection points: 2
#     Edge 14, Type (0, 1), BuildingBlock: OJICUG_clean_linker_0, # of connection points: 2
#     Edge 15, Type (0, 1), BuildingBlock: OJICUG_clean_linker_0, # of connection points: 2
#     Edge 16, Type (0, 1), BuildingBlock: OJICUG_clean_linker_0, # of connection points: 2
#     Edge 17, Type (0, 1), BuildingBlock: OJICUG_clean_linker_0, # of connection points: 2
#     Edge 18, Type (0, 1), BuildingBlock: OJICUG_clean_linker_0, # of connection points: 2
#     Edge 19, Type (0, 1), BuildingBlock: OJICUG_clean_linker_0, # of connection points: 2
#     Edge 20, Type (0, 1), BuildingBlock: OJICUG_clean_linker_0, # of connection points: 2
#     Edge 21, Type (0, 1), BuildingBlock: OJICUG_clean_linker_0, # of connection points: 2
#     Edge 22, Type (0, 1), BuildingBlock: OJICUG_clean_linker_0, # of connection points: 2
#     Edge 23, Type (0, 1), BuildingBlock: OJICUG_clean_linker_0, # of connection points: 2
#     Edge 24, Type (0, 1), BuildingBlock: OJICUG_clean_linker_0, # of connection points: 2
#     Edge 25, Type (0, 1), BuildingBlock: OJICUG_clean_linker_0, # of connection points: 2
#     Edge 26, Type (0, 1), BuildingBlock: OJICUG_clean_linker_0, # of connection points: 2
# Relax obj value: 0.218
# Max RMSD: 0.224
# Mean RMSD: 0.165
data_MOF--net-anh--node1-BETGAK_clean_sbu_0--node2-MIDCAF_clean_linker_0--edge1-OJICUG_clean_linker_0
_symmetry_space_group_name_H-M    P1
_symmetry_Int_Tables_number       1
_symmetry_cell_setting            triclinic
loop_
_symmetry_equiv_pos_as_xyz
'x, y, z'
_cell_length_a     28.070799
_cell_length_b     35.070607
_cell_length_c     52.049254
_cell_angle_alpha  92.048025
_cell_angle_beta   89.689484
_cell_angle_gamma 130.08235
loop_
_atom_site_label
_atom_site_type_symbol
_atom_site_fract_x
_atom_site_fract_y
_atom_site_fract_z
_atom_type_partial_charge
La0 La 0.15134 0.52694 0.14147 0.0
La1 La 1.07539 0.55297 0.16136 0.0
C2 C 0.22961 0.52757 0.11777 0.0
C3 C 0.29471 0.55405 0.12507 0.0
C4 C 0.31431 0.56925 0.15092 0.0
C5 C 0.37294 0.58685 0.15892 0.0
C6 C 0.41312 0.5906 0.14103 0.0
C7 C 0.39553 0.57974 0.1148 0.0
C8 C 0.33634 0.5612 0.10688 0.0
C9 C 0.14272 0.52659 0.19178 0.0
C10 C 0.2141 0.6423 0.15401 0.0
C11 C 0.9946 0.54694 0.18658 0.0
C12 C 0.92918 0.50178 0.189 0.0
C13 C 0.89936 0.46636 0.16841 0.0
C14 C 0.83936 0.42146 0.1708 0.0
C15 C 0.8073 0.41072 0.19384 0.0
C16 C 0.83722 0.44602 0.21462 0.0
C17 C 0.89811 0.49115 0.21227 0.0
C18 C 1.08632 0.55365 0.11098 0.0
C19 C 1.01362 0.43864 0.14963 0.0
O20 O 0.18915 0.49257 0.13327 0.0
O21 O 0.21623 0.55574 0.11186 0.0
O22 O 0.14868 0.49809 0.17853 0.0
O23 O 0.14804 0.55685 0.17724 0.0
O24 O 0.21696 0.60945 0.14241 0.0
O25 O 0.16354 0.62808 0.16593 0.0
O26 O 1.0109 0.56466 0.16353 0.0
O27 O 1.03488 0.54466 0.19707 0.0
O28 O 1.08264 0.5838 0.12407 0.0
O29 O 1.07902 0.52283 0.12572 0.0
O30 O 1.01463 0.47138 0.16363 0.0
O31 O 1.06031 0.45375 0.13448 0.0
H32 H 0.28286 0.56471 0.16517 0.0
H33 H 0.38545 0.59465 0.17922 0.0
H34 H 0.42553 0.58165 0.10073 0.0
H35 H 0.32203 0.55006 0.08685 0.0
H36 H 0.92253 0.47325 0.15033 0.0
H37 H 0.81729 0.39587 0.15416 0.0
H38 H 0.8133 0.43893 0.23249 0.0
H39 H 0.92084 0.51765 0.22853 0.0
La40 La 0.68831 0.04427 0.47373 0.0
La41 La 0.60209 0.06449 0.46327 0.0
C42 C 0.74346 0.01506 0.49095 0.0
C43 C 0.73106 0.96855 0.49632 0.0
C44 C 0.78021 0.96772 0.49487 0.0
C45 C 0.77091 0.92488 0.50078 0.0
C46 C 0.7121 0.88192 0.50821 0.0
C47 C 0.66237 0.88242 0.50903 0.0
C48 C 0.67185 0.92553 0.50323 0.0
C49 C 0.67994 0.05938 0.42541 0.0
C50 C 0.54245 0.95355 0.46402 0.0
C51 C 0.55418 0.10009 0.44696 0.0
C52 C 0.56807 0.14715 0.4546 0.0
C53 C 0.60468 0.17404 0.47679 0.0
C54 C 0.61742 0.21823 0.48474 0.0
C55 C 0.59414 0.2368 0.47059 0.0
C56 C 0.55793 0.20995 0.44814 0.0
C57 C 0.54503 0.16542 0.4402 0.0
C58 C 0.61196 0.05202 0.51192 0.0
C59 C 0.7492 0.15583 0.4725 0.0
O60 O 0.74252 0.02323 0.46674 0.0
O61 O 0.71611 0.02691 0.50544 0.0
O62 O 0.73063 0.07382 0.43653 0.0
O63 O 0.63562 0.03492 0.44072 0.0
O64 O 0.59542 0.96981 0.47507 0.0
O65 O 0.53753 0.98482 0.45363 0.0
O66 O 0.52993 0.06751 0.46492 0.0
O67 O 0.599 0.10473 0.43528 0.0
O68 O 0.56202 0.03957 0.50121 0.0
O69 O 0.65533 0.07464 0.49613 0.0
O70 O 0.69428 0.13987 0.46414 0.0
O71 O 0.75668 0.12456 0.48042 0.0
H72 H 0.82613 1.00052 0.48944 0.0
H73 H 0.80989 0.92543 0.49963 0.0
H74 H 0.61667 0.85004 0.5149 0.0
H75 H 0.63336 0.92554 0.50454 0.0
H76 H 0.6228 0.16046 0.4882 0.0
H77 H 0.64434 0.23717 0.50237 0.0
H78 H 0.53976 0.22339 0.43667 0.0
H79 H 0.51692 0.1452 0.42295 0.0
La80 La 0.66177 0.57292 0.84139 0.0
La81 La 0.5734 0.46225 0.84625 0.0
C82 C 0.71898 0.66111 0.82818 0.0
C83 C 0.70468 0.69319 0.82155 0.0
C84 C 0.75181 0.74503 0.82394 0.0
C85 C 0.74002 0.77651 0.81722 0.0
C86 C 0.68066 0.75664 0.80804 0.0
C87 C 0.63319 0.70446 0.80601 0.0
C88 C 0.64515 0.67299 0.81267 0.0
C89 C 0.65095 0.54172 0.8878 0.0
C90 C 0.51468 0.51365 0.84807 0.0
C91 C 0.52303 0.37509 0.85885 0.0
C92 C 0.53807 0.34314 0.85152 0.0
C93 C 0.57706 0.35558 0.83073 0.0
C94 C 0.59235 0.32599 0.82364 0.0
C95 C 0.56925 0.2834 0.83728 0.0
C96 C 0.53042 0.27122 0.85827 0.0
C97 C 0.51504 0.30099 0.86536 0.0
C98 C 0.58709 0.49176 0.79896 0.0
C99 C 0.72201 0.52232 0.84129 0.0
O100 O 0.71056 0.64827 0.85211 0.0
O101 O 0.69863 0.62375 0.81199 0.0
O102 O 0.70269 0.58081 0.87887 0.0
O103 O 0.60758 0.52365 0.87155 0.0
O104 O 0.56875 0.55313 0.83902 0.0
O105 O 0.50865 0.47524 0.85611 0.0
O106 O 0.50224 0.38509 0.84009 0.0
O107 O 0.56569 0.41504 0.87294 0.0
O108 O 0.53604 0.45174 0.80757 0.0
O109 O 0.62922 0.51123 0.816 0.0
O110 O 0.6655 0.48051 0.84663 0.0
O111 O 0.73098 0.5632 0.83591 0.0
H112 H 0.79807 0.76122 0.83072 0.0
H113 H 0.7779 0.81644 0.81864 0.0
H114 H 0.5868 0.68793 0.79928 0.0
H115 H 0.60816 0.63299 0.81068 0.0
H116 H 0.5954 0.3881 0.81983 0.0
H117 H 0.62134 0.33604 0.80709 0.0
H118 H 0.51232 0.23894 0.86931 0.0
H119 H 0.4853 0.29116 0.88161 0.0
C120 C 0.44663 0.88981 0.15591 0.0
C121 C 0.43716 0.84911 0.16654 0.0
C122 C 0.48103 0.85838 0.18449 0.0
C123 C 0.53152 0.90715 0.19266 0.0
H124 H 0.65592 0.15512 0.18544 0.0
H125 H 0.7357 0.23898 0.17014 0.0
H126 H 0.85516 0.20372 0.1544 0.0
H127 H 0.77371 0.11906 0.16882 0.0
H128 H 0.72169 0.13162 0.26353 0.0
H129 H 0.73106 0.13771 0.31036 0.0
H130 H 0.57282 0.98062 0.31342 0.0
H131 H 0.56275 0.9744 0.2668 0.0
H132 H 0.50355 0.96965 0.15588 0.0
H133 H 0.41346 0.88358 0.14199 0.0
H134 H 0.47467 0.82777 0.19314 0.0
H135 H 0.56306 0.91304 0.20739 0.0
N136 N 0.62428 0.03956 0.1804 0.0
N137 N 0.67247 0.08922 0.21854 0.0
N138 N 0.59422 1.00289 0.22065 0.0
C139 C 0.66708 0.08519 0.19247 0.0
C140 C 0.63607 0.04818 0.2328 0.0
C141 C 0.58779 0.99815 0.19463 0.0
C142 C 0.70869 0.13081 0.17796 0.0
C143 C 0.69849 0.16499 0.17788 0.0
C144 C 0.7446 0.21318 0.16944 0.0
C145 C 0.80253 0.22861 0.16145 0.0
C146 C 0.81111 0.19319 0.1602 0.0
C147 C 0.76455 0.1447 0.16842 0.0
C148 C 0.64159 0.05248 0.2613 0.0
C149 C 0.6887 0.09838 0.27416 0.0
C150 C 0.69426 0.10188 0.301 0.0
C151 C 0.65263 0.05967 0.31559 0.0
C152 C 0.60511 1.01398 0.30276 0.0
C153 C 0.59971 1.01039 0.27597 0.0
C154 C 0.54014 0.94783 0.18265 0.0
C155 C 0.49827 0.9389 0.16367 0.0
C156 C 0.65161 0.41439 0.54506 0.0
C157 C 0.63076 0.40478 0.51935 0.0
C158 C 0.615 0.43202 0.50911 0.0
C159 C 0.62038 0.46845 0.52437 0.0
H160 H 0.63946 0.60017 0.52252 0.0
H161 H 0.6527 0.67079 0.50576 0.0
H162 H 0.702 0.73998 0.58209 0.0
H163 H 0.68929 0.67028 0.59883 0.0
H164 H 0.68546 0.61582 0.64664 0.0
H165 H 0.67348 0.60524 0.69307 0.0
H166 H 0.58584 0.44996 0.6811 0.0
H167 H 0.59824 0.46031 0.63479 0.0
H168 H 0.67177 0.45609 0.58019 0.0
H169 H 0.66342 0.39356 0.55354 0.0
H170 H 0.59887 0.4253 0.48931 0.0
H171 H 0.60784 0.48887 0.51604 0.0
N172 N 0.65036 0.55263 0.55689 0.0
N173 N 0.65393 0.58264 0.59852 0.0
N174 N 0.64222 0.5105 0.59295 0.0
C175 C 0.65558 0.58709 0.57263 0.0
C176 C 0.64691 0.54437 0.60882 0.0
C177 C 0.64416 0.51441 0.56702 0.0
C178 C 0.6634 0.62949 0.56202 0.0
C179 C 0.65325 0.6305 0.5357 0.0
C180 C 0.66043 0.67074 0.52612 0.0
C181 C 0.67864 0.71095 0.54261 0.0
C182 C 0.68867 0.70983 0.56886 0.0
C183 C 0.68098 0.6696 0.57846 0.0
C184 C 0.64257 0.53884 0.637 0.0
C185 C 0.6639 0.57947 0.65391 0.0
C186 C 0.65738 0.57356 0.68047 0.0
C187 C 0.62845 0.52676 0.69056 0.0
C188 C 0.60783 0.48634 0.67373 0.0
C189 C 0.61526 0.49238 0.64725 0.0
C190 C 0.64031 0.47742 0.55026 0.0
C191 C 0.65593 0.45 0.56038 0.0
C192 C 0.93584 0.48913 0.84397 0.0
C193 C 0.93819 0.53022 0.84927 0.0
C194 C 0.99438 0.57417 0.85995 0.0
C195 C 1.04455 0.57613 0.86638 0.0
H196 H 0.23429 0.55742 0.83737 0.0
H197 H 0.31721 0.55377 0.82698 0.0
H198 H 0.27585 0.47197 0.89533 0.0
H199 H 0.19395 0.47495 0.9052 0.0
H200 H 0.18562 0.52977 0.95568 0.0
H201 H 0.18023 0.53658 0.00221 0.0
H202 H 1.05058 0.56243 0.99202 0.0
H203 H 1.0566 0.55654 0.94562 0.0
H204 H 0.98134 0.45801 0.84753 0.0
H205 H 0.89406 0.45466 0.83553 0.0
H206 H 0.99864 0.60653 0.86484 0.0
H207 H 1.08498 0.60957 0.87621 0.0
N208 N 0.12415 0.52551 0.8661 0.0
N209 N 0.1608 0.52959 0.90767 0.0
N210 N 1.08611 0.53874 0.90287 0.0
C211 C 0.16249 0.52405 0.88175 0.0
C212 C 0.12316 0.53706 0.91839 0.0
C213 C 1.08546 0.53281 0.87695 0.0
C214 C 0.20668 0.51628 0.87209 0.0
C215 C 0.24209 0.53771 0.84979 0.0
C216 C 0.29037 0.53615 0.84406 0.0
C217 C 0.3041 0.51253 0.86026 0.0
C218 C 0.26701 0.4899 0.88201 0.0
C219 C 0.21969 0.49185 0.88779 0.0
C220 C 0.12144 0.54245 0.94677 0.0
C221 C 0.15616 0.53715 0.96331 0.0
C222 C 0.15283 0.54078 0.99002 0.0
C223 C 0.11488 0.54996 0.00086 0.0
C224 C 1.08086 0.55594 0.98434 0.0
C225 C 1.08404 0.55219 0.95767 0.0
C226 C 1.04125 0.53458 0.86214 0.0
C227 C 0.98656 0.49129 0.85032 0.0
C228 C 0.27484 0.71642 0.45978 0.0
C229 C 0.33652 0.74038 0.45256 0.0
C230 C 0.34878 0.7125 0.4387 0.0
C231 C 0.30034 0.6628 0.43107 0.0
H232 H 1.02774 0.4846 0.46572 0.0
H233 H 0.94357 0.40184 0.48237 0.0
H234 H 0.99493 0.33573 0.43022 0.0
H235 H 1.07716 0.41729 0.41346 0.0
H236 H 1.06606 0.46102 0.35341 0.0
H237 H 1.06364 0.45676 0.3066 0.0
H238 H 0.21596 0.61563 0.30616 0.0
H239 H 0.21796 0.6203 0.35294 0.0
H240 H 0.17885 0.64903 0.45728 0.0
H241 H 0.26402 0.7369 0.47056 0.0
H242 H 0.39549 0.72985 0.43256 0.0
H243 H 0.31082 0.64307 0.41923 0.0
N244 N 0.14559 0.54915 0.43809 0.0
N245 N 1.10263 0.50228 0.39892 0.0
N246 N 0.18673 0.58772 0.39861 0.0
C247 C 1.103 0.50446 0.42503 0.0
C248 C 0.14376 0.54376 0.38555 0.0
C249 C 0.18801 0.59088 0.42469 0.0
C250 C 1.05885 0.45722 0.43835 0.0
C251 C 1.02156 0.45239 0.45829 0.0
C252 C 0.97327 0.40512 0.46763 0.0
C253 C 0.96277 0.36234 0.45761 0.0
C254 C 1.00218 0.36792 0.43854 0.0
C255 C 1.04915 0.41464 0.42887 0.0
C256 C 0.14228 0.54101 0.35703 0.0
C257 C 1.09905 0.49513 0.34339 0.0
C258 C 1.0978 0.49259 0.31653 0.0
C259 C 0.13962 0.53584 0.30269 0.0
C260 C 0.18261 0.58173 0.31628 0.0
C261 C 0.18398 0.58429 0.34313 0.0
C262 C 0.23864 0.63938 0.43753 0.0
C263 C 0.22627 0.66611 0.45249 0.0
C264 C 0.64473 0.17425 0.76738 0.0
C265 C 0.61934 0.16015 0.79196 0.0
C266 C 0.60189 0.11582 0.80151 0.0
C267 C 0.60957 0.08608 0.78664 0.0
H268 H 0.63505 0.97949 0.79032 0.0
H269 H 0.63824 0.91754 0.80782 0.0
H270 H 0.66555 0.88255 0.7316 0.0
H271 H 0.66111 0.94334 0.71402 0.0
H272 H 0.685 1.01072 0.66683 0.0
H273 H 0.67999 1.01392 0.62006 0.0
H274 H 0.59974 0.0848 0.62973 0.0
H275 H 0.60529 0.08237 0.67628 0.0
H276 H 0.67051 0.15609 0.73342 0.0
H277 H 0.6579 0.20792 0.75941 0.0
H278 H 0.58232 0.10421 0.82044 0.0
H279 H 0.59527 0.05189 0.79436 0.0
N280 N 0.64063 0.0332 0.75535 0.0
N281 N 0.64815 1.00891 0.71391 0.0
N282 N 0.64102 0.0716 0.71926 0.0
C283 C 0.64561 1.00391 0.73979 0.0
C284 C 0.64562 0.04251 0.70351 0.0
C285 C 0.63875 0.0674 0.74515 0.0
C286 C 0.64775 0.96651 0.75072 0.0
C287 C 0.64162 0.95854 0.77727 0.0
C288 C 0.64368 0.92313 0.78734 0.0
C289 C 0.65188 0.89491 0.7711 0.0
C290 C 0.65802 0.90294 0.7446 0.0
C291 C 0.65591 0.93819 0.73454 0.0
C292 C 0.64537 0.04615 0.67528 0.0
C293 C 0.66659 0.02721 0.65898 0.0
C294 C 0.66407 0.02925 0.63226 0.0
C295 C 0.63922 0.04938 0.62142 0.0
C296 C 0.61867 0.06876 0.63767 0.0
C297 C 0.62216 0.06754 0.66432 0.0
C298 C 0.63368 0.09973 0.76178 0.0
C299 C 0.65148 0.14429 0.75242 0.0
C300 C 0.59632 0.29413 0.12505 0.0
C301 C 0.57656 0.29123 0.15043 0.0
C302 C 0.52981 0.29465 0.15445 0.0
C303 C 0.51555 0.31305 0.13532 0.0
H304 H 0.56689 0.45221 0.1522 0.0
H305 H 0.5568 0.50948 0.17381 0.0
H306 H 0.59558 0.58306 0.10221 0.0
H307 H 0.60908 0.52864 0.08152 0.0
H308 H 0.5355 0.35265 0.01923 0.0
H309 H 0.55298 0.37675 0.97421 0.0
H310 H 0.71071 0.52804 0.99856 0.0
H311 H 0.6937 0.50386 0.04286 0.0
H312 H 0.60438 0.32044 0.08757 0.0
H313 H 0.63111 0.29057 0.12078 0.0
H314 H 0.51126 0.29032 0.17342 0.0
H315 H 0.48652 0.32248 0.1401 0.0
N316 N 0.56193 0.40319 0.11142 0.0
N317 N 0.5994 0.45225 0.07552 0.0
N318 N 0.57396 0.37406 0.0725 0.0
C319 C 0.58308 0.4459 0.10044 0.0
C320 C 0.59484 0.41682 0.06142 0.0
C321 C 0.55723 0.36712 0.09765 0.0
C322 C 0.58664 0.48474 0.11492 0.0
C323 C 0.57455 0.48144 0.14133 0.0
C324 C 0.56879 0.51434 0.15371 0.0
C325 C 0.57361 0.55036 0.13974 0.0
C326 C 0.59175 0.55639 0.11394 0.0
C327 C 0.59852 0.52426 0.10178 0.0
C328 C 0.61306 0.42652 0.03437 0.0
C329 C 0.57507 0.39051 0.01468 0.0
C330 C 0.58469 0.40448 0.98904 0.0
C331 C 0.63284 0.45443 0.98286 0.0
C332 C 0.67358 0.48921 0.00253 0.0
C333 C 0.66366 0.47543 0.02797 0.0
C334 C 0.54629 0.32644 0.11176 0.0
C335 C 0.58117 0.31165 0.10579 0.0
C336 C 0.52405 0.62712 0.13869 0.0
C337 C 0.46551 0.59393 0.14976 0.0
H338 H 0.60847 0.642 0.12898 0.0
C339 C 0.45226 0.55533 0.16429 0.0
H340 H 0.53548 0.65767 0.12775 0.0
C341 C 0.49244 0.54487 0.16406 0.0
C342 C 0.54697 0.57344 0.14956 0.0
H343 H 0.40731 0.52932 0.17308 0.0
H344 H 0.47642 0.5108 0.17259 0.0
C345 C 0.56533 0.61765 0.13919 0.0
C346 C 0.86466 0.2265 0.47419 0.0
C347 C 0.80392 0.20992 0.47211 0.0
H348 H 0.96246 0.28777 0.47142 0.0
C349 C 0.79629 0.24516 0.46787 0.0
H350 H 0.87234 0.20048 0.47746 0.0
C351 C 0.84816 0.2954 0.46471 0.0
C352 C 0.90867 0.31132 0.46537 0.0
H353 H 0.75019 0.23374 0.4663 0.0
H354 H 0.84074 0.32126 0.46045 0.0
C355 C 0.91636 0.27652 0.47068 0.0
C356 C 0.69592 0.83548 0.8135 0.0
C357 C 0.66935 0.79039 0.79969 0.0
H358 H 0.71168 0.90391 0.81526 0.0
C359 C 0.63419 0.77882 0.77717 0.0
H360 H 0.72258 0.84524 0.83111 0.0
C361 C 0.62726 0.81215 0.76828 0.0
C362 C 0.65543 0.85793 0.78164 0.0
H363 H 0.6135 0.74464 0.76595 0.0
H364 H 0.60025 0.80223 0.75075 0.0
C365 C 0.68906 0.86887 0.80457 0.0
C366 C 0.71761 0.32206 0.18072 0.0
C367 C 0.74003 0.36668 0.19394 0.0
H368 H 0.6439 0.25953 0.15725 0.0
C369 C 0.69763 0.37358 0.20081 0.0
H370 H 0.74903 0.3151 0.17588 0.0
C371 C 0.63756 0.342 0.19004 0.0
C372 C 0.6195 0.30341 0.1721 0.0
H373 H 0.71312 0.40714 0.21136 0.0
H374 H 0.6096 0.35301 0.19281 0.0
C375 C 0.65733 0.29026 0.17001 0.0
C376 C 0.42926 0.88069 0.45443 0.0
C377 C 0.48878 0.89904 0.46237 0.0
H378 H 0.33439 0.81627 0.44542 0.0
C379 C 0.49669 0.86466 0.46853 0.0
H380 H 0.42137 0.90607 0.44965 0.0
C381 C 0.44687 0.81329 0.46613 0.0
C382 C 0.38767 0.79491 0.45771 0.0
H383 H 0.54173 0.87731 0.47471 0.0
H384 H 0.45485 0.78785 0.47061 0.0
C385 C 0.37921 0.82922 0.45225 0.0
C386 C 0.53831 0.19898 0.82819 0.0
C387 C 0.58428 0.2513 0.82885 0.0
H388 H 0.51355 0.12902 0.81604 0.0
C389 C 0.64376 0.27288 0.81966 0.0
H390 H 0.49189 0.18113 0.83492 0.0
C391 C 0.65584 0.24308 0.80865 0.0
C392 C 0.60898 0.19099 0.80683 0.0
H393 H 0.68071 0.31298 0.82044 0.0
H394 H 0.70154 0.26085 0.80104 0.0
C395 C 0.55063 0.1691 0.81736 0.0
C396 C 0.65124 0.78916 0.50806 0.0
C397 C 0.70378 0.83777 0.51619 0.0
H398 H 0.60232 0.71076 0.50985 0.0
C399 C 0.74849 0.84419 0.53244 0.0
H400 H 0.61625 0.78311 0.49539 0.0
C401 C 0.74059 0.80303 0.54063 0.0
C402 C 0.6879 0.75442 0.53272 0.0
H403 H 0.78916 0.88111 0.53925 0.0
H404 H 0.77579 0.80927 0.55324 0.0
C405 C 0.64357 0.74785 0.51612 0.0
C406 C 0.83743 0.56718 0.83678 0.0
C407 C 0.77664 0.5233 0.84171 0.0
H408 H 0.93461 0.60365 0.83458 0.0
C409 C 0.76921 0.48088 0.84787 0.0
H410 H 0.84555 0.60066 0.83185 0.0
C411 C 0.82082 0.48265 0.8496 0.0
C412 C 0.88196 0.52693 0.84529 0.0
H413 H 0.72345 0.44628 0.85183 0.0
H414 H 0.81276 0.44949 0.85516 0.0
C415 C 0.88897 0.56895 0.83852 0.0
C416 C 0.32969 0.70982 0.1511 0.0
C417 C 0.27073 0.69572 0.15522 0.0
H418 H 0.42858 0.76948 0.15149 0.0
C419 C 0.26683 0.73302 0.16128 0.0
H420 H 0.33438 0.68204 0.14644 0.0
C421 C 0.32083 0.78322 0.16371 0.0
C422 C 0.37982 0.79699 0.16058 0.0
H423 H 0.2221 0.72339 0.16442 0.0
H424 H 0.31661 0.81106 0.16904 0.0
C425 C 0.38366 0.75985 0.154 0.0
C426 C 0.6635 0.32255 0.49193 0.0
C427 C 0.60602 0.28292 0.48003 0.0
H428 H 0.71637 0.39221 0.51351 0.0
C429 C 0.5588 0.28637 0.47894 0.0
H430 H 0.70147 0.32183 0.49257 0.0
C431 C 0.56785 0.32726 0.49063 0.0
C432 C 0.62404 0.36523 0.5038 0.0
H433 H 0.5138 0.25642 0.47013 0.0
H434 H 0.52982 0.32795 0.49047 0.0
C435 C 0.67223 0.36302 0.50382 0.0
C436 C 0.40258 0.47129 0.85918 0.0
C437 C 0.4604 0.51308 0.85006 0.0
H438 H 0.30884 0.4376 0.86882 0.0
C439 C 0.46537 0.55409 0.84311 0.0
H440 H 0.3961 0.43869 0.86455 0.0
C441 C 0.41475 0.55358 0.84568 0.0
C442 C 0.35727 0.51211 0.85538 0.0
H443 H 0.50879 0.58708 0.83599 0.0
H444 H 0.42139 0.58642 0.84073 0.0
C445 C 0.35216 0.47079 0.86176 0.0
C446 C 0.95049 0.34807 0.13505 0.0
C447 C 0.95903 0.38481 0.15153 0.0
H448 H 0.89379 0.26991 0.12483 0.0
C449 C 0.91515 0.36968 0.1707 0.0
H450 H 0.98344 0.35844 0.1201 0.0
C451 C 0.86427 0.31936 0.17345 0.0
C452 C 0.85543 0.28237 0.1571 0.0
H453 H 0.92065 0.39667 0.1841 0.0
H454 H 0.83282 0.30944 0.189 0.0
C455 C 0.89919 0.29735 0.13781 0.0
C456 C 1.1003 0.58845 0.06779 0.0
C457 C 1.09484 0.55359 0.08297 0.0
H458 H 0.11171 0.6151 0.02997 0.0
C459 C 1.09735 0.5183 0.07116 0.0
H460 H 1.09882 0.61621 0.07645 0.0
C461 C 1.10465 0.51756 0.04461 0.0
C462 C 0.10943 0.55204 0.02926 0.0
H463 H 1.09327 0.49096 0.08242 0.0
H464 H 0.10523 0.48926 0.03604 0.0
C465 C 0.10741 0.58764 0.04118 0.0
C466 C 0.72563 0.08836 0.38211 0.0
C467 C 0.67312 0.06235 0.39768 0.0
H468 H 0.76029 0.10773 0.34394 0.0
C469 C 0.61409 0.03768 0.38635 0.0
H470 H 0.77171 0.1078 0.3904 0.0
C471 C 0.6075 0.03768 0.35974 0.0
C472 C 0.65989 0.0626 0.34401 0.0
H473 H 0.57288 0.01758 0.39798 0.0
H474 H 0.56135 0.0179 0.35145 0.0
C475 C 0.71911 0.08857 0.35554 0.0
C476 C 0.54846 0.4721 0.75353 0.0
C477 C 0.59777 0.50285 0.77147 0.0
H478 H 0.51982 0.45557 0.71383 0.0
C479 C 0.6572 0.54252 0.76274 0.0
H480 H 0.50215 0.44126 0.75973 0.0
C481 C 0.66711 0.55108 0.73643 0.0
C482 C 0.618 0.51948 0.71848 0.0
H483 H 0.69618 0.56637 0.77614 0.0
H484 H 0.71344 0.58152 0.73007 0.0
C485 C 0.55857 0.48012 0.72728 0.0
C486 C 0.56823 0.02937 0.55571 0.0
C487 C 0.61942 0.05015 0.53973 0.0
H488 H 0.53469 1.01308 0.59415 0.0
C489 C 0.67724 0.06987 0.55067 0.0
H490 H 0.52309 1.01385 0.54778 0.0
C491 C 0.68362 0.06873 0.57722 0.0
C492 C 0.63257 0.04881 0.59322 0.0
H493 H 0.71763 0.08673 0.5388 0.0
H494 H 0.72869 0.0845 0.58534 0.0
C495 C 0.57484 0.02902 0.58221 0.0
C496 C 0.58747 0.47898 0.92117 0.0
C497 C 0.64598 0.51721 0.91122 0.0
H498 H 0.53738 0.42879 0.95163 0.0
C499 C 0.69986 0.53167 0.92369 0.0
H500 H 0.54523 0.46712 0.91178 0.0
C501 C 0.69544 0.50921 0.94621 0.0
C502 C 0.63703 0.47218 0.95682 0.0
H503 H 0.7455 0.56059 0.91615 0.0
H504 H 0.73787 0.5216 0.95564 0.0
C505 C 0.583 0.45664 0.94378 0.0
C506 C 0.14644 0.56721 0.23302 0.0
C507 C 0.14067 0.52862 0.22001 0.0
H508 H 0.14992 0.59945 0.26942 0.0
C509 C 0.1337 0.49211 0.23421 0.0
H510 H 0.15201 0.59588 0.22247 0.0
C511 C 0.13283 0.49424 0.26103 0.0
C512 C 0.13908 0.53303 0.27416 0.0
H513 H 0.12922 0.46199 0.2246 0.0
H514 H 0.12842 0.46599 0.2715 0.0
C515 C 0.14569 0.56942 0.25986 0.0
loop_
_geom_bond_atom_site_label_1
_geom_bond_atom_site_label_2
_geom_bond_distance
_geom_bond_site_symmetry_2
_ccdc_geom_bond_type
La0 C2 2.928 . S
La0 O20 2.521 . S
La0 O21 2.628 . S
La0 O22 2.554 . S
La0 O23 2.757 . S
La0 O24 2.470 . S
La0 O29 2.482 . S
La0 O31 2.503 1_455 S
La1 C11 2.928 . S
La1 O23 2.482 1_655 S
La1 O25 2.503 1_655 S
La1 O26 2.521 . S
La1 O27 2.628 . S
La1 O28 2.554 . S
La1 O29 2.757 1_655 S
La1 O30 2.470 . S
C2 La0 2.928 . S
C2 C3 1.503 . S
C2 O20 1.261 . S
C2 O21 1.243 . S
C3 C2 1.503 . S
C3 C4 1.394 . S
C3 C8 1.373 . S
C4 C3 1.394 . S
C4 C5 1.380 . S
C4 H32 0.930 . S
C5 C4 1.380 . S
C5 C6 1.376 . S
C5 H33 0.930 . S
C6 C5 1.376 . S
C6 C7 1.370 . S
C7 C6 1.370 . S
C7 C8 1.396 . S
C7 H34 0.929 . S
C8 C3 1.373 . S
C8 C7 1.396 . S
C8 H35 0.929 . S
C9 O22 1.240 . S
C9 O23 1.289 . S
C10 O24 1.258 . S
C10 O25 1.256 . S
C11 La1 2.928 . S
C11 C12 1.503 . S
C11 O26 1.261 . S
C11 O27 1.243 . S
C12 C11 1.503 . S
C12 C13 1.394 . S
C12 C17 1.373 . S
C13 C12 1.394 . S
C13 C14 1.380 . S
C13 H36 0.930 . S
C14 C13 1.380 . S
C14 C15 1.376 . S
C14 H37 0.930 . S
C15 C14 1.376 . S
C15 C16 1.370 . S
C16 C15 1.370 . S
C16 C17 1.396 . S
C16 H38 0.929 . S
C17 C12 1.373 . S
C17 C16 1.396 . S
C17 H39 0.929 . S
C18 O28 1.240 1_455 S
C18 O29 1.289 . S
C19 O30 1.258 . S
C19 O31 1.256 . S
O20 La0 2.521 . S
O20 C2 1.261 . S
O21 La0 2.628 . S
O21 C2 1.243 . S
O22 La0 2.554 . S
O22 C9 1.240 . S
O23 La0 2.757 . S
O23 La1 2.482 1_455 S
O23 C9 1.289 . S
O24 La0 2.470 . S
O24 C10 1.258 . S
O25 La1 2.503 1_455 S
O25 C10 1.256 . S
O26 La1 2.521 . S
O26 C11 1.261 . S
O27 La1 2.628 . S
O27 C11 1.243 . S
O28 La1 2.554 . S
O28 C18 1.240 1_655 S
O29 La0 2.482 . S
O29 La1 2.757 1_455 S
O29 C18 1.289 . S
O30 La1 2.470 . S
O30 C19 1.258 . S
O31 La0 2.503 1_655 S
O31 C19 1.256 . S
H32 C4 0.930 . S
H33 C5 0.930 . S
H34 C7 0.929 . S
H35 C8 0.929 . S
H36 C13 0.930 . S
H37 C14 0.930 . S
H38 C16 0.929 . S
H39 C17 0.929 . S
La40 C42 2.928 . S
La40 O60 2.521 . S
La40 O61 2.628 . S
La40 O62 2.554 . S
La40 O63 2.757 1_565 S
La40 O64 2.470 . S
La40 O69 2.482 . S
La40 O71 2.503 1_565 S
La41 C51 2.928 . S
La41 O63 2.482 . S
La41 O65 2.503 1_545 S
La41 O66 2.521 . S
La41 O67 2.628 . S
La41 O68 2.554 . S
La41 O69 2.757 1_545 S
La41 O70 2.470 . S
C42 La40 2.928 . S
C42 C43 1.503 . S
C42 O60 1.261 . S
C42 O61 1.243 . S
C43 C42 1.503 . S
C43 C44 1.394 . S
C43 C48 1.373 . S
C44 C43 1.394 . S
C44 C45 1.380 . S
C44 H72 0.930 . S
C45 C44 1.380 . S
C45 C46 1.376 . S
C45 H73 0.930 . S
C46 C45 1.376 . S
C46 C47 1.370 . S
C47 C46 1.370 . S
C47 C48 1.396 . S
C47 H74 0.929 . S
C48 C43 1.373 . S
C48 C47 1.396 . S
C48 H75 0.929 . S
C49 O62 1.240 1_545 S
C49 O63 1.289 . S
C50 O64 1.258 . S
C50 O65 1.256 . S
C51 La41 2.928 . S
C51 C52 1.503 . S
C51 O66 1.261 . S
C51 O67 1.243 . S
C52 C51 1.503 . S
C52 C53 1.394 . S
C52 C57 1.373 . S
C53 C52 1.394 . S
C53 C54 1.380 . S
C53 H76 0.930 . S
C54 C53 1.380 . S
C54 C55 1.376 . S
C54 H77 0.930 . S
C55 C54 1.376 . S
C55 C56 1.370 . S
C56 C55 1.370 . S
C56 C57 1.396 . S
C56 H78 0.929 . S
C57 C52 1.373 . S
C57 C56 1.396 . S
C57 H79 0.929 . S
C58 O68 1.240 . S
C58 O69 1.289 1_545 S
C59 O70 1.258 . S
C59 O71 1.256 . S
O60 La40 2.521 . S
O60 C42 1.261 . S
O61 La40 2.628 . S
O61 C42 1.243 . S
O62 La40 2.554 . S
O62 C49 1.240 1_565 S
O63 La40 2.757 1_545 S
O63 La41 2.482 . S
O63 C49 1.289 . S
O64 La40 2.470 . S
O64 C50 1.258 . S
O65 La41 2.503 1_565 S
O65 C50 1.256 . S
O66 La41 2.521 . S
O66 C51 1.261 . S
O67 La41 2.628 . S
O67 C51 1.243 . S
O68 La41 2.554 . S
O68 C58 1.240 . S
O69 La40 2.482 . S
O69 La41 2.757 1_565 S
O69 C58 1.289 1_565 S
O70 La41 2.470 . S
O70 C59 1.258 . S
O71 La40 2.503 1_545 S
O71 C59 1.256 . S
H72 C44 0.930 . S
H73 C45 0.930 . S
H74 C47 0.929 . S
H75 C48 0.929 . S
H76 C53 0.930 . S
H77 C54 0.930 . S
H78 C56 0.929 . S
H79 C57 0.929 . S
La80 C82 2.928 . S
La80 O100 2.521 . S
La80 O101 2.628 . S
La80 O102 2.554 . S
La80 O103 2.757 . S
La80 O104 2.470 . S
La80 O109 2.482 . S
La80 O111 2.503 . S
La81 C91 2.928 . S
La81 O103 2.482 . S
La81 O105 2.503 . S
La81 O106 2.521 . S
La81 O107 2.628 . S
La81 O108 2.554 . S
La81 O109 2.757 . S
La81 O110 2.470 . S
C82 La80 2.928 . S
C82 C83 1.503 . S
C82 O100 1.261 . S
C82 O101 1.243 . S
C83 C82 1.503 . S
C83 C84 1.394 . S
C83 C88 1.373 . S
C84 C83 1.394 . S
C84 C85 1.380 . S
C84 H112 0.930 . S
C85 C84 1.380 . S
C85 C86 1.376 . S
C85 H113 0.930 . S
C86 C85 1.376 . S
C86 C87 1.370 . S
C87 C86 1.370 . S
C87 C88 1.396 . S
C87 H114 0.929 . S
C88 C83 1.373 . S
C88 C87 1.396 . S
C88 H115 0.929 . S
C89 O102 1.240 . S
C89 O103 1.289 . S
C90 O104 1.258 . S
C90 O105 1.256 . S
C91 La81 2.928 . S
C91 C92 1.503 . S
C91 O106 1.261 . S
C91 O107 1.243 . S
C92 C91 1.503 . S
C92 C93 1.394 . S
C92 C97 1.373 . S
C93 C92 1.394 . S
C93 C94 1.380 . S
C93 H116 0.930 . S
C94 C93 1.380 . S
C94 C95 1.376 . S
C94 H117 0.930 . S
C95 C94 1.376 . S
C95 C96 1.370 . S
C96 C95 1.370 . S
C96 C97 1.396 . S
C96 H118 0.929 . S
C97 C92 1.373 . S
C97 C96 1.396 . S
C97 H119 0.929 . S
C98 O108 1.240 . S
C98 O109 1.289 . S
C99 O110 1.258 . S
C99 O111 1.256 . S
O100 La80 2.521 . S
O100 C82 1.261 . S
O101 La80 2.628 . S
O101 C82 1.243 . S
O102 La80 2.554 . S
O102 C89 1.240 . S
O103 La80 2.757 . S
O103 La81 2.482 . S
O103 C89 1.289 . S
O104 La80 2.470 . S
O104 C90 1.258 . S
O105 La81 2.503 . S
O105 C90 1.256 . S
O106 La81 2.521 . S
O106 C91 1.261 . S
O107 La81 2.628 . S
O107 C91 1.243 . S
O108 La81 2.554 . S
O108 C98 1.240 . S
O109 La80 2.482 . S
O109 La81 2.757 . S
O109 C98 1.289 . S
O110 La81 2.470 . S
O110 C99 1.258 . S
O111 La80 2.503 . S
O111 C99 1.256 . S
H112 C84 0.930 . S
H113 C85 0.930 . S
H114 C87 0.929 . S
H115 C88 0.929 . S
H116 C93 0.930 . S
H117 C94 0.930 . S
H118 C96 0.929 . S
H119 C97 0.929 . S
C120 C121 1.384 . S
C120 H133 0.947 . S
C120 C155 1.382 . S
C121 C120 1.384 . S
C121 C122 1.378 . S
C122 C121 1.378 . S
C122 C123 1.378 . S
C122 H134 0.952 . S
C123 C122 1.378 . S
C123 H135 0.950 . S
C123 C154 1.383 . S
H124 C143 0.947 . S
H125 C144 0.946 . S
H126 C146 0.953 . S
H127 C147 0.945 . S
H128 C149 0.952 . S
H129 C150 0.949 . S
H130 C152 0.950 . S
H131 C153 0.948 . S
H132 C155 0.951 . S
H133 C120 0.947 . S
H134 C122 0.952 . S
H135 C123 0.950 . S
N136 C139 1.382 . S
N136 C141 1.363 1_545 S
N137 C139 1.371 . S
N137 C140 1.372 . S
N138 C140 1.361 1_565 S
N138 C141 1.377 . S
C139 N136 1.382 . S
C139 N137 1.371 . S
C139 C142 1.480 . S
C140 N137 1.372 . S
C140 N138 1.361 1_545 S
C140 C148 1.457 . S
C141 N136 1.363 1_565 S
C141 N138 1.377 . S
C141 C154 1.479 . S
C142 C139 1.480 . S
C142 C143 1.383 . S
C142 C147 1.385 . S
C143 H124 0.947 . S
C143 C142 1.383 . S
C143 C144 1.388 . S
C144 H125 0.946 . S
C144 C143 1.388 . S
C144 C145 1.384 . S
C145 C144 1.384 . S
C145 C146 1.377 . S
C146 H126 0.953 . S
C146 C145 1.377 . S
C146 C147 1.369 . S
C147 H127 0.945 . S
C147 C142 1.385 . S
C147 C146 1.369 . S
C148 C140 1.457 . S
C148 C149 1.372 . S
C148 C153 1.364 1_545 S
C149 H128 0.952 . S
C149 C148 1.372 . S
C149 C150 1.389 . S
C150 H129 0.949 . S
C150 C149 1.389 . S
C150 C151 1.387 . S
C151 C150 1.387 . S
C151 C152 1.372 1_545 S
C152 H130 0.950 . S
C152 C151 1.372 1_565 S
C152 C153 1.379 . S
C153 H131 0.948 . S
C153 C148 1.364 1_565 S
C153 C152 1.379 . S
C154 C123 1.383 . S
C154 C141 1.479 . S
C154 C155 1.398 . S
C155 C120 1.382 . S
C155 H132 0.951 . S
C155 C154 1.398 . S
C156 C157 1.384 . S
C156 H169 0.947 . S
C156 C191 1.382 . S
C157 C156 1.384 . S
C157 C158 1.378 . S
C158 C157 1.378 . S
C158 C159 1.378 . S
C158 H170 0.952 . S
C159 C158 1.378 . S
C159 H171 0.950 . S
C159 C190 1.383 . S
H160 C179 0.947 . S
H161 C180 0.946 . S
H162 C182 0.953 . S
H163 C183 0.945 . S
H164 C185 0.952 . S
H165 C186 0.949 . S
H166 C188 0.950 . S
H167 C189 0.948 . S
H168 C191 0.951 . S
H169 C156 0.947 . S
H170 C158 0.952 . S
H171 C159 0.950 . S
N172 C175 1.382 . S
N172 C177 1.363 . S
N173 C175 1.371 . S
N173 C176 1.372 . S
N174 C176 1.361 . S
N174 C177 1.377 . S
C175 N172 1.382 . S
C175 N173 1.371 . S
C175 C178 1.480 . S
C176 N173 1.372 . S
C176 N174 1.361 . S
C176 C184 1.457 . S
C177 N172 1.363 . S
C177 N174 1.377 . S
C177 C190 1.479 . S
C178 C175 1.480 . S
C178 C179 1.383 . S
C178 C183 1.385 . S
C179 H160 0.947 . S
C179 C178 1.383 . S
C179 C180 1.388 . S
C180 H161 0.946 . S
C180 C179 1.388 . S
C180 C181 1.384 . S
C181 C180 1.384 . S
C181 C182 1.377 . S
C182 H162 0.953 . S
C182 C181 1.377 . S
C182 C183 1.369 . S
C183 H163 0.945 . S
C183 C178 1.385 . S
C183 C182 1.369 . S
C184 C176 1.457 . S
C184 C185 1.372 . S
C184 C189 1.364 . S
C185 H164 0.952 . S
C185 C184 1.372 . S
C185 C186 1.389 . S
C186 H165 0.949 . S
C186 C185 1.389 . S
C186 C187 1.387 . S
C187 C186 1.387 . S
C187 C188 1.372 . S
C188 H166 0.950 . S
C188 C187 1.372 . S
C188 C189 1.379 . S
C189 H167 0.948 . S
C189 C184 1.364 . S
C189 C188 1.379 . S
C190 C159 1.383 . S
C190 C177 1.479 . S
C190 C191 1.398 . S
C191 C156 1.382 . S
C191 H168 0.951 . S
C191 C190 1.398 . S
C192 C193 1.384 . S
C192 H205 0.947 . S
C192 C227 1.382 . S
C193 C192 1.384 . S
C193 C194 1.378 . S
C194 C193 1.378 . S
C194 C195 1.378 . S
C194 H206 0.952 . S
C195 C194 1.378 . S
C195 H207 0.950 . S
C195 C226 1.383 . S
H196 C215 0.947 . S
H197 C216 0.946 . S
H198 C218 0.953 . S
H199 C219 0.945 . S
H200 C221 0.952 . S
H201 C222 0.949 . S
H202 C224 0.950 . S
H203 C225 0.948 . S
H204 C227 0.951 . S
H205 C192 0.947 . S
H206 C194 0.952 . S
H207 C195 0.950 . S
N208 C211 1.382 . S
N208 C213 1.363 . S
N209 C211 1.371 . S
N209 C212 1.372 . S
N210 C212 1.361 . S
N210 C213 1.377 . S
C211 N208 1.382 . S
C211 N209 1.371 . S
C211 C214 1.480 . S
C212 N209 1.372 . S
C212 N210 1.361 . S
C212 C220 1.457 . S
C213 N208 1.363 . S
C213 N210 1.377 . S
C213 C226 1.479 1_455 S
C214 C211 1.480 . S
C214 C215 1.383 . S
C214 C219 1.385 . S
C215 H196 0.947 . S
C215 C214 1.383 . S
C215 C216 1.388 . S
C216 H197 0.946 . S
C216 C215 1.388 . S
C216 C217 1.384 . S
C217 C216 1.384 . S
C217 C218 1.377 . S
C218 H198 0.953 . S
C218 C217 1.377 . S
C218 C219 1.369 . S
C219 H199 0.945 . S
C219 C214 1.385 . S
C219 C218 1.369 . S
C220 C212 1.457 . S
C220 C221 1.372 . S
C220 C225 1.364 1_455 S
C221 H200 0.952 . S
C221 C220 1.372 . S
C221 C222 1.389 . S
C222 H201 0.949 . S
C222 C221 1.389 . S
C222 C223 1.387 . S
C223 C222 1.387 . S
C223 C224 1.372 1_455 S
C224 H202 0.950 . S
C224 C223 1.372 1_655 S
C224 C225 1.379 . S
C225 H203 0.948 . S
C225 C220 1.364 1_655 S
C225 C224 1.379 . S
C226 C195 1.383 . S
C226 C213 1.479 1_655 S
C226 C227 1.398 . S
C227 C192 1.382 . S
C227 H204 0.951 . S
C227 C226 1.398 . S
C228 C229 1.384 . S
C228 H241 0.947 . S
C228 C263 1.382 . S
C229 C228 1.384 . S
C229 C230 1.378 . S
C230 C229 1.378 . S
C230 C231 1.378 . S
C230 H242 0.952 . S
C231 C230 1.378 . S
C231 H243 0.950 . S
C231 C262 1.383 . S
H232 C251 0.947 . S
H233 C252 0.946 . S
H234 C254 0.953 . S
H235 C255 0.945 . S
H236 C257 0.952 . S
H237 C258 0.949 . S
H238 C260 0.950 . S
H239 C261 0.948 . S
H240 C263 0.951 . S
H241 C228 0.947 . S
H242 C230 0.952 . S
H243 C231 0.950 . S
N244 C247 1.382 1_455 S
N244 C249 1.363 . S
N245 C247 1.371 . S
N245 C248 1.372 1_655 S
N246 C248 1.361 . S
N246 C249 1.377 . S
C247 N244 1.382 1_655 S
C247 N245 1.371 . S
C247 C250 1.480 . S
C248 N245 1.372 1_455 S
C248 N246 1.361 . S
C248 C256 1.457 . S
C249 N244 1.363 . S
C249 N246 1.377 . S
C249 C262 1.479 . S
C250 C247 1.480 . S
C250 C251 1.383 . S
C250 C255 1.385 . S
C251 H232 0.947 . S
C251 C250 1.383 . S
C251 C252 1.388 . S
C252 H233 0.946 . S
C252 C251 1.388 . S
C252 C253 1.384 . S
C253 C252 1.384 . S
C253 C254 1.377 . S
C254 H234 0.953 . S
C254 C253 1.377 . S
C254 C255 1.369 . S
C255 H235 0.945 . S
C255 C250 1.385 . S
C255 C254 1.369 . S
C256 C248 1.457 . S
C256 C257 1.372 1_455 S
C256 C261 1.364 . S
C257 H236 0.952 . S
C257 C256 1.372 1_655 S
C257 C258 1.389 . S
C258 H237 0.949 . S
C258 C257 1.389 . S
C258 C259 1.387 1_655 S
C259 C258 1.387 1_455 S
C259 C260 1.372 . S
C260 H238 0.950 . S
C260 C259 1.372 . S
C260 C261 1.379 . S
C261 H239 0.948 . S
C261 C256 1.364 . S
C261 C260 1.379 . S
C262 C231 1.383 . S
C262 C249 1.479 . S
C262 C263 1.398 . S
C263 C228 1.382 . S
C263 H240 0.951 . S
C263 C262 1.398 . S
C264 C265 1.384 . S
C264 H277 0.947 . S
C264 C299 1.382 . S
C265 C264 1.384 . S
C265 C266 1.378 . S
C266 C265 1.378 . S
C266 C267 1.378 . S
C266 H278 0.952 . S
C267 C266 1.378 . S
C267 H279 0.950 . S
C267 C298 1.383 . S
H268 C287 0.947 . S
H269 C288 0.946 . S
H270 C290 0.953 . S
H271 C291 0.945 . S
H272 C293 0.952 . S
H273 C294 0.949 . S
H274 C296 0.950 . S
H275 C297 0.948 . S
H276 C299 0.951 . S
H277 C264 0.947 . S
H278 C266 0.952 . S
H279 C267 0.950 . S
N280 C283 1.382 1_545 S
N280 C285 1.363 . S
N281 C283 1.371 . S
N281 C284 1.372 1_565 S
N282 C284 1.361 . S
N282 C285 1.377 . S
C283 N280 1.382 1_565 S
C283 N281 1.371 . S
C283 C286 1.480 . S
C284 N281 1.372 1_545 S
C284 N282 1.361 . S
C284 C292 1.457 . S
C285 N280 1.363 . S
C285 N282 1.377 . S
C285 C298 1.479 . S
C286 C283 1.480 . S
C286 C287 1.383 . S
C286 C291 1.385 . S
C287 H268 0.947 . S
C287 C286 1.383 . S
C287 C288 1.388 . S
C288 H269 0.946 . S
C288 C287 1.388 . S
C288 C289 1.384 . S
C289 C288 1.384 . S
C289 C290 1.377 . S
C290 H270 0.953 . S
C290 C289 1.377 . S
C290 C291 1.369 . S
C291 H271 0.945 . S
C291 C286 1.385 . S
C291 C290 1.369 . S
C292 C284 1.457 . S
C292 C293 1.372 1_545 S
C292 C297 1.364 . S
C293 H272 0.952 . S
C293 C292 1.372 1_565 S
C293 C294 1.389 . S
C294 H273 0.949 . S
C294 C293 1.389 . S
C294 C295 1.387 . S
C295 C294 1.387 . S
C295 C296 1.372 1_565 S
C296 H274 0.950 . S
C296 C295 1.372 1_545 S
C296 C297 1.379 . S
C297 H275 0.948 . S
C297 C292 1.364 . S
C297 C296 1.379 . S
C298 C267 1.383 . S
C298 C285 1.479 . S
C298 C299 1.398 . S
C299 C264 1.382 . S
C299 H276 0.951 . S
C299 C298 1.398 . S
C300 C301 1.384 . S
C300 H313 0.947 . S
C300 C335 1.382 . S
C301 C300 1.384 . S
C301 C302 1.378 . S
C302 C301 1.378 . S
C302 C303 1.378 . S
C302 H314 0.952 . S
C303 C302 1.378 . S
C303 H315 0.950 . S
C303 C334 1.383 . S
H304 C323 0.947 . S
H305 C324 0.946 . S
H306 C326 0.953 . S
H307 C327 0.945 . S
H308 C329 0.952 . S
H309 C330 0.949 . S
H310 C332 0.950 . S
H311 C333 0.948 . S
H312 C335 0.951 . S
H313 C300 0.947 . S
H314 C302 0.952 . S
H315 C303 0.950 . S
N316 C319 1.382 . S
N316 C321 1.363 . S
N317 C319 1.371 . S
N317 C320 1.372 . S
N318 C320 1.361 . S
N318 C321 1.377 . S
C319 N316 1.382 . S
C319 N317 1.371 . S
C319 C322 1.480 . S
C320 N317 1.372 . S
C320 N318 1.361 . S
C320 C328 1.457 . S
C321 N316 1.363 . S
C321 N318 1.377 . S
C321 C334 1.479 . S
C322 C319 1.480 . S
C322 C323 1.383 . S
C322 C327 1.385 . S
C323 H304 0.947 . S
C323 C322 1.383 . S
C323 C324 1.388 . S
C324 H305 0.946 . S
C324 C323 1.388 . S
C324 C325 1.384 . S
C325 C324 1.384 . S
C325 C326 1.377 . S
C326 H306 0.953 . S
C326 C325 1.377 . S
C326 C327 1.369 . S
C327 H307 0.945 . S
C327 C322 1.385 . S
C327 C326 1.369 . S
C328 C320 1.457 . S
C328 C329 1.372 . S
C328 C333 1.364 . S
C329 H308 0.952 . S
C329 C328 1.372 . S
C329 C330 1.389 1_554 S
C330 H309 0.949 . S
C330 C329 1.389 1_556 S
C330 C331 1.387 . S
C331 C330 1.387 . S
C331 C332 1.372 . S
C332 H310 0.950 . S
C332 C331 1.372 . S
C332 C333 1.379 1_556 S
C333 H311 0.948 . S
C333 C328 1.364 . S
C333 C332 1.379 1_554 S
C334 C303 1.383 . S
C334 C321 1.479 . S
C334 C335 1.398 . S
C335 C300 1.382 . S
C335 H312 0.951 . S
C335 C334 1.398 . S
C336 C337 1.387 . S
C336 H340 0.950 . S
C336 C345 1.390 . S
C337 C336 1.387 . S
C337 C339 1.387 . S
H338 C345 0.950 . S
C339 C337 1.387 . S
C339 C341 1.390 . S
C339 H343 0.950 . S
H340 C336 0.950 . S
C341 C339 1.390 . S
C341 C342 1.387 . S
C341 H344 0.950 . S
C342 C341 1.387 . S
C342 C345 1.387 . S
H343 C339 0.950 . S
H344 C341 0.950 . S
C345 C336 1.390 . S
C345 H338 0.950 . S
C345 C342 1.387 . S
C346 C347 1.387 . S
C346 H350 0.950 . S
C346 C355 1.390 . S
C347 C346 1.387 . S
C347 C349 1.387 . S
H348 C355 0.950 . S
C349 C347 1.387 . S
C349 C351 1.390 . S
C349 H353 0.950 . S
H350 C346 0.950 . S
C351 C349 1.390 . S
C351 C352 1.387 . S
C351 H354 0.950 . S
C352 C351 1.387 . S
C352 C355 1.387 . S
H353 C349 0.950 . S
H354 C351 0.950 . S
C355 C346 1.390 . S
C355 H348 0.950 . S
C355 C352 1.387 . S
C356 C357 1.387 . S
C356 H360 0.950 . S
C356 C365 1.390 . S
C357 C356 1.387 . S
C357 C359 1.387 . S
H358 C365 0.950 . S
C359 C357 1.387 . S
C359 C361 1.390 . S
C359 H363 0.950 . S
H360 C356 0.950 . S
C361 C359 1.390 . S
C361 C362 1.387 . S
C361 H364 0.950 . S
C362 C361 1.387 . S
C362 C365 1.387 . S
H363 C359 0.950 . S
H364 C361 0.950 . S
C365 C356 1.390 . S
C365 H358 0.950 . S
C365 C362 1.387 . S
C366 C367 1.387 . S
C366 H370 0.950 . S
C366 C375 1.390 . S
C367 C366 1.387 . S
C367 C369 1.387 . S
H368 C375 0.950 . S
C369 C367 1.387 . S
C369 C371 1.390 . S
C369 H373 0.950 . S
H370 C366 0.950 . S
C371 C369 1.390 . S
C371 C372 1.387 . S
C371 H374 0.950 . S
C372 C371 1.387 . S
C372 C375 1.387 . S
H373 C369 0.950 . S
H374 C371 0.950 . S
C375 C366 1.390 . S
C375 H368 0.950 . S
C375 C372 1.387 . S
C376 C377 1.387 . S
C376 H380 0.950 . S
C376 C385 1.390 . S
C377 C376 1.387 . S
C377 C379 1.387 . S
H378 C385 0.950 . S
C379 C377 1.387 . S
C379 C381 1.390 . S
C379 H383 0.950 . S
H380 C376 0.950 . S
C381 C379 1.390 . S
C381 C382 1.387 . S
C381 H384 0.950 . S
C382 C381 1.387 . S
C382 C385 1.387 . S
H383 C379 0.950 . S
H384 C381 0.950 . S
C385 C376 1.390 . S
C385 H378 0.950 . S
C385 C382 1.387 . S
C386 C387 1.387 . S
C386 H390 0.950 . S
C386 C395 1.390 . S
C387 C386 1.387 . S
C387 C389 1.387 . S
H388 C395 0.950 . S
C389 C387 1.387 . S
C389 C391 1.390 . S
C389 H393 0.950 . S
H390 C386 0.950 . S
C391 C389 1.390 . S
C391 C392 1.387 . S
C391 H394 0.950 . S
C392 C391 1.387 . S
C392 C395 1.387 . S
H393 C389 0.950 . S
H394 C391 0.950 . S
C395 C386 1.390 . S
C395 H388 0.950 . S
C395 C392 1.387 . S
C396 C397 1.387 . S
C396 H400 0.950 . S
C396 C405 1.390 . S
C397 C396 1.387 . S
C397 C399 1.387 . S
H398 C405 0.950 . S
C399 C397 1.387 . S
C399 C401 1.390 . S
C399 H403 0.950 . S
H400 C396 0.950 . S
C401 C399 1.390 . S
C401 C402 1.387 . S
C401 H404 0.950 . S
C402 C401 1.387 . S
C402 C405 1.387 . S
H403 C399 0.950 . S
H404 C401 0.950 . S
C405 C396 1.390 . S
C405 H398 0.950 . S
C405 C402 1.387 . S
C406 C407 1.387 . S
C406 H410 0.950 . S
C406 C415 1.390 . S
C407 C406 1.387 . S
C407 C409 1.387 . S
H408 C415 0.950 . S
C409 C407 1.387 . S
C409 C411 1.390 . S
C409 H413 0.950 . S
H410 C406 0.950 . S
C411 C409 1.390 . S
C411 C412 1.387 . S
C411 H414 0.950 . S
C412 C411 1.387 . S
C412 C415 1.387 . S
H413 C409 0.950 . S
H414 C411 0.950 . S
C415 C406 1.390 . S
C415 H408 0.950 . S
C415 C412 1.387 . S
C416 C417 1.387 . S
C416 H420 0.950 . S
C416 C425 1.390 . S
C417 C416 1.387 . S
C417 C419 1.387 . S
H418 C425 0.950 . S
C419 C417 1.387 . S
C419 C421 1.390 . S
C419 H423 0.950 . S
H420 C416 0.950 . S
C421 C419 1.390 . S
C421 C422 1.387 . S
C421 H424 0.950 . S
C422 C421 1.387 . S
C422 C425 1.387 . S
H423 C419 0.950 . S
H424 C421 0.950 . S
C425 C416 1.390 . S
C425 H418 0.950 . S
C425 C422 1.387 . S
C426 C427 1.387 . S
C426 H430 0.950 . S
C426 C435 1.390 . S
C427 C426 1.387 . S
C427 C429 1.387 . S
H428 C435 0.950 . S
C429 C427 1.387 . S
C429 C431 1.390 . S
C429 H433 0.950 . S
H430 C426 0.950 . S
C431 C429 1.390 . S
C431 C432 1.387 . S
C431 H434 0.950 . S
C432 C431 1.387 . S
C432 C435 1.387 . S
H433 C429 0.950 . S
H434 C431 0.950 . S
C435 C426 1.390 . S
C435 H428 0.950 . S
C435 C432 1.387 . S
C436 C437 1.387 . S
C436 H440 0.950 . S
C436 C445 1.390 . S
C437 C436 1.387 . S
C437 C439 1.387 . S
H438 C445 0.950 . S
C439 C437 1.387 . S
C439 C441 1.390 . S
C439 H443 0.950 . S
H440 C436 0.950 . S
C441 C439 1.390 . S
C441 C442 1.387 . S
C441 H444 0.950 . S
C442 C441 1.387 . S
C442 C445 1.387 . S
H443 C439 0.950 . S
H444 C441 0.950 . S
C445 C436 1.390 . S
C445 H438 0.950 . S
C445 C442 1.387 . S
C446 C447 1.387 . S
C446 H450 0.950 . S
C446 C455 1.390 . S
C447 C446 1.387 . S
C447 C449 1.387 . S
H448 C455 0.950 . S
C449 C447 1.387 . S
C449 C451 1.390 . S
C449 H453 0.950 . S
H450 C446 0.950 . S
C451 C449 1.390 . S
C451 C452 1.387 . S
C451 H454 0.950 . S
C452 C451 1.387 . S
C452 C455 1.387 . S
H453 C449 0.950 . S
H454 C451 0.950 . S
C455 C446 1.390 . S
C455 H448 0.950 . S
C455 C452 1.387 . S
C456 C457 1.387 . S
C456 H460 0.950 . S
C456 C465 1.390 . S
C457 C456 1.387 . S
C457 C459 1.387 1_455 S
H458 C465 0.950 . S
C459 C457 1.387 1_655 S
C459 C461 1.390 1_655 S
C459 H463 0.951 . S
H460 C456 0.950 . S
C461 C459 1.390 1_455 S
C461 C462 1.387 . S
C461 H464 0.950 1_455 S
C462 C461 1.387 . S
C462 C465 1.387 . S
H463 C459 0.951 . S
H464 C461 0.950 1_655 S
C465 C456 1.390 . S
C465 H458 0.950 . S
C465 C462 1.387 . S
C466 C467 1.387 1_565 S
C466 H470 0.950 . S
C466 C475 1.390 . S
C467 C466 1.387 1_545 S
C467 C469 1.387 . S
H468 C475 0.950 . S
C469 C467 1.387 . S
C469 C471 1.390 . S
C469 H473 0.950 . S
H470 C466 0.950 . S
C471 C469 1.390 . S
C471 C472 1.387 . S
C471 H474 0.950 . S
C472 C471 1.387 . S
C472 C475 1.387 1_545 S
H473 C469 0.950 . S
H474 C471 0.950 . S
C475 C466 1.390 . S
C475 H468 0.950 . S
C475 C472 1.387 1_565 S
C476 C477 1.387 . S
C476 H480 0.950 . S
C476 C485 1.390 . S
C477 C476 1.387 . S
C477 C479 1.387 . S
H478 C485 0.950 . S
C479 C477 1.387 . S
C479 C481 1.390 . S
C479 H483 0.950 . S
H480 C476 0.950 . S
C481 C479 1.390 . S
C481 C482 1.387 . S
C481 H484 0.950 . S
C482 C481 1.387 . S
C482 C485 1.387 . S
H483 C479 0.950 . S
H484 C481 0.950 . S
C485 C476 1.390 . S
C485 H478 0.950 . S
C485 C482 1.387 . S
C486 C487 1.387 1_565 S
C486 H490 0.950 . S
C486 C495 1.390 . S
C487 C486 1.387 1_545 S
C487 C489 1.387 . S
H488 C495 0.950 . S
C489 C487 1.387 . S
C489 C491 1.394 . S
C489 H493 0.950 . S
H490 C486 0.950 . S
C491 C489 1.394 . S
C491 C492 1.403 1_545 S
C491 H494 0.932 . S
C492 C491 1.403 1_565 S
C492 C495 1.387 . S
H493 C489 0.950 . S
H494 C491 0.932 . S
C495 C486 1.390 . S
C495 H488 0.950 . S
C495 C492 1.387 . S
C496 C497 1.387 . S
C496 H500 0.950 . S
C496 C505 1.390 . S
C497 C496 1.387 . S
C497 C499 1.387 . S
H498 C505 0.950 . S
C499 C497 1.387 . S
C499 C501 1.390 . S
C499 H503 0.950 . S
H500 C496 0.950 . S
C501 C499 1.390 . S
C501 C502 1.387 . S
C501 H504 0.950 . S
C502 C501 1.387 . S
C502 C505 1.387 . S
H503 C499 0.950 . S
H504 C501 0.950 . S
C505 C496 1.390 . S
C505 H498 0.950 . S
C505 C502 1.387 . S
C506 C507 1.387 . S
C506 H510 0.950 . S
C506 C515 1.390 . S
C507 C506 1.387 . S
C507 C509 1.387 1_455 S
H508 C515 0.950 . S
C509 C507 1.387 1_655 S
C509 C511 1.390 . S
C509 H513 0.950 . S
H510 C506 0.950 . S
C511 C509 1.390 . S
C511 C512 1.387 1_655 S
C511 H514 0.950 . S
C512 C511 1.387 1_455 S
C512 C515 1.387 . S
H513 C509 0.950 . S
H514 C511 0.950 . S
C515 C506 1.390 . S
C515 H508 0.950 . S
C515 C512 1.387 . S
C337 C6 0.899 . S
C342 C325 0.980 . S
C347 C59 2.009 . S
C352 C253 1.927 . S
C357 C86 1.368 . S
C362 C289 1.391 . S
C367 C15 0.660 . S
C372 C301 0.596 . S
C382 C229 2.061 . S
C377 C50 2.147 . S
C392 C265 1.391 . S
C387 C95 1.360 . S
C397 C46 1.284 . S
C402 C181 1.317 . S
C407 C99 3.190 . S
C412 C193 3.149 . S
C417 C10 2.177 . S
C422 C121 2.110 . S
C432 C157 1.394 . S
C427 C55 1.349 . S
C442 C217 3.043 . S
C437 C90 3.131 . S
C447 C19 2.004 . S
C452 C145 1.947 . S
C462 C223 1.791 1_554 S
C457 C18 1.721 . S
C467 C49 1.318 . S
C472 C151 1.359 . S
C477 C98 1.448 . S
C482 C187 1.503 . S
C492 C295 1.475 . S
C487 C58 1.438 . S
C502 C331 1.077 . S
C497 C89 1.071 . S
C507 C9 1.310 . S
C512 C259 1.344 . S
