# Generated by pormake.
# Topology nom, (4,4)-cn, num edge types: 1
# Building blocks:
#     Node 0, Type 0, BuildingBlock: NAWXER_clean_linker_0, # of connection points: 4
#     Node 1, Type 0, BuildingBlock: NAWXER_clean_linker_0, # of connection points: 4
#     Node 2, Type 0, BuildingBlock: NAWXER_clean_linker_0, # of connection points: 4
#     Node 3, Type 0, BuildingBlock: NAWXER_clean_linker_0, # of connection points: 4
#     Node 4, Type 0, BuildingBlock: NAWXER_clean_linker_0, # of connection points: 4
#     Node 5, Type 0, BuildingBlock: NAWXER_clean_linker_0, # of connection points: 4
#     Node 6, Type 1, BuildingBlock: NAHDIM_clean_sbu_0, # of connection points: 4
#     Node 7, Type 1, BuildingBlock: NAHDIM_clean_sbu_0, # of connection points: 4
#     Node 8, Type 1, BuildingBlock: NAHDIM_clean_sbu_0, # of connection points: 4
#     Node 9, Type 1, BuildingBlock: NAHDIM_clean_sbu_0, # of connection points: 4
#     Node 10, Type 1, BuildingBlock: NAHDIM_clean_sbu_0, # of connection points: 4
#     Node 11, Type 1, BuildingBlock: NAHDIM_clean_sbu_0, # of connection points: 4
#     Edge 12, Type (0, 1), BuildingBlock: MIFKUJ_clean_linker_0, # of connection points: 2
#     Edge 13, Type (0, 1), BuildingBlock: MIFKUJ_clean_linker_0, # of connection points: 2
#     Edge 14, Type (0, 1), BuildingBlock: MIFKUJ_clean_linker_0, # of connection points: 2
#     Edge 15, Type (0, 1), BuildingBlock: MIFKUJ_clean_linker_0, # of connection points: 2
#     Edge 16, Type (0, 1), BuildingBlock: MIFKUJ_clean_linker_0, # of connection points: 2
#     Edge 17, Type (0, 1), BuildingBlock: MIFKUJ_clean_linker_0, # of connection points: 2
#     Edge 18, Type (0, 1), BuildingBlock: MIFKUJ_clean_linker_0, # of connection points: 2
#     Edge 19, Type (0, 1), BuildingBlock: MIFKUJ_clean_linker_0, # of connection points: 2
#     Edge 20, Type (0, 1), BuildingBlock: MIFKUJ_clean_linker_0, # of connection points: 2
#     Edge 21, Type (0, 1), BuildingBlock: MIFKUJ_clean_linker_0, # of connection points: 2
#     Edge 22, Type (0, 1), BuildingBlock: MIFKUJ_clean_linker_0, # of connection points: 2
#     Edge 23, Type (0, 1), BuildingBlock: MIFKUJ_clean_linker_0, # of connection points: 2
#     Edge 24, Type (0, 1), BuildingBlock: MIFKUJ_clean_linker_0, # of connection points: 2
#     Edge 25, Type (0, 1), BuildingBlock: MIFKUJ_clean_linker_0, # of connection points: 2
#     Edge 26, Type (0, 1), BuildingBlock: MIFKUJ_clean_linker_0, # of connection points: 2
#     Edge 27, Type (0, 1), BuildingBlock: MIFKUJ_clean_linker_0, # of connection points: 2
#     Edge 28, Type (0, 1), BuildingBlock: MIFKUJ_clean_linker_0, # of connection points: 2
#     Edge 29, Type (0, 1), BuildingBlock: MIFKUJ_clean_linker_0, # of connection points: 2
#     Edge 30, Type (0, 1), BuildingBlock: MIFKUJ_clean_linker_0, # of connection points: 2
#     Edge 31, Type (0, 1), BuildingBlock: MIFKUJ_clean_linker_0, # of connection points: 2
#     Edge 32, Type (0, 1), BuildingBlock: MIFKUJ_clean_linker_0, # of connection points: 2
#     Edge 33, Type (0, 1), BuildingBlock: MIFKUJ_clean_linker_0, # of connection points: 2
#     Edge 34, Type (0, 1), BuildingBlock: MIFKUJ_clean_linker_0, # of connection points: 2
#     Edge 35, Type (0, 1), BuildingBlock: MIFKUJ_clean_linker_0, # of connection points: 2
# Relax obj value: 0.024
# Max RMSD: 0.118
# Mean RMSD: 0.109
data_MOF--net-nom--node1-NAHDIM_clean_sbu_0--node2-NAWXER_clean_linker_0--edge1-MIFKUJ_clean_linker_0
_symmetry_space_group_name_H-M    P1
_symmetry_Int_Tables_number       1
_symmetry_cell_setting            triclinic
loop_
_symmetry_equiv_pos_as_xyz
'x, y, z'
_cell_length_a     64.359345
_cell_length_b     66.204129
_cell_length_c     72.235162
_cell_angle_alpha  89.93472
_cell_angle_beta   90.618171
_cell_angle_gamma 121.00469
loop_
_atom_site_label
_atom_site_type_symbol
_atom_site_fract_x
_atom_site_fract_y
_atom_site_fract_z
_atom_type_partial_charge
C0 C 0.91674 0.4877 0.33071 0.0
C1 C 0.90688 0.47002 0.34423 0.0
C2 C 0.93978 0.49556 0.32378 0.0
C3 C 0.95338 0.48573 0.33007 0.0
C4 C 0.92036 0.45999 0.35041 0.0
C5 C 0.94354 0.46796 0.3435 0.0
C6 C 0.97867 0.49573 0.32399 0.0
C7 C 0.9342 0.46073 0.27268 0.0
C8 C 0.93756 0.47613 0.25804 0.0
C9 C 0.94939 0.46887 0.2883 0.0
C10 C 0.9681 0.49258 0.28962 0.0
C11 C 0.95607 0.49993 0.25958 0.0
C12 C 0.97127 0.50801 0.27514 0.0
C13 C 0.98557 0.50109 0.30531 0.0
C14 C 0.09494 0.54995 0.30829 0.0
C15 C 0.10014 0.56922 0.2969 0.0
C16 C 0.07122 0.53449 0.3141 0.0
C17 C 0.05243 0.53828 0.30881 0.0
C18 C 0.08119 0.5727 0.29147 0.0
C19 C 0.0576 0.55734 0.29729 0.0
C20 C 0.02714 0.52241 0.31465 0.0
C21 C 0.07033 0.55553 0.36692 0.0
C22 C 0.07083 0.53895 0.3788 0.0
C23 C 0.05398 0.54811 0.35202 0.0
C24 C 0.03794 0.52398 0.34872 0.0
C25 C 0.05459 0.51482 0.37553 0.0
C26 C 0.03815 0.50742 0.36069 0.0
C27 C 0.02032 0.5159 0.33321 0.0
H28 H 0.9067 0.49563 0.32558 0.0
H29 H 0.94723 0.50981 0.31386 0.0
H30 H 0.91328 0.44649 0.36095 0.0
H31 H 0.95389 0.46042 0.34876 0.0
H32 H 0.92034 0.44224 0.27181 0.0
H33 H 0.94695 0.45648 0.29909 0.0
H34 H 0.95888 0.51234 0.24871 0.0
H35 H 0.9856 0.52636 0.27584 0.0
H36 H 0.10914 0.54667 0.31249 0.0
H37 H 0.06755 0.51954 0.32259 0.0
H38 H 0.08465 0.58756 0.28294 0.0
H39 H 0.04337 0.56057 0.29301 0.0
H40 H 0.08268 0.57423 0.36909 0.0
H41 H 0.05377 0.5612 0.34314 0.0
H42 H 0.05433 0.50167 0.38463 0.0
H43 H 0.0257 0.48873 0.35848 0.0
N44 N 0.99632 0.50294 0.33721 0.0
N45 N 0.0095 0.51455 0.30142 0.0
C46 C 0.45171 0.92765 0.49504 0.0
C47 C 0.45774 0.91856 0.51037 0.0
C48 C 0.46694 0.95095 0.48965 0.0
C49 C 0.48888 0.96552 0.49918 0.0
C50 C 0.47942 0.93321 0.52017 0.0
C51 C 0.49487 0.95653 0.51461 0.0
C52 C 0.50438 0.99062 0.49402 0.0
C53 C 0.50436 0.94883 0.44567 0.0
C54 C 0.49362 0.9512 0.42943 0.0
C55 C 0.5098 0.96429 0.46054 0.0
C56 C 0.50413 0.98214 0.4596 0.0
C57 C 0.48867 0.96952 0.42828 0.0
C58 C 0.49393 0.98487 0.44322 0.0
C59 C 0.50922 0.99829 0.47545 0.0
C60 C 0.56342 0.10457 0.48178 0.0
C61 C 0.54893 0.10902 0.4697 0.0
C62 C 0.55614 0.08148 0.48692 0.0
C63 C 0.53421 0.06251 0.48012 0.0
C64 C 0.52717 0.08987 0.46276 0.0
C65 C 0.52 0.06688 0.46782 0.0
C66 C 0.52561 0.03797 0.48557 0.0
C67 C 0.52495 0.07558 0.53768 0.0
C68 C 0.54066 0.07591 0.55154 0.0
C69 C 0.51923 0.06106 0.52212 0.0
C70 C 0.52924 0.04673 0.52008 0.0
C71 C 0.55066 0.06153 0.54937 0.0
C72 C 0.54485 0.04696 0.53386 0.0
C73 C 0.52261 0.03051 0.50417 0.0
H74 H 0.43482 0.91693 0.48751 0.0
H75 H 0.46125 0.95769 0.47825 0.0
H76 H 0.48444 0.92661 0.53207 0.0
H77 H 0.51147 0.96755 0.52238 0.0
H78 H 0.50878 0.93514 0.44681 0.0
H79 H 0.51844 0.96229 0.47278 0.0
H80 H 0.48024 0.97167 0.41598 0.0
H81 H 0.48957 0.9986 0.44209 0.0
H82 H 0.58046 0.11889 0.48715 0.0
H83 H 0.56762 0.07844 0.49615 0.0
H84 H 0.51536 0.09263 0.45369 0.0
H85 H 0.50301 0.05248 0.46242 0.0
H86 H 0.51658 0.08611 0.53907 0.0
H87 H 0.50666 0.06071 0.51184 0.0
H88 H 0.56307 0.06157 0.55964 0.0
H89 H 0.55264 0.03591 0.53256 0.0
N90 N 0.51186 0.00708 0.50769 0.0
N91 N 0.51908 0.02162 0.47193 0.0
C92 C 0.55662 0.50106 0.59457 0.0
C93 C 0.53966 0.4881 0.58045 0.0
C94 C 0.54953 0.50801 0.61039 0.0
C95 C 0.52533 0.502 0.61242 0.0
C96 C 0.51541 0.48195 0.58267 0.0
C97 C 0.50838 0.48897 0.59841 0.0
C98 C 0.51775 0.51048 0.62844 0.0
C99 C 0.53394 0.45791 0.65322 0.0
C100 C 0.55031 0.46556 0.66828 0.0
C101 C 0.5261 0.47237 0.64586 0.0
C102 C 0.53503 0.49518 0.65297 0.0
C103 C 0.55953 0.48852 0.67522 0.0
C104 C 0.55194 0.50315 0.66765 0.0
C105 C 0.52437 0.50938 0.64698 0.0
C106 C 0.46764 0.54139 0.69088 0.0
C107 C 0.48573 0.55746 0.70313 0.0
C108 C 0.47368 0.53215 0.67592 0.0
C109 C 0.49799 0.53929 0.67266 0.0
C110 C 0.50995 0.56405 0.70018 0.0
C111 C 0.51602 0.55502 0.68507 0.0
C112 C 0.50476 0.52979 0.65684 0.0
C113 C 0.46863 0.56737 0.63371 0.0
C114 C 0.44657 0.55154 0.62479 0.0
C115 C 0.48545 0.5606 0.6379 0.0
C116 C 0.48038 0.5379 0.63324 0.0
C117 C 0.442 0.52916 0.61961 0.0
C118 C 0.45882 0.52247 0.6237 0.0
C119 C 0.49695 0.52958 0.63846 0.0
H120 H 0.5755 0.50637 0.59317 0.0
H121 H 0.56306 0.51854 0.62081 0.0
H122 H 0.5018 0.47164 0.57222 0.0
H123 H 0.48962 0.48417 0.59967 0.0
H124 H 0.52669 0.44047 0.64734 0.0
H125 H 0.51229 0.46524 0.6351 0.0
H126 H 0.57188 0.49492 0.68698 0.0
H127 H 0.55879 0.52049 0.67362 0.0
H128 H 0.44876 0.53562 0.69309 0.0
H129 H 0.45931 0.5193 0.66699 0.0
H130 H 0.52423 0.57639 0.70944 0.0
H131 H 0.53485 0.5605 0.68296 0.0
H132 H 0.47259 0.58474 0.63784 0.0
H133 H 0.5022 0.57291 0.645 0.0
H134 H 0.42536 0.51677 0.61242 0.0
H135 H 0.45468 0.50495 0.61983 0.0
N136 N 0.50391 0.52012 0.62499 0.0
N137 N 0.51804 0.51955 0.66039 0.0
C138 C 0.9129 0.42168 0.81126 0.0
C139 C 0.90339 0.42796 0.79621 0.0
C140 C 0.93649 0.43695 0.81764 0.0
C141 C 0.95096 0.45906 0.80936 0.0
C142 C 0.91801 0.44999 0.78778 0.0
C143 C 0.94163 0.46534 0.79424 0.0
C144 C 0.97632 0.47484 0.81566 0.0
C145 C 0.93066 0.47161 0.86316 0.0
C146 C 0.93289 0.46067 0.87912 0.0
C147 C 0.94689 0.47751 0.84861 0.0
C148 C 0.96552 0.47241 0.84968 0.0
C149 C 0.95174 0.45586 0.88025 0.0
C150 C 0.96799 0.4618 0.86571 0.0
C151 C 0.98316 0.47907 0.83455 0.0
C152 C 0.09249 0.54101 0.83233 0.0
C153 C 0.09848 0.52845 0.84487 0.0
C154 C 0.06848 0.53181 0.82646 0.0
C155 C 0.05015 0.50971 0.83277 0.0
C156 C 0.07986 0.50684 0.85176 0.0
C157 C 0.05597 0.4976 0.84578 0.0
C158 C 0.02479 0.49881 0.82616 0.0
C159 C 0.07081 0.50911 0.77641 0.0
C160 C 0.06935 0.52381 0.76306 0.0
C161 C 0.05392 0.49963 0.79067 0.0
C162 C 0.0356 0.50511 0.792 0.0
C163 C 0.05055 0.52866 0.76415 0.0
C164 C 0.0338 0.51932 0.77845 0.0
C165 C 0.01798 0.49599 0.80723 0.0
H166 H 0.9021 0.40495 0.81818 0.0
H167 H 0.94349 0.43129 0.82891 0.0
H168 H 0.91135 0.4552 0.77598 0.0
H169 H 0.95261 0.48214 0.78744 0.0
H170 H 0.91627 0.47546 0.86185 0.0
H171 H 0.94499 0.48625 0.83659 0.0
H172 H 0.95415 0.44778 0.89249 0.0
H173 H 0.98241 0.45798 0.86694 0.0
H174 H 0.1064 0.5577 0.82674 0.0
H175 H 0.0643 0.54181 0.81683 0.0
H176 H 0.08372 0.497 0.86178 0.0
H177 H 0.04205 0.48069 0.85106 0.0
H178 H 0.08486 0.50474 0.77573 0.0
H179 H 0.05523 0.48813 0.80067 0.0
H180 H 0.04905 0.54006 0.75415 0.0
H181 H 0.01968 0.5236 0.77914 0.0
N182 N 0.99399 0.48396 0.80272 0.0
N183 N 0.00709 0.49041 0.83906 0.0
C184 C 0.46063 0.9207 0.9793 0.0
C185 C 0.44346 0.91143 0.96485 0.0
C186 C 0.47027 0.94391 0.98516 0.0
C187 C 0.46232 0.95815 0.97712 0.0
C188 C 0.43581 0.9257 0.95648 0.0
C189 C 0.44513 0.94889 0.96262 0.0
C190 C 0.4738 0.9833 0.98249 0.0
C191 C 0.43995 0.94375 0.03527 0.0
C192 C 0.45704 0.9467 0.04897 0.0
C193 C 0.44722 0.95799 0.01951 0.0
C194 C 0.47168 0.97542 0.0172 0.0
C195 C 0.48154 0.96408 0.04644 0.0
C196 C 0.48871 0.97842 0.03084 0.0
C197 C 0.47975 0.99125 0.00102 0.0
C198 C 0.53378 0.09768 0.99426 0.0
C199 C 0.55312 0.10275 0.00643 0.0
C200 C 0.51692 0.07438 0.98921 0.0
C201 C 0.51944 0.05583 0.99593 0.0
C202 C 0.55498 0.084 0.01363 0.0
C203 C 0.53837 0.06085 0.00841 0.0
C204 C 0.50244 0.03099 0.9906 0.0
C205 C 0.53673 0.07067 0.93855 0.0
C206 C 0.51983 0.0713 0.92643 0.0
C207 C 0.52892 0.05471 0.9532 0.0
C208 C 0.50407 0.03932 0.95616 0.0
C209 C 0.49497 0.05526 0.92906 0.0
C210 C 0.48718 0.03934 0.94375 0.0
C211 C 0.49552 0.02318 0.97213 0.0
H212 H 0.46731 0.91023 0.98561 0.0
H213 H 0.48451 0.95086 0.99559 0.0
H214 H 0.42272 0.91894 0.94518 0.0
H215 H 0.43911 0.95967 0.95592 0.0
H216 H 0.42091 0.93077 0.03688 0.0
H217 H 0.4337 0.95566 0.0093 0.0
H218 H 0.49529 0.96655 0.05647 0.0
H219 H 0.50769 0.99172 0.0293 0.0
H220 H 0.5318 0.11169 0.98845 0.0
H221 H 0.50203 0.07093 0.98003 0.0
H222 H 0.5692 0.08715 0.02343 0.0
H223 H 0.54049 0.04682 0.01402 0.0
H224 H 0.55601 0.08245 0.93666 0.0
H225 H 0.54229 0.05454 0.96234 0.0
H226 H 0.48149 0.05539 0.92004 0.0
H227 H 0.46793 0.02744 0.94571 0.0
N228 N 0.48152 -0.00036 0.96878 0.0
N229 N 0.49412 0.0147 0.00427 0.0
C230 C 0.47465 0.57398 0.16073 0.0
C231 C 0.45507 0.5652 0.17294 0.0
C232 C 0.48288 0.55948 0.15437 0.0
C233 C 0.47164 0.53589 0.16004 0.0
C234 C 0.44369 0.54153 0.17852 0.0
C235 C 0.4521 0.52705 0.17226 0.0
C236 C 0.48156 0.52116 0.15432 0.0
C237 C 0.44763 0.52983 0.10236 0.0
C238 C 0.46474 0.54436 0.08917 0.0
C239 C 0.45481 0.52201 0.11776 0.0
C240 C 0.47914 0.52839 0.12008 0.0
C241 C 0.48911 0.55094 0.09165 0.0
C242 C 0.4962 0.5428 0.10687 0.0
C243 C 0.48673 0.51919 0.13572 0.0
C244 C 0.53055 0.45722 0.14154 0.0
C245 C 0.55003 0.46972 0.12937 0.0
C246 C 0.51576 0.46609 0.14634 0.0
C247 C 0.5206 0.48794 0.13949 0.0
C248 C 0.55388 0.49092 0.12174 0.0
C249 C 0.53937 0.49994 0.12678 0.0
C250 C 0.50642 0.49868 0.14529 0.0
C251 C 0.54134 0.4903 0.19639 0.0
C252 C 0.52472 0.47537 0.20974 0.0
C253 C 0.53375 0.49875 0.18169 0.0
C254 C 0.50926 0.49196 0.17973 0.0
C255 C 0.50036 0.4693 0.20807 0.0
C256 C 0.49274 0.47757 0.19323 0.0
C257 C 0.50086 0.50028 0.16394 0.0
H258 H 0.48365 0.5921 0.15612 0.0
H259 H 0.49841 0.56688 0.14534 0.0
H260 H 0.4287 0.53441 0.18806 0.0
H261 H 0.44341 0.50899 0.17698 0.0
H262 H 0.42874 0.52454 0.10072 0.0
H263 H 0.44129 0.51059 0.12765 0.0
H264 H 0.50257 0.56191 0.08155 0.0
H265 H 0.51502 0.54779 0.10836 0.0
H266 H 0.52702 0.44085 0.1477 0.0
H267 H 0.50084 0.45605 0.15566 0.0
H268 H 0.5682 0.50068 0.11189 0.0
H269 H 0.54318 0.51661 0.12102 0.0
H270 H 0.56019 0.49524 0.19713 0.0
H271 H 0.547 0.51044 0.17176 0.0
H272 H 0.48718 0.45829 0.2183 0.0
H273 H 0.47385 0.47249 0.19217 0.0
N274 N 0.48858 0.51142 0.16772 0.0
N275 N 0.49913 0.50823 0.13193 0.0
C276 C 0.60431 0.34152 0.41929 0.0
O277 O 0.61913 0.35943 0.42992 0.0
O278 O 0.65033 0.38999 0.393 0.0
Zn279 Zn 0.61532 0.37968 0.39629 0.0
O280 O 0.61169 0.39778 0.41711 0.0
C281 C 0.6137 0.40388 0.3642 0.0
O282 O 0.63459 0.42013 0.37131 0.0
O283 O 0.59871 0.34559 0.40337 0.0
C284 C 0.59644 0.40452 0.41641 0.0
O285 O 0.58295 0.40013 0.40146 0.0
C286 C 0.66814 0.40985 0.39799 0.0
O287 O 0.66412 0.42552 0.40562 0.0
O288 O 0.60165 0.38426 0.37247 0.0
C289 C 0.2783 0.68059 0.55591 0.0
O290 O 0.27523 0.66447 0.54378 0.0
O291 O 0.26873 0.62694 0.57687 0.0
Zn292 Zn 0.24601 0.63906 0.57413 0.0
O293 O 0.22448 0.62545 0.55155 0.0
C294 C 0.23458 0.63333 0.6129 0.0
O295 O 0.25816 0.64292 0.61476 0.0
O296 O 0.26677 0.67406 0.57102 0.0
C297 C 0.22529 0.61102 0.54041 0.0
O298 O 0.24061 0.60389 0.54366 0.0
C299 C 0.26269 0.60714 0.58399 0.0
O300 O 0.24023 0.59318 0.5893 0.0
O301 O 0.2254 0.63061 0.59677 0.0
C302 C 0.60477 0.29776 0.74465 0.0
O303 O 0.62458 0.30371 0.75424 0.0
O304 O 0.6409 0.27391 0.74333 0.0
Zn305 Zn 0.60468 0.25463 0.74054 0.0
O306 O 0.59627 0.23496 0.7174 0.0
C307 C 0.59897 0.24038 0.77887 0.0
O308 O 0.61727 0.26199 0.78138 0.0
O309 O 0.59246 0.27705 0.73791 0.0
C310 C 0.59343 0.21449 0.71773 0.0
O311 O 0.59583 0.20602 0.73354 0.0
C312 C 0.65431 0.26572 0.74763 0.0
O313 O 0.64445 0.24295 0.7502 0.0
O314 O 0.59025 0.23361 0.76266 0.0
C315 C 0.40361 0.68525 0.91354 0.0
O316 O 0.39066 0.66774 0.92489 0.0
O317 O 0.36209 0.63151 0.89126 0.0
Zn318 Zn 0.39826 0.64663 0.89415 0.0
O319 O 0.40712 0.63445 0.91673 0.0
C320 C 0.40064 0.62183 0.86264 0.0
O321 O 0.3797 0.60544 0.86919 0.0
O322 O 0.41047 0.68092 0.89839 0.0
C323 C 0.40621 0.61485 0.91778 0.0
O324 O 0.3992 0.6008 0.9033 0.0
C325 C 0.34589 0.61112 0.89656 0.0
O326 O 0.35223 0.59735 0.90474 0.0
O327 O 0.41231 0.6416 0.87095 0.0
C328 C 0.71275 0.38966 0.0839 0.0
O329 O 0.70799 0.36887 0.08963 0.0
O330 O 0.72776 0.35298 0.0632 0.0
Zn331 Zn 0.75118 0.38731 0.06822 0.0
O332 O 0.77247 0.3917 0.09029 0.0
C333 C 0.7809 0.39064 0.03846 0.0
O334 O 0.77794 0.37171 0.04678 0.0
O335 O 0.73139 0.402 0.07409 0.0
C336 C 0.79468 0.40789 0.09062 0.0
O337 O 0.80396 0.42149 0.0761 0.0
C338 C 0.73046 0.33607 0.0682 0.0
O339 O 0.75009 0.3405 0.07741 0.0
O340 O 0.7711 0.40138 0.0453 0.0
C341 C 0.3864 0.73146 0.22593 0.0
O342 O 0.36529 0.72817 0.22062 0.0
O343 O 0.35533 0.75378 0.24903 0.0
Zn344 Zn 0.3898 0.77272 0.24055 0.0
O345 O 0.39243 0.79099 0.21747 0.0
C346 C 0.4075 0.78718 0.27769 0.0
O347 O 0.39299 0.76459 0.28089 0.0
O348 O 0.40097 0.75009 0.2349 0.0
C349 C 0.4101 0.81193 0.21546 0.0
O350 O 0.42646 0.82167 0.22875 0.0
C351 C 0.33703 0.74911 0.23902 0.0
O352 O 0.3403 0.75768 0.22218 0.0
O353 O 0.40957 0.79472 0.26124 0.0
H354 H 0.14205 0.58805 0.31748 0.0
H355 H 0.18293 0.61796 0.30788 0.0
H356 H 0.15553 0.61868 0.25326 0.0
H357 H 0.11486 0.58825 0.26255 0.0
H358 H 0.1982 0.62071 0.25146 0.0
H359 H 0.16537 0.66052 0.28517 0.0
H360 H 0.1467 0.66787 0.31197 0.0
H361 H 0.20774 0.68187 0.34616 0.0
H362 H 0.22663 0.67427 0.31961 0.0
H363 H 0.29417 0.73004 0.21966 0.0
H364 H 0.25409 0.69928 0.22999 0.0
H365 H 0.28422 0.69865 0.28347 0.0
H366 H 0.32427 0.72949 0.27336 0.0
H367 H 0.24076 0.69629 0.28632 0.0
H368 H 0.27403 0.65739 0.25237 0.0
H369 H 0.29277 0.65029 0.22549 0.0
H370 H 0.2309 0.63468 0.19169 0.0
H371 H 0.21195 0.64206 0.21831 0.0
C372 C 0.14483 0.59429 0.30334 0.0
C373 C 0.12522 0.58597 0.29081 0.0
C374 C 0.16813 0.61153 0.29793 0.0
C375 C 0.17216 0.62081 0.27995 0.0
C376 C 0.15279 0.61186 0.26723 0.0
C377 C 0.12953 0.59462 0.2726 0.0
C378 C 0.19636 0.64036 0.2745 0.0
C379 C 0.20739 0.63733 0.25896 0.0
C380 C 0.20853 0.66186 0.28451 0.0
C381 C 0.19729 0.6666 0.30045 0.0
C382 C 0.17473 0.665 0.29844 0.0
C383 C 0.16412 0.66923 0.31357 0.0
C384 C 0.176 0.67527 0.33077 0.0
C385 C 0.19855 0.67715 0.33284 0.0
C386 C 0.20922 0.6729 0.31775 0.0
C387 C 0.29224 0.72353 0.23368 0.0
C388 C 0.31243 0.73208 0.24564 0.0
C389 C 0.26936 0.70588 0.23952 0.0
C390 C 0.26632 0.69649 0.2574 0.0
C391 C 0.28624 0.70562 0.2696 0.0
C392 C 0.30911 0.72321 0.26377 0.0
C393 C 0.2425 0.67668 0.26324 0.0
C394 C 0.23157 0.67966 0.27885 0.0
C395 C 0.23041 0.65514 0.25328 0.0
C396 C 0.24168 0.65051 0.23729 0.0
C397 C 0.2645 0.65262 0.23917 0.0
C398 C 0.27515 0.64852 0.22399 0.0
C399 C 0.26306 0.64209 0.20689 0.0
C400 C 0.24026 0.63969 0.20494 0.0
C401 C 0.22955 0.64382 0.22008 0.0
H402 H 0.27133 0.63892 0.19515 0.0
H403 H 0.16776 0.67854 0.34247 0.0
H404 H 0.56975 0.14849 0.49179 0.0
H405 H 0.57952 0.1882 0.48346 0.0
H406 H 0.55293 0.16432 0.42789 0.0
H407 H 0.54437 0.12496 0.43581 0.0
H408 H 0.59261 0.20579 0.42685 0.0
H409 H 0.51846 0.17172 0.46104 0.0
H410 H 0.49195 0.15222 0.4877 0.0
H411 H 0.54018 0.21038 0.52283 0.0
H412 H 0.56716 0.23009 0.49642 0.0
H413 H 0.57881 0.30083 0.399 0.0
H414 H 0.56878 0.2612 0.40804 0.0
H415 H 0.6018 0.28762 0.4617 0.0
H416 H 0.61175 0.32722 0.45286 0.0
H417 H 0.55896 0.2452 0.46392 0.0
H418 H 0.63289 0.27913 0.42924 0.0
H419 H 0.65882 0.29848 0.40228 0.0
H420 H 0.60991 0.24008 0.36762 0.0
H421 H 0.5835 0.22052 0.39434 0.0
C422 C 0.56637 0.15177 0.47771 0.0
C423 C 0.55608 0.13347 0.46451 0.0
C424 C 0.57168 0.17442 0.47303 0.0
C425 C 0.56649 0.17912 0.45515 0.0
C426 C 0.55691 0.16107 0.44181 0.0
C427 C 0.55181 0.1385 0.44642 0.0
C428 C 0.5708 0.20275 0.45032 0.0
C429 C 0.58498 0.21425 0.43483 0.0
C430 C 0.56123 0.21401 0.46092 0.0
C431 C 0.54495 0.20227 0.47679 0.0
C432 C 0.5235 0.18028 0.47448 0.0
C433 C 0.50837 0.1692 0.48954 0.0
C434 C 0.51441 0.18003 0.50696 0.0
C435 C 0.53554 0.20199 0.50934 0.0
C436 C 0.55075 0.21314 0.49432 0.0
C437 C 0.58372 0.29817 0.41279 0.0
C438 C 0.59624 0.3172 0.42517 0.0
C439 C 0.57807 0.27555 0.4179 0.0
C440 C 0.58486 0.27159 0.43544 0.0
C441 C 0.59648 0.29035 0.44807 0.0
C442 C 0.6022 0.31297 0.44297 0.0
C443 C 0.58062 0.24808 0.44043 0.0
C444 C 0.56652 0.23665 0.45595 0.0
C445 C 0.59014 0.23682 0.4298 0.0
C446 C 0.6061 0.24848 0.41375 0.0
C447 C 0.62757 0.2705 0.41584 0.0
C448 C 0.64237 0.28149 0.40061 0.0
C449 C 0.63598 0.27055 0.38324 0.0
C450 C 0.61482 0.24855 0.38108 0.0
C451 C 0.59993 0.2375 0.39626 0.0
H452 H 0.64746 0.27909 0.37146 0.0
H453 H 0.50268 0.17142 0.5186 0.0
H454 H 0.39812 0.52502 0.63121 0.0
H455 H 0.36712 0.53473 0.62401 0.0
H456 H 0.42204 0.60221 0.60283 0.0
H457 H 0.45327 0.59264 0.61023 0.0
H458 H 0.39032 0.60658 0.62337 0.0
H459 H 0.38537 0.55653 0.57354 0.0
H460 H 0.38166 0.52095 0.55933 0.0
H461 H 0.31199 0.47821 0.58423 0.0
H462 H 0.31544 0.51351 0.59881 0.0
H463 H 0.31074 0.63285 0.57551 0.0
H464 H 0.34187 0.62322 0.58226 0.0
H465 H 0.28811 0.55746 0.60658 0.0
H466 H 0.25668 0.56685 0.59974 0.0
H467 H 0.31936 0.55244 0.58408 0.0
H468 H 0.32481 0.603 0.634 0.0
H469 H 0.32874 0.63889 0.64777 0.0
H470 H 0.39789 0.68109 0.62198 0.0
H471 H 0.39421 0.64546 0.60783 0.0
C472 C 0.40357 0.54189 0.62495 0.0
C473 C 0.42805 0.55799 0.6211 0.0
C474 C 0.38585 0.54741 0.62083 0.0
C475 C 0.39222 0.56901 0.61256 0.0
C476 C 0.41674 0.5854 0.60915 0.0
C477 C 0.43454 0.57995 0.6134 0.0
C478 C 0.37323 0.57438 0.60744 0.0
C479 C 0.37499 0.59492 0.61456 0.0
C480 C 0.35297 0.5589 0.59625 0.0
C481 C 0.35077 0.53765 0.58741 0.0
C482 C 0.36934 0.53952 0.5761 0.0
C483 C 0.36727 0.51941 0.56796 0.0
C484 C 0.34663 0.49732 0.57091 0.0
C485 C 0.32798 0.49532 0.58197 0.0
C486 C 0.32997 0.51538 0.59016 0.0
C487 C 0.30546 0.61627 0.58222 0.0
C488 C 0.28124 0.60066 0.5872 0.0
C489 C 0.32331 0.61085 0.58612 0.0
C490 C 0.31733 0.5898 0.59514 0.0
C491 C 0.29308 0.57385 0.59966 0.0
C492 C 0.27517 0.57926 0.59578 0.0
C493 C 0.33647 0.58459 0.60004 0.0
C494 C 0.33472 0.56409 0.59287 0.0
C495 C 0.35679 0.60015 0.61111 0.0
C496 C 0.35912 0.62158 0.61972 0.0
C497 C 0.34077 0.61995 0.63115 0.0
C498 C 0.34296 0.64024 0.63904 0.0
C499 C 0.36352 0.66226 0.63572 0.0
C500 C 0.38196 0.66402 0.62453 0.0
C501 C 0.37984 0.64378 0.61658 0.0
H502 H 0.36519 0.67795 0.64184 0.0
H503 H 0.34506 0.48177 0.5646 0.0
H504 H 0.88083 0.38009 0.79216 0.0
H505 H 0.83905 0.35273 0.78242 0.0
H506 H 0.82775 0.41097 0.77429 0.0
H507 H 0.86928 0.43842 0.78483 0.0
H508 H 0.79123 0.37664 0.79261 0.0
H509 H 0.83417 0.38157 0.73745 0.0
H510 H 0.86518 0.38009 0.71875 0.0
H511 H 0.83544 0.30741 0.73313 0.0
H512 H 0.80444 0.30855 0.75214 0.0
H513 H 0.67941 0.31365 0.74489 0.0
H514 H 0.72228 0.34087 0.75159 0.0
H515 H 0.73166 0.28235 0.76422 0.0
H516 H 0.68865 0.2548 0.7574 0.0
H517 H 0.76907 0.31669 0.74317 0.0
H518 H 0.72651 0.31235 0.79872 0.0
H519 H 0.6953 0.31403 0.817 0.0
H520 H 0.7245 0.38623 0.80132 0.0
H521 H 0.75569 0.38486 0.78271 0.0
C522 C 0.86943 0.3871 0.78842 0.0
C523 C 0.87837 0.41145 0.78935 0.0
C524 C 0.84563 0.37144 0.78263 0.0
C525 C 0.83036 0.37983 0.77742 0.0
C526 C 0.83926 0.40414 0.77818 0.0
C527 C 0.86305 0.41981 0.78406 0.0
C528 C 0.80483 0.36315 0.77187 0.0
C529 C 0.78642 0.36379 0.7816 0.0
C530 C 0.79853 0.34597 0.75782 0.0
C531 C 0.81712 0.34522 0.74636 0.0
C532 C 0.83436 0.36533 0.73674 0.0
C533 C 0.85192 0.36454 0.72606 0.0
C534 C 0.85232 0.34369 0.72479 0.0
C535 C 0.83513 0.32356 0.73415 0.0
C536 C 0.81754 0.32426 0.74486 0.0
C537 C 0.69057 0.30649 0.74899 0.0
C538 C 0.68057 0.28204 0.75074 0.0
C539 C 0.71506 0.32211 0.75286 0.0
C540 C 0.73002 0.31362 0.75862 0.0
C541 C 0.72034 0.28922 0.75983 0.0
C542 C 0.69577 0.27353 0.75599 0.0
C543 C 0.75561 0.33032 0.76386 0.0
C544 C 0.77397 0.32962 0.75413 0.0
C545 C 0.7619 0.34751 0.77787 0.0
C546 C 0.74329 0.34843 0.78918 0.0
C547 C 0.72616 0.32853 0.79906 0.0
C548 C 0.70849 0.32943 0.80949 0.0
C549 C 0.70788 0.35021 0.81028 0.0
C550 C 0.72498 0.37014 0.80067 0.0
C551 C 0.74267 0.36932 0.79019 0.0
H552 H 0.69418 0.35087 0.81837 0.0
H553 H 0.86593 0.34311 0.71651 0.0
H554 H 0.4243 0.87119 0.985 0.0
H555 H 0.41583 0.8325 0.97458 0.0
H556 H 0.43613 0.8591 0.91904 0.0
H557 H 0.44389 0.8977 0.92937 0.0
H558 H 0.39931 0.81459 0.91815 0.0
H559 H 0.47674 0.85669 0.94859 0.0
H560 H 0.50534 0.87941 0.97392 0.0
H561 H 0.46683 0.82087 0.01068 0.0
H562 H 0.43775 0.79792 0.98564 0.0
H563 H 0.4223 0.7238 0.89084 0.0
H564 H 0.42835 0.76266 0.89808 0.0
H565 H 0.40221 0.73939 0.95335 0.0
H566 H 0.39614 0.70066 0.94629 0.0
H567 H 0.44372 0.78328 0.95273 0.0
H568 H 0.36566 0.74177 0.9217 0.0
H569 H 0.33772 0.7196 0.89588 0.0
H570 H 0.37914 0.77775 0.85936 0.0
H571 H 0.40754 0.80015 0.88493 0.0
C572 C 0.42655 0.86861 0.97052 0.0
C573 C 0.43491 0.88736 0.95799 0.0
C574 C 0.42183 0.84659 0.96459 0.0
C575 C 0.42596 0.84311 0.94613 0.0
C576 C 0.43296 0.86145 0.93336 0.0
C577 C 0.43735 0.88344 0.93925 0.0
C578 C 0.42439 0.82083 0.94051 0.0
C579 C 0.40927 0.8079 0.92555 0.0
C580 C 0.43729 0.81202 0.95024 0.0
C581 C 0.45495 0.82566 0.96527 0.0
C582 C 0.47428 0.84871 0.9621 0.0
C583 C 0.49059 0.86163 0.97641 0.0
C584 C 0.48788 0.85161 0.99391 0.0
C585 C 0.46889 0.82862 0.99712 0.0
C586 C 0.4525 0.81564 0.98287 0.0
C587 C 0.41799 0.72703 0.90456 0.0
C588 C 0.40868 0.70916 0.91798 0.0
C589 C 0.42133 0.74917 0.90864 0.0
C590 C 0.4155 0.75377 0.92619 0.0
C591 C 0.40677 0.73615 0.93972 0.0
C592 C 0.40327 0.71402 0.93563 0.0
C593 C 0.41836 0.77689 0.9306 0.0
C594 C 0.43384 0.79004 0.9453 0.0
C595 C 0.40598 0.78595 0.92052 0.0
C596 C 0.38887 0.77253 0.90517 0.0
C597 C 0.36893 0.74975 0.90812 0.0
C598 C 0.35299 0.73716 0.89354 0.0
C599 C 0.3567 0.74723 0.87598 0.0
C600 C 0.37632 0.76995 0.87297 0.0
C601 C 0.39233 0.78261 0.8875 0.0
H602 H 0.34433 0.73745 0.86471 0.0
H603 H 0.50051 0.86164 0.00497 0.0
H604 H 0.59915 0.49586 0.12451 0.0
H605 H 0.6263 0.48186 0.1164 0.0
H606 H 0.56631 0.41012 0.11694 0.0
H607 H 0.53864 0.42395 0.12424 0.0
H608 H 0.61006 0.41951 0.13722 0.0
H609 H 0.58421 0.43182 0.07744 0.0
H610 H 0.57735 0.45493 0.05398 0.0
H611 H 0.65339 0.50692 0.05448 0.0
H612 H 0.66064 0.48428 0.07816 0.0
H613 H 0.6667 0.36378 0.09669 0.0
H614 H 0.63925 0.37751 0.10448 0.0
H615 H 0.69429 0.44856 0.09021 0.0
H616 H 0.72159 0.43469 0.08167 0.0
H617 H 0.6529 0.43993 0.07719 0.0
H618 H 0.68007 0.4296 0.13624 0.0
H619 H 0.68856 0.40886 0.16082 0.0
H620 H 0.61283 0.35635 0.16338 0.0
H621 H 0.60392 0.3766 0.13863 0.0
C622 C 0.59156 0.47711 0.12262 0.0
C623 C 0.5666 0.46106 0.12487 0.0
C624 C 0.60717 0.46917 0.11812 0.0
C625 C 0.59822 0.44502 0.11599 0.0
C626 C 0.57349 0.42885 0.11858 0.0
C627 C 0.55775 0.4368 0.12284 0.0
C628 C 0.61479 0.43674 0.11101 0.0
C629 C 0.6192 0.42363 0.124 0.0
C630 C 0.62724 0.44292 0.09403 0.0
C631 C 0.62293 0.45647 0.07971 0.0
C632 C 0.59944 0.44829 0.07267 0.0
C633 C 0.59548 0.46128 0.05931 0.0
C634 C 0.61491 0.48241 0.05278 0.0
C635 C 0.63835 0.49056 0.05956 0.0
C636 C 0.64239 0.47765 0.07295 0.0
C637 C 0.673 0.38235 0.09525 0.0
C638 C 0.69634 0.3982 0.08866 0.0
C639 C 0.65732 0.3902 0.0998 0.0
C640 C 0.66485 0.41415 0.09828 0.0
C641 C 0.68811 0.43 0.09155 0.0
C642 C 0.7037 0.42208 0.08671 0.0
C643 C 0.64827 0.42252 0.10339 0.0
C644 C 0.64383 0.43573 0.09043 0.0
C645 C 0.63608 0.41674 0.12056 0.0
C646 C 0.64137 0.4045 0.13545 0.0
C647 C 0.66525 0.41352 0.14194 0.0
C648 C 0.67013 0.40188 0.15592 0.0
C649 C 0.65125 0.38127 0.16362 0.0
C650 C 0.62744 0.37229 0.15738 0.0
C651 C 0.62246 0.38386 0.14339 0.0
H652 H 0.65507 0.37228 0.17445 0.0
H653 H 0.61182 0.49244 0.04243 0.0
H654 H 0.44171 0.90295 0.54533 0.0
H655 H 0.41112 0.86293 0.55463 0.0
H656 H 0.40522 0.83906 0.49817 0.0
H657 H 0.43542 0.87909 0.4888 0.0
H658 H 0.36196 0.82323 0.51167 0.0
H659 H 0.43444 0.82597 0.53281 0.0
H660 H 0.47309 0.84196 0.55004 0.0
H661 H 0.4362 0.83332 0.60125 0.0
H662 H 0.39735 0.81755 0.5843 0.0
H663 H 0.30132 0.70003 0.52357 0.0
H664 H 0.3313 0.74126 0.51759 0.0
H665 H 0.32501 0.75936 0.57376 0.0
H666 H 0.29488 0.71794 0.57993 0.0
H667 H 0.37302 0.77888 0.56238 0.0
H668 H 0.29986 0.77374 0.54048 0.0
H669 H 0.26155 0.75658 0.52263 0.0
H670 H 0.30049 0.76882 0.47196 0.0
H671 H 0.33902 0.78577 0.48952 0.0
C672 C 0.43411 0.88905 0.53499 0.0
C673 C 0.44087 0.89406 0.51635 0.0
C674 C 0.41665 0.86622 0.5403 0.0
C675 C 0.40597 0.84796 0.52711 0.0
C676 C 0.41312 0.85289 0.50857 0.0
C677 C 0.43038 0.87572 0.50323 0.0
C678 C 0.38665 0.82388 0.5324 0.0
C679 C 0.36452 0.81346 0.52262 0.0
C680 C 0.3897 0.81136 0.54705 0.0
C681 C 0.41303 0.82082 0.55726 0.0
C682 C 0.4346 0.82766 0.54773 0.0
C683 C 0.45654 0.83665 0.55745 0.0
C684 C 0.45711 0.83872 0.57672 0.0
C685 C 0.43573 0.83174 0.58632 0.0
C686 C 0.41375 0.82276 0.57667 0.0
C687 C 0.3062 0.71276 0.53466 0.0
C688 C 0.2957 0.70574 0.55222 0.0
C689 C 0.32329 0.73632 0.53119 0.0
C690 C 0.33021 0.75333 0.5452 0.0
C691 C 0.31983 0.74645 0.56277 0.0
C692 C 0.30257 0.72284 0.56624 0.0
C693 C 0.34861 0.77823 0.54143 0.0
C694 C 0.3705 0.78879 0.55151 0.0
C695 C 0.34544 0.79082 0.52697 0.0
C696 C 0.32231 0.78086 0.51634 0.0
C697 C 0.30024 0.77263 0.52554 0.0
C698 C 0.27849 0.76296 0.51547 0.0
C699 C 0.27858 0.76156 0.49618 0.0
C700 C 0.30044 0.7699 0.48691 0.0
C701 C 0.32225 0.77957 0.49691 0.0
H702 H 0.26172 0.75405 0.48841 0.0
H703 H 0.47412 0.84568 0.58422 0.0
H704 H 0.5942 0.47576 0.68323 0.0
H705 H 0.60385 0.44878 0.69882 0.0
H706 H 0.53085 0.39122 0.68866 0.0
H707 H 0.52061 0.41825 0.67422 0.0
H708 H 0.54378 0.38784 0.72198 0.0
H709 H 0.58052 0.40048 0.66223 0.0
H710 H 0.60679 0.42386 0.63647 0.0
H711 H 0.6692 0.45225 0.67248 0.0
H712 H 0.64324 0.42925 0.69853 0.0
H713 H 0.56278 0.29078 0.72873 0.0
H714 H 0.55403 0.32094 0.71855 0.0
H715 H 0.62375 0.37533 0.73943 0.0
H716 H 0.63261 0.34535 0.74979 0.0
H717 H 0.61414 0.38189 0.70253 0.0
H718 H 0.57594 0.36568 0.76181 0.0
H719 H 0.54857 0.34047 0.78641 0.0
H720 H 0.48741 0.31649 0.74959 0.0
H721 H 0.51446 0.34131 0.72467 0.0
C722 C 0.58011 0.45741 0.68448 0.0
C723 C 0.55666 0.44919 0.6773 0.0
C724 C 0.58574 0.44194 0.69322 0.0
C725 C 0.56818 0.41788 0.69467 0.0
C726 C 0.54474 0.40968 0.68766 0.0
C727 C 0.53901 0.42515 0.67915 0.0
C728 C 0.57407 0.40112 0.70346 0.0
C729 C 0.55903 0.38639 0.71758 0.0
C730 C 0.59426 0.39953 0.69801 0.0
C731 C 0.6099 0.41335 0.68237 0.0
C732 C 0.59982 0.41185 0.66469 0.0
C733 C 0.61466 0.425 0.65003 0.0
C734 C 0.63964 0.43958 0.65285 0.0
C735 C 0.64984 0.44098 0.67032 0.0
C736 C 0.63508 0.42788 0.68503 0.0
C737 C 0.57613 0.30914 0.73135 0.0
C738 C 0.59841 0.31568 0.74002 0.0
C739 C 0.57108 0.32633 0.72557 0.0
C740 C 0.58825 0.35032 0.72828 0.0
C741 C 0.61029 0.35689 0.73723 0.0
C742 C 0.61526 0.33972 0.7432 0.0
C743 C 0.58371 0.36854 0.72084 0.0
C744 C 0.59901 0.3835 0.70698 0.0
C745 C 0.56358 0.3701 0.72633 0.0
C746 C 0.54726 0.3552 0.74132 0.0
C747 C 0.55668 0.35488 0.7589 0.0
C748 C 0.54122 0.34069 0.77292 0.0
C749 C 0.51628 0.32684 0.76956 0.0
C750 C 0.50674 0.32721 0.75217 0.0
C751 C 0.52212 0.34135 0.7381 0.0
H752 H 0.50434 0.31587 0.78043 0.0
H753 H 0.6511 0.44975 0.64148 0.0
H754 H 0.13382 0.57409 0.85291 0.0
H755 H 0.17589 0.58867 0.86232 0.0
H756 H 0.16283 0.51798 0.85952 0.0
H757 H 0.12103 0.50332 0.84969 0.0
H758 H 0.18706 0.54181 0.89176 0.0
H759 H 0.19257 0.55484 0.82578 0.0
H760 H 0.18626 0.57047 0.79662 0.0
H761 H 0.22852 0.641 0.81804 0.0
H762 H 0.23478 0.62575 0.84745 0.0
H763 H 0.3078 0.56568 0.89535 0.0
H764 H 0.26557 0.55212 0.88739 0.0
H765 H 0.28356 0.6243 0.88186 0.0
H766 H 0.32593 0.63788 0.88904 0.0
H767 H 0.25635 0.60032 0.85441 0.0
H768 H 0.25172 0.58847 0.92004 0.0
H769 H 0.25767 0.57366 0.94977 0.0
H770 H 0.21366 0.50243 0.93014 0.0
H771 H 0.2077 0.51683 0.9002 0.0
C772 C 0.13997 0.56168 0.8541 0.0
C773 C 0.12404 0.53753 0.85058 0.0
C774 C 0.16396 0.57003 0.85956 0.0
C775 C 0.17241 0.55437 0.86156 0.0
C776 C 0.15657 0.53029 0.85816 0.0
C777 C 0.13266 0.52196 0.85261 0.0
C778 C 0.19782 0.56305 0.86715 0.0
C779 C 0.20226 0.55443 0.88353 0.0
C780 C 0.21754 0.57994 0.85661 0.0
C781 C 0.21393 0.58913 0.83889 0.0
C782 C 0.20035 0.57367 0.82433 0.0
C783 C 0.19681 0.58246 0.80775 0.0
C784 C 0.20693 0.60671 0.8055 0.0
C785 C 0.22066 0.62222 0.81981 0.0
C786 C 0.22422 0.61352 0.83644 0.0
C787 C 0.30269 0.57863 0.89256 0.0
C788 C 0.32013 0.60282 0.8928 0.0
C789 C 0.27853 0.57088 0.88809 0.0
C790 C 0.27129 0.5872 0.88426 0.0
C791 C 0.28869 0.61138 0.88473 0.0
C792 C 0.31289 0.61911 0.88887 0.0
C793 C 0.24577 0.57913 0.87912 0.0
C794 C 0.24125 0.58781 0.86277 0.0
C795 C 0.22598 0.56246 0.8898 0.0
C796 C 0.22945 0.55375 0.90782 0.0
C797 C 0.24345 0.56966 0.92202 0.0
C798 C 0.2468 0.56133 0.93892 0.0
C799 C 0.2361 0.53712 0.94183 0.0
C800 C 0.22196 0.52118 0.92786 0.0
C801 C 0.21857 0.52941 0.91094 0.0
H802 H 0.23872 0.53072 0.95491 0.0
H803 H 0.20417 0.61348 0.79265 0.0
H804 H 0.602 0.12218 0.01136 0.0
H805 H 0.63153 0.16182 0.02225 0.0
H806 H 0.5756 0.17923 0.02381 0.0
H807 H 0.54558 0.13922 0.01359 0.0
H808 H 0.62063 0.21402 0.00679 0.0
H809 H 0.59113 0.16798 0.06252 0.0
H810 H 0.58134 0.13418 0.08266 0.0
H811 H 0.65596 0.15308 0.08279 0.0
H812 H 0.66613 0.18681 0.0624 0.0
H813 H 0.68397 0.32003 0.05712 0.0
H814 H 0.65371 0.28035 0.04688 0.0
H815 H 0.70485 0.2576 0.05641 0.0
H816 H 0.73504 0.29723 0.06732 0.0
H817 H 0.66195 0.22509 0.06759 0.0
H818 H 0.69246 0.27016 0.01228 0.0
H819 H 0.70366 0.30339 0.99111 0.0
H820 H 0.62953 0.28599 0.98866 0.0
H821 H 0.61794 0.25283 0.01002 0.0
C822 C 0.59586 0.13431 0.01419 0.0
C823 C 0.57132 0.12739 0.01181 0.0
C824 C 0.61281 0.15699 0.0203 0.0
C825 C 0.60563 0.17326 0.02397 0.0
C826 C 0.5814 0.16681 0.02103 0.0
C827 C 0.56433 0.144 0.0151 0.0
C828 C 0.62344 0.19691 0.03121 0.0
C829 C 0.62945 0.21656 0.02019 0.0
C830 C 0.6354 0.19995 0.04842 0.0
C831 C 0.62934 0.17978 0.06078 0.0
C832 C 0.60541 0.16481 0.06671 0.0
C833 C 0.5998 0.14569 0.07819 0.0
C834 C 0.618 0.14145 0.08396 0.0
C835 C 0.64187 0.15637 0.07829 0.0
C836 C 0.64757 0.1755 0.06678 0.0
C837 C 0.68877 0.30657 0.05708 0.0
C838 C 0.71193 0.31176 0.06287 0.0
C839 C 0.67148 0.28392 0.05114 0.0
C840 C 0.67719 0.26614 0.05048 0.0
C841 C 0.70011 0.2711 0.05672 0.0
C842 C 0.71733 0.29373 0.06293 0.0
C843 C 0.65923 0.24242 0.04319 0.0
C844 C 0.65318 0.22269 0.05419 0.0
C845 C 0.64748 0.23927 0.02581 0.0
C846 C 0.65437 0.25914 0.0129 0.0
C847 C 0.67858 0.27352 0.00733 0.0
C848 C 0.68499 0.29233 0.99528 0.0
C849 C 0.66733 0.29684 0.98858 0.0
C850 C 0.6432 0.2825 0.99388 0.0
C851 C 0.63669 0.26368 0.00595 0.0
H852 H 0.67233 0.3114 0.97925 0.0
H853 H 0.61362 0.12664 0.09285 0.0
H854 H 0.40873 0.55635 0.17506 0.0
H855 H 0.39582 0.58339 0.18557 0.0
H856 H 0.4703 0.63651 0.19726 0.0
H857 H 0.48326 0.60956 0.18692 0.0
H858 H 0.43854 0.63239 0.2251 0.0
H859 H 0.44536 0.64019 0.15866 0.0
H860 H 0.4367 0.62546 0.12648 0.0
H861 H 0.36084 0.59859 0.13436 0.0
H862 H 0.36901 0.61287 0.16669 0.0
H863 H 0.43051 0.73507 0.23025 0.0
H864 H 0.44098 0.70547 0.22251 0.0
H865 H 0.36722 0.6577 0.20454 0.0
H866 H 0.35681 0.68739 0.21176 0.0
H867 H 0.39721 0.65759 0.18048 0.0
H868 H 0.38975 0.65061 0.24633 0.0
H869 H 0.39762 0.6645 0.27873 0.0
H870 H 0.47317 0.6886 0.27259 0.0
H871 H 0.4658 0.67513 0.24006 0.0
C872 C 0.42228 0.57371 0.18005 0.0
C873 C 0.44699 0.58096 0.18006 0.0
C874 C 0.41492 0.58914 0.18595 0.0
C875 C 0.43216 0.61197 0.19203 0.0
C876 C 0.45675 0.61897 0.19258 0.0
C877 C 0.46413 0.60365 0.18655 0.0
C878 C 0.42471 0.62889 0.19728 0.0
C879 C 0.4297 0.63811 0.21533 0.0
C880 C 0.41269 0.63584 0.18461 0.0
C881 C 0.40777 0.62737 0.16515 0.0
C882 C 0.42681 0.63096 0.15358 0.0
C883 C 0.42199 0.62273 0.13531 0.0
C884 C 0.39823 0.61103 0.1284 0.0
C885 C 0.37923 0.60761 0.13974 0.0
C886 C 0.38395 0.61578 0.15804 0.0
C887 C 0.41652 0.71824 0.22469 0.0
C888 C 0.39284 0.71357 0.22161 0.0
C889 C 0.42249 0.70129 0.22036 0.0
C890 C 0.4048 0.67924 0.21316 0.0
C891 C 0.38116 0.67457 0.21008 0.0
C892 C 0.37524 0.69157 0.21425 0.0
C893 C 0.41105 0.66124 0.20837 0.0
C894 C 0.40589 0.65182 0.19035 0.0
C895 C 0.42277 0.65399 0.22113 0.0
C896 C 0.42725 0.66205 0.24071 0.0
C897 C 0.40807 0.65903 0.25185 0.0
C898 C 0.41244 0.6668 0.27025 0.0
C899 C 0.43589 0.67748 0.2777 0.0
C900 C 0.45502 0.68035 0.26679 0.0
C901 C 0.45075 0.67263 0.24838 0.0
H902 H 0.43923 0.68349 0.29195 0.0
H903 H 0.39454 0.60467 0.11425 0.0
H904 H 0.89017 0.49829 0.35557 0.0
H905 H 0.84994 0.48633 0.36715 0.0
H906 H 0.82917 0.41328 0.36265 0.0
H907 H 0.86941 0.42517 0.35069 0.0
H908 H 0.7956 0.42208 0.34712 0.0
H909 H 0.83947 0.43866 0.40456 0.0
H910 H 0.87284 0.46241 0.42662 0.0
H911 H 0.85444 0.51621 0.42623 0.0
H912 H 0.82115 0.49293 0.40395 0.0
H913 H 0.68276 0.37888 0.39006 0.0
H914 H 0.72372 0.38778 0.38345 0.0
H915 H 0.75087 0.46193 0.39143 0.0
H916 H 0.70993 0.45303 0.39868 0.0
H917 H 0.78127 0.45077 0.40627 0.0
H918 H 0.73996 0.43657 0.3476 0.0
H919 H 0.70708 0.41414 0.32483 0.0
H920 H 0.72131 0.35752 0.32664 0.0
H921 H 0.75409 0.3795 0.34962 0.0
C922 C 0.87703 0.47967 0.35703 0.0
C923 C 0.88286 0.46264 0.35214 0.0
C924 C 0.85414 0.47288 0.36381 0.0
C925 C 0.83667 0.44893 0.3659 0.0
C926 C 0.84247 0.43186 0.36119 0.0
C927 C 0.86545 0.43866 0.35447 0.0
C928 C 0.812 0.44182 0.37215 0.0
C929 C 0.79238 0.42797 0.36021 0.0
C930 C 0.80799 0.45013 0.38898 0.0
C931 C 0.82793 0.46412 0.40246 0.0
C932 C 0.84265 0.45564 0.40906 0.0
C933 C 0.86153 0.469 0.42163 0.0
C934 C 0.86579 0.49083 0.4278 0.0
C935 C 0.85113 0.49931 0.42143 0.0
C936 C 0.83223 0.48602 0.40885 0.0
C937 C 0.69745 0.39709 0.39046 0.0
C938 C 0.69311 0.4153 0.39472 0.0
C939 C 0.72085 0.40215 0.38663 0.0
C940 C 0.74029 0.42556 0.38658 0.0
C941 C 0.73612 0.44374 0.39132 0.0
C942 C 0.71272 0.43864 0.39542 0.0
C943 C 0.76484 0.43111 0.38118 0.0
C944 C 0.78445 0.44471 0.39325 0.0
C945 C 0.76891 0.42276 0.36437 0.0
C946 C 0.74931 0.40958 0.35046 0.0
C947 C 0.73597 0.41927 0.34324 0.0
C948 C 0.71736 0.40664 0.33028 0.0
C949 C 0.71206 0.38439 0.32433 0.0
C950 C 0.72541 0.37474 0.33128 0.0
C951 C 0.74401 0.38728 0.34426 0.0
H952 H 0.69765 0.37464 0.31431 0.0
H953 H 0.88042 0.50115 0.43753 0.0
H954 H 0.09922 0.52152 0.39 0.0
H955 H 0.12662 0.53379 0.41685 0.0
H956 H 0.10819 0.58606 0.43058 0.0
H957 H 0.08103 0.57406 0.4036 0.0
H958 H 0.15539 0.60395 0.43456 0.0
H959 H 0.08357 0.53308 0.45377 0.0
H960 H 0.05108 0.49131 0.45156 0.0
H961 H 0.10401 0.47031 0.45427 0.0
H962 H 0.13686 0.512 0.45624 0.0
H963 H 0.19487 0.62559 0.52809 0.0
H964 H 0.16988 0.61319 0.49997 0.0
H965 H 0.19545 0.56629 0.48648 0.0
H966 H 0.22048 0.57851 0.51469 0.0
H967 H 0.14601 0.54549 0.48187 0.0
H968 H 0.21778 0.61711 0.46404 0.0
H969 H 0.2496 0.65903 0.46702 0.0
H970 H 0.19582 0.67879 0.4625 0.0
H971 H 0.16362 0.63694 0.45975 0.0
C972 C 0.10097 0.53557 0.3988 0.0
C973 C 0.08792 0.54677 0.39478 0.0
C974 C 0.11661 0.54256 0.41413 0.0
C975 C 0.11919 0.56062 0.42588 0.0
C976 C 0.10649 0.57209 0.4217 0.0
C977 C 0.09101 0.56525 0.40628 0.0
C978 C 0.13497 0.56746 0.44262 0.0
C979 C 0.15315 0.5912 0.445 0.0
C980 C 0.13241 0.55075 0.45606 0.0
C981 C 0.11268 0.52567 0.45495 0.0
C982 C 0.08829 0.51956 0.45375 0.0
C983 C 0.06981 0.4959 0.45257 0.0
C984 C 0.07548 0.47817 0.45273 0.0
C985 C 0.09965 0.48407 0.45412 0.0
C986 C 0.1182 0.50771 0.45528 0.0
C987 C 0.19517 0.6126 0.51918 0.0
C988 C 0.20973 0.60308 0.5236 0.0
C989 C 0.18095 0.60562 0.50307 0.0
C990 C 0.18105 0.58903 0.49105 0.0
C991 C 0.19521 0.57917 0.49556 0.0
C992 C 0.20952 0.58622 0.51166 0.0
C993 C 0.16625 0.58195 0.47382 0.0
C994 C 0.14829 0.55818 0.47136 0.0
C995 C 0.16891 0.59866 0.46038 0.0
C996 C 0.18827 0.62386 0.46186 0.0
C997 C 0.21272 0.63038 0.46382 0.0
C998 C 0.23083 0.65413 0.46544 0.0
C999 C 0.22473 0.67156 0.465 0.0
C1000 C 0.20052 0.66527 0.46286 0.0
C1001 C 0.18233 0.64154 0.46125 0.0
H1002 H 0.23878 0.68995 0.46627 0.0
H1003 H 0.06115 0.45987 0.45181 0.0
H1004 H 0.54471 0.06447 0.58728 0.0
H1005 H 0.55381 0.08872 0.61499 0.0
H1006 H 0.55701 0.14465 0.58207 0.0
H1007 H 0.54903 0.12087 0.55406 0.0
H1008 H 0.59329 0.16185 0.60672 0.0
H1009 H 0.50732 0.10883 0.60854 0.0
H1010 H 0.46935 0.07016 0.60778 0.0
H1011 H 0.49249 0.04881 0.65609 0.0
H1012 H 0.53076 0.08724 0.65698 0.0
H1013 H 0.58769 0.22697 0.68277 0.0
H1014 H 0.57856 0.20383 0.65431 0.0
H1015 H 0.5774 0.14739 0.6851 0.0
H1016 H 0.58624 0.17028 0.71368 0.0
H1017 H 0.53949 0.13104 0.66118 0.0
H1018 H 0.62582 0.18397 0.65889 0.0
H1019 H 0.6637 0.22271 0.65957 0.0
H1020 H 0.63952 0.2444 0.61206 0.0
H1021 H 0.60133 0.20588 0.61125 0.0
C1022 C 0.54765 0.08204 0.58586 0.0
C1023 C 0.54613 0.09071 0.56842 0.0
C1024 C 0.55256 0.09578 0.60177 0.0
C1025 C 0.55571 0.11835 0.60064 0.0
C1026 C 0.5545 0.12721 0.58326 0.0
C1027 C 0.54972 0.11352 0.5673 0.0
C1028 C 0.56043 0.13273 0.61762 0.0
C1029 C 0.58133 0.15526 0.61853 0.0
C1030 C 0.54508 0.12393 0.63317 0.0
C1031 C 0.522 0.10085 0.63273 0.0
C1032 C 0.50439 0.09583 0.61892 0.0
C1033 C 0.4828 0.07396 0.61848 0.0
C1034 C 0.47853 0.05702 0.63185 0.0
C1035 C 0.49583 0.06194 0.64573 0.0
C1036 C 0.51746 0.08377 0.64622 0.0
C1037 C 0.58549 0.20963 0.68351 0.0
C1038 C 0.58775 0.20048 0.70049 0.0
C1039 C 0.58037 0.19647 0.66721 0.0
C1040 C 0.57756 0.174 0.66757 0.0
C1041 C 0.57953 0.16472 0.68453 0.0
C1042 C 0.58465 0.17785 0.70083 0.0
C1043 C 0.5724 0.16007 0.6503 0.0
C1044 C 0.5514 0.13764 0.64935 0.0
C1045 C 0.58762 0.16898 0.63471 0.0
C1046 C 0.61061 0.19212 0.63513 0.0
C1047 C 0.6285 0.19707 0.64868 0.0
C1048 C 0.65004 0.21898 0.64907 0.0
C1049 C 0.65399 0.23603 0.6359 0.0
C1050 C 0.63642 0.23119 0.62227 0.0
C1051 C 0.61484 0.20931 0.62183 0.0
H1052 H 0.67067 0.25299 0.63623 0.0
H1053 H 0.46181 0.0401 0.63148 0.0
H1054 H 0.50037 0.56024 0.7391 0.0
H1055 H 0.48744 0.57342 0.7659 0.0
H1056 H 0.44393 0.58961 0.73004 0.0
H1057 H 0.45636 0.57589 0.70328 0.0
H1058 H 0.49119 0.61278 0.77688 0.0
H1059 H 0.39257 0.57738 0.75149 0.0
H1060 H 0.36184 0.54592 0.73123 0.0
H1061 H 0.39489 0.50456 0.74054 0.0
H1062 H 0.4256 0.53561 0.76103 0.0
H1063 H 0.43534 0.65345 0.83918 0.0
H1064 H 0.45107 0.64465 0.81156 0.0
H1065 H 0.40499 0.57017 0.82197 0.0
H1066 H 0.38848 0.57888 0.84894 0.0
H1067 H 0.40307 0.57666 0.78768 0.0
H1068 H 0.46851 0.60282 0.83171 0.0
H1069 H 0.49931 0.63017 0.85419 0.0
H1070 H 0.53262 0.68259 0.81187 0.0
H1071 H 0.50183 0.65564 0.78918 0.0
C1072 C 0.48821 0.56681 0.73695 0.0
C1073 C 0.47917 0.56686 0.71917 0.0
C1074 C 0.48086 0.57436 0.75225 0.0
C1075 C 0.46445 0.58219 0.75002 0.0
C1076 C 0.4562 0.58317 0.73215 0.0
C1077 C 0.4633 0.57534 0.71688 0.0
C1078 C 0.45524 0.58842 0.76647 0.0
C1079 C 0.47193 0.60494 0.77923 0.0
C1080 C 0.43011 0.57786 0.76974 0.0
C1081 C 0.41153 0.55894 0.75762 0.0
C1082 C 0.39322 0.56153 0.74925 0.0
C1083 C 0.37581 0.54378 0.73773 0.0
C1084 C 0.37646 0.52329 0.73455 0.0
C1085 C 0.39446 0.52047 0.74295 0.0
C1086 C 0.41188 0.53815 0.75451 0.0
C1087 C 0.42862 0.63523 0.83553 0.0
C1088 C 0.41068 0.61685 0.84618 0.0
C1089 C 0.43769 0.6302 0.81981 0.0
C1090 C 0.42944 0.60672 0.81476 0.0
C1091 C 0.41159 0.58842 0.82549 0.0
C1092 C 0.40219 0.59342 0.84094 0.0
C1093 C 0.43901 0.60101 0.79821 0.0
C1094 C 0.42236 0.58463 0.78534 0.0
C1095 C 0.46416 0.6111 0.79521 0.0
C1096 C 0.48273 0.62731 0.8088 0.0
C1097 C 0.48231 0.62024 0.82723 0.0
C1098 C 0.49978 0.63566 0.84 0.0
C1099 C 0.51787 0.65813 0.83447 0.0
C1100 C 0.51858 0.6652 0.81614 0.0
C1101 C 0.50113 0.64986 0.80332 0.0
H1102 H 0.53138 0.67004 0.84438 0.0
H1103 H 0.36299 0.50958 0.7256 0.0
H1104 H 0.91124 0.41999 0.89913 0.0
H1105 H 0.8836 0.40994 0.92506 0.0
H1106 H 0.88758 0.47677 0.91983 0.0
H1107 H 0.91582 0.48723 0.89413 0.0
H1108 H 0.89212 0.46707 0.95559 0.0
H1109 H 0.83759 0.42737 0.90523 0.0
H1110 H 0.82145 0.40163 0.8777 0.0
H1111 H 0.81068 0.34258 0.91001 0.0
H1112 H 0.8271 0.36805 0.93769 0.0
H1113 H 0.7948 0.43152 0.01949 0.0
H1114 H 0.81892 0.44509 0.99124 0.0
H1115 H 0.82355 0.38237 0.99069 0.0
H1116 H 0.79949 0.36867 0.01875 0.0
H1117 H 0.81245 0.39241 0.95645 0.0
H1118 H 0.87046 0.43321 0.00595 0.0
H1119 H 0.88685 0.45908 0.0334 0.0
H1120 H 0.8908 0.5163 0.00238 0.0
H1121 H 0.87409 0.49064 0.97479 0.0
C1122 C 0.90634 0.4326 0.90356 0.0
C1123 C 0.91569 0.45439 0.89459 0.0
C1124 C 0.89037 0.42675 0.91826 0.0
C1125 C 0.88333 0.4425 0.92421 0.0
C1126 C 0.89271 0.46433 0.91537 0.0
C1127 C 0.90868 0.47019 0.90062 0.0
C1128 C 0.86659 0.43628 0.93997 0.0
C1129 C 0.8745 0.45097 0.95566 0.0
C1130 C 0.84376 0.41511 0.94012 0.0
C1131 C 0.83376 0.39968 0.92351 0.0
C1132 C 0.83195 0.40894 0.90644 0.0
C1133 C 0.82272 0.39439 0.89081 0.0
C1134 C 0.81509 0.37049 0.89209 0.0
C1135 C 0.81662 0.36109 0.90903 0.0
C1136 C 0.82586 0.37558 0.9247 0.0
C1137 C 0.80094 0.42062 0.01332 0.0
C1138 C 0.79531 0.39906 0.02138 0.0
C1139 C 0.81474 0.42842 0.99723 0.0
C1140 C 0.82309 0.41477 0.98895 0.0
C1141 C 0.81723 0.39314 0.99685 0.0
C1142 C 0.80357 0.3854 0.01295 0.0
C1143 C 0.83819 0.42297 0.97216 0.0
C1144 C 0.82995 0.40865 0.95628 0.0
C1145 C 0.86067 0.44449 0.97182 0.0
C1146 C 0.87075 0.45993 0.98838 0.0
C1147 C 0.87462 0.45125 0.00503 0.0
C1148 C 0.88401 0.46588 0.0206 0.0
C1149 C 0.88979 0.4893 0.01965 0.0
C1150 C 0.88626 0.49815 0.0031 0.0
C1151 C 0.87684 0.48357 0.98749 0.0
H1152 H 0.89706 0.50061 0.03172 0.0
H1153 H 0.80795 0.35926 0.87998 0.0
H1154 H 0.42285 0.89956 0.05209 0.0
H1155 H 0.41203 0.87527 0.07998 0.0
H1156 H 0.46394 0.9358 0.11186 0.0
H1157 H 0.47422 0.96039 0.08436 0.0
H1158 H 0.46823 0.89548 0.11598 0.0
H1159 H 0.40726 0.91733 0.11735 0.0
H1160 H 0.37338 0.92046 0.1045 0.0
H1161 H 0.33035 0.84518 0.09879 0.0
H1162 H 0.36414 0.84163 0.11136 0.0
H1163 H 0.44367 0.85777 0.20796 0.0
H1164 H 0.44911 0.87888 0.17903 0.0
H1165 H 0.38843 0.81666 0.15465 0.0
H1166 H 0.3825 0.79549 0.18377 0.0
H1167 H 0.38721 0.85501 0.14511 0.0
H1168 H 0.44622 0.83206 0.14438 0.0
H1169 H 0.4797 0.82767 0.15635 0.0
H1170 H 0.52602 0.9029 0.15941 0.0
H1171 H 0.49271 0.90776 0.14771 0.0
C1172 C 0.43167 0.90781 0.06509 0.0
C1173 C 0.44956 0.93193 0.06592 0.0
C1174 C 0.42553 0.89387 0.08098 0.0
C1175 C 0.43726 0.90378 0.09791 0.0
C1176 C 0.45484 0.92783 0.09885 0.0
C1177 C 0.46078 0.9418 0.08308 0.0
C1178 C 0.43188 0.88904 0.11461 0.0
C1179 C 0.4506 0.88682 0.12248 0.0
C1180 C 0.40864 0.87712 0.12263 0.0
C1181 C 0.38833 0.87924 0.11508 0.0
C1182 C 0.39066 0.90146 0.11318 0.0
C1183 C 0.37146 0.90331 0.10599 0.0
C1184 C 0.34976 0.88304 0.10077 0.0
C1185 C 0.34719 0.86087 0.10279 0.0
C1186 C 0.36635 0.85893 0.10996 0.0
C1187 C 0.43142 0.84856 0.19648 0.0
C1188 C 0.41276 0.8249 0.19812 0.0
C1189 C 0.43461 0.86063 0.17992 0.0
C1190 C 0.41944 0.84922 0.16458 0.0
C1191 C 0.4004 0.82577 0.1663 0.0
C1192 C 0.39709 0.8137 0.18293 0.0
C1193 C 0.42373 0.86179 0.14673 0.0
C1194 C 0.40482 0.86355 0.13858 0.0
C1195 C 0.44676 0.87308 0.13829 0.0
C1196 C 0.46689 0.87026 0.14532 0.0
C1197 C 0.46349 0.84767 0.14774 0.0
C1198 C 0.48245 0.8451 0.15446 0.0
C1199 C 0.50496 0.86499 0.15868 0.0
C1200 C 0.50857 0.88751 0.15615 0.0
C1201 C 0.48966 0.89018 0.14946 0.0
H1202 H 0.51961 0.86296 0.16387 0.0
H1203 H 0.3349 0.8845 0.09522 0.0
H1204 H 0.56748 0.49854 0.22943 0.0
H1205 H 0.58115 0.48309 0.25437 0.0
H1206 H 0.51387 0.41642 0.25085 0.0
H1207 H 0.50028 0.43141 0.22541 0.0
H1208 H 0.52789 0.43349 0.28726 0.0
H1209 H 0.56142 0.41894 0.2338 0.0
H1210 H 0.58408 0.42888 0.20462 0.0
H1211 H 0.64884 0.48035 0.23317 0.0
H1212 H 0.62647 0.47097 0.2625 0.0
H1213 H 0.56949 0.37585 0.34734 0.0
H1214 H 0.55312 0.38519 0.32008 0.0
H1215 H 0.61941 0.45254 0.31574 0.0
H1216 H 0.63599 0.44328 0.34279 0.0
H1217 H 0.60375 0.43165 0.28219 0.0
H1218 H 0.5699 0.44846 0.33495 0.0
H1219 H 0.54748 0.43933 0.36421 0.0
H1220 H 0.48358 0.38433 0.33704 0.0
H1221 H 0.50575 0.39292 0.30765 0.0
C1222 C 0.55567 0.48048 0.23374 0.0
C1223 C 0.5328 0.46619 0.2253 0.0
C1224 C 0.56348 0.47173 0.24808 0.0
C1225 C 0.54859 0.44857 0.25432 0.0
C1226 C 0.52561 0.43435 0.24621 0.0
C1227 C 0.51784 0.44302 0.23174 0.0
C1228 C 0.55708 0.43936 0.26943 0.0
C1229 C 0.54424 0.43267 0.28607 0.0
C1230 C 0.57864 0.43875 0.26792 0.0
C1231 C 0.5922 0.44439 0.25032 0.0
C1232 C 0.58045 0.43252 0.23383 0.0
C1233 C 0.59325 0.43803 0.21727 0.0
C1234 C 0.61787 0.45527 0.21703 0.0
C1235 C 0.62976 0.46701 0.23337 0.0
C1236 C 0.61703 0.46159 0.24998 0.0
C1237 C 0.58063 0.39259 0.34052 0.0
C1238 C 0.604 0.40888 0.34729 0.0
C1239 C 0.57122 0.39793 0.32499 0.0
C1240 C 0.58497 0.41966 0.31601 0.0
C1241 C 0.6085 0.43567 0.32247 0.0
C1242 C 0.6179 0.43038 0.33799 0.0
C1243 C 0.57475 0.42606 0.30014 0.0
C1244 C 0.58728 0.43224 0.28334 0.0
C1245 C 0.55294 0.42628 0.30153 0.0
C1246 C 0.53956 0.42115 0.31916 0.0
C1247 C 0.55113 0.43429 0.33525 0.0
C1248 C 0.53846 0.42924 0.35185 0.0
C1249 C 0.51415 0.41121 0.3525 0.0
C1250 C 0.50243 0.39825 0.33653 0.0
C1251 C 0.51503 0.40321 0.31989 0.0
H1252 H 0.50437 0.40733 0.36537 0.0
H1253 H 0.62776 0.4595 0.20419 0.0
H1254 H 0.5016 0.96133 0.3926 0.0
H1255 H 0.48953 0.9335 0.36677 0.0
H1256 H 0.45897 0.87547 0.40514 0.0
H1257 H 0.47127 0.90326 0.43105 0.0
H1258 H 0.48277 0.86816 0.37852 0.0
H1259 H 0.42296 0.89069 0.38111 0.0
H1260 H 0.40813 0.91838 0.38191 0.0
H1261 H 0.43963 0.94551 0.32883 0.0
H1262 H 0.45495 0.91819 0.32783 0.0
H1263 H 0.40506 0.77736 0.31468 0.0
H1264 H 0.42264 0.80549 0.34034 0.0
H1265 H 0.45504 0.86294 0.30151 0.0
H1266 H 0.43733 0.83499 0.27578 0.0
H1267 H 0.43108 0.87069 0.32821 0.0
H1268 H 0.48964 0.84641 0.32553 0.0
H1269 H 0.50337 0.81785 0.3251 0.0
H1270 H 0.4727 0.7928 0.37874 0.0
H1271 H 0.45849 0.821 0.37939 0.0
C1272 C 0.49228 0.94263 0.39551 0.0
C1273 C 0.48723 0.93444 0.41382 0.0
C1274 C 0.4854 0.92676 0.38076 0.0
C1275 C 0.47302 0.90239 0.38402 0.0
C1276 C 0.4685 0.89419 0.40232 0.0
C1277 C 0.47555 0.91008 0.41709 0.0
C1278 C 0.46431 0.88544 0.36834 0.0
C1279 C 0.47125 0.86853 0.36762 0.0
C1280 C 0.44961 0.88619 0.35395 0.0
C1281 C 0.44031 0.90256 0.35448 0.0
C1282 C 0.42688 0.90269 0.36967 0.0
C1283 C 0.41836 0.91829 0.37015 0.0
C1284 C 0.42299 0.93374 0.35545 0.0
C1285 C 0.43609 0.93356 0.34022 0.0
C1286 C 0.44468 0.91801 0.33968 0.0
C1287 C 0.41613 0.79596 0.31159 0.0
C1288 C 0.41973 0.80394 0.29319 0.0
C1289 C 0.42624 0.812 0.32627 0.0
C1290 C 0.44025 0.83629 0.32282 0.0
C1291 C 0.44427 0.84426 0.30447 0.0
C1292 C 0.43417 0.82825 0.28978 0.0
C1293 C 0.44964 0.85348 0.33833 0.0
C1294 C 0.44272 0.87039 0.33905 0.0
C1295 C 0.46419 0.85259 0.35276 0.0
C1296 C 0.47281 0.83568 0.35243 0.0
C1297 C 0.48565 0.83468 0.33717 0.0
C1298 C 0.49356 0.81858 0.3369 0.0
C1299 C 0.48886 0.80348 0.35186 0.0
C1300 C 0.47631 0.80449 0.36715 0.0
C1301 C 0.46834 0.82055 0.36748 0.0
H1302 H 0.495 0.79102 0.35162 0.0
H1303 H 0.41637 0.94581 0.35585 0.0
H1304 H 0.57125 0.47215 0.57719 0.0
H1305 H 0.58287 0.46039 0.54886 0.0
H1306 H 0.5365 0.47664 0.51673 0.0
H1307 H 0.52514 0.48883 0.54487 0.0
H1308 H 0.52968 0.43347 0.50804 0.0
H1309 H 0.59653 0.51281 0.5156 0.0
H1310 H 0.63046 0.54607 0.53237 0.0
H1311 H 0.66599 0.50648 0.53834 0.0
H1312 H 0.63209 0.47283 0.52183 0.0
H1313 H 0.5673 0.42316 0.41903 0.0
H1314 H 0.55953 0.43958 0.44655 0.0
H1315 H 0.60916 0.42733 0.47827 0.0
H1316 H 0.61743 0.41135 0.45073 0.0
H1317 H 0.61464 0.46897 0.48717 0.0
H1318 H 0.54797 0.38945 0.48066 0.0
H1319 H 0.51401 0.35556 0.46445 0.0
H1320 H 0.47807 0.39461 0.45727 0.0
H1321 H 0.51199 0.42887 0.47323 0.0
C1322 C 0.56377 0.47352 0.56407 0.0
C1323 C 0.54719 0.48135 0.56331 0.0
C1324 C 0.57039 0.46675 0.54791 0.0
C1325 C 0.56061 0.46776 0.53071 0.0
C1326 C 0.54416 0.47565 0.52989 0.0
C1327 C 0.53761 0.48248 0.546 0.0
C1328 C 0.56695 0.45995 0.5136 0.0
C1329 C 0.54821 0.44145 0.50332 0.0
C1330 C 0.59121 0.46998 0.50776 0.0
C1331 C 0.61165 0.49021 0.51764 0.0
C1332 C 0.61148 0.51112 0.52063 0.0
C1333 C 0.63072 0.53006 0.53006 0.0
C1334 C 0.65034 0.52837 0.53646 0.0
C1335 C 0.65077 0.50775 0.53339 0.0
C1336 C 0.63155 0.48875 0.52399 0.0
C1337 C 0.57668 0.42409 0.43183 0.0
C1338 C 0.59283 0.41578 0.43273 0.0
C1339 C 0.57216 0.43341 0.44756 0.0
C1340 C 0.58346 0.43431 0.46453 0.0
C1341 C 0.60019 0.42674 0.46533 0.0
C1342 C 0.60484 0.41755 0.44958 0.0
C1343 C 0.57734 0.44252 0.48157 0.0
C1344 C 0.5961 0.46103 0.49186 0.0
C1345 C 0.5531 0.43241 0.48751 0.0
C1346 C 0.53263 0.4118 0.47797 0.0
C1347 C 0.53291 0.39087 0.4755 0.0
C1348 C 0.51365 0.37159 0.46638 0.0
C1349 C 0.49392 0.37295 0.45979 0.0
C1350 C 0.49338 0.39359 0.46235 0.0
C1351 C 0.5126 0.41294 0.47145 0.0
H1352 H 0.47903 0.358 0.45273 0.0
H1353 H 0.66522 0.54305 0.54375 0.0
H1354 H 0.06084 0.52709 0.72639 0.0
H1355 H 0.09063 0.54581 0.70189 0.0
H1356 H 0.14838 0.56259 0.74115 0.0
H1357 H 0.11861 0.5443 0.76589 0.0
H1358 H 0.15829 0.60013 0.71927 0.0
H1359 H 0.13222 0.5189 0.71058 0.0
H1360 H 0.10275 0.47645 0.70658 0.0
H1361 H 0.076 0.49042 0.65643 0.0
H1362 H 0.10508 0.53301 0.66028 0.0
H1363 H 0.24782 0.63324 0.64904 0.0
H1364 H 0.22109 0.61502 0.67545 0.0
H1365 H 0.15871 0.59382 0.64003 0.0
H1366 H 0.18523 0.61169 0.61354 0.0
H1367 H 0.15309 0.55791 0.6611 0.0
H1368 H 0.17789 0.63928 0.67063 0.0
H1369 H 0.20718 0.68176 0.67475 0.0
H1370 H 0.2364 0.66747 0.72334 0.0
H1371 H 0.20748 0.62484 0.71937 0.0
C1372 C 0.07988 0.53482 0.72983 0.0
C1373 C 0.08739 0.53424 0.74806 0.0
C1374 C 0.09687 0.54534 0.71579 0.0
C1375 C 0.12169 0.55539 0.71968 0.0
C1376 C 0.12929 0.55486 0.73786 0.0
C1377 C 0.11227 0.54425 0.75193 0.0
C1378 C 0.13964 0.56688 0.70476 0.0
C1379 C 0.15745 0.59082 0.70667 0.0
C1380 C 0.13819 0.55481 0.6882 0.0
C1381 C 0.1207 0.52918 0.68581 0.0
C1382 C 0.11992 0.51295 0.69878 0.0
C1383 C 0.10331 0.48885 0.69652 0.0
C1384 C 0.08748 0.48075 0.68128 0.0
C1385 C 0.08826 0.49672 0.66824 0.0
C1386 C 0.10482 0.52085 0.67044 0.0
C1387 C 0.22843 0.62488 0.6469 0.0
C1388 C 0.21865 0.6239 0.62918 0.0
C1389 C 0.21318 0.61452 0.66202 0.0
C1390 C 0.18792 0.60315 0.65971 0.0
C1391 C 0.17816 0.60245 0.6421 0.0
C1392 C 0.19336 0.61277 0.62699 0.0
C1393 C 0.17153 0.59126 0.67547 0.0
C1394 C 0.15404 0.56721 0.67373 0.0
C1395 C 0.1733 0.60323 0.69217 0.0
C1396 C 0.1907 0.62885 0.69458 0.0
C1397 C 0.1907 0.64517 0.6821 0.0
C1398 C 0.20721 0.66928 0.68443 0.0
C1399 C 0.22369 0.6773 0.69926 0.0
C1400 C 0.22365 0.66123 0.71184 0.0
C1401 C 0.2072 0.63709 0.70956 0.0
H1402 H 0.23645 0.69598 0.70105 0.0
H1403 H 0.07463 0.46208 0.67956 0.0
H1404 H 0.50276 0.06452 0.89071 0.0
H1405 H 0.51589 0.09372 0.86601 0.0
H1406 H 0.56892 0.14681 0.903 0.0
H1407 H 0.55537 0.11787 0.92795 0.0
H1408 H 0.54498 0.16341 0.8835 0.0
H1409 H 0.58601 0.12192 0.87017 0.0
H1410 H 0.58941 0.08704 0.86436 0.0
H1411 H 0.54261 0.06928 0.81672 0.0
H1412 H 0.53865 0.10389 0.82239 0.0
H1413 H 0.61494 0.24833 0.81488 0.0
H1414 H 0.60088 0.21991 0.84018 0.0
H1415 H 0.5479 0.16616 0.80357 0.0
H1416 H 0.56206 0.19435 0.77812 0.0
H1417 H 0.57203 0.15011 0.82307 0.0
H1418 H 0.53114 0.19187 0.83649 0.0
H1419 H 0.52803 0.2269 0.84238 0.0
H1420 H 0.57497 0.24437 0.88992 0.0
H1421 H 0.57862 0.20961 0.88416 0.0
C1422 C 0.5171 0.08244 0.89362 0.0
C1423 C 0.52808 0.08886 0.91128 0.0
C1424 C 0.52473 0.09906 0.87945 0.0
C1425 C 0.54356 0.12238 0.88262 0.0
C1426 C 0.55441 0.12889 0.90025 0.0
C1427 C 0.5468 0.11229 0.91443 0.0
C1428 C 0.55183 0.14001 0.86755 0.0
C1429 C 0.5512 0.16066 0.87037 0.0
C1430 C 0.55946 0.13617 0.85029 0.0
C1431 C 0.56185 0.11537 0.84682 0.0
C1432 C 0.57628 0.11047 0.85854 0.0
C1433 C 0.57834 0.09077 0.85526 0.0
C1434 C 0.56618 0.07592 0.84021 0.0
C1435 C 0.55199 0.08078 0.82838 0.0
C1436 C 0.54985 0.10045 0.83162 0.0
C1437 C 0.60018 0.23051 0.81223 0.0
C1438 C 0.58961 0.22361 0.79448 0.0
C1439 C 0.59211 0.2143 0.82673 0.0
C1440 C 0.57321 0.19095 0.8238 0.0
C1441 C 0.56251 0.18408 0.80613 0.0
C1442 C 0.57058 0.20025 0.79163 0.0
C1443 C 0.56508 0.17348 0.83897 0.0
C1444 C 0.56577 0.15286 0.83619 0.0
C1445 C 0.55756 0.17737 0.85626 0.0
C1446 C 0.55534 0.19826 0.85978 0.0
C1447 C 0.54096 0.20329 0.84811 0.0
C1448 C 0.53907 0.22307 0.85145 0.0
C1449 C 0.55135 0.23789 0.86649 0.0
C1450 C 0.56549 0.2329 0.87826 0.0
C1451 C 0.56746 0.21315 0.87497 0.0
H1452 H 0.54986 0.25319 0.86905 0.0
H1453 H 0.5678 0.06068 0.83769 0.0
H1454 H 0.42816 0.51677 0.06502 0.0
H1455 H 0.41733 0.52893 0.03618 0.0
H1456 H 0.47328 0.60104 0.0469 0.0
H1457 H 0.48442 0.58892 0.07565 0.0
H1458 H 0.42561 0.59301 0.03464 0.0
H1459 H 0.48693 0.57466 0.01843 0.0
H1460 H 0.50438 0.54914 0.01743 0.0
H1461 H 0.44168 0.49643 0.98755 0.0
H1462 H 0.42368 0.52152 0.98863 0.0
H1463 H 0.43228 0.64292 0.94698 0.0
H1464 H 0.44153 0.63086 0.97638 0.0
H1465 H 0.40178 0.55825 0.95825 0.0
H1466 H 0.39345 0.57039 0.92847 0.0
H1467 H 0.44041 0.56586 0.9749 0.0
H1468 H 0.37851 0.5823 0.99001 0.0
H1469 H 0.35857 0.6056 0.99145 0.0
H1470 H 0.41811 0.65868 0.02377 0.0
H1471 H 0.43858 0.63585 0.02231 0.0
C1472 C 0.43794 0.53524 0.0613 0.0
C1473 C 0.45714 0.55194 0.07247 0.0
C1474 C 0.43182 0.54212 0.04484 0.0
C1475 C 0.4446 0.56583 0.03946 0.0
C1476 C 0.46325 0.58267 0.05088 0.0
C1477 C 0.46964 0.57573 0.0672 0.0
C1478 C 0.43909 0.57293 0.02154 0.0
C1479 C 0.42906 0.58735 0.02154 0.0
C1480 C 0.44296 0.56487 0.00456 0.0
C1481 C 0.45385 0.54986 0.00379 0.0
C1482 C 0.47676 0.55754 0.01179 0.0
C1483 C 0.48677 0.54317 0.01118 0.0
C1484 C 0.47412 0.52115 0.00248 0.0
C1485 C 0.45145 0.51348 0.99432 0.0
C1486 C 0.44134 0.52777 0.99491 0.0
C1487 C 0.42554 0.62439 0.94927 0.0
C1488 C 0.41207 0.60758 0.93546 0.0
C1489 C 0.4307 0.61749 0.96613 0.0
C1490 C 0.42193 0.59357 0.96972 0.0
C1491 C 0.4087 0.5768 0.95584 0.0
C1492 C 0.40392 0.58375 0.93883 0.0
C1493 C 0.42685 0.58609 0.98784 0.0
C1494 C 0.43681 0.57155 0.98793 0.0
C1495 C 0.42249 0.59373 0.00492 0.0
C1496 C 0.41018 0.60746 0.0059 0.0
C1497 C 0.38743 0.59902 0.99731 0.0
C1498 C 0.37602 0.61213 0.99815 0.0
C1499 C 0.38709 0.63364 0.00766 0.0
C1500 C 0.40957 0.64204 0.01639 0.0
C1501 C 0.42108 0.62901 0.01558 0.0
H1502 H 0.37823 0.64376 0.00829 0.0
H1503 H 0.4819 0.51005 0.00201 0.0
H1504 H 0.95221 0.48758 0.22225 0.0
H1505 H 0.92721 0.4742 0.19416 0.0
H1506 H 0.86375 0.43097 0.22685 0.0
H1507 H 0.88861 0.44462 0.25517 0.0
H1508 H 0.86637 0.4079 0.19536 0.0
H1509 H 0.8724 0.48126 0.21095 0.0
H1510 H 0.89379 0.52348 0.21916 0.0
H1511 H 0.93207 0.54072 0.16777 0.0
H1512 H 0.91115 0.49855 0.15938 0.0
H1513 H 0.7795 0.38787 0.12471 0.0
H1514 H 0.8036 0.39755 0.15321 0.0
H1515 H 0.86745 0.44752 0.12343 0.0
H1516 H 0.84335 0.43835 0.09497 0.0
H1517 H 0.86386 0.46664 0.15414 0.0
H1518 H 0.85854 0.39378 0.13832 0.0
H1519 H 0.83797 0.35164 0.12996 0.0
H1520 H 0.79931 0.3334 0.18119 0.0
H1521 H 0.81941 0.37547 0.18975 0.0
C1522 C 0.9329 0.47541 0.22352 0.0
C1523 C 0.92235 0.46738 0.24097 0.0
C1524 C 0.91867 0.46769 0.20744 0.0
C1525 C 0.89363 0.45181 0.20848 0.0
C1526 C 0.88308 0.44324 0.2258 0.0
C1527 C 0.89731 0.45103 0.24193 0.0
C1528 C 0.87848 0.44457 0.19144 0.0
C1529 C 0.86551 0.42065 0.18644 0.0
C1530 C 0.87788 0.46134 0.17966 0.0
C1531 C 0.89037 0.48673 0.18462 0.0
C1532 C 0.88552 0.49404 0.20147 0.0
C1533 C 0.89753 0.51796 0.20614 0.0
C1534 C 0.91432 0.53477 0.19401 0.0
C1535 C 0.91908 0.52768 0.17716 0.0
C1536 C 0.90713 0.50378 0.17243 0.0
C1537 C 0.79872 0.40077 0.12418 0.0
C1538 C 0.80952 0.4124 0.10759 0.0
C1539 C 0.8125 0.40621 0.14048 0.0
C1540 C 0.83738 0.42313 0.14043 0.0
C1541 C 0.84827 0.43443 0.1238 0.0
C1542 C 0.83448 0.42914 0.10753 0.0
C1543 C 0.85186 0.42992 0.15786 0.0
C1544 C 0.86468 0.45381 0.16299 0.0
C1545 C 0.85239 0.41311 0.16969 0.0
C1546 C 0.8403 0.3878 0.16459 0.0
C1547 C 0.8455 0.3808 0.14774 0.0
C1548 C 0.83395 0.35692 0.14298 0.0
C1549 C 0.81729 0.33986 0.15502 0.0
C1550 C 0.81219 0.34664 0.17187 0.0
C1551 C 0.82368 0.37049 0.17669 0.0
H1552 H 0.80837 0.32138 0.1513 0.0
H1553 H 0.92361 0.55328 0.19766 0.0
loop_
_geom_bond_atom_site_label_1
_geom_bond_atom_site_label_2
_geom_bond_distance
_geom_bond_site_symmetry_2
_ccdc_geom_bond_type
C0 C1 1.384 . S
C0 C2 1.384 . S
C0 H28 0.931 . S
C1 C0 1.384 . S
C1 C4 1.382 . S
C2 C0 1.384 . S
C2 C3 1.381 . S
C2 H29 0.930 . S
C3 C2 1.381 . S
C3 C5 1.381 . S
C3 C6 1.487 . S
C4 C1 1.382 . S
C4 C5 1.387 . S
C4 H30 0.930 . S
C5 C3 1.381 . S
C5 C4 1.387 . S
C5 H31 0.931 . S
C6 C3 1.487 . S
C6 C13 1.399 . S
C6 N44 1.343 . S
C7 C8 1.384 . S
C7 C9 1.384 . S
C7 H32 0.931 . S
C8 C7 1.384 . S
C8 C11 1.382 . S
C9 C7 1.384 . S
C9 C10 1.381 . S
C9 H33 0.930 . S
C10 C9 1.381 . S
C10 C12 1.381 . S
C10 C13 1.487 . S
C11 C8 1.382 . S
C11 C12 1.387 . S
C11 H34 0.930 . S
C12 C10 1.381 . S
C12 C11 1.387 . S
C12 H35 0.931 . S
C13 C6 1.399 . S
C13 C10 1.487 . S
C13 N45 1.343 1_655 S
C14 C15 1.384 . S
C14 C16 1.384 . S
C14 H36 0.931 . S
C15 C14 1.384 . S
C15 C18 1.382 . S
C16 C14 1.384 . S
C16 C17 1.381 . S
C16 H37 0.930 . S
C17 C16 1.381 . S
C17 C19 1.381 . S
C17 C20 1.487 . S
C18 C15 1.382 . S
C18 C19 1.387 . S
C18 H38 0.930 . S
C19 C17 1.381 . S
C19 C18 1.387 . S
C19 H39 0.931 . S
C20 C17 1.487 . S
C20 C27 1.399 . S
C20 N45 1.343 . S
C21 C22 1.384 . S
C21 C23 1.384 . S
C21 H40 0.931 . S
C22 C21 1.384 . S
C22 C25 1.382 . S
C23 C21 1.384 . S
C23 C24 1.381 . S
C23 H41 0.930 . S
C24 C23 1.381 . S
C24 C26 1.381 . S
C24 C27 1.487 . S
C25 C22 1.382 . S
C25 C26 1.387 . S
C25 H42 0.930 . S
C26 C24 1.381 . S
C26 C25 1.387 . S
C26 H43 0.931 . S
C27 C20 1.399 . S
C27 C24 1.487 . S
C27 N44 1.343 1_455 S
H28 C0 0.931 . S
H29 C2 0.930 . S
H30 C4 0.930 . S
H31 C5 0.931 . S
H32 C7 0.931 . S
H33 C9 0.930 . S
H34 C11 0.930 . S
H35 C12 0.931 . S
H36 C14 0.931 . S
H37 C16 0.930 . S
H38 C18 0.930 . S
H39 C19 0.931 . S
H40 C21 0.931 . S
H41 C23 0.930 . S
H42 C25 0.930 . S
H43 C26 0.931 . S
N44 C6 1.343 . S
N44 C27 1.343 1_655 S
N45 C13 1.343 1_455 S
N45 C20 1.343 . S
C46 C47 1.384 . S
C46 C48 1.384 . S
C46 H74 0.931 . S
C47 C46 1.384 . S
C47 C50 1.382 . S
C48 C46 1.384 . S
C48 C49 1.381 . S
C48 H75 0.930 . S
C49 C48 1.381 . S
C49 C51 1.381 . S
C49 C52 1.487 . S
C50 C47 1.382 . S
C50 C51 1.387 . S
C50 H76 0.930 . S
C51 C49 1.381 . S
C51 C50 1.387 . S
C51 H77 0.931 . S
C52 C49 1.487 . S
C52 C59 1.399 . S
C52 N90 1.343 1_565 S
C53 C54 1.384 . S
C53 C55 1.384 . S
C53 H78 0.931 . S
C54 C53 1.384 . S
C54 C57 1.382 . S
C55 C53 1.384 . S
C55 C56 1.381 . S
C55 H79 0.930 . S
C56 C55 1.381 . S
C56 C58 1.381 . S
C56 C59 1.487 . S
C57 C54 1.382 . S
C57 C58 1.387 . S
C57 H80 0.930 . S
C58 C56 1.381 . S
C58 C57 1.387 . S
C58 H81 0.931 . S
C59 C52 1.399 . S
C59 C56 1.487 . S
C59 N91 1.343 1_565 S
C60 C61 1.384 . S
C60 C62 1.384 . S
C60 H82 0.931 . S
C61 C60 1.384 . S
C61 C64 1.382 . S
C62 C60 1.384 . S
C62 C63 1.381 . S
C62 H83 0.930 . S
C63 C62 1.381 . S
C63 C65 1.381 . S
C63 C66 1.487 . S
C64 C61 1.382 . S
C64 C65 1.387 . S
C64 H84 0.930 . S
C65 C63 1.381 . S
C65 C64 1.387 . S
C65 H85 0.931 . S
C66 C63 1.487 . S
C66 C73 1.399 . S
C66 N91 1.343 . S
C67 C68 1.384 . S
C67 C69 1.384 . S
C67 H86 0.931 . S
C68 C67 1.384 . S
C68 C71 1.382 . S
C69 C67 1.384 . S
C69 C70 1.381 . S
C69 H87 0.930 . S
C70 C69 1.381 . S
C70 C72 1.381 . S
C70 C73 1.487 . S
C71 C68 1.382 . S
C71 C72 1.387 . S
C71 H88 0.930 . S
C72 C70 1.381 . S
C72 C71 1.387 . S
C72 H89 0.931 . S
C73 C66 1.399 . S
C73 C70 1.487 . S
C73 N90 1.343 . S
H74 C46 0.931 . S
H75 C48 0.930 . S
H76 C50 0.930 . S
H77 C51 0.931 . S
H78 C53 0.931 . S
H79 C55 0.930 . S
H80 C57 0.930 . S
H81 C58 0.931 . S
H82 C60 0.931 . S
H83 C62 0.930 . S
H84 C64 0.930 . S
H85 C65 0.931 . S
H86 C67 0.931 . S
H87 C69 0.930 . S
H88 C71 0.930 . S
H89 C72 0.931 . S
N90 C52 1.343 1_545 S
N90 C73 1.343 . S
N91 C59 1.343 1_545 S
N91 C66 1.343 . S
C92 C93 1.384 . S
C92 C94 1.384 . S
C92 H120 0.931 . S
C93 C92 1.384 . S
C93 C96 1.382 . S
C94 C92 1.384 . S
C94 C95 1.381 . S
C94 H121 0.930 . S
C95 C94 1.381 . S
C95 C97 1.381 . S
C95 C98 1.487 . S
C96 C93 1.382 . S
C96 C97 1.387 . S
C96 H122 0.930 . S
C97 C95 1.381 . S
C97 C96 1.387 . S
C97 H123 0.931 . S
C98 C95 1.487 . S
C98 C105 1.399 . S
C98 N136 1.343 . S
C99 C100 1.384 . S
C99 C101 1.384 . S
C99 H124 0.931 . S
C100 C99 1.384 . S
C100 C103 1.382 . S
C101 C99 1.384 . S
C101 C102 1.381 . S
C101 H125 0.930 . S
C102 C101 1.381 . S
C102 C104 1.381 . S
C102 C105 1.487 . S
C103 C100 1.382 . S
C103 C104 1.387 . S
C103 H126 0.930 . S
C104 C102 1.381 . S
C104 C103 1.387 . S
C104 H127 0.931 . S
C105 C98 1.399 . S
C105 C102 1.487 . S
C105 N137 1.343 . S
C106 C107 1.384 . S
C106 C108 1.384 . S
C106 H128 0.931 . S
C107 C106 1.384 . S
C107 C110 1.382 . S
C108 C106 1.384 . S
C108 C109 1.381 . S
C108 H129 0.930 . S
C109 C108 1.381 . S
C109 C111 1.381 . S
C109 C112 1.487 . S
C110 C107 1.382 . S
C110 C111 1.387 . S
C110 H130 0.930 . S
C111 C109 1.381 . S
C111 C110 1.387 . S
C111 H131 0.931 . S
C112 C109 1.487 . S
C112 C119 1.399 . S
C112 N137 1.343 . S
C113 C114 1.384 . S
C113 C115 1.384 . S
C113 H132 0.931 . S
C114 C113 1.384 . S
C114 C117 1.382 . S
C115 C113 1.384 . S
C115 C116 1.381 . S
C115 H133 0.930 . S
C116 C115 1.381 . S
C116 C118 1.381 . S
C116 C119 1.487 . S
C117 C114 1.382 . S
C117 C118 1.387 . S
C117 H134 0.930 . S
C118 C116 1.381 . S
C118 C117 1.387 . S
C118 H135 0.931 . S
C119 C112 1.399 . S
C119 C116 1.487 . S
C119 N136 1.343 . S
H120 C92 0.931 . S
H121 C94 0.930 . S
H122 C96 0.930 . S
H123 C97 0.931 . S
H124 C99 0.931 . S
H125 C101 0.930 . S
H126 C103 0.930 . S
H127 C104 0.931 . S
H128 C106 0.931 . S
H129 C108 0.930 . S
H130 C110 0.930 . S
H131 C111 0.931 . S
H132 C113 0.931 . S
H133 C115 0.930 . S
H134 C117 0.930 . S
H135 C118 0.931 . S
N136 C98 1.343 . S
N136 C119 1.343 . S
N137 C105 1.343 . S
N137 C112 1.343 . S
C138 C139 1.384 . S
C138 C140 1.384 . S
C138 H166 0.931 . S
C139 C138 1.384 . S
C139 C142 1.382 . S
C140 C138 1.384 . S
C140 C141 1.381 . S
C140 H167 0.930 . S
C141 C140 1.381 . S
C141 C143 1.381 . S
C141 C144 1.487 . S
C142 C139 1.382 . S
C142 C143 1.387 . S
C142 H168 0.930 . S
C143 C141 1.381 . S
C143 C142 1.387 . S
C143 H169 0.931 . S
C144 C141 1.487 . S
C144 C151 1.399 . S
C144 N182 1.343 . S
C145 C146 1.384 . S
C145 C147 1.384 . S
C145 H170 0.931 . S
C146 C145 1.384 . S
C146 C149 1.382 . S
C147 C145 1.384 . S
C147 C148 1.381 . S
C147 H171 0.930 . S
C148 C147 1.381 . S
C148 C150 1.381 . S
C148 C151 1.487 . S
C149 C146 1.382 . S
C149 C150 1.387 . S
C149 H172 0.930 . S
C150 C148 1.381 . S
C150 C149 1.387 . S
C150 H173 0.931 . S
C151 C144 1.399 . S
C151 C148 1.487 . S
C151 N183 1.343 1_655 S
C152 C153 1.384 . S
C152 C154 1.384 . S
C152 H174 0.931 . S
C153 C152 1.384 . S
C153 C156 1.382 . S
C154 C152 1.384 . S
C154 C155 1.381 . S
C154 H175 0.930 . S
C155 C154 1.381 . S
C155 C157 1.381 . S
C155 C158 1.487 . S
C156 C153 1.382 . S
C156 C157 1.387 . S
C156 H176 0.930 . S
C157 C155 1.381 . S
C157 C156 1.387 . S
C157 H177 0.931 . S
C158 C155 1.487 . S
C158 C165 1.399 . S
C158 N183 1.343 . S
C159 C160 1.384 . S
C159 C161 1.384 . S
C159 H178 0.931 . S
C160 C159 1.384 . S
C160 C163 1.382 . S
C161 C159 1.384 . S
C161 C162 1.381 . S
C161 H179 0.930 . S
C162 C161 1.381 . S
C162 C164 1.381 . S
C162 C165 1.487 . S
C163 C160 1.382 . S
C163 C164 1.387 . S
C163 H180 0.930 . S
C164 C162 1.381 . S
C164 C163 1.387 . S
C164 H181 0.931 . S
C165 C158 1.399 . S
C165 C162 1.487 . S
C165 N182 1.343 1_455 S
H166 C138 0.931 . S
H167 C140 0.930 . S
H168 C142 0.930 . S
H169 C143 0.931 . S
H170 C145 0.931 . S
H171 C147 0.930 . S
H172 C149 0.930 . S
H173 C150 0.931 . S
H174 C152 0.931 . S
H175 C154 0.930 . S
H176 C156 0.930 . S
H177 C157 0.931 . S
H178 C159 0.931 . S
H179 C161 0.930 . S
H180 C163 0.930 . S
H181 C164 0.931 . S
N182 C144 1.343 . S
N182 C165 1.343 1_655 S
N183 C151 1.343 1_455 S
N183 C158 1.343 . S
C184 C185 1.384 . S
C184 C186 1.384 . S
C184 H212 0.931 . S
C185 C184 1.384 . S
C185 C188 1.382 . S
C186 C184 1.384 . S
C186 C187 1.381 . S
C186 H213 0.930 . S
C187 C186 1.381 . S
C187 C189 1.381 . S
C187 C190 1.487 . S
C188 C185 1.382 . S
C188 C189 1.387 . S
C188 H214 0.930 . S
C189 C187 1.381 . S
C189 C188 1.387 . S
C189 H215 0.931 . S
C190 C187 1.487 . S
C190 C197 1.399 1_556 S
C190 N228 1.343 1_565 S
C191 C192 1.384 . S
C191 C193 1.384 . S
C191 H216 0.931 . S
C192 C191 1.384 . S
C192 C195 1.382 . S
C193 C191 1.384 . S
C193 C194 1.381 . S
C193 H217 0.930 . S
C194 C193 1.381 . S
C194 C196 1.381 . S
C194 C197 1.487 . S
C195 C192 1.382 . S
C195 C196 1.387 . S
C195 H218 0.930 . S
C196 C194 1.381 . S
C196 C195 1.387 . S
C196 H219 0.931 . S
C197 C190 1.399 1_554 S
C197 C194 1.487 . S
C197 N229 1.343 1_565 S
C198 C199 1.384 . S
C198 C200 1.384 1_554 S
C198 H220 0.931 1_554 S
C199 C198 1.384 . S
C199 C202 1.382 . S
C200 C198 1.384 1_556 S
C200 C201 1.381 1_556 S
C200 H221 0.930 . S
C201 C200 1.381 1_554 S
C201 C203 1.381 . S
C201 C204 1.487 1_554 S
C202 C199 1.382 . S
C202 C203 1.387 . S
C202 H222 0.930 . S
C203 C201 1.381 . S
C203 C202 1.387 . S
C203 H223 0.931 . S
C204 C201 1.487 1_556 S
C204 C211 1.399 . S
C204 N229 1.343 1_556 S
C205 C206 1.384 . S
C205 C207 1.384 . S
C205 H224 0.931 . S
C206 C205 1.384 . S
C206 C209 1.382 . S
C207 C205 1.384 . S
C207 C208 1.381 . S
C207 H225 0.930 . S
C208 C207 1.381 . S
C208 C210 1.381 . S
C208 C211 1.487 . S
C209 C206 1.382 . S
C209 C210 1.387 . S
C209 H226 0.930 . S
C210 C208 1.381 . S
C210 C209 1.387 . S
C210 H227 0.931 . S
C211 C204 1.399 . S
C211 C208 1.487 . S
C211 N228 1.343 . S
H212 C184 0.931 . S
H213 C186 0.930 . S
H214 C188 0.930 . S
H215 C189 0.931 . S
H216 C191 0.931 . S
H217 C193 0.930 . S
H218 C195 0.930 . S
H219 C196 0.931 . S
H220 C198 0.931 1_556 S
H221 C200 0.930 . S
H222 C202 0.930 . S
H223 C203 0.931 . S
H224 C205 0.931 . S
H225 C207 0.930 . S
H226 C209 0.930 . S
H227 C210 0.931 . S
N228 C190 1.343 1_545 S
N228 C211 1.343 . S
N229 C197 1.343 1_545 S
N229 C204 1.343 1_554 S
C230 C231 1.384 . S
C230 C232 1.384 . S
C230 H258 0.931 . S
C231 C230 1.384 . S
C231 C234 1.382 . S
C232 C230 1.384 . S
C232 C233 1.381 . S
C232 H259 0.930 . S
C233 C232 1.381 . S
C233 C235 1.381 . S
C233 C236 1.487 . S
C234 C231 1.382 . S
C234 C235 1.387 . S
C234 H260 0.930 . S
C235 C233 1.381 . S
C235 C234 1.387 . S
C235 H261 0.931 . S
C236 C233 1.487 . S
C236 C243 1.399 . S
C236 N274 1.343 . S
C237 C238 1.384 . S
C237 C239 1.384 . S
C237 H262 0.931 . S
C238 C237 1.384 . S
C238 C241 1.382 . S
C239 C237 1.384 . S
C239 C240 1.381 . S
C239 H263 0.930 . S
C240 C239 1.381 . S
C240 C242 1.381 . S
C240 C243 1.487 . S
C241 C238 1.382 . S
C241 C242 1.387 . S
C241 H264 0.930 . S
C242 C240 1.381 . S
C242 C241 1.387 . S
C242 H265 0.931 . S
C243 C236 1.399 . S
C243 C240 1.487 . S
C243 N275 1.343 . S
C244 C245 1.384 . S
C244 C246 1.384 . S
C244 H266 0.931 . S
C245 C244 1.384 . S
C245 C248 1.382 . S
C246 C244 1.384 . S
C246 C247 1.381 . S
C246 H267 0.930 . S
C247 C246 1.381 . S
C247 C249 1.381 . S
C247 C250 1.487 . S
C248 C245 1.382 . S
C248 C249 1.387 . S
C248 H268 0.930 . S
C249 C247 1.381 . S
C249 C248 1.387 . S
C249 H269 0.931 . S
C250 C247 1.487 . S
C250 C257 1.399 . S
C250 N275 1.343 . S
C251 C252 1.384 . S
C251 C253 1.384 . S
C251 H270 0.931 . S
C252 C251 1.384 . S
C252 C255 1.382 . S
C253 C251 1.384 . S
C253 C254 1.381 . S
C253 H271 0.930 . S
C254 C253 1.381 . S
C254 C256 1.381 . S
C254 C257 1.487 . S
C255 C252 1.382 . S
C255 C256 1.387 . S
C255 H272 0.930 . S
C256 C254 1.381 . S
C256 C255 1.387 . S
C256 H273 0.931 . S
C257 C250 1.399 . S
C257 C254 1.487 . S
C257 N274 1.343 . S
H258 C230 0.931 . S
H259 C232 0.930 . S
H260 C234 0.930 . S
H261 C235 0.931 . S
H262 C237 0.931 . S
H263 C239 0.930 . S
H264 C241 0.930 . S
H265 C242 0.931 . S
H266 C244 0.931 . S
H267 C246 0.930 . S
H268 C248 0.930 . S
H269 C249 0.931 . S
H270 C251 0.931 . S
H271 C253 0.930 . S
H272 C255 0.930 . S
H273 C256 0.931 . S
N274 C236 1.343 . S
N274 C257 1.343 . S
N275 C243 1.343 . S
N275 C250 1.343 . S
C276 O277 1.160 . S
C276 O283 1.185 . S
O277 C276 1.160 . S
O278 Zn279 1.899 . S
O278 C286 1.284 . S
Zn279 O278 1.899 . S
Zn279 O280 2.032 . S
Zn279 O283 2.086 . S
Zn279 O288 1.977 . S
O280 Zn279 2.032 . S
O280 C284 1.278 . S
C281 O282 1.203 . S
C281 O288 1.267 . S
O282 C281 1.203 . S
O283 C276 1.185 . S
O283 Zn279 2.086 . S
C284 O280 1.278 . S
C284 O285 1.211 . S
O285 C284 1.211 . S
C286 O278 1.284 . S
C286 O287 1.273 . S
O287 C286 1.273 . S
O288 Zn279 1.977 . S
O288 C281 1.267 . S
C289 O290 1.160 . S
C289 O296 1.185 . S
O290 C289 1.160 . S
O291 Zn292 1.899 . S
O291 C299 1.284 . S
Zn292 O291 1.899 . S
Zn292 O293 2.032 . S
Zn292 O296 2.086 . S
Zn292 O301 1.977 . S
O293 Zn292 2.032 . S
O293 C297 1.278 . S
C294 O295 1.203 . S
C294 O301 1.267 . S
O295 C294 1.203 . S
O296 C289 1.185 . S
O296 Zn292 2.086 . S
C297 O293 1.278 . S
C297 O298 1.211 . S
O298 C297 1.211 . S
C299 O291 1.284 . S
C299 O300 1.273 . S
O300 C299 1.273 . S
O301 Zn292 1.977 . S
O301 C294 1.267 . S
C302 O303 1.160 . S
C302 O309 1.185 . S
O303 C302 1.160 . S
O304 Zn305 1.899 . S
O304 C312 1.284 . S
Zn305 O304 1.899 . S
Zn305 O306 2.032 . S
Zn305 O309 2.086 . S
Zn305 O314 1.977 . S
O306 Zn305 2.032 . S
O306 C310 1.278 . S
C307 O308 1.203 . S
C307 O314 1.267 . S
O308 C307 1.203 . S
O309 C302 1.185 . S
O309 Zn305 2.086 . S
C310 O306 1.278 . S
C310 O311 1.211 . S
O311 C310 1.211 . S
C312 O304 1.284 . S
C312 O313 1.273 . S
O313 C312 1.273 . S
O314 Zn305 1.977 . S
O314 C307 1.267 . S
C315 O316 1.160 . S
C315 O322 1.185 . S
O316 C315 1.160 . S
O317 Zn318 1.899 . S
O317 C325 1.284 . S
Zn318 O317 1.899 . S
Zn318 O319 2.032 . S
Zn318 O322 2.086 . S
Zn318 O327 1.977 . S
O319 Zn318 2.032 . S
O319 C323 1.278 . S
C320 O321 1.203 . S
C320 O327 1.267 . S
O321 C320 1.203 . S
O322 C315 1.185 . S
O322 Zn318 2.086 . S
C323 O319 1.278 . S
C323 O324 1.211 . S
O324 C323 1.211 . S
C325 O317 1.284 . S
C325 O326 1.273 . S
O326 C325 1.273 . S
O327 Zn318 1.977 . S
O327 C320 1.267 . S
C328 O329 1.160 . S
C328 O335 1.185 . S
O329 C328 1.160 . S
O330 Zn331 1.899 . S
O330 C338 1.284 . S
Zn331 O330 1.899 . S
Zn331 O332 2.032 . S
Zn331 O335 2.086 . S
Zn331 O340 1.977 . S
O332 Zn331 2.032 . S
O332 C336 1.278 . S
C333 O334 1.203 . S
C333 O340 1.267 . S
O334 C333 1.203 . S
O335 C328 1.185 . S
O335 Zn331 2.086 . S
C336 O332 1.278 . S
C336 O337 1.211 . S
O337 C336 1.211 . S
C338 O330 1.284 . S
C338 O339 1.273 . S
O339 C338 1.273 . S
O340 Zn331 1.977 . S
O340 C333 1.267 . S
C341 O342 1.160 . S
C341 O348 1.185 . S
O342 C341 1.160 . S
O343 Zn344 1.899 . S
O343 C351 1.284 . S
Zn344 O343 1.899 . S
Zn344 O345 2.032 . S
Zn344 O348 2.086 . S
Zn344 O353 1.977 . S
O345 Zn344 2.032 . S
O345 C349 1.278 . S
C346 O347 1.203 . S
C346 O353 1.267 . S
O347 C346 1.203 . S
O348 C341 1.185 . S
O348 Zn344 2.086 . S
C349 O345 1.278 . S
C349 O350 1.211 . S
O350 C349 1.211 . S
C351 O343 1.284 . S
C351 O352 1.273 . S
O352 C351 1.273 . S
O353 Zn344 1.977 . S
O353 C346 1.267 . S
H354 C372 0.951 . S
H355 C374 0.951 . S
H356 C376 0.950 . S
H357 C377 0.950 . S
H358 C379 0.950 . S
H359 C382 0.950 . S
H360 C383 0.950 . S
H361 C385 0.950 . S
H362 C386 0.950 . S
H363 C387 0.951 . S
H364 C389 0.951 . S
H365 C391 0.950 . S
H366 C392 0.950 . S
H367 C394 0.950 . S
H368 C397 0.950 . S
H369 C398 0.950 . S
H370 C400 0.950 . S
H371 C401 0.950 . S
C372 H354 0.951 . S
C372 C373 1.366 . S
C372 C374 1.388 . S
C373 C372 1.366 . S
C373 C377 1.385 . S
C374 H355 0.951 . S
C374 C372 1.388 . S
C374 C375 1.366 . S
C375 C374 1.366 . S
C375 C376 1.414 . S
C375 C378 1.499 . S
C376 H356 0.950 . S
C376 C375 1.414 . S
C376 C377 1.374 . S
C377 H357 0.950 . S
C377 C373 1.385 . S
C377 C376 1.374 . S
C378 C375 1.499 . S
C378 C379 1.373 . S
C378 C380 1.389 . S
C379 H358 0.950 . S
C379 C378 1.373 . S
C379 C395 1.377 . S
C380 C378 1.389 . S
C380 C381 1.524 . S
C380 C394 1.377 . S
C381 C380 1.524 . S
C381 C382 1.397 . S
C381 C386 1.363 . S
C382 H359 0.950 . S
C382 C381 1.397 . S
C382 C383 1.334 . S
C383 H360 0.950 . S
C383 C382 1.334 . S
C383 C384 1.287 . S
C384 C383 1.287 . S
C384 C385 1.524 . S
C384 H403 0.913 . S
C385 H361 0.950 . S
C385 C384 1.524 . S
C385 C386 1.415 . S
C386 H362 0.950 . S
C386 C381 1.363 . S
C386 C385 1.415 . S
C387 H363 0.951 . S
C387 C388 1.366 . S
C387 C389 1.388 . S
C388 C387 1.366 . S
C388 C392 1.385 . S
C389 H364 0.951 . S
C389 C387 1.388 . S
C389 C390 1.366 . S
C390 C389 1.366 . S
C390 C391 1.414 . S
C390 C393 1.499 . S
C391 H365 0.950 . S
C391 C390 1.414 . S
C391 C392 1.374 . S
C392 H366 0.950 . S
C392 C388 1.385 . S
C392 C391 1.374 . S
C393 C390 1.499 . S
C393 C394 1.373 . S
C393 C395 1.389 . S
C394 H367 0.950 . S
C394 C380 1.377 . S
C394 C393 1.373 . S
C395 C379 1.377 . S
C395 C393 1.389 . S
C395 C396 1.524 . S
C396 C395 1.524 . S
C396 C397 1.397 . S
C396 C401 1.363 . S
C397 H368 0.950 . S
C397 C396 1.397 . S
C397 C398 1.334 . S
C398 H369 0.950 . S
C398 C397 1.334 . S
C398 C399 1.287 . S
C399 C398 1.287 . S
C399 C400 1.524 . S
C399 H402 0.999 . S
C400 H370 0.950 . S
C400 C399 1.524 . S
C400 C401 1.415 . S
C401 H371 0.950 . S
C401 C396 1.363 . S
C401 C400 1.415 . S
H402 C399 0.999 . S
H403 C384 0.913 . S
H404 C422 0.951 . S
H405 C424 0.951 . S
H406 C426 0.950 . S
H407 C427 0.950 . S
H408 C429 0.950 . S
H409 C432 0.950 . S
H410 C433 0.950 . S
H411 C435 0.950 . S
H412 C436 0.950 . S
H413 C437 0.951 . S
H414 C439 0.951 . S
H415 C441 0.950 . S
H416 C442 0.950 . S
H417 C444 0.950 . S
H418 C447 0.950 . S
H419 C448 0.950 . S
H420 C450 0.950 . S
H421 C451 0.950 . S
C422 H404 0.951 . S
C422 C423 1.366 . S
C422 C424 1.388 . S
C423 C422 1.366 . S
C423 C427 1.385 . S
C424 H405 0.951 . S
C424 C422 1.388 . S
C424 C425 1.366 . S
C425 C424 1.366 . S
C425 C426 1.414 . S
C425 C428 1.499 . S
C426 H406 0.950 . S
C426 C425 1.414 . S
C426 C427 1.374 . S
C427 H407 0.950 . S
C427 C423 1.385 . S
C427 C426 1.374 . S
C428 C425 1.499 . S
C428 C429 1.373 . S
C428 C430 1.389 . S
C429 H408 0.950 . S
C429 C428 1.373 . S
C429 C445 1.377 . S
C430 C428 1.389 . S
C430 C431 1.524 . S
C430 C444 1.377 . S
C431 C430 1.524 . S
C431 C432 1.397 . S
C431 C436 1.363 . S
C432 H409 0.950 . S
C432 C431 1.397 . S
C432 C433 1.334 . S
C433 H410 0.950 . S
C433 C432 1.334 . S
C433 C434 1.287 . S
C434 C433 1.287 . S
C434 C435 1.524 . S
C434 H453 0.913 . S
C435 H411 0.950 . S
C435 C434 1.524 . S
C435 C436 1.415 . S
C436 H412 0.950 . S
C436 C431 1.363 . S
C436 C435 1.415 . S
C437 H413 0.951 . S
C437 C438 1.366 . S
C437 C439 1.388 . S
C438 C437 1.366 . S
C438 C442 1.385 . S
C439 H414 0.951 . S
C439 C437 1.388 . S
C439 C440 1.366 . S
C440 C439 1.366 . S
C440 C441 1.414 . S
C440 C443 1.499 . S
C441 H415 0.950 . S
C441 C440 1.414 . S
C441 C442 1.374 . S
C442 H416 0.950 . S
C442 C438 1.385 . S
C442 C441 1.374 . S
C443 C440 1.499 . S
C443 C444 1.373 . S
C443 C445 1.389 . S
C444 H417 0.950 . S
C444 C430 1.377 . S
C444 C443 1.373 . S
C445 C429 1.377 . S
C445 C443 1.389 . S
C445 C446 1.524 . S
C446 C445 1.524 . S
C446 C447 1.397 . S
C446 C451 1.363 . S
C447 H418 0.950 . S
C447 C446 1.397 . S
C447 C448 1.334 . S
C448 H419 0.950 . S
C448 C447 1.334 . S
C448 C449 1.287 . S
C449 C448 1.287 . S
C449 C450 1.524 . S
C449 H452 0.999 . S
C450 H420 0.950 . S
C450 C449 1.524 . S
C450 C451 1.415 . S
C451 H421 0.950 . S
C451 C446 1.363 . S
C451 C450 1.415 . S
H452 C449 0.999 . S
H453 C434 0.913 . S
H454 C472 0.951 . S
H455 C474 0.951 . S
H456 C476 0.950 . S
H457 C477 0.950 . S
H458 C479 0.950 . S
H459 C482 0.950 . S
H460 C483 0.950 . S
H461 C485 0.950 . S
H462 C486 0.950 . S
H463 C487 0.951 . S
H464 C489 0.951 . S
H465 C491 0.950 . S
H466 C492 0.950 . S
H467 C494 0.950 . S
H468 C497 0.950 . S
H469 C498 0.950 . S
H470 C500 0.950 . S
H471 C501 0.950 . S
C472 H454 0.951 . S
C472 C473 1.366 . S
C472 C474 1.388 . S
C473 C472 1.366 . S
C473 C477 1.385 . S
C474 H455 0.951 . S
C474 C472 1.388 . S
C474 C475 1.366 . S
C475 C474 1.366 . S
C475 C476 1.414 . S
C475 C478 1.499 . S
C476 H456 0.950 . S
C476 C475 1.414 . S
C476 C477 1.374 . S
C477 H457 0.950 . S
C477 C473 1.385 . S
C477 C476 1.374 . S
C478 C475 1.499 . S
C478 C479 1.373 . S
C478 C480 1.389 . S
C479 H458 0.950 . S
C479 C478 1.373 . S
C479 C495 1.377 . S
C480 C478 1.389 . S
C480 C481 1.524 . S
C480 C494 1.377 . S
C481 C480 1.524 . S
C481 C482 1.397 . S
C481 C486 1.363 . S
C482 H459 0.950 . S
C482 C481 1.397 . S
C482 C483 1.334 . S
C483 H460 0.950 . S
C483 C482 1.334 . S
C483 C484 1.287 . S
C484 C483 1.287 . S
C484 C485 1.524 . S
C484 H503 0.913 . S
C485 H461 0.950 . S
C485 C484 1.524 . S
C485 C486 1.415 . S
C486 H462 0.950 . S
C486 C481 1.363 . S
C486 C485 1.415 . S
C487 H463 0.951 . S
C487 C488 1.366 . S
C487 C489 1.388 . S
C488 C487 1.366 . S
C488 C492 1.385 . S
C489 H464 0.951 . S
C489 C487 1.388 . S
C489 C490 1.366 . S
C490 C489 1.366 . S
C490 C491 1.414 . S
C490 C493 1.499 . S
C491 H465 0.950 . S
C491 C490 1.414 . S
C491 C492 1.374 . S
C492 H466 0.950 . S
C492 C488 1.385 . S
C492 C491 1.374 . S
C493 C490 1.499 . S
C493 C494 1.373 . S
C493 C495 1.389 . S
C494 H467 0.950 . S
C494 C480 1.377 . S
C494 C493 1.373 . S
C495 C479 1.377 . S
C495 C493 1.389 . S
C495 C496 1.524 . S
C496 C495 1.524 . S
C496 C497 1.397 . S
C496 C501 1.363 . S
C497 H468 0.950 . S
C497 C496 1.397 . S
C497 C498 1.334 . S
C498 H469 0.950 . S
C498 C497 1.334 . S
C498 C499 1.287 . S
C499 C498 1.287 . S
C499 C500 1.524 . S
C499 H502 0.999 . S
C500 H470 0.950 . S
C500 C499 1.524 . S
C500 C501 1.415 . S
C501 H471 0.950 . S
C501 C496 1.363 . S
C501 C500 1.415 . S
H502 C499 0.999 . S
H503 C484 0.913 . S
H504 C522 0.951 . S
H505 C524 0.951 . S
H506 C526 0.950 . S
H507 C527 0.950 . S
H508 C529 0.950 . S
H509 C532 0.950 . S
H510 C533 0.950 . S
H511 C535 0.950 . S
H512 C536 0.950 . S
H513 C537 0.951 . S
H514 C539 0.951 . S
H515 C541 0.950 . S
H516 C542 0.950 . S
H517 C544 0.950 . S
H518 C547 0.950 . S
H519 C548 0.950 . S
H520 C550 0.950 . S
H521 C551 0.950 . S
C522 H504 0.951 . S
C522 C523 1.366 . S
C522 C524 1.388 . S
C523 C522 1.366 . S
C523 C527 1.385 . S
C524 H505 0.951 . S
C524 C522 1.388 . S
C524 C525 1.366 . S
C525 C524 1.366 . S
C525 C526 1.414 . S
C525 C528 1.499 . S
C526 H506 0.950 . S
C526 C525 1.414 . S
C526 C527 1.374 . S
C527 H507 0.950 . S
C527 C523 1.385 . S
C527 C526 1.374 . S
C528 C525 1.499 . S
C528 C529 1.373 . S
C528 C530 1.389 . S
C529 H508 0.950 . S
C529 C528 1.373 . S
C529 C545 1.377 . S
C530 C528 1.389 . S
C530 C531 1.524 . S
C530 C544 1.377 . S
C531 C530 1.524 . S
C531 C532 1.397 . S
C531 C536 1.363 . S
C532 H509 0.950 . S
C532 C531 1.397 . S
C532 C533 1.334 . S
C533 H510 0.950 . S
C533 C532 1.334 . S
C533 C534 1.287 . S
C534 C533 1.287 . S
C534 C535 1.524 . S
C534 H553 0.913 . S
C535 H511 0.950 . S
C535 C534 1.524 . S
C535 C536 1.415 . S
C536 H512 0.950 . S
C536 C531 1.363 . S
C536 C535 1.415 . S
C537 H513 0.951 . S
C537 C538 1.366 . S
C537 C539 1.388 . S
C538 C537 1.366 . S
C538 C542 1.385 . S
C539 H514 0.951 . S
C539 C537 1.388 . S
C539 C540 1.366 . S
C540 C539 1.366 . S
C540 C541 1.414 . S
C540 C543 1.499 . S
C541 H515 0.950 . S
C541 C540 1.414 . S
C541 C542 1.374 . S
C542 H516 0.950 . S
C542 C538 1.385 . S
C542 C541 1.374 . S
C543 C540 1.499 . S
C543 C544 1.373 . S
C543 C545 1.389 . S
C544 H517 0.950 . S
C544 C530 1.377 . S
C544 C543 1.373 . S
C545 C529 1.377 . S
C545 C543 1.389 . S
C545 C546 1.524 . S
C546 C545 1.524 . S
C546 C547 1.397 . S
C546 C551 1.363 . S
C547 H518 0.950 . S
C547 C546 1.397 . S
C547 C548 1.334 . S
C548 H519 0.950 . S
C548 C547 1.334 . S
C548 C549 1.287 . S
C549 C548 1.287 . S
C549 C550 1.524 . S
C549 H552 0.999 . S
C550 H520 0.950 . S
C550 C549 1.524 . S
C550 C551 1.415 . S
C551 H521 0.950 . S
C551 C546 1.363 . S
C551 C550 1.415 . S
H552 C549 0.999 . S
H553 C534 0.913 . S
H554 C572 0.951 . S
H555 C574 0.951 . S
H556 C576 0.950 . S
H557 C577 0.950 . S
H558 C579 0.950 . S
H559 C582 0.950 . S
H560 C583 0.953 . S
H561 C585 0.950 . S
H562 C586 0.950 . S
H563 C587 0.951 . S
H564 C589 0.951 . S
H565 C591 0.950 . S
H566 C592 0.950 . S
H567 C594 0.950 . S
H568 C597 0.950 . S
H569 C598 0.950 . S
H570 C600 0.950 . S
H571 C601 0.950 . S
C572 H554 0.951 . S
C572 C573 1.366 . S
C572 C574 1.388 . S
C573 C572 1.366 . S
C573 C577 1.385 . S
C574 H555 0.951 . S
C574 C572 1.388 . S
C574 C575 1.366 . S
C575 C574 1.366 . S
C575 C576 1.414 . S
C575 C578 1.499 . S
C576 H556 0.950 . S
C576 C575 1.414 . S
C576 C577 1.374 . S
C577 H557 0.950 . S
C577 C573 1.385 . S
C577 C576 1.374 . S
C578 C575 1.499 . S
C578 C579 1.373 . S
C578 C580 1.389 . S
C579 H558 0.950 . S
C579 C578 1.373 . S
C579 C595 1.377 . S
C580 C578 1.389 . S
C580 C581 1.524 . S
C580 C594 1.377 . S
C581 C580 1.524 . S
C581 C582 1.397 . S
C581 C586 1.363 . S
C582 H559 0.950 . S
C582 C581 1.397 . S
C582 C583 1.334 . S
C583 H560 0.953 . S
C583 C582 1.334 . S
C583 C584 1.287 1_556 S
C584 C583 1.287 1_554 S
C584 C585 1.524 . S
C584 H603 0.913 . S
C585 H561 0.950 . S
C585 C584 1.524 . S
C585 C586 1.415 1_554 S
C586 H562 0.950 . S
C586 C581 1.363 . S
C586 C585 1.415 1_556 S
C587 H563 0.951 . S
C587 C588 1.366 . S
C587 C589 1.388 . S
C588 C587 1.366 . S
C588 C592 1.385 . S
C589 H564 0.951 . S
C589 C587 1.388 . S
C589 C590 1.366 . S
C590 C589 1.366 . S
C590 C591 1.414 . S
C590 C593 1.499 . S
C591 H565 0.950 . S
C591 C590 1.414 . S
C591 C592 1.374 . S
C592 H566 0.950 . S
C592 C588 1.385 . S
C592 C591 1.374 . S
C593 C590 1.499 . S
C593 C594 1.373 . S
C593 C595 1.389 . S
C594 H567 0.950 . S
C594 C580 1.377 . S
C594 C593 1.373 . S
C595 C579 1.377 . S
C595 C593 1.389 . S
C595 C596 1.524 . S
C596 C595 1.524 . S
C596 C597 1.397 . S
C596 C601 1.363 . S
C597 H568 0.950 . S
C597 C596 1.397 . S
C597 C598 1.334 . S
C598 H569 0.950 . S
C598 C597 1.334 . S
C598 C599 1.287 . S
C599 C598 1.287 . S
C599 C600 1.524 . S
C599 H602 0.999 . S
C600 H570 0.950 . S
C600 C599 1.524 . S
C600 C601 1.415 . S
C601 H571 0.950 . S
C601 C596 1.363 . S
C601 C600 1.415 . S
H602 C599 0.999 . S
H603 C584 0.913 . S
H604 C622 0.951 . S
H605 C624 0.951 . S
H606 C626 0.950 . S
H607 C627 0.950 . S
H608 C629 0.950 . S
H609 C632 0.950 . S
H610 C633 0.950 . S
H611 C635 0.950 . S
H612 C636 0.950 . S
H613 C637 0.951 . S
H614 C639 0.951 . S
H615 C641 0.950 . S
H616 C642 0.950 . S
H617 C644 0.950 . S
H618 C647 0.950 . S
H619 C648 0.950 . S
H620 C650 0.950 . S
H621 C651 0.950 . S
C622 H604 0.951 . S
C622 C623 1.366 . S
C622 C624 1.388 . S
C623 C622 1.366 . S
C623 C627 1.385 . S
C624 H605 0.951 . S
C624 C622 1.388 . S
C624 C625 1.366 . S
C625 C624 1.366 . S
C625 C626 1.414 . S
C625 C628 1.499 . S
C626 H606 0.950 . S
C626 C625 1.414 . S
C626 C627 1.374 . S
C627 H607 0.950 . S
C627 C623 1.385 . S
C627 C626 1.374 . S
C628 C625 1.499 . S
C628 C629 1.373 . S
C628 C630 1.389 . S
C629 H608 0.950 . S
C629 C628 1.373 . S
C629 C645 1.377 . S
C630 C628 1.389 . S
C630 C631 1.524 . S
C630 C644 1.377 . S
C631 C630 1.524 . S
C631 C632 1.397 . S
C631 C636 1.363 . S
C632 H609 0.950 . S
C632 C631 1.397 . S
C632 C633 1.334 . S
C633 H610 0.950 . S
C633 C632 1.334 . S
C633 C634 1.287 . S
C634 C633 1.287 . S
C634 C635 1.524 . S
C634 H653 0.913 . S
C635 H611 0.950 . S
C635 C634 1.524 . S
C635 C636 1.415 . S
C636 H612 0.950 . S
C636 C631 1.363 . S
C636 C635 1.415 . S
C637 H613 0.951 . S
C637 C638 1.366 . S
C637 C639 1.388 . S
C638 C637 1.366 . S
C638 C642 1.385 . S
C639 H614 0.951 . S
C639 C637 1.388 . S
C639 C640 1.366 . S
C640 C639 1.366 . S
C640 C641 1.414 . S
C640 C643 1.499 . S
C641 H615 0.950 . S
C641 C640 1.414 . S
C641 C642 1.374 . S
C642 H616 0.950 . S
C642 C638 1.385 . S
C642 C641 1.374 . S
C643 C640 1.499 . S
C643 C644 1.373 . S
C643 C645 1.389 . S
C644 H617 0.950 . S
C644 C630 1.377 . S
C644 C643 1.373 . S
C645 C629 1.377 . S
C645 C643 1.389 . S
C645 C646 1.524 . S
C646 C645 1.524 . S
C646 C647 1.397 . S
C646 C651 1.363 . S
C647 H618 0.950 . S
C647 C646 1.397 . S
C647 C648 1.334 . S
C648 H619 0.950 . S
C648 C647 1.334 . S
C648 C649 1.287 . S
C649 C648 1.287 . S
C649 C650 1.524 . S
C649 H652 0.999 . S
C650 H620 0.950 . S
C650 C649 1.524 . S
C650 C651 1.415 . S
C651 H621 0.950 . S
C651 C646 1.363 . S
C651 C650 1.415 . S
H652 C649 0.999 . S
H653 C634 0.913 . S
H654 C672 0.951 . S
H655 C674 0.951 . S
H656 C676 0.950 . S
H657 C677 0.950 . S
H658 C679 0.950 . S
H659 C682 0.950 . S
H660 C683 0.950 . S
H661 C685 0.950 . S
H662 C686 0.950 . S
H663 C687 0.951 . S
H664 C689 0.951 . S
H665 C691 0.950 . S
H666 C692 0.950 . S
H667 C694 0.950 . S
H668 C697 0.950 . S
H669 C698 0.950 . S
H670 C700 0.950 . S
H671 C701 0.950 . S
C672 H654 0.951 . S
C672 C673 1.366 . S
C672 C674 1.388 . S
C673 C672 1.366 . S
C673 C677 1.385 . S
C674 H655 0.951 . S
C674 C672 1.388 . S
C674 C675 1.366 . S
C675 C674 1.366 . S
C675 C676 1.414 . S
C675 C678 1.499 . S
C676 H656 0.950 . S
C676 C675 1.414 . S
C676 C677 1.374 . S
C677 H657 0.950 . S
C677 C673 1.385 . S
C677 C676 1.374 . S
C678 C675 1.499 . S
C678 C679 1.373 . S
C678 C680 1.389 . S
C679 H658 0.950 . S
C679 C678 1.373 . S
C679 C695 1.377 . S
C680 C678 1.389 . S
C680 C681 1.524 . S
C680 C694 1.377 . S
C681 C680 1.524 . S
C681 C682 1.397 . S
C681 C686 1.363 . S
C682 H659 0.950 . S
C682 C681 1.397 . S
C682 C683 1.334 . S
C683 H660 0.950 . S
C683 C682 1.334 . S
C683 C684 1.287 . S
C684 C683 1.287 . S
C684 C685 1.524 . S
C684 H703 0.913 . S
C685 H661 0.950 . S
C685 C684 1.524 . S
C685 C686 1.415 . S
C686 H662 0.950 . S
C686 C681 1.363 . S
C686 C685 1.415 . S
C687 H663 0.951 . S
C687 C688 1.366 . S
C687 C689 1.388 . S
C688 C687 1.366 . S
C688 C692 1.385 . S
C689 H664 0.951 . S
C689 C687 1.388 . S
C689 C690 1.366 . S
C690 C689 1.366 . S
C690 C691 1.414 . S
C690 C693 1.499 . S
C691 H665 0.950 . S
C691 C690 1.414 . S
C691 C692 1.374 . S
C692 H666 0.950 . S
C692 C688 1.385 . S
C692 C691 1.374 . S
C693 C690 1.499 . S
C693 C694 1.373 . S
C693 C695 1.389 . S
C694 H667 0.950 . S
C694 C680 1.377 . S
C694 C693 1.373 . S
C695 C679 1.377 . S
C695 C693 1.389 . S
C695 C696 1.524 . S
C696 C695 1.524 . S
C696 C697 1.397 . S
C696 C701 1.363 . S
C697 H668 0.950 . S
C697 C696 1.397 . S
C697 C698 1.334 . S
C698 H669 0.950 . S
C698 C697 1.334 . S
C698 C699 1.287 . S
C699 C698 1.287 . S
C699 C700 1.524 . S
C699 H702 0.999 . S
C700 H670 0.950 . S
C700 C699 1.524 . S
C700 C701 1.415 . S
C701 H671 0.950 . S
C701 C696 1.363 . S
C701 C700 1.415 . S
H702 C699 0.999 . S
H703 C684 0.913 . S
H704 C722 0.951 . S
H705 C724 0.951 . S
H706 C726 0.950 . S
H707 C727 0.950 . S
H708 C729 0.950 . S
H709 C732 0.950 . S
H710 C733 0.950 . S
H711 C735 0.950 . S
H712 C736 0.950 . S
H713 C737 0.951 . S
H714 C739 0.951 . S
H715 C741 0.950 . S
H716 C742 0.950 . S
H717 C744 0.950 . S
H718 C747 0.950 . S
H719 C748 0.950 . S
H720 C750 0.950 . S
H721 C751 0.950 . S
C722 H704 0.951 . S
C722 C723 1.366 . S
C722 C724 1.388 . S
C723 C722 1.366 . S
C723 C727 1.385 . S
C724 H705 0.951 . S
C724 C722 1.388 . S
C724 C725 1.366 . S
C725 C724 1.366 . S
C725 C726 1.414 . S
C725 C728 1.499 . S
C726 H706 0.950 . S
C726 C725 1.414 . S
C726 C727 1.374 . S
C727 H707 0.950 . S
C727 C723 1.385 . S
C727 C726 1.374 . S
C728 C725 1.499 . S
C728 C729 1.373 . S
C728 C730 1.389 . S
C729 H708 0.950 . S
C729 C728 1.373 . S
C729 C745 1.377 . S
C730 C728 1.389 . S
C730 C731 1.524 . S
C730 C744 1.377 . S
C731 C730 1.524 . S
C731 C732 1.397 . S
C731 C736 1.363 . S
C732 H709 0.950 . S
C732 C731 1.397 . S
C732 C733 1.334 . S
C733 H710 0.950 . S
C733 C732 1.334 . S
C733 C734 1.287 . S
C734 C733 1.287 . S
C734 C735 1.524 . S
C734 H753 0.913 . S
C735 H711 0.950 . S
C735 C734 1.524 . S
C735 C736 1.415 . S
C736 H712 0.950 . S
C736 C731 1.363 . S
C736 C735 1.415 . S
C737 H713 0.951 . S
C737 C738 1.366 . S
C737 C739 1.388 . S
C738 C737 1.366 . S
C738 C742 1.385 . S
C739 H714 0.951 . S
C739 C737 1.388 . S
C739 C740 1.366 . S
C740 C739 1.366 . S
C740 C741 1.414 . S
C740 C743 1.499 . S
C741 H715 0.950 . S
C741 C740 1.414 . S
C741 C742 1.374 . S
C742 H716 0.950 . S
C742 C738 1.385 . S
C742 C741 1.374 . S
C743 C740 1.499 . S
C743 C744 1.373 . S
C743 C745 1.389 . S
C744 H717 0.950 . S
C744 C730 1.377 . S
C744 C743 1.373 . S
C745 C729 1.377 . S
C745 C743 1.389 . S
C745 C746 1.524 . S
C746 C745 1.524 . S
C746 C747 1.397 . S
C746 C751 1.363 . S
C747 H718 0.950 . S
C747 C746 1.397 . S
C747 C748 1.334 . S
C748 H719 0.950 . S
C748 C747 1.334 . S
C748 C749 1.287 . S
C749 C748 1.287 . S
C749 C750 1.524 . S
C749 H752 0.999 . S
C750 H720 0.950 . S
C750 C749 1.524 . S
C750 C751 1.415 . S
C751 H721 0.950 . S
C751 C746 1.363 . S
C751 C750 1.415 . S
H752 C749 0.999 . S
H753 C734 0.913 . S
H754 C772 0.951 . S
H755 C774 0.951 . S
H756 C776 0.950 . S
H757 C777 0.950 . S
H758 C779 0.950 . S
H759 C782 0.950 . S
H760 C783 0.950 . S
H761 C785 0.950 . S
H762 C786 0.950 . S
H763 C787 0.951 . S
H764 C789 0.951 . S
H765 C791 0.950 . S
H766 C792 0.950 . S
H767 C794 0.950 . S
H768 C797 0.950 . S
H769 C798 0.950 . S
H770 C800 0.950 . S
H771 C801 0.950 . S
C772 H754 0.951 . S
C772 C773 1.366 . S
C772 C774 1.388 . S
C773 C772 1.366 . S
C773 C777 1.385 . S
C774 H755 0.951 . S
C774 C772 1.388 . S
C774 C775 1.366 . S
C775 C774 1.366 . S
C775 C776 1.414 . S
C775 C778 1.499 . S
C776 H756 0.950 . S
C776 C775 1.414 . S
C776 C777 1.374 . S
C777 H757 0.950 . S
C777 C773 1.385 . S
C777 C776 1.374 . S
C778 C775 1.499 . S
C778 C779 1.373 . S
C778 C780 1.389 . S
C779 H758 0.950 . S
C779 C778 1.373 . S
C779 C795 1.377 . S
C780 C778 1.389 . S
C780 C781 1.524 . S
C780 C794 1.377 . S
C781 C780 1.524 . S
C781 C782 1.397 . S
C781 C786 1.363 . S
C782 H759 0.950 . S
C782 C781 1.397 . S
C782 C783 1.334 . S
C783 H760 0.950 . S
C783 C782 1.334 . S
C783 C784 1.287 . S
C784 C783 1.287 . S
C784 C785 1.524 . S
C784 H803 0.913 . S
C785 H761 0.950 . S
C785 C784 1.524 . S
C785 C786 1.415 . S
C786 H762 0.950 . S
C786 C781 1.363 . S
C786 C785 1.415 . S
C787 H763 0.951 . S
C787 C788 1.366 . S
C787 C789 1.388 . S
C788 C787 1.366 . S
C788 C792 1.385 . S
C789 H764 0.951 . S
C789 C787 1.388 . S
C789 C790 1.366 . S
C790 C789 1.366 . S
C790 C791 1.414 . S
C790 C793 1.499 . S
C791 H765 0.950 . S
C791 C790 1.414 . S
C791 C792 1.374 . S
C792 H766 0.950 . S
C792 C788 1.385 . S
C792 C791 1.374 . S
C793 C790 1.499 . S
C793 C794 1.373 . S
C793 C795 1.389 . S
C794 H767 0.950 . S
C794 C780 1.377 . S
C794 C793 1.373 . S
C795 C779 1.377 . S
C795 C793 1.389 . S
C795 C796 1.524 . S
C796 C795 1.524 . S
C796 C797 1.397 . S
C796 C801 1.363 . S
C797 H768 0.950 . S
C797 C796 1.397 . S
C797 C798 1.334 . S
C798 H769 0.950 . S
C798 C797 1.334 . S
C798 C799 1.287 . S
C799 C798 1.287 . S
C799 C800 1.524 . S
C799 H802 0.999 . S
C800 H770 0.950 . S
C800 C799 1.524 . S
C800 C801 1.415 . S
C801 H771 0.950 . S
C801 C796 1.363 . S
C801 C800 1.415 . S
H802 C799 0.999 . S
H803 C784 0.913 . S
H804 C822 0.951 . S
H805 C824 0.951 . S
H806 C826 0.950 . S
H807 C827 0.950 . S
H808 C829 0.950 . S
H809 C832 0.950 . S
H810 C833 0.950 . S
H811 C835 0.950 . S
H812 C836 0.950 . S
H813 C837 0.951 . S
H814 C839 0.951 . S
H815 C841 0.950 . S
H816 C842 0.950 . S
H817 C844 0.950 . S
H818 C847 0.950 . S
H819 C848 0.950 . S
H820 C850 0.943 1_556 S
H821 C851 0.950 . S
C822 H804 0.951 . S
C822 C823 1.366 . S
C822 C824 1.388 . S
C823 C822 1.366 . S
C823 C827 1.385 . S
C824 H805 0.951 . S
C824 C822 1.388 . S
C824 C825 1.366 . S
C825 C824 1.366 . S
C825 C826 1.414 . S
C825 C828 1.499 . S
C826 H806 0.950 . S
C826 C825 1.414 . S
C826 C827 1.374 . S
C827 H807 0.950 . S
C827 C823 1.385 . S
C827 C826 1.374 . S
C828 C825 1.499 . S
C828 C829 1.373 . S
C828 C830 1.389 . S
C829 H808 0.950 . S
C829 C828 1.373 . S
C829 C845 1.377 . S
C830 C828 1.389 . S
C830 C831 1.524 . S
C830 C844 1.377 . S
C831 C830 1.524 . S
C831 C832 1.397 . S
C831 C836 1.363 . S
C832 H809 0.950 . S
C832 C831 1.397 . S
C832 C833 1.334 . S
C833 H810 0.950 . S
C833 C832 1.334 . S
C833 C834 1.287 . S
C834 C833 1.287 . S
C834 C835 1.524 . S
C834 H853 0.913 . S
C835 H811 0.950 . S
C835 C834 1.524 . S
C835 C836 1.415 . S
C836 H812 0.950 . S
C836 C831 1.363 . S
C836 C835 1.415 . S
C837 H813 0.951 . S
C837 C838 1.366 . S
C837 C839 1.388 . S
C838 C837 1.366 . S
C838 C842 1.385 . S
C839 H814 0.951 . S
C839 C837 1.388 . S
C839 C840 1.366 . S
C840 C839 1.366 . S
C840 C841 1.414 . S
C840 C843 1.499 . S
C841 H815 0.950 . S
C841 C840 1.414 . S
C841 C842 1.374 . S
C842 H816 0.950 . S
C842 C838 1.385 . S
C842 C841 1.374 . S
C843 C840 1.499 . S
C843 C844 1.373 . S
C843 C845 1.389 . S
C844 H817 0.950 . S
C844 C830 1.377 . S
C844 C843 1.373 . S
C845 C829 1.377 . S
C845 C843 1.389 . S
C845 C846 1.524 . S
C846 C845 1.524 . S
C846 C847 1.397 . S
C846 C851 1.363 . S
C847 H818 0.950 . S
C847 C846 1.397 . S
C847 C848 1.334 1_554 S
C848 H819 0.950 . S
C848 C847 1.334 1_556 S
C848 C849 1.287 . S
C849 C848 1.287 . S
C849 C850 1.511 1_556 S
C849 H852 0.999 . S
C850 H820 0.943 1_554 S
C850 C849 1.511 1_554 S
C850 C851 1.437 . S
C851 H821 0.950 . S
C851 C846 1.363 . S
C851 C850 1.437 . S
H852 C849 0.999 . S
H853 C834 0.913 . S
H854 C872 0.951 . S
H855 C874 0.951 . S
H856 C876 0.950 . S
H857 C877 0.950 . S
H858 C879 0.950 . S
H859 C882 0.950 . S
H860 C883 0.950 . S
H861 C885 0.950 . S
H862 C886 0.950 . S
H863 C887 0.951 . S
H864 C889 0.951 . S
H865 C891 0.950 . S
H866 C892 0.950 . S
H867 C894 0.950 . S
H868 C897 0.950 . S
H869 C898 0.950 . S
H870 C900 0.950 . S
H871 C901 0.950 . S
C872 H854 0.951 . S
C872 C873 1.366 . S
C872 C874 1.388 . S
C873 C872 1.366 . S
C873 C877 1.385 . S
C874 H855 0.951 . S
C874 C872 1.388 . S
C874 C875 1.366 . S
C875 C874 1.366 . S
C875 C876 1.414 . S
C875 C878 1.499 . S
C876 H856 0.950 . S
C876 C875 1.414 . S
C876 C877 1.374 . S
C877 H857 0.950 . S
C877 C873 1.385 . S
C877 C876 1.374 . S
C878 C875 1.499 . S
C878 C879 1.373 . S
C878 C880 1.389 . S
C879 H858 0.950 . S
C879 C878 1.373 . S
C879 C895 1.377 . S
C880 C878 1.389 . S
C880 C881 1.524 . S
C880 C894 1.377 . S
C881 C880 1.524 . S
C881 C882 1.397 . S
C881 C886 1.363 . S
C882 H859 0.950 . S
C882 C881 1.397 . S
C882 C883 1.334 . S
C883 H860 0.950 . S
C883 C882 1.334 . S
C883 C884 1.287 . S
C884 C883 1.287 . S
C884 C885 1.524 . S
C884 H903 0.913 . S
C885 H861 0.950 . S
C885 C884 1.524 . S
C885 C886 1.415 . S
C886 H862 0.950 . S
C886 C881 1.363 . S
C886 C885 1.415 . S
C887 H863 0.951 . S
C887 C888 1.366 . S
C887 C889 1.388 . S
C888 C887 1.366 . S
C888 C892 1.385 . S
C889 H864 0.951 . S
C889 C887 1.388 . S
C889 C890 1.366 . S
C890 C889 1.366 . S
C890 C891 1.414 . S
C890 C893 1.499 . S
C891 H865 0.950 . S
C891 C890 1.414 . S
C891 C892 1.374 . S
C892 H866 0.950 . S
C892 C888 1.385 . S
C892 C891 1.374 . S
C893 C890 1.499 . S
C893 C894 1.373 . S
C893 C895 1.389 . S
C894 H867 0.950 . S
C894 C880 1.377 . S
C894 C893 1.373 . S
C895 C879 1.377 . S
C895 C893 1.389 . S
C895 C896 1.524 . S
C896 C895 1.524 . S
C896 C897 1.397 . S
C896 C901 1.363 . S
C897 H868 0.950 . S
C897 C896 1.397 . S
C897 C898 1.334 . S
C898 H869 0.950 . S
C898 C897 1.334 . S
C898 C899 1.287 . S
C899 C898 1.287 . S
C899 C900 1.524 . S
C899 H902 0.999 . S
C900 H870 0.950 . S
C900 C899 1.524 . S
C900 C901 1.415 . S
C901 H871 0.950 . S
C901 C896 1.363 . S
C901 C900 1.415 . S
H902 C899 0.999 . S
H903 C884 0.913 . S
H904 C922 0.951 . S
H905 C924 0.951 . S
H906 C926 0.950 . S
H907 C927 0.950 . S
H908 C929 0.950 . S
H909 C932 0.950 . S
H910 C933 0.950 . S
H911 C935 0.950 . S
H912 C936 0.950 . S
H913 C937 0.951 . S
H914 C939 0.951 . S
H915 C941 0.950 . S
H916 C942 0.950 . S
H917 C944 0.950 . S
H918 C947 0.950 . S
H919 C948 0.950 . S
H920 C950 0.950 . S
H921 C951 0.950 . S
C922 H904 0.951 . S
C922 C923 1.366 . S
C922 C924 1.388 . S
C923 C922 1.366 . S
C923 C927 1.385 . S
C924 H905 0.951 . S
C924 C922 1.388 . S
C924 C925 1.366 . S
C925 C924 1.366 . S
C925 C926 1.414 . S
C925 C928 1.499 . S
C926 H906 0.950 . S
C926 C925 1.414 . S
C926 C927 1.374 . S
C927 H907 0.950 . S
C927 C923 1.385 . S
C927 C926 1.374 . S
C928 C925 1.499 . S
C928 C929 1.373 . S
C928 C930 1.389 . S
C929 H908 0.950 . S
C929 C928 1.373 . S
C929 C945 1.377 . S
C930 C928 1.389 . S
C930 C931 1.524 . S
C930 C944 1.377 . S
C931 C930 1.524 . S
C931 C932 1.397 . S
C931 C936 1.363 . S
C932 H909 0.950 . S
C932 C931 1.397 . S
C932 C933 1.334 . S
C933 H910 0.950 . S
C933 C932 1.334 . S
C933 C934 1.287 . S
C934 C933 1.287 . S
C934 C935 1.524 . S
C934 H953 0.913 . S
C935 H911 0.950 . S
C935 C934 1.524 . S
C935 C936 1.415 . S
C936 H912 0.950 . S
C936 C931 1.363 . S
C936 C935 1.415 . S
C937 H913 0.951 . S
C937 C938 1.366 . S
C937 C939 1.388 . S
C938 C937 1.366 . S
C938 C942 1.385 . S
C939 H914 0.951 . S
C939 C937 1.388 . S
C939 C940 1.366 . S
C940 C939 1.366 . S
C940 C941 1.414 . S
C940 C943 1.499 . S
C941 H915 0.950 . S
C941 C940 1.414 . S
C941 C942 1.374 . S
C942 H916 0.950 . S
C942 C938 1.385 . S
C942 C941 1.374 . S
C943 C940 1.499 . S
C943 C944 1.373 . S
C943 C945 1.389 . S
C944 H917 0.950 . S
C944 C930 1.377 . S
C944 C943 1.373 . S
C945 C929 1.377 . S
C945 C943 1.389 . S
C945 C946 1.524 . S
C946 C945 1.524 . S
C946 C947 1.397 . S
C946 C951 1.363 . S
C947 H918 0.950 . S
C947 C946 1.397 . S
C947 C948 1.334 . S
C948 H919 0.950 . S
C948 C947 1.334 . S
C948 C949 1.287 . S
C949 C948 1.287 . S
C949 C950 1.524 . S
C949 H952 0.999 . S
C950 H920 0.950 . S
C950 C949 1.524 . S
C950 C951 1.415 . S
C951 H921 0.950 . S
C951 C946 1.363 . S
C951 C950 1.415 . S
H952 C949 0.999 . S
H953 C934 0.913 . S
H954 C972 0.951 . S
H955 C974 0.951 . S
H956 C976 0.950 . S
H957 C977 0.950 . S
H958 C979 0.950 . S
H959 C982 0.950 . S
H960 C983 0.950 . S
H961 C985 0.950 . S
H962 C986 0.950 . S
H963 C987 0.951 . S
H964 C989 0.951 . S
H965 C991 0.950 . S
H966 C992 0.950 . S
H967 C994 0.950 . S
H968 C997 0.950 . S
H969 C998 0.950 . S
H970 C1000 0.950 . S
H971 C1001 0.950 . S
C972 H954 0.951 . S
C972 C973 1.366 . S
C972 C974 1.388 . S
C973 C972 1.366 . S
C973 C977 1.385 . S
C974 H955 0.951 . S
C974 C972 1.388 . S
C974 C975 1.366 . S
C975 C974 1.366 . S
C975 C976 1.414 . S
C975 C978 1.499 . S
C976 H956 0.950 . S
C976 C975 1.414 . S
C976 C977 1.374 . S
C977 H957 0.950 . S
C977 C973 1.385 . S
C977 C976 1.374 . S
C978 C975 1.499 . S
C978 C979 1.373 . S
C978 C980 1.389 . S
C979 H958 0.950 . S
C979 C978 1.373 . S
C979 C995 1.377 . S
C980 C978 1.389 . S
C980 C981 1.524 . S
C980 C994 1.377 . S
C981 C980 1.524 . S
C981 C982 1.397 . S
C981 C986 1.363 . S
C982 H959 0.950 . S
C982 C981 1.397 . S
C982 C983 1.334 . S
C983 H960 0.950 . S
C983 C982 1.334 . S
C983 C984 1.287 . S
C984 C983 1.287 . S
C984 C985 1.524 . S
C984 H1003 0.913 . S
C985 H961 0.950 . S
C985 C984 1.524 . S
C985 C986 1.415 . S
C986 H962 0.950 . S
C986 C981 1.363 . S
C986 C985 1.415 . S
C987 H963 0.951 . S
C987 C988 1.366 . S
C987 C989 1.388 . S
C988 C987 1.366 . S
C988 C992 1.385 . S
C989 H964 0.951 . S
C989 C987 1.388 . S
C989 C990 1.366 . S
C990 C989 1.366 . S
C990 C991 1.414 . S
C990 C993 1.499 . S
C991 H965 0.950 . S
C991 C990 1.414 . S
C991 C992 1.374 . S
C992 H966 0.950 . S
C992 C988 1.385 . S
C992 C991 1.374 . S
C993 C990 1.499 . S
C993 C994 1.373 . S
C993 C995 1.389 . S
C994 H967 0.950 . S
C994 C980 1.377 . S
C994 C993 1.373 . S
C995 C979 1.377 . S
C995 C993 1.389 . S
C995 C996 1.524 . S
C996 C995 1.524 . S
C996 C997 1.397 . S
C996 C1001 1.363 . S
C997 H968 0.950 . S
C997 C996 1.397 . S
C997 C998 1.334 . S
C998 H969 0.950 . S
C998 C997 1.334 . S
C998 C999 1.287 . S
C999 C998 1.287 . S
C999 C1000 1.524 . S
C999 H1002 0.999 . S
C1000 H970 0.950 . S
C1000 C999 1.524 . S
C1000 C1001 1.415 . S
C1001 H971 0.950 . S
C1001 C996 1.363 . S
C1001 C1000 1.415 . S
H1002 C999 0.999 . S
H1003 C984 0.913 . S
H1004 C1022 0.951 . S
H1005 C1024 0.951 . S
H1006 C1026 0.950 . S
H1007 C1027 0.950 . S
H1008 C1029 0.950 . S
H1009 C1032 0.950 . S
H1010 C1033 0.950 . S
H1011 C1035 0.950 . S
H1012 C1036 0.950 . S
H1013 C1037 0.951 . S
H1014 C1039 0.951 . S
H1015 C1041 0.950 . S
H1016 C1042 0.950 . S
H1017 C1044 0.950 . S
H1018 C1047 0.950 . S
H1019 C1048 0.950 . S
H1020 C1050 0.950 . S
H1021 C1051 0.950 . S
C1022 H1004 0.951 . S
C1022 C1023 1.366 . S
C1022 C1024 1.388 . S
C1023 C1022 1.366 . S
C1023 C1027 1.385 . S
C1024 H1005 0.951 . S
C1024 C1022 1.388 . S
C1024 C1025 1.366 . S
C1025 C1024 1.366 . S
C1025 C1026 1.414 . S
C1025 C1028 1.499 . S
C1026 H1006 0.950 . S
C1026 C1025 1.414 . S
C1026 C1027 1.374 . S
C1027 H1007 0.950 . S
C1027 C1023 1.385 . S
C1027 C1026 1.374 . S
C1028 C1025 1.499 . S
C1028 C1029 1.373 . S
C1028 C1030 1.389 . S
C1029 H1008 0.950 . S
C1029 C1028 1.373 . S
C1029 C1045 1.377 . S
C1030 C1028 1.389 . S
C1030 C1031 1.524 . S
C1030 C1044 1.377 . S
C1031 C1030 1.524 . S
C1031 C1032 1.397 . S
C1031 C1036 1.363 . S
C1032 H1009 0.950 . S
C1032 C1031 1.397 . S
C1032 C1033 1.334 . S
C1033 H1010 0.950 . S
C1033 C1032 1.334 . S
C1033 C1034 1.287 . S
C1034 C1033 1.287 . S
C1034 C1035 1.524 . S
C1034 H1053 0.913 . S
C1035 H1011 0.950 . S
C1035 C1034 1.524 . S
C1035 C1036 1.415 . S
C1036 H1012 0.950 . S
C1036 C1031 1.363 . S
C1036 C1035 1.415 . S
C1037 H1013 0.951 . S
C1037 C1038 1.366 . S
C1037 C1039 1.388 . S
C1038 C1037 1.366 . S
C1038 C1042 1.385 . S
C1039 H1014 0.951 . S
C1039 C1037 1.388 . S
C1039 C1040 1.366 . S
C1040 C1039 1.366 . S
C1040 C1041 1.414 . S
C1040 C1043 1.499 . S
C1041 H1015 0.950 . S
C1041 C1040 1.414 . S
C1041 C1042 1.374 . S
C1042 H1016 0.950 . S
C1042 C1038 1.385 . S
C1042 C1041 1.374 . S
C1043 C1040 1.499 . S
C1043 C1044 1.373 . S
C1043 C1045 1.389 . S
C1044 H1017 0.950 . S
C1044 C1030 1.377 . S
C1044 C1043 1.373 . S
C1045 C1029 1.377 . S
C1045 C1043 1.389 . S
C1045 C1046 1.524 . S
C1046 C1045 1.524 . S
C1046 C1047 1.397 . S
C1046 C1051 1.363 . S
C1047 H1018 0.950 . S
C1047 C1046 1.397 . S
C1047 C1048 1.334 . S
C1048 H1019 0.950 . S
C1048 C1047 1.334 . S
C1048 C1049 1.287 . S
C1049 C1048 1.287 . S
C1049 C1050 1.524 . S
C1049 H1052 0.999 . S
C1050 H1020 0.950 . S
C1050 C1049 1.524 . S
C1050 C1051 1.415 . S
C1051 H1021 0.950 . S
C1051 C1046 1.363 . S
C1051 C1050 1.415 . S
H1052 C1049 0.999 . S
H1053 C1034 0.913 . S
H1054 C1072 0.951 . S
H1055 C1074 0.951 . S
H1056 C1076 0.950 . S
H1057 C1077 0.950 . S
H1058 C1079 0.950 . S
H1059 C1082 0.950 . S
H1060 C1083 0.950 . S
H1061 C1085 0.950 . S
H1062 C1086 0.950 . S
H1063 C1087 0.951 . S
H1064 C1089 0.951 . S
H1065 C1091 0.950 . S
H1066 C1092 0.950 . S
H1067 C1094 0.950 . S
H1068 C1097 0.950 . S
H1069 C1098 0.950 . S
H1070 C1100 0.950 . S
H1071 C1101 0.950 . S
C1072 H1054 0.951 . S
C1072 C1073 1.366 . S
C1072 C1074 1.388 . S
C1073 C1072 1.366 . S
C1073 C1077 1.385 . S
C1074 H1055 0.951 . S
C1074 C1072 1.388 . S
C1074 C1075 1.366 . S
C1075 C1074 1.366 . S
C1075 C1076 1.414 . S
C1075 C1078 1.499 . S
C1076 H1056 0.950 . S
C1076 C1075 1.414 . S
C1076 C1077 1.374 . S
C1077 H1057 0.950 . S
C1077 C1073 1.385 . S
C1077 C1076 1.374 . S
C1078 C1075 1.499 . S
C1078 C1079 1.373 . S
C1078 C1080 1.389 . S
C1079 H1058 0.950 . S
C1079 C1078 1.373 . S
C1079 C1095 1.377 . S
C1080 C1078 1.389 . S
C1080 C1081 1.524 . S
C1080 C1094 1.377 . S
C1081 C1080 1.524 . S
C1081 C1082 1.397 . S
C1081 C1086 1.363 . S
C1082 H1059 0.950 . S
C1082 C1081 1.397 . S
C1082 C1083 1.334 . S
C1083 H1060 0.950 . S
C1083 C1082 1.334 . S
C1083 C1084 1.287 . S
C1084 C1083 1.287 . S
C1084 C1085 1.524 . S
C1084 H1103 0.913 . S
C1085 H1061 0.950 . S
C1085 C1084 1.524 . S
C1085 C1086 1.415 . S
C1086 H1062 0.950 . S
C1086 C1081 1.363 . S
C1086 C1085 1.415 . S
C1087 H1063 0.951 . S
C1087 C1088 1.366 . S
C1087 C1089 1.388 . S
C1088 C1087 1.366 . S
C1088 C1092 1.385 . S
C1089 H1064 0.951 . S
C1089 C1087 1.388 . S
C1089 C1090 1.366 . S
C1090 C1089 1.366 . S
C1090 C1091 1.414 . S
C1090 C1093 1.499 . S
C1091 H1065 0.950 . S
C1091 C1090 1.414 . S
C1091 C1092 1.374 . S
C1092 H1066 0.950 . S
C1092 C1088 1.385 . S
C1092 C1091 1.374 . S
C1093 C1090 1.499 . S
C1093 C1094 1.373 . S
C1093 C1095 1.389 . S
C1094 H1067 0.950 . S
C1094 C1080 1.377 . S
C1094 C1093 1.373 . S
C1095 C1079 1.377 . S
C1095 C1093 1.389 . S
C1095 C1096 1.524 . S
C1096 C1095 1.524 . S
C1096 C1097 1.397 . S
C1096 C1101 1.363 . S
C1097 H1068 0.950 . S
C1097 C1096 1.397 . S
C1097 C1098 1.334 . S
C1098 H1069 0.950 . S
C1098 C1097 1.334 . S
C1098 C1099 1.287 . S
C1099 C1098 1.287 . S
C1099 C1100 1.524 . S
C1099 H1102 0.999 . S
C1100 H1070 0.950 . S
C1100 C1099 1.524 . S
C1100 C1101 1.415 . S
C1101 H1071 0.950 . S
C1101 C1096 1.363 . S
C1101 C1100 1.415 . S
H1102 C1099 0.999 . S
H1103 C1084 0.913 . S
H1104 C1122 0.951 . S
H1105 C1124 0.951 . S
H1106 C1126 0.950 . S
H1107 C1127 0.950 . S
H1108 C1129 0.950 . S
H1109 C1132 0.950 . S
H1110 C1133 0.950 . S
H1111 C1135 0.950 . S
H1112 C1136 0.950 . S
H1113 C1137 0.951 . S
H1114 C1139 0.939 1_556 S
H1115 C1141 0.928 1_556 S
H1116 C1142 0.950 . S
H1117 C1144 0.950 . S
H1118 C1147 0.950 . S
H1119 C1148 0.950 . S
H1120 C1150 0.950 . S
H1121 C1151 0.950 . S
C1122 H1104 0.951 . S
C1122 C1123 1.366 . S
C1122 C1124 1.388 . S
C1123 C1122 1.366 . S
C1123 C1127 1.385 . S
C1124 H1105 0.951 . S
C1124 C1122 1.388 . S
C1124 C1125 1.366 . S
C1125 C1124 1.366 . S
C1125 C1126 1.414 . S
C1125 C1128 1.499 . S
C1126 H1106 0.950 . S
C1126 C1125 1.414 . S
C1126 C1127 1.374 . S
C1127 H1107 0.950 . S
C1127 C1123 1.385 . S
C1127 C1126 1.374 . S
C1128 C1125 1.499 . S
C1128 C1129 1.373 . S
C1128 C1130 1.389 . S
C1129 H1108 0.950 . S
C1129 C1128 1.373 . S
C1129 C1145 1.377 . S
C1130 C1128 1.389 . S
C1130 C1131 1.524 . S
C1130 C1144 1.377 . S
C1131 C1130 1.524 . S
C1131 C1132 1.397 . S
C1131 C1136 1.363 . S
C1132 H1109 0.950 . S
C1132 C1131 1.397 . S
C1132 C1133 1.334 . S
C1133 H1110 0.950 . S
C1133 C1132 1.334 . S
C1133 C1134 1.287 . S
C1134 C1133 1.287 . S
C1134 C1135 1.524 . S
C1134 H1153 0.913 . S
C1135 H1111 0.950 . S
C1135 C1134 1.524 . S
C1135 C1136 1.415 . S
C1136 H1112 0.950 . S
C1136 C1131 1.363 . S
C1136 C1135 1.415 . S
C1137 H1113 0.951 . S
C1137 C1138 1.366 . S
C1137 C1139 1.388 . S
C1138 C1137 1.366 . S
C1138 C1142 1.385 . S
C1139 H1114 0.939 1_554 S
C1139 C1137 1.388 . S
C1139 C1140 1.366 1_554 S
C1140 C1139 1.366 1_556 S
C1140 C1141 1.399 1_556 S
C1140 C1143 1.499 . S
C1141 H1115 0.928 1_554 S
C1141 C1140 1.399 1_554 S
C1141 C1142 1.413 . S
C1142 H1116 0.950 . S
C1142 C1138 1.385 . S
C1142 C1141 1.413 . S
C1143 C1140 1.499 . S
C1143 C1144 1.373 . S
C1143 C1145 1.389 . S
C1144 H1117 0.950 . S
C1144 C1130 1.377 . S
C1144 C1143 1.373 . S
C1145 C1129 1.377 . S
C1145 C1143 1.389 . S
C1145 C1146 1.524 . S
C1146 C1145 1.524 . S
C1146 C1147 1.397 1_556 S
C1146 C1151 1.363 . S
C1147 H1118 0.950 . S
C1147 C1146 1.397 1_554 S
C1147 C1148 1.334 . S
C1148 H1119 0.950 . S
C1148 C1147 1.334 . S
C1148 C1149 1.287 . S
C1149 C1148 1.287 . S
C1149 C1150 1.524 . S
C1149 H1152 0.999 . S
C1150 H1120 0.950 . S
C1150 C1149 1.524 . S
C1150 C1151 1.415 1_554 S
C1151 H1121 0.950 . S
C1151 C1146 1.363 . S
C1151 C1150 1.415 1_556 S
H1152 C1149 0.999 . S
H1153 C1134 0.913 . S
H1154 C1172 0.951 . S
H1155 C1174 0.951 . S
H1156 C1176 0.950 . S
H1157 C1177 0.950 . S
H1158 C1179 0.950 . S
H1159 C1182 0.950 . S
H1160 C1183 0.950 . S
H1161 C1185 0.950 . S
H1162 C1186 0.950 . S
H1163 C1187 0.951 . S
H1164 C1189 0.951 . S
H1165 C1191 0.950 . S
H1166 C1192 0.950 . S
H1167 C1194 0.950 . S
H1168 C1197 0.950 . S
H1169 C1198 0.950 . S
H1170 C1200 0.950 . S
H1171 C1201 0.950 . S
C1172 H1154 0.951 . S
C1172 C1173 1.366 . S
C1172 C1174 1.388 . S
C1173 C1172 1.366 . S
C1173 C1177 1.385 . S
C1174 H1155 0.951 . S
C1174 C1172 1.388 . S
C1174 C1175 1.366 . S
C1175 C1174 1.366 . S
C1175 C1176 1.414 . S
C1175 C1178 1.499 . S
C1176 H1156 0.950 . S
C1176 C1175 1.414 . S
C1176 C1177 1.374 . S
C1177 H1157 0.950 . S
C1177 C1173 1.385 . S
C1177 C1176 1.374 . S
C1178 C1175 1.499 . S
C1178 C1179 1.373 . S
C1178 C1180 1.389 . S
C1179 H1158 0.950 . S
C1179 C1178 1.373 . S
C1179 C1195 1.377 . S
C1180 C1178 1.389 . S
C1180 C1181 1.524 . S
C1180 C1194 1.377 . S
C1181 C1180 1.524 . S
C1181 C1182 1.397 . S
C1181 C1186 1.363 . S
C1182 H1159 0.950 . S
C1182 C1181 1.397 . S
C1182 C1183 1.334 . S
C1183 H1160 0.950 . S
C1183 C1182 1.334 . S
C1183 C1184 1.287 . S
C1184 C1183 1.287 . S
C1184 C1185 1.524 . S
C1184 H1203 0.913 . S
C1185 H1161 0.950 . S
C1185 C1184 1.524 . S
C1185 C1186 1.415 . S
C1186 H1162 0.950 . S
C1186 C1181 1.363 . S
C1186 C1185 1.415 . S
C1187 H1163 0.951 . S
C1187 C1188 1.366 . S
C1187 C1189 1.388 . S
C1188 C1187 1.366 . S
C1188 C1192 1.385 . S
C1189 H1164 0.951 . S
C1189 C1187 1.388 . S
C1189 C1190 1.366 . S
C1190 C1189 1.366 . S
C1190 C1191 1.414 . S
C1190 C1193 1.499 . S
C1191 H1165 0.950 . S
C1191 C1190 1.414 . S
C1191 C1192 1.374 . S
C1192 H1166 0.950 . S
C1192 C1188 1.385 . S
C1192 C1191 1.374 . S
C1193 C1190 1.499 . S
C1193 C1194 1.373 . S
C1193 C1195 1.389 . S
C1194 H1167 0.950 . S
C1194 C1180 1.377 . S
C1194 C1193 1.373 . S
C1195 C1179 1.377 . S
C1195 C1193 1.389 . S
C1195 C1196 1.524 . S
C1196 C1195 1.524 . S
C1196 C1197 1.397 . S
C1196 C1201 1.363 . S
C1197 H1168 0.950 . S
C1197 C1196 1.397 . S
C1197 C1198 1.334 . S
C1198 H1169 0.950 . S
C1198 C1197 1.334 . S
C1198 C1199 1.287 . S
C1199 C1198 1.287 . S
C1199 C1200 1.524 . S
C1199 H1202 0.999 . S
C1200 H1170 0.950 . S
C1200 C1199 1.524 . S
C1200 C1201 1.415 . S
C1201 H1171 0.950 . S
C1201 C1196 1.363 . S
C1201 C1200 1.415 . S
H1202 C1199 0.999 . S
H1203 C1184 0.913 . S
H1204 C1222 0.951 . S
H1205 C1224 0.951 . S
H1206 C1226 0.950 . S
H1207 C1227 0.950 . S
H1208 C1229 0.950 . S
H1209 C1232 0.950 . S
H1210 C1233 0.950 . S
H1211 C1235 0.950 . S
H1212 C1236 0.950 . S
H1213 C1237 0.951 . S
H1214 C1239 0.951 . S
H1215 C1241 0.950 . S
H1216 C1242 0.950 . S
H1217 C1244 0.950 . S
H1218 C1247 0.950 . S
H1219 C1248 0.950 . S
H1220 C1250 0.950 . S
H1221 C1251 0.950 . S
C1222 H1204 0.951 . S
C1222 C1223 1.366 . S
C1222 C1224 1.388 . S
C1223 C1222 1.366 . S
C1223 C1227 1.385 . S
C1224 H1205 0.951 . S
C1224 C1222 1.388 . S
C1224 C1225 1.366 . S
C1225 C1224 1.366 . S
C1225 C1226 1.414 . S
C1225 C1228 1.499 . S
C1226 H1206 0.950 . S
C1226 C1225 1.414 . S
C1226 C1227 1.374 . S
C1227 H1207 0.950 . S
C1227 C1223 1.385 . S
C1227 C1226 1.374 . S
C1228 C1225 1.499 . S
C1228 C1229 1.373 . S
C1228 C1230 1.389 . S
C1229 H1208 0.950 . S
C1229 C1228 1.373 . S
C1229 C1245 1.377 . S
C1230 C1228 1.389 . S
C1230 C1231 1.524 . S
C1230 C1244 1.377 . S
C1231 C1230 1.524 . S
C1231 C1232 1.397 . S
C1231 C1236 1.363 . S
C1232 H1209 0.950 . S
C1232 C1231 1.397 . S
C1232 C1233 1.334 . S
C1233 H1210 0.950 . S
C1233 C1232 1.334 . S
C1233 C1234 1.287 . S
C1234 C1233 1.287 . S
C1234 C1235 1.524 . S
C1234 H1253 0.913 . S
C1235 H1211 0.950 . S
C1235 C1234 1.524 . S
C1235 C1236 1.415 . S
C1236 H1212 0.950 . S
C1236 C1231 1.363 . S
C1236 C1235 1.415 . S
C1237 H1213 0.951 . S
C1237 C1238 1.366 . S
C1237 C1239 1.388 . S
C1238 C1237 1.366 . S
C1238 C1242 1.385 . S
C1239 H1214 0.951 . S
C1239 C1237 1.388 . S
C1239 C1240 1.366 . S
C1240 C1239 1.366 . S
C1240 C1241 1.414 . S
C1240 C1243 1.499 . S
C1241 H1215 0.950 . S
C1241 C1240 1.414 . S
C1241 C1242 1.374 . S
C1242 H1216 0.950 . S
C1242 C1238 1.385 . S
C1242 C1241 1.374 . S
C1243 C1240 1.499 . S
C1243 C1244 1.373 . S
C1243 C1245 1.389 . S
C1244 H1217 0.950 . S
C1244 C1230 1.377 . S
C1244 C1243 1.373 . S
C1245 C1229 1.377 . S
C1245 C1243 1.389 . S
C1245 C1246 1.524 . S
C1246 C1245 1.524 . S
C1246 C1247 1.397 . S
C1246 C1251 1.363 . S
C1247 H1218 0.950 . S
C1247 C1246 1.397 . S
C1247 C1248 1.334 . S
C1248 H1219 0.950 . S
C1248 C1247 1.334 . S
C1248 C1249 1.287 . S
C1249 C1248 1.287 . S
C1249 C1250 1.524 . S
C1249 H1252 0.999 . S
C1250 H1220 0.950 . S
C1250 C1249 1.524 . S
C1250 C1251 1.415 . S
C1251 H1221 0.950 . S
C1251 C1246 1.363 . S
C1251 C1250 1.415 . S
H1252 C1249 0.999 . S
H1253 C1234 0.913 . S
H1254 C1272 0.951 . S
H1255 C1274 0.951 . S
H1256 C1276 0.950 . S
H1257 C1277 0.950 . S
H1258 C1279 0.950 . S
H1259 C1282 0.950 . S
H1260 C1283 0.950 . S
H1261 C1285 0.950 . S
H1262 C1286 0.950 . S
H1263 C1287 0.951 . S
H1264 C1289 0.951 . S
H1265 C1291 0.950 . S
H1266 C1292 0.950 . S
H1267 C1294 0.950 . S
H1268 C1297 0.950 . S
H1269 C1298 0.950 . S
H1270 C1300 0.950 . S
H1271 C1301 0.950 . S
C1272 H1254 0.951 . S
C1272 C1273 1.366 . S
C1272 C1274 1.388 . S
C1273 C1272 1.366 . S
C1273 C1277 1.385 . S
C1274 H1255 0.951 . S
C1274 C1272 1.388 . S
C1274 C1275 1.366 . S
C1275 C1274 1.366 . S
C1275 C1276 1.414 . S
C1275 C1278 1.499 . S
C1276 H1256 0.950 . S
C1276 C1275 1.414 . S
C1276 C1277 1.374 . S
C1277 H1257 0.950 . S
C1277 C1273 1.385 . S
C1277 C1276 1.374 . S
C1278 C1275 1.499 . S
C1278 C1279 1.373 . S
C1278 C1280 1.389 . S
C1279 H1258 0.950 . S
C1279 C1278 1.373 . S
C1279 C1295 1.377 . S
C1280 C1278 1.389 . S
C1280 C1281 1.524 . S
C1280 C1294 1.377 . S
C1281 C1280 1.524 . S
C1281 C1282 1.397 . S
C1281 C1286 1.363 . S
C1282 H1259 0.950 . S
C1282 C1281 1.397 . S
C1282 C1283 1.334 . S
C1283 H1260 0.950 . S
C1283 C1282 1.334 . S
C1283 C1284 1.287 . S
C1284 C1283 1.287 . S
C1284 C1285 1.524 . S
C1284 H1303 0.913 . S
C1285 H1261 0.950 . S
C1285 C1284 1.524 . S
C1285 C1286 1.415 . S
C1286 H1262 0.950 . S
C1286 C1281 1.363 . S
C1286 C1285 1.415 . S
C1287 H1263 0.951 . S
C1287 C1288 1.366 . S
C1287 C1289 1.388 . S
C1288 C1287 1.366 . S
C1288 C1292 1.385 . S
C1289 H1264 0.951 . S
C1289 C1287 1.388 . S
C1289 C1290 1.366 . S
C1290 C1289 1.366 . S
C1290 C1291 1.414 . S
C1290 C1293 1.499 . S
C1291 H1265 0.950 . S
C1291 C1290 1.414 . S
C1291 C1292 1.374 . S
C1292 H1266 0.950 . S
C1292 C1288 1.385 . S
C1292 C1291 1.374 . S
C1293 C1290 1.499 . S
C1293 C1294 1.373 . S
C1293 C1295 1.389 . S
C1294 H1267 0.950 . S
C1294 C1280 1.377 . S
C1294 C1293 1.373 . S
C1295 C1279 1.377 . S
C1295 C1293 1.389 . S
C1295 C1296 1.524 . S
C1296 C1295 1.524 . S
C1296 C1297 1.397 . S
C1296 C1301 1.363 . S
C1297 H1268 0.950 . S
C1297 C1296 1.397 . S
C1297 C1298 1.334 . S
C1298 H1269 0.950 . S
C1298 C1297 1.334 . S
C1298 C1299 1.287 . S
C1299 C1298 1.287 . S
C1299 C1300 1.524 . S
C1299 H1302 0.999 . S
C1300 H1270 0.950 . S
C1300 C1299 1.524 . S
C1300 C1301 1.415 . S
C1301 H1271 0.950 . S
C1301 C1296 1.363 . S
C1301 C1300 1.415 . S
H1302 C1299 0.999 . S
H1303 C1284 0.913 . S
H1304 C1322 0.951 . S
H1305 C1324 0.951 . S
H1306 C1326 0.950 . S
H1307 C1327 0.950 . S
H1308 C1329 0.950 . S
H1309 C1332 0.950 . S
H1310 C1333 0.950 . S
H1311 C1335 0.950 . S
H1312 C1336 0.950 . S
H1313 C1337 0.951 . S
H1314 C1339 0.951 . S
H1315 C1341 0.950 . S
H1316 C1342 0.950 . S
H1317 C1344 0.950 . S
H1318 C1347 0.950 . S
H1319 C1348 0.950 . S
H1320 C1350 0.950 . S
H1321 C1351 0.950 . S
C1322 H1304 0.951 . S
C1322 C1323 1.366 . S
C1322 C1324 1.388 . S
C1323 C1322 1.366 . S
C1323 C1327 1.385 . S
C1324 H1305 0.951 . S
C1324 C1322 1.388 . S
C1324 C1325 1.366 . S
C1325 C1324 1.366 . S
C1325 C1326 1.414 . S
C1325 C1328 1.499 . S
C1326 H1306 0.950 . S
C1326 C1325 1.414 . S
C1326 C1327 1.374 . S
C1327 H1307 0.950 . S
C1327 C1323 1.385 . S
C1327 C1326 1.374 . S
C1328 C1325 1.499 . S
C1328 C1329 1.373 . S
C1328 C1330 1.389 . S
C1329 H1308 0.950 . S
C1329 C1328 1.373 . S
C1329 C1345 1.377 . S
C1330 C1328 1.389 . S
C1330 C1331 1.524 . S
C1330 C1344 1.377 . S
C1331 C1330 1.524 . S
C1331 C1332 1.397 . S
C1331 C1336 1.363 . S
C1332 H1309 0.950 . S
C1332 C1331 1.397 . S
C1332 C1333 1.334 . S
C1333 H1310 0.950 . S
C1333 C1332 1.334 . S
C1333 C1334 1.287 . S
C1334 C1333 1.287 . S
C1334 C1335 1.524 . S
C1334 H1353 0.913 . S
C1335 H1311 0.950 . S
C1335 C1334 1.524 . S
C1335 C1336 1.415 . S
C1336 H1312 0.950 . S
C1336 C1331 1.363 . S
C1336 C1335 1.415 . S
C1337 H1313 0.951 . S
C1337 C1338 1.366 . S
C1337 C1339 1.388 . S
C1338 C1337 1.366 . S
C1338 C1342 1.385 . S
C1339 H1314 0.951 . S
C1339 C1337 1.388 . S
C1339 C1340 1.366 . S
C1340 C1339 1.366 . S
C1340 C1341 1.414 . S
C1340 C1343 1.499 . S
C1341 H1315 0.950 . S
C1341 C1340 1.414 . S
C1341 C1342 1.374 . S
C1342 H1316 0.950 . S
C1342 C1338 1.385 . S
C1342 C1341 1.374 . S
C1343 C1340 1.499 . S
C1343 C1344 1.373 . S
C1343 C1345 1.389 . S
C1344 H1317 0.950 . S
C1344 C1330 1.377 . S
C1344 C1343 1.373 . S
C1345 C1329 1.377 . S
C1345 C1343 1.389 . S
C1345 C1346 1.524 . S
C1346 C1345 1.524 . S
C1346 C1347 1.397 . S
C1346 C1351 1.363 . S
C1347 H1318 0.950 . S
C1347 C1346 1.397 . S
C1347 C1348 1.334 . S
C1348 H1319 0.950 . S
C1348 C1347 1.334 . S
C1348 C1349 1.287 . S
C1349 C1348 1.287 . S
C1349 C1350 1.524 . S
C1349 H1352 0.999 . S
C1350 H1320 0.950 . S
C1350 C1349 1.524 . S
C1350 C1351 1.415 . S
C1351 H1321 0.950 . S
C1351 C1346 1.363 . S
C1351 C1350 1.415 . S
H1352 C1349 0.999 . S
H1353 C1334 0.913 . S
H1354 C1372 0.951 . S
H1355 C1374 0.951 . S
H1356 C1376 0.950 . S
H1357 C1377 0.950 . S
H1358 C1379 0.950 . S
H1359 C1382 0.950 . S
H1360 C1383 0.950 . S
H1361 C1385 0.950 . S
H1362 C1386 0.950 . S
H1363 C1387 0.951 . S
H1364 C1389 0.951 . S
H1365 C1391 0.950 . S
H1366 C1392 0.950 . S
H1367 C1394 0.950 . S
H1368 C1397 0.950 . S
H1369 C1398 0.950 . S
H1370 C1400 0.950 . S
H1371 C1401 0.950 . S
C1372 H1354 0.951 . S
C1372 C1373 1.366 . S
C1372 C1374 1.388 . S
C1373 C1372 1.366 . S
C1373 C1377 1.385 . S
C1374 H1355 0.951 . S
C1374 C1372 1.388 . S
C1374 C1375 1.366 . S
C1375 C1374 1.366 . S
C1375 C1376 1.414 . S
C1375 C1378 1.499 . S
C1376 H1356 0.950 . S
C1376 C1375 1.414 . S
C1376 C1377 1.374 . S
C1377 H1357 0.950 . S
C1377 C1373 1.385 . S
C1377 C1376 1.374 . S
C1378 C1375 1.499 . S
C1378 C1379 1.373 . S
C1378 C1380 1.389 . S
C1379 H1358 0.950 . S
C1379 C1378 1.373 . S
C1379 C1395 1.377 . S
C1380 C1378 1.389 . S
C1380 C1381 1.524 . S
C1380 C1394 1.377 . S
C1381 C1380 1.524 . S
C1381 C1382 1.397 . S
C1381 C1386 1.363 . S
C1382 H1359 0.950 . S
C1382 C1381 1.397 . S
C1382 C1383 1.334 . S
C1383 H1360 0.950 . S
C1383 C1382 1.334 . S
C1383 C1384 1.287 . S
C1384 C1383 1.287 . S
C1384 C1385 1.524 . S
C1384 H1403 0.913 . S
C1385 H1361 0.950 . S
C1385 C1384 1.524 . S
C1385 C1386 1.415 . S
C1386 H1362 0.950 . S
C1386 C1381 1.363 . S
C1386 C1385 1.415 . S
C1387 H1363 0.951 . S
C1387 C1388 1.366 . S
C1387 C1389 1.388 . S
C1388 C1387 1.366 . S
C1388 C1392 1.385 . S
C1389 H1364 0.951 . S
C1389 C1387 1.388 . S
C1389 C1390 1.366 . S
C1390 C1389 1.366 . S
C1390 C1391 1.414 . S
C1390 C1393 1.499 . S
C1391 H1365 0.950 . S
C1391 C1390 1.414 . S
C1391 C1392 1.374 . S
C1392 H1366 0.950 . S
C1392 C1388 1.385 . S
C1392 C1391 1.374 . S
C1393 C1390 1.499 . S
C1393 C1394 1.373 . S
C1393 C1395 1.389 . S
C1394 H1367 0.950 . S
C1394 C1380 1.377 . S
C1394 C1393 1.373 . S
C1395 C1379 1.377 . S
C1395 C1393 1.389 . S
C1395 C1396 1.524 . S
C1396 C1395 1.524 . S
C1396 C1397 1.397 . S
C1396 C1401 1.363 . S
C1397 H1368 0.950 . S
C1397 C1396 1.397 . S
C1397 C1398 1.334 . S
C1398 H1369 0.950 . S
C1398 C1397 1.334 . S
C1398 C1399 1.287 . S
C1399 C1398 1.287 . S
C1399 C1400 1.524 . S
C1399 H1402 0.999 . S
C1400 H1370 0.950 . S
C1400 C1399 1.524 . S
C1400 C1401 1.415 . S
C1401 H1371 0.950 . S
C1401 C1396 1.363 . S
C1401 C1400 1.415 . S
H1402 C1399 0.999 . S
H1403 C1384 0.913 . S
H1404 C1422 0.951 . S
H1405 C1424 0.951 . S
H1406 C1426 0.950 . S
H1407 C1427 0.950 . S
H1408 C1429 0.950 . S
H1409 C1432 0.950 . S
H1410 C1433 0.950 . S
H1411 C1435 0.950 . S
H1412 C1436 0.950 . S
H1413 C1437 0.951 . S
H1414 C1439 0.951 . S
H1415 C1441 0.950 . S
H1416 C1442 0.950 . S
H1417 C1444 0.950 . S
H1418 C1447 0.950 . S
H1419 C1448 0.950 . S
H1420 C1450 0.950 . S
H1421 C1451 0.950 . S
C1422 H1404 0.951 . S
C1422 C1423 1.366 . S
C1422 C1424 1.388 . S
C1423 C1422 1.366 . S
C1423 C1427 1.385 . S
C1424 H1405 0.951 . S
C1424 C1422 1.388 . S
C1424 C1425 1.366 . S
C1425 C1424 1.366 . S
C1425 C1426 1.414 . S
C1425 C1428 1.499 . S
C1426 H1406 0.950 . S
C1426 C1425 1.414 . S
C1426 C1427 1.374 . S
C1427 H1407 0.950 . S
C1427 C1423 1.385 . S
C1427 C1426 1.374 . S
C1428 C1425 1.499 . S
C1428 C1429 1.373 . S
C1428 C1430 1.389 . S
C1429 H1408 0.950 . S
C1429 C1428 1.373 . S
C1429 C1445 1.377 . S
C1430 C1428 1.389 . S
C1430 C1431 1.524 . S
C1430 C1444 1.377 . S
C1431 C1430 1.524 . S
C1431 C1432 1.397 . S
C1431 C1436 1.363 . S
C1432 H1409 0.950 . S
C1432 C1431 1.397 . S
C1432 C1433 1.334 . S
C1433 H1410 0.950 . S
C1433 C1432 1.334 . S
C1433 C1434 1.287 . S
C1434 C1433 1.287 . S
C1434 C1435 1.524 . S
C1434 H1453 0.913 . S
C1435 H1411 0.950 . S
C1435 C1434 1.524 . S
C1435 C1436 1.415 . S
C1436 H1412 0.950 . S
C1436 C1431 1.363 . S
C1436 C1435 1.415 . S
C1437 H1413 0.951 . S
C1437 C1438 1.366 . S
C1437 C1439 1.388 . S
C1438 C1437 1.366 . S
C1438 C1442 1.385 . S
C1439 H1414 0.951 . S
C1439 C1437 1.388 . S
C1439 C1440 1.366 . S
C1440 C1439 1.366 . S
C1440 C1441 1.414 . S
C1440 C1443 1.499 . S
C1441 H1415 0.950 . S
C1441 C1440 1.414 . S
C1441 C1442 1.374 . S
C1442 H1416 0.950 . S
C1442 C1438 1.385 . S
C1442 C1441 1.374 . S
C1443 C1440 1.499 . S
C1443 C1444 1.373 . S
C1443 C1445 1.389 . S
C1444 H1417 0.950 . S
C1444 C1430 1.377 . S
C1444 C1443 1.373 . S
C1445 C1429 1.377 . S
C1445 C1443 1.389 . S
C1445 C1446 1.524 . S
C1446 C1445 1.524 . S
C1446 C1447 1.397 . S
C1446 C1451 1.363 . S
C1447 H1418 0.950 . S
C1447 C1446 1.397 . S
C1447 C1448 1.334 . S
C1448 H1419 0.950 . S
C1448 C1447 1.334 . S
C1448 C1449 1.287 . S
C1449 C1448 1.287 . S
C1449 C1450 1.524 . S
C1449 H1452 0.999 . S
C1450 H1420 0.950 . S
C1450 C1449 1.524 . S
C1450 C1451 1.415 . S
C1451 H1421 0.950 . S
C1451 C1446 1.363 . S
C1451 C1450 1.415 . S
H1452 C1449 0.999 . S
H1453 C1434 0.913 . S
H1454 C1472 0.951 . S
H1455 C1474 0.951 . S
H1456 C1476 0.950 . S
H1457 C1477 0.950 . S
H1458 C1479 0.950 . S
H1459 C1482 0.950 . S
H1460 C1483 0.950 . S
H1461 C1485 0.950 . S
H1462 C1486 0.950 . S
H1463 C1487 0.951 . S
H1464 C1489 0.951 . S
H1465 C1491 0.950 . S
H1466 C1492 0.950 . S
H1467 C1494 0.950 . S
H1468 C1497 0.950 . S
H1469 C1498 0.950 . S
H1470 C1500 0.950 . S
H1471 C1501 0.950 . S
C1472 H1454 0.951 . S
C1472 C1473 1.366 . S
C1472 C1474 1.388 . S
C1473 C1472 1.366 . S
C1473 C1477 1.385 . S
C1474 H1455 0.951 . S
C1474 C1472 1.388 . S
C1474 C1475 1.366 . S
C1475 C1474 1.366 . S
C1475 C1476 1.414 . S
C1475 C1478 1.499 . S
C1476 H1456 0.950 . S
C1476 C1475 1.414 . S
C1476 C1477 1.374 . S
C1477 H1457 0.950 . S
C1477 C1473 1.385 . S
C1477 C1476 1.374 . S
C1478 C1475 1.499 . S
C1478 C1479 1.373 . S
C1478 C1480 1.389 . S
C1479 H1458 0.950 . S
C1479 C1478 1.373 . S
C1479 C1495 1.377 . S
C1480 C1478 1.389 . S
C1480 C1481 1.524 . S
C1480 C1494 1.377 1_554 S
C1481 C1480 1.524 . S
C1481 C1482 1.397 . S
C1481 C1486 1.363 1_554 S
C1482 H1459 0.950 . S
C1482 C1481 1.397 . S
C1482 C1483 1.334 . S
C1483 H1460 0.950 . S
C1483 C1482 1.334 . S
C1483 C1484 1.287 1_554 S
C1484 C1483 1.287 1_556 S
C1484 C1485 1.524 . S
C1484 H1503 0.913 . S
C1485 H1461 0.950 . S
C1485 C1484 1.524 . S
C1485 C1486 1.415 . S
C1486 H1462 0.950 . S
C1486 C1481 1.363 1_556 S
C1486 C1485 1.415 . S
C1487 H1463 0.951 . S
C1487 C1488 1.366 . S
C1487 C1489 1.388 . S
C1488 C1487 1.366 . S
C1488 C1492 1.385 . S
C1489 H1464 0.951 . S
C1489 C1487 1.388 . S
C1489 C1490 1.366 . S
C1490 C1489 1.366 . S
C1490 C1491 1.414 . S
C1490 C1493 1.499 . S
C1491 H1465 0.950 . S
C1491 C1490 1.414 . S
C1491 C1492 1.374 . S
C1492 H1466 0.950 . S
C1492 C1488 1.385 . S
C1492 C1491 1.374 . S
C1493 C1490 1.499 . S
C1493 C1494 1.373 . S
C1493 C1495 1.389 1_556 S
C1494 H1467 0.950 . S
C1494 C1480 1.377 1_556 S
C1494 C1493 1.373 . S
C1495 C1479 1.377 . S
C1495 C1493 1.389 1_554 S
C1495 C1496 1.524 . S
C1496 C1495 1.524 . S
C1496 C1497 1.397 . S
C1496 C1501 1.363 . S
C1497 H1468 0.950 . S
C1497 C1496 1.397 . S
C1497 C1498 1.334 . S
C1498 H1469 0.950 . S
C1498 C1497 1.334 . S
C1498 C1499 1.287 . S
C1499 C1498 1.287 . S
C1499 C1500 1.524 . S
C1499 H1502 0.999 . S
C1500 H1470 0.950 . S
C1500 C1499 1.524 . S
C1500 C1501 1.415 . S
C1501 H1471 0.950 . S
C1501 C1496 1.363 . S
C1501 C1500 1.415 . S
H1502 C1499 0.999 . S
H1503 C1484 0.913 . S
H1504 C1522 0.951 . S
H1505 C1524 0.951 . S
H1506 C1526 0.950 . S
H1507 C1527 0.950 . S
H1508 C1529 0.950 . S
H1509 C1532 0.950 . S
H1510 C1533 0.950 . S
H1511 C1535 0.950 . S
H1512 C1536 0.950 . S
H1513 C1537 0.951 . S
H1514 C1539 0.951 . S
H1515 C1541 0.950 . S
H1516 C1542 0.950 . S
H1517 C1544 0.950 . S
H1518 C1547 0.950 . S
H1519 C1548 0.950 . S
H1520 C1550 0.950 . S
H1521 C1551 0.950 . S
C1522 H1504 0.951 . S
C1522 C1523 1.366 . S
C1522 C1524 1.388 . S
C1523 C1522 1.366 . S
C1523 C1527 1.385 . S
C1524 H1505 0.951 . S
C1524 C1522 1.388 . S
C1524 C1525 1.366 . S
C1525 C1524 1.366 . S
C1525 C1526 1.414 . S
C1525 C1528 1.499 . S
C1526 H1506 0.950 . S
C1526 C1525 1.414 . S
C1526 C1527 1.374 . S
C1527 H1507 0.950 . S
C1527 C1523 1.385 . S
C1527 C1526 1.374 . S
C1528 C1525 1.499 . S
C1528 C1529 1.373 . S
C1528 C1530 1.389 . S
C1529 H1508 0.950 . S
C1529 C1528 1.373 . S
C1529 C1545 1.377 . S
C1530 C1528 1.389 . S
C1530 C1531 1.524 . S
C1530 C1544 1.377 . S
C1531 C1530 1.524 . S
C1531 C1532 1.397 . S
C1531 C1536 1.363 . S
C1532 H1509 0.950 . S
C1532 C1531 1.397 . S
C1532 C1533 1.334 . S
C1533 H1510 0.950 . S
C1533 C1532 1.334 . S
C1533 C1534 1.287 . S
C1534 C1533 1.287 . S
C1534 C1535 1.524 . S
C1534 H1553 0.913 . S
C1535 H1511 0.950 . S
C1535 C1534 1.524 . S
C1535 C1536 1.415 . S
C1536 H1512 0.950 . S
C1536 C1531 1.363 . S
C1536 C1535 1.415 . S
C1537 H1513 0.951 . S
C1537 C1538 1.366 . S
C1537 C1539 1.388 . S
C1538 C1537 1.366 . S
C1538 C1542 1.385 . S
C1539 H1514 0.951 . S
C1539 C1537 1.388 . S
C1539 C1540 1.366 . S
C1540 C1539 1.366 . S
C1540 C1541 1.414 . S
C1540 C1543 1.499 . S
C1541 H1515 0.950 . S
C1541 C1540 1.414 . S
C1541 C1542 1.374 . S
C1542 H1516 0.950 . S
C1542 C1538 1.385 . S
C1542 C1541 1.374 . S
C1543 C1540 1.499 . S
C1543 C1544 1.373 . S
C1543 C1545 1.389 . S
C1544 H1517 0.950 . S
C1544 C1530 1.377 . S
C1544 C1543 1.373 . S
C1545 C1529 1.377 . S
C1545 C1543 1.389 . S
C1545 C1546 1.524 . S
C1546 C1545 1.524 . S
C1546 C1547 1.397 . S
C1546 C1551 1.363 . S
C1547 H1518 0.950 . S
C1547 C1546 1.397 . S
C1547 C1548 1.334 . S
C1548 H1519 0.950 . S
C1548 C1547 1.334 . S
C1548 C1549 1.287 . S
C1549 C1548 1.287 . S
C1549 C1550 1.524 . S
C1549 H1552 0.999 . S
C1550 H1520 0.950 . S
C1550 C1549 1.524 . S
C1550 C1551 1.415 . S
C1551 H1521 0.950 . S
C1551 C1546 1.363 . S
C1551 C1550 1.415 . S
H1552 C1549 0.999 . S
H1553 C1534 0.913 . S
C388 C351 1.565 . S
C373 C15 1.543 . S
C423 C61 1.510 . S
C438 C276 1.465 . S
C473 C114 1.560 . S
C488 C299 1.589 . S
C523 C139 1.409 . S
C538 C312 1.413 . S
C588 C315 1.520 . S
C573 C185 1.574 . S
C623 C245 1.432 . S
C638 C328 1.397 . S
C673 C47 1.443 . S
C688 C289 1.396 . S
C723 C100 1.574 . S
C738 C302 1.519 . S
C773 C153 1.401 . S
C788 C325 1.413 . S
C838 C338 1.589 . S
C823 C199 1.560 . S
C888 C341 1.465 . S
C873 C231 1.522 . S
C938 C286 1.565 . S
C923 C1 1.554 . S
C973 C22 1.436 . S
C988 C297 1.408 . S
C1023 C68 1.426 . S
C1038 C310 1.399 . S
C1088 C320 1.431 . S
C1073 C107 1.473 . S
C1123 C146 1.431 . S
C1138 C333 1.387 . S
C1188 C349 1.448 . S
C1173 C192 1.479 . S
C1238 C281 1.390 . S
C1223 C252 1.429 . S
C1288 C346 1.390 . S
C1273 C54 1.430 . S
C1323 C93 1.479 . S
C1338 C284 1.448 . S
C1388 C294 1.387 . S
C1373 C160 1.426 . S
C1423 C206 1.472 . S
C1438 C307 1.431 . S
C1473 C238 1.427 . S
C1488 C323 1.399 . S
C1523 C8 1.438 . S
C1538 C336 1.408 . S
