# Generated by pormake.
# Topology anh, (6,3)-cn, num edge types: 1
# Building blocks:
#     Node 0, Type 0, BuildingBlock: MIFKUJ_clean_sbu_0, # of connection points: 6
#     Node 1, Type 0, BuildingBlock: MIFKUJ_clean_sbu_0, # of connection points: 6
#     Node 2, Type 0, BuildingBlock: MIFKUJ_clean_sbu_0, # of connection points: 6
#     Node 3, Type 1, BuildingBlock: CUQRIR_clean_linker_1, # of connection points: 3
#     Node 4, Type 1, BuildingBlock: CUQRIR_clean_linker_1, # of connection points: 3
#     Node 5, Type 1, BuildingBlock: CUQRIR_clean_linker_1, # of connection points: 3
#     Node 6, Type 1, BuildingBlock: CUQRIR_clean_linker_1, # of connection points: 3
#     Node 7, Type 1, BuildingBlock: CUQRIR_clean_linker_1, # of connection points: 3
#     Node 8, Type 1, BuildingBlock: CUQRIR_clean_linker_1, # of connection points: 3
#     Edge 9, Type (0, 1), BuildingBlock: XIVTED_clean_linker_0, # of connection points: 2
#     Edge 10, Type (0, 1), BuildingBlock: XIVTED_clean_linker_0, # of connection points: 2
#     Edge 11, Type (0, 1), BuildingBlock: XIVTED_clean_linker_0, # of connection points: 2
#     Edge 12, Type (0, 1), BuildingBlock: XIVTED_clean_linker_0, # of connection points: 2
#     Edge 13, Type (0, 1), BuildingBlock: XIVTED_clean_linker_0, # of connection points: 2
#     Edge 14, Type (0, 1), BuildingBlock: XIVTED_clean_linker_0, # of connection points: 2
#     Edge 15, Type (0, 1), BuildingBlock: XIVTED_clean_linker_0, # of connection points: 2
#     Edge 16, Type (0, 1), BuildingBlock: XIVTED_clean_linker_0, # of connection points: 2
#     Edge 17, Type (0, 1), BuildingBlock: XIVTED_clean_linker_0, # of connection points: 2
#     Edge 18, Type (0, 1), BuildingBlock: XIVTED_clean_linker_0, # of connection points: 2
#     Edge 19, Type (0, 1), BuildingBlock: XIVTED_clean_linker_0, # of connection points: 2
#     Edge 20, Type (0, 1), BuildingBlock: XIVTED_clean_linker_0, # of connection points: 2
#     Edge 21, Type (0, 1), BuildingBlock: XIVTED_clean_linker_0, # of connection points: 2
#     Edge 22, Type (0, 1), BuildingBlock: XIVTED_clean_linker_0, # of connection points: 2
#     Edge 23, Type (0, 1), BuildingBlock: XIVTED_clean_linker_0, # of connection points: 2
#     Edge 24, Type (0, 1), BuildingBlock: XIVTED_clean_linker_0, # of connection points: 2
#     Edge 25, Type (0, 1), BuildingBlock: XIVTED_clean_linker_0, # of connection points: 2
#     Edge 26, Type (0, 1), BuildingBlock: XIVTED_clean_linker_0, # of connection points: 2
# Relax obj value: 0.118
# Max RMSD: 0.215
# Mean RMSD: 0.153
data_MOF--net-anh--node1-MIFKUJ_clean_sbu_0--node2-CUQRIR_clean_linker_1--edge1-XIVTED_clean_linker_0
_symmetry_space_group_name_H-M    P1
_symmetry_Int_Tables_number       1
_symmetry_cell_setting            triclinic
loop_
_symmetry_equiv_pos_as_xyz
'x, y, z'
_cell_length_a     29.552655
_cell_length_b     29.809872
_cell_length_c     43.930198
_cell_angle_alpha  88.301035
_cell_angle_beta   91.508482
_cell_angle_gamma 120.16956
loop_
_atom_site_label
_atom_site_type_symbol
_atom_site_fract_x
_atom_site_fract_y
_atom_site_fract_z
_atom_type_partial_charge
Zn0 Zn 0.04417 0.5429 0.15566 0.0
Zn1 Zn 0.89639 0.42123 0.16505 0.0
C2 C 0.13254 0.53587 0.16786 0.0
O3 O 0.13481 0.56903 0.18776 0.0
C4 C 0.80146 0.41811 0.14686 0.0
O5 O 0.79079 0.37188 0.13834 0.0
O6 O 0.08143 0.61938 0.1454 0.0
O7 O 0.97503 0.50285 0.13645 0.0
O8 O 0.92738 0.42292 0.124 0.0
C9 C 0.11675 0.63681 0.12525 0.0
O10 O 0.12423 0.6039 0.11 0.0
O11 O 0.09411 0.51632 0.14908 0.0
C12 C 0.82902 0.33561 0.2029 0.0
O13 O 0.8348 0.37349 0.22013 0.0
O14 O 0.85368 0.34671 0.17805 0.0
O15 O 0.94797 0.46025 0.20045 0.0
O16 O 0.02829 0.53017 0.19988 0.0
O17 O 0.84594 0.44815 0.15893 0.0
C18 C 0.96493 0.46765 0.11771 0.0
C19 C 0.98923 0.49441 0.21421 0.0
Zn20 Zn 0.63517 0.09847 0.4967 0.0
Zn21 Zn 0.58887 0.95725 0.50383 0.0
C22 C 0.73987 0.16194 0.50826 0.0
O23 O 0.71649 0.16344 0.53292 0.0
C24 C 0.49778 0.8671 0.48261 0.0
O25 O 0.53406 0.86345 0.46808 0.0
O26 O 0.62967 0.16221 0.4934 0.0
O27 O 0.58582 0.05131 0.46503 0.0
O28 O 0.61524 -0.00319 0.46371 0.0
C29 C 0.61568 0.17818 0.46985 0.0
O30 O 0.59797 0.1494 0.44554 0.0
O31 O 0.71225 0.12961 0.48783 0.0
C32 C 0.62787 0.89525 0.53437 0.0
O33 O 0.62331 0.91541 0.55948 0.0
O34 O 0.61923 0.91069 0.50878 0.0
O35 O 0.59746 0.99216 0.54408 0.0
O36 O 0.62049 0.07517 0.54011 0.0
O37 O 0.51127 0.90667 0.4988 0.0
C38 C 0.59102 0.01763 0.45111 0.0
C39 C 0.60797 0.0346 0.55609 0.0
Zn40 Zn 0.62186 0.57633 0.82511 0.0
Zn41 Zn 0.50355 0.61635 0.83462 0.0
C42 C 0.6088 0.47941 0.84239 0.0
O43 O 0.64658 0.50991 0.86113 0.0
C44 C 0.55402 0.72662 0.82121 0.0
O45 O 0.58401 0.71732 0.80404 0.0
O46 O 0.69606 0.61031 0.80948 0.0
O47 O 0.5713 0.59397 0.80688 0.0
O48 O 0.50813 0.60365 0.78952 0.0
C49 C 0.70704 0.58499 0.7911 0.0
O50 O 0.6686 0.54267 0.77913 0.0
O51 O 0.59045 0.49936 0.82344 0.0
C52 C 0.41581 0.58329 0.87262 0.0
O53 O 0.45243 0.61957 0.88962 0.0
O54 O 0.42885 0.57198 0.84791 0.0
O55 O 0.55443 0.60524 0.86312 0.0
O56 O 0.62098 0.59104 0.86928 0.0
O57 O 0.51887 0.68985 0.83705 0.0
C58 C 0.5446 0.59457 0.78419 0.0
C59 C 0.58592 0.59838 0.88053 0.0
C60 C 0.47285 0.98002 0.18496 0.0
N61 N 0.50298 -0.00328 0.21052 0.0
N62 N 0.4242 0.94102 0.19185 0.0
C63 C 0.48944 0.00435 0.15379 0.0
C64 C 0.42589 0.93431 0.22238 0.0
N65 N 0.4736 0.96843 0.23373 0.0
C66 C 0.38207 0.89229 0.2408 0.0
H67 H 0.45508 -0.00324 0.1393 0.0
H68 H 0.51072 0.98749 0.14277 0.0
H69 H 0.5162 0.04687 0.15536 0.0
H70 H 0.3581 0.8574 0.2269 0.0
H71 H 0.35644 0.90686 0.24853 0.0
H72 H 0.39748 0.88118 0.26118 0.0
C73 C 0.60556 0.52542 0.52343 0.0
N74 N 0.59975 0.54879 0.54783 0.0
N75 N 0.60474 0.48121 0.53225 0.0
C76 C 0.61681 0.54785 0.49156 0.0
C77 C 0.59858 0.47851 0.56277 0.0
N78 N 0.59569 0.51965 0.57226 0.0
C79 C 0.59387 0.43486 0.58306 0.0
H80 H 0.57925 0.53745 0.47976 0.0
H81 H 0.63713 0.53214 0.47842 0.0
H82 H 0.64117 0.59078 0.49192 0.0
H83 H 0.63323 0.44536 0.59225 0.0
H84 H 0.57846 0.39849 0.57014 0.0
H85 H 0.56785 0.42818 0.6025 0.0
C86 C 0.04249 0.54615 0.85148 0.0
N87 N 0.06106 0.53527 0.87759 0.0
N88 N 0.00248 0.55425 0.85756 0.0
C89 C 0.06626 0.55351 0.8206 0.0
C90 C -0.00283 0.54771 0.88809 0.0
N91 N 0.03299 0.53672 0.90028 0.0
C92 C 0.95566 0.55021 0.90586 0.0
H93 H 0.10955 0.57315 0.82255 0.0
H94 H 0.05515 0.57654 0.80508 0.0
H95 H 0.05198 0.51491 0.81052 0.0
H96 H 0.92027 0.53927 0.89152 0.0
H97 H 0.97124 0.59053 0.91358 0.0
H98 H 0.94453 0.52413 0.92624 0.0
C99 C 0.0986 0.52904 0.47995 0.0
N100 N 0.06048 0.49723 0.46017 0.0
N101 N 0.13137 0.57526 0.46631 0.0
C102 C 0.10641 0.51375 0.51172 0.0
C103 C 0.11242 0.57021 0.43755 0.0
N104 N 0.06943 0.52304 0.43375 0.0
C105 C 0.13904 0.60966 0.41236 0.0
H106 H 0.08361 0.52261 0.52769 0.0
H107 H 0.14818 0.53587 0.51884 0.0
H108 H 0.09236 0.47154 0.51336 0.0
H109 H 0.16896 0.60291 0.40209 0.0
H110 H 0.15908 0.64958 0.42137 0.0
H111 H 0.11049 0.60618 0.39433 0.0
C112 C 0.54151 0.0864 0.81834 0.0
N113 N 0.55166 0.05958 0.79781 0.0
N114 N 0.54451 0.12941 0.80505 0.0
C115 C 0.53051 0.07167 0.85147 0.0
C116 C 0.5577 0.12831 0.77594 0.0
N117 N 0.56234 0.0861 0.77159 0.0
C118 C 0.56825 0.16968 0.75207 0.0
H119 H 0.4885 0.0422 0.85395 0.0
H120 H 0.53887 0.1055 0.86536 0.0
H121 H 0.554 0.05437 0.86028 0.0
H122 H 0.61037 0.19963 0.75306 0.0
H123 H 0.54526 0.18896 0.75593 0.0
H124 H 0.55887 0.15312 0.72894 0.0
C125 C 0.48455 0.50326 0.14474 0.0
N126 N 0.523 0.51423 0.12462 0.0
N127 N 0.45254 0.5203 0.13372 0.0
C128 C 0.47642 0.47345 0.17418 0.0
C129 C 0.47296 0.54211 0.10641 0.0
N130 N 0.51576 0.53856 0.10082 0.0
C131 C 0.44884 0.5637 0.08416 0.0
H132 H 0.45187 0.43137 0.1697 0.0
H133 H 0.45585 0.48407 0.19076 0.0
H134 H 0.51441 0.48075 0.18407 0.0
H135 H 0.42808 0.58002 0.09633 0.0
H136 H 0.42004 0.53196 0.06952 0.0
H137 H 0.47919 0.59422 0.06933 0.0
H138 H 0.21677 0.57 0.20639 0.0
H139 H 0.35847 0.45423 0.1096 0.0
H140 H 0.14688 0.4756 0.12722 0.0
H141 H 0.43418 0.56362 0.18135 0.0
H142 H 0.27528 0.44917 0.12139 0.0
H143 H 0.29119 0.55656 0.20278 0.0
C144 C 0.21688 0.54615 0.18829 0.0
C145 C 0.1757 0.52436 0.16683 0.0
C146 C 0.30978 0.47364 0.13495 0.0
C147 C 0.26118 0.50881 0.16263 0.0
C148 C 0.35692 0.47616 0.12835 0.0
C149 C 0.40258 0.50922 0.14467 0.0
C150 C 0.30856 0.50475 0.15794 0.0
C151 C 0.3994 0.53744 0.16854 0.0
C152 C 0.25948 0.53847 0.1863 0.0
C153 C 0.1779 0.49343 0.14412 0.0
N154 N 0.3532 0.53499 0.17432 0.0
N155 N 0.22016 0.48689 0.14247 0.0
H156 H 0.80636 0.23473 0.54804 0.0
H157 H 0.03022 0.40825 0.42918 0.0
H158 H 0.79594 0.18783 0.45487 0.0
H159 H 0.99257 0.46912 0.50614 0.0
H160 H 0.95506 0.32197 0.44084 0.0
H161 H 0.88755 0.31426 0.5364 0.0
C162 C 0.82151 0.24072 0.52518 0.0
C163 C 0.79383 0.20469 0.5023 0.0
C164 C 0.96341 0.3543 0.45513 0.0
C165 C 0.8871 0.29631 0.48882 0.0
C166 C 0.00589 0.40355 0.44834 0.0
C167 C 0.0172 0.44591 0.46661 0.0
C168 C 0.93288 0.3474 0.4807 0.0
C169 C 0.98543 0.43735 0.49173 0.0
C170 C 0.86779 0.2864 0.51854 0.0
C171 C 0.81588 0.21461 0.47318 0.0
N172 N 0.9449 0.38912 0.4981 0.0
N173 N 0.86116 0.25979 0.46717 0.0
H174 H 0.6266 0.81557 0.79183 0.0
H175 H 0.47555 0.96921 0.82169 0.0
H176 H 0.48884 0.75434 0.84735 0.0
H177 H 0.63147 0.0432 0.7859 0.0
H178 H 0.47812 0.88876 0.82955 0.0
H179 H 0.62787 0.89824 0.78747 0.0
C180 C 0.59684 0.81959 0.80327 0.0
C181 C 0.55756 0.77794 0.81997 0.0
C182 C 0.51193 0.92262 0.82011 0.0
C183 C 0.5585 0.87222 0.81484 0.0
C184 C 0.51047 0.96844 0.81578 0.0
C185 C 0.55336 0.01256 0.80322 0.0
C186 C 0.55651 0.92087 0.81153 0.0
C187 C 0.59744 0.00962 0.79535 0.0
C188 C 0.5976 0.8668 0.80078 0.0
C189 C 0.51993 0.78537 0.83427 0.0
N190 N 0.59785 0.96445 0.7995 0.0
N191 N 0.52116 0.83144 0.83121 0.0
H192 H 0.81338 0.51497 0.15329 0.0
H193 H 0.5084 0.41735 0.12974 0.0
H194 H 0.69798 0.35693 0.13215 0.0
H195 H 0.62732 0.5786 0.12521 0.0
H196 H 0.57697 0.39389 0.135 0.0
H197 H 0.74548 0.539 0.14733 0.0
C198 C 0.77383 0.48535 0.1474 0.0
C199 C 0.76138 0.43388 0.14316 0.0
C200 C 0.58819 0.43444 0.13276 0.0
C201 C 0.68354 0.461 0.13653 0.0
C202 C 0.54913 0.44767 0.12989 0.0
C203 C 0.56268 0.49982 0.12708 0.0
C204 C 0.64112 0.4738 0.13311 0.0
C205 C 0.61576 0.53797 0.12713 0.0
C206 C 0.73514 0.49911 0.14393 0.0
C207 C 0.70946 0.39712 0.13552 0.0
N208 N 0.65318 0.52428 0.13028 0.0
N209 N 0.67247 0.41134 0.1326 0.0
H210 H 0.46129 0.77075 0.45967 0.0
H211 H 0.15945 0.66946 0.48812 0.0
H212 H 0.40976 0.86342 0.50503 0.0
H213 H 0.21924 0.57037 0.46428 0.0
H214 H 0.24988 0.74155 0.49507 0.0
H215 H 0.37199 0.69783 0.46035 0.0
C216 C 0.43113 0.77589 0.46968 0.0
C217 C 0.44307 0.82344 0.48218 0.0
C218 C 0.24327 0.70381 0.48888 0.0
C219 C 0.34028 0.73961 0.48315 0.0
C220 C 0.19189 0.66286 0.48517 0.0
C221 C 0.18263 0.61431 0.4761 0.0
C222 C 0.28531 0.69601 0.48286 0.0
C223 C 0.22536 0.60733 0.47174 0.0
C224 C 0.3801 0.73401 0.47025 0.0
C225 C 0.40228 0.82751 0.49506 0.0
N226 N 0.27491 0.64786 0.47487 0.0
N227 N 0.35259 0.78619 0.49506 0.0
H228 H 0.52916 0.40444 0.80819 0.0
H229 H 0.61583 0.19691 0.84422 0.0
H230 H 0.64629 0.42665 0.8763 0.0
H231 H 0.47262 0.15902 0.7963 0.0
H232 H 0.62401 0.27918 0.85942 0.0
H233 H 0.50432 0.31304 0.80557 0.0
C234 C 0.54936 0.39001 0.82277 0.0
C235 C 0.59032 0.42333 0.84222 0.0
C236 C 0.59016 0.25253 0.8461 0.0
C237 C 0.56222 0.31897 0.83928 0.0
C238 C 0.58546 0.20563 0.83766 0.0
C239 C 0.54362 0.1718 0.81909 0.0
C240 C 0.55319 0.2659 0.83529 0.0
C241 C 0.50541 0.18459 0.81065 0.0
C242 C 0.535 0.33778 0.82137 0.0
C243 C 0.61484 0.40248 0.86077 0.0
N244 N 0.51152 0.23116 0.81836 0.0
N245 N 0.60084 0.35179 0.85857 0.0
H246 H 0.60856 0.82779 0.48864 0.0
H247 H 0.66401 0.62975 0.58328 0.0
H248 H 0.65481 0.85395 0.58349 0.0
H249 H 0.54582 0.582 0.51264 0.0
H250 H 0.67478 0.71711 0.58083 0.0
H251 H 0.60237 0.74323 0.49304 0.0
C252 C 0.61819 0.81614 0.51031 0.0
C253 C 0.63186 0.84784 0.53584 0.0
C254 C 0.64635 0.68734 0.56601 0.0
C255 C 0.62465 0.75099 0.54091 0.0
C256 C 0.63994 0.63763 0.56755 0.0
C257 C 0.60401 0.59901 0.54808 0.0
C258 C 0.61737 0.69842 0.5444 0.0
C259 C 0.57441 0.61113 0.52765 0.0
C260 C 0.61416 0.76766 0.51282 0.0
C261 C 0.64382 0.83054 0.56332 0.0
N262 N 0.58209 0.66 0.52611 0.0
N263 N 0.63992 0.78308 0.56517 0.0
H264 H 0.79652 0.66439 0.81648 0.0
H265 H 0.94004 0.50083 0.81036 0.0
H266 H 0.74127 0.52757 0.76234 0.0
H267 H -0.00105 0.6424 0.85964 0.0
H268 H 0.87678 0.51941 0.78384 0.0
H269 H 0.88021 0.6674 0.82356 0.0
C270 C 0.80231 0.63559 0.80555 0.0
C271 C 0.76133 0.59497 0.7894 0.0
C272 C 0.90427 0.54707 0.79996 0.0
C273 C 0.85679 0.5976 0.79786 0.0
C274 C 0.94037 0.5365 0.81487 0.0
C275 C 0.97384 0.56993 0.83728 0.0
C276 C 0.90166 0.59117 0.80784 0.0
C277 C 0.97306 0.61559 0.84267 0.0
C278 C 0.85013 0.63722 0.80967 0.0
C279 C 0.7714 0.55911 0.77544 0.0
N280 N 0.93694 0.62452 0.82843 0.0
N281 N 0.8177 0.56063 0.78051 0.0
H282 H 0.11546 0.71646 0.15409 0.0
H283 H 0.42182 0.88761 0.14282 0.0
H284 H 0.20782 0.68457 0.09326 0.0
H285 H 0.3276 0.92812 0.19574 0.0
H286 H 0.34277 0.82392 0.11566 0.0
H287 H 0.18962 0.80389 0.16073 0.0
C288 C 0.151 0.72816 0.14166 0.0
C289 C 0.15596 0.69271 0.12378 0.0
C290 C 0.33934 0.84745 0.13275 0.0
C291 C 0.24129 0.79238 0.13165 0.0
C292 C 0.38444 0.8838 0.14807 0.0
C293 C 0.38051 0.91195 0.17176 0.0
C294 C 0.29019 0.83902 0.1416 0.0
C295 C 0.33157 0.90604 0.17796 0.0
C296 C 0.19341 0.77814 0.14546 0.0
C297 C 0.2026 0.71028 0.10779 0.0
N298 N 0.28807 0.86949 0.16337 0.0
N299 N 0.24388 0.75853 0.11264 0.0
H300 H 0.69415 0.26225 0.49696 0.0
H301 H 0.54385 0.41994 0.48682 0.0
H302 H 0.55427 0.213 0.44231 0.0
H303 H 0.68691 0.46669 0.53724 0.0
H304 H 0.55455 0.35286 0.46195 0.0
H305 H 0.70087 0.34614 0.50311 0.0
C306 C 0.66493 0.26941 0.48613 0.0
C307 C 0.62283 0.23054 0.46981 0.0
C308 C 0.58412 0.37841 0.47802 0.0
C309 C 0.62956 0.32612 0.47718 0.0
C310 C 0.57797 0.41644 0.49208 0.0
C311 C 0.61422 0.44762 0.51424 0.0
C312 C 0.62679 0.37198 0.48646 0.0
C313 C 0.65794 0.44246 0.52051 0.0
C314 C 0.66884 0.31737 0.48952 0.0
C315 C 0.58684 0.24201 0.45547 0.0
N316 N 0.66275 0.4049 0.50694 0.0
N317 N 0.59033 0.28861 0.46005 0.0
H318 H 0.37497 0.60878 0.91978 0.0
H319 H 0.08483 0.47088 0.84872 0.0
H320 H 0.32924 0.51319 0.84019 0.0
H321 H 0.14406 0.59322 0.91402 0.0
H322 H 0.16867 0.47204 0.85181 0.0
H323 H 0.28449 0.58793 0.92521 0.0
C324 C 0.3458 0.58276 0.90369 0.0
C325 C 0.35995 0.56345 0.87917 0.0
C326 C 0.16305 0.49817 0.86574 0.0
C327 C 0.25619 0.53973 0.88516 0.0
C328 C 0.11545 0.49758 0.86389 0.0
C329 C 0.10793 0.53206 0.88111 0.0
C330 C 0.20313 0.53346 0.88504 0.0
C331 C 0.14825 0.5656 0.90071 0.0
C332 C 0.29412 0.57104 0.90674 0.0
C333 C 0.32023 0.5295 0.85921 0.0
N334 N 0.19423 0.56568 0.90203 0.0
N335 N 0.27022 0.51918 0.86244 0.0
H336 H 0.75892 0.29975 0.24945 0.0
H337 H 0.58982 0.01543 0.18081 0.0
H338 H 0.8057 0.24832 0.1716 0.0
H339 H 0.53242 0.07931 0.24598 0.0
H340 H 0.67604 0.09482 0.1833 0.0
H341 H 0.68329 0.2127 0.2554 0.0
C342 C 0.75371 0.27 0.23385 0.0
C343 C 0.78817 0.28154 0.20967 0.0
C344 C 0.64472 0.09126 0.19729 0.0
C345 C 0.70154 0.18199 0.21624 0.0
C346 C 0.59575 0.04623 0.19574 0.0
C347 C 0.55446 0.0414 0.21312 0.0
C348 C 0.65213 0.13147 0.21641 0.0
C349 C 0.56366 0.08171 0.23246 0.0
C350 C 0.7104 0.22035 0.2372 0.0
C351 C 0.7797 0.2413 0.19032 0.0
N352 N 0.6115 0.12524 0.23349 0.0
N353 N 0.7369 0.19341 0.19383 0.0
H354 H 0.02355 0.56267 0.09116 0.0
H355 H 0.0219 0.44992 0.92827 0.0
H356 H 0.96465 0.4001 0.07629 0.0
H357 H 0.05862 0.60637 0.94423 0.0
H358 H 0.01907 0.43381 0.98378 0.0
H359 H 0.0559 0.58222 0.03932 0.0
C360 C 0.01882 0.53119 0.07725 0.0
C361 C 0.99179 0.47978 0.08817 0.0
C362 C 0.02859 0.47192 0.97514 0.0
C363 C 0.02677 0.50157 0.0281 0.0
C364 C 0.03042 0.48103 0.94364 0.0
C365 C 0.03994 0.52924 0.93214 0.0
C366 C 0.03661 0.51156 0.99497 0.0
C367 C 0.05064 0.56859 0.95255 0.0
C368 C 0.03673 0.54229 0.04745 0.0
C369 C 0.98526 0.44032 0.06873 0.0
N370 N 0.04824 0.55879 0.98299 0.0
N371 N 0.0021 0.45197 0.03947 0.0
H372 H 0.61743 0.97019 0.40781 0.0
H373 H 0.42917 0.98839 0.28001 0.0
H374 H 0.52289 0.04065 0.42159 0.0
H375 H 0.55466 0.96159 0.25833 0.0
H376 H 0.45664 -0.00212 0.33367 0.0
H377 H 0.58849 0.95669 0.35428 0.0
C378 C 0.59046 0.98258 0.39964 0.0
C379 C 0.57278 0.00687 0.41912 0.0
C380 C 0.47827 0.9899 0.31725 0.0
C381 C 0.53949 0.99133 0.35824 0.0
C382 C 0.46242 0.98429 0.28681 0.0
C383 C 0.48975 0.97408 0.26517 0.0
C384 C 0.52155 0.98481 0.32607 0.0
C385 C 0.53293 0.96958 0.27464 0.0
C386 C 0.57419 0.97509 0.36911 0.0
C387 C 0.53789 0.02217 0.40735 0.0
N388 N 0.54753 0.97479 0.30454 0.0
N389 N 0.52235 0.01406 0.37773 0.0
H390 H 0.63397 0.60622 0.76042 0.0
H391 H 0.51546 0.52853 0.5924 0.0
H392 H 0.47241 0.5536 0.73805 0.0
H393 H 0.65781 0.53284 0.62122 0.0
H394 H 0.50163 0.54436 0.64501 0.0
H395 H 0.64646 0.58511 0.70893 0.0
C396 C 0.60096 0.58916 0.74481 0.0
C397 C 0.55204 0.58075 0.75355 0.0
C398 C 0.53584 0.54169 0.6399 0.0
C399 C 0.56605 0.55817 0.69448 0.0
C400 C 0.54371 0.53297 0.60999 0.0
C401 C 0.58763 0.52942 0.6029 0.0
C402 C 0.57267 0.54761 0.66267 0.0
C403 C 0.62334 0.53511 0.62616 0.0
C404 C 0.60812 0.57761 0.71539 0.0
C405 C 0.51084 0.56072 0.73215 0.0
N406 N 0.61527 0.54423 0.65508 0.0
N407 N 0.51879 0.5502 0.70355 0.0
H408 H 0.55444 0.95475 0.59731 0.0
H409 H 0.65067 0.14314 0.73994 0.0
H410 H 0.65695 0.12076 0.59101 0.0
H411 H 0.50496 -0.0018 0.73989 0.0
H412 H 0.66733 0.12636 0.6883 0.0
H413 H 0.54858 0.96206 0.6525 0.0
C414 C 0.57603 0.99259 0.60755 0.0
C415 C 0.60581 0.03731 0.58953 0.0
C416 C 0.63193 0.09792 0.69966 0.0
C417 C 0.59992 0.04566 0.65234 0.0
C418 C 0.62258 0.10749 0.72899 0.0
C419 C 0.57604 0.0724 0.74358 0.0
C420 C 0.59456 0.0527 0.68497 0.0
C421 C 0.54108 0.02617 0.72902 0.0
C422 C 0.57257 -0.00332 0.63894 0.0
C423 C 0.63303 0.08535 0.60394 0.0
N424 N 0.55076 0.01776 0.70025 0.0
N425 N 0.62945 0.08823 0.63446 0.0
H426 H 0.49488 0.55779 0.91153 0.0
H427 H 0.60573 0.61761 0.07822 0.0
H428 H 0.66172 0.62692 0.92489 0.0
H429 H 0.46969 0.47209 0.05555 0.0
H430 H 0.62792 0.63395 0.02364 0.0
H431 H 0.48319 0.54051 0.96647 0.0
C432 C 0.52908 0.5703 0.92613 0.0
C433 C 0.57932 0.59416 0.91381 0.0
C434 C 0.5939 0.59796 0.0308 0.0
C435 C 0.56625 0.57428 0.97635 0.0
C436 C 0.58169 0.58851 0.06175 0.0
C437 C 0.53639 0.54321 0.07098 0.0
C438 C 0.55943 0.56251 0.0093 0.0
C439 C 0.50523 0.5071 0.049 0.0
C440 C 0.52236 0.5598 0.95732 0.0
C441 C 0.62234 0.60854 0.93364 0.0
N442 N 0.51672 0.51792 0.01905 0.0
N443 N 0.61492 0.59875 0.96411 0.0
H444 H 0.91146 0.45585 0.25723 0.0
H445 H 0.11219 0.49259 0.39241 0.0
H446 H 0.07827 0.52397 0.24705 0.0
H447 H 0.97799 0.50804 0.40901 0.0
H448 H 0.08595 0.47602 0.3387 0.0
H449 H 0.92315 0.45121 0.31289 0.0
C450 C 0.95034 0.46952 0.26667 0.0
C451 C 0.99405 0.49071 0.24761 0.0
C452 C 0.0616 0.48205 0.35415 0.0
C453 C 0.00726 0.48423 0.31051 0.0
C454 C 0.07631 0.49096 0.38466 0.0
C455 C 0.047 0.50145 0.40471 0.0
C456 C 0.01733 0.4839 0.34361 0.0
C457 C 0.00111 0.49969 0.39394 0.0
C458 C 0.95691 0.46692 0.29828 0.0
C459 C 0.04358 0.50796 0.26091 0.0
N460 N 0.98774 0.49161 0.36384 0.0
N461 N 0.04876 0.50406 0.29145 0.0
loop_
_geom_bond_atom_site_label_1
_geom_bond_atom_site_label_2
_geom_bond_distance
_geom_bond_site_symmetry_2
_ccdc_geom_bond_type
Zn0 O6 1.969 . S
Zn0 O7 1.965 . S
Zn0 O11 2.024 . S
Zn0 O16 1.969 . S
Zn1 O8 1.969 . S
Zn1 O14 1.969 . S
Zn1 O15 1.965 . S
Zn1 O17 2.024 . S
C2 O3 1.229 . S
C2 O11 1.058 . S
O3 C2 1.229 . S
C4 O5 1.229 . S
C4 O17 1.058 . S
O5 C4 1.229 . S
O6 Zn0 1.969 . S
O6 C9 1.267 . S
O7 Zn0 1.965 . S
O7 C18 1.260 1_455 S
O8 Zn1 1.969 . S
O8 C18 1.258 . S
C9 O6 1.267 . S
C9 O10 1.228 . S
O10 C9 1.228 . S
O11 Zn0 2.024 . S
O11 C2 1.058 . S
C12 O13 1.228 . S
C12 O14 1.267 . S
O13 C12 1.228 . S
O14 Zn1 1.969 . S
O14 C12 1.267 . S
O15 Zn1 1.965 . S
O15 C19 1.260 1_655 S
O16 Zn0 1.969 . S
O16 C19 1.258 . S
O17 Zn1 2.024 . S
O17 C4 1.058 . S
C18 O7 1.260 1_655 S
C18 O8 1.258 . S
C19 O15 1.260 1_455 S
C19 O16 1.258 . S
Zn20 O26 1.969 . S
Zn20 O27 1.965 . S
Zn20 O31 2.024 . S
Zn20 O36 1.969 . S
Zn21 O28 1.969 . S
Zn21 O34 1.969 . S
Zn21 O35 1.965 1_565 S
Zn21 O37 2.024 . S
C22 O23 1.229 . S
C22 O31 1.058 . S
O23 C22 1.229 . S
C24 O25 1.229 . S
C24 O37 1.058 . S
O25 C24 1.229 . S
O26 Zn20 1.969 . S
O26 C29 1.267 . S
O27 Zn20 1.965 . S
O27 C38 1.260 . S
O28 Zn21 1.969 . S
O28 C38 1.258 1_565 S
C29 O26 1.267 . S
C29 O30 1.228 . S
O30 C29 1.228 . S
O31 Zn20 2.024 . S
O31 C22 1.058 . S
C32 O33 1.228 . S
C32 O34 1.267 . S
O33 C32 1.228 . S
O34 Zn21 1.969 . S
O34 C32 1.267 . S
O35 Zn21 1.965 1_545 S
O35 C39 1.260 . S
O36 Zn20 1.969 . S
O36 C39 1.258 . S
O37 Zn21 2.024 . S
O37 C24 1.058 . S
C38 O27 1.260 . S
C38 O28 1.258 1_545 S
C39 O35 1.260 . S
C39 O36 1.258 . S
Zn40 O46 1.969 . S
Zn40 O47 1.965 . S
Zn40 O51 2.024 . S
Zn40 O56 1.969 . S
Zn41 O48 1.969 . S
Zn41 O54 1.969 . S
Zn41 O55 1.965 . S
Zn41 O57 2.024 . S
C42 O43 1.229 . S
C42 O51 1.058 . S
O43 C42 1.229 . S
C44 O45 1.229 . S
C44 O57 1.058 . S
O45 C44 1.229 . S
O46 Zn40 1.969 . S
O46 C49 1.267 . S
O47 Zn40 1.965 . S
O47 C58 1.260 . S
O48 Zn41 1.969 . S
O48 C58 1.258 . S
C49 O46 1.267 . S
C49 O50 1.228 . S
O50 C49 1.228 . S
O51 Zn40 2.024 . S
O51 C42 1.058 . S
C52 O53 1.228 . S
C52 O54 1.267 . S
O53 C52 1.228 . S
O54 Zn41 1.969 . S
O54 C52 1.267 . S
O55 Zn41 1.965 . S
O55 C59 1.260 . S
O56 Zn40 1.969 . S
O56 C59 1.258 . S
O57 Zn41 2.024 . S
O57 C44 1.058 . S
C58 O47 1.260 . S
C58 O48 1.258 . S
C59 O55 1.260 . S
C59 O56 1.258 . S
C60 N61 1.317 . S
C60 N62 1.348 1_545 S
C60 C63 1.485 . S
N61 C60 1.317 . S
N61 N65 1.370 . S
N62 C60 1.348 1_565 S
N62 C64 1.346 . S
C63 C60 1.485 . S
C63 H67 0.960 . S
C63 H68 0.961 1_545 S
C63 H69 0.960 . S
C64 N62 1.346 . S
C64 N65 1.307 1_565 S
C64 C66 1.486 . S
N65 N61 1.370 . S
N65 C64 1.307 1_545 S
C66 C64 1.486 . S
C66 H70 0.960 . S
C66 H71 0.960 . S
C66 H72 0.959 . S
H67 C63 0.960 . S
H68 C63 0.961 1_565 S
H69 C63 0.960 . S
H70 C66 0.960 . S
H71 C66 0.960 . S
H72 C66 0.959 . S
C73 N74 1.317 . S
C73 N75 1.348 . S
C73 C76 1.485 . S
N74 C73 1.317 . S
N74 N78 1.370 . S
N75 C73 1.348 . S
N75 C77 1.346 . S
C76 C73 1.485 . S
C76 H80 0.960 . S
C76 H81 0.961 . S
C76 H82 0.960 . S
C77 N75 1.346 . S
C77 N78 1.307 . S
C77 C79 1.486 . S
N78 N74 1.370 . S
N78 C77 1.307 . S
C79 C77 1.486 . S
C79 H83 0.960 . S
C79 H84 0.960 . S
C79 H85 0.959 . S
H80 C76 0.960 . S
H81 C76 0.961 . S
H82 C76 0.960 . S
H83 C79 0.960 . S
H84 C79 0.960 . S
H85 C79 0.959 . S
C86 N87 1.317 . S
C86 N88 1.348 . S
C86 C89 1.485 . S
N87 C86 1.317 . S
N87 N91 1.370 . S
N88 C86 1.348 . S
N88 C90 1.346 . S
C89 C86 1.485 . S
C89 H93 0.960 . S
C89 H94 0.961 . S
C89 H95 0.960 . S
C90 N88 1.346 . S
C90 N91 1.307 . S
C90 C92 1.486 1_455 S
N91 N87 1.370 . S
N91 C90 1.307 . S
C92 C90 1.486 1_655 S
C92 H96 0.960 . S
C92 H97 0.960 . S
C92 H98 0.959 . S
H93 C89 0.960 . S
H94 C89 0.961 . S
H95 C89 0.960 . S
H96 C92 0.960 . S
H97 C92 0.960 . S
H98 C92 0.959 . S
C99 N100 1.317 . S
C99 N101 1.348 . S
C99 C102 1.485 . S
N100 C99 1.317 . S
N100 N104 1.370 . S
N101 C99 1.348 . S
N101 C103 1.346 . S
C102 C99 1.485 . S
C102 H106 0.960 . S
C102 H107 0.961 . S
C102 H108 0.960 . S
C103 N101 1.346 . S
C103 N104 1.307 . S
C103 C105 1.486 . S
N104 N100 1.370 . S
N104 C103 1.307 . S
C105 C103 1.486 . S
C105 H109 0.960 . S
C105 H110 0.960 . S
C105 H111 0.959 . S
H106 C102 0.960 . S
H107 C102 0.961 . S
H108 C102 0.960 . S
H109 C105 0.960 . S
H110 C105 0.960 . S
H111 C105 0.959 . S
C112 N113 1.317 . S
C112 N114 1.348 . S
C112 C115 1.485 . S
N113 C112 1.317 . S
N113 N117 1.370 . S
N114 C112 1.348 . S
N114 C116 1.346 . S
C115 C112 1.485 . S
C115 H119 0.960 . S
C115 H120 0.961 . S
C115 H121 0.960 . S
C116 N114 1.346 . S
C116 N117 1.307 . S
C116 C118 1.486 . S
N117 N113 1.370 . S
N117 C116 1.307 . S
C118 C116 1.486 . S
C118 H122 0.960 . S
C118 H123 0.960 . S
C118 H124 0.959 . S
H119 C115 0.960 . S
H120 C115 0.961 . S
H121 C115 0.960 . S
H122 C118 0.960 . S
H123 C118 0.960 . S
H124 C118 0.959 . S
C125 N126 1.317 . S
C125 N127 1.348 . S
C125 C128 1.485 . S
N126 C125 1.317 . S
N126 N130 1.370 . S
N127 C125 1.348 . S
N127 C129 1.346 . S
C128 C125 1.485 . S
C128 H132 0.960 . S
C128 H133 0.961 . S
C128 H134 0.960 . S
C129 N127 1.346 . S
C129 N130 1.307 . S
C129 C131 1.486 . S
N130 N126 1.370 . S
N130 C129 1.307 . S
C131 C129 1.486 . S
C131 H135 0.960 . S
C131 H136 0.960 . S
C131 H137 0.959 . S
H132 C128 0.960 . S
H133 C128 0.961 . S
H134 C128 0.960 . S
H135 C131 0.960 . S
H136 C131 0.960 . S
H137 C131 0.959 . S
H138 C144 0.930 . S
H139 C148 0.930 . S
H140 C153 0.929 . S
H141 C151 0.929 . S
H142 C146 0.929 . S
H143 C152 0.929 . S
C144 H138 0.930 . S
C144 C145 1.367 . S
C144 C152 1.378 . S
C145 C144 1.367 . S
C145 C153 1.433 . S
C146 H142 0.929 . S
C146 C148 1.378 . S
C146 C150 1.350 . S
C147 C150 1.463 . S
C147 C152 1.350 . S
C147 N155 1.427 . S
C148 H139 0.930 . S
C148 C146 1.378 . S
C148 C149 1.367 . S
C149 C148 1.367 . S
C149 C151 1.433 . S
C150 C146 1.350 . S
C150 C147 1.463 . S
C150 N154 1.427 . S
C151 H141 0.929 . S
C151 C149 1.433 . S
C151 N154 1.384 . S
C152 H143 0.929 . S
C152 C144 1.378 . S
C152 C147 1.350 . S
C153 H140 0.929 . S
C153 C145 1.433 . S
C153 N155 1.384 . S
N154 C150 1.427 . S
N154 C151 1.384 . S
N155 C147 1.427 . S
N155 C153 1.384 . S
H156 C162 0.930 . S
H157 C166 0.930 . S
H158 C171 0.929 . S
H159 C169 0.929 . S
H160 C164 0.929 . S
H161 C170 0.929 . S
C162 H156 0.930 . S
C162 C163 1.367 . S
C162 C170 1.378 . S
C163 C162 1.367 . S
C163 C171 1.433 . S
C164 H160 0.929 . S
C164 C166 1.378 . S
C164 C168 1.350 . S
C165 C168 1.463 . S
C165 C170 1.350 . S
C165 N173 1.427 . S
C166 H157 0.930 . S
C166 C164 1.378 . S
C166 C167 1.367 . S
C167 C166 1.367 . S
C167 C169 1.433 . S
C168 C164 1.350 . S
C168 C165 1.463 . S
C168 N172 1.427 . S
C169 H159 0.929 . S
C169 C167 1.433 . S
C169 N172 1.384 . S
C170 H161 0.929 . S
C170 C162 1.378 . S
C170 C165 1.350 . S
C171 H158 0.929 . S
C171 C163 1.433 . S
C171 N173 1.384 . S
N172 C168 1.427 . S
N172 C169 1.384 . S
N173 C165 1.427 . S
N173 C171 1.384 . S
H174 C180 0.930 . S
H175 C184 0.930 . S
H176 C189 0.929 . S
H177 C187 0.929 1_545 S
H178 C182 0.929 . S
H179 C188 0.929 . S
C180 H174 0.930 . S
C180 C181 1.367 . S
C180 C188 1.378 . S
C181 C180 1.367 . S
C181 C189 1.433 . S
C182 H178 0.929 . S
C182 C184 1.378 . S
C182 C186 1.350 . S
C183 C186 1.463 . S
C183 C188 1.350 . S
C183 N191 1.427 . S
C184 H175 0.930 . S
C184 C182 1.378 . S
C184 C185 1.367 . S
C185 C184 1.367 . S
C185 C187 1.433 . S
C186 C182 1.350 . S
C186 C183 1.463 . S
C186 N190 1.427 . S
C187 H177 0.929 1_565 S
C187 C185 1.433 . S
C187 N190 1.384 . S
C188 H179 0.929 . S
C188 C180 1.378 . S
C188 C183 1.350 . S
C189 H176 0.929 . S
C189 C181 1.433 . S
C189 N191 1.384 . S
N190 C186 1.427 . S
N190 C187 1.384 . S
N191 C183 1.427 . S
N191 C189 1.384 . S
H192 C198 0.930 . S
H193 C202 0.930 . S
H194 C207 0.929 . S
H195 C205 0.929 . S
H196 C200 0.929 . S
H197 C206 0.929 . S
C198 H192 0.930 . S
C198 C199 1.367 . S
C198 C206 1.378 . S
C199 C198 1.367 . S
C199 C207 1.433 . S
C200 H196 0.929 . S
C200 C202 1.378 . S
C200 C204 1.350 . S
C201 C204 1.463 . S
C201 C206 1.350 . S
C201 N209 1.427 . S
C202 H193 0.930 . S
C202 C200 1.378 . S
C202 C203 1.367 . S
C203 C202 1.367 . S
C203 C205 1.433 . S
C204 C200 1.350 . S
C204 C201 1.463 . S
C204 N208 1.427 . S
C205 H195 0.929 . S
C205 C203 1.433 . S
C205 N208 1.384 . S
C206 H197 0.929 . S
C206 C198 1.378 . S
C206 C201 1.350 . S
C207 H194 0.929 . S
C207 C199 1.433 . S
C207 N209 1.384 . S
N208 C204 1.427 . S
N208 C205 1.384 . S
N209 C201 1.427 . S
N209 C207 1.384 . S
H210 C216 0.930 . S
H211 C220 0.930 . S
H212 C225 0.929 . S
H213 C223 0.929 . S
H214 C218 0.929 . S
H215 C224 0.929 . S
C216 H210 0.930 . S
C216 C217 1.367 . S
C216 C224 1.378 . S
C217 C216 1.367 . S
C217 C225 1.433 . S
C218 H214 0.929 . S
C218 C220 1.378 . S
C218 C222 1.350 . S
C219 C222 1.463 . S
C219 C224 1.350 . S
C219 N227 1.427 . S
C220 H211 0.930 . S
C220 C218 1.378 . S
C220 C221 1.367 . S
C221 C220 1.367 . S
C221 C223 1.433 . S
C222 C218 1.350 . S
C222 C219 1.463 . S
C222 N226 1.427 . S
C223 H213 0.929 . S
C223 C221 1.433 . S
C223 N226 1.384 . S
C224 H215 0.929 . S
C224 C216 1.378 . S
C224 C219 1.350 . S
C225 H212 0.929 . S
C225 C217 1.433 . S
C225 N227 1.384 . S
N226 C222 1.427 . S
N226 C223 1.384 . S
N227 C219 1.427 . S
N227 C225 1.384 . S
H228 C234 0.930 . S
H229 C238 0.930 . S
H230 C243 0.929 . S
H231 C241 0.929 . S
H232 C236 0.929 . S
H233 C242 0.929 . S
C234 H228 0.930 . S
C234 C235 1.367 . S
C234 C242 1.378 . S
C235 C234 1.367 . S
C235 C243 1.433 . S
C236 H232 0.929 . S
C236 C238 1.378 . S
C236 C240 1.350 . S
C237 C240 1.463 . S
C237 C242 1.350 . S
C237 N245 1.427 . S
C238 H229 0.930 . S
C238 C236 1.378 . S
C238 C239 1.367 . S
C239 C238 1.367 . S
C239 C241 1.433 . S
C240 C236 1.350 . S
C240 C237 1.463 . S
C240 N244 1.427 . S
C241 H231 0.929 . S
C241 C239 1.433 . S
C241 N244 1.384 . S
C242 H233 0.929 . S
C242 C234 1.378 . S
C242 C237 1.350 . S
C243 H230 0.929 . S
C243 C235 1.433 . S
C243 N245 1.384 . S
N244 C240 1.427 . S
N244 C241 1.384 . S
N245 C237 1.427 . S
N245 C243 1.384 . S
H246 C252 0.930 . S
H247 C256 0.930 . S
H248 C261 0.929 . S
H249 C259 0.929 . S
H250 C254 0.929 . S
H251 C260 0.929 . S
C252 H246 0.930 . S
C252 C253 1.367 . S
C252 C260 1.378 . S
C253 C252 1.367 . S
C253 C261 1.433 . S
C254 H250 0.929 . S
C254 C256 1.378 . S
C254 C258 1.350 . S
C255 C258 1.463 . S
C255 C260 1.350 . S
C255 N263 1.427 . S
C256 H247 0.930 . S
C256 C254 1.378 . S
C256 C257 1.367 . S
C257 C256 1.367 . S
C257 C259 1.433 . S
C258 C254 1.350 . S
C258 C255 1.463 . S
C258 N262 1.427 . S
C259 H249 0.929 . S
C259 C257 1.433 . S
C259 N262 1.384 . S
C260 H251 0.929 . S
C260 C252 1.378 . S
C260 C255 1.350 . S
C261 H248 0.929 . S
C261 C253 1.433 . S
C261 N263 1.384 . S
N262 C258 1.427 . S
N262 C259 1.384 . S
N263 C255 1.427 . S
N263 C261 1.384 . S
H264 C270 0.930 . S
H265 C274 0.930 . S
H266 C279 0.929 . S
H267 C277 0.929 1_455 S
H268 C272 0.929 . S
H269 C278 0.929 . S
C270 H264 0.930 . S
C270 C271 1.367 . S
C270 C278 1.378 . S
C271 C270 1.367 . S
C271 C279 1.433 . S
C272 H268 0.929 . S
C272 C274 1.378 . S
C272 C276 1.350 . S
C273 C276 1.463 . S
C273 C278 1.350 . S
C273 N281 1.427 . S
C274 H265 0.930 . S
C274 C272 1.378 . S
C274 C275 1.367 . S
C275 C274 1.367 . S
C275 C277 1.433 . S
C276 C272 1.350 . S
C276 C273 1.463 . S
C276 N280 1.427 . S
C277 H267 0.929 1_655 S
C277 C275 1.433 . S
C277 N280 1.384 . S
C278 H269 0.929 . S
C278 C270 1.378 . S
C278 C273 1.350 . S
C279 H266 0.929 . S
C279 C271 1.433 . S
C279 N281 1.384 . S
N280 C276 1.427 . S
N280 C277 1.384 . S
N281 C273 1.427 . S
N281 C279 1.384 . S
H282 C288 0.930 . S
H283 C292 0.930 . S
H284 C297 0.929 . S
H285 C295 0.929 . S
H286 C290 0.929 . S
H287 C296 0.929 . S
C288 H282 0.930 . S
C288 C289 1.367 . S
C288 C296 1.378 . S
C289 C288 1.367 . S
C289 C297 1.433 . S
C290 H286 0.929 . S
C290 C292 1.378 . S
C290 C294 1.350 . S
C291 C294 1.463 . S
C291 C296 1.350 . S
C291 N299 1.427 . S
C292 H283 0.930 . S
C292 C290 1.378 . S
C292 C293 1.367 . S
C293 C292 1.367 . S
C293 C295 1.433 . S
C294 C290 1.350 . S
C294 C291 1.463 . S
C294 N298 1.427 . S
C295 H285 0.929 . S
C295 C293 1.433 . S
C295 N298 1.384 . S
C296 H287 0.929 . S
C296 C288 1.378 . S
C296 C291 1.350 . S
C297 H284 0.929 . S
C297 C289 1.433 . S
C297 N299 1.384 . S
N298 C294 1.427 . S
N298 C295 1.384 . S
N299 C291 1.427 . S
N299 C297 1.384 . S
H300 C306 0.930 . S
H301 C310 0.930 . S
H302 C315 0.929 . S
H303 C313 0.929 . S
H304 C308 0.929 . S
H305 C314 0.929 . S
C306 H300 0.930 . S
C306 C307 1.367 . S
C306 C314 1.378 . S
C307 C306 1.367 . S
C307 C315 1.433 . S
C308 H304 0.929 . S
C308 C310 1.378 . S
C308 C312 1.350 . S
C309 C312 1.463 . S
C309 C314 1.350 . S
C309 N317 1.427 . S
C310 H301 0.930 . S
C310 C308 1.378 . S
C310 C311 1.367 . S
C311 C310 1.367 . S
C311 C313 1.433 . S
C312 C308 1.350 . S
C312 C309 1.463 . S
C312 N316 1.427 . S
C313 H303 0.929 . S
C313 C311 1.433 . S
C313 N316 1.384 . S
C314 H305 0.929 . S
C314 C306 1.378 . S
C314 C309 1.350 . S
C315 H302 0.929 . S
C315 C307 1.433 . S
C315 N317 1.384 . S
N316 C312 1.427 . S
N316 C313 1.384 . S
N317 C309 1.427 . S
N317 C315 1.384 . S
H318 C324 0.930 . S
H319 C328 0.930 . S
H320 C333 0.929 . S
H321 C331 0.929 . S
H322 C326 0.929 . S
H323 C332 0.929 . S
C324 H318 0.930 . S
C324 C325 1.367 . S
C324 C332 1.378 . S
C325 C324 1.367 . S
C325 C333 1.433 . S
C326 H322 0.929 . S
C326 C328 1.378 . S
C326 C330 1.350 . S
C327 C330 1.463 . S
C327 C332 1.350 . S
C327 N335 1.427 . S
C328 H319 0.930 . S
C328 C326 1.378 . S
C328 C329 1.367 . S
C329 C328 1.367 . S
C329 C331 1.433 . S
C330 C326 1.350 . S
C330 C327 1.463 . S
C330 N334 1.427 . S
C331 H321 0.929 . S
C331 C329 1.433 . S
C331 N334 1.384 . S
C332 H323 0.929 . S
C332 C324 1.378 . S
C332 C327 1.350 . S
C333 H320 0.929 . S
C333 C325 1.433 . S
C333 N335 1.384 . S
N334 C330 1.427 . S
N334 C331 1.384 . S
N335 C327 1.427 . S
N335 C333 1.384 . S
H336 C342 0.930 . S
H337 C346 0.930 . S
H338 C351 0.929 . S
H339 C349 0.929 . S
H340 C344 0.929 . S
H341 C350 0.929 . S
C342 H336 0.930 . S
C342 C343 1.367 . S
C342 C350 1.378 . S
C343 C342 1.367 . S
C343 C351 1.433 . S
C344 H340 0.929 . S
C344 C346 1.378 . S
C344 C348 1.350 . S
C345 C348 1.463 . S
C345 C350 1.350 . S
C345 N353 1.427 . S
C346 H337 0.930 . S
C346 C344 1.378 . S
C346 C347 1.367 . S
C347 C346 1.367 . S
C347 C349 1.433 . S
C348 C344 1.350 . S
C348 C345 1.463 . S
C348 N352 1.427 . S
C349 H339 0.929 . S
C349 C347 1.433 . S
C349 N352 1.384 . S
C350 H341 0.929 . S
C350 C342 1.378 . S
C350 C345 1.350 . S
C351 H338 0.929 . S
C351 C343 1.433 . S
C351 N353 1.384 . S
N352 C348 1.427 . S
N352 C349 1.384 . S
N353 C345 1.427 . S
N353 C351 1.384 . S
H354 C360 0.930 . S
H355 C364 0.930 . S
H356 C369 0.929 . S
H357 C367 0.929 . S
H358 C362 0.929 . S
H359 C368 0.929 . S
C360 H354 0.930 . S
C360 C361 1.367 . S
C360 C368 1.378 . S
C361 C360 1.367 . S
C361 C369 1.433 . S
C362 H358 0.929 . S
C362 C364 1.378 . S
C362 C366 1.350 . S
C363 C366 1.463 1_554 S
C363 C368 1.350 . S
C363 N371 1.427 . S
C364 H355 0.930 . S
C364 C362 1.378 . S
C364 C365 1.367 . S
C365 C364 1.367 . S
C365 C367 1.433 . S
C366 C362 1.350 . S
C366 C363 1.463 1_556 S
C366 N370 1.427 . S
C367 H357 0.929 . S
C367 C365 1.433 . S
C367 N370 1.384 . S
C368 H359 0.929 . S
C368 C360 1.378 . S
C368 C363 1.350 . S
C369 H356 0.929 . S
C369 C361 1.433 . S
C369 N371 1.384 . S
N370 C366 1.427 . S
N370 C367 1.384 . S
N371 C363 1.427 . S
N371 C369 1.384 . S
H372 C378 0.930 . S
H373 C382 0.930 . S
H374 C387 0.929 . S
H375 C385 0.929 . S
H376 C380 0.929 . S
H377 C386 0.929 . S
C378 H372 0.930 . S
C378 C379 1.367 . S
C378 C386 1.378 . S
C379 C378 1.367 . S
C379 C387 1.433 . S
C380 H376 0.929 . S
C380 C382 1.378 . S
C380 C384 1.350 . S
C381 C384 1.463 . S
C381 C386 1.350 . S
C381 N389 1.427 . S
C382 H373 0.930 . S
C382 C380 1.378 . S
C382 C383 1.367 . S
C383 C382 1.367 . S
C383 C385 1.433 . S
C384 C380 1.350 . S
C384 C381 1.463 . S
C384 N388 1.427 . S
C385 H375 0.929 . S
C385 C383 1.433 . S
C385 N388 1.384 . S
C386 H377 0.929 . S
C386 C378 1.378 . S
C386 C381 1.350 . S
C387 H374 0.929 . S
C387 C379 1.433 . S
C387 N389 1.384 . S
N388 C384 1.427 . S
N388 C385 1.384 . S
N389 C381 1.427 . S
N389 C387 1.384 . S
H390 C396 0.930 . S
H391 C400 0.930 . S
H392 C405 0.929 . S
H393 C403 0.929 . S
H394 C398 0.929 . S
H395 C404 0.929 . S
C396 H390 0.930 . S
C396 C397 1.367 . S
C396 C404 1.378 . S
C397 C396 1.367 . S
C397 C405 1.433 . S
C398 H394 0.929 . S
C398 C400 1.378 . S
C398 C402 1.350 . S
C399 C402 1.463 . S
C399 C404 1.350 . S
C399 N407 1.427 . S
C400 H391 0.930 . S
C400 C398 1.378 . S
C400 C401 1.367 . S
C401 C400 1.367 . S
C401 C403 1.433 . S
C402 C398 1.350 . S
C402 C399 1.463 . S
C402 N406 1.427 . S
C403 H393 0.929 . S
C403 C401 1.433 . S
C403 N406 1.384 . S
C404 H395 0.929 . S
C404 C396 1.378 . S
C404 C399 1.350 . S
C405 H392 0.929 . S
C405 C397 1.433 . S
C405 N407 1.384 . S
N406 C402 1.427 . S
N406 C403 1.384 . S
N407 C399 1.427 . S
N407 C405 1.384 . S
H408 C414 0.930 . S
H409 C418 0.930 . S
H410 C423 0.929 . S
H411 C421 0.929 1_565 S
H412 C416 0.929 . S
H413 C422 0.929 . S
C414 H408 0.930 . S
C414 C415 1.367 1_565 S
C414 C422 1.378 . S
C415 C414 1.367 1_545 S
C415 C423 1.433 . S
C416 H412 0.929 . S
C416 C418 1.378 . S
C416 C420 1.350 . S
C417 C420 1.463 . S
C417 C422 1.350 1_545 S
C417 N425 1.427 . S
C418 H409 0.930 . S
C418 C416 1.378 . S
C418 C419 1.367 . S
C419 C418 1.367 . S
C419 C421 1.433 . S
C420 C416 1.350 . S
C420 C417 1.463 . S
C420 N424 1.447 . S
C421 H411 0.929 1_545 S
C421 C419 1.433 . S
C421 N424 1.388 . S
C422 H413 0.929 . S
C422 C414 1.378 . S
C422 C417 1.350 1_565 S
C423 H410 0.929 . S
C423 C415 1.433 . S
C423 N425 1.384 . S
N424 C420 1.447 . S
N424 C421 1.388 . S
N425 C417 1.427 . S
N425 C423 1.384 . S
H426 C432 0.930 . S
H427 C436 0.930 . S
H428 C441 0.929 . S
H429 C439 0.929 . S
H430 C434 0.929 . S
H431 C440 0.929 . S
C432 H426 0.930 . S
C432 C433 1.367 . S
C432 C440 1.378 . S
C433 C432 1.367 . S
C433 C441 1.433 . S
C434 H430 0.929 . S
C434 C436 1.378 . S
C434 C438 1.350 . S
C435 C438 1.463 1_556 S
C435 C440 1.350 . S
C435 N443 1.427 . S
C436 H427 0.930 . S
C436 C434 1.378 . S
C436 C437 1.367 . S
C437 C436 1.367 . S
C437 C439 1.433 . S
C438 C434 1.350 . S
C438 C435 1.463 1_554 S
C438 N442 1.427 . S
C439 H429 0.929 . S
C439 C437 1.433 . S
C439 N442 1.384 . S
C440 H431 0.929 . S
C440 C432 1.378 . S
C440 C435 1.350 . S
C441 H428 0.929 . S
C441 C433 1.433 . S
C441 N443 1.384 . S
N442 C438 1.427 . S
N442 C439 1.384 . S
N443 C435 1.427 . S
N443 C441 1.384 . S
H444 C450 0.930 . S
H445 C454 0.930 . S
H446 C459 0.929 . S
H447 C457 0.929 . S
H448 C452 0.929 . S
H449 C458 0.929 . S
C450 H444 0.930 . S
C450 C451 1.364 . S
C450 C458 1.378 . S
C451 C450 1.364 . S
C451 C459 1.436 1_655 S
C452 H448 0.929 . S
C452 C454 1.378 . S
C452 C456 1.350 . S
C453 C456 1.463 . S
C453 C458 1.350 1_455 S
C453 N461 1.427 . S
C454 H445 0.930 . S
C454 C452 1.378 . S
C454 C455 1.367 . S
C455 C454 1.367 . S
C455 C457 1.433 1_455 S
C456 C452 1.350 . S
C456 C453 1.463 . S
C456 N460 1.427 1_455 S
C457 H447 0.929 . S
C457 C455 1.433 1_655 S
C457 N460 1.384 . S
C458 H449 0.929 . S
C458 C450 1.378 . S
C458 C453 1.350 1_655 S
C459 H446 0.929 . S
C459 C451 1.436 1_455 S
C459 N461 1.384 . S
N460 C456 1.427 1_655 S
N460 C457 1.384 . S
N461 C453 1.427 . S
N461 C459 1.384 . S
C145 C2 1.129 . S
C149 N127 1.219 . S
C163 C22 1.290 . S
C167 N100 1.405 1_655 S
C181 C44 1.309 . S
C185 N113 1.411 1_565 S
C199 C4 1.753 . S
C203 N126 1.856 . S
C221 N101 1.652 . S
C217 C24 1.572 . S
C239 N114 1.618 . S
C235 C42 1.539 . S
C253 C32 1.204 . S
C257 N74 1.245 . S
C271 C49 1.003 . S
C275 N88 1.005 1_655 S
C289 C9 1.327 . S
C293 N62 1.337 . S
C311 N75 1.318 . S
C307 C29 1.274 . S
C329 N87 1.537 . S
C325 C52 1.474 . S
C343 C12 1.166 . S
C347 N61 1.228 . S
C365 N91 1.490 . S
C361 C18 1.515 1_455 S
C379 C38 1.516 . S
C383 N65 1.531 . S
C397 C58 1.507 . S
C401 N78 1.495 . S
C419 N117 1.594 . S
C415 C39 1.590 . S
C437 N130 1.519 . S
C433 C59 1.505 . S
C451 C19 1.536 1_655 S
C455 N104 1.547 . S
