# Generated by pormake.
# Topology pyr, (3,6)-cn, num edge types: 1
# Building blocks:
#     Node 0, Type 0, BuildingBlock: PAMTOO_clean_linker_0, # of connection points: 3
#     Node 1, Type 0, BuildingBlock: PAMTOO_clean_linker_0, # of connection points: 3
#     Node 2, Type 0, BuildingBlock: PAMTOO_clean_linker_0, # of connection points: 3
#     Node 3, Type 0, BuildingBlock: PAMTOO_clean_linker_0, # of connection points: 3
#     Node 4, Type 0, BuildingBlock: PAMTOO_clean_linker_0, # of connection points: 3
#     Node 5, Type 0, BuildingBlock: PAMTOO_clean_linker_0, # of connection points: 3
#     Node 6, Type 0, BuildingBlock: PAMTOO_clean_linker_0, # of connection points: 3
#     Node 7, Type 0, BuildingBlock: PAMTOO_clean_linker_0, # of connection points: 3
#     Node 8, Type 1, BuildingBlock: BETDEL_clean_sbu_0, # of connection points: 6
#     Node 9, Type 1, BuildingBlock: BETDEL_clean_sbu_0, # of connection points: 6
#     Node 10, Type 1, BuildingBlock: BETDEL_clean_sbu_0, # of connection points: 6
#     Node 11, Type 1, BuildingBlock: BETDEL_clean_sbu_0, # of connection points: 6
#     Edge 12, Type (0, 1), BuildingBlock: AJUNOK_clean_linker_0, # of connection points: 2
#     Edge 13, Type (0, 1), BuildingBlock: AJUNOK_clean_linker_0, # of connection points: 2
#     Edge 14, Type (0, 1), BuildingBlock: AJUNOK_clean_linker_0, # of connection points: 2
#     Edge 15, Type (0, 1), BuildingBlock: AJUNOK_clean_linker_0, # of connection points: 2
#     Edge 16, Type (0, 1), BuildingBlock: AJUNOK_clean_linker_0, # of connection points: 2
#     Edge 17, Type (0, 1), BuildingBlock: AJUNOK_clean_linker_0, # of connection points: 2
#     Edge 18, Type (0, 1), BuildingBlock: AJUNOK_clean_linker_0, # of connection points: 2
#     Edge 19, Type (0, 1), BuildingBlock: AJUNOK_clean_linker_0, # of connection points: 2
#     Edge 20, Type (0, 1), BuildingBlock: AJUNOK_clean_linker_0, # of connection points: 2
#     Edge 21, Type (0, 1), BuildingBlock: AJUNOK_clean_linker_0, # of connection points: 2
#     Edge 22, Type (0, 1), BuildingBlock: AJUNOK_clean_linker_0, # of connection points: 2
#     Edge 23, Type (0, 1), BuildingBlock: AJUNOK_clean_linker_0, # of connection points: 2
#     Edge 24, Type (0, 1), BuildingBlock: AJUNOK_clean_linker_0, # of connection points: 2
#     Edge 25, Type (0, 1), BuildingBlock: AJUNOK_clean_linker_0, # of connection points: 2
#     Edge 26, Type (0, 1), BuildingBlock: AJUNOK_clean_linker_0, # of connection points: 2
#     Edge 27, Type (0, 1), BuildingBlock: AJUNOK_clean_linker_0, # of connection points: 2
#     Edge 28, Type (0, 1), BuildingBlock: AJUNOK_clean_linker_0, # of connection points: 2
#     Edge 29, Type (0, 1), BuildingBlock: AJUNOK_clean_linker_0, # of connection points: 2
#     Edge 30, Type (0, 1), BuildingBlock: AJUNOK_clean_linker_0, # of connection points: 2
#     Edge 31, Type (0, 1), BuildingBlock: AJUNOK_clean_linker_0, # of connection points: 2
#     Edge 32, Type (0, 1), BuildingBlock: AJUNOK_clean_linker_0, # of connection points: 2
#     Edge 33, Type (0, 1), BuildingBlock: AJUNOK_clean_linker_0, # of connection points: 2
#     Edge 34, Type (0, 1), BuildingBlock: AJUNOK_clean_linker_0, # of connection points: 2
#     Edge 35, Type (0, 1), BuildingBlock: AJUNOK_clean_linker_0, # of connection points: 2
# Relax obj value: 0.100
# Max RMSD: 0.202
# Mean RMSD: 0.139
data_MOF--net-pyr--node1-BETDEL_clean_sbu_0--node2-PAMTOO_clean_linker_0--edge1-AJUNOK_clean_linker_0
_symmetry_space_group_name_H-M    P1
_symmetry_Int_Tables_number       1
_symmetry_cell_setting            triclinic
loop_
_symmetry_equiv_pos_as_xyz
'x, y, z'
_cell_length_a     25.831791
_cell_length_b     28.095905
_cell_length_c     25.743339
_cell_angle_alpha  92.213223
_cell_angle_beta   89.986569
_cell_angle_gamma 101.56916
loop_
_atom_site_label
_atom_site_type_symbol
_atom_site_fract_x
_atom_site_fract_y
_atom_site_fract_z
_atom_type_partial_charge
H0 H 0.15574 0.25791 0.25347 0.0
H1 H 0.27139 0.16674 0.25293 0.0
H2 H 0.287 0.2837 0.14862 0.0
H3 H 0.31565 0.20422 0.09526 0.0
C4 C 0.31328 0.18003 0.12871 0.0
O5 O 0.3231 0.20806 0.17411 0.0
H6 H 0.27275 0.15708 0.12877 0.0
C7 C 0.19288 0.24973 0.24 0.0
C8 C 0.22023 0.27647 0.20023 0.0
C9 C 0.21158 0.21072 0.26022 0.0
C10 C 0.25716 0.19778 0.23913 0.0
C11 C 0.2838 0.2241 0.19887 0.0
C12 C 0.26633 0.26411 0.18044 0.0
H13 H 0.28754 0.93725 0.7454 0.0
H14 H 0.26455 0.83937 0.61072 0.0
H15 H 0.37226 0.81997 0.73095 0.0
H16 H 0.39908 0.83174 0.61128 0.0
C17 C 0.37257 0.79553 0.60434 0.0
O18 O 0.3325 0.78762 0.64045 0.0
H19 H 0.35481 0.79598 0.56508 0.0
C20 C 0.29473 0.90477 0.72494 0.0
C21 C 0.33176 0.87953 0.7448 0.0
C22 C 0.27033 0.89048 0.67653 0.0
C23 C 0.28204 0.84995 0.64876 0.0
C24 C 0.31852 0.82451 0.66868 0.0
C25 C 0.34308 0.83918 0.71657 0.0
H26 H 0.75156 0.29394 0.9657 0.0
H27 H 0.62026 0.2931 0.86173 0.0
H28 H 0.75929 0.40469 0.85319 0.0
H29 H 0.66178 0.43673 0.85024 0.0
C30 C 0.63966 0.40957 0.82144 0.0
O31 O 0.66589 0.37147 0.81366 0.0
H32 H 0.59984 0.39503 0.83734 0.0
C33 C 0.73358 0.3097 0.93433 0.0
C34 C 0.76236 0.35123 0.91097 0.0
C35 C 0.68192 0.28835 0.9176 0.0
C36 C 0.65926 0.30946 0.87654 0.0
C37 C 0.68735 0.35134 0.85343 0.0
C38 C 0.73855 0.37192 0.87076 0.0
H39 H 0.86255 0.73638 0.46077 0.0
H40 H 0.85265 0.6146 0.35147 0.0
H41 H 0.98064 0.7377 0.34261 0.0
H42 H 0.93944 0.69791 0.23978 0.0
C43 C 0.92457 0.65924 0.24906 0.0
O44 O 0.93758 0.65239 0.30003 0.0
H45 H 0.88085 0.65154 0.2441 0.0
C46 C 0.87831 0.71857 0.42803 0.0
C47 C 0.925 0.74251 0.40462 0.0
C48 C 0.85129 0.67253 0.40944 0.0
C49 C 0.8717 0.65056 0.36589 0.0
C50 C 0.91772 0.67442 0.34123 0.0
C51 C 0.94438 0.72017 0.36087 0.0
H52 H 0.82837 0.93661 0.86779 0.0
H53 H 0.79716 0.85682 1.00749 0.0
H54 H 0.91765 0.82783 0.90331 0.0
H55 H 0.81488 0.75209 0.93816 0.0
C56 C 0.83401 0.75534 0.97735 0.0
O57 O 0.86391 0.80116 0.9876 0.0
H58 H 0.80168 0.74793 1.00617 0.0
C59 C 0.83703 0.9094 0.89342 0.0
C60 C 0.87666 0.88361 0.88045 0.0
C61 C 0.80886 0.90035 0.93955 0.0
C62 C 0.81991 0.86519 0.97243 0.0
C63 C 0.85842 0.8388 0.95897 0.0
C64 C 0.88786 0.84864 0.91364 0.0
H65 H 0.82426 0.11124 0.36426 0.0
H66 H 0.77391 0.24762 0.35024 0.0
H67 H 0.87994 0.2314 0.47261 0.0
H68 H 0.81613 0.30435 0.51117 0.0
C69 C 0.79048 0.29243 0.47649 0.0
O70 O 0.82234 0.28785 0.43425 0.0
H71 H 0.76515 0.25688 0.48612 0.0
C72 C 0.82665 0.14888 0.37667 0.0
C73 C 0.857 0.16789 0.42103 0.0
C74 C 0.7972 0.17762 0.34991 0.0
C75 C 0.79699 0.22504 0.36928 0.0
C76 C 0.8263 0.24383 0.41358 0.0
C77 C 0.85728 0.21597 0.43839 0.0
H78 H 0.35984 0.75598 0.09809 0.0
H79 H 0.36251 0.62802 0.18465 0.0
H80 H 0.48543 0.75352 0.20812 0.0
H81 H 0.52022 0.66136 0.22185 0.0
C82 C 0.48276 0.63885 0.23574 0.0
O83 O 0.44477 0.66705 0.24073 0.0
H84 H 0.46907 0.60863 0.20661 0.0
C85 C 0.37928 0.73674 0.12531 0.0
C86 C 0.42684 0.7606 0.14993 0.0
C87 C 0.35511 0.68899 0.13791 0.0
C88 C 0.37978 0.66491 0.17472 0.0
C89 C 0.42598 0.68843 0.20044 0.0
C90 C 0.44958 0.73586 0.18777 0.0
H91 H 0.0988 0.3138 0.76827 0.0
H92 H 0.22859 0.43547 0.74842 0.0
H93 H 0.21267 0.30946 0.64662 0.0
H94 H 0.31767 0.34749 0.67525 0.0
C95 C 0.31835 0.38722 0.67889 0.0
O96 O 0.26869 0.39579 0.66844 0.0
H97 H 0.32986 0.39915 0.7197 0.0
C98 C 0.13472 0.33046 0.74886 0.0
C99 C 0.15311 0.30542 0.7062 0.0
C100 C 0.16127 0.37814 0.76427 0.0
C101 C 0.20721 0.39926 0.73726 0.0
C102 C 0.22557 0.37448 0.69516 0.0
C103 C 0.19834 0.32804 0.67965 0.0
Dy104 Dy 0.07757 0.0428 0.50834 0.0
C105 C 0.97929 0.94796 0.69086 0.0
C106 C 0.10376 0.09451 0.42253 0.0
Dy107 Dy 0.01898 1.00014 0.60836 0.0
O108 O 0.10672 0.04912 0.4265 0.0
O109 O 0.08529 0.11102 0.46494 0.0
O110 O 0.15818 0.02659 0.52527 0.0
O111 O 0.0973 1.009 0.57713 0.0
C112 C 0.1447 1.00669 0.56922 0.0
C113 C 0.96639 0.05109 0.54837 0.0
O114 O 0.06131 0.07271 0.64149 0.0
O115 O 0.08031 0.10849 0.56191 0.0
O116 O 0.02673 0.97432 0.68893 0.0
O117 O 0.95388 0.9504 0.64788 0.0
O118 O 0.96057 0.04895 0.59842 0.0
O119 O 0.99608 0.02301 0.53314 0.0
O120 O 0.03396 0.97055 0.47621 0.0
O121 O 0.01579 0.93371 0.55543 0.0
C122 C 0.07672 0.11159 0.61333 0.0
C123 C 0.0177 0.93135 0.50372 0.0
Dy124 Dy 0.5938 0.05071 0.09909 0.0
C125 C 0.46056 0.96174 0.92316 0.0
C126 C 0.66492 0.09958 0.17081 0.0
Dy127 Dy 0.52175 1.01146 1.0015 0.0
O128 O 0.67164 0.06275 0.14144 0.0
O129 O 0.61952 0.11051 0.16023 0.0
O130 O 0.56729 0.98523 0.1495 0.0
O131 O 0.5373 0.98592 0.07607 0.0
C132 C 0.53569 0.96015 0.11485 0.0
C133 C 0.56794 0.10677 1.00102 0.0
O134 O 0.46476 0.03181 0.05859 0.0
O135 O 0.52572 0.08806 0.10735 0.0
O136 O 0.50896 0.98514 0.91818 0.0
O137 O 0.44578 0.96495 0.97119 0.0
O138 O 0.52255 0.08799 0.97971 0.0
O139 O 0.58837 0.07302 0.01803 0.0
O140 O 0.65069 0.02733 0.04401 0.0
O141 O 0.59051 0.97519 0.99015 0.0
C142 C 0.47666 0.06927 0.09216 0.0
C143 C 0.63921 0.99228 1.00755 0.0
Dy144 Dy 0.58716 0.4912 0.50267 0.0
C145 C 0.49686 0.64382 0.59098 0.0
C146 C 0.6529 0.43173 0.46914 0.0
Dy147 Dy 0.55808 0.57955 0.55899 0.0
O148 O 0.60153 0.42088 0.46556 0.0
O149 O 0.66772 0.47519 0.4898 0.0
O150 O 0.5022 0.45125 0.50128 0.0
O151 O 0.52978 0.50159 0.5617 0.0
C152 C 0.48891 0.4747 0.54226 0.0
C153 C 0.65626 0.59483 0.51938 0.0
O154 O 0.57795 0.54136 0.62928 0.0
O155 O 0.61882 0.48631 0.58428 0.0
O156 O 0.54714 0.64896 0.60109 0.0
O157 O 0.48044 0.60334 0.56459 0.0
O158 O 0.64399 0.61721 0.56145 0.0
O159 O 0.61493 0.56932 0.49943 0.0
O160 O 0.56137 0.5254 0.43218 0.0
O161 O 0.52482 0.58301 0.47833 0.0
C162 C 0.60645 0.50686 0.62879 0.0
C163 C 0.53416 0.56086 0.43381 0.0
Dy164 Dy 0.07345 0.47798 0.05123 0.0
C165 C 0.98179 0.6261 0.9854 0.0
C166 C 0.1201 0.41385 0.09972 0.0
Dy167 Dy 0.04565 0.56166 0.99058 0.0
O168 O 0.10342 0.44967 0.12258 0.0
O169 O 0.11074 0.4125 0.05009 0.0
O170 O 1.00761 0.48537 0.10598 0.0
O171 O 0.05224 0.54718 0.0726 0.0
C172 C 0.01392 0.53215 0.10229 0.0
C173 C 0.08589 0.50388 0.92253 0.0
O174 O 0.12353 0.60156 0.02267 0.0
O175 O 0.14962 0.53346 0.05504 0.0
O176 O 0.02569 0.62954 0.95922 0.0
O177 O 0.97337 0.58785 0.01306 0.0
O178 O 0.07208 0.54419 0.90993 0.0
O179 O 0.0793 0.49864 0.97093 0.0
O180 O 1.002 0.43509 1.01092 0.0
O181 O 0.9738 0.50202 0.97866 0.0
C182 C 0.15878 0.58047 0.0452 0.0
C183 C 0.9669 0.45493 0.98684 0.0
C184 C 0.1706 0.13083 0.29605 0.0
C185 C 0.18172 0.18187 0.30113 0.0
C186 C 0.14341 0.10271 0.33482 0.0
C187 C 0.12617 0.12474 0.37968 0.0
H188 H 0.18317 0.11247 0.26196 0.0
H189 H 0.13667 0.06346 0.32999 0.0
S190 S 0.14477 0.25706 0.41132 0.0
N191 N 0.17344 0.25336 0.35441 0.0
N192 N 0.12088 0.20043 0.42672 0.0
C193 C 0.13565 0.17573 0.38464 0.0
C194 C 0.16386 0.20435 0.34545 0.0
C195 C 0.4187 0.91015 0.78845 0.0
C196 C 0.3633 0.8984 0.79177 0.0
C197 C 0.44982 0.92995 0.83151 0.0
C198 C 0.42669 0.93807 0.8796 0.0
H199 H 0.43808 0.90495 0.75193 0.0
H200 H 0.49231 0.93928 0.82693 0.0
S201 S 0.2834 0.91132 0.90904 0.0
N202 N 0.28653 0.895 0.84696 0.0
N203 N 0.3451 0.93154 0.92852 0.0
C204 C 0.37138 0.9254 0.88382 0.0
C205 C 0.33963 0.90584 0.83966 0.0
C206 C 0.65479 0.42351 0.72388 0.0
C207 C 0.63332 0.4357 0.77175 0.0
C208 C 0.64727 0.44771 0.67842 0.0
C209 C 0.61824 0.48532 0.67873 0.0
H210 H 0.67708 0.39476 0.7211 0.0
H211 H 0.66382 0.43618 0.64254 0.0
S212 S 0.5561 0.53235 0.79502 0.0
N213 N 0.58351 0.48878 0.81711 0.0
N214 N 0.56952 0.53434 0.73235 0.0
C215 C 0.59781 0.49859 0.72677 0.0
C216 C 0.60532 0.4738 0.7729 0.0
C217 C 0.99019 0.6446 0.17931 0.0
C218 C 0.9477 0.62586 0.21186 0.0
C219 C 1.0107 0.61432 0.14331 0.0
C220 C 0.98982 0.56399 0.13869 0.0
H221 H 1.0075 0.68308 0.1814 0.0
H222 H 0.04348 0.63045 0.11925 0.0
S223 S 0.8781 0.49713 0.21469 0.0
N224 N 0.88531 0.55405 0.23687 0.0
N225 N 0.92369 0.49707 0.16969 0.0
C226 C 0.94731 0.54489 0.17105 0.0
C227 C 0.92642 0.57577 0.20754 0.0
C228 C 0.4078 0.17278 0.12235 0.0
C229 C 0.35434 0.14962 0.12257 0.0
C230 C 0.44741 0.14601 0.11509 0.0
C231 C 0.43472 0.09526 0.10696 0.0
H232 H 0.41894 0.212 0.1271 0.0
H233 H 0.48805 0.16551 0.11371 0.0
S234 S 0.30071 1.01717 0.10646 0.0
N235 N 0.2906 0.07302 0.11629 0.0
N236 N 0.36534 0.0225 0.10164 0.0
C237 C 0.38146 0.07149 0.10808 0.0
C238 C 0.34111 0.09876 0.11606 0.0
C239 C 0.18748 0.92382 0.6676 0.0
C240 C 0.239 0.92188 0.65127 0.0
C241 C 0.15717 0.95219 0.6417 0.0
C242 C 0.17778 0.97981 0.59916 0.0
H243 H 0.17023 0.90252 0.69976 0.0
H244 H 0.11716 0.95175 0.6544 0.0
S245 S 0.31246 0.98937 0.54453 0.0
N246 N 0.3102 0.95129 0.59211 0.0
N247 N 0.2542 1.00505 0.54399 0.0
C248 C 0.22996 0.97911 0.58381 0.0
C249 C 0.26035 0.95002 0.60975 0.0
C250 C 0.82725 0.38152 0.98349 0.0
C251 C 0.81662 0.37395 0.92972 0.0
C252 C 0.87701 0.40597 1.00203 0.0
C253 C 0.9176 0.42383 0.96743 0.0
H254 H 0.7964 0.36993 1.01145 0.0
H255 H 0.88315 0.41251 0.04354 0.0
S256 S 0.91279 0.40956 0.82393 0.0
N257 N 0.8532 0.38277 0.84257 0.0
N258 N 0.94586 0.43021 0.87778 0.0
C259 C 0.90836 0.41537 0.91396 0.0
C260 C 0.85807 0.39003 0.89499 0.0
C261 C 0.79959 0.6507 0.49119 0.0
C262 C 0.80211 0.64827 0.43637 0.0
C263 C 0.75262 0.63253 0.51764 0.0
C264 C 0.70634 0.61033 0.49056 0.0
H265 H 0.83413 0.66743 0.51402 0.0
H266 H 0.75249 0.63626 0.55968 0.0
S267 S 0.69113 0.5942 0.3471 0.0
N268 N 0.75331 0.62197 0.35609 0.0
N269 N 0.66595 0.58615 0.40579 0.0
C270 C 0.70852 0.60616 0.4359 0.0
C271 C 0.75614 0.62541 0.40886 0.0
C272 C 0.18817 0.30988 0.1215 0.0
C273 C 0.19733 0.31362 0.17542 0.0
C274 C 0.16319 0.34275 0.09722 0.0
C275 C 0.14674 0.3803 0.12618 0.0
H276 H 0.19931 0.28067 0.09813 0.0
H277 H 0.15632 0.3384 0.05562 0.0
S278 S 0.16428 0.40687 0.26817 0.0
N279 N 0.1902 0.35835 0.25685 0.0
N280 N 0.14287 0.42051 0.21127 0.0
C281 C 0.15651 0.38494 0.18005 0.0
C282 C 0.1819 0.35139 0.20472 0.0
C283 C 0.6789 0.20528 0.95321 0.0
C284 C 0.65274 0.24342 0.94239 0.0
C285 C 0.65211 0.16205 0.9749 0.0
C286 C 0.59791 0.15501 0.98613 0.0
H287 H 0.72018 0.20819 0.94346 0.0
H288 H 0.67349 0.13322 0.98082 0.0
S289 S 0.51225 0.245 0.97151 0.0
N290 N 0.57035 0.27252 0.94987 0.0
N291 N 0.51988 0.19082 0.98878 0.0
C292 C 0.57169 0.19325 0.97733 0.0
C293 C 0.59902 0.23746 0.95584 0.0
C294 C 0.96252 0.79577 0.48148 0.0
C295 C 0.95325 0.79033 0.4275 0.0
C296 C 0.98454 0.84106 0.50526 0.0
C297 C 0.99827 0.8832 0.47621 0.0
H298 H 0.95201 0.76471 0.5058 0.0
H299 H 0.99 0.84296 0.54706 0.0
S300 S 0.98284 0.88831 0.333 0.0
N301 N 0.96023 0.83065 0.34533 0.0
N302 N 1.00192 0.91586 0.38963 0.0
C303 C 0.99047 0.87801 0.42181 0.0
C304 C 0.968 0.83164 0.39759 0.0
C305 C 0.38444 0.71096 0.57924 0.0
C306 C 0.40386 0.75568 0.60556 0.0
C307 C 0.41413 0.67433 0.57662 0.0
C308 C 0.46437 0.68107 0.60024 0.0
H309 H 0.34655 0.70475 0.55942 0.0
H310 H 0.39816 0.64104 0.5545 0.0
S311 S 0.5301 0.78953 0.67924 0.0
N312 N 0.47401 0.80313 0.65994 0.0
N313 N 0.53033 0.73446 0.65439 0.0
C314 C 0.48316 0.72476 0.62881 0.0
C315 C 0.45269 0.76199 0.63176 0.0
C316 C 0.95824 0.91543 0.83121 0.0
C317 C 0.90471 0.8926 0.83117 0.0
C318 C 0.98318 0.93121 0.78487 0.0
C319 C 0.95519 0.92435 0.73741 0.0
H320 H 0.9801 0.92319 0.8675 0.0
H321 H 0.02387 0.95069 0.78661 0.0
S322 S 0.81607 0.86016 0.71685 0.0
N323 N 0.82587 0.85951 0.78017 0.0
N324 N 0.87264 0.88854 0.69271 0.0
C325 C 0.90255 0.89864 0.7367 0.0
C326 C 0.87725 0.88294 0.78382 0.0
C327 C 0.7131 0.16657 0.2978 0.0
C328 C 0.76473 0.15794 0.30312 0.0
C329 C 0.68172 0.14885 0.25408 0.0
C330 C 0.70045 0.12134 0.21424 0.0
H331 H 0.69634 0.18653 0.32807 0.0
H332 H 0.642 0.15578 0.25219 0.0
S333 S 0.83374 0.09111 0.20724 0.0
N334 N 0.83412 0.12244 0.26288 0.0
N335 N 0.77447 0.0878 0.1816 0.0
C336 C 0.75211 0.11288 0.21856 0.0
C337 C 0.78434 0.1314 0.26282 0.0
C338 C 0.50054 0.57044 0.29058 0.0
C339 C 0.49332 0.61869 0.28775 0.0
C340 C 0.51315 0.55174 0.33788 0.0
C341 C 0.51876 0.58048 0.38435 0.0
H342 H 0.49689 0.54702 0.2558 0.0
H343 H 0.51855 0.5145 0.33796 0.0
S344 S 0.50806 0.71049 0.39707 0.0
N345 N 0.49611 0.69568 0.33494 0.0
N346 N 0.51843 0.6607 0.42373 0.0
C347 C 0.51214 0.62902 0.38186 0.0
C348 C 0.50002 0.64811 0.33364 0.0
C349 C 0.13729 0.45652 0.79625 0.0
C350 C 0.14019 0.40804 0.80573 0.0
C351 C 0.11997 0.48669 0.83439 0.0
C352 C 0.10496 0.47013 0.88414 0.0
H353 H 0.14831 0.47138 0.75869 0.0
H354 H 0.11859 0.52359 0.82468 0.0
S355 S 0.10328 0.34588 0.92894 0.0
N356 N 0.12549 0.3446 0.8688 0.0
N357 N 0.09226 0.40127 0.94022 0.0
C358 C 0.10688 0.4216 0.89417 0.0
C359 C 0.12445 0.39059 0.85506 0.0
C360 C 0.7699 0.95249 1.00134 0.0
C361 C 0.76691 0.92653 0.95351 0.0
C362 C 0.72869 0.97454 0.01779 0.0
C363 C 0.6828 0.97074 0.98721 0.0
H364 H 0.80412 0.95523 0.02647 0.0
H365 H 0.73239 0.99356 0.05544 0.0
S366 S 0.65704 0.90763 0.85771 0.0
N367 N 0.71596 0.89895 0.87488 0.0
N368 N 0.63766 0.94035 0.90587 0.0
C369 C 0.67978 0.9455 0.93871 0.0
C370 C 0.72217 0.92345 0.92175 0.0
C371 C 0.88074 0.13779 0.50645 0.0
C372 C 0.88535 0.1371 0.4519 0.0
C373 C 0.90723 0.10996 0.53702 0.0
C374 C 0.93928 0.07999 0.51442 0.0
H375 H 0.85601 0.15978 0.52581 0.0
H376 H 0.90238 0.11193 0.57882 0.0
S377 S 0.96515 0.06509 0.37347 0.0
N378 N 0.92543 0.10442 0.37661 0.0
N379 N 0.97399 0.05087 0.43405 0.0
C380 C 0.94413 0.07859 0.45994 0.0
C381 C 0.91738 0.10729 0.42871 0.0
C382 C 0.2937 0.66478 0.06054 0.0
C383 C 0.30312 0.66449 0.11455 0.0
C384 C 0.24622 0.63867 0.03783 0.0
C385 C 0.20706 0.61107 0.06837 0.0
H386 H 0.32377 0.68417 0.0355 0.0
H387 H 0.24085 0.63886 0.99611 0.0
S388 S 0.20842 0.60363 0.2117 0.0
N389 N 0.26575 0.63869 0.19819 0.0
N390 N 0.17831 0.58829 0.1552 0.0
C391 C 0.21504 0.61195 0.1223 0.0
C392 C 0.26258 0.639 0.14548 0.0
C393 C 0.36623 0.39119 0.59276 0.0
C394 C 0.35838 0.41331 0.64134 0.0
C395 C 0.4069 0.41245 0.55955 0.0
C396 C 0.44118 0.45665 0.57373 0.0
H397 H 0.34186 0.35635 0.58117 0.0
H398 H 0.41273 0.39312 0.52349 0.0
S399 S 0.43235 0.5323 0.69375 0.0
N400 N 0.38442 0.48418 0.69949 0.0
N401 N 0.46097 0.52393 0.63772 0.0
C402 C 0.43157 0.48045 0.62088 0.0
C403 C 0.39008 0.45891 0.65446 0.0
C404 C 0.90515 0.71705 0.93816 0.0
C405 C 0.86983 0.71985 0.97925 0.0
C406 C 0.94255 0.68745 0.94071 0.0
C407 C 0.94509 0.65947 0.9842 0.0
H408 H 0.90403 0.73821 0.90404 0.0
H409 H 0.96889 0.68582 0.90823 0.0
S410 S 0.86309 0.6559 0.10299 0.0
N411 N 0.84127 0.69411 0.06546 0.0
N412 N 0.91047 0.63721 0.06984 0.0
C413 C 0.91018 0.66216 0.02564 0.0
C414 C 0.87276 0.69278 0.02333 0.0
C415 C 0.47074 0.84508 0.18062 0.0
C416 C 0.45151 0.81221 0.13903 0.0
C417 C 0.49685 0.89289 0.17209 0.0
C418 C 0.50437 0.91036 0.12164 0.0
H419 H 0.46582 0.83377 0.22037 0.0
H420 H 0.51155 0.91633 0.2055 0.0
S421 S 0.46211 0.83985 0.99895 0.0
N422 N 0.44235 0.80101 0.04497 0.0
N423 N 0.49052 0.89133 0.0293 0.0
C424 C 0.48447 0.87856 0.0796 0.0
C425 C 0.4582 0.82947 0.0882 0.0
C426 C 0.12554 0.21463 0.71439 0.0
C427 C 0.12496 0.25655 0.68633 0.0
C428 C 0.10811 0.16766 0.6914 0.0
C429 C 0.08995 0.16105 0.63941 0.0
H430 H 0.14183 0.21815 0.75344 0.0
H431 H 0.111 0.13643 0.71379 0.0
S432 S 0.07421 0.25965 0.5521 0.0
N433 N 0.10022 0.28856 0.60592 0.0
N434 N 0.06736 0.20119 0.56283 0.0
C435 C 0.08661 0.20296 0.61218 0.0
C436 C 0.10415 0.25042 0.63558 0.0
C437 C 0.77505 0.37809 0.48069 0.0
C438 C 0.7564 0.32883 0.46674 0.0
C439 C 0.74187 0.41172 0.47825 0.0
C440 C 0.68889 0.39727 0.46173 0.0
H441 H 0.8149 0.39029 0.49562 0.0
H442 H 0.7573 0.44888 0.49171 0.0
S443 S 0.62395 0.27387 0.41277 0.0
N444 N 0.68411 0.26825 0.42953 0.0
N445 N 0.62128 0.33144 0.42546 0.0
C446 C 0.67096 0.3488 0.44407 0.0
C447 C 0.70493 0.31459 0.44632 0.0
loop_
_geom_bond_atom_site_label_1
_geom_bond_atom_site_label_2
_geom_bond_distance
_geom_bond_site_symmetry_2
_ccdc_geom_bond_type
H0 C7 0.929 . S
H1 C10 0.930 . S
H2 C12 0.929 . S
H3 C4 0.969 . S
C4 H3 0.969 . S
C4 O5 1.550 . S
C4 H6 0.973 . S
O5 C4 1.550 . S
O5 C11 1.412 . S
H6 C4 0.973 . S
C7 H0 0.929 . S
C7 C8 1.400 . S
C7 C9 1.364 . S
C8 C7 1.400 . S
C8 C12 1.377 . S
C9 C7 1.364 . S
C9 C10 1.374 . S
C10 H1 0.930 . S
C10 C9 1.374 . S
C10 C11 1.383 . S
C11 O5 1.412 . S
C11 C10 1.383 . S
C11 C12 1.394 . S
C12 H2 0.929 . S
C12 C8 1.377 . S
C12 C11 1.394 . S
H13 C20 0.929 . S
H14 C23 0.930 . S
H15 C25 0.929 . S
H16 C17 0.969 . S
C17 H16 0.969 . S
C17 O18 1.550 . S
C17 H19 0.973 . S
O18 C17 1.550 . S
O18 C24 1.412 . S
H19 C17 0.973 . S
C20 H13 0.929 . S
C20 C21 1.400 . S
C20 C22 1.364 . S
C21 C20 1.400 . S
C21 C25 1.377 . S
C22 C20 1.364 . S
C22 C23 1.374 . S
C23 H14 0.930 . S
C23 C22 1.374 . S
C23 C24 1.383 . S
C24 O18 1.412 . S
C24 C23 1.383 . S
C24 C25 1.394 . S
C25 H15 0.929 . S
C25 C21 1.377 . S
C25 C24 1.394 . S
H26 C33 0.929 . S
H27 C36 0.930 . S
H28 C38 0.929 . S
H29 C30 0.969 . S
C30 H29 0.969 . S
C30 O31 1.550 . S
C30 H32 0.973 . S
O31 C30 1.550 . S
O31 C37 1.412 . S
H32 C30 0.973 . S
C33 H26 0.929 . S
C33 C34 1.400 . S
C33 C35 1.364 . S
C34 C33 1.400 . S
C34 C38 1.377 . S
C35 C33 1.364 . S
C35 C36 1.374 . S
C36 H27 0.930 . S
C36 C35 1.374 . S
C36 C37 1.383 . S
C37 O31 1.412 . S
C37 C36 1.383 . S
C37 C38 1.394 . S
C38 H28 0.929 . S
C38 C34 1.377 . S
C38 C37 1.394 . S
H39 C46 0.929 . S
H40 C49 0.930 . S
H41 C51 0.929 . S
H42 C43 0.969 . S
C43 H42 0.969 . S
C43 O44 1.550 . S
C43 H45 0.973 . S
O44 C43 1.550 . S
O44 C50 1.412 . S
H45 C43 0.973 . S
C46 H39 0.929 . S
C46 C47 1.400 . S
C46 C48 1.364 . S
C47 C46 1.400 . S
C47 C51 1.377 . S
C48 C46 1.364 . S
C48 C49 1.374 . S
C49 H40 0.930 . S
C49 C48 1.374 . S
C49 C50 1.383 . S
C50 O44 1.412 . S
C50 C49 1.383 . S
C50 C51 1.394 . S
C51 H41 0.929 . S
C51 C47 1.377 . S
C51 C50 1.394 . S
H52 C59 0.929 . S
H53 C62 0.930 . S
H54 C64 0.929 . S
H55 C56 0.969 . S
C56 H55 0.969 . S
C56 O57 1.550 . S
C56 H58 0.973 . S
O57 C56 1.550 . S
O57 C63 1.412 . S
H58 C56 0.973 . S
C59 H52 0.929 . S
C59 C60 1.400 . S
C59 C61 1.364 . S
C60 C59 1.400 . S
C60 C64 1.377 . S
C61 C59 1.364 . S
C61 C62 1.374 . S
C62 H53 0.930 . S
C62 C61 1.374 . S
C62 C63 1.383 . S
C63 O57 1.412 . S
C63 C62 1.383 . S
C63 C64 1.394 . S
C64 H54 0.929 . S
C64 C60 1.377 . S
C64 C63 1.394 . S
H65 C72 0.929 . S
H66 C75 0.930 . S
H67 C77 0.929 . S
H68 C69 0.969 . S
C69 H68 0.969 . S
C69 O70 1.550 . S
C69 H71 0.973 . S
O70 C69 1.550 . S
O70 C76 1.412 . S
H71 C69 0.973 . S
C72 H65 0.929 . S
C72 C73 1.400 . S
C72 C74 1.364 . S
C73 C72 1.400 . S
C73 C77 1.377 . S
C74 C72 1.364 . S
C74 C75 1.374 . S
C75 H66 0.930 . S
C75 C74 1.374 . S
C75 C76 1.383 . S
C76 O70 1.412 . S
C76 C75 1.383 . S
C76 C77 1.394 . S
C77 H67 0.929 . S
C77 C73 1.377 . S
C77 C76 1.394 . S
H78 C85 0.929 . S
H79 C88 0.930 . S
H80 C90 0.929 . S
H81 C82 0.969 . S
C82 H81 0.969 . S
C82 O83 1.550 . S
C82 H84 0.973 . S
O83 C82 1.550 . S
O83 C89 1.412 . S
H84 C82 0.973 . S
C85 H78 0.929 . S
C85 C86 1.400 . S
C85 C87 1.364 . S
C86 C85 1.400 . S
C86 C90 1.377 . S
C87 C85 1.364 . S
C87 C88 1.374 . S
C88 H79 0.930 . S
C88 C87 1.374 . S
C88 C89 1.383 . S
C89 O83 1.412 . S
C89 C88 1.383 . S
C89 C90 1.394 . S
C90 H80 0.929 . S
C90 C86 1.377 . S
C90 C89 1.394 . S
H91 C98 0.929 . S
H92 C101 0.930 . S
H93 C103 0.929 . S
H94 C95 0.969 . S
C95 H94 0.969 . S
C95 O96 1.550 . S
C95 H97 0.973 . S
O96 C95 1.550 . S
O96 C102 1.412 . S
H97 C95 0.973 . S
C98 H91 0.929 . S
C98 C99 1.400 . S
C98 C100 1.364 . S
C99 C98 1.400 . S
C99 C103 1.377 . S
C100 C98 1.364 . S
C100 C101 1.374 . S
C101 H92 0.930 . S
C101 C100 1.374 . S
C101 C102 1.383 . S
C102 O96 1.412 . S
C102 C101 1.383 . S
C102 C103 1.394 . S
C103 H93 0.929 . S
C103 C99 1.377 . S
C103 C102 1.394 . S
Dy104 O108 2.398 . S
Dy104 O109 2.491 . S
Dy104 O110 2.403 . S
Dy104 O111 2.664 1_545 S
Dy104 O115 2.326 . S
Dy104 O119 2.310 1_455 S
Dy104 O120 2.351 1_545 S
C105 O116 1.185 . S
C105 O117 1.355 . S
C106 O108 1.185 . S
C106 O109 1.355 . S
Dy107 O111 2.310 1_645 S
Dy107 O114 2.351 1_655 S
Dy107 O116 2.398 1_545 S
Dy107 O117 2.491 1_545 S
Dy107 O118 2.403 . S
Dy107 O119 2.664 . S
Dy107 O121 2.326 1_545 S
O108 Dy104 2.398 . S
O108 C106 1.185 . S
O109 Dy104 2.491 . S
O109 C106 1.355 . S
O110 Dy104 2.403 . S
O110 C112 1.254 1_545 S
O111 Dy104 2.664 1_565 S
O111 Dy107 2.310 1_465 S
O111 C112 1.268 . S
C112 O110 1.254 1_565 S
C112 O111 1.268 . S
C113 O118 1.254 . S
C113 O119 1.268 . S
O114 Dy107 2.351 1_455 S
O114 C122 1.249 . S
O115 Dy104 2.326 . S
O115 C122 1.267 . S
O116 C105 1.185 . S
O116 Dy107 2.398 1_565 S
O117 C105 1.355 . S
O117 Dy107 2.491 1_565 S
O118 Dy107 2.403 . S
O118 C113 1.254 . S
O119 Dy104 2.310 1_655 S
O119 Dy107 2.664 . S
O119 C113 1.268 . S
O120 Dy104 2.351 1_565 S
O120 C123 1.249 1_455 S
O121 Dy107 2.326 1_565 S
O121 C123 1.267 . S
C122 O114 1.249 . S
C122 O115 1.267 . S
C123 O120 1.249 1_655 S
C123 O121 1.267 . S
Dy124 O128 2.398 . S
Dy124 O129 2.491 . S
Dy124 O130 2.403 1_545 S
Dy124 O131 2.664 1_545 S
Dy124 O135 2.326 . S
Dy124 O139 2.310 . S
Dy124 O140 2.351 1_545 S
C125 O136 1.185 . S
C125 O137 1.355 . S
C126 O128 1.185 . S
C126 O129 1.355 . S
Dy127 O131 2.310 1_546 S
Dy127 O134 2.351 1_556 S
Dy127 O136 2.398 1_545 S
Dy127 O137 2.491 1_545 S
Dy127 O138 2.403 . S
Dy127 O139 2.664 1_556 S
Dy127 O141 2.326 1_545 S
O128 Dy124 2.398 . S
O128 C126 1.185 . S
O129 Dy124 2.491 . S
O129 C126 1.355 . S
O130 Dy124 2.403 1_565 S
O130 C132 1.254 . S
O131 Dy124 2.664 1_565 S
O131 Dy127 2.310 1_564 S
O131 C132 1.268 . S
C132 O130 1.254 . S
C132 O131 1.268 . S
C133 O138 1.254 . S
C133 O139 1.268 1_556 S
O134 Dy127 2.351 1_554 S
O134 C142 1.249 . S
O135 Dy124 2.326 . S
O135 C142 1.267 . S
O136 C125 1.185 . S
O136 Dy127 2.398 1_565 S
O137 C125 1.355 . S
O137 Dy127 2.491 1_565 S
O138 Dy127 2.403 . S
O138 C133 1.254 . S
O139 Dy124 2.310 . S
O139 Dy127 2.664 1_554 S
O139 C133 1.268 1_554 S
O140 Dy124 2.351 1_565 S
O140 C143 1.249 1_554 S
O141 Dy127 2.326 1_565 S
O141 C143 1.267 . S
C142 O134 1.249 . S
C142 O135 1.267 . S
C143 O140 1.249 1_556 S
C143 O141 1.267 . S
Dy144 O148 2.398 . S
Dy144 O149 2.491 . S
Dy144 O150 2.403 . S
Dy144 O151 2.664 . S
Dy144 O155 2.326 . S
Dy144 O159 2.310 . S
Dy144 O160 2.351 . S
C145 O156 1.185 . S
C145 O157 1.355 . S
C146 O148 1.185 . S
C146 O149 1.355 . S
Dy147 O151 2.310 . S
Dy147 O154 2.351 . S
Dy147 O156 2.398 . S
Dy147 O157 2.491 . S
Dy147 O158 2.403 . S
Dy147 O159 2.664 . S
Dy147 O161 2.326 . S
O148 Dy144 2.398 . S
O148 C146 1.185 . S
O149 Dy144 2.491 . S
O149 C146 1.355 . S
O150 Dy144 2.403 . S
O150 C152 1.254 . S
O151 Dy144 2.664 . S
O151 Dy147 2.310 . S
O151 C152 1.268 . S
C152 O150 1.254 . S
C152 O151 1.268 . S
C153 O158 1.254 . S
C153 O159 1.268 . S
O154 Dy147 2.351 . S
O154 C162 1.249 . S
O155 Dy144 2.326 . S
O155 C162 1.267 . S
O156 C145 1.185 . S
O156 Dy147 2.398 . S
O157 C145 1.355 . S
O157 Dy147 2.491 . S
O158 Dy147 2.403 . S
O158 C153 1.254 . S
O159 Dy144 2.310 . S
O159 Dy147 2.664 . S
O159 C153 1.268 . S
O160 Dy144 2.351 . S
O160 C163 1.249 . S
O161 Dy147 2.326 . S
O161 C163 1.267 . S
C162 O154 1.249 . S
C162 O155 1.267 . S
C163 O160 1.249 . S
C163 O161 1.267 . S
Dy164 O168 2.398 . S
Dy164 O169 2.491 . S
Dy164 O170 2.403 . S
Dy164 O171 2.664 . S
Dy164 O175 2.326 . S
Dy164 O179 2.310 . S
Dy164 O180 2.351 1_455 S
C165 O176 1.185 . S
C165 O177 1.355 1_556 S
C166 O168 1.185 . S
C166 O169 1.355 . S
Dy167 O171 2.310 . S
Dy167 O174 2.351 . S
Dy167 O176 2.398 1_454 S
Dy167 O177 2.491 1_455 S
Dy167 O178 2.403 1_554 S
Dy167 O179 2.664 . S
Dy167 O181 2.326 1_454 S
O168 Dy164 2.398 . S
O168 C166 1.185 . S
O169 Dy164 2.491 . S
O169 C166 1.355 . S
O170 Dy164 2.403 . S
O170 C172 1.254 1_455 S
O171 Dy164 2.664 . S
O171 Dy167 2.310 . S
O171 C172 1.268 1_455 S
C172 O170 1.254 1_655 S
C172 O171 1.268 1_655 S
C173 O178 1.254 . S
C173 O179 1.268 1_556 S
O174 Dy167 2.351 . S
O174 C182 1.249 . S
O175 Dy164 2.326 . S
O175 C182 1.267 . S
O176 C165 1.185 . S
O176 Dy167 2.398 1_656 S
O177 C165 1.355 1_554 S
O177 Dy167 2.491 1_655 S
O178 Dy167 2.403 1_556 S
O178 C173 1.254 . S
O179 Dy164 2.310 . S
O179 Dy167 2.664 . S
O179 C173 1.268 1_554 S
O180 Dy164 2.351 1_655 S
O180 C183 1.249 . S
O181 Dy167 2.326 1_656 S
O181 C183 1.267 1_556 S
C182 O174 1.249 . S
C182 O175 1.267 . S
C183 O180 1.249 . S
C183 O181 1.267 1_554 S
C184 C185 1.369 . S
C184 C186 1.419 . S
C184 H188 0.930 . S
C185 C184 1.369 . S
C185 C194 1.429 . S
C186 C184 1.419 . S
C186 C187 1.363 . S
C186 H189 0.929 . S
C187 C186 1.363 . S
C187 C193 1.428 . S
H188 C184 0.930 . S
H189 C186 0.929 . S
S190 N191 1.613 . S
S190 N192 1.610 . S
N191 S190 1.613 . S
N191 C194 1.350 . S
N192 S190 1.610 . S
N192 C193 1.351 . S
C193 C187 1.428 . S
C193 N192 1.351 . S
C193 C194 1.434 . S
C194 C185 1.429 . S
C194 N191 1.350 . S
C194 C193 1.434 . S
C195 C196 1.369 . S
C195 C197 1.419 . S
C195 H199 0.930 . S
C196 C195 1.369 . S
C196 C205 1.429 . S
C197 C195 1.419 . S
C197 C198 1.363 . S
C197 H200 0.929 . S
C198 C197 1.363 . S
C198 C204 1.428 . S
H199 C195 0.930 . S
H200 C197 0.929 . S
S201 N202 1.613 . S
S201 N203 1.610 . S
N202 S201 1.613 . S
N202 C205 1.350 . S
N203 S201 1.610 . S
N203 C204 1.351 . S
C204 C198 1.428 . S
C204 N203 1.351 . S
C204 C205 1.434 . S
C205 C196 1.429 . S
C205 N202 1.350 . S
C205 C204 1.434 . S
C206 C207 1.369 . S
C206 C208 1.419 . S
C206 H210 0.930 . S
C207 C206 1.369 . S
C207 C216 1.429 . S
C208 C206 1.419 . S
C208 C209 1.363 . S
C208 H211 0.929 . S
C209 C208 1.363 . S
C209 C215 1.428 . S
H210 C206 0.930 . S
H211 C208 0.929 . S
S212 N213 1.613 . S
S212 N214 1.610 . S
N213 S212 1.613 . S
N213 C216 1.350 . S
N214 S212 1.610 . S
N214 C215 1.351 . S
C215 C209 1.428 . S
C215 N214 1.351 . S
C215 C216 1.434 . S
C216 C207 1.429 . S
C216 N213 1.350 . S
C216 C215 1.434 . S
C217 C218 1.369 . S
C217 C219 1.419 . S
C217 H221 0.930 . S
C218 C217 1.369 . S
C218 C227 1.429 . S
C219 C217 1.419 . S
C219 C220 1.363 . S
C219 H222 0.929 . S
C220 C219 1.363 . S
C220 C226 1.428 . S
H221 C217 0.930 . S
H222 C219 0.929 . S
S223 N224 1.613 . S
S223 N225 1.610 . S
N224 S223 1.613 . S
N224 C227 1.350 . S
N225 S223 1.610 . S
N225 C226 1.351 . S
C226 C220 1.428 . S
C226 N225 1.351 . S
C226 C227 1.434 . S
C227 C218 1.429 . S
C227 N224 1.350 . S
C227 C226 1.434 . S
C228 C229 1.369 . S
C228 C230 1.419 . S
C228 H232 0.930 . S
C229 C228 1.369 . S
C229 C238 1.429 . S
C230 C228 1.419 . S
C230 C231 1.363 . S
C230 H233 0.929 . S
C231 C230 1.363 . S
C231 C237 1.428 . S
H232 C228 0.930 . S
H233 C230 0.929 . S
S234 N235 1.613 . S
S234 N236 1.610 . S
N235 S234 1.613 . S
N235 C238 1.350 . S
N236 S234 1.610 . S
N236 C237 1.351 . S
C237 C231 1.428 . S
C237 N236 1.351 . S
C237 C238 1.434 . S
C238 C229 1.429 . S
C238 N235 1.350 . S
C238 C237 1.434 . S
C239 C240 1.369 . S
C239 C241 1.419 . S
C239 H243 0.930 . S
C240 C239 1.369 . S
C240 C249 1.429 . S
C241 C239 1.419 . S
C241 C242 1.363 . S
C241 H244 0.929 . S
C242 C241 1.363 . S
C242 C248 1.428 . S
H243 C239 0.930 . S
H244 C241 0.929 . S
S245 N246 1.613 . S
S245 N247 1.610 . S
N246 S245 1.613 . S
N246 C249 1.350 1_545 S
N247 S245 1.610 . S
N247 C248 1.351 1_545 S
C248 C242 1.428 . S
C248 N247 1.351 1_565 S
C248 C249 1.434 . S
C249 C240 1.429 . S
C249 N246 1.350 1_565 S
C249 C248 1.434 . S
C250 C251 1.369 . S
C250 C252 1.419 1_556 S
C250 H254 0.930 . S
C251 C250 1.369 . S
C251 C260 1.429 . S
C252 C250 1.419 1_554 S
C252 C253 1.363 1_554 S
C252 H255 0.929 . S
C253 C252 1.363 1_556 S
C253 C259 1.428 . S
H254 C250 0.930 . S
H255 C252 0.929 . S
S256 N257 1.613 . S
S256 N258 1.610 . S
N257 S256 1.613 . S
N257 C260 1.350 . S
N258 S256 1.610 . S
N258 C259 1.351 . S
C259 C253 1.428 . S
C259 N258 1.351 . S
C259 C260 1.434 . S
C260 C251 1.429 . S
C260 N257 1.350 . S
C260 C259 1.434 . S
C261 C262 1.369 . S
C261 C263 1.419 . S
C261 H265 0.930 . S
C262 C261 1.369 . S
C262 C271 1.429 . S
C263 C261 1.419 . S
C263 C264 1.363 . S
C263 H266 0.929 . S
C264 C263 1.363 . S
C264 C270 1.428 . S
H265 C261 0.930 . S
H266 C263 0.929 . S
S267 N268 1.613 . S
S267 N269 1.610 . S
N268 S267 1.613 . S
N268 C271 1.350 . S
N269 S267 1.610 . S
N269 C270 1.351 . S
C270 C264 1.428 . S
C270 N269 1.351 . S
C270 C271 1.434 . S
C271 C262 1.429 . S
C271 N268 1.350 . S
C271 C270 1.434 . S
C272 C273 1.369 . S
C272 C274 1.419 . S
C272 H276 0.930 . S
C273 C272 1.369 . S
C273 C282 1.429 . S
C274 C272 1.419 . S
C274 C275 1.363 . S
C274 H277 0.929 . S
C275 C274 1.363 . S
C275 C281 1.428 . S
H276 C272 0.930 . S
H277 C274 0.929 . S
S278 N279 1.613 . S
S278 N280 1.610 . S
N279 S278 1.613 . S
N279 C282 1.350 . S
N280 S278 1.610 . S
N280 C281 1.351 . S
C281 C275 1.428 . S
C281 N280 1.351 . S
C281 C282 1.434 . S
C282 C273 1.429 . S
C282 N279 1.350 . S
C282 C281 1.434 . S
C283 C284 1.369 . S
C283 C285 1.419 . S
C283 H287 0.930 . S
C284 C283 1.369 . S
C284 C293 1.429 . S
C285 C283 1.419 . S
C285 C286 1.363 . S
C285 H288 0.926 1_556 S
C286 C285 1.363 . S
C286 C292 1.428 . S
H287 C283 0.930 . S
H288 C285 0.926 1_554 S
S289 N290 1.613 . S
S289 N291 1.610 . S
N290 S289 1.613 . S
N290 C293 1.350 . S
N291 S289 1.610 . S
N291 C292 1.351 . S
C292 C286 1.428 . S
C292 N291 1.351 . S
C292 C293 1.434 . S
C293 C284 1.429 . S
C293 N290 1.350 . S
C293 C292 1.434 . S
C294 C295 1.369 . S
C294 C296 1.419 . S
C294 H298 0.930 1_655 S
C295 C294 1.369 . S
C295 C304 1.429 . S
C296 C294 1.419 . S
C296 C297 1.363 . S
C296 H299 0.929 1_655 S
C297 C296 1.363 . S
C297 C303 1.428 . S
H298 C294 0.930 1_455 S
H299 C296 0.929 1_455 S
S300 N301 1.613 . S
S300 N302 1.610 . S
N301 S300 1.613 . S
N301 C304 1.350 . S
N302 S300 1.610 . S
N302 C303 1.351 . S
C303 C297 1.428 . S
C303 N302 1.351 . S
C303 C304 1.434 . S
C304 C295 1.429 . S
C304 N301 1.350 . S
C304 C303 1.434 . S
C305 C306 1.369 . S
C305 C307 1.419 . S
C305 H309 0.930 . S
C306 C305 1.369 . S
C306 C315 1.429 . S
C307 C305 1.419 . S
C307 C308 1.363 . S
C307 H310 0.929 . S
C308 C307 1.363 . S
C308 C314 1.428 . S
H309 C305 0.930 . S
H310 C307 0.929 . S
S311 N312 1.613 . S
S311 N313 1.610 . S
N312 S311 1.613 . S
N312 C315 1.350 . S
N313 S311 1.610 . S
N313 C314 1.351 . S
C314 C308 1.428 . S
C314 N313 1.351 . S
C314 C315 1.434 . S
C315 C306 1.429 . S
C315 N312 1.350 . S
C315 C314 1.434 . S
C316 C317 1.369 . S
C316 C318 1.419 . S
C316 H320 0.930 . S
C317 C316 1.369 . S
C317 C326 1.429 . S
C318 C316 1.419 . S
C318 C319 1.363 . S
C318 H321 0.929 . S
C319 C318 1.363 . S
C319 C325 1.428 . S
H320 C316 0.930 . S
H321 C318 0.929 . S
S322 N323 1.613 . S
S322 N324 1.610 . S
N323 S322 1.613 . S
N323 C326 1.350 . S
N324 S322 1.610 . S
N324 C325 1.351 . S
C325 C319 1.428 . S
C325 N324 1.351 . S
C325 C326 1.434 . S
C326 C317 1.429 . S
C326 N323 1.350 . S
C326 C325 1.434 . S
C327 C328 1.369 . S
C327 C329 1.419 . S
C327 H331 0.930 . S
C328 C327 1.369 . S
C328 C337 1.429 . S
C329 C327 1.419 . S
C329 C330 1.363 . S
C329 H332 0.929 . S
C330 C329 1.363 . S
C330 C336 1.428 . S
H331 C327 0.930 . S
H332 C329 0.929 . S
S333 N334 1.613 . S
S333 N335 1.610 . S
N334 S333 1.613 . S
N334 C337 1.350 . S
N335 S333 1.610 . S
N335 C336 1.351 . S
C336 C330 1.428 . S
C336 N335 1.351 . S
C336 C337 1.434 . S
C337 C328 1.429 . S
C337 N334 1.350 . S
C337 C336 1.434 . S
C338 C339 1.369 . S
C338 C340 1.419 . S
C338 H342 0.930 . S
C339 C338 1.369 . S
C339 C348 1.429 . S
C340 C338 1.419 . S
C340 C341 1.363 . S
C340 H343 0.929 . S
C341 C340 1.363 . S
C341 C347 1.428 . S
H342 C338 0.930 . S
H343 C340 0.929 . S
S344 N345 1.613 . S
S344 N346 1.610 . S
N345 S344 1.613 . S
N345 C348 1.350 . S
N346 S344 1.610 . S
N346 C347 1.351 . S
C347 C341 1.428 . S
C347 N346 1.351 . S
C347 C348 1.434 . S
C348 C339 1.429 . S
C348 N345 1.350 . S
C348 C347 1.434 . S
C349 C350 1.369 . S
C349 C351 1.419 . S
C349 H353 0.930 . S
C350 C349 1.369 . S
C350 C359 1.429 . S
C351 C349 1.419 . S
C351 C352 1.363 . S
C351 H354 0.929 . S
C352 C351 1.363 . S
C352 C358 1.428 . S
H353 C349 0.930 . S
H354 C351 0.929 . S
S355 N356 1.613 . S
S355 N357 1.610 . S
N356 S355 1.613 . S
N356 C359 1.350 . S
N357 S355 1.610 . S
N357 C358 1.351 . S
C358 C352 1.428 . S
C358 N357 1.351 . S
C358 C359 1.434 . S
C359 C350 1.429 . S
C359 N356 1.350 . S
C359 C358 1.434 . S
C360 C361 1.369 . S
C360 C362 1.419 . S
C360 H364 0.930 . S
C361 C360 1.369 . S
C361 C370 1.429 . S
C362 C360 1.419 . S
C362 C363 1.363 . S
C362 H365 0.929 . S
C363 C362 1.363 . S
C363 C369 1.428 . S
H364 C360 0.930 . S
H365 C362 0.929 . S
S366 N367 1.613 . S
S366 N368 1.610 . S
N367 S366 1.613 . S
N367 C370 1.350 . S
N368 S366 1.610 . S
N368 C369 1.351 . S
C369 C363 1.428 . S
C369 N368 1.351 . S
C369 C370 1.434 . S
C370 C361 1.429 . S
C370 N367 1.350 . S
C370 C369 1.434 . S
C371 C372 1.369 . S
C371 C373 1.419 . S
C371 H375 0.930 . S
C372 C371 1.369 . S
C372 C381 1.429 . S
C373 C371 1.419 . S
C373 C374 1.363 . S
C373 H376 0.929 . S
C374 C373 1.363 . S
C374 C380 1.428 . S
H375 C371 0.930 . S
H376 C373 0.929 . S
S377 N378 1.613 . S
S377 N379 1.610 . S
N378 S377 1.613 . S
N378 C381 1.350 . S
N379 S377 1.610 . S
N379 C380 1.351 . S
C380 C374 1.428 . S
C380 N379 1.351 . S
C380 C381 1.434 . S
C381 C372 1.429 . S
C381 N378 1.350 . S
C381 C380 1.434 . S
C382 C383 1.369 . S
C382 C384 1.419 . S
C382 H386 0.930 . S
C383 C382 1.369 . S
C383 C392 1.429 . S
C384 C382 1.419 . S
C384 C385 1.363 . S
C384 H387 0.929 . S
C385 C384 1.363 . S
C385 C391 1.428 . S
H386 C382 0.930 . S
H387 C384 0.929 . S
S388 N389 1.613 . S
S388 N390 1.610 . S
N389 S388 1.613 . S
N389 C392 1.350 . S
N390 S388 1.610 . S
N390 C391 1.351 . S
C391 C385 1.428 . S
C391 N390 1.351 . S
C391 C392 1.434 . S
C392 C383 1.429 . S
C392 N389 1.350 . S
C392 C391 1.434 . S
C393 C394 1.369 . S
C393 C395 1.419 . S
C393 H397 0.930 . S
C394 C393 1.369 . S
C394 C403 1.429 . S
C395 C393 1.419 . S
C395 C396 1.363 . S
C395 H398 0.929 . S
C396 C395 1.363 . S
C396 C402 1.428 . S
H397 C393 0.930 . S
H398 C395 0.929 . S
S399 N400 1.613 . S
S399 N401 1.610 . S
N400 S399 1.613 . S
N400 C403 1.350 . S
N401 S399 1.610 . S
N401 C402 1.351 . S
C402 C396 1.428 . S
C402 N401 1.351 . S
C402 C403 1.434 . S
C403 C394 1.429 . S
C403 N400 1.350 . S
C403 C402 1.434 . S
C404 C405 1.369 . S
C404 C406 1.419 . S
C404 H408 0.930 . S
C405 C404 1.369 . S
C405 C414 1.429 . S
C406 C404 1.419 . S
C406 C407 1.363 . S
C406 H409 0.929 . S
C407 C406 1.363 . S
C407 C413 1.428 . S
H408 C404 0.930 . S
H409 C406 0.929 . S
S410 N411 1.613 . S
S410 N412 1.610 . S
N411 S410 1.613 . S
N411 C414 1.350 . S
N412 S410 1.610 . S
N412 C413 1.351 . S
C413 C407 1.428 . S
C413 N412 1.351 . S
C413 C414 1.434 . S
C414 C405 1.429 . S
C414 N411 1.350 . S
C414 C413 1.434 . S
C415 C416 1.369 . S
C415 C417 1.419 . S
C415 H419 0.930 . S
C416 C415 1.369 . S
C416 C425 1.429 . S
C417 C415 1.419 . S
C417 C418 1.363 . S
C417 H420 0.929 . S
C418 C417 1.363 . S
C418 C424 1.428 . S
H419 C415 0.930 . S
H420 C417 0.929 . S
S421 N422 1.613 . S
S421 N423 1.610 . S
N422 S421 1.613 . S
N422 C425 1.350 . S
N423 S421 1.610 . S
N423 C424 1.351 . S
C424 C418 1.428 . S
C424 N423 1.351 . S
C424 C425 1.434 . S
C425 C416 1.429 . S
C425 N422 1.350 . S
C425 C424 1.434 . S
C426 C427 1.369 . S
C426 C428 1.419 . S
C426 H430 0.930 . S
C427 C426 1.369 . S
C427 C436 1.429 . S
C428 C426 1.419 . S
C428 C429 1.363 . S
C428 H431 0.929 . S
C429 C428 1.363 . S
C429 C435 1.428 . S
H430 C426 0.930 . S
H431 C428 0.929 . S
S432 N433 1.613 1_655 S
S432 N434 1.597 1_655 S
N433 S432 1.613 1_455 S
N433 C436 1.350 . S
N434 S432 1.597 1_455 S
N434 C435 1.372 . S
C435 C429 1.428 . S
C435 N434 1.372 . S
C435 C436 1.434 . S
C436 C427 1.429 . S
C436 N433 1.350 . S
C436 C435 1.434 . S
C437 C438 1.369 . S
C437 C439 1.419 . S
C437 H441 0.930 . S
C438 C437 1.369 . S
C438 C447 1.429 . S
C439 C437 1.419 . S
C439 C440 1.363 . S
C439 H442 0.929 . S
C440 C439 1.363 . S
C440 C446 1.428 . S
H441 C437 0.930 . S
H442 C439 0.929 . S
S443 N444 1.613 . S
S443 N445 1.610 . S
N444 S443 1.613 . S
N444 C447 1.350 . S
N445 S443 1.610 . S
N445 C446 1.351 . S
C446 C440 1.428 . S
C446 N445 1.351 . S
C446 C447 1.434 . S
C447 C438 1.429 . S
C447 N444 1.350 . S
C447 C446 1.434 . S
C185 C9 1.638 . S
C187 C106 1.641 . S
C196 C21 1.459 . S
C198 C125 1.400 . S
C209 C162 1.575 . S
C207 C30 1.606 . S
C218 C43 1.536 . S
C220 C172 1.609 . S
C231 C142 1.714 . S
C229 C4 1.530 . S
C242 C112 1.791 . S
C240 C22 1.868 . S
C253 C183 1.311 1_556 S
C251 C34 1.348 . S
C264 C153 1.390 . S
C262 C48 1.407 . S
C273 C8 1.607 . S
C275 C166 1.640 . S
C286 C133 1.711 . S
C284 C35 1.774 . S
C295 C47 1.865 . S
C297 C123 1.872 . S
C306 C17 1.301 . S
C308 C145 1.308 . S
C319 C105 1.407 . S
C317 C60 1.394 . S
C328 C74 1.505 . S
C330 C126 1.467 . S
C339 C82 1.402 . S
C341 C163 1.424 . S
C350 C100 1.992 . S
C352 C173 1.933 . S
C361 C61 2.002 . S
C363 C143 2.074 . S
C374 C113 1.422 . S
C372 C73 1.460 . S
C385 C182 1.724 . S
C383 C87 1.776 . S
C396 C152 1.232 . S
C394 C95 1.214 . S
C405 C56 1.617 . S
C407 C165 1.615 . S
C418 C132 1.821 . S
C416 C86 1.854 . S
C429 C122 1.759 . S
C427 C99 1.755 . S
C438 C69 1.137 . S
C440 C146 1.187 . S
