# Generated by pormake.
# Topology pyr, (3,6)-cn, num edge types: 1
# Building blocks:
#     Node 0, Type 0, BuildingBlock: MIDCAF_clean_linker_0, # of connection points: 3
#     Node 1, Type 0, BuildingBlock: MIDCAF_clean_linker_0, # of connection points: 3
#     Node 2, Type 0, BuildingBlock: MIDCAF_clean_linker_0, # of connection points: 3
#     Node 3, Type 0, BuildingBlock: MIDCAF_clean_linker_0, # of connection points: 3
#     Node 4, Type 0, BuildingBlock: MIDCAF_clean_linker_0, # of connection points: 3
#     Node 5, Type 0, BuildingBlock: MIDCAF_clean_linker_0, # of connection points: 3
#     Node 6, Type 0, BuildingBlock: MIDCAF_clean_linker_0, # of connection points: 3
#     Node 7, Type 0, BuildingBlock: MIDCAF_clean_linker_0, # of connection points: 3
#     Node 8, Type 1, BuildingBlock: PAMTOO_clean_sbu_0, # of connection points: 6
#     Node 9, Type 1, BuildingBlock: PAMTOO_clean_sbu_0, # of connection points: 6
#     Node 10, Type 1, BuildingBlock: PAMTOO_clean_sbu_0, # of connection points: 6
#     Node 11, Type 1, BuildingBlock: PAMTOO_clean_sbu_0, # of connection points: 6
#     Edge 12, Type (0, 1), BuildingBlock: MIFKUJ_clean_linker_0, # of connection points: 2
#     Edge 13, Type (0, 1), BuildingBlock: MIFKUJ_clean_linker_0, # of connection points: 2
#     Edge 14, Type (0, 1), BuildingBlock: MIFKUJ_clean_linker_0, # of connection points: 2
#     Edge 15, Type (0, 1), BuildingBlock: MIFKUJ_clean_linker_0, # of connection points: 2
#     Edge 16, Type (0, 1), BuildingBlock: MIFKUJ_clean_linker_0, # of connection points: 2
#     Edge 17, Type (0, 1), BuildingBlock: MIFKUJ_clean_linker_0, # of connection points: 2
#     Edge 18, Type (0, 1), BuildingBlock: MIFKUJ_clean_linker_0, # of connection points: 2
#     Edge 19, Type (0, 1), BuildingBlock: MIFKUJ_clean_linker_0, # of connection points: 2
#     Edge 20, Type (0, 1), BuildingBlock: MIFKUJ_clean_linker_0, # of connection points: 2
#     Edge 21, Type (0, 1), BuildingBlock: MIFKUJ_clean_linker_0, # of connection points: 2
#     Edge 22, Type (0, 1), BuildingBlock: MIFKUJ_clean_linker_0, # of connection points: 2
#     Edge 23, Type (0, 1), BuildingBlock: MIFKUJ_clean_linker_0, # of connection points: 2
#     Edge 24, Type (0, 1), BuildingBlock: MIFKUJ_clean_linker_0, # of connection points: 2
#     Edge 25, Type (0, 1), BuildingBlock: MIFKUJ_clean_linker_0, # of connection points: 2
#     Edge 26, Type (0, 1), BuildingBlock: MIFKUJ_clean_linker_0, # of connection points: 2
#     Edge 27, Type (0, 1), BuildingBlock: MIFKUJ_clean_linker_0, # of connection points: 2
#     Edge 28, Type (0, 1), BuildingBlock: MIFKUJ_clean_linker_0, # of connection points: 2
#     Edge 29, Type (0, 1), BuildingBlock: MIFKUJ_clean_linker_0, # of connection points: 2
#     Edge 30, Type (0, 1), BuildingBlock: MIFKUJ_clean_linker_0, # of connection points: 2
#     Edge 31, Type (0, 1), BuildingBlock: MIFKUJ_clean_linker_0, # of connection points: 2
#     Edge 32, Type (0, 1), BuildingBlock: MIFKUJ_clean_linker_0, # of connection points: 2
#     Edge 33, Type (0, 1), BuildingBlock: MIFKUJ_clean_linker_0, # of connection points: 2
#     Edge 34, Type (0, 1), BuildingBlock: MIFKUJ_clean_linker_0, # of connection points: 2
#     Edge 35, Type (0, 1), BuildingBlock: MIFKUJ_clean_linker_0, # of connection points: 2
# Relax obj value: 0.071
# Max RMSD: 0.146
# Mean RMSD: 0.064
data_MOF--net-pyr--node1-PAMTOO_clean_sbu_0--node2-MIDCAF_clean_linker_0--edge1-MIFKUJ_clean_linker_0
_symmetry_space_group_name_H-M    P1
_symmetry_Int_Tables_number       1
_symmetry_cell_setting            triclinic
loop_
_symmetry_equiv_pos_as_xyz
'x, y, z'
_cell_length_a     55.737928
_cell_length_b     58.564388
_cell_length_c     59.158364
_cell_angle_alpha  90.046748
_cell_angle_beta   90.070272
_cell_angle_gamma 101.03091
loop_
_atom_site_label
_atom_site_type_symbol
_atom_site_fract_x
_atom_site_fract_y
_atom_site_fract_z
_atom_type_partial_charge
C0 C 0.27304 0.24262 0.28274 0.0
C1 C 0.27722 0.22107 0.2905 0.0
C2 C 0.29514 0.21095 0.27985 0.0
C3 C 0.30781 0.22161 0.26112 0.0
H4 H 0.36334 0.21732 0.21711 0.0
H5 H 0.38942 0.1951 0.19742 0.0
H6 H 0.38212 0.23311 0.13606 0.0
H7 H 0.35549 0.25519 0.15564 0.0
H8 H 0.31593 0.28882 0.15416 0.0
H9 H 0.29257 0.31379 0.13406 0.0
H10 H 0.25727 0.32641 0.19658 0.0
H11 H 0.28077 0.30214 0.21663 0.0
H12 H 0.28125 0.26941 0.25786 0.0
H13 H 0.25924 0.25076 0.29055 0.0
H14 H 0.29894 0.19448 0.28568 0.0
H15 H 0.32092 0.21292 0.25289 0.0
N16 N 0.33082 0.24253 0.22039 0.0
N17 N 0.32947 0.26645 0.18878 0.0
N18 N 0.30418 0.26889 0.21998 0.0
C19 C 0.33911 0.24969 0.19948 0.0
C20 C 0.31208 0.27625 0.19904 0.0
C21 C 0.31341 0.25207 0.23079 0.0
C22 C 0.35704 0.23793 0.18794 0.0
C23 C 0.36739 0.22116 0.19947 0.0
C24 C 0.38256 0.2085 0.18822 0.0
C25 C 0.38779 0.21227 0.16515 0.0
C26 C 0.37818 0.2296 0.15378 0.0
C27 C 0.36301 0.24234 0.16505 0.0
C28 C 0.30013 0.29328 0.18701 0.0
C29 C 0.30347 0.29723 0.16367 0.0
C30 C 0.28997 0.31141 0.15211 0.0
C31 C 0.27299 0.32204 0.16369 0.0
C32 C 0.2704 0.31878 0.18715 0.0
C33 C 0.28379 0.30463 0.19865 0.0
C34 C 0.30266 0.24254 0.25251 0.0
C35 C 0.28558 0.25322 0.2639 0.0
C36 C 0.15802 0.8263 0.68825 0.0
C37 C 0.14759 0.81964 0.66709 0.0
C38 C 0.15038 0.79823 0.65777 0.0
C39 C 0.16398 0.78404 0.66918 0.0
H40 H 0.20878 0.73455 0.65657 0.0
H41 H 0.23299 0.71113 0.63523 0.0
H42 H 0.27263 0.70094 0.69591 0.0
H43 H 0.24869 0.72395 0.71726 0.0
H44 H 0.24436 0.75042 0.76004 0.0
H45 H 0.26259 0.76412 0.79612 0.0
H46 H 0.21868 0.81736 0.79801 0.0
H47 H 0.20013 0.80359 0.76196 0.0
H48 H 0.17928 0.81792 0.71595 0.0
H49 H 0.15593 0.84262 0.69591 0.0
H50 H 0.14256 0.79275 0.64142 0.0
H51 H 0.16619 0.76782 0.66141 0.0
N52 N 0.19935 0.75994 0.69073 0.0
N53 N 0.22107 0.75297 0.72315 0.0
N54 N 0.19677 0.78135 0.72394 0.0
C55 C 0.21482 0.74799 0.70125 0.0
C56 C 0.21211 0.76951 0.73467 0.0
C57 C 0.19016 0.77661 0.70205 0.0
C58 C 0.22696 0.73146 0.6886 0.0
C59 C 0.22241 0.72704 0.66544 0.0
C60 C 0.23618 0.71359 0.65321 0.0
C61 C 0.25484 0.70454 0.66391 0.0
C62 C 0.25857 0.70802 0.6872 0.0
C63 C 0.24475 0.7212 0.69942 0.0
C64 C 0.22096 0.77608 0.75787 0.0
C65 C 0.23831 0.76488 0.7682 0.0
C66 C 0.24886 0.77276 0.78887 0.0
C67 C 0.24226 0.79195 0.79977 0.0
C68 C 0.22403 0.80243 0.79008 0.0
C69 C 0.2135 0.79459 0.76933 0.0
C70 C 0.17471 0.79087 0.69027 0.0
C71 C 0.17128 0.81203 0.69978 0.0
C72 C 0.62483 0.28623 0.88917 0.0
C73 C 0.61185 0.26797 0.87596 0.0
C74 C 0.60845 0.27228 0.8528 0.0
C75 C 0.61849 0.29396 0.8431 0.0
H76 H 0.60891 0.34685 0.79253 0.0
H77 H 0.59432 0.36427 0.75901 0.0
H78 H 0.65718 0.42023 0.76186 0.0
H79 H 0.67146 0.40318 0.79556 0.0
H80 H 0.71221 0.40474 0.8352 0.0
H81 H 0.7495 0.42306 0.8551 0.0
H82 H 0.73187 0.37357 0.90948 0.0
H83 H 0.69527 0.35511 0.88963 0.0
H84 H 0.64525 0.321 0.8903 0.0
H85 H 0.62725 0.28405 0.90715 0.0
H86 H 0.59869 0.2587 0.84197 0.0
H87 H 0.61611 0.29649 0.82516 0.0
N88 N 0.63772 0.3428 0.82668 0.0
N89 N 0.67049 0.37482 0.82901 0.0
N90 N 0.66555 0.34591 0.85682 0.0
C91 C 0.65013 0.36335 0.81801 0.0
C92 C 0.67833 0.36617 0.84845 0.0
C93 C 0.64537 0.33404 0.8462 0.0
C94 C 0.64141 0.37353 0.79699 0.0
C95 C 0.61969 0.36286 0.78603 0.0
C96 C 0.61134 0.37283 0.76665 0.0
C97 C 0.62445 0.3938 0.75758 0.0
C98 C 0.64628 0.40433 0.76845 0.0
C99 C 0.6546 0.39439 0.78781 0.0
C100 C 0.70068 0.37828 0.86063 0.0
C101 C 0.71628 0.3978 0.85141 0.0
C102 C 0.73765 0.40838 0.86289 0.0
C103 C 0.74393 0.3997 0.88386 0.0
C104 C 0.72804 0.38047 0.89318 0.0
C105 C 0.70683 0.36993 0.88176 0.0
C106 C 0.63236 0.31174 0.85628 0.0
C107 C 0.63505 0.30763 0.87949 0.0
C108 C 0.78472 0.6467 0.38231 0.0
C109 C 0.77429 0.62366 0.3765 0.0
C110 C 0.78563 0.61258 0.35954 0.0
C111 C 0.80675 0.62439 0.34855 0.0
H112 H 0.84642 0.62936 0.28656 0.0
H113 H 0.86204 0.61343 0.25277 0.0
H114 H 0.93095 0.66086 0.26096 0.0
H115 H 0.91532 0.67699 0.29489 0.0
H116 H 0.91033 0.72684 0.32686 0.0
H117 H 0.92747 0.76447 0.34429 0.0
H118 H 0.87803 0.74775 0.40059 0.0
H119 H 0.86077 0.71088 0.38327 0.0
H120 H 0.8132 0.67609 0.37667 0.0
H121 H 0.77673 0.65568 0.3955 0.0
H122 H 0.778 0.59487 0.35459 0.0
H123 H 0.81497 0.61538 0.33555 0.0
N124 N 0.84913 0.65197 0.32449 0.0
N125 N 0.88132 0.68462 0.32385 0.0
N126 N 0.85155 0.68076 0.3523 0.0
C127 C 0.86984 0.66399 0.31454 0.0
C128 C 0.87218 0.69311 0.34284 0.0
C129 C 0.83987 0.66026 0.34341 0.0
C130 C 0.87956 0.65454 0.29363 0.0
C131 C 0.86492 0.63649 0.28124 0.0
C132 C 0.87383 0.6274 0.2617 0.0
C133 C 0.89777 0.63583 0.25405 0.0
C134 C 0.91249 0.65381 0.26643 0.0
C135 C 0.90345 0.66316 0.28585 0.0
C136 C 0.88395 0.71573 0.35344 0.0
C137 C 0.90317 0.7312 0.34297 0.0
C138 C 0.91306 0.75279 0.35302 0.0
C139 C 0.90396 0.75942 0.37378 0.0
C140 C 0.88515 0.74366 0.38437 0.0
C141 C 0.87531 0.72228 0.37439 0.0
C142 C 0.81719 0.64746 0.35448 0.0
C143 C 0.80583 0.65838 0.37154 0.0
C144 C 0.65576 0.82242 0.85871 0.0
C145 C 0.64562 0.81452 0.87962 0.0
C146 C 0.64878 0.79275 0.88771 0.0
C147 C 0.66263 0.77946 0.87539 0.0
H148 H 0.7043 0.72651 0.88277 0.0
H149 H 0.72639 0.70038 0.90263 0.0
H150 H 0.77622 0.70365 0.84627 0.0
H151 H 0.75382 0.72882 0.82623 0.0
H152 H 0.75044 0.75958 0.78525 0.0
H153 H 0.76716 0.77643 0.74976 0.0
H154 H 0.70935 0.816 0.74544 0.0
H155 H 0.69299 0.79968 0.78131 0.0
H156 H 0.67708 0.81594 0.83036 0.0
H157 H 0.65335 0.83905 0.85201 0.0
H158 H 0.64114 0.78633 0.90384 0.0
H159 H 0.66524 0.76297 0.88225 0.0
N160 N 0.6989 0.75761 0.85234 0.0
N161 N 0.72162 0.75355 0.81972 0.0
N162 N 0.6959 0.78074 0.82048 0.0
C163 C 0.71513 0.747 0.84123 0.0
C164 C 0.71199 0.77028 0.80916 0.0
C165 C 0.6892 0.77452 0.84202 0.0
C166 C 0.72728 0.72987 0.8529 0.0
C167 C 0.71981 0.72142 0.87453 0.0
C168 C 0.73256 0.70653 0.88598 0.0
C169 C 0.75314 0.69987 0.8761 0.0
C170 C 0.76021 0.70796 0.85428 0.0
C171 C 0.74739 0.72263 0.84281 0.0
C172 C 0.72051 0.77847 0.78632 0.0
C173 C 0.74109 0.77167 0.77664 0.0
C174 C 0.75063 0.78124 0.75617 0.0
C175 C 0.73971 0.79771 0.74481 0.0
C176 C 0.71848 0.8037 0.75397 0.0
C177 C 0.70904 0.79425 0.77451 0.0
C178 C 0.67319 0.78759 0.85461 0.0
C179 C 0.66924 0.80906 0.84627 0.0
C180 C 0.78978 0.21247 0.2624 0.0
C181 C 0.77245 0.22337 0.25169 0.0
C182 C 0.76859 0.24481 0.26009 0.0
C183 C 0.78086 0.25458 0.27941 0.0
H184 H 0.77045 0.29717 0.32916 0.0
H185 H 0.74943 0.32343 0.34913 0.0
H186 H 0.79779 0.32343 0.4063 0.0
H187 H 0.81855 0.29619 0.38644 0.0
H188 H 0.84822 0.25308 0.38859 0.0
H189 H 0.87453 0.23063 0.40816 0.0
H190 H 0.88386 0.19459 0.34602 0.0
H191 H 0.85796 0.21712 0.32636 0.0
H192 H 0.81472 0.21299 0.28998 0.0
H193 H 0.79304 0.19583 0.25646 0.0
H194 H 0.7557 0.25387 0.25197 0.0
H195 H 0.77692 0.27083 0.28571 0.0
N196 N 0.79937 0.26934 0.32346 0.0
N197 N 0.82432 0.2663 0.3548 0.0
N198 N 0.82494 0.24202 0.32327 0.0
C199 C 0.80737 0.2766 0.34442 0.0
C200 C 0.83331 0.24905 0.34423 0.0
C201 C 0.80802 0.25213 0.31274 0.0
C202 C 0.79618 0.29436 0.3562 0.0
C203 C 0.77686 0.30282 0.34592 0.0
C204 C 0.76485 0.31815 0.35735 0.0
C205 C 0.77191 0.32568 0.37935 0.0
C206 C 0.79168 0.31777 0.38947 0.0
C207 C 0.80368 0.30224 0.37803 0.0
C208 C 0.85079 0.23684 0.3559 0.0
C209 C 0.85608 0.24055 0.37902 0.0
C210 C 0.87104 0.22759 0.39028 0.0
C211 C 0.88118 0.21076 0.37866 0.0
C212 C 0.87653 0.20758 0.35542 0.0
C213 C 0.8615 0.22042 0.34418 0.0
C214 C 0.79735 0.24316 0.29076 0.0
C215 C 0.80214 0.22227 0.28171 0.0
C216 C 0.28635 0.61404 0.18435 0.0
C217 C 0.27616 0.62459 0.16624 0.0
C218 C 0.28789 0.64686 0.15928 0.0
C219 C 0.309 0.65841 0.17019 0.0
H220 H 0.35442 0.71768 0.1678 0.0
H221 H 0.37179 0.75445 0.15054 0.0
H222 H 0.43341 0.76217 0.19607 0.0
H223 H 0.41602 0.72458 0.21345 0.0
H224 H 0.4065 0.68635 0.25903 0.0
H225 H 0.42219 0.66992 0.29274 0.0
H226 H 0.37491 0.60389 0.27926 0.0
H227 H 0.35932 0.62012 0.24567 0.0
H228 H 0.31478 0.61716 0.20937 0.0
H229 H 0.27772 0.59694 0.19023 0.0
H230 H 0.28088 0.65538 0.14517 0.0
H231 H 0.3173 0.67557 0.16419 0.0
N232 N 0.35246 0.68215 0.19205 0.0
N233 N 0.38218 0.68587 0.22059 0.0
N234 N 0.35118 0.65229 0.21849 0.0
C235 C 0.37268 0.69475 0.202 0.0
C236 C 0.37149 0.66456 0.22897 0.0
C237 C 0.34153 0.66102 0.20001 0.0
C238 C 0.38374 0.71792 0.19217 0.0
C239 C 0.37168 0.72705 0.17434 0.0
C240 C 0.38159 0.7484 0.16444 0.0
C241 C 0.40395 0.76151 0.17195 0.0
C242 C 0.4162 0.7525 0.18975 0.0
C243 C 0.40616 0.73099 0.19982 0.0
C244 C 0.38158 0.65465 0.24946 0.0
C245 C 0.39948 0.6683 0.26318 0.0
C246 C 0.40839 0.65891 0.28264 0.0
C247 C 0.39988 0.63552 0.28879 0.0
C248 C 0.38214 0.62187 0.27497 0.0
C249 C 0.37306 0.63129 0.2557 0.0
C250 C 0.31913 0.64811 0.18848 0.0
C251 C 0.30755 0.6257 0.1954 0.0
C252 C 0.12722 0.28711 0.65418 0.0
C253 C 0.11299 0.26913 0.6668 0.0
C254 C 0.10814 0.27363 0.68962 0.0
C255 C 0.11796 0.29523 0.69963 0.0
H256 H 0.1038 0.35528 0.74431 0.0
H257 H 0.08917 0.37203 0.77842 0.0
H258 H 0.16239 0.40871 0.79246 0.0
H259 H 0.17701 0.39244 0.75815 0.0
H260 H 0.2173 0.39924 0.71368 0.0
H261 H 0.25443 0.41772 0.69376 0.0
H262 H 0.22582 0.38341 0.63198 0.0
H263 H 0.18958 0.36443 0.65195 0.0
H264 H 0.1483 0.32161 0.6538 0.0
H265 H 0.13082 0.28473 0.63643 0.0
H266 H 0.09735 0.26025 0.69997 0.0
H267 H 0.11442 0.29788 0.71734 0.0
N268 N 0.13796 0.34303 0.71756 0.0
N269 N 0.17087 0.37505 0.71653 0.0
N270 N 0.16577 0.34738 0.68744 0.0
C271 C 0.15044 0.36316 0.72705 0.0
C272 C 0.17853 0.3673 0.69659 0.0
C273 C 0.14567 0.335 0.69771 0.0
C274 C 0.14162 0.37248 0.74839 0.0
C275 C 0.11683 0.36683 0.75469 0.0
C276 C 0.1084 0.37654 0.77418 0.0
C277 C 0.12461 0.39172 0.78816 0.0
C278 C 0.14946 0.39699 0.78213 0.0
C279 C 0.1578 0.38772 0.76239 0.0
C280 C 0.20051 0.38011 0.68453 0.0
C281 C 0.21896 0.39575 0.69582 0.0
C282 C 0.24025 0.40642 0.68433 0.0
C283 C 0.24347 0.40191 0.66121 0.0
C284 C 0.22453 0.38688 0.64987 0.0
C285 C 0.20353 0.37605 0.66136 0.0
C286 C 0.133 0.31278 0.68711 0.0
C287 C 0.13715 0.30847 0.66417 0.0
Dy288 Dy 0.03545 0.01676 0.50823 0.0
Dy289 Dy 0.98487 1.00739 0.5384 0.0
C290 C 0.02775 0.05213 0.54737 0.0
O291 O 0.04327 0.9994 0.54029 0.0
O292 O 1.00482 0.97918 0.54765 0.0
O293 O 0.07468 0.0272 0.50634 0.0
O294 O 0.05388 0.01381 0.47661 0.0
O295 O 0.97684 0.98338 0.50857 0.0
O296 O 0.01619 0.98058 0.49972 0.0
O297 O 0.98272 0.03833 0.51729 0.0
O298 O 0.00922 0.03366 0.4887 0.0
O299 O 0.94567 1.00307 0.5413 0.0
O300 O 0.96807 1.00304 0.57138 0.0
C301 C 0.02858 0.98209 0.55011 0.0
O302 O 0.03653 0.05009 0.52702 0.0
O303 O 0.01126 0.03549 0.5563 0.0
C304 C 0.08992 0.04139 0.47091 0.0
C305 C 0.11801 0.07557 0.44341 0.0
C306 C 0.09885 0.08095 0.45662 0.0
C307 C 0.08483 0.06393 0.47024 0.0
C308 C 0.10909 0.03602 0.45797 0.0
C309 C 0.12303 0.05295 0.44434 0.0
C310 C 0.07529 0.02312 0.4847 0.0
C311 C 0.99251 0.97287 0.49808 0.0
C312 C 0.99159 0.04321 0.49695 0.0
C313 C 0.92795 0.98115 0.5729 0.0
C314 C 0.89254 0.94594 0.59252 0.0
C315 C 0.90112 0.94327 0.57048 0.0
C316 C 0.91873 0.96074 0.56074 0.0
C317 C 0.91967 0.98371 0.59491 0.0
C318 C 0.90223 0.96628 0.60467 0.0
C319 C 0.94597 1.00022 0.56318 0.0
H320 H 0.09444 0.09817 0.45611 0.0
H321 H 0.06996 0.06828 0.48011 0.0
H322 H 0.11325 0.01869 0.45837 0.0
H323 H 0.13789 0.04837 0.43463 0.0
H324 H 0.89395 0.92787 0.56064 0.0
H325 H 0.92499 0.95838 0.54372 0.0
H326 H 0.92671 0.99927 0.6046 0.0
H327 H 0.89648 0.9687 0.62184 0.0
Dy328 Dy 0.48441 1.00562 1.00395 0.0
Dy329 Dy 0.53575 0.01549 0.03289 0.0
C330 C 0.49331 0.9721 0.04455 0.0
O331 O 0.48253 0.03679 0.02484 0.0
O332 O 0.50973 0.03218 0.0529 0.0
O333 O 0.44501 0.99996 1.00193 0.0
O334 O 0.46673 1.00085 0.97139 0.0
O335 O 0.53595 0.04865 1.01418 0.0
O336 O 0.51003 0.03376 0.98538 0.0
O337 O 0.54264 0.99774 1.00079 0.0
O338 O 0.50409 0.97715 0.9949 0.0
O339 O 0.57506 0.02555 0.03358 0.0
O340 O 0.5552 0.01376 0.06421 0.0
C341 C 0.49189 0.04171 0.04503 0.0
O342 O 0.47747 0.98292 0.03474 0.0
O343 O 0.51694 0.97935 0.04192 0.0
C344 C 0.42811 0.97594 0.97107 0.0
C345 C 0.39633 0.93721 0.95245 0.0
C346 C 0.39938 0.93936 0.97599 0.0
C347 C 0.41526 0.95852 0.98525 0.0
C348 C 0.42488 0.97381 0.9476 0.0
C349 C 0.40926 0.95461 0.93837 0.0
C350 C 0.44484 0.99652 0.98011 0.0
C351 C 0.52666 0.05054 0.994 0.0
C352 C 0.52773 0.98001 0.99181 0.0
C353 C 0.59144 0.04157 0.06796 0.0
C354 C 0.6208 0.07748 0.09272 0.0
C355 C 0.59898 0.08105 0.08254 0.0
C356 C 0.58439 0.0632 0.07022 0.0
C357 C 0.61314 0.03795 0.07798 0.0
C358 C 0.62771 0.05573 0.09027 0.0
C359 C 0.57636 0.02256 0.05535 0.0
H360 H 0.38969 0.92611 0.98719 0.0
H361 H 0.41745 0.95966 1.00344 0.0
H362 H 0.43445 0.98708 0.93635 0.0
H363 H 0.40696 0.95357 0.92019 0.0
H364 H 0.59327 0.09767 0.08396 0.0
H365 H 0.56764 0.06623 0.06249 0.0
H366 H 0.61874 0.02129 0.07643 0.0
H367 H 0.64416 0.05228 0.09822 0.0
Dy368 Dy 0.51073 0.48853 0.50855 0.0
Dy369 Dy 0.51308 0.53765 0.53568 0.0
C370 C 0.53464 0.49628 0.55818 0.0
O371 O 0.47229 0.48605 0.52096 0.0
O372 O 0.48055 0.51331 0.54926 0.0
O373 O 0.50702 0.4511 0.50732 0.0
O374 O 0.51419 0.47137 0.47674 0.0
O375 O 0.48626 0.53854 0.50758 0.0
O376 O 0.50034 0.51367 0.48343 0.0
O377 O 0.54395 0.54408 0.51089 0.0
O378 O 0.5499 0.50669 0.50776 0.0
O379 O 0.51687 0.57505 0.5357 0.0
O380 O 0.51145 0.556 0.56719 0.0
C381 C 0.46588 0.4959 0.53943 0.0
O382 O 0.52096 0.48184 0.54423 0.0
O383 O 0.53826 0.51892 0.55495 0.0
C384 C 0.53485 0.4406 0.48108 0.0
C385 C 0.57753 0.42464 0.46857 0.0
C386 C 0.57689 0.43728 0.48869 0.0
C387 C 0.55577 0.4453 0.49482 0.0
C388 C 0.53526 0.42769 0.46119 0.0
C389 C 0.55644 0.41977 0.45496 0.0
C390 C 0.51366 0.45123 0.48619 0.0
C391 C 0.48813 0.53038 0.48711 0.0
C392 C 0.55742 0.52909 0.50464 0.0
C393 C 0.49019 0.58648 0.56247 0.0
C394 C 0.44809 0.60372 0.57472 0.0
C395 C 0.44877 0.5915 0.55433 0.0
C396 C 0.46954 0.58287 0.54834 0.0
C397 C 0.48976 0.59882 0.5827 0.0
C398 C 0.46889 0.60737 0.5888 0.0
C399 C 0.51124 0.5757 0.55706 0.0
H400 H 0.59294 0.44155 0.49935 0.0
H401 H 0.55598 0.45567 0.51003 0.0
H402 H 0.51938 0.42417 0.45024 0.0
H403 H 0.55636 0.4099 0.43946 0.0
H404 H 0.43326 0.58864 0.54294 0.0
H405 H 0.46934 0.5731 0.53276 0.0
H406 H 0.50537 0.60144 0.59399 0.0
H407 H 0.46888 0.61638 0.60479 0.0
Dy408 Dy 0.01269 0.5372 1.00942 0.0
Dy409 Dy 0.01193 0.48806 0.03669 0.0
C410 C 0.98978 0.5298 0.05818 0.0
O411 O 0.04492 0.54336 0.03294 0.0
O412 O 0.05105 0.50602 0.03681 0.0
O413 O 0.01534 0.57444 1.0111 0.0
O414 O 0.01147 0.55691 0.97872 0.0
O415 O 0.02617 0.48128 1.00244 0.0
O416 O 0.03531 0.51828 0.98741 0.0
O417 O 0.97361 0.48464 0.02332 0.0
O418 O 0.97948 0.51356 0.9964 0.0
O419 O 0.00628 0.45055 0.03894 0.0
O420 O 0.01627 0.47169 0.06873 0.0
C421 C 0.05864 0.52852 0.03914 0.0
O422 O 0.98559 0.53623 0.03756 0.0
O423 O 1.00393 0.51462 0.06163 0.0
C424 C 0.98983 0.58703 0.98388 0.0
C425 C 0.9483 0.60447 0.97046 0.0
C426 C 0.94787 0.59131 0.99035 0.0
C427 C 0.9684 0.58254 0.99693 0.0
C428 C 0.99049 0.60049 0.96425 0.0
C429 C 0.96987 0.60913 0.95755 0.0
C430 C 0.01066 0.57608 0.98961 0.0
C431 C 0.03573 0.49588 0.98653 0.0
C432 C 0.96608 0.4951 1.0057 0.0
C433 C 0.03338 0.43836 0.06519 0.0
C434 C 0.07381 0.41865 0.07753 0.0
C435 C 0.07159 0.42657 0.05535 0.0
C436 C 0.05162 0.43653 0.04926 0.0
C437 C 0.03523 0.42985 0.08712 0.0
C438 C 0.0553 0.42014 0.09328 0.0
C439 C 0.01367 0.451 0.05989 0.0
H440 H 0.93142 0.5872 1.00046 0.0
H441 H 0.96736 0.57183 1.01195 0.0
H442 H 0.00679 0.60394 0.95387 0.0
H443 H 0.97074 0.61937 0.94223 0.0
H444 H 0.08571 0.42582 0.04296 0.0
H445 H 0.05078 0.44332 0.03231 0.0
H446 H 0.02144 0.43127 0.09967 0.0
H447 H 0.05647 0.41397 0.11043 0.0
H448 H 0.25505 0.1755 0.29018 0.0
H449 H 0.22692 0.1547 0.31818 0.0
H450 H 0.2351 0.21686 0.35887 0.0
H451 H 0.26353 0.23787 0.33083 0.0
H452 H 0.23688 0.1754 0.38377 0.0
H453 H 0.18568 0.20394 0.33018 0.0
H454 H 0.17049 0.21123 0.29223 0.0
H455 H 0.15077 0.13769 0.2803 0.0
H456 H 0.16621 0.12994 0.31807 0.0
H457 H 0.13681 0.12129 0.45308 0.0
H458 H 0.16252 0.14983 0.42874 0.0
H459 H 0.15838 0.09816 0.37613 0.0
H460 H 0.13226 0.06984 0.40005 0.0
H461 H 0.15293 0.13949 0.35921 0.0
H462 H 0.20806 0.11092 0.41032 0.0
H463 H 0.2242 0.10284 0.44769 0.0
H464 H 0.23705 0.17567 0.46382 0.0
H465 H 0.22067 0.18415 0.42662 0.0
C466 C 0.25116 0.18467 0.30524 0.0
C467 C 0.26151 0.20829 0.30837 0.0
C468 C 0.23494 0.17283 0.32111 0.0
C469 C 0.22878 0.18434 0.34043 0.0
C470 C 0.23959 0.20774 0.34399 0.0
C471 C 0.2557 0.2197 0.32797 0.0
C472 C 0.21071 0.1718 0.35658 0.0
C473 C 0.21835 0.16792 0.3786 0.0
C474 C 0.18671 0.1618 0.34962 0.0
C475 C 0.17729 0.16637 0.32691 0.0
C476 C 0.17829 0.18931 0.3194 0.0
C477 C 0.1696 0.19353 0.29793 0.0
C478 C 0.15972 0.17493 0.28384 0.0
C479 C 0.15845 0.15208 0.29123 0.0
C480 C 0.16715 0.14776 0.31268 0.0
C481 C 0.14116 0.11614 0.43622 0.0
C482 C 0.13269 0.09328 0.42853 0.0
C483 C 0.15598 0.13239 0.42242 0.0
C484 C 0.16257 0.12602 0.40073 0.0
C485 C 0.15357 0.10341 0.39283 0.0
C486 C 0.13883 0.0872 0.40659 0.0
C487 C 0.17924 0.1426 0.38628 0.0
C488 C 0.17132 0.14725 0.36454 0.0
C489 C 0.20301 0.1532 0.39348 0.0
C490 C 0.21286 0.14814 0.41582 0.0
C491 C 0.21413 0.12519 0.42192 0.0
C492 C 0.22336 0.12054 0.44305 0.0
C493 C 0.23157 0.13872 0.45815 0.0
C494 C 0.23063 0.1616 0.45212 0.0
C495 C 0.22139 0.16634 0.43102 0.0
H496 H 0.23872 0.13509 0.4745 0.0
H497 H 0.15299 0.17823 0.26722 0.0
H498 H 0.29141 0.80003 0.80678 0.0
H499 H 0.31413 0.81939 0.83884 0.0
H500 H 0.24651 0.82668 0.87095 0.0
H501 H 0.22357 0.80746 0.83855 0.0
H502 H 0.27757 0.86628 0.87216 0.0
H503 H 0.2823 0.78867 0.89189 0.0
H504 H 0.28938 0.7488 0.88607 0.0
H505 H 0.3647 0.77565 0.87048 0.0
H506 H 0.35801 0.81572 0.87587 0.0
H507 H 0.34915 0.9196 0.96472 0.0
H508 H 0.31979 0.88961 0.94493 0.0
H509 H 0.37587 0.8803 0.8975 0.0
H510 H 0.40523 0.91008 0.91724 0.0
H511 H 0.34592 0.83837 0.91022 0.0
H512 H 0.33852 0.91542 0.88421 0.0
H513 H 0.3315 0.9554 0.88945 0.0
H514 H 0.26051 0.92871 0.91716 0.0
H515 H 0.26728 0.88854 0.91237 0.0
C516 C 0.28132 0.80531 0.82086 0.0
C517 C 0.25569 0.8021 0.8202 0.0
C518 C 0.29434 0.81635 0.83924 0.0
C519 C 0.28203 0.82416 0.85752 0.0
C520 C 0.25639 0.8207 0.85708 0.0
C521 C 0.24332 0.80978 0.83856 0.0
C522 C 0.29619 0.83747 0.87613 0.0
C523 C 0.29209 0.85989 0.8809 0.0
C524 C 0.31543 0.82934 0.88731 0.0
C525 C 0.3196 0.80524 0.88418 0.0
C526 C 0.30034 0.78609 0.88708 0.0
C527 C 0.30429 0.76345 0.88388 0.0
C528 C 0.32746 0.7597 0.87788 0.0
C529 C 0.34676 0.77858 0.87513 0.0
C530 C 0.34291 0.80127 0.87829 0.0
C531 C 0.35528 0.9108 0.95034 0.0
C532 C 0.37936 0.91727 0.94235 0.0
C533 C 0.33851 0.89378 0.93902 0.0
C534 C 0.34565 0.88293 0.91966 0.0
C535 C 0.37002 0.88849 0.91241 0.0
C536 C 0.38669 0.90559 0.92358 0.0
C537 C 0.32751 0.86716 0.90576 0.0
C538 C 0.33096 0.84439 0.90185 0.0
C539 C 0.30763 0.8749 0.8954 0.0
C540 C 0.30353 0.89902 0.89822 0.0
C541 C 0.32151 0.91809 0.89161 0.0
C542 C 0.31756 0.94078 0.89446 0.0
C543 C 0.2956 0.9446 0.90371 0.0
C544 C 0.27753 0.92573 0.91006 0.0
C545 C 0.28141 0.903 0.90728 0.0
H546 H 0.29257 0.96218 0.9059 0.0
H547 H 0.33048 0.74215 0.8754 0.0
H548 H 0.6017 0.37215 0.71967 0.0
H549 H 0.5872 0.39004 0.68628 0.0
H550 H 0.61285 0.4581 0.71482 0.0
H551 H 0.62653 0.44033 0.74865 0.0
H552 H 0.56964 0.45681 0.69605 0.0
H553 H 0.64426 0.4353 0.6718 0.0
H554 H 0.67319 0.40891 0.66554 0.0
H555 H 0.62091 0.36582 0.62271 0.0
H556 H 0.59152 0.39179 0.62895 0.0
H557 H 0.56007 0.51982 0.59392 0.0
H558 H 0.5762 0.50328 0.62744 0.0
H559 H 0.54971 0.43412 0.60176 0.0
H560 H 0.53384 0.45045 0.56821 0.0
H561 H 0.59431 0.43687 0.6191 0.0
H562 H 0.51947 0.45795 0.64398 0.0
H563 H 0.49056 0.4844 0.65011 0.0
H564 H 0.54346 0.52841 0.69165 0.0
H565 H 0.57282 0.50238 0.68551 0.0
C566 C 0.60407 0.39093 0.71902 0.0
C567 C 0.61547 0.4047 0.737 0.0
C568 C 0.59599 0.40119 0.69971 0.0
C569 C 0.5992 0.42553 0.69771 0.0
C570 C 0.61022 0.43931 0.71577 0.0
C571 C 0.61828 0.42907 0.73509 0.0
C572 C 0.59101 0.43661 0.67693 0.0
C573 C 0.57536 0.45267 0.67926 0.0
C574 C 0.59796 0.431 0.65485 0.0
C575 C 0.61561 0.41537 0.65102 0.0
C576 C 0.63886 0.4201 0.66118 0.0
C577 C 0.65535 0.40523 0.65761 0.0
C578 C 0.64887 0.38567 0.64378 0.0
C579 C 0.6259 0.38096 0.63344 0.0
C580 C 0.60932 0.39576 0.63697 0.0
C581 C 0.55776 0.50109 0.59533 0.0
C582 C 0.5455 0.48653 0.57829 0.0
C583 C 0.5669 0.49162 0.61462 0.0
C584 C 0.56397 0.46736 0.61739 0.0
C585 C 0.55223 0.45286 0.60015 0.0
C586 C 0.54306 0.46228 0.58094 0.0
C587 C 0.57289 0.45699 0.63823 0.0
C588 C 0.58867 0.44105 0.6359 0.0
C589 C 0.56607 0.46272 0.6603 0.0
C590 C 0.54843 0.47835 0.66409 0.0
C591 C 0.525 0.47337 0.65428 0.0
C592 C 0.50853 0.48827 0.65778 0.0
C593 C 0.5152 0.50811 0.67121 0.0
C594 C 0.53833 0.51306 0.68122 0.0
C595 C 0.55489 0.49823 0.67775 0.0
H596 H 0.50241 0.51963 0.6739 0.0
H597 H 0.66166 0.37418 0.64104 0.0
H598 H 0.87457 0.62524 0.21332 0.0
H599 H 0.88966 0.60807 0.17978 0.0
H600 H 0.95734 0.60578 0.21437 0.0
H601 H 0.94252 0.6236 0.24773 0.0
H602 H 0.96783 0.61817 0.1736 0.0
H603 H 0.90941 0.55593 0.2053 0.0
H604 H 0.8694 0.53639 0.22012 0.0
H605 H 0.83586 0.54531 0.15618 0.0
H606 H 0.87563 0.56519 0.14106 0.0
H607 H 0.00634 0.53279 0.10191 0.0
H608 H 0.99062 0.55174 0.13413 0.0
H609 H 0.93437 0.57023 0.09175 0.0
H610 H 0.95041 0.55181 0.05921 0.0
H611 H 0.91771 0.54989 0.13541 0.0
H612 H 0.9792 0.60959 0.10358 0.0
H613 H 0.02024 0.62781 0.09023 0.0
H614 H 0.04934 0.62233 0.15681 0.0
H615 H 0.00872 0.60314 0.17034 0.0
C616 C 0.89264 0.621 0.21383 0.0
C617 C 0.90725 0.62573 0.23334 0.0
C618 C 0.90126 0.61106 0.1946 0.0
C619 C 0.92455 0.60508 0.19447 0.0
C620 C 0.93931 0.61012 0.21386 0.0
C621 C 0.93082 0.62037 0.23299 0.0
C622 C 0.93362 0.59377 0.17418 0.0
C623 C 0.95695 0.60302 0.16552 0.0
C624 C 0.91938 0.57423 0.1631 0.0
C625 C 0.89545 0.56226 0.17213 0.0
C626 C 0.89347 0.55388 0.19445 0.0
C627 C 0.87084 0.54272 0.2029 0.0
C628 C 0.85009 0.53967 0.18912 0.0
C629 C 0.85194 0.54772 0.16684 0.0
C630 C 0.87452 0.55892 0.15832 0.0
C631 C 0.99056 0.54081 0.09941 0.0
C632 C 0.97962 0.54071 0.07792 0.0
C633 C 0.98165 0.55173 0.11787 0.0
C634 C 0.96132 0.56249 0.11542 0.0
C635 C 0.95006 0.56205 0.09409 0.0
C636 C 0.95929 0.55156 0.07548 0.0
C637 C 0.95191 0.5742 0.13511 0.0
C638 C 0.92854 0.56501 0.14359 0.0
C639 C 0.96628 0.59354 0.14624 0.0
C640 C 0.9909 0.60457 0.13791 0.0
C641 C 0.99442 0.61184 0.11529 0.0
C642 C 0.01764 0.62237 0.10768 0.0
C643 C 0.03744 0.62608 0.12261 0.0
C644 C 0.03405 0.6193 0.1452 0.0
C645 C 0.01094 0.6085 0.15282 0.0
H646 H 0.05539 0.63432 0.11672 0.0
H647 H 0.83259 0.53102 0.19569 0.0
H648 H 0.37805 0.19289 0.12333 0.0
H649 H 0.39844 0.16479 0.10451 0.0
H650 H 0.44881 0.16808 0.16035 0.0
H651 H 0.42889 0.1968 0.17908 0.0
H652 H 0.47165 0.16596 0.11934 0.0
H653 H 0.40165 0.12425 0.15798 0.0
H654 H 0.35828 0.11468 0.16912 0.0
H655 H 0.33756 0.09878 0.10012 0.0
H656 H 0.3808 0.10861 0.0885 0.0
H657 H 0.50877 0.05999 0.08614 0.0
H658 H 0.49319 0.0893 0.10838 0.0
H659 H 0.43839 0.09217 0.05746 0.0
H660 H 0.45352 0.06283 0.03533 0.0
H661 H 0.41927 0.09016 0.09945 0.0
H662 H 0.48979 0.13409 0.0609 0.0
H663 H 0.53339 0.14283 0.05041 0.0
H664 H 0.55341 0.15353 0.12028 0.0
H665 H 0.5099 0.14454 0.13121 0.0
C666 C 0.39378 0.18805 0.13142 0.0
C667 C 0.40176 0.197 0.15277 0.0
C668 C 0.40527 0.1718 0.12073 0.0
C669 C 0.42487 0.16407 0.13121 0.0
C670 C 0.43362 0.17372 0.15204 0.0
C671 C 0.42211 0.18999 0.16278 0.0
C672 C 0.43536 0.14513 0.12083 0.0
C673 C 0.4603 0.14926 0.11527 0.0
C674 C 0.4205 0.1234 0.11542 0.0
C675 C 0.39446 0.11737 0.12234 0.0
C676 C 0.38783 0.11889 0.14515 0.0
C677 C 0.36328 0.11339 0.15156 0.0
C678 C 0.34517 0.10618 0.13533 0.0
C679 C 0.3516 0.1044 0.11266 0.0
C680 C 0.37614 0.10991 0.10616 0.0
C681 C 0.49334 0.0668 0.07972 0.0
C682 C 0.48242 0.05907 0.05893 0.0
C683 C 0.48455 0.08363 0.0924 0.0
C684 C 0.46476 0.09304 0.08446 0.0
C685 C 0.45367 0.08513 0.06389 0.0
C686 C 0.46243 0.06838 0.05123 0.0
C687 C 0.45541 0.11116 0.09744 0.0
C688 C 0.43067 0.10682 0.1036 0.0
C689 C 0.47049 0.1326 0.10347 0.0
C690 C 0.49661 0.13841 0.09688 0.0
C691 C 0.5035 0.13817 0.07403 0.0
C692 C 0.52819 0.14318 0.06801 0.0
C693 C 0.54617 0.14866 0.08467 0.0
C694 C 0.53947 0.14924 0.10739 0.0
C695 C 0.51479 0.14421 0.11351 0.0
H696 H 0.56528 0.1525 0.07998 0.0
H697 H 0.32617 0.10192 0.14033 0.0
H698 H 0.10243 0.80902 0.64735 0.0
H699 H 0.0802 0.83569 0.62811 0.0
H700 H 0.14123 0.89224 0.63913 0.0
H701 H 0.16304 0.8658 0.65896 0.0
H702 H 0.10157 0.90662 0.64819 0.0
H703 H 0.12782 0.86438 0.58633 0.0
H704 H 0.13225 0.82967 0.56429 0.0
H705 H 0.05423 0.81034 0.55813 0.0
H706 H 0.04932 0.8448 0.5804 0.0
H707 H 0.0753 0.98681 0.56596 0.0
H708 H 0.09325 0.95817 0.58679 0.0
H709 H 0.02415 0.9102 0.58495 0.0
H710 H 1.00592 0.93885 0.56422 0.0
H711 H 0.06507 0.89059 0.57193 0.0
H712 H 0.04034 0.93568 0.63255 0.0
H713 H 0.03791 0.97194 0.65287 0.0
H714 H 0.11607 0.98748 0.65943 0.0
H715 H 0.119 0.95146 0.63885 0.0
C716 C 0.11108 0.82713 0.6455 0.0
C717 C 0.13439 0.8354 0.65464 0.0
C718 C 0.09843 0.84235 0.63447 0.0
C719 C 0.10912 0.86598 0.63194 0.0
C720 C 0.13252 0.87414 0.64094 0.0
C721 C 0.14499 0.85903 0.65224 0.0
C722 C 0.0959 0.8824 0.62032 0.0
C723 C 0.09385 0.90317 0.63141 0.0
C724 C 0.0853 0.87777 0.59861 0.0
C725 C 0.0882 0.85702 0.58525 0.0
C726 C 0.1116 0.85262 0.58044 0.0
C727 C 0.1142 0.83301 0.56787 0.0
C728 C 0.09353 0.81777 0.55988 0.0
C729 C 0.07022 0.82214 0.56438 0.0
C730 C 0.06752 0.84171 0.57696 0.0
C731 C 0.06387 0.97022 0.57006 0.0
C732 C 0.03917 0.96511 0.56348 0.0
C733 C 0.07414 0.9539 0.582 0.0
C734 C 0.05997 0.93214 0.58746 0.0
C735 C 0.03534 0.92693 0.58089 0.0
C736 C 0.02495 0.94336 0.56916 0.0
C737 C 0.07111 0.91475 0.59972 0.0
C738 C 0.07271 0.89385 0.58877 0.0
C739 C 0.08162 0.9194 0.62139 0.0
C740 C 0.07989 0.94096 0.63399 0.0
C741 C 0.05702 0.94691 0.63818 0.0
C742 C 0.05556 0.96741 0.64977 0.0
C743 C 0.07683 0.98204 0.65739 0.0
C744 C 0.09961 0.97615 0.6535 0.0
C745 C 0.10118 0.95568 0.6419 0.0
H746 H 0.07566 0.99791 0.66635 0.0
H747 H 0.09558 0.8026 0.55015 0.0
H748 H 0.76505 0.4461 0.88817 0.0
H749 H 0.80202 0.4631 0.90928 0.0
H750 H 0.81175 0.39446 0.92852 0.0
H751 H 0.77512 0.37736 0.90731 0.0
H752 H 0.81776 0.4236 0.96444 0.0
H753 H 0.84688 0.42588 0.88731 0.0
H754 H 0.847 0.43658 0.84699 0.0
H755 H 0.85945 0.50897 0.8649 0.0
H756 H 0.85916 0.49867 0.90533 0.0
H757 H 0.93949 0.45047 1.00714 0.0
H758 H 0.90133 0.43499 0.98715 0.0
H759 H 0.89936 0.50357 0.96145 0.0
H760 H 0.93794 0.51881 0.98052 0.0
H761 H 0.88849 0.47539 0.92905 0.0
H762 H 0.85972 0.47504 1.0051 0.0
H763 H 0.85841 0.46614 0.04587 0.0
H764 H 0.84365 0.39299 0.03112 0.0
H765 H 0.84519 0.40144 0.99024 0.0
C766 C 0.7752 0.43459 0.89666 0.0
C767 C 0.76694 0.41031 0.89605 0.0
C768 C 0.79634 0.44435 0.9088 0.0
C769 C 0.8098 0.43008 0.92048 0.0
C770 C 0.80165 0.40588 0.9198 0.0
C771 C 0.78059 0.39612 0.90769 0.0
C772 C 0.83225 0.4402 0.93359 0.0
C773 C 0.83335 0.43472 0.95665 0.0
C774 C 0.85233 0.45532 0.92368 0.0
C775 C 0.8527 0.46149 0.89935 0.0
C776 C 0.84946 0.44407 0.88265 0.0
C777 C 0.84961 0.45006 0.85977 0.0
C778 C 0.85316 0.47343 0.85338 0.0
C779 C 0.85666 0.49087 0.86986 0.0
C780 C 0.85652 0.48497 0.89276 0.0
C781 C 0.93077 0.46226 0.99742 0.0
C782 C 0.94179 0.48586 0.99543 0.0
C783 C 0.90885 0.45342 0.98602 0.0
C784 C 0.89712 0.4681 0.97286 0.0
C785 C 0.90795 0.49178 0.97132 0.0
C786 C 0.93003 0.50051 0.98234 0.0
C787 C 0.87415 0.45877 0.96002 0.0
C788 C 0.87292 0.46436 0.93697 0.0
C789 C 0.85379 0.44404 0.97004 0.0
C790 C 0.85281 0.43888 0.99461 0.0
C791 C 0.85637 0.45705 1.01055 0.0
C792 C 0.85556 0.45209 0.03368 0.0
C793 C 0.85101 0.42901 0.04108 0.0
C794 C 0.8472 0.41085 0.02536 0.0
C795 C 0.84802 0.41572 1.00221 0.0
H796 H 0.85038 0.42521 0.05899 0.0
H797 H 0.85326 0.47803 0.83566 0.0
H798 H 0.73337 0.64091 0.38675 0.0
H799 H 0.69789 0.62248 0.40871 0.0
H800 H 0.7285 0.56052 0.4153 0.0
H801 H 0.76412 0.57891 0.39302 0.0
H802 H 0.67994 0.54908 0.40875 0.0
H803 H 0.73229 0.59972 0.45886 0.0
H804 H 0.75805 0.6365 0.47158 0.0
H805 H 0.69599 0.67003 0.4694 0.0
H806 H 0.66992 0.63352 0.45634 0.0
H807 H 0.59402 0.50497 0.49543 0.0
H808 H 0.63207 0.51871 0.47481 0.0
H809 H 0.61183 0.58564 0.46574 0.0
H810 H 0.57434 0.57234 0.48707 0.0
H811 H 0.65781 0.59204 0.47548 0.0
H812 H 0.60623 0.54111 0.42259 0.0
H813 H 0.58085 0.50366 0.41103 0.0
H814 H 0.64206 0.46981 0.41999 0.0
H815 H 0.66777 0.50706 0.43179 0.0
C816 C 0.7326 0.62336 0.39286 0.0
C817 C 0.75178 0.61151 0.38834 0.0
C818 C 0.71226 0.61281 0.40545 0.0
C819 C 0.71067 0.59025 0.41415 0.0
C820 C 0.72931 0.57798 0.40891 0.0
C821 C 0.74966 0.5885 0.39612 0.0
C822 C 0.68987 0.57993 0.42917 0.0
C823 C 0.6753 0.55834 0.42352 0.0
C824 C 0.68361 0.59196 0.44843 0.0
C825 C 0.69919 0.61392 0.45644 0.0
C826 C 0.72417 0.61498 0.46094 0.0
C827 C 0.73882 0.63577 0.46823 0.0
C828 C 0.72867 0.65561 0.47125 0.0
C829 C 0.70383 0.65466 0.46704 0.0
C830 C 0.6891 0.63391 0.45971 0.0
C831 C 0.59774 0.52267 0.48916 0.0
C832 C 0.58107 0.53754 0.49294 0.0
C833 C 0.61947 0.53046 0.47719 0.0
C834 C 0.62477 0.55314 0.46827 0.0
C835 C 0.60828 0.56808 0.47237 0.0
C836 C 0.58677 0.56042 0.4846 0.0
C837 C 0.64737 0.56153 0.45471 0.0
C838 C 0.66242 0.58274 0.46074 0.0
C839 C 0.6541 0.54906 0.43591 0.0
C840 C 0.63885 0.52682 0.42823 0.0
C841 C 0.61425 0.52567 0.42215 0.0
C842 C 0.59981 0.50448 0.41556 0.0
C843 C 0.60982 0.48437 0.41483 0.0
C844 C 0.63433 0.48541 0.42058 0.0
C845 C 0.64886 0.50656 0.42718 0.0
H846 H 0.5986 0.46799 0.40974 0.0
H847 H 0.74005 0.67169 0.47689 0.0
H848 H 0.24976 0.3112 0.12314 0.0
H849 H 0.21866 0.32989 0.10574 0.0
H850 H 0.22756 0.38069 0.15942 0.0
H851 H 0.259 0.36244 0.17668 0.0
H852 H 0.17983 0.35838 0.15357 0.0
H853 H 0.2464 0.39683 0.10729 0.0
H854 H 0.28126 0.39877 0.08129 0.0
H855 H 0.23433 0.35875 0.03207 0.0
H856 H 0.19923 0.35629 0.05792 0.0
H857 H 0.1018 0.4308 0.11493 0.0
H858 H 0.13778 0.41592 0.12707 0.0
H859 H 0.13147 0.37142 0.0683 0.0
H860 H 0.09569 0.38679 0.05579 0.0
H861 H 0.17793 0.38968 0.07582 0.0
H862 H 0.11191 0.35004 0.12097 0.0
H863 H 0.07643 0.34631 0.1465 0.0
H864 H 0.12145 0.38578 0.19734 0.0
H865 H 0.15714 0.39002 0.172 0.0
C866 C 0.24559 0.32673 0.13092 0.0
C867 C 0.25673 0.33522 0.15141 0.0
C868 C 0.22774 0.33733 0.12099 0.0
C869 C 0.22077 0.35662 0.13134 0.0
C870 C 0.23258 0.36572 0.15125 0.0
C871 C 0.25048 0.35522 0.16112 0.0
C872 C 0.19983 0.36617 0.12252 0.0
C873 C 0.17956 0.36556 0.13669 0.0
C874 C 0.19915 0.37468 0.10021 0.0
C875 C 0.22023 0.37618 0.08464 0.0
C876 C 0.24355 0.38826 0.091 0.0
C877 C 0.26335 0.3895 0.07627 0.0
C878 C 0.26003 0.37884 0.05506 0.0
C879 C 0.23688 0.36698 0.04851 0.0
C880 C 0.21703 0.36568 0.06319 0.0
C881 C 0.10804 0.41777 0.10466 0.0
C882 C 0.09581 0.40973 0.08457 0.0
C883 C 0.12859 0.40927 0.1116 0.0
C884 C 0.13707 0.39221 0.09883 0.0
C885 C 0.12522 0.38453 0.07846 0.0
C886 C 0.10479 0.39327 0.07135 0.0
C887 C 0.15803 0.38219 0.10701 0.0
C888 C 0.17822 0.38255 0.09272 0.0
C889 C 0.15856 0.37314 0.12916 0.0
C890 C 0.13715 0.37052 0.1445 0.0
C891 C 0.11421 0.35806 0.13754 0.0
C892 C 0.09406 0.35584 0.15198 0.0
C893 C 0.09667 0.36585 0.17351 0.0
C894 C 0.11945 0.37806 0.18065 0.0
C895 C 0.13965 0.38036 0.16626 0.0
H896 H 0.08105 0.36411 0.18466 0.0
H897 H 0.27538 0.37982 0.04368 0.0
H898 H 0.5693 0.23641 0.86646 0.0
H899 H 0.55438 0.19869 0.88428 0.0
H900 H 0.61774 0.20915 0.92773 0.0
H901 H 0.63347 0.24595 0.90912 0.0
H902 H 0.60929 0.1667 0.91554 0.0
H903 H 0.55826 0.2169 0.94528 0.0
H904 H 0.52969 0.24424 0.94365 0.0
H905 H 0.47695 0.19296 0.90908 0.0
H906 H 0.50535 0.16541 0.91026 0.0
H907 H 0.5652 0.08615 1.00305 0.0
H908 H 0.57872 0.12185 0.9814 0.0
H909 H 0.52052 0.10029 0.93342 0.0
H910 H 0.50689 0.06442 0.95493 0.0
H911 H 0.52511 0.14694 0.94626 0.0
H912 H 0.57707 0.09607 0.91923 0.0
H913 H 0.60604 0.06934 0.92322 0.0
H914 H 0.65778 0.12322 0.95561 0.0
H915 H 0.62896 0.15019 0.9521 0.0
C916 C 0.58025 0.2306 0.8796 0.0
C917 C 0.60253 0.24459 0.88643 0.0
C918 C 0.5715 0.20906 0.89003 0.0
C919 C 0.58462 0.20109 0.90777 0.0
C920 C 0.60708 0.21481 0.91425 0.0
C921 C 0.61594 0.23613 0.9037 0.0
C922 C 0.57522 0.17852 0.91963 0.0
C923 C 0.59095 0.16259 0.92244 0.0
C924 C 0.55113 0.17268 0.92837 0.0
C925 C 0.53403 0.1892 0.92763 0.0
C926 C 0.54064 0.21153 0.93717 0.0
C927 C 0.52447 0.22704 0.93636 0.0
C928 C 0.50155 0.22037 0.9262 0.0
C929 C 0.49473 0.19813 0.9169 0.0
C930 C 0.51085 0.18255 0.91765 0.0
C931 C 0.55525 0.08892 0.98788 0.0
C932 C 0.53499 0.07226 0.98073 0.0
C933 C 0.56306 0.10937 0.97547 0.0
C934 C 0.55077 0.11374 0.95565 0.0
C935 C 0.53033 0.09732 0.94862 0.0
C936 C 0.52263 0.07674 0.96091 0.0
C937 C 0.55929 0.13543 0.94231 0.0
C938 C 0.5434 0.15112 0.93923 0.0
C939 C 0.58334 0.14121 0.93361 0.0
C940 C 0.60077 0.12508 0.93557 0.0
C941 C 0.59455 0.10217 0.92735 0.0
C942 C 0.61096 0.08698 0.9295 0.0
C943 C 0.63371 0.09456 0.93971 0.0
C944 C 0.64013 0.11736 0.94773 0.0
C945 C 0.62378 0.13261 0.94564 0.0
H946 H 0.64639 0.08278 0.94136 0.0
H947 H 0.48905 0.2324 0.92559 0.0
H948 H 0.95164 0.78353 0.3759 0.0
H949 H 0.96719 0.82042 0.39523 0.0
H950 H 0.89396 0.82435 0.41599 0.0
H951 H 0.87823 0.78813 0.39602 0.0
H952 H 0.91682 0.8659 0.4039 0.0
H953 H 0.93634 0.80602 0.45232 0.0
H954 H 0.95455 0.77208 0.46202 0.0
H955 H 0.02592 0.81075 0.4458 0.0
H956 H 0.00807 0.84484 0.43572 0.0
H957 H 0.94513 0.94926 0.49261 0.0
H958 H 0.93071 0.91392 0.47052 0.0
H959 H 1.00479 0.91256 0.4505 0.0
H960 H 0.01937 0.94758 0.47281 0.0
H961 H 0.98237 0.87017 0.46139 0.0
H962 H 0.96285 0.93053 0.41401 0.0
H963 H 0.94453 0.96454 0.40482 0.0
H964 H 0.87308 0.92505 0.41937 0.0
H965 H 0.89101 0.89089 0.42895 0.0
C966 C 0.93879 0.79237 0.38432 0.0
C967 C 0.91366 0.78257 0.38454 0.0
C968 C 0.94775 0.81341 0.39561 0.0
C969 C 0.93185 0.82511 0.4075 0.0
C970 C 0.9067 0.81571 0.40712 0.0
C971 C 0.89774 0.79478 0.39583 0.0
C972 C 0.94123 0.84693 0.42059 0.0
C973 C 0.93098 0.86671 0.41663 0.0
C974 C 0.96008 0.84834 0.43695 0.0
C975 C 0.97084 0.82789 0.44304 0.0
C976 C 0.95589 0.80722 0.45066 0.0
C977 C 0.96615 0.78797 0.45625 0.0
C978 C 0.99136 0.78924 0.45446 0.0
C979 C 0.00638 0.80978 0.44714 0.0
C980 C 0.99621 0.82908 0.4415 0.0
C981 C 0.95838 0.9415 0.48347 0.0
C982 C 0.98345 0.95143 0.4845 0.0
C983 C 0.95008 0.92129 0.47073 0.0
C984 C 0.96659 0.9106 0.45853 0.0
C985 C 0.99162 0.92038 0.4597 0.0
C986 C 0.99994 0.94053 0.47246 0.0
C987 C 0.9579 0.88912 0.44475 0.0
C988 C 0.96827 0.86939 0.44859 0.0
C989 C 0.93915 0.88776 0.4283 0.0
C990 C 0.9283 0.90822 0.4224 0.0
C991 C 0.94325 0.92915 0.4154 0.0
C992 C 0.93293 0.94845 0.4101 0.0
C993 C 0.90766 0.94697 0.41156 0.0
C994 C 0.89265 0.92618 0.41827 0.0
C995 C 0.90288 0.90684 0.42361 0.0
H996 H 0.89971 0.96193 0.40746 0.0
H997 H 0.99927 0.77432 0.45881 0.0
H998 H 0.30429 0.71477 0.66456 0.0
H999 H 0.33278 0.69535 0.64419 0.0
H1000 H 0.27227 0.64871 0.61339 0.0
H1001 H 0.24344 0.66837 0.63381 0.0
H1002 H 0.30984 0.62673 0.63312 0.0
H1003 H 0.30206 0.68644 0.58051 0.0
H1004 H 0.30049 0.72633 0.56821 0.0
H1005 H 0.37433 0.74976 0.59085 0.0
H1006 H 0.37623 0.71006 0.60361 0.0
H1007 H 0.40013 0.58236 0.56905 0.0
H1008 H 0.36355 0.59734 0.57925 0.0
H1009 H 0.40888 0.65933 0.60644 0.0
H1010 H 0.44542 0.64509 0.59518 0.0
H1011 H 0.37334 0.67052 0.58257 0.0
H1012 H 0.37958 0.61276 0.63951 0.0
H1013 H 0.3812 0.57361 0.65398 0.0
H1014 H 0.31063 0.54703 0.62518 0.0
H1015 H 0.30881 0.58595 0.61012 0.0
C1016 C 0.29704 0.70038 0.65344 0.0
C1017 C 0.2717 0.69296 0.65081 0.0
C1018 C 0.31331 0.6894 0.64174 0.0
C1019 C 0.3046 0.6707 0.62723 0.0
C1020 C 0.27929 0.66317 0.6245 0.0
C1021 C 0.26291 0.67442 0.63604 0.0
C1022 C 0.32231 0.65895 0.61553 0.0
C1023 C 0.32342 0.63604 0.62161 0.0
C1024 C 0.34021 0.67135 0.60091 0.0
C1025 C 0.33922 0.69527 0.59315 0.0
C1026 C 0.3179 0.70012 0.58303 0.0
C1027 C 0.31697 0.7227 0.57594 0.0
C1028 C 0.33729 0.74057 0.57878 0.0
C1029 C 0.3586 0.73589 0.58866 0.0
C1030 C 0.35963 0.71335 0.5958 0.0
C1031 C 0.40231 0.59932 0.57694 0.0
C1032 C 0.42576 0.61252 0.5813 0.0
C1033 C 0.38136 0.60773 0.583 0.0
C1034 C 0.38344 0.62935 0.59383 0.0
C1035 C 0.4068 0.64258 0.59812 0.0
C1036 C 0.42771 0.63429 0.59189 0.0
C1037 C 0.36147 0.63849 0.60074 0.0
C1038 C 0.35954 0.66096 0.59371 0.0
C1039 C 0.34294 0.62569 0.61463 0.0
C1040 C 0.3442 0.60222 0.62342 0.0
C1041 C 0.36452 0.59852 0.63604 0.0
C1042 C 0.36545 0.57638 0.64439 0.0
C1043 C 0.34604 0.55785 0.64049 0.0
C1044 C 0.32564 0.56141 0.62821 0.0
C1045 C 0.32468 0.5835 0.61971 0.0
H1046 H 0.34679 0.54072 0.64697 0.0
H1047 H 0.33653 0.75804 0.57328 0.0
H1048 H 0.76174 0.77915 0.70953 0.0
H1049 H 0.78446 0.80013 0.67803 0.0
H1050 H 0.76683 0.86436 0.7024 0.0
H1051 H 0.74456 0.84372 0.73404 0.0
H1052 H 0.76316 0.86049 0.65605 0.0
H1053 H 0.82066 0.85053 0.7153 0.0
H1054 H 0.8408 0.82742 0.74155 0.0
H1055 H 0.86471 0.79086 0.68551 0.0
H1056 H 0.84441 0.81357 0.65894 0.0
H1057 H 0.85399 0.95218 0.61874 0.0
H1058 H 0.82513 0.92275 0.63882 0.0
H1059 H 0.85839 0.86887 0.60959 0.0
H1060 H 0.8883 0.89848 0.59025 0.0
H1061 H 0.85242 0.86202 0.65311 0.0
H1062 H 0.80031 0.8767 0.59338 0.0
H1063 H 0.78052 0.90028 0.56734 0.0
H1064 H 0.7464 0.92789 0.62346 0.0
H1065 H 0.76626 0.90474 0.64988 0.0
C1066 C 0.76266 0.79773 0.70815 0.0
C1067 C 0.75142 0.80976 0.72439 0.0
C1068 C 0.77555 0.80966 0.6901 0.0
C1069 C 0.77745 0.83381 0.68801 0.0
C1070 C 0.76546 0.84569 0.70365 0.0
C1071 C 0.75266 0.83383 0.7217 0.0
C1072 C 0.79314 0.84712 0.67046 0.0
C1073 C 0.78269 0.86091 0.65538 0.0
C1074 C 0.81848 0.84708 0.66921 0.0
C1075 C 0.83077 0.83353 0.68517 0.0
C1076 C 0.83004 0.83743 0.70859 0.0
C1077 C 0.84151 0.82443 0.72352 0.0
C1078 C 0.85396 0.80763 0.71521 0.0
C1079 C 0.85502 0.80385 0.69193 0.0
C1080 C 0.84354 0.81677 0.67693 0.0
C1081 C 0.85526 0.93409 0.61659 0.0
C1082 C 0.87362 0.92772 0.60302 0.0
C1083 C 0.83847 0.91722 0.62783 0.0
C1084 C 0.83933 0.89354 0.62548 0.0
C1085 C 0.85729 0.88704 0.61155 0.0
C1086 C 0.87426 0.90396 0.60038 0.0
C1087 C 0.82258 0.87591 0.63891 0.0
C1088 C 0.83282 0.8613 0.65331 0.0
C1089 C 0.79703 0.87519 0.63948 0.0
C1090 C 0.78489 0.88905 0.62363 0.0
C1091 C 0.78871 0.88791 0.60019 0.0
C1092 C 0.77746 0.90119 0.58535 0.0
C1093 C 0.76224 0.9156 0.59374 0.0
C1094 C 0.75819 0.91672 0.61698 0.0
C1095 C 0.76941 0.90349 0.63189 0.0
H1096 H 0.75355 0.92587 0.58223 0.0
H1097 H 0.86283 0.79759 0.72679 0.0
H1098 H 0.72348 0.22051 0.24512 0.0
H1099 H 0.69779 0.19911 0.21572 0.0
H1100 H 0.76083 0.17744 0.18678 0.0
H1101 H 0.78691 0.19949 0.21583 0.0
H1102 H 0.73011 0.18936 0.1542 0.0
H1103 H 0.7237 0.1412 0.22052 0.0
H1104 H 0.71624 0.13197 0.26086 0.0
H1105 H 0.64279 0.14362 0.25435 0.0
H1106 H 0.64994 0.15325 0.21401 0.0
H1107 H 0.67067 0.08987 0.09329 0.0
H1108 H 0.69592 0.11794 0.11819 0.0
H1109 H 0.63099 0.13557 0.14752 0.0
H1110 H 0.60556 0.10689 0.12318 0.0
H1111 H 0.662 0.12719 0.17944 0.0
H1112 H 0.66781 0.17336 0.11229 0.0
H1113 H 0.67543 0.18212 0.07188 0.0
H1114 H 0.74988 0.17383 0.07964 0.0
H1115 H 0.74263 0.16468 0.12005 0.0
C1116 C 0.73201 0.21159 0.23226 0.0
C1117 C 0.75726 0.21166 0.23284 0.0
C1118 C 0.71725 0.1992 0.21559 0.0
C1119 C 0.72737 0.18646 0.19928 0.0
C1120 C 0.75267 0.18711 0.19929 0.0
C1121 C 0.76749 0.19954 0.21599 0.0
C1122 C 0.71135 0.17165 0.18286 0.0
C1123 C 0.71537 0.1756 0.15966 0.0
C1124 C 0.69181 0.15405 0.19007 0.0
C1125 C 0.68744 0.14818 0.2143 0.0
C1126 C 0.70602 0.14198 0.22773 0.0
C1127 C 0.70184 0.13664 0.25059 0.0
C1128 C 0.67908 0.13727 0.26018 0.0
C1129 C 0.66043 0.14318 0.2469 0.0
C1130 C 0.66453 0.14856 0.22404 0.0
C1131 C 0.66175 0.09973 0.10503 0.0
C1132 C 0.63611 0.09605 0.10635 0.0
C1133 C 0.67622 0.11596 0.11907 0.0
C1134 C 0.66534 0.12899 0.13458 0.0
C1135 C 0.63975 0.12574 0.13561 0.0
C1136 C 0.62525 0.10947 0.12158 0.0
C1137 C 0.68066 0.14489 0.15069 0.0
C1138 C 0.67659 0.14107 0.17389 0.0
C1139 C 0.70015 0.16255 0.14345 0.0
C1140 C 0.70461 0.16814 0.11917 0.0
C1141 C 0.68576 0.17322 0.10535 0.0
C1142 C 0.69002 0.17829 0.08245 0.0
C1143 C 0.71311 0.17848 0.07319 0.0
C1144 C 0.732 0.17366 0.08683 0.0
C1145 C 0.72783 0.16856 0.10974 0.0
H1146 H 0.71637 0.18241 0.05546 0.0
H1147 H 0.67587 0.13313 0.27788 0.0
H1148 H 0.41241 0.59265 0.29362 0.0
H1149 H 0.42656 0.57548 0.32756 0.0
H1150 H 0.42259 0.63779 0.36512 0.0
H1151 H 0.40883 0.65524 0.331 0.0
H1152 H 0.46189 0.62337 0.37747 0.0
H1153 H 0.37835 0.58571 0.36982 0.0
H1154 H 0.34184 0.56378 0.35057 0.0
H1155 H 0.37795 0.50594 0.34125 0.0
H1156 H 0.41482 0.52766 0.36018 0.0
H1157 H 0.46954 0.57068 0.48596 0.0
H1158 H 0.45395 0.58884 0.45313 0.0
H1159 H 0.46652 0.53227 0.41093 0.0
H1160 H 0.48221 0.51407 0.44357 0.0
H1161 H 0.42183 0.54431 0.40211 0.0
H1162 H 0.50574 0.58327 0.40974 0.0
H1163 H 0.54135 0.60549 0.43005 0.0
H1164 H 0.50284 0.66144 0.44078 0.0
H1165 H 0.46684 0.63938 0.42081 0.0
C1166 C 0.41441 0.60269 0.30912 0.0
C1167 C 0.40926 0.62532 0.30952 0.0
C1168 C 0.42248 0.5928 0.32861 0.0
C1169 C 0.42525 0.60506 0.34922 0.0
C1170 C 0.42059 0.62785 0.34956 0.0
C1171 C 0.41274 0.63785 0.32997 0.0
C1172 C 0.43302 0.59413 0.3703 0.0
C1173 C 0.45282 0.60623 0.38298 0.0
C1174 C 0.4216 0.57156 0.37756 0.0
C1175 C 0.39943 0.55841 0.36623 0.0
C1176 C 0.37857 0.56838 0.36352 0.0
C1177 C 0.3578 0.55598 0.35269 0.0
C1178 C 0.3576 0.5335 0.34464 0.0
C1179 C 0.37815 0.52336 0.34747 0.0
C1180 C 0.39898 0.5357 0.35826 0.0
C1181 C 0.46886 0.562 0.46974 0.0
C1182 C 0.47723 0.54088 0.4675 0.0
C1183 C 0.46003 0.57249 0.45092 0.0
C1184 C 0.45922 0.56208 0.42941 0.0
C1185 C 0.46696 0.54071 0.42727 0.0
C1186 C 0.476 0.53033 0.44601 0.0
C1187 C 0.45067 0.57352 0.40908 0.0
C1188 C 0.43076 0.5615 0.39658 0.0
C1189 C 0.46183 0.59623 0.40212 0.0
C1190 C 0.4835 0.60957 0.41399 0.0
C1191 C 0.50479 0.60023 0.41659 0.0
C1192 C 0.52506 0.61281 0.42801 0.0
C1193 C 0.52433 0.63484 0.43675 0.0
C1194 C 0.50336 0.64436 0.43403 0.0
C1195 C 0.48302 0.63183 0.42265 0.0
H1196 H 0.54005 0.64455 0.44559 0.0
H1197 H 0.3415 0.52393 0.33626 0.0
H1198 H 0.08594 0.41424 0.79182 0.0
H1199 H 0.07191 0.43234 0.82558 0.0
H1200 H 0.12858 0.41068 0.86506 0.0
H1201 H 0.14309 0.39307 0.83124 0.0
H1202 H 0.077 0.40134 0.88428 0.0
H1203 H 0.13948 0.46258 0.85329 0.0
H1204 H 0.15832 0.48853 0.82272 0.0
H1205 H 0.09278 0.51644 0.81638 0.0
H1206 H 0.07341 0.49038 0.8467 0.0
H1207 H 0.06249 0.46133 0.98552 0.0
H1208 H 0.07907 0.44457 0.95252 0.0
H1209 H 0.04844 0.49083 0.90902 0.0
H1210 H 0.03368 0.50887 0.94227 0.0
H1211 H 0.08702 0.48706 0.891 0.0
H1212 H 0.02289 0.4278 0.91894 0.0
H1213 H 0.99995 0.40106 0.94699 0.0
H1214 H 0.06185 0.36818 0.95607 0.0
H1215 H 0.08527 0.39492 0.92827 0.0
C1216 C 0.09536 0.41327 0.80772 0.0
C1217 C 0.11565 0.40222 0.80883 0.0
C1218 C 0.08737 0.42368 0.82698 0.0
C1219 C 0.09919 0.4229 0.84789 0.0
C1220 C 0.11916 0.41151 0.84915 0.0
C1221 C 0.1275 0.40154 0.82978 0.0
C1222 C 0.09085 0.43416 0.86836 0.0
C1223 C 0.07943 0.42009 0.88594 0.0
C1224 C 0.0932 0.45857 0.87017 0.0
C1225 C 0.10492 0.47436 0.8521 0.0
C1226 C 0.12901 0.4741 0.84524 0.0
C1227 C 0.1398 0.48886 0.82799 0.0
C1228 C 0.12674 0.50408 0.81757 0.0
C1229 C 0.10287 0.50462 0.82444 0.0
C1230 C 0.09199 0.48987 0.84167 0.0
C1231 C 0.05949 0.46803 0.9689 0.0
C1232 C 0.04674 0.4864 0.96651 0.0
C1233 C 0.06874 0.45823 0.94991 0.0
C1234 C 0.06449 0.46577 0.92789 0.0
C1235 C 0.05207 0.48447 0.92561 0.0
C1236 C 0.04356 0.49482 0.94468 0.0
C1237 C 0.07294 0.45429 0.90732 0.0
C1238 C 0.08443 0.46829 0.88958 0.0
C1239 C 0.06998 0.42972 0.90507 0.0
C1240 C 0.05591 0.41351 0.92169 0.0
C1241 C 0.03165 0.41495 0.92702 0.0
C1242 C 0.01856 0.39979 0.94286 0.0
C1243 C 0.02946 0.38297 0.95335 0.0
C1244 C 0.05345 0.38124 0.94796 0.0
C1245 C 0.06663 0.39637 0.93214 0.0
H1246 H 0.0193 0.37126 0.96562 0.0
H1247 H 0.13512 0.51549 0.80422 0.0
H1248 H 0.60023 0.80297 0.89874 0.0
H1249 H 0.57794 0.82889 0.91931 0.0
H1250 H 0.63941 0.88551 0.9115 0.0
H1251 H 0.66156 0.85984 0.89085 0.0
H1252 H 0.61889 0.88108 0.95583 0.0
H1253 H 0.59409 0.88354 0.87733 0.0
H1254 H 0.57675 0.86595 0.84157 0.0
H1255 H 0.50924 0.83818 0.87518 0.0
H1256 H 0.52634 0.85534 0.91124 0.0
H1257 H 0.57466 0.98287 0.97722 0.0
H1258 H 0.59237 0.95248 0.95922 0.0
H1259 H 0.5222 0.90613 0.96095 0.0
H1260 H 0.50414 0.93671 0.97849 0.0
H1261 H 0.54431 0.9017 0.92204 0.0
H1262 H 0.56659 0.90109 0.99962 0.0
H1263 H 0.58295 0.91767 0.03607 0.0
H1264 H 0.65366 0.93982 1.00605 0.0
H1265 H 0.63763 0.92368 0.9693 0.0
C1266 C 0.60898 0.82091 0.90162 0.0
C1267 C 0.6325 0.82951 0.89313 0.0
C1268 C 0.59625 0.83567 0.91325 0.0
C1269 C 0.60703 0.8591 0.91678 0.0
C1270 C 0.6308 0.86748 0.90892 0.0
C1271 C 0.64335 0.85287 0.89704 0.0
C1272 C 0.59345 0.87525 0.92809 0.0
C1273 C 0.60267 0.88573 0.94842 0.0
C1274 C 0.57189 0.88069 0.9187 0.0
C1275 C 0.56159 0.87047 0.89702 0.0
C1276 C 0.57563 0.8735 0.87714 0.0
C1277 C 0.56583 0.86365 0.85681 0.0
C1278 C 0.54194 0.85089 0.85612 0.0
C1279 C 0.52777 0.84803 0.87575 0.0
C1280 C 0.53749 0.85781 0.89614 0.0
C1281 C 0.56293 0.96627 0.97367 0.0
C1282 C 0.53802 0.96216 0.97943 0.0
C1283 C 0.57312 0.94886 0.96348 0.0
C1284 C 0.55873 0.92685 0.95918 0.0
C1285 C 0.53367 0.92293 0.96423 0.0
C1286 C 0.52339 0.94044 0.97425 0.0
C1287 C 0.57001 0.90797 0.94965 0.0
C1288 C 0.56036 0.89691 0.92966 0.0
C1289 C 0.59103 0.90177 0.95952 0.0
C1290 C 0.60085 0.91132 0.98165 0.0
C1291 C 0.58559 0.90963 1.00075 0.0
C1292 C 0.59481 0.91894 0.02147 0.0
C1293 C 0.61932 0.92984 0.02336 0.0
C1294 C 0.63467 0.93139 1.00455 0.0
C1295 C 0.62554 0.92214 0.98377 0.0
H1296 H 0.62642 0.93704 0.03942 0.0
H1297 H 0.53438 0.84329 0.84036 0.0
H1298 H 0.87101 0.18957 0.41955 0.0
H1299 H 0.89318 0.163 0.43864 0.0
H1300 H 0.94576 0.17096 0.38438 0.0
H1301 H 0.92353 0.19755 0.36509 0.0
H1302 H 0.93152 0.12619 0.39516 0.0
H1303 H 0.96052 0.19647 0.43613 0.0
H1304 H 0.95705 0.23167 0.45781 0.0
H1305 H 0.9167 0.18944 0.50953 0.0
H1306 H 0.91963 0.15398 0.48801 0.0
H1307 H 0.00912 0.06354 0.45688 0.0
H1308 H 0.99353 0.09357 0.43571 0.0
H1309 H 0.93656 0.09232 0.48525 0.0
H1310 H 0.95214 0.06275 0.50661 0.0
H1311 H 0.95732 0.13582 0.47544 0.0
H1312 H 0.92539 0.066 0.43309 0.0
H1313 H 0.92839 0.03065 0.41144 0.0
H1314 H 0.97412 0.07204 0.36244 0.0
H1315 H 0.97165 0.10763 0.38398 0.0
C1316 C 0.88752 0.18598 0.41186 0.0
C1317 C 0.89557 0.19575 0.39086 0.0
C1318 C 0.90017 0.17075 0.42277 0.0
C1319 C 0.9213 0.16518 0.41307 0.0
C1320 C 0.9295 0.17501 0.39217 0.0
C1321 C 0.91677 0.19017 0.38118 0.0
C1322 C 0.93429 0.14847 0.42445 0.0
C1323 C 0.93758 0.1285 0.4126 0.0
C1324 C 0.94181 0.15128 0.4473 0.0
C1325 C 0.94015 0.17257 0.46037 0.0
C1326 C 0.95076 0.19469 0.45206 0.0
C1327 C 0.94891 0.21469 0.46433 0.0
C1328 C 0.93662 0.21279 0.48502 0.0
C1329 C 0.92621 0.19088 0.4935 0.0
C1330 C 0.92798 0.17083 0.48129 0.0
C1331 C 0.99319 0.06957 0.46319 0.0
C1332 C 0.98188 0.06071 0.48344 0.0
C1333 C 0.98429 0.08671 0.45106 0.0
C1334 C 0.96379 0.0951 0.45884 0.0
C1335 C 0.95245 0.08619 0.47897 0.0
C1336 C 0.96137 0.06919 0.49113 0.0
C1337 C 0.9541 0.11335 0.44631 0.0
C1338 C 0.95148 0.13363 0.45794 0.0
C1339 C 0.94717 0.1108 0.42328 0.0
C1340 C 0.94856 0.08944 0.41027 0.0
C1341 C 0.93624 0.06754 0.41779 0.0
C1342 C 0.93782 0.04747 0.40553 0.0
C1343 C 0.9515 0.04909 0.38562 0.0
C1344 C 0.96357 0.0708 0.37789 0.0
C1345 C 0.96207 0.09093 0.39011 0.0
H1346 H 0.9527 0.03353 0.37614 0.0
H1347 H 0.93521 0.2283 0.49449 0.0
H1348 H 0.26306 0.57858 0.15363 0.0
H1349 H 0.22649 0.55998 0.1327 0.0
H1350 H 0.20148 0.62524 0.13096 0.0
H1351 H 0.2375 0.6437 0.15232 0.0
H1352 H 0.16438 0.59052 0.14012 0.0
H1353 H 0.22917 0.60488 0.08496 0.0
H1354 H 0.26933 0.60209 0.06895 0.0
H1355 H 0.24852 0.52763 0.06695 0.0
H1356 H 0.20832 0.52997 0.08325 0.0
H1357 H 0.07792 0.57328 0.05185 0.0
H1358 H 0.11518 0.58714 0.07354 0.0
H1359 H 0.13055 0.51774 0.07455 0.0
H1360 H 0.09323 0.50364 0.05277 0.0
H1361 H 0.17228 0.55133 0.06685 0.0
H1362 H 0.10661 0.53704 0.11982 0.0
H1363 H 0.06615 0.53986 0.13512 0.0
H1364 H 0.08864 0.61394 0.14126 0.0
H1365 H 0.12903 0.61162 0.12557 0.0
C1366 C 0.24963 0.5889 0.14902 0.0
C1367 C 0.25338 0.61271 0.15452 0.0
C1368 C 0.22882 0.57829 0.13686 0.0
C1369 C 0.21132 0.59126 0.12992 0.0
C1370 C 0.21471 0.61485 0.13598 0.0
C1371 C 0.23547 0.62544 0.14806 0.0
C1372 C 0.18958 0.58053 0.11617 0.0
C1373 C 0.16618 0.58215 0.12401 0.0
C1374 C 0.19173 0.56902 0.09538 0.0
C1375 C 0.21586 0.56759 0.08556 0.0
C1376 C 0.23323 0.58791 0.08128 0.0
C1377 C 0.25599 0.58641 0.07212 0.0
C1378 C 0.26151 0.5647 0.067 0.0
C1379 C 0.24424 0.54444 0.07097 0.0
C1380 C 0.22147 0.54584 0.08016 0.0
C1381 C 0.08929 0.56094 0.05646 0.0
C1382 C 0.08243 0.53729 0.0506 0.0
C1383 C 0.11058 0.5689 0.06897 0.0
C1384 C 0.12554 0.55344 0.07594 0.0
C1385 C 0.11928 0.52999 0.06942 0.0
C1386 C 0.09788 0.52196 0.05699 0.0
C1387 C 0.14721 0.56172 0.09065 0.0
C1388 C 0.17053 0.55958 0.08303 0.0
C1389 C 0.14501 0.57274 0.11166 0.0
C1390 C 0.12079 0.57418 0.12133 0.0
C1391 C 0.10285 0.55396 0.12426 0.0
C1392 C 0.07992 0.55546 0.13301 0.0
C1393 C 0.07477 0.57706 0.1391 0.0
C1394 C 0.09258 0.59721 0.13649 0.0
C1395 C 0.11551 0.59582 0.12768 0.0
H1396 H 0.05702 0.57814 0.14591 0.0
H1397 H 0.27913 0.56357 0.0599 0.0
H1398 H 0.26691 0.38187 0.62789 0.0
H1399 H 0.3034 0.3988 0.60688 0.0
H1400 H 0.3103 0.4618 0.64616 0.0
H1401 H 0.27264 0.44547 0.6664 0.0
H1402 H 0.32069 0.47308 0.60422 0.0
H1403 H 0.34738 0.42018 0.65522 0.0
H1404 H 0.34702 0.38292 0.67471 0.0
H1405 H 0.3573 0.35033 0.61134 0.0
H1406 H 0.35739 0.38734 0.59142 0.0
H1407 H 0.44468 0.51577 0.57402 0.0
H1408 H 0.40677 0.50044 0.59382 0.0
H1409 H 0.39433 0.44048 0.54996 0.0
H1410 H 0.43269 0.45566 0.53004 0.0
H1411 H 0.38722 0.42844 0.59458 0.0
H1412 H 0.35961 0.48286 0.54408 0.0
H1413 H 0.36246 0.52133 0.5262 0.0
H1414 H 0.35719 0.55249 0.59122 0.0
H1415 H 0.35418 0.51415 0.60955 0.0
C1416 C 0.27586 0.39948 0.63194 0.0
C1417 C 0.26653 0.41226 0.64891 0.0
C1418 C 0.29708 0.40905 0.62006 0.0
C1419 C 0.31002 0.4315 0.6251 0.0
C1420 C 0.30079 0.44441 0.64196 0.0
C1421 C 0.27933 0.43491 0.65373 0.0
C1422 C 0.33302 0.4414 0.61264 0.0
C1423 C 0.33533 0.46339 0.60241 0.0
C1424 C 0.35219 0.42879 0.60989 0.0
C1425 C 0.35215 0.40649 0.6218 0.0
C1426 C 0.34937 0.40502 0.64542 0.0
C1427 C 0.34925 0.38396 0.65655 0.0
C1428 C 0.35207 0.36425 0.64427 0.0
C1429 C 0.35508 0.3656 0.62083 0.0
C1430 C 0.35519 0.38662 0.60961 0.0
C1431 C 0.43391 0.49935 0.56841 0.0
C1432 C 0.44185 0.48695 0.55037 0.0
C1433 C 0.41207 0.49066 0.57974 0.0
C1434 C 0.39749 0.46939 0.5733 0.0
C1435 C 0.40523 0.45697 0.55521 0.0
C1436 C 0.42712 0.46572 0.54377 0.0
C1437 C 0.37464 0.45984 0.58599 0.0
C1438 C 0.37247 0.438 0.59635 0.0
C1439 C 0.35581 0.47273 0.58913 0.0
C1440 C 0.35678 0.49566 0.57818 0.0
C1441 C 0.35905 0.49792 0.55457 0.0
C1442 C 0.36064 0.51968 0.54437 0.0
C1443 C 0.35993 0.53932 0.5576 0.0
C1444 C 0.35755 0.53722 0.58104 0.0
C1445 C 0.35582 0.51547 0.59134 0.0
H1446 H 0.36124 0.55616 0.54968 0.0
H1447 H 0.35197 0.34796 0.65292 0.0
H1448 H 0.76448 0.70181 0.92136 0.0
H1449 H 0.79305 0.68192 0.941 0.0
H1450 H 0.80579 0.64722 0.87905 0.0
H1451 H 0.77602 0.66578 0.85965 0.0
H1452 H 0.80712 0.61895 0.91286 0.0
H1453 H 0.84361 0.69894 0.8973 0.0
H1454 H 0.84664 0.74149 0.89873 0.0
H1455 H 0.84911 0.73971 0.97125 0.0
H1456 H 0.84577 0.69708 0.97025 0.0
H1457 H 0.92873 0.60189 0.92803 0.0
H1458 H 0.89183 0.61512 0.9155 0.0
H1459 H 0.88055 0.63843 0.98317 0.0
H1460 H 0.91763 0.62539 0.99578 0.0
H1461 H 0.87643 0.67117 0.9503 0.0
H1462 H 0.84487 0.59058 0.96454 0.0
H1463 H 0.84363 0.54838 0.96159 0.0
H1464 H 0.83394 0.55153 0.88973 0.0
H1465 H 0.83546 0.59385 0.89219 0.0
C1466 C 0.77281 0.68947 0.91202 0.0
C1467 C 0.76819 0.68572 0.88878 0.0
C1468 C 0.78941 0.67831 0.92324 0.0
C1469 C 0.80208 0.66355 0.91137 0.0
C1470 C 0.79643 0.65871 0.88854 0.0
C1471 C 0.7796 0.66958 0.87739 0.0
C1472 C 0.82234 0.65435 0.92219 0.0
C1473 C 0.82234 0.63039 0.92092 0.0
C1474 C 0.84205 0.66919 0.93308 0.0
C1475 C 0.84416 0.69482 0.9337 0.0
C1476 C 0.84463 0.70761 0.91355 0.0
C1477 C 0.84643 0.73174 0.91428 0.0
C1478 C 0.84799 0.74329 0.93507 0.0
C1479 C 0.84784 0.73074 0.95516 0.0
C1480 C 0.84601 0.7066 0.95453 0.0
C1481 C 0.91846 0.60995 0.9402 0.0
C1482 C 0.92606 0.61267 0.96286 0.0
C1483 C 0.89727 0.61728 0.93308 0.0
C1484 C 0.88335 0.62751 0.94848 0.0
C1485 C 0.89099 0.63044 0.97108 0.0
C1486 C 0.91208 0.62293 0.97826 0.0
C1487 C 0.8613 0.63588 0.94072 0.0
C1488 C 0.86103 0.6597 0.94251 0.0
C1489 C 0.84155 0.62094 0.93008 0.0
C1490 C 0.84046 0.59545 0.92854 0.0
C1491 C 0.84265 0.58232 0.94808 0.0
C1492 C 0.84187 0.55837 0.9465 0.0
C1493 C 0.83874 0.54729 0.92549 0.0
C1494 C 0.83636 0.56014 0.906 0.0
C1495 C 0.83715 0.58411 0.90748 0.0
H1496 H 0.83808 0.52874 0.92432 0.0
H1497 H 0.84939 0.76197 0.9356 0.0
H1498 H 0.45176 0.77929 0.16027 0.0
H1499 H 0.46759 0.81527 0.13961 0.0
H1500 H 0.39521 0.83115 0.13754 0.0
H1501 H 0.37934 0.79541 0.15821 0.0
H1502 H 0.41583 0.83763 0.09692 0.0
H1503 H 0.44037 0.86044 0.17291 0.0
H1504 H 0.46051 0.8573 0.20961 0.0
H1505 H 0.52987 0.86332 0.17636 0.0
H1506 H 0.51008 0.8662 0.13941 0.0
H1507 H 0.44633 0.95424 0.05816 0.0
H1508 H 0.43196 0.91928 0.08062 0.0
H1509 H 0.50553 0.90642 0.08416 0.0
H1510 H 0.52013 0.9417 0.06229 0.0
H1511 H 0.48486 0.89802 0.12372 0.0
H1512 H 0.4608 0.8755 0.04782 0.0
H1513 H 0.44107 0.87921 1.01101 0.0
H1514 H 0.3713 0.87238 0.04365 0.0
H1515 H 0.39067 0.86897 0.08071 0.0
C1516 C 0.43927 0.79061 0.15573 0.0
C1517 C 0.41422 0.78429 0.16087 0.0
C1518 C 0.44835 0.81119 0.14383 0.0
C1519 C 0.43264 0.82607 0.13697 0.0
C1520 C 0.40772 0.81997 0.14243 0.0
C1521 C 0.39866 0.79944 0.15426 0.0
C1522 C 0.4419 0.84773 0.12373 0.0
C1523 C 0.43074 0.85095 0.10294 0.0
C1524 C 0.46177 0.86495 0.13118 0.0
C1525 C 0.4737 0.86329 0.15338 0.0
C1526 C 0.45989 0.86091 0.17341 0.0
C1527 C 0.47124 0.85921 0.19426 0.0
C1528 C 0.49644 0.86005 0.19531 0.0
C1529 C 0.51035 0.86265 0.17552 0.0
C1530 C 0.49907 0.86433 0.15462 0.0
C1531 C 0.45949 0.944 0.06371 0.0
C1532 C 0.48441 0.95084 0.05831 0.0
C1533 C 0.45121 0.92389 0.0765 0.0
C1534 C 0.46755 0.90987 0.08388 0.0
C1535 C 0.49249 0.91683 0.07872 0.0
C1536 C 0.50081 0.93705 0.06611 0.0
C1537 C 0.45873 0.88798 0.09695 0.0
C1538 C 0.46998 0.88469 0.11767 0.0
C1539 C 0.43901 0.87063 0.08939 0.0
C1540 C 0.42723 0.87219 0.06707 0.0
C1541 C 0.44127 0.87491 0.04716 0.0
C1542 C 0.43015 0.87696 0.02625 0.0
C1543 C 0.40496 0.8761 0.025 0.0
C1544 C 0.39082 0.87308 0.04465 0.0
C1545 C 0.40185 0.87106 0.06561 0.0
H1546 H 0.39639 0.87774 1.0088 0.0
H1547 H 0.5052 0.85873 0.21147 0.0
H1548 H 0.13642 0.24601 0.63594 0.0
H1549 H 0.12098 0.20927 0.6168 0.0
H1550 H 0.05381 0.20168 0.65447 0.0
H1551 H 0.06887 0.23896 0.6734 0.0
H1552 H 0.0722 0.16014 0.65172 0.0
H1553 H 0.0543 0.21892 0.60103 0.0
H1554 H 0.06417 0.25483 0.5784 0.0
H1555 H 0.11646 0.22568 0.54018 0.0
H1556 H 0.10716 0.18971 0.56281 0.0
H1557 H 0.0067 0.06778 0.58476 0.0
H1558 H 0.02025 0.10392 0.6057 0.0
H1559 H 0.08229 0.12175 0.56121 0.0
H1560 H 0.06821 0.08606 0.53963 0.0
H1561 H 0.06536 0.15856 0.56809 0.0
H1562 H 0.08555 0.10088 0.61819 0.0
H1563 H 0.07803 0.06496 0.64095 0.0
H1564 H 0.02474 0.09146 0.68034 0.0
H1565 H 0.03171 0.12743 0.65761 0.0
C1566 C 0.11822 0.23678 0.64005 0.0
C1567 C 0.10381 0.24584 0.65607 0.0
C1568 C 0.10947 0.21561 0.62912 0.0
C1569 C 0.08609 0.20278 0.63393 0.0
C1570 C 0.0719 0.21127 0.65042 0.0
C1571 C 0.0806 0.2326 0.66131 0.0
C1572 C 0.07648 0.18075 0.6214 0.0
C1573 C 0.07035 0.15981 0.63346 0.0
C1574 C 0.07471 0.18016 0.5975 0.0
C1575 C 0.08018 0.2017 0.58375 0.0
C1576 C 0.06803 0.22024 0.58791 0.0
C1577 C 0.07351 0.24059 0.57507 0.0
C1578 C 0.09097 0.24256 0.5579 0.0
C1579 C 0.10295 0.22414 0.5535 0.0
C1580 C 0.09757 0.20376 0.56632 0.0
C1581 C 0.0233 0.07933 0.57947 0.0
C1582 C 0.0364 0.07389 0.56052 0.0
C1583 C 0.03114 0.10002 0.59158 0.0
C1584 C 0.05262 0.11558 0.58541 0.0
C1585 C 0.06568 0.11016 0.56644 0.0
C1586 C 0.05764 0.08964 0.55411 0.0
C1587 C 0.0612 0.13769 0.59834 0.0
C1588 C 0.06715 0.15874 0.58635 0.0
C1589 C 0.06313 0.13831 0.62229 0.0
C1590 C 0.05898 0.11675 0.63605 0.0
C1591 C 0.0721 0.09898 0.63161 0.0
C1592 C 0.06796 0.07862 0.64452 0.0
C1593 C 0.05087 0.0759 0.66204 0.0
C1594 C 0.03794 0.09357 0.66674 0.0
C1595 C 0.042 0.11396 0.65386 0.0
H1596 H 0.04769 0.06013 0.67201 0.0
H1597 H 0.09519 0.25833 0.54797 0.0
H1598 H 0.75175 0.36151 0.36283 0.0
H1599 H 0.7229 0.38145 0.3817 0.0
H1600 H 0.73153 0.34469 0.44348 0.0
H1601 H 0.7592 0.32344 0.42422 0.0
H1602 H 0.68588 0.34159 0.43563 0.0
H1603 H 0.75303 0.40545 0.43652 0.0
H1604 H 0.78775 0.43371 0.42129 0.0
H1605 H 0.73946 0.46008 0.37586 0.0
H1606 H 0.70448 0.43175 0.39058 0.0
H1607 H 0.60799 0.40431 0.49479 0.0
H1608 H 0.64518 0.39105 0.48305 0.0
H1609 H 0.63557 0.41431 0.41505 0.0
H1610 H 0.5985 0.42777 0.42672 0.0
H1611 H 0.684 0.42575 0.43013 0.0
H1612 H 0.61812 0.35858 0.42721 0.0
H1613 H 0.58364 0.33051 0.44313 0.0
H1614 H 0.63099 0.311 0.49392 0.0
H1615 H 0.66571 0.33921 0.47847 0.0
C1616 C 0.74759 0.35766 0.38046 0.0
C1617 C 0.75761 0.34061 0.39189 0.0
C1618 C 0.73132 0.36939 0.39136 0.0
C1619 C 0.72513 0.36477 0.41412 0.0
C1620 C 0.73602 0.34858 0.42591 0.0
C1621 C 0.75206 0.3366 0.41492 0.0
C1622 C 0.7056 0.37515 0.42485 0.0
C1623 C 0.68583 0.36009 0.43486 0.0
C1624 C 0.70514 0.39923 0.42347 0.0
C1625 C 0.72614 0.41633 0.41456 0.0
C1626 C 0.74983 0.41715 0.42316 0.0
C1627 C 0.76956 0.43321 0.41464 0.0
C1628 C 0.76582 0.44865 0.39759 0.0
C1629 C 0.74233 0.4481 0.38906 0.0
C1630 C 0.72254 0.43207 0.39751 0.0
C1631 C 0.61393 0.40677 0.47738 0.0
C1632 C 0.60026 0.41692 0.46162 0.0
C1633 C 0.6351 0.39913 0.4707 0.0
C1634 C 0.643 0.40157 0.44816 0.0
C1635 C 0.62975 0.41225 0.43252 0.0
C1636 C 0.60848 0.41973 0.43915 0.0
C1637 C 0.66448 0.39213 0.4406 0.0
C1638 C 0.68444 0.40734 0.43116 0.0
C1639 C 0.66526 0.36823 0.44264 0.0
C1640 C 0.64443 0.35118 0.45185 0.0
C1641 C 0.62113 0.34844 0.44189 0.0
C1642 C 0.60156 0.33248 0.4508 0.0
C1643 C 0.6051 0.31903 0.46957 0.0
C1644 C 0.62826 0.32146 0.47941 0.0
C1645 C 0.64789 0.33742 0.47058 0.0
H1646 H 0.58993 0.30669 0.47645 0.0
H1647 H 0.78112 0.46107 0.39101 0.0
loop_
_geom_bond_atom_site_label_1
_geom_bond_atom_site_label_2
_geom_bond_distance
_geom_bond_site_symmetry_2
_ccdc_geom_bond_type
C0 C1 1.384 . S
C0 H13 0.947 . S
C0 C35 1.382 . S
C1 C0 1.384 . S
C1 C2 1.378 . S
C2 C1 1.378 . S
C2 C3 1.378 . S
C2 H14 0.952 . S
C3 C2 1.378 . S
C3 H15 0.950 . S
C3 C34 1.383 . S
H4 C23 0.947 . S
H5 C24 0.946 . S
H6 C26 0.953 . S
H7 C27 0.945 . S
H8 C29 0.952 . S
H9 C30 0.949 . S
H10 C32 0.950 . S
H11 C33 0.948 . S
H12 C35 0.951 . S
H13 C0 0.947 . S
H14 C2 0.952 . S
H15 C3 0.950 . S
N16 C19 1.382 . S
N16 C21 1.363 . S
N17 C19 1.371 . S
N17 C20 1.372 . S
N18 C20 1.361 . S
N18 C21 1.377 . S
C19 N16 1.382 . S
C19 N17 1.371 . S
C19 C22 1.480 . S
C20 N17 1.372 . S
C20 N18 1.361 . S
C20 C28 1.457 . S
C21 N16 1.363 . S
C21 N18 1.377 . S
C21 C34 1.479 . S
C22 C19 1.480 . S
C22 C23 1.383 . S
C22 C27 1.385 . S
C23 H4 0.947 . S
C23 C22 1.383 . S
C23 C24 1.388 . S
C24 H5 0.946 . S
C24 C23 1.388 . S
C24 C25 1.384 . S
C25 C24 1.384 . S
C25 C26 1.377 . S
C26 H6 0.953 . S
C26 C25 1.377 . S
C26 C27 1.369 . S
C27 H7 0.945 . S
C27 C22 1.385 . S
C27 C26 1.369 . S
C28 C20 1.457 . S
C28 C29 1.372 . S
C28 C33 1.364 . S
C29 H8 0.952 . S
C29 C28 1.372 . S
C29 C30 1.389 . S
C30 H9 0.949 . S
C30 C29 1.389 . S
C30 C31 1.387 . S
C31 C30 1.387 . S
C31 C32 1.372 . S
C32 H10 0.950 . S
C32 C31 1.372 . S
C32 C33 1.379 . S
C33 H11 0.948 . S
C33 C28 1.364 . S
C33 C32 1.379 . S
C34 C3 1.383 . S
C34 C21 1.479 . S
C34 C35 1.398 . S
C35 C0 1.382 . S
C35 H12 0.951 . S
C35 C34 1.398 . S
C36 C37 1.384 . S
C36 H49 0.947 . S
C36 C71 1.382 . S
C37 C36 1.384 . S
C37 C38 1.378 . S
C38 C37 1.378 . S
C38 C39 1.378 . S
C38 H50 0.952 . S
C39 C38 1.378 . S
C39 H51 0.950 . S
C39 C70 1.383 . S
H40 C59 0.947 . S
H41 C60 0.946 . S
H42 C62 0.953 . S
H43 C63 0.945 . S
H44 C65 0.952 . S
H45 C66 0.949 . S
H46 C68 0.950 . S
H47 C69 0.948 . S
H48 C71 0.951 . S
H49 C36 0.947 . S
H50 C38 0.952 . S
H51 C39 0.950 . S
N52 C55 1.382 . S
N52 C57 1.363 . S
N53 C55 1.371 . S
N53 C56 1.372 . S
N54 C56 1.361 . S
N54 C57 1.377 . S
C55 N52 1.382 . S
C55 N53 1.371 . S
C55 C58 1.480 . S
C56 N53 1.372 . S
C56 N54 1.361 . S
C56 C64 1.457 . S
C57 N52 1.363 . S
C57 N54 1.377 . S
C57 C70 1.479 . S
C58 C55 1.480 . S
C58 C59 1.383 . S
C58 C63 1.385 . S
C59 H40 0.947 . S
C59 C58 1.383 . S
C59 C60 1.388 . S
C60 H41 0.946 . S
C60 C59 1.388 . S
C60 C61 1.384 . S
C61 C60 1.384 . S
C61 C62 1.377 . S
C62 H42 0.953 . S
C62 C61 1.377 . S
C62 C63 1.369 . S
C63 H43 0.945 . S
C63 C58 1.385 . S
C63 C62 1.369 . S
C64 C56 1.457 . S
C64 C65 1.372 . S
C64 C69 1.364 . S
C65 H44 0.952 . S
C65 C64 1.372 . S
C65 C66 1.389 . S
C66 H45 0.949 . S
C66 C65 1.389 . S
C66 C67 1.387 . S
C67 C66 1.387 . S
C67 C68 1.372 . S
C68 H46 0.950 . S
C68 C67 1.372 . S
C68 C69 1.379 . S
C69 H47 0.948 . S
C69 C64 1.364 . S
C69 C68 1.379 . S
C70 C39 1.383 . S
C70 C57 1.479 . S
C70 C71 1.398 . S
C71 C36 1.382 . S
C71 H48 0.951 . S
C71 C70 1.398 . S
C72 C73 1.384 . S
C72 H85 0.947 . S
C72 C107 1.382 . S
C73 C72 1.384 . S
C73 C74 1.378 . S
C74 C73 1.378 . S
C74 C75 1.378 . S
C74 H86 0.952 . S
C75 C74 1.378 . S
C75 H87 0.950 . S
C75 C106 1.383 . S
H76 C95 0.947 . S
H77 C96 0.946 . S
H78 C98 0.953 . S
H79 C99 0.945 . S
H80 C101 0.952 . S
H81 C102 0.949 . S
H82 C104 0.950 . S
H83 C105 0.948 . S
H84 C107 0.951 . S
H85 C72 0.947 . S
H86 C74 0.952 . S
H87 C75 0.950 . S
N88 C91 1.382 . S
N88 C93 1.363 . S
N89 C91 1.371 . S
N89 C92 1.372 . S
N90 C92 1.361 . S
N90 C93 1.377 . S
C91 N88 1.382 . S
C91 N89 1.371 . S
C91 C94 1.480 . S
C92 N89 1.372 . S
C92 N90 1.361 . S
C92 C100 1.457 . S
C93 N88 1.363 . S
C93 N90 1.377 . S
C93 C106 1.479 . S
C94 C91 1.480 . S
C94 C95 1.383 . S
C94 C99 1.385 . S
C95 H76 0.947 . S
C95 C94 1.383 . S
C95 C96 1.388 . S
C96 H77 0.946 . S
C96 C95 1.388 . S
C96 C97 1.384 . S
C97 C96 1.384 . S
C97 C98 1.377 . S
C98 H78 0.953 . S
C98 C97 1.377 . S
C98 C99 1.369 . S
C99 H79 0.945 . S
C99 C94 1.385 . S
C99 C98 1.369 . S
C100 C92 1.457 . S
C100 C101 1.372 . S
C100 C105 1.364 . S
C101 H80 0.952 . S
C101 C100 1.372 . S
C101 C102 1.389 . S
C102 H81 0.949 . S
C102 C101 1.389 . S
C102 C103 1.387 . S
C103 C102 1.387 . S
C103 C104 1.372 . S
C104 H82 0.950 . S
C104 C103 1.372 . S
C104 C105 1.379 . S
C105 H83 0.948 . S
C105 C100 1.364 . S
C105 C104 1.379 . S
C106 C75 1.383 . S
C106 C93 1.479 . S
C106 C107 1.398 . S
C107 C72 1.382 . S
C107 H84 0.951 . S
C107 C106 1.398 . S
C108 C109 1.384 . S
C108 H121 0.947 . S
C108 C143 1.382 . S
C109 C108 1.384 . S
C109 C110 1.378 . S
C110 C109 1.378 . S
C110 C111 1.378 . S
C110 H122 0.952 . S
C111 C110 1.378 . S
C111 H123 0.950 . S
C111 C142 1.383 . S
H112 C131 0.947 . S
H113 C132 0.946 . S
H114 C134 0.953 . S
H115 C135 0.945 . S
H116 C137 0.952 . S
H117 C138 0.949 . S
H118 C140 0.950 . S
H119 C141 0.948 . S
H120 C143 0.951 . S
H121 C108 0.947 . S
H122 C110 0.952 . S
H123 C111 0.950 . S
N124 C127 1.382 . S
N124 C129 1.363 . S
N125 C127 1.371 . S
N125 C128 1.372 . S
N126 C128 1.361 . S
N126 C129 1.377 . S
C127 N124 1.382 . S
C127 N125 1.371 . S
C127 C130 1.480 . S
C128 N125 1.372 . S
C128 N126 1.361 . S
C128 C136 1.457 . S
C129 N124 1.363 . S
C129 N126 1.377 . S
C129 C142 1.479 . S
C130 C127 1.480 . S
C130 C131 1.383 . S
C130 C135 1.385 . S
C131 H112 0.947 . S
C131 C130 1.383 . S
C131 C132 1.388 . S
C132 H113 0.946 . S
C132 C131 1.388 . S
C132 C133 1.384 . S
C133 C132 1.384 . S
C133 C134 1.377 . S
C134 H114 0.953 . S
C134 C133 1.377 . S
C134 C135 1.369 . S
C135 H115 0.945 . S
C135 C130 1.385 . S
C135 C134 1.369 . S
C136 C128 1.457 . S
C136 C137 1.372 . S
C136 C141 1.364 . S
C137 H116 0.952 . S
C137 C136 1.372 . S
C137 C138 1.389 . S
C138 H117 0.949 . S
C138 C137 1.389 . S
C138 C139 1.387 . S
C139 C138 1.387 . S
C139 C140 1.372 . S
C140 H118 0.950 . S
C140 C139 1.372 . S
C140 C141 1.379 . S
C141 H119 0.948 . S
C141 C136 1.364 . S
C141 C140 1.379 . S
C142 C111 1.383 . S
C142 C129 1.479 . S
C142 C143 1.398 . S
C143 C108 1.382 . S
C143 H120 0.951 . S
C143 C142 1.398 . S
C144 C145 1.384 . S
C144 H157 0.947 . S
C144 C179 1.382 . S
C145 C144 1.384 . S
C145 C146 1.378 . S
C146 C145 1.378 . S
C146 C147 1.378 . S
C146 H158 0.952 . S
C147 C146 1.378 . S
C147 H159 0.950 . S
C147 C178 1.383 . S
H148 C167 0.947 . S
H149 C168 0.946 . S
H150 C170 0.953 . S
H151 C171 0.945 . S
H152 C173 0.952 . S
H153 C174 0.949 . S
H154 C176 0.950 . S
H155 C177 0.948 . S
H156 C179 0.951 . S
H157 C144 0.947 . S
H158 C146 0.952 . S
H159 C147 0.950 . S
N160 C163 1.382 . S
N160 C165 1.363 . S
N161 C163 1.371 . S
N161 C164 1.372 . S
N162 C164 1.361 . S
N162 C165 1.377 . S
C163 N160 1.382 . S
C163 N161 1.371 . S
C163 C166 1.480 . S
C164 N161 1.372 . S
C164 N162 1.361 . S
C164 C172 1.457 . S
C165 N160 1.363 . S
C165 N162 1.377 . S
C165 C178 1.479 . S
C166 C163 1.480 . S
C166 C167 1.383 . S
C166 C171 1.385 . S
C167 H148 0.947 . S
C167 C166 1.383 . S
C167 C168 1.388 . S
C168 H149 0.946 . S
C168 C167 1.388 . S
C168 C169 1.384 . S
C169 C168 1.384 . S
C169 C170 1.377 . S
C170 H150 0.953 . S
C170 C169 1.377 . S
C170 C171 1.369 . S
C171 H151 0.945 . S
C171 C166 1.385 . S
C171 C170 1.369 . S
C172 C164 1.457 . S
C172 C173 1.372 . S
C172 C177 1.364 . S
C173 H152 0.952 . S
C173 C172 1.372 . S
C173 C174 1.389 . S
C174 H153 0.949 . S
C174 C173 1.389 . S
C174 C175 1.387 . S
C175 C174 1.387 . S
C175 C176 1.372 . S
C176 H154 0.950 . S
C176 C175 1.372 . S
C176 C177 1.379 . S
C177 H155 0.948 . S
C177 C172 1.364 . S
C177 C176 1.379 . S
C178 C147 1.383 . S
C178 C165 1.479 . S
C178 C179 1.398 . S
C179 C144 1.382 . S
C179 H156 0.951 . S
C179 C178 1.398 . S
C180 C181 1.384 . S
C180 H193 0.947 . S
C180 C215 1.382 . S
C181 C180 1.384 . S
C181 C182 1.378 . S
C182 C181 1.378 . S
C182 C183 1.378 . S
C182 H194 0.952 . S
C183 C182 1.378 . S
C183 H195 0.950 . S
C183 C214 1.383 . S
H184 C203 0.947 . S
H185 C204 0.946 . S
H186 C206 0.953 . S
H187 C207 0.945 . S
H188 C209 0.952 . S
H189 C210 0.949 . S
H190 C212 0.950 . S
H191 C213 0.948 . S
H192 C215 0.951 . S
H193 C180 0.947 . S
H194 C182 0.952 . S
H195 C183 0.950 . S
N196 C199 1.382 . S
N196 C201 1.363 . S
N197 C199 1.371 . S
N197 C200 1.372 . S
N198 C200 1.361 . S
N198 C201 1.377 . S
C199 N196 1.382 . S
C199 N197 1.371 . S
C199 C202 1.480 . S
C200 N197 1.372 . S
C200 N198 1.361 . S
C200 C208 1.457 . S
C201 N196 1.363 . S
C201 N198 1.377 . S
C201 C214 1.479 . S
C202 C199 1.480 . S
C202 C203 1.383 . S
C202 C207 1.385 . S
C203 H184 0.947 . S
C203 C202 1.383 . S
C203 C204 1.388 . S
C204 H185 0.946 . S
C204 C203 1.388 . S
C204 C205 1.384 . S
C205 C204 1.384 . S
C205 C206 1.377 . S
C206 H186 0.953 . S
C206 C205 1.377 . S
C206 C207 1.369 . S
C207 H187 0.945 . S
C207 C202 1.385 . S
C207 C206 1.369 . S
C208 C200 1.457 . S
C208 C209 1.372 . S
C208 C213 1.364 . S
C209 H188 0.952 . S
C209 C208 1.372 . S
C209 C210 1.389 . S
C210 H189 0.949 . S
C210 C209 1.389 . S
C210 C211 1.387 . S
C211 C210 1.387 . S
C211 C212 1.372 . S
C212 H190 0.950 . S
C212 C211 1.372 . S
C212 C213 1.379 . S
C213 H191 0.948 . S
C213 C208 1.364 . S
C213 C212 1.379 . S
C214 C183 1.383 . S
C214 C201 1.479 . S
C214 C215 1.398 . S
C215 C180 1.382 . S
C215 H192 0.951 . S
C215 C214 1.398 . S
C216 C217 1.384 . S
C216 H229 0.947 . S
C216 C251 1.382 . S
C217 C216 1.384 . S
C217 C218 1.378 . S
C218 C217 1.378 . S
C218 C219 1.378 . S
C218 H230 0.952 . S
C219 C218 1.378 . S
C219 H231 0.950 . S
C219 C250 1.383 . S
H220 C239 0.947 . S
H221 C240 0.946 . S
H222 C242 0.953 . S
H223 C243 0.945 . S
H224 C245 0.952 . S
H225 C246 0.949 . S
H226 C248 0.950 . S
H227 C249 0.948 . S
H228 C251 0.951 . S
H229 C216 0.947 . S
H230 C218 0.952 . S
H231 C219 0.950 . S
N232 C235 1.382 . S
N232 C237 1.363 . S
N233 C235 1.371 . S
N233 C236 1.372 . S
N234 C236 1.361 . S
N234 C237 1.377 . S
C235 N232 1.382 . S
C235 N233 1.371 . S
C235 C238 1.480 . S
C236 N233 1.372 . S
C236 N234 1.361 . S
C236 C244 1.457 . S
C237 N232 1.363 . S
C237 N234 1.377 . S
C237 C250 1.479 . S
C238 C235 1.480 . S
C238 C239 1.383 . S
C238 C243 1.385 . S
C239 H220 0.947 . S
C239 C238 1.383 . S
C239 C240 1.388 . S
C240 H221 0.946 . S
C240 C239 1.388 . S
C240 C241 1.384 . S
C241 C240 1.384 . S
C241 C242 1.377 . S
C242 H222 0.953 . S
C242 C241 1.377 . S
C242 C243 1.369 . S
C243 H223 0.945 . S
C243 C238 1.385 . S
C243 C242 1.369 . S
C244 C236 1.457 . S
C244 C245 1.372 . S
C244 C249 1.364 . S
C245 H224 0.952 . S
C245 C244 1.372 . S
C245 C246 1.389 . S
C246 H225 0.949 . S
C246 C245 1.389 . S
C246 C247 1.387 . S
C247 C246 1.387 . S
C247 C248 1.372 . S
C248 H226 0.950 . S
C248 C247 1.372 . S
C248 C249 1.379 . S
C249 H227 0.948 . S
C249 C244 1.364 . S
C249 C248 1.379 . S
C250 C219 1.383 . S
C250 C237 1.479 . S
C250 C251 1.398 . S
C251 C216 1.382 . S
C251 H228 0.951 . S
C251 C250 1.398 . S
C252 C253 1.384 . S
C252 H265 0.947 . S
C252 C287 1.382 . S
C253 C252 1.384 . S
C253 C254 1.378 . S
C254 C253 1.378 . S
C254 C255 1.378 . S
C254 H266 0.952 . S
C255 C254 1.378 . S
C255 H267 0.950 . S
C255 C286 1.383 . S
H256 C275 0.947 . S
H257 C276 0.946 . S
H258 C278 0.953 . S
H259 C279 0.945 . S
H260 C281 0.952 . S
H261 C282 0.949 . S
H262 C284 0.950 . S
H263 C285 0.948 . S
H264 C287 0.951 . S
H265 C252 0.947 . S
H266 C254 0.952 . S
H267 C255 0.950 . S
N268 C271 1.382 . S
N268 C273 1.363 . S
N269 C271 1.371 . S
N269 C272 1.372 . S
N270 C272 1.361 . S
N270 C273 1.377 . S
C271 N268 1.382 . S
C271 N269 1.371 . S
C271 C274 1.480 . S
C272 N269 1.372 . S
C272 N270 1.361 . S
C272 C280 1.457 . S
C273 N268 1.363 . S
C273 N270 1.377 . S
C273 C286 1.479 . S
C274 C271 1.480 . S
C274 C275 1.383 . S
C274 C279 1.385 . S
C275 H256 0.947 . S
C275 C274 1.383 . S
C275 C276 1.388 . S
C276 H257 0.946 . S
C276 C275 1.388 . S
C276 C277 1.384 . S
C277 C276 1.384 . S
C277 C278 1.377 . S
C278 H258 0.953 . S
C278 C277 1.377 . S
C278 C279 1.369 . S
C279 H259 0.945 . S
C279 C274 1.385 . S
C279 C278 1.369 . S
C280 C272 1.457 . S
C280 C281 1.372 . S
C280 C285 1.364 . S
C281 H260 0.952 . S
C281 C280 1.372 . S
C281 C282 1.389 . S
C282 H261 0.949 . S
C282 C281 1.389 . S
C282 C283 1.387 . S
C283 C282 1.387 . S
C283 C284 1.372 . S
C284 H262 0.950 . S
C284 C283 1.372 . S
C284 C285 1.379 . S
C285 H263 0.948 . S
C285 C280 1.364 . S
C285 C284 1.379 . S
C286 C255 1.383 . S
C286 C273 1.479 . S
C286 C287 1.398 . S
C287 C252 1.382 . S
C287 H264 0.951 . S
C287 C286 1.398 . S
Dy288 O291 2.307 1_545 S
Dy288 O293 2.395 . S
Dy288 O294 2.379 . S
Dy288 O296 2.339 1_545 S
Dy288 O298 2.298 1_455 S
Dy288 O302 2.275 . S
Dy288 C310 2.738 . S
Dy289 O292 2.298 1_655 S
Dy289 O295 2.275 . S
Dy289 O297 2.307 1_565 S
Dy289 O299 2.395 . S
Dy289 O300 2.379 . S
Dy289 O303 2.339 1_565 S
Dy289 C319 2.738 . S
C290 O302 1.254 . S
C290 O303 1.257 1_455 S
O291 Dy288 2.307 1_565 S
O291 C301 1.266 . S
O292 Dy289 2.298 1_455 S
O292 C301 1.236 . S
O293 Dy288 2.395 . S
O293 C310 1.255 . S
O294 Dy288 2.379 . S
O294 C310 1.249 . S
O295 Dy289 2.275 . S
O295 C311 1.254 . S
O296 Dy288 2.339 1_565 S
O296 C311 1.257 1_455 S
O297 Dy289 2.307 1_545 S
O297 C312 1.266 . S
O298 Dy288 2.298 1_655 S
O298 C312 1.236 . S
O299 Dy289 2.395 . S
O299 C319 1.255 . S
O300 Dy289 2.379 . S
O300 C319 1.249 . S
C301 O291 1.266 . S
C301 O292 1.236 . S
O302 Dy288 2.275 . S
O302 C290 1.254 . S
O303 Dy289 2.339 1_545 S
O303 C290 1.257 1_655 S
C304 C307 1.344 . S
C304 C308 1.328 . S
C304 C310 1.516 . S
C305 C306 1.304 . S
C305 C309 1.323 . S
C306 C305 1.304 . S
C306 C307 1.371 . S
C306 H320 0.930 . S
C307 C304 1.344 . S
C307 C306 1.371 . S
C307 H321 0.931 . S
C308 C304 1.328 . S
C308 C309 1.433 . S
C308 H322 0.931 . S
C309 C305 1.323 . S
C309 C308 1.433 . S
C309 H323 0.933 . S
C310 Dy288 2.738 . S
C310 O293 1.255 . S
C310 O294 1.249 . S
C310 C304 1.516 . S
C311 O295 1.254 . S
C311 O296 1.257 1_655 S
C312 O297 1.266 . S
C312 O298 1.236 . S
C313 C316 1.344 . S
C313 C317 1.328 . S
C313 C319 1.516 . S
C314 C315 1.304 . S
C314 C318 1.323 . S
C315 C314 1.304 . S
C315 C316 1.371 . S
C315 H324 0.930 . S
C316 C313 1.344 . S
C316 C315 1.371 . S
C316 H325 0.931 . S
C317 C313 1.328 . S
C317 C318 1.433 . S
C317 H326 0.931 . S
C318 C314 1.323 . S
C318 C317 1.433 . S
C318 H327 0.933 . S
C319 Dy289 2.738 . S
C319 O299 1.255 . S
C319 O300 1.249 . S
C319 C313 1.516 . S
H320 C306 0.930 . S
H321 C307 0.931 . S
H322 C308 0.931 . S
H323 C309 0.933 . S
H324 C315 0.930 . S
H325 C316 0.931 . S
H326 C317 0.931 . S
H327 C318 0.933 . S
Dy328 O331 2.307 1_566 S
Dy328 O333 2.395 . S
Dy328 O334 2.379 . S
Dy328 O336 2.339 1_565 S
Dy328 O338 2.298 . S
Dy328 O342 2.275 1_556 S
Dy328 C350 2.738 . S
Dy329 O332 2.298 . S
Dy329 O335 2.275 1_554 S
Dy329 O337 2.307 1_544 S
Dy329 O339 2.395 . S
Dy329 O340 2.379 . S
Dy329 O343 2.339 1_545 S
Dy329 C359 2.738 . S
C330 O342 1.254 . S
C330 O343 1.257 . S
O331 Dy328 2.307 1_544 S
O331 C341 1.266 . S
O332 Dy329 2.298 . S
O332 C341 1.236 . S
O333 Dy328 2.395 . S
O333 C350 1.255 . S
O334 Dy328 2.379 . S
O334 C350 1.249 . S
O335 Dy329 2.275 1_556 S
O335 C351 1.254 . S
O336 Dy328 2.339 1_545 S
O336 C351 1.257 . S
O337 Dy329 2.307 1_566 S
O337 C352 1.266 . S
O338 Dy328 2.298 . S
O338 C352 1.236 . S
O339 Dy329 2.395 . S
O339 C359 1.255 . S
O340 Dy329 2.379 . S
O340 C359 1.249 . S
C341 O331 1.266 . S
C341 O332 1.236 . S
O342 Dy328 2.275 1_554 S
O342 C330 1.254 . S
O343 Dy329 2.339 1_565 S
O343 C330 1.257 . S
C344 C347 1.344 . S
C344 C348 1.328 . S
C344 C350 1.516 . S
C345 C346 1.304 . S
C345 C349 1.323 . S
C346 C345 1.304 . S
C346 C347 1.371 . S
C346 H360 0.930 . S
C347 C344 1.344 . S
C347 C346 1.371 . S
C347 H361 0.931 . S
C348 C344 1.328 . S
C348 C349 1.433 . S
C348 H362 0.931 . S
C349 C345 1.323 . S
C349 C348 1.433 . S
C349 H363 0.933 . S
C350 Dy328 2.738 . S
C350 O333 1.255 . S
C350 O334 1.249 . S
C350 C344 1.516 . S
C351 O335 1.254 . S
C351 O336 1.257 . S
C352 O337 1.266 . S
C352 O338 1.236 . S
C353 C356 1.344 . S
C353 C357 1.328 . S
C353 C359 1.516 . S
C354 C355 1.304 . S
C354 C358 1.323 . S
C355 C354 1.304 . S
C355 C356 1.371 . S
C355 H364 0.930 . S
C356 C353 1.344 . S
C356 C355 1.371 . S
C356 H365 0.931 . S
C357 C353 1.328 . S
C357 C358 1.433 . S
C357 H366 0.931 . S
C358 C354 1.323 . S
C358 C357 1.433 . S
C358 H367 0.933 . S
C359 Dy329 2.738 . S
C359 O339 1.255 . S
C359 O340 1.249 . S
C359 C353 1.516 . S
H360 C346 0.930 . S
H361 C347 0.931 . S
H362 C348 0.931 . S
H363 C349 0.933 . S
H364 C355 0.930 . S
H365 C356 0.931 . S
H366 C357 0.931 . S
H367 C358 0.933 . S
Dy368 O371 2.307 . S
Dy368 O373 2.395 . S
Dy368 O374 2.379 . S
Dy368 O376 2.339 . S
Dy368 O378 2.298 . S
Dy368 O382 2.275 . S
Dy368 C390 2.738 . S
Dy369 O372 2.298 . S
Dy369 O375 2.275 . S
Dy369 O377 2.307 . S
Dy369 O379 2.395 . S
Dy369 O380 2.379 . S
Dy369 O383 2.339 . S
Dy369 C399 2.738 . S
C370 O382 1.254 . S
C370 O383 1.257 . S
O371 Dy368 2.307 . S
O371 C381 1.266 . S
O372 Dy369 2.298 . S
O372 C381 1.236 . S
O373 Dy368 2.395 . S
O373 C390 1.255 . S
O374 Dy368 2.379 . S
O374 C390 1.249 . S
O375 Dy369 2.275 . S
O375 C391 1.254 . S
O376 Dy368 2.339 . S
O376 C391 1.257 . S
O377 Dy369 2.307 . S
O377 C392 1.266 . S
O378 Dy368 2.298 . S
O378 C392 1.236 . S
O379 Dy369 2.395 . S
O379 C399 1.255 . S
O380 Dy369 2.379 . S
O380 C399 1.249 . S
C381 O371 1.266 . S
C381 O372 1.236 . S
O382 Dy368 2.275 . S
O382 C370 1.254 . S
O383 Dy369 2.339 . S
O383 C370 1.257 . S
C384 C387 1.344 . S
C384 C388 1.328 . S
C384 C390 1.516 . S
C385 C386 1.304 . S
C385 C389 1.323 . S
C386 C385 1.304 . S
C386 C387 1.371 . S
C386 H400 0.930 . S
C387 C384 1.344 . S
C387 C386 1.371 . S
C387 H401 0.931 . S
C388 C384 1.328 . S
C388 C389 1.433 . S
C388 H402 0.931 . S
C389 C385 1.323 . S
C389 C388 1.433 . S
C389 H403 0.933 . S
C390 Dy368 2.738 . S
C390 O373 1.255 . S
C390 O374 1.249 . S
C390 C384 1.516 . S
C391 O375 1.254 . S
C391 O376 1.257 . S
C392 O377 1.266 . S
C392 O378 1.236 . S
C393 C396 1.344 . S
C393 C397 1.328 . S
C393 C399 1.516 . S
C394 C395 1.304 . S
C394 C398 1.323 . S
C395 C394 1.304 . S
C395 C396 1.371 . S
C395 H404 0.930 . S
C396 C393 1.344 . S
C396 C395 1.371 . S
C396 H405 0.931 . S
C397 C393 1.328 . S
C397 C398 1.433 . S
C397 H406 0.931 . S
C398 C394 1.323 . S
C398 C397 1.433 . S
C398 H407 0.933 . S
C399 Dy369 2.738 . S
C399 O379 1.255 . S
C399 O380 1.249 . S
C399 C393 1.516 . S
H400 C386 0.930 . S
H401 C387 0.931 . S
H402 C388 0.931 . S
H403 C389 0.933 . S
H404 C395 0.930 . S
H405 C396 0.931 . S
H406 C397 0.931 . S
H407 C398 0.933 . S
Dy408 O411 2.307 1_556 S
Dy408 O413 2.395 1_455 S
Dy408 O414 2.379 1_455 S
Dy408 O416 2.339 . S
Dy408 O418 2.298 1_455 S
Dy408 O422 2.275 1_456 S
Dy408 C430 2.738 1_455 S
Dy409 O412 2.298 . S
Dy409 O415 2.275 1_554 S
Dy409 O417 2.307 1_455 S
Dy409 O419 2.395 . S
Dy409 O420 2.379 . S
Dy409 O423 2.339 1_455 S
Dy409 C439 2.738 . S
C410 O422 1.254 . S
C410 O423 1.257 . S
O411 Dy408 2.307 1_554 S
O411 C421 1.266 . S
O412 Dy409 2.298 . S
O412 C421 1.236 . S
O413 Dy408 2.395 1_655 S
O413 C430 1.255 . S
O414 Dy408 2.379 1_655 S
O414 C430 1.249 . S
O415 Dy409 2.275 1_556 S
O415 C431 1.254 . S
O416 Dy408 2.339 . S
O416 C431 1.257 . S
O417 Dy409 2.307 1_655 S
O417 C432 1.266 1_554 S
O418 Dy408 2.298 1_655 S
O418 C432 1.236 . S
O419 Dy409 2.395 . S
O419 C439 1.255 . S
O420 Dy409 2.379 . S
O420 C439 1.249 . S
C421 O411 1.266 . S
C421 O412 1.236 . S
O422 Dy408 2.275 1_654 S
O422 C410 1.254 . S
O423 Dy409 2.339 1_655 S
O423 C410 1.257 . S
C424 C427 1.344 . S
C424 C428 1.328 . S
C424 C430 1.516 . S
C425 C426 1.304 . S
C425 C429 1.323 . S
C426 C425 1.304 . S
C426 C427 1.371 . S
C426 H440 0.930 . S
C427 C424 1.344 . S
C427 C426 1.371 . S
C427 H441 0.931 . S
C428 C424 1.328 . S
C428 C429 1.433 . S
C428 H442 0.931 . S
C429 C425 1.323 . S
C429 C428 1.433 . S
C429 H443 0.933 . S
C430 Dy408 2.738 1_655 S
C430 O413 1.255 . S
C430 O414 1.249 . S
C430 C424 1.516 . S
C431 O415 1.254 . S
C431 O416 1.257 . S
C432 O417 1.266 1_556 S
C432 O418 1.236 . S
C433 C436 1.344 . S
C433 C437 1.328 . S
C433 C439 1.516 . S
C434 C435 1.304 . S
C434 C438 1.323 . S
C435 C434 1.304 . S
C435 C436 1.371 . S
C435 H444 0.930 . S
C436 C433 1.344 . S
C436 C435 1.371 . S
C436 H445 0.931 . S
C437 C433 1.328 . S
C437 C438 1.433 . S
C437 H446 0.931 . S
C438 C434 1.323 . S
C438 C437 1.433 . S
C438 H447 0.933 . S
C439 Dy409 2.738 . S
C439 O419 1.255 . S
C439 O420 1.249 . S
C439 C433 1.516 . S
H440 C426 0.930 . S
H441 C427 0.931 . S
H442 C428 0.931 . S
H443 C429 0.933 . S
H444 C435 0.930 . S
H445 C436 0.931 . S
H446 C437 0.931 . S
H447 C438 0.933 . S
H448 C466 0.951 . S
H449 C468 0.951 . S
H450 C470 0.950 . S
H451 C471 0.950 . S
H452 C473 0.950 . S
H453 C476 0.950 . S
H454 C477 0.950 . S
H455 C479 0.950 . S
H456 C480 0.950 . S
H457 C481 0.951 . S
H458 C483 0.951 . S
H459 C485 0.950 . S
H460 C486 0.950 . S
H461 C488 0.950 . S
H462 C491 0.950 . S
H463 C492 0.950 . S
H464 C494 0.950 . S
H465 C495 0.950 . S
C466 H448 0.951 . S
C466 C467 1.366 . S
C466 C468 1.388 . S
C467 C466 1.366 . S
C467 C471 1.385 . S
C468 H449 0.951 . S
C468 C466 1.388 . S
C468 C469 1.366 . S
C469 C468 1.366 . S
C469 C470 1.414 . S
C469 C472 1.499 . S
C470 H450 0.950 . S
C470 C469 1.414 . S
C470 C471 1.374 . S
C471 H451 0.950 . S
C471 C467 1.385 . S
C471 C470 1.374 . S
C472 C469 1.499 . S
C472 C473 1.373 . S
C472 C474 1.389 . S
C473 H452 0.950 . S
C473 C472 1.373 . S
C473 C489 1.377 . S
C474 C472 1.389 . S
C474 C475 1.524 . S
C474 C488 1.377 . S
C475 C474 1.524 . S
C475 C476 1.397 . S
C475 C480 1.363 . S
C476 H453 0.950 . S
C476 C475 1.397 . S
C476 C477 1.334 . S
C477 H454 0.950 . S
C477 C476 1.334 . S
C477 C478 1.287 . S
C478 C477 1.287 . S
C478 C479 1.524 . S
C478 H497 0.913 . S
C479 H455 0.950 . S
C479 C478 1.524 . S
C479 C480 1.415 . S
C480 H456 0.950 . S
C480 C475 1.363 . S
C480 C479 1.415 . S
C481 H457 0.951 . S
C481 C482 1.366 . S
C481 C483 1.388 . S
C482 C481 1.366 . S
C482 C486 1.385 . S
C483 H458 0.951 . S
C483 C481 1.388 . S
C483 C484 1.366 . S
C484 C483 1.366 . S
C484 C485 1.414 . S
C484 C487 1.499 . S
C485 H459 0.950 . S
C485 C484 1.414 . S
C485 C486 1.374 . S
C486 H460 0.950 . S
C486 C482 1.385 . S
C486 C485 1.374 . S
C487 C484 1.499 . S
C487 C488 1.373 . S
C487 C489 1.389 . S
C488 H461 0.950 . S
C488 C474 1.377 . S
C488 C487 1.373 . S
C489 C473 1.377 . S
C489 C487 1.389 . S
C489 C490 1.524 . S
C490 C489 1.524 . S
C490 C491 1.397 . S
C490 C495 1.363 . S
C491 H462 0.950 . S
C491 C490 1.397 . S
C491 C492 1.334 . S
C492 H463 0.950 . S
C492 C491 1.334 . S
C492 C493 1.287 . S
C493 C492 1.287 . S
C493 C494 1.524 . S
C493 H496 0.999 . S
C494 H464 0.950 . S
C494 C493 1.524 . S
C494 C495 1.415 . S
C495 H465 0.950 . S
C495 C490 1.363 . S
C495 C494 1.415 . S
H496 C493 0.999 . S
H497 C478 0.913 . S
H498 C516 0.951 . S
H499 C518 0.951 . S
H500 C520 0.950 . S
H501 C521 0.950 . S
H502 C523 0.950 . S
H503 C526 0.950 . S
H504 C527 0.950 . S
H505 C529 0.950 . S
H506 C530 0.950 . S
H507 C531 0.951 . S
H508 C533 0.951 . S
H509 C535 0.950 . S
H510 C536 0.950 . S
H511 C538 0.950 . S
H512 C541 0.950 . S
H513 C542 0.950 . S
H514 C544 0.950 . S
H515 C545 0.950 . S
C516 H498 0.951 . S
C516 C517 1.366 . S
C516 C518 1.388 . S
C517 C516 1.366 . S
C517 C521 1.385 . S
C518 H499 0.951 . S
C518 C516 1.388 . S
C518 C519 1.366 . S
C519 C518 1.366 . S
C519 C520 1.414 . S
C519 C522 1.499 . S
C520 H500 0.950 . S
C520 C519 1.414 . S
C520 C521 1.374 . S
C521 H501 0.950 . S
C521 C517 1.385 . S
C521 C520 1.374 . S
C522 C519 1.499 . S
C522 C523 1.373 . S
C522 C524 1.389 . S
C523 H502 0.950 . S
C523 C522 1.373 . S
C523 C539 1.377 . S
C524 C522 1.389 . S
C524 C525 1.524 . S
C524 C538 1.377 . S
C525 C524 1.524 . S
C525 C526 1.397 . S
C525 C530 1.363 . S
C526 H503 0.950 . S
C526 C525 1.397 . S
C526 C527 1.334 . S
C527 H504 0.950 . S
C527 C526 1.334 . S
C527 C528 1.287 . S
C528 C527 1.287 . S
C528 C529 1.524 . S
C528 H547 0.913 . S
C529 H505 0.950 . S
C529 C528 1.524 . S
C529 C530 1.415 . S
C530 H506 0.950 . S
C530 C525 1.363 . S
C530 C529 1.415 . S
C531 H507 0.951 . S
C531 C532 1.366 . S
C531 C533 1.388 . S
C532 C531 1.366 . S
C532 C536 1.385 . S
C533 H508 0.951 . S
C533 C531 1.388 . S
C533 C534 1.366 . S
C534 C533 1.366 . S
C534 C535 1.414 . S
C534 C537 1.499 . S
C535 H509 0.950 . S
C535 C534 1.414 . S
C535 C536 1.374 . S
C536 H510 0.950 . S
C536 C532 1.385 . S
C536 C535 1.374 . S
C537 C534 1.499 . S
C537 C538 1.373 . S
C537 C539 1.389 . S
C538 H511 0.950 . S
C538 C524 1.377 . S
C538 C537 1.373 . S
C539 C523 1.377 . S
C539 C537 1.389 . S
C539 C540 1.524 . S
C540 C539 1.524 . S
C540 C541 1.397 . S
C540 C545 1.363 . S
C541 H512 0.950 . S
C541 C540 1.397 . S
C541 C542 1.334 . S
C542 H513 0.950 . S
C542 C541 1.334 . S
C542 C543 1.287 . S
C543 C542 1.287 . S
C543 C544 1.524 . S
C543 H546 0.999 . S
C544 H514 0.950 . S
C544 C543 1.524 . S
C544 C545 1.415 . S
C545 H515 0.950 . S
C545 C540 1.363 . S
C545 C544 1.415 . S
H546 C543 0.999 . S
H547 C528 0.913 . S
H548 C566 0.951 . S
H549 C568 0.951 . S
H550 C570 0.950 . S
H551 C571 0.950 . S
H552 C573 0.950 . S
H553 C576 0.950 . S
H554 C577 0.950 . S
H555 C579 0.950 . S
H556 C580 0.950 . S
H557 C581 0.951 . S
H558 C583 0.951 . S
H559 C585 0.950 . S
H560 C586 0.950 . S
H561 C588 0.950 . S
H562 C591 0.950 . S
H563 C592 0.950 . S
H564 C594 0.950 . S
H565 C595 0.950 . S
C566 H548 0.951 . S
C566 C567 1.366 . S
C566 C568 1.388 . S
C567 C566 1.366 . S
C567 C571 1.385 . S
C568 H549 0.951 . S
C568 C566 1.388 . S
C568 C569 1.366 . S
C569 C568 1.366 . S
C569 C570 1.414 . S
C569 C572 1.499 . S
C570 H550 0.950 . S
C570 C569 1.414 . S
C570 C571 1.374 . S
C571 H551 0.950 . S
C571 C567 1.385 . S
C571 C570 1.374 . S
C572 C569 1.499 . S
C572 C573 1.373 . S
C572 C574 1.389 . S
C573 H552 0.950 . S
C573 C572 1.373 . S
C573 C589 1.377 . S
C574 C572 1.389 . S
C574 C575 1.524 . S
C574 C588 1.377 . S
C575 C574 1.524 . S
C575 C576 1.397 . S
C575 C580 1.363 . S
C576 H553 0.950 . S
C576 C575 1.397 . S
C576 C577 1.334 . S
C577 H554 0.950 . S
C577 C576 1.334 . S
C577 C578 1.287 . S
C578 C577 1.287 . S
C578 C579 1.524 . S
C578 H597 0.913 . S
C579 H555 0.950 . S
C579 C578 1.524 . S
C579 C580 1.415 . S
C580 H556 0.950 . S
C580 C575 1.363 . S
C580 C579 1.415 . S
C581 H557 0.951 . S
C581 C582 1.366 . S
C581 C583 1.388 . S
C582 C581 1.366 . S
C582 C586 1.385 . S
C583 H558 0.951 . S
C583 C581 1.388 . S
C583 C584 1.366 . S
C584 C583 1.366 . S
C584 C585 1.414 . S
C584 C587 1.499 . S
C585 H559 0.950 . S
C585 C584 1.414 . S
C585 C586 1.374 . S
C586 H560 0.950 . S
C586 C582 1.385 . S
C586 C585 1.374 . S
C587 C584 1.499 . S
C587 C588 1.373 . S
C587 C589 1.389 . S
C588 H561 0.950 . S
C588 C574 1.377 . S
C588 C587 1.373 . S
C589 C573 1.377 . S
C589 C587 1.389 . S
C589 C590 1.524 . S
C590 C589 1.524 . S
C590 C591 1.397 . S
C590 C595 1.363 . S
C591 H562 0.950 . S
C591 C590 1.397 . S
C591 C592 1.334 . S
C592 H563 0.950 . S
C592 C591 1.334 . S
C592 C593 1.287 . S
C593 C592 1.287 . S
C593 C594 1.524 . S
C593 H596 0.999 . S
C594 H564 0.950 . S
C594 C593 1.524 . S
C594 C595 1.415 . S
C595 H565 0.950 . S
C595 C590 1.363 . S
C595 C594 1.415 . S
H596 C593 0.999 . S
H597 C578 0.913 . S
H598 C616 0.951 . S
H599 C618 0.951 . S
H600 C620 0.950 . S
H601 C621 0.950 . S
H602 C623 0.950 . S
H603 C626 0.950 . S
H604 C627 0.950 . S
H605 C629 0.950 . S
H606 C630 0.950 . S
H607 C631 0.951 . S
H608 C633 0.951 . S
H609 C635 0.950 . S
H610 C636 0.950 . S
H611 C638 0.950 . S
H612 C641 0.950 . S
H613 C642 0.950 . S
H614 C644 0.950 . S
H615 C645 0.945 1_655 S
C616 H598 0.951 . S
C616 C617 1.366 . S
C616 C618 1.388 . S
C617 C616 1.366 . S
C617 C621 1.385 . S
C618 H599 0.951 . S
C618 C616 1.388 . S
C618 C619 1.366 . S
C619 C618 1.366 . S
C619 C620 1.414 . S
C619 C622 1.499 . S
C620 H600 0.950 . S
C620 C619 1.414 . S
C620 C621 1.374 . S
C621 H601 0.950 . S
C621 C617 1.385 . S
C621 C620 1.374 . S
C622 C619 1.499 . S
C622 C623 1.373 . S
C622 C624 1.389 . S
C623 H602 0.950 . S
C623 C622 1.373 . S
C623 C639 1.377 . S
C624 C622 1.389 . S
C624 C625 1.524 . S
C624 C638 1.377 . S
C625 C624 1.524 . S
C625 C626 1.397 . S
C625 C630 1.363 . S
C626 H603 0.950 . S
C626 C625 1.397 . S
C626 C627 1.334 . S
C627 H604 0.950 . S
C627 C626 1.334 . S
C627 C628 1.287 . S
C628 C627 1.287 . S
C628 C629 1.524 . S
C628 H647 0.913 . S
C629 H605 0.950 . S
C629 C628 1.524 . S
C629 C630 1.415 . S
C630 H606 0.950 . S
C630 C625 1.363 . S
C630 C629 1.415 . S
C631 H607 0.951 . S
C631 C632 1.366 . S
C631 C633 1.388 . S
C632 C631 1.366 . S
C632 C636 1.385 . S
C633 H608 0.951 . S
C633 C631 1.388 . S
C633 C634 1.366 . S
C634 C633 1.366 . S
C634 C635 1.414 . S
C634 C637 1.499 . S
C635 H609 0.950 . S
C635 C634 1.414 . S
C635 C636 1.374 . S
C636 H610 0.950 . S
C636 C632 1.385 . S
C636 C635 1.374 . S
C637 C634 1.499 . S
C637 C638 1.373 . S
C637 C639 1.389 . S
C638 H611 0.950 . S
C638 C624 1.377 . S
C638 C637 1.373 . S
C639 C623 1.377 . S
C639 C637 1.389 . S
C639 C640 1.524 . S
C640 C639 1.524 . S
C640 C641 1.397 . S
C640 C645 1.354 1_655 S
C641 H612 0.950 . S
C641 C640 1.397 . S
C641 C642 1.334 1_655 S
C642 H613 0.950 . S
C642 C641 1.334 1_455 S
C642 C643 1.287 . S
C643 C642 1.287 . S
C643 C644 1.524 . S
C643 H646 0.999 . S
C644 H614 0.950 . S
C644 C643 1.524 . S
C644 C645 1.429 . S
C645 H615 0.945 1_455 S
C645 C640 1.354 1_455 S
C645 C644 1.429 . S
H646 C643 0.999 . S
H647 C628 0.913 . S
H648 C666 0.951 . S
H649 C668 0.951 . S
H650 C670 0.950 . S
H651 C671 0.950 . S
H652 C673 0.950 . S
H653 C676 0.950 . S
H654 C677 0.950 . S
H655 C679 0.950 . S
H656 C680 0.950 . S
H657 C681 0.951 . S
H658 C683 0.951 . S
H659 C685 0.950 . S
H660 C686 0.950 . S
H661 C688 0.950 . S
H662 C691 0.950 . S
H663 C692 0.950 . S
H664 C694 0.950 . S
H665 C695 0.950 . S
C666 H648 0.951 . S
C666 C667 1.366 . S
C666 C668 1.388 . S
C667 C666 1.366 . S
C667 C671 1.385 . S
C668 H649 0.951 . S
C668 C666 1.388 . S
C668 C669 1.366 . S
C669 C668 1.366 . S
C669 C670 1.414 . S
C669 C672 1.499 . S
C670 H650 0.950 . S
C670 C669 1.414 . S
C670 C671 1.374 . S
C671 H651 0.950 . S
C671 C667 1.385 . S
C671 C670 1.374 . S
C672 C669 1.499 . S
C672 C673 1.373 . S
C672 C674 1.389 . S
C673 H652 0.950 . S
C673 C672 1.373 . S
C673 C689 1.377 . S
C674 C672 1.389 . S
C674 C675 1.524 . S
C674 C688 1.377 . S
C675 C674 1.524 . S
C675 C676 1.397 . S
C675 C680 1.363 . S
C676 H653 0.950 . S
C676 C675 1.397 . S
C676 C677 1.334 . S
C677 H654 0.950 . S
C677 C676 1.334 . S
C677 C678 1.287 . S
C678 C677 1.287 . S
C678 C679 1.524 . S
C678 H697 0.913 . S
C679 H655 0.950 . S
C679 C678 1.524 . S
C679 C680 1.415 . S
C680 H656 0.950 . S
C680 C675 1.363 . S
C680 C679 1.415 . S
C681 H657 0.951 . S
C681 C682 1.366 . S
C681 C683 1.388 . S
C682 C681 1.366 . S
C682 C686 1.385 . S
C683 H658 0.951 . S
C683 C681 1.388 . S
C683 C684 1.366 . S
C684 C683 1.366 . S
C684 C685 1.414 . S
C684 C687 1.499 . S
C685 H659 0.950 . S
C685 C684 1.414 . S
C685 C686 1.374 . S
C686 H660 0.950 . S
C686 C682 1.385 . S
C686 C685 1.374 . S
C687 C684 1.499 . S
C687 C688 1.373 . S
C687 C689 1.389 . S
C688 H661 0.950 . S
C688 C674 1.377 . S
C688 C687 1.373 . S
C689 C673 1.377 . S
C689 C687 1.389 . S
C689 C690 1.524 . S
C690 C689 1.524 . S
C690 C691 1.397 . S
C690 C695 1.363 . S
C691 H662 0.950 . S
C691 C690 1.397 . S
C691 C692 1.334 . S
C692 H663 0.950 . S
C692 C691 1.334 . S
C692 C693 1.287 . S
C693 C692 1.287 . S
C693 C694 1.524 . S
C693 H696 0.999 . S
C694 H664 0.950 . S
C694 C693 1.524 . S
C694 C695 1.415 . S
C695 H665 0.950 . S
C695 C690 1.363 . S
C695 C694 1.415 . S
H696 C693 0.999 . S
H697 C678 0.913 . S
H698 C716 0.951 . S
H699 C718 0.951 . S
H700 C720 0.950 . S
H701 C721 0.950 . S
H702 C723 0.950 . S
H703 C726 0.950 . S
H704 C727 0.950 . S
H705 C729 0.950 . S
H706 C730 0.950 . S
H707 C731 0.951 . S
H708 C733 0.951 . S
H709 C735 0.950 . S
H710 C736 0.950 . S
H711 C738 0.950 . S
H712 C741 0.950 . S
H713 C742 0.950 . S
H714 C744 0.950 . S
H715 C745 0.950 . S
C716 H698 0.951 . S
C716 C717 1.366 . S
C716 C718 1.388 . S
C717 C716 1.366 . S
C717 C721 1.385 . S
C718 H699 0.951 . S
C718 C716 1.388 . S
C718 C719 1.366 . S
C719 C718 1.366 . S
C719 C720 1.414 . S
C719 C722 1.499 . S
C720 H700 0.950 . S
C720 C719 1.414 . S
C720 C721 1.374 . S
C721 H701 0.950 . S
C721 C717 1.385 . S
C721 C720 1.374 . S
C722 C719 1.499 . S
C722 C723 1.373 . S
C722 C724 1.389 . S
C723 H702 0.950 . S
C723 C722 1.373 . S
C723 C739 1.377 . S
C724 C722 1.389 . S
C724 C725 1.524 . S
C724 C738 1.377 . S
C725 C724 1.524 . S
C725 C726 1.397 . S
C725 C730 1.363 . S
C726 H703 0.950 . S
C726 C725 1.397 . S
C726 C727 1.334 . S
C727 H704 0.950 . S
C727 C726 1.334 . S
C727 C728 1.287 . S
C728 C727 1.287 . S
C728 C729 1.524 . S
C728 H747 0.913 . S
C729 H705 0.950 . S
C729 C728 1.524 . S
C729 C730 1.415 . S
C730 H706 0.950 . S
C730 C725 1.363 . S
C730 C729 1.415 . S
C731 H707 0.951 . S
C731 C732 1.366 . S
C731 C733 1.388 . S
C732 C731 1.366 . S
C732 C736 1.385 . S
C733 H708 0.951 . S
C733 C731 1.388 . S
C733 C734 1.366 . S
C734 C733 1.366 . S
C734 C735 1.414 . S
C734 C737 1.499 . S
C735 H709 0.950 . S
C735 C734 1.414 . S
C735 C736 1.374 . S
C736 H710 0.950 . S
C736 C732 1.385 . S
C736 C735 1.374 . S
C737 C734 1.499 . S
C737 C738 1.373 . S
C737 C739 1.389 . S
C738 H711 0.950 . S
C738 C724 1.377 . S
C738 C737 1.373 . S
C739 C723 1.377 . S
C739 C737 1.389 . S
C739 C740 1.524 . S
C740 C739 1.524 . S
C740 C741 1.397 . S
C740 C745 1.363 . S
C741 H712 0.950 . S
C741 C740 1.397 . S
C741 C742 1.334 . S
C742 H713 0.950 . S
C742 C741 1.334 . S
C742 C743 1.287 . S
C743 C742 1.287 . S
C743 C744 1.524 . S
C743 H746 0.999 . S
C744 H714 0.950 . S
C744 C743 1.524 . S
C744 C745 1.415 . S
C745 H715 0.950 . S
C745 C740 1.363 . S
C745 C744 1.415 . S
H746 C743 0.999 . S
H747 C728 0.913 . S
H748 C766 0.951 . S
H749 C768 0.951 . S
H750 C770 0.950 . S
H751 C771 0.950 . S
H752 C773 0.950 . S
H753 C776 0.950 . S
H754 C777 0.950 . S
H755 C779 0.950 . S
H756 C780 0.950 . S
H757 C781 0.951 . S
H758 C783 0.951 . S
H759 C785 0.950 . S
H760 C786 0.950 . S
H761 C788 0.950 . S
H762 C791 0.950 . S
H763 C792 0.950 . S
H764 C794 0.950 . S
H765 C795 0.950 . S
C766 H748 0.951 . S
C766 C767 1.366 . S
C766 C768 1.388 . S
C767 C766 1.366 . S
C767 C771 1.385 . S
C768 H749 0.951 . S
C768 C766 1.388 . S
C768 C769 1.366 . S
C769 C768 1.366 . S
C769 C770 1.414 . S
C769 C772 1.499 . S
C770 H750 0.950 . S
C770 C769 1.414 . S
C770 C771 1.374 . S
C771 H751 0.950 . S
C771 C767 1.385 . S
C771 C770 1.374 . S
C772 C769 1.499 . S
C772 C773 1.373 . S
C772 C774 1.389 . S
C773 H752 0.950 . S
C773 C772 1.373 . S
C773 C789 1.377 . S
C774 C772 1.389 . S
C774 C775 1.524 . S
C774 C788 1.377 . S
C775 C774 1.524 . S
C775 C776 1.397 . S
C775 C780 1.363 . S
C776 H753 0.950 . S
C776 C775 1.397 . S
C776 C777 1.334 . S
C777 H754 0.950 . S
C777 C776 1.334 . S
C777 C778 1.287 . S
C778 C777 1.287 . S
C778 C779 1.524 . S
C778 H797 0.913 . S
C779 H755 0.950 . S
C779 C778 1.524 . S
C779 C780 1.415 . S
C780 H756 0.950 . S
C780 C775 1.363 . S
C780 C779 1.415 . S
C781 H757 0.951 . S
C781 C782 1.366 . S
C781 C783 1.388 . S
C782 C781 1.366 . S
C782 C786 1.385 . S
C783 H758 0.951 . S
C783 C781 1.388 . S
C783 C784 1.366 . S
C784 C783 1.366 . S
C784 C785 1.414 . S
C784 C787 1.499 . S
C785 H759 0.950 . S
C785 C784 1.414 . S
C785 C786 1.374 . S
C786 H760 0.950 . S
C786 C782 1.385 . S
C786 C785 1.374 . S
C787 C784 1.499 . S
C787 C788 1.373 . S
C787 C789 1.389 . S
C788 H761 0.950 . S
C788 C774 1.377 . S
C788 C787 1.373 . S
C789 C773 1.377 . S
C789 C787 1.389 . S
C789 C790 1.524 . S
C790 C789 1.524 . S
C790 C791 1.397 . S
C790 C795 1.363 . S
C791 H762 0.950 . S
C791 C790 1.397 . S
C791 C792 1.334 1_556 S
C792 H763 0.950 . S
C792 C791 1.334 1_554 S
C792 C793 1.287 . S
C793 C792 1.287 . S
C793 C794 1.524 . S
C793 H796 0.999 . S
C794 H764 0.950 . S
C794 C793 1.524 . S
C794 C795 1.415 1_554 S
C795 H765 0.950 . S
C795 C790 1.363 . S
C795 C794 1.415 1_556 S
H796 C793 0.999 . S
H797 C778 0.913 . S
H798 C816 0.951 . S
H799 C818 0.951 . S
H800 C820 0.950 . S
H801 C821 0.950 . S
H802 C823 0.950 . S
H803 C826 0.950 . S
H804 C827 0.950 . S
H805 C829 0.950 . S
H806 C830 0.950 . S
H807 C831 0.951 . S
H808 C833 0.951 . S
H809 C835 0.950 . S
H810 C836 0.950 . S
H811 C838 0.950 . S
H812 C841 0.950 . S
H813 C842 0.950 . S
H814 C844 0.950 . S
H815 C845 0.950 . S
C816 H798 0.951 . S
C816 C817 1.366 . S
C816 C818 1.388 . S
C817 C816 1.366 . S
C817 C821 1.385 . S
C818 H799 0.951 . S
C818 C816 1.388 . S
C818 C819 1.366 . S
C819 C818 1.366 . S
C819 C820 1.414 . S
C819 C822 1.499 . S
C820 H800 0.950 . S
C820 C819 1.414 . S
C820 C821 1.374 . S
C821 H801 0.950 . S
C821 C817 1.385 . S
C821 C820 1.374 . S
C822 C819 1.499 . S
C822 C823 1.373 . S
C822 C824 1.389 . S
C823 H802 0.950 . S
C823 C822 1.373 . S
C823 C839 1.377 . S
C824 C822 1.389 . S
C824 C825 1.524 . S
C824 C838 1.377 . S
C825 C824 1.524 . S
C825 C826 1.397 . S
C825 C830 1.363 . S
C826 H803 0.950 . S
C826 C825 1.397 . S
C826 C827 1.334 . S
C827 H804 0.950 . S
C827 C826 1.334 . S
C827 C828 1.287 . S
C828 C827 1.287 . S
C828 C829 1.524 . S
C828 H847 0.913 . S
C829 H805 0.950 . S
C829 C828 1.524 . S
C829 C830 1.415 . S
C830 H806 0.950 . S
C830 C825 1.363 . S
C830 C829 1.415 . S
C831 H807 0.951 . S
C831 C832 1.366 . S
C831 C833 1.388 . S
C832 C831 1.366 . S
C832 C836 1.385 . S
C833 H808 0.951 . S
C833 C831 1.388 . S
C833 C834 1.366 . S
C834 C833 1.366 . S
C834 C835 1.414 . S
C834 C837 1.499 . S
C835 H809 0.950 . S
C835 C834 1.414 . S
C835 C836 1.374 . S
C836 H810 0.950 . S
C836 C832 1.385 . S
C836 C835 1.374 . S
C837 C834 1.499 . S
C837 C838 1.373 . S
C837 C839 1.389 . S
C838 H811 0.950 . S
C838 C824 1.377 . S
C838 C837 1.373 . S
C839 C823 1.377 . S
C839 C837 1.389 . S
C839 C840 1.524 . S
C840 C839 1.524 . S
C840 C841 1.397 . S
C840 C845 1.363 . S
C841 H812 0.950 . S
C841 C840 1.397 . S
C841 C842 1.334 . S
C842 H813 0.950 . S
C842 C841 1.334 . S
C842 C843 1.287 . S
C843 C842 1.287 . S
C843 C844 1.524 . S
C843 H846 0.999 . S
C844 H814 0.950 . S
C844 C843 1.524 . S
C844 C845 1.415 . S
C845 H815 0.950 . S
C845 C840 1.363 . S
C845 C844 1.415 . S
H846 C843 0.999 . S
H847 C828 0.913 . S
H848 C866 0.951 . S
H849 C868 0.951 . S
H850 C870 0.950 . S
H851 C871 0.950 . S
H852 C873 0.950 . S
H853 C876 0.950 . S
H854 C877 0.950 . S
H855 C879 0.950 . S
H856 C880 0.950 . S
H857 C881 0.951 . S
H858 C883 0.951 . S
H859 C885 0.950 . S
H860 C886 0.950 . S
H861 C888 0.950 . S
H862 C891 0.950 . S
H863 C892 0.950 . S
H864 C894 0.950 . S
H865 C895 0.950 . S
C866 H848 0.951 . S
C866 C867 1.366 . S
C866 C868 1.388 . S
C867 C866 1.366 . S
C867 C871 1.385 . S
C868 H849 0.951 . S
C868 C866 1.388 . S
C868 C869 1.366 . S
C869 C868 1.366 . S
C869 C870 1.414 . S
C869 C872 1.499 . S
C870 H850 0.950 . S
C870 C869 1.414 . S
C870 C871 1.374 . S
C871 H851 0.950 . S
C871 C867 1.385 . S
C871 C870 1.374 . S
C872 C869 1.499 . S
C872 C873 1.373 . S
C872 C874 1.389 . S
C873 H852 0.950 . S
C873 C872 1.373 . S
C873 C889 1.377 . S
C874 C872 1.389 . S
C874 C875 1.524 . S
C874 C888 1.377 . S
C875 C874 1.524 . S
C875 C876 1.397 . S
C875 C880 1.363 . S
C876 H853 0.950 . S
C876 C875 1.397 . S
C876 C877 1.334 . S
C877 H854 0.950 . S
C877 C876 1.334 . S
C877 C878 1.287 . S
C878 C877 1.287 . S
C878 C879 1.524 . S
C878 H897 0.913 . S
C879 H855 0.950 . S
C879 C878 1.524 . S
C879 C880 1.415 . S
C880 H856 0.950 . S
C880 C875 1.363 . S
C880 C879 1.415 . S
C881 H857 0.951 . S
C881 C882 1.366 . S
C881 C883 1.388 . S
C882 C881 1.366 . S
C882 C886 1.385 . S
C883 H858 0.951 . S
C883 C881 1.388 . S
C883 C884 1.366 . S
C884 C883 1.366 . S
C884 C885 1.414 . S
C884 C887 1.499 . S
C885 H859 0.950 . S
C885 C884 1.414 . S
C885 C886 1.374 . S
C886 H860 0.950 . S
C886 C882 1.385 . S
C886 C885 1.374 . S
C887 C884 1.499 . S
C887 C888 1.373 . S
C887 C889 1.389 . S
C888 H861 0.950 . S
C888 C874 1.377 . S
C888 C887 1.373 . S
C889 C873 1.377 . S
C889 C887 1.389 . S
C889 C890 1.524 . S
C890 C889 1.524 . S
C890 C891 1.397 . S
C890 C895 1.363 . S
C891 H862 0.950 . S
C891 C890 1.397 . S
C891 C892 1.334 . S
C892 H863 0.950 . S
C892 C891 1.334 . S
C892 C893 1.287 . S
C893 C892 1.287 . S
C893 C894 1.524 . S
C893 H896 0.999 . S
C894 H864 0.950 . S
C894 C893 1.524 . S
C894 C895 1.415 . S
C895 H865 0.950 . S
C895 C890 1.363 . S
C895 C894 1.415 . S
H896 C893 0.999 . S
H897 C878 0.913 . S
H898 C916 0.951 . S
H899 C918 0.951 . S
H900 C920 0.950 . S
H901 C921 0.950 . S
H902 C923 0.950 . S
H903 C926 0.950 . S
H904 C927 0.950 . S
H905 C929 0.950 . S
H906 C930 0.950 . S
H907 C931 0.951 . S
H908 C933 0.951 . S
H909 C935 0.950 . S
H910 C936 0.950 . S
H911 C938 0.950 . S
H912 C941 0.950 . S
H913 C942 0.950 . S
H914 C944 0.950 . S
H915 C945 0.950 . S
C916 H898 0.951 . S
C916 C917 1.366 . S
C916 C918 1.388 . S
C917 C916 1.366 . S
C917 C921 1.385 . S
C918 H899 0.951 . S
C918 C916 1.388 . S
C918 C919 1.366 . S
C919 C918 1.366 . S
C919 C920 1.414 . S
C919 C922 1.499 . S
C920 H900 0.950 . S
C920 C919 1.414 . S
C920 C921 1.374 . S
C921 H901 0.950 . S
C921 C917 1.385 . S
C921 C920 1.374 . S
C922 C919 1.499 . S
C922 C923 1.373 . S
C922 C924 1.389 . S
C923 H902 0.950 . S
C923 C922 1.373 . S
C923 C939 1.377 . S
C924 C922 1.389 . S
C924 C925 1.524 . S
C924 C938 1.377 . S
C925 C924 1.524 . S
C925 C926 1.397 . S
C925 C930 1.363 . S
C926 H903 0.950 . S
C926 C925 1.397 . S
C926 C927 1.334 . S
C927 H904 0.950 . S
C927 C926 1.334 . S
C927 C928 1.287 . S
C928 C927 1.287 . S
C928 C929 1.524 . S
C928 H947 0.913 . S
C929 H905 0.950 . S
C929 C928 1.524 . S
C929 C930 1.415 . S
C930 H906 0.950 . S
C930 C925 1.363 . S
C930 C929 1.415 . S
C931 H907 0.951 . S
C931 C932 1.366 . S
C931 C933 1.388 . S
C932 C931 1.366 . S
C932 C936 1.385 . S
C933 H908 0.951 . S
C933 C931 1.388 . S
C933 C934 1.366 . S
C934 C933 1.366 . S
C934 C935 1.414 . S
C934 C937 1.499 . S
C935 H909 0.950 . S
C935 C934 1.414 . S
C935 C936 1.374 . S
C936 H910 0.950 . S
C936 C932 1.385 . S
C936 C935 1.374 . S
C937 C934 1.499 . S
C937 C938 1.373 . S
C937 C939 1.389 . S
C938 H911 0.950 . S
C938 C924 1.377 . S
C938 C937 1.373 . S
C939 C923 1.377 . S
C939 C937 1.389 . S
C939 C940 1.524 . S
C940 C939 1.524 . S
C940 C941 1.397 . S
C940 C945 1.363 . S
C941 H912 0.950 . S
C941 C940 1.397 . S
C941 C942 1.334 . S
C942 H913 0.950 . S
C942 C941 1.334 . S
C942 C943 1.287 . S
C943 C942 1.287 . S
C943 C944 1.524 . S
C943 H946 0.999 . S
C944 H914 0.950 . S
C944 C943 1.524 . S
C944 C945 1.415 . S
C945 H915 0.950 . S
C945 C940 1.363 . S
C945 C944 1.415 . S
H946 C943 0.999 . S
H947 C928 0.913 . S
H948 C966 0.951 . S
H949 C968 0.951 . S
H950 C970 0.950 . S
H951 C971 0.950 . S
H952 C973 0.950 . S
H953 C976 0.950 . S
H954 C977 0.950 . S
H955 C979 0.950 . S
H956 C980 0.950 1_455 S
H957 C981 0.951 . S
H958 C983 0.951 . S
H959 C985 0.950 . S
H960 C986 0.950 1_455 S
H961 C988 0.950 . S
H962 C991 0.950 . S
H963 C992 0.950 . S
H964 C994 0.950 . S
H965 C995 0.950 . S
C966 H948 0.951 . S
C966 C967 1.366 . S
C966 C968 1.388 . S
C967 C966 1.366 . S
C967 C971 1.385 . S
C968 H949 0.951 . S
C968 C966 1.388 . S
C968 C969 1.366 . S
C969 C968 1.366 . S
C969 C970 1.414 . S
C969 C972 1.499 . S
C970 H950 0.950 . S
C970 C969 1.414 . S
C970 C971 1.374 . S
C971 H951 0.950 . S
C971 C967 1.385 . S
C971 C970 1.374 . S
C972 C969 1.499 . S
C972 C973 1.373 . S
C972 C974 1.389 . S
C973 H952 0.950 . S
C973 C972 1.373 . S
C973 C989 1.377 . S
C974 C972 1.389 . S
C974 C975 1.524 . S
C974 C988 1.377 . S
C975 C974 1.524 . S
C975 C976 1.397 . S
C975 C980 1.363 . S
C976 H953 0.950 . S
C976 C975 1.397 . S
C976 C977 1.334 . S
C977 H954 0.950 . S
C977 C976 1.334 . S
C977 C978 1.287 . S
C978 C977 1.287 . S
C978 C979 1.524 1_655 S
C978 H997 0.913 1_655 S
C979 H955 0.950 . S
C979 C978 1.524 1_455 S
C979 C980 1.415 1_455 S
C980 H956 0.950 1_655 S
C980 C975 1.363 . S
C980 C979 1.415 1_655 S
C981 H957 0.951 . S
C981 C982 1.366 . S
C981 C983 1.388 . S
C982 C981 1.366 . S
C982 C986 1.385 . S
C983 H958 0.951 . S
C983 C981 1.388 . S
C983 C984 1.366 . S
C984 C983 1.366 . S
C984 C985 1.414 . S
C984 C987 1.499 . S
C985 H959 0.950 . S
C985 C984 1.414 . S
C985 C986 1.374 . S
C986 H960 0.950 1_655 S
C986 C982 1.385 . S
C986 C985 1.374 . S
C987 C984 1.499 . S
C987 C988 1.373 . S
C987 C989 1.389 . S
C988 H961 0.950 . S
C988 C974 1.377 . S
C988 C987 1.373 . S
C989 C973 1.377 . S
C989 C987 1.389 . S
C989 C990 1.524 . S
C990 C989 1.524 . S
C990 C991 1.397 . S
C990 C995 1.363 . S
C991 H962 0.950 . S
C991 C990 1.397 . S
C991 C992 1.334 . S
C992 H963 0.950 . S
C992 C991 1.334 . S
C992 C993 1.287 . S
C993 C992 1.287 . S
C993 C994 1.524 . S
C993 H996 0.999 . S
C994 H964 0.950 . S
C994 C993 1.524 . S
C994 C995 1.415 . S
C995 H965 0.950 . S
C995 C990 1.363 . S
C995 C994 1.415 . S
H996 C993 0.999 . S
H997 C978 0.913 1_455 S
H998 C1016 0.951 . S
H999 C1018 0.951 . S
H1000 C1020 0.950 . S
H1001 C1021 0.950 . S
H1002 C1023 0.950 . S
H1003 C1026 0.950 . S
H1004 C1027 0.950 . S
H1005 C1029 0.950 . S
H1006 C1030 0.950 . S
H1007 C1031 0.951 . S
H1008 C1033 0.951 . S
H1009 C1035 0.950 . S
H1010 C1036 0.950 . S
H1011 C1038 0.950 . S
H1012 C1041 0.950 . S
H1013 C1042 0.950 . S
H1014 C1044 0.950 . S
H1015 C1045 0.950 . S
C1016 H998 0.951 . S
C1016 C1017 1.366 . S
C1016 C1018 1.388 . S
C1017 C1016 1.366 . S
C1017 C1021 1.385 . S
C1018 H999 0.951 . S
C1018 C1016 1.388 . S
C1018 C1019 1.366 . S
C1019 C1018 1.366 . S
C1019 C1020 1.414 . S
C1019 C1022 1.499 . S
C1020 H1000 0.950 . S
C1020 C1019 1.414 . S
C1020 C1021 1.374 . S
C1021 H1001 0.950 . S
C1021 C1017 1.385 . S
C1021 C1020 1.374 . S
C1022 C1019 1.499 . S
C1022 C1023 1.373 . S
C1022 C1024 1.389 . S
C1023 H1002 0.950 . S
C1023 C1022 1.373 . S
C1023 C1039 1.377 . S
C1024 C1022 1.389 . S
C1024 C1025 1.524 . S
C1024 C1038 1.377 . S
C1025 C1024 1.524 . S
C1025 C1026 1.397 . S
C1025 C1030 1.363 . S
C1026 H1003 0.950 . S
C1026 C1025 1.397 . S
C1026 C1027 1.334 . S
C1027 H1004 0.950 . S
C1027 C1026 1.334 . S
C1027 C1028 1.287 . S
C1028 C1027 1.287 . S
C1028 C1029 1.524 . S
C1028 H1047 0.913 . S
C1029 H1005 0.950 . S
C1029 C1028 1.524 . S
C1029 C1030 1.415 . S
C1030 H1006 0.950 . S
C1030 C1025 1.363 . S
C1030 C1029 1.415 . S
C1031 H1007 0.951 . S
C1031 C1032 1.366 . S
C1031 C1033 1.388 . S
C1032 C1031 1.366 . S
C1032 C1036 1.385 . S
C1033 H1008 0.951 . S
C1033 C1031 1.388 . S
C1033 C1034 1.366 . S
C1034 C1033 1.366 . S
C1034 C1035 1.414 . S
C1034 C1037 1.499 . S
C1035 H1009 0.950 . S
C1035 C1034 1.414 . S
C1035 C1036 1.374 . S
C1036 H1010 0.950 . S
C1036 C1032 1.385 . S
C1036 C1035 1.374 . S
C1037 C1034 1.499 . S
C1037 C1038 1.373 . S
C1037 C1039 1.389 . S
C1038 H1011 0.950 . S
C1038 C1024 1.377 . S
C1038 C1037 1.373 . S
C1039 C1023 1.377 . S
C1039 C1037 1.389 . S
C1039 C1040 1.524 . S
C1040 C1039 1.524 . S
C1040 C1041 1.397 . S
C1040 C1045 1.363 . S
C1041 H1012 0.950 . S
C1041 C1040 1.397 . S
C1041 C1042 1.334 . S
C1042 H1013 0.950 . S
C1042 C1041 1.334 . S
C1042 C1043 1.287 . S
C1043 C1042 1.287 . S
C1043 C1044 1.524 . S
C1043 H1046 0.999 . S
C1044 H1014 0.950 . S
C1044 C1043 1.524 . S
C1044 C1045 1.415 . S
C1045 H1015 0.950 . S
C1045 C1040 1.363 . S
C1045 C1044 1.415 . S
H1046 C1043 0.999 . S
H1047 C1028 0.913 . S
H1048 C1066 0.951 . S
H1049 C1068 0.951 . S
H1050 C1070 0.950 . S
H1051 C1071 0.950 . S
H1052 C1073 0.950 . S
H1053 C1076 0.950 . S
H1054 C1077 0.950 . S
H1055 C1079 0.950 . S
H1056 C1080 0.950 . S
H1057 C1081 0.951 . S
H1058 C1083 0.951 . S
H1059 C1085 0.950 . S
H1060 C1086 0.950 . S
H1061 C1088 0.950 . S
H1062 C1091 0.950 . S
H1063 C1092 0.950 . S
H1064 C1094 0.950 . S
H1065 C1095 0.950 . S
C1066 H1048 0.951 . S
C1066 C1067 1.366 . S
C1066 C1068 1.388 . S
C1067 C1066 1.366 . S
C1067 C1071 1.385 . S
C1068 H1049 0.951 . S
C1068 C1066 1.388 . S
C1068 C1069 1.366 . S
C1069 C1068 1.366 . S
C1069 C1070 1.414 . S
C1069 C1072 1.499 . S
C1070 H1050 0.950 . S
C1070 C1069 1.414 . S
C1070 C1071 1.374 . S
C1071 H1051 0.950 . S
C1071 C1067 1.385 . S
C1071 C1070 1.374 . S
C1072 C1069 1.499 . S
C1072 C1073 1.373 . S
C1072 C1074 1.389 . S
C1073 H1052 0.950 . S
C1073 C1072 1.373 . S
C1073 C1089 1.377 . S
C1074 C1072 1.389 . S
C1074 C1075 1.524 . S
C1074 C1088 1.377 . S
C1075 C1074 1.524 . S
C1075 C1076 1.397 . S
C1075 C1080 1.363 . S
C1076 H1053 0.950 . S
C1076 C1075 1.397 . S
C1076 C1077 1.334 . S
C1077 H1054 0.950 . S
C1077 C1076 1.334 . S
C1077 C1078 1.287 . S
C1078 C1077 1.287 . S
C1078 C1079 1.524 . S
C1078 H1097 0.913 . S
C1079 H1055 0.950 . S
C1079 C1078 1.524 . S
C1079 C1080 1.415 . S
C1080 H1056 0.950 . S
C1080 C1075 1.363 . S
C1080 C1079 1.415 . S
C1081 H1057 0.951 . S
C1081 C1082 1.366 . S
C1081 C1083 1.388 . S
C1082 C1081 1.366 . S
C1082 C1086 1.385 . S
C1083 H1058 0.951 . S
C1083 C1081 1.388 . S
C1083 C1084 1.366 . S
C1084 C1083 1.366 . S
C1084 C1085 1.414 . S
C1084 C1087 1.499 . S
C1085 H1059 0.950 . S
C1085 C1084 1.414 . S
C1085 C1086 1.374 . S
C1086 H1060 0.950 . S
C1086 C1082 1.385 . S
C1086 C1085 1.374 . S
C1087 C1084 1.499 . S
C1087 C1088 1.373 . S
C1087 C1089 1.389 . S
C1088 H1061 0.950 . S
C1088 C1074 1.377 . S
C1088 C1087 1.373 . S
C1089 C1073 1.377 . S
C1089 C1087 1.389 . S
C1089 C1090 1.524 . S
C1090 C1089 1.524 . S
C1090 C1091 1.397 . S
C1090 C1095 1.363 . S
C1091 H1062 0.950 . S
C1091 C1090 1.397 . S
C1091 C1092 1.334 . S
C1092 H1063 0.950 . S
C1092 C1091 1.334 . S
C1092 C1093 1.287 . S
C1093 C1092 1.287 . S
C1093 C1094 1.524 . S
C1093 H1096 0.999 . S
C1094 H1064 0.950 . S
C1094 C1093 1.524 . S
C1094 C1095 1.415 . S
C1095 H1065 0.950 . S
C1095 C1090 1.363 . S
C1095 C1094 1.415 . S
H1096 C1093 0.999 . S
H1097 C1078 0.913 . S
H1098 C1116 0.951 . S
H1099 C1118 0.951 . S
H1100 C1120 0.950 . S
H1101 C1121 0.950 . S
H1102 C1123 0.950 . S
H1103 C1126 0.950 . S
H1104 C1127 0.950 . S
H1105 C1129 0.950 . S
H1106 C1130 0.950 . S
H1107 C1131 0.951 . S
H1108 C1133 0.951 . S
H1109 C1135 0.950 . S
H1110 C1136 0.950 . S
H1111 C1138 0.950 . S
H1112 C1141 0.950 . S
H1113 C1142 0.950 . S
H1114 C1144 0.950 . S
H1115 C1145 0.950 . S
C1116 H1098 0.951 . S
C1116 C1117 1.366 . S
C1116 C1118 1.388 . S
C1117 C1116 1.366 . S
C1117 C1121 1.385 . S
C1118 H1099 0.951 . S
C1118 C1116 1.388 . S
C1118 C1119 1.366 . S
C1119 C1118 1.366 . S
C1119 C1120 1.414 . S
C1119 C1122 1.499 . S
C1120 H1100 0.950 . S
C1120 C1119 1.414 . S
C1120 C1121 1.374 . S
C1121 H1101 0.950 . S
C1121 C1117 1.385 . S
C1121 C1120 1.374 . S
C1122 C1119 1.499 . S
C1122 C1123 1.373 . S
C1122 C1124 1.389 . S
C1123 H1102 0.950 . S
C1123 C1122 1.373 . S
C1123 C1139 1.377 . S
C1124 C1122 1.389 . S
C1124 C1125 1.524 . S
C1124 C1138 1.377 . S
C1125 C1124 1.524 . S
C1125 C1126 1.397 . S
C1125 C1130 1.363 . S
C1126 H1103 0.950 . S
C1126 C1125 1.397 . S
C1126 C1127 1.334 . S
C1127 H1104 0.950 . S
C1127 C1126 1.334 . S
C1127 C1128 1.287 . S
C1128 C1127 1.287 . S
C1128 C1129 1.524 . S
C1128 H1147 0.913 . S
C1129 H1105 0.950 . S
C1129 C1128 1.524 . S
C1129 C1130 1.415 . S
C1130 H1106 0.950 . S
C1130 C1125 1.363 . S
C1130 C1129 1.415 . S
C1131 H1107 0.951 . S
C1131 C1132 1.366 . S
C1131 C1133 1.388 . S
C1132 C1131 1.366 . S
C1132 C1136 1.385 . S
C1133 H1108 0.951 . S
C1133 C1131 1.388 . S
C1133 C1134 1.366 . S
C1134 C1133 1.366 . S
C1134 C1135 1.414 . S
C1134 C1137 1.499 . S
C1135 H1109 0.950 . S
C1135 C1134 1.414 . S
C1135 C1136 1.374 . S
C1136 H1110 0.950 . S
C1136 C1132 1.385 . S
C1136 C1135 1.374 . S
C1137 C1134 1.499 . S
C1137 C1138 1.373 . S
C1137 C1139 1.389 . S
C1138 H1111 0.950 . S
C1138 C1124 1.377 . S
C1138 C1137 1.373 . S
C1139 C1123 1.377 . S
C1139 C1137 1.389 . S
C1139 C1140 1.524 . S
C1140 C1139 1.524 . S
C1140 C1141 1.397 . S
C1140 C1145 1.363 . S
C1141 H1112 0.950 . S
C1141 C1140 1.397 . S
C1141 C1142 1.334 . S
C1142 H1113 0.950 . S
C1142 C1141 1.334 . S
C1142 C1143 1.287 . S
C1143 C1142 1.287 . S
C1143 C1144 1.524 . S
C1143 H1146 0.999 . S
C1144 H1114 0.950 . S
C1144 C1143 1.524 . S
C1144 C1145 1.415 . S
C1145 H1115 0.950 . S
C1145 C1140 1.363 . S
C1145 C1144 1.415 . S
H1146 C1143 0.999 . S
H1147 C1128 0.913 . S
H1148 C1166 0.951 . S
H1149 C1168 0.951 . S
H1150 C1170 0.950 . S
H1151 C1171 0.950 . S
H1152 C1173 0.950 . S
H1153 C1176 0.950 . S
H1154 C1177 0.950 . S
H1155 C1179 0.950 . S
H1156 C1180 0.950 . S
H1157 C1181 0.951 . S
H1158 C1183 0.951 . S
H1159 C1185 0.950 . S
H1160 C1186 0.950 . S
H1161 C1188 0.950 . S
H1162 C1191 0.950 . S
H1163 C1192 0.950 . S
H1164 C1194 0.950 . S
H1165 C1195 0.950 . S
C1166 H1148 0.951 . S
C1166 C1167 1.366 . S
C1166 C1168 1.388 . S
C1167 C1166 1.366 . S
C1167 C1171 1.385 . S
C1168 H1149 0.951 . S
C1168 C1166 1.388 . S
C1168 C1169 1.366 . S
C1169 C1168 1.366 . S
C1169 C1170 1.414 . S
C1169 C1172 1.499 . S
C1170 H1150 0.950 . S
C1170 C1169 1.414 . S
C1170 C1171 1.374 . S
C1171 H1151 0.950 . S
C1171 C1167 1.385 . S
C1171 C1170 1.374 . S
C1172 C1169 1.499 . S
C1172 C1173 1.373 . S
C1172 C1174 1.389 . S
C1173 H1152 0.950 . S
C1173 C1172 1.373 . S
C1173 C1189 1.377 . S
C1174 C1172 1.389 . S
C1174 C1175 1.524 . S
C1174 C1188 1.377 . S
C1175 C1174 1.524 . S
C1175 C1176 1.397 . S
C1175 C1180 1.363 . S
C1176 H1153 0.950 . S
C1176 C1175 1.397 . S
C1176 C1177 1.334 . S
C1177 H1154 0.950 . S
C1177 C1176 1.334 . S
C1177 C1178 1.287 . S
C1178 C1177 1.287 . S
C1178 C1179 1.524 . S
C1178 H1197 0.913 . S
C1179 H1155 0.950 . S
C1179 C1178 1.524 . S
C1179 C1180 1.415 . S
C1180 H1156 0.950 . S
C1180 C1175 1.363 . S
C1180 C1179 1.415 . S
C1181 H1157 0.951 . S
C1181 C1182 1.366 . S
C1181 C1183 1.388 . S
C1182 C1181 1.366 . S
C1182 C1186 1.385 . S
C1183 H1158 0.951 . S
C1183 C1181 1.388 . S
C1183 C1184 1.366 . S
C1184 C1183 1.366 . S
C1184 C1185 1.414 . S
C1184 C1187 1.499 . S
C1185 H1159 0.950 . S
C1185 C1184 1.414 . S
C1185 C1186 1.374 . S
C1186 H1160 0.950 . S
C1186 C1182 1.385 . S
C1186 C1185 1.374 . S
C1187 C1184 1.499 . S
C1187 C1188 1.373 . S
C1187 C1189 1.389 . S
C1188 H1161 0.950 . S
C1188 C1174 1.377 . S
C1188 C1187 1.373 . S
C1189 C1173 1.377 . S
C1189 C1187 1.389 . S
C1189 C1190 1.524 . S
C1190 C1189 1.524 . S
C1190 C1191 1.397 . S
C1190 C1195 1.363 . S
C1191 H1162 0.950 . S
C1191 C1190 1.397 . S
C1191 C1192 1.334 . S
C1192 H1163 0.950 . S
C1192 C1191 1.334 . S
C1192 C1193 1.287 . S
C1193 C1192 1.287 . S
C1193 C1194 1.524 . S
C1193 H1196 0.999 . S
C1194 H1164 0.950 . S
C1194 C1193 1.524 . S
C1194 C1195 1.415 . S
C1195 H1165 0.950 . S
C1195 C1190 1.363 . S
C1195 C1194 1.415 . S
H1196 C1193 0.999 . S
H1197 C1178 0.913 . S
H1198 C1216 0.951 . S
H1199 C1218 0.951 . S
H1200 C1220 0.950 . S
H1201 C1221 0.950 . S
H1202 C1223 0.950 . S
H1203 C1226 0.950 . S
H1204 C1227 0.950 . S
H1205 C1229 0.950 . S
H1206 C1230 0.950 . S
H1207 C1231 0.951 . S
H1208 C1233 0.951 . S
H1209 C1235 0.950 . S
H1210 C1236 0.950 . S
H1211 C1238 0.950 . S
H1212 C1241 0.950 . S
H1213 C1242 0.950 . S
H1214 C1244 0.950 . S
H1215 C1245 0.950 . S
C1216 H1198 0.951 . S
C1216 C1217 1.366 . S
C1216 C1218 1.388 . S
C1217 C1216 1.366 . S
C1217 C1221 1.385 . S
C1218 H1199 0.951 . S
C1218 C1216 1.388 . S
C1218 C1219 1.366 . S
C1219 C1218 1.366 . S
C1219 C1220 1.414 . S
C1219 C1222 1.499 . S
C1220 H1200 0.950 . S
C1220 C1219 1.414 . S
C1220 C1221 1.374 . S
C1221 H1201 0.950 . S
C1221 C1217 1.385 . S
C1221 C1220 1.374 . S
C1222 C1219 1.499 . S
C1222 C1223 1.373 . S
C1222 C1224 1.389 . S
C1223 H1202 0.950 . S
C1223 C1222 1.373 . S
C1223 C1239 1.377 . S
C1224 C1222 1.389 . S
C1224 C1225 1.524 . S
C1224 C1238 1.377 . S
C1225 C1224 1.524 . S
C1225 C1226 1.397 . S
C1225 C1230 1.363 . S
C1226 H1203 0.950 . S
C1226 C1225 1.397 . S
C1226 C1227 1.334 . S
C1227 H1204 0.950 . S
C1227 C1226 1.334 . S
C1227 C1228 1.287 . S
C1228 C1227 1.287 . S
C1228 C1229 1.524 . S
C1228 H1247 0.913 . S
C1229 H1205 0.950 . S
C1229 C1228 1.524 . S
C1229 C1230 1.415 . S
C1230 H1206 0.950 . S
C1230 C1225 1.363 . S
C1230 C1229 1.415 . S
C1231 H1207 0.951 . S
C1231 C1232 1.366 . S
C1231 C1233 1.388 . S
C1232 C1231 1.366 . S
C1232 C1236 1.385 . S
C1233 H1208 0.951 . S
C1233 C1231 1.388 . S
C1233 C1234 1.366 . S
C1234 C1233 1.366 . S
C1234 C1235 1.414 . S
C1234 C1237 1.499 . S
C1235 H1209 0.950 . S
C1235 C1234 1.414 . S
C1235 C1236 1.374 . S
C1236 H1210 0.950 . S
C1236 C1232 1.385 . S
C1236 C1235 1.374 . S
C1237 C1234 1.499 . S
C1237 C1238 1.373 . S
C1237 C1239 1.389 . S
C1238 H1211 0.950 . S
C1238 C1224 1.377 . S
C1238 C1237 1.373 . S
C1239 C1223 1.377 . S
C1239 C1237 1.389 . S
C1239 C1240 1.524 . S
C1240 C1239 1.524 . S
C1240 C1241 1.397 . S
C1240 C1245 1.363 . S
C1241 H1212 0.950 . S
C1241 C1240 1.397 . S
C1241 C1242 1.334 . S
C1242 H1213 0.950 . S
C1242 C1241 1.334 . S
C1242 C1243 1.287 . S
C1243 C1242 1.287 . S
C1243 C1244 1.524 . S
C1243 H1246 0.999 . S
C1244 H1214 0.950 . S
C1244 C1243 1.524 . S
C1244 C1245 1.415 . S
C1245 H1215 0.950 . S
C1245 C1240 1.363 . S
C1245 C1244 1.415 . S
H1246 C1243 0.999 . S
H1247 C1228 0.913 . S
H1248 C1266 0.951 . S
H1249 C1268 0.951 . S
H1250 C1270 0.950 . S
H1251 C1271 0.950 . S
H1252 C1273 0.950 . S
H1253 C1276 0.950 . S
H1254 C1277 0.950 . S
H1255 C1279 0.950 . S
H1256 C1280 0.950 . S
H1257 C1281 0.951 . S
H1258 C1283 0.951 . S
H1259 C1285 0.950 . S
H1260 C1286 0.950 . S
H1261 C1288 0.950 . S
H1262 C1291 0.950 . S
H1263 C1292 0.950 1_554 S
H1264 C1294 0.950 . S
H1265 C1295 0.950 . S
C1266 H1248 0.951 . S
C1266 C1267 1.366 . S
C1266 C1268 1.388 . S
C1267 C1266 1.366 . S
C1267 C1271 1.385 . S
C1268 H1249 0.951 . S
C1268 C1266 1.388 . S
C1268 C1269 1.366 . S
C1269 C1268 1.366 . S
C1269 C1270 1.414 . S
C1269 C1272 1.499 . S
C1270 H1250 0.950 . S
C1270 C1269 1.414 . S
C1270 C1271 1.374 . S
C1271 H1251 0.950 . S
C1271 C1267 1.385 . S
C1271 C1270 1.374 . S
C1272 C1269 1.499 . S
C1272 C1273 1.373 . S
C1272 C1274 1.389 . S
C1273 H1252 0.950 . S
C1273 C1272 1.373 . S
C1273 C1289 1.377 . S
C1274 C1272 1.389 . S
C1274 C1275 1.524 . S
C1274 C1288 1.377 . S
C1275 C1274 1.524 . S
C1275 C1276 1.397 . S
C1275 C1280 1.363 . S
C1276 H1253 0.950 . S
C1276 C1275 1.397 . S
C1276 C1277 1.334 . S
C1277 H1254 0.950 . S
C1277 C1276 1.334 . S
C1277 C1278 1.287 . S
C1278 C1277 1.287 . S
C1278 C1279 1.524 . S
C1278 H1297 0.913 . S
C1279 H1255 0.950 . S
C1279 C1278 1.524 . S
C1279 C1280 1.415 . S
C1280 H1256 0.950 . S
C1280 C1275 1.363 . S
C1280 C1279 1.415 . S
C1281 H1257 0.951 . S
C1281 C1282 1.366 . S
C1281 C1283 1.388 . S
C1282 C1281 1.366 . S
C1282 C1286 1.385 . S
C1283 H1258 0.951 . S
C1283 C1281 1.388 . S
C1283 C1284 1.366 . S
C1284 C1283 1.366 . S
C1284 C1285 1.414 . S
C1284 C1287 1.499 . S
C1285 H1259 0.950 . S
C1285 C1284 1.414 . S
C1285 C1286 1.374 . S
C1286 H1260 0.950 . S
C1286 C1282 1.385 . S
C1286 C1285 1.374 . S
C1287 C1284 1.499 . S
C1287 C1288 1.373 . S
C1287 C1289 1.389 . S
C1288 H1261 0.950 . S
C1288 C1274 1.377 . S
C1288 C1287 1.373 . S
C1289 C1273 1.377 . S
C1289 C1287 1.389 . S
C1289 C1290 1.524 . S
C1290 C1289 1.524 . S
C1290 C1291 1.397 . S
C1290 C1295 1.363 . S
C1291 H1262 0.950 . S
C1291 C1290 1.397 . S
C1291 C1292 1.334 . S
C1292 H1263 0.950 1_556 S
C1292 C1291 1.334 . S
C1292 C1293 1.287 . S
C1293 C1292 1.287 . S
C1293 C1294 1.524 . S
C1293 H1296 0.999 1_556 S
C1294 H1264 0.950 . S
C1294 C1293 1.524 . S
C1294 C1295 1.415 . S
C1295 H1265 0.950 . S
C1295 C1290 1.363 . S
C1295 C1294 1.415 . S
H1296 C1293 0.999 1_554 S
H1297 C1278 0.913 . S
H1298 C1316 0.951 . S
H1299 C1318 0.951 . S
H1300 C1320 0.950 . S
H1301 C1321 0.950 . S
H1302 C1323 0.950 . S
H1303 C1326 0.950 . S
H1304 C1327 0.950 . S
H1305 C1329 0.950 . S
H1306 C1330 0.950 . S
H1307 C1331 0.951 1_455 S
H1308 C1333 0.951 . S
H1309 C1335 0.950 . S
H1310 C1336 0.950 . S
H1311 C1338 0.950 . S
H1312 C1341 0.950 . S
H1313 C1342 0.950 . S
H1314 C1344 0.950 . S
H1315 C1345 0.950 . S
C1316 H1298 0.951 . S
C1316 C1317 1.366 . S
C1316 C1318 1.388 . S
C1317 C1316 1.366 . S
C1317 C1321 1.385 . S
C1318 H1299 0.951 . S
C1318 C1316 1.388 . S
C1318 C1319 1.366 . S
C1319 C1318 1.366 . S
C1319 C1320 1.414 . S
C1319 C1322 1.499 . S
C1320 H1300 0.950 . S
C1320 C1319 1.414 . S
C1320 C1321 1.374 . S
C1321 H1301 0.950 . S
C1321 C1317 1.385 . S
C1321 C1320 1.374 . S
C1322 C1319 1.499 . S
C1322 C1323 1.373 . S
C1322 C1324 1.389 . S
C1323 H1302 0.950 . S
C1323 C1322 1.373 . S
C1323 C1339 1.377 . S
C1324 C1322 1.389 . S
C1324 C1325 1.524 . S
C1324 C1338 1.377 . S
C1325 C1324 1.524 . S
C1325 C1326 1.397 . S
C1325 C1330 1.363 . S
C1326 H1303 0.950 . S
C1326 C1325 1.397 . S
C1326 C1327 1.334 . S
C1327 H1304 0.950 . S
C1327 C1326 1.334 . S
C1327 C1328 1.287 . S
C1328 C1327 1.287 . S
C1328 C1329 1.524 . S
C1328 H1347 0.913 . S
C1329 H1305 0.950 . S
C1329 C1328 1.524 . S
C1329 C1330 1.415 . S
C1330 H1306 0.950 . S
C1330 C1325 1.363 . S
C1330 C1329 1.415 . S
C1331 H1307 0.951 1_655 S
C1331 C1332 1.366 . S
C1331 C1333 1.388 . S
C1332 C1331 1.366 . S
C1332 C1336 1.385 . S
C1333 H1308 0.951 . S
C1333 C1331 1.388 . S
C1333 C1334 1.366 . S
C1334 C1333 1.366 . S
C1334 C1335 1.414 . S
C1334 C1337 1.499 . S
C1335 H1309 0.950 . S
C1335 C1334 1.414 . S
C1335 C1336 1.374 . S
C1336 H1310 0.950 . S
C1336 C1332 1.385 . S
C1336 C1335 1.374 . S
C1337 C1334 1.499 . S
C1337 C1338 1.373 . S
C1337 C1339 1.389 . S
C1338 H1311 0.950 . S
C1338 C1324 1.377 . S
C1338 C1337 1.373 . S
C1339 C1323 1.377 . S
C1339 C1337 1.389 . S
C1339 C1340 1.524 . S
C1340 C1339 1.524 . S
C1340 C1341 1.397 . S
C1340 C1345 1.363 . S
C1341 H1312 0.950 . S
C1341 C1340 1.397 . S
C1341 C1342 1.334 . S
C1342 H1313 0.950 . S
C1342 C1341 1.334 . S
C1342 C1343 1.287 . S
C1343 C1342 1.287 . S
C1343 C1344 1.524 1_655 S
C1343 H1346 0.999 1_655 S
C1344 H1314 0.950 . S
C1344 C1343 1.524 1_455 S
C1344 C1345 1.415 1_455 S
C1345 H1315 0.950 . S
C1345 C1340 1.363 . S
C1345 C1344 1.415 1_655 S
H1346 C1343 0.999 1_455 S
H1347 C1328 0.913 . S
H1348 C1366 0.951 . S
H1349 C1368 0.951 . S
H1350 C1370 0.950 . S
H1351 C1371 0.950 . S
H1352 C1373 0.950 . S
H1353 C1376 0.950 . S
H1354 C1377 0.950 . S
H1355 C1379 0.950 . S
H1356 C1380 0.950 . S
H1357 C1381 0.951 . S
H1358 C1383 0.951 . S
H1359 C1385 0.950 . S
H1360 C1386 0.950 . S
H1361 C1388 0.950 . S
H1362 C1391 0.950 . S
H1363 C1392 0.950 . S
H1364 C1394 0.950 . S
H1365 C1395 0.950 . S
C1366 H1348 0.951 . S
C1366 C1367 1.366 . S
C1366 C1368 1.388 . S
C1367 C1366 1.366 . S
C1367 C1371 1.385 . S
C1368 H1349 0.951 . S
C1368 C1366 1.388 . S
C1368 C1369 1.366 . S
C1369 C1368 1.366 . S
C1369 C1370 1.414 . S
C1369 C1372 1.499 . S
C1370 H1350 0.950 . S
C1370 C1369 1.414 . S
C1370 C1371 1.374 . S
C1371 H1351 0.950 . S
C1371 C1367 1.385 . S
C1371 C1370 1.374 . S
C1372 C1369 1.499 . S
C1372 C1373 1.373 . S
C1372 C1374 1.389 . S
C1373 H1352 0.950 . S
C1373 C1372 1.373 . S
C1373 C1389 1.377 . S
C1374 C1372 1.389 . S
C1374 C1375 1.524 . S
C1374 C1388 1.377 . S
C1375 C1374 1.524 . S
C1375 C1376 1.397 . S
C1375 C1380 1.363 . S
C1376 H1353 0.950 . S
C1376 C1375 1.397 . S
C1376 C1377 1.334 . S
C1377 H1354 0.950 . S
C1377 C1376 1.334 . S
C1377 C1378 1.287 . S
C1378 C1377 1.287 . S
C1378 C1379 1.524 . S
C1378 H1397 0.913 . S
C1379 H1355 0.950 . S
C1379 C1378 1.524 . S
C1379 C1380 1.415 . S
C1380 H1356 0.950 . S
C1380 C1375 1.363 . S
C1380 C1379 1.415 . S
C1381 H1357 0.951 . S
C1381 C1382 1.366 . S
C1381 C1383 1.388 . S
C1382 C1381 1.366 . S
C1382 C1386 1.385 . S
C1383 H1358 0.951 . S
C1383 C1381 1.388 . S
C1383 C1384 1.366 . S
C1384 C1383 1.366 . S
C1384 C1385 1.414 . S
C1384 C1387 1.499 . S
C1385 H1359 0.950 . S
C1385 C1384 1.414 . S
C1385 C1386 1.374 . S
C1386 H1360 0.950 . S
C1386 C1382 1.385 . S
C1386 C1385 1.374 . S
C1387 C1384 1.499 . S
C1387 C1388 1.373 . S
C1387 C1389 1.389 . S
C1388 H1361 0.950 . S
C1388 C1374 1.377 . S
C1388 C1387 1.373 . S
C1389 C1373 1.377 . S
C1389 C1387 1.389 . S
C1389 C1390 1.524 . S
C1390 C1389 1.524 . S
C1390 C1391 1.397 . S
C1390 C1395 1.363 . S
C1391 H1362 0.950 . S
C1391 C1390 1.397 . S
C1391 C1392 1.334 . S
C1392 H1363 0.950 . S
C1392 C1391 1.334 . S
C1392 C1393 1.287 . S
C1393 C1392 1.287 . S
C1393 C1394 1.524 . S
C1393 H1396 0.999 . S
C1394 H1364 0.950 . S
C1394 C1393 1.524 . S
C1394 C1395 1.415 . S
C1395 H1365 0.950 . S
C1395 C1390 1.363 . S
C1395 C1394 1.415 . S
H1396 C1393 0.999 . S
H1397 C1378 0.913 . S
H1398 C1416 0.951 . S
H1399 C1418 0.951 . S
H1400 C1420 0.950 . S
H1401 C1421 0.950 . S
H1402 C1423 0.950 . S
H1403 C1426 0.950 . S
H1404 C1427 0.950 . S
H1405 C1429 0.950 . S
H1406 C1430 0.950 . S
H1407 C1431 0.951 . S
H1408 C1433 0.951 . S
H1409 C1435 0.950 . S
H1410 C1436 0.950 . S
H1411 C1438 0.950 . S
H1412 C1441 0.950 . S
H1413 C1442 0.950 . S
H1414 C1444 0.950 . S
H1415 C1445 0.950 . S
C1416 H1398 0.951 . S
C1416 C1417 1.366 . S
C1416 C1418 1.388 . S
C1417 C1416 1.366 . S
C1417 C1421 1.385 . S
C1418 H1399 0.951 . S
C1418 C1416 1.388 . S
C1418 C1419 1.366 . S
C1419 C1418 1.366 . S
C1419 C1420 1.414 . S
C1419 C1422 1.499 . S
C1420 H1400 0.950 . S
C1420 C1419 1.414 . S
C1420 C1421 1.374 . S
C1421 H1401 0.950 . S
C1421 C1417 1.385 . S
C1421 C1420 1.374 . S
C1422 C1419 1.499 . S
C1422 C1423 1.373 . S
C1422 C1424 1.389 . S
C1423 H1402 0.950 . S
C1423 C1422 1.373 . S
C1423 C1439 1.377 . S
C1424 C1422 1.389 . S
C1424 C1425 1.524 . S
C1424 C1438 1.377 . S
C1425 C1424 1.524 . S
C1425 C1426 1.397 . S
C1425 C1430 1.363 . S
C1426 H1403 0.950 . S
C1426 C1425 1.397 . S
C1426 C1427 1.334 . S
C1427 H1404 0.950 . S
C1427 C1426 1.334 . S
C1427 C1428 1.287 . S
C1428 C1427 1.287 . S
C1428 C1429 1.524 . S
C1428 H1447 0.913 . S
C1429 H1405 0.950 . S
C1429 C1428 1.524 . S
C1429 C1430 1.415 . S
C1430 H1406 0.950 . S
C1430 C1425 1.363 . S
C1430 C1429 1.415 . S
C1431 H1407 0.951 . S
C1431 C1432 1.366 . S
C1431 C1433 1.388 . S
C1432 C1431 1.366 . S
C1432 C1436 1.385 . S
C1433 H1408 0.951 . S
C1433 C1431 1.388 . S
C1433 C1434 1.366 . S
C1434 C1433 1.366 . S
C1434 C1435 1.414 . S
C1434 C1437 1.499 . S
C1435 H1409 0.950 . S
C1435 C1434 1.414 . S
C1435 C1436 1.374 . S
C1436 H1410 0.950 . S
C1436 C1432 1.385 . S
C1436 C1435 1.374 . S
C1437 C1434 1.499 . S
C1437 C1438 1.373 . S
C1437 C1439 1.389 . S
C1438 H1411 0.950 . S
C1438 C1424 1.377 . S
C1438 C1437 1.373 . S
C1439 C1423 1.377 . S
C1439 C1437 1.389 . S
C1439 C1440 1.524 . S
C1440 C1439 1.524 . S
C1440 C1441 1.397 . S
C1440 C1445 1.363 . S
C1441 H1412 0.950 . S
C1441 C1440 1.397 . S
C1441 C1442 1.334 . S
C1442 H1413 0.950 . S
C1442 C1441 1.334 . S
C1442 C1443 1.287 . S
C1443 C1442 1.287 . S
C1443 C1444 1.524 . S
C1443 H1446 0.999 . S
C1444 H1414 0.950 . S
C1444 C1443 1.524 . S
C1444 C1445 1.415 . S
C1445 H1415 0.950 . S
C1445 C1440 1.363 . S
C1445 C1444 1.415 . S
H1446 C1443 0.999 . S
H1447 C1428 0.913 . S
H1448 C1466 0.951 . S
H1449 C1468 0.951 . S
H1450 C1470 0.950 . S
H1451 C1471 0.950 . S
H1452 C1473 0.950 . S
H1453 C1476 0.950 . S
H1454 C1477 0.950 . S
H1455 C1479 0.950 . S
H1456 C1480 0.950 . S
H1457 C1481 0.951 . S
H1458 C1483 0.951 . S
H1459 C1485 0.950 . S
H1460 C1486 0.950 . S
H1461 C1488 0.950 . S
H1462 C1491 0.950 . S
H1463 C1492 0.950 . S
H1464 C1494 0.950 . S
H1465 C1495 0.950 . S
C1466 H1448 0.951 . S
C1466 C1467 1.366 . S
C1466 C1468 1.388 . S
C1467 C1466 1.366 . S
C1467 C1471 1.385 . S
C1468 H1449 0.951 . S
C1468 C1466 1.388 . S
C1468 C1469 1.366 . S
C1469 C1468 1.366 . S
C1469 C1470 1.414 . S
C1469 C1472 1.499 . S
C1470 H1450 0.950 . S
C1470 C1469 1.414 . S
C1470 C1471 1.374 . S
C1471 H1451 0.950 . S
C1471 C1467 1.385 . S
C1471 C1470 1.374 . S
C1472 C1469 1.499 . S
C1472 C1473 1.373 . S
C1472 C1474 1.389 . S
C1473 H1452 0.950 . S
C1473 C1472 1.373 . S
C1473 C1489 1.377 . S
C1474 C1472 1.389 . S
C1474 C1475 1.524 . S
C1474 C1488 1.377 . S
C1475 C1474 1.524 . S
C1475 C1476 1.397 . S
C1475 C1480 1.363 . S
C1476 H1453 0.950 . S
C1476 C1475 1.397 . S
C1476 C1477 1.334 . S
C1477 H1454 0.950 . S
C1477 C1476 1.334 . S
C1477 C1478 1.287 . S
C1478 C1477 1.287 . S
C1478 C1479 1.524 . S
C1478 H1497 0.913 . S
C1479 H1455 0.950 . S
C1479 C1478 1.524 . S
C1479 C1480 1.415 . S
C1480 H1456 0.950 . S
C1480 C1475 1.363 . S
C1480 C1479 1.415 . S
C1481 H1457 0.951 . S
C1481 C1482 1.366 . S
C1481 C1483 1.388 . S
C1482 C1481 1.366 . S
C1482 C1486 1.385 . S
C1483 H1458 0.951 . S
C1483 C1481 1.388 . S
C1483 C1484 1.366 . S
C1484 C1483 1.366 . S
C1484 C1485 1.414 . S
C1484 C1487 1.499 . S
C1485 H1459 0.950 . S
C1485 C1484 1.414 . S
C1485 C1486 1.374 . S
C1486 H1460 0.950 . S
C1486 C1482 1.385 . S
C1486 C1485 1.374 . S
C1487 C1484 1.499 . S
C1487 C1488 1.373 . S
C1487 C1489 1.389 . S
C1488 H1461 0.950 . S
C1488 C1474 1.377 . S
C1488 C1487 1.373 . S
C1489 C1473 1.377 . S
C1489 C1487 1.389 . S
C1489 C1490 1.524 . S
C1490 C1489 1.524 . S
C1490 C1491 1.397 . S
C1490 C1495 1.363 . S
C1491 H1462 0.950 . S
C1491 C1490 1.397 . S
C1491 C1492 1.334 . S
C1492 H1463 0.950 . S
C1492 C1491 1.334 . S
C1492 C1493 1.287 . S
C1493 C1492 1.287 . S
C1493 C1494 1.524 . S
C1493 H1496 0.999 . S
C1494 H1464 0.950 . S
C1494 C1493 1.524 . S
C1494 C1495 1.415 . S
C1495 H1465 0.950 . S
C1495 C1490 1.363 . S
C1495 C1494 1.415 . S
H1496 C1493 0.999 . S
H1497 C1478 0.913 . S
H1498 C1516 0.951 . S
H1499 C1518 0.951 . S
H1500 C1520 0.950 . S
H1501 C1521 0.950 . S
H1502 C1523 0.950 . S
H1503 C1526 0.950 . S
H1504 C1527 0.950 . S
H1505 C1529 0.950 . S
H1506 C1530 0.950 . S
H1507 C1531 0.951 . S
H1508 C1533 0.951 . S
H1509 C1535 0.950 . S
H1510 C1536 0.950 . S
H1511 C1538 0.950 . S
H1512 C1541 0.950 . S
H1513 C1542 0.950 . S
H1514 C1544 0.950 . S
H1515 C1545 0.950 . S
C1516 H1498 0.951 . S
C1516 C1517 1.366 . S
C1516 C1518 1.388 . S
C1517 C1516 1.366 . S
C1517 C1521 1.385 . S
C1518 H1499 0.951 . S
C1518 C1516 1.388 . S
C1518 C1519 1.366 . S
C1519 C1518 1.366 . S
C1519 C1520 1.414 . S
C1519 C1522 1.499 . S
C1520 H1500 0.950 . S
C1520 C1519 1.414 . S
C1520 C1521 1.374 . S
C1521 H1501 0.950 . S
C1521 C1517 1.385 . S
C1521 C1520 1.374 . S
C1522 C1519 1.499 . S
C1522 C1523 1.373 . S
C1522 C1524 1.389 . S
C1523 H1502 0.950 . S
C1523 C1522 1.373 . S
C1523 C1539 1.377 . S
C1524 C1522 1.389 . S
C1524 C1525 1.524 . S
C1524 C1538 1.377 . S
C1525 C1524 1.524 . S
C1525 C1526 1.397 . S
C1525 C1530 1.363 . S
C1526 H1503 0.950 . S
C1526 C1525 1.397 . S
C1526 C1527 1.334 . S
C1527 H1504 0.950 . S
C1527 C1526 1.334 . S
C1527 C1528 1.287 . S
C1528 C1527 1.287 . S
C1528 C1529 1.524 . S
C1528 H1547 0.913 . S
C1529 H1505 0.950 . S
C1529 C1528 1.524 . S
C1529 C1530 1.415 . S
C1530 H1506 0.950 . S
C1530 C1525 1.363 . S
C1530 C1529 1.415 . S
C1531 H1507 0.951 . S
C1531 C1532 1.366 . S
C1531 C1533 1.388 . S
C1532 C1531 1.366 . S
C1532 C1536 1.385 . S
C1533 H1508 0.951 . S
C1533 C1531 1.388 . S
C1533 C1534 1.366 . S
C1534 C1533 1.366 . S
C1534 C1535 1.414 . S
C1534 C1537 1.499 . S
C1535 H1509 0.950 . S
C1535 C1534 1.414 . S
C1535 C1536 1.374 . S
C1536 H1510 0.950 . S
C1536 C1532 1.385 . S
C1536 C1535 1.374 . S
C1537 C1534 1.499 . S
C1537 C1538 1.373 . S
C1537 C1539 1.389 . S
C1538 H1511 0.950 . S
C1538 C1524 1.377 . S
C1538 C1537 1.373 . S
C1539 C1523 1.377 . S
C1539 C1537 1.389 . S
C1539 C1540 1.524 . S
C1540 C1539 1.524 . S
C1540 C1541 1.397 . S
C1540 C1545 1.363 . S
C1541 H1512 0.950 . S
C1541 C1540 1.397 . S
C1541 C1542 1.334 . S
C1542 H1513 0.950 . S
C1542 C1541 1.334 . S
C1542 C1543 1.287 . S
C1543 C1542 1.287 . S
C1543 C1544 1.524 . S
C1543 H1546 0.999 . S
C1544 H1514 0.950 . S
C1544 C1543 1.524 . S
C1544 C1545 1.415 . S
C1545 H1515 0.950 . S
C1545 C1540 1.363 . S
C1545 C1544 1.415 . S
H1546 C1543 0.999 . S
H1547 C1528 0.913 . S
H1548 C1566 0.951 . S
H1549 C1568 0.951 . S
H1550 C1570 0.950 . S
H1551 C1571 0.950 . S
H1552 C1573 0.950 . S
H1553 C1576 0.950 . S
H1554 C1577 0.950 . S
H1555 C1579 0.950 . S
H1556 C1580 0.950 . S
H1557 C1581 0.951 1_655 S
H1558 C1583 0.951 . S
H1559 C1585 0.950 . S
H1560 C1586 0.950 . S
H1561 C1588 0.950 . S
H1562 C1591 0.950 . S
H1563 C1592 0.950 . S
H1564 C1594 0.950 . S
H1565 C1595 0.950 . S
C1566 H1548 0.951 . S
C1566 C1567 1.366 . S
C1566 C1568 1.388 . S
C1567 C1566 1.366 . S
C1567 C1571 1.385 . S
C1568 H1549 0.951 . S
C1568 C1566 1.388 . S
C1568 C1569 1.366 . S
C1569 C1568 1.366 . S
C1569 C1570 1.414 . S
C1569 C1572 1.499 . S
C1570 H1550 0.950 . S
C1570 C1569 1.414 . S
C1570 C1571 1.374 . S
C1571 H1551 0.950 . S
C1571 C1567 1.385 . S
C1571 C1570 1.374 . S
C1572 C1569 1.499 . S
C1572 C1573 1.373 . S
C1572 C1574 1.389 . S
C1573 H1552 0.950 . S
C1573 C1572 1.373 . S
C1573 C1589 1.377 . S
C1574 C1572 1.389 . S
C1574 C1575 1.524 . S
C1574 C1588 1.377 . S
C1575 C1574 1.524 . S
C1575 C1576 1.397 . S
C1575 C1580 1.363 . S
C1576 H1553 0.950 . S
C1576 C1575 1.397 . S
C1576 C1577 1.334 . S
C1577 H1554 0.950 . S
C1577 C1576 1.334 . S
C1577 C1578 1.287 . S
C1578 C1577 1.287 . S
C1578 C1579 1.524 . S
C1578 H1597 0.913 . S
C1579 H1555 0.950 . S
C1579 C1578 1.524 . S
C1579 C1580 1.415 . S
C1580 H1556 0.950 . S
C1580 C1575 1.363 . S
C1580 C1579 1.415 . S
C1581 H1557 0.951 1_455 S
C1581 C1582 1.366 . S
C1581 C1583 1.388 . S
C1582 C1581 1.366 . S
C1582 C1586 1.385 . S
C1583 H1558 0.951 . S
C1583 C1581 1.388 . S
C1583 C1584 1.366 . S
C1584 C1583 1.366 . S
C1584 C1585 1.414 . S
C1584 C1587 1.499 . S
C1585 H1559 0.950 . S
C1585 C1584 1.414 . S
C1585 C1586 1.374 . S
C1586 H1560 0.950 . S
C1586 C1582 1.385 . S
C1586 C1585 1.374 . S
C1587 C1584 1.499 . S
C1587 C1588 1.373 . S
C1587 C1589 1.389 . S
C1588 H1561 0.950 . S
C1588 C1574 1.377 . S
C1588 C1587 1.373 . S
C1589 C1573 1.377 . S
C1589 C1587 1.389 . S
C1589 C1590 1.524 . S
C1590 C1589 1.524 . S
C1590 C1591 1.397 . S
C1590 C1595 1.363 . S
C1591 H1562 0.950 . S
C1591 C1590 1.397 . S
C1591 C1592 1.334 . S
C1592 H1563 0.950 . S
C1592 C1591 1.334 . S
C1592 C1593 1.287 1_455 S
C1593 C1592 1.287 1_655 S
C1593 C1594 1.524 . S
C1593 H1596 0.999 . S
C1594 H1564 0.950 . S
C1594 C1593 1.524 . S
C1594 C1595 1.415 1_655 S
C1595 H1565 0.950 . S
C1595 C1590 1.363 . S
C1595 C1594 1.415 1_455 S
H1596 C1593 0.999 . S
H1597 C1578 0.913 . S
H1598 C1616 0.951 . S
H1599 C1618 0.951 . S
H1600 C1620 0.950 . S
H1601 C1621 0.950 . S
H1602 C1623 0.950 . S
H1603 C1626 0.950 . S
H1604 C1627 0.950 . S
H1605 C1629 0.950 . S
H1606 C1630 0.950 . S
H1607 C1631 0.951 . S
H1608 C1633 0.951 . S
H1609 C1635 0.950 . S
H1610 C1636 0.950 . S
H1611 C1638 0.950 . S
H1612 C1641 0.950 . S
H1613 C1642 0.950 . S
H1614 C1644 0.950 . S
H1615 C1645 0.950 . S
C1616 H1598 0.951 . S
C1616 C1617 1.366 . S
C1616 C1618 1.388 . S
C1617 C1616 1.366 . S
C1617 C1621 1.385 . S
C1618 H1599 0.951 . S
C1618 C1616 1.388 . S
C1618 C1619 1.366 . S
C1619 C1618 1.366 . S
C1619 C1620 1.414 . S
C1619 C1622 1.499 . S
C1620 H1600 0.950 . S
C1620 C1619 1.414 . S
C1620 C1621 1.374 . S
C1621 H1601 0.950 . S
C1621 C1617 1.385 . S
C1621 C1620 1.374 . S
C1622 C1619 1.499 . S
C1622 C1623 1.373 . S
C1622 C1624 1.389 . S
C1623 H1602 0.950 . S
C1623 C1622 1.373 . S
C1623 C1639 1.377 . S
C1624 C1622 1.389 . S
C1624 C1625 1.524 . S
C1624 C1638 1.377 . S
C1625 C1624 1.524 . S
C1625 C1626 1.397 . S
C1625 C1630 1.363 . S
C1626 H1603 0.950 . S
C1626 C1625 1.397 . S
C1626 C1627 1.334 . S
C1627 H1604 0.950 . S
C1627 C1626 1.334 . S
C1627 C1628 1.287 . S
C1628 C1627 1.287 . S
C1628 C1629 1.524 . S
C1628 H1647 0.913 . S
C1629 H1605 0.950 . S
C1629 C1628 1.524 . S
C1629 C1630 1.415 . S
C1630 H1606 0.950 . S
C1630 C1625 1.363 . S
C1630 C1629 1.415 . S
C1631 H1607 0.951 . S
C1631 C1632 1.366 . S
C1631 C1633 1.388 . S
C1632 C1631 1.366 . S
C1632 C1636 1.385 . S
C1633 H1608 0.951 . S
C1633 C1631 1.388 . S
C1633 C1634 1.366 . S
C1634 C1633 1.366 . S
C1634 C1635 1.414 . S
C1634 C1637 1.499 . S
C1635 H1609 0.950 . S
C1635 C1634 1.414 . S
C1635 C1636 1.374 . S
C1636 H1610 0.950 . S
C1636 C1632 1.385 . S
C1636 C1635 1.374 . S
C1637 C1634 1.499 . S
C1637 C1638 1.373 . S
C1637 C1639 1.389 . S
C1638 H1611 0.950 . S
C1638 C1624 1.377 . S
C1638 C1637 1.373 . S
C1639 C1623 1.377 . S
C1639 C1637 1.389 . S
C1639 C1640 1.524 . S
C1640 C1639 1.524 . S
C1640 C1641 1.397 . S
C1640 C1645 1.363 . S
C1641 H1612 0.950 . S
C1641 C1640 1.397 . S
C1641 C1642 1.334 . S
C1642 H1613 0.950 . S
C1642 C1641 1.334 . S
C1642 C1643 1.287 . S
C1643 C1642 1.287 . S
C1643 C1644 1.524 . S
C1643 H1646 0.999 . S
C1644 H1614 0.950 . S
C1644 C1643 1.524 . S
C1644 C1645 1.415 . S
C1645 H1615 0.950 . S
C1645 C1640 1.363 . S
C1645 C1644 1.415 . S
H1646 C1643 0.999 . S
H1647 C1628 0.913 . S
C467 C1 1.184 . S
C482 C305 1.188 . S
C517 C67 1.191 . S
C532 C345 1.193 . S
C582 C370 2.315 . S
C567 C97 2.360 . S
C617 C133 2.399 . S
C632 C410 2.340 . S
C682 C341 1.795 . S
C667 C25 1.773 . S
C732 C301 1.784 . S
C717 C37 1.758 . S
C782 C432 1.589 . S
C767 C103 1.598 . S
C832 C392 1.579 . S
C817 C109 1.599 . S
C867 C31 1.280 . S
C882 C434 1.289 . S
C932 C351 2.090 . S
C917 C73 2.123 . S
C967 C139 2.152 . S
C982 C311 2.121 . S
C1017 C61 1.271 . S
C1032 C394 1.282 . S
C1082 C314 1.189 . S
C1067 C175 1.154 . S
C1117 C181 1.164 . S
C1132 C354 1.174 . S
C1167 C247 2.396 . S
C1182 C391 2.338 . S
C1217 C277 2.385 . S
C1232 C431 2.329 . S
C1267 C145 1.714 . S
C1282 C352 1.782 . S
C1332 C312 1.789 . S
C1317 C211 1.761 . S
C1382 C421 1.578 . S
C1367 C217 1.587 . S
C1432 C381 1.602 . S
C1417 C283 1.614 . S
C1467 C169 1.235 . S
C1482 C425 1.283 . S
C1532 C330 2.101 . S
C1517 C241 2.141 . S
C1582 C290 2.104 . S
C1567 C253 2.144 . S
C1617 C205 1.288 . S
C1632 C385 1.288 . S
